# Generated by pormake.
# Topology gar, (4,6)-cn, num edge types: 1
# Building blocks:
#     Node 0, Type 0, BuildingBlock: QUQFOY_clean_sbu_3, # of connection points: 4
#     Node 1, Type 0, BuildingBlock: QUQFOY_clean_sbu_3, # of connection points: 4
#     Node 2, Type 0, BuildingBlock: QUQFOY_clean_sbu_3, # of connection points: 4
#     Node 3, Type 0, BuildingBlock: QUQFOY_clean_sbu_3, # of connection points: 4
#     Node 4, Type 0, BuildingBlock: QUQFOY_clean_sbu_3, # of connection points: 4
#     Node 5, Type 0, BuildingBlock: QUQFOY_clean_sbu_3, # of connection points: 4
#     Node 6, Type 0, BuildingBlock: QUQFOY_clean_sbu_3, # of connection points: 4
#     Node 7, Type 0, BuildingBlock: QUQFOY_clean_sbu_3, # of connection points: 4
#     Node 8, Type 0, BuildingBlock: QUQFOY_clean_sbu_3, # of connection points: 4
#     Node 9, Type 0, BuildingBlock: QUQFOY_clean_sbu_3, # of connection points: 4
#     Node 10, Type 0, BuildingBlock: QUQFOY_clean_sbu_3, # of connection points: 4
#     Node 11, Type 0, BuildingBlock: QUQFOY_clean_sbu_3, # of connection points: 4
#     Node 12, Type 0, BuildingBlock: QUQFOY_clean_sbu_3, # of connection points: 4
#     Node 13, Type 0, BuildingBlock: QUQFOY_clean_sbu_3, # of connection points: 4
#     Node 14, Type 0, BuildingBlock: QUQFOY_clean_sbu_3, # of connection points: 4
#     Node 15, Type 0, BuildingBlock: QUQFOY_clean_sbu_3, # of connection points: 4
#     Node 16, Type 0, BuildingBlock: QUQFOY_clean_sbu_3, # of connection points: 4
#     Node 17, Type 0, BuildingBlock: QUQFOY_clean_sbu_3, # of connection points: 4
#     Node 18, Type 0, BuildingBlock: QUQFOY_clean_sbu_3, # of connection points: 4
#     Node 19, Type 0, BuildingBlock: QUQFOY_clean_sbu_3, # of connection points: 4
#     Node 20, Type 0, BuildingBlock: QUQFOY_clean_sbu_3, # of connection points: 4
#     Node 21, Type 0, BuildingBlock: QUQFOY_clean_sbu_3, # of connection points: 4
#     Node 22, Type 0, BuildingBlock: QUQFOY_clean_sbu_3, # of connection points: 4
#     Node 23, Type 0, BuildingBlock: QUQFOY_clean_sbu_3, # of connection points: 4
#     Node 24, Type 1, BuildingBlock: KUMJIN_clean_sbu_1, # of connection points: 6
#     Node 25, Type 1, BuildingBlock: KUMJIN_clean_sbu_1, # of connection points: 6
#     Node 26, Type 1, BuildingBlock: KUMJIN_clean_sbu_1, # of connection points: 6
#     Node 27, Type 1, BuildingBlock: KUMJIN_clean_sbu_1, # of connection points: 6
#     Node 28, Type 1, BuildingBlock: KUMJIN_clean_sbu_1, # of connection points: 6
#     Node 29, Type 1, BuildingBlock: KUMJIN_clean_sbu_1, # of connection points: 6
#     Node 30, Type 1, BuildingBlock: KUMJIN_clean_sbu_1, # of connection points: 6
#     Node 31, Type 1, BuildingBlock: KUMJIN_clean_sbu_1, # of connection points: 6
#     Node 32, Type 1, BuildingBlock: KUMJIN_clean_sbu_1, # of connection points: 6
#     Node 33, Type 1, BuildingBlock: KUMJIN_clean_sbu_1, # of connection points: 6
#     Node 34, Type 1, BuildingBlock: KUMJIN_clean_sbu_1, # of connection points: 6
#     Node 35, Type 1, BuildingBlock: KUMJIN_clean_sbu_1, # of connection points: 6
#     Node 36, Type 1, BuildingBlock: KUMJIN_clean_sbu_1, # of connection points: 6
#     Node 37, Type 1, BuildingBlock: KUMJIN_clean_sbu_1, # of connection points: 6
#     Node 38, Type 1, BuildingBlock: KUMJIN_clean_sbu_1, # of connection points: 6
#     Node 39, Type 1, BuildingBlock: KUMJIN_clean_sbu_1, # of connection points: 6
#     Edge 40, Type (0, 1), BuildingBlock: KIFKEQ_clean_linker_1, # of connection points: 2
#     Edge 41, Type (0, 1), BuildingBlock: KIFKEQ_clean_linker_1, # of connection points: 2
#     Edge 42, Type (0, 1), BuildingBlock: KIFKEQ_clean_linker_1, # of connection points: 2
#     Edge 43, Type (0, 1), BuildingBlock: KIFKEQ_clean_linker_1, # of connection points: 2
#     Edge 44, Type (0, 1), BuildingBlock: KIFKEQ_clean_linker_1, # of connection points: 2
#     Edge 45, Type (0, 1), BuildingBlock: KIFKEQ_clean_linker_1, # of connection points: 2
#     Edge 46, Type (0, 1), BuildingBlock: KIFKEQ_clean_linker_1, # of connection points: 2
#     Edge 47, Type (0, 1), BuildingBlock: KIFKEQ_clean_linker_1, # of connection points: 2
#     Edge 48, Type (0, 1), BuildingBlock: KIFKEQ_clean_linker_1, # of connection points: 2
#     Edge 49, Type (0, 1), BuildingBlock: KIFKEQ_clean_linker_1, # of connection points: 2
#     Edge 50, Type (0, 1), BuildingBlock: KIFKEQ_clean_linker_1, # of connection points: 2
#     Edge 51, Type (0, 1), BuildingBlock: KIFKEQ_clean_linker_1, # of connection points: 2
#     Edge 52, Type (0, 1), BuildingBlock: KIFKEQ_clean_linker_1, # of connection points: 2
#     Edge 53, Type (0, 1), BuildingBlock: KIFKEQ_clean_linker_1, # of connection points: 2
#     Edge 54, Type (0, 1), BuildingBlock: KIFKEQ_clean_linker_1, # of connection points: 2
#     Edge 55, Type (0, 1), BuildingBlock: KIFKEQ_clean_linker_1, # of connection points: 2
#     Edge 56, Type (0, 1), BuildingBlock: KIFKEQ_clean_linker_1, # of connection points: 2
#     Edge 57, Type (0, 1), BuildingBlock: KIFKEQ_clean_linker_1, # of connection points: 2
#     Edge 58, Type (0, 1), BuildingBlock: KIFKEQ_clean_linker_1, # of connection points: 2
#     Edge 59, Type (0, 1), BuildingBlock: KIFKEQ_clean_linker_1, # of connection points: 2
#     Edge 60, Type (0, 1), BuildingBlock: KIFKEQ_clean_linker_1, # of connection points: 2
#     Edge 61, Type (0, 1), BuildingBlock: KIFKEQ_clean_linker_1, # of connection points: 2
#     Edge 62, Type (0, 1), BuildingBlock: KIFKEQ_clean_linker_1, # of connection points: 2
#     Edge 63, Type (0, 1), BuildingBlock: KIFKEQ_clean_linker_1, # of connection points: 2
#     Edge 64, Type (0, 1), BuildingBlock: KIFKEQ_clean_linker_1, # of connection points: 2
#     Edge 65, Type (0, 1), BuildingBlock: KIFKEQ_clean_linker_1, # of connection points: 2
#     Edge 66, Type (0, 1), BuildingBlock: KIFKEQ_clean_linker_1, # of connection points: 2
#     Edge 67, Type (0, 1), BuildingBlock: KIFKEQ_clean_linker_1, # of connection points: 2
#     Edge 68, Type (0, 1), BuildingBlock: KIFKEQ_clean_linker_1, # of connection points: 2
#     Edge 69, Type (0, 1), BuildingBlock: KIFKEQ_clean_linker_1, # of connection points: 2
#     Edge 70, Type (0, 1), BuildingBlock: KIFKEQ_clean_linker_1, # of connection points: 2
#     Edge 71, Type (0, 1), BuildingBlock: KIFKEQ_clean_linker_1, # of connection points: 2
#     Edge 72, Type (0, 1), BuildingBlock: KIFKEQ_clean_linker_1, # of connection points: 2
#     Edge 73, Type (0, 1), BuildingBlock: KIFKEQ_clean_linker_1, # of connection points: 2
#     Edge 74, Type (0, 1), BuildingBlock: KIFKEQ_clean_linker_1, # of connection points: 2
#     Edge 75, Type (0, 1), BuildingBlock: KIFKEQ_clean_linker_1, # of connection points: 2
#     Edge 76, Type (0, 1), BuildingBlock: KIFKEQ_clean_linker_1, # of connection points: 2
#     Edge 77, Type (0, 1), BuildingBlock: KIFKEQ_clean_linker_1, # of connection points: 2
#     Edge 78, Type (0, 1), BuildingBlock: KIFKEQ_clean_linker_1, # of connection points: 2
#     Edge 79, Type (0, 1), BuildingBlock: KIFKEQ_clean_linker_1, # of connection points: 2
#     Edge 80, Type (0, 1), BuildingBlock: KIFKEQ_clean_linker_1, # of connection points: 2
#     Edge 81, Type (0, 1), BuildingBlock: KIFKEQ_clean_linker_1, # of connection points: 2
#     Edge 82, Type (0, 1), BuildingBlock: KIFKEQ_clean_linker_1, # of connection points: 2
#     Edge 83, Type (0, 1), BuildingBlock: KIFKEQ_clean_linker_1, # of connection points: 2
#     Edge 84, Type (0, 1), BuildingBlock: KIFKEQ_clean_linker_1, # of connection points: 2
#     Edge 85, Type (0, 1), BuildingBlock: KIFKEQ_clean_linker_1, # of connection points: 2
#     Edge 86, Type (0, 1), BuildingBlock: KIFKEQ_clean_linker_1, # of connection points: 2
#     Edge 87, Type (0, 1), BuildingBlock: KIFKEQ_clean_linker_1, # of connection points: 2
#     Edge 88, Type (0, 1), BuildingBlock: KIFKEQ_clean_linker_1, # of connection points: 2
#     Edge 89, Type (0, 1), BuildingBlock: KIFKEQ_clean_linker_1, # of connection points: 2
#     Edge 90, Type (0, 1), BuildingBlock: KIFKEQ_clean_linker_1, # of connection points: 2
#     Edge 91, Type (0, 1), BuildingBlock: KIFKEQ_clean_linker_1, # of connection points: 2
#     Edge 92, Type (0, 1), BuildingBlock: KIFKEQ_clean_linker_1, # of connection points: 2
#     Edge 93, Type (0, 1), BuildingBlock: KIFKEQ_clean_linker_1, # of connection points: 2
#     Edge 94, Type (0, 1), BuildingBlock: KIFKEQ_clean_linker_1, # of connection points: 2
#     Edge 95, Type (0, 1), BuildingBlock: KIFKEQ_clean_linker_1, # of connection points: 2
#     Edge 96, Type (0, 1), BuildingBlock: KIFKEQ_clean_linker_1, # of connection points: 2
#     Edge 97, Type (0, 1), BuildingBlock: KIFKEQ_clean_linker_1, # of connection points: 2
#     Edge 98, Type (0, 1), BuildingBlock: KIFKEQ_clean_linker_1, # of connection points: 2
#     Edge 99, Type (0, 1), BuildingBlock: KIFKEQ_clean_linker_1, # of connection points: 2
#     Edge 100, Type (0, 1), BuildingBlock: KIFKEQ_clean_linker_1, # of connection points: 2
#     Edge 101, Type (0, 1), BuildingBlock: KIFKEQ_clean_linker_1, # of connection points: 2
#     Edge 102, Type (0, 1), BuildingBlock: KIFKEQ_clean_linker_1, # of connection points: 2
#     Edge 103, Type (0, 1), BuildingBlock: KIFKEQ_clean_linker_1, # of connection points: 2
#     Edge 104, Type (0, 1), BuildingBlock: KIFKEQ_clean_linker_1, # of connection points: 2
#     Edge 105, Type (0, 1), BuildingBlock: KIFKEQ_clean_linker_1, # of connection points: 2
#     Edge 106, Type (0, 1), BuildingBlock: KIFKEQ_clean_linker_1, # of connection points: 2
#     Edge 107, Type (0, 1), BuildingBlock: KIFKEQ_clean_linker_1, # of connection points: 2
#     Edge 108, Type (0, 1), BuildingBlock: KIFKEQ_clean_linker_1, # of connection points: 2
#     Edge 109, Type (0, 1), BuildingBlock: KIFKEQ_clean_linker_1, # of connection points: 2
#     Edge 110, Type (0, 1), BuildingBlock: KIFKEQ_clean_linker_1, # of connection points: 2
#     Edge 111, Type (0, 1), BuildingBlock: KIFKEQ_clean_linker_1, # of connection points: 2
#     Edge 112, Type (0, 1), BuildingBlock: KIFKEQ_clean_linker_1, # of connection points: 2
#     Edge 113, Type (0, 1), BuildingBlock: KIFKEQ_clean_linker_1, # of connection points: 2
#     Edge 114, Type (0, 1), BuildingBlock: KIFKEQ_clean_linker_1, # of connection points: 2
#     Edge 115, Type (0, 1), BuildingBlock: KIFKEQ_clean_linker_1, # of connection points: 2
#     Edge 116, Type (0, 1), BuildingBlock: KIFKEQ_clean_linker_1, # of connection points: 2
#     Edge 117, Type (0, 1), BuildingBlock: KIFKEQ_clean_linker_1, # of connection points: 2
#     Edge 118, Type (0, 1), BuildingBlock: KIFKEQ_clean_linker_1, # of connection points: 2
#     Edge 119, Type (0, 1), BuildingBlock: KIFKEQ_clean_linker_1, # of connection points: 2
#     Edge 120, Type (0, 1), BuildingBlock: KIFKEQ_clean_linker_1, # of connection points: 2
#     Edge 121, Type (0, 1), BuildingBlock: KIFKEQ_clean_linker_1, # of connection points: 2
#     Edge 122, Type (0, 1), BuildingBlock: KIFKEQ_clean_linker_1, # of connection points: 2
#     Edge 123, Type (0, 1), BuildingBlock: KIFKEQ_clean_linker_1, # of connection points: 2
#     Edge 124, Type (0, 1), BuildingBlock: KIFKEQ_clean_linker_1, # of connection points: 2
#     Edge 125, Type (0, 1), BuildingBlock: KIFKEQ_clean_linker_1, # of connection points: 2
#     Edge 126, Type (0, 1), BuildingBlock: KIFKEQ_clean_linker_1, # of connection points: 2
#     Edge 127, Type (0, 1), BuildingBlock: KIFKEQ_clean_linker_1, # of connection points: 2
#     Edge 128, Type (0, 1), BuildingBlock: KIFKEQ_clean_linker_1, # of connection points: 2
#     Edge 129, Type (0, 1), BuildingBlock: KIFKEQ_clean_linker_1, # of connection points: 2
#     Edge 130, Type (0, 1), BuildingBlock: KIFKEQ_clean_linker_1, # of connection points: 2
#     Edge 131, Type (0, 1), BuildingBlock: KIFKEQ_clean_linker_1, # of connection points: 2
#     Edge 132, Type (0, 1), BuildingBlock: KIFKEQ_clean_linker_1, # of connection points: 2
#     Edge 133, Type (0, 1), BuildingBlock: KIFKEQ_clean_linker_1, # of connection points: 2
#     Edge 134, Type (0, 1), BuildingBlock: KIFKEQ_clean_linker_1, # of connection points: 2
#     Edge 135, Type (0, 1), BuildingBlock: KIFKEQ_clean_linker_1, # of connection points: 2
# Relax obj value: 0.066
# Max RMSD: 0.181
# Mean RMSD: 0.107
data_MOF--net-gar--node1-QUQFOY_clean_sbu_3--node2-KUMJIN_clean_sbu_1--edge1-KIFKEQ_clean_linker_1
_symmetry_space_group_name_H-M    P1
_symmetry_Int_Tables_number       1
_symmetry_cell_setting            triclinic
loop_
_symmetry_equiv_pos_as_xyz
'x, y, z'
_cell_length_a     61.43211
_cell_length_b     62.353424
_cell_length_c     57.861787
_cell_angle_alpha  96.910447
_cell_angle_beta   96.150867
_cell_angle_gamma 101.39963
loop_
_atom_site_label
_atom_site_type_symbol
_atom_site_fract_x
_atom_site_fract_y
_atom_site_fract_z
_atom_type_partial_charge
C0 C 1.0012 0.31357 0.32954 0.0
O1 O 0.01344 0.32503 0.31724 0.0
Cd2 Cd 0.05284 0.33645 0.33289 0.0
O3 O 0.01081 0.30686 0.34722 0.0
Cd4 Cd 0.05265 0.31011 0.36482 0.0
C5 C 0.05466 0.36442 0.38659 0.0
O6 O 0.07593 0.3083 0.32996 0.0
O7 O 0.09424 0.3161 0.36471 0.0
O8 O 0.03845 0.27072 0.36784 0.0
C9 C 0.09468 0.31074 0.34293 0.0
O10 O 0.05689 0.36697 0.36543 0.0
C11 C 0.04761 0.27164 0.38878 0.0
O12 O 0.05238 0.34501 0.39219 0.0
O13 O 0.05892 0.29039 0.39873 0.0
C14 C 0.9764 0.75136 0.72303 0.0
O15 O 0.98594 0.73732 0.73163 0.0
Cd16 Cd 0.01718 0.73835 0.70857 0.0
O17 O 0.98618 0.76172 0.7079 0.0
Cd18 Cd 0.02408 0.75824 0.69072 0.0
C19 C 0.01586 0.70377 0.66638 0.0
O20 O 0.05519 0.75594 0.72528 0.0
O21 O 0.065 0.76264 0.69178 0.0
O22 O 0.03171 0.79849 0.68919 0.0
C23 C 0.07105 0.76068 0.71291 0.0
O24 O 0.01614 0.70214 0.688 0.0
C25 C 0.02624 0.79697 0.66717 0.0
O26 O 0.017 0.72298 0.66041 0.0
O27 O 0.01968 0.77753 0.65596 0.0
C28 C 0.49871 0.81165 0.83 0.0
O29 O 0.51055 0.81909 0.81496 0.0
Cd30 Cd 0.54862 0.8326 0.83428 0.0
O31 O 0.50883 0.80854 0.84948 0.0
Cd32 Cd 0.55137 0.81005 0.86515 0.0
C33 C 0.55169 0.86325 0.88659 0.0
O34 O 0.57517 0.80815 0.83031 0.0
O35 O 0.59309 0.81667 0.86523 0.0
O36 O 0.53727 0.77045 0.8678 0.0
C37 C 0.59385 0.81116 0.84354 0.0
O38 O 0.55107 0.86471 0.86481 0.0
C39 C 0.54639 0.77122 0.88873 0.0
O40 O 0.55227 0.84458 0.8932 0.0
O41 O 0.55762 0.78995 0.89883 0.0
C42 C 0.47694 0.25222 0.22382 0.0
O43 O 0.48683 0.23881 0.23322 0.0
Cd44 Cd 0.51816 0.2384 0.21029 0.0
O45 O 0.48642 0.2618 0.20799 0.0
Cd46 Cd 0.52461 0.25857 0.19097 0.0
C47 C 0.5163 0.20389 0.16676 0.0
O48 O 0.55623 0.25817 0.2257 0.0
O49 O 0.56526 0.26074 0.19106 0.0
O50 O 0.53302 0.29882 0.18927 0.0
C51 C 0.57181 0.26106 0.21266 0.0
O52 O 0.51669 0.20221 0.18841 0.0
C53 C 0.52703 0.29731 0.16735 0.0
O54 O 0.51747 0.22315 0.16089 0.0
O55 O 0.51981 0.2779 0.15627 0.0
C56 C 0.02912 0.79268 0.14682 0.0
O57 O 0.04127 0.78356 0.16 0.0
Cd58 Cd 0.07644 0.77528 0.15379 0.0
O59 O 0.03573 0.79992 0.12836 0.0
Cd60 Cd 0.0706 0.80521 0.1068 0.0
C61 C 0.06262 0.74581 0.09651 0.0
O62 O 0.09454 0.8092 0.14404 0.0
O63 O 0.11321 0.80969 0.11501 0.0
O64 O 0.06008 0.84255 0.1071 0.0
C65 C 0.11342 0.81013 0.13703 0.0
O66 O 0.06735 0.74743 0.11873 0.0
C67 C 0.06519 0.84704 0.08727 0.0
O68 O 0.06202 0.76328 0.08664 0.0
O69 O 0.07272 0.83209 0.0755 0.0
C70 C 0.46115 0.77084 0.40112 0.0
O71 O 0.47552 0.78162 0.39025 0.0
Cd72 Cd 0.51423 0.7961 0.4008 0.0
O73 O 0.46713 0.76461 0.42088 0.0
Cd74 Cd 0.5058 0.76644 0.44719 0.0
C75 C 0.51163 0.82542 0.4561 0.0
O76 O 0.52604 0.76566 0.41323 0.0
O77 O 0.54757 0.77272 0.44605 0.0
O78 O 0.49515 0.7248 0.44732 0.0
C79 C 0.54575 0.76942 0.42383 0.0
O80 O 0.5146 0.82321 0.43457 0.0
C81 C 0.50343 0.72406 0.46824 0.0
O82 O 0.50766 0.80811 0.46656 0.0
O83 O 0.51125 0.74297 0.48057 0.0
C84 C 0.52812 0.2914 0.64627 0.0
O85 O 0.54 0.28237 0.65985 0.0
Cd86 Cd 0.5757 0.27454 0.65488 0.0
O87 O 0.53522 0.29875 0.62809 0.0
Cd88 Cd 0.57027 0.30435 0.60724 0.0
C89 C 0.56265 0.24477 0.59766 0.0
O90 O 0.594 0.30806 0.64455 0.0
O91 O 0.61302 0.30934 0.6158 0.0
O92 O 0.56172 0.34257 0.60905 0.0
C93 C 0.613 0.30924 0.63775 0.0
O94 O 0.5672 0.24674 0.61993 0.0
C95 C 0.56396 0.34621 0.58821 0.0
O96 O 0.56204 0.26207 0.58747 0.0
O97 O 0.56922 0.33045 0.57522 0.0
C98 C 0.96245 0.27288 0.90317 0.0
O99 O 0.97751 0.28453 0.89387 0.0
Cd100 Cd 0.01628 0.29627 0.90702 0.0
O101 O 0.96769 0.26499 0.92211 0.0
Cd102 Cd 0.0065 0.26619 0.948 0.0
C103 C 0.015 0.32497 0.96155 0.0
O104 O 0.02803 0.26368 0.91491 0.0
O105 O 0.04834 0.27683 0.94788 0.0
O106 O 0.99912 0.22457 0.94713 0.0
C107 C 0.04745 0.26944 0.92632 0.0
O108 O 0.02022 0.3248 0.94084 0.0
C109 C 0.00577 0.22375 0.96851 0.0
O110 O 0.00797 0.30659 0.96926 0.0
O111 O 0.01108 0.24252 0.98155 0.0
C112 C 0.42066 0.02607 0.34954 0.0
O113 O 0.43434 0.02076 0.33611 0.0
Cd114 Cd 0.42508 0.01078 0.29472 0.0
O115 O 0.40148 0.0287 0.34155 0.0
Cd116 Cd 0.38087 0.02991 0.3036 0.0
C117 C 0.37333 0.97553 0.29278 0.0
O118 O 0.41096 0.04045 0.28148 0.0
O119 O 0.37855 0.0279 0.26089 0.0
O120 O 0.37979 0.06647 0.31961 0.0
C121 C 0.39932 0.03574 0.26141 0.0
O122 O 0.39405 0.97892 0.29038 0.0
C123 C 0.35863 0.06369 0.31617 0.0
O124 O 0.36374 0.99132 0.29843 0.0
O125 O 0.34747 0.04451 0.30717 0.0
C126 C 0.30122 0.15179 0.52771 0.0
O127 O 0.28727 0.13928 0.53751 0.0
Cd128 Cd 0.24987 0.14176 0.54063 0.0
O129 O 0.29594 0.16748 0.51765 0.0
Cd130 Cd 0.26258 0.18378 0.50987 0.0
C131 C 0.26467 0.1962 0.5692 0.0
O132 O 0.2371 0.14849 0.50295 0.0
O133 O 0.22109 0.17616 0.50499 0.0
O134 O 0.2773 0.18584 0.47252 0.0
C135 C 0.21906 0.15535 0.50192 0.0
O136 O 0.25736 0.17549 0.56842 0.0
C137 C 0.27188 0.2039 0.46909 0.0
O138 O 0.26883 0.20451 0.55058 0.0
O139 O 0.26267 0.21318 0.48504 0.0
C140 C 0.10798 0.05732 0.83414 0.0
O141 O 0.09871 0.07019 0.82297 0.0
Cd142 Cd 0.10415 0.07652 0.78323 0.0
O143 O 0.12186 0.04747 0.8249 0.0
Cd144 Cd 0.13877 0.04824 0.78783 0.0
C145 C 0.15826 0.10344 0.79082 0.0
O146 O 0.10513 0.04331 0.75789 0.0
O147 O 0.13753 0.04982 0.74581 0.0
O148 O 0.14087 0.00951 0.78696 0.0
C149 C 0.11638 0.04515 0.74075 0.0
O150 O 0.13811 0.10404 0.78371 0.0
C151 C 0.16211 0.01323 0.79053 0.0
O152 O 0.16327 0.08568 0.79635 0.0
O153 O 0.17251 0.03325 0.79271 0.0
C154 C 0.3394 0.97627 0.00535 0.0
O155 O 0.33089 0.98903 0.99338 0.0
Cd156 Cd 0.29493 0.97469 0.97125 0.0
O157 O 0.32829 0.9575 0.00777 0.0
Cd158 Cd 0.29072 0.93574 6e-05 0.0
C159 C 0.30129 0.92376 0.94625 0.0
O160 O 0.27118 0.96519 0.00021 0.0
O161 O 0.2518 0.93269 0.98467 0.0
O162 O 0.29965 0.93593 0.04143 0.0
C163 C 0.25227 0.95266 0.99257 0.0
O164 O 0.29878 0.94313 0.94347 0.0
C165 C 0.29136 0.91559 0.0411 0.0
O166 O 0.30008 0.917 0.96597 0.0
O167 O 0.28193 0.90443 0.02149 0.0
C168 C 0.34586 0.42546 0.03996 0.0
O169 O 0.3338 0.43577 0.02823 0.0
Cd170 Cd 0.29469 0.42608 0.01776 0.0
O171 O 0.33732 0.40802 0.04813 0.0
Cd172 Cd 0.29824 0.38545 0.04761 0.0
C173 C 0.29486 0.37415 0.98807 0.0
O174 O 0.2812 0.41726 0.05293 0.0
O175 O 0.25801 0.38639 0.04119 0.0
O176 O 0.31053 0.38142 0.08843 0.0
C177 C 0.26108 0.40685 0.04857 0.0
O178 O 0.29217 0.39393 0.98858 0.0
C179 C 0.29885 0.36206 0.08758 0.0
O180 O 0.29822 0.36612 0.00713 0.0
O181 O 0.28779 0.353 0.06782 0.0
C182 C 0.80273 0.09943 0.07147 0.0
O183 O 0.78743 0.08805 0.08078 0.0
Cd184 Cd 0.75001 0.09446 0.07854 0.0
O185 O 0.79865 0.11418 0.05938 0.0
Cd186 Cd 0.76974 0.13202 0.04654 0.0
C187 C 0.76603 0.14824 0.10288 0.0
O188 O 0.73994 0.10046 0.03924 0.0
O189 O 0.7304 0.13218 0.03934 0.0
O190 O 0.77845 0.13277 0.0071 0.0
C191 C 0.72469 0.11124 0.03607 0.0
O192 O 0.75493 0.12907 0.10444 0.0
C193 C 0.78282 0.15373 0.00906 0.0
O194 O 0.77419 0.1528 0.08438 0.0
O195 O 0.7824 0.16453 0.02902 0.0
C196 C 0.15573 0.54235 0.28588 0.0
O197 O 0.14074 0.54799 0.27255 0.0
Cd198 Cd 0.14677 0.56179 0.23725 0.0
O199 O 0.17488 0.54148 0.27983 0.0
Cd200 Cd 0.19151 0.54389 0.24302 0.0
C201 C 0.19804 0.59745 0.25583 0.0
O202 O 0.15862 0.53221 0.21649 0.0
O203 O 0.18702 0.54889 0.20176 0.0
O204 O 0.19615 0.50754 0.2413 0.0
C205 C 0.16712 0.5375 0.19854 0.0
O206 O 0.17691 0.59431 0.25031 0.0
C207 C 0.21707 0.51201 0.2406 0.0
O208 O 0.20817 0.5816 0.25464 0.0
O209 O 0.22687 0.53221 0.24234 0.0
C210 C 0.84678 0.92657 0.54113 0.0
O211 O 0.83498 0.93713 0.5294 0.0
Cd212 Cd 0.7962 0.9268 0.51583 0.0
O213 O 0.83823 0.90842 0.54802 0.0
Cd214 Cd 0.79976 0.88484 0.54684 0.0
C215 C 0.79415 0.87369 0.48686 0.0
O216 O 0.78265 0.91568 0.54965 0.0
O217 O 0.75887 0.8846 0.54209 0.0
O218 O 0.80276 0.88439 0.58884 0.0
C219 C 0.76243 0.90553 0.54632 0.0
O220 O 0.79277 0.89387 0.48738 0.0
C221 C 0.80059 0.86367 0.58804 0.0
O222 O 0.79741 0.86558 0.50591 0.0
O223 O 0.79919 0.85237 0.5679 0.0
C224 C 0.96294 0.01119 0.30978 0.0
O225 O 0.97086 0.99776 0.29656 0.0
Cd226 Cd 0.96097 0.98956 0.2548 0.0
O227 O 0.94852 0.02123 0.30105 0.0
Cd228 Cd 0.92841 0.01972 0.26005 0.0
C229 C 0.90674 0.96453 0.25483 0.0
O230 O 0.96098 0.02305 0.23785 0.0
O231 O 0.92851 0.01452 0.217 0.0
O232 O 0.92711 0.05848 0.27194 0.0
C233 C 0.94956 0.02038 0.21771 0.0
O234 O 0.92586 0.9624 0.24959 0.0
C235 C 0.90669 0.05644 0.26367 0.0
O236 O 0.90311 0.98369 0.26094 0.0
O237 O 0.89622 0.03723 0.25419 0.0
C238 C 0.31162 0.60347 0.56964 0.0
O239 O 0.29785 0.59015 0.57881 0.0
Cd240 Cd 0.25921 0.59322 0.57779 0.0
O241 O 0.30523 0.61824 0.55909 0.0
Cd242 Cd 0.27305 0.6325 0.54997 0.0
C243 C 0.27073 0.64511 0.60659 0.0
O244 O 0.24415 0.59925 0.53957 0.0
O245 O 0.23419 0.63023 0.54952 0.0
O246 O 0.28289 0.63818 0.51146 0.0
C247 C 0.22867 0.61001 0.54069 0.0
O248 O 0.25997 0.62541 0.60635 0.0
C249 C 0.28018 0.65794 0.51373 0.0
O250 O 0.27943 0.65126 0.5889 0.0
O251 O 0.27538 0.66603 0.53325 0.0
C252 C 0.46767 0.51524 0.81052 0.0
O253 O 0.47844 0.50469 0.79735 0.0
Cd254 Cd 0.46521 0.49179 0.75664 0.0
O255 O 0.45013 0.5211 0.80184 0.0
Cd256 Cd 0.4294 0.51887 0.76114 0.0
C257 C 0.41157 0.46378 0.75824 0.0
O258 O 0.46073 0.52327 0.73772 0.0
O259 O 0.4278 0.51213 0.71788 0.0
O260 O 0.42591 0.55744 0.76545 0.0
C261 C 0.44863 0.51921 0.71786 0.0
O262 O 0.43158 0.46265 0.75529 0.0
C263 C 0.40476 0.55313 0.76473 0.0
O264 O 0.40611 0.48243 0.7613 0.0
O265 O 0.39505 0.53293 0.76277 0.0
C266 C 0.64868 0.04118 0.78092 0.0
O267 O 0.63495 0.048 0.76714 0.0
Cd268 Cd 0.64512 0.06325 0.73345 0.0
O269 O 0.66804 0.03982 0.77581 0.0
Cd270 Cd 0.68649 0.04279 0.73991 0.0
C271 C 0.69742 0.09621 0.75376 0.0
O272 O 0.6552 0.03355 0.71044 0.0
O273 O 0.68591 0.05048 0.69959 0.0
O274 O 0.6895 1.00557 0.73623 0.0
C275 C 0.66597 0.03942 0.69401 0.0
O276 O 0.67652 0.09453 0.74787 0.0
C277 C 0.71071 0.00967 0.73873 0.0
O278 O 0.70621 0.07946 0.75259 0.0
O279 O 0.72103 0.02979 0.74235 0.0
C280 C 0.79537 0.64363 0.02242 0.0
O281 O 0.77978 0.63243 0.03146 0.0
Cd282 Cd 0.74488 0.64102 0.03624 0.0
O283 O 0.79284 0.66119 0.01415 0.0
Cd284 Cd 0.76191 0.68185 0.00862 0.0
C285 C 0.76415 0.69386 0.06773 0.0
O286 O 0.7326 0.64899 0.99872 0.0
O287 O 0.7208 0.67843 0.00867 0.0
O288 O 0.77203 0.68316 0.96918 0.0
C289 C 0.71612 0.65797 0.00074 0.0
O290 O 0.75468 0.67353 0.06615 0.0
C291 C 0.77168 0.70332 0.96844 0.0
O292 O 0.7699 0.70209 0.04954 0.0
O293 O 0.76716 0.71407 0.98679 0.0
C294 C 0.92444 0.52489 0.84499 0.0
O295 O 0.93738 0.52034 0.8303 0.0
Cd296 Cd 0.92715 0.5108 0.78934 0.0
O297 O 0.90462 0.52695 0.83853 0.0
Cd298 Cd 0.88191 0.52798 0.8014 0.0
C299 C 0.87711 0.47376 0.78968 0.0
O300 O 0.91171 0.54096 0.77998 0.0
O301 O 0.87977 0.52846 0.75885 0.0
O302 O 0.8749 0.56203 0.81933 0.0
C303 C 0.9004 0.53707 0.75982 0.0
O304 O 0.89755 0.47761 0.78614 0.0
C305 C 0.85391 0.55687 0.81286 0.0
O306 O 0.86733 0.48921 0.79598 0.0
O307 O 0.84578 0.5375 0.80198 0.0
C308 C 0.84182 0.47717 0.50943 0.0
O309 O 0.83454 0.48536 0.49187 0.0
Cd310 Cd 0.79708 0.47696 0.47221 0.0
O311 O 0.82965 0.46179 0.51757 0.0
Cd312 Cd 0.7928 0.43881 0.50699 0.0
C313 C 0.79708 0.42468 0.44993 0.0
O314 O 0.77282 0.46687 0.50045 0.0
O315 O 0.754 0.433 0.49143 0.0
O316 O 0.78693 0.42989 0.54605 0.0
C317 C 0.75444 0.4535 0.4924 0.0
O318 O 0.79595 0.44388 0.44529 0.0
C319 C 0.79094 0.41071 0.54133 0.0
O320 O 0.79749 0.41993 0.47063 0.0
O321 O 0.79471 0.40477 0.52066 0.0
C322 C 0.60525 0.55405 0.33279 0.0
O323 O 0.59403 0.56427 0.31996 0.0
Cd324 Cd 0.60338 0.57472 0.28294 0.0
O325 O 0.62229 0.54772 0.32588 0.0
Cd326 Cd 0.64034 0.54842 0.2888 0.0
C327 C 0.65802 0.60361 0.29415 0.0
O328 O 0.6075 0.54292 0.2578 0.0
O329 O 0.64014 0.55312 0.2473 0.0
O330 O 0.64201 0.50969 0.28649 0.0
C331 C 0.61914 0.54692 0.24134 0.0
O332 O 0.63749 0.60349 0.28781 0.0
C333 C 0.66321 0.51272 0.2893 0.0
O334 O 0.66407 0.58583 0.29802 0.0
O335 O 0.67412 0.53261 0.29237 0.0
Eu336 Eu 0.06777 0.05102 0.04771 0.0
C337 C 0.99584 0.97277 0.98888 0.0
N338 N 0.0072 0.9925 0.98419 0.0
C339 C 0.01119 0.97539 0.94586 0.0
C340 C 0.99228 0.95343 0.97232 0.0
C341 C 0.01404 0.99415 0.96265 0.0
C342 C 1.00048 0.95489 0.9508 0.0
C343 C 0.97375 0.95213 0.0146 0.0
C344 C 0.98648 0.97209 0.0097 0.0
C345 C 0.97077 0.93278 0.99844 0.0
C346 C 0.97997 0.93343 0.97735 0.0
Eu347 Eu 0.00884 0.02337 0.01307 0.0
N348 N 0.98928 0.9911 0.0249 0.0
C349 C 0.96394 0.95233 0.03537 0.0
C350 C 0.97888 0.99164 0.04456 0.0
C351 C 0.9664 0.97222 0.05034 0.0
H352 H 0.02075 0.00996 0.95776 0.0
H353 H 0.95841 0.97267 0.06613 0.0
H354 H 0.05261 0.06808 0.09974 0.0
H355 H 0.11328 0.09857 0.98732 0.0
H356 H 0.97994 0.00709 0.05559 0.0
H357 H 0.95404 0.93733 0.03975 0.0
H358 H 0.09564 0.06495 0.00172 0.0
H359 H 0.01675 0.97686 0.92888 0.0
H360 H 0.96102 0.91729 0.00189 0.0
H361 H 0.97708 0.91845 0.96481 0.0
H362 H 0.05668 0.10286 0.12638 0.0
H363 H 0.99795 0.94045 0.93758 0.0
H364 H 0.11639 0.13504 0.01096 0.0
N365 N 0.06768 0.0835 0.07283 0.0
C366 C 0.07926 0.10249 0.06675 0.0
C367 C 0.06277 0.10305 0.10951 0.0
C368 C 0.08223 0.12277 0.08168 0.0
C369 C 0.06006 0.08337 0.09412 0.0
C370 C 0.07377 0.12286 0.10321 0.0
N371 N 0.08536 0.08188 0.0314 0.0
C372 C 0.09511 0.08059 0.01131 0.0
C373 C 0.09909 0.12144 0.03835 0.0
C374 C 0.08781 0.10174 0.04529 0.0
C375 C 0.10772 0.12027 0.01693 0.0
C376 C 0.10587 0.09973 0.00346 0.0
H377 H 0.07589 0.13808 0.11522 0.0
H378 H 0.09593 0.158 0.08598 0.0
H379 H 0.11046 0.15689 0.04803 0.0
O380 O 0.10413 0.05803 0.05501 0.0
O381 O 0.04292 0.07388 0.03988 0.0
O382 O 0.0244 0.0572 0.00416 0.0
O383 O 0.08426 0.04656 0.08156 0.0
O384 O 0.06983 0.03409 0.0109 0.0
O385 O 0.03581 0.03652 0.99186 0.0
O386 O 0.97935 0.03686 0.0181 0.0
O387 O 0.02523 1.00076 0.03478 0.0
O388 O 0.06321 0.01339 0.0361 0.0
O389 O 0.98181 0.01832 0.98398 0.0
O390 O 0.00987 0.04121 0.05002 0.0
O391 O 0.04207 0.03477 0.06892 0.0
C392 C 0.03179 0.07523 0.01944 0.0
C393 C 0.11982 0.03835 0.08222 0.0
C394 C 0.14144 0.01116 0.07116 0.0
C395 C 0.15084 0.01315 0.09479 0.0
C396 C 0.12924 0.04026 0.10572 0.0
C397 C 0.14465 0.02759 0.11198 0.0
C398 C 0.12571 0.02361 0.06502 0.0
C399 C 0.05652 0.03421 0.99151 0.0
C400 C 0.1043 0.05223 0.0759 0.0
C401 C 0.09352 0.14229 0.07473 0.0
C402 C 0.10178 0.14165 0.05309 0.0
C403 C 0.04585 0.99743 0.03755 0.0
C404 C 0.94847 0.03287 0.98699 0.0
C405 C 0.91474 0.04549 0.99402 0.0
C406 C 0.90672 0.04044 0.96994 0.0
C407 C 0.94062 0.02795 0.96284 0.0
C408 C 0.93551 0.04165 0.00239 0.0
C409 C 0.91975 0.03178 0.95437 0.0
C410 C 0.02147 0.03752 0.06902 0.0
C411 C 0.97027 0.02945 0.99643 0.0
H412 H 0.16343 1.00403 0.09987 0.0
H413 H 0.12479 0.05168 0.11914 0.0
H414 H 0.15208 0.02923 0.1301 0.0
H415 H 0.11833 0.02205 0.04684 0.0
H416 H 0.89056 0.04335 0.96324 0.0
H417 H 0.95058 0.0213 0.95057 0.0
H418 H 0.9414 0.04522 0.02109 0.0
H419 H 0.9137 0.02804 0.93577 0.0
Eu420 Eu 0.26222 0.78618 0.30655 0.0
C421 C 0.31655 0.74691 0.21954 0.0
N422 N 0.32476 0.76299 0.23813 0.0
C423 C 0.35857 0.74951 0.24377 0.0
C424 C 0.32904 0.73113 0.21257 0.0
C425 C 0.34547 0.76461 0.25018 0.0
C426 C 0.3503 0.73263 0.22491 0.0
C427 C 0.28614 0.72896 0.18888 0.0
C428 C 0.29535 0.74593 0.20785 0.0
C429 C 0.2985 0.71318 0.18192 0.0
C430 C 0.31991 0.71429 0.19369 0.0
Eu431 Eu 0.30203 0.788 0.24813 0.0
N432 N 0.28362 0.7613 0.21523 0.0
C433 C 0.26473 0.72826 0.17746 0.0
C434 C 0.26296 0.76095 0.20357 0.0
C435 C 0.25317 0.74441 0.18477 0.0
H436 H 0.35201 0.77777 0.26455 0.0
H437 H 0.23671 0.7442 0.17582 0.0
H438 H 0.21079 0.79349 0.28886 0.0
H439 H 0.32277 0.82885 0.38294 0.0
H440 H 0.25377 0.77335 0.20822 0.0
H441 H 0.25706 0.71546 0.16289 0.0
H442 H 0.3089 0.80177 0.34767 0.0
H443 H 0.37503 0.7509 0.25336 0.0
H444 H 0.29164 0.70003 0.16744 0.0
H445 H 0.32924 0.70198 0.18813 0.0
H446 H 0.18533 0.81751 0.30082 0.0
H447 H 0.36044 0.72087 0.22004 0.0
H448 H 0.29921 0.85405 0.39741 0.0
N449 N 0.23676 0.8083 0.31673 0.0
C450 C 0.24326 0.82325 0.33662 0.0
C451 C 0.20163 0.81941 0.31095 0.0
C452 C 0.22917 0.83724 0.34419 0.0
C453 C 0.2162 0.806 0.30405 0.0
C454 C 0.20817 0.83517 0.33105 0.0
N455 N 0.27771 0.8115 0.3412 0.0
C456 C 0.29835 0.81261 0.35331 0.0
C457 C 0.2716 0.84063 0.36964 0.0
C458 C 0.26423 0.82483 0.34929 0.0
C459 C 0.29293 0.8421 0.38174 0.0
C460 C 0.3063 0.82796 0.37358 0.0
H461 H 0.19686 0.84559 0.33632 0.0
H462 H 0.22587 0.86379 0.37052 0.0
H463 H 0.26303 0.86683 0.39273 0.0
O464 O 0.26279 0.7595 0.3275 0.0
O465 O 0.27729 0.82198 0.30538 0.0
O466 O 0.29104 0.80312 0.27962 0.0
O467 O 0.23102 0.76603 0.31359 0.0
O468 O 0.29741 0.7775 0.31198 0.0
O469 O 0.32143 0.79175 0.28538 0.0
O470 O 0.30378 0.81362 0.2256 0.0
O471 O 0.29152 0.75369 0.25715 0.0
O472 O 0.2648 0.76755 0.2719 0.0
O473 O 0.3344 0.8075 0.24303 0.0
O474 O 0.26803 0.79868 0.242 0.0
O475 O 0.2437 0.78743 0.26968 0.0
C476 C 0.28982 0.82266 0.28898 0.0
C477 C 0.23432 0.75545 0.35146 0.0
C478 C 0.23826 0.74266 0.38925 0.0
C479 C 0.22549 0.7573 0.39808 0.0
C480 C 0.22141 0.77005 0.36031 0.0
C481 C 0.21692 0.77081 0.38352 0.0
C482 C 0.24237 0.74155 0.36593 0.0
C483 C 0.31755 0.78279 0.30483 0.0
C484 C 0.24122 0.75559 0.328 0.0
C485 C 0.23645 0.85287 0.3645 0.0
C486 C 0.25761 0.85458 0.37717 0.0
C487 C 0.27495 0.75125 0.26942 0.0
C488 C 0.33448 0.81722 0.2047 0.0
C489 C 0.33409 0.8297 0.16653 0.0
C490 C 0.34681 0.81433 0.15938 0.0
C491 C 0.34726 0.8019 0.19743 0.0
C492 C 0.32829 0.83131 0.1893 0.0
C493 C 0.35354 0.80064 0.17489 0.0
C494 C 0.24802 0.79536 0.24971 0.0
C495 C 0.32554 0.81754 0.22721 0.0
H496 H 0.22215 0.75818 0.41614 0.0
H497 H 0.21506 0.78107 0.34951 0.0
H498 H 0.20704 0.78209 0.39032 0.0
H499 H 0.25252 0.73038 0.3593 0.0
H500 H 0.35147 0.81291 0.14181 0.0
H501 H 0.35206 0.79066 0.20892 0.0
H502 H 0.31804 0.84284 0.19469 0.0
H503 H 0.36329 0.78877 0.16929 0.0
Eu504 Eu 0.50256 0.03067 0.54353 0.0
C505 C 0.5939 0.07218 0.4856 0.0
N506 N 0.57896 0.05245 0.48068 0.0
C507 C 0.58147 0.05177 0.43955 0.0
C508 C 0.60244 0.08298 0.46738 0.0
C509 C 0.57355 0.04163 0.45819 0.0
C510 C 0.59567 0.0727 0.44413 0.0
C511 C 0.61813 0.10089 0.51454 0.0
C512 C 0.60182 0.08099 0.50893 0.0
C513 C 0.62577 0.11221 0.49643 0.0
C514 C 0.61798 0.10327 0.47292 0.0
Eu515 Eu 0.56622 0.03751 0.51358 0.0
N516 N 0.59432 0.06967 0.52613 0.0
C517 C 0.62664 0.10858 0.53818 0.0
C518 C 0.60319 0.07657 0.54912 0.0
C519 C 0.6193 0.09622 0.55553 0.0
H520 H 0.56289 0.02524 0.45466 0.0
H521 H 0.62598 0.10185 0.57382 0.0
H522 H 0.50392 0.03985 0.60262 0.0
H523 H 0.45064 0.96461 0.47882 0.0
H524 H 0.59744 0.06711 0.56249 0.0
H525 H 0.63915 0.12381 0.54318 0.0
H526 H 0.47639 1.00085 0.4925 0.0
H527 H 0.57674 0.04339 0.42169 0.0
H528 H 0.63812 0.12763 0.50041 0.0
H529 H 0.6245 0.11191 0.45914 0.0
H530 H 0.48994 0.0191 0.63375 0.0
H531 H 0.60188 0.08046 0.42966 0.0
H532 H 0.43701 0.94083 0.50783 0.0
N533 N 0.49014 0.01327 0.57504 0.0
C534 C 0.4763 0.99299 0.56868 0.0
C535 C 0.48624 0.01147 0.61556 0.0
C536 C 0.46769 0.98072 0.58587 0.0
C537 C 0.49432 0.02307 0.59794 0.0
C538 C 0.47316 0.99008 0.60954 0.0
N539 N 0.47737 0.99727 0.52852 0.0
C540 C 0.47038 0.99056 0.50512 0.0
C541 C 0.45496 0.96409 0.5379 0.0
C542 C 0.46972 0.98482 0.54487 0.0
C543 C 0.44827 0.9567 0.51386 0.0
C544 C 0.45589 0.97008 0.49741 0.0
H545 H 0.46683 0.98119 0.62325 0.0
H546 H 0.44685 0.95011 0.59193 0.0
H547 H 0.43591 0.9355 0.55001 0.0
O548 O 0.47218 0.03745 0.52499 0.0
O549 O 0.51362 0.99831 0.52967 0.0
O550 O 0.54006 1.00448 0.50301 0.0
O551 O 0.48694 0.05569 0.55943 0.0
O552 O 0.52128 0.03877 0.51387 0.0
O553 O 0.53942 0.03922 0.48398 0.0
O554 O 0.59589 0.02942 0.53221 0.0
O555 O 0.55881 0.07042 0.53124 0.0
O556 O 0.52472 0.06567 0.54741 0.0
O557 O 0.57819 0.00851 0.50066 0.0
O558 O 0.54679 0.03139 0.54311 0.0
O559 O 0.5301 0.03381 0.57398 0.0
C560 C 0.52604 0.99125 0.51395 0.0
C561 C 0.44866 0.05233 0.54964 0.0
C562 C 0.41829 0.07149 0.55199 0.0
C563 C 0.41088 0.05954 0.56974 0.0
C564 C 0.44111 0.04009 0.56716 0.0
C565 C 0.42218 0.04369 0.57713 0.0
C566 C 0.43701 0.06772 0.54182 0.0
C567 C 0.52024 0.03928 0.49153 0.0
C568 C 0.47056 0.05235 0.54226 0.0
C569 C 0.45344 0.95983 0.57894 0.0
C570 C 0.44715 0.95152 0.55505 0.0
C571 C 0.54333 0.07816 0.54232 0.0
C572 C 0.61662 0.01084 0.50749 0.0
C573 C 0.64883 0.99397 0.50718 0.0
C574 C 0.65457 1.0038 0.48749 0.0
C575 C 0.62255 0.02082 0.48789 0.0
C576 C 0.62984 0.99745 0.51715 0.0
C577 C 0.64142 0.0172 0.47788 0.0
C578 C 0.54887 0.03342 0.56575 0.0
C579 C 0.59564 0.01251 0.51656 0.0
H580 H 0.39649 0.06257 0.5779 0.0
H581 H 0.45023 0.02841 0.57368 0.0
H582 H 0.41658 0.03457 0.59094 0.0
H583 H 0.44311 0.07755 0.52866 0.0
H584 H 0.66918 1.00104 0.47959 0.0
H585 H 0.61241 0.031 0.48004 0.0
H586 H 0.62528 0.98958 0.5322 0.0
H587 H 0.64575 0.02467 0.46259 0.0
Eu588 Eu 0.3135 0.27329 0.78171 0.0
C589 C 0.22993 0.30364 0.72853 0.0
N590 N 0.24501 0.31506 0.74695 0.0
C591 C 0.24676 0.34846 0.72999 0.0
C592 C 0.22279 0.31433 0.70987 0.0
C593 C 0.25341 0.33716 0.74803 0.0
C594 C 0.23139 0.337 0.71081 0.0
C595 C 0.20667 0.26873 0.70888 0.0
C596 C 0.22205 0.28103 0.72801 0.0
C597 C 0.19946 0.27937 0.69034 0.0
C598 C 0.20749 0.30209 0.69084 0.0
Eu599 Eu 0.25494 0.29472 0.77665 0.0
N600 N 0.22978 0.27102 0.74593 0.0
C601 C 0.19897 0.24607 0.70895 0.0
C602 C 0.22142 0.2492 0.7466 0.0
C603 C 0.20622 0.23632 0.72801 0.0
H604 H 0.26494 0.34619 0.76303 0.0
H605 H 0.19985 0.21895 0.72856 0.0
H606 H 0.30167 0.22099 0.79287 0.0
H607 H 0.36686 0.34747 0.83448 0.0
H608 H 0.2258 0.24172 0.76165 0.0
H609 H 0.18715 0.23605 0.69459 0.0
H610 H 0.34137 0.32612 0.8001 0.0
H611 H 0.25341 0.36601 0.73093 0.0
H612 H 0.18767 0.27016 0.67551 0.0
H613 H 0.20182 0.31003 0.67636 0.0
H614 H 0.31148 0.19972 0.82434 0.0
H615 H 0.2263 0.34581 0.69684 0.0
H616 H 0.37868 0.32863 0.86741 0.0
N617 N 0.32164 0.2515 0.81059 0.0
C618 C 0.33632 0.26215 0.82969 0.0
C619 C 0.3185 0.21728 0.82611 0.0
C620 C 0.34249 0.25062 0.848 0.0
C621 C 0.3128 0.22939 0.80843 0.0
C622 C 0.33338 0.22793 0.84599 0.0
N623 N 0.33775 0.29572 0.81377 0.0
C624 C 0.34589 0.31779 0.81449 0.0
C625 C 0.35947 0.29637 0.85121 0.0
C626 C 0.34471 0.28483 0.83128 0.0
C627 C 0.36733 0.31918 0.85239 0.0
C628 C 0.3606 0.3299 0.83389 0.0
H629 H 0.33773 0.21849 0.85968 0.0
H630 H 0.36225 0.25348 0.882 0.0
H631 H 0.3771 0.29347 0.88481 0.0
O632 O 0.34219 0.28223 0.7619 0.0
O633 O 0.29996 0.28245 0.81623 0.0
O634 O 0.28268 0.3097 0.80616 0.0
O635 O 0.33213 0.24873 0.77034 0.0
O636 O 0.31272 0.30432 0.76508 0.0
O637 O 0.28689 0.32149 0.78198 0.0
O638 O 0.22712 0.28638 0.79783 0.0
O639 O 0.26827 0.28658 0.74195 0.0
O640 O 0.28639 0.25951 0.75103 0.0
O641 O 0.23641 0.31939 0.78799 0.0
O642 O 0.25649 0.26354 0.79341 0.0
O643 O 0.28139 0.24737 0.77409 0.0
C644 C 0.29015 0.29883 0.82214 0.0
C645 C 0.36385 0.25471 0.74859 0.0
C646 C 0.39508 0.26048 0.72547 0.0
C647 C 0.39717 0.23861 0.7265 0.0
C648 C 0.36641 0.23285 0.74927 0.0
C649 C 0.38293 0.22493 0.73831 0.0
C650 C 0.37836 0.26863 0.73657 0.0
C651 C 0.30438 0.32188 0.77045 0.0
C652 C 0.34583 0.26221 0.76035 0.0
C653 C 0.35732 0.26208 0.86777 0.0
C654 C 0.36578 0.28486 0.86937 0.0
C655 C 0.279 0.27105 0.73563 0.0
C656 C 0.20541 0.314 0.81083 0.0
C657 C 0.174 0.30848 0.8338 0.0
C658 C 0.17162 0.33016 0.832 0.0
C659 C 0.20257 0.33568 0.80947 0.0
C660 C 0.19103 0.30033 0.82324 0.0
C661 C 0.18584 0.34364 0.81999 0.0
C662 C 0.26486 0.24623 0.78685 0.0
C663 C 0.22315 0.30624 0.79873 0.0
H664 H 0.40998 0.23214 0.71816 0.0
H665 H 0.35561 0.22176 0.75831 0.0
H666 H 0.38472 0.20809 0.73902 0.0
H667 H 0.37671 0.28553 0.73584 0.0
H668 H 0.1586 0.33665 0.83992 0.0
H669 H 0.21324 0.34657 0.8001 0.0
H670 H 0.19284 0.28354 0.82441 0.0
H671 H 0.18381 0.36032 0.8187 0.0
Eu672 Eu 0.0478 0.00602 0.52507 0.0
C673 C 0.01373 0.0854 0.57901 0.0
N674 N 1.00304 0.07042 0.56017 0.0
C675 C 0.9684 0.06727 0.57623 0.0
C676 C 1.00199 0.09177 0.59741 0.0
C677 C 0.9807 0.06144 0.5584 0.0
C678 C 0.97907 0.08249 0.59582 0.0
C679 C 0.04818 0.1092 0.5998 0.0
C680 C 0.03666 0.094 0.5802 0.0
C681 C 0.03644 0.11572 0.61802 0.0
C682 C 0.01344 0.10703 0.61683 0.0
Eu683 Eu 0.02513 0.06284 0.53072 0.0
N684 N 0.04781 0.08688 0.56266 0.0
C685 C 0.07123 0.11729 0.60058 0.0
C686 C 0.07008 0.09527 0.56296 0.0
C687 C 0.08219 0.11038 0.58203 0.0
H688 H 0.9722 0.05014 0.543 0.0
H689 H 0.09992 0.11685 0.58228 0.0
H690 H 0.10052 0.01834 0.51203 0.0
H691 H 0.97421 0.94711 0.47772 0.0
H692 H 0.0785 0.09073 0.54842 0.0
H693 H 0.08067 0.129 0.61533 0.0
H694 H 0.99566 0.97485 0.51029 0.0
H695 H 0.95066 0.06015 0.57477 0.0
H696 H 0.04503 0.12739 0.63319 0.0
H697 H 0.00467 0.11214 0.63111 0.0
H698 H 0.12169 0.00828 0.48001 0.0
H699 H 0.96947 0.08698 0.6096 0.0
H700 H 0.99285 0.93513 0.44409 0.0
N701 N 0.06967 0.99768 0.49555 0.0
C702 C 0.05902 0.98213 0.47721 0.0
C703 C 0.10404 1.00092 0.47892 0.0
C704 C 0.07059 0.97554 0.45874 0.0
C705 C 0.09193 0.00686 0.49687 0.0
C706 C 0.09332 0.98525 0.45972 0.0
N707 N 0.02544 0.98005 0.49447 0.0
C708 C 1.00364 0.97056 0.49531 0.0
C709 C 0.02492 0.95671 0.45795 0.0
C710 C 0.03637 0.9729 0.47676 0.0
C711 C 1.00222 0.94764 0.45818 0.0
C712 C 0.99159 0.95446 0.47705 0.0
H713 H 0.10279 0.98063 0.44587 0.0
H714 H 0.06781 0.95423 0.42561 0.0
H715 H 0.02789 0.9377 0.42496 0.0
O716 O 0.03937 0.9787 0.54621 0.0
O717 O 0.0362 0.01747 0.49035 0.0
O718 O 0.00963 0.03767 0.4988 0.0
O719 O 0.07261 0.98748 0.53536 0.0
O720 O 0.01648 0.00742 0.5424 0.0
O721 O 0.99887 0.03112 0.52338 0.0
O722 O 0.03477 0.09234 0.51282 0.0
O723 O 0.03492 0.04975 0.56499 0.0
O724 O 0.0631 0.03298 0.55519 0.0
O725 O 1.00063 0.08179 0.52094 0.0
O726 O 0.0555 0.06107 0.51206 0.0
O727 O 0.07407 0.03791 0.53064 0.0
C728 C 0.01992 0.02732 0.48365 0.0
C729 C 0.06732 0.9569 0.55777 0.0
C730 C 0.06196 0.92559 0.57994 0.0
C731 C 0.08391 0.92333 0.57756 0.0
C732 C 0.08927 0.95415 0.55578 0.0
C733 C 0.09743 0.93752 0.5656 0.0
C734 C 0.05357 0.94248 0.57004 0.0
C735 C 0.99843 0.0144 0.53525 0.0
C736 C 0.05936 0.97448 0.54626 0.0
C737 C 0.05917 0.95951 0.43994 0.0
C738 C 0.03643 0.9501 0.43957 0.0
C739 C 0.05177 0.04053 0.57104 0.0
C740 C 0.00712 0.11498 0.50282 0.0
C741 C 0.01186 0.14622 0.4806 0.0
C742 C 0.9917 0.15086 0.48695 0.0
C743 C 0.98698 0.12012 0.50887 0.0
C744 C 0.0197 0.12821 0.48858 0.0
C745 C 0.97938 0.1379 0.50099 0.0
C746 C 0.07393 0.05447 0.51853 0.0
C747 C 0.0146 0.09618 0.51223 0.0
H748 H 0.09057 0.9104 0.58494 0.0
H749 H 0.10022 0.96479 0.54643 0.0
H750 H 0.11431 0.93556 0.5638 0.0
H751 H 0.03656 0.94419 0.57166 0.0
H752 H 0.98551 0.16467 0.48105 0.0
H753 H 0.97709 0.11049 0.51996 0.0
H754 H 0.03534 0.12462 0.48384 0.0
H755 H 0.9639 0.1417 0.50586 0.0
Eu756 Eu 0.28847 0.81522 0.76252 0.0
C757 C 0.23864 0.73371 0.80979 0.0
N758 N 0.25696 0.75051 0.81709 0.0
C759 C 0.2448 0.75647 0.85498 0.0
C760 C 0.22225 0.72841 0.82474 0.0
C761 C 0.26067 0.76114 0.83972 0.0
C762 C 0.22539 0.74025 0.84739 0.0
C763 C 0.21738 0.70401 0.77965 0.0
C764 C 0.23626 0.72136 0.7874 0.0
C765 C 0.20099 0.69912 0.79446 0.0
C766 C 0.20343 0.71124 0.8169 0.0
Eu767 Eu 0.2827 0.75508 0.7895 0.0
N768 N 0.25196 0.72674 0.77291 0.0
C769 C 0.21531 0.69229 0.75701 0.0
C770 C 0.25044 0.7149 0.75122 0.0
C771 C 0.23197 0.6977 0.74279 0.0
H772 H 0.27605 0.77282 0.84663 0.0
H773 H 0.23072 0.68847 0.72544 0.0
H774 H 0.295 0.79686 0.70525 0.0
H775 H 0.34203 0.88211 0.82473 0.0
H776 H 0.26374 0.71833 0.74071 0.0
H777 H 0.20099 0.67895 0.75042 0.0
H778 H 0.30744 0.85431 0.80893 0.0
H779 H 0.24774 0.76513 0.87277 0.0
H780 H 0.18634 0.68593 0.78872 0.0
H781 H 0.19069 0.70709 0.82816 0.0
H782 H 0.32469 0.80078 0.68035 0.0
H783 H 0.21321 0.7366 0.85937 0.0
H784 H 0.37423 0.88642 0.80214 0.0
N785 N 0.31531 0.8168 0.73569 0.0
C786 C 0.33499 0.83168 0.74359 0.0
C787 C 0.32797 0.80918 0.69826 0.0
C788 C 0.35226 0.83498 0.72926 0.0
C789 C 0.31125 0.80656 0.71288 0.0
C790 C 0.34868 0.82316 0.70659 0.0
N791 N 0.32062 0.842 0.77891 0.0
C792 C 0.32166 0.85566 0.79944 0.0
C793 C 0.35751 0.86072 0.77362 0.0
C794 C 0.33761 0.84472 0.76554 0.0
C795 C 0.3592 0.87398 0.79536 0.0
C796 C 0.3411 0.87158 0.8082 0.0
H797 H 0.36148 0.82536 0.69506 0.0
H798 H 0.38568 0.85312 0.72682 0.0
H799 H 0.39033 0.87545 0.76567 0.0
O800 O 0.27406 0.84439 0.77256 0.0
O801 O 0.31919 0.80994 0.78677 0.0
O802 O 0.31646 0.77227 0.77955 0.0
O803 O 0.27838 0.83409 0.73601 0.0
O804 O 0.27305 0.80479 0.79407 0.0
O805 O 0.29314 0.78578 0.81572 0.0
O806 O 0.29386 0.72377 0.78201 0.0
O807 O 0.24866 0.76121 0.7725 0.0
O808 O 0.25262 0.79522 0.75824 0.0
O809 O 0.30002 0.74238 0.81773 0.0
O810 O 0.29588 0.76546 0.75722 0.0
O811 O 0.27682 0.78481 0.7356 0.0
C812 C 0.32841 0.79247 0.78728 0.0
C813 C 0.2619 0.86587 0.74244 0.0
C814 C 0.24371 0.89693 0.74896 0.0
C815 C 0.24327 0.89925 0.7251 0.0
C816 C 0.26124 0.86847 0.71856 0.0
C817 C 0.25193 0.88503 0.70999 0.0
C818 C 0.25287 0.88008 0.75766 0.0
C819 C 0.28508 0.80339 0.81355 0.0
C820 C 0.27137 0.84782 0.75072 0.0
C821 C 0.37228 0.85052 0.73759 0.0
C822 C 0.37491 0.8633 0.75969 0.0
C823 C 0.24028 0.77648 0.76241 0.0
C824 C 0.31315 0.70818 0.81309 0.0
C825 C 0.33066 0.67656 0.80723 0.0
C826 C 0.33456 0.67707 0.83163 0.0
C827 C 0.31722 0.70843 0.83751 0.0
C828 C 0.31986 0.69207 0.79787 0.0
C829 C 0.32784 0.69292 0.84667 0.0
C830 C 0.28296 0.76634 0.73829 0.0
C831 C 0.30215 0.72494 0.80397 0.0
H832 H 0.23611 0.91208 0.71814 0.0
H833 H 0.26787 0.85765 0.70638 0.0
H834 H 0.25145 0.88687 0.69159 0.0
H835 H 0.25312 0.87823 0.77607 0.0
H836 H 0.34294 0.6652 0.83902 0.0
H837 H 0.31218 0.72062 0.84958 0.0
H838 H 0.317 0.69174 0.779 0.0
H839 H 0.33092 0.69324 0.86549 0.0
Eu840 Eu 0.53426 0.05254 0.99733 0.0
C841 C 0.57326 1.00219 0.08776 0.0
N842 N 0.55772 0.99315 0.06878 0.0
C843 C 0.57396 0.96129 0.06356 0.0
C844 C 0.59028 0.99127 0.09494 0.0
C845 C 0.55762 0.97288 0.05685 0.0
C846 C 0.59046 0.97058 0.08259 0.0
C847 C 0.5892 0.03309 0.1185 0.0
C848 C 0.57272 0.02293 0.09934 0.0
C849 C 0.60626 0.0223 0.1256 0.0
C850 C 0.60679 1.00145 0.11387 0.0
Eu851 Eu 0.53199 0.01452 0.05713 0.0
N852 N 0.55654 0.03343 0.09139 0.0
C853 C 0.58817 0.05388 0.1299 0.0
C854 C 0.55481 0.05317 0.10336 0.0
C855 C 0.5707 0.06379 0.1225 0.0
H856 H 0.5449 0.96558 0.04213 0.0
H857 H 0.5694 0.07961 0.13162 0.0
H858 H 0.5222 0.10072 0.01731 0.0
H859 H 0.5014 0.99776 0.91418 0.0
H860 H 0.54113 0.06084 0.09874 0.0
H861 H 0.60054 0.06225 0.14464 0.0
H862 H 0.52864 0.01329 0.94928 0.0
H863 H 0.57391 0.94527 0.05396 0.0
H864 H 0.61915 0.02997 0.14014 0.0
H865 H 0.62011 0.99338 0.1195 0.0
H866 H 0.49402 0.12274 0.00801 0.0
H867 H 0.60328 0.96167 0.08755 0.0
H868 H 0.46958 0.01536 0.90425 0.0
N869 N 0.50906 0.07529 0.98855 0.0
C870 C 0.4937 0.06805 0.96911 0.0
C871 C 0.49366 0.10733 0.99699 0.0
C872 C 0.47728 0.08008 0.96309 0.0
C873 C 0.50952 0.09477 0.0023 0.0
C874 C 0.47735 0.09989 0.97739 0.0
N875 N 0.51104 0.03784 0.96113 0.0
C876 C 0.51424 0.02046 0.94607 0.0
C877 C 0.47908 0.04087 0.93456 0.0
C878 C 0.49458 0.04865 0.95511 0.0
C879 C 0.48119 0.02192 0.92013 0.0
C880 C 0.49908 0.0119 0.92572 0.0
H881 H 0.46506 0.10964 0.97332 0.0
H882 H 0.44865 0.08102 0.93814 0.0
H883 H 0.45022 0.04668 0.91315 0.0
O884 O 0.56297 0.05363 0.97825 0.0
O885 O 0.49911 0.04213 0.00576 0.0
O886 O 0.5127 0.01676 0.0227 0.0
O887 O 0.55536 0.08417 0.99369 0.0
O888 O 0.5394 0.01653 0.98982 0.0
O889 O 0.53411 0.99495 0.02097 0.0
O890 O 0.50529 0.01301 0.07911 0.0
O891 O 0.56805 0.02716 0.05247 0.0
O892 O 0.54852 0.04207 0.02893 0.0
O893 O 0.51321 0.98268 0.06352 0.0
O894 O 0.52159 0.04858 0.06106 0.0
O895 O 0.53775 0.07156 0.03491 0.0
C896 C 0.49633 0.0268 0.01924 0.0
C897 C 0.5708 0.08409 0.95777 0.0
C898 C 0.58371 0.08059 0.91947 0.0
C899 C 0.57668 0.10002 0.9151 0.0
C900 C 0.56393 0.10356 0.95322 0.0
C901 C 0.56696 0.11147 0.93197 0.0
C902 C 0.58098 0.07289 0.94093 0.0
C903 C 0.53845 0.9978 -0.0008 0.0
C904 C 0.5674 0.07511 0.97979 0.0
C905 C 0.46147 0.07207 0.94299 0.0
C906 C 0.46234 0.05249 0.92878 0.0
C907 C 0.56823 0.03954 0.03633 0.0
C908 C 0.5017 0.98381 0.10141 0.0
C909 C 0.48803 0.98585 0.13939 0.0
C910 C 0.50153 0.97136 0.14633 0.0
C911 C 0.51517 0.96939 0.10856 0.0
C912 C 0.4881 0.9918 0.11681 0.0
C913 C 0.51497 0.96316 0.13093 0.0
C914 C 0.52728 0.0682 0.05369 0.0
C915 C 0.50213 0.99166 0.07853 0.0
H916 H 0.57885 0.10639 0.89869 0.0
H917 H 0.55615 0.11262 0.96595 0.0
H918 H 0.56165 0.12647 0.92853 0.0
H919 H 0.58629 0.05783 0.94426 0.0
H920 H 0.50164 0.9663 0.1636 0.0
H921 H 0.52598 0.96312 0.09704 0.0
H922 H 0.47809 1.0033 0.11139 0.0
H923 H 0.52536 0.95206 0.13641 0.0
Eu924 Eu 0.26905 0.25041 0.25795 0.0
C925 C 0.34685 0.32466 0.31492 0.0
N926 N 0.32749 0.31275 0.32041 0.0
C927 C 0.3465 0.30947 0.35788 0.0
C928 C 0.36699 0.32878 0.33053 0.0
C929 C 0.32694 0.30596 0.34195 0.0
C930 C 0.36668 0.3207 0.35205 0.0
C931 C 0.36592 0.3468 0.28831 0.0
C932 C 0.34633 0.33378 0.29416 0.0
C933 C 0.38611 0.35034 0.30349 0.0
C934 C 0.38663 0.3414 0.32457 0.0
Eu935 Eu 0.2952 0.30922 0.29263 0.0
N936 N 0.32658 0.33022 0.27981 0.0
C937 C 0.36455 0.35616 0.26751 0.0
C938 C 0.32488 0.3402 0.26019 0.0
C939 C 0.34389 0.35297 0.25348 0.0
H940 H 0.31138 0.29866 0.34747 0.0
H941 H 0.34253 0.36059 0.23769 0.0
H942 H 0.25263 0.26398 0.20536 0.0
H943 H 0.21972 0.20652 0.31824 0.0
H944 H 0.30881 0.33863 0.2499 0.0
H945 H 0.37924 0.36622 0.26239 0.0
H946 H 0.25413 0.22409 0.30426 0.0
H947 H 0.34589 0.30394 0.37488 0.0
H948 H 0.40133 0.36027 0.29928 0.0
H949 H 0.40223 0.34467 0.33634 0.0
H950 H 0.21768 0.25968 0.17852 0.0
H951 H 0.38176 0.32364 0.36458 0.0
H952 H 0.18309 0.20265 0.29409 0.0
N953 N 0.23649 0.24953 0.23222 0.0
C954 C 0.21707 0.23827 0.23825 0.0
C955 C 0.21723 0.2539 0.1954 0.0
C956 C 0.1967 0.23521 0.22323 0.0
C957 C 0.23698 0.2567 0.21088 0.0
C958 C 0.19697 0.24325 0.20166 0.0
N959 N 0.23743 0.23283 0.2738 0.0
C960 C 0.23839 0.2239 0.29419 0.0
C961 C 0.19735 0.21916 0.26662 0.0
C962 C 0.21748 0.23012 0.25973 0.0
C963 C 0.1982 0.21108 0.28816 0.0
C964 C 0.21882 0.21333 0.3019 0.0
H965 H 0.18168 0.24109 0.1896 0.0
H966 H 0.16095 0.22179 0.21882 0.0
H967 H 0.16148 0.20795 0.25682 0.0
O968 O 0.26252 0.21463 0.25027 0.0
O969 O 0.24508 0.27419 0.26599 0.0
O970 O 0.26172 0.29197 0.30188 0.0
O971 O 0.27631 0.23435 0.22485 0.0
O972 O 0.2859 0.24884 0.29464 0.0
O973 O 0.28379 0.28256 0.31444 0.0
O974 O 0.27949 0.3372 0.28808 0.0
O975 O 0.31903 0.29377 0.27115 0.0
O976 O 0.30695 0.25646 0.27097 0.0
O977 O 0.29864 0.33541 0.32202 0.0
O978 O 0.27699 0.3069 0.25566 0.0
O979 O 0.28544 0.27574 0.23704 0.0
C980 C 0.2435 0.28473 0.28674 0.0
C981 C 0.28689 0.20029 0.22673 0.0
C982 C 0.30743 0.1737 0.24011 0.0
C983 C 0.31431 0.17015 0.21787 0.0
C984 C 0.29397 0.19684 0.20457 0.0
C985 C 0.30781 0.18194 0.20026 0.0
C986 C 0.29413 0.18904 0.24463 0.0
C987 C 0.28617 0.26208 0.31424 0.0
C988 C 0.27098 0.21462 0.23056 0.0
C989 C 0.17674 0.22425 0.23012 0.0
C990 C 0.17705 0.21637 0.25178 0.0
C991 C 0.32282 0.27359 0.26879 0.0
C992 C 0.28135 0.36659 0.32019 0.0
C993 C 0.26963 0.40039 0.31431 0.0
C994 C 0.26778 0.40467 0.3383 0.0
C995 C 0.28 0.37095 0.34431 0.0
C996 C 0.27638 0.38141 0.30536 0.0
C997 C 0.27319 0.39 0.35332 0.0
C998 C 0.28191 0.29572 0.23693 0.0
C999 C 0.28633 0.34597 0.30996 0.0
H1000 H 0.32446 0.15812 0.21412 0.0
H1001 H 0.28851 0.20539 0.19053 0.0
H1002 H 0.31309 0.17917 0.18309 0.0
H1003 H 0.28862 0.19133 0.26178 0.0
H1004 H 0.26233 0.41932 0.34534 0.0
H1005 H 0.28366 0.35942 0.35601 0.0
H1006 H 0.27724 0.37795 0.28667 0.0
H1007 H 0.27186 0.39327 0.37185 0.0
Eu1008 Eu 0.54805 0.50625 0.02528 0.0
C1009 C 0.51475 0.58496 0.08081 0.0
N1010 N 0.50373 0.57053 0.06171 0.0
C1011 C 0.46936 0.56725 0.07834 0.0
C1012 C 0.50336 0.5909 0.09969 0.0
C1013 C 0.48135 0.56176 0.06009 0.0
C1014 C 0.48041 0.58184 0.09824 0.0
C1015 C 0.54958 0.60797 0.10165 0.0
C1016 C 0.53766 0.59341 0.08178 0.0
C1017 C 0.53823 0.61398 0.12041 0.0
C1018 C 0.5152 0.60549 0.11943 0.0
Eu1019 Eu 0.52535 0.56285 0.03182 0.0
N1020 N 0.5484 0.58679 0.06366 0.0
C1021 C 0.5726 0.61598 0.10213 0.0
C1022 C 0.57062 0.59521 0.06364 0.0
C1023 C 0.58312 0.60969 0.08296 0.0
H1024 H 0.47262 0.55087 0.04452 0.0
H1025 H 0.60082 0.61614 0.08297 0.0
H1026 H 0.6009 0.5184 0.01278 0.0
H1027 H 0.47311 0.45201 0.97415 0.0
H1028 H 0.5787 0.59113 0.04867 0.0
H1029 H 0.58235 0.62719 0.11708 0.0
H1030 H 0.49503 0.4771 0.00848 0.0
H1031 H 0.4516 0.56029 0.07699 0.0
H1032 H 0.54713 0.62515 0.13582 0.0
H1033 H 0.50672 0.61023 0.13409 0.0
H1034 H 0.62202 0.50931 0.98032 0.0
H1035 H 0.47107 0.58603 0.11237 0.0
H1036 H 0.4917 0.44134 0.94 0.0
N1037 N 0.56988 0.49855 0.99553 0.0
C1038 C 0.559 0.48406 0.9764 0.0
C1039 C 0.60429 0.50219 0.97895 0.0
C1040 C 0.57047 0.47833 0.95752 0.0
C1041 C 0.59223 0.50748 0.99719 0.0
C1042 C 0.59337 0.4876 0.95899 0.0
N1043 N 0.52531 0.48193 0.99347 0.0
C1044 C 0.50315 0.47322 0.9935 0.0
C1045 C 0.52434 0.46081 0.95549 0.0
C1046 C 0.53614 0.47541 0.97539 0.0
C1047 C 0.50136 0.45258 0.95498 0.0
C1048 C 0.49077 0.45867 0.97416 0.0
H1049 H 0.60276 0.4836 0.94485 0.0
H1050 H 0.56726 0.4592 0.92302 0.0
H1051 H 0.52694 0.44388 0.92124 0.0
O1052 O 0.53938 0.47795 0.04509 0.0
O1053 O 0.53731 0.51918 0.99132 0.0
O1054 O 0.50951 0.53727 0.00034 0.0
O1055 O 0.57275 0.48734 0.03473 0.0
O1056 O 0.51693 0.50704 0.04324 0.0
O1057 O 0.49919 0.53108 0.02506 0.0
O1058 O 0.53431 0.59172 0.01288 0.0
O1059 O 0.53571 0.5495 0.06578 0.0
O1060 O 0.56388 0.53264 0.05581 0.0
O1061 O 0.50065 0.58179 0.02241 0.0
O1062 O 0.55593 0.56171 0.01324 0.0
O1063 O 0.57431 0.53816 0.03146 0.0
C1064 C 0.52028 0.52805 0.98488 0.0
C1065 C 0.56723 0.45565 0.05548 0.0
C1066 C 0.56232 0.4244 0.07774 0.0
C1067 C 0.5836 0.42118 0.07359 0.0
C1068 C 0.58851 0.45192 0.05168 0.0
C1069 C 0.59657 0.43485 0.06067 0.0
C1070 C 0.55403 0.44173 0.06866 0.0
C1071 C 0.49882 0.51433 0.03692 0.0
C1072 C 0.55939 0.47381 0.04498 0.0
C1073 C 0.55873 0.46376 0.93771 0.0
C1074 C 0.53576 0.45503 0.9367 0.0
C1075 C 0.55302 0.54088 0.07175 0.0
C1076 C 0.50645 0.61398 0.0024 0.0
C1077 C 0.51083 0.64454 0.97916 0.0
C1078 C 0.48976 0.64805 0.98378 0.0
C1079 C 0.48541 0.61802 0.00671 0.0
C1080 C 0.51932 0.62746 0.98856 0.0
C1081 C 0.4772 0.63491 0.99748 0.0
C1082 C 0.57419 0.55456 0.01914 0.0
C1083 C 0.51418 0.59561 0.0126 0.0
H1084 H 0.59016 0.40791 0.08033 0.0
H1085 H 0.599 0.46214 0.04155 0.0
H1086 H 0.61294 0.43214 0.05752 0.0
H1087 H 0.53754 0.44421 0.07169 0.0
H1088 H 0.48305 0.66113 0.9768 0.0
H1089 H 0.47519 0.60814 0.01734 0.0
H1090 H 0.5356 0.62467 0.98505 0.0
H1091 H 0.461 0.63783 0.00099 0.0
Eu1092 Eu 0.79087 0.31593 0.26245 0.0
C1093 C 0.73991 0.23804 0.31214 0.0
N1094 N 0.759 0.25374 0.31949 0.0
C1095 C 0.74877 0.25866 0.35829 0.0
C1096 C 0.72423 0.23238 0.32769 0.0
C1097 C 0.76388 0.26368 0.34232 0.0
C1098 C 0.72881 0.24305 0.35093 0.0
C1099 C 0.71642 0.21108 0.28095 0.0
C1100 C 0.73603 0.22744 0.28899 0.0
C1101 C 0.70073 0.20557 0.29638 0.0
C1102 C 0.70462 0.21619 0.31966 0.0
Eu1103 Eu 0.78355 0.25986 0.29118 0.0
N1104 N 0.75119 0.23348 0.27418 0.0
C1105 C 0.71315 0.20076 0.25759 0.0
C1106 C 0.74865 0.22276 0.25182 0.0
C1107 C 0.72944 0.2065 0.24303 0.0
H1108 H 0.77966 0.27506 0.34848 0.0
H1109 H 0.72737 0.1982 0.22515 0.0
H1110 H 0.79536 0.30147 0.20515 0.0
H1111 H 0.85067 0.36915 0.33267 0.0
H1112 H 0.76164 0.2263 0.24097 0.0
H1113 H 0.69829 0.18812 0.25075 0.0
H1114 H 0.81448 0.34488 0.315 0.0
H1115 H 0.75266 0.26664 0.37636 0.0
H1116 H 0.68555 0.19308 0.29049 0.0
H1117 H 0.69239 0.21167 0.33136 0.0
H1118 H 0.82374 0.30873 0.17841 0.0
H1119 H 0.71719 0.23914 0.36341 0.0
H1120 H 0.88093 0.37784 0.3081 0.0
N1121 N 0.81649 0.32071 0.23512 0.0
C1122 C 0.83655 0.33463 0.2436 0.0
C1123 C 0.8276 0.31596 0.19673 0.0
C1124 C 0.85311 0.33942 0.22879 0.0
C1125 C 0.81166 0.31163 0.21202 0.0
C1126 C 0.84842 0.32984 0.20515 0.0
N1127 N 0.82476 0.33857 0.28154 0.0
C1128 C 0.82782 0.3479 0.30447 0.0
C1129 C 0.86152 0.35803 0.27653 0.0
C1130 C 0.84073 0.34393 0.26733 0.0
C1131 C 0.86517 0.36692 0.30038 0.0
C1132 C 0.84818 0.36196 0.31435 0.0
H1133 H 0.86071 0.33317 0.19322 0.0
H1134 H 0.88669 0.35742 0.22682 0.0
H1135 H 0.89405 0.37363 0.26851 0.0
O1136 O 0.77991 0.34653 0.27341 0.0
O1137 O 0.82232 0.3017 0.27175 0.0
O1138 O 0.81661 0.28452 0.3042 0.0
O1139 O 0.78423 0.33767 0.23712 0.0
O1140 O 0.77536 0.31343 0.29593 0.0
O1141 O 0.79434 0.29158 0.3156 0.0
O1142 O 0.79988 0.23207 0.28062 0.0
O1143 O 0.75 0.26952 0.2786 0.0
O1144 O 0.75538 0.29489 0.25215 0.0
O1145 O 0.79377 0.24035 0.31696 0.0
O1146 O 0.79658 0.26344 0.25664 0.0
O1147 O 0.77764 0.28521 0.23676 0.0
C1148 C 0.83019 0.29427 0.29067 0.0
C1149 C 0.75608 0.35757 0.24426 0.0
C1150 C 0.73028 0.38231 0.24909 0.0
C1151 C 0.71605 0.37001 0.22931 0.0
C1152 C 0.74161 0.34546 0.22447 0.0
C1153 C 0.72176 0.35174 0.21705 0.0
C1154 C 0.75041 0.37616 0.25643 0.0
C1155 C 0.78366 0.30766 0.3154 0.0
C1156 C 0.77724 0.35125 0.25206 0.0
C1157 C 0.87379 0.35355 0.23797 0.0
C1158 C 0.87798 0.3628 0.26173 0.0
C1159 C 0.74216 0.28097 0.26289 0.0
C1160 C 0.81158 0.20951 0.3101 0.0
C1161 C 0.82993 0.17851 0.30327 0.0
C1162 C 0.82973 0.17556 0.32691 0.0
C1163 C 0.81162 0.2062 0.33375 0.0
C1164 C 0.82092 0.19559 0.29479 0.0
C1165 C 0.82066 0.18937 0.34204 0.0
C1166 C 0.78555 0.26729 0.23752 0.0
C1167 C 0.80166 0.22751 0.30213 0.0
H1168 H 0.70058 0.3747 0.22325 0.0
H1169 H 0.74562 0.33114 0.21468 0.0
H1170 H 0.71076 0.34241 0.20175 0.0
H1171 H 0.76147 0.38565 0.27167 0.0
H1172 H 0.83664 0.16248 0.33364 0.0
H1173 H 0.80459 0.21662 0.34597 0.0
H1174 H 0.82104 0.19785 0.27651 0.0
H1175 H 0.82058 0.18699 0.36026 0.0
Eu1176 Eu 0.03371 0.55218 0.49755 0.0
C1177 C 0.07396 0.50247 0.58601 0.0
N1178 N 0.05805 0.49347 0.56743 0.0
C1179 C 0.07391 0.46143 0.5617 0.0
C1180 C 0.09089 0.49134 0.59294 0.0
C1181 C 0.05763 0.47322 0.55533 0.0
C1182 C 0.09069 0.47057 0.58052 0.0
C1183 C 0.09002 0.53296 0.61706 0.0
C1184 C 0.0735 0.52307 0.59782 0.0
C1185 C 0.10708 0.52205 0.62386 0.0
C1186 C 0.10749 0.50128 0.61185 0.0
Eu1187 Eu 0.03191 0.51455 0.55657 0.0
N1188 N 0.05691 0.53335 0.59061 0.0
C1189 C 0.08884 0.55346 0.62904 0.0
C1190 C 0.05511 0.55282 0.60313 0.0
C1191 C 0.07114 0.56328 0.62221 0.0
H1192 H 0.04471 0.46613 0.54076 0.0
H1193 H 0.06971 0.57885 0.63179 0.0
H1194 H 0.02349 0.6018 0.51645 0.0
H1195 H 0.99309 0.49174 0.42052 0.0
H1196 H 0.04125 0.56043 0.59905 0.0
H1197 H 0.10121 0.56161 0.64386 0.0
H1198 H 0.02029 0.50641 0.45565 0.0
H1199 H 0.07356 0.44536 0.55203 0.0
H1200 H 0.11995 0.52948 0.63849 0.0
H1201 H 0.12071 0.49303 0.61735 0.0
H1202 H 0.99733 0.62529 0.50549 0.0
H1203 H 0.10338 0.46147 0.58532 0.0
H1204 H 0.96578 0.51336 0.40706 0.0
N1205 N 0.00959 0.5759 0.4883 0.0
C1206 C 0.9945 0.56892 0.46855 0.0
C1207 C 0.99625 0.60942 0.49503 0.0
C1208 C 0.97933 0.58194 0.46152 0.0
C1209 C 0.01089 0.59594 0.50137 0.0
C1210 C 0.98034 0.60237 0.47508 0.0
N1211 N 0.00831 0.53596 0.46315 0.0
C1212 C 0.00838 0.51601 0.45054 0.0
C1213 C 0.97803 0.54064 0.43528 0.0
C1214 C 0.99388 0.54846 0.45556 0.0
C1215 C 0.9777 0.51994 0.42271 0.0
C1216 C 0.99302 0.50765 0.43031 0.0
H1217 H 0.96898 0.61284 0.47025 0.0
H1218 H 0.95179 0.58395 0.43571 0.0
H1219 H 0.95064 0.54781 0.41276 0.0
O1220 O 0.06028 0.5525 0.47547 0.0
O1221 O 0.99751 0.53799 0.5007 0.0
O1222 O 0.01807 0.52489 0.52494 0.0
O1223 O 0.05252 0.58337 0.48992 0.0
O1224 O 0.04291 0.51758 0.49244 0.0
O1225 O 0.02888 0.49442 0.51961 0.0
O1226 O 0.00439 0.51258 0.57729 0.0
O1227 O 0.06658 0.52428 0.54703 0.0
O1228 O 0.0541 0.55126 0.53192 0.0
O1229 O 0.01191 0.48241 0.56072 0.0
O1230 O 0.02114 0.54824 0.56199 0.0
O1231 O 0.03446 0.57129 0.53455 0.0
C1232 C 0.99799 0.52578 0.51695 0.0
C1233 C 0.06399 0.58103 0.4522 0.0
C1234 C 0.07804 0.57834 0.41461 0.0
C1235 C 0.0646 0.59262 0.407 0.0
C1236 C 0.05053 0.59527 0.44449 0.0
C1237 C 0.05099 0.60111 0.42198 0.0
C1238 C 0.07781 0.57283 0.43729 0.0
C1239 C 0.0378 0.49791 0.4999 0.0
C1240 C 0.06354 0.57379 0.47531 0.0
C1241 C 0.96359 0.57418 0.44133 0.0
C1242 C 0.96294 0.5536 0.42826 0.0
C1243 C 0.06991 0.54028 0.53449 0.0
C1244 C 0.99935 0.48254 0.59821 0.0
C1245 C 0.98643 0.48533 0.63658 0.0
C1246 C 0.99793 0.46897 0.64257 0.0
C1247 C 0.01081 0.46625 0.60439 0.0
C1248 C 0.98716 0.49186 0.6143 0.0
C1249 C 0.01 0.45948 0.6265 0.0
C1250 C 0.02534 0.56773 0.55409 0.0
C1251 C 1.00063 0.49113 0.57574 0.0
H1252 H 0.06467 0.59723 0.38954 0.0
H1253 H 0.03959 0.60174 0.4557 0.0
H1254 H 0.04064 0.61208 0.41605 0.0
H1255 H 0.08789 0.56154 0.44314 0.0
H1256 H 0.99745 0.4634 0.65956 0.0
H1257 H 0.02055 0.45892 0.59234 0.0
H1258 H 0.97875 0.5048 0.60964 0.0
H1259 H 0.01884 0.44692 0.63124 0.0
Eu1260 Eu 0.81235 0.77394 0.28039 0.0
C1261 C 0.73129 0.80581 0.22621 0.0
N1262 N 0.74533 0.81641 0.24582 0.0
C1263 C 0.74804 0.851 0.23112 0.0
C1264 C 0.72522 0.81759 0.20809 0.0
C1265 C 0.75355 0.83868 0.24866 0.0
C1266 C 0.73384 0.84042 0.21073 0.0
C1267 C 0.70908 0.77159 0.20367 0.0
C1268 C 0.72339 0.78297 0.22397 0.0
C1269 C 0.70285 0.78336 0.18572 0.0
C1270 C 0.71093 0.80625 0.1879 0.0
Eu1271 Eu 0.75305 0.79409 0.27429 0.0
N1272 N 0.73041 0.7718 0.24121 0.0
C1273 C 0.70161 0.74867 0.20193 0.0
C1274 C 0.72255 0.74963 0.23999 0.0
C1275 C 0.70825 0.73768 0.22024 0.0
H1276 H 0.76399 0.84706 0.26467 0.0
H1277 H 0.7022 0.72003 0.21925 0.0
H1278 H 0.80117 0.72228 0.2936 0.0
H1279 H 0.86715 0.84917 0.32962 0.0
H1280 H 0.7269 0.74118 0.25434 0.0
H1281 H 0.69056 0.73933 0.18662 0.0
H1282 H 0.84099 0.82689 0.29629 0.0
H1283 H 0.75461 0.86866 0.2334 0.0
H1284 H 0.69189 0.77487 0.16999 0.0
H1285 H 0.70607 0.81505 0.17382 0.0
H1286 H 0.81198 0.70213 0.32569 0.0
H1287 H 0.72959 0.85004 0.19718 0.0
H1288 H 0.87969 0.83153 0.36324 0.0
N1289 N 0.82135 0.7532 0.31002 0.0
C1290 C 0.83643 0.76438 0.32857 0.0
C1291 C 0.8189 0.71964 0.32676 0.0
C1292 C 0.8432 0.75347 0.34719 0.0
C1293 C 0.81264 0.73114 0.30873 0.0
C1294 C 0.83422 0.73084 0.34609 0.0
N1295 N 0.83722 0.79724 0.31144 0.0
C1296 C 0.84555 0.81913 0.31112 0.0
C1297 C 0.86001 0.79902 0.34854 0.0
C1298 C 0.84467 0.78697 0.32926 0.0
C1299 C 0.8679 0.82169 0.34874 0.0
C1300 C 0.86075 0.83175 0.32987 0.0
H1301 H 0.83902 0.72188 0.36004 0.0
H1302 H 0.8639 0.75734 0.38081 0.0
H1303 H 0.87864 0.79716 0.38197 0.0
O1304 O 0.84031 0.7827 0.25944 0.0
O1305 O 0.79851 0.78246 0.31482 0.0
O1306 O 0.77896 0.80884 0.30582 0.0
O1307 O 0.83154 0.74976 0.26963 0.0
O1308 O 0.81031 0.80512 0.26417 0.0
O1309 O 0.78456 0.82123 0.28245 0.0
O1310 O 0.7246 0.78347 0.29346 0.0
O1311 O 0.76752 0.78554 0.24015 0.0
O1312 O 0.78561 0.7588 0.24998 0.0
O1313 O 0.73015 0.81568 0.28239 0.0
O1314 O 0.75437 0.76288 0.29086 0.0
O1315 O 0.78063 0.74716 0.27323 0.0
C1316 C 0.78757 0.79787 0.32118 0.0
C1317 C 0.86219 0.75516 0.24642 0.0
C1318 C 0.89411 0.76089 0.22419 0.0
C1319 C 0.89474 0.73846 0.22349 0.0
C1320 C 0.86331 0.73274 0.24534 0.0
C1321 C 0.87943 0.72452 0.23396 0.0
C1322 C 0.87774 0.76934 0.23566 0.0
C1323 C 0.80182 0.82239 0.27058 0.0
C1324 C 0.84447 0.76291 0.25857 0.0
C1325 C 0.85851 0.76546 0.36636 0.0
C1326 C 0.8669 0.78814 0.36702 0.0
C1327 C 0.77824 0.76989 0.23419 0.0
C1328 C 0.70999 0.81143 0.31506 0.0
C1329 C 0.68246 0.80955 0.34286 0.0
C1330 C 0.69402 0.83029 0.35474 0.0
C1331 C 0.7208 0.83248 0.32693 0.0
C1332 C 0.69053 0.80008 0.32298 0.0
C1333 C 0.71301 0.84167 0.34677 0.0
C1334 C 0.76354 0.74592 0.28528 0.0
C1335 C 0.71781 0.802 0.29346 0.0
H1336 H 0.90725 0.73174 0.21485 0.0
H1337 H 0.85163 0.7214 0.25327 0.0
H1338 H 0.88009 0.70724 0.23331 0.0
H1339 H 0.87722 0.78667 0.23632 0.0
H1340 H 0.68807 0.83787 0.37002 0.0
H1341 H 0.73535 0.84189 0.3209 0.0
H1342 H 0.68164 0.7841 0.31365 0.0
H1343 H 0.7216 0.8578 0.35589 0.0
Eu1344 Eu 0.76162 0.28516 0.80745 0.0
C1345 C 0.81521 0.24832 0.7199 0.0
N1346 N 0.82371 0.2636 0.7391 0.0
C1347 C 0.85582 0.24755 0.74525 0.0
C1348 C 0.82659 0.23159 0.71289 0.0
C1349 C 0.84378 0.26362 0.75169 0.0
C1350 C 0.84713 0.23136 0.72584 0.0
C1351 C 0.7855 0.23341 0.68762 0.0
C1352 C 0.79489 0.24926 0.70752 0.0
C1353 C 0.79659 0.21651 0.68075 0.0
C1354 C 0.8171 0.21563 0.69333 0.0
Eu1355 Eu 0.80232 0.28968 0.74987 0.0
N1356 N 0.78448 0.26576 0.71475 0.0
C1357 C 0.76536 0.23515 0.67501 0.0
C1358 C 0.76552 0.26819 0.70158 0.0
C1359 C 0.75551 0.2528 0.68185 0.0
H1360 H 0.85055 0.2761 0.76668 0.0
H1361 H 0.7403 0.25471 0.67177 0.0
H1362 H 0.71113 0.294 0.78758 0.0
H1363 H 0.81905 0.32447 0.88721 0.0
H1364 H 0.7581 0.28212 0.70562 0.0
H1365 H 0.75758 0.2233 0.65967 0.0
H1366 H 0.80629 0.2985 0.85087 0.0
H1367 H 0.87174 0.2476 0.75531 0.0
H1368 H 0.78954 0.20415 0.6656 0.0
H1369 H 0.82553 0.20257 0.68774 0.0
H1370 H 0.68585 0.31841 0.79878 0.0
H1371 H 0.85642 0.21883 0.72097 0.0
H1372 H 0.79552 0.35 0.90095 0.0
N1373 N 0.73623 0.30774 0.81666 0.0
C1374 C 0.74207 0.32206 0.83709 0.0
C1375 C 0.70169 0.31974 0.8096 0.0
C1376 C 0.72798 0.3362 0.84427 0.0
C1377 C 0.71621 0.30612 0.80313 0.0
C1378 C 0.70764 0.33493 0.83019 0.0
N1379 N 0.77597 0.30946 0.84302 0.0
C1380 C 0.79588 0.30963 0.85614 0.0
C1381 C 0.76909 0.33797 0.87168 0.0
C1382 C 0.76239 0.32286 0.85073 0.0
C1383 C 0.78977 0.3386 0.88479 0.0
C1384 C 0.80314 0.32429 0.87704 0.0
H1385 H 0.69635 0.34549 0.83513 0.0
H1386 H 0.72401 0.36221 0.87089 0.0
H1387 H 0.76002 0.36381 0.89481 0.0
O1388 O 0.76153 0.25812 0.82799 0.0
O1389 O 0.77714 0.3212 0.80812 0.0
O1390 O 0.78965 0.30291 0.78097 0.0
O1391 O 0.7301 0.26572 0.81458 0.0
O1392 O 0.79714 0.27714 0.81326 0.0
O1393 O 0.82118 0.29224 0.78709 0.0
O1394 O 0.80616 0.31718 0.72982 0.0
O1395 O 0.79285 0.25522 0.75855 0.0
O1396 O 0.76412 0.26622 0.77268 0.0
O1397 O 0.83556 0.30905 0.7475 0.0
O1398 O 0.76806 0.29995 0.74408 0.0
O1399 O 0.74347 0.28572 0.7702 0.0
C1400 C 0.78961 0.32227 0.79176 0.0
C1401 C 0.73331 0.25515 0.85246 0.0
C1402 C 0.73757 0.2428 0.89065 0.0
C1403 C 0.72316 0.25618 0.89859 0.0
C1404 C 0.71905 0.2686 0.86062 0.0
C1405 C 0.71399 0.26901 0.8836 0.0
C1406 C 0.74246 0.24238 0.86753 0.0
C1407 C 0.81734 0.28319 0.80646 0.0
C1408 C 0.74003 0.25498 0.82887 0.0
C1409 C 0.7346 0.35118 0.86516 0.0
C1410 C 0.7551 0.35208 0.8788 0.0
C1411 C 0.77585 0.25108 0.7701 0.0
C1412 C 0.83864 0.32241 0.71107 0.0
C1413 C 0.83766 0.33202 0.67148 0.0
C1414 C 0.85847 0.32621 0.66988 0.0
C1415 C 0.85954 0.31683 0.70931 0.0
C1416 C 0.82789 0.33008 0.69211 0.0
C1417 C 0.86934 0.3187 0.68876 0.0
C1418 C 0.74778 0.29493 0.75095 0.0
C1419 C 0.82795 0.32065 0.73253 0.0
H1420 H 0.71886 0.25663 0.91629 0.0
H1421 H 0.71197 0.27889 0.84941 0.0
H1422 H 0.70299 0.27936 0.88984 0.0
H1423 H 0.75398 0.23257 0.86134 0.0
H1424 H 0.86653 0.3279 0.65424 0.0
H1425 H 0.86832 0.31105 0.72377 0.0
H1426 H 0.81178 0.33445 0.69331 0.0
H1427 H 0.88546 0.31445 0.68751 0.0
Eu1428 Eu 0.7684 0.75207 0.75979 0.0
C1429 C 0.84775 0.82351 0.82011 0.0
N1430 N 0.82715 0.81294 0.8241 0.0
C1431 C 0.84222 0.8104 0.86349 0.0
C1432 C 0.86649 0.82744 0.83764 0.0
C1433 C 0.82404 0.80731 0.84581 0.0
C1434 C 0.86357 0.8203 0.85933 0.0
C1435 C 0.87069 0.84391 0.79486 0.0
C1436 C 0.84989 0.83173 0.799 0.0
C1437 C 0.88944 0.84731 0.81204 0.0
C1438 C 0.88735 0.83909 0.83336 0.0
Eu1439 Eu 0.79741 0.81095 0.79362 0.0
N1440 N 0.8315 0.82834 0.78268 0.0
C1441 C 0.87192 0.85265 0.77372 0.0
C1442 C 0.83233 0.83767 0.76256 0.0
C1443 C 0.8526 0.84961 0.75755 0.0
H1444 H 0.80751 0.80133 0.85011 0.0
H1445 H 0.85324 0.8567 0.74139 0.0
H1446 H 0.75224 0.76473 0.70658 0.0
H1447 H 0.7183 0.71281 0.82224 0.0
H1448 H 0.81731 0.83604 0.75053 0.0
H1449 H 0.88758 0.86209 0.76991 0.0
H1450 H 0.75303 0.72852 0.80743 0.0
H1451 H 0.83962 0.80571 0.88056 0.0
H1452 H 0.90555 0.8566 0.80918 0.0
H1453 H 0.90189 0.84226 0.84665 0.0
H1454 H 0.71737 0.76064 0.67974 0.0
H1455 H 0.87754 0.82309 0.87325 0.0
H1456 H 0.68175 0.70911 0.79799 0.0
N1457 N 0.73597 0.75153 0.73396 0.0
C1458 C 0.71638 0.74118 0.74042 0.0
C1459 C 0.71681 0.7554 0.69688 0.0
C1460 C 0.69601 0.73826 0.72543 0.0
C1461 C 0.73655 0.7581 0.71234 0.0
C1462 C 0.69642 0.74556 0.70348 0.0
N1463 N 0.73653 0.73649 0.77643 0.0
C1464 C 0.73731 0.72844 0.79732 0.0
C1465 C 0.69632 0.72388 0.76967 0.0
C1466 C 0.71661 0.73385 0.76233 0.0
C1467 C 0.69699 0.71674 0.7917 0.0
C1468 C 0.71758 0.71891 0.8055 0.0
H1469 H 0.68114 0.74346 0.69143 0.0
H1470 H 0.6601 0.72585 0.72144 0.0
H1471 H 0.66033 0.71349 0.76019 0.0
O1472 O 0.76231 0.71614 0.7551 0.0
O1473 O 0.74559 0.77704 0.76795 0.0
O1474 O 0.76269 0.79716 0.80305 0.0
O1475 O 0.772 0.73365 0.72651 0.0
O1476 O 0.78624 0.75168 0.7963 0.0
O1477 O 0.78285 0.78518 0.81518 0.0
O1478 O 0.78704 0.84074 0.78555 0.0
O1479 O 0.82025 0.7939 0.77229 0.0
O1480 O 0.80656 0.75648 0.77013 0.0
O1481 O 0.80223 0.83933 0.8209 0.0
O1482 O 0.77921 0.80848 0.75669 0.0
O1483 O 0.78523 0.77621 0.73794 0.0
C1484 C 0.7443 0.78857 0.78833 0.0
C1485 C 0.78564 0.70138 0.73036 0.0
C1486 C 0.8065 0.67452 0.74283 0.0
C1487 C 0.81889 0.67708 0.72392 0.0
C1488 C 0.79795 0.70358 0.71134 0.0
C1489 C 0.81454 0.69151 0.70823 0.0
C1490 C 0.7899 0.68666 0.7459 0.0
C1491 C 0.78615 0.76511 0.8156 0.0
C1492 C 0.76877 0.71471 0.73432 0.0
C1493 C 0.67589 0.72821 0.73273 0.0
C1494 C 0.67603 0.72117 0.75482 0.0
C1495 C 0.82299 0.77337 0.76873 0.0
C1496 C 0.77573 0.86166 0.81641 0.0
C1497 C 0.75501 0.89039 0.81242 0.0
C1498 C 0.74411 0.88483 0.8317 0.0
C1499 C 0.76508 0.85606 0.83582 0.0
C1500 C 0.77045 0.87848 0.80479 0.0
C1501 C 0.74919 0.86765 0.84335 0.0
C1502 C 0.78312 0.79666 0.73782 0.0
C1503 C 0.79234 0.85057 0.8072 0.0
H1504 H 0.83168 0.66769 0.72109 0.0
H1505 H 0.79489 0.71474 0.69898 0.0
H1506 H 0.82404 0.69334 0.69361 0.0
H1507 H 0.7806 0.6849 0.76071 0.0
H1508 H 0.73198 0.89386 0.83784 0.0
H1509 H 0.76895 0.84285 0.84499 0.0
H1510 H 0.77837 0.88216 0.7894 0.0
H1511 H 0.74088 0.86338 0.85825 0.0
Eu1512 Eu 0.56374 0.54975 0.54604 0.0
C1513 C 0.49717 0.468 0.49052 0.0
N1514 N 0.50666 0.48782 0.48443 0.0
C1515 C 0.51121 0.47006 0.44672 0.0
C1516 C 0.49482 0.44827 0.47484 0.0
C1517 C 0.51331 0.48918 0.4628 0.0
C1518 C 0.50198 0.44952 0.45277 0.0
C1519 C 0.48067 0.44685 0.5194 0.0
C1520 C 0.48998 0.46734 0.51265 0.0
C1521 C 0.47841 0.42725 0.50378 0.0
C1522 C 0.48534 0.42797 0.48156 0.0
Eu1523 Eu 0.50526 0.51878 0.51117 0.0
N1524 N 0.49204 0.48659 0.52748 0.0
C1525 C 0.4736 0.44665 0.54159 0.0
C1526 C 0.48406 0.48649 0.54857 0.0
C1527 C 0.4752 0.46656 0.55617 0.0
H1528 H 0.51935 0.50502 0.45748 0.0
H1529 H 0.46909 0.4666 0.57304 0.0
H1530 H 0.553 0.56099 0.60214 0.0
H1531 H 0.6069 0.60398 0.49067 0.0
H1532 H 0.48352 0.50163 0.55919 0.0
H1533 H 0.46642 0.43123 0.54741 0.0
H1534 H 0.58678 0.56882 0.5006 0.0
H1535 H 0.51637 0.47122 0.42952 0.0
H1536 H 0.47115 0.41141 0.50866 0.0
H1537 H 0.48333 0.41268 0.46969 0.0
H1538 H 0.55885 0.59306 0.63283 0.0
H1539 H 0.50026 0.43474 0.44019 0.0
H1540 H 0.61428 0.6379 0.51978 0.0
N1541 N 0.56617 0.57954 0.57633 0.0
C1542 C 0.57747 0.5995 0.57214 0.0
C1543 C 0.56383 0.59518 0.61572 0.0
C1544 C 0.58202 0.6182 0.58966 0.0
C1545 C 0.55995 0.57704 0.59798 0.0
C1546 C 0.57478 0.61588 0.61151 0.0
N1547 N 0.58056 0.58297 0.53382 0.0
C1548 C 0.58874 0.58365 0.51287 0.0
C1549 C 0.59739 0.62153 0.54591 0.0
C1550 C 0.58522 0.60117 0.55051 0.0
C1551 C 0.60489 0.62256 0.52398 0.0
C1552 C 0.60063 0.6035 0.50743 0.0
H1553 H 0.57805 0.62983 0.62544 0.0
H1554 H 0.59775 0.65299 0.59835 0.0
H1555 H 0.61107 0.65591 0.56005 0.0
O1556 O 0.59565 0.54252 0.53905 0.0
O1557 O 0.54429 0.57407 0.53079 0.0
O1558 O 0.50875 0.55632 0.51238 0.0
O1559 O 0.59132 0.55499 0.57451 0.0
O1560 O 0.56263 0.53259 0.50857 0.0
O1561 O 0.52938 0.53729 0.49027 0.0
O1562 O 0.46906 0.51235 0.51009 0.0
O1563 O 0.53225 0.49824 0.51873 0.0
O1564 O 0.55097 0.51482 0.55458 0.0
O1565 O 0.48367 0.51716 0.47828 0.0
O1566 O 0.50398 0.53657 0.54771 0.0
O1567 O 0.5378 0.53468 0.56761 0.0
C1568 C 0.52448 0.57445 0.51953 0.0
C1569 C 0.61773 0.53244 0.57018 0.0
C1570 C 0.64426 0.50937 0.56287 0.0
C1571 C 0.64777 0.50759 0.58685 0.0
C1572 C 0.62094 0.53047 0.59421 0.0
C1573 C 0.63586 0.51793 0.60244 0.0
C1574 C 0.62927 0.52165 0.55471 0.0
C1575 C 0.55028 0.53586 0.48984 0.0
C1576 C 0.60455 0.54746 0.56106 0.0
C1577 C 0.59407 0.6385 0.58506 0.0
C1578 C 0.60172 0.64015 0.56327 0.0
C1579 C 0.54296 0.49676 0.53934 0.0
C1580 C 0.45198 0.53186 0.48344 0.0
C1581 C 0.43047 0.55818 0.49755 0.0
C1582 C 0.42869 0.56524 0.47544 0.0
C1583 C 0.44978 0.53866 0.46116 0.0
C1584 C 0.44206 0.54159 0.50145 0.0
C1585 C 0.43822 0.55535 0.45725 0.0
C1586 C 0.51696 0.53679 0.5674 0.0
C1587 C 0.46557 0.51561 0.48827 0.0
H1588 H 0.65978 0.49844 0.59343 0.0
H1589 H 0.6124 0.53898 0.60665 0.0
H1590 H 0.63856 0.51666 0.62097 0.0
H1591 H 0.62752 0.52373 0.53628 0.0
H1592 H 0.4195 0.57796 0.47214 0.0
H1593 H 0.45724 0.53129 0.44692 0.0
H1594 H 0.44345 0.53651 0.51874 0.0
H1595 H 0.43663 0.5606 0.4401 0.0
Eu1596 Eu 0.00529 0.53164 0.0431 0.0
C1597 C 0.0868 0.58177 0.99115 0.0
N1598 N 0.07109 0.56261 0.98395 0.0
C1599 C 0.06568 0.57244 0.94521 0.0
C1600 C 0.09197 0.59722 0.97554 0.0
C1601 C 0.0613 0.55741 0.96105 0.0
C1602 C 0.08087 0.59251 0.95253 0.0
C1603 C 0.11548 0.60501 0.02125 0.0
C1604 C 0.09852 0.58578 0.01395 0.0
C1605 C 0.12017 0.62048 0.0058 0.0
C1606 C 0.10843 0.61663 0.98308 0.0
Eu1607 Eu 0.067 0.53886 0.01288 0.0
N1608 N 0.09331 0.57099 0.02907 0.0
C1609 C 0.12722 0.60817 0.04398 0.0
C1610 C 0.1054 0.57337 0.05072 0.0
C1611 C 0.12226 0.59219 0.0587 0.0
H1612 H 0.05054 0.54153 0.95439 0.0
H1613 H 0.13164 0.59419 0.07604 0.0
H1614 H 0.02169 0.53019 0.10174 0.0
H1615 H 0.93922 0.47546 0.98165 0.0
H1616 H 0.10238 0.56048 0.06149 0.0
H1617 H 0.14033 0.62274 0.0502 0.0
H1618 H 0.9676 0.50973 0.99563 0.0
H1619 H 0.05766 0.56833 0.92719 0.0
H1620 H 0.133 0.63542 0.01119 0.0
H1621 H 0.11248 0.62866 0.9713 0.0
H1622 H 0.01505 0.50396 0.12964 0.0
H1623 H 0.08441 0.60397 0.94007 0.0
H1624 H 0.9319 0.44696 0.00775 0.0
N1625 N 1.00102 0.50855 0.07264 0.0
C1626 C 0.98537 0.48933 0.06592 0.0
C1627 C 0.00689 0.49949 0.11168 0.0
C1628 C 0.98062 0.4741 0.08185 0.0
C1629 C 0.01099 0.51419 0.09547 0.0
C1630 C 0.99189 0.47925 0.10479 0.0
N1631 N 0.97778 0.49984 0.02807 0.0
C1632 C 0.96532 0.49699 0.00657 0.0
C1633 C 0.95673 0.46543 0.03633 0.0
C1634 C 0.97332 0.48502 0.0433 0.0
C1635 C 0.94472 0.46181 0.01372 0.0
C1636 C 0.94888 0.47778 0.99888 0.0
H1637 H 0.98863 0.468 0.11751 0.0
H1638 H 0.96072 0.44257 0.08672 0.0
H1639 H 0.93996 0.43496 0.04692 0.0
O1640 O 0.97597 0.54507 0.0305 0.0
O1641 O 0.01356 0.49878 0.02586 0.0
O1642 O 0.04624 0.50311 0.00711 0.0
O1643 O 0.98674 0.5454 0.06816 0.0
O1644 O 0.01924 0.54386 0.01197 0.0
O1645 O 0.03661 0.52711 0.98601 0.0
O1646 O 0.09489 0.52477 0.02678 0.0
O1647 O 0.0594 0.57162 0.03123 0.0
O1648 O 0.02497 0.56726 0.04624 0.0
O1649 O 0.09105 0.53052 0.99049 0.0
O1650 O 0.05387 0.52594 0.04413 0.0
O1651 O 0.03594 0.543 0.06938 0.0
C1652 C 0.02821 0.49076 0.01362 0.0
C1653 C 0.9556 0.56231 0.05964 0.0
C1654 C 0.92741 0.58363 0.05114 0.0
C1655 C 0.92688 0.58898 0.07531 0.0
C1656 C 0.95466 0.56769 0.08381 0.0
C1657 C 0.94033 0.58089 0.09154 0.0
C1658 C 0.94159 0.57005 0.04322 0.0
C1659 C 0.018 0.53156 0.99198 0.0
C1660 C 0.97307 0.55097 0.05227 0.0
C1661 C 0.96443 0.45444 0.0747 0.0
C1662 C 0.95255 0.45012 0.05204 0.0
C1663 C 0.04373 0.57964 0.04162 0.0
C1664 C 0.10798 0.50112 0.99866 0.0
C1665 C 0.13363 0.47624 0.00173 0.0
C1666 C 0.12096 0.46205 0.98219 0.0
C1667 C 0.09546 0.4868 0.97901 0.0
C1668 C 0.12712 0.49576 0.01 0.0
C1669 C 0.10192 0.46733 0.97091 0.0
C1670 C 0.05456 0.53822 0.06405 0.0
C1671 C 0.10218 0.52233 0.00644 0.0
H1672 H 0.9158 0.59925 0.0816 0.0
H1673 H 0.96536 0.5621 0.09689 0.0
H1674 H 0.93984 0.58506 0.11015 0.0
H1675 H 0.94217 0.56617 0.02455 0.0
H1676 H 0.12594 0.44698 0.97559 0.0
H1677 H 0.08086 0.4908 0.96972 0.0
H1678 H 0.13707 0.50684 0.02497 0.0
H1679 H 0.09226 0.45641 0.95573 0.0
H1680 H 0.01865 0.2153 0.01373 0.0
H1681 H 0.9998 0.18258 0.94245 0.0
H1682 H 0.02406 0.18055 0.02641 0.0
H1683 H 0.00634 0.14829 0.95449 0.0
H1684 H 0.00605 0.08272 0.98039 0.0
H1685 H 0.99873 0.11713 0.96939 0.0
H1686 H 0.04146 0.15291 0.03201 0.0
H1687 H 0.04672 0.11807 0.04387 0.0
C1688 C 0.01561 0.20069 0.00067 0.0
C1689 C 0.00847 0.20208 0.97699 0.0
C1690 C 0.019 0.18049 0.00792 0.0
C1691 C 0.01572 0.16072 0.99177 0.0
C1692 C 0.00868 0.16238 0.96803 0.0
C1693 C 0.00501 0.18243 0.9609 0.0
C1694 C 0.01389 0.0979 0.99194 0.0
C1695 C 0.02749 0.09717 0.01298 0.0
C1696 C 0.00987 0.11807 0.98542 0.0
C1697 C 0.01964 0.13874 -0.00066 0.0
C1698 C 0.03319 0.13789 0.02051 0.0
C1699 C 0.0367 0.1176 0.0273 0.0
H1700 H 0.15598 0.8083 0.12681 0.0
H1701 H 0.11652 0.80804 0.18418 0.0
H1702 H 0.18827 0.80458 0.15354 0.0
H1703 H 0.14873 0.80494 0.21094 0.0
H1704 H 0.20329 0.77712 0.249 0.0
H1705 H 0.17157 0.78066 0.22189 0.0
H1706 H 0.21633 0.82263 0.18521 0.0
H1707 H 0.24818 0.81893 0.21239 0.0
C1708 C 0.15421 0.80761 0.14515 0.0
C1709 C 0.13356 0.80852 0.15325 0.0
C1710 C 0.17281 0.80559 0.16058 0.0
C1711 C 0.17133 0.80441 0.1846 0.0
C1712 C 0.15063 0.80541 0.19261 0.0
C1713 C 0.1321 0.8074 0.17721 0.0
C1714 C 0.20642 0.78748 0.23548 0.0
C1715 C 0.22843 0.79811 0.23335 0.0
C1716 C 0.18811 0.78946 0.21975 0.0
C1717 C 0.19111 0.80211 0.20125 0.0
C1718 C 0.21318 0.81257 0.19899 0.0
C1719 C 0.23152 0.81059 0.21476 0.0
H1720 H 0.50911 0.86067 0.43341 0.0
H1721 H 0.51487 0.84433 0.50393 0.0
H1722 H 0.51186 0.89886 0.44844 0.0
H1723 H 0.51792 0.88379 0.51935 0.0
H1724 H 0.50297 0.95655 0.53398 0.0
H1725 H 0.499 0.9166 0.52243 0.0
H1726 H 0.53957 0.92981 0.46726 0.0
H1727 H 0.5431 0.96925 0.47832 0.0
C1728 C 0.5111 0.86511 0.45231 0.0
C1729 C 0.51206 0.84889 0.46729 0.0
C1730 C 0.51282 0.88741 0.461 0.0
C1731 C 0.51564 0.89495 0.48523 0.0
C1732 C 0.51583 0.8788 0.50053 0.0
C1733 C 0.51411 0.85608 0.49169 0.0
C1734 C 0.51091 0.95096 0.51924 0.0
C1735 C 0.52315 0.96652 0.50698 0.0
C1736 C 0.50882 0.9279 0.51277 0.0
C1737 C 0.51877 0.91958 0.4937 0.0
C1738 C 0.53123 0.93523 0.48175 0.0
C1739 C 0.53337 0.95812 0.48822 0.0
H1740 H 0.48719 0.26579 0.62844 0.0
H1741 H 0.52014 0.3215 0.68017 0.0
H1742 H 0.45272 0.26393 0.64635 0.0
H1743 H 0.48555 0.32044 0.69771 0.0
H1744 H 0.43623 0.28463 0.74358 0.0
H1745 H 0.46688 0.29696 0.7216 0.0
H1746 H 0.42125 0.27786 0.65676 0.0
H1747 H 0.39077 0.26488 0.6791 0.0
C1748 C 0.4867 0.2782 0.64307 0.0
C1749 C 0.50613 0.29393 0.65281 0.0
C1750 C 0.46695 0.2772 0.65341 0.0
C1751 C 0.46627 0.29192 0.67372 0.0
C1752 C 0.48547 0.30857 0.6824 0.0
C1753 C 0.50522 0.30941 0.67219 0.0
C1754 C 0.43265 0.28392 0.72472 0.0
C1755 C 0.41115 0.27416 0.71303 0.0
C1756 C 0.45023 0.29093 0.71201 0.0
C1757 C 0.44671 0.28827 0.68725 0.0
C1758 C 0.42472 0.27987 0.67573 0.0
C1759 C 0.40716 0.27277 0.6885 0.0
H1760 H 0.05398 0.8375 0.68103 0.0
H1761 H 1.00209 0.80142 0.62613 0.0
H1762 H 0.05823 0.86953 0.66038 0.0
H1763 H 0.00507 0.8339 0.60609 0.0
H1764 H 0.03819 0.88467 0.56166 0.0
H1765 H 0.02693 0.85414 0.58332 0.0
H1766 H 0.04549 0.89929 0.64858 0.0
H1767 H 0.05777 0.92951 0.62651 0.0
C1768 C 0.04317 0.83658 0.66471 0.0
C1769 C 0.02782 0.81688 0.65514 0.0
C1770 C 0.04542 0.85509 0.65289 0.0
C1771 C 0.03199 0.8546 0.63138 0.0
C1772 C 0.01611 0.83497 0.62226 0.0
C1773 C 0.01427 0.8163 0.63382 0.0
C1774 C 0.03908 0.8881 0.58059 0.0
C1775 C 0.04851 0.90944 0.59241 0.0
C1776 C 0.03269 0.87056 0.59315 0.0
C1777 C 0.03555 0.87392 0.61794 0.0
C1778 C 0.04351 0.89576 0.6296 0.0
C1779 C 0.05011 0.91326 0.61698 0.0
H1780 H 0.47195 0.7935 0.78857 0.0
H1781 H 0.4683 0.82132 0.85954 0.0
H1782 H 0.43135 0.78903 0.77895 0.0
H1783 H 0.42758 0.81759 0.84969 0.0
H1784 H 0.35887 0.82908 0.81205 0.0
H1785 H 0.39944 0.83337 0.82306 0.0
H1786 H 0.3953 0.76691 0.78932 0.0
H1787 H 0.35499 0.76258 0.77846 0.0
C1788 C 0.46246 0.7986 0.80219 0.0
C1789 C 0.47352 0.80756 0.82493 0.0
C1790 C 0.43909 0.79604 0.79666 0.0
C1791 C 0.42594 0.80299 0.81346 0.0
C1792 C 0.43703 0.81212 0.83621 0.0
C1793 C 0.46039 0.81406 0.84195 0.0
C1794 C 0.3666 0.81541 0.80686 0.0
C1795 C 0.3534 0.79553 0.79414 0.0
C1796 C 0.38992 0.8178 0.81339 0.0
C1797 C 0.40088 0.8005 0.80712 0.0
C1798 C 0.38766 0.7807 0.79434 0.0
C1799 C 0.36438 0.77819 0.78816 0.0
H1800 H 0.50865 0.16034 0.17333 0.0
H1801 H 0.52274 0.20207 0.12012 0.0
H1802 H 0.51021 0.12806 0.14587 0.0
H1803 H 0.52378 0.16966 0.0923 0.0
H1804 H 0.54942 0.11148 0.05652 0.0
H1805 H 0.54551 0.14363 0.08279 0.0
H1806 H 0.49355 0.10257 0.11236 0.0
H1807 H 0.49796 0.07026 0.08638 0.0
C1808 C 0.51188 0.16264 0.15567 0.0
C1809 C 0.51562 0.18397 0.14909 0.0
C1810 C 0.51263 0.14399 0.13974 0.0
C1811 C 0.51723 0.14596 0.11664 0.0
C1812 C 0.52056 0.1673 0.10995 0.0
C1813 C 0.51974 0.18598 0.12589 0.0
C1814 C 0.53701 0.10928 0.06846 0.0
C1815 C 0.52404 0.08813 0.06919 0.0
C1816 C 0.53467 0.12786 0.08358 0.0
C1817 C 0.51916 0.12602 0.09992 0.0
C1818 C 0.50596 0.10483 0.10042 0.0
C1819 C 0.50839 0.08621 0.08535 0.0
H1820 H 0.10331 0.30224 0.29669 0.0
H1821 H 0.13484 0.30968 0.3682 0.0
H1822 H 0.13817 0.2963 0.28264 0.0
H1823 H 0.16909 0.30275 0.35452 0.0
H1824 H 0.23584 0.3079 0.32749 0.0
H1825 H 0.20096 0.31445 0.33972 0.0
H1826 H 0.16473 0.27595 0.27503 0.0
H1827 H 0.20016 0.27095 0.26213 0.0
C1828 C 0.11761 0.30251 0.30949 0.0
C1829 C 0.11599 0.30667 0.3337 0.0
C1830 C 0.13779 0.2989 0.3014 0.0
C1831 C 0.15718 0.29911 0.31719 0.0
C1832 C 0.15522 0.30295 0.34141 0.0
C1833 C 0.13523 0.30678 0.34942 0.0
C1834 C 0.2205 0.30077 0.31573 0.0
C1835 C 0.22123 0.28847 0.29381 0.0
C1836 C 0.20011 0.30437 0.32295 0.0
C1837 C 0.17926 0.29554 0.30879 0.0
C1838 C 0.18003 0.28333 0.28669 0.0
C1839 C 0.20058 0.28008 0.27929 0.0
H1840 H 0.9291 0.01364 0.17223 0.0
H1841 H 0.99417 0.03366 0.21414 0.0
H1842 H 0.94653 0.01816 0.1367 0.0
H1843 H 0.01161 0.03874 0.17868 0.0
H1844 H 0.03731 0.0224 0.10858 0.0
H1845 H 0.02014 0.01854 0.14426 0.0
H1846 H 0.96521 0.04538 0.11545 0.0
H1847 H 0.98225 0.04884 0.07947 0.0
C1848 C 0.94714 0.01912 0.17388 0.0
C1849 C 0.96023 0.02325 0.19607 0.0
C1850 C 0.95714 0.02187 0.15348 0.0
C1851 C 0.98053 0.02889 0.1547 0.0
C1852 C 0.9936 0.03304 0.17694 0.0
C1853 C 0.98358 0.03024 0.19734 0.0
C1854 C 0.0216 0.02757 0.10985 0.0
C1855 C 0.01113 0.03587 0.09105 0.0
C1856 C 0.01178 0.02545 0.13043 0.0
C1857 C 0.99122 0.03161 0.13286 0.0
C1858 C 0.98087 0.04013 0.11413 0.0
C1859 C 0.9907 0.04225 0.09351 0.0
H1860 H 0.24088 0.66239 0.49333 0.0
H1861 H 0.31172 0.67738 0.48837 0.0
H1862 H 0.23355 0.68076 0.45931 0.0
H1863 H 0.30445 0.69655 0.4543 0.0
H1864 H 0.27176 0.75599 0.42552 0.0
H1865 H 0.28566 0.73297 0.45283 0.0
H1866 H 0.23961 0.67529 0.41401 0.0
H1867 H 0.22607 0.69829 0.3865 0.0
C1868 C 0.25483 0.66964 0.48477 0.0
C1869 C 0.2768 0.66877 0.4932 0.0
C1870 C 0.25065 0.67991 0.4653 0.0
C1871 C 0.26846 0.68978 0.45425 0.0
C1872 C 0.29054 0.68886 0.46262 0.0
C1873 C 0.29469 0.67806 0.48194 0.0
C1874 C 0.26494 0.73833 0.42278 0.0
C1875 C 0.24769 0.72874 0.40444 0.0
C1876 C 0.27302 0.72521 0.43809 0.0
C1877 C 0.26363 0.7025 0.43534 0.0
C1878 C 0.24707 0.6928 0.41631 0.0
C1879 C 0.23926 0.70586 0.40078 0.0
H1880 H 0.6746 0.06542 0.65999 0.0
H1881 H 0.63064 0.00702 0.67511 0.0
H1882 H 0.64939 0.06441 0.62372 0.0
H1883 H 0.60603 0.00583 0.63885 0.0
H1884 H 0.56673 0.06454 0.60312 0.0
H1885 H 0.60109 0.0658 0.6297 0.0
H1886 H 0.61095 0.00675 0.5887 0.0
H1887 H 0.57664 1.00551 0.56222 0.0
C1888 C 0.66001 0.05202 0.65514 0.0
C1889 C 0.65424 0.03645 0.67025 0.0
C1890 C 0.64573 0.05149 0.63457 0.0
C1891 C 0.6261 0.03503 0.62888 0.0
C1892 C 0.62133 0.01847 0.64301 0.0
C1893 C 0.63527 0.01925 0.66369 0.0
C1894 C 0.57663 0.05222 0.59965 0.0
C1895 C 0.56983 0.03532 0.58053 0.0
C1896 C 0.59624 0.05309 0.61449 0.0
C1897 C 0.60868 0.03672 0.61055 0.0
C1898 C 0.6018 0.01982 0.59143 0.0
C1899 C 0.58236 0.01913 0.57646 0.0
H1900 H 0.28988 0.32887 0.97569 0.0
H1901 H 0.30128 0.39065 0.94754 0.0
H1902 H 0.28881 0.30882 0.93608 0.0
H1903 H 0.30079 0.37099 0.9088 0.0
H1904 H 0.27077 0.33179 0.83938 0.0
H1905 H 0.27207 0.34788 0.87981 0.0
H1906 H 0.3114 0.30227 0.90291 0.0
H1907 H 0.30954 0.28547 0.86195 0.0
C1908 C 0.2923 0.33816 0.96117 0.0
C1909 C 0.29523 0.36134 0.96475 0.0
C1910 C 0.29179 0.32671 0.93853 0.0
C1911 C 0.2943 0.33827 0.91916 0.0
C1912 C 0.29813 0.36146 0.92311 0.0
C1913 C 0.29847 0.37277 0.94545 0.0
C1914 C 0.27973 0.32507 0.85296 0.0
C1915 C 0.29046 0.30759 0.84726 0.0
C1916 C 0.28054 0.3344 0.87624 0.0
C1917 C 0.2922 0.32667 0.89465 0.0
C1918 C 0.3023 0.30864 0.88915 0.0
C1919 C 0.3014 0.29915 0.86566 0.0
H1920 H 0.9719 0.97984 0.3357 0.0
H1921 H 0.96988 0.04902 0.3419 0.0
H1922 H 0.98497 0.98401 0.37754 0.0
H1923 H 0.98403 0.05358 0.38388 0.0
H1924 H 0.98926 0.04813 0.46306 0.0
H1925 H 0.97499 0.0448 0.42157 0.0
H1926 H 0.01785 0.99957 0.40472 0.0
H1927 H 0.03222 1.00308 0.44607 0.0
C1928 C 0.97447 0.99603 0.34605 0.0
C1929 C 0.97001 0.01414 0.3355 0.0
C1930 C 0.98211 0.99847 0.37005 0.0
C1931 C 0.98592 0.0192 0.38418 0.0
C1932 C 0.9811 0.03731 0.37366 0.0
C1933 C 0.97305 0.03476 0.3496 0.0
C1934 C 0.99559 0.03736 0.45054 0.0
C1935 C 0.01158 0.02543 0.45815 0.0
C1936 C 0.98749 0.0356 0.42665 0.0
C1937 C 0.99502 0.02173 0.40966 0.0
C1938 C 0.01125 0.01006 0.41726 0.0
C1939 C 0.01953 0.01203 0.44111 0.0
H1940 H 0.23895 0.65022 0.6348 0.0
H1941 H 0.30696 0.67699 0.62406 0.0
H1942 H 0.2416 0.68066 0.66684 0.0
H1943 H 0.30965 0.7071 0.65595 0.0
H1944 H 0.31236 0.74019 0.73116 0.0
H1945 H 0.30858 0.70949 0.7 0.0
H1946 H 0.24706 0.72399 0.66861 0.0
H1947 H 0.25062 0.75491 0.70039 0.0
C1948 C 0.2545 0.66244 0.6396 0.0
C1949 C 0.27278 0.66151 0.62723 0.0
C1950 C 0.2559 0.67985 0.65757 0.0
C1951 C 0.27574 0.69609 0.66347 0.0
C1952 C 0.29421 0.69468 0.65157 0.0
C1953 C 0.29268 0.67756 0.63343 0.0
C1954 C 0.2981 0.73696 0.71753 0.0
C1955 C 0.28169 0.74974 0.71801 0.0
C1956 C 0.29597 0.71943 0.69979 0.0
C1957 C 0.27751 0.7145 0.68221 0.0
C1958 C 0.26129 0.72751 0.68231 0.0
C1959 C 0.26345 0.74523 0.70014 0.0
H1960 H 0.67272 0.05731 0.82372 0.0
H1961 H 0.6102 0.01587 0.78924 0.0
H1962 H 0.6571 0.06004 0.86078 0.0
H1963 H 0.59487 0.01751 0.82643 0.0
H1964 H 0.56685 0.0682 0.8736 0.0
H1965 H 0.58393 0.05055 0.84278 0.0
H1966 H 0.63921 0.04631 0.8938 0.0
H1967 H 0.62206 0.0646 0.9248 0.0
C1968 C 0.65602 0.04791 0.82442 0.0
C1969 C 0.6424 0.03674 0.8038 0.0
C1970 C 0.64708 0.04939 0.84562 0.0
C1971 C 0.62454 0.03946 0.84631 0.0
C1972 C 0.61207 0.02582 0.82623 0.0
C1973 C 0.62083 0.02477 0.80502 0.0
C1974 C 0.58257 0.06338 0.87823 0.0
C1975 C 0.59336 0.06808 0.90139 0.0
C1976 C 0.59221 0.05291 0.86067 0.0
C1977 C 0.61291 0.04692 0.86589 0.0
C1978 C 0.62329 0.05079 0.88929 0.0
C1979 C 0.6135 0.0612 0.90696 0.0
H1980 H 0.32914 0.36963 0.12739 0.0
H1981 H 0.26417 0.33064 0.09632 0.0
H1982 H 0.32506 0.35337 0.16366 0.0
H1983 H 0.25985 0.31502 0.13293 0.0
H1984 H 0.25607 0.32131 0.21673 0.0
H1985 H 0.26009 0.33664 0.17976 0.0
H1986 H 0.31819 0.30863 0.17209 0.0
H1987 H 0.31371 0.29265 0.20843 0.0
C1988 C 0.31405 0.35756 0.12829 0.0
C1989 C 0.29705 0.35128 0.10897 0.0
C1990 C 0.31172 0.34831 0.14902 0.0
C1991 C 0.29209 0.3331 0.15104 0.0
C1992 C 0.27508 0.32682 0.13178 0.0
C1993 C 0.27765 0.33562 0.11083 0.0
C1994 C 0.26968 0.31852 0.20711 0.0
C1995 C 0.28457 0.30585 0.21532 0.0
C1996 C 0.27191 0.32714 0.18599 0.0
C1997 C 0.28945 0.32376 0.17319 0.0
C1998 C 0.30457 0.31145 0.18168 0.0
C1999 C 0.30196 0.3023 0.20238 0.0
H2000 H 0.21234 0.94911 0.96511 0.0
H2001 H 0.24739 0.96996 0.03552 0.0
H2002 H 0.17835 0.95935 0.97846 0.0
H2003 H 0.21371 0.97929 0.04881 0.0
H2004 H 0.14766 0.96925 0.07134 0.0
H2005 H 0.16981 0.95076 0.04602 0.0
H2006 H 0.17565 1.004 0.00435 0.0
H2007 H 0.15381 0.02279 0.02979 0.0
C2008 C 0.21261 0.95577 0.98334 0.0
C2009 C 0.23216 0.959 -0.00061 0.0
C2010 C 0.19337 0.96148 0.99089 0.0
C2011 C 0.19364 0.96961 0.01461 0.0
C2012 C 0.21323 0.97271 0.0305 0.0
C2013 C 0.23243 0.96762 0.0229 0.0
C2014 C 0.15311 0.97664 0.05636 0.0
C2015 C 0.14955 0.99758 0.05276 0.0
C2016 C 0.16543 0.96596 0.04177 0.0
C2017 C 0.1742 0.9761 0.02344 0.0
C2018 C 0.16864 0.99585 0.01824 0.0
C2019 C 0.15632 0.0066 0.03288 0.0
H2020 H 0.69215 0.65792 0.03741 0.0
H2021 H 0.69175 0.62577 0.967 0.0
H2022 H 0.65811 0.63107 0.0412 0.0
H2023 H 0.65723 0.59939 0.97044 0.0
H2024 H 0.58079 0.57872 0.98353 0.0
H2025 H 0.61523 0.60389 0.97815 0.0
H2026 H 0.64984 0.58608 0.03951 0.0
H2027 H 0.61548 0.56047 0.04468 0.0
C2028 C 0.68439 0.64545 0.02258 0.0
C2029 C 0.69413 0.64404 0.00175 0.0
C2030 C 0.66519 0.62999 0.02484 0.0
C2031 C 0.65524 0.61325 0.00611 0.0
C2032 C 0.66466 0.61222 0.98506 0.0
C2033 C 0.68421 0.6273 0.98304 0.0
C2034 C 0.59585 0.57995 0.99566 0.0
C2035 C 0.59555 0.56768 0.0145 0.0
C2036 C 0.61547 0.5943 0.99257 0.0
C2037 C 0.63498 0.59693 0.00852 0.0
C2038 C 0.63487 0.58436 0.0271 0.0
C2039 C 0.61534 0.56962 0.02992 0.0
H2040 H 0.64415 0.46987 0.27259 0.0
H2041 H 0.70756 0.51287 0.30235 0.0
H2042 H 0.66232 0.43892 0.26724 0.0
H2043 H 0.72585 0.4814 0.29811 0.0
H2044 H 0.75227 0.42551 0.25533 0.0
H2045 H 0.73731 0.45765 0.26896 0.0
H2046 H 0.67889 0.41397 0.28558 0.0
H2047 H 0.6934 0.38214 0.27067 0.0
C2048 C 0.66196 0.47261 0.27844 0.0
C2049 C 0.67443 0.49381 0.28785 0.0
C2050 C 0.67242 0.45476 0.27557 0.0
C2051 C 0.6956 0.45751 0.28244 0.0
C2052 C 0.70803 0.47869 0.29238 0.0
C2053 C 0.69756 0.4967 0.29493 0.0
C2054 C 0.73643 0.42297 0.26231 0.0
C2055 C 0.72374 0.40152 0.26169 0.0
C2056 C 0.72786 0.44132 0.27021 0.0
C2057 C 0.7066 0.43845 0.27789 0.0
C2058 C 0.69494 0.41686 0.27906 0.0
C2059 C 0.70329 0.3986 0.27077 0.0
H2060 H 0.86318 0.49382 0.5535 0.0
H2061 H 0.87338 0.47026 0.48307 0.0
H2062 H 0.90406 0.50219 0.56572 0.0
H2063 H 0.91365 0.47763 0.49526 0.0
H2064 H 0.98196 0.48282 0.51894 0.0
H2065 H 0.94426 0.46683 0.5269 0.0
H2066 H 0.93269 0.53249 0.54525 0.0
H2067 H 0.97027 0.54838 0.53704 0.0
C2068 C 0.87424 0.49027 0.54085 0.0
C2069 C 0.86568 0.4821 0.51732 0.0
C2070 C 0.89733 0.49471 0.54785 0.0
C2071 C 0.91166 0.49011 0.53148 0.0
C2072 C 0.90279 0.48085 0.50826 0.0
C2073 C 0.87994 0.47708 0.50118 0.0
C2074 C 0.9716 0.49369 0.52564 0.0
C2075 C 0.9784 0.51662 0.52717 0.0
C2076 C 0.95027 0.48461 0.53038 0.0
C2077 C 0.93583 0.49854 0.5366 0.0
C2078 C 0.94375 0.52153 0.54075 0.0
C2079 C 0.96495 0.53058 0.53572 0.0
H2080 H 0.31398 0.0636 0.31286 0.0
H2081 H 0.37959 0.10698 0.32412 0.0
H2082 H 0.29727 0.09422 0.30286 0.0
H2083 H 0.36311 0.13708 0.31318 0.0
H2084 H 0.32966 0.18702 0.28444 0.0
H2085 H 0.33786 0.16316 0.31363 0.0
H2086 H 0.30266 0.10577 0.26456 0.0
H2087 H 0.29458 0.12952 0.23589 0.0
C2088 C 0.32471 0.07982 0.31398 0.0
C2089 C 0.34807 0.08281 0.31842 0.0
C2090 C 0.31519 0.09731 0.30824 0.0
C2091 C 0.32899 0.11775 0.3065 0.0
C2092 C 0.35203 0.12151 0.31431 0.0
C2093 C 0.36151 0.10415 0.3204 0.0
C2094 C 0.32361 0.16928 0.28021 0.0
C2095 C 0.31204 0.15984 0.25794 0.0
C2096 C 0.3281 0.15573 0.29685 0.0
C2097 C 0.32071 0.13267 0.29144 0.0
C2098 C 0.3082 0.12349 0.26947 0.0
C2099 C 0.30396 0.13697 0.25285 0.0
H2100 H 0.32509 0.1442 0.4916 0.0
H2101 H 0.32794 0.15065 0.56698 0.0
H2102 H 0.35981 0.13017 0.49428 0.0
H2103 H 0.36222 0.13682 0.56986 0.0
H2104 H 0.42369 0.1133 0.57395 0.0
H2105 H 0.40122 0.14025 0.56463 0.0
H2106 H 0.36486 0.09414 0.50459 0.0
H2107 H 0.38798 0.06774 0.51361 0.0
C2108 C 0.33362 0.14329 0.50872 0.0
C2109 C 0.32406 0.14826 0.52911 0.0
C2110 C 0.35332 0.13521 0.51028 0.0
C2111 C 0.36367 0.13235 0.53226 0.0
C2112 C 0.35488 0.1391 0.55269 0.0
C2113 C 0.33516 0.14684 0.55109 0.0
C2114 C 0.41117 0.10931 0.55852 0.0
C2115 C 0.40697 0.08854 0.54469 0.0
C2116 C 0.39842 0.12464 0.55313 0.0
C2117 C 0.38112 0.11918 0.53407 0.0
C2118 C 0.3782 0.09893 0.51925 0.0
C2119 C 0.39114 0.08371 0.52452 0.0
H2120 H 0.70259 0.61287 0.31281 0.0
H2121 H 0.65192 0.64125 0.27734 0.0
H2122 H 0.73061 0.64689 0.31222 0.0
H2123 H 0.67996 0.67474 0.27658 0.0
H2124 H 0.75332 0.70841 0.25358 0.0
H2125 H 0.72893 0.67308 0.25737 0.0
H2126 H 0.72189 0.69875 0.32814 0.0
H2127 H 0.74568 0.73443 0.32412 0.0
C2128 C 0.6974 0.62631 0.30503 0.0
C2129 C 0.67498 0.62437 0.29523 0.0
C2130 C 0.71341 0.64567 0.30469 0.0
C2131 C 0.70724 0.66317 0.29432 0.0
C2132 C 0.68495 0.66135 0.28467 0.0
C2133 C 0.66895 0.64221 0.28523 0.0
C2134 C 0.74693 0.70631 0.27009 0.0
C2135 C 0.75129 0.72399 0.2886 0.0
C2136 C 0.73302 0.68621 0.27221 0.0
C2137 C 0.72387 0.68336 0.29311 0.0
C2138 C 0.72897 0.70069 0.31196 0.0
C2139 C 0.74244 0.72099 0.30964 0.0
H2140 H 0.83436 0.45806 0.76917 0.0
H2141 H 0.89167 0.43872 0.80387 0.0
H2142 H 0.81294 0.42018 0.76489 0.0
H2143 H 0.86993 0.40128 0.80153 0.0
H2144 H 0.83285 0.33269 0.78418 0.0
H2145 H 0.85366 0.36842 0.77817 0.0
H2146 H 0.79512 0.39589 0.78741 0.0
H2147 H 0.77379 0.35927 0.7902 0.0
C2148 C 0.84224 0.4456 0.77597 0.0
C2149 C 0.86454 0.451 0.78671 0.0
C2150 C 0.83 0.42398 0.7737 0.0
C2151 C 0.83966 0.40763 0.78287 0.0
C2152 C 0.86209 0.41323 0.79366 0.0
C2153 C 0.87452 0.43469 0.79523 0.0
C2154 C 0.82417 0.34606 0.78332 0.0
C2155 C 0.80159 0.34317 0.78635 0.0
C2156 C 0.83623 0.36676 0.78072 0.0
C2157 C 0.82613 0.38515 0.78241 0.0
C2158 C 0.80336 0.38209 0.78543 0.0
C2159 C 0.79117 0.3612 0.78727 0.0
H2160 H 0.08297 0.86712 0.05076 0.0
H2161 H 0.04139 0.87688 0.10486 0.0
H2162 H 0.07902 0.9028 0.03861 0.0
H2163 H 0.03729 0.91217 0.09272 0.0
H2164 H 0.01536 0.96444 0.05159 0.0
H2165 H 0.01998 0.92886 0.06217 0.0
H2166 H 0.089 0.94369 0.04985 0.0
H2167 H 0.08422 0.97956 0.03893 0.0
C2168 C 0.07289 0.87674 0.06005 0.0
C2169 C 0.06249 0.86875 0.07888 0.0
C2170 C 0.07073 0.89743 0.05315 0.0
C2171 C 0.05775 0.91079 0.06451 0.0
C2172 C 0.04723 0.90259 0.08318 0.0
C2173 C 0.04969 0.88218 0.09029 0.0
C2174 C 0.03153 0.96021 0.05085 0.0
C2175 C 0.04929 0.97523 0.04405 0.0
C2176 C 0.03428 0.93965 0.05723 0.0
C2177 C 0.05493 0.93294 0.05705 0.0
C2178 C 0.07273 0.94787 0.05008 0.0
C2179 C 0.07001 0.96865 0.04389 0.0
H2180 H 0.92195 0.27234 0.9213 0.0
H2181 H 0.95004 0.26557 0.85632 0.0
H2182 H 0.88582 0.27393 0.89906 0.0
H2183 H 0.91452 0.26677 0.83439 0.0
H2184 H 0.86174 0.3004 0.80445 0.0
H2185 H 0.89461 0.29544 0.82862 0.0
H2186 H 0.85246 0.25551 0.86932 0.0
H2187 H 0.81914 0.26039 0.84478 0.0
C2188 C 0.92029 0.27057 0.90231 0.0
C2189 C 0.93902 0.26894 0.89066 0.0
C2190 C 0.8996 0.27161 0.88951 0.0
C2191 C 0.89725 0.27106 0.86483 0.0
C2192 C 0.91567 0.26797 0.85333 0.0
C2193 C 0.9361 0.26702 0.86597 0.0
C2194 C 0.85927 0.29035 0.81835 0.0
C2195 C 0.83752 0.28054 0.82221 0.0
C2196 C 0.87829 0.28747 0.83233 0.0
C2197 C 0.87642 0.27474 0.85087 0.0
C2198 C 0.85469 0.26542 0.85528 0.0
C2199 C 0.83553 0.26819 0.84109 0.0
H2200 H 0.53688 0.20934 0.61108 0.0
H2201 H 0.57687 0.22638 0.55657 0.0
H2202 H 0.5327 0.17045 0.59707 0.0
H2203 H 0.57218 0.18672 0.5417 0.0
H2204 H 0.57873 0.11249 0.53759 0.0
H2205 H 0.5823 0.15239 0.54813 0.0
H2206 H 0.51645 0.14027 0.56994 0.0
H2207 H 0.51349 0.10088 0.56063 0.0
C2208 C 0.54439 0.20477 0.59561 0.0
C2209 C 0.55701 0.22131 0.58492 0.0
C2210 C 0.54191 0.18218 0.5874 0.0
C2211 C 0.55198 0.17483 0.568 0.0
C2212 C 0.56424 0.1914 0.55679 0.0
C2213 C 0.56665 0.21429 0.56506 0.0
C2214 C 0.56515 0.1183 0.54495 0.0
C2215 C 0.54605 0.10298 0.54867 0.0
C2216 C 0.56706 0.1414 0.55076 0.0
C2217 C 0.54982 0.15011 0.5603 0.0
C2218 C 0.53052 0.13469 0.56336 0.0
C2219 C 0.52875 0.11175 0.55784 0.0
H2220 H 0.55446 0.79892 0.39324 0.0
H2221 H 0.58106 0.74901 0.42534 0.0
H2222 H 0.58678 0.80597 0.37207 0.0
H2223 H 0.61284 0.75483 0.40302 0.0
H2224 H 0.67953 0.79036 0.38234 0.0
H2225 H 0.64615 0.77916 0.40095 0.0
H2226 H 0.6053 0.79374 0.34161 0.0
H2227 H 0.6391 0.80553 0.32352 0.0
C2228 C 0.56715 0.78924 0.39548 0.0
C2229 C 0.5654 0.77353 0.41101 0.0
C2230 C 0.58564 0.7931 0.38315 0.0
C2231 C 0.60261 0.78094 0.38559 0.0
C2232 C 0.60048 0.76489 0.40093 0.0
C2233 C 0.58224 0.76145 0.4137 0.0
C2234 C 0.66331 0.79068 0.37313 0.0
C2235 C 0.66181 0.79857 0.35145 0.0
C2236 C 0.64408 0.78423 0.38375 0.0
C2237 C 0.6228 0.78565 0.37301 0.0
C2238 C 0.62132 0.79274 0.35072 0.0
C2239 C 0.64062 0.79917 0.3401 0.0
H2240 H 0.07593 0.26378 0.42502 0.0
H2241 H 0.01384 0.23478 0.38006 0.0
H2242 H 0.07191 0.23137 0.44523 0.0
H2243 H 0.00889 0.20302 0.40111 0.0
H2244 H 0.00755 0.14167 0.43295 0.0
H2245 H 0.01906 0.17072 0.40921 0.0
H2246 H 0.05245 0.21438 0.47227 0.0
H2247 H 0.04172 0.18485 0.49545 0.0
C2248 C 0.0613 0.25051 0.4196 0.0
C2249 C 0.04518 0.25185 0.40099 0.0
C2250 C 0.0589 0.23191 0.43127 0.0
C2251 C 0.04002 0.21434 0.42501 0.0
C2252 C 0.02395 0.21579 0.40624 0.0
C2253 C 0.02664 0.23416 0.39424 0.0
C2254 C 0.01817 0.15722 0.44145 0.0
C2255 C 0.02413 0.16096 0.46591 0.0
C2256 C 0.0244 0.17409 0.42797 0.0
C2257 C 0.0364 0.19526 0.43872 0.0
C2258 C 0.04346 0.1984 0.46313 0.0
C2259 C 0.03739 0.18144 0.47653 0.0
H2260 H 0.59321 0.25864 0.25714 0.0
H2261 H 0.60711 0.2708 0.18787 0.0
H2262 H 0.63355 0.26349 0.2699 0.0
H2263 H 0.64686 0.27499 0.20014 0.0
H2264 H 0.71934 0.30064 0.23077 0.0
H2265 H 0.67932 0.2969 0.22056 0.0
H2266 H 0.66685 0.24997 0.26925 0.0
H2267 H 0.70715 0.25504 0.28062 0.0
C2268 C 0.60479 0.26237 0.2446 0.0
C2269 C 0.59657 0.26438 0.22142 0.0
C2270 C 0.62808 0.26499 0.25187 0.0
C2271 C 0.64405 0.26982 0.23624 0.0
C2272 C 0.63562 0.27178 0.21309 0.0
C2273 C 0.6125 0.26916 0.2059 0.0
C2274 C 0.7082 0.28951 0.23941 0.0
C2275 C 0.717 0.2779 0.25636 0.0
C2276 C 0.68492 0.28715 0.23333 0.0
C2277 C 0.66921 0.27281 0.24366 0.0
C2278 C 0.678 0.2613 0.2608 0.0
C2279 C 0.70139 0.26392 0.26712 0.0
H2280 H 0.5401 0.90178 0.87703 0.0
H2281 H 0.56012 0.86939 0.93513 0.0
H2282 H 0.53687 0.9335 0.90438 0.0
H2283 H 0.55672 0.90123 0.96269 0.0
H2284 H 0.5694 0.97216 0.00429 0.0
H2285 H 0.57297 0.93962 0.97775 0.0
H2286 H 0.51419 0.9451 0.93257 0.0
H2287 H 0.51088 0.97751 0.95912 0.0
C2288 C 0.54394 0.90143 0.89567 0.0
C2289 C 0.55048 0.88292 0.90374 0.0
C2290 C 0.54186 0.91963 0.91146 0.0
C2291 C 0.54643 0.9201 0.93592 0.0
C2292 C 0.55323 0.90168 0.94404 0.0
C2293 C 0.55508 0.88331 0.92819 0.0
C2294 C 0.55731 0.96634 0.98864 0.0
C2295 C 0.54027 0.97776 0.9834 0.0
C2296 C 0.55925 0.94761 0.97345 0.0
C2297 C 0.54405 0.9397 0.95269 0.0
C2298 C 0.52662 0.95092 0.94793 0.0
C2299 C 0.52475 0.96962 0.9631 0.0
H2300 H 0.94815 0.7266 0.7485 0.0
H2301 H 0.95324 0.78381 0.71276 0.0
H2302 H 0.91178 0.73134 0.75895 0.0
H2303 H 0.91666 0.7885 0.72296 0.0
H2304 H 0.85997 0.80417 0.76247 0.0
H2305 H 0.89603 0.79916 0.75247 0.0
H2306 H 0.87307 0.72844 0.74666 0.0
H2307 H 0.837 0.73376 0.75809 0.0
C2308 C 0.94158 0.74028 0.74286 0.0
C2309 C 0.954 0.75484 0.72978 0.0
C2310 C 0.92041 0.7429 0.74871 0.0
C2311 C 0.91075 0.76032 0.74192 0.0
C2312 C 0.92329 0.77498 0.72891 0.0
C2313 C 0.94441 0.77223 0.72288 0.0
C2314 C 0.86254 0.78753 0.7596 0.0
C2315 C 0.8453 0.76953 0.76188 0.0
C2316 C 0.88341 0.78457 0.75334 0.0
C2317 C 0.88803 0.76333 0.74862 0.0
C2318 C 0.87067 0.74516 0.75052 0.0
C2319 C 0.84974 0.7482 0.75702 0.0
H2320 H 0.11408 0.02318 0.85844 0.0
H2321 H 0.09017 0.08398 0.86413 0.0
H2322 H 0.10318 0.01695 0.89701 0.0
H2323 H 0.08023 0.07833 0.90276 0.0
H2324 H 0.0382 0.05021 0.95424 0.0
H2325 H 0.05174 0.05467 0.91729 0.0
H2326 H 0.10972 0.02911 0.93976 0.0
H2327 H 0.09532 0.02353 0.9772 0.0
C2328 C 0.10673 0.03533 0.86803 0.0
C2329 C 0.10266 0.05391 0.85805 0.0
C2330 C 0.10062 0.03182 0.8902 0.0
C2331 C 0.09052 0.04695 0.90293 0.0
C2332 C 0.08738 0.06597 0.89325 0.0
C2333 C 0.09316 0.06929 0.87107 0.0
C2334 C 0.05377 0.04526 0.95147 0.0
C2335 C 0.06564 0.03642 0.96886 0.0
C2336 C 0.06171 0.04813 0.9302 0.0
C2337 C 0.08207 0.04267 0.92557 0.0
C2338 C 0.09395 0.03349 0.94273 0.0
C2339 C 0.0858 0.03041 0.96421 0.0
H2340 H 0.76778 0.40541 0.57882 0.0
H2341 H 0.82126 0.38538 0.54484 0.0
H2342 H 0.77463 0.38292 0.60975 0.0
H2343 H 0.82907 0.36427 0.57601 0.0
H2344 H 0.83182 0.3161 0.6248 0.0
H2345 H 0.81586 0.3323 0.59248 0.0
H2346 H 0.80248 0.38412 0.64221 0.0
H2347 H 0.81785 0.36753 0.67442 0.0
C2348 C 0.78094 0.39616 0.57805 0.0
C2349 C 0.79387 0.3968 0.55951 0.0
C2350 C 0.78494 0.3834 0.59569 0.0
C2351 C 0.80227 0.37163 0.59523 0.0
C2352 C 0.81512 0.37248 0.57656 0.0
C2353 C 0.81078 0.38471 0.55877 0.0
C2354 C 0.82533 0.33087 0.62874 0.0
C2355 C 0.82641 0.34079 0.65201 0.0
C2356 C 0.81618 0.34015 0.6103 0.0
C2357 C 0.80826 0.35972 0.61477 0.0
C2358 C 0.80827 0.36897 0.63814 0.0
C2359 C 0.81721 0.35954 0.6566 0.0
H2360 H 0.40919 0.99796 0.38033 0.0
H2361 H 0.44767 0.06248 0.37462 0.0
H2362 H 0.4273 1.00121 0.42094 0.0
H2363 H 0.46532 0.06601 0.41532 0.0
H2364 H 0.50771 0.00934 0.45276 0.0
H2365 H 0.4757 0.00657 0.42282 0.0
H2366 H 0.45574 0.06038 0.46351 0.0
H2367 H 0.48781 0.06288 0.49389 0.0
C2368 C 0.42089 0.01311 0.38817 0.0
C2369 C 0.42744 0.0299 0.37474 0.0
C2370 C 0.43101 0.01504 0.41127 0.0
C2371 C 0.4474 0.0339 0.42099 0.0
C2372 C 0.45237 0.05153 0.40815 0.0
C2373 C 0.44254 0.04944 0.38496 0.0
C2374 C 0.49608 0.02011 0.45554 0.0
C2375 C 0.49966 0.03603 0.47554 0.0
C2376 C 0.47776 0.0184 0.43866 0.0
C2377 C 0.46324 0.03299 0.44134 0.0
C2378 C 0.46658 0.04871 0.46155 0.0
C2379 C 0.48473 0.05009 0.47877 0.0
H2380 H 0.77145 0.73933 0.07952 0.0
H2381 H 0.7671 0.67876 0.10965 0.0
H2382 H 0.77704 0.76037 0.1193 0.0
H2383 H 0.77241 0.69942 0.14871 0.0
H2384 H 0.8018 0.74055 0.21665 0.0
H2385 H 0.80114 0.72499 0.176 0.0
H2386 H 0.75581 0.76564 0.1537 0.0
H2387 H 0.75726 0.78206 0.19459 0.0
C2388 C 0.77185 0.73055 0.09456 0.0
C2389 C 0.76876 0.70736 0.09139 0.0
C2390 C 0.77489 0.74256 0.1173 0.0
C2391 C 0.77529 0.7316 0.13723 0.0
C2392 C 0.77255 0.70848 0.13387 0.0
C2393 C 0.7693 0.69658 0.11136 0.0
C2394 C 0.79172 0.7463 0.20315 0.0
C2395 C 0.77897 0.76206 0.20904 0.0
C2396 C 0.79133 0.73733 0.17978 0.0
C2397 C 0.77804 0.74369 0.16158 0.0
C2398 C 0.7662 0.76033 0.16728 0.0
C2399 C 0.76679 0.76954 0.19077 0.0
H2400 H 0.07231 0.04397 0.72472 0.0
H2401 H 0.13631 0.04227 0.70099 0.0
H2402 H 0.05536 0.04197 0.68401 0.0
H2403 H 0.11966 0.04071 0.66065 0.0
H2404 H 0.08103 0.01718 0.58881 0.0
H2405 H 0.09492 0.01689 0.62964 0.0
H2406 H 0.05435 0.06291 0.65147 0.0
H2407 H 0.03949 0.06224 0.61047 0.0
C2408 C 0.08273 0.04307 0.71082 0.0
C2409 C 0.10564 0.04321 0.71611 0.0
C2410 C 0.07307 0.04212 0.68749 0.0
C2411 C 0.08608 0.0411 0.66892 0.0
C2412 C 0.10897 0.04111 0.67435 0.0
C2413 C 0.1186 0.04217 0.69757 0.0
C2414 C 0.07504 0.02729 0.60227 0.0
C2415 C 0.0595 0.04016 0.59622 0.0
C2416 C 0.08312 0.02719 0.62576 0.0
C2417 C 0.07611 0.04017 0.64397 0.0
C2418 C 0.06009 0.05263 0.63798 0.0
C2419 C 0.05175 0.05247 0.61439 0.0
H2420 H 0.82091 0.42362 0.41309 0.0
H2421 H 0.76824 0.38564 0.4446 0.0
H2422 H 0.81695 0.39228 0.38158 0.0
H2423 H 0.76383 0.3548 0.41279 0.0
H2424 H 0.75274 0.33138 0.32581 0.0
H2425 H 0.7558 0.35917 0.36038 0.0
H2426 H 0.81811 0.34382 0.388 0.0
H2427 H 0.81493 0.31563 0.35381 0.0
C2428 C 0.80851 0.40862 0.4131 0.0
C2429 C 0.79492 0.40669 0.43097 0.0
C2430 C 0.80634 0.39086 0.39537 0.0
C2431 C 0.79021 0.3715 0.39529 0.0
C2432 C 0.77643 0.3697 0.41293 0.0
C2433 C 0.77897 0.38718 0.43092 0.0
C2434 C 0.76683 0.33371 0.33951 0.0
C2435 C 0.78365 0.32165 0.33734 0.0
C2436 C 0.76854 0.34947 0.35908 0.0
C2437 C 0.78726 0.35341 0.37627 0.0
C2438 C 0.80364 0.34082 0.37464 0.0
C2439 C 0.8017 0.32472 0.35532 0.0
H2440 H 0.38285 0.00865 0.22009 0.0
H2441 H 0.44081 0.05701 0.25539 0.0
H2442 H 0.4041 0.99901 0.18871 0.0
H2443 H 0.46186 0.04813 0.22347 0.0
H2444 H 0.50006 1.00159 0.18599 0.0
H2445 H 0.47764 0.01698 0.21308 0.0
H2446 H 0.42331 0.00874 0.15648 0.0
H2447 H 0.44533 0.99209 0.12965 0.0
C2448 C 0.39992 0.01772 0.22072 0.0
C2449 C 0.41033 0.03338 0.24023 0.0
C2450 C 0.41211 0.01225 0.20272 0.0
C2451 C 0.4348 0.02255 0.20381 0.0
C2452 C 0.44459 0.03949 0.22245 0.0
C2453 C 0.43251 0.04471 0.2406 0.0
C2454 C 0.48324 1.00281 0.1794 0.0
C2455 C 0.47438 0.99541 0.15578 0.0
C2456 C 0.47053 0.01204 0.19481 0.0
C2457 C 0.44872 0.01423 0.1869 0.0
C2458 C 0.43998 0.00713 0.16316 0.0
C2459 C 0.45266 0.99775 0.14777 0.0
H2460 H 0.76943 0.74527 0.96002 0.0
H2461 H 0.78268 0.68385 0.92781 0.0
H2462 H 0.77455 0.76088 0.9238 0.0
H2463 H 0.7869 0.69899 0.89141 0.0
H2464 H 0.81035 0.73701 0.83345 0.0
H2465 H 0.80894 0.72348 0.87138 0.0
H2466 H 0.757 0.75914 0.88556 0.0
H2467 H 0.7595 0.77347 0.84846 0.0
C2468 C 0.77348 0.73512 0.94522 0.0
C2469 C 0.77564 0.71333 0.94684 0.0
C2470 C 0.77622 0.74398 0.92432 0.0
C2471 C 0.78107 0.73122 0.90446 0.0
C2472 C 0.78353 0.70951 0.90631 0.0
C2473 C 0.78091 0.70072 0.9272 0.0
C2474 C 0.79871 0.74189 0.8448 0.0
C2475 C 0.78511 0.75627 0.83813 0.0
C2476 C 0.79778 0.73411 0.86649 0.0
C2477 C 0.78284 0.74018 0.88172 0.0
C2478 C 0.7691 0.75447 0.87473 0.0
C2479 C 0.77039 0.76257 0.85334 0.0
H2480 H 0.84004 0.12471 0.05994 0.0
H2481 H 0.81556 0.06246 0.08408 0.0
H2482 H 0.87238 0.11161 0.04854 0.0
H2483 H 0.84851 0.04948 0.07296 0.0
H2484 H 0.92821 0.0819 0.02695 0.0
H2485 H 0.90657 0.09554 0.05646 0.0
H2486 H 0.85048 0.04152 0.02897 0.0
H2487 H 0.87219 0.02785 -0.00024 0.0
C2488 C 0.842 0.10851 0.06364 0.0
C2489 C 0.82496 0.09421 0.07206 0.0
C2490 C 0.86069 0.10114 0.05735 0.0
C2491 C 0.86255 0.07942 0.0595 0.0
C2492 C 0.84709 0.06621 0.07089 0.0
C2493 C 0.82831 0.07362 0.07723 0.0
C2494 C 0.91128 0.07296 0.02744 0.0
C2495 C 0.90151 0.05414 0.011 0.0
C2496 C 0.89909 0.08059 0.04437 0.0
C2497 C 0.8771 0.06934 0.04512 0.0
C2498 C 0.86763 0.05016 0.02906 0.0
C2499 C 0.87975 0.04265 0.01204 0.0
H2500 H 0.37003 0.42762 0.00423 0.0
H2501 H 0.37575 0.44186 0.07971 0.0
H2502 H 0.40836 0.4481 0.00529 0.0
H2503 H 0.41432 0.46298 0.08087 0.0
H2504 H 0.49004 0.48542 0.06848 0.0
H2505 H 0.45404 0.46106 0.07102 0.0
H2506 H 0.42262 0.48898 0.01488 0.0
H2507 H 0.45827 0.5131 0.01228 0.0
C2508 C 0.3798 0.43476 0.0211 0.0
C2509 C 0.37018 0.43322 0.04189 0.0
C2510 C 0.40159 0.44664 0.02171 0.0
C2511 C 0.41409 0.45748 0.04311 0.0
C2512 C 0.40501 0.45472 0.06415 0.0
C2513 C 0.38308 0.44262 0.06354 0.0
C2514 C 0.47535 0.48641 0.05683 0.0
C2515 C 0.47693 0.50112 0.04016 0.0
C2516 C 0.45482 0.47254 0.05834 0.0
C2517 C 0.43567 0.47295 0.04293 0.0
C2518 C 0.43721 0.48807 0.02672 0.0
C2519 C 0.45758 0.50205 0.0254 0.0
H2520 H 0.41459 0.59262 0.74861 0.0
H2521 H 0.36634 0.55335 0.78399 0.0
H2522 H 0.39408 0.62234 0.75171 0.0
H2523 H 0.34665 0.5835 0.78873 0.0
H2524 H 0.30772 0.63544 0.78807 0.0
H2525 H 0.32389 0.60486 0.77233 0.0
H2526 H 0.38862 0.64966 0.77979 0.0
H2527 H 0.37193 0.68006 0.79428 0.0
C2528 C 0.39964 0.59048 0.7572 0.0
C2529 C 0.39206 0.57083 0.76619 0.0
C2530 C 0.3879 0.60751 0.75907 0.0
C2531 C 0.36868 0.60549 0.77056 0.0
C2532 C 0.36102 0.58558 0.77926 0.0
C2533 C 0.37243 0.56834 0.77681 0.0
C2534 C 0.32518 0.63871 0.78538 0.0
C2535 C 0.33866 0.65991 0.79215 0.0
C2536 C 0.33458 0.6212 0.77677 0.0
C2537 C 0.35772 0.62459 0.77522 0.0
C2538 C 0.37075 0.6463 0.78049 0.0
C2539 C 0.36126 0.66379 0.78884 0.0
H2540 H 0.21104 0.56886 0.5164 0.0
H2541 H 0.19323 0.62694 0.55149 0.0
H2542 H 0.17138 0.55071 0.50786 0.0
H2543 H 0.15416 0.6087 0.54403 0.0
H2544 H 0.08513 0.57998 0.52116 0.0
H2545 H 0.12298 0.59549 0.51485 0.0
H2546 H 0.1432 0.53564 0.53075 0.0
H2547 H 0.10457 0.51923 0.53447 0.0
C2548 C 0.19864 0.5777 0.52221 0.0
C2549 C 0.20506 0.59918 0.53464 0.0
C2550 C 0.17604 0.56736 0.51737 0.0
C2551 C 0.15971 0.57835 0.52512 0.0
C2552 C 0.16627 0.59999 0.53723 0.0
C2553 C 0.1887 0.61037 0.54177 0.0
C2554 C 0.09736 0.56969 0.52197 0.0
C2555 C 0.09194 0.54832 0.52783 0.0
C2556 C 0.11915 0.57873 0.51885 0.0
C2557 C 0.13608 0.56689 0.52267 0.0
C2558 C 0.13044 0.54505 0.52741 0.0
C2559 C 0.10842 0.53576 0.52982 0.0
H2560 H 0.75205 0.01228 0.76193 0.0
H2561 H 0.69524 0.96674 0.72029 0.0
H2562 H 0.76537 0.98147 0.7761 0.0
H2563 H 0.70898 0.93574 0.73378 0.0
H2564 H 0.71441 0.899 0.79794 0.0
H2565 H 0.7071 0.92655 0.77332 0.0
H2566 H 0.77821 0.94753 0.77101 0.0
H2567 H 0.78557 0.92127 0.79703 0.0
C2568 C 0.74301 0.99561 0.75501 0.0
C2569 C 0.72241 0.99172 0.74062 0.0
C2570 C 0.75061 0.97795 0.76307 0.0
C2571 C 0.73776 0.95634 0.75651 0.0
C2572 C 0.71876 0.95235 0.73959 0.0
C2573 C 0.71102 0.97001 0.73179 0.0
C2574 C 0.72841 0.90982 0.79252 0.0
C2575 C 0.75047 0.90817 0.79943 0.0
C2576 C 0.72427 0.92516 0.77797 0.0
C2577 C 0.74214 0.93884 0.76998 0.0
C2578 C 0.76418 0.93717 0.77693 0.0
C2579 C 0.76833 0.92215 0.79177 0.0
H2580 H 0.71767 0.89144 0.5487 0.0
H2581 H 0.76689 0.94731 0.53646 0.0
H2582 H 0.68835 0.91263 0.54327 0.0
H2583 H 0.7379 0.96782 0.52981 0.0
H2584 H 0.68773 0.00837 0.53586 0.0
H2585 H 0.7139 0.98627 0.54922 0.0
H2586 H 0.66812 0.92686 0.51316 0.0
H2587 H 0.64154 0.94922 0.50098 0.0
C2588 C 0.72214 0.90816 0.54473 0.0
C2589 C 0.74448 0.91778 0.54308 0.0
C2590 C 0.70542 0.92026 0.54156 0.0
C2591 C 0.71081 0.94201 0.53636 0.0
C2592 C 0.73319 0.95139 0.53451 0.0
C2593 C 0.74983 0.93952 0.53809 0.0
C2594 C 0.68324 0.99054 0.53129 0.0
C2595 C 0.66299 0.98031 0.51737 0.0
C2596 C 0.69819 0.97788 0.5387 0.0
C2597 C 0.6933 0.95482 0.53183 0.0
C2598 C 0.67237 0.94454 0.51885 0.0
C2599 C 0.65724 0.95725 0.51174 0.0
H2600 H 0.41903 0.42228 0.76002 0.0
H2601 H 0.36619 0.45892 0.75837 0.0
H2602 H 0.39192 0.38875 0.7623 0.0
H2603 H 0.33884 0.42505 0.75994 0.0
H2604 H 0.30218 0.36376 0.78979 0.0
H2605 H 0.32733 0.39847 0.78615 0.0
H2606 H 0.36167 0.36288 0.73826 0.0
H2607 H 0.33696 0.3284 0.74214 0.0
C2608 C 0.40157 0.42315 0.75987 0.0
C2609 C 0.39479 0.44328 0.75889 0.0
C2610 C 0.38598 0.40387 0.76107 0.0
C2611 C 0.36315 0.40416 0.7611 0.0
C2612 C 0.35632 0.4243 0.76016 0.0
C2613 C 0.37198 0.44367 0.75911 0.0
C2614 C 0.31489 0.36343 0.77823 0.0
C2615 C 0.31762 0.34331 0.76635 0.0
C2616 C 0.32931 0.38331 0.77614 0.0
C2617 C 0.3467 0.38343 0.76213 0.0
C2618 C 0.3488 0.36336 0.7496 0.0
C2619 C 0.33448 0.34358 0.75171 0.0
H2620 H 0.23919 0.61485 0.24592 0.0
H2621 H 0.18609 0.62974 0.28411 0.0
H2622 H 0.25991 0.65275 0.25691 0.0
H2623 H 0.20751 0.66742 0.2968 0.0
H2624 H 0.23201 0.73568 0.27436 0.0
H2625 H 0.21493 0.69812 0.27782 0.0
H2626 H 0.28044 0.68176 0.28491 0.0
H2627 H 0.29739 0.71957 0.2801 0.0
C2628 C 0.23228 0.62624 0.25716 0.0
C2629 C 0.21103 0.61976 0.2639 0.0
C2630 C 0.24425 0.64785 0.26378 0.0
C2631 C 0.23538 0.66315 0.27779 0.0
C2632 C 0.2146 0.65615 0.28563 0.0
C2633 C 0.20234 0.63468 0.2784 0.0
C2634 C 0.24279 0.72419 0.27735 0.0
C2635 C 0.26588 0.7302 0.27674 0.0
C2636 C 0.23303 0.70263 0.27949 0.0
C2637 C 0.24629 0.68681 0.28131 0.0
C2638 C 0.26973 0.69347 0.28292 0.0
C2639 C 0.27946 0.71503 0.28031 0.0
H2640 H 0.52544 0.71661 0.51019 0.0
H2641 H 0.48572 0.68141 0.44599 0.0
H2642 H 0.52958 0.68149 0.52301 0.0
H2643 H 0.49019 0.64633 0.45839 0.0
H2644 H 0.48775 0.58322 0.4925 0.0
H2645 H 0.48184 0.61841 0.48134 0.0
H2646 H 0.54624 0.65128 0.51994 0.0
H2647 H 0.55137 0.61651 0.53185 0.0
C2648 C 0.51743 0.7014 0.49879 0.0
C2649 C 0.50505 0.70223 0.47701 0.0
C2650 C 0.52001 0.681 0.50606 0.0
C2651 C 0.5103 0.66043 0.49191 0.0
C2652 C 0.49775 0.66138 0.47022 0.0
C2653 C 0.49524 0.68175 0.46295 0.0
C2654 C 0.50064 0.59794 0.49879 0.0
C2655 C 0.52026 0.59649 0.51314 0.0
C2656 C 0.49734 0.61836 0.49213 0.0
C2657 C 0.51352 0.63833 0.49945 0.0
C2658 C 0.53302 0.63679 0.51396 0.0
C2659 C 0.5362 0.61644 0.52068 0.0
H2660 H 0.6566 0.31129 0.62878 0.0
H2661 H 0.61497 0.30312 0.68393 0.0
H2662 H 0.68889 0.30776 0.65565 0.0
H2663 H 0.64711 0.30007 0.71085 0.0
H2664 H 0.70358 0.27363 0.74771 0.0
H2665 H 0.67178 0.27696 0.72047 0.0
H2666 H 0.7153 0.32514 0.68907 0.0
H2667 H 0.74721 0.32161 0.71631 0.0
C2668 C 0.65433 0.30884 0.64665 0.0
C2669 C 0.63308 0.30754 0.65408 0.0
C2670 C 0.67293 0.30695 0.6622 0.0
C2671 C 0.67086 0.30359 0.68564 0.0
C2672 C 0.64954 0.3023 0.69296 0.0
C2673 C 0.63102 0.30425 0.67748 0.0
C2674 C 0.7064 0.28519 0.73525 0.0
C2675 C 0.7281 0.29753 0.73454 0.0
C2676 C 0.68804 0.2871 0.71949 0.0
C2677 C 0.69068 0.30142 0.7024 0.0
C2678 C 0.71244 0.31372 0.70166 0.0
C2679 C 0.73081 0.31181 0.71747 0.0
H2680 H 0.05235 0.35772 0.9728 0.0
H2681 H 0.98212 0.34395 0.97985 0.0
H2682 H 0.05522 0.39667 0.98693 0.0
H2683 H 0.98451 0.38339 0.99307 0.0
H2684 H 0.99921 0.45659 0.029 0.0
H2685 H 0.9958 0.41672 0.01968 0.0
H2686 H 0.04737 0.42826 0.9747 0.0
H2687 H 0.05044 0.46771 0.98394 0.0
C2688 C 0.03753 0.36298 0.97787 0.0
C2689 C 0.01713 0.34743 0.97561 0.0
C2690 C 0.03904 0.38558 0.98558 0.0
C2691 C 0.02002 0.39383 0.9908 0.0
C2692 C 0.99969 0.37806 0.98947 0.0
C2693 C 0.99828 0.35524 0.98201 0.0
C2694 C 0.00955 0.45069 0.01683 0.0
C2695 C 0.025 0.46588 0.00719 0.0
C2696 C 0.00769 0.42757 0.0115 0.0
C2697 C 0.02143 0.41867 0.9965 0.0
C2698 C 0.03673 0.43395 0.98676 0.0
C2699 C 0.03844 0.45692 0.99198 0.0
H2700 H 0.02324 0.81867 0.18535 0.0
H2701 H 0.98681 0.77206 0.12625 0.0
H2702 H 0.98896 0.81761 0.20327 0.0
H2703 H 0.95248 0.7699 0.14458 0.0
H2704 H 0.89117 0.77087 0.17952 0.0
H2705 H 0.92263 0.78418 0.15854 0.0
H2706 H 0.96801 0.7923 0.22303 0.0
H2707 H 0.93649 0.77981 0.24371 0.0
C2708 C 0.00767 0.80856 0.17597 0.0
C2709 C 0.00755 0.79563 0.15435 0.0
C2710 C 0.98804 0.80769 0.18636 0.0
C2711 C 0.96784 0.79337 0.17569 0.0
C2712 C 0.96754 0.78134 0.15331 0.0
C2713 C 0.9872 0.78252 0.14272 0.0
C2714 C 0.90781 0.77646 0.18926 0.0
C2715 C 0.91143 0.77478 0.21329 0.0
C2716 C 0.92592 0.78371 0.17721 0.0
C2717 C 0.94806 0.7892 0.18891 0.0
C2718 C 0.95133 0.78866 0.21333 0.0
C2719 C 0.93324 0.78154 0.22532 0.0
H2720 H 0.50133 0.30256 0.1277 0.0
H2721 H 0.55665 0.33693 0.17973 0.0
H2722 H 0.50454 0.33495 0.1075 0.0
H2723 H 0.56111 0.36878 0.15881 0.0
H2724 H 0.56132 0.42893 0.12494 0.0
H2725 H 0.54939 0.39929 0.14785 0.0
H2726 H 0.52549 0.35403 0.08326 0.0
H2727 H 0.53644 0.38405 0.06084 0.0
C2728 C 0.51431 0.31704 0.1347 0.0
C2729 C 0.52876 0.31718 0.15527 0.0
C2730 C 0.51629 0.33565 0.12304 0.0
C2731 C 0.53319 0.35474 0.13127 0.0
C2732 C 0.54753 0.35479 0.15204 0.0
C2733 C 0.54515 0.33638 0.16401 0.0
C2734 C 0.5526 0.41282 0.11581 0.0
C2735 C 0.54938 0.40881 0.09118 0.0
C2736 C 0.54618 0.39563 0.12888 0.0
C2737 C 0.53677 0.3739 0.11759 0.0
C2738 C 0.53239 0.37039 0.09283 0.0
C2739 C 0.5386 0.38764 0.07984 0.0
H2740 H 0.96818 0.29371 0.35425 0.0
H2741 H 0.97661 0.32422 0.29184 0.0
H2742 H 0.92753 0.28857 0.34514 0.0
H2743 H 0.93647 0.32018 0.28328 0.0
H2744 H 0.86201 0.29678 0.26078 0.0
H2745 H 0.90211 0.29968 0.26977 0.0
H2746 H 0.89551 0.30226 0.34368 0.0
H2747 H 0.85501 0.2978 0.33416 0.0
C2748 C 0.96142 0.2993 0.33854 0.0
C2749 C 0.97598 0.3093 0.32379 0.0
C2750 C 0.93791 0.29659 0.33337 0.0
C2751 C 0.92805 0.30388 0.3133 0.0
C2752 C 0.9428 0.3138 0.29862 0.0
C2753 C 0.96616 0.31634 0.30369 0.0
C2754 C 0.86912 0.29793 0.27897 0.0
C2755 C 0.8551 0.29691 0.29667 0.0
C2756 C 0.89239 0.2998 0.28428 0.0
C2757 C 0.90276 0.30134 0.30764 0.0
C2758 C 0.88859 0.30065 0.3254 0.0
C2759 C 0.86519 0.29824 0.31998 0.0
H2760 H 0.01915 0.70127 0.61892 0.0
H2761 H 0.01152 0.66086 0.6743 0.0
H2762 H 0.01996 0.6686 0.59129 0.0
H2763 H 0.01295 0.62849 0.64705 0.0
H2764 H 0.99824 0.56966 0.58886 0.0
H2765 H 0.9943 0.60221 0.61477 0.0
H2766 H 0.04282 0.6434 0.5812 0.0
H2767 H 0.04643 0.61101 0.55521 0.0
C2768 C 0.01755 0.68543 0.62521 0.0
C2769 C 0.01523 0.68381 0.64892 0.0
C2770 C 0.01822 0.66665 0.60938 0.0
C2771 C 0.01658 0.64569 0.61679 0.0
C2772 C 0.01393 0.64412 0.64044 0.0
C2773 C 0.01326 0.66284 0.6562 0.0
C2774 C 0.008 0.58569 0.58696 0.0
C2775 C 0.0225 0.58762 0.56974 0.0
C2776 C 0.00584 0.60442 0.60194 0.0
C2777 C 0.0182 0.62568 0.60022 0.0
C2778 C 0.03264 0.62753 0.58288 0.0
C2779 C 0.03474 0.60883 0.56791 0.0
H2780 H 0.60351 0.80441 0.79755 0.0
H2781 H 0.63373 0.80962 0.86923 0.0
H2782 H 0.63878 0.79942 0.78389 0.0
H2783 H 0.66844 0.80357 0.85589 0.0
H2784 H 0.73593 0.8097 0.83002 0.0
H2785 H 0.70079 0.81569 0.84211 0.0
H2786 H 0.66557 0.7798 0.77576 0.0
H2787 H 0.70127 0.7757 0.76301 0.0
C2788 C 0.61761 0.80436 0.81047 0.0
C2789 C 0.61548 0.80762 0.83461 0.0
C2790 C 0.63805 0.8013 0.8026 0.0
C2791 C 0.65722 0.80113 0.81853 0.0
C2792 C 0.65477 0.80409 0.84269 0.0
C2793 C 0.63451 0.80741 0.8505 0.0
C2794 C 0.72077 0.80317 0.81782 0.0
C2795 C 0.72189 0.79188 0.79547 0.0
C2796 C 0.70022 0.80636 0.82497 0.0
C2797 C 0.67954 0.79804 0.81031 0.0
C2798 C 0.6807 0.78678 0.78783 0.0
C2799 C 0.70141 0.784 0.78052 0.0
H2800 H 0.49254 0.53449 0.71316 0.0
H2801 H 0.42699 0.51139 0.67269 0.0
H2802 H 0.50884 0.54012 0.67722 0.0
H2803 H 0.44339 0.51657 0.63657 0.0
H2804 H 0.47759 0.5478 0.5781 0.0
H2805 H 0.461 0.54441 0.61449 0.0
H2806 H 0.51698 0.51891 0.64306 0.0
H2807 H 0.53349 0.52242 0.60708 0.0
C2808 C 0.4816 0.53052 0.69656 0.0
C2809 C 0.45846 0.52242 0.69583 0.0
C2810 C 0.49097 0.53366 0.6759 0.0
C2811 C 0.47747 0.52877 0.6539 0.0
C2812 C 0.45427 0.52079 0.65319 0.0
C2813 C 0.44488 0.51765 0.67389 0.0
C2814 C 0.48638 0.5416 0.59223 0.0
C2815 C 0.507 0.53565 0.58971 0.0
C2816 C 0.47682 0.53952 0.61305 0.0
C2817 C 0.48766 0.53144 0.63182 0.0
C2818 C 0.50831 0.52557 0.62923 0.0
C2819 C 0.5178 0.52759 0.60849 0.0
H2820 H 0.76047 0.13804 0.9658 0.0
H2821 H 0.80642 0.19488 0.00619 0.0
H2822 H 0.75307 0.15974 0.93505 0.0
H2823 H 0.80042 0.21648 0.97449 0.0
H2824 H 0.75436 0.25463 0.93707 0.0
H2825 H 0.77043 0.23242 0.96307 0.0
H2826 H 0.76253 0.17961 0.90496 0.0
H2827 H 0.74456 0.20106 0.87955 0.0
C2828 C 0.76981 0.15495 0.96753 0.0
C2829 C 0.78387 0.16494 0.98831 0.0
C2830 C 0.76561 0.16745 0.94986 0.0
C2831 C 0.77586 0.19002 0.95246 0.0
C2832 C 0.79173 0.19932 0.97228 0.0
C2833 C 0.79541 0.18695 0.99028 0.0
C2834 C 0.75578 0.23816 0.92996 0.0
C2835 C 0.74796 0.22953 0.90635 0.0
C2836 C 0.76549 0.22558 0.94472 0.0
C2837 C 0.76792 0.20422 0.9361 0.0
C2838 C 0.76071 0.19588 0.91228 0.0
C2839 C 0.7506 0.20829 0.89764 0.0
H2840 H 0.17428 0.55973 0.16139 0.0
H2841 H 0.12736 0.5089 0.18602 0.0
H2842 H 0.14662 0.55897 0.12734 0.0
H2843 H 0.10002 0.50818 0.15202 0.0
H2844 H 0.07047 0.50236 0.07253 0.0
H2845 H 0.09932 0.50039 0.10426 0.0
H2846 H 0.10462 0.56946 0.12996 0.0
H2847 H 0.07504 0.57126 0.09855 0.0
C2848 C 0.1583 0.54814 0.15925 0.0
C2849 C 0.15271 0.53457 0.17628 0.0
C2850 C 0.14256 0.54784 0.14001 0.0
C2851 C 0.12143 0.53372 0.13761 0.0
C2852 C 0.11635 0.51916 0.15379 0.0
C2853 C 0.13192 0.51963 0.17311 0.0
C2854 C 0.07792 0.51709 0.08497 0.0
C2855 C 0.07117 0.53709 0.08322 0.0
C2856 C 0.09423 0.51593 0.10296 0.0
C2857 C 0.10419 0.53489 0.1189 0.0
C2858 C 0.09719 0.55482 0.1174 0.0
C2859 C 0.08035 0.55581 0.09977 0.0
H2860 H 0.79865 0.83032 0.47622 0.0
H2861 H 0.78571 0.8865 0.44417 0.0
H2862 H 0.79589 0.80916 0.43694 0.0
H2863 H 0.78365 0.86595 0.40572 0.0
H2864 H 0.75986 0.82168 0.33939 0.0
H2865 H 0.75955 0.83676 0.37988 0.0
H2866 H 0.81454 0.80655 0.4013 0.0
H2867 H 0.81355 0.79012 0.36045 0.0
C2868 C 0.7952 0.83814 0.4609 0.0
C2869 C 0.7923 0.86011 0.46346 0.0
C2870 C 0.79376 0.82607 0.43841 0.0
C2871 C 0.78928 0.83573 0.41809 0.0
C2872 C 0.78656 0.8577 0.42084 0.0
C2873 C 0.78795 0.86963 0.44308 0.0
C2874 C 0.77174 0.81812 0.3527 0.0
C2875 C 0.78709 0.80527 0.34648 0.0
C2876 C 0.77171 0.82686 0.376 0.0
C2877 C 0.78748 0.82346 0.3939 0.0
C2878 C 0.80221 0.80962 0.38798 0.0
C2879 C 0.80185 0.80042 0.36449 0.0
H2880 H 0.44195 0.51724 0.84627 0.0
H2881 H 0.51036 0.52273 0.83268 0.0
H2882 H 0.45418 0.52012 0.88831 0.0
H2883 H 0.5229 0.52701 0.8746 0.0
H2884 H 0.53772 0.51019 0.94717 0.0
H2885 H 0.52433 0.50737 0.90577 0.0
H2886 H 0.47236 0.54186 0.92311 0.0
H2887 H 0.48484 0.54315 0.96468 0.0
C2888 C 0.45968 0.51956 0.85235 0.0
C2889 C 0.47519 0.51965 0.83619 0.0
C2890 C 0.46676 0.52128 0.87651 0.0
C2891 C 0.48961 0.52358 0.88511 0.0
C2892 C 0.50513 0.52459 0.86882 0.0
C2893 C 0.49798 0.52238 0.84471 0.0
C2894 C 0.52318 0.5168 0.94224 0.0
C2895 C 0.5122 0.52656 0.95942 0.0
C2896 C 0.51567 0.51554 0.91832 0.0
C2897 C 0.49725 0.52452 0.91078 0.0
C2898 C 0.48635 0.53442 0.92803 0.0
C2899 C 0.49365 0.53533 0.95199 0.0
H2900 H 0.80363 0.17959 0.11699 0.0
H2901 H 0.73676 0.15591 0.13316 0.0
H2902 H 0.80943 0.2104 0.14893 0.0
H2903 H 0.74249 0.18704 0.16497 0.0
H2904 H 0.75461 0.26016 0.19881 0.0
H2905 H 0.75022 0.231 0.1652 0.0
H2906 H 0.81002 0.21205 0.19471 0.0
H2907 H 0.81448 0.24098 0.22813 0.0
C2908 C 0.79022 0.18109 0.12741 0.0
C2909 C 0.76973 0.16569 0.12279 0.0
C2910 C 0.79354 0.19857 0.14555 0.0
C2911 C 0.77624 0.20098 0.15889 0.0
C2912 C 0.75584 0.18545 0.1545 0.0
C2913 C 0.75267 0.16768 0.13661 0.0
C2914 C 0.76701 0.25003 0.19776 0.0
C2915 C 0.78479 0.25258 0.21586 0.0
C2916 C 0.76438 0.23334 0.17882 0.0
C2917 C 0.77972 0.21944 0.1778 0.0
C2918 C 0.79809 0.22273 0.1953 0.0
C2919 C 0.80058 0.23919 0.21432 0.0
H2920 H 0.17648 0.56725 0.3265 0.0
H2921 H 0.12361 0.51101 0.29736 0.0
H2922 H 0.15946 0.57082 0.36257 0.0
H2923 H 0.10703 0.51374 0.33381 0.0
H2924 H 0.06498 0.55901 0.36946 0.0
H2925 H 0.0875 0.54344 0.34265 0.0
H2926 H 0.14413 0.55849 0.39757 0.0
H2927 H 0.12156 0.57476 0.42434 0.0
C2928 C 0.16195 0.55489 0.32846 0.0
C2929 C 0.15111 0.53897 0.30943 0.0
C2930 C 0.15218 0.55689 0.34906 0.0
C2931 C 0.13163 0.54285 0.35069 0.0
C2932 C 0.12261 0.52506 0.33274 0.0
C2933 C 0.13213 0.52335 0.31203 0.0
C2934 C 0.08224 0.55901 0.37576 0.0
C2935 C 0.09168 0.56838 0.39873 0.0
C2936 C 0.09503 0.54969 0.3606 0.0
C2937 C 0.11753 0.54954 0.36814 0.0
C2938 C 0.12683 0.55836 0.39137 0.0
C2939 C 0.11396 0.56766 0.4066 0.0
H2940 H 0.81931 0.83032 0.60229 0.0
H2941 H 0.77582 0.87386 0.62187 0.0
H2942 H 0.81578 0.81464 0.63872 0.0
H2943 H 0.77036 0.85703 0.65706 0.0
H2944 H 0.77909 0.83817 0.72941 0.0
H2945 H 0.78441 0.85435 0.69383 0.0
H2946 H 0.7949 0.79222 0.65967 0.0
H2947 H 0.79176 0.77692 0.69595 0.0
C2948 C 0.80872 0.83625 0.61431 0.0
C2949 C 0.798 0.85336 0.60948 0.0
C2950 C 0.80646 0.82716 0.63516 0.0
C2951 C 0.79276 0.83447 0.65123 0.0
C2952 C 0.78161 0.85129 0.64579 0.0
C2953 C 0.78454 0.86086 0.62542 0.0
C2954 C 0.78269 0.82804 0.71433 0.0
C2955 C 0.78509 0.80629 0.71567 0.0
C2956 C 0.78551 0.83724 0.69368 0.0
C2957 C 0.79007 0.82471 0.67348 0.0
C2958 C 0.79196 0.80274 0.67479 0.0
C2959 C 0.78983 0.79378 0.69564 0.0
H2960 H 0.71168 0.42988 0.48773 0.0
H2961 H 0.75106 0.49522 0.48624 0.0
H2962 H 0.67972 0.4457 0.49547 0.0
H2963 H 0.71878 0.51103 0.49353 0.0
H2964 H 0.68916 0.51954 0.56543 0.0
H2965 H 0.71158 0.50846 0.53574 0.0
H2966 H 0.65157 0.47036 0.49209 0.0
H2967 H 0.62909 0.48153 0.52215 0.0
C2968 C 0.71315 0.44751 0.48792 0.0
C2969 C 0.73394 0.46156 0.48768 0.0
C2970 C 0.69477 0.45654 0.49209 0.0
C2971 C 0.69725 0.47959 0.49594 0.0
C2972 C 0.71682 0.49321 0.49118 0.0
C2973 C 0.73526 0.48421 0.48721 0.0
C2974 C 0.68089 0.50861 0.5496 0.0
C2975 C 0.6577 0.50074 0.54618 0.0
C2976 C 0.69353 0.50279 0.53234 0.0
C2977 C 0.68312 0.48893 0.51147 0.0
C2978 C 0.65982 0.48126 0.50794 0.0
C2979 C 0.64714 0.48729 0.52517 0.0
H2980 H 0.21115 0.11051 0.49934 0.0
H2981 H 0.17832 0.16579 0.50577 0.0
H2982 H 0.17603 0.08543 0.50232 0.0
H2983 H 0.14326 0.14069 0.50912 0.0
H2984 H 0.07989 0.08646 0.49023 0.0
H2985 H 0.11485 0.11052 0.48517 0.0
H2986 H 0.15137 0.07763 0.53271 0.0
H2987 H 0.11636 0.05353 0.5379 0.0
C2988 C 0.19641 0.1173 0.50129 0.0
C2989 C 0.19746 0.14012 0.50228 0.0
C2990 C 0.17636 0.10294 0.50317 0.0
C2991 C 0.15695 0.11112 0.50601 0.0
C2992 C 0.15791 0.1339 0.50666 0.0
C2993 C 0.17798 0.14827 0.50481 0.0
C2994 C 0.09538 0.08423 0.4995 0.0
C2995 C 0.09537 0.06792 0.5143 0.0
C2996 C 0.11538 0.09812 0.49669 0.0
C2997 C 0.13581 0.09596 0.50854 0.0
C2998 C 0.13588 0.07947 0.52309 0.0
C2999 C 0.11583 0.06563 0.52602 0.0
H3000 H 0.14583 0.96949 0.77426 0.0
H3001 H 0.2056 0.01599 0.80839 0.0
H3002 H 0.16688 0.94028 0.77114 0.0
H3003 H 0.22648 0.98658 0.80642 0.0
H3004 H 0.25983 0.94073 0.75937 0.0
H3005 H 0.24031 0.96817 0.77529 0.0
H3006 H 0.18724 0.91598 0.78845 0.0
H3007 H 0.20687 0.88843 0.77162 0.0
C3008 C 0.16337 0.97333 0.78158 0.0
C3009 C 0.17419 0.99506 0.79121 0.0
C3010 C 0.17542 0.95653 0.78002 0.0
C3011 C 0.19846 0.96109 0.78838 0.0
C3012 C 0.20888 0.98259 0.79936 0.0
C3013 C 0.19693 0.99944 0.80054 0.0
C3014 C 0.24431 0.93523 0.76633 0.0
C3015 C 0.23473 0.91265 0.76427 0.0
C3016 C 0.23311 0.95091 0.77557 0.0
C3017 C 0.21205 0.94433 0.78299 0.0
C3018 C 0.20327 0.9216 0.78256 0.0
C3019 C 0.21457 0.90584 0.77323 0.0
H3020 H 0.35854 0.01282 0.03644 0.0
H3021 H 0.37145 0.95347 0.9991 0.0
H3022 H 0.39812 0.02431 0.05293 0.0
H3023 H 0.41101 0.96545 0.01364 0.0
H3024 H 0.47984 0.98743 0.03225 0.0
H3025 H 0.44236 0.97467 0.04175 0.0
H3026 H 0.4282 0.03911 0.03456 0.0
H3027 H 0.4664 0.05226 0.02764 0.0
C3028 C 0.37001 1.00236 0.03181 0.0
C3029 C 0.36253 0.98271 0.01619 0.0
C3030 C 0.39252 0.0088 0.04125 0.0
C3031 C 0.40782 0.99602 0.03436 0.0
C3032 C 0.39979 0.9756 0.01974 0.0
C3033 C 0.37722 0.96887 0.01099 0.0
C3034 C 0.46904 0.99913 0.03413 0.0
C3035 C 0.47572 0.02072 0.02926 0.0
C3036 C 0.44749 0.99177 0.0392 0.0
C3037 C 0.43207 1.00563 0.03822 0.0
C3038 C 0.43958 0.02793 0.03556 0.0
C3039 C 0.46135 0.03544 0.03118 0.0
H3040 H 0.86608 0.59865 0.83673 0.0
H3041 H 0.81239 0.55404 0.78953 0.0
H3042 H 0.85087 0.62996 0.82637 0.0
H3043 H 0.79762 0.58527 0.7787 0.0
H3044 H 0.77559 0.64501 0.75998 0.0
H3045 H 0.78271 0.61843 0.78602 0.0
H3046 H 0.85403 0.64269 0.78838 0.0
H3047 H 0.84687 0.66978 0.76324 0.0
C3048 C 0.85059 0.59549 0.8248 0.0
C3049 C 0.84069 0.57404 0.81346 0.0
C3050 C 0.84198 0.6134 0.81877 0.0
C3051 C 0.82348 0.61005 0.80127 0.0
C3052 C 0.81192 0.58837 0.79226 0.0
C3053 C 0.82042 0.57044 0.79844 0.0
C3054 C 0.79277 0.64492 0.76652 0.0
C3055 C 0.81074 0.65921 0.75944 0.0
C3056 C 0.79681 0.62972 0.78135 0.0
C3057 C 0.81888 0.62855 0.78928 0.0
C3058 C 0.83681 0.64345 0.78291 0.0
C3059 C 0.83277 0.65867 0.76815 0.0
H3060 H 0.80708 0.61035 0.04352 0.0
H3061 H 0.83108 0.6585 0.99907 0.0
H3062 H 0.84041 0.59556 0.04138 0.0
H3063 H 0.86503 0.64338 0.99707 0.0
H3064 H 0.92996 0.62596 0.0434 0.0
H3065 H 0.89802 0.64112 0.02928 0.0
H3066 H 0.85802 0.57486 0.0098 0.0
H3067 H 0.88999 0.55982 0.02398 0.0
C3068 C 0.81938 0.61768 0.03307 0.0
C3069 C 0.81631 0.63551 0.0213 0.0
C3070 C 0.83841 0.60902 0.03167 0.0
C3071 C 0.85494 0.61794 0.01851 0.0
C3072 C 0.85228 0.63606 0.00704 0.0
C3073 C 0.83299 0.64474 0.00831 0.0
C3074 C 0.91463 0.61471 0.03498 0.0
C3075 C 0.91216 0.59183 0.0348 0.0
C3076 C 0.8964 0.62335 0.02692 0.0
C3077 C 0.87554 0.60913 0.01889 0.0
C3078 C 0.87395 0.58613 0.01611 0.0
C3079 C 0.8922 0.57751 0.02403 0.0
H3080 H 0.15965 0.13319 0.76041 0.0
H3081 H 0.19657 0.11859 0.8223 0.0
H3082 H 0.18811 0.16682 0.76104 0.0
H3083 H 0.22481 0.15294 0.82332 0.0
H3084 H 0.23998 0.23556 0.8218 0.0
H3085 H 0.21618 0.1995 0.82427 0.0
H3086 H 0.2369 0.17171 0.76046 0.0
H3087 H 0.26112 0.20739 0.75824 0.0
C3088 C 0.17382 0.13726 0.77421 0.0
C3089 C 0.17591 0.1234 0.79137 0.0
C3090 C 0.19007 0.1564 0.77449 0.0
C3091 C 0.20845 0.1623 0.79224 0.0
C3092 C 0.21066 0.14857 0.8095 0.0
C3093 C 0.19463 0.12901 0.80887 0.0
C3094 C 0.23975 0.22162 0.80859 0.0
C3095 C 0.25241 0.22419 0.78989 0.0
C3096 C 0.22628 0.20107 0.81007 0.0
C3097 C 0.22495 0.18301 0.79261 0.0
C3098 C 0.2379 0.18545 0.77419 0.0
C3099 C 0.25174 0.20581 0.77299 0.0
H3100 H 0.38727 0.93966 0.30517 0.0
H3101 H 0.33049 0.96057 0.27142 0.0
H3102 H 0.36608 0.90179 0.29906 0.0
H3103 H 0.30955 0.92228 0.26358 0.0
H3104 H 0.27179 0.85827 0.28659 0.0
H3105 H 0.29163 0.89543 0.2838 0.0
H3106 H 0.35111 0.87041 0.27213 0.0
H3107 H 0.33171 0.83388 0.27782 0.0
C3108 C 0.37031 0.93596 0.29606 0.0
C3109 C 0.36037 0.95281 0.28882 0.0
C3110 C 0.35824 0.91424 0.29223 0.0
C3111 C 0.33618 0.90889 0.28049 0.0
C3112 C 0.3264 0.92585 0.2729 0.0
C3113 C 0.33832 0.94772 0.27735 0.0
C3114 C 0.28899 0.86081 0.28296 0.0
C3115 C 0.30023 0.84334 0.28178 0.0
C3116 C 0.30033 0.88202 0.28114 0.0
C3117 C 0.32306 0.88598 0.27792 0.0
C3118 C 0.33372 0.86801 0.27501 0.0
C3119 C 0.32249 0.84692 0.27749 0.0
H3120 H 0.56959 0.36133 0.54516 0.0
H3121 H 0.55041 0.38081 0.61272 0.0
H3122 H 0.56463 0.39671 0.53319 0.0
H3123 H 0.54493 0.41568 0.60076 0.0
H3124 H 0.55643 0.48623 0.58289 0.0
H3125 H 0.56144 0.45078 0.59377 0.0
H3126 H 0.54088 0.42033 0.52166 0.0
H3127 H 0.53674 0.45615 0.51072 0.0
C3128 C 0.56421 0.37304 0.55749 0.0
C3129 C 0.56056 0.36786 0.58006 0.0
C3130 C 0.5612 0.39349 0.55055 0.0
C3131 C 0.55442 0.40969 0.56588 0.0
C3132 C 0.55059 0.40428 0.58835 0.0
C3133 C 0.55361 0.38394 0.59525 0.0
C3134 C 0.55302 0.47204 0.56923 0.0
C3135 C 0.54597 0.47444 0.54582 0.0
C3136 C 0.55571 0.45139 0.57557 0.0
C3137 C 0.55153 0.43205 0.5588 0.0
C3138 C 0.54457 0.43451 0.5353 0.0
C3139 C 0.54188 0.45522 0.52898 0.0
H3140 H 0.44664 0.75746 0.35511 0.0
H3141 H 0.42234 0.77536 0.42038 0.0
H3142 H 0.41112 0.75918 0.33329 0.0
H3143 H 0.38623 0.77713 0.39824 0.0
H3144 H 0.31837 0.76161 0.34428 0.0
H3145 H 0.35109 0.75611 0.36926 0.0
H3146 H 0.39464 0.7915 0.32636 0.0
H3147 H 0.36234 0.79772 0.30209 0.0
C3148 C 0.43345 0.76126 0.36488 0.0
C3149 C 0.43742 0.76624 0.38954 0.0
C3150 C 0.4131 0.76249 0.35229 0.0
C3151 C 0.3959 0.7688 0.36387 0.0
C3152 C 0.39913 0.77227 0.38871 0.0
C3153 C 0.41975 0.77106 0.40144 0.0
C3154 C 0.33492 0.76831 0.34018 0.0
C3155 C 0.33747 0.77973 0.32064 0.0
C3156 C 0.35371 0.76518 0.35461 0.0
C3157 C 0.37557 0.77302 0.34968 0.0
C3158 C 0.37808 0.78476 0.33045 0.0
C3159 C 0.35942 0.78822 0.31634 0.0
H3160 H 0.0807 0.72747 0.05845 0.0
H3161 H 0.03308 0.71094 0.10635 0.0
H3162 H 0.07615 0.68783 0.04367 0.0
H3163 H 0.02865 0.67187 0.0921 0.0
H3164 H 0.01147 0.60264 0.05265 0.0
H3165 H 0.01457 0.64219 0.06208 0.0
H3166 H 0.08481 0.65348 0.0542 0.0
H3167 H 0.08151 0.61359 0.0447 0.0
C3168 C 0.06878 0.71548 0.06535 0.0
C3169 C 0.05692 0.72261 0.08332 0.0
C3170 C 0.06642 0.69263 0.05718 0.0
C3171 C 0.05198 0.6762 0.06657 0.0
C3172 C 0.03966 0.68361 0.08396 0.0
C3173 C 0.04219 0.70624 0.09221 0.0
C3174 C 0.0277 0.6134 0.05294 0.0
C3175 C 0.0463 0.60445 0.04771 0.0
C3176 C 0.02949 0.63636 0.05845 0.0
C3177 C 0.05 0.65154 0.0591 0.0
C3178 C 0.06859 0.64265 0.05362 0.0
C3179 C 0.06675 0.61956 0.04812 0.0
H3180 H 0.05081 0.24731 0.88384 0.0
H3181 H 0.08962 0.29511 0.94091 0.0
H3182 H 0.08277 0.25127 0.86203 0.0
H3183 H 0.12138 0.30008 0.91864 0.0
H3184 H 0.18011 0.30011 0.87899 0.0
H3185 H 0.15062 0.28695 0.90245 0.0
H3186 H 0.10143 0.27632 0.84056 0.0
H3187 H 0.13103 0.28866 0.81739 0.0
C3188 C 0.06623 0.25871 0.89172 0.0
C3189 C 0.06763 0.27099 0.91404 0.0
C3190 C 0.08458 0.26111 0.87914 0.0
C3191 C 0.10478 0.2762 0.88831 0.0
C3192 C 0.10633 0.28804 0.91101 0.0
C3193 C 0.08804 0.28534 0.92379 0.0
C3194 C 0.16307 0.29406 0.87037 0.0
C3195 C 0.15783 0.29499 0.84635 0.0
C3196 C 0.14606 0.28692 0.88385 0.0
C3197 C 0.12342 0.28076 0.8736 0.0
C3198 C 0.11854 0.28057 0.84919 0.0
C3199 C 0.13553 0.28761 0.83579 0.0
H3200 H 0.51288 0.73412 0.87958 0.0
H3201 H 0.57456 0.7633 0.92512 0.0
H3202 H 0.50801 0.70217 0.90034 0.0
H3203 H 0.57066 0.73072 0.94504 0.0
H3204 H 0.5409 0.68304 0.99446 0.0
H3205 H 0.55155 0.71296 0.97171 0.0
H3206 H 0.5181 0.66996 0.90824 0.0
H3207 H 0.5066 0.64059 0.93156 0.0
C3208 C 0.52561 0.73351 0.89382 0.0
C3209 C 0.54402 0.75131 0.9008 0.0
C3210 C 0.52298 0.71502 0.90566 0.0
C3211 C 0.53897 0.71354 0.92451 0.0
C3212 C 0.5577 0.73124 0.93102 0.0
C3213 C 0.56005 0.74995 0.9195 0.0
C3214 C 0.53655 0.67987 0.97553 0.0
C3215 C 0.52325 0.65947 0.9647 0.0
C3216 C 0.54255 0.69706 0.96237 0.0
C3217 C 0.53543 0.69424 0.93798 0.0
C3218 C 0.52345 0.67314 0.927 0.0
C3219 C 0.51725 0.65606 0.94024 0.0
H3220 H 0.09107 0.74588 0.75173 0.0
H3221 H 0.10705 0.78125 0.69405 0.0
H3222 H 0.13131 0.74891 0.76408 0.0
H3223 H 0.1468 0.78426 0.70618 0.0
H3224 H 0.2171 0.80615 0.74575 0.0
H3225 H 0.17711 0.8025 0.73561 0.0
H3226 H 0.16534 0.7364 0.75356 0.0
H3227 H 0.20573 0.74021 0.76399 0.0
C3228 C 0.1031 0.75447 0.74179 0.0
C3229 C 0.09559 0.76341 0.7219 0.0
C3230 C 0.12626 0.75604 0.74874 0.0
C3231 C 0.14266 0.76692 0.73626 0.0
C3232 C 0.13499 0.77601 0.71656 0.0
C3233 C 0.11199 0.77419 0.70948 0.0
C3234 C 0.20619 0.79069 0.74753 0.0
C3235 C 0.21518 0.7734 0.75578 0.0
C3236 C 0.18299 0.78858 0.74156 0.0
C3237 C 0.16759 0.76909 0.74353 0.0
C3238 C 0.17644 0.7518 0.75195 0.0
C3239 C 0.1998 0.75392 0.75789 0.0
H3240 H 0.05266 0.36671 0.43441 0.0
H3241 H 0.05322 0.4065 0.37832 0.0
H3242 H 0.04937 0.39847 0.46205 0.0
H3243 H 0.04909 0.43781 0.40549 0.0
H3244 H 0.06157 0.49715 0.46227 0.0
H3245 H 0.0665 0.46542 0.43617 0.0
H3246 H 0.02571 0.42171 0.47479 0.0
H3247 H 0.02119 0.45358 0.50124 0.0
C3248 C 0.05208 0.3822 0.42793 0.0
C3249 C 0.05339 0.38392 0.40403 0.0
C3250 C 0.04998 0.40047 0.44379 0.0
C3251 C 0.04897 0.42102 0.43626 0.0
C3252 C 0.05027 0.42261 0.41232 0.0
C3253 C 0.05253 0.40446 0.39657 0.0
C3254 C 0.05364 0.4808 0.46529 0.0
C3255 C 0.04098 0.47814 0.48406 0.0
C3256 C 0.05636 0.46244 0.45012 0.0
C3257 C 0.04647 0.44068 0.45305 0.0
C3258 C 0.03393 0.43802 0.47197 0.0
C3259 C 0.03125 0.45643 0.48721 0.0
H3260 H 0.45117 0.23129 0.25416 0.0
H3261 H 0.45128 0.2814 0.20895 0.0
H3262 H 0.41498 0.23629 0.26482 0.0
H3263 H 0.41477 0.28626 0.21932 0.0
H3264 H 0.35758 0.30432 0.25757 0.0
H3265 H 0.39401 0.29974 0.2476 0.0
H3266 H 0.37598 0.23031 0.25353 0.0
H3267 H 0.33968 0.23521 0.26444 0.0
C3268 C 0.44353 0.24344 0.24642 0.0
C3269 C 0.45456 0.25592 0.23062 0.0
C3270 C 0.42244 0.24621 0.25244 0.0
C3271 C 0.41136 0.26168 0.24303 0.0
C3272 C 0.42251 0.27432 0.22733 0.0
C3273 C 0.4436 0.27145 0.22121 0.0
C3274 C 0.36137 0.28809 0.25715 0.0
C3275 C 0.34542 0.27028 0.26236 0.0
C3276 C 0.38241 0.28535 0.251 0.0
C3277 C 0.38852 0.26459 0.24962 0.0
C3278 C 0.37246 0.24671 0.25468 0.0
C3279 C 0.35137 0.24948 0.26087 0.0
H3280 H 0.63103 0.5498 0.37328 0.0
H3281 H 0.56286 0.54714 0.34376 0.0
H3282 H 0.61867 0.54485 0.41153 0.0
H3283 H 0.55026 0.5408 0.38114 0.0
H3284 H 0.53572 0.55646 0.45447 0.0
H3285 H 0.54976 0.55994 0.41734 0.0
H3286 H 0.59954 0.52254 0.43627 0.0
H3287 H 0.58594 0.5201 0.47439 0.0
C3288 C 0.61337 0.54783 0.37491 0.0
C3289 C 0.59797 0.54924 0.35563 0.0
C3290 C 0.60622 0.54486 0.39681 0.0
C3291 C 0.58343 0.54281 0.39978 0.0
C3292 C 0.56802 0.54312 0.38001 0.0
C3293 C 0.57522 0.54659 0.3584 0.0
C3294 C 0.54967 0.54895 0.45076 0.0
C3295 C 0.55961 0.53788 0.46735 0.0
C3296 C 0.55766 0.55076 0.42925 0.0
C3297 C 0.57563 0.5412 0.42334 0.0
C3298 C 0.5858 0.53028 0.44012 0.0
C3299 C 0.57796 0.52877 0.46196 0.0
H3300 H 0.32633 0.9274 0.07582 0.0
H3301 H 0.26382 0.88016 0.05349 0.0
H3302 H 0.33452 0.90755 0.10825 0.0
H3303 H 0.27137 0.8608 0.08683 0.0
H3304 H 0.31022 0.81534 0.12347 0.0
H3305 H 0.29698 0.83761 0.0954 0.0
H3306 H 0.32506 0.89689 0.14493 0.0
H3307 H 0.33875 0.87441 0.17275 0.0
C3308 C 0.31406 0.91307 0.0783 0.0
C3309 C 0.29454 0.9051 0.06218 0.0
C3310 C 0.31868 0.90177 0.09695 0.0
C3311 C 0.30364 0.88253 0.10003 0.0
C3312 C 0.28349 0.87532 0.08459 0.0
C3313 C 0.2791 0.88638 0.06562 0.0
C3314 C 0.31361 0.83314 0.1282 0.0
C3315 C 0.32578 0.84329 0.14994 0.0
C3316 C 0.30574 0.84588 0.11235 0.0
C3317 C 0.30999 0.86903 0.11794 0.0
C3318 C 0.32173 0.87911 0.14003 0.0
C3319 C 0.3295 0.86632 0.15594 0.0
H3320 H 0.96455 0.54863 0.86549 0.0
H3321 H 0.90341 0.50788 0.87992 0.0
H3322 H 0.98153 0.54968 0.90584 0.0
H3323 H 0.92091 0.50838 0.92045 0.0
H3324 H 0.98977 0.55952 0.98838 0.0
H3325 H 0.9602 0.55776 0.95596 0.0
H3326 H 0.97338 0.49641 0.92365 0.0
H3327 H 1.00331 0.49821 0.95594 0.0
C3328 C 0.95471 0.54022 0.87749 0.0
C3329 C 0.93289 0.52805 0.86988 0.0
C3330 C 0.96431 0.54091 0.90041 0.0
C3331 C 0.95233 0.52909 0.91576 0.0
C3332 C 0.93015 0.51768 0.90864 0.0
C3333 C 0.92028 0.51741 0.88569 0.0
C3334 C 0.98592 0.54537 0.97465 0.0
C3335 C 0.99876 0.52907 0.97425 0.0
C3336 C 0.96892 0.54429 0.95641 0.0
C3337 C 0.96455 0.52678 0.9379 0.0
C3338 C 0.9764 0.50976 0.93822 0.0
C3339 C 0.99363 0.51098 0.9563 0.0
H3340 H 0.26699 0.2411 0.58059 0.0
H3341 H 0.27308 0.18226 0.61104 0.0
H3342 H 0.27293 0.26233 0.62031 0.0
H3343 H 0.27862 0.203 0.65 0.0
H3344 H 0.30576 0.24558 0.71718 0.0
H3345 H 0.30534 0.23085 0.67628 0.0
H3346 H 0.25339 0.26514 0.65576 0.0
H3347 H 0.25464 0.28084 0.69679 0.0
C3348 C 0.26974 0.23277 0.59568 0.0
C3349 C 0.26938 0.20998 0.59266 0.0
C3350 C 0.273 0.24485 0.61839 0.0
C3351 C 0.27635 0.23439 0.63838 0.0
C3352 C 0.27645 0.21173 0.63512 0.0
C3353 C 0.27301 0.19975 0.61267 0.0
C3354 C 0.29431 0.25011 0.70398 0.0
C3355 C 0.27974 0.26386 0.71039 0.0
C3356 C 0.29405 0.24164 0.68048 0.0
C3357 C 0.27898 0.24641 0.66273 0.0
C3358 C 0.26522 0.26113 0.66896 0.0
C3359 C 0.26573 0.26992 0.69255 0.0
H3360 H 0.57443 0.53696 0.22354 0.0
H3361 H 0.64052 0.55559 0.20348 0.0
H3362 H 0.55783 0.53598 0.18292 0.0
H3363 H 0.62403 0.55504 0.16323 0.0
H3364 H 0.58982 0.52691 0.08956 0.0
H3365 H 0.6048 0.52838 0.13034 0.0
H3366 H 0.55191 0.55927 0.15232 0.0
H3367 H 0.53636 0.55719 0.11117 0.0
C3368 C 0.58541 0.54087 0.21049 0.0
C3369 C 0.60882 0.5462 0.21675 0.0
C3370 C 0.57589 0.54048 0.18724 0.0
C3371 C 0.58957 0.54533 0.16971 0.0
C3372 C 0.61296 0.55085 0.17612 0.0
C3373 C 0.62244 0.55126 0.19928 0.0
C3374 C 0.58132 0.53409 0.10299 0.0
C3375 C 0.56196 0.54215 0.09694 0.0
C3376 C 0.59004 0.53504 0.12648 0.0
C3377 C 0.57974 0.54413 0.14471 0.0
C3378 C 0.56022 0.55203 0.13875 0.0
C3379 C 0.55141 0.55104 0.11512 0.0
H3380 H 0.31229 0.88376 0.94747 0.0
H3381 H 0.29673 0.92876 0.89984 0.0
H3382 H 0.31143 0.8557 0.91428 0.0
H3383 H 0.29635 0.90062 0.86653 0.0
H3384 H 0.26023 0.8339 0.82193 0.0
H3385 H 0.26852 0.86526 0.85323 0.0
H3386 H 0.32925 0.84567 0.87914 0.0
H3387 H 0.32076 0.81401 0.84784 0.0
C3388 C 0.30909 0.8878 0.9299 0.0
C3389 C 0.30418 0.9083 0.9262 0.0
C3390 C 0.30881 0.87179 0.91093 0.0
C3391 C 0.30363 0.87603 0.88798 0.0
C3392 C 0.3001 0.89697 0.88418 0.0
C3393 C 0.30041 0.91304 0.90319 0.0
C3394 C 0.27534 0.83637 0.83432 0.0
C3395 C 0.28986 0.82169 0.83272 0.0
C3396 C 0.28022 0.85439 0.85201 0.0
C3397 C 0.29964 0.85793 0.86833 0.0
C3398 C 0.31416 0.84318 0.86672 0.0
C3399 C 0.30925 0.82509 0.84902 0.0
H3400 H 0.94328 0.55636 0.75604 0.0
H3401 H 0.88348 0.51357 0.71668 0.0
H3402 H 0.96454 0.54765 0.72424 0.0
H3403 H 0.90479 0.50414 0.68539 0.0
H3404 H 0.9459 0.49661 0.62736 0.0
H3405 H 0.9256 0.51472 0.65481 0.0
H3406 H 0.97771 0.51519 0.71151 0.0
H3407 H 0.99876 0.49844 0.68375 0.0
C3408 C 0.93463 0.5454 0.7404 0.0
C3409 C 0.91183 0.53547 0.73886 0.0
C3410 C 0.94682 0.54025 0.72231 0.0
C3411 C 0.93645 0.5249 0.7025 0.0
C3412 C 0.91327 0.51618 0.70031 0.0
C3413 C 0.90104 0.52153 0.71828 0.0
C3414 C 0.95323 0.50093 0.64562 0.0
C3415 C 0.9739 0.49596 0.65343 0.0
C3416 C 0.94148 0.51114 0.66137 0.0
C3417 C 0.94999 0.51634 0.68533 0.0
C3418 C 0.97082 0.51169 0.69309 0.0
C3419 C 0.98269 0.50168 0.67728 0.0
H3420 H 0.30279 0.19751 0.43984 0.0
H3421 H 0.24776 0.23009 0.4481 0.0
H3422 H 0.30725 0.2115 0.40262 0.0
H3423 H 0.25105 0.24284 0.41032 0.0
H3424 H 0.27382 0.28108 0.35423 0.0
H3425 H 0.27228 0.26782 0.39147 0.0
H3426 H 0.29253 0.20854 0.36302 0.0
H3427 H 0.2959 0.22294 0.32573 0.0
C3428 C 0.29159 0.20761 0.43359 0.0
C3429 C 0.2751 0.21296 0.44696 0.0
C3430 C 0.29397 0.21545 0.41212 0.0
C3431 C 0.27958 0.22841 0.40328 0.0
C3432 C 0.26289 0.23345 0.41668 0.0
C3433 C 0.26089 0.22607 0.43837 0.0
C3434 C 0.27836 0.26535 0.35586 0.0
C3435 C 0.28526 0.25319 0.33691 0.0
C3436 C 0.27708 0.25752 0.3773 0.0
C3437 C 0.28198 0.23691 0.38041 0.0
C3438 C 0.28887 0.22462 0.36146 0.0
C3439 C 0.29062 0.23275 0.33998 0.0
H3440 H 0.3428 0.62772 0.54824 0.0
H3441 H 0.33317 0.57458 0.59029 0.0
H3442 H 0.37771 0.6195 0.53959 0.0
H3443 H 0.36951 0.56706 0.58274 0.0
H3444 H 0.40038 0.53479 0.52059 0.0
H3445 H 0.37788 0.54908 0.54811 0.0
H3446 H 0.4143 0.6157 0.54607 0.0
H3447 H 0.43584 0.6011 0.51709 0.0
C3448 C 0.34851 0.61464 0.55629 0.0
C3449 C 0.33488 0.60122 0.56924 0.0
C3450 C 0.36889 0.61014 0.55162 0.0
C3451 C 0.37633 0.59232 0.56013 0.0
C3452 C 0.36391 0.58053 0.57541 0.0
C3453 C 0.34316 0.58481 0.57976 0.0
C3454 C 0.40368 0.55247 0.52632 0.0
C3455 C 0.41918 0.56701 0.51638 0.0
C3456 C 0.39107 0.56069 0.54242 0.0
C3457 C 0.39402 0.58362 0.54908 0.0
C3458 C 0.41121 0.59799 0.5408 0.0
C3459 C 0.42345 0.58974 0.52421 0.0
H3460 H 0.87871 0.91242 0.51861 0.0
H3461 H 0.86818 0.96205 0.57243 0.0
H3462 H 0.91711 0.93336 0.51889 0.0
H3463 H 0.90676 0.98266 0.57324 0.0
H3464 H 0.98754 0.9967 0.57418 0.0
H3465 H 0.95165 0.97302 0.57883 0.0
H3466 H 0.9254 0.97817 0.50796 0.0
H3467 H 0.96084 1.00251 0.50362 0.0
C3468 C 0.885 0.92732 0.53114 0.0
C3469 C 0.87089 0.93556 0.5458 0.0
C3470 C 0.90675 0.93932 0.53116 0.0
C3471 C 0.91463 0.95948 0.5461 0.0
C3472 C 0.90097 0.96701 0.56178 0.0
C3473 C 0.87908 0.95524 0.56141 0.0
C3474 C 0.97396 0.99286 0.55974 0.0
C3475 C 0.97669 1.0014 0.53863 0.0
C3476 C 0.95361 0.97936 0.56237 0.0
C3477 C 0.93611 0.97373 0.54364 0.0
C3478 C 0.93885 0.98226 0.52253 0.0
C3479 C 0.95892 0.99628 0.52015 0.0
H3480 H 0.92223 0.09719 0.28968 0.0
H3481 H 0.86631 0.05884 0.24045 0.0
H3482 H 0.90336 0.12802 0.29331 0.0
H3483 H 0.84777 0.09003 0.24324 0.0
H3484 H 0.81017 0.13664 0.28451 0.0
H3485 H 0.82914 0.10771 0.27085 0.0
H3486 H 0.89079 0.15661 0.27568 0.0
H3487 H 0.87161 0.1854 0.29016 0.0
C3488 C 0.90602 0.09547 0.27938 0.0
C3489 C 0.89565 0.07551 0.26498 0.0
C3490 C 0.89527 0.11325 0.28124 0.0
C3491 C 0.874 0.1116 0.26852 0.0
C3492 C 0.86397 0.09181 0.25356 0.0
C3493 C 0.87461 0.07393 0.25192 0.0
C3494 C 0.82757 0.1412 0.28178 0.0
C3495 C 0.83946 0.16311 0.28813 0.0
C3496 C 0.83851 0.12466 0.27399 0.0
C3497 C 0.86164 0.12973 0.27246 0.0
C3498 C 0.87309 0.15205 0.27709 0.0
C3499 C 0.86209 0.1686 0.28498 0.0
H3500 H 0.70626 0.07222 0.04882 0.0
H3501 H 0.69059 0.12523 0.01288 0.0
H3502 H 0.66695 0.05403 0.04261 0.0
H3503 H 0.65113 0.10638 0.00536 0.0
H3504 H 0.58355 0.08241 0.03392 0.0
H3505 H 0.62145 0.09947 0.02845 0.0
H3506 H 0.63656 0.03458 0.01428 0.0
H3507 H 0.59868 0.01776 0.0207 0.0
C3508 C 0.69437 0.07967 0.03911 0.0
C3509 C 0.70121 0.09999 0.03126 0.0
C3510 C 0.6719 0.06917 0.03531 0.0
C3511 C 0.65601 0.07862 0.02315 0.0
C3512 C 0.66302 0.0988 0.01488 0.0
C3513 C 0.68549 0.10955 0.01914 0.0
C3514 C 0.59483 0.07191 0.02879 0.0
C3515 C 0.58855 0.04897 0.02746 0.0
C3516 C 0.61649 0.0816 0.02564 0.0
C3517 C 0.63204 0.06834 0.02122 0.0
C3518 C 0.62502 0.04519 0.01811 0.0
C3519 C 0.60343 0.03556 0.02157 0.0
H3520 H 0.26071 0.51476 0.25758 0.0
H3521 H 0.20044 0.46928 0.22272 0.0
H3522 H 0.27621 0.48361 0.26827 0.0
H3523 H 0.21597 0.43826 0.23334 0.0
H3524 H 0.22991 0.41221 0.30625 0.0
H3525 H 0.21985 0.43623 0.2784 0.0
H3526 H 0.28606 0.44459 0.25727 0.0
H3527 H 0.29606 0.42031 0.28518 0.0
C3528 C 0.25128 0.49809 0.25128 0.0
C3529 C 0.22924 0.49423 0.24003 0.0
C3530 C 0.26015 0.48032 0.25728 0.0
C3531 C 0.24696 0.45879 0.25192 0.0
C3532 C 0.22621 0.45483 0.23779 0.0
C3533 C 0.21736 0.47253 0.23188 0.0
C3534 C 0.24222 0.41925 0.29564 0.0
C3535 C 0.26381 0.41508 0.29802 0.0
C3536 C 0.23641 0.43254 0.27946 0.0
C3537 C 0.25223 0.4419 0.26566 0.0
C3538 C 0.27369 0.43733 0.26769 0.0
C3539 C 0.2794 0.42376 0.28368 0.0
H3540 H 0.24746 0.41873 0.00718 0.0
H3541 H 0.23537 0.42208 0.07942 0.0
H3542 H 0.21797 0.43892 0.99863 0.0
H3543 H 0.20585 0.4426 0.07112 0.0
H3544 H 0.13589 0.44941 0.03483 0.0
H3545 H 0.16825 0.43466 0.04854 0.0
H3546 H 0.20889 0.47529 0.00694 0.0
H3547 H 0.17626 0.48968 0.99307 0.0
C3548 C 0.2384 0.4239 0.02118 0.0
C3549 C 0.24328 0.41881 0.04382 0.0
C3550 C 0.22174 0.43564 0.01642 0.0
C3551 C 0.20967 0.44245 0.03425 0.0
C3552 C 0.21478 0.43744 0.05702 0.0
C3553 C 0.23158 0.42576 0.06179 0.0
C3554 C 0.15192 0.45544 0.02911 0.0
C3555 C 0.15383 0.47053 0.013 0.0
C3556 C 0.17043 0.4471 0.03695 0.0
C3557 C 0.19105 0.45366 0.02863 0.0
C3558 C 0.19312 0.46969 0.01337 0.0
C3559 C 0.17461 0.47806 0.0056 0.0
H3560 H 0.86391 0.96149 0.26635 0.0
H3561 H 0.91026 0.92169 0.24445 0.0
H3562 H 0.83637 0.92784 0.26848 0.0
H3563 H 0.88339 0.88847 0.24745 0.0
H3564 H 0.82652 0.83054 0.23527 0.0
H3565 H 0.84958 0.86543 0.2296 0.0
H3566 H 0.82868 0.89812 0.29102 0.0
H3567 H 0.80472 0.86313 0.29597 0.0
C3568 C 0.86821 0.94561 0.26191 0.0
C3569 C 0.8893 0.94435 0.25512 0.0
C3570 C 0.85249 0.92631 0.26333 0.0
C3571 C 0.85754 0.90535 0.25804 0.0
C3572 C 0.87861 0.90421 0.25116 0.0
C3573 C 0.89417 0.92338 0.2496 0.0
C3574 C 0.82665 0.84525 0.24739 0.0
C3575 C 0.8139 0.84413 0.2661 0.0
C3576 C 0.84002 0.86526 0.24427 0.0
C3577 C 0.84134 0.88463 0.26006 0.0
C3578 C 0.82795 0.88363 0.27837 0.0
C3579 C 0.81425 0.86358 0.28127 0.0
H3580 H 0.69286 0.12688 0.78894 0.0
H3581 H 0.73411 0.11377 0.73531 0.0
H3582 H 0.71586 0.16423 0.80002 0.0
H3583 H 0.7562 0.15147 0.74505 0.0
H3584 H 0.79821 0.21762 0.77063 0.0
H3585 H 0.78203 0.17891 0.77242 0.0
H3586 H 0.71811 0.19594 0.78104 0.0
H3587 H 0.7343 0.23425 0.77959 0.0
C3588 C 0.7069 0.13215 0.7796 0.0
C3589 C 0.7118 0.11793 0.76124 0.0
C3590 C 0.72001 0.15339 0.78586 0.0
C3591 C 0.73772 0.16081 0.7733 0.0
C3592 C 0.74298 0.14613 0.75539 0.0
C3593 C 0.73024 0.1247 0.7496 0.0
C3594 C 0.78086 0.21304 0.77352 0.0
C3595 C 0.76746 0.22879 0.77511 0.0
C3596 C 0.77159 0.19094 0.77443 0.0
C3597 C 0.7488 0.18439 0.77677 0.0
C3598 C 0.73583 0.20047 0.77968 0.0
C3599 C 0.7451 0.22247 0.77883 0.0
loop_
_geom_bond_atom_site_label_1
_geom_bond_atom_site_label_2
_geom_bond_distance
_geom_bond_site_symmetry_2
_ccdc_geom_bond_type
C0 O1 1.314 . S
C0 O3 1.163 . S
O1 C0 1.314 . S
O1 Cd2 2.228 . S
Cd2 O1 2.228 . S
Cd2 O6 2.273 . S
Cd2 O10 2.277 . S
O3 C0 1.163 . S
O3 Cd4 2.203 . S
Cd4 O3 2.203 . S
Cd4 O6 2.411 . S
Cd4 O7 2.333 . S
Cd4 O8 2.352 . S
Cd4 O12 2.277 . S
Cd4 O13 2.356 . S
C5 O10 1.209 . S
C5 O12 1.226 . S
O6 Cd2 2.273 . S
O6 Cd4 2.411 . S
O6 C9 1.320 . S
O7 Cd4 2.333 . S
O7 C9 1.214 . S
O8 Cd4 2.352 . S
O8 C11 1.258 . S
C9 O6 1.320 . S
C9 O7 1.214 . S
O10 Cd2 2.277 . S
O10 C5 1.209 . S
C11 O8 1.258 . S
C11 O13 1.282 . S
O12 Cd4 2.277 . S
O12 C5 1.226 . S
O13 Cd4 2.356 . S
O13 C11 1.282 . S
C14 O15 1.306 . S
C14 O17 1.160 . S
O15 C14 1.306 . S
O15 Cd16 2.228 1_655 S
Cd16 O15 2.228 1_455 S
Cd16 O20 2.273 . S
Cd16 O24 2.277 . S
O17 C14 1.160 . S
O17 Cd18 2.203 1_655 S
Cd18 O17 2.203 1_455 S
Cd18 O20 2.411 . S
Cd18 O21 2.333 . S
Cd18 O22 2.352 . S
Cd18 O26 2.277 . S
Cd18 O27 2.356 . S
C19 O24 1.209 . S
C19 O26 1.226 . S
O20 Cd16 2.273 . S
O20 Cd18 2.411 . S
O20 C23 1.320 . S
O21 Cd18 2.333 . S
O21 C23 1.214 . S
O22 Cd18 2.352 . S
O22 C25 1.258 . S
C23 O20 1.320 . S
C23 O21 1.214 . S
O24 Cd16 2.277 . S
O24 C19 1.209 . S
C25 O22 1.258 . S
C25 O27 1.282 . S
O26 Cd18 2.277 . S
O26 C19 1.226 . S
O27 Cd18 2.356 . S
O27 C25 1.282 . S
C28 O29 1.306 . S
C28 O31 1.160 . S
O29 C28 1.306 . S
O29 Cd30 2.228 . S
Cd30 O29 2.228 . S
Cd30 O34 2.273 . S
Cd30 O38 2.277 . S
O31 C28 1.160 . S
O31 Cd32 2.203 . S
Cd32 O31 2.203 . S
Cd32 O34 2.411 . S
Cd32 O35 2.333 . S
Cd32 O36 2.352 . S
Cd32 O40 2.277 . S
Cd32 O41 2.356 . S
C33 O38 1.209 . S
C33 O40 1.226 . S
O34 Cd30 2.273 . S
O34 Cd32 2.411 . S
O34 C37 1.320 . S
O35 Cd32 2.333 . S
O35 C37 1.214 . S
O36 Cd32 2.352 . S
O36 C39 1.258 . S
C37 O34 1.320 . S
C37 O35 1.214 . S
O38 Cd30 2.277 . S
O38 C33 1.209 . S
C39 O36 1.258 . S
C39 O41 1.282 . S
O40 Cd32 2.277 . S
O40 C33 1.226 . S
O41 Cd32 2.356 . S
O41 C39 1.282 . S
C42 O43 1.306 . S
C42 O45 1.160 . S
O43 C42 1.306 . S
O43 Cd44 2.228 . S
Cd44 O43 2.228 . S
Cd44 O48 2.273 . S
Cd44 O52 2.277 . S
O45 C42 1.160 . S
O45 Cd46 2.203 . S
Cd46 O45 2.203 . S
Cd46 O48 2.411 . S
Cd46 O49 2.333 . S
Cd46 O50 2.352 . S
Cd46 O54 2.277 . S
Cd46 O55 2.356 . S
C47 O52 1.209 . S
C47 O54 1.226 . S
O48 Cd44 2.273 . S
O48 Cd46 2.411 . S
O48 C51 1.320 . S
O49 Cd46 2.333 . S
O49 C51 1.214 . S
O50 Cd46 2.352 . S
O50 C53 1.258 . S
C51 O48 1.320 . S
C51 O49 1.214 . S
O52 Cd44 2.277 . S
O52 C47 1.209 . S
C53 O50 1.258 . S
C53 O55 1.282 . S
O54 Cd46 2.277 . S
O54 C47 1.226 . S
O55 Cd46 2.356 . S
O55 C53 1.282 . S
C56 O57 1.306 . S
C56 O59 1.160 . S
O57 C56 1.306 . S
O57 Cd58 2.228 . S
Cd58 O57 2.228 . S
Cd58 O62 2.273 . S
Cd58 O66 2.277 . S
O59 C56 1.160 . S
O59 Cd60 2.203 . S
Cd60 O59 2.203 . S
Cd60 O62 2.411 . S
Cd60 O63 2.333 . S
Cd60 O64 2.352 . S
Cd60 O68 2.277 . S
Cd60 O69 2.356 . S
C61 O66 1.209 . S
C61 O68 1.226 . S
O62 Cd58 2.273 . S
O62 Cd60 2.411 . S
O62 C65 1.320 . S
O63 Cd60 2.333 . S
O63 C65 1.214 . S
O64 Cd60 2.352 . S
O64 C67 1.258 . S
C65 O62 1.320 . S
C65 O63 1.214 . S
O66 Cd58 2.277 . S
O66 C61 1.209 . S
C67 O64 1.258 . S
C67 O69 1.282 . S
O68 Cd60 2.277 . S
O68 C61 1.226 . S
O69 Cd60 2.356 . S
O69 C67 1.282 . S
C70 O71 1.306 . S
C70 O73 1.160 . S
O71 C70 1.306 . S
O71 Cd72 2.228 . S
Cd72 O71 2.228 . S
Cd72 O76 2.273 . S
Cd72 O80 2.277 . S
O73 C70 1.160 . S
O73 Cd74 2.203 . S
Cd74 O73 2.203 . S
Cd74 O76 2.411 . S
Cd74 O77 2.333 . S
Cd74 O78 2.352 . S
Cd74 O82 2.277 . S
Cd74 O83 2.356 . S
C75 O80 1.209 . S
C75 O82 1.226 . S
O76 Cd72 2.273 . S
O76 Cd74 2.411 . S
O76 C79 1.320 . S
O77 Cd74 2.333 . S
O77 C79 1.214 . S
O78 Cd74 2.352 . S
O78 C81 1.258 . S
C79 O76 1.320 . S
C79 O77 1.214 . S
O80 Cd72 2.277 . S
O80 C75 1.209 . S
C81 O78 1.258 . S
C81 O83 1.282 . S
O82 Cd74 2.277 . S
O82 C75 1.226 . S
O83 Cd74 2.356 . S
O83 C81 1.282 . S
C84 O85 1.306 . S
C84 O87 1.160 . S
O85 C84 1.306 . S
O85 Cd86 2.228 . S
Cd86 O85 2.228 . S
Cd86 O90 2.273 . S
Cd86 O94 2.277 . S
O87 C84 1.160 . S
O87 Cd88 2.203 . S
Cd88 O87 2.203 . S
Cd88 O90 2.411 . S
Cd88 O91 2.333 . S
Cd88 O92 2.352 . S
Cd88 O96 2.277 . S
Cd88 O97 2.356 . S
C89 O94 1.209 . S
C89 O96 1.226 . S
O90 Cd86 2.273 . S
O90 Cd88 2.411 . S
O90 C93 1.320 . S
O91 Cd88 2.333 . S
O91 C93 1.214 . S
O92 Cd88 2.352 . S
O92 C95 1.258 . S
C93 O90 1.320 . S
C93 O91 1.214 . S
O94 Cd86 2.277 . S
O94 C89 1.209 . S
C95 O92 1.258 . S
C95 O97 1.282 . S
O96 Cd88 2.277 . S
O96 C89 1.226 . S
O97 Cd88 2.356 . S
O97 C95 1.282 . S
C98 O99 1.306 . S
C98 O101 1.160 . S
O99 C98 1.306 . S
O99 Cd100 2.228 1_655 S
Cd100 O99 2.228 1_455 S
Cd100 O104 2.273 . S
Cd100 O108 2.277 . S
O101 C98 1.160 . S
O101 Cd102 2.203 1_655 S
Cd102 O101 2.203 1_455 S
Cd102 O104 2.411 . S
Cd102 O105 2.333 . S
Cd102 O106 2.352 1_455 S
Cd102 O110 2.277 . S
Cd102 O111 2.356 . S
C103 O108 1.209 . S
C103 O110 1.226 . S
O104 Cd100 2.273 . S
O104 Cd102 2.411 . S
O104 C107 1.320 . S
O105 Cd102 2.333 . S
O105 C107 1.214 . S
O106 Cd102 2.352 1_655 S
O106 C109 1.261 . S
C107 O104 1.320 . S
C107 O105 1.214 . S
O108 Cd100 2.277 . S
O108 C103 1.209 . S
C109 O106 1.261 . S
C109 O111 1.281 1_655 S
O110 Cd102 2.277 . S
O110 C103 1.226 . S
O111 Cd102 2.356 . S
O111 C109 1.281 1_455 S
C112 O113 1.326 . S
C112 O115 1.160 . S
O113 C112 1.326 . S
O113 Cd114 2.207 1_545 S
Cd114 O113 2.207 1_565 S
Cd114 O118 2.273 1_565 S
Cd114 O122 2.277 . S
O115 C112 1.160 . S
O115 Cd116 2.203 . S
Cd116 O115 2.203 . S
Cd116 O118 2.411 . S
Cd116 O119 2.333 . S
Cd116 O120 2.352 . S
Cd116 O124 2.277 1_545 S
Cd116 O125 2.356 . S
C117 O122 1.209 . S
C117 O124 1.226 . S
O118 Cd114 2.273 1_545 S
O118 Cd116 2.411 . S
O118 C121 1.320 . S
O119 Cd116 2.333 . S
O119 C121 1.214 . S
O120 Cd116 2.352 . S
O120 C123 1.258 . S
C121 O118 1.320 . S
C121 O119 1.214 . S
O122 Cd114 2.277 . S
O122 C117 1.209 . S
C123 O120 1.258 . S
C123 O125 1.282 . S
O124 Cd116 2.277 1_565 S
O124 C117 1.226 . S
O125 Cd116 2.356 . S
O125 C123 1.282 . S
C126 O127 1.306 . S
C126 O129 1.160 . S
O127 C126 1.306 . S
O127 Cd128 2.228 . S
Cd128 O127 2.228 . S
Cd128 O132 2.273 . S
Cd128 O136 2.277 . S
O129 C126 1.160 . S
O129 Cd130 2.203 . S
Cd130 O129 2.203 . S
Cd130 O132 2.411 . S
Cd130 O133 2.333 . S
Cd130 O134 2.352 . S
Cd130 O138 2.277 . S
Cd130 O139 2.356 . S
C131 O136 1.209 . S
C131 O138 1.226 . S
O132 Cd128 2.273 . S
O132 Cd130 2.411 . S
O132 C135 1.320 . S
O133 Cd130 2.333 . S
O133 C135 1.214 . S
O134 Cd130 2.352 . S
O134 C137 1.258 . S
C135 O132 1.320 . S
C135 O133 1.214 . S
O136 Cd128 2.277 . S
O136 C131 1.209 . S
C137 O134 1.258 . S
C137 O139 1.282 . S
O138 Cd130 2.277 . S
O138 C131 1.226 . S
O139 Cd130 2.356 . S
O139 C137 1.282 . S
C140 O141 1.306 . S
C140 O143 1.160 . S
O141 C140 1.306 . S
O141 Cd142 2.228 . S
Cd142 O141 2.228 . S
Cd142 O146 2.273 . S
Cd142 O150 2.277 . S
O143 C140 1.160 . S
O143 Cd144 2.203 . S
Cd144 O143 2.203 . S
Cd144 O146 2.411 . S
Cd144 O147 2.333 . S
Cd144 O148 2.352 . S
Cd144 O152 2.277 . S
Cd144 O153 2.356 . S
C145 O150 1.209 . S
C145 O152 1.226 . S
O146 Cd142 2.273 . S
O146 Cd144 2.411 . S
O146 C149 1.320 . S
O147 Cd144 2.333 . S
O147 C149 1.214 . S
O148 Cd144 2.352 . S
O148 C151 1.258 . S
C149 O146 1.320 . S
C149 O147 1.214 . S
O150 Cd142 2.277 . S
O150 C145 1.209 . S
C151 O148 1.258 . S
C151 O153 1.282 . S
O152 Cd144 2.277 . S
O152 C145 1.226 . S
O153 Cd144 2.356 . S
O153 C151 1.282 . S
C154 O155 1.287 1_554 S
C154 O157 1.177 . S
O155 C154 1.287 1_556 S
O155 Cd156 2.228 . S
Cd156 O155 2.228 . S
Cd156 O160 2.279 . S
Cd156 O164 2.277 . S
O157 C154 1.177 . S
O157 Cd158 2.203 . S
Cd158 O157 2.203 . S
Cd158 O160 2.410 1_554 S
Cd158 O161 2.331 . S
Cd158 O162 2.352 . S
Cd158 O166 2.277 1_554 S
Cd158 O167 2.356 . S
C159 O164 1.209 . S
C159 O166 1.226 . S
O160 Cd156 2.279 . S
O160 Cd158 2.410 1_556 S
O160 C163 1.323 . S
O161 Cd158 2.331 . S
O161 C163 1.203 1_554 S
O162 Cd158 2.352 . S
O162 C165 1.258 . S
C163 O160 1.323 . S
C163 O161 1.203 1_556 S
O164 Cd156 2.277 . S
O164 C159 1.209 . S
C165 O162 1.258 . S
C165 O167 1.282 . S
O166 Cd158 2.277 1_556 S
O166 C159 1.226 . S
O167 Cd158 2.356 . S
O167 C165 1.282 . S
C168 O169 1.306 . S
C168 O171 1.160 . S
O169 C168 1.306 . S
O169 Cd170 2.228 . S
Cd170 O169 2.228 . S
Cd170 O174 2.273 . S
Cd170 O178 2.277 . S
O171 C168 1.160 . S
O171 Cd172 2.203 . S
Cd172 O171 2.203 . S
Cd172 O174 2.411 . S
Cd172 O175 2.333 . S
Cd172 O176 2.352 . S
Cd172 O180 2.277 . S
Cd172 O181 2.356 . S
C173 O178 1.209 1_556 S
C173 O180 1.226 1_556 S
O174 Cd170 2.273 . S
O174 Cd172 2.411 . S
O174 C177 1.320 . S
O175 Cd172 2.333 . S
O175 C177 1.214 . S
O176 Cd172 2.352 . S
O176 C179 1.258 . S
C177 O174 1.320 . S
C177 O175 1.214 . S
O178 Cd170 2.277 . S
O178 C173 1.209 1_554 S
C179 O176 1.258 . S
C179 O181 1.282 . S
O180 Cd172 2.277 . S
O180 C173 1.226 1_554 S
O181 Cd172 2.356 . S
O181 C179 1.282 . S
C182 O183 1.306 . S
C182 O185 1.160 . S
O183 C182 1.306 . S
O183 Cd184 2.228 . S
Cd184 O183 2.228 . S
Cd184 O188 2.273 . S
Cd184 O192 2.277 . S
O185 C182 1.160 . S
O185 Cd186 2.203 . S
Cd186 O185 2.203 . S
Cd186 O188 2.411 . S
Cd186 O189 2.333 . S
Cd186 O190 2.352 . S
Cd186 O194 2.277 . S
Cd186 O195 2.356 . S
C187 O192 1.209 . S
C187 O194 1.226 . S
O188 Cd184 2.273 . S
O188 Cd186 2.411 . S
O188 C191 1.320 . S
O189 Cd186 2.333 . S
O189 C191 1.214 . S
O190 Cd186 2.352 . S
O190 C193 1.258 . S
C191 O188 1.320 . S
C191 O189 1.214 . S
O192 Cd184 2.277 . S
O192 C187 1.209 . S
C193 O190 1.258 . S
C193 O195 1.282 . S
O194 Cd186 2.277 . S
O194 C187 1.226 . S
O195 Cd186 2.356 . S
O195 C193 1.282 . S
C196 O197 1.306 . S
C196 O199 1.160 . S
O197 C196 1.306 . S
O197 Cd198 2.228 . S
Cd198 O197 2.228 . S
Cd198 O202 2.273 . S
Cd198 O206 2.277 . S
O199 C196 1.160 . S
O199 Cd200 2.203 . S
Cd200 O199 2.203 . S
Cd200 O202 2.411 . S
Cd200 O203 2.333 . S
Cd200 O204 2.352 . S
Cd200 O208 2.277 . S
Cd200 O209 2.356 . S
C201 O206 1.209 . S
C201 O208 1.226 . S
O202 Cd198 2.273 . S
O202 Cd200 2.411 . S
O202 C205 1.320 . S
O203 Cd200 2.333 . S
O203 C205 1.214 . S
O204 Cd200 2.352 . S
O204 C207 1.258 . S
C205 O202 1.320 . S
C205 O203 1.214 . S
O206 Cd198 2.277 . S
O206 C201 1.209 . S
C207 O204 1.258 . S
C207 O209 1.282 . S
O208 Cd200 2.277 . S
O208 C201 1.226 . S
O209 Cd200 2.356 . S
O209 C207 1.282 . S
C210 O211 1.306 . S
C210 O213 1.160 . S
O211 C210 1.306 . S
O211 Cd212 2.228 . S
Cd212 O211 2.228 . S
Cd212 O216 2.273 . S
Cd212 O220 2.277 . S
O213 C210 1.160 . S
O213 Cd214 2.203 . S
Cd214 O213 2.203 . S
Cd214 O216 2.411 . S
Cd214 O217 2.333 . S
Cd214 O218 2.352 . S
Cd214 O222 2.277 . S
Cd214 O223 2.356 . S
C215 O220 1.209 . S
C215 O222 1.226 . S
O216 Cd212 2.273 . S
O216 Cd214 2.411 . S
O216 C219 1.320 . S
O217 Cd214 2.333 . S
O217 C219 1.214 . S
O218 Cd214 2.352 . S
O218 C221 1.258 . S
C219 O216 1.320 . S
C219 O217 1.214 . S
O220 Cd212 2.277 . S
O220 C215 1.209 . S
C221 O218 1.258 . S
C221 O223 1.282 . S
O222 Cd214 2.277 . S
O222 C215 1.226 . S
O223 Cd214 2.356 . S
O223 C221 1.282 . S
C224 O225 1.306 . S
C224 O227 1.160 . S
O225 C224 1.306 . S
O225 Cd226 2.228 1_545 S
Cd226 O225 2.228 1_565 S
Cd226 O230 2.273 1_565 S
Cd226 O234 2.277 . S
O227 C224 1.160 . S
O227 Cd228 2.203 . S
Cd228 O227 2.203 . S
Cd228 O230 2.411 . S
Cd228 O231 2.333 . S
Cd228 O232 2.352 . S
Cd228 O236 2.277 1_545 S
Cd228 O237 2.356 . S
C229 O234 1.209 . S
C229 O236 1.226 . S
O230 Cd226 2.273 1_545 S
O230 Cd228 2.411 . S
O230 C233 1.320 . S
O231 Cd228 2.333 . S
O231 C233 1.214 . S
O232 Cd228 2.352 . S
O232 C235 1.258 . S
C233 O230 1.320 . S
C233 O231 1.214 . S
O234 Cd226 2.277 . S
O234 C229 1.209 . S
C235 O232 1.258 . S
C235 O237 1.282 . S
O236 Cd228 2.277 1_565 S
O236 C229 1.226 . S
O237 Cd228 2.356 . S
O237 C235 1.282 . S
C238 O239 1.306 . S
C238 O241 1.160 . S
O239 C238 1.306 . S
O239 Cd240 2.228 . S
Cd240 O239 2.228 . S
Cd240 O244 2.273 . S
Cd240 O248 2.277 . S
O241 C238 1.160 . S
O241 Cd242 2.203 . S
Cd242 O241 2.203 . S
Cd242 O244 2.411 . S
Cd242 O245 2.333 . S
Cd242 O246 2.352 . S
Cd242 O250 2.277 . S
Cd242 O251 2.356 . S
C243 O248 1.209 . S
C243 O250 1.226 . S
O244 Cd240 2.273 . S
O244 Cd242 2.411 . S
O244 C247 1.320 . S
O245 Cd242 2.333 . S
O245 C247 1.214 . S
O246 Cd242 2.352 . S
O246 C249 1.258 . S
C247 O244 1.320 . S
C247 O245 1.214 . S
O248 Cd240 2.277 . S
O248 C243 1.209 . S
C249 O246 1.258 . S
C249 O251 1.282 . S
O250 Cd242 2.277 . S
O250 C243 1.226 . S
O251 Cd242 2.356 . S
O251 C249 1.282 . S
C252 O253 1.306 . S
C252 O255 1.160 . S
O253 C252 1.306 . S
O253 Cd254 2.228 . S
Cd254 O253 2.228 . S
Cd254 O258 2.273 . S
Cd254 O262 2.277 . S
O255 C252 1.160 . S
O255 Cd256 2.203 . S
Cd256 O255 2.203 . S
Cd256 O258 2.411 . S
Cd256 O259 2.333 . S
Cd256 O260 2.352 . S
Cd256 O264 2.277 . S
Cd256 O265 2.356 . S
C257 O262 1.209 . S
C257 O264 1.226 . S
O258 Cd254 2.273 . S
O258 Cd256 2.411 . S
O258 C261 1.320 . S
O259 Cd256 2.333 . S
O259 C261 1.214 . S
O260 Cd256 2.352 . S
O260 C263 1.258 . S
C261 O258 1.320 . S
C261 O259 1.214 . S
O262 Cd254 2.277 . S
O262 C257 1.209 . S
C263 O260 1.258 . S
C263 O265 1.282 . S
O264 Cd256 2.277 . S
O264 C257 1.226 . S
O265 Cd256 2.356 . S
O265 C263 1.282 . S
C266 O267 1.306 . S
C266 O269 1.160 . S
O267 C266 1.306 . S
O267 Cd268 2.228 . S
Cd268 O267 2.228 . S
Cd268 O272 2.273 . S
Cd268 O276 2.277 . S
O269 C266 1.160 . S
O269 Cd270 2.203 . S
Cd270 O269 2.203 . S
Cd270 O272 2.411 . S
Cd270 O273 2.333 . S
Cd270 O274 2.352 . S
Cd270 O278 2.277 . S
Cd270 O279 2.356 . S
C271 O276 1.209 . S
C271 O278 1.226 . S
O272 Cd268 2.273 . S
O272 Cd270 2.411 . S
O272 C275 1.320 . S
O273 Cd270 2.333 . S
O273 C275 1.214 . S
O274 Cd270 2.352 . S
O274 C277 1.258 . S
C275 O272 1.320 . S
C275 O273 1.214 . S
O276 Cd268 2.277 . S
O276 C271 1.209 . S
C277 O274 1.258 . S
C277 O279 1.282 . S
O278 Cd270 2.277 . S
O278 C271 1.226 . S
O279 Cd270 2.356 . S
O279 C277 1.282 . S
C280 O281 1.306 . S
C280 O283 1.160 . S
O281 C280 1.306 . S
O281 Cd282 2.228 . S
Cd282 O281 2.228 . S
Cd282 O286 2.273 . S
Cd282 O290 2.277 . S
O283 C280 1.160 . S
O283 Cd284 2.203 . S
Cd284 O283 2.203 . S
Cd284 O286 2.411 . S
Cd284 O287 2.333 . S
Cd284 O288 2.352 1_554 S
Cd284 O292 2.277 . S
Cd284 O293 2.356 1_554 S
C285 O290 1.209 . S
C285 O292 1.226 . S
O286 Cd282 2.273 . S
O286 Cd284 2.411 . S
O286 C289 1.320 . S
O287 Cd284 2.333 . S
O287 C289 1.214 . S
O288 Cd284 2.352 1_556 S
O288 C291 1.258 . S
C289 O286 1.320 . S
C289 O287 1.214 . S
O290 Cd282 2.277 . S
O290 C285 1.209 . S
C291 O288 1.258 . S
C291 O293 1.282 . S
O292 Cd284 2.277 . S
O292 C285 1.226 . S
O293 Cd284 2.356 1_556 S
O293 C291 1.282 . S
C294 O295 1.306 . S
C294 O297 1.160 . S
O295 C294 1.306 . S
O295 Cd296 2.228 . S
Cd296 O295 2.228 . S
Cd296 O300 2.273 . S
Cd296 O304 2.277 . S
O297 C294 1.160 . S
O297 Cd298 2.203 . S
Cd298 O297 2.203 . S
Cd298 O300 2.411 . S
Cd298 O301 2.333 . S
Cd298 O302 2.352 . S
Cd298 O306 2.277 . S
Cd298 O307 2.356 . S
C299 O304 1.209 . S
C299 O306 1.226 . S
O300 Cd296 2.273 . S
O300 Cd298 2.411 . S
O300 C303 1.320 . S
O301 Cd298 2.333 . S
O301 C303 1.214 . S
O302 Cd298 2.352 . S
O302 C305 1.258 . S
C303 O300 1.320 . S
C303 O301 1.214 . S
O304 Cd296 2.277 . S
O304 C299 1.209 . S
C305 O302 1.258 . S
C305 O307 1.282 . S
O306 Cd298 2.277 . S
O306 C299 1.226 . S
O307 Cd298 2.356 . S
O307 C305 1.282 . S
C308 O309 1.306 . S
C308 O311 1.160 . S
O309 C308 1.306 . S
O309 Cd310 2.228 . S
Cd310 O309 2.228 . S
Cd310 O314 2.273 . S
Cd310 O318 2.277 . S
O311 C308 1.160 . S
O311 Cd312 2.203 . S
Cd312 O311 2.203 . S
Cd312 O314 2.411 . S
Cd312 O315 2.333 . S
Cd312 O316 2.352 . S
Cd312 O320 2.277 . S
Cd312 O321 2.356 . S
C313 O318 1.209 . S
C313 O320 1.226 . S
O314 Cd310 2.273 . S
O314 Cd312 2.411 . S
O314 C317 1.320 . S
O315 Cd312 2.333 . S
O315 C317 1.214 . S
O316 Cd312 2.352 . S
O316 C319 1.258 . S
C317 O314 1.320 . S
C317 O315 1.214 . S
O318 Cd310 2.277 . S
O318 C313 1.209 . S
C319 O316 1.258 . S
C319 O321 1.282 . S
O320 Cd312 2.277 . S
O320 C313 1.226 . S
O321 Cd312 2.356 . S
O321 C319 1.282 . S
C322 O323 1.306 . S
C322 O325 1.160 . S
O323 C322 1.306 . S
O323 Cd324 2.228 . S
Cd324 O323 2.228 . S
Cd324 O328 2.273 . S
Cd324 O332 2.277 . S
O325 C322 1.160 . S
O325 Cd326 2.203 . S
Cd326 O325 2.203 . S
Cd326 O328 2.411 . S
Cd326 O329 2.333 . S
Cd326 O330 2.352 . S
Cd326 O334 2.277 . S
Cd326 O335 2.356 . S
C327 O332 1.209 . S
C327 O334 1.226 . S
O328 Cd324 2.273 . S
O328 Cd326 2.411 . S
O328 C331 1.320 . S
O329 Cd326 2.333 . S
O329 C331 1.214 . S
O330 Cd326 2.352 . S
O330 C333 1.258 . S
C331 O328 1.320 . S
C331 O329 1.214 . S
O332 Cd324 2.277 . S
O332 C327 1.209 . S
C333 O330 1.258 . S
C333 O335 1.282 . S
O334 Cd326 2.277 . S
O334 C327 1.226 . S
O335 Cd326 2.356 . S
O335 C333 1.282 . S
Eu336 N365 2.600 . S
Eu336 N371 2.562 . S
Eu336 O380 2.462 . S
Eu336 O381 2.373 . S
Eu336 O383 2.432 . S
Eu336 O384 2.291 . S
Eu336 O388 2.335 . S
Eu336 O391 2.372 . S
Eu336 C400 2.787 . S
C337 N338 1.365 . S
C337 C340 1.405 . S
C337 C344 1.448 1_556 S
N338 C337 1.365 . S
N338 C341 1.319 . S
N338 Eu347 2.600 1_566 S
C339 C341 1.397 . S
C339 C342 1.367 . S
C339 H359 0.931 . S
C340 C337 1.405 . S
C340 C342 1.403 . S
C340 C346 1.439 . S
C341 N338 1.319 . S
C341 C339 1.397 . S
C341 H352 0.945 . S
C342 C339 1.367 . S
C342 C340 1.403 . S
C342 H363 0.929 . S
C343 C344 1.430 . S
C343 C345 1.387 1_554 S
C343 C349 1.404 . S
C344 C337 1.448 1_554 S
C344 C343 1.430 . S
C344 N348 1.351 . S
C345 C343 1.387 1_556 S
C345 C346 1.374 . S
C345 H360 0.922 1_556 S
C346 C340 1.439 . S
C346 C345 1.374 . S
C346 H361 0.931 . S
Eu347 N338 2.600 1_544 S
Eu347 N348 2.562 1_545 S
Eu347 O382 2.335 1_655 S
Eu347 O385 2.372 1_654 S
Eu347 O386 2.462 . S
Eu347 O387 2.373 1_645 S
Eu347 O389 2.432 1_554 S
Eu347 O390 2.291 1_655 S
Eu347 C411 2.787 . S
N348 C344 1.351 . S
N348 Eu347 2.562 1_565 S
N348 C350 1.325 . S
C349 C343 1.404 . S
C349 C351 1.366 . S
C349 H357 0.930 . S
C350 N348 1.325 . S
C350 C351 1.416 . S
C350 H356 0.929 . S
C351 C349 1.366 . S
C351 C350 1.416 . S
C351 H353 0.930 . S
H352 C341 0.945 . S
H353 C351 0.930 . S
H354 C369 0.930 . S
H355 C376 0.930 1_556 S
H356 C350 0.929 . S
H357 C349 0.930 . S
H358 C372 0.929 . S
H359 C339 0.931 . S
H360 C345 0.922 1_554 S
H361 C346 0.931 . S
H362 C367 0.931 . S
H363 C342 0.929 . S
H364 C375 0.930 . S
N365 Eu336 2.600 . S
N365 C366 1.365 . S
N365 C369 1.319 . S
C366 N365 1.365 . S
C366 C368 1.405 . S
C366 C374 1.448 . S
C367 H362 0.931 . S
C367 C369 1.397 . S
C367 C370 1.367 . S
C368 C366 1.405 . S
C368 C370 1.403 . S
C368 C401 1.439 . S
C369 H354 0.930 . S
C369 N365 1.319 . S
C369 C367 1.397 . S
C370 C367 1.367 . S
C370 C368 1.403 . S
C370 H377 0.929 . S
N371 Eu336 2.562 . S
N371 C372 1.325 . S
N371 C374 1.351 . S
C372 H358 0.929 . S
C372 N371 1.325 . S
C372 C376 1.416 . S
C373 C374 1.430 . S
C373 C375 1.404 . S
C373 C402 1.387 . S
C374 C366 1.448 . S
C374 N371 1.351 . S
C374 C373 1.430 . S
C375 H364 0.930 . S
C375 C373 1.404 . S
C375 C376 1.366 . S
C376 H355 0.930 1_554 S
C376 C372 1.416 . S
C376 C375 1.366 . S
H377 C370 0.929 . S
H378 C401 0.931 . S
H379 C402 0.931 . S
O380 Eu336 2.462 . S
O380 C400 1.252 . S
O381 Eu336 2.373 . S
O381 C392 1.249 . S
O382 Eu347 2.335 1_455 S
O382 C392 1.264 . S
O383 Eu336 2.432 . S
O383 C400 1.268 . S
O384 Eu336 2.291 . S
O384 C399 1.255 1_554 S
O385 Eu347 2.372 1_456 S
O385 C399 1.257 . S
O386 Eu347 2.462 . S
O386 C411 1.252 . S
O387 Eu347 2.373 1_465 S
O387 C403 1.249 . S
O388 Eu336 2.335 . S
O388 C403 1.264 1_545 S
O389 Eu347 2.432 1_556 S
O389 C411 1.268 1_556 S
O390 Eu347 2.291 1_455 S
O390 C410 1.255 . S
O391 Eu336 2.372 . S
O391 C410 1.257 . S
C392 O381 1.249 . S
C392 O382 1.264 . S
C393 C396 1.382 . S
C393 C398 1.390 . S
C393 C400 1.506 . S
C394 C395 1.398 . S
C394 C398 1.392 . S
C395 C394 1.398 . S
C395 C397 1.372 . S
C395 H412 0.931 . S
C396 C393 1.382 . S
C396 C397 1.390 . S
C396 H413 0.931 . S
C397 C395 1.372 . S
C397 C396 1.390 . S
C397 H414 0.929 . S
C398 C393 1.390 . S
C398 C394 1.392 . S
C398 H415 0.930 . S
C399 O384 1.255 1_556 S
C399 O385 1.257 . S
C400 Eu336 2.787 . S
C400 O380 1.252 . S
C400 O383 1.268 . S
C400 C393 1.506 . S
C401 C368 1.439 . S
C401 H378 0.931 . S
C401 C402 1.374 . S
C402 C373 1.387 . S
C402 H379 0.931 . S
C402 C401 1.374 . S
C403 O387 1.249 . S
C403 O388 1.264 1_565 S
C404 C407 1.382 1_554 S
C404 C408 1.390 . S
C404 C411 1.506 . S
C405 C406 1.398 1_554 S
C405 C408 1.392 . S
C406 C405 1.398 1_556 S
C406 C409 1.372 . S
C406 H416 0.931 . S
C407 C404 1.382 1_556 S
C407 C409 1.390 . S
C407 H417 0.931 . S
C408 C404 1.390 . S
C408 C405 1.392 . S
C408 H418 0.930 . S
C409 C406 1.372 . S
C409 C407 1.390 . S
C409 H419 0.929 . S
C410 O390 1.255 . S
C410 O391 1.257 . S
C411 Eu347 2.787 . S
C411 O386 1.252 . S
C411 O389 1.268 1_554 S
C411 C404 1.506 . S
H412 C395 0.931 . S
H413 C396 0.931 . S
H414 C397 0.929 . S
H415 C398 0.930 . S
H416 C406 0.931 . S
H417 C407 0.931 . S
H418 C408 0.930 . S
H419 C409 0.929 . S
Eu420 N449 2.600 . S
Eu420 N455 2.562 . S
Eu420 O464 2.462 . S
Eu420 O465 2.373 . S
Eu420 O467 2.432 . S
Eu420 O468 2.291 . S
Eu420 O472 2.335 . S
Eu420 O475 2.372 . S
Eu420 C484 2.787 . S
C421 N422 1.365 . S
C421 C424 1.405 . S
C421 C428 1.448 . S
N422 C421 1.365 . S
N422 C425 1.319 . S
N422 Eu431 2.600 . S
C423 C425 1.397 . S
C423 C426 1.367 . S
C423 H443 0.931 . S
C424 C421 1.405 . S
C424 C426 1.403 . S
C424 C430 1.439 . S
C425 N422 1.319 . S
C425 C423 1.397 . S
C425 H436 0.930 . S
C426 C423 1.367 . S
C426 C424 1.403 . S
C426 H447 0.929 . S
C427 C428 1.430 . S
C427 C429 1.387 . S
C427 C433 1.404 . S
C428 C421 1.448 . S
C428 C427 1.430 . S
C428 N432 1.351 . S
C429 C427 1.387 . S
C429 C430 1.374 . S
C429 H444 0.931 . S
C430 C424 1.439 . S
C430 C429 1.374 . S
C430 H445 0.931 . S
Eu431 N422 2.600 . S
Eu431 N432 2.562 . S
Eu431 O466 2.335 . S
Eu431 O469 2.372 . S
Eu431 O470 2.462 . S
Eu431 O471 2.373 . S
Eu431 O473 2.432 . S
Eu431 O474 2.291 . S
Eu431 C495 2.787 . S
N432 C428 1.351 . S
N432 Eu431 2.562 . S
N432 C434 1.325 . S
C433 C427 1.404 . S
C433 C435 1.366 . S
C433 H441 0.930 . S
C434 N432 1.325 . S
C434 C435 1.416 . S
C434 H440 0.929 . S
C435 C433 1.366 . S
C435 C434 1.416 . S
C435 H437 0.930 . S
H436 C425 0.930 . S
H437 C435 0.930 . S
H438 C453 0.930 . S
H439 C460 0.930 . S
H440 C434 0.929 . S
H441 C433 0.930 . S
H442 C456 0.929 . S
H443 C423 0.931 . S
H444 C429 0.931 . S
H445 C430 0.931 . S
H446 C451 0.931 . S
H447 C426 0.929 . S
H448 C459 0.930 . S
N449 Eu420 2.600 . S
N449 C450 1.365 . S
N449 C453 1.319 . S
C450 N449 1.365 . S
C450 C452 1.405 . S
C450 C458 1.448 . S
C451 H446 0.931 . S
C451 C453 1.397 . S
C451 C454 1.367 . S
C452 C450 1.405 . S
C452 C454 1.403 . S
C452 C485 1.439 . S
C453 H438 0.930 . S
C453 N449 1.319 . S
C453 C451 1.397 . S
C454 C451 1.367 . S
C454 C452 1.403 . S
C454 H461 0.929 . S
N455 Eu420 2.562 . S
N455 C456 1.325 . S
N455 C458 1.351 . S
C456 H442 0.929 . S
C456 N455 1.325 . S
C456 C460 1.416 . S
C457 C458 1.430 . S
C457 C459 1.404 . S
C457 C486 1.387 . S
C458 C450 1.448 . S
C458 N455 1.351 . S
C458 C457 1.430 . S
C459 H448 0.930 . S
C459 C457 1.404 . S
C459 C460 1.366 . S
C460 H439 0.930 . S
C460 C456 1.416 . S
C460 C459 1.366 . S
H461 C454 0.929 . S
H462 C485 0.931 . S
H463 C486 0.931 . S
O464 Eu420 2.462 . S
O464 C484 1.252 . S
O465 Eu420 2.373 . S
O465 C476 1.249 . S
O466 Eu431 2.335 . S
O466 C476 1.264 . S
O467 Eu420 2.432 . S
O467 C484 1.268 . S
O468 Eu420 2.291 . S
O468 C483 1.255 . S
O469 Eu431 2.372 . S
O469 C483 1.257 . S
O470 Eu431 2.462 . S
O470 C495 1.252 . S
O471 Eu431 2.373 . S
O471 C487 1.249 . S
O472 Eu420 2.335 . S
O472 C487 1.264 . S
O473 Eu431 2.432 . S
O473 C495 1.268 . S
O474 Eu431 2.291 . S
O474 C494 1.255 . S
O475 Eu420 2.372 . S
O475 C494 1.257 . S
C476 O465 1.249 . S
C476 O466 1.264 . S
C477 C480 1.382 . S
C477 C482 1.390 . S
C477 C484 1.506 . S
C478 C479 1.398 . S
C478 C482 1.392 . S
C479 C478 1.398 . S
C479 C481 1.372 . S
C479 H496 0.931 . S
C480 C477 1.382 . S
C480 C481 1.390 . S
C480 H497 0.931 . S
C481 C479 1.372 . S
C481 C480 1.390 . S
C481 H498 0.929 . S
C482 C477 1.390 . S
C482 C478 1.392 . S
C482 H499 0.930 . S
C483 O468 1.255 . S
C483 O469 1.257 . S
C484 Eu420 2.787 . S
C484 O464 1.252 . S
C484 O467 1.268 . S
C484 C477 1.506 . S
C485 C452 1.439 . S
C485 H462 0.931 . S
C485 C486 1.374 . S
C486 C457 1.387 . S
C486 H463 0.931 . S
C486 C485 1.374 . S
C487 O471 1.249 . S
C487 O472 1.264 . S
C488 C491 1.382 . S
C488 C492 1.390 . S
C488 C495 1.506 . S
C489 C490 1.398 . S
C489 C492 1.392 . S
C490 C489 1.398 . S
C490 C493 1.372 . S
C490 H500 0.931 . S
C491 C488 1.382 . S
C491 C493 1.390 . S
C491 H501 0.931 . S
C492 C488 1.390 . S
C492 C489 1.392 . S
C492 H502 0.930 . S
C493 C490 1.372 . S
C493 C491 1.390 . S
C493 H503 0.929 . S
C494 O474 1.255 . S
C494 O475 1.257 . S
C495 Eu431 2.787 . S
C495 O470 1.252 . S
C495 O473 1.268 . S
C495 C488 1.506 . S
H496 C479 0.931 . S
H497 C480 0.931 . S
H498 C481 0.929 . S
H499 C482 0.930 . S
H500 C490 0.931 . S
H501 C491 0.931 . S
H502 C492 0.930 . S
H503 C493 0.929 . S
Eu504 N533 2.605 . S
Eu504 N539 2.562 1_545 S
Eu504 O548 2.462 . S
Eu504 O549 2.373 1_545 S
Eu504 O551 2.432 . S
Eu504 O552 2.291 . S
Eu504 O556 2.335 . S
Eu504 O559 2.372 . S
Eu504 C568 2.787 . S
C505 N506 1.365 . S
C505 C508 1.405 . S
C505 C512 1.448 . S
N506 C505 1.365 . S
N506 C509 1.319 . S
N506 Eu515 2.600 . S
C507 C509 1.397 . S
C507 C510 1.367 . S
C507 H527 0.931 . S
C508 C505 1.405 . S
C508 C510 1.403 . S
C508 C514 1.439 . S
C509 N506 1.319 . S
C509 C507 1.397 . S
C509 H520 0.930 . S
C510 C507 1.367 . S
C510 C508 1.403 . S
C510 H531 0.929 . S
C511 C512 1.430 . S
C511 C513 1.387 . S
C511 C517 1.404 . S
C512 C505 1.448 . S
C512 C511 1.430 . S
C512 N516 1.351 . S
C513 C511 1.387 . S
C513 C514 1.374 . S
C513 H528 0.931 . S
C514 C508 1.439 . S
C514 C513 1.374 . S
C514 H529 0.931 . S
Eu515 N506 2.600 . S
Eu515 N516 2.562 . S
Eu515 O550 2.335 1_545 S
Eu515 O553 2.372 . S
Eu515 O554 2.462 . S
Eu515 O555 2.373 . S
Eu515 O557 2.432 . S
Eu515 O558 2.291 . S
Eu515 C579 2.787 . S
N516 C512 1.351 . S
N516 Eu515 2.562 . S
N516 C518 1.325 . S
C517 C511 1.404 . S
C517 C519 1.366 . S
C517 H525 0.930 . S
C518 N516 1.325 . S
C518 C519 1.416 . S
C518 H524 0.929 . S
C519 C517 1.366 . S
C519 C518 1.416 . S
C519 H521 0.930 . S
H520 C509 0.930 . S
H521 C519 0.930 . S
H522 C537 0.930 . S
H523 C544 0.930 . S
H524 C518 0.929 . S
H525 C517 0.930 . S
H526 C540 0.929 . S
H527 C507 0.931 . S
H528 C513 0.931 . S
H529 C514 0.931 . S
H530 C535 0.931 . S
H531 C510 0.929 . S
H532 C543 0.930 . S
N533 Eu504 2.605 . S
N533 C534 1.360 1_545 S
N533 C537 1.319 . S
C534 N533 1.360 1_565 S
C534 C536 1.405 . S
C534 C542 1.448 . S
C535 H530 0.931 . S
C535 C537 1.397 1_565 S
C535 C538 1.367 . S
C536 C534 1.405 . S
C536 C538 1.403 . S
C536 C569 1.439 . S
C537 H522 0.930 . S
C537 N533 1.319 . S
C537 C535 1.397 1_545 S
C538 C535 1.367 . S
C538 C536 1.403 . S
C538 H545 0.929 . S
N539 Eu504 2.562 1_565 S
N539 C540 1.325 . S
N539 C542 1.351 . S
C540 H526 0.929 . S
C540 N539 1.325 . S
C540 C544 1.416 . S
C541 C542 1.430 . S
C541 C543 1.404 . S
C541 C570 1.387 . S
C542 C534 1.448 . S
C542 N539 1.351 . S
C542 C541 1.430 . S
C543 H532 0.930 . S
C543 C541 1.404 . S
C543 C544 1.366 . S
C544 H523 0.930 . S
C544 C540 1.416 . S
C544 C543 1.366 . S
H545 C538 0.929 . S
H546 C569 0.931 . S
H547 C570 0.931 . S
O548 Eu504 2.462 . S
O548 C568 1.252 . S
O549 Eu504 2.373 1_565 S
O549 C560 1.249 . S
O550 Eu515 2.335 1_565 S
O550 C560 1.264 . S
O551 Eu504 2.432 . S
O551 C568 1.268 . S
O552 Eu504 2.291 . S
O552 C567 1.255 . S
O553 Eu515 2.372 . S
O553 C567 1.257 . S
O554 Eu515 2.462 . S
O554 C579 1.252 . S
O555 Eu515 2.373 . S
O555 C571 1.249 . S
O556 Eu504 2.335 . S
O556 C571 1.264 . S
O557 Eu515 2.432 . S
O557 C579 1.268 . S
O558 Eu515 2.291 . S
O558 C578 1.255 . S
O559 Eu504 2.372 . S
O559 C578 1.257 . S
C560 O549 1.249 . S
C560 O550 1.264 . S
C561 C564 1.382 . S
C561 C566 1.390 . S
C561 C568 1.506 . S
C562 C563 1.398 . S
C562 C566 1.392 . S
C563 C562 1.398 . S
C563 C565 1.372 . S
C563 H580 0.931 . S
C564 C561 1.382 . S
C564 C565 1.390 . S
C564 H581 0.931 . S
C565 C563 1.372 . S
C565 C564 1.390 . S
C565 H582 0.929 . S
C566 C561 1.390 . S
C566 C562 1.392 . S
C566 H583 0.930 . S
C567 O552 1.255 . S
C567 O553 1.257 . S
C568 Eu504 2.787 . S
C568 O548 1.252 . S
C568 O551 1.268 . S
C568 C561 1.506 . S
C569 C536 1.439 . S
C569 H546 0.931 . S
C569 C570 1.374 . S
C570 C541 1.387 . S
C570 H547 0.931 . S
C570 C569 1.374 . S
C571 O555 1.249 . S
C571 O556 1.264 . S
C572 C575 1.382 . S
C572 C576 1.390 . S
C572 C579 1.506 1_565 S
C573 C574 1.398 . S
C573 C576 1.392 . S
C574 C573 1.398 . S
C574 C577 1.372 . S
C574 H584 0.931 . S
C575 C572 1.382 . S
C575 C577 1.390 . S
C575 H585 0.931 . S
C576 C572 1.390 . S
C576 C573 1.392 . S
C576 H586 0.930 . S
C577 C574 1.372 . S
C577 C575 1.390 . S
C577 H587 0.929 . S
C578 O558 1.255 . S
C578 O559 1.257 . S
C579 Eu515 2.787 . S
C579 O554 1.252 . S
C579 O557 1.268 . S
C579 C572 1.506 1_545 S
H580 C563 0.931 . S
H581 C564 0.931 . S
H582 C565 0.929 . S
H583 C566 0.930 . S
H584 C574 0.931 . S
H585 C575 0.931 . S
H586 C576 0.930 . S
H587 C577 0.929 . S
Eu588 N617 2.600 . S
Eu588 N623 2.562 . S
Eu588 O632 2.462 . S
Eu588 O633 2.373 . S
Eu588 O635 2.432 . S
Eu588 O636 2.291 . S
Eu588 O640 2.335 . S
Eu588 O643 2.372 . S
Eu588 C652 2.787 . S
C589 N590 1.365 . S
C589 C592 1.405 . S
C589 C596 1.448 . S
N590 C589 1.365 . S
N590 C593 1.319 . S
N590 Eu599 2.600 . S
C591 C593 1.397 . S
C591 C594 1.367 . S
C591 H611 0.931 . S
C592 C589 1.405 . S
C592 C594 1.403 . S
C592 C598 1.439 . S
C593 N590 1.319 . S
C593 C591 1.397 . S
C593 H604 0.930 . S
C594 C591 1.367 . S
C594 C592 1.403 . S
C594 H615 0.929 . S
C595 C596 1.430 . S
C595 C597 1.387 . S
C595 C601 1.404 . S
C596 C589 1.448 . S
C596 C595 1.430 . S
C596 N600 1.351 . S
C597 C595 1.387 . S
C597 C598 1.374 . S
C597 H612 0.931 . S
C598 C592 1.439 . S
C598 C597 1.374 . S
C598 H613 0.931 . S
Eu599 N590 2.600 . S
Eu599 N600 2.562 . S
Eu599 O634 2.335 . S
Eu599 O637 2.372 . S
Eu599 O638 2.462 . S
Eu599 O639 2.373 . S
Eu599 O641 2.432 . S
Eu599 O642 2.291 . S
Eu599 C663 2.787 . S
N600 C596 1.351 . S
N600 Eu599 2.562 . S
N600 C602 1.325 . S
C601 C595 1.404 . S
C601 C603 1.366 . S
C601 H609 0.930 . S
C602 N600 1.325 . S
C602 C603 1.416 . S
C602 H608 0.929 . S
C603 C601 1.366 . S
C603 C602 1.416 . S
C603 H605 0.930 . S
H604 C593 0.930 . S
H605 C603 0.930 . S
H606 C621 0.930 . S
H607 C628 0.930 . S
H608 C602 0.929 . S
H609 C601 0.930 . S
H610 C624 0.929 . S
H611 C591 0.931 . S
H612 C597 0.931 . S
H613 C598 0.931 . S
H614 C619 0.931 . S
H615 C594 0.929 . S
H616 C627 0.930 . S
N617 Eu588 2.600 . S
N617 C618 1.365 . S
N617 C621 1.319 . S
C618 N617 1.365 . S
C618 C620 1.405 . S
C618 C626 1.448 . S
C619 H614 0.931 . S
C619 C621 1.397 . S
C619 C622 1.367 . S
C620 C618 1.405 . S
C620 C622 1.403 . S
C620 C653 1.439 . S
C621 H606 0.930 . S
C621 N617 1.319 . S
C621 C619 1.397 . S
C622 C619 1.367 . S
C622 C620 1.403 . S
C622 H629 0.929 . S
N623 Eu588 2.562 . S
N623 C624 1.325 . S
N623 C626 1.351 . S
C624 H610 0.929 . S
C624 N623 1.325 . S
C624 C628 1.416 . S
C625 C626 1.430 . S
C625 C627 1.404 . S
C625 C654 1.387 . S
C626 C618 1.448 . S
C626 N623 1.351 . S
C626 C625 1.430 . S
C627 H616 0.930 . S
C627 C625 1.404 . S
C627 C628 1.366 . S
C628 H607 0.930 . S
C628 C624 1.416 . S
C628 C627 1.366 . S
H629 C622 0.929 . S
H630 C653 0.931 . S
H631 C654 0.931 . S
O632 Eu588 2.462 . S
O632 C652 1.252 . S
O633 Eu588 2.373 . S
O633 C644 1.249 . S
O634 Eu599 2.335 . S
O634 C644 1.264 . S
O635 Eu588 2.432 . S
O635 C652 1.268 . S
O636 Eu588 2.291 . S
O636 C651 1.255 . S
O637 Eu599 2.372 . S
O637 C651 1.257 . S
O638 Eu599 2.462 . S
O638 C663 1.252 . S
O639 Eu599 2.373 . S
O639 C655 1.249 . S
O640 Eu588 2.335 . S
O640 C655 1.264 . S
O641 Eu599 2.432 . S
O641 C663 1.268 . S
O642 Eu599 2.291 . S
O642 C662 1.255 . S
O643 Eu588 2.372 . S
O643 C662 1.257 . S
C644 O633 1.249 . S
C644 O634 1.264 . S
C645 C648 1.382 . S
C645 C650 1.390 . S
C645 C652 1.506 . S
C646 C647 1.398 . S
C646 C650 1.392 . S
C647 C646 1.398 . S
C647 C649 1.372 . S
C647 H664 0.931 . S
C648 C645 1.382 . S
C648 C649 1.390 . S
C648 H665 0.931 . S
C649 C647 1.372 . S
C649 C648 1.390 . S
C649 H666 0.929 . S
C650 C645 1.390 . S
C650 C646 1.392 . S
C650 H667 0.930 . S
C651 O636 1.255 . S
C651 O637 1.257 . S
C652 Eu588 2.787 . S
C652 O632 1.252 . S
C652 O635 1.268 . S
C652 C645 1.506 . S
C653 C620 1.439 . S
C653 H630 0.931 . S
C653 C654 1.374 . S
C654 C625 1.387 . S
C654 H631 0.931 . S
C654 C653 1.374 . S
C655 O639 1.249 . S
C655 O640 1.264 . S
C656 C659 1.382 . S
C656 C660 1.390 . S
C656 C663 1.506 . S
C657 C658 1.398 . S
C657 C660 1.392 . S
C658 C657 1.398 . S
C658 C661 1.372 . S
C658 H668 0.931 . S
C659 C656 1.382 . S
C659 C661 1.390 . S
C659 H669 0.931 . S
C660 C656 1.390 . S
C660 C657 1.392 . S
C660 H670 0.930 . S
C661 C658 1.372 . S
C661 C659 1.390 . S
C661 H671 0.929 . S
C662 O642 1.255 . S
C662 O643 1.257 . S
C663 Eu599 2.787 . S
C663 O638 1.252 . S
C663 O641 1.268 . S
C663 C656 1.506 . S
H664 C647 0.931 . S
H665 C648 0.931 . S
H666 C649 0.929 . S
H667 C650 0.930 . S
H668 C658 0.931 . S
H669 C659 0.931 . S
H670 C660 0.930 . S
H671 C661 0.929 . S
Eu672 N701 2.600 . S
Eu672 N707 2.562 . S
Eu672 O716 2.462 . S
Eu672 O717 2.373 1_565 S
Eu672 O719 2.432 . S
Eu672 O720 2.291 1_565 S
Eu672 O724 2.335 1_565 S
Eu672 O727 2.372 1_565 S
Eu672 C736 2.787 . S
C673 N674 1.365 1_455 S
C673 C676 1.405 1_455 S
C673 C680 1.448 . S
N674 C673 1.365 1_655 S
N674 C677 1.319 . S
N674 Eu683 2.600 1_655 S
C675 C677 1.397 . S
C675 C678 1.367 . S
C675 H695 0.931 . S
C676 C673 1.405 1_655 S
C676 C678 1.403 . S
C676 C682 1.439 1_655 S
C677 N674 1.319 . S
C677 C675 1.397 . S
C677 H688 0.930 . S
C678 C675 1.367 . S
C678 C676 1.403 . S
C678 H699 0.929 . S
C679 C680 1.430 . S
C679 C681 1.387 . S
C679 C685 1.404 . S
C680 C673 1.448 . S
C680 C679 1.430 . S
C680 N684 1.351 . S
C681 C679 1.387 . S
C681 C682 1.374 . S
C681 H696 0.931 . S
C682 C676 1.439 1_455 S
C682 C681 1.374 . S
C682 H697 0.933 1_455 S
Eu683 N674 2.600 1_455 S
Eu683 N684 2.562 . S
Eu683 O718 2.335 . S
Eu683 O721 2.372 1_455 S
Eu683 O722 2.462 . S
Eu683 O723 2.373 . S
Eu683 O725 2.432 1_455 S
Eu683 O726 2.291 . S
Eu683 C747 2.787 . S
N684 C680 1.351 . S
N684 Eu683 2.562 . S
N684 C686 1.325 . S
C685 C679 1.404 . S
C685 C687 1.366 . S
C685 H693 0.930 . S
C686 N684 1.325 . S
C686 C687 1.416 . S
C686 H692 0.929 . S
C687 C685 1.366 . S
C687 C686 1.416 . S
C687 H689 0.930 . S
H688 C677 0.930 . S
H689 C687 0.930 . S
H690 C705 0.930 1_545 S
H691 C712 0.930 . S
H692 C686 0.929 . S
H693 C685 0.930 . S
H694 C708 0.929 1_655 S
H695 C675 0.931 . S
H696 C681 0.931 . S
H697 C682 0.933 1_655 S
H698 C703 0.931 . S
H699 C678 0.929 . S
H700 C711 0.930 1_655 S
N701 Eu672 2.600 . S
N701 C702 1.365 . S
N701 C705 1.319 . S
C702 N701 1.365 . S
C702 C704 1.405 . S
C702 C710 1.448 . S
C703 H698 0.931 . S
C703 C705 1.397 . S
C703 C706 1.367 . S
C704 C702 1.405 . S
C704 C706 1.403 . S
C704 C737 1.439 . S
C705 H690 0.930 1_565 S
C705 N701 1.319 . S
C705 C703 1.397 . S
C706 C703 1.367 . S
C706 C704 1.403 . S
C706 H713 0.929 . S
N707 Eu672 2.562 . S
N707 C708 1.325 . S
N707 C710 1.351 . S
C708 H694 0.929 1_455 S
C708 N707 1.325 . S
C708 C712 1.416 1_455 S
C709 C710 1.430 . S
C709 C711 1.404 . S
C709 C738 1.387 . S
C710 C702 1.448 . S
C710 N707 1.351 . S
C710 C709 1.430 . S
C711 H700 0.930 1_455 S
C711 C709 1.404 . S
C711 C712 1.366 1_455 S
C712 H691 0.930 . S
C712 C708 1.416 1_655 S
C712 C711 1.366 1_655 S
H713 C706 0.929 . S
H714 C737 0.931 . S
H715 C738 0.931 . S
O716 Eu672 2.462 . S
O716 C736 1.252 . S
O717 Eu672 2.373 1_545 S
O717 C728 1.249 . S
O718 Eu683 2.335 . S
O718 C728 1.264 . S
O719 Eu672 2.432 . S
O719 C736 1.268 . S
O720 Eu672 2.291 1_545 S
O720 C735 1.255 1_455 S
O721 Eu683 2.372 1_655 S
O721 C735 1.257 . S
O722 Eu683 2.462 . S
O722 C747 1.252 . S
O723 Eu683 2.373 . S
O723 C739 1.249 . S
O724 Eu672 2.335 1_545 S
O724 C739 1.264 . S
O725 Eu683 2.432 1_655 S
O725 C747 1.268 1_655 S
O726 Eu683 2.291 . S
O726 C746 1.255 . S
O727 Eu672 2.372 1_545 S
O727 C746 1.257 . S
C728 O717 1.249 . S
C728 O718 1.264 . S
C729 C732 1.382 . S
C729 C734 1.390 . S
C729 C736 1.506 . S
C730 C731 1.398 . S
C730 C734 1.392 . S
C731 C730 1.398 . S
C731 C733 1.372 . S
C731 H748 0.931 . S
C732 C729 1.382 . S
C732 C733 1.390 . S
C732 H749 0.931 . S
C733 C731 1.372 . S
C733 C732 1.390 . S
C733 H750 0.929 . S
C734 C729 1.390 . S
C734 C730 1.392 . S
C734 H751 0.930 . S
C735 O720 1.255 1_655 S
C735 O721 1.257 . S
C736 Eu672 2.787 . S
C736 O716 1.252 . S
C736 O719 1.268 . S
C736 C729 1.506 . S
C737 C704 1.439 . S
C737 H714 0.931 . S
C737 C738 1.374 . S
C738 C709 1.387 . S
C738 H715 0.931 . S
C738 C737 1.374 . S
C739 O723 1.249 . S
C739 O724 1.264 . S
C740 C743 1.382 1_455 S
C740 C744 1.390 . S
C740 C747 1.506 . S
C741 C742 1.439 . S
C741 C744 1.392 . S
C742 C741 1.439 . S
C742 C745 1.343 1_455 S
C742 H752 0.919 1_455 S
C743 C740 1.382 1_655 S
C743 C745 1.390 . S
C743 H753 0.931 . S
C744 C740 1.390 . S
C744 C741 1.392 . S
C744 H754 0.930 . S
C745 C742 1.343 1_655 S
C745 C743 1.390 . S
C745 H755 0.929 . S
C746 O726 1.255 . S
C746 O727 1.257 . S
C747 Eu683 2.787 . S
C747 O722 1.252 . S
C747 O725 1.268 1_455 S
C747 C740 1.506 . S
H748 C731 0.931 . S
H749 C732 0.931 . S
H750 C733 0.929 . S
H751 C734 0.930 . S
H752 C742 0.919 1_655 S
H753 C743 0.931 . S
H754 C744 0.930 . S
H755 C745 0.929 . S
Eu756 N785 2.600 . S
Eu756 N791 2.562 . S
Eu756 O800 2.462 . S
Eu756 O801 2.373 . S
Eu756 O803 2.432 . S
Eu756 O804 2.291 . S
Eu756 O808 2.335 . S
Eu756 O811 2.372 . S
Eu756 C820 2.787 . S
C757 N758 1.365 . S
C757 C760 1.405 . S
C757 C764 1.448 . S
N758 C757 1.365 . S
N758 C761 1.319 . S
N758 Eu767 2.600 . S
C759 C761 1.397 . S
C759 C762 1.367 . S
C759 H779 0.931 . S
C760 C757 1.405 . S
C760 C762 1.403 . S
C760 C766 1.439 . S
C761 N758 1.319 . S
C761 C759 1.397 . S
C761 H772 0.930 . S
C762 C759 1.367 . S
C762 C760 1.403 . S
C762 H783 0.929 . S
C763 C764 1.430 . S
C763 C765 1.387 . S
C763 C769 1.404 . S
C764 C757 1.448 . S
C764 C763 1.430 . S
C764 N768 1.351 . S
C765 C763 1.387 . S
C765 C766 1.374 . S
C765 H780 0.931 . S
C766 C760 1.439 . S
C766 C765 1.374 . S
C766 H781 0.931 . S
Eu767 N758 2.600 . S
Eu767 N768 2.562 . S
Eu767 O802 2.335 . S
Eu767 O805 2.372 . S
Eu767 O806 2.462 . S
Eu767 O807 2.373 . S
Eu767 O809 2.432 . S
Eu767 O810 2.291 . S
Eu767 C831 2.787 . S
N768 C764 1.351 . S
N768 Eu767 2.562 . S
N768 C770 1.325 . S
C769 C763 1.404 . S
C769 C771 1.366 . S
C769 H777 0.930 . S
C770 N768 1.325 . S
C770 C771 1.416 . S
C770 H776 0.929 . S
C771 C769 1.366 . S
C771 C770 1.416 . S
C771 H773 0.930 . S
H772 C761 0.930 . S
H773 C771 0.930 . S
H774 C789 0.930 . S
H775 C796 0.930 . S
H776 C770 0.929 . S
H777 C769 0.930 . S
H778 C792 0.929 . S
H779 C759 0.931 . S
H780 C765 0.931 . S
H781 C766 0.931 . S
H782 C787 0.931 . S
H783 C762 0.929 . S
H784 C795 0.930 . S
N785 Eu756 2.600 . S
N785 C786 1.365 . S
N785 C789 1.319 . S
C786 N785 1.365 . S
C786 C788 1.405 . S
C786 C794 1.448 . S
C787 H782 0.931 . S
C787 C789 1.397 . S
C787 C790 1.367 . S
C788 C786 1.405 . S
C788 C790 1.403 . S
C788 C821 1.439 . S
C789 H774 0.930 . S
C789 N785 1.319 . S
C789 C787 1.397 . S
C790 C787 1.367 . S
C790 C788 1.403 . S
C790 H797 0.929 . S
N791 Eu756 2.562 . S
N791 C792 1.325 . S
N791 C794 1.351 . S
C792 H778 0.929 . S
C792 N791 1.325 . S
C792 C796 1.416 . S
C793 C794 1.430 . S
C793 C795 1.404 . S
C793 C822 1.387 . S
C794 C786 1.448 . S
C794 N791 1.351 . S
C794 C793 1.430 . S
C795 H784 0.930 . S
C795 C793 1.404 . S
C795 C796 1.366 . S
C796 H775 0.930 . S
C796 C792 1.416 . S
C796 C795 1.366 . S
H797 C790 0.929 . S
H798 C821 0.931 . S
H799 C822 0.931 . S
O800 Eu756 2.462 . S
O800 C820 1.252 . S
O801 Eu756 2.373 . S
O801 C812 1.249 . S
O802 Eu767 2.335 . S
O802 C812 1.264 . S
O803 Eu756 2.432 . S
O803 C820 1.268 . S
O804 Eu756 2.291 . S
O804 C819 1.255 . S
O805 Eu767 2.372 . S
O805 C819 1.257 . S
O806 Eu767 2.462 . S
O806 C831 1.252 . S
O807 Eu767 2.373 . S
O807 C823 1.249 . S
O808 Eu756 2.335 . S
O808 C823 1.264 . S
O809 Eu767 2.432 . S
O809 C831 1.268 . S
O810 Eu767 2.291 . S
O810 C830 1.255 . S
O811 Eu756 2.372 . S
O811 C830 1.257 . S
C812 O801 1.249 . S
C812 O802 1.264 . S
C813 C816 1.382 . S
C813 C818 1.390 . S
C813 C820 1.506 . S
C814 C815 1.398 . S
C814 C818 1.392 . S
C815 C814 1.398 . S
C815 C817 1.372 . S
C815 H832 0.931 . S
C816 C813 1.382 . S
C816 C817 1.390 . S
C816 H833 0.931 . S
C817 C815 1.372 . S
C817 C816 1.390 . S
C817 H834 0.929 . S
C818 C813 1.390 . S
C818 C814 1.392 . S
C818 H835 0.930 . S
C819 O804 1.255 . S
C819 O805 1.257 . S
C820 Eu756 2.787 . S
C820 O800 1.252 . S
C820 O803 1.268 . S
C820 C813 1.506 . S
C821 C788 1.439 . S
C821 H798 0.931 . S
C821 C822 1.374 . S
C822 C793 1.387 . S
C822 H799 0.931 . S
C822 C821 1.374 . S
C823 O807 1.249 . S
C823 O808 1.264 . S
C824 C827 1.382 . S
C824 C828 1.390 . S
C824 C831 1.506 . S
C825 C826 1.398 . S
C825 C828 1.392 . S
C826 C825 1.398 . S
C826 C829 1.372 . S
C826 H836 0.931 . S
C827 C824 1.382 . S
C827 C829 1.390 . S
C827 H837 0.931 . S
C828 C824 1.390 . S
C828 C825 1.392 . S
C828 H838 0.930 . S
C829 C826 1.372 . S
C829 C827 1.390 . S
C829 H839 0.929 . S
C830 O810 1.255 . S
C830 O811 1.257 . S
C831 Eu767 2.787 . S
C831 O806 1.252 . S
C831 O809 1.268 . S
C831 C824 1.506 . S
H832 C815 0.931 . S
H833 C816 0.931 . S
H834 C817 0.929 . S
H835 C818 0.930 . S
H836 C826 0.931 . S
H837 C827 0.931 . S
H838 C828 0.930 . S
H839 C829 0.929 . S
Eu840 N869 2.600 . S
Eu840 N875 2.562 . S
Eu840 O884 2.462 . S
Eu840 O885 2.373 1_556 S
Eu840 O887 2.432 . S
Eu840 O888 2.296 . S
Eu840 O892 2.335 1_556 S
Eu840 O895 2.372 1_556 S
Eu840 C904 2.787 . S
C841 N842 1.365 1_545 S
C841 C844 1.405 1_545 S
C841 C848 1.448 . S
N842 C841 1.365 1_565 S
N842 C845 1.319 . S
N842 Eu851 2.600 1_565 S
C843 C845 1.397 . S
C843 C846 1.367 . S
C843 H863 0.931 . S
C844 C841 1.405 1_565 S
C844 C846 1.403 . S
C844 C850 1.439 1_565 S
C845 N842 1.319 . S
C845 C843 1.397 . S
C845 H856 0.930 . S
C846 C843 1.367 . S
C846 C844 1.403 . S
C846 H867 0.929 . S
C847 C848 1.430 . S
C847 C849 1.387 . S
C847 C853 1.404 . S
C848 C841 1.448 . S
C848 C847 1.430 . S
C848 N852 1.351 . S
C849 C847 1.387 . S
C849 C850 1.374 . S
C849 H864 0.931 . S
C850 C844 1.439 1_545 S
C850 C849 1.374 . S
C850 H865 0.931 1_545 S
Eu851 N842 2.600 1_545 S
Eu851 N852 2.562 . S
Eu851 O886 2.335 . S
Eu851 O889 2.372 1_545 S
Eu851 O890 2.462 . S
Eu851 O891 2.373 . S
Eu851 O893 2.432 1_545 S
Eu851 O894 2.291 . S
Eu851 C915 2.787 . S
N852 C848 1.351 . S
N852 Eu851 2.562 . S
N852 C854 1.325 . S
C853 C847 1.404 . S
C853 C855 1.366 . S
C853 H861 0.930 . S
C854 N852 1.325 . S
C854 C855 1.416 . S
C854 H860 0.929 . S
C855 C853 1.366 . S
C855 C854 1.416 . S
C855 H857 0.930 . S
H856 C845 0.930 . S
H857 C855 0.930 . S
H858 C873 0.930 1_554 S
H859 C880 0.930 . S
H860 C854 0.929 . S
H861 C853 0.930 . S
H862 C876 0.925 . S
H863 C843 0.931 . S
H864 C849 0.931 . S
H865 C850 0.931 1_565 S
H866 C871 0.931 . S
H867 C846 0.929 . S
H868 C879 0.930 1_565 S
N869 Eu840 2.600 . S
N869 C870 1.365 . S
N869 C873 1.319 . S
C870 N869 1.365 . S
C870 C872 1.405 . S
C870 C878 1.448 . S
C871 H866 0.931 . S
C871 C873 1.397 . S
C871 C874 1.367 . S
C872 C870 1.405 . S
C872 C874 1.403 . S
C872 C905 1.439 . S
C873 H858 0.930 1_556 S
C873 N869 1.319 . S
C873 C871 1.397 . S
C874 C871 1.367 . S
C874 C872 1.403 . S
C874 H881 0.929 . S
N875 Eu840 2.562 . S
N875 C876 1.325 . S
N875 C878 1.351 . S
C876 H862 0.925 . S
C876 N875 1.325 . S
C876 C880 1.416 1_545 S
C877 C878 1.430 . S
C877 C879 1.404 . S
C877 C906 1.387 . S
C878 C870 1.448 . S
C878 N875 1.351 . S
C878 C877 1.430 . S
C879 H868 0.930 1_545 S
C879 C877 1.404 . S
C879 C880 1.366 1_545 S
C880 H859 0.930 . S
C880 C876 1.416 1_565 S
C880 C879 1.366 1_565 S
H881 C874 0.929 . S
H882 C905 0.931 . S
H883 C906 0.931 . S
O884 Eu840 2.462 . S
O884 C904 1.252 . S
O885 Eu840 2.373 1_554 S
O885 C896 1.249 . S
O886 Eu851 2.335 . S
O886 C896 1.264 . S
O887 Eu840 2.432 . S
O887 C904 1.268 . S
O888 Eu840 2.296 . S
O888 C903 1.245 1_546 S
O889 Eu851 2.372 1_565 S
O889 C903 1.257 . S
O890 Eu851 2.462 . S
O890 C915 1.252 . S
O891 Eu851 2.373 . S
O891 C907 1.249 . S
O892 Eu840 2.335 1_554 S
O892 C907 1.264 . S
O893 Eu851 2.432 1_565 S
O893 C915 1.268 1_565 S
O894 Eu851 2.291 . S
O894 C914 1.255 . S
O895 Eu840 2.372 1_554 S
O895 C914 1.257 . S
C896 O885 1.249 . S
C896 O886 1.264 . S
C897 C900 1.382 . S
C897 C902 1.390 . S
C897 C904 1.506 . S
C898 C899 1.398 . S
C898 C902 1.392 . S
C899 C898 1.398 . S
C899 C901 1.372 . S
C899 H916 0.931 . S
C900 C897 1.382 . S
C900 C901 1.390 . S
C900 H917 0.931 . S
C901 C899 1.372 . S
C901 C900 1.390 . S
C901 H918 0.929 . S
C902 C897 1.390 . S
C902 C898 1.392 . S
C902 H919 0.930 . S
C903 O888 1.245 1_564 S
C903 O889 1.257 . S
C904 Eu840 2.787 . S
C904 O884 1.252 . S
C904 O887 1.268 . S
C904 C897 1.506 . S
C905 C872 1.439 . S
C905 H882 0.931 . S
C905 C906 1.374 . S
C906 C877 1.387 . S
C906 H883 0.931 . S
C906 C905 1.374 . S
C907 O891 1.249 . S
C907 O892 1.264 . S
C908 C911 1.382 . S
C908 C912 1.390 1_565 S
C908 C915 1.506 1_565 S
C909 C910 1.398 1_545 S
C909 C912 1.392 . S
C910 C909 1.398 1_565 S
C910 C913 1.372 . S
C910 H920 0.931 . S
C911 C908 1.382 . S
C911 C913 1.390 . S
C911 H921 0.931 . S
C912 C908 1.390 1_545 S
C912 C909 1.392 . S
C912 H922 0.930 . S
C913 C910 1.372 . S
C913 C911 1.390 . S
C913 H923 0.929 . S
C914 O894 1.255 . S
C914 O895 1.257 . S
C915 Eu851 2.787 . S
C915 O890 1.252 . S
C915 O893 1.268 1_545 S
C915 C908 1.506 1_545 S
H916 C899 0.931 . S
H917 C900 0.931 . S
H918 C901 0.929 . S
H919 C902 0.930 . S
H920 C910 0.931 . S
H921 C911 0.931 . S
H922 C912 0.930 . S
H923 C913 0.929 . S
Eu924 N953 2.600 . S
Eu924 N959 2.562 . S
Eu924 O968 2.462 . S
Eu924 O969 2.373 . S
Eu924 O971 2.432 . S
Eu924 O972 2.291 . S
Eu924 O976 2.335 . S
Eu924 O979 2.372 . S
Eu924 C988 2.787 . S
C925 N926 1.365 . S
C925 C928 1.405 . S
C925 C932 1.448 . S
N926 C925 1.365 . S
N926 C929 1.319 . S
N926 Eu935 2.600 . S
C927 C929 1.397 . S
C927 C930 1.367 . S
C927 H947 0.931 . S
C928 C925 1.405 . S
C928 C930 1.403 . S
C928 C934 1.439 . S
C929 N926 1.319 . S
C929 C927 1.397 . S
C929 H940 0.930 . S
C930 C927 1.367 . S
C930 C928 1.403 . S
C930 H951 0.929 . S
C931 C932 1.430 . S
C931 C933 1.387 . S
C931 C937 1.404 . S
C932 C925 1.448 . S
C932 C931 1.430 . S
C932 N936 1.351 . S
C933 C931 1.387 . S
C933 C934 1.374 . S
C933 H948 0.931 . S
C934 C928 1.439 . S
C934 C933 1.374 . S
C934 H949 0.931 . S
Eu935 N926 2.600 . S
Eu935 N936 2.562 . S
Eu935 O970 2.335 . S
Eu935 O973 2.372 . S
Eu935 O974 2.462 . S
Eu935 O975 2.373 . S
Eu935 O977 2.432 . S
Eu935 O978 2.291 . S
Eu935 C999 2.787 . S
N936 C932 1.351 . S
N936 Eu935 2.562 . S
N936 C938 1.325 . S
C937 C931 1.404 . S
C937 C939 1.366 . S
C937 H945 0.930 . S
C938 N936 1.325 . S
C938 C939 1.416 . S
C938 H944 0.929 . S
C939 C937 1.366 . S
C939 C938 1.416 . S
C939 H941 0.930 . S
H940 C929 0.930 . S
H941 C939 0.930 . S
H942 C957 0.930 . S
H943 C964 0.930 . S
H944 C938 0.929 . S
H945 C937 0.930 . S
H946 C960 0.929 . S
H947 C927 0.931 . S
H948 C933 0.931 . S
H949 C934 0.931 . S
H950 C955 0.931 . S
H951 C930 0.929 . S
H952 C963 0.930 . S
N953 Eu924 2.600 . S
N953 C954 1.365 . S
N953 C957 1.319 . S
C954 N953 1.365 . S
C954 C956 1.405 . S
C954 C962 1.448 . S
C955 H950 0.931 . S
C955 C957 1.397 . S
C955 C958 1.367 . S
C956 C954 1.405 . S
C956 C958 1.403 . S
C956 C989 1.439 . S
C957 H942 0.930 . S
C957 N953 1.319 . S
C957 C955 1.397 . S
C958 C955 1.367 . S
C958 C956 1.403 . S
C958 H965 0.929 . S
N959 Eu924 2.562 . S
N959 C960 1.325 . S
N959 C962 1.351 . S
C960 H946 0.929 . S
C960 N959 1.325 . S
C960 C964 1.416 . S
C961 C962 1.430 . S
C961 C963 1.404 . S
C961 C990 1.387 . S
C962 C954 1.448 . S
C962 N959 1.351 . S
C962 C961 1.430 . S
C963 H952 0.930 . S
C963 C961 1.404 . S
C963 C964 1.366 . S
C964 H943 0.930 . S
C964 C960 1.416 . S
C964 C963 1.366 . S
H965 C958 0.929 . S
H966 C989 0.931 . S
H967 C990 0.931 . S
O968 Eu924 2.462 . S
O968 C988 1.252 . S
O969 Eu924 2.373 . S
O969 C980 1.249 . S
O970 Eu935 2.335 . S
O970 C980 1.264 . S
O971 Eu924 2.432 . S
O971 C988 1.268 . S
O972 Eu924 2.291 . S
O972 C987 1.255 . S
O973 Eu935 2.372 . S
O973 C987 1.257 . S
O974 Eu935 2.462 . S
O974 C999 1.252 . S
O975 Eu935 2.373 . S
O975 C991 1.249 . S
O976 Eu924 2.335 . S
O976 C991 1.264 . S
O977 Eu935 2.432 . S
O977 C999 1.268 . S
O978 Eu935 2.291 . S
O978 C998 1.255 . S
O979 Eu924 2.372 . S
O979 C998 1.257 . S
C980 O969 1.249 . S
C980 O970 1.264 . S
C981 C984 1.382 . S
C981 C986 1.390 . S
C981 C988 1.506 . S
C982 C983 1.398 . S
C982 C986 1.392 . S
C983 C982 1.398 . S
C983 C985 1.372 . S
C983 H1000 0.931 . S
C984 C981 1.382 . S
C984 C985 1.390 . S
C984 H1001 0.931 . S
C985 C983 1.372 . S
C985 C984 1.390 . S
C985 H1002 0.929 . S
C986 C981 1.390 . S
C986 C982 1.392 . S
C986 H1003 0.930 . S
C987 O972 1.255 . S
C987 O973 1.257 . S
C988 Eu924 2.787 . S
C988 O968 1.252 . S
C988 O971 1.268 . S
C988 C981 1.506 . S
C989 C956 1.439 . S
C989 H966 0.931 . S
C989 C990 1.374 . S
C990 C961 1.387 . S
C990 H967 0.931 . S
C990 C989 1.374 . S
C991 O975 1.249 . S
C991 O976 1.264 . S
C992 C995 1.382 . S
C992 C996 1.390 . S
C992 C999 1.506 . S
C993 C994 1.398 . S
C993 C996 1.392 . S
C994 C993 1.398 . S
C994 C997 1.372 . S
C994 H1004 0.931 . S
C995 C992 1.382 . S
C995 C997 1.390 . S
C995 H1005 0.931 . S
C996 C992 1.390 . S
C996 C993 1.392 . S
C996 H1006 0.930 . S
C997 C994 1.372 . S
C997 C995 1.390 . S
C997 H1007 0.929 . S
C998 O978 1.255 . S
C998 O979 1.257 . S
C999 Eu935 2.787 . S
C999 O974 1.252 . S
C999 O977 1.268 . S
C999 C992 1.506 . S
H1000 C983 0.931 . S
H1001 C984 0.931 . S
H1002 C985 0.929 . S
H1003 C986 0.930 . S
H1004 C994 0.931 . S
H1005 C995 0.931 . S
H1006 C996 0.930 . S
H1007 C997 0.929 . S
Eu1008 N1037 2.600 1_554 S
Eu1008 N1043 2.562 1_554 S
Eu1008 O1052 2.462 . S
Eu1008 O1053 2.373 1_554 S
Eu1008 O1055 2.432 . S
Eu1008 O1056 2.291 . S
Eu1008 O1060 2.335 . S
Eu1008 O1063 2.372 . S
Eu1008 C1072 2.787 . S
C1009 N1010 1.365 . S
C1009 C1012 1.405 . S
C1009 C1016 1.448 . S
N1010 C1009 1.365 . S
N1010 C1013 1.319 . S
N1010 Eu1019 2.600 . S
C1011 C1013 1.397 . S
C1011 C1014 1.367 . S
C1011 H1031 0.931 . S
C1012 C1009 1.405 . S
C1012 C1014 1.403 . S
C1012 C1018 1.439 . S
C1013 N1010 1.319 . S
C1013 C1011 1.397 . S
C1013 H1024 0.930 . S
C1014 C1011 1.367 . S
C1014 C1012 1.403 . S
C1014 H1035 0.929 . S
C1015 C1016 1.430 . S
C1015 C1017 1.387 . S
C1015 C1021 1.404 . S
C1016 C1009 1.448 . S
C1016 C1015 1.430 . S
C1016 N1020 1.351 . S
C1017 C1015 1.387 . S
C1017 C1018 1.374 . S
C1017 H1032 0.931 . S
C1018 C1012 1.439 . S
C1018 C1017 1.374 . S
C1018 H1033 0.931 . S
Eu1019 N1010 2.600 . S
Eu1019 N1020 2.562 . S
Eu1019 O1054 2.335 1_554 S
Eu1019 O1057 2.372 . S
Eu1019 O1058 2.462 . S
Eu1019 O1059 2.373 . S
Eu1019 O1061 2.432 . S
Eu1019 O1062 2.291 . S
Eu1019 C1083 2.787 . S
N1020 C1016 1.351 . S
N1020 Eu1019 2.562 . S
N1020 C1022 1.325 . S
C1021 C1015 1.404 . S
C1021 C1023 1.366 . S
C1021 H1029 0.930 . S
C1022 N1020 1.325 . S
C1022 C1023 1.416 . S
C1022 H1028 0.929 . S
C1023 C1021 1.366 . S
C1023 C1022 1.416 . S
C1023 H1025 0.930 . S
H1024 C1013 0.930 . S
H1025 C1023 0.930 . S
H1026 C1041 0.930 1_554 S
H1027 C1048 0.930 . S
H1028 C1022 0.929 . S
H1029 C1021 0.930 . S
H1030 C1044 0.929 1_554 S
H1031 C1011 0.931 . S
H1032 C1017 0.931 . S
H1033 C1018 0.931 . S
H1034 C1039 0.931 . S
H1035 C1014 0.929 . S
H1036 C1047 0.930 . S
N1037 Eu1008 2.600 1_556 S
N1037 C1038 1.365 . S
N1037 C1041 1.319 . S
C1038 N1037 1.365 . S
C1038 C1040 1.405 . S
C1038 C1046 1.448 . S
C1039 H1034 0.931 . S
C1039 C1041 1.397 . S
C1039 C1042 1.367 . S
C1040 C1038 1.405 . S
C1040 C1042 1.403 . S
C1040 C1073 1.439 . S
C1041 H1026 0.930 1_556 S
C1041 N1037 1.319 . S
C1041 C1039 1.397 . S
C1042 C1039 1.367 . S
C1042 C1040 1.403 . S
C1042 H1049 0.929 . S
N1043 Eu1008 2.562 1_556 S
N1043 C1044 1.325 . S
N1043 C1046 1.351 . S
C1044 H1030 0.929 1_556 S
C1044 N1043 1.325 . S
C1044 C1048 1.416 . S
C1045 C1046 1.430 . S
C1045 C1047 1.404 . S
C1045 C1074 1.387 . S
C1046 C1038 1.448 . S
C1046 N1043 1.351 . S
C1046 C1045 1.430 . S
C1047 H1036 0.930 . S
C1047 C1045 1.404 . S
C1047 C1048 1.366 . S
C1048 H1027 0.930 . S
C1048 C1044 1.416 . S
C1048 C1047 1.366 . S
H1049 C1042 0.929 . S
H1050 C1073 0.931 . S
H1051 C1074 0.931 . S
O1052 Eu1008 2.462 . S
O1052 C1072 1.252 . S
O1053 Eu1008 2.373 1_556 S
O1053 C1064 1.249 . S
O1054 Eu1019 2.335 1_556 S
O1054 C1064 1.264 . S
O1055 Eu1008 2.432 . S
O1055 C1072 1.268 . S
O1056 Eu1008 2.291 . S
O1056 C1071 1.255 . S
O1057 Eu1019 2.372 . S
O1057 C1071 1.257 . S
O1058 Eu1019 2.462 . S
O1058 C1083 1.252 . S
O1059 Eu1019 2.373 . S
O1059 C1075 1.249 . S
O1060 Eu1008 2.335 . S
O1060 C1075 1.264 . S
O1061 Eu1019 2.432 . S
O1061 C1083 1.268 . S
O1062 Eu1019 2.291 . S
O1062 C1082 1.255 . S
O1063 Eu1008 2.372 . S
O1063 C1082 1.257 . S
C1064 O1053 1.249 . S
C1064 O1054 1.264 . S
C1065 C1068 1.382 . S
C1065 C1070 1.390 . S
C1065 C1072 1.506 . S
C1066 C1067 1.398 . S
C1066 C1070 1.392 . S
C1067 C1066 1.398 . S
C1067 C1069 1.372 . S
C1067 H1084 0.931 . S
C1068 C1065 1.382 . S
C1068 C1069 1.390 . S
C1068 H1085 0.931 . S
C1069 C1067 1.372 . S
C1069 C1068 1.390 . S
C1069 H1086 0.929 . S
C1070 C1065 1.390 . S
C1070 C1066 1.392 . S
C1070 H1087 0.930 . S
C1071 O1056 1.255 . S
C1071 O1057 1.257 . S
C1072 Eu1008 2.787 . S
C1072 O1052 1.252 . S
C1072 O1055 1.268 . S
C1072 C1065 1.506 . S
C1073 C1040 1.439 . S
C1073 H1050 0.931 . S
C1073 C1074 1.374 . S
C1074 C1045 1.387 . S
C1074 H1051 0.931 . S
C1074 C1073 1.374 . S
C1075 O1059 1.249 . S
C1075 O1060 1.264 . S
C1076 C1079 1.382 . S
C1076 C1080 1.390 . S
C1076 C1083 1.506 1_556 S
C1077 C1078 1.398 . S
C1077 C1080 1.392 . S
C1078 C1077 1.398 . S
C1078 C1081 1.372 . S
C1078 H1088 0.931 . S
C1079 C1076 1.382 . S
C1079 C1081 1.390 . S
C1079 H1089 0.922 1_556 S
C1080 C1076 1.390 . S
C1080 C1077 1.392 . S
C1080 H1090 0.930 . S
C1081 C1078 1.372 . S
C1081 C1079 1.390 . S
C1081 H1091 0.929 . S
C1082 O1062 1.255 . S
C1082 O1063 1.257 . S
C1083 Eu1019 2.787 . S
C1083 O1058 1.252 . S
C1083 O1061 1.268 . S
C1083 C1076 1.506 1_554 S
H1084 C1067 0.931 . S
H1085 C1068 0.931 . S
H1086 C1069 0.929 . S
H1087 C1070 0.930 . S
H1088 C1078 0.931 . S
H1089 C1079 0.922 1_554 S
H1090 C1080 0.930 . S
H1091 C1081 0.929 . S
Eu1092 N1121 2.600 . S
Eu1092 N1127 2.562 . S
Eu1092 O1136 2.462 . S
Eu1092 O1137 2.373 . S
Eu1092 O1139 2.432 . S
Eu1092 O1140 2.291 . S
Eu1092 O1144 2.335 . S
Eu1092 O1147 2.372 . S
Eu1092 C1156 2.787 . S
C1093 N1094 1.365 . S
C1093 C1096 1.405 . S
C1093 C1100 1.448 . S
N1094 C1093 1.365 . S
N1094 C1097 1.319 . S
N1094 Eu1103 2.600 . S
C1095 C1097 1.397 . S
C1095 C1098 1.367 . S
C1095 H1115 0.931 . S
C1096 C1093 1.405 . S
C1096 C1098 1.403 . S
C1096 C1102 1.439 . S
C1097 N1094 1.319 . S
C1097 C1095 1.397 . S
C1097 H1108 0.930 . S
C1098 C1095 1.367 . S
C1098 C1096 1.403 . S
C1098 H1119 0.929 . S
C1099 C1100 1.430 . S
C1099 C1101 1.387 . S
C1099 C1105 1.404 . S
C1100 C1093 1.448 . S
C1100 C1099 1.430 . S
C1100 N1104 1.351 . S
C1101 C1099 1.387 . S
C1101 C1102 1.374 . S
C1101 H1116 0.931 . S
C1102 C1096 1.439 . S
C1102 C1101 1.374 . S
C1102 H1117 0.931 . S
Eu1103 N1094 2.600 . S
Eu1103 N1104 2.562 . S
Eu1103 O1138 2.335 . S
Eu1103 O1141 2.372 . S
Eu1103 O1142 2.462 . S
Eu1103 O1143 2.373 . S
Eu1103 O1145 2.432 . S
Eu1103 O1146 2.291 . S
Eu1103 C1167 2.787 . S
N1104 C1100 1.351 . S
N1104 Eu1103 2.562 . S
N1104 C1106 1.325 . S
C1105 C1099 1.404 . S
C1105 C1107 1.366 . S
C1105 H1113 0.930 . S
C1106 N1104 1.325 . S
C1106 C1107 1.416 . S
C1106 H1112 0.929 . S
C1107 C1105 1.366 . S
C1107 C1106 1.416 . S
C1107 H1109 0.930 . S
H1108 C1097 0.930 . S
H1109 C1107 0.930 . S
H1110 C1125 0.930 . S
H1111 C1132 0.930 . S
H1112 C1106 0.929 . S
H1113 C1105 0.930 . S
H1114 C1128 0.929 . S
H1115 C1095 0.931 . S
H1116 C1101 0.931 . S
H1117 C1102 0.931 . S
H1118 C1123 0.931 . S
H1119 C1098 0.929 . S
H1120 C1131 0.930 . S
N1121 Eu1092 2.600 . S
N1121 C1122 1.365 . S
N1121 C1125 1.319 . S
C1122 N1121 1.365 . S
C1122 C1124 1.405 . S
C1122 C1130 1.448 . S
C1123 H1118 0.931 . S
C1123 C1125 1.397 . S
C1123 C1126 1.367 . S
C1124 C1122 1.405 . S
C1124 C1126 1.403 . S
C1124 C1157 1.439 . S
C1125 H1110 0.930 . S
C1125 N1121 1.319 . S
C1125 C1123 1.397 . S
C1126 C1123 1.367 . S
C1126 C1124 1.403 . S
C1126 H1133 0.929 . S
N1127 Eu1092 2.562 . S
N1127 C1128 1.325 . S
N1127 C1130 1.351 . S
C1128 H1114 0.929 . S
C1128 N1127 1.325 . S
C1128 C1132 1.416 . S
C1129 C1130 1.430 . S
C1129 C1131 1.404 . S
C1129 C1158 1.387 . S
C1130 C1122 1.448 . S
C1130 N1127 1.351 . S
C1130 C1129 1.430 . S
C1131 H1120 0.930 . S
C1131 C1129 1.404 . S
C1131 C1132 1.366 . S
C1132 H1111 0.930 . S
C1132 C1128 1.416 . S
C1132 C1131 1.366 . S
H1133 C1126 0.929 . S
H1134 C1157 0.931 . S
H1135 C1158 0.931 . S
O1136 Eu1092 2.462 . S
O1136 C1156 1.252 . S
O1137 Eu1092 2.373 . S
O1137 C1148 1.249 . S
O1138 Eu1103 2.335 . S
O1138 C1148 1.264 . S
O1139 Eu1092 2.432 . S
O1139 C1156 1.268 . S
O1140 Eu1092 2.291 . S
O1140 C1155 1.255 . S
O1141 Eu1103 2.372 . S
O1141 C1155 1.257 . S
O1142 Eu1103 2.462 . S
O1142 C1167 1.252 . S
O1143 Eu1103 2.373 . S
O1143 C1159 1.249 . S
O1144 Eu1092 2.335 . S
O1144 C1159 1.264 . S
O1145 Eu1103 2.432 . S
O1145 C1167 1.268 . S
O1146 Eu1103 2.291 . S
O1146 C1166 1.255 . S
O1147 Eu1092 2.372 . S
O1147 C1166 1.257 . S
C1148 O1137 1.249 . S
C1148 O1138 1.264 . S
C1149 C1152 1.382 . S
C1149 C1154 1.390 . S
C1149 C1156 1.506 . S
C1150 C1151 1.398 . S
C1150 C1154 1.392 . S
C1151 C1150 1.398 . S
C1151 C1153 1.372 . S
C1151 H1168 0.931 . S
C1152 C1149 1.382 . S
C1152 C1153 1.390 . S
C1152 H1169 0.931 . S
C1153 C1151 1.372 . S
C1153 C1152 1.390 . S
C1153 H1170 0.929 . S
C1154 C1149 1.390 . S
C1154 C1150 1.392 . S
C1154 H1171 0.930 . S
C1155 O1140 1.255 . S
C1155 O1141 1.257 . S
C1156 Eu1092 2.787 . S
C1156 O1136 1.252 . S
C1156 O1139 1.268 . S
C1156 C1149 1.506 . S
C1157 C1124 1.439 . S
C1157 H1134 0.931 . S
C1157 C1158 1.374 . S
C1158 C1129 1.387 . S
C1158 H1135 0.931 . S
C1158 C1157 1.374 . S
C1159 O1143 1.249 . S
C1159 O1144 1.264 . S
C1160 C1163 1.382 . S
C1160 C1164 1.390 . S
C1160 C1167 1.506 . S
C1161 C1162 1.398 . S
C1161 C1164 1.392 . S
C1162 C1161 1.398 . S
C1162 C1165 1.372 . S
C1162 H1172 0.931 . S
C1163 C1160 1.382 . S
C1163 C1165 1.390 . S
C1163 H1173 0.931 . S
C1164 C1160 1.390 . S
C1164 C1161 1.392 . S
C1164 H1174 0.930 . S
C1165 C1162 1.372 . S
C1165 C1163 1.390 . S
C1165 H1175 0.929 . S
C1166 O1146 1.255 . S
C1166 O1147 1.257 . S
C1167 Eu1103 2.787 . S
C1167 O1142 1.252 . S
C1167 O1145 1.268 . S
C1167 C1160 1.506 . S
H1168 C1151 0.931 . S
H1169 C1152 0.931 . S
H1170 C1153 0.929 . S
H1171 C1154 0.930 . S
H1172 C1162 0.931 . S
H1173 C1163 0.931 . S
H1174 C1164 0.930 . S
H1175 C1165 0.929 . S
Eu1176 N1205 2.600 1_455 S
Eu1176 N1211 2.562 1_455 S
Eu1176 O1220 2.462 . S
Eu1176 O1221 2.373 1_455 S
Eu1176 O1223 2.432 . S
Eu1176 O1224 2.291 . S
Eu1176 O1228 2.335 . S
Eu1176 O1231 2.372 . S
Eu1176 C1240 2.787 . S
C1177 N1178 1.365 . S
C1177 C1180 1.405 . S
C1177 C1184 1.448 . S
N1178 C1177 1.365 . S
N1178 C1181 1.319 . S
N1178 Eu1187 2.600 . S
C1179 C1181 1.397 . S
C1179 C1182 1.367 . S
C1179 H1199 0.931 . S
C1180 C1177 1.405 . S
C1180 C1182 1.403 . S
C1180 C1186 1.439 . S
C1181 N1178 1.319 . S
C1181 C1179 1.397 . S
C1181 H1192 0.930 . S
C1182 C1179 1.367 . S
C1182 C1180 1.403 . S
C1182 H1203 0.929 . S
C1183 C1184 1.430 . S
C1183 C1185 1.387 . S
C1183 C1189 1.404 . S
C1184 C1177 1.448 . S
C1184 C1183 1.430 . S
C1184 N1188 1.351 . S
C1185 C1183 1.387 . S
C1185 C1186 1.374 . S
C1185 H1200 0.931 . S
C1186 C1180 1.439 . S
C1186 C1185 1.374 . S
C1186 H1201 0.931 . S
Eu1187 N1178 2.600 . S
Eu1187 N1188 2.562 . S
Eu1187 O1222 2.335 1_455 S
Eu1187 O1225 2.372 . S
Eu1187 O1226 2.462 . S
Eu1187 O1227 2.373 . S
Eu1187 O1229 2.432 . S
Eu1187 O1230 2.291 . S
Eu1187 C1251 2.787 . S
N1188 C1184 1.351 . S
N1188 Eu1187 2.562 . S
N1188 C1190 1.325 . S
C1189 C1183 1.404 . S
C1189 C1191 1.366 . S
C1189 H1197 0.930 . S
C1190 N1188 1.325 . S
C1190 C1191 1.416 . S
C1190 H1196 0.929 . S
C1191 C1189 1.366 . S
C1191 C1190 1.416 . S
C1191 H1193 0.930 . S
H1192 C1181 0.930 . S
H1193 C1191 0.930 . S
H1194 C1209 0.921 1_455 S
H1195 C1216 0.930 . S
H1196 C1190 0.929 . S
H1197 C1189 0.930 . S
H1198 C1212 0.929 1_455 S
H1199 C1179 0.931 . S
H1200 C1185 0.931 . S
H1201 C1186 0.931 . S
H1202 C1207 0.931 . S
H1203 C1182 0.929 . S
H1204 C1215 0.930 . S
N1205 Eu1176 2.600 1_655 S
N1205 C1206 1.365 . S
N1205 C1209 1.316 . S
C1206 N1205 1.365 . S
C1206 C1208 1.405 . S
C1206 C1214 1.448 . S
C1207 H1202 0.931 . S
C1207 C1209 1.408 . S
C1207 C1210 1.367 . S
C1208 C1206 1.405 . S
C1208 C1210 1.403 . S
C1208 C1241 1.439 . S
C1209 H1194 0.921 1_655 S
C1209 N1205 1.316 . S
C1209 C1207 1.408 . S
C1210 C1207 1.367 . S
C1210 C1208 1.403 . S
C1210 H1217 0.929 . S
N1211 Eu1176 2.562 1_655 S
N1211 C1212 1.325 . S
N1211 C1214 1.351 . S
C1212 H1198 0.929 1_655 S
C1212 N1211 1.325 . S
C1212 C1216 1.416 . S
C1213 C1214 1.430 . S
C1213 C1215 1.404 . S
C1213 C1242 1.387 . S
C1214 C1206 1.448 . S
C1214 N1211 1.351 . S
C1214 C1213 1.430 . S
C1215 H1204 0.930 . S
C1215 C1213 1.404 . S
C1215 C1216 1.366 . S
C1216 H1195 0.930 . S
C1216 C1212 1.416 . S
C1216 C1215 1.366 . S
H1217 C1210 0.929 . S
H1218 C1241 0.931 . S
H1219 C1242 0.931 . S
O1220 Eu1176 2.462 . S
O1220 C1240 1.252 . S
O1221 Eu1176 2.373 1_655 S
O1221 C1232 1.249 . S
O1222 Eu1187 2.335 1_655 S
O1222 C1232 1.264 . S
O1223 Eu1176 2.432 . S
O1223 C1240 1.268 . S
O1224 Eu1176 2.291 . S
O1224 C1239 1.255 . S
O1225 Eu1187 2.372 . S
O1225 C1239 1.257 . S
O1226 Eu1187 2.462 . S
O1226 C1251 1.252 . S
O1227 Eu1187 2.373 . S
O1227 C1243 1.249 . S
O1228 Eu1176 2.335 . S
O1228 C1243 1.264 . S
O1229 Eu1187 2.432 . S
O1229 C1251 1.268 . S
O1230 Eu1187 2.291 . S
O1230 C1250 1.255 . S
O1231 Eu1176 2.372 . S
O1231 C1250 1.257 . S
C1232 O1221 1.249 . S
C1232 O1222 1.264 . S
C1233 C1236 1.382 . S
C1233 C1238 1.390 . S
C1233 C1240 1.506 . S
C1234 C1235 1.398 . S
C1234 C1238 1.392 . S
C1235 C1234 1.398 . S
C1235 C1237 1.372 . S
C1235 H1252 0.931 . S
C1236 C1233 1.382 . S
C1236 C1237 1.390 . S
C1236 H1253 0.931 . S
C1237 C1235 1.372 . S
C1237 C1236 1.390 . S
C1237 H1254 0.929 . S
C1238 C1233 1.390 . S
C1238 C1234 1.392 . S
C1238 H1255 0.930 . S
C1239 O1224 1.255 . S
C1239 O1225 1.257 . S
C1240 Eu1176 2.787 . S
C1240 O1220 1.252 . S
C1240 O1223 1.268 . S
C1240 C1233 1.506 . S
C1241 C1208 1.439 . S
C1241 H1218 0.931 . S
C1241 C1242 1.374 . S
C1242 C1213 1.387 . S
C1242 H1219 0.931 . S
C1242 C1241 1.374 . S
C1243 O1227 1.249 . S
C1243 O1228 1.264 . S
C1244 C1247 1.382 . S
C1244 C1248 1.390 . S
C1244 C1251 1.506 1_655 S
C1245 C1246 1.398 . S
C1245 C1248 1.392 . S
C1246 C1245 1.398 . S
C1246 C1249 1.372 . S
C1246 H1256 0.931 . S
C1247 C1244 1.382 . S
C1247 C1249 1.390 . S
C1247 H1257 0.931 . S
C1248 C1244 1.390 . S
C1248 C1245 1.392 . S
C1248 H1258 0.930 . S
C1249 C1246 1.372 . S
C1249 C1247 1.390 . S
C1249 H1259 0.929 . S
C1250 O1230 1.255 . S
C1250 O1231 1.257 . S
C1251 Eu1187 2.787 . S
C1251 O1226 1.252 . S
C1251 O1229 1.268 . S
C1251 C1244 1.506 1_455 S
H1252 C1235 0.931 . S
H1253 C1236 0.931 . S
H1254 C1237 0.929 . S
H1255 C1238 0.930 . S
H1256 C1246 0.931 . S
H1257 C1247 0.931 . S
H1258 C1248 0.930 . S
H1259 C1249 0.929 . S
Eu1260 N1289 2.600 . S
Eu1260 N1295 2.562 . S
Eu1260 O1304 2.462 . S
Eu1260 O1305 2.373 . S
Eu1260 O1307 2.432 . S
Eu1260 O1308 2.291 . S
Eu1260 O1312 2.335 . S
Eu1260 O1315 2.372 . S
Eu1260 C1324 2.787 . S
C1261 N1262 1.365 . S
C1261 C1264 1.405 . S
C1261 C1268 1.448 . S
N1262 C1261 1.365 . S
N1262 C1265 1.319 . S
N1262 Eu1271 2.600 . S
C1263 C1265 1.397 . S
C1263 C1266 1.367 . S
C1263 H1283 0.931 . S
C1264 C1261 1.405 . S
C1264 C1266 1.403 . S
C1264 C1270 1.439 . S
C1265 N1262 1.319 . S
C1265 C1263 1.397 . S
C1265 H1276 0.930 . S
C1266 C1263 1.367 . S
C1266 C1264 1.403 . S
C1266 H1287 0.929 . S
C1267 C1268 1.430 . S
C1267 C1269 1.387 . S
C1267 C1273 1.404 . S
C1268 C1261 1.448 . S
C1268 C1267 1.430 . S
C1268 N1272 1.351 . S
C1269 C1267 1.387 . S
C1269 C1270 1.374 . S
C1269 H1284 0.931 . S
C1270 C1264 1.439 . S
C1270 C1269 1.374 . S
C1270 H1285 0.931 . S
Eu1271 N1262 2.600 . S
Eu1271 N1272 2.562 . S
Eu1271 O1306 2.335 . S
Eu1271 O1309 2.372 . S
Eu1271 O1310 2.462 . S
Eu1271 O1311 2.373 . S
Eu1271 O1313 2.432 . S
Eu1271 O1314 2.291 . S
Eu1271 C1335 2.787 . S
N1272 C1268 1.351 . S
N1272 Eu1271 2.562 . S
N1272 C1274 1.325 . S
C1273 C1267 1.404 . S
C1273 C1275 1.366 . S
C1273 H1281 0.930 . S
C1274 N1272 1.325 . S
C1274 C1275 1.416 . S
C1274 H1280 0.929 . S
C1275 C1273 1.366 . S
C1275 C1274 1.416 . S
C1275 H1277 0.930 . S
H1276 C1265 0.930 . S
H1277 C1275 0.930 . S
H1278 C1293 0.930 . S
H1279 C1300 0.930 . S
H1280 C1274 0.929 . S
H1281 C1273 0.930 . S
H1282 C1296 0.929 . S
H1283 C1263 0.931 . S
H1284 C1269 0.931 . S
H1285 C1270 0.931 . S
H1286 C1291 0.931 . S
H1287 C1266 0.929 . S
H1288 C1299 0.930 . S
N1289 Eu1260 2.600 . S
N1289 C1290 1.365 . S
N1289 C1293 1.319 . S
C1290 N1289 1.365 . S
C1290 C1292 1.405 . S
C1290 C1298 1.448 . S
C1291 H1286 0.931 . S
C1291 C1293 1.397 . S
C1291 C1294 1.367 . S
C1292 C1290 1.405 . S
C1292 C1294 1.403 . S
C1292 C1325 1.439 . S
C1293 H1278 0.930 . S
C1293 N1289 1.319 . S
C1293 C1291 1.397 . S
C1294 C1291 1.367 . S
C1294 C1292 1.403 . S
C1294 H1301 0.929 . S
N1295 Eu1260 2.562 . S
N1295 C1296 1.325 . S
N1295 C1298 1.351 . S
C1296 H1282 0.929 . S
C1296 N1295 1.325 . S
C1296 C1300 1.416 . S
C1297 C1298 1.430 . S
C1297 C1299 1.404 . S
C1297 C1326 1.387 . S
C1298 C1290 1.448 . S
C1298 N1295 1.351 . S
C1298 C1297 1.430 . S
C1299 H1288 0.930 . S
C1299 C1297 1.404 . S
C1299 C1300 1.366 . S
C1300 H1279 0.930 . S
C1300 C1296 1.416 . S
C1300 C1299 1.366 . S
H1301 C1294 0.929 . S
H1302 C1325 0.931 . S
H1303 C1326 0.931 . S
O1304 Eu1260 2.462 . S
O1304 C1324 1.252 . S
O1305 Eu1260 2.373 . S
O1305 C1316 1.249 . S
O1306 Eu1271 2.335 . S
O1306 C1316 1.264 . S
O1307 Eu1260 2.432 . S
O1307 C1324 1.268 . S
O1308 Eu1260 2.291 . S
O1308 C1323 1.255 . S
O1309 Eu1271 2.372 . S
O1309 C1323 1.257 . S
O1310 Eu1271 2.462 . S
O1310 C1335 1.252 . S
O1311 Eu1271 2.373 . S
O1311 C1327 1.249 . S
O1312 Eu1260 2.335 . S
O1312 C1327 1.264 . S
O1313 Eu1271 2.432 . S
O1313 C1335 1.268 . S
O1314 Eu1271 2.291 . S
O1314 C1334 1.255 . S
O1315 Eu1260 2.372 . S
O1315 C1334 1.257 . S
C1316 O1305 1.249 . S
C1316 O1306 1.264 . S
C1317 C1320 1.382 . S
C1317 C1322 1.390 . S
C1317 C1324 1.506 . S
C1318 C1319 1.398 . S
C1318 C1322 1.392 . S
C1319 C1318 1.398 . S
C1319 C1321 1.372 . S
C1319 H1336 0.931 . S
C1320 C1317 1.382 . S
C1320 C1321 1.390 . S
C1320 H1337 0.931 . S
C1321 C1319 1.372 . S
C1321 C1320 1.390 . S
C1321 H1338 0.929 . S
C1322 C1317 1.390 . S
C1322 C1318 1.392 . S
C1322 H1339 0.930 . S
C1323 O1308 1.255 . S
C1323 O1309 1.257 . S
C1324 Eu1260 2.787 . S
C1324 O1304 1.252 . S
C1324 O1307 1.268 . S
C1324 C1317 1.506 . S
C1325 C1292 1.439 . S
C1325 H1302 0.931 . S
C1325 C1326 1.374 . S
C1326 C1297 1.387 . S
C1326 H1303 0.931 . S
C1326 C1325 1.374 . S
C1327 O1311 1.249 . S
C1327 O1312 1.264 . S
C1328 C1331 1.382 . S
C1328 C1332 1.390 . S
C1328 C1335 1.506 . S
C1329 C1330 1.398 . S
C1329 C1332 1.392 . S
C1330 C1329 1.398 . S
C1330 C1333 1.372 . S
C1330 H1340 0.931 . S
C1331 C1328 1.382 . S
C1331 C1333 1.390 . S
C1331 H1341 0.931 . S
C1332 C1328 1.390 . S
C1332 C1329 1.392 . S
C1332 H1342 0.930 . S
C1333 C1330 1.372 . S
C1333 C1331 1.390 . S
C1333 H1343 0.929 . S
C1334 O1314 1.255 . S
C1334 O1315 1.257 . S
C1335 Eu1271 2.787 . S
C1335 O1310 1.252 . S
C1335 O1313 1.268 . S
C1335 C1328 1.506 . S
H1336 C1319 0.931 . S
H1337 C1320 0.931 . S
H1338 C1321 0.929 . S
H1339 C1322 0.930 . S
H1340 C1330 0.931 . S
H1341 C1331 0.931 . S
H1342 C1332 0.930 . S
H1343 C1333 0.929 . S
Eu1344 N1373 2.600 . S
Eu1344 N1379 2.562 . S
Eu1344 O1388 2.462 . S
Eu1344 O1389 2.373 . S
Eu1344 O1391 2.432 . S
Eu1344 O1392 2.291 . S
Eu1344 O1396 2.335 . S
Eu1344 O1399 2.372 . S
Eu1344 C1408 2.787 . S
C1345 N1346 1.365 . S
C1345 C1348 1.405 . S
C1345 C1352 1.448 . S
N1346 C1345 1.365 . S
N1346 C1349 1.319 . S
N1346 Eu1355 2.600 . S
C1347 C1349 1.397 . S
C1347 C1350 1.367 . S
C1347 H1367 0.931 . S
C1348 C1345 1.405 . S
C1348 C1350 1.403 . S
C1348 C1354 1.439 . S
C1349 N1346 1.319 . S
C1349 C1347 1.397 . S
C1349 H1360 0.930 . S
C1350 C1347 1.367 . S
C1350 C1348 1.403 . S
C1350 H1371 0.929 . S
C1351 C1352 1.430 . S
C1351 C1353 1.387 . S
C1351 C1357 1.404 . S
C1352 C1345 1.448 . S
C1352 C1351 1.430 . S
C1352 N1356 1.351 . S
C1353 C1351 1.387 . S
C1353 C1354 1.374 . S
C1353 H1368 0.931 . S
C1354 C1348 1.439 . S
C1354 C1353 1.374 . S
C1354 H1369 0.931 . S
Eu1355 N1346 2.600 . S
Eu1355 N1356 2.562 . S
Eu1355 O1390 2.335 . S
Eu1355 O1393 2.372 . S
Eu1355 O1394 2.462 . S
Eu1355 O1395 2.373 . S
Eu1355 O1397 2.432 . S
Eu1355 O1398 2.291 . S
Eu1355 C1419 2.787 . S
N1356 C1352 1.351 . S
N1356 Eu1355 2.562 . S
N1356 C1358 1.325 . S
C1357 C1351 1.404 . S
C1357 C1359 1.366 . S
C1357 H1365 0.930 . S
C1358 N1356 1.325 . S
C1358 C1359 1.416 . S
C1358 H1364 0.929 . S
C1359 C1357 1.366 . S
C1359 C1358 1.416 . S
C1359 H1361 0.930 . S
H1360 C1349 0.930 . S
H1361 C1359 0.930 . S
H1362 C1377 0.930 . S
H1363 C1384 0.930 . S
H1364 C1358 0.929 . S
H1365 C1357 0.930 . S
H1366 C1380 0.929 . S
H1367 C1347 0.931 . S
H1368 C1353 0.931 . S
H1369 C1354 0.931 . S
H1370 C1375 0.931 . S
H1371 C1350 0.929 . S
H1372 C1383 0.930 . S
N1373 Eu1344 2.600 . S
N1373 C1374 1.365 . S
N1373 C1377 1.319 . S
C1374 N1373 1.365 . S
C1374 C1376 1.405 . S
C1374 C1382 1.448 . S
C1375 H1370 0.931 . S
C1375 C1377 1.397 . S
C1375 C1378 1.367 . S
C1376 C1374 1.405 . S
C1376 C1378 1.403 . S
C1376 C1409 1.439 . S
C1377 H1362 0.930 . S
C1377 N1373 1.319 . S
C1377 C1375 1.397 . S
C1378 C1375 1.367 . S
C1378 C1376 1.403 . S
C1378 H1385 0.929 . S
N1379 Eu1344 2.562 . S
N1379 C1380 1.325 . S
N1379 C1382 1.351 . S
C1380 H1366 0.929 . S
C1380 N1379 1.325 . S
C1380 C1384 1.416 . S
C1381 C1382 1.430 . S
C1381 C1383 1.404 . S
C1381 C1410 1.387 . S
C1382 C1374 1.448 . S
C1382 N1379 1.351 . S
C1382 C1381 1.430 . S
C1383 H1372 0.930 . S
C1383 C1381 1.404 . S
C1383 C1384 1.366 . S
C1384 H1363 0.930 . S
C1384 C1380 1.416 . S
C1384 C1383 1.366 . S
H1385 C1378 0.929 . S
H1386 C1409 0.931 . S
H1387 C1410 0.931 . S
O1388 Eu1344 2.462 . S
O1388 C1408 1.252 . S
O1389 Eu1344 2.373 . S
O1389 C1400 1.249 . S
O1390 Eu1355 2.335 . S
O1390 C1400 1.264 . S
O1391 Eu1344 2.432 . S
O1391 C1408 1.268 . S
O1392 Eu1344 2.291 . S
O1392 C1407 1.255 . S
O1393 Eu1355 2.372 . S
O1393 C1407 1.257 . S
O1394 Eu1355 2.462 . S
O1394 C1419 1.252 . S
O1395 Eu1355 2.373 . S
O1395 C1411 1.249 . S
O1396 Eu1344 2.335 . S
O1396 C1411 1.264 . S
O1397 Eu1355 2.432 . S
O1397 C1419 1.268 . S
O1398 Eu1355 2.291 . S
O1398 C1418 1.255 . S
O1399 Eu1344 2.372 . S
O1399 C1418 1.257 . S
C1400 O1389 1.249 . S
C1400 O1390 1.264 . S
C1401 C1404 1.382 . S
C1401 C1406 1.390 . S
C1401 C1408 1.506 . S
C1402 C1403 1.398 . S
C1402 C1406 1.392 . S
C1403 C1402 1.398 . S
C1403 C1405 1.372 . S
C1403 H1420 0.931 . S
C1404 C1401 1.382 . S
C1404 C1405 1.390 . S
C1404 H1421 0.931 . S
C1405 C1403 1.372 . S
C1405 C1404 1.390 . S
C1405 H1422 0.929 . S
C1406 C1401 1.390 . S
C1406 C1402 1.392 . S
C1406 H1423 0.930 . S
C1407 O1392 1.255 . S
C1407 O1393 1.257 . S
C1408 Eu1344 2.787 . S
C1408 O1388 1.252 . S
C1408 O1391 1.268 . S
C1408 C1401 1.506 . S
C1409 C1376 1.439 . S
C1409 H1386 0.931 . S
C1409 C1410 1.374 . S
C1410 C1381 1.387 . S
C1410 H1387 0.931 . S
C1410 C1409 1.374 . S
C1411 O1395 1.249 . S
C1411 O1396 1.264 . S
C1412 C1415 1.382 . S
C1412 C1416 1.390 . S
C1412 C1419 1.506 . S
C1413 C1414 1.398 . S
C1413 C1416 1.392 . S
C1414 C1413 1.398 . S
C1414 C1417 1.372 . S
C1414 H1424 0.931 . S
C1415 C1412 1.382 . S
C1415 C1417 1.390 . S
C1415 H1425 0.931 . S
C1416 C1412 1.390 . S
C1416 C1413 1.392 . S
C1416 H1426 0.930 . S
C1417 C1414 1.372 . S
C1417 C1415 1.390 . S
C1417 H1427 0.929 . S
C1418 O1398 1.255 . S
C1418 O1399 1.257 . S
C1419 Eu1355 2.787 . S
C1419 O1394 1.252 . S
C1419 O1397 1.268 . S
C1419 C1412 1.506 . S
H1420 C1403 0.931 . S
H1421 C1404 0.931 . S
H1422 C1405 0.929 . S
H1423 C1406 0.930 . S
H1424 C1414 0.931 . S
H1425 C1415 0.931 . S
H1426 C1416 0.930 . S
H1427 C1417 0.929 . S
Eu1428 N1457 2.600 . S
Eu1428 N1463 2.562 . S
Eu1428 O1472 2.462 . S
Eu1428 O1473 2.373 . S
Eu1428 O1475 2.432 . S
Eu1428 O1476 2.291 . S
Eu1428 O1480 2.335 . S
Eu1428 O1483 2.372 . S
Eu1428 C1492 2.787 . S
C1429 N1430 1.365 . S
C1429 C1432 1.405 . S
C1429 C1436 1.448 . S
N1430 C1429 1.365 . S
N1430 C1433 1.319 . S
N1430 Eu1439 2.600 . S
C1431 C1433 1.397 . S
C1431 C1434 1.367 . S
C1431 H1451 0.931 . S
C1432 C1429 1.405 . S
C1432 C1434 1.403 . S
C1432 C1438 1.439 . S
C1433 N1430 1.319 . S
C1433 C1431 1.397 . S
C1433 H1444 0.930 . S
C1434 C1431 1.367 . S
C1434 C1432 1.403 . S
C1434 H1455 0.929 . S
C1435 C1436 1.430 . S
C1435 C1437 1.387 . S
C1435 C1441 1.404 . S
C1436 C1429 1.448 . S
C1436 C1435 1.430 . S
C1436 N1440 1.351 . S
C1437 C1435 1.387 . S
C1437 C1438 1.374 . S
C1437 H1452 0.931 . S
C1438 C1432 1.439 . S
C1438 C1437 1.374 . S
C1438 H1453 0.931 . S
Eu1439 N1430 2.600 . S
Eu1439 N1440 2.562 . S
Eu1439 O1474 2.335 . S
Eu1439 O1477 2.372 . S
Eu1439 O1478 2.462 . S
Eu1439 O1479 2.373 . S
Eu1439 O1481 2.432 . S
Eu1439 O1482 2.291 . S
Eu1439 C1503 2.787 . S
N1440 C1436 1.351 . S
N1440 Eu1439 2.562 . S
N1440 C1442 1.325 . S
C1441 C1435 1.404 . S
C1441 C1443 1.366 . S
C1441 H1449 0.930 . S
C1442 N1440 1.325 . S
C1442 C1443 1.416 . S
C1442 H1448 0.929 . S
C1443 C1441 1.366 . S
C1443 C1442 1.416 . S
C1443 H1445 0.930 . S
H1444 C1433 0.930 . S
H1445 C1443 0.930 . S
H1446 C1461 0.930 . S
H1447 C1468 0.930 . S
H1448 C1442 0.929 . S
H1449 C1441 0.930 . S
H1450 C1464 0.929 . S
H1451 C1431 0.931 . S
H1452 C1437 0.931 . S
H1453 C1438 0.931 . S
H1454 C1459 0.931 . S
H1455 C1434 0.929 . S
H1456 C1467 0.930 . S
N1457 Eu1428 2.600 . S
N1457 C1458 1.365 . S
N1457 C1461 1.319 . S
C1458 N1457 1.365 . S
C1458 C1460 1.405 . S
C1458 C1466 1.448 . S
C1459 H1454 0.931 . S
C1459 C1461 1.397 . S
C1459 C1462 1.367 . S
C1460 C1458 1.405 . S
C1460 C1462 1.403 . S
C1460 C1493 1.439 . S
C1461 H1446 0.930 . S
C1461 N1457 1.319 . S
C1461 C1459 1.397 . S
C1462 C1459 1.367 . S
C1462 C1460 1.403 . S
C1462 H1469 0.929 . S
N1463 Eu1428 2.562 . S
N1463 C1464 1.325 . S
N1463 C1466 1.351 . S
C1464 H1450 0.929 . S
C1464 N1463 1.325 . S
C1464 C1468 1.416 . S
C1465 C1466 1.430 . S
C1465 C1467 1.404 . S
C1465 C1494 1.387 . S
C1466 C1458 1.448 . S
C1466 N1463 1.351 . S
C1466 C1465 1.430 . S
C1467 H1456 0.930 . S
C1467 C1465 1.404 . S
C1467 C1468 1.366 . S
C1468 H1447 0.930 . S
C1468 C1464 1.416 . S
C1468 C1467 1.366 . S
H1469 C1462 0.929 . S
H1470 C1493 0.931 . S
H1471 C1494 0.931 . S
O1472 Eu1428 2.462 . S
O1472 C1492 1.252 . S
O1473 Eu1428 2.373 . S
O1473 C1484 1.249 . S
O1474 Eu1439 2.335 . S
O1474 C1484 1.264 . S
O1475 Eu1428 2.432 . S
O1475 C1492 1.268 . S
O1476 Eu1428 2.291 . S
O1476 C1491 1.255 . S
O1477 Eu1439 2.372 . S
O1477 C1491 1.257 . S
O1478 Eu1439 2.462 . S
O1478 C1503 1.252 . S
O1479 Eu1439 2.373 . S
O1479 C1495 1.249 . S
O1480 Eu1428 2.335 . S
O1480 C1495 1.264 . S
O1481 Eu1439 2.432 . S
O1481 C1503 1.268 . S
O1482 Eu1439 2.291 . S
O1482 C1502 1.255 . S
O1483 Eu1428 2.372 . S
O1483 C1502 1.257 . S
C1484 O1473 1.249 . S
C1484 O1474 1.264 . S
C1485 C1488 1.382 . S
C1485 C1490 1.390 . S
C1485 C1492 1.506 . S
C1486 C1487 1.398 . S
C1486 C1490 1.392 . S
C1487 C1486 1.398 . S
C1487 C1489 1.372 . S
C1487 H1504 0.931 . S
C1488 C1485 1.382 . S
C1488 C1489 1.390 . S
C1488 H1505 0.931 . S
C1489 C1487 1.372 . S
C1489 C1488 1.390 . S
C1489 H1506 0.929 . S
C1490 C1485 1.390 . S
C1490 C1486 1.392 . S
C1490 H1507 0.930 . S
C1491 O1476 1.255 . S
C1491 O1477 1.257 . S
C1492 Eu1428 2.787 . S
C1492 O1472 1.252 . S
C1492 O1475 1.268 . S
C1492 C1485 1.506 . S
C1493 C1460 1.439 . S
C1493 H1470 0.931 . S
C1493 C1494 1.374 . S
C1494 C1465 1.387 . S
C1494 H1471 0.931 . S
C1494 C1493 1.374 . S
C1495 O1479 1.249 . S
C1495 O1480 1.264 . S
C1496 C1499 1.382 . S
C1496 C1500 1.390 . S
C1496 C1503 1.506 . S
C1497 C1498 1.398 . S
C1497 C1500 1.392 . S
C1498 C1497 1.398 . S
C1498 C1501 1.372 . S
C1498 H1508 0.931 . S
C1499 C1496 1.382 . S
C1499 C1501 1.390 . S
C1499 H1509 0.931 . S
C1500 C1496 1.390 . S
C1500 C1497 1.392 . S
C1500 H1510 0.930 . S
C1501 C1498 1.372 . S
C1501 C1499 1.390 . S
C1501 H1511 0.929 . S
C1502 O1482 1.255 . S
C1502 O1483 1.257 . S
C1503 Eu1439 2.787 . S
C1503 O1478 1.252 . S
C1503 O1481 1.268 . S
C1503 C1496 1.506 . S
H1504 C1487 0.931 . S
H1505 C1488 0.931 . S
H1506 C1489 0.929 . S
H1507 C1490 0.930 . S
H1508 C1498 0.931 . S
H1509 C1499 0.931 . S
H1510 C1500 0.930 . S
H1511 C1501 0.929 . S
Eu1512 N1541 2.600 . S
Eu1512 N1547 2.562 . S
Eu1512 O1556 2.462 . S
Eu1512 O1557 2.373 . S
Eu1512 O1559 2.432 . S
Eu1512 O1560 2.291 . S
Eu1512 O1564 2.335 . S
Eu1512 O1567 2.372 . S
Eu1512 C1576 2.787 . S
C1513 N1514 1.365 . S
C1513 C1516 1.405 . S
C1513 C1520 1.448 . S
N1514 C1513 1.365 . S
N1514 C1517 1.319 . S
N1514 Eu1523 2.600 . S
C1515 C1517 1.397 . S
C1515 C1518 1.367 . S
C1515 H1535 0.931 . S
C1516 C1513 1.405 . S
C1516 C1518 1.403 . S
C1516 C1522 1.439 . S
C1517 N1514 1.319 . S
C1517 C1515 1.397 . S
C1517 H1528 0.930 . S
C1518 C1515 1.367 . S
C1518 C1516 1.403 . S
C1518 H1539 0.929 . S
C1519 C1520 1.430 . S
C1519 C1521 1.387 . S
C1519 C1525 1.404 . S
C1520 C1513 1.448 . S
C1520 C1519 1.430 . S
C1520 N1524 1.351 . S
C1521 C1519 1.387 . S
C1521 C1522 1.374 . S
C1521 H1536 0.931 . S
C1522 C1516 1.439 . S
C1522 C1521 1.374 . S
C1522 H1537 0.931 . S
Eu1523 N1514 2.600 . S
Eu1523 N1524 2.562 . S
Eu1523 O1558 2.335 . S
Eu1523 O1561 2.372 . S
Eu1523 O1562 2.462 . S
Eu1523 O1563 2.373 . S
Eu1523 O1565 2.432 . S
Eu1523 O1566 2.291 . S
Eu1523 C1587 2.787 . S
N1524 C1520 1.351 . S
N1524 Eu1523 2.562 . S
N1524 C1526 1.325 . S
C1525 C1519 1.404 . S
C1525 C1527 1.366 . S
C1525 H1533 0.930 . S
C1526 N1524 1.325 . S
C1526 C1527 1.416 . S
C1526 H1532 0.929 . S
C1527 C1525 1.366 . S
C1527 C1526 1.416 . S
C1527 H1529 0.930 . S
H1528 C1517 0.930 . S
H1529 C1527 0.930 . S
H1530 C1545 0.930 . S
H1531 C1552 0.930 . S
H1532 C1526 0.929 . S
H1533 C1525 0.930 . S
H1534 C1548 0.929 . S
H1535 C1515 0.931 . S
H1536 C1521 0.931 . S
H1537 C1522 0.931 . S
H1538 C1543 0.931 . S
H1539 C1518 0.929 . S
H1540 C1551 0.930 . S
N1541 Eu1512 2.600 . S
N1541 C1542 1.365 . S
N1541 C1545 1.319 . S
C1542 N1541 1.365 . S
C1542 C1544 1.405 . S
C1542 C1550 1.448 . S
C1543 H1538 0.931 . S
C1543 C1545 1.397 . S
C1543 C1546 1.367 . S
C1544 C1542 1.405 . S
C1544 C1546 1.403 . S
C1544 C1577 1.439 . S
C1545 H1530 0.930 . S
C1545 N1541 1.319 . S
C1545 C1543 1.397 . S
C1546 C1543 1.367 . S
C1546 C1544 1.403 . S
C1546 H1553 0.929 . S
N1547 Eu1512 2.562 . S
N1547 C1548 1.325 . S
N1547 C1550 1.351 . S
C1548 H1534 0.929 . S
C1548 N1547 1.325 . S
C1548 C1552 1.416 . S
C1549 C1550 1.430 . S
C1549 C1551 1.404 . S
C1549 C1578 1.387 . S
C1550 C1542 1.448 . S
C1550 N1547 1.351 . S
C1550 C1549 1.430 . S
C1551 H1540 0.930 . S
C1551 C1549 1.404 . S
C1551 C1552 1.366 . S
C1552 H1531 0.930 . S
C1552 C1548 1.416 . S
C1552 C1551 1.366 . S
H1553 C1546 0.929 . S
H1554 C1577 0.931 . S
H1555 C1578 0.931 . S
O1556 Eu1512 2.462 . S
O1556 C1576 1.252 . S
O1557 Eu1512 2.373 . S
O1557 C1568 1.249 . S
O1558 Eu1523 2.335 . S
O1558 C1568 1.264 . S
O1559 Eu1512 2.432 . S
O1559 C1576 1.268 . S
O1560 Eu1512 2.291 . S
O1560 C1575 1.255 . S
O1561 Eu1523 2.372 . S
O1561 C1575 1.257 . S
O1562 Eu1523 2.462 . S
O1562 C1587 1.252 . S
O1563 Eu1523 2.373 . S
O1563 C1579 1.249 . S
O1564 Eu1512 2.335 . S
O1564 C1579 1.264 . S
O1565 Eu1523 2.432 . S
O1565 C1587 1.268 . S
O1566 Eu1523 2.291 . S
O1566 C1586 1.255 . S
O1567 Eu1512 2.372 . S
O1567 C1586 1.257 . S
C1568 O1557 1.249 . S
C1568 O1558 1.264 . S
C1569 C1572 1.382 . S
C1569 C1574 1.390 . S
C1569 C1576 1.506 . S
C1570 C1571 1.398 . S
C1570 C1574 1.392 . S
C1571 C1570 1.398 . S
C1571 C1573 1.372 . S
C1571 H1588 0.931 . S
C1572 C1569 1.382 . S
C1572 C1573 1.390 . S
C1572 H1589 0.931 . S
C1573 C1571 1.372 . S
C1573 C1572 1.390 . S
C1573 H1590 0.929 . S
C1574 C1569 1.390 . S
C1574 C1570 1.392 . S
C1574 H1591 0.930 . S
C1575 O1560 1.255 . S
C1575 O1561 1.257 . S
C1576 Eu1512 2.787 . S
C1576 O1556 1.252 . S
C1576 O1559 1.268 . S
C1576 C1569 1.506 . S
C1577 C1544 1.439 . S
C1577 H1554 0.931 . S
C1577 C1578 1.374 . S
C1578 C1549 1.387 . S
C1578 H1555 0.931 . S
C1578 C1577 1.374 . S
C1579 O1563 1.249 . S
C1579 O1564 1.264 . S
C1580 C1583 1.382 . S
C1580 C1584 1.390 . S
C1580 C1587 1.506 . S
C1581 C1582 1.398 . S
C1581 C1584 1.392 . S
C1582 C1581 1.398 . S
C1582 C1585 1.372 . S
C1582 H1592 0.931 . S
C1583 C1580 1.382 . S
C1583 C1585 1.390 . S
C1583 H1593 0.931 . S
C1584 C1580 1.390 . S
C1584 C1581 1.392 . S
C1584 H1594 0.930 . S
C1585 C1582 1.372 . S
C1585 C1583 1.390 . S
C1585 H1595 0.929 . S
C1586 O1566 1.255 . S
C1586 O1567 1.257 . S
C1587 Eu1523 2.787 . S
C1587 O1562 1.252 . S
C1587 O1565 1.268 . S
C1587 C1580 1.506 . S
H1588 C1571 0.931 . S
H1589 C1572 0.931 . S
H1590 C1573 0.929 . S
H1591 C1574 0.930 . S
H1592 C1582 0.931 . S
H1593 C1583 0.931 . S
H1594 C1584 0.930 . S
H1595 C1585 0.929 . S
Eu1596 N1625 2.600 1_455 S
Eu1596 N1631 2.562 1_455 S
Eu1596 O1640 2.462 1_455 S
Eu1596 O1641 2.373 . S
Eu1596 O1643 2.432 1_455 S
Eu1596 O1644 2.291 . S
Eu1596 O1648 2.335 . S
Eu1596 O1651 2.372 . S
Eu1596 C1660 2.787 1_455 S
C1597 N1598 1.365 . S
C1597 C1600 1.405 . S
C1597 C1604 1.448 1_556 S
N1598 C1597 1.365 . S
N1598 C1601 1.319 . S
N1598 Eu1607 2.600 1_556 S
C1599 C1601 1.397 . S
C1599 C1602 1.367 . S
C1599 H1619 0.931 . S
C1600 C1597 1.405 . S
C1600 C1602 1.403 . S
C1600 C1606 1.439 . S
C1601 N1598 1.319 . S
C1601 C1599 1.397 . S
C1601 H1612 0.930 . S
C1602 C1599 1.367 . S
C1602 C1600 1.403 . S
C1602 H1623 0.929 . S
C1603 C1604 1.430 . S
C1603 C1605 1.387 . S
C1603 C1609 1.404 . S
C1604 C1597 1.448 1_554 S
C1604 C1603 1.430 . S
C1604 N1608 1.351 . S
C1605 C1603 1.387 . S
C1605 C1606 1.374 1_554 S
C1605 H1620 0.931 . S
C1606 C1600 1.439 . S
C1606 C1605 1.374 1_556 S
C1606 H1621 0.931 . S
Eu1607 N1598 2.600 1_554 S
Eu1607 N1608 2.562 . S
Eu1607 O1642 2.335 . S
Eu1607 O1645 2.372 1_554 S
Eu1607 O1646 2.462 . S
Eu1607 O1647 2.373 . S
Eu1607 O1649 2.432 1_554 S
Eu1607 O1650 2.291 . S
Eu1607 C1671 2.787 . S
N1608 C1604 1.351 . S
N1608 Eu1607 2.562 . S
N1608 C1610 1.325 . S
C1609 C1603 1.404 . S
C1609 C1611 1.366 . S
C1609 H1617 0.930 . S
C1610 N1608 1.325 . S
C1610 C1611 1.416 . S
C1610 H1616 0.929 . S
C1611 C1609 1.366 . S
C1611 C1610 1.416 . S
C1611 H1613 0.930 . S
H1612 C1601 0.930 . S
H1613 C1611 0.930 . S
H1614 C1629 0.930 1_455 S
H1615 C1636 0.930 1_556 S
H1616 C1610 0.929 . S
H1617 C1609 0.930 . S
H1618 C1632 0.929 . S
H1619 C1599 0.931 . S
H1620 C1605 0.931 . S
H1621 C1606 0.931 . S
H1622 C1627 0.931 1_455 S
H1623 C1602 0.929 . S
H1624 C1635 0.930 . S
N1625 Eu1596 2.600 1_655 S
N1625 C1626 1.365 . S
N1625 C1629 1.319 . S
C1626 N1625 1.365 . S
C1626 C1628 1.405 . S
C1626 C1634 1.448 . S
C1627 H1622 0.931 1_655 S
C1627 C1629 1.397 . S
C1627 C1630 1.367 . S
C1628 C1626 1.405 . S
C1628 C1630 1.403 . S
C1628 C1661 1.439 . S
C1629 H1614 0.930 1_655 S
C1629 N1625 1.319 . S
C1629 C1627 1.397 . S
C1630 C1627 1.367 . S
C1630 C1628 1.403 . S
C1630 H1637 0.929 . S
N1631 Eu1596 2.562 1_655 S
N1631 C1632 1.325 . S
N1631 C1634 1.351 . S
C1632 H1618 0.929 . S
C1632 N1631 1.325 . S
C1632 C1636 1.416 . S
C1633 C1634 1.430 . S
C1633 C1635 1.404 . S
C1633 C1662 1.387 . S
C1634 C1626 1.448 . S
C1634 N1631 1.351 . S
C1634 C1633 1.430 . S
C1635 H1624 0.930 . S
C1635 C1633 1.404 . S
C1635 C1636 1.366 . S
C1636 H1615 0.930 1_554 S
C1636 C1632 1.416 . S
C1636 C1635 1.366 . S
H1637 C1630 0.929 . S
H1638 C1661 0.931 . S
H1639 C1662 0.931 . S
O1640 Eu1596 2.462 1_655 S
O1640 C1660 1.252 . S
O1641 Eu1596 2.373 . S
O1641 C1652 1.249 . S
O1642 Eu1607 2.335 . S
O1642 C1652 1.264 . S
O1643 Eu1596 2.432 1_655 S
O1643 C1660 1.268 . S
O1644 Eu1596 2.291 . S
O1644 C1659 1.255 1_554 S
O1645 Eu1607 2.372 1_556 S
O1645 C1659 1.257 . S
O1646 Eu1607 2.462 . S
O1646 C1671 1.252 . S
O1647 Eu1607 2.373 . S
O1647 C1663 1.249 . S
O1648 Eu1596 2.335 . S
O1648 C1663 1.264 . S
O1649 Eu1607 2.432 1_556 S
O1649 C1671 1.268 1_556 S
O1650 Eu1607 2.291 . S
O1650 C1670 1.255 . S
O1651 Eu1596 2.372 . S
O1651 C1670 1.257 . S
C1652 O1641 1.249 . S
C1652 O1642 1.264 . S
C1653 C1656 1.382 . S
C1653 C1658 1.390 . S
C1653 C1660 1.506 . S
C1654 C1655 1.398 . S
C1654 C1658 1.392 . S
C1655 C1654 1.398 . S
C1655 C1657 1.372 . S
C1655 H1672 0.931 . S
C1656 C1653 1.382 . S
C1656 C1657 1.390 . S
C1656 H1673 0.931 . S
C1657 C1655 1.372 . S
C1657 C1656 1.390 . S
C1657 H1674 0.929 . S
C1658 C1653 1.390 . S
C1658 C1654 1.392 . S
C1658 H1675 0.930 . S
C1659 O1644 1.255 1_556 S
C1659 O1645 1.257 . S
C1660 Eu1596 2.787 1_655 S
C1660 O1640 1.252 . S
C1660 O1643 1.268 . S
C1660 C1653 1.506 . S
C1661 C1628 1.439 . S
C1661 H1638 0.931 . S
C1661 C1662 1.374 . S
C1662 C1633 1.387 . S
C1662 H1639 0.931 . S
C1662 C1661 1.374 . S
C1663 O1647 1.249 . S
C1663 O1648 1.264 . S
C1664 C1667 1.364 1_554 S
C1664 C1668 1.404 . S
C1664 C1671 1.510 . S
C1665 C1666 1.398 1_554 S
C1665 C1668 1.392 . S
C1666 C1665 1.398 1_556 S
C1666 C1669 1.372 . S
C1666 H1676 0.931 . S
C1667 C1664 1.364 1_556 S
C1667 C1669 1.390 . S
C1667 H1677 0.931 . S
C1668 C1664 1.404 . S
C1668 C1665 1.392 . S
C1668 H1678 0.930 . S
C1669 C1666 1.372 . S
C1669 C1667 1.390 . S
C1669 H1679 0.929 . S
C1670 O1650 1.255 . S
C1670 O1651 1.257 . S
C1671 Eu1607 2.787 . S
C1671 O1646 1.252 . S
C1671 O1649 1.268 1_554 S
C1671 C1664 1.510 . S
H1672 C1655 0.931 . S
H1673 C1656 0.931 . S
H1674 C1657 0.929 . S
H1675 C1658 0.930 . S
H1676 C1666 0.931 . S
H1677 C1667 0.931 . S
H1678 C1668 0.930 . S
H1679 C1669 0.929 . S
H1680 C1688 0.950 1_554 S
H1681 C1693 0.950 . S
H1682 C1690 0.950 . S
H1683 C1692 0.950 . S
H1684 C1694 0.950 . S
H1685 C1696 0.950 1_655 S
H1686 C1698 0.950 . S
H1687 C1699 0.950 . S
C1688 H1680 0.950 1_556 S
C1688 C1689 1.386 . S
C1688 C1690 1.391 1_556 S
C1689 C1688 1.386 . S
C1689 C1693 1.393 1_455 S
C1690 H1682 0.950 . S
C1690 C1688 1.391 1_554 S
C1690 C1691 1.400 1_554 S
C1691 C1690 1.400 1_556 S
C1691 C1692 1.398 1_455 S
C1691 C1697 1.491 1_556 S
C1692 H1683 0.950 . S
C1692 C1691 1.398 1_655 S
C1692 C1693 1.391 . S
C1693 H1681 0.950 . S
C1693 C1689 1.393 1_655 S
C1693 C1692 1.391 . S
C1694 H1684 0.950 . S
C1694 C1695 1.386 1_556 S
C1694 C1696 1.391 . S
C1695 C1694 1.386 1_554 S
C1695 C1699 1.393 . S
C1696 H1685 0.950 1_455 S
C1696 C1694 1.391 . S
C1696 C1697 1.400 1_556 S
C1697 C1691 1.491 1_554 S
C1697 C1696 1.400 1_554 S
C1697 C1698 1.398 . S
C1698 H1686 0.950 . S
C1698 C1697 1.398 . S
C1698 C1699 1.391 . S
C1699 H1687 0.950 . S
C1699 C1695 1.393 . S
C1699 C1698 1.391 . S
H1700 C1708 0.950 . S
H1701 C1713 0.950 . S
H1702 C1710 0.950 . S
H1703 C1712 0.950 . S
H1704 C1714 0.950 . S
H1705 C1716 0.950 . S
H1706 C1718 0.950 . S
H1707 C1719 0.950 . S
C1708 H1700 0.950 . S
C1708 C1709 1.386 . S
C1708 C1710 1.391 . S
C1709 C1708 1.386 . S
C1709 C1713 1.393 . S
C1710 H1702 0.950 . S
C1710 C1708 1.391 . S
C1710 C1711 1.400 . S
C1711 C1710 1.400 . S
C1711 C1712 1.398 . S
C1711 C1717 1.491 . S
C1712 H1703 0.950 . S
C1712 C1711 1.398 . S
C1712 C1713 1.391 . S
C1713 H1701 0.950 . S
C1713 C1709 1.393 . S
C1713 C1712 1.391 . S
C1714 H1704 0.950 . S
C1714 C1715 1.386 . S
C1714 C1716 1.391 . S
C1715 C1714 1.386 . S
C1715 C1719 1.393 . S
C1716 H1705 0.950 . S
C1716 C1714 1.391 . S
C1716 C1717 1.400 . S
C1717 C1711 1.491 . S
C1717 C1716 1.400 . S
C1717 C1718 1.398 . S
C1718 H1706 0.950 . S
C1718 C1717 1.398 . S
C1718 C1719 1.391 . S
C1719 H1707 0.950 . S
C1719 C1715 1.393 . S
C1719 C1718 1.391 . S
H1720 C1728 0.950 . S
H1721 C1733 0.950 . S
H1722 C1730 0.950 . S
H1723 C1732 0.950 . S
H1724 C1734 0.950 . S
H1725 C1736 0.950 . S
H1726 C1738 0.950 . S
H1727 C1739 0.950 . S
C1728 H1720 0.950 . S
C1728 C1729 1.386 . S
C1728 C1730 1.391 . S
C1729 C1728 1.386 . S
C1729 C1733 1.393 . S
C1730 H1722 0.950 . S
C1730 C1728 1.391 . S
C1730 C1731 1.400 . S
C1731 C1730 1.400 . S
C1731 C1732 1.398 . S
C1731 C1737 1.491 . S
C1732 H1723 0.950 . S
C1732 C1731 1.398 . S
C1732 C1733 1.391 . S
C1733 H1721 0.950 . S
C1733 C1729 1.393 . S
C1733 C1732 1.391 . S
C1734 H1724 0.950 . S
C1734 C1735 1.386 . S
C1734 C1736 1.391 . S
C1735 C1734 1.386 . S
C1735 C1739 1.393 . S
C1736 H1725 0.950 . S
C1736 C1734 1.391 . S
C1736 C1737 1.400 . S
C1737 C1731 1.491 . S
C1737 C1736 1.400 . S
C1737 C1738 1.398 . S
C1738 H1726 0.950 . S
C1738 C1737 1.398 . S
C1738 C1739 1.391 . S
C1739 H1727 0.950 . S
C1739 C1735 1.393 . S
C1739 C1738 1.391 . S
H1740 C1748 0.950 . S
H1741 C1753 0.950 . S
H1742 C1750 0.950 . S
H1743 C1752 0.950 . S
H1744 C1754 0.950 . S
H1745 C1756 0.950 . S
H1746 C1758 0.950 . S
H1747 C1759 0.950 . S
C1748 H1740 0.950 . S
C1748 C1749 1.386 . S
C1748 C1750 1.391 . S
C1749 C1748 1.386 . S
C1749 C1753 1.393 . S
C1750 H1742 0.950 . S
C1750 C1748 1.391 . S
C1750 C1751 1.400 . S
C1751 C1750 1.400 . S
C1751 C1752 1.398 . S
C1751 C1757 1.491 . S
C1752 H1743 0.950 . S
C1752 C1751 1.398 . S
C1752 C1753 1.391 . S
C1753 H1741 0.950 . S
C1753 C1749 1.393 . S
C1753 C1752 1.391 . S
C1754 H1744 0.950 . S
C1754 C1755 1.386 . S
C1754 C1756 1.391 . S
C1755 C1754 1.386 . S
C1755 C1759 1.393 . S
C1756 H1745 0.950 . S
C1756 C1754 1.391 . S
C1756 C1757 1.400 . S
C1757 C1751 1.491 . S
C1757 C1756 1.400 . S
C1757 C1758 1.398 . S
C1758 H1746 0.950 . S
C1758 C1757 1.398 . S
C1758 C1759 1.391 . S
C1759 H1747 0.950 . S
C1759 C1755 1.393 . S
C1759 C1758 1.391 . S
H1760 C1768 0.950 . S
H1761 C1773 0.950 1_655 S
H1762 C1770 0.950 . S
H1763 C1772 0.950 1_655 S
H1764 C1774 0.947 . S
H1765 C1776 0.950 1_655 S
H1766 C1778 0.950 . S
H1767 C1779 0.950 . S
C1768 H1760 0.950 . S
C1768 C1769 1.386 . S
C1768 C1770 1.391 . S
C1769 C1768 1.386 . S
C1769 C1773 1.393 . S
C1770 H1762 0.950 . S
C1770 C1768 1.391 . S
C1770 C1771 1.400 . S
C1771 C1770 1.400 . S
C1771 C1772 1.398 . S
C1771 C1777 1.491 . S
C1772 H1763 0.950 1_455 S
C1772 C1771 1.398 . S
C1772 C1773 1.391 . S
C1773 H1761 0.950 1_455 S
C1773 C1769 1.393 . S
C1773 C1772 1.391 . S
C1774 H1764 0.947 . S
C1774 C1775 1.386 . S
C1774 C1776 1.391 . S
C1775 C1774 1.386 . S
C1775 C1779 1.393 . S
C1776 H1765 0.950 1_455 S
C1776 C1774 1.391 . S
C1776 C1777 1.400 . S
C1777 C1771 1.491 . S
C1777 C1776 1.400 . S
C1777 C1778 1.398 . S
C1778 H1766 0.950 . S
C1778 C1777 1.398 . S
C1778 C1779 1.391 . S
C1779 H1767 0.950 . S
C1779 C1775 1.393 . S
C1779 C1778 1.391 . S
H1780 C1788 0.950 . S
H1781 C1793 0.950 . S
H1782 C1790 0.950 . S
H1783 C1792 0.950 . S
H1784 C1794 0.950 . S
H1785 C1796 0.950 . S
H1786 C1798 0.950 . S
H1787 C1799 0.950 . S
C1788 H1780 0.950 . S
C1788 C1789 1.386 . S
C1788 C1790 1.391 . S
C1789 C1788 1.386 . S
C1789 C1793 1.393 . S
C1790 H1782 0.950 . S
C1790 C1788 1.391 . S
C1790 C1791 1.400 . S
C1791 C1790 1.400 . S
C1791 C1792 1.398 . S
C1791 C1797 1.491 . S
C1792 H1783 0.950 . S
C1792 C1791 1.398 . S
C1792 C1793 1.391 . S
C1793 H1781 0.950 . S
C1793 C1789 1.393 . S
C1793 C1792 1.391 . S
C1794 H1784 0.950 . S
C1794 C1795 1.386 . S
C1794 C1796 1.391 . S
C1795 C1794 1.386 . S
C1795 C1799 1.393 . S
C1796 H1785 0.950 . S
C1796 C1794 1.391 . S
C1796 C1797 1.400 . S
C1797 C1791 1.491 . S
C1797 C1796 1.400 . S
C1797 C1798 1.398 . S
C1798 H1786 0.950 . S
C1798 C1797 1.398 . S
C1798 C1799 1.391 . S
C1799 H1787 0.950 . S
C1799 C1795 1.393 . S
C1799 C1798 1.391 . S
H1800 C1808 0.950 . S
H1801 C1813 0.950 . S
H1802 C1810 0.950 . S
H1803 C1812 0.950 . S
H1804 C1814 0.950 . S
H1805 C1816 0.950 . S
H1806 C1818 0.950 . S
H1807 C1819 0.950 . S
C1808 H1800 0.950 . S
C1808 C1809 1.386 . S
C1808 C1810 1.391 . S
C1809 C1808 1.386 . S
C1809 C1813 1.393 . S
C1810 H1802 0.950 . S
C1810 C1808 1.391 . S
C1810 C1811 1.400 . S
C1811 C1810 1.400 . S
C1811 C1812 1.398 . S
C1811 C1817 1.491 . S
C1812 H1803 0.950 . S
C1812 C1811 1.398 . S
C1812 C1813 1.391 . S
C1813 H1801 0.950 . S
C1813 C1809 1.393 . S
C1813 C1812 1.391 . S
C1814 H1804 0.950 . S
C1814 C1815 1.386 . S
C1814 C1816 1.391 . S
C1815 C1814 1.386 . S
C1815 C1819 1.393 . S
C1816 H1805 0.950 . S
C1816 C1814 1.391 . S
C1816 C1817 1.400 . S
C1817 C1811 1.491 . S
C1817 C1816 1.400 . S
C1817 C1818 1.398 . S
C1818 H1806 0.950 . S
C1818 C1817 1.398 . S
C1818 C1819 1.391 . S
C1819 H1807 0.950 . S
C1819 C1815 1.393 . S
C1819 C1818 1.391 . S
H1820 C1828 0.950 . S
H1821 C1833 0.950 . S
H1822 C1830 0.950 . S
H1823 C1832 0.950 . S
H1824 C1834 0.950 . S
H1825 C1836 0.950 . S
H1826 C1838 0.950 . S
H1827 C1839 0.950 . S
C1828 H1820 0.950 . S
C1828 C1829 1.386 . S
C1828 C1830 1.391 . S
C1829 C1828 1.386 . S
C1829 C1833 1.393 . S
C1830 H1822 0.950 . S
C1830 C1828 1.391 . S
C1830 C1831 1.400 . S
C1831 C1830 1.400 . S
C1831 C1832 1.398 . S
C1831 C1837 1.491 . S
C1832 H1823 0.950 . S
C1832 C1831 1.398 . S
C1832 C1833 1.391 . S
C1833 H1821 0.950 . S
C1833 C1829 1.393 . S
C1833 C1832 1.391 . S
C1834 H1824 0.950 . S
C1834 C1835 1.386 . S
C1834 C1836 1.391 . S
C1835 C1834 1.386 . S
C1835 C1839 1.393 . S
C1836 H1825 0.950 . S
C1836 C1834 1.391 . S
C1836 C1837 1.400 . S
C1837 C1831 1.491 . S
C1837 C1836 1.400 . S
C1837 C1838 1.398 . S
C1838 H1826 0.950 . S
C1838 C1837 1.398 . S
C1838 C1839 1.391 . S
C1839 H1827 0.950 . S
C1839 C1835 1.393 . S
C1839 C1838 1.391 . S
H1840 C1848 0.950 . S
H1841 C1853 0.950 . S
H1842 C1850 0.950 . S
H1843 C1852 0.950 1_455 S
H1844 C1854 0.950 . S
H1845 C1856 0.950 . S
H1846 C1858 0.950 . S
H1847 C1859 0.950 . S
C1848 H1840 0.950 . S
C1848 C1849 1.386 . S
C1848 C1850 1.391 . S
C1849 C1848 1.386 . S
C1849 C1853 1.393 . S
C1850 H1842 0.950 . S
C1850 C1848 1.391 . S
C1850 C1851 1.400 . S
C1851 C1850 1.400 . S
C1851 C1852 1.398 . S
C1851 C1857 1.491 . S
C1852 H1843 0.950 1_655 S
C1852 C1851 1.398 . S
C1852 C1853 1.391 . S
C1853 H1841 0.950 . S
C1853 C1849 1.393 . S
C1853 C1852 1.391 . S
C1854 H1844 0.950 . S
C1854 C1855 1.386 . S
C1854 C1856 1.391 . S
C1855 C1854 1.386 . S
C1855 C1859 1.393 1_455 S
C1856 H1845 0.950 . S
C1856 C1854 1.391 . S
C1856 C1857 1.400 1_455 S
C1857 C1851 1.491 . S
C1857 C1856 1.400 1_655 S
C1857 C1858 1.398 . S
C1858 H1846 0.950 . S
C1858 C1857 1.398 . S
C1858 C1859 1.391 . S
C1859 H1847 0.950 . S
C1859 C1855 1.393 1_655 S
C1859 C1858 1.391 . S
H1860 C1868 0.950 . S
H1861 C1873 0.950 . S
H1862 C1870 0.950 . S
H1863 C1872 0.950 . S
H1864 C1874 0.950 . S
H1865 C1876 0.950 . S
H1866 C1878 0.950 . S
H1867 C1879 0.950 . S
C1868 H1860 0.950 . S
C1868 C1869 1.386 . S
C1868 C1870 1.391 . S
C1869 C1868 1.386 . S
C1869 C1873 1.393 . S
C1870 H1862 0.950 . S
C1870 C1868 1.391 . S
C1870 C1871 1.400 . S
C1871 C1870 1.400 . S
C1871 C1872 1.398 . S
C1871 C1877 1.491 . S
C1872 H1863 0.950 . S
C1872 C1871 1.398 . S
C1872 C1873 1.391 . S
C1873 H1861 0.950 . S
C1873 C1869 1.393 . S
C1873 C1872 1.391 . S
C1874 H1864 0.950 . S
C1874 C1875 1.386 . S
C1874 C1876 1.391 . S
C1875 C1874 1.386 . S
C1875 C1879 1.393 . S
C1876 H1865 0.950 . S
C1876 C1874 1.391 . S
C1876 C1877 1.400 . S
C1877 C1871 1.491 . S
C1877 C1876 1.400 . S
C1877 C1878 1.398 . S
C1878 H1866 0.950 . S
C1878 C1877 1.398 . S
C1878 C1879 1.391 . S
C1879 H1867 0.950 . S
C1879 C1875 1.393 . S
C1879 C1878 1.391 . S
H1880 C1888 0.950 . S
H1881 C1893 0.950 . S
H1882 C1890 0.950 . S
H1883 C1892 0.950 . S
H1884 C1894 0.950 . S
H1885 C1896 0.950 . S
H1886 C1898 0.950 . S
H1887 C1899 0.950 . S
C1888 H1880 0.950 . S
C1888 C1889 1.386 . S
C1888 C1890 1.391 . S
C1889 C1888 1.386 . S
C1889 C1893 1.393 . S
C1890 H1882 0.950 . S
C1890 C1888 1.391 . S
C1890 C1891 1.400 . S
C1891 C1890 1.400 . S
C1891 C1892 1.398 . S
C1891 C1897 1.491 . S
C1892 H1883 0.950 . S
C1892 C1891 1.398 . S
C1892 C1893 1.391 . S
C1893 H1881 0.950 . S
C1893 C1889 1.393 . S
C1893 C1892 1.391 . S
C1894 H1884 0.950 . S
C1894 C1895 1.386 . S
C1894 C1896 1.391 . S
C1895 C1894 1.386 . S
C1895 C1899 1.393 . S
C1896 H1885 0.950 . S
C1896 C1894 1.391 . S
C1896 C1897 1.400 . S
C1897 C1891 1.491 . S
C1897 C1896 1.400 . S
C1897 C1898 1.398 . S
C1898 H1886 0.950 . S
C1898 C1897 1.398 . S
C1898 C1899 1.391 . S
C1899 H1887 0.950 . S
C1899 C1895 1.393 . S
C1899 C1898 1.391 . S
H1900 C1908 0.950 . S
H1901 C1913 0.950 . S
H1902 C1910 0.950 . S
H1903 C1912 0.950 . S
H1904 C1914 0.950 . S
H1905 C1916 0.950 . S
H1906 C1918 0.950 . S
H1907 C1919 0.950 . S
C1908 H1900 0.950 . S
C1908 C1909 1.386 . S
C1908 C1910 1.391 . S
C1909 C1908 1.386 . S
C1909 C1913 1.393 . S
C1910 H1902 0.950 . S
C1910 C1908 1.391 . S
C1910 C1911 1.400 . S
C1911 C1910 1.400 . S
C1911 C1912 1.398 . S
C1911 C1917 1.491 . S
C1912 H1903 0.950 . S
C1912 C1911 1.398 . S
C1912 C1913 1.391 . S
C1913 H1901 0.950 . S
C1913 C1909 1.393 . S
C1913 C1912 1.391 . S
C1914 H1904 0.950 . S
C1914 C1915 1.386 . S
C1914 C1916 1.391 . S
C1915 C1914 1.386 . S
C1915 C1919 1.393 . S
C1916 H1905 0.950 . S
C1916 C1914 1.391 . S
C1916 C1917 1.400 . S
C1917 C1911 1.491 . S
C1917 C1916 1.400 . S
C1917 C1918 1.398 . S
C1918 H1906 0.950 . S
C1918 C1917 1.398 . S
C1918 C1919 1.391 . S
C1919 H1907 0.950 . S
C1919 C1915 1.393 . S
C1919 C1918 1.391 . S
H1920 C1928 0.978 . S
H1921 C1933 0.950 . S
H1922 C1930 0.945 1_565 S
H1923 C1932 0.950 . S
H1924 C1934 0.950 . S
H1925 C1936 0.956 . S
H1926 C1938 0.950 1_565 S
H1927 C1939 0.950 1_565 S
C1928 H1920 0.978 . S
C1928 C1929 1.352 1_565 S
C1928 C1930 1.399 1_565 S
C1929 C1928 1.352 1_545 S
C1929 C1933 1.393 . S
C1930 H1922 0.945 1_545 S
C1930 C1928 1.399 1_545 S
C1930 C1931 1.404 . S
C1931 C1930 1.404 . S
C1931 C1932 1.398 . S
C1931 C1937 1.491 . S
C1932 H1923 0.950 . S
C1932 C1931 1.398 . S
C1932 C1933 1.391 . S
C1933 H1921 0.950 . S
C1933 C1929 1.393 . S
C1933 C1932 1.391 . S
C1934 H1924 0.950 . S
C1934 C1935 1.386 . S
C1934 C1936 1.376 1_455 S
C1935 C1934 1.386 . S
C1935 C1939 1.393 1_455 S
C1936 H1925 0.956 . S
C1936 C1934 1.376 1_655 S
C1936 C1937 1.414 . S
C1937 C1931 1.491 . S
C1937 C1936 1.414 . S
C1937 C1938 1.398 . S
C1938 H1926 0.950 1_545 S
C1938 C1937 1.398 . S
C1938 C1939 1.391 . S
C1939 H1927 0.950 1_545 S
C1939 C1935 1.393 1_655 S
C1939 C1938 1.391 . S
H1940 C1948 0.950 . S
H1941 C1953 0.950 . S
H1942 C1950 0.950 . S
H1943 C1952 0.950 . S
H1944 C1954 0.950 . S
H1945 C1956 0.950 . S
H1946 C1958 0.950 . S
H1947 C1959 0.950 . S
C1948 H1940 0.950 . S
C1948 C1949 1.386 . S
C1948 C1950 1.391 . S
C1949 C1948 1.386 . S
C1949 C1953 1.393 . S
C1950 H1942 0.950 . S
C1950 C1948 1.391 . S
C1950 C1951 1.400 . S
C1951 C1950 1.400 . S
C1951 C1952 1.398 . S
C1951 C1957 1.491 . S
C1952 H1943 0.950 . S
C1952 C1951 1.398 . S
C1952 C1953 1.391 . S
C1953 H1941 0.950 . S
C1953 C1949 1.393 . S
C1953 C1952 1.391 . S
C1954 H1944 0.950 . S
C1954 C1955 1.386 . S
C1954 C1956 1.391 . S
C1955 C1954 1.386 . S
C1955 C1959 1.393 . S
C1956 H1945 0.950 . S
C1956 C1954 1.391 . S
C1956 C1957 1.400 . S
C1957 C1951 1.491 . S
C1957 C1956 1.400 . S
C1957 C1958 1.398 . S
C1958 H1946 0.950 . S
C1958 C1957 1.398 . S
C1958 C1959 1.391 . S
C1959 H1947 0.950 . S
C1959 C1955 1.393 . S
C1959 C1958 1.391 . S
H1960 C1968 0.950 . S
H1961 C1973 0.950 . S
H1962 C1970 0.950 . S
H1963 C1972 0.950 . S
H1964 C1974 0.950 . S
H1965 C1976 0.950 . S
H1966 C1978 0.950 . S
H1967 C1979 0.950 . S
C1968 H1960 0.950 . S
C1968 C1969 1.386 . S
C1968 C1970 1.391 . S
C1969 C1968 1.386 . S
C1969 C1973 1.393 . S
C1970 H1962 0.950 . S
C1970 C1968 1.391 . S
C1970 C1971 1.400 . S
C1971 C1970 1.400 . S
C1971 C1972 1.398 . S
C1971 C1977 1.491 . S
C1972 H1963 0.950 . S
C1972 C1971 1.398 . S
C1972 C1973 1.391 . S
C1973 H1961 0.950 . S
C1973 C1969 1.393 . S
C1973 C1972 1.391 . S
C1974 H1964 0.950 . S
C1974 C1975 1.386 . S
C1974 C1976 1.391 . S
C1975 C1974 1.386 . S
C1975 C1979 1.393 . S
C1976 H1965 0.950 . S
C1976 C1974 1.391 . S
C1976 C1977 1.400 . S
C1977 C1971 1.491 . S
C1977 C1976 1.400 . S
C1977 C1978 1.398 . S
C1978 H1966 0.950 . S
C1978 C1977 1.398 . S
C1978 C1979 1.391 . S
C1979 H1967 0.950 . S
C1979 C1975 1.393 . S
C1979 C1978 1.391 . S
H1980 C1988 0.950 . S
H1981 C1993 0.950 . S
H1982 C1990 0.950 . S
H1983 C1992 0.950 . S
H1984 C1994 0.950 . S
H1985 C1996 0.950 . S
H1986 C1998 0.950 . S
H1987 C1999 0.950 . S
C1988 H1980 0.950 . S
C1988 C1989 1.386 . S
C1988 C1990 1.391 . S
C1989 C1988 1.386 . S
C1989 C1993 1.393 . S
C1990 H1982 0.950 . S
C1990 C1988 1.391 . S
C1990 C1991 1.400 . S
C1991 C1990 1.400 . S
C1991 C1992 1.398 . S
C1991 C1997 1.491 . S
C1992 H1983 0.950 . S
C1992 C1991 1.398 . S
C1992 C1993 1.391 . S
C1993 H1981 0.950 . S
C1993 C1989 1.393 . S
C1993 C1992 1.391 . S
C1994 H1984 0.950 . S
C1994 C1995 1.386 . S
C1994 C1996 1.391 . S
C1995 C1994 1.386 . S
C1995 C1999 1.393 . S
C1996 H1985 0.950 . S
C1996 C1994 1.391 . S
C1996 C1997 1.400 . S
C1997 C1991 1.491 . S
C1997 C1996 1.400 . S
C1997 C1998 1.398 . S
C1998 H1986 0.950 . S
C1998 C1997 1.398 . S
C1998 C1999 1.391 . S
C1999 H1987 0.950 . S
C1999 C1995 1.393 . S
C1999 C1998 1.391 . S
H2000 C2008 0.950 . S
H2001 C2013 0.950 . S
H2002 C2010 0.950 . S
H2003 C2012 0.950 . S
H2004 C2014 0.950 . S
H2005 C2016 0.950 . S
H2006 C2018 0.950 1_556 S
H2007 C2019 0.950 1_546 S
C2008 H2000 0.950 . S
C2008 C2009 1.407 . S
C2008 C2010 1.391 . S
C2009 C2008 1.407 . S
C2009 C2013 1.362 1_556 S
C2010 H2002 0.950 . S
C2010 C2008 1.391 . S
C2010 C2011 1.400 1_556 S
C2011 C2010 1.400 1_554 S
C2011 C2012 1.398 . S
C2011 C2017 1.491 . S
C2012 H2003 0.950 . S
C2012 C2011 1.398 . S
C2012 C2013 1.391 . S
C2013 H2001 0.950 . S
C2013 C2009 1.362 1_554 S
C2013 C2012 1.391 . S
C2014 H2004 0.950 . S
C2014 C2015 1.388 . S
C2014 C2016 1.391 . S
C2015 C2014 1.388 . S
C2015 C2019 1.393 . S
C2016 H2005 0.950 . S
C2016 C2014 1.391 . S
C2016 C2017 1.400 . S
C2017 C2011 1.491 . S
C2017 C2016 1.400 . S
C2017 C2018 1.398 . S
C2018 H2006 0.950 1_554 S
C2018 C2017 1.398 . S
C2018 C2019 1.391 . S
C2019 H2007 0.950 1_564 S
C2019 C2015 1.393 . S
C2019 C2018 1.391 . S
H2020 C2028 0.950 . S
H2021 C2033 0.950 . S
H2022 C2030 0.950 . S
H2023 C2032 0.950 . S
H2024 C2034 0.950 . S
H2025 C2036 0.950 . S
H2026 C2038 0.950 . S
H2027 C2039 0.950 . S
C2028 H2020 0.950 . S
C2028 C2029 1.386 . S
C2028 C2030 1.391 . S
C2029 C2028 1.386 . S
C2029 C2033 1.393 1_554 S
C2030 H2022 0.950 . S
C2030 C2028 1.391 . S
C2030 C2031 1.400 . S
C2031 C2030 1.400 . S
C2031 C2032 1.398 1_554 S
C2031 C2037 1.491 . S
C2032 H2023 0.950 . S
C2032 C2031 1.398 1_556 S
C2032 C2033 1.391 . S
C2033 H2021 0.950 . S
C2033 C2029 1.393 1_556 S
C2033 C2032 1.391 . S
C2034 H2024 0.950 . S
C2034 C2035 1.386 1_556 S
C2034 C2036 1.391 . S
C2035 C2034 1.386 1_554 S
C2035 C2039 1.393 . S
C2036 H2025 0.950 . S
C2036 C2034 1.391 . S
C2036 C2037 1.400 1_556 S
C2037 C2031 1.491 . S
C2037 C2036 1.400 1_554 S
C2037 C2038 1.398 . S
C2038 H2026 0.950 . S
C2038 C2037 1.398 . S
C2038 C2039 1.391 . S
C2039 H2027 0.950 . S
C2039 C2035 1.393 . S
C2039 C2038 1.391 . S
H2040 C2048 0.950 . S
H2041 C2053 0.950 . S
H2042 C2050 0.950 . S
H2043 C2052 0.950 . S
H2044 C2054 0.950 . S
H2045 C2056 0.950 . S
H2046 C2058 0.950 . S
H2047 C2059 0.950 . S
C2048 H2040 0.950 . S
C2048 C2049 1.386 . S
C2048 C2050 1.391 . S
C2049 C2048 1.386 . S
C2049 C2053 1.393 . S
C2050 H2042 0.950 . S
C2050 C2048 1.391 . S
C2050 C2051 1.400 . S
C2051 C2050 1.400 . S
C2051 C2052 1.398 . S
C2051 C2057 1.491 . S
C2052 H2043 0.950 . S
C2052 C2051 1.398 . S
C2052 C2053 1.391 . S
C2053 H2041 0.950 . S
C2053 C2049 1.393 . S
C2053 C2052 1.391 . S
C2054 H2044 0.950 . S
C2054 C2055 1.386 . S
C2054 C2056 1.391 . S
C2055 C2054 1.386 . S
C2055 C2059 1.393 . S
C2056 H2045 0.950 . S
C2056 C2054 1.391 . S
C2056 C2057 1.400 . S
C2057 C2051 1.491 . S
C2057 C2056 1.400 . S
C2057 C2058 1.398 . S
C2058 H2046 0.950 . S
C2058 C2057 1.398 . S
C2058 C2059 1.391 . S
C2059 H2047 0.950 . S
C2059 C2055 1.393 . S
C2059 C2058 1.391 . S
H2060 C2068 0.950 . S
H2061 C2073 0.950 . S
H2062 C2070 0.950 . S
H2063 C2072 0.950 . S
H2064 C2074 0.950 . S
H2065 C2076 0.950 . S
H2066 C2078 0.950 . S
H2067 C2079 0.950 . S
C2068 H2060 0.950 . S
C2068 C2069 1.386 . S
C2068 C2070 1.391 . S
C2069 C2068 1.386 . S
C2069 C2073 1.393 . S
C2070 H2062 0.950 . S
C2070 C2068 1.391 . S
C2070 C2071 1.400 . S
C2071 C2070 1.400 . S
C2071 C2072 1.398 . S
C2071 C2077 1.491 . S
C2072 H2063 0.950 . S
C2072 C2071 1.398 . S
C2072 C2073 1.391 . S
C2073 H2061 0.950 . S
C2073 C2069 1.393 . S
C2073 C2072 1.391 . S
C2074 H2064 0.950 . S
C2074 C2075 1.386 . S
C2074 C2076 1.391 . S
C2075 C2074 1.386 . S
C2075 C2079 1.393 . S
C2076 H2065 0.950 . S
C2076 C2074 1.391 . S
C2076 C2077 1.400 . S
C2077 C2071 1.491 . S
C2077 C2076 1.400 . S
C2077 C2078 1.398 . S
C2078 H2066 0.950 . S
C2078 C2077 1.398 . S
C2078 C2079 1.391 . S
C2079 H2067 0.950 . S
C2079 C2075 1.393 . S
C2079 C2078 1.391 . S
H2080 C2088 0.950 . S
H2081 C2093 0.950 . S
H2082 C2090 0.950 . S
H2083 C2092 0.950 . S
H2084 C2094 0.950 . S
H2085 C2096 0.950 . S
H2086 C2098 0.950 . S
H2087 C2099 0.950 . S
C2088 H2080 0.950 . S
C2088 C2089 1.386 . S
C2088 C2090 1.391 . S
C2089 C2088 1.386 . S
C2089 C2093 1.393 . S
C2090 H2082 0.950 . S
C2090 C2088 1.391 . S
C2090 C2091 1.400 . S
C2091 C2090 1.400 . S
C2091 C2092 1.398 . S
C2091 C2097 1.491 . S
C2092 H2083 0.950 . S
C2092 C2091 1.398 . S
C2092 C2093 1.391 . S
C2093 H2081 0.950 . S
C2093 C2089 1.393 . S
C2093 C2092 1.391 . S
C2094 H2084 0.950 . S
C2094 C2095 1.386 . S
C2094 C2096 1.391 . S
C2095 C2094 1.386 . S
C2095 C2099 1.393 . S
C2096 H2085 0.950 . S
C2096 C2094 1.391 . S
C2096 C2097 1.400 . S
C2097 C2091 1.491 . S
C2097 C2096 1.400 . S
C2097 C2098 1.398 . S
C2098 H2086 0.950 . S
C2098 C2097 1.398 . S
C2098 C2099 1.391 . S
C2099 H2087 0.950 . S
C2099 C2095 1.393 . S
C2099 C2098 1.391 . S
H2100 C2108 0.950 . S
H2101 C2113 0.950 . S
H2102 C2110 0.950 . S
H2103 C2112 0.950 . S
H2104 C2114 0.950 . S
H2105 C2116 0.950 . S
H2106 C2118 0.950 . S
H2107 C2119 0.950 . S
C2108 H2100 0.950 . S
C2108 C2109 1.386 . S
C2108 C2110 1.391 . S
C2109 C2108 1.386 . S
C2109 C2113 1.393 . S
C2110 H2102 0.950 . S
C2110 C2108 1.391 . S
C2110 C2111 1.400 . S
C2111 C2110 1.400 . S
C2111 C2112 1.398 . S
C2111 C2117 1.491 . S
C2112 H2103 0.950 . S
C2112 C2111 1.398 . S
C2112 C2113 1.391 . S
C2113 H2101 0.950 . S
C2113 C2109 1.393 . S
C2113 C2112 1.391 . S
C2114 H2104 0.950 . S
C2114 C2115 1.386 . S
C2114 C2116 1.391 . S
C2115 C2114 1.386 . S
C2115 C2119 1.393 . S
C2116 H2105 0.950 . S
C2116 C2114 1.391 . S
C2116 C2117 1.400 . S
C2117 C2111 1.491 . S
C2117 C2116 1.400 . S
C2117 C2118 1.398 . S
C2118 H2106 0.950 . S
C2118 C2117 1.398 . S
C2118 C2119 1.391 . S
C2119 H2107 0.950 . S
C2119 C2115 1.393 . S
C2119 C2118 1.391 . S
H2120 C2128 0.950 . S
H2121 C2133 0.950 . S
H2122 C2130 0.950 . S
H2123 C2132 0.950 . S
H2124 C2134 0.950 . S
H2125 C2136 0.950 . S
H2126 C2138 0.950 . S
H2127 C2139 0.950 . S
C2128 H2120 0.950 . S
C2128 C2129 1.386 . S
C2128 C2130 1.391 . S
C2129 C2128 1.386 . S
C2129 C2133 1.393 . S
C2130 H2122 0.950 . S
C2130 C2128 1.391 . S
C2130 C2131 1.400 . S
C2131 C2130 1.400 . S
C2131 C2132 1.398 . S
C2131 C2137 1.491 . S
C2132 H2123 0.950 . S
C2132 C2131 1.398 . S
C2132 C2133 1.391 . S
C2133 H2121 0.950 . S
C2133 C2129 1.393 . S
C2133 C2132 1.391 . S
C2134 H2124 0.950 . S
C2134 C2135 1.386 . S
C2134 C2136 1.391 . S
C2135 C2134 1.386 . S
C2135 C2139 1.393 . S
C2136 H2125 0.950 . S
C2136 C2134 1.391 . S
C2136 C2137 1.400 . S
C2137 C2131 1.491 . S
C2137 C2136 1.400 . S
C2137 C2138 1.398 . S
C2138 H2126 0.950 . S
C2138 C2137 1.398 . S
C2138 C2139 1.391 . S
C2139 H2127 0.950 . S
C2139 C2135 1.393 . S
C2139 C2138 1.391 . S
H2140 C2148 0.950 . S
H2141 C2153 0.950 . S
H2142 C2150 0.950 . S
H2143 C2152 0.950 . S
H2144 C2154 0.950 . S
H2145 C2156 0.950 . S
H2146 C2158 0.950 . S
H2147 C2159 0.950 . S
C2148 H2140 0.950 . S
C2148 C2149 1.386 . S
C2148 C2150 1.391 . S
C2149 C2148 1.386 . S
C2149 C2153 1.393 . S
C2150 H2142 0.950 . S
C2150 C2148 1.391 . S
C2150 C2151 1.400 . S
C2151 C2150 1.400 . S
C2151 C2152 1.398 . S
C2151 C2157 1.491 . S
C2152 H2143 0.950 . S
C2152 C2151 1.398 . S
C2152 C2153 1.391 . S
C2153 H2141 0.950 . S
C2153 C2149 1.393 . S
C2153 C2152 1.391 . S
C2154 H2144 0.950 . S
C2154 C2155 1.386 . S
C2154 C2156 1.391 . S
C2155 C2154 1.386 . S
C2155 C2159 1.393 . S
C2156 H2145 0.950 . S
C2156 C2154 1.391 . S
C2156 C2157 1.400 . S
C2157 C2151 1.491 . S
C2157 C2156 1.400 . S
C2157 C2158 1.398 . S
C2158 H2146 0.950 . S
C2158 C2157 1.398 . S
C2158 C2159 1.391 . S
C2159 H2147 0.950 . S
C2159 C2155 1.393 . S
C2159 C2158 1.391 . S
H2160 C2168 0.950 . S
H2161 C2173 0.950 . S
H2162 C2170 0.950 . S
H2163 C2172 0.950 . S
H2164 C2174 0.950 . S
H2165 C2176 0.950 . S
H2166 C2178 0.950 . S
H2167 C2179 0.950 . S
C2168 H2160 0.950 . S
C2168 C2169 1.386 . S
C2168 C2170 1.391 . S
C2169 C2168 1.386 . S
C2169 C2173 1.393 . S
C2170 H2162 0.950 . S
C2170 C2168 1.391 . S
C2170 C2171 1.400 . S
C2171 C2170 1.400 . S
C2171 C2172 1.398 . S
C2171 C2177 1.491 . S
C2172 H2163 0.950 . S
C2172 C2171 1.398 . S
C2172 C2173 1.391 . S
C2173 H2161 0.950 . S
C2173 C2169 1.393 . S
C2173 C2172 1.391 . S
C2174 H2164 0.950 . S
C2174 C2175 1.386 . S
C2174 C2176 1.391 . S
C2175 C2174 1.386 . S
C2175 C2179 1.393 . S
C2176 H2165 0.950 . S
C2176 C2174 1.391 . S
C2176 C2177 1.400 . S
C2177 C2171 1.491 . S
C2177 C2176 1.400 . S
C2177 C2178 1.398 . S
C2178 H2166 0.950 . S
C2178 C2177 1.398 . S
C2178 C2179 1.391 . S
C2179 H2167 0.950 . S
C2179 C2175 1.393 . S
C2179 C2178 1.391 . S
H2180 C2188 0.950 . S
H2181 C2193 0.950 . S
H2182 C2190 0.950 . S
H2183 C2192 0.950 . S
H2184 C2194 0.950 . S
H2185 C2196 0.950 . S
H2186 C2198 0.950 . S
H2187 C2199 0.950 . S
C2188 H2180 0.950 . S
C2188 C2189 1.386 . S
C2188 C2190 1.391 . S
C2189 C2188 1.386 . S
C2189 C2193 1.393 . S
C2190 H2182 0.950 . S
C2190 C2188 1.391 . S
C2190 C2191 1.400 . S
C2191 C2190 1.400 . S
C2191 C2192 1.398 . S
C2191 C2197 1.491 . S
C2192 H2183 0.950 . S
C2192 C2191 1.398 . S
C2192 C2193 1.391 . S
C2193 H2181 0.950 . S
C2193 C2189 1.393 . S
C2193 C2192 1.391 . S
C2194 H2184 0.950 . S
C2194 C2195 1.386 . S
C2194 C2196 1.391 . S
C2195 C2194 1.386 . S
C2195 C2199 1.393 . S
C2196 H2185 0.950 . S
C2196 C2194 1.391 . S
C2196 C2197 1.400 . S
C2197 C2191 1.491 . S
C2197 C2196 1.400 . S
C2197 C2198 1.398 . S
C2198 H2186 0.950 . S
C2198 C2197 1.398 . S
C2198 C2199 1.391 . S
C2199 H2187 0.950 . S
C2199 C2195 1.393 . S
C2199 C2198 1.391 . S
H2200 C2208 0.950 . S
H2201 C2213 0.950 . S
H2202 C2210 0.950 . S
H2203 C2212 0.950 . S
H2204 C2214 0.950 . S
H2205 C2216 0.950 . S
H2206 C2218 0.950 . S
H2207 C2219 0.950 . S
C2208 H2200 0.950 . S
C2208 C2209 1.386 . S
C2208 C2210 1.391 . S
C2209 C2208 1.386 . S
C2209 C2213 1.393 . S
C2210 H2202 0.950 . S
C2210 C2208 1.391 . S
C2210 C2211 1.400 . S
C2211 C2210 1.400 . S
C2211 C2212 1.398 . S
C2211 C2217 1.491 . S
C2212 H2203 0.950 . S
C2212 C2211 1.398 . S
C2212 C2213 1.391 . S
C2213 H2201 0.950 . S
C2213 C2209 1.393 . S
C2213 C2212 1.391 . S
C2214 H2204 0.950 . S
C2214 C2215 1.386 . S
C2214 C2216 1.391 . S
C2215 C2214 1.386 . S
C2215 C2219 1.393 . S
C2216 H2205 0.950 . S
C2216 C2214 1.391 . S
C2216 C2217 1.400 . S
C2217 C2211 1.491 . S
C2217 C2216 1.400 . S
C2217 C2218 1.398 . S
C2218 H2206 0.950 . S
C2218 C2217 1.398 . S
C2218 C2219 1.391 . S
C2219 H2207 0.950 . S
C2219 C2215 1.393 . S
C2219 C2218 1.391 . S
H2220 C2228 0.950 . S
H2221 C2233 0.950 . S
H2222 C2230 0.950 . S
H2223 C2232 0.950 . S
H2224 C2234 0.950 . S
H2225 C2236 0.950 . S
H2226 C2238 0.950 . S
H2227 C2239 0.950 . S
C2228 H2220 0.950 . S
C2228 C2229 1.386 . S
C2228 C2230 1.391 . S
C2229 C2228 1.386 . S
C2229 C2233 1.393 . S
C2230 H2222 0.950 . S
C2230 C2228 1.391 . S
C2230 C2231 1.400 . S
C2231 C2230 1.400 . S
C2231 C2232 1.398 . S
C2231 C2237 1.491 . S
C2232 H2223 0.950 . S
C2232 C2231 1.398 . S
C2232 C2233 1.391 . S
C2233 H2221 0.950 . S
C2233 C2229 1.393 . S
C2233 C2232 1.391 . S
C2234 H2224 0.950 . S
C2234 C2235 1.386 . S
C2234 C2236 1.391 . S
C2235 C2234 1.386 . S
C2235 C2239 1.393 . S
C2236 H2225 0.950 . S
C2236 C2234 1.391 . S
C2236 C2237 1.400 . S
C2237 C2231 1.491 . S
C2237 C2236 1.400 . S
C2237 C2238 1.398 . S
C2238 H2226 0.950 . S
C2238 C2237 1.398 . S
C2238 C2239 1.391 . S
C2239 H2227 0.950 . S
C2239 C2235 1.393 . S
C2239 C2238 1.391 . S
H2240 C2248 0.950 . S
H2241 C2253 0.950 . S
H2242 C2250 0.950 . S
H2243 C2252 0.950 . S
H2244 C2254 0.950 1_655 S
H2245 C2256 0.968 . S
H2246 C2258 0.950 . S
H2247 C2259 0.950 . S
C2248 H2240 0.950 . S
C2248 C2249 1.386 . S
C2248 C2250 1.391 . S
C2249 C2248 1.386 . S
C2249 C2253 1.393 . S
C2250 H2242 0.950 . S
C2250 C2248 1.391 . S
C2250 C2251 1.400 . S
C2251 C2250 1.400 . S
C2251 C2252 1.398 . S
C2251 C2257 1.491 . S
C2252 H2243 0.950 . S
C2252 C2251 1.398 . S
C2252 C2253 1.391 . S
C2253 H2241 0.950 . S
C2253 C2249 1.393 . S
C2253 C2252 1.391 . S
C2254 H2244 0.950 1_455 S
C2254 C2255 1.386 . S
C2254 C2256 1.391 . S
C2255 C2254 1.386 . S
C2255 C2259 1.393 . S
C2256 H2245 0.968 . S
C2256 C2254 1.391 . S
C2256 C2257 1.400 . S
C2257 C2251 1.491 . S
C2257 C2256 1.400 . S
C2257 C2258 1.398 . S
C2258 H2246 0.950 . S
C2258 C2257 1.398 . S
C2258 C2259 1.391 . S
C2259 H2247 0.950 . S
C2259 C2255 1.393 . S
C2259 C2258 1.391 . S
H2260 C2268 0.950 . S
H2261 C2273 0.950 . S
H2262 C2270 0.950 . S
H2263 C2272 0.950 . S
H2264 C2274 0.950 . S
H2265 C2276 0.950 . S
H2266 C2278 0.950 . S
H2267 C2279 0.950 . S
C2268 H2260 0.950 . S
C2268 C2269 1.386 . S
C2268 C2270 1.391 . S
C2269 C2268 1.386 . S
C2269 C2273 1.393 . S
C2270 H2262 0.950 . S
C2270 C2268 1.391 . S
C2270 C2271 1.400 . S
C2271 C2270 1.400 . S
C2271 C2272 1.398 . S
C2271 C2277 1.491 . S
C2272 H2263 0.950 . S
C2272 C2271 1.398 . S
C2272 C2273 1.391 . S
C2273 H2261 0.950 . S
C2273 C2269 1.393 . S
C2273 C2272 1.391 . S
C2274 H2264 0.950 . S
C2274 C2275 1.386 . S
C2274 C2276 1.391 . S
C2275 C2274 1.386 . S
C2275 C2279 1.393 . S
C2276 H2265 0.950 . S
C2276 C2274 1.391 . S
C2276 C2277 1.400 . S
C2277 C2271 1.491 . S
C2277 C2276 1.400 . S
C2277 C2278 1.398 . S
C2278 H2266 0.950 . S
C2278 C2277 1.398 . S
C2278 C2279 1.391 . S
C2279 H2267 0.950 . S
C2279 C2275 1.393 . S
C2279 C2278 1.391 . S
H2280 C2288 0.950 . S
H2281 C2293 0.950 . S
H2282 C2290 0.950 . S
H2283 C2292 0.950 . S
H2284 C2294 0.946 . S
H2285 C2296 0.950 . S
H2286 C2298 0.950 . S
H2287 C2299 0.950 . S
C2288 H2280 0.950 . S
C2288 C2289 1.386 . S
C2288 C2290 1.391 . S
C2289 C2288 1.386 . S
C2289 C2293 1.393 . S
C2290 H2282 0.950 . S
C2290 C2288 1.391 . S
C2290 C2291 1.400 . S
C2291 C2290 1.400 . S
C2291 C2292 1.398 . S
C2291 C2297 1.491 . S
C2292 H2283 0.950 . S
C2292 C2291 1.398 . S
C2292 C2293 1.391 . S
C2293 H2281 0.950 . S
C2293 C2289 1.393 . S
C2293 C2292 1.391 . S
C2294 H2284 0.946 . S
C2294 C2295 1.386 . S
C2294 C2296 1.391 . S
C2295 C2294 1.386 . S
C2295 C2299 1.393 . S
C2296 H2285 0.950 . S
C2296 C2294 1.391 . S
C2296 C2297 1.400 . S
C2297 C2291 1.491 . S
C2297 C2296 1.400 . S
C2297 C2298 1.398 . S
C2298 H2286 0.950 . S
C2298 C2297 1.398 . S
C2298 C2299 1.391 . S
C2299 H2287 0.950 . S
C2299 C2295 1.393 . S
C2299 C2298 1.391 . S
H2300 C2308 0.950 . S
H2301 C2313 0.950 . S
H2302 C2310 0.950 . S
H2303 C2312 0.950 . S
H2304 C2314 0.950 . S
H2305 C2316 0.950 . S
H2306 C2318 0.950 . S
H2307 C2319 0.950 . S
C2308 H2300 0.950 . S
C2308 C2309 1.386 . S
C2308 C2310 1.391 . S
C2309 C2308 1.386 . S
C2309 C2313 1.393 . S
C2310 H2302 0.950 . S
C2310 C2308 1.391 . S
C2310 C2311 1.400 . S
C2311 C2310 1.400 . S
C2311 C2312 1.398 . S
C2311 C2317 1.491 . S
C2312 H2303 0.950 . S
C2312 C2311 1.398 . S
C2312 C2313 1.391 . S
C2313 H2301 0.950 . S
C2313 C2309 1.393 . S
C2313 C2312 1.391 . S
C2314 H2304 0.950 . S
C2314 C2315 1.386 . S
C2314 C2316 1.391 . S
C2315 C2314 1.386 . S
C2315 C2319 1.393 . S
C2316 H2305 0.950 . S
C2316 C2314 1.391 . S
C2316 C2317 1.400 . S
C2317 C2311 1.491 . S
C2317 C2316 1.400 . S
C2317 C2318 1.398 . S
C2318 H2306 0.950 . S
C2318 C2317 1.398 . S
C2318 C2319 1.391 . S
C2319 H2307 0.950 . S
C2319 C2315 1.393 . S
C2319 C2318 1.391 . S
H2320 C2328 0.950 . S
H2321 C2333 0.950 . S
H2322 C2330 0.950 . S
H2323 C2332 0.950 . S
H2324 C2334 0.950 . S
H2325 C2336 0.950 . S
H2326 C2338 0.950 . S
H2327 C2339 0.950 1_565 S
C2328 H2320 0.950 . S
C2328 C2329 1.386 . S
C2328 C2330 1.391 . S
C2329 C2328 1.386 . S
C2329 C2333 1.393 . S
C2330 H2322 0.950 . S
C2330 C2328 1.391 . S
C2330 C2331 1.400 . S
C2331 C2330 1.400 . S
C2331 C2332 1.398 . S
C2331 C2337 1.491 . S
C2332 H2323 0.950 . S
C2332 C2331 1.398 . S
C2332 C2333 1.391 . S
C2333 H2321 0.950 . S
C2333 C2329 1.393 . S
C2333 C2332 1.391 . S
C2334 H2324 0.950 . S
C2334 C2335 1.386 . S
C2334 C2336 1.391 . S
C2335 C2334 1.386 . S
C2335 C2339 1.393 . S
C2336 H2325 0.950 . S
C2336 C2334 1.391 . S
C2336 C2337 1.400 . S
C2337 C2331 1.491 . S
C2337 C2336 1.400 . S
C2337 C2338 1.398 . S
C2338 H2326 0.950 . S
C2338 C2337 1.398 . S
C2338 C2339 1.391 . S
C2339 H2327 0.950 1_545 S
C2339 C2335 1.393 . S
C2339 C2338 1.391 . S
H2340 C2348 0.950 . S
H2341 C2353 0.950 . S
H2342 C2350 0.950 . S
H2343 C2352 0.950 . S
H2344 C2354 0.950 . S
H2345 C2356 0.950 . S
H2346 C2358 0.950 . S
H2347 C2359 0.950 . S
C2348 H2340 0.950 . S
C2348 C2349 1.386 . S
C2348 C2350 1.391 . S
C2349 C2348 1.386 . S
C2349 C2353 1.393 . S
C2350 H2342 0.950 . S
C2350 C2348 1.391 . S
C2350 C2351 1.400 . S
C2351 C2350 1.400 . S
C2351 C2352 1.398 . S
C2351 C2357 1.491 . S
C2352 H2343 0.950 . S
C2352 C2351 1.398 . S
C2352 C2353 1.391 . S
C2353 H2341 0.950 . S
C2353 C2349 1.393 . S
C2353 C2352 1.391 . S
C2354 H2344 0.950 . S
C2354 C2355 1.386 . S
C2354 C2356 1.391 . S
C2355 C2354 1.386 . S
C2355 C2359 1.393 . S
C2356 H2345 0.950 . S
C2356 C2354 1.391 . S
C2356 C2357 1.400 . S
C2357 C2351 1.491 . S
C2357 C2356 1.400 . S
C2357 C2358 1.398 . S
C2358 H2346 0.950 . S
C2358 C2357 1.398 . S
C2358 C2359 1.391 . S
C2359 H2347 0.950 . S
C2359 C2355 1.393 . S
C2359 C2358 1.391 . S
H2360 C2368 0.950 1_565 S
H2361 C2373 0.950 . S
H2362 C2370 0.950 . S
H2363 C2372 0.950 . S
H2364 C2374 0.950 . S
H2365 C2376 0.950 . S
H2366 C2378 0.950 . S
H2367 C2379 0.950 . S
C2368 H2360 0.950 1_545 S
C2368 C2369 1.386 . S
C2368 C2370 1.391 . S
C2369 C2368 1.386 . S
C2369 C2373 1.393 . S
C2370 H2362 0.950 . S
C2370 C2368 1.391 . S
C2370 C2371 1.400 . S
C2371 C2370 1.400 . S
C2371 C2372 1.398 . S
C2371 C2377 1.491 . S
C2372 H2363 0.950 . S
C2372 C2371 1.398 . S
C2372 C2373 1.391 . S
C2373 H2361 0.950 . S
C2373 C2369 1.393 . S
C2373 C2372 1.391 . S
C2374 H2364 0.950 . S
C2374 C2375 1.386 . S
C2374 C2376 1.391 . S
C2375 C2374 1.386 . S
C2375 C2379 1.393 . S
C2376 H2365 0.950 . S
C2376 C2374 1.391 . S
C2376 C2377 1.400 . S
C2377 C2371 1.491 . S
C2377 C2376 1.400 . S
C2377 C2378 1.398 . S
C2378 H2366 0.950 . S
C2378 C2377 1.398 . S
C2378 C2379 1.391 . S
C2379 H2367 0.950 . S
C2379 C2375 1.393 . S
C2379 C2378 1.391 . S
H2380 C2388 0.950 . S
H2381 C2393 0.950 . S
H2382 C2390 0.950 . S
H2383 C2392 0.950 . S
H2384 C2394 0.950 . S
H2385 C2396 0.950 . S
H2386 C2398 0.950 . S
H2387 C2399 0.950 . S
C2388 H2380 0.950 . S
C2388 C2389 1.386 . S
C2388 C2390 1.391 . S
C2389 C2388 1.386 . S
C2389 C2393 1.393 . S
C2390 H2382 0.950 . S
C2390 C2388 1.391 . S
C2390 C2391 1.400 . S
C2391 C2390 1.400 . S
C2391 C2392 1.398 . S
C2391 C2397 1.491 . S
C2392 H2383 0.950 . S
C2392 C2391 1.398 . S
C2392 C2393 1.391 . S
C2393 H2381 0.950 . S
C2393 C2389 1.393 . S
C2393 C2392 1.391 . S
C2394 H2384 0.950 . S
C2394 C2395 1.386 . S
C2394 C2396 1.391 . S
C2395 C2394 1.386 . S
C2395 C2399 1.393 . S
C2396 H2385 0.950 . S
C2396 C2394 1.391 . S
C2396 C2397 1.400 . S
C2397 C2391 1.491 . S
C2397 C2396 1.400 . S
C2397 C2398 1.398 . S
C2398 H2386 0.950 . S
C2398 C2397 1.398 . S
C2398 C2399 1.391 . S
C2399 H2387 0.950 . S
C2399 C2395 1.393 . S
C2399 C2398 1.391 . S
H2400 C2408 0.950 . S
H2401 C2413 0.950 . S
H2402 C2410 0.950 . S
H2403 C2412 0.950 . S
H2404 C2414 0.950 . S
H2405 C2416 0.950 . S
H2406 C2418 0.950 . S
H2407 C2419 0.950 . S
C2408 H2400 0.950 . S
C2408 C2409 1.386 . S
C2408 C2410 1.391 . S
C2409 C2408 1.386 . S
C2409 C2413 1.393 . S
C2410 H2402 0.950 . S
C2410 C2408 1.391 . S
C2410 C2411 1.400 . S
C2411 C2410 1.400 . S
C2411 C2412 1.398 . S
C2411 C2417 1.491 . S
C2412 H2403 0.950 . S
C2412 C2411 1.398 . S
C2412 C2413 1.391 . S
C2413 H2401 0.950 . S
C2413 C2409 1.393 . S
C2413 C2412 1.391 . S
C2414 H2404 0.950 . S
C2414 C2415 1.386 . S
C2414 C2416 1.391 . S
C2415 C2414 1.386 . S
C2415 C2419 1.393 . S
C2416 H2405 0.950 . S
C2416 C2414 1.391 . S
C2416 C2417 1.400 . S
C2417 C2411 1.491 . S
C2417 C2416 1.400 . S
C2417 C2418 1.398 . S
C2418 H2406 0.950 . S
C2418 C2417 1.398 . S
C2418 C2419 1.391 . S
C2419 H2407 0.950 . S
C2419 C2415 1.393 . S
C2419 C2418 1.391 . S
H2420 C2428 0.950 . S
H2421 C2433 0.950 . S
H2422 C2430 0.950 . S
H2423 C2432 0.950 . S
H2424 C2434 0.950 . S
H2425 C2436 0.950 . S
H2426 C2438 0.950 . S
H2427 C2439 0.950 . S
C2428 H2420 0.950 . S
C2428 C2429 1.386 . S
C2428 C2430 1.391 . S
C2429 C2428 1.386 . S
C2429 C2433 1.393 . S
C2430 H2422 0.950 . S
C2430 C2428 1.391 . S
C2430 C2431 1.400 . S
C2431 C2430 1.400 . S
C2431 C2432 1.398 . S
C2431 C2437 1.491 . S
C2432 H2423 0.950 . S
C2432 C2431 1.398 . S
C2432 C2433 1.391 . S
C2433 H2421 0.950 . S
C2433 C2429 1.393 . S
C2433 C2432 1.391 . S
C2434 H2424 0.950 . S
C2434 C2435 1.386 . S
C2434 C2436 1.391 . S
C2435 C2434 1.386 . S
C2435 C2439 1.393 . S
C2436 H2425 0.950 . S
C2436 C2434 1.391 . S
C2436 C2437 1.400 . S
C2437 C2431 1.491 . S
C2437 C2436 1.400 . S
C2437 C2438 1.398 . S
C2438 H2426 0.950 . S
C2438 C2437 1.398 . S
C2438 C2439 1.391 . S
C2439 H2427 0.950 . S
C2439 C2435 1.393 . S
C2439 C2438 1.391 . S
H2440 C2448 0.950 . S
H2441 C2453 0.950 . S
H2442 C2450 0.950 . S
H2443 C2452 0.950 . S
H2444 C2454 0.950 . S
H2445 C2456 0.950 . S
H2446 C2458 0.950 . S
H2447 C2459 0.950 . S
C2448 H2440 0.950 . S
C2448 C2449 1.386 1_565 S
C2448 C2450 1.391 . S
C2449 C2448 1.386 1_545 S
C2449 C2453 1.393 . S
C2450 H2442 0.950 . S
C2450 C2448 1.391 . S
C2450 C2451 1.400 1_565 S
C2451 C2450 1.400 1_545 S
C2451 C2452 1.398 . S
C2451 C2457 1.491 . S
C2452 H2443 0.950 . S
C2452 C2451 1.398 . S
C2452 C2453 1.391 . S
C2453 H2441 0.950 . S
C2453 C2449 1.393 . S
C2453 C2452 1.391 . S
C2454 H2444 0.950 . S
C2454 C2455 1.386 . S
C2454 C2456 1.391 . S
C2455 C2454 1.386 . S
C2455 C2459 1.393 1_545 S
C2456 H2445 0.950 . S
C2456 C2454 1.391 . S
C2456 C2457 1.400 . S
C2457 C2451 1.491 . S
C2457 C2456 1.400 . S
C2457 C2458 1.398 1_545 S
C2458 H2446 0.950 . S
C2458 C2457 1.398 1_565 S
C2458 C2459 1.391 . S
C2459 H2447 0.950 . S
C2459 C2455 1.393 1_565 S
C2459 C2458 1.391 . S
H2460 C2468 0.950 . S
H2461 C2473 0.950 . S
H2462 C2470 0.950 . S
H2463 C2472 0.950 . S
H2464 C2474 0.950 . S
H2465 C2476 0.950 . S
H2466 C2478 0.950 . S
H2467 C2479 0.950 . S
C2468 H2460 0.950 . S
C2468 C2469 1.386 . S
C2468 C2470 1.391 . S
C2469 C2468 1.386 . S
C2469 C2473 1.393 . S
C2470 H2462 0.950 . S
C2470 C2468 1.391 . S
C2470 C2471 1.400 . S
C2471 C2470 1.400 . S
C2471 C2472 1.398 . S
C2471 C2477 1.491 . S
C2472 H2463 0.950 . S
C2472 C2471 1.398 . S
C2472 C2473 1.391 . S
C2473 H2461 0.950 . S
C2473 C2469 1.393 . S
C2473 C2472 1.391 . S
C2474 H2464 0.950 . S
C2474 C2475 1.386 . S
C2474 C2476 1.391 . S
C2475 C2474 1.386 . S
C2475 C2479 1.393 . S
C2476 H2465 0.950 . S
C2476 C2474 1.391 . S
C2476 C2477 1.400 . S
C2477 C2471 1.491 . S
C2477 C2476 1.400 . S
C2477 C2478 1.398 . S
C2478 H2466 0.950 . S
C2478 C2477 1.398 . S
C2478 C2479 1.391 . S
C2479 H2467 0.950 . S
C2479 C2475 1.393 . S
C2479 C2478 1.391 . S
H2480 C2488 0.950 . S
H2481 C2493 0.950 . S
H2482 C2490 0.950 . S
H2483 C2492 0.950 . S
H2484 C2494 0.950 . S
H2485 C2496 0.950 . S
H2486 C2498 0.950 . S
H2487 C2499 0.950 1_556 S
C2488 H2480 0.950 . S
C2488 C2489 1.386 . S
C2488 C2490 1.391 . S
C2489 C2488 1.386 . S
C2489 C2493 1.393 . S
C2490 H2482 0.950 . S
C2490 C2488 1.391 . S
C2490 C2491 1.400 . S
C2491 C2490 1.400 . S
C2491 C2492 1.398 . S
C2491 C2497 1.491 . S
C2492 H2483 0.950 . S
C2492 C2491 1.398 . S
C2492 C2493 1.391 . S
C2493 H2481 0.950 . S
C2493 C2489 1.393 . S
C2493 C2492 1.391 . S
C2494 H2484 0.950 . S
C2494 C2495 1.386 . S
C2494 C2496 1.391 . S
C2495 C2494 1.386 . S
C2495 C2499 1.393 . S
C2496 H2485 0.950 . S
C2496 C2494 1.391 . S
C2496 C2497 1.400 . S
C2497 C2491 1.491 . S
C2497 C2496 1.400 . S
C2497 C2498 1.398 . S
C2498 H2486 0.950 . S
C2498 C2497 1.398 . S
C2498 C2499 1.391 . S
C2499 H2487 0.950 1_554 S
C2499 C2495 1.393 . S
C2499 C2498 1.391 . S
H2500 C2508 0.950 . S
H2501 C2513 0.950 . S
H2502 C2510 0.950 . S
H2503 C2512 0.950 . S
H2504 C2514 0.950 . S
H2505 C2516 0.950 . S
H2506 C2518 0.950 . S
H2507 C2519 0.950 . S
C2508 H2500 0.950 . S
C2508 C2509 1.386 . S
C2508 C2510 1.391 . S
C2509 C2508 1.386 . S
C2509 C2513 1.393 . S
C2510 H2502 0.950 . S
C2510 C2508 1.391 . S
C2510 C2511 1.400 . S
C2511 C2510 1.400 . S
C2511 C2512 1.398 . S
C2511 C2517 1.491 . S
C2512 H2503 0.950 . S
C2512 C2511 1.398 . S
C2512 C2513 1.391 . S
C2513 H2501 0.950 . S
C2513 C2509 1.393 . S
C2513 C2512 1.391 . S
C2514 H2504 0.950 . S
C2514 C2515 1.386 . S
C2514 C2516 1.391 . S
C2515 C2514 1.386 . S
C2515 C2519 1.393 . S
C2516 H2505 0.950 . S
C2516 C2514 1.391 . S
C2516 C2517 1.400 . S
C2517 C2511 1.491 . S
C2517 C2516 1.400 . S
C2517 C2518 1.398 . S
C2518 H2506 0.950 . S
C2518 C2517 1.398 . S
C2518 C2519 1.391 . S
C2519 H2507 0.950 . S
C2519 C2515 1.393 . S
C2519 C2518 1.391 . S
H2520 C2528 0.950 . S
H2521 C2533 0.950 . S
H2522 C2530 0.950 . S
H2523 C2532 0.950 . S
H2524 C2534 0.950 . S
H2525 C2536 0.950 . S
H2526 C2538 0.950 . S
H2527 C2539 0.950 . S
C2528 H2520 0.950 . S
C2528 C2529 1.386 . S
C2528 C2530 1.391 . S
C2529 C2528 1.386 . S
C2529 C2533 1.393 . S
C2530 H2522 0.950 . S
C2530 C2528 1.391 . S
C2530 C2531 1.400 . S
C2531 C2530 1.400 . S
C2531 C2532 1.398 . S
C2531 C2537 1.491 . S
C2532 H2523 0.950 . S
C2532 C2531 1.398 . S
C2532 C2533 1.391 . S
C2533 H2521 0.950 . S
C2533 C2529 1.393 . S
C2533 C2532 1.391 . S
C2534 H2524 0.950 . S
C2534 C2535 1.386 . S
C2534 C2536 1.391 . S
C2535 C2534 1.386 . S
C2535 C2539 1.393 . S
C2536 H2525 0.950 . S
C2536 C2534 1.391 . S
C2536 C2537 1.400 . S
C2537 C2531 1.491 . S
C2537 C2536 1.400 . S
C2537 C2538 1.398 . S
C2538 H2526 0.950 . S
C2538 C2537 1.398 . S
C2538 C2539 1.391 . S
C2539 H2527 0.950 . S
C2539 C2535 1.393 . S
C2539 C2538 1.391 . S
H2540 C2548 0.950 . S
H2541 C2553 0.950 . S
H2542 C2550 0.950 . S
H2543 C2552 0.950 . S
H2544 C2554 0.950 . S
H2545 C2556 0.950 . S
H2546 C2558 0.950 . S
H2547 C2559 0.950 . S
C2548 H2540 0.950 . S
C2548 C2549 1.386 . S
C2548 C2550 1.391 . S
C2549 C2548 1.386 . S
C2549 C2553 1.393 . S
C2550 H2542 0.950 . S
C2550 C2548 1.391 . S
C2550 C2551 1.400 . S
C2551 C2550 1.400 . S
C2551 C2552 1.398 . S
C2551 C2557 1.491 . S
C2552 H2543 0.950 . S
C2552 C2551 1.398 . S
C2552 C2553 1.391 . S
C2553 H2541 0.950 . S
C2553 C2549 1.393 . S
C2553 C2552 1.391 . S
C2554 H2544 0.950 . S
C2554 C2555 1.386 . S
C2554 C2556 1.391 . S
C2555 C2554 1.386 . S
C2555 C2559 1.393 . S
C2556 H2545 0.950 . S
C2556 C2554 1.391 . S
C2556 C2557 1.400 . S
C2557 C2551 1.491 . S
C2557 C2556 1.400 . S
C2557 C2558 1.398 . S
C2558 H2546 0.950 . S
C2558 C2557 1.398 . S
C2558 C2559 1.391 . S
C2559 H2547 0.950 . S
C2559 C2555 1.393 . S
C2559 C2558 1.391 . S
H2560 C2568 0.959 . S
H2561 C2573 0.950 . S
H2562 C2570 0.950 . S
H2563 C2572 0.950 . S
H2564 C2574 0.950 . S
H2565 C2576 0.950 . S
H2566 C2578 0.950 . S
H2567 C2579 0.950 . S
C2568 H2560 0.959 . S
C2568 C2569 1.387 1_545 S
C2568 C2570 1.381 1_545 S
C2569 C2568 1.387 1_565 S
C2569 C2573 1.393 . S
C2570 H2562 0.950 . S
C2570 C2568 1.381 1_565 S
C2570 C2571 1.400 . S
C2571 C2570 1.400 . S
C2571 C2572 1.398 . S
C2571 C2577 1.491 . S
C2572 H2563 0.950 . S
C2572 C2571 1.398 . S
C2572 C2573 1.391 . S
C2573 H2561 0.950 . S
C2573 C2569 1.393 . S
C2573 C2572 1.391 . S
C2574 H2564 0.950 . S
C2574 C2575 1.386 . S
C2574 C2576 1.391 . S
C2575 C2574 1.386 . S
C2575 C2579 1.393 . S
C2576 H2565 0.950 . S
C2576 C2574 1.391 . S
C2576 C2577 1.400 . S
C2577 C2571 1.491 . S
C2577 C2576 1.400 . S
C2577 C2578 1.398 . S
C2578 H2566 0.950 . S
C2578 C2577 1.398 . S
C2578 C2579 1.391 . S
C2579 H2567 0.950 . S
C2579 C2575 1.393 . S
C2579 C2578 1.391 . S
H2580 C2588 0.950 . S
H2581 C2593 0.950 . S
H2582 C2590 0.950 . S
H2583 C2592 0.950 . S
H2584 C2594 0.950 . S
H2585 C2596 0.950 . S
H2586 C2598 0.950 . S
H2587 C2599 0.950 . S
C2588 H2580 0.950 . S
C2588 C2589 1.386 . S
C2588 C2590 1.391 . S
C2589 C2588 1.386 . S
C2589 C2593 1.393 . S
C2590 H2582 0.950 . S
C2590 C2588 1.391 . S
C2590 C2591 1.400 . S
C2591 C2590 1.400 . S
C2591 C2592 1.398 . S
C2591 C2597 1.491 . S
C2592 H2583 0.950 . S
C2592 C2591 1.398 . S
C2592 C2593 1.391 . S
C2593 H2581 0.950 . S
C2593 C2589 1.393 . S
C2593 C2592 1.391 . S
C2594 H2584 0.950 . S
C2594 C2595 1.386 . S
C2594 C2596 1.391 . S
C2595 C2594 1.386 . S
C2595 C2599 1.393 . S
C2596 H2585 0.950 . S
C2596 C2594 1.391 . S
C2596 C2597 1.400 . S
C2597 C2591 1.491 . S
C2597 C2596 1.400 . S
C2597 C2598 1.398 . S
C2598 H2586 0.950 . S
C2598 C2597 1.398 . S
C2598 C2599 1.391 . S
C2599 H2587 0.950 . S
C2599 C2595 1.393 . S
C2599 C2598 1.391 . S
H2600 C2608 0.950 . S
H2601 C2613 0.950 . S
H2602 C2610 0.950 . S
H2603 C2612 0.950 . S
H2604 C2614 0.950 . S
H2605 C2616 0.950 . S
H2606 C2618 0.950 . S
H2607 C2619 0.950 . S
C2608 H2600 0.950 . S
C2608 C2609 1.386 . S
C2608 C2610 1.391 . S
C2609 C2608 1.386 . S
C2609 C2613 1.393 . S
C2610 H2602 0.950 . S
C2610 C2608 1.391 . S
C2610 C2611 1.400 . S
C2611 C2610 1.400 . S
C2611 C2612 1.398 . S
C2611 C2617 1.491 . S
C2612 H2603 0.950 . S
C2612 C2611 1.398 . S
C2612 C2613 1.391 . S
C2613 H2601 0.950 . S
C2613 C2609 1.393 . S
C2613 C2612 1.391 . S
C2614 H2604 0.950 . S
C2614 C2615 1.386 . S
C2614 C2616 1.391 . S
C2615 C2614 1.386 . S
C2615 C2619 1.393 . S
C2616 H2605 0.950 . S
C2616 C2614 1.391 . S
C2616 C2617 1.400 . S
C2617 C2611 1.491 . S
C2617 C2616 1.400 . S
C2617 C2618 1.398 . S
C2618 H2606 0.950 . S
C2618 C2617 1.398 . S
C2618 C2619 1.391 . S
C2619 H2607 0.950 . S
C2619 C2615 1.393 . S
C2619 C2618 1.391 . S
H2620 C2628 0.950 . S
H2621 C2633 0.950 . S
H2622 C2630 0.950 . S
H2623 C2632 0.950 . S
H2624 C2634 0.950 . S
H2625 C2636 0.950 . S
H2626 C2638 0.950 . S
H2627 C2639 0.950 . S
C2628 H2620 0.950 . S
C2628 C2629 1.386 . S
C2628 C2630 1.391 . S
C2629 C2628 1.386 . S
C2629 C2633 1.393 . S
C2630 H2622 0.950 . S
C2630 C2628 1.391 . S
C2630 C2631 1.400 . S
C2631 C2630 1.400 . S
C2631 C2632 1.398 . S
C2631 C2637 1.491 . S
C2632 H2623 0.950 . S
C2632 C2631 1.398 . S
C2632 C2633 1.391 . S
C2633 H2621 0.950 . S
C2633 C2629 1.393 . S
C2633 C2632 1.391 . S
C2634 H2624 0.950 . S
C2634 C2635 1.386 . S
C2634 C2636 1.391 . S
C2635 C2634 1.386 . S
C2635 C2639 1.393 . S
C2636 H2625 0.950 . S
C2636 C2634 1.391 . S
C2636 C2637 1.400 . S
C2637 C2631 1.491 . S
C2637 C2636 1.400 . S
C2637 C2638 1.398 . S
C2638 H2626 0.950 . S
C2638 C2637 1.398 . S
C2638 C2639 1.391 . S
C2639 H2627 0.950 . S
C2639 C2635 1.393 . S
C2639 C2638 1.391 . S
H2640 C2648 0.950 . S
H2641 C2653 0.950 . S
H2642 C2650 0.950 . S
H2643 C2652 0.950 . S
H2644 C2654 0.950 . S
H2645 C2656 0.950 . S
H2646 C2658 0.950 . S
H2647 C2659 0.950 . S
C2648 H2640 0.950 . S
C2648 C2649 1.386 . S
C2648 C2650 1.391 . S
C2649 C2648 1.386 . S
C2649 C2653 1.393 . S
C2650 H2642 0.950 . S
C2650 C2648 1.391 . S
C2650 C2651 1.400 . S
C2651 C2650 1.400 . S
C2651 C2652 1.398 . S
C2651 C2657 1.491 . S
C2652 H2643 0.950 . S
C2652 C2651 1.398 . S
C2652 C2653 1.391 . S
C2653 H2641 0.950 . S
C2653 C2649 1.393 . S
C2653 C2652 1.391 . S
C2654 H2644 0.950 . S
C2654 C2655 1.386 . S
C2654 C2656 1.391 . S
C2655 C2654 1.386 . S
C2655 C2659 1.393 . S
C2656 H2645 0.950 . S
C2656 C2654 1.391 . S
C2656 C2657 1.400 . S
C2657 C2651 1.491 . S
C2657 C2656 1.400 . S
C2657 C2658 1.398 . S
C2658 H2646 0.950 . S
C2658 C2657 1.398 . S
C2658 C2659 1.391 . S
C2659 H2647 0.950 . S
C2659 C2655 1.393 . S
C2659 C2658 1.391 . S
H2660 C2668 0.950 . S
H2661 C2673 0.950 . S
H2662 C2670 0.950 . S
H2663 C2672 0.950 . S
H2664 C2674 0.950 . S
H2665 C2676 0.950 . S
H2666 C2678 0.950 . S
H2667 C2679 0.950 . S
C2668 H2660 0.950 . S
C2668 C2669 1.386 . S
C2668 C2670 1.391 . S
C2669 C2668 1.386 . S
C2669 C2673 1.393 . S
C2670 H2662 0.950 . S
C2670 C2668 1.391 . S
C2670 C2671 1.400 . S
C2671 C2670 1.400 . S
C2671 C2672 1.398 . S
C2671 C2677 1.491 . S
C2672 H2663 0.950 . S
C2672 C2671 1.398 . S
C2672 C2673 1.391 . S
C2673 H2661 0.950 . S
C2673 C2669 1.393 . S
C2673 C2672 1.391 . S
C2674 H2664 0.950 . S
C2674 C2675 1.386 . S
C2674 C2676 1.391 . S
C2675 C2674 1.386 . S
C2675 C2679 1.393 . S
C2676 H2665 0.950 . S
C2676 C2674 1.391 . S
C2676 C2677 1.400 . S
C2677 C2671 1.491 . S
C2677 C2676 1.400 . S
C2677 C2678 1.398 . S
C2678 H2666 0.950 . S
C2678 C2677 1.398 . S
C2678 C2679 1.391 . S
C2679 H2667 0.950 . S
C2679 C2675 1.393 . S
C2679 C2678 1.391 . S
H2680 C2688 0.950 . S
H2681 C2693 0.950 . S
H2682 C2690 0.950 . S
H2683 C2692 0.950 . S
H2684 C2694 0.950 1_655 S
H2685 C2696 0.990 . S
H2686 C2698 0.950 1_556 S
H2687 C2699 0.950 . S
C2688 H2680 0.950 . S
C2688 C2689 1.386 . S
C2688 C2690 1.391 . S
C2689 C2688 1.386 . S
C2689 C2693 1.393 1_455 S
C2690 H2682 0.950 . S
C2690 C2688 1.391 . S
C2690 C2691 1.400 . S
C2691 C2690 1.400 . S
C2691 C2692 1.398 1_455 S
C2691 C2697 1.491 1_556 S
C2692 H2683 0.950 . S
C2692 C2691 1.398 1_655 S
C2692 C2693 1.391 . S
C2693 H2681 0.950 . S
C2693 C2689 1.393 1_655 S
C2693 C2692 1.391 . S
C2694 H2684 0.950 1_455 S
C2694 C2695 1.386 . S
C2694 C2696 1.399 1_455 S
C2695 C2694 1.386 . S
C2695 C2699 1.393 . S
C2696 H2685 0.990 . S
C2696 C2694 1.399 1_655 S
C2696 C2697 1.353 1_655 S
C2697 C2691 1.491 1_554 S
C2697 C2696 1.353 1_455 S
C2697 C2698 1.399 . S
C2698 H2686 0.950 1_554 S
C2698 C2697 1.399 . S
C2698 C2699 1.391 . S
C2699 H2687 0.950 . S
C2699 C2695 1.393 . S
C2699 C2698 1.391 . S
H2700 C2708 0.950 . S
H2701 C2713 0.950 . S
H2702 C2710 0.950 . S
H2703 C2712 0.950 . S
H2704 C2714 0.950 . S
H2705 C2716 0.950 . S
H2706 C2718 0.950 . S
H2707 C2719 0.950 . S
C2708 H2700 0.950 . S
C2708 C2709 1.386 . S
C2708 C2710 1.391 1_455 S
C2709 C2708 1.386 . S
C2709 C2713 1.393 1_455 S
C2710 H2702 0.950 . S
C2710 C2708 1.391 1_655 S
C2710 C2711 1.400 . S
C2711 C2710 1.400 . S
C2711 C2712 1.398 . S
C2711 C2717 1.491 . S
C2712 H2703 0.950 . S
C2712 C2711 1.398 . S
C2712 C2713 1.391 . S
C2713 H2701 0.950 . S
C2713 C2709 1.393 1_655 S
C2713 C2712 1.391 . S
C2714 H2704 0.950 . S
C2714 C2715 1.386 . S
C2714 C2716 1.391 . S
C2715 C2714 1.386 . S
C2715 C2719 1.393 . S
C2716 H2705 0.950 . S
C2716 C2714 1.391 . S
C2716 C2717 1.400 . S
C2717 C2711 1.491 . S
C2717 C2716 1.400 . S
C2717 C2718 1.398 . S
C2718 H2706 0.950 . S
C2718 C2717 1.398 . S
C2718 C2719 1.391 . S
C2719 H2707 0.950 . S
C2719 C2715 1.393 . S
C2719 C2718 1.391 . S
H2720 C2728 0.950 . S
H2721 C2733 0.950 . S
H2722 C2730 0.950 . S
H2723 C2732 0.950 . S
H2724 C2734 0.950 . S
H2725 C2736 0.950 . S
H2726 C2738 0.950 . S
H2727 C2739 0.950 . S
C2728 H2720 0.950 . S
C2728 C2729 1.386 . S
C2728 C2730 1.391 . S
C2729 C2728 1.386 . S
C2729 C2733 1.393 . S
C2730 H2722 0.950 . S
C2730 C2728 1.391 . S
C2730 C2731 1.400 . S
C2731 C2730 1.400 . S
C2731 C2732 1.398 . S
C2731 C2737 1.491 . S
C2732 H2723 0.950 . S
C2732 C2731 1.398 . S
C2732 C2733 1.391 . S
C2733 H2721 0.950 . S
C2733 C2729 1.393 . S
C2733 C2732 1.391 . S
C2734 H2724 0.950 . S
C2734 C2735 1.386 . S
C2734 C2736 1.391 . S
C2735 C2734 1.386 . S
C2735 C2739 1.393 . S
C2736 H2725 0.950 . S
C2736 C2734 1.391 . S
C2736 C2737 1.400 . S
C2737 C2731 1.491 . S
C2737 C2736 1.400 . S
C2737 C2738 1.398 . S
C2738 H2726 0.950 . S
C2738 C2737 1.398 . S
C2738 C2739 1.391 . S
C2739 H2727 0.950 . S
C2739 C2735 1.393 . S
C2739 C2738 1.391 . S
H2740 C2748 0.950 . S
H2741 C2753 0.950 . S
H2742 C2750 0.950 . S
H2743 C2752 0.950 . S
H2744 C2754 0.950 . S
H2745 C2756 0.950 . S
H2746 C2758 0.950 . S
H2747 C2759 0.950 . S
C2748 H2740 0.950 . S
C2748 C2749 1.386 . S
C2748 C2750 1.391 . S
C2749 C2748 1.386 . S
C2749 C2753 1.393 . S
C2750 H2742 0.950 . S
C2750 C2748 1.391 . S
C2750 C2751 1.400 . S
C2751 C2750 1.400 . S
C2751 C2752 1.398 . S
C2751 C2757 1.491 . S
C2752 H2743 0.950 . S
C2752 C2751 1.398 . S
C2752 C2753 1.391 . S
C2753 H2741 0.950 . S
C2753 C2749 1.393 . S
C2753 C2752 1.391 . S
C2754 H2744 0.950 . S
C2754 C2755 1.386 . S
C2754 C2756 1.391 . S
C2755 C2754 1.386 . S
C2755 C2759 1.393 . S
C2756 H2745 0.950 . S
C2756 C2754 1.391 . S
C2756 C2757 1.400 . S
C2757 C2751 1.491 . S
C2757 C2756 1.400 . S
C2757 C2758 1.398 . S
C2758 H2746 0.950 . S
C2758 C2757 1.398 . S
C2758 C2759 1.391 . S
C2759 H2747 0.950 . S
C2759 C2755 1.393 . S
C2759 C2758 1.391 . S
H2760 C2768 0.950 . S
H2761 C2773 0.948 1_655 S
H2762 C2770 0.950 . S
H2763 C2772 0.950 1_655 S
H2764 C2774 0.950 1_655 S
H2765 C2776 0.950 1_655 S
H2766 C2778 0.950 . S
H2767 C2779 0.950 . S
C2768 H2760 0.950 . S
C2768 C2769 1.386 . S
C2768 C2770 1.391 . S
C2769 C2768 1.386 . S
C2769 C2773 1.394 . S
C2770 H2762 0.950 . S
C2770 C2768 1.391 . S
C2770 C2771 1.400 . S
C2771 C2770 1.400 . S
C2771 C2772 1.398 . S
C2771 C2777 1.491 . S
C2772 H2763 0.950 1_455 S
C2772 C2771 1.398 . S
C2772 C2773 1.392 . S
C2773 H2761 0.948 1_455 S
C2773 C2769 1.394 . S
C2773 C2772 1.392 . S
C2774 H2764 0.950 1_455 S
C2774 C2775 1.386 . S
C2774 C2776 1.391 . S
C2775 C2774 1.386 . S
C2775 C2779 1.393 . S
C2776 H2765 0.950 1_455 S
C2776 C2774 1.391 . S
C2776 C2777 1.400 . S
C2777 C2771 1.491 . S
C2777 C2776 1.400 . S
C2777 C2778 1.398 . S
C2778 H2766 0.950 . S
C2778 C2777 1.398 . S
C2778 C2779 1.391 . S
C2779 H2767 0.950 . S
C2779 C2775 1.393 . S
C2779 C2778 1.391 . S
H2780 C2788 0.950 . S
H2781 C2793 0.950 . S
H2782 C2790 0.950 . S
H2783 C2792 0.950 . S
H2784 C2794 0.950 . S
H2785 C2796 0.950 . S
H2786 C2798 0.950 . S
H2787 C2799 0.950 . S
C2788 H2780 0.950 . S
C2788 C2789 1.386 . S
C2788 C2790 1.391 . S
C2789 C2788 1.386 . S
C2789 C2793 1.393 . S
C2790 H2782 0.950 . S
C2790 C2788 1.391 . S
C2790 C2791 1.400 . S
C2791 C2790 1.400 . S
C2791 C2792 1.398 . S
C2791 C2797 1.491 . S
C2792 H2783 0.950 . S
C2792 C2791 1.398 . S
C2792 C2793 1.391 . S
C2793 H2781 0.950 . S
C2793 C2789 1.393 . S
C2793 C2792 1.391 . S
C2794 H2784 0.950 . S
C2794 C2795 1.386 . S
C2794 C2796 1.391 . S
C2795 C2794 1.386 . S
C2795 C2799 1.393 . S
C2796 H2785 0.950 . S
C2796 C2794 1.391 . S
C2796 C2797 1.400 . S
C2797 C2791 1.491 . S
C2797 C2796 1.400 . S
C2797 C2798 1.398 . S
C2798 H2786 0.950 . S
C2798 C2797 1.398 . S
C2798 C2799 1.391 . S
C2799 H2787 0.950 . S
C2799 C2795 1.393 . S
C2799 C2798 1.391 . S
H2800 C2808 0.950 . S
H2801 C2813 0.950 . S
H2802 C2810 0.950 . S
H2803 C2812 0.950 . S
H2804 C2814 0.950 . S
H2805 C2816 0.950 . S
H2806 C2818 0.950 . S
H2807 C2819 0.950 . S
C2808 H2800 0.950 . S
C2808 C2809 1.386 . S
C2808 C2810 1.391 . S
C2809 C2808 1.386 . S
C2809 C2813 1.393 . S
C2810 H2802 0.950 . S
C2810 C2808 1.391 . S
C2810 C2811 1.400 . S
C2811 C2810 1.400 . S
C2811 C2812 1.398 . S
C2811 C2817 1.491 . S
C2812 H2803 0.950 . S
C2812 C2811 1.398 . S
C2812 C2813 1.391 . S
C2813 H2801 0.950 . S
C2813 C2809 1.393 . S
C2813 C2812 1.391 . S
C2814 H2804 0.950 . S
C2814 C2815 1.386 . S
C2814 C2816 1.391 . S
C2815 C2814 1.386 . S
C2815 C2819 1.393 . S
C2816 H2805 0.950 . S
C2816 C2814 1.391 . S
C2816 C2817 1.400 . S
C2817 C2811 1.491 . S
C2817 C2816 1.400 . S
C2817 C2818 1.398 . S
C2818 H2806 0.950 . S
C2818 C2817 1.398 . S
C2818 C2819 1.391 . S
C2819 H2807 0.950 . S
C2819 C2815 1.393 . S
C2819 C2818 1.391 . S
H2820 C2828 0.950 . S
H2821 C2833 0.950 1_554 S
H2822 C2830 0.950 . S
H2823 C2832 0.950 . S
H2824 C2834 0.950 . S
H2825 C2836 0.950 . S
H2826 C2838 0.950 . S
H2827 C2839 0.950 . S
C2828 H2820 0.950 . S
C2828 C2829 1.386 . S
C2828 C2830 1.391 . S
C2829 C2828 1.386 . S
C2829 C2833 1.393 . S
C2830 H2822 0.950 . S
C2830 C2828 1.391 . S
C2830 C2831 1.400 . S
C2831 C2830 1.400 . S
C2831 C2832 1.398 . S
C2831 C2837 1.491 . S
C2832 H2823 0.950 . S
C2832 C2831 1.398 . S
C2832 C2833 1.391 . S
C2833 H2821 0.950 1_556 S
C2833 C2829 1.393 . S
C2833 C2832 1.391 . S
C2834 H2824 0.950 . S
C2834 C2835 1.386 . S
C2834 C2836 1.391 . S
C2835 C2834 1.386 . S
C2835 C2839 1.393 . S
C2836 H2825 0.950 . S
C2836 C2834 1.391 . S
C2836 C2837 1.400 . S
C2837 C2831 1.491 . S
C2837 C2836 1.400 . S
C2837 C2838 1.398 . S
C2838 H2826 0.950 . S
C2838 C2837 1.398 . S
C2838 C2839 1.391 . S
C2839 H2827 0.950 . S
C2839 C2835 1.393 . S
C2839 C2838 1.391 . S
H2840 C2848 0.950 . S
H2841 C2853 0.950 . S
H2842 C2850 0.950 . S
H2843 C2852 0.950 . S
H2844 C2854 0.950 . S
H2845 C2856 0.950 . S
H2846 C2858 0.950 . S
H2847 C2859 0.950 . S
C2848 H2840 0.950 . S
C2848 C2849 1.386 . S
C2848 C2850 1.391 . S
C2849 C2848 1.386 . S
C2849 C2853 1.393 . S
C2850 H2842 0.950 . S
C2850 C2848 1.391 . S
C2850 C2851 1.400 . S
C2851 C2850 1.400 . S
C2851 C2852 1.398 . S
C2851 C2857 1.491 . S
C2852 H2843 0.950 . S
C2852 C2851 1.398 . S
C2852 C2853 1.391 . S
C2853 H2841 0.950 . S
C2853 C2849 1.393 . S
C2853 C2852 1.391 . S
C2854 H2844 0.950 . S
C2854 C2855 1.386 . S
C2854 C2856 1.391 . S
C2855 C2854 1.386 . S
C2855 C2859 1.393 . S
C2856 H2845 0.950 . S
C2856 C2854 1.391 . S
C2856 C2857 1.400 . S
C2857 C2851 1.491 . S
C2857 C2856 1.400 . S
C2857 C2858 1.398 . S
C2858 H2846 0.950 . S
C2858 C2857 1.398 . S
C2858 C2859 1.391 . S
C2859 H2847 0.950 . S
C2859 C2855 1.393 . S
C2859 C2858 1.391 . S
H2860 C2868 0.950 . S
H2861 C2873 0.950 . S
H2862 C2870 0.950 . S
H2863 C2872 0.950 . S
H2864 C2874 0.950 . S
H2865 C2876 0.950 . S
H2866 C2878 0.950 . S
H2867 C2879 0.950 . S
C2868 H2860 0.950 . S
C2868 C2869 1.386 . S
C2868 C2870 1.391 . S
C2869 C2868 1.386 . S
C2869 C2873 1.393 . S
C2870 H2862 0.950 . S
C2870 C2868 1.391 . S
C2870 C2871 1.400 . S
C2871 C2870 1.400 . S
C2871 C2872 1.398 . S
C2871 C2877 1.491 . S
C2872 H2863 0.950 . S
C2872 C2871 1.398 . S
C2872 C2873 1.391 . S
C2873 H2861 0.950 . S
C2873 C2869 1.393 . S
C2873 C2872 1.391 . S
C2874 H2864 0.950 . S
C2874 C2875 1.386 . S
C2874 C2876 1.391 . S
C2875 C2874 1.386 . S
C2875 C2879 1.393 . S
C2876 H2865 0.950 . S
C2876 C2874 1.391 . S
C2876 C2877 1.400 . S
C2877 C2871 1.491 . S
C2877 C2876 1.400 . S
C2877 C2878 1.398 . S
C2878 H2866 0.950 . S
C2878 C2877 1.398 . S
C2878 C2879 1.391 . S
C2879 H2867 0.950 . S
C2879 C2875 1.393 . S
C2879 C2878 1.391 . S
H2880 C2888 0.950 . S
H2881 C2893 0.950 . S
H2882 C2890 0.950 . S
H2883 C2892 0.950 . S
H2884 C2894 0.950 . S
H2885 C2896 0.950 . S
H2886 C2898 0.950 . S
H2887 C2899 0.950 . S
C2888 H2880 0.950 . S
C2888 C2889 1.386 . S
C2888 C2890 1.391 . S
C2889 C2888 1.386 . S
C2889 C2893 1.393 . S
C2890 H2882 0.950 . S
C2890 C2888 1.391 . S
C2890 C2891 1.400 . S
C2891 C2890 1.400 . S
C2891 C2892 1.398 . S
C2891 C2897 1.491 . S
C2892 H2883 0.950 . S
C2892 C2891 1.398 . S
C2892 C2893 1.391 . S
C2893 H2881 0.950 . S
C2893 C2889 1.393 . S
C2893 C2892 1.391 . S
C2894 H2884 0.950 . S
C2894 C2895 1.386 . S
C2894 C2896 1.391 . S
C2895 C2894 1.386 . S
C2895 C2899 1.393 . S
C2896 H2885 0.950 . S
C2896 C2894 1.391 . S
C2896 C2897 1.400 . S
C2897 C2891 1.491 . S
C2897 C2896 1.400 . S
C2897 C2898 1.398 . S
C2898 H2886 0.950 . S
C2898 C2897 1.398 . S
C2898 C2899 1.391 . S
C2899 H2887 0.950 . S
C2899 C2895 1.393 . S
C2899 C2898 1.391 . S
H2900 C2908 0.950 . S
H2901 C2913 0.950 . S
H2902 C2910 0.950 . S
H2903 C2912 0.950 . S
H2904 C2914 0.950 . S
H2905 C2916 0.950 . S
H2906 C2918 0.950 . S
H2907 C2919 0.950 . S
C2908 H2900 0.950 . S
C2908 C2909 1.386 . S
C2908 C2910 1.391 . S
C2909 C2908 1.386 . S
C2909 C2913 1.393 . S
C2910 H2902 0.950 . S
C2910 C2908 1.391 . S
C2910 C2911 1.400 . S
C2911 C2910 1.400 . S
C2911 C2912 1.398 . S
C2911 C2917 1.491 . S
C2912 H2903 0.950 . S
C2912 C2911 1.398 . S
C2912 C2913 1.391 . S
C2913 H2901 0.950 . S
C2913 C2909 1.393 . S
C2913 C2912 1.391 . S
C2914 H2904 0.950 . S
C2914 C2915 1.386 . S
C2914 C2916 1.391 . S
C2915 C2914 1.386 . S
C2915 C2919 1.393 . S
C2916 H2905 0.950 . S
C2916 C2914 1.391 . S
C2916 C2917 1.400 . S
C2917 C2911 1.491 . S
C2917 C2916 1.400 . S
C2917 C2918 1.398 . S
C2918 H2906 0.950 . S
C2918 C2917 1.398 . S
C2918 C2919 1.391 . S
C2919 H2907 0.950 . S
C2919 C2915 1.393 . S
C2919 C2918 1.391 . S
H2920 C2928 0.950 . S
H2921 C2933 0.950 . S
H2922 C2930 0.950 . S
H2923 C2932 0.950 . S
H2924 C2934 0.950 . S
H2925 C2936 0.950 . S
H2926 C2938 0.950 . S
H2927 C2939 0.950 . S
C2928 H2920 0.950 . S
C2928 C2929 1.386 . S
C2928 C2930 1.391 . S
C2929 C2928 1.386 . S
C2929 C2933 1.393 . S
C2930 H2922 0.950 . S
C2930 C2928 1.391 . S
C2930 C2931 1.400 . S
C2931 C2930 1.400 . S
C2931 C2932 1.398 . S
C2931 C2937 1.491 . S
C2932 H2923 0.950 . S
C2932 C2931 1.398 . S
C2932 C2933 1.391 . S
C2933 H2921 0.950 . S
C2933 C2929 1.393 . S
C2933 C2932 1.391 . S
C2934 H2924 0.950 . S
C2934 C2935 1.386 . S
C2934 C2936 1.391 . S
C2935 C2934 1.386 . S
C2935 C2939 1.393 . S
C2936 H2925 0.950 . S
C2936 C2934 1.391 . S
C2936 C2937 1.400 . S
C2937 C2931 1.491 . S
C2937 C2936 1.400 . S
C2937 C2938 1.398 . S
C2938 H2926 0.950 . S
C2938 C2937 1.398 . S
C2938 C2939 1.391 . S
C2939 H2927 0.950 . S
C2939 C2935 1.393 . S
C2939 C2938 1.391 . S
H2940 C2948 0.950 . S
H2941 C2953 0.950 . S
H2942 C2950 0.950 . S
H2943 C2952 0.950 . S
H2944 C2954 0.950 . S
H2945 C2956 0.950 . S
H2946 C2958 0.950 . S
H2947 C2959 0.950 . S
C2948 H2940 0.950 . S
C2948 C2949 1.386 . S
C2948 C2950 1.391 . S
C2949 C2948 1.386 . S
C2949 C2953 1.393 . S
C2950 H2942 0.950 . S
C2950 C2948 1.391 . S
C2950 C2951 1.400 . S
C2951 C2950 1.400 . S
C2951 C2952 1.398 . S
C2951 C2957 1.491 . S
C2952 H2943 0.950 . S
C2952 C2951 1.398 . S
C2952 C2953 1.391 . S
C2953 H2941 0.950 . S
C2953 C2949 1.393 . S
C2953 C2952 1.391 . S
C2954 H2944 0.950 . S
C2954 C2955 1.386 . S
C2954 C2956 1.391 . S
C2955 C2954 1.386 . S
C2955 C2959 1.393 . S
C2956 H2945 0.950 . S
C2956 C2954 1.391 . S
C2956 C2957 1.400 . S
C2957 C2951 1.491 . S
C2957 C2956 1.400 . S
C2957 C2958 1.398 . S
C2958 H2946 0.950 . S
C2958 C2957 1.398 . S
C2958 C2959 1.391 . S
C2959 H2947 0.950 . S
C2959 C2955 1.393 . S
C2959 C2958 1.391 . S
H2960 C2968 0.950 . S
H2961 C2973 0.950 . S
H2962 C2970 0.950 . S
H2963 C2972 0.950 . S
H2964 C2974 0.950 . S
H2965 C2976 0.950 . S
H2966 C2978 0.950 . S
H2967 C2979 0.950 . S
C2968 H2960 0.950 . S
C2968 C2969 1.386 . S
C2968 C2970 1.391 . S
C2969 C2968 1.386 . S
C2969 C2973 1.393 . S
C2970 H2962 0.950 . S
C2970 C2968 1.391 . S
C2970 C2971 1.400 . S
C2971 C2970 1.400 . S
C2971 C2972 1.398 . S
C2971 C2977 1.491 . S
C2972 H2963 0.950 . S
C2972 C2971 1.398 . S
C2972 C2973 1.391 . S
C2973 H2961 0.950 . S
C2973 C2969 1.393 . S
C2973 C2972 1.391 . S
C2974 H2964 0.950 . S
C2974 C2975 1.386 . S
C2974 C2976 1.391 . S
C2975 C2974 1.386 . S
C2975 C2979 1.393 . S
C2976 H2965 0.950 . S
C2976 C2974 1.391 . S
C2976 C2977 1.400 . S
C2977 C2971 1.491 . S
C2977 C2976 1.400 . S
C2977 C2978 1.398 . S
C2978 H2966 0.950 . S
C2978 C2977 1.398 . S
C2978 C2979 1.391 . S
C2979 H2967 0.950 . S
C2979 C2975 1.393 . S
C2979 C2978 1.391 . S
H2980 C2988 0.950 . S
H2981 C2993 0.950 . S
H2982 C2990 0.950 . S
H2983 C2992 0.950 . S
H2984 C2994 0.950 . S
H2985 C2996 0.950 . S
H2986 C2998 0.950 . S
H2987 C2999 0.950 . S
C2988 H2980 0.950 . S
C2988 C2989 1.386 . S
C2988 C2990 1.391 . S
C2989 C2988 1.386 . S
C2989 C2993 1.393 . S
C2990 H2982 0.950 . S
C2990 C2988 1.391 . S
C2990 C2991 1.400 . S
C2991 C2990 1.400 . S
C2991 C2992 1.398 . S
C2991 C2997 1.491 . S
C2992 H2983 0.950 . S
C2992 C2991 1.398 . S
C2992 C2993 1.391 . S
C2993 H2981 0.950 . S
C2993 C2989 1.393 . S
C2993 C2992 1.391 . S
C2994 H2984 0.950 . S
C2994 C2995 1.386 . S
C2994 C2996 1.391 . S
C2995 C2994 1.386 . S
C2995 C2999 1.393 . S
C2996 H2985 0.950 . S
C2996 C2994 1.391 . S
C2996 C2997 1.400 . S
C2997 C2991 1.491 . S
C2997 C2996 1.400 . S
C2997 C2998 1.398 . S
C2998 H2986 0.950 . S
C2998 C2997 1.398 . S
C2998 C2999 1.391 . S
C2999 H2987 0.950 . S
C2999 C2995 1.393 . S
C2999 C2998 1.391 . S
H3000 C3008 0.950 . S
H3001 C3013 0.950 1_545 S
H3002 C3010 0.950 . S
H3003 C3012 0.950 . S
H3004 C3014 0.950 . S
H3005 C3016 0.950 . S
H3006 C3018 0.950 . S
H3007 C3019 0.950 . S
C3008 H3000 0.950 . S
C3008 C3009 1.386 . S
C3008 C3010 1.391 . S
C3009 C3008 1.386 . S
C3009 C3013 1.393 . S
C3010 H3002 0.950 . S
C3010 C3008 1.391 . S
C3010 C3011 1.400 . S
C3011 C3010 1.400 . S
C3011 C3012 1.398 . S
C3011 C3017 1.491 . S
C3012 H3003 0.950 . S
C3012 C3011 1.398 . S
C3012 C3013 1.391 . S
C3013 H3001 0.950 1_565 S
C3013 C3009 1.393 . S
C3013 C3012 1.391 . S
C3014 H3004 0.950 . S
C3014 C3015 1.386 . S
C3014 C3016 1.391 . S
C3015 C3014 1.386 . S
C3015 C3019 1.393 . S
C3016 H3005 0.950 . S
C3016 C3014 1.391 . S
C3016 C3017 1.400 . S
C3017 C3011 1.491 . S
C3017 C3016 1.400 . S
C3017 C3018 1.398 . S
C3018 H3006 0.950 . S
C3018 C3017 1.398 . S
C3018 C3019 1.391 . S
C3019 H3007 0.950 . S
C3019 C3015 1.393 . S
C3019 C3018 1.391 . S
H3020 C3028 0.950 . S
H3021 C3033 0.950 . S
H3022 C3030 0.950 1_545 S
H3023 C3032 0.950 . S
H3024 C3034 0.950 . S
H3025 C3036 0.950 . S
H3026 C3038 0.950 . S
H3027 C3039 0.950 . S
C3028 H3020 0.950 . S
C3028 C3029 1.386 . S
C3028 C3030 1.391 . S
C3029 C3028 1.386 . S
C3029 C3033 1.393 . S
C3030 H3022 0.950 1_565 S
C3030 C3028 1.391 . S
C3030 C3031 1.400 . S
C3031 C3030 1.400 . S
C3031 C3032 1.398 . S
C3031 C3037 1.491 . S
C3032 H3023 0.950 . S
C3032 C3031 1.398 . S
C3032 C3033 1.391 . S
C3033 H3021 0.950 . S
C3033 C3029 1.393 . S
C3033 C3032 1.391 . S
C3034 H3024 0.950 . S
C3034 C3035 1.386 1_565 S
C3034 C3036 1.391 . S
C3035 C3034 1.386 1_545 S
C3035 C3039 1.393 . S
C3036 H3025 0.950 . S
C3036 C3034 1.391 . S
C3036 C3037 1.400 . S
C3037 C3031 1.491 . S
C3037 C3036 1.400 . S
C3037 C3038 1.398 1_565 S
C3038 H3026 0.950 . S
C3038 C3037 1.398 1_545 S
C3038 C3039 1.391 . S
C3039 H3027 0.950 . S
C3039 C3035 1.393 . S
C3039 C3038 1.391 . S
H3040 C3048 0.950 . S
H3041 C3053 0.950 . S
H3042 C3050 0.950 . S
H3043 C3052 0.950 . S
H3044 C3054 0.950 . S
H3045 C3056 0.950 . S
H3046 C3058 0.950 . S
H3047 C3059 0.950 . S
C3048 H3040 0.950 . S
C3048 C3049 1.386 . S
C3048 C3050 1.391 . S
C3049 C3048 1.386 . S
C3049 C3053 1.393 . S
C3050 H3042 0.950 . S
C3050 C3048 1.391 . S
C3050 C3051 1.400 . S
C3051 C3050 1.400 . S
C3051 C3052 1.398 . S
C3051 C3057 1.491 . S
C3052 H3043 0.950 . S
C3052 C3051 1.398 . S
C3052 C3053 1.391 . S
C3053 H3041 0.950 . S
C3053 C3049 1.393 . S
C3053 C3052 1.391 . S
C3054 H3044 0.950 . S
C3054 C3055 1.386 . S
C3054 C3056 1.391 . S
C3055 C3054 1.386 . S
C3055 C3059 1.393 . S
C3056 H3045 0.950 . S
C3056 C3054 1.391 . S
C3056 C3057 1.400 . S
C3057 C3051 1.491 . S
C3057 C3056 1.400 . S
C3057 C3058 1.398 . S
C3058 H3046 0.950 . S
C3058 C3057 1.398 . S
C3058 C3059 1.391 . S
C3059 H3047 0.950 . S
C3059 C3055 1.393 . S
C3059 C3058 1.391 . S
H3060 C3068 0.950 . S
H3061 C3073 0.950 1_556 S
H3062 C3070 0.950 . S
H3063 C3072 0.950 . S
H3064 C3074 0.950 . S
H3065 C3076 0.950 . S
H3066 C3078 0.950 . S
H3067 C3079 0.950 . S
C3068 H3060 0.950 . S
C3068 C3069 1.386 . S
C3068 C3070 1.391 . S
C3069 C3068 1.386 . S
C3069 C3073 1.393 . S
C3070 H3062 0.950 . S
C3070 C3068 1.391 . S
C3070 C3071 1.400 . S
C3071 C3070 1.400 . S
C3071 C3072 1.398 . S
C3071 C3077 1.491 . S
C3072 H3063 0.950 . S
C3072 C3071 1.398 . S
C3072 C3073 1.391 . S
C3073 H3061 0.950 1_554 S
C3073 C3069 1.393 . S
C3073 C3072 1.391 . S
C3074 H3064 0.950 . S
C3074 C3075 1.386 . S
C3074 C3076 1.391 . S
C3075 C3074 1.386 . S
C3075 C3079 1.393 . S
C3076 H3065 0.950 . S
C3076 C3074 1.391 . S
C3076 C3077 1.400 . S
C3077 C3071 1.491 . S
C3077 C3076 1.400 . S
C3077 C3078 1.398 . S
C3078 H3066 0.950 . S
C3078 C3077 1.398 . S
C3078 C3079 1.391 . S
C3079 H3067 0.950 . S
C3079 C3075 1.393 . S
C3079 C3078 1.391 . S
H3080 C3088 0.950 . S
H3081 C3093 0.950 . S
H3082 C3090 0.950 . S
H3083 C3092 0.950 . S
H3084 C3094 0.950 . S
H3085 C3096 0.950 . S
H3086 C3098 0.950 . S
H3087 C3099 0.950 . S
C3088 H3080 0.950 . S
C3088 C3089 1.386 . S
C3088 C3090 1.391 . S
C3089 C3088 1.386 . S
C3089 C3093 1.393 . S
C3090 H3082 0.950 . S
C3090 C3088 1.391 . S
C3090 C3091 1.400 . S
C3091 C3090 1.400 . S
C3091 C3092 1.398 . S
C3091 C3097 1.491 . S
C3092 H3083 0.950 . S
C3092 C3091 1.398 . S
C3092 C3093 1.391 . S
C3093 H3081 0.950 . S
C3093 C3089 1.393 . S
C3093 C3092 1.391 . S
C3094 H3084 0.950 . S
C3094 C3095 1.386 . S
C3094 C3096 1.391 . S
C3095 C3094 1.386 . S
C3095 C3099 1.393 . S
C3096 H3085 0.950 . S
C3096 C3094 1.391 . S
C3096 C3097 1.400 . S
C3097 C3091 1.491 . S
C3097 C3096 1.400 . S
C3097 C3098 1.398 . S
C3098 H3086 0.950 . S
C3098 C3097 1.398 . S
C3098 C3099 1.391 . S
C3099 H3087 0.950 . S
C3099 C3095 1.393 . S
C3099 C3098 1.391 . S
H3100 C3108 0.950 . S
H3101 C3113 0.950 . S
H3102 C3110 0.950 . S
H3103 C3112 0.950 . S
H3104 C3114 0.950 . S
H3105 C3116 0.950 . S
H3106 C3118 0.950 . S
H3107 C3119 0.950 . S
C3108 H3100 0.950 . S
C3108 C3109 1.386 . S
C3108 C3110 1.391 . S
C3109 C3108 1.386 . S
C3109 C3113 1.393 . S
C3110 H3102 0.950 . S
C3110 C3108 1.391 . S
C3110 C3111 1.400 . S
C3111 C3110 1.400 . S
C3111 C3112 1.398 . S
C3111 C3117 1.491 . S
C3112 H3103 0.950 . S
C3112 C3111 1.398 . S
C3112 C3113 1.391 . S
C3113 H3101 0.950 . S
C3113 C3109 1.393 . S
C3113 C3112 1.391 . S
C3114 H3104 0.950 . S
C3114 C3115 1.386 . S
C3114 C3116 1.391 . S
C3115 C3114 1.386 . S
C3115 C3119 1.393 . S
C3116 H3105 0.950 . S
C3116 C3114 1.391 . S
C3116 C3117 1.400 . S
C3117 C3111 1.491 . S
C3117 C3116 1.400 . S
C3117 C3118 1.398 . S
C3118 H3106 0.950 . S
C3118 C3117 1.398 . S
C3118 C3119 1.391 . S
C3119 H3107 0.950 . S
C3119 C3115 1.393 . S
C3119 C3118 1.391 . S
H3120 C3128 0.950 . S
H3121 C3133 0.950 . S
H3122 C3130 0.950 . S
H3123 C3132 0.950 . S
H3124 C3134 0.950 . S
H3125 C3136 0.950 . S
H3126 C3138 0.950 . S
H3127 C3139 0.950 . S
C3128 H3120 0.950 . S
C3128 C3129 1.386 . S
C3128 C3130 1.391 . S
C3129 C3128 1.386 . S
C3129 C3133 1.393 . S
C3130 H3122 0.950 . S
C3130 C3128 1.391 . S
C3130 C3131 1.400 . S
C3131 C3130 1.400 . S
C3131 C3132 1.398 . S
C3131 C3137 1.491 . S
C3132 H3123 0.950 . S
C3132 C3131 1.398 . S
C3132 C3133 1.391 . S
C3133 H3121 0.950 . S
C3133 C3129 1.393 . S
C3133 C3132 1.391 . S
C3134 H3124 0.950 . S
C3134 C3135 1.386 . S
C3134 C3136 1.391 . S
C3135 C3134 1.386 . S
C3135 C3139 1.393 . S
C3136 H3125 0.950 . S
C3136 C3134 1.391 . S
C3136 C3137 1.400 . S
C3137 C3131 1.491 . S
C3137 C3136 1.400 . S
C3137 C3138 1.398 . S
C3138 H3126 0.950 . S
C3138 C3137 1.398 . S
C3138 C3139 1.391 . S
C3139 H3127 0.950 . S
C3139 C3135 1.393 . S
C3139 C3138 1.391 . S
H3140 C3148 0.950 . S
H3141 C3153 0.950 . S
H3142 C3150 0.950 . S
H3143 C3152 0.950 . S
H3144 C3154 0.950 . S
H3145 C3156 0.950 . S
H3146 C3158 0.950 . S
H3147 C3159 0.950 . S
C3148 H3140 0.950 . S
C3148 C3149 1.386 . S
C3148 C3150 1.391 . S
C3149 C3148 1.386 . S
C3149 C3153 1.393 . S
C3150 H3142 0.950 . S
C3150 C3148 1.391 . S
C3150 C3151 1.400 . S
C3151 C3150 1.400 . S
C3151 C3152 1.398 . S
C3151 C3157 1.491 . S
C3152 H3143 0.950 . S
C3152 C3151 1.398 . S
C3152 C3153 1.391 . S
C3153 H3141 0.950 . S
C3153 C3149 1.393 . S
C3153 C3152 1.391 . S
C3154 H3144 0.950 . S
C3154 C3155 1.386 . S
C3154 C3156 1.391 . S
C3155 C3154 1.386 . S
C3155 C3159 1.393 . S
C3156 H3145 0.950 . S
C3156 C3154 1.391 . S
C3156 C3157 1.400 . S
C3157 C3151 1.491 . S
C3157 C3156 1.400 . S
C3157 C3158 1.398 . S
C3158 H3146 0.950 . S
C3158 C3157 1.398 . S
C3158 C3159 1.391 . S
C3159 H3147 0.950 . S
C3159 C3155 1.393 . S
C3159 C3158 1.391 . S
H3160 C3168 0.950 . S
H3161 C3173 0.950 . S
H3162 C3170 0.950 . S
H3163 C3172 0.950 . S
H3164 C3174 0.950 . S
H3165 C3176 0.950 . S
H3166 C3178 0.950 . S
H3167 C3179 0.950 . S
C3168 H3160 0.950 . S
C3168 C3169 1.386 . S
C3168 C3170 1.391 . S
C3169 C3168 1.386 . S
C3169 C3173 1.393 . S
C3170 H3162 0.950 . S
C3170 C3168 1.391 . S
C3170 C3171 1.400 . S
C3171 C3170 1.400 . S
C3171 C3172 1.398 . S
C3171 C3177 1.491 . S
C3172 H3163 0.950 . S
C3172 C3171 1.398 . S
C3172 C3173 1.391 . S
C3173 H3161 0.950 . S
C3173 C3169 1.393 . S
C3173 C3172 1.391 . S
C3174 H3164 0.950 . S
C3174 C3175 1.386 . S
C3174 C3176 1.391 . S
C3175 C3174 1.386 . S
C3175 C3179 1.393 . S
C3176 H3165 0.950 . S
C3176 C3174 1.391 . S
C3176 C3177 1.400 . S
C3177 C3171 1.491 . S
C3177 C3176 1.400 . S
C3177 C3178 1.398 . S
C3178 H3166 0.950 . S
C3178 C3177 1.398 . S
C3178 C3179 1.391 . S
C3179 H3167 0.950 . S
C3179 C3175 1.393 . S
C3179 C3178 1.391 . S
H3180 C3188 0.950 . S
H3181 C3193 0.950 . S
H3182 C3190 0.950 . S
H3183 C3192 0.950 . S
H3184 C3194 0.950 . S
H3185 C3196 0.950 . S
H3186 C3198 0.950 . S
H3187 C3199 0.950 . S
C3188 H3180 0.950 . S
C3188 C3189 1.386 . S
C3188 C3190 1.391 . S
C3189 C3188 1.386 . S
C3189 C3193 1.393 . S
C3190 H3182 0.950 . S
C3190 C3188 1.391 . S
C3190 C3191 1.400 . S
C3191 C3190 1.400 . S
C3191 C3192 1.398 . S
C3191 C3197 1.491 . S
C3192 H3183 0.950 . S
C3192 C3191 1.398 . S
C3192 C3193 1.391 . S
C3193 H3181 0.950 . S
C3193 C3189 1.393 . S
C3193 C3192 1.391 . S
C3194 H3184 0.950 . S
C3194 C3195 1.386 . S
C3194 C3196 1.391 . S
C3195 C3194 1.386 . S
C3195 C3199 1.393 . S
C3196 H3185 0.950 . S
C3196 C3194 1.391 . S
C3196 C3197 1.400 . S
C3197 C3191 1.491 . S
C3197 C3196 1.400 . S
C3197 C3198 1.398 . S
C3198 H3186 0.950 . S
C3198 C3197 1.398 . S
C3198 C3199 1.391 . S
C3199 H3187 0.950 . S
C3199 C3195 1.393 . S
C3199 C3198 1.391 . S
H3200 C3208 0.950 . S
H3201 C3213 0.950 . S
H3202 C3210 0.950 . S
H3203 C3212 0.950 . S
H3204 C3214 0.950 . S
H3205 C3216 0.950 . S
H3206 C3218 0.950 . S
H3207 C3219 0.950 . S
C3208 H3200 0.950 . S
C3208 C3209 1.386 . S
C3208 C3210 1.391 . S
C3209 C3208 1.386 . S
C3209 C3213 1.393 . S
C3210 H3202 0.950 . S
C3210 C3208 1.391 . S
C3210 C3211 1.400 . S
C3211 C3210 1.400 . S
C3211 C3212 1.398 . S
C3211 C3217 1.491 . S
C3212 H3203 0.950 . S
C3212 C3211 1.398 . S
C3212 C3213 1.391 . S
C3213 H3201 0.950 . S
C3213 C3209 1.393 . S
C3213 C3212 1.391 . S
C3214 H3204 0.950 . S
C3214 C3215 1.386 . S
C3214 C3216 1.391 . S
C3215 C3214 1.386 . S
C3215 C3219 1.393 . S
C3216 H3205 0.950 . S
C3216 C3214 1.391 . S
C3216 C3217 1.400 . S
C3217 C3211 1.491 . S
C3217 C3216 1.400 . S
C3217 C3218 1.398 . S
C3218 H3206 0.950 . S
C3218 C3217 1.398 . S
C3218 C3219 1.391 . S
C3219 H3207 0.950 . S
C3219 C3215 1.393 . S
C3219 C3218 1.391 . S
H3220 C3228 0.950 . S
H3221 C3233 0.950 . S
H3222 C3230 0.950 . S
H3223 C3232 0.950 . S
H3224 C3234 0.950 . S
H3225 C3236 0.950 . S
H3226 C3238 0.950 . S
H3227 C3239 0.950 . S
C3228 H3220 0.950 . S
C3228 C3229 1.386 . S
C3228 C3230 1.391 . S
C3229 C3228 1.386 . S
C3229 C3233 1.393 . S
C3230 H3222 0.950 . S
C3230 C3228 1.391 . S
C3230 C3231 1.400 . S
C3231 C3230 1.400 . S
C3231 C3232 1.398 . S
C3231 C3237 1.491 . S
C3232 H3223 0.950 . S
C3232 C3231 1.398 . S
C3232 C3233 1.391 . S
C3233 H3221 0.950 . S
C3233 C3229 1.393 . S
C3233 C3232 1.391 . S
C3234 H3224 0.950 . S
C3234 C3235 1.386 . S
C3234 C3236 1.391 . S
C3235 C3234 1.386 . S
C3235 C3239 1.393 . S
C3236 H3225 0.950 . S
C3236 C3234 1.391 . S
C3236 C3237 1.400 . S
C3237 C3231 1.491 . S
C3237 C3236 1.400 . S
C3237 C3238 1.398 . S
C3238 H3226 0.950 . S
C3238 C3237 1.398 . S
C3238 C3239 1.391 . S
C3239 H3227 0.950 . S
C3239 C3235 1.393 . S
C3239 C3238 1.391 . S
H3240 C3248 0.950 . S
H3241 C3253 0.950 . S
H3242 C3250 0.950 . S
H3243 C3252 0.950 . S
H3244 C3254 0.950 . S
H3245 C3256 0.950 . S
H3246 C3258 0.950 . S
H3247 C3259 0.950 . S
C3248 H3240 0.950 . S
C3248 C3249 1.386 . S
C3248 C3250 1.391 . S
C3249 C3248 1.386 . S
C3249 C3253 1.393 . S
C3250 H3242 0.950 . S
C3250 C3248 1.391 . S
C3250 C3251 1.400 . S
C3251 C3250 1.400 . S
C3251 C3252 1.398 . S
C3251 C3257 1.491 . S
C3252 H3243 0.950 . S
C3252 C3251 1.398 . S
C3252 C3253 1.391 . S
C3253 H3241 0.950 . S
C3253 C3249 1.393 . S
C3253 C3252 1.391 . S
C3254 H3244 0.950 . S
C3254 C3255 1.386 . S
C3254 C3256 1.391 . S
C3255 C3254 1.386 . S
C3255 C3259 1.393 . S
C3256 H3245 0.950 . S
C3256 C3254 1.391 . S
C3256 C3257 1.400 . S
C3257 C3251 1.491 . S
C3257 C3256 1.400 . S
C3257 C3258 1.398 . S
C3258 H3246 0.950 . S
C3258 C3257 1.398 . S
C3258 C3259 1.391 . S
C3259 H3247 0.950 . S
C3259 C3255 1.393 . S
C3259 C3258 1.391 . S
H3260 C3268 0.950 . S
H3261 C3273 0.950 . S
H3262 C3270 0.950 . S
H3263 C3272 0.950 . S
H3264 C3274 0.950 . S
H3265 C3276 0.950 . S
H3266 C3278 0.950 . S
H3267 C3279 0.950 . S
C3268 H3260 0.950 . S
C3268 C3269 1.386 . S
C3268 C3270 1.391 . S
C3269 C3268 1.386 . S
C3269 C3273 1.393 . S
C3270 H3262 0.950 . S
C3270 C3268 1.391 . S
C3270 C3271 1.400 . S
C3271 C3270 1.400 . S
C3271 C3272 1.398 . S
C3271 C3277 1.491 . S
C3272 H3263 0.950 . S
C3272 C3271 1.398 . S
C3272 C3273 1.391 . S
C3273 H3261 0.950 . S
C3273 C3269 1.393 . S
C3273 C3272 1.391 . S
C3274 H3264 0.950 . S
C3274 C3275 1.386 . S
C3274 C3276 1.391 . S
C3275 C3274 1.386 . S
C3275 C3279 1.393 . S
C3276 H3265 0.950 . S
C3276 C3274 1.391 . S
C3276 C3277 1.400 . S
C3277 C3271 1.491 . S
C3277 C3276 1.400 . S
C3277 C3278 1.398 . S
C3278 H3266 0.950 . S
C3278 C3277 1.398 . S
C3278 C3279 1.391 . S
C3279 H3267 0.950 . S
C3279 C3275 1.393 . S
C3279 C3278 1.391 . S
H3280 C3288 0.950 . S
H3281 C3293 0.950 . S
H3282 C3290 0.950 . S
H3283 C3292 0.950 . S
H3284 C3294 0.950 . S
H3285 C3296 0.950 . S
H3286 C3298 0.950 . S
H3287 C3299 0.950 . S
C3288 H3280 0.950 . S
C3288 C3289 1.386 . S
C3288 C3290 1.391 . S
C3289 C3288 1.386 . S
C3289 C3293 1.393 . S
C3290 H3282 0.950 . S
C3290 C3288 1.391 . S
C3290 C3291 1.400 . S
C3291 C3290 1.400 . S
C3291 C3292 1.398 . S
C3291 C3297 1.491 . S
C3292 H3283 0.950 . S
C3292 C3291 1.398 . S
C3292 C3293 1.391 . S
C3293 H3281 0.950 . S
C3293 C3289 1.393 . S
C3293 C3292 1.391 . S
C3294 H3284 0.950 . S
C3294 C3295 1.386 . S
C3294 C3296 1.391 . S
C3295 C3294 1.386 . S
C3295 C3299 1.393 . S
C3296 H3285 0.950 . S
C3296 C3294 1.391 . S
C3296 C3297 1.400 . S
C3297 C3291 1.491 . S
C3297 C3296 1.400 . S
C3297 C3298 1.398 . S
C3298 H3286 0.950 . S
C3298 C3297 1.398 . S
C3298 C3299 1.391 . S
C3299 H3287 0.950 . S
C3299 C3295 1.393 . S
C3299 C3298 1.391 . S
H3300 C3308 0.950 . S
H3301 C3313 0.950 . S
H3302 C3310 0.950 . S
H3303 C3312 0.950 . S
H3304 C3314 0.950 . S
H3305 C3316 0.950 . S
H3306 C3318 0.950 . S
H3307 C3319 0.950 . S
C3308 H3300 0.950 . S
C3308 C3309 1.386 . S
C3308 C3310 1.391 . S
C3309 C3308 1.386 . S
C3309 C3313 1.393 . S
C3310 H3302 0.950 . S
C3310 C3308 1.391 . S
C3310 C3311 1.400 . S
C3311 C3310 1.400 . S
C3311 C3312 1.398 . S
C3311 C3317 1.491 . S
C3312 H3303 0.950 . S
C3312 C3311 1.398 . S
C3312 C3313 1.391 . S
C3313 H3301 0.950 . S
C3313 C3309 1.393 . S
C3313 C3312 1.391 . S
C3314 H3304 0.950 . S
C3314 C3315 1.386 . S
C3314 C3316 1.391 . S
C3315 C3314 1.386 . S
C3315 C3319 1.393 . S
C3316 H3305 0.950 . S
C3316 C3314 1.391 . S
C3316 C3317 1.400 . S
C3317 C3311 1.491 . S
C3317 C3316 1.400 . S
C3317 C3318 1.398 . S
C3318 H3306 0.950 . S
C3318 C3317 1.398 . S
C3318 C3319 1.391 . S
C3319 H3307 0.950 . S
C3319 C3315 1.393 . S
C3319 C3318 1.391 . S
H3320 C3328 0.950 . S
H3321 C3333 0.950 . S
H3322 C3330 0.950 . S
H3323 C3332 0.950 . S
H3324 C3334 0.950 . S
H3325 C3336 0.950 . S
H3326 C3338 0.950 . S
H3327 C3339 0.950 . S
C3328 H3320 0.950 . S
C3328 C3329 1.386 . S
C3328 C3330 1.391 . S
C3329 C3328 1.386 . S
C3329 C3333 1.393 . S
C3330 H3322 0.950 . S
C3330 C3328 1.391 . S
C3330 C3331 1.400 . S
C3331 C3330 1.400 . S
C3331 C3332 1.398 . S
C3331 C3337 1.491 . S
C3332 H3323 0.950 . S
C3332 C3331 1.398 . S
C3332 C3333 1.391 . S
C3333 H3321 0.950 . S
C3333 C3329 1.393 . S
C3333 C3332 1.391 . S
C3334 H3324 0.950 . S
C3334 C3335 1.386 . S
C3334 C3336 1.391 . S
C3335 C3334 1.386 . S
C3335 C3339 1.393 1_655 S
C3336 H3325 0.950 . S
C3336 C3334 1.391 . S
C3336 C3337 1.400 . S
C3337 C3331 1.491 . S
C3337 C3336 1.400 . S
C3337 C3338 1.398 . S
C3338 H3326 0.950 . S
C3338 C3337 1.398 . S
C3338 C3339 1.391 1_655 S
C3339 H3327 0.950 . S
C3339 C3335 1.393 1_455 S
C3339 C3338 1.391 1_455 S
H3340 C3348 0.950 . S
H3341 C3353 0.950 . S
H3342 C3350 0.950 . S
H3343 C3352 0.950 . S
H3344 C3354 0.950 . S
H3345 C3356 0.950 . S
H3346 C3358 0.950 . S
H3347 C3359 0.950 . S
C3348 H3340 0.950 . S
C3348 C3349 1.386 . S
C3348 C3350 1.391 . S
C3349 C3348 1.386 . S
C3349 C3353 1.393 . S
C3350 H3342 0.950 . S
C3350 C3348 1.391 . S
C3350 C3351 1.400 . S
C3351 C3350 1.400 . S
C3351 C3352 1.398 . S
C3351 C3357 1.491 . S
C3352 H3343 0.950 . S
C3352 C3351 1.398 . S
C3352 C3353 1.391 . S
C3353 H3341 0.950 . S
C3353 C3349 1.393 . S
C3353 C3352 1.391 . S
C3354 H3344 0.950 . S
C3354 C3355 1.386 . S
C3354 C3356 1.391 . S
C3355 C3354 1.386 . S
C3355 C3359 1.393 . S
C3356 H3345 0.950 . S
C3356 C3354 1.391 . S
C3356 C3357 1.400 . S
C3357 C3351 1.491 . S
C3357 C3356 1.400 . S
C3357 C3358 1.398 . S
C3358 H3346 0.950 . S
C3358 C3357 1.398 . S
C3358 C3359 1.391 . S
C3359 H3347 0.950 . S
C3359 C3355 1.393 . S
C3359 C3358 1.391 . S
H3360 C3368 0.950 . S
H3361 C3373 0.950 . S
H3362 C3370 0.950 . S
H3363 C3372 0.950 . S
H3364 C3374 0.950 . S
H3365 C3376 0.950 . S
H3366 C3378 0.950 . S
H3367 C3379 0.950 . S
C3368 H3360 0.950 . S
C3368 C3369 1.386 . S
C3368 C3370 1.391 . S
C3369 C3368 1.386 . S
C3369 C3373 1.393 . S
C3370 H3362 0.950 . S
C3370 C3368 1.391 . S
C3370 C3371 1.400 . S
C3371 C3370 1.400 . S
C3371 C3372 1.398 . S
C3371 C3377 1.491 . S
C3372 H3363 0.950 . S
C3372 C3371 1.398 . S
C3372 C3373 1.391 . S
C3373 H3361 0.950 . S
C3373 C3369 1.393 . S
C3373 C3372 1.391 . S
C3374 H3364 0.950 . S
C3374 C3375 1.386 . S
C3374 C3376 1.391 . S
C3375 C3374 1.386 . S
C3375 C3379 1.393 . S
C3376 H3365 0.950 . S
C3376 C3374 1.391 . S
C3376 C3377 1.400 . S
C3377 C3371 1.491 . S
C3377 C3376 1.400 . S
C3377 C3378 1.398 . S
C3378 H3366 0.950 . S
C3378 C3377 1.398 . S
C3378 C3379 1.391 . S
C3379 H3367 0.950 . S
C3379 C3375 1.393 . S
C3379 C3378 1.391 . S
H3380 C3388 0.950 . S
H3381 C3393 0.950 . S
H3382 C3390 0.950 . S
H3383 C3392 0.950 . S
H3384 C3394 0.950 . S
H3385 C3396 0.950 . S
H3386 C3398 0.950 . S
H3387 C3399 0.950 . S
C3388 H3380 0.950 . S
C3388 C3389 1.386 . S
C3388 C3390 1.391 . S
C3389 C3388 1.386 . S
C3389 C3393 1.393 . S
C3390 H3382 0.950 . S
C3390 C3388 1.391 . S
C3390 C3391 1.400 . S
C3391 C3390 1.400 . S
C3391 C3392 1.398 . S
C3391 C3397 1.491 . S
C3392 H3383 0.950 . S
C3392 C3391 1.398 . S
C3392 C3393 1.391 . S
C3393 H3381 0.950 . S
C3393 C3389 1.393 . S
C3393 C3392 1.391 . S
C3394 H3384 0.950 . S
C3394 C3395 1.386 . S
C3394 C3396 1.391 . S
C3395 C3394 1.386 . S
C3395 C3399 1.393 . S
C3396 H3385 0.950 . S
C3396 C3394 1.391 . S
C3396 C3397 1.400 . S
C3397 C3391 1.491 . S
C3397 C3396 1.400 . S
C3397 C3398 1.398 . S
C3398 H3386 0.950 . S
C3398 C3397 1.398 . S
C3398 C3399 1.391 . S
C3399 H3387 0.950 . S
C3399 C3395 1.393 . S
C3399 C3398 1.391 . S
H3400 C3408 0.950 . S
H3401 C3413 0.950 . S
H3402 C3410 0.950 . S
H3403 C3412 0.950 . S
H3404 C3414 0.950 . S
H3405 C3416 0.950 . S
H3406 C3418 0.950 . S
H3407 C3419 0.950 . S
C3408 H3400 0.950 . S
C3408 C3409 1.386 . S
C3408 C3410 1.391 . S
C3409 C3408 1.386 . S
C3409 C3413 1.393 . S
C3410 H3402 0.950 . S
C3410 C3408 1.391 . S
C3410 C3411 1.400 . S
C3411 C3410 1.400 . S
C3411 C3412 1.398 . S
C3411 C3417 1.491 . S
C3412 H3403 0.950 . S
C3412 C3411 1.398 . S
C3412 C3413 1.391 . S
C3413 H3401 0.950 . S
C3413 C3409 1.393 . S
C3413 C3412 1.391 . S
C3414 H3404 0.950 . S
C3414 C3415 1.386 . S
C3414 C3416 1.391 . S
C3415 C3414 1.386 . S
C3415 C3419 1.393 . S
C3416 H3405 0.950 . S
C3416 C3414 1.391 . S
C3416 C3417 1.400 . S
C3417 C3411 1.491 . S
C3417 C3416 1.400 . S
C3417 C3418 1.398 . S
C3418 H3406 0.950 . S
C3418 C3417 1.398 . S
C3418 C3419 1.391 . S
C3419 H3407 0.950 . S
C3419 C3415 1.393 . S
C3419 C3418 1.391 . S
H3420 C3428 0.950 . S
H3421 C3433 0.950 . S
H3422 C3430 0.950 . S
H3423 C3432 0.950 . S
H3424 C3434 0.950 . S
H3425 C3436 0.950 . S
H3426 C3438 0.950 . S
H3427 C3439 0.950 . S
C3428 H3420 0.950 . S
C3428 C3429 1.386 . S
C3428 C3430 1.391 . S
C3429 C3428 1.386 . S
C3429 C3433 1.393 . S
C3430 H3422 0.950 . S
C3430 C3428 1.391 . S
C3430 C3431 1.400 . S
C3431 C3430 1.400 . S
C3431 C3432 1.398 . S
C3431 C3437 1.491 . S
C3432 H3423 0.950 . S
C3432 C3431 1.398 . S
C3432 C3433 1.391 . S
C3433 H3421 0.950 . S
C3433 C3429 1.393 . S
C3433 C3432 1.391 . S
C3434 H3424 0.950 . S
C3434 C3435 1.386 . S
C3434 C3436 1.391 . S
C3435 C3434 1.386 . S
C3435 C3439 1.393 . S
C3436 H3425 0.950 . S
C3436 C3434 1.391 . S
C3436 C3437 1.400 . S
C3437 C3431 1.491 . S
C3437 C3436 1.400 . S
C3437 C3438 1.398 . S
C3438 H3426 0.950 . S
C3438 C3437 1.398 . S
C3438 C3439 1.391 . S
C3439 H3427 0.950 . S
C3439 C3435 1.393 . S
C3439 C3438 1.391 . S
H3440 C3448 0.950 . S
H3441 C3453 0.950 . S
H3442 C3450 0.950 . S
H3443 C3452 0.950 . S
H3444 C3454 0.950 . S
H3445 C3456 0.950 . S
H3446 C3458 0.950 . S
H3447 C3459 0.950 . S
C3448 H3440 0.950 . S
C3448 C3449 1.386 . S
C3448 C3450 1.391 . S
C3449 C3448 1.386 . S
C3449 C3453 1.393 . S
C3450 H3442 0.950 . S
C3450 C3448 1.391 . S
C3450 C3451 1.400 . S
C3451 C3450 1.400 . S
C3451 C3452 1.398 . S
C3451 C3457 1.491 . S
C3452 H3443 0.950 . S
C3452 C3451 1.398 . S
C3452 C3453 1.391 . S
C3453 H3441 0.950 . S
C3453 C3449 1.393 . S
C3453 C3452 1.391 . S
C3454 H3444 0.950 . S
C3454 C3455 1.386 . S
C3454 C3456 1.391 . S
C3455 C3454 1.386 . S
C3455 C3459 1.393 . S
C3456 H3445 0.950 . S
C3456 C3454 1.391 . S
C3456 C3457 1.400 . S
C3457 C3451 1.491 . S
C3457 C3456 1.400 . S
C3457 C3458 1.398 . S
C3458 H3446 0.950 . S
C3458 C3457 1.398 . S
C3458 C3459 1.391 . S
C3459 H3447 0.950 . S
C3459 C3455 1.393 . S
C3459 C3458 1.391 . S
H3460 C3468 0.950 . S
H3461 C3473 0.950 . S
H3462 C3470 0.950 . S
H3463 C3472 0.950 . S
H3464 C3474 0.950 1_545 S
H3465 C3476 0.950 . S
H3466 C3478 0.950 . S
H3467 C3479 0.950 . S
C3468 H3460 0.950 . S
C3468 C3469 1.386 . S
C3468 C3470 1.391 . S
C3469 C3468 1.386 . S
C3469 C3473 1.393 . S
C3470 H3462 0.950 . S
C3470 C3468 1.391 . S
C3470 C3471 1.400 . S
C3471 C3470 1.400 . S
C3471 C3472 1.398 . S
C3471 C3477 1.491 . S
C3472 H3463 0.950 . S
C3472 C3471 1.398 . S
C3472 C3473 1.391 . S
C3473 H3461 0.950 . S
C3473 C3469 1.393 . S
C3473 C3472 1.391 . S
C3474 H3464 0.950 1_565 S
C3474 C3475 1.386 . S
C3474 C3476 1.391 . S
C3475 C3474 1.386 . S
C3475 C3479 1.393 . S
C3476 H3465 0.950 . S
C3476 C3474 1.391 . S
C3476 C3477 1.400 . S
C3477 C3471 1.491 . S
C3477 C3476 1.400 . S
C3477 C3478 1.398 . S
C3478 H3466 0.950 . S
C3478 C3477 1.398 . S
C3478 C3479 1.391 . S
C3479 H3467 0.950 . S
C3479 C3475 1.393 . S
C3479 C3478 1.391 . S
H3480 C3488 0.950 . S
H3481 C3493 0.950 . S
H3482 C3490 0.950 . S
H3483 C3492 0.950 . S
H3484 C3494 0.950 . S
H3485 C3496 0.950 . S
H3486 C3498 0.950 . S
H3487 C3499 0.950 . S
C3488 H3480 0.950 . S
C3488 C3489 1.386 . S
C3488 C3490 1.391 . S
C3489 C3488 1.386 . S
C3489 C3493 1.393 . S
C3490 H3482 0.950 . S
C3490 C3488 1.391 . S
C3490 C3491 1.400 . S
C3491 C3490 1.400 . S
C3491 C3492 1.398 . S
C3491 C3497 1.491 . S
C3492 H3483 0.950 . S
C3492 C3491 1.398 . S
C3492 C3493 1.391 . S
C3493 H3481 0.950 . S
C3493 C3489 1.393 . S
C3493 C3492 1.391 . S
C3494 H3484 0.950 . S
C3494 C3495 1.386 . S
C3494 C3496 1.391 . S
C3495 C3494 1.386 . S
C3495 C3499 1.393 . S
C3496 H3485 0.950 . S
C3496 C3494 1.391 . S
C3496 C3497 1.400 . S
C3497 C3491 1.491 . S
C3497 C3496 1.400 . S
C3497 C3498 1.398 . S
C3498 H3486 0.950 . S
C3498 C3497 1.398 . S
C3498 C3499 1.391 . S
C3499 H3487 0.950 . S
C3499 C3495 1.393 . S
C3499 C3498 1.391 . S
H3500 C3508 0.950 . S
H3501 C3513 0.950 . S
H3502 C3510 0.950 . S
H3503 C3512 0.950 . S
H3504 C3514 0.950 . S
H3505 C3516 0.950 . S
H3506 C3518 0.950 . S
H3507 C3519 0.950 . S
C3508 H3500 0.950 . S
C3508 C3509 1.386 . S
C3508 C3510 1.391 . S
C3509 C3508 1.386 . S
C3509 C3513 1.393 . S
C3510 H3502 0.950 . S
C3510 C3508 1.391 . S
C3510 C3511 1.400 . S
C3511 C3510 1.400 . S
C3511 C3512 1.398 . S
C3511 C3517 1.491 . S
C3512 H3503 0.950 . S
C3512 C3511 1.398 . S
C3512 C3513 1.391 . S
C3513 H3501 0.950 . S
C3513 C3509 1.393 . S
C3513 C3512 1.391 . S
C3514 H3504 0.950 . S
C3514 C3515 1.386 . S
C3514 C3516 1.391 . S
C3515 C3514 1.386 . S
C3515 C3519 1.393 . S
C3516 H3505 0.950 . S
C3516 C3514 1.391 . S
C3516 C3517 1.400 . S
C3517 C3511 1.491 . S
C3517 C3516 1.400 . S
C3517 C3518 1.398 . S
C3518 H3506 0.950 . S
C3518 C3517 1.398 . S
C3518 C3519 1.391 . S
C3519 H3507 0.950 . S
C3519 C3515 1.393 . S
C3519 C3518 1.391 . S
H3520 C3528 0.950 . S
H3521 C3533 0.950 . S
H3522 C3530 0.950 . S
H3523 C3532 0.950 . S
H3524 C3534 0.950 . S
H3525 C3536 0.950 . S
H3526 C3538 0.950 . S
H3527 C3539 0.950 . S
C3528 H3520 0.950 . S
C3528 C3529 1.386 . S
C3528 C3530 1.391 . S
C3529 C3528 1.386 . S
C3529 C3533 1.393 . S
C3530 H3522 0.950 . S
C3530 C3528 1.391 . S
C3530 C3531 1.400 . S
C3531 C3530 1.400 . S
C3531 C3532 1.398 . S
C3531 C3537 1.491 . S
C3532 H3523 0.950 . S
C3532 C3531 1.398 . S
C3532 C3533 1.391 . S
C3533 H3521 0.950 . S
C3533 C3529 1.393 . S
C3533 C3532 1.391 . S
C3534 H3524 0.950 . S
C3534 C3535 1.386 . S
C3534 C3536 1.391 . S
C3535 C3534 1.386 . S
C3535 C3539 1.393 . S
C3536 H3525 0.950 . S
C3536 C3534 1.391 . S
C3536 C3537 1.400 . S
C3537 C3531 1.491 . S
C3537 C3536 1.400 . S
C3537 C3538 1.398 . S
C3538 H3526 0.950 . S
C3538 C3537 1.398 . S
C3538 C3539 1.391 . S
C3539 H3527 0.950 . S
C3539 C3535 1.393 . S
C3539 C3538 1.391 . S
H3540 C3548 0.950 . S
H3541 C3553 0.950 . S
H3542 C3550 0.950 . S
H3543 C3552 0.950 . S
H3544 C3554 0.950 . S
H3545 C3556 0.950 . S
H3546 C3558 0.953 1_556 S
H3547 C3559 0.950 1_556 S
C3548 H3540 0.950 . S
C3548 C3549 1.386 . S
C3548 C3550 1.391 . S
C3549 C3548 1.386 . S
C3549 C3553 1.393 . S
C3550 H3542 0.950 . S
C3550 C3548 1.391 . S
C3550 C3551 1.400 . S
C3551 C3550 1.400 . S
C3551 C3552 1.398 . S
C3551 C3557 1.491 . S
C3552 H3543 0.950 . S
C3552 C3551 1.398 . S
C3552 C3553 1.391 . S
C3553 H3541 0.950 . S
C3553 C3549 1.393 . S
C3553 C3552 1.391 . S
C3554 H3544 0.950 . S
C3554 C3555 1.386 . S
C3554 C3556 1.391 . S
C3555 C3554 1.386 . S
C3555 C3559 1.393 . S
C3556 H3545 0.950 . S
C3556 C3554 1.391 . S
C3556 C3557 1.400 . S
C3557 C3551 1.491 . S
C3557 C3556 1.400 . S
C3557 C3558 1.398 . S
C3558 H3546 0.953 1_554 S
C3558 C3557 1.398 . S
C3558 C3559 1.391 . S
C3559 H3547 0.950 1_554 S
C3559 C3555 1.393 . S
C3559 C3558 1.391 . S
H3560 C3568 0.950 . S
H3561 C3573 0.950 . S
H3562 C3570 0.950 . S
H3563 C3572 0.950 . S
H3564 C3574 0.950 . S
H3565 C3576 0.950 . S
H3566 C3578 0.950 . S
H3567 C3579 0.950 . S
C3568 H3560 0.950 . S
C3568 C3569 1.386 . S
C3568 C3570 1.391 . S
C3569 C3568 1.386 . S
C3569 C3573 1.393 . S
C3570 H3562 0.950 . S
C3570 C3568 1.391 . S
C3570 C3571 1.400 . S
C3571 C3570 1.400 . S
C3571 C3572 1.398 . S
C3571 C3577 1.491 . S
C3572 H3563 0.950 . S
C3572 C3571 1.398 . S
C3572 C3573 1.391 . S
C3573 H3561 0.950 . S
C3573 C3569 1.393 . S
C3573 C3572 1.391 . S
C3574 H3564 0.950 . S
C3574 C3575 1.386 . S
C3574 C3576 1.391 . S
C3575 C3574 1.386 . S
C3575 C3579 1.393 . S
C3576 H3565 0.950 . S
C3576 C3574 1.391 . S
C3576 C3577 1.400 . S
C3577 C3571 1.491 . S
C3577 C3576 1.400 . S
C3577 C3578 1.398 . S
C3578 H3566 0.950 . S
C3578 C3577 1.398 . S
C3578 C3579 1.391 . S
C3579 H3567 0.950 . S
C3579 C3575 1.393 . S
C3579 C3578 1.391 . S
H3580 C3588 0.950 . S
H3581 C3593 0.950 . S
H3582 C3590 0.950 . S
H3583 C3592 0.950 . S
H3584 C3594 0.950 . S
H3585 C3596 0.950 . S
H3586 C3598 0.950 . S
H3587 C3599 0.950 . S
C3588 H3580 0.950 . S
C3588 C3589 1.386 . S
C3588 C3590 1.391 . S
C3589 C3588 1.386 . S
C3589 C3593 1.393 . S
C3590 H3582 0.950 . S
C3590 C3588 1.391 . S
C3590 C3591 1.400 . S
C3591 C3590 1.400 . S
C3591 C3592 1.398 . S
C3591 C3597 1.491 . S
C3592 H3583 0.950 . S
C3592 C3591 1.398 . S
C3592 C3593 1.391 . S
C3593 H3581 0.950 . S
C3593 C3589 1.393 . S
C3593 C3592 1.391 . S
C3594 H3584 0.950 . S
C3594 C3595 1.386 . S
C3594 C3596 1.391 . S
C3595 C3594 1.386 . S
C3595 C3599 1.393 . S
C3596 H3585 0.950 . S
C3596 C3594 1.391 . S
C3596 C3597 1.400 . S
C3597 C3591 1.491 . S
C3597 C3596 1.400 . S
C3597 C3598 1.398 . S
C3598 H3586 0.950 . S
C3598 C3597 1.398 . S
C3598 C3599 1.391 . S
C3599 H3587 0.950 . S
C3599 C3595 1.393 . S
C3599 C3598 1.391 . S
C1689 C109 2.071 1_455 S
C1695 C392 2.088 . S
C1709 C65 1.883 . S
C1715 C494 1.868 . S
C1729 C75 1.869 . S
C1735 C560 1.872 . S
C1755 C646 1.429 . S
C1749 C84 1.506 . S
C1769 C25 1.484 . S
C1775 C730 1.408 . S
C1795 C812 1.824 . S
C1789 C28 1.818 . S
C1815 C914 1.894 . S
C1809 C47 1.884 . S
C1829 C9 2.069 . S
C1835 C980 2.097 . S
C1855 C410 1.738 . S
C1849 C233 1.777 . S
C1869 C249 0.884 . S
C1875 C478 0.872 . S
C1895 C578 1.156 . S
C1889 C275 1.178 . S
C1915 C644 1.640 . S
C1909 C173 1.641 . S
C1929 C224 1.679 . S
C1935 C728 1.686 . S
C1955 C830 1.179 . S
C1949 C243 1.188 . S
C1975 C898 0.922 . S
C1969 C266 0.927 . S
C1995 C998 1.608 . S
C1989 C179 1.647 . S
C2015 C394 1.014 1_565 S
C2009 C163 1.031 . S
C2029 C289 1.674 . S
C2035 C1082 1.650 . S
C2055 C1150 1.300 . S
C2049 C333 1.334 . S
C2075 C1232 0.784 . S
C2069 C308 0.786 . S
C2089 C123 1.020 . S
C2095 C982 0.970 . S
C2109 C126 1.416 . S
C2115 C562 1.353 . S
C2129 C327 1.697 . S
C2135 C1334 1.699 . S
C2155 C1400 0.900 . S
C2149 C299 0.895 . S
C2175 C403 2.101 . S
C2169 C67 2.099 . S
C2195 C1407 1.912 . S
C2189 C98 1.868 . S
C2209 C89 1.904 . S
C2215 C571 1.909 . S
C2229 C79 1.568 . S
C2235 C1329 1.454 . S
C2255 C741 1.425 . S
C2249 C11 1.511 . S
C2269 C51 1.837 . S
C2275 C1159 1.862 . S
C2295 C903 1.948 1_556 S
C2289 C33 1.936 . S
C2315 C1495 2.098 . S
C2309 C14 2.103 . S
C2335 C399 1.742 . S
C2329 C140 1.795 . S
C2355 C1413 0.876 . S
C2349 C319 0.900 . S
C2369 C112 1.173 . S
C2375 C567 1.195 . S
C2389 C285 1.660 . S
C2395 C1327 1.658 . S
C2409 C149 1.717 . S
C2415 C739 1.724 . S
C2435 C1155 1.220 . S
C2429 C313 1.215 . S
C2449 C121 0.990 . S
C2455 C909 0.919 . S
C2469 C291 1.685 . S
C2475 C1491 1.653 . S
C2489 C182 1.036 . S
C2495 C405 1.008 . S
C2509 C168 1.664 . S
C2515 C1071 1.678 . S
C2529 C263 1.368 . S
C2535 C825 1.297 . S
C2549 C247 0.837 . S
C2555 C1243 0.831 . S
C2575 C1497 0.999 . S
C2569 C277 1.005 1_565 S
C2589 C219 1.451 . S
C2595 C573 1.348 . S
C2615 C651 1.741 . S
C2609 C257 1.742 . S
C2635 C487 0.904 . S
C2629 C201 0.907 . S
C2649 C81 2.075 . S
C2655 C1568 2.086 . S
C2675 C1418 1.871 . S
C2669 C93 1.881 . S
C2689 C103 1.865 . S
C2695 C1652 1.873 . S
C2709 C56 1.517 . S
C2715 C1318 1.396 . S
C2729 C53 1.499 . S
C2735 C1066 1.400 . S
C2755 C1148 1.821 . S
C2749 C0 1.805 1_655 S
C2775 C1250 1.894 . S
C2769 C19 1.889 . S
C2795 C1484 2.098 . S
C2789 C37 2.068 . S
C2815 C1586 1.757 . S
C2809 C261 1.788 . S
C2829 C193 0.885 1_556 S
C2835 C1402 0.879 . S
C2855 C1670 1.158 . S
C2849 C205 1.180 . S
C2875 C1316 1.640 . S
C2869 C215 1.641 . S
C2895 C1064 1.683 . S
C2889 C252 1.676 . S
C2909 C187 1.170 . S
C2915 C1166 1.172 . S
C2935 C1234 0.915 . S
C2929 C196 0.923 . S
C2949 C221 1.649 . S
C2955 C1502 1.616 . S
C2975 C1570 1.032 . S
C2969 C317 1.022 . S
C2989 C135 1.672 . S
C2995 C746 1.659 . S
C3015 C814 1.300 . S
C3009 C151 1.334 1_565 S
C3035 C896 0.785 . S
C3029 C154 0.792 . S
C3055 C1486 1.005 . S
C3049 C305 1.003 . S
C3069 C280 1.410 . S
C3075 C1654 1.335 . S
C3095 C662 1.687 . S
C3089 C145 1.706 . S
C3115 C476 0.893 . S
C3109 C117 0.899 . S
C3129 C95 2.098 . S
C3135 C1579 2.101 . S
C3155 C483 1.902 . S
C3149 C70 1.882 . S
C3169 C61 1.896 . S
C3175 C1663 1.906 . S
C3189 C107 1.568 . S
C3195 C657 1.465 . S
C3209 C39 1.523 . S
C3215 C1077 1.415 . S
C3235 C823 1.863 . S
C3229 C23 1.835 . S
C3249 C5 1.945 . S
C3255 C1239 1.939 . S
C3269 C42 2.102 . S
C3275 C991 2.098 . S
C3295 C1575 1.752 . S
C3289 C322 1.793 . S
C3309 C165 0.924 . S
C3315 C489 0.876 . S
C3335 C1659 1.175 1_655 S
C3329 C294 1.188 . S
C3349 C131 1.660 . S
C3355 C655 1.659 . S
C3369 C331 1.720 . S
C3375 C1075 1.723 . S
C3395 C819 1.210 . S
C3389 C159 1.223 . S
C3409 C303 0.999 . S
C3415 C1245 0.965 . S
C3435 C987 1.653 . S
C3429 C137 1.694 . S
C3455 C1581 0.985 . S
C3449 C238 1.041 . S
C3475 C735 1.681 1_565 S
C3469 C210 1.661 . S
C3489 C235 1.379 . S
C3495 C1161 1.292 . S
C3515 C907 0.830 . S
C3509 C191 0.831 . S
C3529 C207 1.003 . S
C3535 C993 1.003 . S
C3549 C177 1.452 . S
C3555 C1665 1.370 . S
C3575 C1323 1.732 . S
C3569 C229 1.747 . S
C3595 C1411 0.910 . S
C3589 C271 0.910 . S
