# Generated by pormake.
# Topology gar, (4,6)-cn, num edge types: 1
# Building blocks:
#     Node 0, Type 0, BuildingBlock: KUFVIS_clean_sbu_0, # of connection points: 4
#     Node 1, Type 0, BuildingBlock: KUFVIS_clean_sbu_0, # of connection points: 4
#     Node 2, Type 0, BuildingBlock: KUFVIS_clean_sbu_0, # of connection points: 4
#     Node 3, Type 0, BuildingBlock: KUFVIS_clean_sbu_0, # of connection points: 4
#     Node 4, Type 0, BuildingBlock: KUFVIS_clean_sbu_0, # of connection points: 4
#     Node 5, Type 0, BuildingBlock: KUFVIS_clean_sbu_0, # of connection points: 4
#     Node 6, Type 0, BuildingBlock: KUFVIS_clean_sbu_0, # of connection points: 4
#     Node 7, Type 0, BuildingBlock: KUFVIS_clean_sbu_0, # of connection points: 4
#     Node 8, Type 0, BuildingBlock: KUFVIS_clean_sbu_0, # of connection points: 4
#     Node 9, Type 0, BuildingBlock: KUFVIS_clean_sbu_0, # of connection points: 4
#     Node 10, Type 0, BuildingBlock: KUFVIS_clean_sbu_0, # of connection points: 4
#     Node 11, Type 0, BuildingBlock: KUFVIS_clean_sbu_0, # of connection points: 4
#     Node 12, Type 0, BuildingBlock: KUFVIS_clean_sbu_0, # of connection points: 4
#     Node 13, Type 0, BuildingBlock: KUFVIS_clean_sbu_0, # of connection points: 4
#     Node 14, Type 0, BuildingBlock: KUFVIS_clean_sbu_0, # of connection points: 4
#     Node 15, Type 0, BuildingBlock: KUFVIS_clean_sbu_0, # of connection points: 4
#     Node 16, Type 0, BuildingBlock: KUFVIS_clean_sbu_0, # of connection points: 4
#     Node 17, Type 0, BuildingBlock: KUFVIS_clean_sbu_0, # of connection points: 4
#     Node 18, Type 0, BuildingBlock: KUFVIS_clean_sbu_0, # of connection points: 4
#     Node 19, Type 0, BuildingBlock: KUFVIS_clean_sbu_0, # of connection points: 4
#     Node 20, Type 0, BuildingBlock: KUFVIS_clean_sbu_0, # of connection points: 4
#     Node 21, Type 0, BuildingBlock: KUFVIS_clean_sbu_0, # of connection points: 4
#     Node 22, Type 0, BuildingBlock: KUFVIS_clean_sbu_0, # of connection points: 4
#     Node 23, Type 0, BuildingBlock: KUFVIS_clean_sbu_0, # of connection points: 4
#     Node 24, Type 1, BuildingBlock: KUMJIN_clean_sbu_0, # of connection points: 6
#     Node 25, Type 1, BuildingBlock: KUMJIN_clean_sbu_0, # of connection points: 6
#     Node 26, Type 1, BuildingBlock: KUMJIN_clean_sbu_0, # of connection points: 6
#     Node 27, Type 1, BuildingBlock: KUMJIN_clean_sbu_0, # of connection points: 6
#     Node 28, Type 1, BuildingBlock: KUMJIN_clean_sbu_0, # of connection points: 6
#     Node 29, Type 1, BuildingBlock: KUMJIN_clean_sbu_0, # of connection points: 6
#     Node 30, Type 1, BuildingBlock: KUMJIN_clean_sbu_0, # of connection points: 6
#     Node 31, Type 1, BuildingBlock: KUMJIN_clean_sbu_0, # of connection points: 6
#     Node 32, Type 1, BuildingBlock: KUMJIN_clean_sbu_0, # of connection points: 6
#     Node 33, Type 1, BuildingBlock: KUMJIN_clean_sbu_0, # of connection points: 6
#     Node 34, Type 1, BuildingBlock: KUMJIN_clean_sbu_0, # of connection points: 6
#     Node 35, Type 1, BuildingBlock: KUMJIN_clean_sbu_0, # of connection points: 6
#     Node 36, Type 1, BuildingBlock: KUMJIN_clean_sbu_0, # of connection points: 6
#     Node 37, Type 1, BuildingBlock: KUMJIN_clean_sbu_0, # of connection points: 6
#     Node 38, Type 1, BuildingBlock: KUMJIN_clean_sbu_0, # of connection points: 6
#     Node 39, Type 1, BuildingBlock: KUMJIN_clean_sbu_0, # of connection points: 6
#     Edge 40, Type (0, 1), BuildingBlock: CIFDUS_clean_linker_0, # of connection points: 2
#     Edge 41, Type (0, 1), BuildingBlock: CIFDUS_clean_linker_0, # of connection points: 2
#     Edge 42, Type (0, 1), BuildingBlock: CIFDUS_clean_linker_0, # of connection points: 2
#     Edge 43, Type (0, 1), BuildingBlock: CIFDUS_clean_linker_0, # of connection points: 2
#     Edge 44, Type (0, 1), BuildingBlock: CIFDUS_clean_linker_0, # of connection points: 2
#     Edge 45, Type (0, 1), BuildingBlock: CIFDUS_clean_linker_0, # of connection points: 2
#     Edge 46, Type (0, 1), BuildingBlock: CIFDUS_clean_linker_0, # of connection points: 2
#     Edge 47, Type (0, 1), BuildingBlock: CIFDUS_clean_linker_0, # of connection points: 2
#     Edge 48, Type (0, 1), BuildingBlock: CIFDUS_clean_linker_0, # of connection points: 2
#     Edge 49, Type (0, 1), BuildingBlock: CIFDUS_clean_linker_0, # of connection points: 2
#     Edge 50, Type (0, 1), BuildingBlock: CIFDUS_clean_linker_0, # of connection points: 2
#     Edge 51, Type (0, 1), BuildingBlock: CIFDUS_clean_linker_0, # of connection points: 2
#     Edge 52, Type (0, 1), BuildingBlock: CIFDUS_clean_linker_0, # of connection points: 2
#     Edge 53, Type (0, 1), BuildingBlock: CIFDUS_clean_linker_0, # of connection points: 2
#     Edge 54, Type (0, 1), BuildingBlock: CIFDUS_clean_linker_0, # of connection points: 2
#     Edge 55, Type (0, 1), BuildingBlock: CIFDUS_clean_linker_0, # of connection points: 2
#     Edge 56, Type (0, 1), BuildingBlock: CIFDUS_clean_linker_0, # of connection points: 2
#     Edge 57, Type (0, 1), BuildingBlock: CIFDUS_clean_linker_0, # of connection points: 2
#     Edge 58, Type (0, 1), BuildingBlock: CIFDUS_clean_linker_0, # of connection points: 2
#     Edge 59, Type (0, 1), BuildingBlock: CIFDUS_clean_linker_0, # of connection points: 2
#     Edge 60, Type (0, 1), BuildingBlock: CIFDUS_clean_linker_0, # of connection points: 2
#     Edge 61, Type (0, 1), BuildingBlock: CIFDUS_clean_linker_0, # of connection points: 2
#     Edge 62, Type (0, 1), BuildingBlock: CIFDUS_clean_linker_0, # of connection points: 2
#     Edge 63, Type (0, 1), BuildingBlock: CIFDUS_clean_linker_0, # of connection points: 2
#     Edge 64, Type (0, 1), BuildingBlock: CIFDUS_clean_linker_0, # of connection points: 2
#     Edge 65, Type (0, 1), BuildingBlock: CIFDUS_clean_linker_0, # of connection points: 2
#     Edge 66, Type (0, 1), BuildingBlock: CIFDUS_clean_linker_0, # of connection points: 2
#     Edge 67, Type (0, 1), BuildingBlock: CIFDUS_clean_linker_0, # of connection points: 2
#     Edge 68, Type (0, 1), BuildingBlock: CIFDUS_clean_linker_0, # of connection points: 2
#     Edge 69, Type (0, 1), BuildingBlock: CIFDUS_clean_linker_0, # of connection points: 2
#     Edge 70, Type (0, 1), BuildingBlock: CIFDUS_clean_linker_0, # of connection points: 2
#     Edge 71, Type (0, 1), BuildingBlock: CIFDUS_clean_linker_0, # of connection points: 2
#     Edge 72, Type (0, 1), BuildingBlock: CIFDUS_clean_linker_0, # of connection points: 2
#     Edge 73, Type (0, 1), BuildingBlock: CIFDUS_clean_linker_0, # of connection points: 2
#     Edge 74, Type (0, 1), BuildingBlock: CIFDUS_clean_linker_0, # of connection points: 2
#     Edge 75, Type (0, 1), BuildingBlock: CIFDUS_clean_linker_0, # of connection points: 2
#     Edge 76, Type (0, 1), BuildingBlock: CIFDUS_clean_linker_0, # of connection points: 2
#     Edge 77, Type (0, 1), BuildingBlock: CIFDUS_clean_linker_0, # of connection points: 2
#     Edge 78, Type (0, 1), BuildingBlock: CIFDUS_clean_linker_0, # of connection points: 2
#     Edge 79, Type (0, 1), BuildingBlock: CIFDUS_clean_linker_0, # of connection points: 2
#     Edge 80, Type (0, 1), BuildingBlock: CIFDUS_clean_linker_0, # of connection points: 2
#     Edge 81, Type (0, 1), BuildingBlock: CIFDUS_clean_linker_0, # of connection points: 2
#     Edge 82, Type (0, 1), BuildingBlock: CIFDUS_clean_linker_0, # of connection points: 2
#     Edge 83, Type (0, 1), BuildingBlock: CIFDUS_clean_linker_0, # of connection points: 2
#     Edge 84, Type (0, 1), BuildingBlock: CIFDUS_clean_linker_0, # of connection points: 2
#     Edge 85, Type (0, 1), BuildingBlock: CIFDUS_clean_linker_0, # of connection points: 2
#     Edge 86, Type (0, 1), BuildingBlock: CIFDUS_clean_linker_0, # of connection points: 2
#     Edge 87, Type (0, 1), BuildingBlock: CIFDUS_clean_linker_0, # of connection points: 2
#     Edge 88, Type (0, 1), BuildingBlock: CIFDUS_clean_linker_0, # of connection points: 2
#     Edge 89, Type (0, 1), BuildingBlock: CIFDUS_clean_linker_0, # of connection points: 2
#     Edge 90, Type (0, 1), BuildingBlock: CIFDUS_clean_linker_0, # of connection points: 2
#     Edge 91, Type (0, 1), BuildingBlock: CIFDUS_clean_linker_0, # of connection points: 2
#     Edge 92, Type (0, 1), BuildingBlock: CIFDUS_clean_linker_0, # of connection points: 2
#     Edge 93, Type (0, 1), BuildingBlock: CIFDUS_clean_linker_0, # of connection points: 2
#     Edge 94, Type (0, 1), BuildingBlock: CIFDUS_clean_linker_0, # of connection points: 2
#     Edge 95, Type (0, 1), BuildingBlock: CIFDUS_clean_linker_0, # of connection points: 2
#     Edge 96, Type (0, 1), BuildingBlock: CIFDUS_clean_linker_0, # of connection points: 2
#     Edge 97, Type (0, 1), BuildingBlock: CIFDUS_clean_linker_0, # of connection points: 2
#     Edge 98, Type (0, 1), BuildingBlock: CIFDUS_clean_linker_0, # of connection points: 2
#     Edge 99, Type (0, 1), BuildingBlock: CIFDUS_clean_linker_0, # of connection points: 2
#     Edge 100, Type (0, 1), BuildingBlock: CIFDUS_clean_linker_0, # of connection points: 2
#     Edge 101, Type (0, 1), BuildingBlock: CIFDUS_clean_linker_0, # of connection points: 2
#     Edge 102, Type (0, 1), BuildingBlock: CIFDUS_clean_linker_0, # of connection points: 2
#     Edge 103, Type (0, 1), BuildingBlock: CIFDUS_clean_linker_0, # of connection points: 2
#     Edge 104, Type (0, 1), BuildingBlock: CIFDUS_clean_linker_0, # of connection points: 2
#     Edge 105, Type (0, 1), BuildingBlock: CIFDUS_clean_linker_0, # of connection points: 2
#     Edge 106, Type (0, 1), BuildingBlock: CIFDUS_clean_linker_0, # of connection points: 2
#     Edge 107, Type (0, 1), BuildingBlock: CIFDUS_clean_linker_0, # of connection points: 2
#     Edge 108, Type (0, 1), BuildingBlock: CIFDUS_clean_linker_0, # of connection points: 2
#     Edge 109, Type (0, 1), BuildingBlock: CIFDUS_clean_linker_0, # of connection points: 2
#     Edge 110, Type (0, 1), BuildingBlock: CIFDUS_clean_linker_0, # of connection points: 2
#     Edge 111, Type (0, 1), BuildingBlock: CIFDUS_clean_linker_0, # of connection points: 2
#     Edge 112, Type (0, 1), BuildingBlock: CIFDUS_clean_linker_0, # of connection points: 2
#     Edge 113, Type (0, 1), BuildingBlock: CIFDUS_clean_linker_0, # of connection points: 2
#     Edge 114, Type (0, 1), BuildingBlock: CIFDUS_clean_linker_0, # of connection points: 2
#     Edge 115, Type (0, 1), BuildingBlock: CIFDUS_clean_linker_0, # of connection points: 2
#     Edge 116, Type (0, 1), BuildingBlock: CIFDUS_clean_linker_0, # of connection points: 2
#     Edge 117, Type (0, 1), BuildingBlock: CIFDUS_clean_linker_0, # of connection points: 2
#     Edge 118, Type (0, 1), BuildingBlock: CIFDUS_clean_linker_0, # of connection points: 2
#     Edge 119, Type (0, 1), BuildingBlock: CIFDUS_clean_linker_0, # of connection points: 2
#     Edge 120, Type (0, 1), BuildingBlock: CIFDUS_clean_linker_0, # of connection points: 2
#     Edge 121, Type (0, 1), BuildingBlock: CIFDUS_clean_linker_0, # of connection points: 2
#     Edge 122, Type (0, 1), BuildingBlock: CIFDUS_clean_linker_0, # of connection points: 2
#     Edge 123, Type (0, 1), BuildingBlock: CIFDUS_clean_linker_0, # of connection points: 2
#     Edge 124, Type (0, 1), BuildingBlock: CIFDUS_clean_linker_0, # of connection points: 2
#     Edge 125, Type (0, 1), BuildingBlock: CIFDUS_clean_linker_0, # of connection points: 2
#     Edge 126, Type (0, 1), BuildingBlock: CIFDUS_clean_linker_0, # of connection points: 2
#     Edge 127, Type (0, 1), BuildingBlock: CIFDUS_clean_linker_0, # of connection points: 2
#     Edge 128, Type (0, 1), BuildingBlock: CIFDUS_clean_linker_0, # of connection points: 2
#     Edge 129, Type (0, 1), BuildingBlock: CIFDUS_clean_linker_0, # of connection points: 2
#     Edge 130, Type (0, 1), BuildingBlock: CIFDUS_clean_linker_0, # of connection points: 2
#     Edge 131, Type (0, 1), BuildingBlock: CIFDUS_clean_linker_0, # of connection points: 2
#     Edge 132, Type (0, 1), BuildingBlock: CIFDUS_clean_linker_0, # of connection points: 2
#     Edge 133, Type (0, 1), BuildingBlock: CIFDUS_clean_linker_0, # of connection points: 2
#     Edge 134, Type (0, 1), BuildingBlock: CIFDUS_clean_linker_0, # of connection points: 2
#     Edge 135, Type (0, 1), BuildingBlock: CIFDUS_clean_linker_0, # of connection points: 2
# Relax obj value: 0.130
# Max RMSD: 0.340
# Mean RMSD: 0.152
data_MOF--net-gar--node1-KUFVIS_clean_sbu_0--node2-KUMJIN_clean_sbu_0--edge1-CIFDUS_clean_linker_0
_symmetry_space_group_name_H-M    P1
_symmetry_Int_Tables_number       1
_symmetry_cell_setting            triclinic
loop_
_symmetry_equiv_pos_as_xyz
'x, y, z'
_cell_length_a     54.059019
_cell_length_b     49.330886
_cell_length_c     50.518458
_cell_angle_alpha  100.1963
_cell_angle_beta   93.928172
_cell_angle_gamma 102.64016
loop_
_atom_site_label
_atom_site_type_symbol
_atom_site_fract_x
_atom_site_fract_y
_atom_site_fract_z
_atom_type_partial_charge
Mn0 Mn 0.13258 0.33193 0.39642 0.0
Mn1 Mn 0.13316 0.37036 0.34673 0.0
C2 C 0.09556 0.34266 0.37944 0.0
C3 C 0.12875 0.29135 0.41539 0.0
C4 C 0.15047 0.39619 0.40569 0.0
O5 O 0.16493 0.32718 0.37991 0.0
O6 O 0.16386 0.3549 0.34902 0.0
C7 C 0.12934 0.32375 0.29957 0.0
N8 N 0.12005 0.34526 0.31286 0.0
C9 C 0.08631 0.33766 0.27674 0.0
C10 C 0.09556 0.31546 0.26272 0.0
C11 C 0.11713 0.30845 0.27421 0.0
C12 C 0.09912 0.35199 0.30208 0.0
H13 H 0.14597 0.31829 0.30817 0.0
C14 C 0.174 0.33823 0.36053 0.0
O15 O 0.14174 0.31603 0.42791 0.0
O16 O 0.11858 0.28965 0.39082 0.0
N17 N 0.10443 0.38653 0.34125 0.0
C18 C 0.09986 0.41082 0.35546 0.0
C19 C 0.07919 0.42106 0.34645 0.0
C20 C 0.06418 0.40713 0.32208 0.0
C21 C 0.07037 0.38347 0.3067 0.0
C22 C 0.09102 0.37399 0.31696 0.0
H23 H 0.11236 0.42296 0.37303 0.0
O24 O 0.0978 0.33759 0.40377 0.0
O25 O 0.11491 0.34171 0.36581 0.0
O26 O 0.14881 0.37294 0.41348 0.0
O27 O 0.14538 0.39784 0.38108 0.0
C28 C 0.05712 0.36923 0.28136 0.0
C29 C 0.06501 0.34626 0.26644 0.0
H30 H 0.0863 0.30373 0.24306 0.0
H31 H 0.12442 0.29138 0.26348 0.0
H32 H 0.07519 0.43999 0.35798 0.0
H33 H 0.04834 0.41517 0.31506 0.0
H34 H 0.04094 0.37591 0.27307 0.0
H35 H 0.05473 0.33554 0.24692 0.0
Mn36 Mn 0.02086 0.75932 0.6681 0.0
Mn37 Mn 0.04518 0.81654 0.71722 0.0
C38 C 0.06416 0.77291 0.68263 0.0
C39 C 1.0075 0.71036 0.65402 0.0
C40 C 0.03141 0.82019 0.65878 0.0
O41 O 0.98897 0.76526 0.68572 0.0
O42 O 1.00783 0.80351 0.71796 0.0
C43 C 0.03596 0.78522 0.76195 0.0
N44 N 0.05221 0.80278 0.74945 0.0
C45 C 0.088 0.80184 0.78012 0.0
C46 C 0.07142 0.78482 0.79399 0.0
C47 C 0.04531 0.77631 0.78473 0.0
C48 C 0.07753 0.81028 0.75766 0.0
H49 H 0.01615 0.77741 0.75421 0.0
C50 C 0.98828 0.78419 0.7064 0.0
O51 O 1.00193 0.72733 0.63875 0.0
O52 O 0.01766 0.72193 0.67848 0.0
N53 N 0.0814 0.83084 0.71963 0.0
C54 C 0.09501 0.84684 0.70376 0.0
C55 C 0.12157 0.85648 0.7099 0.0
C56 C 0.13386 0.84993 0.73251 0.0
C57 C 0.1194 0.83414 0.74901 0.0
C58 C 0.09293 0.82545 0.74209 0.0
H59 H 0.08569 0.85248 0.68671 0.0
O60 O 0.05608 0.75771 0.65874 0.0
O61 O 0.04671 0.78005 0.6967 0.0
O62 O 0.02243 0.79366 0.65017 0.0
O63 O 0.03982 0.83128 0.68356 0.0
C64 C 0.13027 0.8264 0.77185 0.0
C65 C 0.1146 0.81009 0.78729 0.0
H66 H 0.07861 0.77765 0.8114 0.0
H67 H 0.03246 0.76252 0.79485 0.0
H68 H 0.13254 0.86894 0.69723 0.0
H69 H 0.15438 0.85716 0.73703 0.0
H70 H 0.1507 0.83257 0.77752 0.0
H71 H 0.12322 0.80382 0.80452 0.0
Mn72 Mn 0.63654 0.84181 0.89512 0.0
Mn73 Mn 0.62807 0.88028 0.84733 0.0
C74 C 0.59607 0.84639 0.88053 0.0
C75 C 0.6389 0.80174 0.91288 0.0
C76 C 0.64942 0.9065 0.90512 0.0
O77 O 0.66917 0.84304 0.87624 0.0
O78 O 0.65997 0.86774 0.84484 0.0
C79 C 0.62163 0.83522 0.79835 0.0
N80 N 0.61307 0.85616 0.81364 0.0
C81 C 0.57899 0.85246 0.77904 0.0
C82 C 0.58749 0.83096 0.76281 0.0
C83 C 0.60875 0.8221 0.77263 0.0
C84 C 0.59219 0.86422 0.80474 0.0
H85 H 0.63821 0.82872 0.80567 0.0
C86 C 0.67416 0.85405 0.85546 0.0
O87 O 0.65022 0.82708 0.92533 0.0
O88 O 0.62742 0.79915 0.88872 0.0
N89 N 0.5975 0.89377 0.84705 0.0
C90 C 0.59089 0.91364 0.86581 0.0
C91 C 0.56996 0.92473 0.8593 0.0
C92 C 0.55627 0.91556 0.83343 0.0
C93 C 0.56333 0.89494 0.81453 0.0
C94 C 0.58419 0.88448 0.82228 0.0
H95 H 0.60141 0.92088 0.88563 0.0
O96 O 0.60064 0.84113 0.90446 0.0
O97 O 0.6151 0.84946 0.86634 0.0
O98 O 0.64833 0.88326 0.91282 0.0
O99 O 0.64288 0.90786 0.88081 0.0
C100 C 0.55057 0.88443 0.78825 0.0
C101 C 0.55809 0.86286 0.77068 0.0
H102 H 0.57783 0.82108 0.74281 0.0
H103 H 0.61539 0.80547 0.76025 0.0
H104 H 0.5645 0.9404 0.87413 0.0
H105 H 0.54018 0.92422 0.82841 0.0
H106 H 0.53499 0.89278 0.78135 0.0
H107 H 0.54778 0.8546 0.7507 0.0
Mn108 Mn 0.51016 0.25407 0.16527 0.0
Mn109 Mn 0.4623 0.23673 0.11458 0.0
C110 C 0.49434 0.20722 0.14404 0.0
C111 C 0.55351 0.26337 0.17952 0.0
C112 C 0.45602 0.2573 0.17344 0.0
O113 O 0.51237 0.29092 0.15154 0.0
O114 O 0.48336 0.27513 0.11426 0.0
C115 C 0.48625 0.2353 0.06355 0.0
N116 N 0.47255 0.22139 0.08079 0.0
C117 C 0.46885 0.17643 0.05137 0.0
C118 C 0.48384 0.19014 0.03388 0.0
C119 C 0.49223 0.21978 0.03978 0.0
C120 C 0.46281 0.19312 0.07429 0.0
H121 H 0.49227 0.25808 0.06771 0.0
C122 C 0.50192 0.29376 0.12896 0.0
O123 O 0.53771 0.27138 0.19579 0.0
O124 O 0.54441 0.25227 0.15465 0.0
N125 N 0.44296 0.19892 0.11367 0.0
C126 C 0.42844 0.18885 0.13242 0.0
C127 C 0.41808 0.1596 0.12912 0.0
C128 C 0.42302 0.14093 0.10679 0.0
C129 C 0.43804 0.15174 0.08779 0.0
C130 C 0.44742 0.18115 0.09184 0.0
H131 H 0.42508 0.20293 0.15 0.0
O132 O 0.50476 0.21333 0.16895 0.0
O133 O 0.49132 0.22883 0.13404 0.0
O134 O 0.4784 0.25816 0.1837 0.0
O135 O 0.4492 0.25145 0.14803 0.0
C136 C 0.44478 0.13444 0.06547 0.0
C137 C 0.46021 0.14683 0.04733 0.0
H138 H 0.48869 0.17815 0.01569 0.0
H139 H 0.50332 0.23062 0.02609 0.0
H140 H 0.40663 0.1514 0.14397 0.0
H141 H 0.41537 0.11834 0.10457 0.0
H142 H 0.43841 0.11158 0.0622 0.0
H143 H 0.46589 0.13351 0.03067 0.0
Mn144 Mn 0.12761 0.82325 0.12592 0.0
Mn145 Mn 0.08058 0.80366 0.07302 0.0
C146 C 0.11398 0.77493 0.10297 0.0
C147 C 0.16956 0.83497 0.15189 0.0
C148 C 0.06966 0.81513 0.13145 0.0
O149 O 0.12676 0.86253 0.114 0.0
O150 O 0.09472 0.84601 0.07986 0.0
C151 C 0.11235 0.81726 0.02945 0.0
N152 N 0.09541 0.79821 0.03977 0.0
C153 C 0.0935 0.7617 1.00061 0.0
C154 C 0.11083 0.78097 0.98952 0.0
C155 C 0.12032 0.80884 1.00403 0.0
C156 C 0.08619 0.77131 0.02599 0.0
H157 H 0.11972 0.83868 0.04054 0.0
C158 C 0.11139 0.86668 0.09487 0.0
O159 O 0.14938 0.84062 0.16156 0.0
O160 O 0.16653 0.82596 0.12575 0.0
N161 N 0.06491 0.76398 0.06352 0.0
C162 C 0.049 0.7477 0.07745 0.0
C163 C 0.03819 0.71911 0.06593 0.0
C164 C 0.04359 0.70762 0.04011 0.0
C165 C 0.05968 0.72488 0.02598 0.0
C166 C 0.0698 0.75328 0.03844 0.0
H167 H 0.04473 0.75636 0.09731 0.0
O168 O 0.12405 0.78209 0.12795 0.0
O169 O 0.11152 0.79632 0.09174 0.0
O170 O 0.09313 0.82238 0.14076 0.0
O171 O 0.06241 0.80755 0.10612 0.0
C172 C 0.0665 0.71487 1.00028 0.0
C173 C 0.08344 0.73324 0.98763 0.0
H174 H 0.11708 0.77455 0.96996 0.0
H175 H 0.13376 0.82381 0.99563 0.0
H176 H 0.02577 0.70595 0.07696 0.0
H177 H 0.03539 0.68549 0.03139 0.0
H178 H 0.05906 0.69298 0.9902 0.0
H179 H 0.08875 0.72521 0.96799 0.0
Mn180 Mn 0.52436 0.77014 0.44002 0.0
Mn181 Mn 0.52315 0.80932 0.3908 0.0
C182 C 0.48405 0.77244 0.41707 0.0
C183 C 0.5301 0.72548 0.45321 0.0
C184 C 0.53776 0.83588 0.45069 0.0
O185 O 0.56112 0.77753 0.42816 0.0
O186 O 0.55346 0.79279 0.38936 0.0
C187 C 0.51599 0.76685 0.33983 0.0
N188 N 0.50828 0.78795 0.35587 0.0
C189 C 0.47711 0.78984 0.32024 0.0
C190 C 0.48472 0.76811 0.30333 0.0
C191 C 0.50412 0.75645 0.31323 0.0
C192 C 0.48939 0.79907 0.34665 0.0
H193 H 0.5312 0.75825 0.34725 0.0
C194 C 0.5676 0.78368 0.40548 0.0
O195 O 0.5351 0.7496 0.47007 0.0
O196 O 0.52111 0.72709 0.42915 0.0
N197 N 0.49465 0.82659 0.38997 0.0
C198 C 0.48853 0.84639 0.40927 0.0
C199 C 0.4689 0.85944 0.40292 0.0
C200 C 0.45599 0.8524 0.37668 0.0
C201 C 0.46256 0.83202 0.35714 0.0
C202 C 0.48219 0.81957 0.36471 0.0
H203 H 0.49856 0.85239 0.42934 0.0
O204 O 0.48525 0.76404 0.44005 0.0
O205 O 0.50607 0.77871 0.40819 0.0
O206 O 0.53038 0.81319 0.46024 0.0
O207 O 0.5387 0.83495 0.42539 0.0
C208 C 0.45032 0.82352 0.33048 0.0
C209 C 0.45762 0.80247 0.31202 0.0
H210 H 0.4757 0.76013 0.28277 0.0
H211 H 0.5101 0.73968 0.30029 0.0
H212 H 0.46392 0.87513 0.41814 0.0
H213 H 0.44112 0.86279 0.37172 0.0
H214 H 0.43506 0.83277 0.32407 0.0
H215 H 0.44782 0.79581 0.29169 0.0
Mn216 Mn 0.62387 0.3206 0.62553 0.0
Mn217 Mn 0.57938 0.3019 0.57011 0.0
C218 C 0.61167 0.27267 0.60093 0.0
C219 C 0.66612 0.33254 0.65153 0.0
C220 C 0.56529 0.31173 0.62771 0.0
O221 O 0.62313 0.36035 0.61415 0.0
O222 O 0.5934 0.34417 0.57775 0.0
C223 C 0.61199 0.31647 0.5275 0.0
N224 N 0.59485 0.29712 0.53724 0.0
C225 C 0.59109 0.26233 0.4963 0.0
C226 C 0.60864 0.28193 0.48579 0.0
C227 C 0.61919 0.30908 0.5015 0.0
C228 C 0.58455 0.27095 0.52228 0.0
H229 H 0.61996 0.33743 0.53943 0.0
C230 C 0.60901 0.36474 0.59403 0.0
O231 O 0.64579 0.33738 0.66164 0.0
O232 O 0.6628 0.32389 0.62538 0.0
N233 N 0.56382 0.26224 0.55981 0.0
C234 C 0.54861 0.24521 0.5737 0.0
C235 C 0.53743 0.21693 0.56133 0.0
C236 C 0.54171 0.20656 0.53472 0.0
C237 C 0.5573 0.22454 0.52079 0.0
C238 C 0.568 0.2525 0.53419 0.0
H239 H 0.54522 0.25306 0.59413 0.0
O240 O 0.62059 0.279 0.62629 0.0
O241 O 0.60944 0.29455 0.59037 0.0
O242 O 0.58818 0.31866 0.63927 0.0
O243 O 0.56021 0.30525 0.60205 0.0
C244 C 0.5632 0.2156 0.49441 0.0
C245 C 0.58006 0.23449 0.48216 0.0
H246 H 0.61427 0.27631 0.46576 0.0
H247 H 0.63276 0.3243 0.49352 0.0
H248 H 0.52552 0.20316 0.57227 0.0
H249 H 0.53315 0.1847 0.5253 0.0
H250 H 0.55518 0.19412 0.48351 0.0
H251 H 0.58468 0.22727 0.46199 0.0
Mn252 Mn 0.02526 0.27223 0.9418 0.0
Mn253 Mn 0.02613 0.3102 0.89134 0.0
C254 C 0.98551 0.27354 0.9164 0.0
C255 C 0.03145 0.22778 0.95551 0.0
C256 C 0.03744 0.33806 0.95156 0.0
O257 O 0.06284 0.2812 0.93313 0.0
O258 O 0.05767 0.29601 0.89368 0.0
C259 C 0.02403 0.26636 0.84246 0.0
N260 N 0.01438 0.28723 0.85632 0.0
C261 C 0.98519 0.28577 0.81763 0.0
C262 C 0.99477 0.26419 0.80293 0.0
C263 C 0.01417 0.25434 0.81545 0.0
C264 C 0.99551 0.29663 0.84458 0.0
H265 H 0.03929 0.25918 0.85192 0.0
C266 C 0.07108 0.28816 0.91144 0.0
O267 O 0.03502 0.25172 0.97247 0.0
O268 O 0.02334 0.22939 0.93115 0.0
N269 N 0.99702 0.32575 0.88655 0.0
C270 C 0.98932 0.34606 0.9038 0.0
C271 C 0.9697 0.35778 0.8946 0.0
C272 C 0.95855 0.34894 0.86763 0.0
C273 C 0.96693 0.32824 0.85018 0.0
C274 C 0.98645 0.31719 0.86054 0.0
H275 H 0.99814 0.35343 0.92438 0.0
O276 O 0.98586 0.2652 0.93944 0.0
O277 O 1.00809 0.28008 0.90869 0.0
O278 O 0.03032 0.3155 0.96149 0.0
O279 O 0.03831 0.33678 0.92618 0.0
C280 C 0.95664 0.31808 0.82293 0.0
C281 C 0.96574 0.29683 0.80666 0.0
H282 H 0.98734 0.25501 0.78204 0.0
H283 H 0.02169 0.23775 0.80421 0.0
H284 H 0.96337 0.37381 0.90818 0.0
H285 H 0.94362 0.35821 0.8605 0.0
H286 H 0.94148 0.32618 0.81437 0.0
H287 H 0.95743 0.2889 0.78585 0.0
Mn288 Mn 0.43493 0.05075 0.30714 0.0
Mn289 Mn 0.39146 0.04323 0.35142 0.0
C290 C 0.41567 1.00614 0.31297 0.0
C291 C 0.4473 0.05449 0.26502 0.0
C292 C 0.44807 0.06528 0.36769 0.0
O293 O 0.42402 0.08782 0.31216 0.0
O294 O 0.39182 0.07864 0.33802 0.0
C295 C 0.34329 0.03681 0.31677 0.0
N296 N 0.3581 0.02605 0.33314 0.0
C297 C 0.32673 0.98188 0.32602 0.0
C298 C 0.31108 0.99252 0.30923 0.0
C299 C 0.31935 0.02017 0.30471 0.0
C300 C 0.35001 0.99982 0.33832 0.0
H301 H 0.3497 0.05786 0.31279 0.0
C302 C 0.40468 0.09355 0.32305 0.0
O303 O 0.46301 0.06504 0.28682 0.0
O304 O 0.4238 0.04304 0.26781 0.0
N305 N 0.38939 1.00866 0.36412 0.0
C306 C 0.4077 1.00076 0.37887 0.0
C307 C 0.40319 0.97304 0.38362 0.0
C308 C 0.38011 0.95371 0.3728 0.0
C309 C 0.36147 0.96239 0.35791 0.0
C310 C 0.36672 0.99047 0.35444 0.0
H311 H 0.42584 0.01525 0.38644 0.0
O312 O 0.43788 1.01075 0.30403 0.0
O313 O 0.40588 0.02803 0.31884 0.0
O314 O 0.45448 0.06117 0.34401 0.0
O315 O 0.42496 0.06077 0.37289 0.0
C316 C 0.33862 0.94381 0.34491 0.0
C317 C 0.3209 0.95365 0.32965 0.0
H318 H 0.29291 0.97945 0.29928 0.0
H319 H 0.30748 0.0285 0.29162 0.0
H320 H 0.41772 0.96637 0.39496 0.0
H321 H 0.37721 0.93214 0.37554 0.0
H322 H 0.33514 0.9216 0.34528 0.0
H323 H 0.30349 0.93895 0.31965 0.0
Mn324 Mn 0.29767 0.21056 0.52466 0.0
Mn325 Mn 0.28765 0.15813 0.46907 0.0
C326 C 0.2557 0.18745 0.50541 0.0
C327 C 0.30277 0.22364 0.57313 0.0
C328 C 0.30784 0.22089 0.46699 0.0
O329 O 0.33136 0.19771 0.52502 0.0
O330 O 0.32121 0.16028 0.48996 0.0
C331 C 0.28414 0.10679 0.49289 0.0
N332 N 0.2733 0.12187 0.47725 0.0
C333 C 0.23544 0.08405 0.46503 0.0
C334 C 0.24616 0.06826 0.48116 0.0
C335 C 0.27063 0.07969 0.49512 0.0
C336 C 0.2499 0.11084 0.46337 0.0
H337 H 0.30302 0.11525 0.50342 0.0
C338 C 0.33628 0.17591 0.51042 0.0
O339 O 0.31087 0.24193 0.55819 0.0
O340 O 0.29202 0.19833 0.56002 0.0
N341 N 0.25535 0.15351 0.44845 0.0
C342 C 0.24698 0.17205 0.43513 0.0
C343 C 0.22241 0.16435 0.42103 0.0
C344 C 0.20664 0.13758 0.42074 0.0
C345 C 0.21559 0.11882 0.43465 0.0
C346 C 0.24031 0.12769 0.44831 0.0
H347 H 0.25888 0.19259 0.43549 0.0
O348 O 0.26079 0.21285 0.52005 0.0
O349 O 0.27553 0.17693 0.50158 0.0
O350 O 0.30653 0.23098 0.49202 0.0
O351 O 0.30195 0.19428 0.45718 0.0
C352 C 0.20078 0.09186 0.43588 0.0
C353 C 0.21078 0.07444 0.45094 0.0
H354 H 0.23572 0.04742 0.48307 0.0
H355 H 0.2791 0.0676 0.50755 0.0
H356 H 0.21563 0.17905 0.41047 0.0
H357 H 0.18763 0.13175 0.40996 0.0
H358 H 0.18162 0.08441 0.42552 0.0
H359 H 0.19921 0.05386 0.45189 0.0
Mn360 Mn 0.1914 0.02554 0.77072 0.0
Mn361 Mn 0.23874 0.04167 0.82368 0.0
C362 C 0.21526 0.07534 0.78777 0.0
C363 C 0.17286 0.0217 0.72023 0.0
C364 C 0.18166 0.02676 0.83475 0.0
O365 O 0.20588 0.98546 0.76931 0.0
O366 O 0.23577 0.9998 0.80563 0.0
C367 C 0.28327 0.0371 0.79337 0.0
N368 N 0.27131 0.05275 0.81095 0.0
C369 C 0.30644 0.09363 0.81642 0.0
C370 C 0.31914 0.07785 0.79853 0.0
C371 C 0.30749 0.04949 0.78694 0.0
C372 C 0.28239 0.0801 0.82223 0.0
H373 H 0.27442 0.01534 0.78421 0.0
C374 C 0.22439 0.98019 0.78512 0.0
O375 O 0.15973 1.01331 0.73907 0.0
O376 O 0.19689 0.02879 0.72957 0.0
N377 N 0.24495 0.08036 0.84235 0.0
C378 C 0.22951 0.09338 0.85774 0.0
C379 C 0.23807 0.1221 0.87006 0.0
C380 C 0.26239 0.13721 0.86646 0.0
C381 C 0.27795 0.12343 0.85056 0.0
C382 C 0.26848 0.09468 0.83892 0.0
H383 H 0.21069 0.08211 0.8605 0.0
O384 O 0.19194 0.06822 0.7766 0.0
O385 O 0.22361 0.05283 0.79077 0.0
O386 O 0.17336 0.02259 0.80894 0.0
O387 O 0.20588 0.03221 0.8415 0.0
C388 C 0.30225 0.1373 0.8453 0.0
C389 C 0.31649 0.12241 0.82824 0.0
H390 H 0.33775 0.08738 0.79337 0.0
H391 H 0.31713 0.03722 0.77301 0.0
H392 H 0.22588 0.13261 0.88219 0.0
H393 H 0.26882 0.15944 0.87578 0.0
H394 H 0.31001 0.15954 0.85393 0.0
H395 H 0.33499 0.13343 0.82403 0.0
Mn396 Mn 0.35284 0.95213 0.02864 0.0
Mn397 Mn 0.36588 0.98956 0.97939 0.0
C398 C 0.39438 0.96791 0.02063 0.0
C399 C 0.34625 0.94686 0.07237 0.0
C400 C 0.34707 0.9262 0.96877 0.0
O401 O 0.32047 0.96482 0.02193 0.0
O402 O 0.33043 0.98843 0.98835 0.0
C403 C 0.3635 0.04632 1.00893 0.0
N404 N 0.37677 0.02903 0.99509 0.0
C405 C 0.41294 0.06802 0.99739 0.0
C406 C 0.39951 0.08634 0.01121 0.0
C407 C 0.37474 0.07539 0.01718 0.0
C408 C 0.40065 0.03933 0.98939 0.0
H409 H 0.34442 0.03807 0.01348 0.0
C410 C 0.31498 0.97906 1.00458 0.0
O411 O 0.33686 0.92664 0.05171 0.0
O412 O 0.3581 0.9711 0.06749 0.0
N413 N 0.39951 0.99288 0.96893 0.0
C414 C 0.40996 0.97247 0.95545 0.0
C415 C 0.43537 0.97952 0.94993 0.0
C416 C 0.44955 1.00759 0.9579 0.0
C417 C 0.43801 0.0285 0.97044 0.0
C418 C 0.41271 0.02017 0.97566 0.0
H419 H 0.39922 0.9509 0.94962 0.0
O420 O 0.38799 0.94621 0.03208 0.0
O421 O 0.37626 0.97998 0.01413 0.0
O422 O 0.34423 0.92409 0.99302 0.0
O423 O 0.35556 0.94946 0.96121 0.0
C424 C 0.45084 0.05712 0.97868 0.0
C425 C 0.43812 0.077 0.99141 0.0
H426 H 0.40806 0.10879 0.01747 0.0
H427 H 0.36431 0.08935 0.02804 0.0
H428 H 0.44416 0.9633 0.94008 0.0
H429 H 0.46938 1.01271 0.95482 0.0
H430 H 0.47051 0.06396 0.97552 0.0
H431 H 0.44798 0.09903 0.99659 0.0
Mn432 Mn 0.35071 0.39365 0.04759 0.0
Mn433 Mn 0.36313 0.44774 0.01357 0.0
C434 C 0.39322 0.41544 0.04302 0.0
C435 C 0.34355 0.38028 0.09071 0.0
C436 C 0.34251 0.3856 0.98539 0.0
O437 O 0.31657 0.40591 0.04419 0.0
O438 O 0.32969 0.44592 0.02802 0.0
C439 C 0.36857 0.49695 0.05836 0.0
N440 N 0.37827 0.48304 0.0373 0.0
C441 C 0.41497 0.52191 0.04156 0.0
C442 C 0.40535 0.53673 0.06326 0.0
C443 C 0.38211 0.52412 0.07177 0.0
C444 C 0.40073 0.49482 0.02914 0.0
H445 H 0.35059 0.48741 0.06474 0.0
C446 C 0.31279 0.42862 0.03728 0.0
O447 O 0.33593 0.36235 0.06793 0.0
O448 O 0.35461 0.40562 0.08829 0.0
N449 N 0.39479 0.45237 0.99815 0.0
C450 C 0.40173 0.43494 0.97737 0.0
C451 C 0.42485 0.44406 0.9669 0.0
C452 C 0.44033 0.47119 0.97753 0.0
C453 C 0.43256 0.48895 0.99856 0.0
C454 C 0.4094 0.47865 1.00827 0.0
H455 H 0.38974 0.41424 0.96882 0.0
O456 O 0.38752 0.39062 0.04934 0.0
O457 O 0.37405 0.42691 0.03996 0.0
O458 O 0.34377 0.37391 1.00617 0.0
O459 O 0.34815 0.41247 0.98719 0.0
C460 C 0.44699 0.5164 1.0104 0.0
C461 C 0.4382 0.53287 0.03189 0.0
H462 H 0.41568 0.55773 0.07358 0.0
H463 H 0.37457 0.53542 0.08851 0.0
H464 H 0.43066 0.43028 0.95059 0.0
H465 H 0.45815 0.47816 0.96946 0.0
H466 H 0.46502 0.52491 1.00336 0.0
H467 H 0.44962 0.55379 0.04107 0.0
Mn468 Mn 0.79861 0.15237 0.05113 0.0
Mn469 Mn 0.76594 0.10077 1.00003 0.0
C470 C 0.75466 0.14064 0.04702 0.0
C471 C 0.81829 0.17025 0.09407 0.0
C472 C 0.79111 0.15962 0.99318 0.0
O473 O 0.82543 0.13091 0.03954 0.0
O474 O 0.80075 0.09583 1.00755 0.0
C475 C 0.76327 0.05176 0.02703 0.0
N476 N 0.75149 0.0672 0.0127 0.0
C477 C 0.71059 0.03584 0.01236 0.0
C478 C 0.7224 0.01898 0.02621 0.0
C479 C 0.74886 0.02709 0.03372 0.0
C480 C 0.72602 0.05979 1.00559 0.0
H481 H 0.7834 0.05853 0.03375 0.0
C482 C 0.82178 0.10766 0.02243 0.0
O483 O 0.82429 0.18305 0.07434 0.0
O484 O 0.80239 0.14552 0.08845 0.0
N485 N 0.7316 0.10284 0.99125 0.0
C486 C 0.72283 0.12398 0.98254 0.0
C487 C 0.69647 0.12101 0.97722 0.0
C488 C 0.67947 0.09626 0.98064 0.0
C489 C 0.689 0.07471 0.98936 0.0
C490 C 0.71544 0.07878 0.99431 0.0
H491 H 0.73581 0.14318 0.98018 0.0
O492 O 0.76715 0.16566 0.05963 0.0
O493 O 0.76819 0.12346 0.03673 0.0
O494 O 0.79934 0.1694 0.01779 0.0
O495 O 0.77918 0.13403 0.98402 0.0
C496 C 0.67321 0.0503 0.99518 0.0
C497 C 0.68399 0.03084 1.00665 0.0
H498 H 0.71123 1.00029 0.03196 0.0
H499 H 0.75804 1.01462 0.04504 0.0
H500 H 0.68925 0.1379 0.97083 0.0
H501 H 0.65914 0.0944 0.97736 0.0
H502 H 0.65279 0.04732 0.99232 0.0
H503 H 0.67175 1.01299 0.01253 0.0
Mn504 Mn 0.19864 0.55325 0.24102 0.0
Mn505 Mn 0.25308 0.57898 0.28286 0.0
C506 C 0.22077 0.5997 0.24382 0.0
C507 C 0.17595 0.52837 0.20062 0.0
C508 C 0.20043 0.56382 0.30127 0.0
O509 O 0.20967 0.51831 0.24825 0.0
O510 O 0.25022 0.53843 0.26739 0.0
C511 C 0.29491 0.57515 0.24832 0.0
N512 N 0.28327 0.59083 0.2662 0.0
C513 C 0.31862 0.63157 0.27168 0.0
C514 C 0.33086 0.6159 0.25315 0.0
C515 C 0.3189 0.58763 0.24132 0.0
C516 C 0.29464 0.6181 0.27768 0.0
H517 H 0.28597 0.55328 0.23961 0.0
C518 C 0.23236 0.51708 0.25564 0.0
O519 O 0.16552 0.53005 0.22297 0.0
O520 O 0.19995 0.541 0.20177 0.0
N521 N 0.25739 0.61842 0.29792 0.0
C522 C 0.24114 0.63191 0.31139 0.0
C523 C 0.24933 0.66086 0.32304 0.0
C524 C 0.27409 0.67572 0.32049 0.0
C525 C 0.29014 0.66162 0.30566 0.0
C526 C 0.28083 0.63277 0.29439 0.0
H527 H 0.22194 0.62079 0.31284 0.0
O528 O 0.19658 0.5921 0.23518 0.0
O529 O 0.23095 0.58021 0.25077 0.0
O530 O 0.188 0.5611 0.27847 0.0
O531 O 0.22465 0.5685 0.30467 0.0
C532 C 0.31471 0.67525 0.30088 0.0
C533 C 0.32891 0.66026 0.28382 0.0
H534 H 0.34933 0.62544 0.24765 0.0
H535 H 0.32825 0.57543 0.22699 0.0
H536 H 0.23658 0.67171 0.33389 0.0
H537 H 0.28032 0.69808 0.32941 0.0
H538 H 0.32249 0.6975 0.30946 0.0
H539 H 0.34743 0.67123 0.27959 0.0
Mn540 Mn 0.8504 0.89639 0.54751 0.0
Mn541 Mn 0.86602 0.9533 0.51751 0.0
C542 C 0.89331 0.92241 0.55065 0.0
C543 C 0.8392 0.88044 0.58924 0.0
C544 C 0.85069 0.89208 0.48546 0.0
O545 O 0.81568 0.90703 0.5397 0.0
O546 O 0.83109 0.94884 0.52743 0.0
C547 C 0.86548 1.00148 0.56149 0.0
N548 N 0.87788 0.98859 0.54228 0.0
C549 C 0.91256 0.03 0.54875 0.0
C550 C 0.90022 0.0437 0.5687 0.0
C551 C 0.87665 0.02933 0.57518 0.0
C552 C 0.90064 1.00217 0.53598 0.0
H553 H 0.84711 0.99065 0.56605 0.0
C554 C 0.81272 0.93024 0.53297 0.0
O555 O 0.83479 0.86317 0.56588 0.0
O556 O 0.84899 0.90644 0.58804 0.0
N557 N 0.89962 0.95998 0.50642 0.0
C558 C 0.90973 0.94316 0.48786 0.0
C559 C 0.93353 0.95408 0.47956 0.0
C560 C 0.94656 0.98227 0.49014 0.0
C561 C 0.9358 0.99916 0.50922 0.0
C562 C 0.91208 0.98706 0.51684 0.0
H563 H 0.89977 0.92157 0.47947 0.0
O564 O 0.88808 0.89673 0.55496 0.0
O565 O 0.87368 0.93186 0.54454 0.0
O566 O 0.84959 0.87858 0.50528 0.0
O567 O 0.85472 0.91897 0.48979 0.0
C568 C 0.94785 0.0274 0.52131 0.0
C569 C 0.9363 0.04276 0.54115 0.0
H570 H 0.90868 0.06524 0.57919 0.0
H571 H 0.86698 0.03983 0.59049 0.0
H572 H 0.94177 0.94082 0.46497 0.0
H573 H 0.96495 0.9906 0.48374 0.0
H574 H 0.96621 0.03732 0.51584 0.0
H575 H 0.94595 0.06431 0.5506 0.0
Mn576 Mn 0.95488 0.06808 0.27066 0.0
Mn577 Mn 0.91118 0.06472 0.31762 0.0
C578 C 0.92817 0.02134 0.27632 0.0
C579 C 0.97586 0.07033 0.2249 0.0
C580 C 0.96917 0.07432 0.33641 0.0
O581 O 0.94215 0.10898 0.2749 0.0
O582 O 0.91522 0.1041 0.30686 0.0
C583 C 0.86444 0.06767 0.28468 0.0
N584 N 0.87664 0.05417 0.30088 0.0
C585 C 0.83761 0.01973 0.30168 0.0
C586 C 0.82466 0.03349 0.2853 0.0
C587 C 0.83817 0.05747 0.27667 0.0
C588 C 0.86379 0.03099 0.30925 0.0
H589 H 0.87457 0.08613 0.27795 0.0
C590 C 0.92499 0.11838 0.28929 0.0
O591 O 0.98711 0.07943 0.24925 0.0
O592 O 0.95157 0.06121 0.22641 0.0
N593 N 0.90328 0.02909 0.32925 0.0
C594 C 0.919 0.01609 0.34207 0.0
C595 C 0.90869 0.99075 0.35049 0.0
C596 C 0.88233 0.97896 0.34571 0.0
C597 C 0.86655 0.99244 0.33221 0.0
C598 C 0.87789 0.01771 0.32429 0.0
H599 H 0.93931 0.02466 0.34555 0.0
O600 O 0.95029 0.02422 0.26713 0.0
O601 O 0.92244 0.046 0.28286 0.0
O602 O 0.97535 0.07427 0.31179 0.0
O603 O 0.9459 0.07401 0.34047 0.0
C604 C 0.84012 0.98125 0.32549 0.0
C605 C 0.82566 0.9949 0.31028 0.0
H606 H 0.80442 0.02562 0.27894 0.0
H607 H 0.82832 0.06811 0.26388 0.0
H608 H 0.92107 0.98027 0.36054 0.0
H609 H 0.87448 0.95927 0.35203 0.0
H610 H 0.83083 0.96179 0.3314 0.0
H611 H 0.80543 0.98579 0.3048 0.0
Mn612 Mn 0.30234 0.65718 0.54896 0.0
Mn613 Mn 0.27736 0.60227 0.49764 0.0
C614 C 0.25903 0.64415 0.53714 0.0
C615 C 0.31337 0.6769 0.59394 0.0
C616 C 0.30407 0.66042 0.48975 0.0
O617 O 0.33126 0.63703 0.54468 0.0
O618 O 0.31122 0.59898 0.51265 0.0
C619 C 0.26942 0.55423 0.52646 0.0
N620 N 0.26 0.56962 0.5101 0.0
C621 C 0.21859 0.5375 0.50321 0.0
C622 C 0.22787 0.52115 0.51983 0.0
C623 C 0.25338 0.52963 0.53159 0.0
C624 C 0.23546 0.56169 0.49874 0.0
H625 H 0.289 0.56071 0.53552 0.0
C626 C 0.3304 0.61304 0.52966 0.0
O627 O 0.32336 0.68966 0.57546 0.0
O628 O 0.29965 0.65118 0.58626 0.0
N629 N 0.2445 0.60326 0.48198 0.0
C630 C 0.2377 0.62357 0.46998 0.0
C631 C 0.21222 0.62001 0.45969 0.0
C632 C 0.19408 0.59528 0.4611 0.0
C633 C 0.20157 0.57464 0.47352 0.0
C634 C 0.22719 0.57964 0.48398 0.0
H635 H 0.25145 0.64271 0.46888 0.0
O636 O 0.26986 0.66965 0.54978 0.0
O637 O 0.27388 0.62687 0.53154 0.0
O638 O 0.30846 0.67219 0.5146 0.0
O639 O 0.29383 0.63418 0.48144 0.0
C640 C 0.18442 0.54995 0.47705 0.0
C641 C 0.19298 0.53139 0.49182 0.0
H642 H 0.21549 0.50231 0.52404 0.0
H643 H 0.26063 0.51724 0.5446 0.0
H644 H 0.20667 0.6366 0.45115 0.0
H645 H 0.17437 0.5927 0.45323 0.0
H646 H 0.16444 0.54555 0.46938 0.0
H647 H 0.17938 0.5134 0.49562 0.0
Mn648 Mn 0.45411 0.5687 0.76907 0.0
Mn649 Mn 0.41007 0.56577 0.81551 0.0
C650 C 0.42746 0.52226 0.77461 0.0
C651 C 0.47499 0.57111 0.72346 0.0
C652 C 0.4677 0.57447 0.83483 0.0
O653 O 0.44177 0.60998 0.77353 0.0
O654 O 0.41388 0.60487 0.80452 0.0
C655 C 0.36381 0.56762 0.78116 0.0
N656 N 0.37585 0.55444 0.79782 0.0
C657 C 0.33744 0.51827 0.79618 0.0
C658 C 0.32464 0.53168 0.77929 0.0
C659 C 0.33791 0.55638 0.77167 0.0
C660 C 0.36324 0.53054 0.80518 0.0
H661 H 0.37377 0.58657 0.77509 0.0
C662 C 0.42422 0.61931 0.78737 0.0
O663 O 0.48639 0.57994 0.74778 0.0
O664 O 0.45067 0.56226 0.72496 0.0
N665 N 0.40235 0.53019 0.82736 0.0
C666 C 0.41784 0.51816 0.84169 0.0
C667 C 0.4077 0.49249 0.84961 0.0
C668 C 0.38171 0.47941 0.84291 0.0
C669 C 0.3661 0.49207 0.8282 0.0
C670 C 0.37725 0.51774 0.82086 0.0
H671 H 0.43785 0.52781 0.84697 0.0
O672 O 0.44944 0.52493 0.76515 0.0
O673 O 0.42173 0.54694 0.7811 0.0
O674 O 0.47395 0.57318 0.81014 0.0
O675 O 0.44476 0.57613 0.83887 0.0
C676 C 0.34003 0.47978 0.81992 0.0
C677 C 0.32572 0.49287 0.80393 0.0
H678 H 0.3047 0.523 0.77181 0.0
H679 H 0.3282 0.56676 0.75849 0.0
H680 H 0.41994 0.48277 0.8608 0.0
H681 H 0.37401 0.45948 0.84886 0.0
H682 H 0.33093 0.45995 0.82529 0.0
H683 H 0.3058 0.48294 0.79729 0.0
Mn684 Mn 0.70879 0.05261 0.73785 0.0
Mn685 Mn 0.75871 0.08265 0.78533 0.0
C686 C 0.72318 0.10111 0.74891 0.0
C687 C 0.68485 0.03505 0.69694 0.0
C688 C 0.706 0.05964 0.79815 0.0
O689 O 0.72596 0.02031 0.73698 0.0
O690 O 0.75654 0.04153 0.77191 0.0
C691 C 0.80191 0.07718 0.75309 0.0
N692 N 0.78988 0.09344 0.76992 0.0
C693 C 0.82601 0.13343 0.77644 0.0
C694 C 0.83881 0.11704 0.75926 0.0
C695 C 0.8266 0.08889 0.74733 0.0
C696 C 0.80128 0.12074 0.78106 0.0
H697 H 0.79281 0.05544 0.74433 0.0
C698 C 0.74498 0.02039 0.75327 0.0
O699 O 0.67743 0.02754 0.71879 0.0
O700 O 0.70793 0.05068 0.69817 0.0
N701 N 0.76328 0.12221 0.7995 0.0
C702 C 0.74706 0.13605 0.81267 0.0
C703 C 0.75483 0.16544 0.82216 0.0
C704 C 0.77953 0.17999 0.81907 0.0
C705 C 0.79641 0.16499 0.80707 0.0
C706 C 0.78708 0.13605 0.79654 0.0
H707 H 0.72806 0.1249 0.81509 0.0
O708 O 0.69922 0.0897 0.74094 0.0
O709 O 0.73802 0.08408 0.75184 0.0
O710 O 0.69786 0.04812 0.77402 0.0
O711 O 0.72866 0.07417 0.80519 0.0
C712 C 0.82178 0.1778 0.8041 0.0
C713 C 0.83662 0.16198 0.78882 0.0
H714 H 0.85789 0.12594 0.75488 0.0
H715 H 0.83633 0.07614 0.73396 0.0
H716 H 0.74174 0.17684 0.83157 0.0
H717 H 0.78521 0.20278 0.82545 0.0
H718 H 0.82969 0.20007 0.8125 0.0
H719 H 0.8558 0.17231 0.78585 0.0
Mn720 Mn 0.79966 0.70987 0.02339 0.0
Mn721 Mn 0.7878 0.65265 0.97224 0.0
C722 C 0.75717 0.68489 1.00778 0.0
C723 C 0.80785 0.73102 0.07104 0.0
C724 C 0.80675 0.71314 0.9632 0.0
O725 O 0.83392 0.69737 0.02291 0.0
O726 O 0.82173 0.65601 0.99249 0.0
C727 C 0.78378 0.60534 1.00175 0.0
N728 N 0.7733 0.61831 0.98372 0.0
C729 C 0.7356 0.58023 0.97336 0.0
C730 C 0.74614 0.56626 0.99153 0.0
C731 C 0.77028 0.57895 1.00588 0.0
C732 C 0.75003 0.60633 0.96987 0.0
H733 H 0.80226 0.61509 0.01292 0.0
C734 C 0.83805 0.67387 1.01057 0.0
O735 O 0.8144 0.74509 0.0522 0.0
O736 O 0.79721 0.70436 0.06238 0.0
N737 N 0.75527 0.64723 0.95191 0.0
C738 C 0.74687 0.6646 0.93701 0.0
C739 C 0.72232 0.65592 0.92282 0.0
C740 C 0.70669 0.62947 0.924 0.0
C741 C 0.71571 0.61201 0.93952 0.0
C742 C 0.74037 0.62177 0.95322 0.0
H743 H 0.75874 0.68496 0.93601 0.0
O744 O 0.7624 0.71119 0.02028 0.0
O745 O 0.77701 0.67437 1.00417 0.0
O746 O 0.80509 0.72561 0.98741 0.0
O747 O 0.80229 0.68619 0.95653 0.0
C748 C 0.70104 0.58553 0.94235 0.0
C749 C 0.71104 0.56963 0.95918 0.0
H750 H 0.73569 0.54602 0.99494 0.0
H751 H 0.77844 0.56844 0.02014 0.0
H752 H 0.71546 0.6696 0.911 0.0
H753 H 0.68772 0.6229 0.91311 0.0
H754 H 0.68192 0.57737 0.93198 0.0
H755 H 0.69953 0.54956 0.96158 0.0
Mn756 Mn 0.93577 0.55111 0.81337 0.0
Mn757 Mn 0.88785 0.53706 0.85187 0.0
C758 C 0.918 0.50467 0.81553 0.0
C759 C 0.95159 0.55958 0.77355 0.0
C760 C 0.94319 0.55812 0.87446 0.0
O761 O 0.924 0.58746 0.81993 0.0
O762 O 0.89144 0.57571 0.84425 0.0
C763 C 0.84411 0.53725 0.81329 0.0
N764 N 0.85588 0.52369 0.82977 0.0
C765 C 0.82053 0.48291 0.82006 0.0
C766 C 0.80791 0.4965 0.80319 0.0
C767 C 0.81978 0.52379 0.79977 0.0
C768 C 0.84456 0.49758 0.83339 0.0
H769 H 0.85319 0.55818 0.81051 0.0
C770 C 0.90557 0.59317 0.83246 0.0
O771 O 0.9654 0.56914 0.79673 0.0
O772 O 0.92805 0.54616 0.7736 0.0
N773 N 0.88199 0.50034 0.86048 0.0
C774 C 0.89785 0.48921 0.87525 0.0
C775 C 0.8898 0.46122 0.8787 0.0
C776 C 0.86557 0.44524 0.86704 0.0
C777 C 0.84936 0.45729 0.85249 0.0
C778 C 0.85842 0.48522 0.84964 0.0
H779 H 0.91683 0.50116 0.88337 0.0
O780 O 0.94078 0.51199 0.8085 0.0
O781 O 0.90581 0.52484 0.82075 0.0
O782 O 0.95211 0.55957 0.85206 0.0
O783 O 0.9195 0.55012 0.87665 0.0
C784 C 0.82519 0.44218 0.8394 0.0
C785 C 0.81059 0.45507 0.82352 0.0
H786 H 0.78925 0.48605 0.79251 0.0
H787 H 0.81023 0.53437 0.78666 0.0
H788 H 0.90244 0.45176 0.88968 0.0
H789 H 0.86 0.42349 0.86853 0.0
H790 H 0.81809 0.42035 0.84058 0.0
H791 H 0.79216 0.44303 0.81331 0.0
Mn792 Mn 0.84624 0.44624 0.52112 0.0
Mn793 Mn 0.86602 0.49659 0.48475 0.0
C794 C 0.88853 0.45973 0.51675 0.0
C795 C 0.83607 0.4339 0.5617 0.0
C796 C 0.84631 0.43464 0.45991 0.0
O797 O 0.81554 0.46202 0.51645 0.0
O798 O 0.82997 0.49454 0.49183 0.0
C799 C 0.86403 0.54595 0.52689 0.0
N800 N 0.87728 0.53237 0.50909 0.0
C801 C 0.9143 0.57129 0.52059 0.0
C802 C 0.90098 0.58576 0.53888 0.0
C803 C 0.87576 0.57299 0.5421 0.0
C804 C 0.90158 0.54441 0.50595 0.0
H805 H 0.84463 0.53626 0.52944 0.0
C806 C 0.81255 0.48138 0.50392 0.0
O807 O 0.82717 0.41654 0.53883 0.0
O808 O 0.84928 0.45893 0.56064 0.0
N809 N 0.90043 0.50225 0.4761 0.0
C810 C 0.91113 0.48492 0.45872 0.0
C811 C 0.93673 0.49396 0.45445 0.0
C812 C 0.95078 0.52097 0.46759 0.0
C813 C 0.93916 0.53892 0.48442 0.0
C814 C 0.91371 0.52861 0.48824 0.0
H815 H 0.90056 0.46394 0.44908 0.0
O816 O 0.87926 0.43618 0.52431 0.0
O817 O 0.87303 0.47629 0.51371 0.0
O818 O 0.84029 0.42608 0.48152 0.0
O819 O 0.85561 0.46052 0.45887 0.0
C820 C 0.95223 0.56614 0.49847 0.0
C821 C 0.9398 0.58233 0.51658 0.0
H822 H 0.90999 0.6066 0.55069 0.0
H823 H 0.86538 0.58397 0.55626 0.0
H824 H 0.94574 0.47998 0.44151 0.0
H825 H 0.9707 0.52748 0.46558 0.0
H826 H 0.97201 0.57454 0.496 0.0
H827 H 0.95015 0.60305 0.52761 0.0
Mn828 Mn 0.69101 0.52221 0.26921 0.0
Mn829 Mn 0.7378 0.54141 0.32295 0.0
C830 C 0.71438 0.57259 0.28505 0.0
C831 C 0.67217 0.51827 0.21857 0.0
C832 C 0.68062 0.52515 0.33339 0.0
O833 O 0.70654 0.48239 0.26928 0.0
O834 O 0.73533 0.49948 0.30632 0.0
C835 C 0.78318 0.53659 0.29415 0.0
N836 N 0.7706 0.5525 0.31069 0.0
C837 C 0.8054 0.5937 0.31586 0.0
C838 C 0.81873 0.57766 0.29903 0.0
C839 C 0.80755 0.549 0.28811 0.0
C840 C 0.78124 0.58013 0.32136 0.0
H841 H 0.77471 0.51459 0.28556 0.0
C842 C 0.72504 0.47867 0.28636 0.0
O843 O 0.65925 0.50984 0.23752 0.0
O844 O 0.69624 0.52504 0.22774 0.0
N845 N 0.74323 0.58046 0.34028 0.0
C846 C 0.72717 0.59365 0.35451 0.0
C847 C 0.73515 0.62266 0.36592 0.0
C848 C 0.75952 0.63787 0.36262 0.0
C849 C 0.77571 0.62392 0.34787 0.0
C850 C 0.76678 0.5949 0.33707 0.0
H851 H 0.70829 0.58227 0.35698 0.0
O852 O 0.69102 0.56485 0.27407 0.0
O853 O 0.72295 0.55055 0.28893 0.0
O854 O 0.67261 0.5197 0.3074 0.0
O855 O 0.7048 0.53203 0.3405 0.0
C856 C 0.8001 0.63786 0.34291 0.0
C857 C 0.81495 0.62275 0.32695 0.0
H858 H 0.83746 0.58719 0.29417 0.0
H859 H 0.81769 0.53652 0.27501 0.0
H860 H 0.72246 0.63331 0.37711 0.0
H861 H 0.76551 0.66032 0.37123 0.0
H862 H 0.80746 0.66029 0.35093 0.0
H863 H 0.83353 0.63381 0.32297 0.0
Eu864 Eu 0.04881 0.02956 1.00789 0.0
C865 C 0.11655 0.13706 0.07636 0.0
C866 C 0.12788 0.16497 0.0422 0.0
C867 C 0.13012 0.1886 0.08893 0.0
C868 C 0.11956 0.13836 0.04964 0.0
C869 C 0.12217 0.16224 0.09636 0.0
C870 C 0.13293 0.18996 0.06191 0.0
C871 C 0.11384 0.1337 0.13024 0.0
N872 N 0.1093 0.11127 0.08311 0.0
C873 C 0.1088 0.10943 0.1099 0.0
C874 C 0.12037 0.16027 0.12344 0.0
Eu875 Eu 0.10335 0.07031 0.04763 0.0
N876 N 0.11495 0.11378 0.03101 0.0
C877 C 0.11895 0.11484 1.00461 0.0
C878 C 0.13132 0.16583 0.01521 0.0
C879 C 0.12683 0.14063 0.99637 0.0
H880 H 0.10495 0.08903 0.11585 0.0
H881 H 0.12936 0.14101 0.97535 0.0
H882 H 0.13937 0.21045 0.0565 0.0
H883 H 0.11311 0.13186 0.15122 0.0
H884 H 0.115 0.09621 0.98904 0.0
H885 H 0.02161 0.95938 0.08039 0.0
H886 H 0.13758 0.1858 1.00876 0.0
H887 H 0.04739 1.01078 0.93972 0.0
H888 H 0.03961 1.0035 0.06694 0.0
H889 H 0.03527 0.96824 0.90395 0.0
H890 H 0.13454 0.20805 0.10402 0.0
H891 H 1.00743 0.91516 0.04626 0.0
H892 H 1.00173 0.89074 0.998 0.0
H893 H 0.12464 0.17909 0.1393 0.0
H894 H 1.00609 0.89296 0.95036 0.0
N895 N 0.03569 0.98622 0.02444 0.0
C896 C 0.0331 0.9852 0.05113 0.0
C897 C 0.01527 0.93486 0.03993 0.0
C898 C 0.01772 0.93563 0.01275 0.0
C899 C 0.02314 0.95974 0.05919 0.0
C900 C 0.02816 0.96189 1.00548 0.0
H901 H 0.01892 0.92144 0.91536 0.0
N902 N 0.04074 0.9885 0.97222 0.0
C903 C 0.03426 0.96635 0.9249 0.0
C904 C 0.03095 0.96304 0.97869 0.0
C905 C 0.0416 0.99042 0.94548 0.0
C906 C 0.02498 0.94004 0.9314 0.0
C907 C 0.02291 0.93813 0.95845 0.0
O908 O 0.02171 0.03191 0.97533 0.0
O909 O 0.06712 0.07591 0.02624 0.0
O910 O 0.07191 0.06925 0.07873 0.0
O911 O 0.03539 0.04386 0.05135 0.0
O912 O 0.05718 0.06543 0.98483 0.0
O913 O 1.00894 0.02922 0.01526 0.0
O914 O 0.13291 0.07258 0.08016 0.0
O915 O 0.0849 0.02413 0.02961 0.0
O916 O 0.08025 0.02789 0.97717 0.0
O917 O 0.11633 0.05539 1.00397 0.0
O918 O 0.09606 0.03455 0.07086 0.0
O919 O 0.14206 0.06819 0.03832 0.0
C920 C 0.06474 0.08644 1.00487 0.0
C921 C 0.97765 0.03053 0.9786 0.0
C922 C 0.93857 0.04644 0.98195 0.0
C923 C 0.96232 0.04522 0.99378 0.0
C924 C 0.9302 0.03283 0.95491 0.0
C925 C 0.96927 0.01711 0.95157 0.0
C926 C 0.94553 0.01823 0.93982 0.0
C927 C 0.04673 0.05786 0.0761 0.0
C928 C 1.00312 0.03088 0.99022 0.0
C929 C 0.01246 0.91218 0.96564 0.0
C930 C 1.00991 0.91093 0.99274 0.0
C931 C 0.08767 1.01358 0.05091 0.0
C932 C 0.1761 0.0703 0.07316 0.0
C933 C 0.18894 0.05242 0.05782 0.0
C934 C 0.21202 0.04855 0.06888 0.0
C935 C 0.22284 0.06346 0.09485 0.0
C936 C 0.187 0.08523 0.09913 0.0
C937 C 0.21047 0.08202 0.10978 0.0
C938 C 0.10519 0.04018 0.97951 0.0
C939 C 0.14992 0.07008 0.06367 0.0
H940 H 0.96889 0.05581 0.01459 0.0
H941 H 0.91186 0.0337 0.94544 0.0
H942 H 0.98112 1.0059 0.93956 0.0
H943 H 0.93907 1.00791 0.91898 0.0
H944 H 0.18032 0.04027 0.03804 0.0
H945 H 0.24074 0.06058 0.10357 0.0
H946 H 0.17713 0.09887 0.11135 0.0
H947 H 0.21877 0.0934 0.12986 0.0
Eu948 Eu 0.34687 0.78808 0.24648 0.0
C949 C 0.30595 0.86333 0.34038 0.0
C950 C 0.34102 0.88048 0.3762 0.0
C951 C 0.30321 0.89926 0.37936 0.0
C952 C 0.3299 0.86264 0.35122 0.0
C953 C 0.29257 0.88219 0.35413 0.0
C954 C 0.32733 0.89827 0.39046 0.0
C955 C 0.2577 0.86369 0.31882 0.0
N956 N 0.29529 0.84484 0.31707 0.0
C957 C 0.27089 0.84411 0.30704 0.0
C958 C 0.26856 0.8828 0.34256 0.0
Eu959 Eu 0.31499 0.80603 0.30529 0.0
N960 N 0.34226 0.8444 0.33749 0.0
C961 C 0.3671 0.84566 0.3463 0.0
C962 C 0.36564 0.88004 0.38613 0.0
C963 C 0.37903 0.86328 0.37063 0.0
H964 H 0.26043 0.82702 0.29135 0.0
H965 H 0.39841 0.8635 0.37767 0.0
H966 H 0.33549 0.91184 0.40976 0.0
H967 H 0.23852 0.86287 0.31044 0.0
H968 H 0.37815 0.83316 0.3349 0.0
H969 H 0.26102 0.72114 0.18129 0.0
H970 H 0.3748 0.89333 0.40523 0.0
H971 H 0.40378 0.77219 0.25884 0.0
H972 H 0.28528 0.76267 0.21271 0.0
H973 H 0.4238 0.73214 0.24833 0.0
H974 H 0.29303 0.91347 0.39033 0.0
H975 H 0.27944 0.6799 0.16815 0.0
H976 H 0.31559 0.65688 0.17288 0.0
H977 H 0.25787 0.89718 0.3523 0.0
H978 H 0.35882 0.65896 0.19269 0.0
N979 N 0.31914 0.74724 0.2175 0.0
C980 C 0.29471 0.74595 0.207 0.0
C981 C 0.29075 0.69862 0.18185 0.0
C982 C 0.3154 0.69952 0.19277 0.0
C983 C 0.28033 0.72185 0.18917 0.0
C984 C 0.32936 0.72434 0.21085 0.0
H985 H 0.39897 0.68656 0.22091 0.0
N986 N 0.36675 0.74912 0.23989 0.0
C987 C 0.4039 0.72964 0.24133 0.0
C988 C 0.35355 0.72517 0.22265 0.0
C989 C 0.39225 0.75224 0.24749 0.0
C990 C 0.38986 0.70403 0.22584 0.0
C991 C 0.36462 0.70174 0.21569 0.0
O992 O 0.38564 0.80828 0.24044 0.0
O993 O 0.34891 0.82018 0.28465 0.0
O994 O 0.2931 0.81557 0.26699 0.0
O995 O 0.31448 0.80494 0.22912 0.0
O996 O 0.35106 0.8349 0.24854 0.0
O997 O 0.35739 0.7885 0.20572 0.0
O998 O 0.27533 0.78858 0.31232 0.0
O999 O 0.31224 0.77477 0.26649 0.0
O1000 O 0.36768 0.77759 0.28432 0.0
O1001 O 0.34796 0.79 0.32275 0.0
O1002 O 0.31035 0.75899 0.30141 0.0
O1003 O 0.3072 0.79642 0.34441 0.0
C1004 C 0.35162 0.84202 0.27437 0.0
C1005 C 0.39177 0.82539 0.20012 0.0
C1006 C 0.38748 0.86133 0.17394 0.0
C1007 C 0.3765 0.84053 0.18812 0.0
C1008 C 0.41391 0.86694 0.17207 0.0
C1009 C 0.41806 0.83122 0.19808 0.0
C1010 C 0.42907 0.85196 0.18413 0.0
C1011 C 0.29542 0.81389 0.24044 0.0
C1012 C 0.38079 0.80281 0.21414 0.0
C1013 C 0.35065 0.67713 0.198 0.0
C1014 C 0.32614 0.67605 0.18655 0.0
C1015 C 0.30818 0.75214 0.27551 0.0
C1016 C 0.26562 0.77654 0.35597 0.0
C1017 C 0.27529 0.76452 0.37628 0.0
C1018 C 0.25998 0.75534 0.39563 0.0
C1019 C 0.23465 0.75811 0.39457 0.0
C1020 C 0.24016 0.77876 0.3546 0.0
C1021 C 0.22475 0.76958 0.37394 0.0
C1022 C 0.36614 0.77996 0.3109 0.0
C1023 C 0.28272 0.78756 0.33716 0.0
H1024 H 0.35615 0.83602 0.18965 0.0
H1025 H 0.42275 0.8824 0.1607 0.0
H1026 H 0.43003 0.81953 0.20708 0.0
H1027 H 0.44933 0.85618 0.18237 0.0
H1028 H 0.29495 0.76262 0.37732 0.0
H1029 H 0.22252 0.75107 0.40942 0.0
H1030 H 0.2324 0.78803 0.33899 0.0
H1031 H 0.20516 0.77151 0.37304 0.0
Eu1032 Eu 0.60525 0.05483 0.51199 0.0
C1033 C 0.51947 1.0064 0.56938 0.0
C1034 C 0.49419 0.9669 0.53577 0.0
C1035 C 0.49469 0.96481 0.58341 0.0
C1036 C 0.51127 0.99392 0.54246 0.0
C1037 C 0.51071 0.99214 0.59013 0.0
C1038 C 0.48644 0.95224 0.55631 0.0
C1039 C 0.53139 0.03421 0.62289 0.0
N1040 N 0.53442 0.03316 0.57542 0.0
C1041 C 0.53923 0.04764 0.60174 0.0
C1042 C 0.5174 1.00617 0.61709 0.0
Eu1043 Eu 0.54618 0.05451 0.5379 0.0
N1044 N 0.51883 1.00862 0.52289 0.0
C1045 C 0.50869 0.99813 0.49651 0.0
C1046 C 0.48487 0.95561 0.50865 0.0
C1047 C 0.49196 0.97143 0.48899 0.0
H1048 H 0.54926 0.06972 0.60661 0.0
H1049 H 0.48445 0.96313 0.468 0.0
H1050 H 0.47354 0.93143 0.55147 0.0
H1051 H 0.53584 0.04564 0.64364 0.0
H1052 H 0.51346 1.00992 0.48084 0.0
H1053 H 0.65629 0.14785 0.58798 0.0
H1054 H 0.47179 0.93496 0.50275 0.0
H1055 H 0.60969 0.03948 0.44486 0.0
H1056 H 0.62845 0.10029 0.57219 0.0
H1057 H 0.62887 0.06381 0.40993 0.0
H1058 H 0.48796 0.95356 0.59909 0.0
H1059 H 0.67386 0.17603 0.55483 0.0
H1060 H 0.6788 0.17935 0.50663 0.0
H1061 H 0.51102 0.99593 0.63352 0.0
H1062 H 0.67121 0.15676 0.4585 0.0
N1063 N 0.63096 0.10063 0.53047 0.0
C1064 C 0.63689 0.11166 0.55751 0.0
C1065 C 0.66202 0.15484 0.54775 0.0
C1066 C 0.65664 0.14312 0.52007 0.0
C1067 C 0.65229 0.13894 0.56654 0.0
C1068 C 0.64096 0.11549 0.51181 0.0
H1069 H 0.65305 0.11378 0.42244 0.0
N1070 N 0.62242 0.07556 0.47671 0.0
C1071 C 0.63107 0.075 0.43072 0.0
C1072 C 0.63656 0.10269 0.48435 0.0
C1073 C 0.62034 0.06126 0.45057 0.0
C1074 C 0.64464 0.10324 0.43788 0.0
C1075 C 0.64787 0.11731 0.46496 0.0
O1076 O 0.62005 0.01748 0.5147 0.0
O1077 O 0.56913 0.02365 0.51739 0.0
O1078 O 0.57774 0.061 0.57279 0.0
O1079 O 0.60225 0.03604 0.54864 0.0
O1080 O 0.58101 0.02203 0.47882 0.0
O1081 O 0.64628 0.05548 0.51166 0.0
O1082 O 0.53066 0.08525 0.56416 0.0
O1083 O 0.5857 0.08278 0.53974 0.0
O1084 O 0.58111 0.06691 0.4796 0.0
O1085 O 0.54074 0.05475 0.4937 0.0
O1086 O 0.55562 0.0979 0.52692 0.0
O1087 O 0.50802 0.06105 0.52699 0.0
C1088 C 0.56603 1.00803 0.4934 0.0
C1089 C 0.65707 1.01176 0.49523 0.0
C1090 C 0.69047 0.98559 0.48905 0.0
C1091 C 0.67834 1.00331 0.50592 0.0
C1092 C 0.68112 0.97642 0.46154 0.0
C1093 C 0.64794 1.00211 0.46777 0.0
C1094 C 0.65992 0.98455 0.45104 0.0
C1095 C 0.59641 0.04771 0.57164 0.0
C1096 C 0.64358 0.02907 0.51314 0.0
C1097 C 0.6626 0.14517 0.47317 0.0
C1098 C 0.66694 0.15803 0.50061 0.0
C1099 C 0.57973 0.10498 0.53405 0.0
C1100 C 0.48637 0.08561 0.56014 0.0
C1101 C 0.47007 0.09976 0.54768 0.0
C1102 C 0.44927 0.10724 0.56043 0.0
C1103 C 0.4455 0.10029 0.58603 0.0
C1104 C 0.4815 0.0784 0.58517 0.0
C1105 C 0.46122 0.08576 0.598 0.0
C1106 C 0.5562 0.06396 0.47653 0.0
C1107 C 0.5097 0.08119 0.54806 0.0
H1108 H 0.68564 1.01084 0.5271 0.0
H1109 H 0.69053 0.96332 0.44809 0.0
H1110 H 0.63142 1.00794 0.45934 0.0
H1111 H 0.65285 0.97736 0.42981 0.0
H1112 H 0.47382 0.10502 0.52818 0.0
H1113 H 0.43062 0.10644 0.59727 0.0
H1114 H 0.49372 0.06768 0.59513 0.0
H1115 H 0.4579 0.08059 0.6176 0.0
Eu1116 Eu 0.29532 0.30583 0.77926 0.0
C1117 C 0.3845 0.26177 0.82771 0.0
C1118 C 0.40323 0.29987 0.86565 0.0
C1119 C 0.40797 0.25221 0.86652 0.0
C1120 C 0.38895 0.28996 0.83992 0.0
C1121 C 0.39452 0.24268 0.84056 0.0
C1122 C 0.41231 0.28076 0.87905 0.0
C1123 C 0.3798 0.20698 0.79996 0.0
N1124 N 0.37185 0.25336 0.80247 0.0
C1125 C 0.37061 0.22682 0.78796 0.0
C1126 C 0.3915 0.21483 0.82655 0.0
Eu1127 Eu 0.3566 0.28767 0.7828 0.0
N1128 N 0.3798 0.30783 0.82644 0.0
C1129 C 0.38562 0.33629 0.83718 0.0
C1130 C 0.40828 0.32875 0.87703 0.0
C1131 C 0.39959 0.34706 0.86261 0.0
H1132 H 0.36202 0.22085 0.76717 0.0
H1133 H 0.40355 0.3695 0.8711 0.0
H1134 H 0.42313 0.28797 0.89887 0.0
H1135 H 0.37806 0.18575 0.78861 0.0
H1136 H 0.37894 0.35104 0.82689 0.0
H1137 H 0.24616 0.22228 0.69343 0.0
H1138 H 0.41909 0.33716 0.89675 0.0
H1139 H 0.29094 0.37341 0.79299 0.0
H1140 H 0.2703 0.24162 0.73794 0.0
H1141 H 0.27526 0.40786 0.77027 0.0
H1142 H 0.41563 0.23782 0.87679 0.0
H1143 H 0.23297 0.25425 0.66568 0.0
H1144 H 0.23033 0.30344 0.6617 0.0
H1145 H 0.39887 0.19953 0.83574 0.0
H1146 H 0.23825 0.35396 0.68256 0.0
N1147 N 0.27193 0.28487 0.73595 0.0
C1148 C 0.26479 0.25618 0.72651 0.0
C1149 C 0.24374 0.26305 0.68537 0.0
C1150 C 0.24966 0.2922 0.69572 0.0
C1151 C 0.25105 0.24494 0.70101 0.0
C1152 C 0.26385 0.30261 0.72146 0.0
H1153 H 0.2547 0.39298 0.72307 0.0
N1154 N 0.28081 0.33993 0.75843 0.0
C1155 C 0.27342 0.38639 0.75946 0.0
C1156 C 0.26847 0.33102 0.73305 0.0
C1157 C 0.28235 0.36688 0.7722 0.0
C1158 C 0.26188 0.37792 0.73282 0.0
C1159 C 0.25883 0.34983 0.71944 0.0
O1160 O 0.27487 0.3232 0.81165 0.0
O1161 O 0.32594 0.29871 0.80842 0.0
O1162 O 0.32817 0.24675 0.78913 0.0
O1163 O 0.28854 0.25743 0.78283 0.0
O1164 O 0.31507 0.33705 0.81595 0.0
O1165 O 0.25727 0.2829 0.78641 0.0
O1166 O 0.37856 0.27097 0.7514 0.0
O1167 O 0.32562 0.29441 0.75443 0.0
O1168 O 0.32432 0.34712 0.77221 0.0
O1169 O 0.36301 0.33567 0.78148 0.0
O1170 O 0.33774 0.25717 0.74452 0.0
O1171 O 0.39313 0.31295 0.77448 0.0
C1172 C 0.32783 0.32138 0.8261 0.0
C1173 C 0.22978 0.30933 0.8087 0.0
C1174 C 0.19038 0.30743 0.83065 0.0
C1175 C 0.21325 0.29846 0.82692 0.0
C1176 C 0.18427 0.32713 0.81592 0.0
C1177 C 0.22277 0.32845 0.79382 0.0
C1178 C 0.20024 0.33735 0.79752 0.0
C1179 C 0.30265 0.23891 0.78685 0.0
C1180 C 0.25493 0.30213 0.80671 0.0
C1181 C 0.24564 0.3398 0.69339 0.0
C1182 C 0.24111 0.31104 0.68153 0.0
C1183 C 0.32336 0.27231 0.7362 0.0
C1184 C 0.42353 0.28858 0.75596 0.0
C1185 C 0.4403 0.29795 0.73718 0.0
C1186 C 0.46533 0.29326 0.73812 0.0
C1187 C 0.47282 0.27855 0.75753 0.0
C1188 C 0.43192 0.27423 0.77509 0.0
C1189 C 0.45626 0.26909 0.77571 0.0
C1190 C 0.34996 0.3546 0.77638 0.0
C1191 C 0.39728 0.29337 0.75556 0.0
H1192 H 0.2183 0.28346 0.83836 0.0
H1193 H 0.16677 0.33419 0.81827 0.0
H1194 H 0.2348 0.33674 0.77953 0.0
H1195 H 0.19513 0.35228 0.78607 0.0
H1196 H 0.43413 0.30921 0.72237 0.0
H1197 H 0.49168 0.27435 0.75864 0.0
H1198 H 0.41967 0.26693 0.78962 0.0
H1199 H 0.46241 0.25783 0.79051 0.0
Eu1200 Eu 0.06719 0.07852 0.53885 0.0
C1201 C 0.0938 1.01053 0.44753 0.0
C1202 C 0.05263 0.99573 0.42008 0.0
C1203 C 0.09153 1.00119 0.39826 0.0
C1204 C 0.06726 1.00413 0.44571 0.0
C1205 C 0.10606 1.00807 0.42366 0.0
C1206 C 0.0649 0.99509 0.39648 0.0
C1207 C 0.14584 1.01423 0.45125 0.0
N1208 N 0.10752 0.01634 0.47234 0.0
C1209 C 0.13297 0.01628 0.47425 0.0
C1210 C 0.13246 1.01082 0.42587 0.0
Eu1211 Eu 0.08304 0.01621 0.50989 0.0
N1212 N 0.05568 1.00417 0.46877 0.0
C1213 C 0.02984 0.99425 0.46753 0.0
C1214 C 0.02606 0.987 0.41883 0.0
C1215 C 0.01467 0.98582 0.44265 0.0
H1216 H 0.14337 0.01773 0.49372 0.0
H1217 H 0.99418 0.97856 0.4419 0.0
H1218 H 0.05394 0.98885 0.3767 0.0
H1219 H 0.16594 1.0145 0.45308 0.0
H1220 H 0.02083 0.9934 0.48577 0.0
H1221 H 0.15701 0.11741 0.60691 0.0
H1222 H 0.01425 0.98038 0.39955 0.0
H1223 H 1.00593 0.07106 0.55527 0.0
H1224 H 0.1311 0.0994 0.56371 0.0
H1225 H 0.98391 0.07686 0.59581 0.0
H1226 H 0.10068 0.9994 0.37981 0.0
H1227 H 0.13671 0.12307 0.64913 0.0
H1228 H 0.09719 0.11926 0.6719 0.0
H1229 H 0.14246 1.00877 0.40801 0.0
H1230 H 0.05052 0.10753 0.66899 0.0
N1231 N 0.09528 0.09352 0.58 0.0
C1232 C 0.12135 0.10133 0.58137 0.0
C1233 C 0.12492 0.11483 0.62993 0.0
C1234 C 0.09836 0.10753 0.62868 0.0
C1235 C 0.13643 0.1117 0.60618 0.0
C1236 C 0.08372 0.09666 0.60314 0.0
H1237 H 1.00846 0.09164 0.64104 0.0
N1238 N 0.04322 0.07983 0.57688 0.0
C1239 C 1.00448 0.08014 0.5978 0.0
C1240 C 0.05717 0.08952 0.60155 0.0
C1241 C 0.01721 0.07649 0.5748 0.0
C1242 C 0.01839 0.08849 0.62323 0.0
C1243 C 0.04499 0.0938 0.62538 0.0
O1244 O 0.03768 0.1016 0.53329 0.0
O1245 O 0.05608 0.0454 0.49908 0.0
O1246 O 0.1178 0.05199 0.51021 0.0
O1247 O 0.10496 0.09386 0.52249 0.0
O1248 O 0.06682 0.08664 0.49517 0.0
O1249 O 0.07627 0.12489 0.54897 0.0
O1250 O 0.10271 0.98127 0.50471 0.0
O1251 O 0.08853 0.04601 0.55128 0.0
O1252 O 0.03234 0.04082 0.53644 0.0
O1253 O 0.05182 1.00379 0.53531 0.0
O1254 O 0.1076 1.01442 0.54869 0.0
O1255 O 0.06161 0.97238 0.50407 0.0
C1256 C 0.05705 0.06167 0.48094 0.0
C1257 C 0.0493 0.14923 0.52773 0.0
C1258 C 0.0595 0.18023 0.49533 0.0
C1259 C 0.06457 0.15835 0.50791 0.0
C1260 C 0.03949 0.19288 0.50287 0.0
C1261 C 0.02945 0.16226 0.53489 0.0
C1262 C 0.02463 0.18398 0.52257 0.0
C1263 C 0.12186 0.07981 0.51347 0.0
C1264 C 0.05306 0.12642 0.54175 0.0
C1265 C 0.05961 0.10419 0.65061 0.0
C1266 C 0.08619 0.11098 0.65226 0.0
C1267 C 0.10256 0.03435 0.56633 0.0
C1268 C 0.0813 0.93455 0.50945 0.0
C1269 C 0.06943 0.92614 0.53172 0.0
C1270 C 0.06881 0.89883 0.53705 0.0
C1271 C 0.07931 0.88008 0.51933 0.0
C1272 C 0.09202 0.91557 0.49255 0.0
C1273 C 0.09087 0.88845 0.49737 0.0
C1274 C 0.03195 1.01446 0.53905 0.0
C1275 C 0.08152 0.96188 0.5015 0.0
H1276 H 0.08004 0.14855 0.50228 0.0
H1277 H 0.03551 0.20989 0.49359 0.0
H1278 H 0.01763 0.1556 0.55014 0.0
H1279 H 1.00933 0.19396 0.52832 0.0
H1280 H 0.06119 0.94077 0.54491 0.0
H1281 H 0.07864 0.85879 0.52252 0.0
H1282 H 0.10091 0.92158 0.47519 0.0
H1283 H 0.09893 0.87384 0.48399 0.0
Eu1284 Eu 0.35119 0.81553 0.77437 0.0
C1285 C 0.2868 0.73133 0.828 0.0
C1286 C 0.29386 0.6873 0.80322 0.0
C1287 C 0.28404 0.69049 0.84962 0.0
C1288 C 0.2927 0.71588 0.80456 0.0
C1289 C 0.28161 0.71838 0.85047 0.0
C1290 C 0.29012 0.67498 0.82604 0.0
C1291 C 0.26795 0.75968 0.87147 0.0
N1292 N 0.28397 0.75808 0.82812 0.0
C1293 C 0.27278 0.77135 0.84855 0.0
C1294 C 0.27288 0.73332 0.87268 0.0
Eu1295 Eu 0.29285 0.7763 0.78828 0.0
N1296 N 0.29619 0.72824 0.78269 0.0
C1297 C 0.29985 0.71263 0.75863 0.0
C1298 C 0.29833 0.67169 0.77884 0.0
C1299 C 0.30114 0.68439 0.75639 0.0
H1300 H 0.26828 0.79144 0.84735 0.0
H1301 H 0.30453 0.67252 0.73736 0.0
H1302 H 0.29125 0.65322 0.82542 0.0
H1303 H 0.26011 0.77087 0.88803 0.0
H1304 H 0.30288 0.72194 0.74117 0.0
H1305 H 0.34926 0.92226 0.82542 0.0
H1306 H 0.29939 0.64976 0.77706 0.0
H1307 H 0.37205 0.79536 0.71473 0.0
H1308 H 0.34649 0.87135 0.82152 0.0
H1309 H 0.38406 0.81536 0.6745 0.0
H1310 H 0.2804 0.68038 0.8668 0.0
H1311 H 0.35538 0.94431 0.78535 0.0
H1312 H 0.36343 0.93946 0.73666 0.0
H1313 H 0.26876 0.72411 0.8903 0.0
H1314 H 0.37295 0.91039 0.69556 0.0
N1315 N 0.3514 0.86421 0.77957 0.0
C1316 C 0.34943 0.88051 0.80382 0.0
C1317 C 0.35437 0.92186 0.78349 0.0
C1318 C 0.35737 0.90531 0.75896 0.0
C1319 C 0.351 0.90953 0.80617 0.0
C1320 C 0.35614 0.87621 0.75769 0.0
H1321 H 0.38126 0.86435 0.67244 0.0
N1322 N 0.36198 0.83245 0.73467 0.0
C1323 C 0.37764 0.82804 0.69118 0.0
C1324 C 0.36159 0.85987 0.73456 0.0
C1325 C 0.37086 0.8168 0.71393 0.0
C1326 C 0.37593 0.85567 0.69006 0.0
C1327 C 0.36828 0.87214 0.71209 0.0
O1328 O 0.38935 0.80965 0.76879 0.0
O1329 O 0.33577 0.77308 0.78806 0.0
O1330 O 0.31306 0.797 0.8295 0.0
O1331 O 0.35063 0.82374 0.81914 0.0
O1332 O 0.35845 0.7714 0.75732 0.0
O1333 O 0.38386 0.84072 0.8027 0.0
O1334 O 0.25439 0.78029 0.79336 0.0
O1335 O 0.31063 0.82138 0.78152 0.0
O1336 O 0.32528 0.80661 0.73563 0.0
O1337 O 0.29716 0.76778 0.74391 0.0
O1338 O 0.27459 0.81519 0.79092 0.0
O1339 O 0.26026 0.74663 0.76211 0.0
C1340 C 0.34818 0.75625 0.77393 0.0
C1341 C 0.42482 0.84675 0.78783 0.0
C1342 C 0.46957 0.86278 0.805 0.0
C1343 C 0.4449 0.84809 0.80732 0.0
C1344 C 0.47404 0.8767 0.78324 0.0
C1345 C 0.42927 0.86064 0.76607 0.0
C1346 C 0.45389 0.87572 0.76391 0.0
C1347 C 0.33536 0.81486 0.83646 0.0
C1348 C 0.40006 0.82882 0.78998 0.0
C1349 C 0.36811 0.90068 0.71273 0.0
C1350 C 0.36268 0.91723 0.73613 0.0
C1351 C 0.29171 0.83466 0.7843 0.0
C1352 C 0.21964 0.74145 0.77961 0.0
C1353 C 0.19758 0.74171 0.76364 0.0
C1354 C 0.17328 0.73398 0.77239 0.0
C1355 C 0.17168 0.72377 0.79679 0.0
C1356 C 0.21755 0.73043 0.80328 0.0
C1357 C 0.19359 0.72134 0.81164 0.0
C1358 C 0.30747 0.78334 0.72719 0.0
C1359 C 0.24375 0.75872 0.7742 0.0
H1360 H 0.44152 0.8368 0.82381 0.0
H1361 H 0.49298 0.88814 0.7811 0.0
H1362 H 0.41396 0.85951 0.75069 0.0
H1363 H 0.45744 0.88629 0.74703 0.0
H1364 H 0.19988 0.74936 0.74496 0.0
H1365 H 0.15374 0.71832 0.80505 0.0
H1366 H 0.23431 0.72987 0.81583 0.0
H1367 H 0.19208 0.71355 0.83033 0.0
Eu1368 Eu 0.58625 0.03664 0.06231 0.0
C1369 C 0.52193 0.08248 0.96867 0.0
C1370 C 0.50686 0.04185 0.93227 0.0
C1371 C 0.49266 0.08506 0.93086 0.0
C1372 C 0.5217 0.05495 0.95723 0.0
C1373 C 0.5073 0.09789 0.95575 0.0
C1374 C 0.49247 0.05709 0.91912 0.0
C1375 C 0.52359 0.13787 0.99238 0.0
N1376 N 0.53678 0.0944 0.9923 0.0
C1377 C 0.53836 0.12201 1.00381 0.0
C1378 C 0.50792 0.12574 0.96821 0.0
Eu1379 Eu 0.56701 0.07022 1.00651 0.0
N1380 N 0.53598 0.04101 0.97052 0.0
C1381 C 0.53487 1.01303 0.96029 0.0
C1382 C 0.50651 1.01366 0.92148 0.0
C1383 C 0.52015 0.99904 0.93588 0.0
H1384 H 0.55239 0.13244 0.02076 0.0
H1385 H 0.51963 0.97701 0.928 0.0
H1386 H 0.48095 0.04734 0.9 0.0
H1387 H 0.52517 0.15979 1.00162 0.0
H1388 H 0.54543 1.00096 0.97038 0.0
H1389 H 0.62935 0.13552 0.13479 0.0
H1390 H 0.49527 1.0028 0.90247 0.0
H1391 H 0.6084 0.97816 0.04785 0.0
H1392 H 0.59533 0.10147 0.10362 0.0
H1393 H 0.64828 0.96257 0.05578 0.0
H1394 H 0.48135 0.09654 0.92061 0.0
H1395 H 0.67136 0.12462 0.14309 0.0
H1396 H 0.69929 0.09033 0.13472 0.0
H1397 H 0.49686 0.13821 0.95905 0.0
H1398 H 0.70465 0.04362 0.11289 0.0
N1399 N 0.6177 0.07126 0.09333 0.0
C1400 C 0.61339 0.09608 0.10688 0.0
C1401 C 0.65641 0.10941 0.1293 0.0
C1402 C 0.66039 0.08343 0.11646 0.0
C1403 C 0.63274 0.11563 0.12466 0.0
C1404 C 0.64036 0.06443 0.09849 0.0
H1405 H 0.68592 0.99604 0.08321 0.0
N1406 N 0.6241 0.0206 0.06849 0.0
C1407 C 0.6474 0.98409 0.06402 0.0
C1408 C 0.64366 0.03842 0.08563 0.0
C1409 C 0.62497 0.99306 0.05938 0.0
C1410 C 0.66856 1.00301 0.07955 0.0
C1411 C 0.66666 0.03031 0.09119 0.0
O1412 O 0.57404 0.99658 0.07551 0.0
O1413 O 0.55505 0.03843 0.03215 0.0
O1414 O 0.54359 0.08201 0.04 0.0
O1415 O 0.56088 0.06677 0.0774 0.0
O1416 O 0.55782 0.9985 0.03667 0.0
O1417 O 0.57764 0.03639 0.10368 0.0
O1418 O 0.58632 0.1092 0.99465 0.0
O1419 O 0.59734 0.07001 0.03823 0.0
O1420 O 0.60712 0.02328 0.02639 0.0
O1421 O 0.58272 0.03258 0.99054 0.0
O1422 O 0.58886 0.10868 0.0369 0.0
O1423 O 0.5942 0.06923 0.97676 0.0
C1424 C 0.54468 1.01252 0.02453 0.0
C1425 C 0.54976 0.99534 0.11287 0.0
C1426 C 0.52121 0.99842 0.14777 0.0
C1427 C 0.54036 1.01149 0.13381 0.0
C1428 C 0.51143 0.96898 0.14089 0.0
C1429 C 0.54006 0.96581 0.10635 0.0
C1430 C 0.52094 0.95275 0.12029 0.0
C1431 C 0.54596 0.08082 0.06613 0.0
C1432 C 0.57148 1.00873 0.09994 0.0
C1433 C 0.68675 0.04935 0.10867 0.0
C1434 C 0.68367 0.0759 0.12117 0.0
C1435 C 0.60476 0.09633 0.04725 0.0
C1436 C 0.59838 0.10425 0.95031 0.0
C1437 C 0.6159 0.09569 0.93368 0.0
C1438 C 0.61831 0.104 0.90883 0.0
C1439 C 0.60236 0.12042 0.90012 0.0
C1440 C 0.58253 0.12085 0.94172 0.0
C1441 C 0.5845 0.12877 0.91657 0.0
C1442 C 0.60006 0.02069 1.00022 0.0
C1443 C 0.59808 0.09619 0.97677 0.0
H1444 H 0.54799 0.03421 0.1395 0.0
H1445 H 0.49682 0.95854 0.15179 0.0
H1446 H 0.54755 0.95275 0.09082 0.0
H1447 H 0.51368 0.92999 0.11534 0.0
H1448 H 0.62772 0.08236 0.94008 0.0
H1449 H 0.60396 0.12708 0.88087 0.0
H1450 H 0.56882 0.12779 0.95435 0.0
H1451 H 0.57236 0.14162 0.90994 0.0
Eu1452 Eu 0.34962 0.3348 0.29555 0.0
C1453 C 0.24555 0.25747 0.25709 0.0
C1454 C 0.22836 0.22808 0.28837 0.0
C1455 C 0.19968 0.24488 0.25958 0.0
C1456 C 0.24941 0.24234 0.27706 0.0
C1457 C 0.22044 0.25768 0.24731 0.0
C1458 C 0.20366 0.23042 0.28032 0.0
C1459 C 0.2377 0.28051 0.21204 0.0
N1460 N 0.266 0.26986 0.24562 0.0
C1461 C 0.2622 0.28069 0.22288 0.0
C1462 C 0.21674 0.26947 0.22459 0.0
Eu1463 Eu 0.30677 0.26597 0.26373 0.0
N1464 N 0.27336 0.23946 0.28373 0.0
C1465 C 0.27686 0.21936 0.29827 0.0
C1466 C 0.23254 0.21051 0.30628 0.0
C1467 C 0.25678 0.20555 0.31069 0.0
H1468 H 0.27761 0.28866 0.21201 0.0
H1469 H 0.25999 0.19104 0.32359 0.0
H1470 H 0.18735 0.21988 0.28901 0.0
H1471 H 0.23502 0.28866 0.19377 0.0
H1472 H 0.29562 0.2154 0.3016 0.0
H1473 H 0.41547 0.33309 0.21702 0.0
H1474 H 0.21693 0.19954 0.31564 0.0
H1475 H 0.36365 0.34302 0.36367 0.0
H1476 H 0.37441 0.32669 0.23396 0.0
H1477 H 0.40094 0.35132 0.39687 0.0
H1478 H 0.18037 0.24522 0.25255 0.0
H1479 H 0.45482 0.34449 0.24857 0.0
H1480 H 0.47535 0.35357 0.29589 0.0
H1481 H 0.19775 0.26926 0.21602 0.0
H1482 H 0.47137 0.35732 0.34442 0.0
N1483 N 0.38867 0.3343 0.27579 0.0
C1484 C 0.39067 0.33186 0.24861 0.0
C1485 C 0.43646 0.34165 0.25641 0.0
C1486 C 0.43462 0.34387 0.28409 0.0
C1487 C 0.41435 0.33534 0.23859 0.0
C1488 C 0.41017 0.3398 0.29334 0.0
H1489 H 0.44389 0.35567 0.38194 0.0
N1490 N 0.38425 0.33797 0.32909 0.0
C1491 C 0.40317 0.34806 0.37549 0.0
C1492 C 0.40789 0.34142 0.32066 0.0
C1493 C 0.38189 0.34244 0.35634 0.0
C1494 C 0.42736 0.35064 0.367 0.0
C1495 C 0.43003 0.34782 0.33942 0.0
O1496 O 0.36021 0.37438 0.32494 0.0
O1497 O 0.30991 0.31197 0.27789 0.0
O1498 O 0.31799 0.29147 0.23078 0.0
O1499 O 0.33791 0.33813 0.25155 0.0
O1500 O 0.3142 0.3406 0.31467 0.0
O1501 O 0.35393 0.37547 0.28258 0.0
O1502 O 0.29137 0.23545 0.22521 0.0
O1503 O 0.34668 0.29236 0.27243 0.0
O1504 O 0.33971 0.30711 0.3286 0.0
O1505 O 0.30438 0.27077 0.3091 0.0
O1506 O 0.34082 0.25401 0.28385 0.0
O1507 O 0.32377 0.23132 0.24947 0.0
C1508 C 0.29821 0.32345 0.29572 0.0
C1509 C 0.34228 0.41024 0.31484 0.0
C1510 C 0.30261 0.42491 0.3098 0.0
C1511 C 0.3184 0.40718 0.3005 0.0
C1512 C 0.31074 0.44573 0.3335 0.0
C1513 C 0.35038 0.43128 0.33832 0.0
C1514 C 0.33459 0.44892 0.34763 0.0
C1515 C 0.32742 0.31845 0.22963 0.0
C1516 C 0.35791 0.39003 0.3073 0.0
C1517 C 0.45424 0.35213 0.33026 0.0
C1518 C 0.45652 0.35012 0.30267 0.0
C1519 C 0.3583 0.2757 0.28118 0.0
C1520 C 0.29958 0.18901 0.22302 0.0
C1521 C 0.31509 0.174 0.23483 0.0
C1522 C 0.30911 0.14445 0.22974 0.0
C1523 C 0.28763 0.12936 0.21177 0.0
C1524 C 0.27795 0.17383 0.20525 0.0
C1525 C 0.27205 0.1441 0.19967 0.0
C1526 C 0.32061 0.28529 0.33034 0.0
C1527 C 0.3078 0.22022 0.22815 0.0
H1528 H 0.31203 0.39117 0.2822 0.0
H1529 H 0.29902 0.4602 0.34048 0.0
H1530 H 0.36874 0.43369 0.3497 0.0
H1531 H 0.3409 0.46517 0.36571 0.0
H1532 H 0.3324 0.18532 0.24787 0.0
H1533 H 0.28284 0.10641 0.20736 0.0
H1534 H 0.26586 0.18486 0.19549 0.0
H1535 H 0.25542 0.13246 0.18586 0.0
Eu1536 Eu 0.56701 0.57906 0.03835 0.0
C1537 C 0.59198 0.5019 0.94638 0.0
C1538 C 0.55102 0.48275 0.91913 0.0
C1539 C 0.58992 0.48486 0.89766 0.0
C1540 C 0.56552 0.49513 0.94453 0.0
C1541 C 0.60435 0.49628 0.92287 0.0
C1542 C 0.56334 0.47808 0.8958 0.0
C1543 C 0.6445 0.50968 0.95103 0.0
N1544 N 0.60565 0.51201 0.97115 0.0
C1545 C 0.6316 0.51474 0.97371 0.0
C1546 C 0.6309 0.50093 0.92545 0.0
Eu1547 Eu 0.58152 0.51656 1.00907 0.0
N1548 N 0.5539 0.49944 0.96746 0.0
C1549 C 0.52779 0.4912 0.96604 0.0
C1550 C 0.52447 0.475 0.9178 0.0
C1551 C 0.51285 0.47925 0.94136 0.0
H1552 H 0.64247 0.51955 0.99342 0.0
H1553 H 0.49229 0.4732 0.94055 0.0
H1554 H 0.55245 0.46871 0.87625 0.0
H1555 H 0.66484 0.51151 0.95338 0.0
H1556 H 0.51776 0.4942 0.98353 0.0
H1557 H 0.65298 0.61457 0.11107 0.0
H1558 H 0.51279 0.46553 0.89872 0.0
H1559 H 0.50646 0.58139 0.04798 0.0
H1560 H 0.62844 0.59588 0.0665 0.0
H1561 H 0.48173 0.59474 0.0855 0.0
H1562 H 0.59916 0.48046 0.87954 0.0
H1563 H 0.63081 0.62596 0.15131 0.0
H1564 H 0.58997 0.62922 0.17079 0.0
H1565 H 0.64097 0.49657 0.90794 0.0
H1566 H 0.54355 0.62384 0.16389 0.0
N1567 N 0.59232 0.5956 0.08085 0.0
C1568 C 0.61834 0.60058 0.08364 0.0
C1569 C 0.61984 0.61759 0.13167 0.0
C1570 C 0.5933 0.61357 0.12863 0.0
C1571 C 0.63241 0.61123 0.10902 0.0
C1572 C 0.57986 0.60247 0.1026 0.0
H1573 H 0.50318 0.61122 0.13225 0.0
N1574 N 0.54143 0.58953 0.07338 0.0
C1575 C 0.50193 0.59606 0.08954 0.0
C1576 C 0.55369 0.59934 0.09876 0.0
C1577 C 0.51599 0.58857 0.06837 0.0
C1578 C 0.51409 0.60527 0.11589 0.0
C1579 C 0.5403 0.60731 0.12076 0.0
O1580 O 0.54569 0.60993 0.02903 0.0
O1581 O 0.56529 0.55309 0.99449 0.0
O1582 O 0.61844 0.55027 0.01395 0.0
O1583 O 0.60452 0.59153 0.02023 0.0
O1584 O 0.53241 0.5626 1.00654 0.0
O1585 O 0.58734 0.62264 0.03786 0.0
O1586 O 0.60037 0.48155 1.00274 0.0
O1587 O 0.58716 0.54604 0.05047 0.0
O1588 O 0.5384 0.54533 0.05297 0.0
O1589 O 0.54262 0.50553 0.02375 0.0
O1590 O 0.60649 0.51521 0.04782 0.0
O1591 O 0.56327 0.47574 0.01887 0.0
C1592 C 0.54216 0.55377 0.98492 0.0
C1593 C 0.56589 0.65838 0.02723 0.0
C1594 C 0.57658 0.69598 1.00171 0.0
C1595 C 0.5787 0.66947 1.00681 0.0
C1596 C 0.56202 0.71149 0.01744 0.0
C1597 C 0.55105 0.67385 0.0425 0.0
C1598 C 0.54932 0.70043 0.03774 0.0
C1599 C 0.62242 0.5777 0.01483 0.0
C1600 C 0.56631 0.6298 0.03121 0.0
C1601 C 0.55353 0.61769 0.14676 0.0
C1602 C 0.57996 0.62078 0.15068 0.0
C1603 C 0.60123 0.5346 0.06571 0.0
C1604 C 0.58381 0.43595 0.0144 0.0
C1605 C 0.56866 0.42162 0.0315 0.0
C1606 C 0.57419 0.39732 0.03932 0.0
C1607 C 0.59476 0.38726 0.0287 0.0
C1608 C 0.6034 0.42475 1.00334 0.0
C1609 C 0.6087 0.40045 1.01039 0.0
C1610 C 0.53037 0.51825 0.04185 0.0
C1611 C 0.58271 0.4651 0.01266 0.0
H1612 H 0.58975 0.65729 0.99456 0.0
H1613 H 0.56022 0.73199 0.01375 0.0
H1614 H 0.54077 0.6653 0.05801 0.0
H1615 H 0.5379 0.71236 0.04961 0.0
H1616 H 0.55331 0.43022 0.03949 0.0
H1617 H 0.60073 0.36958 0.03487 0.0
H1618 H 0.61544 0.43552 0.99027 0.0
H1619 H 0.62436 0.39241 1.00244 0.0
Eu1620 Eu 0.85144 0.31465 0.27501 0.0
C1621 C 0.78464 0.23312 0.33095 0.0
C1622 C 0.79314 0.18867 0.30928 0.0
C1623 C 0.78161 0.19423 0.35519 0.0
C1624 C 0.79164 0.21683 0.30875 0.0
C1625 C 0.77889 0.2217 0.35413 0.0
C1626 C 0.78874 0.17776 0.33281 0.0
C1627 C 0.76618 0.26452 0.37273 0.0
N1628 N 0.78241 0.25973 0.32951 0.0
C1629 C 0.77226 0.27503 0.34942 0.0
C1630 C 0.76997 0.23796 0.37531 0.0
Eu1631 Eu 0.79475 0.27674 0.2902 0.0
N1632 N 0.79599 0.22803 0.28632 0.0
C1633 C 0.80019 0.21128 0.26314 0.0
C1634 C 0.7986 0.17206 0.28599 0.0
C1635 C 0.80176 0.18332 0.26272 0.0
H1636 H 0.76984 0.29586 0.34773 0.0
H1637 H 0.80569 0.17056 0.24446 0.0
H1638 H 0.79022 0.15637 0.33368 0.0
H1639 H 0.75887 0.27704 0.3888 0.0
H1640 H 0.80325 0.21922 0.24487 0.0
H1641 H 0.83962 0.41919 0.32397 0.0
H1642 H 0.79999 0.15042 0.28564 0.0
H1643 H 0.87952 0.30034 0.21871 0.0
H1644 H 0.84307 0.37043 0.32166 0.0
H1645 H 0.88915 0.32022 0.17793 0.0
H1646 H 0.77767 0.18528 0.37298 0.0
H1647 H 0.84308 0.44049 0.28326 0.0
H1648 H 0.85206 0.43632 0.23495 0.0
H1649 H 0.76538 0.22994 0.39345 0.0
H1650 H 0.8653 0.40923 0.19495 0.0
N1651 N 0.84847 0.36293 0.27974 0.0
C1652 C 0.8452 0.37908 0.30368 0.0
C1653 C 0.84474 0.41883 0.28207 0.0
C1654 C 0.84965 0.40296 0.25805 0.0
C1655 C 0.84294 0.40696 0.3051 0.0
C1656 C 0.85161 0.37477 0.25755 0.0
H1657 H 0.87951 0.36612 0.17363 0.0
N1658 N 0.86268 0.33341 0.23612 0.0
C1659 C 0.88037 0.33137 0.19368 0.0
C1660 C 0.8589 0.3595 0.23501 0.0
C1661 C 0.87475 0.32009 0.21667 0.0
C1662 C 0.87485 0.35722 0.1913 0.0
C1663 C 0.86465 0.37202 0.21243 0.0
O1664 O 0.8905 0.31084 0.27088 0.0
O1665 O 0.83724 0.27284 0.28997 0.0
O1666 O 0.81817 0.2885 0.33061 0.0
O1667 O 0.84795 0.32416 0.31941 0.0
O1668 O 0.86042 0.27095 0.25977 0.0
O1669 O 0.88317 0.34081 0.30427 0.0
O1670 O 0.7568 0.28433 0.29415 0.0
O1671 O 0.80883 0.31838 0.27448 0.0
O1672 O 0.83037 0.29594 0.23386 0.0
O1673 O 0.79719 0.26417 0.24597 0.0
O1674 O 0.78812 0.32151 0.30668 0.0
O1675 O 0.76178 0.25042 0.26281 0.0
C1676 C 0.84966 0.25581 0.27614 0.0
C1677 C 0.92472 0.34934 0.29045 0.0
C1678 C 0.96978 0.36642 0.30671 0.0
C1679 C 0.94565 0.34987 0.30863 0.0
C1680 C 0.973 0.38258 0.28644 0.0
C1681 C 0.92795 0.36568 0.27031 0.0
C1682 C 0.95207 0.38226 0.26836 0.0
C1683 C 0.83716 0.3108 0.33744 0.0
C1684 C 0.90033 0.33013 0.29219 0.0
C1685 C 0.86124 0.3994 0.21222 0.0
C1686 C 0.85373 0.41484 0.235 0.0
C1687 C 0.7973 0.33591 0.28901 0.0
C1688 C 0.72 0.24877 0.27561 0.0
C1689 C 0.69976 0.25775 0.26385 0.0
C1690 C 0.67452 0.2438 0.26504 0.0
C1691 C 0.66952 0.2207 0.27818 0.0
C1692 C 0.715 0.22588 0.28897 0.0
C1693 C 0.68973 0.21188 0.29019 0.0
C1694 C 0.81062 0.27424 0.22781 0.0
C1695 C 0.74592 0.26431 0.27374 0.0
H1696 H 0.9433 0.33689 0.32394 0.0
H1697 H 0.99168 0.39508 0.28443 0.0
H1698 H 0.91204 0.36538 0.25599 0.0
H1699 H 0.95461 0.3946 0.25262 0.0
H1700 H 0.70364 0.27554 0.25359 0.0
H1701 H 0.65006 0.20959 0.27912 0.0
H1702 H 0.7305 0.21891 0.29834 0.0
H1703 H 0.6858 0.19414 0.30041 0.0
Eu1704 Eu 0.08272 0.53712 0.56088 0.0
C1705 C 0.01843 0.5666 0.46014 0.0
C1706 C 1.00226 0.52176 0.42906 0.0
C1707 C 0.98708 0.56296 0.42188 0.0
C1708 C 0.01873 0.53851 0.45185 0.0
C1709 C 1.0023 0.57906 0.44545 0.0
C1710 C 0.98712 0.53436 0.41363 0.0
C1711 C 0.0179 0.62274 0.47789 0.0
N1712 N 0.0336 0.58161 0.48283 0.0
C1713 C 0.034 0.60969 0.49132 0.0
C1714 C 1.00202 0.60739 0.45477 0.0
Eu1715 Eu 0.06662 0.56114 0.49812 0.0
N1716 N 0.03344 0.52704 0.46744 0.0
C1717 C 0.02893 0.49818 0.46391 0.0
C1718 C 1.0 0.49252 0.42374 0.0
C1719 C 0.01265 0.48058 0.44189 0.0
H1720 H 0.04745 0.62264 0.50796 0.0
H1721 H 1.00975 0.4578 0.43908 0.0
H1722 H 0.97456 0.5219 0.39598 0.0
H1723 H 0.01833 0.64489 0.48494 0.0
H1724 H 0.03731 0.48832 0.47829 0.0
H1725 H 0.1397 0.64399 0.60528 0.0
H1726 H 0.98729 0.47887 0.40674 0.0
H1727 H 0.09962 0.47484 0.55585 0.0
H1728 H 0.10312 0.60871 0.57926 0.0
H1729 H 0.13583 0.45629 0.57092 0.0
H1730 H 0.97482 0.57228 0.4102 0.0
H1731 H 0.17667 0.62886 0.62417 0.0
H1732 H 0.19789 0.58949 0.62943 0.0
H1733 H 0.98986 0.61769 0.44411 0.0
H1734 H 0.19713 0.53866 0.61952 0.0
N1735 N 0.11825 0.57317 0.58399 0.0
C1736 C 0.11861 0.60141 0.58786 0.0
C1737 C 0.16038 0.61308 0.61306 0.0
C1738 C 0.16017 0.58425 0.60873 0.0
C1739 C 0.13956 0.62169 0.60243 0.0
C1740 C 0.13854 0.56454 0.59397 0.0
H1741 H 0.17435 0.48903 0.59737 0.0
N1742 N 0.11792 0.51802 0.57225 0.0
C1743 C 0.13693 0.47883 0.57562 0.0
C1744 C 0.13832 0.53606 0.58797 0.0
C1745 C 0.11656 0.4895 0.56688 0.0
C1746 C 0.15856 0.49734 0.59067 0.0
C1747 C 0.15943 0.52632 0.59716 0.0
O1748 O 0.06756 0.50166 0.57945 0.0
O1749 O 0.05207 0.54045 0.53085 0.0
O1750 O 0.05078 0.58576 0.53323 0.0
O1751 O 0.0638 0.57367 0.57389 0.0
O1752 O 0.04947 0.50109 0.54002 0.0
O1753 O 0.07023 0.54481 0.60186 0.0
O1754 O 0.08693 0.60514 0.49802 0.0
O1755 O 0.09579 0.56654 0.53344 0.0
O1756 O 0.09579 0.50934 0.5259 0.0
O1757 O 0.07787 0.51917 0.48568 0.0
O1758 O 0.10776 0.56068 0.49475 0.0
O1759 O 0.07621 0.57294 0.46028 0.0
C1760 C 0.03811 0.51602 0.52714 0.0
C1761 C 0.0539 0.50486 0.62375 0.0
C1762 C 0.02386 0.50125 0.65721 0.0
C1763 C 0.03655 0.51617 0.63899 0.0
C1764 C 0.02935 0.47555 0.66091 0.0
C1765 C 0.0594 0.47921 0.62773 0.0
C1766 C 0.0473 0.46477 0.64642 0.0
C1767 C 0.05244 0.58897 0.56006 0.0
C1768 C 0.0637 0.51761 0.60136 0.0
C1769 C 0.18075 0.54575 0.61235 0.0
C1770 C 0.18115 0.57467 0.61806 0.0
C1771 C 0.11473 0.56517 0.52034 0.0
C1772 C 0.10225 0.61767 0.45652 0.0
C1773 C 0.11766 0.60687 0.43808 0.0
C1774 C 0.13151 0.62445 0.42249 0.0
C1775 C 0.12956 0.65274 0.42527 0.0
C1776 C 0.10054 0.64593 0.45911 0.0
C1777 C 0.11409 0.66336 0.44347 0.0
C1778 C 0.08973 0.50394 0.49925 0.0
C1779 C 0.08617 0.59942 0.47163 0.0
H1780 H 0.03191 0.53571 0.63567 0.0
H1781 H 0.01984 0.46392 0.6751 0.0
H1782 H 0.07269 0.47008 0.61602 0.0
H1783 H 0.05149 0.44496 0.64933 0.0
H1784 H 0.11903 0.585 0.43603 0.0
H1785 H 0.13986 0.66656 0.4132 0.0
H1786 H 0.08832 0.65436 0.4729 0.0
H1787 H 0.1125 0.68509 0.44535 0.0
Eu1788 Eu 0.7955 0.80291 0.28081 0.0
C1789 C 0.87698 0.76095 0.331 0.0
C1790 C 0.89538 0.80022 0.3681 0.0
C1791 C 0.89225 0.75209 0.37448 0.0
C1792 C 0.88356 0.78983 0.34122 0.0
C1793 C 0.88229 0.74189 0.34727 0.0
C1794 C 0.89875 0.78122 0.38489 0.0
C1795 C 0.87158 0.70458 0.30762 0.0
N1796 N 0.86778 0.75164 0.30449 0.0
C1797 C 0.86688 0.72425 0.29232 0.0
C1798 C 0.8787 0.71329 0.33538 0.0
Eu1799 Eu 0.85683 0.78594 0.28075 0.0
N1800 N 0.88036 0.80778 0.32439 0.0
C1801 C 0.89104 0.83626 0.33278 0.0
C1802 C 0.90449 0.8294 0.37708 0.0
C1803 C 0.90289 0.8474 0.3591 0.0
H1804 H 0.86167 0.71718 0.27076 0.0
H1805 H 0.91055 0.87 0.36557 0.0
H1806 H 0.90738 0.78889 0.40563 0.0
H1807 H 0.86979 0.68272 0.29796 0.0
H1808 H 0.89034 0.85122 0.32002 0.0
H1809 H 0.7466 0.725 0.19159 0.0
H1810 H 0.9136 0.83815 0.39751 0.0
H1811 H 0.79118 0.87106 0.29773 0.0
H1812 H 0.76778 0.74144 0.23813 0.0
H1813 H 0.78027 0.90822 0.27517 0.0
H1814 H 0.89603 0.73772 0.38732 0.0
H1815 H 0.74051 0.75979 0.16349 0.0
H1816 H 0.7435 0.81056 0.1603 0.0
H1817 H 0.88256 0.69805 0.34719 0.0
H1818 H 0.75268 0.86061 0.18314 0.0
N1819 N 0.77424 0.78523 0.23649 0.0
C1820 C 0.76519 0.75692 0.22627 0.0
C1821 C 0.74982 0.76717 0.18399 0.0
C1822 C 0.75752 0.79614 0.19525 0.0
C1823 C 0.75311 0.74747 0.19982 0.0
C1824 C 0.76956 0.80464 0.22206 0.0
H1825 H 0.76583 0.89709 0.2261 0.0
N1826 N 0.7844 0.83984 0.26144 0.0
C1827 C 0.77889 0.88718 0.26355 0.0
C1828 C 0.77481 0.83281 0.23492 0.0
C1829 C 0.78507 0.86616 0.27623 0.0
C1830 C 0.77083 0.88084 0.23584 0.0
C1831 C 0.76807 0.85322 0.2213 0.0
O1832 O 0.77605 0.80627 0.31795 0.0
O1833 O 0.82806 0.79775 0.30836 0.0
O1834 O 0.8267 0.74251 0.27757 0.0
O1835 O 0.78823 0.7549 0.28438 0.0
O1836 O 0.81559 0.8353 0.31708 0.0
O1837 O 0.7538 0.78975 0.27985 0.0
O1838 O 0.87439 0.76022 0.25071 0.0
O1839 O 0.8193 0.77928 0.25487 0.0
O1840 O 0.82496 0.84478 0.27398 0.0
O1841 O 0.86416 0.83402 0.28139 0.0
O1842 O 0.85152 0.79881 0.24024 0.0
O1843 O 0.89568 0.80179 0.27169 0.0
C1844 C 0.8306 0.82081 0.32566 0.0
C1845 C 0.73299 0.81066 0.3153 0.0
C1846 C 0.69744 0.81417 0.34271 0.0
C1847 C 0.71659 0.80024 0.3339 0.0
C1848 C 0.69506 0.83847 0.33288 0.0
C1849 C 0.72955 0.83457 0.30543 0.0
C1850 C 0.71091 0.84848 0.31433 0.0
C1851 C 0.80198 0.73528 0.28153 0.0
C1852 C 0.75316 0.7963 0.30576 0.0
C1853 C 0.75767 0.84516 0.19403 0.0
C1854 C 0.75243 0.81666 0.18102 0.0
C1855 C 0.82767 0.78762 0.23399 0.0
C1856 C 0.91987 0.77175 0.24914 0.0
C1857 C 0.93409 0.78016 0.22819 0.0
C1858 C 0.95855 0.77476 0.22567 0.0
C1859 C 0.96816 0.76026 0.24409 0.0
C1860 C 0.92999 0.75737 0.26714 0.0
C1861 C 0.95393 0.75152 0.26446 0.0
C1862 C 0.85068 0.85274 0.27713 0.0
C1863 C 0.8954 0.77988 0.25287 0.0
H1864 H 0.71866 0.78148 0.34136 0.0
H1865 H 0.68056 0.8495 0.33929 0.0
H1866 H 0.74107 0.84234 0.29057 0.0
H1867 H 0.70858 0.86699 0.30662 0.0
H1868 H 0.92646 0.79161 0.21441 0.0
H1869 H 0.98671 0.7555 0.24262 0.0
H1870 H 0.91954 0.75102 0.28344 0.0
H1871 H 0.96165 0.74039 0.27844 0.0
Eu1872 Eu 0.84736 0.28892 0.74456 0.0
C1873 C 0.80714 0.3605 0.84243 0.0
C1874 C 0.84288 0.37405 0.8774 0.0
C1875 C 0.80444 0.39074 0.88528 0.0
C1876 C 0.83122 0.35891 0.85166 0.0
C1877 C 0.79357 0.37687 0.85896 0.0
C1878 C 0.82901 0.38916 0.89457 0.0
C1879 C 0.75926 0.36375 0.82273 0.0
N1880 N 0.79677 0.34529 0.81754 0.0
C1881 C 0.77278 0.34635 0.80786 0.0
C1882 C 0.76954 0.37879 0.84857 0.0
Eu1883 Eu 0.81465 0.30588 0.8028 0.0
N1884 N 0.84341 0.34293 0.83503 0.0
C1885 C 0.86915 0.3461 0.84059 0.0
C1886 C 0.86856 0.37492 0.8844 0.0
C1887 C 0.88203 0.36197 0.86537 0.0
H1888 H 0.76277 0.33194 0.78995 0.0
H1889 H 0.90219 0.36366 0.87001 0.0
H1890 H 0.83753 0.40068 0.91457 0.0
H1891 H 0.74026 0.36421 0.81486 0.0
H1892 H 0.87992 0.33603 0.82638 0.0
H1893 H 0.76055 0.21702 0.68462 0.0
H1894 H 0.87844 0.38677 0.90377 0.0
H1895 H 0.90457 0.27445 0.75816 0.0
H1896 H 0.78386 0.25789 0.71773 0.0
H1897 H 0.92666 0.2366 0.74504 0.0
H1898 H 0.79419 0.40311 0.8984 0.0
H1899 H 0.78205 0.18011 0.66526 0.0
H1900 H 0.82091 0.16088 0.66504 0.0
H1901 H 0.75862 0.39141 0.86047 0.0
H1902 H 0.86523 0.16512 0.68294 0.0
N1903 N 0.82022 0.24739 0.71577 0.0
C1904 C 0.79456 0.24356 0.70856 0.0
C1905 C 0.79293 0.19883 0.6793 0.0
C1906 C 0.81863 0.20165 0.68785 0.0
C1907 C 0.78076 0.21963 0.6901 0.0
C1908 C 0.83197 0.22637 0.70645 0.0
H1909 H 0.90431 0.19263 0.71322 0.0
N1910 N 0.86867 0.2513 0.73642 0.0
C1911 C 0.90686 0.23371 0.73738 0.0
C1912 C 0.85674 0.22828 0.71725 0.0
C1913 C 0.89397 0.25494 0.74517 0.0
C1914 C 0.89425 0.20906 0.71932 0.0
C1915 C 0.86906 0.20624 0.70869 0.0
O1916 O 0.88606 0.31166 0.74073 0.0
O1917 O 0.84662 0.32227 0.78076 0.0
O1918 O 0.79264 0.31503 0.76427 0.0
O1919 O 0.81282 0.30181 0.72602 0.0
O1920 O 0.84786 0.33475 0.74351 0.0
O1921 O 0.86009 0.28915 0.7048 0.0
O1922 O 0.77424 0.28598 0.80333 0.0
O1923 O 0.81489 0.27327 0.76625 0.0
O1924 O 0.8689 0.28034 0.78321 0.0
O1925 O 0.84809 0.29082 0.82151 0.0
O1926 O 0.81327 0.25989 0.80282 0.0
O1927 O 0.80012 0.2999 0.84067 0.0
C1928 C 0.84731 0.34295 0.76907 0.0
C1929 C 0.89269 0.32808 0.69999 0.0
C1930 C 0.88666 0.3581 0.66808 0.0
C1931 C 0.87654 0.33725 0.68242 0.0
C1932 C 0.91306 0.36994 0.67144 0.0
C1933 C 0.91906 0.33982 0.70305 0.0
C1934 C 0.92918 0.36073 0.68883 0.0
C1935 C 0.79388 0.31122 0.73737 0.0
C1936 C 0.8826 0.30542 0.7143 0.0
C1937 C 0.85605 0.18219 0.68965 0.0
C1938 C 0.8309 0.17987 0.6793 0.0
C1939 C 0.81331 0.25193 0.77714 0.0
C1940 C 0.7633 0.26387 0.84066 0.0
C1941 C 0.77605 0.25216 0.85931 0.0
C1942 C 0.76212 0.23352 0.87375 0.0
C1943 C 0.73537 0.22584 0.86887 0.0
C1944 C 0.73661 0.25569 0.83564 0.0
C1945 C 0.72273 0.23659 0.84959 0.0
C1946 C 0.86714 0.28219 0.80981 0.0
C1947 C 0.77698 0.28761 0.82952 0.0
H1948 H 0.85613 0.32826 0.67983 0.0
H1949 H 0.9212 0.38593 0.66026 0.0
H1950 H 0.93182 0.33264 0.71627 0.0
H1951 H 0.94955 0.36964 0.69113 0.0
H1952 H 0.79666 0.25848 0.86361 0.0
H1953 H 0.7243 0.21146 0.87992 0.0
H1954 H 0.72646 0.26483 0.82161 0.0
H1955 H 0.70212 0.23063 0.84594 0.0
Eu1956 Eu 0.84597 0.82575 0.79064 0.0
C1957 C 0.74379 0.76691 0.74571 0.0
C1958 C 0.72082 0.76124 0.7847 0.0
C1959 C 0.69934 0.77019 0.74459 0.0
C1960 C 0.74342 0.76208 0.77189 0.0
C1961 C 0.72129 0.76971 0.73144 0.0
C1962 C 0.69916 0.76616 0.77123 0.0
C1963 C 0.74195 0.76609 0.69072 0.0
N1964 N 0.76513 0.76591 0.73321 0.0
C1965 C 0.76359 0.76314 0.70558 0.0
C1966 C 0.72089 0.77012 0.70384 0.0
Eu1967 Eu 0.80113 0.75931 0.7596 0.0
N1968 N 0.76446 0.75657 0.78427 0.0
C1969 C 0.76301 0.74784 0.80857 0.0
C1970 C 0.72023 0.75444 0.81034 0.0
C1971 C 0.74128 0.74727 0.82211 0.0
H1972 H 0.77887 0.75807 0.69452 0.0
H1973 H 0.74071 0.74097 0.84156 0.0
H1974 H 0.68182 0.76576 0.78088 0.0
H1975 H 0.74135 0.76454 0.66903 0.0
H1976 H 0.77811 0.7407 0.81797 0.0
H1977 H 0.90546 0.83351 0.70622 0.0
H1978 H 0.70333 0.75372 0.82081 0.0
H1979 H 0.86649 0.82415 0.85655 0.0
H1980 H 0.86679 0.81714 0.72596 0.0
H1981 H 0.90612 0.83588 0.88591 0.0
H1982 H 0.68206 0.77256 0.73398 0.0
H1983 H 0.94606 0.85441 0.73543 0.0
H1984 H 0.96995 0.86609 0.78147 0.0
H1985 H 0.70391 0.77186 0.69218 0.0
H1986 H 0.97036 0.86455 0.82977 0.0
N1987 N 0.88343 0.83068 0.7671 0.0
C1988 C 0.88347 0.82746 0.73958 0.0
C1989 C 0.9287 0.84779 0.74449 0.0
C1990 C 0.92913 0.84921 0.77235 0.0
C1991 C 0.90585 0.83613 0.72798 0.0
C1992 C 0.906 0.83989 0.78318 0.0
H1993 H 0.94704 0.85211 0.86832 0.0
N1994 N 0.88385 0.82856 0.81994 0.0
C1995 C 0.90655 0.83612 0.86456 0.0
C1996 C 0.90627 0.8384 0.81026 0.0
C1997 C 0.88388 0.82838 0.84717 0.0
C1998 C 0.92955 0.84552 0.85463 0.0
C1999 C 0.92965 0.84707 0.82734 0.0
O2000 O 0.84509 0.85353 0.8289 0.0
O2001 O 0.80665 0.7991 0.79007 0.0
O2002 O 0.8108 0.78794 0.72794 0.0
O2003 O 0.83364 0.83356 0.74863 0.0
O2004 O 0.8096 0.83968 0.78307 0.0
O2005 O 0.85888 0.87171 0.79511 0.0
O2006 O 0.79937 0.72951 0.7218 0.0
O2007 O 0.84108 0.78519 0.76161 0.0
O2008 O 0.8378 0.79618 0.82209 0.0
O2009 O 0.81566 0.7509 0.79999 0.0
O2010 O 0.8372 0.7436 0.76439 0.0
O2011 O 0.78293 0.71448 0.75587 0.0
C2012 C 0.79422 0.81738 0.78729 0.0
C2013 C 0.84132 0.89963 0.82866 0.0
C2014 C 0.8087 0.92495 0.82113 0.0
C2015 C 0.8222 0.90481 0.81147 0.0
C2016 C 0.81492 0.9406 0.84773 0.0
C2017 C 0.84756 0.91546 0.85516 0.0
C2018 C 0.83447 0.93601 0.86459 0.0
C2019 C 0.82097 0.81493 0.72696 0.0
C2020 C 0.85389 0.87668 0.82021 0.0
C2021 C 0.9524 0.85752 0.81686 0.0
C2022 C 0.95214 0.85862 0.78943 0.0
C2023 C 0.85349 0.76675 0.76396 0.0
C2024 C 0.80093 0.6837 0.72598 0.0
C2025 C 0.81898 0.68012 0.74547 0.0
C2026 C 0.83411 0.66089 0.73865 0.0
C2027 C 0.82991 0.64374 0.71264 0.0
C2028 C 0.79671 0.66643 0.70012 0.0
C2029 C 0.81097 0.64624 0.69361 0.0
C2030 C 0.82772 0.76895 0.82207 0.0
C2031 C 0.78874 0.7075 0.73134 0.0
H2032 H 0.81758 0.89313 0.79081 0.0
H2033 H 0.80499 0.95676 0.85523 0.0
H2034 H 0.86237 0.91167 0.86863 0.0
H2035 H 0.83938 0.94827 0.88501 0.0
H2036 H 0.82201 0.69299 0.76566 0.0
H2037 H 0.84111 0.6283 0.70716 0.0
H2038 H 0.78282 0.66902 0.68483 0.0
H2039 H 0.80774 0.63296 0.67362 0.0
Eu2040 Eu 0.54652 0.5271 0.50652 0.0
C2041 C 0.61517 0.63535 0.57422 0.0
C2042 C 0.62651 0.663 0.53984 0.0
C2043 C 0.63012 0.68677 0.58671 0.0
C2044 C 0.61777 0.63652 0.54737 0.0
C2045 C 0.62169 0.66054 0.59422 0.0
C2046 C 0.63248 0.68801 0.55958 0.0
C2047 C 0.6134 0.63214 0.62823 0.0
N2048 N 0.60745 0.60965 0.58104 0.0
C2049 C 0.60752 0.60784 0.60787 0.0
C2050 C 0.62034 0.65865 0.62138 0.0
Eu2051 Eu 0.60112 0.56872 0.54557 0.0
N2052 N 0.61223 0.61193 0.52868 0.0
C2053 C 0.61566 0.61277 0.50214 0.0
C2054 C 0.62939 0.66369 0.5127 0.0
C2055 C 0.62392 0.63845 0.4938 0.0
H2056 H 0.60341 0.58743 0.6138 0.0
H2057 H 0.62602 0.6387 0.47268 0.0
H2058 H 0.63928 0.7084 0.5541 0.0
H2059 H 0.61305 0.63033 0.64925 0.0
H2060 H 0.61107 0.59401 0.48664 0.0
H2061 H 0.5213 0.45889 0.58099 0.0
H2062 H 0.63596 0.68356 0.50617 0.0
H2063 H 0.54447 0.50722 0.43854 0.0
H2064 H 0.53887 0.50259 0.5665 0.0
H2065 H 0.53204 0.46409 0.40341 0.0
H2066 H 0.63525 0.70622 0.60181 0.0
H2067 H 0.50682 0.41412 0.54761 0.0
H2068 H 0.50044 0.38881 0.49959 0.0
H2069 H 0.62529 0.67747 0.63725 0.0
H2070 H 0.50404 0.39004 0.45164 0.0
N2071 N 0.53447 0.48439 0.52418 0.0
C2072 C 0.53225 0.48397 0.55103 0.0
C2073 C 0.51451 0.4336 0.54083 0.0
C2074 C 0.51657 0.43379 0.51348 0.0
C2075 C 0.52254 0.45879 0.55968 0.0
C2076 C 0.52682 0.45977 0.50562 0.0
H2077 H 0.5162 0.41769 0.41584 0.0
N2078 N 0.53876 0.48559 0.47157 0.0
C2079 C 0.53149 0.46262 0.4245 0.0
C2080 C 0.52921 0.46037 0.47864 0.0
C2081 C 0.53904 0.48702 0.44469 0.0
C2082 C 0.52248 0.43653 0.43158 0.0
C2083 C 0.52091 0.43516 0.45882 0.0
O2084 O 0.51887 0.5292 0.47447 0.0
O2085 O 0.56447 0.57365 0.52447 0.0
O2086 O 0.56985 0.56906 0.57669 0.0
O2087 O 0.53349 0.54215 0.54995 0.0
O2088 O 0.55363 0.5627 0.48315 0.0
O2089 O 0.50598 0.5236 0.51373 0.0
O2090 O 0.63001 0.56883 0.57767 0.0
O2091 O 0.58317 0.52225 0.52777 0.0
O2092 O 0.57783 0.52555 0.47538 0.0
O2093 O 0.61393 0.55336 0.50196 0.0
O2094 O 0.59509 0.53298 0.56888 0.0
O2095 O 0.64106 0.57178 0.53711 0.0
C2096 C 0.56154 0.58387 0.50299 0.0
C2097 C 0.47403 0.52369 0.47667 0.0
C2098 C 0.43097 0.5298 0.48048 0.0
C2099 C 0.45566 0.53196 0.49255 0.0
C2100 C 0.42485 0.51945 0.45249 0.0
C2101 C 0.46767 0.51355 0.44868 0.0
C2102 C 0.44316 0.51145 0.4367 0.0
C2103 C 0.54484 0.55701 0.5744 0.0
C2104 C 0.49992 0.52571 0.48887 0.0
C2105 C 0.51063 0.40947 0.4666 0.0
C2106 C 0.50851 0.40878 0.49387 0.0
C2107 C 0.58651 0.51187 0.54911 0.0
C2108 C 0.67444 0.57383 0.57291 0.0
C2109 C 0.68885 0.55676 0.55917 0.0
C2110 C 0.71247 0.55563 0.57143 0.0
C2111 C 0.7222 0.57255 0.59695 0.0
C2112 C 0.68419 0.59078 0.59842 0.0
C2113 C 0.70819 0.59036 0.61024 0.0
C2114 C 0.60278 0.53801 0.47757 0.0
C2115 C 0.64814 0.57122 0.56216 0.0
H2116 H 0.46052 0.54007 0.51412 0.0
H2117 H 0.40598 0.51802 0.44277 0.0
H2118 H 0.48162 0.50711 0.43607 0.0
H2119 H 0.43838 0.5037 0.41513 0.0
H2120 H 0.68106 0.54312 0.53976 0.0
H2121 H 0.7405 0.5718 0.6066 0.0
H2122 H 0.67308 0.60391 0.60934 0.0
H2123 H 0.71567 0.60334 0.62996 0.0
Eu2124 Eu 0.10923 0.56382 0.01621 0.0
C2125 C 0.02005 0.50645 0.07699 0.0
C2126 C 0.99515 0.46475 0.04556 0.0
C2127 C 0.99315 0.46818 0.09385 0.0
C2128 C 0.01267 0.49143 0.05061 0.0
C2129 C 1.01031 0.49484 0.09886 0.0
C2130 C 0.98556 0.45321 0.06729 0.0
C2131 C 0.03451 0.53707 0.1293 0.0
N2132 N 0.03629 0.53253 0.08131 0.0
C2133 C 0.04346 0.54793 0.10712 0.0
C2134 C 0.01783 0.51046 0.12518 0.0
Eu2135 Eu 0.0484 0.54939 0.04164 0.0
N2136 N 0.02184 0.50319 0.02983 0.0
C2137 C 0.01362 0.48984 1.00358 0.0
C2138 C 0.98728 0.45066 0.01874 0.0
C2139 C 0.99646 0.46334 0.99768 0.0
H2140 H 0.05629 0.56856 0.11111 0.0
H2141 H 0.99023 0.4528 0.97686 0.0
H2142 H 0.97206 0.43281 0.06375 0.0
H2143 H 0.04041 0.54934 0.14961 0.0
H2144 H 0.02011 0.49943 0.98697 0.0
H2145 H 0.16468 0.66105 0.08278 0.0
H2146 H 0.97385 0.43019 0.01408 0.0
H2147 H 0.10686 0.54354 0.94748 0.0
H2148 H 0.13774 0.61277 0.07201 0.0
H2149 H 0.12252 0.56416 0.9095 0.0
H2150 H 0.98543 0.45907 0.1104 0.0
H2151 H 0.17811 0.6861 0.04606 0.0
H2152 H 0.17935 0.68495 0.99657 0.0
H2153 H 0.01076 0.50224 0.14245 0.0
H2154 H 0.1683 0.65856 0.94974 0.0
N2155 N 0.13426 0.61064 0.02932 0.0
C2156 C 0.14287 0.62338 0.05561 0.0
C2157 C 0.16588 0.66492 0.0411 0.0
C2158 C 0.15832 0.65114 0.01415 0.0
C2159 C 0.15839 0.65083 0.06188 0.0
C2160 C 0.14234 0.62354 1.0087 0.0
H2161 H 0.14751 0.6137 0.91728 0.0
N2162 N 0.12195 0.58131 0.97724 0.0
C2163 C 0.12635 0.5769 0.92976 0.0
C2164 C 0.13611 0.60851 0.98206 0.0
C2165 C 0.11744 0.56529 0.95157 0.0
C2166 C 0.1404 0.60488 0.93423 0.0
C2167 C 0.14568 0.62097 0.96058 0.0
O2168 O 0.12704 0.53017 0.02553 0.0
O2169 O 0.07684 0.52712 0.02066 0.0
O2170 O 0.07596 0.53361 0.06772 0.0
O2171 O 0.11113 0.56659 0.06111 0.0
O2172 O 0.09184 0.52505 0.98427 0.0
O2173 O 0.15033 0.56677 0.0149 0.0
O2174 O 0.03086 0.58595 0.0445 0.0
O2175 O 0.08075 0.58626 0.03668 0.0
O2176 O 0.08184 0.5771 0.98768 0.0
O2177 O 0.04698 0.54584 0.99689 0.0
O2178 O 0.06653 0.58768 0.07361 0.0
O2179 O 1.00732 0.54449 0.03009 0.0
C2180 C 0.07606 0.51069 0.99766 0.0
C2181 C 0.16407 0.52376 1.00558 0.0
C2182 C 0.1965 0.49577 1.00465 0.0
C2183 C 0.18339 0.51439 0.01909 0.0
C2184 C 0.19013 0.48701 0.9765 0.0
C2185 C 0.15815 0.51473 0.97751 0.0
C2186 C 0.17121 0.49654 0.96308 0.0
C2187 C 0.10057 0.54599 0.07298 0.0
C2188 C 0.14976 0.54221 0.0211 0.0
C2189 C 0.16084 0.64874 0.96602 0.0
C2190 C 0.16711 0.66378 0.99269 0.0
C2191 C 0.08213 0.60214 0.06015 0.0
C2192 C 0.98725 0.57987 0.05111 0.0
C2193 C 0.96868 0.5912 0.03849 0.0
C2194 C 0.94961 0.60031 0.05316 0.0
C2195 C 0.94928 0.59775 0.08037 0.0
C2196 C 0.98634 0.57752 0.07831 0.0
C2197 C 0.96746 0.58639 0.09278 0.0
C2198 C 0.05729 0.56486 0.98327 0.0
C2199 C 1.00785 0.57131 0.03612 0.0
H2200 H 0.18799 0.52133 0.04081 0.0
H2201 H 0.20018 0.4732 0.96476 0.0
H2202 H 0.14339 0.52165 0.96679 0.0
H2203 H 0.16667 0.4898 0.94137 0.0
H2204 H 0.96905 0.59287 0.01741 0.0
H2205 H 0.93462 0.60413 0.09191 0.0
H2206 H 1.00029 0.56892 0.08837 0.0
H2207 H 0.96685 0.58435 0.11373 0.0
H2208 H 0.04366 0.21235 1.00636 0.0
H2209 H 0.03399 0.18005 0.9202 0.0
H2210 H 0.04425 0.13623 0.92784 0.0
H2211 H 0.05547 0.10556 0.95811 0.0
H2212 H 0.06354 0.13462 0.04445 0.0
H2213 H 0.05487 0.18015 0.03765 0.0
C2214 C 0.04371 0.19577 0.98917 0.0
C2215 C 0.0377 0.20037 0.96239 0.0
C2216 C 0.04954 0.16953 0.99377 0.0
C2217 C 0.03814 0.17793 0.94091 0.0
C2218 C 0.04415 0.15251 0.9453 0.0
C2219 C 0.05545 0.12174 0.97568 0.0
C2220 C 0.0606 0.11595 1.00196 0.0
C2221 C 0.04982 0.14786 0.97153 0.0
C2222 C 0.06013 0.13784 0.024 0.0
C2223 C 0.05495 0.16411 0.02 0.0
H2224 H 0.21992 0.83027 0.14234 0.0
H2225 H 0.17075 0.83607 0.20586 0.0
H2226 H 0.20376 0.83038 0.23805 0.0
H2227 H 0.2463 0.82199 0.24888 0.0
H2228 H 0.29733 0.81915 0.18712 0.0
H2229 H 0.26457 0.82538 0.15454 0.0
C2230 C 0.21647 0.83064 0.16326 0.0
C2231 C 0.19232 0.83385 0.17115 0.0
C2232 C 0.23617 0.82776 0.18247 0.0
C2233 C 0.1888 0.83403 0.19867 0.0
C2234 C 0.20783 0.83061 0.21737 0.0
C2235 C 0.25076 0.82334 0.22864 0.0
C2236 C 0.275 0.82021 0.22127 0.0
C2237 C 0.23164 0.82734 0.20965 0.0
C2238 C 0.27924 0.82137 0.19408 0.0
C2239 C 0.26029 0.82496 0.17513 0.0
H2240 H 0.57004 0.882 0.44071 0.0
H2241 H 0.51839 0.85824 0.49825 0.0
H2242 H 0.52323 0.90888 0.51844 0.0
H2243 H 0.5412 0.96137 0.51767 0.0
H2244 H 0.58715 0.98002 0.45334 0.0
H2245 H 0.58634 0.93112 0.4394 0.0
C2246 C 0.55995 0.8876 0.45794 0.0
C2247 C 0.54401 0.86574 0.46782 0.0
C2248 C 0.56186 0.9166 0.4685 0.0
C2249 C 0.53126 0.87413 0.49027 0.0
C2250 C 0.5338 0.90334 0.50164 0.0
C2251 C 0.55041 0.95484 0.50019 0.0
C2252 C 0.5637 0.9758 0.48664 0.0
C2253 C 0.54871 0.92508 0.49053 0.0
C2254 C 0.57642 0.96574 0.46466 0.0
C2255 C 0.57602 0.93717 0.45629 0.0
H2256 H 0.5652 0.33173 0.68241 0.0
H2257 H 0.51507 0.28581 0.61083 0.0
H2258 H 0.47931 0.27824 0.63764 0.0
H2259 H 0.4623 0.28167 0.68232 0.0
H2260 H 0.51237 0.32785 0.75363 0.0
H2261 H 0.54743 0.33865 0.72625 0.0
C2262 C 0.54644 0.32024 0.6726 0.0
C2263 C 0.54321 0.30924 0.64448 0.0
C2264 C 0.52561 0.31602 0.68821 0.0
C2265 C 0.51848 0.29459 0.63233 0.0
C2266 C 0.49783 0.29017 0.64771 0.0
C2267 C 0.48073 0.29463 0.69173 0.0
C2268 C 0.48461 0.30392 0.72008 0.0
C2269 C 0.50115 0.30045 0.67577 0.0
C2270 C 0.5088 0.3204 0.73191 0.0
C2271 C 0.52897 0.32646 0.71624 0.0
H2272 H 1.00798 0.85244 0.62971 0.0
H2273 H 0.07651 0.82267 0.64119 0.0
H2274 H 0.09485 0.84633 0.60633 0.0
H2275 H 0.09128 0.87372 0.57162 0.0
H2276 H 0.02291 0.9026 0.55679 0.0
H2277 H 1.00481 0.88174 0.5941 0.0
C2278 C 0.02698 0.85153 0.62464 0.0
C2279 C 0.04118 0.83637 0.63829 0.0
C2280 C 0.03743 0.86502 0.60402 0.0
C2281 C 0.06556 0.83477 0.6313 0.0
C2282 C 0.07601 0.84816 0.61129 0.0
C2283 C 0.07239 0.87551 0.57653 0.0
C2284 C 0.05839 0.88944 0.56133 0.0
C2285 C 0.0621 0.86313 0.59743 0.0
C2286 C 0.03414 0.89206 0.56829 0.0
C2287 C 0.02374 0.87994 0.58948 0.0
H2288 H 0.55821 0.87224 0.89643 0.0
H2289 H 0.57616 0.80945 0.83471 0.0
H2290 H 0.53724 0.80745 0.80629 0.0
H2291 H 0.50146 0.82845 0.79629 0.0
H2292 H 0.48367 0.89256 0.85651 0.0
H2293 H 0.51919 0.88967 0.88816 0.0
C2294 C 0.55312 0.85769 0.87706 0.0
C2295 C 0.57005 0.84148 0.86724 0.0
C2296 C 0.53111 0.85746 0.86034 0.0
C2297 C 0.56342 0.82245 0.8423 0.0
C2298 C 0.54127 0.82138 0.82602 0.0
C2299 C 0.50544 0.84166 0.81641 0.0
C2300 C 0.49073 0.8612 0.82407 0.0
C2301 C 0.52564 0.83972 0.8343 0.0
C2302 C 0.49536 0.87785 0.85024 0.0
C2303 C 0.51544 0.87599 0.86832 0.0
H2304 H 0.49018 0.15178 0.14968 0.0
H2305 H 0.51747 0.21207 0.09962 0.0
H2306 H 0.53327 0.17723 0.07046 0.0
H2307 H 0.5433 0.13222 0.06156 0.0
H2308 H 0.52118 0.07074 0.11116 0.0
H2309 H 0.50049 0.10378 0.13924 0.0
C2310 C 0.49914 0.15685 0.13205 0.0
C2311 C 0.5012 0.18395 0.12586 0.0
C2312 C 0.5097 0.13686 0.11586 0.0
C2313 C 0.51408 0.19089 0.10386 0.0
C2314 C 0.52365 0.17115 0.08741 0.0
C2315 C 0.53314 0.12551 0.07776 0.0
C2316 C 0.53297 0.09896 0.08368 0.0
C2317 C 0.52183 0.14435 0.09341 0.0
C2318 C 0.52128 0.09121 0.10611 0.0
C2319 C 0.50944 0.11002 0.12201 0.0
H2320 H 0.1974 0.35651 0.31872 0.0
H2321 H 0.19913 0.29934 0.37428 0.0
H2322 H 0.23483 0.28462 0.35376 0.0
H2323 H 0.2688 0.29351 0.32478 0.0
H2324 H 0.26811 0.35017 0.2699 0.0
H2325 H 0.22817 0.35978 0.28515 0.0
C2326 C 0.2055 0.34081 0.32644 0.0
C2327 C 0.19598 0.32962 0.3486 0.0
C2328 C 0.22588 0.33231 0.31448 0.0
C2329 C 0.20648 0.30888 0.35782 0.0
C2330 C 0.22672 0.30025 0.34593 0.0
C2331 C 0.25911 0.30652 0.31524 0.0
C2332 C 0.27075 0.32023 0.29588 0.0
C2333 C 0.23688 0.31236 0.32477 0.0
C2334 C 0.25888 0.33857 0.28427 0.0
C2335 C 0.23638 0.34445 0.29337 0.0
H2336 H 0.96083 0.04973 0.16546 0.0
H2337 H 0.0275 0.08999 0.22209 0.0
H2338 H 0.054 0.09047 0.18486 0.0
H2339 H 0.06037 0.07954 0.13476 0.0
H2340 H 0.99411 0.03898 0.07775 0.0
H2341 H 0.96728 0.03894 0.11489 0.0
C2342 C 0.98113 0.05883 0.17009 0.0
C2343 C 0.99113 0.07003 0.19838 0.0
C2344 C 0.99726 0.05908 0.14751 0.0
C2345 C 0.01805 0.08121 0.20181 0.0
C2346 C 0.0337 0.08149 0.17995 0.0
C2347 C 0.04006 0.07068 0.12998 0.0
C2348 C 0.03028 0.05931 0.1017 0.0
C2349 C 0.02388 0.07052 0.15241 0.0
C2350 C 1.00337 0.04808 0.09805 0.0
C2351 C 0.98756 0.048 0.11988 0.0
H2352 H 0.29694 0.71329 0.49802 0.0
H2353 H 0.31126 0.64779 0.43631 0.0
H2354 H 0.30056 0.67321 0.40131 0.0
H2355 H 0.2816 0.71064 0.38824 0.0
H2356 H 0.26285 0.77283 0.45001 0.0
H2357 H 0.28056 0.75193 0.48526 0.0
C2358 C 0.29852 0.705 0.47699 0.0
C2359 C 0.30498 0.6788 0.4697 0.0
C2360 C 0.29082 0.71873 0.45705 0.0
C2361 C 0.30645 0.66803 0.44234 0.0
C2362 C 0.30006 0.68237 0.42236 0.0
C2363 C 0.2816 0.71961 0.40947 0.0
C2364 C 0.27076 0.74289 0.41677 0.0
C2365 C 0.29124 0.70711 0.42946 0.0
C2366 C 0.27074 0.75455 0.44416 0.0
C2367 C 0.28101 0.74277 0.4642 0.0
H2368 H 0.69215 0.04933 0.64845 0.0
H2369 H 0.63373 1.01479 0.69552 0.0
H2370 H 0.60068 0.01961 0.66279 0.0
H2371 H 0.58823 0.03445 0.62074 0.0
H2372 H 0.64696 0.06251 0.57138 0.0
H2373 H 0.6798 0.06056 0.60535 0.0
C2374 C 0.67219 0.0424 0.65126 0.0
C2375 C 0.66546 0.03188 0.67425 0.0
C2376 C 0.65324 0.04508 0.63242 0.0
C2377 C 0.63947 0.02288 0.67774 0.0
C2378 C 0.62048 0.02593 0.65926 0.0
C2379 C 0.60823 0.04083 0.61797 0.0
C2380 C 0.61525 0.05021 0.5945 0.0
C2381 C 0.62715 0.03748 0.63671 0.0
C2382 C 0.64117 0.05684 0.59015 0.0
C2383 C 0.66003 0.05511 0.60924 0.0
H2384 H 0.35338 0.336 0.95503 0.0
H2385 H 0.30926 0.39878 0.95148 0.0
H2386 H 0.30159 0.38467 0.90277 0.0
H2387 H 0.31155 0.35974 0.86112 0.0
H2388 H 0.34567 0.28868 0.86096 0.0
H2389 H 0.35384 0.30121 0.91082 0.0
C2390 C 0.34146 0.34595 0.94366 0.0
C2391 C 0.33252 0.36916 0.95725 0.0
C2392 C 0.33633 0.33712 0.91484 0.0
C2393 C 0.3169 0.38141 0.94185 0.0
C2394 C 0.31256 0.37346 0.9138 0.0
C2395 C 0.32077 0.3466 0.87161 0.0
C2396 C 0.33015 0.32469 0.85667 0.0
C2397 C 0.32304 0.35225 0.90005 0.0
C2398 C 0.34043 0.30726 0.87145 0.0
C2399 C 0.34447 0.31407 0.90016 0.0
H2400 H 0.96161 0.05817 0.38868 0.0
H2401 H 0.02336 0.08697 0.34327 0.0
H2402 H 0.05405 0.08509 0.38074 0.0
H2403 H 0.0651 0.07606 0.42829 0.0
H2404 H 1.00327 0.04465 0.47241 0.0
H2405 H 0.9726 0.0465 0.43494 0.0
C2406 C 0.98175 0.06417 0.38652 0.0
C2407 C 0.98901 0.07322 0.36156 0.0
C2408 C 1.00011 0.06227 0.40876 0.0
C2409 C 0.01592 0.08019 0.36099 0.0
C2410 C 0.03392 0.079 0.38297 0.0
C2411 C 0.04493 0.06905 0.42987 0.0
C2412 C 0.03759 0.05929 0.45446 0.0
C2413 C 0.02657 0.07009 0.40725 0.0
C2414 C 0.0107 0.05141 0.45467 0.0
C2415 C 0.99273 0.05278 0.43278 0.0
H2416 H 0.32989 0.7337 0.61177 0.0
H2417 H 0.29124 0.65671 0.63539 0.0
H2418 H 0.28042 0.68435 0.67595 0.0
H2419 H 0.28214 0.7297 0.70445 0.0
H2420 H 0.32349 0.80683 0.68381 0.0
H2421 H 0.33114 0.77987 0.64077 0.0
C2422 C 0.31956 0.72294 0.62606 0.0
C2423 C 0.31171 0.69318 0.62079 0.0
C2424 C 0.31316 0.73895 0.64922 0.0
C2425 C 0.29786 0.67957 0.6392 0.0
C2426 C 0.2913 0.69534 0.66216 0.0
C2427 C 0.29324 0.74071 0.69087 0.0
C2428 C 0.30418 0.76989 0.69828 0.0
C2429 C 0.2988 0.72496 0.66726 0.0
C2430 C 0.31631 0.78407 0.67922 0.0
C2431 C 0.32075 0.76866 0.65473 0.0
H2432 H 0.71298 0.07651 0.85321 0.0
H2433 H 0.65473 0.04615 0.78481 0.0
H2434 H 0.62264 0.05739 0.81301 0.0
H2435 H 0.61124 0.07916 0.85615 0.0
H2436 H 0.66822 0.10848 0.92516 0.0
H2437 H 0.70046 0.09383 0.89794 0.0
C2438 C 0.6932 0.07184 0.84468 0.0
C2439 C 0.68647 0.06078 0.81696 0.0
C2440 C 0.67454 0.07838 0.86103 0.0
C2441 C 0.66063 0.05461 0.80615 0.0
C2442 C 0.64214 0.06124 0.82218 0.0
C2443 C 0.63077 0.08246 0.86508 0.0
C2444 C 0.63762 0.09529 0.89231 0.0
C2445 C 0.64899 0.07382 0.84943 0.0
C2446 C 0.66274 0.09879 0.90406 0.0
C2447 C 0.68111 0.09044 0.88854 0.0
H2448 H 0.32424 0.328 0.10446 0.0
H2449 H 0.35694 0.41588 0.13998 0.0
H2450 H 0.35457 0.4053 0.18522 0.0
H2451 H 0.34411 0.37099 0.2156 0.0
H2452 H 0.3119 0.28292 0.18011 0.0
H2453 H 0.31315 0.29372 0.13496 0.0
C2454 C 0.33075 0.34488 0.12206 0.0
C2455 C 0.34079 0.37281 0.11835 0.0
C2456 C 0.32948 0.33862 0.14849 0.0
C2457 C 0.34913 0.39419 0.14177 0.0
C2458 C 0.34781 0.38815 0.16788 0.0
C2459 C 0.33726 0.35411 0.19805 0.0
C2460 C 0.3278 0.32609 0.20183 0.0
C2461 C 0.33816 0.36042 0.17163 0.0
C2462 C 0.31916 0.30474 0.1784 0.0
C2463 C 0.31992 0.31087 0.15228 0.0
H2464 H 0.27587 0.96083 0.03267 0.0
H2465 H 0.3002 0.01902 0.97975 0.0
H2466 H 0.26679 0.04342 0.99217 0.0
H2467 H 0.23631 0.0536 0.02459 0.0
H2468 H 0.21513 0.99789 0.08019 0.0
H2469 H 0.24148 0.96692 0.06012 0.0
C2470 C 0.2736 0.97853 0.02345 0.0
C2471 C 0.291 0.98863 1.00602 0.0
C2472 C 0.25513 0.99316 0.03151 0.0
C2473 C 0.28733 1.01106 0.99362 0.0
C2474 C 0.26833 0.02519 1.00084 0.0
C2475 C 0.23722 0.03435 0.03181 0.0
C2476 C 0.22442 0.02799 0.05394 0.0
C2477 C 0.25305 0.01732 0.02082 0.0
C2478 C 0.22532 1.00312 0.06334 0.0
C2479 C 0.2403 0.98552 0.0519 0.0
H2480 H 0.74101 0.6336 0.02197 0.0
H2481 H 0.71301 0.69748 0.98942 0.0
H2482 H 0.66891 0.67048 0.98857 0.0
H2483 H 0.63799 0.62874 0.99823 0.0
H2484 H 0.66703 0.56364 0.0279 0.0
H2485 H 0.71063 0.59055 0.02823 0.0
C2486 C 0.72531 0.64117 0.01384 0.0
C2487 C 0.73047 0.6671 1.00483 0.0
C2488 C 0.69999 0.62525 0.01304 0.0
C2489 C 0.70969 0.67732 0.9959 0.0
C2490 C 0.68443 0.66186 0.99546 0.0
C2491 C 0.65387 0.62034 1.00454 0.0
C2492 C 0.64898 0.59402 0.01304 0.0
C2493 C 0.67927 0.63579 1.00413 0.0
C2494 C 0.66997 0.58357 0.02103 0.0
C2495 C 0.69505 0.59908 0.02136 0.0
H2496 H 0.74183 0.43375 0.24506 0.0
H2497 H 0.73709 0.45689 0.33064 0.0
H2498 H 0.75775 0.41963 0.33879 0.0
H2499 H 0.77814 0.37844 0.32369 0.0
H2500 H 0.78591 0.35483 0.23917 0.0
H2501 H 0.7641 0.39174 0.22969 0.0
C2502 C 0.74456 0.43066 0.26564 0.0
C2503 C 0.73584 0.44984 0.28702 0.0
C2504 C 0.75783 0.40795 0.27086 0.0
C2505 C 0.74189 0.44385 0.31306 0.0
C2506 C 0.75429 0.42188 0.318 0.0
C2507 C 0.77543 0.38102 0.30292 0.0
C2508 C 0.78491 0.36203 0.2825 0.0
C2509 C 0.76257 0.40346 0.29737 0.0
C2510 C 0.78005 0.36776 0.25611 0.0
C2511 C 0.76704 0.3895 0.25053 0.0
H2512 H 0.92218 0.50889 0.5379 0.0
H2513 H 0.91558 0.42484 0.49201 0.0
H2514 H 0.96189 0.4344 0.49114 0.0
H2515 H 1.00435 0.46679 0.50461 0.0
H2516 H 1.00929 0.55271 0.54491 0.0
H2517 H 0.96383 0.54247 0.54713 0.0
C2518 C 0.93092 0.49306 0.52709 0.0
C2519 C 0.91577 0.46675 0.51416 0.0
C2520 C 0.95726 0.49897 0.52595 0.0
C2521 C 0.92714 0.44561 0.50147 0.0
C2522 C 0.9535 0.45101 0.501 0.0
C2523 C 0.9953 0.48343 0.51307 0.0
C2524 C 1.01018 0.51063 0.52412 0.0
C2525 C 0.96875 0.4777 0.51314 0.0
C2526 C 0.99838 0.53184 0.5357 0.0
C2527 C 0.97227 0.52591 0.53724 0.0
H2528 H 0.39546 0.09015 0.27021 0.0
H2529 H 0.38094 0.13323 0.34749 0.0
H2530 H 0.34829 0.15153 0.32485 0.0
H2531 H 0.32244 0.15263 0.28327 0.0
H2532 H 0.33476 0.10621 0.20655 0.0
H2533 H 0.36919 0.0904 0.229 0.0
C2534 C 0.38575 0.10437 0.282 0.0
C2535 C 0.39105 0.11126 0.31033 0.0
C2536 C 0.366 0.11301 0.26907 0.0
C2537 C 0.37759 0.12851 0.32559 0.0
C2538 C 0.35868 0.13844 0.3127 0.0
C2539 C 0.33255 0.13878 0.27159 0.0
C2540 C 0.3262 0.13043 0.24342 0.0
C2541 C 0.35236 0.13022 0.28454 0.0
C2542 C 0.33919 0.11248 0.22832 0.0
C2543 C 0.35906 0.10388 0.24107 0.0
H2544 H 0.38728 0.18124 0.5016 0.0
H2545 H 0.32875 0.1415 0.54559 0.0
H2546 H 0.3575 0.1155 0.56317 0.0
H2547 H 0.39845 0.10303 0.56545 0.0
H2548 H 0.45968 0.146 0.52639 0.0
H2549 H 0.43071 0.17095 0.50703 0.0
C2550 C 0.38105 0.16708 0.51524 0.0
C2551 C 0.35582 0.16312 0.52218 0.0
C2552 C 0.39807 0.15247 0.52594 0.0
C2553 C 0.34798 0.14475 0.53986 0.0
C2554 C 0.36442 0.12984 0.54991 0.0
C2555 C 0.4059 0.11825 0.55323 0.0
C2556 C 0.43158 0.12242 0.54774 0.0
C2557 C 0.38944 0.13342 0.54304 0.0
C2558 C 0.44007 0.14171 0.53085 0.0
C2559 C 0.42349 0.15633 0.51992 0.0
H2560 H 0.7645 0.59764 0.27242 0.0
H2561 H 0.69811 0.62075 0.30319 0.0
H2562 H 0.71766 0.67079 0.3049 0.0
H2563 H 0.75357 0.70975 0.29684 0.0
H2564 H 0.82009 0.68671 0.26621 0.0
H2565 H 0.80125 0.63694 0.26599 0.0
C2566 C 0.75441 0.61351 0.2802 0.0
C2567 C 0.72956 0.60423 0.28851 0.0
C2568 C 0.76604 0.64325 0.28107 0.0
C2569 C 0.71712 0.62618 0.29715 0.0
C2570 C 0.72843 0.65528 0.29805 0.0
C2571 C 0.76419 0.69405 0.2901 0.0
C2572 C 0.78899 0.70347 0.28172 0.0
C2573 C 0.75289 0.6644 0.2899 0.0
C2574 C 0.80153 0.68153 0.27321 0.0
C2575 C 0.79048 0.65244 0.27288 0.0
H2576 H 0.87078 0.47552 0.79149 0.0
H2577 H 0.94017 0.46534 0.83146 0.0
H2578 H 0.92344 0.41396 0.82289 0.0
H2579 H 0.89055 0.37191 0.80038 0.0
H2580 H 0.82007 0.38163 0.76272 0.0
H2581 H 0.83549 0.43335 0.77412 0.0
C2582 C 0.88179 0.46208 0.79915 0.0
C2583 C 0.90625 0.4742 0.81297 0.0
C2584 C 0.87185 0.43257 0.79447 0.0
C2585 C 0.92103 0.45646 0.82134 0.0
C2586 C 0.91148 0.42713 0.81645 0.0
C2587 C 0.87799 0.38536 0.79618 0.0
C2588 C 0.85379 0.37314 0.78187 0.0
C2589 C 0.88701 0.41494 0.80285 0.0
C2590 C 0.83849 0.39075 0.77445 0.0
C2591 C 0.84742 0.42024 0.78071 0.0
H2592 H 0.09435 0.88313 0.0478 0.0
H2593 H 0.12686 0.91871 0.13032 0.0
H2594 H 0.12173 0.96543 0.12402 0.0
H2595 H 0.10648 0.99655 0.09591 0.0
H2596 H 0.07934 0.96306 0.01177 0.0
H2597 H 0.08327 0.91579 0.01802 0.0
C2598 C 0.10058 0.90107 0.06449 0.0
C2599 C 0.11103 0.89658 0.08982 0.0
C2600 C 0.098 0.92853 0.0605 0.0
C2601 C 0.11896 0.92077 0.11069 0.0
C2602 C 0.11583 0.94773 0.10707 0.0
C2603 C 0.10137 0.97904 0.07872 0.0
C2604 C 0.09139 0.98389 0.05343 0.0
C2605 C 0.10511 0.95193 0.0822 0.0
C2606 C 0.08587 0.96046 0.03166 0.0
C2607 C 0.08849 0.93323 0.03526 0.0
H2608 H 0.96461 0.2478 0.86362 0.0
H2609 H 0.95014 0.30291 0.93394 0.0
H2610 H 0.91226 0.30954 0.90853 0.0
H2611 H 0.884 0.30187 0.86514 0.0
H2612 H 0.89813 0.24568 0.79535 0.0
H2613 H 0.93451 0.23737 0.82128 0.0
C2614 C 0.95316 0.26124 0.87345 0.0
C2615 C 0.96101 0.2755 0.90073 0.0
C2616 C 0.93105 0.26494 0.85853 0.0
C2617 C 0.94512 0.29199 0.91304 0.0
C2618 C 0.92333 0.29585 0.89838 0.0
C2619 C 0.89497 0.28781 0.85545 0.0
C2620 C 0.88835 0.27537 0.82745 0.0
C2621 C 0.91624 0.28286 0.87088 0.0
C2622 C 0.90293 0.25671 0.8161 0.0
C2623 C 0.92375 0.25155 0.83124 0.0
H2624 H 0.59601 0.22195 0.61761 0.0
H2625 H 0.62354 0.25571 0.54946 0.0
H2626 H 0.61677 0.20757 0.52267 0.0
H2627 H 0.60043 0.15504 0.51769 0.0
H2628 H 0.57914 0.12159 0.58819 0.0
H2629 H 0.58617 0.16975 0.61476 0.0
C2630 C 0.60043 0.21882 0.59684 0.0
C2631 C 0.60848 0.2428 0.58498 0.0
C2632 C 0.59769 0.19078 0.58191 0.0
C2633 C 0.6155 0.23795 0.55854 0.0
C2634 C 0.61205 0.21026 0.54332 0.0
C2635 C 0.59792 0.1583 0.53903 0.0
C2636 C 0.58948 0.13442 0.55089 0.0
C2637 C 0.60264 0.18639 0.55456 0.0
C2638 C 0.58599 0.13932 0.57854 0.0
C2639 C 0.58983 0.16699 0.59375 0.0
H2640 H 0.61713 0.80928 0.4272 0.0
H2641 H 0.57212 0.74864 0.35976 0.0
H2642 H 0.60965 0.74936 0.33548 0.0
H2643 H 0.65381 0.77272 0.33037 0.0
H2644 H 0.69886 0.83484 0.39659 0.0
H2645 H 0.66348 0.82767 0.42448 0.0
C2646 C 0.61583 0.79548 0.40764 0.0
C2647 C 0.59181 0.77881 0.39537 0.0
C2648 C 0.63762 0.7965 0.39337 0.0
C2649 C 0.59034 0.76157 0.36969 0.0
C2650 C 0.61182 0.76208 0.35569 0.0
C2651 C 0.65614 0.78388 0.35125 0.0
C2652 C 0.67905 0.80398 0.36154 0.0
C2653 C 0.63538 0.78023 0.36687 0.0
C2654 C 0.68156 0.81893 0.38837 0.0
C2655 C 0.66119 0.81503 0.40423 0.0
H2656 H 0.0941 0.24004 0.40052 0.0
H2657 H 0.15145 0.29008 0.4646 0.0
H2658 H 0.13764 0.25696 0.494 0.0
H2659 H 0.1051 0.21785 0.50398 0.0
H2660 H 0.04672 0.16861 0.44102 0.0
H2661 H 0.06533 0.1966 0.40865 0.0
C2662 C 0.10397 0.24325 0.42065 0.0
C2663 C 0.12355 0.26774 0.43037 0.0
C2664 C 0.09566 0.22421 0.4378 0.0
C2665 C 0.13614 0.27159 0.45659 0.0
C2666 C 0.12823 0.25265 0.47353 0.0
C2667 C 0.09711 0.21266 0.48291 0.0
C2668 C 0.07483 0.19112 0.47469 0.0
C2669 C 0.10744 0.22945 0.46471 0.0
C2670 C 0.06413 0.18493 0.44757 0.0
C2671 C 0.0746 0.20113 0.42918 0.0
H2672 H 0.58227 0.29194 0.22684 0.0
H2673 H 0.58168 0.22905 0.15538 0.0
H2674 H 0.6194 0.21767 0.17544 0.0
H2675 H 0.6505 0.22259 0.21487 0.0
H2676 H 0.65269 0.28636 0.28574 0.0
H2677 H 0.61669 0.30071 0.26438 0.0
C2678 C 0.59074 0.27616 0.21553 0.0
C2679 C 0.57912 0.26128 0.18978 0.0
C2680 C 0.61254 0.26964 0.22721 0.0
C2681 C 0.59034 0.24098 0.17519 0.0
C2682 C 0.6118 0.23423 0.18673 0.0
C2683 C 0.64301 0.23963 0.22549 0.0
C2684 C 0.65353 0.25303 0.25191 0.0
C2685 C 0.62265 0.24788 0.21298 0.0
C2686 C 0.64431 0.27549 0.26551 0.0
C2687 C 0.62387 0.2837 0.25329 0.0
H2688 H 0.6406 0.95742 0.89932 0.0
H2689 H 0.66427 0.9131 0.95934 0.0
H2690 H 0.65216 0.94634 0.99495 0.0
H2691 H 0.62711 0.98136 1.00729 0.0
H2692 H 0.60073 0.02327 0.94673 0.0
H2693 H 0.62034 0.99641 0.9128 0.0
C2694 C 0.64361 0.95528 0.92022 0.0
C2695 C 0.65224 0.93205 0.92646 0.0
C2696 C 0.63503 0.9732 0.94035 0.0
C2697 C 0.65698 0.93036 0.95382 0.0
C2698 C 0.64971 0.94909 0.97419 0.0
C2699 C 0.62584 0.98492 0.9869 0.0
C2700 C 0.61234 1.00429 0.97988 0.0
C2701 C 0.63724 0.9694 0.9674 0.0
C2702 C 0.61085 1.00839 0.95296 0.0
C2703 C 0.62228 0.99321 0.93346 0.0
H2704 H 0.93838 0.76105 0.6851 0.0
H2705 H 0.98564 0.80312 0.75979 0.0
H2706 H 0.94896 0.796 0.78482 0.0
H2707 H 0.90275 0.78083 0.7857 0.0
H2708 H 0.85414 0.74781 0.7107 0.0
H2709 H 0.8915 0.74809 0.68572 0.0
C2710 C 0.94056 0.76879 0.7068 0.0
C2711 C 0.96492 0.78202 0.72045 0.0
C2712 C 0.91896 0.76644 0.7211 0.0
C2713 C 0.96733 0.79231 0.74861 0.0
C2714 C 0.94628 0.78834 0.7631 0.0
C2715 C 0.90051 0.77394 0.76389 0.0
C2716 C 0.87608 0.76507 0.74986 0.0
C2717 C 0.92197 0.77584 0.74957 0.0
C2718 C 0.87304 0.7552 0.72172 0.0
C2719 C 0.89433 0.75549 0.70747 0.0
H2720 H 0.19287 0.04023 0.89317 0.0
H2721 H 0.12739 1.01396 0.83315 0.0
H2722 H 0.09929 1.01479 0.86948 0.0
H2723 H 0.09176 0.02333 0.92003 0.0
H2724 H 0.158 0.05129 0.97921 0.0
H2725 H 0.18556 0.04914 0.94287 0.0
C2726 C 0.17244 0.03444 0.88752 0.0
C2727 C 0.1633 0.02667 0.85877 0.0
C2728 C 0.15569 0.03526 0.90932 0.0
C2729 C 0.13619 0.01984 0.85389 0.0
C2730 C 0.1197 0.02038 0.87524 0.0
C2731 C 0.11222 0.02893 0.9254 0.0
C2732 C 0.12179 0.03748 0.95411 0.0
C2733 C 0.12892 0.02806 0.90336 0.0
C2734 C 0.1489 0.04464 0.95859 0.0
C2735 C 0.16512 0.0434 0.93725 0.0
H2736 H 0.82366 0.37954 0.56878 0.0
H2737 H 0.85147 0.46588 0.6121 0.0
H2738 H 0.86777 0.44931 0.65088 0.0
H2739 H 0.8811 0.41102 0.6687 0.0
H2740 H 0.85442 0.3248 0.6253 0.0
H2741 H 0.83064 0.34049 0.59022 0.0
C2742 C 0.83248 0.39467 0.58706 0.0
C2743 C 0.83691 0.42387 0.58739 0.0
C2744 C 0.8426 0.38504 0.60894 0.0
C2745 C 0.84815 0.44326 0.61126 0.0
C2746 C 0.85772 0.43384 0.63335 0.0
C2747 C 0.86975 0.39575 0.6517 0.0
C2748 C 0.86977 0.36703 0.64905 0.0
C2749 C 0.85628 0.40492 0.63176 0.0
C2750 C 0.85473 0.34712 0.62741 0.0
C2751 C 0.84119 0.35607 0.60743 0.0
H2752 H 0.49421 0.05337 0.36618 0.0
H2753 H 0.44783 0.09397 0.41908 0.0
H2754 H 0.48099 0.10228 0.45706 0.0
H2755 H 0.52 0.09231 0.47581 0.0
H2756 H 0.56435 0.04766 0.42401 0.0
H2757 H 0.5353 0.04722 0.38433 0.0
C2758 C 0.49155 0.06453 0.38591 0.0
C2759 C 0.46864 0.07297 0.39003 0.0
C2760 C 0.51024 0.06844 0.40758 0.0
C2761 C 0.46524 0.08707 0.41566 0.0
C2762 C 0.48416 0.09188 0.43724 0.0
C2763 C 0.52354 0.08309 0.45567 0.0
C2764 C 0.5439 0.06989 0.45244 0.0
C2765 C 0.50629 0.08187 0.43352 0.0
C2766 C 0.54879 0.05814 0.4266 0.0
C2767 C 0.53204 0.0576 0.40411 0.0
H2768 H 0.80094 0.70687 0.11674 0.0
H2769 H 0.82287 0.78763 0.09265 0.0
H2770 H 0.82871 0.81192 0.1399 0.0
H2771 H 0.82921 0.8108 0.18878 0.0
H2772 H 0.80971 0.73047 0.21367 0.0
H2773 H 0.80126 0.70582 0.16612 0.0
C2774 C 0.80699 0.72978 0.12178 0.0
C2775 C 0.81151 0.7452 0.10067 0.0
C2776 C 0.81063 0.74389 0.14946 0.0
C2777 C 0.81936 0.77496 0.10805 0.0
C2778 C 0.82266 0.78899 0.13526 0.0
C2779 C 0.82266 0.78791 0.18377 0.0
C2780 C 0.81918 0.77269 0.205 0.0
C2781 C 0.8185 0.77377 0.15621 0.0
C2782 C 0.81164 0.74291 0.19796 0.0
C2783 C 0.80706 0.72875 0.17064 0.0
H2784 H 0.12367 0.03019 0.69734 0.0
H2785 H 0.19657 0.02027 0.67304 0.0
H2786 H 0.1829 0.02463 0.62712 0.0
H2787 H 0.15013 0.03032 0.59136 0.0
H2788 H 0.07736 0.04134 0.61441 0.0
H2789 H 0.09101 0.03844 0.66114 0.0
C2790 C 0.13682 0.02881 0.68221 0.0
C2791 C 0.16181 0.02421 0.6904 0.0
C2792 C 0.12877 0.03222 0.65458 0.0
C2793 C 0.17755 0.02336 0.66901 0.0
C2794 C 0.16957 0.02601 0.64208 0.0
C2795 C 0.13715 0.03287 0.60651 0.0
C2796 C 0.11256 0.03778 0.59781 0.0
C2797 C 0.14525 0.03049 0.63423 0.0
C2798 C 0.09665 0.0394 0.61906 0.0
C2799 C 0.10451 0.03705 0.64637 0.0
H2800 H 0.82609 0.3774 0.45089 0.0
H2801 H 0.86768 0.444 0.41428 0.0
H2802 H 0.87576 0.40919 0.37807 0.0
H2803 H 0.86971 0.36112 0.35575 0.0
H2804 H 0.81868 0.2945 0.38358 0.0
H2805 H 0.81749 0.3276 0.42573 0.0
C2806 C 0.83668 0.38426 0.43484 0.0
C2807 C 0.8467 0.41331 0.43572 0.0
C2808 C 0.84017 0.3641 0.41301 0.0
C2809 C 0.86013 0.42186 0.41456 0.0
C2810 C 0.86495 0.40197 0.39384 0.0
C2811 C 0.85795 0.35365 0.37073 0.0
C2812 C 0.84283 0.32595 0.36577 0.0
C2813 C 0.855 0.37319 0.39289 0.0
C2814 C 0.82944 0.31621 0.38642 0.0
C2815 C 0.82861 0.33516 0.41033 0.0
H2816 H 0.49658 0.06653 0.25532 0.0
H2817 H 0.41988 0.03304 0.21551 0.0
H2818 H 0.43664 1.0146 0.17414 0.0
H2819 H 0.47265 1.00178 0.152 0.0
H2820 H 0.54903 0.03328 0.19261 0.0
H2821 H 0.53285 0.05856 0.23134 0.0
C2822 C 0.48352 0.0558 0.2374 0.0
C2823 C 0.45703 0.05064 0.23852 0.0
C2824 C 0.49323 0.04434 0.21417 0.0
C2825 C 0.44035 0.03697 0.21514 0.0
C2826 C 0.44991 0.02623 0.19159 0.0
C2827 C 0.48565 1.01442 0.1693 0.0
C2828 C 0.51178 0.0155 0.16991 0.0
C2829 C 0.47621 0.02867 0.19135 0.0
C2830 C 0.52875 0.0322 0.192 0.0
C2831 C 0.51953 0.04659 0.21403 0.0
H2832 H 0.82566 0.69674 0.91526 0.0
H2833 H 0.80034 0.7668 0.95951 0.0
H2834 H 0.80592 0.79107 0.92107 0.0
H2835 H 0.81628 0.79156 0.87325 0.0
H2836 H 0.84015 0.72018 0.82947 0.0
H2837 H 0.83752 0.69798 0.8691 0.0
C2838 C 0.82154 0.71747 0.91676 0.0
C2839 C 0.81261 0.72974 0.94076 0.0
C2840 C 0.82473 0.73133 0.89438 0.0
C2841 C 0.80752 0.75673 0.94179 0.0
C2842 C 0.8106 0.77063 0.91958 0.0
C2843 C 0.82128 0.77135 0.87253 0.0
C2844 C 0.82863 0.75775 0.8481 0.0
C2845 C 0.81903 0.75811 0.89556 0.0
C2846 C 0.8345 0.73127 0.8477 0.0
C2847 C 0.8329 0.71845 0.87047 0.0
H2848 H 0.87345 0.12922 0.0314 0.0
H2849 H 0.81546 0.05107 1.0078 0.0
H2850 H 0.8476 0.0247 0.99841 0.0
H2851 H 0.89095 0.02436 0.98997 0.0
H2852 H 0.94959 0.10173 1.00883 0.0
H2853 H 0.91874 0.12786 0.02736 0.0
C2854 C 0.86802 0.1064 0.02458 0.0
C2855 C 0.84211 0.09223 0.01997 0.0
C2856 C 0.88668 0.09126 0.01805 0.0
C2857 C 0.83522 0.06261 0.01128 0.0
C2858 C 0.85358 0.04741 1.00583 0.0
C2859 C 0.89695 0.04689 0.99849 0.0
C2860 C 0.92202 0.06137 0.99762 0.0
C2861 C 0.87916 0.06163 1.00807 0.0
C2862 C 0.93008 0.09036 1.00918 0.0
C2863 C 0.91248 0.10525 0.01956 0.0
H2864 H 0.41961 0.46701 0.07176 0.0
H2865 H 0.42757 0.39567 0.01293 0.0
H2866 H 0.47129 0.42031 1.00872 0.0
H2867 H 0.50595 0.46342 0.01922 0.0
H2868 H 0.49869 0.53463 0.07898 0.0
H2869 H 0.4562 0.50887 0.0854 0.0
C2870 C 0.431 0.45696 0.05803 0.0
C2871 C 0.42014 0.43001 0.04188 0.0
C2872 C 0.45623 0.47127 0.05586 0.0
C2873 C 0.43536 0.41666 0.02506 0.0
C2874 C 0.46034 0.43077 0.02266 0.0
C2875 C 0.49526 0.4734 0.03382 0.0
C2876 C 0.50555 0.50145 0.0481 0.0
C2877 C 0.47079 0.45833 0.03752 0.0
C2878 C 0.49127 0.5135 0.0672 0.0
C2879 C 0.46693 0.49862 0.07104 0.0
H2880 H 0.38997 0.65017 0.81666 0.0
H2881 H 0.4307 0.65264 0.74643 0.0
H2882 H 0.41171 0.69113 0.73643 0.0
H2883 H 0.38243 0.72567 0.74618 0.0
H2884 H 0.34479 0.72654 0.81854 0.0
H2885 H 0.36258 0.68697 0.82798 0.0
C2886 C 0.39523 0.65899 0.79913 0.0
C2887 C 0.41302 0.64671 0.7827 0.0
C2888 C 0.38394 0.68256 0.79331 0.0
C2889 C 0.41806 0.6601 0.76021 0.0
C2890 C 0.40674 0.68271 0.75426 0.0
C2891 C 0.37773 0.71748 0.76419 0.0
C2892 C 0.36041 0.73027 0.78079 0.0
C2893 C 0.38943 0.69441 0.7704 0.0
C2894 C 0.35641 0.71807 0.80415 0.0
C2895 C 0.36723 0.69499 0.80988 0.0
H2896 H 0.23293 0.59599 0.54968 0.0
H2897 H 0.22371 0.67228 0.52404 0.0
H2898 H 0.17725 0.65627 0.52176 0.0
H2899 H 0.13952 0.61836 0.52257 0.0
H2900 H 0.14954 0.53788 0.53678 0.0
H2901 H 0.19516 0.55802 0.55032 0.0
C2902 C 0.22064 0.60879 0.54314 0.0
C2903 C 0.23132 0.63447 0.53567 0.0
C2904 C 0.19414 0.59897 0.5409 0.0
C2905 C 0.21557 0.65191 0.52893 0.0
C2906 C 0.18914 0.64284 0.52774 0.0
C2907 C 0.15182 0.6055 0.52899 0.0
C2908 C 0.14133 0.57741 0.5308 0.0
C2909 C 0.17826 0.61608 0.53298 0.0
C2910 C 0.1572 0.56018 0.53745 0.0
C2911 C 0.18329 0.5715 0.54439 0.0
H2912 H 0.7254 0.97831 0.77747 0.0
H2913 H 0.78425 1.00573 0.72826 0.0
H2914 H 0.80759 0.97192 0.74112 0.0
H2915 H 0.81566 0.94373 0.77486 0.0
H2916 H 0.75872 0.92053 0.82767 0.0
H2917 H 0.72963 0.94266 0.80448 0.0
C2918 C 0.74278 0.97586 0.76876 0.0
C2919 C 0.75347 0.99432 0.75238 0.0
C2920 C 0.75652 0.95747 0.7773 0.0
C2921 C 0.77602 0.99163 0.74117 0.0
C2922 C 0.78936 0.97248 0.74864 0.0
C2923 C 0.79654 0.9428 0.78058 0.0
C2924 C 0.78926 0.93126 0.80308 0.0
C2925 C 0.78056 0.95667 0.76804 0.0
C2926 C 0.76461 0.92991 0.81059 0.0
C2927 C 0.7481 0.94255 0.79742 0.0
H2928 H 0.80149 0.97033 0.50769 0.0
H2929 H 0.76588 0.90486 0.5488 0.0
H2930 H 0.72463 0.91737 0.54052 0.0
H2931 H 0.69863 0.94664 0.5198 0.0
H2932 H 0.73669 1.01052 0.47846 0.0
H2933 H 0.77735 0.99897 0.48896 0.0
C2934 C 0.78494 0.95869 0.51527 0.0
C2935 C 0.78706 0.93666 0.5291 0.0
C2936 C 0.76169 0.96586 0.51036 0.0
C2937 C 0.76496 0.92186 0.53811 0.0
C2938 C 0.74139 0.92909 0.53339 0.0
C2939 C 0.71599 0.95818 0.51354 0.0
C2940 C 0.71488 0.97964 0.4986 0.0
C2941 C 0.7395 0.95103 0.51937 0.0
C2942 C 0.73726 0.9942 0.49017 0.0
C2943 C 0.76043 0.9875 0.49606 0.0
H2944 H 0.4374 0.47249 0.78932 0.0
H2945 H 0.3758 0.50248 0.75549 0.0
H2946 H 0.34654 0.45619 0.75348 0.0
H2947 H 0.33742 0.4052 0.76144 0.0
H2948 H 0.401 0.37597 0.79286 0.0
H2949 H 0.42892 0.42222 0.79565 0.0
C2950 C 0.41754 0.4692 0.78162 0.0
C2951 C 0.4092 0.49252 0.7737 0.0
C2952 C 0.40046 0.44169 0.78006 0.0
C2953 C 0.38321 0.48625 0.76298 0.0
C2954 C 0.36625 0.45922 0.76155 0.0
C2955 C 0.35734 0.40869 0.76893 0.0
C2956 C 0.3662 0.38551 0.77699 0.0
C2957 C 0.3744 0.43645 0.7702 0.0
C2958 C 0.3926 0.39204 0.7864 0.0
C2959 C 0.40906 0.41909 0.78806 0.0
H2960 H 0.21155 0.65247 0.25609 0.0
H2961 H 0.26468 0.60694 0.2211 0.0
H2962 H 0.29702 0.65113 0.22586 0.0
H2963 H 0.31255 0.70049 0.25099 0.0
H2964 H 0.25739 0.74862 0.27419 0.0
H2965 H 0.22355 0.70522 0.26522 0.0
C2966 C 0.23006 0.65242 0.24906 0.0
C2967 C 0.23679 0.62668 0.24045 0.0
C2968 C 0.24829 0.678 0.25097 0.0
C2969 C 0.26003 0.62667 0.22972 0.0
C2970 C 0.2784 0.65186 0.23219 0.0
C2971 C 0.29294 0.70185 0.25221 0.0
C2972 C 0.2875 0.72762 0.26313 0.0
C2973 C 0.27326 0.67737 0.24456 0.0
C2974 C 0.26208 0.72881 0.26619 0.0
C2975 C 0.24268 0.70406 0.26085 0.0
H2976 H 0.54581 0.7116 0.50351 0.0
H2977 H 0.5264 0.67532 0.41839 0.0
H2978 H 0.535 0.6308 0.42622 0.0
H2979 H 0.54812 0.60103 0.45636 0.0
H2980 H 0.56453 0.63383 0.5421 0.0
H2981 H 0.55771 0.67993 0.53487 0.0
C2982 C 0.54339 0.694 0.4866 0.0
C2983 C 0.5353 0.6977 0.46006 0.0
C2984 C 0.54818 0.66742 0.49135 0.0
C2985 C 0.53243 0.67396 0.43891 0.0
C2986 C 0.53745 0.64814 0.4434 0.0
C2987 C 0.55029 0.61813 0.47371 0.0
C2988 C 0.55756 0.61334 0.49988 0.0
C2989 C 0.54537 0.64448 0.46942 0.0
C2990 C 0.55969 0.63633 0.52168 0.0
C2991 C 0.5555 0.66291 0.51746 0.0
H2992 H 0.7099 0.31211 0.63985 0.0
H2993 H 0.67704 0.3542 0.70591 0.0
H2994 H 0.71242 0.35221 0.73765 0.0
H2995 H 0.75265 0.33731 0.74781 0.0
H2996 H 0.78564 0.2951 0.68189 0.0
H2997 H 0.75121 0.29869 0.64998 0.0
C2998 C 0.71056 0.32125 0.6611 0.0
C2999 C 0.69028 0.33353 0.66995 0.0
C3000 C 0.73132 0.31986 0.67982 0.0
C3001 C 0.69196 0.34474 0.69795 0.0
C3002 C 0.71237 0.34351 0.71639 0.0
C3003 C 0.75247 0.3287 0.7266 0.0
C3004 C 0.77236 0.3156 0.71804 0.0
C3005 C 0.73215 0.33084 0.70777 0.0
C3006 C 0.77116 0.30532 0.68984 0.0
C3007 C 0.75118 0.3073 0.67125 0.0
H3008 H 0.06677 0.38398 0.93795 0.0
H3009 H 0.02393 0.36134 1.00275 0.0
H3010 H 0.03241 0.41214 0.02438 0.0
H3011 H 0.05187 0.46461 0.02361 0.0
H3012 H 0.08822 0.48201 0.95261 0.0
H3013 H 0.08312 0.43253 0.93588 0.0
C3014 C 0.05913 0.38974 0.95689 0.0
C3015 C 0.04466 0.36816 0.9684 0.0
C3016 C 0.06311 0.41879 0.96845 0.0
C3017 C 0.03544 0.37694 0.99325 0.0
C3018 C 0.04014 0.40626 1.00555 0.0
C3019 C 0.05806 0.45767 1.00417 0.0
C3020 C 0.0701 0.4783 0.9895 0.0
C3021 C 0.05376 0.42772 0.99312 0.0
C3022 C 0.07869 0.4678 0.96478 0.0
C3023 C 0.07579 0.439 0.95485 0.0
H3024 H 0.01713 0.79313 0.12271 0.0
H3025 H 0.07864 0.83349 0.18616 0.0
H3026 H 0.04966 0.82611 0.22021 0.0
H3027 H 1.00779 0.805 0.23276 0.0
H3028 H 0.94537 0.76558 0.17063 0.0
H3029 H 0.97347 0.77601 0.13564 0.0
C3030 C 0.02415 0.80065 0.14396 0.0
C3031 C 0.05038 0.81356 0.15157 0.0
C3032 C 1.00718 0.79632 0.16388 0.0
C3033 C 0.05882 0.82321 0.17937 0.0
C3034 C 0.0422 0.81898 0.19905 0.0
C3035 C 1.00027 0.79888 0.21155 0.0
C3036 C 0.97455 0.78423 0.20438 0.0
C3037 C 0.01651 0.80501 0.19162 0.0
C3038 C 0.96505 0.77688 0.17678 0.0
C3039 C 0.9812 0.78272 0.15674 0.0
H3040 H 0.50693 0.3508 0.12805 0.0
H3041 H 0.53338 0.27653 0.09601 0.0
H3042 H 0.55609 0.30097 0.06395 0.0
H3043 H 0.56621 0.34173 0.04337 0.0
H3044 H 0.54809 0.42004 0.08022 0.0
H3045 H 0.52349 0.39547 0.11116 0.0
C3046 C 0.51802 0.34034 0.11428 0.0
C3047 C 0.5181 0.3118 0.11373 0.0
C3048 C 0.53203 0.35497 0.0964 0.0
C3049 C 0.53276 0.2984 0.09622 0.0
C3050 C 0.54571 0.31229 0.0779 0.0
C3051 C 0.55776 0.35403 0.05858 0.0
C3052 C 0.55928 0.38291 0.05896 0.0
C3053 C 0.54518 0.34041 0.07755 0.0
C3054 C 0.54692 0.39763 0.07853 0.0
C3055 C 0.53306 0.38367 0.09667 0.0
H3056 H 0.06286 0.3765 0.39333 0.0
H3057 H 0.07249 0.30584 0.3346 0.0
H3058 H 0.03332 0.3058 0.3075 0.0
H3059 H 0.99845 0.32849 0.29842 0.0
H3060 H 0.98962 0.40092 0.35513 0.0
H3061 H 0.02649 0.39819 0.38502 0.0
C3062 C 0.05609 0.36098 0.37478 0.0
C3063 C 0.07053 0.34152 0.36556 0.0
C3064 C 0.03394 0.36171 0.35883 0.0
C3065 C 0.06165 0.32122 0.34172 0.0
C3066 C 0.03933 0.3212 0.32624 0.0
C3067 C 1.00465 0.34352 0.31741 0.0
C3068 C 0.99182 0.36501 0.32468 0.0
C3069 C 0.02574 0.34182 0.3342 0.0
C3070 C 0.99963 0.38442 0.34924 0.0
C3071 C 0.02052 0.38272 0.36631 0.0
H3072 H 0.99217 0.68082 0.60239 0.0
H3073 H 0.02946 0.67539 0.67895 0.0
H3074 H 0.04605 0.6362 0.65679 0.0
H3075 H 0.05522 0.60821 0.61471 0.0
H3076 H 0.01541 0.61137 0.53878 0.0
H3077 H 0.99502 0.64673 0.56151 0.0
C3078 C 1.00329 0.67054 0.61436 0.0
C3079 C 1.00989 0.68145 0.6422 0.0
C3080 C 0.01316 0.64817 0.60144 0.0
C3081 C 0.02415 0.66762 0.65743 0.0
C3082 C 0.03395 0.64534 0.64472 0.0
C3083 C 0.04199 0.6165 0.60314 0.0
C3084 C 0.03818 0.60836 0.57476 0.0
C3085 C 0.02952 0.63629 0.61656 0.0
C3086 C 0.02021 0.61863 0.56032 0.0
C3087 C 1.00805 0.63852 0.57342 0.0
H3088 H 0.71427 0.83188 0.87072 0.0
H3089 H 0.68283 0.86518 0.80574 0.0
H3090 H 0.71646 0.85601 0.77909 0.0
H3091 H 0.75493 0.83859 0.77339 0.0
H3092 H 0.78818 0.80681 0.83779 0.0
H3093 H 0.75412 0.81547 0.86536 0.0
C3094 C 0.71488 0.83722 0.85082 0.0
C3095 C 0.69596 0.84927 0.84054 0.0
C3096 C 0.73461 0.83209 0.83527 0.0
C3097 C 0.69712 0.85607 0.81456 0.0
C3098 C 0.71636 0.85077 0.79905 0.0
C3099 C 0.75448 0.83343 0.79339 0.0
C3100 C 0.77325 0.82126 0.8033 0.0
C3101 C 0.73514 0.83876 0.80912 0.0
C3102 C 0.7732 0.81532 0.8295 0.0
C3103 C 0.7539 0.82049 0.84532 0.0
H3104 H 0.46006 0.54765 0.66461 0.0
H3105 H 0.52601 0.59392 0.71999 0.0
H3106 H 0.55216 0.59459 0.68246 0.0
H3107 H 0.5584 0.58197 0.63247 0.0
H3108 H 0.49284 0.5352 0.57682 0.0
H3109 H 0.46635 0.53514 0.61422 0.0
C3110 C 0.48011 0.55813 0.66887 0.0
C3111 C 0.49006 0.57096 0.69687 0.0
C3112 C 0.49602 0.5584 0.64617 0.0
C3113 C 0.51666 0.58382 0.69992 0.0
C3114 C 0.5321 0.58422 0.67789 0.0
C3115 C 0.5383 0.57174 0.62804 0.0
C3116 C 0.52859 0.55866 0.60008 0.0
C3117 C 0.52234 0.57158 0.65062 0.0
C3118 C 0.50199 0.54571 0.59686 0.0
C3119 C 0.48639 0.54561 0.61884 0.0
H3120 H 0.80876 0.16099 0.94427 0.0
H3121 H 0.77002 0.20388 1.00425 0.0
H3122 H 0.75913 0.23301 0.97297 0.0
H3123 H 0.75554 0.24113 0.9265 0.0
H3124 H 0.79977 0.20422 0.86881 0.0
H3125 H 0.81368 0.17775 0.90103 0.0
C3126 C 0.79844 0.17717 0.9505 0.0
C3127 C 0.78979 0.18022 0.97606 0.0
C3128 C 0.79277 0.1943 0.93268 0.0
C3129 C 0.77675 0.20136 0.98444 0.0
C3130 C 0.77039 0.21784 0.96659 0.0
C3131 C 0.76847 0.22753 0.9212 0.0
C3132 C 0.77517 0.22285 0.8948 0.0
C3133 C 0.77748 0.2137 0.94034 0.0
C3134 C 0.79295 0.2065 0.8884 0.0
C3135 C 0.80121 0.19168 0.90698 0.0
H3136 H 0.18934 0.53424 0.15144 0.0
H3137 H 0.12629 0.49817 0.19205 0.0
H3138 H 0.09643 0.49572 0.15265 0.0
H3139 H 0.08789 0.51412 0.11134 0.0
H3140 H 0.15195 0.55719 0.07592 0.0
H3141 H 0.18145 0.54628 0.108 0.0
C3142 C 0.16916 0.52503 0.15136 0.0
C3143 C 0.15987 0.51731 0.17473 0.0
C3144 C 0.15209 0.52554 0.1296 0.0
C3145 C 0.13377 0.50488 0.1743 0.0
C3146 C 0.11666 0.50372 0.15191 0.0
C3147 C 0.10828 0.52072 0.11054 0.0
C3148 C 0.11761 0.53671 0.0915 0.0
C3149 C 0.12548 0.5158 0.13022 0.0
C3150 C 0.14411 0.54495 0.09042 0.0
C3151 C 0.16116 0.53878 0.10884 0.0
H3152 H 0.83863 0.83385 0.45538 0.0
H3153 H 0.86097 0.92126 0.44549 0.0
H3154 H 0.85904 0.90655 0.39813 0.0
H3155 H 0.84885 0.87094 0.35767 0.0
H3156 H 0.82658 0.78284 0.36174 0.0
H3157 H 0.83096 0.79559 0.41179 0.0
C3158 C 0.84313 0.84964 0.44294 0.0
C3159 C 0.84952 0.879 0.45538 0.0
C3160 C 0.8421 0.84101 0.41397 0.0
C3161 C 0.85548 0.8986 0.43793 0.0
C3162 C 0.85456 0.89031 0.41015 0.0
C3163 C 0.84535 0.85436 0.36946 0.0
C3164 C 0.83777 0.82604 0.35579 0.0
C3165 C 0.84758 0.86184 0.39787 0.0
C3166 C 0.833 0.80491 0.37158 0.0
C3167 C 0.83526 0.81231 0.40033 0.0
H3168 H 0.47073 0.59311 0.89322 0.0
H3169 H 0.50752 0.54527 0.83536 0.0
H3170 H 0.53322 0.53464 0.87266 0.0
H3171 H 0.54644 0.53814 0.92403 0.0
H3172 H 0.50888 0.58767 0.98012 0.0
H3173 H 0.48501 0.59846 0.94292 0.0
C3174 C 0.48456 0.58065 0.88824 0.0
C3175 C 0.48644 0.5708 0.85977 0.0
C3176 C 0.5002 0.57465 0.91059 0.0
C3177 C 0.50501 0.55429 0.85586 0.0
C3178 C 0.52002 0.54788 0.87781 0.0
C3179 C 0.53308 0.55118 0.92864 0.0
C3180 C 0.5304 0.56114 0.95714 0.0
C3181 C 0.51807 0.55779 0.90574 0.0
C3182 C 0.51245 0.5786 0.96004 0.0
C3183 C 0.49817 0.58508 0.93808 0.0
H3184 H 0.78419 0.17237 0.12964 0.0
H3185 H 0.86174 0.20813 0.11726 0.0
H3186 H 0.86497 0.24655 0.15623 0.0
H3187 H 0.84513 0.2702 0.19218 0.0
H3188 H 0.76713 0.23583 0.20392 0.0
H3189 H 0.7641 0.19692 0.16559 0.0
C3190 C 0.80206 0.18804 0.13615 0.0
C3191 C 0.82299 0.18722 0.12135 0.0
C3192 C 0.80324 0.21074 0.15746 0.0
C3193 C 0.84572 0.20815 0.12904 0.0
C3194 C 0.84736 0.23031 0.15086 0.0
C3195 C 0.82732 0.25474 0.18607 0.0
C3196 C 0.80649 0.256 0.20085 0.0
C3197 C 0.82604 0.23211 0.16476 0.0
C3198 C 0.78348 0.23538 0.19272 0.0
C3199 C 0.78185 0.21292 0.17112 0.0
H3200 H 0.21636 0.59865 0.34972 0.0
H3201 H 0.15269 0.53396 0.30588 0.0
H3202 H 0.12612 0.54475 0.34189 0.0
H3203 H 0.11966 0.57707 0.38283 0.0
H3204 H 0.18081 0.64865 0.41944 0.0
H3205 H 0.20971 0.63134 0.38915 0.0
C3206 C 0.19673 0.58678 0.34813 0.0
C3207 C 0.18634 0.56586 0.32514 0.0
C3208 C 0.18107 0.5948 0.3675 0.0
C3209 C 0.16097 0.55034 0.32345 0.0
C3210 C 0.14577 0.55665 0.34387 0.0
C3211 C 0.1394 0.5886 0.38425 0.0
C3212 C 0.14846 0.61364 0.40374 0.0
C3213 C 0.15535 0.57959 0.36548 0.0
C3214 C 0.17375 0.62898 0.40494 0.0
C3215 C 0.19019 0.61915 0.38761 0.0
H3216 H 0.82569 0.82637 0.60221 0.0
H3217 H 0.84285 0.91526 0.6385 0.0
H3218 H 0.83838 0.90373 0.68316 0.0
H3219 H 0.83077 0.86847 0.71322 0.0
H3220 H 0.81479 0.77962 0.67715 0.0
H3221 H 0.81735 0.791 0.63231 0.0
C3222 C 0.82826 0.84326 0.6198 0.0
C3223 C 0.83464 0.87182 0.61638 0.0
C3224 C 0.8258 0.83646 0.64606 0.0
C3225 C 0.83799 0.89311 0.63994 0.0
C3226 C 0.83545 0.88653 0.66579 0.0
C3227 C 0.82763 0.85152 0.69559 0.0
C3228 C 0.82183 0.823 0.69916 0.0
C3229 C 0.82954 0.85828 0.6693 0.0
C3230 C 0.81827 0.80168 0.6756 0.0
C3231 C 0.82009 0.80823 0.64964 0.0
H3232 H 0.77761 0.4681 0.53809 0.0
H3233 H 0.79567 0.51935 0.47782 0.0
H3234 H 0.76318 0.54489 0.49149 0.0
H3235 H 0.73454 0.55733 0.52532 0.0
H3236 H 0.72072 0.50922 0.58837 0.0
H3237 H 0.74678 0.47762 0.56892 0.0
C3238 C 0.77419 0.48447 0.5275 0.0
C3239 C 0.78936 0.49216 0.50731 0.0
C3240 C 0.75657 0.49994 0.53637 0.0
C3241 C 0.78444 0.51326 0.49369 0.0
C3242 C 0.766 0.52799 0.5016 0.0
C3243 C 0.73714 0.53969 0.53447 0.0
C3244 C 0.72631 0.53556 0.55829 0.0
C3245 C 0.75279 0.52232 0.5237 0.0
C3246 C 0.7294 0.51276 0.57019 0.0
C3247 C 0.74415 0.49476 0.55905 0.0
H3248 H 0.23997 0.1344 0.51565 0.0
H3249 H 0.21134 0.20152 0.49011 0.0
H3250 H 0.16735 0.17461 0.49008 0.0
H3251 H 0.13678 0.13218 0.49912 0.0
H3252 H 0.16651 0.06424 0.5219 0.0
H3253 H 0.20989 0.09069 0.52048 0.0
C3254 C 0.22412 0.14269 0.50905 0.0
C3255 C 0.22905 0.16955 0.50189 0.0
C3256 C 0.19888 0.12688 0.50876 0.0
C3257 C 0.20816 0.18065 0.49508 0.0
C3258 C 0.18296 0.16526 0.49516 0.0
C3259 C 0.15276 0.12309 0.50352 0.0
C3260 C 0.14814 0.09605 0.51055 0.0
C3261 C 0.17802 0.13839 0.50224 0.0
C3262 C 0.16922 0.0847 0.5161 0.0
C3263 C 0.19419 0.09995 0.51547 0.0
H3264 H 0.26179 0.96047 0.8171 0.0
H3265 H 0.21301 0.93107 0.74177 0.0
H3266 H 0.23003 0.88826 0.73375 0.0
H3267 H 0.25864 0.85598 0.74803 0.0
H3268 H 0.30401 0.88408 0.82521 0.0
H3269 H 0.28945 0.92813 0.83153 0.0
C3270 C 0.25448 0.94497 0.79868 0.0
C3271 C 0.23503 0.95108 0.7803 0.0
C3272 C 0.26473 0.91911 0.79394 0.0
C3273 C 0.2272 0.92893 0.75695 0.0
C3274 C 0.23735 0.90372 0.75219 0.0
C3275 C 0.26649 0.87203 0.76594 0.0
C3276 C 0.28574 0.8659 0.78465 0.0
C3277 C 0.25633 0.89811 0.77037 0.0
C3278 C 0.29219 0.88748 0.80853 0.0
C3279 C 0.28288 0.91313 0.81265 0.0
H3280 H 0.43101 0.94165 1.00383 0.0
H3281 H 0.41842 0.02284 0.03945 0.0
H3282 H 0.46383 0.04477 0.04069 0.0
H3283 H 0.50684 0.04033 0.03266 0.0
H3284 H 0.52056 0.95877 1.00032 0.0
H3285 H 0.47465 0.93746 0.99544 0.0
C3286 C 0.43833 0.96417 0.01162 0.0
C3287 C 0.42152 0.98095 0.02058 0.0
C3288 C 0.46442 0.9765 0.01235 0.0
C3289 C 0.43105 1.00986 0.03153 0.0
C3290 C 0.45695 0.02232 0.03235 0.0
C3291 C 0.49988 0.01808 0.02407 0.0
C3292 C 0.51705 1.00119 0.01666 0.0
C3293 C 0.47375 1.00586 0.02264 0.0
C3294 C 0.50759 0.97218 1.00597 0.0
C3295 C 0.48144 0.95998 1.00346 0.0
H3296 H 0.92345 0.6288 0.79943 0.0
H3297 H 0.8669 0.61387 0.85489 0.0
H3298 H 0.84114 0.64 0.83268 0.0
H3299 H 0.82956 0.65451 0.79028 0.0
H3300 H 0.88385 0.6633 0.73185 0.0
H3301 H 0.9155 0.65177 0.76215 0.0
C3302 C 0.90586 0.63193 0.80723 0.0
C3303 C 0.89646 0.61821 0.82785 0.0
C3304 C 0.89028 0.64497 0.79312 0.0
C3305 C 0.87416 0.62346 0.83841 0.0
C3306 C 0.85926 0.63811 0.82552 0.0
C3307 C 0.84854 0.65451 0.78454 0.0
C3308 C 0.85429 0.65875 0.75868 0.0
C3309 C 0.86621 0.64687 0.80159 0.0
C3310 C 0.87892 0.65913 0.75141 0.0
C3311 C 0.897 0.65276 0.76876 0.0
H3312 H 0.84641 0.62061 1.0033 0.0
H3313 H 0.88433 0.70797 0.03537 0.0
H3314 H 0.92299 0.6933 0.04932 0.0
H3315 H 0.94529 0.65499 0.05489 0.0
H3316 H 0.90609 0.56797 0.02405 0.0
H3317 H 0.8686 0.58304 1.00761 0.0
C3318 C 0.86309 0.63659 0.01325 0.0
C3319 C 0.86221 0.66548 0.01834 0.0
C3320 C 0.88507 0.62794 0.02164 0.0
C3321 C 0.88422 0.68563 0.03136 0.0
C3322 C 0.90639 0.67722 0.03933 0.0
C3323 C 0.92868 0.63946 0.04408 0.0
C3324 C 0.92862 0.61038 0.04014 0.0
C3325 C 0.90696 0.64837 0.0349 0.0
C3326 C 0.90679 0.59042 0.02669 0.0
C3327 C 0.88529 0.59906 0.01748 0.0
H3328 H 0.26552 0.10114 0.77593 0.0
H3329 H 0.19904 0.12312 0.80752 0.0
H3330 H 0.21823 0.17338 0.80991 0.0
H3331 H 0.25379 0.21294 0.80172 0.0
H3332 H 0.32112 0.19095 0.77226 0.0
H3333 H 0.30235 0.14095 0.77087 0.0
C3334 C 0.25537 0.11679 0.78412 0.0
C3335 C 0.23053 0.10708 0.79228 0.0
C3336 C 0.26686 0.14668 0.78561 0.0
C3337 C 0.21803 0.12883 0.80148 0.0
C3338 C 0.22913 0.15808 0.80276 0.0
C3339 C 0.26459 0.19741 0.79506 0.0
C3340 C 0.28956 0.20717 0.78719 0.0
C3341 C 0.25352 0.16761 0.79463 0.0
C3342 C 0.3024 0.18546 0.77885 0.0
C3343 C 0.29141 0.15624 0.77787 0.0
H3344 H 0.42741 0.95874 0.32513 0.0
H3345 H 0.36913 0.98876 0.28459 0.0
H3346 H 0.34266 0.94055 0.27159 0.0
H3347 H 0.33659 0.88954 0.2706 0.0
H3348 H 0.39756 0.85874 0.30476 0.0
H3349 H 0.42197 0.90727 0.32266 0.0
C3350 C 0.40873 0.9546 0.31383 0.0
C3351 C 0.39958 0.97719 0.30687 0.0
C3352 C 0.39386 0.92672 0.30594 0.0
C3353 C 0.37595 0.97168 0.29115 0.0
C3354 C 0.36093 0.94414 0.28352 0.0
C3355 C 0.35495 0.89365 0.28257 0.0
C3356 C 0.36453 0.87088 0.28823 0.0
C3357 C 0.36962 0.92151 0.29092 0.0
C3358 C 0.38898 0.87612 0.3022 0.0
C3359 C 0.40321 0.90383 0.31178 0.0
H3360 H 0.59277 0.38137 0.54678 0.0
H3361 H 0.624 0.41689 0.6297 0.0
H3362 H 0.61918 0.46365 0.62307 0.0
H3363 H 0.6046 0.49484 0.59449 0.0
H3364 H 0.57831 0.46116 0.51019 0.0
H3365 H 0.58202 0.41391 0.51677 0.0
C3366 C 0.59879 0.39929 0.56352 0.0
C3367 C 0.60881 0.39475 0.58903 0.0
C3368 C 0.5963 0.42673 0.55937 0.0
C3369 C 0.61643 0.41894 0.60993 0.0
C3370 C 0.61348 0.44593 0.60612 0.0
C3371 C 0.59964 0.47729 0.57733 0.0
C3372 C 0.59001 0.48212 0.55187 0.0
C3373 C 0.60318 0.45015 0.58105 0.0
C3374 C 0.58463 0.45862 0.53018 0.0
C3375 C 0.58712 0.43139 0.53397 0.0
H3376 H 0.46288 0.74564 0.36515 0.0
H3377 H 0.44853 0.80146 0.43503 0.0
H3378 H 0.41044 0.80758 0.40954 0.0
H3379 H 0.38247 0.79963 0.36608 0.0
H3380 H 0.39624 0.74235 0.29692 0.0
H3381 H 0.43256 0.73421 0.32306 0.0
C3382 C 0.45135 0.75904 0.37488 0.0
C3383 C 0.45922 0.77372 0.40195 0.0
C3384 C 0.4292 0.7624 0.35996 0.0
C3385 C 0.44338 0.79023 0.41425 0.0
C3386 C 0.42151 0.79379 0.39955 0.0
C3387 C 0.39335 0.78537 0.35656 0.0
C3388 C 0.38688 0.77274 0.32862 0.0
C3389 C 0.41445 0.78048 0.37214 0.0
C3390 C 0.40116 0.75368 0.31753 0.0
C3391 C 0.42188 0.74859 0.3328 0.0
H3392 H 0.09273 0.72882 0.12277 0.0
H3393 H 0.1254 0.75126 0.05222 0.0
H3394 H 0.11813 0.70066 0.03119 0.0
H3395 H 0.10159 0.64847 0.03313 0.0
H3396 H 0.07562 0.62983 0.10853 0.0
H3397 H 0.0801 0.67928 0.12621 0.0
C3398 C 0.09808 0.72274 0.10265 0.0
C3399 C 0.10848 0.74415 0.08874 0.0
C3400 C 0.09477 0.69363 0.09118 0.0
C3401 C 0.11615 0.73548 0.06304 0.0
C3402 C 0.11225 0.70635 0.05109 0.0
C3403 C 0.09745 0.65517 0.0536 0.0
C3404 C 0.08835 0.63437 0.06919 0.0
C3405 C 0.10143 0.68492 0.06494 0.0
C3406 C 0.0827 0.64441 0.09557 0.0
C3407 C 0.08529 0.67312 0.10604 0.0
H3408 H 0.09009 0.25227 0.87567 0.0
H3409 H 0.1118 0.33026 0.93456 0.0
H3410 H 0.15289 0.34223 0.91651 0.0
H3411 H 0.17952 0.33384 0.87914 0.0
H3412 H 0.15828 0.25526 0.82099 0.0
H3413 H 0.12049 0.23987 0.84366 0.0
C3414 C 0.10431 0.27128 0.88523 0.0
C3415 C 0.09812 0.29016 0.9067 0.0
C3416 C 0.12784 0.2781 0.87452 0.0
C3417 C 0.11638 0.31511 0.91846 0.0
C3418 C 0.13975 0.32213 0.90787 0.0
C3419 C 0.16702 0.31298 0.87203 0.0
C3420 C 0.17169 0.29563 0.84846 0.0
C3421 C 0.14528 0.3043 0.88523 0.0
C3422 C 0.15521 0.26881 0.83922 0.0
C3423 C 0.13349 0.26013 0.85207 0.0
H3424 H 0.60392 0.75063 0.90126 0.0
H3425 H 0.66588 0.80142 0.95998 0.0
H3426 H 0.65339 0.77106 0.99216 0.0
H3427 H 0.62106 0.73464 1.0062 0.0
H3428 H 0.55896 0.6836 0.94832 0.0
H3429 H 0.57535 0.70905 0.91317 0.0
C3430 C 0.61516 0.75446 0.92074 0.0
C3431 C 0.63557 0.7785 0.92828 0.0
C3432 C 0.60758 0.7371 0.93952 0.0
C3433 C 0.64992 0.78322 0.9537 0.0
C3434 C 0.64272 0.76596 0.97225 0.0
C3435 C 0.61155 0.72877 0.98569 0.0
C3436 C 0.5889 0.70757 0.97966 0.0
C3437 C 0.62098 0.7436 0.9658 0.0
C3438 C 0.5765 0.69997 0.95319 0.0
C3439 C 0.5858 0.71457 0.9332 0.0
H3440 H 0.06596 0.73998 0.71837 0.0
H3441 H 0.1137 0.79632 0.67655 0.0
H3442 H 0.15195 0.79061 0.70223 0.0
H3443 H 0.17069 0.77118 0.73772 0.0
H3444 H 0.12273 0.70635 0.77169 0.0
H3445 H 0.08528 0.71508 0.74882 0.0
C3446 C 0.08483 0.75097 0.71497 0.0
C3447 C 0.08738 0.76931 0.69657 0.0
C3448 C 0.10641 0.74645 0.72867 0.0
C3449 C 0.11161 0.78268 0.69126 0.0
C3450 C 0.13331 0.77933 0.70584 0.0
C3451 C 0.15237 0.75795 0.73964 0.0
C3452 C 0.15014 0.7381 0.75695 0.0
C3453 C 0.13084 0.76137 0.72475 0.0
C3454 C 0.12555 0.72245 0.75948 0.0
C3455 C 0.10394 0.72708 0.74602 0.0
H3456 H 0.10579 0.40566 0.41132 0.0
H3457 H 0.18322 0.43283 0.44853 0.0
H3458 H 0.17035 0.46606 0.48445 0.0
H3459 H 0.13666 0.49131 0.50176 0.0
H3460 H 0.06041 0.46242 0.46015 0.0
H3461 H 0.07328 0.42734 0.42863 0.0
C3462 C 0.12017 0.42015 0.42635 0.0
C3463 C 0.14564 0.41877 0.42615 0.0
C3464 C 0.11278 0.43935 0.44589 0.0
C3465 C 0.16371 0.43504 0.4475 0.0
C3466 C 0.15629 0.45402 0.46792 0.0
C3467 C 0.12303 0.47719 0.4858 0.0
C3468 C 0.09768 0.48019 0.48291 0.0
C3469 C 0.13088 0.45697 0.46686 0.0
C3470 C 0.08003 0.46149 0.46256 0.0
C3471 C 0.08739 0.44113 0.4444 0.0
H3472 H 0.45975 0.26693 0.22921 0.0
H3473 H 0.40654 0.25451 0.15754 0.0
H3474 H 0.37203 0.25608 0.18507 0.0
H3475 H 0.35691 0.26269 0.22838 0.0
H3476 H 0.40751 0.27668 0.30163 0.0
H3477 H 0.44335 0.27267 0.27448 0.0
C3478 C 0.44063 0.2647 0.2197 0.0
C3479 C 0.43592 0.26068 0.19127 0.0
C3480 C 0.42045 0.26558 0.23577 0.0
C3481 C 0.41096 0.25778 0.17928 0.0
C3482 C 0.39105 0.25846 0.19497 0.0
C3483 C 0.37562 0.26407 0.2385 0.0
C3484 C 0.37972 0.26972 0.26678 0.0
C3485 C 0.39561 0.26233 0.22304 0.0
C3486 C 0.40407 0.27208 0.27975 0.0
C3487 C 0.42445 0.27 0.26424 0.0
H3488 H 0.69119 0.54071 0.39182 0.0
H3489 H 0.62624 0.50952 0.33137 0.0
H3490 H 0.59779 0.50974 0.36741 0.0
H3491 H 0.58977 0.51909 0.41791 0.0
H3492 H 0.65556 0.55173 0.47737 0.0
H3493 H 0.68341 0.5503 0.44133 0.0
C3494 C 0.67081 0.53371 0.38601 0.0
C3495 C 0.66196 0.52479 0.35721 0.0
C3496 C 0.65384 0.53413 0.40764 0.0
C3497 C 0.63486 0.51639 0.35214 0.0
C3498 C 0.61816 0.51656 0.37334 0.0
C3499 C 0.61019 0.52588 0.42343 0.0
C3500 C 0.61951 0.53551 0.45217 0.0
C3501 C 0.62711 0.52538 0.40151 0.0
C3502 C 0.6466 0.54415 0.45676 0.0
C3503 C 0.66302 0.54335 0.43557 0.0
H3504 H 0.32163 0.89945 0.08791 0.0
H3505 H 0.37717 0.97844 0.1173 0.0
H3506 H 0.39265 0.95949 0.15501 0.0
H3507 H 0.39619 0.91747 0.17351 0.0
H3508 H 0.34272 0.83756 0.14171 0.0
H3509 H 0.3205 0.85985 0.11117 0.0
C3510 C 0.3366 0.91282 0.10304 0.0
C3511 C 0.34869 0.94001 0.0995 0.0
C3512 C 0.34615 0.90135 0.12387 0.0
C3513 C 0.3677 0.95733 0.11947 0.0
C3514 C 0.37679 0.94637 0.14085 0.0
C3515 C 0.37943 0.90511 0.16016 0.0
C3516 C 0.37137 0.87589 0.15943 0.0
C3517 C 0.36715 0.91791 0.14225 0.0
C3518 C 0.34931 0.86011 0.14255 0.0
C3519 C 0.33668 0.8728 0.125 0.0
H3520 H 0.99369 0.58543 0.88228 0.0
H3521 H 0.93339 0.53943 0.92074 0.0
H3522 H 0.96409 0.5376 0.95705 0.0
H3523 H 1.00691 0.54648 0.97638 0.0
H3524 H 0.06899 0.59402 0.94162 0.0
H3525 H 0.03821 0.59842 0.90515 0.0
C3526 C 0.98731 0.57541 0.89886 0.0
C3527 C 0.96135 0.56214 0.89857 0.0
C3528 C 1.00515 0.5747 0.92008 0.0
C3529 C 0.95321 0.5496 0.9203 0.0
C3530 C 0.97075 0.54846 0.94107 0.0
C3531 C 0.01409 0.55791 0.96098 0.0
C3532 C 0.04029 0.56946 0.96141 0.0
C3533 C 0.99664 0.56046 0.94081 0.0
C3534 C 0.04889 0.5846 0.94145 0.0
C3535 C 0.03133 0.58711 0.92073 0.0
H3536 H 0.30801 0.27501 0.60973 0.0
H3537 H 0.30498 0.18615 0.60552 0.0
H3538 H 0.30952 0.19335 0.65459 0.0
H3539 H 0.31498 0.22421 0.69899 0.0
H3540 H 0.31805 0.31312 0.70563 0.0
H3541 H 0.31215 0.30653 0.65587 0.0
C3542 C 0.30842 0.2573 0.6196 0.0
C3543 C 0.30621 0.22997 0.60359 0.0
C3544 C 0.31069 0.26151 0.64843 0.0
C3545 C 0.30652 0.20732 0.61698 0.0
C3546 C 0.30912 0.2114 0.6452 0.0
C3547 C 0.31421 0.24222 0.68962 0.0
C3548 C 0.31681 0.2691 0.70621 0.0
C3549 C 0.31122 0.23829 0.66114 0.0
C3550 C 0.3158 0.29211 0.69353 0.0
C3551 C 0.31264 0.28833 0.66498 0.0
H3552 H 0.62472 0.53233 0.19732 0.0
H3553 H 0.69342 0.51203 0.16979 0.0
H3554 H 0.67916 0.51627 0.12399 0.0
H3555 H 0.64701 0.52479 0.08925 0.0
H3556 H 0.57903 0.54759 0.11552 0.0
H3557 H 0.59308 0.54409 0.16206 0.0
C3558 C 0.63681 0.52862 0.1815 0.0
C3559 C 0.66079 0.52107 0.18882 0.0
C3560 C 0.62853 0.53212 0.1539 0.0
C3561 C 0.67523 0.51741 0.16653 0.0
C3562 C 0.66689 0.51999 0.13964 0.0
C3563 C 0.63517 0.52973 0.10502 0.0
C3564 C 0.61173 0.53772 0.09713 0.0
C3565 C 0.6436 0.52736 0.13268 0.0
C3566 C 0.59736 0.54273 0.11933 0.0
C3567 C 0.60545 0.54015 0.14657 0.0
H3568 H 0.38039 0.90507 0.93965 0.0
H3569 H 0.30147 0.88852 0.95418 0.0
H3570 H 0.29136 0.84746 0.91651 0.0
H3571 H 0.30421 0.82219 0.87554 0.0
H3572 H 0.38324 0.84026 0.86057 0.0
H3573 H 0.39432 0.87522 0.90262 0.0
C3574 C 0.36101 0.89259 0.93438 0.0
C3575 C 0.34143 0.90014 0.94852 0.0
C3576 C 0.35548 0.86952 0.91282 0.0
C3577 C 0.31659 0.8831 0.94282 0.0
C3578 C 0.31088 0.85977 0.92145 0.0
C3579 C 0.32394 0.83292 0.88192 0.0
C3580 C 0.34276 0.82902 0.86482 0.0
C3581 C 0.33005 0.85347 0.90571 0.0
C3582 C 0.36833 0.84329 0.87329 0.0
C3583 C 0.37468 0.86335 0.89722 0.0
H3584 H 0.93623 0.52172 0.72684 0.0
H3585 H 0.99504 0.59523 0.7649 0.0
H3586 H 0.02166 0.58562 0.7288 0.0
H3587 H 0.03106 0.55157 0.69132 0.0
H3588 H 0.97415 0.47519 0.65684 0.0
H3589 H 0.94378 0.49054 0.68648 0.0
C3590 C 0.95451 0.53615 0.72672 0.0
C3591 C 0.96382 0.55899 0.74846 0.0
C3592 C 0.97024 0.52954 0.70685 0.0
C3593 C 0.9876 0.57742 0.74831 0.0
C3594 C 1.00289 0.5718 0.72784 0.0
C3595 C 0.01181 0.53868 0.69004 0.0
C3596 C 1.00473 0.51228 0.67235 0.0
C3597 C 0.9949 0.54716 0.70779 0.0
C3598 C 0.97991 0.49548 0.6707 0.0
C3599 C 0.96261 0.50426 0.68755 0.0
H3600 H 0.2765 0.23559 0.43024 0.0
H3601 H 0.35596 0.24825 0.45772 0.0
H3602 H 0.36762 0.27182 0.41966 0.0
H3603 H 0.35474 0.28559 0.37551 0.0
H3604 H 0.27466 0.26189 0.34584 0.0
H3605 H 0.26404 0.2466 0.38691 0.0
C3606 C 0.29641 0.24339 0.42805 0.0
C3607 C 0.3152 0.24014 0.44722 0.0
C3608 C 0.30294 0.2554 0.40526 0.0
C3609 C 0.34093 0.25092 0.44381 0.0
C3610 C 0.34761 0.26417 0.42173 0.0
C3611 C 0.33496 0.27749 0.37821 0.0
C3612 C 0.31555 0.27662 0.35733 0.0
C3613 C 0.32875 0.26613 0.40184 0.0
C3614 C 0.29018 0.26476 0.36133 0.0
C3615 C 0.28393 0.25529 0.38503 0.0
H3616 H 0.33089 0.55785 0.51795 0.0
H3617 H 0.38062 0.64127 0.54278 0.0
H3618 H 0.41775 0.62149 0.53396 0.0
H3619 H 0.4347 0.58164 0.51148 0.0
H3620 H 0.38382 0.49921 0.48442 0.0
H3621 H 0.34842 0.51731 0.50217 0.0
C3622 C 0.34989 0.57167 0.52187 0.0
C3623 C 0.35304 0.60101 0.53034 0.0
C3624 C 0.37086 0.5603 0.51611 0.0
C3625 C 0.37776 0.6186 0.536 0.0
C3626 C 0.39894 0.60732 0.53079 0.0
C3627 C 0.41598 0.56759 0.51021 0.0
C3628 C 0.41157 0.53932 0.49642 0.0
C3629 C 0.39556 0.57839 0.5197 0.0
C3630 C 0.38737 0.52115 0.49471 0.0
C3631 C 0.36719 0.53148 0.50477 0.0
H3632 H 0.93601 0.91182 0.52992 0.0
H3633 H 0.90918 0.97395 0.58404 0.0
H3634 H 0.95014 1.00824 0.58687 0.0
H3635 H 0.99178 0.02224 0.56904 0.0
H3636 H 0.01805 0.95869 0.51566 0.0
H3637 H 0.97946 0.92389 0.51712 0.0
C3638 C 0.93936 0.93272 0.54265 0.0
C3639 C 0.91943 0.94082 0.5559 0.0
C3640 C 0.96277 0.95246 0.54378 0.0
C3641 C 0.92411 0.96765 0.57294 0.0
C3642 C 0.94753 0.98725 0.57456 0.0
C3643 C 0.9891 1.00093 0.5577 0.0
C3644 C 1.00788 0.99376 0.54164 0.0
C3645 C 0.96665 0.98033 0.55906 0.0
C3646 C 1.0041 0.9654 0.52791 0.0
C3647 C 0.98189 0.94516 0.52877 0.0
H3648 H 0.89192 0.15036 0.31964 0.0
H3649 H 0.92968 0.15012 0.24725 0.0
H3650 H 0.91054 0.18844 0.23719 0.0
H3651 H 0.88234 0.22386 0.24766 0.0
H3652 H 0.84639 0.22661 0.32117 0.0
H3653 H 0.86472 0.18747 0.33109 0.0
C3654 C 0.89651 0.15857 0.30163 0.0
C3655 C 0.9136 0.14565 0.28465 0.0
C3656 C 0.88506 0.18202 0.29571 0.0
C3657 C 0.91772 0.1582 0.26152 0.0
C3658 C 0.90631 0.1807 0.25553 0.0
C3659 C 0.87814 0.21619 0.26603 0.0
C3660 C 0.86147 0.22961 0.28303 0.0
C3661 C 0.8898 0.19312 0.27225 0.0
C3662 C 0.85786 0.21789 0.30671 0.0
C3663 C 0.86887 0.19498 0.31263 0.0
H3664 H 0.71658 0.16921 0.04805 0.0
H3665 H 0.73361 0.09031 0.05886 0.0
H3666 H 0.68843 0.06908 0.05818 0.0
H3667 H 0.6443 0.07141 0.04763 0.0
H3668 H 0.62665 0.15298 0.05254 0.0
H3669 H 0.67195 0.17479 0.05188 0.0
C3670 C 0.71026 0.14743 0.05042 0.0
C3671 C 0.72783 0.13025 0.05076 0.0
C3672 C 0.68435 0.13593 0.05217 0.0
C3673 C 0.71995 0.10293 0.05602 0.0
C3674 C 0.69425 0.09096 0.05618 0.0
C3675 C 0.65033 0.09422 0.05065 0.0
C3676 C 0.63217 0.11055 0.05137 0.0
C3677 C 0.67627 0.10694 0.05313 0.0
C3678 C 0.64035 0.13991 0.05258 0.0
C3679 C 0.6662 0.1524 0.05222 0.0
H3680 H 0.21396 0.47343 0.27901 0.0
H3681 H 0.26587 0.50074 0.22286 0.0
H3682 H 0.28845 0.46397 0.2285 0.0
H3683 H 0.30097 0.43611 0.26016 0.0
H3684 H 0.25367 0.41583 0.32242 0.0
H3685 H 0.22101 0.43637 0.30318 0.0
C3686 C 0.22949 0.47028 0.26719 0.0
C3687 C 0.23879 0.48966 0.25107 0.0
C3688 C 0.24337 0.45053 0.27208 0.0
C3689 C 0.25886 0.48598 0.2357 0.0
C3690 C 0.27178 0.46512 0.23903 0.0
C3691 C 0.28293 0.43504 0.26862 0.0
C3692 C 0.27966 0.42528 0.29283 0.0
C3693 C 0.26545 0.44895 0.25883 0.0
C3694 C 0.25645 0.42379 0.30392 0.0
C3695 C 0.23799 0.43574 0.29308 0.0
H3696 H 0.30135 0.47931 0.05399 0.0
H3697 H 0.26681 0.39204 0.01813 0.0
H3698 H 0.22665 0.40478 1.00632 0.0
H3699 H 0.20327 0.44192 1.00115 0.0
H3700 H 0.23767 0.52891 0.03842 0.0
H3701 H 0.27578 0.51514 0.05505 0.0
C3702 C 0.28479 0.46297 0.04425 0.0
C3703 C 0.28707 0.43475 0.03692 0.0
C3704 C 0.26184 0.47052 0.03746 0.0
C3705 C 0.26548 0.41381 0.0243 0.0
C3706 C 0.2426 0.42118 0.01725 0.0
C3707 C 0.21899 0.45777 0.01325 0.0
C3708 C 0.21775 0.4865 0.01824 0.0
C3709 C 0.24084 0.44963 0.02291 0.0
C3710 C 0.23811 0.50672 0.03428 0.0
C3711 C 0.25997 0.49886 0.04367 0.0
H3712 H 0.93877 0.96962 0.28553 0.0
H3713 H 0.87549 1.00279 0.26152 0.0
H3714 H 0.84602 0.95697 0.26097 0.0
H3715 H 0.83719 0.90534 0.26754 0.0
H3716 H 0.90282 0.8721 0.28468 0.0
H3717 H 0.9307 0.91818 0.28766 0.0
C3718 C 0.91852 0.96717 0.28035 0.0
C3719 C 0.90985 0.99144 0.27531 0.0
C3720 C 0.90133 0.93971 0.27894 0.0
C3721 C 0.88327 0.98602 0.26735 0.0
C3722 C 0.86616 0.95919 0.2666 0.0
C3723 C 0.85753 0.90788 0.27201 0.0
C3724 C 0.86681 0.88366 0.27684 0.0
C3725 C 0.87471 0.93552 0.27263 0.0
C3726 C 0.89384 0.88907 0.28183 0.0
C3727 C 0.91038 0.91603 0.28332 0.0
H3728 H 0.76813 0.12309 0.73307 0.0
H3729 H 0.70131 0.14587 0.76319 0.0
H3730 H 0.72251 0.19633 0.76948 0.0
H3731 H 0.76261 0.23292 0.7736 0.0
H3732 H 0.8315 0.20736 0.75491 0.0
H3733 H 0.80698 0.15948 0.73471 0.0
C3734 C 0.75822 0.13917 0.7409 0.0
C3735 C 0.73383 0.13113 0.74893 0.0
C3736 C 0.77092 0.16771 0.74572 0.0
C3737 C 0.72048 0.15185 0.75768 0.0
C3738 C 0.7326 0.18057 0.7613 0.0
C3739 C 0.77207 0.2168 0.76481 0.0
C3740 C 0.79858 0.22369 0.76406 0.0
C3741 C 0.75825 0.18862 0.75666 0.0
C3742 C 0.81093 0.20276 0.75367 0.0
C3743 C 0.79696 0.17531 0.74286 0.0
loop_
_geom_bond_atom_site_label_1
_geom_bond_atom_site_label_2
_geom_bond_distance
_geom_bond_site_symmetry_2
_ccdc_geom_bond_type
Mn0 O5 2.095 . S
Mn0 O15 2.162 . S
Mn0 O16 2.297 . S
Mn0 O24 2.385 . S
Mn0 O25 2.209 . S
Mn0 O26 2.094 . S
Mn1 O6 2.121 . S
Mn1 N8 2.257 . S
Mn1 N17 2.282 . S
Mn1 O25 2.215 . S
Mn1 O27 2.117 . S
C2 O24 1.234 . S
C2 O25 1.283 . S
C3 O15 1.281 . S
C3 O16 1.236 . S
C4 O26 1.240 . S
C4 O27 1.264 . S
O5 Mn0 2.095 . S
O5 C14 1.250 . S
O6 Mn1 2.121 . S
O6 C14 1.258 . S
C7 N8 1.326 . S
C7 C11 1.460 . S
C7 H13 0.929 . S
N8 Mn1 2.257 . S
N8 C7 1.326 . S
N8 C12 1.362 . S
C9 C10 1.258 . S
C9 C12 1.431 . S
C9 C29 1.449 . S
C10 C9 1.258 . S
C10 C11 1.477 . S
C10 H30 0.931 . S
C11 C7 1.460 . S
C11 C10 1.477 . S
C11 H31 0.930 . S
C12 N8 1.362 . S
C12 C9 1.431 . S
C12 C22 1.476 . S
H13 C7 0.929 . S
C14 O5 1.250 . S
C14 O6 1.258 . S
O15 Mn0 2.162 . S
O15 C3 1.281 . S
O16 Mn0 2.297 . S
O16 C3 1.236 . S
N17 Mn1 2.282 . S
N17 C18 1.328 . S
N17 C22 1.318 . S
C18 N17 1.328 . S
C18 C19 1.457 . S
C18 H23 0.929 . S
C19 C18 1.457 . S
C19 C20 1.291 . S
C19 H32 0.931 . S
C20 C19 1.291 . S
C20 C21 1.373 . S
C20 H33 0.929 . S
C21 C20 1.373 . S
C21 C22 1.396 . S
C21 C28 1.403 . S
C22 C12 1.476 . S
C22 N17 1.318 . S
C22 C21 1.396 . S
H23 C18 0.929 . S
O24 Mn0 2.385 . S
O24 C2 1.234 . S
O25 Mn0 2.209 . S
O25 Mn1 2.215 . S
O25 C2 1.283 . S
O26 Mn0 2.094 . S
O26 C4 1.240 . S
O27 Mn1 2.117 . S
O27 C4 1.264 . S
C28 C21 1.403 . S
C28 C29 1.399 . S
C28 H34 0.929 . S
C29 C9 1.449 . S
C29 C28 1.399 . S
C29 H35 0.930 . S
H30 C10 0.931 . S
H31 C11 0.930 . S
H32 C19 0.931 . S
H33 C20 0.929 . S
H34 C28 0.929 . S
H35 C29 0.930 . S
Mn36 O41 2.072 1_455 S
Mn36 O51 2.163 1_455 S
Mn36 O52 2.300 1_455 S
Mn36 O60 2.410 . S
Mn36 O61 2.219 . S
Mn36 O62 2.092 . S
Mn37 O42 2.121 1_455 S
Mn37 N44 2.257 . S
Mn37 N53 2.282 . S
Mn37 O61 2.215 . S
Mn37 O63 2.117 . S
C38 O60 1.234 . S
C38 O61 1.283 . S
C39 O51 1.281 . S
C39 O52 1.236 . S
C40 O62 1.240 . S
C40 O63 1.264 . S
O41 Mn36 2.072 1_655 S
O41 C50 1.250 . S
O42 Mn37 2.121 1_655 S
O42 C50 1.258 . S
C43 N44 1.326 . S
C43 C47 1.460 . S
C43 H49 0.929 1_455 S
N44 Mn37 2.257 . S
N44 C43 1.326 . S
N44 C48 1.362 . S
C45 C46 1.258 . S
C45 C48 1.431 . S
C45 C65 1.449 . S
C46 C45 1.258 . S
C46 C47 1.477 . S
C46 H66 0.931 . S
C47 C43 1.460 . S
C47 C46 1.477 . S
C47 H67 0.930 . S
C48 N44 1.362 . S
C48 C45 1.431 . S
C48 C58 1.476 . S
H49 C43 0.929 1_655 S
C50 O41 1.250 . S
C50 O42 1.258 . S
O51 Mn36 2.163 1_655 S
O51 C39 1.281 . S
O52 Mn36 2.300 1_655 S
O52 C39 1.236 . S
N53 Mn37 2.282 . S
N53 C54 1.328 . S
N53 C58 1.318 . S
C54 N53 1.328 . S
C54 C55 1.457 . S
C54 H59 0.929 . S
C55 C54 1.457 . S
C55 C56 1.291 . S
C55 H68 0.931 . S
C56 C55 1.291 . S
C56 C57 1.373 . S
C56 H69 0.929 . S
C57 C56 1.373 . S
C57 C58 1.396 . S
C57 C64 1.403 . S
C58 C48 1.476 . S
C58 N53 1.318 . S
C58 C57 1.396 . S
H59 C54 0.929 . S
O60 Mn36 2.410 . S
O60 C38 1.234 . S
O61 Mn36 2.219 . S
O61 Mn37 2.215 . S
O61 C38 1.283 . S
O62 Mn36 2.092 . S
O62 C40 1.240 . S
O63 Mn37 2.117 . S
O63 C40 1.264 . S
C64 C57 1.403 . S
C64 C65 1.399 . S
C64 H70 0.929 . S
C65 C45 1.449 . S
C65 C64 1.399 . S
C65 H71 0.930 . S
H66 C46 0.931 . S
H67 C47 0.930 . S
H68 C55 0.931 . S
H69 C56 0.929 . S
H70 C64 0.929 . S
H71 C65 0.930 . S
Mn72 O77 2.095 . S
Mn72 O87 2.162 . S
Mn72 O88 2.297 . S
Mn72 O96 2.385 . S
Mn72 O97 2.209 . S
Mn72 O98 2.094 . S
Mn73 O78 2.121 . S
Mn73 N80 2.257 . S
Mn73 N89 2.282 . S
Mn73 O97 2.215 . S
Mn73 O99 2.117 . S
C74 O96 1.234 . S
C74 O97 1.283 . S
C75 O87 1.281 . S
C75 O88 1.236 . S
C76 O98 1.240 . S
C76 O99 1.264 . S
O77 Mn72 2.095 . S
O77 C86 1.250 . S
O78 Mn73 2.121 . S
O78 C86 1.258 . S
C79 N80 1.326 . S
C79 C83 1.460 . S
C79 H85 0.929 . S
N80 Mn73 2.257 . S
N80 C79 1.326 . S
N80 C84 1.362 . S
C81 C82 1.258 . S
C81 C84 1.431 . S
C81 C101 1.449 . S
C82 C81 1.258 . S
C82 C83 1.477 . S
C82 H102 0.931 . S
C83 C79 1.460 . S
C83 C82 1.477 . S
C83 H103 0.930 . S
C84 N80 1.362 . S
C84 C81 1.431 . S
C84 C94 1.476 . S
H85 C79 0.929 . S
C86 O77 1.250 . S
C86 O78 1.258 . S
O87 Mn72 2.162 . S
O87 C75 1.281 . S
O88 Mn72 2.297 . S
O88 C75 1.236 . S
N89 Mn73 2.282 . S
N89 C90 1.328 . S
N89 C94 1.318 . S
C90 N89 1.328 . S
C90 C91 1.457 . S
C90 H95 0.929 . S
C91 C90 1.457 . S
C91 C92 1.291 . S
C91 H104 0.931 . S
C92 C91 1.291 . S
C92 C93 1.373 . S
C92 H105 0.929 . S
C93 C92 1.373 . S
C93 C94 1.396 . S
C93 C100 1.403 . S
C94 C84 1.476 . S
C94 N89 1.318 . S
C94 C93 1.396 . S
H95 C90 0.929 . S
O96 Mn72 2.385 . S
O96 C74 1.234 . S
O97 Mn72 2.209 . S
O97 Mn73 2.215 . S
O97 C74 1.283 . S
O98 Mn72 2.094 . S
O98 C76 1.240 . S
O99 Mn73 2.117 . S
O99 C76 1.264 . S
C100 C93 1.403 . S
C100 C101 1.399 . S
C100 H106 0.929 . S
C101 C81 1.449 . S
C101 C100 1.399 . S
C101 H107 0.930 . S
H102 C82 0.931 . S
H103 C83 0.930 . S
H104 C91 0.931 . S
H105 C92 0.929 . S
H106 C100 0.929 . S
H107 C101 0.930 . S
Mn108 O113 2.095 . S
Mn108 O123 2.162 . S
Mn108 O124 2.297 . S
Mn108 O132 2.385 . S
Mn108 O133 2.209 . S
Mn108 O134 2.094 . S
Mn109 O114 2.121 . S
Mn109 N116 2.257 . S
Mn109 N125 2.282 . S
Mn109 O133 2.215 . S
Mn109 O135 2.117 . S
C110 O132 1.234 . S
C110 O133 1.283 . S
C111 O123 1.281 . S
C111 O124 1.236 . S
C112 O134 1.240 . S
C112 O135 1.264 . S
O113 Mn108 2.095 . S
O113 C122 1.250 . S
O114 Mn109 2.121 . S
O114 C122 1.258 . S
C115 N116 1.326 . S
C115 C119 1.460 . S
C115 H121 0.929 . S
N116 Mn109 2.257 . S
N116 C115 1.326 . S
N116 C120 1.362 . S
C117 C118 1.258 . S
C117 C120 1.431 . S
C117 C137 1.449 . S
C118 C117 1.258 . S
C118 C119 1.477 . S
C118 H138 0.931 1_554 S
C119 C115 1.460 . S
C119 C118 1.477 . S
C119 H139 0.930 . S
C120 N116 1.362 . S
C120 C117 1.431 . S
C120 C130 1.476 . S
H121 C115 0.929 . S
C122 O113 1.250 . S
C122 O114 1.258 . S
O123 Mn108 2.162 . S
O123 C111 1.281 . S
O124 Mn108 2.297 . S
O124 C111 1.236 . S
N125 Mn109 2.282 . S
N125 C126 1.328 . S
N125 C130 1.318 . S
C126 N125 1.328 . S
C126 C127 1.457 . S
C126 H131 0.929 . S
C127 C126 1.457 . S
C127 C128 1.291 . S
C127 H140 0.931 . S
C128 C127 1.291 . S
C128 C129 1.373 . S
C128 H141 0.929 . S
C129 C128 1.373 . S
C129 C130 1.396 . S
C129 C136 1.403 . S
C130 C120 1.476 . S
C130 N125 1.318 . S
C130 C129 1.396 . S
H131 C126 0.929 . S
O132 Mn108 2.385 . S
O132 C110 1.234 . S
O133 Mn108 2.209 . S
O133 Mn109 2.215 . S
O133 C110 1.283 . S
O134 Mn108 2.094 . S
O134 C112 1.240 . S
O135 Mn109 2.117 . S
O135 C112 1.264 . S
C136 C129 1.403 . S
C136 C137 1.399 . S
C136 H142 0.929 . S
C137 C117 1.449 . S
C137 C136 1.399 . S
C137 H143 0.930 1_554 S
H138 C118 0.931 1_556 S
H139 C119 0.930 . S
H140 C127 0.931 . S
H141 C128 0.929 . S
H142 C136 0.929 . S
H143 C137 0.930 1_556 S
Mn144 O149 2.095 . S
Mn144 O159 2.162 . S
Mn144 O160 2.297 . S
Mn144 O168 2.385 . S
Mn144 O169 2.209 . S
Mn144 O170 2.094 . S
Mn145 O150 2.121 . S
Mn145 N152 2.257 . S
Mn145 N161 2.282 . S
Mn145 O169 2.215 . S
Mn145 O171 2.117 . S
C146 O168 1.234 . S
C146 O169 1.283 . S
C147 O159 1.281 . S
C147 O160 1.236 . S
C148 O170 1.240 . S
C148 O171 1.264 . S
O149 Mn144 2.095 . S
O149 C158 1.250 . S
O150 Mn145 2.121 . S
O150 C158 1.258 . S
C151 N152 1.326 1_556 S
C151 C155 1.460 . S
C151 H157 0.929 1_556 S
N152 Mn145 2.257 . S
N152 C151 1.326 1_554 S
N152 C156 1.362 . S
C153 C154 1.258 . S
C153 C156 1.431 1_556 S
C153 C173 1.449 . S
C154 C153 1.258 . S
C154 C155 1.477 . S
C154 H174 0.931 . S
C155 C151 1.460 . S
C155 C154 1.477 . S
C155 H175 0.930 . S
C156 N152 1.362 . S
C156 C153 1.431 1_554 S
C156 C166 1.476 . S
H157 C151 0.929 1_554 S
C158 O149 1.250 . S
C158 O150 1.258 . S
O159 Mn144 2.162 . S
O159 C147 1.281 . S
O160 Mn144 2.297 . S
O160 C147 1.236 . S
N161 Mn145 2.282 . S
N161 C162 1.328 . S
N161 C166 1.318 . S
C162 N161 1.328 . S
C162 C163 1.457 . S
C162 H167 0.929 . S
C163 C162 1.457 . S
C163 C164 1.291 . S
C163 H176 0.931 . S
C164 C163 1.291 . S
C164 C165 1.373 . S
C164 H177 0.929 . S
C165 C164 1.373 . S
C165 C166 1.396 . S
C165 C172 1.403 1_554 S
C166 C156 1.476 . S
C166 N161 1.318 . S
C166 C165 1.396 . S
H167 C162 0.929 . S
O168 Mn144 2.385 . S
O168 C146 1.234 . S
O169 Mn144 2.209 . S
O169 Mn145 2.215 . S
O169 C146 1.283 . S
O170 Mn144 2.094 . S
O170 C148 1.240 . S
O171 Mn145 2.117 . S
O171 C148 1.264 . S
C172 C165 1.403 1_556 S
C172 C173 1.399 . S
C172 H178 0.929 . S
C173 C153 1.449 . S
C173 C172 1.399 . S
C173 H179 0.930 . S
H174 C154 0.931 . S
H175 C155 0.930 . S
H176 C163 0.931 . S
H177 C164 0.929 . S
H178 C172 0.929 . S
H179 C173 0.930 . S
Mn180 O185 2.095 . S
Mn180 O195 2.162 . S
Mn180 O196 2.297 . S
Mn180 O204 2.385 . S
Mn180 O205 2.209 . S
Mn180 O206 2.094 . S
Mn181 O186 2.121 . S
Mn181 N188 2.257 . S
Mn181 N197 2.282 . S
Mn181 O205 2.215 . S
Mn181 O207 2.117 . S
C182 O204 1.234 . S
C182 O205 1.283 . S
C183 O195 1.281 . S
C183 O196 1.236 . S
C184 O206 1.240 . S
C184 O207 1.264 . S
O185 Mn180 2.095 . S
O185 C194 1.250 . S
O186 Mn181 2.121 . S
O186 C194 1.258 . S
C187 N188 1.326 . S
C187 C191 1.460 . S
C187 H193 0.929 . S
N188 Mn181 2.257 . S
N188 C187 1.326 . S
N188 C192 1.362 . S
C189 C190 1.258 . S
C189 C192 1.431 . S
C189 C209 1.449 . S
C190 C189 1.258 . S
C190 C191 1.477 . S
C190 H210 0.931 . S
C191 C187 1.460 . S
C191 C190 1.477 . S
C191 H211 0.930 . S
C192 N188 1.362 . S
C192 C189 1.431 . S
C192 C202 1.476 . S
H193 C187 0.929 . S
C194 O185 1.250 . S
C194 O186 1.258 . S
O195 Mn180 2.162 . S
O195 C183 1.281 . S
O196 Mn180 2.297 . S
O196 C183 1.236 . S
N197 Mn181 2.282 . S
N197 C198 1.328 . S
N197 C202 1.318 . S
C198 N197 1.328 . S
C198 C199 1.457 . S
C198 H203 0.929 . S
C199 C198 1.457 . S
C199 C200 1.291 . S
C199 H212 0.931 . S
C200 C199 1.291 . S
C200 C201 1.373 . S
C200 H213 0.929 . S
C201 C200 1.373 . S
C201 C202 1.396 . S
C201 C208 1.403 . S
C202 C192 1.476 . S
C202 N197 1.318 . S
C202 C201 1.396 . S
H203 C198 0.929 . S
O204 Mn180 2.385 . S
O204 C182 1.234 . S
O205 Mn180 2.209 . S
O205 Mn181 2.215 . S
O205 C182 1.283 . S
O206 Mn180 2.094 . S
O206 C184 1.240 . S
O207 Mn181 2.117 . S
O207 C184 1.264 . S
C208 C201 1.403 . S
C208 C209 1.399 . S
C208 H214 0.929 . S
C209 C189 1.449 . S
C209 C208 1.399 . S
C209 H215 0.930 . S
H210 C190 0.931 . S
H211 C191 0.930 . S
H212 C199 0.931 . S
H213 C200 0.929 . S
H214 C208 0.929 . S
H215 C209 0.930 . S
Mn216 O221 2.095 . S
Mn216 O231 2.162 . S
Mn216 O232 2.297 . S
Mn216 O240 2.385 . S
Mn216 O241 2.209 . S
Mn216 O242 2.094 . S
Mn217 O222 2.121 . S
Mn217 N224 2.257 . S
Mn217 N233 2.282 . S
Mn217 O241 2.215 . S
Mn217 O243 2.117 . S
C218 O240 1.234 . S
C218 O241 1.283 . S
C219 O231 1.281 . S
C219 O232 1.236 . S
C220 O242 1.240 . S
C220 O243 1.264 . S
O221 Mn216 2.095 . S
O221 C230 1.250 . S
O222 Mn217 2.121 . S
O222 C230 1.258 . S
C223 N224 1.326 . S
C223 C227 1.460 . S
C223 H229 0.929 . S
N224 Mn217 2.257 . S
N224 C223 1.326 . S
N224 C228 1.362 . S
C225 C226 1.258 . S
C225 C228 1.431 . S
C225 C245 1.449 . S
C226 C225 1.258 . S
C226 C227 1.477 . S
C226 H246 0.931 . S
C227 C223 1.460 . S
C227 C226 1.477 . S
C227 H247 0.930 . S
C228 N224 1.362 . S
C228 C225 1.431 . S
C228 C238 1.476 . S
H229 C223 0.929 . S
C230 O221 1.250 . S
C230 O222 1.258 . S
O231 Mn216 2.162 . S
O231 C219 1.281 . S
O232 Mn216 2.297 . S
O232 C219 1.236 . S
N233 Mn217 2.282 . S
N233 C234 1.328 . S
N233 C238 1.318 . S
C234 N233 1.328 . S
C234 C235 1.457 . S
C234 H239 0.929 . S
C235 C234 1.457 . S
C235 C236 1.291 . S
C235 H248 0.931 . S
C236 C235 1.291 . S
C236 C237 1.373 . S
C236 H249 0.929 . S
C237 C236 1.373 . S
C237 C238 1.396 . S
C237 C244 1.403 . S
C238 C228 1.476 . S
C238 N233 1.318 . S
C238 C237 1.396 . S
H239 C234 0.929 . S
O240 Mn216 2.385 . S
O240 C218 1.234 . S
O241 Mn216 2.209 . S
O241 Mn217 2.215 . S
O241 C218 1.283 . S
O242 Mn216 2.094 . S
O242 C220 1.240 . S
O243 Mn217 2.117 . S
O243 C220 1.264 . S
C244 C237 1.403 . S
C244 C245 1.399 . S
C244 H250 0.929 . S
C245 C225 1.449 . S
C245 C244 1.399 . S
C245 H251 0.930 . S
H246 C226 0.931 . S
H247 C227 0.930 . S
H248 C235 0.931 . S
H249 C236 0.929 . S
H250 C244 0.929 . S
H251 C245 0.930 . S
Mn252 O257 2.095 . S
Mn252 O267 2.162 . S
Mn252 O268 2.297 . S
Mn252 O276 2.385 1_455 S
Mn252 O277 2.209 . S
Mn252 O278 2.094 . S
Mn253 O258 2.121 . S
Mn253 N260 2.257 . S
Mn253 N269 2.282 1_455 S
Mn253 O277 2.215 . S
Mn253 O279 2.117 . S
C254 O276 1.234 . S
C254 O277 1.283 1_655 S
C255 O267 1.281 . S
C255 O268 1.236 . S
C256 O278 1.240 . S
C256 O279 1.264 . S
O257 Mn252 2.095 . S
O257 C266 1.250 . S
O258 Mn253 2.121 . S
O258 C266 1.258 . S
C259 N260 1.326 . S
C259 C263 1.460 . S
C259 H265 0.929 . S
N260 Mn253 2.257 . S
N260 C259 1.326 . S
N260 C264 1.362 1_455 S
C261 C262 1.258 . S
C261 C264 1.431 . S
C261 C281 1.449 . S
C262 C261 1.258 . S
C262 C263 1.477 1_655 S
C262 H282 0.931 . S
C263 C259 1.460 . S
C263 C262 1.477 1_455 S
C263 H283 0.930 . S
C264 N260 1.362 1_655 S
C264 C261 1.431 . S
C264 C274 1.476 . S
H265 C259 0.929 . S
C266 O257 1.250 . S
C266 O258 1.258 . S
O267 Mn252 2.162 . S
O267 C255 1.281 . S
O268 Mn252 2.297 . S
O268 C255 1.236 . S
N269 Mn253 2.282 1_655 S
N269 C270 1.328 . S
N269 C274 1.318 . S
C270 N269 1.328 . S
C270 C271 1.457 . S
C270 H275 0.929 . S
C271 C270 1.457 . S
C271 C272 1.291 . S
C271 H284 0.931 . S
C272 C271 1.291 . S
C272 C273 1.373 . S
C272 H285 0.929 . S
C273 C272 1.373 . S
C273 C274 1.396 . S
C273 C280 1.403 . S
C274 C264 1.476 . S
C274 N269 1.318 . S
C274 C273 1.396 . S
H275 C270 0.929 . S
O276 Mn252 2.385 1_655 S
O276 C254 1.234 . S
O277 Mn252 2.209 . S
O277 Mn253 2.215 . S
O277 C254 1.283 1_455 S
O278 Mn252 2.094 . S
O278 C256 1.240 . S
O279 Mn253 2.117 . S
O279 C256 1.264 . S
C280 C273 1.403 . S
C280 C281 1.399 . S
C280 H286 0.929 . S
C281 C261 1.449 . S
C281 C280 1.399 . S
C281 H287 0.930 . S
H282 C262 0.931 . S
H283 C263 0.930 . S
H284 C271 0.931 . S
H285 C272 0.929 . S
H286 C280 0.929 . S
H287 C281 0.930 . S
Mn288 O293 2.095 . S
Mn288 O303 2.162 . S
Mn288 O304 2.297 . S
Mn288 O312 2.385 1_545 S
Mn288 O313 2.209 1_545 S
Mn288 O314 2.094 . S
Mn289 O294 2.121 . S
Mn289 N296 2.257 1_545 S
Mn289 N305 2.282 1_545 S
Mn289 O313 2.215 1_545 S
Mn289 O315 2.117 . S
C290 O312 1.234 . S
C290 O313 1.283 . S
C291 O303 1.281 . S
C291 O304 1.236 . S
C292 O314 1.240 . S
C292 O315 1.264 . S
O293 Mn288 2.095 . S
O293 C302 1.250 . S
O294 Mn289 2.121 . S
O294 C302 1.258 . S
C295 N296 1.326 . S
C295 C299 1.460 . S
C295 H301 0.929 1_565 S
N296 Mn289 2.257 1_565 S
N296 C295 1.326 . S
N296 C300 1.362 . S
C297 C298 1.258 . S
C297 C300 1.431 . S
C297 C317 1.449 . S
C298 C297 1.258 . S
C298 C299 1.477 . S
C298 H318 0.931 . S
C299 C295 1.460 . S
C299 C298 1.477 . S
C299 H319 0.930 . S
C300 N296 1.362 . S
C300 C297 1.431 . S
C300 C310 1.476 . S
H301 C295 0.929 1_545 S
C302 O293 1.250 . S
C302 O294 1.258 . S
O303 Mn288 2.162 . S
O303 C291 1.281 . S
O304 Mn288 2.297 . S
O304 C291 1.236 . S
N305 Mn289 2.282 1_565 S
N305 C306 1.328 . S
N305 C310 1.318 . S
C306 N305 1.328 . S
C306 C307 1.457 . S
C306 H311 0.929 . S
C307 C306 1.457 . S
C307 C308 1.291 . S
C307 H320 0.931 . S
C308 C307 1.291 . S
C308 C309 1.373 . S
C308 H321 0.929 . S
C309 C308 1.373 . S
C309 C310 1.396 . S
C309 C316 1.403 . S
C310 C300 1.476 . S
C310 N305 1.318 . S
C310 C309 1.396 . S
H311 C306 0.929 . S
O312 Mn288 2.385 1_565 S
O312 C290 1.234 . S
O313 Mn288 2.209 1_565 S
O313 Mn289 2.215 1_565 S
O313 C290 1.283 . S
O314 Mn288 2.094 . S
O314 C292 1.240 . S
O315 Mn289 2.117 . S
O315 C292 1.264 . S
C316 C309 1.403 . S
C316 C317 1.399 . S
C316 H322 0.929 . S
C317 C297 1.449 . S
C317 C316 1.399 . S
C317 H323 0.930 . S
H318 C298 0.931 . S
H319 C299 0.930 . S
H320 C307 0.931 . S
H321 C308 0.929 . S
H322 C316 0.929 . S
H323 C317 0.930 . S
Mn324 O329 2.095 . S
Mn324 O339 2.162 . S
Mn324 O340 2.297 . S
Mn324 O348 2.385 . S
Mn324 O349 2.209 . S
Mn324 O350 2.094 . S
Mn325 O330 2.121 . S
Mn325 N332 2.257 . S
Mn325 N341 2.282 . S
Mn325 O349 2.215 . S
Mn325 O351 2.117 . S
C326 O348 1.234 . S
C326 O349 1.283 . S
C327 O339 1.281 . S
C327 O340 1.236 . S
C328 O350 1.240 . S
C328 O351 1.264 . S
O329 Mn324 2.095 . S
O329 C338 1.250 . S
O330 Mn325 2.121 . S
O330 C338 1.258 . S
C331 N332 1.326 . S
C331 C335 1.460 . S
C331 H337 0.929 . S
N332 Mn325 2.257 . S
N332 C331 1.326 . S
N332 C336 1.362 . S
C333 C334 1.258 . S
C333 C336 1.431 . S
C333 C353 1.449 . S
C334 C333 1.258 . S
C334 C335 1.477 . S
C334 H354 0.931 . S
C335 C331 1.460 . S
C335 C334 1.477 . S
C335 H355 0.930 . S
C336 N332 1.362 . S
C336 C333 1.431 . S
C336 C346 1.476 . S
H337 C331 0.929 . S
C338 O329 1.250 . S
C338 O330 1.258 . S
O339 Mn324 2.162 . S
O339 C327 1.281 . S
O340 Mn324 2.297 . S
O340 C327 1.236 . S
N341 Mn325 2.282 . S
N341 C342 1.328 . S
N341 C346 1.318 . S
C342 N341 1.328 . S
C342 C343 1.457 . S
C342 H347 0.929 . S
C343 C342 1.457 . S
C343 C344 1.291 . S
C343 H356 0.931 . S
C344 C343 1.291 . S
C344 C345 1.373 . S
C344 H357 0.929 . S
C345 C344 1.373 . S
C345 C346 1.396 . S
C345 C352 1.403 . S
C346 C336 1.476 . S
C346 N341 1.318 . S
C346 C345 1.396 . S
H347 C342 0.929 . S
O348 Mn324 2.385 . S
O348 C326 1.234 . S
O349 Mn324 2.209 . S
O349 Mn325 2.215 . S
O349 C326 1.283 . S
O350 Mn324 2.094 . S
O350 C328 1.240 . S
O351 Mn325 2.117 . S
O351 C328 1.264 . S
C352 C345 1.403 . S
C352 C353 1.399 . S
C352 H358 0.929 . S
C353 C333 1.449 . S
C353 C352 1.399 . S
C353 H359 0.930 . S
H354 C334 0.931 . S
H355 C335 0.930 . S
H356 C343 0.931 . S
H357 C344 0.929 . S
H358 C352 0.929 . S
H359 C353 0.930 . S
Mn360 O365 2.116 . S
Mn360 O375 2.160 . S
Mn360 O376 2.295 . S
Mn360 O384 2.364 1_565 S
Mn360 O385 2.201 1_565 S
Mn360 O386 2.093 . S
Mn361 O366 2.121 1_545 S
Mn361 N368 2.257 . S
Mn361 N377 2.282 . S
Mn361 O385 2.215 . S
Mn361 O387 2.117 . S
C362 O384 1.234 . S
C362 O385 1.283 . S
C363 O375 1.281 . S
C363 O376 1.236 . S
C364 O386 1.246 1_545 S
C364 O387 1.264 . S
O365 Mn360 2.116 . S
O365 C374 1.250 . S
O366 Mn361 2.121 1_565 S
O366 C374 1.258 . S
C367 N368 1.326 . S
C367 C371 1.460 . S
C367 H373 0.929 . S
N368 Mn361 2.257 . S
N368 C367 1.326 . S
N368 C372 1.362 . S
C369 C370 1.258 . S
C369 C372 1.431 . S
C369 C389 1.449 . S
C370 C369 1.258 . S
C370 C371 1.477 . S
C370 H390 0.931 . S
C371 C367 1.460 . S
C371 C370 1.477 . S
C371 H391 0.930 . S
C372 N368 1.362 . S
C372 C369 1.431 . S
C372 C382 1.476 . S
H373 C367 0.929 . S
C374 O365 1.250 . S
C374 O366 1.258 . S
O375 Mn360 2.160 . S
O375 C363 1.281 . S
O376 Mn360 2.295 . S
O376 C363 1.236 . S
N377 Mn361 2.282 . S
N377 C378 1.328 . S
N377 C382 1.318 . S
C378 N377 1.328 . S
C378 C379 1.457 . S
C378 H383 0.929 . S
C379 C378 1.457 . S
C379 C380 1.291 . S
C379 H392 0.931 . S
C380 C379 1.291 . S
C380 C381 1.373 . S
C380 H393 0.929 . S
C381 C380 1.373 . S
C381 C382 1.396 . S
C381 C388 1.403 . S
C382 C372 1.476 . S
C382 N377 1.318 . S
C382 C381 1.396 . S
H383 C378 0.929 . S
O384 Mn360 2.364 1_545 S
O384 C362 1.234 . S
O385 Mn360 2.201 1_545 S
O385 Mn361 2.215 . S
O385 C362 1.283 . S
O386 Mn360 2.093 . S
O386 C364 1.246 1_565 S
O387 Mn361 2.117 . S
O387 C364 1.264 . S
C388 C381 1.403 . S
C388 C389 1.399 . S
C388 H394 0.929 . S
C389 C369 1.449 . S
C389 C388 1.399 . S
C389 H395 0.930 . S
H390 C370 0.931 . S
H391 C371 0.930 . S
H392 C379 0.931 . S
H393 C380 0.929 . S
H394 C388 0.929 . S
H395 C389 0.930 . S
Mn396 O401 2.095 1_554 S
Mn396 O411 2.162 . S
Mn396 O412 2.297 . S
Mn396 O420 2.385 . S
Mn396 O421 2.209 . S
Mn396 O422 2.094 1_554 S
Mn397 O402 2.121 . S
Mn397 N404 2.257 1_565 S
Mn397 N413 2.282 . S
Mn397 O421 2.215 1_556 S
Mn397 O423 2.117 . S
C398 O420 1.234 . S
C398 O421 1.283 . S
C399 O411 1.281 . S
C399 O412 1.236 . S
C400 O422 1.240 . S
C400 O423 1.264 . S
O401 Mn396 2.095 1_556 S
O401 C410 1.250 . S
O402 Mn397 2.121 . S
O402 C410 1.258 . S
C403 N404 1.326 . S
C403 C407 1.461 1_556 S
C403 H409 0.929 1_556 S
N404 Mn397 2.257 1_545 S
N404 C403 1.326 . S
N404 C408 1.362 . S
C405 C406 1.258 . S
C405 C408 1.431 . S
C405 C425 1.449 . S
C406 C405 1.258 . S
C406 C407 1.465 1_556 S
C406 H426 0.931 . S
C407 C403 1.461 1_554 S
C407 C406 1.465 1_554 S
C407 H427 0.941 . S
C408 N404 1.362 . S
C408 C405 1.431 . S
C408 C418 1.476 . S
H409 C403 0.929 1_554 S
C410 O401 1.250 . S
C410 O402 1.258 . S
O411 Mn396 2.162 . S
O411 C399 1.281 . S
O412 Mn396 2.297 . S
O412 C399 1.236 . S
N413 Mn397 2.282 . S
N413 C414 1.328 . S
N413 C418 1.318 1_565 S
C414 N413 1.328 . S
C414 C415 1.457 . S
C414 H419 0.929 . S
C415 C414 1.457 . S
C415 C416 1.330 . S
C415 H428 0.931 . S
C416 C415 1.330 . S
C416 C417 1.339 1_565 S
C416 H429 0.926 1_565 S
C417 C416 1.339 1_545 S
C417 C418 1.396 . S
C417 C424 1.403 . S
C418 C408 1.476 . S
C418 N413 1.318 1_545 S
C418 C417 1.396 . S
H419 C414 0.929 . S
O420 Mn396 2.385 . S
O420 C398 1.234 . S
O421 Mn396 2.209 . S
O421 Mn397 2.215 1_554 S
O421 C398 1.283 . S
O422 Mn396 2.094 1_556 S
O422 C400 1.240 . S
O423 Mn397 2.117 . S
O423 C400 1.264 . S
C424 C417 1.403 . S
C424 C425 1.399 . S
C424 H430 0.929 . S
C425 C405 1.449 . S
C425 C424 1.399 . S
C425 H431 0.930 . S
H426 C406 0.931 . S
H427 C407 0.941 . S
H428 C415 0.931 . S
H429 C416 0.926 1_545 S
H430 C424 0.929 . S
H431 C425 0.930 . S
Mn432 O437 2.095 . S
Mn432 O447 2.162 . S
Mn432 O448 2.297 . S
Mn432 O456 2.385 . S
Mn432 O457 2.209 . S
Mn432 O458 2.094 1_554 S
Mn433 O438 2.122 . S
Mn433 N440 2.257 . S
Mn433 N449 2.281 1_554 S
Mn433 O457 2.216 . S
Mn433 O459 2.117 1_554 S
C434 O456 1.234 . S
C434 O457 1.283 . S
C435 O447 1.281 . S
C435 O448 1.236 . S
C436 O458 1.240 . S
C436 O459 1.264 . S
O437 Mn432 2.095 . S
O437 C446 1.250 . S
O438 Mn433 2.122 . S
O438 C446 1.258 . S
C439 N440 1.326 . S
C439 C443 1.460 . S
C439 H445 0.929 . S
N440 Mn433 2.257 . S
N440 C439 1.326 . S
N440 C444 1.362 . S
C441 C442 1.258 . S
C441 C444 1.431 . S
C441 C461 1.467 . S
C442 C441 1.258 . S
C442 C443 1.477 . S
C442 H462 0.931 . S
C443 C439 1.460 . S
C443 C442 1.477 . S
C443 H463 0.930 . S
C444 N440 1.362 . S
C444 C441 1.431 . S
C444 C454 1.476 1_554 S
H445 C439 0.929 . S
C446 O437 1.250 . S
C446 O438 1.258 . S
O447 Mn432 2.162 . S
O447 C435 1.281 . S
O448 Mn432 2.297 . S
O448 C435 1.236 . S
N449 Mn433 2.281 1_556 S
N449 C450 1.328 . S
N449 C454 1.318 . S
C450 N449 1.328 . S
C450 C451 1.457 . S
C450 H455 0.929 . S
C451 C450 1.457 . S
C451 C452 1.291 . S
C451 H464 0.931 . S
C452 C451 1.291 . S
C452 C453 1.373 . S
C452 H465 0.929 . S
C453 C452 1.373 . S
C453 C454 1.396 . S
C453 C460 1.403 . S
C454 C444 1.476 1_556 S
C454 N449 1.318 . S
C454 C453 1.396 . S
H455 C450 0.929 . S
O456 Mn432 2.385 . S
O456 C434 1.234 . S
O457 Mn432 2.209 . S
O457 Mn433 2.216 . S
O457 C434 1.283 . S
O458 Mn432 2.094 1_556 S
O458 C436 1.240 . S
O459 Mn433 2.117 1_556 S
O459 C436 1.264 . S
C460 C453 1.403 . S
C460 C461 1.385 1_556 S
C460 H466 0.929 . S
C461 C441 1.467 . S
C461 C460 1.385 1_554 S
C461 H467 0.927 . S
H462 C442 0.931 . S
H463 C443 0.930 . S
H464 C451 0.931 . S
H465 C452 0.929 . S
H466 C460 0.929 . S
H467 C461 0.927 . S
Mn468 O473 2.095 . S
Mn468 O483 2.162 . S
Mn468 O484 2.297 . S
Mn468 O492 2.385 . S
Mn468 O493 2.209 . S
Mn468 O494 2.094 . S
Mn469 O474 2.121 1_556 S
Mn469 N476 2.257 . S
Mn469 N485 2.282 . S
Mn469 O493 2.215 1_556 S
Mn469 O495 2.117 . S
C470 O492 1.234 . S
C470 O493 1.283 . S
C471 O483 1.281 . S
C471 O484 1.236 . S
C472 O494 1.240 1_556 S
C472 O495 1.264 . S
O473 Mn468 2.095 . S
O473 C482 1.250 . S
O474 Mn469 2.121 1_554 S
O474 C482 1.258 . S
C475 N476 1.326 . S
C475 C479 1.460 1_545 S
C475 H481 0.929 1_556 S
N476 Mn469 2.257 . S
N476 C475 1.326 . S
N476 C480 1.362 . S
C477 C478 1.258 1_545 S
C477 C480 1.431 . S
C477 C497 1.449 1_545 S
C478 C477 1.258 1_565 S
C478 C479 1.477 . S
C478 H498 0.931 . S
C479 C475 1.460 1_565 S
C479 C478 1.477 . S
C479 H499 0.930 . S
C480 N476 1.362 . S
C480 C477 1.431 . S
C480 C490 1.476 . S
H481 C475 0.929 1_554 S
C482 O473 1.250 . S
C482 O474 1.258 . S
O483 Mn468 2.162 . S
O483 C471 1.281 . S
O484 Mn468 2.297 . S
O484 C471 1.236 . S
N485 Mn469 2.282 . S
N485 C486 1.328 . S
N485 C490 1.318 . S
C486 N485 1.328 . S
C486 C487 1.457 . S
C486 H491 0.929 . S
C487 C486 1.457 . S
C487 C488 1.291 . S
C487 H500 0.931 . S
C488 C487 1.291 . S
C488 C489 1.373 . S
C488 H501 0.929 . S
C489 C488 1.373 . S
C489 C490 1.396 . S
C489 C496 1.403 . S
C490 C480 1.476 . S
C490 N485 1.318 . S
C490 C489 1.396 . S
H491 C486 0.929 . S
O492 Mn468 2.385 . S
O492 C470 1.234 . S
O493 Mn468 2.209 . S
O493 Mn469 2.215 1_554 S
O493 C470 1.283 . S
O494 Mn468 2.094 . S
O494 C472 1.240 1_554 S
O495 Mn469 2.117 . S
O495 C472 1.264 . S
C496 C489 1.403 . S
C496 C497 1.399 1_545 S
C496 H502 0.929 . S
C497 C477 1.449 1_565 S
C497 C496 1.399 1_565 S
C497 H503 0.930 . S
H498 C478 0.931 . S
H499 C479 0.930 . S
H500 C487 0.931 . S
H501 C488 0.929 . S
H502 C496 0.929 . S
H503 C497 0.930 . S
Mn504 O509 2.095 . S
Mn504 O519 2.162 . S
Mn504 O520 2.297 . S
Mn504 O528 2.385 . S
Mn504 O529 2.209 . S
Mn504 O530 2.094 . S
Mn505 O510 2.121 . S
Mn505 N512 2.257 . S
Mn505 N521 2.282 . S
Mn505 O529 2.215 . S
Mn505 O531 2.117 . S
C506 O528 1.234 . S
C506 O529 1.283 . S
C507 O519 1.281 . S
C507 O520 1.236 . S
C508 O530 1.240 . S
C508 O531 1.264 . S
O509 Mn504 2.095 . S
O509 C518 1.250 . S
O510 Mn505 2.121 . S
O510 C518 1.258 . S
C511 N512 1.326 . S
C511 C515 1.460 . S
C511 H517 0.929 . S
N512 Mn505 2.257 . S
N512 C511 1.326 . S
N512 C516 1.362 . S
C513 C514 1.258 . S
C513 C516 1.431 . S
C513 C533 1.449 . S
C514 C513 1.258 . S
C514 C515 1.477 . S
C514 H534 0.931 . S
C515 C511 1.460 . S
C515 C514 1.477 . S
C515 H535 0.930 . S
C516 N512 1.362 . S
C516 C513 1.431 . S
C516 C526 1.476 . S
H517 C511 0.929 . S
C518 O509 1.250 . S
C518 O510 1.258 . S
O519 Mn504 2.162 . S
O519 C507 1.281 . S
O520 Mn504 2.297 . S
O520 C507 1.236 . S
N521 Mn505 2.282 . S
N521 C522 1.328 . S
N521 C526 1.318 . S
C522 N521 1.328 . S
C522 C523 1.457 . S
C522 H527 0.929 . S
C523 C522 1.457 . S
C523 C524 1.291 . S
C523 H536 0.931 . S
C524 C523 1.291 . S
C524 C525 1.373 . S
C524 H537 0.929 . S
C525 C524 1.373 . S
C525 C526 1.396 . S
C525 C532 1.403 . S
C526 C516 1.476 . S
C526 N521 1.318 . S
C526 C525 1.396 . S
H527 C522 0.929 . S
O528 Mn504 2.385 . S
O528 C506 1.234 . S
O529 Mn504 2.209 . S
O529 Mn505 2.215 . S
O529 C506 1.283 . S
O530 Mn504 2.094 . S
O530 C508 1.240 . S
O531 Mn505 2.117 . S
O531 C508 1.264 . S
C532 C525 1.403 . S
C532 C533 1.399 . S
C532 H538 0.929 . S
C533 C513 1.449 . S
C533 C532 1.399 . S
C533 H539 0.930 . S
H534 C514 0.931 . S
H535 C515 0.930 . S
H536 C523 0.931 . S
H537 C524 0.929 . S
H538 C532 0.929 . S
H539 C533 0.930 . S
Mn540 O545 2.095 . S
Mn540 O555 2.162 . S
Mn540 O556 2.297 . S
Mn540 O564 2.385 . S
Mn540 O565 2.209 . S
Mn540 O566 2.094 . S
Mn541 O546 2.121 . S
Mn541 N548 2.257 . S
Mn541 N557 2.282 . S
Mn541 O565 2.215 . S
Mn541 O567 2.117 . S
C542 O564 1.234 . S
C542 O565 1.283 . S
C543 O555 1.281 . S
C543 O556 1.236 . S
C544 O566 1.240 . S
C544 O567 1.264 . S
O545 Mn540 2.095 . S
O545 C554 1.250 . S
O546 Mn541 2.121 . S
O546 C554 1.258 . S
C547 N548 1.326 . S
C547 C551 1.460 1_565 S
C547 H553 0.929 . S
N548 Mn541 2.257 . S
N548 C547 1.326 . S
N548 C552 1.362 . S
C549 C550 1.258 . S
C549 C552 1.431 1_545 S
C549 C569 1.449 . S
C550 C549 1.258 . S
C550 C551 1.477 . S
C550 H570 0.931 . S
C551 C547 1.460 1_545 S
C551 C550 1.477 . S
C551 H571 0.930 . S
C552 N548 1.362 . S
C552 C549 1.431 1_565 S
C552 C562 1.476 . S
H553 C547 0.929 . S
C554 O545 1.250 . S
C554 O546 1.258 . S
O555 Mn540 2.162 . S
O555 C543 1.281 . S
O556 Mn540 2.297 . S
O556 C543 1.236 . S
N557 Mn541 2.282 . S
N557 C558 1.328 . S
N557 C562 1.318 . S
C558 N557 1.328 . S
C558 C559 1.457 . S
C558 H563 0.929 . S
C559 C558 1.457 . S
C559 C560 1.291 . S
C559 H572 0.931 . S
C560 C559 1.291 . S
C560 C561 1.373 . S
C560 H573 0.929 . S
C561 C560 1.373 . S
C561 C562 1.396 . S
C561 C568 1.403 . S
C562 C552 1.476 . S
C562 N557 1.318 . S
C562 C561 1.396 . S
H563 C558 0.929 . S
O564 Mn540 2.385 . S
O564 C542 1.234 . S
O565 Mn540 2.209 . S
O565 Mn541 2.215 . S
O565 C542 1.283 . S
O566 Mn540 2.094 . S
O566 C544 1.240 . S
O567 Mn541 2.117 . S
O567 C544 1.264 . S
C568 C561 1.403 . S
C568 C569 1.399 1_565 S
C568 H574 0.929 . S
C569 C549 1.449 . S
C569 C568 1.399 1_545 S
C569 H575 0.930 . S
H570 C550 0.931 . S
H571 C551 0.930 . S
H572 C559 0.931 . S
H573 C560 0.929 . S
H574 C568 0.929 . S
H575 C569 0.930 . S
Mn576 O581 2.095 . S
Mn576 O591 2.162 . S
Mn576 O592 2.297 . S
Mn576 O600 2.385 . S
Mn576 O601 2.209 . S
Mn576 O602 2.094 . S
Mn577 O582 2.121 . S
Mn577 N584 2.257 . S
Mn577 N593 2.282 . S
Mn577 O601 2.215 . S
Mn577 O603 2.117 . S
C578 O600 1.234 . S
C578 O601 1.283 . S
C579 O591 1.281 . S
C579 O592 1.236 . S
C580 O602 1.240 . S
C580 O603 1.264 . S
O581 Mn576 2.095 . S
O581 C590 1.250 . S
O582 Mn577 2.121 . S
O582 C590 1.258 . S
C583 N584 1.326 . S
C583 C587 1.460 . S
C583 H589 0.929 . S
N584 Mn577 2.257 . S
N584 C583 1.326 . S
N584 C588 1.362 . S
C585 C586 1.258 . S
C585 C588 1.431 . S
C585 C605 1.449 1_545 S
C586 C585 1.258 . S
C586 C587 1.477 . S
C586 H606 0.931 . S
C587 C583 1.460 . S
C587 C586 1.477 . S
C587 H607 0.930 . S
C588 N584 1.362 . S
C588 C585 1.431 . S
C588 C598 1.476 . S
H589 C583 0.929 . S
C590 O581 1.250 . S
C590 O582 1.258 . S
O591 Mn576 2.162 . S
O591 C579 1.281 . S
O592 Mn576 2.297 . S
O592 C579 1.236 . S
N593 Mn577 2.282 . S
N593 C594 1.328 . S
N593 C598 1.318 . S
C594 N593 1.328 . S
C594 C595 1.457 1_545 S
C594 H599 0.929 . S
C595 C594 1.457 1_565 S
C595 C596 1.291 . S
C595 H608 0.931 . S
C596 C595 1.291 . S
C596 C597 1.373 . S
C596 H609 0.929 . S
C597 C596 1.373 . S
C597 C598 1.396 1_565 S
C597 C604 1.403 . S
C598 C588 1.476 . S
C598 N593 1.318 . S
C598 C597 1.396 1_545 S
H599 C594 0.929 . S
O600 Mn576 2.385 . S
O600 C578 1.234 . S
O601 Mn576 2.209 . S
O601 Mn577 2.215 . S
O601 C578 1.283 . S
O602 Mn576 2.094 . S
O602 C580 1.240 . S
O603 Mn577 2.117 . S
O603 C580 1.264 . S
C604 C597 1.403 . S
C604 C605 1.399 . S
C604 H610 0.929 . S
C605 C585 1.449 1_565 S
C605 C604 1.399 . S
C605 H611 0.930 . S
H606 C586 0.931 . S
H607 C587 0.930 . S
H608 C595 0.931 . S
H609 C596 0.929 . S
H610 C604 0.929 . S
H611 C605 0.930 . S
Mn612 O617 2.095 . S
Mn612 O627 2.162 . S
Mn612 O628 2.297 . S
Mn612 O636 2.385 . S
Mn612 O637 2.209 . S
Mn612 O638 2.094 . S
Mn613 O618 2.121 . S
Mn613 N620 2.257 . S
Mn613 N629 2.282 . S
Mn613 O637 2.215 . S
Mn613 O639 2.117 . S
C614 O636 1.234 . S
C614 O637 1.283 . S
C615 O627 1.281 . S
C615 O628 1.236 . S
C616 O638 1.240 . S
C616 O639 1.264 . S
O617 Mn612 2.095 . S
O617 C626 1.250 . S
O618 Mn613 2.121 . S
O618 C626 1.258 . S
C619 N620 1.326 . S
C619 C623 1.460 . S
C619 H625 0.929 . S
N620 Mn613 2.257 . S
N620 C619 1.326 . S
N620 C624 1.362 . S
C621 C622 1.258 . S
C621 C624 1.431 . S
C621 C641 1.449 . S
C622 C621 1.258 . S
C622 C623 1.477 . S
C622 H642 0.931 . S
C623 C619 1.460 . S
C623 C622 1.477 . S
C623 H643 0.930 . S
C624 N620 1.362 . S
C624 C621 1.431 . S
C624 C634 1.476 . S
H625 C619 0.929 . S
C626 O617 1.250 . S
C626 O618 1.258 . S
O627 Mn612 2.162 . S
O627 C615 1.281 . S
O628 Mn612 2.297 . S
O628 C615 1.236 . S
N629 Mn613 2.282 . S
N629 C630 1.328 . S
N629 C634 1.318 . S
C630 N629 1.328 . S
C630 C631 1.457 . S
C630 H635 0.929 . S
C631 C630 1.457 . S
C631 C632 1.291 . S
C631 H644 0.931 . S
C632 C631 1.291 . S
C632 C633 1.373 . S
C632 H645 0.929 . S
C633 C632 1.373 . S
C633 C634 1.396 . S
C633 C640 1.403 . S
C634 C624 1.476 . S
C634 N629 1.318 . S
C634 C633 1.396 . S
H635 C630 0.929 . S
O636 Mn612 2.385 . S
O636 C614 1.234 . S
O637 Mn612 2.209 . S
O637 Mn613 2.215 . S
O637 C614 1.283 . S
O638 Mn612 2.094 . S
O638 C616 1.240 . S
O639 Mn613 2.117 . S
O639 C616 1.264 . S
C640 C633 1.403 . S
C640 C641 1.399 . S
C640 H646 0.929 . S
C641 C621 1.449 . S
C641 C640 1.399 . S
C641 H647 0.930 . S
H642 C622 0.931 . S
H643 C623 0.930 . S
H644 C631 0.931 . S
H645 C632 0.929 . S
H646 C640 0.929 . S
H647 C641 0.930 . S
Mn648 O653 2.095 . S
Mn648 O663 2.162 . S
Mn648 O664 2.297 . S
Mn648 O672 2.385 . S
Mn648 O673 2.209 . S
Mn648 O674 2.094 . S
Mn649 O654 2.121 . S
Mn649 N656 2.257 . S
Mn649 N665 2.282 . S
Mn649 O673 2.215 . S
Mn649 O675 2.117 . S
C650 O672 1.234 . S
C650 O673 1.283 . S
C651 O663 1.281 . S
C651 O664 1.236 . S
C652 O674 1.240 . S
C652 O675 1.264 . S
O653 Mn648 2.095 . S
O653 C662 1.250 . S
O654 Mn649 2.121 . S
O654 C662 1.258 . S
C655 N656 1.326 . S
C655 C659 1.460 . S
C655 H661 0.929 . S
N656 Mn649 2.257 . S
N656 C655 1.326 . S
N656 C660 1.362 . S
C657 C658 1.258 . S
C657 C660 1.431 . S
C657 C677 1.449 . S
C658 C657 1.258 . S
C658 C659 1.477 . S
C658 H678 0.931 . S
C659 C655 1.460 . S
C659 C658 1.477 . S
C659 H679 0.930 . S
C660 N656 1.362 . S
C660 C657 1.431 . S
C660 C670 1.476 . S
H661 C655 0.929 . S
C662 O653 1.250 . S
C662 O654 1.258 . S
O663 Mn648 2.162 . S
O663 C651 1.281 . S
O664 Mn648 2.297 . S
O664 C651 1.236 . S
N665 Mn649 2.282 . S
N665 C666 1.328 . S
N665 C670 1.318 . S
C666 N665 1.328 . S
C666 C667 1.457 . S
C666 H671 0.929 . S
C667 C666 1.457 . S
C667 C668 1.291 . S
C667 H680 0.931 . S
C668 C667 1.291 . S
C668 C669 1.373 . S
C668 H681 0.929 . S
C669 C668 1.373 . S
C669 C670 1.396 . S
C669 C676 1.403 . S
C670 C660 1.476 . S
C670 N665 1.318 . S
C670 C669 1.396 . S
H671 C666 0.929 . S
O672 Mn648 2.385 . S
O672 C650 1.234 . S
O673 Mn648 2.209 . S
O673 Mn649 2.215 . S
O673 C650 1.283 . S
O674 Mn648 2.094 . S
O674 C652 1.240 . S
O675 Mn649 2.117 . S
O675 C652 1.264 . S
C676 C669 1.403 . S
C676 C677 1.399 . S
C676 H682 0.929 . S
C677 C657 1.449 . S
C677 C676 1.399 . S
C677 H683 0.930 . S
H678 C658 0.931 . S
H679 C659 0.930 . S
H680 C667 0.931 . S
H681 C668 0.929 . S
H682 C676 0.929 . S
H683 C677 0.930 . S
Mn684 O689 2.095 . S
Mn684 O699 2.162 . S
Mn684 O700 2.297 . S
Mn684 O708 2.385 . S
Mn684 O709 2.209 . S
Mn684 O710 2.094 . S
Mn685 O690 2.121 . S
Mn685 N692 2.257 . S
Mn685 N701 2.282 . S
Mn685 O709 2.215 . S
Mn685 O711 2.117 . S
C686 O708 1.234 . S
C686 O709 1.283 . S
C687 O699 1.281 . S
C687 O700 1.236 . S
C688 O710 1.240 . S
C688 O711 1.264 . S
O689 Mn684 2.095 . S
O689 C698 1.250 . S
O690 Mn685 2.121 . S
O690 C698 1.258 . S
C691 N692 1.326 . S
C691 C695 1.460 . S
C691 H697 0.929 . S
N692 Mn685 2.257 . S
N692 C691 1.326 . S
N692 C696 1.362 . S
C693 C694 1.258 . S
C693 C696 1.431 . S
C693 C713 1.449 . S
C694 C693 1.258 . S
C694 C695 1.477 . S
C694 H714 0.931 . S
C695 C691 1.460 . S
C695 C694 1.477 . S
C695 H715 0.930 . S
C696 N692 1.362 . S
C696 C693 1.431 . S
C696 C706 1.476 . S
H697 C691 0.929 . S
C698 O689 1.250 . S
C698 O690 1.258 . S
O699 Mn684 2.162 . S
O699 C687 1.281 . S
O700 Mn684 2.297 . S
O700 C687 1.236 . S
N701 Mn685 2.282 . S
N701 C702 1.328 . S
N701 C706 1.318 . S
C702 N701 1.328 . S
C702 C703 1.457 . S
C702 H707 0.929 . S
C703 C702 1.457 . S
C703 C704 1.291 . S
C703 H716 0.931 . S
C704 C703 1.291 . S
C704 C705 1.373 . S
C704 H717 0.929 . S
C705 C704 1.373 . S
C705 C706 1.396 . S
C705 C712 1.403 . S
C706 C696 1.476 . S
C706 N701 1.318 . S
C706 C705 1.396 . S
H707 C702 0.929 . S
O708 Mn684 2.385 . S
O708 C686 1.234 . S
O709 Mn684 2.209 . S
O709 Mn685 2.215 . S
O709 C686 1.283 . S
O710 Mn684 2.094 . S
O710 C688 1.240 . S
O711 Mn685 2.117 . S
O711 C688 1.264 . S
C712 C705 1.403 . S
C712 C713 1.399 . S
C712 H718 0.929 . S
C713 C693 1.449 . S
C713 C712 1.399 . S
C713 H719 0.930 . S
H714 C694 0.931 . S
H715 C695 0.930 . S
H716 C703 0.931 . S
H717 C704 0.929 . S
H718 C712 0.929 . S
H719 C713 0.930 . S
Mn720 O725 2.095 1_554 S
Mn720 O735 2.162 . S
Mn720 O736 2.297 . S
Mn720 O744 2.385 . S
Mn720 O745 2.209 1_554 S
Mn720 O746 2.094 1_554 S
Mn721 O726 2.121 . S
Mn721 N728 2.257 . S
Mn721 N737 2.282 . S
Mn721 O745 2.215 . S
Mn721 O747 2.117 . S
C722 O744 1.234 1_556 S
C722 O745 1.283 . S
C723 O735 1.281 . S
C723 O736 1.236 . S
C724 O746 1.240 . S
C724 O747 1.264 . S
O725 Mn720 2.095 1_556 S
O725 C734 1.250 . S
O726 Mn721 2.121 . S
O726 C734 1.258 . S
C727 N728 1.326 . S
C727 C731 1.460 . S
C727 H733 0.929 . S
N728 Mn721 2.257 . S
N728 C727 1.326 . S
N728 C732 1.362 . S
C729 C730 1.258 . S
C729 C732 1.431 . S
C729 C749 1.449 . S
C730 C729 1.258 . S
C730 C731 1.477 . S
C730 H750 0.931 . S
C731 C727 1.460 . S
C731 C730 1.477 . S
C731 H751 0.930 . S
C732 N728 1.362 . S
C732 C729 1.431 . S
C732 C742 1.476 . S
H733 C727 0.929 . S
C734 O725 1.250 . S
C734 O726 1.258 . S
O735 Mn720 2.162 . S
O735 C723 1.281 . S
O736 Mn720 2.297 . S
O736 C723 1.236 . S
N737 Mn721 2.282 . S
N737 C738 1.328 . S
N737 C742 1.318 . S
C738 N737 1.328 . S
C738 C739 1.457 . S
C738 H743 0.929 . S
C739 C738 1.457 . S
C739 C740 1.291 . S
C739 H752 0.931 . S
C740 C739 1.291 . S
C740 C741 1.373 . S
C740 H753 0.929 . S
C741 C740 1.373 . S
C741 C742 1.396 . S
C741 C748 1.403 . S
C742 C732 1.476 . S
C742 N737 1.318 . S
C742 C741 1.396 . S
H743 C738 0.929 . S
O744 Mn720 2.385 . S
O744 C722 1.234 1_554 S
O745 Mn720 2.209 1_556 S
O745 Mn721 2.215 . S
O745 C722 1.283 . S
O746 Mn720 2.094 1_556 S
O746 C724 1.240 . S
O747 Mn721 2.117 . S
O747 C724 1.264 . S
C748 C741 1.403 . S
C748 C749 1.399 . S
C748 H754 0.929 . S
C749 C729 1.449 . S
C749 C748 1.399 . S
C749 H755 0.930 . S
H750 C730 0.931 . S
H751 C731 0.930 . S
H752 C739 0.931 . S
H753 C740 0.929 . S
H754 C748 0.929 . S
H755 C749 0.930 . S
Mn756 O761 2.095 . S
Mn756 O771 2.162 . S
Mn756 O772 2.297 . S
Mn756 O780 2.385 . S
Mn756 O781 2.209 . S
Mn756 O782 2.094 . S
Mn757 O762 2.121 . S
Mn757 N764 2.257 . S
Mn757 N773 2.282 . S
Mn757 O781 2.215 . S
Mn757 O783 2.117 . S
C758 O780 1.234 . S
C758 O781 1.283 . S
C759 O771 1.281 . S
C759 O772 1.236 . S
C760 O782 1.240 . S
C760 O783 1.264 . S
O761 Mn756 2.095 . S
O761 C770 1.250 . S
O762 Mn757 2.121 . S
O762 C770 1.258 . S
C763 N764 1.326 . S
C763 C767 1.460 . S
C763 H769 0.929 . S
N764 Mn757 2.257 . S
N764 C763 1.326 . S
N764 C768 1.362 . S
C765 C766 1.258 . S
C765 C768 1.431 . S
C765 C785 1.449 . S
C766 C765 1.258 . S
C766 C767 1.477 . S
C766 H786 0.931 . S
C767 C763 1.460 . S
C767 C766 1.477 . S
C767 H787 0.930 . S
C768 N764 1.362 . S
C768 C765 1.431 . S
C768 C778 1.476 . S
H769 C763 0.929 . S
C770 O761 1.250 . S
C770 O762 1.258 . S
O771 Mn756 2.162 . S
O771 C759 1.281 . S
O772 Mn756 2.297 . S
O772 C759 1.236 . S
N773 Mn757 2.282 . S
N773 C774 1.328 . S
N773 C778 1.318 . S
C774 N773 1.328 . S
C774 C775 1.457 . S
C774 H779 0.929 . S
C775 C774 1.457 . S
C775 C776 1.291 . S
C775 H788 0.931 . S
C776 C775 1.291 . S
C776 C777 1.373 . S
C776 H789 0.929 . S
C777 C776 1.373 . S
C777 C778 1.396 . S
C777 C784 1.403 . S
C778 C768 1.476 . S
C778 N773 1.318 . S
C778 C777 1.396 . S
H779 C774 0.929 . S
O780 Mn756 2.385 . S
O780 C758 1.234 . S
O781 Mn756 2.209 . S
O781 Mn757 2.215 . S
O781 C758 1.283 . S
O782 Mn756 2.094 . S
O782 C760 1.240 . S
O783 Mn757 2.117 . S
O783 C760 1.264 . S
C784 C777 1.403 . S
C784 C785 1.399 . S
C784 H790 0.929 . S
C785 C765 1.449 . S
C785 C784 1.399 . S
C785 H791 0.930 . S
H786 C766 0.931 . S
H787 C767 0.930 . S
H788 C775 0.931 . S
H789 C776 0.929 . S
H790 C784 0.929 . S
H791 C785 0.930 . S
Mn792 O797 2.095 . S
Mn792 O807 2.162 . S
Mn792 O808 2.297 . S
Mn792 O816 2.385 . S
Mn792 O817 2.209 . S
Mn792 O818 2.094 . S
Mn793 O798 2.121 . S
Mn793 N800 2.257 . S
Mn793 N809 2.282 . S
Mn793 O817 2.215 . S
Mn793 O819 2.117 . S
C794 O816 1.234 . S
C794 O817 1.283 . S
C795 O807 1.281 . S
C795 O808 1.236 . S
C796 O818 1.240 . S
C796 O819 1.264 . S
O797 Mn792 2.095 . S
O797 C806 1.250 . S
O798 Mn793 2.121 . S
O798 C806 1.258 . S
C799 N800 1.326 . S
C799 C803 1.460 . S
C799 H805 0.929 . S
N800 Mn793 2.257 . S
N800 C799 1.326 . S
N800 C804 1.362 . S
C801 C802 1.258 . S
C801 C804 1.431 . S
C801 C821 1.449 . S
C802 C801 1.258 . S
C802 C803 1.477 . S
C802 H822 0.931 . S
C803 C799 1.460 . S
C803 C802 1.477 . S
C803 H823 0.930 . S
C804 N800 1.362 . S
C804 C801 1.431 . S
C804 C814 1.476 . S
H805 C799 0.929 . S
C806 O797 1.250 . S
C806 O798 1.258 . S
O807 Mn792 2.162 . S
O807 C795 1.281 . S
O808 Mn792 2.297 . S
O808 C795 1.236 . S
N809 Mn793 2.282 . S
N809 C810 1.328 . S
N809 C814 1.318 . S
C810 N809 1.328 . S
C810 C811 1.457 . S
C810 H815 0.929 . S
C811 C810 1.457 . S
C811 C812 1.291 . S
C811 H824 0.931 . S
C812 C811 1.291 . S
C812 C813 1.373 . S
C812 H825 0.929 . S
C813 C812 1.373 . S
C813 C814 1.396 . S
C813 C820 1.403 . S
C814 C804 1.476 . S
C814 N809 1.318 . S
C814 C813 1.396 . S
H815 C810 0.929 . S
O816 Mn792 2.385 . S
O816 C794 1.234 . S
O817 Mn792 2.209 . S
O817 Mn793 2.215 . S
O817 C794 1.283 . S
O818 Mn792 2.094 . S
O818 C796 1.240 . S
O819 Mn793 2.117 . S
O819 C796 1.264 . S
C820 C813 1.403 . S
C820 C821 1.399 . S
C820 H826 0.929 . S
C821 C801 1.449 . S
C821 C820 1.399 . S
C821 H827 0.930 . S
H822 C802 0.931 . S
H823 C803 0.930 . S
H824 C811 0.931 . S
H825 C812 0.929 . S
H826 C820 0.929 . S
H827 C821 0.930 . S
Mn828 O833 2.095 . S
Mn828 O843 2.162 . S
Mn828 O844 2.297 . S
Mn828 O852 2.385 . S
Mn828 O853 2.209 . S
Mn828 O854 2.094 . S
Mn829 O834 2.121 . S
Mn829 N836 2.257 . S
Mn829 N845 2.282 . S
Mn829 O853 2.215 . S
Mn829 O855 2.117 . S
C830 O852 1.234 . S
C830 O853 1.283 . S
C831 O843 1.281 . S
C831 O844 1.236 . S
C832 O854 1.240 . S
C832 O855 1.264 . S
O833 Mn828 2.095 . S
O833 C842 1.250 . S
O834 Mn829 2.121 . S
O834 C842 1.258 . S
C835 N836 1.326 . S
C835 C839 1.460 . S
C835 H841 0.929 . S
N836 Mn829 2.257 . S
N836 C835 1.326 . S
N836 C840 1.362 . S
C837 C838 1.258 . S
C837 C840 1.431 . S
C837 C857 1.449 . S
C838 C837 1.258 . S
C838 C839 1.477 . S
C838 H858 0.931 . S
C839 C835 1.460 . S
C839 C838 1.477 . S
C839 H859 0.930 . S
C840 N836 1.362 . S
C840 C837 1.431 . S
C840 C850 1.476 . S
H841 C835 0.929 . S
C842 O833 1.250 . S
C842 O834 1.258 . S
O843 Mn828 2.162 . S
O843 C831 1.281 . S
O844 Mn828 2.297 . S
O844 C831 1.236 . S
N845 Mn829 2.282 . S
N845 C846 1.328 . S
N845 C850 1.318 . S
C846 N845 1.328 . S
C846 C847 1.457 . S
C846 H851 0.929 . S
C847 C846 1.457 . S
C847 C848 1.291 . S
C847 H860 0.931 . S
C848 C847 1.291 . S
C848 C849 1.373 . S
C848 H861 0.929 . S
C849 C848 1.373 . S
C849 C850 1.396 . S
C849 C856 1.403 . S
C850 C840 1.476 . S
C850 N845 1.318 . S
C850 C849 1.396 . S
H851 C846 0.929 . S
O852 Mn828 2.385 . S
O852 C830 1.234 . S
O853 Mn828 2.209 . S
O853 Mn829 2.215 . S
O853 C830 1.283 . S
O854 Mn828 2.094 . S
O854 C832 1.240 . S
O855 Mn829 2.117 . S
O855 C832 1.264 . S
C856 C849 1.403 . S
C856 C857 1.399 . S
C856 H862 0.929 . S
C857 C837 1.449 . S
C857 C856 1.399 . S
C857 H863 0.930 . S
H858 C838 0.931 . S
H859 C839 0.930 . S
H860 C847 0.931 . S
H861 C848 0.929 . S
H862 C856 0.929 . S
H863 C857 0.930 . S
Eu864 N895 2.637 1_546 S
Eu864 N902 2.625 1_545 S
Eu864 O908 2.580 1_455 S
Eu864 O909 2.608 1_556 S
Eu864 O911 2.306 1_556 S
Eu864 O912 2.573 . S
Eu864 O913 2.411 1_456 S
Eu864 O915 2.370 1_556 S
Eu864 O916 2.459 . S
Eu864 C928 2.855 1_455 S
C865 C868 1.429 . S
C865 C869 1.411 . S
C865 N872 1.377 . S
C866 C868 1.420 . S
C866 C870 1.423 . S
C866 C878 1.392 1_554 S
C867 C869 1.420 . S
C867 C870 1.351 . S
C867 H890 0.931 . S
C868 C865 1.429 . S
C868 C866 1.420 . S
C868 N876 1.362 . S
C869 C865 1.411 . S
C869 C867 1.420 . S
C869 C874 1.395 . S
C870 C866 1.423 . S
C870 C867 1.351 . S
C870 H882 0.930 . S
C871 C873 1.400 . S
C871 C874 1.386 . S
C871 H883 0.930 . S
N872 C865 1.377 . S
N872 C873 1.321 . S
N872 Eu875 2.609 . S
C873 C871 1.400 . S
C873 N872 1.321 . S
C873 H880 0.930 . S
C874 C869 1.395 . S
C874 C871 1.386 . S
C874 H893 0.930 . S
Eu875 N872 2.609 . S
Eu875 N876 2.657 . S
Eu875 O909 2.380 . S
Eu875 O910 2.432 . S
Eu875 O914 2.558 . S
Eu875 O915 2.614 . S
Eu875 O917 2.339 1_554 S
Eu875 O918 2.563 1_545 S
Eu875 O919 2.419 . S
Eu875 C939 2.848 . S
N876 C868 1.362 . S
N876 Eu875 2.657 . S
N876 C877 1.334 1_554 S
C877 N876 1.334 1_556 S
C877 C879 1.413 . S
C877 H884 0.929 . S
C878 C866 1.392 1_556 S
C878 C879 1.367 . S
C878 H886 0.930 . S
C879 C877 1.413 . S
C879 C878 1.367 . S
C879 H881 0.930 . S
H880 C873 0.930 . S
H881 C879 0.930 . S
H882 C870 0.930 . S
H883 C871 0.930 . S
H884 C877 0.929 . S
H885 C899 0.932 . S
H886 C878 0.930 . S
H887 C905 0.930 . S
H888 C896 0.929 . S
H889 C903 0.930 . S
H890 C867 0.931 . S
H891 C897 0.930 . S
H892 C930 0.930 . S
H893 C874 0.930 . S
H894 C929 0.931 . S
N895 Eu864 2.637 1_564 S
N895 C896 1.334 . S
N895 C900 1.362 1_455 S
C896 H888 0.929 . S
C896 N895 1.334 . S
C896 C899 1.418 . S
C897 H891 0.930 . S
C897 C898 1.392 . S
C897 C899 1.362 1_655 S
C898 C897 1.392 . S
C898 C900 1.420 . S
C898 C930 1.423 1_554 S
C899 H885 0.932 . S
C899 C896 1.418 . S
C899 C897 1.362 1_455 S
C900 N895 1.362 1_655 S
C900 C898 1.420 . S
C900 C904 1.429 1_554 S
H901 C906 0.930 . S
N902 Eu864 2.625 1_565 S
N902 C904 1.377 1_455 S
N902 C905 1.321 . S
C903 H889 0.930 . S
C903 C905 1.400 1_655 S
C903 C906 1.386 . S
C904 C900 1.429 1_556 S
C904 N902 1.377 1_655 S
C904 C907 1.411 . S
C905 H887 0.930 . S
C905 N902 1.321 . S
C905 C903 1.400 1_455 S
C906 H901 0.930 . S
C906 C903 1.386 . S
C906 C907 1.395 . S
C907 C904 1.411 . S
C907 C906 1.395 . S
C907 C929 1.420 . S
O908 Eu864 2.580 1_655 S
O908 C928 1.257 . S
O909 Eu864 2.608 1_554 S
O909 Eu875 2.380 . S
O909 C920 1.276 . S
O910 Eu875 2.432 . S
O910 C927 1.264 . S
O911 Eu864 2.306 1_554 S
O911 C927 1.254 . S
O912 Eu864 2.573 . S
O912 C920 1.235 1_556 S
O913 Eu864 2.411 1_654 S
O913 C928 1.249 1_554 S
O914 Eu875 2.558 . S
O914 C939 1.257 . S
O915 Eu864 2.370 1_554 S
O915 Eu875 2.614 . S
O915 C931 1.274 1_545 S
O916 Eu864 2.459 . S
O916 C938 1.264 . S
O917 Eu875 2.339 1_556 S
O917 C938 1.254 . S
O918 Eu875 2.563 1_565 S
O918 C931 1.235 . S
O919 Eu875 2.419 . S
O919 C939 1.249 . S
C920 O909 1.276 . S
C920 O912 1.235 1_554 S
C921 C923 1.393 . S
C921 C925 1.395 . S
C921 C928 1.492 . S
C922 C923 1.392 . S
C922 C924 1.386 . S
C923 C921 1.393 . S
C923 C922 1.392 . S
C923 H940 0.930 1_556 S
C924 C922 1.386 . S
C924 C926 1.395 . S
C924 H941 0.930 . S
C925 C921 1.395 . S
C925 C926 1.379 . S
C925 H942 0.930 1_545 S
C926 C924 1.395 . S
C926 C925 1.379 . S
C926 H943 0.930 . S
C927 O910 1.264 . S
C927 O911 1.254 . S
C928 Eu864 2.855 1_655 S
C928 O908 1.257 . S
C928 O913 1.249 1_556 S
C928 C921 1.492 . S
C929 H894 0.931 . S
C929 C907 1.420 . S
C929 C930 1.351 . S
C930 H892 0.930 . S
C930 C898 1.423 1_556 S
C930 C929 1.351 . S
C931 O915 1.274 1_565 S
C931 O918 1.235 . S
C932 C933 1.393 . S
C932 C936 1.395 . S
C932 C939 1.492 . S
C933 C932 1.393 . S
C933 C934 1.392 . S
C933 H944 0.930 . S
C934 C933 1.392 . S
C934 C935 1.386 . S
C935 C934 1.386 . S
C935 C937 1.395 . S
C935 H945 0.930 . S
C936 C932 1.395 . S
C936 C937 1.379 . S
C936 H946 0.930 . S
C937 C935 1.395 . S
C937 C936 1.379 . S
C937 H947 0.930 . S
C938 O916 1.264 . S
C938 O917 1.254 . S
C939 Eu875 2.848 . S
C939 O914 1.257 . S
C939 O919 1.249 . S
C939 C932 1.492 . S
H940 C923 0.930 1_554 S
H941 C924 0.930 . S
H942 C925 0.930 1_565 S
H943 C926 0.930 . S
H944 C933 0.930 . S
H945 C935 0.930 . S
H946 C936 0.930 . S
H947 C937 0.930 . S
Eu948 N979 2.657 . S
Eu948 N986 2.609 . S
Eu948 O992 2.558 . S
Eu948 O993 2.612 . S
Eu948 O995 2.339 . S
Eu948 O996 2.563 . S
Eu948 O997 2.419 . S
Eu948 O999 2.380 . S
Eu948 O1000 2.432 . S
Eu948 C1012 2.848 . S
C949 C952 1.429 . S
C949 C953 1.411 . S
C949 N956 1.377 . S
C950 C952 1.420 . S
C950 C954 1.423 . S
C950 C962 1.392 . S
C951 C953 1.420 . S
C951 C954 1.351 . S
C951 H974 0.931 . S
C952 C949 1.429 . S
C952 C950 1.420 . S
C952 N960 1.362 . S
C953 C949 1.411 . S
C953 C951 1.420 . S
C953 C958 1.395 . S
C954 C950 1.423 . S
C954 C951 1.351 . S
C954 H966 0.930 . S
C955 C957 1.400 . S
C955 C958 1.386 . S
C955 H967 0.930 . S
N956 C949 1.377 . S
N956 C957 1.321 . S
N956 Eu959 2.609 . S
C957 C955 1.400 . S
C957 N956 1.321 . S
C957 H964 0.930 . S
C958 C953 1.395 . S
C958 C955 1.386 . S
C958 H977 0.930 . S
Eu959 N956 2.609 . S
Eu959 N960 2.657 . S
Eu959 O993 2.380 . S
Eu959 O994 2.432 . S
Eu959 O998 2.558 . S
Eu959 O999 2.612 . S
Eu959 O1001 2.339 . S
Eu959 O1002 2.563 . S
Eu959 O1003 2.419 . S
Eu959 C1023 2.848 . S
N960 C952 1.362 . S
N960 Eu959 2.657 . S
N960 C961 1.334 . S
C961 N960 1.334 . S
C961 C963 1.413 . S
C961 H968 0.929 . S
C962 C950 1.392 . S
C962 C963 1.367 . S
C962 H970 0.930 . S
C963 C961 1.413 . S
C963 C962 1.367 . S
C963 H965 0.930 . S
H964 C957 0.930 . S
H965 C963 0.930 . S
H966 C954 0.930 . S
H967 C955 0.930 . S
H968 C961 0.929 . S
H969 C983 0.930 . S
H970 C962 0.930 . S
H971 C989 0.930 . S
H972 C980 0.929 . S
H973 C987 0.930 . S
H974 C951 0.931 . S
H975 C981 0.930 . S
H976 C1014 0.930 . S
H977 C958 0.930 . S
H978 C1013 0.931 . S
N979 Eu948 2.657 . S
N979 C980 1.334 . S
N979 C984 1.362 . S
C980 H972 0.929 . S
C980 N979 1.334 . S
C980 C983 1.413 . S
C981 H975 0.930 . S
C981 C982 1.392 . S
C981 C983 1.367 . S
C982 C981 1.392 . S
C982 C984 1.420 . S
C982 C1014 1.423 . S
C983 H969 0.930 . S
C983 C980 1.413 . S
C983 C981 1.367 . S
C984 N979 1.362 . S
C984 C982 1.420 . S
C984 C988 1.429 . S
H985 C990 0.930 . S
N986 Eu948 2.609 . S
N986 C988 1.377 . S
N986 C989 1.321 . S
C987 H973 0.930 . S
C987 C989 1.400 . S
C987 C990 1.386 . S
C988 C984 1.429 . S
C988 N986 1.377 . S
C988 C991 1.411 . S
C989 H971 0.930 . S
C989 N986 1.321 . S
C989 C987 1.400 . S
C990 H985 0.930 . S
C990 C987 1.386 . S
C990 C991 1.395 . S
C991 C988 1.411 . S
C991 C990 1.395 . S
C991 C1013 1.420 . S
O992 Eu948 2.558 . S
O992 C1012 1.257 . S
O993 Eu948 2.612 . S
O993 Eu959 2.380 . S
O993 C1004 1.276 . S
O994 Eu959 2.432 . S
O994 C1011 1.264 . S
O995 Eu948 2.339 . S
O995 C1011 1.254 . S
O996 Eu948 2.563 . S
O996 C1004 1.235 . S
O997 Eu948 2.419 . S
O997 C1012 1.249 . S
O998 Eu959 2.558 . S
O998 C1023 1.257 . S
O999 Eu948 2.380 . S
O999 Eu959 2.612 . S
O999 C1015 1.276 . S
O1000 Eu948 2.432 . S
O1000 C1022 1.264 . S
O1001 Eu959 2.339 . S
O1001 C1022 1.254 . S
O1002 Eu959 2.563 . S
O1002 C1015 1.235 . S
O1003 Eu959 2.419 . S
O1003 C1023 1.249 . S
C1004 O993 1.276 . S
C1004 O996 1.235 . S
C1005 C1007 1.393 . S
C1005 C1009 1.395 . S
C1005 C1012 1.492 . S
C1006 C1007 1.392 . S
C1006 C1008 1.386 . S
C1007 C1005 1.393 . S
C1007 C1006 1.392 . S
C1007 H1024 0.930 . S
C1008 C1006 1.386 . S
C1008 C1010 1.395 . S
C1008 H1025 0.930 . S
C1009 C1005 1.395 . S
C1009 C1010 1.379 . S
C1009 H1026 0.930 . S
C1010 C1008 1.395 . S
C1010 C1009 1.379 . S
C1010 H1027 0.930 . S
C1011 O994 1.264 . S
C1011 O995 1.254 . S
C1012 Eu948 2.848 . S
C1012 O992 1.257 . S
C1012 O997 1.249 . S
C1012 C1005 1.492 . S
C1013 H978 0.931 . S
C1013 C991 1.420 . S
C1013 C1014 1.351 . S
C1014 H976 0.930 . S
C1014 C982 1.423 . S
C1014 C1013 1.351 . S
C1015 O999 1.276 . S
C1015 O1002 1.235 . S
C1016 C1017 1.393 . S
C1016 C1020 1.395 . S
C1016 C1023 1.492 . S
C1017 C1016 1.393 . S
C1017 C1018 1.392 . S
C1017 H1028 0.930 . S
C1018 C1017 1.392 . S
C1018 C1019 1.386 . S
C1019 C1018 1.386 . S
C1019 C1021 1.395 . S
C1019 H1029 0.930 . S
C1020 C1016 1.395 . S
C1020 C1021 1.379 . S
C1020 H1030 0.930 . S
C1021 C1019 1.395 . S
C1021 C1020 1.379 . S
C1021 H1031 0.930 . S
C1022 O1000 1.264 . S
C1022 O1001 1.254 . S
C1023 Eu959 2.848 . S
C1023 O998 1.257 . S
C1023 O1003 1.249 . S
C1023 C1016 1.492 . S
H1024 C1007 0.930 . S
H1025 C1008 0.930 . S
H1026 C1009 0.930 . S
H1027 C1010 0.930 . S
H1028 C1017 0.930 . S
H1029 C1019 0.930 . S
H1030 C1020 0.930 . S
H1031 C1021 0.930 . S
Eu1032 N1063 2.657 . S
Eu1032 N1070 2.609 . S
Eu1032 O1076 2.558 . S
Eu1032 O1077 2.612 . S
Eu1032 O1079 2.339 . S
Eu1032 O1080 2.563 1_545 S
Eu1032 O1081 2.419 . S
Eu1032 O1083 2.380 . S
Eu1032 O1084 2.432 . S
Eu1032 C1096 2.848 . S
C1033 C1036 1.429 . S
C1033 C1037 1.411 . S
C1033 N1040 1.377 1_565 S
C1034 C1036 1.420 . S
C1034 C1038 1.423 . S
C1034 C1046 1.392 . S
C1035 C1037 1.420 . S
C1035 C1038 1.351 . S
C1035 H1058 0.931 . S
C1036 C1033 1.429 . S
C1036 C1034 1.420 . S
C1036 N1044 1.362 . S
C1037 C1033 1.411 . S
C1037 C1035 1.420 . S
C1037 C1042 1.395 . S
C1038 C1034 1.423 . S
C1038 C1035 1.351 . S
C1038 H1050 0.930 . S
C1039 C1041 1.400 . S
C1039 C1042 1.386 1_545 S
C1039 H1051 0.930 . S
N1040 C1033 1.377 1_545 S
N1040 C1041 1.321 . S
N1040 Eu1043 2.609 . S
C1041 C1039 1.400 . S
C1041 N1040 1.321 . S
C1041 H1048 0.930 . S
C1042 C1037 1.395 . S
C1042 C1039 1.386 1_565 S
C1042 H1061 0.930 . S
Eu1043 N1040 2.609 . S
Eu1043 N1044 2.657 1_545 S
Eu1043 O1077 2.380 . S
Eu1043 O1078 2.432 . S
Eu1043 O1082 2.558 . S
Eu1043 O1083 2.612 . S
Eu1043 O1085 2.339 . S
Eu1043 O1086 2.563 . S
Eu1043 O1087 2.419 . S
Eu1043 C1107 2.848 . S
N1044 C1036 1.362 . S
N1044 Eu1043 2.657 1_565 S
N1044 C1045 1.334 . S
C1045 N1044 1.334 . S
C1045 C1047 1.413 . S
C1045 H1052 0.929 . S
C1046 C1034 1.392 . S
C1046 C1047 1.367 . S
C1046 H1054 0.930 . S
C1047 C1045 1.413 . S
C1047 C1046 1.367 . S
C1047 H1049 0.930 . S
H1048 C1041 0.930 . S
H1049 C1047 0.930 . S
H1050 C1038 0.930 . S
H1051 C1039 0.930 . S
H1052 C1045 0.929 . S
H1053 C1067 0.930 . S
H1054 C1046 0.930 . S
H1055 C1073 0.930 . S
H1056 C1064 0.929 . S
H1057 C1071 0.930 . S
H1058 C1035 0.931 . S
H1059 C1065 0.930 . S
H1060 C1098 0.930 . S
H1061 C1042 0.930 . S
H1062 C1097 0.931 . S
N1063 Eu1032 2.657 . S
N1063 C1064 1.334 . S
N1063 C1068 1.362 . S
C1064 H1056 0.929 . S
C1064 N1063 1.334 . S
C1064 C1067 1.413 . S
C1065 H1059 0.930 . S
C1065 C1066 1.392 . S
C1065 C1067 1.367 . S
C1066 C1065 1.392 . S
C1066 C1068 1.420 . S
C1066 C1098 1.423 . S
C1067 H1053 0.930 . S
C1067 C1064 1.413 . S
C1067 C1065 1.367 . S
C1068 N1063 1.362 . S
C1068 C1066 1.420 . S
C1068 C1072 1.429 . S
H1069 C1074 0.930 . S
N1070 Eu1032 2.609 . S
N1070 C1072 1.377 . S
N1070 C1073 1.321 . S
C1071 H1057 0.930 . S
C1071 C1073 1.400 . S
C1071 C1074 1.386 . S
C1072 C1068 1.429 . S
C1072 N1070 1.377 . S
C1072 C1075 1.411 . S
C1073 H1055 0.930 . S
C1073 N1070 1.321 . S
C1073 C1071 1.400 . S
C1074 H1069 0.930 . S
C1074 C1071 1.386 . S
C1074 C1075 1.395 . S
C1075 C1072 1.411 . S
C1075 C1074 1.395 . S
C1075 C1097 1.420 . S
O1076 Eu1032 2.558 . S
O1076 C1096 1.257 . S
O1077 Eu1032 2.612 . S
O1077 Eu1043 2.380 . S
O1077 C1088 1.276 1_545 S
O1078 Eu1043 2.432 . S
O1078 C1095 1.264 . S
O1079 Eu1032 2.339 . S
O1079 C1095 1.254 . S
O1080 Eu1032 2.563 1_565 S
O1080 C1088 1.235 . S
O1081 Eu1032 2.419 . S
O1081 C1096 1.249 . S
O1082 Eu1043 2.558 . S
O1082 C1107 1.257 . S
O1083 Eu1032 2.380 . S
O1083 Eu1043 2.612 . S
O1083 C1099 1.276 . S
O1084 Eu1032 2.432 . S
O1084 C1106 1.264 . S
O1085 Eu1043 2.339 . S
O1085 C1106 1.254 . S
O1086 Eu1043 2.563 . S
O1086 C1099 1.235 . S
O1087 Eu1043 2.419 . S
O1087 C1107 1.249 . S
C1088 O1077 1.276 1_565 S
C1088 O1080 1.235 . S
C1089 C1091 1.393 1_545 S
C1089 C1093 1.395 . S
C1089 C1096 1.492 . S
C1090 C1091 1.392 . S
C1090 C1092 1.386 . S
C1091 C1089 1.393 1_565 S
C1091 C1090 1.392 . S
C1091 H1108 0.930 . S
C1092 C1090 1.386 . S
C1092 C1094 1.395 . S
C1092 H1109 0.930 . S
C1093 C1089 1.395 . S
C1093 C1094 1.379 1_545 S
C1093 H1110 0.930 . S
C1094 C1092 1.395 . S
C1094 C1093 1.379 1_565 S
C1094 H1111 0.930 . S
C1095 O1078 1.264 . S
C1095 O1079 1.254 . S
C1096 Eu1032 2.848 . S
C1096 O1076 1.257 . S
C1096 O1081 1.249 . S
C1096 C1089 1.492 . S
C1097 H1062 0.931 . S
C1097 C1075 1.420 . S
C1097 C1098 1.351 . S
C1098 H1060 0.930 . S
C1098 C1066 1.423 . S
C1098 C1097 1.351 . S
C1099 O1083 1.276 . S
C1099 O1086 1.235 . S
C1100 C1101 1.393 . S
C1100 C1104 1.395 . S
C1100 C1107 1.492 . S
C1101 C1100 1.393 . S
C1101 C1102 1.392 . S
C1101 H1112 0.930 . S
C1102 C1101 1.392 . S
C1102 C1103 1.386 . S
C1103 C1102 1.386 . S
C1103 C1105 1.395 . S
C1103 H1113 0.930 . S
C1104 C1100 1.395 . S
C1104 C1105 1.379 . S
C1104 H1114 0.930 . S
C1105 C1103 1.395 . S
C1105 C1104 1.379 . S
C1105 H1115 0.930 . S
C1106 O1084 1.264 . S
C1106 O1085 1.254 . S
C1107 Eu1043 2.848 . S
C1107 O1082 1.257 . S
C1107 O1087 1.249 . S
C1107 C1100 1.492 . S
H1108 C1091 0.930 . S
H1109 C1092 0.930 . S
H1110 C1093 0.930 . S
H1111 C1094 0.930 . S
H1112 C1101 0.930 . S
H1113 C1103 0.930 . S
H1114 C1104 0.930 . S
H1115 C1105 0.930 . S
Eu1116 N1147 2.657 . S
Eu1116 N1154 2.609 . S
Eu1116 O1160 2.558 . S
Eu1116 O1161 2.612 . S
Eu1116 O1163 2.339 . S
Eu1116 O1164 2.563 . S
Eu1116 O1165 2.419 . S
Eu1116 O1167 2.380 . S
Eu1116 O1168 2.432 . S
Eu1116 C1180 2.848 . S
C1117 C1120 1.429 . S
C1117 C1121 1.411 . S
C1117 N1124 1.377 . S
C1118 C1120 1.420 . S
C1118 C1122 1.423 . S
C1118 C1130 1.392 . S
C1119 C1121 1.420 . S
C1119 C1122 1.351 . S
C1119 H1142 0.931 . S
C1120 C1117 1.429 . S
C1120 C1118 1.420 . S
C1120 N1128 1.362 . S
C1121 C1117 1.411 . S
C1121 C1119 1.420 . S
C1121 C1126 1.395 . S
C1122 C1118 1.423 . S
C1122 C1119 1.351 . S
C1122 H1134 0.930 . S
C1123 C1125 1.400 . S
C1123 C1126 1.386 . S
C1123 H1135 0.930 . S
N1124 C1117 1.377 . S
N1124 C1125 1.321 . S
N1124 Eu1127 2.609 . S
C1125 C1123 1.400 . S
C1125 N1124 1.321 . S
C1125 H1132 0.930 . S
C1126 C1121 1.395 . S
C1126 C1123 1.386 . S
C1126 H1145 0.930 . S
Eu1127 N1124 2.609 . S
Eu1127 N1128 2.657 . S
Eu1127 O1161 2.380 . S
Eu1127 O1162 2.432 . S
Eu1127 O1166 2.558 . S
Eu1127 O1167 2.612 . S
Eu1127 O1169 2.339 . S
Eu1127 O1170 2.563 . S
Eu1127 O1171 2.419 . S
Eu1127 C1191 2.848 . S
N1128 C1120 1.362 . S
N1128 Eu1127 2.657 . S
N1128 C1129 1.334 . S
C1129 N1128 1.334 . S
C1129 C1131 1.413 . S
C1129 H1136 0.929 . S
C1130 C1118 1.392 . S
C1130 C1131 1.367 . S
C1130 H1138 0.930 . S
C1131 C1129 1.413 . S
C1131 C1130 1.367 . S
C1131 H1133 0.930 . S
H1132 C1125 0.930 . S
H1133 C1131 0.930 . S
H1134 C1122 0.930 . S
H1135 C1123 0.930 . S
H1136 C1129 0.929 . S
H1137 C1151 0.930 . S
H1138 C1130 0.930 . S
H1139 C1157 0.930 . S
H1140 C1148 0.929 . S
H1141 C1155 0.930 . S
H1142 C1119 0.931 . S
H1143 C1149 0.930 . S
H1144 C1182 0.930 . S
H1145 C1126 0.930 . S
H1146 C1181 0.931 . S
N1147 Eu1116 2.657 . S
N1147 C1148 1.334 . S
N1147 C1152 1.362 . S
C1148 H1140 0.929 . S
C1148 N1147 1.334 . S
C1148 C1151 1.413 . S
C1149 H1143 0.930 . S
C1149 C1150 1.392 . S
C1149 C1151 1.367 . S
C1150 C1149 1.392 . S
C1150 C1152 1.420 . S
C1150 C1182 1.423 . S
C1151 H1137 0.930 . S
C1151 C1148 1.413 . S
C1151 C1149 1.367 . S
C1152 N1147 1.362 . S
C1152 C1150 1.420 . S
C1152 C1156 1.429 . S
H1153 C1158 0.930 . S
N1154 Eu1116 2.609 . S
N1154 C1156 1.377 . S
N1154 C1157 1.321 . S
C1155 H1141 0.930 . S
C1155 C1157 1.400 . S
C1155 C1158 1.386 . S
C1156 C1152 1.429 . S
C1156 N1154 1.377 . S
C1156 C1159 1.411 . S
C1157 H1139 0.930 . S
C1157 N1154 1.321 . S
C1157 C1155 1.400 . S
C1158 H1153 0.930 . S
C1158 C1155 1.386 . S
C1158 C1159 1.395 . S
C1159 C1156 1.411 . S
C1159 C1158 1.395 . S
C1159 C1181 1.420 . S
O1160 Eu1116 2.558 . S
O1160 C1180 1.257 . S
O1161 Eu1116 2.612 . S
O1161 Eu1127 2.380 . S
O1161 C1172 1.276 . S
O1162 Eu1127 2.432 . S
O1162 C1179 1.264 . S
O1163 Eu1116 2.339 . S
O1163 C1179 1.254 . S
O1164 Eu1116 2.563 . S
O1164 C1172 1.235 . S
O1165 Eu1116 2.419 . S
O1165 C1180 1.249 . S
O1166 Eu1127 2.558 . S
O1166 C1191 1.257 . S
O1167 Eu1116 2.380 . S
O1167 Eu1127 2.612 . S
O1167 C1183 1.276 . S
O1168 Eu1116 2.432 . S
O1168 C1190 1.264 . S
O1169 Eu1127 2.339 . S
O1169 C1190 1.254 . S
O1170 Eu1127 2.563 . S
O1170 C1183 1.235 . S
O1171 Eu1127 2.419 . S
O1171 C1191 1.249 . S
C1172 O1161 1.276 . S
C1172 O1164 1.235 . S
C1173 C1175 1.393 . S
C1173 C1177 1.395 . S
C1173 C1180 1.492 . S
C1174 C1175 1.392 . S
C1174 C1176 1.386 . S
C1175 C1173 1.393 . S
C1175 C1174 1.392 . S
C1175 H1192 0.930 . S
C1176 C1174 1.386 . S
C1176 C1178 1.395 . S
C1176 H1193 0.930 . S
C1177 C1173 1.395 . S
C1177 C1178 1.379 . S
C1177 H1194 0.930 . S
C1178 C1176 1.395 . S
C1178 C1177 1.379 . S
C1178 H1195 0.930 . S
C1179 O1162 1.264 . S
C1179 O1163 1.254 . S
C1180 Eu1116 2.848 . S
C1180 O1160 1.257 . S
C1180 O1165 1.249 . S
C1180 C1173 1.492 . S
C1181 H1146 0.931 . S
C1181 C1159 1.420 . S
C1181 C1182 1.351 . S
C1182 H1144 0.930 . S
C1182 C1150 1.423 . S
C1182 C1181 1.351 . S
C1183 O1167 1.276 . S
C1183 O1170 1.235 . S
C1184 C1185 1.393 . S
C1184 C1188 1.395 . S
C1184 C1191 1.492 . S
C1185 C1184 1.393 . S
C1185 C1186 1.392 . S
C1185 H1196 0.930 . S
C1186 C1185 1.392 . S
C1186 C1187 1.386 . S
C1187 C1186 1.386 . S
C1187 C1189 1.395 . S
C1187 H1197 0.930 . S
C1188 C1184 1.395 . S
C1188 C1189 1.379 . S
C1188 H1198 0.930 . S
C1189 C1187 1.395 . S
C1189 C1188 1.379 . S
C1189 H1199 0.930 . S
C1190 O1168 1.264 . S
C1190 O1169 1.254 . S
C1191 Eu1127 2.848 . S
C1191 O1166 1.257 . S
C1191 O1171 1.249 . S
C1191 C1184 1.492 . S
H1192 C1175 0.930 . S
H1193 C1176 0.930 . S
H1194 C1177 0.930 . S
H1195 C1178 0.930 . S
H1196 C1185 0.930 . S
H1197 C1187 0.930 . S
H1198 C1188 0.930 . S
H1199 C1189 0.930 . S
Eu1200 N1231 2.657 . S
Eu1200 N1238 2.609 . S
Eu1200 O1244 2.558 . S
Eu1200 O1245 2.612 . S
Eu1200 O1247 2.339 . S
Eu1200 O1248 2.563 . S
Eu1200 O1249 2.419 . S
Eu1200 O1251 2.380 . S
Eu1200 O1252 2.432 . S
Eu1200 C1264 2.848 . S
C1201 C1204 1.429 . S
C1201 C1205 1.411 . S
C1201 N1208 1.377 . S
C1202 C1204 1.420 . S
C1202 C1206 1.423 . S
C1202 C1214 1.392 . S
C1203 C1205 1.420 . S
C1203 C1206 1.351 . S
C1203 H1226 0.931 . S
C1204 C1201 1.429 . S
C1204 C1202 1.420 . S
C1204 N1212 1.362 . S
C1205 C1201 1.411 . S
C1205 C1203 1.420 . S
C1205 C1210 1.395 . S
C1206 C1202 1.423 . S
C1206 C1203 1.351 . S
C1206 H1218 0.930 . S
C1207 C1209 1.400 . S
C1207 C1210 1.386 . S
C1207 H1219 0.930 . S
N1208 C1201 1.377 . S
N1208 C1209 1.321 . S
N1208 Eu1211 2.609 . S
C1209 C1207 1.400 . S
C1209 N1208 1.321 . S
C1209 H1216 0.930 . S
C1210 C1205 1.395 . S
C1210 C1207 1.386 . S
C1210 H1229 0.930 . S
Eu1211 N1208 2.609 . S
Eu1211 N1212 2.657 . S
Eu1211 O1245 2.380 1_565 S
Eu1211 O1246 2.432 1_565 S
Eu1211 O1250 2.558 . S
Eu1211 O1251 2.612 1_565 S
Eu1211 O1253 2.339 . S
Eu1211 O1254 2.563 1_565 S
Eu1211 O1255 2.419 . S
Eu1211 C1275 2.848 . S
N1212 C1204 1.362 . S
N1212 Eu1211 2.657 . S
N1212 C1213 1.334 . S
C1213 N1212 1.334 . S
C1213 C1215 1.413 1_455 S
C1213 H1220 0.929 . S
C1214 C1202 1.392 . S
C1214 C1215 1.367 1_455 S
C1214 H1222 0.930 1_455 S
C1215 C1213 1.413 1_655 S
C1215 C1214 1.367 1_655 S
C1215 H1217 0.930 . S
H1216 C1209 0.930 . S
H1217 C1215 0.930 . S
H1218 C1206 0.930 . S
H1219 C1207 0.930 . S
H1220 C1213 0.929 . S
H1221 C1235 0.930 . S
H1222 C1214 0.930 1_655 S
H1223 C1241 0.930 . S
H1224 C1232 0.929 . S
H1225 C1239 0.930 . S
H1226 C1203 0.931 . S
H1227 C1233 0.930 . S
H1228 C1266 0.930 . S
H1229 C1210 0.930 . S
H1230 C1265 0.931 . S
N1231 Eu1200 2.657 . S
N1231 C1232 1.334 . S
N1231 C1236 1.362 . S
C1232 H1224 0.929 . S
C1232 N1231 1.334 . S
C1232 C1235 1.413 . S
C1233 H1227 0.930 . S
C1233 C1234 1.392 . S
C1233 C1235 1.367 . S
C1234 C1233 1.392 . S
C1234 C1236 1.420 . S
C1234 C1266 1.423 . S
C1235 H1221 0.930 . S
C1235 C1232 1.413 . S
C1235 C1233 1.367 . S
C1236 N1231 1.362 . S
C1236 C1234 1.420 . S
C1236 C1240 1.429 . S
H1237 C1242 0.930 . S
N1238 Eu1200 2.609 . S
N1238 C1240 1.377 . S
N1238 C1241 1.321 . S
C1239 H1225 0.930 . S
C1239 C1241 1.400 1_655 S
C1239 C1242 1.386 1_655 S
C1240 C1236 1.429 . S
C1240 N1238 1.377 . S
C1240 C1243 1.411 . S
C1241 H1223 0.930 . S
C1241 N1238 1.321 . S
C1241 C1239 1.400 1_455 S
C1242 H1237 0.930 . S
C1242 C1239 1.386 1_455 S
C1242 C1243 1.395 . S
C1243 C1240 1.411 . S
C1243 C1242 1.395 . S
C1243 C1265 1.420 . S
O1244 Eu1200 2.558 . S
O1244 C1264 1.257 . S
O1245 Eu1200 2.612 . S
O1245 Eu1211 2.380 1_545 S
O1245 C1256 1.276 . S
O1246 Eu1211 2.432 1_545 S
O1246 C1263 1.264 . S
O1247 Eu1200 2.339 . S
O1247 C1263 1.254 . S
O1248 Eu1200 2.563 . S
O1248 C1256 1.235 . S
O1249 Eu1200 2.419 . S
O1249 C1264 1.249 . S
O1250 Eu1211 2.558 . S
O1250 C1275 1.257 . S
O1251 Eu1200 2.380 . S
O1251 Eu1211 2.612 1_545 S
O1251 C1267 1.276 . S
O1252 Eu1200 2.432 . S
O1252 C1274 1.264 . S
O1253 Eu1211 2.339 . S
O1253 C1274 1.254 1_565 S
O1254 Eu1211 2.563 1_545 S
O1254 C1267 1.235 . S
O1255 Eu1211 2.419 . S
O1255 C1275 1.249 . S
C1256 O1245 1.276 . S
C1256 O1248 1.235 . S
C1257 C1259 1.393 . S
C1257 C1261 1.395 . S
C1257 C1264 1.492 . S
C1258 C1259 1.392 . S
C1258 C1260 1.386 . S
C1259 C1257 1.393 . S
C1259 C1258 1.392 . S
C1259 H1276 0.930 . S
C1260 C1258 1.386 . S
C1260 C1262 1.395 . S
C1260 H1277 0.930 . S
C1261 C1257 1.395 . S
C1261 C1262 1.379 . S
C1261 H1278 0.930 . S
C1262 C1260 1.395 . S
C1262 C1261 1.379 . S
C1262 H1279 0.930 . S
C1263 O1246 1.264 . S
C1263 O1247 1.254 . S
C1264 Eu1200 2.848 . S
C1264 O1244 1.257 . S
C1264 O1249 1.249 . S
C1264 C1257 1.492 . S
C1265 H1230 0.931 . S
C1265 C1243 1.420 . S
C1265 C1266 1.351 . S
C1266 H1228 0.930 . S
C1266 C1234 1.423 . S
C1266 C1265 1.351 . S
C1267 O1251 1.276 . S
C1267 O1254 1.235 . S
C1268 C1269 1.393 . S
C1268 C1272 1.395 . S
C1268 C1275 1.492 . S
C1269 C1268 1.393 . S
C1269 C1270 1.392 . S
C1269 H1280 0.930 . S
C1270 C1269 1.392 . S
C1270 C1271 1.386 . S
C1271 C1270 1.386 . S
C1271 C1273 1.395 . S
C1271 H1281 0.930 . S
C1272 C1268 1.395 . S
C1272 C1273 1.379 . S
C1272 H1282 0.930 . S
C1273 C1271 1.395 . S
C1273 C1272 1.379 . S
C1273 H1283 0.930 . S
C1274 O1252 1.264 . S
C1274 O1253 1.254 1_545 S
C1275 Eu1211 2.848 . S
C1275 O1250 1.257 . S
C1275 O1255 1.249 . S
C1275 C1268 1.492 . S
H1276 C1259 0.930 . S
H1277 C1260 0.930 . S
H1278 C1261 0.930 . S
H1279 C1262 0.930 . S
H1280 C1269 0.930 . S
H1281 C1271 0.930 . S
H1282 C1272 0.930 . S
H1283 C1273 0.930 . S
Eu1284 N1315 2.657 . S
Eu1284 N1322 2.609 . S
Eu1284 O1328 2.558 . S
Eu1284 O1329 2.612 . S
Eu1284 O1331 2.339 . S
Eu1284 O1332 2.563 . S
Eu1284 O1333 2.419 . S
Eu1284 O1335 2.380 . S
Eu1284 O1336 2.432 . S
Eu1284 C1348 2.848 . S
C1285 C1288 1.429 . S
C1285 C1289 1.411 . S
C1285 N1292 1.377 . S
C1286 C1288 1.420 . S
C1286 C1290 1.423 . S
C1286 C1298 1.392 . S
C1287 C1289 1.420 . S
C1287 C1290 1.351 . S
C1287 H1310 0.931 . S
C1288 C1285 1.429 . S
C1288 C1286 1.420 . S
C1288 N1296 1.362 . S
C1289 C1285 1.411 . S
C1289 C1287 1.420 . S
C1289 C1294 1.395 . S
C1290 C1286 1.423 . S
C1290 C1287 1.351 . S
C1290 H1302 0.930 . S
C1291 C1293 1.400 . S
C1291 C1294 1.386 . S
C1291 H1303 0.930 . S
N1292 C1285 1.377 . S
N1292 C1293 1.321 . S
N1292 Eu1295 2.609 . S
C1293 C1291 1.400 . S
C1293 N1292 1.321 . S
C1293 H1300 0.930 . S
C1294 C1289 1.395 . S
C1294 C1291 1.386 . S
C1294 H1313 0.930 . S
Eu1295 N1292 2.609 . S
Eu1295 N1296 2.657 . S
Eu1295 O1329 2.380 . S
Eu1295 O1330 2.432 . S
Eu1295 O1334 2.558 . S
Eu1295 O1335 2.612 . S
Eu1295 O1337 2.339 . S
Eu1295 O1338 2.563 . S
Eu1295 O1339 2.419 . S
Eu1295 C1359 2.848 . S
N1296 C1288 1.362 . S
N1296 Eu1295 2.657 . S
N1296 C1297 1.334 . S
C1297 N1296 1.334 . S
C1297 C1299 1.413 . S
C1297 H1304 0.929 . S
C1298 C1286 1.392 . S
C1298 C1299 1.367 . S
C1298 H1306 0.930 . S
C1299 C1297 1.413 . S
C1299 C1298 1.367 . S
C1299 H1301 0.930 . S
H1300 C1293 0.930 . S
H1301 C1299 0.930 . S
H1302 C1290 0.930 . S
H1303 C1291 0.930 . S
H1304 C1297 0.929 . S
H1305 C1319 0.930 . S
H1306 C1298 0.930 . S
H1307 C1325 0.930 . S
H1308 C1316 0.929 . S
H1309 C1323 0.930 . S
H1310 C1287 0.931 . S
H1311 C1317 0.930 . S
H1312 C1350 0.930 . S
H1313 C1294 0.930 . S
H1314 C1349 0.931 . S
N1315 Eu1284 2.657 . S
N1315 C1316 1.334 . S
N1315 C1320 1.362 . S
C1316 H1308 0.929 . S
C1316 N1315 1.334 . S
C1316 C1319 1.413 . S
C1317 H1311 0.930 . S
C1317 C1318 1.392 . S
C1317 C1319 1.367 . S
C1318 C1317 1.392 . S
C1318 C1320 1.420 . S
C1318 C1350 1.423 . S
C1319 H1305 0.930 . S
C1319 C1316 1.413 . S
C1319 C1317 1.367 . S
C1320 N1315 1.362 . S
C1320 C1318 1.420 . S
C1320 C1324 1.429 . S
H1321 C1326 0.930 . S
N1322 Eu1284 2.609 . S
N1322 C1324 1.377 . S
N1322 C1325 1.321 . S
C1323 H1309 0.930 . S
C1323 C1325 1.400 . S
C1323 C1326 1.386 . S
C1324 C1320 1.429 . S
C1324 N1322 1.377 . S
C1324 C1327 1.411 . S
C1325 H1307 0.930 . S
C1325 N1322 1.321 . S
C1325 C1323 1.400 . S
C1326 H1321 0.930 . S
C1326 C1323 1.386 . S
C1326 C1327 1.395 . S
C1327 C1324 1.411 . S
C1327 C1326 1.395 . S
C1327 C1349 1.420 . S
O1328 Eu1284 2.558 . S
O1328 C1348 1.257 . S
O1329 Eu1284 2.612 . S
O1329 Eu1295 2.380 . S
O1329 C1340 1.276 . S
O1330 Eu1295 2.432 . S
O1330 C1347 1.264 . S
O1331 Eu1284 2.339 . S
O1331 C1347 1.254 . S
O1332 Eu1284 2.563 . S
O1332 C1340 1.235 . S
O1333 Eu1284 2.419 . S
O1333 C1348 1.249 . S
O1334 Eu1295 2.558 . S
O1334 C1359 1.257 . S
O1335 Eu1284 2.380 . S
O1335 Eu1295 2.612 . S
O1335 C1351 1.276 . S
O1336 Eu1284 2.432 . S
O1336 C1358 1.264 . S
O1337 Eu1295 2.339 . S
O1337 C1358 1.254 . S
O1338 Eu1295 2.563 . S
O1338 C1351 1.235 . S
O1339 Eu1295 2.419 . S
O1339 C1359 1.249 . S
C1340 O1329 1.276 . S
C1340 O1332 1.235 . S
C1341 C1343 1.393 . S
C1341 C1345 1.395 . S
C1341 C1348 1.492 . S
C1342 C1343 1.392 . S
C1342 C1344 1.386 . S
C1343 C1341 1.393 . S
C1343 C1342 1.392 . S
C1343 H1360 0.930 . S
C1344 C1342 1.386 . S
C1344 C1346 1.395 . S
C1344 H1361 0.930 . S
C1345 C1341 1.395 . S
C1345 C1346 1.379 . S
C1345 H1362 0.930 . S
C1346 C1344 1.395 . S
C1346 C1345 1.379 . S
C1346 H1363 0.930 . S
C1347 O1330 1.264 . S
C1347 O1331 1.254 . S
C1348 Eu1284 2.848 . S
C1348 O1328 1.257 . S
C1348 O1333 1.249 . S
C1348 C1341 1.492 . S
C1349 H1314 0.931 . S
C1349 C1327 1.420 . S
C1349 C1350 1.351 . S
C1350 H1312 0.930 . S
C1350 C1318 1.423 . S
C1350 C1349 1.351 . S
C1351 O1335 1.276 . S
C1351 O1338 1.235 . S
C1352 C1353 1.393 . S
C1352 C1356 1.395 . S
C1352 C1359 1.492 . S
C1353 C1352 1.393 . S
C1353 C1354 1.392 . S
C1353 H1364 0.930 . S
C1354 C1353 1.392 . S
C1354 C1355 1.386 . S
C1355 C1354 1.386 . S
C1355 C1357 1.395 . S
C1355 H1365 0.930 . S
C1356 C1352 1.395 . S
C1356 C1357 1.379 . S
C1356 H1366 0.930 . S
C1357 C1355 1.395 . S
C1357 C1356 1.379 . S
C1357 H1367 0.930 . S
C1358 O1336 1.264 . S
C1358 O1337 1.254 . S
C1359 Eu1295 2.848 . S
C1359 O1334 1.257 . S
C1359 O1339 1.249 . S
C1359 C1352 1.492 . S
H1360 C1343 0.930 . S
H1361 C1344 0.930 . S
H1362 C1345 0.930 . S
H1363 C1346 0.930 . S
H1364 C1353 0.930 . S
H1365 C1355 0.930 . S
H1366 C1356 0.930 . S
H1367 C1357 0.930 . S
Eu1368 N1399 2.657 . S
Eu1368 N1406 2.609 . S
Eu1368 O1412 2.558 1_545 S
Eu1368 O1413 2.612 . S
Eu1368 O1415 2.339 . S
Eu1368 O1416 2.563 . S
Eu1368 O1417 2.419 . S
Eu1368 O1419 2.380 . S
Eu1368 O1420 2.432 1_545 S
Eu1368 C1432 2.848 . S
C1369 C1372 1.429 . S
C1369 C1373 1.411 . S
C1369 N1376 1.377 . S
C1370 C1372 1.420 . S
C1370 C1374 1.423 . S
C1370 C1382 1.392 1_545 S
C1371 C1373 1.420 . S
C1371 C1374 1.351 . S
C1371 H1394 0.931 . S
C1372 C1369 1.429 . S
C1372 C1370 1.420 . S
C1372 N1380 1.362 . S
C1373 C1369 1.411 . S
C1373 C1371 1.420 . S
C1373 C1378 1.395 . S
C1374 C1370 1.423 . S
C1374 C1371 1.351 . S
C1374 H1386 0.930 . S
C1375 C1377 1.400 . S
C1375 C1378 1.386 . S
C1375 H1387 0.930 . S
N1376 C1369 1.377 . S
N1376 C1377 1.321 . S
N1376 Eu1379 2.609 . S
C1377 C1375 1.400 . S
C1377 N1376 1.321 . S
C1377 H1384 0.930 . S
C1378 C1373 1.395 . S
C1378 C1375 1.386 . S
C1378 H1397 0.930 . S
Eu1379 N1376 2.609 . S
Eu1379 N1380 2.657 . S
Eu1379 O1413 2.380 1_556 S
Eu1379 O1414 2.432 1_556 S
Eu1379 O1418 2.558 . S
Eu1379 O1419 2.612 1_556 S
Eu1379 O1421 2.339 . S
Eu1379 O1422 2.563 . S
Eu1379 O1423 2.419 . S
Eu1379 C1443 2.848 . S
N1380 C1372 1.362 . S
N1380 Eu1379 2.657 . S
N1380 C1381 1.334 1_545 S
C1381 N1380 1.334 1_565 S
C1381 C1383 1.413 . S
C1381 H1388 0.929 . S
C1382 C1370 1.392 1_565 S
C1382 C1383 1.367 . S
C1382 H1390 0.930 . S
C1383 C1381 1.413 . S
C1383 C1382 1.367 . S
C1383 H1385 0.930 . S
H1384 C1377 0.930 . S
H1385 C1383 0.930 . S
H1386 C1374 0.930 . S
H1387 C1375 0.930 . S
H1388 C1381 0.929 . S
H1389 C1403 0.930 . S
H1390 C1382 0.930 . S
H1391 C1409 0.930 . S
H1392 C1400 0.929 . S
H1393 C1407 0.930 . S
H1394 C1371 0.931 . S
H1395 C1401 0.930 . S
H1396 C1434 0.930 . S
H1397 C1378 0.930 . S
H1398 C1433 0.931 . S
N1399 Eu1368 2.657 . S
N1399 C1400 1.334 . S
N1399 C1404 1.362 . S
C1400 H1392 0.929 . S
C1400 N1399 1.334 . S
C1400 C1403 1.413 . S
C1401 H1395 0.930 . S
C1401 C1402 1.392 . S
C1401 C1403 1.367 . S
C1402 C1401 1.392 . S
C1402 C1404 1.420 . S
C1402 C1434 1.423 . S
C1403 H1389 0.930 . S
C1403 C1400 1.413 . S
C1403 C1401 1.367 . S
C1404 N1399 1.362 . S
C1404 C1402 1.420 . S
C1404 C1408 1.429 . S
H1405 C1410 0.930 . S
N1406 Eu1368 2.609 . S
N1406 C1408 1.377 . S
N1406 C1409 1.321 1_545 S
C1407 H1393 0.930 . S
C1407 C1409 1.400 . S
C1407 C1410 1.386 . S
C1408 C1404 1.429 . S
C1408 N1406 1.377 . S
C1408 C1411 1.411 . S
C1409 H1391 0.930 . S
C1409 N1406 1.321 1_565 S
C1409 C1407 1.400 . S
C1410 H1405 0.930 . S
C1410 C1407 1.386 . S
C1410 C1411 1.395 1_565 S
C1411 C1408 1.411 . S
C1411 C1410 1.395 1_545 S
C1411 C1433 1.420 . S
O1412 Eu1368 2.558 1_565 S
O1412 C1432 1.257 1_565 S
O1413 Eu1368 2.612 . S
O1413 Eu1379 2.380 1_554 S
O1413 C1424 1.276 . S
O1414 Eu1379 2.432 1_554 S
O1414 C1431 1.264 . S
O1415 Eu1368 2.339 . S
O1415 C1431 1.254 . S
O1416 Eu1368 2.563 . S
O1416 C1424 1.235 . S
O1417 Eu1368 2.419 . S
O1417 C1432 1.249 . S
O1418 Eu1379 2.558 . S
O1418 C1443 1.257 . S
O1419 Eu1368 2.380 . S
O1419 Eu1379 2.612 1_554 S
O1419 C1435 1.276 . S
O1420 Eu1368 2.432 1_565 S
O1420 C1442 1.264 1_554 S
O1421 Eu1379 2.339 . S
O1421 C1442 1.254 1_545 S
O1422 Eu1379 2.563 . S
O1422 C1435 1.235 1_556 S
O1423 Eu1379 2.419 . S
O1423 C1443 1.249 . S
C1424 O1413 1.276 . S
C1424 O1416 1.235 . S
C1425 C1427 1.393 . S
C1425 C1429 1.395 1_545 S
C1425 C1432 1.492 . S
C1426 C1427 1.392 . S
C1426 C1428 1.386 1_545 S
C1427 C1425 1.393 . S
C1427 C1426 1.392 . S
C1427 H1444 0.930 . S
C1428 C1426 1.386 1_565 S
C1428 C1430 1.395 . S
C1428 H1445 0.930 . S
C1429 C1425 1.395 1_565 S
C1429 C1430 1.379 . S
C1429 H1446 0.930 . S
C1430 C1428 1.395 . S
C1430 C1429 1.379 . S
C1430 H1447 0.930 . S
C1431 O1414 1.264 . S
C1431 O1415 1.254 . S
C1432 Eu1368 2.848 . S
C1432 O1412 1.257 1_545 S
C1432 O1417 1.249 . S
C1432 C1425 1.492 . S
C1433 H1398 0.931 . S
C1433 C1411 1.420 . S
C1433 C1434 1.351 . S
C1434 H1396 0.930 . S
C1434 C1402 1.423 . S
C1434 C1433 1.351 . S
C1435 O1419 1.276 . S
C1435 O1422 1.235 1_554 S
C1436 C1437 1.393 . S
C1436 C1440 1.395 . S
C1436 C1443 1.492 . S
C1437 C1436 1.393 . S
C1437 C1438 1.392 . S
C1437 H1448 0.930 . S
C1438 C1437 1.392 . S
C1438 C1439 1.386 . S
C1439 C1438 1.386 . S
C1439 C1441 1.395 . S
C1439 H1449 0.930 . S
C1440 C1436 1.395 . S
C1440 C1441 1.379 . S
C1440 H1450 0.930 . S
C1441 C1439 1.395 . S
C1441 C1440 1.379 . S
C1441 H1451 0.930 . S
C1442 O1420 1.264 1_556 S
C1442 O1421 1.254 1_565 S
C1443 Eu1379 2.848 . S
C1443 O1418 1.257 . S
C1443 O1423 1.249 . S
C1443 C1436 1.492 . S
H1444 C1427 0.930 . S
H1445 C1428 0.930 . S
H1446 C1429 0.930 . S
H1447 C1430 0.930 . S
H1448 C1437 0.930 . S
H1449 C1439 0.930 . S
H1450 C1440 0.930 . S
H1451 C1441 0.930 . S
Eu1452 N1483 2.657 . S
Eu1452 N1490 2.609 . S
Eu1452 O1496 2.558 . S
Eu1452 O1497 2.612 . S
Eu1452 O1499 2.339 . S
Eu1452 O1500 2.563 . S
Eu1452 O1501 2.419 . S
Eu1452 O1503 2.380 . S
Eu1452 O1504 2.432 . S
Eu1452 C1516 2.848 . S
C1453 C1456 1.429 . S
C1453 C1457 1.411 . S
C1453 N1460 1.377 . S
C1454 C1456 1.420 . S
C1454 C1458 1.423 . S
C1454 C1466 1.392 . S
C1455 C1457 1.420 . S
C1455 C1458 1.351 . S
C1455 H1478 0.931 . S
C1456 C1453 1.429 . S
C1456 C1454 1.420 . S
C1456 N1464 1.362 . S
C1457 C1453 1.411 . S
C1457 C1455 1.420 . S
C1457 C1462 1.395 . S
C1458 C1454 1.423 . S
C1458 C1455 1.351 . S
C1458 H1470 0.930 . S
C1459 C1461 1.400 . S
C1459 C1462 1.386 . S
C1459 H1471 0.930 . S
N1460 C1453 1.377 . S
N1460 C1461 1.321 . S
N1460 Eu1463 2.609 . S
C1461 C1459 1.400 . S
C1461 N1460 1.321 . S
C1461 H1468 0.930 . S
C1462 C1457 1.395 . S
C1462 C1459 1.386 . S
C1462 H1481 0.930 . S
Eu1463 N1460 2.609 . S
Eu1463 N1464 2.657 . S
Eu1463 O1497 2.380 . S
Eu1463 O1498 2.432 . S
Eu1463 O1502 2.558 . S
Eu1463 O1503 2.612 . S
Eu1463 O1505 2.339 . S
Eu1463 O1506 2.563 . S
Eu1463 O1507 2.419 . S
Eu1463 C1527 2.848 . S
N1464 C1456 1.362 . S
N1464 Eu1463 2.657 . S
N1464 C1465 1.334 . S
C1465 N1464 1.334 . S
C1465 C1467 1.413 . S
C1465 H1472 0.929 . S
C1466 C1454 1.392 . S
C1466 C1467 1.367 . S
C1466 H1474 0.930 . S
C1467 C1465 1.413 . S
C1467 C1466 1.367 . S
C1467 H1469 0.930 . S
H1468 C1461 0.930 . S
H1469 C1467 0.930 . S
H1470 C1458 0.930 . S
H1471 C1459 0.930 . S
H1472 C1465 0.929 . S
H1473 C1487 0.930 . S
H1474 C1466 0.930 . S
H1475 C1493 0.930 . S
H1476 C1484 0.929 . S
H1477 C1491 0.930 . S
H1478 C1455 0.931 . S
H1479 C1485 0.930 . S
H1480 C1518 0.930 . S
H1481 C1462 0.930 . S
H1482 C1517 0.931 . S
N1483 Eu1452 2.657 . S
N1483 C1484 1.334 . S
N1483 C1488 1.362 . S
C1484 H1476 0.929 . S
C1484 N1483 1.334 . S
C1484 C1487 1.413 . S
C1485 H1479 0.930 . S
C1485 C1486 1.392 . S
C1485 C1487 1.367 . S
C1486 C1485 1.392 . S
C1486 C1488 1.420 . S
C1486 C1518 1.423 . S
C1487 H1473 0.930 . S
C1487 C1484 1.413 . S
C1487 C1485 1.367 . S
C1488 N1483 1.362 . S
C1488 C1486 1.420 . S
C1488 C1492 1.429 . S
H1489 C1494 0.930 . S
N1490 Eu1452 2.609 . S
N1490 C1492 1.377 . S
N1490 C1493 1.321 . S
C1491 H1477 0.930 . S
C1491 C1493 1.400 . S
C1491 C1494 1.386 . S
C1492 C1488 1.429 . S
C1492 N1490 1.377 . S
C1492 C1495 1.411 . S
C1493 H1475 0.930 . S
C1493 N1490 1.321 . S
C1493 C1491 1.400 . S
C1494 H1489 0.930 . S
C1494 C1491 1.386 . S
C1494 C1495 1.395 . S
C1495 C1492 1.411 . S
C1495 C1494 1.395 . S
C1495 C1517 1.420 . S
O1496 Eu1452 2.558 . S
O1496 C1516 1.257 . S
O1497 Eu1452 2.612 . S
O1497 Eu1463 2.380 . S
O1497 C1508 1.276 . S
O1498 Eu1463 2.432 . S
O1498 C1515 1.264 . S
O1499 Eu1452 2.339 . S
O1499 C1515 1.254 . S
O1500 Eu1452 2.563 . S
O1500 C1508 1.235 . S
O1501 Eu1452 2.419 . S
O1501 C1516 1.249 . S
O1502 Eu1463 2.558 . S
O1502 C1527 1.257 . S
O1503 Eu1452 2.380 . S
O1503 Eu1463 2.612 . S
O1503 C1519 1.276 . S
O1504 Eu1452 2.432 . S
O1504 C1526 1.264 . S
O1505 Eu1463 2.339 . S
O1505 C1526 1.254 . S
O1506 Eu1463 2.563 . S
O1506 C1519 1.235 . S
O1507 Eu1463 2.419 . S
O1507 C1527 1.249 . S
C1508 O1497 1.276 . S
C1508 O1500 1.235 . S
C1509 C1511 1.393 . S
C1509 C1513 1.395 . S
C1509 C1516 1.492 . S
C1510 C1511 1.392 . S
C1510 C1512 1.386 . S
C1511 C1509 1.393 . S
C1511 C1510 1.392 . S
C1511 H1528 0.930 . S
C1512 C1510 1.386 . S
C1512 C1514 1.395 . S
C1512 H1529 0.930 . S
C1513 C1509 1.395 . S
C1513 C1514 1.379 . S
C1513 H1530 0.930 . S
C1514 C1512 1.395 . S
C1514 C1513 1.379 . S
C1514 H1531 0.930 . S
C1515 O1498 1.264 . S
C1515 O1499 1.254 . S
C1516 Eu1452 2.848 . S
C1516 O1496 1.257 . S
C1516 O1501 1.249 . S
C1516 C1509 1.492 . S
C1517 H1482 0.931 . S
C1517 C1495 1.420 . S
C1517 C1518 1.351 . S
C1518 H1480 0.930 . S
C1518 C1486 1.423 . S
C1518 C1517 1.351 . S
C1519 O1503 1.276 . S
C1519 O1506 1.235 . S
C1520 C1521 1.393 . S
C1520 C1524 1.395 . S
C1520 C1527 1.492 . S
C1521 C1520 1.393 . S
C1521 C1522 1.392 . S
C1521 H1532 0.930 . S
C1522 C1521 1.392 . S
C1522 C1523 1.386 . S
C1523 C1522 1.386 . S
C1523 C1525 1.395 . S
C1523 H1533 0.930 . S
C1524 C1520 1.395 . S
C1524 C1525 1.379 . S
C1524 H1534 0.930 . S
C1525 C1523 1.395 . S
C1525 C1524 1.379 . S
C1525 H1535 0.930 . S
C1526 O1504 1.264 . S
C1526 O1505 1.254 . S
C1527 Eu1463 2.848 . S
C1527 O1502 1.257 . S
C1527 O1507 1.249 . S
C1527 C1520 1.492 . S
H1528 C1511 0.930 . S
H1529 C1512 0.930 . S
H1530 C1513 0.930 . S
H1531 C1514 0.930 . S
H1532 C1521 0.930 . S
H1533 C1523 0.930 . S
H1534 C1524 0.930 . S
H1535 C1525 0.930 . S
Eu1536 N1567 2.657 . S
Eu1536 N1574 2.609 . S
Eu1536 O1580 2.558 . S
Eu1536 O1581 2.612 1_554 S
Eu1536 O1583 2.339 . S
Eu1536 O1584 2.563 1_554 S
Eu1536 O1585 2.419 . S
Eu1536 O1587 2.380 . S
Eu1536 O1588 2.432 . S
Eu1536 C1600 2.848 . S
C1537 C1540 1.429 . S
C1537 C1541 1.411 . S
C1537 N1544 1.377 . S
C1538 C1540 1.420 . S
C1538 C1542 1.423 . S
C1538 C1550 1.392 . S
C1539 C1541 1.420 . S
C1539 C1542 1.351 . S
C1539 H1562 0.931 . S
C1540 C1537 1.429 . S
C1540 C1538 1.420 . S
C1540 N1548 1.362 . S
C1541 C1537 1.411 . S
C1541 C1539 1.420 . S
C1541 C1546 1.395 . S
C1542 C1538 1.423 . S
C1542 C1539 1.351 . S
C1542 H1554 0.930 . S
C1543 C1545 1.400 . S
C1543 C1546 1.386 . S
C1543 H1555 0.930 . S
N1544 C1537 1.377 . S
N1544 C1545 1.321 . S
N1544 Eu1547 2.609 1_556 S
C1545 C1543 1.400 . S
C1545 N1544 1.321 . S
C1545 H1552 0.930 . S
C1546 C1541 1.395 . S
C1546 C1543 1.386 . S
C1546 H1565 0.930 . S
Eu1547 N1544 2.609 1_554 S
Eu1547 N1548 2.657 1_554 S
Eu1547 O1581 2.380 1_554 S
Eu1547 O1582 2.432 . S
Eu1547 O1586 2.558 . S
Eu1547 O1587 2.612 . S
Eu1547 O1589 2.339 . S
Eu1547 O1590 2.563 . S
Eu1547 O1591 2.419 . S
Eu1547 C1611 2.848 . S
N1548 C1540 1.362 . S
N1548 Eu1547 2.657 1_556 S
N1548 C1549 1.334 . S
C1549 N1548 1.334 . S
C1549 C1551 1.413 . S
C1549 H1556 0.929 . S
C1550 C1538 1.392 . S
C1550 C1551 1.367 . S
C1550 H1558 0.930 . S
C1551 C1549 1.413 . S
C1551 C1550 1.367 . S
C1551 H1553 0.930 . S
H1552 C1545 0.930 . S
H1553 C1551 0.930 . S
H1554 C1542 0.930 . S
H1555 C1543 0.930 . S
H1556 C1549 0.929 . S
H1557 C1571 0.930 . S
H1558 C1550 0.930 . S
H1559 C1577 0.930 . S
H1560 C1568 0.929 . S
H1561 C1575 0.930 . S
H1562 C1539 0.931 . S
H1563 C1569 0.930 . S
H1564 C1602 0.930 . S
H1565 C1546 0.930 . S
H1566 C1601 0.931 . S
N1567 Eu1536 2.657 . S
N1567 C1568 1.334 . S
N1567 C1572 1.362 . S
C1568 H1560 0.929 . S
C1568 N1567 1.334 . S
C1568 C1571 1.413 . S
C1569 H1563 0.930 . S
C1569 C1570 1.392 . S
C1569 C1571 1.367 . S
C1570 C1569 1.392 . S
C1570 C1572 1.420 . S
C1570 C1602 1.423 . S
C1571 H1557 0.930 . S
C1571 C1568 1.413 . S
C1571 C1569 1.367 . S
C1572 N1567 1.362 . S
C1572 C1570 1.420 . S
C1572 C1576 1.429 . S
H1573 C1578 0.930 . S
N1574 Eu1536 2.609 . S
N1574 C1576 1.377 . S
N1574 C1577 1.321 . S
C1575 H1561 0.930 . S
C1575 C1577 1.400 . S
C1575 C1578 1.386 . S
C1576 C1572 1.429 . S
C1576 N1574 1.377 . S
C1576 C1579 1.411 . S
C1577 H1559 0.930 . S
C1577 N1574 1.321 . S
C1577 C1575 1.400 . S
C1578 H1573 0.930 . S
C1578 C1575 1.386 . S
C1578 C1579 1.395 . S
C1579 C1576 1.411 . S
C1579 C1578 1.395 . S
C1579 C1601 1.420 . S
O1580 Eu1536 2.558 . S
O1580 C1600 1.257 . S
O1581 Eu1536 2.612 1_556 S
O1581 Eu1547 2.380 1_556 S
O1581 C1592 1.276 . S
O1582 Eu1547 2.432 . S
O1582 C1599 1.264 . S
O1583 Eu1536 2.339 . S
O1583 C1599 1.254 . S
O1584 Eu1536 2.563 1_556 S
O1584 C1592 1.235 . S
O1585 Eu1536 2.419 . S
O1585 C1600 1.249 . S
O1586 Eu1547 2.558 . S
O1586 C1611 1.257 . S
O1587 Eu1536 2.380 . S
O1587 Eu1547 2.612 . S
O1587 C1603 1.276 . S
O1588 Eu1536 2.432 . S
O1588 C1610 1.264 . S
O1589 Eu1547 2.339 . S
O1589 C1610 1.254 . S
O1590 Eu1547 2.563 . S
O1590 C1603 1.235 . S
O1591 Eu1547 2.419 . S
O1591 C1611 1.249 . S
C1592 O1581 1.276 . S
C1592 O1584 1.235 . S
C1593 C1595 1.390 1_554 S
C1593 C1597 1.395 . S
C1593 C1600 1.492 . S
C1594 C1595 1.395 . S
C1594 C1596 1.386 1_556 S
C1595 C1593 1.390 1_556 S
C1595 C1594 1.395 . S
C1595 H1612 0.931 . S
C1596 C1594 1.386 1_554 S
C1596 C1598 1.395 . S
C1596 H1613 0.930 1_554 S
C1597 C1593 1.395 . S
C1597 C1598 1.379 . S
C1597 H1614 0.930 . S
C1598 C1596 1.395 . S
C1598 C1597 1.379 . S
C1598 H1615 0.930 . S
C1599 O1582 1.264 . S
C1599 O1583 1.254 . S
C1600 Eu1536 2.848 . S
C1600 O1580 1.257 . S
C1600 O1585 1.249 . S
C1600 C1593 1.492 . S
C1601 H1566 0.931 . S
C1601 C1579 1.420 . S
C1601 C1602 1.351 . S
C1602 H1564 0.930 . S
C1602 C1570 1.423 . S
C1602 C1601 1.351 . S
C1603 O1587 1.276 . S
C1603 O1590 1.235 . S
C1604 C1605 1.393 . S
C1604 C1608 1.395 . S
C1604 C1611 1.492 . S
C1605 C1604 1.393 . S
C1605 C1606 1.392 . S
C1605 H1616 0.930 . S
C1606 C1605 1.392 . S
C1606 C1607 1.386 . S
C1607 C1606 1.386 . S
C1607 C1609 1.395 . S
C1607 H1617 0.930 . S
C1608 C1604 1.395 . S
C1608 C1609 1.379 . S
C1608 H1618 0.930 . S
C1609 C1607 1.395 . S
C1609 C1608 1.379 . S
C1609 H1619 0.930 . S
C1610 O1588 1.264 . S
C1610 O1589 1.254 . S
C1611 Eu1547 2.848 . S
C1611 O1586 1.257 . S
C1611 O1591 1.249 . S
C1611 C1604 1.492 . S
H1612 C1595 0.931 . S
H1613 C1596 0.930 1_556 S
H1614 C1597 0.930 . S
H1615 C1598 0.930 . S
H1616 C1605 0.930 . S
H1617 C1607 0.930 . S
H1618 C1608 0.930 . S
H1619 C1609 0.930 . S
Eu1620 N1651 2.657 . S
Eu1620 N1658 2.609 . S
Eu1620 O1664 2.558 . S
Eu1620 O1665 2.612 . S
Eu1620 O1667 2.339 . S
Eu1620 O1668 2.563 . S
Eu1620 O1669 2.419 . S
Eu1620 O1671 2.380 . S
Eu1620 O1672 2.432 . S
Eu1620 C1684 2.848 . S
C1621 C1624 1.429 . S
C1621 C1625 1.411 . S
C1621 N1628 1.377 . S
C1622 C1624 1.420 . S
C1622 C1626 1.423 . S
C1622 C1634 1.392 . S
C1623 C1625 1.420 . S
C1623 C1626 1.351 . S
C1623 H1646 0.931 . S
C1624 C1621 1.429 . S
C1624 C1622 1.420 . S
C1624 N1632 1.362 . S
C1625 C1621 1.411 . S
C1625 C1623 1.420 . S
C1625 C1630 1.395 . S
C1626 C1622 1.423 . S
C1626 C1623 1.351 . S
C1626 H1638 0.930 . S
C1627 C1629 1.400 . S
C1627 C1630 1.386 . S
C1627 H1639 0.930 . S
N1628 C1621 1.377 . S
N1628 C1629 1.321 . S
N1628 Eu1631 2.609 . S
C1629 C1627 1.400 . S
C1629 N1628 1.321 . S
C1629 H1636 0.930 . S
C1630 C1625 1.395 . S
C1630 C1627 1.386 . S
C1630 H1649 0.930 . S
Eu1631 N1628 2.609 . S
Eu1631 N1632 2.657 . S
Eu1631 O1665 2.380 . S
Eu1631 O1666 2.432 . S
Eu1631 O1670 2.558 . S
Eu1631 O1671 2.612 . S
Eu1631 O1673 2.339 . S
Eu1631 O1674 2.563 . S
Eu1631 O1675 2.419 . S
Eu1631 C1695 2.848 . S
N1632 C1624 1.362 . S
N1632 Eu1631 2.657 . S
N1632 C1633 1.334 . S
C1633 N1632 1.334 . S
C1633 C1635 1.413 . S
C1633 H1640 0.929 . S
C1634 C1622 1.392 . S
C1634 C1635 1.367 . S
C1634 H1642 0.930 . S
C1635 C1633 1.413 . S
C1635 C1634 1.367 . S
C1635 H1637 0.930 . S
H1636 C1629 0.930 . S
H1637 C1635 0.930 . S
H1638 C1626 0.930 . S
H1639 C1627 0.930 . S
H1640 C1633 0.929 . S
H1641 C1655 0.930 . S
H1642 C1634 0.930 . S
H1643 C1661 0.930 . S
H1644 C1652 0.929 . S
H1645 C1659 0.930 . S
H1646 C1623 0.931 . S
H1647 C1653 0.930 . S
H1648 C1686 0.930 . S
H1649 C1630 0.930 . S
H1650 C1685 0.931 . S
N1651 Eu1620 2.657 . S
N1651 C1652 1.334 . S
N1651 C1656 1.362 . S
C1652 H1644 0.929 . S
C1652 N1651 1.334 . S
C1652 C1655 1.413 . S
C1653 H1647 0.930 . S
C1653 C1654 1.392 . S
C1653 C1655 1.367 . S
C1654 C1653 1.392 . S
C1654 C1656 1.420 . S
C1654 C1686 1.423 . S
C1655 H1641 0.930 . S
C1655 C1652 1.413 . S
C1655 C1653 1.367 . S
C1656 N1651 1.362 . S
C1656 C1654 1.420 . S
C1656 C1660 1.429 . S
H1657 C1662 0.930 . S
N1658 Eu1620 2.609 . S
N1658 C1660 1.377 . S
N1658 C1661 1.321 . S
C1659 H1645 0.930 . S
C1659 C1661 1.400 . S
C1659 C1662 1.386 . S
C1660 C1656 1.429 . S
C1660 N1658 1.377 . S
C1660 C1663 1.411 . S
C1661 H1643 0.930 . S
C1661 N1658 1.321 . S
C1661 C1659 1.400 . S
C1662 H1657 0.930 . S
C1662 C1659 1.386 . S
C1662 C1663 1.395 . S
C1663 C1660 1.411 . S
C1663 C1662 1.395 . S
C1663 C1685 1.420 . S
O1664 Eu1620 2.558 . S
O1664 C1684 1.257 . S
O1665 Eu1620 2.612 . S
O1665 Eu1631 2.380 . S
O1665 C1676 1.276 . S
O1666 Eu1631 2.432 . S
O1666 C1683 1.264 . S
O1667 Eu1620 2.339 . S
O1667 C1683 1.254 . S
O1668 Eu1620 2.563 . S
O1668 C1676 1.235 . S
O1669 Eu1620 2.419 . S
O1669 C1684 1.249 . S
O1670 Eu1631 2.558 . S
O1670 C1695 1.257 . S
O1671 Eu1620 2.380 . S
O1671 Eu1631 2.612 . S
O1671 C1687 1.276 . S
O1672 Eu1620 2.432 . S
O1672 C1694 1.264 . S
O1673 Eu1631 2.339 . S
O1673 C1694 1.254 . S
O1674 Eu1631 2.563 . S
O1674 C1687 1.235 . S
O1675 Eu1631 2.419 . S
O1675 C1695 1.249 . S
C1676 O1665 1.276 . S
C1676 O1668 1.235 . S
C1677 C1679 1.393 . S
C1677 C1681 1.395 . S
C1677 C1684 1.492 . S
C1678 C1679 1.392 . S
C1678 C1680 1.386 . S
C1679 C1677 1.393 . S
C1679 C1678 1.392 . S
C1679 H1696 0.930 . S
C1680 C1678 1.386 . S
C1680 C1682 1.395 . S
C1680 H1697 0.930 1_655 S
C1681 C1677 1.395 . S
C1681 C1682 1.379 . S
C1681 H1698 0.930 . S
C1682 C1680 1.395 . S
C1682 C1681 1.379 . S
C1682 H1699 0.930 . S
C1683 O1666 1.264 . S
C1683 O1667 1.254 . S
C1684 Eu1620 2.848 . S
C1684 O1664 1.257 . S
C1684 O1669 1.249 . S
C1684 C1677 1.492 . S
C1685 H1650 0.931 . S
C1685 C1663 1.420 . S
C1685 C1686 1.351 . S
C1686 H1648 0.930 . S
C1686 C1654 1.423 . S
C1686 C1685 1.351 . S
C1687 O1671 1.276 . S
C1687 O1674 1.235 . S
C1688 C1689 1.393 . S
C1688 C1692 1.395 . S
C1688 C1695 1.492 . S
C1689 C1688 1.393 . S
C1689 C1690 1.392 . S
C1689 H1700 0.930 . S
C1690 C1689 1.392 . S
C1690 C1691 1.386 . S
C1691 C1690 1.386 . S
C1691 C1693 1.395 . S
C1691 H1701 0.930 . S
C1692 C1688 1.395 . S
C1692 C1693 1.379 . S
C1692 H1702 0.930 . S
C1693 C1691 1.395 . S
C1693 C1692 1.379 . S
C1693 H1703 0.930 . S
C1694 O1672 1.264 . S
C1694 O1673 1.254 . S
C1695 Eu1631 2.848 . S
C1695 O1670 1.257 . S
C1695 O1675 1.249 . S
C1695 C1688 1.492 . S
H1696 C1679 0.930 . S
H1697 C1680 0.930 1_455 S
H1698 C1681 0.930 . S
H1699 C1682 0.930 . S
H1700 C1689 0.930 . S
H1701 C1691 0.930 . S
H1702 C1692 0.930 . S
H1703 C1693 0.930 . S
Eu1704 N1735 2.657 . S
Eu1704 N1742 2.609 . S
Eu1704 O1748 2.558 . S
Eu1704 O1749 2.612 . S
Eu1704 O1751 2.339 . S
Eu1704 O1752 2.563 . S
Eu1704 O1753 2.419 . S
Eu1704 O1755 2.380 . S
Eu1704 O1756 2.432 . S
Eu1704 C1768 2.848 . S
C1705 C1708 1.429 . S
C1705 C1709 1.411 1_455 S
C1705 N1712 1.377 . S
C1706 C1708 1.420 1_655 S
C1706 C1710 1.423 . S
C1706 C1718 1.392 . S
C1707 C1709 1.420 . S
C1707 C1710 1.351 . S
C1707 H1730 0.931 . S
C1708 C1705 1.429 . S
C1708 C1706 1.420 1_455 S
C1708 N1716 1.362 . S
C1709 C1705 1.411 1_655 S
C1709 C1707 1.420 . S
C1709 C1714 1.395 . S
C1710 C1706 1.423 . S
C1710 C1707 1.351 . S
C1710 H1722 0.930 . S
C1711 C1713 1.400 . S
C1711 C1714 1.386 1_455 S
C1711 H1723 0.930 . S
N1712 C1705 1.377 . S
N1712 C1713 1.321 . S
N1712 Eu1715 2.609 . S
C1713 C1711 1.400 . S
C1713 N1712 1.321 . S
C1713 H1720 0.930 . S
C1714 C1709 1.395 . S
C1714 C1711 1.386 1_655 S
C1714 H1733 0.930 . S
Eu1715 N1712 2.609 . S
Eu1715 N1716 2.657 . S
Eu1715 O1749 2.380 . S
Eu1715 O1750 2.432 . S
Eu1715 O1754 2.558 . S
Eu1715 O1755 2.612 . S
Eu1715 O1757 2.339 . S
Eu1715 O1758 2.563 . S
Eu1715 O1759 2.419 . S
Eu1715 C1779 2.848 . S
N1716 C1708 1.362 . S
N1716 Eu1715 2.657 . S
N1716 C1717 1.334 . S
C1717 N1716 1.334 . S
C1717 C1719 1.413 1_455 S
C1717 H1724 0.929 . S
C1718 C1706 1.392 . S
C1718 C1719 1.367 . S
C1718 H1726 0.930 . S
C1719 C1717 1.413 1_655 S
C1719 C1718 1.367 . S
C1719 H1721 0.930 . S
H1720 C1713 0.930 . S
H1721 C1719 0.930 . S
H1722 C1710 0.930 . S
H1723 C1711 0.930 . S
H1724 C1717 0.929 . S
H1725 C1739 0.930 . S
H1726 C1718 0.930 . S
H1727 C1745 0.930 . S
H1728 C1736 0.929 . S
H1729 C1743 0.930 . S
H1730 C1707 0.931 . S
H1731 C1737 0.930 . S
H1732 C1770 0.930 . S
H1733 C1714 0.930 . S
H1734 C1769 0.931 . S
N1735 Eu1704 2.657 . S
N1735 C1736 1.334 . S
N1735 C1740 1.362 . S
C1736 H1728 0.929 . S
C1736 N1735 1.334 . S
C1736 C1739 1.413 . S
C1737 H1731 0.930 . S
C1737 C1738 1.392 . S
C1737 C1739 1.367 . S
C1738 C1737 1.392 . S
C1738 C1740 1.420 . S
C1738 C1770 1.423 . S
C1739 H1725 0.930 . S
C1739 C1736 1.413 . S
C1739 C1737 1.367 . S
C1740 N1735 1.362 . S
C1740 C1738 1.420 . S
C1740 C1744 1.429 . S
H1741 C1746 0.930 . S
N1742 Eu1704 2.609 . S
N1742 C1744 1.377 . S
N1742 C1745 1.321 . S
C1743 H1729 0.930 . S
C1743 C1745 1.400 . S
C1743 C1746 1.386 . S
C1744 C1740 1.429 . S
C1744 N1742 1.377 . S
C1744 C1747 1.411 . S
C1745 H1727 0.930 . S
C1745 N1742 1.321 . S
C1745 C1743 1.400 . S
C1746 H1741 0.930 . S
C1746 C1743 1.386 . S
C1746 C1747 1.395 . S
C1747 C1744 1.411 . S
C1747 C1746 1.395 . S
C1747 C1769 1.420 . S
O1748 Eu1704 2.558 . S
O1748 C1768 1.257 . S
O1749 Eu1704 2.612 . S
O1749 Eu1715 2.380 . S
O1749 C1760 1.276 . S
O1750 Eu1715 2.432 . S
O1750 C1767 1.264 . S
O1751 Eu1704 2.339 . S
O1751 C1767 1.254 . S
O1752 Eu1704 2.563 . S
O1752 C1760 1.235 . S
O1753 Eu1704 2.419 . S
O1753 C1768 1.249 . S
O1754 Eu1715 2.558 . S
O1754 C1779 1.257 . S
O1755 Eu1704 2.380 . S
O1755 Eu1715 2.612 . S
O1755 C1771 1.276 . S
O1756 Eu1704 2.432 . S
O1756 C1778 1.264 . S
O1757 Eu1715 2.339 . S
O1757 C1778 1.254 . S
O1758 Eu1715 2.563 . S
O1758 C1771 1.235 . S
O1759 Eu1715 2.419 . S
O1759 C1779 1.249 . S
C1760 O1749 1.276 . S
C1760 O1752 1.235 . S
C1761 C1763 1.393 . S
C1761 C1765 1.395 . S
C1761 C1768 1.492 . S
C1762 C1763 1.392 . S
C1762 C1764 1.386 . S
C1763 C1761 1.393 . S
C1763 C1762 1.392 . S
C1763 H1780 0.930 . S
C1764 C1762 1.386 . S
C1764 C1766 1.395 . S
C1764 H1781 0.930 . S
C1765 C1761 1.395 . S
C1765 C1766 1.379 . S
C1765 H1782 0.930 . S
C1766 C1764 1.395 . S
C1766 C1765 1.379 . S
C1766 H1783 0.930 . S
C1767 O1750 1.264 . S
C1767 O1751 1.254 . S
C1768 Eu1704 2.848 . S
C1768 O1748 1.257 . S
C1768 O1753 1.249 . S
C1768 C1761 1.492 . S
C1769 H1734 0.931 . S
C1769 C1747 1.420 . S
C1769 C1770 1.351 . S
C1770 H1732 0.930 . S
C1770 C1738 1.423 . S
C1770 C1769 1.351 . S
C1771 O1755 1.276 . S
C1771 O1758 1.235 . S
C1772 C1773 1.393 . S
C1772 C1776 1.395 . S
C1772 C1779 1.492 . S
C1773 C1772 1.393 . S
C1773 C1774 1.392 . S
C1773 H1784 0.930 . S
C1774 C1773 1.392 . S
C1774 C1775 1.386 . S
C1775 C1774 1.386 . S
C1775 C1777 1.395 . S
C1775 H1785 0.930 . S
C1776 C1772 1.395 . S
C1776 C1777 1.379 . S
C1776 H1786 0.930 . S
C1777 C1775 1.395 . S
C1777 C1776 1.379 . S
C1777 H1787 0.930 . S
C1778 O1756 1.264 . S
C1778 O1757 1.254 . S
C1779 Eu1715 2.848 . S
C1779 O1754 1.257 . S
C1779 O1759 1.249 . S
C1779 C1772 1.492 . S
H1780 C1763 0.930 . S
H1781 C1764 0.930 . S
H1782 C1765 0.930 . S
H1783 C1766 0.930 . S
H1784 C1773 0.930 . S
H1785 C1775 0.930 . S
H1786 C1776 0.930 . S
H1787 C1777 0.930 . S
Eu1788 N1819 2.657 . S
Eu1788 N1826 2.609 . S
Eu1788 O1832 2.558 . S
Eu1788 O1833 2.612 . S
Eu1788 O1835 2.339 . S
Eu1788 O1836 2.563 . S
Eu1788 O1837 2.419 . S
Eu1788 O1839 2.380 . S
Eu1788 O1840 2.432 . S
Eu1788 C1852 2.848 . S
C1789 C1792 1.429 . S
C1789 C1793 1.411 . S
C1789 N1796 1.377 . S
C1790 C1792 1.420 . S
C1790 C1794 1.423 . S
C1790 C1802 1.392 . S
C1791 C1793 1.420 . S
C1791 C1794 1.351 . S
C1791 H1814 0.931 . S
C1792 C1789 1.429 . S
C1792 C1790 1.420 . S
C1792 N1800 1.362 . S
C1793 C1789 1.411 . S
C1793 C1791 1.420 . S
C1793 C1798 1.395 . S
C1794 C1790 1.423 . S
C1794 C1791 1.351 . S
C1794 H1806 0.930 . S
C1795 C1797 1.400 . S
C1795 C1798 1.386 . S
C1795 H1807 0.930 . S
N1796 C1789 1.377 . S
N1796 C1797 1.321 . S
N1796 Eu1799 2.609 . S
C1797 C1795 1.400 . S
C1797 N1796 1.321 . S
C1797 H1804 0.930 . S
C1798 C1793 1.395 . S
C1798 C1795 1.386 . S
C1798 H1817 0.930 . S
Eu1799 N1796 2.609 . S
Eu1799 N1800 2.657 . S
Eu1799 O1833 2.380 . S
Eu1799 O1834 2.432 . S
Eu1799 O1838 2.558 . S
Eu1799 O1839 2.612 . S
Eu1799 O1841 2.339 . S
Eu1799 O1842 2.563 . S
Eu1799 O1843 2.419 . S
Eu1799 C1863 2.848 . S
N1800 C1792 1.362 . S
N1800 Eu1799 2.657 . S
N1800 C1801 1.334 . S
C1801 N1800 1.334 . S
C1801 C1803 1.413 . S
C1801 H1808 0.929 . S
C1802 C1790 1.392 . S
C1802 C1803 1.367 . S
C1802 H1810 0.930 . S
C1803 C1801 1.413 . S
C1803 C1802 1.367 . S
C1803 H1805 0.930 . S
H1804 C1797 0.930 . S
H1805 C1803 0.930 . S
H1806 C1794 0.930 . S
H1807 C1795 0.930 . S
H1808 C1801 0.929 . S
H1809 C1823 0.930 . S
H1810 C1802 0.930 . S
H1811 C1829 0.930 . S
H1812 C1820 0.929 . S
H1813 C1827 0.930 . S
H1814 C1791 0.931 . S
H1815 C1821 0.930 . S
H1816 C1854 0.930 . S
H1817 C1798 0.930 . S
H1818 C1853 0.931 . S
N1819 Eu1788 2.657 . S
N1819 C1820 1.334 . S
N1819 C1824 1.362 . S
C1820 H1812 0.929 . S
C1820 N1819 1.334 . S
C1820 C1823 1.413 . S
C1821 H1815 0.930 . S
C1821 C1822 1.392 . S
C1821 C1823 1.367 . S
C1822 C1821 1.392 . S
C1822 C1824 1.420 . S
C1822 C1854 1.423 . S
C1823 H1809 0.930 . S
C1823 C1820 1.413 . S
C1823 C1821 1.367 . S
C1824 N1819 1.362 . S
C1824 C1822 1.420 . S
C1824 C1828 1.429 . S
H1825 C1830 0.930 . S
N1826 Eu1788 2.609 . S
N1826 C1828 1.377 . S
N1826 C1829 1.321 . S
C1827 H1813 0.930 . S
C1827 C1829 1.400 . S
C1827 C1830 1.386 . S
C1828 C1824 1.429 . S
C1828 N1826 1.377 . S
C1828 C1831 1.411 . S
C1829 H1811 0.930 . S
C1829 N1826 1.321 . S
C1829 C1827 1.400 . S
C1830 H1825 0.930 . S
C1830 C1827 1.386 . S
C1830 C1831 1.395 . S
C1831 C1828 1.411 . S
C1831 C1830 1.395 . S
C1831 C1853 1.420 . S
O1832 Eu1788 2.558 . S
O1832 C1852 1.257 . S
O1833 Eu1788 2.612 . S
O1833 Eu1799 2.380 . S
O1833 C1844 1.276 . S
O1834 Eu1799 2.432 . S
O1834 C1851 1.264 . S
O1835 Eu1788 2.339 . S
O1835 C1851 1.254 . S
O1836 Eu1788 2.563 . S
O1836 C1844 1.235 . S
O1837 Eu1788 2.419 . S
O1837 C1852 1.249 . S
O1838 Eu1799 2.558 . S
O1838 C1863 1.257 . S
O1839 Eu1788 2.380 . S
O1839 Eu1799 2.612 . S
O1839 C1855 1.276 . S
O1840 Eu1788 2.432 . S
O1840 C1862 1.264 . S
O1841 Eu1799 2.339 . S
O1841 C1862 1.254 . S
O1842 Eu1799 2.563 . S
O1842 C1855 1.235 . S
O1843 Eu1799 2.419 . S
O1843 C1863 1.249 . S
C1844 O1833 1.276 . S
C1844 O1836 1.235 . S
C1845 C1847 1.393 . S
C1845 C1849 1.395 . S
C1845 C1852 1.492 . S
C1846 C1847 1.392 . S
C1846 C1848 1.386 . S
C1847 C1845 1.393 . S
C1847 C1846 1.392 . S
C1847 H1864 0.930 . S
C1848 C1846 1.386 . S
C1848 C1850 1.395 . S
C1848 H1865 0.930 . S
C1849 C1845 1.395 . S
C1849 C1850 1.379 . S
C1849 H1866 0.930 . S
C1850 C1848 1.395 . S
C1850 C1849 1.379 . S
C1850 H1867 0.930 . S
C1851 O1834 1.264 . S
C1851 O1835 1.254 . S
C1852 Eu1788 2.848 . S
C1852 O1832 1.257 . S
C1852 O1837 1.249 . S
C1852 C1845 1.492 . S
C1853 H1818 0.931 . S
C1853 C1831 1.420 . S
C1853 C1854 1.351 . S
C1854 H1816 0.930 . S
C1854 C1822 1.423 . S
C1854 C1853 1.351 . S
C1855 O1839 1.276 . S
C1855 O1842 1.235 . S
C1856 C1857 1.393 . S
C1856 C1860 1.395 . S
C1856 C1863 1.492 . S
C1857 C1856 1.393 . S
C1857 C1858 1.392 . S
C1857 H1868 0.930 . S
C1858 C1857 1.392 . S
C1858 C1859 1.386 . S
C1859 C1858 1.386 . S
C1859 C1861 1.395 . S
C1859 H1869 0.930 . S
C1860 C1856 1.395 . S
C1860 C1861 1.379 . S
C1860 H1870 0.930 . S
C1861 C1859 1.395 . S
C1861 C1860 1.379 . S
C1861 H1871 0.930 . S
C1862 O1840 1.264 . S
C1862 O1841 1.254 . S
C1863 Eu1799 2.848 . S
C1863 O1838 1.257 . S
C1863 O1843 1.249 . S
C1863 C1856 1.492 . S
H1864 C1847 0.930 . S
H1865 C1848 0.930 . S
H1866 C1849 0.930 . S
H1867 C1850 0.930 . S
H1868 C1857 0.930 . S
H1869 C1859 0.930 . S
H1870 C1860 0.930 . S
H1871 C1861 0.930 . S
Eu1872 N1903 2.657 . S
Eu1872 N1910 2.609 . S
Eu1872 O1916 2.558 . S
Eu1872 O1917 2.612 . S
Eu1872 O1919 2.339 . S
Eu1872 O1920 2.563 . S
Eu1872 O1921 2.419 . S
Eu1872 O1923 2.380 . S
Eu1872 O1924 2.432 . S
Eu1872 C1936 2.848 . S
C1873 C1876 1.429 . S
C1873 C1877 1.411 . S
C1873 N1880 1.377 . S
C1874 C1876 1.420 . S
C1874 C1878 1.423 . S
C1874 C1886 1.392 . S
C1875 C1877 1.420 . S
C1875 C1878 1.351 . S
C1875 H1898 0.931 . S
C1876 C1873 1.429 . S
C1876 C1874 1.420 . S
C1876 N1884 1.362 . S
C1877 C1873 1.411 . S
C1877 C1875 1.420 . S
C1877 C1882 1.395 . S
C1878 C1874 1.423 . S
C1878 C1875 1.351 . S
C1878 H1890 0.930 . S
C1879 C1881 1.400 . S
C1879 C1882 1.386 . S
C1879 H1891 0.930 . S
N1880 C1873 1.377 . S
N1880 C1881 1.321 . S
N1880 Eu1883 2.609 . S
C1881 C1879 1.400 . S
C1881 N1880 1.321 . S
C1881 H1888 0.930 . S
C1882 C1877 1.395 . S
C1882 C1879 1.386 . S
C1882 H1901 0.930 . S
Eu1883 N1880 2.609 . S
Eu1883 N1884 2.657 . S
Eu1883 O1917 2.380 . S
Eu1883 O1918 2.432 . S
Eu1883 O1922 2.558 . S
Eu1883 O1923 2.612 . S
Eu1883 O1925 2.339 . S
Eu1883 O1926 2.563 . S
Eu1883 O1927 2.419 . S
Eu1883 C1947 2.848 . S
N1884 C1876 1.362 . S
N1884 Eu1883 2.657 . S
N1884 C1885 1.334 . S
C1885 N1884 1.334 . S
C1885 C1887 1.413 . S
C1885 H1892 0.929 . S
C1886 C1874 1.392 . S
C1886 C1887 1.367 . S
C1886 H1894 0.930 . S
C1887 C1885 1.413 . S
C1887 C1886 1.367 . S
C1887 H1889 0.930 . S
H1888 C1881 0.930 . S
H1889 C1887 0.930 . S
H1890 C1878 0.930 . S
H1891 C1879 0.930 . S
H1892 C1885 0.929 . S
H1893 C1907 0.930 . S
H1894 C1886 0.930 . S
H1895 C1913 0.930 . S
H1896 C1904 0.929 . S
H1897 C1911 0.930 . S
H1898 C1875 0.931 . S
H1899 C1905 0.930 . S
H1900 C1938 0.930 . S
H1901 C1882 0.930 . S
H1902 C1937 0.931 . S
N1903 Eu1872 2.657 . S
N1903 C1904 1.334 . S
N1903 C1908 1.362 . S
C1904 H1896 0.929 . S
C1904 N1903 1.334 . S
C1904 C1907 1.413 . S
C1905 H1899 0.930 . S
C1905 C1906 1.392 . S
C1905 C1907 1.367 . S
C1906 C1905 1.392 . S
C1906 C1908 1.420 . S
C1906 C1938 1.423 . S
C1907 H1893 0.930 . S
C1907 C1904 1.413 . S
C1907 C1905 1.367 . S
C1908 N1903 1.362 . S
C1908 C1906 1.420 . S
C1908 C1912 1.429 . S
H1909 C1914 0.930 . S
N1910 Eu1872 2.609 . S
N1910 C1912 1.377 . S
N1910 C1913 1.321 . S
C1911 H1897 0.930 . S
C1911 C1913 1.400 . S
C1911 C1914 1.386 . S
C1912 C1908 1.429 . S
C1912 N1910 1.377 . S
C1912 C1915 1.411 . S
C1913 H1895 0.930 . S
C1913 N1910 1.321 . S
C1913 C1911 1.400 . S
C1914 H1909 0.930 . S
C1914 C1911 1.386 . S
C1914 C1915 1.395 . S
C1915 C1912 1.411 . S
C1915 C1914 1.395 . S
C1915 C1937 1.420 . S
O1916 Eu1872 2.558 . S
O1916 C1936 1.257 . S
O1917 Eu1872 2.612 . S
O1917 Eu1883 2.380 . S
O1917 C1928 1.276 . S
O1918 Eu1883 2.432 . S
O1918 C1935 1.264 . S
O1919 Eu1872 2.339 . S
O1919 C1935 1.254 . S
O1920 Eu1872 2.563 . S
O1920 C1928 1.235 . S
O1921 Eu1872 2.419 . S
O1921 C1936 1.249 . S
O1922 Eu1883 2.558 . S
O1922 C1947 1.257 . S
O1923 Eu1872 2.380 . S
O1923 Eu1883 2.612 . S
O1923 C1939 1.276 . S
O1924 Eu1872 2.432 . S
O1924 C1946 1.264 . S
O1925 Eu1883 2.339 . S
O1925 C1946 1.254 . S
O1926 Eu1883 2.563 . S
O1926 C1939 1.235 . S
O1927 Eu1883 2.419 . S
O1927 C1947 1.249 . S
C1928 O1917 1.276 . S
C1928 O1920 1.235 . S
C1929 C1931 1.393 . S
C1929 C1933 1.395 . S
C1929 C1936 1.492 . S
C1930 C1931 1.392 . S
C1930 C1932 1.386 . S
C1931 C1929 1.393 . S
C1931 C1930 1.392 . S
C1931 H1948 0.930 . S
C1932 C1930 1.386 . S
C1932 C1934 1.395 . S
C1932 H1949 0.930 . S
C1933 C1929 1.395 . S
C1933 C1934 1.379 . S
C1933 H1950 0.930 . S
C1934 C1932 1.395 . S
C1934 C1933 1.379 . S
C1934 H1951 0.930 . S
C1935 O1918 1.264 . S
C1935 O1919 1.254 . S
C1936 Eu1872 2.848 . S
C1936 O1916 1.257 . S
C1936 O1921 1.249 . S
C1936 C1929 1.492 . S
C1937 H1902 0.931 . S
C1937 C1915 1.420 . S
C1937 C1938 1.351 . S
C1938 H1900 0.930 . S
C1938 C1906 1.423 . S
C1938 C1937 1.351 . S
C1939 O1923 1.276 . S
C1939 O1926 1.235 . S
C1940 C1941 1.393 . S
C1940 C1944 1.395 . S
C1940 C1947 1.492 . S
C1941 C1940 1.393 . S
C1941 C1942 1.392 . S
C1941 H1952 0.930 . S
C1942 C1941 1.392 . S
C1942 C1943 1.386 . S
C1943 C1942 1.386 . S
C1943 C1945 1.395 . S
C1943 H1953 0.930 . S
C1944 C1940 1.395 . S
C1944 C1945 1.379 . S
C1944 H1954 0.930 . S
C1945 C1943 1.395 . S
C1945 C1944 1.379 . S
C1945 H1955 0.930 . S
C1946 O1924 1.264 . S
C1946 O1925 1.254 . S
C1947 Eu1883 2.848 . S
C1947 O1922 1.257 . S
C1947 O1927 1.249 . S
C1947 C1940 1.492 . S
H1948 C1931 0.930 . S
H1949 C1932 0.930 . S
H1950 C1933 0.930 . S
H1951 C1934 0.930 . S
H1952 C1941 0.930 . S
H1953 C1943 0.930 . S
H1954 C1944 0.930 . S
H1955 C1945 0.930 . S
Eu1956 N1987 2.657 . S
Eu1956 N1994 2.609 . S
Eu1956 O2000 2.558 . S
Eu1956 O2001 2.612 . S
Eu1956 O2003 2.339 . S
Eu1956 O2004 2.563 . S
Eu1956 O2005 2.419 . S
Eu1956 O2007 2.380 . S
Eu1956 O2008 2.432 . S
Eu1956 C2020 2.848 . S
C1957 C1960 1.429 . S
C1957 C1961 1.411 . S
C1957 N1964 1.377 . S
C1958 C1960 1.420 . S
C1958 C1962 1.423 . S
C1958 C1970 1.392 . S
C1959 C1961 1.420 . S
C1959 C1962 1.351 . S
C1959 H1982 0.931 . S
C1960 C1957 1.429 . S
C1960 C1958 1.420 . S
C1960 N1968 1.362 . S
C1961 C1957 1.411 . S
C1961 C1959 1.420 . S
C1961 C1966 1.395 . S
C1962 C1958 1.423 . S
C1962 C1959 1.351 . S
C1962 H1974 0.930 . S
C1963 C1965 1.400 . S
C1963 C1966 1.386 . S
C1963 H1975 0.930 . S
N1964 C1957 1.377 . S
N1964 C1965 1.321 . S
N1964 Eu1967 2.609 . S
C1965 C1963 1.400 . S
C1965 N1964 1.321 . S
C1965 H1972 0.930 . S
C1966 C1961 1.395 . S
C1966 C1963 1.386 . S
C1966 H1985 0.930 . S
Eu1967 N1964 2.609 . S
Eu1967 N1968 2.657 . S
Eu1967 O2001 2.380 . S
Eu1967 O2002 2.432 . S
Eu1967 O2006 2.558 . S
Eu1967 O2007 2.612 . S
Eu1967 O2009 2.339 . S
Eu1967 O2010 2.563 . S
Eu1967 O2011 2.419 . S
Eu1967 C2031 2.848 . S
N1968 C1960 1.362 . S
N1968 Eu1967 2.657 . S
N1968 C1969 1.334 . S
C1969 N1968 1.334 . S
C1969 C1971 1.413 . S
C1969 H1976 0.929 . S
C1970 C1958 1.392 . S
C1970 C1971 1.367 . S
C1970 H1978 0.930 . S
C1971 C1969 1.413 . S
C1971 C1970 1.367 . S
C1971 H1973 0.930 . S
H1972 C1965 0.930 . S
H1973 C1971 0.930 . S
H1974 C1962 0.930 . S
H1975 C1963 0.930 . S
H1976 C1969 0.929 . S
H1977 C1991 0.930 . S
H1978 C1970 0.930 . S
H1979 C1997 0.930 . S
H1980 C1988 0.929 . S
H1981 C1995 0.930 . S
H1982 C1959 0.931 . S
H1983 C1989 0.930 . S
H1984 C2022 0.930 . S
H1985 C1966 0.930 . S
H1986 C2021 0.931 . S
N1987 Eu1956 2.657 . S
N1987 C1988 1.334 . S
N1987 C1992 1.362 . S
C1988 H1980 0.929 . S
C1988 N1987 1.334 . S
C1988 C1991 1.413 . S
C1989 H1983 0.930 . S
C1989 C1990 1.392 . S
C1989 C1991 1.367 . S
C1990 C1989 1.392 . S
C1990 C1992 1.420 . S
C1990 C2022 1.423 . S
C1991 H1977 0.930 . S
C1991 C1988 1.413 . S
C1991 C1989 1.367 . S
C1992 N1987 1.362 . S
C1992 C1990 1.420 . S
C1992 C1996 1.429 . S
H1993 C1998 0.930 . S
N1994 Eu1956 2.609 . S
N1994 C1996 1.377 . S
N1994 C1997 1.321 . S
C1995 H1981 0.930 . S
C1995 C1997 1.400 . S
C1995 C1998 1.386 . S
C1996 C1992 1.429 . S
C1996 N1994 1.377 . S
C1996 C1999 1.411 . S
C1997 H1979 0.930 . S
C1997 N1994 1.321 . S
C1997 C1995 1.400 . S
C1998 H1993 0.930 . S
C1998 C1995 1.386 . S
C1998 C1999 1.395 . S
C1999 C1996 1.411 . S
C1999 C1998 1.395 . S
C1999 C2021 1.420 . S
O2000 Eu1956 2.558 . S
O2000 C2020 1.257 . S
O2001 Eu1956 2.612 . S
O2001 Eu1967 2.380 . S
O2001 C2012 1.276 . S
O2002 Eu1967 2.432 . S
O2002 C2019 1.264 . S
O2003 Eu1956 2.339 . S
O2003 C2019 1.254 . S
O2004 Eu1956 2.563 . S
O2004 C2012 1.235 . S
O2005 Eu1956 2.419 . S
O2005 C2020 1.249 . S
O2006 Eu1967 2.558 . S
O2006 C2031 1.257 . S
O2007 Eu1956 2.380 . S
O2007 Eu1967 2.612 . S
O2007 C2023 1.276 . S
O2008 Eu1956 2.432 . S
O2008 C2030 1.264 . S
O2009 Eu1967 2.339 . S
O2009 C2030 1.254 . S
O2010 Eu1967 2.563 . S
O2010 C2023 1.235 . S
O2011 Eu1967 2.419 . S
O2011 C2031 1.249 . S
C2012 O2001 1.276 . S
C2012 O2004 1.235 . S
C2013 C2015 1.393 . S
C2013 C2017 1.395 . S
C2013 C2020 1.492 . S
C2014 C2015 1.392 . S
C2014 C2016 1.386 . S
C2015 C2013 1.393 . S
C2015 C2014 1.392 . S
C2015 H2032 0.930 . S
C2016 C2014 1.386 . S
C2016 C2018 1.395 . S
C2016 H2033 0.930 . S
C2017 C2013 1.395 . S
C2017 C2018 1.379 . S
C2017 H2034 0.930 . S
C2018 C2016 1.395 . S
C2018 C2017 1.379 . S
C2018 H2035 0.930 . S
C2019 O2002 1.264 . S
C2019 O2003 1.254 . S
C2020 Eu1956 2.848 . S
C2020 O2000 1.257 . S
C2020 O2005 1.249 . S
C2020 C2013 1.492 . S
C2021 H1986 0.931 . S
C2021 C1999 1.420 . S
C2021 C2022 1.351 . S
C2022 H1984 0.930 . S
C2022 C1990 1.423 . S
C2022 C2021 1.351 . S
C2023 O2007 1.276 . S
C2023 O2010 1.235 . S
C2024 C2025 1.393 . S
C2024 C2028 1.395 . S
C2024 C2031 1.492 . S
C2025 C2024 1.393 . S
C2025 C2026 1.392 . S
C2025 H2036 0.930 . S
C2026 C2025 1.392 . S
C2026 C2027 1.386 . S
C2027 C2026 1.386 . S
C2027 C2029 1.395 . S
C2027 H2037 0.930 . S
C2028 C2024 1.395 . S
C2028 C2029 1.379 . S
C2028 H2038 0.930 . S
C2029 C2027 1.395 . S
C2029 C2028 1.379 . S
C2029 H2039 0.930 . S
C2030 O2008 1.264 . S
C2030 O2009 1.254 . S
C2031 Eu1967 2.848 . S
C2031 O2006 1.257 . S
C2031 O2011 1.249 . S
C2031 C2024 1.492 . S
H2032 C2015 0.930 . S
H2033 C2016 0.930 . S
H2034 C2017 0.930 . S
H2035 C2018 0.930 . S
H2036 C2025 0.930 . S
H2037 C2027 0.930 . S
H2038 C2028 0.930 . S
H2039 C2029 0.930 . S
Eu2040 N2071 2.657 . S
Eu2040 N2078 2.609 . S
Eu2040 O2084 2.558 . S
Eu2040 O2085 2.612 . S
Eu2040 O2087 2.339 . S
Eu2040 O2088 2.563 . S
Eu2040 O2089 2.419 . S
Eu2040 O2091 2.380 . S
Eu2040 O2092 2.432 . S
Eu2040 C2104 2.848 . S
C2041 C2044 1.429 . S
C2041 C2045 1.411 . S
C2041 N2048 1.377 . S
C2042 C2044 1.420 . S
C2042 C2046 1.423 . S
C2042 C2054 1.392 . S
C2043 C2045 1.420 . S
C2043 C2046 1.351 . S
C2043 H2066 0.931 . S
C2044 C2041 1.429 . S
C2044 C2042 1.420 . S
C2044 N2052 1.362 . S
C2045 C2041 1.411 . S
C2045 C2043 1.420 . S
C2045 C2050 1.395 . S
C2046 C2042 1.423 . S
C2046 C2043 1.351 . S
C2046 H2058 0.930 . S
C2047 C2049 1.400 . S
C2047 C2050 1.386 . S
C2047 H2059 0.930 . S
N2048 C2041 1.377 . S
N2048 C2049 1.321 . S
N2048 Eu2051 2.609 . S
C2049 C2047 1.400 . S
C2049 N2048 1.321 . S
C2049 H2056 0.930 . S
C2050 C2045 1.395 . S
C2050 C2047 1.386 . S
C2050 H2069 0.930 . S
Eu2051 N2048 2.609 . S
Eu2051 N2052 2.657 . S
Eu2051 O2085 2.380 . S
Eu2051 O2086 2.432 . S
Eu2051 O2090 2.558 . S
Eu2051 O2091 2.612 . S
Eu2051 O2093 2.339 . S
Eu2051 O2094 2.563 . S
Eu2051 O2095 2.419 . S
Eu2051 C2115 2.848 . S
N2052 C2044 1.362 . S
N2052 Eu2051 2.657 . S
N2052 C2053 1.334 . S
C2053 N2052 1.334 . S
C2053 C2055 1.413 . S
C2053 H2060 0.929 . S
C2054 C2042 1.392 . S
C2054 C2055 1.367 . S
C2054 H2062 0.930 . S
C2055 C2053 1.413 . S
C2055 C2054 1.367 . S
C2055 H2057 0.930 . S
H2056 C2049 0.930 . S
H2057 C2055 0.930 . S
H2058 C2046 0.930 . S
H2059 C2047 0.930 . S
H2060 C2053 0.929 . S
H2061 C2075 0.930 . S
H2062 C2054 0.930 . S
H2063 C2081 0.930 . S
H2064 C2072 0.929 . S
H2065 C2079 0.930 . S
H2066 C2043 0.931 . S
H2067 C2073 0.930 . S
H2068 C2106 0.930 . S
H2069 C2050 0.930 . S
H2070 C2105 0.931 . S
N2071 Eu2040 2.657 . S
N2071 C2072 1.334 . S
N2071 C2076 1.362 . S
C2072 H2064 0.929 . S
C2072 N2071 1.334 . S
C2072 C2075 1.413 . S
C2073 H2067 0.930 . S
C2073 C2074 1.392 . S
C2073 C2075 1.367 . S
C2074 C2073 1.392 . S
C2074 C2076 1.420 . S
C2074 C2106 1.423 . S
C2075 H2061 0.930 . S
C2075 C2072 1.413 . S
C2075 C2073 1.367 . S
C2076 N2071 1.362 . S
C2076 C2074 1.420 . S
C2076 C2080 1.429 . S
H2077 C2082 0.930 . S
N2078 Eu2040 2.609 . S
N2078 C2080 1.377 . S
N2078 C2081 1.321 . S
C2079 H2065 0.930 . S
C2079 C2081 1.400 . S
C2079 C2082 1.386 . S
C2080 C2076 1.429 . S
C2080 N2078 1.377 . S
C2080 C2083 1.411 . S
C2081 H2063 0.930 . S
C2081 N2078 1.321 . S
C2081 C2079 1.400 . S
C2082 H2077 0.930 . S
C2082 C2079 1.386 . S
C2082 C2083 1.395 . S
C2083 C2080 1.411 . S
C2083 C2082 1.395 . S
C2083 C2105 1.420 . S
O2084 Eu2040 2.558 . S
O2084 C2104 1.257 . S
O2085 Eu2040 2.612 . S
O2085 Eu2051 2.380 . S
O2085 C2096 1.276 . S
O2086 Eu2051 2.432 . S
O2086 C2103 1.264 . S
O2087 Eu2040 2.339 . S
O2087 C2103 1.254 . S
O2088 Eu2040 2.563 . S
O2088 C2096 1.235 . S
O2089 Eu2040 2.419 . S
O2089 C2104 1.249 . S
O2090 Eu2051 2.558 . S
O2090 C2115 1.257 . S
O2091 Eu2040 2.380 . S
O2091 Eu2051 2.612 . S
O2091 C2107 1.276 . S
O2092 Eu2040 2.432 . S
O2092 C2114 1.264 . S
O2093 Eu2051 2.339 . S
O2093 C2114 1.254 . S
O2094 Eu2051 2.563 . S
O2094 C2107 1.235 . S
O2095 Eu2051 2.419 . S
O2095 C2115 1.249 . S
C2096 O2085 1.276 . S
C2096 O2088 1.235 . S
C2097 C2099 1.393 . S
C2097 C2101 1.395 . S
C2097 C2104 1.492 . S
C2098 C2099 1.392 . S
C2098 C2100 1.386 . S
C2099 C2097 1.393 . S
C2099 C2098 1.392 . S
C2099 H2116 0.930 . S
C2100 C2098 1.386 . S
C2100 C2102 1.395 . S
C2100 H2117 0.930 . S
C2101 C2097 1.395 . S
C2101 C2102 1.379 . S
C2101 H2118 0.930 . S
C2102 C2100 1.395 . S
C2102 C2101 1.379 . S
C2102 H2119 0.930 . S
C2103 O2086 1.264 . S
C2103 O2087 1.254 . S
C2104 Eu2040 2.848 . S
C2104 O2084 1.257 . S
C2104 O2089 1.249 . S
C2104 C2097 1.492 . S
C2105 H2070 0.931 . S
C2105 C2083 1.420 . S
C2105 C2106 1.351 . S
C2106 H2068 0.930 . S
C2106 C2074 1.423 . S
C2106 C2105 1.351 . S
C2107 O2091 1.276 . S
C2107 O2094 1.235 . S
C2108 C2109 1.393 . S
C2108 C2112 1.395 . S
C2108 C2115 1.492 . S
C2109 C2108 1.393 . S
C2109 C2110 1.392 . S
C2109 H2120 0.930 . S
C2110 C2109 1.392 . S
C2110 C2111 1.386 . S
C2111 C2110 1.386 . S
C2111 C2113 1.395 . S
C2111 H2121 0.930 . S
C2112 C2108 1.395 . S
C2112 C2113 1.379 . S
C2112 H2122 0.930 . S
C2113 C2111 1.395 . S
C2113 C2112 1.379 . S
C2113 H2123 0.930 . S
C2114 O2092 1.264 . S
C2114 O2093 1.254 . S
C2115 Eu2051 2.848 . S
C2115 O2090 1.257 . S
C2115 O2095 1.249 . S
C2115 C2108 1.492 . S
H2116 C2099 0.930 . S
H2117 C2100 0.930 . S
H2118 C2101 0.930 . S
H2119 C2102 0.930 . S
H2120 C2109 0.930 . S
H2121 C2111 0.930 . S
H2122 C2112 0.930 . S
H2123 C2113 0.930 . S
Eu2124 N2155 2.664 . S
Eu2124 N2162 2.581 1_554 S
Eu2124 O2168 2.536 1_554 S
Eu2124 O2169 2.630 . S
Eu2124 O2171 2.375 . S
Eu2124 O2172 2.568 1_554 S
Eu2124 O2173 2.426 . S
Eu2124 O2175 2.391 . S
Eu2124 O2176 2.408 1_554 S
Eu2124 C2188 2.839 1_554 S
C2125 C2128 1.429 . S
C2125 C2129 1.411 . S
C2125 N2132 1.377 1_655 S
C2126 C2128 1.420 . S
C2126 C2130 1.423 . S
C2126 C2138 1.392 1_554 S
C2127 C2129 1.420 . S
C2127 C2130 1.351 . S
C2127 H2150 0.931 . S
C2128 C2125 1.429 . S
C2128 C2126 1.420 . S
C2128 N2136 1.362 1_655 S
C2129 C2125 1.411 . S
C2129 C2127 1.420 . S
C2129 C2134 1.395 . S
C2130 C2126 1.423 . S
C2130 C2127 1.351 . S
C2130 H2142 0.930 . S
C2131 C2133 1.400 . S
C2131 C2134 1.386 1_455 S
C2131 H2143 0.930 . S
N2132 C2125 1.377 1_455 S
N2132 C2133 1.321 . S
N2132 Eu2135 2.609 . S
C2133 C2131 1.400 . S
C2133 N2132 1.321 . S
C2133 H2140 0.930 . S
C2134 C2129 1.395 . S
C2134 C2131 1.386 1_655 S
C2134 H2153 0.930 . S
Eu2135 N2132 2.609 . S
Eu2135 N2136 2.657 . S
Eu2135 O2169 2.380 . S
Eu2135 O2170 2.432 . S
Eu2135 O2174 2.558 . S
Eu2135 O2175 2.612 . S
Eu2135 O2177 2.339 1_554 S
Eu2135 O2178 2.563 . S
Eu2135 O2179 2.419 1_455 S
Eu2135 C2199 2.848 1_455 S
N2136 C2128 1.362 1_455 S
N2136 Eu2135 2.657 . S
N2136 C2137 1.334 1_454 S
C2137 N2136 1.334 1_656 S
C2137 C2139 1.413 . S
C2137 H2144 0.929 1_655 S
C2138 C2126 1.392 1_556 S
C2138 C2139 1.367 . S
C2138 H2146 0.930 . S
C2139 C2137 1.413 . S
C2139 C2138 1.367 . S
C2139 H2141 0.930 . S
H2140 C2133 0.930 . S
H2141 C2139 0.930 . S
H2142 C2130 0.930 . S
H2143 C2131 0.930 . S
H2144 C2137 0.929 1_455 S
H2145 C2159 0.930 . S
H2146 C2138 0.930 . S
H2147 C2165 0.930 . S
H2148 C2156 0.929 . S
H2149 C2163 0.930 . S
H2150 C2127 0.931 . S
H2151 C2157 0.930 . S
H2152 C2190 0.930 1_554 S
H2153 C2134 0.930 . S
H2154 C2189 0.931 . S
N2155 Eu2124 2.664 . S
N2155 C2156 1.334 . S
N2155 C2160 1.362 . S
C2156 H2148 0.929 . S
C2156 N2155 1.334 . S
C2156 C2159 1.413 . S
C2157 H2151 0.930 . S
C2157 C2158 1.392 . S
C2157 C2159 1.367 . S
C2158 C2157 1.392 . S
C2158 C2160 1.420 . S
C2158 C2190 1.423 1_554 S
C2159 H2145 0.930 . S
C2159 C2156 1.413 . S
C2159 C2157 1.367 . S
C2160 N2155 1.362 . S
C2160 C2158 1.420 . S
C2160 C2164 1.429 1_554 S
H2161 C2166 0.930 . S
N2162 Eu2124 2.581 1_556 S
N2162 C2164 1.377 . S
N2162 C2165 1.321 . S
C2163 H2149 0.930 . S
C2163 C2165 1.400 . S
C2163 C2166 1.386 . S
C2164 C2160 1.429 1_556 S
C2164 N2162 1.377 . S
C2164 C2167 1.411 . S
C2165 H2147 0.930 . S
C2165 N2162 1.321 . S
C2165 C2163 1.400 . S
C2166 H2161 0.930 . S
C2166 C2163 1.386 . S
C2166 C2167 1.395 . S
C2167 C2164 1.411 . S
C2167 C2166 1.395 . S
C2167 C2189 1.420 . S
O2168 Eu2124 2.536 1_556 S
O2168 C2188 1.257 . S
O2169 Eu2124 2.630 . S
O2169 Eu2135 2.380 . S
O2169 C2180 1.276 . S
O2170 Eu2135 2.432 . S
O2170 C2187 1.264 . S
O2171 Eu2124 2.375 . S
O2171 C2187 1.254 . S
O2172 Eu2124 2.568 1_556 S
O2172 C2180 1.235 1_556 S
O2173 Eu2124 2.426 . S
O2173 C2188 1.249 1_554 S
O2174 Eu2135 2.558 . S
O2174 C2199 1.257 1_455 S
O2175 Eu2124 2.391 . S
O2175 Eu2135 2.612 . S
O2175 C2191 1.276 . S
O2176 Eu2124 2.408 1_556 S
O2176 C2198 1.264 . S
O2177 Eu2135 2.339 1_556 S
O2177 C2198 1.254 . S
O2178 Eu2135 2.563 . S
O2178 C2191 1.235 . S
O2179 Eu2135 2.419 1_655 S
O2179 C2199 1.249 . S
C2180 O2169 1.276 . S
C2180 O2172 1.235 1_554 S
C2181 C2183 1.393 . S
C2181 C2185 1.395 . S
C2181 C2188 1.492 . S
C2182 C2183 1.392 . S
C2182 C2184 1.386 . S
C2183 C2181 1.393 . S
C2183 C2182 1.392 . S
C2183 H2200 0.930 1_556 S
C2184 C2182 1.386 . S
C2184 C2186 1.395 . S
C2184 H2201 0.930 . S
C2185 C2181 1.395 . S
C2185 C2186 1.379 . S
C2185 H2202 0.930 . S
C2186 C2184 1.395 . S
C2186 C2185 1.379 . S
C2186 H2203 0.930 . S
C2187 O2170 1.264 . S
C2187 O2171 1.254 . S
C2188 Eu2124 2.839 1_556 S
C2188 O2168 1.257 . S
C2188 O2173 1.249 1_556 S
C2188 C2181 1.492 . S
C2189 H2154 0.931 . S
C2189 C2167 1.420 . S
C2189 C2190 1.351 . S
C2190 H2152 0.930 1_556 S
C2190 C2158 1.423 1_556 S
C2190 C2189 1.351 . S
C2191 O2175 1.276 . S
C2191 O2178 1.235 . S
C2192 C2193 1.393 . S
C2192 C2196 1.395 . S
C2192 C2199 1.492 . S
C2193 C2192 1.393 . S
C2193 C2194 1.392 . S
C2193 H2204 0.930 . S
C2194 C2193 1.392 . S
C2194 C2195 1.386 . S
C2195 C2194 1.386 . S
C2195 C2197 1.395 . S
C2195 H2205 0.930 . S
C2196 C2192 1.395 . S
C2196 C2197 1.379 . S
C2196 H2206 0.930 . S
C2197 C2195 1.395 . S
C2197 C2196 1.379 . S
C2197 H2207 0.930 . S
C2198 O2176 1.264 . S
C2198 O2177 1.254 . S
C2199 Eu2135 2.848 1_655 S
C2199 O2174 1.257 1_655 S
C2199 O2179 1.249 . S
C2199 C2192 1.492 . S
H2200 C2183 0.930 1_554 S
H2201 C2184 0.930 . S
H2202 C2185 0.930 . S
H2203 C2186 0.930 . S
H2204 C2193 0.930 . S
H2205 C2195 0.930 . S
H2206 C2196 0.930 . S
H2207 C2197 0.930 . S
H2208 C2214 0.930 1_655 S
H2209 C2217 0.930 . S
H2210 C2218 0.930 . S
H2211 C2219 0.930 . S
H2212 C2222 0.930 . S
H2213 C2223 0.930 1_655 S
C2214 H2208 0.930 1_455 S
C2214 C2215 1.355 . S
C2214 C2216 1.415 . S
C2215 C2214 1.355 . S
C2215 C2217 1.419 . S
C2216 C2214 1.415 . S
C2216 C2221 1.425 . S
C2216 C2223 1.409 1_556 S
C2217 H2209 0.930 . S
C2217 C2215 1.419 . S
C2217 C2218 1.362 . S
C2218 H2210 0.930 . S
C2218 C2217 1.362 . S
C2218 C2221 1.409 . S
C2219 H2211 0.930 . S
C2219 C2220 1.355 1_556 S
C2219 C2221 1.415 . S
C2220 C2219 1.355 1_554 S
C2220 C2222 1.419 . S
C2221 C2216 1.425 . S
C2221 C2218 1.409 . S
C2221 C2219 1.415 . S
C2222 H2212 0.930 . S
C2222 C2220 1.419 . S
C2222 C2223 1.362 . S
C2223 H2213 0.930 1_455 S
C2223 C2216 1.409 1_554 S
C2223 C2222 1.362 . S
H2224 C2230 0.930 . S
H2225 C2233 0.930 . S
H2226 C2234 0.930 . S
H2227 C2235 0.930 . S
H2228 C2238 0.930 . S
H2229 C2239 0.930 . S
C2230 H2224 0.930 . S
C2230 C2231 1.355 . S
C2230 C2232 1.415 . S
C2231 C2230 1.355 . S
C2231 C2233 1.419 . S
C2232 C2230 1.415 . S
C2232 C2237 1.425 . S
C2232 C2239 1.409 . S
C2233 H2225 0.930 . S
C2233 C2231 1.419 . S
C2233 C2234 1.362 . S
C2234 H2226 0.930 . S
C2234 C2233 1.362 . S
C2234 C2237 1.409 . S
C2235 H2227 0.930 . S
C2235 C2236 1.355 . S
C2235 C2237 1.415 . S
C2236 C2235 1.355 . S
C2236 C2238 1.419 . S
C2237 C2232 1.425 . S
C2237 C2234 1.409 . S
C2237 C2235 1.415 . S
C2238 H2228 0.930 . S
C2238 C2236 1.419 . S
C2238 C2239 1.362 . S
C2239 H2229 0.930 . S
C2239 C2232 1.409 . S
C2239 C2238 1.362 . S
H2240 C2246 0.930 . S
H2241 C2249 0.930 . S
H2242 C2250 0.930 . S
H2243 C2251 0.930 . S
H2244 C2254 0.930 . S
H2245 C2255 0.930 . S
C2246 H2240 0.930 . S
C2246 C2247 1.355 . S
C2246 C2248 1.415 . S
C2247 C2246 1.355 . S
C2247 C2249 1.419 . S
C2248 C2246 1.415 . S
C2248 C2253 1.425 . S
C2248 C2255 1.409 . S
C2249 H2241 0.930 . S
C2249 C2247 1.419 . S
C2249 C2250 1.362 . S
C2250 H2242 0.930 . S
C2250 C2249 1.362 . S
C2250 C2253 1.409 . S
C2251 H2243 0.930 . S
C2251 C2252 1.355 . S
C2251 C2253 1.415 . S
C2252 C2251 1.355 . S
C2252 C2254 1.419 . S
C2253 C2248 1.425 . S
C2253 C2250 1.409 . S
C2253 C2251 1.415 . S
C2254 H2244 0.930 . S
C2254 C2252 1.419 . S
C2254 C2255 1.362 . S
C2255 H2245 0.930 . S
C2255 C2248 1.409 . S
C2255 C2254 1.362 . S
H2256 C2262 0.930 . S
H2257 C2265 0.930 . S
H2258 C2266 0.930 . S
H2259 C2267 0.930 . S
H2260 C2270 0.930 . S
H2261 C2271 0.930 . S
C2262 H2256 0.930 . S
C2262 C2263 1.355 . S
C2262 C2264 1.415 . S
C2263 C2262 1.355 . S
C2263 C2265 1.419 . S
C2264 C2262 1.415 . S
C2264 C2269 1.425 . S
C2264 C2271 1.409 . S
C2265 H2257 0.930 . S
C2265 C2263 1.419 . S
C2265 C2266 1.362 . S
C2266 H2258 0.930 . S
C2266 C2265 1.362 . S
C2266 C2269 1.409 . S
C2267 H2259 0.930 . S
C2267 C2268 1.355 . S
C2267 C2269 1.415 . S
C2268 C2267 1.355 . S
C2268 C2270 1.419 . S
C2269 C2264 1.425 . S
C2269 C2266 1.409 . S
C2269 C2267 1.415 . S
C2270 H2260 0.930 . S
C2270 C2268 1.419 . S
C2270 C2271 1.362 . S
C2271 H2261 0.930 . S
C2271 C2264 1.409 . S
C2271 C2270 1.362 . S
H2272 C2278 0.930 1_655 S
H2273 C2281 0.930 . S
H2274 C2282 0.930 . S
H2275 C2283 0.930 . S
H2276 C2286 0.930 . S
H2277 C2287 0.930 1_655 S
C2278 H2272 0.930 1_455 S
C2278 C2279 1.355 . S
C2278 C2280 1.415 . S
C2279 C2278 1.355 . S
C2279 C2281 1.419 . S
C2280 C2278 1.415 . S
C2280 C2285 1.425 . S
C2280 C2287 1.409 . S
C2281 H2273 0.930 . S
C2281 C2279 1.419 . S
C2281 C2282 1.362 . S
C2282 H2274 0.930 . S
C2282 C2281 1.362 . S
C2282 C2285 1.409 . S
C2283 H2275 0.930 . S
C2283 C2284 1.355 . S
C2283 C2285 1.415 . S
C2284 C2283 1.355 . S
C2284 C2286 1.419 . S
C2285 C2280 1.425 . S
C2285 C2282 1.409 . S
C2285 C2283 1.415 . S
C2286 H2276 0.930 . S
C2286 C2284 1.419 . S
C2286 C2287 1.362 . S
C2287 H2277 0.930 1_455 S
C2287 C2280 1.409 . S
C2287 C2286 1.362 . S
H2288 C2294 0.930 . S
H2289 C2297 0.930 . S
H2290 C2298 0.930 . S
H2291 C2299 0.930 . S
H2292 C2302 0.930 . S
H2293 C2303 0.930 . S
C2294 H2288 0.930 . S
C2294 C2295 1.355 . S
C2294 C2296 1.415 . S
C2295 C2294 1.355 . S
C2295 C2297 1.419 . S
C2296 C2294 1.415 . S
C2296 C2301 1.425 . S
C2296 C2303 1.409 . S
C2297 H2289 0.930 . S
C2297 C2295 1.419 . S
C2297 C2298 1.362 . S
C2298 H2290 0.930 . S
C2298 C2297 1.362 . S
C2298 C2301 1.409 . S
C2299 H2291 0.930 . S
C2299 C2300 1.355 . S
C2299 C2301 1.415 . S
C2300 C2299 1.355 . S
C2300 C2302 1.419 . S
C2301 C2296 1.425 . S
C2301 C2298 1.409 . S
C2301 C2299 1.415 . S
C2302 H2292 0.930 . S
C2302 C2300 1.419 . S
C2302 C2303 1.362 . S
C2303 H2293 0.930 . S
C2303 C2296 1.409 . S
C2303 C2302 1.362 . S
H2304 C2310 0.930 . S
H2305 C2313 0.930 . S
H2306 C2314 0.930 . S
H2307 C2315 0.930 . S
H2308 C2318 0.930 . S
H2309 C2319 0.930 . S
C2310 H2304 0.930 . S
C2310 C2311 1.355 . S
C2310 C2312 1.415 . S
C2311 C2310 1.355 . S
C2311 C2313 1.419 . S
C2312 C2310 1.415 . S
C2312 C2317 1.425 . S
C2312 C2319 1.409 . S
C2313 H2305 0.930 . S
C2313 C2311 1.419 . S
C2313 C2314 1.362 . S
C2314 H2306 0.930 . S
C2314 C2313 1.362 . S
C2314 C2317 1.409 . S
C2315 H2307 0.930 . S
C2315 C2316 1.355 . S
C2315 C2317 1.415 . S
C2316 C2315 1.355 . S
C2316 C2318 1.419 . S
C2317 C2312 1.425 . S
C2317 C2314 1.409 . S
C2317 C2315 1.415 . S
C2318 H2308 0.930 . S
C2318 C2316 1.419 . S
C2318 C2319 1.362 . S
C2319 H2309 0.930 . S
C2319 C2312 1.409 . S
C2319 C2318 1.362 . S
H2320 C2326 0.930 . S
H2321 C2329 0.930 . S
H2322 C2330 0.930 . S
H2323 C2331 0.930 . S
H2324 C2334 0.930 . S
H2325 C2335 0.930 . S
C2326 H2320 0.930 . S
C2326 C2327 1.355 . S
C2326 C2328 1.415 . S
C2327 C2326 1.355 . S
C2327 C2329 1.419 . S
C2328 C2326 1.415 . S
C2328 C2333 1.425 . S
C2328 C2335 1.409 . S
C2329 H2321 0.930 . S
C2329 C2327 1.419 . S
C2329 C2330 1.362 . S
C2330 H2322 0.930 . S
C2330 C2329 1.362 . S
C2330 C2333 1.409 . S
C2331 H2323 0.930 . S
C2331 C2332 1.355 . S
C2331 C2333 1.415 . S
C2332 C2331 1.355 . S
C2332 C2334 1.419 . S
C2333 C2328 1.425 . S
C2333 C2330 1.409 . S
C2333 C2331 1.415 . S
C2334 H2324 0.930 . S
C2334 C2332 1.419 . S
C2334 C2335 1.362 . S
C2335 H2325 0.930 . S
C2335 C2328 1.409 . S
C2335 C2334 1.362 . S
H2336 C2342 0.930 . S
H2337 C2345 0.930 . S
H2338 C2346 0.930 . S
H2339 C2347 0.930 . S
H2340 C2350 0.930 1_655 S
H2341 C2351 0.930 . S
C2342 H2336 0.930 . S
C2342 C2343 1.355 . S
C2342 C2344 1.415 . S
C2343 C2342 1.355 . S
C2343 C2345 1.419 1_655 S
C2344 C2342 1.415 . S
C2344 C2349 1.425 1_655 S
C2344 C2351 1.409 . S
C2345 H2337 0.930 . S
C2345 C2343 1.419 1_455 S
C2345 C2346 1.362 . S
C2346 H2338 0.930 . S
C2346 C2345 1.362 . S
C2346 C2349 1.409 . S
C2347 H2339 0.930 . S
C2347 C2348 1.355 . S
C2347 C2349 1.415 . S
C2348 C2347 1.355 . S
C2348 C2350 1.419 . S
C2349 C2344 1.425 1_455 S
C2349 C2346 1.409 . S
C2349 C2347 1.415 . S
C2350 H2340 0.930 1_455 S
C2350 C2348 1.419 . S
C2350 C2351 1.362 1_455 S
C2351 H2341 0.930 . S
C2351 C2344 1.409 . S
C2351 C2350 1.362 1_655 S
H2352 C2358 0.930 . S
H2353 C2361 0.930 . S
H2354 C2362 0.930 . S
H2355 C2363 0.930 . S
H2356 C2366 0.930 . S
H2357 C2367 0.930 . S
C2358 H2352 0.930 . S
C2358 C2359 1.355 . S
C2358 C2360 1.415 . S
C2359 C2358 1.355 . S
C2359 C2361 1.419 . S
C2360 C2358 1.415 . S
C2360 C2365 1.425 . S
C2360 C2367 1.409 . S
C2361 H2353 0.930 . S
C2361 C2359 1.419 . S
C2361 C2362 1.362 . S
C2362 H2354 0.930 . S
C2362 C2361 1.362 . S
C2362 C2365 1.409 . S
C2363 H2355 0.930 . S
C2363 C2364 1.355 . S
C2363 C2365 1.415 . S
C2364 C2363 1.355 . S
C2364 C2366 1.419 . S
C2365 C2360 1.425 . S
C2365 C2362 1.409 . S
C2365 C2363 1.415 . S
C2366 H2356 0.930 . S
C2366 C2364 1.419 . S
C2366 C2367 1.362 . S
C2367 H2357 0.930 . S
C2367 C2360 1.409 . S
C2367 C2366 1.362 . S
H2368 C2374 0.930 . S
H2369 C2377 0.930 . S
H2370 C2378 0.930 . S
H2371 C2379 0.930 . S
H2372 C2382 0.930 . S
H2373 C2383 0.930 . S
C2374 H2368 0.930 . S
C2374 C2375 1.355 . S
C2374 C2376 1.415 . S
C2375 C2374 1.355 . S
C2375 C2377 1.419 . S
C2376 C2374 1.415 . S
C2376 C2381 1.425 . S
C2376 C2383 1.409 . S
C2377 H2369 0.930 . S
C2377 C2375 1.419 . S
C2377 C2378 1.362 . S
C2378 H2370 0.930 . S
C2378 C2377 1.362 . S
C2378 C2381 1.409 . S
C2379 H2371 0.930 . S
C2379 C2380 1.355 . S
C2379 C2381 1.415 . S
C2380 C2379 1.355 . S
C2380 C2382 1.419 . S
C2381 C2376 1.425 . S
C2381 C2378 1.409 . S
C2381 C2379 1.415 . S
C2382 H2372 0.930 . S
C2382 C2380 1.419 . S
C2382 C2383 1.362 . S
C2383 H2373 0.930 . S
C2383 C2376 1.409 . S
C2383 C2382 1.362 . S
H2384 C2390 0.930 . S
H2385 C2393 0.930 . S
H2386 C2394 0.930 . S
H2387 C2395 0.930 . S
H2388 C2398 0.930 . S
H2389 C2399 0.930 . S
C2390 H2384 0.930 . S
C2390 C2391 1.355 . S
C2390 C2392 1.415 . S
C2391 C2390 1.355 . S
C2391 C2393 1.419 . S
C2392 C2390 1.415 . S
C2392 C2397 1.425 . S
C2392 C2399 1.409 . S
C2393 H2385 0.930 . S
C2393 C2391 1.419 . S
C2393 C2394 1.362 . S
C2394 H2386 0.930 . S
C2394 C2393 1.362 . S
C2394 C2397 1.409 . S
C2395 H2387 0.930 . S
C2395 C2396 1.355 . S
C2395 C2397 1.415 . S
C2396 C2395 1.355 . S
C2396 C2398 1.419 . S
C2397 C2392 1.425 . S
C2397 C2394 1.409 . S
C2397 C2395 1.415 . S
C2398 H2388 0.930 . S
C2398 C2396 1.419 . S
C2398 C2399 1.362 . S
C2399 H2389 0.930 . S
C2399 C2392 1.409 . S
C2399 C2398 1.362 . S
H2400 C2406 0.930 . S
H2401 C2409 0.930 . S
H2402 C2410 0.930 . S
H2403 C2411 0.930 . S
H2404 C2414 0.930 . S
H2405 C2415 0.930 . S
C2406 H2400 0.930 . S
C2406 C2407 1.355 . S
C2406 C2408 1.415 1_655 S
C2407 C2406 1.355 . S
C2407 C2409 1.419 1_655 S
C2408 C2406 1.415 1_455 S
C2408 C2413 1.425 . S
C2408 C2415 1.409 1_455 S
C2409 H2401 0.930 . S
C2409 C2407 1.419 1_455 S
C2409 C2410 1.362 . S
C2410 H2402 0.930 . S
C2410 C2409 1.362 . S
C2410 C2413 1.409 . S
C2411 H2403 0.930 . S
C2411 C2412 1.355 . S
C2411 C2413 1.415 . S
C2412 C2411 1.355 . S
C2412 C2414 1.419 . S
C2413 C2408 1.425 . S
C2413 C2410 1.409 . S
C2413 C2411 1.415 . S
C2414 H2404 0.930 . S
C2414 C2412 1.419 . S
C2414 C2415 1.362 1_455 S
C2415 H2405 0.930 . S
C2415 C2408 1.409 1_655 S
C2415 C2414 1.362 1_655 S
H2416 C2422 0.930 . S
H2417 C2425 0.930 . S
H2418 C2426 0.930 . S
H2419 C2427 0.930 . S
H2420 C2430 0.930 . S
H2421 C2431 0.930 . S
C2422 H2416 0.930 . S
C2422 C2423 1.355 . S
C2422 C2424 1.415 . S
C2423 C2422 1.355 . S
C2423 C2425 1.419 . S
C2424 C2422 1.415 . S
C2424 C2429 1.425 . S
C2424 C2431 1.409 . S
C2425 H2417 0.930 . S
C2425 C2423 1.419 . S
C2425 C2426 1.362 . S
C2426 H2418 0.930 . S
C2426 C2425 1.362 . S
C2426 C2429 1.409 . S
C2427 H2419 0.930 . S
C2427 C2428 1.355 . S
C2427 C2429 1.415 . S
C2428 C2427 1.355 . S
C2428 C2430 1.419 . S
C2429 C2424 1.425 . S
C2429 C2426 1.409 . S
C2429 C2427 1.415 . S
C2430 H2420 0.930 . S
C2430 C2428 1.419 . S
C2430 C2431 1.362 . S
C2431 H2421 0.930 . S
C2431 C2424 1.409 . S
C2431 C2430 1.362 . S
H2432 C2438 0.930 . S
H2433 C2441 0.930 . S
H2434 C2442 0.930 . S
H2435 C2443 0.930 . S
H2436 C2446 0.930 . S
H2437 C2447 0.930 . S
C2438 H2432 0.930 . S
C2438 C2439 1.355 . S
C2438 C2440 1.415 . S
C2439 C2438 1.355 . S
C2439 C2441 1.419 . S
C2440 C2438 1.415 . S
C2440 C2445 1.425 . S
C2440 C2447 1.409 . S
C2441 H2433 0.930 . S
C2441 C2439 1.419 . S
C2441 C2442 1.362 . S
C2442 H2434 0.930 . S
C2442 C2441 1.362 . S
C2442 C2445 1.409 . S
C2443 H2435 0.930 . S
C2443 C2444 1.355 . S
C2443 C2445 1.415 . S
C2444 C2443 1.355 . S
C2444 C2446 1.419 . S
C2445 C2440 1.425 . S
C2445 C2442 1.409 . S
C2445 C2443 1.415 . S
C2446 H2436 0.930 . S
C2446 C2444 1.419 . S
C2446 C2447 1.362 . S
C2447 H2437 0.930 . S
C2447 C2440 1.409 . S
C2447 C2446 1.362 . S
H2448 C2454 0.930 . S
H2449 C2457 0.930 . S
H2450 C2458 0.930 . S
H2451 C2459 0.930 . S
H2452 C2462 0.930 . S
H2453 C2463 0.930 . S
C2454 H2448 0.930 . S
C2454 C2455 1.355 . S
C2454 C2456 1.415 . S
C2455 C2454 1.355 . S
C2455 C2457 1.419 . S
C2456 C2454 1.415 . S
C2456 C2461 1.425 . S
C2456 C2463 1.409 . S
C2457 H2449 0.930 . S
C2457 C2455 1.419 . S
C2457 C2458 1.362 . S
C2458 H2450 0.930 . S
C2458 C2457 1.362 . S
C2458 C2461 1.409 . S
C2459 H2451 0.930 . S
C2459 C2460 1.355 . S
C2459 C2461 1.415 . S
C2460 C2459 1.355 . S
C2460 C2462 1.419 . S
C2461 C2456 1.425 . S
C2461 C2458 1.409 . S
C2461 C2459 1.415 . S
C2462 H2452 0.930 . S
C2462 C2460 1.419 . S
C2462 C2463 1.362 . S
C2463 H2453 0.930 . S
C2463 C2456 1.409 . S
C2463 C2462 1.362 . S
H2464 C2470 0.930 . S
H2465 C2473 0.930 1_545 S
H2466 C2474 0.930 . S
H2467 C2475 0.930 . S
H2468 C2478 0.930 . S
H2469 C2479 0.930 . S
C2470 H2464 0.930 . S
C2470 C2471 1.355 . S
C2470 C2472 1.415 . S
C2471 C2470 1.355 . S
C2471 C2473 1.419 . S
C2472 C2470 1.415 . S
C2472 C2477 1.425 . S
C2472 C2479 1.409 . S
C2473 H2465 0.930 1_565 S
C2473 C2471 1.419 . S
C2473 C2474 1.362 1_565 S
C2474 H2466 0.930 . S
C2474 C2473 1.362 1_545 S
C2474 C2477 1.409 1_545 S
C2475 H2467 0.930 . S
C2475 C2476 1.347 1_545 S
C2475 C2477 1.415 1_545 S
C2476 C2475 1.347 1_565 S
C2476 C2478 1.445 . S
C2477 C2472 1.425 . S
C2477 C2474 1.409 1_565 S
C2477 C2475 1.415 1_565 S
C2478 H2468 0.930 . S
C2478 C2476 1.445 . S
C2478 C2479 1.362 . S
C2479 H2469 0.930 . S
C2479 C2472 1.409 . S
C2479 C2478 1.362 . S
H2480 C2486 0.930 . S
H2481 C2489 0.930 . S
H2482 C2490 0.930 . S
H2483 C2491 0.930 . S
H2484 C2494 0.930 . S
H2485 C2495 0.930 . S
C2486 H2480 0.930 . S
C2486 C2487 1.355 1_554 S
C2486 C2488 1.415 . S
C2487 C2486 1.355 1_556 S
C2487 C2489 1.419 . S
C2488 C2486 1.415 . S
C2488 C2493 1.425 1_554 S
C2488 C2495 1.409 . S
C2489 H2481 0.930 . S
C2489 C2487 1.419 . S
C2489 C2490 1.362 . S
C2490 H2482 0.930 . S
C2490 C2489 1.362 . S
C2490 C2493 1.409 . S
C2491 H2483 0.930 . S
C2491 C2492 1.379 . S
C2491 C2493 1.415 . S
C2492 C2491 1.379 . S
C2492 C2494 1.400 1_556 S
C2493 C2488 1.425 1_556 S
C2493 C2490 1.409 . S
C2493 C2491 1.415 . S
C2494 H2484 0.930 . S
C2494 C2492 1.400 1_554 S
C2494 C2495 1.362 . S
C2495 H2485 0.930 . S
C2495 C2488 1.409 . S
C2495 C2494 1.362 . S
H2496 C2502 0.930 . S
H2497 C2505 0.930 . S
H2498 C2506 0.930 . S
H2499 C2507 0.930 . S
H2500 C2510 0.930 . S
H2501 C2511 0.930 . S
C2502 H2496 0.930 . S
C2502 C2503 1.355 . S
C2502 C2504 1.415 . S
C2503 C2502 1.355 . S
C2503 C2505 1.419 . S
C2504 C2502 1.415 . S
C2504 C2509 1.425 . S
C2504 C2511 1.409 . S
C2505 H2497 0.930 . S
C2505 C2503 1.419 . S
C2505 C2506 1.362 . S
C2506 H2498 0.930 . S
C2506 C2505 1.362 . S
C2506 C2509 1.409 . S
C2507 H2499 0.930 . S
C2507 C2508 1.355 . S
C2507 C2509 1.415 . S
C2508 C2507 1.355 . S
C2508 C2510 1.419 . S
C2509 C2504 1.425 . S
C2509 C2506 1.409 . S
C2509 C2507 1.415 . S
C2510 H2500 0.930 . S
C2510 C2508 1.419 . S
C2510 C2511 1.362 . S
C2511 H2501 0.930 . S
C2511 C2504 1.409 . S
C2511 C2510 1.362 . S
H2512 C2518 0.930 . S
H2513 C2521 0.930 . S
H2514 C2522 0.930 . S
H2515 C2523 0.930 1_455 S
H2516 C2526 0.930 1_455 S
H2517 C2527 0.930 . S
C2518 H2512 0.930 . S
C2518 C2519 1.355 . S
C2518 C2520 1.415 . S
C2519 C2518 1.355 . S
C2519 C2521 1.419 . S
C2520 C2518 1.415 . S
C2520 C2525 1.425 . S
C2520 C2527 1.409 . S
C2521 H2513 0.930 . S
C2521 C2519 1.419 . S
C2521 C2522 1.362 . S
C2522 H2514 0.930 . S
C2522 C2521 1.362 . S
C2522 C2525 1.409 . S
C2523 H2515 0.930 1_655 S
C2523 C2524 1.355 1_655 S
C2523 C2525 1.415 . S
C2524 C2523 1.355 1_455 S
C2524 C2526 1.419 1_455 S
C2525 C2520 1.425 . S
C2525 C2522 1.409 . S
C2525 C2523 1.415 . S
C2526 H2516 0.930 1_655 S
C2526 C2524 1.419 1_655 S
C2526 C2527 1.362 . S
C2527 H2517 0.930 . S
C2527 C2520 1.409 . S
C2527 C2526 1.362 . S
H2528 C2534 0.930 . S
H2529 C2537 0.930 . S
H2530 C2538 0.930 . S
H2531 C2539 0.930 . S
H2532 C2542 0.930 . S
H2533 C2543 0.930 . S
C2534 H2528 0.930 . S
C2534 C2535 1.355 . S
C2534 C2536 1.415 . S
C2535 C2534 1.355 . S
C2535 C2537 1.419 . S
C2536 C2534 1.415 . S
C2536 C2541 1.425 . S
C2536 C2543 1.409 . S
C2537 H2529 0.930 . S
C2537 C2535 1.419 . S
C2537 C2538 1.362 . S
C2538 H2530 0.930 . S
C2538 C2537 1.362 . S
C2538 C2541 1.409 . S
C2539 H2531 0.930 . S
C2539 C2540 1.355 . S
C2539 C2541 1.415 . S
C2540 C2539 1.355 . S
C2540 C2542 1.419 . S
C2541 C2536 1.425 . S
C2541 C2538 1.409 . S
C2541 C2539 1.415 . S
C2542 H2532 0.930 . S
C2542 C2540 1.419 . S
C2542 C2543 1.362 . S
C2543 H2533 0.930 . S
C2543 C2536 1.409 . S
C2543 C2542 1.362 . S
H2544 C2550 0.930 . S
H2545 C2553 0.930 . S
H2546 C2554 0.930 . S
H2547 C2555 0.930 . S
H2548 C2558 0.930 . S
H2549 C2559 0.930 . S
C2550 H2544 0.930 . S
C2550 C2551 1.355 . S
C2550 C2552 1.415 . S
C2551 C2550 1.355 . S
C2551 C2553 1.419 . S
C2552 C2550 1.415 . S
C2552 C2557 1.425 . S
C2552 C2559 1.409 . S
C2553 H2545 0.930 . S
C2553 C2551 1.419 . S
C2553 C2554 1.362 . S
C2554 H2546 0.930 . S
C2554 C2553 1.362 . S
C2554 C2557 1.409 . S
C2555 H2547 0.930 . S
C2555 C2556 1.355 . S
C2555 C2557 1.415 . S
C2556 C2555 1.355 . S
C2556 C2558 1.419 . S
C2557 C2552 1.425 . S
C2557 C2554 1.409 . S
C2557 C2555 1.415 . S
C2558 H2548 0.930 . S
C2558 C2556 1.419 . S
C2558 C2559 1.362 . S
C2559 H2549 0.930 . S
C2559 C2552 1.409 . S
C2559 C2558 1.362 . S
H2560 C2566 0.930 . S
H2561 C2569 0.930 . S
H2562 C2570 0.930 . S
H2563 C2571 0.930 . S
H2564 C2574 0.930 . S
H2565 C2575 0.930 . S
C2566 H2560 0.930 . S
C2566 C2567 1.355 . S
C2566 C2568 1.415 . S
C2567 C2566 1.355 . S
C2567 C2569 1.419 . S
C2568 C2566 1.415 . S
C2568 C2573 1.425 . S
C2568 C2575 1.409 . S
C2569 H2561 0.930 . S
C2569 C2567 1.419 . S
C2569 C2570 1.362 . S
C2570 H2562 0.930 . S
C2570 C2569 1.362 . S
C2570 C2573 1.409 . S
C2571 H2563 0.930 . S
C2571 C2572 1.355 . S
C2571 C2573 1.415 . S
C2572 C2571 1.355 . S
C2572 C2574 1.419 . S
C2573 C2568 1.425 . S
C2573 C2570 1.409 . S
C2573 C2571 1.415 . S
C2574 H2564 0.930 . S
C2574 C2572 1.419 . S
C2574 C2575 1.362 . S
C2575 H2565 0.930 . S
C2575 C2568 1.409 . S
C2575 C2574 1.362 . S
H2576 C2582 0.930 . S
H2577 C2585 0.930 . S
H2578 C2586 0.930 . S
H2579 C2587 0.930 . S
H2580 C2590 0.930 . S
H2581 C2591 0.930 . S
C2582 H2576 0.930 . S
C2582 C2583 1.355 . S
C2582 C2584 1.415 . S
C2583 C2582 1.355 . S
C2583 C2585 1.419 . S
C2584 C2582 1.415 . S
C2584 C2589 1.425 . S
C2584 C2591 1.409 . S
C2585 H2577 0.930 . S
C2585 C2583 1.419 . S
C2585 C2586 1.362 . S
C2586 H2578 0.930 . S
C2586 C2585 1.362 . S
C2586 C2589 1.409 . S
C2587 H2579 0.930 . S
C2587 C2588 1.355 . S
C2587 C2589 1.415 . S
C2588 C2587 1.355 . S
C2588 C2590 1.419 . S
C2589 C2584 1.425 . S
C2589 C2586 1.409 . S
C2589 C2587 1.415 . S
C2590 H2580 0.930 . S
C2590 C2588 1.419 . S
C2590 C2591 1.362 . S
C2591 H2581 0.930 . S
C2591 C2584 1.409 . S
C2591 C2590 1.362 . S
H2592 C2598 0.930 . S
H2593 C2601 0.930 . S
H2594 C2602 0.930 . S
H2595 C2603 0.930 . S
H2596 C2606 0.930 . S
H2597 C2607 0.930 . S
C2598 H2592 0.930 . S
C2598 C2599 1.355 . S
C2598 C2600 1.415 . S
C2599 C2598 1.355 . S
C2599 C2601 1.419 . S
C2600 C2598 1.415 . S
C2600 C2605 1.425 . S
C2600 C2607 1.409 . S
C2601 H2593 0.930 . S
C2601 C2599 1.419 . S
C2601 C2602 1.362 . S
C2602 H2594 0.930 . S
C2602 C2601 1.362 . S
C2602 C2605 1.409 . S
C2603 H2595 0.930 . S
C2603 C2604 1.355 . S
C2603 C2605 1.415 . S
C2604 C2603 1.355 . S
C2604 C2606 1.419 . S
C2605 C2600 1.425 . S
C2605 C2602 1.409 . S
C2605 C2603 1.415 . S
C2606 H2596 0.930 . S
C2606 C2604 1.419 . S
C2606 C2607 1.362 . S
C2607 H2597 0.930 . S
C2607 C2600 1.409 . S
C2607 C2606 1.362 . S
H2608 C2614 0.930 . S
H2609 C2617 0.930 . S
H2610 C2618 0.930 . S
H2611 C2619 0.930 . S
H2612 C2622 0.930 . S
H2613 C2623 0.930 . S
C2614 H2608 0.930 . S
C2614 C2615 1.355 . S
C2614 C2616 1.415 . S
C2615 C2614 1.355 . S
C2615 C2617 1.419 . S
C2616 C2614 1.415 . S
C2616 C2621 1.425 . S
C2616 C2623 1.409 . S
C2617 H2609 0.930 . S
C2617 C2615 1.419 . S
C2617 C2618 1.362 . S
C2618 H2610 0.930 . S
C2618 C2617 1.362 . S
C2618 C2621 1.409 . S
C2619 H2611 0.930 . S
C2619 C2620 1.355 . S
C2619 C2621 1.415 . S
C2620 C2619 1.355 . S
C2620 C2622 1.419 . S
C2621 C2616 1.425 . S
C2621 C2618 1.409 . S
C2621 C2619 1.415 . S
C2622 H2612 0.930 . S
C2622 C2620 1.419 . S
C2622 C2623 1.362 . S
C2623 H2613 0.930 . S
C2623 C2616 1.409 . S
C2623 C2622 1.362 . S
H2624 C2630 0.930 . S
H2625 C2633 0.930 . S
H2626 C2634 0.930 . S
H2627 C2635 0.930 . S
H2628 C2638 0.930 . S
H2629 C2639 0.930 . S
C2630 H2624 0.930 . S
C2630 C2631 1.355 . S
C2630 C2632 1.415 . S
C2631 C2630 1.355 . S
C2631 C2633 1.419 . S
C2632 C2630 1.415 . S
C2632 C2637 1.425 . S
C2632 C2639 1.409 . S
C2633 H2625 0.930 . S
C2633 C2631 1.419 . S
C2633 C2634 1.362 . S
C2634 H2626 0.930 . S
C2634 C2633 1.362 . S
C2634 C2637 1.409 . S
C2635 H2627 0.930 . S
C2635 C2636 1.355 . S
C2635 C2637 1.415 . S
C2636 C2635 1.355 . S
C2636 C2638 1.419 . S
C2637 C2632 1.425 . S
C2637 C2634 1.409 . S
C2637 C2635 1.415 . S
C2638 H2628 0.930 . S
C2638 C2636 1.419 . S
C2638 C2639 1.362 . S
C2639 H2629 0.930 . S
C2639 C2632 1.409 . S
C2639 C2638 1.362 . S
H2640 C2646 0.930 . S
H2641 C2649 0.930 . S
H2642 C2650 0.930 . S
H2643 C2651 0.930 . S
H2644 C2654 0.930 . S
H2645 C2655 0.930 . S
C2646 H2640 0.930 . S
C2646 C2647 1.355 . S
C2646 C2648 1.415 . S
C2647 C2646 1.355 . S
C2647 C2649 1.419 . S
C2648 C2646 1.415 . S
C2648 C2653 1.425 . S
C2648 C2655 1.409 . S
C2649 H2641 0.930 . S
C2649 C2647 1.419 . S
C2649 C2650 1.362 . S
C2650 H2642 0.930 . S
C2650 C2649 1.362 . S
C2650 C2653 1.409 . S
C2651 H2643 0.930 . S
C2651 C2652 1.355 . S
C2651 C2653 1.415 . S
C2652 C2651 1.355 . S
C2652 C2654 1.419 . S
C2653 C2648 1.425 . S
C2653 C2650 1.409 . S
C2653 C2651 1.415 . S
C2654 H2644 0.930 . S
C2654 C2652 1.419 . S
C2654 C2655 1.362 . S
C2655 H2645 0.930 . S
C2655 C2648 1.409 . S
C2655 C2654 1.362 . S
H2656 C2662 0.930 . S
H2657 C2665 0.930 . S
H2658 C2666 0.930 . S
H2659 C2667 0.930 . S
H2660 C2670 0.930 . S
H2661 C2671 0.930 . S
C2662 H2656 0.930 . S
C2662 C2663 1.355 . S
C2662 C2664 1.415 . S
C2663 C2662 1.355 . S
C2663 C2665 1.419 . S
C2664 C2662 1.415 . S
C2664 C2669 1.425 . S
C2664 C2671 1.409 . S
C2665 H2657 0.930 . S
C2665 C2663 1.419 . S
C2665 C2666 1.362 . S
C2666 H2658 0.930 . S
C2666 C2665 1.362 . S
C2666 C2669 1.409 . S
C2667 H2659 0.930 . S
C2667 C2668 1.355 . S
C2667 C2669 1.415 . S
C2668 C2667 1.355 . S
C2668 C2670 1.419 . S
C2669 C2664 1.425 . S
C2669 C2666 1.409 . S
C2669 C2667 1.415 . S
C2670 H2660 0.930 . S
C2670 C2668 1.419 . S
C2670 C2671 1.362 . S
C2671 H2661 0.930 . S
C2671 C2664 1.409 . S
C2671 C2670 1.362 . S
H2672 C2678 0.930 . S
H2673 C2681 0.930 . S
H2674 C2682 0.930 . S
H2675 C2683 0.930 . S
H2676 C2686 0.930 . S
H2677 C2687 0.930 . S
C2678 H2672 0.930 . S
C2678 C2679 1.355 . S
C2678 C2680 1.415 . S
C2679 C2678 1.355 . S
C2679 C2681 1.419 . S
C2680 C2678 1.415 . S
C2680 C2685 1.425 . S
C2680 C2687 1.409 . S
C2681 H2673 0.930 . S
C2681 C2679 1.419 . S
C2681 C2682 1.362 . S
C2682 H2674 0.930 . S
C2682 C2681 1.362 . S
C2682 C2685 1.409 . S
C2683 H2675 0.930 . S
C2683 C2684 1.355 . S
C2683 C2685 1.415 . S
C2684 C2683 1.355 . S
C2684 C2686 1.419 . S
C2685 C2680 1.425 . S
C2685 C2682 1.409 . S
C2685 C2683 1.415 . S
C2686 H2676 0.930 . S
C2686 C2684 1.419 . S
C2686 C2687 1.362 . S
C2687 H2677 0.930 . S
C2687 C2680 1.409 . S
C2687 C2686 1.362 . S
H2688 C2694 0.930 . S
H2689 C2697 0.930 . S
H2690 C2698 0.930 . S
H2691 C2699 0.930 1_554 S
H2692 C2702 0.930 . S
H2693 C2703 0.930 . S
C2694 H2688 0.930 . S
C2694 C2695 1.355 . S
C2694 C2696 1.415 . S
C2695 C2694 1.355 . S
C2695 C2697 1.419 . S
C2696 C2694 1.415 . S
C2696 C2701 1.425 . S
C2696 C2703 1.409 . S
C2697 H2689 0.930 . S
C2697 C2695 1.419 . S
C2697 C2698 1.362 . S
C2698 H2690 0.930 . S
C2698 C2697 1.362 . S
C2698 C2701 1.409 . S
C2699 H2691 0.930 1_556 S
C2699 C2700 1.355 . S
C2699 C2701 1.415 . S
C2700 C2699 1.355 . S
C2700 C2702 1.419 . S
C2701 C2696 1.425 . S
C2701 C2698 1.409 . S
C2701 C2699 1.415 . S
C2702 H2692 0.930 . S
C2702 C2700 1.419 . S
C2702 C2703 1.362 . S
C2703 H2693 0.930 . S
C2703 C2696 1.409 . S
C2703 C2702 1.362 . S
H2704 C2710 0.930 . S
H2705 C2713 0.930 . S
H2706 C2714 0.930 . S
H2707 C2715 0.930 . S
H2708 C2718 0.930 . S
H2709 C2719 0.930 . S
C2710 H2704 0.930 . S
C2710 C2711 1.355 . S
C2710 C2712 1.415 . S
C2711 C2710 1.355 . S
C2711 C2713 1.419 . S
C2712 C2710 1.415 . S
C2712 C2717 1.425 . S
C2712 C2719 1.409 . S
C2713 H2705 0.930 . S
C2713 C2711 1.419 . S
C2713 C2714 1.362 . S
C2714 H2706 0.930 . S
C2714 C2713 1.362 . S
C2714 C2717 1.409 . S
C2715 H2707 0.930 . S
C2715 C2716 1.355 . S
C2715 C2717 1.415 . S
C2716 C2715 1.355 . S
C2716 C2718 1.419 . S
C2717 C2712 1.425 . S
C2717 C2714 1.409 . S
C2717 C2715 1.415 . S
C2718 H2708 0.930 . S
C2718 C2716 1.419 . S
C2718 C2719 1.362 . S
C2719 H2709 0.930 . S
C2719 C2712 1.409 . S
C2719 C2718 1.362 . S
H2720 C2726 0.930 . S
H2721 C2729 0.930 . S
H2722 C2730 0.930 . S
H2723 C2731 0.930 . S
H2724 C2734 0.930 . S
H2725 C2735 0.930 . S
C2726 H2720 0.930 . S
C2726 C2727 1.355 1_565 S
C2726 C2728 1.415 . S
C2727 C2726 1.355 1_545 S
C2727 C2729 1.419 . S
C2728 C2726 1.415 . S
C2728 C2733 1.425 1_565 S
C2728 C2735 1.409 . S
C2729 H2721 0.930 . S
C2729 C2727 1.419 . S
C2729 C2730 1.362 . S
C2730 H2722 0.930 . S
C2730 C2729 1.362 . S
C2730 C2733 1.409 . S
C2731 H2723 0.930 . S
C2731 C2732 1.355 . S
C2731 C2733 1.415 . S
C2732 C2731 1.355 . S
C2732 C2734 1.419 1_545 S
C2733 C2728 1.425 1_545 S
C2733 C2730 1.409 . S
C2733 C2731 1.415 . S
C2734 H2724 0.930 . S
C2734 C2732 1.419 1_565 S
C2734 C2735 1.362 . S
C2735 H2725 0.930 . S
C2735 C2728 1.409 . S
C2735 C2734 1.362 . S
H2736 C2742 0.930 . S
H2737 C2745 0.930 . S
H2738 C2746 0.930 . S
H2739 C2747 0.930 . S
H2740 C2750 0.930 . S
H2741 C2751 0.930 . S
C2742 H2736 0.930 . S
C2742 C2743 1.355 . S
C2742 C2744 1.415 . S
C2743 C2742 1.355 . S
C2743 C2745 1.419 . S
C2744 C2742 1.415 . S
C2744 C2749 1.425 . S
C2744 C2751 1.409 . S
C2745 H2737 0.930 . S
C2745 C2743 1.419 . S
C2745 C2746 1.362 . S
C2746 H2738 0.930 . S
C2746 C2745 1.362 . S
C2746 C2749 1.409 . S
C2747 H2739 0.930 . S
C2747 C2748 1.355 . S
C2747 C2749 1.415 . S
C2748 C2747 1.355 . S
C2748 C2750 1.419 . S
C2749 C2744 1.425 . S
C2749 C2746 1.409 . S
C2749 C2747 1.415 . S
C2750 H2740 0.930 . S
C2750 C2748 1.419 . S
C2750 C2751 1.362 . S
C2751 H2741 0.930 . S
C2751 C2744 1.409 . S
C2751 C2750 1.362 . S
H2752 C2758 0.930 1_565 S
H2753 C2761 0.930 . S
H2754 C2762 0.930 . S
H2755 C2763 0.930 . S
H2756 C2766 0.930 . S
H2757 C2767 0.930 1_565 S
C2758 H2752 0.930 1_545 S
C2758 C2759 1.355 . S
C2758 C2760 1.415 . S
C2759 C2758 1.355 . S
C2759 C2761 1.419 . S
C2760 C2758 1.415 . S
C2760 C2765 1.425 . S
C2760 C2767 1.409 . S
C2761 H2753 0.930 . S
C2761 C2759 1.419 . S
C2761 C2762 1.362 . S
C2762 H2754 0.930 . S
C2762 C2761 1.362 . S
C2762 C2765 1.409 . S
C2763 H2755 0.930 . S
C2763 C2764 1.355 . S
C2763 C2765 1.415 . S
C2764 C2763 1.355 . S
C2764 C2766 1.419 . S
C2765 C2760 1.425 . S
C2765 C2762 1.409 . S
C2765 C2763 1.415 . S
C2766 H2756 0.930 . S
C2766 C2764 1.419 . S
C2766 C2767 1.362 . S
C2767 H2757 0.930 1_545 S
C2767 C2760 1.409 . S
C2767 C2766 1.362 . S
H2768 C2774 0.930 . S
H2769 C2777 0.930 . S
H2770 C2778 0.930 . S
H2771 C2779 0.930 . S
H2772 C2782 0.930 . S
H2773 C2783 0.930 . S
C2774 H2768 0.930 . S
C2774 C2775 1.355 . S
C2774 C2776 1.415 . S
C2775 C2774 1.355 . S
C2775 C2777 1.419 . S
C2776 C2774 1.415 . S
C2776 C2781 1.425 . S
C2776 C2783 1.409 . S
C2777 H2769 0.930 . S
C2777 C2775 1.419 . S
C2777 C2778 1.362 . S
C2778 H2770 0.930 . S
C2778 C2777 1.362 . S
C2778 C2781 1.409 . S
C2779 H2771 0.930 . S
C2779 C2780 1.355 . S
C2779 C2781 1.415 . S
C2780 C2779 1.355 . S
C2780 C2782 1.419 . S
C2781 C2776 1.425 . S
C2781 C2778 1.409 . S
C2781 C2779 1.415 . S
C2782 H2772 0.930 . S
C2782 C2780 1.419 . S
C2782 C2783 1.362 . S
C2783 H2773 0.930 . S
C2783 C2776 1.409 . S
C2783 C2782 1.362 . S
H2784 C2790 0.930 . S
H2785 C2793 0.930 . S
H2786 C2794 0.930 . S
H2787 C2795 0.930 . S
H2788 C2798 0.930 . S
H2789 C2799 0.930 . S
C2790 H2784 0.930 . S
C2790 C2791 1.355 1_545 S
C2790 C2792 1.415 . S
C2791 C2790 1.355 1_565 S
C2791 C2793 1.419 . S
C2792 C2790 1.415 . S
C2792 C2797 1.425 . S
C2792 C2799 1.409 . S
C2793 H2785 0.930 . S
C2793 C2791 1.419 . S
C2793 C2794 1.362 . S
C2794 H2786 0.930 . S
C2794 C2793 1.362 . S
C2794 C2797 1.409 1_565 S
C2795 H2787 0.930 . S
C2795 C2796 1.355 . S
C2795 C2797 1.415 . S
C2796 C2795 1.355 . S
C2796 C2798 1.419 . S
C2797 C2792 1.425 . S
C2797 C2794 1.409 1_545 S
C2797 C2795 1.415 . S
C2798 H2788 0.930 . S
C2798 C2796 1.419 . S
C2798 C2799 1.362 . S
C2799 H2789 0.930 . S
C2799 C2792 1.409 . S
C2799 C2798 1.362 . S
H2800 C2806 0.930 . S
H2801 C2809 0.930 . S
H2802 C2810 0.930 . S
H2803 C2811 0.930 . S
H2804 C2814 0.930 . S
H2805 C2815 0.930 . S
C2806 H2800 0.930 . S
C2806 C2807 1.355 . S
C2806 C2808 1.415 . S
C2807 C2806 1.355 . S
C2807 C2809 1.419 . S
C2808 C2806 1.415 . S
C2808 C2813 1.425 . S
C2808 C2815 1.409 . S
C2809 H2801 0.930 . S
C2809 C2807 1.419 . S
C2809 C2810 1.362 . S
C2810 H2802 0.930 . S
C2810 C2809 1.362 . S
C2810 C2813 1.409 . S
C2811 H2803 0.930 . S
C2811 C2812 1.355 . S
C2811 C2813 1.415 . S
C2812 C2811 1.355 . S
C2812 C2814 1.419 . S
C2813 C2808 1.425 . S
C2813 C2810 1.409 . S
C2813 C2811 1.415 . S
C2814 H2804 0.930 . S
C2814 C2812 1.419 . S
C2814 C2815 1.362 . S
C2815 H2805 0.930 . S
C2815 C2808 1.409 . S
C2815 C2814 1.362 . S
H2816 C2822 0.930 1_565 S
H2817 C2825 0.930 . S
H2818 C2826 0.930 . S
H2819 C2827 0.930 . S
H2820 C2830 0.930 1_565 S
H2821 C2831 0.930 . S
C2822 H2816 0.930 1_545 S
C2822 C2823 1.355 . S
C2822 C2824 1.415 . S
C2823 C2822 1.355 . S
C2823 C2825 1.419 . S
C2824 C2822 1.415 . S
C2824 C2829 1.425 . S
C2824 C2831 1.409 1_545 S
C2825 H2817 0.930 . S
C2825 C2823 1.419 . S
C2825 C2826 1.362 . S
C2826 H2818 0.930 . S
C2826 C2825 1.362 . S
C2826 C2829 1.409 . S
C2827 H2819 0.930 . S
C2827 C2828 1.355 . S
C2827 C2829 1.415 . S
C2828 C2827 1.355 . S
C2828 C2830 1.419 . S
C2829 C2824 1.425 . S
C2829 C2826 1.409 . S
C2829 C2827 1.415 . S
C2830 H2820 0.930 1_545 S
C2830 C2828 1.419 . S
C2830 C2831 1.362 1_545 S
C2831 H2821 0.930 . S
C2831 C2824 1.409 1_565 S
C2831 C2830 1.362 1_565 S
H2832 C2838 0.930 . S
H2833 C2841 0.930 . S
H2834 C2842 0.930 . S
H2835 C2843 0.930 . S
H2836 C2846 0.930 . S
H2837 C2847 0.930 . S
C2838 H2832 0.930 . S
C2838 C2839 1.355 . S
C2838 C2840 1.415 . S
C2839 C2838 1.355 . S
C2839 C2841 1.419 . S
C2840 C2838 1.415 . S
C2840 C2845 1.425 . S
C2840 C2847 1.409 . S
C2841 H2833 0.930 . S
C2841 C2839 1.419 . S
C2841 C2842 1.362 . S
C2842 H2834 0.930 . S
C2842 C2841 1.362 . S
C2842 C2845 1.409 . S
C2843 H2835 0.930 . S
C2843 C2844 1.355 . S
C2843 C2845 1.415 . S
C2844 C2843 1.355 . S
C2844 C2846 1.419 . S
C2845 C2840 1.425 . S
C2845 C2842 1.409 . S
C2845 C2843 1.415 . S
C2846 H2836 0.930 . S
C2846 C2844 1.419 . S
C2846 C2847 1.362 . S
C2847 H2837 0.930 . S
C2847 C2840 1.409 . S
C2847 C2846 1.362 . S
H2848 C2854 0.930 . S
H2849 C2857 0.930 . S
H2850 C2858 0.930 1_556 S
H2851 C2859 0.930 1_556 S
H2852 C2862 0.930 . S
H2853 C2863 0.930 . S
C2854 H2848 0.930 . S
C2854 C2855 1.355 . S
C2854 C2856 1.415 . S
C2855 C2854 1.355 . S
C2855 C2857 1.419 . S
C2856 C2854 1.415 . S
C2856 C2861 1.425 . S
C2856 C2863 1.409 . S
C2857 H2849 0.930 . S
C2857 C2855 1.419 . S
C2857 C2858 1.362 . S
C2858 H2850 0.930 1_554 S
C2858 C2857 1.362 . S
C2858 C2861 1.409 . S
C2859 H2851 0.930 1_554 S
C2859 C2860 1.355 . S
C2859 C2861 1.415 . S
C2860 C2859 1.355 . S
C2860 C2862 1.419 . S
C2861 C2856 1.425 . S
C2861 C2858 1.409 . S
C2861 C2859 1.415 . S
C2862 H2852 0.930 . S
C2862 C2860 1.419 . S
C2862 C2863 1.362 . S
C2863 H2853 0.930 . S
C2863 C2856 1.409 . S
C2863 C2862 1.362 . S
H2864 C2870 0.930 . S
H2865 C2873 0.930 . S
H2866 C2874 0.930 . S
H2867 C2875 0.930 . S
H2868 C2878 0.930 . S
H2869 C2879 0.930 . S
C2870 H2864 0.930 . S
C2870 C2871 1.355 . S
C2870 C2872 1.415 . S
C2871 C2870 1.355 . S
C2871 C2873 1.419 . S
C2872 C2870 1.415 . S
C2872 C2877 1.425 . S
C2872 C2879 1.409 . S
C2873 H2865 0.930 . S
C2873 C2871 1.419 . S
C2873 C2874 1.362 . S
C2874 H2866 0.930 . S
C2874 C2873 1.362 . S
C2874 C2877 1.409 . S
C2875 H2867 0.930 . S
C2875 C2876 1.355 . S
C2875 C2877 1.415 . S
C2876 C2875 1.355 . S
C2876 C2878 1.419 . S
C2877 C2872 1.425 . S
C2877 C2874 1.409 . S
C2877 C2875 1.415 . S
C2878 H2868 0.930 . S
C2878 C2876 1.419 . S
C2878 C2879 1.362 . S
C2879 H2869 0.930 . S
C2879 C2872 1.409 . S
C2879 C2878 1.362 . S
H2880 C2886 0.930 . S
H2881 C2889 0.930 . S
H2882 C2890 0.930 . S
H2883 C2891 0.930 . S
H2884 C2894 0.930 . S
H2885 C2895 0.930 . S
C2886 H2880 0.930 . S
C2886 C2887 1.355 . S
C2886 C2888 1.415 . S
C2887 C2886 1.355 . S
C2887 C2889 1.419 . S
C2888 C2886 1.415 . S
C2888 C2893 1.425 . S
C2888 C2895 1.409 . S
C2889 H2881 0.930 . S
C2889 C2887 1.419 . S
C2889 C2890 1.362 . S
C2890 H2882 0.930 . S
C2890 C2889 1.362 . S
C2890 C2893 1.409 . S
C2891 H2883 0.930 . S
C2891 C2892 1.355 . S
C2891 C2893 1.415 . S
C2892 C2891 1.355 . S
C2892 C2894 1.419 . S
C2893 C2888 1.425 . S
C2893 C2890 1.409 . S
C2893 C2891 1.415 . S
C2894 H2884 0.930 . S
C2894 C2892 1.419 . S
C2894 C2895 1.362 . S
C2895 H2885 0.930 . S
C2895 C2888 1.409 . S
C2895 C2894 1.362 . S
H2896 C2902 0.930 . S
H2897 C2905 0.930 . S
H2898 C2906 0.930 . S
H2899 C2907 0.930 . S
H2900 C2910 0.930 . S
H2901 C2911 0.930 . S
C2902 H2896 0.930 . S
C2902 C2903 1.355 . S
C2902 C2904 1.415 . S
C2903 C2902 1.355 . S
C2903 C2905 1.419 . S
C2904 C2902 1.415 . S
C2904 C2909 1.425 . S
C2904 C2911 1.409 . S
C2905 H2897 0.930 . S
C2905 C2903 1.419 . S
C2905 C2906 1.362 . S
C2906 H2898 0.930 . S
C2906 C2905 1.362 . S
C2906 C2909 1.409 . S
C2907 H2899 0.930 . S
C2907 C2908 1.355 . S
C2907 C2909 1.415 . S
C2908 C2907 1.355 . S
C2908 C2910 1.419 . S
C2909 C2904 1.425 . S
C2909 C2906 1.409 . S
C2909 C2907 1.415 . S
C2910 H2900 0.930 . S
C2910 C2908 1.419 . S
C2910 C2911 1.362 . S
C2911 H2901 0.930 . S
C2911 C2904 1.409 . S
C2911 C2910 1.362 . S
H2912 C2918 0.930 . S
H2913 C2921 0.930 . S
H2914 C2922 0.930 . S
H2915 C2923 0.930 . S
H2916 C2926 0.930 . S
H2917 C2927 0.930 . S
C2918 H2912 0.930 . S
C2918 C2919 1.355 1_565 S
C2918 C2920 1.415 . S
C2919 C2918 1.355 1_545 S
C2919 C2921 1.419 . S
C2920 C2918 1.415 . S
C2920 C2925 1.425 . S
C2920 C2927 1.409 . S
C2921 H2913 0.930 . S
C2921 C2919 1.419 . S
C2921 C2922 1.362 . S
C2922 H2914 0.930 . S
C2922 C2921 1.362 . S
C2922 C2925 1.409 1_545 S
C2923 H2915 0.930 . S
C2923 C2924 1.355 . S
C2923 C2925 1.415 . S
C2924 C2923 1.355 . S
C2924 C2926 1.419 . S
C2925 C2920 1.425 . S
C2925 C2922 1.409 1_565 S
C2925 C2923 1.415 . S
C2926 H2916 0.930 . S
C2926 C2924 1.419 . S
C2926 C2927 1.362 . S
C2927 H2917 0.930 . S
C2927 C2920 1.409 . S
C2927 C2926 1.362 . S
H2928 C2934 0.930 . S
H2929 C2937 0.930 . S
H2930 C2938 0.930 . S
H2931 C2939 0.930 . S
H2932 C2942 0.930 . S
H2933 C2943 0.930 . S
C2934 H2928 0.930 . S
C2934 C2935 1.355 . S
C2934 C2936 1.415 . S
C2935 C2934 1.355 . S
C2935 C2937 1.419 . S
C2936 C2934 1.415 . S
C2936 C2941 1.425 . S
C2936 C2943 1.409 . S
C2937 H2929 0.930 . S
C2937 C2935 1.419 . S
C2937 C2938 1.362 . S
C2938 H2930 0.930 . S
C2938 C2937 1.362 . S
C2938 C2941 1.409 . S
C2939 H2931 0.930 . S
C2939 C2940 1.355 . S
C2939 C2941 1.415 . S
C2940 C2939 1.355 . S
C2940 C2942 1.419 . S
C2941 C2936 1.425 . S
C2941 C2938 1.409 . S
C2941 C2939 1.415 . S
C2942 H2932 0.930 . S
C2942 C2940 1.419 . S
C2942 C2943 1.362 . S
C2943 H2933 0.930 . S
C2943 C2936 1.409 . S
C2943 C2942 1.362 . S
H2944 C2950 0.930 . S
H2945 C2953 0.930 . S
H2946 C2954 0.930 . S
H2947 C2955 0.930 . S
H2948 C2958 0.930 . S
H2949 C2959 0.930 . S
C2950 H2944 0.930 . S
C2950 C2951 1.355 . S
C2950 C2952 1.415 . S
C2951 C2950 1.355 . S
C2951 C2953 1.419 . S
C2952 C2950 1.415 . S
C2952 C2957 1.425 . S
C2952 C2959 1.409 . S
C2953 H2945 0.930 . S
C2953 C2951 1.419 . S
C2953 C2954 1.362 . S
C2954 H2946 0.930 . S
C2954 C2953 1.362 . S
C2954 C2957 1.409 . S
C2955 H2947 0.930 . S
C2955 C2956 1.355 . S
C2955 C2957 1.415 . S
C2956 C2955 1.355 . S
C2956 C2958 1.419 . S
C2957 C2952 1.425 . S
C2957 C2954 1.409 . S
C2957 C2955 1.415 . S
C2958 H2948 0.930 . S
C2958 C2956 1.419 . S
C2958 C2959 1.362 . S
C2959 H2949 0.930 . S
C2959 C2952 1.409 . S
C2959 C2958 1.362 . S
H2960 C2966 0.930 . S
H2961 C2969 0.930 . S
H2962 C2970 0.930 . S
H2963 C2971 0.930 . S
H2964 C2974 0.930 . S
H2965 C2975 0.930 . S
C2966 H2960 0.930 . S
C2966 C2967 1.355 . S
C2966 C2968 1.415 . S
C2967 C2966 1.355 . S
C2967 C2969 1.419 . S
C2968 C2966 1.415 . S
C2968 C2973 1.425 . S
C2968 C2975 1.409 . S
C2969 H2961 0.930 . S
C2969 C2967 1.419 . S
C2969 C2970 1.362 . S
C2970 H2962 0.930 . S
C2970 C2969 1.362 . S
C2970 C2973 1.409 . S
C2971 H2963 0.930 . S
C2971 C2972 1.355 . S
C2971 C2973 1.415 . S
C2972 C2971 1.355 . S
C2972 C2974 1.419 . S
C2973 C2968 1.425 . S
C2973 C2970 1.409 . S
C2973 C2971 1.415 . S
C2974 H2964 0.930 . S
C2974 C2972 1.419 . S
C2974 C2975 1.362 . S
C2975 H2965 0.930 . S
C2975 C2968 1.409 . S
C2975 C2974 1.362 . S
H2976 C2982 0.930 . S
H2977 C2985 0.930 . S
H2978 C2986 0.930 . S
H2979 C2987 0.930 . S
H2980 C2990 0.930 . S
H2981 C2991 0.930 . S
C2982 H2976 0.930 . S
C2982 C2983 1.355 . S
C2982 C2984 1.415 . S
C2983 C2982 1.355 . S
C2983 C2985 1.419 . S
C2984 C2982 1.415 . S
C2984 C2989 1.425 . S
C2984 C2991 1.409 . S
C2985 H2977 0.930 . S
C2985 C2983 1.419 . S
C2985 C2986 1.362 . S
C2986 H2978 0.930 . S
C2986 C2985 1.362 . S
C2986 C2989 1.409 . S
C2987 H2979 0.930 . S
C2987 C2988 1.355 . S
C2987 C2989 1.415 . S
C2988 C2987 1.355 . S
C2988 C2990 1.419 . S
C2989 C2984 1.425 . S
C2989 C2986 1.409 . S
C2989 C2987 1.415 . S
C2990 H2980 0.930 . S
C2990 C2988 1.419 . S
C2990 C2991 1.362 . S
C2991 H2981 0.930 . S
C2991 C2984 1.409 . S
C2991 C2990 1.362 . S
H2992 C2998 0.930 . S
H2993 C3001 0.930 . S
H2994 C3002 0.930 . S
H2995 C3003 0.930 . S
H2996 C3006 0.930 . S
H2997 C3007 0.930 . S
C2998 H2992 0.930 . S
C2998 C2999 1.355 . S
C2998 C3000 1.415 . S
C2999 C2998 1.355 . S
C2999 C3001 1.419 . S
C3000 C2998 1.415 . S
C3000 C3005 1.425 . S
C3000 C3007 1.409 . S
C3001 H2993 0.930 . S
C3001 C2999 1.419 . S
C3001 C3002 1.362 . S
C3002 H2994 0.930 . S
C3002 C3001 1.362 . S
C3002 C3005 1.409 . S
C3003 H2995 0.930 . S
C3003 C3004 1.355 . S
C3003 C3005 1.415 . S
C3004 C3003 1.355 . S
C3004 C3006 1.419 . S
C3005 C3000 1.425 . S
C3005 C3002 1.409 . S
C3005 C3003 1.415 . S
C3006 H2996 0.930 . S
C3006 C3004 1.419 . S
C3006 C3007 1.362 . S
C3007 H2997 0.930 . S
C3007 C3000 1.409 . S
C3007 C3006 1.362 . S
H3008 C3014 0.930 . S
H3009 C3017 0.928 1_554 S
H3010 C3018 0.930 . S
H3011 C3019 0.930 . S
H3012 C3022 0.930 . S
H3013 C3023 0.930 . S
C3014 H3008 0.930 . S
C3014 C3015 1.355 . S
C3014 C3016 1.415 . S
C3015 C3014 1.355 . S
C3015 C3017 1.419 . S
C3016 C3014 1.415 . S
C3016 C3021 1.403 1_556 S
C3016 C3023 1.409 . S
C3017 H3009 0.928 1_556 S
C3017 C3015 1.419 . S
C3017 C3018 1.362 1_556 S
C3018 H3010 0.930 . S
C3018 C3017 1.362 1_554 S
C3018 C3021 1.426 . S
C3019 H3011 0.930 . S
C3019 C3020 1.355 . S
C3019 C3021 1.421 . S
C3020 C3019 1.355 . S
C3020 C3022 1.419 1_554 S
C3021 C3016 1.403 1_554 S
C3021 C3018 1.426 . S
C3021 C3019 1.421 . S
C3022 H3012 0.930 . S
C3022 C3020 1.419 1_556 S
C3022 C3023 1.362 . S
C3023 H3013 0.930 . S
C3023 C3016 1.409 . S
C3023 C3022 1.362 . S
H3024 C3030 0.930 . S
H3025 C3033 0.930 . S
H3026 C3034 0.930 . S
H3027 C3035 0.930 . S
H3028 C3038 0.930 . S
H3029 C3039 0.930 . S
C3030 H3024 0.930 . S
C3030 C3031 1.355 . S
C3030 C3032 1.415 1_455 S
C3031 C3030 1.355 . S
C3031 C3033 1.419 . S
C3032 C3030 1.415 1_655 S
C3032 C3037 1.425 . S
C3032 C3039 1.409 . S
C3033 H3025 0.930 . S
C3033 C3031 1.419 . S
C3033 C3034 1.362 . S
C3034 H3026 0.930 . S
C3034 C3033 1.362 . S
C3034 C3037 1.409 1_455 S
C3035 H3027 0.930 . S
C3035 C3036 1.355 . S
C3035 C3037 1.415 . S
C3036 C3035 1.355 . S
C3036 C3038 1.419 . S
C3037 C3032 1.425 . S
C3037 C3034 1.409 1_655 S
C3037 C3035 1.415 . S
C3038 H3028 0.930 . S
C3038 C3036 1.419 . S
C3038 C3039 1.362 . S
C3039 H3029 0.930 . S
C3039 C3032 1.409 . S
C3039 C3038 1.362 . S
H3040 C3046 0.930 . S
H3041 C3049 0.930 . S
H3042 C3050 0.930 . S
H3043 C3051 0.930 . S
H3044 C3054 0.930 . S
H3045 C3055 0.930 . S
C3046 H3040 0.930 . S
C3046 C3047 1.355 . S
C3046 C3048 1.415 . S
C3047 C3046 1.355 . S
C3047 C3049 1.419 . S
C3048 C3046 1.415 . S
C3048 C3053 1.425 . S
C3048 C3055 1.409 . S
C3049 H3041 0.930 . S
C3049 C3047 1.419 . S
C3049 C3050 1.362 . S
C3050 H3042 0.930 . S
C3050 C3049 1.362 . S
C3050 C3053 1.409 . S
C3051 H3043 0.930 . S
C3051 C3052 1.355 . S
C3051 C3053 1.415 . S
C3052 C3051 1.355 . S
C3052 C3054 1.419 . S
C3053 C3048 1.425 . S
C3053 C3050 1.409 . S
C3053 C3051 1.415 . S
C3054 H3044 0.930 . S
C3054 C3052 1.419 . S
C3054 C3055 1.362 . S
C3055 H3045 0.930 . S
C3055 C3048 1.409 . S
C3055 C3054 1.362 . S
H3056 C3062 0.930 . S
H3057 C3065 0.930 . S
H3058 C3066 0.930 . S
H3059 C3067 0.930 . S
H3060 C3070 0.930 . S
H3061 C3071 0.930 . S
C3062 H3056 0.930 . S
C3062 C3063 1.355 . S
C3062 C3064 1.415 . S
C3063 C3062 1.355 . S
C3063 C3065 1.419 . S
C3064 C3062 1.415 . S
C3064 C3069 1.425 . S
C3064 C3071 1.409 . S
C3065 H3057 0.930 . S
C3065 C3063 1.419 . S
C3065 C3066 1.362 . S
C3066 H3058 0.930 . S
C3066 C3065 1.362 . S
C3066 C3069 1.409 . S
C3067 H3059 0.930 . S
C3067 C3068 1.355 . S
C3067 C3069 1.415 1_655 S
C3068 C3067 1.355 . S
C3068 C3070 1.419 . S
C3069 C3064 1.425 . S
C3069 C3066 1.409 . S
C3069 C3067 1.415 1_455 S
C3070 H3060 0.930 . S
C3070 C3068 1.419 . S
C3070 C3071 1.362 1_655 S
C3071 H3061 0.930 . S
C3071 C3064 1.409 . S
C3071 C3070 1.362 1_455 S
H3072 C3078 0.930 . S
H3073 C3081 0.930 . S
H3074 C3082 0.930 . S
H3075 C3083 0.930 . S
H3076 C3086 0.930 . S
H3077 C3087 0.930 . S
C3078 H3072 0.930 . S
C3078 C3079 1.355 . S
C3078 C3080 1.415 1_655 S
C3079 C3078 1.355 . S
C3079 C3081 1.419 1_655 S
C3080 C3078 1.415 1_455 S
C3080 C3085 1.425 . S
C3080 C3087 1.409 1_455 S
C3081 H3073 0.930 . S
C3081 C3079 1.419 1_455 S
C3081 C3082 1.362 . S
C3082 H3074 0.930 . S
C3082 C3081 1.362 . S
C3082 C3085 1.409 . S
C3083 H3075 0.930 . S
C3083 C3084 1.355 . S
C3083 C3085 1.415 . S
C3084 C3083 1.355 . S
C3084 C3086 1.419 . S
C3085 C3080 1.425 . S
C3085 C3082 1.409 . S
C3085 C3083 1.415 . S
C3086 H3076 0.930 . S
C3086 C3084 1.419 . S
C3086 C3087 1.362 1_455 S
C3087 H3077 0.930 . S
C3087 C3080 1.409 1_655 S
C3087 C3086 1.362 1_655 S
H3088 C3094 0.930 . S
H3089 C3097 0.930 . S
H3090 C3098 0.930 . S
H3091 C3099 0.930 . S
H3092 C3102 0.930 . S
H3093 C3103 0.930 . S
C3094 H3088 0.930 . S
C3094 C3095 1.355 . S
C3094 C3096 1.415 . S
C3095 C3094 1.355 . S
C3095 C3097 1.419 . S
C3096 C3094 1.415 . S
C3096 C3101 1.425 . S
C3096 C3103 1.409 . S
C3097 H3089 0.930 . S
C3097 C3095 1.419 . S
C3097 C3098 1.362 . S
C3098 H3090 0.930 . S
C3098 C3097 1.362 . S
C3098 C3101 1.409 . S
C3099 H3091 0.930 . S
C3099 C3100 1.355 . S
C3099 C3101 1.415 . S
C3100 C3099 1.355 . S
C3100 C3102 1.419 . S
C3101 C3096 1.425 . S
C3101 C3098 1.409 . S
C3101 C3099 1.415 . S
C3102 H3092 0.930 . S
C3102 C3100 1.419 . S
C3102 C3103 1.362 . S
C3103 H3093 0.930 . S
C3103 C3096 1.409 . S
C3103 C3102 1.362 . S
H3104 C3110 0.930 . S
H3105 C3113 0.930 . S
H3106 C3114 0.930 . S
H3107 C3115 0.930 . S
H3108 C3118 0.930 . S
H3109 C3119 0.930 . S
C3110 H3104 0.930 . S
C3110 C3111 1.355 . S
C3110 C3112 1.415 . S
C3111 C3110 1.355 . S
C3111 C3113 1.419 . S
C3112 C3110 1.415 . S
C3112 C3117 1.425 . S
C3112 C3119 1.409 . S
C3113 H3105 0.930 . S
C3113 C3111 1.419 . S
C3113 C3114 1.362 . S
C3114 H3106 0.930 . S
C3114 C3113 1.362 . S
C3114 C3117 1.409 . S
C3115 H3107 0.930 . S
C3115 C3116 1.355 . S
C3115 C3117 1.415 . S
C3116 C3115 1.355 . S
C3116 C3118 1.419 . S
C3117 C3112 1.425 . S
C3117 C3114 1.409 . S
C3117 C3115 1.415 . S
C3118 H3108 0.930 . S
C3118 C3116 1.419 . S
C3118 C3119 1.362 . S
C3119 H3109 0.930 . S
C3119 C3112 1.409 . S
C3119 C3118 1.362 . S
H3120 C3126 0.930 . S
H3121 C3129 0.930 . S
H3122 C3130 0.930 . S
H3123 C3131 0.930 . S
H3124 C3134 0.930 . S
H3125 C3135 0.930 . S
C3126 H3120 0.930 . S
C3126 C3127 1.355 . S
C3126 C3128 1.415 . S
C3127 C3126 1.355 . S
C3127 C3129 1.419 . S
C3128 C3126 1.415 . S
C3128 C3133 1.425 . S
C3128 C3135 1.409 . S
C3129 H3121 0.930 . S
C3129 C3127 1.419 . S
C3129 C3130 1.362 . S
C3130 H3122 0.930 . S
C3130 C3129 1.362 . S
C3130 C3133 1.409 . S
C3131 H3123 0.930 . S
C3131 C3132 1.355 . S
C3131 C3133 1.415 . S
C3132 C3131 1.355 . S
C3132 C3134 1.419 . S
C3133 C3128 1.425 . S
C3133 C3130 1.409 . S
C3133 C3131 1.415 . S
C3134 H3124 0.930 . S
C3134 C3132 1.419 . S
C3134 C3135 1.362 . S
C3135 H3125 0.930 . S
C3135 C3128 1.409 . S
C3135 C3134 1.362 . S
H3136 C3142 0.930 . S
H3137 C3145 0.930 . S
H3138 C3146 0.930 . S
H3139 C3147 0.930 . S
H3140 C3150 0.930 . S
H3141 C3151 0.930 . S
C3142 H3136 0.930 . S
C3142 C3143 1.355 . S
C3142 C3144 1.415 . S
C3143 C3142 1.355 . S
C3143 C3145 1.419 . S
C3144 C3142 1.415 . S
C3144 C3149 1.425 . S
C3144 C3151 1.409 . S
C3145 H3137 0.930 . S
C3145 C3143 1.419 . S
C3145 C3146 1.362 . S
C3146 H3138 0.930 . S
C3146 C3145 1.362 . S
C3146 C3149 1.409 . S
C3147 H3139 0.930 . S
C3147 C3148 1.355 . S
C3147 C3149 1.415 . S
C3148 C3147 1.355 . S
C3148 C3150 1.419 . S
C3149 C3144 1.425 . S
C3149 C3146 1.409 . S
C3149 C3147 1.415 . S
C3150 H3140 0.930 . S
C3150 C3148 1.419 . S
C3150 C3151 1.362 . S
C3151 H3141 0.930 . S
C3151 C3144 1.409 . S
C3151 C3150 1.362 . S
H3152 C3158 0.930 . S
H3153 C3161 0.930 . S
H3154 C3162 0.930 . S
H3155 C3163 0.930 . S
H3156 C3166 0.930 . S
H3157 C3167 0.930 . S
C3158 H3152 0.930 . S
C3158 C3159 1.355 . S
C3158 C3160 1.415 . S
C3159 C3158 1.355 . S
C3159 C3161 1.419 . S
C3160 C3158 1.415 . S
C3160 C3165 1.425 . S
C3160 C3167 1.409 . S
C3161 H3153 0.930 . S
C3161 C3159 1.419 . S
C3161 C3162 1.362 . S
C3162 H3154 0.930 . S
C3162 C3161 1.362 . S
C3162 C3165 1.409 . S
C3163 H3155 0.930 . S
C3163 C3164 1.355 . S
C3163 C3165 1.415 . S
C3164 C3163 1.355 . S
C3164 C3166 1.419 . S
C3165 C3160 1.425 . S
C3165 C3162 1.409 . S
C3165 C3163 1.415 . S
C3166 H3156 0.930 . S
C3166 C3164 1.419 . S
C3166 C3167 1.362 . S
C3167 H3157 0.930 . S
C3167 C3160 1.409 . S
C3167 C3166 1.362 . S
H3168 C3174 0.930 . S
H3169 C3177 0.930 . S
H3170 C3178 0.930 . S
H3171 C3179 0.930 . S
H3172 C3182 0.930 . S
H3173 C3183 0.930 . S
C3174 H3168 0.930 . S
C3174 C3175 1.355 . S
C3174 C3176 1.415 . S
C3175 C3174 1.355 . S
C3175 C3177 1.419 . S
C3176 C3174 1.415 . S
C3176 C3181 1.425 . S
C3176 C3183 1.409 . S
C3177 H3169 0.930 . S
C3177 C3175 1.419 . S
C3177 C3178 1.362 . S
C3178 H3170 0.930 . S
C3178 C3177 1.362 . S
C3178 C3181 1.409 . S
C3179 H3171 0.930 . S
C3179 C3180 1.355 . S
C3179 C3181 1.415 . S
C3180 C3179 1.355 . S
C3180 C3182 1.419 . S
C3181 C3176 1.425 . S
C3181 C3178 1.409 . S
C3181 C3179 1.415 . S
C3182 H3172 0.930 . S
C3182 C3180 1.419 . S
C3182 C3183 1.362 . S
C3183 H3173 0.930 . S
C3183 C3176 1.409 . S
C3183 C3182 1.362 . S
H3184 C3190 0.930 . S
H3185 C3193 0.930 . S
H3186 C3194 0.930 . S
H3187 C3195 0.930 . S
H3188 C3198 0.930 . S
H3189 C3199 0.930 . S
C3190 H3184 0.930 . S
C3190 C3191 1.355 . S
C3190 C3192 1.415 . S
C3191 C3190 1.355 . S
C3191 C3193 1.419 . S
C3192 C3190 1.415 . S
C3192 C3197 1.425 . S
C3192 C3199 1.409 . S
C3193 H3185 0.930 . S
C3193 C3191 1.419 . S
C3193 C3194 1.362 . S
C3194 H3186 0.930 . S
C3194 C3193 1.362 . S
C3194 C3197 1.409 . S
C3195 H3187 0.930 . S
C3195 C3196 1.355 . S
C3195 C3197 1.415 . S
C3196 C3195 1.355 . S
C3196 C3198 1.419 . S
C3197 C3192 1.425 . S
C3197 C3194 1.409 . S
C3197 C3195 1.415 . S
C3198 H3188 0.930 . S
C3198 C3196 1.419 . S
C3198 C3199 1.362 . S
C3199 H3189 0.930 . S
C3199 C3192 1.409 . S
C3199 C3198 1.362 . S
H3200 C3206 0.930 . S
H3201 C3209 0.930 . S
H3202 C3210 0.930 . S
H3203 C3211 0.930 . S
H3204 C3214 0.930 . S
H3205 C3215 0.930 . S
C3206 H3200 0.930 . S
C3206 C3207 1.355 . S
C3206 C3208 1.415 . S
C3207 C3206 1.355 . S
C3207 C3209 1.419 . S
C3208 C3206 1.415 . S
C3208 C3213 1.425 . S
C3208 C3215 1.409 . S
C3209 H3201 0.930 . S
C3209 C3207 1.419 . S
C3209 C3210 1.362 . S
C3210 H3202 0.930 . S
C3210 C3209 1.362 . S
C3210 C3213 1.409 . S
C3211 H3203 0.930 . S
C3211 C3212 1.355 . S
C3211 C3213 1.415 . S
C3212 C3211 1.355 . S
C3212 C3214 1.419 . S
C3213 C3208 1.425 . S
C3213 C3210 1.409 . S
C3213 C3211 1.415 . S
C3214 H3204 0.930 . S
C3214 C3212 1.419 . S
C3214 C3215 1.362 . S
C3215 H3205 0.930 . S
C3215 C3208 1.409 . S
C3215 C3214 1.362 . S
H3216 C3222 0.930 . S
H3217 C3225 0.930 . S
H3218 C3226 0.930 . S
H3219 C3227 0.930 . S
H3220 C3230 0.930 . S
H3221 C3231 0.930 . S
C3222 H3216 0.930 . S
C3222 C3223 1.355 . S
C3222 C3224 1.415 . S
C3223 C3222 1.355 . S
C3223 C3225 1.419 . S
C3224 C3222 1.415 . S
C3224 C3229 1.425 . S
C3224 C3231 1.409 . S
C3225 H3217 0.930 . S
C3225 C3223 1.419 . S
C3225 C3226 1.362 . S
C3226 H3218 0.930 . S
C3226 C3225 1.362 . S
C3226 C3229 1.409 . S
C3227 H3219 0.930 . S
C3227 C3228 1.355 . S
C3227 C3229 1.415 . S
C3228 C3227 1.355 . S
C3228 C3230 1.419 . S
C3229 C3224 1.425 . S
C3229 C3226 1.409 . S
C3229 C3227 1.415 . S
C3230 H3220 0.930 . S
C3230 C3228 1.419 . S
C3230 C3231 1.362 . S
C3231 H3221 0.930 . S
C3231 C3224 1.409 . S
C3231 C3230 1.362 . S
H3232 C3238 0.930 . S
H3233 C3241 0.930 . S
H3234 C3242 0.930 . S
H3235 C3243 0.930 . S
H3236 C3246 0.930 . S
H3237 C3247 0.930 . S
C3238 H3232 0.930 . S
C3238 C3239 1.355 . S
C3238 C3240 1.415 . S
C3239 C3238 1.355 . S
C3239 C3241 1.419 . S
C3240 C3238 1.415 . S
C3240 C3245 1.425 . S
C3240 C3247 1.409 . S
C3241 H3233 0.930 . S
C3241 C3239 1.419 . S
C3241 C3242 1.362 . S
C3242 H3234 0.930 . S
C3242 C3241 1.362 . S
C3242 C3245 1.409 . S
C3243 H3235 0.930 . S
C3243 C3244 1.355 . S
C3243 C3245 1.415 . S
C3244 C3243 1.355 . S
C3244 C3246 1.419 . S
C3245 C3240 1.425 . S
C3245 C3242 1.409 . S
C3245 C3243 1.415 . S
C3246 H3236 0.930 . S
C3246 C3244 1.419 . S
C3246 C3247 1.362 . S
C3247 H3237 0.930 . S
C3247 C3240 1.409 . S
C3247 C3246 1.362 . S
H3248 C3254 0.930 . S
H3249 C3257 0.930 . S
H3250 C3258 0.930 . S
H3251 C3259 0.930 . S
H3252 C3262 0.930 . S
H3253 C3263 0.930 . S
C3254 H3248 0.930 . S
C3254 C3255 1.355 . S
C3254 C3256 1.415 . S
C3255 C3254 1.355 . S
C3255 C3257 1.419 . S
C3256 C3254 1.415 . S
C3256 C3261 1.425 . S
C3256 C3263 1.409 . S
C3257 H3249 0.930 . S
C3257 C3255 1.419 . S
C3257 C3258 1.362 . S
C3258 H3250 0.930 . S
C3258 C3257 1.362 . S
C3258 C3261 1.409 . S
C3259 H3251 0.930 . S
C3259 C3260 1.355 . S
C3259 C3261 1.415 . S
C3260 C3259 1.355 . S
C3260 C3262 1.419 . S
C3261 C3256 1.425 . S
C3261 C3258 1.409 . S
C3261 C3259 1.415 . S
C3262 H3252 0.930 . S
C3262 C3260 1.419 . S
C3262 C3263 1.362 . S
C3263 H3253 0.930 . S
C3263 C3256 1.409 . S
C3263 C3262 1.362 . S
H3264 C3270 0.930 . S
H3265 C3273 0.930 . S
H3266 C3274 0.930 . S
H3267 C3275 0.930 . S
H3268 C3278 0.930 . S
H3269 C3279 0.930 . S
C3270 H3264 0.930 . S
C3270 C3271 1.355 . S
C3270 C3272 1.415 . S
C3271 C3270 1.355 . S
C3271 C3273 1.419 . S
C3272 C3270 1.415 . S
C3272 C3277 1.425 . S
C3272 C3279 1.409 . S
C3273 H3265 0.930 . S
C3273 C3271 1.419 . S
C3273 C3274 1.362 . S
C3274 H3266 0.930 . S
C3274 C3273 1.362 . S
C3274 C3277 1.409 . S
C3275 H3267 0.930 . S
C3275 C3276 1.355 . S
C3275 C3277 1.415 . S
C3276 C3275 1.355 . S
C3276 C3278 1.419 . S
C3277 C3272 1.425 . S
C3277 C3274 1.409 . S
C3277 C3275 1.415 . S
C3278 H3268 0.930 . S
C3278 C3276 1.419 . S
C3278 C3279 1.362 . S
C3279 H3269 0.930 . S
C3279 C3272 1.409 . S
C3279 C3278 1.362 . S
H3280 C3286 0.927 1_556 S
H3281 C3289 0.950 . S
H3282 C3290 0.930 . S
H3283 C3291 0.930 . S
H3284 C3294 0.936 . S
H3285 C3295 0.930 1_556 S
C3286 H3280 0.927 1_554 S
C3286 C3287 1.355 . S
C3286 C3288 1.415 . S
C3287 C3286 1.355 . S
C3287 C3289 1.385 1_565 S
C3288 C3286 1.415 . S
C3288 C3293 1.425 1_565 S
C3288 C3295 1.409 . S
C3289 H3281 0.950 . S
C3289 C3287 1.385 1_545 S
C3289 C3290 1.378 . S
C3290 H3282 0.930 . S
C3290 C3289 1.378 . S
C3290 C3293 1.409 . S
C3291 H3283 0.930 . S
C3291 C3292 1.355 . S
C3291 C3293 1.415 . S
C3292 C3291 1.355 . S
C3292 C3294 1.419 1_545 S
C3293 C3288 1.425 1_545 S
C3293 C3290 1.409 . S
C3293 C3291 1.415 . S
C3294 H3284 0.936 . S
C3294 C3292 1.419 1_565 S
C3294 C3295 1.362 . S
C3295 H3285 0.930 1_554 S
C3295 C3288 1.409 . S
C3295 C3294 1.362 . S
H3296 C3302 0.930 . S
H3297 C3305 0.930 . S
H3298 C3306 0.930 . S
H3299 C3307 0.930 . S
H3300 C3310 0.930 . S
H3301 C3311 0.930 . S
C3302 H3296 0.930 . S
C3302 C3303 1.355 . S
C3302 C3304 1.415 . S
C3303 C3302 1.355 . S
C3303 C3305 1.419 . S
C3304 C3302 1.415 . S
C3304 C3309 1.425 . S
C3304 C3311 1.409 . S
C3305 H3297 0.930 . S
C3305 C3303 1.419 . S
C3305 C3306 1.362 . S
C3306 H3298 0.930 . S
C3306 C3305 1.362 . S
C3306 C3309 1.409 . S
C3307 H3299 0.930 . S
C3307 C3308 1.355 . S
C3307 C3309 1.415 . S
C3308 C3307 1.355 . S
C3308 C3310 1.419 . S
C3309 C3304 1.425 . S
C3309 C3306 1.409 . S
C3309 C3307 1.415 . S
C3310 H3300 0.930 . S
C3310 C3308 1.419 . S
C3310 C3311 1.362 . S
C3311 H3301 0.930 . S
C3311 C3304 1.409 . S
C3311 C3310 1.362 . S
H3312 C3318 0.930 . S
H3313 C3321 0.930 . S
H3314 C3322 0.930 . S
H3315 C3323 0.930 . S
H3316 C3326 0.930 . S
H3317 C3327 0.930 . S
C3318 H3312 0.930 . S
C3318 C3319 1.377 . S
C3318 C3320 1.415 . S
C3319 C3318 1.377 . S
C3319 C3321 1.402 1_554 S
C3320 C3318 1.415 . S
C3320 C3325 1.425 . S
C3320 C3327 1.409 . S
C3321 H3313 0.930 . S
C3321 C3319 1.402 1_556 S
C3321 C3322 1.362 . S
C3322 H3314 0.930 . S
C3322 C3321 1.362 . S
C3322 C3325 1.409 1_556 S
C3323 H3315 0.930 . S
C3323 C3324 1.355 . S
C3323 C3325 1.415 . S
C3324 C3323 1.355 . S
C3324 C3326 1.419 . S
C3325 C3320 1.425 . S
C3325 C3322 1.409 1_554 S
C3325 C3323 1.415 . S
C3326 H3316 0.930 . S
C3326 C3324 1.419 . S
C3326 C3327 1.362 . S
C3327 H3317 0.930 . S
C3327 C3320 1.409 . S
C3327 C3326 1.362 . S
H3328 C3334 0.930 . S
H3329 C3337 0.930 . S
H3330 C3338 0.930 . S
H3331 C3339 0.930 . S
H3332 C3342 0.930 . S
H3333 C3343 0.930 . S
C3334 H3328 0.930 . S
C3334 C3335 1.355 . S
C3334 C3336 1.415 . S
C3335 C3334 1.355 . S
C3335 C3337 1.419 . S
C3336 C3334 1.415 . S
C3336 C3341 1.425 . S
C3336 C3343 1.409 . S
C3337 H3329 0.930 . S
C3337 C3335 1.419 . S
C3337 C3338 1.362 . S
C3338 H3330 0.930 . S
C3338 C3337 1.362 . S
C3338 C3341 1.409 . S
C3339 H3331 0.930 . S
C3339 C3340 1.355 . S
C3339 C3341 1.415 . S
C3340 C3339 1.355 . S
C3340 C3342 1.419 . S
C3341 C3336 1.425 . S
C3341 C3338 1.409 . S
C3341 C3339 1.415 . S
C3342 H3332 0.930 . S
C3342 C3340 1.419 . S
C3342 C3343 1.362 . S
C3343 H3333 0.930 . S
C3343 C3336 1.409 . S
C3343 C3342 1.362 . S
H3344 C3350 0.930 . S
H3345 C3353 0.930 . S
H3346 C3354 0.930 . S
H3347 C3355 0.930 . S
H3348 C3358 0.930 . S
H3349 C3359 0.930 . S
C3350 H3344 0.930 . S
C3350 C3351 1.355 . S
C3350 C3352 1.415 . S
C3351 C3350 1.355 . S
C3351 C3353 1.419 . S
C3352 C3350 1.415 . S
C3352 C3357 1.425 . S
C3352 C3359 1.409 . S
C3353 H3345 0.930 . S
C3353 C3351 1.419 . S
C3353 C3354 1.362 . S
C3354 H3346 0.930 . S
C3354 C3353 1.362 . S
C3354 C3357 1.409 . S
C3355 H3347 0.930 . S
C3355 C3356 1.355 . S
C3355 C3357 1.415 . S
C3356 C3355 1.355 . S
C3356 C3358 1.419 . S
C3357 C3352 1.425 . S
C3357 C3354 1.409 . S
C3357 C3355 1.415 . S
C3358 H3348 0.930 . S
C3358 C3356 1.419 . S
C3358 C3359 1.362 . S
C3359 H3349 0.930 . S
C3359 C3352 1.409 . S
C3359 C3358 1.362 . S
H3360 C3366 0.930 . S
H3361 C3369 0.930 . S
H3362 C3370 0.930 . S
H3363 C3371 0.930 . S
H3364 C3374 0.930 . S
H3365 C3375 0.930 . S
C3366 H3360 0.930 . S
C3366 C3367 1.355 . S
C3366 C3368 1.415 . S
C3367 C3366 1.355 . S
C3367 C3369 1.419 . S
C3368 C3366 1.415 . S
C3368 C3373 1.425 . S
C3368 C3375 1.409 . S
C3369 H3361 0.930 . S
C3369 C3367 1.419 . S
C3369 C3370 1.362 . S
C3370 H3362 0.930 . S
C3370 C3369 1.362 . S
C3370 C3373 1.409 . S
C3371 H3363 0.930 . S
C3371 C3372 1.355 . S
C3371 C3373 1.415 . S
C3372 C3371 1.355 . S
C3372 C3374 1.419 . S
C3373 C3368 1.425 . S
C3373 C3370 1.409 . S
C3373 C3371 1.415 . S
C3374 H3364 0.930 . S
C3374 C3372 1.419 . S
C3374 C3375 1.362 . S
C3375 H3365 0.930 . S
C3375 C3368 1.409 . S
C3375 C3374 1.362 . S
H3376 C3382 0.930 . S
H3377 C3385 0.930 . S
H3378 C3386 0.930 . S
H3379 C3387 0.930 . S
H3380 C3390 0.930 . S
H3381 C3391 0.930 . S
C3382 H3376 0.930 . S
C3382 C3383 1.355 . S
C3382 C3384 1.415 . S
C3383 C3382 1.355 . S
C3383 C3385 1.419 . S
C3384 C3382 1.415 . S
C3384 C3389 1.425 . S
C3384 C3391 1.409 . S
C3385 H3377 0.930 . S
C3385 C3383 1.419 . S
C3385 C3386 1.362 . S
C3386 H3378 0.930 . S
C3386 C3385 1.362 . S
C3386 C3389 1.409 . S
C3387 H3379 0.930 . S
C3387 C3388 1.355 . S
C3387 C3389 1.415 . S
C3388 C3387 1.355 . S
C3388 C3390 1.419 . S
C3389 C3384 1.425 . S
C3389 C3386 1.409 . S
C3389 C3387 1.415 . S
C3390 H3380 0.930 . S
C3390 C3388 1.419 . S
C3390 C3391 1.362 . S
C3391 H3381 0.930 . S
C3391 C3384 1.409 . S
C3391 C3390 1.362 . S
H3392 C3398 0.930 . S
H3393 C3401 0.930 . S
H3394 C3402 0.930 . S
H3395 C3403 0.930 . S
H3396 C3406 0.930 . S
H3397 C3407 0.930 . S
C3398 H3392 0.930 . S
C3398 C3399 1.355 . S
C3398 C3400 1.415 . S
C3399 C3398 1.355 . S
C3399 C3401 1.419 . S
C3400 C3398 1.415 . S
C3400 C3405 1.425 . S
C3400 C3407 1.409 . S
C3401 H3393 0.930 . S
C3401 C3399 1.419 . S
C3401 C3402 1.362 . S
C3402 H3394 0.930 . S
C3402 C3401 1.362 . S
C3402 C3405 1.409 . S
C3403 H3395 0.930 . S
C3403 C3404 1.355 . S
C3403 C3405 1.415 . S
C3404 C3403 1.355 . S
C3404 C3406 1.419 . S
C3405 C3400 1.425 . S
C3405 C3402 1.409 . S
C3405 C3403 1.415 . S
C3406 H3396 0.930 . S
C3406 C3404 1.419 . S
C3406 C3407 1.362 . S
C3407 H3397 0.930 . S
C3407 C3400 1.409 . S
C3407 C3406 1.362 . S
H3408 C3414 0.930 . S
H3409 C3417 0.930 . S
H3410 C3418 0.930 . S
H3411 C3419 0.930 . S
H3412 C3422 0.930 . S
H3413 C3423 0.930 . S
C3414 H3408 0.930 . S
C3414 C3415 1.355 . S
C3414 C3416 1.415 . S
C3415 C3414 1.355 . S
C3415 C3417 1.419 . S
C3416 C3414 1.415 . S
C3416 C3421 1.425 . S
C3416 C3423 1.409 . S
C3417 H3409 0.930 . S
C3417 C3415 1.419 . S
C3417 C3418 1.362 . S
C3418 H3410 0.930 . S
C3418 C3417 1.362 . S
C3418 C3421 1.409 . S
C3419 H3411 0.930 . S
C3419 C3420 1.355 . S
C3419 C3421 1.415 . S
C3420 C3419 1.355 . S
C3420 C3422 1.419 . S
C3421 C3416 1.425 . S
C3421 C3418 1.409 . S
C3421 C3419 1.415 . S
C3422 H3412 0.930 . S
C3422 C3420 1.419 . S
C3422 C3423 1.362 . S
C3423 H3413 0.930 . S
C3423 C3416 1.409 . S
C3423 C3422 1.362 . S
H3424 C3430 0.930 . S
H3425 C3433 0.930 . S
H3426 C3434 0.930 . S
H3427 C3435 0.930 . S
H3428 C3438 0.930 . S
H3429 C3439 0.930 . S
C3430 H3424 0.930 . S
C3430 C3431 1.355 . S
C3430 C3432 1.415 . S
C3431 C3430 1.355 . S
C3431 C3433 1.419 . S
C3432 C3430 1.415 . S
C3432 C3437 1.425 . S
C3432 C3439 1.409 . S
C3433 H3425 0.930 . S
C3433 C3431 1.419 . S
C3433 C3434 1.362 . S
C3434 H3426 0.930 . S
C3434 C3433 1.362 . S
C3434 C3437 1.409 . S
C3435 H3427 0.930 . S
C3435 C3436 1.355 . S
C3435 C3437 1.415 . S
C3436 C3435 1.355 . S
C3436 C3438 1.419 . S
C3437 C3432 1.425 . S
C3437 C3434 1.409 . S
C3437 C3435 1.415 . S
C3438 H3428 0.930 . S
C3438 C3436 1.419 . S
C3438 C3439 1.362 . S
C3439 H3429 0.930 . S
C3439 C3432 1.409 . S
C3439 C3438 1.362 . S
H3440 C3446 0.930 . S
H3441 C3449 0.930 . S
H3442 C3450 0.930 . S
H3443 C3451 0.930 . S
H3444 C3454 0.930 . S
H3445 C3455 0.930 . S
C3446 H3440 0.930 . S
C3446 C3447 1.355 . S
C3446 C3448 1.415 . S
C3447 C3446 1.355 . S
C3447 C3449 1.419 . S
C3448 C3446 1.415 . S
C3448 C3453 1.425 . S
C3448 C3455 1.409 . S
C3449 H3441 0.930 . S
C3449 C3447 1.419 . S
C3449 C3450 1.362 . S
C3450 H3442 0.930 . S
C3450 C3449 1.362 . S
C3450 C3453 1.409 . S
C3451 H3443 0.930 . S
C3451 C3452 1.355 . S
C3451 C3453 1.415 . S
C3452 C3451 1.355 . S
C3452 C3454 1.419 . S
C3453 C3448 1.425 . S
C3453 C3450 1.409 . S
C3453 C3451 1.415 . S
C3454 H3444 0.930 . S
C3454 C3452 1.419 . S
C3454 C3455 1.362 . S
C3455 H3445 0.930 . S
C3455 C3448 1.409 . S
C3455 C3454 1.362 . S
H3456 C3462 0.930 . S
H3457 C3465 0.930 . S
H3458 C3466 0.930 . S
H3459 C3467 0.930 . S
H3460 C3470 0.930 . S
H3461 C3471 0.930 . S
C3462 H3456 0.930 . S
C3462 C3463 1.355 . S
C3462 C3464 1.415 . S
C3463 C3462 1.355 . S
C3463 C3465 1.419 . S
C3464 C3462 1.415 . S
C3464 C3469 1.425 . S
C3464 C3471 1.409 . S
C3465 H3457 0.930 . S
C3465 C3463 1.419 . S
C3465 C3466 1.362 . S
C3466 H3458 0.930 . S
C3466 C3465 1.362 . S
C3466 C3469 1.409 . S
C3467 H3459 0.930 . S
C3467 C3468 1.355 . S
C3467 C3469 1.415 . S
C3468 C3467 1.355 . S
C3468 C3470 1.419 . S
C3469 C3464 1.425 . S
C3469 C3466 1.409 . S
C3469 C3467 1.415 . S
C3470 H3460 0.930 . S
C3470 C3468 1.419 . S
C3470 C3471 1.362 . S
C3471 H3461 0.930 . S
C3471 C3464 1.409 . S
C3471 C3470 1.362 . S
H3472 C3478 0.930 . S
H3473 C3481 0.930 . S
H3474 C3482 0.930 . S
H3475 C3483 0.930 . S
H3476 C3486 0.930 . S
H3477 C3487 0.930 . S
C3478 H3472 0.930 . S
C3478 C3479 1.355 . S
C3478 C3480 1.415 . S
C3479 C3478 1.355 . S
C3479 C3481 1.419 . S
C3480 C3478 1.415 . S
C3480 C3485 1.425 . S
C3480 C3487 1.409 . S
C3481 H3473 0.930 . S
C3481 C3479 1.419 . S
C3481 C3482 1.362 . S
C3482 H3474 0.930 . S
C3482 C3481 1.362 . S
C3482 C3485 1.409 . S
C3483 H3475 0.930 . S
C3483 C3484 1.355 . S
C3483 C3485 1.415 . S
C3484 C3483 1.355 . S
C3484 C3486 1.419 . S
C3485 C3480 1.425 . S
C3485 C3482 1.409 . S
C3485 C3483 1.415 . S
C3486 H3476 0.930 . S
C3486 C3484 1.419 . S
C3486 C3487 1.362 . S
C3487 H3477 0.930 . S
C3487 C3480 1.409 . S
C3487 C3486 1.362 . S
H3488 C3494 0.930 . S
H3489 C3497 0.930 . S
H3490 C3498 0.930 . S
H3491 C3499 0.930 . S
H3492 C3502 0.930 . S
H3493 C3503 0.930 . S
C3494 H3488 0.930 . S
C3494 C3495 1.355 . S
C3494 C3496 1.415 . S
C3495 C3494 1.355 . S
C3495 C3497 1.419 . S
C3496 C3494 1.415 . S
C3496 C3501 1.425 . S
C3496 C3503 1.409 . S
C3497 H3489 0.930 . S
C3497 C3495 1.419 . S
C3497 C3498 1.362 . S
C3498 H3490 0.930 . S
C3498 C3497 1.362 . S
C3498 C3501 1.409 . S
C3499 H3491 0.930 . S
C3499 C3500 1.355 . S
C3499 C3501 1.415 . S
C3500 C3499 1.355 . S
C3500 C3502 1.419 . S
C3501 C3496 1.425 . S
C3501 C3498 1.409 . S
C3501 C3499 1.415 . S
C3502 H3492 0.930 . S
C3502 C3500 1.419 . S
C3502 C3503 1.362 . S
C3503 H3493 0.930 . S
C3503 C3496 1.409 . S
C3503 C3502 1.362 . S
H3504 C3510 0.930 . S
H3505 C3513 0.930 . S
H3506 C3514 0.930 . S
H3507 C3515 0.930 . S
H3508 C3518 0.930 . S
H3509 C3519 0.930 . S
C3510 H3504 0.930 . S
C3510 C3511 1.355 . S
C3510 C3512 1.415 . S
C3511 C3510 1.355 . S
C3511 C3513 1.419 . S
C3512 C3510 1.415 . S
C3512 C3517 1.425 . S
C3512 C3519 1.409 . S
C3513 H3505 0.930 . S
C3513 C3511 1.419 . S
C3513 C3514 1.362 . S
C3514 H3506 0.930 . S
C3514 C3513 1.362 . S
C3514 C3517 1.409 . S
C3515 H3507 0.930 . S
C3515 C3516 1.355 . S
C3515 C3517 1.415 . S
C3516 C3515 1.355 . S
C3516 C3518 1.419 . S
C3517 C3512 1.425 . S
C3517 C3514 1.409 . S
C3517 C3515 1.415 . S
C3518 H3508 0.930 . S
C3518 C3516 1.419 . S
C3518 C3519 1.362 . S
C3519 H3509 0.930 . S
C3519 C3512 1.409 . S
C3519 C3518 1.362 . S
H3520 C3526 0.930 . S
H3521 C3529 0.930 . S
H3522 C3530 0.930 . S
H3523 C3531 0.930 . S
H3524 C3534 0.930 . S
H3525 C3535 0.930 . S
C3526 H3520 0.930 . S
C3526 C3527 1.355 . S
C3526 C3528 1.415 . S
C3527 C3526 1.355 . S
C3527 C3529 1.419 . S
C3528 C3526 1.415 . S
C3528 C3533 1.425 . S
C3528 C3535 1.409 1_655 S
C3529 H3521 0.930 . S
C3529 C3527 1.419 . S
C3529 C3530 1.362 . S
C3530 H3522 0.930 . S
C3530 C3529 1.362 . S
C3530 C3533 1.409 . S
C3531 H3523 0.930 . S
C3531 C3532 1.355 . S
C3531 C3533 1.415 1_455 S
C3532 C3531 1.355 . S
C3532 C3534 1.419 . S
C3533 C3528 1.425 . S
C3533 C3530 1.409 . S
C3533 C3531 1.415 1_655 S
C3534 H3524 0.930 . S
C3534 C3532 1.419 . S
C3534 C3535 1.362 . S
C3535 H3525 0.930 . S
C3535 C3528 1.409 1_455 S
C3535 C3534 1.362 . S
H3536 C3542 0.930 . S
H3537 C3545 0.930 . S
H3538 C3546 0.930 . S
H3539 C3547 0.930 . S
H3540 C3550 0.930 . S
H3541 C3551 0.930 . S
C3542 H3536 0.930 . S
C3542 C3543 1.355 . S
C3542 C3544 1.415 . S
C3543 C3542 1.355 . S
C3543 C3545 1.419 . S
C3544 C3542 1.415 . S
C3544 C3549 1.425 . S
C3544 C3551 1.409 . S
C3545 H3537 0.930 . S
C3545 C3543 1.419 . S
C3545 C3546 1.362 . S
C3546 H3538 0.930 . S
C3546 C3545 1.362 . S
C3546 C3549 1.409 . S
C3547 H3539 0.930 . S
C3547 C3548 1.355 . S
C3547 C3549 1.415 . S
C3548 C3547 1.355 . S
C3548 C3550 1.419 . S
C3549 C3544 1.425 . S
C3549 C3546 1.409 . S
C3549 C3547 1.415 . S
C3550 H3540 0.930 . S
C3550 C3548 1.419 . S
C3550 C3551 1.362 . S
C3551 H3541 0.930 . S
C3551 C3544 1.409 . S
C3551 C3550 1.362 . S
H3552 C3558 0.930 . S
H3553 C3561 0.930 . S
H3554 C3562 0.930 . S
H3555 C3563 0.930 . S
H3556 C3566 0.930 . S
H3557 C3567 0.930 . S
C3558 H3552 0.930 . S
C3558 C3559 1.355 . S
C3558 C3560 1.415 . S
C3559 C3558 1.355 . S
C3559 C3561 1.419 . S
C3560 C3558 1.415 . S
C3560 C3565 1.425 . S
C3560 C3567 1.409 . S
C3561 H3553 0.930 . S
C3561 C3559 1.419 . S
C3561 C3562 1.362 . S
C3562 H3554 0.930 . S
C3562 C3561 1.362 . S
C3562 C3565 1.409 . S
C3563 H3555 0.930 . S
C3563 C3564 1.355 . S
C3563 C3565 1.415 . S
C3564 C3563 1.355 . S
C3564 C3566 1.419 . S
C3565 C3560 1.425 . S
C3565 C3562 1.409 . S
C3565 C3563 1.415 . S
C3566 H3556 0.930 . S
C3566 C3564 1.419 . S
C3566 C3567 1.362 . S
C3567 H3557 0.930 . S
C3567 C3560 1.409 . S
C3567 C3566 1.362 . S
H3568 C3574 0.930 . S
H3569 C3577 0.930 . S
H3570 C3578 0.930 . S
H3571 C3579 0.930 . S
H3572 C3582 0.930 . S
H3573 C3583 0.930 . S
C3574 H3568 0.930 . S
C3574 C3575 1.355 . S
C3574 C3576 1.415 . S
C3575 C3574 1.355 . S
C3575 C3577 1.419 . S
C3576 C3574 1.415 . S
C3576 C3581 1.425 . S
C3576 C3583 1.409 . S
C3577 H3569 0.930 . S
C3577 C3575 1.419 . S
C3577 C3578 1.362 . S
C3578 H3570 0.930 . S
C3578 C3577 1.362 . S
C3578 C3581 1.409 . S
C3579 H3571 0.930 . S
C3579 C3580 1.355 . S
C3579 C3581 1.415 . S
C3580 C3579 1.355 . S
C3580 C3582 1.419 . S
C3581 C3576 1.425 . S
C3581 C3578 1.409 . S
C3581 C3579 1.415 . S
C3582 H3572 0.930 . S
C3582 C3580 1.419 . S
C3582 C3583 1.362 . S
C3583 H3573 0.930 . S
C3583 C3576 1.409 . S
C3583 C3582 1.362 . S
H3584 C3590 0.930 . S
H3585 C3593 0.930 . S
H3586 C3594 0.930 1_455 S
H3587 C3595 0.930 . S
H3588 C3598 0.930 . S
H3589 C3599 0.930 . S
C3590 H3584 0.930 . S
C3590 C3591 1.355 . S
C3590 C3592 1.415 . S
C3591 C3590 1.355 . S
C3591 C3593 1.419 . S
C3592 C3590 1.415 . S
C3592 C3597 1.425 . S
C3592 C3599 1.409 . S
C3593 H3585 0.930 . S
C3593 C3591 1.419 . S
C3593 C3594 1.362 . S
C3594 H3586 0.930 1_655 S
C3594 C3593 1.362 . S
C3594 C3597 1.409 . S
C3595 H3587 0.930 . S
C3595 C3596 1.349 1_455 S
C3595 C3597 1.415 1_455 S
C3596 C3595 1.349 1_655 S
C3596 C3598 1.456 . S
C3597 C3592 1.425 . S
C3597 C3594 1.409 . S
C3597 C3595 1.415 1_655 S
C3598 H3588 0.930 . S
C3598 C3596 1.456 . S
C3598 C3599 1.362 . S
C3599 H3589 0.930 . S
C3599 C3592 1.409 . S
C3599 C3598 1.362 . S
H3600 C3606 0.930 . S
H3601 C3609 0.930 . S
H3602 C3610 0.930 . S
H3603 C3611 0.930 . S
H3604 C3614 0.930 . S
H3605 C3615 0.930 . S
C3606 H3600 0.930 . S
C3606 C3607 1.355 . S
C3606 C3608 1.415 . S
C3607 C3606 1.355 . S
C3607 C3609 1.419 . S
C3608 C3606 1.415 . S
C3608 C3613 1.425 . S
C3608 C3615 1.409 . S
C3609 H3601 0.930 . S
C3609 C3607 1.419 . S
C3609 C3610 1.362 . S
C3610 H3602 0.930 . S
C3610 C3609 1.362 . S
C3610 C3613 1.409 . S
C3611 H3603 0.930 . S
C3611 C3612 1.355 . S
C3611 C3613 1.415 . S
C3612 C3611 1.355 . S
C3612 C3614 1.419 . S
C3613 C3608 1.425 . S
C3613 C3610 1.409 . S
C3613 C3611 1.415 . S
C3614 H3604 0.930 . S
C3614 C3612 1.419 . S
C3614 C3615 1.362 . S
C3615 H3605 0.930 . S
C3615 C3608 1.409 . S
C3615 C3614 1.362 . S
H3616 C3622 0.930 . S
H3617 C3625 0.930 . S
H3618 C3626 0.930 . S
H3619 C3627 0.930 . S
H3620 C3630 0.930 . S
H3621 C3631 0.930 . S
C3622 H3616 0.930 . S
C3622 C3623 1.355 . S
C3622 C3624 1.415 . S
C3623 C3622 1.355 . S
C3623 C3625 1.419 . S
C3624 C3622 1.415 . S
C3624 C3629 1.425 . S
C3624 C3631 1.409 . S
C3625 H3617 0.930 . S
C3625 C3623 1.419 . S
C3625 C3626 1.362 . S
C3626 H3618 0.930 . S
C3626 C3625 1.362 . S
C3626 C3629 1.409 . S
C3627 H3619 0.930 . S
C3627 C3628 1.355 . S
C3627 C3629 1.415 . S
C3628 C3627 1.355 . S
C3628 C3630 1.419 . S
C3629 C3624 1.425 . S
C3629 C3626 1.409 . S
C3629 C3627 1.415 . S
C3630 H3620 0.930 . S
C3630 C3628 1.419 . S
C3630 C3631 1.362 . S
C3631 H3621 0.930 . S
C3631 C3624 1.409 . S
C3631 C3630 1.362 . S
H3632 C3638 0.930 . S
H3633 C3641 0.930 . S
H3634 C3642 0.930 . S
H3635 C3643 0.930 1_545 S
H3636 C3646 0.930 1_455 S
H3637 C3647 0.930 . S
C3638 H3632 0.930 . S
C3638 C3639 1.355 . S
C3638 C3640 1.415 . S
C3639 C3638 1.355 . S
C3639 C3641 1.419 . S
C3640 C3638 1.415 . S
C3640 C3645 1.425 . S
C3640 C3647 1.409 . S
C3641 H3633 0.930 . S
C3641 C3639 1.419 . S
C3641 C3642 1.362 . S
C3642 H3634 0.930 . S
C3642 C3641 1.362 . S
C3642 C3645 1.409 . S
C3643 H3635 0.930 1_565 S
C3643 C3644 1.355 . S
C3643 C3645 1.415 . S
C3644 C3643 1.355 . S
C3644 C3646 1.419 . S
C3645 C3640 1.425 . S
C3645 C3642 1.409 . S
C3645 C3643 1.415 . S
C3646 H3636 0.930 1_655 S
C3646 C3644 1.419 . S
C3646 C3647 1.362 . S
C3647 H3637 0.930 . S
C3647 C3640 1.409 . S
C3647 C3646 1.362 . S
H3648 C3654 0.930 . S
H3649 C3657 0.930 . S
H3650 C3658 0.930 . S
H3651 C3659 0.930 . S
H3652 C3662 0.930 . S
H3653 C3663 0.930 . S
C3654 H3648 0.930 . S
C3654 C3655 1.355 . S
C3654 C3656 1.415 . S
C3655 C3654 1.355 . S
C3655 C3657 1.419 . S
C3656 C3654 1.415 . S
C3656 C3661 1.425 . S
C3656 C3663 1.409 . S
C3657 H3649 0.930 . S
C3657 C3655 1.419 . S
C3657 C3658 1.362 . S
C3658 H3650 0.930 . S
C3658 C3657 1.362 . S
C3658 C3661 1.409 . S
C3659 H3651 0.930 . S
C3659 C3660 1.355 . S
C3659 C3661 1.415 . S
C3660 C3659 1.355 . S
C3660 C3662 1.419 . S
C3661 C3656 1.425 . S
C3661 C3658 1.409 . S
C3661 C3659 1.415 . S
C3662 H3652 0.930 . S
C3662 C3660 1.419 . S
C3662 C3663 1.362 . S
C3663 H3653 0.930 . S
C3663 C3656 1.409 . S
C3663 C3662 1.362 . S
H3664 C3670 0.930 . S
H3665 C3673 0.913 1_556 S
H3666 C3674 0.930 1_556 S
H3667 C3675 0.930 1_556 S
H3668 C3678 0.930 . S
H3669 C3679 0.930 . S
C3670 H3664 0.930 . S
C3670 C3671 1.355 . S
C3670 C3672 1.415 . S
C3671 C3670 1.355 . S
C3671 C3673 1.419 . S
C3672 C3670 1.415 . S
C3672 C3677 1.425 . S
C3672 C3679 1.409 . S
C3673 H3665 0.913 1_554 S
C3673 C3671 1.419 . S
C3673 C3674 1.362 . S
C3674 H3666 0.930 1_554 S
C3674 C3673 1.362 . S
C3674 C3677 1.409 . S
C3675 H3667 0.930 1_554 S
C3675 C3676 1.355 . S
C3675 C3677 1.415 . S
C3676 C3675 1.355 . S
C3676 C3678 1.419 . S
C3677 C3672 1.425 . S
C3677 C3674 1.409 . S
C3677 C3675 1.415 . S
C3678 H3668 0.930 . S
C3678 C3676 1.419 . S
C3678 C3679 1.362 . S
C3679 H3669 0.930 . S
C3679 C3672 1.409 . S
C3679 C3678 1.362 . S
H3680 C3686 0.930 . S
H3681 C3689 0.930 . S
H3682 C3690 0.930 . S
H3683 C3691 0.930 . S
H3684 C3694 0.930 . S
H3685 C3695 0.930 . S
C3686 H3680 0.930 . S
C3686 C3687 1.355 . S
C3686 C3688 1.415 . S
C3687 C3686 1.355 . S
C3687 C3689 1.419 . S
C3688 C3686 1.415 . S
C3688 C3693 1.425 . S
C3688 C3695 1.409 . S
C3689 H3681 0.930 . S
C3689 C3687 1.419 . S
C3689 C3690 1.362 . S
C3690 H3682 0.930 . S
C3690 C3689 1.362 . S
C3690 C3693 1.409 . S
C3691 H3683 0.930 . S
C3691 C3692 1.355 . S
C3691 C3693 1.415 . S
C3692 C3691 1.355 . S
C3692 C3694 1.419 . S
C3693 C3688 1.425 . S
C3693 C3690 1.409 . S
C3693 C3691 1.415 . S
C3694 H3684 0.930 . S
C3694 C3692 1.419 . S
C3694 C3695 1.362 . S
C3695 H3685 0.930 . S
C3695 C3688 1.409 . S
C3695 C3694 1.362 . S
H3696 C3702 0.930 . S
H3697 C3705 0.930 . S
H3698 C3706 0.930 . S
H3699 C3707 0.930 . S
H3700 C3710 0.930 . S
H3701 C3711 0.930 . S
C3702 H3696 0.930 . S
C3702 C3703 1.355 . S
C3702 C3704 1.415 . S
C3703 C3702 1.355 . S
C3703 C3705 1.419 . S
C3704 C3702 1.415 . S
C3704 C3709 1.425 . S
C3704 C3711 1.409 . S
C3705 H3697 0.930 . S
C3705 C3703 1.419 . S
C3705 C3706 1.362 . S
C3706 H3698 0.930 . S
C3706 C3705 1.362 . S
C3706 C3709 1.409 . S
C3707 H3699 0.930 . S
C3707 C3708 1.355 . S
C3707 C3709 1.415 . S
C3708 C3707 1.355 . S
C3708 C3710 1.419 . S
C3709 C3704 1.425 . S
C3709 C3706 1.409 . S
C3709 C3707 1.415 . S
C3710 H3700 0.930 . S
C3710 C3708 1.419 . S
C3710 C3711 1.362 . S
C3711 H3701 0.930 . S
C3711 C3704 1.409 . S
C3711 C3710 1.362 . S
H3712 C3718 0.930 . S
H3713 C3721 0.930 . S
H3714 C3722 0.930 . S
H3715 C3723 0.930 . S
H3716 C3726 0.930 . S
H3717 C3727 0.930 . S
C3718 H3712 0.930 . S
C3718 C3719 1.355 . S
C3718 C3720 1.415 . S
C3719 C3718 1.355 . S
C3719 C3721 1.419 . S
C3720 C3718 1.415 . S
C3720 C3725 1.425 . S
C3720 C3727 1.409 . S
C3721 H3713 0.930 . S
C3721 C3719 1.419 . S
C3721 C3722 1.362 . S
C3722 H3714 0.930 . S
C3722 C3721 1.362 . S
C3722 C3725 1.409 . S
C3723 H3715 0.930 . S
C3723 C3724 1.355 . S
C3723 C3725 1.415 . S
C3724 C3723 1.355 . S
C3724 C3726 1.419 . S
C3725 C3720 1.425 . S
C3725 C3722 1.409 . S
C3725 C3723 1.415 . S
C3726 H3716 0.930 . S
C3726 C3724 1.419 . S
C3726 C3727 1.362 . S
C3727 H3717 0.930 . S
C3727 C3720 1.409 . S
C3727 C3726 1.362 . S
H3728 C3734 0.930 . S
H3729 C3737 0.930 . S
H3730 C3738 0.930 . S
H3731 C3739 0.930 . S
H3732 C3742 0.930 . S
H3733 C3743 0.930 . S
C3734 H3728 0.930 . S
C3734 C3735 1.355 . S
C3734 C3736 1.415 . S
C3735 C3734 1.355 . S
C3735 C3737 1.419 . S
C3736 C3734 1.415 . S
C3736 C3741 1.425 . S
C3736 C3743 1.409 . S
C3737 H3729 0.930 . S
C3737 C3735 1.419 . S
C3737 C3738 1.362 . S
C3738 H3730 0.930 . S
C3738 C3737 1.362 . S
C3738 C3741 1.409 . S
C3739 H3731 0.930 . S
C3739 C3740 1.355 . S
C3739 C3741 1.415 . S
C3740 C3739 1.355 . S
C3740 C3742 1.419 . S
C3741 C3736 1.425 . S
C3741 C3738 1.409 . S
C3741 C3739 1.415 . S
C3742 H3732 0.930 . S
C3742 C3740 1.419 . S
C3742 C3743 1.362 . S
C3743 H3733 0.930 . S
C3743 C3736 1.409 . S
C3743 C3742 1.362 . S
C2215 C255 1.837 . S
C2220 C920 1.709 . S
C2231 C147 2.176 . S
C2236 C1011 2.183 . S
C2247 C184 1.566 . S
C2252 C1088 1.454 . S
C2268 C1186 1.444 . S
C2263 C220 1.522 . S
C2279 C40 1.493 . S
C2284 C1270 1.537 . S
C2300 C1342 1.024 . S
C2295 C74 1.085 . S
C2316 C1431 1.075 . S
C2311 C110 1.036 . S
C2327 C14 1.554 . S
C2332 C1508 1.300 . S
C2348 C927 2.099 . S
C2343 C579 2.182 . S
C2359 C616 0.772 . S
C2364 C1018 0.730 . S
C2380 C1095 1.222 . S
C2375 C687 1.248 . S
C2396 C1172 1.653 . S
C2391 C436 1.675 . S
C2407 C580 2.151 . S
C2412 C1256 1.970 . S
C2428 C1358 1.207 . S
C2423 C615 1.269 . S
C2444 C1438 0.886 . S
C2439 C688 0.834 . S
C2460 C1515 1.633 . S
C2455 C435 1.781 . S
C2476 C934 1.379 1_565 S
C2471 C410 1.435 1_554 S
C2487 C722 1.971 . S
C2492 C1599 1.855 1_556 S
C2508 C1687 2.313 . S
C2503 C842 2.408 . S
C2524 C1760 0.667 . S
C2519 C794 0.565 . S
C2535 C302 1.182 . S
C2540 C1522 1.151 . S
C2551 C338 1.452 . S
C2556 C1102 1.441 . S
C2567 C830 2.267 . S
C2572 C1851 2.197 . S
C2588 C1928 0.904 . S
C2583 C758 0.816 . S
C2604 C931 1.742 . S
C2599 C158 1.773 . S
C2620 C1946 2.178 . S
C2615 C254 2.198 . S
C2631 C218 1.592 . S
C2636 C1099 1.483 . S
C2647 C194 1.395 . S
C2652 C1846 1.436 . S
C2668 C1258 1.538 . S
C2663 C3 1.500 . S
C2679 C111 0.945 . S
C2684 C1690 0.846 . S
C2700 C1442 1.062 . S
C2695 C76 1.089 . S
C2716 C2023 1.378 . S
C2711 C50 1.429 . S
C2732 C938 2.052 . S
C2727 C364 2.150 . S
C2748 C1930 0.719 . S
C2743 C795 0.798 . S
C2759 C292 1.257 . S
C2764 C1106 1.142 . S
C2775 C723 1.670 . S
C2780 C1855 1.523 . S
C2791 C363 2.178 . S
C2796 C1267 2.017 . S
C2812 C1683 1.187 . S
C2807 C796 1.265 . S
C2823 C291 0.803 . S
C2828 C1426 0.693 . S
C2839 C724 1.780 . S
C2844 C2030 1.660 . S
C2855 C482 1.365 . S
C2860 C922 1.443 1_554 S
C2871 C434 1.920 . S
C2876 C1610 1.885 . S
C2887 C662 2.400 . S
C2892 C1340 2.303 . S
C2903 C614 0.543 . S
C2908 C1771 0.707 . S
C2924 C2014 1.127 . S
C2919 C698 0.925 . S
C2935 C554 1.428 . S
C2940 C1090 1.428 . S
C2956 C1190 2.130 . S
C2951 C650 2.232 . S
C2972 C1015 0.700 . S
C2967 C506 0.817 . S
C2983 C183 1.871 . S
C2988 C2096 1.779 . S
C3004 C1935 2.154 . S
C2999 C219 2.179 . S
C3015 C256 1.567 . S
C3020 C2180 1.449 . S
C3031 C148 1.537 . S
C3036 C1858 1.357 . S
C3047 C122 1.524 . S
C3052 C1606 1.555 . S
C3068 C1678 1.004 . S
C3063 C2 1.052 . S
C3084 C1767 1.073 . S
C3079 C39 0.965 . S
C3100 C2012 1.405 . S
C3095 C86 1.597 . S
C3116 C2103 2.079 . S
C3111 C651 2.188 . S
C3127 C472 0.768 . S
C3132 C1942 0.837 . S
C3148 C2187 1.206 . S
C3143 C507 1.233 . S
C3164 C1844 1.620 . S
C3159 C544 1.679 . S
C3180 C1592 1.963 . S
C3175 C652 2.133 . S
C3191 C471 1.209 . S
C3196 C1694 1.091 . S
C3212 C1774 0.834 . S
C3207 C508 0.834 . S
C3223 C543 1.778 . S
C3228 C2019 1.615 . S
C3244 C2110 1.376 . S
C3239 C806 1.451 . S
C3255 C326 1.931 . S
C3260 C1263 1.864 . S
C3276 C1351 2.267 . S
C3271 C374 2.425 . S
C3292 C1424 0.659 . S
C3287 C398 0.699 . S
C3308 C2026 1.091 . S
C3303 C770 1.060 . S
C3319 C734 1.468 1_554 S
C3324 C2194 1.390 . S
C3340 C1179 2.172 . S
C3335 C362 2.266 . S
C3356 C1004 0.855 . S
C3351 C290 0.874 . S
C3367 C230 1.765 . S
C3372 C2107 1.725 . S
C3388 C1022 2.152 . S
C3383 C182 2.224 . S
C3399 C146 1.558 . S
C3404 C2191 1.499 . S
C3415 C266 1.424 . S
C3420 C1174 1.424 . S
C3431 C75 1.522 . S
C3436 C1594 1.557 . S
C3452 C1354 0.938 . S
C3447 C38 1.036 . S
C3463 C4 1.043 . S
C3468 C1778 1.001 . S
C3479 C112 1.613 . S
C3484 C1519 1.454 . S
C3500 C2114 2.048 . S
C3495 C832 2.151 . S
C3511 C399 0.814 . S
C3516 C1006 0.776 . S
C3532 C2198 1.228 . S
C3527 C760 1.230 . S
C3543 C327 1.661 . S
C3548 C1183 1.598 . S
C3559 C831 2.211 . S
C3564 C1603 2.053 . S
C3580 C1347 1.144 . S
C3575 C400 1.250 . S
C3591 C759 0.794 . S
C3596 C1762 0.824 1_655 S
C3612 C1526 1.570 . S
C3607 C328 1.757 . S
C3628 C2098 1.367 . S
C3623 C626 1.444 . S
C3644 C1274 1.860 1_665 S
C3639 C542 1.951 . S
C3655 C590 2.339 . S
C3660 C1676 2.231 . S
C3676 C1435 0.580 . S
C3671 C470 0.655 . S
C3687 C518 0.847 . S
C3692 C1510 1.068 . S
C3703 C446 1.407 . S
C3708 C2182 1.424 1_554 S
C3724 C1862 2.171 . S
C3719 C578 2.246 1_565 S
C3740 C1939 0.862 . S
C3735 C686 0.757 . S
