# Generated by pormake.
# Topology ctn, (3,4)-cn, num edge types: 1
# Building blocks:
#     Node 0, Type 0, BuildingBlock: WUSLED_clean_sbu_0, # of connection points: 3
#     Node 1, Type 0, BuildingBlock: WUSLED_clean_sbu_0, # of connection points: 3
#     Node 2, Type 0, BuildingBlock: WUSLED_clean_sbu_0, # of connection points: 3
#     Node 3, Type 0, BuildingBlock: WUSLED_clean_sbu_0, # of connection points: 3
#     Node 4, Type 0, BuildingBlock: WUSLED_clean_sbu_0, # of connection points: 3
#     Node 5, Type 0, BuildingBlock: WUSLED_clean_sbu_0, # of connection points: 3
#     Node 6, Type 0, BuildingBlock: WUSLED_clean_sbu_0, # of connection points: 3
#     Node 7, Type 0, BuildingBlock: WUSLED_clean_sbu_0, # of connection points: 3
#     Node 8, Type 0, BuildingBlock: WUSLED_clean_sbu_0, # of connection points: 3
#     Node 9, Type 0, BuildingBlock: WUSLED_clean_sbu_0, # of connection points: 3
#     Node 10, Type 0, BuildingBlock: WUSLED_clean_sbu_0, # of connection points: 3
#     Node 11, Type 0, BuildingBlock: WUSLED_clean_sbu_0, # of connection points: 3
#     Node 12, Type 0, BuildingBlock: WUSLED_clean_sbu_0, # of connection points: 3
#     Node 13, Type 0, BuildingBlock: WUSLED_clean_sbu_0, # of connection points: 3
#     Node 14, Type 0, BuildingBlock: WUSLED_clean_sbu_0, # of connection points: 3
#     Node 15, Type 0, BuildingBlock: WUSLED_clean_sbu_0, # of connection points: 3
#     Node 16, Type 1, BuildingBlock: AZAVOO_clean_sbu_0, # of connection points: 4
#     Node 17, Type 1, BuildingBlock: AZAVOO_clean_sbu_0, # of connection points: 4
#     Node 18, Type 1, BuildingBlock: AZAVOO_clean_sbu_0, # of connection points: 4
#     Node 19, Type 1, BuildingBlock: AZAVOO_clean_sbu_0, # of connection points: 4
#     Node 20, Type 1, BuildingBlock: AZAVOO_clean_sbu_0, # of connection points: 4
#     Node 21, Type 1, BuildingBlock: AZAVOO_clean_sbu_0, # of connection points: 4
#     Node 22, Type 1, BuildingBlock: AZAVOO_clean_sbu_0, # of connection points: 4
#     Node 23, Type 1, BuildingBlock: AZAVOO_clean_sbu_0, # of connection points: 4
#     Node 24, Type 1, BuildingBlock: AZAVOO_clean_sbu_0, # of connection points: 4
#     Node 25, Type 1, BuildingBlock: AZAVOO_clean_sbu_0, # of connection points: 4
#     Node 26, Type 1, BuildingBlock: AZAVOO_clean_sbu_0, # of connection points: 4
#     Node 27, Type 1, BuildingBlock: AZAVOO_clean_sbu_0, # of connection points: 4
#     Edge 28, Type (0, 1), BuildingBlock: TEMPAE_clean_linker_10, # of connection points: 2
#     Edge 29, Type (0, 1), BuildingBlock: TEMPAE_clean_linker_10, # of connection points: 2
#     Edge 30, Type (0, 1), BuildingBlock: TEMPAE_clean_linker_10, # of connection points: 2
#     Edge 31, Type (0, 1), BuildingBlock: TEMPAE_clean_linker_10, # of connection points: 2
#     Edge 32, Type (0, 1), BuildingBlock: TEMPAE_clean_linker_10, # of connection points: 2
#     Edge 33, Type (0, 1), BuildingBlock: TEMPAE_clean_linker_10, # of connection points: 2
#     Edge 34, Type (0, 1), BuildingBlock: TEMPAE_clean_linker_10, # of connection points: 2
#     Edge 35, Type (0, 1), BuildingBlock: TEMPAE_clean_linker_10, # of connection points: 2
#     Edge 36, Type (0, 1), BuildingBlock: TEMPAE_clean_linker_10, # of connection points: 2
#     Edge 37, Type (0, 1), BuildingBlock: TEMPAE_clean_linker_10, # of connection points: 2
#     Edge 38, Type (0, 1), BuildingBlock: TEMPAE_clean_linker_10, # of connection points: 2
#     Edge 39, Type (0, 1), BuildingBlock: TEMPAE_clean_linker_10, # of connection points: 2
#     Edge 40, Type (0, 1), BuildingBlock: TEMPAE_clean_linker_10, # of connection points: 2
#     Edge 41, Type (0, 1), BuildingBlock: TEMPAE_clean_linker_10, # of connection points: 2
#     Edge 42, Type (0, 1), BuildingBlock: TEMPAE_clean_linker_10, # of connection points: 2
#     Edge 43, Type (0, 1), BuildingBlock: TEMPAE_clean_linker_10, # of connection points: 2
#     Edge 44, Type (0, 1), BuildingBlock: TEMPAE_clean_linker_10, # of connection points: 2
#     Edge 45, Type (0, 1), BuildingBlock: TEMPAE_clean_linker_10, # of connection points: 2
#     Edge 46, Type (0, 1), BuildingBlock: TEMPAE_clean_linker_10, # of connection points: 2
#     Edge 47, Type (0, 1), BuildingBlock: TEMPAE_clean_linker_10, # of connection points: 2
#     Edge 48, Type (0, 1), BuildingBlock: TEMPAE_clean_linker_10, # of connection points: 2
#     Edge 49, Type (0, 1), BuildingBlock: TEMPAE_clean_linker_10, # of connection points: 2
#     Edge 50, Type (0, 1), BuildingBlock: TEMPAE_clean_linker_10, # of connection points: 2
#     Edge 51, Type (0, 1), BuildingBlock: TEMPAE_clean_linker_10, # of connection points: 2
#     Edge 52, Type (0, 1), BuildingBlock: TEMPAE_clean_linker_10, # of connection points: 2
#     Edge 53, Type (0, 1), BuildingBlock: TEMPAE_clean_linker_10, # of connection points: 2
#     Edge 54, Type (0, 1), BuildingBlock: TEMPAE_clean_linker_10, # of connection points: 2
#     Edge 55, Type (0, 1), BuildingBlock: TEMPAE_clean_linker_10, # of connection points: 2
#     Edge 56, Type (0, 1), BuildingBlock: TEMPAE_clean_linker_10, # of connection points: 2
#     Edge 57, Type (0, 1), BuildingBlock: TEMPAE_clean_linker_10, # of connection points: 2
#     Edge 58, Type (0, 1), BuildingBlock: TEMPAE_clean_linker_10, # of connection points: 2
#     Edge 59, Type (0, 1), BuildingBlock: TEMPAE_clean_linker_10, # of connection points: 2
#     Edge 60, Type (0, 1), BuildingBlock: TEMPAE_clean_linker_10, # of connection points: 2
#     Edge 61, Type (0, 1), BuildingBlock: TEMPAE_clean_linker_10, # of connection points: 2
#     Edge 62, Type (0, 1), BuildingBlock: TEMPAE_clean_linker_10, # of connection points: 2
#     Edge 63, Type (0, 1), BuildingBlock: TEMPAE_clean_linker_10, # of connection points: 2
#     Edge 64, Type (0, 1), BuildingBlock: TEMPAE_clean_linker_10, # of connection points: 2
#     Edge 65, Type (0, 1), BuildingBlock: TEMPAE_clean_linker_10, # of connection points: 2
#     Edge 66, Type (0, 1), BuildingBlock: TEMPAE_clean_linker_10, # of connection points: 2
#     Edge 67, Type (0, 1), BuildingBlock: TEMPAE_clean_linker_10, # of connection points: 2
#     Edge 68, Type (0, 1), BuildingBlock: TEMPAE_clean_linker_10, # of connection points: 2
#     Edge 69, Type (0, 1), BuildingBlock: TEMPAE_clean_linker_10, # of connection points: 2
#     Edge 70, Type (0, 1), BuildingBlock: TEMPAE_clean_linker_10, # of connection points: 2
#     Edge 71, Type (0, 1), BuildingBlock: TEMPAE_clean_linker_10, # of connection points: 2
#     Edge 72, Type (0, 1), BuildingBlock: TEMPAE_clean_linker_10, # of connection points: 2
#     Edge 73, Type (0, 1), BuildingBlock: TEMPAE_clean_linker_10, # of connection points: 2
#     Edge 74, Type (0, 1), BuildingBlock: TEMPAE_clean_linker_10, # of connection points: 2
#     Edge 75, Type (0, 1), BuildingBlock: TEMPAE_clean_linker_10, # of connection points: 2
# Relax obj value: 0.002
# Max RMSD: 0.044
# Mean RMSD: 0.026
data_MOF--net-ctn--node1-WUSLED_clean_sbu_0--node2-AZAVOO_clean_sbu_0--edge1-TEMPAE_clean_linker_10
_symmetry_space_group_name_H-M    P1
_symmetry_Int_Tables_number       1
_symmetry_cell_setting            triclinic
loop_
_symmetry_equiv_pos_as_xyz
'x, y, z'
_cell_length_a     70.816354
_cell_length_b     72.418714
_cell_length_c     72.249675
_cell_angle_alpha  90.827503
_cell_angle_beta   92.497923
_cell_angle_gamma 92.692278
loop_
_atom_site_label
_atom_site_type_symbol
_atom_site_fract_x
_atom_site_fract_y
_atom_site_fract_z
_atom_type_partial_charge
C0 C 0.01507 0.05057 0.07534 0.0
C1 C 0.01434 0.03261 0.08244 0.0
C2 C 0.99416 0.04251 0.10696 0.0
C3 C 1.00391 0.0286 0.0981 0.0
C4 C 0.99506 0.06046 0.09975 0.0
C5 C 1.0054 0.06442 0.08413 0.0
U6 U 0.05357 0.04376 0.03962 0.0
O7 O 0.05132 0.04774 0.00939 0.0
O8 O 0.07172 0.06487 0.02668 0.0
C9 C 0.06336 0.06215 0.01019 0.0
C10 C 0.02542 0.0553 0.05864 0.0
C11 C 0.0573 0.07883 1.00032 0.0
C12 C 0.04796 0.09344 0.97139 0.0
C13 C 0.05273 0.07767 0.98122 0.0
C14 C 0.05211 0.11184 0.99963 0.0
C15 C 0.04783 0.11075 0.98044 0.0
C16 C 0.05672 0.09605 0.00949 0.0
C17 C 0.08793 1.00419 0.04433 0.0
C18 C 0.1121 0.99768 0.02248 0.0
C19 C 0.11001 0.98015 0.05067 0.0
C20 C 0.09469 0.99028 0.05576 0.0
C21 C 0.11898 0.98372 0.03398 0.0
C22 C 0.09673 0.00788 0.02763 0.0
C23 C 0.07184 0.01468 0.05025 0.0
O24 O 0.04302 0.06163 0.06147 0.0
O25 O 0.02311 0.04365 0.04451 0.0
O26 O 0.05656 0.01363 0.03921 0.0
O27 O 0.07608 0.0315 0.05669 0.0
H28 H 0.02176 0.02172 0.07588 0.0
H29 H 1.00365 0.01467 0.10339 0.0
H30 H 0.98752 0.07144 0.10602 0.0
H31 H 1.00572 0.07834 0.07881 0.0
H32 H 0.04489 0.09218 0.95659 0.0
H33 H 0.05314 0.06459 0.97382 0.0
H34 H 0.05191 0.12493 1.00704 0.0
H35 H 0.06005 0.09741 0.02423 0.0
H36 H 0.11873 1.00088 0.00961 0.0
H37 H 0.11467 0.9693 0.05971 0.0
H38 H 0.08806 0.98721 0.06867 0.0
H39 H 0.09173 0.01864 0.01865 0.0
C40 C 0.29455 0.74897 0.18024 0.0
C41 C 0.30331 0.76668 0.18285 0.0
C42 C 0.29267 0.77513 0.15163 0.0
C43 C 0.30238 0.77967 0.16864 0.0
C44 C 0.28441 0.75718 0.14901 0.0
C45 C 0.28532 0.74428 0.16317 0.0
U46 U 0.3138 0.72687 0.22526 0.0
O47 O 0.29766 0.71625 0.24861 0.0
O48 O 0.31419 0.69748 0.23236 0.0
C49 C 0.30181 0.69905 0.24527 0.0
C50 C 0.29404 0.73536 0.19521 0.0
C51 C 0.28576 0.68519 0.24478 0.0
C52 C 0.26542 0.66146 0.22874 0.0
C53 C 0.27981 0.6754 0.22845 0.0
C54 C 0.26227 0.66733 0.2615 0.0
C55 C 0.25663 0.65706 0.24533 0.0
C56 C 0.27671 0.68117 0.26122 0.0
C57 C 0.35998 0.74543 0.25069 0.0
C58 C 0.37017 0.74958 0.28321 0.0
C59 C 0.39308 0.74264 0.26053 0.0
C60 C 0.37876 0.74223 0.24652 0.0
C61 C 0.38898 0.74646 0.27902 0.0
C62 C 0.35582 0.74904 0.26923 0.0
C63 C 0.34525 0.74571 0.23545 0.0
O64 O 0.30715 0.72311 0.1953 0.0
O65 O 0.2908 0.74181 0.21182 0.0
O66 O 0.32836 0.75071 0.23983 0.0
O67 O 0.34464 0.73172 0.22361 0.0
H68 H 0.31055 0.77057 0.19594 0.0
H69 H 0.30882 0.79338 0.17116 0.0
H70 H 0.27716 0.75308 0.13598 0.0
H71 H 0.27855 0.73065 0.16086 0.0
H72 H 0.26158 0.65376 0.21606 0.0
H73 H 0.28649 0.67826 0.21553 0.0
H74 H 0.2556 0.6646 0.27445 0.0
H75 H 0.28099 0.68859 0.27396 0.0
H76 H 0.36651 0.75236 0.29735 0.0
H77 H 0.40745 0.74037 0.25681 0.0
H78 H 0.38241 0.73959 0.23235 0.0
H79 H 0.34151 0.75157 0.27296 0.0
C80 C 0.97988 0.44629 1.00656 0.0
C81 C 0.98607 0.43045 0.01554 0.0
C82 C 0.99034 0.41526 0.98569 0.0
C83 C 0.99118 0.41508 1.00521 0.0
C84 C 0.98457 0.43137 0.97681 0.0
C85 C 0.97937 0.44668 0.98715 0.0
U86 U 0.98223 0.47985 0.04855 0.0
O87 O 0.97879 0.50998 0.04932 0.0
O88 O 0.95916 0.49142 0.06375 0.0
C89 C 0.96315 0.5084 0.05844 0.0
C90 C 0.97335 0.4623 0.01704 0.0
C91 C 0.94709 0.51894 0.05121 0.0
C92 C 0.91534 0.52049 0.03702 0.0
C93 C 0.9308 0.51016 0.04262 0.0
C94 C 0.93244 0.54852 0.04803 0.0
C95 C 0.91592 0.5398 0.03979 0.0
C96 C 0.9478 0.5382 0.0537 0.0
C97 C 0.02062 0.47324 0.08755 0.0
C98 C 0.02708 0.49315 0.11476 0.0
C99 C 0.04533 0.4661 0.11037 0.0
C100 C 0.03495 0.46189 0.09384 0.0
C101 C 0.04159 0.48181 0.12108 0.0
C102 C 0.01666 0.48889 0.09813 0.0
C103 C 0.01041 0.46852 0.06976 0.0
O104 O 0.96503 0.45861 0.03257 0.0
O105 O 0.98509 0.4769 0.01838 0.0
O106 O 0.01264 0.48043 0.05639 0.0
O107 O 0.99287 0.46194 0.0707 0.0
H108 H 0.98666 0.42982 0.03052 0.0
H109 H 0.99532 0.40288 0.01256 0.0
H110 H 0.98404 0.43218 0.96185 0.0
H111 H 0.97474 0.45879 0.97994 0.0
H112 H 0.90291 0.51336 0.03056 0.0
H113 H 0.92991 0.49531 0.04044 0.0
H114 H 0.9333 0.56331 0.05062 0.0
H115 H 0.96017 0.54526 0.06036 0.0
H116 H 0.02371 0.50527 0.1227 0.0
H117 H 0.0566 0.45724 0.11455 0.0
H118 H 0.03828 0.4498 0.08581 0.0
H119 H 1.00562 0.49782 0.09349 0.0
C120 C 0.71819 0.77078 0.18651 0.0
C121 C 0.72966 0.77775 0.17261 0.0
C122 C 0.7275 0.74768 0.15665 0.0
C123 C 0.73426 0.76631 0.1578 0.0
C124 C 0.71618 0.74079 0.17077 0.0
C125 C 0.71157 0.75223 0.18551 0.0
U126 U 0.72424 0.81371 0.21896 0.0
O127 O 0.70242 0.83069 0.23035 0.0
O128 O 0.72092 0.81536 0.24914 0.0
C129 C 0.70607 0.82552 0.24746 0.0
C130 C 0.71274 0.7825 0.20207 0.0
C131 C 0.68963 0.81952 0.25817 0.0
C132 C 0.65772 0.8058 0.26016 0.0
C133 C 0.67329 0.81079 0.24964 0.0
C134 C 0.67474 0.81789 0.28785 0.0
C135 C 0.65827 0.80931 0.2794 0.0
C136 C 0.69022 0.82296 0.27734 0.0
C137 C 0.76502 0.85041 0.21327 0.0
C138 C 0.7894 0.86721 0.2326 0.0
C139 C 0.77519 0.88204 0.20601 0.0
C140 C 0.76375 0.86604 0.20205 0.0
C141 C 0.78833 0.88278 0.22122 0.0
C142 C 0.77792 0.85124 0.22867 0.0
C143 C 0.75394 0.83304 0.20794 0.0
O144 O 0.72451 0.78335 0.21666 0.0
O145 O 0.70613 0.79862 0.19772 0.0
O146 O 0.73671 0.83481 0.20083 0.0
O147 O 0.75508 0.81915 0.21942 0.0
H148 H 0.73494 0.79204 0.17315 0.0
H149 H 0.74285 0.77214 0.1471 0.0
H150 H 0.71099 0.72648 0.17055 0.0
H151 H 0.70278 0.74657 0.19616 0.0
H152 H 0.64534 0.79902 0.25326 0.0
H153 H 0.67253 0.80787 0.23487 0.0
H154 H 0.67557 0.82096 0.30259 0.0
H155 H 0.70265 0.82973 0.28418 0.0
H156 H 0.79954 0.86713 0.24425 0.0
H157 H 0.77379 0.89381 0.19706 0.0
H158 H 0.7541 0.86581 0.18998 0.0
H159 H 0.77948 0.83942 0.23752 0.0
C160 C 0.01087 0.97799 0.44335 0.0
C161 C 0.01964 0.98568 0.42799 0.0
C162 C 0.98887 0.98844 0.41183 0.0
C163 C 1.00876 0.99079 0.41238 0.0
C164 C 0.98017 0.98117 0.42748 0.0
C165 C 0.99106 0.97597 0.44303 0.0
U166 U 0.05418 0.98058 0.47764 0.0
O167 O 0.05575 0.97576 0.50767 0.0
O168 O 0.07094 0.95816 0.48898 0.0
C169 C 0.06596 0.96116 0.50603 0.0
C170 C 0.02202 0.97137 0.45951 0.0
C171 C 0.05981 0.94464 0.51629 0.0
C172 C 0.03589 0.92126 0.52443 0.0
C173 C 0.04119 0.93707 0.51453 0.0
C174 C 0.06776 0.92044 0.53787 0.0
C175 C 0.04913 0.91272 0.53624 0.0
C176 C 0.073 0.93622 0.52802 0.0
C177 C 0.0928 0.01946 0.47228 0.0
C178 C 0.12041 0.02538 0.49318 0.0
C179 C 0.116 0.0441 0.46597 0.0
C180 C 0.0992 0.03393 0.46115 0.0
C181 C 0.12684 0.04003 0.48206 0.0
C182 C 0.10353 0.01516 0.48831 0.0
C183 C 0.07476 0.00938 0.46696 0.0
O184 O 0.03816 0.96406 0.45598 0.0
O185 O 0.02318 0.98226 0.47427 0.0
O186 O 0.06119 0.01052 0.47871 0.0
O187 O 0.07604 0.99263 0.46002 0.0
H188 H 0.03491 0.98743 0.42792 0.0
H189 H 0.01602 0.99611 0.40055 0.0
H190 H 0.96491 0.97942 0.42773 0.0
H191 H 0.98399 0.97015 0.45476 0.0
H192 H 0.02139 0.91581 0.52294 0.0
H193 H 0.03079 0.94337 0.50551 0.0
H194 H 0.07845 0.9141 0.5465 0.0
H195 H 0.08747 0.9418 0.52948 0.0
H196 H 0.12846 0.02176 0.50558 0.0
H197 H 0.12027 0.05547 0.45725 0.0
H198 H 0.09107 0.0375 0.44877 0.0
H199 H 0.09882 1.00399 0.49707 0.0
C200 C 0.21356 0.75755 0.82354 0.0
C201 C 0.22319 0.74978 0.83871 0.0
C202 C 0.22403 0.77937 0.85546 0.0
C203 C 0.22833 0.76058 0.85454 0.0
C204 C 0.21464 0.7871 0.84009 0.0
C205 C 0.20944 0.77628 0.82432 0.0
U206 U 0.21664 0.71634 0.7894 0.0
O207 O 0.19349 0.69907 0.77582 0.0
O208 O 0.21253 0.71587 0.759 0.0
C209 C 0.19683 0.70543 0.75925 0.0
C210 C 0.20725 0.74639 0.80697 0.0
C211 C 0.18025 0.71163 0.74799 0.0
C212 C 0.14628 0.71013 0.74039 0.0
C213 C 0.16174 0.70527 0.75175 0.0
C214 C 0.16739 0.72789 0.72127 0.0
C215 C 0.1489 0.7214 0.72492 0.0
C216 C 0.18286 0.72302 0.73261 0.0
C217 C 0.25592 0.68126 0.79741 0.0
C218 C 0.27058 0.66135 0.77525 0.0
C219 C 0.2751 0.65617 0.80814 0.0
C220 C 0.26376 0.67098 0.81188 0.0
C221 C 0.27894 0.65132 0.78979 0.0
C222 C 0.25918 0.67616 0.77902 0.0
C223 C 0.24545 0.69781 0.80202 0.0
O224 O 0.2188 0.74664 0.79323 0.0
O225 O 0.19967 0.72984 0.80998 0.0
O226 O 0.22813 0.69485 0.80749 0.0
O227 O 0.24716 0.71189 0.79082 0.0
H228 H 0.22661 0.73536 0.83835 0.0
H229 H 0.23578 0.75426 0.86604 0.0
H230 H 0.21095 0.80145 0.84038 0.0
H231 H 0.20198 0.78252 0.81277 0.0
H232 H 0.13224 0.70501 0.74372 0.0
H233 H 0.15918 0.69632 0.76334 0.0
H234 H 0.16999 0.73633 0.70931 0.0
H235 H 0.19691 0.72792 0.72909 0.0
H236 H 0.27334 0.65814 0.76097 0.0
H237 H 0.281 0.64861 0.81967 0.0
H238 H 0.2614 0.67463 0.82616 0.0
H239 H 0.25328 0.68388 0.7676 0.0
C240 C 0.96814 0.57243 0.50374 0.0
C241 C 0.98688 0.57972 0.50393 0.0
C242 C 0.97866 0.6053 0.52402 0.0
C243 C 0.99212 0.596 0.51404 0.0
C244 C 0.95993 0.59787 0.52369 0.0
C245 C 0.95475 0.58163 0.51367 0.0
U246 U 0.97256 0.53464 0.46588 0.0
O247 O 0.96689 0.5046 0.46779 0.0
O248 O 0.94979 0.52065 0.44842 0.0
C249 C 0.95221 0.5045 0.45601 0.0
C250 C 0.9621 0.55519 0.49359 0.0
C251 C 0.93494 0.49453 0.46189 0.0
C252 C 0.90885 0.49063 0.48256 0.0
C253 C 0.92513 0.50057 0.47715 0.0
C254 C 0.91203 0.46863 0.45745 0.0
C255 C 0.90209 0.47452 0.47276 0.0
C256 C 0.92825 0.47855 0.45209 0.0
C257 C 0.01364 0.53683 0.43227 0.0
C258 C 0.01568 0.52748 0.39987 0.0
C259 C 0.04398 0.52972 0.41994 0.0
C260 C 0.03324 0.5351 0.43473 0.0
C261 C 0.03539 0.52606 0.40225 0.0
C262 C 1.0049 0.53276 0.41473 0.0
C263 C 1.00299 0.54389 0.44791 0.0
O264 O 0.95576 0.55707 0.47639 0.0
O265 O 0.97306 0.54115 0.49575 0.0
O266 O 1.00343 0.53408 0.46308 0.0
O267 O 0.98625 0.55027 0.44385 0.0
H268 H 0.99743 0.57284 0.4963 0.0
H269 H 1.00662 0.60143 0.51387 0.0
H270 H 0.94927 0.60447 0.53142 0.0
H271 H 0.94024 0.57618 0.51376 0.0
H272 H 0.90148 0.49564 0.49432 0.0
H273 H 0.93008 0.51293 0.48487 0.0
H274 H 0.90748 0.45614 0.44978 0.0
H275 H 0.93568 0.47363 0.44032 0.0
H276 H 1.00859 0.52459 0.38649 0.0
H277 H 0.05915 0.52903 0.42223 0.0
H278 H 0.04035 0.53827 0.44806 0.0
H279 H 0.98979 0.5339 0.41239 0.0
C280 C 0.79453 0.77485 0.84058 0.0
C281 C 0.80239 0.75761 0.83783 0.0
C282 C 0.79488 0.74862 0.86923 0.0
C283 C 0.80249 0.74457 0.85202 0.0
C284 C 0.78719 0.76599 0.87186 0.0
C285 C 0.78703 0.77892 0.8577 0.0
U286 U 0.81165 0.79857 0.7963 0.0
O287 O 0.79467 0.80968 0.77316 0.0
O288 O 0.81377 0.82832 0.79027 0.0
C289 C 0.80045 0.82688 0.77702 0.0
C290 C 0.79355 0.78873 0.82587 0.0
C291 C 0.78565 0.84056 0.77776 0.0
C292 C 0.75431 0.84975 0.78575 0.0
C293 C 0.76814 0.83648 0.78558 0.0
C294 C 0.77546 0.87133 0.77056 0.0
C295 C 0.75783 0.86736 0.77825 0.0
C296 C 0.78918 0.85807 0.77032 0.0
C297 C 0.85493 0.78105 0.77186 0.0
C298 C 0.86763 0.79427 0.74394 0.0
C299 C 0.88224 0.7681 0.75816 0.0
C300 C 0.86901 0.76808 0.77197 0.0
C301 C 0.88169 0.78112 0.74389 0.0
C302 C 0.85434 0.79422 0.7578 0.0
C303 C 0.84106 0.78043 0.78649 0.0
O304 O 0.8074 0.80149 0.82622 0.0
O305 O 0.78864 0.78253 0.80907 0.0
O306 O 0.82354 0.77557 0.78111 0.0
O307 O 0.84225 0.79435 0.79843 0.0
H308 H 0.80832 0.75421 0.82471 0.0
H309 H 0.80863 0.73138 0.84959 0.0
H310 H 0.7809 0.76948 0.88478 0.0
H311 H 0.78084 0.79211 0.86008 0.0
H312 H 0.74095 0.84629 0.7919 0.0
H313 H 0.76515 0.82306 0.79151 0.0
H314 H 0.77856 0.88462 0.76441 0.0
H315 H 0.80257 0.86149 0.76418 0.0
H316 H 0.86666 0.80437 0.73308 0.0
H317 H 0.89301 0.75797 0.75874 0.0
H318 H 0.86974 0.75787 0.78276 0.0
H319 H 0.84355 0.80435 0.75749 0.0
C320 C 0.2917 0.27304 0.33994 0.0
C321 C 0.2982 0.25527 0.33681 0.0
C322 C 0.29222 0.24699 0.36876 0.0
C323 C 0.2984 0.24233 0.3511 0.0
C324 C 0.286 0.26492 0.3718 0.0
C325 C 0.28575 0.27776 0.35756 0.0
U326 U 0.30751 0.29693 0.29516 0.0
O327 O 0.28955 0.30695 0.27204 0.0
O328 O 0.30824 0.32649 0.28857 0.0
C329 C 0.29455 0.32438 0.27571 0.0
C330 C 0.29017 0.28672 0.32506 0.0
C331 C 0.27896 0.33724 0.27665 0.0
C332 C 0.26061 0.35901 0.29358 0.0
C333 C 0.27455 0.34589 0.29337 0.0
C334 C 0.25476 0.35452 0.26053 0.0
C335 C 0.25068 0.36362 0.27712 0.0
C336 C 0.26877 0.34152 0.26031 0.0
C337 C 0.35127 0.28047 0.27049 0.0
C338 C 0.36535 0.29515 0.24395 0.0
C339 C 0.37741 0.26661 0.25559 0.0
C340 C 0.36409 0.26639 0.26933 0.0
C341 C 0.3782 0.28095 0.24267 0.0
C342 C 0.35196 0.2949 0.25773 0.0
C343 C 0.33749 0.27976 0.28522 0.0
O344 O 0.30354 0.29994 0.32514 0.0
O345 O 0.28528 0.28023 0.30836 0.0
O346 O 0.32008 0.27422 0.28008 0.0
O347 O 0.33831 0.29388 0.2969 0.0
H348 H 0.30292 0.25133 0.32332 0.0
H349 H 0.3034 0.2287 0.34833 0.0
H350 H 0.28084 0.26891 0.3851 0.0
H351 H 0.28059 0.29135 0.36024 0.0
H352 H 0.25769 0.36563 0.30662 0.0
H353 H 0.28208 0.34275 0.30623 0.0
H354 H 0.24756 0.3579 0.24757 0.0
H355 H 0.27194 0.33507 0.24725 0.0
H356 H 0.36543 0.3063 0.23412 0.0
H357 H 0.38723 0.2556 0.25522 0.0
H358 H 0.36383 0.25519 0.27911 0.0
H359 H 0.34214 0.30589 0.2584 0.0
C360 C 0.47596 0.94631 0.5093 0.0
C361 C 0.48166 0.93007 0.51787 0.0
C362 C 0.48648 0.91578 0.4877 0.0
C363 C 0.4868 0.91496 0.50719 0.0
C364 C 0.4812 0.93227 0.47924 0.0
C365 C 0.47595 0.94732 0.48992 0.0
U366 U 0.47866 0.97908 0.55186 0.0
O367 O 0.47463 0.00901 0.55351 0.0
O368 O 0.45568 0.98978 0.56791 0.0
C369 C 0.45939 1.00697 0.56318 0.0
C370 C 0.46937 0.96205 0.52015 0.0
C371 C 0.44296 0.01735 0.55682 0.0
C372 C 0.41919 0.02527 0.53324 0.0
C373 C 0.43481 0.01511 0.53881 0.0
C374 C 0.41971 0.03983 0.56365 0.0
C375 C 0.41149 0.03784 0.54559 0.0
C376 C 0.43526 0.02972 0.56917 0.0
C377 C 0.51777 0.97225 0.59001 0.0
C378 C 0.52455 0.99201 0.61727 0.0
C379 C 0.54252 0.96481 0.61267 0.0
C380 C 0.53202 0.96074 0.59616 0.0
C381 C 0.53899 0.98052 0.62346 0.0
C382 C 0.51401 0.9879 0.60069 0.0
C383 C 0.50742 0.96772 0.57225 0.0
O384 O 0.46138 0.95799 0.53577 0.0
O385 O 0.4809 0.97682 0.52154 0.0
O386 O 0.5092 0.97998 0.55912 0.0
O387 O 0.49003 0.96077 0.5733 0.0
H388 H 0.48186 0.92892 0.53281 0.0
H389 H 0.49054 0.90246 0.51422 0.0
H390 H 0.48108 0.93357 0.46432 0.0
H391 H 0.47169 0.95974 0.48302 0.0
H392 H 0.41332 0.02346 0.51921 0.0
H393 H 0.44055 1.00557 0.52908 0.0
H394 H 0.41398 0.04906 0.57367 0.0
H395 H 0.44128 0.03155 0.58316 0.0
H396 H 0.52135 1.00413 0.62529 0.0
H397 H 0.55372 0.95583 0.61675 0.0
H398 H 0.53519 0.94865 0.58806 0.0
H399 H 0.50303 0.99695 0.59615 0.0
C400 C 0.2193 0.27186 0.68543 0.0
C401 C 0.23811 0.26692 0.6837 0.0
C402 C 0.22882 0.2477 0.65643 0.0
C403 C 0.2428 0.25494 0.66937 0.0
C404 C 0.21007 0.25295 0.6581 0.0
C405 C 0.20538 0.26483 0.67246 0.0
U406 U 0.22521 0.31466 0.7182 0.0
O407 O 0.20318 0.33222 0.72854 0.0
O408 O 0.22084 0.31684 0.74806 0.0
C409 C 0.20627 0.32732 0.74581 0.0
C410 C 0.21361 0.28371 0.7009 0.0
C411 C 0.18939 0.32194 0.75612 0.0
C412 C 0.16832 0.29863 0.76937 0.0
C413 C 0.18359 0.30333 0.75836 0.0
C414 C 0.1641 0.3311 0.77553 0.0
C415 C 0.15854 0.31247 0.77832 0.0
C416 C 0.17937 0.33576 0.76458 0.0
C417 C 0.26718 0.35031 0.71368 0.0
C418 C 0.27292 0.38378 0.71277 0.0
C419 C 0.29647 0.36484 0.72717 0.0
C420 C 0.28489 0.34899 0.72301 0.0
C421 C 0.29072 0.38242 0.72195 0.0
C422 C 0.26128 0.36792 0.70867 0.0
C423 C 0.2558 0.33319 0.70811 0.0
O424 O 0.22465 0.28431 0.71605 0.0
O425 O 0.20743 0.29994 0.69635 0.0
O426 O 0.23888 0.3352 0.70034 0.0
O427 O 0.25619 0.31947 0.71983 0.0
H428 H 0.24915 0.27214 0.69351 0.0
H429 H 0.25734 0.25108 0.66866 0.0
H430 H 0.19897 0.24797 0.64824 0.0
H431 H 0.19079 0.26847 0.6735 0.0
H432 H 0.16458 0.28415 0.77133 0.0
H433 H 0.1911 0.29242 0.75192 0.0
H434 H 0.15672 0.34212 0.78191 0.0
H435 H 0.18357 0.35021 0.76296 0.0
H436 H 0.26799 0.39712 0.70868 0.0
H437 H 0.31021 0.36323 0.73398 0.0
H438 H 0.29 0.33563 0.72678 0.0
H439 H 0.2478 0.36949 0.70134 0.0
C440 C 0.79281 0.24755 0.68235 0.0
C441 C 0.80191 0.2651 0.68508 0.0
C442 C 0.79113 0.27408 0.65407 0.0
C443 C 0.80108 0.27826 0.67104 0.0
C444 C 0.78248 0.2563 0.65134 0.0
C445 C 0.78329 0.24322 0.66534 0.0
U446 U 0.81237 0.22498 0.72693 0.0
O447 O 0.79647 0.21383 0.7502 0.0
O448 O 0.81312 0.19549 0.73357 0.0
C449 C 0.80079 0.19673 0.74658 0.0
C450 C 0.79239 0.23371 0.6971 0.0
C451 C 0.78488 0.18272 0.74601 0.0
C452 C 0.76467 0.15897 0.72984 0.0
C453 C 0.77898 0.17301 0.72962 0.0
C454 C 0.76154 0.16458 0.76264 0.0
C455 C 0.75593 0.15441 0.74641 0.0
C456 C 0.77589 0.17851 0.76244 0.0
C457 C 0.85848 0.24391 0.75248 0.0
C458 C 0.88922 0.23439 0.76443 0.0
C459 C 0.87158 0.25546 0.78246 0.0
C460 C 0.85711 0.25482 0.76859 0.0
C461 C 0.88787 0.24532 0.78053 0.0
C462 C 0.87475 0.23374 0.75056 0.0
C463 C 0.84361 0.24411 0.7373 0.0
O464 O 0.80561 0.22158 0.69697 0.0
O465 O 0.78914 0.23989 0.71381 0.0
O466 O 0.82668 0.24875 0.74191 0.0
O467 O 0.84307 0.23038 0.72514 0.0
H468 H 0.80939 0.2687 0.69812 0.0
H469 H 0.80782 0.29184 0.67364 0.0
H470 H 0.77503 0.25246 0.63834 0.0
H471 H 0.77627 0.22972 0.66293 0.0
H472 H 0.76085 0.15135 0.71711 0.0
H473 H 0.78562 0.17602 0.71671 0.0
H474 H 0.7549 0.16172 0.77559 0.0
H475 H 0.78014 0.18587 0.77522 0.0
H476 H 0.90167 0.22662 0.76234 0.0
H477 H 0.86995 0.26387 0.79475 0.0
H478 H 0.84492 0.26303 0.77046 0.0
H479 H 0.87647 0.22545 0.73821 0.0
C480 C 0.51455 0.55226 0.57214 0.0
C481 C 0.51379 0.53429 0.57921 0.0
C482 C 0.49354 0.54415 0.60369 0.0
C483 C 0.50331 0.53025 0.59483 0.0
C484 C 0.49441 0.5621 0.59647 0.0
C485 C 0.5048 0.56608 0.58089 0.0
U486 U 0.5532 0.54515 0.53669 0.0
O487 O 0.55177 0.54978 0.50664 0.0
O488 O 0.57212 0.56629 0.52456 0.0
C489 C 0.56435 0.56374 0.50782 0.0
C490 C 0.52521 0.5571 0.55566 0.0
C491 C 0.55927 0.58065 0.49802 0.0
C492 C 0.53658 0.60337 0.48869 0.0
C493 C 0.54096 0.58731 0.49827 0.0
C494 C 0.56878 0.60638 0.47872 0.0
C495 C 0.55047 0.61313 0.47885 0.0
C496 C 0.5731 0.59031 0.48819 0.0
C497 C 0.58626 0.50452 0.53995 0.0
C498 C 0.61762 0.50274 0.5276 0.0
C499 C 0.60042 0.47478 0.53641 0.0
C500 C 0.58534 0.48524 0.5416 0.0
C501 C 0.61683 0.4834 0.5295 0.0
C502 C 0.60244 0.5132 0.5327 0.0
C503 C 0.57046 0.51521 0.54642 0.0
O504 O 0.54295 0.56282 0.55883 0.0
O505 O 0.52271 0.54583 0.54123 0.0
O506 O 0.55512 0.51484 0.53546 0.0
O507 O 0.57499 0.5317 0.55359 0.0
H508 H 0.52129 0.52343 0.57268 0.0
H509 H 0.50308 0.51633 0.60013 0.0
H510 H 0.48686 0.57306 0.60275 0.0
H511 H 0.50515 0.58002 0.57561 0.0
H512 H 0.52241 0.6083 0.48921 0.0
H513 H 0.53009 0.58011 0.50588 0.0
H514 H 0.57974 0.61342 0.4711 0.0
H515 H 0.5873 0.58538 0.4878 0.0
H516 H 0.62997 0.50979 0.52217 0.0
H517 H 0.59942 0.45996 0.5383 0.0
H518 H 0.57302 0.47826 0.54719 0.0
H519 H 0.60345 0.52807 0.53117 0.0
C520 C 0.51181 0.47855 0.94178 0.0
C521 C 0.52102 0.48461 0.92597 0.0
C522 C 0.49057 0.48868 0.90963 0.0
C523 C 0.51052 0.48957 0.91007 0.0
C524 C 0.48146 0.48306 0.92569 0.0
C525 C 0.49197 0.47802 0.94154 0.0
U526 U 0.55365 0.48118 0.97803 0.0
O527 O 0.55365 0.47606 0.008 0.0
O528 O 0.56994 0.45872 0.99002 0.0
C529 C 0.56415 0.46162 1.0068 0.0
C530 C 0.52243 0.47197 0.95832 0.0
C531 C 0.5579 0.44504 0.01692 0.0
C532 C 0.53392 0.42166 0.02495 0.0
C533 C 0.53931 0.43741 0.01498 0.0
C534 C 0.56565 0.42102 0.03876 0.0
C535 C 0.54704 0.41327 0.03702 0.0
C536 C 0.57098 0.43671 0.02885 0.0
C537 C 0.59281 0.52028 0.97575 0.0
C538 C 0.62708 0.52553 0.9749 0.0
C539 C 0.60874 0.54692 0.99179 0.0
C540 C 0.59218 0.53638 0.98679 0.0
C541 C 0.6264 0.54175 0.98576 0.0
C542 C 0.6105 0.51495 0.96993 0.0
C543 C 0.57494 0.51018 0.96911 0.0
O544 O 0.53883 0.46485 0.95548 0.0
O545 O 0.52277 0.48268 0.97319 0.0
O546 O 0.56038 0.51117 0.97973 0.0
O547 O 0.57638 0.49362 0.96173 0.0
H548 H 0.53632 0.4852 0.92577 0.0
H549 H 0.51806 0.49361 0.89794 0.0
H550 H 0.46618 0.48248 0.92603 0.0
H551 H 0.48456 0.47345 0.95359 0.0
H552 H 0.51945 0.41616 0.02334 0.0
H553 H 0.52899 0.44364 1.00581 0.0
H554 H 0.57626 0.41478 0.04758 0.0
H555 H 0.58542 0.44234 0.03046 0.0
H556 H 0.64044 0.52105 0.97012 0.0
H557 H 0.60762 0.55949 0.99989 0.0
H558 H 0.57879 0.54112 0.99124 0.0
H559 H 0.61154 0.50276 0.96124 0.0
C560 C 0.71083 0.25562 0.32641 0.0
C561 C 0.72973 0.26176 0.33037 0.0
C562 C 0.72056 0.27792 0.35823 0.0
C563 C 0.73452 0.27285 0.34609 0.0
C564 C 0.70171 0.27158 0.35429 0.0
C565 C 0.69692 0.26062 0.33853 0.0
U566 U 0.71576 0.21569 0.291 0.0
O567 O 0.69322 0.19797 0.27689 0.0
O568 O 0.71184 0.21581 0.26062 0.0
C569 C 0.69647 0.20488 0.26052 0.0
C570 C 0.70507 0.24467 0.30947 0.0
C571 C 0.67969 0.21081 0.24941 0.0
C572 C 0.66522 0.23101 0.22664 0.0
C573 C 0.68082 0.2263 0.2379 0.0
C574 C 0.64689 0.205 0.23826 0.0
C575 C 0.64807 0.22034 0.22655 0.0
C576 C 0.66251 0.20026 0.24947 0.0
C577 C 0.75669 0.18233 0.29845 0.0
C578 C 0.76158 0.15439 0.28048 0.0
C579 C 0.78525 0.16542 0.30374 0.0
C580 C 0.77412 0.18024 0.30794 0.0
C581 C 0.77919 0.15231 0.28992 0.0
C582 C 0.75044 0.1693 0.28468 0.0
C583 C 0.74543 0.19819 0.30335 0.0
O584 O 0.71644 0.2458 0.29557 0.0
O585 O 0.69814 0.22779 0.31204 0.0
O586 O 0.72812 0.19429 0.30847 0.0
O587 O 0.74658 0.21248 0.29238 0.0
H588 H 0.74079 0.25808 0.3213 0.0
H589 H 0.7492 0.2773 0.34886 0.0
H590 H 0.69059 0.27536 0.36326 0.0
H591 H 0.68224 0.25615 0.33571 0.0
H592 H 0.6668 0.24274 0.21762 0.0
H593 H 0.69386 0.23466 0.23731 0.0
H594 H 0.63388 0.19658 0.23876 0.0
H595 H 0.6612 0.18816 0.25806 0.0
H596 H 0.75656 0.14466 0.26963 0.0
H597 H 0.79856 0.16414 0.31147 0.0
H598 H 0.77915 0.1901 0.31867 0.0
H599 H 0.73702 0.17071 0.27717 0.0
C600 C 0.4686 0.07416 1.00366 0.0
C601 C 0.48737 0.08139 1.00402 0.0
C602 C 0.47914 0.1068 0.0243 0.0
C603 C 0.49261 0.09755 0.01431 0.0
C604 C 0.46037 0.09945 0.0238 0.0
C605 C 0.45519 0.08332 0.0136 0.0
U606 U 0.47281 0.03698 0.96517 0.0
O607 O 0.46725 1.00689 0.96662 0.0
O608 O 0.44995 0.02321 0.94768 0.0
C609 C 0.45247 1.00694 0.95498 0.0
C610 C 0.46253 0.05703 0.99332 0.0
C611 C 0.43527 0.99684 0.96088 0.0
C612 C 0.40917 0.99283 0.98152 0.0
C613 C 0.42539 1.00286 0.97611 0.0
C614 C 0.41256 0.97079 0.95649 0.0
C615 C 0.40254 0.97665 0.97175 0.0
C616 C 0.42872 0.98079 0.95113 0.0
C617 C 0.51346 0.03996 0.93116 0.0
C618 C 0.5146 0.02941 0.89904 0.0
C619 C 0.54368 0.03484 0.91758 0.0
C620 C 0.53326 0.03991 0.93271 0.0
C621 C 0.53453 0.02978 0.90043 0.0
C622 C 0.50417 0.03442 0.91424 0.0
C623 C 0.50303 0.04669 0.94707 0.0
O624 O 0.456 0.05914 0.97622 0.0
O625 O 0.47358 0.04302 0.99514 0.0
O626 O 0.50364 0.03656 0.96202 0.0
O627 O 0.48622 0.05307 0.9433 0.0
H628 H 0.49794 0.07454 0.99638 0.0
H629 H 0.50714 0.10294 0.01426 0.0
H630 H 0.44969 0.10602 0.03153 0.0
H631 H 0.44065 0.07792 0.01356 0.0
H632 H 0.40174 0.99782 0.99324 0.0
H633 H 0.43024 0.01526 0.9838 0.0
H634 H 0.40811 0.95824 0.94885 0.0
H635 H 0.43621 0.9759 0.93938 0.0
H636 H 0.50705 0.02576 0.88605 0.0
H637 H 0.55895 0.03496 0.91931 0.0
H638 H 0.54074 0.04408 0.94561 0.0
H639 H 0.48889 0.03428 0.91264 0.0
Mg640 Mg 0.2541 0.87056 0.01327 0.0
O641 O 0.28179 0.88791 0.00822 0.0
O642 O 0.30457 0.86765 0.00705 0.0
Mg643 Mg 0.29252 0.83838 0.01196 0.0
C644 C 0.29908 0.88418 1.00616 0.0
C645 C 0.21823 0.89163 0.01138 0.0
O646 O 0.21351 0.87498 0.01712 0.0
O647 O 0.25258 0.85973 0.98301 0.0
O648 O 0.27528 0.83926 0.98429 0.0
O649 O 0.25934 0.87225 0.04421 0.0
O650 O 0.26928 0.85007 0.02652 0.0
C651 C 0.26196 0.84716 0.97545 0.0
C652 C 0.26835 0.85719 0.04285 0.0
O653 O 0.23531 0.89503 0.00716 0.0
Mg654 Mg 0.15453 0.51417 0.2698 0.0
O655 O 0.136 0.50991 0.24254 0.0
O656 O 0.15628 0.51037 0.21968 0.0
Mg657 Mg 0.18661 0.51598 0.23125 0.0
C658 C 0.13944 0.5087 0.22531 0.0
C659 C 0.13028 0.51711 0.30265 0.0
O660 O 0.14462 0.52922 0.30497 0.0
O661 O 0.16477 0.48426 0.26791 0.0
O662 O 0.18552 0.48795 0.24565 0.0
O663 O 0.15382 0.5452 0.26803 0.0
O664 O 0.17567 0.52888 0.25586 0.0
C665 C 0.17758 0.478 0.25784 0.0
C666 C 0.16903 0.54482 0.25877 0.0
O667 O 0.12956 0.50672 0.28821 0.0
Mg668 Mg 0.77775 0.65316 0.02033 0.0
O669 O 0.75006 0.63504 0.0143 0.0
O670 O 0.7269 0.65483 0.01107 0.0
Mg671 Mg 0.73862 0.68455 0.01577 0.0
C672 C 0.73263 0.63837 0.01107 0.0
C673 C 0.80952 0.62744 0.02878 0.0
O674 O 0.81016 0.63979 0.04233 0.0
O675 O 0.77829 0.66224 0.98977 0.0
O676 O 0.75517 0.68226 0.98928 0.0
O677 O 0.77323 0.65337 0.05108 0.0
O678 O 0.76259 0.67428 0.03205 0.0
C679 C 0.76838 0.67417 0.98137 0.0
C680 C 0.76401 0.66821 0.04865 0.0
O681 O 0.79676 0.62855 0.01591 0.0
Mg682 Mg 0.90322 0.02996 0.25296 0.0
O683 O 0.88521 1.00275 0.24696 0.0
O684 O 0.90568 0.98112 0.24091 0.0
Mg685 Mg 0.93591 0.99391 0.2415 0.0
C686 C 0.8888 0.98602 0.24298 0.0
C687 C 0.86684 0.05268 0.25314 0.0
O688 O 0.86967 0.05083 0.23538 0.0
O689 O 0.91358 0.01937 0.28165 0.0
O690 O 0.93471 0.99941 0.27278 0.0
O691 O 0.90257 0.03706 0.22257 0.0
O692 O 0.92463 0.021 0.23605 0.0
C693 C 0.92655 0.00808 0.28549 0.0
C694 C 0.91781 0.02811 0.22115 0.0
O695 O 0.87775 0.04465 0.26465 0.0
Mg696 Mg 0.27701 0.15187 0.52018 0.0
O697 O 0.24942 0.1334 0.51497 0.0
O698 O 0.22596 0.15292 0.51248 0.0
Mg699 Mg 0.23735 0.18275 0.51703 0.0
C700 C 0.23187 0.13652 0.51226 0.0
C701 C 0.29745 0.1151 0.52685 0.0
O702 O 0.28642 0.11555 0.54099 0.0
O703 O 0.2763 0.16109 0.48966 0.0
O704 O 0.25314 0.18103 0.49 0.0
O705 O 0.27389 0.15209 0.55117 0.0
O706 O 0.26191 0.17268 0.53258 0.0
C707 C 0.26616 0.17308 0.48165 0.0
C708 C 0.2642 0.16668 0.54915 0.0
O709 O 0.29612 0.1276 0.51469 0.0
Mg710 Mg 0.40485 0.53043 0.75095 0.0
O711 O 0.38702 0.50311 0.74503 0.0
O712 O 0.40747 0.48183 0.73787 0.0
Mg713 Mg 0.43761 0.49482 0.73884 0.0
C714 C 0.39061 0.48655 0.7404 0.0
C715 C 0.37816 0.56138 0.75699 0.0
O716 O 0.39111 0.56792 0.74602 0.0
O717 O 0.41544 0.51977 0.77945 0.0
O718 O 0.43638 0.49975 0.77029 0.0
O719 O 0.4035 0.53769 0.72069 0.0
O720 O 0.42609 0.52189 0.73372 0.0
C721 C 0.42829 0.50832 0.78313 0.0
C722 C 0.41887 0.52897 0.71897 0.0
O723 O 0.37939 0.54486 0.76263 0.0
Mg724 Mg 0.75346 0.36927 0.5156 0.0
O725 O 0.78108 0.38649 0.51001 0.0
O726 O 0.80374 0.36609 0.50885 0.0
Mg727 Mg 0.79176 0.33692 0.51442 0.0
C728 C 0.79832 0.38264 0.50779 0.0
C729 C 0.72178 0.39465 0.52135 0.0
O730 O 0.72133 0.38224 0.53444 0.0
O731 O 0.75158 0.35803 0.48542 0.0
O732 O 0.77397 0.33728 0.48707 0.0
O733 O 0.75919 0.37136 0.54654 0.0
O734 O 0.76876 0.34891 0.529 0.0
C735 C 0.76066 0.34509 0.47811 0.0
C736 C 0.76807 0.35622 0.54526 0.0
O737 O 0.73448 0.39368 0.50946 0.0
Mg738 Mg 0.6537 0.01174 0.77112 0.0
O739 O 0.63487 0.00757 0.74403 0.0
O740 O 0.6548 0.00797 0.7209 0.0
Mg741 Mg 0.68526 0.01334 0.73214 0.0
C742 C 0.63805 1.00639 0.72675 0.0
C743 C 0.61474 0.01404 0.78946 0.0
O744 O 0.6137 0.02716 0.77714 0.0
O745 O 0.66393 0.98191 0.76911 0.0
O746 O 0.68418 0.98515 0.74633 0.0
O747 O 0.65313 0.04277 0.76949 0.0
O748 O 0.67471 0.02635 0.75695 0.0
C749 C 0.67634 0.9754 0.75873 0.0
C750 C 0.66818 0.04233 0.75999 0.0
O751 O 0.62898 1.00392 0.78966 0.0
Mg752 Mg 0.03396 0.26249 0.89939 0.0
O753 O 1.00639 0.25719 0.88134 0.0
O754 O 0.98386 0.24849 0.90054 0.0
Mg755 Mg 0.9967 0.24716 0.93012 0.0
C756 C 0.98921 0.25226 0.8843 0.0
C757 C 0.06588 0.2712 0.8739 0.0
O758 O 0.0723 0.25936 0.88598 0.0
O759 O 0.02301 0.28977 0.91075 0.0
O760 O 1.00205 0.27879 0.93059 0.0
O761 O 0.04133 0.2328 0.8966 0.0
O762 O 0.02465 0.24343 0.91907 0.0
C763 C 0.01112 0.29232 0.92329 0.0
C764 C 0.03207 0.22955 0.91135 0.0
O765 O 0.04909 0.27645 0.87536 0.0
Mg766 Mg 0.53335 0.76553 0.39957 0.0
O767 O 0.5062 0.75947 0.38114 0.0
O768 O 0.48365 0.74945 0.39975 0.0
Mg769 Mg 0.49596 0.74891 0.4296 0.0
C770 C 0.48919 0.75364 0.38368 0.0
C771 C 0.55214 0.77027 0.36173 0.0
O772 O 0.54578 0.75292 0.36078 0.0
O773 O 0.52131 0.79235 0.41074 0.0
O774 O 0.50015 0.78068 0.43002 0.0
O775 O 0.54169 0.73606 0.39708 0.0
O776 O 0.52434 0.7463 0.4192 0.0
C777 C 0.50898 0.79449 0.42295 0.0
C778 C 0.53226 0.73262 0.41167 0.0
O779 O 0.54828 0.78006 0.37573 0.0
Mg780 Mg 1.0013 0.75531 0.61481 0.0
O781 O 0.02908 0.74981 0.63168 0.0
O782 O 0.05035 0.74291 0.61103 0.0
Mg783 Mg 0.03684 0.74371 0.5817 0.0
C784 C 0.04575 0.74538 0.62776 0.0
C785 C 0.96997 0.76945 0.63834 0.0
O786 O 0.96187 0.76638 0.6218 0.0
O787 O 0.01336 0.78377 0.60578 0.0
O788 O 0.03355 0.77512 0.58471 0.0
O789 O 0.99235 0.72515 0.61484 0.0
O790 O 1.00894 0.73806 0.59301 0.0
C791 C 0.02529 0.78771 0.59344 0.0
C792 C 1.00107 0.72333 0.59959 0.0
O793 O 0.98762 0.76702 0.64053 0.0
Mg794 Mg 0.50077 0.25589 0.11646 0.0
O795 O 0.52849 0.25061 0.13355 0.0
O796 O 0.55016 0.24451 0.11302 0.0
Mg797 Mg 0.53679 0.24491 0.08361 0.0
C798 C 0.54534 0.24669 0.12972 0.0
C799 C 0.4695 0.27147 0.1394 0.0
O800 O 0.46198 0.27018 0.12245 0.0
O801 O 0.51252 0.28454 0.10752 0.0
O802 O 0.53289 0.27621 0.08649 0.0
O803 O 0.49217 0.22566 0.11631 0.0
O804 O 0.50885 0.23884 0.0947 0.0
C805 C 0.52441 0.28865 0.09519 0.0
C806 C 0.50105 0.224 0.10114 0.0
O807 O 0.4867 0.26739 0.14206 0.0
C808 C 0.23677 0.80896 0.87108 0.0
C809 C 0.22911 0.79081 0.87244 0.0
C810 C 0.24178 0.8198 0.88701 0.0
C811 C 0.239 0.81236 0.90477 0.0
C812 C 0.231 0.79416 0.90622 0.0
C813 C 0.2262 0.78362 0.89007 0.0
C814 C 0.25041 0.83906 0.88486 0.0
C815 C 0.22772 0.78572 0.92487 0.0
C816 C 0.26924 0.82959 0.94677 0.0
C817 C 0.2567 0.84037 0.95629 0.0
C818 C 0.26387 0.82101 0.92969 0.0
C819 C 0.24544 0.82311 0.92188 0.0
C820 C 0.23295 0.83458 0.931 0.0
C821 C 0.23876 0.84315 0.94807 0.0
C822 C 0.27773 0.80909 0.92036 0.0
C823 C 0.21319 0.83718 0.92311 0.0
H824 H 0.23923 0.81457 0.85753 0.0
H825 H 0.22 0.76973 0.89125 0.0
H826 H 0.24234 0.84921 0.89254 0.0
H827 H 0.26511 0.83985 0.89089 0.0
H828 H 0.25072 0.84318 0.87012 0.0
H829 H 0.22061 0.77173 0.92363 0.0
H830 H 0.24144 0.78464 0.93269 0.0
H831 H 0.21891 0.79473 0.93313 0.0
H832 H 0.28321 0.82749 0.95288 0.0
H833 H 0.22895 0.85139 0.95532 0.0
H834 H 0.27924 0.81329 0.90577 0.0
H835 H 0.27232 0.79445 0.92011 0.0
H836 H 0.29194 0.80993 0.92755 0.0
H837 H 0.21362 0.8415 0.90846 0.0
H838 H 0.20574 0.84764 0.93107 0.0
H839 H 0.20483 0.82384 0.92328 0.0
C840 C 0.0442 0.53032 0.36918 0.0
C841 C 0.04718 0.52169 0.38626 0.0
C842 C 0.05644 0.52788 0.35461 0.0
C843 C 0.07205 0.51648 0.35711 0.0
C844 C 0.07458 0.50702 0.374 0.0
C845 C 0.06218 0.50977 0.38836 0.0
C846 C 0.05325 0.53833 0.3369 0.0
C847 C 0.09092 0.49462 0.37722 0.0
C848 C 0.09997 0.50331 0.31508 0.0
C849 C 0.11527 0.51639 0.31647 0.0
C850 C 0.08579 0.50304 0.32823 0.0
C851 C 0.08689 0.51621 0.34301 0.0
C852 C 0.1023 0.52939 0.34443 0.0
C853 C 0.11625 0.52928 0.33124 0.0
C854 C 0.06964 0.48871 0.32631 0.0
C855 C 0.10405 0.54375 0.35988 0.0
H856 H 0.03276 0.53967 0.36745 0.0
H857 H 0.06442 0.50282 0.4014 0.0
H858 H 0.0647 0.54921 0.33576 0.0
H859 H 0.0538 0.52893 0.3247 0.0
H860 H 0.03945 0.54502 0.33635 0.0
H861 H 0.08974 0.48669 0.3902 0.0
H862 H 0.09172 0.48474 0.36543 0.0
H863 H 0.10439 0.50311 0.37812 0.0
H864 H 0.09908 0.4933 0.30375 0.0
H865 H 0.12794 0.53949 0.33248 0.0
H866 H 0.05601 0.4956 0.32478 0.0
H867 H 0.0691 0.48032 0.33903 0.0
H868 H 0.07092 0.47929 0.3142 0.0
H869 H 0.09141 0.55225 0.35949 0.0
H870 H 0.11686 0.5531 0.35897 0.0
H871 H 0.10468 0.53687 0.3735 0.0
C872 C 0.78887 0.71621 0.8806 0.0
C873 C 0.79439 0.73482 0.88436 0.0
C874 C 0.78621 0.70364 0.89506 0.0
C875 C 0.78908 0.70983 0.91371 0.0
C876 C 0.79566 0.72833 0.91751 0.0
C877 C 0.79827 0.74054 0.90283 0.0
C878 C 0.77935 0.68401 0.89039 0.0
C879 C 0.79901 0.73554 0.93716 0.0
C880 C 0.75971 0.69006 0.95198 0.0
C881 C 0.77298 0.68028 0.96244 0.0
C882 C 0.76452 0.69884 0.93556 0.0
C883 C 0.78311 0.69787 0.9293 0.0
C884 C 0.79625 0.68701 0.93909 0.0
C885 C 0.79102 0.67831 0.95556 0.0
C886 C 0.74997 0.7101 0.92552 0.0
C887 C 0.81614 0.68545 0.93276 0.0
H888 H 0.78578 0.71165 0.86639 0.0
H889 H 0.80294 0.75478 0.90585 0.0
H890 H 0.78749 0.6741 0.89872 0.0
H891 H 0.76429 0.68204 0.89385 0.0
H892 H 0.78055 0.68061 0.87545 0.0
H893 H 0.80562 0.74976 0.93776 0.0
H894 H 0.78532 0.73569 0.94408 0.0
H895 H 0.80826 0.72631 0.94517 0.0
H896 H 0.74563 0.69146 0.95701 0.0
H897 H 0.80138 0.67078 0.96351 0.0
H898 H 0.74888 0.70627 0.91058 0.0
H899 H 0.75442 0.72499 0.92662 0.0
H900 H 0.73573 0.70819 0.93128 0.0
H901 H 0.81603 0.68258 0.91762 0.0
H902 H 0.82366 0.67438 0.9401 0.0
H903 H 0.82425 0.69877 0.93545 0.0
C904 C 0.96174 0.98128 0.38868 0.0
C905 C 0.97734 0.99286 0.39474 0.0
C906 C 0.95159 0.98449 0.37195 0.0
C907 C 0.95722 0.99955 0.36084 0.0
C908 C 0.9725 0.01168 0.36717 0.0
C909 C 0.98232 0.00823 0.38403 0.0
C910 C 0.93537 0.97124 0.36578 0.0
C911 C 0.97902 0.02788 0.35576 0.0
C912 C 0.94875 0.99417 0.30872 0.0
C913 C 0.93339 1.00539 0.30507 0.0
C914 C 0.95646 0.99214 0.32674 0.0
C915 C 0.94858 1.0014 0.34173 0.0
C916 C 0.93283 0.01246 0.33831 0.0
C917 C 0.92546 0.01439 0.32001 0.0
C918 C 0.9733 0.98027 0.32967 0.0
C919 C 0.92391 0.02238 0.35397 0.0
H920 H 0.95785 0.96925 0.39665 0.0
H921 H 0.99408 0.01749 0.38871 0.0
H922 H 0.9228 0.97894 0.36138 0.0
H923 H 0.93942 0.96301 0.35363 0.0
H924 H 0.93134 0.96156 0.37689 0.0
H925 H 0.99004 0.03688 0.36329 0.0
H926 H 0.98494 0.02274 0.34279 0.0
H927 H 0.9669 0.03634 0.35175 0.0
H928 H 0.9551 0.98711 0.29739 0.0
H929 H 0.9136 0.02307 0.31741 0.0
H930 H 0.96995 0.96909 0.33951 0.0
H931 H 0.98548 0.98875 0.33588 0.0
H932 H 0.97768 0.97388 0.31656 0.0
H933 H 0.9196 0.01237 0.36465 0.0
H934 H 0.91132 0.02987 0.34915 0.0
H935 H 0.93439 0.03246 0.36075 0.0
C936 C 0.2213 0.21968 0.63584 0.0
C937 C 0.23368 0.23472 0.64126 0.0
C938 C 0.22543 0.20765 0.62127 0.0
C939 C 0.24244 0.21058 0.61191 0.0
C940 C 0.25515 0.22552 0.61748 0.0
C941 C 0.2506 0.23743 0.63201 0.0
C942 C 0.21148 0.19192 0.61574 0.0
C943 C 0.27347 0.22911 0.60791 0.0
C944 C 0.26199 0.17163 0.58345 0.0
C945 C 0.257 0.17674 0.56528 0.0
C946 C 0.25705 0.1823 0.59879 0.0
C947 C 0.24673 0.19838 0.59592 0.0
C948 C 0.24109 0.20324 0.57766 0.0
C949 C 0.24638 0.19244 0.56259 0.0
C950 C 0.26342 0.17669 0.61802 0.0
C951 C 0.2299 0.22015 0.57398 0.0
H952 H 0.20836 0.21722 0.64308 0.0
H953 H 0.26016 0.2491 0.63587 0.0
H954 H 0.20644 0.19343 0.60111 0.0
H955 H 0.21848 0.17856 0.61668 0.0
H956 H 0.19902 0.19134 0.62458 0.0
H957 H 0.28218 0.24084 0.61437 0.0
H958 H 0.2819 0.21658 0.60831 0.0
H959 H 0.27043 0.23224 0.59313 0.0
H960 H 0.27028 0.15959 0.58569 0.0
H961 H 0.24251 0.19661 0.54867 0.0
H962 H 0.25115 0.17547 0.62703 0.0
H963 H 0.27343 0.18751 0.62429 0.0
H964 H 0.27051 0.16333 0.618 0.0
H965 H 0.21697 0.21968 0.58213 0.0
H966 H 0.22566 0.22143 0.55908 0.0
H967 H 0.23849 0.23276 0.57848 0.0
C968 C 0.48335 0.55276 0.63541 0.0
C969 C 0.4825 0.54014 0.62043 0.0
C970 C 0.47255 0.54966 0.65101 0.0
C971 C 0.46054 0.53351 0.65175 0.0
C972 C 0.45976 0.52058 0.6368 0.0
C973 C 0.47077 0.52403 0.62134 0.0
C974 C 0.47393 0.56375 0.66669 0.0
C975 C 0.44713 0.50321 0.63704 0.0
C976 C 0.44605 0.52016 0.70008 0.0
C977 C 0.42839 0.52808 0.70106 0.0
C978 C 0.45632 0.52116 0.68387 0.0
C979 C 0.44881 0.53033 0.66822 0.0
C980 C 0.43064 0.53767 0.66886 0.0
C981 C 0.42067 0.53647 0.68525 0.0
C982 C 0.4756 0.51311 0.68379 0.0
C983 C 0.42206 0.54749 0.65247 0.0
H984 H 0.49259 0.5651 0.63498 0.0
H985 H 0.46988 0.51429 0.60976 0.0
H986 H 0.45982 0.56925 0.66883 0.0
H987 H 0.47855 0.55711 0.67976 0.0
H988 H 0.48404 0.57551 0.66403 0.0
H989 H 0.44842 0.49435 0.62452 0.0
H990 H 0.45068 0.49507 0.64949 0.0
H991 H 0.43216 0.5069 0.63788 0.0
H992 H 0.45221 0.5137 0.7122 0.0
H993 H 0.40704 0.54262 0.68585 0.0
H994 H 0.48663 0.52442 0.6829 0.0
H995 H 0.47665 0.50395 0.67147 0.0
H996 H 0.47874 0.50506 0.69644 0.0
H997 H 0.43056 0.56042 0.65001 0.0
H998 H 0.40722 0.55107 0.6546 0.0
H999 H 0.42234 0.53874 0.63976 0.0
C1000 C 0.77206 0.28972 0.62936 0.0
C1001 C 0.78936 0.28817 0.63932 0.0
C1002 C 0.77021 0.30218 0.61478 0.0
C1003 C 0.78603 0.31354 0.61001 0.0
C1004 C 0.80342 0.31247 0.62033 0.0
C1005 C 0.80488 0.29978 0.63485 0.0
C1006 C 0.75138 0.30291 0.60421 0.0
C1007 C 0.82058 0.32439 0.61572 0.0
C1008 C 0.78321 0.32929 0.56013 0.0
C1009 C 0.77561 0.34675 0.56191 0.0
C1010 C 0.78763 0.31876 0.57576 0.0
C1011 C 0.7844 0.32582 0.59366 0.0
C1012 C 0.77778 0.34387 0.59563 0.0
C1013 C 0.77343 0.35411 0.57973 0.0
C1014 C 0.7947 0.2996 0.57301 0.0
C1015 C 0.77429 0.35198 0.61447 0.0
H1016 H 0.75987 0.28111 0.63296 0.0
H1017 H 0.81833 0.29862 0.64239 0.0
H1018 H 0.74644 0.31721 0.60444 0.0
H1019 H 0.75298 0.29891 0.5895 0.0
H1020 H 0.74032 0.29356 0.61001 0.0
H1021 H 0.83263 0.32287 0.62586 0.0
H1022 H 0.82514 0.32059 0.60173 0.0
H1023 H 0.81704 0.33915 0.61538 0.0
H1024 H 0.78494 0.32344 0.54646 0.0
H1025 H 0.76761 0.3676 0.58126 0.0
H1026 H 0.78366 0.28916 0.57691 0.0
H1027 H 0.80744 0.29765 0.58212 0.0
H1028 H 0.79824 0.29685 0.55843 0.0
H1029 H 0.76193 0.34454 0.62033 0.0
H1030 H 0.77143 0.36691 0.61383 0.0
H1031 H 0.78665 0.3502 0.62414 0.0
C1032 C 0.55743 1.00326 0.64486 0.0
C1033 C 0.55084 0.98502 0.64072 0.0
C1034 C 0.57012 0.00737 0.66006 0.0
C1035 C 0.57648 0.99289 0.6714 0.0
C1036 C 0.56923 0.97458 0.66778 0.0
C1037 C 0.55649 0.97088 0.65256 0.0
C1038 C 0.57742 0.0271 0.66347 0.0
C1039 C 0.57558 0.95872 0.67948 0.0
C1040 C 0.62579 0.99884 0.69433 0.0
C1041 C 0.62204 1.00297 0.71284 0.0
C1042 C 0.61111 0.99558 0.68083 0.0
C1043 C 0.59207 0.99657 0.6858 0.0
C1044 C 0.5881 1.00079 0.70442 0.0
C1045 C 0.60312 1.00387 0.71773 0.0
C1046 C 0.61603 0.99097 0.66121 0.0
C1047 C 0.56799 1.0021 0.71024 0.0
H1048 H 0.55329 0.01429 0.63578 0.0
H1049 H 0.55119 0.95679 0.64974 0.0
H1050 H 0.57627 0.03107 0.67825 0.0
H1051 H 0.59262 0.02842 0.66034 0.0
H1052 H 0.56961 0.03698 0.65475 0.0
H1053 H 0.56746 0.94557 0.67584 0.0
H1054 H 0.5908 0.95667 0.67754 0.0
H1055 H 0.57401 0.96189 0.69438 0.0
H1056 H 0.6403 0.99801 0.69032 0.0
H1057 H 0.60003 1.0071 0.73195 0.0
H1058 H 0.61019 1.00126 0.65156 0.0
H1059 H 0.60954 0.97723 0.65696 0.0
H1060 H 0.63155 0.99074 0.65958 0.0
H1061 H 0.56079 0.0127 0.70196 0.0
H1062 H 0.56725 1.00572 0.72517 0.0
H1063 H 0.56001 0.98872 0.70746 0.0
C1064 C 0.90909 0.26325 0.8039 0.0
C1065 C 0.90345 0.24632 0.79516 0.0
C1066 C 0.92352 0.26436 0.81792 0.0
C1067 C 0.9326 0.24817 0.82336 0.0
C1068 C 0.92717 0.23108 0.81443 0.0
C1069 C 0.91267 0.23036 0.80047 0.0
C1070 C 0.92889 0.28286 0.82706 0.0
C1071 C 0.93647 0.21349 0.81984 0.0
C1072 C 0.98018 0.25355 0.85022 0.0
C1073 C 0.97487 0.25103 0.86856 0.0
C1074 C 0.96662 0.25253 0.83536 0.0
C1075 C 0.94727 0.24901 0.83888 0.0
C1076 C 0.94183 0.24644 0.85732 0.0
C1077 C 0.95565 0.24743 0.87188 0.0
C1078 C 0.973 0.25526 0.81588 0.0
C1079 C 0.92135 0.24275 0.8617 0.0
H1080 H 0.9023 0.27571 0.79969 0.0
H1081 H 0.90829 0.21718 0.79396 0.0
H1082 H 0.92628 0.28227 0.84208 0.0
H1083 H 0.94422 0.28623 0.82576 0.0
H1084 H 0.9208 0.29423 0.82094 0.0
H1085 H 0.93119 0.20147 0.81104 0.0
H1086 H 0.95202 0.21525 0.81874 0.0
H1087 H 0.93376 0.21035 0.8345 0.0
H1088 H 0.99496 0.25629 0.84745 0.0
H1089 H 0.95131 0.24551 0.88595 0.0
H1090 H 0.96607 0.26724 0.80962 0.0
H1091 H 0.96865 0.24293 0.80715 0.0
H1092 H 0.98858 0.25766 0.81542 0.0
H1093 H 0.91284 0.25437 0.85688 0.0
H1094 H 0.91945 0.24095 0.87676 0.0
H1095 H 0.91557 0.23009 0.85422 0.0
C1096 C 0.50545 0.88777 0.48218 0.0
C1097 C 0.49106 0.89932 0.47628 0.0
C1098 C 0.50901 0.87156 0.47224 0.0
C1099 C 0.49804 0.86677 0.45586 0.0
C1100 C 0.48397 0.87869 0.44943 0.0
C1101 C 0.48059 0.89473 0.45974 0.0
C1102 C 0.52412 0.85923 0.47961 0.0
C1103 C 0.472 0.87416 0.43201 0.0
C1104 C 0.5158 0.82907 0.42438 0.0
C1105 C 0.50539 0.81336 0.43014 0.0
C1106 C 0.51333 0.84664 0.43232 0.0
C1107 C 0.50019 0.84855 0.4464 0.0
C1108 C 0.48934 0.83284 0.45194 0.0
C1109 C 0.49203 0.81553 0.44374 0.0
C1110 C 0.52503 0.86309 0.42592 0.0
C1111 C 0.47518 0.83421 0.46689 0.0
H1112 H 0.51388 0.89132 0.49472 0.0
H1113 H 0.46929 0.90338 0.45511 0.0
H1114 H 0.51752 0.84575 0.48361 0.0
H1115 H 0.53418 0.85637 0.4687 0.0
H1116 H 0.53218 0.86543 0.49189 0.0
H1117 H 0.46298 0.88568 0.42789 0.0
H1118 H 0.48111 0.87092 0.4204 0.0
H1119 H 0.4627 0.8617 0.43422 0.0
H1120 H 0.52615 0.82761 0.4139 0.0
H1121 H 0.48381 0.80358 0.44832 0.0
H1122 H 0.53448 0.86866 0.43754 0.0
H1123 H 0.5157 0.87429 0.42162 0.0
H1124 H 0.53385 0.85953 0.41416 0.0
H1125 H 0.48252 0.839 0.48009 0.0
H1126 H 0.46751 0.82078 0.46928 0.0
H1127 H 0.46466 0.84454 0.4631 0.0
C1128 C 0.14199 0.31724 0.80798 0.0
C1129 C 0.14318 0.3075 0.79114 0.0
C1130 C 0.12828 0.31219 0.82069 0.0
C1131 C 0.11543 0.29696 0.81659 0.0
C1132 C 0.11622 0.28736 0.79944 0.0
C1133 C 0.13006 0.29273 0.78693 0.0
C1134 C 0.12801 0.32277 0.83884 0.0
C1135 C 0.10278 0.27106 0.79451 0.0
C1136 C 0.09637 0.27112 0.85773 0.0
C1137 C 0.07818 0.27786 0.85896 0.0
C1138 C 0.10845 0.27708 0.84391 0.0
C1139 C 0.1023 0.29018 0.8309 0.0
C1140 C 0.08392 0.29699 0.83193 0.0
C1141 C 0.07206 0.29074 0.84595 0.0
C1142 C 0.12791 0.26942 0.84335 0.0
C1143 C 0.07686 0.31097 0.81831 0.0
H1144 H 0.15219 0.32849 0.81152 0.0
H1145 H 0.13067 0.28529 0.77387 0.0
H1146 H 0.11354 0.3273 0.84119 0.0
H1147 H 0.13198 0.31363 0.85043 0.0
H1148 H 0.13794 0.33513 0.83933 0.0
H1149 H 0.10432 0.26589 0.78013 0.0
H1150 H 0.10544 0.25962 0.80419 0.0
H1151 H 0.08793 0.27489 0.79603 0.0
H1152 H 0.10127 0.26112 0.86765 0.0
H1153 H 0.05803 0.296 0.84675 0.0
H1154 H 0.13889 0.28082 0.84518 0.0
H1155 H 0.12977 0.26281 0.82964 0.0
H1156 H 0.13042 0.25907 0.85427 0.0
H1157 H 0.08609 0.32379 0.81942 0.0
H1158 H 0.06207 0.31459 0.82068 0.0
H1159 H 0.07756 0.30551 0.80395 0.0
C1160 C 0.55884 0.64575 0.46996 0.0
C1161 C 0.54605 0.63034 0.46881 0.0
C1162 C 0.55522 0.66195 0.46024 0.0
C1163 C 0.5384 0.66281 0.44898 0.0
C1164 C 0.52534 0.64736 0.44786 0.0
C1165 C 0.52929 0.63134 0.45783 0.0
C1166 C 0.56945 0.67815 0.46198 0.0
C1167 C 0.50732 0.64769 0.43595 0.0
C1168 C 0.52376 0.71133 0.43739 0.0
C1169 C 0.53161 0.71401 0.42007 0.0
C1170 C 0.52521 0.69448 0.44664 0.0
C1171 C 0.53469 0.67991 0.43838 0.0
C1172 C 0.54187 0.68223 0.42051 0.0
C1173 C 0.54029 0.69926 0.4116 0.0
C1174 C 0.51736 0.6926 0.46566 0.0
C1175 C 0.55194 0.66699 0.41114 0.0
H1176 H 0.57168 0.6452 0.47862 0.0
H1177 H 0.51943 0.61943 0.45673 0.0
H1178 H 0.57478 0.68156 0.44817 0.0
H1179 H 0.56258 0.69053 0.46722 0.0
H1180 H 0.58171 0.67535 0.47148 0.0
H1181 H 0.49847 0.63468 0.4368 0.0
H1182 H 0.49888 0.65942 0.44023 0.0
H1183 H 0.51075 0.64986 0.42127 0.0
H1184 H 0.51708 0.72264 0.44408 0.0
H1185 H 0.54635 0.70117 0.39821 0.0
H1186 H 0.52916 0.69146 0.47613 0.0
H1187 H 0.50819 0.6798 0.46632 0.0
H1188 H 0.50902 0.70458 0.46949 0.0
H1189 H 0.56539 0.66458 0.41899 0.0
H1190 H 0.55522 0.67036 0.39664 0.0
H1191 H 0.54319 0.65387 0.41107 0.0
C1192 C 0.9003 0.76368 0.72115 0.0
C1193 C 0.89551 0.78065 0.72887 0.0
C1194 C 0.91319 0.76289 0.70695 0.0
C1195 C 0.92157 0.77946 0.7002 0.0
C1196 C 0.91694 0.79664 0.70801 0.0
C1197 C 0.90395 0.79704 0.72221 0.0
C1198 C 0.91758 0.74427 0.69894 0.0
C1199 C 0.92559 0.81462 0.70124 0.0
C1200 C 0.96579 0.77434 0.67252 0.0
C1201 C 0.95817 0.77383 0.65424 0.0
C1202 C 0.95417 0.77676 0.68763 0.0
C1203 C 0.93447 0.77872 0.68439 0.0
C1204 C 0.92686 0.77887 0.66596 0.0
C1205 C 0.93877 0.77645 0.65116 0.0
C1206 C 0.96285 0.77659 0.70707 0.0
C1207 C 0.90598 0.78097 0.66185 0.0
H1208 H 0.89366 0.75096 0.72598 0.0
H1209 H 0.90054 0.8102 0.72823 0.0
H1210 H 0.91307 0.74347 0.68404 0.0
H1211 H 0.93306 0.74247 0.6999 0.0
H1212 H 0.91039 0.73265 0.70614 0.0
H1213 H 0.92103 0.82677 0.70916 0.0
H1214 H 0.94125 0.81443 0.7024 0.0
H1215 H 0.92153 0.81634 0.68639 0.0
H1216 H 0.98075 0.77235 0.67506 0.0
H1217 H 0.93271 0.77619 0.63711 0.0
H1218 H 0.95729 0.76424 0.71436 0.0
H1219 H 0.95888 0.78894 0.715 0.0
H1220 H 0.97853 0.77633 0.70725 0.0
H1221 H 0.8978 0.76896 0.66734 0.0
H1222 H 0.90246 0.78188 0.64676 0.0
H1223 H 0.90125 0.79355 0.66886 0.0
C1224 C 0.0322 0.88143 0.5379 0.0
C1225 C 0.04384 0.89558 0.54649 0.0
C1226 C 0.0283 0.86466 0.54689 0.0
C1227 C 0.03627 0.86186 0.56491 0.0
C1228 C 0.04749 0.8763 0.57391 0.0
C1229 C 0.05109 0.89296 0.56463 0.0
C1230 C 0.01621 0.84966 0.53679 0.0
C1231 C 0.05624 0.87393 0.5931 0.0
C1232 C 0.01639 0.82101 0.59209 0.0
C1233 C 0.02896 0.80725 0.58794 0.0
C1234 C 0.01875 0.83897 0.58501 0.0
C1235 C 0.03411 0.84333 0.57365 0.0
C1236 C 0.04722 0.8297 0.57003 0.0
C1237 C 0.04446 0.81189 0.57715 0.0
C1238 C 1.00444 0.8531 0.58918 0.0
C1239 C 0.06393 0.83378 0.55819 0.0
H1240 H 0.02666 0.88318 0.52385 0.0
H1241 H 0.05978 0.9039 0.57157 0.0
H1242 H 0.02496 0.83775 0.53378 0.0
H1243 H 1.0047 0.84458 0.54562 0.0
H1244 H 0.00982 0.85451 0.52352 0.0
H1245 H 0.06345 0.8869 0.59873 0.0
H1246 H 0.04527 0.86929 0.60274 0.0
H1247 H 0.06676 0.86306 0.59275 0.0
H1248 H 1.00433 0.81758 0.60033 0.0
H1249 H 0.05436 0.80146 0.57395 0.0
H1250 H 0.99668 0.85674 0.57616 0.0
H1251 H 0.01169 0.86598 0.5949 0.0
H1252 H 0.99402 0.84796 0.59918 0.0
H1253 H 0.05886 0.8371 0.54393 0.0
H1254 H 0.07332 0.82195 0.5574 0.0
H1255 H 0.0724 0.84603 0.56381 0.0
C1256 C 0.13119 0.74351 0.70479 0.0
C1257 C 0.13256 0.72578 0.71222 0.0
C1258 C 0.11644 0.74749 0.69199 0.0
C1259 C 0.10272 0.73342 0.68641 0.0
C1260 C 0.10374 0.71564 0.69421 0.0
C1261 C 0.11862 0.71204 0.70699 0.0
C1262 C 0.11583 0.76665 0.6841 0.0
C1263 C 0.08948 0.7002 0.6886 0.0
C1264 C 0.05645 0.746 0.66158 0.0
C1265 C 0.06028 0.74269 0.64294 0.0
C1266 C 0.07014 0.74321 0.67589 0.0
C1267 C 0.08808 0.73689 0.67149 0.0
C1268 C 0.09204 0.7336 0.65273 0.0
C1269 C 0.07817 0.73657 0.63874 0.0
C1270 C 0.06539 0.74694 0.69572 0.0
C1271 C 0.11094 0.72681 0.6474 0.0
H1272 H 0.14172 0.75429 0.70893 0.0
H1273 H 0.11965 0.69825 0.71246 0.0
H1274 H 0.11803 0.76602 0.669 0.0
H1275 H 0.10172 0.7723 0.68593 0.0
H1276 H 0.12681 0.77636 0.69073 0.0
H1277 H 0.09151 0.68754 0.6968 0.0
H1278 H 0.0749 0.70471 0.69035 0.0
H1279 H 0.09069 0.69667 0.67372 0.0
H1280 H 0.04273 0.75076 0.66503 0.0
H1281 H 0.08137 0.73392 0.62444 0.0
H1282 H 0.0758 0.75727 0.7022 0.0
H1283 H 0.06634 0.73408 0.7038 0.0
H1284 H 0.05097 0.75214 0.69683 0.0
H1285 H 0.12249 0.73671 0.6525 0.0
H1286 H 0.11185 0.72503 0.63217 0.0
H1287 H 0.11343 0.71336 0.65401 0.0
C1288 C 0.97183 0.63743 0.53448 0.0
C1289 C 0.98396 0.62264 0.53481 0.0
C1290 C 0.97605 0.65353 0.54521 0.0
C1291 C 0.99286 0.655 0.55661 0.0
C1292 C 1.00536 0.64029 0.55678 0.0
C1293 C 1.00079 0.6243 0.54586 0.0
C1294 C 0.96237 0.66892 0.5445 0.0
C1295 C 0.02341 0.64131 0.56874 0.0
C1296 C 1.00883 0.70397 0.57209 0.0
C1297 C 1.00107 0.70524 0.58959 0.0
C1298 C 1.00694 0.68748 0.5615 0.0
C1299 C 0.99702 0.67185 0.56855 0.0
C1300 C 0.98986 0.67281 0.58652 0.0
C1301 C 0.99195 0.68947 0.59681 0.0
C1302 C 0.01485 0.68705 0.54244 0.0
C1303 C 0.97926 0.65647 0.5946 0.0
H1304 H 0.95897 0.63641 0.52576 0.0
H1305 H 0.01016 0.6129 0.54635 0.0
H1306 H 0.95701 0.67139 0.55848 0.0
H1307 H 0.96972 0.68196 0.54027 0.0
H1308 H 0.9501 0.66577 0.53467 0.0
H1309 H 0.03197 0.62902 0.5668 0.0
H1310 H 0.03212 0.65389 0.56552 0.0
H1311 H 0.02 0.64238 0.58355 0.0
H1312 H 0.01586 0.71606 0.56634 0.0
H1313 H 0.98593 0.69028 0.61032 0.0
H1314 H 1.00307 0.68566 0.53181 0.0
H1315 H 0.02363 0.67488 0.54084 0.0
H1316 H 0.0236 0.69976 0.53964 0.0
H1317 H 0.96582 0.65347 0.5864 0.0
H1318 H 0.97589 0.65895 0.60928 0.0
H1319 H 0.98768 0.64397 0.5938 0.0
C1320 C 0.80624 0.90563 0.24293 0.0
C1321 C 0.80144 0.89937 0.22477 0.0
C1322 C 0.81947 0.92051 0.24646 0.0
C1323 C 0.8281 0.92946 0.23147 0.0
C1324 C 0.82291 0.92358 0.21309 0.0
C1325 C 0.80973 0.90861 0.20997 0.0
C1326 C 0.82459 0.92633 0.26627 0.0
C1327 C 0.83175 0.93272 0.19671 0.0
C1328 C 0.85407 0.97657 0.23915 0.0
C1329 C 0.87304 0.9717 0.24057 0.0
C1330 C 0.83926 0.96301 0.23631 0.0
C1331 C 0.84347 0.9441 0.23501 0.0
C1332 C 0.86255 0.9391 0.23672 0.0
C1333 C 0.87704 0.9529 0.2394 0.0
C1334 C 0.81912 0.96891 0.23443 0.0
C1335 C 0.86769 0.91911 0.23559 0.0
H1336 H 0.79972 0.89882 0.25446 0.0
H1337 H 0.80637 0.90378 0.19589 0.0
H1338 H 0.83971 0.92385 0.26952 0.0
H1339 H 0.82276 0.94135 0.26821 0.0
H1340 H 0.81586 0.91867 0.27631 0.0
H1341 H 0.82521 0.92745 0.18329 0.0
H1342 H 0.83034 0.9479 0.19751 0.0
H1343 H 0.84709 0.93022 0.19694 0.0
H1344 H 0.85079 0.99102 0.23999 0.0
H1345 H 0.89159 0.9489 0.24059 0.0
H1346 H 0.81042 0.96189 0.24488 0.0
H1347 H 0.81287 0.9647 0.22057 0.0
H1348 H 0.81814 0.9841 0.23619 0.0
H1349 H 0.86028 0.91098 0.24621 0.0
H1350 H 0.88316 0.91747 0.23767 0.0
H1351 H 0.86301 0.91309 0.22185 0.0
C1352 C 0.81101 0.13989 0.28411 0.0
C1353 C 0.79138 0.13674 0.28529 0.0
C1354 C 0.82276 0.12548 0.27973 0.0
C1355 C 0.81477 0.10737 0.27646 0.0
C1356 C 0.795 0.10402 0.27781 0.0
C1357 C 0.78355 0.11873 0.28214 0.0
C1358 C 0.84372 0.12975 0.27825 0.0
C1359 C 0.78592 0.08491 0.27452 0.0
C1360 C 0.84251 0.0759 0.24621 0.0
C1361 C 0.85242 0.06549 0.25935 0.0
C1362 C 0.82997 0.08924 0.25159 0.0
C1363 C 0.82703 0.09223 0.27063 0.0
C1364 C 0.83649 0.08138 0.28398 0.0
C1365 C 0.84914 0.0682 0.27819 0.0
C1366 C 0.82032 0.10055 0.23688 0.0
C1367 C 0.83359 0.084 0.3044 0.0
H1368 H 0.81719 0.15378 0.28626 0.0
H1369 H 0.76845 0.1161 0.28324 0.0
H1370 H 0.85188 0.12072 0.28757 0.0
H1371 H 0.84787 0.12685 0.2639 0.0
H1372 H 0.84782 0.1444 0.28185 0.0
H1373 H 0.77052 0.0844 0.27691 0.0
H1374 H 0.78796 0.0803 0.26007 0.0
H1375 H 0.79282 0.07491 0.28379 0.0
H1376 H 0.84488 0.07398 0.2316 0.0
H1377 H 0.85667 0.06023 0.28846 0.0
H1378 H 0.8249 0.11534 0.23878 0.0
H1379 H 0.80476 0.09949 0.2382 0.0
H1380 H 0.82356 0.09607 0.22264 0.0
H1381 H 0.839 0.09803 0.30897 0.0
H1382 H 0.84094 0.07366 0.31293 0.0
H1383 H 0.81828 0.08296 0.30709 0.0
C1384 C 0.37252 0.95757 0.96423 0.0
C1385 C 0.38554 0.96558 0.97757 0.0
C1386 C 0.3574 0.94573 0.96933 0.0
C1387 C 0.35513 0.9418 0.98827 0.0
C1388 C 0.3677 0.95047 1.00188 0.0
C1389 C 0.38276 0.96222 0.99638 0.0
C1390 C 0.34432 0.93683 0.95436 0.0
C1391 C 0.36575 0.94672 0.02222 0.0
C1392 C 0.30856 0.91783 1.0016 0.0
C1393 C 0.31336 0.89924 1.0022 0.0
C1394 C 0.32204 0.93192 0.9974 0.0
C1395 C 0.34074 0.92732 0.99361 0.0
C1396 C 0.34569 0.90863 0.99439 0.0
C1397 C 0.33202 0.89489 0.9987 0.0
C1398 C 0.31625 0.9517 0.99683 0.0
C1399 C 0.36543 0.90306 0.99039 0.0
H1400 H 0.3743 0.96036 0.9497 0.0
H1401 H 0.39279 0.96822 1.0068 0.0
H1402 H 0.34612 0.92169 0.95398 0.0
H1403 H 0.32936 0.93899 0.95739 0.0
H1404 H 0.34709 0.94238 0.94043 0.0
H1405 H 0.37537 0.95596 0.03114 0.0
H1406 H 0.35097 0.94849 0.02617 0.0
H1407 H 0.36909 0.93218 0.02505 0.0
H1408 H 0.29424 0.9214 1.00433 0.0
H1409 H 0.33599 0.88063 0.9991 0.0
H1410 H 0.31775 0.95714 0.98266 0.0
H1411 H 0.3257 0.96047 1.00633 0.0
H1412 H 0.30139 0.95311 1.00078 0.0
H1413 H 0.3688 0.90691 0.97605 0.0
H1414 H 0.36712 0.88798 0.99191 0.0
H1415 H 0.37595 0.91059 0.9999 0.0
C1416 C 0.21977 0.37667 0.26645 0.0
C1417 C 0.23694 0.37863 0.27694 0.0
C1418 C 0.20768 0.39147 0.26459 0.0
C1419 C 0.21295 0.40874 0.27323 0.0
C1420 C 0.22982 0.41053 0.28454 0.0
C1421 C 0.24155 0.39546 0.2863 0.0
C1422 C 0.18971 0.38886 0.25264 0.0
C1423 C 0.2361 0.4287 0.29389 0.0
C1424 C 0.19868 0.45269 0.24949 0.0
C1425 C 0.1848 0.45921 0.26094 0.0
C1426 C 0.20752 0.43613 0.25313 0.0
C1427 C 0.2023 0.42552 0.26855 0.0
C1428 C 0.18772 0.4315 0.27974 0.0
C1429 C 0.17918 0.44832 0.27586 0.0
C1430 C 0.22299 0.43036 0.24081 0.0
C1431 C 0.18156 0.42042 0.29613 0.0
H1432 H 0.21595 0.36363 0.2594 0.0
H1433 H 0.25484 0.39717 0.29431 0.0
H1434 H 0.17761 0.39447 0.25979 0.0
H1435 H 0.19125 0.39662 0.23961 0.0
H1436 H 0.18632 0.37408 0.249 0.0
H1437 H 0.24851 0.42736 0.30364 0.0
H1438 H 0.23996 0.43893 0.28323 0.0
H1439 H 0.22439 0.43432 0.30161 0.0
H1440 H 0.20311 0.46081 0.23783 0.0
H1441 H 0.16848 0.45315 0.28479 0.0
H1442 H 0.21968 0.4162 0.23515 0.0
H1443 H 0.23657 0.43004 0.24905 0.0
H1444 H 0.22499 0.43986 0.22905 0.0
H1445 H 0.17846 0.40575 0.29196 0.0
H1446 H 0.16882 0.4259 0.30231 0.0
H1447 H 0.1932 0.4207 0.30693 0.0
C1448 C 0.1567 0.05765 0.47376 0.0
C1449 C 0.14441 0.05149 0.48737 0.0
C1450 C 0.17219 0.07001 0.47818 0.0
C1451 C 0.17562 0.07637 0.49671 0.0
C1452 C 0.16384 0.06952 0.51067 0.0
C1453 C 0.14838 0.05721 0.50584 0.0
C1454 C 0.18438 0.0769 0.46285 0.0
C1455 C 0.16702 0.07588 0.5306 0.0
C1456 C 0.22272 0.10237 0.50969 0.0
C1457 C 0.21769 0.12087 0.50853 0.0
C1458 C 0.20919 0.08769 0.50607 0.0
C1459 C 0.19022 0.09158 0.50108 0.0
C1460 C 0.1851 0.1102 0.49992 0.0
C1461 C 0.19881 0.12453 0.50369 0.0
C1462 C 0.21519 0.06802 0.50755 0.0
C1463 C 0.16509 0.11503 0.49454 0.0
H1464 H 0.15401 0.05303 0.45951 0.0
H1465 H 0.13894 0.05267 0.51646 0.0
H1466 H 0.18238 0.09185 0.46078 0.0
H1467 H 0.19956 0.07535 0.46667 0.0
H1468 H 0.18091 0.06943 0.44951 0.0
H1469 H 0.15801 0.06778 0.54007 0.0
H1470 H 0.18207 0.07472 0.53517 0.0
H1471 H 0.16374 0.09066 0.53189 0.0
H1472 H 0.23721 0.09933 0.51345 0.0
H1473 H 0.19467 0.13871 0.50268 0.0
H1474 H 0.2127 0.06075 0.49399 0.0
H1475 H 0.20652 0.06048 0.51769 0.0
H1476 H 0.23037 0.06728 0.51193 0.0
H1477 H 0.16098 0.10922 0.48057 0.0
H1478 H 0.16336 0.13019 0.49438 0.0
H1479 H 0.15512 0.10879 0.50438 0.0
C1480 C 0.74168 0.12669 0.7621 0.0
C1481 C 0.74156 0.13868 0.747 0.0
C1482 C 0.72854 0.11163 0.76286 0.0
C1483 C 0.71494 0.10828 0.7481 0.0
C1484 C 0.71464 0.12032 0.73282 0.0
C1485 C 0.72793 0.13539 0.73247 0.0
C1486 C 0.72939 0.09913 0.77941 0.0
C1487 C 0.70039 0.1172 0.71681 0.0
C1488 C 0.69529 0.05856 0.74481 0.0
C1489 C 0.6785 0.05953 0.75433 0.0
C1490 C 0.70678 0.07448 0.74181 0.0
C1491 C 0.70145 0.09183 0.74859 0.0
C1492 C 0.68403 0.09306 0.75735 0.0
C1493 C 0.67275 0.0769 0.76008 0.0
C1494 C 0.72515 0.07256 0.73225 0.0
C1495 C 0.6778 0.11128 0.76477 0.0
H1496 H 0.75234 0.12886 0.77324 0.0
H1497 H 0.72755 0.14467 0.72084 0.0
H1498 H 0.71551 0.09836 0.78598 0.0
H1499 H 0.7324 0.08491 0.77487 0.0
H1500 H 0.74044 0.10395 0.79 0.0
H1501 H 0.70181 0.12798 0.70611 0.0
H1502 H 0.70219 0.10349 0.71022 0.0
H1503 H 0.68583 0.11709 0.72187 0.0
H1504 H 0.69991 0.04524 0.7403 0.0
H1505 H 0.6598 0.07781 0.76745 0.0
H1506 H 0.73722 0.07531 0.74238 0.0
H1507 H 0.7265 0.08287 0.72113 0.0
H1508 H 0.72631 0.05852 0.72612 0.0
H1509 H 0.68733 0.11596 0.77669 0.0
H1510 H 0.66306 0.11027 0.76945 0.0
H1511 H 0.67881 0.12205 0.75405 0.0
C1512 C 0.37951 0.04072 0.52929 0.0
C1513 C 0.39489 0.04881 0.53992 0.0
C1514 C 0.36329 0.05065 0.52503 0.0
C1515 C 0.36235 0.0691 0.53161 0.0
C1516 C 0.37807 0.07751 0.54182 0.0
C1517 C 0.39411 0.06733 0.54577 0.0
C1518 C 0.34691 0.04119 0.514 0.0
C1519 C 0.37773 0.09715 0.54909 0.0
C1520 C 0.32613 0.10225 0.51273 0.0
C1521 C 0.31284 0.10177 0.52662 0.0
C1522 C 0.34192 0.0911 0.51372 0.0
C1523 C 0.34457 0.07929 0.52899 0.0
C1524 C 0.3308 0.07822 0.54262 0.0
C1525 C 0.31512 0.08939 0.54123 0.0
C1526 C 0.35614 0.0925 0.49878 0.0
C1527 C 0.33303 0.06585 0.55915 0.0
H1528 H 0.37988 0.02641 0.52478 0.0
H1529 H 0.40605 0.07386 0.55363 0.0
H1530 H 0.33465 0.03923 0.52294 0.0
H1531 H 0.34239 0.04994 0.50229 0.0
H1532 H 0.3505 0.02748 0.50843 0.0
H1533 H 0.3914 0.10196 0.55608 0.0
H1534 H 0.37445 0.10663 0.53759 0.0
H1535 H 0.3664 0.09819 0.55914 0.0
H1536 H 0.3245 0.1117 0.50134 0.0
H1537 H 0.30494 0.08881 0.55201 0.0
H1538 H 0.35924 0.07853 0.49358 0.0
H1539 H 0.36964 0.09902 0.50463 0.0
H1540 H 0.35113 0.10085 0.48692 0.0
H1541 H 0.3353 0.05148 0.55454 0.0
H1542 H 0.32051 0.0657 0.5679 0.0
H1543 H 0.34568 0.07067 0.56781 0.0
C1544 C 0.63041 0.45503 0.51587 0.0
C1545 C 0.63327 0.47221 0.52506 0.0
C1546 C 0.6455 0.44346 0.51328 0.0
C1547 C 0.66395 0.44913 0.52012 0.0
C1548 C 0.66709 0.46682 0.52862 0.0
C1549 C 0.65174 0.47815 0.53096 0.0
C1550 C 0.64151 0.42478 0.50401 0.0
C1551 C 0.6865 0.47339 0.53618 0.0
C1552 C 0.6954 0.41066 0.5356 0.0
C1553 C 0.70755 0.40915 0.52086 0.0
C1554 C 0.68142 0.42375 0.53556 0.0
C1555 C 0.67936 0.4357 0.52036 0.0
C1556 C 0.69169 0.43445 0.50548 0.0
C1557 C 0.7057 0.42121 0.50593 0.0
C1558 C 0.6687 0.42463 0.55178 0.0
C1559 C 0.68991 0.44692 0.48901 0.0
H1560 H 0.61624 0.45046 0.51098 0.0
H1561 H 0.65408 0.49134 0.53819 0.0
H1562 H 0.6517 0.42254 0.49305 0.0
H1563 H 0.64334 0.41376 0.51436 0.0
H1564 H 0.62691 0.42325 0.49772 0.0
H1565 H 0.68705 0.48822 0.54043 0.0
H1566 H 0.69049 0.46511 0.54843 0.0
H1567 H 0.69723 0.47135 0.52571 0.0
H1568 H 0.69673 0.40152 0.54728 0.0
H1569 H 0.71501 0.42015 0.49448 0.0
H1570 H 0.65377 0.42159 0.54698 0.0
H1571 H 0.66957 0.43877 0.55798 0.0
H1572 H 0.67246 0.41468 0.56275 0.0
H1573 H 0.67576 0.4445 0.48195 0.0
H1574 H 0.7009 0.44461 0.47883 0.0
H1575 H 0.69106 0.46162 0.49366 0.0
C1576 C 0.71814 0.28504 0.39214 0.0
C1577 C 0.72562 0.2896 0.37503 0.0
C1578 C 0.72325 0.29552 0.40825 0.0
C1579 C 0.73607 0.31106 0.40727 0.0
C1580 C 0.74327 0.31605 0.38996 0.0
C1581 C 0.73804 0.30521 0.37407 0.0
C1582 C 0.71541 0.28958 0.42645 0.0
C1583 C 0.75684 0.33259 0.38828 0.0
C1584 C 0.73941 0.3442 0.44903 0.0
C1585 C 0.75513 0.33782 0.45913 0.0
C1586 C 0.73333 0.33603 0.43184 0.0
C1587 C 0.74311 0.32107 0.42463 0.0
C1588 C 0.75929 0.31497 0.43449 0.0
C1589 C 0.76512 0.32343 0.4515 0.0
C1590 C 0.71614 0.34306 0.42162 0.0
C1591 C 0.77014 0.29905 0.42737 0.0
H1592 H 0.70868 0.27291 0.39303 0.0
H1593 H 0.74366 0.30898 0.36086 0.0
H1594 H 0.7271 0.28535 0.43595 0.0
H1595 H 0.70871 0.3013 0.43321 0.0
H1596 H 0.70477 0.27784 0.42471 0.0
H1597 H 0.75997 0.33549 0.37364 0.0
H1598 H 0.75092 0.34504 0.39451 0.0
H1599 H 0.77033 0.33016 0.39605 0.0
H1600 H 0.7316 0.35531 0.45473 0.0
H1601 H 0.77734 0.31837 0.45903 0.0
H1602 H 0.70455 0.33219 0.42114 0.0
H1603 H 0.71941 0.34622 0.40709 0.0
H1604 H 0.71099 0.35567 0.4283 0.0
H1605 H 0.76082 0.28628 0.42657 0.0
H1606 H 0.78282 0.29641 0.43636 0.0
H1607 H 0.77475 0.30187 0.41317 0.0
C1608 C 0.53982 0.01138 0.87128 0.0
C1609 C 0.54578 0.0256 0.88396 0.0
C1610 C 0.55016 0.00771 0.85552 0.0
C1611 C 0.56689 0.01848 0.85233 0.0
C1612 C 0.57307 0.03271 0.86515 0.0
C1613 C 0.56244 0.03612 0.88071 0.0
C1614 C 0.54308 0.99243 0.8422 0.0
C1615 C 0.59079 0.04456 0.8623 0.0
C1616 C 0.60437 1.0023 0.82023 0.0
C1617 C 0.60105 0.01309 0.80453 0.0
C1618 C 0.59292 1.00334 0.83563 0.0
C1619 C 0.57771 0.0154 0.83532 0.0
C1620 C 0.57373 0.02561 0.81916 0.0
C1621 C 0.58543 0.02435 0.80401 0.0
C1622 C 0.59764 0.99219 0.85256 0.0
C1623 C 0.55759 0.03852 0.81815 0.0
H1624 H 0.52712 1.00301 0.87373 0.0
H1625 H 0.56703 0.04735 0.89018 0.0
H1626 H 0.53997 0.99823 0.82833 0.0
H1627 H 0.55418 0.98229 0.84058 0.0
H1628 H 0.53007 0.98504 0.84686 0.0
H1629 H 0.59404 0.05464 0.87387 0.0
H1630 H 0.60305 0.03572 0.86096 0.0
H1631 H 0.58917 0.0523 0.84923 0.0
H1632 H 0.61638 0.99355 0.82081 0.0
H1633 H 0.58263 0.03267 0.79193 0.0
H1634 H 0.58482 0.98444 0.8571 0.0
H1635 H 0.60271 1.00164 0.86413 0.0
H1636 H 0.60875 0.98224 0.85003 0.0
H1637 H 0.54427 0.0312 0.82205 0.0
H1638 H 0.55539 0.0443 0.8041 0.0
H1639 H 0.56052 0.05016 0.82818 0.0
C1640 C 0.29672 0.23867 0.40222 0.0
C1641 C 0.29154 0.23321 0.38392 0.0
C1642 C 0.294 0.22661 0.41702 0.0
C1643 C 0.28596 0.20855 0.41349 0.0
C1644 C 0.28172 0.20257 0.39496 0.0
C1645 C 0.28452 0.21498 0.38039 0.0
C1646 C 0.29883 0.23357 0.43654 0.0
C1647 C 0.27327 0.18341 0.39057 0.0
C1648 C 0.2878 0.17647 0.45492 0.0
C1649 C 0.27033 0.17943 0.46268 0.0
C1650 C 0.2928 0.18509 0.43834 0.0
C1651 C 0.28005 0.19693 0.42935 0.0
C1652 C 0.26199 0.19903 0.43654 0.0
C1653 C 0.25737 0.19027 0.45303 0.0
C1654 C 0.3121 0.18231 0.43099 0.0
C1655 C 0.24786 0.2114 0.42738 0.0
H1656 H 0.30253 0.25259 0.40505 0.0
H1657 H 0.28039 0.21064 0.36631 0.0
H1658 H 0.28564 0.23464 0.44416 0.0
H1659 H 0.30776 0.2237 0.44406 0.0
H1660 H 0.30641 0.24736 0.43685 0.0
H1661 H 0.27336 0.17997 0.37554 0.0
H1662 H 0.28112 0.17291 0.39839 0.0
H1663 H 0.25842 0.18243 0.39488 0.0
H1664 H 0.29792 0.16812 0.46222 0.0
H1665 H 0.24373 0.19249 0.45873 0.0
H1666 H 0.32111 0.19516 0.43325 0.0
H1667 H 0.31101 0.17941 0.41586 0.0
H1668 H 0.31925 0.17079 0.43796 0.0
H1669 H 0.25343 0.22598 0.42834 0.0
H1670 H 0.23394 0.21046 0.4339 0.0
H1671 H 0.24568 0.20772 0.41246 0.0
C1672 C 0.46291 0.48224 0.88691 0.0
C1673 C 0.47935 0.49296 0.8923 0.0
C1674 C 0.45286 0.48534 0.8701 0.0
C1675 C 0.45945 0.49939 0.85822 0.0
C1676 C 0.47568 0.51062 0.86381 0.0
C1677 C 0.48537 0.50732 0.88076 0.0
C1678 C 0.43562 0.47306 0.86472 0.0
C1679 C 0.48322 0.52573 0.85156 0.0
C1680 C 0.44941 0.49296 0.80636 0.0
C1681 C 0.43507 0.50536 0.80267 0.0
C1682 C 0.45721 0.49079 0.82433 0.0
C1683 C 0.45052 0.50117 0.83922 0.0
C1684 C 0.43572 0.51338 0.83578 0.0
C1685 C 0.4282 0.51537 0.81755 0.0
C1686 C 0.47296 0.47762 0.8273 0.0
C1687 C 0.42807 0.52456 0.85132 0.0
H1688 H 0.4582 0.47097 0.89553 0.0
H1689 H 0.49782 0.51592 0.8849 0.0
H1690 H 0.42362 0.48153 0.86033 0.0
H1691 H 0.43871 0.46409 0.85275 0.0
H1692 H 0.43118 0.46409 0.87625 0.0
H1693 H 0.49516 0.53409 0.85844 0.0
H1694 H 0.4882 0.51954 0.83862 0.0
H1695 H 0.47182 0.53508 0.84754 0.0
H1696 H 0.45487 0.48507 0.79508 0.0
H1697 H 0.41715 0.52498 0.81493 0.0
H1698 H 0.469 0.46716 0.83769 0.0
H1699 H 0.48595 0.48532 0.83286 0.0
H1700 H 0.47633 0.47031 0.81432 0.0
H1701 H 0.42341 0.51529 0.8625 0.0
H1702 H 0.41596 0.53276 0.84655 0.0
H1703 H 0.43941 0.53416 0.85743 0.0
C1704 C 0.71839 0.72283 0.13274 0.0
C1705 C 0.73213 0.73546 0.1408 0.0
C1706 C 0.72255 0.71114 0.11791 0.0
C1707 C 0.7409 0.7121 0.11084 0.0
C1708 C 0.75484 0.7248 0.11889 0.0
C1709 C 0.75031 0.73629 0.13375 0.0
C1710 C 0.70727 0.69784 0.10971 0.0
C1711 C 0.77458 0.72628 0.11177 0.0
C1712 C 0.75841 0.67198 0.08257 0.0
C1713 C 0.75636 0.67847 0.06442 0.0
C1714 C 0.75303 0.68257 0.09778 0.0
C1715 C 0.74546 0.7001 0.0948 0.0
C1716 C 0.74285 0.70648 0.07647 0.0
C1717 C 0.74831 0.6956 0.06154 0.0
C1718 C 0.75594 0.67521 0.11709 0.0
C1719 C 0.73481 0.72506 0.07265 0.0
H1720 H 0.70422 0.72224 0.13787 0.0
H1721 H 0.76111 0.74578 0.14002 0.0
H1722 H 0.70438 0.70099 0.0949 0.0
H1723 H 0.71208 0.68349 0.11027 0.0
H1724 H 0.69385 0.69846 0.11706 0.0
H1725 H 0.78383 0.73679 0.11957 0.0
H1726 H 0.78118 0.71271 0.11277 0.0
H1727 H 0.77396 0.73002 0.09692 0.0
H1728 H 0.76464 0.65878 0.08495 0.0
H1729 H 0.74677 0.70083 0.04761 0.0
H1730 H 0.74251 0.67524 0.12444 0.0
H1731 H 0.76642 0.68434 0.12513 0.0
H1732 H 0.76105 0.66094 0.11703 0.0
H1733 H 0.72099 0.72605 0.07916 0.0
H1734 H 0.73281 0.72762 0.05759 0.0
H1735 H 0.74447 0.7362 0.07889 0.0
C1736 C 0.98374 0.05111 0.13859 0.0
C1737 C 0.98301 0.03849 0.12362 0.0
C1738 C 0.97274 0.04805 0.15406 0.0
C1739 C 0.96066 0.03194 0.15468 0.0
C1740 C 0.96004 0.01898 0.13976 0.0
C1741 C 0.97124 0.02239 0.12442 0.0
C1742 C 0.97395 0.06217 0.16971 0.0
C1743 C 0.94735 1.00165 0.13988 0.0
C1744 C 0.94525 0.01895 0.20279 0.0
C1745 C 0.92762 0.02699 0.20342 0.0
C1746 C 0.9558 0.01977 0.18676 0.0
C1747 C 0.94861 0.02889 0.17094 0.0
C1748 C 0.93047 0.03634 0.17121 0.0
C1749 C 0.92021 0.03531 0.18743 0.0
C1750 C 0.97504 0.0116 0.18706 0.0
C1751 C 0.92224 0.0461 0.15462 0.0
H1752 H 0.99301 0.06343 0.13824 0.0
H1753 H 0.97045 0.01265 0.11286 0.0
H1754 H 0.95984 0.06778 0.17159 0.0
H1755 H 0.97829 0.05554 0.18287 0.0
H1756 H 0.98419 0.07387 0.1672 0.0
H1757 H 0.94889 0.99269 0.12747 0.0
H1758 H 0.95061 0.99358 0.15246 0.0
H1759 H 0.93236 1.00538 0.14036 0.0
H1760 H 0.95116 0.01254 0.21505 0.0
H1761 H 0.90661 0.04154 0.18775 0.0
H1762 H 0.98616 0.02285 0.18636 0.0
H1763 H 0.97627 1.00241 0.17479 0.0
H1764 H 0.97788 1.00355 0.19978 0.0
H1765 H 0.93084 0.05898 0.15223 0.0
H1766 H 0.90737 0.04977 0.15647 0.0
H1767 H 0.9227 0.03728 0.14198 0.0
C1768 C 0.30597 0.80098 0.1323 0.0
C1769 C 0.29067 0.78907 0.13675 0.0
C1770 C 0.30427 0.81359 0.11773 0.0
C1771 C 0.28686 0.8143 0.10738 0.0
C1772 C 0.27128 0.80261 0.1121 0.0
C1773 C 0.27335 0.79021 0.12671 0.0
C1774 C 0.32119 0.82586 0.11316 0.0
C1775 C 0.25243 0.80295 0.1015 0.0
C1776 C 0.27351 0.85481 0.07732 0.0
C1777 C 0.27589 0.84764 0.05946 0.0
C1778 C 0.27798 0.84452 0.09315 0.0
C1779 C 0.28496 0.82663 0.09109 0.0
C1780 C 0.28837 0.81977 0.07315 0.0
C1781 C 0.2838 0.83034 0.05758 0.0
C1782 C 0.27428 0.85241 0.11203 0.0
C1783 C 0.29582 0.80078 0.0703 0.0
H1784 H 0.31943 0.80012 0.1399 0.0
H1785 H 0.26134 0.78136 0.1303 0.0
H1786 H 0.32577 0.82228 0.09912 0.0
H1787 H 0.31735 0.84054 0.11296 0.0
H1788 H 0.33332 0.82448 0.12324 0.0
H1789 H 0.24158 0.79333 0.10723 0.0
H1790 H 0.24714 0.81712 0.10176 0.0
H1791 H 0.25415 0.79907 0.08677 0.0
H1792 H 0.26745 0.86818 0.07893 0.0
H1793 H 0.28568 0.82463 0.04388 0.0
H1794 H 0.2867 0.8509 0.1217 0.0
H1795 H 0.26211 0.84462 0.11786 0.0
H1796 H 0.27102 0.86725 0.11148 0.0
H1797 H 0.30861 0.79902 0.0794 0.0
H1798 H 0.29943 0.79821 0.0557 0.0
H1799 H 0.28499 0.79011 0.07413 0.0
C1800 C 0.05902 0.47239 0.1503 0.0
C1801 C 0.05329 0.48645 0.1384 0.0
C1802 C 0.07162 0.47622 0.1656 0.0
C1803 C 0.07864 0.49461 0.16924 0.0
C1804 C 0.07222 0.509 0.15784 0.0
C1805 C 0.05967 0.50475 0.14256 0.0
C1806 C 0.07805 0.46045 0.17738 0.0
C1807 C 0.07926 0.5288 0.16127 0.0
C1808 C 0.10462 0.50585 0.21585 0.0
C1809 C 0.12363 0.50516 0.2112 0.0
C1810 C 0.08978 0.50263 0.20236 0.0
C1811 C 0.09403 0.49846 0.18381 0.0
C1812 C 0.11317 0.49769 0.17907 0.0
C1813 C 0.12766 0.50109 0.19274 0.0
C1814 C 0.06957 0.50371 0.20794 0.0
C1815 C 0.11838 0.49314 0.15953 0.0
H1816 H 0.05388 0.45825 0.14748 0.0
H1817 H 0.05548 0.51572 0.13342 0.0
H1818 H 0.09334 0.4586 0.17561 0.0
H1819 H 0.07626 0.46359 0.19225 0.0
H1820 H 0.07015 0.4472 0.17366 0.0
H1821 H 0.07145 0.53859 0.15245 0.0
H1822 H 0.0779 0.53277 0.17602 0.0
H1823 H 0.0945 0.53027 0.15832 0.0
H1824 H 0.10131 0.50903 0.23002 0.0
H1825 H 0.14224 0.50042 0.18892 0.0
H1826 H 0.06178 0.49025 0.2051 0.0
H1827 H 0.06233 0.51421 0.19956 0.0
H1828 H 0.0686 0.50734 0.22285 0.0
H1829 H 0.1121 0.47934 0.15522 0.0
H1830 H 0.13394 0.4931 0.15809 0.0
H1831 H 0.11252 0.50336 0.14981 0.0
C1832 C 0.41796 0.73399 0.29479 0.0
C1833 C 0.4043 0.74742 0.29386 0.0
C1834 C 0.43235 0.73465 0.30887 0.0
C1835 C 0.43322 0.74918 0.32227 0.0
C1836 C 0.41962 0.76291 0.32125 0.0
C1837 C 0.40531 0.76182 0.30713 0.0
C1838 C 0.44643 0.71964 0.30957 0.0
C1839 C 0.42013 0.77872 0.33515 0.0
C1840 C 0.45769 0.74244 0.36945 0.0
C1841 C 0.47526 0.75193 0.36764 0.0
C1842 C 0.44408 0.74116 0.35471 0.0
C1843 C 0.44796 0.74974 0.33771 0.0
C1844 C 0.46572 0.75918 0.33569 0.0
C1845 C 0.47919 0.76008 0.35063 0.0
C1846 C 0.42543 0.73077 0.35739 0.0
C1847 C 0.47035 0.76863 0.31785 0.0
H1848 H 0.41717 0.72274 0.28469 0.0
H1849 H 0.39497 0.77239 0.30634 0.0
H1850 H 0.46105 0.72581 0.30921 0.0
H1851 H 0.44543 0.71211 0.32278 0.0
H1852 H 0.44409 0.70953 0.29789 0.0
H1853 H 0.40891 0.78859 0.33209 0.0
H1854 H 0.41832 0.77328 0.34926 0.0
H1855 H 0.4341 0.78635 0.33528 0.0
H1856 H 0.45453 0.73597 0.38246 0.0
H1857 H 0.49267 0.76748 0.34907 0.0
H1858 H 0.42292 0.71981 0.34655 0.0
H1859 H 0.41368 0.74033 0.3559 0.0
H1860 H 0.42487 0.72428 0.3712 0.0
H1861 H 0.4689 0.75854 0.30611 0.0
H1862 H 0.48492 0.77506 0.31834 0.0
H1863 H 0.46018 0.77953 0.31492 0.0
C1864 C 0.00959 0.38737 0.98049 0.0
C1865 C 0.99481 0.39851 0.97466 0.0
C1866 C 0.01309 0.37092 0.97092 0.0
C1867 C 1.00164 0.36545 0.95504 0.0
C1868 C 0.98718 0.37695 0.94867 0.0
C1869 C 0.98389 0.39325 0.95858 0.0
C1870 C 0.02865 0.35907 0.97821 0.0
C1871 C 0.97467 0.37167 0.93178 0.0
C1872 C 0.01831 0.32686 0.92392 0.0
C1873 C 1.00815 0.31134 0.93046 0.0
C1874 C 0.01619 0.34463 0.93157 0.0
C1875 C 1.00368 0.34693 0.94614 0.0
C1876 C 0.99318 0.33138 0.95255 0.0
C1877 C 0.9955 0.31388 0.94464 0.0
C1878 C 0.02751 0.3609 0.92425 0.0
C1879 C 0.9797 0.33316 0.96806 0.0
H1880 H 0.01836 0.39144 0.99267 0.0
H1881 H 0.97229 0.40157 0.95402 0.0
H1882 H 0.02242 0.34572 0.98298 0.0
H1883 H 0.03829 0.35586 0.96702 0.0
H1884 H 0.03711 0.36584 0.98994 0.0
H1885 H 0.96533 0.38292 0.92756 0.0
H1886 H 0.9834 0.36814 0.91997 0.0
H1887 H 0.96565 0.3592 0.93473 0.0
H1888 H 0.02811 0.32512 0.91299 0.0
H1889 H 0.9875 0.30208 0.94985 0.0
H1890 H 0.03717 0.36703 0.93543 0.0
H1891 H 0.01791 0.3718 0.91971 0.0
H1892 H 0.03606 0.35697 0.91241 0.0
H1893 H 0.98752 0.33856 0.98079 0.0
H1894 H 0.97237 0.31977 0.97127 0.0
H1895 H 0.96886 0.3432 0.96431 0.0
C1896 C 0.64456 0.79565 0.3079 0.0
C1897 C 0.64178 0.80407 0.29069 0.0
C1898 C 0.62924 0.7908 0.31884 0.0
C1899 C 0.61061 0.79453 0.31251 0.0
C1900 C 0.60768 0.80306 0.29517 0.0
C1901 C 0.62328 0.80766 0.28443 0.0
C1902 C 0.63299 0.78153 0.33715 0.0
C1903 C 0.58807 0.80736 0.28797 0.0
C1904 C 0.57109 0.76563 0.33369 0.0
C1905 C 0.56558 0.77736 0.34793 0.0
C1906 C 0.58531 0.77125 0.32174 0.0
C1907 C 0.59424 0.78909 0.32395 0.0
C1908 C 0.58822 0.80129 0.33779 0.0
C1909 C 0.57399 0.79527 0.34964 0.0
C1910 C 0.59129 0.75779 0.30719 0.0
C1911 C 0.59725 0.82049 0.34049 0.0
H1912 H 0.65878 0.79261 0.31272 0.0
H1913 H 0.62104 0.81435 0.27125 0.0
H1914 H 0.62746 0.78984 0.34856 0.0
H1915 H 0.62544 0.76775 0.33711 0.0
H1916 H 0.6483 0.77972 0.34015 0.0
H1917 H 0.58819 0.81424 0.27433 0.0
H1918 H 0.57904 0.79444 0.28653 0.0
H1919 H 0.5814 0.81649 0.298 0.0
H1920 H 0.56467 0.75178 0.33218 0.0
H1921 H 0.56982 0.80446 0.36054 0.0
H1922 H 0.60614 0.75417 0.31027 0.0
H1923 H 0.59078 0.76422 0.29335 0.0
H1924 H 0.5822 0.74485 0.30652 0.0
H1925 H 0.6123 0.81956 0.34519 0.0
H1926 H 0.59002 0.82877 0.35087 0.0
H1927 H 0.59703 0.82792 0.32717 0.0
C1928 C 0.02883 0.12785 0.95656 0.0
C1929 C 0.04391 0.12774 0.96982 0.0
C1930 C 0.02522 0.14379 0.94633 0.0
C1931 C 0.03711 0.15994 0.94927 0.0
C1932 C 0.05237 0.15987 0.96262 0.0
C1933 C 0.05552 0.14383 0.97277 0.0
C1934 C 1.00869 0.14337 0.93239 0.0
C1935 C 0.06552 0.17672 0.96606 0.0
C1936 C 0.04149 0.19664 0.91233 0.0
C1937 C 0.03125 0.21093 0.91973 0.0
C1938 C 0.04296 0.17972 0.92146 0.0
C1939 C 0.03385 0.17692 0.93833 0.0
C1940 C 0.02274 0.19095 0.94539 0.0
C1941 C 0.02164 0.2078 0.93606 0.0
C1942 C 0.05499 0.16516 0.91347 0.0
C1943 C 0.01263 0.18846 0.96322 0.0
H1944 H 0.0197 0.1155 0.95434 0.0
H1945 H 0.06735 0.14376 0.9828 0.0
H1946 H 0.99896 0.15437 0.93581 0.0
H1947 H 0.01378 0.14622 0.91837 0.0
H1948 H 1.0006 0.12984 0.93196 0.0
H1949 H 0.07673 0.17441 0.97691 0.0
H1950 H 0.0724 0.18058 0.95306 0.0
H1951 H 0.05737 0.18863 0.9704 0.0
H1952 H 0.04898 0.19891 0.89974 0.0
H1953 H 0.01371 0.21872 0.94192 0.0
H1954 H 0.04691 0.15167 0.91226 0.0
H1955 H 0.0675 0.16327 0.92292 0.0
H1956 H 0.06001 0.1689 0.8996 0.0
H1957 H 1.00413 0.17518 0.96284 0.0
H1958 H 1.00313 0.19989 0.96591 0.0
H1959 H 0.02317 0.18791 0.97499 0.0
C1960 C 0.40226 0.29715 0.22302 0.0
C1961 C 0.39226 0.28084 0.22784 0.0
C1962 C 0.41567 0.29707 0.20919 0.0
C1963 C 0.41913 0.28029 0.19987 0.0
C1964 C 0.40909 0.2638 0.20469 0.0
C1965 C 0.39582 0.26428 0.21857 0.0
C1966 C 0.42608 0.31493 0.20449 0.0
C1967 C 0.41221 0.24563 0.19503 0.0
C1968 C 0.43851 0.28019 0.15158 0.0
C1969 C 0.45738 0.27565 0.15512 0.0
C1970 C 0.42613 0.28236 0.16605 0.0
C1971 C 0.43271 0.27995 0.1846 0.0
C1972 C 0.45193 0.27606 0.18835 0.0
C1973 C 0.46404 0.27397 0.17358 0.0
C1974 C 0.4058 0.28657 0.1614 0.0
C1975 C 0.45953 0.27346 0.20793 0.0
H1976 H 0.39978 0.30997 0.23025 0.0
H1977 H 0.38799 0.25166 0.22197 0.0
H1978 H 0.44157 0.31344 0.20629 0.0
H1979 H 0.42304 0.31824 0.18975 0.0
H1980 H 0.42208 0.32673 0.21326 0.0
H1981 H 0.40363 0.23397 0.20071 0.0
H1982 H 0.40847 0.24664 0.18002 0.0
H1983 H 0.42737 0.24242 0.19639 0.0
H1984 H 0.43321 0.28163 0.1374 0.0
H1985 H 0.47858 0.27048 0.17648 0.0
H1986 H 0.4018 0.29883 0.16945 0.0
H1987 H 0.39634 0.27474 0.1653 0.0
H1988 H 0.40321 0.28922 0.14641 0.0
H1989 H 0.4562 0.28538 0.21683 0.0
H1990 H 0.47508 0.27193 0.20867 0.0
H1991 H 0.45258 0.26092 0.21377 0.0
C1992 C 0.5487 0.39394 0.06571 0.0
C1993 C 0.54167 0.39626 0.04744 0.0
C1994 C 0.54516 0.37737 0.07514 0.0
C1995 C 0.53422 0.36272 0.06618 0.0
C1996 C 0.52641 0.36524 0.04804 0.0
C1997 C 0.53025 0.38193 0.03889 0.0
C1998 C 0.55373 0.3753 0.09446 0.0
C1999 C 0.51462 0.35001 0.03799 0.0
C2000 C 0.54328 0.31307 0.07894 0.0
C2001 C 0.52776 0.30822 0.08962 0.0
C2002 C 0.54575 0.33085 0.07168 0.0
C2003 C 0.53232 0.34424 0.07505 0.0
C2004 C 0.51693 0.33968 0.08632 0.0
C2005 C 0.51486 0.32174 0.09354 0.0
C2006 C 0.5625 0.33514 0.05996 0.0
C2007 C 0.5023 0.35355 0.09022 0.0
H2008 H 0.55722 0.40504 0.0726 0.0
H2009 H 0.52486 0.38347 0.02476 0.0
H2010 H 0.54273 0.3705 0.10399 0.0
H2011 H 0.56452 0.36468 0.09432 0.0
H2012 H 0.56058 0.38845 0.10007 0.0
H2013 H 0.50823 0.35467 0.02464 0.0
H2014 H 0.52359 0.33823 0.03511 0.0
H2015 H 0.50312 0.34481 0.04677 0.0
H2016 H 0.55344 0.30281 0.07593 0.0
H2017 H 0.50278 0.31815 0.10169 0.0
H2018 H 0.57071 0.34756 0.06555 0.0
H2019 H 0.55749 0.33828 0.04563 0.0
H2020 H 0.57213 0.32348 0.05933 0.0
H2021 H 0.50925 0.36661 0.09586 0.0
H2022 H 0.49189 0.34831 0.1002 0.0
H2023 H 0.49455 0.35692 0.07712 0.0
C2024 C 0.62745 0.24325 0.21049 0.0
C2025 C 0.63176 0.22482 0.21381 0.0
C2026 C 0.61277 0.24762 0.19778 0.0
C2027 C 0.60203 0.23323 0.18814 0.0
C2028 C 0.60598 0.2146 0.19177 0.0
C2029 C 0.62079 0.21063 0.20448 0.0
C2030 C 0.60904 0.26766 0.19433 0.0
C2031 C 0.59491 0.19882 0.18182 0.0
C2032 C 0.55475 0.24281 0.16349 0.0
C2033 C 0.55983 0.24415 0.14497 0.0
C2034 C 0.56833 0.2395 0.17775 0.0
C2035 C 0.58749 0.2376 0.17342 0.0
C2036 C 0.59275 0.23935 0.15483 0.0
C2037 C 0.57891 0.24254 0.14088 0.0
C2038 C 0.56213 0.23765 0.19739 0.0
C2039 C 0.61302 0.2376 0.1496 0.0
H2040 H 0.6356 0.25433 0.21782 0.0
H2041 H 0.62411 0.19636 0.20669 0.0
H2042 H 0.61191 0.27102 0.17975 0.0
H2043 H 0.59394 0.27023 0.19637 0.0
H2044 H 0.61796 0.2772 0.20361 0.0
H2045 H 0.59887 0.18513 0.18707 0.0
H2046 H 0.57952 0.20018 0.18339 0.0
H2047 H 0.59744 0.19928 0.16678 0.0
H2048 H 0.54008 0.244 0.16684 0.0
H2049 H 0.58309 0.24367 0.12667 0.0
H2050 H 0.57053 0.24756 0.20667 0.0
H2051 H 0.56479 0.22355 0.2024 0.0
H2052 H 0.54687 0.24016 0.1986 0.0
H2053 H 0.62243 0.2477 0.15772 0.0
H2054 H 0.61492 0.23995 0.13462 0.0
H2055 H 0.61771 0.22359 0.15299 0.0
C2056 C 0.47238 0.13887 0.03499 0.0
C2057 C 0.48444 0.12403 0.03527 0.0
C2058 C 0.47659 0.15486 0.04591 0.0
C2059 C 0.4933 0.15614 0.05745 0.0
C2060 C 0.50575 0.14137 0.05756 0.0
C2061 C 0.50119 0.12551 0.04645 0.0
C2062 C 0.46298 0.17031 0.04525 0.0
C2063 C 0.52369 0.1422 0.06966 0.0
C2064 C 0.50921 0.20491 0.07359 0.0
C2065 C 0.50124 0.206 0.09101 0.0
C2066 C 0.50743 0.18853 0.06283 0.0
C2067 C 0.49742 0.17283 0.06961 0.0
C2068 C 0.49007 0.1736 0.08752 0.0
C2069 C 0.49206 0.19015 0.09799 0.0
C2070 C 0.51555 0.1883 0.04386 0.0
C2071 C 0.47936 0.15717 0.09531 0.0
H2072 H 0.45958 0.13799 0.02617 0.0
H2073 H 0.5105 0.11406 0.04689 0.0
H2074 H 0.45749 0.17263 0.0592 0.0
H2075 H 0.47043 0.18337 0.04124 0.0
H2076 H 0.45079 0.16732 0.03529 0.0
H2077 H 0.53224 0.12991 0.06762 0.0
H2078 H 0.53247 0.15481 0.06667 0.0
H2079 H 0.52016 0.14308 0.08444 0.0
H2080 H 0.5163 0.21706 0.06804 0.0
H2081 H 0.48589 0.19082 0.11143 0.0
H2082 H 0.50387 0.18712 0.03311 0.0
H2083 H 0.52427 0.17611 0.04218 0.0
H2084 H 0.5244 0.20101 0.0413 0.0
H2085 H 0.46597 0.15431 0.08699 0.0
H2086 H 0.47587 0.15948 0.10999 0.0
H2087 H 0.48775 0.14466 0.09442 0.0
C2088 C 0.31411 0.40151 0.74231 0.0
C2089 C 0.30362 0.39912 0.72544 0.0
C2090 C 0.32725 0.41653 0.74531 0.0
C2091 C 0.33009 0.42949 0.73107 0.0
C2092 C 0.31918 0.42744 0.7142 0.0
C2093 C 0.30607 0.41233 0.7116 0.0
C2094 C 0.33849 0.41826 0.76355 0.0
C2095 C 0.32183 0.44085 0.69861 0.0
C2096 C 0.35641 0.47571 0.74284 0.0
C2097 C 0.37488 0.4722 0.73784 0.0
C2098 C 0.34167 0.46198 0.74072 0.0
C2099 C 0.34541 0.44436 0.73332 0.0
C2100 C 0.36395 0.44081 0.7281 0.0
C2101 C 0.37841 0.4547 0.73047 0.0
C2102 C 0.32211 0.46628 0.74652 0.0
C2103 C 0.36857 0.42228 0.72004 0.0
H2104 H 0.31212 0.39153 0.75318 0.0
H2105 H 0.2982 0.4105 0.69845 0.0
H2106 H 0.35368 0.41649 0.76122 0.0
H2107 H 0.33729 0.43225 0.76972 0.0
H2108 H 0.3337 0.40781 0.77366 0.0
H2109 H 0.31135 0.4381 0.68689 0.0
H2110 H 0.32056 0.45525 0.7037 0.0
H2111 H 0.33625 0.43989 0.69337 0.0
H2112 H 0.35349 0.48913 0.74858 0.0
H2113 H 0.39255 0.45178 0.72646 0.0
H2114 H 0.31759 0.45659 0.75742 0.0
H2115 H 0.3118 0.46428 0.73458 0.0
H2116 H 0.32147 0.48066 0.75194 0.0
H2117 H 0.36552 0.41122 0.73011 0.0
H2118 H 0.38363 0.42181 0.71642 0.0
H2119 H 0.35951 0.4191 0.70737 0.0
C2120 C 0.3089 0.63495 0.79701 0.0
C2121 C 0.29226 0.63644 0.78592 0.0
C2122 C 0.32207 0.62165 0.7931 0.0
C2123 C 0.31864 0.60949 0.77766 0.0
C2124 C 0.30168 0.6106 0.76666 0.0
C2125 C 0.28872 0.62405 0.7709 0.0
C2126 C 0.33999 0.62105 0.80514 0.0
C2127 C 0.29744 0.59791 0.7501 0.0
C2128 C 0.36189 0.59127 0.75536 0.0
C2129 C 0.36263 0.57329 0.76233 0.0
C2130 C 0.34758 0.60301 0.7601 0.0
C2131 C 0.33352 0.59674 0.77217 0.0
C2132 C 0.33405 0.57857 0.7792 0.0
C2133 C 0.34859 0.56705 0.7742 0.0
C2134 C 0.34762 0.62224 0.75226 0.0
C2135 C 0.31933 0.57137 0.79211 0.0
H2136 H 0.31196 0.64459 0.80847 0.0
H2137 H 0.27581 0.62488 0.7624 0.0
H2138 H 0.34199 0.60678 0.81 0.0
H2139 H 0.35236 0.6251 0.79693 0.0
H2140 H 0.3399 0.63046 0.81741 0.0
H2141 H 0.28308 0.59963 0.74373 0.0
H2142 H 0.30799 0.60075 0.73947 0.0
H2143 H 0.29862 0.58328 0.75418 0.0
H2144 H 0.37259 0.59628 0.74614 0.0
H2145 H 0.349 0.5532 0.77964 0.0
H2146 H 0.34896 0.63268 0.76369 0.0
H2147 H 0.33403 0.6243 0.74451 0.0
H2148 H 0.35937 0.62492 0.7428 0.0
H2149 H 0.31984 0.58006 0.80491 0.0
H2150 H 0.32141 0.5568 0.79603 0.0
H2151 H 0.30498 0.57226 0.78549 0.0
C2152 C 0.87195 0.45562 0.46528 0.0
C2153 C 0.88506 0.46352 0.4786 0.0
C2154 C 0.85678 0.44385 0.4704 0.0
C2155 C 0.85455 0.43988 0.48934 0.0
C2156 C 0.86723 0.44844 0.50293 0.0
C2157 C 0.88233 0.46012 0.49741 0.0
C2158 C 0.84359 0.43508 0.45545 0.0
C2159 C 0.86534 0.44462 0.52327 0.0
C2160 C 0.80793 0.41621 0.50296 0.0
C2161 C 0.81262 0.39758 0.50356 0.0
C2162 C 0.82146 0.43021 0.49863 0.0
C2163 C 0.84009 0.42547 0.4947 0.0
C2164 C 0.84491 0.40675 0.49542 0.0
C2165 C 0.83119 0.3931 0.49986 0.0
C2166 C 0.81581 0.45003 0.4981 0.0
C2167 C 0.86456 0.40104 0.49127 0.0
H2168 H 0.87369 0.45845 0.45075 0.0
H2169 H 0.89243 0.46603 0.50781 0.0
H2170 H 0.84528 0.41992 0.45501 0.0
H2171 H 0.82866 0.43731 0.45856 0.0
H2172 H 0.84634 0.44066 0.44153 0.0
H2173 H 0.87507 0.45376 0.53219 0.0
H2174 H 0.85061 0.44651 0.52729 0.0
H2175 H 0.86855 0.43004 0.52603 0.0
H2176 H 0.79368 0.41988 0.50583 0.0
H2177 H 0.83507 0.37881 0.50024 0.0
H2178 H 0.81737 0.45551 0.48396 0.0
H2179 H 0.82532 0.45872 0.50764 0.0
H2180 H 0.80096 0.45153 0.50205 0.0
H2181 H 0.86788 0.40492 0.47693 0.0
H2182 H 0.86613 0.38594 0.49271 0.0
H2183 H 0.87519 0.40845 0.50076 0.0
C2184 C 0.74852 0.90016 0.78219 0.0
C2185 C 0.74323 0.88158 0.77809 0.0
C2186 C 0.73543 0.91407 0.78036 0.0
C2187 C 0.7165 0.90937 0.77428 0.0
C2188 C 0.71082 0.89055 0.77097 0.0
C2189 C 0.72425 0.87688 0.77292 0.0
C2190 C 0.74211 0.93393 0.78417 0.0
C2191 C 0.69079 0.88492 0.76453 0.0
C2192 C 0.68239 0.94825 0.77928 0.0
C2193 C 0.68351 0.95667 0.76195 0.0
C2194 C 0.69226 0.9322 0.78327 0.0
C2195 C 0.7034 0.92439 0.76961 0.0
C2196 C 0.7035 0.93215 0.75174 0.0
C2197 C 0.69361 0.94814 0.74816 0.0
C2198 C 0.69165 0.92428 0.80245 0.0
C2199 C 0.715 0.92422 0.73666 0.0
H2200 H 0.76305 0.90389 0.78656 0.0
H2201 H 0.72004 0.86258 0.76965 0.0
H2202 H 0.74149 0.94176 0.77109 0.0
H2203 H 0.73268 0.94057 0.79388 0.0
H2204 H 0.75684 0.93515 0.79016 0.0
H2205 H 0.68801 0.86971 0.76486 0.0
H2206 H 0.68054 0.89167 0.77329 0.0
H2207 H 0.68817 0.88957 0.75012 0.0
H2208 H 0.67466 0.95472 0.79004 0.0
H2209 H 0.69438 0.95439 0.73465 0.0
H2210 H 0.70545 0.92731 0.80999 0.0
H2211 H 0.68929 0.90903 0.80168 0.0
H2212 H 0.68036 0.9302 0.81058 0.0
H2213 H 0.73029 0.92628 0.74054 0.0
H2214 H 0.71224 0.93083 0.72308 0.0
H2215 H 0.71183 0.90913 0.73503 0.0
C2216 C 0.65687 0.55755 0.97642 0.0
C2217 C 0.64382 0.55373 0.99011 0.0
C2218 C 0.67252 0.57001 0.97986 0.0
C2219 C 0.67526 0.5789 0.99743 0.0
C2220 C 0.66255 0.57458 0.01153 0.0
C2221 C 0.647 0.5621 0.0077 0.0
C2222 C 0.68565 0.57426 0.96441 0.0
C2223 C 0.66499 0.58363 0.03049 0.0
C2224 C 0.72254 0.60442 0.01062 0.0
C2225 C 0.71834 0.62286 0.0072 0.0
C2226 C 0.70873 0.58991 0.00747 0.0
C2227 C 0.69034 0.59391 1.00056 0.0
C2228 C 0.68615 0.61244 0.99682 0.0
C2229 C 0.70011 0.62662 1.00023 0.0
C2230 C 0.71372 0.57035 0.01173 0.0
C2231 C 0.66681 0.61734 0.98928 0.0
H2232 H 0.65447 0.55133 0.96274 0.0
H2233 H 0.63718 0.55902 0.01846 0.0
H2234 H 0.6842 0.58878 0.96006 0.0
H2235 H 0.70058 0.57289 0.96928 0.0
H2236 H 0.6826 0.56502 0.95213 0.0
H2237 H 0.65485 0.57769 0.04036 0.0
H2238 H 0.6796 0.58211 0.03626 0.0
H2239 H 0.66282 0.59866 0.02938 0.0
H2240 H 0.73653 0.60133 0.01603 0.0
H2241 H 0.69668 0.64076 0.99738 0.0
H2242 H 0.7112 0.56142 0.99917 0.0
H2243 H 0.70446 0.56468 0.02248 0.0
H2244 H 0.72871 0.56947 0.01671 0.0
H2245 H 0.66323 0.60965 0.97611 0.0
H2246 H 0.66595 0.63237 0.9867 0.0
H2247 H 0.65594 0.61319 0.99921 0.0
C2248 C 0.22862 0.63801 0.23144 0.0
C2249 C 0.2422 0.64139 0.24601 0.0
C2250 C 0.21535 0.62294 0.23182 0.0
C2251 C 0.2156 0.61098 0.24716 0.0
C2252 C 0.22912 0.61444 0.26198 0.0
C2253 C 0.24225 0.62951 0.26119 0.0
C2254 C 0.20119 0.6197 0.21575 0.0
C2255 C 0.22991 0.60203 0.2786 0.0
C2256 C 0.17345 0.57941 0.25889 0.0
C2257 C 0.17934 0.56206 0.25321 0.0
C2258 C 0.18469 0.59561 0.25624 0.0
C2259 C 0.2022 0.59446 0.24763 0.0
C2260 C 0.20769 0.57713 0.24094 0.0
C2261 C 0.19625 0.56116 0.24386 0.0
C2262 C 0.17831 0.61381 0.26357 0.0
C2263 C 0.22616 0.57529 0.23154 0.0
H2264 H 0.22829 0.64722 0.21975 0.0
H2265 H 0.25286 0.63174 0.27236 0.0
H2266 H 0.20314 0.60601 0.20919 0.0
H2267 H 0.18659 0.61947 0.22074 0.0
H2268 H 0.20257 0.63049 0.20504 0.0
H2269 H 0.24084 0.60698 0.28925 0.0
H2270 H 0.21597 0.6012 0.28505 0.0
H2271 H 0.23307 0.58782 0.27417 0.0
H2272 H 0.16043 0.58027 0.26614 0.0
H2273 H 0.20097 0.54787 0.23942 0.0
H2274 H 0.17934 0.62456 0.25283 0.0
H2275 H 0.18774 0.61856 0.27554 0.0
H2276 H 0.16353 0.61273 0.26815 0.0
H2277 H 0.22752 0.58555 0.22036 0.0
H2278 H 0.22747 0.56124 0.22549 0.0
H2279 H 0.23814 0.57817 0.24174 0.0
C2280 C 0.8809 0.54454 0.03934 0.0
C2281 C 0.89918 0.55085 0.03488 0.0
C2282 C 0.8653 0.55569 0.03661 0.0
C2283 C 0.86798 0.57359 0.0292 0.0
C2284 C 0.88623 0.57965 0.02382 0.0
C2285 C 0.90157 0.56824 0.02675 0.0
C2286 C 0.84614 0.54869 0.04259 0.0
C2287 C 0.88973 0.59855 0.01575 0.0
C2288 C 0.82557 0.60118 0.0134 0.0
C2289 C 0.8238 0.61298 0.02875 0.0
C2290 C 0.83973 0.5881 0.01335 0.0
C2291 C 0.85232 0.58675 0.02903 0.0
C2292 C 0.85032 0.5984 0.04465 0.0
C2293 C 0.83618 0.61133 0.0443 0.0
C2294 C 0.84142 0.57594 0.99643 0.0
C2295 C 0.86332 0.5974 0.06172 0.0
H2296 H 0.87891 0.5312 0.04575 0.0
H2297 H 0.91556 0.5731 0.02296 0.0
H2298 H 0.84225 0.55667 0.05496 0.0
H2299 H 0.83515 0.55076 0.0315 0.0
H2300 H 0.84592 0.5338 0.04609 0.0
H2301 H 0.90422 0.60047 0.01057 0.0
H2302 H 0.87932 0.60082 1.00418 0.0
H2303 H 0.88785 0.60932 0.02651 0.0
H2304 H 0.81609 0.60234 1.00133 0.0
H2305 H 0.83491 0.62027 0.0563 0.0
H2306 H 0.84068 0.56117 1.00033 0.0
H2307 H 0.85538 0.57876 0.99038 0.0
H2308 H 0.83014 0.57818 0.98563 0.0
H2309 H 0.86279 0.58315 0.06717 0.0
H2310 H 0.85956 0.60707 0.07291 0.0
H2311 H 0.87814 0.60078 0.05811 0.0
C2312 C 0.13652 0.96594 0.01046 0.0
C2313 C 0.13522 0.97263 0.02868 0.0
C2314 C 0.15084 0.95409 1.00577 0.0
C2315 C 0.16418 0.94874 0.01964 0.0
C2316 C 0.16342 0.95609 0.03785 0.0
C2317 C 0.14902 0.96793 0.04212 0.0
C2318 C 0.15117 0.94664 0.98618 0.0
C2319 C 0.17736 0.95083 0.05306 0.0
C2320 C 0.18556 0.90171 0.01649 0.0
C2321 C 0.20417 0.90627 0.01163 0.0
C2322 C 0.17234 0.91534 0.01858 0.0
C2323 C 0.17773 0.93411 0.01569 0.0
C2324 C 0.19628 0.9388 0.01012 0.0
C2325 C 0.20931 0.92483 0.00818 0.0
C2326 C 0.15274 0.90967 0.02453 0.0
C2327 C 0.20254 0.95863 1.00677 0.0
H2328 H 0.12589 0.96939 0.99998 0.0
H2329 H 0.14839 0.97333 0.05614 0.0
H2330 H 0.16565 0.94822 0.98097 0.0
H2331 H 0.14714 0.93164 0.98593 0.0
H2332 H 0.14127 0.95369 0.9766 0.0
H2333 H 0.17576 0.95879 0.06611 0.0
H2334 H 0.17528 0.93588 0.05597 0.0
H2335 H 0.19207 0.95316 0.04862 0.0
H2336 H 0.18136 0.88744 0.0191 0.0
H2337 H 0.22363 0.9285 1.0044 0.0
H2338 H 0.14189 0.91495 0.01468 0.0
H2339 H 0.15043 0.91585 0.03834 0.0
H2340 H 0.15048 0.89443 0.02535 0.0
H2341 H 0.19231 0.96507 0.99706 0.0
H2342 H 0.21683 0.95985 1.001 0.0
H2343 H 0.20284 0.96664 0.01999 0.0
loop_
_geom_bond_atom_site_label_1
_geom_bond_atom_site_label_2
_geom_bond_distance
_geom_bond_site_symmetry_2
_ccdc_geom_bond_type
C0 C1 1.264 . S
C0 C5 1.479 . S
C0 C10 1.465 1_655 S
C1 C0 1.264 . S
C1 C3 1.339 . S
C1 H28 0.931 1_655 S
C2 C3 1.395 . S
C2 C4 1.320 . S
C3 C1 1.339 . S
C3 C2 1.395 . S
C3 H29 0.901 1_545 S
C4 C2 1.320 . S
C4 C5 1.405 . S
C4 H30 0.930 . S
C5 C0 1.479 . S
C5 C4 1.405 . S
C5 H31 0.931 . S
U6 O7 2.454 . S
U6 O8 2.419 1_554 S
U6 C9 2.988 . S
U6 C10 2.847 . S
U6 C23 2.882 . S
U6 O24 2.441 . S
U6 O25 2.420 . S
U6 O26 2.455 . S
U6 O27 2.449 . S
O7 U6 2.454 . S
O7 C9 1.358 . S
O8 U6 2.419 1_556 S
O8 C9 1.283 1_556 S
C9 U6 2.988 . S
C9 O7 1.358 . S
C9 O8 1.283 1_554 S
C9 C11 1.360 1_554 S
C10 C0 1.465 1_455 S
C10 U6 2.847 . S
C10 O24 1.249 . S
C10 O25 1.202 . S
C11 C9 1.360 1_556 S
C11 C13 1.408 . S
C11 C16 1.342 . S
C12 C13 1.310 . S
C12 C15 1.461 . S
C12 H32 0.932 . S
C13 C11 1.408 . S
C13 C12 1.310 . S
C13 H33 0.930 1_556 S
C14 C15 1.474 . S
C14 C16 1.285 . S
C14 H34 0.929 . S
C15 C12 1.461 . S
C15 C14 1.474 . S
C16 C11 1.342 . S
C16 C14 1.285 . S
C16 H35 0.930 . S
C17 C20 1.424 . S
C17 C22 1.254 . S
C17 C23 1.428 1_565 S
C18 C21 1.260 . S
C18 C22 1.512 . S
C18 H36 0.932 1_554 S
C19 C20 1.384 . S
C19 C21 1.479 . S
C19 H37 0.929 . S
C20 C17 1.424 . S
C20 C19 1.384 . S
C20 H38 0.928 . S
C21 C18 1.260 . S
C21 C19 1.479 . S
C22 C17 1.254 . S
C22 C18 1.512 . S
C22 H39 0.892 1_564 S
C23 U6 2.882 . S
C23 C17 1.428 1_545 S
C23 O26 1.301 . S
C23 O27 1.282 . S
O24 U6 2.441 . S
O24 C10 1.249 . S
O25 U6 2.420 . S
O25 C10 1.202 . S
O26 U6 2.455 . S
O26 C23 1.301 . S
O27 U6 2.449 . S
O27 C23 1.282 . S
H28 C1 0.931 1_455 S
H29 C3 0.901 1_565 S
H30 C4 0.930 . S
H31 C5 0.931 . S
H32 C12 0.932 . S
H33 C13 0.930 1_554 S
H34 C14 0.929 . S
H35 C16 0.930 . S
H36 C18 0.932 1_556 S
H37 C19 0.929 . S
H38 C20 0.928 . S
H39 C22 0.892 1_546 S
C40 C41 1.264 . S
C40 C45 1.479 . S
C40 C50 1.465 . S
C41 C40 1.264 . S
C41 C43 1.339 . S
C41 H68 0.931 . S
C42 C43 1.395 . S
C42 C44 1.320 . S
C43 C41 1.339 . S
C43 C42 1.395 . S
C43 H69 0.929 . S
C44 C42 1.320 . S
C44 C45 1.405 . S
C44 H70 0.930 . S
C45 C40 1.479 . S
C45 C44 1.405 . S
C45 H71 0.931 . S
U46 O47 2.454 . S
U46 O48 2.458 . S
U46 C49 2.984 . S
U46 C50 2.847 . S
U46 C63 2.882 . S
U46 O64 2.441 . S
U46 O65 2.420 . S
U46 O66 2.455 . S
U46 O67 2.449 . S
O47 U46 2.454 . S
O47 C49 1.353 . S
O48 U46 2.458 . S
O48 C49 1.286 . S
C49 U46 2.984 . S
C49 O47 1.353 . S
C49 O48 1.286 . S
C49 C51 1.363 . S
C50 C40 1.465 . S
C50 U46 2.847 . S
C50 O64 1.249 . S
C50 O65 1.202 . S
C51 C49 1.363 . S
C51 C53 1.408 . S
C51 C56 1.342 . S
C52 C53 1.310 . S
C52 C55 1.461 . S
C52 H72 0.932 . S
C53 C51 1.408 . S
C53 C52 1.310 . S
C53 H73 0.930 . S
C54 C55 1.474 . S
C54 C56 1.285 . S
C54 H74 0.929 . S
C55 C52 1.461 . S
C55 C54 1.474 . S
C56 C51 1.342 . S
C56 C54 1.285 . S
C56 H75 0.930 . S
C57 C60 1.424 . S
C57 C62 1.245 . S
C57 C63 1.428 . S
C58 C61 1.260 . S
C58 C62 1.477 . S
C58 H76 0.932 . S
C59 C60 1.384 . S
C59 C61 1.479 . S
C59 H77 0.929 . S
C60 C57 1.424 . S
C60 C59 1.384 . S
C60 H78 0.928 . S
C61 C58 1.260 . S
C61 C59 1.479 . S
C62 C57 1.245 . S
C62 C58 1.477 . S
C62 H79 0.932 . S
C63 U46 2.882 . S
C63 C57 1.428 . S
C63 O66 1.301 . S
C63 O67 1.282 . S
O64 U46 2.441 . S
O64 C50 1.249 . S
O65 U46 2.420 . S
O65 C50 1.202 . S
O66 U46 2.455 . S
O66 C63 1.301 . S
O67 U46 2.449 . S
O67 C63 1.282 . S
H68 C41 0.931 . S
H69 C43 0.929 . S
H70 C44 0.930 . S
H71 C45 0.931 . S
H72 C52 0.932 . S
H73 C53 0.930 . S
H74 C54 0.929 . S
H75 C56 0.930 . S
H76 C58 0.932 . S
H77 C59 0.929 . S
H78 C60 0.928 . S
H79 C62 0.932 . S
C80 C81 1.264 1_655 S
C80 C85 1.479 1_554 S
C80 C90 1.465 . S
C81 C80 1.264 1_455 S
C81 C83 1.339 1_554 S
C81 H108 0.931 . S
C82 C83 1.395 1_655 S
C82 C84 1.320 . S
C83 C81 1.339 1_556 S
C83 C82 1.395 1_455 S
C83 H109 0.930 . S
C84 C82 1.320 . S
C84 C85 1.405 . S
C84 H110 0.930 . S
C85 C80 1.479 1_556 S
C85 C84 1.405 . S
C85 H111 0.931 . S
U86 O87 2.454 . S
U86 O88 2.458 . S
U86 C89 2.984 . S
U86 C90 2.847 . S
U86 C103 2.882 1_655 S
U86 O104 2.441 . S
U86 O105 2.387 1_655 S
U86 O106 2.455 . S
U86 O107 2.449 1_655 S
O87 U86 2.454 . S
O87 C89 1.353 . S
O88 U86 2.458 . S
O88 C89 1.286 . S
C89 U86 2.984 . S
C89 O87 1.353 . S
C89 O88 1.286 . S
C89 C91 1.363 . S
C90 C80 1.465 . S
C90 U86 2.847 . S
C90 O104 1.249 . S
C90 O105 1.165 1_655 S
C91 C89 1.363 . S
C91 C93 1.408 . S
C91 C96 1.342 . S
C92 C93 1.310 . S
C92 C95 1.461 . S
C92 H112 0.932 . S
C93 C91 1.408 . S
C93 C92 1.310 . S
C93 H113 0.930 . S
C94 C95 1.474 . S
C94 C96 1.285 . S
C94 H114 0.929 . S
C95 C92 1.461 . S
C95 C94 1.474 . S
C96 C91 1.342 . S
C96 C94 1.285 . S
C96 H115 0.930 . S
C97 C100 1.424 . S
C97 C102 1.245 . S
C97 C103 1.428 . S
C98 C101 1.260 . S
C98 C102 1.477 . S
C98 H116 0.932 . S
C99 C100 1.384 . S
C99 C101 1.479 . S
C99 H117 0.929 . S
C100 C97 1.424 . S
C100 C99 1.384 . S
C100 H118 0.928 . S
C101 C98 1.260 . S
C101 C99 1.479 . S
C102 C97 1.245 . S
C102 C98 1.477 . S
C102 H119 0.932 . S
C103 U86 2.882 1_455 S
C103 C97 1.428 . S
C103 O106 1.301 1_455 S
C103 O107 1.282 . S
O104 U86 2.441 . S
O104 C90 1.249 . S
O105 U86 2.387 1_455 S
O105 C90 1.165 1_455 S
O106 U86 2.455 . S
O106 C103 1.301 1_655 S
O107 U86 2.449 1_455 S
O107 C103 1.282 . S
H108 C81 0.931 . S
H109 C83 0.930 . S
H110 C84 0.930 . S
H111 C85 0.931 . S
H112 C92 0.932 . S
H113 C93 0.930 . S
H114 C94 0.929 . S
H115 C96 0.930 . S
H116 C98 0.932 . S
H117 C99 0.929 . S
H118 C100 0.928 . S
H119 C102 0.932 . S
C120 C121 1.264 . S
C120 C125 1.479 . S
C120 C130 1.465 . S
C121 C120 1.264 . S
C121 C123 1.339 . S
C121 H148 0.931 . S
C122 C123 1.395 . S
C122 C124 1.320 . S
C123 C121 1.339 . S
C123 C122 1.395 . S
C123 H149 0.929 . S
C124 C122 1.320 . S
C124 C125 1.405 . S
C124 H150 0.930 . S
C125 C120 1.479 . S
C125 C124 1.405 . S
C125 H151 0.931 . S
U126 O127 2.454 . S
U126 O128 2.458 . S
U126 C129 2.984 . S
U126 C130 2.847 . S
U126 C143 2.882 . S
U126 O144 2.441 . S
U126 O145 2.420 . S
U126 O146 2.455 . S
U126 O147 2.449 . S
O127 U126 2.454 . S
O127 C129 1.353 . S
O128 U126 2.458 . S
O128 C129 1.286 . S
C129 U126 2.984 . S
C129 O127 1.353 . S
C129 O128 1.286 . S
C129 C131 1.363 . S
C130 C120 1.465 . S
C130 U126 2.847 . S
C130 O144 1.249 . S
C130 O145 1.202 . S
C131 C129 1.363 . S
C131 C133 1.408 . S
C131 C136 1.342 . S
C132 C133 1.310 . S
C132 C135 1.461 . S
C132 H152 0.932 . S
C133 C131 1.408 . S
C133 C132 1.310 . S
C133 H153 0.930 . S
C134 C135 1.474 . S
C134 C136 1.285 . S
C134 H154 0.929 . S
C135 C132 1.461 . S
C135 C134 1.474 . S
C136 C131 1.342 . S
C136 C134 1.285 . S
C136 H155 0.930 . S
C137 C140 1.424 . S
C137 C142 1.245 . S
C137 C143 1.428 . S
C138 C141 1.260 . S
C138 C142 1.477 . S
C138 H156 0.932 . S
C139 C140 1.384 . S
C139 C141 1.479 . S
C139 H157 0.929 . S
C140 C137 1.424 . S
C140 C139 1.384 . S
C140 H158 0.928 . S
C141 C138 1.260 . S
C141 C139 1.479 . S
C142 C137 1.245 . S
C142 C138 1.477 . S
C142 H159 0.932 . S
C143 U126 2.882 . S
C143 C137 1.428 . S
C143 O146 1.301 . S
C143 O147 1.282 . S
O144 U126 2.441 . S
O144 C130 1.249 . S
O145 U126 2.420 . S
O145 C130 1.202 . S
O146 U126 2.455 . S
O146 C143 1.301 . S
O147 U126 2.449 . S
O147 C143 1.282 . S
H148 C121 0.931 . S
H149 C123 0.929 . S
H150 C124 0.930 . S
H151 C125 0.931 . S
H152 C132 0.932 . S
H153 C133 0.930 . S
H154 C134 0.929 . S
H155 C136 0.930 . S
H156 C138 0.932 . S
H157 C139 0.929 . S
H158 C140 0.928 . S
H159 C142 0.932 . S
C160 C161 1.241 1_565 S
C160 C165 1.479 1_455 S
C160 C170 1.465 . S
C161 C160 1.241 1_545 S
C161 C163 1.344 . S
C161 H188 0.950 . S
C162 C163 1.395 1_665 S
C162 C164 1.320 . S
C163 C161 1.344 . S
C163 C162 1.395 1_445 S
C163 H189 0.929 . S
C164 C162 1.320 . S
C164 C165 1.405 . S
C164 H190 0.930 . S
C165 C160 1.479 1_655 S
C165 C164 1.405 . S
C165 H191 0.931 . S
U166 O167 2.454 . S
U166 O168 2.458 . S
U166 C169 2.984 . S
U166 C170 2.847 . S
U166 C183 2.882 1_565 S
U166 O184 2.441 . S
U166 O185 2.420 . S
U166 O186 2.455 . S
U166 O187 2.449 1_565 S
O167 U166 2.454 . S
O167 C169 1.353 . S
O168 U166 2.458 . S
O168 C169 1.286 . S
C169 U166 2.984 . S
C169 O167 1.353 . S
C169 O168 1.286 . S
C169 C171 1.363 . S
C170 C160 1.465 . S
C170 U166 2.847 . S
C170 O184 1.249 . S
C170 O185 1.202 . S
C171 C169 1.363 . S
C171 C173 1.408 . S
C171 C176 1.342 . S
C172 C173 1.310 . S
C172 C175 1.461 . S
C172 H192 0.932 . S
C173 C171 1.408 . S
C173 C172 1.310 . S
C173 H193 0.930 . S
C174 C175 1.474 . S
C174 C176 1.285 . S
C174 H194 0.929 . S
C175 C172 1.461 . S
C175 C174 1.474 . S
C176 C171 1.342 . S
C176 C174 1.285 . S
C176 H195 0.930 . S
C177 C180 1.424 . S
C177 C182 1.245 . S
C177 C183 1.428 . S
C178 C181 1.260 . S
C178 C182 1.477 . S
C178 H196 0.932 . S
C179 C180 1.384 . S
C179 C181 1.479 . S
C179 H197 0.929 . S
C180 C177 1.424 . S
C180 C179 1.384 . S
C180 H198 0.928 . S
C181 C178 1.260 . S
C181 C179 1.479 . S
C182 C177 1.245 . S
C182 C178 1.477 . S
C182 H199 0.932 1_545 S
C183 U166 2.882 1_545 S
C183 C177 1.428 . S
C183 O186 1.301 1_545 S
C183 O187 1.282 . S
O184 U166 2.441 . S
O184 C170 1.249 . S
O185 U166 2.420 . S
O185 C170 1.202 . S
O186 U166 2.455 . S
O186 C183 1.301 1_565 S
O187 U166 2.449 1_545 S
O187 C183 1.282 . S
H188 C161 0.950 . S
H189 C163 0.929 . S
H190 C164 0.930 . S
H191 C165 0.931 . S
H192 C172 0.932 . S
H193 C173 0.930 . S
H194 C174 0.929 . S
H195 C176 0.930 . S
H196 C178 0.932 . S
H197 C179 0.929 . S
H198 C180 0.928 . S
H199 C182 0.932 1_565 S
C200 C201 1.264 . S
C200 C205 1.479 . S
C200 C210 1.465 . S
C201 C200 1.264 . S
C201 C203 1.339 . S
C201 H228 0.931 . S
C202 C203 1.395 . S
C202 C204 1.320 . S
C203 C201 1.339 . S
C203 C202 1.395 . S
C203 H229 0.929 . S
C204 C202 1.320 . S
C204 C205 1.405 . S
C204 H230 0.930 . S
C205 C200 1.479 . S
C205 C204 1.405 . S
C205 H231 0.931 . S
U206 O207 2.454 . S
U206 O208 2.458 . S
U206 C209 2.984 . S
U206 C210 2.847 . S
U206 C223 2.882 . S
U206 O224 2.441 . S
U206 O225 2.420 . S
U206 O226 2.455 . S
U206 O227 2.449 . S
O207 U206 2.454 . S
O207 C209 1.353 . S
O208 U206 2.458 . S
O208 C209 1.286 . S
C209 U206 2.984 . S
C209 O207 1.353 . S
C209 O208 1.286 . S
C209 C211 1.363 . S
C210 C200 1.465 . S
C210 U206 2.847 . S
C210 O224 1.249 . S
C210 O225 1.202 . S
C211 C209 1.363 . S
C211 C213 1.408 . S
C211 C216 1.342 . S
C212 C213 1.310 . S
C212 C215 1.461 . S
C212 H232 0.932 . S
C213 C211 1.408 . S
C213 C212 1.310 . S
C213 H233 0.930 . S
C214 C215 1.474 . S
C214 C216 1.285 . S
C214 H234 0.929 . S
C215 C212 1.461 . S
C215 C214 1.474 . S
C216 C211 1.342 . S
C216 C214 1.285 . S
C216 H235 0.930 . S
C217 C220 1.424 . S
C217 C222 1.245 . S
C217 C223 1.428 . S
C218 C221 1.260 . S
C218 C222 1.477 . S
C218 H236 0.932 . S
C219 C220 1.384 . S
C219 C221 1.479 . S
C219 H237 0.929 . S
C220 C217 1.424 . S
C220 C219 1.384 . S
C220 H238 0.928 . S
C221 C218 1.260 . S
C221 C219 1.479 . S
C222 C217 1.245 . S
C222 C218 1.477 . S
C222 H239 0.932 . S
C223 U206 2.882 . S
C223 C217 1.428 . S
C223 O226 1.301 . S
C223 O227 1.282 . S
O224 U206 2.441 . S
O224 C210 1.249 . S
O225 U206 2.420 . S
O225 C210 1.202 . S
O226 U206 2.455 . S
O226 C223 1.301 . S
O227 U206 2.449 . S
O227 C223 1.282 . S
H228 C201 0.931 . S
H229 C203 0.929 . S
H230 C204 0.930 . S
H231 C205 0.931 . S
H232 C212 0.932 . S
H233 C213 0.930 . S
H234 C214 0.929 . S
H235 C216 0.930 . S
H236 C218 0.932 . S
H237 C219 0.929 . S
H238 C220 0.928 . S
H239 C222 0.932 . S
C240 C241 1.264 . S
C240 C245 1.479 . S
C240 C250 1.465 . S
C241 C240 1.264 . S
C241 C243 1.339 . S
C241 H268 0.931 1_655 S
C242 C243 1.395 . S
C242 C244 1.320 . S
C243 C241 1.339 . S
C243 C242 1.395 . S
C243 H269 0.929 1_655 S
C244 C242 1.320 . S
C244 C245 1.405 . S
C244 H270 0.930 . S
C245 C240 1.479 . S
C245 C244 1.405 . S
C245 H271 0.931 . S
U246 O247 2.454 . S
U246 O248 2.458 . S
U246 C249 2.984 . S
U246 C250 2.847 . S
U246 C263 2.882 . S
U246 O264 2.441 . S
U246 O265 2.420 . S
U246 O266 2.455 . S
U246 O267 2.438 1_655 S
O247 U246 2.454 . S
O247 C249 1.353 . S
O248 U246 2.458 . S
O248 C249 1.286 . S
C249 U246 2.984 . S
C249 O247 1.353 . S
C249 O248 1.286 . S
C249 C251 1.363 . S
C250 C240 1.465 . S
C250 U246 2.847 . S
C250 O264 1.249 . S
C250 O265 1.202 . S
C251 C249 1.363 . S
C251 C253 1.408 . S
C251 C256 1.342 . S
C252 C253 1.310 . S
C252 C255 1.461 . S
C252 H272 0.932 . S
C253 C251 1.408 . S
C253 C252 1.310 . S
C253 H273 0.930 . S
C254 C255 1.474 . S
C254 C256 1.285 . S
C254 H274 0.929 . S
C255 C252 1.461 . S
C255 C254 1.474 . S
C256 C251 1.342 . S
C256 C254 1.285 . S
C256 H275 0.930 . S
C257 C260 1.424 . S
C257 C262 1.245 . S
C257 C263 1.428 1_455 S
C258 C261 1.260 . S
C258 C262 1.477 . S
C258 H276 0.932 . S
C259 C260 1.384 . S
C259 C261 1.479 . S
C259 H277 0.929 . S
C260 C257 1.424 . S
C260 C259 1.384 . S
C260 H278 0.928 . S
C261 C258 1.260 . S
C261 C259 1.479 . S
C262 C257 1.245 . S
C262 C258 1.477 . S
C262 H279 0.932 1_455 S
C263 U246 2.882 . S
C263 C257 1.428 1_655 S
C263 O266 1.301 . S
C263 O267 1.280 1_655 S
O264 U246 2.441 . S
O264 C250 1.249 . S
O265 U246 2.420 . S
O265 C250 1.202 . S
O266 U246 2.455 . S
O266 C263 1.301 . S
O267 U246 2.438 1_455 S
O267 C263 1.280 1_455 S
H268 C241 0.931 1_455 S
H269 C243 0.929 1_455 S
H270 C244 0.930 . S
H271 C245 0.931 . S
H272 C252 0.932 . S
H273 C253 0.930 . S
H274 C254 0.929 . S
H275 C256 0.930 . S
H276 C258 0.932 . S
H277 C259 0.929 . S
H278 C260 0.928 . S
H279 C262 0.932 1_655 S
C280 C281 1.264 . S
C280 C285 1.479 . S
C280 C290 1.465 . S
C281 C280 1.264 . S
C281 C283 1.339 . S
C281 H308 0.931 . S
C282 C283 1.395 . S
C282 C284 1.320 . S
C283 C281 1.339 . S
C283 C282 1.395 . S
C283 H309 0.929 . S
C284 C282 1.320 . S
C284 C285 1.405 . S
C284 H310 0.930 . S
C285 C280 1.479 . S
C285 C284 1.405 . S
C285 H311 0.931 . S
U286 O287 2.454 . S
U286 O288 2.458 . S
U286 C289 2.984 . S
U286 C290 2.847 . S
U286 C303 2.882 . S
U286 O304 2.441 . S
U286 O305 2.420 . S
U286 O306 2.455 . S
U286 O307 2.449 . S
O287 U286 2.454 . S
O287 C289 1.353 . S
O288 U286 2.458 . S
O288 C289 1.286 . S
C289 U286 2.984 . S
C289 O287 1.353 . S
C289 O288 1.286 . S
C289 C291 1.363 . S
C290 C280 1.465 . S
C290 U286 2.847 . S
C290 O304 1.249 . S
C290 O305 1.202 . S
C291 C289 1.363 . S
C291 C293 1.408 . S
C291 C296 1.342 . S
C292 C293 1.310 . S
C292 C295 1.461 . S
C292 H312 0.932 . S
C293 C291 1.408 . S
C293 C292 1.310 . S
C293 H313 0.930 . S
C294 C295 1.474 . S
C294 C296 1.285 . S
C294 H314 0.929 . S
C295 C292 1.461 . S
C295 C294 1.474 . S
C296 C291 1.342 . S
C296 C294 1.285 . S
C296 H315 0.930 . S
C297 C300 1.424 . S
C297 C302 1.245 . S
C297 C303 1.428 . S
C298 C301 1.260 . S
C298 C302 1.477 . S
C298 H316 0.932 . S
C299 C300 1.384 . S
C299 C301 1.479 . S
C299 H317 0.929 . S
C300 C297 1.424 . S
C300 C299 1.384 . S
C300 H318 0.928 . S
C301 C298 1.260 . S
C301 C299 1.479 . S
C302 C297 1.245 . S
C302 C298 1.477 . S
C302 H319 0.932 . S
C303 U286 2.882 . S
C303 C297 1.428 . S
C303 O306 1.301 . S
C303 O307 1.282 . S
O304 U286 2.441 . S
O304 C290 1.249 . S
O305 U286 2.420 . S
O305 C290 1.202 . S
O306 U286 2.455 . S
O306 C303 1.301 . S
O307 U286 2.449 . S
O307 C303 1.282 . S
H308 C281 0.931 . S
H309 C283 0.929 . S
H310 C284 0.930 . S
H311 C285 0.931 . S
H312 C292 0.932 . S
H313 C293 0.930 . S
H314 C294 0.929 . S
H315 C296 0.930 . S
H316 C298 0.932 . S
H317 C299 0.929 . S
H318 C300 0.928 . S
H319 C302 0.932 . S
C320 C321 1.264 . S
C320 C325 1.479 . S
C320 C330 1.465 . S
C321 C320 1.264 . S
C321 C323 1.339 . S
C321 H348 0.931 . S
C322 C323 1.395 . S
C322 C324 1.320 . S
C323 C321 1.339 . S
C323 C322 1.395 . S
C323 H349 0.929 . S
C324 C322 1.320 . S
C324 C325 1.405 . S
C324 H350 0.930 . S
C325 C320 1.479 . S
C325 C324 1.405 . S
C325 H351 0.931 . S
U326 O327 2.454 . S
U326 O328 2.458 . S
U326 C329 2.984 . S
U326 C330 2.847 . S
U326 C343 2.882 . S
U326 O344 2.441 . S
U326 O345 2.420 . S
U326 O346 2.455 . S
U326 O347 2.449 . S
O327 U326 2.454 . S
O327 C329 1.353 . S
O328 U326 2.458 . S
O328 C329 1.286 . S
C329 U326 2.984 . S
C329 O327 1.353 . S
C329 O328 1.286 . S
C329 C331 1.363 . S
C330 C320 1.465 . S
C330 U326 2.847 . S
C330 O344 1.249 . S
C330 O345 1.202 . S
C331 C329 1.363 . S
C331 C333 1.408 . S
C331 C336 1.342 . S
C332 C333 1.310 . S
C332 C335 1.461 . S
C332 H352 0.932 . S
C333 C331 1.408 . S
C333 C332 1.310 . S
C333 H353 0.930 . S
C334 C335 1.474 . S
C334 C336 1.285 . S
C334 H354 0.929 . S
C335 C332 1.461 . S
C335 C334 1.474 . S
C336 C331 1.342 . S
C336 C334 1.285 . S
C336 H355 0.930 . S
C337 C340 1.424 . S
C337 C342 1.245 . S
C337 C343 1.428 . S
C338 C341 1.260 . S
C338 C342 1.477 . S
C338 H356 0.932 . S
C339 C340 1.384 . S
C339 C341 1.479 . S
C339 H357 0.929 . S
C340 C337 1.424 . S
C340 C339 1.384 . S
C340 H358 0.928 . S
C341 C338 1.260 . S
C341 C339 1.479 . S
C342 C337 1.245 . S
C342 C338 1.477 . S
C342 H359 0.932 . S
C343 U326 2.882 . S
C343 C337 1.428 . S
C343 O346 1.301 . S
C343 O347 1.282 . S
O344 U326 2.441 . S
O344 C330 1.249 . S
O345 U326 2.420 . S
O345 C330 1.202 . S
O346 U326 2.455 . S
O346 C343 1.301 . S
O347 U326 2.449 . S
O347 C343 1.282 . S
H348 C321 0.931 . S
H349 C323 0.929 . S
H350 C324 0.930 . S
H351 C325 0.931 . S
H352 C332 0.932 . S
H353 C333 0.930 . S
H354 C334 0.929 . S
H355 C336 0.930 . S
H356 C338 0.932 . S
H357 C339 0.929 . S
H358 C340 0.928 . S
H359 C342 0.932 . S
C360 C361 1.264 . S
C360 C365 1.479 . S
C360 C370 1.465 . S
C361 C360 1.264 . S
C361 C363 1.339 . S
C361 H388 0.931 . S
C362 C363 1.395 . S
C362 C364 1.320 . S
C363 C361 1.339 . S
C363 C362 1.395 . S
C363 H389 0.929 . S
C364 C362 1.320 . S
C364 C365 1.405 . S
C364 H390 0.930 . S
C365 C360 1.479 . S
C365 C364 1.405 . S
C365 H391 0.931 . S
U366 O367 2.454 . S
U366 O368 2.458 . S
U366 C369 2.984 . S
U366 C370 2.847 . S
U366 C383 2.882 . S
U366 O384 2.441 . S
U366 O385 2.420 . S
U366 O386 2.455 . S
U366 O387 2.449 . S
O367 U366 2.454 . S
O367 C369 1.353 . S
O368 U366 2.458 . S
O368 C369 1.286 . S
C369 U366 2.984 . S
C369 O367 1.353 . S
C369 O368 1.286 . S
C369 C371 1.363 1_565 S
C370 C360 1.465 . S
C370 U366 2.847 . S
C370 O384 1.249 . S
C370 O385 1.202 . S
C371 C369 1.363 1_545 S
C371 C373 1.408 . S
C371 C376 1.342 . S
C372 C373 1.310 . S
C372 C375 1.461 . S
C372 H392 0.932 . S
C373 C371 1.408 . S
C373 C372 1.310 . S
C373 H393 0.930 1_545 S
C374 C375 1.474 . S
C374 C376 1.285 . S
C374 H394 0.929 . S
C375 C372 1.461 . S
C375 C374 1.474 . S
C376 C371 1.342 . S
C376 C374 1.285 . S
C376 H395 0.930 . S
C377 C380 1.424 . S
C377 C382 1.245 . S
C377 C383 1.428 . S
C378 C381 1.260 . S
C378 C382 1.477 . S
C378 H396 0.932 1_565 S
C379 C380 1.384 . S
C379 C381 1.479 . S
C379 H397 0.929 . S
C380 C377 1.424 . S
C380 C379 1.384 . S
C380 H398 0.928 . S
C381 C378 1.260 . S
C381 C379 1.479 . S
C382 C377 1.245 . S
C382 C378 1.477 . S
C382 H399 0.929 . S
C383 U366 2.882 . S
C383 C377 1.428 . S
C383 O386 1.301 . S
C383 O387 1.282 . S
O384 U366 2.441 . S
O384 C370 1.249 . S
O385 U366 2.420 . S
O385 C370 1.202 . S
O386 U366 2.455 . S
O386 C383 1.301 . S
O387 U366 2.449 . S
O387 C383 1.282 . S
H388 C361 0.931 . S
H389 C363 0.929 . S
H390 C364 0.930 . S
H391 C365 0.931 . S
H392 C372 0.932 . S
H393 C373 0.930 1_565 S
H394 C374 0.929 . S
H395 C376 0.930 . S
H396 C378 0.932 1_545 S
H397 C379 0.929 . S
H398 C380 0.928 . S
H399 C382 0.929 . S
C400 C401 1.264 . S
C400 C405 1.479 . S
C400 C410 1.465 . S
C401 C400 1.264 . S
C401 C403 1.339 . S
C401 H428 0.931 . S
C402 C403 1.395 . S
C402 C404 1.320 . S
C403 C401 1.339 . S
C403 C402 1.395 . S
C403 H429 0.929 . S
C404 C402 1.320 . S
C404 C405 1.405 . S
C404 H430 0.930 . S
C405 C400 1.479 . S
C405 C404 1.405 . S
C405 H431 0.931 . S
U406 O407 2.454 . S
U406 O408 2.458 . S
U406 C409 2.984 . S
U406 C410 2.847 . S
U406 C423 2.882 . S
U406 O424 2.441 . S
U406 O425 2.420 . S
U406 O426 2.455 . S
U406 O427 2.449 . S
O407 U406 2.454 . S
O407 C409 1.353 . S
O408 U406 2.458 . S
O408 C409 1.286 . S
C409 U406 2.984 . S
C409 O407 1.353 . S
C409 O408 1.286 . S
C409 C411 1.363 . S
C410 C400 1.465 . S
C410 U406 2.847 . S
C410 O424 1.249 . S
C410 O425 1.202 . S
C411 C409 1.363 . S
C411 C413 1.408 . S
C411 C416 1.342 . S
C412 C413 1.310 . S
C412 C415 1.461 . S
C412 H432 0.932 . S
C413 C411 1.408 . S
C413 C412 1.310 . S
C413 H433 0.930 . S
C414 C415 1.474 . S
C414 C416 1.285 . S
C414 H434 0.929 . S
C415 C412 1.461 . S
C415 C414 1.474 . S
C416 C411 1.342 . S
C416 C414 1.285 . S
C416 H435 0.930 . S
C417 C420 1.424 . S
C417 C422 1.245 . S
C417 C423 1.428 . S
C418 C421 1.260 . S
C418 C422 1.477 . S
C418 H436 0.932 . S
C419 C420 1.384 . S
C419 C421 1.479 . S
C419 H437 0.929 . S
C420 C417 1.424 . S
C420 C419 1.384 . S
C420 H438 0.928 . S
C421 C418 1.260 . S
C421 C419 1.479 . S
C422 C417 1.245 . S
C422 C418 1.477 . S
C422 H439 0.932 . S
C423 U406 2.882 . S
C423 C417 1.428 . S
C423 O426 1.301 . S
C423 O427 1.282 . S
O424 U406 2.441 . S
O424 C410 1.249 . S
O425 U406 2.420 . S
O425 C410 1.202 . S
O426 U406 2.455 . S
O426 C423 1.301 . S
O427 U406 2.449 . S
O427 C423 1.282 . S
H428 C401 0.931 . S
H429 C403 0.929 . S
H430 C404 0.930 . S
H431 C405 0.931 . S
H432 C412 0.932 . S
H433 C413 0.930 . S
H434 C414 0.929 . S
H435 C416 0.930 . S
H436 C418 0.932 . S
H437 C419 0.929 . S
H438 C420 0.928 . S
H439 C422 0.932 . S
C440 C441 1.264 . S
C440 C445 1.479 . S
C440 C450 1.465 . S
C441 C440 1.264 . S
C441 C443 1.339 . S
C441 H468 0.931 . S
C442 C443 1.395 . S
C442 C444 1.320 . S
C443 C441 1.339 . S
C443 C442 1.395 . S
C443 H469 0.929 . S
C444 C442 1.320 . S
C444 C445 1.405 . S
C444 H470 0.930 . S
C445 C440 1.479 . S
C445 C444 1.405 . S
C445 H471 0.931 . S
U446 O447 2.454 . S
U446 O448 2.458 . S
U446 C449 2.984 . S
U446 C450 2.847 . S
U446 C463 2.882 . S
U446 O464 2.441 . S
U446 O465 2.420 . S
U446 O466 2.455 . S
U446 O467 2.449 . S
O447 U446 2.454 . S
O447 C449 1.353 . S
O448 U446 2.458 . S
O448 C449 1.286 . S
C449 U446 2.984 . S
C449 O447 1.353 . S
C449 O448 1.286 . S
C449 C451 1.363 . S
C450 C440 1.465 . S
C450 U446 2.847 . S
C450 O464 1.249 . S
C450 O465 1.202 . S
C451 C449 1.363 . S
C451 C453 1.408 . S
C451 C456 1.342 . S
C452 C453 1.310 . S
C452 C455 1.461 . S
C452 H472 0.932 . S
C453 C451 1.408 . S
C453 C452 1.310 . S
C453 H473 0.930 . S
C454 C455 1.474 . S
C454 C456 1.285 . S
C454 H474 0.929 . S
C455 C452 1.461 . S
C455 C454 1.474 . S
C456 C451 1.342 . S
C456 C454 1.285 . S
C456 H475 0.930 . S
C457 C460 1.424 . S
C457 C462 1.245 . S
C457 C463 1.428 . S
C458 C461 1.260 . S
C458 C462 1.477 . S
C458 H476 0.932 . S
C459 C460 1.384 . S
C459 C461 1.479 . S
C459 H477 0.929 . S
C460 C457 1.424 . S
C460 C459 1.384 . S
C460 H478 0.928 . S
C461 C458 1.260 . S
C461 C459 1.479 . S
C462 C457 1.245 . S
C462 C458 1.477 . S
C462 H479 0.932 . S
C463 U446 2.882 . S
C463 C457 1.428 . S
C463 O466 1.301 . S
C463 O467 1.282 . S
O464 U446 2.441 . S
O464 C450 1.249 . S
O465 U446 2.420 . S
O465 C450 1.202 . S
O466 U446 2.455 . S
O466 C463 1.301 . S
O467 U446 2.449 . S
O467 C463 1.282 . S
H468 C441 0.931 . S
H469 C443 0.929 . S
H470 C444 0.930 . S
H471 C445 0.931 . S
H472 C452 0.932 . S
H473 C453 0.930 . S
H474 C454 0.929 . S
H475 C456 0.930 . S
H476 C458 0.932 . S
H477 C459 0.929 . S
H478 C460 0.928 . S
H479 C462 0.932 . S
C480 C481 1.264 . S
C480 C485 1.479 . S
C480 C490 1.465 . S
C481 C480 1.264 . S
C481 C483 1.339 . S
C481 H508 0.931 . S
C482 C483 1.395 . S
C482 C484 1.320 . S
C483 C481 1.339 . S
C483 C482 1.395 . S
C483 H509 0.929 . S
C484 C482 1.320 . S
C484 C485 1.405 . S
C484 H510 0.930 . S
C485 C480 1.479 . S
C485 C484 1.405 . S
C485 H511 0.931 . S
U486 O487 2.454 . S
U486 O488 2.458 . S
U486 C489 2.984 . S
U486 C490 2.847 . S
U486 C503 2.882 . S
U486 O504 2.441 . S
U486 O505 2.420 . S
U486 O506 2.455 . S
U486 O507 2.449 . S
O487 U486 2.454 . S
O487 C489 1.353 . S
O488 U486 2.458 . S
O488 C489 1.286 . S
C489 U486 2.984 . S
C489 O487 1.353 . S
C489 O488 1.286 . S
C489 C491 1.363 . S
C490 C480 1.465 . S
C490 U486 2.847 . S
C490 O504 1.249 . S
C490 O505 1.202 . S
C491 C489 1.363 . S
C491 C493 1.408 . S
C491 C496 1.342 . S
C492 C493 1.310 . S
C492 C495 1.461 . S
C492 H512 0.932 . S
C493 C491 1.408 . S
C493 C492 1.310 . S
C493 H513 0.930 . S
C494 C495 1.474 . S
C494 C496 1.285 . S
C494 H514 0.929 . S
C495 C492 1.461 . S
C495 C494 1.474 . S
C496 C491 1.342 . S
C496 C494 1.285 . S
C496 H515 0.930 . S
C497 C500 1.424 . S
C497 C502 1.245 . S
C497 C503 1.428 . S
C498 C501 1.260 . S
C498 C502 1.477 . S
C498 H516 0.932 . S
C499 C500 1.384 . S
C499 C501 1.479 . S
C499 H517 0.929 . S
C500 C497 1.424 . S
C500 C499 1.384 . S
C500 H518 0.928 . S
C501 C498 1.260 . S
C501 C499 1.479 . S
C502 C497 1.245 . S
C502 C498 1.477 . S
C502 H519 0.932 . S
C503 U486 2.882 . S
C503 C497 1.428 . S
C503 O506 1.301 . S
C503 O507 1.282 . S
O504 U486 2.441 . S
O504 C490 1.249 . S
O505 U486 2.420 . S
O505 C490 1.202 . S
O506 U486 2.455 . S
O506 C503 1.301 . S
O507 U486 2.449 . S
O507 C503 1.282 . S
H508 C481 0.931 . S
H509 C483 0.929 . S
H510 C484 0.930 . S
H511 C485 0.931 . S
H512 C492 0.932 . S
H513 C493 0.930 . S
H514 C494 0.929 . S
H515 C496 0.930 . S
H516 C498 0.932 . S
H517 C499 0.929 . S
H518 C500 0.928 . S
H519 C502 0.932 . S
C520 C521 1.264 . S
C520 C525 1.479 . S
C520 C530 1.465 . S
C521 C520 1.264 . S
C521 C523 1.339 . S
C521 H548 0.931 . S
C522 C523 1.395 . S
C522 C524 1.320 . S
C523 C521 1.339 . S
C523 C522 1.395 . S
C523 H549 0.929 . S
C524 C522 1.320 . S
C524 C525 1.405 . S
C524 H550 0.930 . S
C525 C520 1.479 . S
C525 C524 1.405 . S
C525 H551 0.931 . S
U526 O527 2.454 . S
U526 O528 2.458 . S
U526 C529 2.984 . S
U526 C530 2.847 . S
U526 C543 2.882 . S
U526 O544 2.441 . S
U526 O545 2.420 . S
U526 O546 2.455 . S
U526 O547 2.449 . S
O527 U526 2.454 . S
O527 C529 1.353 . S
O528 U526 2.458 . S
O528 C529 1.286 . S
C529 U526 2.984 . S
C529 O527 1.353 . S
C529 O528 1.286 . S
C529 C531 1.363 1_556 S
C530 C520 1.465 . S
C530 U526 2.847 . S
C530 O544 1.249 . S
C530 O545 1.202 . S
C531 C529 1.363 1_554 S
C531 C533 1.408 1_554 S
C531 C536 1.342 . S
C532 C533 1.310 1_554 S
C532 C535 1.461 . S
C532 H552 0.932 . S
C533 C531 1.408 1_556 S
C533 C532 1.310 1_556 S
C533 H553 0.930 . S
C534 C535 1.474 . S
C534 C536 1.285 . S
C534 H554 0.929 . S
C535 C532 1.461 . S
C535 C534 1.474 . S
C536 C531 1.342 . S
C536 C534 1.285 . S
C536 H555 0.930 . S
C537 C540 1.424 . S
C537 C542 1.245 . S
C537 C543 1.428 . S
C538 C541 1.260 . S
C538 C542 1.477 . S
C538 H556 0.932 1_556 S
C539 C540 1.384 . S
C539 C541 1.479 . S
C539 H557 0.929 . S
C540 C537 1.424 . S
C540 C539 1.384 . S
C540 H558 0.928 . S
C541 C538 1.260 . S
C541 C539 1.479 . S
C542 C537 1.245 . S
C542 C538 1.477 . S
C542 H559 0.931 1_556 S
C543 U526 2.882 . S
C543 C537 1.428 . S
C543 O546 1.301 . S
C543 O547 1.282 . S
O544 U526 2.441 . S
O544 C530 1.249 . S
O545 U526 2.420 . S
O545 C530 1.202 . S
O546 U526 2.455 . S
O546 C543 1.301 . S
O547 U526 2.449 . S
O547 C543 1.282 . S
H548 C521 0.931 . S
H549 C523 0.929 . S
H550 C524 0.930 . S
H551 C525 0.931 . S
H552 C532 0.932 . S
H553 C533 0.930 . S
H554 C534 0.929 . S
H555 C536 0.930 . S
H556 C538 0.932 1_554 S
H557 C539 0.929 . S
H558 C540 0.928 . S
H559 C542 0.931 1_554 S
C560 C561 1.264 . S
C560 C565 1.479 . S
C560 C570 1.465 . S
C561 C560 1.264 . S
C561 C563 1.339 . S
C561 H588 0.931 . S
C562 C563 1.395 . S
C562 C564 1.320 . S
C563 C561 1.339 . S
C563 C562 1.395 . S
C563 H589 0.929 . S
C564 C562 1.320 . S
C564 C565 1.405 . S
C564 H590 0.930 . S
C565 C560 1.479 . S
C565 C564 1.405 . S
C565 H591 0.931 . S
U566 O567 2.454 . S
U566 O568 2.458 . S
U566 C569 2.984 . S
U566 C570 2.847 . S
U566 C583 2.882 . S
U566 O584 2.441 . S
U566 O585 2.420 . S
U566 O586 2.455 . S
U566 O587 2.449 . S
O567 U566 2.454 . S
O567 C569 1.353 . S
O568 U566 2.458 . S
O568 C569 1.286 . S
C569 U566 2.984 . S
C569 O567 1.353 . S
C569 O568 1.286 . S
C569 C571 1.363 . S
C570 C560 1.465 . S
C570 U566 2.847 . S
C570 O584 1.249 . S
C570 O585 1.202 . S
C571 C569 1.363 . S
C571 C573 1.408 . S
C571 C576 1.342 . S
C572 C573 1.310 . S
C572 C575 1.461 . S
C572 H592 0.932 . S
C573 C571 1.408 . S
C573 C572 1.310 . S
C573 H593 0.930 . S
C574 C575 1.474 . S
C574 C576 1.285 . S
C574 H594 0.929 . S
C575 C572 1.461 . S
C575 C574 1.474 . S
C576 C571 1.342 . S
C576 C574 1.285 . S
C576 H595 0.930 . S
C577 C580 1.424 . S
C577 C582 1.245 . S
C577 C583 1.428 . S
C578 C581 1.260 . S
C578 C582 1.477 . S
C578 H596 0.932 . S
C579 C580 1.384 . S
C579 C581 1.479 . S
C579 H597 0.929 . S
C580 C577 1.424 . S
C580 C579 1.384 . S
C580 H598 0.928 . S
C581 C578 1.260 . S
C581 C579 1.479 . S
C582 C577 1.245 . S
C582 C578 1.477 . S
C582 H599 0.932 . S
C583 U566 2.882 . S
C583 C577 1.428 . S
C583 O586 1.301 . S
C583 O587 1.282 . S
O584 U566 2.441 . S
O584 C570 1.249 . S
O585 U566 2.420 . S
O585 C570 1.202 . S
O586 U566 2.455 . S
O586 C583 1.301 . S
O587 U566 2.449 . S
O587 C583 1.282 . S
H588 C561 0.931 . S
H589 C563 0.929 . S
H590 C564 0.930 . S
H591 C565 0.931 . S
H592 C572 0.932 . S
H593 C573 0.930 . S
H594 C574 0.929 . S
H595 C576 0.930 . S
H596 C578 0.932 . S
H597 C579 0.929 . S
H598 C580 0.928 . S
H599 C582 0.932 . S
C600 C601 1.264 . S
C600 C605 1.479 . S
C600 C610 1.465 . S
C601 C600 1.264 . S
C601 C603 1.339 . S
C601 H628 0.931 . S
C602 C603 1.395 . S
C602 C604 1.320 . S
C603 C601 1.339 . S
C603 C602 1.395 . S
C603 H629 0.929 . S
C604 C602 1.320 . S
C604 C605 1.405 . S
C604 H630 0.930 . S
C605 C600 1.479 . S
C605 C604 1.405 . S
C605 H631 0.931 . S
U606 O607 2.454 . S
U606 O608 2.458 . S
U606 C609 2.984 . S
U606 C610 2.847 1_556 S
U606 C623 2.882 . S
U606 O624 2.441 1_556 S
U606 O625 2.420 . S
U606 O626 2.455 . S
U606 O627 2.449 . S
O607 U606 2.454 . S
O607 C609 1.353 . S
O608 U606 2.458 . S
O608 C609 1.286 . S
C609 U606 2.984 . S
C609 O607 1.353 . S
C609 O608 1.286 . S
C609 C611 1.363 1_545 S
C610 C600 1.465 . S
C610 U606 2.847 1_554 S
C610 O624 1.249 . S
C610 O625 1.202 1_554 S
C611 C609 1.363 1_565 S
C611 C613 1.408 . S
C611 C616 1.342 . S
C612 C613 1.310 . S
C612 C615 1.461 . S
C612 H632 0.932 1_556 S
C613 C611 1.408 . S
C613 C612 1.310 . S
C613 H633 0.930 1_566 S
C614 C615 1.474 . S
C614 C616 1.285 . S
C614 H634 0.929 . S
C615 C612 1.461 . S
C615 C614 1.474 . S
C616 C611 1.342 . S
C616 C614 1.285 . S
C616 H635 0.930 . S
C617 C620 1.424 . S
C617 C622 1.245 . S
C617 C623 1.428 . S
C618 C621 1.260 . S
C618 C622 1.477 . S
C618 H636 0.932 1_545 S
C619 C620 1.384 . S
C619 C621 1.479 . S
C619 H637 0.929 . S
C620 C617 1.424 . S
C620 C619 1.384 . S
C620 H638 0.928 . S
C621 C618 1.260 . S
C621 C619 1.479 . S
C622 C617 1.245 . S
C622 C618 1.477 . S
C622 H639 0.932 1_545 S
C623 U606 2.882 . S
C623 C617 1.428 . S
C623 O626 1.301 . S
C623 O627 1.282 . S
O624 U606 2.441 1_554 S
O624 C610 1.249 . S
O625 U606 2.420 . S
O625 C610 1.202 1_556 S
O626 U606 2.455 . S
O626 C623 1.301 . S
O627 U606 2.449 . S
O627 C623 1.282 . S
H628 C601 0.931 . S
H629 C603 0.929 . S
H630 C604 0.930 . S
H631 C605 0.931 . S
H632 C612 0.932 1_554 S
H633 C613 0.930 1_544 S
H634 C614 0.929 . S
H635 C616 0.930 . S
H636 C618 0.932 1_565 S
H637 C619 0.929 . S
H638 C620 0.928 . S
H639 C622 0.932 1_565 S
Mg640 O641 2.028 . S
Mg640 O647 1.986 1_554 S
Mg640 O649 2.114 . S
Mg640 O650 2.251 . S
Mg640 O653 2.010 . S
O641 Mg640 2.028 . S
O641 C644 1.258 . S
O642 Mg643 2.029 . S
O642 C644 1.244 1_556 S
Mg643 O642 2.029 . S
Mg643 O648 2.032 . S
Mg643 O650 2.079 1_556 S
C644 O641 1.258 . S
C644 O642 1.244 1_554 S
C645 O646 1.264 . S
C645 O653 1.249 . S
O646 C645 1.264 . S
O647 Mg640 1.986 1_556 S
O647 C651 1.246 . S
O648 Mg643 2.032 . S
O648 C651 1.259 . S
O649 Mg640 2.114 . S
O649 C652 1.252 . S
O650 Mg640 2.251 . S
O650 Mg643 2.079 1_554 S
O650 C652 1.273 . S
C651 O647 1.246 . S
C651 O648 1.259 . S
C652 O649 1.252 . S
C652 O650 1.273 . S
O653 Mg640 2.010 . S
O653 C645 1.249 . S
Mg654 O655 2.028 . S
Mg654 O661 1.986 . S
Mg654 O663 2.114 . S
Mg654 O664 2.251 . S
Mg654 O667 2.010 . S
O655 Mg654 2.028 . S
O655 C658 1.250 . S
O656 Mg657 2.028 . S
O656 C658 1.248 . S
Mg657 O656 2.028 . S
Mg657 O662 2.032 . S
Mg657 O664 2.079 . S
C658 O655 1.250 . S
C658 O656 1.248 . S
C659 O660 1.264 . S
C659 O667 1.249 . S
O660 C659 1.264 . S
O661 Mg654 1.986 . S
O661 C665 1.246 . S
O662 Mg657 2.032 . S
O662 C665 1.259 . S
O663 Mg654 2.114 . S
O663 C666 1.252 . S
O664 Mg654 2.251 . S
O664 Mg657 2.079 . S
O664 C666 1.273 . S
C665 O661 1.246 . S
C665 O662 1.259 . S
C666 O663 1.252 . S
C666 O664 1.273 . S
O667 Mg654 2.010 . S
O667 C659 1.249 . S
Mg668 O669 2.028 . S
Mg668 O675 1.986 1_554 S
Mg668 O677 2.114 . S
Mg668 O678 2.251 . S
Mg668 O681 2.010 . S
O669 Mg668 2.028 . S
O669 C672 1.250 1_554 S
O670 Mg671 2.028 . S
O670 C672 1.248 . S
Mg671 O670 2.028 . S
Mg671 O676 2.032 . S
Mg671 O678 2.079 1_556 S
C672 O669 1.250 1_556 S
C672 O670 1.248 . S
C673 O674 1.264 . S
C673 O681 1.249 . S
O674 C673 1.264 . S
O675 Mg668 1.986 1_556 S
O675 C679 1.246 . S
O676 Mg671 2.032 . S
O676 C679 1.259 . S
O677 Mg668 2.114 . S
O677 C680 1.252 . S
O678 Mg668 2.251 . S
O678 Mg671 2.079 1_554 S
O678 C680 1.273 . S
C679 O675 1.246 . S
C679 O676 1.259 . S
C680 O677 1.252 . S
C680 O678 1.273 . S
O681 Mg668 2.010 . S
O681 C673 1.249 . S
Mg682 O683 2.028 . S
Mg682 O689 1.986 . S
Mg682 O691 2.114 . S
Mg682 O692 2.251 . S
Mg682 O695 2.010 . S
O683 Mg682 2.028 . S
O683 C686 1.250 1_545 S
O684 Mg685 2.028 . S
O684 C686 1.248 . S
Mg685 O684 2.028 . S
Mg685 O690 2.032 . S
Mg685 O692 2.079 1_565 S
C686 O683 1.250 1_565 S
C686 O684 1.248 . S
C687 O688 1.264 . S
C687 O695 1.249 . S
O688 C687 1.264 . S
O689 Mg682 1.986 . S
O689 C693 1.246 . S
O690 Mg685 2.032 . S
O690 C693 1.259 1_565 S
O691 Mg682 2.114 . S
O691 C694 1.252 . S
O692 Mg682 2.251 . S
O692 Mg685 2.079 1_545 S
O692 C694 1.273 . S
C693 O689 1.246 . S
C693 O690 1.259 1_545 S
C694 O691 1.252 . S
C694 O692 1.273 . S
O695 Mg682 2.010 . S
O695 C687 1.249 . S
Mg696 O697 2.028 . S
Mg696 O703 1.986 . S
Mg696 O705 2.114 . S
Mg696 O706 2.251 . S
Mg696 O709 2.010 . S
O697 Mg696 2.028 . S
O697 C700 1.250 . S
O698 Mg699 2.028 . S
O698 C700 1.248 . S
Mg699 O698 2.028 . S
Mg699 O704 2.032 . S
Mg699 O706 2.079 . S
C700 O697 1.250 . S
C700 O698 1.248 . S
C701 O702 1.264 . S
C701 O709 1.249 . S
O702 C701 1.264 . S
O703 Mg696 1.986 . S
O703 C707 1.246 . S
O704 Mg699 2.032 . S
O704 C707 1.259 . S
O705 Mg696 2.114 . S
O705 C708 1.252 . S
O706 Mg696 2.251 . S
O706 Mg699 2.079 . S
O706 C708 1.273 . S
C707 O703 1.246 . S
C707 O704 1.259 . S
C708 O705 1.252 . S
C708 O706 1.273 . S
O709 Mg696 2.010 . S
O709 C701 1.249 . S
Mg710 O711 2.028 . S
Mg710 O717 1.986 . S
Mg710 O719 2.114 . S
Mg710 O720 2.251 . S
Mg710 O723 2.010 . S
O711 Mg710 2.028 . S
O711 C714 1.250 . S
O712 Mg713 2.028 . S
O712 C714 1.248 . S
Mg713 O712 2.028 . S
Mg713 O718 2.032 . S
Mg713 O720 2.079 . S
C714 O711 1.250 . S
C714 O712 1.248 . S
C715 O716 1.264 . S
C715 O723 1.249 . S
O716 C715 1.264 . S
O717 Mg710 1.986 . S
O717 C721 1.246 . S
O718 Mg713 2.032 . S
O718 C721 1.259 . S
O719 Mg710 2.114 . S
O719 C722 1.252 . S
O720 Mg710 2.251 . S
O720 Mg713 2.079 . S
O720 C722 1.273 . S
C721 O717 1.246 . S
C721 O718 1.259 . S
C722 O719 1.252 . S
C722 O720 1.273 . S
O723 Mg710 2.010 . S
O723 C715 1.249 . S
Mg724 O725 2.028 . S
Mg724 O731 1.986 . S
Mg724 O733 2.114 . S
Mg724 O734 2.251 . S
Mg724 O737 2.010 . S
O725 Mg724 2.028 . S
O725 C728 1.250 . S
O726 Mg727 2.028 . S
O726 C728 1.248 . S
Mg727 O726 2.028 . S
Mg727 O732 2.032 . S
Mg727 O734 2.079 . S
C728 O725 1.250 . S
C728 O726 1.248 . S
C729 O730 1.264 . S
C729 O737 1.249 . S
O730 C729 1.264 . S
O731 Mg724 1.986 . S
O731 C735 1.246 . S
O732 Mg727 2.032 . S
O732 C735 1.259 . S
O733 Mg724 2.114 . S
O733 C736 1.252 . S
O734 Mg724 2.251 . S
O734 Mg727 2.079 . S
O734 C736 1.273 . S
C735 O731 1.246 . S
C735 O732 1.259 . S
C736 O733 1.252 . S
C736 O734 1.273 . S
O737 Mg724 2.010 . S
O737 C729 1.249 . S
Mg738 O739 2.028 1_545 S
Mg738 O745 1.986 1_545 S
Mg738 O747 2.114 . S
Mg738 O748 2.251 . S
Mg738 O751 2.010 . S
O739 Mg738 2.028 1_565 S
O739 C742 1.250 . S
O740 Mg741 2.028 . S
O740 C742 1.248 . S
Mg741 O740 2.028 . S
Mg741 O746 2.032 . S
Mg741 O748 2.079 1_565 S
C742 O739 1.250 . S
C742 O740 1.248 . S
C743 O744 1.264 . S
C743 O751 1.249 . S
O744 C743 1.264 . S
O745 Mg738 1.986 1_565 S
O745 C749 1.246 . S
O746 Mg741 2.032 . S
O746 C749 1.259 . S
O747 Mg738 2.114 . S
O747 C750 1.252 . S
O748 Mg738 2.251 . S
O748 Mg741 2.079 1_545 S
O748 C750 1.273 . S
C749 O745 1.246 . S
C749 O746 1.259 . S
C750 O747 1.252 . S
C750 O748 1.273 . S
O751 Mg738 2.010 . S
O751 C743 1.249 . S
Mg752 O753 2.028 . S
Mg752 O759 1.986 . S
Mg752 O761 2.114 . S
Mg752 O762 2.251 . S
Mg752 O765 2.010 . S
O753 Mg752 2.028 . S
O753 C756 1.250 1_455 S
O754 Mg755 2.028 . S
O754 C756 1.248 . S
Mg755 O754 2.028 . S
Mg755 O760 2.032 . S
Mg755 O762 2.079 1_655 S
C756 O753 1.250 1_655 S
C756 O754 1.248 . S
C757 O758 1.264 . S
C757 O765 1.249 . S
O758 C757 1.264 . S
O759 Mg752 1.986 . S
O759 C763 1.246 . S
O760 Mg755 2.032 . S
O760 C763 1.259 1_655 S
O761 Mg752 2.114 . S
O761 C764 1.252 . S
O762 Mg752 2.251 . S
O762 Mg755 2.079 1_455 S
O762 C764 1.273 . S
C763 O759 1.246 . S
C763 O760 1.259 1_455 S
C764 O761 1.252 . S
C764 O762 1.273 . S
O765 Mg752 2.010 . S
O765 C757 1.249 . S
Mg766 O767 2.028 . S
Mg766 O773 1.986 . S
Mg766 O775 2.114 . S
Mg766 O776 2.251 . S
Mg766 O779 2.010 . S
O767 Mg766 2.028 . S
O767 C770 1.250 . S
O768 Mg769 2.028 . S
O768 C770 1.248 . S
Mg769 O768 2.028 . S
Mg769 O774 2.032 . S
Mg769 O776 2.079 . S
C770 O767 1.250 . S
C770 O768 1.248 . S
C771 O772 1.264 . S
C771 O779 1.249 . S
O772 C771 1.264 . S
O773 Mg766 1.986 . S
O773 C777 1.246 . S
O774 Mg769 2.032 . S
O774 C777 1.259 . S
O775 Mg766 2.114 . S
O775 C778 1.252 . S
O776 Mg766 2.251 . S
O776 Mg769 2.079 . S
O776 C778 1.273 . S
C777 O773 1.246 . S
C777 O774 1.259 . S
C778 O775 1.252 . S
C778 O776 1.273 . S
O779 Mg766 2.010 . S
O779 C771 1.249 . S
Mg780 O781 2.028 1_655 S
Mg780 O787 1.999 . S
Mg780 O789 2.114 . S
Mg780 O790 2.251 1_655 S
Mg780 O793 2.010 . S
O781 Mg780 2.028 1_455 S
O781 C784 1.250 . S
O782 Mg783 2.028 . S
O782 C784 1.248 . S
Mg783 O782 2.028 . S
Mg783 O788 2.032 . S
Mg783 O790 2.079 . S
C784 O781 1.250 . S
C784 O782 1.248 . S
C785 O786 1.264 . S
C785 O793 1.249 . S
O786 C785 1.264 . S
O787 Mg780 1.999 . S
O787 C791 1.212 1_655 S
O788 Mg783 2.032 . S
O788 C791 1.259 . S
O789 Mg780 2.114 . S
O789 C792 1.252 . S
O790 Mg780 2.251 1_455 S
O790 Mg783 2.079 . S
O790 C792 1.273 1_455 S
C791 O787 1.212 1_455 S
C791 O788 1.259 . S
C792 O789 1.252 . S
C792 O790 1.273 1_655 S
O793 Mg780 2.010 . S
O793 C785 1.249 . S
Mg794 O795 2.028 . S
Mg794 O801 1.986 . S
Mg794 O803 2.114 . S
Mg794 O804 2.251 . S
Mg794 O807 2.010 . S
O795 Mg794 2.028 . S
O795 C798 1.250 . S
O796 Mg797 2.028 . S
O796 C798 1.248 . S
Mg797 O796 2.028 . S
Mg797 O802 2.032 . S
Mg797 O804 2.079 . S
C798 O795 1.250 . S
C798 O796 1.248 . S
C799 O800 1.264 . S
C799 O807 1.249 . S
O800 C799 1.264 . S
O801 Mg794 1.986 . S
O801 C805 1.246 . S
O802 Mg797 2.032 . S
O802 C805 1.259 . S
O803 Mg794 2.114 . S
O803 C806 1.252 . S
O804 Mg794 2.251 . S
O804 Mg797 2.079 . S
O804 C806 1.273 . S
C805 O801 1.246 . S
C805 O802 1.259 . S
C806 O803 1.252 . S
C806 O804 1.273 . S
O807 Mg794 2.010 . S
O807 C799 1.249 . S
C808 C809 1.391 . S
C808 C810 1.394 . S
C808 H824 0.931 . S
C809 C808 1.391 . S
C809 C813 1.376 . S
C810 C808 1.394 . S
C810 C811 1.369 . S
C810 C814 1.531 . S
C811 C810 1.369 . S
C811 C812 1.410 . S
C811 C819 1.503 . S
C812 C811 1.410 . S
C812 C813 1.392 . S
C812 C815 1.511 . S
C813 C809 1.376 . S
C813 C812 1.392 . S
C813 H825 0.929 . S
C814 C810 1.531 . S
C814 H826 0.960 . S
C814 H827 0.962 . S
C814 H828 0.960 . S
C815 C812 1.511 . S
C815 H829 0.961 . S
C815 H830 0.961 . S
C815 H831 0.961 . S
C816 C817 1.370 . S
C816 C818 1.363 . S
C816 H832 0.931 . S
C817 C816 1.370 . S
C817 C821 1.408 . S
C818 C816 1.363 . S
C818 C819 1.370 . S
C818 C822 1.524 . S
C819 C811 1.503 . S
C819 C818 1.370 . S
C819 C820 1.403 . S
C820 C819 1.403 . S
C820 C821 1.404 . S
C820 C823 1.539 . S
C821 C817 1.408 . S
C821 C820 1.404 . S
C821 H833 0.930 . S
C822 C818 1.524 . S
C822 H834 0.956 . S
C822 H835 0.961 . S
C822 H836 0.961 . S
C823 C820 1.539 . S
C823 H837 0.958 . S
C823 H838 0.961 . S
C823 H839 0.960 . S
H824 C808 0.931 . S
H825 C813 0.929 . S
H826 C814 0.960 . S
H827 C814 0.962 . S
H828 C814 0.960 . S
H829 C815 0.961 . S
H830 C815 0.961 . S
H831 C815 0.961 . S
H832 C816 0.931 . S
H833 C821 0.930 . S
H834 C822 0.956 . S
H835 C822 0.961 . S
H836 C822 0.961 . S
H837 C823 0.958 . S
H838 C823 0.961 . S
H839 C823 0.960 . S
C840 C841 1.391 . S
C840 C842 1.394 . S
C840 H856 0.931 . S
C841 C840 1.391 . S
C841 C845 1.376 . S
C842 C840 1.394 . S
C842 C843 1.369 . S
C842 C846 1.531 . S
C843 C842 1.369 . S
C843 C844 1.410 . S
C843 C851 1.503 . S
C844 C843 1.410 . S
C844 C845 1.392 . S
C844 C847 1.511 . S
C845 C841 1.376 . S
C845 C844 1.392 . S
C845 H857 0.929 . S
C846 C842 1.531 . S
C846 H858 0.960 . S
C846 H859 0.962 . S
C846 H860 0.960 . S
C847 C844 1.511 . S
C847 H861 0.961 . S
C847 H862 0.961 . S
C847 H863 0.961 . S
C848 C849 1.370 . S
C848 C850 1.363 . S
C848 H864 0.931 . S
C849 C848 1.370 . S
C849 C853 1.408 . S
C850 C848 1.363 . S
C850 C851 1.370 . S
C850 C854 1.524 . S
C851 C843 1.503 . S
C851 C850 1.370 . S
C851 C852 1.403 . S
C852 C851 1.403 . S
C852 C853 1.404 . S
C852 C855 1.539 . S
C853 C849 1.408 . S
C853 C852 1.404 . S
C853 H865 0.930 . S
C854 C850 1.524 . S
C854 H866 0.956 . S
C854 H867 0.961 . S
C854 H868 0.961 . S
C855 C852 1.539 . S
C855 H869 0.958 . S
C855 H870 0.961 . S
C855 H871 0.960 . S
H856 C840 0.931 . S
H857 C845 0.929 . S
H858 C846 0.960 . S
H859 C846 0.962 . S
H860 C846 0.960 . S
H861 C847 0.961 . S
H862 C847 0.961 . S
H863 C847 0.961 . S
H864 C848 0.931 . S
H865 C853 0.930 . S
H866 C854 0.956 . S
H867 C854 0.961 . S
H868 C854 0.961 . S
H869 C855 0.958 . S
H870 C855 0.961 . S
H871 C855 0.960 . S
C872 C873 1.391 . S
C872 C874 1.394 . S
C872 H888 0.931 . S
C873 C872 1.391 . S
C873 C877 1.376 . S
C874 C872 1.394 . S
C874 C875 1.369 . S
C874 C878 1.531 . S
C875 C874 1.369 . S
C875 C876 1.410 . S
C875 C883 1.503 . S
C876 C875 1.410 . S
C876 C877 1.392 . S
C876 C879 1.511 . S
C877 C873 1.376 . S
C877 C876 1.392 . S
C877 H889 0.929 . S
C878 C874 1.531 . S
C878 H890 0.960 . S
C878 H891 0.962 . S
C878 H892 0.960 . S
C879 C876 1.511 . S
C879 H893 0.961 . S
C879 H894 0.961 . S
C879 H895 0.961 . S
C880 C881 1.370 . S
C880 C882 1.363 . S
C880 H896 0.931 . S
C881 C880 1.370 . S
C881 C885 1.408 . S
C882 C880 1.363 . S
C882 C883 1.370 . S
C882 C886 1.524 . S
C883 C875 1.503 . S
C883 C882 1.370 . S
C883 C884 1.403 . S
C884 C883 1.403 . S
C884 C885 1.404 . S
C884 C887 1.539 . S
C885 C881 1.408 . S
C885 C884 1.404 . S
C885 H897 0.930 . S
C886 C882 1.524 . S
C886 H898 0.956 . S
C886 H899 0.961 . S
C886 H900 0.961 . S
C887 C884 1.539 . S
C887 H901 0.958 . S
C887 H902 0.961 . S
C887 H903 0.960 . S
H888 C872 0.931 . S
H889 C877 0.929 . S
H890 C878 0.960 . S
H891 C878 0.962 . S
H892 C878 0.960 . S
H893 C879 0.961 . S
H894 C879 0.961 . S
H895 C879 0.961 . S
H896 C880 0.931 . S
H897 C885 0.930 . S
H898 C886 0.956 . S
H899 C886 0.961 . S
H900 C886 0.961 . S
H901 C887 0.958 . S
H902 C887 0.961 . S
H903 C887 0.960 . S
C904 C905 1.391 . S
C904 C906 1.394 . S
C904 H920 0.931 . S
C905 C904 1.391 . S
C905 C909 1.376 1_565 S
C906 C904 1.394 . S
C906 C907 1.369 . S
C906 C910 1.531 . S
C907 C906 1.369 . S
C907 C908 1.410 1_565 S
C907 C915 1.516 . S
C908 C907 1.410 1_545 S
C908 C909 1.392 . S
C908 C911 1.511 . S
C909 C905 1.376 1_545 S
C909 C908 1.392 . S
C909 H921 0.929 . S
C910 C906 1.531 . S
C910 H922 0.960 . S
C910 H923 0.962 . S
C910 H924 0.960 . S
C911 C908 1.511 . S
C911 H925 0.961 . S
C911 H926 0.961 . S
C911 H927 0.961 . S
C912 C913 1.370 . S
C912 C914 1.363 . S
C912 H928 0.931 . S
C913 C912 1.370 . S
C913 C917 1.408 1_545 S
C914 C912 1.363 . S
C914 C915 1.342 1_545 S
C914 C918 1.524 . S
C915 C907 1.516 . S
C915 C914 1.342 1_565 S
C915 C916 1.422 . S
C916 C915 1.422 . S
C916 C917 1.404 . S
C916 C919 1.539 . S
C917 C913 1.408 1_565 S
C917 C916 1.404 . S
C917 H929 0.930 . S
C918 C914 1.524 . S
C918 H930 0.956 . S
C918 H931 0.961 . S
C918 H932 0.961 . S
C919 C916 1.539 . S
C919 H933 0.958 . S
C919 H934 0.961 . S
C919 H935 0.960 . S
H920 C904 0.931 . S
H921 C909 0.929 . S
H922 C910 0.960 . S
H923 C910 0.962 . S
H924 C910 0.960 . S
H925 C911 0.961 . S
H926 C911 0.961 . S
H927 C911 0.961 . S
H928 C912 0.931 . S
H929 C917 0.930 . S
H930 C918 0.956 . S
H931 C918 0.961 . S
H932 C918 0.961 . S
H933 C919 0.958 . S
H934 C919 0.961 . S
H935 C919 0.960 . S
C936 C937 1.391 . S
C936 C938 1.394 . S
C936 H952 0.931 . S
C937 C936 1.391 . S
C937 C941 1.376 . S
C938 C936 1.394 . S
C938 C939 1.369 . S
C938 C942 1.531 . S
C939 C938 1.369 . S
C939 C940 1.410 . S
C939 C947 1.503 . S
C940 C939 1.410 . S
C940 C941 1.392 . S
C940 C943 1.511 . S
C941 C937 1.376 . S
C941 C940 1.392 . S
C941 H953 0.929 . S
C942 C938 1.531 . S
C942 H954 0.960 . S
C942 H955 0.962 . S
C942 H956 0.960 . S
C943 C940 1.511 . S
C943 H957 0.961 . S
C943 H958 0.961 . S
C943 H959 0.961 . S
C944 C945 1.370 . S
C944 C946 1.363 . S
C944 H960 0.931 . S
C945 C944 1.370 . S
C945 C949 1.408 . S
C946 C944 1.363 . S
C946 C947 1.370 . S
C946 C950 1.524 . S
C947 C939 1.503 . S
C947 C946 1.370 . S
C947 C948 1.403 . S
C948 C947 1.403 . S
C948 C949 1.404 . S
C948 C951 1.539 . S
C949 C945 1.408 . S
C949 C948 1.404 . S
C949 H961 0.930 . S
C950 C946 1.524 . S
C950 H962 0.956 . S
C950 H963 0.961 . S
C950 H964 0.961 . S
C951 C948 1.539 . S
C951 H965 0.958 . S
C951 H966 0.961 . S
C951 H967 0.960 . S
H952 C936 0.931 . S
H953 C941 0.929 . S
H954 C942 0.960 . S
H955 C942 0.962 . S
H956 C942 0.960 . S
H957 C943 0.961 . S
H958 C943 0.961 . S
H959 C943 0.961 . S
H960 C944 0.931 . S
H961 C949 0.930 . S
H962 C950 0.956 . S
H963 C950 0.961 . S
H964 C950 0.961 . S
H965 C951 0.958 . S
H966 C951 0.961 . S
H967 C951 0.960 . S
C968 C969 1.391 . S
C968 C970 1.394 . S
C968 H984 0.931 . S
C969 C968 1.391 . S
C969 C973 1.376 . S
C970 C968 1.394 . S
C970 C971 1.369 . S
C970 C974 1.531 . S
C971 C970 1.369 . S
C971 C972 1.410 . S
C971 C979 1.503 . S
C972 C971 1.410 . S
C972 C973 1.392 . S
C972 C975 1.511 . S
C973 C969 1.376 . S
C973 C972 1.392 . S
C973 H985 0.929 . S
C974 C970 1.531 . S
C974 H986 0.960 . S
C974 H987 0.962 . S
C974 H988 0.960 . S
C975 C972 1.511 . S
C975 H989 0.961 . S
C975 H990 0.961 . S
C975 H991 0.961 . S
C976 C977 1.370 . S
C976 C978 1.363 . S
C976 H992 0.931 . S
C977 C976 1.370 . S
C977 C981 1.408 . S
C978 C976 1.363 . S
C978 C979 1.370 . S
C978 C982 1.524 . S
C979 C971 1.503 . S
C979 C978 1.370 . S
C979 C980 1.403 . S
C980 C979 1.403 . S
C980 C981 1.404 . S
C980 C983 1.539 . S
C981 C977 1.408 . S
C981 C980 1.404 . S
C981 H993 0.930 . S
C982 C978 1.524 . S
C982 H994 0.956 . S
C982 H995 0.961 . S
C982 H996 0.961 . S
C983 C980 1.539 . S
C983 H997 0.958 . S
C983 H998 0.961 . S
C983 H999 0.960 . S
H984 C968 0.931 . S
H985 C973 0.929 . S
H986 C974 0.960 . S
H987 C974 0.962 . S
H988 C974 0.960 . S
H989 C975 0.961 . S
H990 C975 0.961 . S
H991 C975 0.961 . S
H992 C976 0.931 . S
H993 C981 0.930 . S
H994 C982 0.956 . S
H995 C982 0.961 . S
H996 C982 0.961 . S
H997 C983 0.958 . S
H998 C983 0.961 . S
H999 C983 0.960 . S
C1000 C1001 1.391 . S
C1000 C1002 1.394 . S
C1000 H1016 0.931 . S
C1001 C1000 1.391 . S
C1001 C1005 1.376 . S
C1002 C1000 1.394 . S
C1002 C1003 1.369 . S
C1002 C1006 1.531 . S
C1003 C1002 1.369 . S
C1003 C1004 1.410 . S
C1003 C1011 1.503 . S
C1004 C1003 1.410 . S
C1004 C1005 1.392 . S
C1004 C1007 1.511 . S
C1005 C1001 1.376 . S
C1005 C1004 1.392 . S
C1005 H1017 0.929 . S
C1006 C1002 1.531 . S
C1006 H1018 0.960 . S
C1006 H1019 0.962 . S
C1006 H1020 0.960 . S
C1007 C1004 1.511 . S
C1007 H1021 0.961 . S
C1007 H1022 0.961 . S
C1007 H1023 0.961 . S
C1008 C1009 1.370 . S
C1008 C1010 1.363 . S
C1008 H1024 0.931 . S
C1009 C1008 1.370 . S
C1009 C1013 1.408 . S
C1010 C1008 1.363 . S
C1010 C1011 1.370 . S
C1010 C1014 1.524 . S
C1011 C1003 1.503 . S
C1011 C1010 1.370 . S
C1011 C1012 1.403 . S
C1012 C1011 1.403 . S
C1012 C1013 1.404 . S
C1012 C1015 1.539 . S
C1013 C1009 1.408 . S
C1013 C1012 1.404 . S
C1013 H1025 0.930 . S
C1014 C1010 1.524 . S
C1014 H1026 0.956 . S
C1014 H1027 0.961 . S
C1014 H1028 0.961 . S
C1015 C1012 1.539 . S
C1015 H1029 0.958 . S
C1015 H1030 0.961 . S
C1015 H1031 0.960 . S
H1016 C1000 0.931 . S
H1017 C1005 0.929 . S
H1018 C1006 0.960 . S
H1019 C1006 0.962 . S
H1020 C1006 0.960 . S
H1021 C1007 0.961 . S
H1022 C1007 0.961 . S
H1023 C1007 0.961 . S
H1024 C1008 0.931 . S
H1025 C1013 0.930 . S
H1026 C1014 0.956 . S
H1027 C1014 0.961 . S
H1028 C1014 0.961 . S
H1029 C1015 0.958 . S
H1030 C1015 0.961 . S
H1031 C1015 0.960 . S
C1032 C1033 1.391 . S
C1032 C1034 1.394 . S
C1032 H1048 0.923 1_565 S
C1033 C1032 1.391 . S
C1033 C1037 1.376 . S
C1034 C1032 1.394 . S
C1034 C1035 1.369 . S
C1034 C1038 1.531 1_565 S
C1035 C1034 1.369 . S
C1035 C1036 1.410 . S
C1035 C1043 1.503 . S
C1036 C1035 1.410 . S
C1036 C1037 1.392 . S
C1036 C1039 1.511 . S
C1037 C1033 1.376 . S
C1037 C1036 1.392 . S
C1037 H1049 0.929 . S
C1038 C1034 1.531 1_545 S
C1038 H1050 0.960 . S
C1038 H1051 0.962 . S
C1038 H1052 0.960 . S
C1039 C1036 1.511 . S
C1039 H1053 0.961 . S
C1039 H1054 0.961 . S
C1039 H1055 0.961 . S
C1040 C1041 1.370 . S
C1040 C1042 1.363 . S
C1040 H1056 0.931 . S
C1041 C1040 1.370 . S
C1041 C1045 1.408 1_565 S
C1042 C1040 1.363 . S
C1042 C1043 1.370 . S
C1042 C1046 1.524 . S
C1043 C1035 1.503 . S
C1043 C1042 1.370 . S
C1043 C1044 1.403 1_565 S
C1044 C1043 1.403 1_545 S
C1044 C1045 1.404 . S
C1044 C1047 1.539 . S
C1045 C1041 1.408 1_545 S
C1045 C1044 1.404 . S
C1045 H1057 0.930 . S
C1046 C1042 1.524 . S
C1046 H1058 0.956 . S
C1046 H1059 0.961 . S
C1046 H1060 0.961 . S
C1047 C1044 1.539 . S
C1047 H1061 0.958 . S
C1047 H1062 0.961 . S
C1047 H1063 0.960 . S
H1048 C1032 0.923 1_545 S
H1049 C1037 0.929 . S
H1050 C1038 0.960 . S
H1051 C1038 0.962 . S
H1052 C1038 0.960 . S
H1053 C1039 0.961 . S
H1054 C1039 0.961 . S
H1055 C1039 0.961 . S
H1056 C1040 0.931 . S
H1057 C1045 0.930 . S
H1058 C1046 0.956 . S
H1059 C1046 0.961 . S
H1060 C1046 0.961 . S
H1061 C1047 0.958 . S
H1062 C1047 0.961 . S
H1063 C1047 0.960 . S
C1064 C1065 1.391 . S
C1064 C1066 1.394 . S
C1064 H1080 0.931 . S
C1065 C1064 1.391 . S
C1065 C1069 1.376 . S
C1066 C1064 1.394 . S
C1066 C1067 1.369 . S
C1066 C1070 1.531 . S
C1067 C1066 1.369 . S
C1067 C1068 1.410 . S
C1067 C1075 1.503 . S
C1068 C1067 1.410 . S
C1068 C1069 1.392 . S
C1068 C1071 1.511 . S
C1069 C1065 1.376 . S
C1069 C1068 1.392 . S
C1069 H1081 0.929 . S
C1070 C1066 1.531 . S
C1070 H1082 0.960 . S
C1070 H1083 0.962 . S
C1070 H1084 0.960 . S
C1071 C1068 1.511 . S
C1071 H1085 0.961 . S
C1071 H1086 0.961 . S
C1071 H1087 0.961 . S
C1072 C1073 1.370 . S
C1072 C1074 1.363 . S
C1072 H1088 0.931 . S
C1073 C1072 1.370 . S
C1073 C1077 1.408 . S
C1074 C1072 1.363 . S
C1074 C1075 1.370 . S
C1074 C1078 1.524 . S
C1075 C1067 1.503 . S
C1075 C1074 1.370 . S
C1075 C1076 1.403 . S
C1076 C1075 1.403 . S
C1076 C1077 1.404 . S
C1076 C1079 1.539 . S
C1077 C1073 1.408 . S
C1077 C1076 1.404 . S
C1077 H1089 0.930 . S
C1078 C1074 1.524 . S
C1078 H1090 0.956 . S
C1078 H1091 0.961 . S
C1078 H1092 0.961 . S
C1079 C1076 1.539 . S
C1079 H1093 0.958 . S
C1079 H1094 0.961 . S
C1079 H1095 0.960 . S
H1080 C1064 0.931 . S
H1081 C1069 0.929 . S
H1082 C1070 0.960 . S
H1083 C1070 0.962 . S
H1084 C1070 0.960 . S
H1085 C1071 0.961 . S
H1086 C1071 0.961 . S
H1087 C1071 0.961 . S
H1088 C1072 0.931 . S
H1089 C1077 0.930 . S
H1090 C1078 0.956 . S
H1091 C1078 0.961 . S
H1092 C1078 0.961 . S
H1093 C1079 0.958 . S
H1094 C1079 0.961 . S
H1095 C1079 0.960 . S
C1096 C1097 1.391 . S
C1096 C1098 1.394 . S
C1096 H1112 0.931 . S
C1097 C1096 1.391 . S
C1097 C1101 1.376 . S
C1098 C1096 1.394 . S
C1098 C1099 1.369 . S
C1098 C1102 1.531 . S
C1099 C1098 1.369 . S
C1099 C1100 1.410 . S
C1099 C1107 1.503 . S
C1100 C1099 1.410 . S
C1100 C1101 1.392 . S
C1100 C1103 1.511 . S
C1101 C1097 1.376 . S
C1101 C1100 1.392 . S
C1101 H1113 0.929 . S
C1102 C1098 1.531 . S
C1102 H1114 0.960 . S
C1102 H1115 0.962 . S
C1102 H1116 0.960 . S
C1103 C1100 1.511 . S
C1103 H1117 0.961 . S
C1103 H1118 0.961 . S
C1103 H1119 0.961 . S
C1104 C1105 1.370 . S
C1104 C1106 1.363 . S
C1104 H1120 0.931 . S
C1105 C1104 1.370 . S
C1105 C1109 1.408 . S
C1106 C1104 1.363 . S
C1106 C1107 1.370 . S
C1106 C1110 1.524 . S
C1107 C1099 1.503 . S
C1107 C1106 1.370 . S
C1107 C1108 1.403 . S
C1108 C1107 1.403 . S
C1108 C1109 1.404 . S
C1108 C1111 1.539 . S
C1109 C1105 1.408 . S
C1109 C1108 1.404 . S
C1109 H1121 0.930 . S
C1110 C1106 1.524 . S
C1110 H1122 0.956 . S
C1110 H1123 0.961 . S
C1110 H1124 0.961 . S
C1111 C1108 1.539 . S
C1111 H1125 0.958 . S
C1111 H1126 0.961 . S
C1111 H1127 0.960 . S
H1112 C1096 0.931 . S
H1113 C1101 0.929 . S
H1114 C1102 0.960 . S
H1115 C1102 0.962 . S
H1116 C1102 0.960 . S
H1117 C1103 0.961 . S
H1118 C1103 0.961 . S
H1119 C1103 0.961 . S
H1120 C1104 0.931 . S
H1121 C1109 0.930 . S
H1122 C1110 0.956 . S
H1123 C1110 0.961 . S
H1124 C1110 0.961 . S
H1125 C1111 0.958 . S
H1126 C1111 0.961 . S
H1127 C1111 0.960 . S
C1128 C1129 1.391 . S
C1128 C1130 1.394 . S
C1128 H1144 0.931 . S
C1129 C1128 1.391 . S
C1129 C1133 1.376 . S
C1130 C1128 1.394 . S
C1130 C1131 1.369 . S
C1130 C1134 1.531 . S
C1131 C1130 1.369 . S
C1131 C1132 1.410 . S
C1131 C1139 1.503 . S
C1132 C1131 1.410 . S
C1132 C1133 1.392 . S
C1132 C1135 1.511 . S
C1133 C1129 1.376 . S
C1133 C1132 1.392 . S
C1133 H1145 0.929 . S
C1134 C1130 1.531 . S
C1134 H1146 0.960 . S
C1134 H1147 0.962 . S
C1134 H1148 0.960 . S
C1135 C1132 1.511 . S
C1135 H1149 0.961 . S
C1135 H1150 0.961 . S
C1135 H1151 0.961 . S
C1136 C1137 1.370 . S
C1136 C1138 1.363 . S
C1136 H1152 0.931 . S
C1137 C1136 1.370 . S
C1137 C1141 1.408 . S
C1138 C1136 1.363 . S
C1138 C1139 1.370 . S
C1138 C1142 1.524 . S
C1139 C1131 1.503 . S
C1139 C1138 1.370 . S
C1139 C1140 1.403 . S
C1140 C1139 1.403 . S
C1140 C1141 1.404 . S
C1140 C1143 1.539 . S
C1141 C1137 1.408 . S
C1141 C1140 1.404 . S
C1141 H1153 0.930 . S
C1142 C1138 1.524 . S
C1142 H1154 0.956 . S
C1142 H1155 0.961 . S
C1142 H1156 0.961 . S
C1143 C1140 1.539 . S
C1143 H1157 0.958 . S
C1143 H1158 0.961 . S
C1143 H1159 0.960 . S
H1144 C1128 0.931 . S
H1145 C1133 0.929 . S
H1146 C1134 0.960 . S
H1147 C1134 0.962 . S
H1148 C1134 0.960 . S
H1149 C1135 0.961 . S
H1150 C1135 0.961 . S
H1151 C1135 0.961 . S
H1152 C1136 0.931 . S
H1153 C1141 0.930 . S
H1154 C1142 0.956 . S
H1155 C1142 0.961 . S
H1156 C1142 0.961 . S
H1157 C1143 0.958 . S
H1158 C1143 0.961 . S
H1159 C1143 0.960 . S
C1160 C1161 1.391 . S
C1160 C1162 1.394 . S
C1160 H1176 0.931 . S
C1161 C1160 1.391 . S
C1161 C1165 1.376 . S
C1162 C1160 1.394 . S
C1162 C1163 1.369 . S
C1162 C1166 1.531 . S
C1163 C1162 1.369 . S
C1163 C1164 1.410 . S
C1163 C1171 1.503 . S
C1164 C1163 1.410 . S
C1164 C1165 1.392 . S
C1164 C1167 1.511 . S
C1165 C1161 1.376 . S
C1165 C1164 1.392 . S
C1165 H1177 0.929 . S
C1166 C1162 1.531 . S
C1166 H1178 0.960 . S
C1166 H1179 0.962 . S
C1166 H1180 0.960 . S
C1167 C1164 1.511 . S
C1167 H1181 0.961 . S
C1167 H1182 0.961 . S
C1167 H1183 0.961 . S
C1168 C1169 1.370 . S
C1168 C1170 1.363 . S
C1168 H1184 0.931 . S
C1169 C1168 1.370 . S
C1169 C1173 1.408 . S
C1170 C1168 1.363 . S
C1170 C1171 1.370 . S
C1170 C1174 1.524 . S
C1171 C1163 1.503 . S
C1171 C1170 1.370 . S
C1171 C1172 1.403 . S
C1172 C1171 1.403 . S
C1172 C1173 1.404 . S
C1172 C1175 1.539 . S
C1173 C1169 1.408 . S
C1173 C1172 1.404 . S
C1173 H1185 0.930 . S
C1174 C1170 1.524 . S
C1174 H1186 0.956 . S
C1174 H1187 0.961 . S
C1174 H1188 0.961 . S
C1175 C1172 1.539 . S
C1175 H1189 0.958 . S
C1175 H1190 0.961 . S
C1175 H1191 0.960 . S
H1176 C1160 0.931 . S
H1177 C1165 0.929 . S
H1178 C1166 0.960 . S
H1179 C1166 0.962 . S
H1180 C1166 0.960 . S
H1181 C1167 0.961 . S
H1182 C1167 0.961 . S
H1183 C1167 0.961 . S
H1184 C1168 0.931 . S
H1185 C1173 0.930 . S
H1186 C1174 0.956 . S
H1187 C1174 0.961 . S
H1188 C1174 0.961 . S
H1189 C1175 0.958 . S
H1190 C1175 0.961 . S
H1191 C1175 0.960 . S
C1192 C1193 1.391 . S
C1192 C1194 1.394 . S
C1192 H1208 0.931 . S
C1193 C1192 1.391 . S
C1193 C1197 1.376 . S
C1194 C1192 1.394 . S
C1194 C1195 1.369 . S
C1194 C1198 1.531 . S
C1195 C1194 1.369 . S
C1195 C1196 1.410 . S
C1195 C1203 1.503 . S
C1196 C1195 1.410 . S
C1196 C1197 1.392 . S
C1196 C1199 1.511 . S
C1197 C1193 1.376 . S
C1197 C1196 1.392 . S
C1197 H1209 0.929 . S
C1198 C1194 1.531 . S
C1198 H1210 0.960 . S
C1198 H1211 0.962 . S
C1198 H1212 0.960 . S
C1199 C1196 1.511 . S
C1199 H1213 0.961 . S
C1199 H1214 0.961 . S
C1199 H1215 0.961 . S
C1200 C1201 1.370 . S
C1200 C1202 1.363 . S
C1200 H1216 0.931 . S
C1201 C1200 1.370 . S
C1201 C1205 1.408 . S
C1202 C1200 1.363 . S
C1202 C1203 1.370 . S
C1202 C1206 1.524 . S
C1203 C1195 1.503 . S
C1203 C1202 1.370 . S
C1203 C1204 1.403 . S
C1204 C1203 1.403 . S
C1204 C1205 1.404 . S
C1204 C1207 1.539 . S
C1205 C1201 1.408 . S
C1205 C1204 1.404 . S
C1205 H1217 0.930 . S
C1206 C1202 1.524 . S
C1206 H1218 0.956 . S
C1206 H1219 0.961 . S
C1206 H1220 0.961 . S
C1207 C1204 1.539 . S
C1207 H1221 0.958 . S
C1207 H1222 0.961 . S
C1207 H1223 0.960 . S
H1208 C1192 0.931 . S
H1209 C1197 0.929 . S
H1210 C1198 0.960 . S
H1211 C1198 0.962 . S
H1212 C1198 0.960 . S
H1213 C1199 0.961 . S
H1214 C1199 0.961 . S
H1215 C1199 0.961 . S
H1216 C1200 0.931 . S
H1217 C1205 0.930 . S
H1218 C1206 0.956 . S
H1219 C1206 0.961 . S
H1220 C1206 0.961 . S
H1221 C1207 0.958 . S
H1222 C1207 0.961 . S
H1223 C1207 0.960 . S
C1224 C1225 1.391 . S
C1224 C1226 1.394 . S
C1224 H1240 0.931 . S
C1225 C1224 1.391 . S
C1225 C1229 1.376 . S
C1226 C1224 1.394 . S
C1226 C1227 1.369 . S
C1226 C1230 1.527 . S
C1227 C1226 1.369 . S
C1227 C1228 1.410 . S
C1227 C1235 1.503 . S
C1228 C1227 1.410 . S
C1228 C1229 1.392 . S
C1228 C1231 1.511 . S
C1229 C1225 1.376 . S
C1229 C1228 1.392 . S
C1229 H1241 0.929 . S
C1230 C1226 1.527 . S
C1230 H1242 0.958 . S
C1230 H1243 0.967 1_455 S
C1230 H1244 0.961 1_455 S
C1231 C1228 1.511 . S
C1231 H1245 0.961 . S
C1231 H1246 0.961 . S
C1231 H1247 0.961 . S
C1232 C1233 1.370 . S
C1232 C1234 1.363 . S
C1232 H1248 0.931 1_455 S
C1233 C1232 1.370 . S
C1233 C1237 1.408 . S
C1234 C1232 1.363 . S
C1234 C1235 1.370 . S
C1234 C1238 1.530 . S
C1235 C1227 1.503 . S
C1235 C1234 1.370 . S
C1235 C1236 1.403 . S
C1236 C1235 1.403 . S
C1236 C1237 1.404 . S
C1236 C1239 1.539 . S
C1237 C1233 1.408 . S
C1237 C1236 1.404 . S
C1237 H1249 0.930 . S
C1238 C1234 1.530 . S
C1238 H1250 0.949 1_455 S
C1238 H1251 0.969 . S
C1238 H1252 0.954 1_455 S
C1239 C1236 1.539 . S
C1239 H1253 0.958 . S
C1239 H1254 0.961 . S
C1239 H1255 0.960 . S
H1240 C1224 0.931 . S
H1241 C1229 0.929 . S
H1242 C1230 0.958 . S
H1243 C1230 0.967 1_655 S
H1244 C1230 0.961 1_655 S
H1245 C1231 0.961 . S
H1246 C1231 0.961 . S
H1247 C1231 0.961 . S
H1248 C1232 0.931 1_655 S
H1249 C1237 0.930 . S
H1250 C1238 0.949 1_655 S
H1251 C1238 0.969 . S
H1252 C1238 0.954 1_655 S
H1253 C1239 0.958 . S
H1254 C1239 0.961 . S
H1255 C1239 0.960 . S
C1256 C1257 1.391 . S
C1256 C1258 1.394 . S
C1256 H1272 0.931 . S
C1257 C1256 1.391 . S
C1257 C1261 1.376 . S
C1258 C1256 1.394 . S
C1258 C1259 1.369 . S
C1258 C1262 1.531 . S
C1259 C1258 1.369 . S
C1259 C1260 1.410 . S
C1259 C1267 1.503 . S
C1260 C1259 1.410 . S
C1260 C1261 1.392 . S
C1260 C1263 1.511 . S
C1261 C1257 1.376 . S
C1261 C1260 1.392 . S
C1261 H1273 0.929 . S
C1262 C1258 1.531 . S
C1262 H1274 0.960 . S
C1262 H1275 0.962 . S
C1262 H1276 0.960 . S
C1263 C1260 1.511 . S
C1263 H1277 0.961 . S
C1263 H1278 0.961 . S
C1263 H1279 0.961 . S
C1264 C1265 1.370 . S
C1264 C1266 1.363 . S
C1264 H1280 0.931 . S
C1265 C1264 1.370 . S
C1265 C1269 1.408 . S
C1266 C1264 1.363 . S
C1266 C1267 1.370 . S
C1266 C1270 1.524 . S
C1267 C1259 1.503 . S
C1267 C1266 1.370 . S
C1267 C1268 1.403 . S
C1268 C1267 1.403 . S
C1268 C1269 1.404 . S
C1268 C1271 1.539 . S
C1269 C1265 1.408 . S
C1269 C1268 1.404 . S
C1269 H1281 0.930 . S
C1270 C1266 1.524 . S
C1270 H1282 0.956 . S
C1270 H1283 0.961 . S
C1270 H1284 0.961 . S
C1271 C1268 1.539 . S
C1271 H1285 0.958 . S
C1271 H1286 0.961 . S
C1271 H1287 0.960 . S
H1272 C1256 0.931 . S
H1273 C1261 0.929 . S
H1274 C1262 0.960 . S
H1275 C1262 0.962 . S
H1276 C1262 0.960 . S
H1277 C1263 0.961 . S
H1278 C1263 0.961 . S
H1279 C1263 0.961 . S
H1280 C1264 0.931 . S
H1281 C1269 0.930 . S
H1282 C1270 0.956 . S
H1283 C1270 0.961 . S
H1284 C1270 0.961 . S
H1285 C1271 0.958 . S
H1286 C1271 0.961 . S
H1287 C1271 0.960 . S
C1288 C1289 1.391 . S
C1288 C1290 1.394 . S
C1288 H1304 0.931 . S
C1289 C1288 1.391 . S
C1289 C1293 1.376 1_655 S
C1290 C1288 1.394 . S
C1290 C1291 1.369 . S
C1290 C1294 1.531 . S
C1291 C1290 1.369 . S
C1291 C1292 1.410 1_655 S
C1291 C1299 1.503 . S
C1292 C1291 1.410 1_455 S
C1292 C1293 1.392 . S
C1292 C1295 1.511 . S
C1293 C1289 1.376 1_455 S
C1293 C1292 1.392 . S
C1293 H1305 0.929 . S
C1294 C1290 1.531 . S
C1294 H1306 0.960 . S
C1294 H1307 0.962 . S
C1294 H1308 0.960 . S
C1295 C1292 1.511 . S
C1295 H1309 0.961 . S
C1295 H1310 0.961 . S
C1295 H1311 0.961 . S
C1296 C1297 1.370 . S
C1296 C1298 1.363 . S
C1296 H1312 0.931 . S
C1297 C1296 1.370 . S
C1297 C1301 1.408 1_655 S
C1298 C1296 1.363 . S
C1298 C1299 1.370 . S
C1298 C1302 1.524 . S
C1299 C1291 1.503 . S
C1299 C1298 1.370 . S
C1299 C1300 1.403 1_655 S
C1300 C1299 1.403 1_455 S
C1300 C1301 1.404 . S
C1300 C1303 1.539 . S
C1301 C1297 1.408 1_455 S
C1301 C1300 1.404 . S
C1301 H1313 0.930 . S
C1302 C1298 1.524 . S
C1302 H1314 0.956 . S
C1302 H1315 0.961 . S
C1302 H1316 0.961 . S
C1303 C1300 1.539 . S
C1303 H1317 0.958 . S
C1303 H1318 0.961 . S
C1303 H1319 0.960 . S
H1304 C1288 0.931 . S
H1305 C1293 0.929 . S
H1306 C1294 0.960 . S
H1307 C1294 0.962 . S
H1308 C1294 0.960 . S
H1309 C1295 0.961 . S
H1310 C1295 0.961 . S
H1311 C1295 0.961 . S
H1312 C1296 0.931 . S
H1313 C1301 0.930 . S
H1314 C1302 0.956 . S
H1315 C1302 0.961 . S
H1316 C1302 0.961 . S
H1317 C1303 0.958 . S
H1318 C1303 0.961 . S
H1319 C1303 0.960 . S
C1320 C1321 1.391 . S
C1320 C1322 1.394 . S
C1320 H1336 0.931 . S
C1321 C1320 1.391 . S
C1321 C1325 1.376 . S
C1322 C1320 1.394 . S
C1322 C1323 1.369 . S
C1322 C1326 1.531 . S
C1323 C1322 1.369 . S
C1323 C1324 1.410 . S
C1323 C1331 1.503 . S
C1324 C1323 1.410 . S
C1324 C1325 1.392 . S
C1324 C1327 1.511 . S
C1325 C1321 1.376 . S
C1325 C1324 1.392 . S
C1325 H1337 0.929 . S
C1326 C1322 1.531 . S
C1326 H1338 0.960 . S
C1326 H1339 0.962 . S
C1326 H1340 0.960 . S
C1327 C1324 1.511 . S
C1327 H1341 0.961 . S
C1327 H1342 0.961 . S
C1327 H1343 0.961 . S
C1328 C1329 1.370 . S
C1328 C1330 1.363 . S
C1328 H1344 0.931 . S
C1329 C1328 1.370 . S
C1329 C1333 1.408 . S
C1330 C1328 1.363 . S
C1330 C1331 1.370 . S
C1330 C1334 1.524 . S
C1331 C1323 1.503 . S
C1331 C1330 1.370 . S
C1331 C1332 1.403 . S
C1332 C1331 1.403 . S
C1332 C1333 1.404 . S
C1332 C1335 1.539 . S
C1333 C1329 1.408 . S
C1333 C1332 1.404 . S
C1333 H1345 0.930 . S
C1334 C1330 1.524 . S
C1334 H1346 0.956 . S
C1334 H1347 0.961 . S
C1334 H1348 0.961 . S
C1335 C1332 1.539 . S
C1335 H1349 0.958 . S
C1335 H1350 0.961 . S
C1335 H1351 0.960 . S
H1336 C1320 0.931 . S
H1337 C1325 0.929 . S
H1338 C1326 0.960 . S
H1339 C1326 0.962 . S
H1340 C1326 0.960 . S
H1341 C1327 0.961 . S
H1342 C1327 0.961 . S
H1343 C1327 0.961 . S
H1344 C1328 0.931 . S
H1345 C1333 0.930 . S
H1346 C1334 0.956 . S
H1347 C1334 0.961 . S
H1348 C1334 0.961 . S
H1349 C1335 0.958 . S
H1350 C1335 0.961 . S
H1351 C1335 0.960 . S
C1352 C1353 1.391 . S
C1352 C1354 1.394 . S
C1352 H1368 0.931 . S
C1353 C1352 1.391 . S
C1353 C1357 1.376 . S
C1354 C1352 1.394 . S
C1354 C1355 1.369 . S
C1354 C1358 1.531 . S
C1355 C1354 1.369 . S
C1355 C1356 1.410 . S
C1355 C1363 1.503 . S
C1356 C1355 1.410 . S
C1356 C1357 1.392 . S
C1356 C1359 1.511 . S
C1357 C1353 1.376 . S
C1357 C1356 1.392 . S
C1357 H1369 0.929 . S
C1358 C1354 1.531 . S
C1358 H1370 0.960 . S
C1358 H1371 0.962 . S
C1358 H1372 0.960 . S
C1359 C1356 1.511 . S
C1359 H1373 0.961 . S
C1359 H1374 0.961 . S
C1359 H1375 0.961 . S
C1360 C1361 1.370 . S
C1360 C1362 1.363 . S
C1360 H1376 0.931 . S
C1361 C1360 1.370 . S
C1361 C1365 1.408 . S
C1362 C1360 1.363 . S
C1362 C1363 1.370 . S
C1362 C1366 1.524 . S
C1363 C1355 1.503 . S
C1363 C1362 1.370 . S
C1363 C1364 1.403 . S
C1364 C1363 1.403 . S
C1364 C1365 1.404 . S
C1364 C1367 1.539 . S
C1365 C1361 1.408 . S
C1365 C1364 1.404 . S
C1365 H1377 0.930 . S
C1366 C1362 1.524 . S
C1366 H1378 0.956 . S
C1366 H1379 0.961 . S
C1366 H1380 0.961 . S
C1367 C1364 1.539 . S
C1367 H1381 0.958 . S
C1367 H1382 0.961 . S
C1367 H1383 0.960 . S
H1368 C1352 0.931 . S
H1369 C1357 0.929 . S
H1370 C1358 0.960 . S
H1371 C1358 0.962 . S
H1372 C1358 0.960 . S
H1373 C1359 0.961 . S
H1374 C1359 0.961 . S
H1375 C1359 0.961 . S
H1376 C1360 0.931 . S
H1377 C1365 0.930 . S
H1378 C1366 0.956 . S
H1379 C1366 0.961 . S
H1380 C1366 0.961 . S
H1381 C1367 0.958 . S
H1382 C1367 0.961 . S
H1383 C1367 0.960 . S
C1384 C1385 1.391 . S
C1384 C1386 1.394 . S
C1384 H1400 0.931 . S
C1385 C1384 1.391 . S
C1385 C1389 1.377 . S
C1386 C1384 1.394 . S
C1386 C1387 1.369 . S
C1386 C1390 1.531 . S
C1387 C1386 1.369 . S
C1387 C1388 1.410 1_556 S
C1387 C1395 1.503 . S
C1388 C1387 1.410 1_554 S
C1388 C1389 1.392 1_554 S
C1388 C1391 1.511 . S
C1389 C1385 1.377 . S
C1389 C1388 1.392 1_556 S
C1389 H1401 0.928 1_556 S
C1390 C1386 1.531 . S
C1390 H1402 0.960 . S
C1390 H1403 0.962 . S
C1390 H1404 0.960 . S
C1391 C1388 1.511 . S
C1391 H1405 0.961 . S
C1391 H1406 0.961 . S
C1391 H1407 0.961 . S
C1392 C1393 1.370 1_554 S
C1392 C1394 1.363 . S
C1392 H1408 0.931 . S
C1393 C1392 1.370 1_556 S
C1393 C1397 1.408 . S
C1394 C1392 1.363 . S
C1394 C1395 1.370 1_554 S
C1394 C1398 1.524 . S
C1395 C1387 1.503 . S
C1395 C1394 1.370 1_556 S
C1395 C1396 1.403 . S
C1396 C1395 1.403 . S
C1396 C1397 1.404 . S
C1396 C1399 1.539 . S
C1397 C1393 1.408 . S
C1397 C1396 1.404 . S
C1397 H1409 0.930 . S
C1398 C1394 1.524 . S
C1398 H1410 0.956 . S
C1398 H1411 0.961 . S
C1398 H1412 0.961 . S
C1399 C1396 1.539 . S
C1399 H1413 0.958 . S
C1399 H1414 0.961 . S
C1399 H1415 0.960 . S
H1400 C1384 0.931 . S
H1401 C1389 0.928 1_554 S
H1402 C1390 0.960 . S
H1403 C1390 0.962 . S
H1404 C1390 0.960 . S
H1405 C1391 0.961 . S
H1406 C1391 0.961 . S
H1407 C1391 0.961 . S
H1408 C1392 0.931 . S
H1409 C1397 0.930 . S
H1410 C1398 0.956 . S
H1411 C1398 0.961 . S
H1412 C1398 0.961 . S
H1413 C1399 0.958 . S
H1414 C1399 0.961 . S
H1415 C1399 0.960 . S
C1416 C1417 1.391 . S
C1416 C1418 1.394 . S
C1416 H1432 0.931 . S
C1417 C1416 1.391 . S
C1417 C1421 1.376 . S
C1418 C1416 1.394 . S
C1418 C1419 1.369 . S
C1418 C1422 1.531 . S
C1419 C1418 1.369 . S
C1419 C1420 1.410 . S
C1419 C1427 1.503 . S
C1420 C1419 1.410 . S
C1420 C1421 1.392 . S
C1420 C1423 1.511 . S
C1421 C1417 1.376 . S
C1421 C1420 1.392 . S
C1421 H1433 0.929 . S
C1422 C1418 1.531 . S
C1422 H1434 0.960 . S
C1422 H1435 0.962 . S
C1422 H1436 0.960 . S
C1423 C1420 1.511 . S
C1423 H1437 0.961 . S
C1423 H1438 0.961 . S
C1423 H1439 0.961 . S
C1424 C1425 1.370 . S
C1424 C1426 1.363 . S
C1424 H1440 0.931 . S
C1425 C1424 1.370 . S
C1425 C1429 1.408 . S
C1426 C1424 1.363 . S
C1426 C1427 1.370 . S
C1426 C1430 1.524 . S
C1427 C1419 1.503 . S
C1427 C1426 1.370 . S
C1427 C1428 1.403 . S
C1428 C1427 1.403 . S
C1428 C1429 1.404 . S
C1428 C1431 1.539 . S
C1429 C1425 1.408 . S
C1429 C1428 1.404 . S
C1429 H1441 0.930 . S
C1430 C1426 1.524 . S
C1430 H1442 0.956 . S
C1430 H1443 0.961 . S
C1430 H1444 0.961 . S
C1431 C1428 1.539 . S
C1431 H1445 0.958 . S
C1431 H1446 0.961 . S
C1431 H1447 0.960 . S
H1432 C1416 0.931 . S
H1433 C1421 0.929 . S
H1434 C1422 0.960 . S
H1435 C1422 0.962 . S
H1436 C1422 0.960 . S
H1437 C1423 0.961 . S
H1438 C1423 0.961 . S
H1439 C1423 0.961 . S
H1440 C1424 0.931 . S
H1441 C1429 0.930 . S
H1442 C1430 0.956 . S
H1443 C1430 0.961 . S
H1444 C1430 0.961 . S
H1445 C1431 0.958 . S
H1446 C1431 0.961 . S
H1447 C1431 0.960 . S
C1448 C1449 1.391 . S
C1448 C1450 1.394 . S
C1448 H1464 0.931 . S
C1449 C1448 1.391 . S
C1449 C1453 1.376 . S
C1450 C1448 1.394 . S
C1450 C1451 1.369 . S
C1450 C1454 1.531 . S
C1451 C1450 1.369 . S
C1451 C1452 1.410 . S
C1451 C1459 1.503 . S
C1452 C1451 1.410 . S
C1452 C1453 1.392 . S
C1452 C1455 1.511 . S
C1453 C1449 1.376 . S
C1453 C1452 1.392 . S
C1453 H1465 0.929 . S
C1454 C1450 1.531 . S
C1454 H1466 0.960 . S
C1454 H1467 0.962 . S
C1454 H1468 0.960 . S
C1455 C1452 1.511 . S
C1455 H1469 0.961 . S
C1455 H1470 0.961 . S
C1455 H1471 0.961 . S
C1456 C1457 1.370 . S
C1456 C1458 1.363 . S
C1456 H1472 0.931 . S
C1457 C1456 1.370 . S
C1457 C1461 1.408 . S
C1458 C1456 1.363 . S
C1458 C1459 1.370 . S
C1458 C1462 1.524 . S
C1459 C1451 1.503 . S
C1459 C1458 1.370 . S
C1459 C1460 1.403 . S
C1460 C1459 1.403 . S
C1460 C1461 1.404 . S
C1460 C1463 1.539 . S
C1461 C1457 1.408 . S
C1461 C1460 1.404 . S
C1461 H1473 0.930 . S
C1462 C1458 1.524 . S
C1462 H1474 0.956 . S
C1462 H1475 0.961 . S
C1462 H1476 0.961 . S
C1463 C1460 1.539 . S
C1463 H1477 0.958 . S
C1463 H1478 0.961 . S
C1463 H1479 0.960 . S
H1464 C1448 0.931 . S
H1465 C1453 0.929 . S
H1466 C1454 0.960 . S
H1467 C1454 0.962 . S
H1468 C1454 0.960 . S
H1469 C1455 0.961 . S
H1470 C1455 0.961 . S
H1471 C1455 0.961 . S
H1472 C1456 0.931 . S
H1473 C1461 0.930 . S
H1474 C1462 0.956 . S
H1475 C1462 0.961 . S
H1476 C1462 0.961 . S
H1477 C1463 0.958 . S
H1478 C1463 0.961 . S
H1479 C1463 0.960 . S
C1480 C1481 1.391 . S
C1480 C1482 1.394 . S
C1480 H1496 0.931 . S
C1481 C1480 1.391 . S
C1481 C1485 1.376 . S
C1482 C1480 1.394 . S
C1482 C1483 1.369 . S
C1482 C1486 1.531 . S
C1483 C1482 1.369 . S
C1483 C1484 1.410 . S
C1483 C1491 1.503 . S
C1484 C1483 1.410 . S
C1484 C1485 1.392 . S
C1484 C1487 1.511 . S
C1485 C1481 1.376 . S
C1485 C1484 1.392 . S
C1485 H1497 0.929 . S
C1486 C1482 1.531 . S
C1486 H1498 0.960 . S
C1486 H1499 0.962 . S
C1486 H1500 0.960 . S
C1487 C1484 1.511 . S
C1487 H1501 0.961 . S
C1487 H1502 0.961 . S
C1487 H1503 0.961 . S
C1488 C1489 1.370 . S
C1488 C1490 1.363 . S
C1488 H1504 0.931 . S
C1489 C1488 1.370 . S
C1489 C1493 1.408 . S
C1490 C1488 1.363 . S
C1490 C1491 1.370 . S
C1490 C1494 1.524 . S
C1491 C1483 1.503 . S
C1491 C1490 1.370 . S
C1491 C1492 1.403 . S
C1492 C1491 1.403 . S
C1492 C1493 1.404 . S
C1492 C1495 1.539 . S
C1493 C1489 1.408 . S
C1493 C1492 1.404 . S
C1493 H1505 0.930 . S
C1494 C1490 1.524 . S
C1494 H1506 0.956 . S
C1494 H1507 0.961 . S
C1494 H1508 0.961 . S
C1495 C1492 1.539 . S
C1495 H1509 0.958 . S
C1495 H1510 0.961 . S
C1495 H1511 0.960 . S
H1496 C1480 0.931 . S
H1497 C1485 0.929 . S
H1498 C1486 0.960 . S
H1499 C1486 0.962 . S
H1500 C1486 0.960 . S
H1501 C1487 0.961 . S
H1502 C1487 0.961 . S
H1503 C1487 0.961 . S
H1504 C1488 0.931 . S
H1505 C1493 0.930 . S
H1506 C1494 0.956 . S
H1507 C1494 0.961 . S
H1508 C1494 0.961 . S
H1509 C1495 0.958 . S
H1510 C1495 0.961 . S
H1511 C1495 0.960 . S
C1512 C1513 1.391 . S
C1512 C1514 1.394 . S
C1512 H1528 0.931 . S
C1513 C1512 1.391 . S
C1513 C1517 1.376 . S
C1514 C1512 1.394 . S
C1514 C1515 1.369 . S
C1514 C1518 1.531 . S
C1515 C1514 1.369 . S
C1515 C1516 1.410 . S
C1515 C1523 1.503 . S
C1516 C1515 1.410 . S
C1516 C1517 1.392 . S
C1516 C1519 1.511 . S
C1517 C1513 1.376 . S
C1517 C1516 1.392 . S
C1517 H1529 0.929 . S
C1518 C1514 1.531 . S
C1518 H1530 0.960 . S
C1518 H1531 0.962 . S
C1518 H1532 0.960 . S
C1519 C1516 1.511 . S
C1519 H1533 0.961 . S
C1519 H1534 0.961 . S
C1519 H1535 0.961 . S
C1520 C1521 1.370 . S
C1520 C1522 1.363 . S
C1520 H1536 0.931 . S
C1521 C1520 1.370 . S
C1521 C1525 1.408 . S
C1522 C1520 1.363 . S
C1522 C1523 1.370 . S
C1522 C1526 1.524 . S
C1523 C1515 1.503 . S
C1523 C1522 1.370 . S
C1523 C1524 1.403 . S
C1524 C1523 1.403 . S
C1524 C1525 1.404 . S
C1524 C1527 1.539 . S
C1525 C1521 1.408 . S
C1525 C1524 1.404 . S
C1525 H1537 0.930 . S
C1526 C1522 1.524 . S
C1526 H1538 0.956 . S
C1526 H1539 0.961 . S
C1526 H1540 0.961 . S
C1527 C1524 1.539 . S
C1527 H1541 0.958 . S
C1527 H1542 0.961 . S
C1527 H1543 0.960 . S
H1528 C1512 0.931 . S
H1529 C1517 0.929 . S
H1530 C1518 0.960 . S
H1531 C1518 0.962 . S
H1532 C1518 0.960 . S
H1533 C1519 0.961 . S
H1534 C1519 0.961 . S
H1535 C1519 0.961 . S
H1536 C1520 0.931 . S
H1537 C1525 0.930 . S
H1538 C1526 0.956 . S
H1539 C1526 0.961 . S
H1540 C1526 0.961 . S
H1541 C1527 0.958 . S
H1542 C1527 0.961 . S
H1543 C1527 0.960 . S
C1544 C1545 1.391 . S
C1544 C1546 1.394 . S
C1544 H1560 0.931 . S
C1545 C1544 1.391 . S
C1545 C1549 1.376 . S
C1546 C1544 1.394 . S
C1546 C1547 1.369 . S
C1546 C1550 1.531 . S
C1547 C1546 1.369 . S
C1547 C1548 1.410 . S
C1547 C1555 1.503 . S
C1548 C1547 1.410 . S
C1548 C1549 1.392 . S
C1548 C1551 1.511 . S
C1549 C1545 1.376 . S
C1549 C1548 1.392 . S
C1549 H1561 0.929 . S
C1550 C1546 1.531 . S
C1550 H1562 0.960 . S
C1550 H1563 0.962 . S
C1550 H1564 0.960 . S
C1551 C1548 1.511 . S
C1551 H1565 0.961 . S
C1551 H1566 0.961 . S
C1551 H1567 0.961 . S
C1552 C1553 1.370 . S
C1552 C1554 1.363 . S
C1552 H1568 0.931 . S
C1553 C1552 1.370 . S
C1553 C1557 1.408 . S
C1554 C1552 1.363 . S
C1554 C1555 1.370 . S
C1554 C1558 1.524 . S
C1555 C1547 1.503 . S
C1555 C1554 1.370 . S
C1555 C1556 1.403 . S
C1556 C1555 1.403 . S
C1556 C1557 1.404 . S
C1556 C1559 1.539 . S
C1557 C1553 1.408 . S
C1557 C1556 1.404 . S
C1557 H1569 0.930 . S
C1558 C1554 1.524 . S
C1558 H1570 0.956 . S
C1558 H1571 0.961 . S
C1558 H1572 0.961 . S
C1559 C1556 1.539 . S
C1559 H1573 0.958 . S
C1559 H1574 0.961 . S
C1559 H1575 0.960 . S
H1560 C1544 0.931 . S
H1561 C1549 0.929 . S
H1562 C1550 0.960 . S
H1563 C1550 0.962 . S
H1564 C1550 0.960 . S
H1565 C1551 0.961 . S
H1566 C1551 0.961 . S
H1567 C1551 0.961 . S
H1568 C1552 0.931 . S
H1569 C1557 0.930 . S
H1570 C1558 0.956 . S
H1571 C1558 0.961 . S
H1572 C1558 0.961 . S
H1573 C1559 0.958 . S
H1574 C1559 0.961 . S
H1575 C1559 0.960 . S
C1576 C1577 1.391 . S
C1576 C1578 1.394 . S
C1576 H1592 0.931 . S
C1577 C1576 1.391 . S
C1577 C1581 1.376 . S
C1578 C1576 1.394 . S
C1578 C1579 1.369 . S
C1578 C1582 1.531 . S
C1579 C1578 1.369 . S
C1579 C1580 1.410 . S
C1579 C1587 1.503 . S
C1580 C1579 1.410 . S
C1580 C1581 1.392 . S
C1580 C1583 1.511 . S
C1581 C1577 1.376 . S
C1581 C1580 1.392 . S
C1581 H1593 0.929 . S
C1582 C1578 1.531 . S
C1582 H1594 0.960 . S
C1582 H1595 0.962 . S
C1582 H1596 0.960 . S
C1583 C1580 1.511 . S
C1583 H1597 0.961 . S
C1583 H1598 0.961 . S
C1583 H1599 0.961 . S
C1584 C1585 1.370 . S
C1584 C1586 1.363 . S
C1584 H1600 0.931 . S
C1585 C1584 1.370 . S
C1585 C1589 1.408 . S
C1586 C1584 1.363 . S
C1586 C1587 1.370 . S
C1586 C1590 1.524 . S
C1587 C1579 1.503 . S
C1587 C1586 1.370 . S
C1587 C1588 1.403 . S
C1588 C1587 1.403 . S
C1588 C1589 1.404 . S
C1588 C1591 1.539 . S
C1589 C1585 1.408 . S
C1589 C1588 1.404 . S
C1589 H1601 0.930 . S
C1590 C1586 1.524 . S
C1590 H1602 0.956 . S
C1590 H1603 0.961 . S
C1590 H1604 0.961 . S
C1591 C1588 1.539 . S
C1591 H1605 0.958 . S
C1591 H1606 0.961 . S
C1591 H1607 0.960 . S
H1592 C1576 0.931 . S
H1593 C1581 0.929 . S
H1594 C1582 0.960 . S
H1595 C1582 0.962 . S
H1596 C1582 0.960 . S
H1597 C1583 0.961 . S
H1598 C1583 0.961 . S
H1599 C1583 0.961 . S
H1600 C1584 0.931 . S
H1601 C1589 0.930 . S
H1602 C1590 0.956 . S
H1603 C1590 0.961 . S
H1604 C1590 0.961 . S
H1605 C1591 0.958 . S
H1606 C1591 0.961 . S
H1607 C1591 0.960 . S
C1608 C1609 1.435 . S
C1608 C1610 1.391 . S
C1608 H1624 0.892 1_545 S
C1609 C1608 1.435 . S
C1609 C1613 1.376 . S
C1610 C1608 1.391 . S
C1610 C1611 1.368 . S
C1610 C1614 1.532 1_545 S
C1611 C1610 1.368 . S
C1611 C1612 1.410 . S
C1611 C1619 1.503 . S
C1612 C1611 1.410 . S
C1612 C1613 1.392 . S
C1612 C1615 1.511 . S
C1613 C1609 1.376 . S
C1613 C1612 1.392 . S
C1613 H1625 0.929 . S
C1614 C1610 1.532 1_565 S
C1614 H1626 0.960 . S
C1614 H1627 0.962 . S
C1614 H1628 0.960 . S
C1615 C1612 1.511 . S
C1615 H1629 0.961 . S
C1615 H1630 0.961 . S
C1615 H1631 0.961 . S
C1616 C1617 1.380 . S
C1616 C1618 1.367 . S
C1616 H1632 0.918 1_545 S
C1617 C1616 1.380 . S
C1617 C1621 1.408 . S
C1618 C1616 1.367 . S
C1618 C1619 1.370 . S
C1618 C1622 1.524 1_545 S
C1619 C1611 1.503 . S
C1619 C1618 1.370 . S
C1619 C1620 1.403 . S
C1620 C1619 1.403 . S
C1620 C1621 1.404 . S
C1620 C1623 1.539 . S
C1621 C1617 1.408 . S
C1621 C1620 1.404 . S
C1621 H1633 0.930 . S
C1622 C1618 1.524 1_565 S
C1622 H1634 0.956 . S
C1622 H1635 0.961 1_565 S
C1622 H1636 0.961 . S
C1623 C1620 1.539 . S
C1623 H1637 0.958 . S
C1623 H1638 0.961 . S
C1623 H1639 0.960 . S
H1624 C1608 0.892 1_565 S
H1625 C1613 0.929 . S
H1626 C1614 0.960 . S
H1627 C1614 0.962 . S
H1628 C1614 0.960 . S
H1629 C1615 0.961 . S
H1630 C1615 0.961 . S
H1631 C1615 0.961 . S
H1632 C1616 0.918 1_565 S
H1633 C1621 0.930 . S
H1634 C1622 0.956 . S
H1635 C1622 0.961 1_545 S
H1636 C1622 0.961 . S
H1637 C1623 0.958 . S
H1638 C1623 0.961 . S
H1639 C1623 0.960 . S
C1640 C1641 1.391 . S
C1640 C1642 1.394 . S
C1640 H1656 0.931 . S
C1641 C1640 1.391 . S
C1641 C1645 1.376 . S
C1642 C1640 1.394 . S
C1642 C1643 1.369 . S
C1642 C1646 1.531 . S
C1643 C1642 1.369 . S
C1643 C1644 1.410 . S
C1643 C1651 1.503 . S
C1644 C1643 1.410 . S
C1644 C1645 1.392 . S
C1644 C1647 1.511 . S
C1645 C1641 1.376 . S
C1645 C1644 1.392 . S
C1645 H1657 0.929 . S
C1646 C1642 1.531 . S
C1646 H1658 0.960 . S
C1646 H1659 0.962 . S
C1646 H1660 0.960 . S
C1647 C1644 1.511 . S
C1647 H1661 0.961 . S
C1647 H1662 0.961 . S
C1647 H1663 0.961 . S
C1648 C1649 1.370 . S
C1648 C1650 1.363 . S
C1648 H1664 0.931 . S
C1649 C1648 1.370 . S
C1649 C1653 1.408 . S
C1650 C1648 1.363 . S
C1650 C1651 1.370 . S
C1650 C1654 1.524 . S
C1651 C1643 1.503 . S
C1651 C1650 1.370 . S
C1651 C1652 1.403 . S
C1652 C1651 1.403 . S
C1652 C1653 1.404 . S
C1652 C1655 1.539 . S
C1653 C1649 1.408 . S
C1653 C1652 1.404 . S
C1653 H1665 0.930 . S
C1654 C1650 1.524 . S
C1654 H1666 0.956 . S
C1654 H1667 0.961 . S
C1654 H1668 0.961 . S
C1655 C1652 1.539 . S
C1655 H1669 0.958 . S
C1655 H1670 0.961 . S
C1655 H1671 0.960 . S
H1656 C1640 0.931 . S
H1657 C1645 0.929 . S
H1658 C1646 0.960 . S
H1659 C1646 0.962 . S
H1660 C1646 0.960 . S
H1661 C1647 0.961 . S
H1662 C1647 0.961 . S
H1663 C1647 0.961 . S
H1664 C1648 0.931 . S
H1665 C1653 0.930 . S
H1666 C1654 0.956 . S
H1667 C1654 0.961 . S
H1668 C1654 0.961 . S
H1669 C1655 0.958 . S
H1670 C1655 0.961 . S
H1671 C1655 0.960 . S
C1672 C1673 1.391 . S
C1672 C1674 1.394 . S
C1672 H1688 0.931 . S
C1673 C1672 1.391 . S
C1673 C1677 1.376 . S
C1674 C1672 1.394 . S
C1674 C1675 1.369 . S
C1674 C1678 1.531 . S
C1675 C1674 1.369 . S
C1675 C1676 1.410 . S
C1675 C1683 1.503 . S
C1676 C1675 1.410 . S
C1676 C1677 1.392 . S
C1676 C1679 1.511 . S
C1677 C1673 1.376 . S
C1677 C1676 1.392 . S
C1677 H1689 0.929 . S
C1678 C1674 1.531 . S
C1678 H1690 0.960 . S
C1678 H1691 0.962 . S
C1678 H1692 0.960 . S
C1679 C1676 1.511 . S
C1679 H1693 0.961 . S
C1679 H1694 0.961 . S
C1679 H1695 0.961 . S
C1680 C1681 1.370 . S
C1680 C1682 1.363 . S
C1680 H1696 0.931 . S
C1681 C1680 1.370 . S
C1681 C1685 1.408 . S
C1682 C1680 1.363 . S
C1682 C1683 1.370 . S
C1682 C1686 1.524 . S
C1683 C1675 1.503 . S
C1683 C1682 1.370 . S
C1683 C1684 1.403 . S
C1684 C1683 1.403 . S
C1684 C1685 1.404 . S
C1684 C1687 1.539 . S
C1685 C1681 1.408 . S
C1685 C1684 1.404 . S
C1685 H1697 0.930 . S
C1686 C1682 1.524 . S
C1686 H1698 0.956 . S
C1686 H1699 0.961 . S
C1686 H1700 0.961 . S
C1687 C1684 1.539 . S
C1687 H1701 0.958 . S
C1687 H1702 0.961 . S
C1687 H1703 0.960 . S
H1688 C1672 0.931 . S
H1689 C1677 0.929 . S
H1690 C1678 0.960 . S
H1691 C1678 0.962 . S
H1692 C1678 0.960 . S
H1693 C1679 0.961 . S
H1694 C1679 0.961 . S
H1695 C1679 0.961 . S
H1696 C1680 0.931 . S
H1697 C1685 0.930 . S
H1698 C1686 0.956 . S
H1699 C1686 0.961 . S
H1700 C1686 0.961 . S
H1701 C1687 0.958 . S
H1702 C1687 0.961 . S
H1703 C1687 0.960 . S
C1704 C1705 1.391 . S
C1704 C1706 1.394 . S
C1704 H1720 0.931 . S
C1705 C1704 1.391 . S
C1705 C1709 1.376 . S
C1706 C1704 1.394 . S
C1706 C1707 1.369 . S
C1706 C1710 1.531 . S
C1707 C1706 1.369 . S
C1707 C1708 1.410 . S
C1707 C1715 1.503 . S
C1708 C1707 1.410 . S
C1708 C1709 1.392 . S
C1708 C1711 1.511 . S
C1709 C1705 1.376 . S
C1709 C1708 1.392 . S
C1709 H1721 0.929 . S
C1710 C1706 1.531 . S
C1710 H1722 0.960 . S
C1710 H1723 0.962 . S
C1710 H1724 0.960 . S
C1711 C1708 1.511 . S
C1711 H1725 0.961 . S
C1711 H1726 0.961 . S
C1711 H1727 0.961 . S
C1712 C1713 1.370 . S
C1712 C1714 1.363 . S
C1712 H1728 0.931 . S
C1713 C1712 1.370 . S
C1713 C1717 1.408 . S
C1714 C1712 1.363 . S
C1714 C1715 1.370 . S
C1714 C1718 1.524 . S
C1715 C1707 1.503 . S
C1715 C1714 1.370 . S
C1715 C1716 1.403 . S
C1716 C1715 1.403 . S
C1716 C1717 1.404 . S
C1716 C1719 1.539 . S
C1717 C1713 1.408 . S
C1717 C1716 1.404 . S
C1717 H1729 0.930 . S
C1718 C1714 1.524 . S
C1718 H1730 0.956 . S
C1718 H1731 0.961 . S
C1718 H1732 0.961 . S
C1719 C1716 1.539 . S
C1719 H1733 0.958 . S
C1719 H1734 0.961 . S
C1719 H1735 0.960 . S
H1720 C1704 0.931 . S
H1721 C1709 0.929 . S
H1722 C1710 0.960 . S
H1723 C1710 0.962 . S
H1724 C1710 0.960 . S
H1725 C1711 0.961 . S
H1726 C1711 0.961 . S
H1727 C1711 0.961 . S
H1728 C1712 0.931 . S
H1729 C1717 0.930 . S
H1730 C1718 0.956 . S
H1731 C1718 0.961 . S
H1732 C1718 0.961 . S
H1733 C1719 0.958 . S
H1734 C1719 0.961 . S
H1735 C1719 0.960 . S
C1736 C1737 1.391 . S
C1736 C1738 1.394 . S
C1736 H1752 0.931 . S
C1737 C1736 1.391 . S
C1737 C1741 1.376 . S
C1738 C1736 1.394 . S
C1738 C1739 1.369 . S
C1738 C1742 1.531 . S
C1739 C1738 1.369 . S
C1739 C1740 1.410 . S
C1739 C1747 1.503 . S
C1740 C1739 1.410 . S
C1740 C1741 1.392 . S
C1740 C1743 1.511 1_545 S
C1741 C1737 1.376 . S
C1741 C1740 1.392 . S
C1741 H1753 0.929 . S
C1742 C1738 1.531 . S
C1742 H1754 0.960 . S
C1742 H1755 0.962 . S
C1742 H1756 0.960 . S
C1743 C1740 1.511 1_565 S
C1743 H1757 0.961 . S
C1743 H1758 0.961 . S
C1743 H1759 0.961 1_565 S
C1744 C1745 1.370 . S
C1744 C1746 1.363 . S
C1744 H1760 0.931 . S
C1745 C1744 1.370 . S
C1745 C1749 1.408 . S
C1746 C1744 1.363 . S
C1746 C1747 1.370 . S
C1746 C1750 1.496 1_545 S
C1747 C1739 1.503 . S
C1747 C1746 1.370 . S
C1747 C1748 1.403 . S
C1748 C1747 1.403 . S
C1748 C1749 1.404 . S
C1748 C1751 1.539 . S
C1749 C1745 1.408 . S
C1749 C1748 1.404 . S
C1749 H1761 0.930 . S
C1750 C1746 1.496 1_565 S
C1750 H1762 0.930 1_565 S
C1750 H1763 0.986 . S
C1750 H1764 0.992 . S
C1751 C1748 1.539 . S
C1751 H1765 0.958 . S
C1751 H1766 0.961 . S
C1751 H1767 0.960 . S
H1752 C1736 0.931 . S
H1753 C1741 0.929 . S
H1754 C1742 0.960 . S
H1755 C1742 0.962 . S
H1756 C1742 0.960 . S
H1757 C1743 0.961 . S
H1758 C1743 0.961 . S
H1759 C1743 0.961 1_545 S
H1760 C1744 0.931 . S
H1761 C1749 0.930 . S
H1762 C1750 0.930 1_545 S
H1763 C1750 0.986 . S
H1764 C1750 0.992 . S
H1765 C1751 0.958 . S
H1766 C1751 0.961 . S
H1767 C1751 0.960 . S
C1768 C1769 1.391 . S
C1768 C1770 1.394 . S
C1768 H1784 0.931 . S
C1769 C1768 1.391 . S
C1769 C1773 1.376 . S
C1770 C1768 1.394 . S
C1770 C1771 1.369 . S
C1770 C1774 1.531 . S
C1771 C1770 1.369 . S
C1771 C1772 1.410 . S
C1771 C1779 1.503 . S
C1772 C1771 1.410 . S
C1772 C1773 1.392 . S
C1772 C1775 1.511 . S
C1773 C1769 1.376 . S
C1773 C1772 1.392 . S
C1773 H1785 0.929 . S
C1774 C1770 1.531 . S
C1774 H1786 0.960 . S
C1774 H1787 0.962 . S
C1774 H1788 0.960 . S
C1775 C1772 1.511 . S
C1775 H1789 0.961 . S
C1775 H1790 0.961 . S
C1775 H1791 0.961 . S
C1776 C1777 1.370 . S
C1776 C1778 1.363 . S
C1776 H1792 0.931 . S
C1777 C1776 1.370 . S
C1777 C1781 1.408 . S
C1778 C1776 1.363 . S
C1778 C1779 1.370 . S
C1778 C1782 1.524 . S
C1779 C1771 1.503 . S
C1779 C1778 1.370 . S
C1779 C1780 1.403 . S
C1780 C1779 1.403 . S
C1780 C1781 1.404 . S
C1780 C1783 1.539 . S
C1781 C1777 1.408 . S
C1781 C1780 1.404 . S
C1781 H1793 0.930 . S
C1782 C1778 1.524 . S
C1782 H1794 0.956 . S
C1782 H1795 0.961 . S
C1782 H1796 0.961 . S
C1783 C1780 1.539 . S
C1783 H1797 0.958 . S
C1783 H1798 0.961 . S
C1783 H1799 0.960 . S
H1784 C1768 0.931 . S
H1785 C1773 0.929 . S
H1786 C1774 0.960 . S
H1787 C1774 0.962 . S
H1788 C1774 0.960 . S
H1789 C1775 0.961 . S
H1790 C1775 0.961 . S
H1791 C1775 0.961 . S
H1792 C1776 0.931 . S
H1793 C1781 0.930 . S
H1794 C1782 0.956 . S
H1795 C1782 0.961 . S
H1796 C1782 0.961 . S
H1797 C1783 0.958 . S
H1798 C1783 0.961 . S
H1799 C1783 0.960 . S
C1800 C1801 1.391 . S
C1800 C1802 1.394 . S
C1800 H1816 0.931 . S
C1801 C1800 1.391 . S
C1801 C1805 1.376 . S
C1802 C1800 1.394 . S
C1802 C1803 1.369 . S
C1802 C1806 1.531 . S
C1803 C1802 1.369 . S
C1803 C1804 1.410 . S
C1803 C1811 1.503 . S
C1804 C1803 1.410 . S
C1804 C1805 1.392 . S
C1804 C1807 1.511 . S
C1805 C1801 1.376 . S
C1805 C1804 1.392 . S
C1805 H1817 0.929 . S
C1806 C1802 1.531 . S
C1806 H1818 0.960 . S
C1806 H1819 0.962 . S
C1806 H1820 0.960 . S
C1807 C1804 1.511 . S
C1807 H1821 0.961 . S
C1807 H1822 0.961 . S
C1807 H1823 0.961 . S
C1808 C1809 1.370 . S
C1808 C1810 1.363 . S
C1808 H1824 0.931 . S
C1809 C1808 1.370 . S
C1809 C1813 1.408 . S
C1810 C1808 1.363 . S
C1810 C1811 1.370 . S
C1810 C1814 1.524 . S
C1811 C1803 1.503 . S
C1811 C1810 1.370 . S
C1811 C1812 1.403 . S
C1812 C1811 1.403 . S
C1812 C1813 1.404 . S
C1812 C1815 1.539 . S
C1813 C1809 1.408 . S
C1813 C1812 1.404 . S
C1813 H1825 0.930 . S
C1814 C1810 1.524 . S
C1814 H1826 0.956 . S
C1814 H1827 0.961 . S
C1814 H1828 0.961 . S
C1815 C1812 1.539 . S
C1815 H1829 0.958 . S
C1815 H1830 0.961 . S
C1815 H1831 0.960 . S
H1816 C1800 0.931 . S
H1817 C1805 0.929 . S
H1818 C1806 0.960 . S
H1819 C1806 0.962 . S
H1820 C1806 0.960 . S
H1821 C1807 0.961 . S
H1822 C1807 0.961 . S
H1823 C1807 0.961 . S
H1824 C1808 0.931 . S
H1825 C1813 0.930 . S
H1826 C1814 0.956 . S
H1827 C1814 0.961 . S
H1828 C1814 0.961 . S
H1829 C1815 0.958 . S
H1830 C1815 0.961 . S
H1831 C1815 0.960 . S
C1832 C1833 1.391 . S
C1832 C1834 1.394 . S
C1832 H1848 0.931 . S
C1833 C1832 1.391 . S
C1833 C1837 1.376 . S
C1834 C1832 1.394 . S
C1834 C1835 1.369 . S
C1834 C1838 1.531 . S
C1835 C1834 1.369 . S
C1835 C1836 1.410 . S
C1835 C1843 1.503 . S
C1836 C1835 1.410 . S
C1836 C1837 1.392 . S
C1836 C1839 1.511 . S
C1837 C1833 1.376 . S
C1837 C1836 1.392 . S
C1837 H1849 0.929 . S
C1838 C1834 1.531 . S
C1838 H1850 0.960 . S
C1838 H1851 0.962 . S
C1838 H1852 0.960 . S
C1839 C1836 1.511 . S
C1839 H1853 0.961 . S
C1839 H1854 0.961 . S
C1839 H1855 0.961 . S
C1840 C1841 1.370 . S
C1840 C1842 1.363 . S
C1840 H1856 0.931 . S
C1841 C1840 1.370 . S
C1841 C1845 1.408 . S
C1842 C1840 1.363 . S
C1842 C1843 1.370 . S
C1842 C1846 1.524 . S
C1843 C1835 1.503 . S
C1843 C1842 1.370 . S
C1843 C1844 1.403 . S
C1844 C1843 1.403 . S
C1844 C1845 1.404 . S
C1844 C1847 1.539 . S
C1845 C1841 1.408 . S
C1845 C1844 1.404 . S
C1845 H1857 0.930 . S
C1846 C1842 1.524 . S
C1846 H1858 0.956 . S
C1846 H1859 0.961 . S
C1846 H1860 0.961 . S
C1847 C1844 1.539 . S
C1847 H1861 0.958 . S
C1847 H1862 0.961 . S
C1847 H1863 0.960 . S
H1848 C1832 0.931 . S
H1849 C1837 0.929 . S
H1850 C1838 0.960 . S
H1851 C1838 0.962 . S
H1852 C1838 0.960 . S
H1853 C1839 0.961 . S
H1854 C1839 0.961 . S
H1855 C1839 0.961 . S
H1856 C1840 0.931 . S
H1857 C1845 0.930 . S
H1858 C1846 0.956 . S
H1859 C1846 0.961 . S
H1860 C1846 0.961 . S
H1861 C1847 0.958 . S
H1862 C1847 0.961 . S
H1863 C1847 0.960 . S
C1864 C1865 1.391 1_455 S
C1864 C1866 1.394 . S
C1864 H1880 0.931 . S
C1865 C1864 1.391 1_655 S
C1865 C1869 1.376 . S
C1866 C1864 1.394 . S
C1866 C1867 1.369 . S
C1866 C1870 1.531 . S
C1867 C1866 1.369 . S
C1867 C1868 1.410 1_455 S
C1867 C1875 1.503 . S
C1868 C1867 1.410 1_655 S
C1868 C1869 1.392 . S
C1868 C1871 1.511 . S
C1869 C1865 1.376 . S
C1869 C1868 1.392 . S
C1869 H1881 0.929 . S
C1870 C1866 1.531 . S
C1870 H1882 0.960 . S
C1870 H1883 0.962 . S
C1870 H1884 0.960 . S
C1871 C1868 1.511 . S
C1871 H1885 0.961 . S
C1871 H1886 0.961 . S
C1871 H1887 0.961 . S
C1872 C1873 1.370 . S
C1872 C1874 1.363 . S
C1872 H1888 0.931 . S
C1873 C1872 1.370 . S
C1873 C1877 1.408 . S
C1874 C1872 1.363 . S
C1874 C1875 1.370 . S
C1874 C1878 1.524 . S
C1875 C1867 1.503 . S
C1875 C1874 1.370 . S
C1875 C1876 1.403 . S
C1876 C1875 1.403 . S
C1876 C1877 1.404 . S
C1876 C1879 1.551 . S
C1877 C1873 1.408 . S
C1877 C1876 1.404 . S
C1877 H1889 0.930 . S
C1878 C1874 1.524 . S
C1878 H1890 0.956 . S
C1878 H1891 0.961 1_455 S
C1878 H1892 0.961 . S
C1879 C1876 1.551 . S
C1879 H1893 1.007 . S
C1879 H1894 0.937 1_455 S
C1879 H1895 0.927 1_455 S
H1880 C1864 0.931 . S
H1881 C1869 0.929 . S
H1882 C1870 0.960 . S
H1883 C1870 0.962 . S
H1884 C1870 0.960 . S
H1885 C1871 0.961 . S
H1886 C1871 0.961 . S
H1887 C1871 0.961 . S
H1888 C1872 0.931 . S
H1889 C1877 0.930 . S
H1890 C1878 0.956 . S
H1891 C1878 0.961 1_655 S
H1892 C1878 0.961 . S
H1893 C1879 1.007 . S
H1894 C1879 0.937 1_655 S
H1895 C1879 0.927 1_655 S
C1896 C1897 1.391 . S
C1896 C1898 1.394 . S
C1896 H1912 0.931 . S
C1897 C1896 1.391 . S
C1897 C1901 1.376 . S
C1898 C1896 1.394 . S
C1898 C1899 1.369 . S
C1898 C1902 1.531 . S
C1899 C1898 1.369 . S
C1899 C1900 1.410 . S
C1899 C1907 1.503 . S
C1900 C1899 1.410 . S
C1900 C1901 1.392 . S
C1900 C1903 1.511 . S
C1901 C1897 1.376 . S
C1901 C1900 1.392 . S
C1901 H1913 0.929 . S
C1902 C1898 1.531 . S
C1902 H1914 0.960 . S
C1902 H1915 0.962 . S
C1902 H1916 0.960 . S
C1903 C1900 1.511 . S
C1903 H1917 0.961 . S
C1903 H1918 0.961 . S
C1903 H1919 0.961 . S
C1904 C1905 1.370 . S
C1904 C1906 1.363 . S
C1904 H1920 0.931 . S
C1905 C1904 1.370 . S
C1905 C1909 1.408 . S
C1906 C1904 1.363 . S
C1906 C1907 1.370 . S
C1906 C1910 1.524 . S
C1907 C1899 1.503 . S
C1907 C1906 1.370 . S
C1907 C1908 1.403 . S
C1908 C1907 1.403 . S
C1908 C1909 1.404 . S
C1908 C1911 1.539 . S
C1909 C1905 1.408 . S
C1909 C1908 1.404 . S
C1909 H1921 0.930 . S
C1910 C1906 1.524 . S
C1910 H1922 0.956 . S
C1910 H1923 0.961 . S
C1910 H1924 0.961 . S
C1911 C1908 1.539 . S
C1911 H1925 0.958 . S
C1911 H1926 0.961 . S
C1911 H1927 0.960 . S
H1912 C1896 0.931 . S
H1913 C1901 0.929 . S
H1914 C1902 0.960 . S
H1915 C1902 0.962 . S
H1916 C1902 0.960 . S
H1917 C1903 0.961 . S
H1918 C1903 0.961 . S
H1919 C1903 0.961 . S
H1920 C1904 0.931 . S
H1921 C1909 0.930 . S
H1922 C1910 0.956 . S
H1923 C1910 0.961 . S
H1924 C1910 0.961 . S
H1925 C1911 0.958 . S
H1926 C1911 0.961 . S
H1927 C1911 0.960 . S
C1928 C1929 1.391 . S
C1928 C1930 1.394 . S
C1928 H1944 0.931 . S
C1929 C1928 1.391 . S
C1929 C1933 1.376 . S
C1930 C1928 1.394 . S
C1930 C1931 1.369 . S
C1930 C1934 1.531 . S
C1931 C1930 1.369 . S
C1931 C1932 1.410 . S
C1931 C1939 1.503 . S
C1932 C1931 1.410 . S
C1932 C1933 1.392 . S
C1932 C1935 1.511 . S
C1933 C1929 1.376 . S
C1933 C1932 1.392 . S
C1933 H1945 0.929 . S
C1934 C1930 1.531 . S
C1934 H1946 0.960 . S
C1934 H1947 0.962 1_455 S
C1934 H1948 0.967 . S
C1935 C1932 1.511 . S
C1935 H1949 0.961 . S
C1935 H1950 0.961 . S
C1935 H1951 0.961 . S
C1936 C1937 1.370 . S
C1936 C1938 1.363 . S
C1936 H1952 0.955 . S
C1937 C1936 1.370 . S
C1937 C1941 1.408 . S
C1938 C1936 1.363 . S
C1938 C1939 1.370 . S
C1938 C1942 1.524 1_455 S
C1939 C1931 1.503 . S
C1939 C1938 1.370 . S
C1939 C1940 1.403 . S
C1940 C1939 1.403 . S
C1940 C1941 1.404 . S
C1940 C1943 1.539 . S
C1941 C1937 1.408 . S
C1941 C1940 1.404 . S
C1941 H1953 0.930 . S
C1942 C1938 1.524 1_655 S
C1942 H1954 0.956 . S
C1942 H1955 0.961 1_655 S
C1942 H1956 0.961 . S
C1943 C1940 1.539 . S
C1943 H1957 0.958 . S
C1943 H1958 0.961 . S
C1943 H1959 0.960 . S
H1944 C1928 0.931 . S
H1945 C1933 0.929 . S
H1946 C1934 0.960 . S
H1947 C1934 0.962 1_655 S
H1948 C1934 0.967 . S
H1949 C1935 0.961 . S
H1950 C1935 0.961 . S
H1951 C1935 0.961 . S
H1952 C1936 0.955 . S
H1953 C1941 0.930 . S
H1954 C1942 0.956 . S
H1955 C1942 0.961 1_455 S
H1956 C1942 0.961 . S
H1957 C1943 0.958 . S
H1958 C1943 0.961 . S
H1959 C1943 0.960 . S
C1960 C1961 1.391 . S
C1960 C1962 1.394 . S
C1960 H1976 0.931 . S
C1961 C1960 1.391 . S
C1961 C1965 1.376 . S
C1962 C1960 1.394 . S
C1962 C1963 1.369 . S
C1962 C1966 1.531 . S
C1963 C1962 1.369 . S
C1963 C1964 1.410 . S
C1963 C1971 1.503 . S
C1964 C1963 1.410 . S
C1964 C1965 1.392 . S
C1964 C1967 1.511 . S
C1965 C1961 1.376 . S
C1965 C1964 1.392 . S
C1965 H1977 0.929 . S
C1966 C1962 1.531 . S
C1966 H1978 0.960 . S
C1966 H1979 0.962 . S
C1966 H1980 0.960 . S
C1967 C1964 1.511 . S
C1967 H1981 0.961 . S
C1967 H1982 0.961 . S
C1967 H1983 0.961 . S
C1968 C1969 1.370 . S
C1968 C1970 1.363 . S
C1968 H1984 0.931 . S
C1969 C1968 1.370 . S
C1969 C1973 1.408 . S
C1970 C1968 1.363 . S
C1970 C1971 1.370 . S
C1970 C1974 1.524 . S
C1971 C1963 1.503 . S
C1971 C1970 1.370 . S
C1971 C1972 1.403 . S
C1972 C1971 1.403 . S
C1972 C1973 1.404 . S
C1972 C1975 1.539 . S
C1973 C1969 1.408 . S
C1973 C1972 1.404 . S
C1973 H1985 0.930 . S
C1974 C1970 1.524 . S
C1974 H1986 0.956 . S
C1974 H1987 0.961 . S
C1974 H1988 0.961 . S
C1975 C1972 1.539 . S
C1975 H1989 0.958 . S
C1975 H1990 0.961 . S
C1975 H1991 0.960 . S
H1976 C1960 0.931 . S
H1977 C1965 0.929 . S
H1978 C1966 0.960 . S
H1979 C1966 0.962 . S
H1980 C1966 0.960 . S
H1981 C1967 0.961 . S
H1982 C1967 0.961 . S
H1983 C1967 0.961 . S
H1984 C1968 0.931 . S
H1985 C1973 0.930 . S
H1986 C1974 0.956 . S
H1987 C1974 0.961 . S
H1988 C1974 0.961 . S
H1989 C1975 0.958 . S
H1990 C1975 0.961 . S
H1991 C1975 0.960 . S
C1992 C1993 1.391 . S
C1992 C1994 1.394 . S
C1992 H2008 0.931 . S
C1993 C1992 1.391 . S
C1993 C1997 1.376 . S
C1994 C1992 1.394 . S
C1994 C1995 1.369 . S
C1994 C1998 1.531 . S
C1995 C1994 1.369 . S
C1995 C1996 1.410 . S
C1995 C2003 1.503 . S
C1996 C1995 1.410 . S
C1996 C1997 1.392 . S
C1996 C1999 1.511 . S
C1997 C1993 1.376 . S
C1997 C1996 1.392 . S
C1997 H2009 0.929 . S
C1998 C1994 1.531 . S
C1998 H2010 0.960 . S
C1998 H2011 0.962 . S
C1998 H2012 0.960 . S
C1999 C1996 1.511 . S
C1999 H2013 0.961 . S
C1999 H2014 0.961 . S
C1999 H2015 0.961 . S
C2000 C2001 1.370 . S
C2000 C2002 1.363 . S
C2000 H2016 0.931 . S
C2001 C2000 1.370 . S
C2001 C2005 1.408 . S
C2002 C2000 1.363 . S
C2002 C2003 1.370 . S
C2002 C2006 1.524 . S
C2003 C1995 1.503 . S
C2003 C2002 1.370 . S
C2003 C2004 1.403 . S
C2004 C2003 1.403 . S
C2004 C2005 1.404 . S
C2004 C2007 1.539 . S
C2005 C2001 1.408 . S
C2005 C2004 1.404 . S
C2005 H2017 0.930 . S
C2006 C2002 1.524 . S
C2006 H2018 0.956 . S
C2006 H2019 0.961 . S
C2006 H2020 0.961 . S
C2007 C2004 1.539 . S
C2007 H2021 0.958 . S
C2007 H2022 0.961 . S
C2007 H2023 0.960 . S
H2008 C1992 0.931 . S
H2009 C1997 0.929 . S
H2010 C1998 0.960 . S
H2011 C1998 0.962 . S
H2012 C1998 0.960 . S
H2013 C1999 0.961 . S
H2014 C1999 0.961 . S
H2015 C1999 0.961 . S
H2016 C2000 0.931 . S
H2017 C2005 0.930 . S
H2018 C2006 0.956 . S
H2019 C2006 0.961 . S
H2020 C2006 0.961 . S
H2021 C2007 0.958 . S
H2022 C2007 0.961 . S
H2023 C2007 0.960 . S
C2024 C2025 1.391 . S
C2024 C2026 1.394 . S
C2024 H2040 0.931 . S
C2025 C2024 1.391 . S
C2025 C2029 1.376 . S
C2026 C2024 1.394 . S
C2026 C2027 1.369 . S
C2026 C2030 1.531 . S
C2027 C2026 1.369 . S
C2027 C2028 1.410 . S
C2027 C2035 1.503 . S
C2028 C2027 1.410 . S
C2028 C2029 1.392 . S
C2028 C2031 1.511 . S
C2029 C2025 1.376 . S
C2029 C2028 1.392 . S
C2029 H2041 0.929 . S
C2030 C2026 1.531 . S
C2030 H2042 0.960 . S
C2030 H2043 0.962 . S
C2030 H2044 0.960 . S
C2031 C2028 1.511 . S
C2031 H2045 0.961 . S
C2031 H2046 0.961 . S
C2031 H2047 0.961 . S
C2032 C2033 1.370 . S
C2032 C2034 1.363 . S
C2032 H2048 0.931 . S
C2033 C2032 1.370 . S
C2033 C2037 1.408 . S
C2034 C2032 1.363 . S
C2034 C2035 1.370 . S
C2034 C2038 1.524 . S
C2035 C2027 1.503 . S
C2035 C2034 1.370 . S
C2035 C2036 1.403 . S
C2036 C2035 1.403 . S
C2036 C2037 1.404 . S
C2036 C2039 1.539 . S
C2037 C2033 1.408 . S
C2037 C2036 1.404 . S
C2037 H2049 0.930 . S
C2038 C2034 1.524 . S
C2038 H2050 0.956 . S
C2038 H2051 0.961 . S
C2038 H2052 0.961 . S
C2039 C2036 1.539 . S
C2039 H2053 0.958 . S
C2039 H2054 0.961 . S
C2039 H2055 0.960 . S
H2040 C2024 0.931 . S
H2041 C2029 0.929 . S
H2042 C2030 0.960 . S
H2043 C2030 0.962 . S
H2044 C2030 0.960 . S
H2045 C2031 0.961 . S
H2046 C2031 0.961 . S
H2047 C2031 0.961 . S
H2048 C2032 0.931 . S
H2049 C2037 0.930 . S
H2050 C2038 0.956 . S
H2051 C2038 0.961 . S
H2052 C2038 0.961 . S
H2053 C2039 0.958 . S
H2054 C2039 0.961 . S
H2055 C2039 0.960 . S
C2056 C2057 1.391 . S
C2056 C2058 1.394 . S
C2056 H2072 0.931 . S
C2057 C2056 1.391 . S
C2057 C2061 1.376 . S
C2058 C2056 1.394 . S
C2058 C2059 1.369 . S
C2058 C2062 1.531 . S
C2059 C2058 1.369 . S
C2059 C2060 1.410 . S
C2059 C2067 1.503 . S
C2060 C2059 1.410 . S
C2060 C2061 1.392 . S
C2060 C2063 1.511 . S
C2061 C2057 1.376 . S
C2061 C2060 1.392 . S
C2061 H2073 0.929 . S
C2062 C2058 1.531 . S
C2062 H2074 0.960 . S
C2062 H2075 0.962 . S
C2062 H2076 0.960 . S
C2063 C2060 1.511 . S
C2063 H2077 0.961 . S
C2063 H2078 0.961 . S
C2063 H2079 0.961 . S
C2064 C2065 1.370 . S
C2064 C2066 1.363 . S
C2064 H2080 0.931 . S
C2065 C2064 1.370 . S
C2065 C2069 1.408 . S
C2066 C2064 1.363 . S
C2066 C2067 1.370 . S
C2066 C2070 1.524 . S
C2067 C2059 1.503 . S
C2067 C2066 1.370 . S
C2067 C2068 1.403 . S
C2068 C2067 1.403 . S
C2068 C2069 1.404 . S
C2068 C2071 1.539 . S
C2069 C2065 1.408 . S
C2069 C2068 1.404 . S
C2069 H2081 0.930 . S
C2070 C2066 1.524 . S
C2070 H2082 0.956 . S
C2070 H2083 0.961 . S
C2070 H2084 0.961 . S
C2071 C2068 1.539 . S
C2071 H2085 0.958 . S
C2071 H2086 0.961 . S
C2071 H2087 0.960 . S
H2072 C2056 0.931 . S
H2073 C2061 0.929 . S
H2074 C2062 0.960 . S
H2075 C2062 0.962 . S
H2076 C2062 0.960 . S
H2077 C2063 0.961 . S
H2078 C2063 0.961 . S
H2079 C2063 0.961 . S
H2080 C2064 0.931 . S
H2081 C2069 0.930 . S
H2082 C2070 0.956 . S
H2083 C2070 0.961 . S
H2084 C2070 0.961 . S
H2085 C2071 0.958 . S
H2086 C2071 0.961 . S
H2087 C2071 0.960 . S
C2088 C2089 1.391 . S
C2088 C2090 1.394 . S
C2088 H2104 0.931 . S
C2089 C2088 1.391 . S
C2089 C2093 1.376 . S
C2090 C2088 1.394 . S
C2090 C2091 1.369 . S
C2090 C2094 1.531 . S
C2091 C2090 1.369 . S
C2091 C2092 1.410 . S
C2091 C2099 1.503 . S
C2092 C2091 1.410 . S
C2092 C2093 1.392 . S
C2092 C2095 1.511 . S
C2093 C2089 1.376 . S
C2093 C2092 1.392 . S
C2093 H2105 0.929 . S
C2094 C2090 1.531 . S
C2094 H2106 0.960 . S
C2094 H2107 0.962 . S
C2094 H2108 0.960 . S
C2095 C2092 1.511 . S
C2095 H2109 0.961 . S
C2095 H2110 0.961 . S
C2095 H2111 0.961 . S
C2096 C2097 1.370 . S
C2096 C2098 1.363 . S
C2096 H2112 0.931 . S
C2097 C2096 1.370 . S
C2097 C2101 1.408 . S
C2098 C2096 1.363 . S
C2098 C2099 1.370 . S
C2098 C2102 1.524 . S
C2099 C2091 1.503 . S
C2099 C2098 1.370 . S
C2099 C2100 1.403 . S
C2100 C2099 1.403 . S
C2100 C2101 1.404 . S
C2100 C2103 1.539 . S
C2101 C2097 1.408 . S
C2101 C2100 1.404 . S
C2101 H2113 0.930 . S
C2102 C2098 1.524 . S
C2102 H2114 0.956 . S
C2102 H2115 0.961 . S
C2102 H2116 0.961 . S
C2103 C2100 1.539 . S
C2103 H2117 0.958 . S
C2103 H2118 0.961 . S
C2103 H2119 0.960 . S
H2104 C2088 0.931 . S
H2105 C2093 0.929 . S
H2106 C2094 0.960 . S
H2107 C2094 0.962 . S
H2108 C2094 0.960 . S
H2109 C2095 0.961 . S
H2110 C2095 0.961 . S
H2111 C2095 0.961 . S
H2112 C2096 0.931 . S
H2113 C2101 0.930 . S
H2114 C2102 0.956 . S
H2115 C2102 0.961 . S
H2116 C2102 0.961 . S
H2117 C2103 0.958 . S
H2118 C2103 0.961 . S
H2119 C2103 0.960 . S
C2120 C2121 1.391 . S
C2120 C2122 1.394 . S
C2120 H2136 0.931 . S
C2121 C2120 1.391 . S
C2121 C2125 1.376 . S
C2122 C2120 1.394 . S
C2122 C2123 1.369 . S
C2122 C2126 1.531 . S
C2123 C2122 1.369 . S
C2123 C2124 1.410 . S
C2123 C2131 1.503 . S
C2124 C2123 1.410 . S
C2124 C2125 1.392 . S
C2124 C2127 1.511 . S
C2125 C2121 1.376 . S
C2125 C2124 1.392 . S
C2125 H2137 0.929 . S
C2126 C2122 1.531 . S
C2126 H2138 0.960 . S
C2126 H2139 0.962 . S
C2126 H2140 0.960 . S
C2127 C2124 1.511 . S
C2127 H2141 0.961 . S
C2127 H2142 0.961 . S
C2127 H2143 0.961 . S
C2128 C2129 1.370 . S
C2128 C2130 1.363 . S
C2128 H2144 0.931 . S
C2129 C2128 1.370 . S
C2129 C2133 1.408 . S
C2130 C2128 1.363 . S
C2130 C2131 1.370 . S
C2130 C2134 1.524 . S
C2131 C2123 1.503 . S
C2131 C2130 1.370 . S
C2131 C2132 1.403 . S
C2132 C2131 1.403 . S
C2132 C2133 1.404 . S
C2132 C2135 1.539 . S
C2133 C2129 1.408 . S
C2133 C2132 1.404 . S
C2133 H2145 0.930 . S
C2134 C2130 1.524 . S
C2134 H2146 0.956 . S
C2134 H2147 0.961 . S
C2134 H2148 0.961 . S
C2135 C2132 1.539 . S
C2135 H2149 0.958 . S
C2135 H2150 0.961 . S
C2135 H2151 0.960 . S
H2136 C2120 0.931 . S
H2137 C2125 0.929 . S
H2138 C2126 0.960 . S
H2139 C2126 0.962 . S
H2140 C2126 0.960 . S
H2141 C2127 0.961 . S
H2142 C2127 0.961 . S
H2143 C2127 0.961 . S
H2144 C2128 0.931 . S
H2145 C2133 0.930 . S
H2146 C2134 0.956 . S
H2147 C2134 0.961 . S
H2148 C2134 0.961 . S
H2149 C2135 0.958 . S
H2150 C2135 0.961 . S
H2151 C2135 0.960 . S
C2152 C2153 1.391 . S
C2152 C2154 1.394 . S
C2152 H2168 0.931 . S
C2153 C2152 1.391 . S
C2153 C2157 1.376 . S
C2154 C2152 1.394 . S
C2154 C2155 1.369 . S
C2154 C2158 1.531 . S
C2155 C2154 1.369 . S
C2155 C2156 1.410 . S
C2155 C2163 1.503 . S
C2156 C2155 1.410 . S
C2156 C2157 1.392 . S
C2156 C2159 1.511 . S
C2157 C2153 1.376 . S
C2157 C2156 1.392 . S
C2157 H2169 0.929 . S
C2158 C2154 1.531 . S
C2158 H2170 0.960 . S
C2158 H2171 0.962 . S
C2158 H2172 0.960 . S
C2159 C2156 1.511 . S
C2159 H2173 0.961 . S
C2159 H2174 0.961 . S
C2159 H2175 0.961 . S
C2160 C2161 1.370 . S
C2160 C2162 1.363 . S
C2160 H2176 0.931 . S
C2161 C2160 1.370 . S
C2161 C2165 1.408 . S
C2162 C2160 1.363 . S
C2162 C2163 1.370 . S
C2162 C2166 1.524 . S
C2163 C2155 1.503 . S
C2163 C2162 1.370 . S
C2163 C2164 1.403 . S
C2164 C2163 1.403 . S
C2164 C2165 1.404 . S
C2164 C2167 1.539 . S
C2165 C2161 1.408 . S
C2165 C2164 1.404 . S
C2165 H2177 0.930 . S
C2166 C2162 1.524 . S
C2166 H2178 0.956 . S
C2166 H2179 0.961 . S
C2166 H2180 0.961 . S
C2167 C2164 1.539 . S
C2167 H2181 0.958 . S
C2167 H2182 0.961 . S
C2167 H2183 0.960 . S
H2168 C2152 0.931 . S
H2169 C2157 0.929 . S
H2170 C2158 0.960 . S
H2171 C2158 0.962 . S
H2172 C2158 0.960 . S
H2173 C2159 0.961 . S
H2174 C2159 0.961 . S
H2175 C2159 0.961 . S
H2176 C2160 0.931 . S
H2177 C2165 0.930 . S
H2178 C2166 0.956 . S
H2179 C2166 0.961 . S
H2180 C2166 0.961 . S
H2181 C2167 0.958 . S
H2182 C2167 0.961 . S
H2183 C2167 0.960 . S
C2184 C2185 1.391 . S
C2184 C2186 1.394 . S
C2184 H2200 0.931 . S
C2185 C2184 1.391 . S
C2185 C2189 1.376 . S
C2186 C2184 1.394 . S
C2186 C2187 1.369 . S
C2186 C2190 1.531 . S
C2187 C2186 1.369 . S
C2187 C2188 1.410 . S
C2187 C2195 1.503 . S
C2188 C2187 1.410 . S
C2188 C2189 1.392 . S
C2188 C2191 1.511 . S
C2189 C2185 1.376 . S
C2189 C2188 1.392 . S
C2189 H2201 0.929 . S
C2190 C2186 1.531 . S
C2190 H2202 0.960 . S
C2190 H2203 0.962 . S
C2190 H2204 0.960 . S
C2191 C2188 1.511 . S
C2191 H2205 0.961 . S
C2191 H2206 0.961 . S
C2191 H2207 0.961 . S
C2192 C2193 1.370 . S
C2192 C2194 1.363 . S
C2192 H2208 0.931 . S
C2193 C2192 1.370 . S
C2193 C2197 1.408 . S
C2194 C2192 1.363 . S
C2194 C2195 1.370 . S
C2194 C2198 1.524 . S
C2195 C2187 1.503 . S
C2195 C2194 1.370 . S
C2195 C2196 1.403 . S
C2196 C2195 1.403 . S
C2196 C2197 1.404 . S
C2196 C2199 1.539 . S
C2197 C2193 1.408 . S
C2197 C2196 1.404 . S
C2197 H2209 0.930 . S
C2198 C2194 1.524 . S
C2198 H2210 0.956 . S
C2198 H2211 0.961 . S
C2198 H2212 0.961 . S
C2199 C2196 1.539 . S
C2199 H2213 0.958 . S
C2199 H2214 0.961 . S
C2199 H2215 0.960 . S
H2200 C2184 0.931 . S
H2201 C2189 0.929 . S
H2202 C2190 0.960 . S
H2203 C2190 0.962 . S
H2204 C2190 0.960 . S
H2205 C2191 0.961 . S
H2206 C2191 0.961 . S
H2207 C2191 0.961 . S
H2208 C2192 0.931 . S
H2209 C2197 0.930 . S
H2210 C2198 0.956 . S
H2211 C2198 0.961 . S
H2212 C2198 0.961 . S
H2213 C2199 0.958 . S
H2214 C2199 0.961 . S
H2215 C2199 0.960 . S
C2216 C2217 1.391 . S
C2216 C2218 1.394 . S
C2216 H2232 0.931 . S
C2217 C2216 1.391 . S
C2217 C2221 1.376 . S
C2218 C2216 1.394 . S
C2218 C2219 1.369 . S
C2218 C2222 1.531 . S
C2219 C2218 1.369 . S
C2219 C2220 1.410 . S
C2219 C2227 1.503 . S
C2220 C2219 1.410 . S
C2220 C2221 1.392 . S
C2220 C2223 1.511 . S
C2221 C2217 1.376 . S
C2221 C2220 1.392 . S
C2221 H2233 0.929 . S
C2222 C2218 1.531 . S
C2222 H2234 0.960 . S
C2222 H2235 1.023 . S
C2222 H2236 0.960 . S
C2223 C2220 1.511 . S
C2223 H2237 0.961 . S
C2223 H2238 0.961 . S
C2223 H2239 0.961 . S
C2224 C2225 1.370 1_554 S
C2224 C2226 1.363 . S
C2224 H2240 0.931 . S
C2225 C2224 1.370 1_556 S
C2225 C2229 1.408 . S
C2226 C2224 1.363 . S
C2226 C2227 1.370 1_554 S
C2226 C2230 1.524 . S
C2227 C2219 1.503 . S
C2227 C2226 1.370 1_556 S
C2227 C2228 1.403 . S
C2228 C2227 1.403 . S
C2228 C2229 1.404 . S
C2228 C2231 1.539 . S
C2229 C2225 1.408 . S
C2229 C2228 1.404 . S
C2229 H2241 0.930 . S
C2230 C2226 1.524 . S
C2230 H2242 0.956 . S
C2230 H2243 0.961 . S
C2230 H2244 0.961 . S
C2231 C2228 1.539 . S
C2231 H2245 0.958 . S
C2231 H2246 0.961 . S
C2231 H2247 0.960 . S
H2232 C2216 0.931 . S
H2233 C2221 0.929 . S
H2234 C2222 0.960 . S
H2235 C2222 1.023 . S
H2236 C2222 0.960 . S
H2237 C2223 0.961 . S
H2238 C2223 0.961 . S
H2239 C2223 0.961 . S
H2240 C2224 0.931 . S
H2241 C2229 0.930 . S
H2242 C2230 0.956 . S
H2243 C2230 0.961 . S
H2244 C2230 0.961 . S
H2245 C2231 0.958 . S
H2246 C2231 0.961 . S
H2247 C2231 0.960 . S
C2248 C2249 1.391 . S
C2248 C2250 1.394 . S
C2248 H2264 0.931 . S
C2249 C2248 1.391 . S
C2249 C2253 1.376 . S
C2250 C2248 1.394 . S
C2250 C2251 1.369 . S
C2250 C2254 1.531 . S
C2251 C2250 1.369 . S
C2251 C2252 1.410 . S
C2251 C2259 1.503 . S
C2252 C2251 1.410 . S
C2252 C2253 1.392 . S
C2252 C2255 1.511 . S
C2253 C2249 1.376 . S
C2253 C2252 1.392 . S
C2253 H2265 0.929 . S
C2254 C2250 1.531 . S
C2254 H2266 0.960 . S
C2254 H2267 0.962 . S
C2254 H2268 0.960 . S
C2255 C2252 1.511 . S
C2255 H2269 0.961 . S
C2255 H2270 0.961 . S
C2255 H2271 0.961 . S
C2256 C2257 1.370 . S
C2256 C2258 1.363 . S
C2256 H2272 0.931 . S
C2257 C2256 1.370 . S
C2257 C2261 1.408 . S
C2258 C2256 1.363 . S
C2258 C2259 1.370 . S
C2258 C2262 1.524 . S
C2259 C2251 1.503 . S
C2259 C2258 1.370 . S
C2259 C2260 1.403 . S
C2260 C2259 1.403 . S
C2260 C2261 1.404 . S
C2260 C2263 1.539 . S
C2261 C2257 1.408 . S
C2261 C2260 1.404 . S
C2261 H2273 0.930 . S
C2262 C2258 1.524 . S
C2262 H2274 0.956 . S
C2262 H2275 0.961 . S
C2262 H2276 0.961 . S
C2263 C2260 1.539 . S
C2263 H2277 0.958 . S
C2263 H2278 0.961 . S
C2263 H2279 0.960 . S
H2264 C2248 0.931 . S
H2265 C2253 0.929 . S
H2266 C2254 0.960 . S
H2267 C2254 0.962 . S
H2268 C2254 0.960 . S
H2269 C2255 0.961 . S
H2270 C2255 0.961 . S
H2271 C2255 0.961 . S
H2272 C2256 0.931 . S
H2273 C2261 0.930 . S
H2274 C2262 0.956 . S
H2275 C2262 0.961 . S
H2276 C2262 0.961 . S
H2277 C2263 0.958 . S
H2278 C2263 0.961 . S
H2279 C2263 0.960 . S
C2280 C2281 1.391 . S
C2280 C2282 1.394 . S
C2280 H2296 0.931 . S
C2281 C2280 1.391 . S
C2281 C2285 1.376 . S
C2282 C2280 1.394 . S
C2282 C2283 1.369 . S
C2282 C2286 1.531 . S
C2283 C2282 1.369 . S
C2283 C2284 1.410 . S
C2283 C2291 1.503 . S
C2284 C2283 1.410 . S
C2284 C2285 1.392 . S
C2284 C2287 1.511 . S
C2285 C2281 1.376 . S
C2285 C2284 1.392 . S
C2285 H2297 0.929 . S
C2286 C2282 1.531 . S
C2286 H2298 0.960 . S
C2286 H2299 0.962 . S
C2286 H2300 0.960 . S
C2287 C2284 1.511 . S
C2287 H2301 0.961 . S
C2287 H2302 0.961 . S
C2287 H2303 0.961 . S
C2288 C2289 1.336 1_556 S
C2288 C2290 1.356 1_556 S
C2288 H2304 0.975 . S
C2289 C2288 1.336 1_554 S
C2289 C2293 1.408 . S
C2290 C2288 1.356 1_554 S
C2290 C2291 1.370 . S
C2290 C2294 1.524 1_554 S
C2291 C2283 1.503 . S
C2291 C2290 1.370 . S
C2291 C2292 1.403 . S
C2292 C2291 1.403 . S
C2292 C2293 1.404 . S
C2292 C2295 1.539 . S
C2293 C2289 1.408 . S
C2293 C2292 1.404 . S
C2293 H2305 0.930 . S
C2294 C2290 1.524 1_556 S
C2294 H2306 0.956 . S
C2294 H2307 0.961 . S
C2294 H2308 0.961 . S
C2295 C2292 1.539 . S
C2295 H2309 0.958 . S
C2295 H2310 0.961 . S
C2295 H2311 0.960 . S
H2296 C2280 0.931 . S
H2297 C2285 0.929 . S
H2298 C2286 0.960 . S
H2299 C2286 0.962 . S
H2300 C2286 0.960 . S
H2301 C2287 0.961 . S
H2302 C2287 0.961 . S
H2303 C2287 0.961 . S
H2304 C2288 0.975 . S
H2305 C2293 0.930 . S
H2306 C2294 0.956 . S
H2307 C2294 0.961 . S
H2308 C2294 0.961 . S
H2309 C2295 0.958 . S
H2310 C2295 0.961 . S
H2311 C2295 0.960 . S
C2312 C2313 1.391 1_556 S
C2312 C2314 1.394 . S
C2312 H2328 0.931 . S
C2313 C2312 1.391 1_554 S
C2313 C2317 1.376 . S
C2314 C2312 1.394 . S
C2314 C2315 1.369 1_556 S
C2314 C2318 1.531 . S
C2315 C2314 1.369 1_554 S
C2315 C2316 1.410 . S
C2315 C2323 1.503 . S
C2316 C2315 1.410 . S
C2316 C2317 1.392 . S
C2316 C2319 1.511 . S
C2317 C2313 1.376 . S
C2317 C2316 1.392 . S
C2317 H2329 0.929 . S
C2318 C2314 1.531 . S
C2318 H2330 0.960 . S
C2318 H2331 0.962 . S
C2318 H2332 0.960 . S
C2319 C2316 1.511 . S
C2319 H2333 0.961 . S
C2319 H2334 0.961 . S
C2319 H2335 0.961 . S
C2320 C2321 1.370 . S
C2320 C2322 1.363 . S
C2320 H2336 0.931 . S
C2321 C2320 1.370 . S
C2321 C2325 1.408 . S
C2322 C2320 1.363 . S
C2322 C2323 1.370 . S
C2322 C2326 1.524 . S
C2323 C2315 1.503 . S
C2323 C2322 1.370 . S
C2323 C2324 1.403 . S
C2324 C2323 1.403 . S
C2324 C2325 1.404 . S
C2324 C2327 1.539 . S
C2325 C2321 1.408 . S
C2325 C2324 1.404 . S
C2325 H2337 0.930 . S
C2326 C2322 1.524 . S
C2326 H2338 0.956 . S
C2326 H2339 0.961 . S
C2326 H2340 0.961 . S
C2327 C2324 1.539 . S
C2327 H2341 0.958 1_554 S
C2327 H2342 0.961 . S
C2327 H2343 0.960 . S
H2328 C2312 0.931 . S
H2329 C2317 0.929 . S
H2330 C2318 0.960 . S
H2331 C2318 0.962 . S
H2332 C2318 0.960 . S
H2333 C2319 0.961 . S
H2334 C2319 0.961 . S
H2335 C2319 0.961 . S
H2336 C2320 0.931 . S
H2337 C2325 0.930 . S
H2338 C2326 0.956 . S
H2339 C2326 0.961 . S
H2340 C2326 0.961 . S
H2341 C2327 0.958 1_556 S
H2342 C2327 0.961 . S
H2343 C2327 0.960 . S
C817 C651 1.433 . S
C809 C202 1.404 . S
C849 C659 1.271 . S
C841 C261 1.554 . S
C873 C282 1.447 . S
C881 C679 1.429 . S
C913 C693 1.505 . S
C905 C162 1.498 . S
C945 C708 1.513 . S
C937 C402 1.480 . S
C977 C722 1.525 . S
C969 C482 1.505 . S
C1001 C442 1.571 . S
C1009 C736 1.579 . S
C1041 C742 1.459 . S
C1033 C381 1.485 . S
C1065 C461 1.547 . S
C1073 C756 1.523 . S
C1105 C777 1.500 . S
C1097 C362 1.528 . S
C1129 C415 1.413 . S
C1137 C757 1.218 . S
C1169 C778 1.562 . S
C1161 C495 1.563 . S
C1193 C301 1.517 . S
C1201 C785 1.231 . S
C1225 C175 1.526 . S
C1233 C791 1.506 . S
C1257 C215 1.466 . S
C1265 C784 1.415 . S
C1289 C242 1.437 . S
C1297 C792 1.455 . S
C1321 C141 1.530 . S
C1329 C686 1.490 . S
C1353 C581 1.495 . S
C1361 C687 1.284 . S
C1393 C644 1.449 1_556 S
C1385 C615 1.516 . S
C1425 C665 1.429 . S
C1417 C335 1.454 . S
C1449 C181 1.525 . S
C1457 C700 1.497 . S
C1489 C750 1.513 . S
C1481 C455 1.511 . S
C1521 C701 1.170 . S
C1513 C375 1.390 . S
C1553 C729 1.342 . S
C1545 C501 1.615 . S
C1585 C735 1.419 . S
C1577 C562 1.422 . S
C1609 C621 1.565 . S
C1617 C743 1.309 . S
C1641 C322 1.424 . S
C1649 C707 1.415 . S
C1681 C721 1.508 . S
C1673 C522 1.497 . S
C1705 C122 1.499 . S
C1713 C680 1.510 . S
C1745 C694 1.525 . S
C1737 C2 1.504 . S
C1777 C652 1.578 . S
C1769 C42 1.558 . S
C1809 C658 1.439 . S
C1801 C101 1.482 . S
C1833 C61 1.551 . S
C1841 C770 1.529 . S
C1865 C82 1.530 . S
C1873 C763 1.501 . S
C1897 C135 1.414 . S
C1905 C771 1.184 . S
C1929 C15 1.549 . S
C1937 C764 1.563 . S
C1969 C799 1.281 . S
C1961 C341 1.522 . S
C2001 C805 1.521 . S
C1993 C535 1.530 . S
C2033 C798 1.416 . S
C2025 C575 1.464 . S
C2057 C602 1.434 . S
C2065 C806 1.454 . S
C2089 C421 1.511 . S
C2097 C714 1.492 . S
C2129 C715 1.297 . S
C2121 C221 1.491 . S
C2161 C728 1.455 . S
C2153 C255 1.516 . S
C2193 C749 1.419 . S
C2185 C295 1.457 . S
C2217 C541 1.539 . S
C2225 C672 1.506 . S
C2257 C666 1.515 . S
C2249 C55 1.509 . S
C2281 C95 1.391 . S
C2289 C673 1.159 . S
C2321 C645 1.357 . S
C2313 C21 1.620 . S
