# Generated by pormake.
# Topology soc, (4,6)-cn, num edge types: 1
# Building blocks:
#     Node 0, Type 0, BuildingBlock: ESEHIV_clean_sbu_0, # of connection points: 4
#     Node 1, Type 0, BuildingBlock: ESEHIV_clean_sbu_0, # of connection points: 4
#     Node 2, Type 0, BuildingBlock: ESEHIV_clean_sbu_0, # of connection points: 4
#     Node 3, Type 0, BuildingBlock: ESEHIV_clean_sbu_0, # of connection points: 4
#     Node 4, Type 0, BuildingBlock: ESEHIV_clean_sbu_0, # of connection points: 4
#     Node 5, Type 0, BuildingBlock: ESEHIV_clean_sbu_0, # of connection points: 4
#     Node 6, Type 0, BuildingBlock: ESEHIV_clean_sbu_0, # of connection points: 4
#     Node 7, Type 0, BuildingBlock: ESEHIV_clean_sbu_0, # of connection points: 4
#     Node 8, Type 0, BuildingBlock: ESEHIV_clean_sbu_0, # of connection points: 4
#     Node 9, Type 0, BuildingBlock: ESEHIV_clean_sbu_0, # of connection points: 4
#     Node 10, Type 0, BuildingBlock: ESEHIV_clean_sbu_0, # of connection points: 4
#     Node 11, Type 0, BuildingBlock: ESEHIV_clean_sbu_0, # of connection points: 4
#     Node 12, Type 1, BuildingBlock: MIFKUJ_clean_sbu_0, # of connection points: 6
#     Node 13, Type 1, BuildingBlock: MIFKUJ_clean_sbu_0, # of connection points: 6
#     Node 14, Type 1, BuildingBlock: MIFKUJ_clean_sbu_0, # of connection points: 6
#     Node 15, Type 1, BuildingBlock: MIFKUJ_clean_sbu_0, # of connection points: 6
#     Node 16, Type 1, BuildingBlock: MIFKUJ_clean_sbu_0, # of connection points: 6
#     Node 17, Type 1, BuildingBlock: MIFKUJ_clean_sbu_0, # of connection points: 6
#     Node 18, Type 1, BuildingBlock: MIFKUJ_clean_sbu_0, # of connection points: 6
#     Node 19, Type 1, BuildingBlock: MIFKUJ_clean_sbu_0, # of connection points: 6
#     Edge 20, Type (0, 1), BuildingBlock: MIFKUJ_clean_linker_0, # of connection points: 2
#     Edge 21, Type (0, 1), BuildingBlock: MIFKUJ_clean_linker_0, # of connection points: 2
#     Edge 22, Type (0, 1), BuildingBlock: MIFKUJ_clean_linker_0, # of connection points: 2
#     Edge 23, Type (0, 1), BuildingBlock: MIFKUJ_clean_linker_0, # of connection points: 2
#     Edge 24, Type (0, 1), BuildingBlock: MIFKUJ_clean_linker_0, # of connection points: 2
#     Edge 25, Type (0, 1), BuildingBlock: MIFKUJ_clean_linker_0, # of connection points: 2
#     Edge 26, Type (0, 1), BuildingBlock: MIFKUJ_clean_linker_0, # of connection points: 2
#     Edge 27, Type (0, 1), BuildingBlock: MIFKUJ_clean_linker_0, # of connection points: 2
#     Edge 28, Type (0, 1), BuildingBlock: MIFKUJ_clean_linker_0, # of connection points: 2
#     Edge 29, Type (0, 1), BuildingBlock: MIFKUJ_clean_linker_0, # of connection points: 2
#     Edge 30, Type (0, 1), BuildingBlock: MIFKUJ_clean_linker_0, # of connection points: 2
#     Edge 31, Type (0, 1), BuildingBlock: MIFKUJ_clean_linker_0, # of connection points: 2
#     Edge 32, Type (0, 1), BuildingBlock: MIFKUJ_clean_linker_0, # of connection points: 2
#     Edge 33, Type (0, 1), BuildingBlock: MIFKUJ_clean_linker_0, # of connection points: 2
#     Edge 34, Type (0, 1), BuildingBlock: MIFKUJ_clean_linker_0, # of connection points: 2
#     Edge 35, Type (0, 1), BuildingBlock: MIFKUJ_clean_linker_0, # of connection points: 2
#     Edge 36, Type (0, 1), BuildingBlock: MIFKUJ_clean_linker_0, # of connection points: 2
#     Edge 37, Type (0, 1), BuildingBlock: MIFKUJ_clean_linker_0, # of connection points: 2
#     Edge 38, Type (0, 1), BuildingBlock: MIFKUJ_clean_linker_0, # of connection points: 2
#     Edge 39, Type (0, 1), BuildingBlock: MIFKUJ_clean_linker_0, # of connection points: 2
#     Edge 40, Type (0, 1), BuildingBlock: MIFKUJ_clean_linker_0, # of connection points: 2
#     Edge 41, Type (0, 1), BuildingBlock: MIFKUJ_clean_linker_0, # of connection points: 2
#     Edge 42, Type (0, 1), BuildingBlock: MIFKUJ_clean_linker_0, # of connection points: 2
#     Edge 43, Type (0, 1), BuildingBlock: MIFKUJ_clean_linker_0, # of connection points: 2
#     Edge 44, Type (0, 1), BuildingBlock: MIFKUJ_clean_linker_0, # of connection points: 2
#     Edge 45, Type (0, 1), BuildingBlock: MIFKUJ_clean_linker_0, # of connection points: 2
#     Edge 46, Type (0, 1), BuildingBlock: MIFKUJ_clean_linker_0, # of connection points: 2
#     Edge 47, Type (0, 1), BuildingBlock: MIFKUJ_clean_linker_0, # of connection points: 2
#     Edge 48, Type (0, 1), BuildingBlock: MIFKUJ_clean_linker_0, # of connection points: 2
#     Edge 49, Type (0, 1), BuildingBlock: MIFKUJ_clean_linker_0, # of connection points: 2
#     Edge 50, Type (0, 1), BuildingBlock: MIFKUJ_clean_linker_0, # of connection points: 2
#     Edge 51, Type (0, 1), BuildingBlock: MIFKUJ_clean_linker_0, # of connection points: 2
#     Edge 52, Type (0, 1), BuildingBlock: MIFKUJ_clean_linker_0, # of connection points: 2
#     Edge 53, Type (0, 1), BuildingBlock: MIFKUJ_clean_linker_0, # of connection points: 2
#     Edge 54, Type (0, 1), BuildingBlock: MIFKUJ_clean_linker_0, # of connection points: 2
#     Edge 55, Type (0, 1), BuildingBlock: MIFKUJ_clean_linker_0, # of connection points: 2
#     Edge 56, Type (0, 1), BuildingBlock: MIFKUJ_clean_linker_0, # of connection points: 2
#     Edge 57, Type (0, 1), BuildingBlock: MIFKUJ_clean_linker_0, # of connection points: 2
#     Edge 58, Type (0, 1), BuildingBlock: MIFKUJ_clean_linker_0, # of connection points: 2
#     Edge 59, Type (0, 1), BuildingBlock: MIFKUJ_clean_linker_0, # of connection points: 2
#     Edge 60, Type (0, 1), BuildingBlock: MIFKUJ_clean_linker_0, # of connection points: 2
#     Edge 61, Type (0, 1), BuildingBlock: MIFKUJ_clean_linker_0, # of connection points: 2
#     Edge 62, Type (0, 1), BuildingBlock: MIFKUJ_clean_linker_0, # of connection points: 2
#     Edge 63, Type (0, 1), BuildingBlock: MIFKUJ_clean_linker_0, # of connection points: 2
#     Edge 64, Type (0, 1), BuildingBlock: MIFKUJ_clean_linker_0, # of connection points: 2
#     Edge 65, Type (0, 1), BuildingBlock: MIFKUJ_clean_linker_0, # of connection points: 2
#     Edge 66, Type (0, 1), BuildingBlock: MIFKUJ_clean_linker_0, # of connection points: 2
#     Edge 67, Type (0, 1), BuildingBlock: MIFKUJ_clean_linker_0, # of connection points: 2
# Relax obj value: 0.092
# Max RMSD: 0.168
# Mean RMSD: 0.134
data_MOF--net-soc--node1-ESEHIV_clean_sbu_0--node2-MIFKUJ_clean_sbu_0--edge1-MIFKUJ_clean_linker_0
_symmetry_space_group_name_H-M    P1
_symmetry_Int_Tables_number       1
_symmetry_cell_setting            triclinic
loop_
_symmetry_equiv_pos_as_xyz
'x, y, z'
_cell_length_a     61.713533
_cell_length_b     57.15863
_cell_length_c     55.683128
_cell_angle_alpha  91.437056
_cell_angle_beta   91.674886
_cell_angle_gamma 81.992499
loop_
_atom_site_label
_atom_site_type_symbol
_atom_site_fract_x
_atom_site_fract_y
_atom_site_fract_z
_atom_type_partial_charge
Cu0 Cu 0.01492 0.04007 0.29217 0.0
N1 N 0.031 0.05918 0.31141 0.0
N2 N 0.0554 0.08409 0.31996 0.0
C3 C 0.0487 0.06814 0.30402 0.0
C4 C 0.04124 0.085 0.33817 0.0
C5 C 0.0262 0.06975 0.33279 0.0
O6 O 0.03691 0.01887 0.27381 0.0
C7 C 0.97587 0.07081 0.28796 0.0
O8 O 0.97538 0.06429 0.31034 0.0
H9 H 0.05604 0.06342 0.28686 0.0
H10 H 0.01217 0.06743 0.34321 0.0
N11 N 0.99977 0.02001 0.30954 0.0
N12 N 0.9771 0.99349 0.3158 0.0
C13 C 0.98607 0.006 0.29938 0.0
C14 C 0.99957 0.01628 0.33329 0.0
C15 C 0.98555 0.99998 0.33721 0.0
C16 C 0.04874 1.00326 0.28645 0.0
O17 O 0.04524 1.00255 0.30953 0.0
H18 H 0.98253 1.00536 0.28024 0.0
H19 H 1.00899 0.02469 0.34678 0.0
O20 O 0.99217 0.06213 0.27522 0.0
H21 H 0.04102 0.09665 0.3538 0.0
H22 H 0.98212 0.99323 0.35447 0.0
Cu23 Cu 1.00866 0.02916 0.72101 0.0
N24 N 0.99039 0.01184 0.70229 0.0
N25 N 0.96443 0.9886 0.69503 0.0
C26 C 0.97712 0.99796 0.71186 0.0
C27 C 0.97008 0.99692 0.67394 0.0
C28 C 0.98599 0.01134 0.67847 0.0
O29 O 0.98806 0.05297 0.73836 0.0
C30 C 0.03852 0.98863 0.72541 0.0
O31 O 0.03305 0.98831 0.70245 0.0
H32 H 0.97674 0.99501 0.73095 0.0
H33 H 0.99318 0.02135 0.66539 0.0
N34 N 0.02665 0.04577 0.70327 0.0
N35 N 0.05233 0.06901 0.69711 0.0
C36 C 0.03792 0.06257 0.71268 0.0
C37 C 0.0342 0.04133 0.68097 0.0
C38 C 0.0499 0.05572 0.67706 0.0
C39 C 0.97387 0.06497 0.72458 0.0
O40 O 0.97486 0.06105 0.70128 0.0
H41 H 0.03645 0.06887 0.73113 0.0
H42 H 0.02958 0.02774 0.66882 0.0
O43 O 0.02929 1.00554 0.73873 0.0
H44 H 0.96273 0.99354 0.65654 0.0
H45 H 0.05919 0.05585 0.6609 0.0
Cu46 Cu 0.30668 0.01995 0.01045 0.0
N47 N 0.28955 1.00327 0.99058 0.0
N48 N 0.28098 0.9733 0.96773 0.0
C49 C 0.2942 0.9801 0.98542 0.0
C50 C 0.26744 0.99292 0.9615 0.0
C51 C 0.27297 0.01153 0.97549 0.0
O52 O 0.32252 0.9966 0.0321 0.0
C53 C 0.32708 0.05733 0.99143 0.0
O54 O 0.32397 0.06766 0.01259 0.0
H55 H 0.30767 0.96869 0.99374 0.0
H56 H 0.26632 0.02994 0.9737 0.0
N57 N 0.28893 0.04221 0.02875 0.0
N58 N 0.279 0.06789 0.05856 0.0
C59 C 0.29558 0.05344 0.04851 0.0
C60 C 0.26728 0.04939 0.02641 0.0
C61 C 0.26112 0.06534 0.04471 0.0
C62 C 0.31117 0.99024 0.04897 0.0
O63 O 0.29077 1.00005 0.051 0.0
H64 H 0.3124 0.05124 0.05508 0.0
H65 H 0.25659 0.04324 0.01269 0.0
O66 O 0.32347 0.03602 0.98842 0.0
H67 H 0.25546 0.99401 0.94684 0.0
H68 H 0.2447 0.07413 0.0477 0.0
Cu69 Cu 0.02771 0.32208 0.0136 0.0
N70 N 0.04345 0.34036 0.9951 0.0
N71 N 0.0681 0.3474 0.96841 0.0
C72 C 0.05638 0.33136 0.97707 0.0
C73 C 0.06222 0.36736 0.98154 0.0
C74 C 0.047 0.36296 0.998 0.0
O75 O 0.05135 0.3039 0.03306 0.0
C76 C 0.99405 0.29499 0.99212 0.0
O77 O 0.99167 0.28619 0.01329 0.0
H78 H 0.0579 0.31301 0.97123 0.0
H79 H 0.0396 0.37515 0.01155 0.0
N80 N 1.00912 0.34071 0.03498 0.0
N81 N 0.98192 0.34918 0.06105 0.0
C82 C 0.98877 0.33716 0.04084 0.0
C83 C 0.01516 0.35599 0.05184 0.0
C84 C 0.99847 0.36123 0.06791 0.0
C85 C 0.05041 0.30038 0.05559 0.0
O86 O 0.03127 0.30339 0.06577 0.0
H87 H 0.97974 0.32468 0.03162 0.0
H88 H 0.03124 0.36144 0.05344 0.0
O89 O 1.00949 0.30731 0.98922 0.0
H90 H 0.06865 0.38387 0.97964 0.0
H91 H 0.99898 0.37213 0.08404 0.0
Cu92 Cu 0.71541 0.02133 0.99942 0.0
N93 N 0.7311 0.03492 0.97684 0.0
N94 N 0.73966 0.06155 0.95157 0.0
C95 C 0.7247 0.05594 0.96675 0.0
C96 C 0.75603 0.04326 0.95192 0.0
C97 C 0.75061 0.02671 0.96744 0.0
O98 O 0.69921 0.04716 0.01787 0.0
C99 C 0.71046 0.98071 0.97402 0.0
O100 O 0.73105 0.97643 0.98123 0.0
H101 H 0.70966 0.0672 0.97105 0.0
H102 H 0.76026 0.00999 0.97172 0.0
N103 N 0.73437 1.00424 0.02131 0.0
N104 N 0.74655 0.97841 0.04956 0.0
C105 C 0.7291 0.9879 0.03622 0.0
C106 C 0.75578 1.00536 0.02553 0.0
C107 C 0.76337 0.98936 0.04293 0.0
C108 C 0.71174 0.06143 0.02649 0.0
O109 O 0.73275 0.05731 0.02223 0.0
H110 H 0.71291 0.98273 0.03681 0.0
H111 H 0.7652 0.01703 0.01666 0.0
O112 O 0.69902 0.9999 0.98091 0.0
H113 H 0.7708 0.04194 0.94167 0.0
H114 H 0.77992 0.98622 0.05029 0.0
Cu115 Cu 0.01839 0.72536 0.00231 0.0
N116 N 0.99855 0.72125 0.97722 0.0
N117 N 0.97473 0.72408 0.94634 0.0
C118 C 0.98434 0.73606 0.96394 0.0
C119 C 0.98303 0.70118 0.94878 0.0
C120 C 0.99762 0.69952 0.9678 0.0
O121 O 1.00681 0.71377 0.03108 0.0
C122 C 0.04983 0.71879 0.97059 0.0
O123 O 0.03599 0.73663 0.96258 0.0
H124 H 0.98149 0.75505 0.96673 0.0
H125 H 1.00729 0.68356 0.97426 0.0
N126 N 0.02363 0.75606 0.01013 0.0
N127 N 0.04359 0.77885 0.03212 0.0
C128 C 0.04383 0.75949 0.01787 0.0
C129 C 0.01007 0.77435 0.01947 0.0
C130 C 0.02238 0.78835 0.03326 0.0
C131 C 0.98723 0.72343 0.03449 0.0
O132 O 0.97722 0.73745 0.01812 0.0
H133 H 0.05801 0.74614 0.01615 0.0
H134 H 0.99242 0.77601 0.01878 0.0
O135 O 0.04603 0.70956 0.99039 0.0
H136 H 0.97869 0.68664 0.93764 0.0
H137 H 0.01609 0.80296 0.04498 0.0
Cu138 Cu 0.51157 0.53011 0.79096 0.0
N139 N 0.52688 0.5504 0.80954 0.0
N140 N 0.54949 0.57726 0.81698 0.0
C141 C 0.54403 0.5601 0.8018 0.0
C142 C 0.53524 0.57831 0.83504 0.0
C143 C 0.52132 0.5617 0.83041 0.0
O144 O 0.53405 0.5088 0.77324 0.0
C145 C 0.47254 0.56033 0.78667 0.0
O146 O 0.47309 0.55499 0.80949 0.0
H147 H 0.55146 0.55569 0.7846 0.0
H148 H 0.50749 0.55892 0.84093 0.0
N149 N 0.49676 0.5106 0.80938 0.0
N150 N 0.4729 0.48599 0.81781 0.0
C151 C 0.48111 0.49825 0.8006 0.0
C152 C 0.49857 0.50608 0.83301 0.0
C153 C 0.48393 0.49083 0.83824 0.0
C154 C 0.54629 0.49405 0.78645 0.0
O155 O 0.54286 0.49425 0.80961 0.0
H156 H 0.476 0.49819 0.78185 0.0
H157 H 0.5097 0.51337 0.84554 0.0
O158 O 0.48836 0.55112 0.77351 0.0
H159 H 0.53455 0.59063 0.85017 0.0
H160 H 0.48138 0.48415 0.8558 0.0
Cu161 Cu 0.51046 0.53401 0.22191 0.0
N162 N 0.49242 0.51583 0.20385 0.0
N163 N 0.46691 0.49191 0.19706 0.0
C164 C 0.47891 0.50235 0.21377 0.0
C165 C 0.47321 0.49903 0.17573 0.0
C166 C 0.48902 0.51366 0.17996 0.0
O167 O 0.4899 0.55677 0.24056 0.0
C168 C 0.54594 0.49959 0.22246 0.0
O169 O 0.54213 0.50409 0.19958 0.0
H170 H 0.47758 0.50068 0.23298 0.0
H171 H 0.49735 0.52201 0.16649 0.0
N172 N 0.52663 0.55282 0.20399 0.0
N173 N 0.55174 0.57667 0.19746 0.0
C174 C 0.54386 0.56255 0.21321 0.0
C175 C 0.52355 0.56102 0.18151 0.0
C176 C 0.53896 0.57572 0.17746 0.0
C177 C 0.47759 0.57133 0.22719 0.0
O178 O 0.47971 0.56939 0.20382 0.0
H179 H 0.54999 0.55989 0.23149 0.0
H180 H 0.51062 0.55732 0.16912 0.0
O181 O 0.53304 0.51092 0.23773 0.0
H182 H 0.467 0.49386 0.15831 0.0
H183 H 0.54051 0.5851 0.16109 0.0
Cu184 Cu 0.81151 0.54294 0.5125 0.0
N185 N 0.82813 0.56049 0.49454 0.0
N186 N 0.83479 0.58508 0.46606 0.0
C187 C 0.81982 0.57333 0.47572 0.0
C188 C 0.85335 0.57936 0.47933 0.0
C189 C 0.84912 0.56426 0.49707 0.0
O190 O 0.79439 0.56527 0.53408 0.0
C191 C 0.80712 0.51241 0.47499 0.0
O192 O 0.82809 0.51431 0.47501 0.0
H193 H 0.80304 0.57396 0.46926 0.0
H194 H 0.86041 0.55699 0.51106 0.0
N195 N 0.82813 0.51998 0.53091 0.0
N196 N 0.8334 0.48935 0.55545 0.0
C197 C 0.81899 0.50715 0.54664 0.0
C198 C 0.84917 0.51008 0.52961 0.0
C199 C 0.85252 0.49121 0.54494 0.0
C200 C 0.80447 0.57151 0.55298 0.0
O201 O 0.82489 0.56217 0.55697 0.0
H202 H 0.80184 0.51055 0.55095 0.0
H203 H 0.86091 0.51535 0.51753 0.0
O204 O 0.79509 0.52486 0.49015 0.0
H205 H 0.86863 0.58613 0.47683 0.0
H206 H 0.86753 0.47911 0.54719 0.0
Cu207 Cu 0.50124 0.83181 0.49913 0.0
N208 N 0.51537 0.8165 0.4732 0.0
N209 N 0.54023 0.80621 0.44531 0.0
C210 C 0.53659 0.81506 0.46776 0.0
C211 C 0.5205 0.80203 0.43643 0.0
C212 C 0.50522 0.80857 0.45359 0.0
O213 O 0.5225 0.8402 0.52278 0.0
C214 C 0.46289 0.86404 0.49105 0.0
O215 O 0.45726 0.8592 0.51271 0.0
H216 H 0.54884 0.8213 0.47966 0.0
H217 H 0.4877 0.80898 0.4514 0.0
N218 N 0.48404 0.81158 0.51273 0.0
N219 N 0.46072 0.79878 0.53746 0.0
C220 C 0.47461 0.81459 0.53424 0.0
C221 C 0.4764 0.79276 0.50229 0.0
C222 C 0.46191 0.78489 0.51747 0.0
C223 C 0.5336 0.82253 0.53284 0.0
O224 O 0.52992 0.8012 0.52615 0.0
H225 H 0.47675 0.82913 0.54652 0.0
H226 H 0.48037 0.78574 0.48454 0.0
O227 O 0.48254 0.85793 0.48485 0.0
H228 H 0.51705 0.79611 0.41829 0.0
H229 H 0.45247 0.77056 0.51373 0.0
Cu230 Cu 0.20479 0.54503 0.51022 0.0
N231 N 0.19058 0.56596 0.48769 0.0
N232 N 0.188 0.59431 0.46022 0.0
C233 C 0.19777 0.58593 0.48093 0.0
C234 C 0.17367 0.57915 0.45411 0.0
C235 C 0.17538 0.56167 0.47101 0.0
O236 O 0.21913 0.56258 0.53434 0.0
C237 C 0.23361 0.52455 0.47445 0.0
O238 O 0.23454 0.54641 0.46831 0.0
H239 H 0.21093 0.59324 0.4903 0.0
H240 H 0.16738 0.54599 0.47017 0.0
N241 N 0.18577 0.52958 0.5272 0.0
N242 N 0.17865 0.50383 0.5544 0.0
C243 C 0.19172 0.50806 0.5365 0.0
C244 C 0.1682 0.5393 0.53949 0.0
C245 C 0.16378 0.52342 0.55637 0.0
C246 C 0.2357 0.57322 0.53242 0.0
O247 O 0.24652 0.57135 0.51234 0.0
H248 H 0.20686 0.49695 0.53225 0.0
H249 H 0.1606 0.55746 0.538 0.0
O250 O 0.22356 0.5207 0.49322 0.0
H251 H 0.1638 0.57955 0.43771 0.0
H252 H 0.15169 0.52672 0.5702 0.0
Cu253 Cu 0.49223 0.24691 0.5097 0.0
N254 N 0.51203 0.22823 0.48997 0.0
N255 N 0.54047 0.22045 0.46548 0.0
C256 C 0.52826 0.23694 0.47904 0.0
C257 C 0.53133 0.20049 0.46797 0.0
C258 C 0.51378 0.20535 0.48308 0.0
O259 O 0.51117 0.26493 0.53008 0.0
C260 C 0.45622 0.25034 0.47865 0.0
O261 O 0.45833 0.22812 0.4849 0.0
H262 H 0.53068 0.25529 0.48077 0.0
H263 H 0.50304 0.19313 0.4885 0.0
N264 N 0.47747 0.22977 0.5309 0.0
N265 N 0.45414 0.22338 0.55924 0.0
C266 C 0.4596 0.23879 0.54326 0.0
C267 C 0.48327 0.20778 0.53922 0.0
C268 C 0.46903 0.2039 0.5569 0.0
C269 C 0.52452 0.25166 0.54365 0.0
O270 O 0.52403 0.22878 0.5426 0.0
H271 H 0.45134 0.25666 0.54132 0.0
H272 H 0.49737 0.19574 0.53354 0.0
O273 O 0.46975 0.26344 0.48769 0.0
H274 H 0.53692 0.18351 0.45962 0.0
H275 H 0.46972 0.18818 0.5675 0.0
Zn276 Zn 0.2708 0.31537 0.25323 0.0
Zn277 Zn 0.24353 0.27316 0.27327 0.0
C278 C 0.25553 0.36015 0.27539 0.0
O279 O 0.26087 0.36781 0.25462 0.0
C280 C 0.27443 0.23675 0.25006 0.0
O281 O 0.28177 0.23106 0.27182 0.0
O282 O 0.29277 0.33349 0.23668 0.0
O283 O 0.28979 0.28951 0.27205 0.0
O284 O 0.26584 0.28215 0.29856 0.0
C285 C 0.30806 0.3398 0.25023 0.0
O286 O 0.30878 0.3341 0.27297 0.0
O287 O 0.25688 0.33804 0.2785 0.0
C288 C 0.21408 0.23842 0.27235 0.0
O289 O 0.21727 0.24055 0.24933 0.0
O290 O 0.22379 0.25094 0.28736 0.0
O291 O 0.22328 0.29829 0.2554 0.0
O292 O 0.24686 0.30708 0.22902 0.0
O293 O 0.25958 0.25424 0.24722 0.0
C294 C 0.28546 0.28433 0.29337 0.0
C295 C 0.22748 0.30368 0.2341 0.0
Zn296 Zn 0.75125 0.28271 0.29308 0.0
Zn297 Zn 0.76494 0.27969 0.21813 0.0
C298 C 0.76009 0.30773 0.33868 0.0
O299 O 0.75202 0.2906 0.34908 0.0
C300 C 0.75833 0.2487 0.17701 0.0
O301 O 0.77482 0.2579 0.16853 0.0
O302 O 0.72811 0.2671 0.31024 0.0
O303 O 0.73568 0.30259 0.26615 0.0
O304 O 0.74 0.30571 0.22709 0.0
C305 C 0.71287 0.2809 0.32033 0.0
O306 O 0.71273 0.30381 0.31879 0.0
O307 O 0.76205 0.30719 0.31598 0.0
C308 C 0.8055 0.29781 0.20594 0.0
O309 O 0.81019 0.29477 0.22892 0.0
O310 O 0.78705 0.29333 0.19762 0.0
O311 O 0.78158 0.26099 0.24519 0.0
O312 O 0.77793 0.25837 0.28444 0.0
O313 O 0.75123 0.25544 0.19763 0.0
C314 C 0.72967 0.31216 0.24617 0.0
C315 C 0.78825 0.25206 0.26528 0.0
Zn316 Zn 0.80496 0.78886 0.24856 0.0
Zn317 Zn 0.74233 0.76361 0.24965 0.0
C318 C 0.82716 0.75678 0.21302 0.0
O319 O 0.81857 0.74034 0.22402 0.0
C320 C 0.70299 0.78133 0.27153 0.0
O321 O 0.69541 0.77568 0.25019 0.0
O322 O 0.8167 0.81806 0.2635 0.0
O323 O 0.77389 0.79083 0.23889 0.0
O324 O 0.74156 0.78868 0.22415 0.0
C325 C 0.82702 0.82976 0.24956 0.0
O326 O 0.82695 0.82437 0.2265 0.0
O327 O 0.82304 0.77813 0.22021 0.0
C328 C 0.72349 0.71924 0.24933 0.0
O329 O 0.73163 0.71797 0.27139 0.0
O330 O 0.72737 0.73605 0.23623 0.0
O331 O 0.7731 0.75491 0.26556 0.0
O332 O 0.80753 0.76173 0.27131 0.0
O333 O 0.72347 0.77818 0.27575 0.0
C334 C 0.75886 0.79824 0.22406 0.0
C335 C 0.79211 0.74961 0.27532 0.0
Zn336 Zn 0.27709 0.79813 0.27926 0.0
Zn337 Zn 0.2546 0.78307 0.2335 0.0
C338 C 0.27161 0.76168 0.31206 0.0
O339 O 0.29251 0.76313 0.31572 0.0
C340 C 0.28064 0.80142 0.1978 0.0
O341 O 0.27985 0.78023 0.1884 0.0
O342 O 0.29552 0.81178 0.30522 0.0
O343 O 0.29886 0.77886 0.25678 0.0
O344 O 0.27569 0.75468 0.24546 0.0
C345 C 0.31504 0.81522 0.30148 0.0
O346 O 0.32299 0.81088 0.27995 0.0
O347 O 0.26088 0.77493 0.2965 0.0
C348 C 0.22534 0.78859 0.19415 0.0
O349 O 0.22886 0.81042 0.1988 0.0
O350 O 0.23528 0.77207 0.20689 0.0
O351 O 0.23232 0.80104 0.25585 0.0
O352 O 0.25488 0.82573 0.2672 0.0
O353 O 0.27183 0.80665 0.218 0.0
C354 C 0.29528 0.7583 0.25 0.0
C355 C 0.23539 0.82174 0.2626 0.0
Zn356 Zn 0.2405 0.76082 0.77489 0.0
Zn357 Zn 0.26654 0.78323 0.74186 0.0
C358 C 0.26585 0.77664 0.81503 0.0
O359 O 0.2707 0.75402 0.81946 0.0
C360 C 0.24793 0.76655 0.69765 0.0
O361 O 0.2505 0.78765 0.69037 0.0
O362 O 0.22202 0.74515 0.79732 0.0
O363 O 0.22004 0.78222 0.75226 0.0
O364 O 0.24275 0.80857 0.75431 0.0
C365 C 0.20174 0.75236 0.79969 0.0
O366 O 0.19211 0.76936 0.78605 0.0
O367 O 0.25397 0.78314 0.79676 0.0
C368 C 0.29905 0.78314 0.70857 0.0
O369 O 0.29718 0.7606 0.70999 0.0
O370 O 0.28705 0.79812 0.72141 0.0
O371 O 0.28733 0.76247 0.76377 0.0
O372 O 0.26516 0.73566 0.76323 0.0
O373 O 0.25242 0.7612 0.71941 0.0
C374 C 0.22323 0.8038 0.75211 0.0
C375 C 0.28458 0.74086 0.76441 0.0
Zn376 Zn 0.25168 0.24461 0.76353 0.0
Zn377 Zn 0.2763 0.30421 0.76743 0.0
C378 C 0.27261 0.20195 0.78727 0.0
O379 O 0.26556 0.19128 0.76801 0.0
C380 C 0.25965 0.34342 0.73915 0.0
O381 O 0.26268 0.3537 0.76012 0.0
O382 O 0.22875 0.225 0.74956 0.0
O383 O 0.23565 0.27191 0.78262 0.0
O384 O 0.25072 0.30472 0.78979 0.0
C385 C 0.21293 0.22117 0.76245 0.0
O386 O 0.21161 0.23026 0.78435 0.0
O387 O 0.26946 0.22442 0.78865 0.0
C388 C 0.31691 0.32387 0.77322 0.0
O389 O 0.32218 0.30881 0.75545 0.0
O390 O 0.29808 0.3248 0.78223 0.0
O391 O 0.29293 0.2719 0.7587 0.0
O392 O 0.27119 0.25207 0.73663 0.0
O393 O 0.26421 0.32105 0.73722 0.0
C394 C 0.23546 0.29221 0.79266 0.0
C395 C 0.28857 0.26167 0.73895 0.0
Zn396 Zn 0.77833 0.29307 0.78629 0.0
Zn397 Zn 0.74863 0.28082 0.7298 0.0
C398 C 0.77443 0.25704 0.81752 0.0
O399 O 0.79572 0.25568 0.81537 0.0
C400 C 0.77998 0.3111 0.71141 0.0
O401 O 0.79539 0.29807 0.72371 0.0
O402 O 0.80124 0.30409 0.81091 0.0
O403 O 0.79508 0.26895 0.7637 0.0
O404 O 0.77431 0.25378 0.73548 0.0
C405 C 0.82175 0.30128 0.80693 0.0
O406 O 0.8283 0.29417 0.78541 0.0
O407 O 0.76197 0.27277 0.80604 0.0
C408 C 0.71589 0.28357 0.68987 0.0
O409 O 0.72408 0.30315 0.68635 0.0
O410 O 0.72385 0.27034 0.70712 0.0
O411 O 0.73327 0.29584 0.75942 0.0
O412 O 0.75559 0.32022 0.77338 0.0
O413 O 0.76032 0.30694 0.71222 0.0
C414 C 0.79238 0.25336 0.74749 0.0
C415 C 0.73646 0.31654 0.76627 0.0
Zn416 Zn 0.72243 0.77559 0.75239 0.0
Zn417 Zn 0.77237 0.80519 0.74572 0.0
C418 C 0.70356 0.80457 0.71205 0.0
O419 O 0.71375 0.82129 0.7218 0.0
C420 C 0.80584 0.77087 0.76825 0.0
O421 O 0.81096 0.76401 0.74619 0.0
O422 O 0.70413 0.75309 0.76789 0.0
O423 O 0.75238 0.75853 0.74448 0.0
O424 O 0.76406 0.78273 0.7192 0.0
C425 C 0.70597 0.73121 0.7621 0.0
O426 O 0.72107 0.72253 0.74691 0.0
O427 O 0.70578 0.78438 0.72157 0.0
C428 C 0.80277 0.83916 0.74825 0.0
O429 O 0.79823 0.83798 0.77106 0.0
O430 O 0.79323 0.82679 0.73296 0.0
O431 O 0.7486 0.82535 0.76399 0.0
O432 O 0.72168 0.80512 0.77333 0.0
O433 O 0.78975 0.78689 0.77164 0.0
C434 C 0.75896 0.76251 0.72376 0.0
C435 C 0.73129 0.82344 0.77531 0.0
H436 H 0.07471 0.10919 0.35486 0.0
H437 H 0.10285 0.13459 0.34986 0.0
H438 H 0.10425 0.11728 0.2741 0.0
H439 H 0.07598 0.09215 0.27873 0.0
H440 H 0.1451 0.11626 0.29278 0.0
H441 H 0.07776 0.17014 0.29524 0.0
H442 H 0.04307 0.18835 0.31286 0.0
H443 H 0.07817 0.21042 0.37522 0.0
H444 H 0.11307 0.19203 0.35809 0.0
H445 H 0.19467 0.20722 0.24417 0.0
H446 H 0.16965 0.1804 0.25576 0.0
H447 H 0.17441 0.20447 0.32948 0.0
H448 H 0.19956 0.23181 0.31789 0.0
H449 H 0.13223 0.20132 0.31609 0.0
H450 H 0.19991 0.15033 0.31218 0.0
H451 H 0.2346 0.1317 0.29488 0.0
H452 H 0.19919 0.10372 0.23583 0.0
H453 H 0.16428 0.12251 0.25256 0.0
C454 C 0.0808 0.11083 0.33706 0.0
C455 C 0.07274 0.09853 0.31722 0.0
C456 C 0.097 0.1254 0.33425 0.0
C457 C 0.10556 0.1281 0.31155 0.0
C458 C 0.09794 0.1155 0.29182 0.0
C459 C 0.08171 0.101 0.29457 0.0
C460 C 0.12233 0.14414 0.30819 0.0
C461 C 0.14218 0.13491 0.29766 0.0
C462 C 0.1189 0.16834 0.31526 0.0
C463 C 0.09798 0.1795 0.32551 0.0
C464 C 0.07806 0.17872 0.31279 0.0
C465 C 0.05836 0.18909 0.32268 0.0
C466 C 0.05841 0.20047 0.34518 0.0
C467 C 0.07816 0.20156 0.35781 0.0
C468 C 0.0979 0.19118 0.34802 0.0
C469 C 0.19052 0.20687 0.26291 0.0
C470 C 0.19923 0.22173 0.2801 0.0
C471 C 0.17623 0.19135 0.26953 0.0
C472 C 0.1703 0.1901 0.29356 0.0
C473 C 0.1788 0.20501 0.31083 0.0
C474 C 0.19324 0.22058 0.3042 0.0
C475 C 0.15486 0.17352 0.30025 0.0
C476 C 0.13526 0.18263 0.3114 0.0
C477 C 0.15852 0.14917 0.29379 0.0
C478 C 0.17948 0.13799 0.28354 0.0
C479 C 0.19952 0.14039 0.29539 0.0
C480 C 0.21922 0.12976 0.28571 0.0
C481 C 0.21909 0.11653 0.26428 0.0
C482 C 0.19926 0.11396 0.25244 0.0
C483 C 0.17951 0.12458 0.26202 0.0
H484 H 0.23435 0.10822 0.25686 0.0
H485 H 0.04314 0.2085 0.3528 0.0
H486 H 0.97694 0.11278 0.26476 0.0
H487 H 0.94589 0.1444 0.2584 0.0
H488 H 0.90205 0.09969 0.28607 0.0
H489 H 0.93286 0.06852 0.29271 0.0
H490 H 0.88344 0.12365 0.24743 0.0
H491 H 0.92058 0.14115 0.32181 0.0
H492 H 0.95189 0.14968 0.34751 0.0
H493 H 0.95765 0.21067 0.30591 0.0
H494 H 0.92654 0.20231 0.27977 0.0
H495 H 0.80816 0.22903 0.30475 0.0
H496 H 0.84047 0.19875 0.30593 0.0
H497 H 0.84603 0.20314 0.22928 0.0
H498 H 0.81376 0.23329 0.22786 0.0
H499 H 0.88406 0.2 0.2917 0.0
H500 H 0.85771 0.15776 0.20758 0.0
H501 H 0.82448 0.14839 0.18565 0.0
H502 H 0.79577 0.135 0.25243 0.0
H503 H 0.82873 0.14468 0.27467 0.0
C504 C 0.96057 0.10953 0.26881 0.0
C505 C 0.95729 0.08804 0.27892 0.0
C506 C 0.94286 0.12771 0.26547 0.0
C507 C 0.92153 0.12459 0.27193 0.0
C508 C 0.91822 0.10265 0.2809 0.0
C509 C 0.93587 0.08477 0.2846 0.0
C510 C 0.90267 0.14419 0.2704 0.0
C511 C 0.8838 0.1404 0.25693 0.0
C512 C 0.90265 0.16603 0.28311 0.0
C513 C 0.92145 0.17092 0.29865 0.0
C514 C 0.92868 0.15624 0.31799 0.0
C515 C 0.94635 0.16107 0.33268 0.0
C516 C 0.95681 0.18066 0.32829 0.0
C517 C 0.94957 0.19547 0.30925 0.0
C518 C 0.93192 0.1907 0.2945 0.0
C519 C 0.8162 0.22358 0.28809 0.0
C520 C 0.80812 0.23366 0.26619 0.0
C521 C 0.83477 0.20625 0.28882 0.0
C522 C 0.84566 0.19838 0.26767 0.0
C523 C 0.83778 0.20855 0.24582 0.0
C524 C 0.8193 0.22593 0.24507 0.0
C525 C 0.86516 0.17954 0.26838 0.0
C526 C 0.884 0.1834 0.28184 0.0
C527 C 0.8652 0.15769 0.25588 0.0
C528 C 0.84551 0.15195 0.24267 0.0
C529 C 0.84427 0.15279 0.2175 0.0
C530 C 0.82549 0.14752 0.20505 0.0
C531 C 0.80802 0.14111 0.21764 0.0
C532 C 0.80927 0.14004 0.24271 0.0
C533 C 0.82793 0.14553 0.25524 0.0
H534 H 0.79352 0.13696 0.20798 0.0
H535 H 0.97047 0.18438 0.33968 0.0
H536 H 0.9716 0.96814 0.27469 0.0
H537 H 0.94494 0.94104 0.26659 0.0
H538 H 0.92085 0.9535 0.33836 0.0
H539 H 0.94761 0.9807 0.34664 0.0
H540 H 0.92339 0.90747 0.32622 0.0
H541 H 0.89273 0.98001 0.28997 0.0
H542 H 0.89247 0.01468 0.26445 0.0
H543 H 0.90337 0.96915 0.20219 0.0
H544 H 0.90404 0.93417 0.22742 0.0
H545 H 0.82937 0.84931 0.2954 0.0
H546 H 0.85332 0.87788 0.3099 0.0
H547 H 0.88097 0.87736 0.23956 0.0
H548 H 0.85672 0.8499 0.2249 0.0
H549 H 0.87389 0.91999 0.25455 0.0
H550 H 0.90737 0.84726 0.29143 0.0
H551 H 0.90836 0.81264 0.31723 0.0
H552 H 0.89226 0.85843 0.37834 0.0
H553 H 0.89092 0.89331 0.35283 0.0
C554 C 0.96056 0.96532 0.28875 0.0
C555 C 0.96168 0.97688 0.31127 0.0
C556 C 0.94531 0.94972 0.28409 0.0
C557 C 0.93058 0.94547 0.30172 0.0
C558 C 0.93198 0.9565 0.32443 0.0
C559 C 0.94734 0.97205 0.32916 0.0
C560 C 0.91353 0.92986 0.29618 0.0
C561 C 0.91234 0.91038 0.31074 0.0
C562 C 0.8992 0.93346 0.27589 0.0
C563 C 0.89858 0.95447 0.26062 0.0
C564 C 0.8952 0.97739 0.27086 0.0
C565 C 0.89497 0.99709 0.25645 0.0
C566 C 0.89793 0.99412 0.23172 0.0
C567 C 0.90109 0.97142 0.22135 0.0
C568 C 0.90137 0.95165 0.2357 0.0
C569 C 0.84048 0.85543 0.28304 0.0
C570 C 0.84095 0.84741 0.25893 0.0
C571 C 0.85433 0.87163 0.29139 0.0
C572 C 0.86921 0.87973 0.27591 0.0
C573 C 0.86964 0.8716 0.25191 0.0
C574 C 0.85568 0.8558 0.24352 0.0
C575 C 0.88414 0.89702 0.2841 0.0
C576 C 0.88485 0.91702 0.2701 0.0
C577 C 0.898 0.89382 0.30487 0.0
C578 C 0.89877 0.87286 0.32017 0.0
C579 C 0.90387 0.84993 0.31033 0.0
C580 C 0.90453 0.83026 0.32491 0.0
C581 C 0.9003 0.83333 0.34939 0.0
C582 C 0.89548 0.85608 0.35936 0.0
C583 C 0.89477 0.87579 0.34486 0.0
H584 H 0.90082 0.81809 0.36065 0.0
H585 H 0.89775 0.0094 0.22059 0.0
H586 H 0.08908 0.01101 0.27219 0.0
H587 H 0.1212 0.98109 0.26664 0.0
H588 H 0.08084 0.92599 0.2746 0.0
H589 H 0.04917 0.95601 0.2815 0.0
H590 H 0.11444 0.91454 0.29965 0.0
H591 H 0.10612 0.94063 0.21803 0.0
H592 H 0.1024 0.96951 0.18547 0.0
H593 H 0.16441 0.99069 0.2065 0.0
H594 H 0.16839 0.96209 0.23935 0.0
H595 H 0.19161 0.81772 0.25973 0.0
H596 H 0.16046 0.84918 0.2619 0.0
H597 H 0.20462 0.90106 0.27095 0.0
H598 H 0.23598 0.8696 0.26896 0.0
H599 H 0.17044 0.91451 0.23759 0.0
H600 H 0.1786 0.88677 0.31847 0.0
H601 H 0.1821 0.85691 0.35007 0.0
H602 H 0.11947 0.83752 0.32871 0.0
H603 H 0.11573 0.86708 0.29676 0.0
C604 C 0.087 0.9925 0.27188 0.0
C605 C 0.06648 0.98583 0.27649 0.0
C606 C 0.10543 0.97529 0.26879 0.0
C607 C 0.10369 0.95097 0.26984 0.0
C608 C 0.08289 0.94446 0.27366 0.0
C609 C 0.06463 0.96164 0.27722 0.0
C610 C 0.12352 0.93234 0.26852 0.0
C611 C 0.1264 0.91444 0.28574 0.0
C612 C 0.13978 0.93223 0.25097 0.0
C613 C 0.13744 0.9494 0.23126 0.0
C614 C 0.11889 0.95156 0.2158 0.0
C615 C 0.11675 0.96785 0.19728 0.0
C616 C 0.13313 0.98197 0.19396 0.0
C617 C 0.15172 0.97977 0.20911 0.0
C618 C 0.15394 0.9635 0.22766 0.0
C619 C 0.19477 0.8358 0.26227 0.0
C620 C 0.21641 0.84103 0.26431 0.0
C621 C 0.17688 0.85381 0.26356 0.0
C622 C 0.1801 0.87757 0.26678 0.0
C623 C 0.20166 0.88291 0.2685 0.0
C624 C 0.2196 0.86485 0.26747 0.0
C625 C 0.16094 0.89673 0.26836 0.0
C626 C 0.15831 0.9147 0.25133 0.0
C627 C 0.14478 0.89678 0.2859 0.0
C628 C 0.14698 0.87899 0.30509 0.0
C629 C 0.16566 0.876 0.32038 0.0
C630 C 0.16767 0.85917 0.33839 0.0
C631 C 0.15104 0.84529 0.34136 0.0
C632 C 0.13235 0.84827 0.32637 0.0
C633 C 0.13027 0.86508 0.30833 0.0
H634 H 0.15262 0.83227 0.35532 0.0
H635 H 0.13144 0.99458 0.17962 0.0
H636 H 0.07307 0.99203 0.75764 0.0
H637 H 0.10486 0.96156 0.76514 0.0
H638 H 0.07526 0.91251 0.71899 0.0
H639 H 0.04392 0.94267 0.71142 0.0
H640 H 0.09367 0.89061 0.75856 0.0
H641 H 0.11501 0.94233 0.69867 0.0
H642 H 0.12179 0.9806 0.68309 0.0
H643 H 0.16851 0.98747 0.74061 0.0
H644 H 0.1618 0.94935 0.7567 0.0
H645 H 0.18193 0.8015 0.73346 0.0
H646 H 0.15111 0.83326 0.73074 0.0
H647 H 0.19062 0.88156 0.76544 0.0
H648 H 0.2219 0.85017 0.76659 0.0
H649 H 0.16739 0.90506 0.73483 0.0
H650 H 0.14762 0.85304 0.79447 0.0
H651 H 0.14145 0.81463 0.81027 0.0
H652 H 0.09215 0.80862 0.75529 0.0
H653 H 0.09824 0.84684 0.73898 0.0
C654 C 0.07316 0.97455 0.74964 0.0
C655 C 0.05586 0.96971 0.73412 0.0
C656 C 0.09146 0.9572 0.75367 0.0
C657 C 0.09265 0.93463 0.74248 0.0
C658 C 0.07487 0.92963 0.72789 0.0
C659 C 0.05688 0.94694 0.72361 0.0
C660 C 0.11245 0.91625 0.74513 0.0
C661 C 0.10978 0.89377 0.7533 0.0
C662 C 0.13366 0.92029 0.73872 0.0
C663 C 0.13768 0.94317 0.72906 0.0
C664 C 0.12658 0.95211 0.70811 0.0
C665 C 0.13045 0.97374 0.69916 0.0
C666 C 0.14551 0.9865 0.7109 0.0
C667 C 0.15681 0.9776 0.73157 0.0
C668 C 0.15299 0.95598 0.74061 0.0
C669 C 0.18406 0.81891 0.74046 0.0
C670 C 0.20439 0.8232 0.75035 0.0
C671 C 0.16629 0.83712 0.73912 0.0
C672 C 0.16805 0.85994 0.74854 0.0
C673 C 0.18854 0.86426 0.75812 0.0
C674 C 0.20648 0.84621 0.75884 0.0
C675 C 0.14871 0.87925 0.74834 0.0
C676 C 0.15141 0.90189 0.74049 0.0
C677 C 0.12753 0.87544 0.75531 0.0
C678 C 0.12347 0.85273 0.76544 0.0
C679 C 0.1355 0.84349 0.78573 0.0
C680 C 0.13203 0.82175 0.79476 0.0
C681 C 0.11644 0.80918 0.78378 0.0
C682 C 0.10422 0.81837 0.76378 0.0
C683 C 0.10765 0.84009 0.75466 0.0
H684 H 0.1138 0.79233 0.79077 0.0
H685 H 0.14847 1.00325 0.70395 0.0
H686 H 0.05009 0.1054 0.72976 0.0
H687 H 0.07767 0.13145 0.73848 0.0
H688 H 0.11848 0.09536 0.68368 0.0
H689 H 0.09132 0.06877 0.67541 0.0
H690 H 0.14263 0.10257 0.72246 0.0
H691 H 0.09004 0.15046 0.67432 0.0
H692 H 0.0536 0.17012 0.66146 0.0
H693 H 0.04784 0.20916 0.72841 0.0
H694 H 0.08414 0.18945 0.74183 0.0
H695 H 0.21505 0.191 0.72303 0.0
H696 H 0.18806 0.1654 0.70951 0.0
H697 H 0.14652 0.19211 0.76781 0.0
H698 H 0.17335 0.21751 0.78149 0.0
H699 H 0.12354 0.18981 0.72428 0.0
H700 H 0.17671 0.13956 0.77214 0.0
H701 H 0.2138 0.12018 0.78306 0.0
H702 H 0.21898 0.08586 0.71356 0.0
H703 H 0.18204 0.10535 0.7021 0.0
C704 C 0.06495 0.1029 0.71962 0.0
C705 C 0.06834 0.08496 0.70179 0.0
C706 C 0.08066 0.11799 0.72447 0.0
C707 C 0.1001 0.11562 0.71154 0.0
C708 C 0.1036 0.09765 0.69385 0.0
C709 C 0.0879 0.08256 0.68897 0.0
C710 C 0.1169 0.13162 0.71675 0.0
C711 C 0.13848 0.12165 0.72248 0.0
C712 C 0.11159 0.15655 0.71706 0.0
C713 C 0.0897 0.1683 0.70917 0.0
C714 C 0.08091 0.16307 0.68639 0.0
C715 C 0.0603 0.17425 0.67898 0.0
C716 C 0.04838 0.19083 0.69413 0.0
C717 C 0.05707 0.19628 0.71671 0.0
C718 C 0.07767 0.18512 0.72422 0.0
C719 C 0.20012 0.19149 0.73289 0.0
C720 C 0.19641 0.20626 0.75339 0.0
C721 C 0.18475 0.17678 0.7252 0.0
C722 C 0.16531 0.17672 0.73774 0.0
C723 C 0.16138 0.19184 0.75785 0.0
C724 C 0.17681 0.2063 0.7657 0.0
C725 C 0.1491 0.16074 0.73026 0.0
C726 C 0.12765 0.17073 0.72411 0.0
C727 C 0.15459 0.13585 0.72928 0.0
C728 C 0.17675 0.12413 0.73617 0.0
C729 C 0.18585 0.12806 0.75912 0.0
C730 C 0.20682 0.11702 0.76542 0.0
C731 C 0.21877 0.10186 0.74899 0.0
C732 C 0.20973 0.09765 0.72625 0.0
C733 C 0.18878 0.10868 0.71984 0.0
H734 H 0.235 0.09332 0.7539 0.0
H735 H 0.03243 0.19949 0.68835 0.0
H736 H 0.93094 0.06182 0.71778 0.0
H737 H 0.89997 0.09287 0.72358 0.0
H738 H 0.94377 0.13889 0.75418 0.0
H739 H 0.97477 0.10712 0.74938 0.0
H740 H 0.90693 0.14794 0.77601 0.0
H741 H 0.92401 0.14089 0.69231 0.0
H742 H 0.93063 0.12057 0.65305 0.0
H743 H 0.8658 0.10126 0.65189 0.0
H744 H 0.85888 0.12126 0.69126 0.0
H745 H 0.83564 0.25412 0.7585 0.0
H746 H 0.86589 0.2221 0.75572 0.0
H747 H 0.82187 0.17587 0.7261 0.0
H748 H 0.79142 0.20848 0.72799 0.0
H749 H 0.85874 0.16699 0.70426 0.0
H750 H 0.84178 0.17534 0.78834 0.0
H751 H 0.83524 0.19784 0.82645 0.0
H752 H 0.90033 0.21635 0.82608 0.0
H753 H 0.90715 0.19419 0.78782 0.0
C754 C 0.93385 0.07834 0.72643 0.0
C755 C 0.95522 0.08191 0.73348 0.0
C756 C 0.91615 0.09629 0.72937 0.0
C757 C 0.91941 0.1187 0.73863 0.0
C758 C 0.94067 0.12191 0.74683 0.0
C759 C 0.95841 0.10369 0.74429 0.0
C760 C 0.90083 0.13879 0.73892 0.0
C761 C 0.8966 0.15221 0.7602 0.0
C762 C 0.88687 0.14441 0.71849 0.0
C763 C 0.89101 0.13237 0.69483 0.0
C764 C 0.91122 0.13217 0.68375 0.0
C765 C 0.91502 0.12074 0.66146 0.0
C766 C 0.89867 0.10958 0.65001 0.0
C767 C 0.87846 0.10989 0.66079 0.0
C768 C 0.87458 0.12129 0.68307 0.0
C769 C 0.8323 0.23719 0.7513 0.0
C770 C 0.81093 0.23392 0.74369 0.0
C771 C 0.8497 0.21872 0.7499 0.0
C772 C 0.84625 0.19613 0.74143 0.0
C773 C 0.82506 0.19298 0.73298 0.0
C774 C 0.80761 0.21168 0.73401 0.0
C775 C 0.86475 0.17598 0.74137 0.0
C776 C 0.869 0.16261 0.7201 0.0
C777 C 0.87877 0.17052 0.76176 0.0
C778 C 0.87492 0.18322 0.78515 0.0
C779 C 0.85467 0.18425 0.79637 0.0
C780 C 0.85092 0.19695 0.81799 0.0
C781 C 0.86735 0.20854 0.82866 0.0
C782 C 0.88761 0.20736 0.8178 0.0
C783 C 0.89145 0.19469 0.79617 0.0
H784 H 0.86439 0.21843 0.84536 0.0
H785 H 0.90164 0.10074 0.63277 0.0
H786 H 0.94829 0.95824 0.66303 0.0
H787 H 0.9203 0.933 0.67001 0.0
H788 H 0.9146 0.9599 0.74294 0.0
H789 H 0.9424 0.98517 0.73611 0.0
H790 H 0.91734 0.91325 0.74176 0.0
H791 H 0.87535 0.97671 0.69822 0.0
H792 H 0.86725 1.00341 0.66404 0.0
H793 H 0.86254 0.94391 0.61648 0.0
H794 H 0.87096 0.91681 0.65034 0.0
H795 H 0.82247 0.87016 0.7765 0.0
H796 H 0.8495 0.89484 0.76542 0.0
H797 H 0.84799 0.86722 0.69269 0.0
H798 H 0.82017 0.8428 0.70357 0.0
H799 H 0.84958 0.91287 0.69164 0.0
H800 H 0.89933 0.85046 0.73028 0.0
H801 H 0.91309 0.82201 0.76152 0.0
H802 H 0.90427 0.87719 0.81553 0.0
H803 H 0.89172 0.90631 0.78424 0.0
C804 C 0.94093 0.959 0.68048 0.0
C805 C 0.94773 0.97378 0.69899 0.0
C806 C 0.92488 0.94454 0.68445 0.0
C807 C 0.91513 0.94468 0.70695 0.0
C808 C 0.92187 0.95942 0.72543 0.0
C809 C 0.93792 0.97382 0.72151 0.0
C810 C 0.89849 0.9289 0.71165 0.0
C811 C 0.90237 0.9135 0.73098 0.0
C812 C 0.87933 0.92844 0.69709 0.0
C813 C 0.87395 0.94472 0.67679 0.0
C814 C 0.87272 0.96931 0.68045 0.0
C815 C 0.86806 0.98451 0.66113 0.0
C816 C 0.86442 0.97536 0.63809 0.0
C817 C 0.86538 0.95098 0.63434 0.0
C818 C 0.87008 0.93569 0.65359 0.0
C819 C 0.82784 0.86923 0.75811 0.0
C820 C 0.81913 0.85435 0.74096 0.0
C821 C 0.84353 0.88327 0.75183 0.0
C822 C 0.85131 0.88258 0.72833 0.0
C823 C 0.84242 0.86801 0.711 0.0
C824 C 0.82651 0.85402 0.71725 0.0
C825 C 0.86832 0.89748 0.722 0.0
C826 C 0.86454 0.91269 0.70239 0.0
C827 C 0.88777 0.8977 0.73609 0.0
C828 C 0.89427 0.88037 0.75508 0.0
C829 C 0.90016 0.85644 0.74886 0.0
C830 C 0.90785 0.84024 0.76655 0.0
C831 C 0.9091 0.84763 0.7906 0.0
C832 C 0.90313 0.87143 0.79693 0.0
C833 C 0.89598 0.88785 0.7792 0.0
H834 H 0.9149 0.83497 0.80427 0.0
H835 H 0.86082 0.98716 0.62316 0.0
H836 H 0.2514 0.10774 0.06905 0.0
H837 H 0.25513 0.13561 0.10218 0.0
H838 H 0.31421 0.0926 0.12688 0.0
H839 H 0.31003 0.06394 0.09443 0.0
H840 H 0.2882 0.10925 0.1638 0.0
H841 H 0.31713 0.14163 0.09439 0.0
H842 H 0.31568 0.15421 0.05226 0.0
H843 H 0.25936 0.20518 0.06671 0.0
H844 H 0.26029 0.19268 0.10885 0.0
H845 H 0.30827 0.20028 0.24692 0.0
H846 H 0.31495 0.17145 0.21369 0.0
H847 H 0.25975 0.20795 0.17404 0.0
H848 H 0.25369 0.23718 0.20635 0.0
H849 H 0.28993 0.19323 0.14441 0.0
H850 H 0.25673 0.15855 0.21021 0.0
H851 H 0.25503 0.14605 0.25208 0.0
H852 H 0.31543 0.09947 0.24425 0.0
H853 H 0.31775 0.11215 0.20245 0.0
C854 C 0.26499 0.10393 0.0817 0.0
C855 C 0.28052 0.08367 0.07889 0.0
C856 C 0.26724 0.12004 0.10048 0.0
C857 C 0.28522 0.11639 0.11661 0.0
C858 C 0.30035 0.09583 0.11443 0.0
C859 C 0.29803 0.07959 0.09573 0.0
C860 C 0.28828 0.13427 0.13554 0.0
C861 C 0.28899 0.12754 0.15961 0.0
C862 C 0.28895 0.15816 0.12995 0.0
C863 C 0.28875 0.16614 0.10476 0.0
C864 C 0.3044 0.15547 0.08857 0.0
C865 C 0.30366 0.16258 0.06468 0.0
C866 C 0.28743 0.18047 0.05681 0.0
C867 C 0.27194 0.19134 0.07283 0.0
C868 C 0.27259 0.18427 0.09673 0.0
C869 C 0.29784 0.20231 0.23091 0.0
C870 C 0.28038 0.22086 0.22932 0.0
C871 C 0.30159 0.1858 0.21202 0.0
C872 C 0.28758 0.18729 0.19159 0.0
C873 C 0.27079 0.20642 0.18959 0.0
C874 C 0.2673 0.22311 0.20818 0.0
C875 C 0.28927 0.16839 0.17279 0.0
C876 C 0.28951 0.17488 0.14867 0.0
C877 C 0.28908 0.14436 0.17834 0.0
C878 C 0.28753 0.13648 0.20332 0.0
C879 C 0.26971 0.14574 0.21747 0.0
C880 C 0.26864 0.13862 0.24118 0.0
C881 C 0.2851 0.12196 0.25083 0.0
C882 C 0.30269 0.11239 0.23677 0.0
C883 C 0.30391 0.11956 0.21308 0.0
H884 H 0.28421 0.11644 0.26918 0.0
H885 H 0.28686 0.18592 0.0383 0.0
H886 H 0.94315 0.33776 0.04343 0.0
H887 H 0.91197 0.32964 0.06653 0.0
H888 H 0.94612 0.34528 0.13236 0.0
H889 H 0.97746 0.35295 0.10947 0.0
H890 H 0.92817 0.30418 0.1348 0.0
H891 H 0.90448 0.38436 0.11033 0.0
H892 H 0.89644 0.41586 0.0806 0.0
H893 H 0.84873 0.37798 0.04533 0.0
H894 H 0.85671 0.34608 0.07468 0.0
H895 H 0.84501 0.31146 0.21871 0.0
H896 H 0.87329 0.32114 0.19248 0.0
H897 H 0.83254 0.30951 0.13029 0.0
H898 H 0.80381 0.30027 0.15657 0.0
H899 H 0.85303 0.34703 0.12373 0.0
H900 H 0.87513 0.26764 0.1473 0.0
H901 H 0.883 0.2348 0.17554 0.0
H902 H 0.93358 0.26892 0.21025 0.0
H903 H 0.9258 0.30215 0.18242 0.0
C904 C 0.94402 0.33952 0.06282 0.0
C905 C 0.96284 0.34612 0.07453 0.0
C906 C 0.92611 0.33499 0.076 0.0
C907 C 0.92662 0.33696 0.10121 0.0
C908 C 0.94532 0.34367 0.11294 0.0
C909 C 0.96317 0.34831 0.09978 0.0
C910 C 0.90792 0.33157 0.11547 0.0
C911 C 0.9118 0.31376 0.13259 0.0
C912 C 0.88637 0.34344 0.112 0.0
C913 C 0.88132 0.36276 0.09458 0.0
C914 C 0.89237 0.38268 0.09615 0.0
C915 C 0.88782 0.40061 0.07938 0.0
C916 C 0.87212 0.3989 0.06106 0.0
C917 C 0.8609 0.37927 0.05952 0.0
C918 C 0.86541 0.36128 0.07623 0.0
C919 C 0.84194 0.31107 0.19947 0.0
C920 C 0.82213 0.30494 0.1898 0.0
C921 C 0.85822 0.31652 0.18444 0.0
C922 C 0.85529 0.31566 0.15933 0.0
C923 C 0.83527 0.31023 0.14958 0.0
C924 C 0.81886 0.3049 0.16465 0.0
C925 C 0.87337 0.31992 0.14344 0.0
C926 C 0.86937 0.33741 0.12594 0.0
C927 C 0.89481 0.30755 0.14632 0.0
C928 C 0.89976 0.28747 0.1629 0.0
C929 C 0.88785 0.26821 0.16105 0.0
C930 C 0.8923 0.24952 0.17697 0.0
C931 C 0.90875 0.2498 0.19471 0.0
C932 C 0.92083 0.26874 0.19651 0.0
C933 C 0.91642 0.28749 0.18065 0.0
H934 H 0.91216 0.23532 0.20704 0.0
H935 H 0.86862 0.41279 0.04808 0.0
H936 H 0.71354 0.96929 0.07744 0.0
H937 H 0.71533 0.93858 0.10767 0.0
H938 H 0.78275 0.91519 0.09068 0.0
H939 H 0.78108 0.94574 0.06062 0.0
H940 H 0.724 0.89074 0.10587 0.0
H941 H 0.81122 0.90517 0.13586 0.0
H942 H 0.83249 0.9386 0.14108 0.0
H943 H 0.77356 0.98548 0.15604 0.0
H944 H 0.752 0.95237 0.15069 0.0
H945 H 0.75774 0.79211 0.1757 0.0
H946 H 0.75768 0.8227 0.14569 0.0
H947 H 0.76364 0.87444 0.20263 0.0
H948 H 0.76596 0.84326 0.23227 0.0
H949 H 0.78281 0.88749 0.16898 0.0
H950 H 0.71218 0.86319 0.17279 0.0
H951 H 0.68517 0.83516 0.17181 0.0
H952 H 0.70023 0.81654 0.09839 0.0
H953 H 0.7276 0.84419 0.09905 0.0
C954 C 0.72867 0.95747 0.08005 0.0
C955 C 0.74726 0.96006 0.06687 0.0
C956 C 0.72967 0.93998 0.09731 0.0
C957 C 0.74926 0.92488 0.1016 0.0
C958 C 0.76761 0.92702 0.08798 0.0
C959 C 0.76666 0.94451 0.07087 0.0
C960 C 0.75092 0.90711 0.12064 0.0
C961 C 0.73679 0.88995 0.11973 0.0
C962 C 0.76704 0.90669 0.13917 0.0
C963 C 0.78008 0.92638 0.14287 0.0
C964 C 0.80288 0.9226 0.14039 0.0
C965 C 0.81495 0.9415 0.14326 0.0
C966 C 0.80439 0.96415 0.14889 0.0
C967 C 0.78172 0.96796 0.15162 0.0
C968 C 0.76958 0.94917 0.14858 0.0
C969 C 0.75956 0.80997 0.18158 0.0
C970 C 0.76174 0.8156 0.20606 0.0
C971 C 0.75923 0.82749 0.16453 0.0
C972 C 0.75978 0.85114 0.17187 0.0
C973 C 0.76302 0.85643 0.19641 0.0
C974 C 0.7643 0.83868 0.21337 0.0
C975 C 0.7561 0.87045 0.15419 0.0
C976 C 0.76991 0.88805 0.15527 0.0
C977 C 0.73879 0.87195 0.13665 0.0
C978 C 0.72207 0.85561 0.13604 0.0
C979 C 0.7098 0.85304 0.15647 0.0
C980 C 0.69443 0.83721 0.15597 0.0
C981 C 0.69102 0.82404 0.13507 0.0
C982 C 0.70292 0.82673 0.11458 0.0
C983 C 0.71834 0.84249 0.115 0.0
H984 H 0.67914 0.81178 0.13472 0.0
H985 H 0.81376 0.97874 0.15113 0.0
H986 H 0.08487 0.78244 0.02063 0.0
H987 H 0.11625 0.78304 0.04853 0.0
H988 H 0.07355 0.78161 0.10842 0.0
H989 H 0.04209 0.78251 0.0804 0.0
H990 H 0.10203 0.80738 0.12111 0.0
H991 H 0.10692 0.7303 0.085 0.0
H992 H 0.10745 0.70112 0.05155 0.0
H993 H 0.16567 0.72379 0.02523 0.0
H994 H 0.16533 0.75332 0.05835 0.0
H995 H 0.20314 0.75029 0.18932 0.0
H996 H 0.17233 0.74589 0.16132 0.0
H997 H 0.17973 0.8121 0.12927 0.0
H998 H 0.21011 0.81683 0.1572 0.0
H999 H 0.16837 0.74957 0.10598 0.0
H1000 H 0.14153 0.83981 0.13749 0.0
H1001 H 0.14103 0.86444 0.17467 0.0
H1002 H 0.12416 0.80692 0.21521 0.0
H1003 H 0.12493 0.78193 0.17829 0.0
C1004 C 0.08226 0.78288 0.03979 0.0
C1005 C 0.06118 0.78279 0.04847 0.0
C1006 C 0.10016 0.78285 0.05572 0.0
C1007 C 0.0974 0.78173 0.08063 0.0
C1008 C 0.07616 0.78245 0.08933 0.0
C1009 C 0.05817 0.7831 0.07337 0.0
C1010 C 0.11667 0.77933 0.09751 0.0
C1011 C 0.11639 0.79461 0.1177 0.0
C1012 C 0.1354 0.76229 0.09367 0.0
C1013 C 0.136 0.74414 0.07406 0.0
C1014 C 0.11979 0.72911 0.07203 0.0
C1015 C 0.12006 0.71252 0.05312 0.0
C1016 C 0.13656 0.71064 0.03624 0.0
C1017 C 0.1529 0.72527 0.03831 0.0
C1018 C 0.15269 0.74192 0.05717 0.0
C1019 C 0.1984 0.76368 0.17602 0.0
C1020 C 0.20883 0.78403 0.17557 0.0
C1021 C 0.18086 0.76113 0.16009 0.0
C1022 C 0.17374 0.7788 0.14349 0.0
C1023 C 0.1849 0.79843 0.14218 0.0
C1024 C 0.20222 0.8011 0.15815 0.0
C1025 C 0.15363 0.77799 0.1287 0.0
C1026 C 0.15381 0.76213 0.10914 0.0
C1027 C 0.13455 0.79385 0.13343 0.0
C1028 C 0.13316 0.80916 0.15525 0.0
C1029 C 0.13757 0.83255 0.15434 0.0
C1030 C 0.13737 0.8465 0.17536 0.0
C1031 C 0.13254 0.83727 0.19729 0.0
C1032 C 0.12791 0.81405 0.19823 0.0
C1033 C 0.12829 0.79998 0.1773 0.0
H1034 H 0.13241 0.84808 0.21354 0.0
H1035 H 0.13669 0.69783 0.02158 0.0
H1036 H 0.24819 0.95131 0.94947 0.0
H1037 H 0.25179 0.9135 0.92713 0.0
H1038 H 0.32204 0.90691 0.93592 0.0
H1039 H 0.3185 0.94461 0.95839 0.0
H1040 H 0.30589 0.90075 0.88754 0.0
H1041 H 0.30004 0.87176 0.96633 0.0
H1042 H 0.28421 0.87073 0.00637 0.0
H1043 H 0.22356 0.85576 0.97386 0.0
H1044 H 0.23891 0.85706 0.93358 0.0
H1045 H 0.29524 0.77032 0.85297 0.0
H1046 H 0.30436 0.80058 0.88225 0.0
H1047 H 0.25987 0.85332 0.84506 0.0
H1048 H 0.25098 0.82365 0.8157 0.0
H1049 H 0.27129 0.83171 0.9114 0.0
H1050 H 0.2799 0.88991 0.83744 0.0
H1051 H 0.29599 0.89006 0.79732 0.0
H1052 H 0.35354 0.8456 0.82277 0.0
H1053 H 0.3375 0.84483 0.86285 0.0
C1054 C 0.26434 0.94167 0.94671 0.0
C1055 C 0.28303 0.95071 0.95565 0.0
C1056 C 0.26639 0.92013 0.93413 0.0
C1057 C 0.28717 0.9075 0.93012 0.0
C1058 C 0.30589 0.91644 0.93904 0.0
C1059 C 0.30383 0.93782 0.95194 0.0
C1060 C 0.28921 0.88554 0.91554 0.0
C1061 C 0.29865 0.88552 0.89295 0.0
C1062 C 0.27988 0.86568 0.92271 0.0
C1063 C 0.27061 0.86463 0.94691 0.0
C1064 C 0.28327 0.86841 0.9677 0.0
C1065 C 0.2744 0.86775 0.99045 0.0
C1066 C 0.25289 0.86321 0.99266 0.0
C1067 C 0.24022 0.85927 0.97212 0.0
C1068 C 0.24902 0.85993 0.94932 0.0
C1069 C 0.28758 0.78842 0.85096 0.0
C1070 C 0.27247 0.79465 0.83202 0.0
C1071 C 0.29279 0.8056 0.86765 0.0
C1072 C 0.28296 0.82909 0.8655 0.0
C1073 C 0.26794 0.83532 0.84663 0.0
C1074 C 0.26285 0.81831 0.82993 0.0
C1075 C 0.28747 0.8473 0.88335 0.0
C1076 C 0.27908 0.8467 0.90641 0.0
C1077 C 0.29784 0.86656 0.87679 0.0
C1078 C 0.30758 0.86733 0.85297 0.0
C1079 C 0.296 0.88023 0.83441 0.0
C1080 C 0.30505 0.88032 0.81168 0.0
C1081 C 0.32578 0.86785 0.8075 0.0
C1082 C 0.33747 0.85519 0.82601 0.0
C1083 C 0.32837 0.85482 0.84868 0.0
H1084 H 0.33279 0.868 0.78992 0.0
H1085 H 0.24605 0.8627 0.01029 0.0
H1086 H 0.10427 0.36913 0.96477 0.0
H1087 H 0.13262 0.36127 0.93475 0.0
H1088 H 0.09759 0.30872 0.90048 0.0
H1089 H 0.06947 0.31619 0.9308 0.0
H1090 H 0.13841 0.29213 0.90257 0.0
H1091 H 0.09913 0.36611 0.8768 0.0
H1092 H 0.08288 0.40791 0.88083 0.0
H1093 H 0.14621 0.42745 0.89865 0.0
H1094 H 0.16279 0.38571 0.89501 0.0
H1095 H 0.19558 0.27695 0.79465 0.0
H1096 H 0.16707 0.28818 0.82377 0.0
H1097 H 0.20613 0.33702 0.85817 0.0
H1098 H 0.23461 0.3263 0.8285 0.0
H1099 H 0.16428 0.35575 0.85671 0.0
H1100 H 0.20337 0.2807 0.88044 0.0
H1101 H 0.2189 0.2392 0.87261 0.0
H1102 H 0.15451 0.22155 0.85685 0.0
H1103 H 0.13866 0.26311 0.86394 0.0
C1104 C 0.10247 0.3561 0.95069 0.0
C1105 C 0.08451 0.34338 0.95017 0.0
C1106 C 0.11871 0.35162 0.93346 0.0
C1107 C 0.11719 0.33462 0.91501 0.0
C1108 C 0.09924 0.32191 0.91448 0.0
C1109 C 0.08314 0.32619 0.93186 0.0
C1110 C 0.13448 0.32961 0.89661 0.0
C1111 C 0.14382 0.30608 0.89237 0.0
C1112 C 0.14207 0.34773 0.88357 0.0
C1113 C 0.13214 0.37278 0.8859 0.0
C1114 C 0.10955 0.37931 0.88178 0.0
C1115 C 0.10029 0.40299 0.88395 0.0
C1116 C 0.11349 0.42032 0.89007 0.0
C1117 C 0.136 0.41401 0.89396 0.0
C1118 C 0.14533 0.39035 0.89183 0.0
C1119 C 0.19814 0.29013 0.80836 0.0
C1120 C 0.21754 0.3005 0.8094 0.0
C1121 C 0.1818 0.2965 0.82508 0.0
C1122 C 0.18462 0.31303 0.84361 0.0
C1123 C 0.20361 0.32409 0.84418 0.0
C1124 C 0.2199 0.31794 0.82721 0.0
C1125 C 0.16797 0.31833 0.86259 0.0
C1126 C 0.15885 0.34187 0.867 0.0
C1127 C 0.16045 0.30022 0.87568 0.0
C1128 C 0.16986 0.27504 0.87252 0.0
C1129 C 0.19254 0.26798 0.87523 0.0
C1130 C 0.20139 0.24446 0.87087 0.0
C1131 C 0.18769 0.22777 0.86417 0.0
C1132 C 0.1651 0.23452 0.86199 0.0
C1133 C 0.15617 0.25806 0.86616 0.0
H1134 H 0.19455 0.2096 0.86065 0.0
H1135 H 0.10629 0.43864 0.89173 0.0
H1136 H 0.70355 0.0877 0.93277 0.0
H1137 H 0.70204 0.12507 0.91157 0.0
H1138 H 0.77203 0.12172 0.92079 0.0
H1139 H 0.77361 0.08447 0.94191 0.0
H1140 H 0.74687 0.16674 0.93286 0.0
H1141 H 0.75275 0.1051 0.86956 0.0
H1142 H 0.7394 0.07183 0.84733 0.0
H1143 H 0.67893 0.11578 0.83024 0.0
H1144 H 0.69181 0.1492 0.85272 0.0
H1145 H 0.79689 0.2277 0.84997 0.0
H1146 H 0.78288 0.19901 0.87474 0.0
H1147 H 0.71788 0.21931 0.84487 0.0
H1148 H 0.73186 0.24842 0.81983 0.0
H1149 H 0.73013 0.17069 0.8452 0.0
H1150 H 0.72587 0.23412 0.90078 0.0
H1151 H 0.73707 0.26818 0.92352 0.0
H1152 H 0.79066 0.22305 0.95632 0.0
H1153 H 0.78002 0.18875 0.93347 0.0
C1154 C 0.71856 0.09504 0.93031 0.0
C1155 C 0.73873 0.0832 0.93882 0.0
C1156 C 0.71767 0.11627 0.9182 0.0
C1157 C 0.73692 0.12603 0.91469 0.0
C1158 C 0.75701 0.1144 0.92342 0.0
C1159 C 0.75794 0.09306 0.93523 0.0
C1160 C 0.7365 0.14812 0.90147 0.0
C1161 C 0.74324 0.16769 0.9137 0.0
C1162 C 0.7307 0.14957 0.87675 0.0
C1163 C 0.72312 0.12954 0.86306 0.0
C1164 C 0.73653 0.1076 0.86124 0.0
C1165 C 0.72907 0.08873 0.84857 0.0
C1166 C 0.7083 0.09166 0.83745 0.0
C1167 C 0.69499 0.11351 0.83891 0.0
C1168 C 0.70236 0.13242 0.85161 0.0
C1169 C 0.77958 0.22623 0.84871 0.0
C1170 C 0.76546 0.24033 0.83297 0.0
C1171 C 0.77158 0.20991 0.863 0.0
C1172 C 0.74931 0.20728 0.86183 0.0
C1173 C 0.7351 0.22125 0.84611 0.0
C1174 C 0.74309 0.23785 0.8319 0.0
C1175 C 0.74155 0.18899 0.87638 0.0
C1176 C 0.73323 0.1701 0.86447 0.0
C1177 C 0.74556 0.18829 0.9015 0.0
C1178 C 0.7522 0.20885 0.91527 0.0
C1179 C 0.74017 0.23147 0.91268 0.0
C1180 C 0.74639 0.25083 0.92562 0.0
C1181 C 0.76458 0.24779 0.94133 0.0
C1182 C 0.77657 0.22537 0.94414 0.0
C1183 C 0.77043 0.20596 0.93121 0.0
H1184 H 0.76937 0.26279 0.95135 0.0
H1185 H 0.70255 0.07704 0.82765 0.0
H1186 H 0.93992 0.75796 0.95223 0.0
H1187 H 0.90964 0.76803 0.92288 0.0
H1188 H 0.94326 0.71935 0.87129 0.0
H1189 H 0.9734 0.70973 0.90024 0.0
H1190 H 0.92459 0.7584 0.84998 0.0
H1191 H 0.90418 0.70235 0.90518 0.0
H1192 H 0.89723 0.68736 0.94498 0.0
H1193 H 0.84766 0.74679 0.95679 0.0
H1194 H 0.85452 0.76229 0.91715 0.0
H1195 H 0.8414 0.73638 0.76846 0.0
H1196 H 0.86869 0.728 0.80098 0.0
H1197 H 0.83134 0.77991 0.84652 0.0
H1198 H 0.80373 0.78793 0.81448 0.0
H1199 H 0.85097 0.74164 0.87197 0.0
H1200 H 0.87094 0.79505 0.81291 0.0
H1201 H 0.87616 0.80457 0.77075 0.0
H1202 H 0.92773 0.74608 0.76515 0.0
H1203 H 0.92217 0.73559 0.80702 0.0
C1204 C 0.94095 0.74994 0.9344 0.0
C1205 C 0.95876 0.73296 0.92843 0.0
C1206 C 0.92365 0.75548 0.91779 0.0
C1207 C 0.92413 0.74413 0.89508 0.0
C1208 C 0.94254 0.72823 0.88873 0.0
C1209 C 0.95967 0.72267 0.90527 0.0
C1210 C 0.90515 0.74765 0.87816 0.0
C1211 C 0.90852 0.75468 0.85478 0.0
C1212 C 0.88418 0.74286 0.88449 0.0
C1213 C 0.88005 0.73363 0.90834 0.0
C1214 C 0.89193 0.71233 0.91636 0.0
C1215 C 0.88799 0.70372 0.93886 0.0
C1216 C 0.87207 0.71615 0.95344 0.0
C1217 C 0.86002 0.7372 0.9455 0.0
C1218 C 0.86393 0.74591 0.92302 0.0
C1219 C 0.83877 0.74565 0.78555 0.0
C1220 C 0.82057 0.76304 0.78877 0.0
C1221 C 0.85437 0.74087 0.8041 0.0
C1222 C 0.8522 0.75371 0.82594 0.0
C1223 C 0.83333 0.76989 0.82977 0.0
C1224 C 0.81762 0.7745 0.81135 0.0
C1225 C 0.87053 0.75213 0.84378 0.0
C1226 C 0.867 0.74559 0.8673 0.0
C1227 C 0.89148 0.75703 0.83751 0.0
C1228 C 0.89598 0.7644 0.81301 0.0
C1229 C 0.88335 0.78417 0.80267 0.0
C1230 C 0.88627 0.78965 0.77878 0.0
C1231 C 0.90221 0.77587 0.76525 0.0
C1232 C 0.91534 0.75668 0.77563 0.0
C1233 C 0.91226 0.75091 0.79942 0.0
H1234 H 0.90446 0.78015 0.74674 0.0
H1235 H 0.86902 0.70945 0.97085 0.0
H1236 H 0.05782 0.27662 0.09774 0.0
H1237 H 0.08885 0.27646 0.12606 0.0
H1238 H 0.11884 0.32052 0.07874 0.0
H1239 H 0.08851 0.31912 0.04957 0.0
H1240 H 0.14972 0.2946 0.09811 0.0
H1241 H 0.08769 0.34098 0.13414 0.0
H1242 H 0.05014 0.3495 0.14919 0.0
H1243 H 0.06393 0.29249 0.19857 0.0
H1244 H 0.10148 0.28347 0.18362 0.0
H1245 H 0.22462 0.32631 0.19068 0.0
H1246 H 0.19582 0.32673 0.15939 0.0
H1247 H 0.16275 0.28115 0.20191 0.0
H1248 H 0.19058 0.28213 0.23373 0.0
H1249 H 0.13369 0.31037 0.18415 0.0
H1250 H 0.19658 0.26409 0.14625 0.0
H1251 H 0.2342 0.2578 0.13115 0.0
H1252 H 0.21881 0.31765 0.08553 0.0
H1253 H 0.18117 0.32438 0.10051 0.0
C1254 C 0.07124 0.2859 0.09317 0.0
C1255 C 0.07067 0.29775 0.07128 0.0
C1256 C 0.08892 0.28616 0.10962 0.0
C1257 C 0.10613 0.29921 0.10524 0.0
C1258 C 0.1059 0.3104 0.08292 0.0
C1259 C 0.08851 0.30953 0.06611 0.0
C1260 C 0.12411 0.30136 0.12388 0.0
C1261 C 0.14608 0.29832 0.11687 0.0
C1262 C 0.11984 0.30603 0.14862 0.0
C1263 C 0.09729 0.31143 0.1576 0.0
C1264 C 0.08265 0.33018 0.1481 0.0
C1265 C 0.06138 0.33511 0.15663 0.0
C1266 C 0.05464 0.3215 0.17478 0.0
C1267 C 0.06916 0.30299 0.18449 0.0
C1268 C 0.09044 0.29798 0.17602 0.0
C1269 C 0.21115 0.31645 0.19336 0.0
C1270 C 0.20999 0.30423 0.21483 0.0
C1271 C 0.19472 0.31645 0.17525 0.0
C1272 C 0.17706 0.30351 0.17772 0.0
C1273 C 0.176 0.29133 0.19925 0.0
C1274 C 0.19205 0.29186 0.21755 0.0
C1275 C 0.15932 0.30298 0.15851 0.0
C1276 C 0.13734 0.30653 0.1654 0.0
C1277 C 0.1636 0.29902 0.13369 0.0
C1278 C 0.18616 0.29483 0.12464 0.0
C1279 C 0.20127 0.27595 0.13308 0.0
C1280 C 0.22259 0.27231 0.12453 0.0
C1281 C 0.22891 0.28735 0.10744 0.0
C1282 C 0.2139 0.30603 0.09879 0.0
C1283 C 0.19258 0.30974 0.10727 0.0
H1284 H 0.24541 0.28451 0.10086 0.0
H1285 H 0.03816 0.32534 0.18135 0.0
H1286 H 0.05006 0.71477 0.92271 0.0
H1287 H 0.08156 0.71131 0.89723 0.0
H1288 H 0.1247 0.70203 0.95977 0.0
H1289 H 0.0926 0.70617 0.98571 0.0
H1290 H 0.13548 0.73555 0.93234 0.0
H1291 H 0.12304 0.65685 0.91664 0.0
H1292 H 0.10183 0.62409 0.90757 0.0
H1293 H 0.08127 0.65414 0.83934 0.0
H1294 H 0.10204 0.68732 0.84814 0.0
H1295 H 0.218 0.72933 0.84028 0.0
H1296 H 0.19705 0.716 0.8729 0.0
H1297 H 0.13683 0.74065 0.83455 0.0
H1298 H 0.15752 0.75456 0.80225 0.0
H1299 H 0.14206 0.69169 0.85427 0.0
H1300 H 0.14836 0.77383 0.87502 0.0
H1301 H 0.16887 0.80709 0.88456 0.0
H1302 H 0.2013 0.76929 0.94412 0.0
H1303 H 0.18123 0.73561 0.93465 0.0
C1304 C 0.06626 0.7113 0.93101 0.0
C1305 C 0.069 0.7106 0.95609 0.0
C1306 C 0.08431 0.70918 0.9164 0.0
C1307 C 0.10557 0.70607 0.92649 0.0
C1308 C 0.10842 0.70421 0.9516 0.0
C1309 C 0.09017 0.70631 0.96636 0.0
C1310 C 0.12425 0.70761 0.91067 0.0
C1311 C 0.13739 0.72541 0.91562 0.0
C1312 C 0.12654 0.69467 0.88863 0.0
C1313 C 0.11414 0.67461 0.88309 0.0
C1314 C 0.11392 0.65655 0.89975 0.0
C1315 C 0.10196 0.6379 0.89465 0.0
C1316 C 0.09022 0.63703 0.87289 0.0
C1317 C 0.09041 0.65481 0.85617 0.0
C1318 C 0.10232 0.67353 0.86119 0.0
C1319 C 0.2003 0.73174 0.83874 0.0
C1320 C 0.18937 0.74292 0.81869 0.0
C1321 C 0.1884 0.72421 0.8574 0.0
C1322 C 0.16547 0.72737 0.85604 0.0
C1323 C 0.15455 0.73802 0.83583 0.0
C1324 C 0.16638 0.74598 0.81744 0.0
C1325 C 0.15261 0.71997 0.87576 0.0
C1326 C 0.14059 0.70118 0.87139 0.0
C1327 C 0.15144 0.73187 0.89834 0.0
C1328 C 0.16361 0.75203 0.90386 0.0
C1329 C 0.1601 0.77247 0.88994 0.0
C1330 C 0.17158 0.79144 0.89538 0.0
C1331 C 0.18647 0.79026 0.91486 0.0
C1332 C 0.18983 0.77014 0.92898 0.0
C1333 C 0.17842 0.75111 0.92358 0.0
H1334 H 0.19532 0.80497 0.91907 0.0
H1335 H 0.08097 0.62257 0.86897 0.0
H1336 H 0.32792 0.04366 0.94375 0.0
H1337 H 0.32436 0.06945 0.90907 0.0
H1338 H 0.32716 0.13003 0.95623 0.0
H1339 H 0.3306 0.10446 0.99097 0.0
H1340 H 0.29191 0.13629 0.9272 0.0
H1341 H 0.36815 0.11228 0.91731 0.0
H1342 H 0.40237 0.08473 0.9132 0.0
H1343 H 0.37637 0.05445 0.84908 0.0
H1344 H 0.34184 0.0816 0.85302 0.0
H1345 H 0.28403 0.2181 0.83206 0.0
H1346 H 0.29786 0.19461 0.86679 0.0
H1347 H 0.2967 0.13061 0.82434 0.0
H1348 H 0.28307 0.15394 0.7895 0.0
H1349 H 0.3334 0.12791 0.85183 0.0
H1350 H 0.25626 0.14932 0.86401 0.0
H1351 H 0.22118 0.17493 0.86967 0.0
H1352 H 0.24892 0.20958 0.9301 0.0
H1353 H 0.28426 0.18419 0.9247 0.0
C1354 C 0.32835 0.06239 0.94674 0.0
C1355 C 0.32945 0.07196 0.97022 0.0
C1356 C 0.32634 0.07714 0.92685 0.0
C1357 C 0.32547 0.10171 0.93001 0.0
C1358 C 0.32773 0.11114 0.95333 0.0
C1359 C 0.3298 0.09643 0.9732 0.0
C1360 C 0.31994 0.11775 0.9094 0.0
C1361 C 0.30129 0.13477 0.91091 0.0
C1362 C 0.33175 0.11537 0.88787 0.0
C1363 C 0.35233 0.0988 0.88561 0.0
C1364 C 0.36964 0.09957 0.90248 0.0
C1365 C 0.38911 0.08407 0.90015 0.0
C1366 C 0.39152 0.0678 0.88093 0.0
C1367 C 0.37447 0.06703 0.86398 0.0
C1368 C 0.35495 0.08248 0.86625 0.0
C1369 C 0.28688 0.19903 0.83003 0.0
C1370 C 0.28238 0.18791 0.80797 0.0
C1371 C 0.29468 0.18561 0.84997 0.0
C1372 C 0.29809 0.16081 0.84828 0.0
C1373 C 0.29418 0.14971 0.8261 0.0
C1374 C 0.28633 0.16309 0.80619 0.0
C1375 C 0.30534 0.14635 0.86966 0.0
C1376 C 0.32422 0.12959 0.86825 0.0
C1377 C 0.29376 0.14893 0.89134 0.0
C1378 C 0.27294 0.16507 0.89378 0.0
C1379 C 0.25497 0.16264 0.87829 0.0
C1380 C 0.23501 0.17706 0.88151 0.0
C1381 C 0.23282 0.1939 0.90023 0.0
C1382 C 0.25064 0.19653 0.91562 0.0
C1383 C 0.27063 0.18212 0.91249 0.0
H1384 H 0.21727 0.20481 0.90297 0.0
H1385 H 0.40662 0.05584 0.87914 0.0
H1386 H 0.9514 0.28843 0.99753 0.0
H1387 H 0.92184 0.29113 0.96732 0.0
H1388 H 0.96724 0.30247 0.91271 0.0
H1389 H 0.99665 0.30138 0.9434 0.0
H1390 H 0.9328 0.32906 0.90292 0.0
H1391 H 0.94334 0.24657 0.92174 0.0
H1392 H 0.94664 0.21214 0.9481 0.0
H1393 H 0.88159 0.23419 0.97295 0.0
H1394 H 0.878 0.26889 0.9469 0.0
H1395 H 0.86566 0.30199 0.80263 0.0
H1396 H 0.89379 0.30182 0.83437 0.0
H1397 H 0.84449 0.30421 0.88796 0.0
H1398 H 0.81607 0.30426 0.85608 0.0
H1399 H 0.87975 0.27132 0.89857 0.0
H1400 H 0.86937 0.35306 0.87736 0.0
H1401 H 0.86656 0.38636 0.84961 0.0
H1402 H 0.93237 0.36387 0.82738 0.0
H1403 H 0.93549 0.33025 0.85481 0.0
C1404 C 0.95522 0.29117 0.97904 0.0
C1405 C 0.9766 0.29426 0.97293 0.0
C1406 C 0.9382 0.29262 0.96161 0.0
C1407 C 0.9421 0.29637 0.93729 0.0
C1408 C 0.96354 0.29943 0.93117 0.0
C1409 C 0.98048 0.29861 0.94876 0.0
C1410 C 0.92386 0.29769 0.91845 0.0
C1411 C 0.92149 0.31613 0.90186 0.0
C1412 C 0.90844 0.28135 0.91705 0.0
C1413 C 0.91049 0.26041 0.93254 0.0
C1414 C 0.92979 0.24412 0.93292 0.0
C1415 C 0.9317 0.22456 0.94779 0.0
C1416 C 0.91436 0.22101 0.96223 0.0
C1417 C 0.89502 0.23697 0.96177 0.0
C1418 C 0.89303 0.25657 0.94693 0.0
C1419 C 0.86067 0.30275 0.82115 0.0
C1420 C 0.83845 0.30335 0.82667 0.0
C1421 C 0.87686 0.3027 0.83936 0.0
C1422 C 0.8714 0.30324 0.86372 0.0
C1423 C 0.84922 0.30388 0.86937 0.0
C1424 C 0.83292 0.30409 0.85108 0.0
C1425 C 0.88895 0.30247 0.8831 0.0
C1426 C 0.89114 0.28417 0.89974 0.0
C1427 C 0.90435 0.31874 0.88435 0.0
C1428 C 0.9026 0.33904 0.86801 0.0
C1429 C 0.8832 0.35513 0.86645 0.0
C1430 C 0.88156 0.37408 0.8508 0.0
C1431 C 0.89926 0.3772 0.83671 0.0
C1432 C 0.91867 0.36142 0.8383 0.0
C1433 C 0.92039 0.34244 0.85392 0.0
H1434 H 0.89796 0.39188 0.82459 0.0
H1435 H 0.91588 0.20586 0.97375 0.0
H1436 H 0.72357 0.93392 0.96875 0.0
H1437 H 0.71835 0.90912 0.9335 0.0
H1438 H 0.67509 0.96643 0.90144 0.0
H1439 H 0.68059 0.99165 0.93694 0.0
H1440 H 0.68705 0.89192 0.90892 0.0
H1441 H 0.68735 0.96557 0.84063 0.0
H1442 H 0.69822 1.0054 0.8382 0.0
H1443 H 0.7474 0.98839 0.89357 0.0
H1444 H 0.73705 0.94838 0.89602 0.0
H1445 H 0.6908 0.83224 0.79535 0.0
H1446 H 0.67893 0.86146 0.82687 0.0
H1447 H 0.74222 0.88552 0.8274 0.0
H1448 H 0.75376 0.85722 0.7953 0.0
H1449 H 0.71345 0.92159 0.83368 0.0
H1450 H 0.72707 0.84412 0.86895 0.0
H1451 H 0.72174 0.8025 0.87358 0.0
H1452 H 0.65377 0.82414 0.88773 0.0
H1453 H 0.65868 0.86588 0.88291 0.0
C1454 C 0.71249 0.94109 0.95446 0.0
C1455 C 0.70258 0.96474 0.9555 0.0
C1456 C 0.70948 0.92685 0.93431 0.0
C1457 C 0.6966 0.93598 0.91463 0.0
C1458 C 0.6853 0.9591 0.91632 0.0
C1459 C 0.68827 0.97342 0.93667 0.0
C1460 C 0.69712 0.92186 0.8918 0.0
C1461 C 0.69248 0.89853 0.89234 0.0
C1462 C 0.70462 0.93027 0.87026 0.0
C1463 C 0.71117 0.95416 0.86876 0.0
C1464 C 0.70049 0.97035 0.85225 0.0
C1465 C 0.70658 0.99294 0.85085 0.0
C1466 C 0.72342 0.99946 0.86581 0.0
C1467 C 0.7343 0.98336 0.88207 0.0
C1468 C 0.72832 0.96073 0.88348 0.0
C1469 C 0.70207 0.84398 0.802 0.0
C1470 C 0.72325 0.84233 0.79288 0.0
C1471 C 0.6953 0.8606 0.82011 0.0
C1472 C 0.70978 0.87547 0.82987 0.0
C1473 C 0.73068 0.87433 0.82019 0.0
C1474 C 0.7373 0.85806 0.80182 0.0
C1475 C 0.70383 0.89143 0.85092 0.0
C1476 C 0.70744 0.91513 0.85002 0.0
C1477 C 0.69612 0.88311 0.8724 0.0
C1478 C 0.69317 0.85805 0.87529 0.0
C1479 C 0.71096 0.83997 0.87288 0.0
C1480 C 0.70803 0.81637 0.87557 0.0
C1481 C 0.68742 0.81067 0.88086 0.0
C1482 C 0.66971 0.82857 0.88356 0.0
C1483 C 0.67256 0.8522 0.88087 0.0
H1484 H 0.68517 0.79239 0.88294 0.0
H1485 H 0.72807 0.01697 0.86473 0.0
H1486 H 0.96947 0.76107 0.05999 0.0
H1487 H 0.94544 0.7617 0.09394 0.0
H1488 H 0.95585 0.68544 0.09446 0.0
H1489 H 0.98018 0.68483 0.05998 0.0
H1490 H 0.91214 0.70425 0.09321 0.0
H1491 H 0.97531 0.71613 0.14129 0.0
H1492 H 1.00826 0.73401 0.15308 0.0
H1493 H 0.96931 0.80204 0.16042 0.0
H1494 H 0.93615 0.78464 0.14836 0.0
H1495 H 0.84437 0.71258 0.19706 0.0
H1496 H 0.87387 0.70262 0.16855 0.0
H1497 H 0.87586 0.77679 0.1579 0.0
H1498 H 0.84664 0.78691 0.18641 0.0
H1499 H 0.91597 0.75319 0.16765 0.0
H1500 H 0.8547 0.74412 0.11472 0.0
H1501 H 0.82079 0.72843 0.10213 0.0
H1502 H 0.85514 0.65773 0.10277 0.0
H1503 H 0.88922 0.67301 0.11566 0.0
C1504 C 0.96707 0.74445 0.06775 0.0
C1505 C 0.97668 0.7229 0.05764 0.0
C1506 C 0.9534 0.74482 0.08718 0.0
C1507 C 0.94903 0.72363 0.09686 0.0
C1508 C 0.95921 0.70198 0.08731 0.0
C1509 C 0.97318 0.70161 0.06785 0.0
C1510 C 0.93223 0.72455 0.11538 0.0
C1511 C 0.9132 0.7144 0.10982 0.0
C1512 C 0.93335 0.73849 0.13662 0.0
C1513 C 0.95327 0.74907 0.1438 0.0
C1514 C 0.97379 0.73493 0.14524 0.0
C1515 C 0.9925 0.74498 0.15201 0.0
C1516 C 0.99089 0.76915 0.15747 0.0
C1517 C 0.97054 0.78332 0.15619 0.0
C1518 C 0.95178 0.77336 0.14943 0.0
C1519 C 0.85092 0.72675 0.18842 0.0
C1520 C 0.84328 0.75051 0.19408 0.0
C1521 C 0.86774 0.72103 0.17214 0.0
C1522 C 0.87703 0.73899 0.16122 0.0
C1523 C 0.86897 0.76269 0.1663 0.0
C1524 C 0.85223 0.76842 0.18254 0.0
C1525 C 0.89581 0.73326 0.14525 0.0
C1526 C 0.91513 0.7426 0.15129 0.0
C1527 C 0.89483 0.71888 0.12434 0.0
C1528 C 0.87443 0.70967 0.11642 0.0
C1529 C 0.85498 0.72521 0.11236 0.0
C1530 C 0.83574 0.7164 0.10513 0.0
C1531 C 0.8358 0.69209 0.10173 0.0
C1532 C 0.85512 0.67655 0.10545 0.0
C1533 C 0.8744 0.68528 0.1127 0.0
H1534 H 0.82088 0.6853 0.09614 0.0
H1535 H 1.00539 0.77689 0.16271 0.0
H1536 H 0.31138 0.99042 0.09736 0.0
H1537 H 0.31357 0.95589 0.12287 0.0
H1538 H 0.32781 0.91006 0.06095 0.0
H1539 H 0.32608 0.94483 0.03541 0.0
H1540 H 0.29114 0.90129 0.0859 0.0
H1541 H 0.36554 0.9098 0.10386 0.0
H1542 H 0.39654 0.93074 0.11599 0.0
H1543 H 0.36833 0.94744 0.18497 0.0
H1544 H 0.33694 0.92692 0.17311 0.0
H1545 H 0.2959 0.7969 0.15211 0.0
H1546 H 0.30708 0.82751 0.12733 0.0
H1547 H 0.29603 0.87795 0.18608 0.0
H1548 H 0.28477 0.8473 0.21114 0.0
H1549 H 0.33378 0.88266 0.16159 0.0
H1550 H 0.2586 0.87723 0.14331 0.0
H1551 H 0.22669 0.8575 0.13174 0.0
H1552 H 0.25503 0.83705 0.06355 0.0
H1553 H 0.2874 0.85617 0.07496 0.0
C1554 C 0.31592 0.97298 0.08942 0.0
C1555 C 0.31898 0.97022 0.06457 0.0
C1556 C 0.31706 0.95326 0.10397 0.0
C1557 C 0.32086 0.93037 0.09385 0.0
C1558 C 0.32498 0.92757 0.06915 0.0
C1559 C 0.32426 0.94739 0.05463 0.0
C1560 C 0.31791 0.90975 0.10861 0.0
C1561 C 0.30081 0.89684 0.10215 0.0
C1562 C 0.32997 0.90456 0.13029 0.0
C1563 C 0.34878 0.91697 0.13751 0.0
C1564 C 0.36583 0.91812 0.12154 0.0
C1565 C 0.3835 0.92988 0.12838 0.0
C1566 C 0.38439 0.94045 0.15122 0.0
C1567 C 0.36761 0.93926 0.16727 0.0
C1568 C 0.34988 0.92754 0.16051 0.0
C1569 C 0.29604 0.81441 0.15993 0.0
C1570 C 0.28931 0.81963 0.18364 0.0
C1571 C 0.3024 0.83194 0.14566 0.0
C1572 C 0.30219 0.8551 0.15473 0.0
C1573 C 0.29632 0.8602 0.17869 0.0
C1574 C 0.28982 0.84267 0.19297 0.0
C1575 C 0.30707 0.87415 0.1388 0.0
C1576 C 0.32435 0.88688 0.14515 0.0
C1577 C 0.29504 0.87937 0.11707 0.0
C1578 C 0.27559 0.86783 0.11014 0.0
C1579 C 0.25817 0.86828 0.12596 0.0
C1580 C 0.23997 0.85724 0.11942 0.0
C1581 C 0.23887 0.84594 0.09696 0.0
C1582 C 0.25595 0.84572 0.08098 0.0
C1583 C 0.27424 0.85664 0.08749 0.0
H1584 H 0.22476 0.83743 0.09192 0.0
H1585 H 0.3981 0.94953 0.15649 0.0
H1586 H 0.71675 0.10574 0.016 0.0
H1587 H 0.71653 0.13876 0.04467 0.0
H1588 H 0.69127 0.09784 0.09867 0.0
H1589 H 0.69132 0.06454 0.06967 0.0
H1590 H 0.67773 0.15392 0.09851 0.0
H1591 H 0.73888 0.09063 0.10361 0.0
H1592 H 0.76647 0.06096 0.0848 0.0
H1593 H 0.79383 0.11605 0.05023 0.0
H1594 H 0.7661 0.14601 0.0685 0.0
H1595 H 0.72761 0.22161 0.19096 0.0
H1596 H 0.71325 0.18985 0.1678 0.0
H1597 H 0.75261 0.20259 0.10796 0.0
H1598 H 0.76733 0.2338 0.13107 0.0
H1599 H 0.75665 0.15726 0.11583 0.0
H1600 H 0.69597 0.22037 0.10922 0.0
H1601 H 0.6674 0.25077 0.12521 0.0
H1602 H 0.63878 0.19745 0.16122 0.0
H1603 H 0.66739 0.16676 0.14568 0.0
C1604 C 0.7101 0.10422 0.03361 0.0
C1605 C 0.70386 0.08279 0.04064 0.0
C1606 C 0.71004 0.12306 0.04999 0.0
C1607 C 0.70404 0.12065 0.07379 0.0
C1608 C 0.69576 0.10007 0.08029 0.0
C1609 C 0.69571 0.08113 0.06373 0.0
C1610 C 0.71067 0.13753 0.09229 0.0
C1611 C 0.69492 0.15445 0.10276 0.0
C1612 C 0.73312 0.13834 0.09749 0.0
C1613 C 0.75035 0.12051 0.08728 0.0
C1614 C 0.75072 0.09639 0.0919 0.0
C1615 C 0.76637 0.07953 0.08134 0.0
C1616 C 0.78187 0.08661 0.0663 0.0
C1617 C 0.78181 0.11059 0.06188 0.0
C1618 C 0.76614 0.12751 0.07235 0.0
C1619 C 0.73311 0.21769 0.17282 0.0
C1620 C 0.74868 0.2302 0.16289 0.0
C1621 C 0.72482 0.19959 0.15957 0.0
C1622 C 0.73175 0.19388 0.13606 0.0
C1623 C 0.74707 0.20658 0.12609 0.0
C1624 C 0.75545 0.22449 0.13933 0.0
C1625 C 0.72376 0.17424 0.12187 0.0
C1626 C 0.73937 0.15666 0.11209 0.0
C1627 C 0.7012 0.17295 0.11738 0.0
C1628 C 0.68393 0.19133 0.12652 0.0
C1629 C 0.68367 0.21516 0.12069 0.0
C1630 C 0.66746 0.23244 0.12964 0.0
C1631 C 0.65132 0.22606 0.14428 0.0
C1632 C 0.65132 0.20237 0.14992 0.0
C1633 C 0.66751 0.18503 0.14103 0.0
H1634 H 0.63879 0.23946 0.1512 0.0
H1635 H 0.79395 0.07353 0.05809 0.0
H1636 H 0.5467 0.6237 0.82936 0.0
H1637 H 0.5735 0.65035 0.82171 0.0
H1638 H 0.61551 0.59277 0.78843 0.0
H1639 H 0.58861 0.56607 0.79583 0.0
H1640 H 0.63709 0.62199 0.82294 0.0
H1641 H 0.5889 0.62893 0.75288 0.0
H1642 H 0.55298 0.63603 0.73178 0.0
H1643 H 0.54139 0.7058 0.76341 0.0
H1644 H 0.57712 0.69896 0.785 0.0
H1645 H 0.71037 0.68305 0.76106 0.0
H1646 H 0.68381 0.65771 0.77272 0.0
H1647 H 0.63963 0.71922 0.79468 0.0
H1648 H 0.66615 0.74473 0.78279 0.0
H1649 H 0.61844 0.68894 0.76757 0.0
H1650 H 0.66577 0.68389 0.83652 0.0
H1651 H 0.70059 0.67776 0.85982 0.0
H1652 H 0.7128 0.60609 0.83326 0.0
H1653 H 0.67817 0.6119 0.80948 0.0
C1654 C 0.56173 0.61668 0.82062 0.0
C1655 C 0.56558 0.59278 0.81324 0.0
C1656 C 0.57696 0.63194 0.81613 0.0
C1657 C 0.59646 0.62355 0.80445 0.0
C1658 C 0.60057 0.5996 0.79748 0.0
C1659 C 0.58517 0.58441 0.8016 0.0
C1660 C 0.61242 0.63986 0.79921 0.0
C1661 C 0.63315 0.63644 0.81059 0.0
C1662 C 0.60699 0.65919 0.78375 0.0
C1663 C 0.58556 0.66334 0.77075 0.0
C1664 C 0.57859 0.6457 0.75551 0.0
C1665 C 0.55829 0.64969 0.74343 0.0
C1666 C 0.54488 0.67132 0.74631 0.0
C1667 C 0.55177 0.68903 0.76123 0.0
C1668 C 0.57205 0.68511 0.77338 0.0
C1669 C 0.69503 0.6912 0.76842 0.0
C1670 C 0.69039 0.71592 0.77091 0.0
C1671 C 0.67989 0.67667 0.77524 0.0
C1672 C 0.65972 0.68651 0.78473 0.0
C1673 C 0.65507 0.7112 0.78742 0.0
C1674 C 0.67031 0.72576 0.78075 0.0
C1675 C 0.64332 0.67099 0.79113 0.0
C1676 C 0.62245 0.67454 0.77997 0.0
C1677 C 0.64854 0.65193 0.80702 0.0
C1678 C 0.66951 0.64842 0.821 0.0
C1679 C 0.67599 0.6669 0.83543 0.0
C1680 C 0.69567 0.66347 0.84877 0.0
C1681 C 0.70893 0.64157 0.84796 0.0
C1682 C 0.70253 0.62305 0.83383 0.0
C1683 C 0.68287 0.6264 0.82042 0.0
H1684 H 0.72415 0.63894 0.85833 0.0
H1685 H 0.52917 0.67439 0.73693 0.0
H1686 H 0.47159 0.59921 0.75781 0.0
H1687 H 0.44007 0.63018 0.75091 0.0
H1688 H 0.39913 0.58998 0.79003 0.0
H1689 H 0.43032 0.55944 0.79697 0.0
H1690 H 0.37741 0.60906 0.75094 0.0
H1691 H 0.42106 0.63588 0.81689 0.0
H1692 H 0.45444 0.64744 0.8365 0.0
H1693 H 0.45542 0.70166 0.78468 0.0
H1694 H 0.42218 0.69021 0.7646 0.0
H1695 H 0.28643 0.69485 0.77847 0.0
H1696 H 0.31836 0.66425 0.7799 0.0
H1697 H 0.35828 0.71338 0.75258 0.0
H1698 H 0.32672 0.74431 0.75258 0.0
H1699 H 0.38146 0.69 0.78323 0.0
H1700 H 0.33769 0.66449 0.71734 0.0
H1701 H 0.30453 0.65312 0.69702 0.0
H1702 H 0.30406 0.59695 0.74672 0.0
H1703 H 0.3371 0.60812 0.76745 0.0
C1704 C 0.45571 0.59676 0.76431 0.0
C1705 C 0.45337 0.57678 0.77772 0.0
C1706 C 0.43775 0.61459 0.76066 0.0
C1707 C 0.41716 0.61261 0.77018 0.0
C1708 C 0.41472 0.59205 0.78249 0.0
C1709 C 0.43259 0.57453 0.78639 0.0
C1710 C 0.39819 0.632 0.76825 0.0
C1711 C 0.37828 0.62675 0.75809 0.0
C1712 C 0.39926 0.65527 0.77714 0.0
C1713 C 0.41934 0.66197 0.78906 0.0
C1714 C 0.42853 0.6501 0.80954 0.0
C1715 C 0.44739 0.65668 0.82077 0.0
C1716 C 0.4571 0.67521 0.81178 0.0
C1717 C 0.44793 0.68726 0.79158 0.0
C1718 C 0.42908 0.68074 0.78028 0.0
C1719 C 0.30203 0.69911 0.7728 0.0
C1720 C 0.30394 0.72205 0.76536 0.0
C1721 C 0.32033 0.68149 0.77339 0.0
C1722 C 0.3409 0.68609 0.76578 0.0
C1723 C 0.34277 0.70912 0.75852 0.0
C1724 C 0.32462 0.72687 0.75847 0.0
C1725 C 0.36051 0.6672 0.76574 0.0
C1726 C 0.38055 0.67247 0.7757 0.0
C1727 C 0.35962 0.64398 0.75643 0.0
C1728 C 0.33974 0.63727 0.74404 0.0
C1729 C 0.33043 0.64981 0.72401 0.0
C1730 C 0.31167 0.64338 0.71241 0.0
C1731 C 0.30217 0.62436 0.72061 0.0
C1732 C 0.31142 0.61169 0.7404 0.0
C1733 C 0.33018 0.61803 0.75205 0.0
H1734 H 0.28765 0.61941 0.71161 0.0
H1735 H 0.47169 0.68029 0.82051 0.0
H1736 H 0.44009 0.48915 0.78397 0.0
H1737 H 0.41194 0.46328 0.77849 0.0
H1738 H 0.43907 0.42259 0.83918 0.0
H1739 H 0.46714 0.44858 0.84488 0.0
H1740 H 0.414 0.41925 0.7672 0.0
H1741 H 0.40001 0.3977 0.86649 0.0
H1742 H 0.40065 0.41698 0.9066 0.0
H1743 H 0.38732 0.48519 0.87452 0.0
H1744 H 0.38633 0.46633 0.83426 0.0
H1745 H 0.36083 0.31899 0.7666 0.0
H1746 H 0.38598 0.34732 0.7766 0.0
H1747 H 0.33303 0.39522 0.80688 0.0
H1748 H 0.30785 0.36633 0.79775 0.0
H1749 H 0.36838 0.39785 0.83296 0.0
H1750 H 0.35186 0.40173 0.7486 0.0
H1751 H 0.34809 0.38605 0.70724 0.0
H1752 H 0.41685 0.36023 0.70723 0.0
H1753 H 0.42098 0.3755 0.74871 0.0
C1754 C 0.44013 0.47468 0.79613 0.0
C1755 C 0.45595 0.47097 0.81487 0.0
C1756 C 0.42394 0.45991 0.79302 0.0
C1757 C 0.42316 0.44105 0.80854 0.0
C1758 C 0.43896 0.43729 0.82725 0.0
C1759 C 0.45507 0.45217 0.83048 0.0
C1760 C 0.40633 0.42486 0.80457 0.0
C1761 C 0.40403 0.41464 0.78162 0.0
C1762 C 0.39293 0.41908 0.82318 0.0
C1763 C 0.3933 0.43058 0.84735 0.0
C1764 C 0.39713 0.41681 0.86801 0.0
C1765 C 0.39757 0.42767 0.89077 0.0
C1766 C 0.39409 0.45229 0.8931 0.0
C1767 C 0.39009 0.46612 0.87269 0.0
C1768 C 0.38962 0.45535 0.84989 0.0
C1769 C 0.35454 0.33546 0.77558 0.0
C1770 C 0.3323 0.34047 0.78121 0.0
C1771 C 0.36894 0.35175 0.78118 0.0
C1772 C 0.36137 0.37374 0.79196 0.0
C1773 C 0.3393 0.37845 0.79845 0.0
C1774 C 0.32491 0.36193 0.7932 0.0
C1775 C 0.37637 0.39196 0.7957 0.0
C1776 C 0.37834 0.40253 0.81858 0.0
C1777 C 0.38907 0.3986 0.77684 0.0
C1778 C 0.38669 0.3896 0.75182 0.0
C1779 C 0.36615 0.3926 0.73981 0.0
C1780 C 0.36396 0.38379 0.71635 0.0
C1781 C 0.38221 0.37211 0.70463 0.0
C1782 C 0.40272 0.36927 0.71633 0.0
C1783 C 0.40501 0.37802 0.73981 0.0
H1784 H 0.38048 0.36529 0.68648 0.0
H1785 H 0.39444 0.46066 0.91074 0.0
H1786 H 0.54957 0.44666 0.78953 0.0
H1787 H 0.58195 0.41753 0.78344 0.0
H1788 H 0.61707 0.47248 0.75949 0.0
H1789 H 0.58399 0.50154 0.76445 0.0
H1790 H 0.63154 0.4342 0.73601 0.0
H1791 H 0.62155 0.45049 0.81958 0.0
H1792 H 0.60229 0.455 0.85796 0.0
H1793 H 0.59349 0.38177 0.85428 0.0
H1794 H 0.61247 0.3769 0.81571 0.0
H1795 H 0.73647 0.36486 0.76716 0.0
H1796 H 0.70461 0.396 0.76799 0.0
H1797 H 0.66151 0.34291 0.76939 0.0
H1798 H 0.69303 0.31184 0.76793 0.0
H1799 H 0.65311 0.38186 0.80493 0.0
H1800 H 0.66363 0.36724 0.71985 0.0
H1801 H 0.68546 0.36389 0.68323 0.0
H1802 H 0.69614 0.43627 0.69236 0.0
H1803 H 0.67465 0.43992 0.7293 0.0
C1804 C 0.56399 0.45238 0.7822 0.0
C1805 C 0.56411 0.4763 0.77708 0.0
C1806 C 0.5827 0.43576 0.77912 0.0
C1807 C 0.60242 0.44273 0.77173 0.0
C1808 C 0.60223 0.4665 0.76536 0.0
C1809 C 0.58325 0.48312 0.768 0.0
C1810 C 0.62319 0.4254 0.77169 0.0
C1811 C 0.63632 0.42306 0.75128 0.0
C1812 C 0.62974 0.41054 0.79148 0.0
C1813 C 0.61825 0.4134 0.81464 0.0
C1814 C 0.61537 0.4354 0.82687 0.0
C1815 C 0.60452 0.43801 0.84867 0.0
C1816 C 0.59662 0.4187 0.85852 0.0
C1817 C 0.5996 0.39672 0.84661 0.0
C1818 C 0.61041 0.39402 0.82479 0.0
C1819 C 0.72021 0.35982 0.76768 0.0
C1820 C 0.71739 0.33578 0.76747 0.0
C1821 C 0.702 0.37765 0.76807 0.0
C1822 C 0.6806 0.37183 0.7687 0.0
C1823 C 0.6778 0.34788 0.76891 0.0
C1824 C 0.6959 0.33011 0.76801 0.0
C1825 C 0.66106 0.39056 0.76924 0.0
C1826 C 0.64825 0.39314 0.78978 0.0
C1827 C 0.65508 0.40586 0.74981 0.0
C1828 C 0.66776 0.40377 0.72748 0.0
C1829 C 0.6708 0.38237 0.71417 0.0
C1830 C 0.68308 0.38043 0.69334 0.0
C1831 C 0.69224 0.39983 0.68551 0.0
C1832 C 0.68907 0.42124 0.69847 0.0
C1833 C 0.67683 0.42326 0.71935 0.0
H1834 H 0.70176 0.39829 0.66939 0.0
H1835 H 0.58824 0.42075 0.8754 0.0
H1836 H 0.58244 0.48806 0.19669 0.0
H1837 H 0.61277 0.45681 0.20325 0.0
H1838 H 0.58414 0.43874 0.26882 0.0
H1839 H 0.55356 0.47099 0.26257 0.0
H1840 H 0.62786 0.43456 0.27431 0.0
H1841 H 0.57994 0.40577 0.21439 0.0
H1842 H 0.55778 0.40673 0.17674 0.0
H1843 H 0.61507 0.41097 0.136 0.0
H1844 H 0.63752 0.41031 0.17342 0.0
H1845 H 0.698 0.32427 0.27972 0.0
H1846 H 0.6668 0.35556 0.27804 0.0
H1847 H 0.68695 0.37576 0.20889 0.0
H1848 H 0.71776 0.34386 0.21018 0.0
H1849 H 0.64578 0.37756 0.20677 0.0
H1850 H 0.6936 0.40831 0.26557 0.0
H1851 H 0.71653 0.40764 0.30266 0.0
H1852 H 0.66072 0.40041 0.34474 0.0
H1853 H 0.63752 0.40077 0.30787 0.0
C1854 C 0.58252 0.4776 0.21265 0.0
C1855 C 0.56532 0.48195 0.22896 0.0
C1856 C 0.59993 0.45951 0.21629 0.0
C1857 C 0.60058 0.44473 0.23612 0.0
C1858 C 0.58397 0.44966 0.25317 0.0
C1859 C 0.5665 0.46814 0.24966 0.0
C1860 C 0.6185 0.42416 0.23852 0.0
C1861 C 0.63153 0.42187 0.25968 0.0
C1862 C 0.62384 0.40777 0.21927 0.0
C1863 C 0.61037 0.40818 0.19673 0.0
C1864 C 0.58778 0.40707 0.19741 0.0
C1865 C 0.57517 0.40753 0.17611 0.0
C1866 C 0.585 0.40896 0.154 0.0
C1867 C 0.60747 0.40988 0.15314 0.0
C1868 C 0.62015 0.40943 0.17439 0.0
C1869 C 0.69594 0.33546 0.26424 0.0
C1870 C 0.71066 0.33155 0.24523 0.0
C1871 C 0.67804 0.35354 0.26333 0.0
C1872 C 0.67454 0.36862 0.24357 0.0
C1873 C 0.68915 0.36459 0.22445 0.0
C1874 C 0.70688 0.34629 0.22522 0.0
C1875 C 0.65545 0.38811 0.24243 0.0
C1876 C 0.64214 0.39017 0.22148 0.0
C1877 C 0.65001 0.40436 0.26178 0.0
C1878 C 0.66388 0.40434 0.28396 0.0
C1879 C 0.68626 0.40644 0.28273 0.0
C1880 C 0.6993 0.40613 0.30371 0.0
C1881 C 0.6901 0.40391 0.32604 0.0
C1882 C 0.66783 0.40209 0.32744 0.0
C1883 C 0.65472 0.40237 0.30651 0.0
H1884 H 0.70023 0.40365 0.34225 0.0
H1885 H 0.57521 0.40931 0.13753 0.0
H1886 H 0.5566 0.61804 0.17669 0.0
H1887 H 0.58611 0.64189 0.18407 0.0
H1888 H 0.61665 0.59096 0.23491 0.0
H1889 H 0.58693 0.56725 0.22785 0.0
H1890 H 0.61764 0.63359 0.25254 0.0
H1891 H 0.6355 0.59608 0.17547 0.0
H1892 H 0.6282 0.5856 0.13305 0.0
H1893 H 0.61704 0.65912 0.1156 0.0
H1894 H 0.62398 0.67005 0.15799 0.0
H1895 H 0.71876 0.67634 0.2671 0.0
H1896 H 0.69063 0.65144 0.25654 0.0
H1897 H 0.66312 0.70172 0.20354 0.0
H1898 H 0.69199 0.72605 0.21334 0.0
H1899 H 0.66005 0.66009 0.18652 0.0
H1900 H 0.6411 0.69837 0.26204 0.0
H1901 H 0.64706 0.71046 0.30429 0.0
H1902 H 0.6584 0.63768 0.32451 0.0
H1903 H 0.65275 0.62516 0.28233 0.0
C1904 C 0.5697 0.61177 0.18925 0.0
C1905 C 0.5694 0.59062 0.20157 0.0
C1906 C 0.58663 0.62545 0.19346 0.0
C1907 C 0.60392 0.61811 0.20977 0.0
C1908 C 0.60358 0.59706 0.22221 0.0
C1909 C 0.58653 0.5835 0.21818 0.0
C1910 C 0.62211 0.63255 0.21431 0.0
C1911 C 0.62712 0.63906 0.2381 0.0
C1912 C 0.63407 0.64048 0.19547 0.0
C1913 C 0.6301 0.63388 0.16994 0.0
C1914 C 0.63136 0.61001 0.16262 0.0
C1915 C 0.6273 0.604 0.13857 0.0
C1916 C 0.62211 0.62169 0.12165 0.0
C1917 C 0.62104 0.64544 0.12873 0.0
C1918 C 0.62505 0.65155 0.15275 0.0
C1919 C 0.70688 0.68191 0.25301 0.0
C1920 C 0.70762 0.70317 0.24115 0.0
C1921 C 0.69062 0.66778 0.2471 0.0
C1922 C 0.67425 0.67492 0.22965 0.0
C1923 C 0.67542 0.69579 0.21715 0.0
C1924 C 0.69197 0.70971 0.22276 0.0
C1925 C 0.65576 0.6609 0.22481 0.0
C1926 C 0.65062 0.65456 0.20097 0.0
C1927 C 0.64348 0.65334 0.24358 0.0
C1928 C 0.64669 0.66083 0.26899 0.0
C1929 C 0.64499 0.68495 0.27548 0.0
C1930 C 0.64829 0.69188 0.29941 0.0
C1931 C 0.65315 0.67485 0.31706 0.0
C1932 C 0.65466 0.65085 0.31082 0.0
C1933 C 0.65138 0.64383 0.28691 0.0
H1934 H 0.65571 0.68025 0.33558 0.0
H1935 H 0.61897 0.61699 0.10305 0.0
H1936 H 0.44371 0.56949 0.25814 0.0
H1937 H 0.41265 0.60086 0.26509 0.0
H1938 H 0.44322 0.64822 0.22223 0.0
H1939 H 0.47386 0.61708 0.21518 0.0
H1940 H 0.42458 0.67138 0.26117 0.0
H1941 H 0.40364 0.61873 0.19826 0.0
H1942 H 0.39686 0.58029 0.18072 0.0
H1943 H 0.34928 0.57469 0.2343 0.0
H1944 H 0.35608 0.61287 0.25238 0.0
H1945 H 0.33657 0.76059 0.23482 0.0
H1946 H 0.36732 0.72878 0.23243 0.0
H1947 H 0.32725 0.68032 0.26087 0.0
H1948 H 0.29592 0.71178 0.26105 0.0
H1949 H 0.3509 0.65671 0.23197 0.0
H1950 H 0.37104 0.70999 0.29485 0.0
H1951 H 0.37761 0.74869 0.31202 0.0
H1952 H 0.42656 0.75315 0.25971 0.0
H1953 H 0.42011 0.71461 0.24207 0.0
C1954 C 0.44406 0.58683 0.25089 0.0
C1955 C 0.46139 0.59095 0.23645 0.0
C1956 C 0.42617 0.60468 0.25457 0.0
C1957 C 0.4254 0.62698 0.244 0.0
C1958 C 0.44331 0.63132 0.23063 0.0
C1959 C 0.4609 0.61349 0.22669 0.0
C1960 C 0.40574 0.64557 0.24572 0.0
C1961 C 0.40847 0.66818 0.25474 0.0
C1962 C 0.38457 0.6415 0.23766 0.0
C1963 C 0.38056 0.6185 0.22685 0.0
C1964 C 0.3919 0.60917 0.20644 0.0
C1965 C 0.38804 0.58743 0.19638 0.0
C1966 C 0.37272 0.57498 0.20643 0.0
C1967 C 0.36121 0.58426 0.22656 0.0
C1968 C 0.36506 0.60595 0.23672 0.0
C1969 C 0.33433 0.74309 0.24043 0.0
C1970 C 0.31384 0.73873 0.24821 0.0
C1971 C 0.35206 0.72487 0.23939 0.0
C1972 C 0.35017 0.70201 0.24732 0.0
C1973 C 0.32948 0.69764 0.25476 0.0
C1974 C 0.3115 0.71569 0.25492 0.0
C1975 C 0.36955 0.68271 0.2477 0.0
C1976 C 0.36685 0.65996 0.23887 0.0
C1977 C 0.39076 0.6866 0.25614 0.0
C1978 C 0.395 0.7095 0.26708 0.0
C1979 C 0.38318 0.71926 0.287 0.0
C1980 C 0.38687 0.74117 0.2968 0.0
C1981 C 0.40247 0.75338 0.28694 0.0
C1982 C 0.41448 0.74367 0.26733 0.0
C1983 C 0.41084 0.72179 0.25745 0.0
H1984 H 0.40527 0.77036 0.29452 0.0
H1985 H 0.36973 0.5582 0.19854 0.0
H1986 H 0.43006 0.48825 0.17034 0.0
H1987 H 0.40256 0.4622 0.17718 0.0
H1988 H 0.43932 0.43475 0.23981 0.0
H1989 H 0.46683 0.46085 0.23306 0.0
H1990 H 0.42549 0.39925 0.20975 0.0
H1991 H 0.39499 0.47206 0.24773 0.0
H1992 H 0.38161 0.5147 0.25098 0.0
H1993 H 0.33376 0.50754 0.19472 0.0
H1994 H 0.3471 0.4649 0.19085 0.0
H1995 H 0.34756 0.34504 0.27091 0.0
H1996 H 0.37386 0.37027 0.25867 0.0
H1997 H 0.33207 0.39313 0.19789 0.0
H1998 H 0.3055 0.36754 0.21005 0.0
H1999 H 0.34774 0.43074 0.22391 0.0
H2000 H 0.37723 0.35733 0.18736 0.0
H2001 H 0.38979 0.31446 0.18556 0.0
H2002 H 0.43936 0.32266 0.23966 0.0
H2003 H 0.42688 0.36557 0.24203 0.0
C2004 C 0.43233 0.47659 0.1855 0.0
C2005 C 0.45065 0.47661 0.20114 0.0
C2006 C 0.41653 0.46181 0.18948 0.0
C2007 C 0.41882 0.44654 0.20905 0.0
C2008 C 0.4372 0.44636 0.22458 0.0
C2009 C 0.45283 0.46139 0.22081 0.0
C2010 C 0.40209 0.43071 0.21329 0.0
C2011 C 0.40854 0.40616 0.21307 0.0
C2012 C 0.37983 0.43962 0.217 0.0
C2013 C 0.37218 0.46534 0.21884 0.0
C2014 C 0.3818 0.47963 0.23584 0.0
C2015 C 0.37418 0.50378 0.23785 0.0
C2016 C 0.35684 0.51379 0.22308 0.0
C2017 C 0.34718 0.49973 0.20615 0.0
C2018 C 0.35476 0.47558 0.20404 0.0
C2019 C 0.34395 0.35528 0.25482 0.0
C2020 C 0.32441 0.35419 0.24142 0.0
C2021 C 0.35908 0.36969 0.24781 0.0
C2022 C 0.35506 0.38354 0.22728 0.0
C2023 C 0.33556 0.38256 0.21378 0.0
C2024 C 0.32046 0.36783 0.22064 0.0
C2025 C 0.37115 0.3993 0.22049 0.0
C2026 C 0.36463 0.42382 0.22031 0.0
C2027 C 0.39336 0.39038 0.21642 0.0
C2028 C 0.401 0.36462 0.21501 0.0
C2029 C 0.3907 0.34996 0.19901 0.0
C2030 C 0.39782 0.32567 0.19786 0.0
C2031 C 0.41533 0.31584 0.21252 0.0
C2032 C 0.42578 0.3303 0.22832 0.0
C2033 C 0.41871 0.35462 0.22956 0.0
H2034 H 0.42082 0.29702 0.21161 0.0
H2035 H 0.35076 0.53239 0.22484 0.0
H2036 H 0.77512 0.6109 0.54282 0.0
H2037 H 0.76344 0.64431 0.57045 0.0
H2038 H 0.80003 0.60725 0.62843 0.0
H2039 H 0.81209 0.57429 0.60096 0.0
H2040 H 0.75696 0.63028 0.64066 0.0
H2041 H 0.82327 0.64538 0.60234 0.0
H2042 H 0.84533 0.6508 0.56721 0.0
H2043 H 0.79788 0.70885 0.5447 0.0
H2044 H 0.77536 0.70352 0.57955 0.0
H2045 H 0.77026 0.71548 0.73089 0.0
H2046 H 0.77504 0.6837 0.70065 0.0
H2047 H 0.75663 0.73431 0.6448 0.0
H2048 H 0.75349 0.76637 0.67508 0.0
H2049 H 0.78667 0.70531 0.62865 0.0
H2050 H 0.72155 0.69356 0.66842 0.0
H2051 H 0.69811 0.68782 0.70232 0.0
H2052 H 0.74011 0.62405 0.72054 0.0
H2053 H 0.76404 0.62963 0.68707 0.0
C2054 C 0.78028 0.60977 0.56157 0.0
C2055 C 0.79448 0.59005 0.5698 0.0
C2056 C 0.77373 0.62887 0.57727 0.0
C2057 C 0.78098 0.62826 0.60145 0.0
C2058 C 0.79425 0.60806 0.60987 0.0
C2059 C 0.80114 0.58928 0.59415 0.0
C2060 C 0.77586 0.649 0.61789 0.0
C2061 C 0.76345 0.64672 0.63816 0.0
C2062 C 0.78391 0.67057 0.61421 0.0
C2063 C 0.79751 0.67386 0.59336 0.0
C2064 C 0.81744 0.65915 0.58977 0.0
C2065 C 0.83004 0.66224 0.56994 0.0
C2066 C 0.82297 0.68011 0.55368 0.0
C2067 C 0.80331 0.69498 0.55727 0.0
C2068 C 0.79063 0.69194 0.57707 0.0
C2069 C 0.76722 0.71978 0.71215 0.0
C2070 C 0.76141 0.74335 0.70531 0.0
C2071 C 0.76975 0.70156 0.69482 0.0
C2072 C 0.76558 0.70634 0.67032 0.0
C2073 C 0.75986 0.73 0.66351 0.0
C2074 C 0.75802 0.74834 0.68082 0.0
C2075 C 0.76772 0.68677 0.65185 0.0
C2076 C 0.77971 0.68916 0.63116 0.0
C2077 C 0.75897 0.66538 0.655 0.0
C2078 C 0.74465 0.66208 0.67527 0.0
C2079 C 0.72587 0.6784 0.67975 0.0
C2080 C 0.71249 0.67517 0.69889 0.0
C2081 C 0.71759 0.65555 0.71352 0.0
C2082 C 0.73616 0.63921 0.70916 0.0
C2083 C 0.74963 0.64239 0.69011 0.0
H2084 H 0.70711 0.65294 0.72818 0.0
H2085 H 0.83276 0.68247 0.53834 0.0
H2086 H 0.46621 0.81309 0.58366 0.0
H2087 H 0.43909 0.81585 0.61527 0.0
H2088 H 0.39335 0.78857 0.56553 0.0
H2089 H 0.42013 0.78625 0.53391 0.0
H2090 H 0.37425 0.82672 0.59073 0.0
H2091 H 0.42034 0.75349 0.60643 0.0
H2092 H 0.45502 0.72768 0.61495 0.0
H2093 H 0.4645 0.76735 0.68001 0.0
H2094 H 0.43002 0.79366 0.67165 0.0
H2095 H 0.30986 0.76286 0.66548 0.0
H2096 H 0.33773 0.77257 0.63849 0.0
H2097 H 0.35185 0.82872 0.68709 0.0
H2098 H 0.32324 0.81962 0.71393 0.0
H2099 H 0.38812 0.7823 0.66634 0.0
H2100 H 0.33885 0.85438 0.64999 0.0
H2101 H 0.3029 0.87719 0.64021 0.0
H2102 H 0.29845 0.83616 0.57502 0.0
H2103 H 0.33423 0.81281 0.58468 0.0
C2104 C 0.45036 0.80771 0.57953 0.0
C2105 C 0.44533 0.79926 0.55639 0.0
C2106 C 0.43495 0.80921 0.59758 0.0
C2107 C 0.41429 0.80232 0.59271 0.0
C2108 C 0.40923 0.79397 0.56962 0.0
C2109 C 0.42463 0.79237 0.55165 0.0
C2110 C 0.39783 0.80368 0.61159 0.0
C2111 C 0.37732 0.81706 0.6073 0.0
C2112 C 0.40197 0.79137 0.63333 0.0
C2113 C 0.4228 0.77575 0.63823 0.0
C2114 C 0.42996 0.75688 0.6224 0.0
C2115 C 0.44954 0.74213 0.62723 0.0
C2116 C 0.462 0.74593 0.64796 0.0
C2117 C 0.45487 0.76448 0.66392 0.0
C2118 C 0.43531 0.77932 0.65915 0.0
C2119 C 0.31871 0.77747 0.67025 0.0
C2120 C 0.31453 0.7905 0.69172 0.0
C2121 C 0.33453 0.78301 0.65484 0.0
C2122 C 0.34665 0.80137 0.66087 0.0
C2123 C 0.34241 0.81464 0.68216 0.0
C2124 C 0.32614 0.80947 0.69736 0.0
C2125 C 0.36465 0.80526 0.64538 0.0
C2126 C 0.38536 0.79256 0.65012 0.0
C2127 C 0.36064 0.81794 0.62394 0.0
C2128 C 0.33903 0.83166 0.61824 0.0
C2129 C 0.33005 0.85 0.63376 0.0
C2130 C 0.30975 0.86308 0.62819 0.0
C2131 C 0.29835 0.85807 0.60705 0.0
C2132 C 0.30726 0.83998 0.59142 0.0
C2133 C 0.32755 0.82682 0.59694 0.0
H2134 H 0.28265 0.86825 0.60274 0.0
H2135 H 0.47715 0.73446 0.65169 0.0
H2136 H 0.17815 0.50846 0.60275 0.0
H2137 H 0.19122 0.47779 0.63183 0.0
H2138 H 0.20374 0.42668 0.57391 0.0
H2139 H 0.19126 0.45759 0.54465 0.0
H2140 H 0.179 0.41628 0.62448 0.0
H2141 H 0.24448 0.4353 0.58625 0.0
H2142 H 0.26733 0.46359 0.57117 0.0
H2143 H 0.27052 0.49541 0.64164 0.0
H2144 H 0.24727 0.46758 0.657 0.0
H2145 H 0.2453 0.32857 0.69486 0.0
H2146 H 0.23077 0.35336 0.66111 0.0
H2147 H 0.24051 0.41583 0.70281 0.0
H2148 H 0.25499 0.39135 0.73641 0.0
H2149 H 0.25439 0.4182 0.6574 0.0
H2150 H 0.19068 0.4002 0.69648 0.0
H2151 H 0.16646 0.37419 0.71316 0.0
H2152 H 0.15848 0.34236 0.64337 0.0
H2153 H 0.18297 0.36795 0.62634 0.0
C2154 C 0.18324 0.49058 0.59628 0.0
C2155 C 0.18357 0.48527 0.57151 0.0
C2156 C 0.19077 0.47314 0.61285 0.0
C2157 C 0.19837 0.45006 0.60493 0.0
C2158 C 0.19783 0.44441 0.58029 0.0
C2159 C 0.19077 0.462 0.56367 0.0
C2160 C 0.20834 0.43243 0.62242 0.0
C2161 C 0.19562 0.41629 0.63138 0.0
C2162 C 0.22979 0.433 0.63177 0.0
C2163 C 0.2439 0.44959 0.62267 0.0
C2164 C 0.24983 0.44852 0.59845 0.0
C2165 C 0.26289 0.46443 0.58986 0.0
C2166 C 0.2703 0.48135 0.60541 0.0
C2167 C 0.26472 0.48234 0.6296 0.0
C2168 C 0.2516 0.4665 0.63825 0.0
C2169 C 0.24439 0.34758 0.69679 0.0
C2170 C 0.25121 0.35798 0.71836 0.0
C2171 C 0.23603 0.36172 0.67753 0.0
C2172 C 0.23445 0.38645 0.67951 0.0
C2173 C 0.2416 0.39679 0.70087 0.0
C2174 C 0.24979 0.38274 0.72012 0.0
C2175 C 0.22512 0.40177 0.65955 0.0
C2176 C 0.2379 0.41773 0.65026 0.0
C2177 C 0.20366 0.4011 0.65005 0.0
C2178 C 0.18887 0.38577 0.6602 0.0
C2179 C 0.18393 0.3875 0.68473 0.0
C2180 C 0.17012 0.37286 0.69425 0.0
C2181 C 0.161 0.35657 0.67935 0.0
C2182 C 0.16561 0.35495 0.65489 0.0
C2183 C 0.17944 0.36952 0.6453 0.0
H2184 H 0.15031 0.34526 0.68675 0.0
H2185 H 0.28043 0.49364 0.59874 0.0
H2186 H 0.55251 0.28425 0.53556 0.0
H2187 H 0.58472 0.29103 0.56068 0.0
H2188 H 0.56662 0.24396 0.61362 0.0
H2189 H 0.53476 0.23726 0.58875 0.0
H2190 H 0.5822 0.28047 0.63562 0.0
H2191 H 0.60454 0.2247 0.57239 0.0
H2192 H 0.60792 0.2106 0.53027 0.0
H2193 H 0.6448 0.26663 0.51505 0.0
H2194 H 0.64133 0.2813 0.55703 0.0
H2195 H 0.68541 0.25354 0.69814 0.0
H2196 H 0.65249 0.24862 0.67354 0.0
H2197 H 0.67059 0.29698 0.62196 0.0
H2198 H 0.70322 0.30193 0.64623 0.0
H2199 H 0.65501 0.26004 0.59923 0.0
H2200 H 0.63255 0.31534 0.66343 0.0
H2201 H 0.62904 0.32851 0.70583 0.0
H2202 H 0.59238 0.27187 0.7195 0.0
H2203 H 0.59599 0.25814 0.67723 0.0
C2204 C 0.55509 0.27599 0.5529 0.0
C2205 C 0.541 0.26041 0.5603 0.0
C2206 C 0.57365 0.2796 0.56713 0.0
C2207 C 0.57834 0.26777 0.58902 0.0
C2208 C 0.5635 0.25331 0.59692 0.0
C2209 C 0.54522 0.24952 0.58266 0.0
C2210 C 0.59917 0.26917 0.60319 0.0
C2211 C 0.5981 0.27582 0.62766 0.0
C2212 C 0.62004 0.26323 0.59294 0.0
C2213 C 0.62245 0.25427 0.56778 0.0
C2214 C 0.61324 0.23412 0.56002 0.0
C2215 C 0.61518 0.22601 0.53618 0.0
C2216 C 0.6265 0.23777 0.51997 0.0
C2217 C 0.63599 0.25759 0.52761 0.0
C2218 C 0.63404 0.2658 0.55143 0.0
C2219 C 0.6825 0.26287 0.68141 0.0
C2220 C 0.69697 0.27822 0.67429 0.0
C2221 C 0.6636 0.26017 0.6674 0.0
C2222 C 0.65884 0.27264 0.64591 0.0
C2223 C 0.67376 0.28718 0.63839 0.0
C2224 C 0.69245 0.29005 0.65242 0.0
C2225 C 0.63803 0.27143 0.63164 0.0
C2226 C 0.63911 0.26476 0.60716 0.0
C2227 C 0.61716 0.2772 0.64191 0.0
C2228 C 0.61473 0.28558 0.66724 0.0
C2229 C 0.62387 0.3056 0.67552 0.0
C2230 C 0.62185 0.31317 0.69952 0.0
C2231 C 0.61053 0.30099 0.71536 0.0
C2232 C 0.60117 0.28126 0.70721 0.0
C2233 C 0.60319 0.27358 0.68324 0.0
H2234 H 0.60899 0.30688 0.73393 0.0
H2235 H 0.62796 0.23148 0.50151 0.0
H2236 H 0.82759 0.48951 0.43695 0.0
H2237 H 0.81687 0.45643 0.41338 0.0
H2238 H 0.75754 0.46042 0.45324 0.0
H2239 H 0.76843 0.49367 0.47742 0.0
H2240 H 0.77962 0.41522 0.44991 0.0
H2241 H 0.75638 0.47821 0.39472 0.0
H2242 H 0.7615 0.51276 0.37092 0.0
H2243 H 0.81352 0.47112 0.33302 0.0
H2244 H 0.80893 0.43641 0.35682 0.0
H2245 H 0.73869 0.32657 0.37813 0.0
H2246 H 0.74384 0.36288 0.40022 0.0
H2247 H 0.79662 0.37258 0.35382 0.0
H2248 H 0.79031 0.3371 0.33059 0.0
H2249 H 0.77548 0.41227 0.36082 0.0
H2250 H 0.80319 0.35143 0.41557 0.0
H2251 H 0.80257 0.31605 0.43986 0.0
H2252 H 0.74838 0.35183 0.47911 0.0
H2253 H 0.74848 0.38733 0.45482 0.0
C2254 C 0.8121 0.48361 0.44059 0.0
C2255 C 0.79883 0.49428 0.45907 0.0
C2256 C 0.80595 0.4647 0.42697 0.0
C2257 C 0.78629 0.45607 0.43133 0.0
C2258 C 0.77274 0.4669 0.4495 0.0
C2259 C 0.77889 0.48597 0.46318 0.0
C2260 C 0.78066 0.43496 0.41768 0.0
C2261 C 0.77827 0.41467 0.43044 0.0
C2262 C 0.77985 0.43396 0.39224 0.0
C2263 C 0.78238 0.45475 0.37766 0.0
C2264 C 0.76899 0.47646 0.3814 0.0
C2265 C 0.77179 0.49606 0.3679 0.0
C2266 C 0.78784 0.49414 0.3505 0.0
C2267 C 0.80109 0.47258 0.34651 0.0
C2268 C 0.79837 0.45293 0.35997 0.0
C2269 C 0.7515 0.33638 0.37278 0.0
C2270 C 0.7643 0.3289 0.35285 0.0
C2271 C 0.75452 0.35712 0.38551 0.0
C2272 C 0.771 0.37034 0.37917 0.0
C2273 C 0.78382 0.36278 0.35919 0.0
C2274 C 0.78032 0.34242 0.34599 0.0
C2275 C 0.77461 0.39225 0.39301 0.0
C2276 C 0.77665 0.41273 0.3803 0.0
C2277 C 0.77574 0.39323 0.4185 0.0
C2278 C 0.7757 0.37194 0.4332 0.0
C2279 C 0.79104 0.3517 0.42927 0.0
C2280 C 0.79079 0.33163 0.44305 0.0
C2281 C 0.7754 0.33167 0.46097 0.0
C2282 C 0.76026 0.35181 0.46519 0.0
C2283 C 0.76042 0.37191 0.45144 0.0
H2284 H 0.77523 0.31612 0.47161 0.0
H2285 H 0.79 0.50935 0.34009 0.0
H2286 H 0.55086 0.77757 0.40697 0.0
H2287 H 0.58274 0.77651 0.38238 0.0
H2288 H 0.60769 0.8281 0.42964 0.0
H2289 H 0.57487 0.83042 0.45367 0.0
H2290 H 0.61257 0.83882 0.38469 0.0
H2291 H 0.63103 0.77004 0.42969 0.0
H2292 H 0.62616 0.73288 0.44903 0.0
H2293 H 0.6166 0.70037 0.37989 0.0
H2294 H 0.62097 0.73746 0.36012 0.0
H2295 H 0.71188 0.80332 0.31405 0.0
H2296 H 0.68764 0.81117 0.34837 0.0
H2297 H 0.63657 0.78221 0.30793 0.0
H2298 H 0.66038 0.77474 0.2735 0.0
H2299 H 0.65196 0.76183 0.35653 0.0
H2300 H 0.6285 0.83554 0.31381 0.0
H2301 H 0.636 0.87275 0.29641 0.0
H2302 H 0.65947 0.89551 0.36526 0.0
H2303 H 0.65244 0.85822 0.38298 0.0
C2304 C 0.563 0.78881 0.41215 0.0
C2305 C 0.56019 0.80414 0.43225 0.0
C2306 C 0.58141 0.78796 0.39823 0.0
C2307 C 0.59778 0.80191 0.40444 0.0
C2308 C 0.59529 0.81707 0.42466 0.0
C2309 C 0.57662 0.81817 0.43851 0.0
C2310 C 0.61695 0.801 0.389 0.0
C2311 C 0.62154 0.82202 0.37897 0.0
C2312 C 0.62879 0.77911 0.38166 0.0
C2313 C 0.62626 0.75662 0.39342 0.0
C2314 C 0.62775 0.75502 0.4186 0.0
C2315 C 0.62507 0.73396 0.42965 0.0
C2316 C 0.62105 0.71429 0.4157 0.0
C2317 C 0.61971 0.71563 0.39067 0.0
C2318 C 0.62232 0.73667 0.37953 0.0
C2319 C 0.69536 0.79897 0.31241 0.0
C2320 C 0.68795 0.78839 0.29119 0.0
C2321 C 0.68161 0.80349 0.33193 0.0
C2322 C 0.66049 0.79719 0.33049 0.0
C2323 C 0.65289 0.78718 0.30919 0.0
C2324 C 0.66645 0.78302 0.28957 0.0
C2325 C 0.64662 0.7994 0.35161 0.0
C2326 C 0.64325 0.77859 0.36275 0.0
C2327 C 0.63635 0.82146 0.36027 0.0
C2328 C 0.64022 0.84397 0.34964 0.0
C2329 C 0.63547 0.84837 0.32518 0.0
C2330 C 0.63959 0.8695 0.31528 0.0
C2331 C 0.64828 0.88645 0.3297 0.0
C2332 C 0.65278 0.88235 0.3541 0.0
C2333 C 0.64873 0.86123 0.36408 0.0
H2334 H 0.65147 0.90279 0.322 0.0
H2335 H 0.619 0.69799 0.42429 0.0
H2336 H 0.16454 0.61689 0.42325 0.0
H2337 H 0.17596 0.64662 0.39743 0.0
H2338 H 0.23654 0.64441 0.43836 0.0
H2339 H 0.22563 0.61453 0.46388 0.0
H2340 H 0.21904 0.68937 0.42902 0.0
H2341 H 0.23496 0.61612 0.38465 0.0
H2342 H 0.2266 0.57908 0.36519 0.0
H2343 H 0.17934 0.61852 0.31825 0.0
H2344 H 0.18719 0.65581 0.3377 0.0
H2345 H 0.28868 0.73697 0.35109 0.0
H2346 H 0.27121 0.71056 0.37559 0.0
H2347 H 0.21277 0.72263 0.33074 0.0
H2348 H 0.2302 0.74935 0.30599 0.0
H2349 H 0.22547 0.67479 0.34112 0.0
H2350 H 0.21233 0.74856 0.38403 0.0
H2351 H 0.22174 0.7851 0.40361 0.0
H2352 H 0.26484 0.74415 0.45352 0.0
H2353 H 0.25597 0.70733 0.43399 0.0
C2354 C 0.18034 0.62258 0.42677 0.0
C2355 C 0.19409 0.61301 0.44578 0.0
C2356 C 0.18683 0.63966 0.41196 0.0
C2357 C 0.2072 0.64761 0.4158 0.0
C2358 C 0.22072 0.6386 0.43506 0.0
C2359 C 0.21433 0.62147 0.44978 0.0
C2360 C 0.21469 0.66509 0.39967 0.0
C2361 C 0.22061 0.68608 0.40983 0.0
C2362 C 0.21623 0.66111 0.37452 0.0
C2363 C 0.21146 0.63873 0.36283 0.0
C2364 C 0.22263 0.61688 0.37033 0.0
C2365 C 0.21802 0.59584 0.35928 0.0
C2366 C 0.20239 0.59644 0.34055 0.0
C2367 C 0.1914 0.61808 0.3328 0.0
C2368 C 0.19592 0.63917 0.34383 0.0
C2369 C 0.27211 0.73406 0.34634 0.0
C2370 C 0.26082 0.74536 0.32657 0.0
C2371 C 0.26211 0.719 0.36047 0.0
C2372 C 0.2406 0.7148 0.35517 0.0
C2373 C 0.22936 0.72569 0.33521 0.0
C2374 C 0.23931 0.741 0.32113 0.0
C2375 C 0.23011 0.69889 0.37055 0.0
C2376 C 0.22365 0.67819 0.36026 0.0
C2377 C 0.22818 0.70307 0.39562 0.0
C2378 C 0.23363 0.72518 0.40739 0.0
C2379 C 0.22397 0.74733 0.39904 0.0
C2380 C 0.22918 0.7681 0.41016 0.0
C2381 C 0.24392 0.76695 0.42976 0.0
C2382 C 0.25345 0.74502 0.43831 0.0
C2383 C 0.24832 0.72419 0.42723 0.0
H2384 H 0.24792 0.78305 0.43836 0.0
H2385 H 0.19886 0.58013 0.33199 0.0
H2386 H 0.45688 0.27952 0.43986 0.0
H2387 H 0.42871 0.28664 0.40771 0.0
H2388 H 0.38678 0.24706 0.44634 0.0
H2389 H 0.41524 0.23893 0.47743 0.0
H2390 H 0.38472 0.23337 0.40379 0.0
H2391 H 0.37914 0.31169 0.43909 0.0
H2392 H 0.39272 0.3484 0.45308 0.0
H2393 H 0.41278 0.36014 0.38169 0.0
H2394 H 0.39958 0.32332 0.36734 0.0
H2395 H 0.28382 0.26849 0.33952 0.0
H2396 H 0.31311 0.26435 0.37045 0.0
H2397 H 0.35691 0.28936 0.32123 0.0
H2398 H 0.32797 0.293 0.29007 0.0
H2399 H 0.35889 0.31072 0.36705 0.0
H2400 H 0.36237 0.2327 0.33219 0.0
H2401 H 0.3476 0.19648 0.31885 0.0
H2402 H 0.32989 0.1849 0.39116 0.0
H2403 H 0.34423 0.22129 0.40487 0.0
C2404 C 0.44145 0.27281 0.44164 0.0
C2405 C 0.43822 0.25883 0.46128 0.0
C2406 C 0.42527 0.27685 0.42322 0.0
C2407 C 0.40529 0.26754 0.42441 0.0
C2408 C 0.40194 0.25434 0.44461 0.0
C2409 C 0.4182 0.24988 0.46259 0.0
C2410 C 0.38816 0.27044 0.40446 0.0
C2411 C 0.37893 0.25044 0.39613 0.0
C2412 C 0.38076 0.29246 0.39365 0.0
C2413 C 0.38858 0.31464 0.40221 0.0
C2414 C 0.38658 0.32203 0.42642 0.0
C2415 C 0.39419 0.34286 0.43441 0.0
C2416 C 0.40367 0.35656 0.4183 0.0
C2417 C 0.40548 0.34949 0.39415 0.0
C2418 C 0.39792 0.32865 0.38608 0.0
C2419 C 0.29968 0.27306 0.3352 0.0
C2420 C 0.30338 0.2812 0.31221 0.0
C2421 C 0.31646 0.27067 0.35295 0.0
C2422 C 0.3373 0.27655 0.34825 0.0
C2423 C 0.34099 0.28482 0.32539 0.0
C2424 C 0.32435 0.28686 0.30754 0.0
C2425 C 0.35529 0.27382 0.36704 0.0
C2426 C 0.36472 0.29376 0.37494 0.0
C2427 C 0.3627 0.25182 0.37769 0.0
C2428 C 0.35418 0.22985 0.36951 0.0
C2429 C 0.35516 0.22254 0.34521 0.0
C2430 C 0.34688 0.20196 0.33759 0.0
C2431 C 0.33776 0.18843 0.35413 0.0
C2432 C 0.33693 0.19542 0.37835 0.0
C2433 C 0.34514 0.21602 0.38607 0.0
H2434 H 0.33138 0.17249 0.3482 0.0
H2435 H 0.40956 0.37268 0.42452 0.0
H2436 H 0.55095 0.86279 0.54664 0.0
H2437 H 0.57946 0.86623 0.57782 0.0
H2438 H 0.58211 0.79215 0.59269 0.0
H2439 H 0.55389 0.7886 0.56199 0.0
H2440 H 0.58088 0.81951 0.63361 0.0
H2441 H 0.61934 0.81153 0.55789 0.0
H2442 H 0.62701 0.82428 0.51739 0.0
H2443 H 0.6423 0.89032 0.54694 0.0
H2444 H 0.63438 0.87809 0.5876 0.0
H2445 H 0.67896 0.77426 0.68917 0.0
H2446 H 0.64988 0.78369 0.659 0.0
H2447 H 0.66244 0.85605 0.6592 0.0
H2448 H 0.69185 0.84675 0.68945 0.0
H2449 H 0.65414 0.8385 0.61321 0.0
H2450 H 0.62076 0.84451 0.68938 0.0
H2451 H 0.61342 0.83204 0.73006 0.0
H2452 H 0.58813 0.77101 0.70025 0.0
H2453 H 0.59564 0.7829 0.65938 0.0
C2454 C 0.55759 0.84731 0.55667 0.0
C2455 C 0.55027 0.8254 0.55182 0.0
C2456 C 0.57387 0.84929 0.57438 0.0
C2457 C 0.58289 0.82941 0.58745 0.0
C2458 C 0.57531 0.80771 0.58284 0.0
C2459 C 0.55924 0.8057 0.56517 0.0
C2460 C 0.60051 0.8306 0.60581 0.0
C2461 C 0.59691 0.82365 0.62917 0.0
C2462 C 0.62115 0.83678 0.60015 0.0
C2463 C 0.62599 0.84403 0.57573 0.0
C2464 C 0.62414 0.82885 0.55572 0.0
C2465 C 0.62857 0.83597 0.53274 0.0
C2466 C 0.63506 0.85813 0.52958 0.0
C2467 C 0.63721 0.87319 0.54941 0.0
C2468 C 0.63275 0.86618 0.57242 0.0
C2469 C 0.67575 0.79215 0.68268 0.0
C2470 C 0.6876 0.80982 0.69191 0.0
C2471 C 0.65905 0.79752 0.66549 0.0
C2472 C 0.65378 0.82066 0.65724 0.0
C2473 C 0.66621 0.83812 0.66549 0.0
C2474 C 0.68297 0.83277 0.68277 0.0
C2475 C 0.63471 0.82648 0.64069 0.0
C2476 C 0.638 0.83482 0.61779 0.0
C2477 C 0.61369 0.82168 0.64676 0.0
C2478 C 0.6089 0.81454 0.6713 0.0
C2479 C 0.61377 0.82834 0.6915 0.0
C2480 C 0.60956 0.82139 0.7146 0.0
C2481 C 0.60034 0.80073 0.71774 0.0
C2482 C 0.59527 0.78701 0.69779 0.0
C2483 C 0.59948 0.79387 0.67464 0.0
H2484 H 0.5971 0.79537 0.73565 0.0
H2485 H 0.63849 0.8636 0.51178 0.0
H2486 H 0.56559 0.25602 0.46992 0.0
H2487 H 0.59503 0.26328 0.44418 0.0
H2488 H 0.58786 0.19992 0.40287 0.0
H2489 H 0.55783 0.19274 0.4282 0.0
H2490 H 0.63206 0.20572 0.4134 0.0
H2491 H 0.56697 0.25052 0.37982 0.0
H2492 H 0.53306 0.27896 0.38094 0.0
H2493 H 0.56982 0.33384 0.4055 0.0
H2494 H 0.60392 0.30562 0.40486 0.0
H2495 H 0.69972 0.23667 0.31903 0.0
H2496 H 0.67089 0.22331 0.34258 0.0
H2497 H 0.6608 0.29119 0.37936 0.0
H2498 H 0.68859 0.3048 0.35524 0.0
H2499 H 0.62373 0.28038 0.36844 0.0
H2500 H 0.68821 0.23659 0.40513 0.0
H2501 H 0.72254 0.20873 0.40625 0.0
H2502 H 0.68819 0.15308 0.37847 0.0
H2503 H 0.65371 0.1807 0.37692 0.0
C2504 C 0.56998 0.24366 0.45528 0.0
C2505 C 0.5589 0.22393 0.45105 0.0
C2506 C 0.587 0.24781 0.44062 0.0
C2507 C 0.59348 0.23231 0.4214 0.0
C2508 C 0.58309 0.21215 0.41758 0.0
C2509 C 0.56591 0.20805 0.43216 0.0
C2510 C 0.61069 0.23765 0.405 0.0
C2511 C 0.63018 0.22188 0.40328 0.0
C2512 C 0.60841 0.25892 0.39216 0.0
C2513 C 0.58795 0.27592 0.39249 0.0
C2514 C 0.56779 0.26861 0.38564 0.0
C2515 C 0.54855 0.28469 0.38616 0.0
C2516 C 0.54928 0.30818 0.39334 0.0
C2517 C 0.56927 0.31564 0.39997 0.0
C2518 C 0.58856 0.29961 0.39951 0.0
C2519 C 0.69135 0.24865 0.33221 0.0
C2520 C 0.69634 0.27184 0.33513 0.0
C2521 C 0.67495 0.24097 0.3458 0.0
C2522 C 0.66363 0.25614 0.363 0.0
C2523 C 0.66904 0.27912 0.36615 0.0
C2524 C 0.68503 0.2869 0.35232 0.0
C2525 C 0.64562 0.2488 0.37725 0.0
C2526 C 0.62578 0.26415 0.37847 0.0
C2527 C 0.64777 0.2273 0.38987 0.0
C2528 C 0.66847 0.21076 0.39062 0.0
C2529 C 0.68803 0.21846 0.39906 0.0
C2530 C 0.7075 0.20271 0.39981 0.0
C2531 C 0.70756 0.17917 0.39235 0.0
C2532 C 0.68813 0.17132 0.38418 0.0
C2533 C 0.66863 0.18701 0.38337 0.0
H2534 H 0.72265 0.167 0.39295 0.0
H2535 H 0.53436 0.32061 0.39372 0.0
H2536 H 0.86417 0.59349 0.43326 0.0
H2537 H 0.85745 0.62004 0.39913 0.0
H2538 H 0.79054 0.63942 0.42039 0.0
H2539 H 0.7971 0.61279 0.45417 0.0
H2540 H 0.79203 0.63125 0.37365 0.0
H2541 H 0.83065 0.67592 0.43141 0.0
H2542 H 0.86147 0.68268 0.45873 0.0
H2543 H 0.90518 0.67399 0.39956 0.0
H2544 H 0.87467 0.66686 0.37196 0.0
H2545 H 0.76267 0.73434 0.30477 0.0
H2546 H 0.7702 0.70475 0.33597 0.0
H2547 H 0.83793 0.69172 0.31573 0.0
H2548 H 0.83064 0.72219 0.28544 0.0
H2549 H 0.83683 0.69524 0.36096 0.0
H2550 H 0.79772 0.65234 0.30254 0.0
H2551 H 0.76705 0.64445 0.27551 0.0
H2552 H 0.72429 0.6493 0.33541 0.0
H2553 H 0.75458 0.65759 0.36274 0.0
C2554 C 0.84811 0.60357 0.4307 0.0
C2555 C 0.83116 0.60105 0.44633 0.0
C2556 C 0.84427 0.61871 0.41123 0.0
C2557 C 0.82353 0.63186 0.40733 0.0
C2558 C 0.80663 0.62937 0.42297 0.0
C2559 C 0.8104 0.61411 0.44225 0.0
C2560 C 0.81921 0.64815 0.38692 0.0
C2561 C 0.80168 0.64541 0.37096 0.0
C2562 C 0.83215 0.6662 0.38309 0.0
C2563 C 0.85044 0.67061 0.39969 0.0
C2564 C 0.84687 0.67528 0.42427 0.0
C2565 C 0.86427 0.6792 0.4398 0.0
C2566 C 0.88528 0.67869 0.4309 0.0
C2567 C 0.88891 0.67434 0.40644 0.0
C2568 C 0.87158 0.67036 0.39085 0.0
C2569 C 0.77908 0.72491 0.30683 0.0
C2570 C 0.79608 0.73044 0.29271 0.0
C2571 C 0.78337 0.70793 0.32458 0.0
C2572 C 0.80458 0.69568 0.32799 0.0
C2573 C 0.82144 0.70091 0.31348 0.0
C2574 C 0.81727 0.71827 0.29615 0.0
C2575 C 0.80958 0.67841 0.34753 0.0
C2576 C 0.82723 0.68099 0.36342 0.0
C2577 C 0.79674 0.66019 0.35124 0.0
C2578 C 0.77842 0.65569 0.33467 0.0
C2579 C 0.78174 0.65193 0.30992 0.0
C2580 C 0.76442 0.64735 0.29455 0.0
C2581 C 0.74377 0.64629 0.30377 0.0
C2582 C 0.74031 0.65005 0.32832 0.0
C2583 C 0.75755 0.65468 0.34375 0.0
H2584 H 0.73045 0.64244 0.29192 0.0
H2585 H 0.89873 0.68173 0.44295 0.0
H2586 H 0.41848 0.86931 0.49568 0.0
H2587 H 0.39129 0.8658 0.46353 0.0
H2588 H 0.44147 0.86316 0.41084 0.0
H2589 H 0.46872 0.86705 0.44274 0.0
H2590 H 0.4031 0.88669 0.39424 0.0
H2591 H 0.42841 0.81291 0.43136 0.0
H2592 H 0.43665 0.78615 0.46546 0.0
H2593 H 0.36864 0.79557 0.48294 0.0
H2594 H 0.36003 0.82269 0.44909 0.0
H2595 H 0.35762 0.82291 0.29955 0.0
H2596 H 0.38094 0.83504 0.33237 0.0
H2597 H 0.32766 0.83726 0.38118 0.0
H2598 H 0.3042 0.82477 0.34845 0.0
H2599 H 0.36616 0.81536 0.40056 0.0
H2600 H 0.34166 0.88825 0.36 0.0
H2601 H 0.33546 0.91373 0.32467 0.0
H2602 H 0.4045 0.90394 0.31215 0.0
H2603 H 0.41107 0.87815 0.34725 0.0
C2604 C 0.42365 0.8687 0.47723 0.0
C2605 C 0.44582 0.8682 0.47183 0.0
C2606 C 0.4081 0.86652 0.45888 0.0
C2607 C 0.41449 0.86368 0.43489 0.0
C2608 C 0.43624 0.8652 0.42927 0.0
C2609 C 0.45179 0.86746 0.44758 0.0
C2610 C 0.39905 0.85703 0.41591 0.0
C2611 C 0.3951 0.87104 0.39554 0.0
C2612 C 0.38858 0.83663 0.41772 0.0
C2613 C 0.39361 0.82002 0.43784 0.0
C2614 C 0.41523 0.8094 0.44257 0.0
C2615 C 0.41997 0.79416 0.46185 0.0
C2616 C 0.40319 0.78921 0.4764 0.0
C2617 C 0.38162 0.79945 0.47166 0.0
C2618 C 0.3768 0.81475 0.45242 0.0
C2619 C 0.35079 0.82607 0.31722 0.0
C2620 C 0.32898 0.82306 0.32133 0.0
C2621 C 0.36415 0.83305 0.33596 0.0
C2622 C 0.35594 0.83737 0.35913 0.0
C2623 C 0.33427 0.83411 0.3634 0.0
C2624 C 0.32088 0.82708 0.34465 0.0
C2625 C 0.37007 0.84513 0.3789 0.0
C2626 C 0.37391 0.83119 0.39938 0.0
C2627 C 0.3807 0.8654 0.37703 0.0
C2628 C 0.37683 0.88115 0.35614 0.0
C2629 C 0.3555 0.89143 0.34963 0.0
C2630 C 0.35192 0.90594 0.32966 0.0
C2631 C 0.36957 0.91041 0.31615 0.0
C2632 C 0.39084 0.90045 0.32263 0.0
C2633 C 0.39451 0.88592 0.34258 0.0
H2634 H 0.36676 0.92163 0.30068 0.0
H2635 H 0.40688 0.77737 0.49128 0.0
H2636 H 0.22056 0.48086 0.47375 0.0
H2637 H 0.2245 0.45151 0.44117 0.0
H2638 H 0.26387 0.49436 0.40302 0.0
H2639 H 0.2591 0.52442 0.43517 0.0
H2640 H 0.23309 0.48178 0.37463 0.0
H2641 H 0.28475 0.43975 0.43134 0.0
H2642 H 0.29559 0.42234 0.47072 0.0
H2643 H 0.24591 0.37687 0.46254 0.0
H2644 H 0.23458 0.39423 0.42325 0.0
H2645 H 0.2689 0.40326 0.28089 0.0
H2646 H 0.26564 0.42938 0.31616 0.0
H2647 H 0.22978 0.38111 0.35168 0.0
H2648 H 0.23422 0.3541 0.31671 0.0
H2649 H 0.25677 0.39568 0.38218 0.0
H2650 H 0.20481 0.43576 0.32685 0.0
H2651 H 0.19142 0.45316 0.28819 0.0
H2652 H 0.23802 0.50233 0.2946 0.0
H2653 H 0.25193 0.48498 0.33313 0.0
C2654 C 0.23045 0.48385 0.45867 0.0
C2655 C 0.23953 0.50499 0.45701 0.0
C2656 C 0.23274 0.46697 0.44004 0.0
C2657 C 0.24464 0.4706 0.41969 0.0
C2658 C 0.25457 0.4912 0.41853 0.0
C2659 C 0.25196 0.5083 0.43697 0.0
C2660 C 0.24537 0.45388 0.39881 0.0
C2661 C 0.23863 0.463 0.37622 0.0
C2662 C 0.25155 0.42922 0.40107 0.0
C2663 C 0.25873 0.41841 0.42443 0.0
C2664 C 0.27608 0.42611 0.43798 0.0
C2665 C 0.28231 0.41625 0.46029 0.0
C2666 C 0.27142 0.39854 0.46914 0.0
C2667 C 0.25433 0.39059 0.45567 0.0
C2668 C 0.24802 0.40041 0.43337 0.0
C2669 C 0.26008 0.39833 0.29609 0.0
C2670 C 0.25157 0.37678 0.29597 0.0
C2671 C 0.25816 0.41333 0.31626 0.0
C2672 C 0.24703 0.40753 0.33645 0.0
C2673 C 0.23837 0.38604 0.3363 0.0
C2674 C 0.24078 0.3707 0.31629 0.0
C2675 C 0.24498 0.42367 0.35786 0.0
C2676 C 0.25129 0.41446 0.38056 0.0
C2677 C 0.23806 0.44824 0.35581 0.0
C2678 C 0.22951 0.45894 0.33279 0.0
C2679 C 0.21228 0.4502 0.31995 0.0
C2680 C 0.2046 0.46006 0.29806 0.0
C2681 C 0.21389 0.47881 0.28892 0.0
C2682 C 0.23085 0.48779 0.30169 0.0
C2683 C 0.23862 0.47797 0.32357 0.0
H2684 H 0.20793 0.4864 0.27197 0.0
H2685 H 0.27625 0.39096 0.48643 0.0
H2686 H 0.41107 0.23633 0.55028 0.0
H2687 H 0.3819 0.24193 0.57971 0.0
H2688 H 0.43026 0.22711 0.637 0.0
H2689 H 0.45898 0.21953 0.60719 0.0
H2690 H 0.39887 0.20837 0.64862 0.0
H2691 H 0.40133 0.28673 0.62053 0.0
H2692 H 0.40074 0.31755 0.59019 0.0
H2693 H 0.33614 0.30598 0.56662 0.0
H2694 H 0.33644 0.27491 0.59666 0.0
H2695 H 0.33281 0.26214 0.74362 0.0
H2696 H 0.36003 0.25575 0.71217 0.0
H2697 H 0.3092 0.2463 0.65953 0.0
H2698 H 0.2818 0.25261 0.69098 0.0
H2699 H 0.34029 0.27717 0.64536 0.0
H2700 H 0.33917 0.19931 0.67716 0.0
H2701 H 0.34114 0.17083 0.70996 0.0
H2702 H 0.40585 0.18518 0.7297 0.0
H2703 H 0.40414 0.214 0.6972 0.0
C2704 C 0.41529 0.23429 0.5692 0.0
C2705 C 0.43714 0.22756 0.57659 0.0
C2706 C 0.39868 0.23771 0.5861 0.0
C2707 C 0.40371 0.23555 0.61088 0.0
C2708 C 0.42572 0.22889 0.61813 0.0
C2709 C 0.44219 0.22466 0.60116 0.0
C2710 C 0.38619 0.23981 0.62925 0.0
C2711 C 0.38632 0.22366 0.64795 0.0
C2712 C 0.36935 0.25948 0.6285 0.0
C2713 C 0.36898 0.27838 0.6107 0.0
C2714 C 0.38704 0.2907 0.6088 0.0
C2715 C 0.38675 0.30821 0.59167 0.0
C2716 C 0.36843 0.31368 0.57645 0.0
C2717 C 0.35032 0.30171 0.5784 0.0
C2718 C 0.35052 0.28418 0.5955 0.0
C2719 C 0.32736 0.25893 0.72533 0.0
C2720 C 0.30509 0.25804 0.7198 0.0
C2721 C 0.34297 0.25514 0.70739 0.0
C2722 C 0.33666 0.25052 0.68349 0.0
C2723 C 0.31442 0.24989 0.67783 0.0
C2724 C 0.29881 0.25339 0.69584 0.0
C2725 C 0.35337 0.24595 0.66456 0.0
C2726 C 0.35298 0.26199 0.64584 0.0
C2727 C 0.37028 0.22655 0.66561 0.0
C2728 C 0.37146 0.20894 0.68487 0.0
C2729 C 0.35376 0.1965 0.68859 0.0
C2730 C 0.35484 0.18028 0.70711 0.0
C2731 C 0.37359 0.17623 0.72193 0.0
C2732 C 0.39133 0.18834 0.71821 0.0
C2733 C 0.39033 0.2046 0.69973 0.0
H2734 H 0.37438 0.16367 0.73627 0.0
H2735 H 0.36825 0.32722 0.56317 0.0
H2736 H 0.79419 0.47392 0.56053 0.0
H2737 H 0.78581 0.44381 0.58756 0.0
H2738 H 0.8532 0.43238 0.61246 0.0
H2739 H 0.86174 0.46294 0.58553 0.0
H2740 H 0.83607 0.39071 0.60265 0.0
H2741 H 0.81547 0.46368 0.64685 0.0
H2742 H 0.79622 0.50413 0.65264 0.0
H2743 H 0.73434 0.47881 0.64119 0.0
H2744 H 0.75323 0.43825 0.63497 0.0
H2745 H 0.82035 0.32392 0.70463 0.0
H2746 H 0.8297 0.35408 0.67796 0.0
H2747 H 0.76181 0.37045 0.65579 0.0
H2748 H 0.75224 0.34057 0.6827 0.0
H2749 H 0.77956 0.40983 0.6644 0.0
H2750 H 0.7983 0.33818 0.61919 0.0
H2751 H 0.81598 0.29743 0.61127 0.0
H2752 H 0.8793 0.31955 0.62223 0.0
H2753 H 0.86197 0.3604 0.63054 0.0
C2754 C 0.80723 0.46531 0.57194 0.0
C2755 C 0.82863 0.47111 0.57109 0.0
C2756 C 0.8024 0.44799 0.58732 0.0
C2757 C 0.81882 0.43614 0.60224 0.0
C2758 C 0.84029 0.44142 0.60111 0.0
C2759 C 0.84516 0.45882 0.5857 0.0
C2760 C 0.81346 0.41819 0.61897 0.0
C2761 C 0.82399 0.39493 0.61644 0.0
C2762 C 0.79715 0.42361 0.63637 0.0
C2763 C 0.78578 0.44797 0.64025 0.0
C2764 C 0.79777 0.46677 0.64539 0.0
C2765 C 0.78692 0.48971 0.64877 0.0
C2766 C 0.76407 0.49405 0.64723 0.0
C2767 C 0.75203 0.47543 0.64235 0.0
C2768 C 0.7628 0.45246 0.63892 0.0
C2769 C 0.80739 0.33396 0.69413 0.0
C2770 C 0.78556 0.3298 0.69576 0.0
C2771 C 0.81278 0.3511 0.67879 0.0
C2772 C 0.79649 0.36428 0.66466 0.0
C2773 C 0.77464 0.36042 0.6665 0.0
C2774 C 0.76922 0.34331 0.68186 0.0
C2775 C 0.80222 0.3823 0.64818 0.0
C2776 C 0.79173 0.40558 0.65072 0.0
C2777 C 0.81836 0.37683 0.63058 0.0
C2778 C 0.82883 0.35228 0.62576 0.0
C2779 C 0.81599 0.3343 0.62014 0.0
C2780 C 0.82594 0.3112 0.61553 0.0
C2781 C 0.84875 0.30589 0.61632 0.0
C2782 C 0.86164 0.32368 0.62167 0.0
C2783 C 0.85176 0.34681 0.62632 0.0
H2784 H 0.85643 0.28799 0.61273 0.0
H2785 H 0.75571 0.51182 0.64986 0.0
H2786 H 0.26531 0.60493 0.53247 0.0
H2787 H 0.26833 0.63715 0.56174 0.0
H2788 H 0.21863 0.61327 0.60417 0.0
H2789 H 0.21554 0.58115 0.57529 0.0
H2790 H 0.20935 0.6599 0.59496 0.0
H2791 H 0.26951 0.60655 0.62513 0.0
H2792 H 0.30408 0.5792 0.62374 0.0
H2793 H 0.33762 0.63519 0.60033 0.0
H2794 H 0.30315 0.66282 0.60124 0.0
H2795 H 0.2324 0.72516 0.70587 0.0
H2796 H 0.23046 0.69206 0.67731 0.0
H2797 H 0.25492 0.7317 0.62171 0.0
H2798 H 0.25634 0.76511 0.64986 0.0
H2799 H 0.27696 0.67758 0.63793 0.0
H2800 H 0.21359 0.72985 0.60542 0.0
H2801 H 0.17852 0.7559 0.61004 0.0
H2802 H 0.1508 0.69943 0.64167 0.0
H2803 H 0.18588 0.67316 0.63755 0.0
C2804 C 0.25533 0.60629 0.54826 0.0
C2805 C 0.24011 0.59056 0.55146 0.0
C2806 C 0.25705 0.6247 0.56494 0.0
C2807 C 0.2436 0.62761 0.58502 0.0
C2808 C 0.22903 0.6114 0.5887 0.0
C2809 C 0.22737 0.593 0.57218 0.0
C2810 C 0.24375 0.64828 0.60152 0.0
C2811 C 0.22413 0.66362 0.60446 0.0
C2812 C 0.26302 0.65324 0.6138 0.0
C2813 C 0.28371 0.63667 0.61296 0.0
C2814 C 0.28421 0.61297 0.61943 0.0
C2815 C 0.30379 0.59743 0.61879 0.0
C2816 C 0.32302 0.60543 0.61187 0.0
C2817 C 0.32271 0.62901 0.60563 0.0
C2818 C 0.30315 0.64462 0.60621 0.0
C2819 C 0.23699 0.72695 0.68745 0.0
C2820 C 0.24434 0.74774 0.68 0.0
C2821 C 0.23594 0.70807 0.67124 0.0
C2822 C 0.24257 0.7096 0.64755 0.0
C2823 C 0.24969 0.73036 0.63997 0.0
C2824 C 0.25032 0.74944 0.656 0.0
C2825 C 0.24272 0.68915 0.63094 0.0
C2826 C 0.26232 0.67382 0.62818 0.0
C2827 C 0.22342 0.68402 0.61903 0.0
C2828 C 0.20239 0.6997 0.62148 0.0
C2829 C 0.20009 0.7231 0.61362 0.0
C2830 C 0.1802 0.73787 0.61608 0.0
C2831 C 0.16246 0.72935 0.62623 0.0
C2832 C 0.16457 0.70602 0.63387 0.0
C2833 C 0.18444 0.69119 0.63146 0.0
H2834 H 0.14707 0.74081 0.62811 0.0
H2835 H 0.33818 0.59337 0.61141 0.0
loop_
_geom_bond_atom_site_label_1
_geom_bond_atom_site_label_2
_geom_bond_distance
_geom_bond_site_symmetry_2
_ccdc_geom_bond_type
Cu0 N1 1.999 . S
Cu0 O6 1.974 . S
Cu0 N11 1.971 1_445 S
Cu0 O20 1.959 1_455 S
N1 Cu0 1.999 . S
N1 C3 1.263 . S
N1 C5 1.389 . S
N2 C3 1.358 . S
N2 C4 1.400 . S
C3 N1 1.263 . S
C3 N2 1.358 . S
C3 H9 0.930 . S
C4 N2 1.400 . S
C4 C5 1.351 . S
C4 H21 0.930 . S
C5 N1 1.389 . S
C5 C4 1.351 . S
C5 H10 0.930 . S
O6 Cu0 1.974 . S
O6 C16 1.282 1_545 S
C7 O8 1.261 . S
C7 O20 1.251 . S
O8 C7 1.261 . S
H9 C3 0.930 . S
H10 C5 0.930 . S
N11 Cu0 1.971 1_665 S
N11 C13 1.338 . S
N11 C14 1.405 . S
N12 C13 1.340 . S
N12 C15 1.336 . S
C13 N11 1.338 . S
C13 N12 1.340 . S
C13 H18 0.933 1_565 S
C14 N11 1.405 . S
C14 C15 1.346 . S
C14 H19 0.930 1_655 S
C15 N12 1.336 . S
C15 C14 1.346 . S
C15 H22 0.929 . S
C16 O6 1.282 1_565 S
C16 O17 1.224 . S
O17 C16 1.224 . S
H18 C13 0.933 1_545 S
H19 C14 0.930 1_455 S
O20 Cu0 1.959 1_655 S
O20 C7 1.251 . S
H21 C4 0.930 . S
H22 C15 0.929 . S
Cu23 N24 1.999 1_445 S
Cu23 O29 1.974 1_455 S
Cu23 N34 1.985 . S
Cu23 O43 1.959 1_545 S
N24 Cu23 1.999 1_665 S
N24 C26 1.263 . S
N24 C28 1.389 . S
N25 C26 1.358 . S
N25 C27 1.400 . S
C26 N24 1.263 . S
C26 N25 1.358 . S
C26 H32 0.930 1_565 S
C27 N25 1.400 . S
C27 C28 1.351 . S
C27 H44 0.930 . S
C28 N24 1.389 . S
C28 C27 1.351 . S
C28 H33 0.924 1_655 S
O29 Cu23 1.974 1_655 S
O29 C39 1.282 . S
C30 O31 1.261 . S
C30 O43 1.251 . S
O31 C30 1.261 . S
H32 C26 0.930 1_545 S
H33 C28 0.924 1_455 S
N34 Cu23 1.985 . S
N34 C36 1.335 . S
N34 C37 1.390 . S
N35 C36 1.345 . S
N35 C38 1.336 . S
C36 N34 1.335 . S
C36 N35 1.345 . S
C36 H41 0.930 . S
C37 N34 1.390 . S
C37 C38 1.346 . S
C37 H42 0.930 . S
C38 N35 1.336 . S
C38 C37 1.346 . S
C38 H45 0.929 . S
C39 O29 1.282 . S
C39 O40 1.216 . S
O40 C39 1.216 . S
H41 C36 0.930 . S
H42 C37 0.930 . S
O43 Cu23 1.959 1_565 S
O43 C30 1.251 . S
H44 C27 0.930 . S
H45 C38 0.929 . S
Cu46 N47 2.013 1_554 S
Cu46 O52 1.990 . S
Cu46 N57 1.972 1_565 S
Cu46 O66 1.944 1_564 S
N47 Cu46 2.013 1_556 S
N47 C49 1.263 . S
N47 C51 1.389 . S
N48 C49 1.358 . S
N48 C50 1.400 . S
C49 N47 1.263 . S
C49 N48 1.358 . S
C49 H55 0.930 . S
C50 N48 1.400 . S
C50 C51 1.351 . S
C50 H67 0.930 . S
C51 N47 1.389 . S
C51 C50 1.351 . S
C51 H56 0.930 . S
O52 Cu46 1.990 . S
O52 C62 1.282 . S
C53 O54 1.261 . S
C53 O66 1.251 . S
O54 C53 1.261 . S
H55 C49 0.930 . S
H56 C51 0.930 . S
N57 Cu46 1.972 1_545 S
N57 C59 1.335 . S
N57 C60 1.390 . S
N58 C59 1.345 . S
N58 C61 1.336 . S
C59 N57 1.335 . S
C59 N58 1.345 . S
C59 H64 0.930 . S
C60 N57 1.390 . S
C60 C61 1.346 . S
C60 H65 0.930 . S
C61 N58 1.336 . S
C61 C60 1.346 . S
C61 H68 0.929 . S
C62 O52 1.282 . S
C62 O63 1.216 . S
O63 C62 1.216 . S
H64 C59 0.930 . S
H65 C60 0.930 . S
O66 Cu46 1.944 1_546 S
O66 C53 1.251 . S
H67 C50 0.930 . S
H68 C61 0.929 . S
Cu69 N70 1.999 1_554 S
Cu69 O75 1.974 . S
Cu69 N80 1.985 1_455 S
Cu69 O89 1.959 1_454 S
N70 Cu69 1.999 1_556 S
N70 C72 1.263 . S
N70 C74 1.389 . S
N71 C72 1.358 . S
N71 C73 1.400 . S
C72 N70 1.263 . S
C72 N71 1.358 . S
C72 H78 0.930 . S
C73 N71 1.400 . S
C73 C74 1.351 . S
C73 H90 0.930 . S
C74 N70 1.389 . S
C74 C73 1.351 . S
C74 H79 0.930 . S
O75 Cu69 1.974 . S
O75 C85 1.282 . S
C76 O77 1.261 . S
C76 O89 1.251 . S
O77 C76 1.261 . S
H78 C72 0.930 . S
H79 C74 0.930 . S
N80 Cu69 1.985 1_655 S
N80 C82 1.335 . S
N80 C83 1.390 . S
N81 C82 1.345 . S
N81 C84 1.336 . S
C82 N80 1.335 . S
C82 N81 1.345 . S
C82 H87 0.930 . S
C83 N80 1.390 . S
C83 C84 1.346 . S
C83 H88 0.930 1_655 S
C84 N81 1.336 . S
C84 C83 1.346 . S
C84 H91 0.929 . S
C85 O75 1.282 . S
C85 O86 1.216 . S
O86 C85 1.216 . S
H87 C82 0.930 . S
H88 C83 0.930 1_455 S
O89 Cu69 1.959 1_656 S
O89 C76 1.251 . S
H90 C73 0.930 . S
H91 C84 0.929 . S
Cu92 N93 1.999 1_554 S
Cu92 O98 1.974 . S
Cu92 N103 1.985 . S
Cu92 O112 1.959 1_554 S
N93 Cu92 1.999 1_556 S
N93 C95 1.263 . S
N93 C97 1.389 . S
N94 C95 1.358 . S
N94 C96 1.400 . S
C95 N93 1.263 . S
C95 N94 1.358 . S
C95 H101 0.930 . S
C96 N94 1.400 . S
C96 C97 1.351 . S
C96 H113 0.930 . S
C97 N93 1.389 . S
C97 C96 1.351 . S
C97 H102 0.930 . S
O98 Cu92 1.974 . S
O98 C108 1.282 . S
C99 O100 1.245 1_565 S
C99 O112 1.251 1_565 S
O100 C99 1.245 1_545 S
H101 C95 0.930 . S
H102 C97 0.930 . S
N103 Cu92 1.985 . S
N103 C105 1.335 1_545 S
N103 C106 1.390 . S
N104 C105 1.345 . S
N104 C107 1.336 . S
C105 N103 1.335 1_565 S
C105 N104 1.345 . S
C105 H110 0.930 . S
C106 N103 1.390 . S
C106 C107 1.346 1_545 S
C106 H111 0.930 . S
C107 N104 1.336 . S
C107 C106 1.346 1_565 S
C107 H114 0.929 . S
C108 O98 1.282 . S
C108 O109 1.216 . S
O109 C108 1.216 . S
H110 C105 0.930 . S
H111 C106 0.930 . S
O112 Cu92 1.959 1_556 S
O112 C99 1.251 1_545 S
H113 C96 0.930 . S
H114 C107 0.929 . S
Cu115 N116 1.999 1_454 S
Cu115 O121 1.974 1_455 S
Cu115 N126 1.985 . S
Cu115 O135 1.959 1_554 S
N116 Cu115 1.999 1_656 S
N116 C118 1.263 . S
N116 C120 1.389 . S
N117 C118 1.358 . S
N117 C119 1.400 . S
C118 N116 1.263 . S
C118 N117 1.358 . S
C118 H124 0.930 . S
C119 N117 1.400 . S
C119 C120 1.351 . S
C119 H136 0.930 . S
C120 N116 1.389 . S
C120 C119 1.351 . S
C120 H125 0.930 1_655 S
O121 Cu115 1.974 1_655 S
O121 C131 1.282 . S
C122 O123 1.261 . S
C122 O135 1.251 . S
O123 C122 1.261 . S
H124 C118 0.930 . S
H125 C120 0.930 1_455 S
N126 Cu115 1.985 . S
N126 C128 1.335 . S
N126 C129 1.390 . S
N127 C128 1.345 . S
N127 C130 1.336 . S
C128 N126 1.335 . S
C128 N127 1.345 . S
C128 H133 0.930 . S
C129 N126 1.390 . S
C129 C130 1.346 . S
C129 H134 0.930 . S
C130 N127 1.336 . S
C130 C129 1.346 . S
C130 H137 0.929 . S
C131 O121 1.282 . S
C131 O132 1.216 . S
O132 C131 1.216 . S
H133 C128 0.930 . S
H134 C129 0.930 . S
O135 Cu115 1.959 1_556 S
O135 C122 1.251 . S
H136 C119 0.930 . S
H137 C130 0.929 . S
Cu138 N139 1.999 . S
Cu138 O144 1.974 . S
Cu138 N149 1.985 . S
Cu138 O158 1.959 . S
N139 Cu138 1.999 . S
N139 C141 1.263 . S
N139 C143 1.389 . S
N140 C141 1.358 . S
N140 C142 1.400 . S
C141 N139 1.263 . S
C141 N140 1.358 . S
C141 H147 0.930 . S
C142 N140 1.400 . S
C142 C143 1.351 . S
C142 H159 0.930 . S
C143 N139 1.389 . S
C143 C142 1.351 . S
C143 H148 0.930 . S
O144 Cu138 1.974 . S
O144 C154 1.282 . S
C145 O146 1.261 . S
C145 O158 1.251 . S
O146 C145 1.261 . S
H147 C141 0.930 . S
H148 C143 0.930 . S
N149 Cu138 1.985 . S
N149 C151 1.335 . S
N149 C152 1.390 . S
N150 C151 1.345 . S
N150 C153 1.336 . S
C151 N149 1.335 . S
C151 N150 1.345 . S
C151 H156 0.930 . S
C152 N149 1.390 . S
C152 C153 1.346 . S
C152 H157 0.930 . S
C153 N150 1.336 . S
C153 C152 1.346 . S
C153 H160 0.929 . S
C154 O144 1.282 . S
C154 O155 1.216 . S
O155 C154 1.216 . S
H156 C151 0.930 . S
H157 C152 0.930 . S
O158 Cu138 1.959 . S
O158 C145 1.251 . S
H159 C142 0.930 . S
H160 C153 0.929 . S
Cu161 N162 1.999 . S
Cu161 O167 1.974 . S
Cu161 N172 1.985 . S
Cu161 O181 1.959 . S
N162 Cu161 1.999 . S
N162 C164 1.263 . S
N162 C166 1.389 . S
N163 C164 1.358 . S
N163 C165 1.400 . S
C164 N162 1.263 . S
C164 N163 1.358 . S
C164 H170 0.930 . S
C165 N163 1.400 . S
C165 C166 1.351 . S
C165 H182 0.930 . S
C166 N162 1.389 . S
C166 C165 1.351 . S
C166 H171 0.930 . S
O167 Cu161 1.974 . S
O167 C177 1.282 . S
C168 O169 1.261 . S
C168 O181 1.251 . S
O169 C168 1.261 . S
H170 C164 0.930 . S
H171 C166 0.930 . S
N172 Cu161 1.985 . S
N172 C174 1.335 . S
N172 C175 1.390 . S
N173 C174 1.345 . S
N173 C176 1.336 . S
C174 N172 1.335 . S
C174 N173 1.345 . S
C174 H179 0.930 . S
C175 N172 1.390 . S
C175 C176 1.346 . S
C175 H180 0.930 . S
C176 N173 1.336 . S
C176 C175 1.346 . S
C176 H183 0.929 . S
C177 O167 1.282 . S
C177 O178 1.216 . S
O178 C177 1.216 . S
H179 C174 0.930 . S
H180 C175 0.930 . S
O181 Cu161 1.959 . S
O181 C168 1.251 . S
H182 C165 0.930 . S
H183 C176 0.929 . S
Cu184 N185 1.999 . S
Cu184 O190 1.974 . S
Cu184 N195 1.985 . S
Cu184 O204 1.959 . S
N185 Cu184 1.999 . S
N185 C187 1.263 . S
N185 C189 1.389 . S
N186 C187 1.358 . S
N186 C188 1.400 . S
C187 N185 1.263 . S
C187 N186 1.358 . S
C187 H193 0.930 . S
C188 N186 1.400 . S
C188 C189 1.351 . S
C188 H205 0.930 . S
C189 N185 1.389 . S
C189 C188 1.351 . S
C189 H194 0.930 . S
O190 Cu184 1.974 . S
O190 C200 1.282 . S
C191 O192 1.261 . S
C191 O204 1.251 . S
O192 C191 1.261 . S
H193 C187 0.930 . S
H194 C189 0.930 . S
N195 Cu184 1.985 . S
N195 C197 1.335 . S
N195 C198 1.390 . S
N196 C197 1.345 . S
N196 C199 1.336 . S
C197 N195 1.335 . S
C197 N196 1.345 . S
C197 H202 0.930 . S
C198 N195 1.390 . S
C198 C199 1.346 . S
C198 H203 0.930 . S
C199 N196 1.336 . S
C199 C198 1.346 . S
C199 H206 0.929 . S
C200 O190 1.282 . S
C200 O201 1.216 . S
O201 C200 1.216 . S
H202 C197 0.930 . S
H203 C198 0.930 . S
O204 Cu184 1.959 . S
O204 C191 1.251 . S
H205 C188 0.930 . S
H206 C199 0.929 . S
Cu207 N208 1.999 . S
Cu207 O213 1.974 . S
Cu207 N218 1.985 . S
Cu207 O227 1.959 . S
N208 Cu207 1.999 . S
N208 C210 1.263 . S
N208 C212 1.389 . S
N209 C210 1.358 . S
N209 C211 1.400 . S
C210 N208 1.263 . S
C210 N209 1.358 . S
C210 H216 0.930 . S
C211 N209 1.400 . S
C211 C212 1.351 . S
C211 H228 0.930 . S
C212 N208 1.389 . S
C212 C211 1.351 . S
C212 H217 0.930 . S
O213 Cu207 1.974 . S
O213 C223 1.282 . S
C214 O215 1.261 . S
C214 O227 1.251 . S
O215 C214 1.261 . S
H216 C210 0.930 . S
H217 C212 0.930 . S
N218 Cu207 1.985 . S
N218 C220 1.335 . S
N218 C221 1.390 . S
N219 C220 1.345 . S
N219 C222 1.336 . S
C220 N218 1.335 . S
C220 N219 1.345 . S
C220 H225 0.930 . S
C221 N218 1.390 . S
C221 C222 1.346 . S
C221 H226 0.930 . S
C222 N219 1.336 . S
C222 C221 1.346 . S
C222 H229 0.929 . S
C223 O213 1.282 . S
C223 O224 1.216 . S
O224 C223 1.216 . S
H225 C220 0.930 . S
H226 C221 0.930 . S
O227 Cu207 1.959 . S
O227 C214 1.251 . S
H228 C211 0.930 . S
H229 C222 0.929 . S
Cu230 N231 1.999 . S
Cu230 O236 1.974 . S
Cu230 N241 1.985 . S
Cu230 O250 1.959 . S
N231 Cu230 1.999 . S
N231 C233 1.263 . S
N231 C235 1.389 . S
N232 C233 1.358 . S
N232 C234 1.400 . S
C233 N231 1.263 . S
C233 N232 1.358 . S
C233 H239 0.930 . S
C234 N232 1.400 . S
C234 C235 1.351 . S
C234 H251 0.930 . S
C235 N231 1.389 . S
C235 C234 1.351 . S
C235 H240 0.930 . S
O236 Cu230 1.974 . S
O236 C246 1.282 . S
C237 O238 1.261 . S
C237 O250 1.251 . S
O238 C237 1.261 . S
H239 C233 0.930 . S
H240 C235 0.930 . S
N241 Cu230 1.985 . S
N241 C243 1.335 . S
N241 C244 1.390 . S
N242 C243 1.345 . S
N242 C245 1.336 . S
C243 N241 1.335 . S
C243 N242 1.345 . S
C243 H248 0.930 . S
C244 N241 1.390 . S
C244 C245 1.346 . S
C244 H249 0.930 . S
C245 N242 1.336 . S
C245 C244 1.346 . S
C245 H252 0.929 . S
C246 O236 1.282 . S
C246 O247 1.216 . S
O247 C246 1.216 . S
H248 C243 0.930 . S
H249 C244 0.930 . S
O250 Cu230 1.959 . S
O250 C237 1.251 . S
H251 C234 0.930 . S
H252 C245 0.929 . S
Cu253 N254 1.999 . S
Cu253 O259 1.974 . S
Cu253 N264 1.985 . S
Cu253 O273 1.959 . S
N254 Cu253 1.999 . S
N254 C256 1.263 . S
N254 C258 1.389 . S
N255 C256 1.358 . S
N255 C257 1.400 . S
C256 N254 1.263 . S
C256 N255 1.358 . S
C256 H262 0.930 . S
C257 N255 1.400 . S
C257 C258 1.351 . S
C257 H274 0.930 . S
C258 N254 1.389 . S
C258 C257 1.351 . S
C258 H263 0.930 . S
O259 Cu253 1.974 . S
O259 C269 1.282 . S
C260 O261 1.261 . S
C260 O273 1.251 . S
O261 C260 1.261 . S
H262 C256 0.930 . S
H263 C258 0.930 . S
N264 Cu253 1.985 . S
N264 C266 1.335 . S
N264 C267 1.390 . S
N265 C266 1.345 . S
N265 C268 1.336 . S
C266 N264 1.335 . S
C266 N265 1.345 . S
C266 H271 0.930 . S
C267 N264 1.390 . S
C267 C268 1.346 . S
C267 H272 0.930 . S
C268 N265 1.336 . S
C268 C267 1.346 . S
C268 H275 0.929 . S
C269 O259 1.282 . S
C269 O270 1.216 . S
O270 C269 1.216 . S
H271 C266 0.930 . S
H272 C267 0.930 . S
O273 Cu253 1.959 . S
O273 C260 1.251 . S
H274 C257 0.930 . S
H275 C268 0.929 . S
Zn276 O282 1.969 . S
Zn276 O283 1.965 . S
Zn276 O287 2.024 . S
Zn276 O292 1.969 . S
Zn277 O284 1.969 . S
Zn277 O290 1.969 . S
Zn277 O291 1.965 . S
Zn277 O293 2.024 . S
C278 O279 1.229 . S
C278 O287 1.058 . S
O279 C278 1.229 . S
C280 O281 1.229 . S
C280 O293 1.058 . S
O281 C280 1.229 . S
O282 Zn276 1.969 . S
O282 C285 1.267 . S
O283 Zn276 1.965 . S
O283 C294 1.260 . S
O284 Zn277 1.969 . S
O284 C294 1.258 . S
C285 O282 1.267 . S
C285 O286 1.228 . S
O286 C285 1.228 . S
O287 Zn276 2.024 . S
O287 C278 1.058 . S
C288 O289 1.228 . S
C288 O290 1.267 . S
O289 C288 1.228 . S
O290 Zn277 1.969 . S
O290 C288 1.267 . S
O291 Zn277 1.965 . S
O291 C295 1.260 . S
O292 Zn276 1.969 . S
O292 C295 1.258 . S
O293 Zn277 2.024 . S
O293 C280 1.058 . S
C294 O283 1.260 . S
C294 O284 1.258 . S
C295 O291 1.260 . S
C295 O292 1.258 . S
Zn296 O302 1.969 . S
Zn296 O303 1.965 . S
Zn296 O307 2.024 . S
Zn296 O312 1.969 . S
Zn297 O304 1.969 . S
Zn297 O310 1.969 . S
Zn297 O311 1.965 . S
Zn297 O313 2.024 . S
C298 O299 1.229 . S
C298 O307 1.058 . S
O299 C298 1.229 . S
C300 O301 1.229 . S
C300 O313 1.058 . S
O301 C300 1.229 . S
O302 Zn296 1.969 . S
O302 C305 1.267 . S
O303 Zn296 1.965 . S
O303 C314 1.260 . S
O304 Zn297 1.969 . S
O304 C314 1.258 . S
C305 O302 1.267 . S
C305 O306 1.228 . S
O306 C305 1.228 . S
O307 Zn296 2.024 . S
O307 C298 1.058 . S
C308 O309 1.228 . S
C308 O310 1.267 . S
O309 C308 1.228 . S
O310 Zn297 1.969 . S
O310 C308 1.267 . S
O311 Zn297 1.965 . S
O311 C315 1.260 . S
O312 Zn296 1.969 . S
O312 C315 1.258 . S
O313 Zn297 2.024 . S
O313 C300 1.058 . S
C314 O303 1.260 . S
C314 O304 1.258 . S
C315 O311 1.260 . S
C315 O312 1.258 . S
Zn316 O322 1.969 . S
Zn316 O323 1.965 . S
Zn316 O327 2.024 . S
Zn316 O332 1.969 . S
Zn317 O324 1.969 . S
Zn317 O330 1.969 . S
Zn317 O331 1.965 . S
Zn317 O333 2.024 . S
C318 O319 1.229 . S
C318 O327 1.058 . S
O319 C318 1.229 . S
C320 O321 1.229 . S
C320 O333 1.058 . S
O321 C320 1.229 . S
O322 Zn316 1.969 . S
O322 C325 1.267 . S
O323 Zn316 1.965 . S
O323 C334 1.260 . S
O324 Zn317 1.969 . S
O324 C334 1.258 . S
C325 O322 1.267 . S
C325 O326 1.228 . S
O326 C325 1.228 . S
O327 Zn316 2.024 . S
O327 C318 1.058 . S
C328 O329 1.228 . S
C328 O330 1.267 . S
O329 C328 1.228 . S
O330 Zn317 1.969 . S
O330 C328 1.267 . S
O331 Zn317 1.965 . S
O331 C335 1.260 . S
O332 Zn316 1.969 . S
O332 C335 1.258 . S
O333 Zn317 2.024 . S
O333 C320 1.058 . S
C334 O323 1.260 . S
C334 O324 1.258 . S
C335 O331 1.260 . S
C335 O332 1.258 . S
Zn336 O342 1.969 . S
Zn336 O343 1.965 . S
Zn336 O347 2.024 . S
Zn336 O352 1.969 . S
Zn337 O344 1.969 . S
Zn337 O350 1.969 . S
Zn337 O351 1.965 . S
Zn337 O353 2.024 . S
C338 O339 1.229 . S
C338 O347 1.058 . S
O339 C338 1.229 . S
C340 O341 1.229 . S
C340 O353 1.058 . S
O341 C340 1.229 . S
O342 Zn336 1.969 . S
O342 C345 1.267 . S
O343 Zn336 1.965 . S
O343 C354 1.260 . S
O344 Zn337 1.969 . S
O344 C354 1.258 . S
C345 O342 1.267 . S
C345 O346 1.228 . S
O346 C345 1.228 . S
O347 Zn336 2.024 . S
O347 C338 1.058 . S
C348 O349 1.228 . S
C348 O350 1.267 . S
O349 C348 1.228 . S
O350 Zn337 1.969 . S
O350 C348 1.267 . S
O351 Zn337 1.965 . S
O351 C355 1.260 . S
O352 Zn336 1.969 . S
O352 C355 1.258 . S
O353 Zn337 2.024 . S
O353 C340 1.058 . S
C354 O343 1.260 . S
C354 O344 1.258 . S
C355 O351 1.260 . S
C355 O352 1.258 . S
Zn356 O362 1.969 . S
Zn356 O363 1.965 . S
Zn356 O367 2.024 . S
Zn356 O372 1.969 . S
Zn357 O364 1.969 . S
Zn357 O370 1.969 . S
Zn357 O371 1.965 . S
Zn357 O373 2.024 . S
C358 O359 1.229 . S
C358 O367 1.058 . S
O359 C358 1.229 . S
C360 O361 1.229 . S
C360 O373 1.058 . S
O361 C360 1.229 . S
O362 Zn356 1.969 . S
O362 C365 1.267 . S
O363 Zn356 1.965 . S
O363 C374 1.260 . S
O364 Zn357 1.969 . S
O364 C374 1.258 . S
C365 O362 1.267 . S
C365 O366 1.228 . S
O366 C365 1.228 . S
O367 Zn356 2.024 . S
O367 C358 1.058 . S
C368 O369 1.228 . S
C368 O370 1.267 . S
O369 C368 1.228 . S
O370 Zn357 1.969 . S
O370 C368 1.267 . S
O371 Zn357 1.965 . S
O371 C375 1.260 . S
O372 Zn356 1.969 . S
O372 C375 1.258 . S
O373 Zn357 2.024 . S
O373 C360 1.058 . S
C374 O363 1.260 . S
C374 O364 1.258 . S
C375 O371 1.260 . S
C375 O372 1.258 . S
Zn376 O382 1.969 . S
Zn376 O383 1.965 . S
Zn376 O387 2.024 . S
Zn376 O392 1.969 . S
Zn377 O384 1.969 . S
Zn377 O390 1.969 . S
Zn377 O391 1.965 . S
Zn377 O393 2.024 . S
C378 O379 1.229 . S
C378 O387 1.058 . S
O379 C378 1.229 . S
C380 O381 1.229 . S
C380 O393 1.058 . S
O381 C380 1.229 . S
O382 Zn376 1.969 . S
O382 C385 1.267 . S
O383 Zn376 1.965 . S
O383 C394 1.260 . S
O384 Zn377 1.969 . S
O384 C394 1.258 . S
C385 O382 1.267 . S
C385 O386 1.228 . S
O386 C385 1.228 . S
O387 Zn376 2.024 . S
O387 C378 1.058 . S
C388 O389 1.228 . S
C388 O390 1.267 . S
O389 C388 1.228 . S
O390 Zn377 1.969 . S
O390 C388 1.267 . S
O391 Zn377 1.965 . S
O391 C395 1.260 . S
O392 Zn376 1.969 . S
O392 C395 1.258 . S
O393 Zn377 2.024 . S
O393 C380 1.058 . S
C394 O383 1.260 . S
C394 O384 1.258 . S
C395 O391 1.260 . S
C395 O392 1.258 . S
Zn396 O402 1.969 . S
Zn396 O403 1.965 . S
Zn396 O407 2.024 . S
Zn396 O412 1.969 . S
Zn397 O404 1.969 . S
Zn397 O410 1.969 . S
Zn397 O411 1.965 . S
Zn397 O413 2.024 . S
C398 O399 1.229 . S
C398 O407 1.058 . S
O399 C398 1.229 . S
C400 O401 1.229 . S
C400 O413 1.058 . S
O401 C400 1.229 . S
O402 Zn396 1.969 . S
O402 C405 1.267 . S
O403 Zn396 1.965 . S
O403 C414 1.260 . S
O404 Zn397 1.969 . S
O404 C414 1.258 . S
C405 O402 1.267 . S
C405 O406 1.228 . S
O406 C405 1.228 . S
O407 Zn396 2.024 . S
O407 C398 1.058 . S
C408 O409 1.228 . S
C408 O410 1.267 . S
O409 C408 1.228 . S
O410 Zn397 1.969 . S
O410 C408 1.267 . S
O411 Zn397 1.965 . S
O411 C415 1.260 . S
O412 Zn396 1.969 . S
O412 C415 1.258 . S
O413 Zn397 2.024 . S
O413 C400 1.058 . S
C414 O403 1.260 . S
C414 O404 1.258 . S
C415 O411 1.260 . S
C415 O412 1.258 . S
Zn416 O422 1.969 . S
Zn416 O423 1.965 . S
Zn416 O427 2.024 . S
Zn416 O432 1.969 . S
Zn417 O424 1.969 . S
Zn417 O430 1.969 . S
Zn417 O431 1.965 . S
Zn417 O433 2.024 . S
C418 O419 1.229 . S
C418 O427 1.058 . S
O419 C418 1.229 . S
C420 O421 1.229 . S
C420 O433 1.058 . S
O421 C420 1.229 . S
O422 Zn416 1.969 . S
O422 C425 1.267 . S
O423 Zn416 1.965 . S
O423 C434 1.260 . S
O424 Zn417 1.969 . S
O424 C434 1.258 . S
C425 O422 1.267 . S
C425 O426 1.228 . S
O426 C425 1.228 . S
O427 Zn416 2.024 . S
O427 C418 1.058 . S
C428 O429 1.228 . S
C428 O430 1.267 . S
O429 C428 1.228 . S
O430 Zn417 1.969 . S
O430 C428 1.267 . S
O431 Zn417 1.965 . S
O431 C435 1.260 . S
O432 Zn416 1.969 . S
O432 C435 1.258 . S
O433 Zn417 2.024 . S
O433 C420 1.058 . S
C434 O423 1.260 . S
C434 O424 1.258 . S
C435 O431 1.260 . S
C435 O432 1.258 . S
H436 C454 0.951 . S
H437 C456 0.951 . S
H438 C458 0.950 . S
H439 C459 0.950 . S
H440 C461 0.950 . S
H441 C464 0.950 . S
H442 C465 0.950 . S
H443 C467 0.950 . S
H444 C468 0.950 . S
H445 C469 0.951 . S
H446 C471 0.951 . S
H447 C473 0.950 . S
H448 C474 0.950 . S
H449 C476 0.950 . S
H450 C479 0.950 . S
H451 C480 0.950 . S
H452 C482 0.950 . S
H453 C483 0.950 . S
C454 H436 0.951 . S
C454 C455 1.366 . S
C454 C456 1.388 . S
C455 C454 1.366 . S
C455 C459 1.385 . S
C456 H437 0.951 . S
C456 C454 1.388 . S
C456 C457 1.366 . S
C457 C456 1.366 . S
C457 C458 1.414 . S
C457 C460 1.499 . S
C458 H438 0.950 . S
C458 C457 1.414 . S
C458 C459 1.374 . S
C459 H439 0.950 . S
C459 C455 1.385 . S
C459 C458 1.374 . S
C460 C457 1.499 . S
C460 C461 1.373 . S
C460 C462 1.389 . S
C461 H440 0.950 . S
C461 C460 1.373 . S
C461 C477 1.377 . S
C462 C460 1.389 . S
C462 C463 1.524 . S
C462 C476 1.377 . S
C463 C462 1.524 . S
C463 C464 1.397 . S
C463 C468 1.363 . S
C464 H441 0.950 . S
C464 C463 1.397 . S
C464 C465 1.334 . S
C465 H442 0.950 . S
C465 C464 1.334 . S
C465 C466 1.287 . S
C466 C465 1.287 . S
C466 C467 1.524 . S
C466 H485 0.913 . S
C467 H443 0.950 . S
C467 C466 1.524 . S
C467 C468 1.415 . S
C468 H444 0.950 . S
C468 C463 1.363 . S
C468 C467 1.415 . S
C469 H445 0.951 . S
C469 C470 1.366 . S
C469 C471 1.388 . S
C470 C469 1.366 . S
C470 C474 1.385 . S
C471 H446 0.951 . S
C471 C469 1.388 . S
C471 C472 1.366 . S
C472 C471 1.366 . S
C472 C473 1.414 . S
C472 C475 1.499 . S
C473 H447 0.950 . S
C473 C472 1.414 . S
C473 C474 1.374 . S
C474 H448 0.950 . S
C474 C470 1.385 . S
C474 C473 1.374 . S
C475 C472 1.499 . S
C475 C476 1.373 . S
C475 C477 1.389 . S
C476 H449 0.950 . S
C476 C462 1.377 . S
C476 C475 1.373 . S
C477 C461 1.377 . S
C477 C475 1.389 . S
C477 C478 1.524 . S
C478 C477 1.524 . S
C478 C479 1.397 . S
C478 C483 1.363 . S
C479 H450 0.950 . S
C479 C478 1.397 . S
C479 C480 1.334 . S
C480 H451 0.950 . S
C480 C479 1.334 . S
C480 C481 1.287 . S
C481 C480 1.287 . S
C481 C482 1.524 . S
C481 H484 0.999 . S
C482 H452 0.950 . S
C482 C481 1.524 . S
C482 C483 1.415 . S
C483 H453 0.950 . S
C483 C478 1.363 . S
C483 C482 1.415 . S
H484 C481 0.999 . S
H485 C466 0.913 . S
H486 C504 0.951 . S
H487 C506 0.951 . S
H488 C508 0.950 . S
H489 C509 0.950 . S
H490 C511 0.950 . S
H491 C514 0.950 . S
H492 C515 0.950 . S
H493 C517 0.950 . S
H494 C518 0.950 . S
H495 C519 0.951 . S
H496 C521 0.951 . S
H497 C523 0.950 . S
H498 C524 0.950 . S
H499 C526 0.950 . S
H500 C529 0.950 . S
H501 C530 0.950 . S
H502 C532 0.950 . S
H503 C533 0.950 . S
C504 H486 0.951 . S
C504 C505 1.366 . S
C504 C506 1.388 . S
C505 C504 1.366 . S
C505 C509 1.385 . S
C506 H487 0.951 . S
C506 C504 1.388 . S
C506 C507 1.366 . S
C507 C506 1.366 . S
C507 C508 1.414 . S
C507 C510 1.499 . S
C508 H488 0.950 . S
C508 C507 1.414 . S
C508 C509 1.374 . S
C509 H489 0.950 . S
C509 C505 1.385 . S
C509 C508 1.374 . S
C510 C507 1.499 . S
C510 C511 1.373 . S
C510 C512 1.389 . S
C511 H490 0.950 . S
C511 C510 1.373 . S
C511 C527 1.377 . S
C512 C510 1.389 . S
C512 C513 1.524 . S
C512 C526 1.377 . S
C513 C512 1.524 . S
C513 C514 1.397 . S
C513 C518 1.363 . S
C514 H491 0.950 . S
C514 C513 1.397 . S
C514 C515 1.334 . S
C515 H492 0.950 . S
C515 C514 1.334 . S
C515 C516 1.287 . S
C516 C515 1.287 . S
C516 C517 1.524 . S
C516 H535 0.913 . S
C517 H493 0.950 . S
C517 C516 1.524 . S
C517 C518 1.415 . S
C518 H494 0.950 . S
C518 C513 1.363 . S
C518 C517 1.415 . S
C519 H495 0.951 . S
C519 C520 1.366 . S
C519 C521 1.388 . S
C520 C519 1.366 . S
C520 C524 1.385 . S
C521 H496 0.951 . S
C521 C519 1.388 . S
C521 C522 1.366 . S
C522 C521 1.366 . S
C522 C523 1.414 . S
C522 C525 1.499 . S
C523 H497 0.950 . S
C523 C522 1.414 . S
C523 C524 1.374 . S
C524 H498 0.950 . S
C524 C520 1.385 . S
C524 C523 1.374 . S
C525 C522 1.499 . S
C525 C526 1.373 . S
C525 C527 1.389 . S
C526 H499 0.950 . S
C526 C512 1.377 . S
C526 C525 1.373 . S
C527 C511 1.377 . S
C527 C525 1.389 . S
C527 C528 1.524 . S
C528 C527 1.524 . S
C528 C529 1.397 . S
C528 C533 1.363 . S
C529 H500 0.950 . S
C529 C528 1.397 . S
C529 C530 1.334 . S
C530 H501 0.950 . S
C530 C529 1.334 . S
C530 C531 1.287 . S
C531 C530 1.287 . S
C531 C532 1.524 . S
C531 H534 0.999 . S
C532 H502 0.950 . S
C532 C531 1.524 . S
C532 C533 1.415 . S
C533 H503 0.950 . S
C533 C528 1.363 . S
C533 C532 1.415 . S
H534 C531 0.999 . S
H535 C516 0.913 . S
H536 C554 0.951 . S
H537 C556 0.951 . S
H538 C558 0.950 . S
H539 C559 0.950 . S
H540 C561 0.950 . S
H541 C564 0.950 . S
H542 C565 0.950 . S
H543 C567 0.950 . S
H544 C568 0.950 . S
H545 C569 0.951 . S
H546 C571 0.951 . S
H547 C573 0.950 . S
H548 C574 0.950 . S
H549 C576 0.950 . S
H550 C579 0.950 . S
H551 C580 0.950 . S
H552 C582 0.950 . S
H553 C583 0.950 . S
C554 H536 0.951 . S
C554 C555 1.366 . S
C554 C556 1.388 . S
C555 C554 1.366 . S
C555 C559 1.385 . S
C556 H537 0.951 . S
C556 C554 1.388 . S
C556 C557 1.366 . S
C557 C556 1.366 . S
C557 C558 1.414 . S
C557 C560 1.499 . S
C558 H538 0.950 . S
C558 C557 1.414 . S
C558 C559 1.374 . S
C559 H539 0.950 . S
C559 C555 1.385 . S
C559 C558 1.374 . S
C560 C557 1.499 . S
C560 C561 1.373 . S
C560 C562 1.389 . S
C561 H540 0.950 . S
C561 C560 1.373 . S
C561 C577 1.377 . S
C562 C560 1.389 . S
C562 C563 1.524 . S
C562 C576 1.377 . S
C563 C562 1.524 . S
C563 C564 1.397 . S
C563 C568 1.363 . S
C564 H541 0.950 . S
C564 C563 1.397 . S
C564 C565 1.334 . S
C565 H542 0.950 . S
C565 C564 1.334 . S
C565 C566 1.287 . S
C566 C565 1.287 . S
C566 C567 1.524 . S
C566 H585 0.913 . S
C567 H543 0.950 . S
C567 C566 1.524 . S
C567 C568 1.415 . S
C568 H544 0.950 . S
C568 C563 1.363 . S
C568 C567 1.415 . S
C569 H545 0.951 . S
C569 C570 1.366 . S
C569 C571 1.388 . S
C570 C569 1.366 . S
C570 C574 1.385 . S
C571 H546 0.951 . S
C571 C569 1.388 . S
C571 C572 1.366 . S
C572 C571 1.366 . S
C572 C573 1.414 . S
C572 C575 1.499 . S
C573 H547 0.950 . S
C573 C572 1.414 . S
C573 C574 1.374 . S
C574 H548 0.950 . S
C574 C570 1.385 . S
C574 C573 1.374 . S
C575 C572 1.499 . S
C575 C576 1.373 . S
C575 C577 1.389 . S
C576 H549 0.950 . S
C576 C562 1.377 . S
C576 C575 1.373 . S
C577 C561 1.377 . S
C577 C575 1.389 . S
C577 C578 1.524 . S
C578 C577 1.524 . S
C578 C579 1.397 . S
C578 C583 1.363 . S
C579 H550 0.950 . S
C579 C578 1.397 . S
C579 C580 1.334 . S
C580 H551 0.950 . S
C580 C579 1.334 . S
C580 C581 1.287 . S
C581 C580 1.287 . S
C581 C582 1.524 . S
C581 H584 0.999 . S
C582 H552 0.950 . S
C582 C581 1.524 . S
C582 C583 1.415 . S
C583 H553 0.950 . S
C583 C578 1.363 . S
C583 C582 1.415 . S
H584 C581 0.999 . S
H585 C566 0.913 . S
H586 C604 0.951 . S
H587 C606 0.951 . S
H588 C608 0.950 . S
H589 C609 0.950 . S
H590 C611 0.950 . S
H591 C614 0.950 . S
H592 C615 0.950 . S
H593 C617 0.950 . S
H594 C618 0.950 . S
H595 C619 0.951 . S
H596 C621 0.951 . S
H597 C623 0.950 . S
H598 C624 0.950 . S
H599 C626 0.950 . S
H600 C629 0.950 . S
H601 C630 0.950 . S
H602 C632 0.950 . S
H603 C633 0.950 . S
C604 H586 0.951 . S
C604 C605 1.366 . S
C604 C606 1.388 . S
C605 C604 1.366 . S
C605 C609 1.385 . S
C606 H587 0.951 . S
C606 C604 1.388 . S
C606 C607 1.366 . S
C607 C606 1.366 . S
C607 C608 1.414 . S
C607 C610 1.499 . S
C608 H588 0.950 . S
C608 C607 1.414 . S
C608 C609 1.374 . S
C609 H589 0.950 . S
C609 C605 1.385 . S
C609 C608 1.374 . S
C610 C607 1.499 . S
C610 C611 1.373 . S
C610 C612 1.389 . S
C611 H590 0.950 . S
C611 C610 1.373 . S
C611 C627 1.377 . S
C612 C610 1.389 . S
C612 C613 1.524 . S
C612 C626 1.377 . S
C613 C612 1.524 . S
C613 C614 1.397 . S
C613 C618 1.363 . S
C614 H591 0.950 . S
C614 C613 1.397 . S
C614 C615 1.334 . S
C615 H592 0.950 . S
C615 C614 1.334 . S
C615 C616 1.287 . S
C616 C615 1.287 . S
C616 C617 1.524 . S
C616 H635 0.913 . S
C617 H593 0.950 . S
C617 C616 1.524 . S
C617 C618 1.415 . S
C618 H594 0.950 . S
C618 C613 1.363 . S
C618 C617 1.415 . S
C619 H595 0.951 . S
C619 C620 1.366 . S
C619 C621 1.388 . S
C620 C619 1.366 . S
C620 C624 1.385 . S
C621 H596 0.951 . S
C621 C619 1.388 . S
C621 C622 1.366 . S
C622 C621 1.366 . S
C622 C623 1.414 . S
C622 C625 1.499 . S
C623 H597 0.950 . S
C623 C622 1.414 . S
C623 C624 1.374 . S
C624 H598 0.950 . S
C624 C620 1.385 . S
C624 C623 1.374 . S
C625 C622 1.499 . S
C625 C626 1.373 . S
C625 C627 1.389 . S
C626 H599 0.950 . S
C626 C612 1.377 . S
C626 C625 1.373 . S
C627 C611 1.377 . S
C627 C625 1.389 . S
C627 C628 1.524 . S
C628 C627 1.524 . S
C628 C629 1.397 . S
C628 C633 1.363 . S
C629 H600 0.950 . S
C629 C628 1.397 . S
C629 C630 1.334 . S
C630 H601 0.950 . S
C630 C629 1.334 . S
C630 C631 1.287 . S
C631 C630 1.287 . S
C631 C632 1.524 . S
C631 H634 0.999 . S
C632 H602 0.950 . S
C632 C631 1.524 . S
C632 C633 1.415 . S
C633 H603 0.950 . S
C633 C628 1.363 . S
C633 C632 1.415 . S
H634 C631 0.999 . S
H635 C616 0.913 . S
H636 C654 0.951 . S
H637 C656 0.951 . S
H638 C658 0.950 . S
H639 C659 0.950 . S
H640 C661 0.950 . S
H641 C664 0.950 . S
H642 C665 0.950 . S
H643 C667 0.950 . S
H644 C668 0.950 . S
H645 C669 0.951 . S
H646 C671 0.951 . S
H647 C673 0.950 . S
H648 C674 0.950 . S
H649 C676 0.950 . S
H650 C679 0.950 . S
H651 C680 0.950 . S
H652 C682 0.950 . S
H653 C683 0.950 . S
C654 H636 0.951 . S
C654 C655 1.366 . S
C654 C656 1.388 . S
C655 C654 1.366 . S
C655 C659 1.385 . S
C656 H637 0.951 . S
C656 C654 1.388 . S
C656 C657 1.366 . S
C657 C656 1.366 . S
C657 C658 1.414 . S
C657 C660 1.499 . S
C658 H638 0.950 . S
C658 C657 1.414 . S
C658 C659 1.374 . S
C659 H639 0.950 . S
C659 C655 1.385 . S
C659 C658 1.374 . S
C660 C657 1.499 . S
C660 C661 1.373 . S
C660 C662 1.389 . S
C661 H640 0.950 . S
C661 C660 1.373 . S
C661 C677 1.377 . S
C662 C660 1.389 . S
C662 C663 1.524 . S
C662 C676 1.377 . S
C663 C662 1.524 . S
C663 C664 1.397 . S
C663 C668 1.363 . S
C664 H641 0.950 . S
C664 C663 1.397 . S
C664 C665 1.334 . S
C665 H642 0.950 . S
C665 C664 1.334 . S
C665 C666 1.287 . S
C666 C665 1.287 . S
C666 C667 1.524 . S
C666 H685 0.913 . S
C667 H643 0.950 . S
C667 C666 1.524 . S
C667 C668 1.415 . S
C668 H644 0.950 . S
C668 C663 1.363 . S
C668 C667 1.415 . S
C669 H645 0.951 . S
C669 C670 1.366 . S
C669 C671 1.388 . S
C670 C669 1.366 . S
C670 C674 1.385 . S
C671 H646 0.951 . S
C671 C669 1.388 . S
C671 C672 1.366 . S
C672 C671 1.366 . S
C672 C673 1.414 . S
C672 C675 1.499 . S
C673 H647 0.950 . S
C673 C672 1.414 . S
C673 C674 1.374 . S
C674 H648 0.950 . S
C674 C670 1.385 . S
C674 C673 1.374 . S
C675 C672 1.499 . S
C675 C676 1.373 . S
C675 C677 1.389 . S
C676 H649 0.950 . S
C676 C662 1.377 . S
C676 C675 1.373 . S
C677 C661 1.377 . S
C677 C675 1.389 . S
C677 C678 1.524 . S
C678 C677 1.524 . S
C678 C679 1.397 . S
C678 C683 1.363 . S
C679 H650 0.950 . S
C679 C678 1.397 . S
C679 C680 1.334 . S
C680 H651 0.950 . S
C680 C679 1.334 . S
C680 C681 1.287 . S
C681 C680 1.287 . S
C681 C682 1.524 . S
C681 H684 0.999 . S
C682 H652 0.950 . S
C682 C681 1.524 . S
C682 C683 1.415 . S
C683 H653 0.950 . S
C683 C678 1.363 . S
C683 C682 1.415 . S
H684 C681 0.999 . S
H685 C666 0.913 . S
H686 C704 0.951 . S
H687 C706 0.951 . S
H688 C708 0.950 . S
H689 C709 0.950 . S
H690 C711 0.950 . S
H691 C714 0.950 . S
H692 C715 0.950 . S
H693 C717 0.950 . S
H694 C718 0.950 . S
H695 C719 0.951 . S
H696 C721 0.951 . S
H697 C723 0.950 . S
H698 C724 0.950 . S
H699 C726 0.950 . S
H700 C729 0.950 . S
H701 C730 0.950 . S
H702 C732 0.950 . S
H703 C733 0.950 . S
C704 H686 0.951 . S
C704 C705 1.366 . S
C704 C706 1.388 . S
C705 C704 1.366 . S
C705 C709 1.385 . S
C706 H687 0.951 . S
C706 C704 1.388 . S
C706 C707 1.366 . S
C707 C706 1.366 . S
C707 C708 1.414 . S
C707 C710 1.499 . S
C708 H688 0.950 . S
C708 C707 1.414 . S
C708 C709 1.374 . S
C709 H689 0.950 . S
C709 C705 1.385 . S
C709 C708 1.374 . S
C710 C707 1.499 . S
C710 C711 1.373 . S
C710 C712 1.389 . S
C711 H690 0.950 . S
C711 C710 1.373 . S
C711 C727 1.377 . S
C712 C710 1.389 . S
C712 C713 1.524 . S
C712 C726 1.377 . S
C713 C712 1.524 . S
C713 C714 1.397 . S
C713 C718 1.363 . S
C714 H691 0.950 . S
C714 C713 1.397 . S
C714 C715 1.334 . S
C715 H692 0.950 . S
C715 C714 1.334 . S
C715 C716 1.287 . S
C716 C715 1.287 . S
C716 C717 1.524 . S
C716 H735 0.913 . S
C717 H693 0.950 . S
C717 C716 1.524 . S
C717 C718 1.415 . S
C718 H694 0.950 . S
C718 C713 1.363 . S
C718 C717 1.415 . S
C719 H695 0.951 . S
C719 C720 1.366 . S
C719 C721 1.388 . S
C720 C719 1.366 . S
C720 C724 1.385 . S
C721 H696 0.951 . S
C721 C719 1.388 . S
C721 C722 1.366 . S
C722 C721 1.366 . S
C722 C723 1.414 . S
C722 C725 1.499 . S
C723 H697 0.950 . S
C723 C722 1.414 . S
C723 C724 1.374 . S
C724 H698 0.950 . S
C724 C720 1.385 . S
C724 C723 1.374 . S
C725 C722 1.499 . S
C725 C726 1.373 . S
C725 C727 1.389 . S
C726 H699 0.950 . S
C726 C712 1.377 . S
C726 C725 1.373 . S
C727 C711 1.377 . S
C727 C725 1.389 . S
C727 C728 1.524 . S
C728 C727 1.524 . S
C728 C729 1.397 . S
C728 C733 1.363 . S
C729 H700 0.950 . S
C729 C728 1.397 . S
C729 C730 1.334 . S
C730 H701 0.950 . S
C730 C729 1.334 . S
C730 C731 1.287 . S
C731 C730 1.287 . S
C731 C732 1.524 . S
C731 H734 0.999 . S
C732 H702 0.950 . S
C732 C731 1.524 . S
C732 C733 1.415 . S
C733 H703 0.950 . S
C733 C728 1.363 . S
C733 C732 1.415 . S
H734 C731 0.999 . S
H735 C716 0.913 . S
H736 C754 0.951 . S
H737 C756 0.951 . S
H738 C758 0.950 . S
H739 C759 0.950 . S
H740 C761 0.950 . S
H741 C764 0.950 . S
H742 C765 0.950 . S
H743 C767 0.950 . S
H744 C768 0.950 . S
H745 C769 0.951 . S
H746 C771 0.951 . S
H747 C773 0.950 . S
H748 C774 0.950 . S
H749 C776 0.950 . S
H750 C779 0.950 . S
H751 C780 0.950 . S
H752 C782 0.950 . S
H753 C783 0.950 . S
C754 H736 0.951 . S
C754 C755 1.366 . S
C754 C756 1.388 . S
C755 C754 1.366 . S
C755 C759 1.385 . S
C756 H737 0.951 . S
C756 C754 1.388 . S
C756 C757 1.366 . S
C757 C756 1.366 . S
C757 C758 1.414 . S
C757 C760 1.499 . S
C758 H738 0.950 . S
C758 C757 1.414 . S
C758 C759 1.374 . S
C759 H739 0.950 . S
C759 C755 1.385 . S
C759 C758 1.374 . S
C760 C757 1.499 . S
C760 C761 1.373 . S
C760 C762 1.389 . S
C761 H740 0.950 . S
C761 C760 1.373 . S
C761 C777 1.377 . S
C762 C760 1.389 . S
C762 C763 1.524 . S
C762 C776 1.377 . S
C763 C762 1.524 . S
C763 C764 1.397 . S
C763 C768 1.363 . S
C764 H741 0.950 . S
C764 C763 1.397 . S
C764 C765 1.334 . S
C765 H742 0.950 . S
C765 C764 1.334 . S
C765 C766 1.287 . S
C766 C765 1.287 . S
C766 C767 1.524 . S
C766 H785 0.913 . S
C767 H743 0.950 . S
C767 C766 1.524 . S
C767 C768 1.415 . S
C768 H744 0.950 . S
C768 C763 1.363 . S
C768 C767 1.415 . S
C769 H745 0.951 . S
C769 C770 1.366 . S
C769 C771 1.388 . S
C770 C769 1.366 . S
C770 C774 1.385 . S
C771 H746 0.951 . S
C771 C769 1.388 . S
C771 C772 1.366 . S
C772 C771 1.366 . S
C772 C773 1.414 . S
C772 C775 1.499 . S
C773 H747 0.950 . S
C773 C772 1.414 . S
C773 C774 1.374 . S
C774 H748 0.950 . S
C774 C770 1.385 . S
C774 C773 1.374 . S
C775 C772 1.499 . S
C775 C776 1.373 . S
C775 C777 1.389 . S
C776 H749 0.950 . S
C776 C762 1.377 . S
C776 C775 1.373 . S
C777 C761 1.377 . S
C777 C775 1.389 . S
C777 C778 1.524 . S
C778 C777 1.524 . S
C778 C779 1.397 . S
C778 C783 1.363 . S
C779 H750 0.950 . S
C779 C778 1.397 . S
C779 C780 1.334 . S
C780 H751 0.950 . S
C780 C779 1.334 . S
C780 C781 1.287 . S
C781 C780 1.287 . S
C781 C782 1.524 . S
C781 H784 0.999 . S
C782 H752 0.950 . S
C782 C781 1.524 . S
C782 C783 1.415 . S
C783 H753 0.950 . S
C783 C778 1.363 . S
C783 C782 1.415 . S
H784 C781 0.999 . S
H785 C766 0.913 . S
H786 C804 0.951 . S
H787 C806 0.951 . S
H788 C808 0.950 . S
H789 C809 0.950 . S
H790 C811 0.950 . S
H791 C814 0.950 . S
H792 C815 0.950 . S
H793 C817 0.950 . S
H794 C818 0.950 . S
H795 C819 0.951 . S
H796 C821 0.951 . S
H797 C823 0.950 . S
H798 C824 0.950 . S
H799 C826 0.950 . S
H800 C829 0.950 . S
H801 C830 0.950 . S
H802 C832 0.950 . S
H803 C833 0.950 . S
C804 H786 0.951 . S
C804 C805 1.366 . S
C804 C806 1.388 . S
C805 C804 1.366 . S
C805 C809 1.385 . S
C806 H787 0.951 . S
C806 C804 1.388 . S
C806 C807 1.366 . S
C807 C806 1.366 . S
C807 C808 1.414 . S
C807 C810 1.499 . S
C808 H788 0.950 . S
C808 C807 1.414 . S
C808 C809 1.374 . S
C809 H789 0.950 . S
C809 C805 1.385 . S
C809 C808 1.374 . S
C810 C807 1.499 . S
C810 C811 1.373 . S
C810 C812 1.389 . S
C811 H790 0.950 . S
C811 C810 1.373 . S
C811 C827 1.377 . S
C812 C810 1.389 . S
C812 C813 1.524 . S
C812 C826 1.377 . S
C813 C812 1.524 . S
C813 C814 1.397 . S
C813 C818 1.363 . S
C814 H791 0.950 . S
C814 C813 1.397 . S
C814 C815 1.334 . S
C815 H792 0.950 . S
C815 C814 1.334 . S
C815 C816 1.287 . S
C816 C815 1.287 . S
C816 C817 1.524 . S
C816 H835 0.913 . S
C817 H793 0.950 . S
C817 C816 1.524 . S
C817 C818 1.415 . S
C818 H794 0.950 . S
C818 C813 1.363 . S
C818 C817 1.415 . S
C819 H795 0.951 . S
C819 C820 1.366 . S
C819 C821 1.388 . S
C820 C819 1.366 . S
C820 C824 1.385 . S
C821 H796 0.951 . S
C821 C819 1.388 . S
C821 C822 1.366 . S
C822 C821 1.366 . S
C822 C823 1.414 . S
C822 C825 1.499 . S
C823 H797 0.950 . S
C823 C822 1.414 . S
C823 C824 1.374 . S
C824 H798 0.950 . S
C824 C820 1.385 . S
C824 C823 1.374 . S
C825 C822 1.499 . S
C825 C826 1.373 . S
C825 C827 1.389 . S
C826 H799 0.950 . S
C826 C812 1.377 . S
C826 C825 1.373 . S
C827 C811 1.377 . S
C827 C825 1.389 . S
C827 C828 1.524 . S
C828 C827 1.524 . S
C828 C829 1.397 . S
C828 C833 1.363 . S
C829 H800 0.950 . S
C829 C828 1.397 . S
C829 C830 1.334 . S
C830 H801 0.950 . S
C830 C829 1.334 . S
C830 C831 1.287 . S
C831 C830 1.287 . S
C831 C832 1.524 . S
C831 H834 0.999 . S
C832 H802 0.950 . S
C832 C831 1.524 . S
C832 C833 1.415 . S
C833 H803 0.950 . S
C833 C828 1.363 . S
C833 C832 1.415 . S
H834 C831 0.999 . S
H835 C816 0.913 . S
H836 C854 0.951 . S
H837 C856 0.951 . S
H838 C858 0.950 . S
H839 C859 0.950 . S
H840 C861 0.950 . S
H841 C864 0.950 . S
H842 C865 0.950 . S
H843 C867 0.950 . S
H844 C868 0.950 . S
H845 C869 0.951 . S
H846 C871 0.951 . S
H847 C873 0.950 . S
H848 C874 0.950 . S
H849 C876 0.950 . S
H850 C879 0.950 . S
H851 C880 0.950 . S
H852 C882 0.950 . S
H853 C883 0.950 . S
C854 H836 0.951 . S
C854 C855 1.366 . S
C854 C856 1.388 . S
C855 C854 1.366 . S
C855 C859 1.385 . S
C856 H837 0.951 . S
C856 C854 1.388 . S
C856 C857 1.366 . S
C857 C856 1.366 . S
C857 C858 1.414 . S
C857 C860 1.499 . S
C858 H838 0.950 . S
C858 C857 1.414 . S
C858 C859 1.374 . S
C859 H839 0.950 . S
C859 C855 1.385 . S
C859 C858 1.374 . S
C860 C857 1.499 . S
C860 C861 1.373 . S
C860 C862 1.389 . S
C861 H840 0.950 . S
C861 C860 1.373 . S
C861 C877 1.377 . S
C862 C860 1.389 . S
C862 C863 1.524 . S
C862 C876 1.377 . S
C863 C862 1.524 . S
C863 C864 1.397 . S
C863 C868 1.363 . S
C864 H841 0.950 . S
C864 C863 1.397 . S
C864 C865 1.334 . S
C865 H842 0.950 . S
C865 C864 1.334 . S
C865 C866 1.287 . S
C866 C865 1.287 . S
C866 C867 1.524 . S
C866 H885 0.913 . S
C867 H843 0.950 . S
C867 C866 1.524 . S
C867 C868 1.415 . S
C868 H844 0.950 . S
C868 C863 1.363 . S
C868 C867 1.415 . S
C869 H845 0.951 . S
C869 C870 1.366 . S
C869 C871 1.388 . S
C870 C869 1.366 . S
C870 C874 1.385 . S
C871 H846 0.951 . S
C871 C869 1.388 . S
C871 C872 1.366 . S
C872 C871 1.366 . S
C872 C873 1.414 . S
C872 C875 1.499 . S
C873 H847 0.950 . S
C873 C872 1.414 . S
C873 C874 1.374 . S
C874 H848 0.950 . S
C874 C870 1.385 . S
C874 C873 1.374 . S
C875 C872 1.499 . S
C875 C876 1.373 . S
C875 C877 1.389 . S
C876 H849 0.950 . S
C876 C862 1.377 . S
C876 C875 1.373 . S
C877 C861 1.377 . S
C877 C875 1.389 . S
C877 C878 1.524 . S
C878 C877 1.524 . S
C878 C879 1.397 . S
C878 C883 1.363 . S
C879 H850 0.950 . S
C879 C878 1.397 . S
C879 C880 1.334 . S
C880 H851 0.950 . S
C880 C879 1.334 . S
C880 C881 1.287 . S
C881 C880 1.287 . S
C881 C882 1.524 . S
C881 H884 0.999 . S
C882 H852 0.950 . S
C882 C881 1.524 . S
C882 C883 1.415 . S
C883 H853 0.950 . S
C883 C878 1.363 . S
C883 C882 1.415 . S
H884 C881 0.999 . S
H885 C866 0.913 . S
H886 C904 0.951 . S
H887 C906 0.951 . S
H888 C908 0.950 . S
H889 C909 0.950 . S
H890 C911 0.950 . S
H891 C914 0.950 . S
H892 C915 0.950 . S
H893 C917 0.950 . S
H894 C918 0.950 . S
H895 C919 0.951 . S
H896 C921 0.951 . S
H897 C923 0.950 . S
H898 C924 0.950 . S
H899 C926 0.950 . S
H900 C929 0.950 . S
H901 C930 0.950 . S
H902 C932 0.950 . S
H903 C933 0.950 . S
C904 H886 0.951 . S
C904 C905 1.366 . S
C904 C906 1.388 . S
C905 C904 1.366 . S
C905 C909 1.385 . S
C906 H887 0.951 . S
C906 C904 1.388 . S
C906 C907 1.366 . S
C907 C906 1.366 . S
C907 C908 1.414 . S
C907 C910 1.499 . S
C908 H888 0.950 . S
C908 C907 1.414 . S
C908 C909 1.374 . S
C909 H889 0.950 . S
C909 C905 1.385 . S
C909 C908 1.374 . S
C910 C907 1.499 . S
C910 C911 1.373 . S
C910 C912 1.389 . S
C911 H890 0.950 . S
C911 C910 1.373 . S
C911 C927 1.377 . S
C912 C910 1.389 . S
C912 C913 1.524 . S
C912 C926 1.377 . S
C913 C912 1.524 . S
C913 C914 1.397 . S
C913 C918 1.363 . S
C914 H891 0.950 . S
C914 C913 1.397 . S
C914 C915 1.334 . S
C915 H892 0.950 . S
C915 C914 1.334 . S
C915 C916 1.287 . S
C916 C915 1.287 . S
C916 C917 1.524 . S
C916 H935 0.913 . S
C917 H893 0.950 . S
C917 C916 1.524 . S
C917 C918 1.415 . S
C918 H894 0.950 . S
C918 C913 1.363 . S
C918 C917 1.415 . S
C919 H895 0.951 . S
C919 C920 1.366 . S
C919 C921 1.388 . S
C920 C919 1.366 . S
C920 C924 1.385 . S
C921 H896 0.951 . S
C921 C919 1.388 . S
C921 C922 1.366 . S
C922 C921 1.366 . S
C922 C923 1.414 . S
C922 C925 1.499 . S
C923 H897 0.950 . S
C923 C922 1.414 . S
C923 C924 1.374 . S
C924 H898 0.950 . S
C924 C920 1.385 . S
C924 C923 1.374 . S
C925 C922 1.499 . S
C925 C926 1.373 . S
C925 C927 1.389 . S
C926 H899 0.950 . S
C926 C912 1.377 . S
C926 C925 1.373 . S
C927 C911 1.377 . S
C927 C925 1.389 . S
C927 C928 1.524 . S
C928 C927 1.524 . S
C928 C929 1.397 . S
C928 C933 1.363 . S
C929 H900 0.950 . S
C929 C928 1.397 . S
C929 C930 1.334 . S
C930 H901 0.950 . S
C930 C929 1.334 . S
C930 C931 1.287 . S
C931 C930 1.287 . S
C931 C932 1.524 . S
C931 H934 0.999 . S
C932 H902 0.950 . S
C932 C931 1.524 . S
C932 C933 1.415 . S
C933 H903 0.950 . S
C933 C928 1.363 . S
C933 C932 1.415 . S
H934 C931 0.999 . S
H935 C916 0.913 . S
H936 C954 0.951 . S
H937 C956 0.951 . S
H938 C958 0.950 . S
H939 C959 0.950 . S
H940 C961 0.950 . S
H941 C964 0.950 . S
H942 C965 0.950 . S
H943 C967 0.950 . S
H944 C968 0.950 . S
H945 C969 0.951 . S
H946 C971 0.951 . S
H947 C973 0.950 . S
H948 C974 0.950 . S
H949 C976 0.950 . S
H950 C979 0.950 . S
H951 C980 0.950 . S
H952 C982 0.950 . S
H953 C983 0.950 . S
C954 H936 0.951 . S
C954 C955 1.366 . S
C954 C956 1.388 . S
C955 C954 1.366 . S
C955 C959 1.385 . S
C956 H937 0.951 . S
C956 C954 1.388 . S
C956 C957 1.366 . S
C957 C956 1.366 . S
C957 C958 1.414 . S
C957 C960 1.499 . S
C958 H938 0.950 . S
C958 C957 1.414 . S
C958 C959 1.374 . S
C959 H939 0.950 . S
C959 C955 1.385 . S
C959 C958 1.374 . S
C960 C957 1.499 . S
C960 C961 1.373 . S
C960 C962 1.389 . S
C961 H940 0.950 . S
C961 C960 1.373 . S
C961 C977 1.377 . S
C962 C960 1.389 . S
C962 C963 1.524 . S
C962 C976 1.377 . S
C963 C962 1.524 . S
C963 C964 1.397 . S
C963 C968 1.363 . S
C964 H941 0.950 . S
C964 C963 1.397 . S
C964 C965 1.334 . S
C965 H942 0.950 . S
C965 C964 1.334 . S
C965 C966 1.287 . S
C966 C965 1.287 . S
C966 C967 1.524 . S
C966 H985 0.913 . S
C967 H943 0.950 . S
C967 C966 1.524 . S
C967 C968 1.415 . S
C968 H944 0.950 . S
C968 C963 1.363 . S
C968 C967 1.415 . S
C969 H945 0.951 . S
C969 C970 1.366 . S
C969 C971 1.388 . S
C970 C969 1.366 . S
C970 C974 1.385 . S
C971 H946 0.951 . S
C971 C969 1.388 . S
C971 C972 1.366 . S
C972 C971 1.366 . S
C972 C973 1.414 . S
C972 C975 1.499 . S
C973 H947 0.950 . S
C973 C972 1.414 . S
C973 C974 1.374 . S
C974 H948 0.950 . S
C974 C970 1.385 . S
C974 C973 1.374 . S
C975 C972 1.499 . S
C975 C976 1.373 . S
C975 C977 1.389 . S
C976 H949 0.950 . S
C976 C962 1.377 . S
C976 C975 1.373 . S
C977 C961 1.377 . S
C977 C975 1.389 . S
C977 C978 1.524 . S
C978 C977 1.524 . S
C978 C979 1.397 . S
C978 C983 1.363 . S
C979 H950 0.950 . S
C979 C978 1.397 . S
C979 C980 1.334 . S
C980 H951 0.950 . S
C980 C979 1.334 . S
C980 C981 1.287 . S
C981 C980 1.287 . S
C981 C982 1.524 . S
C981 H984 0.999 . S
C982 H952 0.950 . S
C982 C981 1.524 . S
C982 C983 1.415 . S
C983 H953 0.950 . S
C983 C978 1.363 . S
C983 C982 1.415 . S
H984 C981 0.999 . S
H985 C966 0.913 . S
H986 C1004 0.951 . S
H987 C1006 0.951 . S
H988 C1008 0.950 . S
H989 C1009 0.950 . S
H990 C1011 0.950 . S
H991 C1014 0.950 . S
H992 C1015 0.950 . S
H993 C1017 0.950 . S
H994 C1018 0.950 . S
H995 C1019 0.951 . S
H996 C1021 0.951 . S
H997 C1023 0.950 . S
H998 C1024 0.950 . S
H999 C1026 0.950 . S
H1000 C1029 0.950 . S
H1001 C1030 0.950 . S
H1002 C1032 0.950 . S
H1003 C1033 0.950 . S
C1004 H986 0.951 . S
C1004 C1005 1.366 . S
C1004 C1006 1.388 . S
C1005 C1004 1.366 . S
C1005 C1009 1.385 . S
C1006 H987 0.951 . S
C1006 C1004 1.388 . S
C1006 C1007 1.366 . S
C1007 C1006 1.366 . S
C1007 C1008 1.414 . S
C1007 C1010 1.499 . S
C1008 H988 0.950 . S
C1008 C1007 1.414 . S
C1008 C1009 1.374 . S
C1009 H989 0.950 . S
C1009 C1005 1.385 . S
C1009 C1008 1.374 . S
C1010 C1007 1.499 . S
C1010 C1011 1.373 . S
C1010 C1012 1.389 . S
C1011 H990 0.950 . S
C1011 C1010 1.373 . S
C1011 C1027 1.377 . S
C1012 C1010 1.389 . S
C1012 C1013 1.524 . S
C1012 C1026 1.377 . S
C1013 C1012 1.524 . S
C1013 C1014 1.397 . S
C1013 C1018 1.363 . S
C1014 H991 0.950 . S
C1014 C1013 1.397 . S
C1014 C1015 1.334 . S
C1015 H992 0.950 . S
C1015 C1014 1.334 . S
C1015 C1016 1.287 . S
C1016 C1015 1.287 . S
C1016 C1017 1.524 . S
C1016 H1035 0.913 . S
C1017 H993 0.950 . S
C1017 C1016 1.524 . S
C1017 C1018 1.415 . S
C1018 H994 0.950 . S
C1018 C1013 1.363 . S
C1018 C1017 1.415 . S
C1019 H995 0.951 . S
C1019 C1020 1.366 . S
C1019 C1021 1.388 . S
C1020 C1019 1.366 . S
C1020 C1024 1.385 . S
C1021 H996 0.951 . S
C1021 C1019 1.388 . S
C1021 C1022 1.366 . S
C1022 C1021 1.366 . S
C1022 C1023 1.414 . S
C1022 C1025 1.499 . S
C1023 H997 0.950 . S
C1023 C1022 1.414 . S
C1023 C1024 1.374 . S
C1024 H998 0.950 . S
C1024 C1020 1.385 . S
C1024 C1023 1.374 . S
C1025 C1022 1.499 . S
C1025 C1026 1.373 . S
C1025 C1027 1.389 . S
C1026 H999 0.950 . S
C1026 C1012 1.377 . S
C1026 C1025 1.373 . S
C1027 C1011 1.377 . S
C1027 C1025 1.389 . S
C1027 C1028 1.524 . S
C1028 C1027 1.524 . S
C1028 C1029 1.397 . S
C1028 C1033 1.363 . S
C1029 H1000 0.950 . S
C1029 C1028 1.397 . S
C1029 C1030 1.334 . S
C1030 H1001 0.950 . S
C1030 C1029 1.334 . S
C1030 C1031 1.287 . S
C1031 C1030 1.287 . S
C1031 C1032 1.524 . S
C1031 H1034 0.999 . S
C1032 H1002 0.950 . S
C1032 C1031 1.524 . S
C1032 C1033 1.415 . S
C1033 H1003 0.950 . S
C1033 C1028 1.363 . S
C1033 C1032 1.415 . S
H1034 C1031 0.999 . S
H1035 C1016 0.913 . S
H1036 C1054 0.951 . S
H1037 C1056 0.951 . S
H1038 C1058 0.950 . S
H1039 C1059 0.950 . S
H1040 C1061 0.950 . S
H1041 C1064 0.950 . S
H1042 C1065 0.950 . S
H1043 C1067 0.950 . S
H1044 C1068 0.950 . S
H1045 C1069 0.951 . S
H1046 C1071 0.951 . S
H1047 C1073 0.950 . S
H1048 C1074 0.950 . S
H1049 C1076 0.950 . S
H1050 C1079 0.950 . S
H1051 C1080 0.950 . S
H1052 C1082 0.950 . S
H1053 C1083 0.950 . S
C1054 H1036 0.951 . S
C1054 C1055 1.366 . S
C1054 C1056 1.388 . S
C1055 C1054 1.366 . S
C1055 C1059 1.385 . S
C1056 H1037 0.951 . S
C1056 C1054 1.388 . S
C1056 C1057 1.366 . S
C1057 C1056 1.366 . S
C1057 C1058 1.414 . S
C1057 C1060 1.499 . S
C1058 H1038 0.950 . S
C1058 C1057 1.414 . S
C1058 C1059 1.374 . S
C1059 H1039 0.950 . S
C1059 C1055 1.385 . S
C1059 C1058 1.374 . S
C1060 C1057 1.499 . S
C1060 C1061 1.373 . S
C1060 C1062 1.389 . S
C1061 H1040 0.950 . S
C1061 C1060 1.373 . S
C1061 C1077 1.377 . S
C1062 C1060 1.389 . S
C1062 C1063 1.524 . S
C1062 C1076 1.377 . S
C1063 C1062 1.524 . S
C1063 C1064 1.397 . S
C1063 C1068 1.363 . S
C1064 H1041 0.950 . S
C1064 C1063 1.397 . S
C1064 C1065 1.334 . S
C1065 H1042 0.950 . S
C1065 C1064 1.334 . S
C1065 C1066 1.287 . S
C1066 C1065 1.287 . S
C1066 C1067 1.524 . S
C1066 H1085 0.913 . S
C1067 H1043 0.950 . S
C1067 C1066 1.524 . S
C1067 C1068 1.415 . S
C1068 H1044 0.950 . S
C1068 C1063 1.363 . S
C1068 C1067 1.415 . S
C1069 H1045 0.951 . S
C1069 C1070 1.366 . S
C1069 C1071 1.388 . S
C1070 C1069 1.366 . S
C1070 C1074 1.385 . S
C1071 H1046 0.951 . S
C1071 C1069 1.388 . S
C1071 C1072 1.366 . S
C1072 C1071 1.366 . S
C1072 C1073 1.414 . S
C1072 C1075 1.499 . S
C1073 H1047 0.950 . S
C1073 C1072 1.414 . S
C1073 C1074 1.374 . S
C1074 H1048 0.950 . S
C1074 C1070 1.385 . S
C1074 C1073 1.374 . S
C1075 C1072 1.499 . S
C1075 C1076 1.373 . S
C1075 C1077 1.389 . S
C1076 H1049 0.950 . S
C1076 C1062 1.377 . S
C1076 C1075 1.373 . S
C1077 C1061 1.377 . S
C1077 C1075 1.389 . S
C1077 C1078 1.524 . S
C1078 C1077 1.524 . S
C1078 C1079 1.397 . S
C1078 C1083 1.363 . S
C1079 H1050 0.950 . S
C1079 C1078 1.397 . S
C1079 C1080 1.334 . S
C1080 H1051 0.950 . S
C1080 C1079 1.334 . S
C1080 C1081 1.287 . S
C1081 C1080 1.287 . S
C1081 C1082 1.524 . S
C1081 H1084 0.999 . S
C1082 H1052 0.950 . S
C1082 C1081 1.524 . S
C1082 C1083 1.415 . S
C1083 H1053 0.950 . S
C1083 C1078 1.363 . S
C1083 C1082 1.415 . S
H1084 C1081 0.999 . S
H1085 C1066 0.913 . S
H1086 C1104 0.951 . S
H1087 C1106 0.951 . S
H1088 C1108 0.950 . S
H1089 C1109 0.950 . S
H1090 C1111 0.950 . S
H1091 C1114 0.950 . S
H1092 C1115 0.950 . S
H1093 C1117 0.950 . S
H1094 C1118 0.950 . S
H1095 C1119 0.951 . S
H1096 C1121 0.951 . S
H1097 C1123 0.950 . S
H1098 C1124 0.950 . S
H1099 C1126 0.950 . S
H1100 C1129 0.950 . S
H1101 C1130 0.950 . S
H1102 C1132 0.950 . S
H1103 C1133 0.950 . S
C1104 H1086 0.951 . S
C1104 C1105 1.366 . S
C1104 C1106 1.388 . S
C1105 C1104 1.366 . S
C1105 C1109 1.385 . S
C1106 H1087 0.951 . S
C1106 C1104 1.388 . S
C1106 C1107 1.366 . S
C1107 C1106 1.366 . S
C1107 C1108 1.414 . S
C1107 C1110 1.499 . S
C1108 H1088 0.950 . S
C1108 C1107 1.414 . S
C1108 C1109 1.374 . S
C1109 H1089 0.950 . S
C1109 C1105 1.385 . S
C1109 C1108 1.374 . S
C1110 C1107 1.499 . S
C1110 C1111 1.373 . S
C1110 C1112 1.389 . S
C1111 H1090 0.950 . S
C1111 C1110 1.373 . S
C1111 C1127 1.377 . S
C1112 C1110 1.389 . S
C1112 C1113 1.524 . S
C1112 C1126 1.377 . S
C1113 C1112 1.524 . S
C1113 C1114 1.397 . S
C1113 C1118 1.363 . S
C1114 H1091 0.950 . S
C1114 C1113 1.397 . S
C1114 C1115 1.334 . S
C1115 H1092 0.950 . S
C1115 C1114 1.334 . S
C1115 C1116 1.287 . S
C1116 C1115 1.287 . S
C1116 C1117 1.524 . S
C1116 H1135 0.913 . S
C1117 H1093 0.950 . S
C1117 C1116 1.524 . S
C1117 C1118 1.415 . S
C1118 H1094 0.950 . S
C1118 C1113 1.363 . S
C1118 C1117 1.415 . S
C1119 H1095 0.951 . S
C1119 C1120 1.366 . S
C1119 C1121 1.388 . S
C1120 C1119 1.366 . S
C1120 C1124 1.385 . S
C1121 H1096 0.951 . S
C1121 C1119 1.388 . S
C1121 C1122 1.366 . S
C1122 C1121 1.366 . S
C1122 C1123 1.414 . S
C1122 C1125 1.499 . S
C1123 H1097 0.950 . S
C1123 C1122 1.414 . S
C1123 C1124 1.374 . S
C1124 H1098 0.950 . S
C1124 C1120 1.385 . S
C1124 C1123 1.374 . S
C1125 C1122 1.499 . S
C1125 C1126 1.373 . S
C1125 C1127 1.389 . S
C1126 H1099 0.950 . S
C1126 C1112 1.377 . S
C1126 C1125 1.373 . S
C1127 C1111 1.377 . S
C1127 C1125 1.389 . S
C1127 C1128 1.524 . S
C1128 C1127 1.524 . S
C1128 C1129 1.397 . S
C1128 C1133 1.363 . S
C1129 H1100 0.950 . S
C1129 C1128 1.397 . S
C1129 C1130 1.334 . S
C1130 H1101 0.950 . S
C1130 C1129 1.334 . S
C1130 C1131 1.287 . S
C1131 C1130 1.287 . S
C1131 C1132 1.524 . S
C1131 H1134 0.999 . S
C1132 H1102 0.950 . S
C1132 C1131 1.524 . S
C1132 C1133 1.415 . S
C1133 H1103 0.950 . S
C1133 C1128 1.363 . S
C1133 C1132 1.415 . S
H1134 C1131 0.999 . S
H1135 C1116 0.913 . S
H1136 C1154 0.951 . S
H1137 C1156 0.951 . S
H1138 C1158 0.950 . S
H1139 C1159 0.950 . S
H1140 C1161 0.950 . S
H1141 C1164 0.950 . S
H1142 C1165 0.950 . S
H1143 C1167 0.950 . S
H1144 C1168 0.950 . S
H1145 C1169 0.951 . S
H1146 C1171 0.951 . S
H1147 C1173 0.950 . S
H1148 C1174 0.950 . S
H1149 C1176 0.950 . S
H1150 C1179 0.950 . S
H1151 C1180 0.950 . S
H1152 C1182 0.950 . S
H1153 C1183 0.950 . S
C1154 H1136 0.951 . S
C1154 C1155 1.366 . S
C1154 C1156 1.388 . S
C1155 C1154 1.366 . S
C1155 C1159 1.385 . S
C1156 H1137 0.951 . S
C1156 C1154 1.388 . S
C1156 C1157 1.366 . S
C1157 C1156 1.366 . S
C1157 C1158 1.414 . S
C1157 C1160 1.499 . S
C1158 H1138 0.950 . S
C1158 C1157 1.414 . S
C1158 C1159 1.374 . S
C1159 H1139 0.950 . S
C1159 C1155 1.385 . S
C1159 C1158 1.374 . S
C1160 C1157 1.499 . S
C1160 C1161 1.373 . S
C1160 C1162 1.389 . S
C1161 H1140 0.950 . S
C1161 C1160 1.373 . S
C1161 C1177 1.377 . S
C1162 C1160 1.389 . S
C1162 C1163 1.524 . S
C1162 C1176 1.377 . S
C1163 C1162 1.524 . S
C1163 C1164 1.397 . S
C1163 C1168 1.363 . S
C1164 H1141 0.950 . S
C1164 C1163 1.397 . S
C1164 C1165 1.334 . S
C1165 H1142 0.950 . S
C1165 C1164 1.334 . S
C1165 C1166 1.287 . S
C1166 C1165 1.287 . S
C1166 C1167 1.524 . S
C1166 H1185 0.913 . S
C1167 H1143 0.950 . S
C1167 C1166 1.524 . S
C1167 C1168 1.415 . S
C1168 H1144 0.950 . S
C1168 C1163 1.363 . S
C1168 C1167 1.415 . S
C1169 H1145 0.951 . S
C1169 C1170 1.366 . S
C1169 C1171 1.388 . S
C1170 C1169 1.366 . S
C1170 C1174 1.385 . S
C1171 H1146 0.951 . S
C1171 C1169 1.388 . S
C1171 C1172 1.366 . S
C1172 C1171 1.366 . S
C1172 C1173 1.414 . S
C1172 C1175 1.499 . S
C1173 H1147 0.950 . S
C1173 C1172 1.414 . S
C1173 C1174 1.374 . S
C1174 H1148 0.950 . S
C1174 C1170 1.385 . S
C1174 C1173 1.374 . S
C1175 C1172 1.499 . S
C1175 C1176 1.373 . S
C1175 C1177 1.389 . S
C1176 H1149 0.950 . S
C1176 C1162 1.377 . S
C1176 C1175 1.373 . S
C1177 C1161 1.377 . S
C1177 C1175 1.389 . S
C1177 C1178 1.524 . S
C1178 C1177 1.524 . S
C1178 C1179 1.397 . S
C1178 C1183 1.363 . S
C1179 H1150 0.950 . S
C1179 C1178 1.397 . S
C1179 C1180 1.334 . S
C1180 H1151 0.950 . S
C1180 C1179 1.334 . S
C1180 C1181 1.287 . S
C1181 C1180 1.287 . S
C1181 C1182 1.524 . S
C1181 H1184 0.999 . S
C1182 H1152 0.950 . S
C1182 C1181 1.524 . S
C1182 C1183 1.415 . S
C1183 H1153 0.950 . S
C1183 C1178 1.363 . S
C1183 C1182 1.415 . S
H1184 C1181 0.999 . S
H1185 C1166 0.913 . S
H1186 C1204 0.951 . S
H1187 C1206 0.951 . S
H1188 C1208 0.950 . S
H1189 C1209 0.950 . S
H1190 C1211 0.950 . S
H1191 C1214 0.950 . S
H1192 C1215 0.950 . S
H1193 C1217 0.950 . S
H1194 C1218 0.950 . S
H1195 C1219 0.951 . S
H1196 C1221 0.951 . S
H1197 C1223 0.950 . S
H1198 C1224 0.950 . S
H1199 C1226 0.950 . S
H1200 C1229 0.950 . S
H1201 C1230 0.950 . S
H1202 C1232 0.950 . S
H1203 C1233 0.950 . S
C1204 H1186 0.951 . S
C1204 C1205 1.366 . S
C1204 C1206 1.388 . S
C1205 C1204 1.366 . S
C1205 C1209 1.385 . S
C1206 H1187 0.951 . S
C1206 C1204 1.388 . S
C1206 C1207 1.366 . S
C1207 C1206 1.366 . S
C1207 C1208 1.414 . S
C1207 C1210 1.499 . S
C1208 H1188 0.950 . S
C1208 C1207 1.414 . S
C1208 C1209 1.374 . S
C1209 H1189 0.950 . S
C1209 C1205 1.385 . S
C1209 C1208 1.374 . S
C1210 C1207 1.499 . S
C1210 C1211 1.373 . S
C1210 C1212 1.389 . S
C1211 H1190 0.950 . S
C1211 C1210 1.373 . S
C1211 C1227 1.377 . S
C1212 C1210 1.389 . S
C1212 C1213 1.524 . S
C1212 C1226 1.377 . S
C1213 C1212 1.524 . S
C1213 C1214 1.397 . S
C1213 C1218 1.363 . S
C1214 H1191 0.950 . S
C1214 C1213 1.397 . S
C1214 C1215 1.334 . S
C1215 H1192 0.950 . S
C1215 C1214 1.334 . S
C1215 C1216 1.287 . S
C1216 C1215 1.287 . S
C1216 C1217 1.524 . S
C1216 H1235 0.913 . S
C1217 H1193 0.950 . S
C1217 C1216 1.524 . S
C1217 C1218 1.415 . S
C1218 H1194 0.950 . S
C1218 C1213 1.363 . S
C1218 C1217 1.415 . S
C1219 H1195 0.951 . S
C1219 C1220 1.366 . S
C1219 C1221 1.388 . S
C1220 C1219 1.366 . S
C1220 C1224 1.385 . S
C1221 H1196 0.951 . S
C1221 C1219 1.388 . S
C1221 C1222 1.366 . S
C1222 C1221 1.366 . S
C1222 C1223 1.414 . S
C1222 C1225 1.499 . S
C1223 H1197 0.950 . S
C1223 C1222 1.414 . S
C1223 C1224 1.374 . S
C1224 H1198 0.950 . S
C1224 C1220 1.385 . S
C1224 C1223 1.374 . S
C1225 C1222 1.499 . S
C1225 C1226 1.373 . S
C1225 C1227 1.389 . S
C1226 H1199 0.950 . S
C1226 C1212 1.377 . S
C1226 C1225 1.373 . S
C1227 C1211 1.377 . S
C1227 C1225 1.389 . S
C1227 C1228 1.524 . S
C1228 C1227 1.524 . S
C1228 C1229 1.397 . S
C1228 C1233 1.363 . S
C1229 H1200 0.950 . S
C1229 C1228 1.397 . S
C1229 C1230 1.334 . S
C1230 H1201 0.950 . S
C1230 C1229 1.334 . S
C1230 C1231 1.287 . S
C1231 C1230 1.287 . S
C1231 C1232 1.524 . S
C1231 H1234 0.999 . S
C1232 H1202 0.950 . S
C1232 C1231 1.524 . S
C1232 C1233 1.415 . S
C1233 H1203 0.950 . S
C1233 C1228 1.363 . S
C1233 C1232 1.415 . S
H1234 C1231 0.999 . S
H1235 C1216 0.913 . S
H1236 C1254 0.951 . S
H1237 C1256 0.951 . S
H1238 C1258 0.950 . S
H1239 C1259 0.950 . S
H1240 C1261 0.950 . S
H1241 C1264 0.950 . S
H1242 C1265 0.950 . S
H1243 C1267 0.950 . S
H1244 C1268 0.950 . S
H1245 C1269 0.951 . S
H1246 C1271 0.951 . S
H1247 C1273 0.950 . S
H1248 C1274 0.950 . S
H1249 C1276 0.950 . S
H1250 C1279 0.950 . S
H1251 C1280 0.950 . S
H1252 C1282 0.950 . S
H1253 C1283 0.950 . S
C1254 H1236 0.951 . S
C1254 C1255 1.366 . S
C1254 C1256 1.388 . S
C1255 C1254 1.366 . S
C1255 C1259 1.385 . S
C1256 H1237 0.951 . S
C1256 C1254 1.388 . S
C1256 C1257 1.366 . S
C1257 C1256 1.366 . S
C1257 C1258 1.414 . S
C1257 C1260 1.499 . S
C1258 H1238 0.950 . S
C1258 C1257 1.414 . S
C1258 C1259 1.374 . S
C1259 H1239 0.950 . S
C1259 C1255 1.385 . S
C1259 C1258 1.374 . S
C1260 C1257 1.499 . S
C1260 C1261 1.373 . S
C1260 C1262 1.389 . S
C1261 H1240 0.950 . S
C1261 C1260 1.373 . S
C1261 C1277 1.377 . S
C1262 C1260 1.389 . S
C1262 C1263 1.524 . S
C1262 C1276 1.377 . S
C1263 C1262 1.524 . S
C1263 C1264 1.397 . S
C1263 C1268 1.363 . S
C1264 H1241 0.950 . S
C1264 C1263 1.397 . S
C1264 C1265 1.334 . S
C1265 H1242 0.950 . S
C1265 C1264 1.334 . S
C1265 C1266 1.287 . S
C1266 C1265 1.287 . S
C1266 C1267 1.524 . S
C1266 H1285 0.913 . S
C1267 H1243 0.950 . S
C1267 C1266 1.524 . S
C1267 C1268 1.415 . S
C1268 H1244 0.950 . S
C1268 C1263 1.363 . S
C1268 C1267 1.415 . S
C1269 H1245 0.951 . S
C1269 C1270 1.366 . S
C1269 C1271 1.388 . S
C1270 C1269 1.366 . S
C1270 C1274 1.385 . S
C1271 H1246 0.951 . S
C1271 C1269 1.388 . S
C1271 C1272 1.366 . S
C1272 C1271 1.366 . S
C1272 C1273 1.414 . S
C1272 C1275 1.499 . S
C1273 H1247 0.950 . S
C1273 C1272 1.414 . S
C1273 C1274 1.374 . S
C1274 H1248 0.950 . S
C1274 C1270 1.385 . S
C1274 C1273 1.374 . S
C1275 C1272 1.499 . S
C1275 C1276 1.373 . S
C1275 C1277 1.389 . S
C1276 H1249 0.950 . S
C1276 C1262 1.377 . S
C1276 C1275 1.373 . S
C1277 C1261 1.377 . S
C1277 C1275 1.389 . S
C1277 C1278 1.524 . S
C1278 C1277 1.524 . S
C1278 C1279 1.397 . S
C1278 C1283 1.363 . S
C1279 H1250 0.950 . S
C1279 C1278 1.397 . S
C1279 C1280 1.334 . S
C1280 H1251 0.950 . S
C1280 C1279 1.334 . S
C1280 C1281 1.287 . S
C1281 C1280 1.287 . S
C1281 C1282 1.524 . S
C1281 H1284 0.999 . S
C1282 H1252 0.950 . S
C1282 C1281 1.524 . S
C1282 C1283 1.415 . S
C1283 H1253 0.950 . S
C1283 C1278 1.363 . S
C1283 C1282 1.415 . S
H1284 C1281 0.999 . S
H1285 C1266 0.913 . S
H1286 C1304 0.951 . S
H1287 C1306 0.951 . S
H1288 C1308 0.950 . S
H1289 C1309 0.950 . S
H1290 C1311 0.950 . S
H1291 C1314 0.950 . S
H1292 C1315 0.950 . S
H1293 C1317 0.950 . S
H1294 C1318 0.950 . S
H1295 C1319 0.951 . S
H1296 C1321 0.951 . S
H1297 C1323 0.950 . S
H1298 C1324 0.950 . S
H1299 C1326 0.950 . S
H1300 C1329 0.950 . S
H1301 C1330 0.950 . S
H1302 C1332 0.950 . S
H1303 C1333 0.950 . S
C1304 H1286 0.951 . S
C1304 C1305 1.366 . S
C1304 C1306 1.388 . S
C1305 C1304 1.366 . S
C1305 C1309 1.385 . S
C1306 H1287 0.951 . S
C1306 C1304 1.388 . S
C1306 C1307 1.366 . S
C1307 C1306 1.366 . S
C1307 C1308 1.414 . S
C1307 C1310 1.499 . S
C1308 H1288 0.950 . S
C1308 C1307 1.414 . S
C1308 C1309 1.374 . S
C1309 H1289 0.950 . S
C1309 C1305 1.385 . S
C1309 C1308 1.374 . S
C1310 C1307 1.499 . S
C1310 C1311 1.373 . S
C1310 C1312 1.389 . S
C1311 H1290 0.950 . S
C1311 C1310 1.373 . S
C1311 C1327 1.377 . S
C1312 C1310 1.389 . S
C1312 C1313 1.524 . S
C1312 C1326 1.377 . S
C1313 C1312 1.524 . S
C1313 C1314 1.397 . S
C1313 C1318 1.363 . S
C1314 H1291 0.950 . S
C1314 C1313 1.397 . S
C1314 C1315 1.334 . S
C1315 H1292 0.950 . S
C1315 C1314 1.334 . S
C1315 C1316 1.287 . S
C1316 C1315 1.287 . S
C1316 C1317 1.524 . S
C1316 H1335 0.913 . S
C1317 H1293 0.950 . S
C1317 C1316 1.524 . S
C1317 C1318 1.415 . S
C1318 H1294 0.950 . S
C1318 C1313 1.363 . S
C1318 C1317 1.415 . S
C1319 H1295 0.951 . S
C1319 C1320 1.366 . S
C1319 C1321 1.388 . S
C1320 C1319 1.366 . S
C1320 C1324 1.385 . S
C1321 H1296 0.951 . S
C1321 C1319 1.388 . S
C1321 C1322 1.366 . S
C1322 C1321 1.366 . S
C1322 C1323 1.414 . S
C1322 C1325 1.499 . S
C1323 H1297 0.950 . S
C1323 C1322 1.414 . S
C1323 C1324 1.374 . S
C1324 H1298 0.950 . S
C1324 C1320 1.385 . S
C1324 C1323 1.374 . S
C1325 C1322 1.499 . S
C1325 C1326 1.373 . S
C1325 C1327 1.389 . S
C1326 H1299 0.950 . S
C1326 C1312 1.377 . S
C1326 C1325 1.373 . S
C1327 C1311 1.377 . S
C1327 C1325 1.389 . S
C1327 C1328 1.524 . S
C1328 C1327 1.524 . S
C1328 C1329 1.397 . S
C1328 C1333 1.363 . S
C1329 H1300 0.950 . S
C1329 C1328 1.397 . S
C1329 C1330 1.334 . S
C1330 H1301 0.950 . S
C1330 C1329 1.334 . S
C1330 C1331 1.287 . S
C1331 C1330 1.287 . S
C1331 C1332 1.524 . S
C1331 H1334 0.999 . S
C1332 H1302 0.950 . S
C1332 C1331 1.524 . S
C1332 C1333 1.415 . S
C1333 H1303 0.950 . S
C1333 C1328 1.363 . S
C1333 C1332 1.415 . S
H1334 C1331 0.999 . S
H1335 C1316 0.913 . S
H1336 C1354 0.951 . S
H1337 C1356 0.951 . S
H1338 C1358 0.950 . S
H1339 C1359 0.950 . S
H1340 C1361 0.950 . S
H1341 C1364 0.950 . S
H1342 C1365 0.950 . S
H1343 C1367 0.950 . S
H1344 C1368 0.950 . S
H1345 C1369 0.951 . S
H1346 C1371 0.951 . S
H1347 C1373 0.950 . S
H1348 C1374 0.950 . S
H1349 C1376 0.950 . S
H1350 C1379 0.950 . S
H1351 C1380 0.950 . S
H1352 C1382 0.950 . S
H1353 C1383 0.950 . S
C1354 H1336 0.951 . S
C1354 C1355 1.366 . S
C1354 C1356 1.388 . S
C1355 C1354 1.366 . S
C1355 C1359 1.385 . S
C1356 H1337 0.951 . S
C1356 C1354 1.388 . S
C1356 C1357 1.366 . S
C1357 C1356 1.366 . S
C1357 C1358 1.414 . S
C1357 C1360 1.499 . S
C1358 H1338 0.950 . S
C1358 C1357 1.414 . S
C1358 C1359 1.374 . S
C1359 H1339 0.950 . S
C1359 C1355 1.385 . S
C1359 C1358 1.374 . S
C1360 C1357 1.499 . S
C1360 C1361 1.373 . S
C1360 C1362 1.389 . S
C1361 H1340 0.950 . S
C1361 C1360 1.373 . S
C1361 C1377 1.377 . S
C1362 C1360 1.389 . S
C1362 C1363 1.524 . S
C1362 C1376 1.377 . S
C1363 C1362 1.524 . S
C1363 C1364 1.397 . S
C1363 C1368 1.363 . S
C1364 H1341 0.950 . S
C1364 C1363 1.397 . S
C1364 C1365 1.334 . S
C1365 H1342 0.950 . S
C1365 C1364 1.334 . S
C1365 C1366 1.287 . S
C1366 C1365 1.287 . S
C1366 C1367 1.524 . S
C1366 H1385 0.913 . S
C1367 H1343 0.950 . S
C1367 C1366 1.524 . S
C1367 C1368 1.415 . S
C1368 H1344 0.950 . S
C1368 C1363 1.363 . S
C1368 C1367 1.415 . S
C1369 H1345 0.951 . S
C1369 C1370 1.366 . S
C1369 C1371 1.388 . S
C1370 C1369 1.366 . S
C1370 C1374 1.385 . S
C1371 H1346 0.951 . S
C1371 C1369 1.388 . S
C1371 C1372 1.366 . S
C1372 C1371 1.366 . S
C1372 C1373 1.414 . S
C1372 C1375 1.499 . S
C1373 H1347 0.950 . S
C1373 C1372 1.414 . S
C1373 C1374 1.374 . S
C1374 H1348 0.950 . S
C1374 C1370 1.385 . S
C1374 C1373 1.374 . S
C1375 C1372 1.499 . S
C1375 C1376 1.373 . S
C1375 C1377 1.389 . S
C1376 H1349 0.950 . S
C1376 C1362 1.377 . S
C1376 C1375 1.373 . S
C1377 C1361 1.377 . S
C1377 C1375 1.389 . S
C1377 C1378 1.524 . S
C1378 C1377 1.524 . S
C1378 C1379 1.397 . S
C1378 C1383 1.363 . S
C1379 H1350 0.950 . S
C1379 C1378 1.397 . S
C1379 C1380 1.334 . S
C1380 H1351 0.950 . S
C1380 C1379 1.334 . S
C1380 C1381 1.287 . S
C1381 C1380 1.287 . S
C1381 C1382 1.524 . S
C1381 H1384 0.999 . S
C1382 H1352 0.950 . S
C1382 C1381 1.524 . S
C1382 C1383 1.415 . S
C1383 H1353 0.950 . S
C1383 C1378 1.363 . S
C1383 C1382 1.415 . S
H1384 C1381 0.999 . S
H1385 C1366 0.913 . S
H1386 C1404 0.951 . S
H1387 C1406 0.951 . S
H1388 C1408 0.950 . S
H1389 C1409 0.950 . S
H1390 C1411 0.950 . S
H1391 C1414 0.950 . S
H1392 C1415 0.950 . S
H1393 C1417 0.950 . S
H1394 C1418 0.950 . S
H1395 C1419 0.951 . S
H1396 C1421 0.951 . S
H1397 C1423 0.950 . S
H1398 C1424 0.950 . S
H1399 C1426 0.950 . S
H1400 C1429 0.950 . S
H1401 C1430 0.950 . S
H1402 C1432 0.950 . S
H1403 C1433 0.950 . S
C1404 H1386 0.951 . S
C1404 C1405 1.366 . S
C1404 C1406 1.388 . S
C1405 C1404 1.366 . S
C1405 C1409 1.385 . S
C1406 H1387 0.951 . S
C1406 C1404 1.388 . S
C1406 C1407 1.366 . S
C1407 C1406 1.366 . S
C1407 C1408 1.414 . S
C1407 C1410 1.499 . S
C1408 H1388 0.950 . S
C1408 C1407 1.414 . S
C1408 C1409 1.374 . S
C1409 H1389 0.950 . S
C1409 C1405 1.385 . S
C1409 C1408 1.374 . S
C1410 C1407 1.499 . S
C1410 C1411 1.373 . S
C1410 C1412 1.389 . S
C1411 H1390 0.950 . S
C1411 C1410 1.373 . S
C1411 C1427 1.377 . S
C1412 C1410 1.389 . S
C1412 C1413 1.524 . S
C1412 C1426 1.377 . S
C1413 C1412 1.524 . S
C1413 C1414 1.397 . S
C1413 C1418 1.363 . S
C1414 H1391 0.950 . S
C1414 C1413 1.397 . S
C1414 C1415 1.334 . S
C1415 H1392 0.950 . S
C1415 C1414 1.334 . S
C1415 C1416 1.287 . S
C1416 C1415 1.287 . S
C1416 C1417 1.524 . S
C1416 H1435 0.913 . S
C1417 H1393 0.950 . S
C1417 C1416 1.524 . S
C1417 C1418 1.415 . S
C1418 H1394 0.950 . S
C1418 C1413 1.363 . S
C1418 C1417 1.415 . S
C1419 H1395 0.951 . S
C1419 C1420 1.366 . S
C1419 C1421 1.388 . S
C1420 C1419 1.366 . S
C1420 C1424 1.385 . S
C1421 H1396 0.951 . S
C1421 C1419 1.388 . S
C1421 C1422 1.366 . S
C1422 C1421 1.366 . S
C1422 C1423 1.414 . S
C1422 C1425 1.499 . S
C1423 H1397 0.950 . S
C1423 C1422 1.414 . S
C1423 C1424 1.374 . S
C1424 H1398 0.950 . S
C1424 C1420 1.385 . S
C1424 C1423 1.374 . S
C1425 C1422 1.499 . S
C1425 C1426 1.373 . S
C1425 C1427 1.389 . S
C1426 H1399 0.950 . S
C1426 C1412 1.377 . S
C1426 C1425 1.373 . S
C1427 C1411 1.377 . S
C1427 C1425 1.389 . S
C1427 C1428 1.524 . S
C1428 C1427 1.524 . S
C1428 C1429 1.397 . S
C1428 C1433 1.363 . S
C1429 H1400 0.950 . S
C1429 C1428 1.397 . S
C1429 C1430 1.334 . S
C1430 H1401 0.950 . S
C1430 C1429 1.334 . S
C1430 C1431 1.287 . S
C1431 C1430 1.287 . S
C1431 C1432 1.524 . S
C1431 H1434 0.999 . S
C1432 H1402 0.950 . S
C1432 C1431 1.524 . S
C1432 C1433 1.415 . S
C1433 H1403 0.950 . S
C1433 C1428 1.363 . S
C1433 C1432 1.415 . S
H1434 C1431 0.999 . S
H1435 C1416 0.913 . S
H1436 C1454 0.951 . S
H1437 C1456 0.951 . S
H1438 C1458 0.950 . S
H1439 C1459 0.950 . S
H1440 C1461 0.950 . S
H1441 C1464 0.950 . S
H1442 C1465 0.950 . S
H1443 C1467 0.950 . S
H1444 C1468 0.950 . S
H1445 C1469 0.951 . S
H1446 C1471 0.951 . S
H1447 C1473 0.950 . S
H1448 C1474 0.950 . S
H1449 C1476 0.950 . S
H1450 C1479 0.950 . S
H1451 C1480 0.950 . S
H1452 C1482 0.950 . S
H1453 C1483 0.950 . S
C1454 H1436 0.951 . S
C1454 C1455 1.366 . S
C1454 C1456 1.388 . S
C1455 C1454 1.366 . S
C1455 C1459 1.385 . S
C1456 H1437 0.951 . S
C1456 C1454 1.388 . S
C1456 C1457 1.366 . S
C1457 C1456 1.366 . S
C1457 C1458 1.414 . S
C1457 C1460 1.499 . S
C1458 H1438 0.950 . S
C1458 C1457 1.414 . S
C1458 C1459 1.374 . S
C1459 H1439 0.950 . S
C1459 C1455 1.385 . S
C1459 C1458 1.374 . S
C1460 C1457 1.499 . S
C1460 C1461 1.373 . S
C1460 C1462 1.389 . S
C1461 H1440 0.950 . S
C1461 C1460 1.373 . S
C1461 C1477 1.377 . S
C1462 C1460 1.389 . S
C1462 C1463 1.524 . S
C1462 C1476 1.377 . S
C1463 C1462 1.524 . S
C1463 C1464 1.397 . S
C1463 C1468 1.363 . S
C1464 H1441 0.950 . S
C1464 C1463 1.397 . S
C1464 C1465 1.334 . S
C1465 H1442 0.950 . S
C1465 C1464 1.334 . S
C1465 C1466 1.287 . S
C1466 C1465 1.287 . S
C1466 C1467 1.524 . S
C1466 H1485 0.914 1_565 S
C1467 H1443 0.950 . S
C1467 C1466 1.524 . S
C1467 C1468 1.415 . S
C1468 H1444 0.950 . S
C1468 C1463 1.363 . S
C1468 C1467 1.415 . S
C1469 H1445 0.951 . S
C1469 C1470 1.366 . S
C1469 C1471 1.388 . S
C1470 C1469 1.366 . S
C1470 C1474 1.385 . S
C1471 H1446 0.951 . S
C1471 C1469 1.388 . S
C1471 C1472 1.366 . S
C1472 C1471 1.366 . S
C1472 C1473 1.414 . S
C1472 C1475 1.499 . S
C1473 H1447 0.950 . S
C1473 C1472 1.414 . S
C1473 C1474 1.374 . S
C1474 H1448 0.950 . S
C1474 C1470 1.385 . S
C1474 C1473 1.374 . S
C1475 C1472 1.499 . S
C1475 C1476 1.373 . S
C1475 C1477 1.389 . S
C1476 H1449 0.950 . S
C1476 C1462 1.377 . S
C1476 C1475 1.373 . S
C1477 C1461 1.377 . S
C1477 C1475 1.389 . S
C1477 C1478 1.524 . S
C1478 C1477 1.524 . S
C1478 C1479 1.397 . S
C1478 C1483 1.363 . S
C1479 H1450 0.950 . S
C1479 C1478 1.397 . S
C1479 C1480 1.334 . S
C1480 H1451 0.950 . S
C1480 C1479 1.334 . S
C1480 C1481 1.287 . S
C1481 C1480 1.287 . S
C1481 C1482 1.524 . S
C1481 H1484 0.999 . S
C1482 H1452 0.950 . S
C1482 C1481 1.524 . S
C1482 C1483 1.415 . S
C1483 H1453 0.950 . S
C1483 C1478 1.363 . S
C1483 C1482 1.415 . S
H1484 C1481 0.999 . S
H1485 C1466 0.914 1_545 S
H1486 C1504 0.951 . S
H1487 C1506 0.951 . S
H1488 C1508 0.950 . S
H1489 C1509 0.950 . S
H1490 C1511 0.950 . S
H1491 C1514 0.950 . S
H1492 C1515 0.950 . S
H1493 C1517 0.950 . S
H1494 C1518 0.950 . S
H1495 C1519 0.951 . S
H1496 C1521 0.951 . S
H1497 C1523 0.950 . S
H1498 C1524 0.950 . S
H1499 C1526 0.950 . S
H1500 C1529 0.950 . S
H1501 C1530 0.950 . S
H1502 C1532 0.950 . S
H1503 C1533 0.950 . S
C1504 H1486 0.951 . S
C1504 C1505 1.366 . S
C1504 C1506 1.388 . S
C1505 C1504 1.366 . S
C1505 C1509 1.385 . S
C1506 H1487 0.951 . S
C1506 C1504 1.388 . S
C1506 C1507 1.366 . S
C1507 C1506 1.366 . S
C1507 C1508 1.414 . S
C1507 C1510 1.499 . S
C1508 H1488 0.950 . S
C1508 C1507 1.414 . S
C1508 C1509 1.374 . S
C1509 H1489 0.950 . S
C1509 C1505 1.385 . S
C1509 C1508 1.374 . S
C1510 C1507 1.499 . S
C1510 C1511 1.373 . S
C1510 C1512 1.389 . S
C1511 H1490 0.950 . S
C1511 C1510 1.373 . S
C1511 C1527 1.377 . S
C1512 C1510 1.389 . S
C1512 C1513 1.524 . S
C1512 C1526 1.377 . S
C1513 C1512 1.524 . S
C1513 C1514 1.397 . S
C1513 C1518 1.363 . S
C1514 H1491 0.950 . S
C1514 C1513 1.397 . S
C1514 C1515 1.334 . S
C1515 H1492 0.950 . S
C1515 C1514 1.334 . S
C1515 C1516 1.287 . S
C1516 C1515 1.287 . S
C1516 C1517 1.524 . S
C1516 H1535 0.913 . S
C1517 H1493 0.950 . S
C1517 C1516 1.524 . S
C1517 C1518 1.415 . S
C1518 H1494 0.950 . S
C1518 C1513 1.363 . S
C1518 C1517 1.415 . S
C1519 H1495 0.951 . S
C1519 C1520 1.366 . S
C1519 C1521 1.388 . S
C1520 C1519 1.366 . S
C1520 C1524 1.385 . S
C1521 H1496 0.951 . S
C1521 C1519 1.388 . S
C1521 C1522 1.366 . S
C1522 C1521 1.366 . S
C1522 C1523 1.414 . S
C1522 C1525 1.499 . S
C1523 H1497 0.950 . S
C1523 C1522 1.414 . S
C1523 C1524 1.374 . S
C1524 H1498 0.950 . S
C1524 C1520 1.385 . S
C1524 C1523 1.374 . S
C1525 C1522 1.499 . S
C1525 C1526 1.373 . S
C1525 C1527 1.389 . S
C1526 H1499 0.950 . S
C1526 C1512 1.377 . S
C1526 C1525 1.373 . S
C1527 C1511 1.377 . S
C1527 C1525 1.389 . S
C1527 C1528 1.524 . S
C1528 C1527 1.524 . S
C1528 C1529 1.397 . S
C1528 C1533 1.363 . S
C1529 H1500 0.950 . S
C1529 C1528 1.397 . S
C1529 C1530 1.334 . S
C1530 H1501 0.950 . S
C1530 C1529 1.334 . S
C1530 C1531 1.287 . S
C1531 C1530 1.287 . S
C1531 C1532 1.524 . S
C1531 H1534 0.999 . S
C1532 H1502 0.950 . S
C1532 C1531 1.524 . S
C1532 C1533 1.415 . S
C1533 H1503 0.950 . S
C1533 C1528 1.363 . S
C1533 C1532 1.415 . S
H1534 C1531 0.999 . S
H1535 C1516 0.913 . S
H1536 C1554 0.951 . S
H1537 C1556 0.951 . S
H1538 C1558 0.950 . S
H1539 C1559 0.950 . S
H1540 C1561 0.950 . S
H1541 C1564 0.950 . S
H1542 C1565 0.950 . S
H1543 C1567 0.950 . S
H1544 C1568 0.950 . S
H1545 C1569 0.951 . S
H1546 C1571 0.951 . S
H1547 C1573 0.950 . S
H1548 C1574 0.950 . S
H1549 C1576 0.950 . S
H1550 C1579 0.950 . S
H1551 C1580 0.950 . S
H1552 C1582 0.950 . S
H1553 C1583 0.950 . S
C1554 H1536 0.951 . S
C1554 C1555 1.366 . S
C1554 C1556 1.388 . S
C1555 C1554 1.366 . S
C1555 C1559 1.385 . S
C1556 H1537 0.951 . S
C1556 C1554 1.388 . S
C1556 C1557 1.366 . S
C1557 C1556 1.366 . S
C1557 C1558 1.414 . S
C1557 C1560 1.499 . S
C1558 H1538 0.950 . S
C1558 C1557 1.414 . S
C1558 C1559 1.374 . S
C1559 H1539 0.950 . S
C1559 C1555 1.385 . S
C1559 C1558 1.374 . S
C1560 C1557 1.499 . S
C1560 C1561 1.373 . S
C1560 C1562 1.389 . S
C1561 H1540 0.950 . S
C1561 C1560 1.373 . S
C1561 C1577 1.377 . S
C1562 C1560 1.389 . S
C1562 C1563 1.524 . S
C1562 C1576 1.377 . S
C1563 C1562 1.524 . S
C1563 C1564 1.397 . S
C1563 C1568 1.363 . S
C1564 H1541 0.950 . S
C1564 C1563 1.397 . S
C1564 C1565 1.334 . S
C1565 H1542 0.950 . S
C1565 C1564 1.334 . S
C1565 C1566 1.287 . S
C1566 C1565 1.287 . S
C1566 C1567 1.524 . S
C1566 H1585 0.913 . S
C1567 H1543 0.950 . S
C1567 C1566 1.524 . S
C1567 C1568 1.415 . S
C1568 H1544 0.950 . S
C1568 C1563 1.363 . S
C1568 C1567 1.415 . S
C1569 H1545 0.951 . S
C1569 C1570 1.366 . S
C1569 C1571 1.388 . S
C1570 C1569 1.366 . S
C1570 C1574 1.385 . S
C1571 H1546 0.951 . S
C1571 C1569 1.388 . S
C1571 C1572 1.366 . S
C1572 C1571 1.366 . S
C1572 C1573 1.414 . S
C1572 C1575 1.499 . S
C1573 H1547 0.950 . S
C1573 C1572 1.414 . S
C1573 C1574 1.374 . S
C1574 H1548 0.950 . S
C1574 C1570 1.385 . S
C1574 C1573 1.374 . S
C1575 C1572 1.499 . S
C1575 C1576 1.373 . S
C1575 C1577 1.389 . S
C1576 H1549 0.950 . S
C1576 C1562 1.377 . S
C1576 C1575 1.373 . S
C1577 C1561 1.377 . S
C1577 C1575 1.389 . S
C1577 C1578 1.524 . S
C1578 C1577 1.524 . S
C1578 C1579 1.397 . S
C1578 C1583 1.363 . S
C1579 H1550 0.950 . S
C1579 C1578 1.397 . S
C1579 C1580 1.334 . S
C1580 H1551 0.950 . S
C1580 C1579 1.334 . S
C1580 C1581 1.287 . S
C1581 C1580 1.287 . S
C1581 C1582 1.524 . S
C1581 H1584 0.999 . S
C1582 H1552 0.950 . S
C1582 C1581 1.524 . S
C1582 C1583 1.415 . S
C1583 H1553 0.950 . S
C1583 C1578 1.363 . S
C1583 C1582 1.415 . S
H1584 C1581 0.999 . S
H1585 C1566 0.913 . S
H1586 C1604 0.951 . S
H1587 C1606 0.951 . S
H1588 C1608 0.950 . S
H1589 C1609 0.950 . S
H1590 C1611 0.950 . S
H1591 C1614 0.950 . S
H1592 C1615 0.950 . S
H1593 C1617 0.950 . S
H1594 C1618 0.950 . S
H1595 C1619 0.951 . S
H1596 C1621 0.951 . S
H1597 C1623 0.950 . S
H1598 C1624 0.950 . S
H1599 C1626 0.950 . S
H1600 C1629 0.950 . S
H1601 C1630 0.950 . S
H1602 C1632 0.950 . S
H1603 C1633 0.950 . S
C1604 H1586 0.951 . S
C1604 C1605 1.366 . S
C1604 C1606 1.388 . S
C1605 C1604 1.366 . S
C1605 C1609 1.385 . S
C1606 H1587 0.951 . S
C1606 C1604 1.388 . S
C1606 C1607 1.366 . S
C1607 C1606 1.366 . S
C1607 C1608 1.414 . S
C1607 C1610 1.499 . S
C1608 H1588 0.950 . S
C1608 C1607 1.414 . S
C1608 C1609 1.374 . S
C1609 H1589 0.950 . S
C1609 C1605 1.385 . S
C1609 C1608 1.374 . S
C1610 C1607 1.499 . S
C1610 C1611 1.373 . S
C1610 C1612 1.389 . S
C1611 H1590 0.950 . S
C1611 C1610 1.373 . S
C1611 C1627 1.377 . S
C1612 C1610 1.389 . S
C1612 C1613 1.524 . S
C1612 C1626 1.377 . S
C1613 C1612 1.524 . S
C1613 C1614 1.397 . S
C1613 C1618 1.363 . S
C1614 H1591 0.950 . S
C1614 C1613 1.397 . S
C1614 C1615 1.334 . S
C1615 H1592 0.950 . S
C1615 C1614 1.334 . S
C1615 C1616 1.287 . S
C1616 C1615 1.287 . S
C1616 C1617 1.524 . S
C1616 H1635 0.913 . S
C1617 H1593 0.950 . S
C1617 C1616 1.524 . S
C1617 C1618 1.415 . S
C1618 H1594 0.950 . S
C1618 C1613 1.363 . S
C1618 C1617 1.415 . S
C1619 H1595 0.951 . S
C1619 C1620 1.366 . S
C1619 C1621 1.388 . S
C1620 C1619 1.366 . S
C1620 C1624 1.385 . S
C1621 H1596 0.951 . S
C1621 C1619 1.388 . S
C1621 C1622 1.366 . S
C1622 C1621 1.366 . S
C1622 C1623 1.414 . S
C1622 C1625 1.499 . S
C1623 H1597 0.950 . S
C1623 C1622 1.414 . S
C1623 C1624 1.374 . S
C1624 H1598 0.950 . S
C1624 C1620 1.385 . S
C1624 C1623 1.374 . S
C1625 C1622 1.499 . S
C1625 C1626 1.373 . S
C1625 C1627 1.389 . S
C1626 H1599 0.950 . S
C1626 C1612 1.377 . S
C1626 C1625 1.373 . S
C1627 C1611 1.377 . S
C1627 C1625 1.389 . S
C1627 C1628 1.524 . S
C1628 C1627 1.524 . S
C1628 C1629 1.397 . S
C1628 C1633 1.363 . S
C1629 H1600 0.950 . S
C1629 C1628 1.397 . S
C1629 C1630 1.334 . S
C1630 H1601 0.950 . S
C1630 C1629 1.334 . S
C1630 C1631 1.287 . S
C1631 C1630 1.287 . S
C1631 C1632 1.524 . S
C1631 H1634 0.999 . S
C1632 H1602 0.950 . S
C1632 C1631 1.524 . S
C1632 C1633 1.415 . S
C1633 H1603 0.950 . S
C1633 C1628 1.363 . S
C1633 C1632 1.415 . S
H1634 C1631 0.999 . S
H1635 C1616 0.913 . S
H1636 C1654 0.951 . S
H1637 C1656 0.951 . S
H1638 C1658 0.950 . S
H1639 C1659 0.950 . S
H1640 C1661 0.950 . S
H1641 C1664 0.950 . S
H1642 C1665 0.950 . S
H1643 C1667 0.950 . S
H1644 C1668 0.950 . S
H1645 C1669 0.951 . S
H1646 C1671 0.951 . S
H1647 C1673 0.950 . S
H1648 C1674 0.950 . S
H1649 C1676 0.950 . S
H1650 C1679 0.950 . S
H1651 C1680 0.950 . S
H1652 C1682 0.950 . S
H1653 C1683 0.950 . S
C1654 H1636 0.951 . S
C1654 C1655 1.366 . S
C1654 C1656 1.388 . S
C1655 C1654 1.366 . S
C1655 C1659 1.385 . S
C1656 H1637 0.951 . S
C1656 C1654 1.388 . S
C1656 C1657 1.366 . S
C1657 C1656 1.366 . S
C1657 C1658 1.414 . S
C1657 C1660 1.499 . S
C1658 H1638 0.950 . S
C1658 C1657 1.414 . S
C1658 C1659 1.374 . S
C1659 H1639 0.950 . S
C1659 C1655 1.385 . S
C1659 C1658 1.374 . S
C1660 C1657 1.499 . S
C1660 C1661 1.373 . S
C1660 C1662 1.389 . S
C1661 H1640 0.950 . S
C1661 C1660 1.373 . S
C1661 C1677 1.377 . S
C1662 C1660 1.389 . S
C1662 C1663 1.524 . S
C1662 C1676 1.377 . S
C1663 C1662 1.524 . S
C1663 C1664 1.397 . S
C1663 C1668 1.363 . S
C1664 H1641 0.950 . S
C1664 C1663 1.397 . S
C1664 C1665 1.334 . S
C1665 H1642 0.950 . S
C1665 C1664 1.334 . S
C1665 C1666 1.287 . S
C1666 C1665 1.287 . S
C1666 C1667 1.524 . S
C1666 H1685 0.913 . S
C1667 H1643 0.950 . S
C1667 C1666 1.524 . S
C1667 C1668 1.415 . S
C1668 H1644 0.950 . S
C1668 C1663 1.363 . S
C1668 C1667 1.415 . S
C1669 H1645 0.951 . S
C1669 C1670 1.366 . S
C1669 C1671 1.388 . S
C1670 C1669 1.366 . S
C1670 C1674 1.385 . S
C1671 H1646 0.951 . S
C1671 C1669 1.388 . S
C1671 C1672 1.366 . S
C1672 C1671 1.366 . S
C1672 C1673 1.414 . S
C1672 C1675 1.499 . S
C1673 H1647 0.950 . S
C1673 C1672 1.414 . S
C1673 C1674 1.374 . S
C1674 H1648 0.950 . S
C1674 C1670 1.385 . S
C1674 C1673 1.374 . S
C1675 C1672 1.499 . S
C1675 C1676 1.373 . S
C1675 C1677 1.389 . S
C1676 H1649 0.950 . S
C1676 C1662 1.377 . S
C1676 C1675 1.373 . S
C1677 C1661 1.377 . S
C1677 C1675 1.389 . S
C1677 C1678 1.524 . S
C1678 C1677 1.524 . S
C1678 C1679 1.397 . S
C1678 C1683 1.363 . S
C1679 H1650 0.950 . S
C1679 C1678 1.397 . S
C1679 C1680 1.334 . S
C1680 H1651 0.950 . S
C1680 C1679 1.334 . S
C1680 C1681 1.287 . S
C1681 C1680 1.287 . S
C1681 C1682 1.524 . S
C1681 H1684 0.999 . S
C1682 H1652 0.950 . S
C1682 C1681 1.524 . S
C1682 C1683 1.415 . S
C1683 H1653 0.950 . S
C1683 C1678 1.363 . S
C1683 C1682 1.415 . S
H1684 C1681 0.999 . S
H1685 C1666 0.913 . S
H1686 C1704 0.951 . S
H1687 C1706 0.951 . S
H1688 C1708 0.950 . S
H1689 C1709 0.950 . S
H1690 C1711 0.950 . S
H1691 C1714 0.950 . S
H1692 C1715 0.950 . S
H1693 C1717 0.950 . S
H1694 C1718 0.950 . S
H1695 C1719 0.951 . S
H1696 C1721 0.951 . S
H1697 C1723 0.950 . S
H1698 C1724 0.950 . S
H1699 C1726 0.950 . S
H1700 C1729 0.950 . S
H1701 C1730 0.950 . S
H1702 C1732 0.950 . S
H1703 C1733 0.950 . S
C1704 H1686 0.951 . S
C1704 C1705 1.366 . S
C1704 C1706 1.388 . S
C1705 C1704 1.366 . S
C1705 C1709 1.385 . S
C1706 H1687 0.951 . S
C1706 C1704 1.388 . S
C1706 C1707 1.366 . S
C1707 C1706 1.366 . S
C1707 C1708 1.414 . S
C1707 C1710 1.499 . S
C1708 H1688 0.950 . S
C1708 C1707 1.414 . S
C1708 C1709 1.374 . S
C1709 H1689 0.950 . S
C1709 C1705 1.385 . S
C1709 C1708 1.374 . S
C1710 C1707 1.499 . S
C1710 C1711 1.373 . S
C1710 C1712 1.389 . S
C1711 H1690 0.950 . S
C1711 C1710 1.373 . S
C1711 C1727 1.377 . S
C1712 C1710 1.389 . S
C1712 C1713 1.524 . S
C1712 C1726 1.377 . S
C1713 C1712 1.524 . S
C1713 C1714 1.397 . S
C1713 C1718 1.363 . S
C1714 H1691 0.950 . S
C1714 C1713 1.397 . S
C1714 C1715 1.334 . S
C1715 H1692 0.950 . S
C1715 C1714 1.334 . S
C1715 C1716 1.287 . S
C1716 C1715 1.287 . S
C1716 C1717 1.524 . S
C1716 H1735 0.913 . S
C1717 H1693 0.950 . S
C1717 C1716 1.524 . S
C1717 C1718 1.415 . S
C1718 H1694 0.950 . S
C1718 C1713 1.363 . S
C1718 C1717 1.415 . S
C1719 H1695 0.951 . S
C1719 C1720 1.366 . S
C1719 C1721 1.388 . S
C1720 C1719 1.366 . S
C1720 C1724 1.385 . S
C1721 H1696 0.951 . S
C1721 C1719 1.388 . S
C1721 C1722 1.366 . S
C1722 C1721 1.366 . S
C1722 C1723 1.414 . S
C1722 C1725 1.499 . S
C1723 H1697 0.950 . S
C1723 C1722 1.414 . S
C1723 C1724 1.374 . S
C1724 H1698 0.950 . S
C1724 C1720 1.385 . S
C1724 C1723 1.374 . S
C1725 C1722 1.499 . S
C1725 C1726 1.373 . S
C1725 C1727 1.389 . S
C1726 H1699 0.950 . S
C1726 C1712 1.377 . S
C1726 C1725 1.373 . S
C1727 C1711 1.377 . S
C1727 C1725 1.389 . S
C1727 C1728 1.524 . S
C1728 C1727 1.524 . S
C1728 C1729 1.397 . S
C1728 C1733 1.363 . S
C1729 H1700 0.950 . S
C1729 C1728 1.397 . S
C1729 C1730 1.334 . S
C1730 H1701 0.950 . S
C1730 C1729 1.334 . S
C1730 C1731 1.287 . S
C1731 C1730 1.287 . S
C1731 C1732 1.524 . S
C1731 H1734 0.999 . S
C1732 H1702 0.950 . S
C1732 C1731 1.524 . S
C1732 C1733 1.415 . S
C1733 H1703 0.950 . S
C1733 C1728 1.363 . S
C1733 C1732 1.415 . S
H1734 C1731 0.999 . S
H1735 C1716 0.913 . S
H1736 C1754 0.951 . S
H1737 C1756 0.951 . S
H1738 C1758 0.950 . S
H1739 C1759 0.950 . S
H1740 C1761 0.950 . S
H1741 C1764 0.950 . S
H1742 C1765 0.950 . S
H1743 C1767 0.950 . S
H1744 C1768 0.950 . S
H1745 C1769 0.951 . S
H1746 C1771 0.951 . S
H1747 C1773 0.950 . S
H1748 C1774 0.950 . S
H1749 C1776 0.950 . S
H1750 C1779 0.950 . S
H1751 C1780 0.950 . S
H1752 C1782 0.950 . S
H1753 C1783 0.950 . S
C1754 H1736 0.951 . S
C1754 C1755 1.366 . S
C1754 C1756 1.388 . S
C1755 C1754 1.366 . S
C1755 C1759 1.385 . S
C1756 H1737 0.951 . S
C1756 C1754 1.388 . S
C1756 C1757 1.366 . S
C1757 C1756 1.366 . S
C1757 C1758 1.414 . S
C1757 C1760 1.499 . S
C1758 H1738 0.950 . S
C1758 C1757 1.414 . S
C1758 C1759 1.374 . S
C1759 H1739 0.950 . S
C1759 C1755 1.385 . S
C1759 C1758 1.374 . S
C1760 C1757 1.499 . S
C1760 C1761 1.373 . S
C1760 C1762 1.389 . S
C1761 H1740 0.950 . S
C1761 C1760 1.373 . S
C1761 C1777 1.377 . S
C1762 C1760 1.389 . S
C1762 C1763 1.524 . S
C1762 C1776 1.377 . S
C1763 C1762 1.524 . S
C1763 C1764 1.397 . S
C1763 C1768 1.363 . S
C1764 H1741 0.950 . S
C1764 C1763 1.397 . S
C1764 C1765 1.334 . S
C1765 H1742 0.950 . S
C1765 C1764 1.334 . S
C1765 C1766 1.287 . S
C1766 C1765 1.287 . S
C1766 C1767 1.524 . S
C1766 H1785 0.913 . S
C1767 H1743 0.950 . S
C1767 C1766 1.524 . S
C1767 C1768 1.415 . S
C1768 H1744 0.950 . S
C1768 C1763 1.363 . S
C1768 C1767 1.415 . S
C1769 H1745 0.951 . S
C1769 C1770 1.366 . S
C1769 C1771 1.388 . S
C1770 C1769 1.366 . S
C1770 C1774 1.385 . S
C1771 H1746 0.951 . S
C1771 C1769 1.388 . S
C1771 C1772 1.366 . S
C1772 C1771 1.366 . S
C1772 C1773 1.414 . S
C1772 C1775 1.499 . S
C1773 H1747 0.950 . S
C1773 C1772 1.414 . S
C1773 C1774 1.374 . S
C1774 H1748 0.950 . S
C1774 C1770 1.385 . S
C1774 C1773 1.374 . S
C1775 C1772 1.499 . S
C1775 C1776 1.373 . S
C1775 C1777 1.389 . S
C1776 H1749 0.950 . S
C1776 C1762 1.377 . S
C1776 C1775 1.373 . S
C1777 C1761 1.377 . S
C1777 C1775 1.389 . S
C1777 C1778 1.524 . S
C1778 C1777 1.524 . S
C1778 C1779 1.397 . S
C1778 C1783 1.363 . S
C1779 H1750 0.950 . S
C1779 C1778 1.397 . S
C1779 C1780 1.334 . S
C1780 H1751 0.950 . S
C1780 C1779 1.334 . S
C1780 C1781 1.287 . S
C1781 C1780 1.287 . S
C1781 C1782 1.524 . S
C1781 H1784 0.999 . S
C1782 H1752 0.950 . S
C1782 C1781 1.524 . S
C1782 C1783 1.415 . S
C1783 H1753 0.950 . S
C1783 C1778 1.363 . S
C1783 C1782 1.415 . S
H1784 C1781 0.999 . S
H1785 C1766 0.913 . S
H1786 C1804 0.951 . S
H1787 C1806 0.951 . S
H1788 C1808 0.950 . S
H1789 C1809 0.950 . S
H1790 C1811 0.950 . S
H1791 C1814 0.950 . S
H1792 C1815 0.950 . S
H1793 C1817 0.950 . S
H1794 C1818 0.950 . S
H1795 C1819 0.951 . S
H1796 C1821 0.951 . S
H1797 C1823 0.950 . S
H1798 C1824 0.950 . S
H1799 C1826 0.950 . S
H1800 C1829 0.950 . S
H1801 C1830 0.950 . S
H1802 C1832 0.950 . S
H1803 C1833 0.950 . S
C1804 H1786 0.951 . S
C1804 C1805 1.366 . S
C1804 C1806 1.388 . S
C1805 C1804 1.366 . S
C1805 C1809 1.385 . S
C1806 H1787 0.951 . S
C1806 C1804 1.388 . S
C1806 C1807 1.366 . S
C1807 C1806 1.366 . S
C1807 C1808 1.414 . S
C1807 C1810 1.499 . S
C1808 H1788 0.950 . S
C1808 C1807 1.414 . S
C1808 C1809 1.374 . S
C1809 H1789 0.950 . S
C1809 C1805 1.385 . S
C1809 C1808 1.374 . S
C1810 C1807 1.499 . S
C1810 C1811 1.373 . S
C1810 C1812 1.389 . S
C1811 H1790 0.950 . S
C1811 C1810 1.373 . S
C1811 C1827 1.377 . S
C1812 C1810 1.389 . S
C1812 C1813 1.524 . S
C1812 C1826 1.377 . S
C1813 C1812 1.524 . S
C1813 C1814 1.397 . S
C1813 C1818 1.363 . S
C1814 H1791 0.950 . S
C1814 C1813 1.397 . S
C1814 C1815 1.334 . S
C1815 H1792 0.950 . S
C1815 C1814 1.334 . S
C1815 C1816 1.287 . S
C1816 C1815 1.287 . S
C1816 C1817 1.524 . S
C1816 H1835 0.913 . S
C1817 H1793 0.950 . S
C1817 C1816 1.524 . S
C1817 C1818 1.415 . S
C1818 H1794 0.950 . S
C1818 C1813 1.363 . S
C1818 C1817 1.415 . S
C1819 H1795 0.951 . S
C1819 C1820 1.366 . S
C1819 C1821 1.388 . S
C1820 C1819 1.366 . S
C1820 C1824 1.385 . S
C1821 H1796 0.951 . S
C1821 C1819 1.388 . S
C1821 C1822 1.366 . S
C1822 C1821 1.366 . S
C1822 C1823 1.414 . S
C1822 C1825 1.499 . S
C1823 H1797 0.950 . S
C1823 C1822 1.414 . S
C1823 C1824 1.374 . S
C1824 H1798 0.950 . S
C1824 C1820 1.385 . S
C1824 C1823 1.374 . S
C1825 C1822 1.499 . S
C1825 C1826 1.373 . S
C1825 C1827 1.389 . S
C1826 H1799 0.950 . S
C1826 C1812 1.377 . S
C1826 C1825 1.373 . S
C1827 C1811 1.377 . S
C1827 C1825 1.389 . S
C1827 C1828 1.524 . S
C1828 C1827 1.524 . S
C1828 C1829 1.397 . S
C1828 C1833 1.363 . S
C1829 H1800 0.950 . S
C1829 C1828 1.397 . S
C1829 C1830 1.334 . S
C1830 H1801 0.950 . S
C1830 C1829 1.334 . S
C1830 C1831 1.287 . S
C1831 C1830 1.287 . S
C1831 C1832 1.524 . S
C1831 H1834 0.999 . S
C1832 H1802 0.950 . S
C1832 C1831 1.524 . S
C1832 C1833 1.415 . S
C1833 H1803 0.950 . S
C1833 C1828 1.363 . S
C1833 C1832 1.415 . S
H1834 C1831 0.999 . S
H1835 C1816 0.913 . S
H1836 C1854 0.951 . S
H1837 C1856 0.951 . S
H1838 C1858 0.950 . S
H1839 C1859 0.950 . S
H1840 C1861 0.950 . S
H1841 C1864 0.950 . S
H1842 C1865 0.950 . S
H1843 C1867 0.950 . S
H1844 C1868 0.950 . S
H1845 C1869 0.951 . S
H1846 C1871 0.951 . S
H1847 C1873 0.950 . S
H1848 C1874 0.950 . S
H1849 C1876 0.950 . S
H1850 C1879 0.950 . S
H1851 C1880 0.950 . S
H1852 C1882 0.950 . S
H1853 C1883 0.950 . S
C1854 H1836 0.951 . S
C1854 C1855 1.366 . S
C1854 C1856 1.388 . S
C1855 C1854 1.366 . S
C1855 C1859 1.385 . S
C1856 H1837 0.951 . S
C1856 C1854 1.388 . S
C1856 C1857 1.366 . S
C1857 C1856 1.366 . S
C1857 C1858 1.414 . S
C1857 C1860 1.499 . S
C1858 H1838 0.950 . S
C1858 C1857 1.414 . S
C1858 C1859 1.374 . S
C1859 H1839 0.950 . S
C1859 C1855 1.385 . S
C1859 C1858 1.374 . S
C1860 C1857 1.499 . S
C1860 C1861 1.373 . S
C1860 C1862 1.389 . S
C1861 H1840 0.950 . S
C1861 C1860 1.373 . S
C1861 C1877 1.377 . S
C1862 C1860 1.389 . S
C1862 C1863 1.524 . S
C1862 C1876 1.377 . S
C1863 C1862 1.524 . S
C1863 C1864 1.397 . S
C1863 C1868 1.363 . S
C1864 H1841 0.950 . S
C1864 C1863 1.397 . S
C1864 C1865 1.334 . S
C1865 H1842 0.950 . S
C1865 C1864 1.334 . S
C1865 C1866 1.287 . S
C1866 C1865 1.287 . S
C1866 C1867 1.524 . S
C1866 H1885 0.913 . S
C1867 H1843 0.950 . S
C1867 C1866 1.524 . S
C1867 C1868 1.415 . S
C1868 H1844 0.950 . S
C1868 C1863 1.363 . S
C1868 C1867 1.415 . S
C1869 H1845 0.951 . S
C1869 C1870 1.366 . S
C1869 C1871 1.388 . S
C1870 C1869 1.366 . S
C1870 C1874 1.385 . S
C1871 H1846 0.951 . S
C1871 C1869 1.388 . S
C1871 C1872 1.366 . S
C1872 C1871 1.366 . S
C1872 C1873 1.414 . S
C1872 C1875 1.499 . S
C1873 H1847 0.950 . S
C1873 C1872 1.414 . S
C1873 C1874 1.374 . S
C1874 H1848 0.950 . S
C1874 C1870 1.385 . S
C1874 C1873 1.374 . S
C1875 C1872 1.499 . S
C1875 C1876 1.373 . S
C1875 C1877 1.389 . S
C1876 H1849 0.950 . S
C1876 C1862 1.377 . S
C1876 C1875 1.373 . S
C1877 C1861 1.377 . S
C1877 C1875 1.389 . S
C1877 C1878 1.524 . S
C1878 C1877 1.524 . S
C1878 C1879 1.397 . S
C1878 C1883 1.363 . S
C1879 H1850 0.950 . S
C1879 C1878 1.397 . S
C1879 C1880 1.334 . S
C1880 H1851 0.950 . S
C1880 C1879 1.334 . S
C1880 C1881 1.287 . S
C1881 C1880 1.287 . S
C1881 C1882 1.524 . S
C1881 H1884 0.999 . S
C1882 H1852 0.950 . S
C1882 C1881 1.524 . S
C1882 C1883 1.415 . S
C1883 H1853 0.950 . S
C1883 C1878 1.363 . S
C1883 C1882 1.415 . S
H1884 C1881 0.999 . S
H1885 C1866 0.913 . S
H1886 C1904 0.951 . S
H1887 C1906 0.951 . S
H1888 C1908 0.950 . S
H1889 C1909 0.950 . S
H1890 C1911 0.950 . S
H1891 C1914 0.950 . S
H1892 C1915 0.950 . S
H1893 C1917 0.950 . S
H1894 C1918 0.950 . S
H1895 C1919 0.951 . S
H1896 C1921 0.951 . S
H1897 C1923 0.950 . S
H1898 C1924 0.950 . S
H1899 C1926 0.950 . S
H1900 C1929 0.950 . S
H1901 C1930 0.950 . S
H1902 C1932 0.950 . S
H1903 C1933 0.950 . S
C1904 H1886 0.951 . S
C1904 C1905 1.366 . S
C1904 C1906 1.388 . S
C1905 C1904 1.366 . S
C1905 C1909 1.385 . S
C1906 H1887 0.951 . S
C1906 C1904 1.388 . S
C1906 C1907 1.366 . S
C1907 C1906 1.366 . S
C1907 C1908 1.414 . S
C1907 C1910 1.499 . S
C1908 H1888 0.950 . S
C1908 C1907 1.414 . S
C1908 C1909 1.374 . S
C1909 H1889 0.950 . S
C1909 C1905 1.385 . S
C1909 C1908 1.374 . S
C1910 C1907 1.499 . S
C1910 C1911 1.373 . S
C1910 C1912 1.389 . S
C1911 H1890 0.950 . S
C1911 C1910 1.373 . S
C1911 C1927 1.377 . S
C1912 C1910 1.389 . S
C1912 C1913 1.524 . S
C1912 C1926 1.377 . S
C1913 C1912 1.524 . S
C1913 C1914 1.397 . S
C1913 C1918 1.363 . S
C1914 H1891 0.950 . S
C1914 C1913 1.397 . S
C1914 C1915 1.334 . S
C1915 H1892 0.950 . S
C1915 C1914 1.334 . S
C1915 C1916 1.287 . S
C1916 C1915 1.287 . S
C1916 C1917 1.524 . S
C1916 H1935 0.913 . S
C1917 H1893 0.950 . S
C1917 C1916 1.524 . S
C1917 C1918 1.415 . S
C1918 H1894 0.950 . S
C1918 C1913 1.363 . S
C1918 C1917 1.415 . S
C1919 H1895 0.951 . S
C1919 C1920 1.366 . S
C1919 C1921 1.388 . S
C1920 C1919 1.366 . S
C1920 C1924 1.385 . S
C1921 H1896 0.951 . S
C1921 C1919 1.388 . S
C1921 C1922 1.366 . S
C1922 C1921 1.366 . S
C1922 C1923 1.414 . S
C1922 C1925 1.499 . S
C1923 H1897 0.950 . S
C1923 C1922 1.414 . S
C1923 C1924 1.374 . S
C1924 H1898 0.950 . S
C1924 C1920 1.385 . S
C1924 C1923 1.374 . S
C1925 C1922 1.499 . S
C1925 C1926 1.373 . S
C1925 C1927 1.389 . S
C1926 H1899 0.950 . S
C1926 C1912 1.377 . S
C1926 C1925 1.373 . S
C1927 C1911 1.377 . S
C1927 C1925 1.389 . S
C1927 C1928 1.524 . S
C1928 C1927 1.524 . S
C1928 C1929 1.397 . S
C1928 C1933 1.363 . S
C1929 H1900 0.950 . S
C1929 C1928 1.397 . S
C1929 C1930 1.334 . S
C1930 H1901 0.950 . S
C1930 C1929 1.334 . S
C1930 C1931 1.287 . S
C1931 C1930 1.287 . S
C1931 C1932 1.524 . S
C1931 H1934 0.999 . S
C1932 H1902 0.950 . S
C1932 C1931 1.524 . S
C1932 C1933 1.415 . S
C1933 H1903 0.950 . S
C1933 C1928 1.363 . S
C1933 C1932 1.415 . S
H1934 C1931 0.999 . S
H1935 C1916 0.913 . S
H1936 C1954 0.951 . S
H1937 C1956 0.951 . S
H1938 C1958 0.950 . S
H1939 C1959 0.950 . S
H1940 C1961 0.950 . S
H1941 C1964 0.950 . S
H1942 C1965 0.950 . S
H1943 C1967 0.950 . S
H1944 C1968 0.950 . S
H1945 C1969 0.951 . S
H1946 C1971 0.951 . S
H1947 C1973 0.950 . S
H1948 C1974 0.950 . S
H1949 C1976 0.950 . S
H1950 C1979 0.950 . S
H1951 C1980 0.950 . S
H1952 C1982 0.950 . S
H1953 C1983 0.950 . S
C1954 H1936 0.951 . S
C1954 C1955 1.366 . S
C1954 C1956 1.388 . S
C1955 C1954 1.366 . S
C1955 C1959 1.385 . S
C1956 H1937 0.951 . S
C1956 C1954 1.388 . S
C1956 C1957 1.366 . S
C1957 C1956 1.366 . S
C1957 C1958 1.414 . S
C1957 C1960 1.499 . S
C1958 H1938 0.950 . S
C1958 C1957 1.414 . S
C1958 C1959 1.374 . S
C1959 H1939 0.950 . S
C1959 C1955 1.385 . S
C1959 C1958 1.374 . S
C1960 C1957 1.499 . S
C1960 C1961 1.373 . S
C1960 C1962 1.389 . S
C1961 H1940 0.950 . S
C1961 C1960 1.373 . S
C1961 C1977 1.377 . S
C1962 C1960 1.389 . S
C1962 C1963 1.524 . S
C1962 C1976 1.377 . S
C1963 C1962 1.524 . S
C1963 C1964 1.397 . S
C1963 C1968 1.363 . S
C1964 H1941 0.950 . S
C1964 C1963 1.397 . S
C1964 C1965 1.334 . S
C1965 H1942 0.950 . S
C1965 C1964 1.334 . S
C1965 C1966 1.287 . S
C1966 C1965 1.287 . S
C1966 C1967 1.524 . S
C1966 H1985 0.913 . S
C1967 H1943 0.950 . S
C1967 C1966 1.524 . S
C1967 C1968 1.415 . S
C1968 H1944 0.950 . S
C1968 C1963 1.363 . S
C1968 C1967 1.415 . S
C1969 H1945 0.951 . S
C1969 C1970 1.366 . S
C1969 C1971 1.388 . S
C1970 C1969 1.366 . S
C1970 C1974 1.385 . S
C1971 H1946 0.951 . S
C1971 C1969 1.388 . S
C1971 C1972 1.366 . S
C1972 C1971 1.366 . S
C1972 C1973 1.414 . S
C1972 C1975 1.499 . S
C1973 H1947 0.950 . S
C1973 C1972 1.414 . S
C1973 C1974 1.374 . S
C1974 H1948 0.950 . S
C1974 C1970 1.385 . S
C1974 C1973 1.374 . S
C1975 C1972 1.499 . S
C1975 C1976 1.373 . S
C1975 C1977 1.389 . S
C1976 H1949 0.950 . S
C1976 C1962 1.377 . S
C1976 C1975 1.373 . S
C1977 C1961 1.377 . S
C1977 C1975 1.389 . S
C1977 C1978 1.524 . S
C1978 C1977 1.524 . S
C1978 C1979 1.397 . S
C1978 C1983 1.363 . S
C1979 H1950 0.950 . S
C1979 C1978 1.397 . S
C1979 C1980 1.334 . S
C1980 H1951 0.950 . S
C1980 C1979 1.334 . S
C1980 C1981 1.287 . S
C1981 C1980 1.287 . S
C1981 C1982 1.524 . S
C1981 H1984 0.999 . S
C1982 H1952 0.950 . S
C1982 C1981 1.524 . S
C1982 C1983 1.415 . S
C1983 H1953 0.950 . S
C1983 C1978 1.363 . S
C1983 C1982 1.415 . S
H1984 C1981 0.999 . S
H1985 C1966 0.913 . S
H1986 C2004 0.951 . S
H1987 C2006 0.951 . S
H1988 C2008 0.950 . S
H1989 C2009 0.950 . S
H1990 C2011 0.950 . S
H1991 C2014 0.950 . S
H1992 C2015 0.950 . S
H1993 C2017 0.950 . S
H1994 C2018 0.950 . S
H1995 C2019 0.951 . S
H1996 C2021 0.951 . S
H1997 C2023 0.950 . S
H1998 C2024 0.950 . S
H1999 C2026 0.950 . S
H2000 C2029 0.950 . S
H2001 C2030 0.950 . S
H2002 C2032 0.950 . S
H2003 C2033 0.950 . S
C2004 H1986 0.951 . S
C2004 C2005 1.366 . S
C2004 C2006 1.388 . S
C2005 C2004 1.366 . S
C2005 C2009 1.385 . S
C2006 H1987 0.951 . S
C2006 C2004 1.388 . S
C2006 C2007 1.366 . S
C2007 C2006 1.366 . S
C2007 C2008 1.414 . S
C2007 C2010 1.499 . S
C2008 H1988 0.950 . S
C2008 C2007 1.414 . S
C2008 C2009 1.374 . S
C2009 H1989 0.950 . S
C2009 C2005 1.385 . S
C2009 C2008 1.374 . S
C2010 C2007 1.499 . S
C2010 C2011 1.373 . S
C2010 C2012 1.389 . S
C2011 H1990 0.950 . S
C2011 C2010 1.373 . S
C2011 C2027 1.377 . S
C2012 C2010 1.389 . S
C2012 C2013 1.524 . S
C2012 C2026 1.377 . S
C2013 C2012 1.524 . S
C2013 C2014 1.397 . S
C2013 C2018 1.363 . S
C2014 H1991 0.950 . S
C2014 C2013 1.397 . S
C2014 C2015 1.334 . S
C2015 H1992 0.950 . S
C2015 C2014 1.334 . S
C2015 C2016 1.287 . S
C2016 C2015 1.287 . S
C2016 C2017 1.524 . S
C2016 H2035 0.913 . S
C2017 H1993 0.950 . S
C2017 C2016 1.524 . S
C2017 C2018 1.415 . S
C2018 H1994 0.950 . S
C2018 C2013 1.363 . S
C2018 C2017 1.415 . S
C2019 H1995 0.951 . S
C2019 C2020 1.366 . S
C2019 C2021 1.388 . S
C2020 C2019 1.366 . S
C2020 C2024 1.385 . S
C2021 H1996 0.951 . S
C2021 C2019 1.388 . S
C2021 C2022 1.366 . S
C2022 C2021 1.366 . S
C2022 C2023 1.414 . S
C2022 C2025 1.499 . S
C2023 H1997 0.950 . S
C2023 C2022 1.414 . S
C2023 C2024 1.374 . S
C2024 H1998 0.950 . S
C2024 C2020 1.385 . S
C2024 C2023 1.374 . S
C2025 C2022 1.499 . S
C2025 C2026 1.373 . S
C2025 C2027 1.389 . S
C2026 H1999 0.950 . S
C2026 C2012 1.377 . S
C2026 C2025 1.373 . S
C2027 C2011 1.377 . S
C2027 C2025 1.389 . S
C2027 C2028 1.524 . S
C2028 C2027 1.524 . S
C2028 C2029 1.397 . S
C2028 C2033 1.363 . S
C2029 H2000 0.950 . S
C2029 C2028 1.397 . S
C2029 C2030 1.334 . S
C2030 H2001 0.950 . S
C2030 C2029 1.334 . S
C2030 C2031 1.287 . S
C2031 C2030 1.287 . S
C2031 C2032 1.524 . S
C2031 H2034 0.999 . S
C2032 H2002 0.950 . S
C2032 C2031 1.524 . S
C2032 C2033 1.415 . S
C2033 H2003 0.950 . S
C2033 C2028 1.363 . S
C2033 C2032 1.415 . S
H2034 C2031 0.999 . S
H2035 C2016 0.913 . S
H2036 C2054 0.951 . S
H2037 C2056 0.951 . S
H2038 C2058 0.950 . S
H2039 C2059 0.950 . S
H2040 C2061 0.950 . S
H2041 C2064 0.950 . S
H2042 C2065 0.950 . S
H2043 C2067 0.950 . S
H2044 C2068 0.950 . S
H2045 C2069 0.951 . S
H2046 C2071 0.951 . S
H2047 C2073 0.950 . S
H2048 C2074 0.950 . S
H2049 C2076 0.950 . S
H2050 C2079 0.950 . S
H2051 C2080 0.950 . S
H2052 C2082 0.950 . S
H2053 C2083 0.950 . S
C2054 H2036 0.951 . S
C2054 C2055 1.366 . S
C2054 C2056 1.388 . S
C2055 C2054 1.366 . S
C2055 C2059 1.385 . S
C2056 H2037 0.951 . S
C2056 C2054 1.388 . S
C2056 C2057 1.366 . S
C2057 C2056 1.366 . S
C2057 C2058 1.414 . S
C2057 C2060 1.499 . S
C2058 H2038 0.950 . S
C2058 C2057 1.414 . S
C2058 C2059 1.374 . S
C2059 H2039 0.950 . S
C2059 C2055 1.385 . S
C2059 C2058 1.374 . S
C2060 C2057 1.499 . S
C2060 C2061 1.373 . S
C2060 C2062 1.389 . S
C2061 H2040 0.950 . S
C2061 C2060 1.373 . S
C2061 C2077 1.377 . S
C2062 C2060 1.389 . S
C2062 C2063 1.524 . S
C2062 C2076 1.377 . S
C2063 C2062 1.524 . S
C2063 C2064 1.397 . S
C2063 C2068 1.363 . S
C2064 H2041 0.950 . S
C2064 C2063 1.397 . S
C2064 C2065 1.334 . S
C2065 H2042 0.950 . S
C2065 C2064 1.334 . S
C2065 C2066 1.287 . S
C2066 C2065 1.287 . S
C2066 C2067 1.524 . S
C2066 H2085 0.913 . S
C2067 H2043 0.950 . S
C2067 C2066 1.524 . S
C2067 C2068 1.415 . S
C2068 H2044 0.950 . S
C2068 C2063 1.363 . S
C2068 C2067 1.415 . S
C2069 H2045 0.951 . S
C2069 C2070 1.366 . S
C2069 C2071 1.388 . S
C2070 C2069 1.366 . S
C2070 C2074 1.385 . S
C2071 H2046 0.951 . S
C2071 C2069 1.388 . S
C2071 C2072 1.366 . S
C2072 C2071 1.366 . S
C2072 C2073 1.414 . S
C2072 C2075 1.499 . S
C2073 H2047 0.950 . S
C2073 C2072 1.414 . S
C2073 C2074 1.374 . S
C2074 H2048 0.950 . S
C2074 C2070 1.385 . S
C2074 C2073 1.374 . S
C2075 C2072 1.499 . S
C2075 C2076 1.373 . S
C2075 C2077 1.389 . S
C2076 H2049 0.950 . S
C2076 C2062 1.377 . S
C2076 C2075 1.373 . S
C2077 C2061 1.377 . S
C2077 C2075 1.389 . S
C2077 C2078 1.524 . S
C2078 C2077 1.524 . S
C2078 C2079 1.397 . S
C2078 C2083 1.363 . S
C2079 H2050 0.950 . S
C2079 C2078 1.397 . S
C2079 C2080 1.334 . S
C2080 H2051 0.950 . S
C2080 C2079 1.334 . S
C2080 C2081 1.287 . S
C2081 C2080 1.287 . S
C2081 C2082 1.524 . S
C2081 H2084 0.999 . S
C2082 H2052 0.950 . S
C2082 C2081 1.524 . S
C2082 C2083 1.415 . S
C2083 H2053 0.950 . S
C2083 C2078 1.363 . S
C2083 C2082 1.415 . S
H2084 C2081 0.999 . S
H2085 C2066 0.913 . S
H2086 C2104 0.951 . S
H2087 C2106 0.951 . S
H2088 C2108 0.950 . S
H2089 C2109 0.950 . S
H2090 C2111 0.950 . S
H2091 C2114 0.950 . S
H2092 C2115 0.950 . S
H2093 C2117 0.950 . S
H2094 C2118 0.950 . S
H2095 C2119 0.951 . S
H2096 C2121 0.951 . S
H2097 C2123 0.950 . S
H2098 C2124 0.950 . S
H2099 C2126 0.950 . S
H2100 C2129 0.950 . S
H2101 C2130 0.950 . S
H2102 C2132 0.950 . S
H2103 C2133 0.950 . S
C2104 H2086 0.951 . S
C2104 C2105 1.366 . S
C2104 C2106 1.388 . S
C2105 C2104 1.366 . S
C2105 C2109 1.385 . S
C2106 H2087 0.951 . S
C2106 C2104 1.388 . S
C2106 C2107 1.366 . S
C2107 C2106 1.366 . S
C2107 C2108 1.414 . S
C2107 C2110 1.499 . S
C2108 H2088 0.950 . S
C2108 C2107 1.414 . S
C2108 C2109 1.374 . S
C2109 H2089 0.950 . S
C2109 C2105 1.385 . S
C2109 C2108 1.374 . S
C2110 C2107 1.499 . S
C2110 C2111 1.373 . S
C2110 C2112 1.389 . S
C2111 H2090 0.950 . S
C2111 C2110 1.373 . S
C2111 C2127 1.377 . S
C2112 C2110 1.389 . S
C2112 C2113 1.524 . S
C2112 C2126 1.377 . S
C2113 C2112 1.524 . S
C2113 C2114 1.397 . S
C2113 C2118 1.363 . S
C2114 H2091 0.950 . S
C2114 C2113 1.397 . S
C2114 C2115 1.334 . S
C2115 H2092 0.950 . S
C2115 C2114 1.334 . S
C2115 C2116 1.287 . S
C2116 C2115 1.287 . S
C2116 C2117 1.524 . S
C2116 H2135 0.913 . S
C2117 H2093 0.950 . S
C2117 C2116 1.524 . S
C2117 C2118 1.415 . S
C2118 H2094 0.950 . S
C2118 C2113 1.363 . S
C2118 C2117 1.415 . S
C2119 H2095 0.951 . S
C2119 C2120 1.366 . S
C2119 C2121 1.388 . S
C2120 C2119 1.366 . S
C2120 C2124 1.385 . S
C2121 H2096 0.951 . S
C2121 C2119 1.388 . S
C2121 C2122 1.366 . S
C2122 C2121 1.366 . S
C2122 C2123 1.414 . S
C2122 C2125 1.499 . S
C2123 H2097 0.950 . S
C2123 C2122 1.414 . S
C2123 C2124 1.374 . S
C2124 H2098 0.950 . S
C2124 C2120 1.385 . S
C2124 C2123 1.374 . S
C2125 C2122 1.499 . S
C2125 C2126 1.373 . S
C2125 C2127 1.389 . S
C2126 H2099 0.950 . S
C2126 C2112 1.377 . S
C2126 C2125 1.373 . S
C2127 C2111 1.377 . S
C2127 C2125 1.389 . S
C2127 C2128 1.524 . S
C2128 C2127 1.524 . S
C2128 C2129 1.397 . S
C2128 C2133 1.363 . S
C2129 H2100 0.950 . S
C2129 C2128 1.397 . S
C2129 C2130 1.334 . S
C2130 H2101 0.950 . S
C2130 C2129 1.334 . S
C2130 C2131 1.287 . S
C2131 C2130 1.287 . S
C2131 C2132 1.524 . S
C2131 H2134 0.999 . S
C2132 H2102 0.950 . S
C2132 C2131 1.524 . S
C2132 C2133 1.415 . S
C2133 H2103 0.950 . S
C2133 C2128 1.363 . S
C2133 C2132 1.415 . S
H2134 C2131 0.999 . S
H2135 C2116 0.913 . S
H2136 C2154 0.951 . S
H2137 C2156 0.951 . S
H2138 C2158 0.950 . S
H2139 C2159 0.950 . S
H2140 C2161 0.950 . S
H2141 C2164 0.950 . S
H2142 C2165 0.950 . S
H2143 C2167 0.950 . S
H2144 C2168 0.950 . S
H2145 C2169 0.951 . S
H2146 C2171 0.951 . S
H2147 C2173 0.950 . S
H2148 C2174 0.950 . S
H2149 C2176 0.950 . S
H2150 C2179 0.950 . S
H2151 C2180 0.950 . S
H2152 C2182 0.950 . S
H2153 C2183 0.950 . S
C2154 H2136 0.951 . S
C2154 C2155 1.366 . S
C2154 C2156 1.388 . S
C2155 C2154 1.366 . S
C2155 C2159 1.385 . S
C2156 H2137 0.951 . S
C2156 C2154 1.388 . S
C2156 C2157 1.366 . S
C2157 C2156 1.366 . S
C2157 C2158 1.414 . S
C2157 C2160 1.499 . S
C2158 H2138 0.950 . S
C2158 C2157 1.414 . S
C2158 C2159 1.374 . S
C2159 H2139 0.950 . S
C2159 C2155 1.385 . S
C2159 C2158 1.374 . S
C2160 C2157 1.499 . S
C2160 C2161 1.373 . S
C2160 C2162 1.389 . S
C2161 H2140 0.950 . S
C2161 C2160 1.373 . S
C2161 C2177 1.377 . S
C2162 C2160 1.389 . S
C2162 C2163 1.524 . S
C2162 C2176 1.377 . S
C2163 C2162 1.524 . S
C2163 C2164 1.397 . S
C2163 C2168 1.363 . S
C2164 H2141 0.950 . S
C2164 C2163 1.397 . S
C2164 C2165 1.334 . S
C2165 H2142 0.950 . S
C2165 C2164 1.334 . S
C2165 C2166 1.287 . S
C2166 C2165 1.287 . S
C2166 C2167 1.524 . S
C2166 H2185 0.913 . S
C2167 H2143 0.950 . S
C2167 C2166 1.524 . S
C2167 C2168 1.415 . S
C2168 H2144 0.950 . S
C2168 C2163 1.363 . S
C2168 C2167 1.415 . S
C2169 H2145 0.951 . S
C2169 C2170 1.366 . S
C2169 C2171 1.388 . S
C2170 C2169 1.366 . S
C2170 C2174 1.385 . S
C2171 H2146 0.951 . S
C2171 C2169 1.388 . S
C2171 C2172 1.366 . S
C2172 C2171 1.366 . S
C2172 C2173 1.414 . S
C2172 C2175 1.499 . S
C2173 H2147 0.950 . S
C2173 C2172 1.414 . S
C2173 C2174 1.374 . S
C2174 H2148 0.950 . S
C2174 C2170 1.385 . S
C2174 C2173 1.374 . S
C2175 C2172 1.499 . S
C2175 C2176 1.373 . S
C2175 C2177 1.389 . S
C2176 H2149 0.950 . S
C2176 C2162 1.377 . S
C2176 C2175 1.373 . S
C2177 C2161 1.377 . S
C2177 C2175 1.389 . S
C2177 C2178 1.524 . S
C2178 C2177 1.524 . S
C2178 C2179 1.397 . S
C2178 C2183 1.363 . S
C2179 H2150 0.950 . S
C2179 C2178 1.397 . S
C2179 C2180 1.334 . S
C2180 H2151 0.950 . S
C2180 C2179 1.334 . S
C2180 C2181 1.287 . S
C2181 C2180 1.287 . S
C2181 C2182 1.524 . S
C2181 H2184 0.999 . S
C2182 H2152 0.950 . S
C2182 C2181 1.524 . S
C2182 C2183 1.415 . S
C2183 H2153 0.950 . S
C2183 C2178 1.363 . S
C2183 C2182 1.415 . S
H2184 C2181 0.999 . S
H2185 C2166 0.913 . S
H2186 C2204 0.951 . S
H2187 C2206 0.951 . S
H2188 C2208 0.950 . S
H2189 C2209 0.950 . S
H2190 C2211 0.950 . S
H2191 C2214 0.950 . S
H2192 C2215 0.950 . S
H2193 C2217 0.950 . S
H2194 C2218 0.950 . S
H2195 C2219 0.951 . S
H2196 C2221 0.951 . S
H2197 C2223 0.950 . S
H2198 C2224 0.950 . S
H2199 C2226 0.950 . S
H2200 C2229 0.950 . S
H2201 C2230 0.950 . S
H2202 C2232 0.950 . S
H2203 C2233 0.950 . S
C2204 H2186 0.951 . S
C2204 C2205 1.366 . S
C2204 C2206 1.388 . S
C2205 C2204 1.366 . S
C2205 C2209 1.385 . S
C2206 H2187 0.951 . S
C2206 C2204 1.388 . S
C2206 C2207 1.366 . S
C2207 C2206 1.366 . S
C2207 C2208 1.414 . S
C2207 C2210 1.499 . S
C2208 H2188 0.950 . S
C2208 C2207 1.414 . S
C2208 C2209 1.374 . S
C2209 H2189 0.950 . S
C2209 C2205 1.385 . S
C2209 C2208 1.374 . S
C2210 C2207 1.499 . S
C2210 C2211 1.373 . S
C2210 C2212 1.389 . S
C2211 H2190 0.950 . S
C2211 C2210 1.373 . S
C2211 C2227 1.377 . S
C2212 C2210 1.389 . S
C2212 C2213 1.524 . S
C2212 C2226 1.377 . S
C2213 C2212 1.524 . S
C2213 C2214 1.397 . S
C2213 C2218 1.363 . S
C2214 H2191 0.950 . S
C2214 C2213 1.397 . S
C2214 C2215 1.334 . S
C2215 H2192 0.950 . S
C2215 C2214 1.334 . S
C2215 C2216 1.287 . S
C2216 C2215 1.287 . S
C2216 C2217 1.524 . S
C2216 H2235 0.913 . S
C2217 H2193 0.950 . S
C2217 C2216 1.524 . S
C2217 C2218 1.415 . S
C2218 H2194 0.950 . S
C2218 C2213 1.363 . S
C2218 C2217 1.415 . S
C2219 H2195 0.951 . S
C2219 C2220 1.366 . S
C2219 C2221 1.388 . S
C2220 C2219 1.366 . S
C2220 C2224 1.385 . S
C2221 H2196 0.951 . S
C2221 C2219 1.388 . S
C2221 C2222 1.366 . S
C2222 C2221 1.366 . S
C2222 C2223 1.414 . S
C2222 C2225 1.499 . S
C2223 H2197 0.950 . S
C2223 C2222 1.414 . S
C2223 C2224 1.374 . S
C2224 H2198 0.950 . S
C2224 C2220 1.385 . S
C2224 C2223 1.374 . S
C2225 C2222 1.499 . S
C2225 C2226 1.373 . S
C2225 C2227 1.389 . S
C2226 H2199 0.950 . S
C2226 C2212 1.377 . S
C2226 C2225 1.373 . S
C2227 C2211 1.377 . S
C2227 C2225 1.389 . S
C2227 C2228 1.524 . S
C2228 C2227 1.524 . S
C2228 C2229 1.397 . S
C2228 C2233 1.363 . S
C2229 H2200 0.950 . S
C2229 C2228 1.397 . S
C2229 C2230 1.334 . S
C2230 H2201 0.950 . S
C2230 C2229 1.334 . S
C2230 C2231 1.287 . S
C2231 C2230 1.287 . S
C2231 C2232 1.524 . S
C2231 H2234 0.999 . S
C2232 H2202 0.950 . S
C2232 C2231 1.524 . S
C2232 C2233 1.415 . S
C2233 H2203 0.950 . S
C2233 C2228 1.363 . S
C2233 C2232 1.415 . S
H2234 C2231 0.999 . S
H2235 C2216 0.913 . S
H2236 C2254 0.951 . S
H2237 C2256 0.951 . S
H2238 C2258 0.950 . S
H2239 C2259 0.950 . S
H2240 C2261 0.950 . S
H2241 C2264 0.950 . S
H2242 C2265 0.950 . S
H2243 C2267 0.950 . S
H2244 C2268 0.950 . S
H2245 C2269 0.951 . S
H2246 C2271 0.951 . S
H2247 C2273 0.950 . S
H2248 C2274 0.950 . S
H2249 C2276 0.950 . S
H2250 C2279 0.950 . S
H2251 C2280 0.950 . S
H2252 C2282 0.950 . S
H2253 C2283 0.950 . S
C2254 H2236 0.951 . S
C2254 C2255 1.366 . S
C2254 C2256 1.388 . S
C2255 C2254 1.366 . S
C2255 C2259 1.385 . S
C2256 H2237 0.951 . S
C2256 C2254 1.388 . S
C2256 C2257 1.366 . S
C2257 C2256 1.366 . S
C2257 C2258 1.414 . S
C2257 C2260 1.499 . S
C2258 H2238 0.950 . S
C2258 C2257 1.414 . S
C2258 C2259 1.374 . S
C2259 H2239 0.950 . S
C2259 C2255 1.385 . S
C2259 C2258 1.374 . S
C2260 C2257 1.499 . S
C2260 C2261 1.373 . S
C2260 C2262 1.389 . S
C2261 H2240 0.950 . S
C2261 C2260 1.373 . S
C2261 C2277 1.377 . S
C2262 C2260 1.389 . S
C2262 C2263 1.524 . S
C2262 C2276 1.377 . S
C2263 C2262 1.524 . S
C2263 C2264 1.397 . S
C2263 C2268 1.363 . S
C2264 H2241 0.950 . S
C2264 C2263 1.397 . S
C2264 C2265 1.334 . S
C2265 H2242 0.950 . S
C2265 C2264 1.334 . S
C2265 C2266 1.287 . S
C2266 C2265 1.287 . S
C2266 C2267 1.524 . S
C2266 H2285 0.913 . S
C2267 H2243 0.950 . S
C2267 C2266 1.524 . S
C2267 C2268 1.415 . S
C2268 H2244 0.950 . S
C2268 C2263 1.363 . S
C2268 C2267 1.415 . S
C2269 H2245 0.951 . S
C2269 C2270 1.366 . S
C2269 C2271 1.388 . S
C2270 C2269 1.366 . S
C2270 C2274 1.385 . S
C2271 H2246 0.951 . S
C2271 C2269 1.388 . S
C2271 C2272 1.366 . S
C2272 C2271 1.366 . S
C2272 C2273 1.414 . S
C2272 C2275 1.499 . S
C2273 H2247 0.950 . S
C2273 C2272 1.414 . S
C2273 C2274 1.374 . S
C2274 H2248 0.950 . S
C2274 C2270 1.385 . S
C2274 C2273 1.374 . S
C2275 C2272 1.499 . S
C2275 C2276 1.373 . S
C2275 C2277 1.389 . S
C2276 H2249 0.950 . S
C2276 C2262 1.377 . S
C2276 C2275 1.373 . S
C2277 C2261 1.377 . S
C2277 C2275 1.389 . S
C2277 C2278 1.524 . S
C2278 C2277 1.524 . S
C2278 C2279 1.397 . S
C2278 C2283 1.363 . S
C2279 H2250 0.950 . S
C2279 C2278 1.397 . S
C2279 C2280 1.334 . S
C2280 H2251 0.950 . S
C2280 C2279 1.334 . S
C2280 C2281 1.287 . S
C2281 C2280 1.287 . S
C2281 C2282 1.524 . S
C2281 H2284 0.999 . S
C2282 H2252 0.950 . S
C2282 C2281 1.524 . S
C2282 C2283 1.415 . S
C2283 H2253 0.950 . S
C2283 C2278 1.363 . S
C2283 C2282 1.415 . S
H2284 C2281 0.999 . S
H2285 C2266 0.913 . S
H2286 C2304 0.951 . S
H2287 C2306 0.951 . S
H2288 C2308 0.950 . S
H2289 C2309 0.950 . S
H2290 C2311 0.950 . S
H2291 C2314 0.950 . S
H2292 C2315 0.950 . S
H2293 C2317 0.950 . S
H2294 C2318 0.950 . S
H2295 C2319 0.951 . S
H2296 C2321 0.951 . S
H2297 C2323 0.950 . S
H2298 C2324 0.950 . S
H2299 C2326 0.950 . S
H2300 C2329 0.950 . S
H2301 C2330 0.950 . S
H2302 C2332 0.950 . S
H2303 C2333 0.950 . S
C2304 H2286 0.951 . S
C2304 C2305 1.366 . S
C2304 C2306 1.388 . S
C2305 C2304 1.366 . S
C2305 C2309 1.385 . S
C2306 H2287 0.951 . S
C2306 C2304 1.388 . S
C2306 C2307 1.366 . S
C2307 C2306 1.366 . S
C2307 C2308 1.414 . S
C2307 C2310 1.499 . S
C2308 H2288 0.950 . S
C2308 C2307 1.414 . S
C2308 C2309 1.374 . S
C2309 H2289 0.950 . S
C2309 C2305 1.385 . S
C2309 C2308 1.374 . S
C2310 C2307 1.499 . S
C2310 C2311 1.373 . S
C2310 C2312 1.389 . S
C2311 H2290 0.950 . S
C2311 C2310 1.373 . S
C2311 C2327 1.377 . S
C2312 C2310 1.389 . S
C2312 C2313 1.524 . S
C2312 C2326 1.377 . S
C2313 C2312 1.524 . S
C2313 C2314 1.397 . S
C2313 C2318 1.363 . S
C2314 H2291 0.950 . S
C2314 C2313 1.397 . S
C2314 C2315 1.334 . S
C2315 H2292 0.950 . S
C2315 C2314 1.334 . S
C2315 C2316 1.287 . S
C2316 C2315 1.287 . S
C2316 C2317 1.524 . S
C2316 H2335 0.913 . S
C2317 H2293 0.950 . S
C2317 C2316 1.524 . S
C2317 C2318 1.415 . S
C2318 H2294 0.950 . S
C2318 C2313 1.363 . S
C2318 C2317 1.415 . S
C2319 H2295 0.951 . S
C2319 C2320 1.366 . S
C2319 C2321 1.388 . S
C2320 C2319 1.366 . S
C2320 C2324 1.385 . S
C2321 H2296 0.951 . S
C2321 C2319 1.388 . S
C2321 C2322 1.366 . S
C2322 C2321 1.366 . S
C2322 C2323 1.414 . S
C2322 C2325 1.499 . S
C2323 H2297 0.950 . S
C2323 C2322 1.414 . S
C2323 C2324 1.374 . S
C2324 H2298 0.950 . S
C2324 C2320 1.385 . S
C2324 C2323 1.374 . S
C2325 C2322 1.499 . S
C2325 C2326 1.373 . S
C2325 C2327 1.389 . S
C2326 H2299 0.950 . S
C2326 C2312 1.377 . S
C2326 C2325 1.373 . S
C2327 C2311 1.377 . S
C2327 C2325 1.389 . S
C2327 C2328 1.524 . S
C2328 C2327 1.524 . S
C2328 C2329 1.397 . S
C2328 C2333 1.363 . S
C2329 H2300 0.950 . S
C2329 C2328 1.397 . S
C2329 C2330 1.334 . S
C2330 H2301 0.950 . S
C2330 C2329 1.334 . S
C2330 C2331 1.287 . S
C2331 C2330 1.287 . S
C2331 C2332 1.524 . S
C2331 H2334 0.999 . S
C2332 H2302 0.950 . S
C2332 C2331 1.524 . S
C2332 C2333 1.415 . S
C2333 H2303 0.950 . S
C2333 C2328 1.363 . S
C2333 C2332 1.415 . S
H2334 C2331 0.999 . S
H2335 C2316 0.913 . S
H2336 C2354 0.951 . S
H2337 C2356 0.951 . S
H2338 C2358 0.950 . S
H2339 C2359 0.950 . S
H2340 C2361 0.950 . S
H2341 C2364 0.950 . S
H2342 C2365 0.950 . S
H2343 C2367 0.950 . S
H2344 C2368 0.950 . S
H2345 C2369 0.951 . S
H2346 C2371 0.951 . S
H2347 C2373 0.950 . S
H2348 C2374 0.950 . S
H2349 C2376 0.950 . S
H2350 C2379 0.950 . S
H2351 C2380 0.950 . S
H2352 C2382 0.950 . S
H2353 C2383 0.950 . S
C2354 H2336 0.951 . S
C2354 C2355 1.366 . S
C2354 C2356 1.388 . S
C2355 C2354 1.366 . S
C2355 C2359 1.385 . S
C2356 H2337 0.951 . S
C2356 C2354 1.388 . S
C2356 C2357 1.366 . S
C2357 C2356 1.366 . S
C2357 C2358 1.414 . S
C2357 C2360 1.499 . S
C2358 H2338 0.950 . S
C2358 C2357 1.414 . S
C2358 C2359 1.374 . S
C2359 H2339 0.950 . S
C2359 C2355 1.385 . S
C2359 C2358 1.374 . S
C2360 C2357 1.499 . S
C2360 C2361 1.373 . S
C2360 C2362 1.389 . S
C2361 H2340 0.950 . S
C2361 C2360 1.373 . S
C2361 C2377 1.377 . S
C2362 C2360 1.389 . S
C2362 C2363 1.524 . S
C2362 C2376 1.377 . S
C2363 C2362 1.524 . S
C2363 C2364 1.397 . S
C2363 C2368 1.363 . S
C2364 H2341 0.950 . S
C2364 C2363 1.397 . S
C2364 C2365 1.334 . S
C2365 H2342 0.950 . S
C2365 C2364 1.334 . S
C2365 C2366 1.287 . S
C2366 C2365 1.287 . S
C2366 C2367 1.524 . S
C2366 H2385 0.913 . S
C2367 H2343 0.950 . S
C2367 C2366 1.524 . S
C2367 C2368 1.415 . S
C2368 H2344 0.950 . S
C2368 C2363 1.363 . S
C2368 C2367 1.415 . S
C2369 H2345 0.951 . S
C2369 C2370 1.366 . S
C2369 C2371 1.388 . S
C2370 C2369 1.366 . S
C2370 C2374 1.385 . S
C2371 H2346 0.951 . S
C2371 C2369 1.388 . S
C2371 C2372 1.366 . S
C2372 C2371 1.366 . S
C2372 C2373 1.414 . S
C2372 C2375 1.499 . S
C2373 H2347 0.950 . S
C2373 C2372 1.414 . S
C2373 C2374 1.374 . S
C2374 H2348 0.950 . S
C2374 C2370 1.385 . S
C2374 C2373 1.374 . S
C2375 C2372 1.499 . S
C2375 C2376 1.373 . S
C2375 C2377 1.389 . S
C2376 H2349 0.950 . S
C2376 C2362 1.377 . S
C2376 C2375 1.373 . S
C2377 C2361 1.377 . S
C2377 C2375 1.389 . S
C2377 C2378 1.524 . S
C2378 C2377 1.524 . S
C2378 C2379 1.397 . S
C2378 C2383 1.363 . S
C2379 H2350 0.950 . S
C2379 C2378 1.397 . S
C2379 C2380 1.334 . S
C2380 H2351 0.950 . S
C2380 C2379 1.334 . S
C2380 C2381 1.287 . S
C2381 C2380 1.287 . S
C2381 C2382 1.524 . S
C2381 H2384 0.999 . S
C2382 H2352 0.950 . S
C2382 C2381 1.524 . S
C2382 C2383 1.415 . S
C2383 H2353 0.950 . S
C2383 C2378 1.363 . S
C2383 C2382 1.415 . S
H2384 C2381 0.999 . S
H2385 C2366 0.913 . S
H2386 C2404 0.951 . S
H2387 C2406 0.951 . S
H2388 C2408 0.950 . S
H2389 C2409 0.950 . S
H2390 C2411 0.950 . S
H2391 C2414 0.950 . S
H2392 C2415 0.950 . S
H2393 C2417 0.950 . S
H2394 C2418 0.950 . S
H2395 C2419 0.951 . S
H2396 C2421 0.951 . S
H2397 C2423 0.950 . S
H2398 C2424 0.950 . S
H2399 C2426 0.950 . S
H2400 C2429 0.950 . S
H2401 C2430 0.950 . S
H2402 C2432 0.950 . S
H2403 C2433 0.950 . S
C2404 H2386 0.951 . S
C2404 C2405 1.366 . S
C2404 C2406 1.388 . S
C2405 C2404 1.366 . S
C2405 C2409 1.385 . S
C2406 H2387 0.951 . S
C2406 C2404 1.388 . S
C2406 C2407 1.366 . S
C2407 C2406 1.366 . S
C2407 C2408 1.414 . S
C2407 C2410 1.499 . S
C2408 H2388 0.950 . S
C2408 C2407 1.414 . S
C2408 C2409 1.374 . S
C2409 H2389 0.950 . S
C2409 C2405 1.385 . S
C2409 C2408 1.374 . S
C2410 C2407 1.499 . S
C2410 C2411 1.373 . S
C2410 C2412 1.389 . S
C2411 H2390 0.950 . S
C2411 C2410 1.373 . S
C2411 C2427 1.377 . S
C2412 C2410 1.389 . S
C2412 C2413 1.524 . S
C2412 C2426 1.377 . S
C2413 C2412 1.524 . S
C2413 C2414 1.397 . S
C2413 C2418 1.363 . S
C2414 H2391 0.950 . S
C2414 C2413 1.397 . S
C2414 C2415 1.334 . S
C2415 H2392 0.950 . S
C2415 C2414 1.334 . S
C2415 C2416 1.287 . S
C2416 C2415 1.287 . S
C2416 C2417 1.524 . S
C2416 H2435 0.913 . S
C2417 H2393 0.950 . S
C2417 C2416 1.524 . S
C2417 C2418 1.415 . S
C2418 H2394 0.950 . S
C2418 C2413 1.363 . S
C2418 C2417 1.415 . S
C2419 H2395 0.951 . S
C2419 C2420 1.366 . S
C2419 C2421 1.388 . S
C2420 C2419 1.366 . S
C2420 C2424 1.385 . S
C2421 H2396 0.951 . S
C2421 C2419 1.388 . S
C2421 C2422 1.366 . S
C2422 C2421 1.366 . S
C2422 C2423 1.414 . S
C2422 C2425 1.499 . S
C2423 H2397 0.950 . S
C2423 C2422 1.414 . S
C2423 C2424 1.374 . S
C2424 H2398 0.950 . S
C2424 C2420 1.385 . S
C2424 C2423 1.374 . S
C2425 C2422 1.499 . S
C2425 C2426 1.373 . S
C2425 C2427 1.389 . S
C2426 H2399 0.950 . S
C2426 C2412 1.377 . S
C2426 C2425 1.373 . S
C2427 C2411 1.377 . S
C2427 C2425 1.389 . S
C2427 C2428 1.524 . S
C2428 C2427 1.524 . S
C2428 C2429 1.397 . S
C2428 C2433 1.363 . S
C2429 H2400 0.950 . S
C2429 C2428 1.397 . S
C2429 C2430 1.334 . S
C2430 H2401 0.950 . S
C2430 C2429 1.334 . S
C2430 C2431 1.287 . S
C2431 C2430 1.287 . S
C2431 C2432 1.524 . S
C2431 H2434 0.999 . S
C2432 H2402 0.950 . S
C2432 C2431 1.524 . S
C2432 C2433 1.415 . S
C2433 H2403 0.950 . S
C2433 C2428 1.363 . S
C2433 C2432 1.415 . S
H2434 C2431 0.999 . S
H2435 C2416 0.913 . S
H2436 C2454 0.951 . S
H2437 C2456 0.951 . S
H2438 C2458 0.950 . S
H2439 C2459 0.950 . S
H2440 C2461 0.950 . S
H2441 C2464 0.950 . S
H2442 C2465 0.950 . S
H2443 C2467 0.950 . S
H2444 C2468 0.950 . S
H2445 C2469 0.951 . S
H2446 C2471 0.951 . S
H2447 C2473 0.950 . S
H2448 C2474 0.950 . S
H2449 C2476 0.950 . S
H2450 C2479 0.950 . S
H2451 C2480 0.950 . S
H2452 C2482 0.950 . S
H2453 C2483 0.950 . S
C2454 H2436 0.951 . S
C2454 C2455 1.366 . S
C2454 C2456 1.388 . S
C2455 C2454 1.366 . S
C2455 C2459 1.385 . S
C2456 H2437 0.951 . S
C2456 C2454 1.388 . S
C2456 C2457 1.366 . S
C2457 C2456 1.366 . S
C2457 C2458 1.414 . S
C2457 C2460 1.499 . S
C2458 H2438 0.950 . S
C2458 C2457 1.414 . S
C2458 C2459 1.374 . S
C2459 H2439 0.950 . S
C2459 C2455 1.385 . S
C2459 C2458 1.374 . S
C2460 C2457 1.499 . S
C2460 C2461 1.373 . S
C2460 C2462 1.389 . S
C2461 H2440 0.950 . S
C2461 C2460 1.373 . S
C2461 C2477 1.377 . S
C2462 C2460 1.389 . S
C2462 C2463 1.524 . S
C2462 C2476 1.377 . S
C2463 C2462 1.524 . S
C2463 C2464 1.397 . S
C2463 C2468 1.363 . S
C2464 H2441 0.950 . S
C2464 C2463 1.397 . S
C2464 C2465 1.334 . S
C2465 H2442 0.950 . S
C2465 C2464 1.334 . S
C2465 C2466 1.287 . S
C2466 C2465 1.287 . S
C2466 C2467 1.524 . S
C2466 H2485 0.913 . S
C2467 H2443 0.950 . S
C2467 C2466 1.524 . S
C2467 C2468 1.415 . S
C2468 H2444 0.950 . S
C2468 C2463 1.363 . S
C2468 C2467 1.415 . S
C2469 H2445 0.951 . S
C2469 C2470 1.366 . S
C2469 C2471 1.388 . S
C2470 C2469 1.366 . S
C2470 C2474 1.385 . S
C2471 H2446 0.951 . S
C2471 C2469 1.388 . S
C2471 C2472 1.366 . S
C2472 C2471 1.366 . S
C2472 C2473 1.414 . S
C2472 C2475 1.499 . S
C2473 H2447 0.950 . S
C2473 C2472 1.414 . S
C2473 C2474 1.374 . S
C2474 H2448 0.950 . S
C2474 C2470 1.385 . S
C2474 C2473 1.374 . S
C2475 C2472 1.499 . S
C2475 C2476 1.373 . S
C2475 C2477 1.389 . S
C2476 H2449 0.950 . S
C2476 C2462 1.377 . S
C2476 C2475 1.373 . S
C2477 C2461 1.377 . S
C2477 C2475 1.389 . S
C2477 C2478 1.524 . S
C2478 C2477 1.524 . S
C2478 C2479 1.397 . S
C2478 C2483 1.363 . S
C2479 H2450 0.950 . S
C2479 C2478 1.397 . S
C2479 C2480 1.334 . S
C2480 H2451 0.950 . S
C2480 C2479 1.334 . S
C2480 C2481 1.287 . S
C2481 C2480 1.287 . S
C2481 C2482 1.524 . S
C2481 H2484 0.999 . S
C2482 H2452 0.950 . S
C2482 C2481 1.524 . S
C2482 C2483 1.415 . S
C2483 H2453 0.950 . S
C2483 C2478 1.363 . S
C2483 C2482 1.415 . S
H2484 C2481 0.999 . S
H2485 C2466 0.913 . S
H2486 C2504 0.951 . S
H2487 C2506 0.951 . S
H2488 C2508 0.950 . S
H2489 C2509 0.950 . S
H2490 C2511 0.950 . S
H2491 C2514 0.950 . S
H2492 C2515 0.950 . S
H2493 C2517 0.950 . S
H2494 C2518 0.950 . S
H2495 C2519 0.951 . S
H2496 C2521 0.951 . S
H2497 C2523 0.950 . S
H2498 C2524 0.950 . S
H2499 C2526 0.950 . S
H2500 C2529 0.950 . S
H2501 C2530 0.950 . S
H2502 C2532 0.950 . S
H2503 C2533 0.950 . S
C2504 H2486 0.951 . S
C2504 C2505 1.366 . S
C2504 C2506 1.388 . S
C2505 C2504 1.366 . S
C2505 C2509 1.385 . S
C2506 H2487 0.951 . S
C2506 C2504 1.388 . S
C2506 C2507 1.366 . S
C2507 C2506 1.366 . S
C2507 C2508 1.414 . S
C2507 C2510 1.499 . S
C2508 H2488 0.950 . S
C2508 C2507 1.414 . S
C2508 C2509 1.374 . S
C2509 H2489 0.950 . S
C2509 C2505 1.385 . S
C2509 C2508 1.374 . S
C2510 C2507 1.499 . S
C2510 C2511 1.373 . S
C2510 C2512 1.389 . S
C2511 H2490 0.950 . S
C2511 C2510 1.373 . S
C2511 C2527 1.377 . S
C2512 C2510 1.389 . S
C2512 C2513 1.524 . S
C2512 C2526 1.377 . S
C2513 C2512 1.524 . S
C2513 C2514 1.397 . S
C2513 C2518 1.363 . S
C2514 H2491 0.950 . S
C2514 C2513 1.397 . S
C2514 C2515 1.334 . S
C2515 H2492 0.950 . S
C2515 C2514 1.334 . S
C2515 C2516 1.287 . S
C2516 C2515 1.287 . S
C2516 C2517 1.524 . S
C2516 H2535 0.913 . S
C2517 H2493 0.950 . S
C2517 C2516 1.524 . S
C2517 C2518 1.415 . S
C2518 H2494 0.950 . S
C2518 C2513 1.363 . S
C2518 C2517 1.415 . S
C2519 H2495 0.951 . S
C2519 C2520 1.366 . S
C2519 C2521 1.388 . S
C2520 C2519 1.366 . S
C2520 C2524 1.385 . S
C2521 H2496 0.951 . S
C2521 C2519 1.388 . S
C2521 C2522 1.366 . S
C2522 C2521 1.366 . S
C2522 C2523 1.414 . S
C2522 C2525 1.499 . S
C2523 H2497 0.950 . S
C2523 C2522 1.414 . S
C2523 C2524 1.374 . S
C2524 H2498 0.950 . S
C2524 C2520 1.385 . S
C2524 C2523 1.374 . S
C2525 C2522 1.499 . S
C2525 C2526 1.373 . S
C2525 C2527 1.389 . S
C2526 H2499 0.950 . S
C2526 C2512 1.377 . S
C2526 C2525 1.373 . S
C2527 C2511 1.377 . S
C2527 C2525 1.389 . S
C2527 C2528 1.524 . S
C2528 C2527 1.524 . S
C2528 C2529 1.397 . S
C2528 C2533 1.363 . S
C2529 H2500 0.950 . S
C2529 C2528 1.397 . S
C2529 C2530 1.334 . S
C2530 H2501 0.950 . S
C2530 C2529 1.334 . S
C2530 C2531 1.287 . S
C2531 C2530 1.287 . S
C2531 C2532 1.524 . S
C2531 H2534 0.999 . S
C2532 H2502 0.950 . S
C2532 C2531 1.524 . S
C2532 C2533 1.415 . S
C2533 H2503 0.950 . S
C2533 C2528 1.363 . S
C2533 C2532 1.415 . S
H2534 C2531 0.999 . S
H2535 C2516 0.913 . S
H2536 C2554 0.951 . S
H2537 C2556 0.951 . S
H2538 C2558 0.950 . S
H2539 C2559 0.950 . S
H2540 C2561 0.950 . S
H2541 C2564 0.950 . S
H2542 C2565 0.950 . S
H2543 C2567 0.950 . S
H2544 C2568 0.950 . S
H2545 C2569 0.951 . S
H2546 C2571 0.951 . S
H2547 C2573 0.950 . S
H2548 C2574 0.950 . S
H2549 C2576 0.950 . S
H2550 C2579 0.950 . S
H2551 C2580 0.950 . S
H2552 C2582 0.950 . S
H2553 C2583 0.950 . S
C2554 H2536 0.951 . S
C2554 C2555 1.366 . S
C2554 C2556 1.388 . S
C2555 C2554 1.366 . S
C2555 C2559 1.385 . S
C2556 H2537 0.951 . S
C2556 C2554 1.388 . S
C2556 C2557 1.366 . S
C2557 C2556 1.366 . S
C2557 C2558 1.414 . S
C2557 C2560 1.499 . S
C2558 H2538 0.950 . S
C2558 C2557 1.414 . S
C2558 C2559 1.374 . S
C2559 H2539 0.950 . S
C2559 C2555 1.385 . S
C2559 C2558 1.374 . S
C2560 C2557 1.499 . S
C2560 C2561 1.373 . S
C2560 C2562 1.389 . S
C2561 H2540 0.950 . S
C2561 C2560 1.373 . S
C2561 C2577 1.377 . S
C2562 C2560 1.389 . S
C2562 C2563 1.524 . S
C2562 C2576 1.377 . S
C2563 C2562 1.524 . S
C2563 C2564 1.397 . S
C2563 C2568 1.363 . S
C2564 H2541 0.950 . S
C2564 C2563 1.397 . S
C2564 C2565 1.334 . S
C2565 H2542 0.950 . S
C2565 C2564 1.334 . S
C2565 C2566 1.287 . S
C2566 C2565 1.287 . S
C2566 C2567 1.524 . S
C2566 H2585 0.913 . S
C2567 H2543 0.950 . S
C2567 C2566 1.524 . S
C2567 C2568 1.415 . S
C2568 H2544 0.950 . S
C2568 C2563 1.363 . S
C2568 C2567 1.415 . S
C2569 H2545 0.951 . S
C2569 C2570 1.366 . S
C2569 C2571 1.388 . S
C2570 C2569 1.366 . S
C2570 C2574 1.385 . S
C2571 H2546 0.951 . S
C2571 C2569 1.388 . S
C2571 C2572 1.366 . S
C2572 C2571 1.366 . S
C2572 C2573 1.414 . S
C2572 C2575 1.499 . S
C2573 H2547 0.950 . S
C2573 C2572 1.414 . S
C2573 C2574 1.374 . S
C2574 H2548 0.950 . S
C2574 C2570 1.385 . S
C2574 C2573 1.374 . S
C2575 C2572 1.499 . S
C2575 C2576 1.373 . S
C2575 C2577 1.389 . S
C2576 H2549 0.950 . S
C2576 C2562 1.377 . S
C2576 C2575 1.373 . S
C2577 C2561 1.377 . S
C2577 C2575 1.389 . S
C2577 C2578 1.524 . S
C2578 C2577 1.524 . S
C2578 C2579 1.397 . S
C2578 C2583 1.363 . S
C2579 H2550 0.950 . S
C2579 C2578 1.397 . S
C2579 C2580 1.334 . S
C2580 H2551 0.950 . S
C2580 C2579 1.334 . S
C2580 C2581 1.287 . S
C2581 C2580 1.287 . S
C2581 C2582 1.524 . S
C2581 H2584 0.999 . S
C2582 H2552 0.950 . S
C2582 C2581 1.524 . S
C2582 C2583 1.415 . S
C2583 H2553 0.950 . S
C2583 C2578 1.363 . S
C2583 C2582 1.415 . S
H2584 C2581 0.999 . S
H2585 C2566 0.913 . S
H2586 C2604 0.951 . S
H2587 C2606 0.951 . S
H2588 C2608 0.950 . S
H2589 C2609 0.950 . S
H2590 C2611 0.950 . S
H2591 C2614 0.950 . S
H2592 C2615 0.950 . S
H2593 C2617 0.950 . S
H2594 C2618 0.950 . S
H2595 C2619 0.951 . S
H2596 C2621 0.951 . S
H2597 C2623 0.950 . S
H2598 C2624 0.950 . S
H2599 C2626 0.950 . S
H2600 C2629 0.950 . S
H2601 C2630 0.950 . S
H2602 C2632 0.950 . S
H2603 C2633 0.950 . S
C2604 H2586 0.951 . S
C2604 C2605 1.366 . S
C2604 C2606 1.388 . S
C2605 C2604 1.366 . S
C2605 C2609 1.385 . S
C2606 H2587 0.951 . S
C2606 C2604 1.388 . S
C2606 C2607 1.366 . S
C2607 C2606 1.366 . S
C2607 C2608 1.414 . S
C2607 C2610 1.499 . S
C2608 H2588 0.950 . S
C2608 C2607 1.414 . S
C2608 C2609 1.374 . S
C2609 H2589 0.950 . S
C2609 C2605 1.385 . S
C2609 C2608 1.374 . S
C2610 C2607 1.499 . S
C2610 C2611 1.373 . S
C2610 C2612 1.389 . S
C2611 H2590 0.950 . S
C2611 C2610 1.373 . S
C2611 C2627 1.377 . S
C2612 C2610 1.389 . S
C2612 C2613 1.524 . S
C2612 C2626 1.377 . S
C2613 C2612 1.524 . S
C2613 C2614 1.397 . S
C2613 C2618 1.363 . S
C2614 H2591 0.950 . S
C2614 C2613 1.397 . S
C2614 C2615 1.334 . S
C2615 H2592 0.950 . S
C2615 C2614 1.334 . S
C2615 C2616 1.287 . S
C2616 C2615 1.287 . S
C2616 C2617 1.524 . S
C2616 H2635 0.913 . S
C2617 H2593 0.950 . S
C2617 C2616 1.524 . S
C2617 C2618 1.415 . S
C2618 H2594 0.950 . S
C2618 C2613 1.363 . S
C2618 C2617 1.415 . S
C2619 H2595 0.951 . S
C2619 C2620 1.366 . S
C2619 C2621 1.388 . S
C2620 C2619 1.366 . S
C2620 C2624 1.385 . S
C2621 H2596 0.951 . S
C2621 C2619 1.388 . S
C2621 C2622 1.366 . S
C2622 C2621 1.366 . S
C2622 C2623 1.414 . S
C2622 C2625 1.499 . S
C2623 H2597 0.950 . S
C2623 C2622 1.414 . S
C2623 C2624 1.374 . S
C2624 H2598 0.950 . S
C2624 C2620 1.385 . S
C2624 C2623 1.374 . S
C2625 C2622 1.499 . S
C2625 C2626 1.373 . S
C2625 C2627 1.389 . S
C2626 H2599 0.950 . S
C2626 C2612 1.377 . S
C2626 C2625 1.373 . S
C2627 C2611 1.377 . S
C2627 C2625 1.389 . S
C2627 C2628 1.524 . S
C2628 C2627 1.524 . S
C2628 C2629 1.397 . S
C2628 C2633 1.363 . S
C2629 H2600 0.950 . S
C2629 C2628 1.397 . S
C2629 C2630 1.334 . S
C2630 H2601 0.950 . S
C2630 C2629 1.334 . S
C2630 C2631 1.287 . S
C2631 C2630 1.287 . S
C2631 C2632 1.524 . S
C2631 H2634 0.999 . S
C2632 H2602 0.950 . S
C2632 C2631 1.524 . S
C2632 C2633 1.415 . S
C2633 H2603 0.950 . S
C2633 C2628 1.363 . S
C2633 C2632 1.415 . S
H2634 C2631 0.999 . S
H2635 C2616 0.913 . S
H2636 C2654 0.951 . S
H2637 C2656 0.951 . S
H2638 C2658 0.950 . S
H2639 C2659 0.950 . S
H2640 C2661 0.950 . S
H2641 C2664 0.950 . S
H2642 C2665 0.950 . S
H2643 C2667 0.950 . S
H2644 C2668 0.950 . S
H2645 C2669 0.951 . S
H2646 C2671 0.951 . S
H2647 C2673 0.950 . S
H2648 C2674 0.950 . S
H2649 C2676 0.950 . S
H2650 C2679 0.950 . S
H2651 C2680 0.950 . S
H2652 C2682 0.950 . S
H2653 C2683 0.950 . S
C2654 H2636 0.951 . S
C2654 C2655 1.366 . S
C2654 C2656 1.388 . S
C2655 C2654 1.366 . S
C2655 C2659 1.385 . S
C2656 H2637 0.951 . S
C2656 C2654 1.388 . S
C2656 C2657 1.366 . S
C2657 C2656 1.366 . S
C2657 C2658 1.414 . S
C2657 C2660 1.499 . S
C2658 H2638 0.950 . S
C2658 C2657 1.414 . S
C2658 C2659 1.374 . S
C2659 H2639 0.950 . S
C2659 C2655 1.385 . S
C2659 C2658 1.374 . S
C2660 C2657 1.499 . S
C2660 C2661 1.373 . S
C2660 C2662 1.389 . S
C2661 H2640 0.950 . S
C2661 C2660 1.373 . S
C2661 C2677 1.377 . S
C2662 C2660 1.389 . S
C2662 C2663 1.524 . S
C2662 C2676 1.377 . S
C2663 C2662 1.524 . S
C2663 C2664 1.397 . S
C2663 C2668 1.363 . S
C2664 H2641 0.950 . S
C2664 C2663 1.397 . S
C2664 C2665 1.334 . S
C2665 H2642 0.950 . S
C2665 C2664 1.334 . S
C2665 C2666 1.287 . S
C2666 C2665 1.287 . S
C2666 C2667 1.524 . S
C2666 H2685 0.913 . S
C2667 H2643 0.950 . S
C2667 C2666 1.524 . S
C2667 C2668 1.415 . S
C2668 H2644 0.950 . S
C2668 C2663 1.363 . S
C2668 C2667 1.415 . S
C2669 H2645 0.951 . S
C2669 C2670 1.366 . S
C2669 C2671 1.388 . S
C2670 C2669 1.366 . S
C2670 C2674 1.385 . S
C2671 H2646 0.951 . S
C2671 C2669 1.388 . S
C2671 C2672 1.366 . S
C2672 C2671 1.366 . S
C2672 C2673 1.414 . S
C2672 C2675 1.499 . S
C2673 H2647 0.950 . S
C2673 C2672 1.414 . S
C2673 C2674 1.374 . S
C2674 H2648 0.950 . S
C2674 C2670 1.385 . S
C2674 C2673 1.374 . S
C2675 C2672 1.499 . S
C2675 C2676 1.373 . S
C2675 C2677 1.389 . S
C2676 H2649 0.950 . S
C2676 C2662 1.377 . S
C2676 C2675 1.373 . S
C2677 C2661 1.377 . S
C2677 C2675 1.389 . S
C2677 C2678 1.524 . S
C2678 C2677 1.524 . S
C2678 C2679 1.397 . S
C2678 C2683 1.363 . S
C2679 H2650 0.950 . S
C2679 C2678 1.397 . S
C2679 C2680 1.334 . S
C2680 H2651 0.950 . S
C2680 C2679 1.334 . S
C2680 C2681 1.287 . S
C2681 C2680 1.287 . S
C2681 C2682 1.524 . S
C2681 H2684 0.999 . S
C2682 H2652 0.950 . S
C2682 C2681 1.524 . S
C2682 C2683 1.415 . S
C2683 H2653 0.950 . S
C2683 C2678 1.363 . S
C2683 C2682 1.415 . S
H2684 C2681 0.999 . S
H2685 C2666 0.913 . S
H2686 C2704 0.951 . S
H2687 C2706 0.951 . S
H2688 C2708 0.950 . S
H2689 C2709 0.950 . S
H2690 C2711 0.950 . S
H2691 C2714 0.950 . S
H2692 C2715 0.950 . S
H2693 C2717 0.950 . S
H2694 C2718 0.950 . S
H2695 C2719 0.951 . S
H2696 C2721 0.951 . S
H2697 C2723 0.950 . S
H2698 C2724 0.950 . S
H2699 C2726 0.950 . S
H2700 C2729 0.950 . S
H2701 C2730 0.950 . S
H2702 C2732 0.950 . S
H2703 C2733 0.950 . S
C2704 H2686 0.951 . S
C2704 C2705 1.366 . S
C2704 C2706 1.388 . S
C2705 C2704 1.366 . S
C2705 C2709 1.385 . S
C2706 H2687 0.951 . S
C2706 C2704 1.388 . S
C2706 C2707 1.366 . S
C2707 C2706 1.366 . S
C2707 C2708 1.414 . S
C2707 C2710 1.499 . S
C2708 H2688 0.950 . S
C2708 C2707 1.414 . S
C2708 C2709 1.374 . S
C2709 H2689 0.950 . S
C2709 C2705 1.385 . S
C2709 C2708 1.374 . S
C2710 C2707 1.499 . S
C2710 C2711 1.373 . S
C2710 C2712 1.389 . S
C2711 H2690 0.950 . S
C2711 C2710 1.373 . S
C2711 C2727 1.377 . S
C2712 C2710 1.389 . S
C2712 C2713 1.524 . S
C2712 C2726 1.377 . S
C2713 C2712 1.524 . S
C2713 C2714 1.397 . S
C2713 C2718 1.363 . S
C2714 H2691 0.950 . S
C2714 C2713 1.397 . S
C2714 C2715 1.334 . S
C2715 H2692 0.950 . S
C2715 C2714 1.334 . S
C2715 C2716 1.287 . S
C2716 C2715 1.287 . S
C2716 C2717 1.524 . S
C2716 H2735 0.913 . S
C2717 H2693 0.950 . S
C2717 C2716 1.524 . S
C2717 C2718 1.415 . S
C2718 H2694 0.950 . S
C2718 C2713 1.363 . S
C2718 C2717 1.415 . S
C2719 H2695 0.951 . S
C2719 C2720 1.366 . S
C2719 C2721 1.388 . S
C2720 C2719 1.366 . S
C2720 C2724 1.385 . S
C2721 H2696 0.951 . S
C2721 C2719 1.388 . S
C2721 C2722 1.366 . S
C2722 C2721 1.366 . S
C2722 C2723 1.414 . S
C2722 C2725 1.499 . S
C2723 H2697 0.950 . S
C2723 C2722 1.414 . S
C2723 C2724 1.374 . S
C2724 H2698 0.950 . S
C2724 C2720 1.385 . S
C2724 C2723 1.374 . S
C2725 C2722 1.499 . S
C2725 C2726 1.373 . S
C2725 C2727 1.389 . S
C2726 H2699 0.950 . S
C2726 C2712 1.377 . S
C2726 C2725 1.373 . S
C2727 C2711 1.377 . S
C2727 C2725 1.389 . S
C2727 C2728 1.524 . S
C2728 C2727 1.524 . S
C2728 C2729 1.397 . S
C2728 C2733 1.363 . S
C2729 H2700 0.950 . S
C2729 C2728 1.397 . S
C2729 C2730 1.334 . S
C2730 H2701 0.950 . S
C2730 C2729 1.334 . S
C2730 C2731 1.287 . S
C2731 C2730 1.287 . S
C2731 C2732 1.524 . S
C2731 H2734 0.999 . S
C2732 H2702 0.950 . S
C2732 C2731 1.524 . S
C2732 C2733 1.415 . S
C2733 H2703 0.950 . S
C2733 C2728 1.363 . S
C2733 C2732 1.415 . S
H2734 C2731 0.999 . S
H2735 C2716 0.913 . S
H2736 C2754 0.951 . S
H2737 C2756 0.951 . S
H2738 C2758 0.950 . S
H2739 C2759 0.950 . S
H2740 C2761 0.950 . S
H2741 C2764 0.950 . S
H2742 C2765 0.950 . S
H2743 C2767 0.950 . S
H2744 C2768 0.950 . S
H2745 C2769 0.951 . S
H2746 C2771 0.951 . S
H2747 C2773 0.950 . S
H2748 C2774 0.950 . S
H2749 C2776 0.950 . S
H2750 C2779 0.950 . S
H2751 C2780 0.950 . S
H2752 C2782 0.950 . S
H2753 C2783 0.950 . S
C2754 H2736 0.951 . S
C2754 C2755 1.366 . S
C2754 C2756 1.388 . S
C2755 C2754 1.366 . S
C2755 C2759 1.385 . S
C2756 H2737 0.951 . S
C2756 C2754 1.388 . S
C2756 C2757 1.366 . S
C2757 C2756 1.366 . S
C2757 C2758 1.414 . S
C2757 C2760 1.499 . S
C2758 H2738 0.950 . S
C2758 C2757 1.414 . S
C2758 C2759 1.374 . S
C2759 H2739 0.950 . S
C2759 C2755 1.385 . S
C2759 C2758 1.374 . S
C2760 C2757 1.499 . S
C2760 C2761 1.373 . S
C2760 C2762 1.389 . S
C2761 H2740 0.950 . S
C2761 C2760 1.373 . S
C2761 C2777 1.377 . S
C2762 C2760 1.389 . S
C2762 C2763 1.524 . S
C2762 C2776 1.377 . S
C2763 C2762 1.524 . S
C2763 C2764 1.397 . S
C2763 C2768 1.363 . S
C2764 H2741 0.950 . S
C2764 C2763 1.397 . S
C2764 C2765 1.334 . S
C2765 H2742 0.950 . S
C2765 C2764 1.334 . S
C2765 C2766 1.287 . S
C2766 C2765 1.287 . S
C2766 C2767 1.524 . S
C2766 H2785 0.913 . S
C2767 H2743 0.950 . S
C2767 C2766 1.524 . S
C2767 C2768 1.415 . S
C2768 H2744 0.950 . S
C2768 C2763 1.363 . S
C2768 C2767 1.415 . S
C2769 H2745 0.951 . S
C2769 C2770 1.366 . S
C2769 C2771 1.388 . S
C2770 C2769 1.366 . S
C2770 C2774 1.385 . S
C2771 H2746 0.951 . S
C2771 C2769 1.388 . S
C2771 C2772 1.366 . S
C2772 C2771 1.366 . S
C2772 C2773 1.414 . S
C2772 C2775 1.499 . S
C2773 H2747 0.950 . S
C2773 C2772 1.414 . S
C2773 C2774 1.374 . S
C2774 H2748 0.950 . S
C2774 C2770 1.385 . S
C2774 C2773 1.374 . S
C2775 C2772 1.499 . S
C2775 C2776 1.373 . S
C2775 C2777 1.389 . S
C2776 H2749 0.950 . S
C2776 C2762 1.377 . S
C2776 C2775 1.373 . S
C2777 C2761 1.377 . S
C2777 C2775 1.389 . S
C2777 C2778 1.524 . S
C2778 C2777 1.524 . S
C2778 C2779 1.397 . S
C2778 C2783 1.363 . S
C2779 H2750 0.950 . S
C2779 C2778 1.397 . S
C2779 C2780 1.334 . S
C2780 H2751 0.950 . S
C2780 C2779 1.334 . S
C2780 C2781 1.287 . S
C2781 C2780 1.287 . S
C2781 C2782 1.524 . S
C2781 H2784 0.999 . S
C2782 H2752 0.950 . S
C2782 C2781 1.524 . S
C2782 C2783 1.415 . S
C2783 H2753 0.950 . S
C2783 C2778 1.363 . S
C2783 C2782 1.415 . S
H2784 C2781 0.999 . S
H2785 C2766 0.913 . S
H2786 C2804 0.951 . S
H2787 C2806 0.951 . S
H2788 C2808 0.950 . S
H2789 C2809 0.950 . S
H2790 C2811 0.950 . S
H2791 C2814 0.950 . S
H2792 C2815 0.950 . S
H2793 C2817 0.950 . S
H2794 C2818 0.950 . S
H2795 C2819 0.951 . S
H2796 C2821 0.951 . S
H2797 C2823 0.950 . S
H2798 C2824 0.950 . S
H2799 C2826 0.950 . S
H2800 C2829 0.950 . S
H2801 C2830 0.950 . S
H2802 C2832 0.950 . S
H2803 C2833 0.950 . S
C2804 H2786 0.951 . S
C2804 C2805 1.366 . S
C2804 C2806 1.388 . S
C2805 C2804 1.366 . S
C2805 C2809 1.385 . S
C2806 H2787 0.951 . S
C2806 C2804 1.388 . S
C2806 C2807 1.366 . S
C2807 C2806 1.366 . S
C2807 C2808 1.414 . S
C2807 C2810 1.499 . S
C2808 H2788 0.950 . S
C2808 C2807 1.414 . S
C2808 C2809 1.374 . S
C2809 H2789 0.950 . S
C2809 C2805 1.385 . S
C2809 C2808 1.374 . S
C2810 C2807 1.499 . S
C2810 C2811 1.373 . S
C2810 C2812 1.389 . S
C2811 H2790 0.950 . S
C2811 C2810 1.373 . S
C2811 C2827 1.377 . S
C2812 C2810 1.389 . S
C2812 C2813 1.524 . S
C2812 C2826 1.377 . S
C2813 C2812 1.524 . S
C2813 C2814 1.397 . S
C2813 C2818 1.363 . S
C2814 H2791 0.950 . S
C2814 C2813 1.397 . S
C2814 C2815 1.334 . S
C2815 H2792 0.950 . S
C2815 C2814 1.334 . S
C2815 C2816 1.287 . S
C2816 C2815 1.287 . S
C2816 C2817 1.524 . S
C2816 H2835 0.913 . S
C2817 H2793 0.950 . S
C2817 C2816 1.524 . S
C2817 C2818 1.415 . S
C2818 H2794 0.950 . S
C2818 C2813 1.363 . S
C2818 C2817 1.415 . S
C2819 H2795 0.951 . S
C2819 C2820 1.366 . S
C2819 C2821 1.388 . S
C2820 C2819 1.366 . S
C2820 C2824 1.385 . S
C2821 H2796 0.951 . S
C2821 C2819 1.388 . S
C2821 C2822 1.366 . S
C2822 C2821 1.366 . S
C2822 C2823 1.414 . S
C2822 C2825 1.499 . S
C2823 H2797 0.950 . S
C2823 C2822 1.414 . S
C2823 C2824 1.374 . S
C2824 H2798 0.950 . S
C2824 C2820 1.385 . S
C2824 C2823 1.374 . S
C2825 C2822 1.499 . S
C2825 C2826 1.373 . S
C2825 C2827 1.389 . S
C2826 H2799 0.950 . S
C2826 C2812 1.377 . S
C2826 C2825 1.373 . S
C2827 C2811 1.377 . S
C2827 C2825 1.389 . S
C2827 C2828 1.524 . S
C2828 C2827 1.524 . S
C2828 C2829 1.397 . S
C2828 C2833 1.363 . S
C2829 H2800 0.950 . S
C2829 C2828 1.397 . S
C2829 C2830 1.334 . S
C2830 H2801 0.950 . S
C2830 C2829 1.334 . S
C2830 C2831 1.287 . S
C2831 C2830 1.287 . S
C2831 C2832 1.524 . S
C2831 H2834 0.999 . S
C2832 H2802 0.950 . S
C2832 C2831 1.524 . S
C2832 C2833 1.415 . S
C2833 H2803 0.950 . S
C2833 C2828 1.363 . S
C2833 C2832 1.415 . S
H2834 C2831 0.999 . S
H2835 C2816 0.913 . S
C470 C288 1.813 . S
C455 N2 1.800 . S
C520 C315 2.473 . S
C505 C7 2.466 . S
C570 C325 1.806 . S
C555 N12 1.721 . S
C605 C16 2.038 . S
C620 C355 2.074 . S
C670 C374 2.172 . S
C655 C30 2.161 . S
C720 C385 1.671 . S
C705 N35 1.639 . S
C755 C39 2.489 . S
C770 C414 2.485 . S
C820 C428 1.655 . S
C805 N25 1.582 . S
C870 C280 1.162 . S
C855 N58 1.127 . S
C905 N81 1.454 . S
C920 C308 1.523 . S
C970 C334 1.620 . S
C955 N104 1.527 . S
C1005 N127 0.938 . S
C1020 C348 0.970 . S
C1070 C358 0.575 . S
C1055 N48 0.574 . S
C1120 C394 1.878 . S
C1105 N71 1.851 . S
C1155 N94 1.122 . S
C1170 C398 1.121 . S
C1220 C420 1.350 . S
C1205 N117 1.366 . S
C1255 C85 2.228 . S
C1270 C295 2.270 . S
C1305 C122 1.226 . S
C1320 C365 1.217 . S
C1355 C53 1.569 . S
C1370 C378 1.522 . S
C1420 C405 1.886 . S
C1405 C76 1.889 . S
C1470 C435 2.054 . S
C1455 C99 2.037 . S
C1520 C318 1.655 . S
C1505 C131 1.705 . S
C1570 C340 0.722 . S
C1555 C62 0.718 . S
C1605 C108 1.395 . S
C1620 C300 1.397 . S
C1670 C425 1.892 . S
C1655 N140 1.871 . S
C1705 C145 2.118 . S
C1720 C375 2.122 . S
C1770 C388 1.733 . S
C1755 N150 1.661 . S
C1805 C154 2.383 . S
C1820 C415 2.424 . S
C1870 C314 2.521 . S
C1855 C168 2.509 . S
C1905 N173 1.544 . S
C1920 C328 1.565 . S
C1970 C354 2.123 . S
C1955 C177 2.128 . S
C2020 C285 1.753 . S
C2005 N163 1.666 . S
C2070 C434 2.084 . S
C2055 C200 2.082 . S
C2120 C368 1.226 . S
C2105 N219 1.174 . S
C2155 N242 1.323 . S
C2170 C380 1.355 . S
C2220 C408 1.892 . S
C2205 C269 1.895 . S
C2270 C298 1.479 . S
C2255 C191 1.482 . S
C2305 N209 1.580 . S
C2320 C320 1.555 . S
C2355 N232 0.815 . S
C2370 C338 0.814 . S
C2405 C260 2.343 . S
C2420 C294 2.356 . S
C2455 C223 1.475 . S
C2470 C418 1.440 . S
C2505 N255 1.424 . S
C2520 C305 1.491 . S
C2555 N186 1.466 . S
C2570 C335 1.565 . S
C2620 C345 0.934 . S
C2605 C214 0.941 . S
C2670 C278 1.310 . S
C2655 C237 1.344 . S
C2720 C395 1.786 . S
C2705 N265 1.723 . S
C2770 C400 1.035 . S
C2755 N196 1.030 . S
C2820 C360 0.490 . S
C2805 C246 0.468 . S
