# Generated by pormake.
# Topology ctn, (3,4)-cn, num edge types: 1
# Building blocks:
#     Node 0, Type 0, BuildingBlock: OLANEW_clean_sbu_2, # of connection points: 3
#     Node 1, Type 0, BuildingBlock: OLANEW_clean_sbu_2, # of connection points: 3
#     Node 2, Type 0, BuildingBlock: OLANEW_clean_sbu_2, # of connection points: 3
#     Node 3, Type 0, BuildingBlock: OLANEW_clean_sbu_2, # of connection points: 3
#     Node 4, Type 0, BuildingBlock: OLANEW_clean_sbu_2, # of connection points: 3
#     Node 5, Type 0, BuildingBlock: OLANEW_clean_sbu_2, # of connection points: 3
#     Node 6, Type 0, BuildingBlock: OLANEW_clean_sbu_2, # of connection points: 3
#     Node 7, Type 0, BuildingBlock: OLANEW_clean_sbu_2, # of connection points: 3
#     Node 8, Type 0, BuildingBlock: OLANEW_clean_sbu_2, # of connection points: 3
#     Node 9, Type 0, BuildingBlock: OLANEW_clean_sbu_2, # of connection points: 3
#     Node 10, Type 0, BuildingBlock: OLANEW_clean_sbu_2, # of connection points: 3
#     Node 11, Type 0, BuildingBlock: OLANEW_clean_sbu_2, # of connection points: 3
#     Node 12, Type 0, BuildingBlock: OLANEW_clean_sbu_2, # of connection points: 3
#     Node 13, Type 0, BuildingBlock: OLANEW_clean_sbu_2, # of connection points: 3
#     Node 14, Type 0, BuildingBlock: OLANEW_clean_sbu_2, # of connection points: 3
#     Node 15, Type 0, BuildingBlock: OLANEW_clean_sbu_2, # of connection points: 3
#     Node 16, Type 1, BuildingBlock: UXUYUI_clean_sbu_0, # of connection points: 4
#     Node 17, Type 1, BuildingBlock: UXUYUI_clean_sbu_0, # of connection points: 4
#     Node 18, Type 1, BuildingBlock: UXUYUI_clean_sbu_0, # of connection points: 4
#     Node 19, Type 1, BuildingBlock: UXUYUI_clean_sbu_0, # of connection points: 4
#     Node 20, Type 1, BuildingBlock: UXUYUI_clean_sbu_0, # of connection points: 4
#     Node 21, Type 1, BuildingBlock: UXUYUI_clean_sbu_0, # of connection points: 4
#     Node 22, Type 1, BuildingBlock: UXUYUI_clean_sbu_0, # of connection points: 4
#     Node 23, Type 1, BuildingBlock: UXUYUI_clean_sbu_0, # of connection points: 4
#     Node 24, Type 1, BuildingBlock: UXUYUI_clean_sbu_0, # of connection points: 4
#     Node 25, Type 1, BuildingBlock: UXUYUI_clean_sbu_0, # of connection points: 4
#     Node 26, Type 1, BuildingBlock: UXUYUI_clean_sbu_0, # of connection points: 4
#     Node 27, Type 1, BuildingBlock: UXUYUI_clean_sbu_0, # of connection points: 4
#     Edge 28, Type (0, 1), BuildingBlock: AJUNOK_clean_linker_0, # of connection points: 2
#     Edge 29, Type (0, 1), BuildingBlock: AJUNOK_clean_linker_0, # of connection points: 2
#     Edge 30, Type (0, 1), BuildingBlock: AJUNOK_clean_linker_0, # of connection points: 2
#     Edge 31, Type (0, 1), BuildingBlock: AJUNOK_clean_linker_0, # of connection points: 2
#     Edge 32, Type (0, 1), BuildingBlock: AJUNOK_clean_linker_0, # of connection points: 2
#     Edge 33, Type (0, 1), BuildingBlock: AJUNOK_clean_linker_0, # of connection points: 2
#     Edge 34, Type (0, 1), BuildingBlock: AJUNOK_clean_linker_0, # of connection points: 2
#     Edge 35, Type (0, 1), BuildingBlock: AJUNOK_clean_linker_0, # of connection points: 2
#     Edge 36, Type (0, 1), BuildingBlock: AJUNOK_clean_linker_0, # of connection points: 2
#     Edge 37, Type (0, 1), BuildingBlock: AJUNOK_clean_linker_0, # of connection points: 2
#     Edge 38, Type (0, 1), BuildingBlock: AJUNOK_clean_linker_0, # of connection points: 2
#     Edge 39, Type (0, 1), BuildingBlock: AJUNOK_clean_linker_0, # of connection points: 2
#     Edge 40, Type (0, 1), BuildingBlock: AJUNOK_clean_linker_0, # of connection points: 2
#     Edge 41, Type (0, 1), BuildingBlock: AJUNOK_clean_linker_0, # of connection points: 2
#     Edge 42, Type (0, 1), BuildingBlock: AJUNOK_clean_linker_0, # of connection points: 2
#     Edge 43, Type (0, 1), BuildingBlock: AJUNOK_clean_linker_0, # of connection points: 2
#     Edge 44, Type (0, 1), BuildingBlock: AJUNOK_clean_linker_0, # of connection points: 2
#     Edge 45, Type (0, 1), BuildingBlock: AJUNOK_clean_linker_0, # of connection points: 2
#     Edge 46, Type (0, 1), BuildingBlock: AJUNOK_clean_linker_0, # of connection points: 2
#     Edge 47, Type (0, 1), BuildingBlock: AJUNOK_clean_linker_0, # of connection points: 2
#     Edge 48, Type (0, 1), BuildingBlock: AJUNOK_clean_linker_0, # of connection points: 2
#     Edge 49, Type (0, 1), BuildingBlock: AJUNOK_clean_linker_0, # of connection points: 2
#     Edge 50, Type (0, 1), BuildingBlock: AJUNOK_clean_linker_0, # of connection points: 2
#     Edge 51, Type (0, 1), BuildingBlock: AJUNOK_clean_linker_0, # of connection points: 2
#     Edge 52, Type (0, 1), BuildingBlock: AJUNOK_clean_linker_0, # of connection points: 2
#     Edge 53, Type (0, 1), BuildingBlock: AJUNOK_clean_linker_0, # of connection points: 2
#     Edge 54, Type (0, 1), BuildingBlock: AJUNOK_clean_linker_0, # of connection points: 2
#     Edge 55, Type (0, 1), BuildingBlock: AJUNOK_clean_linker_0, # of connection points: 2
#     Edge 56, Type (0, 1), BuildingBlock: AJUNOK_clean_linker_0, # of connection points: 2
#     Edge 57, Type (0, 1), BuildingBlock: AJUNOK_clean_linker_0, # of connection points: 2
#     Edge 58, Type (0, 1), BuildingBlock: AJUNOK_clean_linker_0, # of connection points: 2
#     Edge 59, Type (0, 1), BuildingBlock: AJUNOK_clean_linker_0, # of connection points: 2
#     Edge 60, Type (0, 1), BuildingBlock: AJUNOK_clean_linker_0, # of connection points: 2
#     Edge 61, Type (0, 1), BuildingBlock: AJUNOK_clean_linker_0, # of connection points: 2
#     Edge 62, Type (0, 1), BuildingBlock: AJUNOK_clean_linker_0, # of connection points: 2
#     Edge 63, Type (0, 1), BuildingBlock: AJUNOK_clean_linker_0, # of connection points: 2
#     Edge 64, Type (0, 1), BuildingBlock: AJUNOK_clean_linker_0, # of connection points: 2
#     Edge 65, Type (0, 1), BuildingBlock: AJUNOK_clean_linker_0, # of connection points: 2
#     Edge 66, Type (0, 1), BuildingBlock: AJUNOK_clean_linker_0, # of connection points: 2
#     Edge 67, Type (0, 1), BuildingBlock: AJUNOK_clean_linker_0, # of connection points: 2
#     Edge 68, Type (0, 1), BuildingBlock: AJUNOK_clean_linker_0, # of connection points: 2
#     Edge 69, Type (0, 1), BuildingBlock: AJUNOK_clean_linker_0, # of connection points: 2
#     Edge 70, Type (0, 1), BuildingBlock: AJUNOK_clean_linker_0, # of connection points: 2
#     Edge 71, Type (0, 1), BuildingBlock: AJUNOK_clean_linker_0, # of connection points: 2
#     Edge 72, Type (0, 1), BuildingBlock: AJUNOK_clean_linker_0, # of connection points: 2
#     Edge 73, Type (0, 1), BuildingBlock: AJUNOK_clean_linker_0, # of connection points: 2
#     Edge 74, Type (0, 1), BuildingBlock: AJUNOK_clean_linker_0, # of connection points: 2
#     Edge 75, Type (0, 1), BuildingBlock: AJUNOK_clean_linker_0, # of connection points: 2
# Relax obj value: 0.052
# Max RMSD: 0.160
# Mean RMSD: 0.097
data_MOF--net-ctn--node1-OLANEW_clean_sbu_2--node2-UXUYUI_clean_sbu_0--edge1-AJUNOK_clean_linker_0
_symmetry_space_group_name_H-M    P1
_symmetry_Int_Tables_number       1
_symmetry_cell_setting            triclinic
loop_
_symmetry_equiv_pos_as_xyz
'x, y, z'
_cell_length_a     56.848415
_cell_length_b     58.305494
_cell_length_c     55.169864
_cell_angle_alpha  91.25848
_cell_angle_beta   94.399578
_cell_angle_gamma 95.585643
loop_
_atom_site_label
_atom_site_type_symbol
_atom_site_fract_x
_atom_site_fract_y
_atom_site_fract_z
_atom_type_partial_charge
O0 O 0.04762 0.06457 1.00009 0.0
Cd1 Cd 0.04587 0.02843 0.02231 0.0
O2 O 0.04204 0.08571 0.03227 0.0
Cd3 Cd 0.03626 0.05721 0.05672 0.0
O4 O 0.01622 0.04226 0.0857 0.0
C5 C 0.99382 0.04238 0.08303 0.0
O6 O 0.98434 0.05017 0.06275 0.0
C7 C 0.04551 0.08417 0.00983 0.0
C8 C 0.08567 0.00381 0.02035 0.0
O9 O 0.06897 0.00182 0.00323 0.0
O10 O 0.08374 0.01769 0.03828 0.0
O11 O 0.32788 0.74526 0.25255 0.0
Cd12 Cd 0.28889 0.74498 0.23 0.0
O13 O 0.31735 0.7105 0.26502 0.0
Cd14 Cd 0.28144 0.70464 0.24776 0.0
O15 O 0.25081 0.67915 0.24864 0.0
C16 C 0.25526 0.66201 0.26145 0.0
O17 O 0.27679 0.66165 0.27189 0.0
C18 C 0.33275 0.72779 0.2647 0.0
C19 C 0.28528 0.77661 0.19278 0.0
O20 O 0.28098 0.78191 0.21456 0.0
O21 O 0.29188 0.75655 0.1888 0.0
O22 O 0.96644 0.47297 0.10642 0.0
Cd23 Cd 0.94265 0.46736 0.0675 0.0
O24 O 1.00009 0.47394 0.08905 0.0
Cd25 Cd 0.98444 0.46037 0.05368 0.0
O26 O 0.98446 0.43401 0.02493 0.0
C27 C 0.98126 0.41301 0.0307 0.0
O28 O 0.97646 0.40829 0.05308 0.0
C29 C 0.98897 0.47595 0.10799 0.0
C30 C 0.91107 0.50109 0.06074 0.0
O31 O 0.90508 0.48212 0.07099 0.0
O32 O 0.93209 0.50411 0.05368 0.0
O33 O 0.74994 0.82719 0.2289 0.0
Cd34 Cd 0.72367 0.79127 0.22442 0.0
O35 O 0.74272 0.8329 0.26706 0.0
Cd36 Cd 0.71507 0.80438 0.26877 0.0
O37 O 0.68353 0.78807 0.28413 0.0
C38 C 0.67775 0.79817 0.30312 0.0
O39 O 0.69101 0.81675 0.31163 0.0
C40 C 0.75377 0.83901 0.24872 0.0
C41 C 0.73401 0.76333 0.18549 0.0
O42 O 0.71876 0.77804 0.18267 0.0
O43 O 0.74448 0.76192 0.20676 0.0
O44 O 0.12601 0.95086 0.48727 0.0
Cd45 Cd 0.09985 0.91561 0.47675 0.0
O46 O 0.09621 0.96786 0.47152 0.0
Cd47 Cd 0.07356 0.99416 0.45916 0.0
O48 O 0.04294 0.00396 0.43698 0.0
C49 C 0.04516 0.0083 0.41477 0.0
O50 O 0.06626 0.00848 0.40653 0.0
C51 C 0.11744 0.96935 0.48097 0.0
C52 C 0.07994 0.89335 0.51567 0.0
O53 O 0.09915 0.88747 0.50769 0.0
O54 O 0.07039 0.9101 0.50554 0.0
O55 O 0.2944 0.76055 0.85387 0.0
Cd56 Cd 0.30648 0.74695 0.81484 0.0
O57 O 0.25953 0.76104 0.83443 0.0
Cd58 Cd 0.22221 0.76717 0.82907 0.0
O59 O 0.18623 0.768 0.81247 0.0
C60 C 0.184 0.76884 0.78943 0.0
O61 O 0.20321 0.76969 0.77751 0.0
C62 C 0.27311 0.76545 0.8537 0.0
C63 C 0.31677 0.70125 0.81098 0.0
O64 O 0.29563 0.70667 0.80608 0.0
O65 O 0.33277 0.71739 0.81848 0.0
O66 O 0.99352 0.53956 0.46819 0.0
Cd67 Cd 0.97399 0.54773 0.50499 0.0
O68 O 0.02852 0.54003 0.48819 0.0
Cd69 Cd 0.01634 0.55445 0.5213 0.0
O70 O 0.00835 0.58013 0.54808 0.0
C71 C 0.99735 0.59682 0.54034 0.0
O72 O 0.99067 0.59716 0.51703 0.0
C73 C 0.01543 0.53669 0.46842 0.0
C74 C 0.93379 0.51689 0.5084 0.0
O75 O 0.93201 0.53707 0.50012 0.0
O76 O 0.95449 0.51143 0.51532 0.0
O77 O 0.80391 0.77171 0.8489 0.0
Cd78 Cd 0.80859 0.80314 0.82033 0.0
O79 O 0.76491 0.76928 0.845 0.0
Cd80 Cd 0.76194 0.79977 0.82299 0.0
O81 O 0.74579 0.83102 0.81232 0.0
C82 C 0.7273 0.83468 0.82281 0.0
O83 O 0.71964 0.81974 0.83862 0.0
C84 C 0.78396 0.76194 0.85396 0.0
C85 C 0.84313 0.79656 0.78795 0.0
O86 O 0.84864 0.80653 0.80884 0.0
O87 O 0.82125 0.7896 0.78241 0.0
O88 O 0.29696 0.26509 0.33877 0.0
Cd89 Cd 0.30181 0.29655 0.31025 0.0
O90 O 0.25829 0.26594 0.33744 0.0
Cd91 Cd 0.25616 0.29617 0.31496 0.0
O92 O 0.2407 0.32807 0.30564 0.0
C93 C 0.2344 0.33955 0.32348 0.0
O94 O 0.2384 0.3319 0.34548 0.0
C95 C 0.27686 0.25702 0.34522 0.0
C96 C 0.33834 0.29201 0.27972 0.0
O97 O 0.34239 0.30234 0.30059 0.0
O98 O 0.317 0.28364 0.2734 0.0
O99 O 0.46404 0.97956 0.61044 0.0
Cd100 Cd 0.43518 0.97038 0.57554 0.0
O101 O 0.47847 0.94605 0.60737 0.0
Cd102 Cd 0.45898 0.93286 0.57361 0.0
O103 O 0.45875 0.90748 0.54391 0.0
C104 C 0.4566 0.8863 0.54918 0.0
O105 O 0.45309 0.88084 0.57169 0.0
C106 C 0.47817 0.96536 0.61844 0.0
C107 C 0.40763 0.00638 0.56387 0.0
O108 O 0.40236 0.99248 0.58074 0.0
O109 O 0.42612 0.00348 0.5527 0.0
O110 O 0.24343 0.3339 0.71159 0.0
Cd111 Cd 0.2175 0.29776 0.711 0.0
O112 O 0.24601 0.33673 0.75152 0.0
Cd113 Cd 0.22004 0.30768 0.75694 0.0
O114 O 0.18904 0.29297 0.77421 0.0
C115 C 0.17263 0.3061 0.776 0.0
O116 O 0.17518 0.32664 0.76666 0.0
C117 C 0.25182 0.3445 0.73123 0.0
C118 C 0.22538 0.26723 0.67333 0.0
O119 O 0.21005 0.28185 0.67036 0.0
O120 O 0.23712 0.26719 0.69412 0.0
O121 O 0.83004 0.23904 0.75041 0.0
Cd122 Cd 0.79275 0.23455 0.72443 0.0
O123 O 0.82038 0.2056 0.76647 0.0
Cd124 Cd 0.78625 0.1962 0.74633 0.0
O125 O 0.75531 0.1709 0.7444 0.0
C126 C 0.74351 0.16955 0.76306 0.0
O127 O 0.74957 0.18439 0.78125 0.0
C128 C 0.83486 0.22349 0.76533 0.0
C129 C 0.78842 0.26654 0.68765 0.0
O130 O 0.78157 0.27044 0.70882 0.0
O131 O 0.79782 0.24776 0.68411 0.0
O132 O 0.54262 0.54557 0.46758 0.0
Cd133 Cd 0.54268 0.50393 0.47317 0.0
O134 O 0.5267 0.54726 0.50232 0.0
Cd135 Cd 0.51196 0.56211 0.53391 0.0
O136 O 0.49686 0.56387 0.56906 0.0
C137 C 0.47456 0.56035 0.5701 0.0
O138 O 0.46102 0.557 0.54968 0.0
C139 C 0.53342 0.55726 0.48342 0.0
C140 C 0.58593 0.48697 0.48688 0.0
O141 O 0.57938 0.48976 0.46447 0.0
O142 O 0.57236 0.49301 0.50289 0.0
O143 O 0.59023 0.48616 0.99126 0.0
Cd144 Cd 0.55567 0.45894 0.97825 0.0
O145 O 0.56912 0.51561 0.9938 0.0
Cd146 Cd 0.53663 0.4964 0.97784 0.0
O147 O 0.50948 0.4899 0.94772 0.0
C148 C 0.51609 0.49531 0.92693 0.0
O149 O 0.53833 0.50328 0.92529 0.0
C150 C 0.58904 0.50741 0.99628 0.0
C151 C 0.54505 0.42518 0.01212 0.0
O152 O 0.55971 0.42224 0.99606 0.0
O153 O 0.53553 0.44423 0.01227 0.0
O154 O 0.78795 0.25329 0.34133 0.0
Cd155 Cd 0.79634 0.23891 0.30119 0.0
O156 O 0.75285 0.2573 0.32392 0.0
Cd157 Cd 0.71637 0.2664 0.32031 0.0
O158 O 0.68074 0.2692 0.30356 0.0
C159 C 0.67656 0.28697 0.29166 0.0
O160 O 0.69364 0.30374 0.29081 0.0
C161 C 0.76749 0.26005 0.34261 0.0
C162 C 0.80846 0.19377 0.2983 0.0
O163 O 0.82426 0.21075 0.30345 0.0
O164 O 0.78679 0.19813 0.29519 0.0
O165 O 0.49616 0.03919 0.97054 0.0
Cd166 Cd 0.47492 0.04926 0.00563 0.0
O167 O 0.53068 0.0428 0.99182 0.0
Cd168 Cd 0.51675 0.0592 0.02291 0.0
O169 O 0.50786 0.0866 0.04722 0.0
C170 C 0.49736 0.1029 0.03776 0.0
O171 O 0.49162 0.10187 0.01421 0.0
C172 C 0.51834 0.03729 0.97198 0.0
C173 C 0.4334 0.01999 0.00823 0.0
O174 O 0.43276 0.04001 0.99921 0.0
O175 O 0.45357 0.01392 0.01617 0.0
Li176 Li 0.27657 0.9105 0.01787 0.0
Li177 Li 0.25633 0.87945 0.04139 0.0
Li178 Li 0.25113 0.87795 0.99788 0.0
Li179 Li 0.23139 0.9057 0.02034 0.0
C180 C 0.29359 0.86356 0.00575 0.0
N181 N 0.31659 0.8346 0.97745 0.0
C182 C 0.29063 0.83975 0.00876 0.0
C183 C 0.3084 0.87269 0.98853 0.0
C184 C 0.30236 0.82538 0.9942 0.0
C185 C 0.31987 0.85775 0.97437 0.0
C186 C 0.26008 0.91502 0.0713 0.0
C187 C 0.24356 0.91493 0.11027 0.0
N188 N 0.26575 0.91509 0.12148 0.0
C189 C 0.28273 0.91534 0.08318 0.0
C190 C 0.24033 0.91491 0.08491 0.0
C191 C 0.28521 0.91531 0.10858 0.0
C192 C 0.30373 0.95136 0.00481 0.0
N193 N 0.30423 0.93138 0.01696 0.0
C194 C 0.34573 0.93959 0.02785 0.0
C195 C 0.32458 0.92538 0.02856 0.0
C196 C 0.34607 0.95989 0.01452 0.0
C197 C 0.3246 0.96584 0.00314 0.0
H198 H 0.2872 0.95587 0.99605 0.0
H199 H 0.32437 0.90947 0.03829 0.0
C200 C 0.28313 0.85503 0.07496 0.0
N201 N 0.26118 0.86193 0.0698 0.0
C202 C 0.28775 0.84201 0.0954 0.0
C203 C 0.2472 0.84375 0.10511 0.0
C204 C 0.2433 0.85663 0.08435 0.0
C205 C 0.26966 0.83624 0.11078 0.0
H206 H 0.29707 0.85965 0.06317 0.0
H207 H 0.22606 0.86244 0.07985 0.0
C208 C 0.24737 0.91724 0.96797 0.0
N209 N 0.24101 0.92985 0.92006 0.0
C210 C 0.22453 0.91694 0.95651 0.0
C211 C 0.26696 0.92432 0.95513 0.0
C212 C 0.22169 0.92328 0.93227 0.0
C213 C 0.26338 0.93051 0.9309 0.0
C214 C 0.20358 0.86406 0.01301 0.0
C215 C 0.19573 0.86641 0.98866 0.0
C216 C 0.18785 0.85429 0.02907 0.0
C217 C 0.17218 0.85918 0.9808 0.0
C218 C 0.16442 0.84728 0.02053 0.0
N219 N 0.15713 0.84986 0.99677 0.0
C220 C 0.23995 0.83451 0.97297 0.0
C221 C 0.25976 0.86304 0.94985 0.0
C222 C 0.24095 0.81786 0.95452 0.0
N223 N 0.2494 0.85662 0.97039 0.0
C224 C 0.26076 0.84713 0.93085 0.0
C225 C 0.25156 0.8242 0.93321 0.0
H226 H 0.23238 0.82963 0.98973 0.0
H227 H 0.2683 0.88018 0.94858 0.0
C228 C 0.20462 0.94234 0.00782 0.0
N229 N 0.20453 0.92298 0.02113 0.0
C230 C 0.18537 0.95553 0.00714 0.0
C231 C 0.16669 0.9293 0.03486 0.0
C232 C 0.18619 0.91639 0.03472 0.0
C233 C 0.16607 0.94897 0.0207 0.0
H234 H 0.21967 0.94756 0.99768 0.0
H235 H 0.18673 0.90118 0.04552 0.0
O236 O 0.28156 0.87783 0.01916 0.0
O237 O 0.2572 0.91416 0.04646 0.0
O238 O 0.25056 0.91153 0.99188 0.0
O239 O 0.2265 0.87126 0.02123 0.0
H240 H 0.27909 0.83243 0.02193 0.0
H241 H 0.31072 0.89109 0.98585 0.0
H242 H 0.30006 0.80689 0.99615 0.0
H243 H 0.33125 0.86455 0.96084 0.0
H244 H 0.22843 0.91471 0.12104 0.0
H245 H 0.29817 0.91527 0.0729 0.0
H246 H 0.22268 0.91455 0.07597 0.0
H247 H 0.30261 0.91537 0.11802 0.0
H248 H 0.36159 0.9347 0.0377 0.0
H249 H 0.32398 0.98132 0.99271 0.0
H250 H 0.30532 0.83659 0.09924 0.0
H251 H 0.2327 0.83937 0.11635 0.0
H252 H 0.2091 0.91214 0.96624 0.0
H253 H 0.28478 0.92449 0.96358 0.0
H254 H 0.20411 0.92308 0.92319 0.0
H255 H 0.2784 0.93577 0.9207 0.0
H256 H 0.2077 0.87357 0.97591 0.0
H257 H 0.19363 0.85228 0.04797 0.0
H258 H 0.16588 0.86093 0.96199 0.0
H259 H 0.15204 0.8398 0.03279 0.0
H260 H 0.23382 0.80023 0.95696 0.0
H261 H 0.26953 0.85247 0.91485 0.0
H262 H 0.18566 0.97085 0.99635 0.0
H263 H 0.15214 0.92384 0.04566 0.0
Li264 Li 0.10453 0.50162 0.31415 0.0
Li265 Li 0.13089 0.47833 0.29583 0.0
Li266 Li 0.13415 0.51942 0.2901 0.0
Li267 Li 0.10079 0.49386 0.26867 0.0
C268 C 0.14073 0.50568 0.34552 0.0
N269 N 0.14168 0.51039 0.39558 0.0
C270 C 0.14376 0.48669 0.36009 0.0
C271 C 0.13816 0.52705 0.35647 0.0
C272 C 0.14425 0.48944 0.38535 0.0
C273 C 0.13866 0.52908 0.38178 0.0
C274 C 0.09092 0.4488 0.29613 0.0
C275 C 0.07482 0.41252 0.27689 0.0
N276 N 0.08116 0.40152 0.29752 0.0
C277 C 0.09715 0.43717 0.31719 0.0
C278 C 0.07958 0.43642 0.27583 0.0
C279 C 0.09212 0.41325 0.31751 0.0
C280 C 0.07419 0.52512 0.34207 0.0
N281 N 0.08589 0.50591 0.34107 0.0
C282 C 0.07242 0.49397 0.37926 0.0
C283 C 0.08484 0.49019 0.35891 0.0
C284 C 0.06056 0.51387 0.38096 0.0
C285 C 0.06137 0.52949 0.36199 0.0
H286 H 0.07498 0.53719 0.32753 0.0
H287 H 0.09402 0.47493 0.35762 0.0
C288 C 0.17071 0.45695 0.31359 0.0
N289 N 0.15001 0.45289 0.29942 0.0
C290 C 0.18565 0.43951 0.31727 0.0
C291 C 0.15842 0.41429 0.29061 0.0
C292 C 0.14403 0.43226 0.28739 0.0
C293 C 0.17931 0.4177 0.3061 0.0
H294 H 0.17568 0.47381 0.32201 0.0
H295 H 0.12818 0.42973 0.27518 0.0
C296 C 0.10025 0.5458 0.28038 0.0
N297 N 0.10333 0.59094 0.26568 0.0
C298 C 0.09545 0.55067 0.2559 0.0
C299 C 0.10651 0.56392 0.29739 0.0
C300 C 0.0971 0.5736 0.24883 0.0
C301 C 0.10802 0.58661 0.28959 0.0
C302 C 0.15453 0.48568 0.25715 0.0
C303 C 0.17726 0.49508 0.26581 0.0
C304 C 0.15188 0.46619 0.24159 0.0
C305 C 0.19697 0.4849 0.25865 0.0
C306 C 0.17204 0.4565 0.23487 0.0
N307 N 0.19398 0.46598 0.24346 0.0
C308 C 0.16904 0.55657 0.30435 0.0
C309 C 0.15612 0.55402 0.2624 0.0
C310 C 0.1845 0.57605 0.30069 0.0
N311 N 0.15513 0.54614 0.28535 0.0
C312 C 0.17131 0.57347 0.25791 0.0
C313 C 0.18571 0.58475 0.27724 0.0
H314 H 0.16834 0.54964 0.32228 0.0
H315 H 0.1452 0.54505 0.24755 0.0
C316 C 0.05681 0.49536 0.24214 0.0
N317 N 0.07939 0.49001 0.24053 0.0
C318 C 0.04086 0.49397 0.22146 0.0
C319 C 0.07165 0.48117 0.19806 0.0
C320 C 0.08706 0.48313 0.21909 0.0
C321 C 0.04821 0.4867 0.19904 0.0
H322 H 0.05136 0.50116 0.25941 0.0
H323 H 0.10521 0.47944 0.21823 0.0
O324 O 0.1399 0.50329 0.3207 0.0
O325 O 0.09556 0.47222 0.29542 0.0
O326 O 0.09933 0.52343 0.28757 0.0
O327 O 0.135 0.49502 0.26456 0.0
H328 H 0.14528 0.46989 0.35204 0.0
H329 H 0.13539 0.54185 0.34554 0.0
H330 H 0.14648 0.47486 0.39681 0.0
H331 H 0.13653 0.54549 0.39045 0.0
H332 H 0.06612 0.4027 0.2613 0.0
H333 H 0.10623 0.44642 0.33292 0.0
H334 H 0.07456 0.44517 0.25941 0.0
H335 H 0.09704 0.40399 0.3336 0.0
H336 H 0.0721 0.4815 0.39353 0.0
H337 H 0.05265 0.54517 0.3628 0.0
H338 H 0.20202 0.44307 0.32869 0.0
H339 H 0.15309 0.3978 0.2814 0.0
H340 H 0.09083 0.53692 0.24242 0.0
H341 H 0.11048 0.56051 0.31637 0.0
H342 H 0.09355 0.5776 0.22993 0.0
H343 H 0.113 0.60078 0.30254 0.0
H344 H 0.17971 0.50987 0.27823 0.0
H345 H 0.13446 0.45826 0.23522 0.0
H346 H 0.21466 0.49197 0.26528 0.0
H347 H 0.17023 0.44133 0.22297 0.0
H348 H 0.19546 0.58421 0.31602 0.0
H349 H 0.17218 0.5793 0.23947 0.0
H350 H 0.02318 0.499 0.22293 0.0
H351 H 0.07804 0.47542 0.18119 0.0
Li352 Li 0.74527 0.61993 0.0179 0.0
Li353 Li 0.7672 0.65143 0.04294 0.0
Li354 Li 0.77004 0.64923 0.99891 0.0
Li355 Li 0.7882 0.62183 0.02588 0.0
C356 C 0.71788 0.65316 0.01566 0.0
N357 N 0.669 0.65023 0.0145 0.0
C358 C 0.70681 0.65782 0.03674 0.0
C359 C 0.7041 0.64713 0.99397 0.0
C360 C 0.68207 0.65625 0.03578 0.0
C361 C 0.67941 0.64569 0.99377 0.0
C362 C 0.77121 0.60107 0.0633 0.0
C363 C 0.7982 0.58736 0.09431 0.0
N364 N 0.78856 0.56538 0.08903 0.0
C365 C 0.76149 0.57836 0.05825 0.0
C366 C 0.78963 0.60565 0.08155 0.0
C367 C 0.77053 0.56055 0.07145 0.0
C368 C 0.71134 0.58589 0.99463 0.0
N369 N 0.71696 0.59943 0.01501 0.0
C370 C 0.68228 0.58331 0.03282 0.0
C371 C 0.70309 0.59826 0.03405 0.0
C372 C 0.67584 0.56934 0.01185 0.0
C373 C 0.69074 0.57062 0.99266 0.0
H374 H 0.72289 0.58687 0.97995 0.0
H375 H 0.70829 0.60892 0.05023 0.0
C376 C 0.76183 0.69462 0.06433 0.0
N377 N 0.76458 0.6723 0.06946 0.0
C378 C 0.75782 0.71022 0.08276 0.0
C379 C 0.75948 0.67957 0.11145 0.0
C380 C 0.7636 0.66457 0.09247 0.0
C381 C 0.75615 0.70265 0.10661 0.0
H382 H 0.76227 0.70019 0.04579 0.0
H383 H 0.76534 0.64663 0.09596 0.0
C384 C 0.77383 0.6131 0.97092 0.0
N385 N 0.78446 0.61088 0.92294 0.0
C386 C 0.79663 0.60905 0.96522 0.0
C387 C 0.75641 0.61595 0.95222 0.0
C388 C 0.80164 0.60797 0.94084 0.0
C389 C 0.76215 0.61482 0.92808 0.0
C390 C 0.80762 0.67495 0.03597 0.0
C391 C 0.80719 0.69607 0.02452 0.0
C392 C 0.81889 0.67413 0.05932 0.0
C393 C 0.81791 0.71609 0.03673 0.0
C394 C 0.82937 0.69454 0.07094 0.0
N395 N 0.82866 0.71492 0.0595 0.0
C396 C 0.75519 0.67992 0.96347 0.0
C397 C 0.79347 0.66841 0.95888 0.0
C398 C 0.75679 0.69387 0.94333 0.0
N399 N 0.77329 0.66742 0.97072 0.0
C400 C 0.79577 0.68202 0.93847 0.0
C401 C 0.77719 0.6949 0.93038 0.0
H402 H 0.73962 0.67936 0.97358 0.0
H403 H 0.80784 0.65871 0.96537 0.0
C404 C 0.80736 0.5799 0.02353 0.0
N405 N 0.81299 0.60227 0.03096 0.0
C406 C 0.82335 0.56361 0.02839 0.0
C407 C 0.85113 0.59381 0.04769 0.0
C408 C 0.83449 0.60957 0.04253 0.0
C409 C 0.84539 0.57044 0.04098 0.0
H410 H 0.79014 0.57463 0.01429 0.0
H411 H 0.83851 0.62746 0.04823 0.0
O412 O 0.74206 0.65402 0.01636 0.0
O413 O 0.76317 0.61866 0.05001 0.0
O414 O 0.76865 0.61457 0.99468 0.0
O415 O 0.79688 0.65522 0.02449 0.0
H416 H 0.71716 0.66235 0.05374 0.0
H417 H 0.71237 0.64329 0.97753 0.0
H418 H 0.67326 0.65971 0.05197 0.0
H419 H 0.66852 0.64088 0.97715 0.0
H420 H 0.81259 0.59062 0.10834 0.0
H421 H 0.74738 0.57446 0.04404 0.0
H422 H 0.79751 0.6231 0.08554 0.0
H423 H 0.7633 0.54288 0.06762 0.0
H424 H 0.67148 0.58249 0.04817 0.0
H425 H 0.68634 0.5601 0.97621 0.0
H426 H 0.75579 0.72796 0.07833 0.0
H427 H 0.75818 0.67303 0.12957 0.0
H428 H 0.81038 0.607 0.97944 0.0
H429 H 0.73874 0.61933 0.95631 0.0
H430 H 0.81923 0.60493 0.93616 0.0
H431 H 0.7489 0.61715 0.91344 0.0
H432 H 0.79849 0.69704 0.00648 0.0
H433 H 0.81924 0.65795 0.0685 0.0
H434 H 0.81762 0.73257 0.02813 0.0
H435 H 0.83799 0.69418 0.08908 0.0
H436 H 0.7424 0.70413 0.93827 0.0
H437 H 0.81187 0.68248 0.92913 0.0
H438 H 0.81848 0.54583 0.02251 0.0
H439 H 0.86802 0.59968 0.05736 0.0
Li440 Li 0.87306 0.03499 0.2644 0.0
Li441 Li 0.9039 0.01255 0.28154 0.0
Li442 Li 0.89689 0.01726 0.2362 0.0
Li443 Li 0.86903 0.99199 0.25782 0.0
C444 C 0.91227 0.06406 0.2657 0.0
N445 N 0.91986 0.11131 0.27319 0.0
C446 C 0.92201 0.0734 0.28822 0.0
C447 C 0.90676 0.07876 0.24687 0.0
C448 C 0.92563 0.09733 0.29168 0.0
C449 C 0.91061 0.10259 0.25104 0.0
C450 C 0.86691 0.00161 0.31135 0.0
C451 C 0.86588 0.96946 0.33817 0.0
N452 N 0.86056 0.9835 0.35655 0.0
C453 C 0.86111 0.01565 0.33044 0.0
C454 C 0.86906 0.97828 0.31518 0.0
C455 C 0.85811 0.0062 0.35318 0.0
C456 C 0.84213 0.06999 0.25456 0.0
N457 N 0.85753 0.06155 0.27136 0.0
C458 C 0.85444 0.09316 0.29884 0.0
C459 C 0.86352 0.07248 0.2933 0.0
C460 C 0.83886 0.10256 0.2817 0.0
C461 C 0.83253 0.09064 0.25938 0.0
H462 H 0.8377 0.06097 0.23725 0.0
H463 H 0.87593 0.06543 0.30624 0.0
C464 C 0.94781 0.00172 0.30257 0.0
N465 N 0.92779 0.01135 0.30738 0.0
C466 C 0.96644 0.00151 0.32053 0.0
C467 C 0.94382 0.02175 0.3479 0.0
C468 C 0.92552 0.02139 0.32945 0.0
C469 C 0.96459 0.01164 0.34355 0.0
H470 H 0.94942 0.99442 0.28466 0.0
H471 H 0.90981 0.02973 0.33251 0.0
C472 C 0.85489 0.01684 0.21007 0.0
N473 N 0.84208 0.0176 0.16076 0.0
C474 C 0.84405 0.99695 0.19766 0.0
C475 C 0.85888 0.0372 0.19745 0.0
C476 C 0.83778 0.99766 0.17272 0.0
C477 C 0.85239 0.03721 0.17251 0.0
C478 C 0.91012 0.96754 0.25348 0.0
C479 C 0.9146 0.95762 0.23121 0.0
C480 C 0.91333 0.95521 0.27474 0.0
C481 C 0.92157 0.93531 0.23049 0.0
C482 C 0.92034 0.93295 0.27328 0.0
N483 N 0.92423 0.92352 0.25136 0.0
C484 C 0.93176 0.03668 0.20739 0.0
C485 C 0.90616 0.0065 0.18725 0.0
C486 C 0.94467 0.03946 0.18697 0.0
N487 N 0.91282 0.02052 0.20713 0.0
C488 C 0.91853 0.00873 0.16638 0.0
C489 C 0.93803 0.02543 0.16611 0.0
H490 H 0.937 0.0473 0.22357 0.0
H491 H 0.89146 0.99334 0.1877 0.0
C492 C 0.82849 0.96312 0.26842 0.0
N493 N 0.84775 0.96442 0.25518 0.0
C494 C 0.81294 0.94299 0.26763 0.0
C495 C 0.83685 0.92617 0.23893 0.0
C496 C 0.85189 0.94664 0.24023 0.0
C497 C 0.81728 0.92404 0.25303 0.0
H498 H 0.82528 0.9777 0.27973 0.0
H499 H 0.86674 0.94835 0.22916 0.0
O500 O 0.90806 0.04067 0.26214 0.0
O501 O 0.87001 0.01064 0.28897 0.0
O502 O 0.86128 0.01641 0.23447 0.0
O503 O 0.9033 0.98941 0.25448 0.0
H504 H 0.92652 0.06232 0.30295 0.0
H505 H 0.89952 0.07184 0.22924 0.0
H506 H 0.93297 0.10479 0.30908 0.0
H507 H 0.90626 0.11416 0.23667 0.0
H508 H 0.86754 0.95142 0.34136 0.0
H509 H 0.85902 0.03367 0.32777 0.0
H510 H 0.87282 0.967 0.30051 0.0
H511 H 0.85379 0.01692 0.36814 0.0
H512 H 0.85973 0.10185 0.31624 0.0
H513 H 0.82087 0.09755 0.24554 0.0
H514 H 0.98217 0.99355 0.31643 0.0
H515 H 0.94196 0.03035 0.36515 0.0
H516 H 0.84058 0.98111 0.20714 0.0
H517 H 0.86699 0.0528 0.20677 0.0
H518 H 0.82949 0.98236 0.16288 0.0
H519 H 0.85554 0.05281 0.1625 0.0
H520 H 0.91251 0.96695 0.21461 0.0
H521 H 0.91081 0.96284 0.29225 0.0
H522 H 0.92487 0.92737 0.21333 0.0
H523 H 0.92281 0.92322 0.28959 0.0
H524 H 0.95963 0.05252 0.18744 0.0
H525 H 0.91318 0.99727 0.1508 0.0
H526 H 0.79765 0.94229 0.27824 0.0
H527 H 0.84068 0.91204 0.22726 0.0
Li528 Li 0.25786 0.14895 0.53582 0.0
Li529 Li 0.23981 0.11572 0.51008 0.0
Li530 Li 0.28185 0.12141 0.52119 0.0
Li531 Li 0.26366 0.14775 0.49275 0.0
C532 C 0.26635 0.10228 0.56013 0.0
N533 N 0.28861 0.07473 0.59307 0.0
C534 C 0.26028 0.07845 0.55946 0.0
C535 C 0.28348 0.1121 0.57785 0.0
C536 C 0.2718 0.06481 0.57617 0.0
C537 C 0.29459 0.0979 0.59427 0.0
C538 C 0.21152 0.15199 0.51571 0.0
C539 C 0.17381 0.16771 0.51046 0.0
N540 N 0.16778 0.15863 0.53189 0.0
C541 C 0.20491 0.14275 0.53767 0.0
C542 C 0.19583 0.16455 0.50198 0.0
C543 C 0.18274 0.14633 0.54554 0.0
C544 C 0.24919 0.19201 0.55525 0.0
N545 N 0.2524 0.17003 0.56145 0.0
C546 C 0.24626 0.17875 0.6029 0.0
C547 C 0.25076 0.1631 0.58469 0.0
C548 C 0.24312 0.20163 0.59706 0.0
C549 C 0.24475 0.20823 0.57288 0.0
H550 H 0.24999 0.19692 0.53652 0.0
H551 H 0.25251 0.14536 0.58905 0.0
C552 C 0.22192 0.07025 0.50147 0.0
N553 N 0.2145 0.09166 0.50304 0.0
C554 C 0.20555 0.05086 0.49758 0.0
C555 C 0.17405 0.0759 0.49527 0.0
C556 C 0.19108 0.09485 0.49948 0.0
C557 C 0.18127 0.05356 0.49465 0.0
H558 H 0.24068 0.06825 0.50345 0.0
H559 H 0.18546 0.11198 0.49991 0.0
C560 C 0.2973 0.17616 0.53043 0.0
N561 N 0.31441 0.21844 0.55185 0.0
C562 C 0.29549 0.19638 0.51754 0.0
C563 C 0.30818 0.17746 0.55409 0.0
C564 C 0.30417 0.21758 0.52871 0.0
C565 C 0.31659 0.19899 0.56465 0.0
C566 C 0.25637 0.10735 0.46528 0.0
C567 C 0.26788 0.09235 0.45125 0.0
C568 C 0.23543 0.1156 0.45565 0.0
C569 C 0.25823 0.08582 0.42777 0.0
C570 C 0.22636 0.10867 0.4321 0.0
N571 N 0.23785 0.09405 0.41876 0.0
C572 C 0.30626 0.08261 0.51667 0.0
C573 C 0.32709 0.11146 0.54331 0.0
C574 C 0.32376 0.06779 0.5216 0.0
N575 N 0.30815 0.10391 0.5276 0.0
C576 C 0.34478 0.09698 0.54917 0.0
C577 C 0.34311 0.07488 0.53823 0.0
H578 H 0.29086 0.07697 0.50451 0.0
H579 H 0.3281 0.12843 0.55182 0.0
C580 C 0.25214 0.18229 0.46076 0.0
N581 N 0.26678 0.16541 0.46439 0.0
C582 C 0.25347 0.19585 0.44031 0.0
C583 C 0.28507 0.17452 0.42771 0.0
C584 C 0.28311 0.16131 0.44846 0.0
C585 C 0.26998 0.19194 0.42338 0.0
H586 H 0.23965 0.18541 0.47396 0.0
H587 H 0.29457 0.14777 0.45188 0.0
O588 O 0.25571 0.1159 0.54349 0.0
O589 O 0.2333 0.14909 0.50774 0.0
O590 O 0.28858 0.15524 0.51991 0.0
O591 O 0.26571 0.11389 0.48829 0.0
H592 H 0.24677 0.07051 0.54629 0.0
H593 H 0.28842 0.13046 0.57873 0.0
H594 H 0.26733 0.04633 0.57573 0.0
H595 H 0.30805 0.1053 0.60791 0.0
H596 H 0.1615 0.17739 0.5 0.0
H597 H 0.21665 0.13286 0.54854 0.0
H598 H 0.20056 0.17173 0.4849 0.0
H599 H 0.17743 0.1393 0.56249 0.0
H600 H 0.24483 0.17292 0.62129 0.0
H601 H 0.24275 0.22577 0.56766 0.0
H602 H 0.21179 0.03391 0.49679 0.0
H603 H 0.15544 0.07862 0.49297 0.0
H604 H 0.28736 0.19579 0.49918 0.0
H605 H 0.30997 0.16207 0.56431 0.0
H606 H 0.30273 0.23335 0.51898 0.0
H607 H 0.32485 0.20023 0.58302 0.0
H608 H 0.28413 0.08585 0.45841 0.0
H609 H 0.22624 0.12723 0.46617 0.0
H610 H 0.26696 0.07422 0.4167 0.0
H611 H 0.21018 0.11492 0.42443 0.0
H612 H 0.32187 0.05073 0.51306 0.0
H613 H 0.35951 0.10288 0.56215 0.0
H614 H 0.24195 0.20951 0.43796 0.0
H615 H 0.29807 0.17106 0.41509 0.0
Li616 Li 0.39743 0.51482 0.77566 0.0
Li617 Li 0.36842 0.54079 0.76146 0.0
Li618 Li 0.36321 0.49899 0.74773 0.0
Li619 Li 0.39287 0.52671 0.73181 0.0
C620 C 0.35642 0.50137 0.80119 0.0
N621 N 0.34273 0.47801 0.84171 0.0
C622 C 0.3481 0.51323 0.82059 0.0
C623 C 0.35728 0.47753 0.80225 0.0
C624 C 0.34142 0.50115 0.84097 0.0
C625 C 0.3504 0.46605 0.82291 0.0
C626 C 0.40866 0.56804 0.77004 0.0
C627 C 0.40765 0.60888 0.76452 0.0
N628 N 0.41719 0.61303 0.78775 0.0
C629 C 0.41867 0.57273 0.79378 0.0
C630 C 0.40333 0.58626 0.75519 0.0
C631 C 0.42278 0.59559 0.80242 0.0
C632 C 0.43901 0.49902 0.79885 0.0
N633 N 0.41866 0.50861 0.80253 0.0
C634 C 0.4284 0.51068 0.84547 0.0
C635 C 0.41327 0.51466 0.82523 0.0
C636 C 0.44933 0.50043 0.84231 0.0
C637 C 0.45466 0.49467 0.81862 0.0
H638 H 0.44312 0.49484 0.78056 0.0
H639 H 0.3975 0.52311 0.82759 0.0
C640 C 0.34043 0.57869 0.75634 0.0
N641 N 0.35379 0.5668 0.77217 0.0
C642 C 0.33284 0.59967 0.7637 0.0
C643 C 0.35204 0.59515 0.80372 0.0
C644 C 0.35923 0.57432 0.7956 0.0
C645 C 0.33921 0.60838 0.78749 0.0
H646 H 0.33639 0.57233 0.7378 0.0
H647 H 0.37011 0.56463 0.8077 0.0
C648 C 0.40422 0.47409 0.74259 0.0
N649 N 0.41784 0.43009 0.73737 0.0
C650 C 0.41106 0.46636 0.72025 0.0
C651 C 0.40485 0.45955 0.7624 0.0
C652 C 0.41772 0.44403 0.71793 0.0
C653 C 0.41164 0.43735 0.75937 0.0
C654 C 0.35261 0.53073 0.70466 0.0
C655 C 0.34235 0.51269 0.68902 0.0
C656 C 0.35798 0.55259 0.69542 0.0
C657 C 0.33798 0.51676 0.66429 0.0
C658 C 0.35339 0.55595 0.67058 0.0
N659 N 0.34358 0.53811 0.65566 0.0
C660 C 0.3212 0.47008 0.75217 0.0
C661 C 0.34648 0.4557 0.72449 0.0
C662 C 0.30585 0.44985 0.74924 0.0
N663 N 0.34139 0.47234 0.74037 0.0
C664 C 0.33162 0.43519 0.72099 0.0
C665 C 0.3112 0.43196 0.73377 0.0
H666 H 0.31736 0.48374 0.76438 0.0
H667 H 0.36225 0.45816 0.71478 0.0
C668 C 0.42519 0.55273 0.70355 0.0
N669 N 0.40899 0.53396 0.70342 0.0
C670 C 0.43639 0.5585 0.68252 0.0
C671 C 0.41423 0.52536 0.66175 0.0
C672 C 0.40346 0.52027 0.68313 0.0
C673 C 0.43097 0.54467 0.66128 0.0
H674 H 0.42934 0.5633 0.71994 0.0
H675 H 0.39052 0.50545 0.68349 0.0
O676 O 0.36312 0.51301 0.78112 0.0
O677 O 0.40392 0.54571 0.76147 0.0
O678 O 0.39759 0.49594 0.74512 0.0
O679 O 0.35732 0.52698 0.72886 0.0
H680 H 0.34683 0.53157 0.81999 0.0
H681 H 0.36273 0.46789 0.78712 0.0
H682 H 0.33513 0.51016 0.85616 0.0
H683 H 0.35102 0.44761 0.82392 0.0
H684 H 0.40336 0.62312 0.75332 0.0
H685 H 0.42306 0.55889 0.80548 0.0
H686 H 0.39564 0.58296 0.73677 0.0
H687 H 0.43035 0.59946 0.82082 0.0
H688 H 0.42407 0.51613 0.86335 0.0
H689 H 0.47076 0.48695 0.81544 0.0
H690 H 0.32297 0.60942 0.75068 0.0
H691 H 0.35696 0.60112 0.82231 0.0
H692 H 0.41112 0.47741 0.70481 0.0
H693 H 0.40057 0.46542 0.78006 0.0
H694 H 0.42285 0.4378 0.70069 0.0
H695 H 0.41213 0.42594 0.77456 0.0
H696 H 0.33793 0.49571 0.69585 0.0
H697 H 0.36587 0.56675 0.70725 0.0
H698 H 0.33017 0.50293 0.65196 0.0
H699 H 0.35766 0.57273 0.66317 0.0
H700 H 0.29013 0.44808 0.75923 0.0
H701 H 0.33647 0.42173 0.70905 0.0
H702 H 0.44893 0.57374 0.6828 0.0
H703 H 0.40965 0.51419 0.64579 0.0
Li704 Li 0.78061 0.40166 0.51435 0.0
Li705 Li 0.7603 0.37015 0.53677 0.0
Li706 Li 0.75592 0.36901 0.49355 0.0
Li707 Li 0.73538 0.39637 0.51568 0.0
C708 C 0.79817 0.35502 0.50152 0.0
N709 N 0.82115 0.32658 0.47263 0.0
C710 C 0.79517 0.33114 0.50406 0.0
C711 C 0.81302 0.36448 0.4845 0.0
C712 C 0.80689 0.31704 0.4892 0.0
C713 C 0.82446 0.34979 0.47003 0.0
C714 C 0.76149 0.4051 0.56717 0.0
C715 C 0.74194 0.40304 0.60443 0.0
N716 N 0.76343 0.4041 0.61729 0.0
C717 C 0.78339 0.40631 0.58073 0.0
C718 C 0.74058 0.40353 0.57905 0.0
C719 C 0.78399 0.40572 0.60608 0.0
C720 C 0.80673 0.44349 0.50282 0.0
N721 N 0.80777 0.42324 0.51441 0.0
C722 C 0.84892 0.43271 0.52631 0.0
C723 C 0.8282 0.41774 0.52627 0.0
C724 C 0.84873 0.45331 0.51353 0.0
C725 C 0.82715 0.45873 0.50192 0.0
H726 H 0.79011 0.44762 0.49394 0.0
H727 H 0.82836 0.40165 0.53567 0.0
C728 C 0.78709 0.34706 0.57148 0.0
N729 N 0.76477 0.35244 0.56504 0.0
C730 C 0.7915 0.33399 0.59194 0.0
C731 C 0.74992 0.33247 0.59894 0.0
C732 C 0.74627 0.34547 0.57823 0.0
C733 C 0.77279 0.32656 0.60597 0.0
H734 H 0.80147 0.35293 0.56069 0.0
H735 H 0.72871 0.35002 0.57265 0.0
C736 C 0.75354 0.41022 0.46464 0.0
N737 N 0.75041 0.42706 0.41815 0.0
C738 C 0.73138 0.41284 0.45271 0.0
C739 C 0.7741 0.41652 0.453 0.0
C740 C 0.73018 0.42128 0.42919 0.0
C741 C 0.77215 0.42488 0.42947 0.0
C742 C 0.70872 0.35407 0.50565 0.0
C743 C 0.70197 0.35973 0.48183 0.0
C744 C 0.69287 0.34041 0.51874 0.0
C745 C 0.67937 0.35176 0.4715 0.0
C746 C 0.67041 0.33279 0.50779 0.0
N747 N 0.66417 0.33859 0.4846 0.0
C748 C 0.7446 0.32607 0.46764 0.0
C749 C 0.7638 0.35526 0.44486 0.0
C750 C 0.74445 0.3101 0.44831 0.0
N751 N 0.75418 0.34822 0.46559 0.0
C752 C 0.76371 0.34002 0.42504 0.0
C753 C 0.75411 0.31711 0.42671 0.0
H754 H 0.73754 0.32069 0.48449 0.0
H755 H 0.77229 0.37245 0.44388 0.0
C756 C 0.71142 0.43488 0.50549 0.0
N757 N 0.7086 0.41365 0.51518 0.0
C758 C 0.69227 0.44808 0.50241 0.0
C759 C 0.66787 0.41781 0.52046 0.0
C760 C 0.6875 0.40511 0.52307 0.0
C761 C 0.6701 0.43947 0.50973 0.0
H762 H 0.72848 0.44132 0.49959 0.0
H763 H 0.68578 0.3883 0.53099 0.0
O764 O 0.78615 0.36903 0.51522 0.0
O765 O 0.76049 0.40476 0.54235 0.0
O766 O 0.75515 0.40249 0.48793 0.0
O767 O 0.73065 0.36187 0.51632 0.0
H768 H 0.78363 0.3236 0.5171 0.0
H769 H 0.81542 0.38293 0.48228 0.0
H770 H 0.80457 0.29851 0.49077 0.0
H771 H 0.83588 0.35684 0.45665 0.0
H772 H 0.7259 0.4017 0.61388 0.0
H773 H 0.79972 0.40737 0.57175 0.0
H774 H 0.7235 0.40244 0.56875 0.0
H775 H 0.8008 0.40648 0.61682 0.0
H776 H 0.86487 0.4282 0.53631 0.0
H777 H 0.82613 0.47442 0.49191 0.0
H778 H 0.80938 0.32983 0.59682 0.0
H779 H 0.73497 0.32674 0.60908 0.0
H780 H 0.71525 0.40859 0.46152 0.0
H781 H 0.7914 0.41452 0.46184 0.0
H782 H 0.71315 0.42332 0.41976 0.0
H783 H 0.78793 0.4296 0.4202 0.0
H784 H 0.71412 0.36994 0.47136 0.0
H785 H 0.69784 0.33585 0.53721 0.0
H786 H 0.67394 0.35602 0.45306 0.0
H787 H 0.65793 0.32228 0.51774 0.0
H788 H 0.73699 0.29248 0.45023 0.0
H789 H 0.77173 0.34588 0.40879 0.0
H790 H 0.6947 0.46475 0.49418 0.0
H791 H 0.65097 0.41048 0.52608 0.0
Li792 Li 0.63025 0.97784 0.79601 0.0
Li793 Li 0.60369 0.00191 0.81552 0.0
Li794 Li 0.59961 0.99413 0.77162 0.0
Li795 Li 0.63283 0.01949 0.79051 0.0
C796 C 0.57497 0.95955 0.7898 0.0
N797 N 0.5324 0.93647 0.77134 0.0
C798 C 0.55389 0.96381 0.79975 0.0
C799 C 0.57444 0.94347 0.77054 0.0
C800 C 0.53254 0.95196 0.79016 0.0
C801 C 0.55272 0.93202 0.76142 0.0
C802 C 0.64211 0.00387 0.84551 0.0
C803 C 0.64193 0.02441 0.88393 0.0
N804 N 0.64645 0.0049 0.89577 0.0
C805 C 0.64682 0.98404 0.85806 0.0
C806 C 0.63975 0.02426 0.85853 0.0
C807 C 0.64896 0.98492 0.88347 0.0
C808 C 0.67223 0.95577 0.80467 0.0
N809 N 0.64831 0.95205 0.79994 0.0
C810 C 0.64994 0.91129 0.80072 0.0
C811 C 0.63703 0.93037 0.79804 0.0
C812 C 0.67468 0.91457 0.80541 0.0
C813 C 0.68586 0.93717 0.80742 0.0
H814 H 0.68069 0.97323 0.80642 0.0
H815 H 0.61799 0.92789 0.79456 0.0
C816 C 0.57496 0.02506 0.84547 0.0
N817 N 0.58668 0.00596 0.84349 0.0
C818 C 0.56314 0.02905 0.86617 0.0
C819 C 0.57512 0.99332 0.88214 0.0
C820 C 0.58656 0.98992 0.86102 0.0
C821 C 0.56346 0.01324 0.88496 0.0
H822 H 0.5749 0.03728 0.83105 0.0
H823 H 0.59558 0.97462 0.85869 0.0
C824 C 0.65103 0.9845 0.75581 0.0
N825 N 0.68761 0.96254 0.73859 0.0
C826 C 0.67423 0.99517 0.75838 0.0
C827 C 0.64642 0.96271 0.74438 0.0
C828 C 0.69248 0.98378 0.74954 0.0
C829 C 0.66517 0.95187 0.73586 0.0
C830 C 0.59862 0.04609 0.7831 0.0
C831 C 0.59261 0.0515 0.759 0.0
C832 C 0.60578 0.06382 0.80035 0.0
C833 C 0.59398 0.0746 0.75253 0.0
C834 C 0.607 0.08669 0.79314 0.0
N835 N 0.60112 0.09157 0.76958 0.0
C836 C 0.55474 0.99495 0.74614 0.0
C837 C 0.58462 0.98287 0.72243 0.0
C838 C 0.53804 0.99202 0.72612 0.0
N839 N 0.57743 0.99012 0.74397 0.0
C840 C 0.56853 0.97973 0.70196 0.0
C841 C 0.5449 0.98429 0.7037 0.0
H842 H 0.54963 0.00092 0.76349 0.0
H843 H 0.60284 0.97954 0.72113 0.0
C844 C 0.66676 0.05747 0.80427 0.0
N845 N 0.65316 0.04646 0.78539 0.0
C846 C 0.68059 0.07802 0.80058 0.0
C847 C 0.66652 0.0752 0.75802 0.0
C848 C 0.65303 0.05467 0.76252 0.0
C849 C 0.68031 0.08727 0.77727 0.0
H850 H 0.66678 0.05036 0.82218 0.0
H851 H 0.64215 0.04539 0.74784 0.0
O852 O 0.59599 0.97134 0.79859 0.0
O853 O 0.63952 0.00325 0.82064 0.0
O854 O 0.633 0.99513 0.76483 0.0
O855 O 0.59796 0.02356 0.78967 0.0
H856 H 0.55395 0.97627 0.81458 0.0
H857 H 0.59055 0.94017 0.76242 0.0
H858 H 0.51607 0.95514 0.79762 0.0
H859 H 0.55202 0.91968 0.74639 0.0
H860 H 0.63993 0.04 0.89424 0.0
H861 H 0.64856 0.96808 0.84832 0.0
H862 H 0.63585 0.0397 0.84914 0.0
H863 H 0.6525 0.96968 0.89342 0.0
H864 H 0.64068 0.89412 0.79911 0.0
H865 H 0.70483 0.94043 0.81157 0.0
H866 H 0.55426 0.04458 0.86769 0.0
H867 H 0.57534 0.98053 0.89608 0.0
H868 H 0.67817 0.01193 0.76734 0.0
H869 H 0.62862 0.95408 0.74251 0.0
H870 H 0.71053 0.99178 0.7515 0.0
H871 H 0.66189 0.93493 0.72716 0.0
H872 H 0.58722 0.03803 0.74535 0.0
H873 H 0.61075 0.05994 0.81902 0.0
H874 H 0.58949 0.07904 0.73393 0.0
H875 H 0.61272 0.10056 0.80625 0.0
H876 H 0.5199 0.99537 0.72827 0.0
H877 H 0.5745 0.97388 0.68492 0.0
H878 H 0.69152 0.08649 0.81575 0.0
H879 H 0.66593 0.08174 0.73978 0.0
Li880 Li 0.03277 0.25965 0.88432 0.0
Li881 Li 0.00855 0.27378 0.91522 0.0
Li882 Li 0.01749 0.2334 0.91347 0.0
Li883 Li 0.99001 0.24862 0.88274 0.0
C884 C 0.06263 0.27081 0.92236 0.0
N885 N 0.10892 0.29067 0.92466 0.0
C886 C 0.0679 0.29413 0.92893 0.0
C887 C 0.08091 0.25755 0.91707 0.0
C888 C 0.09143 0.30386 0.92999 0.0
C889 C 0.10419 0.26793 0.91828 0.0
C890 C 0.99474 0.28816 0.86062 0.0
C891 C 0.95941 0.30227 0.84185 0.0
N892 N 0.9694 0.30311 0.82022 0.0
C893 C 0.00465 0.28918 0.83821 0.0
C894 C 0.97195 0.29482 0.86249 0.0
C895 C 0.99156 0.29681 0.81801 0.0
C896 C 0.06615 0.25126 0.85056 0.0
N897 N 0.05838 0.26767 0.86498 0.0
C898 C 0.08644 0.29645 0.85081 0.0
C899 C 0.06802 0.28995 0.86532 0.0
C900 C 0.09471 0.2799 0.83557 0.0
C901 C 0.08448 0.25701 0.83569 0.0
H902 H 0.0579 0.23376 0.85035 0.0
H903 H 0.06126 0.30268 0.87677 0.0
C904 C 0.01049 0.2989 0.96028 0.0
N905 N 0.00431 0.29941 0.93601 0.0
C906 C 0.00679 0.3174 0.97561 0.0
C907 C 0.99067 0.33663 0.94064 0.0
C908 C 0.99477 0.31784 0.92602 0.0
C909 C 0.99681 0.33662 0.96577 0.0
H910 H 0.01822 0.28408 0.96772 0.0
H911 H 0.99027 0.31796 0.90669 0.0
C912 C 0.01678 0.20588 0.87473 0.0
N913 N 0.01842 0.15871 0.87145 0.0
C914 C 0.99614 0.19135 0.86812 0.0
C915 C 0.03829 0.19643 0.87948 0.0
C916 C 0.99735 0.16755 0.86657 0.0
C917 C 0.03873 0.17254 0.87781 0.0
C918 C 0.97561 0.25078 0.938 0.0
C919 C 0.98275 0.24201 0.96046 0.0
C920 C 0.95798 0.26594 0.93659 0.0
C921 C 0.97218 0.24865 0.98121 0.0
C922 C 0.9479 0.27222 0.95776 0.0
N923 N 0.95515 0.26351 0.97945 0.0
C924 C 0.04483 0.20659 0.94513 0.0
C925 C 0.0071 0.18847 0.93054 0.0
C926 C 0.05011 0.18679 0.95741 0.0
N927 N 0.02374 0.20695 0.9318 0.0
C928 C 0.01176 0.16823 0.94226 0.0
C929 C 0.03359 0.1672 0.95571 0.0
H930 H 0.05761 0.22162 0.94612 0.0
H931 H 0.99032 0.18938 0.92013 0.0
C932 C 0.96415 0.24009 0.83702 0.0
N933 N 0.96215 0.24194 0.86139 0.0
C934 C 0.94386 0.237 0.82087 0.0
C935 C 0.91992 0.23697 0.85527 0.0
C936 C 0.94064 0.24024 0.87072 0.0
C937 C 0.92143 0.23538 0.83002 0.0
H938 H 0.98153 0.2414 0.83015 0.0
H939 H 0.93957 0.24167 0.89015 0.0
O940 O 0.03968 0.26104 0.9209 0.0
O941 O 0.00714 0.2804 0.88054 0.0
O942 O 0.01587 0.22919 0.87686 0.0
O943 O 0.98607 0.24485 0.91756 0.0
H944 H 0.05398 0.30467 0.93297 0.0
H945 H 0.07711 0.23952 0.91174 0.0
H946 H 0.09576 0.32191 0.93497 0.0
H947 H 0.11848 0.25793 0.91407 0.0
H948 H 0.94168 0.30726 0.843 0.0
H949 H 0.02217 0.28397 0.83633 0.0
H950 H 0.9638 0.29375 0.87957 0.0
H951 H 0.999 0.29762 0.80054 0.0
H952 H 0.09417 0.3142 0.85156 0.0
H953 H 0.0903 0.24381 0.82408 0.0
H954 H 0.01188 0.31679 0.99489 0.0
H955 H 0.98252 0.35089 0.93239 0.0
H956 H 0.97933 0.19835 0.86447 0.0
H957 H 0.05438 0.20741 0.88484 0.0
H958 H 0.9815 0.15609 0.86159 0.0
H959 H 0.0552 0.16498 0.88168 0.0
H960 H 0.99644 0.23036 0.96192 0.0
H961 H 0.95246 0.27313 0.9194 0.0
H962 H 0.97759 0.24207 0.99873 0.0
H963 H 0.9344 0.28409 0.95698 0.0
H964 H 0.06703 0.18665 0.96784 0.0
H965 H 0.99837 0.15361 0.94101 0.0
H966 H 0.94565 0.23571 0.8015 0.0
H967 H 0.90288 0.236 0.86294 0.0
Li968 Li 0.52593 0.75021 0.39471 0.0
Li969 Li 0.49784 0.76096 0.42359 0.0
Li970 Li 0.50686 0.72117 0.42012 0.0
Li971 Li 0.48342 0.73965 0.38766 0.0
C972 C 0.54467 0.76522 0.4424 0.0
N973 N 0.57571 0.7997 0.46555 0.0
C974 C 0.54722 0.78721 0.43268 0.0
C975 C 0.55776 0.76086 0.46399 0.0
C976 C 0.56305 0.80437 0.44462 0.0
C977 C 0.57341 0.7785 0.47539 0.0
C978 C 0.48859 0.78332 0.37308 0.0
C979 C 0.45233 0.79766 0.35691 0.0
N980 N 0.46396 0.80719 0.33837 0.0
C981 C 0.50022 0.79353 0.35403 0.0
C982 C 0.4645 0.78566 0.37469 0.0
C983 C 0.48745 0.80544 0.33662 0.0
C984 C 0.55171 0.75908 0.35401 0.0
N985 N 0.55418 0.75776 0.37863 0.0
C986 C 0.5962 0.76603 0.37874 0.0
C987 C 0.57594 0.7606 0.39104 0.0
C988 C 0.59411 0.76816 0.35339 0.0
C989 C 0.57153 0.76447 0.34096 0.0
H990 H 0.53429 0.75598 0.34452 0.0
H991 H 0.57769 0.75845 0.41045 0.0
C992 C 0.49608 0.78137 0.47051 0.0
N993 N 0.49116 0.78428 0.44632 0.0
C994 C 0.49021 0.79754 0.48751 0.0
C995 C 0.4749 0.81969 0.45441 0.0
C996 C 0.48117 0.80317 0.43808 0.0
C997 C 0.47913 0.81684 0.4795 0.0
H998 H 0.50438 0.76637 0.47659 0.0
H999 H 0.47789 0.80542 0.41884 0.0
C1000 C 0.52532 0.70468 0.37857 0.0
N1001 N 0.55741 0.67416 0.36737 0.0
C1002 C 0.52029 0.68942 0.35856 0.0
C1003 C 0.54669 0.70446 0.39287 0.0
C1004 C 0.53674 0.67411 0.3532 0.0
C1005 C 0.56267 0.68889 0.38692 0.0
C1006 C 0.46263 0.73606 0.44074 0.0
C1007 C 0.46915 0.72664 0.46306 0.0
C1008 C 0.4437 0.7497 0.43889 0.0
C1009 C 0.45676 0.73125 0.48324 0.0
C1010 C 0.4318 0.75396 0.45951 0.0
N1011 N 0.43853 0.74473 0.48108 0.0
C1012 C 0.53117 0.69073 0.45035 0.0
C1013 C 0.49421 0.67494 0.43117 0.0
C1014 C 0.53498 0.66955 0.46058 0.0
N1015 N 0.51113 0.69294 0.43584 0.0
C1016 C 0.49725 0.65349 0.4411 0.0
C1017 C 0.5179 0.65058 0.45595 0.0
H1018 H 0.54443 0.70529 0.45353 0.0
H1019 H 0.47858 0.67717 0.41934 0.0
C1020 C 0.4613 0.73898 0.33949 0.0
N1021 N 0.45785 0.73456 0.36315 0.0
C1022 C 0.442 0.73742 0.32201 0.0
C1023 C 0.41626 0.72585 0.35342 0.0
C1024 C 0.43595 0.72788 0.3703 0.0
C1025 C 0.41917 0.73078 0.32898 0.0
H1026 H 0.47895 0.74432 0.33436 0.0
H1027 H 0.43372 0.72452 0.38922 0.0
O1028 O 0.52888 0.74824 0.43136 0.0
O1029 O 0.50079 0.77136 0.39015 0.0
O1030 O 0.50936 0.71975 0.384 0.0
O1031 O 0.475 0.73229 0.42095 0.0
H1032 H 0.53715 0.79102 0.41609 0.0
H1033 H 0.55578 0.74405 0.47195 0.0
H1034 H 0.56524 0.82143 0.43727 0.0
H1035 H 0.58368 0.77534 0.4921 0.0
H1036 H 0.43363 0.79933 0.35781 0.0
H1037 H 0.51896 0.79248 0.3528 0.0
H1038 H 0.45521 0.77796 0.38934 0.0
H1039 H 0.49624 0.81334 0.32174 0.0
H1040 H 0.61338 0.76841 0.38892 0.0
H1041 H 0.56915 0.76613 0.32143 0.0
H1042 H 0.49441 0.79503 0.50669 0.0
H1043 H 0.46652 0.83438 0.44748 0.0
H1044 H 0.50382 0.68941 0.34731 0.0
H1045 H 0.55092 0.71619 0.40838 0.0
H1046 H 0.53307 0.66218 0.33776 0.0
H1047 H 0.57926 0.68853 0.39783 0.0
H1048 H 0.48384 0.71618 0.4649 0.0
H1049 H 0.4384 0.75713 0.42178 0.0
H1050 H 0.46172 0.72421 0.50067 0.0
H1051 H 0.41725 0.76464 0.45838 0.0
H1052 H 0.55117 0.66796 0.47184 0.0
H1053 H 0.48391 0.63916 0.43661 0.0
H1054 H 0.44486 0.74131 0.30329 0.0
H1055 H 0.39885 0.72091 0.35948 0.0
Li1056 Li 0.007 0.7874 0.64658 0.0
Li1057 Li 0.98081 0.77172 0.67606 0.0
Li1058 Li 0.0237 0.76705 0.68177 0.0
Li1059 Li 0.99771 0.7454 0.6505 0.0
C1060 C 0.99941 0.81694 0.68667 0.0
N1061 N 0.98143 0.85813 0.69692 0.0
C1062 C 0.98377 0.82621 0.66966 0.0
C1063 C 0.0059 0.82863 0.70892 0.0
C1064 C 0.97487 0.84703 0.67516 0.0
C1065 C 0.99663 0.84944 0.71376 0.0
C1066 C 0.95308 0.77091 0.63297 0.0
C1067 C 0.91151 0.75785 0.63319 0.0
N1068 N 0.9061 0.77591 0.61932 0.0
C1069 C 0.94712 0.78922 0.61855 0.0
C1070 C 0.93516 0.75498 0.64019 0.0
C1071 C 0.92326 0.79149 0.61191 0.0
C1072 C 0.01363 0.8029 0.60004 0.0
N1073 N 0.01578 0.81009 0.62377 0.0
C1074 C 0.03584 0.84619 0.61376 0.0
C1075 C 0.02658 0.83128 0.63091 0.0
C1076 C 0.03434 0.83896 0.58922 0.0
C1077 C 0.02292 0.81711 0.58236 0.0
H1078 H 0.00546 0.78574 0.59503 0.0
H1079 H 0.02889 0.83626 0.64999 0.0
C1080 C 0.9535 0.76614 0.71583 0.0
N1081 N 0.95425 0.77689 0.69424 0.0
C1082 C 0.93526 0.7691 0.73081 0.0
C1083 C 0.91882 0.79428 0.70119 0.0
C1084 C 0.93751 0.79098 0.68685 0.0
C1085 C 0.91756 0.78321 0.72347 0.0
H1086 H 0.9672 0.75532 0.7215 0.0
H1087 H 0.93864 0.79977 0.6699 0.0
C1088 C 0.05074 0.77182 0.64126 0.0
N1089 N 0.09435 0.79088 0.62862 0.0
C1090 C 0.06171 0.76176 0.62247 0.0
C1091 C 0.0619 0.79164 0.65357 0.0
C1092 C 0.08378 0.77164 0.61637 0.0
C1093 C 0.08396 0.80099 0.64692 0.0
C1094 C 0.992 0.72095 0.68831 0.0
C1095 C 0.01079 0.70718 0.69063 0.0
C1096 C 0.96867 0.7107 0.68723 0.0
C1097 C 0.00589 0.68327 0.69144 0.0
C1098 C 0.9645 0.68673 0.68812 0.0
N1099 N 0.98305 0.67362 0.69014 0.0
C1100 C 0.05395 0.77918 0.72434 0.0
C1101 C 0.06763 0.75204 0.69745 0.0
C1102 C 0.0748 0.77946 0.73955 0.0
N1103 N 0.05093 0.76579 0.70366 0.0
C1104 C 0.0887 0.75177 0.71211 0.0
C1105 C 0.09255 0.76573 0.73337 0.0
H1106 H 0.04036 0.78991 0.72879 0.0
H1107 H 0.06473 0.74157 0.68087 0.0
C1108 C 0.97298 0.70746 0.62211 0.0
N1109 N 0.99428 0.71681 0.63259 0.0
C1110 C 0.97147 0.68705 0.60807 0.0
C1111 C 0.01375 0.68613 0.61623 0.0
C1112 C 0.01444 0.70652 0.63009 0.0
C1113 C 0.99211 0.67634 0.60471 0.0
H1114 H 0.95722 0.71595 0.62436 0.0
H1115 H 0.03113 0.71434 0.63868 0.0
O1116 O 0.00821 0.79645 0.6817 0.0
O1117 O 0.97637 0.76844 0.63957 0.0
O1118 O 0.02893 0.76255 0.64713 0.0
O1119 O 0.99643 0.74432 0.68669 0.0
H1120 H 0.97852 0.8174 0.65241 0.0
H1121 H 0.01796 0.82174 0.72235 0.0
H1122 H 0.96272 0.85436 0.66214 0.0
H1123 H 0.00152 0.85867 0.73091 0.0
H1124 H 0.89746 0.74576 0.63883 0.0
H1125 H 0.96078 0.80154 0.61252 0.0
H1126 H 0.93943 0.74075 0.65137 0.0
H1127 H 0.91839 0.80563 0.60083 0.0
H1128 H 0.04495 0.86277 0.61971 0.0
H1129 H 0.02158 0.81097 0.56358 0.0
H1130 H 0.93491 0.76035 0.74792 0.0
H1131 H 0.90573 0.80565 0.69514 0.0
H1132 H 0.05321 0.74651 0.61265 0.0
H1133 H 0.05357 0.7998 0.66801 0.0
H1134 H 0.09248 0.76403 0.60186 0.0
H1135 H 0.09278 0.81633 0.65628 0.0
H1136 H 0.02894 0.71484 0.69145 0.0
H1137 H 0.95393 0.72112 0.68569 0.0
H1138 H 0.02026 0.67238 0.69301 0.0
H1139 H 0.94653 0.67855 0.68717 0.0
H1140 H 0.07728 0.79075 0.75559 0.0
H1141 H 0.10193 0.74088 0.70679 0.0
H1142 H 0.95438 0.67981 0.5998 0.0
H1143 H 0.03007 0.67843 0.614 0.0
Li1144 Li 0.50395 0.29759 0.13761 0.0
Li1145 Li 0.4806 0.28009 0.17075 0.0
Li1146 Li 0.52279 0.27917 0.17192 0.0
Li1147 Li 0.49776 0.25493 0.14241 0.0
C1148 C 0.51888 0.31988 0.18998 0.0
N1149 N 0.54852 0.34397 0.22583 0.0
C1150 C 0.51378 0.31848 0.21431 0.0
C1151 C 0.53894 0.33367 0.18384 0.0
C1152 C 0.52901 0.33077 0.23218 0.0
C1153 C 0.55373 0.34568 0.20225 0.0
C1154 C 0.45192 0.26443 0.12839 0.0
C1155 C 0.4218 0.23409 0.1364 0.0
N1156 N 0.40864 0.2395 0.11607 0.0
C1157 C 0.43814 0.26966 0.10756 0.0
C1158 C 0.44374 0.24648 0.14293 0.0
C1159 C 0.41629 0.25687 0.10164 0.0
C1160 C 0.50969 0.3144 0.091 0.0
N1161 N 0.50745 0.32099 0.11442 0.0
C1162 C 0.515 0.3607 0.10496 0.0
C1163 C 0.50957 0.3436 0.12158 0.0
C1164 C 0.5183 0.35439 0.08082 0.0
C1165 C 0.51506 0.33091 0.07378 0.0
H1166 H 0.50795 0.29626 0.08589 0.0
H1167 H 0.50769 0.34833 0.14035 0.0
C1168 C 0.4554 0.27406 0.21225 0.0
N1169 N 0.45441 0.28289 0.18964 0.0
C1170 C 0.43651 0.2753 0.22682 0.0
C1171 C 0.41588 0.29464 0.19451 0.0
C1172 C 0.43526 0.29315 0.18061 0.0
C1173 C 0.41636 0.28555 0.2179 0.0
H1174 H 0.47092 0.26606 0.21895 0.0
H1175 H 0.43502 0.3001 0.16258 0.0
C1176 C 0.5482 0.27593 0.12717 0.0
N1177 N 0.59089 0.27867 0.10602 0.0
C1178 C 0.55822 0.25584 0.12099 0.0
C1179 C 0.55981 0.29742 0.12233 0.0
C1180 C 0.57985 0.25758 0.11041 0.0
C1181 C 0.58139 0.29843 0.1117 0.0
C1182 C 0.50819 0.23412 0.18625 0.0
C1183 C 0.52956 0.22848 0.1779 0.0
C1184 C 0.49657 0.21967 0.20237 0.0
C1185 C 0.53895 0.20843 0.1858 0.0
C1186 C 0.50652 0.19975 0.20985 0.0
N1187 N 0.52733 0.19459 0.20147 0.0
C1188 C 0.54821 0.27396 0.21727 0.0
C1189 C 0.57216 0.28975 0.18727 0.0
C1190 C 0.56773 0.27555 0.23443 0.0
N1191 N 0.55074 0.28095 0.19416 0.0
C1192 C 0.59211 0.2917 0.20382 0.0
C1193 C 0.59 0.28467 0.22777 0.0
H1194 H 0.53092 0.2674 0.22247 0.0
H1195 H 0.5738 0.29565 0.1691 0.0
C1196 C 0.50087 0.22744 0.10102 0.0
N1197 N 0.49375 0.22665 0.12396 0.0
C1198 C 0.49959 0.20733 0.08659 0.0
C1199 C 0.48313 0.186 0.11947 0.0
C1200 C 0.48467 0.20656 0.13325 0.0
C1201 C 0.49072 0.18625 0.09585 0.0
H1202 H 0.50793 0.24369 0.09409 0.0
H1203 H 0.47875 0.20643 0.1514 0.0
O1204 O 0.50466 0.30732 0.17235 0.0
O1205 O 0.4734 0.27674 0.13432 0.0
O1206 O 0.5267 0.27452 0.13696 0.0
O1207 O 0.49847 0.25354 0.17862 0.0
H1208 H 0.49839 0.30779 0.21936 0.0
H1209 H 0.54328 0.33475 0.16512 0.0
H1210 H 0.52537 0.32973 0.25111 0.0
H1211 H 0.56944 0.35624 0.1978 0.0
H1212 H 0.41524 0.22017 0.1475 0.0
H1213 H 0.44429 0.28347 0.09609 0.0
H1214 H 0.45418 0.24213 0.15909 0.0
H1215 H 0.40543 0.26073 0.08557 0.0
H1216 H 0.51732 0.37861 0.11109 0.0
H1217 H 0.51692 0.32536 0.05522 0.0
H1218 H 0.43751 0.26809 0.24475 0.0
H1219 H 0.40082 0.30302 0.18718 0.0
H1220 H 0.54937 0.23904 0.12423 0.0
H1221 H 0.55244 0.31317 0.12704 0.0
H1222 H 0.58781 0.24217 0.1056 0.0
H1223 H 0.59061 0.31495 0.10799 0.0
H1224 H 0.53885 0.23953 0.16558 0.0
H1225 H 0.47996 0.22376 0.20893 0.0
H1226 H 0.55549 0.20389 0.17949 0.0
H1227 H 0.49769 0.18838 0.22228 0.0
H1228 H 0.56541 0.27002 0.25278 0.0
H1229 H 0.60906 0.29849 0.19786 0.0
H1230 H 0.50599 0.20818 0.06861 0.0
H1231 H 0.4761 0.17007 0.12716 0.0
C1232 C 0.2506 0.79593 0.87067 0.0
C1233 C 0.26515 0.77797 0.87471 0.0
C1234 C 0.24547 0.81027 0.88989 0.0
C1235 C 0.25446 0.80697 0.91386 0.0
H1236 H 0.2442 0.7998 0.85238 0.0
H1237 H 0.23497 0.82447 0.88589 0.0
S1238 S 0.29265 0.762 0.93432 0.0
N1239 N 0.28794 0.75734 0.90462 0.0
N1240 N 0.27802 0.78419 0.9408 0.0
C1241 C 0.26832 0.78863 0.91832 0.0
C1242 C 0.2738 0.7742 0.89871 0.0
C1243 C 0.04951 0.52409 0.44705 0.0
C1244 C 0.02599 0.52998 0.44579 0.0
C1245 C 0.06036 0.5185 0.42604 0.0
C1246 C 0.04821 0.51876 0.40291 0.0
H1247 H 0.05978 0.52392 0.4644 0.0
H1248 H 0.07859 0.51441 0.42788 0.0
S1249 S 0.98612 0.53181 0.38938 0.0
N1250 N 0.99065 0.53489 0.41925 0.0
N1251 N 0.01122 0.52441 0.37983 0.0
C1252 C 0.02463 0.52423 0.4013 0.0
C1253 C 0.01347 0.52978 0.4227 0.0
C1254 C 0.80187 0.74123 0.88907 0.0
C1255 C 0.78278 0.74309 0.87163 0.0
C1256 C 0.80019 0.72517 0.90759 0.0
C1257 C 0.77942 0.71022 0.90928 0.0
H1258 H 0.81793 0.75286 0.88901 0.0
H1259 H 0.81497 0.72503 0.92118 0.0
S1260 S 0.72576 0.70575 0.86602 0.0
N1261 N 0.74329 0.72708 0.85591 0.0
N1262 N 0.74039 0.6966 0.89035 0.0
C1263 C 0.7607 0.71108 0.89121 0.0
C1264 C 0.76232 0.72755 0.87249 0.0
C1265 C 0.02725 0.01766 0.37382 0.0
C1266 C 0.02409 0.01081 0.39775 0.0
C1267 C 0.0079 0.01828 0.35662 0.0
C1268 C 0.98458 0.01203 0.3626 0.0
H1269 H 0.04486 0.02232 0.36815 0.0
H1270 H 0.01127 0.02359 0.3384 0.0
S1271 S 0.96644 0.99287 0.42269 0.0
N1272 N 0.99558 0.99799 0.42664 0.0
N1273 N 0.9593 0.9988 0.3941 0.0
C1274 C 0.98104 0.00556 0.38655 0.0
C1275 C 0.00076 0.00503 0.40416 0.0
C1276 C 0.24791 0.23636 0.65665 0.0
C1277 C 0.22947 0.25077 0.65347 0.0
C1278 C 0.25215 0.22054 0.63838 0.0
C1279 C 0.23816 0.21848 0.61615 0.0
H1280 H 0.25929 0.23732 0.67339 0.0
H1281 H 0.26669 0.20999 0.64159 0.0
S1282 S 0.18687 0.25114 0.59894 0.0
N1283 N 0.19663 0.26136 0.6264 0.0
N1284 N 0.20451 0.23143 0.59226 0.0
C1285 C 0.21954 0.23258 0.61273 0.0
C1286 C 0.21521 0.24873 0.63133 0.0
C1287 C 0.43921 0.55408 0.59444 0.0
C1288 C 0.464 0.55812 0.59388 0.0
C1289 C 0.42872 0.55017 0.61633 0.0
C1290 C 0.44254 0.5502 0.63859 0.0
H1291 H 0.42774 0.55358 0.5778 0.0
H1292 H 0.40958 0.54697 0.61581 0.0
S1293 S 0.50812 0.56007 0.64741 0.0
N1294 N 0.50208 0.56229 0.61785 0.0
N1295 N 0.48225 0.55466 0.65889 0.0
C1296 C 0.46727 0.55464 0.63845 0.0
C1297 C 0.47802 0.55865 0.61615 0.0
C1298 C 0.79299 0.27794 0.64461 0.0
C1299 C 0.78497 0.28278 0.66753 0.0
C1300 C 0.7892 0.29232 0.62495 0.0
C1301 C 0.77709 0.31205 0.62733 0.0
H1302 H 0.80213 0.26278 0.64168 0.0
H1303 H 0.79543 0.2877 0.6076 0.0
S1304 S 0.75358 0.33337 0.68356 0.0
N1305 N 0.76504 0.30943 0.69157 0.0
N1306 N 0.75802 0.33638 0.65453 0.0
C1307 C 0.76927 0.31736 0.65015 0.0
C1308 C 0.77322 0.30279 0.67026 0.0
C1309 C 0.50985 0.95454 0.64875 0.0
C1310 C 0.49462 0.97092 0.64051 0.0
C1311 C 0.52591 0.95906 0.66916 0.0
C1312 C 0.52744 0.98011 0.68231 0.0
H1313 H 0.50948 0.93799 0.63936 0.0
H1314 H 0.53714 0.94584 0.67481 0.0
S1315 S 0.49211 0.02911 0.66845 0.0
N1316 N 0.48234 0.00929 0.64725 0.0
N1317 N 0.51277 0.01774 0.68564 0.0
C1318 C 0.51237 0.99668 0.67447 0.0
C1319 C 0.49595 0.99212 0.65357 0.0
C1320 C 0.87481 0.24418 0.77878 0.0
C1321 C 0.85705 0.22608 0.78174 0.0
C1322 C 0.89577 0.24692 0.79422 0.0
C1323 C 0.89961 0.23183 0.81334 0.0
H1324 H 0.87255 0.25634 0.76443 0.0
H1325 H 0.90891 0.26118 0.79144 0.0
S1326 S 0.8594 0.18125 0.82865 0.0
N1327 N 0.84525 0.19246 0.80523 0.0
N1328 N 0.88458 0.19782 0.83401 0.0
C1329 C 0.88222 0.2136 0.81643 0.0
C1330 C 0.86098 0.21066 0.80069 0.0
C1331 C 0.47228 0.87456 0.51009 0.0
C1332 C 0.4607 0.8683 0.53098 0.0
C1333 C 0.47804 0.85783 0.49352 0.0
C1334 C 0.47235 0.83419 0.4971 0.0
H1335 H 0.47751 0.8925 0.50678 0.0
H1336 H 0.48747 0.86346 0.47804 0.0
S1337 S 0.43982 0.80874 0.54741 0.0
N1338 N 0.4424 0.83677 0.55346 0.0
N1339 N 0.45286 0.80541 0.52202 0.0
C1340 C 0.46012 0.82769 0.51747 0.0
C1341 C 0.45436 0.84472 0.53444 0.0
C1342 C 0.15209 0.27961 0.8046 0.0
C1343 C 0.15196 0.29912 0.78999 0.0
C1344 C 0.13343 0.2734 0.8191 0.0
C1345 C 0.11392 0.28645 0.81956 0.0
H1346 H 0.16694 0.26926 0.80525 0.0
H1347 H 0.13452 0.25854 0.83043 0.0
S1348 S 0.10373 0.33772 0.78304 0.0
N1349 N 0.12979 0.33063 0.77586 0.0
N1350 N 0.09469 0.31873 0.80293 0.0
C1351 C 0.1132 0.30559 0.80458 0.0
C1352 C 0.1322 0.31196 0.78984 0.0
C1353 C 0.54733 0.59571 0.46786 0.0
C1354 C 0.53 0.58173 0.47908 0.0
C1355 C 0.54361 0.61826 0.46127 0.0
C1356 C 0.52224 0.62752 0.46528 0.0
H1357 H 0.56377 0.58905 0.4638 0.0
H1358 H 0.55724 0.62821 0.45217 0.0
S1359 S 0.47119 0.598 0.49404 0.0
N1360 N 0.49061 0.57872 0.49376 0.0
N1361 N 0.4838 0.62122 0.48181 0.0
C1362 C 0.50493 0.61386 0.47687 0.0
C1363 C 0.50877 0.59094 0.48369 0.0
C1364 C 0.88577 0.79688 0.77931 0.0
C1365 C 0.86162 0.79314 0.77094 0.0
C1366 C 0.90369 0.79359 0.76386 0.0
C1367 C 0.89821 0.7867 0.73934 0.0
H1368 H 0.89095 0.80224 0.79804 0.0
H1369 H 0.92201 0.79666 0.77111 0.0
S1370 S 0.83801 0.77443 0.7082 0.0
N1371 N 0.8333 0.78198 0.73631 0.0
N1372 N 0.86709 0.77595 0.70735 0.0
C1373 C 0.87423 0.78298 0.73062 0.0
C1374 C 0.85593 0.78612 0.7464 0.0
C1375 C 0.07434 0.85785 0.53996 0.0
C1376 C 0.06861 0.88036 0.53522 0.0
C1377 C 0.06307 0.84459 0.55739 0.0
C1378 C 0.04594 0.85347 0.57101 0.0
H1379 H 0.08731 0.85019 0.52982 0.0
H1380 H 0.06789 0.82728 0.56033 0.0
S1381 S 0.02496 0.91152 0.56629 0.0
N1382 N 0.04479 0.91103 0.54596 0.0
N1383 N 0.02395 0.88611 0.57902 0.0
C1384 C 0.04031 0.87603 0.56684 0.0
C1385 C 0.05153 0.88946 0.54884 0.0
C1386 C 0.15877 0.77058 0.7505 0.0
C1387 C 0.16031 0.76837 0.77593 0.0
C1388 C 0.13682 0.76972 0.737 0.0
C1389 C 0.11547 0.76665 0.74833 0.0
H1390 H 0.17466 0.77299 0.74082 0.0
H1391 H 0.13658 0.77166 0.7175 0.0
S1392 S 0.10941 0.75929 0.81423 0.0
N1393 N 0.13832 0.76266 0.81188 0.0
N1394 N 0.09705 0.76086 0.78632 0.0
C1395 C 0.11663 0.76442 0.7737 0.0
C1396 C 0.13903 0.7653 0.78752 0.0
C1397 C 0.00404 0.61722 0.58112 0.0
C1398 C 0.994 0.61648 0.55693 0.0
C1399 C 0.00288 0.6364 0.59661 0.0
C1400 C 0.99148 0.65552 0.58861 0.0
H1401 H 0.01336 0.60311 0.58808 0.0
H1402 H 0.01118 0.63635 0.61495 0.0
S1403 S 0.96174 0.66218 0.52729 0.0
N1404 N 0.9716 0.63651 0.526 0.0
N1405 N 0.96969 0.67254 0.55511 0.0
C1406 C 0.98084 0.65483 0.56472 0.0
C1407 C 0.98204 0.63533 0.54889 0.0
C1408 C 0.77787 0.87067 0.22898 0.0
C1409 C 0.77057 0.86028 0.25033 0.0
C1410 C 0.793 0.89122 0.23 0.0
C1411 C 0.80145 0.90217 0.2524 0.0
H1412 H 0.77157 0.86309 0.21128 0.0
H1413 H 0.79781 0.89879 0.21309 0.0
S1414 S 0.78948 0.88111 0.31364 0.0
N1415 N 0.7741 0.86199 0.29463 0.0
N1416 N 0.80273 0.90038 0.29642 0.0
C1417 C 0.79475 0.89175 0.27388 0.0
C1418 C 0.7793 0.87087 0.27287 0.0
C1419 C 0.83937 0.16599 0.29875 0.0
C1420 C 0.81534 0.17001 0.29511 0.0
C1421 C 0.84671 0.14409 0.29467 0.0
C1422 C 0.83034 0.12531 0.28668 0.0
H1423 H 0.85277 0.17993 0.30452 0.0
H1424 H 0.86545 0.14195 0.29731 0.0
S1425 S 0.76527 0.12603 0.27571 0.0
N1426 N 0.77503 0.15289 0.28389 0.0
N1427 N 0.78898 0.11173 0.27633 0.0
C1428 C 0.80624 0.12887 0.28336 0.0
C1429 C 0.7987 0.15119 0.2876 0.0
C1430 C 0.38989 0.01351 0.01286 0.0
C1431 C 0.41145 0.00439 0.00954 0.0
C1432 C 0.36892 0.99904 0.01456 0.0
C1433 C 0.36861 0.97487 0.01259 0.0
H1434 H 0.38929 0.03199 0.01461 0.0
H1435 H 0.35289 0.00688 0.01776 0.0
S1436 S 0.42006 0.94258 0.0011 0.0
N1437 N 0.43113 0.96986 0.0031 0.0
N1438 N 0.3916 0.94265 0.00515 0.0
C1439 C 0.39001 0.96559 0.00858 0.0
C1440 C 0.41144 0.98034 0.00733 0.0
C1441 C 0.21418 0.36638 0.29568 0.0
C1442 C 0.22142 0.36027 0.31947 0.0
C1443 C 0.20074 0.38505 0.29147 0.0
C1444 C 0.19417 0.39846 0.31087 0.0
H1445 H 0.21862 0.35648 0.28012 0.0
H1446 H 0.19546 0.38904 0.27287 0.0
S1447 S 0.20851 0.38996 0.37658 0.0
N1448 N 0.22107 0.36951 0.36273 0.0
N1449 N 0.19567 0.40435 0.3547 0.0
C1450 C 0.20148 0.39277 0.3347 0.0
C1451 C 0.21511 0.37375 0.33903 0.0
C1452 C 0.14902 0.99494 0.50483 0.0
C1453 C 0.1322 0.99171 0.48467 0.0
C1454 C 0.16449 0.01518 0.50812 0.0
C1455 C 0.16373 0.03298 0.49137 0.0
H1456 H 0.15036 0.98163 0.51812 0.0
H1457 H 0.17725 0.01688 0.52384 0.0
S1458 S 0.12447 0.03239 0.43452 0.0
N1459 N 0.11684 0.00749 0.44688 0.0
N1460 N 0.1455 0.04583 0.45348 0.0
C1461 C 0.147 0.03007 0.47118 0.0
C1462 C 0.13134 0.00935 0.46771 0.0
C1463 C 0.72458 0.13024 0.74993 0.0
C1464 C 0.72552 0.14973 0.76564 0.0
C1465 C 0.70956 0.1103 0.75352 0.0
C1466 C 0.69486 0.10909 0.77291 0.0
H1467 H 0.73609 0.13004 0.73518 0.0
H1468 H 0.71001 0.09546 0.74145 0.0
S1469 S 0.68825 0.15628 0.8173 0.0
N1470 N 0.70885 0.16718 0.80011 0.0
N1471 N 0.68042 0.12975 0.80658 0.0
C1472 C 0.69481 0.12876 0.78809 0.0
C1473 C 0.71016 0.14906 0.78451 0.0
C1474 C 0.37805 0.03334 0.57444 0.0
C1475 C 0.39243 0.02491 0.55726 0.0
C1476 C 0.36271 0.05015 0.56837 0.0
C1477 C 0.3609 0.05876 0.5448 0.0
H1478 H 0.37858 0.02685 0.5927 0.0
H1479 H 0.35171 0.05599 0.582 0.0
S1480 S 0.3946 0.04275 0.49321 0.0
N1481 N 0.4041 0.02696 0.51575 0.0
N1482 N 0.37477 0.05812 0.50433 0.0
C1483 C 0.37523 0.05071 0.52753 0.0
C1484 C 0.39116 0.03391 0.53378 0.0
C1485 C 0.62357 0.47184 0.47591 0.0
C1486 C 0.60801 0.47614 0.49378 0.0
C1487 C 0.64378 0.46037 0.48138 0.0
C1488 C 0.64917 0.45254 0.50489 0.0
H1489 H 0.62002 0.47713 0.4574 0.0
H1490 H 0.655 0.45711 0.46691 0.0
S1491 S 0.61513 0.46034 0.55865 0.0
N1492 N 0.60005 0.47232 0.53635 0.0
N1493 N 0.63806 0.45071 0.54647 0.0
C1494 C 0.6341 0.45704 0.52307 0.0
C1495 C 0.61357 0.46889 0.51757 0.0
C1496 C 0.74847 0.29156 0.36255 0.0
C1497 C 0.76174 0.27245 0.36474 0.0
C1498 C 0.7454 0.3055 0.38287 0.0
C1499 C 0.75521 0.30065 0.40614 0.0
H1500 H 0.74145 0.29654 0.34486 0.0
H1501 H 0.73577 0.32052 0.38029 0.0
S1502 S 0.79064 0.25222 0.42185 0.0
N1503 N 0.78421 0.24908 0.39217 0.0
N1504 N 0.77815 0.27519 0.43041 0.0
C1505 C 0.76782 0.2812 0.40875 0.0
C1506 C 0.77121 0.26716 0.38802 0.0
C1507 C 0.51747 0.02901 0.92715 0.0
C1508 C 0.52987 0.02968 0.95031 0.0
C1509 C 0.52835 0.02337 0.90615 0.0
C1510 C 0.55194 0.01788 0.90752 0.0
H1511 H 0.49935 0.03337 0.92507 0.0
H1512 H 0.51826 0.0234 0.88868 0.0
S1513 S 0.59212 0.01641 0.96352 0.0
N1514 N 0.56706 0.02377 0.97324 0.0
N1515 N 0.58736 0.01317 0.9337 0.0
C1516 C 0.56442 0.01796 0.9305 0.0
C1517 C 0.55344 0.02388 0.9519 0.0
C1518 C 0.29542 0.23321 0.37745 0.0
C1519 C 0.27509 0.2384 0.36318 0.0
C1520 C 0.29377 0.21756 0.39637 0.0
C1521 C 0.27174 0.2065 0.40172 0.0
H1522 H 0.31267 0.2419 0.3746 0.0
H1523 H 0.30974 0.21475 0.40747 0.0
S1524 S 0.21367 0.21142 0.36777 0.0
N1525 N 0.23251 0.22933 0.35433 0.0
N1526 N 0.22958 0.19991 0.38974 0.0
C1527 C 0.25148 0.2106 0.38685 0.0
C1528 C 0.25311 0.22651 0.36763 0.0
C1529 C 0.50631 0.5038 0.8833 0.0
C1530 C 0.4989 0.49461 0.90519 0.0
C1531 C 0.49029 0.50503 0.8629 0.0
C1532 C 0.46621 0.49713 0.86353 0.0
H1533 H 0.52456 0.51065 0.88199 0.0
H1534 H 0.49671 0.51291 0.84674 0.0
S1535 S 0.43802 0.46937 0.91534 0.0
N1536 N 0.46597 0.47598 0.9256 0.0
N1537 N 0.43595 0.47816 0.88708 0.0
C1538 C 0.45865 0.48713 0.88493 0.0
C1539 C 0.47496 0.48588 0.90577 0.0
C1540 C 0.75828 0.73436 0.16787 0.0
C1541 C 0.7394 0.74828 0.16493 0.0
C1542 C 0.76364 0.71977 0.14893 0.0
C1543 C 0.75037 0.71851 0.12628 0.0
H1544 H 0.7691 0.73472 0.18493 0.0
H1545 H 0.77842 0.7095 0.15201 0.0
S1546 S 0.69837 0.75036 0.10943 0.0
N1547 N 0.70699 0.75932 0.13759 0.0
N1548 N 0.71691 0.73168 0.10224 0.0
C1549 C 0.73135 0.73218 0.12309 0.0
C1550 C 0.72591 0.74709 0.14234 0.0
C1551 C 0.9899 0.03263 0.12662 0.0
C1552 C 0.97898 0.03621 0.1034 0.0
C1553 C 0.97649 0.02882 0.14669 0.0
C1554 C 0.95164 0.02822 0.14431 0.0
H1555 H 0.00902 0.0333 0.12952 0.0
H1556 H 0.98568 0.02647 0.16426 0.0
S1557 S 0.91419 0.03572 0.08757 0.0
N1558 N 0.94156 0.03813 0.07919 0.0
N1559 N 0.91651 0.03107 0.11702 0.0
C1560 C 0.9404 0.03115 0.12118 0.0
C1561 C 0.95403 0.03513 0.10071 0.0
C1562 C 0.28801 0.78668 0.14909 0.0
C1563 C 0.28202 0.79274 0.17254 0.0
C1564 C 0.28423 0.80097 0.12936 0.0
C1565 C 0.27411 0.82183 0.13219 0.0
H1566 H 0.29554 0.77063 0.14583 0.0
H1567 H 0.28884 0.79542 0.11162 0.0
S1568 S 0.25635 0.84648 0.18976 0.0
N1569 N 0.26618 0.8217 0.19748 0.0
N1570 N 0.25912 0.84846 0.16029 0.0
C1571 C 0.26835 0.82835 0.15551 0.0
C1572 C 0.27233 0.81387 0.17569 0.0
C1573 C 0.02593 0.49118 0.13281 0.0
C1574 C 0.00261 0.48044 0.13187 0.0
C1575 C 0.04022 0.49368 0.1547 0.0
C1576 C 0.03191 0.48528 0.17653 0.0
H1577 H 0.03334 0.49752 0.11643 0.0
H1578 H 0.05806 0.50206 0.15446 0.0
S1579 S 0.9722 0.45557 0.18385 0.0
N1580 N 0.97166 0.46162 0.15473 0.0
N1581 N 0.9988 0.4657 0.1958 0.0
C1582 C 0.00845 0.47487 0.17596 0.0
C1583 C 0.99376 0.47259 0.15365 0.0
C1584 C 0.37205 0.74757 0.28185 0.0
C1585 C 0.35576 0.72767 0.27953 0.0
C1586 C 0.39298 0.74826 0.29728 0.0
C1587 C 0.39827 0.72914 0.31104 0.0
H1588 H 0.3684 0.76293 0.27214 0.0
H1589 H 0.40471 0.76411 0.29907 0.0
S1590 S 0.36311 0.67214 0.30993 0.0
N1591 N 0.34761 0.6877 0.2912 0.0
N1592 N 0.38675 0.68931 0.32013 0.0
C1593 C 0.38269 0.70892 0.30828 0.0
C1594 C 0.36151 0.7081 0.29254 0.0
C1595 C 0.97773 0.37104 0.01889 0.0
C1596 C 0.9845 0.39406 0.01319 0.0
C1597 C 0.9817 0.35264 0.00345 0.0
C1598 C 0.99265 0.35648 0.9817 0.0
H1599 H 0.96933 0.36713 0.03548 0.0
H1600 H 0.97604 0.33524 0.00855 0.0
S1601 S 0.01468 0.41329 0.9587 0.0
N1602 N 0.00309 0.41957 0.98427 0.0
N1603 N 0.01088 0.38492 0.95554 0.0
C1604 C 0.99953 0.37936 0.97573 0.0
C1605 C 0.99538 0.39814 0.99138 0.0
C1606 C 0.651 0.80138 0.33667 0.0
C1607 C 0.65641 0.78966 0.31551 0.0
C1608 C 0.63096 0.79418 0.3488 0.0
C1609 C 0.61539 0.77502 0.34025 0.0
H1610 H 0.66228 0.81636 0.34399 0.0
H1611 H 0.62743 0.80393 0.36484 0.0
S1612 S 0.62173 0.73767 0.28633 0.0
N1613 N 0.64465 0.75744 0.28688 0.0
N1614 N 0.607 0.7439 0.30988 0.0
C1615 C 0.62057 0.76298 0.31927 0.0
C1616 C 0.64107 0.77027 0.30688 0.0
C1617 C 0.0479 0.12708 0.00675 0.0
C1618 C 0.04511 0.10514 0.99503 0.0
C1619 C 0.04491 0.14712 0.99377 0.0
C1620 C 0.03872 0.146 0.96861 0.0
H1621 H 0.05196 0.12879 0.02626 0.0
H1622 H 0.04666 0.16355 0.00365 0.0
S1623 S 0.03099 0.09333 0.9288 0.0
N1624 N 0.03714 0.08383 0.95633 0.0
N1625 N 0.03135 0.12159 0.93207 0.0
C1626 C 0.03664 0.12438 0.95646 0.0
C1627 C 0.03994 0.10395 0.96962 0.0
C1628 C 0.38137 0.29742 0.27201 0.0
C1629 C 0.3578 0.28998 0.26349 0.0
C1630 C 0.40015 0.29585 0.25719 0.0
C1631 C 0.39612 0.28697 0.23317 0.0
H1632 H 0.38544 0.30451 0.29033 0.0
H1633 H 0.41796 0.30188 0.26452 0.0
S1634 S 0.33804 0.26453 0.20207 0.0
N1635 N 0.33166 0.27298 0.22936 0.0
N1636 N 0.36704 0.27007 0.20164 0.0
C1637 C 0.37274 0.2794 0.22438 0.0
C1638 C 0.35358 0.28086 0.2395 0.0
C1639 C 0.52009 0.40919 0.04455 0.0
C1640 C 0.53888 0.407 0.0297 0.0
C1641 C 0.51356 0.39215 0.061 0.0
C1642 C 0.52552 0.37221 0.06325 0.0
H1643 H 0.51014 0.42411 0.04336 0.0
H1644 H 0.49882 0.39449 0.07184 0.0
S1645 S 0.57701 0.35872 0.02997 0.0
N1646 N 0.57 0.38355 0.01915 0.0
N1647 N 0.55786 0.35177 0.05027 0.0
C1648 C 0.54456 0.36991 0.04883 0.0
C1649 C 0.55121 0.38723 0.03204 0.0
C1650 C 0.63747 0.26759 0.27417 0.0
C1651 C 0.65361 0.28759 0.27696 0.0
C1652 C 0.61663 0.26699 0.25874 0.0
C1653 C 0.61111 0.28633 0.24549 0.0
H1654 H 0.6412 0.25202 0.28344 0.0
H1655 H 0.60512 0.25102 0.25659 0.0
S1656 S 0.64574 0.34374 0.2484 0.0
N1657 N 0.66149 0.32784 0.26653 0.0
N1658 N 0.62222 0.32663 0.23771 0.0
C1659 C 0.62651 0.30671 0.24883 0.0
C1660 C 0.64775 0.30736 0.26454 0.0
C1661 C 0.5024 0.12557 0.07729 0.0
C1662 C 0.4936 0.12359 0.05267 0.0
C1663 C 0.50078 0.14563 0.09131 0.0
C1664 C 0.49038 0.16453 0.08125 0.0
H1665 H 0.51113 0.11173 0.08574 0.0
H1666 H 0.50841 0.14661 0.10995 0.0
S1667 S 0.46238 0.16749 0.0186 0.0
N1668 N 0.47248 0.14189 0.01943 0.0
N1669 N 0.46949 0.17947 0.0459 0.0
C1670 C 0.48073 0.16254 0.05699 0.0
C1671 C 0.4823 0.14211 0.0427 0.0
C1672 C 0.27631 0.37765 0.75312 0.0
C1673 C 0.26759 0.36638 0.73091 0.0
C1674 C 0.2903 0.39879 0.75376 0.0
C1675 C 0.29627 0.40957 0.73224 0.0
H1676 H 0.27222 0.3702 0.7703 0.0
H1677 H 0.29666 0.40668 0.77131 0.0
S1678 S 0.278 0.38774 0.6693 0.0
N1679 N 0.26607 0.36783 0.68672 0.0
N1680 N 0.29234 0.40772 0.68807 0.0
C1681 C 0.28791 0.39855 0.70988 0.0
C1682 C 0.27357 0.37695 0.70918 0.0
C1683 C 0.30506 0.66036 0.79658 0.0
C1684 C 0.32267 0.67727 0.80677 0.0
C1685 C 0.31045 0.63805 0.79066 0.0
C1686 C 0.3336 0.63171 0.79489 0.0
H1687 H 0.287 0.66445 0.7927 0.0
H1688 H 0.2964 0.62567 0.78263 0.0
S1689 S 0.38626 0.66925 0.82106 0.0
N1690 N 0.36433 0.68585 0.82095 0.0
N1691 N 0.37434 0.644 0.80964 0.0
C1692 C 0.35132 0.64826 0.80535 0.0
C1693 C 0.34589 0.671 0.81134 0.0
C1694 C 0.89052 0.50849 0.51343 0.0
C1695 C 0.91252 0.50037 0.50984 0.0
C1696 C 0.8701 0.49318 0.51485 0.0
C1697 C 0.87079 0.46915 0.51233 0.0
H1698 H 0.88912 0.52681 0.5155 0.0
H1699 H 0.85367 0.50025 0.51816 0.0
S1700 S 0.92378 0.43935 0.50035 0.0
N1701 N 0.93373 0.46693 0.50282 0.0
N1702 N 0.89522 0.43818 0.50439 0.0
C1703 C 0.89267 0.46088 0.50824 0.0
C1704 C 0.91354 0.47647 0.50724 0.0
C1705 C 0.69376 0.85822 0.82949 0.0
C1706 C 0.71443 0.85528 0.81768 0.0
C1707 C 0.68107 0.87735 0.8253 0.0
C1708 C 0.68852 0.89444 0.80922 0.0
H1709 H 0.68723 0.84566 0.84217 0.0
H1710 H 0.66541 0.87891 0.835 0.0
S1711 S 0.74088 0.89485 0.77299 0.0
N1712 N 0.74148 0.87111 0.78872 0.0
N1713 N 0.71743 0.90702 0.78084 0.0
C1714 C 0.70904 0.89178 0.79716 0.0
C1715 C 0.722 0.87222 0.80136 0.0
C1716 C 0.63332 0.51527 0.99941 0.0
C1717 C 0.61103 0.52298 0.00279 0.0
C1718 C 0.6542 0.53027 0.00273 0.0
C1719 C 0.65368 0.55351 0.00983 0.0
H1720 H 0.63466 0.49766 0.99343 0.0
H1721 H 0.6709 0.52368 0.99951 0.0
S1722 S 0.60028 0.58229 0.02213 0.0
N1723 N 0.58998 0.55542 0.01458 0.0
N1724 N 0.62927 0.5835 0.0207 0.0
C1725 C 0.6317 0.56133 0.014 0.0
C1726 C 0.61038 0.54611 0.01051 0.0
C1727 C 0.24324 0.62361 0.27825 0.0
C1728 C 0.23689 0.6427 0.2649 0.0
C1729 C 0.22655 0.60508 0.28218 0.0
C1730 C 0.20282 0.6048 0.27288 0.0
H1731 H 0.2613 0.62285 0.28577 0.0
H1732 H 0.23237 0.5907 0.29235 0.0
S1733 S 0.1766 0.6507 0.23749 0.0
N1734 N 0.20488 0.66029 0.24276 0.0
N1735 N 0.17349 0.62539 0.25035 0.0
C1736 C 0.1961 0.62373 0.25959 0.0
C1737 C 0.21312 0.64269 0.25557 0.0
C1738 C 0.90133 0.53951 0.04533 0.0
C1739 C 0.8942 0.51888 0.05679 0.0
C1740 C 0.88563 0.55632 0.04071 0.0
C1741 C 0.86214 0.55308 0.04719 0.0
H1742 H 0.91915 0.54267 0.03965 0.0
H1743 H 0.89175 0.57174 0.0315 0.0
S1744 S 0.83488 0.50316 0.07915 0.0
N1745 N 0.86213 0.49687 0.07559 0.0
N1746 N 0.83279 0.52851 0.06687 0.0
C1747 C 0.85488 0.53286 0.05912 0.0
C1748 C 0.87085 0.51577 0.06394 0.0
C1749 C 0.11952 0.98586 0.04167 0.0
C1750 C 0.10626 0.99 0.01985 0.0
C1751 C 0.13863 0.9723 0.04186 0.0
C1752 C 0.14547 0.96277 0.02018 0.0
H1753 H 0.11492 0.99287 0.05883 0.0
H1754 H 0.14831 0.96948 0.05905 0.0
S1755 S 0.11695 0.96847 0.9582 0.0
N1756 N 0.10146 0.98332 0.97596 0.0
N1757 N 0.13763 0.95823 0.97638 0.0
C1758 C 0.13255 0.96687 0.99824 0.0
C1759 C 0.11288 0.98037 0.99806 0.0
loop_
_geom_bond_atom_site_label_1
_geom_bond_atom_site_label_2
_geom_bond_distance
_geom_bond_site_symmetry_2
_ccdc_geom_bond_type
O0 Cd1 2.300 . S
O0 C7 1.275 . S
Cd1 O0 2.300 . S
Cd1 O9 2.381 . S
Cd1 O10 2.404 . S
O2 Cd3 2.385 . S
O2 C7 1.255 . S
Cd3 O2 2.385 . S
Cd3 O4 2.317 . S
O4 Cd3 2.317 . S
O4 C5 1.232 1_455 S
C5 O4 1.232 1_655 S
C5 O6 1.218 . S
O6 C5 1.218 . S
C7 O0 1.275 . S
C7 O2 1.255 . S
C8 O9 1.258 1_565 S
C8 O10 1.249 1_565 S
O9 Cd1 2.381 . S
O9 C8 1.258 1_545 S
O10 Cd1 2.404 . S
O10 C8 1.249 1_545 S
O11 Cd12 2.300 . S
O11 C18 1.275 . S
Cd12 O11 2.300 . S
Cd12 O20 2.381 . S
Cd12 O21 2.378 . S
O13 Cd14 2.385 . S
O13 C18 1.255 . S
Cd14 O13 2.385 . S
Cd14 O15 2.317 . S
O15 Cd14 2.317 . S
O15 C16 1.232 . S
C16 O15 1.232 . S
C16 O17 1.218 . S
O17 C16 1.218 . S
C18 O11 1.275 . S
C18 O13 1.255 . S
C19 O20 1.258 . S
C19 O21 1.256 . S
O20 Cd12 2.381 . S
O20 C19 1.258 . S
O21 Cd12 2.378 . S
O21 C19 1.256 . S
O22 Cd23 2.300 . S
O22 C29 1.275 . S
Cd23 O22 2.300 . S
Cd23 O31 2.381 . S
Cd23 O32 2.378 . S
O24 Cd25 2.385 1_655 S
O24 C29 1.255 . S
Cd25 O24 2.385 1_455 S
Cd25 O26 2.317 1_455 S
O26 Cd25 2.317 1_655 S
O26 C27 1.232 . S
C27 O26 1.232 . S
C27 O28 1.218 1_655 S
O28 C27 1.218 1_455 S
C29 O22 1.275 . S
C29 O24 1.255 . S
C30 O31 1.258 . S
C30 O32 1.256 . S
O31 Cd23 2.381 . S
O31 C30 1.258 . S
O32 Cd23 2.378 . S
O32 C30 1.256 . S
O33 Cd34 2.300 . S
O33 C40 1.275 . S
Cd34 O33 2.300 . S
Cd34 O42 2.381 . S
Cd34 O43 2.378 . S
O35 Cd36 2.385 . S
O35 C40 1.255 . S
Cd36 O35 2.385 . S
Cd36 O37 2.317 . S
O37 Cd36 2.317 . S
O37 C38 1.232 . S
C38 O37 1.232 . S
C38 O39 1.218 . S
O39 C38 1.218 . S
C40 O33 1.275 . S
C40 O35 1.255 . S
C41 O42 1.258 . S
C41 O43 1.256 . S
O42 Cd34 2.381 . S
O42 C41 1.258 . S
O43 Cd34 2.378 . S
O43 C41 1.256 . S
O44 Cd45 2.300 . S
O44 C51 1.275 1_565 S
Cd45 O44 2.300 . S
Cd45 O53 2.381 . S
Cd45 O54 2.378 . S
O46 Cd47 2.385 . S
O46 C51 1.255 . S
Cd47 O46 2.385 . S
Cd47 O48 2.317 1_545 S
O48 Cd47 2.317 1_565 S
O48 C49 1.232 1_565 S
C49 O48 1.232 1_545 S
C49 O50 1.218 . S
O50 C49 1.218 . S
C51 O44 1.275 1_545 S
C51 O46 1.255 . S
C52 O53 1.258 . S
C52 O54 1.256 . S
O53 Cd45 2.381 . S
O53 C52 1.258 . S
O54 Cd45 2.378 . S
O54 C52 1.256 . S
O55 Cd56 2.300 . S
O55 C62 1.275 . S
Cd56 O55 2.300 . S
Cd56 O64 2.381 . S
Cd56 O65 2.378 . S
O57 Cd58 2.385 . S
O57 C62 1.255 . S
Cd58 O57 2.385 . S
Cd58 O59 2.317 . S
O59 Cd58 2.317 . S
O59 C60 1.232 . S
C60 O59 1.232 . S
C60 O61 1.218 . S
O61 C60 1.218 . S
C62 O55 1.275 . S
C62 O57 1.255 . S
C63 O64 1.258 . S
C63 O65 1.256 . S
O64 Cd56 2.381 . S
O64 C63 1.258 . S
O65 Cd56 2.378 . S
O65 C63 1.256 . S
O66 Cd67 2.300 . S
O66 C73 1.275 1_655 S
Cd67 O66 2.300 . S
Cd67 O75 2.381 . S
Cd67 O76 2.378 . S
O68 Cd69 2.385 . S
O68 C73 1.255 . S
Cd69 O68 2.385 . S
Cd69 O70 2.330 . S
O70 Cd69 2.330 . S
O70 C71 1.240 . S
C71 O70 1.240 . S
C71 O72 1.218 . S
O72 C71 1.218 . S
C73 O66 1.275 1_455 S
C73 O68 1.255 . S
C74 O75 1.258 . S
C74 O76 1.256 . S
O75 Cd67 2.381 . S
O75 C74 1.258 . S
O76 Cd67 2.378 . S
O76 C74 1.256 . S
O77 Cd78 2.300 . S
O77 C84 1.275 . S
Cd78 O77 2.300 . S
Cd78 O86 2.381 . S
Cd78 O87 2.378 . S
O79 Cd80 2.385 . S
O79 C84 1.255 . S
Cd80 O79 2.385 . S
Cd80 O81 2.317 . S
O81 Cd80 2.317 . S
O81 C82 1.232 . S
C82 O81 1.232 . S
C82 O83 1.218 . S
O83 C82 1.218 . S
C84 O77 1.275 . S
C84 O79 1.255 . S
C85 O86 1.258 . S
C85 O87 1.256 . S
O86 Cd78 2.381 . S
O86 C85 1.258 . S
O87 Cd78 2.378 . S
O87 C85 1.256 . S
O88 Cd89 2.300 . S
O88 C95 1.275 . S
Cd89 O88 2.300 . S
Cd89 O97 2.381 . S
Cd89 O98 2.378 . S
O90 Cd91 2.385 . S
O90 C95 1.255 . S
Cd91 O90 2.385 . S
Cd91 O92 2.317 . S
O92 Cd91 2.317 . S
O92 C93 1.232 . S
C93 O92 1.232 . S
C93 O94 1.218 . S
O94 C93 1.218 . S
C95 O88 1.275 . S
C95 O90 1.255 . S
C96 O97 1.258 . S
C96 O98 1.256 . S
O97 Cd89 2.381 . S
O97 C96 1.258 . S
O98 Cd89 2.378 . S
O98 C96 1.256 . S
O99 Cd100 2.300 1_565 S
O99 C106 1.275 . S
Cd100 O99 2.300 1_545 S
Cd100 O108 2.381 . S
Cd100 O109 2.378 . S
O101 Cd102 2.385 . S
O101 C106 1.255 . S
Cd102 O101 2.385 . S
Cd102 O103 2.317 . S
O103 Cd102 2.317 . S
O103 C104 1.232 . S
C104 O103 1.232 . S
C104 O105 1.218 . S
O105 C104 1.218 . S
C106 O99 1.275 . S
C106 O101 1.255 . S
C107 O108 1.258 . S
C107 O109 1.256 . S
O108 Cd100 2.381 . S
O108 C107 1.258 . S
O109 Cd100 2.378 . S
O109 C107 1.256 . S
O110 Cd111 2.300 . S
O110 C117 1.275 . S
Cd111 O110 2.300 . S
Cd111 O119 2.381 . S
Cd111 O120 2.378 . S
O112 Cd113 2.385 . S
O112 C117 1.255 . S
Cd113 O112 2.385 . S
Cd113 O114 2.317 . S
O114 Cd113 2.317 . S
O114 C115 1.232 . S
C115 O114 1.232 . S
C115 O116 1.218 . S
O116 C115 1.218 . S
C117 O110 1.275 . S
C117 O112 1.255 . S
C118 O119 1.258 . S
C118 O120 1.256 . S
O119 Cd111 2.381 . S
O119 C118 1.258 . S
O120 Cd111 2.378 . S
O120 C118 1.256 . S
O121 Cd122 2.300 . S
O121 C128 1.275 . S
Cd122 O121 2.300 . S
Cd122 O130 2.381 . S
Cd122 O131 2.378 . S
O123 Cd124 2.385 . S
O123 C128 1.255 . S
Cd124 O123 2.385 . S
Cd124 O125 2.317 . S
O125 Cd124 2.317 . S
O125 C126 1.232 . S
C126 O125 1.232 . S
C126 O127 1.218 . S
O127 C126 1.218 . S
C128 O121 1.275 . S
C128 O123 1.255 . S
C129 O130 1.258 . S
C129 O131 1.256 . S
O130 Cd122 2.381 . S
O130 C129 1.258 . S
O131 Cd122 2.378 . S
O131 C129 1.256 . S
O132 Cd133 2.300 . S
O132 C139 1.275 . S
Cd133 O132 2.300 . S
Cd133 O141 2.381 . S
Cd133 O142 2.378 . S
O134 Cd135 2.385 . S
O134 C139 1.255 . S
Cd135 O134 2.385 . S
Cd135 O136 2.317 . S
O136 Cd135 2.317 . S
O136 C137 1.232 . S
C137 O136 1.232 . S
C137 O138 1.218 . S
O138 C137 1.218 . S
C139 O132 1.275 . S
C139 O134 1.255 . S
C140 O141 1.258 . S
C140 O142 1.256 . S
O141 Cd133 2.381 . S
O141 C140 1.258 . S
O142 Cd133 2.378 . S
O142 C140 1.256 . S
O143 Cd144 2.300 1_556 S
O143 C150 1.275 . S
Cd144 O143 2.300 1_554 S
Cd144 O152 2.381 . S
Cd144 O153 2.378 . S
O145 Cd146 2.385 . S
O145 C150 1.255 . S
Cd146 O145 2.385 . S
Cd146 O147 2.317 . S
O147 Cd146 2.317 . S
O147 C148 1.232 . S
C148 O147 1.232 . S
C148 O149 1.218 . S
O149 C148 1.218 . S
C150 O143 1.275 . S
C150 O145 1.255 . S
C151 O152 1.258 . S
C151 O153 1.256 . S
O152 Cd144 2.381 . S
O152 C151 1.258 . S
O153 Cd144 2.378 . S
O153 C151 1.256 . S
O154 Cd155 2.300 . S
O154 C161 1.275 . S
Cd155 O154 2.300 . S
Cd155 O163 2.381 . S
Cd155 O164 2.378 . S
O156 Cd157 2.385 . S
O156 C161 1.255 . S
Cd157 O156 2.385 . S
Cd157 O158 2.317 . S
O158 Cd157 2.317 . S
O158 C159 1.232 . S
C159 O158 1.232 . S
C159 O160 1.218 . S
O160 C159 1.218 . S
C161 O154 1.275 . S
C161 O156 1.255 . S
C162 O163 1.258 . S
C162 O164 1.256 . S
O163 Cd155 2.381 . S
O163 C162 1.258 . S
O164 Cd155 2.378 . S
O164 C162 1.256 . S
O165 Cd166 2.300 1_556 S
O165 C172 1.275 . S
Cd166 O165 2.300 1_554 S
Cd166 O174 2.381 1_544 S
Cd166 O175 2.378 1_545 S
O167 Cd168 2.385 1_556 S
O167 C172 1.255 . S
Cd168 O167 2.385 1_554 S
Cd168 O169 2.317 . S
O169 Cd168 2.317 . S
O169 C170 1.232 . S
C170 O169 1.232 . S
C170 O171 1.218 . S
O171 C170 1.218 . S
C172 O165 1.275 . S
C172 O167 1.255 . S
C173 O174 1.258 1_554 S
C173 O175 1.256 . S
O174 Cd166 2.381 1_566 S
O174 C173 1.258 1_556 S
O175 Cd166 2.378 1_565 S
O175 C173 1.256 . S
Li176 N193 1.989 1_554 S
Li176 O236 1.956 . S
Li176 O237 1.970 . S
Li176 O238 1.961 1_554 S
Li177 N201 1.990 . S
Li177 O236 1.970 . S
Li177 O237 1.956 . S
Li177 O239 1.961 . S
Li178 N223 1.990 . S
Li178 O236 1.961 1_556 S
Li178 O238 1.956 . S
Li178 O239 1.970 1_556 S
Li179 N229 1.990 . S
Li179 O237 1.961 . S
Li179 O238 1.970 1_554 S
Li179 O239 1.956 . S
C180 C182 1.366 . S
C180 C183 1.335 1_554 S
C180 O236 1.328 . S
N181 C184 1.314 1_556 S
N181 C185 1.279 . S
C182 C180 1.366 . S
C182 C184 1.353 . S
C182 H240 0.929 . S
C183 C180 1.335 1_556 S
C183 C185 1.358 . S
C183 H241 0.930 . S
C184 N181 1.314 1_554 S
C184 C182 1.353 . S
C184 H242 0.930 . S
C185 N181 1.279 . S
C185 C183 1.358 . S
C185 H243 0.930 . S
C186 C189 1.348 . S
C186 C190 1.356 . S
C186 O237 1.325 . S
C187 N188 1.279 . S
C187 C190 1.358 . S
C187 H244 0.930 . S
N188 C187 1.279 . S
N188 C191 1.314 . S
C189 C186 1.348 . S
C189 C191 1.353 . S
C189 H245 0.929 . S
C190 C186 1.356 . S
C190 C187 1.358 . S
C190 H246 0.930 . S
C191 N188 1.314 . S
C191 C189 1.353 . S
C191 H247 0.930 . S
C192 N193 1.316 . S
C192 C197 1.353 . S
C192 H198 0.930 . S
N193 Li176 1.989 1_556 S
N193 C192 1.316 . S
N193 C195 1.278 1_556 S
C194 C195 1.358 . S
C194 C196 1.356 . S
C194 H248 0.930 . S
C195 N193 1.278 1_554 S
C195 C194 1.358 . S
C195 H199 0.930 . S
C196 C194 1.356 . S
C196 C197 1.348 1_554 S
C197 C192 1.353 . S
C197 C196 1.348 1_556 S
C197 H249 0.929 . S
H198 C192 0.930 . S
H199 C195 0.930 . S
C200 N201 1.314 . S
C200 C202 1.353 . S
C200 H206 0.930 . S
N201 Li177 1.990 . S
N201 C200 1.314 . S
N201 C204 1.279 . S
C202 C200 1.353 . S
C202 C205 1.348 . S
C202 H250 0.929 . S
C203 C204 1.358 . S
C203 C205 1.356 . S
C203 H251 0.930 . S
C204 N201 1.279 . S
C204 C203 1.358 . S
C204 H207 0.930 . S
C205 C202 1.348 . S
C205 C203 1.356 . S
H206 C200 0.930 . S
H207 C204 0.930 . S
C208 C210 1.348 . S
C208 C211 1.356 . S
C208 O238 1.325 . S
N209 C212 1.314 . S
N209 C213 1.279 . S
C210 C208 1.348 . S
C210 C212 1.353 . S
C210 H252 0.929 . S
C211 C208 1.356 . S
C211 C213 1.358 . S
C211 H253 0.930 . S
C212 N209 1.314 . S
C212 C210 1.353 . S
C212 H254 0.930 . S
C213 N209 1.279 . S
C213 C211 1.358 . S
C213 H255 0.930 . S
C214 C215 1.348 1_554 S
C214 C216 1.356 . S
C214 O239 1.325 . S
C215 C214 1.348 1_556 S
C215 C217 1.353 . S
C215 H256 0.929 . S
C216 C214 1.356 . S
C216 C218 1.358 . S
C216 H257 0.930 . S
C217 C215 1.353 . S
C217 N219 1.314 1_556 S
C217 H258 0.930 . S
C218 C216 1.358 . S
C218 N219 1.279 . S
C218 H259 0.930 . S
N219 C217 1.314 1_554 S
N219 C218 1.279 . S
C220 C222 1.353 . S
C220 N223 1.314 . S
C220 H226 0.930 . S
C221 N223 1.279 . S
C221 C224 1.358 . S
C221 H227 0.930 . S
C222 C220 1.353 . S
C222 C225 1.348 . S
C222 H260 0.929 . S
N223 Li178 1.990 . S
N223 C220 1.314 . S
N223 C221 1.279 . S
C224 C221 1.358 . S
C224 C225 1.356 . S
C224 H261 0.930 . S
C225 C222 1.348 . S
C225 C224 1.356 . S
H226 C220 0.930 . S
H227 C221 0.930 . S
C228 N229 1.314 . S
C228 C230 1.353 . S
C228 H234 0.930 . S
N229 Li179 1.990 . S
N229 C228 1.314 . S
N229 C232 1.279 . S
C230 C228 1.353 . S
C230 C233 1.348 . S
C230 H262 0.929 . S
C231 C232 1.358 . S
C231 C233 1.356 . S
C231 H263 0.930 . S
C232 N229 1.279 . S
C232 C231 1.358 . S
C232 H235 0.938 . S
C233 C230 1.348 . S
C233 C231 1.356 . S
H234 C228 0.930 . S
H235 C232 0.938 . S
O236 Li176 1.956 . S
O236 Li177 1.970 . S
O236 Li178 1.961 1_554 S
O236 C180 1.328 . S
O237 Li176 1.970 . S
O237 Li177 1.956 . S
O237 Li179 1.961 . S
O237 C186 1.325 . S
O238 Li176 1.961 1_556 S
O238 Li178 1.956 . S
O238 Li179 1.970 1_556 S
O238 C208 1.325 . S
O239 Li177 1.961 . S
O239 Li178 1.970 1_554 S
O239 Li179 1.956 . S
O239 C214 1.325 . S
H240 C182 0.929 . S
H241 C183 0.930 . S
H242 C184 0.930 . S
H243 C185 0.930 . S
H244 C187 0.930 . S
H245 C189 0.929 . S
H246 C190 0.930 . S
H247 C191 0.930 . S
H248 C194 0.930 . S
H249 C197 0.929 . S
H250 C202 0.929 . S
H251 C203 0.930 . S
H252 C210 0.929 . S
H253 C211 0.930 . S
H254 C212 0.930 . S
H255 C213 0.930 . S
H256 C215 0.929 . S
H257 C216 0.930 . S
H258 C217 0.930 . S
H259 C218 0.930 . S
H260 C222 0.929 . S
H261 C224 0.930 . S
H262 C230 0.929 . S
H263 C231 0.930 . S
Li264 N281 1.990 . S
Li264 O324 1.956 . S
Li264 O325 1.970 . S
Li264 O326 1.961 . S
Li265 N289 1.990 . S
Li265 O324 1.970 . S
Li265 O325 1.956 . S
Li265 O327 1.961 . S
Li266 N311 1.990 . S
Li266 O324 1.961 . S
Li266 O326 1.956 . S
Li266 O327 1.970 . S
Li267 N317 1.990 . S
Li267 O325 1.961 . S
Li267 O326 1.970 . S
Li267 O327 1.956 . S
C268 C270 1.348 . S
C268 C271 1.356 . S
C268 O324 1.325 . S
N269 C272 1.314 . S
N269 C273 1.279 . S
C270 C268 1.348 . S
C270 C272 1.353 . S
C270 H328 0.929 . S
C271 C268 1.356 . S
C271 C273 1.358 . S
C271 H329 0.930 . S
C272 N269 1.314 . S
C272 C270 1.353 . S
C272 H330 0.930 . S
C273 N269 1.279 . S
C273 C271 1.358 . S
C273 H331 0.930 . S
C274 C277 1.348 . S
C274 C278 1.356 . S
C274 O325 1.325 . S
C275 N276 1.279 . S
C275 C278 1.358 . S
C275 H332 0.930 . S
N276 C275 1.279 . S
N276 C279 1.314 . S
C277 C274 1.348 . S
C277 C279 1.353 . S
C277 H333 0.929 . S
C278 C274 1.356 . S
C278 C275 1.358 . S
C278 H334 0.930 . S
C279 N276 1.314 . S
C279 C277 1.353 . S
C279 H335 0.930 . S
C280 N281 1.314 . S
C280 C285 1.353 . S
C280 H286 0.930 . S
N281 Li264 1.990 . S
N281 C280 1.314 . S
N281 C283 1.279 . S
C282 C283 1.358 . S
C282 C284 1.356 . S
C282 H336 0.930 . S
C283 N281 1.279 . S
C283 C282 1.358 . S
C283 H287 0.930 . S
C284 C282 1.356 . S
C284 C285 1.348 . S
C285 C280 1.353 . S
C285 C284 1.348 . S
C285 H337 0.929 . S
H286 C280 0.930 . S
H287 C283 0.930 . S
C288 N289 1.314 . S
C288 C290 1.353 . S
C288 H294 0.930 . S
N289 Li265 1.990 . S
N289 C288 1.314 . S
N289 C292 1.279 . S
C290 C288 1.353 . S
C290 C293 1.348 . S
C290 H338 0.929 . S
C291 C292 1.358 . S
C291 C293 1.356 . S
C291 H339 0.930 . S
C292 N289 1.279 . S
C292 C291 1.358 . S
C292 H295 0.930 . S
C293 C290 1.348 . S
C293 C291 1.356 . S
H294 C288 0.930 . S
H295 C292 0.930 . S
C296 C298 1.348 . S
C296 C299 1.356 . S
C296 O326 1.325 . S
N297 C300 1.314 . S
N297 C301 1.279 . S
C298 C296 1.348 . S
C298 C300 1.353 . S
C298 H340 0.929 . S
C299 C296 1.356 . S
C299 C301 1.358 . S
C299 H341 0.930 . S
C300 N297 1.314 . S
C300 C298 1.353 . S
C300 H342 0.930 . S
C301 N297 1.279 . S
C301 C299 1.358 . S
C301 H343 0.930 . S
C302 C303 1.348 . S
C302 C304 1.356 . S
C302 O327 1.325 . S
C303 C302 1.348 . S
C303 C305 1.353 . S
C303 H344 0.929 . S
C304 C302 1.356 . S
C304 C306 1.358 . S
C304 H345 0.930 . S
C305 C303 1.353 . S
C305 N307 1.314 . S
C305 H346 0.930 . S
C306 C304 1.358 . S
C306 N307 1.279 . S
C306 H347 0.930 . S
N307 C305 1.314 . S
N307 C306 1.279 . S
C308 C310 1.353 . S
C308 N311 1.314 . S
C308 H314 0.930 . S
C309 N311 1.279 . S
C309 C312 1.358 . S
C309 H315 0.930 . S
C310 C308 1.353 . S
C310 C313 1.348 . S
C310 H348 0.929 . S
N311 Li266 1.990 . S
N311 C308 1.314 . S
N311 C309 1.279 . S
C312 C309 1.358 . S
C312 C313 1.356 . S
C312 H349 0.930 . S
C313 C310 1.348 . S
C313 C312 1.356 . S
H314 C308 0.930 . S
H315 C309 0.930 . S
C316 N317 1.314 . S
C316 C318 1.353 . S
C316 H322 0.930 . S
N317 Li267 1.990 . S
N317 C316 1.314 . S
N317 C320 1.279 . S
C318 C316 1.353 . S
C318 C321 1.348 . S
C318 H350 0.929 . S
C319 C320 1.358 . S
C319 C321 1.356 . S
C319 H351 0.930 . S
C320 N317 1.279 . S
C320 C319 1.358 . S
C320 H323 0.930 . S
C321 C318 1.348 . S
C321 C319 1.356 . S
H322 C316 0.930 . S
H323 C320 0.930 . S
O324 Li264 1.956 . S
O324 Li265 1.970 . S
O324 Li266 1.961 . S
O324 C268 1.325 . S
O325 Li264 1.970 . S
O325 Li265 1.956 . S
O325 Li267 1.961 . S
O325 C274 1.325 . S
O326 Li264 1.961 . S
O326 Li266 1.956 . S
O326 Li267 1.970 . S
O326 C296 1.325 . S
O327 Li265 1.961 . S
O327 Li266 1.970 . S
O327 Li267 1.956 . S
O327 C302 1.325 . S
H328 C270 0.929 . S
H329 C271 0.930 . S
H330 C272 0.930 . S
H331 C273 0.930 . S
H332 C275 0.930 . S
H333 C277 0.929 . S
H334 C278 0.930 . S
H335 C279 0.930 . S
H336 C282 0.930 . S
H337 C285 0.929 . S
H338 C290 0.929 . S
H339 C291 0.930 . S
H340 C298 0.929 . S
H341 C299 0.930 . S
H342 C300 0.930 . S
H343 C301 0.930 . S
H344 C303 0.929 . S
H345 C304 0.930 . S
H346 C305 0.930 . S
H347 C306 0.930 . S
H348 C310 0.929 . S
H349 C312 0.930 . S
H350 C318 0.929 . S
H351 C319 0.930 . S
Li352 N369 1.990 . S
Li352 O412 1.956 . S
Li352 O413 1.970 1_556 S
Li352 O414 1.961 . S
Li353 N377 1.990 . S
Li353 O412 1.970 1_554 S
Li353 O413 1.956 . S
Li353 O415 1.961 . S
Li354 N399 1.990 . S
Li354 O412 1.961 . S
Li354 O414 1.956 . S
Li354 O415 1.970 1_556 S
Li355 N405 1.990 . S
Li355 O413 1.961 . S
Li355 O414 1.970 1_554 S
Li355 O415 1.956 . S
C356 C358 1.348 1_556 S
C356 C359 1.356 . S
C356 O412 1.325 . S
N357 C360 1.314 1_556 S
N357 C361 1.279 . S
C358 C356 1.348 1_554 S
C358 C360 1.353 . S
C358 H416 0.929 . S
C359 C356 1.356 . S
C359 C361 1.358 . S
C359 H417 0.930 . S
C360 N357 1.314 1_554 S
C360 C358 1.353 . S
C360 H418 0.930 . S
C361 N357 1.279 . S
C361 C359 1.358 . S
C361 H419 0.930 . S
C362 C365 1.348 . S
C362 C366 1.356 . S
C362 O413 1.325 . S
C363 N364 1.279 . S
C363 C366 1.358 . S
C363 H420 0.930 . S
N364 C363 1.279 . S
N364 C367 1.314 . S
C365 C362 1.348 . S
C365 C367 1.353 . S
C365 H421 0.929 . S
C366 C362 1.356 . S
C366 C363 1.358 . S
C366 H422 0.930 . S
C367 N364 1.314 . S
C367 C365 1.353 . S
C367 H423 0.930 . S
C368 N369 1.314 . S
C368 C373 1.353 . S
C368 H374 0.930 . S
N369 Li352 1.990 . S
N369 C368 1.314 . S
N369 C371 1.279 . S
C370 C371 1.358 . S
C370 C372 1.356 . S
C370 H424 0.930 . S
C371 N369 1.279 . S
C371 C370 1.358 . S
C371 H375 0.930 . S
C372 C370 1.356 . S
C372 C373 1.348 . S
C373 C368 1.353 . S
C373 C372 1.348 . S
C373 H425 0.929 . S
H374 C368 0.930 . S
H375 C371 0.930 . S
C376 N377 1.314 . S
C376 C378 1.353 . S
C376 H382 0.930 . S
N377 Li353 1.990 . S
N377 C376 1.314 . S
N377 C380 1.279 . S
C378 C376 1.353 . S
C378 C381 1.348 . S
C378 H426 0.929 . S
C379 C380 1.358 . S
C379 C381 1.356 . S
C379 H427 0.930 . S
C380 N377 1.279 . S
C380 C379 1.358 . S
C380 H383 0.930 . S
C381 C378 1.348 . S
C381 C379 1.356 . S
H382 C376 0.930 . S
H383 C380 0.930 . S
C384 C386 1.348 . S
C384 C387 1.356 . S
C384 O414 1.325 . S
N385 C388 1.314 . S
N385 C389 1.279 . S
C386 C384 1.348 . S
C386 C388 1.353 . S
C386 H428 0.929 . S
C387 C384 1.356 . S
C387 C389 1.358 . S
C387 H429 0.930 . S
C388 N385 1.314 . S
C388 C386 1.353 . S
C388 H430 0.930 . S
C389 N385 1.279 . S
C389 C387 1.358 . S
C389 H431 0.930 . S
C390 C391 1.348 1_554 S
C390 C392 1.356 . S
C390 O415 1.325 . S
C391 C390 1.348 1_556 S
C391 C393 1.353 1_556 S
C391 H432 0.929 . S
C392 C390 1.356 . S
C392 C394 1.358 . S
C392 H433 0.930 . S
C393 C391 1.353 1_554 S
C393 N395 1.314 . S
C393 H434 0.930 1_554 S
C394 C392 1.358 . S
C394 N395 1.279 . S
C394 H435 0.930 . S
N395 C393 1.314 . S
N395 C394 1.279 . S
C396 C398 1.353 . S
C396 N399 1.314 . S
C396 H402 0.930 . S
C397 N399 1.279 . S
C397 C400 1.358 . S
C397 H403 0.930 . S
C398 C396 1.353 . S
C398 C401 1.348 . S
C398 H436 0.929 . S
N399 Li354 1.990 . S
N399 C396 1.314 . S
N399 C397 1.279 . S
C400 C397 1.358 . S
C400 C401 1.356 . S
C400 H437 0.930 . S
C401 C398 1.348 . S
C401 C400 1.356 . S
H402 C396 0.930 . S
H403 C397 0.930 . S
C404 N405 1.314 . S
C404 C406 1.353 . S
C404 H410 0.930 . S
N405 Li355 1.990 . S
N405 C404 1.314 . S
N405 C408 1.279 . S
C406 C404 1.353 . S
C406 C409 1.348 . S
C406 H438 0.929 . S
C407 C408 1.358 . S
C407 C409 1.356 . S
C407 H439 0.930 . S
C408 N405 1.279 . S
C408 C407 1.358 . S
C408 H411 0.930 . S
C409 C406 1.348 . S
C409 C407 1.356 . S
H410 C404 0.930 . S
H411 C408 0.930 . S
O412 Li352 1.956 . S
O412 Li353 1.970 1_556 S
O412 Li354 1.961 . S
O412 C356 1.325 . S
O413 Li352 1.970 1_554 S
O413 Li353 1.956 . S
O413 Li355 1.961 . S
O413 C362 1.325 . S
O414 Li352 1.961 . S
O414 Li354 1.956 . S
O414 Li355 1.970 1_556 S
O414 C384 1.325 . S
O415 Li353 1.961 . S
O415 Li354 1.970 1_554 S
O415 Li355 1.956 . S
O415 C390 1.325 . S
H416 C358 0.929 . S
H417 C359 0.930 . S
H418 C360 0.930 . S
H419 C361 0.930 . S
H420 C363 0.930 . S
H421 C365 0.929 . S
H422 C366 0.930 . S
H423 C367 0.930 . S
H424 C370 0.930 . S
H425 C373 0.929 . S
H426 C378 0.929 . S
H427 C379 0.930 . S
H428 C386 0.929 . S
H429 C387 0.930 . S
H430 C388 0.930 . S
H431 C389 0.930 . S
H432 C391 0.929 . S
H433 C392 0.930 . S
H434 C393 0.930 1_556 S
H435 C394 0.930 . S
H436 C398 0.929 . S
H437 C400 0.930 . S
H438 C406 0.929 . S
H439 C407 0.930 . S
Li440 N457 1.990 . S
Li440 O500 1.956 . S
Li440 O501 1.970 . S
Li440 O502 1.961 . S
Li441 N465 1.990 . S
Li441 O500 1.970 . S
Li441 O501 1.956 . S
Li441 O503 1.961 1_545 S
Li442 N487 1.990 . S
Li442 O500 1.961 . S
Li442 O502 1.956 . S
Li442 O503 1.970 1_545 S
Li443 N493 1.990 . S
Li443 O501 1.961 1_565 S
Li443 O502 1.970 1_565 S
Li443 O503 1.956 . S
C444 C446 1.348 . S
C444 C447 1.356 . S
C444 O500 1.325 . S
N445 C448 1.314 . S
N445 C449 1.279 . S
C446 C444 1.348 . S
C446 C448 1.353 . S
C446 H504 0.929 . S
C447 C444 1.356 . S
C447 C449 1.358 . S
C447 H505 0.930 . S
C448 N445 1.314 . S
C448 C446 1.353 . S
C448 H506 0.930 . S
C449 N445 1.279 . S
C449 C447 1.358 . S
C449 H507 0.930 . S
C450 C453 1.348 . S
C450 C454 1.356 1_545 S
C450 O501 1.325 . S
C451 N452 1.279 1_565 S
C451 C454 1.358 . S
C451 H508 0.930 . S
N452 C451 1.279 1_545 S
N452 C455 1.314 . S
C453 C450 1.348 . S
C453 C455 1.353 . S
C453 H509 0.929 . S
C454 C450 1.356 1_565 S
C454 C451 1.358 . S
C454 H510 0.930 . S
C455 N452 1.314 . S
C455 C453 1.353 . S
C455 H511 0.930 . S
C456 N457 1.314 . S
C456 C461 1.353 . S
C456 H462 0.930 . S
N457 Li440 1.990 . S
N457 C456 1.314 . S
N457 C459 1.279 . S
C458 C459 1.358 . S
C458 C460 1.356 . S
C458 H512 0.930 . S
C459 N457 1.279 . S
C459 C458 1.358 . S
C459 H463 0.930 . S
C460 C458 1.356 . S
C460 C461 1.348 . S
C461 C456 1.353 . S
C461 C460 1.348 . S
C461 H513 0.929 . S
H462 C456 0.930 . S
H463 C459 0.930 . S
C464 N465 1.314 . S
C464 C466 1.353 . S
C464 H470 0.930 . S
N465 Li441 1.990 . S
N465 C464 1.314 . S
N465 C468 1.279 . S
C466 C464 1.353 . S
C466 C469 1.348 . S
C466 H514 0.929 1_545 S
C467 C468 1.358 . S
C467 C469 1.356 . S
C467 H515 0.930 . S
C468 N465 1.279 . S
C468 C467 1.358 . S
C468 H471 0.930 . S
C469 C466 1.348 . S
C469 C467 1.356 . S
H470 C464 0.930 . S
H471 C468 0.930 . S
C472 C474 1.348 . S
C472 C475 1.356 . S
C472 O502 1.325 . S
N473 C476 1.314 . S
N473 C477 1.279 . S
C474 C472 1.348 . S
C474 C476 1.353 . S
C474 H516 0.929 1_545 S
C475 C472 1.356 . S
C475 C477 1.358 . S
C475 H517 0.930 . S
C476 N473 1.314 . S
C476 C474 1.353 . S
C476 H518 0.930 1_545 S
C477 N473 1.279 . S
C477 C475 1.358 . S
C477 H519 0.930 . S
C478 C479 1.348 . S
C478 C480 1.356 . S
C478 O503 1.325 . S
C479 C478 1.348 . S
C479 C481 1.353 . S
C479 H520 0.929 . S
C480 C478 1.356 . S
C480 C482 1.358 . S
C480 H521 0.930 . S
C481 C479 1.353 . S
C481 N483 1.314 . S
C481 H522 0.930 . S
C482 C480 1.358 . S
C482 N483 1.279 . S
C482 H523 0.930 . S
N483 C481 1.314 . S
N483 C482 1.279 . S
C484 C486 1.353 . S
C484 N487 1.314 . S
C484 H490 0.930 . S
C485 N487 1.279 . S
C485 C488 1.358 . S
C485 H491 0.930 . S
C486 C484 1.353 . S
C486 C489 1.348 . S
C486 H524 0.929 . S
N487 Li442 1.990 . S
N487 C484 1.314 . S
N487 C485 1.279 . S
C488 C485 1.358 . S
C488 C489 1.356 . S
C488 H525 0.930 . S
C489 C486 1.348 . S
C489 C488 1.356 . S
H490 C484 0.930 . S
H491 C485 0.930 . S
C492 N493 1.314 . S
C492 C494 1.353 . S
C492 H498 0.930 . S
N493 Li443 1.990 . S
N493 C492 1.314 . S
N493 C496 1.279 . S
C494 C492 1.353 . S
C494 C497 1.348 . S
C494 H526 0.929 . S
C495 C496 1.358 . S
C495 C497 1.356 . S
C495 H527 0.930 . S
C496 N493 1.279 . S
C496 C495 1.358 . S
C496 H499 0.930 . S
C497 C494 1.348 . S
C497 C495 1.356 . S
H498 C492 0.930 . S
H499 C496 0.930 . S
O500 Li440 1.956 . S
O500 Li441 1.970 . S
O500 Li442 1.961 . S
O500 C444 1.325 . S
O501 Li440 1.970 . S
O501 Li441 1.956 . S
O501 Li443 1.961 1_545 S
O501 C450 1.325 . S
O502 Li440 1.961 . S
O502 Li442 1.956 . S
O502 Li443 1.970 1_545 S
O502 C472 1.325 . S
O503 Li441 1.961 1_565 S
O503 Li442 1.970 1_565 S
O503 Li443 1.956 . S
O503 C478 1.325 . S
H504 C446 0.929 . S
H505 C447 0.930 . S
H506 C448 0.930 . S
H507 C449 0.930 . S
H508 C451 0.930 . S
H509 C453 0.929 . S
H510 C454 0.930 . S
H511 C455 0.930 . S
H512 C458 0.930 . S
H513 C461 0.929 . S
H514 C466 0.929 1_565 S
H515 C467 0.930 . S
H516 C474 0.929 1_565 S
H517 C475 0.930 . S
H518 C476 0.930 1_565 S
H519 C477 0.930 . S
H520 C479 0.929 . S
H521 C480 0.930 . S
H522 C481 0.930 . S
H523 C482 0.930 . S
H524 C486 0.929 . S
H525 C488 0.930 . S
H526 C494 0.929 . S
H527 C495 0.930 . S
Li528 N545 1.990 . S
Li528 O588 1.956 . S
Li528 O589 1.970 . S
Li528 O590 1.961 . S
Li529 N553 1.990 . S
Li529 O588 1.970 . S
Li529 O589 1.956 . S
Li529 O591 1.961 . S
Li530 N575 1.990 . S
Li530 O588 1.961 . S
Li530 O590 1.956 . S
Li530 O591 1.970 . S
Li531 N581 1.990 . S
Li531 O589 1.961 . S
Li531 O590 1.970 . S
Li531 O591 1.956 . S
C532 C534 1.348 . S
C532 C535 1.356 . S
C532 O588 1.325 . S
N533 C536 1.314 . S
N533 C537 1.279 . S
C534 C532 1.348 . S
C534 C536 1.353 . S
C534 H592 0.929 . S
C535 C532 1.356 . S
C535 C537 1.358 . S
C535 H593 0.930 . S
C536 N533 1.314 . S
C536 C534 1.353 . S
C536 H594 0.930 . S
C537 N533 1.279 . S
C537 C535 1.358 . S
C537 H595 0.930 . S
C538 C541 1.348 . S
C538 C542 1.356 . S
C538 O589 1.325 . S
C539 N540 1.279 . S
C539 C542 1.358 . S
C539 H596 0.930 . S
N540 C539 1.279 . S
N540 C543 1.314 . S
C541 C538 1.348 . S
C541 C543 1.353 . S
C541 H597 0.929 . S
C542 C538 1.356 . S
C542 C539 1.358 . S
C542 H598 0.930 . S
C543 N540 1.314 . S
C543 C541 1.353 . S
C543 H599 0.930 . S
C544 N545 1.314 . S
C544 C549 1.353 . S
C544 H550 0.930 . S
N545 Li528 1.990 . S
N545 C544 1.314 . S
N545 C547 1.279 . S
C546 C547 1.358 . S
C546 C548 1.356 . S
C546 H600 0.930 . S
C547 N545 1.279 . S
C547 C546 1.358 . S
C547 H551 0.930 . S
C548 C546 1.356 . S
C548 C549 1.348 . S
C549 C544 1.353 . S
C549 C548 1.348 . S
C549 H601 0.929 . S
H550 C544 0.930 . S
H551 C547 0.930 . S
C552 N553 1.314 . S
C552 C554 1.353 . S
C552 H558 0.930 . S
N553 Li529 1.990 . S
N553 C552 1.314 . S
N553 C556 1.279 . S
C554 C552 1.353 . S
C554 C557 1.348 . S
C554 H602 0.929 . S
C555 C556 1.358 . S
C555 C557 1.356 . S
C555 H603 0.930 . S
C556 N553 1.279 . S
C556 C555 1.358 . S
C556 H559 0.930 . S
C557 C554 1.348 . S
C557 C555 1.356 . S
H558 C552 0.930 . S
H559 C556 0.930 . S
C560 C562 1.348 . S
C560 C563 1.356 . S
C560 O590 1.325 . S
N561 C564 1.314 . S
N561 C565 1.279 . S
C562 C560 1.348 . S
C562 C564 1.353 . S
C562 H604 0.929 . S
C563 C560 1.356 . S
C563 C565 1.358 . S
C563 H605 0.930 . S
C564 N561 1.314 . S
C564 C562 1.353 . S
C564 H606 0.930 . S
C565 N561 1.279 . S
C565 C563 1.358 . S
C565 H607 0.930 . S
C566 C567 1.348 . S
C566 C568 1.356 . S
C566 O591 1.325 . S
C567 C566 1.348 . S
C567 C569 1.353 . S
C567 H608 0.929 . S
C568 C566 1.356 . S
C568 C570 1.358 . S
C568 H609 0.930 . S
C569 C567 1.353 . S
C569 N571 1.314 . S
C569 H610 0.930 . S
C570 C568 1.358 . S
C570 N571 1.279 . S
C570 H611 0.930 . S
N571 C569 1.314 . S
N571 C570 1.279 . S
C572 C574 1.353 . S
C572 N575 1.314 . S
C572 H578 0.930 . S
C573 N575 1.279 . S
C573 C576 1.358 . S
C573 H579 0.930 . S
C574 C572 1.353 . S
C574 C577 1.348 . S
C574 H612 0.929 . S
N575 Li530 1.990 . S
N575 C572 1.314 . S
N575 C573 1.279 . S
C576 C573 1.358 . S
C576 C577 1.356 . S
C576 H613 0.930 . S
C577 C574 1.348 . S
C577 C576 1.356 . S
H578 C572 0.930 . S
H579 C573 0.930 . S
C580 N581 1.314 . S
C580 C582 1.353 . S
C580 H586 0.930 . S
N581 Li531 1.990 . S
N581 C580 1.314 . S
N581 C584 1.279 . S
C582 C580 1.353 . S
C582 C585 1.348 . S
C582 H614 0.929 . S
C583 C584 1.358 . S
C583 C585 1.356 . S
C583 H615 0.930 . S
C584 N581 1.279 . S
C584 C583 1.358 . S
C584 H587 0.930 . S
C585 C582 1.348 . S
C585 C583 1.356 . S
H586 C580 0.930 . S
H587 C584 0.930 . S
O588 Li528 1.956 . S
O588 Li529 1.970 . S
O588 Li530 1.961 . S
O588 C532 1.325 . S
O589 Li528 1.970 . S
O589 Li529 1.956 . S
O589 Li531 1.961 . S
O589 C538 1.325 . S
O590 Li528 1.961 . S
O590 Li530 1.956 . S
O590 Li531 1.970 . S
O590 C560 1.325 . S
O591 Li529 1.961 . S
O591 Li530 1.970 . S
O591 Li531 1.956 . S
O591 C566 1.325 . S
H592 C534 0.929 . S
H593 C535 0.930 . S
H594 C536 0.930 . S
H595 C537 0.930 . S
H596 C539 0.930 . S
H597 C541 0.929 . S
H598 C542 0.930 . S
H599 C543 0.930 . S
H600 C546 0.930 . S
H601 C549 0.929 . S
H602 C554 0.929 . S
H603 C555 0.930 . S
H604 C562 0.929 . S
H605 C563 0.930 . S
H606 C564 0.930 . S
H607 C565 0.930 . S
H608 C567 0.929 . S
H609 C568 0.930 . S
H610 C569 0.930 . S
H611 C570 0.930 . S
H612 C574 0.929 . S
H613 C576 0.930 . S
H614 C582 0.929 . S
H615 C583 0.930 . S
Li616 N633 1.990 . S
Li616 O676 1.956 . S
Li616 O677 1.970 . S
Li616 O678 1.961 . S
Li617 N641 1.990 . S
Li617 O676 1.970 . S
Li617 O677 1.956 . S
Li617 O679 1.961 . S
Li618 N663 1.990 . S
Li618 O676 1.961 . S
Li618 O678 1.956 . S
Li618 O679 1.970 . S
Li619 N669 1.990 . S
Li619 O677 1.961 . S
Li619 O678 1.970 . S
Li619 O679 1.956 . S
C620 C622 1.348 . S
C620 C623 1.356 . S
C620 O676 1.325 . S
N621 C624 1.314 . S
N621 C625 1.279 . S
C622 C620 1.348 . S
C622 C624 1.353 . S
C622 H680 0.929 . S
C623 C620 1.356 . S
C623 C625 1.358 . S
C623 H681 0.930 . S
C624 N621 1.314 . S
C624 C622 1.353 . S
C624 H682 0.930 . S
C625 N621 1.279 . S
C625 C623 1.358 . S
C625 H683 0.930 . S
C626 C629 1.348 . S
C626 C630 1.356 . S
C626 O677 1.325 . S
C627 N628 1.279 . S
C627 C630 1.358 . S
C627 H684 0.930 . S
N628 C627 1.279 . S
N628 C631 1.314 . S
C629 C626 1.348 . S
C629 C631 1.353 . S
C629 H685 0.929 . S
C630 C626 1.356 . S
C630 C627 1.358 . S
C630 H686 0.930 . S
C631 N628 1.314 . S
C631 C629 1.353 . S
C631 H687 0.930 . S
C632 N633 1.314 . S
C632 C637 1.353 . S
C632 H638 0.930 . S
N633 Li616 1.990 . S
N633 C632 1.314 . S
N633 C635 1.279 . S
C634 C635 1.358 . S
C634 C636 1.356 . S
C634 H688 0.930 . S
C635 N633 1.279 . S
C635 C634 1.358 . S
C635 H639 0.930 . S
C636 C634 1.356 . S
C636 C637 1.348 . S
C637 C632 1.353 . S
C637 C636 1.348 . S
C637 H689 0.929 . S
H638 C632 0.930 . S
H639 C635 0.930 . S
C640 N641 1.314 . S
C640 C642 1.353 . S
C640 H646 0.930 . S
N641 Li617 1.990 . S
N641 C640 1.314 . S
N641 C644 1.279 . S
C642 C640 1.353 . S
C642 C645 1.348 . S
C642 H690 0.929 . S
C643 C644 1.358 . S
C643 C645 1.356 . S
C643 H691 0.930 . S
C644 N641 1.279 . S
C644 C643 1.358 . S
C644 H647 0.930 . S
C645 C642 1.348 . S
C645 C643 1.356 . S
H646 C640 0.930 . S
H647 C644 0.930 . S
C648 C650 1.348 . S
C648 C651 1.356 . S
C648 O678 1.325 . S
N649 C652 1.314 . S
N649 C653 1.279 . S
C650 C648 1.348 . S
C650 C652 1.353 . S
C650 H692 0.929 . S
C651 C648 1.356 . S
C651 C653 1.358 . S
C651 H693 0.930 . S
C652 N649 1.314 . S
C652 C650 1.353 . S
C652 H694 0.930 . S
C653 N649 1.279 . S
C653 C651 1.358 . S
C653 H695 0.930 . S
C654 C655 1.348 . S
C654 C656 1.356 . S
C654 O679 1.325 . S
C655 C654 1.348 . S
C655 C657 1.353 . S
C655 H696 0.929 . S
C656 C654 1.356 . S
C656 C658 1.358 . S
C656 H697 0.930 . S
C657 C655 1.353 . S
C657 N659 1.314 . S
C657 H698 0.930 . S
C658 C656 1.358 . S
C658 N659 1.279 . S
C658 H699 0.930 . S
N659 C657 1.314 . S
N659 C658 1.279 . S
C660 C662 1.353 . S
C660 N663 1.314 . S
C660 H666 0.930 . S
C661 N663 1.279 . S
C661 C664 1.358 . S
C661 H667 0.930 . S
C662 C660 1.353 . S
C662 C665 1.348 . S
C662 H700 0.929 . S
N663 Li618 1.990 . S
N663 C660 1.314 . S
N663 C661 1.279 . S
C664 C661 1.358 . S
C664 C665 1.356 . S
C664 H701 0.930 . S
C665 C662 1.348 . S
C665 C664 1.356 . S
H666 C660 0.930 . S
H667 C661 0.930 . S
C668 N669 1.314 . S
C668 C670 1.353 . S
C668 H674 0.930 . S
N669 Li619 1.990 . S
N669 C668 1.314 . S
N669 C672 1.279 . S
C670 C668 1.353 . S
C670 C673 1.348 . S
C670 H702 0.929 . S
C671 C672 1.358 . S
C671 C673 1.356 . S
C671 H703 0.930 . S
C672 N669 1.279 . S
C672 C671 1.358 . S
C672 H675 0.930 . S
C673 C670 1.348 . S
C673 C671 1.356 . S
H674 C668 0.930 . S
H675 C672 0.930 . S
O676 Li616 1.956 . S
O676 Li617 1.970 . S
O676 Li618 1.961 . S
O676 C620 1.325 . S
O677 Li616 1.970 . S
O677 Li617 1.956 . S
O677 Li619 1.961 . S
O677 C626 1.325 . S
O678 Li616 1.961 . S
O678 Li618 1.956 . S
O678 Li619 1.970 . S
O678 C648 1.325 . S
O679 Li617 1.961 . S
O679 Li618 1.970 . S
O679 Li619 1.956 . S
O679 C654 1.325 . S
H680 C622 0.929 . S
H681 C623 0.930 . S
H682 C624 0.930 . S
H683 C625 0.930 . S
H684 C627 0.930 . S
H685 C629 0.929 . S
H686 C630 0.930 . S
H687 C631 0.930 . S
H688 C634 0.930 . S
H689 C637 0.929 . S
H690 C642 0.929 . S
H691 C643 0.930 . S
H692 C650 0.929 . S
H693 C651 0.930 . S
H694 C652 0.930 . S
H695 C653 0.930 . S
H696 C655 0.929 . S
H697 C656 0.930 . S
H698 C657 0.930 . S
H699 C658 0.930 . S
H700 C662 0.929 . S
H701 C664 0.930 . S
H702 C670 0.929 . S
H703 C671 0.930 . S
Li704 N721 1.990 . S
Li704 O764 1.956 . S
Li704 O765 1.970 . S
Li704 O766 1.961 . S
Li705 N729 1.990 . S
Li705 O764 1.970 . S
Li705 O765 1.956 . S
Li705 O767 1.961 . S
Li706 N751 1.990 . S
Li706 O764 1.961 . S
Li706 O766 1.956 . S
Li706 O767 1.970 . S
Li707 N757 1.990 . S
Li707 O765 1.961 . S
Li707 O766 1.970 . S
Li707 O767 1.956 . S
C708 C710 1.348 . S
C708 C711 1.356 . S
C708 O764 1.325 . S
N709 C712 1.314 . S
N709 C713 1.279 . S
C710 C708 1.348 . S
C710 C712 1.353 . S
C710 H768 0.929 . S
C711 C708 1.356 . S
C711 C713 1.358 . S
C711 H769 0.930 . S
C712 N709 1.314 . S
C712 C710 1.353 . S
C712 H770 0.930 . S
C713 N709 1.279 . S
C713 C711 1.358 . S
C713 H771 0.930 . S
C714 C717 1.348 . S
C714 C718 1.356 . S
C714 O765 1.325 . S
C715 N716 1.279 . S
C715 C718 1.358 . S
C715 H772 0.930 . S
N716 C715 1.279 . S
N716 C719 1.314 . S
C717 C714 1.348 . S
C717 C719 1.353 . S
C717 H773 0.929 . S
C718 C714 1.356 . S
C718 C715 1.358 . S
C718 H774 0.930 . S
C719 N716 1.314 . S
C719 C717 1.353 . S
C719 H775 0.930 . S
C720 N721 1.314 . S
C720 C725 1.353 . S
C720 H726 0.930 . S
N721 Li704 1.990 . S
N721 C720 1.314 . S
N721 C723 1.279 . S
C722 C723 1.358 . S
C722 C724 1.356 . S
C722 H776 0.930 . S
C723 N721 1.279 . S
C723 C722 1.358 . S
C723 H727 0.930 . S
C724 C722 1.356 . S
C724 C725 1.348 . S
C725 C720 1.353 . S
C725 C724 1.348 . S
C725 H777 0.929 . S
H726 C720 0.930 . S
H727 C723 0.930 . S
C728 N729 1.314 . S
C728 C730 1.353 . S
C728 H734 0.930 . S
N729 Li705 1.990 . S
N729 C728 1.314 . S
N729 C732 1.279 . S
C730 C728 1.353 . S
C730 C733 1.348 . S
C730 H778 0.929 . S
C731 C732 1.358 . S
C731 C733 1.356 . S
C731 H779 0.930 . S
C732 N729 1.279 . S
C732 C731 1.358 . S
C732 H735 0.930 . S
C733 C730 1.348 . S
C733 C731 1.356 . S
H734 C728 0.930 . S
H735 C732 0.930 . S
C736 C738 1.348 . S
C736 C739 1.356 . S
C736 O766 1.325 . S
N737 C740 1.314 . S
N737 C741 1.279 . S
C738 C736 1.348 . S
C738 C740 1.353 . S
C738 H780 0.929 . S
C739 C736 1.356 . S
C739 C741 1.358 . S
C739 H781 0.930 . S
C740 N737 1.314 . S
C740 C738 1.353 . S
C740 H782 0.930 . S
C741 N737 1.279 . S
C741 C739 1.358 . S
C741 H783 0.930 . S
C742 C743 1.348 . S
C742 C744 1.356 . S
C742 O767 1.325 . S
C743 C742 1.348 . S
C743 C745 1.353 . S
C743 H784 0.929 . S
C744 C742 1.356 . S
C744 C746 1.358 . S
C744 H785 0.930 . S
C745 C743 1.353 . S
C745 N747 1.314 . S
C745 H786 0.930 . S
C746 C744 1.358 . S
C746 N747 1.279 . S
C746 H787 0.930 . S
N747 C745 1.314 . S
N747 C746 1.279 . S
C748 C750 1.353 . S
C748 N751 1.314 . S
C748 H754 0.930 . S
C749 N751 1.279 . S
C749 C752 1.358 . S
C749 H755 0.930 . S
C750 C748 1.353 . S
C750 C753 1.348 . S
C750 H788 0.929 . S
N751 Li706 1.990 . S
N751 C748 1.314 . S
N751 C749 1.279 . S
C752 C749 1.358 . S
C752 C753 1.356 . S
C752 H789 0.930 . S
C753 C750 1.348 . S
C753 C752 1.356 . S
H754 C748 0.930 . S
H755 C749 0.930 . S
C756 N757 1.314 . S
C756 C758 1.353 . S
C756 H762 0.930 . S
N757 Li707 1.990 . S
N757 C756 1.314 . S
N757 C760 1.279 . S
C758 C756 1.353 . S
C758 C761 1.348 . S
C758 H790 0.929 . S
C759 C760 1.358 . S
C759 C761 1.356 . S
C759 H791 0.930 . S
C760 N757 1.279 . S
C760 C759 1.358 . S
C760 H763 0.930 . S
C761 C758 1.348 . S
C761 C759 1.356 . S
H762 C756 0.930 . S
H763 C760 0.930 . S
O764 Li704 1.956 . S
O764 Li705 1.970 . S
O764 Li706 1.961 . S
O764 C708 1.325 . S
O765 Li704 1.970 . S
O765 Li705 1.956 . S
O765 Li707 1.961 . S
O765 C714 1.325 . S
O766 Li704 1.961 . S
O766 Li706 1.956 . S
O766 Li707 1.970 . S
O766 C736 1.325 . S
O767 Li705 1.961 . S
O767 Li706 1.970 . S
O767 Li707 1.956 . S
O767 C742 1.325 . S
H768 C710 0.929 . S
H769 C711 0.930 . S
H770 C712 0.930 . S
H771 C713 0.930 . S
H772 C715 0.930 . S
H773 C717 0.929 . S
H774 C718 0.930 . S
H775 C719 0.930 . S
H776 C722 0.930 . S
H777 C725 0.929 . S
H778 C730 0.929 . S
H779 C731 0.930 . S
H780 C738 0.929 . S
H781 C739 0.930 . S
H782 C740 0.930 . S
H783 C741 0.930 . S
H784 C743 0.929 . S
H785 C744 0.930 . S
H786 C745 0.930 . S
H787 C746 0.930 . S
H788 C750 0.929 . S
H789 C752 0.930 . S
H790 C758 0.929 . S
H791 C759 0.930 . S
Li792 N809 1.990 . S
Li792 O852 1.956 . S
Li792 O853 1.970 1_565 S
Li792 O854 1.961 . S
Li793 N817 1.990 . S
Li793 O852 1.970 1_545 S
Li793 O853 1.956 . S
Li793 O855 1.961 . S
Li794 N839 1.990 . S
Li794 O852 1.961 . S
Li794 O854 1.956 . S
Li794 O855 1.970 1_565 S
Li795 N845 1.990 . S
Li795 O853 1.961 . S
Li795 O854 1.970 1_545 S
Li795 O855 1.956 . S
C796 C798 1.348 . S
C796 C799 1.356 . S
C796 O852 1.325 . S
N797 C800 1.314 . S
N797 C801 1.279 . S
C798 C796 1.348 . S
C798 C800 1.353 . S
C798 H856 0.929 . S
C799 C796 1.356 . S
C799 C801 1.358 . S
C799 H857 0.930 . S
C800 N797 1.314 . S
C800 C798 1.353 . S
C800 H858 0.930 . S
C801 N797 1.279 . S
C801 C799 1.358 . S
C801 H859 0.930 . S
C802 C805 1.348 1_545 S
C802 C806 1.356 . S
C802 O853 1.325 . S
C803 N804 1.279 . S
C803 C806 1.358 . S
C803 H860 0.930 . S
N804 C803 1.279 . S
N804 C807 1.314 1_545 S
C805 C802 1.348 1_565 S
C805 C807 1.353 . S
C805 H861 0.929 . S
C806 C802 1.356 . S
C806 C803 1.358 . S
C806 H862 0.930 . S
C807 N804 1.314 1_565 S
C807 C805 1.353 . S
C807 H863 0.930 . S
C808 N809 1.314 . S
C808 C813 1.353 . S
C808 H814 0.930 . S
N809 Li792 1.990 . S
N809 C808 1.314 . S
N809 C811 1.279 . S
C810 C811 1.358 . S
C810 C812 1.356 . S
C810 H864 0.930 . S
C811 N809 1.279 . S
C811 C810 1.358 . S
C811 H815 0.930 . S
C812 C810 1.356 . S
C812 C813 1.348 . S
C813 C808 1.353 . S
C813 C812 1.348 . S
C813 H865 0.929 . S
H814 C808 0.930 . S
H815 C811 0.930 . S
C816 N817 1.314 . S
C816 C818 1.353 . S
C816 H822 0.930 . S
N817 Li793 1.990 . S
N817 C816 1.314 . S
N817 C820 1.279 . S
C818 C816 1.353 . S
C818 C821 1.348 . S
C818 H866 0.929 . S
C819 C820 1.358 . S
C819 C821 1.356 . S
C819 H867 0.930 . S
C820 N817 1.279 . S
C820 C819 1.358 . S
C820 H823 0.930 . S
C821 C818 1.348 . S
C821 C819 1.356 . S
H822 C816 0.930 . S
H823 C820 0.930 . S
C824 C826 1.348 1_565 S
C824 C827 1.356 . S
C824 O854 1.325 . S
N825 C828 1.314 1_565 S
N825 C829 1.279 . S
C826 C824 1.348 1_545 S
C826 C828 1.353 . S
C826 H868 0.929 . S
C827 C824 1.356 . S
C827 C829 1.358 . S
C827 H869 0.930 . S
C828 N825 1.314 1_545 S
C828 C826 1.353 . S
C828 H870 0.930 . S
C829 N825 1.279 . S
C829 C827 1.358 . S
C829 H871 0.930 . S
C830 C831 1.348 . S
C830 C832 1.356 . S
C830 O855 1.325 . S
C831 C830 1.348 . S
C831 C833 1.353 . S
C831 H872 0.929 . S
C832 C830 1.356 . S
C832 C834 1.358 . S
C832 H873 0.930 . S
C833 C831 1.353 . S
C833 N835 1.314 . S
C833 H874 0.930 . S
C834 C832 1.358 . S
C834 N835 1.279 . S
C834 H875 0.930 . S
N835 C833 1.314 . S
N835 C834 1.279 . S
C836 C838 1.353 . S
C836 N839 1.314 . S
C836 H842 0.930 . S
C837 N839 1.279 . S
C837 C840 1.358 . S
C837 H843 0.930 . S
C838 C836 1.353 . S
C838 C841 1.348 . S
C838 H876 0.929 . S
N839 Li794 1.990 . S
N839 C836 1.314 . S
N839 C837 1.279 . S
C840 C837 1.358 . S
C840 C841 1.356 . S
C840 H877 0.930 . S
C841 C838 1.348 . S
C841 C840 1.356 . S
H842 C836 0.930 . S
H843 C837 0.930 . S
C844 N845 1.314 . S
C844 C846 1.353 . S
C844 H850 0.930 . S
N845 Li795 1.990 . S
N845 C844 1.314 . S
N845 C848 1.279 . S
C846 C844 1.353 . S
C846 C849 1.348 . S
C846 H878 0.929 . S
C847 C848 1.358 . S
C847 C849 1.356 . S
C847 H879 0.930 . S
C848 N845 1.279 . S
C848 C847 1.358 . S
C848 H851 0.930 . S
C849 C846 1.348 . S
C849 C847 1.356 . S
H850 C844 0.930 . S
H851 C848 0.930 . S
O852 Li792 1.956 . S
O852 Li793 1.970 1_565 S
O852 Li794 1.961 . S
O852 C796 1.325 . S
O853 Li792 1.970 1_545 S
O853 Li793 1.956 . S
O853 Li795 1.961 . S
O853 C802 1.325 . S
O854 Li792 1.961 . S
O854 Li794 1.956 . S
O854 Li795 1.970 1_565 S
O854 C824 1.325 . S
O855 Li793 1.961 . S
O855 Li794 1.970 1_545 S
O855 Li795 1.956 . S
O855 C830 1.325 . S
H856 C798 0.929 . S
H857 C799 0.930 . S
H858 C800 0.930 . S
H859 C801 0.930 . S
H860 C803 0.930 . S
H861 C805 0.929 . S
H862 C806 0.930 . S
H863 C807 0.930 . S
H864 C810 0.930 . S
H865 C813 0.929 . S
H866 C818 0.929 . S
H867 C819 0.930 . S
H868 C826 0.929 . S
H869 C827 0.930 . S
H870 C828 0.930 . S
H871 C829 0.930 . S
H872 C831 0.929 . S
H873 C832 0.930 . S
H874 C833 0.930 . S
H875 C834 0.930 . S
H876 C838 0.929 . S
H877 C840 0.930 . S
H878 C846 0.929 . S
H879 C847 0.930 . S
Li880 N897 1.990 . S
Li880 O940 1.956 . S
Li880 O941 1.970 . S
Li880 O942 1.961 . S
Li881 N905 1.990 . S
Li881 O940 1.970 . S
Li881 O941 1.956 . S
Li881 O943 1.961 1_455 S
Li882 N927 1.990 . S
Li882 O940 1.961 . S
Li882 O942 1.956 . S
Li882 O943 1.970 1_455 S
Li883 N933 1.990 . S
Li883 O941 1.961 1_655 S
Li883 O942 1.970 1_655 S
Li883 O943 1.956 . S
C884 C886 1.348 . S
C884 C887 1.356 . S
C884 O940 1.325 . S
N885 C888 1.314 . S
N885 C889 1.279 . S
C886 C884 1.348 . S
C886 C888 1.353 . S
C886 H944 0.929 . S
C887 C884 1.356 . S
C887 C889 1.358 . S
C887 H945 0.930 . S
C888 N885 1.314 . S
C888 C886 1.353 . S
C888 H946 0.930 . S
C889 N885 1.279 . S
C889 C887 1.358 . S
C889 H947 0.930 . S
C890 C893 1.348 . S
C890 C894 1.356 1_455 S
C890 O941 1.325 . S
C891 N892 1.279 . S
C891 C894 1.358 . S
C891 H948 0.930 . S
N892 C891 1.279 . S
N892 C895 1.314 1_655 S
C893 C890 1.348 . S
C893 C895 1.353 . S
C893 H949 0.929 . S
C894 C890 1.356 1_655 S
C894 C891 1.358 . S
C894 H950 0.930 . S
C895 N892 1.314 1_455 S
C895 C893 1.353 . S
C895 H951 0.930 . S
C896 N897 1.314 . S
C896 C901 1.353 . S
C896 H902 0.930 . S
N897 Li880 1.990 . S
N897 C896 1.314 . S
N897 C899 1.279 . S
C898 C899 1.358 . S
C898 C900 1.356 . S
C898 H952 0.930 . S
C899 N897 1.279 . S
C899 C898 1.358 . S
C899 H903 0.930 . S
C900 C898 1.356 . S
C900 C901 1.348 . S
C901 C896 1.353 . S
C901 C900 1.348 . S
C901 H953 0.929 . S
H902 C896 0.930 . S
H903 C899 0.930 . S
C904 N905 1.314 1_655 S
C904 C906 1.375 . S
C904 H910 0.930 . S
N905 Li881 1.990 . S
N905 C904 1.314 1_455 S
N905 C908 1.279 . S
C906 C904 1.375 . S
C906 C909 1.357 1_655 S
C906 H954 0.899 1_556 S
C907 C908 1.358 . S
C907 C909 1.356 . S
C907 H955 0.930 . S
C908 N905 1.279 . S
C908 C907 1.358 . S
C908 H911 0.930 . S
C909 C906 1.357 1_455 S
C909 C907 1.356 . S
H910 C904 0.930 . S
H911 C908 0.930 . S
C912 C914 1.348 1_455 S
C912 C915 1.356 . S
C912 O942 1.325 . S
N913 C916 1.314 1_455 S
N913 C917 1.279 . S
C914 C912 1.348 1_655 S
C914 C916 1.353 . S
C914 H956 0.929 . S
C915 C912 1.356 . S
C915 C917 1.358 . S
C915 H957 0.930 . S
C916 N913 1.314 1_655 S
C916 C914 1.353 . S
C916 H958 0.930 . S
C917 N913 1.279 . S
C917 C915 1.358 . S
C917 H959 0.930 . S
C918 C919 1.348 . S
C918 C920 1.356 . S
C918 O943 1.325 . S
C919 C918 1.348 . S
C919 C921 1.353 . S
C919 H960 0.929 . S
C920 C918 1.356 . S
C920 C922 1.358 . S
C920 H961 0.930 . S
C921 C919 1.353 . S
C921 N923 1.314 . S
C921 H962 0.930 . S
C922 C920 1.358 . S
C922 N923 1.279 . S
C922 H963 0.930 . S
N923 C921 1.314 . S
N923 C922 1.279 . S
C924 C926 1.353 . S
C924 N927 1.314 . S
C924 H930 0.930 . S
C925 N927 1.279 . S
C925 C928 1.358 . S
C925 H931 0.930 . S
C926 C924 1.353 . S
C926 C929 1.348 . S
C926 H964 0.929 1_556 S
N927 Li882 1.990 . S
N927 C924 1.314 . S
N927 C925 1.279 . S
C928 C925 1.358 . S
C928 C929 1.356 . S
C928 H965 0.930 . S
C929 C926 1.348 . S
C929 C928 1.356 . S
H930 C924 0.930 . S
H931 C925 0.930 . S
C932 N933 1.314 . S
C932 C934 1.353 . S
C932 H938 0.930 . S
N933 Li883 1.990 . S
N933 C932 1.314 . S
N933 C936 1.279 . S
C934 C932 1.353 . S
C934 C937 1.348 . S
C934 H966 0.929 . S
C935 C936 1.358 . S
C935 C937 1.356 . S
C935 H967 0.930 . S
C936 N933 1.279 . S
C936 C935 1.358 . S
C936 H939 0.930 . S
C937 C934 1.348 . S
C937 C935 1.356 . S
H938 C932 0.930 . S
H939 C936 0.930 . S
O940 Li880 1.956 . S
O940 Li881 1.970 . S
O940 Li882 1.961 . S
O940 C884 1.325 . S
O941 Li880 1.970 . S
O941 Li881 1.956 . S
O941 Li883 1.961 1_455 S
O941 C890 1.325 . S
O942 Li880 1.961 . S
O942 Li882 1.956 . S
O942 Li883 1.970 1_455 S
O942 C912 1.325 . S
O943 Li881 1.961 1_655 S
O943 Li882 1.970 1_655 S
O943 Li883 1.956 . S
O943 C918 1.325 . S
H944 C886 0.929 . S
H945 C887 0.930 . S
H946 C888 0.930 . S
H947 C889 0.930 . S
H948 C891 0.930 . S
H949 C893 0.929 . S
H950 C894 0.930 . S
H951 C895 0.930 . S
H952 C898 0.930 . S
H953 C901 0.929 . S
H954 C906 0.899 1_554 S
H955 C907 0.930 . S
H956 C914 0.929 . S
H957 C915 0.930 . S
H958 C916 0.930 . S
H959 C917 0.930 . S
H960 C919 0.929 . S
H961 C920 0.930 . S
H962 C921 0.930 . S
H963 C922 0.930 . S
H964 C926 0.929 1_554 S
H965 C928 0.930 . S
H966 C934 0.929 . S
H967 C935 0.930 . S
Li968 N985 1.990 . S
Li968 O1028 1.956 . S
Li968 O1029 1.970 . S
Li968 O1030 1.961 . S
Li969 N993 1.990 . S
Li969 O1028 1.970 . S
Li969 O1029 1.956 . S
Li969 O1031 1.961 . S
Li970 N1015 1.990 . S
Li970 O1028 1.961 . S
Li970 O1030 1.956 . S
Li970 O1031 1.970 . S
Li971 N1021 1.990 . S
Li971 O1029 1.961 . S
Li971 O1030 1.970 . S
Li971 O1031 1.956 . S
C972 C974 1.348 . S
C972 C975 1.356 . S
C972 O1028 1.325 . S
N973 C976 1.314 . S
N973 C977 1.279 . S
C974 C972 1.348 . S
C974 C976 1.353 . S
C974 H1032 0.929 . S
C975 C972 1.356 . S
C975 C977 1.358 . S
C975 H1033 0.930 . S
C976 N973 1.314 . S
C976 C974 1.353 . S
C976 H1034 0.930 . S
C977 N973 1.279 . S
C977 C975 1.358 . S
C977 H1035 0.930 . S
C978 C981 1.348 . S
C978 C982 1.356 . S
C978 O1029 1.325 . S
C979 N980 1.279 . S
C979 C982 1.358 . S
C979 H1036 0.930 . S
N980 C979 1.279 . S
N980 C983 1.314 . S
C981 C978 1.348 . S
C981 C983 1.353 . S
C981 H1037 0.929 . S
C982 C978 1.356 . S
C982 C979 1.358 . S
C982 H1038 0.930 . S
C983 N980 1.314 . S
C983 C981 1.353 . S
C983 H1039 0.930 . S
C984 N985 1.314 . S
C984 C989 1.353 . S
C984 H990 0.930 . S
N985 Li968 1.990 . S
N985 C984 1.314 . S
N985 C987 1.279 . S
C986 C987 1.358 . S
C986 C988 1.356 . S
C986 H1040 0.930 . S
C987 N985 1.279 . S
C987 C986 1.358 . S
C987 H991 0.930 . S
C988 C986 1.356 . S
C988 C989 1.348 . S
C989 C984 1.353 . S
C989 C988 1.348 . S
C989 H1041 0.929 . S
H990 C984 0.930 . S
H991 C987 0.930 . S
C992 N993 1.314 . S
C992 C994 1.353 . S
C992 H998 0.930 . S
N993 Li969 1.990 . S
N993 C992 1.314 . S
N993 C996 1.279 . S
C994 C992 1.353 . S
C994 C997 1.348 . S
C994 H1042 0.929 . S
C995 C996 1.358 . S
C995 C997 1.356 . S
C995 H1043 0.930 . S
C996 N993 1.279 . S
C996 C995 1.358 . S
C996 H999 0.930 . S
C997 C994 1.348 . S
C997 C995 1.356 . S
H998 C992 0.930 . S
H999 C996 0.930 . S
C1000 C1002 1.348 . S
C1000 C1003 1.356 . S
C1000 O1030 1.325 . S
N1001 C1004 1.314 . S
N1001 C1005 1.279 . S
C1002 C1000 1.348 . S
C1002 C1004 1.353 . S
C1002 H1044 0.929 . S
C1003 C1000 1.356 . S
C1003 C1005 1.358 . S
C1003 H1045 0.930 . S
C1004 N1001 1.314 . S
C1004 C1002 1.353 . S
C1004 H1046 0.930 . S
C1005 N1001 1.279 . S
C1005 C1003 1.358 . S
C1005 H1047 0.930 . S
C1006 C1007 1.348 . S
C1006 C1008 1.356 . S
C1006 O1031 1.325 . S
C1007 C1006 1.348 . S
C1007 C1009 1.353 . S
C1007 H1048 0.929 . S
C1008 C1006 1.356 . S
C1008 C1010 1.358 . S
C1008 H1049 0.930 . S
C1009 C1007 1.353 . S
C1009 N1011 1.314 . S
C1009 H1050 0.930 . S
C1010 C1008 1.358 . S
C1010 N1011 1.279 . S
C1010 H1051 0.930 . S
N1011 C1009 1.314 . S
N1011 C1010 1.279 . S
C1012 C1014 1.353 . S
C1012 N1015 1.314 . S
C1012 H1018 0.930 . S
C1013 N1015 1.279 . S
C1013 C1016 1.358 . S
C1013 H1019 0.930 . S
C1014 C1012 1.353 . S
C1014 C1017 1.348 . S
C1014 H1052 0.929 . S
N1015 Li970 1.990 . S
N1015 C1012 1.314 . S
N1015 C1013 1.279 . S
C1016 C1013 1.358 . S
C1016 C1017 1.356 . S
C1016 H1053 0.930 . S
C1017 C1014 1.348 . S
C1017 C1016 1.356 . S
H1018 C1012 0.930 . S
H1019 C1013 0.930 . S
C1020 N1021 1.314 . S
C1020 C1022 1.353 . S
C1020 H1026 0.930 . S
N1021 Li971 1.990 . S
N1021 C1020 1.314 . S
N1021 C1024 1.279 . S
C1022 C1020 1.353 . S
C1022 C1025 1.348 . S
C1022 H1054 0.929 . S
C1023 C1024 1.358 . S
C1023 C1025 1.356 . S
C1023 H1055 0.930 . S
C1024 N1021 1.279 . S
C1024 C1023 1.358 . S
C1024 H1027 0.930 . S
C1025 C1022 1.348 . S
C1025 C1023 1.356 . S
H1026 C1020 0.930 . S
H1027 C1024 0.930 . S
O1028 Li968 1.956 . S
O1028 Li969 1.970 . S
O1028 Li970 1.961 . S
O1028 C972 1.325 . S
O1029 Li968 1.970 . S
O1029 Li969 1.956 . S
O1029 Li971 1.961 . S
O1029 C978 1.325 . S
O1030 Li968 1.961 . S
O1030 Li970 1.956 . S
O1030 Li971 1.970 . S
O1030 C1000 1.325 . S
O1031 Li969 1.961 . S
O1031 Li970 1.970 . S
O1031 Li971 1.956 . S
O1031 C1006 1.325 . S
H1032 C974 0.929 . S
H1033 C975 0.930 . S
H1034 C976 0.930 . S
H1035 C977 0.930 . S
H1036 C979 0.930 . S
H1037 C981 0.929 . S
H1038 C982 0.930 . S
H1039 C983 0.930 . S
H1040 C986 0.930 . S
H1041 C989 0.929 . S
H1042 C994 0.929 . S
H1043 C995 0.930 . S
H1044 C1002 0.929 . S
H1045 C1003 0.930 . S
H1046 C1004 0.930 . S
H1047 C1005 0.930 . S
H1048 C1007 0.929 . S
H1049 C1008 0.930 . S
H1050 C1009 0.930 . S
H1051 C1010 0.930 . S
H1052 C1014 0.929 . S
H1053 C1016 0.930 . S
H1054 C1022 0.929 . S
H1055 C1023 0.930 . S
Li1056 N1073 1.990 . S
Li1056 O1116 1.956 . S
Li1056 O1117 1.970 1_455 S
Li1056 O1118 1.961 . S
Li1057 N1081 1.990 1_455 S
Li1057 O1116 1.970 . S
Li1057 O1117 1.956 1_455 S
Li1057 O1119 1.961 . S
Li1058 N1103 1.990 . S
Li1058 O1116 1.961 . S
Li1058 O1118 1.956 . S
Li1058 O1119 1.970 . S
Li1059 N1109 1.990 . S
Li1059 O1117 1.961 1_455 S
Li1059 O1118 1.970 . S
Li1059 O1119 1.956 . S
C1060 C1062 1.348 . S
C1060 C1063 1.356 . S
C1060 O1116 1.325 . S
N1061 C1064 1.314 . S
N1061 C1065 1.279 . S
C1062 C1060 1.348 . S
C1062 C1064 1.353 . S
C1062 H1120 0.929 . S
C1063 C1060 1.356 . S
C1063 C1065 1.358 . S
C1063 H1121 0.930 . S
C1064 N1061 1.314 . S
C1064 C1062 1.353 . S
C1064 H1122 0.930 . S
C1065 N1061 1.279 . S
C1065 C1063 1.358 . S
C1065 H1123 0.930 . S
C1066 C1069 1.348 . S
C1066 C1070 1.356 . S
C1066 O1117 1.325 . S
C1067 N1068 1.279 . S
C1067 C1070 1.358 . S
C1067 H1124 0.930 . S
N1068 C1067 1.279 . S
N1068 C1071 1.314 . S
C1069 C1066 1.348 . S
C1069 C1071 1.353 . S
C1069 H1125 0.929 . S
C1070 C1066 1.356 . S
C1070 C1067 1.358 . S
C1070 H1126 0.930 . S
C1071 N1068 1.314 . S
C1071 C1069 1.353 . S
C1071 H1127 0.930 . S
C1072 N1073 1.314 . S
C1072 C1077 1.353 . S
C1072 H1078 0.930 . S
N1073 Li1056 1.990 . S
N1073 C1072 1.314 . S
N1073 C1075 1.279 . S
C1074 C1075 1.358 . S
C1074 C1076 1.356 . S
C1074 H1128 0.930 . S
C1075 N1073 1.279 . S
C1075 C1074 1.358 . S
C1075 H1079 0.930 . S
C1076 C1074 1.356 . S
C1076 C1077 1.348 . S
C1077 C1072 1.353 . S
C1077 C1076 1.348 . S
C1077 H1129 0.929 . S
H1078 C1072 0.930 . S
H1079 C1075 0.930 . S
C1080 N1081 1.314 . S
C1080 C1082 1.353 . S
C1080 H1086 0.930 . S
N1081 Li1057 1.990 1_655 S
N1081 C1080 1.314 . S
N1081 C1084 1.279 . S
C1082 C1080 1.353 . S
C1082 C1085 1.348 . S
C1082 H1130 0.929 . S
C1083 C1084 1.358 . S
C1083 C1085 1.356 . S
C1083 H1131 0.930 . S
C1084 N1081 1.279 . S
C1084 C1083 1.358 . S
C1084 H1087 0.930 . S
C1085 C1082 1.348 . S
C1085 C1083 1.356 . S
H1086 C1080 0.930 . S
H1087 C1084 0.930 . S
C1088 C1090 1.348 . S
C1088 C1091 1.356 . S
C1088 O1118 1.325 . S
N1089 C1092 1.314 . S
N1089 C1093 1.279 . S
C1090 C1088 1.348 . S
C1090 C1092 1.353 . S
C1090 H1132 0.929 . S
C1091 C1088 1.356 . S
C1091 C1093 1.358 . S
C1091 H1133 0.930 . S
C1092 N1089 1.314 . S
C1092 C1090 1.353 . S
C1092 H1134 0.930 . S
C1093 N1089 1.279 . S
C1093 C1091 1.358 . S
C1093 H1135 0.930 . S
C1094 C1095 1.348 . S
C1094 C1096 1.356 1_455 S
C1094 O1119 1.325 . S
C1095 C1094 1.348 . S
C1095 C1097 1.353 . S
C1095 H1136 0.929 . S
C1096 C1094 1.356 1_655 S
C1096 C1098 1.358 . S
C1096 H1137 0.930 . S
C1097 C1095 1.353 . S
C1097 N1099 1.314 . S
C1097 H1138 0.930 . S
C1098 C1096 1.358 . S
C1098 N1099 1.279 1_655 S
C1098 H1139 0.930 . S
N1099 C1097 1.314 . S
N1099 C1098 1.279 1_455 S
C1100 C1102 1.353 . S
C1100 N1103 1.314 . S
C1100 H1106 0.930 . S
C1101 N1103 1.279 . S
C1101 C1104 1.358 . S
C1101 H1107 0.930 . S
C1102 C1100 1.353 . S
C1102 C1105 1.348 . S
C1102 H1140 0.929 . S
N1103 Li1058 1.990 . S
N1103 C1100 1.314 . S
N1103 C1101 1.279 . S
C1104 C1101 1.358 . S
C1104 C1105 1.356 . S
C1104 H1141 0.930 . S
C1105 C1102 1.348 . S
C1105 C1104 1.356 . S
H1106 C1100 0.930 . S
H1107 C1101 0.930 . S
C1108 N1109 1.314 . S
C1108 C1110 1.351 1_455 S
C1108 H1114 0.930 . S
N1109 Li1059 1.990 . S
N1109 C1108 1.314 . S
N1109 C1112 1.279 . S
C1110 C1108 1.351 1_655 S
C1110 C1113 1.341 1_655 S
C1110 H1142 0.939 . S
C1111 C1112 1.358 . S
C1111 C1113 1.356 . S
C1111 H1143 0.930 . S
C1112 N1109 1.279 . S
C1112 C1111 1.358 . S
C1112 H1115 0.930 . S
C1113 C1110 1.341 1_455 S
C1113 C1111 1.356 . S
H1114 C1108 0.930 . S
H1115 C1112 0.930 . S
O1116 Li1056 1.956 . S
O1116 Li1057 1.970 . S
O1116 Li1058 1.961 . S
O1116 C1060 1.325 . S
O1117 Li1056 1.970 1_655 S
O1117 Li1057 1.956 1_655 S
O1117 Li1059 1.961 1_655 S
O1117 C1066 1.325 . S
O1118 Li1056 1.961 . S
O1118 Li1058 1.956 . S
O1118 Li1059 1.970 . S
O1118 C1088 1.325 . S
O1119 Li1057 1.961 . S
O1119 Li1058 1.970 . S
O1119 Li1059 1.956 . S
O1119 C1094 1.325 . S
H1120 C1062 0.929 . S
H1121 C1063 0.930 . S
H1122 C1064 0.930 . S
H1123 C1065 0.930 . S
H1124 C1067 0.930 . S
H1125 C1069 0.929 . S
H1126 C1070 0.930 . S
H1127 C1071 0.930 . S
H1128 C1074 0.930 . S
H1129 C1077 0.929 . S
H1130 C1082 0.929 . S
H1131 C1083 0.930 . S
H1132 C1090 0.929 . S
H1133 C1091 0.930 . S
H1134 C1092 0.930 . S
H1135 C1093 0.930 . S
H1136 C1095 0.929 . S
H1137 C1096 0.930 . S
H1138 C1097 0.930 . S
H1139 C1098 0.930 . S
H1140 C1102 0.929 . S
H1141 C1104 0.930 . S
H1142 C1110 0.939 . S
H1143 C1111 0.930 . S
Li1144 N1161 1.990 . S
Li1144 O1204 1.956 . S
Li1144 O1205 1.970 . S
Li1144 O1206 1.961 . S
Li1145 N1169 1.990 . S
Li1145 O1204 1.970 . S
Li1145 O1205 1.956 . S
Li1145 O1207 1.961 . S
Li1146 N1191 1.990 . S
Li1146 O1204 1.961 . S
Li1146 O1206 1.956 . S
Li1146 O1207 1.970 . S
Li1147 N1197 1.990 . S
Li1147 O1205 1.961 . S
Li1147 O1206 1.970 . S
Li1147 O1207 1.956 . S
C1148 C1150 1.348 . S
C1148 C1151 1.356 . S
C1148 O1204 1.325 . S
N1149 C1152 1.314 . S
N1149 C1153 1.279 . S
C1150 C1148 1.348 . S
C1150 C1152 1.353 . S
C1150 H1208 0.929 . S
C1151 C1148 1.356 . S
C1151 C1153 1.358 . S
C1151 H1209 0.930 . S
C1152 N1149 1.314 . S
C1152 C1150 1.353 . S
C1152 H1210 0.930 . S
C1153 N1149 1.279 . S
C1153 C1151 1.358 . S
C1153 H1211 0.930 . S
C1154 C1157 1.348 . S
C1154 C1158 1.356 . S
C1154 O1205 1.325 . S
C1155 N1156 1.279 . S
C1155 C1158 1.358 . S
C1155 H1212 0.930 . S
N1156 C1155 1.279 . S
N1156 C1159 1.314 . S
C1157 C1154 1.348 . S
C1157 C1159 1.353 . S
C1157 H1213 0.929 . S
C1158 C1154 1.356 . S
C1158 C1155 1.358 . S
C1158 H1214 0.930 . S
C1159 N1156 1.314 . S
C1159 C1157 1.353 . S
C1159 H1215 0.930 . S
C1160 N1161 1.314 . S
C1160 C1165 1.353 . S
C1160 H1166 0.930 . S
N1161 Li1144 1.990 . S
N1161 C1160 1.314 . S
N1161 C1163 1.279 . S
C1162 C1163 1.358 . S
C1162 C1164 1.356 . S
C1162 H1216 0.930 . S
C1163 N1161 1.279 . S
C1163 C1162 1.358 . S
C1163 H1167 0.930 . S
C1164 C1162 1.356 . S
C1164 C1165 1.348 . S
C1165 C1160 1.353 . S
C1165 C1164 1.348 . S
C1165 H1217 0.929 . S
H1166 C1160 0.930 . S
H1167 C1163 0.930 . S
C1168 N1169 1.314 . S
C1168 C1170 1.353 . S
C1168 H1174 0.930 . S
N1169 Li1145 1.990 . S
N1169 C1168 1.314 . S
N1169 C1172 1.279 . S
C1170 C1168 1.353 . S
C1170 C1173 1.348 . S
C1170 H1218 0.929 . S
C1171 C1172 1.358 . S
C1171 C1173 1.356 . S
C1171 H1219 0.930 . S
C1172 N1169 1.279 . S
C1172 C1171 1.358 . S
C1172 H1175 0.930 . S
C1173 C1170 1.348 . S
C1173 C1171 1.356 . S
H1174 C1168 0.930 . S
H1175 C1172 0.930 . S
C1176 C1178 1.348 . S
C1176 C1179 1.356 . S
C1176 O1206 1.325 . S
N1177 C1180 1.314 . S
N1177 C1181 1.279 . S
C1178 C1176 1.348 . S
C1178 C1180 1.353 . S
C1178 H1220 0.929 . S
C1179 C1176 1.356 . S
C1179 C1181 1.358 . S
C1179 H1221 0.930 . S
C1180 N1177 1.314 . S
C1180 C1178 1.353 . S
C1180 H1222 0.930 . S
C1181 N1177 1.279 . S
C1181 C1179 1.358 . S
C1181 H1223 0.930 . S
C1182 C1183 1.348 . S
C1182 C1184 1.356 . S
C1182 O1207 1.325 . S
C1183 C1182 1.348 . S
C1183 C1185 1.353 . S
C1183 H1224 0.929 . S
C1184 C1182 1.356 . S
C1184 C1186 1.358 . S
C1184 H1225 0.930 . S
C1185 C1183 1.353 . S
C1185 N1187 1.314 . S
C1185 H1226 0.930 . S
C1186 C1184 1.358 . S
C1186 N1187 1.279 . S
C1186 H1227 0.930 . S
N1187 C1185 1.314 . S
N1187 C1186 1.279 . S
C1188 C1190 1.353 . S
C1188 N1191 1.314 . S
C1188 H1194 0.930 . S
C1189 N1191 1.279 . S
C1189 C1192 1.358 . S
C1189 H1195 0.930 . S
C1190 C1188 1.353 . S
C1190 C1193 1.348 . S
C1190 H1228 0.929 . S
N1191 Li1146 1.990 . S
N1191 C1188 1.314 . S
N1191 C1189 1.279 . S
C1192 C1189 1.358 . S
C1192 C1193 1.356 . S
C1192 H1229 0.930 . S
C1193 C1190 1.348 . S
C1193 C1192 1.356 . S
H1194 C1188 0.930 . S
H1195 C1189 0.930 . S
C1196 N1197 1.314 . S
C1196 C1198 1.353 . S
C1196 H1202 0.930 . S
N1197 Li1147 1.990 . S
N1197 C1196 1.314 . S
N1197 C1200 1.279 . S
C1198 C1196 1.353 . S
C1198 C1201 1.348 . S
C1198 H1230 0.929 . S
C1199 C1200 1.358 . S
C1199 C1201 1.356 . S
C1199 H1231 0.930 . S
C1200 N1197 1.279 . S
C1200 C1199 1.358 . S
C1200 H1203 0.930 . S
C1201 C1198 1.348 . S
C1201 C1199 1.356 . S
H1202 C1196 0.930 . S
H1203 C1200 0.930 . S
O1204 Li1144 1.956 . S
O1204 Li1145 1.970 . S
O1204 Li1146 1.961 . S
O1204 C1148 1.325 . S
O1205 Li1144 1.970 . S
O1205 Li1145 1.956 . S
O1205 Li1147 1.961 . S
O1205 C1154 1.325 . S
O1206 Li1144 1.961 . S
O1206 Li1146 1.956 . S
O1206 Li1147 1.970 . S
O1206 C1176 1.325 . S
O1207 Li1145 1.961 . S
O1207 Li1146 1.970 . S
O1207 Li1147 1.956 . S
O1207 C1182 1.325 . S
H1208 C1150 0.929 . S
H1209 C1151 0.930 . S
H1210 C1152 0.930 . S
H1211 C1153 0.930 . S
H1212 C1155 0.930 . S
H1213 C1157 0.929 . S
H1214 C1158 0.930 . S
H1215 C1159 0.930 . S
H1216 C1162 0.930 . S
H1217 C1165 0.929 . S
H1218 C1170 0.929 . S
H1219 C1171 0.930 . S
H1220 C1178 0.929 . S
H1221 C1179 0.930 . S
H1222 C1180 0.930 . S
H1223 C1181 0.930 . S
H1224 C1183 0.929 . S
H1225 C1184 0.930 . S
H1226 C1185 0.930 . S
H1227 C1186 0.930 . S
H1228 C1190 0.929 . S
H1229 C1192 0.930 . S
H1230 C1198 0.929 . S
H1231 C1199 0.930 . S
C1232 C1233 1.369 . S
C1232 C1234 1.419 . S
C1232 H1236 0.930 . S
C1233 C1232 1.369 . S
C1233 C1242 1.429 . S
C1234 C1232 1.419 . S
C1234 C1235 1.363 . S
C1234 H1237 0.929 . S
C1235 C1234 1.363 . S
C1235 C1241 1.428 . S
H1236 C1232 0.930 . S
H1237 C1234 0.929 . S
S1238 N1239 1.613 . S
S1238 N1240 1.610 . S
N1239 S1238 1.613 . S
N1239 C1242 1.350 . S
N1240 S1238 1.610 . S
N1240 C1241 1.351 . S
C1241 C1235 1.428 . S
C1241 N1240 1.351 . S
C1241 C1242 1.434 . S
C1242 C1233 1.429 . S
C1242 N1239 1.350 . S
C1242 C1241 1.434 . S
C1243 C1244 1.369 . S
C1243 C1245 1.419 . S
C1243 H1247 0.930 . S
C1244 C1243 1.369 . S
C1244 C1253 1.429 . S
C1245 C1243 1.419 . S
C1245 C1246 1.363 . S
C1245 H1248 0.929 . S
C1246 C1245 1.363 . S
C1246 C1252 1.428 . S
H1247 C1243 0.930 . S
H1248 C1245 0.929 . S
S1249 N1250 1.613 . S
S1249 N1251 1.610 1_655 S
N1250 S1249 1.613 . S
N1250 C1253 1.350 1_655 S
N1251 S1249 1.610 1_455 S
N1251 C1252 1.351 . S
C1252 C1246 1.428 . S
C1252 N1251 1.351 . S
C1252 C1253 1.434 . S
C1253 C1244 1.429 . S
C1253 N1250 1.350 1_455 S
C1253 C1252 1.434 . S
C1254 C1255 1.369 . S
C1254 C1256 1.419 . S
C1254 H1258 0.930 . S
C1255 C1254 1.369 . S
C1255 C1264 1.429 . S
C1256 C1254 1.419 . S
C1256 C1257 1.363 . S
C1256 H1259 0.929 . S
C1257 C1256 1.363 . S
C1257 C1263 1.428 . S
H1258 C1254 0.930 . S
H1259 C1256 0.929 . S
S1260 N1261 1.613 . S
S1260 N1262 1.610 . S
N1261 S1260 1.613 . S
N1261 C1264 1.350 . S
N1262 S1260 1.610 . S
N1262 C1263 1.351 . S
C1263 C1257 1.428 . S
C1263 N1262 1.351 . S
C1263 C1264 1.434 . S
C1264 C1255 1.429 . S
C1264 N1261 1.350 . S
C1264 C1263 1.434 . S
C1265 C1266 1.365 1_455 S
C1265 C1267 1.419 1_455 S
C1265 H1269 0.930 . S
C1266 C1265 1.365 1_655 S
C1266 C1275 1.446 1_545 S
C1267 C1265 1.419 1_655 S
C1267 C1268 1.363 . S
C1267 H1270 0.929 . S
C1268 C1267 1.363 . S
C1268 C1274 1.426 1_545 S
H1269 C1265 0.930 . S
H1270 C1267 0.929 . S
S1271 N1272 1.613 . S
S1271 N1273 1.610 . S
N1272 S1271 1.613 . S
N1272 C1275 1.350 . S
N1273 S1271 1.610 . S
N1273 C1274 1.352 . S
C1274 C1268 1.426 1_565 S
C1274 N1273 1.352 . S
C1274 C1275 1.436 . S
C1275 C1266 1.446 1_565 S
C1275 N1272 1.350 . S
C1275 C1274 1.436 . S
C1276 C1277 1.369 . S
C1276 C1278 1.419 . S
C1276 H1280 0.930 . S
C1277 C1276 1.369 . S
C1277 C1286 1.429 . S
C1278 C1276 1.419 . S
C1278 C1279 1.363 . S
C1278 H1281 0.929 . S
C1279 C1278 1.363 . S
C1279 C1285 1.428 . S
H1280 C1276 0.930 . S
H1281 C1278 0.929 . S
S1282 N1283 1.613 . S
S1282 N1284 1.610 . S
N1283 S1282 1.613 . S
N1283 C1286 1.350 . S
N1284 S1282 1.610 . S
N1284 C1285 1.351 . S
C1285 C1279 1.428 . S
C1285 N1284 1.351 . S
C1285 C1286 1.434 . S
C1286 C1277 1.429 . S
C1286 N1283 1.350 . S
C1286 C1285 1.434 . S
C1287 C1288 1.369 . S
C1287 C1289 1.419 . S
C1287 H1291 0.930 . S
C1288 C1287 1.369 . S
C1288 C1297 1.429 . S
C1289 C1287 1.419 . S
C1289 C1290 1.363 . S
C1289 H1292 0.929 . S
C1290 C1289 1.363 . S
C1290 C1296 1.428 . S
H1291 C1287 0.930 . S
H1292 C1289 0.929 . S
S1293 N1294 1.613 . S
S1293 N1295 1.610 . S
N1294 S1293 1.613 . S
N1294 C1297 1.350 . S
N1295 S1293 1.610 . S
N1295 C1296 1.351 . S
C1296 C1290 1.428 . S
C1296 N1295 1.351 . S
C1296 C1297 1.434 . S
C1297 C1288 1.429 . S
C1297 N1294 1.350 . S
C1297 C1296 1.434 . S
C1298 C1299 1.369 . S
C1298 C1300 1.419 . S
C1298 H1302 0.930 . S
C1299 C1298 1.369 . S
C1299 C1308 1.429 . S
C1300 C1298 1.419 . S
C1300 C1301 1.363 . S
C1300 H1303 0.929 . S
C1301 C1300 1.363 . S
C1301 C1307 1.428 . S
H1302 C1298 0.930 . S
H1303 C1300 0.929 . S
S1304 N1305 1.613 . S
S1304 N1306 1.610 . S
N1305 S1304 1.613 . S
N1305 C1308 1.350 . S
N1306 S1304 1.610 . S
N1306 C1307 1.351 . S
C1307 C1301 1.428 . S
C1307 N1306 1.351 . S
C1307 C1308 1.434 . S
C1308 C1299 1.429 . S
C1308 N1305 1.350 . S
C1308 C1307 1.434 . S
C1309 C1310 1.369 . S
C1309 C1311 1.419 . S
C1309 H1313 0.930 . S
C1310 C1309 1.369 . S
C1310 C1319 1.429 . S
C1311 C1309 1.419 . S
C1311 C1312 1.363 . S
C1311 H1314 0.929 . S
C1312 C1311 1.363 . S
C1312 C1318 1.428 . S
H1313 C1309 0.930 . S
H1314 C1311 0.929 . S
S1315 N1316 1.613 . S
S1315 N1317 1.610 . S
N1316 S1315 1.613 . S
N1316 C1319 1.350 . S
N1317 S1315 1.610 . S
N1317 C1318 1.351 . S
C1318 C1312 1.428 . S
C1318 N1317 1.351 . S
C1318 C1319 1.434 . S
C1319 C1310 1.429 . S
C1319 N1316 1.350 . S
C1319 C1318 1.434 . S
C1320 C1321 1.369 . S
C1320 C1322 1.419 . S
C1320 H1324 0.930 . S
C1321 C1320 1.369 . S
C1321 C1330 1.429 . S
C1322 C1320 1.419 . S
C1322 C1323 1.363 . S
C1322 H1325 0.929 . S
C1323 C1322 1.363 . S
C1323 C1329 1.428 . S
H1324 C1320 0.930 . S
H1325 C1322 0.929 . S
S1326 N1327 1.613 . S
S1326 N1328 1.610 . S
N1327 S1326 1.613 . S
N1327 C1330 1.350 . S
N1328 S1326 1.610 . S
N1328 C1329 1.351 . S
C1329 C1323 1.428 . S
C1329 N1328 1.351 . S
C1329 C1330 1.434 . S
C1330 C1321 1.429 . S
C1330 N1327 1.350 . S
C1330 C1329 1.434 . S
C1331 C1332 1.369 . S
C1331 C1333 1.419 . S
C1331 H1335 0.930 . S
C1332 C1331 1.369 . S
C1332 C1341 1.429 . S
C1333 C1331 1.419 . S
C1333 C1334 1.363 . S
C1333 H1336 0.929 . S
C1334 C1333 1.363 . S
C1334 C1340 1.428 . S
H1335 C1331 0.930 . S
H1336 C1333 0.929 . S
S1337 N1338 1.613 . S
S1337 N1339 1.610 . S
N1338 S1337 1.613 . S
N1338 C1341 1.350 . S
N1339 S1337 1.610 . S
N1339 C1340 1.351 . S
C1340 C1334 1.428 . S
C1340 N1339 1.351 . S
C1340 C1341 1.434 . S
C1341 C1332 1.429 . S
C1341 N1338 1.350 . S
C1341 C1340 1.434 . S
C1342 C1343 1.369 . S
C1342 C1344 1.419 . S
C1342 H1346 0.930 . S
C1343 C1342 1.369 . S
C1343 C1352 1.429 . S
C1344 C1342 1.419 . S
C1344 C1345 1.363 . S
C1344 H1347 0.929 . S
C1345 C1344 1.363 . S
C1345 C1351 1.428 . S
H1346 C1342 0.930 . S
H1347 C1344 0.929 . S
S1348 N1349 1.613 . S
S1348 N1350 1.610 . S
N1349 S1348 1.613 . S
N1349 C1352 1.350 . S
N1350 S1348 1.610 . S
N1350 C1351 1.351 . S
C1351 C1345 1.428 . S
C1351 N1350 1.351 . S
C1351 C1352 1.434 . S
C1352 C1343 1.429 . S
C1352 N1349 1.350 . S
C1352 C1351 1.434 . S
C1353 C1354 1.369 . S
C1353 C1355 1.419 . S
C1353 H1357 0.930 . S
C1354 C1353 1.369 . S
C1354 C1363 1.429 . S
C1355 C1353 1.419 . S
C1355 C1356 1.363 . S
C1355 H1358 0.929 . S
C1356 C1355 1.363 . S
C1356 C1362 1.428 . S
H1357 C1353 0.930 . S
H1358 C1355 0.929 . S
S1359 N1360 1.613 . S
S1359 N1361 1.610 . S
N1360 S1359 1.613 . S
N1360 C1363 1.350 . S
N1361 S1359 1.610 . S
N1361 C1362 1.351 . S
C1362 C1356 1.428 . S
C1362 N1361 1.351 . S
C1362 C1363 1.434 . S
C1363 C1354 1.429 . S
C1363 N1360 1.350 . S
C1363 C1362 1.434 . S
C1364 C1365 1.369 . S
C1364 C1366 1.419 . S
C1364 H1368 0.930 . S
C1365 C1364 1.369 . S
C1365 C1374 1.429 . S
C1366 C1364 1.419 . S
C1366 C1367 1.363 . S
C1366 H1369 0.929 . S
C1367 C1366 1.363 . S
C1367 C1373 1.428 . S
H1368 C1364 0.930 . S
H1369 C1366 0.929 . S
S1370 N1371 1.613 . S
S1370 N1372 1.610 . S
N1371 S1370 1.613 . S
N1371 C1374 1.350 . S
N1372 S1370 1.610 . S
N1372 C1373 1.351 . S
C1373 C1367 1.428 . S
C1373 N1372 1.351 . S
C1373 C1374 1.434 . S
C1374 C1365 1.429 . S
C1374 N1371 1.350 . S
C1374 C1373 1.434 . S
C1375 C1376 1.369 . S
C1375 C1377 1.419 . S
C1375 H1379 0.930 . S
C1376 C1375 1.369 . S
C1376 C1385 1.429 . S
C1377 C1375 1.419 . S
C1377 C1378 1.363 . S
C1377 H1380 0.929 . S
C1378 C1377 1.363 . S
C1378 C1384 1.428 . S
H1379 C1375 0.930 . S
H1380 C1377 0.929 . S
S1381 N1382 1.613 . S
S1381 N1383 1.610 . S
N1382 S1381 1.613 . S
N1382 C1385 1.350 1_655 S
N1383 S1381 1.610 . S
N1383 C1384 1.351 1_655 S
C1384 C1378 1.428 . S
C1384 N1383 1.351 1_455 S
C1384 C1385 1.434 . S
C1385 C1376 1.429 . S
C1385 N1382 1.350 1_455 S
C1385 C1384 1.434 . S
C1386 C1387 1.369 . S
C1386 C1388 1.419 . S
C1386 H1390 0.930 . S
C1387 C1386 1.369 . S
C1387 C1396 1.429 . S
C1388 C1386 1.419 . S
C1388 C1389 1.363 . S
C1388 H1391 0.929 . S
C1389 C1388 1.363 . S
C1389 C1395 1.428 . S
H1390 C1386 0.930 . S
H1391 C1388 0.929 . S
S1392 N1393 1.613 . S
S1392 N1394 1.610 . S
N1393 S1392 1.613 . S
N1393 C1396 1.350 . S
N1394 S1392 1.610 . S
N1394 C1395 1.351 . S
C1395 C1389 1.428 . S
C1395 N1394 1.351 . S
C1395 C1396 1.434 . S
C1396 C1387 1.429 . S
C1396 N1393 1.350 . S
C1396 C1395 1.434 . S
C1397 C1398 1.369 . S
C1397 C1399 1.419 . S
C1397 H1401 0.930 . S
C1398 C1397 1.369 . S
C1398 C1407 1.429 . S
C1399 C1397 1.419 . S
C1399 C1400 1.363 . S
C1399 H1402 0.929 . S
C1400 C1399 1.363 . S
C1400 C1406 1.428 . S
H1401 C1397 0.930 . S
H1402 C1399 0.929 . S
S1403 N1404 1.613 . S
S1403 N1405 1.610 . S
N1404 S1403 1.613 . S
N1404 C1407 1.350 . S
N1405 S1403 1.610 . S
N1405 C1406 1.351 . S
C1406 C1400 1.428 . S
C1406 N1405 1.351 . S
C1406 C1407 1.434 . S
C1407 C1398 1.429 . S
C1407 N1404 1.350 . S
C1407 C1406 1.434 . S
C1408 C1409 1.369 . S
C1408 C1410 1.419 . S
C1408 H1412 0.930 . S
C1409 C1408 1.369 . S
C1409 C1418 1.429 . S
C1410 C1408 1.419 . S
C1410 C1411 1.363 . S
C1410 H1413 0.929 . S
C1411 C1410 1.363 . S
C1411 C1417 1.428 . S
H1412 C1408 0.930 . S
H1413 C1410 0.929 . S
S1414 N1415 1.613 . S
S1414 N1416 1.610 . S
N1415 S1414 1.613 . S
N1415 C1418 1.350 . S
N1416 S1414 1.610 . S
N1416 C1417 1.351 . S
C1417 C1411 1.428 . S
C1417 N1416 1.351 . S
C1417 C1418 1.434 . S
C1418 C1409 1.429 . S
C1418 N1415 1.350 . S
C1418 C1417 1.434 . S
C1419 C1420 1.369 . S
C1419 C1421 1.419 . S
C1419 H1423 0.930 . S
C1420 C1419 1.369 . S
C1420 C1429 1.429 . S
C1421 C1419 1.419 . S
C1421 C1422 1.363 . S
C1421 H1424 0.929 . S
C1422 C1421 1.363 . S
C1422 C1428 1.428 . S
H1423 C1419 0.930 . S
H1424 C1421 0.929 . S
S1425 N1426 1.613 . S
S1425 N1427 1.610 . S
N1426 S1425 1.613 . S
N1426 C1429 1.350 . S
N1427 S1425 1.610 . S
N1427 C1428 1.351 . S
C1428 C1422 1.428 . S
C1428 N1427 1.351 . S
C1428 C1429 1.434 . S
C1429 C1420 1.429 . S
C1429 N1426 1.350 . S
C1429 C1428 1.434 . S
C1430 C1431 1.372 . S
C1430 C1432 1.419 . S
C1430 H1434 0.930 1_565 S
C1431 C1430 1.372 . S
C1431 C1440 1.427 1_554 S
C1432 C1430 1.419 . S
C1432 C1433 1.363 1_554 S
C1432 H1435 0.929 . S
C1433 C1432 1.363 1_556 S
C1433 C1439 1.428 . S
H1434 C1430 0.930 1_545 S
H1435 C1432 0.929 . S
S1436 N1437 1.613 . S
S1436 N1438 1.610 . S
N1437 S1436 1.613 . S
N1437 C1440 1.350 . S
N1438 S1436 1.610 . S
N1438 C1439 1.351 . S
C1439 C1433 1.428 . S
C1439 N1438 1.351 . S
C1439 C1440 1.434 . S
C1440 C1431 1.427 1_556 S
C1440 N1437 1.350 . S
C1440 C1439 1.434 . S
C1441 C1442 1.369 . S
C1441 C1443 1.419 . S
C1441 H1445 0.930 . S
C1442 C1441 1.369 . S
C1442 C1451 1.429 . S
C1443 C1441 1.419 . S
C1443 C1444 1.363 . S
C1443 H1446 0.929 . S
C1444 C1443 1.363 . S
C1444 C1450 1.428 . S
H1445 C1441 0.930 . S
H1446 C1443 0.929 . S
S1447 N1448 1.613 . S
S1447 N1449 1.610 . S
N1448 S1447 1.613 . S
N1448 C1451 1.350 . S
N1449 S1447 1.610 . S
N1449 C1450 1.351 . S
C1450 C1444 1.428 . S
C1450 N1449 1.351 . S
C1450 C1451 1.434 . S
C1451 C1442 1.429 . S
C1451 N1448 1.350 . S
C1451 C1450 1.434 . S
C1452 C1453 1.369 . S
C1452 C1454 1.419 . S
C1452 H1456 0.930 . S
C1453 C1452 1.369 . S
C1453 C1462 1.429 . S
C1454 C1452 1.419 . S
C1454 C1455 1.363 . S
C1454 H1457 0.929 . S
C1455 C1454 1.363 . S
C1455 C1461 1.428 . S
H1456 C1452 0.930 . S
H1457 C1454 0.929 . S
S1458 N1459 1.613 . S
S1458 N1460 1.610 . S
N1459 S1458 1.613 . S
N1459 C1462 1.350 . S
N1460 S1458 1.610 . S
N1460 C1461 1.351 . S
C1461 C1455 1.428 . S
C1461 N1460 1.351 . S
C1461 C1462 1.434 . S
C1462 C1453 1.429 . S
C1462 N1459 1.350 . S
C1462 C1461 1.434 . S
C1463 C1464 1.369 . S
C1463 C1465 1.419 . S
C1463 H1467 0.930 . S
C1464 C1463 1.369 . S
C1464 C1473 1.429 . S
C1465 C1463 1.419 . S
C1465 C1466 1.363 . S
C1465 H1468 0.929 . S
C1466 C1465 1.363 . S
C1466 C1472 1.428 . S
H1467 C1463 0.930 . S
H1468 C1465 0.929 . S
S1469 N1470 1.613 . S
S1469 N1471 1.610 . S
N1470 S1469 1.613 . S
N1470 C1473 1.350 . S
N1471 S1469 1.610 . S
N1471 C1472 1.351 . S
C1472 C1466 1.428 . S
C1472 N1471 1.351 . S
C1472 C1473 1.434 . S
C1473 C1464 1.429 . S
C1473 N1470 1.350 . S
C1473 C1472 1.434 . S
C1474 C1475 1.369 . S
C1474 C1476 1.419 . S
C1474 H1478 0.930 . S
C1475 C1474 1.369 . S
C1475 C1484 1.429 . S
C1476 C1474 1.419 . S
C1476 C1477 1.363 . S
C1476 H1479 0.929 . S
C1477 C1476 1.363 . S
C1477 C1483 1.428 . S
H1478 C1474 0.930 . S
H1479 C1476 0.929 . S
S1480 N1481 1.613 . S
S1480 N1482 1.610 . S
N1481 S1480 1.613 . S
N1481 C1484 1.350 . S
N1482 S1480 1.610 . S
N1482 C1483 1.351 . S
C1483 C1477 1.428 . S
C1483 N1482 1.351 . S
C1483 C1484 1.434 . S
C1484 C1475 1.429 . S
C1484 N1481 1.350 . S
C1484 C1483 1.434 . S
C1485 C1486 1.369 . S
C1485 C1487 1.419 . S
C1485 H1489 0.930 . S
C1486 C1485 1.369 . S
C1486 C1495 1.429 . S
C1487 C1485 1.419 . S
C1487 C1488 1.363 . S
C1487 H1490 0.929 . S
C1488 C1487 1.363 . S
C1488 C1494 1.428 . S
H1489 C1485 0.930 . S
H1490 C1487 0.929 . S
S1491 N1492 1.613 . S
S1491 N1493 1.610 . S
N1492 S1491 1.613 . S
N1492 C1495 1.350 . S
N1493 S1491 1.610 . S
N1493 C1494 1.351 . S
C1494 C1488 1.428 . S
C1494 N1493 1.351 . S
C1494 C1495 1.434 . S
C1495 C1486 1.429 . S
C1495 N1492 1.350 . S
C1495 C1494 1.434 . S
C1496 C1497 1.369 . S
C1496 C1498 1.419 . S
C1496 H1500 0.930 . S
C1497 C1496 1.369 . S
C1497 C1506 1.429 . S
C1498 C1496 1.419 . S
C1498 C1499 1.363 . S
C1498 H1501 0.929 . S
C1499 C1498 1.363 . S
C1499 C1505 1.428 . S
H1500 C1496 0.930 . S
H1501 C1498 0.929 . S
S1502 N1503 1.613 . S
S1502 N1504 1.610 . S
N1503 S1502 1.613 . S
N1503 C1506 1.350 . S
N1504 S1502 1.610 . S
N1504 C1505 1.351 . S
C1505 C1499 1.428 . S
C1505 N1504 1.351 . S
C1505 C1506 1.434 . S
C1506 C1497 1.429 . S
C1506 N1503 1.350 . S
C1506 C1505 1.434 . S
C1507 C1508 1.369 . S
C1507 C1509 1.419 . S
C1507 H1511 0.930 . S
C1508 C1507 1.369 . S
C1508 C1517 1.429 . S
C1509 C1507 1.419 . S
C1509 C1510 1.363 . S
C1509 H1512 0.929 . S
C1510 C1509 1.363 . S
C1510 C1516 1.428 . S
H1511 C1507 0.930 . S
H1512 C1509 0.929 . S
S1513 N1514 1.613 . S
S1513 N1515 1.610 . S
N1514 S1513 1.613 . S
N1514 C1517 1.350 . S
N1515 S1513 1.610 . S
N1515 C1516 1.351 . S
C1516 C1510 1.428 . S
C1516 N1515 1.351 . S
C1516 C1517 1.434 . S
C1517 C1508 1.429 . S
C1517 N1514 1.350 . S
C1517 C1516 1.434 . S
C1518 C1519 1.369 . S
C1518 C1520 1.419 . S
C1518 H1522 0.930 . S
C1519 C1518 1.369 . S
C1519 C1528 1.429 . S
C1520 C1518 1.419 . S
C1520 C1521 1.363 . S
C1520 H1523 0.929 . S
C1521 C1520 1.363 . S
C1521 C1527 1.428 . S
H1522 C1518 0.930 . S
H1523 C1520 0.929 . S
S1524 N1525 1.613 . S
S1524 N1526 1.610 . S
N1525 S1524 1.613 . S
N1525 C1528 1.350 . S
N1526 S1524 1.610 . S
N1526 C1527 1.351 . S
C1527 C1521 1.428 . S
C1527 N1526 1.351 . S
C1527 C1528 1.434 . S
C1528 C1519 1.429 . S
C1528 N1525 1.350 . S
C1528 C1527 1.434 . S
C1529 C1530 1.369 . S
C1529 C1531 1.419 . S
C1529 H1533 0.930 . S
C1530 C1529 1.369 . S
C1530 C1539 1.429 . S
C1531 C1529 1.419 . S
C1531 C1532 1.363 . S
C1531 H1534 0.929 . S
C1532 C1531 1.363 . S
C1532 C1538 1.428 . S
H1533 C1529 0.930 . S
H1534 C1531 0.929 . S
S1535 N1536 1.613 . S
S1535 N1537 1.610 . S
N1536 S1535 1.613 . S
N1536 C1539 1.350 . S
N1537 S1535 1.610 . S
N1537 C1538 1.351 . S
C1538 C1532 1.428 . S
C1538 N1537 1.351 . S
C1538 C1539 1.434 . S
C1539 C1530 1.429 . S
C1539 N1536 1.350 . S
C1539 C1538 1.434 . S
C1540 C1541 1.369 . S
C1540 C1542 1.419 . S
C1540 H1544 0.930 . S
C1541 C1540 1.369 . S
C1541 C1550 1.429 . S
C1542 C1540 1.419 . S
C1542 C1543 1.363 . S
C1542 H1545 0.929 . S
C1543 C1542 1.363 . S
C1543 C1549 1.428 . S
H1544 C1540 0.930 . S
H1545 C1542 0.929 . S
S1546 N1547 1.613 . S
S1546 N1548 1.610 . S
N1547 S1546 1.613 . S
N1547 C1550 1.350 . S
N1548 S1546 1.610 . S
N1548 C1549 1.351 . S
C1549 C1543 1.428 . S
C1549 N1548 1.351 . S
C1549 C1550 1.434 . S
C1550 C1541 1.429 . S
C1550 N1547 1.350 . S
C1550 C1549 1.434 . S
C1551 C1552 1.369 . S
C1551 C1553 1.419 . S
C1551 H1555 0.930 . S
C1552 C1551 1.369 . S
C1552 C1561 1.429 . S
C1553 C1551 1.419 . S
C1553 C1554 1.363 . S
C1553 H1556 0.929 . S
C1554 C1553 1.363 . S
C1554 C1560 1.428 . S
H1555 C1551 0.930 . S
H1556 C1553 0.929 . S
S1557 N1558 1.613 . S
S1557 N1559 1.610 . S
N1558 S1557 1.613 . S
N1558 C1561 1.350 . S
N1559 S1557 1.610 . S
N1559 C1560 1.351 . S
C1560 C1554 1.428 . S
C1560 N1559 1.351 . S
C1560 C1561 1.434 . S
C1561 C1552 1.429 . S
C1561 N1558 1.350 . S
C1561 C1560 1.434 . S
C1562 C1563 1.369 . S
C1562 C1564 1.419 . S
C1562 H1566 0.930 . S
C1563 C1562 1.369 . S
C1563 C1572 1.429 . S
C1564 C1562 1.419 . S
C1564 C1565 1.363 . S
C1564 H1567 0.929 . S
C1565 C1564 1.363 . S
C1565 C1571 1.428 . S
H1566 C1562 0.930 . S
H1567 C1564 0.929 . S
S1568 N1569 1.613 . S
S1568 N1570 1.610 . S
N1569 S1568 1.613 . S
N1569 C1572 1.350 . S
N1570 S1568 1.610 . S
N1570 C1571 1.351 . S
C1571 C1565 1.428 . S
C1571 N1570 1.351 . S
C1571 C1572 1.434 . S
C1572 C1563 1.429 . S
C1572 N1569 1.350 . S
C1572 C1571 1.434 . S
C1573 C1574 1.369 . S
C1573 C1575 1.419 . S
C1573 H1577 0.930 . S
C1574 C1573 1.369 . S
C1574 C1583 1.429 1_455 S
C1575 C1573 1.419 . S
C1575 C1576 1.363 . S
C1575 H1578 0.929 . S
C1576 C1575 1.363 . S
C1576 C1582 1.428 . S
H1577 C1573 0.930 . S
H1578 C1575 0.929 . S
S1579 N1580 1.613 . S
S1579 N1581 1.624 . S
N1580 S1579 1.613 . S
N1580 C1583 1.350 . S
N1581 S1579 1.624 . S
N1581 C1582 1.342 1_655 S
C1582 C1576 1.428 . S
C1582 N1581 1.342 1_455 S
C1582 C1583 1.434 1_455 S
C1583 C1574 1.429 1_655 S
C1583 N1580 1.350 . S
C1583 C1582 1.434 1_655 S
C1584 C1585 1.369 . S
C1584 C1586 1.419 . S
C1584 H1588 0.930 . S
C1585 C1584 1.369 . S
C1585 C1594 1.429 . S
C1586 C1584 1.419 . S
C1586 C1587 1.363 . S
C1586 H1589 0.929 . S
C1587 C1586 1.363 . S
C1587 C1593 1.428 . S
H1588 C1584 0.930 . S
H1589 C1586 0.929 . S
S1590 N1591 1.613 . S
S1590 N1592 1.610 . S
N1591 S1590 1.613 . S
N1591 C1594 1.350 . S
N1592 S1590 1.610 . S
N1592 C1593 1.351 . S
C1593 C1587 1.428 . S
C1593 N1592 1.351 . S
C1593 C1594 1.434 . S
C1594 C1585 1.429 . S
C1594 N1591 1.350 . S
C1594 C1593 1.434 . S
C1595 C1596 1.369 . S
C1595 C1597 1.419 . S
C1595 H1599 0.930 . S
C1596 C1595 1.369 . S
C1596 C1605 1.429 1_655 S
C1597 C1595 1.419 . S
C1597 C1598 1.363 . S
C1597 H1600 0.929 . S
C1598 C1597 1.363 . S
C1598 C1604 1.428 1_655 S
H1599 C1595 0.930 . S
H1600 C1597 0.929 . S
S1601 N1602 1.613 . S
S1601 N1603 1.610 1_554 S
N1602 S1601 1.613 . S
N1602 C1605 1.350 . S
N1603 S1601 1.610 1_556 S
N1603 C1604 1.351 1_556 S
C1604 C1598 1.428 1_455 S
C1604 N1603 1.351 1_554 S
C1604 C1605 1.434 . S
C1605 C1596 1.429 1_455 S
C1605 N1602 1.350 . S
C1605 C1604 1.434 . S
C1606 C1607 1.369 . S
C1606 C1608 1.419 . S
C1606 H1610 0.930 . S
C1607 C1606 1.369 . S
C1607 C1616 1.429 . S
C1608 C1606 1.419 . S
C1608 C1609 1.363 . S
C1608 H1611 0.929 . S
C1609 C1608 1.363 . S
C1609 C1615 1.428 . S
H1610 C1606 0.930 . S
H1611 C1608 0.929 . S
S1612 N1613 1.613 . S
S1612 N1614 1.610 . S
N1613 S1612 1.613 . S
N1613 C1616 1.350 . S
N1614 S1612 1.610 . S
N1614 C1615 1.351 . S
C1615 C1609 1.428 . S
C1615 N1614 1.351 . S
C1615 C1616 1.434 . S
C1616 C1607 1.429 . S
C1616 N1613 1.350 . S
C1616 C1615 1.434 . S
C1617 C1618 1.369 . S
C1617 C1619 1.419 . S
C1617 H1621 0.930 1_455 S
C1618 C1617 1.369 . S
C1618 C1627 1.429 1_554 S
C1619 C1617 1.419 . S
C1619 C1620 1.363 1_554 S
C1619 H1622 0.929 1_455 S
C1620 C1619 1.363 1_556 S
C1620 C1626 1.428 . S
H1621 C1617 0.930 1_655 S
H1622 C1619 0.929 1_655 S
S1623 N1624 1.613 . S
S1623 N1625 1.610 . S
N1624 S1623 1.613 . S
N1624 C1627 1.350 . S
N1625 S1623 1.610 . S
N1625 C1626 1.351 . S
C1626 C1620 1.428 . S
C1626 N1625 1.351 . S
C1626 C1627 1.434 . S
C1627 C1618 1.429 1_556 S
C1627 N1624 1.350 . S
C1627 C1626 1.434 . S
C1628 C1629 1.369 . S
C1628 C1630 1.419 . S
C1628 H1632 0.930 . S
C1629 C1628 1.369 . S
C1629 C1638 1.429 . S
C1630 C1628 1.419 . S
C1630 C1631 1.363 . S
C1630 H1633 0.929 . S
C1631 C1630 1.363 . S
C1631 C1637 1.428 . S
H1632 C1628 0.930 . S
H1633 C1630 0.929 . S
S1634 N1635 1.613 . S
S1634 N1636 1.610 . S
N1635 S1634 1.613 . S
N1635 C1638 1.350 . S
N1636 S1634 1.610 . S
N1636 C1637 1.351 . S
C1637 C1631 1.428 . S
C1637 N1636 1.351 . S
C1637 C1638 1.434 . S
C1638 C1629 1.429 . S
C1638 N1635 1.350 . S
C1638 C1637 1.434 . S
C1639 C1640 1.369 . S
C1639 C1641 1.419 . S
C1639 H1643 0.930 . S
C1640 C1639 1.369 . S
C1640 C1649 1.429 . S
C1641 C1639 1.419 . S
C1641 C1642 1.363 . S
C1641 H1644 0.929 . S
C1642 C1641 1.363 . S
C1642 C1648 1.428 . S
H1643 C1639 0.930 . S
H1644 C1641 0.929 . S
S1645 N1646 1.613 . S
S1645 N1647 1.610 . S
N1646 S1645 1.613 . S
N1646 C1649 1.350 . S
N1647 S1645 1.610 . S
N1647 C1648 1.351 . S
C1648 C1642 1.428 . S
C1648 N1647 1.351 . S
C1648 C1649 1.434 . S
C1649 C1640 1.429 . S
C1649 N1646 1.350 . S
C1649 C1648 1.434 . S
C1650 C1651 1.369 . S
C1650 C1652 1.419 . S
C1650 H1654 0.930 . S
C1651 C1650 1.369 . S
C1651 C1660 1.429 . S
C1652 C1650 1.419 . S
C1652 C1653 1.363 . S
C1652 H1655 0.929 . S
C1653 C1652 1.363 . S
C1653 C1659 1.428 . S
H1654 C1650 0.930 . S
H1655 C1652 0.929 . S
S1656 N1657 1.613 . S
S1656 N1658 1.610 . S
N1657 S1656 1.613 . S
N1657 C1660 1.350 . S
N1658 S1656 1.610 . S
N1658 C1659 1.351 . S
C1659 C1653 1.428 . S
C1659 N1658 1.351 . S
C1659 C1660 1.434 . S
C1660 C1651 1.429 . S
C1660 N1657 1.350 . S
C1660 C1659 1.434 . S
C1661 C1662 1.369 . S
C1661 C1663 1.419 . S
C1661 H1665 0.930 . S
C1662 C1661 1.369 . S
C1662 C1671 1.429 . S
C1663 C1661 1.419 . S
C1663 C1664 1.363 . S
C1663 H1666 0.929 . S
C1664 C1663 1.363 . S
C1664 C1670 1.428 . S
H1665 C1661 0.930 . S
H1666 C1663 0.929 . S
S1667 N1668 1.613 . S
S1667 N1669 1.610 . S
N1668 S1667 1.613 . S
N1668 C1671 1.350 . S
N1669 S1667 1.610 . S
N1669 C1670 1.351 . S
C1670 C1664 1.428 . S
C1670 N1669 1.351 . S
C1670 C1671 1.434 . S
C1671 C1662 1.429 . S
C1671 N1668 1.350 . S
C1671 C1670 1.434 . S
C1672 C1673 1.369 . S
C1672 C1674 1.419 . S
C1672 H1676 0.930 . S
C1673 C1672 1.369 . S
C1673 C1682 1.429 . S
C1674 C1672 1.419 . S
C1674 C1675 1.363 . S
C1674 H1677 0.929 . S
C1675 C1674 1.363 . S
C1675 C1681 1.428 . S
H1676 C1672 0.930 . S
H1677 C1674 0.929 . S
S1678 N1679 1.613 . S
S1678 N1680 1.610 . S
N1679 S1678 1.613 . S
N1679 C1682 1.350 . S
N1680 S1678 1.610 . S
N1680 C1681 1.351 . S
C1681 C1675 1.428 . S
C1681 N1680 1.351 . S
C1681 C1682 1.434 . S
C1682 C1673 1.429 . S
C1682 N1679 1.350 . S
C1682 C1681 1.434 . S
C1683 C1684 1.369 . S
C1683 C1685 1.419 . S
C1683 H1687 0.930 . S
C1684 C1683 1.369 . S
C1684 C1693 1.429 . S
C1685 C1683 1.419 . S
C1685 C1686 1.363 . S
C1685 H1688 0.929 . S
C1686 C1685 1.363 . S
C1686 C1692 1.428 . S
H1687 C1683 0.930 . S
H1688 C1685 0.929 . S
S1689 N1690 1.613 . S
S1689 N1691 1.610 . S
N1690 S1689 1.613 . S
N1690 C1693 1.350 . S
N1691 S1689 1.610 . S
N1691 C1692 1.351 . S
C1692 C1686 1.428 . S
C1692 N1691 1.351 . S
C1692 C1693 1.434 . S
C1693 C1684 1.429 . S
C1693 N1690 1.350 . S
C1693 C1692 1.434 . S
C1694 C1695 1.369 . S
C1694 C1696 1.419 . S
C1694 H1698 0.930 . S
C1695 C1694 1.369 . S
C1695 C1704 1.429 . S
C1696 C1694 1.419 . S
C1696 C1697 1.363 . S
C1696 H1699 0.929 . S
C1697 C1696 1.363 . S
C1697 C1703 1.428 . S
H1698 C1694 0.930 . S
H1699 C1696 0.929 . S
S1700 N1701 1.613 . S
S1700 N1702 1.610 . S
N1701 S1700 1.613 . S
N1701 C1704 1.350 . S
N1702 S1700 1.610 . S
N1702 C1703 1.351 . S
C1703 C1697 1.428 . S
C1703 N1702 1.351 . S
C1703 C1704 1.434 . S
C1704 C1695 1.429 . S
C1704 N1701 1.350 . S
C1704 C1703 1.434 . S
C1705 C1706 1.369 . S
C1705 C1707 1.419 . S
C1705 H1709 0.930 . S
C1706 C1705 1.369 . S
C1706 C1715 1.429 . S
C1707 C1705 1.419 . S
C1707 C1708 1.363 . S
C1707 H1710 0.929 . S
C1708 C1707 1.363 . S
C1708 C1714 1.428 . S
H1709 C1705 0.930 . S
H1710 C1707 0.929 . S
S1711 N1712 1.613 . S
S1711 N1713 1.610 . S
N1712 S1711 1.613 . S
N1712 C1715 1.350 . S
N1713 S1711 1.610 . S
N1713 C1714 1.351 . S
C1714 C1708 1.428 . S
C1714 N1713 1.351 . S
C1714 C1715 1.434 . S
C1715 C1706 1.429 . S
C1715 N1712 1.350 . S
C1715 C1714 1.434 . S
C1716 C1717 1.369 . S
C1716 C1718 1.419 . S
C1716 H1720 0.930 . S
C1717 C1716 1.369 . S
C1717 C1726 1.429 . S
C1718 C1716 1.419 . S
C1718 C1719 1.363 . S
C1718 H1721 0.929 . S
C1719 C1718 1.363 . S
C1719 C1725 1.428 . S
H1720 C1716 0.930 . S
H1721 C1718 0.929 . S
S1722 N1723 1.613 . S
S1722 N1724 1.610 . S
N1723 S1722 1.613 . S
N1723 C1726 1.350 . S
N1724 S1722 1.610 . S
N1724 C1725 1.351 . S
C1725 C1719 1.428 . S
C1725 N1724 1.351 . S
C1725 C1726 1.434 . S
C1726 C1717 1.429 . S
C1726 N1723 1.350 . S
C1726 C1725 1.434 . S
C1727 C1728 1.369 . S
C1727 C1729 1.419 . S
C1727 H1731 0.930 . S
C1728 C1727 1.369 . S
C1728 C1737 1.429 . S
C1729 C1727 1.419 . S
C1729 C1730 1.363 . S
C1729 H1732 0.929 . S
C1730 C1729 1.363 . S
C1730 C1736 1.428 . S
H1731 C1727 0.930 . S
H1732 C1729 0.929 . S
S1733 N1734 1.613 . S
S1733 N1735 1.610 . S
N1734 S1733 1.613 . S
N1734 C1737 1.350 . S
N1735 S1733 1.610 . S
N1735 C1736 1.351 . S
C1736 C1730 1.428 . S
C1736 N1735 1.351 . S
C1736 C1737 1.434 . S
C1737 C1728 1.429 . S
C1737 N1734 1.350 . S
C1737 C1736 1.434 . S
C1738 C1739 1.369 . S
C1738 C1740 1.419 . S
C1738 H1742 0.930 . S
C1739 C1738 1.369 . S
C1739 C1748 1.429 . S
C1740 C1738 1.419 . S
C1740 C1741 1.363 . S
C1740 H1743 0.929 . S
C1741 C1740 1.363 . S
C1741 C1747 1.428 . S
H1742 C1738 0.930 . S
H1743 C1740 0.929 . S
S1744 N1745 1.613 . S
S1744 N1746 1.610 . S
N1745 S1744 1.613 . S
N1745 C1748 1.350 . S
N1746 S1744 1.610 . S
N1746 C1747 1.351 . S
C1747 C1741 1.428 . S
C1747 N1746 1.351 . S
C1747 C1748 1.434 . S
C1748 C1739 1.429 . S
C1748 N1745 1.350 . S
C1748 C1747 1.434 . S
C1749 C1750 1.369 . S
C1749 C1751 1.419 . S
C1749 H1753 0.930 . S
C1750 C1749 1.369 . S
C1750 C1759 1.429 1_554 S
C1751 C1749 1.419 . S
C1751 C1752 1.363 . S
C1751 H1754 0.929 . S
C1752 C1751 1.363 . S
C1752 C1758 1.428 1_554 S
H1753 C1749 0.930 . S
H1754 C1751 0.929 . S
S1755 N1756 1.613 . S
S1755 N1757 1.610 . S
N1756 S1755 1.613 . S
N1756 C1759 1.350 . S
N1757 S1755 1.610 . S
N1757 C1758 1.351 . S
C1758 C1752 1.428 1_556 S
C1758 N1757 1.351 . S
C1758 C1759 1.434 . S
C1759 C1750 1.429 1_556 S
C1759 N1756 1.350 . S
C1759 C1758 1.434 . S
C1235 C225 1.288 . S
C1233 C62 1.231 . S
C1246 C284 1.600 . S
C1244 C73 1.522 . S
C1255 C84 1.494 . S
C1257 C401 1.550 . S
C1268 C469 1.280 . S
C1266 C49 1.120 1_655 S
C1279 C548 1.375 . S
C1277 C118 1.373 . S
C1290 C673 1.649 . S
C1288 C137 1.380 . S
C1299 C129 1.577 . S
C1301 C733 1.592 . S
C1312 C841 1.891 . S
C1310 C106 1.861 . S
C1321 C128 1.808 . S
C1323 C937 1.875 . S
C1334 C997 1.665 . S
C1332 C104 1.500 . S
C1343 C115 1.591 . S
C1345 C900 1.822 . S
C1356 C1017 1.816 . S
C1354 C139 1.731 . S
C1365 C85 1.577 . S
C1367 C1085 1.568 . S
C1376 C52 1.228 . S
C1378 C1076 1.227 . S
C1387 C60 0.901 . S
C1389 C1105 1.054 . S
C1398 C71 1.512 . S
C1400 C1113 1.598 . S
C1409 C40 1.691 . S
C1411 C497 1.760 . S
C1420 C162 1.156 . S
C1422 C460 1.183 . S
C1433 C196 1.168 1_556 S
C1431 C173 1.176 . S
C1444 C293 1.758 . S
C1442 C93 1.607 . S
C1453 C51 1.487 . S
C1455 C557 1.504 . S
C1466 C849 1.527 . S
C1464 C126 1.321 . S
C1477 C577 1.763 . S
C1475 C107 1.751 . S
C1488 C761 1.608 . S
C1486 C140 1.592 . S
C1499 C753 1.288 . S
C1497 C161 1.232 . S
C1508 C172 1.528 . S
C1510 C821 1.596 . S
C1519 C95 1.494 . S
C1521 C585 1.550 . S
C1532 C636 1.278 . S
C1530 C148 1.136 . S
C1541 C41 1.371 . S
C1543 C381 1.374 . S
C1554 C489 1.648 . S
C1552 C5 1.378 . S
C1565 C205 1.592 . S
C1563 C19 1.577 . S
C1576 C321 1.891 . S
C1574 C29 1.863 1_455 S
C1585 C18 1.808 . S
C1587 C1025 1.875 . S
C1596 C27 1.489 . S
C1598 C909 1.663 1_654 S
C1607 C38 1.601 . S
C1609 C988 1.821 . S
C1618 C7 1.723 . S
C1620 C929 1.818 . S
C1631 C1173 1.568 . S
C1629 C96 1.577 . S
C1642 C1164 1.228 . S
C1640 C151 1.230 . S
C1653 C1193 1.052 . S
C1651 C159 0.924 . S
C1662 C170 1.514 . S
C1664 C1201 1.602 . S
C1673 C117 1.683 . S
C1675 C665 1.761 . S
C1686 C645 1.181 . S
C1684 C63 1.163 . S
C1697 C724 1.169 . S
C1695 C74 1.176 . S
C1708 C812 1.756 . S
C1706 C82 1.607 . S
C1717 C150 1.487 . S
C1719 C372 1.504 . S
C1730 C313 1.526 . S
C1728 C16 1.332 . S
C1739 C30 1.754 . S
C1741 C409 1.762 . S
C1752 C233 1.608 . S
C1750 C8 1.594 . S
