# Generated by pormake.
# Topology zzz, (3,6)-cn, num edge types: 1
# Building blocks:
#     Node 0, Type 0, BuildingBlock: WUSLED_clean_sbu_0, # of connection points: 3
#     Node 1, Type 0, BuildingBlock: WUSLED_clean_sbu_0, # of connection points: 3
#     Node 2, Type 0, BuildingBlock: WUSLED_clean_sbu_0, # of connection points: 3
#     Node 3, Type 0, BuildingBlock: WUSLED_clean_sbu_0, # of connection points: 3
#     Node 4, Type 0, BuildingBlock: WUSLED_clean_sbu_0, # of connection points: 3
#     Node 5, Type 0, BuildingBlock: WUSLED_clean_sbu_0, # of connection points: 3
#     Node 6, Type 0, BuildingBlock: WUSLED_clean_sbu_0, # of connection points: 3
#     Node 7, Type 0, BuildingBlock: WUSLED_clean_sbu_0, # of connection points: 3
#     Node 8, Type 1, BuildingBlock: JUFBIX_clean_sbu_0, # of connection points: 6
#     Node 9, Type 1, BuildingBlock: JUFBIX_clean_sbu_0, # of connection points: 6
#     Node 10, Type 1, BuildingBlock: JUFBIX_clean_sbu_0, # of connection points: 6
#     Node 11, Type 1, BuildingBlock: JUFBIX_clean_sbu_0, # of connection points: 6
#     Edge 12, Type (0, 1), BuildingBlock: XIVTED_clean_linker_0, # of connection points: 2
#     Edge 13, Type (0, 1), BuildingBlock: XIVTED_clean_linker_0, # of connection points: 2
#     Edge 14, Type (0, 1), BuildingBlock: XIVTED_clean_linker_0, # of connection points: 2
#     Edge 15, Type (0, 1), BuildingBlock: XIVTED_clean_linker_0, # of connection points: 2
#     Edge 16, Type (0, 1), BuildingBlock: XIVTED_clean_linker_0, # of connection points: 2
#     Edge 17, Type (0, 1), BuildingBlock: XIVTED_clean_linker_0, # of connection points: 2
#     Edge 18, Type (0, 1), BuildingBlock: XIVTED_clean_linker_0, # of connection points: 2
#     Edge 19, Type (0, 1), BuildingBlock: XIVTED_clean_linker_0, # of connection points: 2
#     Edge 20, Type (0, 1), BuildingBlock: XIVTED_clean_linker_0, # of connection points: 2
#     Edge 21, Type (0, 1), BuildingBlock: XIVTED_clean_linker_0, # of connection points: 2
#     Edge 22, Type (0, 1), BuildingBlock: XIVTED_clean_linker_0, # of connection points: 2
#     Edge 23, Type (0, 1), BuildingBlock: XIVTED_clean_linker_0, # of connection points: 2
#     Edge 24, Type (0, 1), BuildingBlock: XIVTED_clean_linker_0, # of connection points: 2
#     Edge 25, Type (0, 1), BuildingBlock: XIVTED_clean_linker_0, # of connection points: 2
#     Edge 26, Type (0, 1), BuildingBlock: XIVTED_clean_linker_0, # of connection points: 2
#     Edge 27, Type (0, 1), BuildingBlock: XIVTED_clean_linker_0, # of connection points: 2
#     Edge 28, Type (0, 1), BuildingBlock: XIVTED_clean_linker_0, # of connection points: 2
#     Edge 29, Type (0, 1), BuildingBlock: XIVTED_clean_linker_0, # of connection points: 2
#     Edge 30, Type (0, 1), BuildingBlock: XIVTED_clean_linker_0, # of connection points: 2
#     Edge 31, Type (0, 1), BuildingBlock: XIVTED_clean_linker_0, # of connection points: 2
#     Edge 32, Type (0, 1), BuildingBlock: XIVTED_clean_linker_0, # of connection points: 2
#     Edge 33, Type (0, 1), BuildingBlock: XIVTED_clean_linker_0, # of connection points: 2
#     Edge 34, Type (0, 1), BuildingBlock: XIVTED_clean_linker_0, # of connection points: 2
#     Edge 35, Type (0, 1), BuildingBlock: XIVTED_clean_linker_0, # of connection points: 2
# Relax obj value: 0.275
# Max RMSD: 0.214
# Mean RMSD: 0.182
data_MOF--net-zzz--node1-WUSLED_clean_sbu_0--node2-JUFBIX_clean_sbu_0--edge1-XIVTED_clean_linker_0
_symmetry_space_group_name_H-M    P1
_symmetry_Int_Tables_number       1
_symmetry_cell_setting            triclinic
loop_
_symmetry_equiv_pos_as_xyz
'x, y, z'
_cell_length_a     61.088131
_cell_length_b     64.365444
_cell_length_c     24.295077
_cell_angle_alpha  82.906117
_cell_angle_beta   90.34689
_cell_angle_gamma 87.152684
loop_
_atom_site_label
_atom_site_type_symbol
_atom_site_fract_x
_atom_site_fract_y
_atom_site_fract_z
_atom_type_partial_charge
C0 C 0.82909 0.57812 0.35167 0.0
C1 C 0.85072 0.57821 0.33211 0.0
C2 C 0.86484 0.57143 0.42697 0.0
C3 C 0.8685 0.57495 0.3696 0.0
C4 C 0.84323 0.57193 0.44629 0.0
C5 C 0.82552 0.57536 0.40896 0.0
U6 U 0.80374 0.5881 0.20579 0.0
O7 O 0.78139 0.56844 0.16587 0.0
O8 O 0.77087 0.60122 0.17665 0.0
C9 C 0.76574 0.58334 0.1602 0.0
C10 C 0.81012 0.57916 0.31333 0.0
C11 C 0.74647 0.5818 0.12434 0.0
C12 C 0.70805 0.5741 0.11898 0.0
C13 C 0.72653 0.57737 0.15017 0.0
C14 C 0.72887 0.58037 0.0346 0.0
C15 C 0.70899 0.57512 0.06087 0.0
C16 C 0.74755 0.58357 0.0662 0.0
C17 C 0.84418 0.60409 0.08855 0.0
C18 C 0.84116 0.59536 0.99474 0.0
C19 C 0.87532 0.60724 0.02796 0.0
C20 C 0.86563 0.60995 0.07839 0.0
C21 C 0.86363 0.59851 0.98702 0.0
C22 C 0.8315 0.59797 0.04559 0.0
C23 C 0.83751 0.6 0.14627 0.0
O24 O 0.80339 0.5979 0.28975 0.0
O25 O 0.81078 0.565 0.27877 0.0
O26 O 0.83376 0.58031 0.16278 0.0
O27 O 0.82322 0.6134 0.16454 0.0
H28 H 0.85382 0.58016 0.28795 0.0
H29 H 0.88504 0.57433 0.35382 0.0
H30 H 0.84006 0.56915 0.49035 0.0
H31 H 0.80898 0.57519 0.42482 0.0
H32 H 0.69301 0.57049 0.14066 0.0
H33 H 0.72536 0.57598 0.19496 0.0
H34 H 0.7302 0.58123 0.98996 0.0
H35 H 0.76284 0.58701 0.04545 0.0
H36 H 0.83165 0.58901 0.96356 0.0
H37 H 0.89267 0.60972 0.02401 0.0
H38 H 0.87563 0.61461 0.11135 0.0
H39 H 0.81482 0.59345 0.05299 0.0
C40 C 0.01574 0.79934 0.3467 0.0
C41 C 0.01956 0.81972 0.32234 0.0
C42 C 0.01266 0.83302 0.41058 0.0
C43 C 0.0181 0.83641 0.35404 0.0
C44 C 1.00931 0.81244 0.43493 0.0
C45 C 0.01082 0.79575 0.40315 0.0
U46 U 0.01622 0.7804 0.20556 0.0
O47 O 0.03196 0.75177 0.17918 0.0
O48 O 0.99595 0.75725 0.17282 0.0
C49 C 0.01303 0.74447 0.16707 0.0
C50 C 0.01542 0.78205 0.31277 0.0
C51 C 0.01228 0.72975 0.12555 0.0
C52 C 0.01577 0.69336 0.10875 0.0
C53 C 0.01679 0.70855 0.14465 0.0
C54 C 1.00594 0.72043 0.03298 0.0
C55 C 0.01041 0.69906 0.05254 0.0
C56 C 1.00669 0.73574 0.06947 0.0
C57 C 0.01954 0.82437 0.08266 0.0
C58 C 1.00399 0.82696 0.98961 0.0
C59 C 0.02715 0.85386 0.01557 0.0
C60 C 0.03003 0.84305 0.06835 0.0
C61 C 0.01376 0.84611 0.97639 0.0
C62 C 1.00703 0.81598 0.04273 0.0
C63 C 0.01961 0.81574 0.14112 0.0
O64 O 0.99765 0.78202 0.28211 0.0
O65 O 0.03354 0.77844 0.28585 0.0
O66 O 0.03677 0.80369 0.15955 0.0
O67 O 1.00085 0.80894 0.16025 0.0
H68 H 0.02332 0.82275 0.27862 0.0
H69 H 0.02114 0.85199 0.33419 0.0
H70 H 1.00487 0.8093 0.47812 0.0
H71 H 1.00767 0.7801 0.42237 0.0
H72 H 0.01962 0.67713 0.12484 0.0
H73 H 0.02109 0.70367 0.18783 0.0
H74 H 1.00173 0.7252 0.98974 0.0
H75 H 1.003 0.75207 0.05408 0.0
H76 H 0.99333 0.82106 0.95998 0.0
H77 H 0.03426 0.86899 0.00633 0.0
H78 H 0.03945 0.84988 0.09889 0.0
H79 H 0.99874 0.80157 0.0535 0.0
C80 C 0.72148 0.94875 0.31619 0.0
C81 C 0.70036 0.95378 0.29365 0.0
C82 C 0.68472 0.95157 0.38657 0.0
C83 C 0.68224 0.95528 0.32835 0.0
C84 C 0.70589 0.94592 0.40873 0.0
C85 C 0.72403 0.94458 0.37393 0.0
U86 U 0.74483 0.94324 0.17484 0.0
O87 O 0.7681 0.96259 0.12434 0.0
O88 O 0.77508 0.92817 0.14521 0.0
C89 C 0.78128 0.94613 0.11979 0.0
C90 C 0.74086 0.9484 0.27984 0.0
C91 C 0.80175 0.94765 0.08828 0.0
C92 C 0.83897 0.95909 0.07922 0.0
C93 C 0.81959 0.95716 0.1093 0.0
C94 C 0.82281 0.94224 0.00608 0.0
C95 C 0.84085 0.95168 0.02717 0.0
C96 C 0.80345 0.94015 0.03656 0.0
C97 C 0.69771 0.93232 0.07419 0.0
C98 C 0.69677 0.93161 0.97458 0.0
C99 C 0.66329 0.92928 0.0278 0.0
C100 C 0.67513 0.93023 0.07607 0.0
C101 C 0.67382 0.93051 0.97626 0.0
C102 C 0.70875 0.93247 0.02363 0.0
C103 C 0.70836 0.93586 0.12574 0.0
O104 O 0.74655 0.93021 0.26334 0.0
O105 O 0.74124 0.96406 0.23971 0.0
O106 O 0.71484 0.95486 0.1286 0.0
O107 O 0.72187 0.92086 0.1495 0.0
H108 H 0.69791 0.95695 0.24912 0.0
H109 H 0.66638 0.95989 0.30936 0.0
H110 H 0.7085 0.9425 0.45309 0.0
H111 H 0.74013 0.94047 0.39219 0.0
H112 H 0.85237 0.96672 0.0964 0.0
H113 H 0.81851 0.96312 0.14905 0.0
H114 H 0.82373 0.93625 0.96637 0.0
H115 H 0.78975 0.93286 0.01956 0.0
H116 H 0.70519 0.93285 0.93529 0.0
H117 H 0.6456 0.92924 0.03071 0.0
H118 H 0.66641 0.93035 0.11479 0.0
H119 H 0.7263 0.93411 0.02185 0.0
C120 C 0.48468 0.69658 0.31847 0.0
C121 C 0.48743 0.67668 0.30062 0.0
C122 C 0.4902 0.66031 0.39725 0.0
C123 C 0.49019 0.65866 0.33982 0.0
C124 C 0.48719 0.68034 0.41431 0.0
C125 C 0.48445 0.69817 0.37545 0.0
U126 U 0.4807 0.73809 0.18136 0.0
O127 O 0.49913 0.7667 0.17528 0.0
O128 O 0.46322 0.76908 0.17826 0.0
C129 C 0.48136 0.77917 0.17118 0.0
C130 C 0.48338 0.71635 0.28038 0.0
C131 C 0.48112 0.79683 0.12621 0.0
C132 C 0.47632 0.83434 0.09886 0.0
C133 C 0.47443 0.81685 0.13836 0.0
C134 C 0.49075 0.81199 0.03305 0.0
C135 C 0.48513 0.83227 0.04625 0.0
C136 C 0.4888 0.7944 0.07279 0.0
C137 C 0.47695 0.70093 0.06663 0.0
C138 C 0.47105 0.68312 0.98604 0.0
C139 C 0.48092 0.66301 0.07457 0.0
C140 C 0.48145 0.68159 0.09894 0.0
C141 C 0.47585 0.66362 0.01771 0.0
C142 C 0.47166 0.70157 0.01032 0.0
C143 C 0.47797 0.72085 0.08943 0.0
O144 O 0.50058 0.72116 0.25008 0.0
O145 O 0.46457 0.7227 0.25572 0.0
O146 O 0.49671 0.72462 0.1122 0.0
O147 O 0.46071 0.72668 0.11687 0.0
H148 H 0.4877 0.67512 0.25675 0.0
H149 H 0.49225 0.64345 0.32524 0.0
H150 H 0.48748 0.68235 0.45791 0.0
H151 H 0.48258 0.71339 0.3901 0.0
H152 H 0.47128 0.84962 0.11005 0.0
H153 H 0.4683 0.81905 0.17911 0.0
H154 H 0.49754 0.80981 0.99297 0.0
H155 H 0.49391 0.77901 0.06244 0.0
H156 H 0.46675 0.68415 0.94244 0.0
H157 H 0.48494 0.64825 0.09991 0.0
H158 H 0.4856 0.6809 0.14257 0.0
H159 H 0.46811 0.71644 0.98491 0.0
C160 C 0.19385 0.43036 0.21522 0.0
C161 C 0.17221 0.4264 0.23159 0.0
C162 C 0.15855 0.43848 0.13761 0.0
C163 C 0.15473 0.43033 0.19306 0.0
C164 C 0.18036 0.4416 0.12128 0.0
C165 C 0.19774 0.43761 0.15958 0.0
U166 U 0.21488 0.41829 0.36403 0.0
O167 O 0.24592 0.40428 0.40327 0.0
O168 O 0.23481 0.43676 0.4144 0.0
C169 C 0.24914 0.421 0.42784 0.0
C170 C 0.21221 0.4287 0.25607 0.0
C171 C 0.27085 0.42464 0.45105 0.0
C172 C 0.30753 0.43778 0.44327 0.0
C173 C 0.28779 0.43323 0.4183 0.0
C174 C 0.29384 0.4246 0.53349 0.0
C175 C 0.31068 0.43377 0.50131 0.0
C176 C 0.27416 0.42017 0.50861 0.0
C177 C 0.17039 0.40189 0.46947 0.0
C178 C 0.17219 0.40815 0.56574 0.0
C179 C 0.13753 0.40134 0.52414 0.0
C180 C 0.1481 0.39846 0.47493 0.0
C181 C 0.14919 0.40771 0.5689 0.0
C182 C 0.18274 0.40554 0.51589 0.0
C183 C 0.1788 0.40629 0.41329 0.0
O184 O 0.21089 0.44242 0.29185 0.0
O185 O 0.21847 0.40972 0.27911 0.0
O186 O 0.19368 0.39297 0.39714 0.0
O187 O 0.18309 0.42599 0.39906 0.0
H188 H 0.16878 0.42087 0.27446 0.0
H189 H 0.13817 0.42783 0.20718 0.0
H190 H 0.18398 0.44752 0.07881 0.0
H191 H 0.21423 0.44076 0.14596 0.0
H192 H 0.32027 0.44469 0.41725 0.0
H193 H 0.28562 0.43675 0.37379 0.0
H194 H 0.29553 0.42159 0.57822 0.0
H195 H 0.26122 0.41366 0.53468 0.0
H196 H 0.18177 0.41238 0.59993 0.0
H197 H 0.11985 0.40086 0.52421 0.0
H198 H 0.13837 0.39567 0.43934 0.0
H199 H 0.20009 0.40812 0.51226 0.0
C200 C 0.02094 0.21712 0.21577 0.0
C201 C 0.02088 0.19637 0.24147 0.0
C202 C 0.02157 0.18347 0.1514 0.0
C203 C 0.02118 0.17973 0.20967 0.0
C204 C 0.02208 0.2043 0.12579 0.0
C205 C 0.02171 0.22101 0.15781 0.0
U206 U 0.02031 0.23249 0.35827 0.0
O207 O 0.03607 0.25742 0.39647 0.0
O208 O 0.99974 0.25506 0.39934 0.0
C209 C 0.01706 0.26479 0.4128 0.0
C210 C 0.01992 0.23445 0.25005 0.0
C211 C 0.01523 0.28301 0.44351 0.0
C212 C 0.01904 0.32016 0.44699 0.0
C213 C 0.02036 0.30279 0.41762 0.0
C214 C 1.00784 0.29796 0.52886 0.0
C215 C 0.01291 0.31791 0.50304 0.0
C216 C 1.00885 0.28066 0.49915 0.0
C217 C 0.02355 0.18477 0.47005 0.0
C218 C 0.0219 0.18574 0.56968 0.0
C219 C 0.01889 0.15294 0.53091 0.0
C220 C 0.02108 0.1632 0.47791 0.0
C221 C 0.01912 0.1641 0.57701 0.0
C222 C 0.02419 0.19612 0.51593 0.0
C223 C 0.02377 0.19489 0.41311 0.0
O224 O 1.00197 0.23567 0.2793 0.0
O225 O 0.03782 0.23627 0.279 0.0
O226 O 0.04085 0.20582 0.39851 0.0
O227 O 1.00499 0.20403 0.39473 0.0
H228 H 0.02042 0.19304 0.28626 0.0
H229 H 0.02113 0.16389 0.2308 0.0
H230 H 0.02223 0.2077 0.08102 0.0
H231 H 0.02179 0.23694 0.13736 0.0
H232 H 0.02315 0.33529 0.42611 0.0
H233 H 0.02535 0.30481 0.37464 0.0
H234 H 1.00285 0.2958 0.57181 0.0
H235 H 1.00489 0.26542 0.51975 0.0
H236 H 0.02189 0.1945 0.60497 0.0
H237 H 0.01634 0.13626 0.53594 0.0
H238 H 0.02026 0.15434 0.44284 0.0
H239 H 0.02593 0.21291 0.51 0.0
C240 C 0.30012 0.07819 0.24097 0.0
C241 C 0.32156 0.08246 0.25577 0.0
C242 C 0.33537 0.07163 0.16881 0.0
C243 C 0.33905 0.07932 0.2198 0.0
C244 C 0.31373 0.06796 0.15393 0.0
C245 C 0.29635 0.0712 0.18958 0.0
U246 U 0.27537 0.08664 0.38254 0.0
O247 O 0.24231 0.09887 0.40328 0.0
O248 O 0.25335 0.06589 0.43256 0.0
C249 C 0.23749 0.08057 0.42946 0.0
C250 C 0.28168 0.07912 0.27972 0.0
C251 C 0.21815 0.07818 0.46511 0.0
C252 C 0.18009 0.0692 0.47286 0.0
C253 C 0.19865 0.07302 0.44082 0.0
C254 C 0.19998 0.0763 0.55448 0.0
C255 C 0.18056 0.07042 0.53024 0.0
C256 C 0.21875 0.08005 0.52211 0.0
C257 C 0.31461 0.10036 0.49563 0.0
C258 C 0.31612 0.084 0.59092 0.0
C259 C 0.34543 0.10549 0.55424 0.0
C260 C 0.33408 0.11011 0.50402 0.0
C261 C 0.33742 0.09089 0.59628 0.0
C262 C 0.30475 0.08866 0.54054 0.0
C263 C 0.30857 0.09781 0.43863 0.0
O264 O 0.28259 0.06449 0.32249 0.0
O265 O 0.27527 0.09769 0.29279 0.0
O266 O 0.29424 0.11155 0.41254 0.0
O267 O 0.30549 0.07836 0.43051 0.0
H268 H 0.32484 0.0877 0.29558 0.0
H269 H 0.35551 0.08219 0.23275 0.0
H270 H 0.31021 0.06235 0.11474 0.0
H271 H 0.27995 0.06774 0.1775 0.0
H272 H 0.16538 0.06502 0.45264 0.0
H273 H 0.19788 0.07154 0.3969 0.0
H274 H 0.20087 0.07728 0.59862 0.0
H275 H 0.23371 0.08402 0.54161 0.0
H276 H 0.30938 0.07309 0.62318 0.0
H277 H 0.36175 0.11118 0.5569 0.0
H278 H 0.34183 0.11926 0.46977 0.0
H279 H 0.28954 0.08119 0.53478 0.0
C280 C 0.52269 0.31365 0.21881 0.0
C281 C 0.52165 0.33366 0.2363 0.0
C282 C 0.52075 0.3499 0.13998 0.0
C283 C 0.52069 0.35163 0.19724 0.0
C284 C 0.52215 0.32976 0.12292 0.0
C285 C 0.52311 0.31183 0.16199 0.0
U286 U 0.52645 0.28695 0.36774 0.0
O287 O 0.50778 0.26098 0.40875 0.0
O288 O 0.544 0.25735 0.40247 0.0
C289 C 0.52559 0.24865 0.41754 0.0
C290 C 0.52302 0.29459 0.25922 0.0
C291 C 0.52562 0.2293 0.45678 0.0
C292 C 0.52246 0.19159 0.46934 0.0
C293 C 0.52268 0.21054 0.43479 0.0
C294 C 0.52805 0.20981 0.54935 0.0
C295 C 0.52528 0.19086 0.52705 0.0
C296 C 0.52828 0.22895 0.51435 0.0
C297 C 0.53381 0.32535 0.4779 0.0
C298 C 0.52047 0.32916 0.57032 0.0
C299 C 0.55081 0.34913 0.53294 0.0
C300 C 0.54976 0.33975 0.48453 0.0
C301 C 0.53571 0.34449 0.57545 0.0
C302 C 0.5196 0.31951 0.5218 0.0
C303 C 0.53087 0.31911 0.42237 0.0
O304 O 0.54175 0.28954 0.28549 0.0
O305 O 0.50603 0.29292 0.29206 0.0
O306 O 0.51169 0.31235 0.41004 0.0
O307 O 0.54758 0.30884 0.40259 0.0
H308 H 0.52133 0.33536 0.28012 0.0
H309 H 0.51942 0.36686 0.2119 0.0
H310 H 0.52261 0.32782 0.07929 0.0
H311 H 0.52406 0.2965 0.14778 0.0
H312 H 0.51984 0.17747 0.45065 0.0
H313 H 0.52048 0.21054 0.39049 0.0
H314 H 0.53038 0.20979 0.59358 0.0
H315 H 0.53056 0.24334 0.53208 0.0
H316 H 0.50852 0.32554 0.60239 0.0
H317 H 0.56227 0.36135 0.53506 0.0
H318 H 0.56062 0.3447 0.45083 0.0
H319 H 0.50714 0.30841 0.51752 0.0
Co320 Co 0.01207 0.01892 0.8256 0.0
C321 C 0.97833 0.98781 0.8242 0.0
Co322 Co 0.0139 0.98923 0.74319 0.0
C323 C 0.02044 0.05228 0.89759 0.0
C324 C 0.98753 0.04245 0.89414 0.0
N325 N 1.00785 0.03872 0.87482 0.0
N326 N 1.00855 0.06383 0.93097 0.0
C327 C 0.98793 0.05765 0.92843 0.0
H328 H 0.03782 0.05352 0.89038 0.0
H329 H 0.973 0.03493 0.88308 0.0
C330 C 0.047 0.02073 0.73888 0.0
N331 N 1.00641 0.9813 0.6756 0.0
C332 C 1.0035 0.96136 0.66646 0.0
C333 C 1.00692 0.99232 0.62477 0.0
N334 N 1.00191 0.95948 0.6118 0.0
C335 C 1.00397 0.979 0.58556 0.0
C336 C 0.99042 0.03218 0.73181 0.0
O337 O 0.03891 0.02893 0.78241 0.0
O338 O 0.03884 0.00471 0.7184 0.0
O339 O 0.99784 0.01517 0.71671 0.0
O340 O 0.99509 0.0364 0.77893 0.0
O341 O 0.98697 0.98015 0.78124 0.0
H342 H 0.0105 0.00869 0.61658 0.0
H343 H 1.00346 0.94839 0.69937 0.0
O344 O 0.98636 0.00309 0.84731 0.0
O345 O 0.03013 0.00041 0.88301 0.0
O346 O 0.02346 0.99306 0.80416 0.0
C347 C 0.03085 0.98658 0.85098 0.0
H348 H 0.974 0.06397 0.94946 0.0
H349 H 1.00468 0.98317 0.54109 0.0
Co350 Co 0.50226 0.01493 0.81618 0.0
C351 C 0.50408 0.97099 0.81582 0.0
Co352 Co 0.51577 0.00347 0.73917 0.0
C353 C 0.47008 0.03381 0.88835 0.0
C354 C 0.49446 0.01319 0.93303 0.0
N355 N 0.4889 0.02226 0.88141 0.0
N356 N 0.46386 0.03209 0.94207 0.0
C357 C 0.47909 0.01907 0.97008 0.0
H358 H 0.46042 0.04221 0.85444 0.0
H359 H 0.50809 0.00193 0.94271 0.0
C360 C 0.5142 0.04747 0.74059 0.0
N361 N 0.5291 0.99607 0.67385 0.0
C362 C 0.54868 0.98589 0.66584 0.0
C363 C 0.52151 0.00278 0.62216 0.0
N364 N 0.55328 0.98587 0.61124 0.0
C365 C 0.53612 0.99651 0.58401 0.0
C366 C 0.4718 0.01236 0.73275 0.0
O367 O 0.50627 0.04367 0.78904 0.0
O368 O 0.51934 0.03226 0.71341 0.0
O369 O 0.48765 0.00557 0.70534 0.0
O370 O 0.47494 0.01698 0.78126 0.0
O371 O 0.51201 0.97441 0.76721 0.0
H372 H 0.50667 0.01245 0.61254 0.0
H373 H 0.55952 0.97897 0.69927 0.0
O374 O 0.49855 0.98644 0.84153 0.0
O375 O 0.53039 0.01243 0.8505 0.0
O376 O 0.54303 0.00193 0.77333 0.0
C377 C 0.54628 0.00621 0.82209 0.0
H378 H 0.47859 0.01349 0.01394 0.0
H379 H 0.53464 0.00031 0.53944 0.0
Co380 Co 0.52726 0.51014 0.78525 0.0
C381 C 0.50778 0.47739 0.85344 0.0
Co382 Co 0.49243 0.50481 0.76488 0.0
C383 C 0.5663 0.52829 0.83019 0.0
C384 C 0.57158 0.49654 0.81359 0.0
N385 N 0.55651 0.51275 0.80758 0.0
N386 N 0.58668 0.52215 0.85012 0.0
C387 C 0.58995 0.50222 0.83961 0.0
H388 H 0.55815 0.54322 0.83552 0.0
H389 H 0.56893 0.48101 0.80316 0.0
C390 C 0.51161 0.53763 0.69665 0.0
N391 N 0.46304 0.50232 0.74319 0.0
C392 C 0.45295 0.48761 0.71776 0.0
C393 C 0.44756 0.51797 0.74404 0.0
N394 N 0.43194 0.49374 0.70273 0.0
C395 C 0.42865 0.51274 0.71988 0.0
C396 C 0.49735 0.5338 0.83839 0.0
O397 O 0.52937 0.53193 0.72355 0.0
O398 O 0.49434 0.52788 0.70879 0.0
O399 O 0.4834 0.52358 0.81556 0.0
O400 O 0.51764 0.53058 0.83008 0.0
O401 O 0.49108 0.48167 0.82159 0.0
H402 H 0.45006 0.53283 0.75893 0.0
H403 H 0.46116 0.47327 0.70783 0.0
O404 O 0.52446 0.48849 0.84602 0.0
O405 O 0.53624 0.48928 0.73984 0.0
O406 O 0.50194 0.48632 0.71551 0.0
C407 C 0.52207 0.48064 0.713 0.0
H408 H 0.60426 0.49213 0.85236 0.0
H409 H 0.4137 0.52255 0.71416 0.0
Co410 Co 0.01781 0.52203 0.78555 0.0
C411 C 0.03742 0.48924 0.86069 0.0
Co412 Co 1.00415 0.49088 0.7828 0.0
C413 C 0.0173 0.56374 0.8198 0.0
C414 C 0.04903 0.55378 0.7933 0.0
N415 N 0.02813 0.54799 0.7974 0.0
N416 N 0.03064 0.57894 0.83036 0.0
C417 C 0.05059 0.57277 0.81324 0.0
H418 H 1.00006 0.56383 0.82972 0.0
H419 H 0.06254 0.54432 0.77948 0.0
C420 C 0.9846 0.52357 0.70749 0.0
N421 N 0.99361 0.46516 0.77045 0.0
C422 C 1.00458 0.44906 0.74996 0.0
C423 C 0.97224 0.46122 0.76548 0.0
N424 N 0.99086 0.43567 0.73113 0.0
C425 C 0.97052 0.44322 0.74094 0.0
C426 C 0.98163 0.51232 0.85327 0.0
O427 O 0.99809 0.53521 0.7276 0.0
O428 O 0.98509 0.50417 0.72568 0.0
O429 O 0.98201 0.4947 0.83491 0.0
O430 O 0.99598 0.52526 0.83771 0.0
O431 O 0.02376 0.47771 0.84072 0.0
H432 H 0.95874 0.47176 0.77435 0.0
H433 H 0.02213 0.44822 0.7439 0.0
O434 O 0.03705 0.5087 0.84267 0.0
O435 O 0.03993 0.51815 0.73295 0.0
O436 O 0.02584 0.48759 0.73062 0.0
C437 C 0.03997 0.50062 0.71417 0.0
H438 H 0.06553 0.58082 0.81765 0.0
H439 H 0.95549 0.43689 0.72801 0.0
H440 H 0.16109 0.08961 0.61502 0.0
H441 H 0.07138 0.00287 0.66245 0.0
H442 H 0.15584 0.03684 0.52298 0.0
H443 H 0.0684 0.05731 0.75046 0.0
H444 H 0.10325 0.0156 0.61431 0.0
H445 H 0.12839 0.0786 0.66793 0.0
C446 C 0.15315 0.0757 0.60611 0.0
C447 C 0.16117 0.0642 0.56422 0.0
C448 C 0.09575 0.02492 0.64398 0.0
C449 C 0.12393 0.0516 0.62434 0.0
C450 C 0.07736 0.01763 0.6718 0.0
C451 C 0.06695 0.02902 0.71088 0.0
C452 C 0.10421 0.04388 0.65473 0.0
C453 C 0.07589 0.04795 0.72091 0.0
C454 C 0.13445 0.06952 0.63606 0.0
C455 C 0.15014 0.04642 0.55415 0.0
N456 N 0.09405 0.05483 0.69292 0.0
N457 N 0.13223 0.04073 0.58386 0.0
H458 H 0.54448 0.15342 0.5058 0.0
H459 H 0.49795 0.08476 0.77385 0.0
H460 H 0.50636 0.18105 0.6296 0.0
H461 H 0.53652 0.05985 0.64652 0.0
H462 H 0.50147 0.12025 0.72499 0.0
H463 H 0.5423 0.11922 0.55978 0.0
C464 C 0.5356 0.15232 0.54443 0.0
C465 C 0.5254 0.17022 0.56275 0.0
C466 C 0.50925 0.10699 0.70806 0.0
C467 C 0.52304 0.13076 0.62575 0.0
C468 C 0.5073 0.08674 0.73599 0.0
C469 C 0.51695 0.06926 0.71429 0.0
C470 C 0.52098 0.10974 0.65825 0.0
C471 C 0.52872 0.07278 0.66483 0.0
C472 C 0.53445 0.13272 0.5755 0.0
C473 C 0.51457 0.16774 0.61392 0.0
N474 N 0.53036 0.09251 0.63864 0.0
N475 N 0.51356 0.14835 0.64349 0.0
H476 H 0.33646 0.41233 0.58621 0.0
H477 H 0.40168 0.51323 0.63001 0.0
H478 H 0.32997 0.47119 0.47998 0.0
H479 H 0.42651 0.45173 0.70045 0.0
H480 H 0.37347 0.49742 0.58111 0.0
H481 H 0.36772 0.42554 0.63378 0.0
C482 C 0.34167 0.42796 0.57266 0.0
C483 C 0.33061 0.44064 0.52867 0.0
C484 C 0.38511 0.48725 0.60686 0.0
C485 C 0.36612 0.45587 0.58333 0.0
C486 C 0.40121 0.49632 0.63534 0.0
C487 C 0.41643 0.48386 0.67018 0.0
C488 C 0.38389 0.4654 0.61283 0.0
C489 C 0.41513 0.46194 0.67409 0.0
C490 C 0.35955 0.43542 0.59969 0.0
C491 C 0.33812 0.46072 0.51294 0.0
N492 N 0.39899 0.45337 0.64615 0.0
N493 N 0.35518 0.46771 0.54044 0.0
H494 H 0.99445 0.35703 0.46916 0.0
H495 H 0.02085 0.40331 0.75282 0.0
H496 H 0.02842 0.32074 0.60787 0.0
H497 H 0.97375 0.43202 0.63058 0.0
H498 H 0.02849 0.37502 0.69482 0.0
H499 H 0.99141 0.38692 0.52227 0.0
C500 C 1.00142 0.35542 0.51066 0.0
C501 C 0.01158 0.33634 0.53429 0.0
C502 C 0.01655 0.38757 0.68061 0.0
C503 C 1.00811 0.37046 0.59543 0.0
C504 C 0.01228 0.40364 0.71356 0.0
C505 C 0.99642 0.41965 0.69663 0.0
C506 C 1.00513 0.38783 0.63003 0.0
C507 C 0.98575 0.41963 0.6454 0.0
C508 C 0.9996 0.37245 0.54106 0.0
C509 C 0.02018 0.33508 0.58842 0.0
N510 N 0.9903 0.40397 0.61388 0.0
N511 N 0.01824 0.3519 0.61719 0.0
H512 H 0.88303 0.94607 0.06712 0.0
H513 H 0.94057 0.97722 0.77472 0.0
H514 H 0.84604 0.96236 0.91463 0.0
H515 H 0.97181 0.97799 0.93394 0.0
H516 H 0.9068 0.96609 0.82247 0.0
H517 H 0.9168 0.95205 0.01598 0.0
C518 C 0.88198 0.95096 0.02286 0.0
C519 C 0.86158 0.95396 0.99537 0.0
C520 C 0.92117 0.96845 0.8468 0.0
C521 C 0.9004 0.96059 0.93617 0.0
C522 C 0.94041 0.97462 0.81963 0.0
C523 C 0.95888 0.97849 0.85061 0.0
C524 C 0.92069 0.96579 0.90516 0.0
C525 C 0.95786 0.97523 0.90863 0.0
C526 C 0.90131 0.95427 0.9936 0.0
C527 C 0.86138 0.95976 0.93758 0.0
N528 N 0.93912 0.96906 0.93398 0.0
N529 N 0.88048 0.963 0.90992 0.0
H530 H 0.47935 0.83983 0.9318 0.0
H531 H 0.50303 0.9606 0.92675 0.0
H532 H 0.50181 0.86833 0.0722 0.0
H533 H 0.50211 0.93254 0.77437 0.0
H534 H 0.49987 0.92644 0.97889 0.0
H535 H 0.48554 0.87273 0.87158 0.0
C536 C 0.48568 0.85289 0.94994 0.0
C537 C 0.48962 0.85141 0.0075 0.0
C538 C 0.5004 0.92756 0.93408 0.0
C539 C 0.49661 0.88894 0.93905 0.0
C540 C 0.50208 0.9472 0.90404 0.0
C541 C 0.50265 0.94956 0.84588 0.0
C542 C 0.49902 0.90983 0.90625 0.0
C543 C 0.50168 0.93143 0.81916 0.0
C544 C 0.48918 0.87163 0.91555 0.0
C545 C 0.49786 0.86884 0.02855 0.0
N546 N 0.49971 0.91226 0.8496 0.0
N547 N 0.5009 0.88678 0.99457 0.0
H548 H 0.69174 0.59367 0.95955 0.0
H549 H 0.60237 0.50705 0.95121 0.0
H550 H 0.68199 0.54312 0.08974 0.0
H551 H 0.60386 0.56046 0.82618 0.0
H552 H 0.63075 0.52165 1.00368 0.0
H553 H 0.65962 0.58309 0.90989 0.0
C554 C 0.6829 0.58038 0.97769 0.0
C555 C 0.6896 0.56935 0.02916 0.0
C556 C 0.62485 0.5304 0.96507 0.0
C557 C 0.65283 0.55724 0.97273 0.0
C558 C 0.60859 0.52205 0.93526 0.0
C559 C 0.60086 0.53256 0.8844 0.0
C560 C 0.6339 0.54934 0.94361 0.0
C561 C 0.60938 0.55198 0.86545 0.0
C562 C 0.66448 0.57446 0.94952 0.0
C563 C 0.67736 0.55237 0.05077 0.0
N564 N 0.62569 0.55967 0.89473 0.0
N565 N 0.65975 0.54686 0.02251 0.0
H566 H 0.03116 0.69894 0.95338 0.0
H567 H 0.99963 0.58251 0.90942 0.0
H568 H 0.9908 0.66141 0.06723 0.0
H569 H 0.05 0.61612 0.81834 0.0
H570 H 0.99279 0.61245 0.96146 0.0
H571 H 0.03477 0.67 0.89691 0.0
C572 C 0.02273 0.68473 0.96588 0.0
C573 C 0.01061 0.68258 0.01482 0.0
C574 C 1.00527 0.61329 0.92991 0.0
C575 C 0.01477 0.64931 0.95075 0.0
C576 C 1.00908 0.59626 0.89988 0.0
C577 C 0.02545 0.5968 0.85936 0.0
C578 C 0.01776 0.63107 0.91892 0.0
C579 C 0.03739 0.61493 0.84948 0.0
C580 C 0.02494 0.66814 0.93397 0.0
C581 C 1.00036 0.66366 0.02977 0.0
N582 N 0.0333 0.6313 0.87894 0.0
N583 N 1.00266 0.64774 0.99789 0.0
H584 H 0.04715 0.13778 0.6417 0.0
H585 H 0.95617 0.06035 0.73804 0.0
H586 H 0.98017 0.16214 0.62986 0.0
H587 H 0.01205 0.04587 0.63972 0.0
H588 H 0.96287 0.09777 0.71749 0.0
H589 H 0.03452 0.10335 0.67713 0.0
C590 C 0.02986 0.13618 0.65005 0.0
C591 C 0.01453 0.15236 0.63076 0.0
C592 C 0.97321 0.08636 0.69923 0.0
C593 C 1.00006 0.11338 0.66893 0.0
C594 C 0.96902 0.06514 0.70935 0.0
C595 C 0.98398 0.05013 0.69166 0.0
C596 C 0.99237 0.09212 0.67137 0.0
C597 C 1.00033 0.05698 0.65473 0.0
C598 C 0.02263 0.11644 0.66847 0.0
C599 C 0.99235 0.14969 0.64292 0.0
N600 N 1.00473 0.07754 0.64768 0.0
N601 N 0.98553 0.13016 0.65938 0.0
H602 H 0.37088 0.10536 0.65485 0.0
H603 H 0.43329 0.99327 0.72263 0.0
H604 H 0.34103 0.04846 0.62333 0.0
H605 H 0.46505 0.05159 0.68606 0.0
H606 H 0.39762 0.01212 0.69991 0.0
H607 H 0.40376 0.08446 0.68904 0.0
C608 C 0.371 0.08846 0.65659 0.0
C609 C 0.35336 0.07872 0.6352 0.0
C610 C 0.41247 0.02067 0.69624 0.0
C611 C 0.39085 0.05486 0.67312 0.0
C612 C 0.43268 0.00991 0.70818 0.0
C613 C 0.45179 0.02101 0.70485 0.0
C614 C 0.41172 0.04258 0.68291 0.0
C615 C 0.45049 0.04258 0.68781 0.0
C616 C 0.38981 0.07658 0.67545 0.0
C617 C 0.35423 0.05669 0.63932 0.0
N618 N 0.43071 0.05276 0.67805 0.0
N619 N 0.37287 0.04549 0.65693 0.0
H620 H 0.56716 0.35708 0.64342 0.0
H621 H 0.50089 0.46531 0.62984 0.0
H622 H 0.49858 0.36612 0.59915 0.0
H623 H 0.55504 0.4513 0.74558 0.0
H624 H 0.50354 0.42917 0.60936 0.0
H625 H 0.56518 0.3907 0.68167 0.0
C626 C 0.55153 0.3658 0.64365 0.0
C627 C 0.53309 0.35911 0.61734 0.0
C628 C 0.51488 0.434 0.63919 0.0
C629 C 0.53098 0.39755 0.65843 0.0
C630 C 0.51362 0.45468 0.65009 0.0
C631 C 0.52771 0.46119 0.68946 0.0
C632 C 0.53034 0.41973 0.66784 0.0
C633 C 0.544 0.44687 0.71452 0.0
C634 C 0.55048 0.38501 0.66487 0.0
C635 C 0.5132 0.3708 0.61879 0.0
N636 N 0.5448 0.42663 0.70356 0.0
N637 N 0.5128 0.38976 0.63759 0.0
H638 H 0.16105 0.44198 0.61772 0.0
H639 H 0.03749 0.47732 0.6301 0.0
H640 H 0.10882 0.39917 0.61456 0.0
H641 H 0.08352 0.50451 0.73218 0.0
H642 H 0.06648 0.45263 0.60647 0.0
H643 H 0.13562 0.46694 0.65453 0.0
C644 C 0.14448 0.43742 0.62617 0.0
C645 C 0.1369 0.41866 0.61048 0.0
C646 C 0.0703 0.46419 0.63345 0.0
C647 C 0.10771 0.44774 0.6499 0.0
C648 C 0.05397 0.47855 0.6458 0.0
C649 C 0.05827 0.49283 0.68302 0.0
C650 C 0.09106 0.46427 0.65824 0.0
C651 C 0.07976 0.4938 0.70278 0.0
C652 C 0.12992 0.45192 0.64647 0.0
C653 C 0.1152 0.41382 0.62328 0.0
N654 N 0.09548 0.47942 0.69061 0.0
N655 N 0.10115 0.42858 0.64049 0.0
H656 H 0.03712 0.85373 0.88178 0.0
H657 H 0.01298 0.96675 0.94349 0.0
H658 H 0.9779 0.8722 0.96187 0.0
H659 H 0.04751 0.95623 0.79436 0.0
H660 H 1.00186 0.9305 0.95271 0.0
H661 H 0.04022 0.88996 0.83987 0.0
C662 C 0.02405 0.86521 0.88771 0.0
C663 C 1.00767 0.86038 0.92656 0.0
C664 C 0.01202 0.93611 0.91818 0.0
C665 C 0.01176 0.90151 0.88229 0.0
C666 C 0.01892 0.95651 0.91403 0.0
C667 C 0.03143 0.96415 0.86875 0.0
C668 C 0.01812 0.92332 0.87734 0.0
C669 C 0.03816 0.95059 0.83043 0.0
C670 C 0.02605 0.88595 0.86482 0.0
C671 C 0.99103 0.87561 0.93289 0.0
N672 N 0.03143 0.93071 0.83557 0.0
N673 N 0.99403 0.89587 0.91317 0.0
H674 H 0.67851 0.96169 0.89097 0.0
H675 H 0.55255 0.97889 0.91442 0.0
H676 H 0.63686 0.91151 0.94842 0.0
H677 H 0.58652 0.01465 0.78268 0.0
H678 H 0.58555 0.95598 0.93387 0.0
H679 H 0.64688 0.98131 0.84545 0.0
C680 C 0.66294 0.95433 0.89185 0.0
C681 C 0.65997 0.93546 0.92594 0.0
C682 C 0.58585 0.96901 0.90114 0.0
C683 C 0.62391 0.95814 0.87672 0.0
C684 C 0.56732 0.98243 0.89134 0.0
C685 C 0.56719 -0.00126 0.84766 0.0
C686 C 0.60429 0.97227 0.86747 0.0
C687 C 0.58635 0.00232 0.81732 0.0
C688 C 0.6448 0.96574 0.86673 0.0
C689 C 0.63955 0.92648 0.92441 0.0
N690 N 0.60427 0.98911 0.82776 0.0
N691 N 0.62195 0.93835 0.90253 0.0
H692 H 0.4611 0.62515 0.05893 0.0
H693 H 0.4932 0.57295 0.78685 0.0
H694 H 0.4913 0.65768 0.91506 0.0
H695 H 0.48528 0.53636 0.94564 0.0
H696 H 0.48454 0.60495 0.82891 0.0
H697 H 0.46288 0.59305 0.01396 0.0
C698 C 0.46813 0.62555 0.01804 0.0
C699 C 0.47614 0.64413 0.99085 0.0
C700 C 0.48457 0.58995 0.85461 0.0
C701 C 0.47784 0.60769 0.93911 0.0
C702 C 0.48944 0.57179 0.83065 0.0
C703 C 0.49008 0.55232 0.86335 0.0
C704 C 0.48042 0.58852 0.91169 0.0
C705 C 0.48499 0.55129 0.91959 0.0
C706 C 0.46901 0.60729 0.99236 0.0
C707 C 0.48466 0.64384 0.93738 0.0
N708 N 0.48047 0.56927 0.94233 0.0
N709 N 0.4853 0.62591 0.91336 0.0
H710 H 0.8995 0.61211 0.92757 0.0
H711 H 0.93918 0.5012 0.8452 0.0
H712 H 0.85693 0.56022 0.95351 0.0
H713 H 0.98035 0.54289 0.91994 0.0
H714 H 0.90695 0.52365 0.86376 0.0
H715 H 0.92749 0.58878 0.89288 0.0
C716 C 0.89576 0.59601 0.92446 0.0
C717 C 0.87617 0.58793 0.94551 0.0
C718 C 0.92308 0.52758 0.87663 0.0
C719 C 0.90794 0.56137 0.90602 0.0
C720 C 0.94134 0.51463 0.86719 0.0
C721 C 0.96237 0.52036 0.8809 0.0
C722 C 0.92619 0.54632 0.89895 0.0
C723 C 0.9644 0.53807 0.90836 0.0
C724 C 0.91178 0.58271 0.90513 0.0
C725 C 0.87192 0.5671 0.93862 0.0
N726 N 0.94655 0.55066 0.91558 0.0
N727 N 0.88793 0.55434 0.92048 0.0
H728 H 0.99625 0.14959 0.16883 0.0
H729 H 0.03443 0.09662 0.90165 0.0
H730 H 0.04479 0.17681 0.05747 0.0
H731 H 0.99678 0.06686 0.03562 0.0
H732 H 0.03903 0.12641 0.95523 0.0
H733 H 0.99569 0.11981 0.11649 0.0
C734 C 1.00697 0.14922 0.13356 0.0
C735 C 0.02079 0.16564 0.11799 0.0
C736 C 0.03003 0.11319 0.97307 0.0
C737 C 0.02013 0.13142 0.0571 0.0
C738 C 0.02763 0.09618 0.9428 0.0
C739 C 0.0152 0.07938 0.96445 0.0
C740 C 0.01985 0.11323 0.02495 0.0
C741 C 1.00635 0.07961 0.01745 0.0
C742 C 1.00661 0.13219 0.10348 0.0
C743 C 0.03383 0.16451 0.07082 0.0
N744 N 1.00869 0.09628 0.04556 0.0
N745 N 0.03323 0.14766 0.04202 0.0
H746 H 0.34127 0.03706 0.11438 0.0
H747 H 0.4526 0.07157 0.96276 0.0
H748 H 0.37186 0.09417 0.13961 0.0
H749 H 0.4299 0.009 0.9766 0.0
H750 H 0.42057 0.08234 0.01606 0.0
H751 H 0.37114 0.02862 0.05342 0.0
C752 C 0.3542 0.04794 0.1068 0.0
C753 C 0.35391 0.06644 0.1321 0.0
C754 C 0.42246 0.06631 0.00689 0.0
C755 C 0.38848 0.05672 0.06204 0.0
C756 C 0.44057 0.06027 0.97609 0.0
C757 C 0.44365 0.03946 0.96503 0.0
C758 C 0.4073 0.05141 0.02637 0.0
C759 C 0.42792 0.02522 0.98402 0.0
C760 C 0.37135 0.04303 0.07212 0.0
C761 C 0.37143 0.07968 0.12133 0.0
N762 N 0.41046 0.03143 0.01366 0.0
N763 N 0.38794 0.07462 0.08698 0.0
H764 H 0.54047 0.38735 0.14204 0.0
H765 H 0.48272 0.44295 0.8608 0.0
H766 H 0.49696 0.35606 0.04247 0.0
H767 H 0.53515 0.4696 0.944 0.0
H768 H 0.48593 0.41184 0.93015 0.0
H769 H 0.53689 0.41853 0.07334 0.0
C770 C 0.5301 0.38703 0.10588 0.0
C771 C 0.51901 0.36898 0.09818 0.0
C772 C 0.49665 0.42455 0.93341 0.0
C773 C 0.51492 0.4047 0.019 0.0
C774 C 0.49472 0.44237 0.89404 0.0
C775 C 0.50856 0.45899 0.89684 0.0
C776 C 0.51237 0.42341 0.97636 0.0
C777 C 0.52409 0.4572 0.94029 0.0
C778 C 0.52817 0.40482 0.06645 0.0
C779 C 0.50604 0.36948 0.04996 0.0
N780 N 0.52551 0.43981 0.97838 0.0
N781 N 0.5043 0.38703 0.0124 0.0
H782 H 0.15418 0.47444 0.06546 0.0
H783 H 0.04279 0.44895 0.91674 0.0
H784 H 0.12056 0.4182 0.1186 0.0
H785 H 0.07104 0.50952 0.90061 0.0
H786 H 0.07174 0.43567 0.98522 0.0
H787 H 0.12475 0.48568 0.99903 0.0
C788 C 0.14065 0.46433 0.06291 0.0
C789 C 0.14006 0.44522 0.09754 0.0
C790 C 0.07146 0.45187 0.96674 0.0
C791 C 0.10578 0.45824 0.02109 0.0
C792 C 0.05496 0.45946 0.92762 0.0
C793 C 0.05432 0.48045 0.90294 0.0
C794 C 0.08753 0.46532 0.98073 0.0
C795 C 0.07065 0.49328 0.91852 0.0
C796 C 0.1237 0.47085 0.02508 0.0
C797 C 0.12172 0.43308 0.09288 0.0
N798 N 0.08649 0.48552 0.956 0.0
N799 N 0.10536 0.43972 0.05515 0.0
H800 H 0.02529 0.83503 0.51869 0.0
H801 H 0.98545 0.95576 0.51 0.0
H802 H 0.99329 0.87188 0.37765 0.0
H803 H 0.016 0.91974 0.65423 0.0
H804 H 0.98667 0.92443 0.46308 0.0
H805 H 0.02051 0.86503 0.57118 0.0
C806 C 0.01716 0.84937 0.49882 0.0
C807 C 0.00984 0.85096 0.44344 0.0
C808 C 0.99303 0.9233 0.50511 0.0
C809 C 1.00448 0.88539 0.50319 0.0
C810 C 0.99241 0.94125 0.53188 0.0
C811 C 1.00085 0.94052 0.58595 0.0
C812 C 1.00224 0.90434 0.53238 0.0
C813 C 1.00923 0.92109 0.61263 0.0
C814 C 0.01451 0.86652 0.52878 0.0
C815 C 0.99961 0.87002 0.41978 0.0
N816 N 0.00987 0.90381 0.58541 0.0
N817 N 0.9973 0.88645 0.44969 0.0
H818 H 0.64165 0.94254 0.3697 0.0
H819 H 0.59573 0.98269 0.64984 0.0
H820 H 0.68348 0.96629 0.48892 0.0
H821 H 0.55522 0.97036 0.51284 0.0
H822 H 0.62841 0.97224 0.59869 0.0
H823 H 0.61023 0.94864 0.42798 0.0
C824 C 0.64432 0.94909 0.40799 0.0
C825 C 0.66544 0.95406 0.42374 0.0
C826 C 0.61232 0.97174 0.58006 0.0
C827 C 0.62918 0.96079 0.49182 0.0
C828 C 0.59367 0.97755 0.60943 0.0
C829 C 0.57265 0.97764 0.58537 0.0
C830 C 0.60992 0.96577 0.52656 0.0
C831 C 0.57104 0.97092 0.53267 0.0
C832 C 0.62629 0.95245 0.44158 0.0
C833 C 0.66767 0.962 0.47495 0.0
N834 N 0.58931 0.96536 0.50517 0.0
N835 N 0.64981 0.96518 0.50692 0.0
H836 H 0.51934 0.62612 0.39621 0.0
H837 H 0.47714 0.56563 0.67879 0.0
H838 H 0.46907 0.65173 0.49617 0.0
H839 H 0.54185 0.55217 0.61822 0.0
H840 H 0.47239 0.59533 0.60634 0.0
H841 H 0.52591 0.59665 0.47004 0.0
C842 C 0.50958 0.62551 0.43339 0.0
C843 C 0.49365 0.64154 0.43987 0.0
C844 C 0.48768 0.58597 0.60877 0.0
C845 C 0.50123 0.60794 0.52458 0.0
C846 C 0.49039 0.56895 0.65007 0.0
C847 C 0.50988 0.55635 0.65434 0.0
C848 C 0.50439 0.5903 0.5703 0.0
C849 C 0.52659 0.56154 0.61639 0.0
C850 C 0.51353 0.6088 0.47572 0.0
C851 C 0.48169 0.63994 0.48936 0.0
N852 N 0.52337 0.57801 0.57541 0.0
N853 N 0.48567 0.62348 0.52949 0.0
H854 H 0.87327 0.53312 0.48404 0.0
H855 H 0.97551 0.56468 0.66016 0.0
H856 H 0.89772 0.59515 0.45986 0.0
H857 H 0.95515 0.50154 0.6571 0.0
H858 H 0.9467 0.57719 0.59068 0.0
H859 H 0.90274 0.52215 0.55131 0.0
C860 C 0.88494 0.54441 0.49312 0.0
C861 C 0.88318 0.56499 0.46655 0.0
C862 C 0.9487 0.5606 0.60518 0.0
C863 C 0.91696 0.55271 0.54406 0.0
C864 C 0.96513 0.55345 0.64478 0.0
C865 C 0.96789 0.53199 0.66449 0.0
C866 C 0.93492 0.54619 0.58544 0.0
C867 C 0.9538 0.51821 0.64332 0.0
C868 C 0.90179 0.53819 0.53147 0.0
C869 C 0.8987 0.57908 0.47947 0.0
N870 N 0.93803 0.52553 0.60529 0.0
N871 N 0.91493 0.57272 0.51763 0.0
loop_
_geom_bond_atom_site_label_1
_geom_bond_atom_site_label_2
_geom_bond_distance
_geom_bond_site_symmetry_2
_ccdc_geom_bond_type
C0 C1 1.264 . S
C0 C5 1.479 . S
C0 C10 1.465 . S
C1 C0 1.264 . S
C1 C3 1.339 . S
C1 H28 0.931 . S
C2 C3 1.395 . S
C2 C4 1.320 . S
C3 C1 1.339 . S
C3 C2 1.395 . S
C3 H29 0.929 . S
C4 C2 1.320 . S
C4 C5 1.405 . S
C4 H30 0.930 . S
C5 C0 1.479 . S
C5 C4 1.405 . S
C5 H31 0.931 . S
U6 O7 2.454 . S
U6 O8 2.458 . S
U6 C9 2.984 . S
U6 C10 2.847 . S
U6 C23 2.882 . S
U6 O24 2.441 . S
U6 O25 2.420 . S
U6 O26 2.455 . S
U6 O27 2.449 . S
O7 U6 2.454 . S
O7 C9 1.353 . S
O8 U6 2.458 . S
O8 C9 1.286 . S
C9 U6 2.984 . S
C9 O7 1.353 . S
C9 O8 1.286 . S
C9 C11 1.363 . S
C10 C0 1.465 . S
C10 U6 2.847 . S
C10 O24 1.249 . S
C10 O25 1.202 . S
C11 C9 1.363 . S
C11 C13 1.408 . S
C11 C16 1.342 . S
C12 C13 1.310 . S
C12 C15 1.461 . S
C12 H32 0.932 . S
C13 C11 1.408 . S
C13 C12 1.310 . S
C13 H33 0.930 . S
C14 C15 1.474 . S
C14 C16 1.285 . S
C14 H34 0.929 1_554 S
C15 C12 1.461 . S
C15 C14 1.474 . S
C16 C11 1.342 . S
C16 C14 1.285 . S
C16 H35 0.930 . S
C17 C20 1.424 . S
C17 C22 1.245 1_554 S
C17 C23 1.428 . S
C18 C21 1.260 . S
C18 C22 1.477 . S
C18 H36 0.932 . S
C19 C20 1.384 1_556 S
C19 C21 1.479 . S
C19 H37 0.929 1_556 S
C20 C17 1.424 . S
C20 C19 1.384 1_554 S
C20 H38 0.928 . S
C21 C18 1.260 . S
C21 C19 1.479 . S
C22 C17 1.245 1_556 S
C22 C18 1.477 . S
C22 H39 0.932 . S
C23 U6 2.882 . S
C23 C17 1.428 . S
C23 O26 1.301 . S
C23 O27 1.282 . S
O24 U6 2.441 . S
O24 C10 1.249 . S
O25 U6 2.420 . S
O25 C10 1.202 . S
O26 U6 2.455 . S
O26 C23 1.301 . S
O27 U6 2.449 . S
O27 C23 1.282 . S
H28 C1 0.931 . S
H29 C3 0.929 . S
H30 C4 0.930 . S
H31 C5 0.931 . S
H32 C12 0.932 . S
H33 C13 0.930 . S
H34 C14 0.929 1_556 S
H35 C16 0.930 . S
H36 C18 0.932 . S
H37 C19 0.929 1_554 S
H38 C20 0.928 . S
H39 C22 0.932 . S
C40 C41 1.264 . S
C40 C45 1.479 . S
C40 C50 1.465 . S
C41 C40 1.264 . S
C41 C43 1.339 . S
C41 H68 0.931 . S
C42 C43 1.395 . S
C42 C44 1.320 . S
C43 C41 1.339 . S
C43 C42 1.395 . S
C43 H69 0.929 . S
C44 C42 1.320 . S
C44 C45 1.405 . S
C44 H70 0.919 1_455 S
C45 C40 1.479 . S
C45 C44 1.405 . S
C45 H71 0.931 . S
U46 O47 2.454 . S
U46 O48 2.458 . S
U46 C49 2.984 . S
U46 C50 2.847 . S
U46 C63 2.882 . S
U46 O64 2.441 . S
U46 O65 2.420 . S
U46 O66 2.455 . S
U46 O67 2.449 . S
O47 U46 2.454 . S
O47 C49 1.353 . S
O48 U46 2.458 . S
O48 C49 1.286 . S
C49 U46 2.984 . S
C49 O47 1.353 . S
C49 O48 1.286 . S
C49 C51 1.363 . S
C50 C40 1.465 . S
C50 U46 2.847 . S
C50 O64 1.249 . S
C50 O65 1.202 . S
C51 C49 1.363 . S
C51 C53 1.408 . S
C51 C56 1.342 . S
C52 C53 1.310 . S
C52 C55 1.461 . S
C52 H72 0.932 . S
C53 C51 1.408 . S
C53 C52 1.310 . S
C53 H73 0.930 . S
C54 C55 1.475 1_655 S
C54 C56 1.284 1_655 S
C54 H74 0.930 1_554 S
C55 C52 1.461 . S
C55 C54 1.475 1_455 S
C56 C51 1.342 . S
C56 C54 1.284 1_455 S
C56 H75 0.931 . S
C57 C60 1.424 . S
C57 C62 1.245 1_554 S
C57 C63 1.428 . S
C58 C61 1.260 . S
C58 C62 1.477 . S
C58 H76 0.932 . S
C59 C60 1.384 1_556 S
C59 C61 1.479 . S
C59 H77 0.929 . S
C60 C57 1.424 . S
C60 C59 1.384 1_554 S
C60 H78 0.928 . S
C61 C58 1.260 . S
C61 C59 1.479 . S
C62 C57 1.245 1_556 S
C62 C58 1.477 . S
C62 H79 0.932 . S
C63 U46 2.882 . S
C63 C57 1.428 . S
C63 O66 1.301 . S
C63 O67 1.282 . S
O64 U46 2.441 . S
O64 C50 1.249 . S
O65 U46 2.420 . S
O65 C50 1.202 . S
O66 U46 2.455 . S
O66 C63 1.301 . S
O67 U46 2.449 . S
O67 C63 1.282 . S
H68 C41 0.931 . S
H69 C43 0.929 . S
H70 C44 0.919 1_655 S
H71 C45 0.931 . S
H72 C52 0.932 . S
H73 C53 0.930 . S
H74 C54 0.930 1_556 S
H75 C56 0.931 . S
H76 C58 0.932 . S
H77 C59 0.929 . S
H78 C60 0.928 . S
H79 C62 0.932 . S
C80 C81 1.264 . S
C80 C85 1.479 . S
C80 C90 1.465 . S
C81 C80 1.264 . S
C81 C83 1.339 . S
C81 H108 0.931 . S
C82 C83 1.395 . S
C82 C84 1.320 . S
C83 C81 1.339 . S
C83 C82 1.395 . S
C83 H109 0.929 . S
C84 C82 1.320 . S
C84 C85 1.405 . S
C84 H110 0.930 . S
C85 C80 1.479 . S
C85 C84 1.405 . S
C85 H111 0.931 . S
U86 O87 2.454 . S
U86 O88 2.458 . S
U86 C89 2.984 . S
U86 C90 2.847 . S
U86 C103 2.882 . S
U86 O104 2.441 . S
U86 O105 2.420 . S
U86 O106 2.455 . S
U86 O107 2.449 . S
O87 U86 2.454 . S
O87 C89 1.353 . S
O88 U86 2.458 . S
O88 C89 1.286 . S
C89 U86 2.984 . S
C89 O87 1.353 . S
C89 O88 1.286 . S
C89 C91 1.363 . S
C90 C80 1.465 . S
C90 U86 2.847 . S
C90 O104 1.249 . S
C90 O105 1.202 . S
C91 C89 1.363 . S
C91 C93 1.408 . S
C91 C96 1.342 . S
C92 C93 1.310 . S
C92 C95 1.461 . S
C92 H112 0.932 . S
C93 C91 1.408 . S
C93 C92 1.310 . S
C93 H113 0.930 . S
C94 C95 1.474 1_556 S
C94 C96 1.285 1_556 S
C94 H114 0.929 . S
C95 C92 1.461 . S
C95 C94 1.474 1_554 S
C96 C91 1.342 . S
C96 C94 1.285 1_554 S
C96 H115 0.930 1_554 S
C97 C100 1.424 1_556 S
C97 C102 1.245 . S
C97 C103 1.428 1_556 S
C98 C101 1.260 . S
C98 C102 1.477 . S
C98 H116 0.932 . S
C99 C100 1.384 1_556 S
C99 C101 1.479 . S
C99 H117 0.929 . S
C100 C97 1.424 1_554 S
C100 C99 1.384 1_554 S
C100 H118 0.928 . S
C101 C98 1.260 . S
C101 C99 1.479 . S
C102 C97 1.245 . S
C102 C98 1.477 . S
C102 H119 0.932 . S
C103 U86 2.882 . S
C103 C97 1.428 1_554 S
C103 O106 1.301 . S
C103 O107 1.282 . S
O104 U86 2.441 . S
O104 C90 1.249 . S
O105 U86 2.420 . S
O105 C90 1.202 . S
O106 U86 2.455 . S
O106 C103 1.301 . S
O107 U86 2.449 . S
O107 C103 1.282 . S
H108 C81 0.931 . S
H109 C83 0.929 . S
H110 C84 0.930 . S
H111 C85 0.931 . S
H112 C92 0.932 . S
H113 C93 0.930 . S
H114 C94 0.929 . S
H115 C96 0.930 1_556 S
H116 C98 0.932 . S
H117 C99 0.929 . S
H118 C100 0.928 . S
H119 C102 0.932 . S
C120 C121 1.264 . S
C120 C125 1.479 . S
C120 C130 1.465 . S
C121 C120 1.264 . S
C121 C123 1.339 . S
C121 H148 0.931 . S
C122 C123 1.395 . S
C122 C124 1.320 . S
C123 C121 1.339 . S
C123 C122 1.395 . S
C123 H149 0.929 . S
C124 C122 1.320 . S
C124 C125 1.405 . S
C124 H150 0.930 . S
C125 C120 1.479 . S
C125 C124 1.405 . S
C125 H151 0.931 . S
U126 O127 2.454 . S
U126 O128 2.458 . S
U126 C129 2.984 . S
U126 C130 2.847 . S
U126 C143 2.882 . S
U126 O144 2.441 . S
U126 O145 2.420 . S
U126 O146 2.455 . S
U126 O147 2.449 . S
O127 U126 2.454 . S
O127 C129 1.353 . S
O128 U126 2.458 . S
O128 C129 1.286 . S
C129 U126 2.984 . S
C129 O127 1.353 . S
C129 O128 1.286 . S
C129 C131 1.363 . S
C130 C120 1.465 . S
C130 U126 2.847 . S
C130 O144 1.249 . S
C130 O145 1.202 . S
C131 C129 1.363 . S
C131 C133 1.408 . S
C131 C136 1.342 . S
C132 C133 1.310 . S
C132 C135 1.461 . S
C132 H152 0.932 . S
C133 C131 1.408 . S
C133 C132 1.310 . S
C133 H153 0.930 . S
C134 C135 1.474 . S
C134 C136 1.285 . S
C134 H154 0.929 1_554 S
C135 C132 1.461 . S
C135 C134 1.474 . S
C136 C131 1.342 . S
C136 C134 1.285 . S
C136 H155 0.930 . S
C137 C140 1.424 . S
C137 C142 1.245 1_554 S
C137 C143 1.428 . S
C138 C141 1.260 . S
C138 C142 1.477 . S
C138 H156 0.932 . S
C139 C140 1.384 1_556 S
C139 C141 1.479 . S
C139 H157 0.929 1_556 S
C140 C137 1.424 . S
C140 C139 1.384 1_554 S
C140 H158 0.928 . S
C141 C138 1.260 . S
C141 C139 1.479 . S
C142 C137 1.245 1_556 S
C142 C138 1.477 . S
C142 H159 0.932 . S
C143 U126 2.882 . S
C143 C137 1.428 . S
C143 O146 1.301 . S
C143 O147 1.282 . S
O144 U126 2.441 . S
O144 C130 1.249 . S
O145 U126 2.420 . S
O145 C130 1.202 . S
O146 U126 2.455 . S
O146 C143 1.301 . S
O147 U126 2.449 . S
O147 C143 1.282 . S
H148 C121 0.931 . S
H149 C123 0.929 . S
H150 C124 0.930 . S
H151 C125 0.931 . S
H152 C132 0.932 . S
H153 C133 0.930 . S
H154 C134 0.929 1_556 S
H155 C136 0.930 . S
H156 C138 0.932 . S
H157 C139 0.929 1_554 S
H158 C140 0.928 . S
H159 C142 0.932 . S
C160 C161 1.264 . S
C160 C165 1.479 . S
C160 C170 1.465 . S
C161 C160 1.264 . S
C161 C163 1.339 . S
C161 H188 0.931 . S
C162 C163 1.395 . S
C162 C164 1.320 . S
C163 C161 1.339 . S
C163 C162 1.395 . S
C163 H189 0.929 . S
C164 C162 1.320 . S
C164 C165 1.405 . S
C164 H190 0.930 . S
C165 C160 1.479 . S
C165 C164 1.405 . S
C165 H191 0.931 . S
U166 O167 2.454 . S
U166 O168 2.458 . S
U166 C169 2.984 . S
U166 C170 2.847 . S
U166 C183 2.882 . S
U166 O184 2.441 . S
U166 O185 2.420 . S
U166 O186 2.455 . S
U166 O187 2.449 . S
O167 U166 2.454 . S
O167 C169 1.353 . S
O168 U166 2.458 . S
O168 C169 1.286 . S
C169 U166 2.984 . S
C169 O167 1.353 . S
C169 O168 1.286 . S
C169 C171 1.363 . S
C170 C160 1.465 . S
C170 U166 2.847 . S
C170 O184 1.249 . S
C170 O185 1.202 . S
C171 C169 1.363 . S
C171 C173 1.408 . S
C171 C176 1.342 . S
C172 C173 1.310 . S
C172 C175 1.461 . S
C172 H192 0.932 . S
C173 C171 1.408 . S
C173 C172 1.310 . S
C173 H193 0.930 . S
C174 C175 1.474 . S
C174 C176 1.285 . S
C174 H194 0.929 . S
C175 C172 1.461 . S
C175 C174 1.474 . S
C176 C171 1.342 . S
C176 C174 1.285 . S
C176 H195 0.930 . S
C177 C180 1.424 . S
C177 C182 1.245 . S
C177 C183 1.428 . S
C178 C181 1.260 . S
C178 C182 1.477 . S
C178 H196 0.932 . S
C179 C180 1.384 . S
C179 C181 1.479 . S
C179 H197 0.929 . S
C180 C177 1.424 . S
C180 C179 1.384 . S
C180 H198 0.928 . S
C181 C178 1.260 . S
C181 C179 1.479 . S
C182 C177 1.245 . S
C182 C178 1.477 . S
C182 H199 0.932 . S
C183 U166 2.882 . S
C183 C177 1.428 . S
C183 O186 1.301 . S
C183 O187 1.282 . S
O184 U166 2.441 . S
O184 C170 1.249 . S
O185 U166 2.420 . S
O185 C170 1.202 . S
O186 U166 2.455 . S
O186 C183 1.301 . S
O187 U166 2.449 . S
O187 C183 1.282 . S
H188 C161 0.931 . S
H189 C163 0.929 . S
H190 C164 0.930 . S
H191 C165 0.931 . S
H192 C172 0.932 . S
H193 C173 0.930 . S
H194 C174 0.929 . S
H195 C176 0.930 . S
H196 C178 0.932 . S
H197 C179 0.929 . S
H198 C180 0.928 . S
H199 C182 0.932 . S
C200 C201 1.264 . S
C200 C205 1.479 . S
C200 C210 1.465 . S
C201 C200 1.264 . S
C201 C203 1.339 . S
C201 H228 0.931 . S
C202 C203 1.395 . S
C202 C204 1.320 . S
C203 C201 1.339 . S
C203 C202 1.395 . S
C203 H229 0.929 . S
C204 C202 1.320 . S
C204 C205 1.405 . S
C204 H230 0.925 1_455 S
C205 C200 1.479 . S
C205 C204 1.405 . S
C205 H231 0.931 . S
U206 O207 2.454 . S
U206 O208 2.458 . S
U206 C209 2.984 . S
U206 C210 2.847 . S
U206 C223 2.882 . S
U206 O224 2.441 . S
U206 O225 2.420 . S
U206 O226 2.455 . S
U206 O227 2.449 . S
O207 U206 2.454 . S
O207 C209 1.353 . S
O208 U206 2.458 . S
O208 C209 1.286 . S
C209 U206 2.984 . S
C209 O207 1.353 . S
C209 O208 1.286 . S
C209 C211 1.363 . S
C210 C200 1.465 . S
C210 U206 2.847 . S
C210 O224 1.249 . S
C210 O225 1.202 . S
C211 C209 1.363 . S
C211 C213 1.408 . S
C211 C216 1.342 . S
C212 C213 1.310 . S
C212 C215 1.462 . S
C212 H232 0.932 . S
C213 C211 1.408 . S
C213 C212 1.310 . S
C213 H233 0.930 . S
C214 C215 1.473 1_655 S
C214 C216 1.286 1_655 S
C214 H234 0.929 . S
C215 C212 1.462 . S
C215 C214 1.473 1_455 S
C216 C211 1.342 . S
C216 C214 1.286 1_455 S
C216 H235 0.936 . S
C217 C220 1.424 . S
C217 C222 1.245 . S
C217 C223 1.428 . S
C218 C221 1.260 . S
C218 C222 1.477 . S
C218 H236 0.932 . S
C219 C220 1.384 . S
C219 C221 1.479 . S
C219 H237 0.929 . S
C220 C217 1.424 . S
C220 C219 1.384 . S
C220 H238 0.928 . S
C221 C218 1.260 . S
C221 C219 1.479 . S
C222 C217 1.245 . S
C222 C218 1.477 . S
C222 H239 0.932 . S
C223 U206 2.882 . S
C223 C217 1.428 . S
C223 O226 1.301 . S
C223 O227 1.282 . S
O224 U206 2.441 . S
O224 C210 1.249 . S
O225 U206 2.420 . S
O225 C210 1.202 . S
O226 U206 2.455 . S
O226 C223 1.301 . S
O227 U206 2.449 . S
O227 C223 1.282 . S
H228 C201 0.931 . S
H229 C203 0.929 . S
H230 C204 0.925 1_655 S
H231 C205 0.931 . S
H232 C212 0.932 . S
H233 C213 0.930 . S
H234 C214 0.929 . S
H235 C216 0.936 . S
H236 C218 0.932 . S
H237 C219 0.929 . S
H238 C220 0.928 . S
H239 C222 0.932 . S
C240 C241 1.264 . S
C240 C245 1.479 . S
C240 C250 1.465 . S
C241 C240 1.264 . S
C241 C243 1.339 . S
C241 H268 0.931 . S
C242 C243 1.395 . S
C242 C244 1.320 . S
C243 C241 1.339 . S
C243 C242 1.395 . S
C243 H269 0.929 . S
C244 C242 1.320 . S
C244 C245 1.405 . S
C244 H270 0.930 . S
C245 C240 1.479 . S
C245 C244 1.405 . S
C245 H271 0.931 . S
U246 O247 2.454 . S
U246 O248 2.458 . S
U246 C249 2.984 . S
U246 C250 2.847 . S
U246 C263 2.882 . S
U246 O264 2.441 . S
U246 O265 2.420 . S
U246 O266 2.455 . S
U246 O267 2.449 . S
O247 U246 2.454 . S
O247 C249 1.353 . S
O248 U246 2.458 . S
O248 C249 1.286 . S
C249 U246 2.984 . S
C249 O247 1.353 . S
C249 O248 1.286 . S
C249 C251 1.363 . S
C250 C240 1.465 . S
C250 U246 2.847 . S
C250 O264 1.249 . S
C250 O265 1.202 . S
C251 C249 1.363 . S
C251 C253 1.408 . S
C251 C256 1.342 . S
C252 C253 1.310 . S
C252 C255 1.461 . S
C252 H272 0.932 . S
C253 C251 1.408 . S
C253 C252 1.310 . S
C253 H273 0.930 . S
C254 C255 1.474 . S
C254 C256 1.285 . S
C254 H274 0.929 . S
C255 C252 1.461 . S
C255 C254 1.474 . S
C256 C251 1.342 . S
C256 C254 1.285 . S
C256 H275 0.930 . S
C257 C260 1.424 . S
C257 C262 1.245 . S
C257 C263 1.428 . S
C258 C261 1.260 . S
C258 C262 1.477 . S
C258 H276 0.932 . S
C259 C260 1.384 . S
C259 C261 1.479 . S
C259 H277 0.929 . S
C260 C257 1.424 . S
C260 C259 1.384 . S
C260 H278 0.928 . S
C261 C258 1.260 . S
C261 C259 1.479 . S
C262 C257 1.245 . S
C262 C258 1.477 . S
C262 H279 0.932 . S
C263 U246 2.882 . S
C263 C257 1.428 . S
C263 O266 1.301 . S
C263 O267 1.282 . S
O264 U246 2.441 . S
O264 C250 1.249 . S
O265 U246 2.420 . S
O265 C250 1.202 . S
O266 U246 2.455 . S
O266 C263 1.301 . S
O267 U246 2.449 . S
O267 C263 1.282 . S
H268 C241 0.931 . S
H269 C243 0.929 . S
H270 C244 0.930 . S
H271 C245 0.931 . S
H272 C252 0.932 . S
H273 C253 0.930 . S
H274 C254 0.929 . S
H275 C256 0.930 . S
H276 C258 0.932 . S
H277 C259 0.929 . S
H278 C260 0.928 . S
H279 C262 0.932 . S
C280 C281 1.264 . S
C280 C285 1.479 . S
C280 C290 1.465 . S
C281 C280 1.264 . S
C281 C283 1.339 . S
C281 H308 0.931 . S
C282 C283 1.395 . S
C282 C284 1.320 . S
C283 C281 1.339 . S
C283 C282 1.395 . S
C283 H309 0.929 . S
C284 C282 1.320 . S
C284 C285 1.405 . S
C284 H310 0.930 . S
C285 C280 1.479 . S
C285 C284 1.405 . S
C285 H311 0.931 . S
U286 O287 2.454 . S
U286 O288 2.458 . S
U286 C289 2.984 . S
U286 C290 2.847 . S
U286 C303 2.882 . S
U286 O304 2.441 . S
U286 O305 2.420 . S
U286 O306 2.455 . S
U286 O307 2.449 . S
O287 U286 2.454 . S
O287 C289 1.353 . S
O288 U286 2.458 . S
O288 C289 1.286 . S
C289 U286 2.984 . S
C289 O287 1.353 . S
C289 O288 1.286 . S
C289 C291 1.363 . S
C290 C280 1.465 . S
C290 U286 2.847 . S
C290 O304 1.249 . S
C290 O305 1.202 . S
C291 C289 1.363 . S
C291 C293 1.408 . S
C291 C296 1.342 . S
C292 C293 1.310 . S
C292 C295 1.461 . S
C292 H312 0.932 . S
C293 C291 1.408 . S
C293 C292 1.310 . S
C293 H313 0.930 . S
C294 C295 1.474 . S
C294 C296 1.285 . S
C294 H314 0.929 . S
C295 C292 1.461 . S
C295 C294 1.474 . S
C296 C291 1.342 . S
C296 C294 1.285 . S
C296 H315 0.930 . S
C297 C300 1.424 . S
C297 C302 1.245 . S
C297 C303 1.428 . S
C298 C301 1.260 . S
C298 C302 1.477 . S
C298 H316 0.932 . S
C299 C300 1.384 . S
C299 C301 1.479 . S
C299 H317 0.929 . S
C300 C297 1.424 . S
C300 C299 1.384 . S
C300 H318 0.928 . S
C301 C298 1.260 . S
C301 C299 1.479 . S
C302 C297 1.245 . S
C302 C298 1.477 . S
C302 H319 0.932 . S
C303 U286 2.882 . S
C303 C297 1.428 . S
C303 O306 1.301 . S
C303 O307 1.282 . S
O304 U286 2.441 . S
O304 C290 1.249 . S
O305 U286 2.420 . S
O305 C290 1.202 . S
O306 U286 2.455 . S
O306 C303 1.301 . S
O307 U286 2.449 . S
O307 C303 1.282 . S
H308 C281 0.931 . S
H309 C283 0.929 . S
H310 C284 0.930 . S
H311 C285 0.931 . S
H312 C292 0.932 . S
H313 C293 0.930 . S
H314 C294 0.929 . S
H315 C296 0.930 . S
H316 C298 0.932 . S
H317 C299 0.929 . S
H318 C300 0.928 . S
H319 C302 0.932 . S
Co320 N325 2.057 . S
Co320 O337 2.021 . S
Co320 O340 2.062 1_455 S
Co320 O344 2.117 1_455 S
Co320 O345 2.020 1_545 S
C321 O341 1.259 1_545 S
C321 O344 1.258 . S
Co322 N331 2.057 . S
Co322 O338 2.117 1_665 S
Co322 O339 2.020 1_565 S
Co322 O341 2.021 . S
Co322 O346 2.062 1_655 S
C323 N325 1.316 . S
C323 N326 1.347 . S
C323 H328 0.931 . S
C324 N325 1.375 1_655 S
C324 C327 1.350 . S
C324 H329 0.930 . S
N325 Co320 2.057 . S
N325 C323 1.316 . S
N325 C324 1.375 1_455 S
N326 C323 1.347 . S
N326 C327 1.373 1_455 S
C327 C324 1.350 . S
C327 N326 1.373 1_655 S
C327 H348 0.931 . S
H328 C323 0.931 . S
H329 C324 0.930 . S
C330 O337 1.259 . S
C330 O338 1.258 . S
N331 Co322 2.057 . S
N331 C332 1.316 . S
N331 C333 1.375 1_655 S
C332 N331 1.316 . S
C332 N334 1.347 . S
C332 H343 0.931 . S
C333 N331 1.375 1_455 S
C333 C335 1.350 . S
C333 H342 0.930 . S
N334 C332 1.347 . S
N334 C335 1.373 1_655 S
C335 C333 1.350 . S
C335 N334 1.373 1_455 S
C335 H349 0.931 . S
C336 O339 1.256 . S
C336 O340 1.255 . S
O337 Co320 2.021 . S
O337 C330 1.259 . S
O338 Co322 2.117 1_445 S
O338 C330 1.258 . S
O339 Co322 2.020 1_545 S
O339 C336 1.256 . S
O340 Co320 2.062 1_655 S
O340 C336 1.255 . S
O341 C321 1.259 1_565 S
O341 Co322 2.021 . S
H342 C333 0.930 . S
H343 C332 0.931 . S
O344 Co320 2.117 1_655 S
O344 C321 1.258 . S
O345 Co320 2.020 1_565 S
O345 C347 1.256 . S
O346 Co322 2.062 1_455 S
O346 C347 1.255 . S
C347 O345 1.256 . S
C347 O346 1.255 . S
H348 C327 0.931 . S
H349 C335 0.931 . S
Co350 N355 2.057 . S
Co350 O367 2.021 . S
Co350 O370 2.062 . S
Co350 O374 2.117 1_545 S
Co350 O375 2.020 . S
C351 O371 1.259 . S
C351 O374 1.258 . S
Co352 N361 2.047 1_545 S
Co352 O368 2.173 . S
Co352 O369 2.026 . S
Co352 O371 1.969 1_545 S
Co352 O376 2.064 1_545 S
C353 N355 1.316 . S
C353 N356 1.347 . S
C353 H358 0.931 . S
C354 N355 1.375 . S
C354 C357 1.350 . S
C354 H359 0.930 1_545 S
N355 Co350 2.057 . S
N355 C353 1.316 . S
N355 C354 1.375 . S
N356 C353 1.347 . S
N356 C357 1.373 . S
C357 C354 1.350 . S
C357 N356 1.373 . S
C357 H378 0.931 . S
H358 C353 0.931 . S
H359 C354 0.930 1_565 S
C360 O367 1.259 . S
C360 O368 1.258 . S
N361 Co352 2.047 1_565 S
N361 C362 1.356 . S
N361 C363 1.342 1_565 S
C362 N361 1.356 . S
C362 N364 1.347 . S
C362 H373 0.931 . S
C363 N361 1.342 1_545 S
C363 C365 1.350 . S
C363 H372 0.930 . S
N364 C362 1.347 . S
N364 C365 1.373 1_565 S
C365 C363 1.350 . S
C365 N364 1.373 1_545 S
C365 H379 0.931 . S
C366 O369 1.256 . S
C366 O370 1.255 . S
O367 Co350 2.021 . S
O367 C360 1.259 . S
O368 Co352 2.173 . S
O368 C360 1.258 . S
O369 Co352 2.026 . S
O369 C366 1.256 . S
O370 Co350 2.062 . S
O370 C366 1.255 . S
O371 C351 1.259 . S
O371 Co352 1.969 1_565 S
H372 C363 0.930 . S
H373 C362 0.931 . S
O374 Co350 2.117 1_565 S
O374 C351 1.258 . S
O375 Co350 2.020 . S
O375 C377 1.256 . S
O376 Co352 2.064 1_565 S
O376 C377 1.255 1_565 S
C377 O375 1.256 . S
C377 O376 1.255 1_545 S
H378 C357 0.931 . S
H379 C365 0.931 . S
Co380 N385 2.057 . S
Co380 O397 2.021 . S
Co380 O400 2.062 . S
Co380 O404 2.117 . S
Co380 O405 2.020 . S
C381 O401 1.259 . S
C381 O404 1.258 . S
Co382 N391 2.057 . S
Co382 O398 2.117 . S
Co382 O399 2.020 . S
Co382 O401 2.021 . S
Co382 O406 2.062 . S
C383 N385 1.316 . S
C383 N386 1.347 . S
C383 H388 0.931 . S
C384 N385 1.375 . S
C384 C387 1.350 . S
C384 H389 0.930 . S
N385 Co380 2.057 . S
N385 C383 1.316 . S
N385 C384 1.375 . S
N386 C383 1.347 . S
N386 C387 1.373 . S
C387 C384 1.350 . S
C387 N386 1.373 . S
C387 H408 0.931 . S
H388 C383 0.931 . S
H389 C384 0.930 . S
C390 O397 1.259 . S
C390 O398 1.258 . S
N391 Co382 2.057 . S
N391 C392 1.316 . S
N391 C393 1.375 . S
C392 N391 1.316 . S
C392 N394 1.347 . S
C392 H403 0.931 . S
C393 N391 1.375 . S
C393 C395 1.350 . S
C393 H402 0.930 . S
N394 C392 1.347 . S
N394 C395 1.373 . S
C395 C393 1.350 . S
C395 N394 1.373 . S
C395 H409 0.931 . S
C396 O399 1.256 . S
C396 O400 1.255 . S
O397 Co380 2.021 . S
O397 C390 1.259 . S
O398 Co382 2.117 . S
O398 C390 1.258 . S
O399 Co382 2.020 . S
O399 C396 1.256 . S
O400 Co380 2.062 . S
O400 C396 1.255 . S
O401 C381 1.259 . S
O401 Co382 2.021 . S
H402 C393 0.930 . S
H403 C392 0.931 . S
O404 Co380 2.117 . S
O404 C381 1.258 . S
O405 Co380 2.020 . S
O405 C407 1.256 . S
O406 Co382 2.062 . S
O406 C407 1.255 . S
C407 O405 1.256 . S
C407 O406 1.255 . S
H408 C387 0.931 . S
H409 C395 0.931 . S
Co410 N415 2.057 . S
Co410 O427 2.021 1_455 S
Co410 O430 2.062 1_455 S
Co410 O434 2.117 . S
Co410 O435 2.020 . S
C411 O431 1.259 . S
C411 O434 1.258 . S
Co412 N421 2.057 . S
Co412 O428 2.117 . S
Co412 O429 2.020 . S
Co412 O431 2.021 1_655 S
Co412 O436 2.062 1_655 S
C413 N415 1.316 . S
C413 N416 1.347 . S
C413 H418 0.931 1_455 S
C414 N415 1.375 . S
C414 C417 1.350 . S
C414 H419 0.930 . S
N415 Co410 2.057 . S
N415 C413 1.316 . S
N415 C414 1.375 . S
N416 C413 1.347 . S
N416 C417 1.373 . S
C417 C414 1.350 . S
C417 N416 1.373 . S
C417 H438 0.931 . S
H418 C413 0.931 1_655 S
H419 C414 0.930 . S
C420 O427 1.259 . S
C420 O428 1.258 . S
N421 Co412 2.057 . S
N421 C422 1.316 . S
N421 C423 1.375 . S
C422 N421 1.316 . S
C422 N424 1.347 . S
C422 H433 0.931 1_655 S
C423 N421 1.375 . S
C423 C425 1.350 . S
C423 H432 0.930 . S
N424 C422 1.347 . S
N424 C425 1.373 . S
C425 C423 1.350 . S
C425 N424 1.373 . S
C425 H439 0.931 . S
C426 O429 1.256 . S
C426 O430 1.255 . S
O427 Co410 2.021 1_655 S
O427 C420 1.259 . S
O428 Co412 2.117 . S
O428 C420 1.258 . S
O429 Co412 2.020 . S
O429 C426 1.256 . S
O430 Co410 2.062 1_655 S
O430 C426 1.255 . S
O431 C411 1.259 . S
O431 Co412 2.021 1_455 S
H432 C423 0.930 . S
H433 C422 0.931 1_455 S
O434 Co410 2.117 . S
O434 C411 1.258 . S
O435 Co410 2.020 . S
O435 C437 1.256 . S
O436 Co412 2.062 1_455 S
O436 C437 1.255 . S
C437 O435 1.256 . S
C437 O436 1.255 . S
H438 C417 0.931 . S
H439 C425 0.931 . S
H440 C446 0.930 . S
H441 C450 0.930 1_565 S
H442 C455 0.929 . S
H443 C453 0.929 . S
H444 C448 0.929 . S
H445 C454 0.929 . S
C446 H440 0.930 . S
C446 C447 1.367 . S
C446 C454 1.378 . S
C447 C446 1.367 . S
C447 C455 1.433 . S
C448 H444 0.929 . S
C448 C450 1.378 . S
C448 C452 1.350 . S
C449 C452 1.463 . S
C449 C454 1.350 . S
C449 N457 1.427 . S
C450 H441 0.930 1_545 S
C450 C448 1.378 . S
C450 C451 1.367 . S
C451 C450 1.367 . S
C451 C453 1.433 . S
C452 C448 1.350 . S
C452 C449 1.463 . S
C452 N456 1.427 . S
C453 H443 0.929 . S
C453 C451 1.433 . S
C453 N456 1.384 . S
C454 H445 0.929 . S
C454 C446 1.378 . S
C454 C449 1.350 . S
C455 H442 0.929 . S
C455 C447 1.433 . S
C455 N457 1.384 . S
N456 C452 1.427 . S
N456 C453 1.384 . S
N457 C449 1.427 . S
N457 C455 1.384 . S
H458 C464 0.930 . S
H459 C468 0.930 . S
H460 C473 0.929 . S
H461 C471 0.929 . S
H462 C466 0.929 . S
H463 C472 0.929 . S
C464 H458 0.930 . S
C464 C465 1.367 . S
C464 C472 1.378 . S
C465 C464 1.367 . S
C465 C473 1.433 . S
C466 H462 0.929 . S
C466 C468 1.378 . S
C466 C470 1.350 . S
C467 C470 1.463 . S
C467 C472 1.350 . S
C467 N475 1.427 . S
C468 H459 0.930 . S
C468 C466 1.378 . S
C468 C469 1.367 . S
C469 C468 1.367 . S
C469 C471 1.433 . S
C470 C466 1.350 . S
C470 C467 1.463 . S
C470 N474 1.427 . S
C471 H461 0.929 . S
C471 C469 1.433 . S
C471 N474 1.384 . S
C472 H463 0.929 . S
C472 C464 1.378 . S
C472 C467 1.350 . S
C473 H460 0.929 . S
C473 C465 1.433 . S
C473 N475 1.384 . S
N474 C470 1.427 . S
N474 C471 1.384 . S
N475 C467 1.427 . S
N475 C473 1.384 . S
H476 C482 0.930 . S
H477 C486 0.930 . S
H478 C491 0.929 . S
H479 C489 0.929 . S
H480 C484 0.929 . S
H481 C490 0.929 . S
C482 H476 0.930 . S
C482 C483 1.367 . S
C482 C490 1.378 . S
C483 C482 1.367 . S
C483 C491 1.433 . S
C484 H480 0.929 . S
C484 C486 1.378 . S
C484 C488 1.350 . S
C485 C488 1.463 . S
C485 C490 1.350 . S
C485 N493 1.427 . S
C486 H477 0.930 . S
C486 C484 1.378 . S
C486 C487 1.367 . S
C487 C486 1.367 . S
C487 C489 1.433 . S
C488 C484 1.350 . S
C488 C485 1.463 . S
C488 N492 1.427 . S
C489 H479 0.929 . S
C489 C487 1.433 . S
C489 N492 1.384 . S
C490 H481 0.929 . S
C490 C482 1.378 . S
C490 C485 1.350 . S
C491 H478 0.929 . S
C491 C483 1.433 . S
C491 N493 1.384 . S
N492 C488 1.427 . S
N492 C489 1.384 . S
N493 C485 1.427 . S
N493 C491 1.384 . S
H494 C500 0.930 . S
H495 C504 0.930 . S
H496 C509 0.929 . S
H497 C507 0.929 . S
H498 C502 0.929 . S
H499 C508 0.929 . S
C500 H494 0.930 . S
C500 C501 1.367 . S
C500 C508 1.378 . S
C501 C500 1.367 . S
C501 C509 1.433 1_655 S
C502 H498 0.929 . S
C502 C504 1.378 . S
C502 C506 1.350 1_455 S
C503 C506 1.463 . S
C503 C508 1.350 . S
C503 N511 1.427 1_655 S
C504 H495 0.930 . S
C504 C502 1.378 . S
C504 C505 1.368 1_455 S
C505 C504 1.368 1_655 S
C505 C507 1.433 . S
C506 C502 1.350 1_655 S
C506 C503 1.463 . S
C506 N510 1.427 . S
C507 H497 0.929 . S
C507 C505 1.433 . S
C507 N510 1.384 . S
C508 H499 0.929 . S
C508 C500 1.378 . S
C508 C503 1.350 . S
C509 H496 0.929 . S
C509 C501 1.433 1_455 S
C509 N511 1.384 . S
N510 C506 1.427 . S
N510 C507 1.384 . S
N511 C503 1.427 1_455 S
N511 C509 1.384 . S
H512 C518 0.930 . S
H513 C522 0.921 1_545 S
H514 C527 0.929 . S
H515 C525 0.929 . S
H516 C520 0.929 . S
H517 C526 0.934 . S
C518 H512 0.930 . S
C518 C519 1.367 . S
C518 C526 1.378 1_554 S
C519 C518 1.367 . S
C519 C527 1.433 1_554 S
C520 H516 0.929 . S
C520 C522 1.378 . S
C520 C524 1.350 . S
C521 C524 1.463 . S
C521 C526 1.350 . S
C521 N529 1.427 . S
C522 H513 0.921 1_565 S
C522 C520 1.378 . S
C522 C523 1.367 . S
C523 C522 1.367 . S
C523 C525 1.433 . S
C524 C520 1.350 . S
C524 C521 1.463 . S
C524 N528 1.427 . S
C525 H515 0.929 . S
C525 C523 1.433 . S
C525 N528 1.384 . S
C526 H517 0.934 . S
C526 C518 1.378 1_556 S
C526 C521 1.350 . S
C527 H514 0.929 . S
C527 C519 1.433 1_556 S
C527 N529 1.384 . S
N528 C524 1.427 . S
N528 C525 1.384 . S
N529 C521 1.427 . S
N529 C527 1.384 . S
H530 C536 0.930 . S
H531 C540 0.930 . S
H532 C545 0.929 . S
H533 C543 0.929 . S
H534 C538 0.929 . S
H535 C544 0.929 . S
C536 H530 0.930 . S
C536 C537 1.367 1_556 S
C536 C544 1.378 . S
C537 C536 1.367 1_554 S
C537 C545 1.433 . S
C538 H534 0.929 . S
C538 C540 1.378 . S
C538 C542 1.350 . S
C539 C542 1.463 . S
C539 C544 1.350 . S
C539 N547 1.435 . S
C540 H531 0.930 . S
C540 C538 1.378 . S
C540 C541 1.367 . S
C541 C540 1.367 . S
C541 C543 1.433 . S
C542 C538 1.350 . S
C542 C539 1.463 . S
C542 N546 1.427 . S
C543 H533 0.929 . S
C543 C541 1.433 . S
C543 N546 1.384 . S
C544 H535 0.929 . S
C544 C536 1.378 . S
C544 C539 1.350 . S
C545 H532 0.929 . S
C545 C537 1.433 . S
C545 N547 1.380 1_554 S
N546 C542 1.427 . S
N546 C543 1.384 . S
N547 C539 1.435 . S
N547 C545 1.380 1_556 S
H548 C554 0.930 . S
H549 C558 0.930 . S
H550 C563 0.929 . S
H551 C561 0.929 . S
H552 C556 0.929 . S
H553 C562 0.929 . S
C554 H548 0.930 . S
C554 C555 1.367 1_556 S
C554 C562 1.378 . S
C555 C554 1.367 1_554 S
C555 C563 1.433 . S
C556 H552 0.929 . S
C556 C558 1.378 . S
C556 C560 1.350 . S
C557 C560 1.463 . S
C557 C562 1.350 . S
C557 N565 1.427 1_556 S
C558 H549 0.930 . S
C558 C556 1.378 . S
C558 C559 1.367 . S
C559 C558 1.367 . S
C559 C561 1.433 . S
C560 C556 1.350 . S
C560 C557 1.463 . S
C560 N564 1.427 . S
C561 H551 0.929 . S
C561 C559 1.433 . S
C561 N564 1.384 . S
C562 H553 0.929 . S
C562 C554 1.378 . S
C562 C557 1.350 . S
C563 H550 0.929 . S
C563 C555 1.433 . S
C563 N565 1.384 . S
N564 C560 1.427 . S
N564 C561 1.384 . S
N565 C557 1.427 1_554 S
N565 C563 1.384 . S
H566 C572 0.931 1_556 S
H567 C576 0.930 . S
H568 C581 0.929 . S
H569 C579 0.929 . S
H570 C574 0.929 . S
H571 C580 0.929 . S
C572 H566 0.931 1_554 S
C572 C573 1.380 . S
C572 C580 1.364 1_554 S
C573 C572 1.380 . S
C573 C581 1.433 1_455 S
C574 H570 0.929 . S
C574 C576 1.378 . S
C574 C578 1.350 1_655 S
C575 C578 1.463 . S
C575 C580 1.350 . S
C575 N583 1.427 1_456 S
C576 H567 0.930 . S
C576 C574 1.378 . S
C576 C577 1.367 1_655 S
C577 C576 1.367 1_455 S
C577 C579 1.433 . S
C578 C574 1.350 1_455 S
C578 C575 1.463 . S
C578 N582 1.427 . S
C579 H569 0.929 . S
C579 C577 1.433 . S
C579 N582 1.384 . S
C580 H571 0.929 . S
C580 C572 1.364 1_556 S
C580 C575 1.350 . S
C581 H568 0.929 . S
C581 C573 1.433 1_655 S
C581 N583 1.384 . S
N582 C578 1.427 . S
N582 C579 1.384 . S
N583 C575 1.427 1_654 S
N583 C581 1.384 . S
H584 C590 0.930 . S
H585 C594 0.930 . S
H586 C599 0.929 . S
H587 C597 0.929 . S
H588 C592 0.929 . S
H589 C598 0.929 . S
C590 H584 0.930 . S
C590 C591 1.367 . S
C590 C598 1.378 . S
C591 C590 1.367 . S
C591 C599 1.433 1_455 S
C592 H588 0.929 . S
C592 C594 1.378 . S
C592 C596 1.350 . S
C593 C596 1.463 . S
C593 C598 1.350 1_655 S
C593 N601 1.427 . S
C594 H585 0.930 . S
C594 C592 1.378 . S
C594 C595 1.367 . S
C595 C594 1.367 . S
C595 C597 1.433 1_655 S
C596 C592 1.350 . S
C596 C593 1.463 . S
C596 N600 1.427 1_655 S
C597 H587 0.929 . S
C597 C595 1.433 1_455 S
C597 N600 1.384 . S
C598 H589 0.929 . S
C598 C590 1.378 . S
C598 C593 1.350 1_455 S
C599 H586 0.929 . S
C599 C591 1.433 1_655 S
C599 N601 1.384 . S
N600 C596 1.427 1_455 S
N600 C597 1.384 . S
N601 C593 1.427 . S
N601 C599 1.384 . S
H602 C608 0.930 . S
H603 C612 0.916 1_565 S
H604 C617 0.929 . S
H605 C615 0.929 . S
H606 C610 0.929 . S
H607 C616 0.929 . S
C608 H602 0.930 . S
C608 C609 1.367 . S
C608 C616 1.378 . S
C609 C608 1.367 . S
C609 C617 1.433 . S
C610 H606 0.929 . S
C610 C612 1.378 . S
C610 C614 1.350 . S
C611 C614 1.463 . S
C611 C616 1.350 . S
C611 N619 1.427 . S
C612 H603 0.916 1_545 S
C612 C610 1.378 . S
C612 C613 1.367 . S
C613 C612 1.367 . S
C613 C615 1.433 . S
C614 C610 1.350 . S
C614 C611 1.463 . S
C614 N618 1.427 . S
C615 H605 0.929 . S
C615 C613 1.433 . S
C615 N618 1.384 . S
C616 H607 0.929 . S
C616 C608 1.378 . S
C616 C611 1.350 . S
C617 H604 0.929 . S
C617 C609 1.433 . S
C617 N619 1.384 . S
N618 C614 1.427 . S
N618 C615 1.384 . S
N619 C611 1.427 . S
N619 C617 1.384 . S
H620 C626 0.930 . S
H621 C630 0.930 . S
H622 C635 0.929 . S
H623 C633 0.929 . S
H624 C628 0.929 . S
H625 C634 0.929 . S
C626 H620 0.930 . S
C626 C627 1.367 . S
C626 C634 1.378 . S
C627 C626 1.367 . S
C627 C635 1.433 . S
C628 H624 0.929 . S
C628 C630 1.378 . S
C628 C632 1.350 . S
C629 C632 1.463 . S
C629 C634 1.350 . S
C629 N637 1.427 . S
C630 H621 0.930 . S
C630 C628 1.378 . S
C630 C631 1.367 . S
C631 C630 1.367 . S
C631 C633 1.433 . S
C632 C628 1.350 . S
C632 C629 1.463 . S
C632 N636 1.427 . S
C633 H623 0.929 . S
C633 C631 1.433 . S
C633 N636 1.384 . S
C634 H625 0.929 . S
C634 C626 1.378 . S
C634 C629 1.350 . S
C635 H622 0.929 . S
C635 C627 1.433 . S
C635 N637 1.384 . S
N636 C632 1.427 . S
N636 C633 1.384 . S
N637 C629 1.427 . S
N637 C635 1.384 . S
H638 C644 0.930 . S
H639 C648 0.930 . S
H640 C653 0.929 . S
H641 C651 0.929 . S
H642 C646 0.929 . S
H643 C652 0.929 . S
C644 H638 0.930 . S
C644 C645 1.367 . S
C644 C652 1.378 . S
C645 C644 1.367 . S
C645 C653 1.433 . S
C646 H642 0.929 . S
C646 C648 1.378 . S
C646 C650 1.350 . S
C647 C650 1.463 . S
C647 C652 1.350 . S
C647 N655 1.427 . S
C648 H639 0.930 . S
C648 C646 1.378 . S
C648 C649 1.367 . S
C649 C648 1.367 . S
C649 C651 1.433 . S
C650 C646 1.350 . S
C650 C647 1.463 . S
C650 N654 1.427 . S
C651 H641 0.929 . S
C651 C649 1.433 . S
C651 N654 1.384 . S
C652 H643 0.929 . S
C652 C644 1.378 . S
C652 C647 1.350 . S
C653 H640 0.929 . S
C653 C645 1.433 . S
C653 N655 1.384 . S
N654 C650 1.427 . S
N654 C651 1.384 . S
N655 C647 1.427 . S
N655 C653 1.384 . S
H656 C662 0.930 . S
H657 C666 0.930 . S
H658 C671 0.929 . S
H659 C669 0.929 . S
H660 C664 0.929 . S
H661 C670 0.929 . S
C662 H656 0.930 . S
C662 C663 1.367 . S
C662 C670 1.378 . S
C663 C662 1.367 . S
C663 C671 1.433 1_655 S
C664 H660 0.929 . S
C664 C666 1.378 . S
C664 C668 1.350 . S
C665 C668 1.463 . S
C665 C670 1.350 1_455 S
C665 N673 1.427 . S
C666 H657 0.930 . S
C666 C664 1.378 . S
C666 C667 1.367 . S
C667 C666 1.367 . S
C667 C669 1.433 . S
C668 C664 1.350 . S
C668 C665 1.463 . S
C668 N672 1.427 . S
C669 H659 0.929 . S
C669 C667 1.433 . S
C669 N672 1.384 . S
C670 H661 0.929 . S
C670 C662 1.378 . S
C670 C665 1.350 1_655 S
C671 H658 0.929 . S
C671 C663 1.433 1_455 S
C671 N673 1.384 . S
N672 C668 1.427 . S
N672 C669 1.384 . S
N673 C665 1.427 . S
N673 C671 1.384 . S
H674 C680 0.930 . S
H675 C684 0.930 . S
H676 C689 0.929 . S
H677 C687 0.929 1_545 S
H678 C682 0.929 . S
H679 C688 0.929 . S
C680 H674 0.930 . S
C680 C681 1.367 . S
C680 C688 1.378 . S
C681 C680 1.367 . S
C681 C689 1.433 . S
C682 H678 0.929 . S
C682 C684 1.378 . S
C682 C686 1.350 . S
C683 C686 1.463 . S
C683 C688 1.350 . S
C683 N691 1.427 . S
C684 H675 0.930 . S
C684 C682 1.378 . S
C684 C685 1.367 1_565 S
C685 C684 1.367 1_545 S
C685 C687 1.433 1_545 S
C686 C682 1.350 . S
C686 C683 1.463 . S
C686 N690 1.427 . S
C687 H677 0.929 1_565 S
C687 C685 1.433 1_565 S
C687 N690 1.384 . S
C688 H679 0.929 . S
C688 C680 1.378 . S
C688 C683 1.350 . S
C689 H676 0.929 . S
C689 C681 1.433 . S
C689 N691 1.384 . S
N690 C686 1.427 . S
N690 C687 1.384 . S
N691 C683 1.427 . S
N691 C689 1.384 . S
H692 C698 0.930 . S
H693 C702 0.930 . S
H694 C707 0.929 . S
H695 C705 0.929 . S
H696 C700 0.929 . S
H697 C706 0.929 . S
C698 H692 0.930 . S
C698 C699 1.367 . S
C698 C706 1.378 . S
C699 C698 1.367 . S
C699 C707 1.433 . S
C700 H696 0.929 . S
C700 C702 1.378 . S
C700 C704 1.350 . S
C701 C704 1.463 . S
C701 C706 1.350 . S
C701 N709 1.427 . S
C702 H693 0.930 . S
C702 C700 1.378 . S
C702 C703 1.367 . S
C703 C702 1.367 . S
C703 C705 1.433 . S
C704 C700 1.350 . S
C704 C701 1.463 . S
C704 N708 1.427 . S
C705 H695 0.929 . S
C705 C703 1.433 . S
C705 N708 1.384 . S
C706 H697 0.929 . S
C706 C698 1.378 . S
C706 C701 1.350 . S
C707 H694 0.929 . S
C707 C699 1.433 . S
C707 N709 1.384 . S
N708 C704 1.427 . S
N708 C705 1.384 . S
N709 C701 1.427 . S
N709 C707 1.384 . S
H710 C716 0.930 . S
H711 C720 0.930 . S
H712 C725 0.929 . S
H713 C723 0.929 . S
H714 C718 0.929 . S
H715 C724 0.929 . S
C716 H710 0.930 . S
C716 C717 1.367 . S
C716 C724 1.378 . S
C717 C716 1.367 . S
C717 C725 1.433 . S
C718 H714 0.929 . S
C718 C720 1.378 . S
C718 C722 1.350 . S
C719 C722 1.463 . S
C719 C724 1.350 . S
C719 N727 1.427 . S
C720 H711 0.930 . S
C720 C718 1.378 . S
C720 C721 1.367 . S
C721 C720 1.367 . S
C721 C723 1.433 . S
C722 C718 1.350 . S
C722 C719 1.463 . S
C722 N726 1.427 . S
C723 H713 0.929 . S
C723 C721 1.433 . S
C723 N726 1.384 . S
C724 H715 0.929 . S
C724 C716 1.378 . S
C724 C719 1.350 . S
C725 H712 0.929 . S
C725 C717 1.433 . S
C725 N727 1.384 . S
N726 C722 1.427 . S
N726 C723 1.384 . S
N727 C719 1.427 . S
N727 C725 1.384 . S
H728 C734 0.930 . S
H729 C738 0.930 . S
H730 C743 0.929 . S
H731 C741 0.929 . S
H732 C736 0.929 . S
H733 C742 0.929 . S
C734 H728 0.930 . S
C734 C735 1.367 1_655 S
C734 C742 1.378 . S
C735 C734 1.367 1_455 S
C735 C743 1.433 . S
C736 H732 0.929 . S
C736 C738 1.378 . S
C736 C740 1.350 1_556 S
C737 C740 1.463 . S
C737 C742 1.350 1_455 S
C737 N745 1.427 . S
C738 H729 0.930 . S
C738 C736 1.378 . S
C738 C739 1.367 . S
C739 C738 1.367 . S
C739 C741 1.433 1_456 S
C740 C736 1.350 1_554 S
C740 C737 1.463 . S
C740 N744 1.427 1_455 S
C741 H731 0.929 . S
C741 C739 1.433 1_654 S
C741 N744 1.384 . S
C742 H733 0.929 . S
C742 C734 1.378 . S
C742 C737 1.350 1_655 S
C743 H730 0.929 . S
C743 C735 1.433 . S
C743 N745 1.384 . S
N744 C740 1.427 1_655 S
N744 C741 1.384 . S
N745 C737 1.427 . S
N745 C743 1.384 . S
H746 C752 0.930 . S
H747 C756 0.930 . S
H748 C761 0.929 . S
H749 C759 0.929 . S
H750 C754 0.929 . S
H751 C760 0.929 . S
C752 H746 0.930 . S
C752 C753 1.367 . S
C752 C760 1.378 . S
C753 C752 1.367 . S
C753 C761 1.433 . S
C754 H750 0.929 . S
C754 C756 1.378 1_554 S
C754 C758 1.350 . S
C755 C758 1.463 . S
C755 C760 1.350 . S
C755 N763 1.427 . S
C756 H747 0.930 . S
C756 C754 1.378 1_556 S
C756 C757 1.367 . S
C757 C756 1.367 . S
C757 C759 1.433 . S
C758 C754 1.350 . S
C758 C755 1.463 . S
C758 N762 1.427 . S
C759 H749 0.929 . S
C759 C757 1.433 . S
C759 N762 1.384 1_556 S
C760 H751 0.929 . S
C760 C752 1.378 . S
C760 C755 1.350 . S
C761 H748 0.929 . S
C761 C753 1.433 . S
C761 N763 1.384 . S
N762 C758 1.427 . S
N762 C759 1.384 1_554 S
N763 C755 1.427 . S
N763 C761 1.384 . S
H764 C770 0.930 . S
H765 C774 0.930 . S
H766 C779 0.929 . S
H767 C777 0.929 . S
H768 C772 0.929 . S
H769 C778 0.929 . S
C770 H764 0.930 . S
C770 C771 1.367 . S
C770 C778 1.378 . S
C771 C770 1.367 . S
C771 C779 1.433 . S
C772 H768 0.929 . S
C772 C774 1.378 . S
C772 C776 1.350 . S
C773 C776 1.463 1_554 S
C773 C778 1.350 . S
C773 N781 1.427 1_554 S
C774 H765 0.930 . S
C774 C772 1.378 . S
C774 C775 1.367 . S
C775 C774 1.367 . S
C775 C777 1.433 . S
C776 C772 1.350 . S
C776 C773 1.463 1_556 S
C776 N780 1.427 . S
C777 H767 0.929 . S
C777 C775 1.433 . S
C777 N780 1.384 . S
C778 H769 0.929 . S
C778 C770 1.378 . S
C778 C773 1.350 . S
C779 H766 0.929 . S
C779 C771 1.433 . S
C779 N781 1.384 1_554 S
N780 C776 1.427 . S
N780 C777 1.384 . S
N781 C773 1.427 1_556 S
N781 C779 1.384 1_556 S
H782 C788 0.930 . S
H783 C792 0.930 . S
H784 C797 0.929 . S
H785 C795 0.929 . S
H786 C790 0.929 . S
H787 C796 0.929 . S
C788 H782 0.930 . S
C788 C789 1.367 . S
C788 C796 1.378 . S
C789 C788 1.367 . S
C789 C797 1.433 . S
C790 H786 0.929 . S
C790 C792 1.378 . S
C790 C794 1.350 . S
C791 C794 1.463 1_554 S
C791 C796 1.350 . S
C791 N799 1.427 . S
C792 H783 0.930 . S
C792 C790 1.378 . S
C792 C793 1.367 . S
C793 C792 1.367 . S
C793 C795 1.433 . S
C794 C790 1.350 . S
C794 C791 1.463 1_556 S
C794 N798 1.427 . S
C795 H785 0.929 . S
C795 C793 1.433 . S
C795 N798 1.384 . S
C796 H787 0.929 . S
C796 C788 1.378 . S
C796 C791 1.350 . S
C797 H784 0.929 . S
C797 C789 1.433 . S
C797 N799 1.384 . S
N798 C794 1.427 . S
N798 C795 1.384 . S
N799 C791 1.427 . S
N799 C797 1.384 . S
H800 C806 0.930 . S
H801 C810 0.930 . S
H802 C815 0.929 . S
H803 C813 0.923 1_455 S
H804 C808 0.929 . S
H805 C814 0.929 . S
C806 H800 0.930 . S
C806 C807 1.367 1_455 S
C806 C814 1.378 . S
C807 C806 1.367 1_655 S
C807 C815 1.433 . S
C808 H804 0.929 . S
C808 C810 1.378 . S
C808 C812 1.350 . S
C809 C812 1.463 . S
C809 C814 1.350 1_655 S
C809 N817 1.427 . S
C810 H801 0.930 . S
C810 C808 1.378 . S
C810 C811 1.367 . S
C811 C810 1.367 . S
C811 C813 1.433 . S
C812 C808 1.350 . S
C812 C809 1.463 . S
C812 N816 1.427 . S
C813 H803 0.923 1_655 S
C813 C811 1.433 . S
C813 N816 1.384 . S
C814 H805 0.929 . S
C814 C806 1.378 . S
C814 C809 1.350 1_455 S
C815 H802 0.929 . S
C815 C807 1.433 . S
C815 N817 1.384 . S
N816 C812 1.427 . S
N816 C813 1.384 . S
N817 C809 1.427 . S
N817 C815 1.384 . S
H818 C824 0.930 . S
H819 C828 0.930 . S
H820 C833 0.929 . S
H821 C831 0.929 . S
H822 C826 0.929 . S
H823 C832 0.929 . S
C824 H818 0.930 . S
C824 C825 1.367 . S
C824 C832 1.378 . S
C825 C824 1.367 . S
C825 C833 1.433 . S
C826 H822 0.929 . S
C826 C828 1.378 . S
C826 C830 1.350 . S
C827 C830 1.463 . S
C827 C832 1.350 . S
C827 N835 1.427 . S
C828 H819 0.930 . S
C828 C826 1.378 . S
C828 C829 1.367 . S
C829 C828 1.367 . S
C829 C831 1.433 . S
C830 C826 1.350 . S
C830 C827 1.463 . S
C830 N834 1.427 . S
C831 H821 0.929 . S
C831 C829 1.433 . S
C831 N834 1.384 . S
C832 H823 0.929 . S
C832 C824 1.378 . S
C832 C827 1.350 . S
C833 H820 0.929 . S
C833 C825 1.433 . S
C833 N835 1.384 . S
N834 C830 1.427 . S
N834 C831 1.384 . S
N835 C827 1.427 . S
N835 C833 1.384 . S
H836 C842 0.930 . S
H837 C846 0.930 . S
H838 C851 0.929 . S
H839 C849 0.929 . S
H840 C844 0.929 . S
H841 C850 0.929 . S
C842 H836 0.930 . S
C842 C843 1.367 . S
C842 C850 1.378 . S
C843 C842 1.367 . S
C843 C851 1.433 . S
C844 H840 0.929 . S
C844 C846 1.378 . S
C844 C848 1.350 . S
C845 C848 1.463 . S
C845 C850 1.350 . S
C845 N853 1.427 . S
C846 H837 0.930 . S
C846 C844 1.378 . S
C846 C847 1.367 . S
C847 C846 1.367 . S
C847 C849 1.433 . S
C848 C844 1.350 . S
C848 C845 1.463 . S
C848 N852 1.427 . S
C849 H839 0.929 . S
C849 C847 1.433 . S
C849 N852 1.384 . S
C850 H841 0.929 . S
C850 C842 1.378 . S
C850 C845 1.350 . S
C851 H838 0.929 . S
C851 C843 1.433 . S
C851 N853 1.384 . S
N852 C848 1.427 . S
N852 C849 1.384 . S
N853 C845 1.427 . S
N853 C851 1.384 . S
H854 C860 0.930 . S
H855 C864 0.930 . S
H856 C869 0.929 . S
H857 C867 0.929 . S
H858 C862 0.929 . S
H859 C868 0.929 . S
C860 H854 0.930 . S
C860 C861 1.367 . S
C860 C868 1.378 . S
C861 C860 1.367 . S
C861 C869 1.433 . S
C862 H858 0.929 . S
C862 C864 1.378 . S
C862 C866 1.350 . S
C863 C866 1.463 . S
C863 C868 1.350 . S
C863 N871 1.427 . S
C864 H855 0.930 . S
C864 C862 1.378 . S
C864 C865 1.367 . S
C865 C864 1.367 . S
C865 C867 1.433 . S
C866 C862 1.350 . S
C866 C863 1.463 . S
C866 N870 1.427 . S
C867 H857 0.929 . S
C867 C865 1.433 . S
C867 N870 1.384 . S
C868 H859 0.929 . S
C868 C860 1.378 . S
C868 C863 1.350 . S
C869 H856 0.929 . S
C869 C861 1.433 . S
C869 N871 1.384 . S
N870 C866 1.427 . S
N870 C867 1.384 . S
N871 C863 1.427 . S
N871 C869 1.384 . S
C447 C255 1.887 . S
C451 C330 1.911 . S
C469 C360 1.759 . S
C465 C295 1.739 . S
C487 N394 1.845 . S
C483 C175 1.831 . S
C505 N424 1.398 . S
C501 C215 1.447 1_655 S
C523 C321 1.918 1_565 S
C519 C95 1.885 . S
C537 C135 1.733 . S
C541 C351 1.754 . S
C555 C15 1.819 . S
C559 N386 1.843 . S
C573 C55 1.431 . S
C577 N416 1.383 . S
C595 C336 0.500 . S
C591 C221 0.567 . S
C613 C366 0.735 . S
C609 C261 0.739 . S
C631 C407 0.531 . S
C627 C301 0.589 . S
C645 C181 0.666 . S
C649 C437 0.662 . S
C663 C61 0.685 1_655 S
C667 C347 0.503 . S
C685 C377 0.726 . S
C681 C101 0.749 . S
C703 C396 0.510 . S
C699 C141 0.530 . S
C717 C21 0.734 . S
C721 C426 0.696 . S
C735 C202 1.756 . S
C739 N326 1.819 . S
C753 C242 1.934 . S
C757 N356 1.970 . S
C775 C381 1.968 . S
C771 C282 1.883 . S
C793 C411 2.263 . S
C789 C162 2.209 . S
C807 C42 1.780 1_655 S
C811 N334 1.818 . S
C829 N364 1.964 . S
C825 C82 1.863 . S
C847 C390 1.967 . S
C843 C122 1.919 . S
C861 C2 2.108 . S
C865 C420 2.267 . S
