# Generated by pormake.
# Topology eea, (3,6)-cn, num edge types: 1
# Building blocks:
#     Node 0, Type 0, BuildingBlock: OLANEW_clean_sbu_2, # of connection points: 3
#     Node 1, Type 0, BuildingBlock: OLANEW_clean_sbu_2, # of connection points: 3
#     Node 2, Type 0, BuildingBlock: OLANEW_clean_sbu_2, # of connection points: 3
#     Node 3, Type 0, BuildingBlock: OLANEW_clean_sbu_2, # of connection points: 3
#     Node 4, Type 0, BuildingBlock: OLANEW_clean_sbu_2, # of connection points: 3
#     Node 5, Type 0, BuildingBlock: OLANEW_clean_sbu_2, # of connection points: 3
#     Node 6, Type 0, BuildingBlock: OLANEW_clean_sbu_2, # of connection points: 3
#     Node 7, Type 0, BuildingBlock: OLANEW_clean_sbu_2, # of connection points: 3
#     Node 8, Type 0, BuildingBlock: OLANEW_clean_sbu_2, # of connection points: 3
#     Node 9, Type 0, BuildingBlock: OLANEW_clean_sbu_2, # of connection points: 3
#     Node 10, Type 0, BuildingBlock: OLANEW_clean_sbu_2, # of connection points: 3
#     Node 11, Type 0, BuildingBlock: OLANEW_clean_sbu_2, # of connection points: 3
#     Node 12, Type 0, BuildingBlock: OLANEW_clean_sbu_2, # of connection points: 3
#     Node 13, Type 0, BuildingBlock: OLANEW_clean_sbu_2, # of connection points: 3
#     Node 14, Type 0, BuildingBlock: OLANEW_clean_sbu_2, # of connection points: 3
#     Node 15, Type 0, BuildingBlock: OLANEW_clean_sbu_2, # of connection points: 3
#     Node 16, Type 0, BuildingBlock: OLANEW_clean_sbu_2, # of connection points: 3
#     Node 17, Type 0, BuildingBlock: OLANEW_clean_sbu_2, # of connection points: 3
#     Node 18, Type 1, BuildingBlock: KUMBUR_clean_sbu_0, # of connection points: 6
#     Node 19, Type 1, BuildingBlock: KUMBUR_clean_sbu_0, # of connection points: 6
#     Node 20, Type 1, BuildingBlock: KUMBUR_clean_sbu_0, # of connection points: 6
#     Node 21, Type 1, BuildingBlock: KUMBUR_clean_sbu_0, # of connection points: 6
#     Node 22, Type 1, BuildingBlock: KUMBUR_clean_sbu_0, # of connection points: 6
#     Node 23, Type 1, BuildingBlock: KUMBUR_clean_sbu_0, # of connection points: 6
#     Node 24, Type 1, BuildingBlock: KUMBUR_clean_sbu_0, # of connection points: 6
#     Node 25, Type 1, BuildingBlock: KUMBUR_clean_sbu_0, # of connection points: 6
#     Node 26, Type 1, BuildingBlock: KUMBUR_clean_sbu_0, # of connection points: 6
#     Edge 27, Type (0, 1), BuildingBlock: UVAHIK_clean_linker_0, # of connection points: 2
#     Edge 28, Type (0, 1), BuildingBlock: UVAHIK_clean_linker_0, # of connection points: 2
#     Edge 29, Type (0, 1), BuildingBlock: UVAHIK_clean_linker_0, # of connection points: 2
#     Edge 30, Type (0, 1), BuildingBlock: UVAHIK_clean_linker_0, # of connection points: 2
#     Edge 31, Type (0, 1), BuildingBlock: UVAHIK_clean_linker_0, # of connection points: 2
#     Edge 32, Type (0, 1), BuildingBlock: UVAHIK_clean_linker_0, # of connection points: 2
#     Edge 33, Type (0, 1), BuildingBlock: UVAHIK_clean_linker_0, # of connection points: 2
#     Edge 34, Type (0, 1), BuildingBlock: UVAHIK_clean_linker_0, # of connection points: 2
#     Edge 35, Type (0, 1), BuildingBlock: UVAHIK_clean_linker_0, # of connection points: 2
#     Edge 36, Type (0, 1), BuildingBlock: UVAHIK_clean_linker_0, # of connection points: 2
#     Edge 37, Type (0, 1), BuildingBlock: UVAHIK_clean_linker_0, # of connection points: 2
#     Edge 38, Type (0, 1), BuildingBlock: UVAHIK_clean_linker_0, # of connection points: 2
#     Edge 39, Type (0, 1), BuildingBlock: UVAHIK_clean_linker_0, # of connection points: 2
#     Edge 40, Type (0, 1), BuildingBlock: UVAHIK_clean_linker_0, # of connection points: 2
#     Edge 41, Type (0, 1), BuildingBlock: UVAHIK_clean_linker_0, # of connection points: 2
#     Edge 42, Type (0, 1), BuildingBlock: UVAHIK_clean_linker_0, # of connection points: 2
#     Edge 43, Type (0, 1), BuildingBlock: UVAHIK_clean_linker_0, # of connection points: 2
#     Edge 44, Type (0, 1), BuildingBlock: UVAHIK_clean_linker_0, # of connection points: 2
#     Edge 45, Type (0, 1), BuildingBlock: UVAHIK_clean_linker_0, # of connection points: 2
#     Edge 46, Type (0, 1), BuildingBlock: UVAHIK_clean_linker_0, # of connection points: 2
#     Edge 47, Type (0, 1), BuildingBlock: UVAHIK_clean_linker_0, # of connection points: 2
#     Edge 48, Type (0, 1), BuildingBlock: UVAHIK_clean_linker_0, # of connection points: 2
#     Edge 49, Type (0, 1), BuildingBlock: UVAHIK_clean_linker_0, # of connection points: 2
#     Edge 50, Type (0, 1), BuildingBlock: UVAHIK_clean_linker_0, # of connection points: 2
#     Edge 51, Type (0, 1), BuildingBlock: UVAHIK_clean_linker_0, # of connection points: 2
#     Edge 52, Type (0, 1), BuildingBlock: UVAHIK_clean_linker_0, # of connection points: 2
#     Edge 53, Type (0, 1), BuildingBlock: UVAHIK_clean_linker_0, # of connection points: 2
#     Edge 54, Type (0, 1), BuildingBlock: UVAHIK_clean_linker_0, # of connection points: 2
#     Edge 55, Type (0, 1), BuildingBlock: UVAHIK_clean_linker_0, # of connection points: 2
#     Edge 56, Type (0, 1), BuildingBlock: UVAHIK_clean_linker_0, # of connection points: 2
#     Edge 57, Type (0, 1), BuildingBlock: UVAHIK_clean_linker_0, # of connection points: 2
#     Edge 58, Type (0, 1), BuildingBlock: UVAHIK_clean_linker_0, # of connection points: 2
#     Edge 59, Type (0, 1), BuildingBlock: UVAHIK_clean_linker_0, # of connection points: 2
#     Edge 60, Type (0, 1), BuildingBlock: UVAHIK_clean_linker_0, # of connection points: 2
#     Edge 61, Type (0, 1), BuildingBlock: UVAHIK_clean_linker_0, # of connection points: 2
#     Edge 62, Type (0, 1), BuildingBlock: UVAHIK_clean_linker_0, # of connection points: 2
#     Edge 63, Type (0, 1), BuildingBlock: UVAHIK_clean_linker_0, # of connection points: 2
#     Edge 64, Type (0, 1), BuildingBlock: UVAHIK_clean_linker_0, # of connection points: 2
#     Edge 65, Type (0, 1), BuildingBlock: UVAHIK_clean_linker_0, # of connection points: 2
#     Edge 66, Type (0, 1), BuildingBlock: UVAHIK_clean_linker_0, # of connection points: 2
#     Edge 67, Type (0, 1), BuildingBlock: UVAHIK_clean_linker_0, # of connection points: 2
#     Edge 68, Type (0, 1), BuildingBlock: UVAHIK_clean_linker_0, # of connection points: 2
#     Edge 69, Type (0, 1), BuildingBlock: UVAHIK_clean_linker_0, # of connection points: 2
#     Edge 70, Type (0, 1), BuildingBlock: UVAHIK_clean_linker_0, # of connection points: 2
#     Edge 71, Type (0, 1), BuildingBlock: UVAHIK_clean_linker_0, # of connection points: 2
#     Edge 72, Type (0, 1), BuildingBlock: UVAHIK_clean_linker_0, # of connection points: 2
#     Edge 73, Type (0, 1), BuildingBlock: UVAHIK_clean_linker_0, # of connection points: 2
#     Edge 74, Type (0, 1), BuildingBlock: UVAHIK_clean_linker_0, # of connection points: 2
#     Edge 75, Type (0, 1), BuildingBlock: UVAHIK_clean_linker_0, # of connection points: 2
#     Edge 76, Type (0, 1), BuildingBlock: UVAHIK_clean_linker_0, # of connection points: 2
#     Edge 77, Type (0, 1), BuildingBlock: UVAHIK_clean_linker_0, # of connection points: 2
#     Edge 78, Type (0, 1), BuildingBlock: UVAHIK_clean_linker_0, # of connection points: 2
#     Edge 79, Type (0, 1), BuildingBlock: UVAHIK_clean_linker_0, # of connection points: 2
#     Edge 80, Type (0, 1), BuildingBlock: UVAHIK_clean_linker_0, # of connection points: 2
# Relax obj value: 0.011
# Max RMSD: 0.148
# Mean RMSD: 0.104
data_MOF--net-eea--node1-OLANEW_clean_sbu_2--node2-KUMBUR_clean_sbu_0--edge1-UVAHIK_clean_linker_0
_symmetry_space_group_name_H-M    P1
_symmetry_Int_Tables_number       1
_symmetry_cell_setting            triclinic
loop_
_symmetry_equiv_pos_as_xyz
'x, y, z'
_cell_length_a     77.206174
_cell_length_b     78.477092
_cell_length_c     83.630781
_cell_angle_alpha  94.927353
_cell_angle_beta   90.10942
_cell_angle_gamma 120.38803
loop_
_atom_site_label
_atom_site_type_symbol
_atom_site_fract_x
_atom_site_fract_y
_atom_site_fract_z
_atom_type_partial_charge
O0 O 0.22499 0.11555 0.43798 0.0
Cd1 Cd 0.20299 0.10136 0.41359 0.0
O2 O 0.25205 0.12442 0.42424 0.0
Cd3 Cd 0.23482 0.10694 0.40227 0.0
O4 O 0.22227 0.07717 0.39002 0.0
C5 C 0.23188 0.06878 0.39383 0.0
O6 O 0.2479 0.07885 0.40367 0.0
C7 C 0.24404 0.12425 0.43755 0.0
C8 C 0.1991 0.13075 0.40051 0.0
O9 O 0.18559 0.11877 0.4093 0.0
O10 O 0.21425 0.12864 0.39771 0.0
O11 O 0.899 0.15171 0.42102 0.0
Cd12 Cd 0.90636 0.14843 0.39289 0.0
O13 O 0.88965 0.12037 0.42067 0.0
Cd14 Cd 0.87393 0.09047 0.42831 0.0
O15 O 0.85383 0.05839 0.42615 0.0
C16 C 0.83602 0.05107 0.43078 0.0
O17 O 0.83041 0.06303 0.43776 0.0
C18 C 0.89157 0.13606 0.42819 0.0
C19 C 0.94617 0.17363 0.38602 0.0
O20 O 0.93325 0.1793 0.38576 0.0
O21 O 0.9403 0.15608 0.38977 0.0
O22 O 0.89652 0.75731 0.4351 0.0
Cd23 Cd 0.90813 0.77693 0.41199 0.0
O24 O 0.86504 0.7505 0.43337 0.0
Cd25 Cd 0.86449 0.7659 0.41291 0.0
O26 O 0.84578 0.77499 0.40054 0.0
C27 C 0.83592 0.78044 0.40966 0.0
O28 O 0.8384 0.78103 0.42529 0.0
C29 C 0.87888 0.74904 0.44028 0.0
C30 C 0.94518 0.78264 0.40181 0.0
O31 O 0.9443 0.79384 0.41348 0.0
O32 O 0.92856 0.76866 0.39495 0.0
O33 O 0.13341 0.22101 0.58595 0.0
Cd34 Cd 0.12315 0.20144 0.6091 0.0
O35 O 0.10521 0.22095 0.58111 0.0
Cd36 Cd 0.08723 0.20623 0.60124 0.0
O37 O 0.05962 0.19776 0.61413 0.0
C38 C 0.04385 0.19233 0.60535 0.0
O39 O 0.04509 0.19141 0.58966 0.0
C40 C 0.12299 0.22565 0.57746 0.0
C41 C 0.15338 0.1948 0.62024 0.0
O42 O 0.1412 0.18378 0.60838 0.0
O43 O 0.15133 0.20898 0.62687 0.0
O44 O 0.76573 0.85461 0.59191 0.0
Cd45 Cd 0.78822 0.86839 0.61607 0.0
O46 O 0.79006 0.8728 0.57651 0.0
Cd47 Cd 0.80947 0.8924 0.59697 0.0
O48 O 0.81511 0.91935 0.61148 0.0
C49 C 0.80045 0.9224 0.61081 0.0
O50 O 0.78395 0.90914 0.60242 0.0
C51 C 0.77199 0.85918 0.57797 0.0
C52 C 0.79735 0.84069 0.62601 0.0
O53 O 0.78335 0.84277 0.63237 0.0
O54 O 0.80715 0.85183 0.61508 0.0
O55 O 0.04824 0.85898 0.54815 0.0
Cd56 Cd 0.02421 0.86303 0.5645 0.0
O57 O 0.07188 0.88087 0.56547 0.0
Cd58 Cd 0.10197 0.8998 0.57692 0.0
O59 O 0.129 0.92406 0.58972 0.0
C60 C 0.14656 0.93009 0.58482 0.0
O61 O 0.14881 0.92112 0.57168 0.0
C62 C 0.06676 0.86917 0.5526 0.0
C63 C 0.0048 0.83212 0.58383 0.0
O64 O -0.00217 0.83084 0.56958 0.0
O65 O 0.021 0.84811 0.589 0.0
O66 O 0.87667 0.44426 0.77475 0.0
Cd67 Cd 0.85088 0.43209 0.75295 0.0
O68 O 0.89422 0.43293 0.76192 0.0
Cd69 Cd 0.87261 0.4162 0.7417 0.0
O70 O 0.8622 0.38727 0.72831 0.0
C71 C 0.87465 0.38134 0.72972 0.0
O72 O 0.8917 0.39311 0.73805 0.0
C73 C 0.89208 0.44239 0.77412 0.0
C74 C 0.84985 0.46363 0.74093 0.0
O75 O 0.84007 0.4558 0.7532 0.0
O76 O 0.86001 0.45643 0.73424 0.0
O77 O 0.56344 0.47899 0.75452 0.0
Cd78 Cd 0.57115 0.47482 0.72665 0.0
O79 O 0.55412 0.44774 0.75498 0.0
Cd80 Cd 0.53839 0.41823 0.76336 0.0
O81 O 0.51837 0.38617 0.76178 0.0
C82 C 0.50052 0.37889 0.76634 0.0
O83 O 0.49478 0.39092 0.77295 0.0
C84 C 0.55599 0.46363 0.76206 0.0
C85 C 0.61051 0.50156 0.71975 0.0
O86 O 0.5967 0.506 0.71889 0.0
O87 O 0.60574 0.4845 0.72406 0.0
O88 O 0.55861 0.07629 0.76339 0.0
Cd89 Cd 0.56606 0.08877 0.73688 0.0
O90 O 0.53654 0.08538 0.77009 0.0
Cd91 Cd 0.5333 0.097 0.74808 0.0
O92 O 0.51422 0.10502 0.7349 0.0
C93 C 0.50381 0.11013 0.74365 0.0
O94 O 0.50584 0.11079 0.75933 0.0
C95 C 0.54684 0.07751 0.77346 0.0
C96 C 0.60398 0.09619 0.72751 0.0
O97 O 0.60169 0.11012 0.73438 0.0
O98 O 0.58839 0.0788 0.72506 0.0
O99 O 0.80044 0.55729 0.91821 0.0
Cd100 Cd 0.79399 0.54213 0.94362 0.0
O101 O 0.77805 0.56696 0.91988 0.0
Cd102 Cd 0.76133 0.55253 0.94058 0.0
O103 O 0.73329 0.5423 0.95321 0.0
C104 C 0.717 0.53304 0.94452 0.0
O105 O 0.71797 0.52944 0.929 0.0
C106 C 0.7923 0.56637 0.91272 0.0
C107 C 0.82539 0.53639 0.95332 0.0
O108 O 0.80959 0.52232 0.94553 0.0
O109 O 0.82638 0.55313 0.95655 0.0
O110 O 0.42775 0.18525 0.92704 0.0
Cd111 Cd 0.44853 0.19779 0.9521 0.0
O112 O 0.45317 0.20479 0.91309 0.0
Cd113 Cd 0.47103 0.22352 0.93447 0.0
O114 O 0.4766 0.25047 0.94892 0.0
C115 C 0.46213 0.25377 0.94803 0.0
O116 O 0.44568 0.24067 0.93951 0.0
C117 C 0.43505 0.1908 0.91355 0.0
C118 C 0.45704 0.16944 0.96147 0.0
O119 O 0.44253 0.17098 0.96736 0.0
O120 O 0.46767 0.18145 0.9513 0.0
O121 O 0.75326 0.18976 0.91746 0.0
Cd122 Cd 0.74367 0.19856 0.94339 0.0
O123 O 0.78514 0.20763 0.92575 0.0
Cd124 Cd 0.78215 0.22173 0.94836 0.0
O125 O 0.80097 0.25022 0.96251 0.0
C126 C 0.81966 0.25647 0.96174 0.0
O127 O 0.82522 0.24502 0.95374 0.0
C128 C 0.77167 0.19596 0.91503 0.0
C129 C 0.7097 0.16664 0.95452 0.0
O130 O 0.70819 0.1793 0.94682 0.0
O131 O 0.72724 0.16904 0.9569 0.0
O132 O 0.5478 0.77916 0.10687 0.0
Cd133 Cd 0.52402 0.76614 0.08354 0.0
O134 O 0.56876 0.77165 0.09489 0.0
Cd135 Cd 0.54891 0.75418 0.07391 0.0
O136 O 0.53859 0.72535 0.06038 0.0
C137 C 0.55094 0.71927 0.06164 0.0
O138 O 0.56806 0.73089 0.06992 0.0
C139 C 0.56442 0.77946 0.107 0.0
C140 C 0.52064 0.79647 0.07154 0.0
O141 O 0.50957 0.78681 0.08269 0.0
O142 O 0.53321 0.79167 0.06596 0.0
O143 O 0.23204 0.79894 0.09243 0.0
Cd144 Cd 0.23769 0.7886 0.06543 0.0
O145 O 0.23814 0.77854 0.10447 0.0
Cd146 Cd 0.23708 0.76205 0.08179 0.0
O147 O 0.21596 0.73494 0.06691 0.0
C148 C 0.19775 0.73063 0.06757 0.0
O149 O 0.19378 0.74303 0.07605 0.0
C150 C 0.23412 0.79242 0.10528 0.0
C151 C 0.27482 0.81677 0.055 0.0
O152 O 0.25918 0.81826 0.05313 0.0
O153 O 0.27291 0.80189 0.06176 0.0
O154 O 0.23027 0.4204 0.10112 0.0
Cd155 Cd 0.23955 0.43387 0.07501 0.0
O156 O 0.20009 0.41714 0.1011 0.0
Cd157 Cd 0.19868 0.43034 0.07943 0.0
O158 O 0.18105 0.44017 0.06635 0.0
C159 C 0.17424 0.44949 0.07486 0.0
O160 O 0.17896 0.45334 0.09038 0.0
C161 C 0.21364 0.41496 0.10769 0.0
C162 C 0.277 0.4397 0.06572 0.0
O163 O 0.27546 0.45394 0.0729 0.0
O164 O 0.26093 0.4227 0.06303 0.0
O165 O 0.46732 0.89317 0.25542 0.0
Cd166 Cd 0.45965 0.88018 0.28172 0.0
O167 O 0.43792 0.89024 0.24977 0.0
Cd168 Cd 0.42225 0.87902 0.27165 0.0
O169 O 0.39518 0.87216 0.2847 0.0
C170 C 0.37959 0.86698 0.27579 0.0
O171 O 0.38088 0.86551 0.26012 0.0
C172 C 0.45565 0.89506 0.24591 0.0
C173 C 0.48869 0.87189 0.29274 0.0
O174 O 0.47258 0.85836 0.28492 0.0
O175 O 0.49105 0.88929 0.29538 0.0
O176 O 0.06845 0.49563 0.26346 0.0
Cd177 Cd 0.0828 0.50206 0.29087 0.0
O178 O 0.08775 0.52779 0.26473 0.0
Cd179 Cd 0.09923 0.55784 0.25812 0.0
O180 O 0.10902 0.58932 0.26151 0.0
C181 C 0.12479 0.60089 0.27033 0.0
O182 O 0.13521 0.59367 0.27633 0.0
C183 C 0.07502 0.51156 0.25678 0.0
C184 C 0.09815 0.47813 0.2979 0.0
O185 O 0.0805 0.47392 0.3019 0.0
O186 O 0.10841 0.49348 0.29038 0.0
O187 O 0.428 0.52509 0.24997 0.0
Cd188 Cd 0.41955 0.53661 0.27521 0.0
O189 O 0.4524 0.52371 0.26228 0.0
Cd190 Cd 0.45204 0.54018 0.28446 0.0
O191 O 0.47049 0.5703 0.296 0.0
C192 C 0.48884 0.57834 0.29259 0.0
O193 O 0.49462 0.56777 0.28355 0.0
C194 C 0.44177 0.52072 0.24957 0.0
C195 C 0.38624 0.5055 0.28765 0.0
O196 O 0.38432 0.51744 0.27927 0.0
O197 O 0.40393 0.50837 0.29025 0.0
Tb198 Tb 0.48917 0.97322 0.98968 0.0
C199 C 0.53761 0.04509 0.03917 0.0
C200 C 0.57177 0.05253 0.03621 0.0
C201 C 0.56519 0.07915 0.04425 0.0
C202 C 0.55091 0.03887 0.03522 0.0
C203 C 0.54454 0.06518 0.04426 0.0
C204 C 0.57881 0.07282 0.04021 0.0
C205 C 0.51059 0.05561 0.05092 0.0
N206 N 0.51794 0.03103 0.03931 0.0
C207 C 0.50455 0.03583 0.04588 0.0
C208 C 0.53063 0.07043 0.04984 0.0
Tb209 Tb 0.50893 -0.00083 0.02976 0.0
N210 N 0.5434 0.01913 0.03167 0.0
C211 C 0.55623 0.01189 0.03043 0.0
C212 C 0.58488 0.04528 0.03381 0.0
C213 C 0.57708 0.02483 0.03126 0.0
H214 H 0.48902 0.02447 0.04669 0.0
H215 H 0.5871 0.019 0.0298 0.0
H216 H 0.59476 0.08361 0.04079 0.0
H217 H 0.49979 0.05941 0.05563 0.0
H218 H 0.55059 -0.00382 0.02829 0.0
H219 H 0.41094 0.95304 0.98669 0.0
H220 H 0.60102 0.05527 0.03443 0.0
H221 H 0.51082 0.94788 0.9763 0.0
H222 H 0.44741 0.976 0.99002 0.0
H223 H 0.5005 0.91312 0.96724 0.0
H224 H 0.57083 0.09473 0.04791 0.0
H225 H 0.39738 0.91694 0.98096 0.0
H226 H 0.40409 0.88891 0.97476 0.0
H227 H 0.53531 0.08571 0.05386 0.0
H228 H 0.42852 0.87799 0.96938 0.0
N229 N 0.45484 0.95324 0.98656 0.0
C230 C 0.4419 0.96035 0.98744 0.0
C231 C 0.41349 0.92698 0.98238 0.0
C232 C 0.42681 0.91989 0.98054 0.0
C233 C 0.4211 0.94734 0.98556 0.0
C234 C 0.44763 0.9336 0.98259 0.0
H235 H 0.46455 0.88699 0.96624 0.0
N236 N 0.48106 0.94144 0.98084 0.0
C237 C 0.4893 0.91693 0.97077 0.0
C238 C 0.46125 0.92746 0.97961 0.0
C239 C 0.49509 0.93663 0.97587 0.0
C240 C 0.469 0.90222 0.97026 0.0
C241 C 0.45464 0.90744 0.97445 0.0
O242 O 0.5042 0.97849 0.9681 0.0
O243 O 0.51377 -0.00297 0.00451 0.0
O244 O 0.50436 0.01925 0.01618 0.0
O245 O 0.48302 -0.00228 0.99438 0.0
O246 O 0.52092 0.98258 0.98679 0.0
O247 O 0.47863 0.98237 0.97087 0.0
O248 O 0.49594 -0.00523 0.0523 0.0
O249 O 0.48415 0.97619 0.01474 0.0
O250 O 0.49057 0.95242 0.00455 0.0
O251 O 0.51505 0.9747 0.02406 0.0
O252 O 0.47715 -0.01076 0.03364 0.0
O253 O 0.51904 -0.01219 0.04704 0.0
C254 C 0.52842 -0.0029 0.99792 0.0
C255 C 0.48446 0.97304 0.9447 0.0
C256 C 0.48676 0.97515 0.91575 0.0
C257 C 0.4928 0.98417 0.93162 0.0
C258 C 0.47218 0.95486 0.91317 0.0
C259 C 0.46976 0.95288 0.94188 0.0
C260 C 0.46368 0.94385 0.92617 0.0
C261 C 0.49185 0.0149 0.0036 0.0
C262 C 0.49187 0.98259 0.96111 0.0
C263 C 0.43393 0.89349 0.97316 0.0
C264 C 0.42003 0.89971 0.97622 0.0
C265 C 0.46953 0.97572 0.02173 0.0
C266 C 0.51749 -0.00177 0.07393 0.0
C267 C 0.51124 -0.01305 0.08713 0.0
C268 C 0.52093 -0.00476 0.10244 0.0
C269 C 0.53687 0.01506 0.10434 0.0
C270 C 0.5334 0.01795 0.07609 0.0
C271 C 0.54299 0.02632 0.09124 0.0
C272 C 0.504 0.95666 0.01636 0.0
C273 C 0.50763 -0.01099 0.05796 0.0
H274 H 0.50426 -0.00026 0.93379 0.0
H275 H 0.46717 0.94758 0.90108 0.0
H276 H 0.46306 0.94411 0.95175 0.0
H277 H 0.45236 0.92827 0.92408 0.0
H278 H 0.4991 0.97162 0.08539 0.0
H279 H 0.54446 0.02194 0.11601 0.0
H280 H 0.53849 0.02683 0.0661 0.0
H281 H 0.55525 0.04156 0.09283 0.0
Tb282 Tb 0.01548 0.49586 0.99224 0.0
C283 C 0.94639 0.48058 0.03612 0.0
C284 C 0.93827 0.50586 0.03182 0.0
C285 C 0.91227 0.47383 0.03929 0.0
C286 C 0.95216 0.49922 0.03191 0.0
C287 C 0.92649 0.46775 0.04018 0.0
C288 C 0.91817 0.49288 0.03512 0.0
C289 C 0.9367 0.44471 0.04704 0.0
N290 N 0.96063 0.4754 0.03697 0.0
C291 C 0.95627 0.45804 0.04298 0.0
C292 C 0.92167 0.44947 0.04545 0.0
Tb293 Tb 0.99213 0.49789 0.0296 0.0
N294 N 0.97175 0.5113 0.02895 0.0
C295 C 0.97877 0.53086 0.02711 0.0
C296 C 0.94517 0.52553 0.02896 0.0
C297 C 0.96558 0.53817 0.02689 0.0
H298 H 0.96774 0.45415 0.04415 0.0
H299 H 0.97117 0.55354 0.025 0.0
H300 H 0.90721 0.49762 0.03492 0.0
H301 H 0.93322 0.43077 0.05137 0.0
H302 H 0.99445 0.54086 0.02538 0.0
H303 H 0.03681 0.44039 0.9964 0.0
H304 H 0.93499 0.53122 0.02874 0.0
H305 H 0.03972 0.53982 0.97796 0.0
H306 H 0.01344 0.45294 0.99631 0.0
H307 H 0.07416 0.56332 0.97071 0.0
H308 H 0.89685 0.46414 0.04222 0.0
H309 H 0.07289 0.46277 0.99234 0.0
H310 H 0.10051 0.49642 0.98613 0.0
H311 H 0.90654 0.43917 0.04866 0.0
H312 H 0.11071 0.52997 0.97908 0.0
N313 N 0.03595 0.48251 0.99257 0.0
C314 C 0.02906 0.46298 0.99444 0.0
C315 C 0.06267 0.46841 0.99226 0.0
C316 C 0.06945 0.48808 0.98946 0.0
C317 C 0.04231 0.45573 0.9945 0.0
C318 C 0.05551 0.49467 0.98955 0.0
H319 H 0.1009 0.55496 0.97306 0.0
N320 N 0.04693 0.51851 0.98486 0.0
C321 C 0.07074 0.54934 0.97492 0.0
C322 C 0.06121 0.51336 0.98551 0.0
C323 C 0.0512 0.53593 0.97901 0.0
C324 C 0.08581 0.5446 0.9763 0.0
C325 C 0.08106 0.52627 0.98139 0.0
O326 O 0.00805 0.4995 0.96907 0.0
O327 O 0.99267 0.4995 0.0041 0.0
O328 O 0.97001 0.47169 0.01433 0.0
O329 O 0.99131 0.46616 0.99767 0.0
O330 O 0.00559 0.51632 0.98571 0.0
O331 O 0.00472 0.47164 0.97445 0.0
O332 O -0.00148 0.49417 0.0531 0.0
O333 O 0.01474 0.49402 0.01772 0.0
O334 O 0.03772 0.52179 0.0076 0.0
O335 O 0.01659 0.52755 0.02429 0.0
O336 O 0.00227 0.47772 0.03645 0.0
O337 O 0.00362 0.52247 0.04704 0.0
C338 C 0.99212 0.51207 0.99607 0.0
C339 C 0.01305 0.48087 0.94809 0.0
C340 C 0.01176 0.47933 0.91878 0.0
C341 C 0.00305 0.47936 0.93356 0.0
C342 C 0.03072 0.48084 0.91884 0.0
C343 C 0.03181 0.48211 0.94787 0.0
C344 C 0.04059 0.48213 0.9333 0.0
C345 C 0.97366 0.46011 0.00416 0.0
C346 C 0.00389 0.48184 0.96328 0.0
C347 C 0.09532 0.52021 0.98206 0.0
C348 C 0.08951 0.50112 0.98608 0.0
C349 C 0.01552 0.48171 0.02593 0.0
C350 C 0.994 0.51402 0.07339 0.0
C351 C 0.00203 0.51324 0.08819 0.0
C352 C 0.9933 0.51468 0.10263 0.0
C353 C 0.9763 0.51684 0.10199 0.0
C354 C 0.97712 0.5163 0.07303 0.0
C355 C 0.96832 0.51766 0.08728 0.0
C356 C 0.03426 0.53342 0.01788 0.0
C357 C 0.00336 0.51215 0.05854 0.0
H358 H 0.98838 0.47803 0.93383 0.0
H359 H 0.03805 0.48121 0.90775 0.0
H360 H 0.03969 0.4831 0.95888 0.0
H361 H 0.05515 0.48325 0.93322 0.0
H362 H 0.01526 0.51177 0.08843 0.0
H363 H 0.96904 0.51769 0.11285 0.0
H364 H 0.97075 0.51711 0.06182 0.0
H365 H 0.95524 0.51932 0.08691 0.0
Tb366 Tb 0.50909 0.48356 0.02562 0.0
C367 C 0.45517 0.49762 0.98111 0.0
C368 C 0.42126 0.47168 0.98512 0.0
C369 C 0.42742 0.5035 0.97771 0.0
C370 C 0.44209 0.47883 0.98519 0.0
C371 C 0.44802 0.51009 0.97699 0.0
C372 C 0.41404 0.4843 0.98177 0.0
C373 C 0.48179 0.53382 0.97043 0.0
N374 N 0.47487 0.50329 0.98044 0.0
C375 C 0.48811 0.52083 0.97455 0.0
C376 C 0.4617 0.52854 0.97185 0.0
Tb377 Tb 0.484 0.48138 0.98795 0.0
N378 N 0.44969 0.46711 0.98817 0.0
C379 C 0.43695 0.44744 0.98988 0.0
C380 C 0.40829 0.4519 0.98786 0.0
C381 C 0.41616 0.43963 0.98996 0.0
H382 H 0.5037 0.52512 0.97352 0.0
H383 H 0.40623 0.42418 0.99175 0.0
H384 H 0.39812 0.47917 0.98184 0.0
H385 H 0.49243 0.54789 0.96619 0.0
H386 H 0.4427 0.43772 0.99164 0.0
H387 H 0.58708 0.54053 0.02237 0.0
H388 H 0.39219 0.44583 0.98796 0.0
H389 H 0.48892 0.43949 0.03963 0.0
H390 H 0.55062 0.52715 0.02213 0.0
H391 H 0.49992 0.41651 0.04689 0.0
H392 H 0.42162 0.51291 0.97474 0.0
H393 H 0.60089 0.51875 0.02639 0.0
H394 H 0.59467 0.48528 0.03239 0.0
H395 H 0.45682 0.53858 0.96859 0.0
H396 H 0.5709 0.45144 0.03912 0.0
N397 N 0.5434 0.4977 0.02564 0.0
C398 C 0.55626 0.51737 0.02398 0.0
C399 C 0.58479 0.51274 0.02632 0.0
C400 C 0.57169 0.49293 0.02892 0.0
C401 C 0.57705 0.52508 0.0241 0.0
C402 C 0.55086 0.48585 0.02863 0.0
H403 H 0.53554 0.42574 0.04482 0.0
N404 N 0.5179 0.46136 0.03299 0.0
C405 C 0.51068 0.43064 0.04279 0.0
C406 C 0.53762 0.46698 0.03249 0.0
C407 C 0.50451 0.44375 0.0387 0.0
C408 C 0.53078 0.43588 0.04156 0.0
C409 C 0.54462 0.4544 0.03663 0.0
O410 O 0.49731 0.47935 0.04853 0.0
O411 O 0.48246 0.47944 0.01341 0.0
O412 O 0.48799 0.50723 1.00323 0.0
O413 O 0.51473 0.5131 0.02046 0.0
O414 O 0.47818 0.46234 0.03158 0.0
O415 O 0.52277 0.50741 0.04377 0.0
O416 O 0.49477 0.48561 0.96467 0.0
O417 O 0.51065 0.48582 1.0002 0.0
O418 O 0.50561 0.45812 0.01019 0.0
O419 O 0.47864 0.45188 0.99309 0.0
O420 O 0.51487 0.50233 0.98163 0.0
O421 O 0.47097 0.45697 0.9703 0.0
C422 C 0.469 0.46649 0.02117 0.0
C423 C 0.52102 0.49734 0.0699 0.0
C424 C 0.52032 0.49717 0.0991 0.0
C425 C 0.51215 0.49811 0.08435 0.0
C426 C 0.53764 0.49547 0.09906 0.0
C427 C 0.53847 0.49604 0.07019 0.0
C428 C 0.54668 0.49506 0.08471 0.0
C429 C 0.50314 0.51887 0.01376 0.0
C430 C 0.5112 0.49688 0.05468 0.0
C431 C 0.56522 0.46094 0.03614 0.0
C432 C 0.57875 0.4802 0.03229 0.0
C433 C 0.52409 0.49849 0.99225 0.0
C434 C 0.47063 0.4655 0.94389 0.0
C435 C 0.47958 0.46558 0.92929 0.0
C436 C 0.46979 0.46419 0.91462 0.0
C437 C 0.45087 0.46272 0.91478 0.0
C438 C 0.45169 0.46389 0.9438 0.0
C439 C 0.44189 0.46254 0.92929 0.0
C440 C 0.49055 0.44638 0.99964 0.0
C441 C 0.48156 0.46754 0.95901 0.0
H442 H 0.49892 0.49955 0.08402 0.0
H443 H 0.54413 0.49425 0.11008 0.0
H444 H 0.5457 0.49568 0.05927 0.0
H445 H 0.56003 0.49383 0.08482 0.0
H446 H 0.49432 0.46704 0.9294 0.0
H447 H 0.44289 0.46145 0.90366 0.0
H448 H 0.44443 0.46365 0.95487 0.0
H449 H 0.42728 0.46129 0.9293 0.0
Tb450 Tb 0.16821 0.31036 0.3248 0.0
C451 C 0.2198 0.38175 0.37438 0.0
C452 C 0.25353 0.38857 0.37012 0.0
C453 C 0.24795 0.41553 0.3794 0.0
C454 C 0.23262 0.37522 0.36962 0.0
C455 C 0.22726 0.40186 0.37979 0.0
C456 C 0.26109 0.40887 0.37455 0.0
C457 C 0.19373 0.39291 0.38729 0.0
N458 N 0.20007 0.36798 0.37482 0.0
C459 C 0.18715 0.3731 0.38191 0.0
C460 C 0.21383 0.40744 0.386 0.0
Tb461 Tb 0.19013 0.33604 0.36474 0.0
N462 N 0.22464 0.35548 0.36568 0.0
C463 C 0.23707 0.34788 0.36346 0.0
C464 C 0.26621 0.38097 0.36677 0.0
C465 C 0.25795 0.36049 0.36376 0.0
H466 H 0.17158 0.36196 0.38293 0.0
H467 H 0.26764 0.35438 0.36155 0.0
H468 H 0.27709 0.41942 0.37479 0.0
H469 H 0.1833 0.39695 0.39245 0.0
H470 H 0.23105 0.33213 0.36096 0.0
H471 H 0.09059 0.29218 0.32134 0.0
H472 H 0.28237 0.3907 0.36697 0.0
H473 H 0.18889 0.28381 0.31231 0.0
H474 H 0.12715 0.3144 0.32485 0.0
H475 H 0.17775 0.24869 0.30386 0.0
H476 H 0.25399 0.43111 0.38332 0.0
H477 H 0.07617 0.25593 0.31572 0.0
H478 H 0.08196 0.22725 0.30992 0.0
H479 H 0.21894 0.42275 0.39028 0.0
H480 H 0.10573 0.21536 0.30512 0.0
N481 N 0.13382 0.29108 0.32165 0.0
C482 C 0.12128 0.29868 0.32236 0.0
C483 C 0.09233 0.26564 0.31722 0.0
C484 C 0.10524 0.25804 0.3156 0.0
C485 C 0.10042 0.28609 0.32036 0.0
C486 C 0.12614 0.27134 0.31776 0.0
H487 H 0.14153 0.2233 0.30261 0.0
N488 N 0.15931 0.27829 0.31624 0.0
C489 C 0.16679 0.25298 0.30701 0.0
C490 C 0.13939 0.26469 0.31495 0.0
C491 C 0.17304 0.27288 0.31173 0.0
C492 C 0.14634 0.23868 0.30636 0.0
C493 C 0.13231 0.24451 0.31009 0.0
O494 O 0.18124 0.31357 0.30235 0.0
O495 O 0.19359 0.33359 0.33927 0.0
O496 O 0.18513 0.35642 0.3519 0.0
O497 O 0.16261 0.33503 0.33052 0.0
O498 O 0.19976 0.31944 0.32074 0.0
O499 O 0.15901 0.32202 0.30712 0.0
O500 O 0.17771 0.331 0.38748 0.0
O501 O 0.16444 0.3139 0.35006 0.0
O502 O 0.16844 0.28925 0.33995 0.0
O503 O 0.19524 0.31111 0.35785 0.0
O504 O 0.15887 0.32696 0.36993 0.0
O505 O 0.20076 0.32429 0.38127 0.0
C506 C 0.20788 0.33378 0.332 0.0
C507 C 0.16082 0.31127 0.28029 0.0
C508 C 0.15879 0.31472 0.2517 0.0
C509 C 0.16803 0.32264 0.26719 0.0
C510 C 0.14234 0.29518 0.24951 0.0
C511 C 0.14448 0.2918 0.27783 0.0
C512 C 0.13532 0.28381 0.2625 0.0
C513 C 0.17206 0.35219 0.33975 0.0
C514 C 0.17033 0.32011 0.29642 0.0
C515 C 0.1115 0.23097 0.3087 0.0
C516 C 0.09798 0.23774 0.31144 0.0
C517 C 0.1505 0.3139 0.35779 0.0
C518 C 0.19963 0.33392 0.40854 0.0
C519 C 0.19187 0.32313 0.42188 0.0
C520 C 0.20153 0.33097 0.43726 0.0
C521 C 0.21901 0.34986 0.43906 0.0
C522 C 0.21703 0.35276 0.41061 0.0
C523 C 0.22664 0.36067 0.42581 0.0
C524 C 0.18282 0.29305 0.3507 0.0
C525 C 0.18957 0.32514 0.39256 0.0
H526 H 0.18057 0.33777 0.26911 0.0
H527 H 0.13504 0.28862 0.23771 0.0
H528 H 0.13875 0.28281 0.28771 0.0
H529 H 0.12269 0.26876 0.26068 0.0
H530 H 0.17852 0.30849 0.42022 0.0
H531 H 0.22666 0.35639 0.45076 0.0
H532 H 0.22325 0.36128 0.40049 0.0
H533 H 0.24006 0.37522 0.42734 0.0
Tb534 Tb 0.67402 0.82513 0.33036 0.0
C535 C 0.59862 0.79499 0.37 0.0
C536 C 0.58893 0.81985 0.37014 0.0
C537 C 0.5635 0.78535 0.37207 0.0
C538 C 0.60374 0.81439 0.36909 0.0
C539 C 0.57851 0.78024 0.37181 0.0
C540 C 0.56871 0.80515 0.37124 0.0
C541 C 0.58989 0.75697 0.37423 0.0
N542 N 0.61359 0.79075 0.36981 0.0
C543 C 0.60963 0.77217 0.37251 0.0
C544 C 0.57421 0.76096 0.37369 0.0
Tb545 Tb 0.64536 0.81641 0.36636 0.0
N546 N 0.62345 0.8281 0.36816 0.0
C547 C 0.62953 0.84787 0.36953 0.0
C548 C 0.59498 0.83996 0.37055 0.0
C549 C 0.61541 0.85405 0.37052 0.0
H550 H 0.62158 0.76885 0.37282 0.0
H551 H 0.62031 0.86969 0.37115 0.0
H552 H 0.55707 0.80901 0.37188 0.0
H553 H 0.58678 0.74218 0.37594 0.0
H554 H 0.64521 0.85902 0.36942 0.0
H555 H 0.69821 0.77117 0.32642 0.0
H556 H 0.58408 0.84479 0.37129 0.0
H557 H 0.69848 0.87252 0.32344 0.0
H558 H 0.67361 0.78226 0.32758 0.0
H559 H 0.73355 0.89896 0.32081 0.0
H560 H 0.54791 0.77422 0.3733 0.0
H561 H 0.73458 0.79578 0.32688 0.0
H562 H 0.762 0.83148 0.32671 0.0
H563 H 0.55894 0.74918 0.37507 0.0
H564 H 0.77168 0.86639 0.32518 0.0
N565 N 0.69566 0.81308 0.329 0.0
C566 C 0.68936 0.79327 0.32769 0.0
C567 C 0.72382 0.80078 0.32735 0.0
C568 C 0.73014 0.82095 0.32778 0.0
C569 C 0.7033 0.78686 0.32704 0.0
C570 C 0.71549 0.82664 0.32847 0.0
H571 H 0.76112 0.89168 0.3227 0.0
N572 N 0.70608 0.85054 0.32727 0.0
C573 C 0.73022 0.88417 0.32279 0.0
C574 C 0.72091 0.84613 0.32759 0.0
C575 C 0.71033 0.86912 0.32424 0.0
C576 C 0.74574 0.88002 0.32391 0.0
C577 C 0.74116 0.86071 0.32605 0.0
O578 O 0.66939 0.83406 0.30853 0.0
O579 O 0.64905 0.82457 0.3422 0.0
O580 O 0.62587 0.79403 0.34728 0.0
O581 O 0.64997 0.7936 0.33068 0.0
O582 O 0.66356 0.84606 0.32717 0.0
O583 O 0.66616 0.80524 0.30947 0.0
O584 O 0.65003 0.80749 0.38818 0.0
O585 O 0.67028 0.817 0.35448 0.0
O586 O 0.69329 0.84806 0.3494 0.0
O587 O 0.66898 0.84788 0.3661 0.0
O588 O 0.65617 0.79569 0.36958 0.0
O589 O 0.65377 0.83656 0.38709 0.0
C590 C 0.6488 0.83873 0.33643 0.0
C591 C 0.67728 0.82057 0.28549 0.0
C592 C 0.67772 0.82161 0.25638 0.0
C593 C 0.66743 0.81844 0.27072 0.0
C594 C 0.6981 0.82696 0.25715 0.0
C595 C 0.69751 0.82571 0.28596 0.0
C596 C 0.70786 0.82892 0.27185 0.0
C597 C 0.63139 0.7853 0.33583 0.0
C598 C 0.66627 0.81786 0.30025 0.0
C599 C 0.756 0.85538 0.32618 0.0
C600 C 0.75049 0.83551 0.32705 0.0
C601 C 0.67091 0.80308 0.36031 0.0
C602 C 0.64321 0.82175 0.41138 0.0
C603 C 0.65236 0.82069 0.42544 0.0
C604 C 0.64315 0.81881 0.44017 0.0
C605 C 0.6245 0.81792 0.44063 0.0
C606 C 0.62457 0.82074 0.41199 0.0
C607 C 0.61526 0.8188 0.42658 0.0
C608 C 0.68764 0.8563 0.36119 0.0
C609 C 0.65357 0.82392 0.39634 0.0
H610 H 0.65168 0.81411 0.27042 0.0
H611 H 0.70658 0.82983 0.24642 0.0
H612 H 0.70532 0.8273 0.29717 0.0
H613 H 0.72352 0.83302 0.27232 0.0
H614 H 0.6669 0.82173 0.42493 0.0
H615 H 0.61703 0.81639 0.45181 0.0
H616 H 0.61727 0.82155 0.40129 0.0
H617 H 0.60088 0.81804 0.42701 0.0
Tb618 Tb 0.17699 0.8286 0.36046 0.0
C619 C 0.1238 0.84391 0.31555 0.0
C620 C 0.08976 0.81758 0.31863 0.0
C621 C 0.09595 0.84949 0.31145 0.0
C622 C 0.11064 0.82491 0.31916 0.0
C623 C 0.11664 0.85634 0.31131 0.0
C624 C 0.08252 0.83012 0.31512 0.0
C625 C 0.15069 0.88062 0.30585 0.0
N626 N 0.1436 0.84987 0.31549 0.0
C627 C 0.157 0.86769 0.31009 0.0
C628 C 0.13045 0.87503 0.30665 0.0
Tb629 Tb 0.15265 0.82787 0.32289 0.0
N630 N 0.11827 0.81327 0.32237 0.0
C631 C 0.10556 0.79356 0.32398 0.0
C632 C 0.07679 0.79773 0.32121 0.0
C633 C 0.08473 0.78561 0.32366 0.0
H634 H 0.1727 0.87222 0.30951 0.0
H635 H 0.07483 0.77013 0.32538 0.0
H636 H 0.06654 0.82484 0.31483 0.0
H637 H 0.16143 0.8949 0.30198 0.0
H638 H 0.11133 0.78392 0.32596 0.0
H639 H 0.25483 0.88657 0.35866 0.0
H640 H 0.06066 0.79153 0.32097 0.0
H641 H 0.15692 0.78384 0.37312 0.0
H642 H 0.21831 0.8727 0.35798 0.0
H643 H 0.16818 0.76094 0.38006 0.0
H644 H 0.09015 0.85886 0.30837 0.0
H645 H 0.26902 0.86505 0.36251 0.0
H646 H 0.26313 0.83154 0.368 0.0
H647 H 0.12557 0.88505 0.30331 0.0
H648 H 0.23951 0.79729 0.37395 0.0
N649 N 0.21139 0.84323 0.36107 0.0
C650 C 0.22409 0.86302 0.35978 0.0
C651 C 0.25288 0.85883 0.36227 0.0
C652 C 0.23992 0.83889 0.36455 0.0
C653 C 0.24493 0.87102 0.36013 0.0
C654 C 0.21903 0.83154 0.36403 0.0
H655 H 0.20406 0.77091 0.37873 0.0
N656 N 0.18607 0.80648 0.36752 0.0
C657 C 0.17895 0.77537 0.37646 0.0
C658 C 0.20588 0.81245 0.36742 0.0
C659 C 0.17264 0.78844 0.37256 0.0
C660 C 0.1992 0.78103 0.37566 0.0
C661 C 0.21302 0.79989 0.37132 0.0
O662 O 0.16596 0.82336 0.38362 0.0
O663 O 0.15048 0.8247 0.34822 0.0
O664 O 0.15613 0.85315 0.33863 0.0
O665 O 0.18251 0.85829 0.35595 0.0
O666 O 0.14608 0.80699 0.36597 0.0
O667 O 0.18894 0.85262 0.37839 0.0
O668 O 0.16496 0.83286 0.30017 0.0
O669 O 0.17907 0.83179 0.33523 0.0
O670 O 0.1738 0.80363 0.34435 0.0
O671 O 0.14709 0.79822 0.32737 0.0
O672 O 0.18368 0.84949 0.31746 0.0
O673 O 0.13984 0.80432 0.30447 0.0
C674 C 0.13697 0.81143 0.35574 0.0
C675 C 0.18892 0.84436 0.4049 0.0
C676 C 0.18938 0.84841 0.43416 0.0
C677 C 0.17952 0.84494 0.41907 0.0
C678 C 0.20884 0.85118 0.43491 0.0
C679 C 0.20828 0.84696 0.40581 0.0
C680 C 0.21815 0.85032 0.42078 0.0
C681 C 0.17105 0.86435 0.34947 0.0
C682 C 0.17832 0.84161 0.38945 0.0
C683 C 0.23372 0.80676 0.37113 0.0
C684 C 0.24716 0.82625 0.36774 0.0
C685 C 0.19268 0.84504 0.3278 0.0
C686 C 0.14223 0.81434 0.27826 0.0
C687 C 0.15244 0.81493 0.26429 0.0
C688 C 0.14423 0.81456 0.24914 0.0
C689 C 0.12553 0.81356 0.24821 0.0
C690 C 0.1236 0.81335 0.27712 0.0
C691 C 0.11533 0.81297 0.26214 0.0
C692 C 0.15898 0.79243 0.33342 0.0
C693 C 0.15162 0.8152 0.29382 0.0
H694 H 0.16466 0.84318 0.41833 0.0
H695 H 0.21674 0.85385 0.4464 0.0
H696 H 0.21583 0.84661 0.39503 0.0
H697 H 0.2331 0.85238 0.42143 0.0
H698 H 0.16671 0.81544 0.26524 0.0
H699 H 0.11891 0.81346 0.23676 0.0
H700 H 0.11547 0.81286 0.28773 0.0
H701 H 0.10098 0.81226 0.26131 0.0
Tb702 Tb 0.82987 0.64588 0.65745 0.0
C703 C 0.88074 0.71807 0.70621 0.0
C704 C 0.9144 0.72473 0.70173 0.0
C705 C 0.90897 0.75185 0.71081 0.0
C706 C 0.8935 0.71141 0.70153 0.0
C707 C 0.88831 0.73824 0.71145 0.0
C708 C 0.92202 0.7451 0.70591 0.0
C709 C 0.85497 0.72945 0.71943 0.0
N710 N 0.86102 0.70437 0.70686 0.0
C711 C 0.84828 0.70957 0.71417 0.0
C712 C 0.87501 0.74392 0.71779 0.0
Tb713 Tb 0.85103 0.6723 0.69724 0.0
N714 N 0.8855 0.69162 0.69785 0.0
C715 C 0.89789 0.68396 0.69564 0.0
C716 C 0.92702 0.71707 0.69831 0.0
C717 C 0.91874 0.69656 0.69556 0.0
H718 H 0.83275 0.69848 0.71544 0.0
H719 H 0.92839 0.69042 0.69331 0.0
H720 H 0.938 0.75562 0.70595 0.0
H721 H 0.84468 0.73358 0.72474 0.0
H722 H 0.8918 0.66817 0.69338 0.0
H723 H 0.75349 0.63176 0.65578 0.0
H724 H 0.94316 0.72679 0.69829 0.0
H725 H 0.84734 0.61771 0.64207 0.0
H726 H 0.79021 0.65246 0.65822 0.0
H727 H 0.83423 0.58224 0.63327 0.0
H728 H 0.91508 0.76748 0.71458 0.0
H729 H 0.7372 0.59523 0.65094 0.0
H730 H 0.7409 0.56527 0.64512 0.0
H731 H 0.8802 0.75928 0.72197 0.0
H732 H 0.76301 0.55164 0.63906 0.0
N733 N 0.79527 0.62803 0.65518 0.0
C734 C 0.7836 0.6366 0.65604 0.0
C735 C 0.75346 0.60427 0.65198 0.0
C736 C 0.76543 0.59565 0.65009 0.0
C737 C 0.7626 0.62488 0.65465 0.0
C738 C 0.78652 0.60811 0.65163 0.0
H739 H 0.7979 0.55794 0.63426 0.0
N740 N 0.81887 0.61337 0.64865 0.0
C741 C 0.8241 0.58713 0.63759 0.0
C742 C 0.79881 0.60046 0.64832 0.0
C743 C 0.83146 0.60721 0.64256 0.0
C744 C 0.8036 0.57345 0.63824 0.0
C745 C 0.79059 0.58013 0.64327 0.0
O746 O 0.84364 0.64888 0.63531 0.0
O747 O 0.85509 0.66934 0.67189 0.0
O748 O 0.84643 0.69268 0.68418 0.0
O749 O 0.8256 0.67163 0.66196 0.0
O750 O 0.86122 0.65401 0.65425 0.0
O751 O 0.82098 0.65688 0.63901 0.0
O752 O 0.83718 0.66644 0.71937 0.0
O753 O 0.82569 0.64923 0.68269 0.0
O754 O 0.83206 0.62501 0.67182 0.0
O755 O 0.85565 0.64685 0.69226 0.0
O756 O 0.81975 0.66382 0.70129 0.0
O757 O 0.86306 0.66352 0.71525 0.0
C758 C 0.86938 0.66893 0.66504 0.0
C759 C 0.82351 0.64539 0.61263 0.0
C760 C 0.82197 0.64752 0.58374 0.0
C761 C 0.83086 0.65618 0.59923 0.0
C762 C 0.80581 0.62781 0.58187 0.0
C763 C 0.80733 0.62581 0.61049 0.0
C764 C 0.79859 0.61706 0.59517 0.0
C765 C 0.83437 0.68867 0.67137 0.0
C766 C 0.83267 0.65491 0.62874 0.0
C767 C 0.76964 0.56737 0.6427 0.0
C768 C 0.75706 0.57513 0.64613 0.0
C769 C 0.8116 0.64984 0.68973 0.0
C770 C 0.85846 0.6724 0.74191 0.0
C771 C 0.85155 0.66111 0.75507 0.0
C772 C 0.85851 0.67013 0.77083 0.0
C773 C 0.87258 0.69057 0.77324 0.0
C774 C 0.87273 0.69272 0.74453 0.0
C775 C 0.87971 0.70174 0.76014 0.0
C776 C 0.84498 0.62912 0.68404 0.0
C777 C 0.85024 0.66279 0.72564 0.0
H778 H 0.84319 0.67143 0.60093 0.0
H779 H 0.79881 0.62066 0.57009 0.0
H780 H 0.80136 0.61732 0.62061 0.0
H781 H 0.78613 0.60191 0.59361 0.0
H782 H 0.84047 0.6454 0.75306 0.0
H783 H 0.87823 0.69785 0.78526 0.0
H784 H 0.87844 0.7016 0.73457 0.0
H785 H 0.89067 0.71745 0.76209 0.0
Tb786 Tb 0.34437 0.15657 0.66103 0.0
C787 C 0.26682 0.12197 0.69875 0.0
C788 C 0.25648 0.14639 0.69969 0.0
C789 C 0.23146 0.11153 0.70054 0.0
C790 C 0.27161 0.14137 0.69852 0.0
C791 C 0.24676 0.10681 0.70008 0.0
C792 C 0.23632 0.13131 0.70033 0.0
C793 C 0.2587 0.08387 0.70173 0.0
N794 N 0.28205 0.11812 0.69841 0.0
C795 C 0.27838 0.09946 0.70047 0.0
C796 C 0.24278 0.08751 0.70135 0.0
Tb797 Tb 0.31375 0.14444 0.69596 0.0
N798 N 0.29127 0.15544 0.698 0.0
C799 C 0.29693 0.17511 0.69979 0.0
C800 C 0.26214 0.16644 0.70059 0.0
C801 C 0.28249 0.18087 0.70086 0.0
H802 H 0.29052 0.09642 0.70067 0.0
H803 H 0.28708 0.19644 0.70183 0.0
H804 H 0.22446 0.13485 0.70107 0.0
H805 H 0.25584 0.06906 0.70296 0.0
H806 H 0.31254 0.18654 0.69994 0.0
H807 H 0.37063 0.10425 0.65531 0.0
H808 H 0.251 0.17093 0.70142 0.0
H809 H 0.36823 0.20472 0.65661 0.0
H810 H 0.34526 0.11436 0.65646 0.0
H811 H 0.40325 0.23212 0.65573 0.0
H812 H 0.21592 0.10009 0.70142 0.0
H813 H 0.40684 0.12965 0.65741 0.0
H814 H 0.43367 0.16578 0.6592 0.0
H815 H 0.22757 0.07542 0.70237 0.0
H816 H 0.4426 0.20071 0.65934 0.0
N817 N 0.36671 0.14539 0.65954 0.0
C818 C 0.36094 0.12571 0.65731 0.0
C819 C 0.39574 0.13423 0.65789 0.0
C820 C 0.40156 0.15433 0.65926 0.0
C821 C 0.37532 0.11986 0.65666 0.0
C822 C 0.38649 0.15945 0.65992 0.0
H823 H 0.43132 0.22559 0.65777 0.0
N824 N 0.37635 0.18293 0.65964 0.0
C825 C 0.40016 0.21724 0.65701 0.0
C826 C 0.39151 0.17897 0.66 0.0
C827 C 0.38032 0.20165 0.65747 0.0
C828 C 0.41597 0.21351 0.65822 0.0
C829 C 0.41173 0.19411 0.65944 0.0
O830 O 0.34025 0.16689 0.63979 0.0
O831 O 0.31821 0.15412 0.67225 0.0
O832 O 0.29557 0.12261 0.67604 0.0
O833 O 0.32078 0.12471 0.65942 0.0
O834 O 0.3333 0.17716 0.65867 0.0
O835 O 0.3389 0.13873 0.63921 0.0
O836 O 0.31779 0.13443 0.71742 0.0
O837 O 0.33952 0.1465 0.68451 0.0
O838 O 0.36237 0.17823 0.68117 0.0
O839 O 0.33681 0.17629 0.69713 0.0
O840 O 0.32498 0.12393 0.69844 0.0
O841 O 0.32148 0.16358 0.71724 0.0
C842 C 0.31783 0.16855 0.6671 0.0
C843 C 0.35072 0.15667 0.61648 0.0
C844 C 0.35286 0.16131 0.5879 0.0
C845 C 0.34154 0.15552 0.60165 0.0
C846 C 0.3736 0.16817 0.58932 0.0
C847 C 0.37131 0.16324 0.61757 0.0
C848 C 0.38268 0.16898 0.60404 0.0
C849 C 0.30197 0.11536 0.66407 0.0
C850 C 0.33867 0.15179 0.63073 0.0
C851 C 0.42693 0.18927 0.65959 0.0
C852 C 0.42185 0.16939 0.65951 0.0
C853 C 0.34018 0.13227 0.68971 0.0
C854 C 0.31099 0.14795 0.74111 0.0
C855 C 0.32146 0.14953 0.75536 0.0
C856 C 0.31244 0.1475 0.77021 0.0
C857 C 0.29251 0.14351 0.7705 0.0
C858 C 0.29117 0.14402 0.74158 0.0
C859 C 0.28197 0.14176 0.75625 0.0
C860 C 0.35582 0.18541 0.69304 0.0
C861 C 0.3213 0.15058 0.72603 0.0
H862 H 0.32551 0.14999 0.60089 0.0
H863 H 0.3829 0.17313 0.57912 0.0
H864 H 0.37862 0.16405 0.62883 0.0
H865 H 0.39862 0.17423 0.605 0.0
H866 H 0.33667 0.15222 0.7548 0.0
H867 H 0.28518 0.14207 0.78174 0.0
H868 H 0.28286 0.14278 0.73071 0.0
H869 H 0.26668 0.13878 0.75658 0.0
Tb870 Tb 0.8398 0.14851 0.69222 0.0
C871 C 0.78524 0.16098 0.64714 0.0
C872 C 0.75161 0.13402 0.65044 0.0
C873 C 0.75671 0.16561 0.64341 0.0
C874 C 0.77259 0.14193 0.65087 0.0
C875 C 0.77749 0.17297 0.64303 0.0
C876 C 0.74378 0.14614 0.64711 0.0
C877 C 0.81112 0.19781 0.63711 0.0
N878 N 0.80514 0.16741 0.64677 0.0
C879 C 0.81804 0.18528 0.64121 0.0
C880 C 0.79079 0.19174 0.63822 0.0
Tb881 Tb 0.81524 0.14619 0.65423 0.0
N882 N 0.78079 0.13071 0.65384 0.0
C883 C 0.76858 0.11086 0.65519 0.0
C884 C 0.73915 0.11402 0.65282 0.0
C885 C 0.74767 0.10231 0.65491 0.0
H886 H 0.8338 0.19018 0.64041 0.0
H887 H 0.73815 0.08671 0.65642 0.0
H888 H 0.72772 0.14042 0.64692 0.0
H889 H 0.82148 0.21214 0.63312 0.0
H890 H 0.77483 0.10156 0.65695 0.0
H891 H 0.91704 0.20769 0.68992 0.0
H892 H 0.72296 0.10738 0.65264 0.0
H893 H 0.82094 0.10435 0.70583 0.0
H894 H 0.8804 0.19306 0.68946 0.0
H895 H 0.83308 0.08223 0.71307 0.0
H896 H 0.75045 0.17464 0.64045 0.0
H897 H 0.93205 0.18691 0.69389 0.0
H898 H 0.92709 0.15383 0.69971 0.0
H899 H 0.78545 0.20143 0.63498 0.0
H900 H 0.9042 0.11961 0.70613 0.0
N901 N 0.87426 0.16391 0.69281 0.0
C902 C 0.88656 0.18371 0.69131 0.0
C903 C 0.91587 0.18036 0.69374 0.0
C904 C 0.90332 0.1604 0.69622 0.0
C905 C 0.90745 0.19213 0.69154 0.0
C906 C 0.88237 0.15261 0.69581 0.0
H907 H 0.8691 0.09286 0.7114 0.0
N908 N 0.84972 0.12715 0.69969 0.0
C909 C 0.84352 0.0966 0.70918 0.0
C910 C 0.86962 0.13353 0.69943 0.0
C911 C 0.83671 0.10922 0.70512 0.0
C912 C 0.86385 0.10263 0.70819 0.0
C913 C 0.87726 0.12144 0.70351 0.0
O914 O 0.82759 0.14329 0.71495 0.0
O915 O 0.81311 0.14358 0.67958 0.0
O916 O 0.81782 0.17131 0.66972 0.0
O917 O 0.84447 0.17778 0.68732 0.0
O918 O 0.80897 0.12626 0.69755 0.0
O919 O 0.85188 0.17222 0.71052 0.0
O920 O 0.82676 0.15142 0.63123 0.0
O921 O 0.84196 0.15127 0.66687 0.0
O922 O 0.83757 0.12368 0.67666 0.0
O923 O 0.81085 0.11695 0.65904 0.0
O924 O 0.84602 0.1683 0.64871 0.0
O925 O 0.80343 0.12225 0.63617 0.0
C926 C 0.7997 0.13019 0.68704 0.0
C927 C 0.85012 0.1626 0.73678 0.0
C928 C 0.84974 0.1651 0.76607 0.0
C929 C 0.84115 0.16425 0.75094 0.0
C930 C 0.86747 0.1642 0.76675 0.0
C931 C 0.86785 0.16185 0.73771 0.0
C932 C 0.87645 0.16262 0.75265 0.0
C933 C 0.83255 0.18309 0.68054 0.0
C934 C 0.84039 0.16119 0.72123 0.0
C935 C 0.89802 0.12873 0.70319 0.0
C936 C 0.91105 0.1482 0.69953 0.0
C937 C 0.85535 0.16456 0.65931 0.0
C938 C 0.8035 0.13138 0.60993 0.0
C939 C 0.81295 0.13215 0.59547 0.0
C940 C 0.80341 0.13091 0.5807 0.0
C941 C 0.78423 0.12887 0.58062 0.0
C942 C 0.7843 0.1292 0.60958 0.0
C943 C 0.77475 0.12797 0.59499 0.0
C944 C 0.82298 0.11185 0.66578 0.0
C945 C 0.81415 0.13335 0.62519 0.0
H946 H 0.8276 0.16511 0.75014 0.0
H947 H 0.87433 0.16453 0.77817 0.0
H948 H 0.87504 0.16068 0.72697 0.0
H949 H 0.89008 0.16193 0.75329 0.0
H950 H 0.82786 0.13403 0.59576 0.0
H951 H 0.77645 0.1277 0.56943 0.0
H952 H 0.77665 0.1284 0.62052 0.0
H953 H 0.75995 0.12629 0.5948 0.0
C954 C 0.3107 0.82845 0.04893 0.0
C955 C 0.29455 0.83191 0.04969 0.0
C956 C 0.32942 0.84292 0.04418 0.0
C957 C 0.35458 0.89005 0.02446 0.0
H958 H 0.40244 0.89725 0.04644 0.0
C959 C 0.43295 0.96101 0.02527 0.0
C960 C 0.44928 0.95827 0.02224 0.0
C961 C 0.41385 0.94471 0.02694 0.0
C962 C 0.38921 0.89525 0.04007 0.0
H963 H 0.28536 0.85329 0.04605 0.0
H964 H 0.31809 0.87877 0.03832 0.0
H965 H 0.36952 0.87053 0.05269 0.0
H966 H 0.45884 0.93659 0.01974 0.0
H967 H 0.4255 0.90809 0.02268 0.0
H968 H 0.37447 0.91538 0.01233 0.0
C969 C 0.31625 0.86469 0.04095 0.0
C970 C 0.37031 0.87989 0.0436 0.0
C971 C 0.29748 0.85012 0.04551 0.0
C972 C 0.44639 0.93905 0.02144 0.0
C973 C 0.42735 0.92278 0.02332 0.0
C974 C 0.37348 0.90557 0.0211 0.0
C975 C 0.33251 0.86132 0.04026 0.0
C976 C 0.3527 0.87715 0.03593 0.0
C977 C 0.41091 0.92546 0.02611 0.0
C978 C 0.39095 0.90839 0.02896 0.0
H979 H 0.30887 0.8145 0.05196 0.0
H980 H 0.34143 0.83962 0.04352 0.0
H981 H 0.34143 0.88818 0.01806 0.0
H982 H 0.43497 0.97578 0.02629 0.0
H983 H 0.40149 0.94722 0.02933 0.0
C984 C 0.15319 0.46544 0.0775 0.0
C985 C 0.16016 0.45483 0.06782 0.0
C986 C 0.13901 0.46954 0.07134 0.0
C987 C 0.09894 0.45172 0.03946 0.0
H988 H 0.10105 0.50129 0.053 0.0
C989 C 0.02995 0.46129 0.03338 0.0
C990 C 0.033 0.4793 0.02868 0.0
C991 C 0.04633 0.45892 0.03669 0.0
C992 C 0.10032 0.48745 0.04893 0.0
H993 H 0.15791 0.44055 0.0439 0.0
H994 H 0.13318 0.44786 0.03308 0.0
H995 H 0.12867 0.49665 0.06089 0.0
H996 H 0.05553 0.50947 0.02497 0.0
H997 H 0.08417 0.5053 0.03041 0.0
H998 H 0.0706 0.44258 0.02743 0.0
C999 C 0.13859 0.45282 0.04552 0.0
C1000 C 0.11607 0.4847 0.05362 0.0
C1001 C 0.15286 0.44874 0.05169 0.0
C1002 C 0.05273 0.4952 0.02799 0.0
C1003 C 0.06914 0.49287 0.03133 0.0
C1004 C 0.08318 0.45447 0.03478 0.0
C1005 C 0.13137 0.46315 0.05532 0.0
C1006 C 0.11544 0.46668 0.04916 0.0
C1007 C 0.06614 0.47467 0.03567 0.0
C1008 C 0.08353 0.47225 0.03967 0.0
H1009 H 0.15844 0.47034 0.08998 0.0
H1010 H 0.13361 0.47727 0.07931 0.0
H1011 H 0.09787 0.43761 0.03589 0.0
H1012 H 0.01485 0.44898 0.03438 0.0
H1013 H 0.04346 0.44485 0.04034 0.0
C1014 C 0.55944 0.69252 0.05738 0.0
C1015 C 0.54577 0.69903 0.05506 0.0
C1016 C 0.55429 0.67306 0.05228 0.0
C1017 C 0.5199 0.62879 0.02518 0.0
H1018 H 0.53328 0.60146 0.05502 0.0
C1019 C 0.49355 0.54503 0.01412 0.0
C1020 C 0.50751 0.53939 0.01816 0.0
C1021 C 0.49768 0.56442 0.0183 0.0
C1022 C 0.52965 0.60893 0.04646 0.0
H1023 H 0.51614 0.69034 0.04512 0.0
H1024 H 0.50713 0.65619 0.03617 0.0
H1025 H 0.54152 0.63548 0.06253 0.0
H1026 H 0.53677 0.54976 0.02977 0.0
H1027 H 0.54405 0.58352 0.0369 0.0
H1028 H 0.50816 0.60222 0.00905 0.0
C1029 C 0.52187 0.66624 0.04193 0.0
C1030 C 0.53434 0.62843 0.05078 0.0
C1031 C 0.527 0.68577 0.0471 0.0
C1032 C 0.52565 0.55355 0.02652 0.0
C1033 C 0.52979 0.57291 0.03068 0.0
C1034 C 0.51525 0.60925 0.02082 0.0
C1035 C 0.53536 0.65961 0.04471 0.0
C1036 C 0.52969 0.63865 0.04015 0.0
C1037 C 0.51584 0.57858 0.02667 0.0
C1038 C 0.52022 0.59915 0.03137 0.0
H1039 H 0.57407 0.70236 0.06338 0.0
H1040 H 0.56516 0.66851 0.05433 0.0
H1041 H 0.51627 0.63634 0.01669 0.0
H1042 H 0.47928 0.53443 0.0079 0.0
H1043 H 0.48648 0.56819 0.01523 0.0
C1044 C 0.85547 0.28365 0.96637 0.0
C1045 C 0.83498 0.2769 0.96821 0.0
C1046 C 0.87001 0.30338 0.97103 0.0
C1047 C 0.87995 0.34872 0.99597 0.0
H1048 H 0.92102 0.3749 0.96563 0.0
C1049 C 0.93746 0.43323 0.0039 0.0
C1050 C 0.95738 0.43928 1.00015 0.0
C1051 C 0.92214 0.41348 1.0003 0.0
C1052 C 0.90982 0.36777 0.97434 0.0
H1053 H 0.81373 0.28542 0.97698 0.0
H1054 H 0.83926 0.32002 0.98518 0.0
H1055 H 0.89509 0.34025 0.95937 0.0
H1056 H 0.97677 0.42929 0.9896 0.0
H1057 H 0.95016 0.3949 0.9835 0.0
H1058 H 0.89483 0.37627 0.011 0.0
C1059 C 0.84401 0.30996 0.98012 0.0
C1060 C 0.89494 0.34791 0.97073 0.0
C1061 C 0.8294 0.29017 0.97539 0.0
C1062 C 0.9616 0.42518 0.99261 0.0
C1063 C 0.9463 0.40545 0.98904 0.0
C1064 C 0.89492 0.36863 0.99962 0.0
C1065 C 0.86444 0.31685 0.9777 0.0
C1066 C 0.87992 0.33811 0.98154 0.0
C1067 C 0.92637 0.39935 0.99283 0.0
C1068 C 0.91012 0.37835 0.98888 0.0
H1069 H 0.86033 0.27381 0.96099 0.0
H1070 H 0.88566 0.30814 0.96929 0.0
H1071 H 0.86865 0.34152 0.00458 0.0
H1072 H 0.93362 0.44377 0.00947 0.0
H1073 H 0.90691 0.40937 1.00316 0.0
C1074 C 0.67954 0.51697 0.94153 0.0
C1075 C 0.69732 0.52751 0.95138 0.0
C1076 C 0.66104 0.51268 0.94754 0.0
C1077 C 0.63882 0.52986 0.97936 0.0
H1078 H 0.59024 0.4802 0.96533 0.0
C1079 C 0.55957 0.51939 0.98511 0.0
C1080 C 0.54419 0.50121 0.98961 0.0
C1081 C 0.5785 0.52203 0.9819 0.0
C1082 C 0.60366 0.49406 0.96953 0.0
H1083 H 0.70948 0.5415 0.97543 0.0
H1084 H 0.67707 0.53387 0.98598 0.0
H1085 H 0.62278 0.48522 0.95761 0.0
H1086 H 0.53601 0.47105 0.99308 0.0
H1087 H 0.56912 0.4757 0.98784 0.0
H1088 H 0.61964 0.53864 0.99136 0.0
C1089 C 0.67752 0.5291 0.97353 0.0
C1090 C 0.62232 0.49703 0.96494 0.0
C1091 C 0.69608 0.53336 0.96751 0.0
C1092 C 0.54779 0.48544 0.99022 0.0
C1093 C 0.56671 0.48804 0.98698 0.0
C1094 C 0.62013 0.52689 0.98395 0.0
C1095 C 0.65979 0.51883 0.96357 0.0
C1096 C 0.64012 0.51508 0.96959 0.0
C1097 C 0.58232 0.50639 0.98282 0.0
C1098 C 0.6023 0.50907 0.97889 0.0
H1099 H 0.67991 0.51225 0.92904 0.0
H1100 H 0.64777 0.505 0.93945 0.0
H1101 H 0.65218 0.54399 0.98307 0.0
H1102 H 0.55697 0.53161 0.98418 0.0
H1103 H 0.59003 0.53621 0.97838 0.0
C1104 C 0.47272 0.14843 0.95636 0.0
C1105 C 0.46118 0.154 0.96604 0.0
C1106 C 0.47608 0.13338 0.96038 0.0
C1107 C 0.47917 0.1084 0.99398 0.0
H1108 H 0.46649 0.06423 0.96215 0.0
C1109 C 0.48154 0.03986 0.01068 0.0
C1110 C 0.48786 0.03036 0.99922 0.0
C1111 C 0.47815 0.05485 0.00656 0.0
C1112 C 0.47046 0.07659 0.97112 0.0
H1113 H 0.44442 0.14846 0.98765 0.0
H1114 H 0.45076 0.12246 0.99488 0.0
H1115 H 0.46155 0.09105 0.95513 0.0
H1116 H 0.49556 0.02873 0.97451 0.0
H1117 H 0.49045 0.05544 0.96734 0.0
H1118 H 0.48872 0.09448 0.00986 0.0
C1119 C 0.45702 0.12965 0.98412 0.0
C1120 C 0.46751 0.09189 0.9671 0.0
C1121 C 0.45334 0.14445 0.97995 0.0
C1122 C 0.49059 0.03588 0.98352 0.0
C1123 C 0.48755 0.0511 0.97943 0.0
C1124 C 0.48246 0.09329 0.99794 0.0
C1125 C 0.46828 0.12388 0.97431 0.0
C1126 C 0.47174 0.10786 0.97851 0.0
C1127 C 0.48129 0.06083 0.9909 0.0
C1128 C 0.47804 0.07709 0.9866 0.0
H1129 H 0.4789 0.15548 0.94554 0.0
H1130 H 0.48491 0.12926 0.95268 0.0
H1131 H 0.48274 0.12069 1.00294 0.0
H1132 H 0.47874 0.0354 0.02272 0.0
H1133 H 0.47282 0.06154 0.01562 0.0
C1134 C 0.69253 0.13322 0.96491 0.0
C1135 C 0.69173 0.14968 0.96043 0.0
C1136 C 0.67543 0.117 0.97015 0.0
C1137 C 0.62754 0.10188 0.98842 0.0
H1138 H 0.61068 0.04972 0.96689 0.0
C1139 C 0.54961 0.03373 0.99654 0.0
C1140 C 0.54791 0.01502 0.99598 0.0
C1141 C 0.56778 0.05039 0.99339 0.0
C1142 C 0.61533 0.06408 0.9733 0.0
H1143 H 0.67255 0.16224 0.95826 0.0
H1144 H 0.64275 0.13397 0.96775 0.0
H1145 H 0.6414 0.07843 0.95951 0.0
H1146 H 0.56347 -0.00119 0.99139 0.0
H1147 H 0.5955 0.02797 0.9865 0.0
H1148 H 0.60178 0.08758 1.00249 0.0
C1149 C 0.65659 0.13364 0.96709 0.0
C1150 C 0.6329 0.08054 0.96896 0.0
C1151 C 0.6736 0.14974 0.96158 0.0
C1152 C 0.56456 0.01318 0.99206 0.0
C1153 C 0.58282 0.02987 0.98913 0.0
C1154 C 0.61012 0.08535 0.99296 0.0
C1155 C 0.65732 0.11706 0.97129 0.0
C1156 C 0.63907 0.0996 0.97637 0.0
C1157 C 0.58462 0.04868 0.98956 0.0
C1158 C 0.60368 0.06624 0.98535 0.0
H1159 H 0.70628 0.13274 0.96414 0.0
H1160 H 0.67638 0.10441 0.97339 0.0
H1161 H 0.63212 0.11644 0.99441 0.0
H1162 H 0.53681 0.03544 0.99906 0.0
H1163 H 0.56839 0.0645 0.99352 0.0
C1164 C 0.83906 0.51423 0.95845 0.0
C1165 C 0.84202 0.53343 0.95843 0.0
C1166 C 0.85474 0.51146 0.96332 0.0
C1167 C 0.90563 0.53814 0.98478 0.0
H1168 H 0.90965 0.49433 0.96383 0.0
C1169 C 0.97723 0.53214 0.98865 0.0
C1170 C 0.97444 0.51405 0.99294 0.0
C1171 C 0.96066 0.53415 0.98519 0.0
C1172 C 0.9086 0.50653 0.96987 0.0
H1173 H 0.86388 0.5648 0.96332 0.0
H1174 H 0.89141 0.56007 0.97115 0.0
H1175 H 0.88177 0.4987 0.95617 0.0
H1176 H 0.95227 0.48343 0.99572 0.0
H1177 H 0.92326 0.48687 0.98949 0.0
H1178 H 0.93302 0.54629 0.99802 0.0
C1179 C 0.87683 0.54705 0.96793 0.0
C1180 C 0.89256 0.50902 0.96555 0.0
C1181 C 0.86105 0.5498 0.96331 0.0
C1182 C 0.95483 0.49772 0.99298 0.0
C1183 C 0.93825 0.49963 0.98925 0.0
C1184 C 0.92184 0.53582 0.9889 0.0
C1185 C 0.87392 0.52783 0.96806 0.0
C1186 C 0.89084 0.52491 0.97291 0.0
C1187 C 0.94101 0.51792 0.98545 0.0
C1188 C 0.92351 0.52002 0.98144 0.0
H1189 H 0.82452 0.5013 0.95488 0.0
H1190 H 0.8517 0.49642 0.96352 0.0
H1191 H 0.90467 0.55029 0.99102 0.0
H1192 H 0.99225 0.5448 0.98822 0.0
H1193 H 0.96321 0.54833 0.98207 0.0
C1194 C 0.44842 0.27644 0.95312 0.0
C1195 C 0.46418 0.27265 0.95523 0.0
C1196 C 0.45068 0.29474 0.95881 0.0
C1197 C 0.4807 0.33947 0.98704 0.0
H1198 H 0.46298 0.36429 0.95803 0.0
C1199 C 0.50158 0.42135 0.99879 0.0
C1200 C 0.4869 0.42616 0.99502 0.0
C1201 C 0.49831 0.40233 0.99448 0.0
C1202 C 0.46775 0.35747 0.96638 0.0
H1203 H 0.49452 0.28493 0.9654 0.0
H1204 H 0.49848 0.31699 0.97535 0.0
H1205 H 0.45814 0.33156 0.94989 0.0
H1206 H 0.45725 0.41471 0.98374 0.0
H1207 H 0.45143 0.3814 0.97635 0.0
H1208 H 0.49029 0.36539 0.00355 0.0
C1209 C 0.48433 0.30572 0.96933 0.0
C1210 C 0.465 0.33871 0.9617 0.0
C1211 C 0.48209 0.28739 0.96358 0.0
C1212 C 0.46889 0.41152 0.98679 0.0
C1213 C 0.46559 0.39244 0.9825 0.0
C1214 C 0.48338 0.35822 0.99176 0.0
C1215 C 0.46875 0.30968 0.96679 0.0
C1216 C 0.47147 0.32951 0.97196 0.0
C1217 C 0.48028 0.38763 0.98628 0.0
C1218 C 0.477 0.36748 0.98146 0.0
H1219 H 0.43438 0.26538 0.94682 0.0
H1220 H 0.43829 0.29723 0.95689 0.0
H1221 H 0.48563 0.33266 0.99528 0.0
H1222 H 0.51579 0.43236 0.00488 0.0
H1223 H 0.5101 0.39927 0.99732 0.0
C1224 C 0.16106 0.7064 0.06212 0.0
C1225 C 0.1811 0.71126 0.06033 0.0
C1226 C 0.14519 0.68757 0.05657 0.0
C1227 C 0.13156 0.64259 0.02933 0.0
H1228 H 0.08868 0.61694 0.05839 0.0
C1229 C 0.07076 0.55946 0.01865 0.0
C1230 C 0.05093 0.55398 0.02226 0.0
C1231 C 0.08656 0.57884 0.02274 0.0
C1232 C 0.10037 0.62397 0.05002 0.0
H1233 H 0.20017 0.70033 0.05078 0.0
H1234 H 0.17237 0.66736 0.04107 0.0
H1235 H 0.11637 0.65049 0.06608 0.0
H1236 H 0.03218 0.56463 0.03303 0.0
H1237 H 0.05971 0.59851 0.04002 0.0
H1238 H 0.11552 0.61605 0.01325 0.0
C1239 C 0.16898 0.67819 0.04674 0.0
C1240 C 0.11626 0.64321 0.05444 0.0
C1241 C 0.1849 0.69706 0.05236 0.0
C1242 C 0.04728 0.56832 0.03012 0.0
C1243 C 0.06308 0.58774 0.03418 0.0
C1244 C 0.1156 0.62335 0.02487 0.0
C1245 C 0.14896 0.67315 0.04904 0.0
C1246 C 0.13204 0.65274 0.04416 0.0
C1247 C 0.08293 0.59323 0.03057 0.0
C1248 C 0.09981 0.61379 0.03517 0.0
H1249 H 0.15756 0.71701 0.06811 0.0
H1250 H 0.12993 0.68426 0.05827 0.0
H1251 H 0.14339 0.64963 0.02107 0.0
H1252 H 0.07418 0.54871 0.01284 0.0
H1253 H 0.10168 0.58244 0.02003 0.0
C1254 C 0.31321 0.46208 0.06008 0.0
C1255 C 0.2967 0.44281 0.06058 0.0
C1256 C 0.33171 0.46501 0.055 0.0
C1257 C 0.35521 0.43849 0.03357 0.0
H1258 H 0.40453 0.48331 0.05338 0.0
C1259 C 0.43351 0.44588 0.02846 0.0
C1260 C 0.4491 0.4641 0.02419 0.0
C1261 C 0.41477 0.44355 0.032 0.0
C1262 C 0.39087 0.47083 0.04765 0.0
H1263 H 0.28677 0.41149 0.05636 0.0
H1264 H 0.31913 0.41653 0.04815 0.0
H1265 H 0.37222 0.47855 0.06158 0.0
H1266 H 0.45786 0.49459 0.02142 0.0
H1267 H 0.42515 0.49059 0.02777 0.0
H1268 H 0.37411 0.43049 0.02008 0.0
C1269 C 0.31774 0.42946 0.05116 0.0
C1270 C 0.37229 0.46811 0.05228 0.0
C1271 C 0.29916 0.42654 0.05601 0.0
C1272 C 0.44591 0.48021 0.02416 0.0
C1273 C 0.42727 0.47798 0.02796 0.0
C1274 C 0.3738 0.44106 0.02912 0.0
C1275 C 0.3343 0.44875 0.05052 0.0
C1276 C 0.35416 0.45186 0.04535 0.0
C1277 C 0.41149 0.45959 0.03184 0.0
C1278 C 0.3918 0.45722 0.03615 0.0
H1279 H 0.31178 0.47494 0.0634 0.0
H1280 H 0.34391 0.48009 0.05441 0.0
H1281 H 0.34168 0.42605 0.02767 0.0
H1282 H 0.43577 0.43338 0.02887 0.0
H1283 H 0.40296 0.4293 0.03518 0.0
C1284 C 0.52966 0.82195 0.05208 0.0
C1285 C 0.51908 0.81282 0.06543 0.0
C1286 C 0.52834 0.83754 0.04644 0.0
C1287 C 0.51687 0.87656 0.05926 0.0
H1288 H 0.50904 0.8776 0.0136 0.0
C1289 C 0.522 0.94445 0.03275 0.0
C1290 C 0.50665 0.94043 0.02135 0.0
C1291 C 0.52403 0.92902 0.03785 0.0
C1292 C 0.51118 0.87747 0.02638 0.0
H1293 H 0.49883 0.81292 0.08334 0.0
H1294 H 0.49661 0.84018 0.07353 0.0
H1295 H 0.51125 0.85013 0.02312 0.0
H1296 H 0.48122 0.91693 0.0066 0.0
H1297 H 0.48504 0.89015 0.01529 0.0
H1298 H 0.51662 0.90379 0.06254 0.0
C1299 C 0.50598 0.83532 0.06748 0.0
C1300 C 0.51261 0.86185 0.03181 0.0
C1301 C 0.50716 0.81962 0.07303 0.0
C1302 C 0.49347 0.92065 0.01513 0.0
C1303 C 0.49562 0.90526 0.02013 0.0
C1304 C 0.51561 0.89226 0.05382 0.0
C1305 C 0.51657 0.84445 0.05414 0.0
C1306 C 0.51537 0.86118 0.04832 0.0
C1307 C 0.51084 0.90927 0.03162 0.0
C1308 C 0.51266 0.89283 0.03733 0.0
H1309 H 0.53898 0.81706 0.04596 0.0
H1310 H 0.5368 0.84441 0.03622 0.0
H1311 H 0.51917 0.87653 0.07203 0.0
H1312 H 0.53243 0.9595 0.0378 0.0
H1313 H 0.53602 0.93257 0.04662 0.0
C1314 C 0.97384 0.20665 0.37924 0.0
C1315 C 0.96714 0.18686 0.38183 0.0
C1316 C 0.99354 0.21912 0.37506 0.0
C1317 C 0.0441 0.22483 0.37631 0.0
H1318 H 0.05501 0.26393 0.3465 0.0
C1319 C 0.12408 0.27804 0.35631 0.0
C1320 C 0.12939 0.29806 0.35747 0.0
C1321 C 0.1041 0.26322 0.35768 0.0
C1322 C 0.05215 0.25309 0.35485 0.0
H1323 H 0.97584 0.16456 0.38195 0.0
H1324 H 0.01016 0.18623 0.37438 0.0
H1325 H 0.02029 0.24018 0.35189 0.0
H1326 H 0.11855 0.31855 0.36174 0.0
H1327 H 0.0835 0.29265 0.36391 0.0
H1328 H 0.07603 0.23787 0.37925 0.0
C1329 C 0.00028 0.19222 0.37584 0.0
C1330 C 0.0323 0.23954 0.35801 0.0
C1331 C 0.98058 0.17978 0.38013 0.0
C1332 C 0.1146 0.30312 0.36038 0.0
C1333 C 0.09462 0.28833 0.36157 0.0
C1334 C 0.06395 0.2383 0.37305 0.0
C1335 C 0.007 0.21205 0.37326 0.0
C1336 C 0.02804 0.22548 0.369 0.0
C1337 C 0.08919 0.26825 0.36031 0.0
C1338 C 0.06816 0.25278 0.36252 0.0
H1339 H 0.96388 0.21259 0.38053 0.0
H1340 H -0.00169 0.2344 0.37347 0.0
H1341 H 0.04139 0.21436 0.38497 0.0
H1342 H 0.13537 0.27385 0.3547 0.0
H1343 H 0.10031 0.24785 0.35671 0.0
C1344 C 0.81076 0.7914 0.41343 0.0
C1345 C 0.82098 0.78491 0.403 0.0
C1346 C 0.7959 0.79467 0.40747 0.0
C1347 C 0.76012 0.78062 0.37283 0.0
H1348 H 0.75443 0.82406 0.39235 0.0
C1349 C 0.68719 0.78343 0.36519 0.0
C1350 C 0.68908 0.80186 0.36327 0.0
C1351 C 0.70418 0.78211 0.36869 0.0
C1352 C 0.7559 0.81198 0.38662 0.0
H1353 H 0.82377 0.77707 0.37803 0.0
H1354 H 0.79782 0.78294 0.36756 0.0
H1355 H 0.78302 0.82113 0.40051 0.0
H1356 H 0.71 0.83355 0.36469 0.0
H1357 H 0.73968 0.83131 0.37039 0.0
H1358 H 0.733 0.77156 0.35886 0.0
C1359 C 0.80122 0.78531 0.3804 0.0
C1360 C 0.77219 0.81017 0.39144 0.0
C1361 C 0.81618 0.78207 0.38639 0.0
C1362 C 0.70815 0.81907 0.3655 0.0
C1363 C 0.72514 0.81779 0.36901 0.0
C1364 C 0.74379 0.78243 0.368 0.0
C1365 C 0.79083 0.79156 0.3909 0.0
C1366 C 0.77436 0.79431 0.38478 0.0
C1367 C 0.72338 0.79929 0.37064 0.0
C1368 C 0.74134 0.79798 0.375 0.0
H1369 H 0.81401 0.79371 0.4263 0.0
H1370 H 0.78801 0.79919 0.41592 0.0
H1371 H 0.76124 0.76816 0.36752 0.0
H1372 H 0.67255 0.77001 0.3639 0.0
H1373 H 0.70221 0.76768 0.3702 0.0
C1374 C 0.23573 0.03901 0.39271 0.0
C1375 C 0.2247 0.04776 0.38823 0.0
C1376 C 0.22863 0.01893 0.38832 0.0
C1377 C 0.19415 0.97625 0.35988 0.0
H1378 H 0.19967 0.94615 0.39193 0.0
C1379 C 0.16266 0.89136 0.34938 0.0
C1380 C 0.17567 0.88489 0.35421 0.0
C1381 C 0.16735 0.91092 0.35358 0.0
C1382 C 0.19815 0.95438 0.38281 0.0
H1383 H 0.19771 0.04238 0.37534 0.0
H1384 H 0.18521 0.00712 0.36771 0.0
H1385 H 0.21028 0.98094 0.39887 0.0
H1386 H 0.20366 0.89389 0.3675 0.0
H1387 H 0.21177 0.92786 0.37478 0.0
H1388 H 0.18213 0.9496 0.34378 0.0
C1389 C 0.19944 0.0159 0.37455 0.0
C1390 C 0.20424 0.97431 0.38678 0.0
C1391 C 0.20656 0.03606 0.37896 0.0
C1392 C 0.19328 0.89832 0.36355 0.0
C1393 C 0.1979 0.91781 0.36781 0.0
C1394 C 0.18802 0.95624 0.3559 0.0
C1395 C 0.2103 0.00708 0.37937 0.0
C1396 C 0.20261 0.98557 0.3753 0.0
C1397 C 0.18503 0.92435 0.36284 0.0
C1398 C 0.19025 0.94519 0.36727 0.0
H1399 H 0.24982 0.0476 0.39975 0.0
H1400 H 0.23756 0.01269 0.39194 0.0
H1401 H 0.19283 0.98456 0.35074 0.0
H1402 H 0.14878 0.88131 0.34244 0.0
H1403 H 0.157 0.91545 0.34976 0.0
C1404 C 0.49688 0.61178 0.30556 0.0
C1405 C 0.50326 0.59954 0.29765 0.0
C1406 C 0.51044 0.63206 0.30941 0.0
C1407 C 0.55921 0.67282 0.29793 0.0
H1408 H 0.55825 0.69972 0.33873 0.0
C1409 C 0.62219 0.75228 0.32124 0.0
C1410 C 0.61631 0.7648 0.32939 0.0
C1411 C 0.60801 0.73235 0.31661 0.0
C1412 C 0.55855 0.69247 0.3272 0.0
H1413 H 0.529 0.59888 0.28795 0.0
H1414 H 0.55262 0.63407 0.29487 0.0
H1415 H 0.53427 0.66436 0.33264 0.0
H1416 H 0.59073 0.76655 0.33812 0.0
H1417 H 0.56612 0.73187 0.33011 0.0
H1418 H 0.58361 0.70093 0.29255 0.0
C1419 C 0.53708 0.62813 0.29782 0.0
C1420 C 0.54481 0.67221 0.32371 0.0
C1421 C 0.52355 0.60791 0.29396 0.0
C1422 C 0.59585 0.7572 0.33219 0.0
C1423 C 0.58173 0.73731 0.32762 0.0
C1424 C 0.57298 0.69308 0.30142 0.0
C1425 C 0.53066 0.6405 0.30544 0.0
C1426 C 0.54503 0.66212 0.30907 0.0
C1427 C 0.58769 0.72457 0.32002 0.0
C1428 C 0.57283 0.70313 0.31611 0.0
H1429 H 0.48133 0.60579 0.30852 0.0
H1430 H 0.50497 0.64121 0.31516 0.0
H1431 H 0.55956 0.66558 0.28641 0.0
H1432 H 0.63781 0.75767 0.31887 0.0
H1433 H 0.61309 0.72288 0.31084 0.0
C1434 C 0.34383 0.85852 0.27243 0.0
C1435 C 0.36061 0.86383 0.28269 0.0
C1436 C 0.32624 0.85664 0.2786 0.0
C1437 C 0.29795 0.8495 0.31535 0.0
H1438 H 0.2718 0.87164 0.29194 0.0
C1439 C 0.21661 0.83228 0.32553 0.0
C1440 C 0.21284 0.84797 0.32514 0.0
C1441 C 0.23546 0.83498 0.32188 0.0
C1442 C 0.279 0.86556 0.29873 0.0
H1443 H 0.37182 0.87085 0.3076 0.0
H1444 H 0.34095 0.8676 0.31841 0.0
H1445 H 0.30308 0.87479 0.28282 0.0
H1446 H 0.22538 0.87847 0.32009 0.0
H1447 H 0.25839 0.88331 0.31375 0.0
H1448 H 0.27376 0.84037 0.33133 0.0
C1449 C 0.34147 0.86481 0.30556 0.0
C1450 C 0.29682 0.86715 0.29338 0.0
C1451 C 0.35917 0.86674 0.29936 0.0
C1452 C 0.22807 0.86625 0.3207 0.0
C1453 C 0.24689 0.86896 0.31702 0.0
C1454 C 0.28002 0.84785 0.32069 0.0
C1455 C 0.32491 0.86002 0.29521 0.0
C1456 C 0.30641 0.85896 0.3015 0.0
C1457 C 0.25076 0.85331 0.31745 0.0
C1458 C 0.27028 0.85576 0.31237 0.0
H1459 H 0.34432 0.85602 0.25954 0.0
H1460 H 0.31363 0.85254 0.27032 0.0
H1461 H 0.30493 0.84298 0.32183 0.0
H1462 H 0.20495 0.81781 0.32833 0.0
H1463 H 0.23782 0.82251 0.32204 0.0
C1464 C 0.12228 0.46599 0.29351 0.0
C1465 C 0.10661 0.46585 0.30213 0.0
C1466 C 0.13038 0.45447 0.29762 0.0
C1467 C 0.14008 0.4334 0.33061 0.0
H1468 H 0.13793 0.39315 0.29901 0.0
C1469 C 0.15935 0.37498 0.34774 0.0
C1470 C 0.16736 0.36737 0.33613 0.0
C1471 C 0.15313 0.38805 0.34374 0.0
C1472 C 0.13911 0.40459 0.30792 0.0
H1473 H 0.08733 0.45384 0.32193 0.0
H1474 H 0.10199 0.43412 0.3294 0.0
H1475 H 0.12511 0.41424 0.29163 0.0
H1476 H 0.17583 0.36759 0.31149 0.0
H1477 H 0.16611 0.39129 0.30463 0.0
H1478 H 0.15467 0.42441 0.34679 0.0
C1479 C 0.10775 0.44297 0.31936 0.0
C1480 C 0.13158 0.41653 0.30368 0.0
C1481 C 0.09933 0.45413 0.31503 0.0
C1482 C 0.16962 0.37334 0.3206 0.0
C1483 C 0.16384 0.38674 0.31667 0.0
C1484 C 0.14802 0.42176 0.33477 0.0
C1485 C 0.12327 0.443 0.31065 0.0
C1486 C 0.13185 0.43088 0.31503 0.0
C1487 C 0.15513 0.39399 0.32809 0.0
C1488 C 0.14748 0.40705 0.32352 0.0
H1489 H 0.12815 0.47486 0.2835 0.0
H1490 H 0.14237 0.45469 0.29076 0.0
H1491 H 0.14055 0.44454 0.3395 0.0
H1492 H 0.15706 0.37014 0.35969 0.0
H1493 H 0.14615 0.39293 0.3528 0.0
C1494 C 0.36952 0.47248 0.29867 0.0
C1495 C 0.36849 0.48868 0.29389 0.0
C1496 C 0.35249 0.45617 0.3039 0.0
C1497 C 0.29673 0.43217 0.30258 0.0
H1498 H 0.30113 0.40158 0.33477 0.0
C1499 C 0.22804 0.37042 0.33074 0.0
C1500 C 0.22696 0.35195 0.32963 0.0
C1501 C 0.24571 0.38745 0.32743 0.0
C1502 C 0.29977 0.41 0.32573 0.0
H1503 H 0.34907 0.50088 0.29138 0.0
H1504 H 0.31961 0.47291 0.30113 0.0
H1505 H 0.33128 0.43122 0.32744 0.0
H1506 H 0.24312 0.33657 0.32374 0.0
H1507 H 0.27442 0.36663 0.31822 0.0
H1508 H 0.26511 0.41115 0.30126 0.0
C1509 C 0.33332 0.47236 0.30032 0.0
C1510 C 0.31701 0.42691 0.32145 0.0
C1511 C 0.35025 0.4885 0.29483 0.0
C1512 C 0.24377 0.35074 0.32493 0.0
C1513 C 0.2616 0.36787 0.32186 0.0
C1514 C 0.27951 0.4155 0.30706 0.0
C1515 C 0.33411 0.45584 0.30473 0.0
C1516 C 0.31574 0.43816 0.30973 0.0
C1517 C 0.26261 0.38631 0.32293 0.0
C1518 C 0.2809 0.40421 0.31858 0.0
H1519 H 0.38336 0.47216 0.29799 0.0
H1520 H 0.35366 0.44364 0.30692 0.0
H1521 H 0.29513 0.44011 0.29327 0.0
H1522 H 0.21515 0.37171 0.33387 0.0
H1523 H 0.24614 0.40152 0.3283 0.0
C1524 C 0.52305 0.8831 0.30471 0.0
C1525 C 0.50416 0.8676 0.29846 0.0
C1526 C 0.53779 0.87913 0.30986 0.0
C1527 C 0.55199 0.84024 0.30586 0.0
H1528 H 0.58905 0.87261 0.34195 0.0
C1529 C 0.61172 0.82446 0.33164 0.0
C1530 C 0.63121 0.84104 0.33408 0.0
C1531 C 0.59537 0.82689 0.3283 0.0
C1532 C 0.57884 0.8635 0.33182 0.0
H1533 H 0.4858 0.83568 0.29298 0.0
H1534 H 0.51126 0.82868 0.30234 0.0
H1535 H 0.56193 0.87823 0.33442 0.0
H1536 H 0.64914 0.87297 0.33428 0.0
H1537 H 0.62056 0.87732 0.32865 0.0
H1538 H 0.56892 0.82544 0.30341 0.0
C1539 C 0.51492 0.84399 0.30293 0.0
C1540 C 0.56333 0.86676 0.32744 0.0
C1541 C 0.50025 0.84799 0.29764 0.0
C1542 C 0.63417 0.86002 0.33277 0.0
C1543 C 0.61783 0.86249 0.32962 0.0
C1544 C 0.56738 0.83686 0.31036 0.0
C1545 C 0.53395 0.85951 0.30905 0.0
C1546 C 0.54984 0.85536 0.31426 0.0
C1547 C 0.59827 0.84595 0.32728 0.0
C1548 C 0.58112 0.84863 0.32324 0.0
H1549 H 0.5266 0.89839 0.30543 0.0
H1550 H 0.55234 0.89152 0.31421 0.0
H1551 H 0.54214 0.83134 0.29551 0.0
H1552 H 0.60911 0.80961 0.33206 0.0
H1553 H 0.58047 0.81388 0.32654 0.0
C1554 C 0.11774 0.62872 0.27018 0.0
C1555 C 0.13013 0.62163 0.27517 0.0
C1556 C 0.12167 0.64763 0.27598 0.0
C1557 C 0.16072 0.69622 0.29574 0.0
H1558 H 0.11495 0.69992 0.31027 0.0
C1559 C 0.1695 0.76688 0.33148 0.0
C1560 C 0.15571 0.77269 0.32736 0.0
C1561 C 0.16672 0.74851 0.32522 0.0
C1562 C 0.12787 0.69921 0.3061 0.0
H1563 H 0.15684 0.62917 0.28969 0.0
H1564 H 0.16367 0.66219 0.29983 0.0
H1565 H 0.10991 0.66822 0.29836 0.0
H1566 H 0.12818 0.76371 0.31336 0.0
H1567 H 0.12354 0.73194 0.30231 0.0
H1568 H 0.17867 0.72728 0.30344 0.0
C1569 C 0.15095 0.65312 0.29139 0.0
C1570 C 0.12497 0.68104 0.29927 0.0
C1571 C 0.14698 0.63416 0.28563 0.0
C1572 C 0.13907 0.75971 0.31688 0.0
C1573 C 0.13632 0.7414 0.3106 0.0
C1574 C 0.16362 0.71445 0.30254 0.0
C1575 C 0.13811 0.6599 0.28687 0.0
C1576 C 0.14134 0.67934 0.29397 0.0
C1577 C 0.15012 0.73558 0.31466 0.0
C1578 C 0.1472 0.71616 0.30776 0.0
H1579 H 0.10471 0.61949 0.26206 0.0
H1580 H 0.11171 0.65258 0.27206 0.0
H1581 H 0.17361 0.6954 0.29164 0.0
H1582 H 0.18261 0.77659 0.33937 0.0
H1583 H 0.17752 0.7444 0.32872 0.0
C1584 C 0.80107 0.02184 0.43073 0.0
C1585 C 0.82117 0.02975 0.42664 0.0
C1586 C 0.7866 0.00228 0.42532 0.0
C1587 C 0.77982 0.95417 0.40745 0.0
H1588 H 0.72958 0.94652 0.38984 0.0
C1589 C 0.72341 0.88371 0.36685 0.0
C1590 C 0.70285 0.87582 0.36937 0.0
C1591 C 0.73777 0.90203 0.37475 0.0
C1592 C 0.74341 0.94833 0.39489 0.0
H1593 H 0.842 0.02303 0.41424 0.0
H1594 H 0.81674 -0.01097 0.40466 0.0
H1595 H 0.75472 0.97895 0.40269 0.0
H1596 H 0.6813 0.88092 0.38236 0.0
H1597 H 0.70633 0.91274 0.39619 0.0
H1598 H 0.76854 0.92355 0.39941 0.0
C1599 C 0.81217 -0.00213 0.41216 0.0
C1600 C 0.75782 0.96692 0.40229 0.0
C1601 C 0.82664 0.01742 0.41759 0.0
C1602 C 0.69699 0.88659 0.38006 0.0
C1603 C 0.71133 0.9049 0.38794 0.0
C1604 C 0.7654 0.93556 0.40001 0.0
C1605 C 0.7919 -0.0098 0.41568 0.0
C1606 C 0.77623 0.9701 0.40859 0.0
C1607 C 0.73188 0.91285 0.38536 0.0
C1608 C 0.74707 0.93247 0.39358 0.0
H1609 H 0.79639 0.03089 0.43779 0.0
H1610 H 0.77118 -0.0033 0.42849 0.0
H1611 H 0.79374 0.95607 0.41235 0.0
H1612 H 0.72849 0.8757 0.35888 0.0
H1613 H 0.75346 0.90783 0.37239 0.0
C1614 C 0.96616 0.77734 0.3813 0.0
C1615 C 0.96479 0.7858 0.39642 0.0
C1616 C 0.98474 0.78047 0.37621 0.0
C1617 C 0.03376 0.791 0.39142 0.0
H1618 H 0.05252 0.80877 0.34964 0.0
C1619 C 0.10213 0.79047 0.36413 0.0
C1620 C 0.11678 0.80837 0.35862 0.0
C1621 C 0.08337 0.78768 0.36814 0.0
C1622 C 0.04743 0.80381 0.36133 0.0
H1623 H 0.98182 0.80408 0.41808 0.0
H1624 H 0.01414 0.8091 0.40933 0.0
H1625 H 0.01994 0.80395 0.35786 0.0
H1626 H 0.12368 0.83781 0.35385 0.0
H1627 H 0.09054 0.83266 0.36024 0.0
H1628 H 0.06106 0.79058 0.39483 0.0
C1629 C 0.00086 0.8002 0.40139 0.0
C1630 C 0.0288 0.80096 0.36599 0.0
C1631 C 0.98237 0.79738 0.40636 0.0
C1632 C 0.11244 0.8236 0.35747 0.0
C1633 C 0.09353 0.8207 0.36122 0.0
C1634 C 0.05218 0.7935 0.38665 0.0
C1635 C 0.00224 0.79182 0.38626 0.0
C1636 C 0.02184 0.79463 0.38113 0.0
C1637 C 0.07888 0.80276 0.36673 0.0
C1638 C 0.05923 0.79999 0.3716 0.0
H1639 H 0.95291 0.7684 0.37335 0.0
H1640 H 0.98537 0.77373 0.36453 0.0
H1641 H 0.02871 0.786 0.40311 0.0
H1642 H 0.10526 0.77865 0.36541 0.0
H1643 H 0.07234 0.77372 0.37235 0.0
C1644 C 0.17883 0.14574 0.39258 0.0
C1645 C 0.19754 0.14691 0.39412 0.0
C1646 C 0.17751 0.1613 0.38689 0.0
C1647 C 0.20477 0.21415 0.38621 0.0
H1648 H 0.17057 0.20587 0.34887 0.0
C1649 C 0.2034 0.27975 0.36145 0.0
C1650 C 0.18508 0.27636 0.35485 0.0
C1651 C 0.20538 0.26388 0.36545 0.0
C1652 C 0.17995 0.20844 0.35949 0.0
H1653 H 0.22952 0.16524 0.39101 0.0
H1654 H 0.22721 0.19274 0.38156 0.0
H1655 H 0.17261 0.17804 0.35762 0.0
H1656 H 0.15439 0.25377 0.34735 0.0
H1657 H 0.15749 0.22625 0.355 0.0
H1658 H 0.21147 0.24419 0.38871 0.0
C1659 C 0.21361 0.17964 0.38454 0.0
C1660 C 0.18119 0.19249 0.36439 0.0
C1661 C 0.21489 0.16391 0.38988 0.0
C1662 C 0.16877 0.25683 0.35233 0.0
C1663 C 0.17061 0.241 0.35661 0.0
C1664 C 0.20321 0.23 0.38154 0.0
C1665 C 0.19492 0.17844 0.38302 0.0
C1666 C 0.19365 0.19526 0.37775 0.0
C1667 C 0.18895 0.24428 0.36324 0.0
C1668 C 0.1908 0.2274 0.36809 0.0
H1669 H 0.16523 0.13278 0.39573 0.0
H1670 H 0.16295 0.16014 0.38586 0.0
H1671 H 0.21434 0.21654 0.39666 0.0
H1672 H 0.21629 0.29465 0.36337 0.0
H1673 H 0.21988 0.26702 0.37016 0.0
C1674 C 0.6457 0.50977 0.71437 0.0
C1675 C 0.63128 0.51566 0.71565 0.0
C1676 C 0.66523 0.52305 0.71021 0.0
C1677 C 0.69508 0.57053 0.69202 0.0
H1678 H 0.74035 0.57215 0.71383 0.0
C1679 C 0.77558 0.63722 0.69395 0.0
C1680 C 0.79102 0.63321 0.69063 0.0
C1681 C 0.75607 0.62172 0.69565 0.0
C1682 C 0.72783 0.57167 0.7075 0.0
H1683 H 0.6261 0.54013 0.71377 0.0
H1684 H 0.66021 0.5634 0.70696 0.0
H1685 H 0.70616 0.54725 0.7195 0.0
H1686 H 0.79878 0.61021 0.68779 0.0
H1687 H 0.76453 0.58296 0.69082 0.0
H1688 H 0.71686 0.59542 0.68044 0.0
C1689 C 0.65636 0.5484 0.70876 0.0
C1690 C 0.70824 0.5574 0.71071 0.0
C1691 C 0.63682 0.5351 0.71279 0.0
C1692 C 0.78693 0.61356 0.68977 0.0
C1693 C 0.76743 0.59804 0.69168 0.0
C1694 C 0.71464 0.58489 0.68893 0.0
C1695 C 0.67079 0.54253 0.70735 0.0
C1696 C 0.69162 0.55685 0.70318 0.0
C1697 C 0.75181 0.602 0.69452 0.0
C1698 C 0.73118 0.58576 0.69681 0.0
H1699 H 0.64186 0.49484 0.71641 0.0
H1700 H 0.67588 0.51795 0.70905 0.0
H1701 H 0.68265 0.57024 0.68572 0.0
H1702 H 0.77859 0.65235 0.69506 0.0
H1703 H 0.74438 0.6252 0.69814 0.0
C1704 C 0.48521 0.11221 0.71978 0.0
C1705 C 0.48896 0.1144 0.73651 0.0
C1706 C 0.47051 0.1155 0.7133 0.0
C1707 C 0.44036 0.13941 0.72356 0.0
H1708 H 0.40362 0.10226 0.68905 0.0
C1709 C 0.37724 0.14863 0.69616 0.0
C1710 C 0.35844 0.13128 0.6929 0.0
C1711 C 0.39423 0.14749 0.70001 0.0
C1712 C 0.41372 0.11272 0.69873 0.0
H1713 H 0.48032 0.12198 0.75952 0.0
H1714 H 0.45474 0.12748 0.7483 0.0
H1715 H 0.43145 0.09876 0.69864 0.0
H1716 H 0.34232 0.09925 0.69203 0.0
H1717 H 0.37194 0.09716 0.69897 0.0
H1718 H 0.42226 0.15292 0.7241 0.0
C1719 C 0.46328 0.1235 0.74012 0.0
C1720 C 0.42982 0.11086 0.70409 0.0
C1721 C 0.47789 0.1202 0.74657 0.0
C1722 C 0.35678 0.11281 0.69411 0.0
C1723 C 0.37376 0.11164 0.69797 0.0
C1724 C 0.42428 0.14125 0.71821 0.0
C1725 C 0.45931 0.12112 0.72341 0.0
C1726 C 0.44316 0.124 0.71675 0.0
C1727 C 0.39271 0.12898 0.701 0.0
C1728 C 0.41058 0.12776 0.70588 0.0
H1729 H 0.49348 0.10777 0.71169 0.0
H1730 H 0.46797 0.11371 0.70037 0.0
H1731 H 0.4505 0.14997 0.73317 0.0
H1732 H 0.37887 0.1631 0.69591 0.0
H1733 H 0.40857 0.16114 0.7022 0.0
C1734 C 0.85116 0.34779 0.71502 0.0
C1735 C 0.86974 0.36116 0.7232 0.0
C1736 C 0.84634 0.32836 0.70981 0.0
C1737 C 0.85932 0.29093 0.71877 0.0
H1738 H 0.83471 0.26522 0.67653 0.0
C1739 C 0.85377 0.21766 0.69392 0.0
C1740 C 0.83606 0.20327 0.68516 0.0
C1741 C 0.85712 0.2367 0.6983 0.0
C1742 C 0.84135 0.27211 0.68845 0.0
H1743 H 0.89805 0.36479 0.73189 0.0
H1744 H 0.88968 0.33113 0.7228 0.0
H1745 H 0.84182 0.29897 0.68445 0.0
H1746 H 0.80777 0.19756 0.6744 0.0
H1747 H 0.81362 0.23079 0.6821 0.0
H1748 H 0.85885 0.26419 0.72287 0.0
C1749 C 0.87871 0.3355 0.7206 0.0
C1750 C 0.84543 0.29143 0.69296 0.0
C1751 C 0.88354 0.35486 0.72573 0.0
C1752 C 0.82173 0.20836 0.68093 0.0
C1753 C 0.82508 0.22743 0.68533 0.0
C1754 C 0.8552 0.27164 0.71429 0.0
C1755 C 0.85997 0.32195 0.71278 0.0
C1756 C 0.85469 0.30113 0.70811 0.0
C1757 C 0.8428 0.24182 0.69411 0.0
C1758 C 0.84638 0.26207 0.69901 0.0
H1759 H 0.84021 0.3522 0.71288 0.0
H1760 H 0.83175 0.31822 0.70386 0.0
H1761 H 0.86609 0.29785 0.73065 0.0
H1762 H 0.86517 0.2143 0.69734 0.0
H1763 H 0.87108 0.24751 0.70484 0.0
C1764 C 0.16123 0.95801 0.60681 0.0
C1765 C 0.16407 0.94766 0.59349 0.0
C1766 C 0.17751 0.97508 0.61464 0.0
C1767 C 0.22908 0.01501 0.60843 0.0
H1768 H 0.23028 0.02643 0.65461 0.0
C1769 C 0.2937 0.08573 0.64454 0.0
C1770 C 0.28739 0.0957 0.65569 0.0
C1771 C 0.27983 0.06697 0.63695 0.0
C1772 C 0.2301 0.02346 0.6417 0.0
H1773 H 0.18635 0.94693 0.57814 0.0
H1774 H 0.2149 0.97667 0.592 0.0
H1775 H 0.20418 -0.00551 0.6416 0.0
H1776 H 0.26137 0.09401 0.66706 0.0
H1777 H 0.23742 0.06129 0.65412 0.0
H1778 H 0.25504 0.04412 0.60861 0.0
C1779 C 0.19999 0.97171 0.59622 0.0
C1780 C 0.21513 0.00519 0.63423 0.0
C1781 C 0.18364 0.95461 0.58833 0.0
C1782 C 0.26689 0.08661 0.65887 0.0
C1783 C 0.25311 0.06783 0.65143 0.0
C1784 C 0.24416 0.03327 0.61593 0.0
C1785 C 0.19709 0.98222 0.60941 0.0
C1786 C 0.21417 0.00089 0.61747 0.0
C1787 C 0.25943 0.05776 0.64045 0.0
C1788 C 0.24457 0.03782 0.6326 0.0
H1789 H 0.14636 0.95313 0.61108 0.0
H1790 H 0.17465 0.98297 0.62457 0.0
H1791 H 0.22867 0.01228 0.59549 0.0
H1792 H 0.30936 0.09232 0.64175 0.0
H1793 H 0.2851 0.05952 0.62854 0.0
C1794 C 0.00764 0.18254 0.60236 0.0
C1795 C 0.02469 0.18833 0.61246 0.0
C1796 C 0.98986 0.17993 0.60873 0.0
C1797 C 0.96191 0.17184 0.64583 0.0
H1798 H 0.93404 0.19261 0.62287 0.0
C1799 C 0.8801 0.15274 0.65726 0.0
C1800 C 0.87575 0.16803 0.65674 0.0
C1801 C 0.89907 0.15587 0.65344 0.0
C1802 C 0.94171 0.18691 0.62954 0.0
H1803 H 0.03617 0.19541 0.63729 0.0
H1804 H 0.00499 0.19091 0.64845 0.0
H1805 H 0.9655 0.19666 0.61332 0.0
H1806 H 0.88744 0.19831 0.65138 0.0
H1807 H 0.92064 0.20392 0.64478 0.0
H1808 H 0.93802 0.16222 0.66215 0.0
C1809 C 0.00544 0.1883 0.63557 0.0
C1810 C 0.95964 0.189 0.62394 0.0
C1811 C 0.02332 0.19095 0.62917 0.0
C1812 C 0.89056 0.18639 0.65208 0.0
C1813 C 0.9095 0.18953 0.64824 0.0
C1814 C 0.94386 0.16968 0.65144 0.0
C1815 C 0.98859 0.18306 0.62539 0.0
C1816 C 0.96988 0.18134 0.6319 0.0
C1817 C 0.91393 0.17425 0.6487 0.0
C1818 C 0.93351 0.17711 0.64329 0.0
H1819 H 0.00806 0.18024 0.58944 0.0
H1820 H 0.97706 0.1755 0.60056 0.0
H1821 H 0.96938 0.16571 0.65221 0.0
H1822 H 0.86876 0.13822 0.66025 0.0
H1823 H 0.90185 0.14368 0.65365 0.0
C1824 C 0.81251 0.81921 0.621 0.0
C1825 C 0.80186 0.82565 0.63096 0.0
C1826 C 0.81623 0.80453 0.62542 0.0
C1827 C 0.82241 0.78239 0.65978 0.0
H1828 H 0.80653 0.73577 0.62986 0.0
C1829 C 0.82602 0.71513 0.67847 0.0
C1830 C 0.83077 0.70437 0.66688 0.0
C1831 C 0.82258 0.73001 0.67412 0.0
C1832 C 0.81142 0.74882 0.63829 0.0
H1833 H 0.78712 0.82207 0.6535 0.0
H1834 H 0.79413 0.79675 0.66141 0.0
H1835 H 0.80103 0.76199 0.6222 0.0
H1836 H 0.83584 0.7006 0.64172 0.0
H1837 H 0.83067 0.72708 0.63412 0.0
H1838 H 0.83342 0.76973 0.67571 0.0
C1839 C 0.79938 0.80296 0.65013 0.0
C1840 C 0.80813 0.76378 0.63389 0.0
C1841 C 0.79532 0.81736 0.64556 0.0
C1842 C 0.83205 0.70867 0.65085 0.0
C1843 C 0.82897 0.72377 0.64652 0.0
C1844 C 0.82604 0.76761 0.66409 0.0
C1845 C 0.80972 0.79631 0.64003 0.0
C1846 C 0.81351 0.78064 0.64463 0.0
C1847 C 0.8241 0.73462 0.65808 0.0
C1848 C 0.8205 0.75055 0.65343 0.0
H1849 H 0.81769 0.82528 0.60965 0.0
H1850 H 0.82434 0.79971 0.61748 0.0
H1851 H 0.82686 0.79537 0.66821 0.0
H1852 H 0.8244 0.71169 0.69081 0.0
H1853 H 0.81838 0.73763 0.68331 0.0
C1854 C 0.00124 0.81748 0.61 0.0
C1855 C 0.99436 0.81561 0.59401 0.0
C1856 C 0.99107 0.80192 0.61963 0.0
C1857 C 0.95483 0.74795 0.61735 0.0
H1858 H 0.94221 0.75966 0.66029 0.0
C1859 C 0.90396 0.68505 0.65509 0.0
C1860 C 0.88818 0.68687 0.66161 0.0
C1861 C 0.92054 0.70142 0.64944 0.0
C1862 C 0.94572 0.75617 0.64835 0.0
H1863 H 0.97151 0.79588 0.57555 0.0
H1864 H 0.95375 0.76889 0.59233 0.0
H1865 H 0.96397 0.78687 0.64457 0.0
H1866 H 0.87741 0.70725 0.66741 0.0
H1867 H 0.90616 0.73569 0.65768 0.0
H1868 H 0.93584 0.71732 0.62074 0.0
C1869 C 0.96713 0.78226 0.59739 0.0
C1870 C 0.9583 0.77175 0.6394 0.0
C1871 C 0.97723 0.79781 0.58781 0.0
C1872 C 0.88951 0.70545 0.66281 0.0
C1873 C 0.90607 0.72181 0.65723 0.0
C1874 C 0.9423 0.73241 0.62628 0.0
C1875 C 0.97389 0.78415 0.61342 0.0
C1876 C 0.96256 0.76778 0.62365 0.0
C1877 C 0.92151 0.71985 0.65008 0.0
C1878 C 0.93721 0.73634 0.64173 0.0
H1879 H 0.01442 0.831 0.61513 0.0
H1880 H -0.0033 0.80376 0.63191 0.0
H1881 H 0.95809 0.74443 0.60533 0.0
H1882 H 0.90318 0.67082 0.65393 0.0
H1883 H 0.9323 0.6995 0.64413 0.0
C1884 C 0.17887 0.19934 0.64139 0.0
C1885 C 0.16937 0.1913 0.62604 0.0
C1886 C 0.19393 0.19599 0.64687 0.0
C1887 C 0.21677 0.16413 0.63769 0.0
H1888 H 0.26062 0.20556 0.66558 0.0
C1889 C 0.28054 0.1536 0.66229 0.0
C1890 C 0.29996 0.17034 0.66425 0.0
C1891 C 0.26396 0.15561 0.65879 0.0
C1892 C 0.24864 0.19389 0.65764 0.0
H1893 H 0.1684 0.17362 0.60431 0.0
H1894 H 0.19521 0.16853 0.61347 0.0
H1895 H 0.23364 0.21038 0.65673 0.0
H1896 H 0.3175 0.20206 0.66306 0.0
H1897 H 0.28888 0.2056 0.6563 0.0
H1898 H 0.23244 0.14817 0.63779 0.0
C1899 C 0.19064 0.17685 0.6216 0.0
C1900 C 0.23287 0.19651 0.65277 0.0
C1901 C 0.17532 0.1799 0.61625 0.0
C1902 C 0.3026 0.18899 0.66201 0.0
C1903 C 0.28611 0.191 0.65827 0.0
C1904 C 0.23272 0.16165 0.64234 0.0
C1905 C 0.20017 0.1848 0.63701 0.0
C1906 C 0.21673 0.18172 0.64263 0.0
C1907 C 0.2665 0.17435 0.65666 0.0
C1908 C 0.24899 0.17656 0.6523 0.0
H1909 H 0.1745 0.20806 0.64927 0.0
H1910 H 0.20053 0.20205 0.65891 0.0
H1911 H 0.20448 0.15218 0.63017 0.0
H1912 H 0.27811 0.13894 0.66341 0.0
H1913 H 0.24916 0.14244 0.65782 0.0
C1914 C 0.82002 0.95584 0.62671 0.0
C1915 C 0.80225 0.94109 0.61821 0.0
C1916 C 0.82194 0.97396 0.63274 0.0
C1917 C 0.80196 0.00655 0.62573 0.0
H1918 H 0.82587 0.03208 0.66817 0.0
C1919 C 0.80264 0.07722 0.65218 0.0
C1920 C 0.82017 0.092 0.66091 0.0
C1921 C 0.80016 0.05854 0.64752 0.0
C1922 C 0.81936 0.02525 0.65621 0.0
H1923 H 0.77236 0.93358 0.60978 0.0
H1924 H 0.77574 0.96504 0.62031 0.0
H1925 H 0.82228 -5e-05 0.65921 0.0
H1926 H 0.84903 0.09884 0.67134 0.0
H1927 H 0.84478 0.06642 0.6631 0.0
H1928 H 0.79927 0.03187 0.62258 0.0
C1929 C 0.78827 0.96274 0.62215 0.0
C1930 C 0.81729 0.00684 0.65111 0.0
C1931 C 0.78631 0.94465 0.6162 0.0
C1932 C 0.83519 0.0877 0.66484 0.0
C1933 C 0.83274 0.06907 0.66015 0.0
C1934 C 0.80411 0.02498 0.6308 0.0
C1935 C 0.80618 0.97769 0.63031 0.0
C1936 C 0.80851 -0.00273 0.63582 0.0
C1937 C 0.81521 0.05426 0.6514 0.0
C1938 C 0.8128 0.03455 0.64611 0.0
H1939 H 0.83257 0.95356 0.62847 0.0
H1940 H 0.83598 0.98525 0.63891 0.0
H1941 H 0.79545 -0.00029 0.61378 0.0
H1942 H 0.79075 0.08 0.64901 0.0
H1943 H 0.78635 0.04739 0.64099 0.0
C1944 C 0.4656 0.34959 0.76629 0.0
C1945 C 0.48578 0.3575 0.76242 0.0
C1946 C 0.45123 0.32996 0.76095 0.0
C1947 C 0.44488 0.28185 0.74343 0.0
H1948 H 0.39516 0.27416 0.72465 0.0
C1949 C 0.39112 0.21287 0.70045 0.0
C1950 C 0.37035 0.20453 0.70217 0.0
C1951 C 0.40486 0.23085 0.70915 0.0
C1952 C 0.40884 0.27597 0.73004 0.0
H1953 H 0.50685 0.35071 0.75055 0.0
H1954 H 0.48179 0.31663 0.7411 0.0
H1955 H 0.41973 0.30645 0.73811 0.0
H1956 H 0.34775 0.20844 0.7146 0.0
H1957 H 0.37173 0.23975 0.72982 0.0
H1958 H 0.43409 0.25142 0.73503 0.0
C1959 C 0.47706 0.3255 0.74837 0.0
C1960 C 0.42291 0.29448 0.7378 0.0
C1961 C 0.49143 0.3451 0.75372 0.0
C1962 C 0.36364 0.21449 0.7129 0.0
C1963 C 0.37737 0.23248 0.72158 0.0
C1964 C 0.43081 0.26334 0.73563 0.0
C1965 C 0.45672 0.31782 0.75163 0.0
C1966 C 0.44119 0.2977 0.74446 0.0
C1967 C 0.39813 0.24089 0.71978 0.0
C1968 C 0.41272 0.26025 0.72871 0.0
H1969 H 0.46078 0.3587 0.77308 0.0
H1970 H 0.43574 0.32439 0.76392 0.0
H1971 H 0.45869 0.28376 0.74864 0.0
H1972 H 0.39685 0.20548 0.69246 0.0
H1973 H 0.42075 0.23703 0.70737 0.0
C1974 C 0.62725 0.08423 0.71825 0.0
C1975 C 0.624 0.10005 0.72257 0.0
C1976 C 0.64619 0.08785 0.71377 0.0
C1977 C 0.70023 0.12778 0.7159 0.0
H1978 H 0.70448 0.09128 0.68407 0.0
C1979 C 0.77568 0.14279 0.68975 0.0
C1980 C 0.77946 0.12706 0.68974 0.0
C1981 C 0.75667 0.13983 0.69314 0.0
C1982 C 0.70348 0.10154 0.69302 0.0
H1983 H 0.63801 0.13211 0.72528 0.0
H1984 H 0.67079 0.13845 0.71693 0.0
H1985 H 0.67136 0.08564 0.69081 0.0
H1986 H 0.76682 0.09628 0.694 0.0
H1987 H 0.73337 0.09095 0.69964 0.0
H1988 H 0.73247 0.14385 0.71779 0.0
C1989 C 0.65892 0.12321 0.71744 0.0
C1990 C 0.68451 0.09828 0.69697 0.0
C1991 C 0.64005 0.11958 0.72214 0.0
C1992 C 0.7641 0.1085 0.69362 0.0
C1993 C 0.74501 0.10545 0.69678 0.0
C1994 C 0.71919 0.13117 0.71177 0.0
C1995 C 0.66231 0.1074 0.71326 0.0
C1996 C 0.68258 0.11125 0.7086 0.0
C1997 C 0.74111 0.12111 0.6966 0.0
C1998 C 0.72101 0.11798 0.70042 0.0
H1999 H 0.61523 0.069 0.71856 0.0
H2000 H 0.64821 0.07527 0.71096 0.0
H2001 H 0.69946 0.13792 0.7251 0.0
H2002 H 0.78742 0.15741 0.68733 0.0
H2003 H 0.75409 0.15216 0.69295 0.0
C2004 C 0.84256 0.49136 0.74425 0.0
C2005 C 0.84959 0.48063 0.73481 0.0
C2006 C 0.84267 0.50767 0.73863 0.0
C2007 C 0.84139 0.52916 0.702 0.0
H2008 H 0.86427 0.57877 0.72943 0.0
C2009 C 0.84998 0.60011 0.67888 0.0
C2010 C 0.84672 0.61277 0.68963 0.0
C2011 C 0.85099 0.58426 0.68429 0.0
C2012 C 0.85754 0.56497 0.72168 0.0
H2013 H 0.86199 0.47842 0.71199 0.0
H2014 H 0.86179 0.50675 0.70205 0.0
H2015 H 0.86423 0.55031 0.73908 0.0
H2016 H 0.84204 0.61911 0.71442 0.0
H2017 H 0.84315 0.59113 0.72389 0.0
H2018 H 0.8341 0.54346 0.68477 0.0
C2019 C 0.85632 0.50255 0.71383 0.0
C2020 C 0.85761 0.5487 0.72721 0.0
C2021 C 0.85651 0.48642 0.71955 0.0
C2022 C 0.84471 0.60955 0.70592 0.0
C2023 C 0.84544 0.59356 0.71133 0.0
C2024 C 0.84105 0.54533 0.69654 0.0
C2025 C 0.84951 0.51339 0.72336 0.0
C2026 C 0.84955 0.53066 0.71742 0.0
C2027 C 0.84856 0.58065 0.70058 0.0
C2028 C 0.84912 0.56347 0.70631 0.0
H2029 H 0.83717 0.48729 0.75607 0.0
H2030 H 0.83718 0.51569 0.74615 0.0
H2031 H 0.83489 0.51533 0.69428 0.0
H2032 H 0.85222 0.60269 0.66638 0.0
H2033 H 0.85392 0.57498 0.67572 0.0
C2034 C 0.44921 0.9034 0.21908 0.0
C2035 C 0.46276 0.90344 0.23039 0.0
C2036 C 0.45591 0.91201 0.20474 0.0
C2037 C 0.50099 0.94974 0.18695 0.0
H2038 H 0.47007 0.92459 0.1466 0.0
C2039 C 0.52888 0.98409 0.12726 0.0
C2040 C 0.51451 0.98332 0.11642 0.0
C2041 C 0.52292 0.97336 0.14068 0.0
C2042 C 0.47878 0.93193 0.15779 0.0
H2043 H 0.49397 0.91235 0.2353 0.0
H2044 H 0.50566 0.92747 0.21022 0.0
H2045 H 0.45909 0.90755 0.17087 0.0
H2046 H 0.48259 0.97066 0.11118 0.0
H2047 H 0.47215 0.95216 0.13472 0.0
H2048 H 0.52043 0.97431 0.17403 0.0
C2049 C 0.48986 0.92083 0.21255 0.0
C2050 C 0.47251 0.92212 0.17168 0.0
C2051 C 0.48313 0.91207 0.22688 0.0
C2052 C 0.49402 0.97139 0.11921 0.0
C2053 C 0.48805 0.96075 0.1327 0.0
C2054 C 0.5072 0.9596 0.17308 0.0
C2055 C 0.47633 0.92098 0.20136 0.0
C2056 C 0.48349 0.93097 0.18644 0.0
C2057 C 0.50243 0.96168 0.14367 0.0
C2058 C 0.49612 0.95088 0.15833 0.0
H2059 H 0.43341 0.89688 0.22137 0.0
H2060 H 0.44514 0.91207 0.19645 0.0
H2061 H 0.50961 0.95708 0.19817 0.0
H2062 H 0.54478 -0.0071 0.12529 0.0
H2063 H 0.53441 0.97414 0.14867 0.0
C2064 C 0.07926 0.52562 0.23035 0.0
C2065 C 0.06722 0.51125 0.24054 0.0
C2066 C 0.07166 0.52561 0.21517 0.0
C2067 C 0.03103 0.4939 0.18411 0.0
H2068 H 0.04376 0.54445 0.1697 0.0
C2069 C 0.00336 0.52672 0.13182 0.0
C2070 C 0.00196 0.51404 0.11831 0.0
C2071 C 0.01153 0.52619 0.14656 0.0
C2072 C 0.03993 0.53019 0.17359 0.0
H2073 H 0.03803 0.4852 0.24269 0.0
H2074 H 0.0246 0.48531 0.21627 0.0
H2075 H 0.05732 0.54365 0.19574 0.0
H2076 H 0.00789 0.49068 0.10979 0.0
H2077 H 0.0226 0.49008 0.1354 0.0
H2078 H 0.01317 0.48041 0.16213 0.0
C2079 C 0.03997 0.49653 0.21993 0.0
C2080 C 0.04792 0.52975 0.18844 0.0
C2081 C 0.04762 0.49651 0.23509 0.0
C2082 C 0.00894 0.5008 0.1199 0.0
C2083 C 0.01715 0.50029 0.13464 0.0
C2084 C 0.023 0.49434 0.16926 0.0
C2085 C 0.05185 0.51118 0.20983 0.0
C2086 C 0.04355 0.5116 0.1939 0.0
C2087 C 0.01856 0.51298 0.14815 0.0
C2088 C 0.0273 0.51249 0.16384 0.0
H2089 H 0.09467 0.53669 0.23396 0.0
H2090 H 0.08139 0.5368 0.20754 0.0
H2091 H 0.02753 0.47967 0.18786 0.0
H2092 H -0.00167 0.53725 0.13098 0.0
H2093 H 0.01216 0.53601 0.15675 0.0
C2094 C 0.43455 0.50893 0.2201 0.0
C2095 C 0.44699 0.51419 0.23413 0.0
C2096 C 0.44087 0.50511 0.20522 0.0
C2097 C 0.48635 0.52081 0.18436 0.0
H2098 H 0.45706 0.47311 0.15492 0.0
C2099 C 0.52291 0.50788 0.12863 0.0
C2100 C 0.51091 0.49806 0.11444 0.0
C2101 C 0.51419 0.50891 0.143 0.0
C2102 C 0.4653 0.48668 0.16286 0.0
H2103 H 0.47544 0.51885 0.2436 0.0
H2104 H 0.48651 0.5126 0.21765 0.0
H2105 H 0.44274 0.47607 0.18035 0.0
H2106 H 0.48012 0.4813 0.10446 0.0
H2107 H 0.46504 0.4841 0.12928 0.0
H2108 H 0.50856 0.53189 0.16692 0.0
C2109 C 0.47189 0.51136 0.21821 0.0
C2110 C 0.45711 0.48828 0.17744 0.0
C2111 C 0.46548 0.51484 0.23305 0.0
C2112 C 0.48991 0.48929 0.11505 0.0
C2113 C 0.4812 0.49061 0.12939 0.0
C2114 C 0.49435 0.5194 0.16972 0.0
C2115 C 0.45983 0.50683 0.20415 0.0
C2116 C 0.46774 0.50524 0.18838 0.0
C2117 C 0.49323 0.50048 0.14356 0.0
C2118 C 0.48411 0.50219 0.15886 0.0
H2119 H 0.42021 0.50826 0.22055 0.0
H2120 H 0.43135 0.50165 0.19449 0.0
H2121 H 0.49466 0.53418 0.19254 0.0
H2122 H 0.53913 0.51506 0.12865 0.0
H2123 H 0.52396 0.51629 0.1537 0.0
C2124 C 0.90495 0.46038 0.80172 0.0
C2125 C 0.90679 0.44976 0.78805 0.0
C2126 C 0.9177 0.46552 0.81543 0.0
C2127 C 0.94682 0.44823 0.83592 0.0
H2128 H 0.97255 0.49981 0.86068 0.0
C2129 C 0.00174 0.46618 0.88974 0.0
C2130 C 0.00099 0.47753 0.90338 0.0
C2131 C 0.99122 0.46403 0.87539 0.0
C2132 C 0.96527 0.48525 0.85401 0.0
H2133 H 0.92401 0.43694 0.77785 0.0
H2134 H 0.94606 0.44581 0.80173 0.0
H2135 H 0.95242 0.4942 0.83609 0.0
H2136 H 0.98893 0.49598 0.91241 0.0
H2137 H 0.96991 0.49153 0.88763 0.0
H2138 H 0.95905 0.43897 0.8539 0.0
C2139 C 0.93467 0.45001 0.80189 0.0
C2140 C 0.95381 0.48209 0.83991 0.0
C2141 C 0.92209 0.44503 0.78818 0.0
C2142 C 0.98961 0.48686 0.90224 0.0
C2143 C 0.97892 0.48455 0.88792 0.0
C2144 C 0.95807 0.4513 0.85006 0.0
C2145 C 0.93238 0.45997 0.81574 0.0
C2146 C 0.94458 0.46357 0.83069 0.0
C2147 C 0.97949 0.47299 0.87434 0.0
C2148 C 0.96753 0.46987 0.85927 0.0
H2149 H 0.89335 0.46429 0.802 0.0
H2150 H 0.91556 0.47314 0.82598 0.0
H2151 H 0.93956 0.43368 0.82921 0.0
H2152 H 0.01017 0.4586 0.89019 0.0
H2153 H 0.9923 0.45529 0.86512 0.0
C2154 C 0.54781 0.45152 0.7894 0.0
C2155 C 0.54825 0.46401 0.77816 0.0
C2156 C 0.53987 0.45162 0.80441 0.0
C2157 C 0.50502 0.4641 0.82484 0.0
H2158 H 0.5318 0.46385 0.86402 0.0
C2159 C 0.4791 0.47576 0.88724 0.0
C2160 C 0.4793 0.46432 0.89919 0.0
C2161 C 0.48788 0.47576 0.87265 0.0
C2162 C 0.52399 0.46366 0.85317 0.0
H2163 H 0.54132 0.48684 0.77395 0.0
H2164 H 0.52748 0.48705 0.80012 0.0
H2165 H 0.54651 0.46365 0.83823 0.0
H2166 H 0.48874 0.4438 0.90518 0.0
H2167 H 0.50384 0.44358 0.87962 0.0
H2168 H 0.48239 0.46388 0.83965 0.0
C2169 C 0.533 0.47697 0.79727 0.0
C2170 C 0.53245 0.46358 0.83841 0.0
C2171 C 0.54106 0.47695 0.78234 0.0
C2172 C 0.48856 0.45294 0.89626 0.0
C2173 C 0.49724 0.45285 0.88163 0.0
C2174 C 0.49651 0.46406 0.83957 0.0
C2175 C 0.53217 0.46419 0.80842 0.0
C2176 C 0.5231 0.46392 0.8241 0.0
C2177 C 0.49696 0.46422 0.86962 0.0
C2178 C 0.50594 0.46396 0.85393 0.0
H2179 H 0.55382 0.44184 0.78671 0.0
H2180 H 0.53945 0.44163 0.81277 0.0
H2181 H 0.49729 0.46402 0.81399 0.0
H2182 H 0.47236 0.48492 0.88924 0.0
H2183 H 0.48772 0.48499 0.8638 0.0
C2184 C 0.54984 0.05473 0.79116 0.0
C2185 C 0.54427 0.06892 0.789 0.0
C2186 C 0.5458 0.04545 0.80537 0.0
C2187 C 0.53507 0.05029 0.84779 0.0
H2188 H 0.50615 -0.00725 0.84336 0.0
C2189 C 0.49675 0.00517 0.90117 0.0
C2190 C 0.49561 -0.01317 0.9019 0.0
C2191 C 0.50428 0.01574 0.88777 0.0
C2192 C 0.51456 0.00882 0.84491 0.0
H2193 H 0.53079 0.08504 0.80032 0.0
H2194 H 0.52411 0.0691 0.82519 0.0
H2195 H 0.51726 0.01048 0.81952 0.0
H2196 H 0.50215 0.9655 0.8895 0.0
H2197 H 0.51591 0.98418 0.86637 0.0
H2198 H 0.53268 0.04876 0.87315 0.0
C2199 C 0.53148 0.06508 0.81586 0.0
C2200 C 0.52087 0.01897 0.8312 0.0
C2201 C 0.53522 0.07412 0.80158 0.0
C2202 C 0.50259 0.97948 0.88914 0.0
C2203 C 0.51039 -0.00983 0.87585 0.0
C2204 C 0.52902 0.04016 0.86154 0.0
C2205 C 0.53644 0.05043 0.8178 0.0
C2206 C 0.53099 0.03979 0.83248 0.0
C2207 C 0.51112 0.00835 0.87487 0.0
C2208 C 0.51847 0.01925 0.86029 0.0
H2209 H 0.55679 0.05035 0.7817 0.0
H2210 H 0.5499 0.03429 0.80661 0.0
H2211 H 0.54302 0.06637 0.84912 0.0
H2212 H 0.4913 0.01108 0.91079 0.0
H2213 H 0.50424 0.02948 0.88739 0.0
C2214 C 0.11906 0.23918 0.55248 0.0
C2215 C 0.13141 0.23644 0.56308 0.0
C2216 C 0.12679 0.24921 0.53887 0.0
C2217 C 0.16954 0.26546 0.51206 0.0
H2218 H 0.15095 0.29989 0.49871 0.0
C2219 C 0.20644 0.31853 0.46259 0.0
C2220 C 0.19345 0.31952 0.45139 0.0
C2221 C 0.19893 0.30809 0.47606 0.0
C2222 C 0.15615 0.29017 0.50219 0.0
H2223 H 0.16167 0.24224 0.56766 0.0
H2224 H 0.17528 0.26014 0.5441 0.0
H2225 H 0.13814 0.28273 0.52268 0.0
H2226 H 0.16238 0.31034 0.44557 0.0
H2227 H 0.14923 0.29207 0.46909 0.0
H2228 H 0.18779 0.27322 0.49163 0.0
C2229 C 0.15949 0.25419 0.54614 0.0
C2230 C 0.14878 0.28029 0.51593 0.0
C2231 C 0.15172 0.24402 0.55973 0.0
C2232 C 0.17275 0.30974 0.45392 0.0
C2233 C 0.16525 0.29944 0.46746 0.0
C2234 C 0.17702 0.27547 0.49837 0.0
C2235 C 0.14712 0.25692 0.53553 0.0
C2236 C 0.1553 0.26772 0.52102 0.0
C2237 C 0.17827 0.29853 0.47871 0.0
C2238 C 0.17035 0.28788 0.49325 0.0
H2239 H 0.10331 0.23343 0.5546 0.0
H2240 H 0.1167 0.25067 0.53084 0.0
H2241 H 0.17469 0.25567 0.51544 0.0
H2242 H 0.22244 0.32574 0.4609 0.0
H2243 H 0.20935 0.30779 0.48455 0.0
C2244 C 0.76437 0.85658 0.54847 0.0
C2245 C 0.75794 0.84995 0.56361 0.0
C2246 C 0.75069 0.84958 0.53522 0.0
C2247 C 0.6967 0.82816 0.52539 0.0
H2248 H 0.71212 0.82196 0.48215 0.0
C2249 C 0.65487 0.83026 0.46912 0.0
C2250 C 0.65339 0.8184 0.45502 0.0
C2251 C 0.66598 0.83115 0.4827 0.0
C2252 C 0.70741 0.82333 0.49415 0.0
H2253 H 0.73224 0.83002 0.57653 0.0
H2254 H 0.70842 0.81754 0.5533 0.0
H2255 H 0.73475 0.82788 0.50495 0.0
H2256 H 0.66152 0.79742 0.44433 0.0
H2257 H 0.68068 0.79874 0.46811 0.0
H2258 H 0.66929 0.82348 0.51458 0.0
C2259 C 0.72399 0.82847 0.55176 0.0
C2260 C 0.72052 0.82697 0.50722 0.0
C2261 C 0.73767 0.83553 0.56505 0.0
C2262 C 0.66267 0.80693 0.45496 0.0
C2263 C 0.67367 0.80772 0.46857 0.0
C2264 C 0.68355 0.82444 0.51231 0.0
C2265 C 0.73027 0.8357 0.53676 0.0
C2266 C 0.71549 0.8298 0.52298 0.0
C2267 C 0.67575 0.8201 0.48252 0.0
C2268 C 0.6889 0.82232 0.49651 0.0
H2269 H 0.77986 0.86771 0.54692 0.0
H2270 H 0.75603 0.85568 0.52391 0.0
H2271 H 0.69241 0.83045 0.53734 0.0
H2272 H 0.64807 0.83943 0.46945 0.0
H2273 H 0.6675 0.84107 0.49314 0.0
C2274 C 0.10161 0.88277 0.54269 0.0
C2275 C 0.08168 0.86705 0.54289 0.0
C2276 C 0.11532 0.88072 0.533 0.0
C2277 C 0.12286 0.84291 0.509 0.0
H2278 H 0.15878 0.88745 0.48585 0.0
C2279 C 0.15929 0.83525 0.45088 0.0
C2280 C 0.17942 0.84964 0.44896 0.0
C2281 C 0.14929 0.8372 0.46417 0.0
C2282 C 0.14907 0.87498 0.49241 0.0
H2283 H 0.06039 0.837 0.53289 0.0
H2284 H 0.08401 0.83361 0.51564 0.0
H2285 H 0.13759 0.89136 0.50561 0.0
H2286 H 0.20502 0.87713 0.45954 0.0
H2287 H 0.18742 0.88064 0.48281 0.0
H2288 H 0.13383 0.82634 0.49525 0.0
C2289 C 0.08933 0.84732 0.52333 0.0
C2290 C 0.13693 0.87721 0.50378 0.0
C2291 C 0.0757 0.84933 0.5331 0.0
C2292 C 0.18953 0.86577 0.4608 0.0
C2293 C 0.17944 0.86785 0.47402 0.0
C2294 C 0.13486 0.84064 0.49753 0.0
C2295 C 0.10931 0.863 0.52311 0.0
C2296 C 0.12344 0.86111 0.51204 0.0
C2297 C 0.15916 0.85369 0.47573 0.0
C2298 C 0.14787 0.85657 0.48897 0.0
H2299 H 0.10651 0.89689 0.54954 0.0
H2300 H 0.13059 0.89309 0.53317 0.0
H2301 H 0.11297 0.83031 0.51538 0.0
H2302 H 0.1512 0.82261 0.44197 0.0
H2303 H 0.13361 0.82615 0.4651 0.0
C2304 C 0.57348 0.79575 0.13537 0.0
C2305 C 0.57806 0.78742 0.12164 0.0
C2306 C 0.58536 0.80135 0.14965 0.0
C2307 C 0.6183 0.78879 0.17074 0.0
H2308 H 0.635 0.83759 0.19803 0.0
C2309 C 0.67105 0.81041 0.22682 0.0
C2310 C 0.66718 0.81914 0.24069 0.0
C2311 C 0.6609 0.80772 0.21215 0.0
C2312 C 0.63025 0.82379 0.19064 0.0
H2313 H 0.59925 0.77925 0.11198 0.0
H2314 H 0.61985 0.78898 0.13683 0.0
H2315 H 0.61604 0.83119 0.17261 0.0
H2316 H 0.64983 0.8323 0.24985 0.0
H2317 H 0.63159 0.82691 0.22439 0.0
H2318 H 0.63198 0.78107 0.18878 0.0
C2319 C 0.60696 0.79097 0.1366 0.0
C2320 C 0.61945 0.82017 0.17607 0.0
C2321 C 0.59519 0.7855 0.12233 0.0
C2322 C 0.65299 0.82525 0.23947 0.0
C2323 C 0.64273 0.82243 0.2248 0.0
C2324 C 0.62892 0.79231 0.18533 0.0
C2325 C 0.60196 0.7986 0.15049 0.0
C2326 C 0.61346 0.80267 0.16594 0.0
C2327 C 0.64648 0.81352 0.21097 0.0
C2328 C 0.63512 0.80989 0.19544 0.0
H2329 H 0.56041 0.79746 0.13524 0.0
H2330 H 0.58112 0.80713 0.1602 0.0
H2331 H 0.61354 0.77499 0.16333 0.0
H2332 H 0.6817 0.80532 0.22733 0.0
H2333 H 0.66441 0.80109 0.2017 0.0
C2334 C 0.23004 0.79088 0.13495 0.0
C2335 C 0.2298 0.79948 0.12094 0.0
C2336 C 0.22326 0.79548 0.14924 0.0
C2337 C 0.18875 0.81227 0.16306 0.0
H2338 H 0.21156 0.81534 0.2053 0.0
C2339 C 0.14467 0.8028 0.22034 0.0
C2340 C 0.15512 0.81504 0.2344 0.0
C2341 C 0.15498 0.80283 0.20662 0.0
C2342 C 0.20512 0.81473 0.1936 0.0
H2343 H 0.22333 0.82057 0.11124 0.0
H2344 H 0.21174 0.82876 0.13624 0.0
H2345 H 0.22874 0.81318 0.18141 0.0
H2346 H 0.18459 0.8373 0.24492 0.0
H2347 H 0.20258 0.8373 0.22097 0.0
H2348 H 0.16516 0.81383 0.17521 0.0
C2349 C 0.21682 0.81816 0.13607 0.0
C2350 C 0.21487 0.8133 0.17991 0.0
C2351 C 0.2236 0.81356 0.12177 0.0
C2352 C 0.17612 0.82746 0.23436 0.0
C2353 C 0.18643 0.82747 0.22064 0.0
C2354 C 0.179 0.81366 0.17673 0.0
C2355 C 0.21611 0.80881 0.14986 0.0
C2356 C 0.20669 0.81185 0.16448 0.0
C2357 C 0.17599 0.8151 0.20663 0.0
C2358 C 0.18694 0.81468 0.19215 0.0
H2359 H 0.23473 0.77998 0.13474 0.0
H2360 H 0.22278 0.78789 0.1596 0.0
H2361 H 0.1819 0.81093 0.15136 0.0
H2362 H 0.12855 0.79284 0.22004 0.0
H2363 H 0.14652 0.79288 0.1961 0.0
C2364 C 0.22492 0.40545 0.13201 0.0
C2365 C 0.20968 0.40587 0.12312 0.0
C2366 C 0.22092 0.39697 0.14663 0.0
C2367 C 0.18368 0.3815 0.17849 0.0
H2368 H 0.2064 0.34956 0.18943 0.0
C2369 C 0.15222 0.32718 0.22712 0.0
C2370 C 0.16602 0.32679 0.23785 0.0
C2371 C 0.15885 0.33817 0.21388 0.0
C2372 C 0.20013 0.35863 0.18662 0.0
H2373 H 0.17818 0.39735 0.12256 0.0
H2374 H 0.17116 0.38227 0.14764 0.0
H2375 H 0.21559 0.36609 0.16478 0.0
H2376 H 0.1976 0.3376 0.24309 0.0
H2377 H 0.20922 0.35677 0.2198 0.0
H2378 H 0.1678 0.37357 0.20009 0.0
C2379 C 0.18635 0.38892 0.14362 0.0
C2380 C 0.20543 0.36816 0.17251 0.0
C2381 C 0.19036 0.39748 0.12913 0.0
C2382 C 0.18664 0.33772 0.23508 0.0
C2383 C 0.19327 0.34855 0.22169 0.0
C2384 C 0.17827 0.37186 0.19248 0.0
C2385 C 0.20157 0.38864 0.15264 0.0
C2386 C 0.19705 0.3795 0.16815 0.0
C2387 C 0.17943 0.34889 0.21096 0.0
C2388 C 0.18624 0.36013 0.19661 0.0
H2389 H 0.23999 0.41182 0.12775 0.0
H2390 H 0.23307 0.39719 0.15331 0.0
H2391 H 0.1773 0.3905 0.17576 0.0
H2392 H 0.13626 0.31905 0.22902 0.0
H2393 H 0.14781 0.338 0.20575 0.0
C2394 C 0.79465 0.59084 0.89426 0.0
C2395 C 0.79933 0.57641 0.89785 0.0
C2396 C 0.80094 0.60023 0.8802 0.0
C2397 C 0.83656 0.60943 0.84751 0.0
H2398 H 0.80242 0.6248 0.82653 0.0
C2399 C 0.85112 0.64051 0.78514 0.0
C2400 C 0.85102 0.65833 0.78478 0.0
C2401 C 0.8446 0.62974 0.79855 0.0
C2402 C 0.81212 0.62064 0.8323 0.0
H2403 H 0.81423 0.56046 0.88943 0.0
H2404 H 0.82461 0.57631 0.86456 0.0
H2405 H 0.79135 0.60711 0.85041 0.0
H2406 H 0.84361 0.67862 0.7979 0.0
H2407 H 0.83181 0.65958 0.8212 0.0
H2408 H 0.85707 0.62263 0.82898 0.0
C2409 C 0.81652 0.58079 0.87282 0.0
C2410 C 0.80587 0.6106 0.84606 0.0
C2411 C 0.81048 0.5716 0.88705 0.0
C2412 C 0.84396 0.665 0.79793 0.0
C2413 C 0.83711 0.65406 0.81119 0.0
C2414 C 0.84266 0.6192 0.83356 0.0
C2415 C 0.8118 0.59522 0.86918 0.0
C2416 C 0.81812 0.60509 0.85402 0.0
C2417 C 0.83749 0.6364 0.81168 0.0
C2418 C 0.8306 0.62511 0.82595 0.0
H2419 H 0.78626 0.59506 0.90241 0.0
H2420 H 0.79742 0.61159 0.8781 0.0
H2421 H 0.84657 0.60572 0.85337 0.0
H2422 H 0.85658 0.6351 0.77518 0.0
H2423 H 0.84495 0.61611 0.79861 0.0
C2424 C 0.4297 0.18989 0.88391 0.0
C2425 C 0.42218 0.18215 0.89853 0.0
C2426 C 0.41713 0.18323 0.87 0.0
C2427 C 0.36364 0.15989 0.85706 0.0
H2428 H 0.38356 0.15704 0.81497 0.0
C2429 C 0.31481 0.13738 0.79755 0.0
C2430 C 0.32401 0.14977 0.78527 0.0
C2431 C 0.32599 0.13929 0.81147 0.0
C2432 C 0.37782 0.15783 0.82665 0.0
H2433 H 0.3957 0.16069 0.90983 0.0
H2434 H 0.3738 0.14878 0.88543 0.0
H2435 H 0.40462 0.16306 0.83898 0.0
H2436 H 0.35204 0.17433 0.77831 0.0
H2437 H 0.37149 0.17737 0.80239 0.0
H2438 H 0.33686 0.15474 0.84462 0.0
C2439 C 0.38936 0.16031 0.88482 0.0
C2440 C 0.38988 0.16131 0.8404 0.0
C2441 C 0.40195 0.16704 0.89878 0.0
C2442 C 0.34456 0.16423 0.78733 0.0
C2443 C 0.35573 0.166 0.80114 0.0
C2444 C 0.35151 0.15626 0.84328 0.0
C2445 C 0.39673 0.16857 0.87032 0.0
C2446 C 0.3831 0.16278 0.85577 0.0
C2447 C 0.3466 0.1535 0.81332 0.0
C2448 C 0.35866 0.15559 0.82794 0.0
H2449 H 0.4452 0.20158 0.88327 0.0
H2450 H 0.42327 0.19014 0.85912 0.0
H2451 H 0.35803 0.16118 0.86868 0.0
H2452 H 0.29907 0.12595 0.79627 0.0
H2453 H 0.3186 0.1294 0.82065 0.0
C2454 C 0.76374 0.17851 0.88693 0.0
C2455 C 0.77789 0.1906 0.89953 0.0
C2456 C 0.77012 0.17472 0.87205 0.0
C2457 C 0.81411 0.19638 0.84723 0.0
H2458 H 0.79036 0.14381 0.82434 0.0
C2459 C 0.85245 0.17981 0.79447 0.0
C2460 C 0.84038 0.1672 0.78108 0.0
C2461 C 0.84375 0.18209 0.80849 0.0
C2462 C 0.79697 0.15863 0.83048 0.0
H2463 H 0.8098 0.20767 0.90648 0.0
H2464 H 0.82074 0.20105 0.88073 0.0
H2465 H 0.77669 0.14858 0.8496 0.0
H2466 H 0.80962 0.14681 0.77207 0.0
H2467 H 0.79439 0.15118 0.79646 0.0
H2468 H 0.83433 0.20654 0.82825 0.0
C2469 C 0.80477 0.19472 0.88223 0.0
C2470 C 0.78914 0.16134 0.84494 0.0
C2471 C 0.79845 0.1984 0.89704 0.0
C2472 C 0.81936 0.15683 0.7821 0.0
C2473 C 0.81063 0.15915 0.79614 0.0
C2474 C 0.82185 0.19371 0.8328 0.0
C2475 C 0.79073 0.18309 0.86949 0.0
C2476 C 0.79787 0.1802 0.85359 0.0
C2477 C 0.82273 0.1719 0.80948 0.0
C2478 C 0.81361 0.17475 0.82437 0.0
H2479 H 0.7478 0.17226 0.88846 0.0
H2480 H 0.75896 0.16572 0.86242 0.0
H2481 H 0.82088 0.21118 0.85347 0.0
H2482 H 0.86867 0.18818 0.79405 0.0
H2483 H 0.85354 0.1918 0.81861 0.0
C2484 C 0.27679 0.13666 0.45274 0.0
C2485 C 0.25681 0.1325 0.45261 0.0
C2486 C 0.28819 0.14205 0.4672 0.0
C2487 C 0.29378 0.16234 0.50897 0.0
H2488 H 0.3154 0.12852 0.51685 0.0
C2489 C 0.3271 0.1639 0.57139 0.0
C2490 C 0.34301 0.16007 0.57215 0.0
C2491 C 0.31733 0.16192 0.55668 0.0
C2492 C 0.30987 0.1384 0.51478 0.0
H2493 H 0.23348 0.13179 0.46746 0.0
H2494 H 0.25369 0.14166 0.49278 0.0
H2495 H 0.29759 0.12365 0.49132 0.0
H2496 H 0.36125 0.15142 0.55781 0.0
H2497 H 0.34509 0.14913 0.5322 0.0
H2498 H 0.30643 0.17745 0.53225 0.0
C2499 C 0.26036 0.14054 0.48164 0.0
C2500 C 0.29955 0.1355 0.50017 0.0
C2501 C 0.24881 0.13483 0.46718 0.0
C2502 C 0.34923 0.15471 0.55775 0.0
C2503 C 0.33968 0.15306 0.54302 0.0
C2504 C 0.30443 0.16549 0.52353 0.0
C2505 C 0.27996 0.1437 0.48179 0.0
C2506 C 0.29136 0.14737 0.49716 0.0
C2507 C 0.32341 0.15636 0.54229 0.0
C2508 C 0.31253 0.15349 0.52666 0.0
H2509 H 0.28342 0.135 0.44174 0.0
H2510 H 0.30334 0.14458 0.46702 0.0
H2511 H 0.28766 0.17174 0.50686 0.0
H2512 H 0.32212 0.16844 0.58217 0.0
H2513 H 0.30474 0.16438 0.55668 0.0
C2514 C 0.8833 0.12295 0.4552 0.0
C2515 C 0.88382 0.1359 0.44436 0.0
C2516 C 0.87526 0.1225 0.47025 0.0
C2517 C 0.84011 0.13404 0.49123 0.0
H2518 H 0.86669 0.13283 0.53014 0.0
C2519 C 0.81323 0.1435 0.5537 0.0
C2520 C 0.81342 0.13179 0.56541 0.0
C2521 C 0.8223 0.14407 0.53916 0.0
C2522 C 0.85894 0.1329 0.51937 0.0
H2523 H 0.87693 0.15895 0.44093 0.0
H2524 H 0.86292 0.15817 0.46716 0.0
H2525 H 0.88166 0.1335 0.50432 0.0
H2526 H 0.82324 0.11145 0.57107 0.0
H2527 H 0.83883 0.11219 0.54558 0.0
H2528 H 0.81727 0.13317 0.5061 0.0
C2529 C 0.86846 0.14818 0.46397 0.0
C2530 C 0.86754 0.13333 0.50459 0.0
C2531 C 0.87662 0.14873 0.44901 0.0
C2532 C 0.82303 0.12078 0.56233 0.0
C2533 C 0.832 0.12124 0.54773 0.0
C2534 C 0.83145 0.13348 0.50595 0.0
C2535 C 0.86754 0.13495 0.4747 0.0
C2536 C 0.85829 0.13404 0.49038 0.0
C2537 C 0.83166 0.13283 0.53593 0.0
C2538 C 0.84081 0.13305 0.52024 0.0
H2539 H 0.88928 0.11332 0.45215 0.0
H2540 H 0.87477 0.11217 0.47829 0.0
H2541 H 0.83245 0.13424 0.48044 0.0
H2542 H 0.80622 0.1524 0.55584 0.0
H2543 H 0.82211 0.15349 0.53051 0.0
C2544 C 0.88966 0.73917 0.46462 0.0
C2545 C 0.8743 0.73821 0.45483 0.0
C2546 C 0.88518 0.72992 0.47889 0.0
C2547 C 0.84553 0.71092 0.5085 0.0
H2548 H 0.87177 0.68319 0.52218 0.0
C2549 C 0.81529 0.65816 0.55815 0.0
C2550 C 0.82917 0.65904 0.56956 0.0
C2551 C 0.82187 0.66868 0.54467 0.0
C2552 C 0.86449 0.69108 0.5186 0.0
H2553 H 0.84207 0.72612 0.45211 0.0
H2554 H 0.8343 0.70978 0.47663 0.0
H2555 H 0.88126 0.69953 0.49742 0.0
H2556 H 0.86089 0.67164 0.57574 0.0
H2557 H 0.87243 0.69014 0.55209 0.0
H2558 H 0.82856 0.70224 0.5295 0.0
C2559 C 0.84987 0.71809 0.47357 0.0
C2560 C 0.86993 0.70046 0.50442 0.0
C2561 C 0.85434 0.72736 0.45941 0.0
C2562 C 0.84984 0.67078 0.5672 0.0
C2563 C 0.85643 0.68121 0.55361 0.0
C2564 C 0.84005 0.7015 0.52259 0.0
C2565 C 0.86524 0.71948 0.48364 0.0
C2566 C 0.86031 0.71028 0.49909 0.0
C2567 C 0.8425 0.68029 0.5422 0.0
C2568 C 0.84928 0.69127 0.52771 0.0
H2569 H 0.9052 0.74743 0.46147 0.0
H2570 H 0.89741 0.7314 0.48639 0.0
H2571 H 0.83816 0.71876 0.505 0.0
H2572 H 0.79928 0.64942 0.5597 0.0
H2573 H 0.81074 0.6675 0.53603 0.0
loop_
_geom_bond_atom_site_label_1
_geom_bond_atom_site_label_2
_geom_bond_distance
_geom_bond_site_symmetry_2
_ccdc_geom_bond_type
O0 Cd1 2.300 . S
O0 C7 1.275 . S
Cd1 O0 2.300 . S
Cd1 O9 2.381 . S
Cd1 O10 2.378 . S
O2 Cd3 2.385 . S
O2 C7 1.255 . S
Cd3 O2 2.385 . S
Cd3 O4 2.317 . S
O4 Cd3 2.317 . S
O4 C5 1.232 . S
C5 O4 1.232 . S
C5 O6 1.218 . S
O6 C5 1.218 . S
C7 O0 1.275 . S
C7 O2 1.255 . S
C8 O9 1.258 . S
C8 O10 1.256 . S
O9 Cd1 2.381 . S
O9 C8 1.258 . S
O10 Cd1 2.378 . S
O10 C8 1.256 . S
O11 Cd12 2.300 . S
O11 C18 1.275 . S
Cd12 O11 2.300 . S
Cd12 O20 2.381 . S
Cd12 O21 2.378 . S
O13 Cd14 2.385 . S
O13 C18 1.255 . S
Cd14 O13 2.385 . S
Cd14 O15 2.317 . S
O15 Cd14 2.317 . S
O15 C16 1.232 . S
C16 O15 1.232 . S
C16 O17 1.218 . S
O17 C16 1.218 . S
C18 O11 1.275 . S
C18 O13 1.255 . S
C19 O20 1.258 . S
C19 O21 1.256 . S
O20 Cd12 2.381 . S
O20 C19 1.258 . S
O21 Cd12 2.378 . S
O21 C19 1.256 . S
O22 Cd23 2.300 . S
O22 C29 1.275 . S
Cd23 O22 2.300 . S
Cd23 O31 2.381 . S
Cd23 O32 2.378 . S
O24 Cd25 2.385 . S
O24 C29 1.255 . S
Cd25 O24 2.385 . S
Cd25 O26 2.317 . S
O26 Cd25 2.317 . S
O26 C27 1.232 . S
C27 O26 1.232 . S
C27 O28 1.218 . S
O28 C27 1.218 . S
C29 O22 1.275 . S
C29 O24 1.255 . S
C30 O31 1.258 . S
C30 O32 1.256 . S
O31 Cd23 2.381 . S
O31 C30 1.258 . S
O32 Cd23 2.378 . S
O32 C30 1.256 . S
O33 Cd34 2.300 . S
O33 C40 1.275 . S
Cd34 O33 2.300 . S
Cd34 O42 2.381 . S
Cd34 O43 2.378 . S
O35 Cd36 2.385 . S
O35 C40 1.255 . S
Cd36 O35 2.385 . S
Cd36 O37 2.317 . S
O37 Cd36 2.317 . S
O37 C38 1.232 . S
C38 O37 1.232 . S
C38 O39 1.218 . S
O39 C38 1.218 . S
C40 O33 1.275 . S
C40 O35 1.255 . S
C41 O42 1.258 . S
C41 O43 1.256 . S
O42 Cd34 2.381 . S
O42 C41 1.258 . S
O43 Cd34 2.378 . S
O43 C41 1.256 . S
O44 Cd45 2.300 . S
O44 C51 1.275 . S
Cd45 O44 2.300 . S
Cd45 O53 2.381 . S
Cd45 O54 2.378 . S
O46 Cd47 2.385 . S
O46 C51 1.255 . S
Cd47 O46 2.385 . S
Cd47 O48 2.317 . S
O48 Cd47 2.317 . S
O48 C49 1.232 . S
C49 O48 1.232 . S
C49 O50 1.218 . S
O50 C49 1.218 . S
C51 O44 1.275 . S
C51 O46 1.255 . S
C52 O53 1.258 . S
C52 O54 1.256 . S
O53 Cd45 2.381 . S
O53 C52 1.258 . S
O54 Cd45 2.378 . S
O54 C52 1.256 . S
O55 Cd56 2.300 . S
O55 C62 1.275 . S
Cd56 O55 2.300 . S
Cd56 O64 2.381 . S
Cd56 O65 2.378 . S
O57 Cd58 2.385 . S
O57 C62 1.255 . S
Cd58 O57 2.385 . S
Cd58 O59 2.317 . S
O59 Cd58 2.317 . S
O59 C60 1.232 . S
C60 O59 1.232 . S
C60 O61 1.218 . S
O61 C60 1.218 . S
C62 O55 1.275 . S
C62 O57 1.255 . S
C63 O64 1.258 . S
C63 O65 1.256 . S
O64 Cd56 2.381 . S
O64 C63 1.258 . S
O65 Cd56 2.378 . S
O65 C63 1.256 . S
O66 Cd67 2.300 . S
O66 C73 1.275 . S
Cd67 O66 2.300 . S
Cd67 O75 2.381 . S
Cd67 O76 2.378 . S
O68 Cd69 2.385 . S
O68 C73 1.255 . S
Cd69 O68 2.385 . S
Cd69 O70 2.317 . S
O70 Cd69 2.317 . S
O70 C71 1.232 . S
C71 O70 1.232 . S
C71 O72 1.218 . S
O72 C71 1.218 . S
C73 O66 1.275 . S
C73 O68 1.255 . S
C74 O75 1.258 . S
C74 O76 1.256 . S
O75 Cd67 2.381 . S
O75 C74 1.258 . S
O76 Cd67 2.378 . S
O76 C74 1.256 . S
O77 Cd78 2.300 . S
O77 C84 1.275 . S
Cd78 O77 2.300 . S
Cd78 O86 2.381 . S
Cd78 O87 2.378 . S
O79 Cd80 2.385 . S
O79 C84 1.255 . S
Cd80 O79 2.385 . S
Cd80 O81 2.317 . S
O81 Cd80 2.317 . S
O81 C82 1.232 . S
C82 O81 1.232 . S
C82 O83 1.218 . S
O83 C82 1.218 . S
C84 O77 1.275 . S
C84 O79 1.255 . S
C85 O86 1.258 . S
C85 O87 1.256 . S
O86 Cd78 2.381 . S
O86 C85 1.258 . S
O87 Cd78 2.378 . S
O87 C85 1.256 . S
O88 Cd89 2.300 . S
O88 C95 1.275 . S
Cd89 O88 2.300 . S
Cd89 O97 2.381 . S
Cd89 O98 2.378 . S
O90 Cd91 2.385 . S
O90 C95 1.255 . S
Cd91 O90 2.385 . S
Cd91 O92 2.317 . S
O92 Cd91 2.317 . S
O92 C93 1.232 . S
C93 O92 1.232 . S
C93 O94 1.218 . S
O94 C93 1.218 . S
C95 O88 1.275 . S
C95 O90 1.255 . S
C96 O97 1.258 . S
C96 O98 1.256 . S
O97 Cd89 2.381 . S
O97 C96 1.258 . S
O98 Cd89 2.378 . S
O98 C96 1.256 . S
O99 Cd100 2.300 . S
O99 C106 1.275 . S
Cd100 O99 2.300 . S
Cd100 O108 2.381 . S
Cd100 O109 2.378 . S
O101 Cd102 2.385 . S
O101 C106 1.255 . S
Cd102 O101 2.385 . S
Cd102 O103 2.317 . S
O103 Cd102 2.317 . S
O103 C104 1.232 . S
C104 O103 1.232 . S
C104 O105 1.218 . S
O105 C104 1.218 . S
C106 O99 1.275 . S
C106 O101 1.255 . S
C107 O108 1.258 . S
C107 O109 1.256 . S
O108 Cd100 2.381 . S
O108 C107 1.258 . S
O109 Cd100 2.378 . S
O109 C107 1.256 . S
O110 Cd111 2.300 . S
O110 C117 1.275 . S
Cd111 O110 2.300 . S
Cd111 O119 2.381 . S
Cd111 O120 2.378 . S
O112 Cd113 2.385 . S
O112 C117 1.255 . S
Cd113 O112 2.385 . S
Cd113 O114 2.317 . S
O114 Cd113 2.317 . S
O114 C115 1.232 . S
C115 O114 1.232 . S
C115 O116 1.218 . S
O116 C115 1.218 . S
C117 O110 1.275 . S
C117 O112 1.255 . S
C118 O119 1.258 . S
C118 O120 1.256 . S
O119 Cd111 2.381 . S
O119 C118 1.258 . S
O120 Cd111 2.378 . S
O120 C118 1.256 . S
O121 Cd122 2.300 . S
O121 C128 1.275 . S
Cd122 O121 2.300 . S
Cd122 O130 2.381 . S
Cd122 O131 2.378 . S
O123 Cd124 2.385 . S
O123 C128 1.255 . S
Cd124 O123 2.385 . S
Cd124 O125 2.317 . S
O125 Cd124 2.317 . S
O125 C126 1.232 . S
C126 O125 1.232 . S
C126 O127 1.218 . S
O127 C126 1.218 . S
C128 O121 1.275 . S
C128 O123 1.255 . S
C129 O130 1.258 . S
C129 O131 1.256 . S
O130 Cd122 2.381 . S
O130 C129 1.258 . S
O131 Cd122 2.378 . S
O131 C129 1.256 . S
O132 Cd133 2.300 . S
O132 C139 1.275 . S
Cd133 O132 2.300 . S
Cd133 O141 2.381 . S
Cd133 O142 2.378 . S
O134 Cd135 2.385 . S
O134 C139 1.255 . S
Cd135 O134 2.385 . S
Cd135 O136 2.317 . S
O136 Cd135 2.317 . S
O136 C137 1.232 . S
C137 O136 1.232 . S
C137 O138 1.218 . S
O138 C137 1.218 . S
C139 O132 1.275 . S
C139 O134 1.255 . S
C140 O141 1.258 . S
C140 O142 1.256 . S
O141 Cd133 2.381 . S
O141 C140 1.258 . S
O142 Cd133 2.378 . S
O142 C140 1.256 . S
O143 Cd144 2.300 . S
O143 C150 1.275 . S
Cd144 O143 2.300 . S
Cd144 O152 2.381 . S
Cd144 O153 2.378 . S
O145 Cd146 2.385 . S
O145 C150 1.255 . S
Cd146 O145 2.385 . S
Cd146 O147 2.317 . S
O147 Cd146 2.317 . S
O147 C148 1.232 . S
C148 O147 1.232 . S
C148 O149 1.218 . S
O149 C148 1.218 . S
C150 O143 1.275 . S
C150 O145 1.255 . S
C151 O152 1.258 . S
C151 O153 1.256 . S
O152 Cd144 2.381 . S
O152 C151 1.258 . S
O153 Cd144 2.378 . S
O153 C151 1.256 . S
O154 Cd155 2.300 . S
O154 C161 1.275 . S
Cd155 O154 2.300 . S
Cd155 O163 2.381 . S
Cd155 O164 2.378 . S
O156 Cd157 2.385 . S
O156 C161 1.255 . S
Cd157 O156 2.385 . S
Cd157 O158 2.317 . S
O158 Cd157 2.317 . S
O158 C159 1.232 . S
C159 O158 1.232 . S
C159 O160 1.218 . S
O160 C159 1.218 . S
C161 O154 1.275 . S
C161 O156 1.255 . S
C162 O163 1.258 . S
C162 O164 1.256 . S
O163 Cd155 2.381 . S
O163 C162 1.258 . S
O164 Cd155 2.378 . S
O164 C162 1.256 . S
O165 Cd166 2.300 . S
O165 C172 1.275 . S
Cd166 O165 2.300 . S
Cd166 O174 2.381 . S
Cd166 O175 2.378 . S
O167 Cd168 2.385 . S
O167 C172 1.255 . S
Cd168 O167 2.385 . S
Cd168 O169 2.317 . S
O169 Cd168 2.317 . S
O169 C170 1.232 . S
C170 O169 1.232 . S
C170 O171 1.218 . S
O171 C170 1.218 . S
C172 O165 1.275 . S
C172 O167 1.255 . S
C173 O174 1.258 . S
C173 O175 1.256 . S
O174 Cd166 2.381 . S
O174 C173 1.258 . S
O175 Cd166 2.378 . S
O175 C173 1.256 . S
O176 Cd177 2.300 . S
O176 C183 1.275 . S
Cd177 O176 2.300 . S
Cd177 O185 2.381 . S
Cd177 O186 2.378 . S
O178 Cd179 2.385 . S
O178 C183 1.255 . S
Cd179 O178 2.385 . S
Cd179 O180 2.317 . S
O180 Cd179 2.317 . S
O180 C181 1.232 . S
C181 O180 1.232 . S
C181 O182 1.218 . S
O182 C181 1.218 . S
C183 O176 1.275 . S
C183 O178 1.255 . S
C184 O185 1.258 . S
C184 O186 1.256 . S
O185 Cd177 2.381 . S
O185 C184 1.258 . S
O186 Cd177 2.378 . S
O186 C184 1.256 . S
O187 Cd188 2.300 . S
O187 C194 1.275 . S
Cd188 O187 2.300 . S
Cd188 O196 2.381 . S
Cd188 O197 2.378 . S
O189 Cd190 2.385 . S
O189 C194 1.255 . S
Cd190 O189 2.385 . S
Cd190 O191 2.317 . S
O191 Cd190 2.317 . S
O191 C192 1.232 . S
C192 O191 1.232 . S
C192 O193 1.218 . S
O193 C192 1.218 . S
C194 O187 1.275 . S
C194 O189 1.255 . S
C195 O196 1.258 . S
C195 O197 1.256 . S
O196 Cd188 2.381 . S
O196 C195 1.258 . S
O197 Cd188 2.378 . S
O197 C195 1.256 . S
Tb198 N229 2.660 . S
Tb198 N236 2.600 . S
Tb198 O242 2.546 . S
Tb198 O243 2.610 1_566 S
Tb198 O245 2.320 1_565 S
Tb198 O246 2.552 1_565 S
Tb198 O247 2.413 1_565 S
Tb198 O249 2.362 1_556 S
Tb198 O250 2.421 . S
Tb198 C262 2.833 . S
C199 C202 1.432 . S
C199 C203 1.414 . S
C199 N206 1.359 . S
C200 C202 1.417 . S
C200 C204 1.432 . S
C200 C212 1.410 . S
C201 C203 1.444 . S
C201 C204 1.317 . S
C201 H224 0.929 . S
C202 C199 1.432 . S
C202 C200 1.417 . S
C202 N210 1.360 . S
C203 C199 1.414 . S
C203 C201 1.444 . S
C203 C208 1.385 . S
C204 C200 1.432 . S
C204 C201 1.317 . S
C204 H216 0.930 . S
C205 C207 1.392 . S
C205 C208 1.370 . S
C205 H217 0.931 . S
N206 C199 1.359 . S
N206 C207 1.327 . S
N206 Tb209 2.600 . S
C207 C205 1.392 . S
C207 N206 1.327 . S
C207 H214 0.930 . S
C208 C203 1.385 . S
C208 C205 1.370 . S
C208 H227 0.930 . S
Tb209 N206 2.600 . S
Tb209 N210 2.660 . S
Tb209 O243 2.362 . S
Tb209 O244 2.421 . S
Tb209 O248 2.546 . S
Tb209 O249 2.610 1_545 S
Tb209 O251 2.320 1_545 S
Tb209 O252 2.552 1_545 S
Tb209 O253 2.413 . S
Tb209 C273 2.833 . S
N210 C202 1.360 . S
N210 Tb209 2.660 . S
N210 C211 1.305 . S
C211 N210 1.305 . S
C211 C213 1.407 . S
C211 H218 0.930 . S
C212 C200 1.410 . S
C212 C213 1.345 . S
C212 H220 0.930 . S
C213 C211 1.407 . S
C213 C212 1.345 . S
C213 H215 0.930 . S
H214 C207 0.930 . S
H215 C213 0.930 . S
H216 C204 0.930 . S
H217 C205 0.931 . S
H218 C211 0.930 . S
H219 C233 0.930 . S
H220 C212 0.930 . S
H221 C239 0.930 . S
H222 C230 0.930 . S
H223 C237 0.931 . S
H224 C201 0.929 . S
H225 C231 0.930 . S
H226 C264 0.930 . S
H227 C208 0.930 . S
H228 C263 0.929 . S
N229 Tb198 2.660 . S
N229 C230 1.305 . S
N229 C234 1.360 . S
C230 H222 0.930 . S
C230 N229 1.305 . S
C230 C233 1.407 . S
C231 H225 0.930 . S
C231 C232 1.410 . S
C231 C233 1.345 . S
C232 C231 1.410 . S
C232 C234 1.417 . S
C232 C264 1.432 . S
C233 H219 0.930 . S
C233 C230 1.407 . S
C233 C231 1.345 . S
C234 N229 1.360 . S
C234 C232 1.417 . S
C234 C238 1.432 . S
H235 C240 0.930 . S
N236 Tb198 2.600 . S
N236 C238 1.359 . S
N236 C239 1.327 . S
C237 H223 0.931 . S
C237 C239 1.392 . S
C237 C240 1.370 . S
C238 C234 1.432 . S
C238 N236 1.359 . S
C238 C241 1.414 . S
C239 H221 0.930 . S
C239 N236 1.327 . S
C239 C237 1.392 . S
C240 H235 0.930 . S
C240 C237 1.370 . S
C240 C241 1.385 . S
C241 C238 1.414 . S
C241 C240 1.385 . S
C241 C263 1.444 . S
O242 Tb198 2.546 . S
O242 C262 1.251 . S
O243 Tb198 2.610 1_544 S
O243 Tb209 2.362 . S
O243 C254 1.283 1_554 S
O244 Tb209 2.421 . S
O244 C261 1.299 . S
O245 Tb198 2.320 1_545 S
O245 C261 1.236 1_556 S
O246 Tb198 2.552 1_545 S
O246 C254 1.243 . S
O247 Tb198 2.413 1_545 S
O247 C262 1.256 1_545 S
O248 Tb209 2.546 . S
O248 C273 1.251 . S
O249 Tb198 2.362 1_554 S
O249 Tb209 2.610 1_565 S
O249 C265 1.283 . S
O250 Tb198 2.421 . S
O250 C272 1.262 1_556 S
O251 Tb209 2.320 1_565 S
O251 C272 1.260 . S
O252 Tb209 2.552 1_565 S
O252 C265 1.243 . S
O253 Tb209 2.413 . S
O253 C273 1.256 . S
C254 O243 1.283 1_556 S
C254 O246 1.243 . S
C255 C257 1.382 1_565 S
C255 C259 1.393 . S
C255 C262 1.500 . S
C256 C257 1.400 . S
C256 C258 1.384 . S
C257 C255 1.382 1_545 S
C257 C256 1.400 . S
C257 H274 0.930 . S
C258 C256 1.384 . S
C258 C260 1.392 1_545 S
C258 H275 0.931 . S
C259 C255 1.393 . S
C259 C260 1.401 . S
C259 H276 0.930 . S
C260 C258 1.392 1_565 S
C260 C259 1.401 . S
C260 H277 0.930 . S
C261 O244 1.299 . S
C261 O245 1.236 1_554 S
C262 Tb198 2.833 . S
C262 O242 1.251 . S
C262 O247 1.256 1_565 S
C262 C255 1.500 . S
C263 H228 0.929 . S
C263 C241 1.444 . S
C263 C264 1.317 . S
C264 H226 0.930 . S
C264 C232 1.432 . S
C264 C263 1.317 . S
C265 O249 1.283 . S
C265 O252 1.243 . S
C266 C267 1.382 1_545 S
C266 C270 1.393 . S
C266 C273 1.500 . S
C267 C266 1.382 1_565 S
C267 C268 1.400 . S
C267 H278 0.930 . S
C268 C267 1.400 . S
C268 C269 1.384 . S
C269 C268 1.384 . S
C269 C271 1.392 1_565 S
C269 H279 0.931 . S
C270 C266 1.393 . S
C270 C271 1.401 . S
C270 H280 0.930 . S
C271 C269 1.392 1_545 S
C271 C270 1.401 . S
C271 H281 0.930 . S
C272 O250 1.262 1_554 S
C272 O251 1.260 . S
C273 Tb209 2.833 . S
C273 O248 1.251 . S
C273 O253 1.256 . S
C273 C266 1.500 . S
H274 C257 0.930 . S
H275 C258 0.931 . S
H276 C259 0.930 . S
H277 C260 0.930 . S
H278 C267 0.930 . S
H279 C269 0.931 . S
H280 C270 0.930 . S
H281 C271 0.930 . S
Tb282 N313 2.660 . S
Tb282 N320 2.600 . S
Tb282 O326 2.546 . S
Tb282 O327 2.610 1_456 S
Tb282 O329 2.320 1_455 S
Tb282 O330 2.552 1_455 S
Tb282 O331 2.413 1_455 S
Tb282 O333 2.362 1_556 S
Tb282 O334 2.421 1_556 S
Tb282 C346 2.833 . S
C283 C286 1.432 . S
C283 C287 1.414 . S
C283 N290 1.359 . S
C284 C286 1.417 . S
C284 C288 1.432 . S
C284 C296 1.410 . S
C285 C287 1.444 . S
C285 C288 1.317 . S
C285 H308 0.929 . S
C286 C283 1.432 . S
C286 C284 1.417 . S
C286 N294 1.360 . S
C287 C283 1.414 . S
C287 C285 1.444 . S
C287 C292 1.385 . S
C288 C284 1.432 . S
C288 C285 1.317 . S
C288 H300 0.930 . S
C289 C291 1.392 . S
C289 C292 1.370 . S
C289 H301 0.931 . S
N290 C283 1.359 . S
N290 C291 1.327 . S
N290 Tb293 2.600 . S
C291 C289 1.392 . S
C291 N290 1.327 . S
C291 H298 0.930 . S
C292 C287 1.385 . S
C292 C289 1.370 . S
C292 H311 0.930 . S
Tb293 N290 2.600 . S
Tb293 N294 2.660 . S
Tb293 O327 2.362 . S
Tb293 O328 2.421 . S
Tb293 O332 2.546 . S
Tb293 O333 2.610 1_655 S
Tb293 O335 2.320 1_655 S
Tb293 O336 2.552 1_655 S
Tb293 O337 2.413 1_655 S
Tb293 C357 2.833 1_655 S
N294 C286 1.360 . S
N294 Tb293 2.660 . S
N294 C295 1.305 . S
C295 N294 1.305 . S
C295 C297 1.407 . S
C295 H302 0.930 1_655 S
C296 C284 1.410 . S
C296 C297 1.345 . S
C296 H304 0.930 . S
C297 C295 1.407 . S
C297 C296 1.345 . S
C297 H299 0.930 . S
H298 C291 0.930 . S
H299 C297 0.930 . S
H300 C288 0.930 . S
H301 C289 0.931 . S
H302 C295 0.930 1_455 S
H303 C317 0.930 . S
H304 C296 0.930 . S
H305 C323 0.930 . S
H306 C314 0.956 . S
H307 C321 0.931 . S
H308 C285 0.929 . S
H309 C315 0.930 . S
H310 C348 0.930 . S
H311 C292 0.930 . S
H312 C347 0.929 . S
N313 Tb282 2.660 . S
N313 C314 1.305 . S
N313 C318 1.360 . S
C314 H306 0.956 . S
C314 N313 1.305 . S
C314 C317 1.407 . S
C315 H309 0.930 . S
C315 C316 1.410 . S
C315 C317 1.345 . S
C316 C315 1.410 . S
C316 C318 1.417 . S
C316 C348 1.432 . S
C317 H303 0.930 . S
C317 C314 1.407 . S
C317 C315 1.345 . S
C318 N313 1.360 . S
C318 C316 1.417 . S
C318 C322 1.432 . S
H319 C324 0.930 . S
N320 Tb282 2.600 . S
N320 C322 1.359 . S
N320 C323 1.327 . S
C321 H307 0.931 . S
C321 C323 1.392 . S
C321 C324 1.370 . S
C322 C318 1.432 . S
C322 N320 1.359 . S
C322 C325 1.414 . S
C323 H305 0.930 . S
C323 N320 1.327 . S
C323 C321 1.392 . S
C324 H319 0.930 . S
C324 C321 1.370 . S
C324 C325 1.385 . S
C325 C322 1.414 . S
C325 C324 1.385 . S
C325 C347 1.444 . S
O326 Tb282 2.546 . S
O326 C346 1.251 . S
O327 Tb282 2.610 1_654 S
O327 Tb293 2.362 . S
O327 C338 1.283 1_554 S
O328 Tb293 2.421 . S
O328 C345 1.262 . S
O329 Tb282 2.320 1_655 S
O329 C345 1.260 1_556 S
O330 Tb282 2.552 1_655 S
O330 C338 1.243 . S
O331 Tb282 2.413 1_655 S
O331 C346 1.256 1_655 S
O332 Tb293 2.546 . S
O332 C357 1.251 1_655 S
O333 Tb282 2.362 1_554 S
O333 Tb293 2.610 1_455 S
O333 C349 1.283 . S
O334 Tb282 2.421 1_554 S
O334 C356 1.262 . S
O335 Tb293 2.320 1_455 S
O335 C356 1.260 . S
O336 Tb293 2.552 1_455 S
O336 C349 1.243 . S
O337 Tb293 2.413 1_455 S
O337 C357 1.256 . S
C338 O327 1.283 1_556 S
C338 O330 1.243 . S
C339 C341 1.382 . S
C339 C343 1.393 1_655 S
C339 C346 1.500 1_655 S
C340 C341 1.400 . S
C340 C342 1.384 . S
C341 C339 1.382 . S
C341 C340 1.400 . S
C341 H358 0.930 . S
C342 C340 1.384 . S
C342 C344 1.392 1_655 S
C342 H359 0.931 . S
C343 C339 1.393 1_455 S
C343 C344 1.401 . S
C343 H360 0.930 . S
C344 C342 1.392 1_455 S
C344 C343 1.401 . S
C344 H361 0.930 . S
C345 O328 1.262 . S
C345 O329 1.260 1_554 S
C346 Tb282 2.833 . S
C346 O326 1.251 . S
C346 O331 1.256 1_455 S
C346 C339 1.500 1_455 S
C347 H312 0.929 . S
C347 C325 1.444 . S
C347 C348 1.317 . S
C348 H310 0.930 . S
C348 C316 1.432 . S
C348 C347 1.317 . S
C349 O333 1.283 . S
C349 O336 1.243 . S
C350 C351 1.382 . S
C350 C354 1.393 1_455 S
C350 C357 1.500 . S
C351 C350 1.382 . S
C351 C352 1.400 . S
C351 H362 0.930 . S
C352 C351 1.400 . S
C352 C353 1.384 . S
C353 C352 1.384 . S
C353 C355 1.392 . S
C353 H363 0.931 . S
C354 C350 1.393 1_655 S
C354 C355 1.401 1_655 S
C354 H364 0.930 . S
C355 C353 1.392 . S
C355 C354 1.401 1_455 S
C355 H365 0.930 1_455 S
C356 O334 1.262 . S
C356 O335 1.260 . S
C357 Tb293 2.833 1_455 S
C357 O332 1.251 1_455 S
C357 O337 1.256 . S
C357 C350 1.500 . S
H358 C341 0.930 . S
H359 C342 0.931 . S
H360 C343 0.930 . S
H361 C344 0.930 . S
H362 C351 0.930 . S
H363 C353 0.931 . S
H364 C354 0.930 . S
H365 C355 0.930 1_655 S
Tb366 N397 2.660 . S
Tb366 N404 2.600 . S
Tb366 O410 2.546 . S
Tb366 O411 2.610 . S
Tb366 O413 2.320 . S
Tb366 O414 2.552 . S
Tb366 O415 2.413 . S
Tb366 O417 2.395 . S
Tb366 O418 2.421 . S
Tb366 C430 2.833 . S
C367 C370 1.432 . S
C367 C371 1.414 . S
C367 N374 1.359 . S
C368 C370 1.417 . S
C368 C372 1.432 . S
C368 C380 1.410 . S
C369 C371 1.444 . S
C369 C372 1.317 . S
C369 H392 0.929 . S
C370 C367 1.432 . S
C370 C368 1.417 . S
C370 N378 1.360 . S
C371 C367 1.414 . S
C371 C369 1.444 . S
C371 C376 1.385 . S
C372 C368 1.432 . S
C372 C369 1.317 . S
C372 H384 0.930 . S
C373 C375 1.392 . S
C373 C376 1.370 . S
C373 H385 0.931 . S
N374 C367 1.359 . S
N374 C375 1.327 . S
N374 Tb377 2.600 . S
C375 C373 1.392 . S
C375 N374 1.327 . S
C375 H382 0.930 . S
C376 C371 1.385 . S
C376 C373 1.370 . S
C376 H395 0.930 . S
Tb377 N374 2.600 . S
Tb377 N378 2.660 . S
Tb377 O411 2.362 1_556 S
Tb377 O412 2.421 . S
Tb377 O416 2.546 . S
Tb377 O417 2.584 1_556 S
Tb377 O419 2.320 . S
Tb377 O420 2.552 . S
Tb377 O421 2.413 . S
Tb377 C441 2.833 . S
N378 C370 1.360 . S
N378 Tb377 2.660 . S
N378 C379 1.305 . S
C379 N378 1.305 . S
C379 C381 1.407 . S
C379 H386 0.930 . S
C380 C368 1.410 . S
C380 C381 1.345 . S
C380 H388 0.930 . S
C381 C379 1.407 . S
C381 C380 1.345 . S
C381 H383 0.930 . S
H382 C375 0.930 . S
H383 C381 0.930 . S
H384 C372 0.930 . S
H385 C373 0.931 . S
H386 C379 0.930 . S
H387 C401 0.930 . S
H388 C380 0.930 . S
H389 C407 0.930 . S
H390 C398 0.930 . S
H391 C405 0.931 . S
H392 C369 0.929 . S
H393 C399 0.930 . S
H394 C432 0.930 . S
H395 C376 0.930 . S
H396 C431 0.929 . S
N397 Tb366 2.660 . S
N397 C398 1.305 . S
N397 C402 1.360 . S
C398 H390 0.930 . S
C398 N397 1.305 . S
C398 C401 1.407 . S
C399 H393 0.930 . S
C399 C400 1.410 . S
C399 C401 1.345 . S
C400 C399 1.410 . S
C400 C402 1.417 . S
C400 C432 1.432 . S
C401 H387 0.930 . S
C401 C398 1.407 . S
C401 C399 1.345 . S
C402 N397 1.360 . S
C402 C400 1.417 . S
C402 C406 1.432 . S
H403 C408 0.930 . S
N404 Tb366 2.600 . S
N404 C406 1.359 . S
N404 C407 1.327 . S
C405 H391 0.931 . S
C405 C407 1.392 . S
C405 C408 1.370 . S
C406 C402 1.432 . S
C406 N404 1.359 . S
C406 C409 1.414 . S
C407 H389 0.930 . S
C407 N404 1.327 . S
C407 C405 1.392 . S
C408 H403 0.930 . S
C408 C405 1.370 . S
C408 C409 1.385 . S
C409 C406 1.414 . S
C409 C408 1.385 . S
C409 C431 1.444 . S
O410 Tb366 2.546 . S
O410 C430 1.251 . S
O411 Tb366 2.610 . S
O411 Tb377 2.362 1_554 S
O411 C422 1.283 . S
O412 Tb377 2.421 . S
O412 C429 1.262 1_556 S
O413 Tb366 2.320 . S
O413 C429 1.260 . S
O414 Tb366 2.552 . S
O414 C422 1.243 . S
O415 Tb366 2.413 . S
O415 C430 1.256 . S
O416 Tb377 2.546 . S
O416 C441 1.251 . S
O417 Tb366 2.395 . S
O417 Tb377 2.584 1_554 S
O417 C433 1.257 1_554 S
O418 Tb366 2.421 . S
O418 C440 1.262 1_554 S
O419 Tb377 2.320 . S
O419 C440 1.260 . S
O420 Tb377 2.552 . S
O420 C433 1.243 . S
O421 Tb377 2.413 . S
O421 C441 1.256 . S
C422 O411 1.283 . S
C422 O414 1.243 . S
C423 C425 1.382 . S
C423 C427 1.393 . S
C423 C430 1.500 . S
C424 C425 1.400 . S
C424 C426 1.384 . S
C425 C423 1.382 . S
C425 C424 1.400 . S
C425 H442 0.930 . S
C426 C424 1.384 . S
C426 C428 1.392 . S
C426 H443 0.931 . S
C427 C423 1.393 . S
C427 C428 1.401 . S
C427 H444 0.930 . S
C428 C426 1.392 . S
C428 C427 1.401 . S
C428 H445 0.930 . S
C429 O412 1.262 1_554 S
C429 O413 1.260 . S
C430 Tb366 2.833 . S
C430 O410 1.251 . S
C430 O415 1.256 . S
C430 C423 1.500 . S
C431 H396 0.929 . S
C431 C409 1.444 . S
C431 C432 1.317 . S
C432 H394 0.930 . S
C432 C400 1.432 . S
C432 C431 1.317 . S
C433 O417 1.257 1_556 S
C433 O420 1.243 . S
C434 C435 1.382 . S
C434 C438 1.393 . S
C434 C441 1.500 . S
C435 C434 1.382 . S
C435 C436 1.400 . S
C435 H446 0.930 . S
C436 C435 1.400 . S
C436 C437 1.384 . S
C437 C436 1.384 . S
C437 C439 1.392 . S
C437 H447 0.931 . S
C438 C434 1.393 . S
C438 C439 1.401 . S
C438 H448 0.930 . S
C439 C437 1.392 . S
C439 C438 1.401 . S
C439 H449 0.930 . S
C440 O418 1.262 1_556 S
C440 O419 1.260 . S
C441 Tb377 2.833 . S
C441 O416 1.251 . S
C441 O421 1.256 . S
C441 C434 1.500 . S
H442 C425 0.930 . S
H443 C426 0.931 . S
H444 C427 0.930 . S
H445 C428 0.930 . S
H446 C435 0.930 . S
H447 C437 0.931 . S
H448 C438 0.930 . S
H449 C439 0.930 . S
Tb450 N481 2.660 . S
Tb450 N488 2.600 . S
Tb450 O494 2.546 . S
Tb450 O495 2.610 . S
Tb450 O497 2.320 . S
Tb450 O498 2.552 . S
Tb450 O499 2.413 . S
Tb450 O501 2.362 . S
Tb450 O502 2.421 . S
Tb450 C514 2.833 . S
C451 C454 1.432 . S
C451 C455 1.414 . S
C451 N458 1.359 . S
C452 C454 1.417 . S
C452 C456 1.432 . S
C452 C464 1.410 . S
C453 C455 1.444 . S
C453 C456 1.317 . S
C453 H476 0.929 . S
C454 C451 1.432 . S
C454 C452 1.417 . S
C454 N462 1.360 . S
C455 C451 1.414 . S
C455 C453 1.444 . S
C455 C460 1.385 . S
C456 C452 1.432 . S
C456 C453 1.317 . S
C456 H468 0.930 . S
C457 C459 1.392 . S
C457 C460 1.370 . S
C457 H469 0.931 . S
N458 C451 1.359 . S
N458 C459 1.327 . S
N458 Tb461 2.600 . S
C459 C457 1.392 . S
C459 N458 1.327 . S
C459 H466 0.930 . S
C460 C455 1.385 . S
C460 C457 1.370 . S
C460 H479 0.930 . S
Tb461 N458 2.600 . S
Tb461 N462 2.660 . S
Tb461 O495 2.362 . S
Tb461 O496 2.421 . S
Tb461 O500 2.546 . S
Tb461 O501 2.610 . S
Tb461 O503 2.320 . S
Tb461 O504 2.552 . S
Tb461 O505 2.413 . S
Tb461 C525 2.833 . S
N462 C454 1.360 . S
N462 Tb461 2.660 . S
N462 C463 1.305 . S
C463 N462 1.305 . S
C463 C465 1.407 . S
C463 H470 0.930 . S
C464 C452 1.410 . S
C464 C465 1.345 . S
C464 H472 0.930 . S
C465 C463 1.407 . S
C465 C464 1.345 . S
C465 H467 0.930 . S
H466 C459 0.930 . S
H467 C465 0.930 . S
H468 C456 0.930 . S
H469 C457 0.931 . S
H470 C463 0.930 . S
H471 C485 0.930 . S
H472 C464 0.930 . S
H473 C491 0.930 . S
H474 C482 0.930 . S
H475 C489 0.931 . S
H476 C453 0.929 . S
H477 C483 0.930 . S
H478 C516 0.930 . S
H479 C460 0.930 . S
H480 C515 0.929 . S
N481 Tb450 2.660 . S
N481 C482 1.305 . S
N481 C486 1.360 . S
C482 H474 0.930 . S
C482 N481 1.305 . S
C482 C485 1.407 . S
C483 H477 0.930 . S
C483 C484 1.410 . S
C483 C485 1.345 . S
C484 C483 1.410 . S
C484 C486 1.417 . S
C484 C516 1.432 . S
C485 H471 0.930 . S
C485 C482 1.407 . S
C485 C483 1.345 . S
C486 N481 1.360 . S
C486 C484 1.417 . S
C486 C490 1.432 . S
H487 C492 0.930 . S
N488 Tb450 2.600 . S
N488 C490 1.359 . S
N488 C491 1.327 . S
C489 H475 0.931 . S
C489 C491 1.392 . S
C489 C492 1.370 . S
C490 C486 1.432 . S
C490 N488 1.359 . S
C490 C493 1.414 . S
C491 H473 0.930 . S
C491 N488 1.327 . S
C491 C489 1.392 . S
C492 H487 0.930 . S
C492 C489 1.370 . S
C492 C493 1.385 . S
C493 C490 1.414 . S
C493 C492 1.385 . S
C493 C515 1.444 . S
O494 Tb450 2.546 . S
O494 C514 1.251 . S
O495 Tb450 2.610 . S
O495 Tb461 2.362 . S
O495 C506 1.283 . S
O496 Tb461 2.421 . S
O496 C513 1.262 . S
O497 Tb450 2.320 . S
O497 C513 1.260 . S
O498 Tb450 2.552 . S
O498 C506 1.243 . S
O499 Tb450 2.413 . S
O499 C514 1.256 . S
O500 Tb461 2.546 . S
O500 C525 1.251 . S
O501 Tb450 2.362 . S
O501 Tb461 2.610 . S
O501 C517 1.283 . S
O502 Tb450 2.421 . S
O502 C524 1.262 . S
O503 Tb461 2.320 . S
O503 C524 1.260 . S
O504 Tb461 2.552 . S
O504 C517 1.243 . S
O505 Tb461 2.413 . S
O505 C525 1.256 . S
C506 O495 1.283 . S
C506 O498 1.243 . S
C507 C509 1.382 . S
C507 C511 1.393 . S
C507 C514 1.500 . S
C508 C509 1.400 . S
C508 C510 1.384 . S
C509 C507 1.382 . S
C509 C508 1.400 . S
C509 H526 0.930 . S
C510 C508 1.384 . S
C510 C512 1.392 . S
C510 H527 0.931 . S
C511 C507 1.393 . S
C511 C512 1.401 . S
C511 H528 0.930 . S
C512 C510 1.392 . S
C512 C511 1.401 . S
C512 H529 0.930 . S
C513 O496 1.262 . S
C513 O497 1.260 . S
C514 Tb450 2.833 . S
C514 O494 1.251 . S
C514 O499 1.256 . S
C514 C507 1.500 . S
C515 H480 0.929 . S
C515 C493 1.444 . S
C515 C516 1.317 . S
C516 H478 0.930 . S
C516 C484 1.432 . S
C516 C515 1.317 . S
C517 O501 1.283 . S
C517 O504 1.243 . S
C518 C519 1.382 . S
C518 C522 1.393 . S
C518 C525 1.500 . S
C519 C518 1.382 . S
C519 C520 1.400 . S
C519 H530 0.930 . S
C520 C519 1.400 . S
C520 C521 1.384 . S
C521 C520 1.384 . S
C521 C523 1.392 . S
C521 H531 0.931 . S
C522 C518 1.393 . S
C522 C523 1.401 . S
C522 H532 0.930 . S
C523 C521 1.392 . S
C523 C522 1.401 . S
C523 H533 0.930 . S
C524 O502 1.262 . S
C524 O503 1.260 . S
C525 Tb461 2.833 . S
C525 O500 1.251 . S
C525 O505 1.256 . S
C525 C518 1.500 . S
H526 C509 0.930 . S
H527 C510 0.931 . S
H528 C511 0.930 . S
H529 C512 0.930 . S
H530 C519 0.930 . S
H531 C521 0.931 . S
H532 C522 0.930 . S
H533 C523 0.930 . S
Tb534 N565 2.660 . S
Tb534 N572 2.600 . S
Tb534 O578 2.546 . S
Tb534 O579 2.610 . S
Tb534 O581 2.320 . S
Tb534 O582 2.552 . S
Tb534 O583 2.413 . S
Tb534 O585 2.362 . S
Tb534 O586 2.421 . S
Tb534 C598 2.833 . S
C535 C538 1.432 . S
C535 C539 1.414 . S
C535 N542 1.359 . S
C536 C538 1.417 . S
C536 C540 1.432 . S
C536 C548 1.410 . S
C537 C539 1.444 . S
C537 C540 1.317 . S
C537 H560 0.929 . S
C538 C535 1.432 . S
C538 C536 1.417 . S
C538 N546 1.360 . S
C539 C535 1.414 . S
C539 C537 1.444 . S
C539 C544 1.385 . S
C540 C536 1.432 . S
C540 C537 1.317 . S
C540 H552 0.930 . S
C541 C543 1.392 . S
C541 C544 1.370 . S
C541 H553 0.931 . S
N542 C535 1.359 . S
N542 C543 1.327 . S
N542 Tb545 2.600 . S
C543 C541 1.392 . S
C543 N542 1.327 . S
C543 H550 0.930 . S
C544 C539 1.385 . S
C544 C541 1.370 . S
C544 H563 0.930 . S
Tb545 N542 2.600 . S
Tb545 N546 2.660 . S
Tb545 O579 2.362 . S
Tb545 O580 2.421 . S
Tb545 O584 2.546 . S
Tb545 O585 2.610 . S
Tb545 O587 2.320 . S
Tb545 O588 2.552 . S
Tb545 O589 2.413 . S
Tb545 C609 2.833 . S
N546 C538 1.360 . S
N546 Tb545 2.660 . S
N546 C547 1.305 . S
C547 N546 1.305 . S
C547 C549 1.407 . S
C547 H554 0.930 . S
C548 C536 1.410 . S
C548 C549 1.345 . S
C548 H556 0.930 . S
C549 C547 1.407 . S
C549 C548 1.345 . S
C549 H551 0.930 . S
H550 C543 0.930 . S
H551 C549 0.930 . S
H552 C540 0.930 . S
H553 C541 0.931 . S
H554 C547 0.930 . S
H555 C569 0.930 . S
H556 C548 0.930 . S
H557 C575 0.930 . S
H558 C566 0.930 . S
H559 C573 0.931 . S
H560 C537 0.929 . S
H561 C567 0.930 . S
H562 C600 0.930 . S
H563 C544 0.930 . S
H564 C599 0.929 . S
N565 Tb534 2.660 . S
N565 C566 1.305 . S
N565 C570 1.360 . S
C566 H558 0.930 . S
C566 N565 1.305 . S
C566 C569 1.407 . S
C567 H561 0.930 . S
C567 C568 1.410 . S
C567 C569 1.345 . S
C568 C567 1.410 . S
C568 C570 1.417 . S
C568 C600 1.432 . S
C569 H555 0.930 . S
C569 C566 1.407 . S
C569 C567 1.345 . S
C570 N565 1.360 . S
C570 C568 1.417 . S
C570 C574 1.432 . S
H571 C576 0.930 . S
N572 Tb534 2.600 . S
N572 C574 1.359 . S
N572 C575 1.327 . S
C573 H559 0.931 . S
C573 C575 1.392 . S
C573 C576 1.370 . S
C574 C570 1.432 . S
C574 N572 1.359 . S
C574 C577 1.414 . S
C575 H557 0.930 . S
C575 N572 1.327 . S
C575 C573 1.392 . S
C576 H571 0.930 . S
C576 C573 1.370 . S
C576 C577 1.385 . S
C577 C574 1.414 . S
C577 C576 1.385 . S
C577 C599 1.444 . S
O578 Tb534 2.546 . S
O578 C598 1.251 . S
O579 Tb534 2.610 . S
O579 Tb545 2.362 . S
O579 C590 1.283 . S
O580 Tb545 2.421 . S
O580 C597 1.262 . S
O581 Tb534 2.320 . S
O581 C597 1.260 . S
O582 Tb534 2.552 . S
O582 C590 1.243 . S
O583 Tb534 2.413 . S
O583 C598 1.256 . S
O584 Tb545 2.546 . S
O584 C609 1.251 . S
O585 Tb534 2.362 . S
O585 Tb545 2.610 . S
O585 C601 1.283 . S
O586 Tb534 2.421 . S
O586 C608 1.262 . S
O587 Tb545 2.320 . S
O587 C608 1.260 . S
O588 Tb545 2.552 . S
O588 C601 1.243 . S
O589 Tb545 2.413 . S
O589 C609 1.256 . S
C590 O579 1.283 . S
C590 O582 1.243 . S
C591 C593 1.382 . S
C591 C595 1.393 . S
C591 C598 1.500 . S
C592 C593 1.400 . S
C592 C594 1.384 . S
C593 C591 1.382 . S
C593 C592 1.400 . S
C593 H610 0.930 . S
C594 C592 1.384 . S
C594 C596 1.392 . S
C594 H611 0.931 . S
C595 C591 1.393 . S
C595 C596 1.401 . S
C595 H612 0.930 . S
C596 C594 1.392 . S
C596 C595 1.401 . S
C596 H613 0.930 . S
C597 O580 1.262 . S
C597 O581 1.260 . S
C598 Tb534 2.833 . S
C598 O578 1.251 . S
C598 O583 1.256 . S
C598 C591 1.500 . S
C599 H564 0.929 . S
C599 C577 1.444 . S
C599 C600 1.317 . S
C600 H562 0.930 . S
C600 C568 1.432 . S
C600 C599 1.317 . S
C601 O585 1.283 . S
C601 O588 1.243 . S
C602 C603 1.382 . S
C602 C606 1.393 . S
C602 C609 1.500 . S
C603 C602 1.382 . S
C603 C604 1.400 . S
C603 H614 0.930 . S
C604 C603 1.400 . S
C604 C605 1.384 . S
C605 C604 1.384 . S
C605 C607 1.392 . S
C605 H615 0.931 . S
C606 C602 1.393 . S
C606 C607 1.401 . S
C606 H616 0.930 . S
C607 C605 1.392 . S
C607 C606 1.401 . S
C607 H617 0.930 . S
C608 O586 1.262 . S
C608 O587 1.260 . S
C609 Tb545 2.833 . S
C609 O584 1.251 . S
C609 O589 1.256 . S
C609 C602 1.500 . S
H610 C593 0.930 . S
H611 C594 0.931 . S
H612 C595 0.930 . S
H613 C596 0.930 . S
H614 C603 0.930 . S
H615 C605 0.931 . S
H616 C606 0.930 . S
H617 C607 0.930 . S
Tb618 N649 2.660 . S
Tb618 N656 2.600 . S
Tb618 O662 2.546 . S
Tb618 O663 2.610 . S
Tb618 O665 2.320 . S
Tb618 O666 2.552 . S
Tb618 O667 2.413 . S
Tb618 O669 2.362 . S
Tb618 O670 2.421 . S
Tb618 C682 2.833 . S
C619 C622 1.432 . S
C619 C623 1.414 . S
C619 N626 1.359 . S
C620 C622 1.417 . S
C620 C624 1.432 . S
C620 C632 1.410 . S
C621 C623 1.444 . S
C621 C624 1.317 . S
C621 H644 0.929 . S
C622 C619 1.432 . S
C622 C620 1.417 . S
C622 N630 1.360 . S
C623 C619 1.414 . S
C623 C621 1.444 . S
C623 C628 1.385 . S
C624 C620 1.432 . S
C624 C621 1.317 . S
C624 H636 0.930 . S
C625 C627 1.392 . S
C625 C628 1.370 . S
C625 H637 0.931 . S
N626 C619 1.359 . S
N626 C627 1.327 . S
N626 Tb629 2.600 . S
C627 C625 1.392 . S
C627 N626 1.327 . S
C627 H634 0.930 . S
C628 C623 1.385 . S
C628 C625 1.370 . S
C628 H647 0.930 . S
Tb629 N626 2.600 . S
Tb629 N630 2.660 . S
Tb629 O663 2.362 . S
Tb629 O664 2.421 . S
Tb629 O668 2.546 . S
Tb629 O669 2.610 . S
Tb629 O671 2.320 . S
Tb629 O672 2.552 . S
Tb629 O673 2.413 . S
Tb629 C693 2.833 . S
N630 C622 1.360 . S
N630 Tb629 2.660 . S
N630 C631 1.305 . S
C631 N630 1.305 . S
C631 C633 1.407 . S
C631 H638 0.930 . S
C632 C620 1.410 . S
C632 C633 1.345 . S
C632 H640 0.930 . S
C633 C631 1.407 . S
C633 C632 1.345 . S
C633 H635 0.930 . S
H634 C627 0.930 . S
H635 C633 0.930 . S
H636 C624 0.930 . S
H637 C625 0.931 . S
H638 C631 0.930 . S
H639 C653 0.930 . S
H640 C632 0.930 . S
H641 C659 0.930 . S
H642 C650 0.930 . S
H643 C657 0.931 . S
H644 C621 0.929 . S
H645 C651 0.930 . S
H646 C684 0.930 . S
H647 C628 0.930 . S
H648 C683 0.929 . S
N649 Tb618 2.660 . S
N649 C650 1.305 . S
N649 C654 1.360 . S
C650 H642 0.930 . S
C650 N649 1.305 . S
C650 C653 1.407 . S
C651 H645 0.930 . S
C651 C652 1.410 . S
C651 C653 1.345 . S
C652 C651 1.410 . S
C652 C654 1.417 . S
C652 C684 1.432 . S
C653 H639 0.930 . S
C653 C650 1.407 . S
C653 C651 1.345 . S
C654 N649 1.360 . S
C654 C652 1.417 . S
C654 C658 1.432 . S
H655 C660 0.930 . S
N656 Tb618 2.600 . S
N656 C658 1.359 . S
N656 C659 1.327 . S
C657 H643 0.931 . S
C657 C659 1.392 . S
C657 C660 1.370 . S
C658 C654 1.432 . S
C658 N656 1.359 . S
C658 C661 1.414 . S
C659 H641 0.930 . S
C659 N656 1.327 . S
C659 C657 1.392 . S
C660 H655 0.930 . S
C660 C657 1.370 . S
C660 C661 1.385 . S
C661 C658 1.414 . S
C661 C660 1.385 . S
C661 C683 1.444 . S
O662 Tb618 2.546 . S
O662 C682 1.251 . S
O663 Tb618 2.610 . S
O663 Tb629 2.362 . S
O663 C674 1.283 . S
O664 Tb629 2.421 . S
O664 C681 1.262 . S
O665 Tb618 2.320 . S
O665 C681 1.260 . S
O666 Tb618 2.552 . S
O666 C674 1.243 . S
O667 Tb618 2.413 . S
O667 C682 1.256 . S
O668 Tb629 2.546 . S
O668 C693 1.251 . S
O669 Tb618 2.362 . S
O669 Tb629 2.610 . S
O669 C685 1.283 . S
O670 Tb618 2.421 . S
O670 C692 1.262 . S
O671 Tb629 2.320 . S
O671 C692 1.260 . S
O672 Tb629 2.552 . S
O672 C685 1.243 . S
O673 Tb629 2.413 . S
O673 C693 1.256 . S
C674 O663 1.283 . S
C674 O666 1.243 . S
C675 C677 1.382 . S
C675 C679 1.393 . S
C675 C682 1.500 . S
C676 C677 1.400 . S
C676 C678 1.384 . S
C677 C675 1.382 . S
C677 C676 1.400 . S
C677 H694 0.930 . S
C678 C676 1.384 . S
C678 C680 1.392 . S
C678 H695 0.931 . S
C679 C675 1.393 . S
C679 C680 1.401 . S
C679 H696 0.930 . S
C680 C678 1.392 . S
C680 C679 1.401 . S
C680 H697 0.930 . S
C681 O664 1.262 . S
C681 O665 1.260 . S
C682 Tb618 2.833 . S
C682 O662 1.251 . S
C682 O667 1.256 . S
C682 C675 1.500 . S
C683 H648 0.929 . S
C683 C661 1.444 . S
C683 C684 1.317 . S
C684 H646 0.930 . S
C684 C652 1.432 . S
C684 C683 1.317 . S
C685 O669 1.283 . S
C685 O672 1.243 . S
C686 C687 1.382 . S
C686 C690 1.393 . S
C686 C693 1.500 . S
C687 C686 1.382 . S
C687 C688 1.400 . S
C687 H698 0.930 . S
C688 C687 1.400 . S
C688 C689 1.384 . S
C689 C688 1.384 . S
C689 C691 1.392 . S
C689 H699 0.931 . S
C690 C686 1.393 . S
C690 C691 1.401 . S
C690 H700 0.930 . S
C691 C689 1.392 . S
C691 C690 1.401 . S
C691 H701 0.930 . S
C692 O670 1.262 . S
C692 O671 1.260 . S
C693 Tb629 2.833 . S
C693 O668 1.251 . S
C693 O673 1.256 . S
C693 C686 1.500 . S
H694 C677 0.930 . S
H695 C678 0.931 . S
H696 C679 0.930 . S
H697 C680 0.930 . S
H698 C687 0.930 . S
H699 C689 0.931 . S
H700 C690 0.930 . S
H701 C691 0.930 . S
Tb702 N733 2.660 . S
Tb702 N740 2.600 . S
Tb702 O746 2.546 . S
Tb702 O747 2.610 . S
Tb702 O749 2.320 . S
Tb702 O750 2.552 . S
Tb702 O751 2.413 . S
Tb702 O753 2.362 . S
Tb702 O754 2.421 . S
Tb702 C766 2.833 . S
C703 C706 1.432 . S
C703 C707 1.414 . S
C703 N710 1.359 . S
C704 C706 1.417 . S
C704 C708 1.432 . S
C704 C716 1.410 . S
C705 C707 1.444 . S
C705 C708 1.317 . S
C705 H728 0.929 . S
C706 C703 1.432 . S
C706 C704 1.417 . S
C706 N714 1.360 . S
C707 C703 1.414 . S
C707 C705 1.444 . S
C707 C712 1.385 . S
C708 C704 1.432 . S
C708 C705 1.317 . S
C708 H720 0.930 . S
C709 C711 1.392 . S
C709 C712 1.370 . S
C709 H721 0.931 . S
N710 C703 1.359 . S
N710 C711 1.327 . S
N710 Tb713 2.600 . S
C711 C709 1.392 . S
C711 N710 1.327 . S
C711 H718 0.930 . S
C712 C707 1.385 . S
C712 C709 1.370 . S
C712 H731 0.930 . S
Tb713 N710 2.600 . S
Tb713 N714 2.660 . S
Tb713 O747 2.362 . S
Tb713 O748 2.421 . S
Tb713 O752 2.546 . S
Tb713 O753 2.610 . S
Tb713 O755 2.320 . S
Tb713 O756 2.552 . S
Tb713 O757 2.413 . S
Tb713 C777 2.833 . S
N714 C706 1.360 . S
N714 Tb713 2.660 . S
N714 C715 1.305 . S
C715 N714 1.305 . S
C715 C717 1.407 . S
C715 H722 0.930 . S
C716 C704 1.410 . S
C716 C717 1.345 . S
C716 H724 0.930 . S
C717 C715 1.407 . S
C717 C716 1.345 . S
C717 H719 0.930 . S
H718 C711 0.930 . S
H719 C717 0.930 . S
H720 C708 0.930 . S
H721 C709 0.931 . S
H722 C715 0.930 . S
H723 C737 0.930 . S
H724 C716 0.930 . S
H725 C743 0.930 . S
H726 C734 0.930 . S
H727 C741 0.931 . S
H728 C705 0.929 . S
H729 C735 0.930 . S
H730 C768 0.930 . S
H731 C712 0.930 . S
H732 C767 0.929 . S
N733 Tb702 2.660 . S
N733 C734 1.305 . S
N733 C738 1.360 . S
C734 H726 0.930 . S
C734 N733 1.305 . S
C734 C737 1.407 . S
C735 H729 0.930 . S
C735 C736 1.410 . S
C735 C737 1.345 . S
C736 C735 1.410 . S
C736 C738 1.417 . S
C736 C768 1.432 . S
C737 H723 0.930 . S
C737 C734 1.407 . S
C737 C735 1.345 . S
C738 N733 1.360 . S
C738 C736 1.417 . S
C738 C742 1.432 . S
H739 C744 0.930 . S
N740 Tb702 2.600 . S
N740 C742 1.359 . S
N740 C743 1.327 . S
C741 H727 0.931 . S
C741 C743 1.392 . S
C741 C744 1.370 . S
C742 C738 1.432 . S
C742 N740 1.359 . S
C742 C745 1.414 . S
C743 H725 0.930 . S
C743 N740 1.327 . S
C743 C741 1.392 . S
C744 H739 0.930 . S
C744 C741 1.370 . S
C744 C745 1.385 . S
C745 C742 1.414 . S
C745 C744 1.385 . S
C745 C767 1.444 . S
O746 Tb702 2.546 . S
O746 C766 1.251 . S
O747 Tb702 2.610 . S
O747 Tb713 2.362 . S
O747 C758 1.283 . S
O748 Tb713 2.421 . S
O748 C765 1.262 . S
O749 Tb702 2.320 . S
O749 C765 1.260 . S
O750 Tb702 2.552 . S
O750 C758 1.243 . S
O751 Tb702 2.413 . S
O751 C766 1.256 . S
O752 Tb713 2.546 . S
O752 C777 1.251 . S
O753 Tb702 2.362 . S
O753 Tb713 2.610 . S
O753 C769 1.283 . S
O754 Tb702 2.421 . S
O754 C776 1.262 . S
O755 Tb713 2.320 . S
O755 C776 1.260 . S
O756 Tb713 2.552 . S
O756 C769 1.243 . S
O757 Tb713 2.413 . S
O757 C777 1.256 . S
C758 O747 1.283 . S
C758 O750 1.243 . S
C759 C761 1.382 . S
C759 C763 1.393 . S
C759 C766 1.500 . S
C760 C761 1.400 . S
C760 C762 1.384 . S
C761 C759 1.382 . S
C761 C760 1.400 . S
C761 H778 0.930 . S
C762 C760 1.384 . S
C762 C764 1.392 . S
C762 H779 0.931 . S
C763 C759 1.393 . S
C763 C764 1.401 . S
C763 H780 0.930 . S
C764 C762 1.392 . S
C764 C763 1.401 . S
C764 H781 0.930 . S
C765 O748 1.262 . S
C765 O749 1.260 . S
C766 Tb702 2.833 . S
C766 O746 1.251 . S
C766 O751 1.256 . S
C766 C759 1.500 . S
C767 H732 0.929 . S
C767 C745 1.444 . S
C767 C768 1.317 . S
C768 H730 0.930 . S
C768 C736 1.432 . S
C768 C767 1.317 . S
C769 O753 1.283 . S
C769 O756 1.243 . S
C770 C771 1.382 . S
C770 C774 1.393 . S
C770 C777 1.500 . S
C771 C770 1.382 . S
C771 C772 1.400 . S
C771 H782 0.930 . S
C772 C771 1.400 . S
C772 C773 1.384 . S
C773 C772 1.384 . S
C773 C775 1.392 . S
C773 H783 0.931 . S
C774 C770 1.393 . S
C774 C775 1.401 . S
C774 H784 0.930 . S
C775 C773 1.392 . S
C775 C774 1.401 . S
C775 H785 0.930 . S
C776 O754 1.262 . S
C776 O755 1.260 . S
C777 Tb713 2.833 . S
C777 O752 1.251 . S
C777 O757 1.256 . S
C777 C770 1.500 . S
H778 C761 0.930 . S
H779 C762 0.931 . S
H780 C763 0.930 . S
H781 C764 0.930 . S
H782 C771 0.930 . S
H783 C773 0.931 . S
H784 C774 0.930 . S
H785 C775 0.930 . S
Tb786 N817 2.660 . S
Tb786 N824 2.600 . S
Tb786 O830 2.546 . S
Tb786 O831 2.610 . S
Tb786 O833 2.320 . S
Tb786 O834 2.552 . S
Tb786 O835 2.413 . S
Tb786 O837 2.362 . S
Tb786 O838 2.421 . S
Tb786 C850 2.833 . S
C787 C790 1.432 . S
C787 C791 1.414 . S
C787 N794 1.359 . S
C788 C790 1.417 . S
C788 C792 1.432 . S
C788 C800 1.410 . S
C789 C791 1.444 . S
C789 C792 1.317 . S
C789 H812 0.929 . S
C790 C787 1.432 . S
C790 C788 1.417 . S
C790 N798 1.360 . S
C791 C787 1.414 . S
C791 C789 1.444 . S
C791 C796 1.385 . S
C792 C788 1.432 . S
C792 C789 1.317 . S
C792 H804 0.930 . S
C793 C795 1.392 . S
C793 C796 1.370 . S
C793 H805 0.931 . S
N794 C787 1.359 . S
N794 C795 1.327 . S
N794 Tb797 2.600 . S
C795 C793 1.392 . S
C795 N794 1.327 . S
C795 H802 0.930 . S
C796 C791 1.385 . S
C796 C793 1.370 . S
C796 H815 0.930 . S
Tb797 N794 2.600 . S
Tb797 N798 2.660 . S
Tb797 O831 2.362 . S
Tb797 O832 2.421 . S
Tb797 O836 2.546 . S
Tb797 O837 2.610 . S
Tb797 O839 2.320 . S
Tb797 O840 2.552 . S
Tb797 O841 2.413 . S
Tb797 C861 2.833 . S
N798 C790 1.360 . S
N798 Tb797 2.660 . S
N798 C799 1.305 . S
C799 N798 1.305 . S
C799 C801 1.407 . S
C799 H806 0.930 . S
C800 C788 1.410 . S
C800 C801 1.345 . S
C800 H808 0.930 . S
C801 C799 1.407 . S
C801 C800 1.345 . S
C801 H803 0.930 . S
H802 C795 0.930 . S
H803 C801 0.930 . S
H804 C792 0.930 . S
H805 C793 0.931 . S
H806 C799 0.930 . S
H807 C821 0.930 . S
H808 C800 0.930 . S
H809 C827 0.930 . S
H810 C818 0.930 . S
H811 C825 0.931 . S
H812 C789 0.929 . S
H813 C819 0.930 . S
H814 C852 0.930 . S
H815 C796 0.930 . S
H816 C851 0.929 . S
N817 Tb786 2.660 . S
N817 C818 1.305 . S
N817 C822 1.360 . S
C818 H810 0.930 . S
C818 N817 1.305 . S
C818 C821 1.407 . S
C819 H813 0.930 . S
C819 C820 1.410 . S
C819 C821 1.345 . S
C820 C819 1.410 . S
C820 C822 1.417 . S
C820 C852 1.432 . S
C821 H807 0.930 . S
C821 C818 1.407 . S
C821 C819 1.345 . S
C822 N817 1.360 . S
C822 C820 1.417 . S
C822 C826 1.432 . S
H823 C828 0.930 . S
N824 Tb786 2.600 . S
N824 C826 1.359 . S
N824 C827 1.327 . S
C825 H811 0.931 . S
C825 C827 1.392 . S
C825 C828 1.370 . S
C826 C822 1.432 . S
C826 N824 1.359 . S
C826 C829 1.414 . S
C827 H809 0.930 . S
C827 N824 1.327 . S
C827 C825 1.392 . S
C828 H823 0.930 . S
C828 C825 1.370 . S
C828 C829 1.385 . S
C829 C826 1.414 . S
C829 C828 1.385 . S
C829 C851 1.444 . S
O830 Tb786 2.546 . S
O830 C850 1.251 . S
O831 Tb786 2.610 . S
O831 Tb797 2.362 . S
O831 C842 1.283 . S
O832 Tb797 2.421 . S
O832 C849 1.262 . S
O833 Tb786 2.320 . S
O833 C849 1.260 . S
O834 Tb786 2.552 . S
O834 C842 1.243 . S
O835 Tb786 2.413 . S
O835 C850 1.256 . S
O836 Tb797 2.546 . S
O836 C861 1.251 . S
O837 Tb786 2.362 . S
O837 Tb797 2.610 . S
O837 C853 1.283 . S
O838 Tb786 2.421 . S
O838 C860 1.262 . S
O839 Tb797 2.320 . S
O839 C860 1.260 . S
O840 Tb797 2.552 . S
O840 C853 1.243 . S
O841 Tb797 2.413 . S
O841 C861 1.256 . S
C842 O831 1.283 . S
C842 O834 1.243 . S
C843 C845 1.382 . S
C843 C847 1.393 . S
C843 C850 1.500 . S
C844 C845 1.400 . S
C844 C846 1.384 . S
C845 C843 1.382 . S
C845 C844 1.400 . S
C845 H862 0.930 . S
C846 C844 1.384 . S
C846 C848 1.392 . S
C846 H863 0.931 . S
C847 C843 1.393 . S
C847 C848 1.401 . S
C847 H864 0.930 . S
C848 C846 1.392 . S
C848 C847 1.401 . S
C848 H865 0.930 . S
C849 O832 1.262 . S
C849 O833 1.260 . S
C850 Tb786 2.833 . S
C850 O830 1.251 . S
C850 O835 1.256 . S
C850 C843 1.500 . S
C851 H816 0.929 . S
C851 C829 1.444 . S
C851 C852 1.317 . S
C852 H814 0.930 . S
C852 C820 1.432 . S
C852 C851 1.317 . S
C853 O837 1.283 . S
C853 O840 1.243 . S
C854 C855 1.382 . S
C854 C858 1.393 . S
C854 C861 1.500 . S
C855 C854 1.382 . S
C855 C856 1.400 . S
C855 H866 0.930 . S
C856 C855 1.400 . S
C856 C857 1.384 . S
C857 C856 1.384 . S
C857 C859 1.392 . S
C857 H867 0.931 . S
C858 C854 1.393 . S
C858 C859 1.401 . S
C858 H868 0.930 . S
C859 C857 1.392 . S
C859 C858 1.401 . S
C859 H869 0.930 . S
C860 O838 1.262 . S
C860 O839 1.260 . S
C861 Tb797 2.833 . S
C861 O836 1.251 . S
C861 O841 1.256 . S
C861 C854 1.500 . S
H862 C845 0.930 . S
H863 C846 0.931 . S
H864 C847 0.930 . S
H865 C848 0.930 . S
H866 C855 0.930 . S
H867 C857 0.931 . S
H868 C858 0.930 . S
H869 C859 0.930 . S
Tb870 N901 2.660 . S
Tb870 N908 2.600 . S
Tb870 O914 2.546 . S
Tb870 O915 2.610 . S
Tb870 O917 2.320 . S
Tb870 O918 2.552 . S
Tb870 O919 2.413 . S
Tb870 O921 2.362 . S
Tb870 O922 2.421 . S
Tb870 C934 2.833 . S
C871 C874 1.432 . S
C871 C875 1.414 . S
C871 N878 1.359 . S
C872 C874 1.417 . S
C872 C876 1.432 . S
C872 C884 1.410 . S
C873 C875 1.444 . S
C873 C876 1.317 . S
C873 H896 0.929 . S
C874 C871 1.432 . S
C874 C872 1.417 . S
C874 N882 1.360 . S
C875 C871 1.414 . S
C875 C873 1.444 . S
C875 C880 1.385 . S
C876 C872 1.432 . S
C876 C873 1.317 . S
C876 H888 0.930 . S
C877 C879 1.392 . S
C877 C880 1.370 . S
C877 H889 0.931 . S
N878 C871 1.359 . S
N878 C879 1.327 . S
N878 Tb881 2.600 . S
C879 C877 1.392 . S
C879 N878 1.327 . S
C879 H886 0.930 . S
C880 C875 1.385 . S
C880 C877 1.370 . S
C880 H899 0.930 . S
Tb881 N878 2.600 . S
Tb881 N882 2.660 . S
Tb881 O915 2.362 . S
Tb881 O916 2.421 . S
Tb881 O920 2.546 . S
Tb881 O921 2.610 . S
Tb881 O923 2.320 . S
Tb881 O924 2.552 . S
Tb881 O925 2.413 . S
Tb881 C945 2.833 . S
N882 C874 1.360 . S
N882 Tb881 2.660 . S
N882 C883 1.305 . S
C883 N882 1.305 . S
C883 C885 1.407 . S
C883 H890 0.930 . S
C884 C872 1.410 . S
C884 C885 1.345 . S
C884 H892 0.930 . S
C885 C883 1.407 . S
C885 C884 1.345 . S
C885 H887 0.930 . S
H886 C879 0.930 . S
H887 C885 0.930 . S
H888 C876 0.930 . S
H889 C877 0.931 . S
H890 C883 0.930 . S
H891 C905 0.930 . S
H892 C884 0.930 . S
H893 C911 0.930 . S
H894 C902 0.930 . S
H895 C909 0.931 . S
H896 C873 0.929 . S
H897 C903 0.930 . S
H898 C936 0.930 . S
H899 C880 0.930 . S
H900 C935 0.929 . S
N901 Tb870 2.660 . S
N901 C902 1.305 . S
N901 C906 1.360 . S
C902 H894 0.930 . S
C902 N901 1.305 . S
C902 C905 1.407 . S
C903 H897 0.930 . S
C903 C904 1.410 . S
C903 C905 1.345 . S
C904 C903 1.410 . S
C904 C906 1.417 . S
C904 C936 1.432 . S
C905 H891 0.930 . S
C905 C902 1.407 . S
C905 C903 1.345 . S
C906 N901 1.360 . S
C906 C904 1.417 . S
C906 C910 1.432 . S
H907 C912 0.930 . S
N908 Tb870 2.600 . S
N908 C910 1.359 . S
N908 C911 1.327 . S
C909 H895 0.931 . S
C909 C911 1.392 . S
C909 C912 1.370 . S
C910 C906 1.432 . S
C910 N908 1.359 . S
C910 C913 1.414 . S
C911 H893 0.930 . S
C911 N908 1.327 . S
C911 C909 1.392 . S
C912 H907 0.930 . S
C912 C909 1.370 . S
C912 C913 1.385 . S
C913 C910 1.414 . S
C913 C912 1.385 . S
C913 C935 1.444 . S
O914 Tb870 2.546 . S
O914 C934 1.251 . S
O915 Tb870 2.610 . S
O915 Tb881 2.362 . S
O915 C926 1.283 . S
O916 Tb881 2.421 . S
O916 C933 1.262 . S
O917 Tb870 2.320 . S
O917 C933 1.260 . S
O918 Tb870 2.552 . S
O918 C926 1.243 . S
O919 Tb870 2.413 . S
O919 C934 1.256 . S
O920 Tb881 2.546 . S
O920 C945 1.251 . S
O921 Tb870 2.362 . S
O921 Tb881 2.610 . S
O921 C937 1.283 . S
O922 Tb870 2.421 . S
O922 C944 1.262 . S
O923 Tb881 2.320 . S
O923 C944 1.260 . S
O924 Tb881 2.552 . S
O924 C937 1.243 . S
O925 Tb881 2.413 . S
O925 C945 1.256 . S
C926 O915 1.283 . S
C926 O918 1.243 . S
C927 C929 1.382 . S
C927 C931 1.393 . S
C927 C934 1.500 . S
C928 C929 1.400 . S
C928 C930 1.384 . S
C929 C927 1.382 . S
C929 C928 1.400 . S
C929 H946 0.930 . S
C930 C928 1.384 . S
C930 C932 1.392 . S
C930 H947 0.931 . S
C931 C927 1.393 . S
C931 C932 1.401 . S
C931 H948 0.930 . S
C932 C930 1.392 . S
C932 C931 1.401 . S
C932 H949 0.930 . S
C933 O916 1.262 . S
C933 O917 1.260 . S
C934 Tb870 2.833 . S
C934 O914 1.251 . S
C934 O919 1.256 . S
C934 C927 1.500 . S
C935 H900 0.929 . S
C935 C913 1.444 . S
C935 C936 1.317 . S
C936 H898 0.930 . S
C936 C904 1.432 . S
C936 C935 1.317 . S
C937 O921 1.283 . S
C937 O924 1.243 . S
C938 C939 1.382 . S
C938 C942 1.393 . S
C938 C945 1.500 . S
C939 C938 1.382 . S
C939 C940 1.400 . S
C939 H950 0.930 . S
C940 C939 1.400 . S
C940 C941 1.384 . S
C941 C940 1.384 . S
C941 C943 1.392 . S
C941 H951 0.931 . S
C942 C938 1.393 . S
C942 C943 1.401 . S
C942 H952 0.930 . S
C943 C941 1.392 . S
C943 C942 1.401 . S
C943 H953 0.930 . S
C944 O922 1.262 . S
C944 O923 1.260 . S
C945 Tb881 2.833 . S
C945 O920 1.251 . S
C945 O925 1.256 . S
C945 C938 1.500 . S
H946 C929 0.930 . S
H947 C930 0.931 . S
H948 C931 0.930 . S
H949 C932 0.930 . S
H950 C939 0.930 . S
H951 C941 0.931 . S
H952 C942 0.930 . S
H953 C943 0.930 . S
C954 C955 1.349 . S
C954 C956 1.327 . S
C954 H979 0.950 . S
C955 C954 1.349 . S
C955 C971 1.349 . S
C956 C954 1.327 . S
C956 C975 1.429 . S
C956 H980 0.950 . S
C957 C974 1.574 . S
C957 C976 1.368 . S
C957 H981 0.949 . S
H958 C962 0.949 . S
C959 C960 1.349 . S
C959 C961 1.327 . S
C959 H982 0.896 1_554 S
C960 C959 1.349 . S
C960 C972 1.349 . S
C961 C959 1.327 . S
C961 C977 1.429 . S
C961 H983 0.950 . S
C962 H958 0.949 . S
C962 C970 1.574 . S
C962 C978 1.368 . S
H963 C971 0.950 . S
H964 C969 0.950 . S
H965 C970 0.949 . S
H966 C972 0.950 . S
H967 C973 0.950 . S
H968 C974 0.949 . S
C969 H964 0.950 . S
C969 C971 1.327 . S
C969 C975 1.429 . S
C970 C962 1.574 . S
C970 H965 0.949 . S
C970 C976 1.368 . S
C971 C955 1.349 . S
C971 H963 0.950 . S
C971 C969 1.327 . S
C972 C960 1.349 . S
C972 H966 0.950 . S
C972 C973 1.327 . S
C973 H967 0.950 . S
C973 C972 1.327 . S
C973 C977 1.429 . S
C974 C957 1.574 . S
C974 H968 0.949 . S
C974 C978 1.368 . S
C975 C956 1.429 . S
C975 C969 1.429 . S
C975 C976 1.523 . S
C976 C957 1.368 . S
C976 C970 1.368 . S
C976 C975 1.523 . S
C977 C961 1.429 . S
C977 C973 1.429 . S
C977 C978 1.523 . S
C978 C962 1.368 . S
C978 C974 1.368 . S
C978 C977 1.523 . S
H979 C954 0.950 . S
H980 C956 0.950 . S
H981 C957 0.949 . S
H982 C959 0.896 1_556 S
H983 C961 0.950 . S
C984 C985 1.349 . S
C984 C986 1.327 . S
C984 H1009 0.950 . S
C985 C984 1.349 . S
C985 C1001 1.349 . S
C986 C984 1.327 . S
C986 C1005 1.429 . S
C986 H1010 0.950 . S
C987 C1004 1.574 . S
C987 C1006 1.368 . S
C987 H1011 0.949 . S
H988 C992 0.949 . S
C989 C990 1.349 . S
C989 C991 1.327 . S
C989 H1012 0.950 . S
C990 C989 1.349 . S
C990 C1002 1.349 . S
C991 C989 1.327 . S
C991 C1007 1.429 . S
C991 H1013 0.950 . S
C992 H988 0.949 . S
C992 C1000 1.574 . S
C992 C1008 1.368 . S
H993 C1001 0.950 . S
H994 C999 0.950 . S
H995 C1000 0.949 . S
H996 C1002 0.950 . S
H997 C1003 0.950 . S
H998 C1004 0.949 . S
C999 H994 0.950 . S
C999 C1001 1.327 . S
C999 C1005 1.429 . S
C1000 C992 1.574 . S
C1000 H995 0.949 . S
C1000 C1006 1.368 . S
C1001 C985 1.349 . S
C1001 H993 0.950 . S
C1001 C999 1.327 . S
C1002 C990 1.349 . S
C1002 H996 0.950 . S
C1002 C1003 1.327 . S
C1003 H997 0.950 . S
C1003 C1002 1.327 . S
C1003 C1007 1.429 . S
C1004 C987 1.574 . S
C1004 H998 0.949 . S
C1004 C1008 1.368 . S
C1005 C986 1.429 . S
C1005 C999 1.429 . S
C1005 C1006 1.523 . S
C1006 C987 1.368 . S
C1006 C1000 1.368 . S
C1006 C1005 1.523 . S
C1007 C991 1.429 . S
C1007 C1003 1.429 . S
C1007 C1008 1.523 . S
C1008 C992 1.368 . S
C1008 C1004 1.368 . S
C1008 C1007 1.523 . S
H1009 C984 0.950 . S
H1010 C986 0.950 . S
H1011 C987 0.949 . S
H1012 C989 0.950 . S
H1013 C991 0.950 . S
C1014 C1015 1.349 . S
C1014 C1016 1.327 . S
C1014 H1039 0.950 . S
C1015 C1014 1.349 . S
C1015 C1031 1.349 . S
C1016 C1014 1.327 . S
C1016 C1035 1.429 . S
C1016 H1040 0.950 . S
C1017 C1034 1.574 . S
C1017 C1036 1.368 . S
C1017 H1041 0.949 . S
H1018 C1022 0.949 . S
C1019 C1020 1.349 . S
C1019 C1021 1.327 . S
C1019 H1042 0.950 1_554 S
C1020 C1019 1.349 . S
C1020 C1032 1.349 . S
C1021 C1019 1.327 . S
C1021 C1037 1.429 . S
C1021 H1043 0.950 . S
C1022 H1018 0.949 . S
C1022 C1030 1.574 . S
C1022 C1038 1.368 . S
H1023 C1031 0.950 . S
H1024 C1029 0.950 . S
H1025 C1030 0.949 . S
H1026 C1032 0.950 . S
H1027 C1033 0.950 . S
H1028 C1034 0.949 . S
C1029 H1024 0.950 . S
C1029 C1031 1.327 . S
C1029 C1035 1.429 . S
C1030 C1022 1.574 . S
C1030 H1025 0.949 . S
C1030 C1036 1.368 . S
C1031 C1015 1.349 . S
C1031 H1023 0.950 . S
C1031 C1029 1.327 . S
C1032 C1020 1.349 . S
C1032 H1026 0.950 . S
C1032 C1033 1.327 . S
C1033 H1027 0.950 . S
C1033 C1032 1.327 . S
C1033 C1037 1.429 . S
C1034 C1017 1.574 . S
C1034 H1028 0.949 . S
C1034 C1038 1.368 . S
C1035 C1016 1.429 . S
C1035 C1029 1.429 . S
C1035 C1036 1.523 . S
C1036 C1017 1.368 . S
C1036 C1030 1.368 . S
C1036 C1035 1.523 . S
C1037 C1021 1.429 . S
C1037 C1033 1.429 . S
C1037 C1038 1.523 . S
C1038 C1022 1.368 . S
C1038 C1034 1.368 . S
C1038 C1037 1.523 . S
H1039 C1014 0.950 . S
H1040 C1016 0.950 . S
H1041 C1017 0.949 . S
H1042 C1019 0.950 1_556 S
H1043 C1021 0.950 . S
C1044 C1045 1.349 . S
C1044 C1046 1.327 . S
C1044 H1069 0.950 . S
C1045 C1044 1.349 . S
C1045 C1061 1.349 . S
C1046 C1044 1.327 . S
C1046 C1065 1.429 . S
C1046 H1070 0.950 . S
C1047 C1064 1.574 . S
C1047 C1066 1.368 . S
C1047 H1071 0.949 . S
H1048 C1052 0.949 . S
C1049 C1050 1.349 1_554 S
C1049 C1051 1.327 . S
C1049 H1072 0.950 . S
C1050 C1049 1.349 1_556 S
C1050 C1062 1.349 . S
C1051 C1049 1.327 . S
C1051 C1067 1.429 1_554 S
C1051 H1073 0.950 . S
C1052 H1048 0.949 . S
C1052 C1060 1.574 . S
C1052 C1068 1.368 . S
H1053 C1061 0.950 . S
H1054 C1059 0.950 . S
H1055 C1060 0.949 . S
H1056 C1062 0.950 . S
H1057 C1063 0.950 . S
H1058 C1064 0.949 1_554 S
C1059 H1054 0.950 . S
C1059 C1061 1.327 . S
C1059 C1065 1.429 . S
C1060 C1052 1.574 . S
C1060 H1055 0.949 . S
C1060 C1066 1.368 . S
C1061 C1045 1.349 . S
C1061 H1053 0.950 . S
C1061 C1059 1.327 . S
C1062 C1050 1.349 . S
C1062 H1056 0.950 . S
C1062 C1063 1.327 . S
C1063 H1057 0.950 . S
C1063 C1062 1.327 . S
C1063 C1067 1.429 . S
C1064 C1047 1.574 . S
C1064 H1058 0.949 1_556 S
C1064 C1068 1.368 . S
C1065 C1046 1.429 . S
C1065 C1059 1.429 . S
C1065 C1066 1.523 . S
C1066 C1047 1.368 . S
C1066 C1060 1.368 . S
C1066 C1065 1.523 . S
C1067 C1051 1.429 1_556 S
C1067 C1063 1.429 . S
C1067 C1068 1.523 . S
C1068 C1052 1.368 . S
C1068 C1064 1.368 . S
C1068 C1067 1.523 . S
H1069 C1044 0.950 . S
H1070 C1046 0.950 . S
H1071 C1047 0.949 . S
H1072 C1049 0.950 . S
H1073 C1051 0.950 . S
C1074 C1075 1.349 . S
C1074 C1076 1.327 . S
C1074 H1099 0.950 . S
C1075 C1074 1.349 . S
C1075 C1091 1.349 . S
C1076 C1074 1.327 . S
C1076 C1095 1.429 . S
C1076 H1100 0.950 . S
C1077 C1094 1.574 . S
C1077 C1096 1.368 . S
C1077 H1101 0.949 . S
H1078 C1082 0.949 . S
C1079 C1080 1.349 . S
C1079 C1081 1.327 . S
C1079 H1102 0.950 1_556 S
C1080 C1079 1.349 . S
C1080 C1092 1.349 . S
C1081 C1079 1.327 . S
C1081 C1097 1.429 . S
C1081 H1103 0.950 . S
C1082 H1078 0.949 . S
C1082 C1090 1.574 . S
C1082 C1098 1.368 . S
H1083 C1091 0.950 . S
H1084 C1089 0.950 . S
H1085 C1090 0.949 . S
H1086 C1092 0.950 . S
H1087 C1093 0.950 . S
H1088 C1094 0.949 . S
C1089 H1084 0.950 . S
C1089 C1091 1.327 . S
C1089 C1095 1.429 . S
C1090 C1082 1.574 . S
C1090 H1085 0.949 . S
C1090 C1096 1.368 . S
C1091 C1075 1.349 . S
C1091 H1083 0.950 . S
C1091 C1089 1.327 . S
C1092 C1080 1.349 . S
C1092 H1086 0.950 . S
C1092 C1093 1.327 . S
C1093 H1087 0.950 . S
C1093 C1092 1.327 . S
C1093 C1097 1.429 . S
C1094 C1077 1.574 . S
C1094 H1088 0.949 . S
C1094 C1098 1.368 . S
C1095 C1076 1.429 . S
C1095 C1089 1.429 . S
C1095 C1096 1.523 . S
C1096 C1077 1.368 . S
C1096 C1090 1.368 . S
C1096 C1095 1.523 . S
C1097 C1081 1.429 . S
C1097 C1093 1.429 . S
C1097 C1098 1.523 . S
C1098 C1082 1.368 . S
C1098 C1094 1.368 . S
C1098 C1097 1.523 . S
H1099 C1074 0.950 . S
H1100 C1076 0.950 . S
H1101 C1077 0.949 . S
H1102 C1079 0.950 1_554 S
H1103 C1081 0.950 . S
C1104 C1105 1.349 . S
C1104 C1106 1.327 . S
C1104 H1129 0.950 . S
C1105 C1104 1.349 . S
C1105 C1121 1.349 . S
C1106 C1104 1.327 . S
C1106 C1125 1.429 . S
C1106 H1130 0.950 . S
C1107 C1124 1.574 . S
C1107 C1126 1.368 . S
C1107 H1131 0.949 1_556 S
H1108 C1112 0.949 . S
C1109 C1110 1.349 1_554 S
C1109 C1111 1.327 . S
C1109 H1132 0.950 . S
C1110 C1109 1.349 1_556 S
C1110 C1122 1.349 . S
C1111 C1109 1.327 . S
C1111 C1127 1.429 1_554 S
C1111 H1133 0.950 . S
C1112 H1108 0.949 . S
C1112 C1120 1.574 . S
C1112 C1128 1.368 . S
H1113 C1121 0.950 . S
H1114 C1119 0.950 . S
H1115 C1120 0.949 . S
H1116 C1122 0.950 . S
H1117 C1123 0.950 . S
H1118 C1124 0.949 1_554 S
C1119 H1114 0.950 . S
C1119 C1121 1.327 . S
C1119 C1125 1.429 . S
C1120 C1112 1.574 . S
C1120 H1115 0.949 . S
C1120 C1126 1.368 . S
C1121 C1105 1.349 . S
C1121 H1113 0.950 . S
C1121 C1119 1.327 . S
C1122 C1110 1.349 . S
C1122 H1116 0.950 . S
C1122 C1123 1.327 . S
C1123 H1117 0.950 . S
C1123 C1122 1.327 . S
C1123 C1127 1.429 . S
C1124 C1107 1.574 . S
C1124 H1118 0.949 1_556 S
C1124 C1128 1.368 . S
C1125 C1106 1.429 . S
C1125 C1119 1.429 . S
C1125 C1126 1.523 . S
C1126 C1107 1.368 . S
C1126 C1120 1.368 . S
C1126 C1125 1.523 . S
C1127 C1111 1.429 1_556 S
C1127 C1123 1.429 . S
C1127 C1128 1.523 . S
C1128 C1112 1.368 . S
C1128 C1124 1.368 . S
C1128 C1127 1.523 . S
H1129 C1104 0.950 . S
H1130 C1106 0.950 . S
H1131 C1107 0.949 1_554 S
H1132 C1109 0.950 . S
H1133 C1111 0.950 . S
C1134 C1135 1.349 . S
C1134 C1136 1.327 . S
C1134 H1159 0.950 . S
C1135 C1134 1.349 . S
C1135 C1151 1.349 . S
C1136 C1134 1.327 . S
C1136 C1155 1.429 . S
C1136 H1160 0.950 . S
C1137 C1154 1.574 . S
C1137 C1156 1.368 . S
C1137 H1161 0.949 . S
H1138 C1142 0.949 . S
C1139 C1140 1.349 1_554 S
C1139 C1141 1.327 1_554 S
C1139 H1162 0.950 . S
C1140 C1139 1.349 1_556 S
C1140 C1152 1.349 . S
C1141 C1139 1.327 1_556 S
C1141 C1157 1.429 . S
C1141 H1163 0.950 1_556 S
C1142 H1138 0.949 . S
C1142 C1150 1.574 . S
C1142 C1158 1.368 . S
H1143 C1151 0.950 . S
H1144 C1149 0.950 . S
H1145 C1150 0.949 . S
H1146 C1152 0.950 . S
H1147 C1153 0.950 . S
H1148 C1154 0.949 . S
C1149 H1144 0.950 . S
C1149 C1151 1.327 . S
C1149 C1155 1.429 . S
C1150 C1142 1.574 . S
C1150 H1145 0.949 . S
C1150 C1156 1.368 . S
C1151 C1135 1.349 . S
C1151 H1143 0.950 . S
C1151 C1149 1.327 . S
C1152 C1140 1.349 . S
C1152 H1146 0.950 . S
C1152 C1153 1.327 . S
C1153 H1147 0.950 . S
C1153 C1152 1.327 . S
C1153 C1157 1.429 . S
C1154 C1137 1.574 . S
C1154 H1148 0.949 . S
C1154 C1158 1.368 . S
C1155 C1136 1.429 . S
C1155 C1149 1.429 . S
C1155 C1156 1.523 . S
C1156 C1137 1.368 . S
C1156 C1150 1.368 . S
C1156 C1155 1.523 . S
C1157 C1141 1.429 . S
C1157 C1153 1.429 . S
C1157 C1158 1.523 . S
C1158 C1142 1.368 . S
C1158 C1154 1.368 . S
C1158 C1157 1.523 . S
H1159 C1134 0.950 . S
H1160 C1136 0.950 . S
H1161 C1137 0.949 . S
H1162 C1139 0.950 . S
H1163 C1141 0.950 1_554 S
C1164 C1165 1.349 . S
C1164 C1166 1.327 . S
C1164 H1189 0.950 . S
C1165 C1164 1.349 . S
C1165 C1181 1.349 . S
C1166 C1164 1.327 . S
C1166 C1185 1.429 . S
C1166 H1190 0.950 . S
C1167 C1184 1.574 . S
C1167 C1186 1.368 . S
C1167 H1191 0.949 1_556 S
H1168 C1172 0.949 . S
C1169 C1170 1.349 1_554 S
C1169 C1171 1.327 . S
C1169 H1192 0.950 . S
C1170 C1169 1.349 1_556 S
C1170 C1182 1.349 . S
C1171 C1169 1.327 . S
C1171 C1187 1.429 1_554 S
C1171 H1193 0.950 . S
C1172 H1168 0.949 . S
C1172 C1180 1.574 . S
C1172 C1188 1.368 . S
H1173 C1181 0.950 . S
H1174 C1179 0.950 . S
H1175 C1180 0.949 . S
H1176 C1182 0.950 . S
H1177 C1183 0.950 . S
H1178 C1184 0.949 1_554 S
C1179 H1174 0.950 . S
C1179 C1181 1.327 . S
C1179 C1185 1.429 . S
C1180 C1172 1.574 . S
C1180 H1175 0.949 . S
C1180 C1186 1.368 . S
C1181 C1165 1.349 . S
C1181 H1173 0.950 . S
C1181 C1179 1.327 . S
C1182 C1170 1.349 . S
C1182 H1176 0.950 . S
C1182 C1183 1.327 . S
C1183 H1177 0.950 . S
C1183 C1182 1.327 . S
C1183 C1187 1.429 . S
C1184 C1167 1.574 . S
C1184 H1178 0.949 1_556 S
C1184 C1188 1.368 . S
C1185 C1166 1.429 . S
C1185 C1179 1.429 . S
C1185 C1186 1.523 . S
C1186 C1167 1.368 . S
C1186 C1180 1.368 . S
C1186 C1185 1.523 . S
C1187 C1171 1.429 1_556 S
C1187 C1183 1.429 . S
C1187 C1188 1.523 . S
C1188 C1172 1.368 . S
C1188 C1184 1.368 . S
C1188 C1187 1.523 . S
H1189 C1164 0.950 . S
H1190 C1166 0.950 . S
H1191 C1167 0.949 1_554 S
H1192 C1169 0.950 . S
H1193 C1171 0.950 . S
C1194 C1195 1.349 . S
C1194 C1196 1.327 . S
C1194 H1219 0.950 . S
C1195 C1194 1.349 . S
C1195 C1211 1.349 . S
C1196 C1194 1.327 . S
C1196 C1215 1.429 . S
C1196 H1220 0.950 . S
C1197 C1214 1.574 . S
C1197 C1216 1.368 . S
C1197 H1221 0.949 . S
H1198 C1202 0.949 . S
C1199 C1200 1.334 1_554 S
C1199 C1201 1.325 1_554 S
C1199 H1222 0.968 . S
C1200 C1199 1.334 1_556 S
C1200 C1212 1.349 . S
C1201 C1199 1.325 1_556 S
C1201 C1217 1.429 . S
C1201 H1223 0.950 1_556 S
C1202 H1198 0.949 . S
C1202 C1210 1.574 . S
C1202 C1218 1.368 . S
H1203 C1211 0.950 . S
H1204 C1209 0.950 . S
H1205 C1210 0.949 . S
H1206 C1212 0.950 . S
H1207 C1213 0.950 . S
H1208 C1214 0.937 1_554 S
C1209 H1204 0.950 . S
C1209 C1211 1.327 . S
C1209 C1215 1.429 . S
C1210 C1202 1.574 . S
C1210 H1205 0.949 . S
C1210 C1216 1.368 . S
C1211 C1195 1.349 . S
C1211 H1203 0.950 . S
C1211 C1209 1.327 . S
C1212 C1200 1.349 . S
C1212 H1206 0.950 . S
C1212 C1213 1.327 . S
C1213 H1207 0.950 . S
C1213 C1212 1.327 . S
C1213 C1217 1.429 . S
C1214 C1197 1.574 . S
C1214 H1208 0.937 1_556 S
C1214 C1218 1.368 . S
C1215 C1196 1.429 . S
C1215 C1209 1.429 . S
C1215 C1216 1.523 . S
C1216 C1197 1.368 . S
C1216 C1210 1.368 . S
C1216 C1215 1.523 . S
C1217 C1201 1.429 . S
C1217 C1213 1.429 . S
C1217 C1218 1.523 . S
C1218 C1202 1.368 . S
C1218 C1214 1.368 . S
C1218 C1217 1.523 . S
H1219 C1194 0.950 . S
H1220 C1196 0.950 . S
H1221 C1197 0.949 . S
H1222 C1199 0.968 . S
H1223 C1201 0.950 1_554 S
C1224 C1225 1.349 . S
C1224 C1226 1.327 . S
C1224 H1249 0.950 . S
C1225 C1224 1.349 . S
C1225 C1241 1.349 . S
C1226 C1224 1.327 . S
C1226 C1245 1.429 . S
C1226 H1250 0.950 . S
C1227 C1244 1.574 . S
C1227 C1246 1.368 . S
C1227 H1251 0.949 . S
H1228 C1232 0.949 . S
C1229 C1230 1.349 . S
C1229 C1231 1.327 . S
C1229 H1252 0.950 . S
C1230 C1229 1.349 . S
C1230 C1242 1.349 . S
C1231 C1229 1.327 . S
C1231 C1247 1.429 . S
C1231 H1253 0.950 . S
C1232 H1228 0.949 . S
C1232 C1240 1.574 . S
C1232 C1248 1.368 . S
H1233 C1241 0.950 . S
H1234 C1239 0.950 . S
H1235 C1240 0.949 . S
H1236 C1242 0.950 . S
H1237 C1243 0.950 . S
H1238 C1244 0.949 . S
C1239 H1234 0.950 . S
C1239 C1241 1.327 . S
C1239 C1245 1.429 . S
C1240 C1232 1.574 . S
C1240 H1235 0.949 . S
C1240 C1246 1.368 . S
C1241 C1225 1.349 . S
C1241 H1233 0.950 . S
C1241 C1239 1.327 . S
C1242 C1230 1.349 . S
C1242 H1236 0.950 . S
C1242 C1243 1.327 . S
C1243 H1237 0.950 . S
C1243 C1242 1.327 . S
C1243 C1247 1.429 . S
C1244 C1227 1.574 . S
C1244 H1238 0.949 . S
C1244 C1248 1.368 . S
C1245 C1226 1.429 . S
C1245 C1239 1.429 . S
C1245 C1246 1.523 . S
C1246 C1227 1.368 . S
C1246 C1240 1.368 . S
C1246 C1245 1.523 . S
C1247 C1231 1.429 . S
C1247 C1243 1.429 . S
C1247 C1248 1.523 . S
C1248 C1232 1.368 . S
C1248 C1244 1.368 . S
C1248 C1247 1.523 . S
H1249 C1224 0.950 . S
H1250 C1226 0.950 . S
H1251 C1227 0.949 . S
H1252 C1229 0.950 . S
H1253 C1231 0.950 . S
C1254 C1255 1.349 . S
C1254 C1256 1.327 . S
C1254 H1279 0.950 . S
C1255 C1254 1.349 . S
C1255 C1271 1.349 . S
C1256 C1254 1.327 . S
C1256 C1275 1.429 . S
C1256 H1280 0.950 . S
C1257 C1274 1.574 . S
C1257 C1276 1.368 . S
C1257 H1281 0.949 . S
H1258 C1262 0.949 . S
C1259 C1260 1.349 . S
C1259 C1261 1.327 . S
C1259 H1282 0.950 . S
C1260 C1259 1.349 . S
C1260 C1272 1.349 . S
C1261 C1259 1.327 . S
C1261 C1277 1.429 . S
C1261 H1283 0.950 . S
C1262 H1258 0.949 . S
C1262 C1270 1.574 . S
C1262 C1278 1.368 . S
H1263 C1271 0.950 . S
H1264 C1269 0.950 . S
H1265 C1270 0.949 . S
H1266 C1272 0.950 . S
H1267 C1273 0.950 . S
H1268 C1274 0.949 . S
C1269 H1264 0.950 . S
C1269 C1271 1.327 . S
C1269 C1275 1.429 . S
C1270 C1262 1.574 . S
C1270 H1265 0.949 . S
C1270 C1276 1.368 . S
C1271 C1255 1.349 . S
C1271 H1263 0.950 . S
C1271 C1269 1.327 . S
C1272 C1260 1.349 . S
C1272 H1266 0.950 . S
C1272 C1273 1.327 . S
C1273 H1267 0.950 . S
C1273 C1272 1.327 . S
C1273 C1277 1.429 . S
C1274 C1257 1.574 . S
C1274 H1268 0.949 . S
C1274 C1278 1.368 . S
C1275 C1256 1.429 . S
C1275 C1269 1.429 . S
C1275 C1276 1.523 . S
C1276 C1257 1.368 . S
C1276 C1270 1.368 . S
C1276 C1275 1.523 . S
C1277 C1261 1.429 . S
C1277 C1273 1.429 . S
C1277 C1278 1.523 . S
C1278 C1262 1.368 . S
C1278 C1274 1.368 . S
C1278 C1277 1.523 . S
H1279 C1254 0.950 . S
H1280 C1256 0.950 . S
H1281 C1257 0.949 . S
H1282 C1259 0.950 . S
H1283 C1261 0.950 . S
C1284 C1285 1.349 . S
C1284 C1286 1.327 . S
C1284 H1309 0.950 . S
C1285 C1284 1.349 . S
C1285 C1301 1.349 . S
C1286 C1284 1.327 . S
C1286 C1305 1.429 . S
C1286 H1310 0.950 . S
C1287 C1304 1.574 . S
C1287 C1306 1.368 . S
C1287 H1311 0.949 . S
H1288 C1292 0.949 . S
C1289 C1290 1.349 . S
C1289 C1291 1.327 . S
C1289 H1312 0.950 . S
C1290 C1289 1.349 . S
C1290 C1302 1.349 . S
C1291 C1289 1.327 . S
C1291 C1307 1.429 . S
C1291 H1313 0.950 . S
C1292 H1288 0.949 . S
C1292 C1300 1.574 . S
C1292 C1308 1.368 . S
H1293 C1301 0.950 . S
H1294 C1299 0.950 . S
H1295 C1300 0.949 . S
H1296 C1302 0.950 1_556 S
H1297 C1303 0.950 . S
H1298 C1304 0.949 . S
C1299 H1294 0.950 . S
C1299 C1301 1.327 . S
C1299 C1305 1.429 . S
C1300 C1292 1.574 . S
C1300 H1295 0.949 . S
C1300 C1306 1.368 . S
C1301 C1285 1.349 . S
C1301 H1293 0.950 . S
C1301 C1299 1.327 . S
C1302 C1290 1.349 . S
C1302 H1296 0.950 1_554 S
C1302 C1303 1.327 . S
C1303 H1297 0.950 . S
C1303 C1302 1.327 . S
C1303 C1307 1.429 . S
C1304 C1287 1.574 . S
C1304 H1298 0.949 . S
C1304 C1308 1.368 . S
C1305 C1286 1.429 . S
C1305 C1299 1.429 . S
C1305 C1306 1.523 . S
C1306 C1287 1.368 . S
C1306 C1300 1.368 . S
C1306 C1305 1.523 . S
C1307 C1291 1.429 . S
C1307 C1303 1.429 . S
C1307 C1308 1.523 . S
C1308 C1292 1.368 . S
C1308 C1304 1.368 . S
C1308 C1307 1.523 . S
H1309 C1284 0.950 . S
H1310 C1286 0.950 . S
H1311 C1287 0.949 . S
H1312 C1289 0.950 . S
H1313 C1291 0.950 . S
C1314 C1315 1.349 . S
C1314 C1316 1.327 . S
C1314 H1339 0.950 . S
C1315 C1314 1.349 . S
C1315 C1331 1.349 . S
C1316 C1314 1.327 . S
C1316 C1335 1.429 1_655 S
C1316 H1340 0.950 . S
C1317 C1334 1.574 . S
C1317 C1336 1.368 . S
C1317 H1341 0.949 . S
H1318 C1322 0.949 . S
C1319 C1320 1.349 . S
C1319 C1321 1.327 . S
C1319 H1342 0.950 . S
C1320 C1319 1.349 . S
C1320 C1332 1.349 . S
C1321 C1319 1.327 . S
C1321 C1337 1.429 . S
C1321 H1343 0.950 . S
C1322 H1318 0.949 . S
C1322 C1330 1.574 . S
C1322 C1338 1.368 . S
H1323 C1331 0.950 . S
H1324 C1329 0.950 . S
H1325 C1330 0.949 . S
H1326 C1332 0.950 . S
H1327 C1333 0.950 . S
H1328 C1334 0.949 . S
C1329 H1324 0.950 . S
C1329 C1331 1.327 1_455 S
C1329 C1335 1.429 . S
C1330 C1322 1.574 . S
C1330 H1325 0.949 . S
C1330 C1336 1.368 . S
C1331 C1315 1.349 . S
C1331 H1323 0.950 . S
C1331 C1329 1.327 1_655 S
C1332 C1320 1.349 . S
C1332 H1326 0.950 . S
C1332 C1333 1.327 . S
C1333 H1327 0.950 . S
C1333 C1332 1.327 . S
C1333 C1337 1.429 . S
C1334 C1317 1.574 . S
C1334 H1328 0.949 . S
C1334 C1338 1.368 . S
C1335 C1316 1.429 1_455 S
C1335 C1329 1.429 . S
C1335 C1336 1.523 . S
C1336 C1317 1.368 . S
C1336 C1330 1.368 . S
C1336 C1335 1.523 . S
C1337 C1321 1.429 . S
C1337 C1333 1.429 . S
C1337 C1338 1.523 . S
C1338 C1322 1.368 . S
C1338 C1334 1.368 . S
C1338 C1337 1.523 . S
H1339 C1314 0.950 . S
H1340 C1316 0.950 . S
H1341 C1317 0.949 . S
H1342 C1319 0.950 . S
H1343 C1321 0.950 . S
C1344 C1345 1.349 . S
C1344 C1346 1.327 . S
C1344 H1369 0.950 . S
C1345 C1344 1.349 . S
C1345 C1361 1.349 . S
C1346 C1344 1.327 . S
C1346 C1365 1.429 . S
C1346 H1370 0.950 . S
C1347 C1364 1.574 . S
C1347 C1366 1.368 . S
C1347 H1371 0.949 . S
H1348 C1352 0.949 . S
C1349 C1350 1.349 . S
C1349 C1351 1.327 . S
C1349 H1372 0.950 . S
C1350 C1349 1.349 . S
C1350 C1362 1.349 . S
C1351 C1349 1.327 . S
C1351 C1367 1.429 . S
C1351 H1373 0.950 . S
C1352 H1348 0.949 . S
C1352 C1360 1.574 . S
C1352 C1368 1.368 . S
H1353 C1361 0.950 . S
H1354 C1359 0.950 . S
H1355 C1360 0.949 . S
H1356 C1362 0.950 . S
H1357 C1363 0.950 . S
H1358 C1364 0.949 . S
C1359 H1354 0.950 . S
C1359 C1361 1.327 . S
C1359 C1365 1.429 . S
C1360 C1352 1.574 . S
C1360 H1355 0.949 . S
C1360 C1366 1.368 . S
C1361 C1345 1.349 . S
C1361 H1353 0.950 . S
C1361 C1359 1.327 . S
C1362 C1350 1.349 . S
C1362 H1356 0.950 . S
C1362 C1363 1.327 . S
C1363 H1357 0.950 . S
C1363 C1362 1.327 . S
C1363 C1367 1.429 . S
C1364 C1347 1.574 . S
C1364 H1358 0.949 . S
C1364 C1368 1.368 . S
C1365 C1346 1.429 . S
C1365 C1359 1.429 . S
C1365 C1366 1.523 . S
C1366 C1347 1.368 . S
C1366 C1360 1.368 . S
C1366 C1365 1.523 . S
C1367 C1351 1.429 . S
C1367 C1363 1.429 . S
C1367 C1368 1.523 . S
C1368 C1352 1.368 . S
C1368 C1364 1.368 . S
C1368 C1367 1.523 . S
H1369 C1344 0.950 . S
H1370 C1346 0.950 . S
H1371 C1347 0.949 . S
H1372 C1349 0.950 . S
H1373 C1351 0.950 . S
C1374 C1375 1.349 . S
C1374 C1376 1.327 . S
C1374 H1399 0.950 . S
C1375 C1374 1.349 . S
C1375 C1391 1.349 . S
C1376 C1374 1.327 . S
C1376 C1395 1.429 . S
C1376 H1400 0.950 . S
C1377 C1394 1.574 . S
C1377 C1396 1.368 . S
C1377 H1401 0.949 1_565 S
H1378 C1382 0.949 . S
C1379 C1380 1.349 . S
C1379 C1381 1.327 . S
C1379 H1402 0.950 . S
C1380 C1379 1.349 . S
C1380 C1392 1.349 . S
C1381 C1379 1.327 . S
C1381 C1397 1.429 . S
C1381 H1403 0.950 . S
C1382 H1378 0.949 . S
C1382 C1390 1.574 . S
C1382 C1398 1.368 . S
H1383 C1391 0.950 . S
H1384 C1389 0.950 . S
H1385 C1390 0.949 . S
H1386 C1392 0.950 . S
H1387 C1393 0.950 . S
H1388 C1394 0.949 . S
C1389 H1384 0.950 . S
C1389 C1391 1.327 . S
C1389 C1395 1.429 . S
C1390 C1382 1.574 . S
C1390 H1385 0.949 . S
C1390 C1396 1.368 . S
C1391 C1375 1.349 . S
C1391 H1383 0.950 . S
C1391 C1389 1.327 . S
C1392 C1380 1.349 . S
C1392 H1386 0.950 . S
C1392 C1393 1.327 . S
C1393 H1387 0.950 . S
C1393 C1392 1.327 . S
C1393 C1397 1.429 . S
C1394 C1377 1.574 . S
C1394 H1388 0.949 . S
C1394 C1398 1.368 . S
C1395 C1376 1.429 . S
C1395 C1389 1.429 . S
C1395 C1396 1.523 1_545 S
C1396 C1377 1.368 . S
C1396 C1390 1.368 . S
C1396 C1395 1.523 1_565 S
C1397 C1381 1.429 . S
C1397 C1393 1.429 . S
C1397 C1398 1.523 . S
C1398 C1382 1.368 . S
C1398 C1394 1.368 . S
C1398 C1397 1.523 . S
H1399 C1374 0.950 . S
H1400 C1376 0.950 . S
H1401 C1377 0.949 1_545 S
H1402 C1379 0.950 . S
H1403 C1381 0.950 . S
C1404 C1405 1.349 . S
C1404 C1406 1.327 . S
C1404 H1429 0.950 . S
C1405 C1404 1.349 . S
C1405 C1421 1.349 . S
C1406 C1404 1.327 . S
C1406 C1425 1.429 . S
C1406 H1430 0.950 . S
C1407 C1424 1.574 . S
C1407 C1426 1.368 . S
C1407 H1431 0.949 . S
H1408 C1412 0.949 . S
C1409 C1410 1.349 . S
C1409 C1411 1.327 . S
C1409 H1432 0.950 . S
C1410 C1409 1.349 . S
C1410 C1422 1.349 . S
C1411 C1409 1.327 . S
C1411 C1427 1.429 . S
C1411 H1433 0.950 . S
C1412 H1408 0.949 . S
C1412 C1420 1.574 . S
C1412 C1428 1.368 . S
H1413 C1421 0.950 . S
H1414 C1419 0.950 . S
H1415 C1420 0.949 . S
H1416 C1422 0.950 . S
H1417 C1423 0.950 . S
H1418 C1424 0.949 . S
C1419 H1414 0.950 . S
C1419 C1421 1.327 . S
C1419 C1425 1.429 . S
C1420 C1412 1.574 . S
C1420 H1415 0.949 . S
C1420 C1426 1.368 . S
C1421 C1405 1.349 . S
C1421 H1413 0.950 . S
C1421 C1419 1.327 . S
C1422 C1410 1.349 . S
C1422 H1416 0.950 . S
C1422 C1423 1.327 . S
C1423 H1417 0.950 . S
C1423 C1422 1.327 . S
C1423 C1427 1.429 . S
C1424 C1407 1.574 . S
C1424 H1418 0.949 . S
C1424 C1428 1.368 . S
C1425 C1406 1.429 . S
C1425 C1419 1.429 . S
C1425 C1426 1.523 . S
C1426 C1407 1.368 . S
C1426 C1420 1.368 . S
C1426 C1425 1.523 . S
C1427 C1411 1.429 . S
C1427 C1423 1.429 . S
C1427 C1428 1.523 . S
C1428 C1412 1.368 . S
C1428 C1424 1.368 . S
C1428 C1427 1.523 . S
H1429 C1404 0.950 . S
H1430 C1406 0.950 . S
H1431 C1407 0.949 . S
H1432 C1409 0.950 . S
H1433 C1411 0.950 . S
C1434 C1435 1.349 . S
C1434 C1436 1.327 . S
C1434 H1459 0.950 . S
C1435 C1434 1.349 . S
C1435 C1451 1.349 . S
C1436 C1434 1.327 . S
C1436 C1455 1.429 . S
C1436 H1460 0.950 . S
C1437 C1454 1.574 . S
C1437 C1456 1.368 . S
C1437 H1461 0.949 . S
H1438 C1442 0.949 . S
C1439 C1440 1.349 . S
C1439 C1441 1.327 . S
C1439 H1462 0.950 . S
C1440 C1439 1.349 . S
C1440 C1452 1.349 . S
C1441 C1439 1.327 . S
C1441 C1457 1.429 . S
C1441 H1463 0.950 . S
C1442 H1438 0.949 . S
C1442 C1450 1.574 . S
C1442 C1458 1.368 . S
H1443 C1451 0.950 . S
H1444 C1449 0.950 . S
H1445 C1450 0.949 . S
H1446 C1452 0.950 . S
H1447 C1453 0.950 . S
H1448 C1454 0.949 . S
C1449 H1444 0.950 . S
C1449 C1451 1.327 . S
C1449 C1455 1.429 . S
C1450 C1442 1.574 . S
C1450 H1445 0.949 . S
C1450 C1456 1.368 . S
C1451 C1435 1.349 . S
C1451 H1443 0.950 . S
C1451 C1449 1.327 . S
C1452 C1440 1.349 . S
C1452 H1446 0.950 . S
C1452 C1453 1.327 . S
C1453 H1447 0.950 . S
C1453 C1452 1.327 . S
C1453 C1457 1.429 . S
C1454 C1437 1.574 . S
C1454 H1448 0.949 . S
C1454 C1458 1.368 . S
C1455 C1436 1.429 . S
C1455 C1449 1.429 . S
C1455 C1456 1.523 . S
C1456 C1437 1.368 . S
C1456 C1450 1.368 . S
C1456 C1455 1.523 . S
C1457 C1441 1.429 . S
C1457 C1453 1.429 . S
C1457 C1458 1.523 . S
C1458 C1442 1.368 . S
C1458 C1454 1.368 . S
C1458 C1457 1.523 . S
H1459 C1434 0.950 . S
H1460 C1436 0.950 . S
H1461 C1437 0.949 . S
H1462 C1439 0.950 . S
H1463 C1441 0.950 . S
C1464 C1465 1.349 . S
C1464 C1466 1.327 . S
C1464 H1489 0.950 . S
C1465 C1464 1.349 . S
C1465 C1481 1.349 . S
C1466 C1464 1.327 . S
C1466 C1485 1.429 . S
C1466 H1490 0.950 . S
C1467 C1484 1.574 . S
C1467 C1486 1.368 . S
C1467 H1491 0.949 . S
H1468 C1472 0.949 . S
C1469 C1470 1.349 . S
C1469 C1471 1.327 . S
C1469 H1492 0.950 . S
C1470 C1469 1.349 . S
C1470 C1482 1.349 . S
C1471 C1469 1.327 . S
C1471 C1487 1.429 . S
C1471 H1493 0.950 . S
C1472 H1468 0.949 . S
C1472 C1480 1.574 . S
C1472 C1488 1.368 . S
H1473 C1481 0.950 . S
H1474 C1479 0.950 . S
H1475 C1480 0.949 . S
H1476 C1482 0.950 . S
H1477 C1483 0.950 . S
H1478 C1484 0.949 . S
C1479 H1474 0.950 . S
C1479 C1481 1.327 . S
C1479 C1485 1.429 . S
C1480 C1472 1.574 . S
C1480 H1475 0.949 . S
C1480 C1486 1.368 . S
C1481 C1465 1.349 . S
C1481 H1473 0.950 . S
C1481 C1479 1.327 . S
C1482 C1470 1.349 . S
C1482 H1476 0.950 . S
C1482 C1483 1.327 . S
C1483 H1477 0.950 . S
C1483 C1482 1.327 . S
C1483 C1487 1.429 . S
C1484 C1467 1.574 . S
C1484 H1478 0.949 . S
C1484 C1488 1.368 . S
C1485 C1466 1.429 . S
C1485 C1479 1.429 . S
C1485 C1486 1.523 . S
C1486 C1467 1.368 . S
C1486 C1480 1.368 . S
C1486 C1485 1.523 . S
C1487 C1471 1.429 . S
C1487 C1483 1.429 . S
C1487 C1488 1.523 . S
C1488 C1472 1.368 . S
C1488 C1484 1.368 . S
C1488 C1487 1.523 . S
H1489 C1464 0.950 . S
H1490 C1466 0.950 . S
H1491 C1467 0.949 . S
H1492 C1469 0.950 . S
H1493 C1471 0.950 . S
C1494 C1495 1.349 . S
C1494 C1496 1.327 . S
C1494 H1519 0.950 . S
C1495 C1494 1.349 . S
C1495 C1511 1.349 . S
C1496 C1494 1.327 . S
C1496 C1515 1.429 . S
C1496 H1520 0.950 . S
C1497 C1514 1.574 . S
C1497 C1516 1.368 . S
C1497 H1521 0.949 . S
H1498 C1502 0.949 . S
C1499 C1500 1.349 . S
C1499 C1501 1.327 . S
C1499 H1522 0.950 . S
C1500 C1499 1.349 . S
C1500 C1512 1.349 . S
C1501 C1499 1.327 . S
C1501 C1517 1.429 . S
C1501 H1523 0.950 . S
C1502 H1498 0.949 . S
C1502 C1510 1.574 . S
C1502 C1518 1.368 . S
H1503 C1511 0.950 . S
H1504 C1509 0.950 . S
H1505 C1510 0.949 . S
H1506 C1512 0.950 . S
H1507 C1513 0.950 . S
H1508 C1514 0.949 . S
C1509 H1504 0.950 . S
C1509 C1511 1.327 . S
C1509 C1515 1.429 . S
C1510 C1502 1.574 . S
C1510 H1505 0.949 . S
C1510 C1516 1.368 . S
C1511 C1495 1.349 . S
C1511 H1503 0.950 . S
C1511 C1509 1.327 . S
C1512 C1500 1.349 . S
C1512 H1506 0.950 . S
C1512 C1513 1.327 . S
C1513 H1507 0.950 . S
C1513 C1512 1.327 . S
C1513 C1517 1.429 . S
C1514 C1497 1.574 . S
C1514 H1508 0.949 . S
C1514 C1518 1.368 . S
C1515 C1496 1.429 . S
C1515 C1509 1.429 . S
C1515 C1516 1.523 . S
C1516 C1497 1.368 . S
C1516 C1510 1.368 . S
C1516 C1515 1.523 . S
C1517 C1501 1.429 . S
C1517 C1513 1.429 . S
C1517 C1518 1.523 . S
C1518 C1502 1.368 . S
C1518 C1514 1.368 . S
C1518 C1517 1.523 . S
H1519 C1494 0.950 . S
H1520 C1496 0.950 . S
H1521 C1497 0.949 . S
H1522 C1499 0.950 . S
H1523 C1501 0.950 . S
C1524 C1525 1.349 . S
C1524 C1526 1.327 . S
C1524 H1549 0.950 . S
C1525 C1524 1.349 . S
C1525 C1541 1.349 . S
C1526 C1524 1.327 . S
C1526 C1545 1.429 . S
C1526 H1550 0.950 . S
C1527 C1544 1.574 . S
C1527 C1546 1.368 . S
C1527 H1551 0.949 . S
H1528 C1532 0.949 . S
C1529 C1530 1.349 . S
C1529 C1531 1.327 . S
C1529 H1552 0.950 . S
C1530 C1529 1.349 . S
C1530 C1542 1.349 . S
C1531 C1529 1.327 . S
C1531 C1547 1.429 . S
C1531 H1553 0.950 . S
C1532 H1528 0.949 . S
C1532 C1540 1.574 . S
C1532 C1548 1.368 . S
H1533 C1541 0.950 . S
H1534 C1539 0.950 . S
H1535 C1540 0.949 . S
H1536 C1542 0.950 . S
H1537 C1543 0.950 . S
H1538 C1544 0.949 . S
C1539 H1534 0.950 . S
C1539 C1541 1.327 . S
C1539 C1545 1.429 . S
C1540 C1532 1.574 . S
C1540 H1535 0.949 . S
C1540 C1546 1.368 . S
C1541 C1525 1.349 . S
C1541 H1533 0.950 . S
C1541 C1539 1.327 . S
C1542 C1530 1.349 . S
C1542 H1536 0.950 . S
C1542 C1543 1.327 . S
C1543 H1537 0.950 . S
C1543 C1542 1.327 . S
C1543 C1547 1.429 . S
C1544 C1527 1.574 . S
C1544 H1538 0.949 . S
C1544 C1548 1.368 . S
C1545 C1526 1.429 . S
C1545 C1539 1.429 . S
C1545 C1546 1.523 . S
C1546 C1527 1.368 . S
C1546 C1540 1.368 . S
C1546 C1545 1.523 . S
C1547 C1531 1.429 . S
C1547 C1543 1.429 . S
C1547 C1548 1.523 . S
C1548 C1532 1.368 . S
C1548 C1544 1.368 . S
C1548 C1547 1.523 . S
H1549 C1524 0.950 . S
H1550 C1526 0.950 . S
H1551 C1527 0.949 . S
H1552 C1529 0.950 . S
H1553 C1531 0.950 . S
C1554 C1555 1.349 . S
C1554 C1556 1.327 . S
C1554 H1579 0.950 . S
C1555 C1554 1.349 . S
C1555 C1571 1.349 . S
C1556 C1554 1.327 . S
C1556 C1575 1.429 . S
C1556 H1580 0.950 . S
C1557 C1574 1.574 . S
C1557 C1576 1.368 . S
C1557 H1581 0.949 . S
H1558 C1562 0.949 . S
C1559 C1560 1.349 . S
C1559 C1561 1.327 . S
C1559 H1582 0.950 . S
C1560 C1559 1.349 . S
C1560 C1572 1.349 . S
C1561 C1559 1.327 . S
C1561 C1577 1.429 . S
C1561 H1583 0.950 . S
C1562 H1558 0.949 . S
C1562 C1570 1.574 . S
C1562 C1578 1.368 . S
H1563 C1571 0.950 . S
H1564 C1569 0.950 . S
H1565 C1570 0.949 . S
H1566 C1572 0.950 . S
H1567 C1573 0.950 . S
H1568 C1574 0.949 . S
C1569 H1564 0.950 . S
C1569 C1571 1.327 . S
C1569 C1575 1.429 . S
C1570 C1562 1.574 . S
C1570 H1565 0.949 . S
C1570 C1576 1.368 . S
C1571 C1555 1.349 . S
C1571 H1563 0.950 . S
C1571 C1569 1.327 . S
C1572 C1560 1.349 . S
C1572 H1566 0.950 . S
C1572 C1573 1.327 . S
C1573 H1567 0.950 . S
C1573 C1572 1.327 . S
C1573 C1577 1.429 . S
C1574 C1557 1.574 . S
C1574 H1568 0.949 . S
C1574 C1578 1.368 . S
C1575 C1556 1.429 . S
C1575 C1569 1.429 . S
C1575 C1576 1.523 . S
C1576 C1557 1.368 . S
C1576 C1570 1.368 . S
C1576 C1575 1.523 . S
C1577 C1561 1.429 . S
C1577 C1573 1.429 . S
C1577 C1578 1.523 . S
C1578 C1562 1.368 . S
C1578 C1574 1.368 . S
C1578 C1577 1.523 . S
H1579 C1554 0.950 . S
H1580 C1556 0.950 . S
H1581 C1557 0.949 . S
H1582 C1559 0.950 . S
H1583 C1561 0.950 . S
C1584 C1585 1.349 . S
C1584 C1586 1.327 . S
C1584 H1609 0.950 . S
C1585 C1584 1.349 . S
C1585 C1601 1.349 . S
C1586 C1584 1.327 . S
C1586 C1605 1.429 . S
C1586 H1610 0.950 . S
C1587 C1604 1.574 . S
C1587 C1606 1.368 . S
C1587 H1611 0.949 . S
H1588 C1592 0.949 . S
C1589 C1590 1.349 . S
C1589 C1591 1.327 . S
C1589 H1612 0.950 . S
C1590 C1589 1.349 . S
C1590 C1602 1.349 . S
C1591 C1589 1.327 . S
C1591 C1607 1.429 . S
C1591 H1613 0.950 . S
C1592 H1588 0.949 . S
C1592 C1600 1.574 . S
C1592 C1608 1.368 . S
H1593 C1601 0.950 . S
H1594 C1599 0.950 . S
H1595 C1600 0.949 . S
H1596 C1602 0.950 . S
H1597 C1603 0.950 . S
H1598 C1604 0.949 . S
C1599 H1594 0.950 . S
C1599 C1601 1.327 . S
C1599 C1605 1.429 . S
C1600 C1592 1.574 . S
C1600 H1595 0.949 . S
C1600 C1606 1.368 . S
C1601 C1585 1.349 . S
C1601 H1593 0.950 . S
C1601 C1599 1.327 . S
C1602 C1590 1.349 . S
C1602 H1596 0.950 . S
C1602 C1603 1.327 . S
C1603 H1597 0.950 . S
C1603 C1602 1.327 . S
C1603 C1607 1.429 . S
C1604 C1587 1.574 . S
C1604 H1598 0.949 . S
C1604 C1608 1.368 . S
C1605 C1586 1.429 . S
C1605 C1599 1.429 . S
C1605 C1606 1.523 1_545 S
C1606 C1587 1.368 . S
C1606 C1600 1.368 . S
C1606 C1605 1.523 1_565 S
C1607 C1591 1.429 . S
C1607 C1603 1.429 . S
C1607 C1608 1.523 . S
C1608 C1592 1.368 . S
C1608 C1604 1.368 . S
C1608 C1607 1.523 . S
H1609 C1584 0.950 . S
H1610 C1586 0.950 . S
H1611 C1587 0.949 . S
H1612 C1589 0.950 . S
H1613 C1591 0.950 . S
C1614 C1615 1.349 . S
C1614 C1616 1.327 . S
C1614 H1639 0.950 . S
C1615 C1614 1.349 . S
C1615 C1631 1.349 . S
C1616 C1614 1.327 . S
C1616 C1635 1.429 1_655 S
C1616 H1640 0.950 . S
C1617 C1634 1.574 . S
C1617 C1636 1.368 . S
C1617 H1641 0.949 . S
H1618 C1622 0.949 . S
C1619 C1620 1.349 . S
C1619 C1621 1.327 . S
C1619 H1642 0.950 . S
C1620 C1619 1.349 . S
C1620 C1632 1.349 . S
C1621 C1619 1.327 . S
C1621 C1637 1.429 . S
C1621 H1643 0.950 . S
C1622 H1618 0.949 . S
C1622 C1630 1.574 . S
C1622 C1638 1.368 . S
H1623 C1631 0.950 . S
H1624 C1629 0.950 1_455 S
H1625 C1630 0.949 . S
H1626 C1632 0.950 . S
H1627 C1633 0.950 . S
H1628 C1634 0.949 . S
C1629 H1624 0.950 1_655 S
C1629 C1631 1.327 . S
C1629 C1635 1.429 1_655 S
C1630 C1622 1.574 . S
C1630 H1625 0.949 . S
C1630 C1636 1.368 . S
C1631 C1615 1.349 . S
C1631 H1623 0.950 . S
C1631 C1629 1.327 . S
C1632 C1620 1.349 . S
C1632 H1626 0.950 . S
C1632 C1633 1.327 . S
C1633 H1627 0.950 . S
C1633 C1632 1.327 . S
C1633 C1637 1.429 . S
C1634 C1617 1.574 . S
C1634 H1628 0.949 . S
C1634 C1638 1.368 . S
C1635 C1616 1.429 1_455 S
C1635 C1629 1.429 1_455 S
C1635 C1636 1.523 . S
C1636 C1617 1.368 . S
C1636 C1630 1.368 . S
C1636 C1635 1.523 . S
C1637 C1621 1.429 . S
C1637 C1633 1.429 . S
C1637 C1638 1.523 . S
C1638 C1622 1.368 . S
C1638 C1634 1.368 . S
C1638 C1637 1.523 . S
H1639 C1614 0.950 . S
H1640 C1616 0.950 . S
H1641 C1617 0.949 . S
H1642 C1619 0.950 . S
H1643 C1621 0.950 . S
C1644 C1645 1.349 . S
C1644 C1646 1.327 . S
C1644 H1669 0.950 . S
C1645 C1644 1.349 . S
C1645 C1661 1.349 . S
C1646 C1644 1.327 . S
C1646 C1665 1.429 . S
C1646 H1670 0.950 . S
C1647 C1664 1.574 . S
C1647 C1666 1.368 . S
C1647 H1671 0.949 . S
H1648 C1652 0.949 . S
C1649 C1650 1.349 . S
C1649 C1651 1.327 . S
C1649 H1672 0.950 . S
C1650 C1649 1.349 . S
C1650 C1662 1.349 . S
C1651 C1649 1.327 . S
C1651 C1667 1.429 . S
C1651 H1673 0.950 . S
C1652 H1648 0.949 . S
C1652 C1660 1.574 . S
C1652 C1668 1.368 . S
H1653 C1661 0.950 . S
H1654 C1659 0.950 . S
H1655 C1660 0.949 . S
H1656 C1662 0.950 . S
H1657 C1663 0.950 . S
H1658 C1664 0.949 . S
C1659 H1654 0.950 . S
C1659 C1661 1.327 . S
C1659 C1665 1.429 . S
C1660 C1652 1.574 . S
C1660 H1655 0.949 . S
C1660 C1666 1.368 . S
C1661 C1645 1.349 . S
C1661 H1653 0.950 . S
C1661 C1659 1.327 . S
C1662 C1650 1.349 . S
C1662 H1656 0.950 . S
C1662 C1663 1.327 . S
C1663 H1657 0.950 . S
C1663 C1662 1.327 . S
C1663 C1667 1.429 . S
C1664 C1647 1.574 . S
C1664 H1658 0.949 . S
C1664 C1668 1.368 . S
C1665 C1646 1.429 . S
C1665 C1659 1.429 . S
C1665 C1666 1.523 . S
C1666 C1647 1.368 . S
C1666 C1660 1.368 . S
C1666 C1665 1.523 . S
C1667 C1651 1.429 . S
C1667 C1663 1.429 . S
C1667 C1668 1.523 . S
C1668 C1652 1.368 . S
C1668 C1664 1.368 . S
C1668 C1667 1.523 . S
H1669 C1644 0.950 . S
H1670 C1646 0.950 . S
H1671 C1647 0.949 . S
H1672 C1649 0.950 . S
H1673 C1651 0.950 . S
C1674 C1675 1.349 . S
C1674 C1676 1.327 . S
C1674 H1699 0.950 . S
C1675 C1674 1.349 . S
C1675 C1691 1.349 . S
C1676 C1674 1.327 . S
C1676 C1695 1.429 . S
C1676 H1700 0.950 . S
C1677 C1694 1.574 . S
C1677 C1696 1.368 . S
C1677 H1701 0.949 . S
H1678 C1682 0.949 . S
C1679 C1680 1.349 . S
C1679 C1681 1.327 . S
C1679 H1702 0.950 . S
C1680 C1679 1.349 . S
C1680 C1692 1.349 . S
C1681 C1679 1.327 . S
C1681 C1697 1.429 . S
C1681 H1703 0.950 . S
C1682 H1678 0.949 . S
C1682 C1690 1.574 . S
C1682 C1698 1.368 . S
H1683 C1691 0.950 . S
H1684 C1689 0.950 . S
H1685 C1690 0.949 . S
H1686 C1692 0.950 . S
H1687 C1693 0.950 . S
H1688 C1694 0.949 . S
C1689 H1684 0.950 . S
C1689 C1691 1.327 . S
C1689 C1695 1.429 . S
C1690 C1682 1.574 . S
C1690 H1685 0.949 . S
C1690 C1696 1.368 . S
C1691 C1675 1.349 . S
C1691 H1683 0.950 . S
C1691 C1689 1.327 . S
C1692 C1680 1.349 . S
C1692 H1686 0.950 . S
C1692 C1693 1.327 . S
C1693 H1687 0.950 . S
C1693 C1692 1.327 . S
C1693 C1697 1.429 . S
C1694 C1677 1.574 . S
C1694 H1688 0.949 . S
C1694 C1698 1.368 . S
C1695 C1676 1.429 . S
C1695 C1689 1.429 . S
C1695 C1696 1.523 . S
C1696 C1677 1.368 . S
C1696 C1690 1.368 . S
C1696 C1695 1.523 . S
C1697 C1681 1.429 . S
C1697 C1693 1.429 . S
C1697 C1698 1.523 . S
C1698 C1682 1.368 . S
C1698 C1694 1.368 . S
C1698 C1697 1.523 . S
H1699 C1674 0.950 . S
H1700 C1676 0.950 . S
H1701 C1677 0.949 . S
H1702 C1679 0.950 . S
H1703 C1681 0.950 . S
C1704 C1705 1.349 . S
C1704 C1706 1.327 . S
C1704 H1729 0.950 . S
C1705 C1704 1.349 . S
C1705 C1721 1.349 . S
C1706 C1704 1.327 . S
C1706 C1725 1.429 . S
C1706 H1730 0.950 . S
C1707 C1724 1.574 . S
C1707 C1726 1.368 . S
C1707 H1731 0.949 . S
H1708 C1712 0.949 . S
C1709 C1710 1.349 . S
C1709 C1711 1.327 . S
C1709 H1732 0.950 . S
C1710 C1709 1.349 . S
C1710 C1722 1.349 . S
C1711 C1709 1.327 . S
C1711 C1727 1.429 . S
C1711 H1733 0.950 . S
C1712 H1708 0.949 . S
C1712 C1720 1.574 . S
C1712 C1728 1.368 . S
H1713 C1721 0.950 . S
H1714 C1719 0.950 . S
H1715 C1720 0.949 . S
H1716 C1722 0.950 . S
H1717 C1723 0.950 . S
H1718 C1724 0.949 . S
C1719 H1714 0.950 . S
C1719 C1721 1.327 . S
C1719 C1725 1.429 . S
C1720 C1712 1.574 . S
C1720 H1715 0.949 . S
C1720 C1726 1.368 . S
C1721 C1705 1.349 . S
C1721 H1713 0.950 . S
C1721 C1719 1.327 . S
C1722 C1710 1.349 . S
C1722 H1716 0.950 . S
C1722 C1723 1.327 . S
C1723 H1717 0.950 . S
C1723 C1722 1.327 . S
C1723 C1727 1.429 . S
C1724 C1707 1.574 . S
C1724 H1718 0.949 . S
C1724 C1728 1.368 . S
C1725 C1706 1.429 . S
C1725 C1719 1.429 . S
C1725 C1726 1.523 . S
C1726 C1707 1.368 . S
C1726 C1720 1.368 . S
C1726 C1725 1.523 . S
C1727 C1711 1.429 . S
C1727 C1723 1.429 . S
C1727 C1728 1.523 . S
C1728 C1712 1.368 . S
C1728 C1724 1.368 . S
C1728 C1727 1.523 . S
H1729 C1704 0.950 . S
H1730 C1706 0.950 . S
H1731 C1707 0.949 . S
H1732 C1709 0.950 . S
H1733 C1711 0.950 . S
C1734 C1735 1.349 . S
C1734 C1736 1.327 . S
C1734 H1759 0.950 . S
C1735 C1734 1.349 . S
C1735 C1751 1.349 . S
C1736 C1734 1.327 . S
C1736 C1755 1.429 . S
C1736 H1760 0.950 . S
C1737 C1754 1.574 . S
C1737 C1756 1.368 . S
C1737 H1761 0.949 . S
H1738 C1742 0.949 . S
C1739 C1740 1.349 . S
C1739 C1741 1.327 . S
C1739 H1762 0.950 . S
C1740 C1739 1.349 . S
C1740 C1752 1.349 . S
C1741 C1739 1.327 . S
C1741 C1757 1.429 . S
C1741 H1763 0.950 . S
C1742 H1738 0.949 . S
C1742 C1750 1.574 . S
C1742 C1758 1.368 . S
H1743 C1751 0.950 . S
H1744 C1749 0.950 . S
H1745 C1750 0.949 . S
H1746 C1752 0.950 . S
H1747 C1753 0.950 . S
H1748 C1754 0.949 . S
C1749 H1744 0.950 . S
C1749 C1751 1.327 . S
C1749 C1755 1.429 . S
C1750 C1742 1.574 . S
C1750 H1745 0.949 . S
C1750 C1756 1.368 . S
C1751 C1735 1.349 . S
C1751 H1743 0.950 . S
C1751 C1749 1.327 . S
C1752 C1740 1.349 . S
C1752 H1746 0.950 . S
C1752 C1753 1.327 . S
C1753 H1747 0.950 . S
C1753 C1752 1.327 . S
C1753 C1757 1.429 . S
C1754 C1737 1.574 . S
C1754 H1748 0.949 . S
C1754 C1758 1.368 . S
C1755 C1736 1.429 . S
C1755 C1749 1.429 . S
C1755 C1756 1.523 . S
C1756 C1737 1.368 . S
C1756 C1750 1.368 . S
C1756 C1755 1.523 . S
C1757 C1741 1.429 . S
C1757 C1753 1.429 . S
C1757 C1758 1.523 . S
C1758 C1742 1.368 . S
C1758 C1754 1.368 . S
C1758 C1757 1.523 . S
H1759 C1734 0.950 . S
H1760 C1736 0.950 . S
H1761 C1737 0.949 . S
H1762 C1739 0.950 . S
H1763 C1741 0.950 . S
C1764 C1765 1.349 . S
C1764 C1766 1.327 . S
C1764 H1789 0.950 . S
C1765 C1764 1.349 . S
C1765 C1781 1.349 . S
C1766 C1764 1.327 . S
C1766 C1785 1.429 . S
C1766 H1790 0.950 . S
C1767 C1784 1.574 . S
C1767 C1786 1.368 . S
C1767 H1791 0.949 . S
H1768 C1772 0.949 . S
C1769 C1770 1.349 . S
C1769 C1771 1.327 . S
C1769 H1792 0.950 . S
C1770 C1769 1.349 . S
C1770 C1782 1.349 . S
C1771 C1769 1.327 . S
C1771 C1787 1.429 . S
C1771 H1793 0.950 . S
C1772 H1768 0.949 . S
C1772 C1780 1.574 . S
C1772 C1788 1.368 . S
H1773 C1781 0.950 . S
H1774 C1779 0.913 1_545 S
H1775 C1780 0.982 . S
H1776 C1782 0.950 . S
H1777 C1783 0.950 . S
H1778 C1784 0.949 . S
C1779 H1774 0.913 1_565 S
C1779 C1781 1.327 . S
C1779 C1785 1.429 . S
C1780 C1772 1.574 . S
C1780 H1775 0.982 . S
C1780 C1786 1.368 . S
C1781 C1765 1.349 . S
C1781 H1773 0.950 . S
C1781 C1779 1.327 . S
C1782 C1770 1.349 . S
C1782 H1776 0.950 . S
C1782 C1783 1.327 . S
C1783 H1777 0.950 . S
C1783 C1782 1.327 . S
C1783 C1787 1.429 . S
C1784 C1767 1.574 . S
C1784 H1778 0.949 . S
C1784 C1788 1.368 . S
C1785 C1766 1.429 . S
C1785 C1779 1.429 . S
C1785 C1786 1.523 1_565 S
C1786 C1767 1.368 . S
C1786 C1780 1.368 . S
C1786 C1785 1.523 1_545 S
C1787 C1771 1.429 . S
C1787 C1783 1.429 . S
C1787 C1788 1.523 . S
C1788 C1772 1.368 . S
C1788 C1784 1.368 . S
C1788 C1787 1.523 . S
H1789 C1764 0.950 . S
H1790 C1766 0.950 . S
H1791 C1767 0.949 . S
H1792 C1769 0.950 . S
H1793 C1771 0.950 . S
C1794 C1795 1.349 . S
C1794 C1796 1.327 . S
C1794 H1819 0.950 . S
C1795 C1794 1.349 . S
C1795 C1811 1.349 . S
C1796 C1794 1.327 . S
C1796 C1815 1.429 . S
C1796 H1820 0.950 . S
C1797 C1814 1.574 . S
C1797 C1816 1.368 . S
C1797 H1821 0.949 . S
H1798 C1802 0.949 . S
C1799 C1800 1.349 . S
C1799 C1801 1.327 . S
C1799 H1822 0.950 . S
C1800 C1799 1.349 . S
C1800 C1812 1.349 . S
C1801 C1799 1.327 . S
C1801 C1817 1.429 . S
C1801 H1823 0.950 . S
C1802 H1798 0.949 . S
C1802 C1810 1.574 . S
C1802 C1818 1.368 . S
H1803 C1811 0.950 . S
H1804 C1809 0.950 . S
H1805 C1810 0.949 . S
H1806 C1812 0.950 . S
H1807 C1813 0.950 . S
H1808 C1814 0.949 . S
C1809 H1804 0.950 . S
C1809 C1811 1.327 . S
C1809 C1815 1.429 . S
C1810 C1802 1.574 . S
C1810 H1805 0.949 . S
C1810 C1816 1.368 . S
C1811 C1795 1.349 . S
C1811 H1803 0.950 . S
C1811 C1809 1.327 . S
C1812 C1800 1.349 . S
C1812 H1806 0.950 . S
C1812 C1813 1.327 . S
C1813 H1807 0.950 . S
C1813 C1812 1.327 . S
C1813 C1817 1.429 . S
C1814 C1797 1.574 . S
C1814 H1808 0.949 . S
C1814 C1818 1.368 . S
C1815 C1796 1.429 . S
C1815 C1809 1.429 . S
C1815 C1816 1.523 1_455 S
C1816 C1797 1.368 . S
C1816 C1810 1.368 . S
C1816 C1815 1.523 1_655 S
C1817 C1801 1.429 . S
C1817 C1813 1.429 . S
C1817 C1818 1.523 . S
C1818 C1802 1.368 . S
C1818 C1814 1.368 . S
C1818 C1817 1.523 . S
H1819 C1794 0.950 . S
H1820 C1796 0.950 . S
H1821 C1797 0.949 . S
H1822 C1799 0.950 . S
H1823 C1801 0.950 . S
C1824 C1825 1.349 . S
C1824 C1826 1.327 . S
C1824 H1849 0.950 . S
C1825 C1824 1.349 . S
C1825 C1841 1.349 . S
C1826 C1824 1.327 . S
C1826 C1845 1.429 . S
C1826 H1850 0.950 . S
C1827 C1844 1.574 . S
C1827 C1846 1.368 . S
C1827 H1851 0.949 . S
H1828 C1832 0.949 . S
C1829 C1830 1.349 . S
C1829 C1831 1.327 . S
C1829 H1852 0.950 . S
C1830 C1829 1.349 . S
C1830 C1842 1.349 . S
C1831 C1829 1.327 . S
C1831 C1847 1.429 . S
C1831 H1853 0.950 . S
C1832 H1828 0.949 . S
C1832 C1840 1.574 . S
C1832 C1848 1.368 . S
H1833 C1841 0.950 . S
H1834 C1839 0.950 . S
H1835 C1840 0.949 . S
H1836 C1842 0.950 . S
H1837 C1843 0.950 . S
H1838 C1844 0.949 . S
C1839 H1834 0.950 . S
C1839 C1841 1.327 . S
C1839 C1845 1.429 . S
C1840 C1832 1.574 . S
C1840 H1835 0.949 . S
C1840 C1846 1.368 . S
C1841 C1825 1.349 . S
C1841 H1833 0.950 . S
C1841 C1839 1.327 . S
C1842 C1830 1.349 . S
C1842 H1836 0.950 . S
C1842 C1843 1.327 . S
C1843 H1837 0.950 . S
C1843 C1842 1.327 . S
C1843 C1847 1.429 . S
C1844 C1827 1.574 . S
C1844 H1838 0.949 . S
C1844 C1848 1.368 . S
C1845 C1826 1.429 . S
C1845 C1839 1.429 . S
C1845 C1846 1.523 . S
C1846 C1827 1.368 . S
C1846 C1840 1.368 . S
C1846 C1845 1.523 . S
C1847 C1831 1.429 . S
C1847 C1843 1.429 . S
C1847 C1848 1.523 . S
C1848 C1832 1.368 . S
C1848 C1844 1.368 . S
C1848 C1847 1.523 . S
H1849 C1824 0.950 . S
H1850 C1826 0.950 . S
H1851 C1827 0.949 . S
H1852 C1829 0.950 . S
H1853 C1831 0.950 . S
C1854 C1855 1.349 . S
C1854 C1856 1.327 . S
C1854 H1879 0.950 . S
C1855 C1854 1.349 . S
C1855 C1871 1.349 . S
C1856 C1854 1.327 . S
C1856 C1875 1.429 1_455 S
C1856 H1880 0.950 1_455 S
C1857 C1874 1.574 . S
C1857 C1876 1.368 . S
C1857 H1881 0.949 . S
H1858 C1862 0.949 . S
C1859 C1860 1.349 . S
C1859 C1861 1.327 . S
C1859 H1882 0.950 . S
C1860 C1859 1.349 . S
C1860 C1872 1.349 . S
C1861 C1859 1.327 . S
C1861 C1877 1.429 . S
C1861 H1883 0.950 . S
C1862 H1858 0.949 . S
C1862 C1870 1.574 . S
C1862 C1878 1.368 . S
H1863 C1871 0.950 . S
H1864 C1869 0.950 . S
H1865 C1870 0.949 . S
H1866 C1872 0.950 . S
H1867 C1873 0.950 . S
H1868 C1874 0.949 . S
C1869 H1864 0.950 . S
C1869 C1871 1.327 1_655 S
C1869 C1875 1.429 . S
C1870 C1862 1.574 . S
C1870 H1865 0.949 . S
C1870 C1876 1.368 . S
C1871 C1855 1.349 . S
C1871 H1863 0.950 . S
C1871 C1869 1.327 1_455 S
C1872 C1860 1.349 . S
C1872 H1866 0.950 . S
C1872 C1873 1.327 . S
C1873 H1867 0.950 . S
C1873 C1872 1.327 . S
C1873 C1877 1.429 . S
C1874 C1857 1.574 . S
C1874 H1868 0.949 . S
C1874 C1878 1.368 . S
C1875 C1856 1.429 1_655 S
C1875 C1869 1.429 . S
C1875 C1876 1.523 . S
C1876 C1857 1.368 . S
C1876 C1870 1.368 . S
C1876 C1875 1.523 . S
C1877 C1861 1.429 . S
C1877 C1873 1.429 . S
C1877 C1878 1.523 . S
C1878 C1862 1.368 . S
C1878 C1874 1.368 . S
C1878 C1877 1.523 . S
H1879 C1854 0.950 . S
H1880 C1856 0.950 1_655 S
H1881 C1857 0.949 . S
H1882 C1859 0.950 . S
H1883 C1861 0.950 . S
C1884 C1885 1.349 . S
C1884 C1886 1.327 . S
C1884 H1909 0.950 . S
C1885 C1884 1.349 . S
C1885 C1901 1.349 . S
C1886 C1884 1.327 . S
C1886 C1905 1.429 . S
C1886 H1910 0.950 . S
C1887 C1904 1.574 . S
C1887 C1906 1.368 . S
C1887 H1911 0.949 . S
H1888 C1892 0.949 . S
C1889 C1890 1.349 . S
C1889 C1891 1.327 . S
C1889 H1912 0.950 . S
C1890 C1889 1.349 . S
C1890 C1902 1.349 . S
C1891 C1889 1.327 . S
C1891 C1907 1.429 . S
C1891 H1913 0.950 . S
C1892 H1888 0.949 . S
C1892 C1900 1.574 . S
C1892 C1908 1.368 . S
H1893 C1901 0.950 . S
H1894 C1899 0.950 . S
H1895 C1900 0.949 . S
H1896 C1902 0.950 . S
H1897 C1903 0.950 . S
H1898 C1904 0.949 . S
C1899 H1894 0.950 . S
C1899 C1901 1.327 . S
C1899 C1905 1.429 . S
C1900 C1892 1.574 . S
C1900 H1895 0.949 . S
C1900 C1906 1.368 . S
C1901 C1885 1.349 . S
C1901 H1893 0.950 . S
C1901 C1899 1.327 . S
C1902 C1890 1.349 . S
C1902 H1896 0.950 . S
C1902 C1903 1.327 . S
C1903 H1897 0.950 . S
C1903 C1902 1.327 . S
C1903 C1907 1.429 . S
C1904 C1887 1.574 . S
C1904 H1898 0.949 . S
C1904 C1908 1.368 . S
C1905 C1886 1.429 . S
C1905 C1899 1.429 . S
C1905 C1906 1.523 . S
C1906 C1887 1.368 . S
C1906 C1900 1.368 . S
C1906 C1905 1.523 . S
C1907 C1891 1.429 . S
C1907 C1903 1.429 . S
C1907 C1908 1.523 . S
C1908 C1892 1.368 . S
C1908 C1904 1.368 . S
C1908 C1907 1.523 . S
H1909 C1884 0.950 . S
H1910 C1886 0.950 . S
H1911 C1887 0.949 . S
H1912 C1889 0.950 . S
H1913 C1891 0.950 . S
C1914 C1915 1.349 . S
C1914 C1916 1.327 . S
C1914 H1939 0.950 . S
C1915 C1914 1.349 . S
C1915 C1931 1.349 . S
C1916 C1914 1.327 . S
C1916 C1935 1.429 . S
C1916 H1940 0.950 . S
C1917 C1934 1.574 . S
C1917 C1936 1.368 . S
C1917 H1941 0.949 . S
H1918 C1922 0.949 . S
C1919 C1920 1.349 . S
C1919 C1921 1.327 . S
C1919 H1942 0.950 . S
C1920 C1919 1.349 . S
C1920 C1932 1.349 . S
C1921 C1919 1.327 . S
C1921 C1937 1.429 . S
C1921 H1943 0.950 . S
C1922 H1918 0.949 . S
C1922 C1930 1.574 . S
C1922 C1938 1.368 . S
H1923 C1931 0.950 . S
H1924 C1929 0.950 . S
H1925 C1930 0.949 . S
H1926 C1932 0.950 . S
H1927 C1933 0.950 . S
H1928 C1934 0.949 . S
C1929 H1924 0.950 . S
C1929 C1931 1.327 . S
C1929 C1935 1.429 . S
C1930 C1922 1.574 . S
C1930 H1925 0.949 . S
C1930 C1936 1.368 . S
C1931 C1915 1.349 . S
C1931 H1923 0.950 . S
C1931 C1929 1.327 . S
C1932 C1920 1.349 . S
C1932 H1926 0.950 . S
C1932 C1933 1.327 . S
C1933 H1927 0.950 . S
C1933 C1932 1.327 . S
C1933 C1937 1.429 . S
C1934 C1917 1.574 . S
C1934 H1928 0.949 . S
C1934 C1938 1.368 . S
C1935 C1916 1.429 . S
C1935 C1929 1.429 . S
C1935 C1936 1.523 1_565 S
C1936 C1917 1.368 . S
C1936 C1930 1.368 . S
C1936 C1935 1.523 1_545 S
C1937 C1921 1.429 . S
C1937 C1933 1.429 . S
C1937 C1938 1.523 . S
C1938 C1922 1.368 . S
C1938 C1934 1.368 . S
C1938 C1937 1.523 . S
H1939 C1914 0.950 . S
H1940 C1916 0.950 . S
H1941 C1917 0.949 . S
H1942 C1919 0.950 . S
H1943 C1921 0.950 . S
C1944 C1945 1.349 . S
C1944 C1946 1.327 . S
C1944 H1969 0.950 . S
C1945 C1944 1.349 . S
C1945 C1961 1.349 . S
C1946 C1944 1.327 . S
C1946 C1965 1.429 . S
C1946 H1970 0.950 . S
C1947 C1964 1.574 . S
C1947 C1966 1.368 . S
C1947 H1971 0.949 . S
H1948 C1952 0.949 . S
C1949 C1950 1.349 . S
C1949 C1951 1.327 . S
C1949 H1972 0.950 . S
C1950 C1949 1.349 . S
C1950 C1962 1.349 . S
C1951 C1949 1.327 . S
C1951 C1967 1.429 . S
C1951 H1973 0.950 . S
C1952 H1948 0.949 . S
C1952 C1960 1.574 . S
C1952 C1968 1.368 . S
H1953 C1961 0.950 . S
H1954 C1959 0.950 . S
H1955 C1960 0.949 . S
H1956 C1962 0.950 . S
H1957 C1963 0.950 . S
H1958 C1964 0.949 . S
C1959 H1954 0.950 . S
C1959 C1961 1.327 . S
C1959 C1965 1.429 . S
C1960 C1952 1.574 . S
C1960 H1955 0.949 . S
C1960 C1966 1.368 . S
C1961 C1945 1.349 . S
C1961 H1953 0.950 . S
C1961 C1959 1.327 . S
C1962 C1950 1.349 . S
C1962 H1956 0.950 . S
C1962 C1963 1.327 . S
C1963 H1957 0.950 . S
C1963 C1962 1.327 . S
C1963 C1967 1.429 . S
C1964 C1947 1.574 . S
C1964 H1958 0.949 . S
C1964 C1968 1.368 . S
C1965 C1946 1.429 . S
C1965 C1959 1.429 . S
C1965 C1966 1.523 . S
C1966 C1947 1.368 . S
C1966 C1960 1.368 . S
C1966 C1965 1.523 . S
C1967 C1951 1.429 . S
C1967 C1963 1.429 . S
C1967 C1968 1.523 . S
C1968 C1952 1.368 . S
C1968 C1964 1.368 . S
C1968 C1967 1.523 . S
H1969 C1944 0.950 . S
H1970 C1946 0.950 . S
H1971 C1947 0.949 . S
H1972 C1949 0.950 . S
H1973 C1951 0.950 . S
C1974 C1975 1.349 . S
C1974 C1976 1.327 . S
C1974 H1999 0.950 . S
C1975 C1974 1.349 . S
C1975 C1991 1.349 . S
C1976 C1974 1.327 . S
C1976 C1995 1.429 . S
C1976 H2000 0.950 . S
C1977 C1994 1.574 . S
C1977 C1996 1.368 . S
C1977 H2001 0.949 . S
H1978 C1982 0.949 . S
C1979 C1980 1.349 . S
C1979 C1981 1.327 . S
C1979 H2002 0.950 . S
C1980 C1979 1.349 . S
C1980 C1992 1.349 . S
C1981 C1979 1.327 . S
C1981 C1997 1.429 . S
C1981 H2003 0.950 . S
C1982 H1978 0.949 . S
C1982 C1990 1.574 . S
C1982 C1998 1.368 . S
H1983 C1991 0.950 . S
H1984 C1989 0.950 . S
H1985 C1990 0.949 . S
H1986 C1992 0.950 . S
H1987 C1993 0.950 . S
H1988 C1994 0.949 . S
C1989 H1984 0.950 . S
C1989 C1991 1.327 . S
C1989 C1995 1.429 . S
C1990 C1982 1.574 . S
C1990 H1985 0.949 . S
C1990 C1996 1.368 . S
C1991 C1975 1.349 . S
C1991 H1983 0.950 . S
C1991 C1989 1.327 . S
C1992 C1980 1.349 . S
C1992 H1986 0.950 . S
C1992 C1993 1.327 . S
C1993 H1987 0.950 . S
C1993 C1992 1.327 . S
C1993 C1997 1.429 . S
C1994 C1977 1.574 . S
C1994 H1988 0.949 . S
C1994 C1998 1.368 . S
C1995 C1976 1.429 . S
C1995 C1989 1.429 . S
C1995 C1996 1.523 . S
C1996 C1977 1.368 . S
C1996 C1990 1.368 . S
C1996 C1995 1.523 . S
C1997 C1981 1.429 . S
C1997 C1993 1.429 . S
C1997 C1998 1.523 . S
C1998 C1982 1.368 . S
C1998 C1994 1.368 . S
C1998 C1997 1.523 . S
H1999 C1974 0.950 . S
H2000 C1976 0.950 . S
H2001 C1977 0.949 . S
H2002 C1979 0.950 . S
H2003 C1981 0.950 . S
C2004 C2005 1.349 . S
C2004 C2006 1.327 . S
C2004 H2029 0.950 . S
C2005 C2004 1.349 . S
C2005 C2021 1.349 . S
C2006 C2004 1.327 . S
C2006 C2025 1.429 . S
C2006 H2030 0.950 . S
C2007 C2024 1.574 . S
C2007 C2026 1.368 . S
C2007 H2031 0.949 . S
H2008 C2012 0.949 . S
C2009 C2010 1.349 . S
C2009 C2011 1.327 . S
C2009 H2032 0.950 . S
C2010 C2009 1.349 . S
C2010 C2022 1.349 . S
C2011 C2009 1.327 . S
C2011 C2027 1.429 . S
C2011 H2033 0.950 . S
C2012 H2008 0.949 . S
C2012 C2020 1.574 . S
C2012 C2028 1.368 . S
H2013 C2021 0.950 . S
H2014 C2019 0.950 . S
H2015 C2020 0.949 . S
H2016 C2022 0.950 . S
H2017 C2023 0.950 . S
H2018 C2024 0.949 . S
C2019 H2014 0.950 . S
C2019 C2021 1.327 . S
C2019 C2025 1.429 . S
C2020 C2012 1.574 . S
C2020 H2015 0.949 . S
C2020 C2026 1.368 . S
C2021 C2005 1.349 . S
C2021 H2013 0.950 . S
C2021 C2019 1.327 . S
C2022 C2010 1.349 . S
C2022 H2016 0.950 . S
C2022 C2023 1.327 . S
C2023 H2017 0.950 . S
C2023 C2022 1.327 . S
C2023 C2027 1.429 . S
C2024 C2007 1.574 . S
C2024 H2018 0.949 . S
C2024 C2028 1.368 . S
C2025 C2006 1.429 . S
C2025 C2019 1.429 . S
C2025 C2026 1.523 . S
C2026 C2007 1.368 . S
C2026 C2020 1.368 . S
C2026 C2025 1.523 . S
C2027 C2011 1.429 . S
C2027 C2023 1.429 . S
C2027 C2028 1.523 . S
C2028 C2012 1.368 . S
C2028 C2024 1.368 . S
C2028 C2027 1.523 . S
H2029 C2004 0.950 . S
H2030 C2006 0.950 . S
H2031 C2007 0.949 . S
H2032 C2009 0.950 . S
H2033 C2011 0.950 . S
C2034 C2035 1.349 . S
C2034 C2036 1.327 . S
C2034 H2059 0.950 . S
C2035 C2034 1.349 . S
C2035 C2051 1.349 . S
C2036 C2034 1.327 . S
C2036 C2055 1.429 . S
C2036 H2060 0.950 . S
C2037 C2054 1.574 . S
C2037 C2056 1.368 . S
C2037 H2061 0.949 . S
H2038 C2042 0.949 . S
C2039 C2040 1.349 . S
C2039 C2041 1.327 . S
C2039 H2062 0.950 . S
C2040 C2039 1.349 . S
C2040 C2052 1.349 . S
C2041 C2039 1.327 . S
C2041 C2057 1.429 . S
C2041 H2063 0.950 . S
C2042 H2038 0.949 . S
C2042 C2050 1.574 . S
C2042 C2058 1.368 . S
H2043 C2051 0.950 . S
H2044 C2049 0.950 . S
H2045 C2050 0.949 . S
H2046 C2052 0.950 . S
H2047 C2053 0.950 . S
H2048 C2054 0.949 . S
C2049 H2044 0.950 . S
C2049 C2051 1.327 . S
C2049 C2055 1.429 . S
C2050 C2042 1.574 . S
C2050 H2045 0.949 . S
C2050 C2056 1.368 . S
C2051 C2035 1.349 . S
C2051 H2043 0.950 . S
C2051 C2049 1.327 . S
C2052 C2040 1.349 . S
C2052 H2046 0.950 . S
C2052 C2053 1.327 . S
C2053 H2047 0.950 . S
C2053 C2052 1.327 . S
C2053 C2057 1.429 . S
C2054 C2037 1.574 . S
C2054 H2048 0.949 . S
C2054 C2058 1.368 . S
C2055 C2036 1.429 . S
C2055 C2049 1.429 . S
C2055 C2056 1.523 . S
C2056 C2037 1.368 . S
C2056 C2050 1.368 . S
C2056 C2055 1.523 . S
C2057 C2041 1.429 . S
C2057 C2053 1.429 . S
C2057 C2058 1.523 . S
C2058 C2042 1.368 . S
C2058 C2054 1.368 . S
C2058 C2057 1.523 . S
H2059 C2034 0.950 . S
H2060 C2036 0.950 . S
H2061 C2037 0.949 . S
H2062 C2039 0.950 . S
H2063 C2041 0.950 . S
C2064 C2065 1.349 . S
C2064 C2066 1.327 . S
C2064 H2089 0.950 . S
C2065 C2064 1.349 . S
C2065 C2081 1.349 . S
C2066 C2064 1.327 . S
C2066 C2085 1.429 . S
C2066 H2090 0.950 . S
C2067 C2084 1.574 . S
C2067 C2086 1.368 . S
C2067 H2091 0.949 . S
H2068 C2072 0.949 . S
C2069 C2070 1.349 . S
C2069 C2071 1.327 . S
C2069 H2092 0.950 . S
C2070 C2069 1.349 . S
C2070 C2082 1.349 . S
C2071 C2069 1.327 . S
C2071 C2087 1.429 . S
C2071 H2093 0.950 . S
C2072 H2068 0.949 . S
C2072 C2080 1.574 . S
C2072 C2088 1.368 . S
H2073 C2081 0.950 . S
H2074 C2079 0.950 . S
H2075 C2080 0.949 . S
H2076 C2082 0.950 . S
H2077 C2083 0.950 . S
H2078 C2084 0.949 . S
C2079 H2074 0.950 . S
C2079 C2081 1.327 . S
C2079 C2085 1.429 . S
C2080 C2072 1.574 . S
C2080 H2075 0.949 . S
C2080 C2086 1.368 . S
C2081 C2065 1.349 . S
C2081 H2073 0.950 . S
C2081 C2079 1.327 . S
C2082 C2070 1.349 . S
C2082 H2076 0.950 . S
C2082 C2083 1.327 . S
C2083 H2077 0.950 . S
C2083 C2082 1.327 . S
C2083 C2087 1.429 . S
C2084 C2067 1.574 . S
C2084 H2078 0.949 . S
C2084 C2088 1.368 . S
C2085 C2066 1.429 . S
C2085 C2079 1.429 . S
C2085 C2086 1.523 . S
C2086 C2067 1.368 . S
C2086 C2080 1.368 . S
C2086 C2085 1.523 . S
C2087 C2071 1.429 . S
C2087 C2083 1.429 . S
C2087 C2088 1.523 . S
C2088 C2072 1.368 . S
C2088 C2084 1.368 . S
C2088 C2087 1.523 . S
H2089 C2064 0.950 . S
H2090 C2066 0.950 . S
H2091 C2067 0.949 . S
H2092 C2069 0.950 . S
H2093 C2071 0.950 . S
C2094 C2095 1.349 . S
C2094 C2096 1.327 . S
C2094 H2119 0.950 . S
C2095 C2094 1.349 . S
C2095 C2111 1.349 . S
C2096 C2094 1.327 . S
C2096 C2115 1.429 . S
C2096 H2120 0.950 . S
C2097 C2114 1.574 . S
C2097 C2116 1.368 . S
C2097 H2121 0.949 . S
H2098 C2102 0.949 . S
C2099 C2100 1.349 . S
C2099 C2101 1.327 . S
C2099 H2122 0.950 . S
C2100 C2099 1.349 . S
C2100 C2112 1.349 . S
C2101 C2099 1.327 . S
C2101 C2117 1.429 . S
C2101 H2123 0.950 . S
C2102 H2098 0.949 . S
C2102 C2110 1.574 . S
C2102 C2118 1.368 . S
H2103 C2111 0.950 . S
H2104 C2109 0.950 . S
H2105 C2110 0.949 . S
H2106 C2112 0.950 . S
H2107 C2113 0.950 . S
H2108 C2114 0.949 . S
C2109 H2104 0.950 . S
C2109 C2111 1.327 . S
C2109 C2115 1.429 . S
C2110 C2102 1.574 . S
C2110 H2105 0.949 . S
C2110 C2116 1.368 . S
C2111 C2095 1.349 . S
C2111 H2103 0.950 . S
C2111 C2109 1.327 . S
C2112 C2100 1.349 . S
C2112 H2106 0.950 . S
C2112 C2113 1.327 . S
C2113 H2107 0.950 . S
C2113 C2112 1.327 . S
C2113 C2117 1.429 . S
C2114 C2097 1.574 . S
C2114 H2108 0.949 . S
C2114 C2118 1.368 . S
C2115 C2096 1.429 . S
C2115 C2109 1.429 . S
C2115 C2116 1.523 . S
C2116 C2097 1.368 . S
C2116 C2110 1.368 . S
C2116 C2115 1.523 . S
C2117 C2101 1.429 . S
C2117 C2113 1.429 . S
C2117 C2118 1.523 . S
C2118 C2102 1.368 . S
C2118 C2114 1.368 . S
C2118 C2117 1.523 . S
H2119 C2094 0.950 . S
H2120 C2096 0.950 . S
H2121 C2097 0.949 . S
H2122 C2099 0.950 . S
H2123 C2101 0.950 . S
C2124 C2125 1.349 . S
C2124 C2126 1.327 . S
C2124 H2149 0.950 . S
C2125 C2124 1.349 . S
C2125 C2141 1.349 . S
C2126 C2124 1.327 . S
C2126 C2145 1.429 . S
C2126 H2150 0.950 . S
C2127 C2144 1.574 . S
C2127 C2146 1.368 . S
C2127 H2151 0.949 . S
H2128 C2132 0.949 . S
C2129 C2130 1.349 . S
C2129 C2131 1.327 . S
C2129 H2152 0.950 . S
C2130 C2129 1.349 . S
C2130 C2142 1.349 . S
C2131 C2129 1.327 . S
C2131 C2147 1.429 . S
C2131 H2153 0.950 . S
C2132 H2128 0.949 . S
C2132 C2140 1.574 . S
C2132 C2148 1.368 . S
H2133 C2141 0.950 . S
H2134 C2139 0.950 . S
H2135 C2140 0.949 . S
H2136 C2142 0.950 . S
H2137 C2143 0.950 . S
H2138 C2144 0.949 . S
C2139 H2134 0.950 . S
C2139 C2141 1.327 . S
C2139 C2145 1.429 . S
C2140 C2132 1.574 . S
C2140 H2135 0.949 . S
C2140 C2146 1.368 . S
C2141 C2125 1.349 . S
C2141 H2133 0.950 . S
C2141 C2139 1.327 . S
C2142 C2130 1.349 . S
C2142 H2136 0.950 . S
C2142 C2143 1.327 . S
C2143 H2137 0.950 . S
C2143 C2142 1.327 . S
C2143 C2147 1.429 . S
C2144 C2127 1.574 . S
C2144 H2138 0.949 . S
C2144 C2148 1.368 . S
C2145 C2126 1.429 . S
C2145 C2139 1.429 . S
C2145 C2146 1.523 . S
C2146 C2127 1.368 . S
C2146 C2140 1.368 . S
C2146 C2145 1.523 . S
C2147 C2131 1.429 . S
C2147 C2143 1.429 . S
C2147 C2148 1.523 . S
C2148 C2132 1.368 . S
C2148 C2144 1.368 . S
C2148 C2147 1.523 . S
H2149 C2124 0.950 . S
H2150 C2126 0.950 . S
H2151 C2127 0.949 . S
H2152 C2129 0.950 . S
H2153 C2131 0.950 . S
C2154 C2155 1.349 . S
C2154 C2156 1.327 . S
C2154 H2179 0.950 . S
C2155 C2154 1.349 . S
C2155 C2171 1.349 . S
C2156 C2154 1.327 . S
C2156 C2175 1.429 . S
C2156 H2180 0.950 . S
C2157 C2174 1.574 . S
C2157 C2176 1.368 . S
C2157 H2181 0.949 . S
H2158 C2162 0.949 . S
C2159 C2160 1.349 . S
C2159 C2161 1.327 . S
C2159 H2182 0.950 . S
C2160 C2159 1.349 . S
C2160 C2172 1.349 . S
C2161 C2159 1.327 . S
C2161 C2177 1.429 . S
C2161 H2183 0.950 . S
C2162 H2158 0.949 . S
C2162 C2170 1.574 . S
C2162 C2178 1.368 . S
H2163 C2171 0.950 . S
H2164 C2169 0.950 . S
H2165 C2170 0.949 . S
H2166 C2172 0.950 . S
H2167 C2173 0.950 . S
H2168 C2174 0.949 . S
C2169 H2164 0.950 . S
C2169 C2171 1.327 . S
C2169 C2175 1.429 . S
C2170 C2162 1.574 . S
C2170 H2165 0.949 . S
C2170 C2176 1.368 . S
C2171 C2155 1.349 . S
C2171 H2163 0.950 . S
C2171 C2169 1.327 . S
C2172 C2160 1.349 . S
C2172 H2166 0.950 . S
C2172 C2173 1.327 . S
C2173 H2167 0.950 . S
C2173 C2172 1.327 . S
C2173 C2177 1.429 . S
C2174 C2157 1.574 . S
C2174 H2168 0.949 . S
C2174 C2178 1.368 . S
C2175 C2156 1.429 . S
C2175 C2169 1.429 . S
C2175 C2176 1.523 . S
C2176 C2157 1.368 . S
C2176 C2170 1.368 . S
C2176 C2175 1.523 . S
C2177 C2161 1.429 . S
C2177 C2173 1.429 . S
C2177 C2178 1.523 . S
C2178 C2162 1.368 . S
C2178 C2174 1.368 . S
C2178 C2177 1.523 . S
H2179 C2154 0.950 . S
H2180 C2156 0.950 . S
H2181 C2157 0.949 . S
H2182 C2159 0.950 . S
H2183 C2161 0.950 . S
C2184 C2185 1.349 . S
C2184 C2186 1.327 . S
C2184 H2209 0.950 . S
C2185 C2184 1.349 . S
C2185 C2201 1.349 . S
C2186 C2184 1.327 . S
C2186 C2205 1.429 . S
C2186 H2210 0.950 . S
C2187 C2204 1.574 . S
C2187 C2206 1.368 . S
C2187 H2211 0.949 . S
H2188 C2192 0.949 . S
C2189 C2190 1.349 . S
C2189 C2191 1.327 . S
C2189 H2212 0.950 . S
C2190 C2189 1.349 . S
C2190 C2202 1.349 . S
C2191 C2189 1.327 . S
C2191 C2207 1.429 . S
C2191 H2213 0.950 . S
C2192 H2188 0.949 . S
C2192 C2200 1.574 . S
C2192 C2208 1.368 . S
H2193 C2201 0.950 . S
H2194 C2199 0.950 . S
H2195 C2200 0.949 . S
H2196 C2202 0.950 . S
H2197 C2203 0.950 . S
H2198 C2204 0.949 . S
C2199 H2194 0.950 . S
C2199 C2201 1.327 . S
C2199 C2205 1.429 . S
C2200 C2192 1.574 . S
C2200 H2195 0.949 . S
C2200 C2206 1.368 . S
C2201 C2185 1.349 . S
C2201 H2193 0.950 . S
C2201 C2199 1.327 . S
C2202 C2190 1.349 . S
C2202 H2196 0.950 . S
C2202 C2203 1.327 . S
C2203 H2197 0.950 . S
C2203 C2202 1.327 . S
C2203 C2207 1.429 . S
C2204 C2187 1.574 . S
C2204 H2198 0.949 . S
C2204 C2208 1.368 . S
C2205 C2186 1.429 . S
C2205 C2199 1.429 . S
C2205 C2206 1.523 . S
C2206 C2187 1.368 . S
C2206 C2200 1.368 . S
C2206 C2205 1.523 . S
C2207 C2191 1.429 . S
C2207 C2203 1.429 . S
C2207 C2208 1.523 . S
C2208 C2192 1.368 . S
C2208 C2204 1.368 . S
C2208 C2207 1.523 . S
H2209 C2184 0.950 . S
H2210 C2186 0.950 . S
H2211 C2187 0.949 . S
H2212 C2189 0.950 . S
H2213 C2191 0.950 . S
C2214 C2215 1.349 . S
C2214 C2216 1.327 . S
C2214 H2239 0.950 . S
C2215 C2214 1.349 . S
C2215 C2231 1.349 . S
C2216 C2214 1.327 . S
C2216 C2235 1.429 . S
C2216 H2240 0.950 . S
C2217 C2234 1.574 . S
C2217 C2236 1.368 . S
C2217 H2241 0.949 . S
H2218 C2222 0.949 . S
C2219 C2220 1.349 . S
C2219 C2221 1.327 . S
C2219 H2242 0.950 . S
C2220 C2219 1.349 . S
C2220 C2232 1.349 . S
C2221 C2219 1.327 . S
C2221 C2237 1.429 . S
C2221 H2243 0.950 . S
C2222 H2218 0.949 . S
C2222 C2230 1.574 . S
C2222 C2238 1.368 . S
H2223 C2231 0.950 . S
H2224 C2229 0.950 . S
H2225 C2230 0.949 . S
H2226 C2232 0.950 . S
H2227 C2233 0.950 . S
H2228 C2234 0.949 . S
C2229 H2224 0.950 . S
C2229 C2231 1.327 . S
C2229 C2235 1.429 . S
C2230 C2222 1.574 . S
C2230 H2225 0.949 . S
C2230 C2236 1.368 . S
C2231 C2215 1.349 . S
C2231 H2223 0.950 . S
C2231 C2229 1.327 . S
C2232 C2220 1.349 . S
C2232 H2226 0.950 . S
C2232 C2233 1.327 . S
C2233 H2227 0.950 . S
C2233 C2232 1.327 . S
C2233 C2237 1.429 . S
C2234 C2217 1.574 . S
C2234 H2228 0.949 . S
C2234 C2238 1.368 . S
C2235 C2216 1.429 . S
C2235 C2229 1.429 . S
C2235 C2236 1.523 . S
C2236 C2217 1.368 . S
C2236 C2230 1.368 . S
C2236 C2235 1.523 . S
C2237 C2221 1.429 . S
C2237 C2233 1.429 . S
C2237 C2238 1.523 . S
C2238 C2222 1.368 . S
C2238 C2234 1.368 . S
C2238 C2237 1.523 . S
H2239 C2214 0.950 . S
H2240 C2216 0.950 . S
H2241 C2217 0.949 . S
H2242 C2219 0.950 . S
H2243 C2221 0.950 . S
C2244 C2245 1.349 . S
C2244 C2246 1.327 . S
C2244 H2269 0.950 . S
C2245 C2244 1.349 . S
C2245 C2261 1.349 . S
C2246 C2244 1.327 . S
C2246 C2265 1.429 . S
C2246 H2270 0.950 . S
C2247 C2264 1.574 . S
C2247 C2266 1.368 . S
C2247 H2271 0.949 . S
H2248 C2252 0.949 . S
C2249 C2250 1.349 . S
C2249 C2251 1.327 . S
C2249 H2272 0.950 . S
C2250 C2249 1.349 . S
C2250 C2262 1.349 . S
C2251 C2249 1.327 . S
C2251 C2267 1.429 . S
C2251 H2273 0.950 . S
C2252 H2248 0.949 . S
C2252 C2260 1.574 . S
C2252 C2268 1.368 . S
H2253 C2261 0.950 . S
H2254 C2259 0.950 . S
H2255 C2260 0.949 . S
H2256 C2262 0.950 . S
H2257 C2263 0.950 . S
H2258 C2264 0.949 . S
C2259 H2254 0.950 . S
C2259 C2261 1.327 . S
C2259 C2265 1.429 . S
C2260 C2252 1.574 . S
C2260 H2255 0.949 . S
C2260 C2266 1.368 . S
C2261 C2245 1.349 . S
C2261 H2253 0.950 . S
C2261 C2259 1.327 . S
C2262 C2250 1.349 . S
C2262 H2256 0.950 . S
C2262 C2263 1.327 . S
C2263 H2257 0.950 . S
C2263 C2262 1.327 . S
C2263 C2267 1.429 . S
C2264 C2247 1.574 . S
C2264 H2258 0.949 . S
C2264 C2268 1.368 . S
C2265 C2246 1.429 . S
C2265 C2259 1.429 . S
C2265 C2266 1.523 . S
C2266 C2247 1.368 . S
C2266 C2260 1.368 . S
C2266 C2265 1.523 . S
C2267 C2251 1.429 . S
C2267 C2263 1.429 . S
C2267 C2268 1.523 . S
C2268 C2252 1.368 . S
C2268 C2264 1.368 . S
C2268 C2267 1.523 . S
H2269 C2244 0.950 . S
H2270 C2246 0.950 . S
H2271 C2247 0.949 . S
H2272 C2249 0.950 . S
H2273 C2251 0.950 . S
C2274 C2275 1.349 . S
C2274 C2276 1.327 . S
C2274 H2299 0.950 . S
C2275 C2274 1.349 . S
C2275 C2291 1.349 . S
C2276 C2274 1.327 . S
C2276 C2295 1.429 . S
C2276 H2300 0.950 . S
C2277 C2294 1.574 . S
C2277 C2296 1.368 . S
C2277 H2301 0.949 . S
H2278 C2282 0.949 . S
C2279 C2280 1.349 . S
C2279 C2281 1.327 . S
C2279 H2302 0.950 . S
C2280 C2279 1.349 . S
C2280 C2292 1.349 . S
C2281 C2279 1.327 . S
C2281 C2297 1.429 . S
C2281 H2303 0.950 . S
C2282 H2278 0.949 . S
C2282 C2290 1.574 . S
C2282 C2298 1.368 . S
H2283 C2291 0.950 . S
H2284 C2289 0.950 . S
H2285 C2290 0.949 . S
H2286 C2292 0.950 . S
H2287 C2293 0.950 . S
H2288 C2294 0.949 . S
C2289 H2284 0.950 . S
C2289 C2291 1.327 . S
C2289 C2295 1.429 . S
C2290 C2282 1.574 . S
C2290 H2285 0.949 . S
C2290 C2296 1.368 . S
C2291 C2275 1.349 . S
C2291 H2283 0.950 . S
C2291 C2289 1.327 . S
C2292 C2280 1.349 . S
C2292 H2286 0.950 . S
C2292 C2293 1.327 . S
C2293 H2287 0.950 . S
C2293 C2292 1.327 . S
C2293 C2297 1.429 . S
C2294 C2277 1.574 . S
C2294 H2288 0.949 . S
C2294 C2298 1.368 . S
C2295 C2276 1.429 . S
C2295 C2289 1.429 . S
C2295 C2296 1.523 . S
C2296 C2277 1.368 . S
C2296 C2290 1.368 . S
C2296 C2295 1.523 . S
C2297 C2281 1.429 . S
C2297 C2293 1.429 . S
C2297 C2298 1.523 . S
C2298 C2282 1.368 . S
C2298 C2294 1.368 . S
C2298 C2297 1.523 . S
H2299 C2274 0.950 . S
H2300 C2276 0.950 . S
H2301 C2277 0.949 . S
H2302 C2279 0.950 . S
H2303 C2281 0.950 . S
C2304 C2305 1.349 . S
C2304 C2306 1.327 . S
C2304 H2329 0.950 . S
C2305 C2304 1.349 . S
C2305 C2321 1.349 . S
C2306 C2304 1.327 . S
C2306 C2325 1.429 . S
C2306 H2330 0.950 . S
C2307 C2324 1.574 . S
C2307 C2326 1.368 . S
C2307 H2331 0.949 . S
H2308 C2312 0.949 . S
C2309 C2310 1.349 . S
C2309 C2311 1.327 . S
C2309 H2332 0.950 . S
C2310 C2309 1.349 . S
C2310 C2322 1.349 . S
C2311 C2309 1.327 . S
C2311 C2327 1.429 . S
C2311 H2333 0.950 . S
C2312 H2308 0.949 . S
C2312 C2320 1.574 . S
C2312 C2328 1.368 . S
H2313 C2321 0.950 . S
H2314 C2319 0.950 . S
H2315 C2320 0.949 . S
H2316 C2322 0.950 . S
H2317 C2323 0.950 . S
H2318 C2324 0.949 . S
C2319 H2314 0.950 . S
C2319 C2321 1.327 . S
C2319 C2325 1.429 . S
C2320 C2312 1.574 . S
C2320 H2315 0.949 . S
C2320 C2326 1.368 . S
C2321 C2305 1.349 . S
C2321 H2313 0.950 . S
C2321 C2319 1.327 . S
C2322 C2310 1.349 . S
C2322 H2316 0.950 . S
C2322 C2323 1.327 . S
C2323 H2317 0.950 . S
C2323 C2322 1.327 . S
C2323 C2327 1.429 . S
C2324 C2307 1.574 . S
C2324 H2318 0.949 . S
C2324 C2328 1.368 . S
C2325 C2306 1.429 . S
C2325 C2319 1.429 . S
C2325 C2326 1.523 . S
C2326 C2307 1.368 . S
C2326 C2320 1.368 . S
C2326 C2325 1.523 . S
C2327 C2311 1.429 . S
C2327 C2323 1.429 . S
C2327 C2328 1.523 . S
C2328 C2312 1.368 . S
C2328 C2324 1.368 . S
C2328 C2327 1.523 . S
H2329 C2304 0.950 . S
H2330 C2306 0.950 . S
H2331 C2307 0.949 . S
H2332 C2309 0.950 . S
H2333 C2311 0.950 . S
C2334 C2335 1.349 . S
C2334 C2336 1.327 . S
C2334 H2359 0.950 . S
C2335 C2334 1.349 . S
C2335 C2351 1.349 . S
C2336 C2334 1.327 . S
C2336 C2355 1.429 . S
C2336 H2360 0.950 . S
C2337 C2354 1.574 . S
C2337 C2356 1.368 . S
C2337 H2361 0.949 . S
H2338 C2342 0.949 . S
C2339 C2340 1.349 . S
C2339 C2341 1.327 . S
C2339 H2362 0.950 . S
C2340 C2339 1.349 . S
C2340 C2352 1.349 . S
C2341 C2339 1.327 . S
C2341 C2357 1.429 . S
C2341 H2363 0.950 . S
C2342 H2338 0.949 . S
C2342 C2350 1.574 . S
C2342 C2358 1.368 . S
H2343 C2351 0.950 . S
H2344 C2349 0.950 . S
H2345 C2350 0.949 . S
H2346 C2352 0.950 . S
H2347 C2353 0.950 . S
H2348 C2354 0.949 . S
C2349 H2344 0.950 . S
C2349 C2351 1.327 . S
C2349 C2355 1.429 . S
C2350 C2342 1.574 . S
C2350 H2345 0.949 . S
C2350 C2356 1.368 . S
C2351 C2335 1.349 . S
C2351 H2343 0.950 . S
C2351 C2349 1.327 . S
C2352 C2340 1.349 . S
C2352 H2346 0.950 . S
C2352 C2353 1.327 . S
C2353 H2347 0.950 . S
C2353 C2352 1.327 . S
C2353 C2357 1.429 . S
C2354 C2337 1.574 . S
C2354 H2348 0.949 . S
C2354 C2358 1.368 . S
C2355 C2336 1.429 . S
C2355 C2349 1.429 . S
C2355 C2356 1.523 . S
C2356 C2337 1.368 . S
C2356 C2350 1.368 . S
C2356 C2355 1.523 . S
C2357 C2341 1.429 . S
C2357 C2353 1.429 . S
C2357 C2358 1.523 . S
C2358 C2342 1.368 . S
C2358 C2354 1.368 . S
C2358 C2357 1.523 . S
H2359 C2334 0.950 . S
H2360 C2336 0.950 . S
H2361 C2337 0.949 . S
H2362 C2339 0.950 . S
H2363 C2341 0.950 . S
C2364 C2365 1.349 . S
C2364 C2366 1.327 . S
C2364 H2389 0.950 . S
C2365 C2364 1.349 . S
C2365 C2381 1.349 . S
C2366 C2364 1.327 . S
C2366 C2385 1.429 . S
C2366 H2390 0.950 . S
C2367 C2384 1.574 . S
C2367 C2386 1.368 . S
C2367 H2391 0.949 . S
H2368 C2372 0.949 . S
C2369 C2370 1.349 . S
C2369 C2371 1.327 . S
C2369 H2392 0.950 . S
C2370 C2369 1.349 . S
C2370 C2382 1.349 . S
C2371 C2369 1.327 . S
C2371 C2387 1.429 . S
C2371 H2393 0.950 . S
C2372 H2368 0.949 . S
C2372 C2380 1.574 . S
C2372 C2388 1.368 . S
H2373 C2381 0.950 . S
H2374 C2379 0.950 . S
H2375 C2380 0.949 . S
H2376 C2382 0.950 . S
H2377 C2383 0.950 . S
H2378 C2384 0.949 . S
C2379 H2374 0.950 . S
C2379 C2381 1.327 . S
C2379 C2385 1.429 . S
C2380 C2372 1.574 . S
C2380 H2375 0.949 . S
C2380 C2386 1.368 . S
C2381 C2365 1.349 . S
C2381 H2373 0.950 . S
C2381 C2379 1.327 . S
C2382 C2370 1.349 . S
C2382 H2376 0.950 . S
C2382 C2383 1.327 . S
C2383 H2377 0.950 . S
C2383 C2382 1.327 . S
C2383 C2387 1.429 . S
C2384 C2367 1.574 . S
C2384 H2378 0.949 . S
C2384 C2388 1.368 . S
C2385 C2366 1.429 . S
C2385 C2379 1.429 . S
C2385 C2386 1.523 . S
C2386 C2367 1.368 . S
C2386 C2380 1.368 . S
C2386 C2385 1.523 . S
C2387 C2371 1.429 . S
C2387 C2383 1.429 . S
C2387 C2388 1.523 . S
C2388 C2372 1.368 . S
C2388 C2384 1.368 . S
C2388 C2387 1.523 . S
H2389 C2364 0.950 . S
H2390 C2366 0.950 . S
H2391 C2367 0.949 . S
H2392 C2369 0.950 . S
H2393 C2371 0.950 . S
C2394 C2395 1.349 . S
C2394 C2396 1.327 . S
C2394 H2419 0.950 . S
C2395 C2394 1.349 . S
C2395 C2411 1.349 . S
C2396 C2394 1.327 . S
C2396 C2415 1.429 . S
C2396 H2420 0.950 . S
C2397 C2414 1.574 . S
C2397 C2416 1.368 . S
C2397 H2421 0.949 . S
H2398 C2402 0.949 . S
C2399 C2400 1.349 . S
C2399 C2401 1.327 . S
C2399 H2422 0.950 . S
C2400 C2399 1.349 . S
C2400 C2412 1.349 . S
C2401 C2399 1.327 . S
C2401 C2417 1.429 . S
C2401 H2423 0.950 . S
C2402 H2398 0.949 . S
C2402 C2410 1.574 . S
C2402 C2418 1.368 . S
H2403 C2411 0.950 . S
H2404 C2409 0.950 . S
H2405 C2410 0.949 . S
H2406 C2412 0.950 . S
H2407 C2413 0.950 . S
H2408 C2414 0.949 . S
C2409 H2404 0.950 . S
C2409 C2411 1.327 . S
C2409 C2415 1.429 . S
C2410 C2402 1.574 . S
C2410 H2405 0.949 . S
C2410 C2416 1.368 . S
C2411 C2395 1.349 . S
C2411 H2403 0.950 . S
C2411 C2409 1.327 . S
C2412 C2400 1.349 . S
C2412 H2406 0.950 . S
C2412 C2413 1.327 . S
C2413 H2407 0.950 . S
C2413 C2412 1.327 . S
C2413 C2417 1.429 . S
C2414 C2397 1.574 . S
C2414 H2408 0.949 . S
C2414 C2418 1.368 . S
C2415 C2396 1.429 . S
C2415 C2409 1.429 . S
C2415 C2416 1.523 . S
C2416 C2397 1.368 . S
C2416 C2410 1.368 . S
C2416 C2415 1.523 . S
C2417 C2401 1.429 . S
C2417 C2413 1.429 . S
C2417 C2418 1.523 . S
C2418 C2402 1.368 . S
C2418 C2414 1.368 . S
C2418 C2417 1.523 . S
H2419 C2394 0.950 . S
H2420 C2396 0.950 . S
H2421 C2397 0.949 . S
H2422 C2399 0.950 . S
H2423 C2401 0.950 . S
C2424 C2425 1.349 . S
C2424 C2426 1.327 . S
C2424 H2449 0.950 . S
C2425 C2424 1.349 . S
C2425 C2441 1.349 . S
C2426 C2424 1.327 . S
C2426 C2445 1.429 . S
C2426 H2450 0.950 . S
C2427 C2444 1.574 . S
C2427 C2446 1.368 . S
C2427 H2451 0.949 . S
H2428 C2432 0.949 . S
C2429 C2430 1.349 . S
C2429 C2431 1.327 . S
C2429 H2452 0.950 . S
C2430 C2429 1.349 . S
C2430 C2442 1.349 . S
C2431 C2429 1.327 . S
C2431 C2447 1.429 . S
C2431 H2453 0.950 . S
C2432 H2428 0.949 . S
C2432 C2440 1.574 . S
C2432 C2448 1.368 . S
H2433 C2441 0.950 . S
H2434 C2439 0.950 . S
H2435 C2440 0.949 . S
H2436 C2442 0.950 . S
H2437 C2443 0.950 . S
H2438 C2444 0.949 . S
C2439 H2434 0.950 . S
C2439 C2441 1.327 . S
C2439 C2445 1.429 . S
C2440 C2432 1.574 . S
C2440 H2435 0.949 . S
C2440 C2446 1.368 . S
C2441 C2425 1.349 . S
C2441 H2433 0.950 . S
C2441 C2439 1.327 . S
C2442 C2430 1.349 . S
C2442 H2436 0.950 . S
C2442 C2443 1.327 . S
C2443 H2437 0.950 . S
C2443 C2442 1.327 . S
C2443 C2447 1.429 . S
C2444 C2427 1.574 . S
C2444 H2438 0.949 . S
C2444 C2448 1.368 . S
C2445 C2426 1.429 . S
C2445 C2439 1.429 . S
C2445 C2446 1.523 . S
C2446 C2427 1.368 . S
C2446 C2440 1.368 . S
C2446 C2445 1.523 . S
C2447 C2431 1.429 . S
C2447 C2443 1.429 . S
C2447 C2448 1.523 . S
C2448 C2432 1.368 . S
C2448 C2444 1.368 . S
C2448 C2447 1.523 . S
H2449 C2424 0.950 . S
H2450 C2426 0.950 . S
H2451 C2427 0.949 . S
H2452 C2429 0.950 . S
H2453 C2431 0.950 . S
C2454 C2455 1.349 . S
C2454 C2456 1.327 . S
C2454 H2479 0.950 . S
C2455 C2454 1.349 . S
C2455 C2471 1.349 . S
C2456 C2454 1.327 . S
C2456 C2475 1.429 . S
C2456 H2480 0.950 . S
C2457 C2474 1.574 . S
C2457 C2476 1.368 . S
C2457 H2481 0.949 . S
H2458 C2462 0.949 . S
C2459 C2460 1.349 . S
C2459 C2461 1.327 . S
C2459 H2482 0.950 . S
C2460 C2459 1.349 . S
C2460 C2472 1.349 . S
C2461 C2459 1.327 . S
C2461 C2477 1.429 . S
C2461 H2483 0.950 . S
C2462 H2458 0.949 . S
C2462 C2470 1.574 . S
C2462 C2478 1.368 . S
H2463 C2471 0.950 . S
H2464 C2469 0.950 . S
H2465 C2470 0.949 . S
H2466 C2472 0.950 . S
H2467 C2473 0.950 . S
H2468 C2474 0.949 . S
C2469 H2464 0.950 . S
C2469 C2471 1.327 . S
C2469 C2475 1.429 . S
C2470 C2462 1.574 . S
C2470 H2465 0.949 . S
C2470 C2476 1.368 . S
C2471 C2455 1.349 . S
C2471 H2463 0.950 . S
C2471 C2469 1.327 . S
C2472 C2460 1.349 . S
C2472 H2466 0.950 . S
C2472 C2473 1.327 . S
C2473 H2467 0.950 . S
C2473 C2472 1.327 . S
C2473 C2477 1.429 . S
C2474 C2457 1.574 . S
C2474 H2468 0.949 . S
C2474 C2478 1.368 . S
C2475 C2456 1.429 . S
C2475 C2469 1.429 . S
C2475 C2476 1.523 . S
C2476 C2457 1.368 . S
C2476 C2470 1.368 . S
C2476 C2475 1.523 . S
C2477 C2461 1.429 . S
C2477 C2473 1.429 . S
C2477 C2478 1.523 . S
C2478 C2462 1.368 . S
C2478 C2474 1.368 . S
C2478 C2477 1.523 . S
H2479 C2454 0.950 . S
H2480 C2456 0.950 . S
H2481 C2457 0.949 . S
H2482 C2459 0.950 . S
H2483 C2461 0.950 . S
C2484 C2485 1.349 . S
C2484 C2486 1.327 . S
C2484 H2509 0.950 . S
C2485 C2484 1.349 . S
C2485 C2501 1.349 . S
C2486 C2484 1.327 . S
C2486 C2505 1.429 . S
C2486 H2510 0.950 . S
C2487 C2504 1.574 . S
C2487 C2506 1.368 . S
C2487 H2511 0.949 . S
H2488 C2492 0.949 . S
C2489 C2490 1.349 . S
C2489 C2491 1.327 . S
C2489 H2512 0.950 . S
C2490 C2489 1.349 . S
C2490 C2502 1.349 . S
C2491 C2489 1.327 . S
C2491 C2507 1.429 . S
C2491 H2513 0.950 . S
C2492 H2488 0.949 . S
C2492 C2500 1.574 . S
C2492 C2508 1.368 . S
H2493 C2501 0.950 . S
H2494 C2499 0.950 . S
H2495 C2500 0.949 . S
H2496 C2502 0.950 . S
H2497 C2503 0.950 . S
H2498 C2504 0.949 . S
C2499 H2494 0.950 . S
C2499 C2501 1.327 . S
C2499 C2505 1.429 . S
C2500 C2492 1.574 . S
C2500 H2495 0.949 . S
C2500 C2506 1.368 . S
C2501 C2485 1.349 . S
C2501 H2493 0.950 . S
C2501 C2499 1.327 . S
C2502 C2490 1.349 . S
C2502 H2496 0.950 . S
C2502 C2503 1.327 . S
C2503 H2497 0.950 . S
C2503 C2502 1.327 . S
C2503 C2507 1.429 . S
C2504 C2487 1.574 . S
C2504 H2498 0.949 . S
C2504 C2508 1.368 . S
C2505 C2486 1.429 . S
C2505 C2499 1.429 . S
C2505 C2506 1.523 . S
C2506 C2487 1.368 . S
C2506 C2500 1.368 . S
C2506 C2505 1.523 . S
C2507 C2491 1.429 . S
C2507 C2503 1.429 . S
C2507 C2508 1.523 . S
C2508 C2492 1.368 . S
C2508 C2504 1.368 . S
C2508 C2507 1.523 . S
H2509 C2484 0.950 . S
H2510 C2486 0.950 . S
H2511 C2487 0.949 . S
H2512 C2489 0.950 . S
H2513 C2491 0.950 . S
C2514 C2515 1.349 . S
C2514 C2516 1.327 . S
C2514 H2539 0.950 . S
C2515 C2514 1.349 . S
C2515 C2531 1.349 . S
C2516 C2514 1.327 . S
C2516 C2535 1.429 . S
C2516 H2540 0.950 . S
C2517 C2534 1.574 . S
C2517 C2536 1.368 . S
C2517 H2541 0.949 . S
H2518 C2522 0.949 . S
C2519 C2520 1.349 . S
C2519 C2521 1.327 . S
C2519 H2542 0.950 . S
C2520 C2519 1.349 . S
C2520 C2532 1.349 . S
C2521 C2519 1.327 . S
C2521 C2537 1.429 . S
C2521 H2543 0.950 . S
C2522 H2518 0.949 . S
C2522 C2530 1.574 . S
C2522 C2538 1.368 . S
H2523 C2531 0.950 . S
H2524 C2529 0.950 . S
H2525 C2530 0.949 . S
H2526 C2532 0.950 . S
H2527 C2533 0.950 . S
H2528 C2534 0.949 . S
C2529 H2524 0.950 . S
C2529 C2531 1.327 . S
C2529 C2535 1.429 . S
C2530 C2522 1.574 . S
C2530 H2525 0.949 . S
C2530 C2536 1.368 . S
C2531 C2515 1.349 . S
C2531 H2523 0.950 . S
C2531 C2529 1.327 . S
C2532 C2520 1.349 . S
C2532 H2526 0.950 . S
C2532 C2533 1.327 . S
C2533 H2527 0.950 . S
C2533 C2532 1.327 . S
C2533 C2537 1.429 . S
C2534 C2517 1.574 . S
C2534 H2528 0.949 . S
C2534 C2538 1.368 . S
C2535 C2516 1.429 . S
C2535 C2529 1.429 . S
C2535 C2536 1.523 . S
C2536 C2517 1.368 . S
C2536 C2530 1.368 . S
C2536 C2535 1.523 . S
C2537 C2521 1.429 . S
C2537 C2533 1.429 . S
C2537 C2538 1.523 . S
C2538 C2522 1.368 . S
C2538 C2534 1.368 . S
C2538 C2537 1.523 . S
H2539 C2514 0.950 . S
H2540 C2516 0.950 . S
H2541 C2517 0.949 . S
H2542 C2519 0.950 . S
H2543 C2521 0.950 . S
C2544 C2545 1.349 . S
C2544 C2546 1.327 . S
C2544 H2569 0.950 . S
C2545 C2544 1.349 . S
C2545 C2561 1.349 . S
C2546 C2544 1.327 . S
C2546 C2565 1.429 . S
C2546 H2570 0.950 . S
C2547 C2564 1.574 . S
C2547 C2566 1.368 . S
C2547 H2571 0.949 . S
H2548 C2552 0.949 . S
C2549 C2550 1.349 . S
C2549 C2551 1.327 . S
C2549 H2572 0.950 . S
C2550 C2549 1.349 . S
C2550 C2562 1.349 . S
C2551 C2549 1.327 . S
C2551 C2567 1.429 . S
C2551 H2573 0.950 . S
C2552 H2548 0.949 . S
C2552 C2560 1.574 . S
C2552 C2568 1.368 . S
H2553 C2561 0.950 . S
H2554 C2559 0.950 . S
H2555 C2560 0.949 . S
H2556 C2562 0.950 . S
H2557 C2563 0.950 . S
H2558 C2564 0.949 . S
C2559 H2554 0.950 . S
C2559 C2561 1.327 . S
C2559 C2565 1.429 . S
C2560 C2552 1.574 . S
C2560 H2555 0.949 . S
C2560 C2566 1.368 . S
C2561 C2545 1.349 . S
C2561 H2553 0.950 . S
C2561 C2559 1.327 . S
C2562 C2550 1.349 . S
C2562 H2556 0.950 . S
C2562 C2563 1.327 . S
C2563 H2557 0.950 . S
C2563 C2562 1.327 . S
C2563 C2567 1.429 . S
C2564 C2547 1.574 . S
C2564 H2558 0.949 . S
C2564 C2568 1.368 . S
C2565 C2546 1.429 . S
C2565 C2559 1.429 . S
C2565 C2566 1.523 . S
C2566 C2547 1.368 . S
C2566 C2560 1.368 . S
C2566 C2565 1.523 . S
C2567 C2551 1.429 . S
C2567 C2563 1.429 . S
C2567 C2568 1.523 . S
C2568 C2552 1.368 . S
C2568 C2564 1.368 . S
C2568 C2567 1.523 . S
H2569 C2544 0.950 . S
H2570 C2546 0.950 . S
H2571 C2547 0.949 . S
H2572 C2549 0.950 . S
H2573 C2551 0.950 . S
C955 C151 1.047 . S
C960 C265 1.020 . S
C985 C159 1.728 . S
C990 C349 1.837 . S
C1015 C137 1.292 . S
C1020 C429 1.435 . S
C1045 C126 1.249 . S
C1050 C345 1.402 1_556 S
C1080 C433 1.783 . S
C1075 C104 1.683 . S
C1105 C118 1.000 . S
C1110 C261 0.986 1_556 S
C1140 C254 1.330 . S
C1135 C129 1.386 . S
C1170 C338 1.557 . S
C1165 C107 1.630 . S
C1195 C115 1.250 . S
C1200 C440 1.433 . S
C1225 C148 1.233 . S
C1230 C356 1.398 . S
C1255 C162 1.575 . S
C1260 C422 1.498 . S
C1290 C272 1.322 . S
C1285 C140 1.344 . S
C1320 C517 1.020 . S
C1315 C19 1.047 . S
C1345 C27 1.728 . S
C1350 C601 1.837 . S
C1375 C5 1.292 . S
C1380 C681 1.435 . S
C1405 C192 1.249 . S
C1410 C597 1.402 . S
C1435 C170 1.683 . S
C1440 C685 1.783 . S
C1465 C184 1.000 . S
C1470 C513 1.000 . S
C1495 C195 1.386 . S
C1500 C506 1.330 . S
C1525 C173 1.631 . S
C1530 C590 1.557 . S
C1560 C692 1.433 . S
C1555 C181 1.250 . S
C1585 C16 1.233 . S
C1590 C608 1.397 . S
C1620 C674 1.498 . S
C1615 C30 1.575 . S
C1645 C8 1.344 . S
C1650 C524 1.322 . S
C1680 C769 1.020 . S
C1675 C85 1.046 . S
C1705 C93 1.728 . S
C1710 C853 1.837 . S
C1740 C933 1.435 . S
C1735 C71 1.292 . S
C1770 C849 1.402 . S
C1765 C60 1.249 . S
C1800 C937 1.783 . S
C1795 C38 1.683 . S
C1825 C52 1.000 . S
C1830 C765 1.000 . S
C1855 C63 1.386 . S
C1860 C758 1.330 . S
C1885 C41 1.630 . S
C1890 C842 1.557 . S
C1920 C944 1.433 . S
C1915 C49 1.250 . S
C1945 C82 1.233 . S
C1950 C860 1.398 . S
C1975 C96 1.575 . S
C1980 C926 1.498 . S
C2005 C74 1.344 . S
C2010 C776 1.322 . S
C2035 C172 1.627 . S
C2040 C268 1.514 . S
C2070 C352 1.179 . S
C2065 C183 1.269 . S
C2095 C194 1.468 . S
C2100 C424 1.338 . S
C2125 C73 1.514 . S
C2130 C340 1.371 . S
C2155 C84 1.229 . S
C2160 C436 1.145 . S
C2190 C256 1.495 . S
C2185 C95 1.616 . S
C2215 C40 1.627 . S
C2220 C520 1.514 . S
C2245 C51 1.269 . S
C2250 C604 1.179 . S
C2275 C62 1.468 . S
C2280 C676 1.338 . S
C2305 C139 1.514 . S
C2310 C592 1.371 . S
C2340 C688 1.145 . S
C2335 C150 1.229 . S
C2365 C161 1.616 . S
C2370 C508 1.495 . S
C2395 C106 1.627 . S
C2400 C772 1.514 . S
C2425 C117 1.269 . S
C2430 C856 1.179 . S
C2460 C928 1.338 . S
C2455 C128 1.468 . S
C2485 C7 1.514 . S
C2490 C844 1.371 . S
C2515 C18 1.230 . S
C2520 C940 1.145 . S
C2545 C29 1.616 . S
C2550 C760 1.495 . S
