# Generated by pormake.
# Topology bcu-b, (8,8)-cn, num edge types: 1
# Building blocks:
#     Node 0, Type 0, BuildingBlock: TAGTUT_clean_sbu_1, # of connection points: 8
#     Node 1, Type 1, BuildingBlock: TAGTUT_clean_sbu_3, # of connection points: 8
#     Edge 2, Type (0, 1), BuildingBlock: TEMPAE_clean_linker_10, # of connection points: 2
#     Edge 3, Type (0, 1), BuildingBlock: TEMPAE_clean_linker_10, # of connection points: 2
#     Edge 4, Type (0, 1), BuildingBlock: TEMPAE_clean_linker_10, # of connection points: 2
#     Edge 5, Type (0, 1), BuildingBlock: TEMPAE_clean_linker_10, # of connection points: 2
#     Edge 6, Type (0, 1), BuildingBlock: TEMPAE_clean_linker_10, # of connection points: 2
#     Edge 7, Type (0, 1), BuildingBlock: TEMPAE_clean_linker_10, # of connection points: 2
#     Edge 8, Type (0, 1), BuildingBlock: TEMPAE_clean_linker_10, # of connection points: 2
#     Edge 9, Type (0, 1), BuildingBlock: TEMPAE_clean_linker_10, # of connection points: 2
# Relax obj value: 0.017
# Max RMSD: 0.085
# Mean RMSD: 0.074
data_MOF--net-bcu-b--node1-TAGTUT_clean_sbu_1--node2-TAGTUT_clean_sbu_3--edge1-TEMPAE_clean_linker_10
_symmetry_space_group_name_H-M    P1
_symmetry_Int_Tables_number       1
_symmetry_cell_setting            triclinic
loop_
_symmetry_equiv_pos_as_xyz
'x, y, z'
_cell_length_a     20.018845
_cell_length_b     19.335125
_cell_length_c     21.416531
_cell_angle_alpha  90.953867
_cell_angle_beta   92.325974
_cell_angle_gamma 107.9935
loop_
_atom_site_label
_atom_site_type_symbol
_atom_site_fract_x
_atom_site_fract_y
_atom_site_fract_z
_atom_type_partial_charge
C0 C 0.85821 0.16395 0.05931 0.0
C1 C 0.94717 0.16747 0.87614 0.0
C2 C 0.87947 0.8774 0.90387 0.0
Mg3 Mg 0.0038 0.16572 0.01179 0.0
O4 O 0.95959 0.06511 0.01339 0.0
Mg5 Mg 0.8668 0.0247 0.9662 0.0
Mg6 Mg 0.0073 -0.0041 0.98159 0.0
O7 O 0.05445 0.92606 0.9503 0.0
Mg8 Mg 0.00704 0.82681 0.96033 0.0
Mg9 Mg 0.14768 0.96678 -0.00276 0.0
C10 C 0.13253 0.11392 0.06495 0.0
C11 C 0.13194 0.08312 0.89426 0.0
O12 O 0.82914 0.10635 0.02514 0.0
O13 O 0.92503 0.19487 0.06292 0.0
O14 O 0.89842 0.10897 0.88793 0.0
O15 O 0.99715 0.19751 0.91625 0.0
O16 O 0.10461 0.16487 0.05552 0.0
O17 O 0.10134 0.04767 0.04714 0.0
C18 C 0.88332 0.90942 0.06998 0.0
O19 O 0.94651 0.9186 0.05424 0.0
O20 O 0.84409 0.94336 0.04434 0.0
O21 O 0.18119 0.87841 0.93957 0.0
O22 O 0.08117 0.78861 0.91251 0.0
O23 O 0.11861 0.8879 0.07732 0.0
C24 C 0.14814 0.81674 0.91185 0.0
O25 O 0.01768 0.79957 0.05667 0.0
O26 O 0.90539 0.82588 0.9173 0.0
C27 C 0.07021 0.83178 0.09342 0.0
O28 O 0.91333 0.94448 0.91641 0.0
O29 O 0.06813 0.07299 0.90873 0.0
O30 O 0.17034 0.04814 0.91979 0.0
C31 C 0.6267 0.63426 0.5528 0.0
C32 C 0.72648 0.40879 0.57127 0.0
C33 C 0.61871 0.35087 0.38927 0.0
Mg34 Mg 0.48341 0.64114 0.47861 0.0
Mg35 Mg 0.34859 0.49271 0.47394 0.0
O36 O 0.44034 0.53739 0.44814 0.0
Mg37 Mg 0.51219 0.4949 0.48484 0.0
O38 O 0.58802 0.45786 0.52092 0.0
Mg39 Mg 0.66841 0.51228 0.46912 0.0
Mg40 Mg 0.56998 0.35666 0.5219 0.0
C41 C 0.39033 0.35757 0.41914 0.0
O42 O 0.44154 0.43592 0.56176 0.0
O43 O 0.39395 0.6641 0.41739 0.0
O44 O 0.46822 0.33057 0.5642 0.0
O45 O 0.41419 0.63211 0.56207 0.0
O46 O 0.30183 0.56123 0.42076 0.0
O47 O 0.34047 0.52036 0.57126 0.0
O48 O 0.58619 0.54835 0.41072 0.0
O49 O 0.55565 0.64901 0.39664 0.0
C50 C 0.59272 0.6079 0.38309 0.0
C51 C 0.32945 0.62677 0.40352 0.0
O52 O 0.4564 0.39182 0.42676 0.0
O53 O 0.73968 0.4642 0.53567 0.0
O54 O 0.34269 0.38342 0.43914 0.0
O55 O 0.65402 0.41767 0.39897 0.0
O56 O 0.66501 0.36276 0.57442 0.0
O57 O 0.57787 0.31479 0.42956 0.0
O58 O 0.56195 0.60048 0.53885 0.0
O59 O 0.67554 0.60869 0.53597 0.0
C60 C 0.36863 0.58549 0.5922 0.0
C61 C 0.4295 0.36994 0.5789 0.0
C62 C 0.21333 0.07799 0.14089 0.0
C63 C 0.19761 0.13162 0.10504 0.0
C64 C 0.26127 0.09767 0.19274 0.0
C65 C 0.29251 0.17222 0.20903 0.0
C66 C 0.28443 0.22577 0.16763 0.0
C67 C 0.23721 0.20465 0.11586 0.0
C68 C 0.27334 0.03908 0.23309 0.0
C69 C 0.31923 0.30604 0.18171 0.0
C70 C 0.29593 0.25333 0.36896 0.0
C71 C 0.36764 0.2915 0.37787 0.0
C72 C 0.27096 0.20595 0.31718 0.0
C73 C 0.31923 0.19575 0.27402 0.0
C74 C 0.39227 0.22506 0.28825 0.0
C75 C 0.41572 0.27346 0.3398 0.0
C76 C 0.19238 0.1747 0.30464 0.0
C77 C 0.44603 0.21211 0.24603 0.0
H78 H 0.18409 0.02117 0.13192 0.0
H79 H 0.22699 0.24606 0.08687 0.0
H80 H 0.26063 0.98626 0.20673 0.0
H81 H 0.32872 0.05476 0.2517 0.0
H82 H 0.23917 0.03135 0.27352 0.0
H83 H 0.31124 0.3401 0.14257 0.0
H84 H 0.29733 0.32275 0.22415 0.0
H85 H 0.37653 0.31748 0.19118 0.0
H86 H 0.25854 0.26517 0.3993 0.0
H87 H 0.47141 0.30151 0.34675 0.0
H88 H 0.17756 0.116 0.2917 0.0
H89 H 0.17589 0.20268 0.26479 0.0
H90 H 0.1626 0.18137 0.34577 0.0
H91 H 0.42348 0.16448 0.21359 0.0
H92 H 0.49019 0.20339 0.27447 0.0
H93 H 0.46839 0.26113 0.21821 0.0
C94 C 0.8442 0.23811 0.15151 0.0
C95 C 0.81354 0.19196 0.09996 0.0
C96 C 0.80268 0.25987 0.19404 0.0
C97 C 0.72857 0.23602 0.1843 0.0
C98 C 0.69721 0.19132 0.13135 0.0
C99 C 0.74006 0.16922 0.09004 0.0
C100 C 0.83821 0.30717 0.25028 0.0
C101 C 0.61849 0.16623 0.11882 0.0
C102 C 0.63568 0.24385 0.33351 0.0
C103 C 0.63086 0.3145 0.33181 0.0
C104 C 0.66312 0.21516 0.28352 0.0
C105 C 0.68481 0.25785 0.23049 0.0
C106 C 0.67351 0.32637 0.22628 0.0
C107 C 0.64741 0.35427 0.27739 0.0
C108 C 0.67468 0.14202 0.28999 0.0
C109 C 0.69403 0.37274 0.1699 0.0
H110 H 0.9008 0.25556 0.15987 0.0
H111 H 0.71593 0.13378 0.05016 0.0
H112 H 0.82513 0.35889 0.25022 0.0
H113 H 0.8187 0.27923 0.29386 0.0
H114 H 0.89634 0.32028 0.25139 0.0
H115 H 0.60264 0.13521 0.07366 0.0
H116 H 0.59262 0.13111 0.15691 0.0
H117 H 0.59843 0.21369 0.11824 0.0
H118 H 0.62296 0.21316 0.37567 0.0
H119 H 0.64278 0.40865 0.27583 0.0
H120 H 0.73176 0.15 0.29784 0.0
H121 H 0.65682 0.10822 0.24654 0.0
H122 H 0.64671 0.11176 0.32977 0.0
H123 H 0.75211 0.3963 0.17047 0.0
H124 H 0.67095 0.41814 0.16924 0.0
H125 H 0.67696 0.33944 0.12606 0.0
C126 C 0.86001 0.78875 0.11893 0.0
C127 C 0.85435 0.85912 0.11963 0.0
C128 C 0.82605 0.73828 0.16283 0.0
C129 C 0.78619 0.75948 0.20828 0.0
C130 C 0.78363 0.83188 0.21093 0.0
C131 C 0.81708 0.88058 0.16599 0.0
C132 C 0.82932 0.66145 0.15796 0.0
C133 C 0.74283 0.85712 0.25946 0.0
C134 C 0.62115 0.63789 0.27414 0.0
C135 C 0.64445 0.63154 0.33546 0.0
C136 C 0.6686 0.67338 0.23007 0.0
C137 C 0.74044 0.70517 0.24882 0.0
C138 C 0.76484 0.69432 0.30976 0.0
C139 C 0.71621 0.65687 0.35256 0.0
C140 C 0.64084 0.68198 0.165 0.0
C141 C 0.84093 0.72759 0.33143 0.0
H142 H 0.88765 0.77199 0.08208 0.0
H143 H 0.81333 0.93537 0.1665 0.0
H144 H 0.83578 0.64023 0.20487 0.0
H145 H 0.77922 0.62565 0.13582 0.0
H146 H 0.87312 0.65774 0.12918 0.0
H147 H 0.75237 0.91685 0.25916 0.0
H148 H 0.68571 0.82956 0.25041 0.0
H149 H 0.75726 0.84241 0.30686 0.0
H150 H 0.56535 0.61774 0.26143 0.0
H151 H 0.73358 0.65186 0.40043 0.0
H152 H 0.67537 0.67099 0.12945 0.0
H153 H 0.64036 0.73882 0.15969 0.0
H154 H 0.58651 0.64496 0.15522 0.0
H155 H 0.87631 0.71989 0.29525 0.0
H156 H 0.8535 0.70401 0.37566 0.0
H157 H 0.85217 0.78704 0.33949 0.0
C158 C 0.11526 0.84091 0.20395 0.0
C159 C 0.08336 0.79743 0.15135 0.0
C160 C 0.14634 0.81252 0.25294 0.0
C161 C 0.14814 0.74005 0.24754 0.0
C162 C 0.1115 0.69455 0.19655 0.0
C163 C 0.07833 0.72361 0.14948 0.0
C164 C 0.18178 0.86183 0.30795 0.0
C165 C 0.11327 0.61742 0.18832 0.0
C166 C 0.3113 0.70296 0.31565 0.0
C167 C 0.28455 0.65989 0.36623 0.0
C168 C 0.26731 0.72961 0.2768 0.0
C169 C 0.19553 0.71479 0.29032 0.0
C170 C 0.16913 0.67405 0.34313 0.0
C171 C 0.21372 0.64588 0.37984 0.0
C172 C 0.29718 0.77182 0.22022 0.0
C173 C 0.09386 0.65995 0.36059 0.0
H174 H 0.119 0.89811 0.2053 0.0
H175 H 0.05438 0.69033 0.10835 0.0
H176 H 0.16098 0.90857 0.31294 0.0
H177 H 0.17462 0.83172 0.35209 0.0
H178 H 0.23905 0.88362 0.3011 0.0
H179 H 0.07635 0.58712 0.14987 0.0
H180 H 0.16728 0.61836 0.17742 0.0
H181 H 0.09997 0.58736 0.23204 0.0
H182 H 0.36599 0.7134 0.30508 0.0
H183 H 0.19333 0.61321 0.41955 0.0
H184 H 0.29212 0.82727 0.22341 0.0
H185 H 0.26702 0.7446 0.17721 0.0
H186 H 0.3535 0.77677 0.21534 0.0
H187 H 0.0815 0.71201 0.36387 0.0
H188 H 0.08316 0.6323 0.40584 0.0
H189 H 0.05764 0.62549 0.32376 0.0
C190 C 0.25956 0.80641 0.86738 0.0
C191 C 0.18726 0.77664 0.87587 0.0
C192 C 0.29452 0.771 0.82836 0.0
C193 C 0.25613 0.70469 0.79687 0.0
C194 C 0.18422 0.67241 0.8081 0.0
C195 C 0.15081 0.70858 0.84746 0.0
C196 C 0.37168 0.80633 0.81832 0.0
C197 C 0.14127 0.60182 0.77545 0.0
C198 C 0.30883 0.66796 0.63504 0.0
C199 C 0.3395 0.61302 0.64554 0.0
C200 C 0.28245 0.69865 0.68414 0.0
C201 C 0.28782 0.67445 0.74562 0.0
C202 C 0.32017 0.61976 0.75675 0.0
C203 C 0.34555 0.58933 0.70623 0.0
C204 C 0.24794 0.75634 0.66993 0.0
C205 C 0.32736 0.59295 0.82166 0.0
H206 H 0.28846 0.85841 0.88961 0.0
H207 H 0.09518 0.68424 0.85424 0.0
H208 H 0.40047 0.76575 0.822 0.0
H209 H 0.37822 0.82801 0.77054 0.0
H210 H 0.39614 0.85182 0.85255 0.0
H211 H 0.08798 0.58021 0.79397 0.0
H212 H 0.13537 0.61067 0.72472 0.0
H213 H 0.16839 0.56 0.78045 0.0
H214 H 0.30501 0.68656 0.5879 0.0
H215 H 0.37121 0.54831 0.71432 0.0
H216 H 0.27497 0.8069 0.69772 0.0
H217 H 0.1924 0.73761 0.68341 0.0
H218 H 0.24887 0.76957 0.61963 0.0
H219 H 0.34692 0.63935 0.85582 0.0
H220 H 0.36356 0.55948 0.82396 0.0
H221 H 0.27505 0.55919 0.83616 0.0
C222 C 0.12254 0.1593 0.80254 0.0
C223 C 0.16381 0.13774 0.84809 0.0
C224 C 0.15433 0.20634 0.7554 0.0
C225 C 0.2286 0.23214 0.75458 0.0
C226 C 0.27001 0.21493 0.80335 0.0
C227 C 0.23712 0.16754 0.84917 0.0
C228 C 0.10891 0.22668 0.70559 0.0
C229 C 0.34941 0.24402 0.8057 0.0
C230 C 0.33609 0.26147 0.61271 0.0
C231 C 0.36839 0.33687 0.61658 0.0
C232 C 0.284 0.22729 0.65348 0.0
C233 C 0.26453 0.26954 0.69978 0.0
C234 C 0.2922 0.34637 0.70011 0.0
C235 C 0.34415 0.37922 0.65836 0.0
C236 C 0.25442 0.14529 0.65048 0.0
C237 C 0.27171 0.39438 0.74703 0.0
H238 H 0.06574 0.13731 0.80231 0.0
H239 H 0.26916 0.15287 0.88547 0.0
H240 H 0.12319 0.28681 0.70356 0.0
H241 H 0.11842 0.20613 0.65917 0.0
H242 H 0.05198 0.20432 0.71418 0.0
H243 H 0.37343 0.23011 0.84947 0.0
H244 H 0.36978 0.22113 0.76547 0.0
H245 H 0.36683 0.30409 0.80205 0.0
H246 H 0.35333 0.22874 0.57914 0.0
H247 H 0.3687 0.43757 0.66114 0.0
H248 H 0.19659 0.12772 0.65476 0.0
H249 H 0.27755 0.12265 0.69012 0.0
H250 H 0.26631 0.12166 0.60623 0.0
H251 H 0.25889 0.43918 0.72259 0.0
H252 H 0.31711 0.41956 0.78028 0.0
H253 H 0.22586 0.36486 0.77389 0.0
C254 C 0.97874 0.27966 0.81195 0.0
C255 C 0.93967 0.20618 0.81816 0.0
C256 C 0.96042 0.32152 0.76504 0.0
C257 C 0.90185 0.28904 0.72343 0.0
C258 C 0.86744 0.21314 0.72526 0.0
C259 C 0.88667 0.17271 0.77261 0.0
C260 C 0.99978 0.40179 0.7639 0.0
C261 C 0.80587 0.17566 0.68082 0.0
C262 C 0.77113 0.38578 0.67539 0.0
C263 C 0.78255 0.39597 0.61173 0.0
C264 C 0.81354 0.35632 0.71326 0.0
C265 C 0.86798 0.33498 0.68646 0.0
C266 C 0.88291 0.34984 0.62299 0.0
C267 C 0.8399 0.38052 0.5862 0.0
C268 C 0.7965 0.34305 0.78096 0.0
C269 C 0.94054 0.32833 0.59266 0.0
H270 H 0.02066 0.30593 0.84621 0.0
H271 H 0.85719 0.11562 0.77603 0.0
H272 H 0.00608 0.42075 0.71525 0.0
H273 H 0.96948 0.43264 0.7881 0.0
H274 H 0.0526 0.41496 0.78804 0.0
H275 H 0.79175 0.11544 0.68219 0.0
H276 H 0.75943 0.1917 0.69364 0.0
H277 H 0.81772 0.19251 0.6322 0.0
H278 H 0.72656 0.39763 0.69492 0.0
H279 H 0.84808 0.38755 0.53667 0.0
H280 H 0.84487 0.36383 0.81166 0.0
H281 H 0.77463 0.28369 0.78793 0.0
H282 H 0.75755 0.36948 0.79603 0.0
H283 H 0.98772 0.33897 0.62482 0.0
H284 H 0.95593 0.35778 0.5488 0.0
H285 H 0.9217 0.26913 0.58102 0.0
C286 C 0.77233 0.7854 0.85777 0.0
C287 C 0.81226 0.85861 0.86671 0.0
C288 C 0.72241 0.76333 0.80802 0.0
C289 C 0.71205 0.81615 0.76689 0.0
C290 C 0.74299 0.89093 0.78246 0.0
C291 C 0.79366 0.91155 0.83216 0.0
C292 C 0.68841 0.68279 0.79471 0.0
C293 C 0.72892 0.94909 0.74279 0.0
C294 C 0.71631 0.73817 0.6073 0.0
C295 C 0.64548 0.69792 0.59639 0.0
C296 C 0.73814 0.78496 0.65966 0.0
C297 C 0.68749 0.79216 0.7016 0.0
C298 C 0.61504 0.76033 0.6856 0.0
C299 C 0.59473 0.71269 0.63321 0.0
C300 C 0.81617 0.8195 0.67373 0.0
C301 C 0.55898 0.77065 0.72642 0.0
H302 H 0.78448 0.74448 0.88609 0.0
H303 H 0.82266 0.96864 0.8401 0.0
H304 H 0.63105 0.6704 0.78516 0.0
H305 H 0.71069 0.66593 0.75255 0.0
H306 H 0.69696 0.64955 0.83426 0.0
H307 H 0.73217 -0.00178 0.77193 0.0
H308 H 0.76946 0.96563 0.70747 0.0
H309 H 0.67644 0.92952 0.71795 0.0
H310 H 0.75551 0.72887 0.57761 0.0
H311 H 0.53956 0.68317 0.62417 0.0
H312 H 0.83286 0.7947 0.71555 0.0
H313 H 0.82837 0.87853 0.68415 0.0
H314 H 0.84796 0.81233 0.63422 0.0
H315 H 0.57824 0.82148 0.75564 0.0
H316 H 0.54162 0.72394 0.75771 0.0
H317 H 0.51211 0.77191 0.69737 0.0
loop_
_geom_bond_atom_site_label_1
_geom_bond_atom_site_label_2
_geom_bond_distance
_geom_bond_site_symmetry_2
_ccdc_geom_bond_type
C0 O12 1.241 . S
C0 O13 1.280 . S
C1 O14 1.277 . S
C1 O15 1.245 . S
C2 O26 1.247 . S
C2 O28 1.289 . S
Mg3 O4 1.926 . S
Mg3 O13 1.984 . S
Mg3 O15 1.988 1_554 S
Mg3 O16 2.061 1_655 S
O4 Mg3 1.926 . S
O4 Mg5 1.986 . S
O4 Mg6 1.917 1_655 S
Mg5 O4 1.986 . S
Mg5 O12 2.042 . S
Mg5 O14 2.041 1_554 S
Mg5 O20 2.038 1_545 S
Mg5 O28 2.238 1_544 S
Mg6 O4 1.917 1_455 S
Mg6 O7 1.917 1_544 S
Mg6 O17 2.106 . S
Mg6 O19 2.079 1_445 S
Mg6 O28 2.106 1_444 S
Mg6 O29 2.079 1_554 S
O7 Mg6 1.917 1_566 S
O7 Mg8 1.926 . S
O7 Mg9 1.989 1_556 S
Mg8 O7 1.926 . S
Mg8 O22 1.984 . S
Mg8 O25 1.988 1_556 S
Mg8 O26 2.061 1_455 S
Mg9 O7 1.989 1_554 S
Mg9 O17 2.231 1_565 S
Mg9 O21 2.049 1_554 S
Mg9 O23 2.046 . S
Mg9 O30 2.033 1_564 S
C10 O16 1.247 . S
C10 O17 1.289 . S
C11 O29 1.245 . S
C11 O30 1.274 . S
O12 C0 1.241 . S
O12 Mg5 2.042 . S
O13 C0 1.280 . S
O13 Mg3 1.984 . S
O14 C1 1.277 . S
O14 Mg5 2.041 1_556 S
O15 C1 1.245 . S
O15 Mg3 1.988 1_556 S
O16 Mg3 2.061 1_455 S
O16 C10 1.247 . S
O17 Mg6 2.106 . S
O17 Mg9 2.231 1_545 S
O17 C10 1.289 . S
C18 O19 1.245 . S
C18 O20 1.274 . S
O19 Mg6 2.079 1_665 S
O19 C18 1.245 . S
O20 Mg5 2.038 1_565 S
O20 C18 1.274 . S
O21 Mg9 2.049 1_556 S
O21 C24 1.241 . S
O22 Mg8 1.984 . S
O22 C24 1.280 . S
O23 Mg9 2.046 . S
O23 C27 1.277 . S
C24 O21 1.241 . S
C24 O22 1.280 . S
O25 Mg8 1.988 1_554 S
O25 C27 1.245 . S
O26 C2 1.247 . S
O26 Mg8 2.061 1_655 S
C27 O23 1.277 . S
C27 O25 1.245 . S
O28 C2 1.289 . S
O28 Mg5 2.238 1_566 S
O28 Mg6 2.106 1_666 S
O29 Mg6 2.079 1_556 S
O29 C11 1.245 . S
O30 Mg9 2.033 1_546 S
O30 C11 1.274 . S
C31 O58 1.312 . S
C31 O59 1.208 . S
C32 O53 1.331 . S
C32 O56 1.244 . S
C33 O55 1.264 . S
C33 O57 1.273 . S
Mg34 O36 1.936 . S
Mg34 O43 2.081 . S
Mg34 O45 2.023 . S
Mg34 O49 2.031 . S
Mg34 O58 2.291 . S
Mg35 O36 1.963 . S
Mg35 O46 1.942 . S
Mg35 O47 1.955 . S
Mg35 O54 1.986 . S
O36 Mg34 1.936 . S
O36 Mg35 1.963 . S
O36 Mg37 1.915 . S
Mg37 O36 1.915 . S
Mg37 O38 1.915 . S
Mg37 O42 2.013 . S
Mg37 O48 2.114 . S
Mg37 O52 2.013 . S
Mg37 O58 2.114 . S
O38 Mg37 1.915 . S
O38 Mg39 1.936 . S
O38 Mg40 1.963 . S
Mg39 O38 1.936 . S
Mg39 O48 2.291 . S
Mg39 O53 2.081 . S
Mg39 O55 2.023 . S
Mg39 O59 2.031 . S
Mg40 O38 1.963 . S
Mg40 O44 1.986 . S
Mg40 O56 1.942 . S
Mg40 O57 1.955 . S
C41 O52 1.191 . S
C41 O54 1.307 . S
O42 Mg37 2.013 . S
O42 C61 1.191 . S
O43 Mg34 2.081 . S
O43 C51 1.331 . S
O44 Mg40 1.986 . S
O44 C61 1.307 . S
O45 Mg34 2.023 . S
O45 C60 1.264 . S
O46 Mg35 1.942 . S
O46 C51 1.244 . S
O47 Mg35 1.955 . S
O47 C60 1.273 . S
O48 Mg37 2.114 . S
O48 Mg39 2.291 . S
O48 C50 1.312 . S
O49 Mg34 2.031 . S
O49 C50 1.208 . S
C50 O48 1.312 . S
C50 O49 1.208 . S
C51 O43 1.331 . S
C51 O46 1.244 . S
O52 Mg37 2.013 . S
O52 C41 1.191 . S
O53 C32 1.331 . S
O53 Mg39 2.081 . S
O54 Mg35 1.986 . S
O54 C41 1.307 . S
O55 C33 1.264 . S
O55 Mg39 2.023 . S
O56 C32 1.244 . S
O56 Mg40 1.942 . S
O57 C33 1.273 . S
O57 Mg40 1.955 . S
O58 C31 1.312 . S
O58 Mg34 2.291 . S
O58 Mg37 2.114 . S
O59 C31 1.208 . S
O59 Mg39 2.031 . S
C60 O45 1.264 . S
C60 O47 1.273 . S
C61 O42 1.191 . S
C61 O44 1.307 . S
C62 C63 1.391 . S
C62 C64 1.394 . S
C62 H78 0.931 . S
C63 C62 1.391 . S
C63 C67 1.376 . S
C64 C62 1.394 . S
C64 C65 1.369 . S
C64 C68 1.531 . S
C65 C64 1.369 . S
C65 C66 1.410 . S
C65 C73 1.503 . S
C66 C65 1.410 . S
C66 C67 1.392 . S
C66 C69 1.511 . S
C67 C63 1.376 . S
C67 C66 1.392 . S
C67 H79 0.929 . S
C68 C64 1.531 . S
C68 H80 0.960 . S
C68 H81 0.962 . S
C68 H82 0.960 . S
C69 C66 1.511 . S
C69 H83 0.961 . S
C69 H84 0.961 . S
C69 H85 0.961 . S
C70 C71 1.370 . S
C70 C72 1.363 . S
C70 H86 0.931 . S
C71 C70 1.370 . S
C71 C75 1.408 . S
C72 C70 1.363 . S
C72 C73 1.370 . S
C72 C76 1.524 . S
C73 C65 1.503 . S
C73 C72 1.370 . S
C73 C74 1.403 . S
C74 C73 1.403 . S
C74 C75 1.404 . S
C74 C77 1.539 . S
C75 C71 1.408 . S
C75 C74 1.404 . S
C75 H87 0.930 . S
C76 C72 1.524 . S
C76 H88 0.956 . S
C76 H89 0.961 . S
C76 H90 0.961 . S
C77 C74 1.539 . S
C77 H91 0.958 . S
C77 H92 0.961 . S
C77 H93 0.960 . S
H78 C62 0.931 . S
H79 C67 0.929 . S
H80 C68 0.960 . S
H81 C68 0.962 . S
H82 C68 0.960 . S
H83 C69 0.961 . S
H84 C69 0.961 . S
H85 C69 0.961 . S
H86 C70 0.931 . S
H87 C75 0.930 . S
H88 C76 0.956 . S
H89 C76 0.961 . S
H90 C76 0.961 . S
H91 C77 0.958 . S
H92 C77 0.961 . S
H93 C77 0.960 . S
C94 C95 1.391 . S
C94 C96 1.394 . S
C94 H110 0.931 . S
C95 C94 1.391 . S
C95 C99 1.376 . S
C96 C94 1.394 . S
C96 C97 1.369 . S
C96 C100 1.531 . S
C97 C96 1.369 . S
C97 C98 1.410 . S
C97 C105 1.503 . S
C98 C97 1.410 . S
C98 C99 1.392 . S
C98 C101 1.511 . S
C99 C95 1.376 . S
C99 C98 1.392 . S
C99 H111 0.929 . S
C100 C96 1.531 . S
C100 H112 0.960 . S
C100 H113 0.962 . S
C100 H114 0.960 . S
C101 C98 1.511 . S
C101 H115 0.961 . S
C101 H116 0.961 . S
C101 H117 0.961 . S
C102 C103 1.370 . S
C102 C104 1.363 . S
C102 H118 0.931 . S
C103 C102 1.370 . S
C103 C107 1.408 . S
C104 C102 1.363 . S
C104 C105 1.370 . S
C104 C108 1.524 . S
C105 C97 1.503 . S
C105 C104 1.370 . S
C105 C106 1.403 . S
C106 C105 1.403 . S
C106 C107 1.404 . S
C106 C109 1.539 . S
C107 C103 1.408 . S
C107 C106 1.404 . S
C107 H119 0.930 . S
C108 C104 1.524 . S
C108 H120 0.956 . S
C108 H121 0.961 . S
C108 H122 0.961 . S
C109 C106 1.539 . S
C109 H123 0.958 . S
C109 H124 0.961 . S
C109 H125 0.960 . S
H110 C94 0.931 . S
H111 C99 0.929 . S
H112 C100 0.960 . S
H113 C100 0.962 . S
H114 C100 0.960 . S
H115 C101 0.961 . S
H116 C101 0.961 . S
H117 C101 0.961 . S
H118 C102 0.931 . S
H119 C107 0.930 . S
H120 C108 0.956 . S
H121 C108 0.961 . S
H122 C108 0.961 . S
H123 C109 0.958 . S
H124 C109 0.961 . S
H125 C109 0.960 . S
C126 C127 1.391 . S
C126 C128 1.394 . S
C126 H142 0.931 . S
C127 C126 1.391 . S
C127 C131 1.376 . S
C128 C126 1.394 . S
C128 C129 1.369 . S
C128 C132 1.531 . S
C129 C128 1.369 . S
C129 C130 1.410 . S
C129 C137 1.503 . S
C130 C129 1.410 . S
C130 C131 1.392 . S
C130 C133 1.511 . S
C131 C127 1.376 . S
C131 C130 1.392 . S
C131 H143 0.929 . S
C132 C128 1.531 . S
C132 H144 0.960 . S
C132 H145 0.962 . S
C132 H146 0.960 . S
C133 C130 1.511 . S
C133 H147 0.961 . S
C133 H148 0.961 . S
C133 H149 0.961 . S
C134 C135 1.370 . S
C134 C136 1.363 . S
C134 H150 0.931 . S
C135 C134 1.370 . S
C135 C139 1.408 . S
C136 C134 1.363 . S
C136 C137 1.370 . S
C136 C140 1.524 . S
C137 C129 1.503 . S
C137 C136 1.370 . S
C137 C138 1.403 . S
C138 C137 1.403 . S
C138 C139 1.404 . S
C138 C141 1.539 . S
C139 C135 1.408 . S
C139 C138 1.404 . S
C139 H151 0.930 . S
C140 C136 1.524 . S
C140 H152 0.956 . S
C140 H153 0.961 . S
C140 H154 0.961 . S
C141 C138 1.539 . S
C141 H155 0.958 . S
C141 H156 0.961 . S
C141 H157 0.960 . S
H142 C126 0.931 . S
H143 C131 0.929 . S
H144 C132 0.960 . S
H145 C132 0.962 . S
H146 C132 0.960 . S
H147 C133 0.961 . S
H148 C133 0.961 . S
H149 C133 0.961 . S
H150 C134 0.931 . S
H151 C139 0.930 . S
H152 C140 0.956 . S
H153 C140 0.961 . S
H154 C140 0.961 . S
H155 C141 0.958 . S
H156 C141 0.961 . S
H157 C141 0.960 . S
C158 C159 1.391 . S
C158 C160 1.394 . S
C158 H174 0.931 . S
C159 C158 1.391 . S
C159 C163 1.376 . S
C160 C158 1.394 . S
C160 C161 1.369 . S
C160 C164 1.531 . S
C161 C160 1.369 . S
C161 C162 1.410 . S
C161 C169 1.503 . S
C162 C161 1.410 . S
C162 C163 1.392 . S
C162 C165 1.511 . S
C163 C159 1.376 . S
C163 C162 1.392 . S
C163 H175 0.929 . S
C164 C160 1.531 . S
C164 H176 0.960 . S
C164 H177 0.962 . S
C164 H178 0.960 . S
C165 C162 1.511 . S
C165 H179 0.961 . S
C165 H180 0.961 . S
C165 H181 0.961 . S
C166 C167 1.370 . S
C166 C168 1.363 . S
C166 H182 0.931 . S
C167 C166 1.370 . S
C167 C171 1.408 . S
C168 C166 1.363 . S
C168 C169 1.370 . S
C168 C172 1.524 . S
C169 C161 1.503 . S
C169 C168 1.370 . S
C169 C170 1.403 . S
C170 C169 1.403 . S
C170 C171 1.404 . S
C170 C173 1.539 . S
C171 C167 1.408 . S
C171 C170 1.404 . S
C171 H183 0.930 . S
C172 C168 1.524 . S
C172 H184 0.956 . S
C172 H185 0.961 . S
C172 H186 0.961 . S
C173 C170 1.539 . S
C173 H187 0.958 . S
C173 H188 0.961 . S
C173 H189 0.960 . S
H174 C158 0.931 . S
H175 C163 0.929 . S
H176 C164 0.960 . S
H177 C164 0.962 . S
H178 C164 0.960 . S
H179 C165 0.961 . S
H180 C165 0.961 . S
H181 C165 0.961 . S
H182 C166 0.931 . S
H183 C171 0.930 . S
H184 C172 0.956 . S
H185 C172 0.961 . S
H186 C172 0.961 . S
H187 C173 0.958 . S
H188 C173 0.961 . S
H189 C173 0.960 . S
C190 C191 1.391 . S
C190 C192 1.394 . S
C190 H206 0.931 . S
C191 C190 1.391 . S
C191 C195 1.376 . S
C192 C190 1.394 . S
C192 C193 1.369 . S
C192 C196 1.531 . S
C193 C192 1.369 . S
C193 C194 1.410 . S
C193 C201 1.503 . S
C194 C193 1.410 . S
C194 C195 1.392 . S
C194 C197 1.511 . S
C195 C191 1.376 . S
C195 C194 1.392 . S
C195 H207 0.929 . S
C196 C192 1.531 . S
C196 H208 0.960 . S
C196 H209 0.962 . S
C196 H210 0.960 . S
C197 C194 1.511 . S
C197 H211 0.961 . S
C197 H212 0.961 . S
C197 H213 0.961 . S
C198 C199 1.370 . S
C198 C200 1.363 . S
C198 H214 0.931 . S
C199 C198 1.370 . S
C199 C203 1.408 . S
C200 C198 1.363 . S
C200 C201 1.370 . S
C200 C204 1.524 . S
C201 C193 1.503 . S
C201 C200 1.370 . S
C201 C202 1.403 . S
C202 C201 1.403 . S
C202 C203 1.404 . S
C202 C205 1.539 . S
C203 C199 1.408 . S
C203 C202 1.404 . S
C203 H215 0.930 . S
C204 C200 1.524 . S
C204 H216 0.956 . S
C204 H217 0.961 . S
C204 H218 0.961 . S
C205 C202 1.539 . S
C205 H219 0.958 . S
C205 H220 0.961 . S
C205 H221 0.960 . S
H206 C190 0.931 . S
H207 C195 0.929 . S
H208 C196 0.960 . S
H209 C196 0.962 . S
H210 C196 0.960 . S
H211 C197 0.961 . S
H212 C197 0.961 . S
H213 C197 0.961 . S
H214 C198 0.931 . S
H215 C203 0.930 . S
H216 C204 0.956 . S
H217 C204 0.961 . S
H218 C204 0.961 . S
H219 C205 0.958 . S
H220 C205 0.961 . S
H221 C205 0.960 . S
C222 C223 1.391 . S
C222 C224 1.394 . S
C222 H238 0.931 . S
C223 C222 1.391 . S
C223 C227 1.376 . S
C224 C222 1.394 . S
C224 C225 1.369 . S
C224 C228 1.531 . S
C225 C224 1.369 . S
C225 C226 1.410 . S
C225 C233 1.503 . S
C226 C225 1.410 . S
C226 C227 1.392 . S
C226 C229 1.511 . S
C227 C223 1.376 . S
C227 C226 1.392 . S
C227 H239 0.929 . S
C228 C224 1.531 . S
C228 H240 0.960 . S
C228 H241 0.962 . S
C228 H242 0.960 . S
C229 C226 1.511 . S
C229 H243 0.961 . S
C229 H244 0.961 . S
C229 H245 0.961 . S
C230 C231 1.370 . S
C230 C232 1.363 . S
C230 H246 0.931 . S
C231 C230 1.370 . S
C231 C235 1.408 . S
C232 C230 1.363 . S
C232 C233 1.370 . S
C232 C236 1.524 . S
C233 C225 1.503 . S
C233 C232 1.370 . S
C233 C234 1.403 . S
C234 C233 1.403 . S
C234 C235 1.404 . S
C234 C237 1.539 . S
C235 C231 1.408 . S
C235 C234 1.404 . S
C235 H247 0.930 . S
C236 C232 1.524 . S
C236 H248 0.956 . S
C236 H249 0.961 . S
C236 H250 0.961 . S
C237 C234 1.539 . S
C237 H251 0.958 . S
C237 H252 0.961 . S
C237 H253 0.960 . S
H238 C222 0.931 . S
H239 C227 0.929 . S
H240 C228 0.960 . S
H241 C228 0.962 . S
H242 C228 0.960 . S
H243 C229 0.961 . S
H244 C229 0.961 . S
H245 C229 0.961 . S
H246 C230 0.931 . S
H247 C235 0.930 . S
H248 C236 0.956 . S
H249 C236 0.961 . S
H250 C236 0.961 . S
H251 C237 0.958 . S
H252 C237 0.961 . S
H253 C237 0.960 . S
C254 C255 1.391 . S
C254 C256 1.394 . S
C254 H270 0.931 . S
C255 C254 1.391 . S
C255 C259 1.376 . S
C256 C254 1.394 . S
C256 C257 1.369 . S
C256 C260 1.531 . S
C257 C256 1.369 . S
C257 C258 1.410 . S
C257 C265 1.503 . S
C258 C257 1.410 . S
C258 C259 1.392 . S
C258 C261 1.511 . S
C259 C255 1.376 . S
C259 C258 1.392 . S
C259 H271 0.929 . S
C260 C256 1.531 . S
C260 H272 0.960 . S
C260 H273 0.962 . S
C260 H274 0.960 . S
C261 C258 1.511 . S
C261 H275 0.961 . S
C261 H276 0.961 . S
C261 H277 0.961 . S
C262 C263 1.370 . S
C262 C264 1.363 . S
C262 H278 0.931 . S
C263 C262 1.370 . S
C263 C267 1.408 . S
C264 C262 1.363 . S
C264 C265 1.370 . S
C264 C268 1.524 . S
C265 C257 1.503 . S
C265 C264 1.370 . S
C265 C266 1.403 . S
C266 C265 1.403 . S
C266 C267 1.404 . S
C266 C269 1.539 . S
C267 C263 1.408 . S
C267 C266 1.404 . S
C267 H279 0.930 . S
C268 C264 1.524 . S
C268 H280 0.956 . S
C268 H281 0.961 . S
C268 H282 0.961 . S
C269 C266 1.539 . S
C269 H283 0.958 . S
C269 H284 0.961 . S
C269 H285 0.960 . S
H270 C254 0.931 . S
H271 C259 0.929 . S
H272 C260 0.960 . S
H273 C260 0.962 . S
H274 C260 0.960 . S
H275 C261 0.961 . S
H276 C261 0.961 . S
H277 C261 0.961 . S
H278 C262 0.931 . S
H279 C267 0.930 . S
H280 C268 0.956 . S
H281 C268 0.961 . S
H282 C268 0.961 . S
H283 C269 0.958 . S
H284 C269 0.961 . S
H285 C269 0.960 . S
C286 C287 1.391 . S
C286 C288 1.394 . S
C286 H302 0.931 . S
C287 C286 1.391 . S
C287 C291 1.376 . S
C288 C286 1.394 . S
C288 C289 1.369 . S
C288 C292 1.531 . S
C289 C288 1.369 . S
C289 C290 1.410 . S
C289 C297 1.503 . S
C290 C289 1.410 . S
C290 C291 1.392 . S
C290 C293 1.511 . S
C291 C287 1.376 . S
C291 C290 1.392 . S
C291 H303 0.929 . S
C292 C288 1.531 . S
C292 H304 0.960 . S
C292 H305 0.962 . S
C292 H306 0.960 . S
C293 C290 1.511 . S
C293 H307 0.961 . S
C293 H308 0.961 . S
C293 H309 0.961 . S
C294 C295 1.370 . S
C294 C296 1.363 . S
C294 H310 0.931 . S
C295 C294 1.370 . S
C295 C299 1.408 . S
C296 C294 1.363 . S
C296 C297 1.370 . S
C296 C300 1.524 . S
C297 C289 1.503 . S
C297 C296 1.370 . S
C297 C298 1.403 . S
C298 C297 1.403 . S
C298 C299 1.404 . S
C298 C301 1.539 . S
C299 C295 1.408 . S
C299 C298 1.404 . S
C299 H311 0.930 . S
C300 C296 1.524 . S
C300 H312 0.956 . S
C300 H313 0.961 . S
C300 H314 0.961 . S
C301 C298 1.539 . S
C301 H315 0.958 . S
C301 H316 0.961 . S
C301 H317 0.960 . S
H302 C286 0.931 . S
H303 C291 0.929 . S
H304 C292 0.960 . S
H305 C292 0.962 . S
H306 C292 0.960 . S
H307 C293 0.961 . S
H308 C293 0.961 . S
H309 C293 0.961 . S
H310 C294 0.931 . S
H311 C299 0.930 . S
H312 C300 0.956 . S
H313 C300 0.961 . S
H314 C300 0.961 . S
H315 C301 0.958 . S
H316 C301 0.961 . S
H317 C301 0.960 . S
C63 C10 1.073 . S
C71 C41 1.066 . S
C95 C0 1.598 . S
C103 C33 1.655 . S
C127 C18 1.445 . S
C135 C50 1.407 . S
C159 C27 1.671 . S
C167 C51 1.643 . S
C191 C24 1.601 . S
C199 C60 1.657 . S
C231 C61 1.400 . S
C223 C11 1.369 . S
C255 C1 1.650 . S
C263 C32 1.635 . S
C295 C31 1.084 . S
C287 C2 1.132 . S
