# Generated by pormake.
# Topology pyr, (3,6)-cn, num edge types: 1
# Building blocks:
#     Node 0, Type 0, BuildingBlock: OLANEW_clean_sbu_2, # of connection points: 3
#     Node 1, Type 0, BuildingBlock: OLANEW_clean_sbu_2, # of connection points: 3
#     Node 2, Type 0, BuildingBlock: OLANEW_clean_sbu_2, # of connection points: 3
#     Node 3, Type 0, BuildingBlock: OLANEW_clean_sbu_2, # of connection points: 3
#     Node 4, Type 0, BuildingBlock: OLANEW_clean_sbu_2, # of connection points: 3
#     Node 5, Type 0, BuildingBlock: OLANEW_clean_sbu_2, # of connection points: 3
#     Node 6, Type 0, BuildingBlock: OLANEW_clean_sbu_2, # of connection points: 3
#     Node 7, Type 0, BuildingBlock: OLANEW_clean_sbu_2, # of connection points: 3
#     Node 8, Type 1, BuildingBlock: BETDAH_clean_sbu_0, # of connection points: 6
#     Node 9, Type 1, BuildingBlock: BETDAH_clean_sbu_0, # of connection points: 6
#     Node 10, Type 1, BuildingBlock: BETDAH_clean_sbu_0, # of connection points: 6
#     Node 11, Type 1, BuildingBlock: BETDAH_clean_sbu_0, # of connection points: 6
#     Edge 12, Type (0, 1), BuildingBlock: AJUNOK_clean_linker_0, # of connection points: 2
#     Edge 13, Type (0, 1), BuildingBlock: AJUNOK_clean_linker_0, # of connection points: 2
#     Edge 14, Type (0, 1), BuildingBlock: AJUNOK_clean_linker_0, # of connection points: 2
#     Edge 15, Type (0, 1), BuildingBlock: AJUNOK_clean_linker_0, # of connection points: 2
#     Edge 16, Type (0, 1), BuildingBlock: AJUNOK_clean_linker_0, # of connection points: 2
#     Edge 17, Type (0, 1), BuildingBlock: AJUNOK_clean_linker_0, # of connection points: 2
#     Edge 18, Type (0, 1), BuildingBlock: AJUNOK_clean_linker_0, # of connection points: 2
#     Edge 19, Type (0, 1), BuildingBlock: AJUNOK_clean_linker_0, # of connection points: 2
#     Edge 20, Type (0, 1), BuildingBlock: AJUNOK_clean_linker_0, # of connection points: 2
#     Edge 21, Type (0, 1), BuildingBlock: AJUNOK_clean_linker_0, # of connection points: 2
#     Edge 22, Type (0, 1), BuildingBlock: AJUNOK_clean_linker_0, # of connection points: 2
#     Edge 23, Type (0, 1), BuildingBlock: AJUNOK_clean_linker_0, # of connection points: 2
#     Edge 24, Type (0, 1), BuildingBlock: AJUNOK_clean_linker_0, # of connection points: 2
#     Edge 25, Type (0, 1), BuildingBlock: AJUNOK_clean_linker_0, # of connection points: 2
#     Edge 26, Type (0, 1), BuildingBlock: AJUNOK_clean_linker_0, # of connection points: 2
#     Edge 27, Type (0, 1), BuildingBlock: AJUNOK_clean_linker_0, # of connection points: 2
#     Edge 28, Type (0, 1), BuildingBlock: AJUNOK_clean_linker_0, # of connection points: 2
#     Edge 29, Type (0, 1), BuildingBlock: AJUNOK_clean_linker_0, # of connection points: 2
#     Edge 30, Type (0, 1), BuildingBlock: AJUNOK_clean_linker_0, # of connection points: 2
#     Edge 31, Type (0, 1), BuildingBlock: AJUNOK_clean_linker_0, # of connection points: 2
#     Edge 32, Type (0, 1), BuildingBlock: AJUNOK_clean_linker_0, # of connection points: 2
#     Edge 33, Type (0, 1), BuildingBlock: AJUNOK_clean_linker_0, # of connection points: 2
#     Edge 34, Type (0, 1), BuildingBlock: AJUNOK_clean_linker_0, # of connection points: 2
#     Edge 35, Type (0, 1), BuildingBlock: AJUNOK_clean_linker_0, # of connection points: 2
# Relax obj value: 0.184
# Max RMSD: 0.176
# Mean RMSD: 0.124
data_MOF--net-pyr--node1-OLANEW_clean_sbu_2--node2-BETDAH_clean_sbu_0--edge1-AJUNOK_clean_linker_0
_symmetry_space_group_name_H-M    P1
_symmetry_Int_Tables_number       1
_symmetry_cell_setting            triclinic
loop_
_symmetry_equiv_pos_as_xyz
'x, y, z'
_cell_length_a     30.689285
_cell_length_b     33.881157
_cell_length_c     29.685197
_cell_angle_alpha  95.144112
_cell_angle_beta   88.036606
_cell_angle_gamma 104.58135
loop_
_atom_site_label
_atom_site_type_symbol
_atom_site_fract_x
_atom_site_fract_y
_atom_site_fract_z
_atom_type_partial_charge
O0 O 0.40914 0.26623 0.1585 0.0
Cd1 Cd 0.39686 0.33634 0.16489 0.0
O2 O 0.42567 0.27657 0.23046 0.0
Cd3 Cd 0.43418 0.25332 0.29481 0.0
O4 O 0.38736 0.22166 0.34407 0.0
C5 C 0.36491 0.24238 0.36853 0.0
O6 O 0.37508 0.28228 0.36677 0.0
C7 C 0.42243 0.25387 0.19364 0.0
C8 C 0.31384 0.35311 0.14704 0.0
O9 O 0.34288 0.3509 0.11541 0.0
O10 O 0.32297 0.3452 0.18659 0.0
O11 O 0.45621 0.05324 0.71051 0.0
Cd12 Cd 0.48457 0.0492 0.63313 0.0
O13 O 0.39318 1.01462 0.68276 0.0
Cd14 Cd 0.32193 0.98294 0.68255 0.0
O15 O 0.2552 0.97726 0.6561 0.0
C16 C 0.22603 0.99065 0.67996 0.0
O17 O 0.23565 1.00502 0.722 0.0
C18 C 0.41628 0.03222 0.71692 0.0
C19 C 0.49628 0.97025 0.62081 0.0
O20 O 0.45882 0.9777 0.61148 0.0
O21 O 0.52897 1.00063 0.63341 0.0
O22 O 0.72924 0.44279 0.91729 0.0
Cd23 Cd 0.65839 0.42295 0.87027 0.0
O24 O 0.72816 0.39374 0.96342 0.0
Cd25 Cd 0.66963 0.33873 0.96075 0.0
O26 O 0.62832 0.27721 0.97871 0.0
C27 C 0.63679 0.26206 1.01436 0.0
O28 O 0.66998 0.28349 0.04 0.0
C29 C 0.74731 0.42825 0.94831 0.0
C30 C 0.63539 0.47345 0.80628 0.0
O31 O 0.62657 0.47818 0.84868 0.0
O32 O 0.65702 0.44637 0.79396 0.0
O33 O 0.92711 0.80381 0.38855 0.0
Cd34 Cd 0.8885 0.73854 0.34256 0.0
O35 O 0.88802 0.78745 0.45122 0.0
Cd36 Cd 0.84611 0.72518 0.43889 0.0
O37 O 0.79134 0.68797 0.47804 0.0
C38 C 0.75116 0.67881 0.46383 0.0
O39 O 0.74363 0.68946 0.42391 0.0
C40 C 0.91682 0.81308 0.42963 0.0
C41 C 0.92471 0.68763 0.27749 0.0
O42 O 0.91973 0.7224 0.26789 0.0
O43 O 0.91588 0.67823 0.3183 0.0
O44 O 0.66541 0.74043 0.77938 0.0
Cd45 Cd 0.62004 0.69173 0.82834 0.0
O46 O 0.66623 0.78475 0.83769 0.0
Cd47 Cd 0.68553 0.84183 0.88171 0.0
O48 O 0.67189 0.89062 0.92948 0.0
C49 C 0.6396 0.90498 0.91864 0.0
O50 O 0.61975 0.89112 0.87983 0.0
C51 C 0.68075 0.77621 0.79826 0.0
C52 C 0.68461 0.67896 0.88492 0.0
O53 O 0.67144 0.65435 0.84991 0.0
O54 O 0.66494 0.70783 0.89477 0.0
O55 O 0.80374 0.2693 0.46568 0.0
Cd56 Cd 0.85555 0.28157 0.52866 0.0
O57 O 0.86005 0.29549 0.42082 0.0
Cd58 Cd 0.88428 0.33781 0.4795 0.0
O59 O 0.83516 0.37108 0.50657 0.0
C60 C 0.81092 0.37842 0.476 0.0
O61 O 0.82026 0.36864 0.43357 0.0
C62 C 0.81988 0.27454 0.42605 0.0
C63 C 0.876 0.20794 0.54382 0.0
O64 O 0.84525 0.2205 0.5668 0.0
O65 O 0.89767 0.23043 0.51384 0.0
O66 O 0.43361 0.81384 0.27529 0.0
Cd67 Cd 0.40267 0.74736 0.31344 0.0
O68 O 0.37793 0.80613 0.22684 0.0
Cd69 Cd 0.33433 0.74458 0.23442 0.0
O70 O 0.27625 0.69773 0.20498 0.0
C71 C 0.26515 0.70387 0.16574 0.0
O72 O 0.2896 0.73571 0.14653 0.0
C73 C 0.41471 0.82752 0.24415 0.0
C74 C 0.43796 0.71462 0.38681 0.0
O75 O 0.44655 0.70478 0.3453 0.0
O76 O 0.41535 0.74174 0.39408 0.0
O77 O 0.16175 0.46742 0.82738 0.0
Cd78 Cd 0.20211 0.43454 0.76713 0.0
O79 O 0.1041 0.41405 0.83565 0.0
Cd80 Cd 0.11663 0.36708 0.78319 0.0
O81 O 0.10291 0.3086 0.73923 0.0
C82 C 0.09341 0.27465 0.75727 0.0
O83 O 0.09323 0.27556 0.80161 0.0
C84 C 0.12495 0.451 0.84734 0.0
C85 C 0.27769 0.48288 0.72288 0.0
O86 O 0.23776 0.47648 0.70751 0.0
O87 O 0.28188 0.46794 0.76022 0.0
Ho88 Ho 0.02464 0.06674 0.54839 0.0
Ho89 Ho 0.98388 1.02553 0.63118 0.0
C90 C 0.03559 0.11897 0.64571 0.0
C91 C 0.05461 0.11339 0.48405 0.0
C92 C 0.10006 0.13532 0.47029 0.0
C93 C 0.11183 0.13437 0.42426 0.0
C94 C 0.15607 0.15128 0.41063 0.0
C95 C 0.18915 0.1695 0.44285 0.0
C96 C 0.17714 0.17151 0.48888 0.0
C97 C 0.13293 0.15418 0.50259 0.0
C98 C 0.079 1.02942 0.59024 0.0
C99 C 0.97368 0.97347 0.53267 0.0
C100 C 0.95837 0.9785 0.69611 0.0
C101 C 0.91656 0.94864 0.70735 0.0
C102 C 0.91864 0.9155 0.73145 0.0
C103 C 0.87914 0.88718 0.74295 0.0
C104 C 0.83695 0.89166 0.73055 0.0
C105 C 0.83491 0.9249 0.7064 0.0
C106 C 0.87447 0.95304 0.69455 0.0
C107 C 0.93011 0.06541 0.59339 0.0
O108 O 0.02964 0.11988 0.6019 0.0
O109 O 0.02828 0.0835 0.66367 0.0
O110 O 0.04658 0.0736 0.47892 0.0
O111 O 0.039 0.12648 0.52249 0.0
O112 O 0.07959 0.03294 0.54729 0.0
O113 O 0.05331 0.04948 0.60899 0.0
O114 O 0.97666 0.97291 0.57698 0.0
O115 O 0.98226 1.0086 0.51393 0.0
O116 O 0.95623 1.01664 0.69834 0.0
O117 O 0.98048 0.96836 0.66034 0.0
O118 O 0.92961 0.05932 0.63574 0.0
O119 O 0.95498 0.04541 0.57213 0.0
H120 H 0.08699 0.11974 0.39893 0.0
H121 H 0.16454 0.14995 0.37488 0.0
H122 H 0.20219 0.18549 0.51422 0.0
H123 H 0.12472 0.15478 0.53839 0.0
H124 H 0.95081 0.91167 0.74161 0.0
H125 H 0.88149 0.86208 0.76215 0.0
H126 H 0.80276 0.92889 0.69643 0.0
H127 H 0.87218 0.97833 0.67562 0.0
Ho128 Ho 0.55733 0.05419 0.14753 0.0
Ho129 Ho 0.47163 1.03128 0.09 0.0
C130 C 0.47658 0.10046 0.16779 0.0
C131 C 0.62436 0.08458 0.20072 0.0
C132 C 0.64812 0.12235 0.22723 0.0
C133 C 0.68917 0.14599 0.21121 0.0
C134 C 0.71561 0.17776 0.23913 0.0
C135 C 0.70195 0.18595 0.28391 0.0
C136 C 0.66014 0.16318 0.29934 0.0
C137 C 0.63339 0.13191 0.27123 0.0
C138 C 0.50328 0.97823 0.15873 0.0
C139 C 0.56146 1.00446 0.05257 0.0
C140 C 0.39957 0.99555 0.04603 0.0
C141 C 0.39378 0.99661 0.99723 0.0
C142 C 0.35128 0.9852 0.97697 0.0
C143 C 0.34726 0.9904 0.93095 0.0
C144 C 0.38569 1.00761 0.90531 0.0
C145 C 0.42798 1.01828 0.92578 0.0
C146 C 0.43192 1.01277 0.97111 0.0
C147 C 0.52944 0.10085 0.06081 0.0
O148 O 0.52039 0.1031 0.1688 0.0
O149 O 0.4486 0.06835 0.14729 0.0
O150 O 0.58406 0.06611 0.2148 0.0
O151 O 0.62808 0.08349 0.15653 0.0
O152 O 0.54666 0.98765 0.15591 0.0
O153 O 0.48946 1.0102 0.15483 0.0
O154 O 0.51697 0.99616 0.053 0.0
O155 O 0.58609 1.0302 0.08353 0.0
O156 O 0.40472 1.03112 0.06915 0.0
O157 O 0.42923 0.97615 0.05674 0.0
O158 O 0.49077 0.08346 0.04309 0.0
O159 O 0.53429 0.07936 0.0916 0.0
H160 H 0.70167 0.13899 0.17765 0.0
H161 H 0.74762 0.19486 0.22627 0.0
H162 H 0.64916 0.16776 0.33403 0.0
H163 H 0.60231 0.11389 0.28494 0.0
H164 H 0.32138 0.97302 0.99675 0.0
H165 H 0.31429 0.98193 0.91572 0.0
H166 H 0.45817 1.03104 0.90662 0.0
H167 H 0.46492 1.0219 0.98608 0.0
Ho168 Ho 0.51738 0.55151 0.57115 0.0
Ho169 Ho 0.52274 0.62443 0.63586 0.0
C170 C 0.55995 0.55528 0.67125 0.0
C171 C 0.53632 0.49107 0.52157 0.0
C172 C 0.57508 0.47284 0.51981 0.0
C173 C 0.61551 0.49384 0.54106 0.0
C174 C 0.65313 0.47751 0.53721 0.0
C175 C 0.65089 0.43989 0.51207 0.0
C176 C 0.61006 0.41864 0.49152 0.0
C177 C 0.57242 0.43499 0.49544 0.0
C178 C 0.43972 0.55023 0.61798 0.0
C179 C 0.48617 0.62543 0.53269 0.0
C180 C 0.50591 0.68603 0.68418 0.0
C181 C 0.50612 0.72725 0.67261 0.0
C182 C 0.47971 0.74974 0.69769 0.0
C183 C 0.47859 0.78841 0.68568 0.0
C184 C 0.50411 0.80513 0.64859 0.0
C185 C 0.53029 0.78239 0.62331 0.0
C186 C 0.53112 0.74362 0.63511 0.0
C187 C 0.59893 0.62618 0.58572 0.0
O188 O 0.56341 0.54422 0.62747 0.0
O189 O 0.53727 0.58267 0.68432 0.0
O190 O 0.51108 0.48631 0.55799 0.0
O191 O 0.54494 0.52837 0.50945 0.0
O192 O 0.44191 0.53734 0.57567 0.0
O193 O 0.47899 0.56173 0.63391 0.0
O194 O 0.49123 0.64253 0.57482 0.0
O195 O 0.49605 0.58988 0.5217 0.0
O196 O 0.54521 0.67744 0.6831 0.0
O197 O 0.47443 0.65651 0.66484 0.0
O198 O 0.59894 0.64101 0.62754 0.0
O199 O 0.559 0.61396 0.57284 0.0
H200 H 0.61831 0.52333 0.55974 0.0
H201 H 0.68436 0.49494 0.55263 0.0
H202 H 0.60742 0.38956 0.47201 0.0
H203 H 0.54148 0.41841 0.47883 0.0
H204 H 0.45985 0.73732 0.72639 0.0
H205 H 0.45821 0.8055 0.70567 0.0
H206 H 0.54963 0.79441 0.59415 0.0
H207 H 0.55106 0.72629 0.6148 0.0
Ho208 Ho 0.01316 0.52306 0.08124 0.0
Ho209 Ho 1.0055 0.59851 0.03728 0.0
C210 C 0.09703 0.60534 0.08635 0.0
C211 C 0.03778 0.45988 0.10484 0.0
C212 C 0.079 0.44645 0.11225 0.0
C213 C 0.12085 0.46602 0.09393 0.0
C214 C 0.1588 0.45087 0.09907 0.0
C215 C 0.15554 0.41581 0.12247 0.0
C216 C 0.1137 0.39692 0.14148 0.0
C217 C 0.07586 0.41204 0.13631 0.0
C218 C 0.97258 0.57389 0.13395 0.0
C219 C 0.92192 0.51597 0.02854 0.0
C220 C 0.9771 0.6592 1.01361 0.0
C221 C 0.93322 0.66304 0.99866 0.0
C222 C 0.89301 0.6364 1.01243 0.0
C223 C 0.85158 0.63928 0.99686 0.0
C224 C 0.84963 0.66926 0.96785 0.0
C225 C 0.88983 0.6962 0.95449 0.0
C226 C 0.93135 0.69301 0.9697 0.0
C227 C 0.04986 0.55029 0.98671 0.0
O228 O 0.08395 0.56499 0.08777 0.0
O229 O 0.07013 0.62651 0.07241 0.0
O230 O 0.02863 0.48814 0.13383 0.0
O231 O 0.03006 0.46548 0.06319 0.0
O232 O 0.96095 0.53418 0.13324 0.0
O233 O 1.00609 0.58423 0.10789 0.0
O234 O 0.9365 0.55585 1.02564 0.0
O235 O 0.9465 0.49505 0.04737 0.0
O236 O 0.99783 0.63769 0.98574 0.0
O237 O 0.9786 0.65084 0.05559 0.0
O238 O 0.0604 0.59001 0.98779 0.0
O239 O 0.01489 0.53837 1.01065 0.0
H240 H 0.12406 0.4927 0.0753 0.0
H241 H 0.19073 0.46669 0.08489 0.0
H242 H 0.11001 0.36989 0.15961 0.0
H243 H 0.04385 0.39641 0.15056 0.0
H244 H 0.89354 0.61321 0.03506 0.0
H245 H 0.82103 0.61818 1.00757 0.0
H246 H 0.88916 0.71921 0.9316 0.0
H247 H 0.962 0.71374 0.95862 0.0
C248 C 0.30006 0.24522 0.42102 0.0
C249 C 0.32323 0.22174 0.39232 0.0
C250 C 0.25736 0.22774 0.43881 0.0
C251 C 0.23615 0.1863 0.42811 0.0
H252 H 0.31437 0.27767 0.42879 0.0
H253 H 0.24007 0.24715 0.45956 0.0
S254 S 0.28372 0.1103 0.35884 0.0
N255 N 0.32283 0.15372 0.35732 0.0
N256 N 0.24241 0.1213 0.39055 0.0
C257 C 0.25959 0.16199 0.40136 0.0
C258 C 0.30324 0.17958 0.38359 0.0
C259 C 0.41158 0.05971 0.79697 0.0
C260 C 0.39883 1.02703 0.76358 0.0
C261 C 0.40377 0.05374 0.84288 0.0
C262 C 0.38323 1.01479 0.85711 0.0
H263 H 0.42959 0.08974 0.78766 0.0
H264 H 0.41606 0.07934 0.86763 0.0
S265 S 0.34258 0.91935 0.78321 0.0
N266 N 0.36355 0.9545 0.74783 0.0
N267 N 0.34862 0.94347 0.83436 0.0
C268 C 0.36806 0.98232 0.82408 0.0
C269 C 0.37599 0.98838 0.77718 0.0
C270 C 0.62054 0.48512 0.7255 0.0
C271 C 0.61884 0.49672 0.77232 0.0
C272 C 0.60216 0.50442 0.69323 0.0
C273 C 0.5812 0.5364 0.70607 0.0
H274 H 0.6354 0.46024 0.71357 0.0
H275 H 0.60389 0.49365 0.65789 0.0
S276 S 0.57082 0.58078 0.82409 0.0
N277 N 0.59637 0.54405 0.82941 0.0
N278 N 0.56227 0.58015 0.76943 0.0
C279 C 0.58043 0.54908 0.75272 0.0
C280 C 0.59907 0.52937 0.78554 0.0
C281 C 0.96402 0.67242 0.20409 0.0
C282 C 0.93755 0.65821 0.24186 0.0
C283 C 0.97528 0.64506 0.16963 0.0
C284 C 0.95938 0.60227 0.17058 0.0
H285 H 0.97667 0.70499 0.20139 0.0
H286 H 0.99673 0.65766 0.14204 0.0
S287 S 0.88758 0.54916 0.26121 0.0
N288 N 0.89554 0.59825 0.27786 0.0
N289 N 0.91515 0.54721 0.21264 0.0
C290 C 0.93242 0.58771 0.2079 0.0
C291 C 0.92191 0.61551 0.24354 0.0
C292 C 0.40729 0.17917 0.16756 0.0
C293 C 0.43412 0.21378 0.19176 0.0
C294 C 0.41972 0.14178 0.16279 0.0
C295 C 0.46007 0.13773 0.18116 0.0
H296 H 0.37675 0.18114 0.15165 0.0
H297 H 0.39846 0.11646 0.14263 0.0
S298 S 0.54223 0.21966 0.24764 0.0
N299 N 0.5026 0.24174 0.23474 0.0
N300 N 0.52618 0.17185 0.22558 0.0
C301 C 0.48667 0.17203 0.20634 0.0
C302 C 0.47368 0.20992 0.21163 0.0
C303 C 0.18216 0.99189 0.61086 0.0
C304 C 0.1851 0.99575 0.6584 0.0
C305 C 0.14686 1.00158 0.58916 0.0
C306 C 0.11303 1.01533 0.6141 0.0
H307 H 0.20819 0.98275 0.59002 0.0
H308 H 0.14688 0.9994 0.55253 0.0
S309 S 0.10151 1.02544 0.7392 0.0
N310 N 0.14857 1.01066 0.72973 0.0
N311 N 0.08201 1.02843 0.68882 0.0
C312 C 0.11403 1.01711 0.66158 0.0
C313 C 0.15013 1.00745 0.68376 0.0
C314 C 0.81101 0.43587 1.00307 0.0
C315 C 0.79195 0.45158 0.96805 0.0
C316 C 0.85278 0.45659 1.02231 0.0
C317 C 0.87746 0.49429 1.00786 0.0
H318 H 0.79356 0.40711 1.01596 0.0
H319 H 0.8656 0.44305 0.04906 0.0
S320 S 0.84495 0.54791 0.91535 0.0
N321 N 0.80281 0.5069 0.91866 0.0
N322 N 0.8808 0.54554 0.95457 0.0
C323 C 0.8592 0.51025 0.97261 0.0
C324 C 0.81674 0.48906 0.95284 0.0
C325 C 0.71853 0.66473 0.54133 0.0
C326 C 0.71293 0.66109 0.49405 0.0
C327 C 0.68172 0.65243 0.57083 0.0
C328 C 0.63804 0.63562 0.55416 0.0
H329 H 0.7513 0.67854 0.55585 0.0
H330 H 0.68741 0.65692 0.60695 0.0
S331 S 0.60589 0.61608 0.4331 0.0
N332 N 0.66061 0.63698 0.432 0.0
N333 N 0.59182 0.61373 0.4871 0.0
C334 C 0.63235 0.63017 0.50692 0.0
C335 C 0.66966 0.64297 0.47697 0.0
C336 C 0.2436 0.37304 0.17565 0.0
C337 C 0.27235 0.36689 0.13906 0.0
C338 C 0.206 0.38861 0.16993 0.0
C339 C 0.19549 0.3989 0.12741 0.0
H340 H 0.2505 0.36639 0.20931 0.0
H341 H 0.18542 0.39333 0.19932 0.0
S342 S 0.25758 0.386 1.01983 0.0
N343 N 0.28611 0.37072 0.05809 0.0
N344 N 0.21537 0.39959 0.04752 0.0
C345 C 0.22329 0.39215 0.09033 0.0
C346 C 0.2616 0.37621 0.09608 0.0
C347 C 0.57778 0.19564 0.99723 0.0
C348 C 0.61021 0.22075 0.02685 0.0
C349 C 0.5525 0.15683 1.00837 0.0
C350 C 0.55871 0.14113 0.04941 0.0
H351 H 0.57168 0.20601 0.96512 0.0
H352 H 0.52775 0.13895 0.98451 0.0
S353 S 0.63708 0.19499 0.14024 0.0
N354 N 0.64555 0.22712 0.10033 0.0
N355 N 0.59852 0.15434 0.1205 0.0
C356 C 0.59083 0.16574 0.0794 0.0
C357 C 0.61637 0.20543 0.06833 0.0
C358 C 0.9336 0.85863 0.50137 0.0
C359 C 0.93581 0.8544 0.4537 0.0
C360 C 0.94587 0.89696 0.526 0.0
C361 C 0.96083 0.9334 0.5044 0.0
H362 H 0.92165 0.83193 0.52018 0.0
H363 H 0.94298 0.89783 0.56252 0.0
S364 S 0.97454 0.93979 0.38012 0.0
N365 N 0.95545 0.8903 0.38571 0.0
N366 N 0.97861 0.96257 0.43195 0.0
C367 C 0.96411 0.9298 0.45668 0.0
C368 C 0.95177 0.89038 0.43143 0.0
C369 C 0.46051 0.89557 0.62251 0.0
C370 C 0.49998 0.92758 0.62181 0.0
C371 C 0.46224 0.85581 0.63016 0.0
C372 C 0.50349 0.84646 0.63677 0.0
H373 H 0.42778 0.90149 0.61896 0.0
H374 H 0.43099 0.83231 0.63165 0.0
S375 S 0.61674 0.91813 0.63498 0.0
N376 N 0.58182 0.94649 0.626 0.0
N377 N 0.58483 0.87157 0.64016 0.0
C378 C 0.54334 0.87759 0.63422 0.0
C379 C 0.54163 0.9182 0.62681 0.0
C380 C 0.72339 0.84789 0.78511 0.0
C381 C 0.718 0.80543 0.77668 0.0
C382 C 0.76129 0.87576 0.76878 0.0
C383 C 0.79519 0.86204 0.74375 0.0
H384 H 0.69835 0.85974 0.80462 0.0
H385 H 0.76478 0.9082 0.77696 0.0
S386 S 0.7952 0.75427 0.70874 0.0
N387 N 0.74843 0.75118 0.7389 0.0
N388 N 0.8194 0.80362 0.70825 0.0
C389 C 0.78929 0.81981 0.73345 0.0
C390 C 0.75067 0.79148 0.74975 0.0
C391 C 0.80728 0.23304 0.3521 0.0
C392 C 0.79154 0.25689 0.38687 0.0
C393 C 0.77855 0.21169 0.31752 0.0
C394 C 0.73343 0.21418 0.31623 0.0
H395 H 0.84122 0.22915 0.35292 0.0
H396 H 0.79121 0.19153 0.29299 0.0
S397 S 0.67931 0.27926 0.39528 0.0
N398 N 0.73028 0.28581 0.41567 0.0
N399 N 0.6767 0.24726 0.34948 0.0
C400 C 0.71855 0.24053 0.34916 0.0
C401 C 0.74752 0.26151 0.38481 0.0
C402 C 0.46629 0.65732 0.41537 0.0
C403 C 0.45134 0.69339 0.42478 0.0
C404 C 0.47665 0.63542 0.45016 0.0
C405 C 0.47296 0.64854 0.49632 0.0
H406 H 0.46956 0.64544 0.38065 0.0
H407 H 0.48803 0.60804 0.44057 0.0
S408 S 0.43659 0.74185 0.53984 0.0
N409 N 0.43414 0.7415 0.48432 0.0
N410 N 0.45377 0.70094 0.54923 0.0
C411 C 0.45848 0.68486 0.50626 0.0
C412 C 0.44765 0.70702 0.47078 0.0
C413 C 0.12658 0.51689 0.89522 0.0
C414 C 0.10578 0.47516 0.88427 0.0
C415 C 0.10861 0.54058 0.92875 0.0
C416 C 0.06912 0.52367 0.95308 0.0
H417 H 0.15685 0.53169 0.87742 0.0
H418 H 0.12574 0.57259 0.93543 0.0
S419 S 1.00162 0.41595 0.93879 0.0
N420 N 0.04337 0.41789 0.9018 0.0
N421 N 1.00987 0.46251 0.96425 0.0
C422 C 0.04822 0.48196 0.94311 0.0
C423 C 0.06642 0.45776 0.90891 0.0
C424 C 0.64221 0.94746 0.9931 0.0
C425 C 0.62183 0.93369 0.95076 0.0
C426 C 0.62359 0.97173 1.02538 0.0
C427 C 0.58362 0.98271 1.01673 0.0
H428 H 0.67225 0.93873 1.00186 0.0
H429 H 0.63971 0.98066 0.05791 0.0
S430 S 0.51951 0.95849 0.90971 0.0
N431 N 0.56123 0.93599 0.9009 0.0
N432 N 0.52635 0.98088 0.96155 0.0
C433 C 0.56394 0.97054 0.97399 0.0
C434 C 0.58302 0.94627 0.94102 0.0
C435 C 0.87702 0.15481 0.59627 0.0
C436 C 0.88735 0.16952 0.55343 0.0
C437 C 0.88975 0.12025 0.60787 0.0
C438 C 0.91292 0.09858 0.57702 0.0
H439 H 0.86015 0.17084 0.6217 0.0
H440 H 0.88218 0.11106 0.64188 0.0
S441 S 0.94238 0.12092 0.45825 0.0
N442 N 0.91878 0.15771 0.47851 0.0
N443 N 0.94157 0.09177 0.50017 0.0
C444 C 0.92138 0.11152 0.53321 0.0
C445 C 0.90897 0.14728 0.5215 0.0
C446 C 0.20138 0.63991 0.15982 0.0
C447 C 0.22414 0.67733 0.14296 0.0
C448 C 0.16134 0.61565 0.14005 0.0
C449 C 0.14214 0.62824 0.10319 0.0
H450 H 0.21424 0.62946 0.18886 0.0
H451 H 0.14445 0.58764 0.15485 0.0
S452 S 0.18962 0.72183 0.04399 0.0
N453 N 0.22534 0.72427 0.08507 0.0
N454 N 0.15021 0.67912 0.04882 0.0
C455 C 0.16515 0.66485 0.08519 0.0
C456 C 0.20608 0.68925 0.10481 0.0
C457 C 0.36114 0.51466 0.71666 0.0
C458 C 0.31808 0.50451 0.69704 0.0
C459 C 0.40024 0.53133 0.69164 0.0
C460 C 0.39797 0.53797 0.64574 0.0
H461 H 0.36488 0.50887 0.75144 0.0
H462 H 0.4326 0.53752 0.70793 0.0
S463 S 0.29379 0.5201 0.579 0.0
N464 N 0.27579 0.5053 0.62932 0.0
N465 N 0.34912 0.53583 0.5825 0.0
C466 C 0.35519 0.52949 0.62617 0.0
C467 C 0.31534 0.51301 0.65171 0.0
C468 C 0.73772 0.6393 0.90743 0.0
C469 C 0.72402 0.67609 0.91067 0.0
C470 C 0.77768 0.63702 0.92733 0.0
C471 C 0.80581 0.67162 0.95041 0.0
H472 H 0.71783 0.61219 0.88874 0.0
H473 H 0.78734 0.6083 0.92336 0.0
S474 S 0.78445 0.77468 0.97055 0.0
N475 N 0.741 0.74753 0.9407 0.0
N476 N 0.81639 0.74312 0.97746 0.0
C477 C 0.79204 0.70828 0.95494 0.0
C478 C 0.75103 0.71052 0.93531 0.0
C479 C 0.48304 0.88347 0.22558 0.0
C480 C 0.43604 0.86785 0.22535 0.0
C481 C 0.5039 0.91895 0.20401 0.0
C482 C 0.47886 0.94119 0.1819 0.0
H483 H 0.50411 0.86747 0.24132 0.0
H484 H 0.5403 0.92894 0.2047 0.0
S485 S 0.35459 0.91499 0.17355 0.0
N486 N 0.36478 0.87856 0.20195 0.0
N487 N 0.40422 0.94556 0.16271 0.0
C488 C 0.43182 0.92673 0.18253 0.0
C489 C 0.41045 0.8901 0.20384 0.0
C490 C 0.07169 0.23347 0.68267 0.0
C491 C 0.08058 0.23466 0.7291 0.0
C492 C 0.05754 0.19611 0.65606 0.0
C493 C 0.05176 0.15819 0.67459 0.0
H494 H 0.07501 0.26163 0.66674 0.0
H495 H 0.0507 0.19711 0.62068 0.0
S496 S 0.0731 0.14415 0.79391 0.0
N497 N 0.08422 0.19422 0.79201 0.0
N498 N 0.05788 0.12447 0.74228 0.0
C499 C 0.06138 0.15895 0.7208 0.0
C500 C 0.07569 0.19697 0.74791 0.0
C501 C 0.7427 0.398 0.45175 0.0
C502 C 0.77095 0.39492 0.48702 0.0
C503 C 0.70393 0.41218 0.46036 0.0
C504 C 0.69175 0.4241 0.50458 0.0
H505 H 0.75031 0.38918 0.41697 0.0
H506 H 0.68359 0.41431 0.43198 0.0
S507 S 0.75296 0.42104 0.60929 0.0
N508 N 0.78333 0.40447 0.5683 0.0
N509 N 0.71016 0.4311 0.58433 0.0
C510 C 0.71943 0.42119 0.5403 0.0
C511 C 0.75902 0.40656 0.53158 0.0
loop_
_geom_bond_atom_site_label_1
_geom_bond_atom_site_label_2
_geom_bond_distance
_geom_bond_site_symmetry_2
_ccdc_geom_bond_type
O0 Cd1 2.300 . S
O0 C7 1.275 . S
Cd1 O0 2.300 . S
Cd1 O9 2.381 . S
Cd1 O10 2.378 . S
O2 Cd3 2.385 . S
O2 C7 1.255 . S
Cd3 O2 2.385 . S
Cd3 O4 2.317 . S
O4 Cd3 2.317 . S
O4 C5 1.232 . S
C5 O4 1.232 . S
C5 O6 1.218 . S
O6 C5 1.218 . S
C7 O0 1.275 . S
C7 O2 1.255 . S
C8 O9 1.258 . S
C8 O10 1.256 . S
O9 Cd1 2.381 . S
O9 C8 1.258 . S
O10 Cd1 2.378 . S
O10 C8 1.256 . S
O11 Cd12 2.300 . S
O11 C18 1.275 . S
Cd12 O11 2.300 . S
Cd12 O20 2.381 . S
Cd12 O21 2.378 . S
O13 Cd14 2.385 . S
O13 C18 1.255 . S
Cd14 O13 2.385 . S
Cd14 O15 2.317 . S
O15 Cd14 2.317 . S
O15 C16 1.232 . S
C16 O15 1.232 . S
C16 O17 1.218 . S
O17 C16 1.218 . S
C18 O11 1.275 . S
C18 O13 1.255 . S
C19 O20 1.258 . S
C19 O21 1.256 . S
O20 Cd12 2.381 . S
O20 C19 1.258 . S
O21 Cd12 2.378 . S
O21 C19 1.256 . S
O22 Cd23 2.300 . S
O22 C29 1.275 . S
Cd23 O22 2.300 . S
Cd23 O31 2.381 . S
Cd23 O32 2.378 . S
O24 Cd25 2.385 . S
O24 C29 1.255 . S
Cd25 O24 2.385 . S
Cd25 O26 2.317 . S
O26 Cd25 2.317 . S
O26 C27 1.232 . S
C27 O26 1.232 . S
C27 O28 1.218 . S
O28 C27 1.218 . S
C29 O22 1.275 . S
C29 O24 1.255 . S
C30 O31 1.258 . S
C30 O32 1.256 . S
O31 Cd23 2.381 . S
O31 C30 1.258 . S
O32 Cd23 2.378 . S
O32 C30 1.256 . S
O33 Cd34 2.300 . S
O33 C40 1.275 . S
Cd34 O33 2.300 . S
Cd34 O42 2.381 . S
Cd34 O43 2.378 . S
O35 Cd36 2.385 . S
O35 C40 1.255 . S
Cd36 O35 2.385 . S
Cd36 O37 2.317 . S
O37 Cd36 2.317 . S
O37 C38 1.232 . S
C38 O37 1.232 . S
C38 O39 1.218 . S
O39 C38 1.218 . S
C40 O33 1.275 . S
C40 O35 1.255 . S
C41 O42 1.258 . S
C41 O43 1.256 . S
O42 Cd34 2.381 . S
O42 C41 1.258 . S
O43 Cd34 2.378 . S
O43 C41 1.256 . S
O44 Cd45 2.300 . S
O44 C51 1.275 . S
Cd45 O44 2.300 . S
Cd45 O53 2.381 . S
Cd45 O54 2.378 . S
O46 Cd47 2.385 . S
O46 C51 1.255 . S
Cd47 O46 2.385 . S
Cd47 O48 2.317 . S
O48 Cd47 2.317 . S
O48 C49 1.232 . S
C49 O48 1.232 . S
C49 O50 1.218 . S
O50 C49 1.218 . S
C51 O44 1.275 . S
C51 O46 1.255 . S
C52 O53 1.258 . S
C52 O54 1.256 . S
O53 Cd45 2.381 . S
O53 C52 1.258 . S
O54 Cd45 2.378 . S
O54 C52 1.256 . S
O55 Cd56 2.300 . S
O55 C62 1.275 . S
Cd56 O55 2.300 . S
Cd56 O64 2.381 . S
Cd56 O65 2.378 . S
O57 Cd58 2.385 . S
O57 C62 1.255 . S
Cd58 O57 2.385 . S
Cd58 O59 2.317 . S
O59 Cd58 2.317 . S
O59 C60 1.232 . S
C60 O59 1.232 . S
C60 O61 1.218 . S
O61 C60 1.218 . S
C62 O55 1.275 . S
C62 O57 1.255 . S
C63 O64 1.258 . S
C63 O65 1.256 . S
O64 Cd56 2.381 . S
O64 C63 1.258 . S
O65 Cd56 2.378 . S
O65 C63 1.256 . S
O66 Cd67 2.300 . S
O66 C73 1.275 . S
Cd67 O66 2.300 . S
Cd67 O75 2.381 . S
Cd67 O76 2.378 . S
O68 Cd69 2.385 . S
O68 C73 1.255 . S
Cd69 O68 2.385 . S
Cd69 O70 2.317 . S
O70 Cd69 2.317 . S
O70 C71 1.232 . S
C71 O70 1.232 . S
C71 O72 1.218 . S
O72 C71 1.218 . S
C73 O66 1.275 . S
C73 O68 1.255 . S
C74 O75 1.258 . S
C74 O76 1.256 . S
O75 Cd67 2.381 . S
O75 C74 1.258 . S
O76 Cd67 2.378 . S
O76 C74 1.256 . S
O77 Cd78 2.300 . S
O77 C84 1.275 . S
Cd78 O77 2.300 . S
Cd78 O86 2.381 . S
Cd78 O87 2.378 . S
O79 Cd80 2.385 . S
O79 C84 1.255 . S
Cd80 O79 2.385 . S
Cd80 O81 2.317 . S
O81 Cd80 2.317 . S
O81 C82 1.232 . S
C82 O81 1.232 . S
C82 O83 1.218 . S
O83 C82 1.218 . S
C84 O77 1.275 . S
C84 O79 1.255 . S
C85 O86 1.258 . S
C85 O87 1.256 . S
O86 Cd78 2.381 . S
O86 C85 1.258 . S
O87 Cd78 2.378 . S
O87 C85 1.256 . S
Ho88 C91 2.811 . S
Ho88 O108 2.322 . S
Ho88 O110 2.378 . S
Ho88 O111 2.524 . S
Ho88 O112 2.381 . S
Ho88 O113 2.669 . S
Ho88 O115 2.346 1_445 S
Ho88 O119 2.305 1_455 S
Ho89 C100 2.811 1_545 S
Ho89 O109 2.346 1_655 S
Ho89 O113 2.305 1_655 S
Ho89 O114 2.322 1_545 S
Ho89 O116 2.378 1_545 S
Ho89 O117 2.524 1_545 S
Ho89 O118 2.381 . S
Ho89 O119 2.669 . S
C90 O108 1.259 . S
C90 O109 1.268 . S
C91 Ho88 2.811 . S
C91 C92 1.488 . S
C91 O110 1.215 . S
C91 O111 1.289 . S
C92 C91 1.488 . S
C92 C93 1.348 . S
C92 C97 1.413 . S
C93 C92 1.348 . S
C93 C94 1.442 . S
C93 H120 0.930 . S
C94 C93 1.442 . S
C94 C95 1.381 . S
C94 H121 0.931 . S
C95 C94 1.381 . S
C95 C96 1.321 . S
C96 C95 1.321 . S
C96 C97 1.403 . S
C96 H122 0.934 . S
C97 C92 1.413 . S
C97 C96 1.403 . S
C97 H123 0.930 . S
C98 O112 1.275 1_565 S
C98 O113 1.256 1_565 S
C99 O114 1.259 . S
C99 O115 1.268 . S
C100 Ho89 2.811 1_565 S
C100 C101 1.488 . S
C100 O116 1.215 . S
C100 O117 1.289 . S
C101 C100 1.488 . S
C101 C102 1.348 . S
C101 C106 1.413 . S
C102 C101 1.348 . S
C102 C103 1.442 . S
C102 H124 0.930 . S
C103 C102 1.442 . S
C103 C104 1.381 . S
C103 H125 0.931 . S
C104 C103 1.381 . S
C104 C105 1.321 . S
C105 C104 1.321 . S
C105 C106 1.403 . S
C105 H126 0.934 . S
C106 C101 1.413 . S
C106 C105 1.403 . S
C106 H127 0.930 . S
C107 O118 1.275 . S
C107 O119 1.256 . S
O108 Ho88 2.322 . S
O108 C90 1.259 . S
O109 Ho89 2.346 1_455 S
O109 C90 1.268 . S
O110 Ho88 2.378 . S
O110 C91 1.215 . S
O111 Ho88 2.524 . S
O111 C91 1.289 . S
O112 Ho88 2.381 . S
O112 C98 1.275 1_545 S
O113 Ho88 2.669 . S
O113 Ho89 2.305 1_455 S
O113 C98 1.256 1_545 S
O114 Ho89 2.322 1_565 S
O114 C99 1.259 . S
O115 Ho88 2.346 1_665 S
O115 C99 1.268 . S
O116 Ho89 2.378 1_565 S
O116 C100 1.215 . S
O117 Ho89 2.524 1_565 S
O117 C100 1.289 . S
O118 Ho89 2.381 . S
O118 C107 1.275 . S
O119 Ho88 2.305 1_655 S
O119 Ho89 2.669 . S
O119 C107 1.256 . S
H120 C93 0.930 . S
H121 C94 0.931 . S
H122 C96 0.934 . S
H123 C97 0.930 . S
H124 C102 0.930 . S
H125 C103 0.931 . S
H126 C105 0.934 . S
H127 C106 0.930 . S
Ho128 C131 2.811 . S
Ho128 O148 2.322 . S
Ho128 O150 2.378 . S
Ho128 O151 2.524 . S
Ho128 O152 2.381 1_545 S
Ho128 O153 2.669 . S
Ho128 O155 2.346 . S
Ho128 O159 2.305 . S
Ho129 C140 2.811 1_544 S
Ho129 O149 2.346 . S
Ho129 O153 2.305 . S
Ho129 O154 2.322 1_554 S
Ho129 O156 2.378 1_554 S
Ho129 O157 2.524 1_544 S
Ho129 O158 2.381 . S
Ho129 O159 2.669 . S
C130 O148 1.259 . S
C130 O149 1.268 . S
C131 Ho128 2.811 . S
C131 C132 1.488 . S
C131 O150 1.215 . S
C131 O151 1.289 . S
C132 C131 1.488 . S
C132 C133 1.348 . S
C132 C137 1.413 . S
C133 C132 1.348 . S
C133 C134 1.442 . S
C133 H160 0.930 . S
C134 C133 1.442 . S
C134 C135 1.381 . S
C134 H161 0.931 . S
C135 C134 1.381 . S
C135 C136 1.321 . S
C136 C135 1.321 . S
C136 C137 1.403 . S
C136 H162 0.934 . S
C137 C132 1.413 . S
C137 C136 1.403 . S
C137 H163 0.930 . S
C138 O152 1.275 . S
C138 O153 1.256 1_565 S
C139 O154 1.273 1_554 S
C139 O155 1.268 . S
C140 Ho129 2.811 1_566 S
C140 C141 1.488 . S
C140 O156 1.215 1_565 S
C140 O157 1.289 . S
C141 C140 1.488 . S
C141 C142 1.348 . S
C141 C146 1.413 . S
C142 C141 1.348 . S
C142 C143 1.442 . S
C142 H164 0.930 . S
C143 C142 1.442 . S
C143 C144 1.381 . S
C143 H165 0.931 . S
C144 C143 1.381 . S
C144 C145 1.321 . S
C145 C144 1.321 . S
C145 C146 1.403 . S
C145 H166 0.934 . S
C146 C141 1.413 . S
C146 C145 1.403 . S
C146 H167 0.930 1_565 S
C147 O158 1.275 . S
C147 O159 1.256 . S
O148 Ho128 2.322 . S
O148 C130 1.259 . S
O149 Ho129 2.346 . S
O149 C130 1.268 . S
O150 Ho128 2.378 . S
O150 C131 1.215 . S
O151 Ho128 2.524 . S
O151 C131 1.289 . S
O152 Ho128 2.381 1_565 S
O152 C138 1.275 . S
O153 Ho128 2.669 . S
O153 Ho129 2.305 . S
O153 C138 1.256 1_545 S
O154 Ho129 2.322 1_556 S
O154 C139 1.273 1_556 S
O155 Ho128 2.346 . S
O155 C139 1.268 . S
O156 Ho129 2.378 1_556 S
O156 C140 1.215 1_545 S
O157 Ho129 2.524 1_566 S
O157 C140 1.289 . S
O158 Ho129 2.381 . S
O158 C147 1.275 . S
O159 Ho128 2.305 . S
O159 Ho129 2.669 . S
O159 C147 1.256 . S
H160 C133 0.930 . S
H161 C134 0.931 . S
H162 C136 0.934 . S
H163 C137 0.930 . S
H164 C142 0.930 . S
H165 C143 0.931 . S
H166 C145 0.934 . S
H167 C146 0.930 1_545 S
Ho168 C171 2.811 . S
Ho168 O188 2.322 . S
Ho168 O190 2.378 . S
Ho168 O191 2.524 . S
Ho168 O192 2.381 . S
Ho168 O193 2.669 . S
Ho168 O195 2.346 . S
Ho168 O199 2.305 . S
Ho169 C180 2.811 . S
Ho169 O189 2.346 . S
Ho169 O193 2.305 . S
Ho169 O194 2.322 . S
Ho169 O196 2.378 . S
Ho169 O197 2.524 . S
Ho169 O198 2.381 . S
Ho169 O199 2.669 . S
C170 O188 1.259 . S
C170 O189 1.268 . S
C171 Ho168 2.811 . S
C171 C172 1.488 . S
C171 O190 1.215 . S
C171 O191 1.289 . S
C172 C171 1.488 . S
C172 C173 1.348 . S
C172 C177 1.413 . S
C173 C172 1.348 . S
C173 C174 1.442 . S
C173 H200 0.930 . S
C174 C173 1.442 . S
C174 C175 1.381 . S
C174 H201 0.931 . S
C175 C174 1.381 . S
C175 C176 1.321 . S
C176 C175 1.321 . S
C176 C177 1.403 . S
C176 H202 0.934 . S
C177 C172 1.413 . S
C177 C176 1.403 . S
C177 H203 0.930 . S
C178 O192 1.275 . S
C178 O193 1.256 . S
C179 O194 1.259 . S
C179 O195 1.268 . S
C180 Ho169 2.811 . S
C180 C181 1.488 . S
C180 O196 1.215 . S
C180 O197 1.289 . S
C181 C180 1.488 . S
C181 C182 1.348 . S
C181 C186 1.413 . S
C182 C181 1.348 . S
C182 C183 1.442 . S
C182 H204 0.930 . S
C183 C182 1.442 . S
C183 C184 1.381 . S
C183 H205 0.931 . S
C184 C183 1.381 . S
C184 C185 1.321 . S
C185 C184 1.321 . S
C185 C186 1.403 . S
C185 H206 0.934 . S
C186 C181 1.413 . S
C186 C185 1.403 . S
C186 H207 0.930 . S
C187 O198 1.275 . S
C187 O199 1.256 . S
O188 Ho168 2.322 . S
O188 C170 1.259 . S
O189 Ho169 2.346 . S
O189 C170 1.268 . S
O190 Ho168 2.378 . S
O190 C171 1.215 . S
O191 Ho168 2.524 . S
O191 C171 1.289 . S
O192 Ho168 2.381 . S
O192 C178 1.275 . S
O193 Ho168 2.669 . S
O193 Ho169 2.305 . S
O193 C178 1.256 . S
O194 Ho169 2.322 . S
O194 C179 1.259 . S
O195 Ho168 2.346 . S
O195 C179 1.268 . S
O196 Ho169 2.378 . S
O196 C180 1.215 . S
O197 Ho169 2.524 . S
O197 C180 1.289 . S
O198 Ho169 2.381 . S
O198 C187 1.275 . S
O199 Ho168 2.305 . S
O199 Ho169 2.669 . S
O199 C187 1.256 . S
H200 C173 0.930 . S
H201 C174 0.931 . S
H202 C176 0.934 . S
H203 C177 0.930 . S
H204 C182 0.930 . S
H205 C183 0.931 . S
H206 C185 0.934 . S
H207 C186 0.930 . S
Ho208 C211 2.811 . S
Ho208 O228 2.322 . S
Ho208 O230 2.378 . S
Ho208 O231 2.524 . S
Ho208 O232 2.381 1_455 S
Ho208 O233 2.663 1_455 S
Ho208 O235 2.346 1_455 S
Ho208 O239 2.305 1_554 S
Ho209 C220 2.811 1_455 S
Ho209 O229 2.346 1_556 S
Ho209 O233 2.302 1_456 S
Ho209 O234 2.322 1_455 S
Ho209 O236 2.378 1_455 S
Ho209 O237 2.524 1_455 S
Ho209 O238 2.381 . S
Ho209 O239 2.669 . S
C210 O228 1.259 . S
C210 O229 1.268 . S
C211 Ho208 2.811 . S
C211 C212 1.488 . S
C211 O230 1.215 . S
C211 O231 1.289 . S
C212 C211 1.488 . S
C212 C213 1.348 . S
C212 C217 1.413 . S
C213 C212 1.348 . S
C213 C214 1.442 . S
C213 H240 0.930 . S
C214 C213 1.442 . S
C214 C215 1.381 . S
C214 H241 0.931 . S
C215 C214 1.381 . S
C215 C216 1.321 . S
C216 C215 1.321 . S
C216 C217 1.403 . S
C216 H242 0.934 . S
C217 C212 1.413 . S
C217 C216 1.403 . S
C217 H243 0.930 . S
C218 O232 1.275 . S
C218 O233 1.258 . S
C219 O234 1.259 . S
C219 O235 1.268 1_556 S
C220 Ho209 2.811 1_655 S
C220 C221 1.488 . S
C220 O236 1.215 . S
C220 O237 1.289 . S
C221 C220 1.488 . S
C221 C222 1.348 . S
C221 C226 1.413 . S
C222 C221 1.348 . S
C222 C223 1.442 . S
C222 H244 0.930 . S
C223 C222 1.442 . S
C223 C224 1.381 . S
C223 H245 0.931 . S
C224 C223 1.381 . S
C224 C225 1.321 . S
C225 C224 1.321 . S
C225 C226 1.403 . S
C225 H246 0.934 . S
C226 C221 1.413 . S
C226 C225 1.403 . S
C226 H247 0.930 . S
C227 O238 1.275 . S
C227 O239 1.256 . S
O228 Ho208 2.322 . S
O228 C210 1.259 . S
O229 Ho209 2.346 1_554 S
O229 C210 1.268 . S
O230 Ho208 2.378 . S
O230 C211 1.215 . S
O231 Ho208 2.524 . S
O231 C211 1.289 . S
O232 Ho208 2.381 1_655 S
O232 C218 1.275 . S
O233 Ho208 2.663 1_655 S
O233 Ho209 2.302 1_654 S
O233 C218 1.258 . S
O234 Ho209 2.322 1_655 S
O234 C219 1.259 . S
O235 Ho208 2.346 1_655 S
O235 C219 1.268 1_554 S
O236 Ho209 2.378 1_655 S
O236 C220 1.215 . S
O237 Ho209 2.524 1_655 S
O237 C220 1.289 . S
O238 Ho209 2.381 . S
O238 C227 1.275 . S
O239 Ho208 2.305 1_556 S
O239 Ho209 2.669 . S
O239 C227 1.256 . S
H240 C213 0.930 . S
H241 C214 0.931 . S
H242 C216 0.934 . S
H243 C217 0.930 . S
H244 C222 0.930 . S
H245 C223 0.931 . S
H246 C225 0.934 . S
H247 C226 0.930 . S
C248 C249 1.369 . S
C248 C250 1.419 . S
C248 H252 0.930 . S
C249 C248 1.369 . S
C249 C258 1.429 . S
C250 C248 1.419 . S
C250 C251 1.363 . S
C250 H253 0.929 . S
C251 C250 1.363 . S
C251 C257 1.428 . S
H252 C248 0.930 . S
H253 C250 0.929 . S
S254 N255 1.613 . S
S254 N256 1.610 . S
N255 S254 1.613 . S
N255 C258 1.350 . S
N256 S254 1.610 . S
N256 C257 1.351 . S
C257 C251 1.428 . S
C257 N256 1.351 . S
C257 C258 1.434 . S
C258 C249 1.429 . S
C258 N255 1.350 . S
C258 C257 1.434 . S
C259 C260 1.369 . S
C259 C261 1.419 . S
C259 H263 0.930 . S
C260 C259 1.369 . S
C260 C269 1.429 . S
C261 C259 1.419 . S
C261 C262 1.363 . S
C261 H264 0.929 . S
C262 C261 1.363 . S
C262 C268 1.428 . S
H263 C259 0.930 . S
H264 C261 0.929 . S
S265 N266 1.613 . S
S265 N267 1.610 . S
N266 S265 1.613 . S
N266 C269 1.350 . S
N267 S265 1.610 . S
N267 C268 1.351 . S
C268 C262 1.428 . S
C268 N267 1.351 . S
C268 C269 1.434 . S
C269 C260 1.429 . S
C269 N266 1.350 . S
C269 C268 1.434 . S
C270 C271 1.369 . S
C270 C272 1.419 . S
C270 H274 0.930 . S
C271 C270 1.369 . S
C271 C280 1.429 . S
C272 C270 1.419 . S
C272 C273 1.363 . S
C272 H275 0.929 . S
C273 C272 1.363 . S
C273 C279 1.428 . S
H274 C270 0.930 . S
H275 C272 0.929 . S
S276 N277 1.613 . S
S276 N278 1.610 . S
N277 S276 1.613 . S
N277 C280 1.350 . S
N278 S276 1.610 . S
N278 C279 1.351 . S
C279 C273 1.428 . S
C279 N278 1.351 . S
C279 C280 1.434 . S
C280 C271 1.429 . S
C280 N277 1.350 . S
C280 C279 1.434 . S
C281 C282 1.369 . S
C281 C283 1.419 . S
C281 H285 0.935 . S
C282 C281 1.369 . S
C282 C291 1.429 . S
C283 C281 1.419 . S
C283 C284 1.363 . S
C283 H286 0.929 1_655 S
C284 C283 1.363 . S
C284 C290 1.428 . S
H285 C281 0.935 . S
H286 C283 0.929 1_455 S
S287 N288 1.613 . S
S287 N289 1.610 . S
N288 S287 1.613 . S
N288 C291 1.350 . S
N289 S287 1.610 . S
N289 C290 1.351 . S
C290 C284 1.428 . S
C290 N289 1.351 . S
C290 C291 1.434 . S
C291 C282 1.429 . S
C291 N288 1.350 . S
C291 C290 1.434 . S
C292 C293 1.369 . S
C292 C294 1.419 . S
C292 H296 0.930 . S
C293 C292 1.369 . S
C293 C302 1.429 . S
C294 C292 1.419 . S
C294 C295 1.363 . S
C294 H297 0.929 . S
C295 C294 1.363 . S
C295 C301 1.428 . S
H296 C292 0.930 . S
H297 C294 0.929 . S
S298 N299 1.613 . S
S298 N300 1.610 . S
N299 S298 1.613 . S
N299 C302 1.350 . S
N300 S298 1.610 . S
N300 C301 1.351 . S
C301 C295 1.428 . S
C301 N300 1.351 . S
C301 C302 1.434 . S
C302 C293 1.429 . S
C302 N299 1.350 . S
C302 C301 1.434 . S
C303 C304 1.369 . S
C303 C305 1.419 . S
C303 H307 0.930 . S
C304 C303 1.369 . S
C304 C313 1.429 . S
C305 C303 1.419 . S
C305 C306 1.363 . S
C305 H308 0.929 . S
C306 C305 1.363 . S
C306 C312 1.428 . S
H307 C303 0.930 . S
H308 C305 0.929 . S
S309 N310 1.613 1_545 S
S309 N311 1.610 . S
N310 S309 1.613 1_565 S
N310 C313 1.350 . S
N311 S309 1.610 . S
N311 C312 1.351 1_545 S
C312 C306 1.428 . S
C312 N311 1.351 1_565 S
C312 C313 1.434 . S
C313 C304 1.429 . S
C313 N310 1.350 . S
C313 C312 1.434 . S
C314 C315 1.369 . S
C314 C316 1.419 . S
C314 H318 0.930 . S
C315 C314 1.369 . S
C315 C324 1.429 . S
C316 C314 1.419 . S
C316 C317 1.363 . S
C316 H319 0.929 . S
C317 C316 1.363 . S
C317 C323 1.428 . S
H318 C314 0.930 . S
H319 C316 0.929 . S
S320 N321 1.613 . S
S320 N322 1.610 . S
N321 S320 1.613 . S
N321 C324 1.350 . S
N322 S320 1.610 . S
N322 C323 1.351 . S
C323 C317 1.428 . S
C323 N322 1.351 . S
C323 C324 1.434 . S
C324 C315 1.429 . S
C324 N321 1.350 . S
C324 C323 1.434 . S
C325 C326 1.369 . S
C325 C327 1.419 . S
C325 H329 0.930 . S
C326 C325 1.369 . S
C326 C335 1.429 . S
C327 C325 1.419 . S
C327 C328 1.363 . S
C327 H330 0.929 . S
C328 C327 1.363 . S
C328 C334 1.428 . S
H329 C325 0.930 . S
H330 C327 0.929 . S
S331 N332 1.613 . S
S331 N333 1.610 . S
N332 S331 1.613 . S
N332 C335 1.350 . S
N333 S331 1.610 . S
N333 C334 1.351 . S
C334 C328 1.428 . S
C334 N333 1.351 . S
C334 C335 1.434 . S
C335 C326 1.429 . S
C335 N332 1.350 . S
C335 C334 1.434 . S
C336 C337 1.369 . S
C336 C338 1.419 . S
C336 H340 0.930 . S
C337 C336 1.369 . S
C337 C346 1.429 . S
C338 C336 1.419 . S
C338 C339 1.363 . S
C338 H341 0.929 . S
C339 C338 1.363 . S
C339 C345 1.428 . S
H340 C336 0.930 . S
H341 C338 0.929 . S
S342 N343 1.613 . S
S342 N344 1.610 . S
N343 S342 1.613 . S
N343 C346 1.350 . S
N344 S342 1.610 . S
N344 C345 1.351 . S
C345 C339 1.428 . S
C345 N344 1.351 . S
C345 C346 1.434 . S
C346 C337 1.429 . S
C346 N343 1.350 . S
C346 C345 1.434 . S
C347 C348 1.369 . S
C347 C349 1.419 1_556 S
C347 H351 0.930 . S
C348 C347 1.369 . S
C348 C357 1.429 . S
C349 C347 1.419 1_554 S
C349 C350 1.362 . S
C349 H352 0.929 . S
C350 C349 1.362 . S
C350 C356 1.417 1_554 S
H351 C347 0.930 . S
H352 C349 0.929 . S
S353 N354 1.613 . S
S353 N355 1.610 . S
N354 S353 1.613 . S
N354 C357 1.350 . S
N355 S353 1.610 . S
N355 C356 1.351 . S
C356 C350 1.417 1_556 S
C356 N355 1.351 . S
C356 C357 1.434 . S
C357 C348 1.429 . S
C357 N354 1.350 . S
C357 C356 1.434 . S
C358 C359 1.369 . S
C358 C360 1.419 . S
C358 H362 0.930 . S
C359 C358 1.369 . S
C359 C368 1.429 . S
C360 C358 1.419 . S
C360 C361 1.363 . S
C360 H363 0.929 . S
C361 C360 1.363 . S
C361 C367 1.428 . S
H362 C358 0.930 . S
H363 C360 0.929 . S
S364 N365 1.613 . S
S364 N366 1.610 . S
N365 S364 1.613 . S
N365 C368 1.350 . S
N366 S364 1.610 . S
N366 C367 1.351 . S
C367 C361 1.428 . S
C367 N366 1.351 . S
C367 C368 1.434 . S
C368 C359 1.429 . S
C368 N365 1.350 . S
C368 C367 1.434 . S
C369 C370 1.369 . S
C369 C371 1.419 . S
C369 H373 0.930 . S
C370 C369 1.369 . S
C370 C379 1.429 . S
C371 C369 1.419 . S
C371 C372 1.363 . S
C371 H374 0.929 . S
C372 C371 1.363 . S
C372 C378 1.428 . S
H373 C369 0.930 . S
H374 C371 0.929 . S
S375 N376 1.613 . S
S375 N377 1.610 . S
N376 S375 1.613 . S
N376 C379 1.350 . S
N377 S375 1.610 . S
N377 C378 1.351 . S
C378 C372 1.428 . S
C378 N377 1.351 . S
C378 C379 1.434 . S
C379 C370 1.429 . S
C379 N376 1.350 . S
C379 C378 1.434 . S
C380 C381 1.369 . S
C380 C382 1.419 . S
C380 H384 0.930 . S
C381 C380 1.369 . S
C381 C390 1.429 . S
C382 C380 1.419 . S
C382 C383 1.363 . S
C382 H385 0.929 . S
C383 C382 1.363 . S
C383 C389 1.428 . S
H384 C380 0.930 . S
H385 C382 0.929 . S
S386 N387 1.613 . S
S386 N388 1.610 . S
N387 S386 1.613 . S
N387 C390 1.350 . S
N388 S386 1.610 . S
N388 C389 1.351 . S
C389 C383 1.428 . S
C389 N388 1.351 . S
C389 C390 1.434 . S
C390 C381 1.429 . S
C390 N387 1.350 . S
C390 C389 1.434 . S
C391 C392 1.369 . S
C391 C393 1.419 . S
C391 H395 0.930 . S
C392 C391 1.369 . S
C392 C401 1.429 . S
C393 C391 1.419 . S
C393 C394 1.363 . S
C393 H396 0.929 . S
C394 C393 1.363 . S
C394 C400 1.428 . S
H395 C391 0.930 . S
H396 C393 0.929 . S
S397 N398 1.613 . S
S397 N399 1.610 . S
N398 S397 1.613 . S
N398 C401 1.350 . S
N399 S397 1.610 . S
N399 C400 1.351 . S
C400 C394 1.428 . S
C400 N399 1.351 . S
C400 C401 1.434 . S
C401 C392 1.429 . S
C401 N398 1.350 . S
C401 C400 1.434 . S
C402 C403 1.369 . S
C402 C404 1.419 . S
C402 H406 0.930 . S
C403 C402 1.369 . S
C403 C412 1.429 . S
C404 C402 1.419 . S
C404 C405 1.363 . S
C404 H407 0.929 . S
C405 C404 1.363 . S
C405 C411 1.428 . S
H406 C402 0.930 . S
H407 C404 0.929 . S
S408 N409 1.613 . S
S408 N410 1.610 . S
N409 S408 1.613 . S
N409 C412 1.350 . S
N410 S408 1.610 . S
N410 C411 1.351 . S
C411 C405 1.428 . S
C411 N410 1.351 . S
C411 C412 1.434 . S
C412 C403 1.429 . S
C412 N409 1.350 . S
C412 C411 1.434 . S
C413 C414 1.369 . S
C413 C415 1.419 . S
C413 H417 0.930 . S
C414 C413 1.369 . S
C414 C423 1.429 . S
C415 C413 1.419 . S
C415 C416 1.363 . S
C415 H418 0.929 . S
C416 C415 1.363 . S
C416 C422 1.428 . S
H417 C413 0.930 . S
H418 C415 0.929 . S
S419 N420 1.613 . S
S419 N421 1.610 . S
N420 S419 1.613 . S
N420 C423 1.350 . S
N421 S419 1.610 . S
N421 C422 1.351 . S
C422 C416 1.428 . S
C422 N421 1.351 . S
C422 C423 1.434 . S
C423 C414 1.429 . S
C423 N420 1.350 . S
C423 C422 1.434 . S
C424 C425 1.369 . S
C424 C426 1.419 . S
C424 H428 0.930 . S
C425 C424 1.369 . S
C425 C434 1.429 . S
C426 C424 1.419 . S
C426 C427 1.363 . S
C426 H429 0.929 . S
C427 C426 1.363 . S
C427 C433 1.428 . S
H428 C424 0.930 . S
H429 C426 0.929 . S
S430 N431 1.613 . S
S430 N432 1.610 . S
N431 S430 1.613 . S
N431 C434 1.350 . S
N432 S430 1.610 . S
N432 C433 1.351 . S
C433 C427 1.428 . S
C433 N432 1.351 . S
C433 C434 1.434 . S
C434 C425 1.429 . S
C434 N431 1.350 . S
C434 C433 1.434 . S
C435 C436 1.369 . S
C435 C437 1.419 . S
C435 H439 0.930 . S
C436 C435 1.369 . S
C436 C445 1.429 . S
C437 C435 1.419 . S
C437 C438 1.363 . S
C437 H440 0.929 . S
C438 C437 1.363 . S
C438 C444 1.428 . S
H439 C435 0.930 . S
H440 C437 0.929 . S
S441 N442 1.613 1_455 S
S441 N443 1.610 1_455 S
N442 S441 1.613 1_655 S
N442 C445 1.350 . S
N443 S441 1.610 1_655 S
N443 C444 1.351 . S
C444 C438 1.428 . S
C444 N443 1.351 . S
C444 C445 1.434 . S
C445 C436 1.429 . S
C445 N442 1.350 . S
C445 C444 1.434 . S
C446 C447 1.369 . S
C446 C448 1.419 . S
C446 H450 0.930 . S
C447 C446 1.369 . S
C447 C456 1.429 . S
C448 C446 1.419 . S
C448 C449 1.363 . S
C448 H451 0.929 . S
C449 C448 1.363 . S
C449 C455 1.428 . S
H450 C446 0.930 . S
H451 C448 0.929 . S
S452 N453 1.613 . S
S452 N454 1.610 . S
N453 S452 1.613 . S
N453 C456 1.350 . S
N454 S452 1.610 . S
N454 C455 1.351 . S
C455 C449 1.428 . S
C455 N454 1.351 . S
C455 C456 1.434 . S
C456 C447 1.429 . S
C456 N453 1.350 . S
C456 C455 1.434 . S
C457 C458 1.369 . S
C457 C459 1.419 . S
C457 H461 0.930 . S
C458 C457 1.369 . S
C458 C467 1.429 . S
C459 C457 1.419 . S
C459 C460 1.363 . S
C459 H462 0.929 . S
C460 C459 1.363 . S
C460 C466 1.428 . S
H461 C457 0.930 . S
H462 C459 0.929 . S
S463 N464 1.613 . S
S463 N465 1.610 . S
N464 S463 1.613 . S
N464 C467 1.350 . S
N465 S463 1.610 . S
N465 C466 1.351 . S
C466 C460 1.428 . S
C466 N465 1.351 . S
C466 C467 1.434 . S
C467 C458 1.429 . S
C467 N464 1.350 . S
C467 C466 1.434 . S
C468 C469 1.369 . S
C468 C470 1.419 . S
C468 H472 0.930 . S
C469 C468 1.369 . S
C469 C478 1.429 . S
C470 C468 1.419 . S
C470 C471 1.363 . S
C470 H473 0.929 . S
C471 C470 1.363 . S
C471 C477 1.428 . S
H472 C468 0.930 . S
H473 C470 0.929 . S
S474 N475 1.613 . S
S474 N476 1.610 . S
N475 S474 1.613 . S
N475 C478 1.350 . S
N476 S474 1.610 . S
N476 C477 1.351 . S
C477 C471 1.428 . S
C477 N476 1.351 . S
C477 C478 1.434 . S
C478 C469 1.429 . S
C478 N475 1.350 . S
C478 C477 1.434 . S
C479 C480 1.369 . S
C479 C481 1.419 . S
C479 H483 0.930 . S
C480 C479 1.369 . S
C480 C489 1.429 . S
C481 C479 1.419 . S
C481 C482 1.363 . S
C481 H484 0.929 . S
C482 C481 1.363 . S
C482 C488 1.428 . S
H483 C479 0.930 . S
H484 C481 0.929 . S
S485 N486 1.613 . S
S485 N487 1.610 . S
N486 S485 1.613 . S
N486 C489 1.350 . S
N487 S485 1.610 . S
N487 C488 1.351 . S
C488 C482 1.428 . S
C488 N487 1.351 . S
C488 C489 1.434 . S
C489 C480 1.429 . S
C489 N486 1.350 . S
C489 C488 1.434 . S
C490 C491 1.369 . S
C490 C492 1.419 . S
C490 H494 0.930 . S
C491 C490 1.369 . S
C491 C500 1.429 . S
C492 C490 1.419 . S
C492 C493 1.363 . S
C492 H495 0.929 . S
C493 C492 1.363 . S
C493 C499 1.428 . S
H494 C490 0.930 . S
H495 C492 0.929 . S
S496 N497 1.613 1_655 S
S496 N498 1.610 1_655 S
N497 S496 1.613 1_455 S
N497 C500 1.350 . S
N498 S496 1.610 1_455 S
N498 C499 1.351 . S
C499 C493 1.428 . S
C499 N498 1.351 . S
C499 C500 1.434 . S
C500 C491 1.429 . S
C500 N497 1.350 . S
C500 C499 1.434 . S
C501 C502 1.369 . S
C501 C503 1.419 . S
C501 H505 0.930 . S
C502 C501 1.369 . S
C502 C511 1.429 . S
C503 C501 1.419 . S
C503 C504 1.363 . S
C503 H506 0.929 . S
C504 C503 1.363 . S
C504 C510 1.428 . S
H505 C501 0.930 . S
H506 C503 0.929 . S
S507 N508 1.613 . S
S507 N509 1.610 . S
N508 S507 1.613 . S
N508 C511 1.350 . S
N509 S507 1.610 . S
N509 C510 1.351 . S
C510 C504 1.428 . S
C510 N509 1.351 . S
C510 C511 1.434 . S
C511 C502 1.429 . S
C511 N508 1.350 . S
C511 C510 1.434 . S
C249 C5 1.002 . S
C251 C95 1.260 . S
C260 C18 1.041 . S
C262 C144 1.190 . S
C273 C170 2.375 . S
C271 C30 2.415 . S
C282 C41 2.202 . S
C284 C218 2.166 . S
C295 C130 2.308 . S
C293 C7 2.050 . S
C306 C98 0.847 . S
C304 C16 0.820 . S
C317 C219 2.009 . S
C315 C29 1.973 . S
C328 C187 1.387 . S
C326 C38 1.275 . S
C337 C8 1.471 . S
C339 C215 1.604 . S
C350 C147 2.561 . S
C348 C27 2.360 . S
C359 C40 2.469 . S
C361 C99 2.472 . S
C370 C19 1.051 . S
C372 C184 1.063 . S
C383 C104 1.262 . S
C381 C51 0.996 . S
C392 C62 1.502 . S
C394 C135 1.417 . S
C403 C74 2.510 . S
C405 C179 2.478 . S
C414 C84 2.268 . S
C416 C227 2.368 . S
C425 C49 1.784 . S
C427 C139 2.490 1_566 S
C438 C107 0.961 . S
C436 C63 0.975 . S
C449 C210 1.856 . S
C447 C71 1.766 . S
C460 C178 1.540 . S
C458 C85 1.518 . S
C469 C52 1.533 . S
C471 C224 1.689 . S
C482 C138 2.647 . S
C480 C73 2.720 . S
C493 C90 2.101 . S
C491 C82 1.784 . S
C502 C60 0.941 . S
C504 C175 1.024 . S
