# Generated by pormake.
# Topology gar, (4,6)-cn, num edge types: 1
# Building blocks:
#     Node 0, Type 0, BuildingBlock: AZAVOO_clean_sbu_0, # of connection points: 4
#     Node 1, Type 0, BuildingBlock: AZAVOO_clean_sbu_0, # of connection points: 4
#     Node 2, Type 0, BuildingBlock: AZAVOO_clean_sbu_0, # of connection points: 4
#     Node 3, Type 0, BuildingBlock: AZAVOO_clean_sbu_0, # of connection points: 4
#     Node 4, Type 0, BuildingBlock: AZAVOO_clean_sbu_0, # of connection points: 4
#     Node 5, Type 0, BuildingBlock: AZAVOO_clean_sbu_0, # of connection points: 4
#     Node 6, Type 0, BuildingBlock: AZAVOO_clean_sbu_0, # of connection points: 4
#     Node 7, Type 0, BuildingBlock: AZAVOO_clean_sbu_0, # of connection points: 4
#     Node 8, Type 0, BuildingBlock: AZAVOO_clean_sbu_0, # of connection points: 4
#     Node 9, Type 0, BuildingBlock: AZAVOO_clean_sbu_0, # of connection points: 4
#     Node 10, Type 0, BuildingBlock: AZAVOO_clean_sbu_0, # of connection points: 4
#     Node 11, Type 0, BuildingBlock: AZAVOO_clean_sbu_0, # of connection points: 4
#     Node 12, Type 0, BuildingBlock: AZAVOO_clean_sbu_0, # of connection points: 4
#     Node 13, Type 0, BuildingBlock: AZAVOO_clean_sbu_0, # of connection points: 4
#     Node 14, Type 0, BuildingBlock: AZAVOO_clean_sbu_0, # of connection points: 4
#     Node 15, Type 0, BuildingBlock: AZAVOO_clean_sbu_0, # of connection points: 4
#     Node 16, Type 0, BuildingBlock: AZAVOO_clean_sbu_0, # of connection points: 4
#     Node 17, Type 0, BuildingBlock: AZAVOO_clean_sbu_0, # of connection points: 4
#     Node 18, Type 0, BuildingBlock: AZAVOO_clean_sbu_0, # of connection points: 4
#     Node 19, Type 0, BuildingBlock: AZAVOO_clean_sbu_0, # of connection points: 4
#     Node 20, Type 0, BuildingBlock: AZAVOO_clean_sbu_0, # of connection points: 4
#     Node 21, Type 0, BuildingBlock: AZAVOO_clean_sbu_0, # of connection points: 4
#     Node 22, Type 0, BuildingBlock: AZAVOO_clean_sbu_0, # of connection points: 4
#     Node 23, Type 0, BuildingBlock: AZAVOO_clean_sbu_0, # of connection points: 4
#     Node 24, Type 1, BuildingBlock: KUMJIN_clean_sbu_1, # of connection points: 6
#     Node 25, Type 1, BuildingBlock: KUMJIN_clean_sbu_1, # of connection points: 6
#     Node 26, Type 1, BuildingBlock: KUMJIN_clean_sbu_1, # of connection points: 6
#     Node 27, Type 1, BuildingBlock: KUMJIN_clean_sbu_1, # of connection points: 6
#     Node 28, Type 1, BuildingBlock: KUMJIN_clean_sbu_1, # of connection points: 6
#     Node 29, Type 1, BuildingBlock: KUMJIN_clean_sbu_1, # of connection points: 6
#     Node 30, Type 1, BuildingBlock: KUMJIN_clean_sbu_1, # of connection points: 6
#     Node 31, Type 1, BuildingBlock: KUMJIN_clean_sbu_1, # of connection points: 6
#     Node 32, Type 1, BuildingBlock: KUMJIN_clean_sbu_1, # of connection points: 6
#     Node 33, Type 1, BuildingBlock: KUMJIN_clean_sbu_1, # of connection points: 6
#     Node 34, Type 1, BuildingBlock: KUMJIN_clean_sbu_1, # of connection points: 6
#     Node 35, Type 1, BuildingBlock: KUMJIN_clean_sbu_1, # of connection points: 6
#     Node 36, Type 1, BuildingBlock: KUMJIN_clean_sbu_1, # of connection points: 6
#     Node 37, Type 1, BuildingBlock: KUMJIN_clean_sbu_1, # of connection points: 6
#     Node 38, Type 1, BuildingBlock: KUMJIN_clean_sbu_1, # of connection points: 6
#     Node 39, Type 1, BuildingBlock: KUMJIN_clean_sbu_1, # of connection points: 6
#     Edge 40, Type (0, 1), BuildingBlock: CIFDUS_clean_linker_0, # of connection points: 2
#     Edge 41, Type (0, 1), BuildingBlock: CIFDUS_clean_linker_0, # of connection points: 2
#     Edge 42, Type (0, 1), BuildingBlock: CIFDUS_clean_linker_0, # of connection points: 2
#     Edge 43, Type (0, 1), BuildingBlock: CIFDUS_clean_linker_0, # of connection points: 2
#     Edge 44, Type (0, 1), BuildingBlock: CIFDUS_clean_linker_0, # of connection points: 2
#     Edge 45, Type (0, 1), BuildingBlock: CIFDUS_clean_linker_0, # of connection points: 2
#     Edge 46, Type (0, 1), BuildingBlock: CIFDUS_clean_linker_0, # of connection points: 2
#     Edge 47, Type (0, 1), BuildingBlock: CIFDUS_clean_linker_0, # of connection points: 2
#     Edge 48, Type (0, 1), BuildingBlock: CIFDUS_clean_linker_0, # of connection points: 2
#     Edge 49, Type (0, 1), BuildingBlock: CIFDUS_clean_linker_0, # of connection points: 2
#     Edge 50, Type (0, 1), BuildingBlock: CIFDUS_clean_linker_0, # of connection points: 2
#     Edge 51, Type (0, 1), BuildingBlock: CIFDUS_clean_linker_0, # of connection points: 2
#     Edge 52, Type (0, 1), BuildingBlock: CIFDUS_clean_linker_0, # of connection points: 2
#     Edge 53, Type (0, 1), BuildingBlock: CIFDUS_clean_linker_0, # of connection points: 2
#     Edge 54, Type (0, 1), BuildingBlock: CIFDUS_clean_linker_0, # of connection points: 2
#     Edge 55, Type (0, 1), BuildingBlock: CIFDUS_clean_linker_0, # of connection points: 2
#     Edge 56, Type (0, 1), BuildingBlock: CIFDUS_clean_linker_0, # of connection points: 2
#     Edge 57, Type (0, 1), BuildingBlock: CIFDUS_clean_linker_0, # of connection points: 2
#     Edge 58, Type (0, 1), BuildingBlock: CIFDUS_clean_linker_0, # of connection points: 2
#     Edge 59, Type (0, 1), BuildingBlock: CIFDUS_clean_linker_0, # of connection points: 2
#     Edge 60, Type (0, 1), BuildingBlock: CIFDUS_clean_linker_0, # of connection points: 2
#     Edge 61, Type (0, 1), BuildingBlock: CIFDUS_clean_linker_0, # of connection points: 2
#     Edge 62, Type (0, 1), BuildingBlock: CIFDUS_clean_linker_0, # of connection points: 2
#     Edge 63, Type (0, 1), BuildingBlock: CIFDUS_clean_linker_0, # of connection points: 2
#     Edge 64, Type (0, 1), BuildingBlock: CIFDUS_clean_linker_0, # of connection points: 2
#     Edge 65, Type (0, 1), BuildingBlock: CIFDUS_clean_linker_0, # of connection points: 2
#     Edge 66, Type (0, 1), BuildingBlock: CIFDUS_clean_linker_0, # of connection points: 2
#     Edge 67, Type (0, 1), BuildingBlock: CIFDUS_clean_linker_0, # of connection points: 2
#     Edge 68, Type (0, 1), BuildingBlock: CIFDUS_clean_linker_0, # of connection points: 2
#     Edge 69, Type (0, 1), BuildingBlock: CIFDUS_clean_linker_0, # of connection points: 2
#     Edge 70, Type (0, 1), BuildingBlock: CIFDUS_clean_linker_0, # of connection points: 2
#     Edge 71, Type (0, 1), BuildingBlock: CIFDUS_clean_linker_0, # of connection points: 2
#     Edge 72, Type (0, 1), BuildingBlock: CIFDUS_clean_linker_0, # of connection points: 2
#     Edge 73, Type (0, 1), BuildingBlock: CIFDUS_clean_linker_0, # of connection points: 2
#     Edge 74, Type (0, 1), BuildingBlock: CIFDUS_clean_linker_0, # of connection points: 2
#     Edge 75, Type (0, 1), BuildingBlock: CIFDUS_clean_linker_0, # of connection points: 2
#     Edge 76, Type (0, 1), BuildingBlock: CIFDUS_clean_linker_0, # of connection points: 2
#     Edge 77, Type (0, 1), BuildingBlock: CIFDUS_clean_linker_0, # of connection points: 2
#     Edge 78, Type (0, 1), BuildingBlock: CIFDUS_clean_linker_0, # of connection points: 2
#     Edge 79, Type (0, 1), BuildingBlock: CIFDUS_clean_linker_0, # of connection points: 2
#     Edge 80, Type (0, 1), BuildingBlock: CIFDUS_clean_linker_0, # of connection points: 2
#     Edge 81, Type (0, 1), BuildingBlock: CIFDUS_clean_linker_0, # of connection points: 2
#     Edge 82, Type (0, 1), BuildingBlock: CIFDUS_clean_linker_0, # of connection points: 2
#     Edge 83, Type (0, 1), BuildingBlock: CIFDUS_clean_linker_0, # of connection points: 2
#     Edge 84, Type (0, 1), BuildingBlock: CIFDUS_clean_linker_0, # of connection points: 2
#     Edge 85, Type (0, 1), BuildingBlock: CIFDUS_clean_linker_0, # of connection points: 2
#     Edge 86, Type (0, 1), BuildingBlock: CIFDUS_clean_linker_0, # of connection points: 2
#     Edge 87, Type (0, 1), BuildingBlock: CIFDUS_clean_linker_0, # of connection points: 2
#     Edge 88, Type (0, 1), BuildingBlock: CIFDUS_clean_linker_0, # of connection points: 2
#     Edge 89, Type (0, 1), BuildingBlock: CIFDUS_clean_linker_0, # of connection points: 2
#     Edge 90, Type (0, 1), BuildingBlock: CIFDUS_clean_linker_0, # of connection points: 2
#     Edge 91, Type (0, 1), BuildingBlock: CIFDUS_clean_linker_0, # of connection points: 2
#     Edge 92, Type (0, 1), BuildingBlock: CIFDUS_clean_linker_0, # of connection points: 2
#     Edge 93, Type (0, 1), BuildingBlock: CIFDUS_clean_linker_0, # of connection points: 2
#     Edge 94, Type (0, 1), BuildingBlock: CIFDUS_clean_linker_0, # of connection points: 2
#     Edge 95, Type (0, 1), BuildingBlock: CIFDUS_clean_linker_0, # of connection points: 2
#     Edge 96, Type (0, 1), BuildingBlock: CIFDUS_clean_linker_0, # of connection points: 2
#     Edge 97, Type (0, 1), BuildingBlock: CIFDUS_clean_linker_0, # of connection points: 2
#     Edge 98, Type (0, 1), BuildingBlock: CIFDUS_clean_linker_0, # of connection points: 2
#     Edge 99, Type (0, 1), BuildingBlock: CIFDUS_clean_linker_0, # of connection points: 2
#     Edge 100, Type (0, 1), BuildingBlock: CIFDUS_clean_linker_0, # of connection points: 2
#     Edge 101, Type (0, 1), BuildingBlock: CIFDUS_clean_linker_0, # of connection points: 2
#     Edge 102, Type (0, 1), BuildingBlock: CIFDUS_clean_linker_0, # of connection points: 2
#     Edge 103, Type (0, 1), BuildingBlock: CIFDUS_clean_linker_0, # of connection points: 2
#     Edge 104, Type (0, 1), BuildingBlock: CIFDUS_clean_linker_0, # of connection points: 2
#     Edge 105, Type (0, 1), BuildingBlock: CIFDUS_clean_linker_0, # of connection points: 2
#     Edge 106, Type (0, 1), BuildingBlock: CIFDUS_clean_linker_0, # of connection points: 2
#     Edge 107, Type (0, 1), BuildingBlock: CIFDUS_clean_linker_0, # of connection points: 2
#     Edge 108, Type (0, 1), BuildingBlock: CIFDUS_clean_linker_0, # of connection points: 2
#     Edge 109, Type (0, 1), BuildingBlock: CIFDUS_clean_linker_0, # of connection points: 2
#     Edge 110, Type (0, 1), BuildingBlock: CIFDUS_clean_linker_0, # of connection points: 2
#     Edge 111, Type (0, 1), BuildingBlock: CIFDUS_clean_linker_0, # of connection points: 2
#     Edge 112, Type (0, 1), BuildingBlock: CIFDUS_clean_linker_0, # of connection points: 2
#     Edge 113, Type (0, 1), BuildingBlock: CIFDUS_clean_linker_0, # of connection points: 2
#     Edge 114, Type (0, 1), BuildingBlock: CIFDUS_clean_linker_0, # of connection points: 2
#     Edge 115, Type (0, 1), BuildingBlock: CIFDUS_clean_linker_0, # of connection points: 2
#     Edge 116, Type (0, 1), BuildingBlock: CIFDUS_clean_linker_0, # of connection points: 2
#     Edge 117, Type (0, 1), BuildingBlock: CIFDUS_clean_linker_0, # of connection points: 2
#     Edge 118, Type (0, 1), BuildingBlock: CIFDUS_clean_linker_0, # of connection points: 2
#     Edge 119, Type (0, 1), BuildingBlock: CIFDUS_clean_linker_0, # of connection points: 2
#     Edge 120, Type (0, 1), BuildingBlock: CIFDUS_clean_linker_0, # of connection points: 2
#     Edge 121, Type (0, 1), BuildingBlock: CIFDUS_clean_linker_0, # of connection points: 2
#     Edge 122, Type (0, 1), BuildingBlock: CIFDUS_clean_linker_0, # of connection points: 2
#     Edge 123, Type (0, 1), BuildingBlock: CIFDUS_clean_linker_0, # of connection points: 2
#     Edge 124, Type (0, 1), BuildingBlock: CIFDUS_clean_linker_0, # of connection points: 2
#     Edge 125, Type (0, 1), BuildingBlock: CIFDUS_clean_linker_0, # of connection points: 2
#     Edge 126, Type (0, 1), BuildingBlock: CIFDUS_clean_linker_0, # of connection points: 2
#     Edge 127, Type (0, 1), BuildingBlock: CIFDUS_clean_linker_0, # of connection points: 2
#     Edge 128, Type (0, 1), BuildingBlock: CIFDUS_clean_linker_0, # of connection points: 2
#     Edge 129, Type (0, 1), BuildingBlock: CIFDUS_clean_linker_0, # of connection points: 2
#     Edge 130, Type (0, 1), BuildingBlock: CIFDUS_clean_linker_0, # of connection points: 2
#     Edge 131, Type (0, 1), BuildingBlock: CIFDUS_clean_linker_0, # of connection points: 2
#     Edge 132, Type (0, 1), BuildingBlock: CIFDUS_clean_linker_0, # of connection points: 2
#     Edge 133, Type (0, 1), BuildingBlock: CIFDUS_clean_linker_0, # of connection points: 2
#     Edge 134, Type (0, 1), BuildingBlock: CIFDUS_clean_linker_0, # of connection points: 2
#     Edge 135, Type (0, 1), BuildingBlock: CIFDUS_clean_linker_0, # of connection points: 2
# Relax obj value: 0.112
# Max RMSD: 0.218
# Mean RMSD: 0.153
data_MOF--net-gar--node1-AZAVOO_clean_sbu_0--node2-KUMJIN_clean_sbu_1--edge1-CIFDUS_clean_linker_0
_symmetry_space_group_name_H-M    P1
_symmetry_Int_Tables_number       1
_symmetry_cell_setting            triclinic
loop_
_symmetry_equiv_pos_as_xyz
'x, y, z'
_cell_length_a     54.684004
_cell_length_b     52.693329
_cell_length_c     49.655474
_cell_angle_alpha  99.206478
_cell_angle_beta   96.3637
_cell_angle_gamma 103.23534
loop_
_atom_site_label
_atom_site_type_symbol
_atom_site_fract_x
_atom_site_fract_y
_atom_site_fract_z
_atom_type_partial_charge
Mg0 Mg 0.04629 0.31303 0.34841 0.0
O1 O 0.05132 0.35367 0.38137 0.0
O2 O 0.01815 0.34788 0.405 0.0
Mg3 Mg 0.99283 0.30583 0.39476 0.0
C4 C 0.03847 0.36235 0.39958 0.0
C5 C 0.10214 0.30822 0.3225 0.0
O6 O 0.08679 0.28766 0.30549 0.0
O7 O 0.0618 0.29 0.38165 0.0
O8 O 0.02712 0.29256 0.39755 0.0
O9 O 0.0116 0.32312 0.3191 0.0
O10 O 1.00369 0.30464 0.35321 0.0
C11 C 0.04709 0.28479 0.39923 0.0
C12 C 0.99461 0.31394 0.33342 0.0
O13 O 0.09198 0.32248 0.33969 0.0
Mg14 Mg 0.02218 0.75647 0.72143 0.0
O15 O 0.02568 0.72358 0.68495 0.0
O16 O 0.98992 0.71668 0.65507 0.0
Mg17 Mg 0.96308 0.74254 0.66867 0.0
C18 C 0.01111 0.71147 0.66229 0.0
C19 C 0.08187 0.75928 0.75317 0.0
O20 O 0.06844 0.74565 0.76886 0.0
O21 O 0.02624 0.78829 0.69353 0.0
O22 O 0.99134 0.77996 0.6622 0.0
O23 O 0.99638 0.77762 0.74999 0.0
O24 O 0.97972 0.74949 0.71286 0.0
C25 C 0.01356 0.79405 0.67308 0.0
C26 C 0.97576 0.76497 0.73357 0.0
O27 O 0.06943 0.76729 0.73397 0.0
Mg28 Mg 0.54468 0.81432 0.84029 0.0
O29 O 0.55059 0.85494 0.87386 0.0
O30 O 0.51647 0.84637 0.89515 0.0
Mg31 Mg 0.4888 0.80577 0.88073 0.0
C32 C 0.53704 0.8621 0.89201 0.0
C33 C 0.59698 0.80278 0.81592 0.0
O34 O 0.57858 0.78178 0.80432 0.0
O35 O 0.55374 0.79041 0.87467 0.0
O36 O 0.51913 0.78591 0.89561 0.0
O37 O 0.51347 0.82584 0.80893 0.0
O38 O 0.5025 0.80572 0.84128 0.0
C39 C 0.54075 0.78155 0.8927 0.0
C40 C 0.49508 0.81559 0.82109 0.0
O41 O 0.59038 0.8214 0.83166 0.0
Mg42 Mg 0.52162 0.25644 0.21728 0.0
O43 O 0.5224 0.22177 0.18066 0.0
O44 O 0.48346 0.21392 0.15692 0.0
Mg45 Mg 0.45821 0.24138 0.17269 0.0
C46 C 0.50513 0.20852 0.16043 0.0
C47 C 0.58375 0.26121 0.24449 0.0
O48 O 0.57351 0.24764 0.26221 0.0
O49 O 0.52301 0.28583 0.18665 0.0
O50 O 0.48492 0.27671 0.16029 0.0
O51 O 0.50229 0.28182 0.24857 0.0
O52 O 0.47951 0.25169 0.21508 0.0
C53 C 0.50785 0.29051 0.16756 0.0
C54 C 0.47969 0.2697 0.23588 0.0
O55 O 0.56869 0.26767 0.22631 0.0
Mg56 Mg 0.07863 0.81556 0.12969 0.0
O57 O 0.07363 0.77383 0.10075 0.0
O58 O 0.03467 0.76161 0.07712 0.0
Mg59 Mg 0.01531 0.7965 0.09011 0.0
C60 C 0.05606 0.75649 0.0838 0.0
C61 C 0.13338 0.82396 0.1658 0.0
O62 O 0.12316 0.83826 0.1833 0.0
O63 O 0.08151 0.84526 0.09694 0.0
O64 O 0.04052 0.83471 0.07855 0.0
O65 O 0.06194 0.79409 0.1614 0.0
O66 O 0.03824 0.80889 0.13217 0.0
C67 C 0.06287 0.85034 0.0821 0.0
C68 C 0.03975 0.79689 0.15271 0.0
O69 O 0.12148 0.81495 0.14117 0.0
Mg70 Mg 0.49913 0.77177 0.44584 0.0
O71 O 0.51168 0.81829 0.47025 0.0
O72 O 0.47708 0.81582 0.48839 0.0
Mg73 Mg 0.47803 0.77172 0.48492 0.0
C74 C 0.49685 0.83032 0.48237 0.0
C75 C 0.54376 0.76955 0.41021 0.0
O76 O 0.52596 0.75069 0.39372 0.0
O77 O 0.5164 0.744 0.47406 0.0
O78 O 0.47944 0.72741 0.48444 0.0
O79 O 0.47558 0.7873 0.41576 0.0
O80 O 0.45454 0.76298 0.44221 0.0
C81 C 0.5018 0.72503 0.48243 0.0
C82 C 0.45415 0.77533 0.42162 0.0
O83 O 0.5384 0.78156 0.4323 0.0
Mg84 Mg 0.57763 0.31584 0.63034 0.0
O85 O 0.57063 0.27252 0.60189 0.0
O86 O 0.53051 0.26353 0.58167 0.0
Mg87 Mg 0.51371 0.30049 0.5919 0.0
C88 C 0.55097 0.25615 0.58683 0.0
C89 C 0.62558 0.31778 0.67068 0.0
O90 O 0.6084 0.32364 0.68539 0.0
O91 O 0.58107 0.34668 0.59846 0.0
O92 O 0.54021 0.33758 0.57985 0.0
O93 O 0.55971 0.29522 0.66217 0.0
O94 O 0.53739 0.31146 0.63317 0.0
C95 C 0.56287 0.3525 0.58354 0.0
C96 C 0.53808 0.29928 0.65358 0.0
O97 O 0.62072 0.31567 0.64442 0.0
Mg98 Mg 0.9997 0.26902 0.94261 0.0
O99 O 0.01579 0.31532 0.96681 0.0
O100 O 0.98209 0.31854 0.98521 0.0
Mg101 Mg 0.97918 0.27426 0.98337 0.0
C102 C 1.00298 0.33015 0.9788 0.0
C103 C 0.04008 0.25949 0.90434 0.0
O104 O 0.02004 0.24032 0.89252 0.0
O105 O 0.01349 0.23912 0.97094 0.0
O106 O 0.97648 0.23026 0.9842 0.0
O107 O 0.97688 0.28578 0.91268 0.0
O108 O 0.9557 0.26409 0.9409 0.0
C109 C 0.99689 0.22335 0.98098 0.0
C110 C 0.95539 0.27544 0.91965 0.0
O111 O 0.03839 0.27493 0.92622 0.0
Mg112 Mg 0.40346 0.04448 0.32364 0.0
O113 O 0.37949 1.00256 0.31271 0.0
O114 O 0.36111 0.99403 0.34957 0.0
Mg115 Mg 0.37541 0.02992 0.38478 0.0
C116 C 0.36485 0.98725 0.32479 0.0
C117 C 0.43027 0.05296 0.27793 0.0
O118 O 0.44545 0.06587 0.30081 0.0
O119 O 0.36844 0.05853 0.32169 0.0
O120 O 0.35295 0.05328 0.36108 0.0
O121 O 0.43515 0.0285 0.33696 0.0
O122 O 0.40833 0.04125 0.36377 0.0
C123 C 0.35225 0.0608 0.3379 0.0
C124 C 0.42648 0.02977 0.36025 0.0
O125 O 0.40692 0.04392 0.27907 0.0
Mg126 Mg 0.26637 0.17652 0.5111 0.0
O127 O 0.26936 0.20429 0.55282 0.0
O128 O 0.3074 0.23284 0.56297 0.0
Mg129 Mg 0.32919 0.22228 0.52678 0.0
C130 C 0.28563 0.22322 0.5693 0.0
C131 C 0.21019 0.14081 0.49862 0.0
O132 O 0.21958 0.12744 0.47945 0.0
O133 O 0.26334 0.20704 0.4828 0.0
O134 O 0.30371 0.23098 0.49056 0.0
O135 O 0.28164 0.14995 0.53474 0.0
O136 O 0.30588 0.1806 0.51662 0.0
C137 C 0.28129 0.22457 0.47672 0.0
C138 C 0.30402 0.16237 0.53125 0.0
O139 O 0.22386 0.16281 0.51263 0.0
Mg140 Mg 0.13302 0.05688 0.79975 0.0
O141 O 0.16342 0.09676 0.80884 0.0
O142 O 0.19047 0.09685 0.84605 0.0
Mg143 Mg 0.17265 0.06278 0.86701 0.0
C144 C 0.18408 0.10708 0.8256 0.0
C145 C 0.10488 0.04615 0.73797 0.0
O146 O 0.09371 0.02426 0.74577 0.0
O147 O 0.16324 0.03285 0.78962 0.0
O148 O 0.18122 0.03392 0.83287 0.0
O149 O 0.10476 0.07115 0.82649 0.0
O150 O 0.13555 0.05447 0.84135 0.0
C151 C 0.17789 0.02506 0.80691 0.0
C152 C 0.11598 0.06263 0.84623 0.0
O153 O 0.12226 0.06334 0.75504 0.0
Mg154 Mg 0.30922 0.96672 0.00601 0.0
O155 O 0.31285 0.93125 0.97504 0.0
O156 O 0.35038 0.92289 0.98735 0.0
Mg157 Mg 0.37103 0.95374 0.0255 0.0
C158 C 0.32916 0.91762 0.97138 0.0
C159 C 0.26198 0.9777 0.97859 0.0
O160 O 0.28 0.99634 0.97291 0.0
O161 O 0.30144 0.94055 0.03817 0.0
O162 O 0.34078 0.93582 0.04979 0.0
O163 O 0.32795 0.99479 0.98095 0.0
O164 O 0.34744 0.97989 0.01452 0.0
C165 C 0.31737 0.93188 0.0526 0.0
C166 C 0.34865 0.99353 0.99527 0.0
O167 O 0.26811 0.95961 0.98992 0.0
Mg168 Mg 0.31055 0.39401 0.05234 0.0
O169 O 0.30631 0.36402 0.01052 0.0
O170 O 0.34102 0.34851 0.0136 0.0
Mg171 Mg 0.36768 0.36896 0.05432 0.0
C172 C 0.32004 0.34942 1.00013 0.0
C173 C 0.26645 0.41949 0.05215 0.0
O174 O 0.28626 0.4379 0.066 0.0
O175 O 0.3025 0.3627 0.08108 0.0
O176 O 0.34058 0.35392 0.08379 0.0
O177 O 0.33096 0.42647 0.0325 0.0
O178 O 0.35026 0.40248 0.05591 0.0
C179 C 0.31909 0.35222 0.09217 0.0
C180 C 0.35174 0.42068 0.04139 0.0
O181 O 0.26929 0.39637 0.04371 0.0
Mg182 Mg 0.77841 0.11886 0.04701 0.0
O183 O 0.77646 0.14821 0.08497 0.0
O184 O 0.81648 0.17204 0.09963 0.0
Mg185 Mg 0.84227 0.15912 0.07032 0.0
C186 C 0.7929 0.16647 0.10182 0.0
C187 C 0.72781 0.08461 0.03694 0.0
O188 O 0.74252 0.06811 0.03455 0.0
O189 O 0.78193 0.15091 0.02287 0.0
O190 O 0.82151 0.17631 0.0371 0.0
O191 O 0.78541 0.09003 0.07246 0.0
O192 O 0.81503 0.11983 0.05917 0.0
C193 C 0.79977 0.17088 0.02203 0.0
C194 C 0.80919 0.10024 0.07191 0.0
O195 O 0.73726 0.10917 0.03872 0.0
Mg196 Mg 0.17125 0.52744 0.24279 0.0
O197 O 0.18439 0.57009 0.23436 0.0
O198 O 0.21081 0.59081 0.27368 0.0
Mg199 Mg 0.21147 0.56615 0.30649 0.0
C200 C 0.20058 0.5904 0.24921 0.0
C201 C 0.15329 0.50722 0.17399 0.0
O202 O 0.15289 0.48664 0.15492 0.0
O203 O 0.21013 0.52294 0.23786 0.0
O204 O 0.23273 0.54319 0.27881 0.0
O205 O 0.13663 0.53486 0.25992 0.0
O206 O 0.17472 0.54245 0.28404 0.0
C207 C 0.23086 0.52979 0.25451 0.0
C208 C 0.15142 0.54324 0.28349 0.0
O209 O 0.1612 0.50662 0.19866 0.0
Mg210 Mg 0.8091 0.89218 0.55093 0.0
O211 O 0.80484 0.86235 0.50882 0.0
O212 O 0.8386 0.84546 0.5127 0.0
Mg213 Mg 0.86367 0.86425 0.55497 0.0
C214 C 0.81835 0.84743 0.49858 0.0
C215 C 0.76583 0.91838 0.55036 0.0
O216 O 0.78564 0.93633 0.5649 0.0
O217 O 0.79921 0.86148 0.57941 0.0
O218 O 0.83474 0.84733 0.58268 0.0
O219 O 0.83005 0.92312 0.53072 0.0
O220 O 0.8489 0.90009 0.55623 0.0
C221 C 0.81309 0.84789 0.58991 0.0
C222 C 0.85066 0.9176 0.54067 0.0
O223 O 0.7684 0.89527 0.54141 0.0
Mg224 Mg 0.95016 0.0294 0.27441 0.0
O225 O 0.92164 0.98874 0.27372 0.0
O226 O 0.9063 0.99446 0.31375 0.0
Mg227 Mg 0.92127 0.03632 0.3379 0.0
C228 C 0.90766 0.98007 0.29103 0.0
C229 C 0.97473 0.02459 0.22063 0.0
O230 O 0.99485 0.03227 0.23987 0.0
O231 O 0.9179 0.04874 0.26378 0.0
O232 O 0.90212 0.05224 0.30343 0.0
O233 O 0.98127 0.01636 0.29889 0.0
O234 O 0.95516 0.0373 0.31778 0.0
C235 C 0.90201 0.05563 0.27856 0.0
C236 C 0.97324 0.0257 0.32104 0.0
O237 O 0.95281 0.01967 0.22793 0.0
Mg238 Mg 0.27456 0.60593 0.55009 0.0
O239 O 0.2657 0.62961 0.58998 0.0
O240 O 0.30133 0.66333 0.60023 0.0
Mg241 Mg 0.33186 0.65861 0.57321 0.0
C242 C 0.27923 0.65183 0.60462 0.0
C243 C 0.21395 0.58325 0.52296 0.0
O244 O 0.1978 0.5661 0.50309 0.0
O245 O 0.26925 0.6393 0.52973 0.0
O246 O 0.30678 0.66892 0.53818 0.0
O247 O 0.28982 0.57694 0.57072 0.0
O248 O 0.31102 0.61728 0.56863 0.0
C249 C 0.28379 0.66056 0.52613 0.0
C250 C 0.31135 0.59456 0.57477 0.0
O251 O 0.23692 0.5823 0.52573 0.0
Mg252 Mg 0.45251 0.52722 0.77366 0.0
O253 O 0.42297 0.48649 0.76919 0.0
O254 O 0.40402 0.49108 0.80674 0.0
Mg255 Mg 0.42076 0.53095 0.83534 0.0
C256 C 0.40654 0.47741 0.78403 0.0
C257 C 0.4778 0.5249 0.71968 0.0
O258 O 0.49814 0.53172 0.7386 0.0
O259 O 0.42162 0.54859 0.7641 0.0
O260 O 0.40469 0.55169 0.80311 0.0
O261 O 0.48273 0.51291 0.79812 0.0
O262 O 0.4555 0.53231 0.81679 0.0
C263 C 0.40603 0.5563 0.7788 0.0
C264 C 0.47375 0.52101 0.82007 0.0
O265 O 0.45602 0.51999 0.72728 0.0
Mg266 Mg 0.66926 0.03054 0.74091 0.0
O267 O 0.68452 0.07427 0.73998 0.0
O268 O 0.69892 0.09421 0.78417 0.0
Mg269 Mg 0.69232 0.06484 0.81265 0.0
C270 C 0.69505 0.09474 0.7585 0.0
C271 C 0.67009 0.01909 0.67163 0.0
O272 O 0.68253 0.00687 0.65482 0.0
O273 O 0.70927 0.028 0.74963 0.0
O274 O 0.72276 0.04804 0.79359 0.0
O275 O 0.6307 0.03796 0.74813 0.0
O276 O 0.66232 0.03944 0.78033 0.0
C277 C 0.72655 0.03605 0.77058 0.0
C278 C 0.64011 0.04254 0.77402 0.0
O279 O 0.67492 0.01887 0.69703 0.0
Mg280 Mg 0.76368 0.67734 0.00789 0.0
O281 O 0.76653 0.70542 0.05006 0.0
O282 O 0.80695 0.72841 0.06071 0.0
Mg283 Mg 0.8291 0.71669 0.02549 0.0
C284 C 0.78456 0.72222 0.06687 0.0
C285 C 0.71447 0.63789 0.00301 0.0
O286 O 0.73167 0.62504 0.99691 0.0
O287 O 0.76429 0.70889 0.97989 0.0
O288 O 0.80618 0.7271 0.98832 0.0
O289 O 0.77502 0.64854 0.03097 0.0
O290 O 0.8029 0.67672 0.01429 0.0
C291 C 0.78427 0.72401 0.97428 0.0
C292 C 0.79819 0.65736 0.02737 0.0
O293 O 0.72039 0.66317 0.00612 0.0
Mg294 Mg 0.89669 0.53512 0.82266 0.0
O295 O 0.86728 0.49688 0.81735 0.0
O296 O 0.84767 0.49756 0.85458 0.0
Mg297 Mg 0.86935 0.53451 0.88661 0.0
C298 C 0.85014 0.48659 0.83051 0.0
C299 C 0.91757 0.54465 0.7712 0.0
O300 O 0.93006 0.56544 0.79002 0.0
O301 O 0.86603 0.55601 0.81867 0.0
O302 O 0.85429 0.56124 0.8609 0.0
O303 O 0.92651 0.518 0.84062 0.0
O304 O 0.90137 0.53809 0.86361 0.0
C305 C 0.85367 0.56559 0.83633 0.0
C306 C 0.91953 0.52646 0.8638 0.0
O307 O 0.89941 0.52808 0.77755 0.0
Mg308 Mg 0.80835 0.46357 0.51061 0.0
O309 O 0.81721 0.43386 0.47737 0.0
O310 O 0.85476 0.42588 0.49027 0.0
Mg311 Mg 0.86808 0.44826 0.53449 0.0
C312 C 0.83482 0.42232 0.47271 0.0
C313 C 0.76356 0.47423 0.47544 0.0
O314 O 0.78215 0.49258 0.47018 0.0
O315 O 0.795 0.42997 0.5331 0.0
O316 O 0.8328 0.42179 0.54497 0.0
O317 O 0.83201 0.49632 0.49431 0.0
O318 O 0.84589 0.47662 0.52703 0.0
C319 C 0.8087 0.41649 0.54375 0.0
C320 C 0.85066 0.49308 0.51072 0.0
O321 O 0.76905 0.45669 0.48805 0.0
Mg322 Mg 0.63106 0.55779 0.29808 0.0
O323 O 0.66004 0.59866 0.30436 0.0
O324 O 0.68527 0.60376 0.34445 0.0
Mg325 Mg 0.67148 0.56744 0.36473 0.0
C326 C 0.67896 0.61195 0.32247 0.0
C327 C 0.5991 0.56744 0.24588 0.0
O328 O 0.58627 0.57438 0.26543 0.0
O329 O 0.66251 0.53675 0.2884 0.0
O330 O 0.68318 0.53921 0.33081 0.0
O331 O 0.60318 0.57399 0.3223 0.0
O332 O 0.63306 0.55765 0.34074 0.0
C333 C 0.6792 0.53072 0.30471 0.0
C334 C 0.61384 0.56741 0.34381 0.0
O335 O 0.61913 0.55987 0.25242 0.0
Eu336 Eu 0.07312 0.05496 0.045 0.0
C337 C 0.98549 0.96279 0.97498 0.0
N338 N 0.99999 0.98684 0.97231 0.0
C339 C 1.00358 0.96842 0.92581 0.0
C340 C 0.98023 0.94051 0.95322 0.0
C341 C 0.00799 0.99003 0.94762 0.0
C342 C 0.98985 0.94352 0.92867 0.0
C343 C 0.95974 0.93578 0.00216 0.0
C344 C 0.97502 0.9604 0.99918 0.0
C345 C 0.95482 0.91371 0.98058 0.0
C346 C 0.96499 0.91608 0.95621 0.0
Eu347 Eu 1.00169 0.02212 0.00942 0.0
N348 N 0.98027 0.9819 0.02012 0.0
C349 C 0.95004 0.93395 0.02692 0.0
C350 C 0.97055 0.98033 0.04412 0.0
C351 C 0.95552 0.95632 0.048 0.0
H352 H 0.0165 0.00926 0.94367 0.0
H353 H 0.9479 0.95516 0.06711 0.0
H354 H 0.05648 0.0743 0.10831 0.0
H355 H 0.12986 0.11373 0.98242 0.0
H356 H 0.97378 0.99774 0.05997 0.0
H357 H 0.9383 0.91538 0.02998 0.0
H358 H 0.10454 0.07285 0.99396 0.0
H359 H 0.01011 0.97119 0.90643 0.0
H360 H 0.9431 0.8947 0.98253 0.0
H361 H 0.96076 0.89888 0.93964 0.0
H362 H 0.06196 0.11524 0.14169 0.0
H363 H 0.98609 0.92693 0.91149 0.0
H364 H 0.13735 0.15665 0.01467 0.0
N365 N 0.07451 0.09314 0.07828 0.0
C366 C 0.08907 0.11627 0.07345 0.0
C367 C 0.06924 0.11591 0.12235 0.0
C368 C 0.09346 0.14026 0.09273 0.0
C369 C 0.0655 0.0926 0.10282 0.0
C370 C 0.08307 0.13987 0.1172 0.0
N371 N 0.09586 0.09281 0.03092 0.0
C372 C 0.10665 0.09167 0.00743 0.0
C373 C 0.11523 0.13975 0.04402 0.0
C374 C 0.10018 0.11605 0.04938 0.0
C375 C 0.12573 0.13885 0.01951 0.0
C376 C 0.12144 0.1147 0.00116 0.0
H377 H 0.08617 0.15784 0.13257 0.0
H378 H 0.11202 0.18233 0.10203 0.0
H379 H 0.13081 0.18192 0.05934 0.0
O380 O 0.11154 0.05266 0.04067 0.0
O381 O 0.0532 0.08397 0.02624 0.0
O382 O 0.00938 0.06799 0.01865 0.0
O383 O 0.10098 0.05895 0.08149 0.0
O384 O 0.06601 0.03427 1.00016 0.0
O385 O 0.02866 0.04298 0.98378 0.0
O386 O 0.96279 0.02168 0.01442 0.0
O387 O 0.02241 0.99239 0.0257 0.0
O388 O 0.06552 0.00945 0.04164 0.0
O389 O 0.97369 0.02052 0.97382 0.0
O390 O 1.00596 0.0392 0.05532 0.0
O391 O 0.04608 0.03608 0.07147 0.0
C392 C 0.03008 0.08749 0.02054 0.0
C393 C 0.12986 0.03234 0.07372 0.0
C394 C 0.15364 1.00008 0.05964 0.0
C395 C 0.15356 0.99266 0.08558 0.0
C396 C 0.13012 0.02507 0.09976 0.0
C397 C 0.14173 0.00508 0.10549 0.0
C398 C 0.1413 0.01945 0.05379 0.0
C399 C 0.05193 0.04161 0.98122 0.0
C400 C 0.11811 0.05341 0.0669 0.0
C401 C 0.10848 0.1638 0.08738 0.0
C402 C 0.11927 0.16356 0.06311 0.0
C403 C 0.04495 0.98938 0.03571 0.0
C404 C 0.94027 0.04054 0.98331 0.0
C405 C 0.91086 0.06545 0.99897 0.0
C406 C 0.90964 0.07528 0.97439 0.0
C407 C 0.93894 0.05013 0.95846 0.0
C408 C 0.92584 0.04804 0.00323 0.0
C409 C 0.92362 0.06746 0.95408 0.0
C410 C 0.02252 0.03566 0.07479 0.0
C411 C 0.95568 0.02201 0.98859 0.0
H412 H 0.1633 0.97795 0.09075 0.0
H413 H 0.12145 0.03479 0.11562 0.0
H414 H 0.14197 0.99957 0.12557 0.0
H415 H 0.14099 0.0248 0.03358 0.0
H416 H 0.89781 0.08871 0.97091 0.0
H417 H 0.9496 0.04421 0.94249 0.0
H418 H 0.92621 0.04042 0.0223 0.0
H419 H 0.92258 0.0748 0.93495 0.0
Eu420 Eu 0.27281 0.78207 0.31219 0.0
C421 C 0.32384 0.73135 0.22031 0.0
N422 N 0.33532 0.75284 0.24044 0.0
C423 C 0.37201 0.73578 0.24774 0.0
C424 C 0.33598 0.7108 0.21356 0.0
C425 C 0.35911 0.75549 0.25399 0.0
C426 C 0.36037 0.71328 0.22751 0.0
C427 C 0.28688 0.70698 0.1867 0.0
C428 C 0.29951 0.72951 0.20704 0.0
C429 C 0.29888 0.68643 0.18008 0.0
C430 C 0.32337 0.68836 0.19339 0.0
Eu431 Eu 0.31235 0.78515 0.24946 0.0
N432 N 0.28807 0.74949 0.21426 0.0
C433 C 0.26258 0.70581 0.1735 0.0
C434 C 0.26517 0.74921 0.2 0.0
C435 C 0.25184 0.72719 0.17992 0.0
H436 H 0.3683 0.773 0.26933 0.0
H437 H 0.23345 0.72693 0.16909 0.0
H438 H 0.21572 0.79251 0.29363 0.0
H439 H 0.3469 0.83652 0.39948 0.0
H440 H 0.25729 0.76608 0.20325 0.0
H441 H 0.25222 0.68881 0.15786 0.0
H442 H 0.32465 0.79884 0.36288 0.0
H443 H 0.39092 0.73796 0.2585 0.0
H444 H 0.28941 0.66896 0.16457 0.0
H445 H 0.33238 0.67234 0.18801 0.0
H446 H 0.19188 0.82617 0.30544 0.0
H447 H 0.37035 0.69797 0.22282 0.0
H448 H 0.3276 0.87417 0.41115 0.0
N449 N 0.24798 0.81232 0.32384 0.0
C450 C 0.25853 0.83326 0.34485 0.0
C451 C 0.21063 0.82844 0.31666 0.0
C452 C 0.24558 0.85299 0.35226 0.0
C453 C 0.22425 0.80948 0.30992 0.0
C454 C 0.22137 0.85035 0.33784 0.0
N455 N 0.29475 0.81608 0.35051 0.0
C456 C 0.31681 0.8157 0.36609 0.0
C457 C 0.2943 0.85706 0.38008 0.0
C458 C 0.28272 0.83538 0.35834 0.0
C459 C 0.31809 0.85789 0.39433 0.0
C460 C 0.32913 0.8368 0.38766 0.0
H461 H 0.21084 0.86512 0.34288 0.0
H462 H 0.24776 0.89035 0.37923 0.0
H463 H 0.29035 0.89382 0.40375 0.0
O464 O 0.27302 0.75517 0.34142 0.0
O465 O 0.28319 0.82177 0.29982 0.0
O466 O 0.32074 0.82095 0.28393 0.0
O467 O 0.23772 0.76307 0.32546 0.0
O468 O 0.31238 0.77226 0.31787 0.0
O469 O 0.33722 0.79667 0.29147 0.0
O470 O 0.31099 0.80554 0.21478 0.0
O471 O 0.30064 0.74662 0.26499 0.0
O472 O 0.26197 0.75002 0.2744 0.0
O473 O 0.34758 0.80119 0.23378 0.0
O474 O 0.27583 0.79955 0.24445 0.0
O475 O 0.24867 0.7763 0.26975 0.0
C476 C 0.30412 0.83373 0.29202 0.0
C477 C 0.24233 0.75608 0.37137 0.0
C478 C 0.24664 0.74634 0.41763 0.0
C479 C 0.22843 0.76028 0.42428 0.0
C480 C 0.22435 0.77033 0.37838 0.0
C481 C 0.21748 0.77236 0.40474 0.0
C482 C 0.25348 0.74429 0.39116 0.0
C483 C 0.33502 0.78413 0.31243 0.0
C484 C 0.24901 0.75241 0.34337 0.0
C485 C 0.25733 0.8749 0.37341 0.0
C486 C 0.28163 0.87693 0.38728 0.0
C487 C 0.27711 0.73547 0.26668 0.0
C488 C 0.34787 0.8239 0.19468 0.0
C489 C 0.34501 0.84613 0.1557 0.0
C490 C 0.37135 0.85047 0.15617 0.0
C491 C 0.37423 0.82826 0.19499 0.0
C492 C 0.33331 0.83288 0.1749 0.0
C493 C 0.38588 0.84151 0.17576 0.0
C494 C 0.25297 0.79126 0.25095 0.0
C495 C 0.33539 0.80986 0.21466 0.0
H496 H 0.22281 0.76195 0.4446 0.0
H497 H 0.21543 0.77971 0.36353 0.0
H498 H 0.20352 0.78317 0.40999 0.0
H499 H 0.26708 0.73296 0.38577 0.0
H500 H 0.3806 0.86083 0.14142 0.0
H501 H 0.3858 0.82142 0.21003 0.0
H502 H 0.31294 0.8297 0.17437 0.0
H503 H 0.40619 0.84487 0.17607 0.0
Eu504 Eu 0.50435 0.04129 0.55075 0.0
C505 C 0.60024 0.09084 0.48007 0.0
N506 N 0.58293 0.0667 0.47396 0.0
C507 C 0.58037 0.06748 0.42559 0.0
C508 C 0.60705 0.10479 0.45888 0.0
C509 C 0.57428 0.05424 0.44712 0.0
C510 C 0.59642 0.09304 0.43151 0.0
C511 C 0.6304 0.12612 0.51377 0.0
C512 C 0.61222 0.10138 0.5074 0.0
C513 C 0.63633 0.14028 0.49273 0.0
C514 C 0.62475 0.12966 0.46542 0.0
Eu515 Eu 0.57496 0.04768 0.51298 0.0
N516 N 0.60613 0.08765 0.52776 0.0
C517 C 0.64195 0.13613 0.54126 0.0
C518 C 0.61751 0.09707 0.55452 0.0
C519 C 0.63549 0.12152 0.56168 0.0
H520 H 0.56286 0.03397 0.44207 0.0
H521 H 0.64425 0.12917 0.58296 0.0
H522 H 0.51013 0.05665 0.62066 0.0
H523 H 0.43415 0.95873 0.48156 0.0
H524 H 0.61219 0.086 0.57034 0.0
H525 H 0.65583 0.15514 0.54693 0.0
H526 H 0.4632 1.00343 0.49459 0.0
H527 H 0.57297 0.0578 0.40439 0.0
H528 H 0.65007 0.15941 0.49733 0.0
H529 H 0.62994 0.14068 0.44939 0.0
H530 H 0.49999 0.0333 0.65897 0.0
H531 H 0.60122 0.10315 0.41472 0.0
H532 H 0.42767 0.93015 0.5164 0.0
N533 N 0.49474 0.02208 0.58943 0.0
C534 C 0.48003 0.99667 0.58333 0.0
C535 C 0.49464 0.02265 0.63783 0.0
C536 C 0.47354 0.98271 0.60459 0.0
C537 C 0.5005 0.03573 0.61612 0.0
C538 C 0.48165 0.99585 0.63206 0.0
N539 N 0.47392 0.99997 0.53605 0.0
C540 C 0.46056 0.99121 0.50991 0.0
C541 C 0.45271 0.95966 0.54944 0.0
C542 C 0.4694 0.98532 0.55598 0.0
C543 C 0.44052 0.94979 0.5222 0.0
C544 C 0.44404 0.96587 0.50249 0.0
H545 H 0.47696 0.98582 0.64893 0.0
H546 H 0.45338 0.94548 0.61397 0.0
H547 H 0.43538 0.92523 0.56569 0.0
O548 O 0.46805 0.04722 0.53275 0.0
O549 O 0.51111 1.00288 0.52465 0.0
O550 O 0.55495 0.0095 0.52765 0.0
O551 O 0.48864 0.0721 0.5711 0.0
O552 O 0.52318 0.05242 0.51489 0.0
O553 O 0.54062 0.03596 0.48043 0.0
O554 O 0.61456 0.04418 0.52178 0.0
O555 O 0.56681 0.08818 0.53225 0.0
O556 O 0.5299 0.08415 0.554 0.0
O557 O 0.58497 0.01165 0.49644 0.0
O558 O 0.55529 0.04671 0.54966 0.0
O559 O 0.53685 0.04462 0.58545 0.0
C560 C 0.53159 0.99364 0.52146 0.0
C561 C 0.44457 0.06655 0.56386 0.0
C562 C 0.4075 0.0846 0.56556 0.0
C563 C 0.40211 0.07273 0.58838 0.0
C564 C 0.4388 0.05448 0.58637 0.0
C565 C 0.41763 0.05764 0.59859 0.0
C566 C 0.42879 0.0813 0.55334 0.0
C567 C 0.52006 0.03926 0.48977 0.0
C568 C 0.46825 0.06642 0.55285 0.0
C569 C 0.45818 0.9566 0.5979 0.0
C570 C 0.44789 0.94507 0.5704 0.0
C571 C 0.55057 0.0986 0.54627 0.0
C572 C 0.62716 0.00994 0.49273 0.0
C573 C 0.66126 0.98733 0.49395 0.0
C574 C 0.65698 0.98103 0.46497 0.0
C575 C 0.62333 1.00396 0.46376 0.0
C576 C 0.64647 1.00208 0.50771 0.0
C577 C 0.6383 0.98962 0.44998 0.0
C578 C 0.55811 0.04635 0.57589 0.0
C579 C 0.6087 0.01988 0.50785 0.0
H580 H 0.38571 0.07483 0.5981 0.0
H581 H 0.4509 0.04314 0.59482 0.0
H582 H 0.41334 0.04855 0.61614 0.0
H583 H 0.43357 0.09093 0.5362 0.0
H584 H 0.66817 0.96959 0.45398 0.0
H585 H 0.60825 0.00956 0.45188 0.0
H586 H 0.64909 0.00618 0.5301 0.0
H587 H 0.63507 0.98467 0.42765 0.0
Eu588 Eu 0.31932 0.27602 0.78413 0.0
C589 C 0.23057 0.31438 0.72134 0.0
N590 N 0.24649 0.32761 0.7449 0.0
C591 C 0.2498 0.3689 0.72949 0.0
C592 C 0.22365 0.32815 0.70078 0.0
C593 C 0.25621 0.35442 0.74924 0.0
C594 C 0.23339 0.35573 0.70518 0.0
C595 C 0.20628 0.27259 0.69244 0.0
C596 C 0.22197 0.28682 0.71726 0.0
C597 C 0.19893 0.28634 0.67222 0.0
C598 C 0.20758 0.31402 0.67638 0.0
Eu599 Eu 0.25493 0.30183 0.77764 0.0
N600 N 0.22992 0.27389 0.73692 0.0
C601 C 0.19872 0.24487 0.68844 0.0
C602 C 0.22271 0.24686 0.7329 0.0
C603 C 0.20704 0.23197 0.70874 0.0
H604 H 0.26839 0.3647 0.76827 0.0
H605 H 0.2015 0.21051 0.70572 0.0
H606 H 0.31117 0.21229 0.79036 0.0
H607 H 0.38328 0.36516 0.85044 0.0
H608 H 0.22913 0.23651 0.74791 0.0
H609 H 0.18672 0.23324 0.66965 0.0
H610 H 0.35521 0.33923 0.80842 0.0
H611 H 0.25741 0.39021 0.73309 0.0
H612 H 0.18681 0.2757 0.65311 0.0
H613 H 0.20198 0.3243 0.66042 0.0
H614 H 0.32222 0.18644 0.82514 0.0
H615 H 0.22849 0.36701 0.68989 0.0
H616 H 0.39451 0.34291 0.88853 0.0
N617 N 0.33052 0.24962 0.81538 0.0
C618 C 0.34627 0.26262 0.83909 0.0
C619 C 0.32893 0.20787 0.82946 0.0
C620 C 0.3534 0.24865 0.85939 0.0
C621 C 0.32239 0.22258 0.80999 0.0
C622 C 0.3443 0.22098 0.85441 0.0
N623 N 0.34827 0.30288 0.82298 0.0
C624 C 0.35881 0.32935 0.8251 0.0
C625 C 0.37212 0.304 0.86728 0.0
C626 C 0.35553 0.28998 0.84296 0.0
C627 C 0.3817 0.33144 0.87019 0.0
C628 C 0.37529 0.34409 0.84882 0.0
H629 H 0.34936 0.20954 0.86947 0.0
H630 H 0.37503 0.25225 0.89972 0.0
H631 H 0.3914 0.30071 0.90665 0.0
O632 O 0.35265 0.28737 0.76199 0.0
O633 O 0.30466 0.28687 0.82519 0.0
O634 O 0.28327 0.31848 0.81711 0.0
O635 O 0.33758 0.24655 0.76642 0.0
O636 O 0.32127 0.31584 0.76966 0.0
O637 O 0.29164 0.33313 0.79104 0.0
O638 O 0.2198 0.29024 0.79622 0.0
O639 O 0.2738 0.29574 0.73906 0.0
O640 O 0.28846 0.26021 0.74683 0.0
O641 O 0.23488 0.33125 0.79176 0.0
O642 O 0.25346 0.265 0.79584 0.0
O643 O 0.28268 0.24292 0.77951 0.0
C644 C 0.29358 0.30573 0.83414 0.0
C645 C 0.37399 0.25297 0.74251 0.0
C646 C 0.41082 0.25835 0.71775 0.0
C647 C 0.41011 0.23143 0.71698 0.0
C648 C 0.3741 0.2261 0.74129 0.0
C649 C 0.39191 0.2155 0.72859 0.0
C650 C 0.39247 0.26921 0.73039 0.0
C651 C 0.31189 0.33608 0.77872 0.0
C652 C 0.35468 0.26292 0.75719 0.0
C653 C 0.36949 0.26263 0.88384 0.0
C654 C 0.37882 0.29023 0.88778 0.0
C655 C 0.28297 0.2756 0.7301 0.0
C656 C 0.19644 0.3234 0.81243 0.0
C657 C 0.16279 0.3189 0.84143 0.0
C658 C 0.15987 0.34401 0.83791 0.0
C659 C 0.19282 0.34839 0.80922 0.0
C660 C 0.18101 0.30836 0.82837 0.0
C661 C 0.17466 0.35851 0.8218 0.0
C662 C 0.26183 0.24353 0.79068 0.0
C663 C 0.21738 0.31457 0.80024 0.0
H664 H 0.42387 0.22266 0.70736 0.0
H665 H 0.36042 0.21306 0.75036 0.0
H666 H 0.39172 0.19482 0.72792 0.0
H667 H 0.39293 0.28999 0.73127 0.0
H668 H 0.14594 0.35238 0.84763 0.0
H669 H 0.20424 0.36034 0.79709 0.0
H670 H 0.1836 0.28914 0.83124 0.0
H671 H 0.17217 0.37782 0.81923 0.0
Eu672 Eu 0.04239 0.99858 0.52471 0.0
C673 C 0.01343 0.10037 0.59433 0.0
N674 N 1.00005 0.08222 0.57182 0.0
C675 C 0.96119 0.08232 0.59004 0.0
C676 C 1.00105 0.10977 0.61588 0.0
C677 C 0.97413 0.07398 0.56893 0.0
C678 C 0.97472 0.10008 0.61374 0.0
C679 C 0.05323 0.13145 0.61701 0.0
C680 C 0.03931 0.11112 0.59501 0.0
C681 C 0.04109 0.14012 0.63889 0.0
C682 C 0.0151 0.1293 0.63834 0.0
Eu683 Eu 0.02417 0.07118 0.53696 0.0
N684 N 0.05064 0.1027 0.57345 0.0
C685 C 0.07873 0.14318 0.61586 0.0
C686 C 0.07482 0.11536 0.57119 0.0
C687 C 0.08947 0.13534 0.59265 0.0
H688 H 0.96311 0.0616 0.55006 0.0
H689 H 0.10884 0.14498 0.59107 0.0
H690 H 0.10387 0.01284 0.51525 0.0
H691 H 0.95953 0.92998 0.45791 0.0
H692 H 0.0826 0.11009 0.55268 0.0
H693 H 0.09002 0.15892 0.63232 0.0
H694 H 0.9833 0.95914 0.50106 0.0
H695 H 0.9407 0.07551 0.58773 0.0
H696 H 0.05149 0.15568 0.656 0.0
H697 H 1.00587 0.1367 0.65505 0.0
H698 H 0.1288 0.00596 0.47756 0.0
H699 H 0.96454 0.10688 0.62982 0.0
H700 H 0.98135 0.92216 0.41746 0.0
N701 N 0.06839 0.992 0.49065 0.0
C702 C 0.05647 0.97598 0.46626 0.0
C703 C 0.10843 0.99763 0.47401 0.0
C704 C 0.07009 0.97113 0.44428 0.0
C705 C 0.09416 1.00181 0.49523 0.0
C706 C 0.09631 0.98253 0.4483 0.0
N707 N 0.01791 0.96906 0.48494 0.0
C708 C 0.9929 0.95657 0.48343 0.0
C709 C 0.01776 0.94731 0.43832 0.0
C710 C 0.03057 0.96411 0.46335 0.0
C711 C 0.99184 0.93525 0.43631 0.0
C712 C 0.97944 0.93969 0.45906 0.0
H713 H 0.10743 0.97931 0.43191 0.0
H714 H 0.06739 0.95103 0.40201 0.0
H715 H 0.02161 0.93024 0.39678 0.0
O716 O 0.0342 0.958 0.53398 0.0
O717 O 0.03229 0.01636 0.48699 0.0
O718 O 1.00296 0.03817 0.50171 0.0
O719 O 0.07199 0.98523 0.54737 0.0
O720 O 1.0036 0.99628 0.53792 0.0
O721 O 0.99026 0.03534 0.53472 0.0
O722 O 0.03519 0.09733 0.50728 0.0
O723 O 0.0505 0.06338 0.57227 0.0
O724 O 0.0329 0.01934 0.56405 0.0
O725 O 1.00493 0.10203 0.5307 0.0
O726 O 0.057 0.06497 0.51495 0.0
O727 O 0.0748 0.03615 0.53608 0.0
C728 C 0.01339 0.0274 0.48178 0.0
C729 C 0.06698 0.94129 0.55841 0.0
C730 C 0.06243 0.90473 0.58413 0.0
C731 C 0.08665 0.90223 0.57891 0.0
C732 C 0.09118 0.93847 0.55404 0.0
C733 C 0.10082 0.91894 0.56405 0.0
C734 C 0.05245 0.92421 0.5733 0.0
C735 C 0.98642 0.01034 0.53824 0.0
C736 C 0.05722 0.96181 0.54674 0.0
C737 C 0.05726 0.95483 0.41917 0.0
C738 C 0.03118 0.94296 0.4162 0.0
C739 C 0.04792 0.04043 0.58011 0.0
C740 C 0.00736 0.12364 0.49202 0.0
C741 C 0.01234 0.15992 0.46624 0.0
C742 C 0.98577 0.15511 0.46064 0.0
C743 C 0.98081 0.11882 0.4856 0.0
C744 C 0.02309 0.14393 0.48176 0.0
C745 C 0.97015 0.1345 0.46998 0.0
C746 C 0.07678 0.05692 0.52407 0.0
C747 C 0.01879 0.11104 0.51301 0.0
H748 H 0.09462 0.88703 0.58606 0.0
H749 H 0.10251 0.95115 0.54244 0.0
H750 H 0.11938 0.91666 0.5602 0.0
H751 H 0.03381 0.92646 0.57689 0.0
H752 H 0.97711 0.16733 0.44896 0.0
H753 H 0.9683 0.10357 0.49345 0.0
H754 H 0.04358 0.14815 0.48699 0.0
H755 H 0.9497 0.13103 0.46557 0.0
Eu756 Eu 0.29474 0.82276 0.76422 0.0
C757 C 0.23735 0.73786 0.82917 0.0
N758 N 0.26094 0.75492 0.835 0.0
C759 C 0.25759 0.76238 0.88322 0.0
C760 C 0.22298 0.7325 0.85044 0.0
C761 C 0.27144 0.76661 0.86163 0.0
C762 C 0.23325 0.74533 0.87762 0.0
C763 C 0.20408 0.70609 0.79565 0.0
C764 C 0.22788 0.72483 0.80196 0.0
C765 C 0.18978 0.70085 0.81683 0.0
C766 C 0.19915 0.71407 0.84409 0.0
Eu767 Eu 0.28305 0.75811 0.79696 0.0
N768 N 0.24198 0.73034 0.78168 0.0
C769 C 0.19553 0.69281 0.76828 0.0
C770 C 0.23411 0.71688 0.7552 0.0
C771 C 0.21067 0.69816 0.74799 0.0
H772 H 0.29082 0.77843 0.86649 0.0
H773 H 0.20447 0.68759 0.72688 0.0
H774 H 0.2983 0.80395 0.69679 0.0
H775 H 0.36491 0.89082 0.84676 0.0
H776 H 0.246 0.72029 0.73974 0.0
H777 H 0.17745 0.67811 0.76266 0.0
H778 H 0.32337 0.86077 0.82606 0.0
H779 H 0.26595 0.77181 0.90427 0.0
H780 H 0.17151 0.68644 0.81236 0.0
H781 H 0.18794 0.70962 0.86021 0.0
H782 H 0.3295 0.81246 0.66505 0.0
H783 H 0.22277 0.74173 0.89449 0.0
H784 H 0.39855 0.90071 0.81777 0.0
N785 N 0.32318 0.82818 0.73205 0.0
C786 C 0.34622 0.84556 0.74199 0.0
C787 C 0.33452 0.82169 0.68667 0.0
C788 C 0.36449 0.85131 0.72443 0.0
C789 C 0.31698 0.81656 0.7048 0.0
C790 C 0.35839 0.83906 0.69652 0.0
N791 N 0.33402 0.85121 0.7867 0.0
C792 C 0.3382 0.86364 0.81365 0.0
C793 C 0.37556 0.87532 0.78067 0.0
C794 C 0.35171 0.85751 0.76993 0.0
C795 C 0.38046 0.88696 0.80875 0.0
C796 C 0.3616 0.88127 0.82523 0.0
H797 H 0.3719 0.84304 0.68238 0.0
H798 H 0.40246 0.87366 0.72195 0.0
H799 H 0.41214 0.89459 0.7711 0.0
O800 O 0.28273 0.85913 0.77795 0.0
O801 O 0.33057 0.80616 0.77403 0.0
O802 O 0.32376 0.78429 0.81025 0.0
O803 O 0.28805 0.84859 0.73558 0.0
O804 O 0.28001 0.82292 0.80515 0.0
O805 O 0.3007 0.79675 0.82626 0.0
O806 O 0.29776 0.72382 0.78116 0.0
O807 O 0.2464 0.77196 0.78527 0.0
O808 O 0.25315 0.79795 0.75199 0.0
O809 O 0.28845 0.72968 0.82254 0.0
O810 O 0.29383 0.75669 0.75399 0.0
O811 O 0.27655 0.78535 0.73268 0.0
C812 C 0.33944 0.79618 0.79493 0.0
C813 C 0.25645 0.87155 0.74369 0.0
C814 C 0.23086 0.90385 0.74237 0.0
C815 C 0.21223 0.88502 0.72292 0.0
C816 C 0.2375 0.85301 0.72425 0.0
C817 C 0.21548 0.85969 0.71408 0.0
C818 C 0.25291 0.89697 0.75303 0.0
C819 C 0.29029 0.81681 0.82751 0.0
C820 C 0.28025 0.86477 0.75332 0.0
C821 C 0.38821 0.86904 0.73516 0.0
C822 C 0.39373 0.88098 0.76317 0.0
C823 C 0.23768 0.78386 0.76603 0.0
C824 C 0.31679 0.70254 0.81435 0.0
C825 C 0.33704 0.66586 0.80816 0.0
C826 C 0.34811 0.67299 0.83604 0.0
C827 C 0.32833 0.70962 0.84221 0.0
C828 C 0.32136 0.68061 0.79731 0.0
C829 C 0.34382 0.69482 0.85293 0.0
C830 C 0.28175 0.76217 0.7322 0.0
C831 C 0.29688 0.71488 0.80417 0.0
H832 H 0.19501 0.88989 0.71479 0.0
H833 H 0.23991 0.83345 0.71662 0.0
H834 H 0.20096 0.84525 0.69915 0.0
H835 H 0.26736 0.91143 0.76811 0.0
H836 H 0.35985 0.66141 0.84478 0.0
H837 H 0.32476 0.72606 0.85598 0.0
H838 H 0.31212 0.67453 0.776 0.0
H839 H 0.35216 0.7 0.87451 0.0
Eu840 Eu 0.53846 0.05953 0.00111 0.0
C841 C 0.58962 1.00322 0.08717 0.0
N842 N 0.56927 0.99326 0.06687 0.0
C843 C 0.58535 0.95554 0.05194 0.0
C844 C 0.60901 0.98979 0.09028 0.0
C845 C 0.5666 0.96952 0.04967 0.0
C846 C 0.60675 0.9658 0.0722 0.0
C847 C 0.61157 0.03725 0.12675 0.0
C848 C 0.59097 0.02683 0.10503 0.0
C849 C 0.63116 0.02422 0.12957 0.0
C850 C 0.62989 1.00057 0.11137 0.0
Eu851 Eu 0.53915 0.01879 0.06388 0.0
N852 N 0.57179 0.0391 0.10176 0.0
C853 C 0.61156 0.06013 0.14545 0.0
C854 C 0.57083 0.06024 0.12109 0.0
C855 C 0.59089 0.0714 0.14286 0.0
H856 H 0.5498 0.96103 0.0345 0.0
H857 H 0.59021 0.08846 0.15786 0.0
H858 H 0.52462 0.11731 0.02274 0.0
H859 H 0.48514 0.97566 0.91966 0.0
H860 H 0.55442 0.06828 0.12035 0.0
H861 H 0.62699 0.06871 0.16245 0.0
H862 H 0.52295 1.00382 0.9507 0.0
H863 H 0.5832 0.93677 0.03818 0.0
H864 H 0.64718 0.03204 0.14604 0.0
H865 H 0.64501 0.99059 0.11399 0.0
H866 H 0.48883 0.13811 0.01636 0.0
H867 H 0.62122 0.95488 0.07395 0.0
H868 H 0.44567 0.991 0.91474 0.0
N869 N 0.50552 0.08119 0.99525 0.0
C870 C 0.48441 0.06765 0.97705 0.0
C871 C 0.48728 0.11824 0.00527 0.0
C872 C 0.46352 0.07878 0.97273 0.0
C873 C 0.50744 0.10632 0.00899 0.0
C874 C 0.46514 0.10435 0.9872 0.0
N875 N 0.50408 0.03221 0.96769 0.0
C876 C 0.50536 0.00952 0.95091 0.0
C877 C 0.4618 0.02775 0.94416 0.0
C878 C 0.48356 0.04236 0.96309 0.0
C879 C 0.46203 1.00291 0.92936 0.0
C880 C 0.48415 0.99405 0.93228 0.0
H881 H 0.44949 0.11358 0.98447 0.0
H882 H 0.42531 0.07215 0.95101 0.0
H883 H 0.42381 0.02747 0.92599 0.0
O884 O 0.55554 0.05883 0.96347 0.0
O885 O 0.50469 0.04979 0.02307 0.0
O886 O 0.50636 0.00876 0.02972 0.0
O887 O 0.5514 0.09604 0.98544 0.0
O888 O 0.55217 0.0205 0.99376 0.0
O889 O 0.52882 0.99509 0.0202 0.0
O890 O 0.51163 0.01712 0.09274 0.0
O891 O 0.57454 0.03392 0.04678 0.0
O892 O 0.57326 0.07294 0.03313 0.0
O893 O 0.5261 0.98229 0.07925 0.0
O894 O 0.53202 0.06055 0.07487 0.0
O895 O 0.54707 0.08718 0.04356 0.0
C896 C 0.49331 0.02569 0.02479 0.0
C897 C 0.58288 0.09798 0.9556 0.0
C898 C 0.61005 0.09955 0.92001 0.0
C899 C 0.62357 0.12534 0.93301 0.0
C900 C 0.59667 0.12375 0.96875 0.0
C901 C 0.617 0.13728 0.95748 0.0
C902 C 0.58992 0.08596 0.93142 0.0
C903 C 0.54195 0.99699 0.99956 0.0
C904 C 0.5594 0.08427 0.96442 0.0
C905 C 0.44165 0.06403 0.95438 0.0
C906 C 0.44076 0.03855 0.9402 0.0
C907 C 0.58468 0.05893 0.0473 0.0
C908 C 0.49495 0.97703 0.11032 0.0
C909 C 0.46668 0.97547 0.14464 0.0
C910 C 0.46481 0.94825 0.14284 0.0
C911 C 0.49279 0.94967 0.10833 0.0
C912 C 0.48156 0.98973 0.12826 0.0
C913 C 0.47766 0.93535 0.12448 0.0
C914 C 0.5391 0.08395 0.0674 0.0
C915 C 0.51089 0.99231 0.09361 0.0
H916 H 0.63921 0.13606 0.92436 0.0
H917 H 0.59147 0.13361 0.98731 0.0
H918 H 0.62747 0.15718 0.96754 0.0
H919 H 0.57919 0.06623 0.92088 0.0
H920 H 0.45369 0.93714 0.15584 0.0
H921 H 0.5028 0.93937 0.09438 0.0
H922 H 0.48332 0.01091 0.13025 0.0
H923 H 0.47617 0.91433 0.12303 0.0
Eu924 Eu 0.2758 0.2565 0.26498 0.0
C925 C 0.36408 0.35002 0.3388 0.0
N926 N 0.33973 0.3405 0.34308 0.0
C927 C 0.35338 0.35109 0.39213 0.0
C928 C 0.38412 0.3598 0.36123 0.0
C929 C 0.33407 0.34191 0.36935 0.0
C930 C 0.37855 0.35972 0.38805 0.0
C931 C 0.39337 0.36371 0.30732 0.0
C932 C 0.36871 0.35202 0.31211 0.0
C933 C 0.41348 0.37238 0.32948 0.0
C934 C 0.40888 0.37042 0.35635 0.0
Eu935 Eu 0.30851 0.32715 0.30281 0.0
N936 N 0.34888 0.34369 0.29096 0.0
C937 C 0.39688 0.36729 0.28053 0.0
C938 C 0.35186 0.34901 0.26541 0.0
C939 C 0.37594 0.36031 0.25958 0.0
H940 H 0.31457 0.33644 0.37285 0.0
H941 H 0.37824 0.36413 0.23911 0.0
H942 H 0.27076 0.25079 0.19543 0.0
H943 H 0.20151 0.23607 0.3294 0.0
H944 H 0.33555 0.34521 0.24981 0.0
H945 H 0.41549 0.37636 0.27606 0.0
H946 H 0.24427 0.25554 0.31968 0.0
H947 H 0.34878 0.35184 0.41284 0.0
H948 H 0.43255 0.38131 0.32616 0.0
H949 H 0.42448 0.37792 0.37333 0.0
H950 H 0.23766 0.2326 0.15474 0.0
H951 H 0.39341 0.36716 0.40579 0.0
H952 H 0.16679 0.21408 0.29064 0.0
N953 N 0.2453 0.24302 0.2244 0.0
C954 C 0.22106 0.2323 0.22809 0.0
C955 C 0.23272 0.2326 0.17525 0.0
C956 C 0.20172 0.22094 0.20526 0.0
C957 C 0.25136 0.24337 0.19844 0.0
C958 C 0.20783 0.22124 0.17865 0.0
N959 N 0.23453 0.24365 0.27647 0.0
C960 C 0.22966 0.24508 0.3029 0.0
C961 C 0.1907 0.22115 0.25924 0.0
C962 C 0.21564 0.23222 0.25481 0.0
C963 C 0.18571 0.22226 0.2864 0.0
C964 C 0.20525 0.23455 0.30833 0.0
H965 H 0.19352 0.2126 0.1606 0.0
H966 H 0.16198 0.20041 0.19231 0.0
H967 H 0.15232 0.20076 0.23954 0.0
O968 O 0.28748 0.22405 0.28075 0.0
O969 O 0.24983 0.28536 0.27088 0.0
O970 O 0.26693 0.31408 0.31169 0.0
O971 O 0.26752 0.21754 0.23896 0.0
O972 O 0.2907 0.25928 0.31077 0.0
O973 O 0.2934 0.30187 0.33305 0.0
O974 O 0.29629 0.35946 0.28719 0.0
O975 O 0.3376 0.30206 0.29131 0.0
O976 O 0.31619 0.26943 0.25438 0.0
O977 O 0.31635 0.36592 0.3289 0.0
O978 O 0.29064 0.32213 0.25728 0.0
O979 O 0.29438 0.28149 0.23654 0.0
C980 C 0.24686 0.30162 0.29284 0.0
C981 C 0.29625 0.19211 0.24691 0.0
C982 C 0.31226 0.15339 0.24885 0.0
C983 C 0.32525 0.15819 0.22659 0.0
C984 C 0.30952 0.1974 0.22493 0.0
C985 C 0.32397 0.18033 0.21477 0.0
C986 C 0.29779 0.17035 0.25875 0.0
C987 C 0.29304 0.27694 0.33349 0.0
C988 C 0.27933 0.20768 0.25712 0.0
C989 C 0.17702 0.20942 0.20962 0.0
C990 C 0.17152 0.20955 0.23652 0.0
C991 C 0.33783 0.28385 0.26958 0.0
C992 C 0.28887 0.39262 0.32086 0.0
C993 C 0.27681 0.43346 0.31926 0.0
C994 C 0.26555 0.43131 0.34313 0.0
C995 C 0.27732 0.38988 0.34452 0.0
C996 C 0.28806 0.41397 0.30809 0.0
C997 C 0.26555 0.40926 0.35554 0.0
C998 C 0.29174 0.30527 0.23507 0.0
C999 C 0.30478 0.37588 0.3107 0.0
H1000 H 0.33661 0.14515 0.21872 0.0
H1001 H 0.30838 0.21433 0.21547 0.0
H1002 H 0.33408 0.18421 0.19773 0.0
H1003 H 0.28724 0.16633 0.27555 0.0
H1004 H 0.25673 0.44647 0.35194 0.0
H1005 H 0.278 0.37332 0.35475 0.0
H1006 H 0.2973 0.41611 0.29001 0.0
H1007 H 0.25687 0.40745 0.37393 0.0
Eu1008 Eu 0.54598 0.49997 0.02414 0.0
C1009 C 0.51065 0.60285 0.09068 0.0
N1010 N 0.49794 0.58451 0.06805 0.0
C1011 C 0.45834 0.58422 0.08473 0.0
C1012 C 0.49759 0.61201 0.11168 0.0
C1013 C 0.47203 0.57578 0.06441 0.0
C1014 C 0.47119 0.6022 0.1086 0.0
C1015 C 0.55031 0.63251 0.11558 0.0
C1016 C 0.53673 0.6131 0.0926 0.0
C1017 C 0.53743 0.64114 0.13679 0.0
C1018 C 0.51116 0.63094 0.13485 0.0
Eu1019 Eu 0.52315 0.57146 0.0352 0.0
N1020 N 0.5489 0.60397 0.07206 0.0
C1021 C 0.57642 0.64285 0.11643 0.0
C1022 C 0.57402 0.61502 0.07208 0.0
C1023 C 0.58825 0.63429 0.09442 0.0
H1024 H 0.46178 0.56247 0.04566 0.0
H1025 H 0.60829 0.64265 0.09456 0.0
H1026 H 0.6067 0.51835 0.01224 0.0
H1027 H 0.46749 0.42095 0.96376 0.0
H1028 H 0.58306 0.60901 0.05492 0.0
H1029 H 0.5875 0.6578 0.13372 0.0
H1030 H 0.49161 0.45243 0.00569 0.0
H1031 H 0.43786 0.57699 0.08187 0.0
H1032 H 0.54757 0.65593 0.15467 0.0
H1033 H 0.50144 0.63807 0.15122 0.0
H1034 H 0.6306 0.51354 0.9733 0.0
H1035 H 0.4605 0.60878 0.12426 0.0
H1036 H 0.48693 0.41639 0.92109 0.0
N1037 N 0.57153 0.49475 0.98921 0.0
C1038 C 0.55965 0.47804 0.96519 0.0
C1039 C 0.61057 0.50371 0.97062 0.0
C1040 C 0.57271 0.47421 0.94253 0.0
C1041 C 0.59685 0.50679 0.99254 0.0
C1042 C 0.59838 0.48762 0.94538 0.0
N1043 N 0.52268 0.46763 0.986 0.0
C1044 C 0.49948 0.45164 0.98674 0.0
C1045 C 0.52195 0.44574 0.93938 0.0
C1046 C 0.53454 0.46401 0.96357 0.0
C1047 C 0.49723 0.4307 0.93924 0.0
C1048 C 0.48613 0.43332 0.96323 0.0
H1049 H 0.60909 0.48516 0.92848 0.0
H1050 H 0.56962 0.4537 0.90034 0.0
H1051 H 0.52521 0.42875 0.89761 0.0
O1052 O 0.53607 0.46648 0.04629 0.0
O1053 O 0.53191 0.51541 0.9865 0.0
O1054 O 0.50206 0.53751 1.00013 0.0
O1055 O 0.57372 0.47798 0.03424 0.0
O1056 O 0.50635 0.49661 0.03567 0.0
O1057 O 0.49248 0.53591 0.03875 0.0
O1058 O 0.53633 0.60347 0.01163 0.0
O1059 O 0.54389 0.5642 0.07466 0.0
O1060 O 0.55743 0.52516 0.06653 0.0
O1061 O 0.49736 0.59335 0.02029 0.0
O1062 O 0.55459 0.56327 0.01215 0.0
O1063 O 0.57672 0.53899 0.03439 0.0
C1064 C 0.51197 0.52476 0.98091 0.0
C1065 C 0.56722 0.44138 0.05915 0.0
C1066 C 0.56122 0.40557 0.08599 0.0
C1067 C 0.58634 0.4041 0.08396 0.0
C1068 C 0.59207 0.43892 0.05737 0.0
C1069 C 0.60151 0.42054 0.06974 0.0
C1070 C 0.55174 0.42465 0.07374 0.0
C1071 C 0.48952 0.51062 0.04008 0.0
C1072 C 0.55873 0.46237 0.04669 0.0
C1073 C 0.55994 0.45676 0.91802 0.0
C1074 C 0.53463 0.44255 0.91645 0.0
C1075 C 0.55531 0.5466 0.08266 0.0
C1076 C 0.50694 0.62974 0.996 0.0
C1077 C 0.51578 0.66584 0.97006 0.0
C1078 C 0.49214 0.67081 0.97395 0.0
C1079 C 0.48334 0.63529 0.99935 0.0
C1080 C 0.52321 0.64507 0.981 0.0
C1081 C 0.47605 0.65559 0.98838 0.0
C1082 C 0.57614 0.56005 0.02341 0.0
C1083 C 0.51408 0.60871 0.00949 0.0
H1084 H 0.59447 0.39027 0.09366 0.0
H1085 H 0.60449 0.45148 0.04659 0.0
H1086 H 0.62078 0.41909 0.06842 0.0
H1087 H 0.53255 0.42631 0.07537 0.0
H1088 H 0.48603 0.68652 0.96558 0.0
H1089 H 0.47046 0.62409 0.0108 0.0
H1090 H 0.54147 0.64117 0.97818 0.0
H1091 H 0.45787 0.65963 0.9912 0.0
Eu1092 Eu 0.79174 0.32195 0.2647 0.0
C1093 C 0.74298 0.23688 0.33337 0.0
N1094 N 0.76486 0.25662 0.33988 0.0
C1095 C 0.75727 0.2664 0.38653 0.0
C1096 C 0.72711 0.2315 0.35338 0.0
C1097 C 0.77244 0.27103 0.36606 0.0
C1098 C 0.73447 0.24665 0.38015 0.0
C1099 C 0.7136 0.20159 0.29929 0.0
C1100 C 0.73623 0.22205 0.30651 0.0
C1101 C 0.69777 0.19634 0.3192 0.0
C1102 C 0.70449 0.21123 0.34613 0.0
Eu1103 Eu 0.78922 0.26149 0.30403 0.0
N1104 N 0.75156 0.22794 0.28736 0.0
C1105 C 0.70759 0.18691 0.27227 0.0
C1106 C 0.74642 0.2129 0.26143 0.0
C1107 C 0.72421 0.19243 0.25335 0.0
H1108 H 0.79042 0.28571 0.3714 0.0
H1109 H 0.7201 0.18069 0.23265 0.0
H1110 H 0.79378 0.29811 0.19777 0.0
H1111 H 0.86132 0.39842 0.34067 0.0
H1112 H 0.75969 0.21609 0.24716 0.0
H1113 H 0.69042 0.17099 0.26596 0.0
H1114 H 0.8201 0.36643 0.32275 0.0
H1115 H 0.76329 0.27791 0.40728 0.0
H1116 H 0.6803 0.18072 0.314 0.0
H1117 H 0.69208 0.20687 0.36125 0.0
H1118 H 0.82386 0.30441 0.16452 0.0
H1119 H 0.72281 0.24309 0.3961 0.0
H1120 H 0.89409 0.40592 0.31023 0.0
N1121 N 0.81877 0.32582 0.23092 0.0
C1122 C 0.84144 0.34435 0.23903 0.0
C1123 C 0.8291 0.3156 0.18546 0.0
C1124 C 0.85908 0.34871 0.22055 0.0
C1125 C 0.81221 0.31182 0.20448 0.0
C1126 C 0.85265 0.33402 0.19354 0.0
N1127 N 0.8304 0.35338 0.28401 0.0
C1128 C 0.83472 0.36823 0.30997 0.0
C1129 C 0.87095 0.37734 0.27522 0.0
C1130 C 0.84737 0.35856 0.2662 0.0
C1131 C 0.87619 0.39132 0.30252 0.0
C1132 C 0.85785 0.38698 0.31985 0.0
H1133 H 0.86569 0.33684 0.17872 0.0
H1134 H 0.89635 0.37096 0.21563 0.0
H1135 H 0.90671 0.39596 0.26339 0.0
O1136 O 0.779 0.35836 0.27589 0.0
O1137 O 0.82946 0.30873 0.27361 0.0
O1138 O 0.82869 0.29111 0.31313 0.0
O1139 O 0.78099 0.34339 0.23323 0.0
O1140 O 0.78047 0.32457 0.30766 0.0
O1141 O 0.80461 0.30169 0.32992 0.0
O1142 O 0.80463 0.22696 0.29089 0.0
O1143 O 0.75058 0.27203 0.29345 0.0
O1144 O 0.75107 0.29508 0.25726 0.0
O1145 O 0.80504 0.24255 0.33481 0.0
O1146 O 0.80008 0.26232 0.26231 0.0
O1147 O 0.77581 0.28173 0.23647 0.0
C1148 C 0.84148 0.30188 0.29493 0.0
C1149 C 0.75295 0.37157 0.24129 0.0
C1150 C 0.72842 0.40491 0.2481 0.0
C1151 C 0.71589 0.39575 0.22085 0.0
C1152 C 0.73982 0.36254 0.21416 0.0
C1153 C 0.72141 0.37456 0.20412 0.0
C1154 C 0.74687 0.39266 0.25838 0.0
C1155 C 0.79291 0.32063 0.33013 0.0
C1156 C 0.77513 0.36164 0.25044 0.0
C1157 C 0.88258 0.36739 0.22957 0.0
C1158 C 0.88849 0.38163 0.25679 0.0
C1159 C 0.73864 0.28143 0.27392 0.0
C1160 C 0.82387 0.2056 0.32526 0.0
C1161 C 0.83713 0.1645 0.31571 0.0
C1162 C 0.84923 0.16937 0.34315 0.0
C1163 C 0.83608 0.2101 0.35268 0.0
C1164 C 0.82461 0.18275 0.30661 0.0
C1165 C 0.84874 0.1921 0.36149 0.0
C1166 C 0.78569 0.26171 0.23942 0.0
C1167 C 0.81099 0.22523 0.31656 0.0
H1168 H 0.70169 0.40498 0.21257 0.0
H1169 H 0.74419 0.34663 0.20038 0.0
H1170 H 0.71165 0.36767 0.18311 0.0
H1171 H 0.75705 0.40016 0.2792 0.0
H1172 H 0.85905 0.15547 0.35038 0.0
H1173 H 0.83601 0.22768 0.36733 0.0
H1174 H 0.8153 0.179 0.28541 0.0
H1175 H 0.85815 0.19575 0.38261 0.0
Eu1176 Eu 0.04836 0.56414 0.50596 0.0
C1177 C 0.08032 0.49368 0.59755 0.0
N1178 N 0.06218 0.48587 0.5748 0.0
C1179 C 0.07066 0.44287 0.56664 0.0
C1180 C 0.09448 0.47617 0.6057 0.0
C1181 C 0.05721 0.46093 0.55927 0.0
C1182 C 0.08931 0.45047 0.59001 0.0
C1183 C 0.10546 0.52872 0.63473 0.0
C1184 C 0.0856 0.51964 0.61202 0.0
C1185 C 0.11911 0.51114 0.64329 0.0
C1186 C 0.11361 0.48492 0.62884 0.0
Eu1187 Eu 0.03905 0.51681 0.56505 0.0
N1188 N 0.07268 0.5365 0.60264 0.0
C1189 C 0.11167 0.55547 0.64759 0.0
C1190 C 0.07927 0.56279 0.61479 0.0
C1191 C 0.09867 0.5726 0.63738 0.0
H1192 H 0.04252 0.45478 0.54142 0.0
H1193 H 0.10375 0.59349 0.64672 0.0
H1194 H 0.03585 0.62359 0.52054 0.0
H1195 H 0.01115 0.49058 0.4098 0.0
H1196 H 0.0704 0.57668 0.60688 0.0
H1197 H 0.12688 0.56322 0.66495 0.0
H1198 H 0.04326 0.51555 0.4497 0.0
H1199 H 0.06659 0.42306 0.55434 0.0
H1200 H 0.13433 0.51778 0.66072 0.0
H1201 H 0.12461 0.47172 0.63543 0.0
H1202 H 1.00052 0.64448 0.51048 0.0
H1203 H 0.09977 0.43645 0.59561 0.0
H1204 H 0.97096 0.50381 0.40021 0.0
N1205 N 0.01838 0.58768 0.49244 0.0
C1206 C 0.99911 0.57479 0.47171 0.0
C1207 C 0.99972 0.62473 0.4996 0.0
C1208 C 0.97863 0.58587 0.46491 0.0
C1209 C 0.01951 0.61277 0.50558 0.0
C1210 C 0.97892 0.611 0.47951 0.0
N1211 N 0.02045 0.54078 0.46451 0.0
C1212 C 0.02536 0.52075 0.44663 0.0
C1213 C 0.98134 0.53717 0.4345 0.0
C1214 C 1.00016 0.5505 0.45729 0.0
C1215 C 0.98485 0.51458 0.41802 0.0
C1216 C 0.00743 0.50696 0.4235 0.0
H1217 H 0.96354 0.62021 0.47498 0.0
H1218 H 0.94268 0.57962 0.43837 0.0
H1219 H 0.94527 0.5371 0.41132 0.0
O1220 O 0.07805 0.56759 0.47979 0.0
O1221 O 0.00911 0.55448 0.51683 0.0
O1222 O 0.01298 0.51554 0.52658 0.0
O1223 O 0.06907 0.60288 0.49972 0.0
O1224 O 0.05889 0.52336 0.49801 0.0
O1225 O 0.03458 0.49407 0.52112 0.0
O1226 O 0.0142 0.51779 0.59637 0.0
O1227 O 0.07877 0.5302 0.55595 0.0
O1228 O 0.07436 0.5696 0.54607 0.0
O1229 O 0.01375 0.48026 0.57075 0.0
O1230 O 0.03031 0.55752 0.57663 0.0
O1231 O 0.04674 0.58758 0.54885 0.0
C1232 C 0.9996 0.5328 0.52514 0.0
C1233 C 0.0795 0.60234 0.45467 0.0
C1234 C 0.0834 0.59609 0.40583 0.0
C1235 C 0.07552 0.61932 0.40392 0.0
C1236 C 0.07193 0.62582 0.45252 0.0
C1237 C 0.06997 0.6342 0.42725 0.0
C1238 C 0.08557 0.58774 0.4312 0.0
C1239 C 0.04924 0.49897 0.5022 0.0
C1240 C 0.081 0.593 0.48115 0.0
C1241 C 0.95881 0.57167 0.44364 0.0
C1242 C 0.96023 0.54741 0.42833 0.0
C1243 C 0.08878 0.55387 0.55144 0.0
C1244 C 1.00197 0.47923 0.61511 0.0
C1245 C 0.98081 0.47458 0.65512 0.0
C1246 C 0.9917 0.45359 0.65936 0.0
C1247 C 0.01321 0.45852 0.61965 0.0
C1248 C 0.98598 0.48721 0.63296 0.0
C1249 C 0.008 0.44575 0.64175 0.0
C1250 C 0.03586 0.58167 0.57058 0.0
C1251 C 1.00513 0.49209 0.59127 0.0
H1252 H 0.07426 0.62625 0.38454 0.0
H1253 H 0.06747 0.63772 0.4703 0.0
H1254 H 0.06425 0.65234 0.42578 0.0
H1255 H 0.09192 0.56987 0.43253 0.0
H1256 H 0.98795 0.44365 0.67651 0.0
H1257 H 0.0257 0.45204 0.60609 0.0
H1258 H 0.97718 0.50311 0.62935 0.0
H1259 H 0.01656 0.42972 0.64519 0.0
Eu1260 Eu 0.82514 0.77546 0.28496 0.0
C1261 C 0.73157 0.80911 0.21958 0.0
N1262 N 0.74839 0.823 0.24233 0.0
C1263 C 0.7496 0.86362 0.22575 0.0
C1264 C 0.72386 0.82203 0.19853 0.0
C1265 C 0.75647 0.85009 0.24621 0.0
C1266 C 0.73351 0.8495 0.20164 0.0
C1267 C 0.70228 0.76765 0.19534 0.0
C1268 C 0.72075 0.78217 0.218 0.0
C1269 C 0.69538 0.78028 0.17392 0.0
C1270 C 0.70612 0.80738 0.17552 0.0
Eu1271 Eu 0.75747 0.79782 0.27599 0.0
N1272 N 0.72773 0.77028 0.23896 0.0
C1273 C 0.69083 0.74097 0.19519 0.0
C1274 C 0.71543 0.74484 0.23981 0.0
C1275 C 0.6972 0.72963 0.2177 0.0
H1276 H 0.76772 0.86156 0.26539 0.0
H1277 H 0.68785 0.70928 0.21818 0.0
H1278 H 0.80567 0.71191 0.29321 0.0
H1279 H 0.90318 0.8544 0.34751 0.0
H1280 H 0.71961 0.73637 0.2576 0.0
H1281 H 0.67656 0.72917 0.17816 0.0
H1282 H 0.87343 0.83078 0.30527 0.0
H1283 H 0.75636 0.88501 0.22884 0.0
H1284 H 0.68134 0.76939 0.15628 0.0
H1285 H 0.70013 0.81698 0.15912 0.0
H1286 H 0.8082 0.68608 0.33014 0.0
H1287 H 0.72796 0.86011 0.18597 0.0
H1288 H 0.90529 0.8334 0.38857 0.0
N1289 N 0.82863 0.74804 0.31787 0.0
C1290 C 0.84461 0.75958 0.34188 0.0
C1291 C 0.81826 0.70685 0.33387 0.0
C1292 C 0.84709 0.74541 0.36343 0.0
C1293 C 0.81649 0.7217 0.31311 0.0
C1294 C 0.83331 0.71887 0.35932 0.0
N1295 N 0.85673 0.79826 0.32314 0.0
C1296 C 0.87314 0.82213 0.32351 0.0
C1297 C 0.87627 0.79782 0.36899 0.0
C1298 C 0.85898 0.78549 0.34465 0.0
C1299 C 0.89173 0.82327 0.37028 0.0
C1300 C 0.89051 0.83525 0.34721 0.0
H1301 H 0.8347 0.70729 0.37534 0.0
H1302 H 0.86544 0.74753 0.40502 0.0
H1303 H 0.89101 0.79342 0.40987 0.0
O1304 O 0.86292 0.78151 0.27163 0.0
O1305 O 0.80756 0.78535 0.32414 0.0
O1306 O 0.78729 0.81728 0.31404 0.0
O1307 O 0.83569 0.74271 0.25964 0.0
O1308 O 0.83048 0.81857 0.28047 0.0
O1309 O 0.79218 0.83175 0.27664 0.0
O1310 O 0.7277 0.78728 0.30229 0.0
O1311 O 0.76587 0.77145 0.23829 0.0
O1312 O 0.80844 0.78809 0.24705 0.0
O1313 O 0.73186 0.82276 0.28477 0.0
O1314 O 0.76053 0.76243 0.29563 0.0
O1315 O 0.78763 0.74342 0.27177 0.0
C1316 C 0.79732 0.8052 0.33208 0.0
C1317 C 0.87671 0.74645 0.24322 0.0
C1318 C 0.91344 0.75151 0.21827 0.0
C1319 C 0.91221 0.72444 0.21711 0.0
C1320 C 0.87596 0.71942 0.24134 0.0
C1321 C 0.8936 0.70857 0.22846 0.0
C1322 C 0.89552 0.7626 0.23141 0.0
C1323 C 0.81711 0.83623 0.2777 0.0
C1324 C 0.85815 0.7572 0.25827 0.0
C1325 C 0.8635 0.75801 0.38813 0.0
C1326 C 0.87805 0.78415 0.39091 0.0
C1327 C 0.78816 0.77414 0.22998 0.0
C1328 C 0.70523 0.82008 0.31957 0.0
C1329 C 0.66853 0.81611 0.34417 0.0
C1330 C 0.67386 0.84398 0.35079 0.0
C1331 C 0.71036 0.84792 0.32698 0.0
C1332 C 0.68423 0.80424 0.32829 0.0
C1333 C 0.69465 0.8597 0.34235 0.0
C1334 C 0.76763 0.74138 0.28471 0.0
C1335 C 0.71878 0.80768 0.29905 0.0
H1336 H 0.92571 0.71548 0.20724 0.0
H1337 H 0.8619 0.70668 0.2503 0.0
H1338 H 0.89295 0.68774 0.22738 0.0
H1339 H 0.89639 0.78352 0.23267 0.0
H1340 H 0.66164 0.85367 0.36218 0.0
H1341 H 0.726 0.86065 0.3201 0.0
H1342 H 0.67983 0.7828 0.32227 0.0
H1343 H 0.69833 0.88113 0.34736 0.0
Eu1344 Eu 0.77374 0.28394 0.81047 0.0
C1345 C 0.82823 0.23146 0.71757 0.0
N1346 N 0.83896 0.25333 0.73748 0.0
C1347 C 0.87742 0.23911 0.744 0.0
C1348 C 0.84188 0.21238 0.71016 0.0
C1349 C 0.86311 0.25737 0.7508 0.0
C1350 C 0.86678 0.21653 0.72356 0.0
C1351 C 0.79147 0.20474 0.68498 0.0
C1352 C 0.80324 0.22773 0.70512 0.0
C1353 C 0.80512 0.18586 0.67742 0.0
C1354 C 0.83025 0.18969 0.68992 0.0
Eu1355 Eu 0.81399 0.28357 0.74706 0.0
N1356 N 0.79029 0.2462 0.71312 0.0
C1357 C 0.76628 0.20131 0.67302 0.0
C1358 C 0.76597 0.24325 0.70068 0.0
C1359 C 0.75354 0.22071 0.68083 0.0
H1360 H 0.8715 0.27499 0.7663 0.0
H1361 H 0.73416 0.21846 0.67135 0.0
H1362 H 0.71711 0.29664 0.79584 0.0
H1363 H 0.84965 0.33425 0.89783 0.0
H1364 H 0.75587 0.25811 0.7054 0.0
H1365 H 0.75657 0.1839 0.65756 0.0
H1366 H 0.82501 0.29706 0.86205 0.0
H1367 H 0.89665 0.24249 0.75446 0.0
H1368 H 0.79637 0.16816 0.66194 0.0
H1369 H 0.84048 0.17487 0.68393 0.0
H1370 H 0.69541 0.332 0.80857 0.0
H1371 H 0.8779 0.20236 0.71837 0.0
H1372 H 0.83374 0.37438 0.90899 0.0
N1373 N 0.75097 0.31587 0.82375 0.0
C1374 C 0.76304 0.33695 0.84399 0.0
C1375 C 0.7145 0.33376 0.81859 0.0
C1376 C 0.75142 0.35772 0.85191 0.0
C1377 C 0.72691 0.31384 0.81124 0.0
C1378 C 0.72689 0.35593 0.83886 0.0
N1379 N 0.79737 0.31696 0.84907 0.0
C1380 C 0.81875 0.31497 0.86478 0.0
C1381 C 0.79995 0.35914 0.8783 0.0
C1382 C 0.78708 0.3377 0.85679 0.0
C1383 C 0.82327 0.35834 0.89236 0.0
C1384 C 0.83239 0.33583 0.88599 0.0
H1385 H 0.71729 0.37141 0.84443 0.0
H1386 H 0.75607 0.39578 0.87872 0.0
H1387 H 0.79856 0.39698 0.90194 0.0
O1388 O 0.77153 0.25517 0.8378 0.0
O1389 O 0.78468 0.32308 0.79693 0.0
O1390 O 0.82124 0.31714 0.78323 0.0
O1391 O 0.73747 0.26534 0.82186 0.0
O1392 O 0.81272 0.27256 0.81698 0.0
O1393 O 0.8381 0.29493 0.78952 0.0
O1394 O 0.81192 0.3055 0.71403 0.0
O1395 O 0.80271 0.24532 0.76234 0.0
O1396 O 0.7659 0.25348 0.77163 0.0
O1397 O 0.849 0.30106 0.7316 0.0
O1398 O 0.77695 0.29698 0.73963 0.0
O1399 O 0.74917 0.28046 0.76866 0.0
C1400 C 0.80559 0.33209 0.78747 0.0
C1401 C 0.74018 0.25541 0.86662 0.0
C1402 C 0.74195 0.24143 0.91083 0.0
C1403 C 0.72836 0.25971 0.92041 0.0
C1404 C 0.72638 0.27361 0.87619 0.0
C1405 C 0.72042 0.27559 0.90298 0.0
C1406 C 0.74761 0.23921 0.88394 0.0
C1407 C 0.83556 0.28272 0.81071 0.0
C1408 C 0.74749 0.25303 0.83897 0.0
C1409 C 0.76459 0.37953 0.87255 0.0
C1410 C 0.78881 0.38026 0.88568 0.0
C1411 C 0.77993 0.23683 0.76783 0.0
C1412 C 0.84801 0.32618 0.69452 0.0
C1413 C 0.84316 0.35111 0.65828 0.0
C1414 C 0.86908 0.35482 0.65626 0.0
C1415 C 0.87402 0.33013 0.69276 0.0
C1416 C 0.83276 0.337 0.67743 0.0
C1417 C 0.88449 0.34449 0.67364 0.0
C1418 C 0.75412 0.292 0.74727 0.0
C1419 C 0.83634 0.31067 0.71374 0.0
H1420 H 0.72377 0.2615 0.94119 0.0
H1421 H 0.72034 0.28635 0.86315 0.0
H1422 H 0.70976 0.28956 0.9103 0.0
H1423 H 0.75832 0.22519 0.87667 0.0
H1424 H 0.87733 0.36582 0.6414 0.0
H1425 H 0.88614 0.32202 0.70594 0.0
H1426 H 0.81265 0.33423 0.67864 0.0
H1427 H 0.90452 0.34749 0.67221 0.0
Eu1428 Eu 0.77731 0.76075 0.76712 0.0
C1429 C 0.86766 0.84893 0.83593 0.0
N1430 N 0.84444 0.83665 0.84132 0.0
C1431 C 0.8623 0.8379 0.88801 0.0
C1432 C 0.88922 0.85593 0.85663 0.0
C1433 C 0.84144 0.83136 0.86697 0.0
C1434 C 0.88628 0.85025 0.88284 0.0
C1435 C 0.89411 0.86632 0.80342 0.0
C1436 C 0.87006 0.85417 0.80947 0.0
C1437 C 0.91546 0.87348 0.82412 0.0
C1438 C 0.91302 0.86837 0.85062 0.0
Eu1439 Eu 0.81041 0.83173 0.80572 0.0
N1440 N 0.84909 0.84707 0.78962 0.0
C1441 C 0.89604 0.87107 0.77672 0.0
C1442 C 0.85078 0.85262 0.76389 0.0
C1443 C 0.87427 0.86423 0.75691 0.0
H1444 H 0.82288 0.8233 0.87179 0.0
H1445 H 0.87548 0.86845 0.7364 0.0
H1446 H 0.76464 0.76566 0.69988 0.0
H1447 H 0.71435 0.71313 0.83241 0.0
H1448 H 0.83411 0.84914 0.74893 0.0
H1449 H 0.91417 0.88034 0.77129 0.0
H1450 H 0.75503 0.73542 0.82028 0.0
H1451 H 0.85977 0.83388 0.90836 0.0
H1452 H 0.934 0.88299 0.81984 0.0
H1453 H 0.92971 0.87403 0.86634 0.0
H1454 H 0.72778 0.75525 0.66339 0.0
H1455 H 0.90237 0.85549 0.89929 0.0
H1456 H 0.67512 0.70242 0.79838 0.0
N1457 N 0.74312 0.75308 0.73061 0.0
C1458 C 0.71997 0.74022 0.73576 0.0
C1459 C 0.72524 0.75133 0.68377 0.0
C1460 C 0.69842 0.733 0.71504 0.0
C1461 C 0.7461 0.7579 0.70481 0.0
C1462 C 0.70126 0.73901 0.68895 0.0
N1463 N 0.73891 0.74068 0.78131 0.0
C1464 C 0.73799 0.73261 0.80601 0.0
C1465 C 0.69423 0.71983 0.76728 0.0
C1466 C 0.71788 0.7336 0.76164 0.0
C1467 C 0.69292 0.71302 0.79329 0.0
C1468 C 0.71496 0.71921 0.81263 0.0
H1469 H 0.68519 0.73366 0.67248 0.0
H1470 H 0.65813 0.71386 0.70508 0.0
H1471 H 0.65447 0.70243 0.75078 0.0
O1472 O 0.78658 0.725 0.77727 0.0
O1473 O 0.74751 0.78454 0.77832 0.0
O1474 O 0.76759 0.82336 0.8093 0.0
O1475 O 0.77096 0.72558 0.73525 0.0
O1476 O 0.79414 0.76652 0.81299 0.0
O1477 O 0.78858 0.80675 0.83205 0.0
O1478 O 0.81237 0.87182 0.79913 0.0
O1479 O 0.83603 0.80221 0.79993 0.0
O1480 O 0.81878 0.77457 0.75868 0.0
O1481 O 0.81529 0.86397 0.84071 0.0
O1482 O 0.79114 0.8281 0.76128 0.0
O1483 O 0.79557 0.78797 0.74002 0.0
C1484 C 0.74653 0.80598 0.79585 0.0
C1485 C 0.79705 0.69653 0.74127 0.0
C1486 C 0.81441 0.65888 0.74445 0.0
C1487 C 0.82587 0.66229 0.72097 0.0
C1488 C 0.80873 0.70046 0.71789 0.0
C1489 C 0.82313 0.68327 0.70781 0.0
C1490 C 0.80015 0.67594 0.75449 0.0
C1491 C 0.78928 0.78247 0.83391 0.0
C1492 C 0.7802 0.71217 0.75176 0.0
C1493 C 0.67485 0.71955 0.72077 0.0
C1494 C 0.67276 0.713 0.74679 0.0
C1495 C 0.83904 0.78717 0.77711 0.0
C1496 C 0.79465 0.89676 0.83144 0.0
C1497 C 0.77238 0.92843 0.8184 0.0
C1498 C 0.75958 0.92702 0.84128 0.0
C1499 C 0.78178 0.89509 0.85441 0.0
C1500 C 0.78986 0.91354 0.81364 0.0
C1501 C 0.76427 0.91024 0.85924 0.0
C1502 C 0.79253 0.81174 0.73879 0.0
C1503 C 0.8129 0.88117 0.82523 0.0
H1504 H 0.83704 0.64904 0.71315 0.0
H1505 H 0.80653 0.71646 0.70735 0.0
H1506 H 0.83205 0.68612 0.68975 0.0
H1507 H 0.79112 0.67289 0.77254 0.0
H1508 H 0.7461 0.93887 0.84518 0.0
H1509 H 0.78516 0.88214 0.86852 0.0
H1510 H 0.79984 0.9152 0.79602 0.0
H1511 H 0.7544 0.90901 0.8769 0.0
Eu1512 Eu 0.57197 0.55624 0.54163 0.0
C1513 C 0.48308 0.46104 0.47329 0.0
N1514 N 0.49779 0.4845 0.46959 0.0
C1515 C 0.49952 0.46483 0.42297 0.0
C1516 C 0.47684 0.43829 0.45201 0.0
C1517 C 0.50508 0.48687 0.44446 0.0
C1518 C 0.48552 0.44039 0.4268 0.0
C1519 C 0.45911 0.43533 0.50267 0.0
C1520 C 0.47393 0.45965 0.49834 0.0
C1521 C 0.45307 0.41277 0.48152 0.0
C1522 C 0.46182 0.41428 0.45626 0.0
Eu1523 Eu 0.50215 0.52097 0.50595 0.0
N1524 N 0.48014 0.48171 0.51873 0.0
C1525 C 0.45096 0.43426 0.52828 0.0
C1526 C 0.47161 0.48085 0.54347 0.0
C1527 C 0.45726 0.45711 0.54875 0.0
H1528 H 0.51415 0.50582 0.44015 0.0
H1529 H 0.45067 0.45658 0.56847 0.0
H1530 H 0.5604 0.57317 0.60771 0.0
H1531 H 0.61944 0.61868 0.47605 0.0
H1532 H 0.475 0.49847 0.55894 0.0
H1533 H 0.43966 0.41593 0.5324 0.0
H1534 H 0.59872 0.57658 0.48912 0.0
H1535 H 0.5055 0.46688 0.4032 0.0
H1536 H 0.44162 0.39402 0.48449 0.0
H1537 H 0.45681 0.39671 0.44008 0.0
H1538 H 0.5645 0.61349 0.64167 0.0
H1539 H 0.48099 0.42341 0.40996 0.0
H1540 H 0.62446 0.66131 0.50803 0.0
N1541 N 0.57297 0.59348 0.57601 0.0
C1542 C 0.5843 0.61747 0.57014 0.0
C1543 C 0.56969 0.61493 0.62145 0.0
C1544 C 0.58807 0.64118 0.58969 0.0
C1545 C 0.56667 0.59194 0.60167 0.0
C1546 C 0.58021 0.63967 0.61537 0.0
N1547 N 0.58987 0.59538 0.52651 0.0
C1548 C 0.59972 0.59515 0.50245 0.0
C1549 C 0.60572 0.64287 0.53879 0.0
C1550 C 0.59326 0.61841 0.54497 0.0
C1551 C 0.6148 0.64292 0.5135 0.0
C1552 C 0.6119 0.61892 0.49532 0.0
H1553 H 0.58291 0.65741 0.63095 0.0
H1554 H 0.6033 0.68389 0.59826 0.0
H1555 H 0.61856 0.68537 0.55369 0.0
O1556 O 0.60836 0.55073 0.53187 0.0
O1557 O 0.5498 0.58193 0.51916 0.0
O1558 O 0.50941 0.56493 0.52617 0.0
O1559 O 0.60461 0.56508 0.57416 0.0
O1560 O 0.56566 0.53068 0.49933 0.0
O1561 O 0.53021 0.54021 0.47974 0.0
O1562 O 0.4612 0.51492 0.5031 0.0
O1563 O 0.52595 0.49107 0.51517 0.0
O1564 O 0.56149 0.51239 0.54786 0.0
O1565 O 0.4802 0.52984 0.47077 0.0
O1566 O 0.50504 0.53684 0.55221 0.0
O1567 O 0.54629 0.5376 0.56925 0.0
C1568 C 0.52646 0.58461 0.52036 0.0
C1569 C 0.6315 0.53617 0.5665 0.0
C1570 C 0.65633 0.5042 0.55506 0.0
C1571 C 0.65597 0.49812 0.5816 0.0
C1572 C 0.63137 0.53006 0.59304 0.0
C1573 C 0.64348 0.51099 0.60043 0.0
C1574 C 0.64382 0.52302 0.5477 0.0
C1575 C 0.55279 0.53603 0.47816 0.0
C1576 C 0.61882 0.5559 0.5577 0.0
C1577 C 0.60023 0.66556 0.58343 0.0
C1578 C 0.60899 0.66641 0.55807 0.0
C1579 C 0.54525 0.49028 0.53364 0.0
C1580 C 0.44304 0.54315 0.47923 0.0
C1581 C 0.41772 0.57047 0.50084 0.0
C1582 C 0.41295 0.57929 0.476 0.0
C1583 C 0.43789 0.55183 0.45441 0.0
C1584 C 0.43262 0.55231 0.50235 0.0
C1585 C 0.42292 0.56987 0.45285 0.0
C1586 C 0.52244 0.53564 0.57229 0.0
C1587 C 0.45883 0.52419 0.48044 0.0
H1588 H 0.66584 0.48395 0.58803 0.0
H1589 H 0.62194 0.5399 0.60803 0.0
H1590 H 0.64341 0.50638 0.6209 0.0
H1591 H 0.64363 0.52749 0.52712 0.0
H1592 H 0.40109 0.59304 0.47439 0.0
H1593 H 0.44545 0.54463 0.43623 0.0
H1594 H 0.43619 0.54562 0.52161 0.0
H1595 H 0.41894 0.57645 0.43365 0.0
Eu1596 Eu 1.00306 0.54261 0.05451 0.0
C1597 C 0.09839 0.5909 0.98004 0.0
N1598 N 0.08212 0.56616 0.97399 0.0
C1599 C 0.0794 0.56679 0.92558 0.0
C1600 C 0.1047 0.60498 0.95881 0.0
C1601 C 0.07388 0.55342 0.94718 0.0
C1602 C 0.09449 0.59283 0.93144 0.0
C1603 C 0.12689 0.62734 0.01387 0.0
C1604 C 0.10966 0.60202 0.00742 0.0
C1605 C 0.13246 0.64155 0.99278 0.0
C1606 C 0.12141 0.63044 0.96539 0.0
Eu1607 Eu 0.07334 0.54764 0.01321 0.0
N1608 N 0.10385 0.58819 0.02775 0.0
C1609 C 0.1381 0.63767 0.04141 0.0
C1610 C 0.1148 0.598 0.05458 0.0
C1611 C 0.13213 0.62287 0.06181 0.0
H1612 H 0.06291 0.53296 0.94232 0.0
H1613 H 0.14064 0.63073 0.08313 0.0
H1614 H 0.01427 0.55225 0.12541 0.0
H1615 H 0.92206 0.47327 0.98604 0.0
H1616 H 0.10969 0.58689 0.0704 0.0
H1617 H 0.15141 0.65704 0.04713 0.0
H1618 H 0.95657 0.51423 1.00055 0.0
H1619 H 0.07219 0.55693 0.9044 0.0
H1620 H 0.14553 0.66109 0.99741 0.0
H1621 H 0.12625 0.64156 0.94933 0.0
H1622 H 1.005 0.52554 0.16114 0.0
H1623 H 0.09882 0.60306 0.91461 0.0
H1624 H 0.91284 0.44223 0.01824 0.0
N1625 N 0.99315 0.52144 0.09213 0.0
C1626 C 0.97543 0.49771 0.08512 0.0
C1627 C 0.99688 0.51729 0.13978 0.0
C1628 C 0.96898 0.48212 0.10513 0.0
C1629 C 1.0024 0.5322 0.11933 0.0
C1630 C 0.9806 0.49186 0.13255 0.0
N1631 N 0.9678 0.50575 0.03971 0.0
C1632 C 0.95321 0.5005 0.01438 0.0
C1633 C 0.94239 0.46633 0.05107 0.0
C1634 C 0.96219 0.48986 0.05834 0.0
C1635 C 0.92819 0.46009 0.02456 0.0
C1636 C 0.93338 0.4775 0.0063 0.0
H1637 H 0.9762 0.48045 0.14849 0.0
H1638 H 0.94554 0.44549 0.1125 0.0
H1639 H 0.92229 0.43167 0.06516 0.0
O1640 O 0.97147 0.55673 0.03638 0.0
O1641 O 0.00871 0.50297 0.03162 0.0
O1642 O 0.04876 0.5056 0.01624 0.0
O1643 O 0.9902 0.5736 0.07855 0.0
O1644 O 0.02242 0.54568 0.01744 0.0
O1645 O 0.03937 0.53787 0.98019 0.0
O1646 O 0.11298 0.54478 0.02394 0.0
O1647 O 0.06399 0.58833 0.02948 0.0
O1648 O 0.02744 0.58323 0.05139 0.0
O1649 O 0.08441 0.51176 0.9985 0.0
O1650 O 0.05598 0.54732 0.05161 0.0
O1651 O 0.03729 0.54786 0.08771 0.0
C1652 C 0.0263 0.49198 0.02118 0.0
C1653 C 0.94727 0.57317 0.06856 0.0
C1654 C 0.91011 0.59114 0.06876 0.0
C1655 C 0.90252 0.57679 0.08933 0.0
C1656 C 0.93914 0.55855 0.08862 0.0
C1657 C 0.91691 0.56055 0.09907 0.0
C1658 C 0.93277 0.58946 0.05864 0.0
C1659 C 0.01874 0.53742 0.9909 0.0
C1660 C 0.97167 0.57299 0.05926 0.0
C1661 C 0.9504 0.45788 0.09747 0.0
C1662 C 0.9371 0.45004 0.07053 0.0
C1663 C 0.04703 0.59795 0.04275 0.0
C1664 C 0.12679 0.51081 0.99567 0.0
C1665 C 0.16052 0.48762 0.99711 0.0
C1666 C 0.15693 0.48208 0.96812 0.0
C1667 C 0.12369 0.50557 0.96668 0.0
C1668 C 0.14555 0.50226 0.01076 0.0
C1669 C 0.13882 0.49131 0.95302 0.0
C1670 C 0.05842 0.54823 0.07797 0.0
C1671 C 0.10788 0.5204 0.01044 0.0
H1672 H 0.88537 0.57814 0.09789 0.0
H1673 H 0.9502 0.54598 0.09654 0.0
H1674 H 0.91086 0.54957 0.11483 0.0
H1675 H 0.93899 0.60057 0.04298 0.0
H1676 H 0.16832 0.47083 0.9572 0.0
H1677 H 0.10902 0.51162 0.95465 0.0
H1678 H 0.14762 0.5058 0.03313 0.0
H1679 H 0.13615 0.48696 0.93069 0.0
H1680 H 0.04042 0.2029 0.9872 0.0
H1681 H 0.96011 0.1832 0.99158 0.0
H1682 H 0.96263 0.14078 0.00361 0.0
H1683 H 0.9873 0.1082 0.01356 0.0
H1684 H 0.06745 0.12741 0.00906 0.0
H1685 H 0.06529 0.17001 0.99732 0.0
C1686 C 0.02344 0.18941 0.99079 0.0
C1687 C 1.00005 0.19699 0.98837 0.0
C1688 C 0.02497 0.16449 0.99819 0.0
C1689 C 0.97849 0.17864 0.99329 0.0
C1690 C 0.97986 0.15404 1.00023 0.0
C1691 C 1.0044 0.12167 0.01018 0.0
C1692 C 0.02776 0.11415 0.01318 0.0
C1693 C 1.00297 0.1466 0.0029 0.0
C1694 C 0.04935 0.13236 0.00813 0.0
C1695 C 0.04806 0.15694 0.00093 0.0
H1696 H 0.1735 0.85114 0.20557 0.0
H1697 H 0.14299 0.77517 0.1513 0.0
H1698 H 0.17598 0.75757 0.1738 0.0
H1699 H 0.21314 0.7634 0.21024 0.0
H1700 H 0.24588 0.84069 0.26117 0.0
H1701 H 0.21252 0.85801 0.2391 0.0
C1702 C 0.1743 0.83084 0.19839 0.0
C1703 C 0.15578 0.8146 0.17659 0.0
C1704 C 0.19364 0.82096 0.21119 0.0
C1705 C 0.15715 0.7883 0.16766 0.0
C1706 C 0.17591 0.77812 0.18076 0.0
C1707 C 0.21293 0.78403 0.21642 0.0
C1708 C 0.23182 0.80071 0.23759 0.0
C1709 C 0.19416 0.79417 0.20276 0.0
C1710 C 0.23144 0.82744 0.24516 0.0
C1711 C 0.2124 0.83736 0.23245 0.0
H1712 H 0.53972 0.87184 0.50728 0.0
H1713 H 0.46226 0.85736 0.46793 0.0
H1714 H 0.46562 0.90516 0.47568 0.0
H1715 H 0.49018 0.95196 0.49446 0.0
H1716 H 0.56717 0.96664 0.53535 0.0
H1717 H 0.56422 0.91899 0.52665 0.0
C1718 C 0.52359 0.8791 0.50026 0.0
C1719 C 0.50065 0.86044 0.48687 0.0
C1720 C 0.52546 0.90714 0.50542 0.0
C1721 C 0.48008 0.87078 0.47836 0.0
C1722 C 0.48199 0.89835 0.48283 0.0
C1723 C 0.50626 0.94484 0.50177 0.0
C1724 C 0.52885 0.9636 0.51583 0.0
C1725 C 0.50447 0.91687 0.4966 0.0
C1726 C 0.5495 0.9533 0.52441 0.0
C1727 C 0.54783 0.92574 0.51942 0.0
H1728 H 0.48792 0.30067 0.6396 0.0
H1729 H 0.53947 0.28438 0.70322 0.0
H1730 H 0.50555 0.27511 0.73061 0.0
H1731 H 0.46078 0.2682 0.73551 0.0
H1732 H 0.40756 0.28129 0.6719 0.0
H1733 H 0.44237 0.29575 0.64591 0.0
C1734 C 0.49165 0.29502 0.65941 0.0
C1735 C 0.51628 0.29286 0.66903 0.0
C1736 C 0.47175 0.2894 0.67527 0.0
C1737 C 0.52075 0.28577 0.69493 0.0
C1738 C 0.50135 0.28064 0.71082 0.0
C1739 C 0.45694 0.27493 0.7163 0.0
C1740 C 0.43174 0.27404 0.70581 0.0
C1741 C 0.47678 0.28206 0.7011 0.0
C1742 C 0.42689 0.28237 0.68069 0.0
C1743 C 0.44676 0.29021 0.66564 0.0
H1744 H 0.99172 0.81507 0.63216 0.0
H1745 H 0.06201 0.82575 0.68683 0.0
H1746 H 0.08227 0.86221 0.66579 0.0
H1747 H 0.081 0.88958 0.63049 0.0
H1748 H 0.01154 0.8787 0.57468 0.0
H1749 H 0.98986 0.84448 0.59813 0.0
C1750 C 0.01144 0.82542 0.6396 0.0
C1751 C 0.02529 0.81734 0.66104 0.0
C1752 C 0.02314 0.84649 0.62729 0.0
C1753 C 0.0508 0.83129 0.67041 0.0
C1754 C 0.06246 0.85222 0.65836 0.0
C1755 C 0.0611 0.87973 0.62336 0.0
C1756 C 0.04809 0.8865 0.60049 0.0
C1757 C 0.04895 0.85973 0.63656 0.0
C1758 C 0.02209 0.874 0.59218 0.0
C1759 C 0.00974 0.85423 0.60546 0.0
H1760 H 0.45273 0.79326 0.84361 0.0
H1761 H 0.47301 0.83678 0.77958 0.0
H1762 H 0.42796 0.83491 0.76559 0.0
H1763 H 0.38173 0.81972 0.77073 0.0
H1764 H 0.36304 0.77786 0.83662 0.0
H1765 H 0.40772 0.78024 0.85013 0.0
C1766 C 0.4476 0.80274 0.8268 0.0
C1767 C 0.46705 0.8154 0.81301 0.0
C1768 C 0.42137 0.8017 0.81887 0.0
C1769 C 0.45907 0.82696 0.7909 0.0
C1770 C 0.43304 0.82583 0.78279 0.0
C1771 C 0.3873 0.81141 0.78829 0.0
C1772 C 0.3681 0.79873 0.80254 0.0
C1773 C 0.41381 0.81312 0.7965 0.0
C1774 C 0.37658 0.78781 0.82496 0.0
C1775 C 0.40248 0.78916 0.83286 0.0
H1776 H 0.54584 0.18458 0.16132 0.0
H1777 H 0.47388 0.1809 0.11312 0.0
H1778 H 0.47805 0.14301 0.08074 0.0
H1779 H 0.50092 0.10917 0.0663 0.0
H1780 H 0.57381 0.11335 0.1119 0.0
H1781 H 0.57022 0.1518 0.14498 0.0
C1782 C 0.53111 0.17559 0.1437 0.0
C1783 C 0.50941 0.18586 0.14019 0.0
C1784 C 0.53358 0.15338 0.12465 0.0
C1785 C 0.4907 0.17366 0.11692 0.0
C1786 C 0.49302 0.1518 0.09817 0.0
C1787 C 0.51614 0.1187 0.08331 0.0
C1788 C 0.53745 0.10813 0.08678 0.0
C1789 C 0.51419 0.14126 0.10189 0.0
C1790 C 0.55695 0.12069 0.10904 0.0
C1791 C 0.55497 0.14287 0.12788 0.0
H1792 H 0.12614 0.28956 0.28039 0.0
H1793 H 0.14423 0.33639 0.36268 0.0
H1794 H 0.18974 0.33904 0.36168 0.0
H1795 H 0.2254 0.32637 0.33744 0.0
H1796 H 0.20486 0.28214 0.25367 0.0
H1797 H 0.16055 0.28002 0.2557 0.0
C1798 C 0.13988 0.30062 0.29822 0.0
C1799 C 0.13096 0.31277 0.32164 0.0
C1800 C 0.16626 0.30227 0.29739 0.0
C1801 C 0.14983 0.32693 0.34419 0.0
C1802 C 0.17614 0.32831 0.34364 0.0
C1803 C 0.21133 0.31643 0.31952 0.0
C1804 C 0.21944 0.30381 0.29554 0.0
C1805 C 0.18481 0.31586 0.32037 0.0
C1806 C 0.20014 0.29147 0.27276 0.0
C1807 C 0.17433 0.29036 0.27376 0.0
H1808 H 0.01587 0.01883 0.19721 0.0
H1809 H 0.9409 0.0305 0.17815 0.0
H1810 H 0.94858 0.03508 0.13117 0.0
H1811 H 0.97789 0.03794 0.09603 0.0
H1812 H 0.05172 0.02306 0.11599 0.0
H1813 H 0.04321 0.01793 0.16176 0.0
C1814 C 1.0011 0.02217 0.18273 0.0
C1815 C 0.97793 0.02442 0.19125 0.0
C1816 C 1.00554 0.02451 0.1558 0.0
C1817 C 0.95891 0.02853 0.1721 0.0
C1818 C 0.96336 0.03132 0.14526 0.0
C1819 C 0.99199 0.03333 0.11029 0.0
C1820 C 0.01555 0.03125 0.10228 0.0
C1821 C 0.98679 0.02967 0.13692 0.0
C1822 C 0.03349 0.02514 0.12127 0.0
C1823 C 0.02868 0.02209 0.14766 0.0
H1824 H 0.30985 0.69642 0.49911 0.0
H1825 H 0.23408 0.65797 0.51045 0.0
H1826 H 0.21593 0.68133 0.47809 0.0
H1827 H 0.22148 0.71245 0.44633 0.0
H1828 H 0.29685 0.74996 0.43333 0.0
H1829 H 0.31536 0.72716 0.46651 0.0
C1830 C 0.2894 0.69336 0.49463 0.0
C1831 C 0.27333 0.6756 0.5072 0.0
C1832 C 0.27905 0.70664 0.4757 0.0
C1833 C 0.24684 0.67149 0.50094 0.0
C1834 C 0.23643 0.68486 0.48249 0.0
C1835 C 0.24196 0.71579 0.45105 0.0
C1836 C 0.25786 0.73299 0.43787 0.0
C1837 C 0.25234 0.70246 0.46976 0.0
C1838 C 0.28433 0.73678 0.44345 0.0
C1839 C 0.29488 0.72382 0.46239 0.0
H1840 H 0.66069 0.02443 0.61956 0.0
H1841 H 0.63586 0.04127 0.69831 0.0
H1842 H 0.59942 0.05444 0.6761 0.0
H1843 H 0.57227 0.05614 0.63243 0.0
H1844 H 0.59453 0.02783 0.55573 0.0
H1845 H 0.63462 0.02491 0.57821 0.0
C1846 C 0.64747 0.0311 0.63208 0.0
C1847 C 0.65054 0.03127 0.66037 0.0
C1848 C 0.62623 0.03702 0.61915 0.0
C1849 C 0.63355 0.0406 0.67632 0.0
C1850 C 0.61272 0.048 0.6636 0.0
C1851 C 0.58616 0.04964 0.62087 0.0
C1852 C 0.58155 0.0442 0.59182 0.0
C1853 C 0.60838 0.0454 0.63475 0.0
C1854 C 0.59897 0.03467 0.57732 0.0
C1855 C 0.62159 0.03225 0.59049 0.0
H1856 H 0.29203 0.3622 0.95711 0.0
H1857 H 0.33496 0.30635 0.97586 0.0
H1858 H 0.33038 0.28756 0.92675 0.0
H1859 H 0.3157 0.28799 0.87798 0.0
H1860 H 0.27436 0.34528 0.85931 0.0
H1861 H 0.27669 0.36208 0.90835 0.0
C1862 C 0.29995 0.34557 0.95053 0.0
C1863 C 0.31365 0.33564 0.97044 0.0
C1864 C 0.29779 0.33517 0.92199 0.0
C1865 C 0.32421 0.3144 0.9612 0.0
C1866 C 0.3217 0.30367 0.93301 0.0
C1867 C 0.3073 0.30423 0.88455 0.0
C1868 C 0.29512 0.31539 0.86456 0.0
C1869 C 0.30887 0.31413 0.91311 0.0
C1870 C 0.28406 0.33624 0.87388 0.0
C1871 C 0.28531 0.34592 0.90211 0.0
H1872 H 0.95706 0.04047 0.36945 0.0
H1873 H 0.01337 1.00469 0.33607 0.0
H1874 H 0.03092 1.00156 0.38281 0.0
H1875 H 0.0305 0.01012 0.43355 0.0
H1876 H 0.97214 0.04444 0.46477 0.0
H1877 H 0.95486 0.04639 0.41829 0.0
C1878 C 0.97281 0.03148 0.37204 0.0
C1879 C 0.98359 0.02258 0.34903 0.0
C1880 C 0.98249 0.02947 0.39873 0.0
C1881 C 1.00453 0.01159 0.35332 0.0
C1882 C 0.01459 0.00983 0.38007 0.0
C1883 C 0.01388 0.0178 0.43015 0.0
C1884 C 1.00277 0.02719 0.45284 0.0
C1885 C 1.00376 0.01883 0.40302 0.0
C1886 C 0.98128 0.03719 0.44792 0.0
C1887 C 0.9713 0.03834 0.42125 0.0
H1888 H 0.26074 0.69523 0.61077 0.0
H1889 H 0.28309 0.63783 0.65437 0.0
H1890 H 0.28606 0.66747 0.69857 0.0
H1891 H 0.28768 0.71179 0.72397 0.0
H1892 H 0.2622 0.76828 0.6809 0.0
H1893 H 0.25548 0.7371 0.63718 0.0
C1894 C 0.26514 0.68884 0.63006 0.0
C1895 C 0.27122 0.66429 0.62954 0.0
C1896 C 0.26717 0.70618 0.6553 0.0
C1897 C 0.27765 0.65636 0.65446 0.0
C1898 C 0.27981 0.67351 0.67965 0.0
C1899 C 0.28053 0.71733 0.70509 0.0
C1900 C 0.27633 0.74279 0.70571 0.0
C1901 C 0.27558 0.69886 0.6802 0.0
C1902 C 0.26644 0.74922 0.68103 0.0
C1903 C 0.26228 0.73125 0.65601 0.0
H1904 H 0.64079 0.02829 0.82271 0.0
H1905 H 0.61372 0.08124 0.776 0.0
H1906 H 0.60248 0.10461 0.81806 0.0
H1907 H 0.60315 0.11129 0.86895 0.0
H1908 H 0.6304 0.0575 0.91439 0.0
H1909 H 0.63939 0.03319 0.87193 0.0
C1910 C 0.63195 0.04465 0.82167 0.0
C1911 C 0.62782 0.05303 0.79652 0.0
C1912 C 0.62623 0.05809 0.84575 0.0
C1913 C 0.61653 0.07423 0.79518 0.0
C1914 C 0.61052 0.08777 0.81925 0.0
C1915 C 0.61123 0.09436 0.86935 0.0
C1916 C 0.61664 0.08629 0.89451 0.0
C1917 C 0.61582 0.08019 0.84476 0.0
C1918 C 0.62653 0.06408 0.89512 0.0
C1919 C 0.63146 0.05015 0.87093 0.0
H1920 H 0.27557 0.33665 0.11665 0.0
H1921 H 0.35698 0.34647 0.12866 0.0
H1922 H 0.35555 0.33312 0.17282 0.0
H1923 H 0.33183 0.31722 0.20811 0.0
H1924 H 0.25125 0.30964 0.19993 0.0
H1925 H 0.25145 0.32177 0.15402 0.0
C1926 C 0.29291 0.33558 0.1288 0.0
C1927 C 0.31626 0.34208 0.11857 0.0
C1928 C 0.29214 0.32788 0.15495 0.0
C1929 C 0.33855 0.34093 0.13514 0.0
C1930 C 0.33787 0.33341 0.16074 0.0
C1931 C 0.31442 0.31898 0.19666 0.0
C1932 C 0.29175 0.3136 0.20785 0.0
C1933 C 0.31487 0.32672 0.17083 0.0
C1934 C 0.26911 0.31459 0.19209 0.0
C1935 C 0.26924 0.32143 0.16579 0.0
H1936 H 0.22083 0.94376 0.98923 0.0
H1937 H 0.24794 0.02379 0.97593 0.0
H1938 H 0.21414 0.03714 0.99807 0.0
H1939 H 0.18337 0.02823 0.02928 0.0
H1940 H 0.15687 0.94882 0.04447 0.0
H1941 H 0.18483 0.93314 0.01405 0.0
C1942 C 0.21885 0.96392 0.99045 0.0
C1943 C 0.23717 0.98292 0.98174 0.0
C1944 C 0.20017 0.97175 0.00433 0.0
C1945 C 0.23419 0.00884 0.9828 0.0
C1946 C 0.21508 0.01659 0.99578 0.0
C1947 C 0.18307 0.0073 0.02534 0.0
C1948 C 0.16834 0.98969 0.0393 0.0
C1949 C 0.19899 0.99855 0.00796 0.0
C1950 C 0.16853 0.96278 0.03438 0.0
C1951 C 0.18427 0.95381 0.01684 0.0
H1952 H 0.666 0.64234 0.98958 0.0
H1953 H 0.7103 0.59986 0.03377 0.0
H1954 H 0.67178 0.57283 0.04541 0.0
H1955 H 0.62531 0.56034 0.04203 0.0
H1956 H 0.58069 0.59969 0.99361 0.0
H1957 H 0.61919 0.62884 0.98507 0.0
C1958 C 0.66711 0.6273 0.00192 0.0
C1959 C 0.69083 0.6231 0.01086 0.0
C1960 C 0.64476 0.61112 0.00775 0.0
C1961 C 0.69213 0.60334 0.02657 0.0
C1962 C 0.67014 0.58787 0.03325 0.0
C1963 C 0.62397 0.57504 0.02933 0.0
C1964 C 0.60001 0.57748 0.01834 0.0
C1965 C 0.64629 0.59134 0.02368 0.0
C1966 C 0.59879 0.59714 0.00237 0.0
C1967 C 0.62087 0.61393 0.9974 0.0
H1968 H 0.67866 0.48353 0.31924 0.0
H1969 H 0.71012 0.53459 0.26538 0.0
H1970 H 0.73118 0.50114 0.24552 0.0
H1971 H 0.73722 0.45569 0.24059 0.0
H1972 H 0.704 0.4038 0.29282 0.0
H1973 H 0.68675 0.43898 0.31614 0.0
C1974 C 0.69031 0.4873 0.30328 0.0
C1975 C 0.69281 0.51126 0.29353 0.0
C1976 C 0.70175 0.46773 0.29157 0.0
C1977 C 0.70776 0.51607 0.27283 0.0
C1978 C 0.71979 0.49701 0.26158 0.0
C1979 C 0.72659 0.45239 0.25745 0.0
C1980 C 0.72194 0.4274 0.26521 0.0
C1981 C 0.71645 0.47254 0.27035 0.0
C1982 C 0.70806 0.42307 0.28689 0.0
C1983 C 0.69806 0.44309 0.30002 0.0
H1984 H 0.88899 0.50744 0.55219 0.0
H1985 H 0.87123 0.50224 0.46438 0.0
H1986 H 0.91678 0.51358 0.46093 0.0
H1987 H 0.96135 0.52269 0.48315 0.0
H1988 H 0.97818 0.52907 0.57104 0.0
H1989 H 0.93298 0.51859 0.57442 0.0
C1990 C 0.89516 0.50919 0.53237 0.0
C1991 C 0.87716 0.50432 0.50861 0.0
C1992 C 0.92098 0.51519 0.53061 0.0
C1993 C 0.88503 0.50649 0.48297 0.0
C1994 C 0.91093 0.51259 0.48098 0.0
C1995 C 0.95494 0.52181 0.50292 0.0
C1996 C 0.97266 0.52577 0.52676 0.0
C1997 C 0.92901 0.5166 0.50465 0.0
C1998 C 0.96462 0.52483 0.55242 0.0
C1999 C 0.93887 0.51935 0.55436 0.0
H2000 H 0.32146 0.04989 0.29023 0.0
H2001 H 0.34496 0.10538 0.36757 0.0
H2002 H 0.33213 0.13991 0.34604 0.0
H2003 H 0.32334 0.15602 0.30333 0.0
H2004 H 0.30356 0.10134 0.22513 0.0
H2005 H 0.30651 0.06446 0.24868 0.0
C2006 C 0.32256 0.06924 0.3025 0.0
C2007 C 0.33413 0.0755 0.33009 0.0
C2008 C 0.31697 0.08921 0.28956 0.0
C2009 C 0.33576 0.10035 0.34625 0.0
C2010 C 0.32902 0.12016 0.3338 0.0
C2011 C 0.31935 0.13593 0.29156 0.0
C2012 C 0.31378 0.13116 0.26264 0.0
C2013 C 0.32117 0.11515 0.30516 0.0
C2014 C 0.30859 0.10528 0.24739 0.0
C2015 C 0.30992 0.08429 0.26083 0.0
H2016 H 0.3298 0.13402 0.50142 0.0
H2017 H 0.32726 0.17174 0.58428 0.0
H2018 H 0.36135 0.1528 0.60222 0.0
H2019 H 0.38879 0.12216 0.59444 0.0
H2020 H 0.38909 0.08209 0.51164 0.0
H2021 H 0.35904 0.10533 0.49336 0.0
C2022 C 0.33711 0.13834 0.52333 0.0
C2023 C 0.3264 0.15412 0.54167 0.0
C2024 C 0.35597 0.1267 0.53341 0.0
C2025 C 0.33548 0.15955 0.57001 0.0
C2026 C 0.3548 0.14867 0.58018 0.0
C2027 C 0.38225 0.11856 0.57241 0.0
C2028 C 0.39085 0.10024 0.55444 0.0
C2029 C 0.36467 0.13163 0.56213 0.0
C2030 C 0.38274 0.09616 0.52586 0.0
C2031 C 0.36549 0.10934 0.51542 0.0
H2032 H 0.70814 0.62187 0.28228 0.0
H2033 H 0.68318 0.66023 0.35366 0.0
H2034 H 0.70785 0.70359 0.34791 0.0
H2035 H 0.73704 0.73052 0.32318 0.0
H2036 H 0.76446 0.69243 0.25338 0.0
H2037 H 0.73877 0.64911 0.25809 0.0
C2038 C 0.70812 0.6398 0.29646 0.0
C2039 C 0.69376 0.63798 0.31829 0.0
C2040 C 0.723 0.66465 0.29346 0.0
C2041 C 0.69408 0.66122 0.33675 0.0
C2042 C 0.7082 0.68598 0.33346 0.0
C2043 C 0.73742 0.71277 0.30894 0.0
C2044 C 0.75272 0.71481 0.28792 0.0
C2045 C 0.72283 0.68793 0.312 0.0
C2046 C 0.75302 0.69148 0.26983 0.0
C2047 C 0.73823 0.66669 0.27247 0.0
H2048 H 0.86435 0.44987 0.79628 0.0
H2049 H 0.80242 0.4628 0.83907 0.0
H2050 H 0.78088 0.41547 0.82535 0.0
H2051 H 0.78282 0.37034 0.80664 0.0
H2052 H 0.84742 0.35748 0.76861 0.0
H2053 H 0.86475 0.40529 0.7747 0.0
C2054 C 0.84589 0.44245 0.80216 0.0
C2055 C 0.83502 0.45952 0.81889 0.0
C2056 C 0.83436 0.41534 0.79534 0.0
C2057 C 0.8112 0.44976 0.82648 0.0
C2058 C 0.79896 0.42282 0.81868 0.0
C2059 C 0.80061 0.37798 0.79957 0.0
C2060 C 0.8142 0.36056 0.78791 0.0
C2061 C 0.81089 0.40536 0.80405 0.0
C2062 C 0.8369 0.37063 0.77817 0.0
C2063 C 0.8468 0.3979 0.78159 0.0
H2064 H 0.02489 0.87099 0.06041 0.0
H2065 H 0.10641 0.89099 0.08194 0.0
H2066 H 0.10885 0.9348 0.06931 0.0
H2067 H 0.08715 0.9689 0.0531 0.0
H2068 H 1.0054 0.94736 0.0361 0.0
H2069 H 1.00396 0.90376 0.04553 0.0
C2070 C 0.04341 0.8846 0.06213 0.0
C2071 C 0.06546 0.87681 0.07198 0.0
C2072 C 0.04464 0.91013 0.05544 0.0
C2073 C 0.08898 0.89568 0.07427 0.0
C2074 C 0.09036 0.92104 0.06711 0.0
C2075 C 0.06898 0.95466 0.05122 0.0
C2076 C 0.04617 0.96206 0.04249 0.0
C2077 C 0.06824 0.92878 0.05781 0.0
C2078 C 0.02322 0.9428 0.04114 0.0
C2079 C 0.02237 0.9175 0.04707 0.0
H2080 H 0.94753 0.29946 0.87522 0.0
H2081 H 0.90697 0.24884 0.92442 0.0
H2082 H 0.86677 0.24579 0.89545 0.0
H2083 H 0.84261 0.25715 0.85528 0.0
H2084 H 0.88391 0.3099 0.80824 0.0
H2085 H 0.9236 0.31188 0.83657 0.0
C2086 C 0.92993 0.28776 0.87971 0.0
C2087 C 0.93062 0.27437 0.90216 0.0
C2088 C 0.90665 0.28621 0.86299 0.0
C2089 C 0.90734 0.25944 0.90744 0.0
C2090 C 0.88419 0.25761 0.89075 0.0
C2091 C 0.86024 0.26915 0.85123 0.0
C2092 C 0.85975 0.28316 0.82914 0.0
C2093 C 0.88351 0.27086 0.86832 0.0
C2094 C 0.88317 0.29854 0.82459 0.0
C2095 C 0.90614 0.29988 0.84101 0.0
H2096 H 0.58117 0.22658 0.55914 0.0
H2097 H 0.51622 0.218 0.6019 0.0
H2098 H 0.51083 0.17002 0.59464 0.0
H2099 H 0.52367 0.12957 0.57562 0.0
H2100 H 0.58631 0.13692 0.52957 0.0
H2101 H 0.59322 0.18511 0.53838 0.0
C2102 C 0.56587 0.21424 0.56689 0.0
C2103 C 0.54911 0.22642 0.58116 0.0
C2104 C 0.56236 0.18595 0.56201 0.0
C2105 C 0.52933 0.20959 0.59071 0.0
C2106 C 0.52623 0.18193 0.58661 0.0
C2107 C 0.539 0.14156 0.56757 0.0
C2108 C 0.55486 0.12885 0.55238 0.0
C2109 C 0.5425 0.16971 0.57219 0.0
C2110 C 0.57421 0.14547 0.54198 0.0
C2111 C 0.57805 0.17338 0.54686 0.0
H2112 H 0.56028 0.75335 0.3617 0.0
H2113 H 0.5857 0.80344 0.44242 0.0
H2114 H 0.62754 0.81933 0.42997 0.0
H2115 H 0.65572 0.82226 0.39523 0.0
H2116 H 0.63069 0.77429 0.31369 0.0
H2117 H 0.59021 0.75375 0.32758 0.0
C2118 C 0.57504 0.76758 0.37663 0.0
C2119 C 0.56966 0.77746 0.40287 0.0
C2120 C 0.59915 0.77699 0.36921 0.0
C2121 C 0.58911 0.79574 0.422 0.0
C2122 C 0.61311 0.80483 0.41493 0.0
C2123 C 0.64146 0.80715 0.38055 0.0
C2124 C 0.646 0.80011 0.3534 0.0
C2125 C 0.61814 0.79608 0.38844 0.0
C2126 C 0.62764 0.78007 0.33474 0.0
C2127 C 0.60441 0.76851 0.34262 0.0
H2128 H 0.0633 0.23853 0.39398 0.0
H2129 H 0.03455 0.29215 0.44971 0.0
H2130 H 0.02351 0.25868 0.47767 0.0
H2131 H 0.01557 0.21206 0.48213 0.0
H2132 H 0.04409 0.15755 0.42764 0.0
H2133 H 0.06229 0.19334 0.40395 0.0
C2134 C 0.05578 0.24321 0.41296 0.0
C2135 C 0.04993 0.26788 0.41982 0.0
C2136 C 0.04898 0.22348 0.42897 0.0
C2137 C 0.0395 0.27341 0.44413 0.0
C2138 C 0.03288 0.25416 0.46002 0.0
C2139 C 0.02634 0.20825 0.4655 0.0
C2140 C 0.02827 0.18228 0.45633 0.0
C2141 C 0.03654 0.22881 0.452 0.0
C2142 C 0.04235 0.17747 0.43492 0.0
C2143 C 0.0526 0.19789 0.4213 0.0
H2144 H 0.6197 0.25299 0.28345 0.0
H2145 H 0.6139 0.28397 0.20841 0.0
H2146 H 0.66028 0.29272 0.2103 0.0
H2147 H 0.70335 0.29133 0.23339 0.0
H2148 H 0.70758 0.2612 0.30917 0.0
H2149 H 0.66177 0.25231 0.30653 0.0
C2150 C 0.62838 0.26172 0.26739 0.0
C2151 C 0.61266 0.26773 0.24575 0.0
C2152 C 0.65527 0.26675 0.26862 0.0
C2153 C 0.62498 0.27911 0.22541 0.0
C2154 C 0.65173 0.28408 0.22648 0.0
C2155 C 0.69432 0.28277 0.24935 0.0
C2156 C 0.70968 0.27652 0.27127 0.0
C2157 C 0.66724 0.27796 0.24799 0.0
C2158 C 0.69697 0.26567 0.29164 0.0
C2159 C 0.67044 0.26075 0.2903 0.0
H2160 H 0.50752 0.88256 0.92511 0.0
H2161 H 0.58115 0.90413 0.89964 0.0
H2162 H 0.5896 0.94824 0.92987 0.0
H2163 H 0.57537 0.98094 0.96457 0.0
H2164 H 0.50142 0.95516 0.98849 0.0
H2165 H 0.49396 0.91296 0.95776 0.0
C2166 C 0.52561 0.89664 0.92593 0.0
C2167 C 0.54364 0.88956 0.90986 0.0
C2168 C 0.53026 0.92164 0.94324 0.0
C2169 C 0.56676 0.90872 0.91157 0.0
C2170 C 0.57159 0.93404 0.92894 0.0
C2171 C 0.55764 0.96607 0.96291 0.0
C2172 C 0.539 0.9716 0.97919 0.0
C2173 C 0.5534 0.94084 0.94501 0.0
C2174 C 0.51625 0.95182 0.97669 0.0
C2175 C 0.51187 0.92745 0.95896 0.0
H2176 H 0.95881 0.79221 0.77868 0.0
H2177 H 0.93063 0.74309 0.69814 0.0
H2178 H 0.88743 0.74555 0.70346 0.0
H2179 H 0.85617 0.76134 0.73107 0.0
H2180 H 0.88393 0.80635 0.8135 0.0
H2181 H 0.92734 0.80621 0.80711 0.0
C2182 C 0.94334 0.78217 0.76211 0.0
C2183 C 0.94889 0.76784 0.73765 0.0
C2184 C 0.91774 0.78307 0.76559 0.0
C2185 C 0.92784 0.75474 0.71699 0.0
C2186 C 0.90271 0.756 0.7201 0.0
C2187 C 0.87162 0.77115 0.74774 0.0
C2188 C 0.86599 0.78476 0.7726 0.0
C2189 C 0.8972 0.77006 0.74432 0.0
C2190 C 0.88693 0.7967 0.79373 0.0
C2191 C 0.91215 0.79632 0.7902 0.0
H2192 H 0.09039 0.09114 0.88026 0.0
H2193 H 0.11486 0.0185 0.86655 0.0
H2194 H 0.09728 0.00538 0.90647 0.0
H2195 H 0.07623 0.01473 0.9466 0.0
H2196 H 0.05046 0.08629 0.96096 0.0
H2197 H 0.06776 0.09999 0.9205 0.0
C2198 C 0.09184 0.07253 0.88613 0.0
C2199 C 0.10433 0.05608 0.87068 0.0
C2200 C 0.0818 0.06504 0.90963 0.0
C2201 C 0.10589 0.03187 0.87843 0.0
C2202 C 0.09576 0.02423 0.90126 0.0
C2203 C 0.07452 0.03333 0.94083 0.0
C2204 C 0.06233 0.04957 0.9567 0.0
C2205 C 0.08401 0.04076 0.91727 0.0
C2206 C 0.05975 0.07344 0.94886 0.0
C2207 C 0.06965 0.08127 0.92575 0.0
H2208 H 0.7946 0.42266 0.5935 0.0
H2209 H 0.80129 0.36394 0.52568 0.0
H2210 H 0.80898 0.33459 0.55728 0.0
H2211 H 0.82611 0.33231 0.60446 0.0
H2212 H 0.82325 0.39293 0.67248 0.0
H2213 H 0.8019 0.4152 0.64088 0.0
C2214 C 0.79619 0.40275 0.58565 0.0
C2215 C 0.79768 0.39534 0.55766 0.0
C2216 C 0.80255 0.38704 0.60416 0.0
C2217 C 0.8 0.36977 0.54732 0.0
C2218 C 0.80498 0.3533 0.56544 0.0
C2219 C 0.82026 0.35009 0.61221 0.0
C2220 C 0.82677 0.36173 0.64021 0.0
C2221 C 0.80838 0.36278 0.59395 0.0
C2222 C 0.81877 0.38427 0.65066 0.0
C2223 C 0.80653 0.39684 0.63268 0.0
H2224 H 0.42611 0.04674 0.41343 0.0
H2225 H 0.45342 0.99197 0.35749 0.0
H2226 H 0.48192 0.98538 0.39597 0.0
H2227 H 0.50486 1.00271 0.44309 0.0
H2228 H 0.48407 0.06634 0.49401 0.0
H2229 H 0.44668 0.06159 0.46052 0.0
C2230 C 0.4378 0.0328 0.40981 0.0
C2231 C 0.4383 0.02027 0.38297 0.0
C2232 C 0.45535 0.0309 0.43132 0.0
C2233 C 0.4533 1.00217 0.37822 0.0
C2234 C 0.46958 0.99851 0.40009 0.0
C2235 C 0.49175 0.01507 0.4469 0.0
C2236 C 0.49635 0.03407 0.47124 0.0
C2237 C 0.47179 0.01402 0.42637 0.0
C2238 C 0.47987 0.05054 0.47606 0.0
C2239 C 0.45883 0.04819 0.45668 0.0
H2240 H 0.82037 0.74552 0.11222 0.0
H2241 H 0.73915 0.72063 0.08689 0.0
H2242 H 0.73269 0.73402 0.13469 0.0
H2243 H 0.75037 0.75219 0.18442 0.0
H2244 H 0.83189 0.77558 0.20852 0.0
H2245 H 0.83774 0.76302 0.16092 0.0
C2246 C 0.80118 0.74327 0.11695 0.0
C2247 C 0.78031 0.73231 0.09562 0.0
C2248 C 0.7976 0.7505 0.14459 0.0
C2249 C 0.75565 0.72916 0.10263 0.0
C2250 C 0.75193 0.73672 0.13009 0.0
C2251 C 0.76939 0.7546 0.17926 0.0
C2252 C 0.79062 0.76516 0.20038 0.0
C2253 C 0.77278 0.74729 0.15138 0.0
C2254 C 0.8151 0.7678 0.19302 0.0
C2255 C 0.81855 0.76061 0.16563 0.0
H2256 H 0.08186 0.00853 0.69309 0.0
H2257 H 0.10995 0.09333 0.71916 0.0
H2258 H 0.09505 0.09957 0.67271 0.0
H2259 H 0.07335 0.08046 0.62431 0.0
H2260 H 0.04684 0.99514 0.59956 0.0
H2261 H 0.06206 0.98972 0.64549 0.0
C2262 C 0.08481 0.02841 0.68866 0.0
C2263 C 0.097 0.05039 0.70964 0.0
C2264 C 0.07652 0.03179 0.66194 0.0
C2265 C 0.10078 0.07601 0.70337 0.0
C2266 C 0.09219 0.07958 0.6768 0.0
C2267 C 0.071 0.06071 0.62898 0.0
C2268 C 0.05871 0.03827 0.60833 0.0
C2269 C 0.07996 0.05757 0.65583 0.0
C2270 C 0.05598 0.01284 0.61487 0.0
C2271 C 0.0647 0.00964 0.64125 0.0
H2272 H 0.79322 0.40661 0.43317 0.0
H2273 H 0.86809 0.39454 0.45398 0.0
H2274 H 0.86091 0.36099 0.412 0.0
H2275 H 0.83352 0.33527 0.36974 0.0
H2276 H 0.75943 0.34832 0.3478 0.0
H2277 H 0.76604 0.38132 0.39048 0.0
C2278 C 0.80806 0.39677 0.42853 0.0
C2279 C 0.83116 0.40307 0.4467 0.0
C2280 C 0.80384 0.37758 0.40445 0.0
C2281 C 0.85013 0.39006 0.44036 0.0
C2282 C 0.84603 0.37083 0.41643 0.0
C2283 C 0.81873 0.34518 0.37449 0.0
C2284 C 0.79598 0.33946 0.35604 0.0
C2285 C 0.82294 0.3644 0.39848 0.0
C2286 C 0.7771 0.35263 0.36191 0.0
C2287 C 0.7809 0.37142 0.38618 0.0
H2288 H 0.41245 0.04313 0.22305 0.0
H2289 H 0.47177 0.03388 0.2828 0.0
H2290 H 0.4872 0.00748 0.24676 0.0
H2291 H 0.48342 0.98628 0.19854 0.0
H2292 H 0.42694 0.99807 0.13749 0.0
H2293 H 0.41067 0.02437 0.17359 0.0
C2294 C 0.42897 0.03563 0.22791 0.0
C2295 C 0.44117 0.04056 0.25528 0.0
C2296 C 0.438 0.02076 0.20699 0.0
C2297 C 0.46246 0.03073 0.26167 0.0
C2298 C 0.47112 0.01542 0.24118 0.0
C2299 C 0.46738 0.99445 0.19335 0.0
C2300 C 0.4558 0.9899 0.16591 0.0
C2301 C 0.45891 0.01013 0.21388 0.0
C2302 C 0.4356 1.00105 0.15884 0.0
C2303 C 0.42648 0.01614 0.17935 0.0
H2304 H 0.76767 0.76432 0.95402 0.0
H2305 H 0.80153 0.69922 0.93196 0.0
H2306 H 0.80582 0.71061 0.88663 0.0
H2307 H 0.80143 0.74004 0.85339 0.0
H2308 H 0.76831 0.80582 0.87548 0.0
H2309 H 0.7624 0.7934 0.92001 0.0
C2310 C 0.77567 0.75252 0.93911 0.0
C2311 C 0.78409 0.73081 0.94629 0.0
C2312 C 0.77847 0.75946 0.91295 0.0
C2313 C 0.79477 0.71593 0.92686 0.0
C2314 C 0.79732 0.72248 0.90092 0.0
C2315 C 0.79283 0.75159 0.86788 0.0
C2316 C 0.78547 0.77392 0.86088 0.0
C2317 C 0.78949 0.74436 0.89374 0.0
C2318 C 0.77438 0.78863 0.88017 0.0
C2319 C 0.7709 0.7815 0.90576 0.0
H2320 H 0.85914 0.11747 0.09018 0.0
H2321 H 0.79942 0.04682 0.05672 0.0
H2322 H 0.82821 0.02776 0.03067 0.0
H2323 H 0.86657 0.03686 0.00836 0.0
H2324 H 0.92478 0.10942 0.03875 0.0
H2325 H 0.90051 0.12249 0.07491 0.0
C2326 C 0.853 0.09728 0.07844 0.0
C2327 C 0.82727 0.08399 0.07433 0.0
C2328 C 0.86904 0.08752 0.06184 0.0
C2329 C 0.81926 0.05759 0.0598 0.0
C2330 C 0.83551 0.04697 0.04425 0.0
C2331 C 0.87379 0.05543 0.02308 0.0
C2332 C 0.89655 0.07291 0.02061 0.0
C2333 C 0.85971 0.06276 0.04345 0.0
C2334 C 0.9066 0.09646 0.03998 0.0
C2335 C 0.89298 0.10366 0.06074 0.0
H2336 H 0.38208 0.46528 0.0727 0.0
H2337 H 0.3766 0.40736 0.99908 0.0
H2338 H 0.41915 0.43039 0.99193 0.0
H2339 H 0.45727 0.46759 0.0065 0.0
H2340 H 0.464 0.52379 0.08175 0.0
H2341 H 0.421 0.50169 0.08801 0.0
C2342 C 0.39028 0.45793 0.05504 0.0
C2343 C 0.37647 0.43504 0.03619 0.0
C2344 C 0.41475 0.47101 0.05143 0.0
C2345 C 0.38704 0.42523 0.01354 0.0
C2346 C 0.41128 0.43831 0.00956 0.0
C2347 C 0.4498 0.47423 0.02485 0.0
C2348 C 0.46411 0.49652 0.04426 0.0
C2349 C 0.42534 0.46113 0.02847 0.0
C2350 C 0.45336 0.50637 0.0668 0.0
C2351 C 0.42886 0.49374 0.07038 0.0
H2352 H 0.35616 0.55468 0.77775 0.0
H2353 H 0.42707 0.60207 0.76321 0.0
H2354 H 0.40965 0.64102 0.76611 0.0
H2355 H 0.37754 0.66302 0.78283 0.0
H2356 H 0.30674 0.61585 0.79768 0.0
H2357 H 0.32025 0.57509 0.78359 0.0
C2358 C 0.36732 0.57329 0.77404 0.0
C2359 C 0.39278 0.57572 0.77041 0.0
C2360 C 0.35724 0.59563 0.77605 0.0
C2361 C 0.40729 0.59981 0.76573 0.0
C2362 C 0.39745 0.62214 0.76773 0.0
C2363 C 0.36478 0.6437 0.78187 0.0
C2364 C 0.34139 0.64214 0.79137 0.0
C2365 C 0.37293 0.62055 0.77432 0.0
C2366 C 0.32486 0.61725 0.79037 0.0
C2367 C 0.33268 0.59405 0.78257 0.0
H2368 H 0.20523 0.57153 0.57131 0.0
H2369 H 0.19759 0.62787 0.51936 0.0
H2370 H 0.15555 0.62806 0.53116 0.0
H2371 H 0.11676 0.59946 0.5409 0.0
H2372 H 0.12247 0.53338 0.5805 0.0
H2373 H 0.16837 0.54872 0.58865 0.0
C2374 C 0.19483 0.58499 0.564 0.0
C2375 C 0.20373 0.59881 0.5438 0.0
C2376 C 0.16933 0.58164 0.56734 0.0
C2377 C 0.19079 0.61675 0.53475 0.0
C2378 C 0.16637 0.61615 0.54078 0.0
C2379 C 0.12809 0.58882 0.55189 0.0
C2380 C 0.11625 0.56516 0.55977 0.0
C2381 C 0.15461 0.59654 0.55451 0.0
C2382 C 0.13105 0.55159 0.57411 0.0
C2383 C 0.15741 0.56036 0.57879 0.0
H2384 H 0.72972 0.9911 0.73853 0.0
H2385 H 0.77302 0.05575 0.80302 0.0
H2386 H 0.79641 0.02625 0.82103 0.0
H2387 H 0.79304 0.98046 0.82756 0.0
H2388 H 0.74438 0.91528 0.76757 0.0
H2389 H 0.73362 0.94622 0.739 0.0
C2390 C 0.74502 0.999 0.75583 0.0
C2391 C 0.74874 0.02495 0.77061 0.0
C2392 C 0.75624 0.9814 0.7677 0.0
C2393 C 0.76929 0.0354 0.7921 0.0
C2394 C 0.7823 0.01846 0.80266 0.0
C2395 C 0.78044 0.97327 0.80797 0.0
C2396 C 0.76852 0.94626 0.79983 0.0
C2397 C 0.77398 0.9911 0.7923 0.0
C2398 C 0.75291 0.93639 0.77424 0.0
C2399 C 0.74702 0.95397 0.75794 0.0
H2400 H 0.75733 0.96756 0.56091 0.0
H2401 H 0.72133 0.88668 0.52019 0.0
H2402 H 0.68472 0.90073 0.50071 0.0
H2403 H 0.66497 0.93671 0.49148 0.0
H2404 H 0.70095 0.01739 0.53216 0.0
H2405 H 0.73565 1.00275 0.55546 0.0
C2406 C 0.74138 0.95291 0.54802 0.0
C2407 C 0.74227 0.92615 0.54164 0.0
C2408 C 0.72058 0.96118 0.5366 0.0
C2409 C 0.72128 0.90744 0.52514 0.0
C2410 C 0.70037 0.91547 0.51393 0.0
C2411 C 0.68041 0.95097 0.50556 0.0
C2412 C 0.68083 0.97807 0.50981 0.0
C2413 C 0.70017 0.94238 0.51885 0.0
C2414 C 0.70048 0.99643 0.52853 0.0
C2415 C 0.72027 0.98808 0.54176 0.0
H2416 H 0.36197 0.45875 0.80058 0.0
H2417 H 0.41449 0.43409 0.74971 0.0
H2418 H 0.38927 0.38775 0.74225 0.0
H2419 H 0.35334 0.3539 0.75311 0.0
H2420 H 0.3033 0.38105 0.80639 0.0
H2421 H 0.32649 0.42651 0.8098 0.0
C2422 C 0.36795 0.44332 0.7877 0.0
C2423 C 0.39021 0.44987 0.77596 0.0
C2424 C 0.35376 0.417 0.78399 0.0
C2425 C 0.39737 0.42961 0.75897 0.0
C2426 C 0.38304 0.40309 0.75488 0.0
C2427 C 0.34747 0.36981 0.76529 0.0
C2428 C 0.32632 0.3638 0.77921 0.0
C2429 C 0.36138 0.39646 0.76774 0.0
C2430 C 0.31914 0.38477 0.79503 0.0
C2431 C 0.3325 0.41097 0.79719 0.0
H2432 H 0.24796 0.61151 0.24262 0.0
H2433 H 0.17267 0.6242 0.23523 0.0
H2434 H 0.1905 0.67169 0.23696 0.0
H2435 H 0.2277 0.7099 0.2494 0.0
H2436 H 0.3031 0.69712 0.26036 0.0
H2437 H 0.28513 0.64914 0.2481 0.0
C2438 C 0.23549 0.6246 0.24016 0.0
C2439 C 0.20916 0.6147 0.23864 0.0
C2440 C 0.24596 0.65181 0.24259 0.0
C2441 C 0.19297 0.63153 0.2359 0.0
C2442 C 0.20322 0.65867 0.23742 0.0
C2443 C 0.2402 0.69659 0.24887 0.0
C2444 C 0.26662 0.70686 0.25633 0.0
C2445 C 0.22971 0.66913 0.24226 0.0
C2446 C 0.28268 0.68956 0.25494 0.0
C2447 C 0.27242 0.66218 0.24794 0.0
H2448 H 0.47396 0.67866 0.49648 0.0
H2449 H 0.54976 0.71557 0.4843 0.0
H2450 H 0.56413 0.67691 0.49475 0.0
H2451 H 0.5553 0.6314 0.5067 0.0
H2452 H 0.47942 0.59517 0.51928 0.0
H2453 H 0.46535 0.63372 0.5089 0.0
C2454 C 0.49369 0.67845 0.49613 0.0
C2455 C 0.51057 0.70073 0.48947 0.0
C2456 C 0.50198 0.65572 0.50213 0.0
C2457 C 0.53604 0.69926 0.48921 0.0
C2458 C 0.54436 0.6769 0.49522 0.0
C2459 C 0.53574 0.63192 0.50754 0.0
C2460 C 0.5187 0.6097 0.51419 0.0
C2461 C 0.52756 0.65482 0.50168 0.0
C2462 C 0.4933 0.61138 0.51447 0.0
C2463 C 0.48512 0.63372 0.50851 0.0
H2464 H 0.67623 0.32543 0.66147 0.0
H2465 H 0.62408 0.2919 0.71317 0.0
H2466 H 0.65813 0.28023 0.74037 0.0
H2467 H 0.70281 0.27969 0.75045 0.0
H2468 H 0.75659 0.31617 0.70201 0.0
H2469 H 0.7222 0.32571 0.67266 0.0
C2470 C 0.67233 0.31536 0.67851 0.0
C2471 C 0.64737 0.30958 0.68505 0.0
C2472 C 0.69246 0.30914 0.6949 0.0
C2473 C 0.64295 0.29677 0.70754 0.0
C2474 C 0.66249 0.29001 0.72324 0.0
C2475 C 0.70726 0.29021 0.7339 0.0
C2476 C 0.73266 0.29755 0.72913 0.0
C2477 C 0.68739 0.2963 0.71737 0.0
C2478 C 0.73743 0.31032 0.70662 0.0
C2479 C 0.71766 0.31586 0.68968 0.0
H2480 H 0.97596 0.36643 0.99543 0.0
H2481 H 0.05039 0.36288 0.97703 0.0
H2482 H 0.06453 0.41164 0.9883 0.0
H2483 H 0.05575 0.45629 0.0039 0.0
H2484 H 0.98013 0.45783 0.01965 0.0
H2485 H 0.96693 0.4099 0.0092 0.0
C2486 C 0.99535 0.37616 0.99386 0.0
C2487 C 0.01197 0.3604 0.98539 0.0
C2488 C 1.00334 0.4044 1.00011 0.0
C2489 C 0.03696 0.374 0.98341 0.0
C2490 C 0.04512 0.40211 0.98993 0.0
C2491 C 0.03637 0.44623 0.00506 0.0
C2492 C 0.0192 0.4616 0.01337 0.0
C2493 C 0.0285 0.41773 0.99837 0.0
C2494 C 0.99416 0.44741 0.01425 0.0
C2495 C 0.98642 0.41957 0.00797 0.0
H2496 H 0.98895 0.79658 0.13938 0.0
H2497 H 0.04222 0.78174 0.20228 0.0
H2498 H 0.00871 0.77076 0.22982 0.0
H2499 H 0.9638 0.76175 0.23498 0.0
H2500 H 0.90919 0.77446 0.17256 0.0
H2501 H 0.94338 0.79015 0.14628 0.0
C2502 C 0.99316 0.79084 0.15906 0.0
C2503 C 0.01817 0.78954 0.16836 0.0
C2504 C 0.97349 0.78428 0.17506 0.0
C2505 C 0.02322 0.78242 0.19416 0.0
C2506 C 1.00403 0.77629 0.21014 0.0
C2507 C 0.9595 0.76858 0.21593 0.0
C2508 C 0.93408 0.76718 0.20586 0.0
C2509 C 0.97909 0.77674 0.20067 0.0
C2510 C 0.92868 0.7758 0.181 0.0
C2511 C 0.94822 0.78441 0.1658 0.0
H2512 H 0.50488 0.34218 0.16977 0.0
H2513 H 0.53326 0.28047 0.12563 0.0
H2514 H 0.5495 0.30965 0.09454 0.0
H2515 H 0.55699 0.35282 0.08081 0.0
H2516 H 0.53138 0.4163 0.1257 0.0
H2517 H 0.51213 0.38634 0.1551 0.0
C2518 C 0.51475 0.33533 0.15339 0.0
C2519 C 0.51822 0.30936 0.15009 0.0
C2520 C 0.52428 0.35244 0.13562 0.0
C2521 C 0.53074 0.30049 0.1287 0.0
C2522 C 0.53988 0.31711 0.11085 0.0
C2523 C 0.54714 0.36015 0.09699 0.0
C2524 C 0.54585 0.38687 0.10114 0.0
C2525 C 0.53693 0.34313 0.11423 0.0
C2526 C 0.53254 0.39582 0.12187 0.0
C2527 C 0.52177 0.37874 0.13889 0.0
H2528 H 0.9601 0.31079 0.28494 0.0
H2529 H 0.96466 0.322 0.37331 0.0
H2530 H 0.91941 0.31649 0.36962 0.0
H2531 H 0.87698 0.30833 0.34176 0.0
H2532 H 0.87163 0.30371 0.25387 0.0
H2533 H 0.91746 0.30763 0.25699 0.0
C2534 C 0.95134 0.31231 0.30346 0.0
C2535 C 0.96662 0.31525 0.32953 0.0
C2536 C 0.92446 0.31053 0.30128 0.0
C2537 C 0.95413 0.31761 0.35289 0.0
C2538 C 0.92781 0.31508 0.35083 0.0
C2539 C 0.88573 0.30815 0.3232 0.0
C2540 C 0.87023 0.30537 0.29753 0.0
C2541 C 0.91256 0.31115 0.32518 0.0
C2542 C 0.88258 0.30574 0.274 0.0
C2543 C 0.90905 0.30795 0.27576 0.0
H2544 H 0.02236 0.66541 0.67263 0.0
H2545 H 0.01448 0.71023 0.60825 0.0
H2546 H 0.0221 0.67474 0.57453 0.0
H2547 H 0.02986 0.6306 0.56311 0.0
H2548 H 0.03261 0.58304 0.62574 0.0
H2549 H 0.02827 0.61969 0.66022 0.0
C2550 C 0.0228 0.66753 0.65131 0.0
C2551 C 0.0185 0.69076 0.64309 0.0
C2552 C 0.02614 0.64642 0.63165 0.0
C2553 C 0.0182 0.69281 0.61519 0.0
C2554 C 0.02242 0.67244 0.59586 0.0
C2555 C 0.02968 0.62813 0.58415 0.0
C2556 C 0.03215 0.60398 0.59147 0.0
C2557 C 0.02624 0.64906 0.60378 0.0
C2558 C 0.03111 0.60133 0.61918 0.0
C2559 C 0.0286 0.62238 0.63907 0.0
H2560 H 0.6469 0.83686 0.83955 0.0
H2561 H 0.6096 0.76756 0.77714 0.0
H2562 H 0.65021 0.76249 0.76564 0.0
H2563 H 0.69706 0.7767 0.77217 0.0
H2564 H 0.73613 0.84504 0.83435 0.0
H2565 H 0.69528 0.85139 0.84602 0.0
C2566 C 0.64751 0.82074 0.8233 0.0
C2567 C 0.62412 0.80271 0.80949 0.0
C2568 C 0.67183 0.81756 0.81636 0.0
C2569 C 0.62641 0.782 0.78859 0.0
C2570 C 0.65001 0.77892 0.78176 0.0
C2571 C 0.69693 0.79288 0.78849 0.0
C2572 C 0.72051 0.81007 0.80229 0.0
C2573 C 0.67298 0.7964 0.79544 0.0
C2574 C 0.7189 0.8312 0.82305 0.0
C2575 C 0.69521 0.83489 0.82989 0.0
H2576 H 0.51836 0.51918 0.69512 0.0
H2577 H 0.44342 0.53157 0.67819 0.0
H2578 H 0.45007 0.53612 0.63092 0.0
H2579 H 0.47846 0.53857 0.59481 0.0
H2580 H 0.55206 0.52249 0.6126 0.0
H2581 H 0.54467 0.51781 0.65878 0.0
C2582 C 0.50338 0.52272 0.68106 0.0
C2583 C 0.48053 0.52517 0.69025 0.0
C2584 C 0.50719 0.52496 0.65394 0.0
C2585 C 0.46122 0.52949 0.67162 0.0
C2586 C 0.46507 0.53224 0.64461 0.0
C2587 C 0.49274 0.53378 0.60869 0.0
C2588 C 0.51595 0.53134 0.59998 0.0
C2589 C 0.48815 0.53029 0.63555 0.0
C2590 C 0.53413 0.52498 0.61847 0.0
C2591 C 0.52996 0.52215 0.64508 0.0
H2592 H 0.77104 0.1552 0.97239 0.0
H2593 H 0.81605 0.22493 0.02956 0.0
H2594 H 0.80148 0.2534 1.00005 0.0
H2595 H 0.77404 0.25801 0.95901 0.0
H2596 H 0.73038 0.18781 0.9016 0.0
H2597 H 0.74616 0.15963 0.93038 0.0
C2598 C 0.7778 0.17666 0.97824 0.0
C2599 C 0.79437 0.18813 0.00302 0.0
C2600 C 0.76932 0.19263 0.96138 0.0
C2601 C 0.80337 0.21582 0.01038 0.0
C2602 C 0.79487 0.23201 0.99369 0.0
C2603 C 0.76793 0.23654 0.9531 0.0
C2604 C 0.7508 0.22477 0.92876 0.0
C2605 C 0.77748 0.22059 0.96941 0.0
C2606 C 0.74334 0.19705 0.92057 0.0
C2607 C 0.75241 0.18104 0.93688 0.0
H2608 H 0.15778 0.52414 0.12726 0.0
H2609 H 0.12626 0.53826 0.20223 0.0
H2610 H 0.09591 0.55886 0.17907 0.0
H2611 H 0.07176 0.56161 0.13426 0.0
H2612 H 0.09482 0.52845 0.0598 0.0
H2613 H 0.13507 0.52702 0.08451 0.0
C2614 C 0.14466 0.53239 0.1387 0.0
C2615 C 0.14349 0.52901 0.16585 0.0
C2616 C 0.12551 0.54069 0.12453 0.0
C2617 C 0.12716 0.54042 0.18101 0.0
C2618 C 0.10953 0.55169 0.16762 0.0
C2619 C 0.08598 0.55461 0.12368 0.0
C2620 C 0.08191 0.54754 0.0947 0.0
C2621 C 0.10732 0.55003 0.13885 0.0
C2622 C 0.09948 0.53707 0.08131 0.0
C2623 C 0.12194 0.53538 0.09576 0.0
H2624 H 0.79441 0.86317 0.45451 0.0
H2625 H 0.83043 0.80247 0.47474 0.0
H2626 H 0.82677 0.78379 0.42573 0.0
H2627 H 0.81507 0.78558 0.37674 0.0
H2628 H 0.7805 0.84724 0.35624 0.0
H2629 H 0.78178 0.86429 0.40518 0.0
C2630 C 0.80101 0.84555 0.44824 0.0
C2631 C 0.8125 0.83419 0.46861 0.0
C2632 C 0.79941 0.83515 0.41971 0.0
C2633 C 0.82141 0.81166 0.45977 0.0
C2634 C 0.81943 0.80098 0.43162 0.0
C2635 C 0.80792 0.80282 0.38286 0.0
C2636 C 0.79798 0.81515 0.3624 0.0
C2637 C 0.80884 0.81276 0.41132 0.0
C2638 C 0.78845 0.83728 0.37119 0.0
C2639 C 0.78912 0.8471 0.39935 0.0
H2640 H 0.44883 0.51587 0.86414 0.0
H2641 H 0.52234 0.52006 0.839 0.0
H2642 H 0.54064 0.52044 0.88649 0.0
H2643 H 0.53599 0.52191 0.9357 0.0
H2644 H 0.46252 0.51989 0.96052 0.0
H2645 H 0.44386 0.51625 0.91255 0.0
C2646 C 0.46884 0.51694 0.86896 0.0
C2647 C 0.4842 0.51814 0.84802 0.0
C2648 C 0.47921 0.51754 0.8963 0.0
C2649 C 0.51003 0.51886 0.85465 0.0
C2650 C 0.52053 0.51927 0.88185 0.0
C2651 C 0.51586 0.5205 0.93054 0.0
C2652 C 0.50066 0.52136 0.95165 0.0
C2653 C 0.50535 0.51893 0.90292 0.0
C2654 C 0.47466 0.51962 0.9447 0.0
C2655 C 0.46398 0.51747 0.91727 0.0
H2656 H 0.81813 0.18136 0.15261 0.0
H2657 H 0.74976 0.18501 0.10297 0.0
H2658 H 0.74078 0.21554 0.1415 0.0
H2659 H 0.75469 0.24351 0.18899 0.0
H2660 H 0.82401 0.23774 0.23623 0.0
H2661 H 0.83018 0.20586 0.19903 0.0
C2662 C 0.80121 0.18879 0.15027 0.0
C2663 C 0.78492 0.18158 0.12517 0.0
C2664 C 0.79645 0.20618 0.17203 0.0
C2665 C 0.76264 0.19059 0.12236 0.0
C2666 C 0.75764 0.20813 0.14423 0.0
C2667 C 0.77117 0.23537 0.19085 0.0
C2668 C 0.7889 0.2433 0.21526 0.0
C2669 C 0.77482 0.21659 0.16906 0.0
C2670 C 0.80997 0.2322 0.21773 0.0
C2671 C 0.81364 0.21383 0.19645 0.0
H2672 H 0.10261 0.54201 0.29056 0.0
H2673 H 0.17959 0.56622 0.33396 0.0
H2674 H 0.16496 0.58265 0.37601 0.0
H2675 H 0.13053 0.59192 0.40037 0.0
H2676 H 0.05358 0.56893 0.35768 0.0
H2677 H 0.06772 0.54944 0.31572 0.0
C2678 C 0.11616 0.55098 0.3092 0.0
C2679 C 0.14222 0.55335 0.30886 0.0
C2680 C 0.10755 0.56026 0.33358 0.0
C2681 C 0.1595 0.56455 0.33332 0.0
C2682 C 0.15114 0.57382 0.35757 0.0
C2683 C 0.11692 0.58235 0.38189 0.0
C2684 C 0.09121 0.5818 0.38173 0.0
C2685 C 0.12527 0.57198 0.35788 0.0
C2686 C 0.07354 0.56957 0.3579 0.0
C2687 C 0.08163 0.55858 0.33401 0.0
H2688 H 0.7911 0.86701 0.63337 0.0
H2689 H 0.82113 0.80141 0.60145 0.0
H2690 H 0.81673 0.78413 0.644 0.0
H2691 H 0.80734 0.78919 0.6916 0.0
H2692 H 0.77887 0.8556 0.72479 0.0
H2693 H 0.78015 0.87119 0.68095 0.0
C2694 C 0.79611 0.84859 0.63549 0.0
C2695 C 0.80612 0.83533 0.61391 0.0
C2696 C 0.79432 0.83918 0.66059 0.0
C2697 C 0.81318 0.8119 0.61748 0.0
C2698 C 0.81083 0.8021 0.64195 0.0
C2699 C 0.80107 0.80691 0.68923 0.0
C2700 C 0.79277 0.82099 0.71166 0.0
C2701 C 0.80191 0.81582 0.66388 0.0
C2702 C 0.78526 0.84421 0.70806 0.0
C2703 C 0.78593 0.85313 0.68287 0.0
H2704 H 0.72244 0.44219 0.48887 0.0
H2705 H 0.74896 0.5192 0.46783 0.0
H2706 H 0.71544 0.53454 0.48886 0.0
H2707 H 0.68529 0.52893 0.52141 0.0
H2708 H 0.65985 0.45267 0.54447 0.0
H2709 H 0.68728 0.43443 0.51527 0.0
C2710 C 0.72045 0.46211 0.48818 0.0
C2711 C 0.73861 0.47979 0.47761 0.0
C2712 C 0.70208 0.47122 0.5016 0.0
C2713 C 0.73545 0.50529 0.4762 0.0
C2714 C 0.7165 0.51421 0.48857 0.0
C2715 C 0.68511 0.50809 0.51948 0.0
C2716 C 0.67082 0.49224 0.53538 0.0
C2717 C 0.70078 0.49781 0.5027 0.0
C2718 C 0.67118 0.46542 0.53295 0.0
C2719 C 0.68662 0.45493 0.51606 0.0
H2720 H 0.16932 0.10477 0.46692 0.0
H2721 H 0.1973 0.148 0.55017 0.0
H2722 H 0.1596 0.12384 0.56601 0.0
H2723 H 0.11872 0.08986 0.55632 0.0
H2724 H 0.08807 0.05112 0.47231 0.0
H2725 H 0.12692 0.07334 0.45665 0.0
C2726 C 0.16703 0.10899 0.48847 0.0
C2727 C 0.18606 0.1281 0.50732 0.0
C2728 C 0.14503 0.09542 0.49736 0.0
C2729 C 0.18281 0.13354 0.53518 0.0
C2730 C 0.16136 0.11957 0.54432 0.0
C2731 C 0.12074 0.08627 0.53465 0.0
C2732 C 0.10104 0.06857 0.51549 0.0
C2733 C 0.14244 0.10033 0.52565 0.0
C2734 C 0.10339 0.06436 0.48738 0.0
C2735 C 0.12545 0.0772 0.47843 0.0
H2736 H 0.19647 0.01113 0.75854 0.0
H2737 H 0.18396 0.98785 0.83642 0.0
H2738 H 0.20178 0.95016 0.82479 0.0
H2739 H 0.21909 0.92209 0.79177 0.0
H2740 H 0.23117 0.94356 0.71339 0.0
H2741 H 0.21628 0.9838 0.72609 0.0
C2742 C 0.19771 0.99778 0.77285 0.0
C2743 C 0.18892 1.00241 0.79828 0.0
C2744 C 0.20826 0.9759 0.76612 0.0
C2745 C 0.19081 0.98499 0.81677 0.0
C2746 C 0.201 0.96332 0.81018 0.0
C2747 C 0.21891 0.93593 0.77778 0.0
C2748 C 0.22629 0.93017 0.75185 0.0
C2749 C 0.20968 0.95847 0.78491 0.0
C2750 C 0.22564 0.94786 0.73357 0.0
C2751 C 0.21695 0.9707 0.74074 0.0
H2752 H 0.381 0.9682 0.97513 0.0
H2753 H 0.37123 0.04587 0.00557 0.0
H2754 H 0.41739 0.0636 0.017 0.0
H2755 H 0.45902 0.05448 0.02622 0.0
H2756 H 0.4682 0.97577 0.99858 0.0
H2757 H 0.42329 0.96032 0.97901 0.0
C2758 C 0.38921 0.98922 0.98314 0.0
C2759 C 0.37337 0.00591 0.98956 0.0
C2760 C 0.41529 0.99858 0.99132 0.0
C2761 C 0.38354 0.03301 1.00015 0.0
C2762 C 0.40973 0.0429 0.00729 0.0
C2763 C 0.45111 0.03402 0.0157 0.0
C2764 C 0.46646 0.01614 0.01393 0.0
C2765 C 0.42554 0.02545 0.00441 0.0
C2766 C 0.45638 0.98966 1.00046 0.0
C2767 C 0.4309 0.98095 0.98898 0.0
H2768 H 0.81538 0.55857 0.79585 0.0
H2769 H 0.86805 0.61742 0.85898 0.0
H2770 H 0.86002 0.65282 0.83552 0.0
H2771 H 0.84236 0.66573 0.79366 0.0
H2772 H 0.79095 0.60664 0.72963 0.0
H2773 H 0.79379 0.57215 0.75683 0.0
C2774 C 0.82415 0.57929 0.80487 0.0
C2775 C 0.8419 0.58583 0.8289 0.0
C2776 C 0.82023 0.59913 0.79074 0.0
C2777 C 0.8538 0.6124 0.84067 0.0
C2778 C 0.8496 0.63246 0.82703 0.0
C2779 C 0.83204 0.64519 0.78576 0.0
C2780 C 0.81737 0.63806 0.75953 0.0
C2781 C 0.83373 0.62584 0.80145 0.0
C2782 C 0.80319 0.6119 0.74943 0.0
C2783 C 0.80453 0.59245 0.76506 0.0
H2784 H 0.85048 0.67396 0.03513 0.0
H2785 H 0.78774 0.60612 0.03216 0.0
H2786 H 0.81703 0.57924 0.04128 0.0
H2787 H 0.85982 0.57516 0.05276 0.0
H2788 H 0.92369 0.64235 0.05931 0.0
H2789 H 0.89479 0.66915 0.04555 0.0
C2790 C 0.84337 0.65335 0.03664 0.0
C2791 C 0.81699 0.64224 0.0336 0.0
C2792 C 0.86046 0.63786 0.04244 0.0
C2793 C 0.80794 0.61539 0.03515 0.0
C2794 C 0.82465 0.59987 0.04015 0.0
C2795 C 0.86743 0.59572 0.0513 0.0
C2796 C 0.89366 0.60695 0.05759 0.0
C2797 C 0.85084 0.61099 0.04431 0.0
C2798 C 0.90343 0.63333 0.05469 0.0
C2799 C 0.88692 0.64867 0.04703 0.0
H2800 H 0.17284 0.1505 0.80967 0.0
H2801 H 0.23546 0.1163 0.82905 0.0
H2802 H 0.26516 0.15434 0.81806 0.0
H2803 H 0.27312 0.19769 0.80337 0.0
H2804 H 0.21072 0.23381 0.78967 0.0
H2805 H 0.18131 0.19486 0.79783 0.0
C2806 C 0.193 0.15146 0.8115 0.0
C2807 C 0.20197 0.13069 0.82009 0.0
C2808 C 0.21004 0.17374 0.80601 0.0
C2809 C 0.22816 0.13222 0.82267 0.0
C2810 C 0.24512 0.15389 0.81626 0.0
C2811 C 0.25322 0.19706 0.80191 0.0
C2812 C 0.24446 0.21874 0.79528 0.0
C2813 C 0.23628 0.17485 0.80791 0.0
C2814 C 0.2183 0.21748 0.79435 0.0
C2815 C 0.20129 0.19514 0.7991 0.0
H2816 H 0.31879 0.95627 0.3264 0.0
H2817 H 0.3882 0.95681 0.29263 0.0
H2818 H 0.37464 0.90861 0.27734 0.0
H2819 H 0.34544 0.86621 0.27901 0.0
H2820 H 0.27461 0.8663 0.3097 0.0
H2821 H 0.28636 0.91442 0.32089 0.0
C2822 C 0.33067 0.94578 0.31528 0.0
C2823 C 0.35449 0.95964 0.31098 0.0
C2824 C 0.32278 0.91828 0.30655 0.0
C2825 C 0.36971 0.94625 0.29613 0.0
C2826 C 0.36209 0.91877 0.2876 0.0
C2827 C 0.33253 0.87677 0.28799 0.0
C2828 C 0.30988 0.86272 0.29504 0.0
C2829 C 0.33906 0.90452 0.29359 0.0
C2830 C 0.29284 0.87662 0.30556 0.0
C2831 C 0.29936 0.90419 0.31164 0.0
H2832 H 0.52964 0.36845 0.54757 0.0
H2833 H 0.60312 0.39836 0.59823 0.0
H2834 H 0.60481 0.4429 0.58806 0.0
H2835 H 0.58383 0.4749 0.56652 0.0
H2836 H 0.51223 0.44177 0.51288 0.0
H2837 H 0.51119 0.39839 0.52308 0.0
C2838 C 0.54632 0.38448 0.55625 0.0
C2839 C 0.56625 0.37926 0.57381 0.0
C2840 C 0.5472 0.41029 0.55028 0.0
C2841 C 0.58746 0.40102 0.58453 0.0
C2842 C 0.58832 0.42683 0.57886 0.0
C2843 C 0.56798 0.45824 0.55693 0.0
C2844 C 0.54742 0.46281 0.53941 0.0
C2845 C 0.56806 0.43202 0.56206 0.0
C2846 C 0.52773 0.44013 0.52713 0.0
C2847 C 0.5273 0.41474 0.53275 0.0
H2848 H 0.44677 0.79967 0.37729 0.0
H2849 H 0.40547 0.74875 0.42575 0.0
H2850 H 0.36551 0.74632 0.39663 0.0
H2851 H 0.3418 0.75829 0.35665 0.0
H2852 H 0.38366 0.81098 0.30997 0.0
H2853 H 0.42324 0.81253 0.33853 0.0
C2854 C 0.42908 0.788 0.38158 0.0
C2855 C 0.42949 0.77432 0.40388 0.0
C2856 C 0.40594 0.78678 0.36473 0.0
C2857 C 0.40607 0.75947 0.40887 0.0
C2858 C 0.38306 0.75804 0.3921 0.0
C2859 C 0.35953 0.77018 0.3527 0.0
C2860 C 0.35925 0.78437 0.33072 0.0
C2861 C 0.38267 0.77154 0.36984 0.0
C2862 C 0.38278 0.79959 0.32631 0.0
C2863 C 0.40567 0.80063 0.34284 0.0
H2864 H 0.02022 0.71059 0.05689 0.0
H2865 H 0.09994 0.73887 0.08996 0.0
H2866 H 0.1052 0.69363 0.07871 0.0
H2867 H 0.0866 0.64459 0.06164 0.0
H2868 H 0.00637 0.6172 0.03075 0.0
H2869 H 1.00216 0.66269 0.03872 0.0
C2870 C 0.03889 0.70709 0.06136 0.0
C2871 C 0.05964 0.72876 0.07422 0.0
C2872 C 0.04176 0.68065 0.05527 0.0
C2873 C 0.0835 0.72308 0.08001 0.0
C2874 C 0.08655 0.69696 0.07361 0.0
C2875 C 0.06832 0.6486 0.05624 0.0
C2876 C 0.04685 0.627 0.04546 0.0
C2877 C 0.06578 0.67536 0.06149 0.0
C2878 C 0.02328 0.63304 0.03913 0.0
C2879 C 0.02079 0.65926 0.04372 0.0
H2880 H 0.08708 0.29318 0.92492 0.0
H2881 H 0.04541 0.23608 0.85297 0.0
H2882 H 0.08149 0.24628 0.82835 0.0
H2883 H 0.12317 0.27519 0.82522 0.0
H2884 H 0.16463 0.3326 0.89668 0.0
H2885 H 0.13094 0.31812 0.92361 0.0
C2886 C 0.08599 0.28277 0.90396 0.0
C2887 C 0.06331 0.26416 0.89078 0.0
C2888 C 0.10695 0.28871 0.88978 0.0
C2889 C 0.06245 0.25065 0.86368 0.0
C2890 C 0.08314 0.25646 0.84949 0.0
C2891 C 0.12514 0.28381 0.84694 0.0
C2892 C 0.14638 0.30476 0.85905 0.0
C2893 C 0.10529 0.27589 0.86207 0.0
C2894 C 0.14853 0.31623 0.88706 0.0
C2895 C 0.12913 0.30817 0.90235 0.0
H2896 H 0.54202 0.72999 0.87812 0.0
H2897 H 0.55588 0.79446 0.9477 0.0
H2898 H 0.55464 0.76334 0.97939 0.0
H2899 H 0.54056 0.71747 0.98646 0.0
H2900 H 0.52378 0.65256 0.91707 0.0
H2901 H 0.53569 0.68379 0.88621 0.0
C2902 C 0.54602 0.73724 0.90027 0.0
C2903 C 0.5495 0.76453 0.91063 0.0
C2904 C 0.54424 0.71898 0.91837 0.0
C2905 C 0.5537 0.77363 0.93932 0.0
C2906 C 0.55266 0.75578 0.95743 0.0
C2907 C 0.54064 0.71018 0.96477 0.0
C2908 C 0.53153 0.68281 0.95403 0.0
C2909 C 0.54669 0.72834 0.94712 0.0
C2910 C 0.53113 0.67351 0.92582 0.0
C2911 C 0.53762 0.69143 0.90814 0.0
H2912 H 0.12031 0.77909 0.72183 0.0
H2913 H 0.11027 0.74965 0.7972 0.0
H2914 H 0.15557 0.75373 0.80736 0.0
H2915 H 0.19912 0.76561 0.79585 0.0
H2916 H 0.21036 0.79442 0.72061 0.0
H2917 H 0.16481 0.79097 0.71008 0.0
C2918 C 0.12795 0.77373 0.74058 0.0
C2919 C 0.11098 0.764 0.75857 0.0
C2920 C 0.15485 0.77608 0.74663 0.0
C2921 C 0.12206 0.75713 0.78263 0.0
C2922 C 0.14834 0.75945 0.78863 0.0
C2923 C 0.19175 0.77105 0.77702 0.0
C2924 C 0.20895 0.78064 0.75933 0.0
C2925 C 0.16506 0.76881 0.77086 0.0
C2926 C 0.19828 0.78753 0.73513 0.0
C2927 C 0.17189 0.78536 0.72893 0.0
H2928 H 0.07362 0.39244 0.44437 0.0
H2929 H 0.01242 0.39581 0.38353 0.0
H2930 H 0.00998 0.43821 0.40979 0.0
H2931 H 0.02114 0.47096 0.45323 0.0
H2932 H 0.08559 0.47216 0.51179 0.0
H2933 H 0.09008 0.43069 0.48441 0.0
C2934 C 0.06052 0.40305 0.43636 0.0
C2935 C 0.04352 0.39114 0.41164 0.0
C2936 C 0.05924 0.42779 0.45172 0.0
C2937 C 0.02605 0.40476 0.4021 0.0
C2938 C 0.0244 0.42887 0.41734 0.0
C2939 C 0.03717 0.46325 0.45914 0.0
C2940 C 0.05369 0.47551 0.48393 0.0
C2941 C 0.0404 0.44022 0.44254 0.0
C2942 C 0.07294 0.46353 0.49249 0.0
C2943 C 0.07552 0.43979 0.47678 0.0
H2944 H 0.42905 0.25407 0.20882 0.0
H2945 H 0.47468 0.2992 0.28516 0.0
H2946 H 0.43654 0.30793 0.3024 0.0
H2947 H 0.3891 0.30229 0.29662 0.0
H2948 H 0.34414 0.25767 0.21954 0.0
H2949 H 0.38228 0.24987 0.20237 0.0
C2950 C 0.43085 0.26596 0.22919 0.0
C2951 C 0.45543 0.27591 0.24539 0.0
C2952 C 0.40844 0.27115 0.23918 0.0
C2953 C 0.45655 0.29128 0.2718 0.0
C2954 C 0.43448 0.29627 0.28185 0.0
C2955 C 0.38751 0.29089 0.27603 0.0
C2956 C 0.36291 0.28039 0.25982 0.0
C2957 C 0.41012 0.28627 0.26586 0.0
C2958 C 0.36213 0.26579 0.23308 0.0
C2959 C 0.38424 0.2613 0.22302 0.0
H2960 H 0.61717 0.53471 0.38015 0.0
H2961 H 0.58297 0.59789 0.3642 0.0
H2962 H 0.56018 0.59331 0.40378 0.0
H2963 H 0.54919 0.57032 0.44257 0.0
H2964 H 0.58349 0.50686 0.45733 0.0
H2965 H 0.6063 0.51195 0.41816 0.0
C2966 C 0.60499 0.54775 0.38552 0.0
C2967 C 0.60201 0.56684 0.36938 0.0
C2968 C 0.59146 0.54448 0.40778 0.0
C2969 C 0.58571 0.58314 0.37634 0.0
C2970 C 0.57255 0.5804 0.39889 0.0
C2971 C 0.56144 0.55745 0.43693 0.0
C2972 C 0.56458 0.53814 0.45278 0.0
C2973 C 0.57501 0.56088 0.41458 0.0
C2974 C 0.58083 0.5219 0.44554 0.0
C2975 C 0.59396 0.52487 0.4232 0.0
H2976 H 0.30172 0.87927 0.04956 0.0
H2977 H 0.31942 0.95465 0.10539 0.0
H2978 H 0.32609 0.93309 0.14469 0.0
H2979 H 0.33612 0.89451 0.16118 0.0
H2980 H 0.32079 0.81953 0.10505 0.0
H2981 H 0.30337 0.83878 0.06776 0.0
C2982 C 0.3057 0.89061 0.07051 0.0
C2983 C 0.30988 0.91829 0.07488 0.0
C2984 C 0.31056 0.87819 0.09275 0.0
C2985 C 0.31568 0.93318 0.10185 0.0
C2986 C 0.3199 0.92092 0.12421 0.0
C2987 C 0.3283 0.88237 0.14091 0.0
C2988 C 0.32997 0.85599 0.13535 0.0
C2989 C 0.31886 0.89372 0.11966 0.0
C2990 C 0.31983 0.84006 0.10933 0.0
C2991 C 0.30994 0.85106 0.08814 0.0
H2992 H 0.93429 0.48965 0.89015 0.0
H2993 H 0.94188 0.57352 0.89401 0.0
H2994 H 0.96976 0.5839 0.938 0.0
H2995 H 0.99392 0.56964 0.97356 0.0
H2996 H 0.99231 0.48695 0.96778 0.0
H2997 H 0.95868 0.47502 0.92745 0.0
C2998 C 0.94207 0.51003 0.90093 0.0
C2999 C 0.93625 0.53089 0.88953 0.0
C3000 C 0.95828 0.51587 0.92618 0.0
C3001 C 0.94618 0.55733 0.90306 0.0
C3002 C 0.96194 0.56327 0.92812 0.0
C3003 C 0.98544 0.54898 0.96391 0.0
C3004 C 0.99448 0.52906 0.97356 0.0
C3005 C 0.96812 0.54276 0.93978 0.0
C3006 C 0.98473 0.50237 0.96062 0.0
C3007 C 0.96593 0.49567 0.93747 0.0
H3008 H 0.30945 0.26818 0.60831 0.0
H3009 H 0.25056 0.1953 0.59574 0.0
H3010 H 0.24513 0.20433 0.6441 0.0
H3011 H 0.25815 0.23207 0.69097 0.0
H3012 H 0.31411 0.30671 0.70301 0.0
H3013 H 0.31981 0.29784 0.65436 0.0
C3014 C 0.29522 0.25442 0.61605 0.0
C3015 C 0.28049 0.23105 0.59811 0.0
C3016 C 0.29188 0.2599 0.64408 0.0
C3017 C 0.2621 0.21355 0.60874 0.0
C3018 C 0.25907 0.21858 0.63659 0.0
C3019 C 0.27154 0.24634 0.68285 0.0
C3020 C 0.28596 0.26984 0.70056 0.0
C3021 C 0.27405 0.24151 0.65457 0.0
C3022 C 0.30296 0.2884 0.68975 0.0
C3023 C 0.30618 0.28334 0.66192 0.0
H3024 H 0.61432 0.54512 0.19909 0.0
H3025 H 0.56225 0.59029 0.22694 0.0
H3026 H 0.5452 0.58965 0.17918 0.0
H3027 H 0.54362 0.57443 0.12913 0.0
H3028 H 0.59491 0.52794 0.1018 0.0
H3029 H 0.61351 0.53096 0.14937 0.0
C3030 C 0.59939 0.555 0.19474 0.0
C3031 C 0.58966 0.56776 0.21667 0.0
C3032 C 0.58935 0.55425 0.16715 0.0
C3033 C 0.57011 0.58025 0.21053 0.0
C3034 C 0.56032 0.57992 0.18316 0.0
C3035 C 0.55912 0.56534 0.13358 0.0
C3036 C 0.56776 0.551 0.11179 0.0
C3037 C 0.56962 0.56677 0.16124 0.0
C3038 C 0.58767 0.53899 0.11807 0.0
C3039 C 0.5984 0.54069 0.14535 0.0
H3040 H 0.29077 0.90594 0.92815 0.0
H3041 H 0.35529 0.87961 0.96059 0.0
H3042 H 0.34754 0.84457 0.91979 0.0
H3043 H 0.32411 0.82318 0.87376 0.0
H3044 H 0.26063 0.85055 0.84063 0.0
H3045 H 0.26628 0.88338 0.88301 0.0
C3046 C 0.30303 0.89241 0.92646 0.0
C3047 C 0.32364 0.8955 0.94737 0.0
C3048 C 0.29869 0.87252 0.90282 0.0
C3049 C 0.33938 0.87782 0.94473 0.0
C3050 C 0.33496 0.85774 0.92143 0.0
C3051 C 0.31121 0.83598 0.87606 0.0
C3052 C 0.29193 0.8344 0.85424 0.0
C3053 C 0.31487 0.85512 0.90021 0.0
C3054 C 0.27564 0.85144 0.85721 0.0
C3055 C 0.27888 0.87023 0.88138 0.0
H3056 H 0.90445 0.49724 0.73582 0.0
H3057 H 0.95551 0.57554 0.75073 0.0
H3058 H 0.97879 0.56084 0.71456 0.0
H3059 H 0.98716 0.52462 0.68219 0.0
H3060 H 0.93799 0.44573 0.66957 0.0
H3061 H 0.91132 0.46173 0.70158 0.0
C3062 C 0.92037 0.51125 0.73083 0.0
C3063 C 0.92836 0.53738 0.74604 0.0
C3064 C 0.93421 0.50242 0.71081 0.0
C3065 C 0.94905 0.55528 0.73935 0.0
C3066 C 0.96246 0.54686 0.71882 0.0
C3067 C 0.97049 0.51105 0.6864 0.0
C3068 C 0.96455 0.48407 0.67402 0.0
C3069 C 0.95566 0.52029 0.70505 0.0
C3070 C 0.94302 0.4665 0.67942 0.0
C3071 C 0.92777 0.47567 0.6975 0.0
H3072 H 0.31429 0.26277 0.45779 0.0
H3073 H 0.2412 0.20616 0.43403 0.0
H3074 H 0.23908 0.2157 0.38737 0.0
H3075 H 0.25885 0.23856 0.35265 0.0
H3076 H 0.33228 0.29391 0.37603 0.0
H3077 H 0.33361 0.28607 0.42322 0.0
C3078 C 0.29763 0.25279 0.44262 0.0
C3079 C 0.27782 0.23389 0.44984 0.0
C3080 C 0.29667 0.25806 0.41556 0.0
C3081 C 0.25659 0.22109 0.42951 0.0
C3082 C 0.25549 0.22632 0.40259 0.0
C3083 C 0.27489 0.24949 0.36801 0.0
C3084 C 0.29468 0.26855 0.36099 0.0
C3085 C 0.27555 0.24455 0.39525 0.0
C3086 C 0.31597 0.28086 0.38122 0.0
C3087 C 0.31691 0.27595 0.40818 0.0
H3088 H 0.35858 0.62635 0.58034 0.0
H3089 H 0.31831 0.54488 0.57588 0.0
H3090 H 0.35262 0.52973 0.55625 0.0
H3091 H 0.38693 0.53966 0.52825 0.0
H3092 H 0.42257 0.62114 0.52638 0.0
H3093 H 0.39707 0.63643 0.55992 0.0
C3094 C 0.35772 0.60531 0.57597 0.0
C3095 C 0.33549 0.58674 0.5782 0.0
C3096 C 0.37629 0.59679 0.56242 0.0
C3097 C 0.33502 0.5596 0.57365 0.0
C3098 C 0.35444 0.55089 0.56193 0.0
C3099 C 0.38953 0.56073 0.53589 0.0
C3100 C 0.40612 0.57938 0.52475 0.0
C3101 C 0.37403 0.56927 0.55419 0.0
C3102 C 0.40951 0.6066 0.53453 0.0
C3103 C 0.39504 0.61529 0.55371 0.0
H3104 H 0.88913 0.94857 0.57873 0.0
H3105 H 0.86662 0.92003 0.4912 0.0
H3106 H 0.90669 0.94728 0.48243 0.0
H3107 H 0.94774 0.98 0.49988 0.0
H3108 H 0.96967 0.00967 0.58728 0.0
H3109 H 0.92979 0.98209 0.59612 0.0
C3110 C 0.89325 0.94823 0.55782 0.0
C3111 C 0.8754 0.93222 0.53559 0.0
C3112 C 0.91582 0.96462 0.55299 0.0
C3113 C 0.88038 0.93217 0.5085 0.0
C3114 C 0.90313 0.94782 0.50353 0.0
C3115 C 0.94356 0.98046 0.52077 0.0
C3116 C 0.96123 0.99672 0.54295 0.0
C3117 C 0.92086 0.96432 0.5256 0.0
C3118 C 0.95598 0.99736 0.57 0.0
C3119 C 0.93338 0.98146 0.57502 0.0
H3120 H 0.85367 0.05331 0.2862 0.0
H3121 H 0.91546 0.09665 0.25178 0.0
H3122 H 0.89645 0.13454 0.2544 0.0
H3123 H 0.86855 0.15863 0.27809 0.0
H3124 H 0.80826 0.11547 0.31459 0.0
H3125 H 0.8198 0.074 0.299 0.0
C3126 C 0.86232 0.07064 0.27817 0.0
C3127 C 0.88605 0.07252 0.26931 0.0
C3128 C 0.85171 0.09254 0.28059 0.0
C3129 C 0.89715 0.09486 0.25871 0.0
C3130 C 0.88645 0.11666 0.26057 0.0
C3131 C 0.85729 0.13988 0.28139 0.0
C3132 C 0.83775 0.13982 0.2975 0.0
C3133 C 0.86464 0.1163 0.27317 0.0
C3134 C 0.82334 0.11569 0.30212 0.0
C3135 C 0.8301 0.0921 0.29345 0.0
H3136 H 0.69599 0.11545 0.04803 0.0
H3137 H 0.70292 0.03461 0.04098 0.0
H3138 H 0.65968 0.02052 0.05091 0.0
H3139 H 0.61877 0.03014 0.05352 0.0
H3140 H 0.61134 0.11057 0.0588 0.0
H3141 H 0.65682 0.12621 0.05826 0.0
C3142 C 0.68811 0.09472 0.04868 0.0
C3143 C 0.70212 0.07586 0.04289 0.0
C3144 C 0.6635 0.08685 0.05422 0.0
C3145 C 0.69203 0.04927 0.04455 0.0
C3146 C 0.66752 0.04128 0.05047 0.0
C3147 C 0.6272 0.05121 0.05567 0.0
C3148 C 0.61193 0.06914 0.05546 0.0
C3149 C 0.65289 0.05977 0.05433 0.0
C3150 C 0.62295 0.09641 0.05825 0.0
C3151 C 0.64879 0.1053 0.05779 0.0
H3152 H 0.27835 0.54038 0.28252 0.0
H3153 H 0.22797 0.48661 0.21367 0.0
H3154 H 0.24248 0.44945 0.22713 0.0
H3155 H 0.25711 0.43151 0.26703 0.0
H3156 H 0.29977 0.48502 0.3407 0.0
H3157 H 0.2997 0.52302 0.31806 0.0
C3158 C 0.27135 0.52063 0.26989 0.0
C3159 C 0.25053 0.5156 0.24894 0.0
C3160 C 0.27713 0.49915 0.27991 0.0
C3161 C 0.24303 0.49066 0.23109 0.0
C3162 C 0.25082 0.46925 0.23917 0.0
C3163 C 0.26657 0.45155 0.27785 0.0
C3164 C 0.27755 0.45603 0.3056 0.0
C3165 C 0.26564 0.47307 0.26508 0.0
C3166 C 0.29036 0.48166 0.3196 0.0
C3167 C 0.29067 0.50317 0.30654 0.0
H3168 H 0.25665 0.46798 0.06401 0.0
H3169 H 0.22238 0.38747 0.02103 0.0
H3170 H 0.18536 0.40113 0.00188 0.0
H3171 H 0.16489 0.43695 0.99348 0.0
H3172 H 0.19929 0.51721 0.03657 0.0
H3173 H 0.23416 0.50269 0.05958 0.0
C3174 C 0.24099 0.4533 0.05069 0.0
C3175 C 0.24252 0.42679 0.04359 0.0
C3176 C 0.21995 0.46135 0.0395 0.0
C3177 C 0.22186 0.40805 0.02657 0.0
C3178 C 0.20071 0.41587 0.01554 0.0
C3179 C 0.18 0.45113 0.00806 0.0
C3180 C 0.17991 0.47813 0.01306 0.0
C3181 C 0.19992 0.44261 0.02119 0.0
C3182 C 0.19916 0.49635 0.03238 0.0
C3183 C 0.21908 0.48806 0.04544 0.0
H3184 H 0.86798 0.94887 0.25231 0.0
H3185 H 0.92009 0.94835 0.32393 0.0
H3186 H 0.89634 0.90382 0.3264 0.0
H3187 H 0.85864 0.86723 0.31127 0.0
H3188 H 0.8073 0.86487 0.23824 0.0
H3189 H 0.83183 0.90893 0.23395 0.0
C3190 C 0.87436 0.93859 0.26791 0.0
C3191 C 0.89578 0.95157 0.28781 0.0
C3192 C 0.86027 0.913 0.26952 0.0
C3193 C 0.90372 0.93848 0.30834 0.0
C3194 C 0.89005 0.91318 0.30992 0.0
C3195 C 0.85333 0.8759 0.29389 0.0
C3196 C 0.83135 0.86286 0.2751 0.0
C3197 C 0.86801 0.90055 0.29106 0.0
C3198 C 0.82387 0.87494 0.2534 0.0
C3199 C 0.83812 0.89991 0.25071 0.0
H3200 H 0.74415 0.11401 0.7581 0.0
H3201 H 0.67091 0.13059 0.74233 0.0
H3202 H 0.69147 0.17691 0.74117 0.0
H3203 H 0.73007 0.21334 0.75164 0.0
H3204 H 0.80342 0.19681 0.76848 0.0
H3205 H 0.78306 0.14937 0.76202 0.0
C3206 C 0.73284 0.12772 0.75359 0.0
C3207 C 0.70631 0.11948 0.75032 0.0
C3208 C 0.74477 0.15414 0.75373 0.0
C3209 C 0.69145 0.13691 0.74467 0.0
C3210 C 0.70319 0.16328 0.74431 0.0
C3211 C 0.74158 0.19931 0.75374 0.0
C3212 C 0.76804 0.20834 0.76128 0.0
C3213 C 0.72979 0.17229 0.75002 0.0
C3214 C 0.78292 0.1901 0.76313 0.0
C3215 C 0.77133 0.16309 0.7594 0.0
loop_
_geom_bond_atom_site_label_1
_geom_bond_atom_site_label_2
_geom_bond_distance
_geom_bond_site_symmetry_2
_ccdc_geom_bond_type
Mg0 O1 2.028 . S
Mg0 O7 1.986 . S
Mg0 O9 2.114 . S
Mg0 O10 2.251 1_455 S
Mg0 O13 2.010 . S
O1 Mg0 2.028 . S
O1 C4 1.250 . S
O2 Mg3 2.028 1_455 S
O2 C4 1.248 . S
Mg3 O2 2.028 1_655 S
Mg3 O8 2.032 1_655 S
Mg3 O10 2.079 . S
C4 O1 1.250 . S
C4 O2 1.248 . S
C5 O6 1.264 . S
C5 O13 1.249 . S
O6 C5 1.264 . S
O7 Mg0 1.986 . S
O7 C11 1.246 . S
O8 Mg3 2.032 1_455 S
O8 C11 1.259 . S
O9 Mg0 2.114 . S
O9 C12 1.252 1_455 S
O10 Mg0 2.251 1_655 S
O10 Mg3 2.079 . S
O10 C12 1.273 . S
C11 O7 1.246 . S
C11 O8 1.259 . S
C12 O9 1.252 1_655 S
C12 O10 1.273 . S
O13 Mg0 2.010 . S
O13 C5 1.249 . S
Mg14 O15 2.028 . S
Mg14 O21 1.986 . S
Mg14 O23 2.114 . S
Mg14 O24 2.251 1_455 S
Mg14 O27 2.010 . S
O15 Mg14 2.028 . S
O15 C18 1.250 . S
O16 Mg17 2.028 . S
O16 C18 1.248 1_655 S
Mg17 O16 2.028 . S
Mg17 O22 2.032 . S
Mg17 O24 2.079 . S
C18 O15 1.250 . S
C18 O16 1.248 1_455 S
C19 O20 1.264 . S
C19 O27 1.249 . S
O20 C19 1.264 . S
O21 Mg14 1.986 . S
O21 C25 1.246 . S
O22 Mg17 2.032 . S
O22 C25 1.259 1_655 S
O23 Mg14 2.114 . S
O23 C26 1.252 1_455 S
O24 Mg14 2.251 1_655 S
O24 Mg17 2.079 . S
O24 C26 1.273 . S
C25 O21 1.246 . S
C25 O22 1.259 1_455 S
C26 O23 1.252 1_655 S
C26 O24 1.273 . S
O27 Mg14 2.010 . S
O27 C19 1.249 . S
Mg28 O29 2.028 . S
Mg28 O35 1.986 . S
Mg28 O37 2.114 . S
Mg28 O38 2.251 . S
Mg28 O41 2.010 . S
O29 Mg28 2.028 . S
O29 C32 1.250 . S
O30 Mg31 2.028 . S
O30 C32 1.248 . S
Mg31 O30 2.028 . S
Mg31 O36 2.032 . S
Mg31 O38 2.079 . S
C32 O29 1.250 . S
C32 O30 1.248 . S
C33 O34 1.264 . S
C33 O41 1.249 . S
O34 C33 1.264 . S
O35 Mg28 1.986 . S
O35 C39 1.246 . S
O36 Mg31 2.032 . S
O36 C39 1.259 . S
O37 Mg28 2.114 . S
O37 C40 1.252 . S
O38 Mg28 2.251 . S
O38 Mg31 2.079 . S
O38 C40 1.273 . S
C39 O35 1.246 . S
C39 O36 1.259 . S
C40 O37 1.252 . S
C40 O38 1.273 . S
O41 Mg28 2.010 . S
O41 C33 1.249 . S
Mg42 O43 2.028 . S
Mg42 O49 1.986 . S
Mg42 O51 2.114 . S
Mg42 O52 2.251 . S
Mg42 O55 2.010 . S
O43 Mg42 2.028 . S
O43 C46 1.250 . S
O44 Mg45 2.028 . S
O44 C46 1.248 . S
Mg45 O44 2.028 . S
Mg45 O50 2.032 . S
Mg45 O52 2.079 . S
C46 O43 1.250 . S
C46 O44 1.248 . S
C47 O48 1.264 . S
C47 O55 1.249 . S
O48 C47 1.264 . S
O49 Mg42 1.986 . S
O49 C53 1.246 . S
O50 Mg45 2.032 . S
O50 C53 1.259 . S
O51 Mg42 2.114 . S
O51 C54 1.252 . S
O52 Mg42 2.251 . S
O52 Mg45 2.079 . S
O52 C54 1.273 . S
C53 O49 1.246 . S
C53 O50 1.259 . S
C54 O51 1.252 . S
C54 O52 1.273 . S
O55 Mg42 2.010 . S
O55 C47 1.249 . S
Mg56 O57 2.028 . S
Mg56 O63 1.986 . S
Mg56 O65 2.114 . S
Mg56 O66 2.251 . S
Mg56 O69 2.010 . S
O57 Mg56 2.028 . S
O57 C60 1.250 . S
O58 Mg59 2.028 . S
O58 C60 1.248 . S
Mg59 O58 2.028 . S
Mg59 O64 2.032 . S
Mg59 O66 2.079 . S
C60 O57 1.250 . S
C60 O58 1.248 . S
C61 O62 1.264 . S
C61 O69 1.249 . S
O62 C61 1.264 . S
O63 Mg56 1.986 . S
O63 C67 1.246 . S
O64 Mg59 2.032 . S
O64 C67 1.259 . S
O65 Mg56 2.114 . S
O65 C68 1.252 . S
O66 Mg56 2.251 . S
O66 Mg59 2.079 . S
O66 C68 1.273 . S
C67 O63 1.246 . S
C67 O64 1.259 . S
C68 O65 1.252 . S
C68 O66 1.273 . S
O69 Mg56 2.010 . S
O69 C61 1.249 . S
Mg70 O71 2.028 . S
Mg70 O77 1.986 . S
Mg70 O79 2.114 . S
Mg70 O80 2.251 . S
Mg70 O83 2.010 . S
O71 Mg70 2.028 . S
O71 C74 1.250 . S
O72 Mg73 2.028 . S
O72 C74 1.248 . S
Mg73 O72 2.028 . S
Mg73 O78 2.032 . S
Mg73 O80 2.079 . S
C74 O71 1.250 . S
C74 O72 1.248 . S
C75 O76 1.264 . S
C75 O83 1.249 . S
O76 C75 1.264 . S
O77 Mg70 1.986 . S
O77 C81 1.246 . S
O78 Mg73 2.032 . S
O78 C81 1.259 . S
O79 Mg70 2.114 . S
O79 C82 1.252 . S
O80 Mg70 2.251 . S
O80 Mg73 2.079 . S
O80 C82 1.273 . S
C81 O77 1.246 . S
C81 O78 1.259 . S
C82 O79 1.252 . S
C82 O80 1.273 . S
O83 Mg70 2.010 . S
O83 C75 1.249 . S
Mg84 O85 2.028 . S
Mg84 O91 1.986 . S
Mg84 O93 2.114 . S
Mg84 O94 2.251 . S
Mg84 O97 2.010 . S
O85 Mg84 2.028 . S
O85 C88 1.250 . S
O86 Mg87 2.028 . S
O86 C88 1.248 . S
Mg87 O86 2.028 . S
Mg87 O92 2.032 . S
Mg87 O94 2.079 . S
C88 O85 1.250 . S
C88 O86 1.248 . S
C89 O90 1.264 . S
C89 O97 1.249 . S
O90 C89 1.264 . S
O91 Mg84 1.986 . S
O91 C95 1.246 . S
O92 Mg87 2.032 . S
O92 C95 1.259 . S
O93 Mg84 2.114 . S
O93 C96 1.252 . S
O94 Mg84 2.251 . S
O94 Mg87 2.079 . S
O94 C96 1.273 . S
C95 O91 1.246 . S
C95 O92 1.259 . S
C96 O93 1.252 . S
C96 O94 1.273 . S
O97 Mg84 2.010 . S
O97 C89 1.249 . S
Mg98 O99 2.028 1_655 S
Mg98 O105 1.986 1_655 S
Mg98 O107 2.114 . S
Mg98 O108 2.251 . S
Mg98 O111 2.010 1_655 S
O99 Mg98 2.028 1_455 S
O99 C102 1.276 . S
O100 Mg101 2.028 . S
O100 C102 1.212 1_655 S
Mg101 O100 2.028 . S
Mg101 O106 2.032 . S
Mg101 O108 2.079 . S
C102 O99 1.276 . S
C102 O100 1.212 1_455 S
C103 O104 1.264 . S
C103 O111 1.249 . S
O104 C103 1.264 . S
O105 Mg98 1.986 1_455 S
O105 C109 1.246 1_455 S
O106 Mg101 2.032 . S
O106 C109 1.259 . S
O107 Mg98 2.114 . S
O107 C110 1.252 . S
O108 Mg98 2.251 . S
O108 Mg101 2.079 . S
O108 C110 1.273 . S
C109 O105 1.246 1_655 S
C109 O106 1.259 . S
C110 O107 1.252 . S
C110 O108 1.273 . S
O111 Mg98 2.010 1_455 S
O111 C103 1.249 . S
Mg112 O113 2.028 1_545 S
Mg112 O119 1.986 . S
Mg112 O121 2.114 . S
Mg112 O122 2.251 . S
Mg112 O125 2.010 . S
O113 Mg112 2.028 1_565 S
O113 C116 1.250 . S
O114 Mg115 2.028 1_565 S
O114 C116 1.248 . S
Mg115 O114 2.028 1_545 S
Mg115 O120 2.032 . S
Mg115 O122 2.079 . S
C116 O113 1.250 . S
C116 O114 1.248 . S
C117 O118 1.264 . S
C117 O125 1.249 . S
O118 C117 1.264 . S
O119 Mg112 1.986 . S
O119 C123 1.246 . S
O120 Mg115 2.032 . S
O120 C123 1.259 . S
O121 Mg112 2.114 . S
O121 C124 1.252 . S
O122 Mg112 2.251 . S
O122 Mg115 2.079 . S
O122 C124 1.273 . S
C123 O119 1.246 . S
C123 O120 1.259 . S
C124 O121 1.252 . S
C124 O122 1.273 . S
O125 Mg112 2.010 . S
O125 C117 1.249 . S
Mg126 O127 2.028 . S
Mg126 O133 1.986 . S
Mg126 O135 2.114 . S
Mg126 O136 2.251 . S
Mg126 O139 2.010 . S
O127 Mg126 2.028 . S
O127 C130 1.250 . S
O128 Mg129 2.028 . S
O128 C130 1.248 . S
Mg129 O128 2.028 . S
Mg129 O134 2.032 . S
Mg129 O136 2.079 . S
C130 O127 1.250 . S
C130 O128 1.248 . S
C131 O132 1.264 . S
C131 O139 1.249 . S
O132 C131 1.264 . S
O133 Mg126 1.986 . S
O133 C137 1.246 . S
O134 Mg129 2.032 . S
O134 C137 1.259 . S
O135 Mg126 2.114 . S
O135 C138 1.252 . S
O136 Mg126 2.251 . S
O136 Mg129 2.079 . S
O136 C138 1.273 . S
C137 O133 1.246 . S
C137 O134 1.259 . S
C138 O135 1.252 . S
C138 O136 1.273 . S
O139 Mg126 2.010 . S
O139 C131 1.249 . S
Mg140 O141 2.028 . S
Mg140 O147 1.986 . S
Mg140 O149 2.114 . S
Mg140 O150 2.251 . S
Mg140 O153 2.010 . S
O141 Mg140 2.028 . S
O141 C144 1.250 . S
O142 Mg143 2.028 . S
O142 C144 1.248 . S
Mg143 O142 2.028 . S
Mg143 O148 2.032 . S
Mg143 O150 2.079 . S
C144 O141 1.250 . S
C144 O142 1.248 . S
C145 O146 1.264 . S
C145 O153 1.249 . S
O146 C145 1.264 . S
O147 Mg140 1.986 . S
O147 C151 1.246 . S
O148 Mg143 2.032 . S
O148 C151 1.259 . S
O149 Mg140 2.114 . S
O149 C152 1.252 . S
O150 Mg140 2.251 . S
O150 Mg143 2.079 . S
O150 C152 1.273 . S
C151 O147 1.246 . S
C151 O148 1.259 . S
C152 O149 1.252 . S
C152 O150 1.273 . S
O153 Mg140 2.010 . S
O153 C145 1.249 . S
Mg154 O155 2.028 1_554 S
Mg154 O161 1.986 . S
Mg154 O163 2.114 1_554 S
Mg154 O164 2.251 . S
Mg154 O167 2.010 . S
O155 Mg154 2.028 1_556 S
O155 C158 1.250 . S
O156 Mg157 2.028 1_556 S
O156 C158 1.248 . S
Mg157 O156 2.028 1_554 S
Mg157 O162 2.032 . S
Mg157 O164 2.079 . S
C158 O155 1.250 . S
C158 O156 1.248 . S
C159 O160 1.264 . S
C159 O167 1.249 . S
O160 C159 1.264 . S
O161 Mg154 1.986 . S
O161 C165 1.246 . S
O162 Mg157 2.032 . S
O162 C165 1.259 . S
O163 Mg154 2.114 1_556 S
O163 C166 1.252 1_556 S
O164 Mg154 2.251 . S
O164 Mg157 2.079 . S
O164 C166 1.273 . S
C165 O161 1.246 . S
C165 O162 1.259 . S
C166 O163 1.252 1_554 S
C166 O164 1.273 . S
O167 Mg154 2.010 . S
O167 C159 1.249 . S
Mg168 O169 2.028 . S
Mg168 O175 1.986 . S
Mg168 O177 2.114 . S
Mg168 O178 2.251 . S
Mg168 O181 2.010 . S
O169 Mg168 2.028 . S
O169 C172 1.250 . S
O170 Mg171 2.028 . S
O170 C172 1.248 . S
Mg171 O170 2.028 . S
Mg171 O176 2.032 . S
Mg171 O178 2.079 . S
C172 O169 1.250 . S
C172 O170 1.248 . S
C173 O174 1.264 . S
C173 O181 1.249 . S
O174 C173 1.264 . S
O175 Mg168 1.986 . S
O175 C179 1.246 . S
O176 Mg171 2.032 . S
O176 C179 1.259 . S
O177 Mg168 2.114 . S
O177 C180 1.252 . S
O178 Mg168 2.251 . S
O178 Mg171 2.079 . S
O178 C180 1.273 . S
C179 O175 1.246 . S
C179 O176 1.259 . S
C180 O177 1.252 . S
C180 O178 1.273 . S
O181 Mg168 2.010 . S
O181 C173 1.249 . S
Mg182 O183 2.028 . S
Mg182 O189 1.986 . S
Mg182 O191 2.114 . S
Mg182 O192 2.251 . S
Mg182 O195 2.010 . S
O183 Mg182 2.028 . S
O183 C186 1.250 . S
O184 Mg185 2.028 . S
O184 C186 1.248 . S
Mg185 O184 2.028 . S
Mg185 O190 2.032 . S
Mg185 O192 2.079 . S
C186 O183 1.250 . S
C186 O184 1.248 . S
C187 O188 1.264 . S
C187 O195 1.249 . S
O188 C187 1.264 . S
O189 Mg182 1.986 . S
O189 C193 1.246 . S
O190 Mg185 2.032 . S
O190 C193 1.259 . S
O191 Mg182 2.114 . S
O191 C194 1.252 . S
O192 Mg182 2.251 . S
O192 Mg185 2.079 . S
O192 C194 1.273 . S
C193 O189 1.246 . S
C193 O190 1.259 . S
C194 O191 1.252 . S
C194 O192 1.273 . S
O195 Mg182 2.010 . S
O195 C187 1.249 . S
Mg196 O197 2.028 . S
Mg196 O203 1.986 . S
Mg196 O205 2.114 . S
Mg196 O206 2.251 . S
Mg196 O209 2.010 . S
O197 Mg196 2.028 . S
O197 C200 1.250 . S
O198 Mg199 2.028 . S
O198 C200 1.248 . S
Mg199 O198 2.028 . S
Mg199 O204 2.032 . S
Mg199 O206 2.079 . S
C200 O197 1.250 . S
C200 O198 1.248 . S
C201 O202 1.264 . S
C201 O209 1.249 . S
O202 C201 1.264 . S
O203 Mg196 1.986 . S
O203 C207 1.246 . S
O204 Mg199 2.032 . S
O204 C207 1.259 . S
O205 Mg196 2.114 . S
O205 C208 1.252 . S
O206 Mg196 2.251 . S
O206 Mg199 2.079 . S
O206 C208 1.273 . S
C207 O203 1.246 . S
C207 O204 1.259 . S
C208 O205 1.252 . S
C208 O206 1.273 . S
O209 Mg196 2.010 . S
O209 C201 1.249 . S
Mg210 O211 2.028 . S
Mg210 O217 1.986 . S
Mg210 O219 2.114 . S
Mg210 O220 2.251 . S
Mg210 O223 2.010 . S
O211 Mg210 2.028 . S
O211 C214 1.250 . S
O212 Mg213 2.028 . S
O212 C214 1.248 . S
Mg213 O212 2.028 . S
Mg213 O218 2.032 . S
Mg213 O220 2.079 . S
C214 O211 1.250 . S
C214 O212 1.248 . S
C215 O216 1.264 . S
C215 O223 1.249 . S
O216 C215 1.264 . S
O217 Mg210 1.986 . S
O217 C221 1.246 . S
O218 Mg213 2.032 . S
O218 C221 1.259 . S
O219 Mg210 2.114 . S
O219 C222 1.252 . S
O220 Mg210 2.251 . S
O220 Mg213 2.079 . S
O220 C222 1.273 . S
C221 O217 1.246 . S
C221 O218 1.259 . S
C222 O219 1.252 . S
C222 O220 1.273 . S
O223 Mg210 2.010 . S
O223 C215 1.249 . S
Mg224 O225 2.028 1_545 S
Mg224 O231 1.986 . S
Mg224 O233 2.114 . S
Mg224 O234 2.251 . S
Mg224 O237 2.010 . S
O225 Mg224 2.028 1_565 S
O225 C228 1.250 . S
O226 Mg227 2.028 1_565 S
O226 C228 1.248 . S
Mg227 O226 2.028 1_545 S
Mg227 O232 2.032 . S
Mg227 O234 2.079 . S
C228 O225 1.250 . S
C228 O226 1.248 . S
C229 O230 1.264 . S
C229 O237 1.249 . S
O230 C229 1.264 . S
O231 Mg224 1.986 . S
O231 C235 1.246 . S
O232 Mg227 2.032 . S
O232 C235 1.259 . S
O233 Mg224 2.114 . S
O233 C236 1.252 . S
O234 Mg224 2.251 . S
O234 Mg227 2.079 . S
O234 C236 1.273 . S
C235 O231 1.246 . S
C235 O232 1.259 . S
C236 O233 1.252 . S
C236 O234 1.273 . S
O237 Mg224 2.010 . S
O237 C229 1.249 . S
Mg238 O239 2.028 . S
Mg238 O245 1.986 . S
Mg238 O247 2.114 . S
Mg238 O248 2.251 . S
Mg238 O251 2.010 . S
O239 Mg238 2.028 . S
O239 C242 1.250 . S
O240 Mg241 2.028 . S
O240 C242 1.248 . S
Mg241 O240 2.028 . S
Mg241 O246 2.032 . S
Mg241 O248 2.079 . S
C242 O239 1.250 . S
C242 O240 1.248 . S
C243 O244 1.264 . S
C243 O251 1.249 . S
O244 C243 1.264 . S
O245 Mg238 1.986 . S
O245 C249 1.246 . S
O246 Mg241 2.032 . S
O246 C249 1.259 . S
O247 Mg238 2.114 . S
O247 C250 1.252 . S
O248 Mg238 2.251 . S
O248 Mg241 2.079 . S
O248 C250 1.273 . S
C249 O245 1.246 . S
C249 O246 1.259 . S
C250 O247 1.252 . S
C250 O248 1.273 . S
O251 Mg238 2.010 . S
O251 C243 1.249 . S
Mg252 O253 2.028 . S
Mg252 O259 1.986 . S
Mg252 O261 2.114 . S
Mg252 O262 2.251 . S
Mg252 O265 2.010 . S
O253 Mg252 2.028 . S
O253 C256 1.250 . S
O254 Mg255 2.028 . S
O254 C256 1.248 . S
Mg255 O254 2.028 . S
Mg255 O260 2.032 . S
Mg255 O262 2.079 . S
C256 O253 1.250 . S
C256 O254 1.248 . S
C257 O258 1.264 . S
C257 O265 1.249 . S
O258 C257 1.264 . S
O259 Mg252 1.986 . S
O259 C263 1.246 . S
O260 Mg255 2.032 . S
O260 C263 1.259 . S
O261 Mg252 2.114 . S
O261 C264 1.252 . S
O262 Mg252 2.251 . S
O262 Mg255 2.079 . S
O262 C264 1.273 . S
C263 O259 1.246 . S
C263 O260 1.259 . S
C264 O261 1.252 . S
C264 O262 1.273 . S
O265 Mg252 2.010 . S
O265 C257 1.249 . S
Mg266 O267 2.028 . S
Mg266 O273 1.986 . S
Mg266 O275 2.114 . S
Mg266 O276 2.251 . S
Mg266 O279 2.010 . S
O267 Mg266 2.028 . S
O267 C270 1.250 . S
O268 Mg269 2.028 . S
O268 C270 1.248 . S
Mg269 O268 2.028 . S
Mg269 O274 2.032 . S
Mg269 O276 2.079 . S
C270 O267 1.250 . S
C270 O268 1.248 . S
C271 O272 1.264 . S
C271 O279 1.249 . S
O272 C271 1.264 . S
O273 Mg266 1.986 . S
O273 C277 1.246 . S
O274 Mg269 2.032 . S
O274 C277 1.259 . S
O275 Mg266 2.114 . S
O275 C278 1.252 . S
O276 Mg266 2.251 . S
O276 Mg269 2.079 . S
O276 C278 1.273 . S
C277 O273 1.246 . S
C277 O274 1.259 . S
C278 O275 1.252 . S
C278 O276 1.273 . S
O279 Mg266 2.010 . S
O279 C271 1.249 . S
Mg280 O281 2.028 . S
Mg280 O287 1.986 1_554 S
Mg280 O289 2.114 . S
Mg280 O290 2.251 . S
Mg280 O293 2.010 1_554 S
O281 Mg280 2.028 . S
O281 C284 1.250 . S
O282 Mg283 2.028 . S
O282 C284 1.248 . S
Mg283 O282 2.028 . S
Mg283 O288 2.032 1_554 S
Mg283 O290 2.079 . S
C284 O281 1.250 . S
C284 O282 1.248 . S
C285 O286 1.278 . S
C285 O293 1.257 . S
O286 C285 1.278 . S
O287 Mg280 1.986 1_556 S
O287 C291 1.246 . S
O288 Mg283 2.032 1_556 S
O288 C291 1.259 . S
O289 Mg280 2.114 . S
O289 C292 1.252 . S
O290 Mg280 2.251 . S
O290 Mg283 2.079 . S
O290 C292 1.273 . S
C291 O287 1.246 . S
C291 O288 1.259 . S
C292 O289 1.252 . S
C292 O290 1.273 . S
O293 Mg280 2.010 1_556 S
O293 C285 1.257 . S
Mg294 O295 2.028 . S
Mg294 O301 1.986 . S
Mg294 O303 2.114 . S
Mg294 O304 2.251 . S
Mg294 O307 2.010 . S
O295 Mg294 2.028 . S
O295 C298 1.250 . S
O296 Mg297 2.028 . S
O296 C298 1.248 . S
Mg297 O296 2.028 . S
Mg297 O302 2.032 . S
Mg297 O304 2.079 . S
C298 O295 1.250 . S
C298 O296 1.248 . S
C299 O300 1.264 . S
C299 O307 1.249 . S
O300 C299 1.264 . S
O301 Mg294 1.986 . S
O301 C305 1.246 . S
O302 Mg297 2.032 . S
O302 C305 1.259 . S
O303 Mg294 2.114 . S
O303 C306 1.252 . S
O304 Mg294 2.251 . S
O304 Mg297 2.079 . S
O304 C306 1.273 . S
C305 O301 1.246 . S
C305 O302 1.259 . S
C306 O303 1.252 . S
C306 O304 1.273 . S
O307 Mg294 2.010 . S
O307 C299 1.249 . S
Mg308 O309 2.028 . S
Mg308 O315 1.986 . S
Mg308 O317 2.114 . S
Mg308 O318 2.251 . S
Mg308 O321 2.010 . S
O309 Mg308 2.028 . S
O309 C312 1.250 . S
O310 Mg311 2.028 . S
O310 C312 1.248 . S
Mg311 O310 2.028 . S
Mg311 O316 2.032 . S
Mg311 O318 2.079 . S
C312 O309 1.250 . S
C312 O310 1.248 . S
C313 O314 1.264 . S
C313 O321 1.249 . S
O314 C313 1.264 . S
O315 Mg308 1.986 . S
O315 C319 1.246 . S
O316 Mg311 2.032 . S
O316 C319 1.259 . S
O317 Mg308 2.114 . S
O317 C320 1.252 . S
O318 Mg308 2.251 . S
O318 Mg311 2.079 . S
O318 C320 1.273 . S
C319 O315 1.246 . S
C319 O316 1.259 . S
C320 O317 1.252 . S
C320 O318 1.273 . S
O321 Mg308 2.010 . S
O321 C313 1.249 . S
Mg322 O323 2.028 . S
Mg322 O329 1.986 . S
Mg322 O331 2.114 . S
Mg322 O332 2.251 . S
Mg322 O335 2.010 . S
O323 Mg322 2.028 . S
O323 C326 1.250 . S
O324 Mg325 2.028 . S
O324 C326 1.248 . S
Mg325 O324 2.028 . S
Mg325 O330 2.032 . S
Mg325 O332 2.079 . S
C326 O323 1.250 . S
C326 O324 1.248 . S
C327 O328 1.264 . S
C327 O335 1.249 . S
O328 C327 1.264 . S
O329 Mg322 1.986 . S
O329 C333 1.246 . S
O330 Mg325 2.032 . S
O330 C333 1.259 . S
O331 Mg322 2.114 . S
O331 C334 1.252 . S
O332 Mg322 2.251 . S
O332 Mg325 2.079 . S
O332 C334 1.273 . S
C333 O329 1.246 . S
C333 O330 1.259 . S
C334 O331 1.252 . S
C334 O332 1.273 . S
O335 Mg322 2.010 . S
O335 C327 1.249 . S
Eu336 N365 2.600 . S
Eu336 N371 2.562 . S
Eu336 O380 2.462 . S
Eu336 O381 2.373 . S
Eu336 O383 2.432 . S
Eu336 O384 2.297 . S
Eu336 O388 2.335 . S
Eu336 O391 2.372 . S
Eu336 C400 2.787 . S
C337 N338 1.365 . S
C337 C340 1.405 . S
C337 C344 1.448 . S
N338 C337 1.365 . S
N338 C341 1.319 . S
N338 Eu347 2.600 1_566 S
C339 C341 1.397 . S
C339 C342 1.367 . S
C339 H359 0.931 . S
C340 C337 1.405 . S
C340 C342 1.403 . S
C340 C346 1.439 . S
C341 N338 1.319 . S
C341 C339 1.397 . S
C341 H352 0.930 . S
C342 C339 1.367 . S
C342 C340 1.403 . S
C342 H363 0.929 . S
C343 C344 1.430 1_554 S
C343 C345 1.387 1_554 S
C343 C349 1.404 . S
C344 C337 1.448 . S
C344 C343 1.430 1_556 S
C344 N348 1.351 1_556 S
C345 C343 1.387 1_556 S
C345 C346 1.374 . S
C345 H360 0.931 . S
C346 C340 1.439 . S
C346 C345 1.374 . S
C346 H361 0.931 . S
Eu347 N338 2.600 1_544 S
Eu347 N348 2.562 1_545 S
Eu347 O382 2.335 1_655 S
Eu347 O385 2.372 1_654 S
Eu347 O386 2.462 . S
Eu347 O387 2.373 1_645 S
Eu347 O389 2.432 1_554 S
Eu347 O390 2.291 1_655 S
Eu347 C411 2.787 1_554 S
N348 C344 1.351 1_554 S
N348 Eu347 2.562 1_565 S
N348 C350 1.325 . S
C349 C343 1.404 . S
C349 C351 1.366 . S
C349 H357 0.930 . S
C350 N348 1.325 . S
C350 C351 1.416 . S
C350 H356 0.929 . S
C351 C349 1.366 . S
C351 C350 1.416 . S
C351 H353 0.930 . S
H352 C341 0.930 . S
H353 C351 0.930 . S
H354 C369 0.930 . S
H355 C376 0.930 1_556 S
H356 C350 0.929 . S
H357 C349 0.930 . S
H358 C372 0.929 1_556 S
H359 C339 0.931 . S
H360 C345 0.931 . S
H361 C346 0.931 . S
H362 C367 0.931 . S
H363 C342 0.929 . S
H364 C375 0.930 . S
N365 Eu336 2.600 . S
N365 C366 1.365 . S
N365 C369 1.319 . S
C366 N365 1.365 . S
C366 C368 1.405 . S
C366 C374 1.448 . S
C367 H362 0.931 . S
C367 C369 1.397 . S
C367 C370 1.367 . S
C368 C366 1.405 . S
C368 C370 1.403 . S
C368 C401 1.439 . S
C369 H354 0.930 . S
C369 N365 1.319 . S
C369 C367 1.397 . S
C370 C367 1.367 . S
C370 C368 1.403 . S
C370 H377 0.929 . S
N371 Eu336 2.562 . S
N371 C372 1.325 . S
N371 C374 1.351 . S
C372 H358 0.929 1_554 S
C372 N371 1.325 . S
C372 C376 1.416 . S
C373 C374 1.430 . S
C373 C375 1.404 . S
C373 C402 1.387 . S
C374 C366 1.448 . S
C374 N371 1.351 . S
C374 C373 1.430 . S
C375 H364 0.930 . S
C375 C373 1.404 . S
C375 C376 1.366 . S
C376 H355 0.930 1_554 S
C376 C372 1.416 . S
C376 C375 1.366 . S
H377 C370 0.929 . S
H378 C401 0.931 . S
H379 C402 0.931 . S
O380 Eu336 2.462 . S
O380 C400 1.252 . S
O381 Eu336 2.373 . S
O381 C392 1.249 . S
O382 Eu347 2.335 1_455 S
O382 C392 1.264 . S
O383 Eu336 2.432 . S
O383 C400 1.268 . S
O384 Eu336 2.297 . S
O384 C399 1.250 1_554 S
O385 Eu347 2.372 1_456 S
O385 C399 1.257 . S
O386 Eu347 2.462 . S
O386 C411 1.252 1_554 S
O387 Eu347 2.373 1_465 S
O387 C403 1.249 . S
O388 Eu336 2.335 . S
O388 C403 1.264 1_545 S
O389 Eu347 2.432 1_556 S
O389 C411 1.268 . S
O390 Eu347 2.291 1_455 S
O390 C410 1.255 . S
O391 Eu336 2.372 . S
O391 C410 1.257 . S
C392 O381 1.249 . S
C392 O382 1.264 . S
C393 C396 1.382 . S
C393 C398 1.390 . S
C393 C400 1.506 . S
C394 C395 1.398 . S
C394 C398 1.392 . S
C395 C394 1.398 . S
C395 C397 1.372 . S
C395 H412 0.931 . S
C396 C393 1.382 . S
C396 C397 1.390 . S
C396 H413 0.931 . S
C397 C395 1.372 . S
C397 C396 1.390 . S
C397 H414 0.929 . S
C398 C393 1.390 . S
C398 C394 1.392 . S
C398 H415 0.930 . S
C399 O384 1.250 1_556 S
C399 O385 1.257 . S
C400 Eu336 2.787 . S
C400 O380 1.252 . S
C400 O383 1.268 . S
C400 C393 1.506 . S
C401 C368 1.439 . S
C401 H378 0.931 . S
C401 C402 1.374 . S
C402 C373 1.387 . S
C402 H379 0.931 . S
C402 C401 1.374 . S
C403 O387 1.249 . S
C403 O388 1.264 1_565 S
C404 C407 1.382 . S
C404 C408 1.390 1_556 S
C404 C411 1.506 . S
C405 C406 1.398 1_554 S
C405 C408 1.392 . S
C406 C405 1.398 1_556 S
C406 C409 1.372 . S
C406 H416 0.931 . S
C407 C404 1.382 . S
C407 C409 1.390 . S
C407 H417 0.931 . S
C408 C404 1.390 1_554 S
C408 C405 1.392 . S
C408 H418 0.930 . S
C409 C406 1.372 . S
C409 C407 1.390 . S
C409 H419 0.929 . S
C410 O390 1.255 . S
C410 O391 1.257 . S
C411 Eu347 2.787 1_556 S
C411 O386 1.252 1_556 S
C411 O389 1.268 . S
C411 C404 1.506 . S
H412 C395 0.931 . S
H413 C396 0.931 . S
H414 C397 0.929 . S
H415 C398 0.930 . S
H416 C406 0.931 . S
H417 C407 0.931 . S
H418 C408 0.930 . S
H419 C409 0.929 . S
Eu420 N449 2.600 . S
Eu420 N455 2.562 . S
Eu420 O464 2.462 . S
Eu420 O465 2.373 . S
Eu420 O467 2.432 . S
Eu420 O468 2.291 . S
Eu420 O472 2.335 . S
Eu420 O475 2.372 . S
Eu420 C484 2.787 . S
C421 N422 1.365 . S
C421 C424 1.405 . S
C421 C428 1.448 . S
N422 C421 1.365 . S
N422 C425 1.319 . S
N422 Eu431 2.600 . S
C423 C425 1.397 . S
C423 C426 1.367 . S
C423 H443 0.931 . S
C424 C421 1.405 . S
C424 C426 1.403 . S
C424 C430 1.439 . S
C425 N422 1.319 . S
C425 C423 1.397 . S
C425 H436 0.930 . S
C426 C423 1.367 . S
C426 C424 1.403 . S
C426 H447 0.929 . S
C427 C428 1.430 . S
C427 C429 1.387 . S
C427 C433 1.404 . S
C428 C421 1.448 . S
C428 C427 1.430 . S
C428 N432 1.351 . S
C429 C427 1.387 . S
C429 C430 1.374 . S
C429 H444 0.931 . S
C430 C424 1.439 . S
C430 C429 1.374 . S
C430 H445 0.931 . S
Eu431 N422 2.600 . S
Eu431 N432 2.562 . S
Eu431 O466 2.335 . S
Eu431 O469 2.372 . S
Eu431 O470 2.462 . S
Eu431 O471 2.373 . S
Eu431 O473 2.432 . S
Eu431 O474 2.291 . S
Eu431 C495 2.787 . S
N432 C428 1.351 . S
N432 Eu431 2.562 . S
N432 C434 1.325 . S
C433 C427 1.404 . S
C433 C435 1.366 . S
C433 H441 0.930 . S
C434 N432 1.325 . S
C434 C435 1.416 . S
C434 H440 0.929 . S
C435 C433 1.366 . S
C435 C434 1.416 . S
C435 H437 0.930 . S
H436 C425 0.930 . S
H437 C435 0.930 . S
H438 C453 0.930 . S
H439 C460 0.930 . S
H440 C434 0.929 . S
H441 C433 0.930 . S
H442 C456 0.929 . S
H443 C423 0.931 . S
H444 C429 0.931 . S
H445 C430 0.931 . S
H446 C451 0.931 . S
H447 C426 0.929 . S
H448 C459 0.930 . S
N449 Eu420 2.600 . S
N449 C450 1.365 . S
N449 C453 1.319 . S
C450 N449 1.365 . S
C450 C452 1.405 . S
C450 C458 1.448 . S
C451 H446 0.931 . S
C451 C453 1.397 . S
C451 C454 1.367 . S
C452 C450 1.405 . S
C452 C454 1.403 . S
C452 C485 1.439 . S
C453 H438 0.930 . S
C453 N449 1.319 . S
C453 C451 1.397 . S
C454 C451 1.367 . S
C454 C452 1.403 . S
C454 H461 0.929 . S
N455 Eu420 2.562 . S
N455 C456 1.325 . S
N455 C458 1.351 . S
C456 H442 0.929 . S
C456 N455 1.325 . S
C456 C460 1.416 . S
C457 C458 1.430 . S
C457 C459 1.404 . S
C457 C486 1.387 . S
C458 C450 1.448 . S
C458 N455 1.351 . S
C458 C457 1.430 . S
C459 H448 0.930 . S
C459 C457 1.404 . S
C459 C460 1.366 . S
C460 H439 0.930 . S
C460 C456 1.416 . S
C460 C459 1.366 . S
H461 C454 0.929 . S
H462 C485 0.931 . S
H463 C486 0.931 . S
O464 Eu420 2.462 . S
O464 C484 1.252 . S
O465 Eu420 2.373 . S
O465 C476 1.249 . S
O466 Eu431 2.335 . S
O466 C476 1.264 . S
O467 Eu420 2.432 . S
O467 C484 1.268 . S
O468 Eu420 2.291 . S
O468 C483 1.255 . S
O469 Eu431 2.372 . S
O469 C483 1.257 . S
O470 Eu431 2.462 . S
O470 C495 1.252 . S
O471 Eu431 2.373 . S
O471 C487 1.249 . S
O472 Eu420 2.335 . S
O472 C487 1.264 . S
O473 Eu431 2.432 . S
O473 C495 1.268 . S
O474 Eu431 2.291 . S
O474 C494 1.255 . S
O475 Eu420 2.372 . S
O475 C494 1.257 . S
C476 O465 1.249 . S
C476 O466 1.264 . S
C477 C480 1.382 . S
C477 C482 1.390 . S
C477 C484 1.506 . S
C478 C479 1.398 . S
C478 C482 1.392 . S
C479 C478 1.398 . S
C479 C481 1.372 . S
C479 H496 0.931 . S
C480 C477 1.382 . S
C480 C481 1.390 . S
C480 H497 0.931 . S
C481 C479 1.372 . S
C481 C480 1.390 . S
C481 H498 0.929 . S
C482 C477 1.390 . S
C482 C478 1.392 . S
C482 H499 0.930 . S
C483 O468 1.255 . S
C483 O469 1.257 . S
C484 Eu420 2.787 . S
C484 O464 1.252 . S
C484 O467 1.268 . S
C484 C477 1.506 . S
C485 C452 1.439 . S
C485 H462 0.931 . S
C485 C486 1.374 . S
C486 C457 1.387 . S
C486 H463 0.931 . S
C486 C485 1.374 . S
C487 O471 1.249 . S
C487 O472 1.264 . S
C488 C491 1.382 . S
C488 C492 1.390 . S
C488 C495 1.506 . S
C489 C490 1.398 . S
C489 C492 1.392 . S
C490 C489 1.398 . S
C490 C493 1.372 . S
C490 H500 0.931 . S
C491 C488 1.382 . S
C491 C493 1.390 . S
C491 H501 0.931 . S
C492 C488 1.390 . S
C492 C489 1.392 . S
C492 H502 0.930 . S
C493 C490 1.372 . S
C493 C491 1.390 . S
C493 H503 0.929 . S
C494 O474 1.255 . S
C494 O475 1.257 . S
C495 Eu431 2.787 . S
C495 O470 1.252 . S
C495 O473 1.268 . S
C495 C488 1.506 . S
H496 C479 0.931 . S
H497 C480 0.931 . S
H498 C481 0.929 . S
H499 C482 0.930 . S
H500 C490 0.931 . S
H501 C491 0.931 . S
H502 C492 0.930 . S
H503 C493 0.929 . S
Eu504 N533 2.600 . S
Eu504 N539 2.562 1_545 S
Eu504 O548 2.462 . S
Eu504 O549 2.373 1_545 S
Eu504 O551 2.432 . S
Eu504 O552 2.291 . S
Eu504 O556 2.335 . S
Eu504 O559 2.372 . S
Eu504 C568 2.787 . S
C505 N506 1.365 . S
C505 C508 1.405 . S
C505 C512 1.448 . S
N506 C505 1.365 . S
N506 C509 1.319 . S
N506 Eu515 2.600 . S
C507 C509 1.397 . S
C507 C510 1.367 . S
C507 H527 0.931 . S
C508 C505 1.405 . S
C508 C510 1.403 . S
C508 C514 1.439 . S
C509 N506 1.319 . S
C509 C507 1.397 . S
C509 H520 0.930 . S
C510 C507 1.367 . S
C510 C508 1.403 . S
C510 H531 0.929 . S
C511 C512 1.430 . S
C511 C513 1.387 . S
C511 C517 1.404 . S
C512 C505 1.448 . S
C512 C511 1.430 . S
C512 N516 1.351 . S
C513 C511 1.387 . S
C513 C514 1.374 . S
C513 H528 0.931 . S
C514 C508 1.439 . S
C514 C513 1.374 . S
C514 H529 0.931 . S
Eu515 N506 2.600 . S
Eu515 N516 2.562 . S
Eu515 O550 2.335 1_545 S
Eu515 O553 2.372 . S
Eu515 O554 2.462 . S
Eu515 O555 2.373 . S
Eu515 O557 2.432 . S
Eu515 O558 2.291 . S
Eu515 C579 2.787 . S
N516 C512 1.351 . S
N516 Eu515 2.562 . S
N516 C518 1.325 . S
C517 C511 1.404 . S
C517 C519 1.366 . S
C517 H525 0.930 . S
C518 N516 1.325 . S
C518 C519 1.416 . S
C518 H524 0.929 . S
C519 C517 1.366 . S
C519 C518 1.416 . S
C519 H521 0.930 . S
H520 C509 0.930 . S
H521 C519 0.930 . S
H522 C537 0.930 . S
H523 C544 0.930 . S
H524 C518 0.929 . S
H525 C517 0.930 . S
H526 C540 0.929 . S
H527 C507 0.931 . S
H528 C513 0.931 . S
H529 C514 0.931 . S
H530 C535 0.931 . S
H531 C510 0.929 . S
H532 C543 0.930 . S
N533 Eu504 2.600 . S
N533 C534 1.365 1_545 S
N533 C537 1.319 . S
C534 N533 1.365 1_565 S
C534 C536 1.405 . S
C534 C542 1.448 . S
C535 H530 0.931 . S
C535 C537 1.397 1_565 S
C535 C538 1.367 . S
C536 C534 1.405 . S
C536 C538 1.403 . S
C536 C569 1.439 . S
C537 H522 0.930 . S
C537 N533 1.319 . S
C537 C535 1.397 1_545 S
C538 C535 1.367 . S
C538 C536 1.403 . S
C538 H545 0.929 . S
N539 Eu504 2.562 1_565 S
N539 C540 1.325 . S
N539 C542 1.351 . S
C540 H526 0.929 . S
C540 N539 1.325 . S
C540 C544 1.416 . S
C541 C542 1.430 . S
C541 C543 1.404 . S
C541 C570 1.387 . S
C542 C534 1.448 . S
C542 N539 1.351 . S
C542 C541 1.430 . S
C543 H532 0.930 . S
C543 C541 1.404 . S
C543 C544 1.366 . S
C544 H523 0.930 . S
C544 C540 1.416 . S
C544 C543 1.366 . S
H545 C538 0.929 . S
H546 C569 0.931 . S
H547 C570 0.931 . S
O548 Eu504 2.462 . S
O548 C568 1.252 . S
O549 Eu504 2.373 1_565 S
O549 C560 1.249 . S
O550 Eu515 2.335 1_565 S
O550 C560 1.264 . S
O551 Eu504 2.432 . S
O551 C568 1.268 . S
O552 Eu504 2.291 . S
O552 C567 1.255 . S
O553 Eu515 2.372 . S
O553 C567 1.257 . S
O554 Eu515 2.462 . S
O554 C579 1.252 . S
O555 Eu515 2.373 . S
O555 C571 1.249 . S
O556 Eu504 2.335 . S
O556 C571 1.264 . S
O557 Eu515 2.432 . S
O557 C579 1.268 . S
O558 Eu515 2.291 . S
O558 C578 1.255 . S
O559 Eu504 2.372 . S
O559 C578 1.257 . S
C560 O549 1.249 . S
C560 O550 1.264 . S
C561 C564 1.382 . S
C561 C566 1.390 . S
C561 C568 1.506 . S
C562 C563 1.398 . S
C562 C566 1.392 . S
C563 C562 1.398 . S
C563 C565 1.372 . S
C563 H580 0.931 . S
C564 C561 1.382 . S
C564 C565 1.390 . S
C564 H581 0.931 . S
C565 C563 1.372 . S
C565 C564 1.390 . S
C565 H582 0.929 . S
C566 C561 1.390 . S
C566 C562 1.392 . S
C566 H583 0.930 . S
C567 O552 1.255 . S
C567 O553 1.257 . S
C568 Eu504 2.787 . S
C568 O548 1.252 . S
C568 O551 1.268 . S
C568 C561 1.506 . S
C569 C536 1.439 . S
C569 H546 0.931 . S
C569 C570 1.374 . S
C570 C541 1.387 . S
C570 H547 0.931 . S
C570 C569 1.374 . S
C571 O555 1.249 . S
C571 O556 1.264 . S
C572 C575 1.382 . S
C572 C576 1.390 . S
C572 C579 1.506 1_565 S
C573 C574 1.398 . S
C573 C576 1.392 . S
C574 C573 1.398 . S
C574 C577 1.372 . S
C574 H584 0.931 . S
C575 C572 1.382 . S
C575 C577 1.390 . S
C575 H585 0.931 . S
C576 C572 1.390 . S
C576 C573 1.392 . S
C576 H586 0.930 . S
C577 C574 1.372 . S
C577 C575 1.390 . S
C577 H587 0.929 . S
C578 O558 1.255 . S
C578 O559 1.257 . S
C579 Eu515 2.787 . S
C579 O554 1.252 . S
C579 O557 1.268 . S
C579 C572 1.506 1_545 S
H580 C563 0.931 . S
H581 C564 0.931 . S
H582 C565 0.929 . S
H583 C566 0.930 . S
H584 C574 0.931 . S
H585 C575 0.931 . S
H586 C576 0.930 . S
H587 C577 0.929 . S
Eu588 N617 2.600 . S
Eu588 N623 2.562 . S
Eu588 O632 2.462 . S
Eu588 O633 2.373 . S
Eu588 O635 2.432 . S
Eu588 O636 2.291 . S
Eu588 O640 2.335 . S
Eu588 O643 2.372 . S
Eu588 C652 2.787 . S
C589 N590 1.365 . S
C589 C592 1.405 . S
C589 C596 1.448 . S
N590 C589 1.365 . S
N590 C593 1.319 . S
N590 Eu599 2.600 . S
C591 C593 1.397 . S
C591 C594 1.367 . S
C591 H611 0.931 . S
C592 C589 1.405 . S
C592 C594 1.403 . S
C592 C598 1.439 . S
C593 N590 1.319 . S
C593 C591 1.397 . S
C593 H604 0.930 . S
C594 C591 1.367 . S
C594 C592 1.403 . S
C594 H615 0.929 . S
C595 C596 1.430 . S
C595 C597 1.387 . S
C595 C601 1.404 . S
C596 C589 1.448 . S
C596 C595 1.430 . S
C596 N600 1.351 . S
C597 C595 1.387 . S
C597 C598 1.374 . S
C597 H612 0.931 . S
C598 C592 1.439 . S
C598 C597 1.374 . S
C598 H613 0.931 . S
Eu599 N590 2.600 . S
Eu599 N600 2.562 . S
Eu599 O634 2.335 . S
Eu599 O637 2.372 . S
Eu599 O638 2.462 . S
Eu599 O639 2.373 . S
Eu599 O641 2.432 . S
Eu599 O642 2.291 . S
Eu599 C663 2.787 . S
N600 C596 1.351 . S
N600 Eu599 2.562 . S
N600 C602 1.325 . S
C601 C595 1.404 . S
C601 C603 1.366 . S
C601 H609 0.930 . S
C602 N600 1.325 . S
C602 C603 1.416 . S
C602 H608 0.929 . S
C603 C601 1.366 . S
C603 C602 1.416 . S
C603 H605 0.930 . S
H604 C593 0.930 . S
H605 C603 0.930 . S
H606 C621 0.930 . S
H607 C628 0.930 . S
H608 C602 0.929 . S
H609 C601 0.930 . S
H610 C624 0.929 . S
H611 C591 0.931 . S
H612 C597 0.931 . S
H613 C598 0.931 . S
H614 C619 0.931 . S
H615 C594 0.929 . S
H616 C627 0.930 . S
N617 Eu588 2.600 . S
N617 C618 1.365 . S
N617 C621 1.319 . S
C618 N617 1.365 . S
C618 C620 1.405 . S
C618 C626 1.448 . S
C619 H614 0.931 . S
C619 C621 1.397 . S
C619 C622 1.367 . S
C620 C618 1.405 . S
C620 C622 1.403 . S
C620 C653 1.439 . S
C621 H606 0.930 . S
C621 N617 1.319 . S
C621 C619 1.397 . S
C622 C619 1.367 . S
C622 C620 1.403 . S
C622 H629 0.929 . S
N623 Eu588 2.562 . S
N623 C624 1.325 . S
N623 C626 1.351 . S
C624 H610 0.929 . S
C624 N623 1.325 . S
C624 C628 1.416 . S
C625 C626 1.430 . S
C625 C627 1.404 . S
C625 C654 1.387 . S
C626 C618 1.448 . S
C626 N623 1.351 . S
C626 C625 1.430 . S
C627 H616 0.930 . S
C627 C625 1.404 . S
C627 C628 1.366 . S
C628 H607 0.930 . S
C628 C624 1.416 . S
C628 C627 1.366 . S
H629 C622 0.929 . S
H630 C653 0.931 . S
H631 C654 0.931 . S
O632 Eu588 2.462 . S
O632 C652 1.252 . S
O633 Eu588 2.373 . S
O633 C644 1.249 . S
O634 Eu599 2.335 . S
O634 C644 1.264 . S
O635 Eu588 2.432 . S
O635 C652 1.268 . S
O636 Eu588 2.291 . S
O636 C651 1.255 . S
O637 Eu599 2.372 . S
O637 C651 1.257 . S
O638 Eu599 2.462 . S
O638 C663 1.252 . S
O639 Eu599 2.373 . S
O639 C655 1.249 . S
O640 Eu588 2.335 . S
O640 C655 1.264 . S
O641 Eu599 2.432 . S
O641 C663 1.268 . S
O642 Eu599 2.291 . S
O642 C662 1.255 . S
O643 Eu588 2.372 . S
O643 C662 1.257 . S
C644 O633 1.249 . S
C644 O634 1.264 . S
C645 C648 1.382 . S
C645 C650 1.390 . S
C645 C652 1.506 . S
C646 C647 1.398 . S
C646 C650 1.392 . S
C647 C646 1.398 . S
C647 C649 1.372 . S
C647 H664 0.931 . S
C648 C645 1.382 . S
C648 C649 1.390 . S
C648 H665 0.931 . S
C649 C647 1.372 . S
C649 C648 1.390 . S
C649 H666 0.929 . S
C650 C645 1.390 . S
C650 C646 1.392 . S
C650 H667 0.930 . S
C651 O636 1.255 . S
C651 O637 1.257 . S
C652 Eu588 2.787 . S
C652 O632 1.252 . S
C652 O635 1.268 . S
C652 C645 1.506 . S
C653 C620 1.439 . S
C653 H630 0.931 . S
C653 C654 1.374 . S
C654 C625 1.387 . S
C654 H631 0.931 . S
C654 C653 1.374 . S
C655 O639 1.249 . S
C655 O640 1.264 . S
C656 C659 1.382 . S
C656 C660 1.390 . S
C656 C663 1.506 . S
C657 C658 1.398 . S
C657 C660 1.392 . S
C658 C657 1.398 . S
C658 C661 1.372 . S
C658 H668 0.931 . S
C659 C656 1.382 . S
C659 C661 1.390 . S
C659 H669 0.931 . S
C660 C656 1.390 . S
C660 C657 1.392 . S
C660 H670 0.930 . S
C661 C658 1.372 . S
C661 C659 1.390 . S
C661 H671 0.929 . S
C662 O642 1.255 . S
C662 O643 1.257 . S
C663 Eu599 2.787 . S
C663 O638 1.252 . S
C663 O641 1.268 . S
C663 C656 1.506 . S
H664 C647 0.931 . S
H665 C648 0.931 . S
H666 C649 0.929 . S
H667 C650 0.930 . S
H668 C658 0.931 . S
H669 C659 0.931 . S
H670 C660 0.930 . S
H671 C661 0.929 . S
Eu672 N701 2.600 . S
Eu672 N707 2.562 . S
Eu672 O716 2.462 . S
Eu672 O717 2.373 1_565 S
Eu672 O719 2.432 . S
Eu672 O720 2.264 1_465 S
Eu672 O724 2.335 1_565 S
Eu672 O727 2.372 1_565 S
Eu672 C736 2.787 . S
C673 N674 1.358 1_455 S
C673 C676 1.384 1_455 S
C673 C680 1.477 . S
N674 C673 1.358 1_655 S
N674 C677 1.319 . S
N674 Eu683 2.600 1_655 S
C675 C677 1.397 . S
C675 C678 1.367 . S
C675 H695 0.931 . S
C676 C673 1.384 1_655 S
C676 C678 1.403 . S
C676 C682 1.439 1_655 S
C677 N674 1.319 . S
C677 C675 1.397 . S
C677 H688 0.930 . S
C678 C675 1.367 . S
C678 C676 1.403 . S
C678 H699 0.929 . S
C679 C680 1.430 . S
C679 C681 1.387 . S
C679 C685 1.404 . S
C680 C673 1.477 . S
C680 C679 1.430 . S
C680 N684 1.351 . S
C681 C679 1.387 . S
C681 C682 1.374 . S
C681 H696 0.931 . S
C682 C676 1.439 1_455 S
C682 C681 1.374 . S
C682 H697 0.931 1_455 S
Eu683 N674 2.600 1_455 S
Eu683 N684 2.562 . S
Eu683 O718 2.335 . S
Eu683 O721 2.372 1_455 S
Eu683 O722 2.462 . S
Eu683 O723 2.373 . S
Eu683 O725 2.432 1_455 S
Eu683 O726 2.291 . S
Eu683 C747 2.787 . S
N684 C680 1.351 . S
N684 Eu683 2.562 . S
N684 C686 1.325 . S
C685 C679 1.404 . S
C685 C687 1.366 . S
C685 H693 0.930 . S
C686 N684 1.325 . S
C686 C687 1.416 . S
C686 H692 0.929 . S
C687 C685 1.366 . S
C687 C686 1.416 . S
C687 H689 0.930 . S
H688 C677 0.930 . S
H689 C687 0.930 . S
H690 C705 0.930 1_545 S
H691 C712 0.930 . S
H692 C686 0.929 . S
H693 C685 0.930 . S
H694 C708 0.929 . S
H695 C675 0.931 . S
H696 C681 0.931 . S
H697 C682 0.931 1_655 S
H698 C703 0.931 . S
H699 C678 0.929 . S
H700 C711 0.930 . S
N701 Eu672 2.600 . S
N701 C702 1.365 . S
N701 C705 1.319 . S
C702 N701 1.365 . S
C702 C704 1.405 . S
C702 C710 1.448 . S
C703 H698 0.931 . S
C703 C705 1.397 . S
C703 C706 1.367 . S
C704 C702 1.405 . S
C704 C706 1.403 . S
C704 C737 1.439 . S
C705 H690 0.930 1_565 S
C705 N701 1.319 . S
C705 C703 1.397 . S
C706 C703 1.367 . S
C706 C704 1.403 . S
C706 H713 0.929 . S
N707 Eu672 2.562 . S
N707 C708 1.325 1_455 S
N707 C710 1.351 . S
C708 H694 0.929 . S
C708 N707 1.325 1_655 S
C708 C712 1.416 . S
C709 C710 1.430 . S
C709 C711 1.404 1_455 S
C709 C738 1.387 . S
C710 C702 1.448 . S
C710 N707 1.351 . S
C710 C709 1.430 . S
C711 H700 0.930 . S
C711 C709 1.404 1_655 S
C711 C712 1.366 . S
C712 H691 0.930 . S
C712 C708 1.416 . S
C712 C711 1.366 . S
H713 C706 0.929 . S
H714 C737 0.931 . S
H715 C738 0.931 . S
O716 Eu672 2.462 . S
O716 C736 1.252 . S
O717 Eu672 2.373 1_545 S
O717 C728 1.249 . S
O718 Eu683 2.335 . S
O718 C728 1.264 . S
O719 Eu672 2.432 . S
O719 C736 1.268 . S
O720 Eu672 2.264 1_645 S
O720 C735 1.280 . S
O721 Eu683 2.372 1_655 S
O721 C735 1.257 . S
O722 Eu683 2.462 . S
O722 C747 1.252 . S
O723 Eu683 2.373 . S
O723 C739 1.249 . S
O724 Eu672 2.335 1_545 S
O724 C739 1.264 . S
O725 Eu683 2.432 1_655 S
O725 C747 1.268 1_655 S
O726 Eu683 2.291 . S
O726 C746 1.255 . S
O727 Eu672 2.372 1_545 S
O727 C746 1.257 . S
C728 O717 1.249 . S
C728 O718 1.264 . S
C729 C732 1.382 . S
C729 C734 1.390 . S
C729 C736 1.506 . S
C730 C731 1.398 . S
C730 C734 1.392 . S
C731 C730 1.398 . S
C731 C733 1.372 . S
C731 H748 0.931 . S
C732 C729 1.382 . S
C732 C733 1.390 . S
C732 H749 0.931 . S
C733 C731 1.372 . S
C733 C732 1.390 . S
C733 H750 0.929 . S
C734 C729 1.390 . S
C734 C730 1.392 . S
C734 H751 0.930 . S
C735 O720 1.280 . S
C735 O721 1.257 . S
C736 Eu672 2.787 . S
C736 O716 1.252 . S
C736 O719 1.268 . S
C736 C729 1.506 . S
C737 C704 1.439 . S
C737 H714 0.931 . S
C737 C738 1.374 . S
C738 C709 1.387 . S
C738 H715 0.931 . S
C738 C737 1.374 . S
C739 O723 1.249 . S
C739 O724 1.264 . S
C740 C743 1.382 1_455 S
C740 C744 1.390 . S
C740 C747 1.506 . S
C741 C742 1.398 1_455 S
C741 C744 1.392 . S
C742 C741 1.398 1_655 S
C742 C745 1.372 . S
C742 H752 0.931 . S
C743 C740 1.382 1_655 S
C743 C745 1.390 . S
C743 H753 0.931 . S
C744 C740 1.390 . S
C744 C741 1.392 . S
C744 H754 0.930 . S
C745 C742 1.372 . S
C745 C743 1.390 . S
C745 H755 0.929 . S
C746 O726 1.255 . S
C746 O727 1.257 . S
C747 Eu683 2.787 . S
C747 O722 1.252 . S
C747 O725 1.268 1_455 S
C747 C740 1.506 . S
H748 C731 0.931 . S
H749 C732 0.931 . S
H750 C733 0.929 . S
H751 C734 0.930 . S
H752 C742 0.931 . S
H753 C743 0.931 . S
H754 C744 0.930 . S
H755 C745 0.929 . S
Eu756 N785 2.600 . S
Eu756 N791 2.562 . S
Eu756 O800 2.462 . S
Eu756 O801 2.373 . S
Eu756 O803 2.432 . S
Eu756 O804 2.291 . S
Eu756 O808 2.335 . S
Eu756 O811 2.372 . S
Eu756 C820 2.787 . S
C757 N758 1.365 . S
C757 C760 1.405 . S
C757 C764 1.448 . S
N758 C757 1.365 . S
N758 C761 1.319 . S
N758 Eu767 2.600 . S
C759 C761 1.397 . S
C759 C762 1.367 . S
C759 H779 0.931 . S
C760 C757 1.405 . S
C760 C762 1.403 . S
C760 C766 1.439 . S
C761 N758 1.319 . S
C761 C759 1.397 . S
C761 H772 0.930 . S
C762 C759 1.367 . S
C762 C760 1.403 . S
C762 H783 0.929 . S
C763 C764 1.430 . S
C763 C765 1.387 . S
C763 C769 1.404 . S
C764 C757 1.448 . S
C764 C763 1.430 . S
C764 N768 1.351 . S
C765 C763 1.387 . S
C765 C766 1.374 . S
C765 H780 0.931 . S
C766 C760 1.439 . S
C766 C765 1.374 . S
C766 H781 0.931 . S
Eu767 N758 2.600 . S
Eu767 N768 2.562 . S
Eu767 O802 2.335 . S
Eu767 O805 2.372 . S
Eu767 O806 2.462 . S
Eu767 O807 2.373 . S
Eu767 O809 2.432 . S
Eu767 O810 2.291 . S
Eu767 C831 2.787 . S
N768 C764 1.351 . S
N768 Eu767 2.562 . S
N768 C770 1.325 . S
C769 C763 1.404 . S
C769 C771 1.366 . S
C769 H777 0.930 . S
C770 N768 1.325 . S
C770 C771 1.416 . S
C770 H776 0.929 . S
C771 C769 1.366 . S
C771 C770 1.416 . S
C771 H773 0.930 . S
H772 C761 0.930 . S
H773 C771 0.930 . S
H774 C789 0.930 . S
H775 C796 0.930 . S
H776 C770 0.929 . S
H777 C769 0.930 . S
H778 C792 0.929 . S
H779 C759 0.931 . S
H780 C765 0.931 . S
H781 C766 0.931 . S
H782 C787 0.931 . S
H783 C762 0.929 . S
H784 C795 0.930 . S
N785 Eu756 2.600 . S
N785 C786 1.365 . S
N785 C789 1.319 . S
C786 N785 1.365 . S
C786 C788 1.405 . S
C786 C794 1.448 . S
C787 H782 0.931 . S
C787 C789 1.397 . S
C787 C790 1.367 . S
C788 C786 1.405 . S
C788 C790 1.403 . S
C788 C821 1.439 . S
C789 H774 0.930 . S
C789 N785 1.319 . S
C789 C787 1.397 . S
C790 C787 1.367 . S
C790 C788 1.403 . S
C790 H797 0.929 . S
N791 Eu756 2.562 . S
N791 C792 1.325 . S
N791 C794 1.351 . S
C792 H778 0.929 . S
C792 N791 1.325 . S
C792 C796 1.416 . S
C793 C794 1.430 . S
C793 C795 1.404 . S
C793 C822 1.387 . S
C794 C786 1.448 . S
C794 N791 1.351 . S
C794 C793 1.430 . S
C795 H784 0.930 . S
C795 C793 1.404 . S
C795 C796 1.366 . S
C796 H775 0.930 . S
C796 C792 1.416 . S
C796 C795 1.366 . S
H797 C790 0.929 . S
H798 C821 0.931 . S
H799 C822 0.931 . S
O800 Eu756 2.462 . S
O800 C820 1.252 . S
O801 Eu756 2.373 . S
O801 C812 1.249 . S
O802 Eu767 2.335 . S
O802 C812 1.264 . S
O803 Eu756 2.432 . S
O803 C820 1.268 . S
O804 Eu756 2.291 . S
O804 C819 1.255 . S
O805 Eu767 2.372 . S
O805 C819 1.257 . S
O806 Eu767 2.462 . S
O806 C831 1.252 . S
O807 Eu767 2.373 . S
O807 C823 1.249 . S
O808 Eu756 2.335 . S
O808 C823 1.264 . S
O809 Eu767 2.432 . S
O809 C831 1.268 . S
O810 Eu767 2.291 . S
O810 C830 1.255 . S
O811 Eu756 2.372 . S
O811 C830 1.257 . S
C812 O801 1.249 . S
C812 O802 1.264 . S
C813 C816 1.382 . S
C813 C818 1.390 . S
C813 C820 1.506 . S
C814 C815 1.398 . S
C814 C818 1.392 . S
C815 C814 1.398 . S
C815 C817 1.372 . S
C815 H832 0.931 . S
C816 C813 1.382 . S
C816 C817 1.390 . S
C816 H833 0.931 . S
C817 C815 1.372 . S
C817 C816 1.390 . S
C817 H834 0.929 . S
C818 C813 1.390 . S
C818 C814 1.392 . S
C818 H835 0.930 . S
C819 O804 1.255 . S
C819 O805 1.257 . S
C820 Eu756 2.787 . S
C820 O800 1.252 . S
C820 O803 1.268 . S
C820 C813 1.506 . S
C821 C788 1.439 . S
C821 H798 0.931 . S
C821 C822 1.374 . S
C822 C793 1.387 . S
C822 H799 0.931 . S
C822 C821 1.374 . S
C823 O807 1.249 . S
C823 O808 1.264 . S
C824 C827 1.382 . S
C824 C828 1.390 . S
C824 C831 1.506 . S
C825 C826 1.398 . S
C825 C828 1.392 . S
C826 C825 1.398 . S
C826 C829 1.372 . S
C826 H836 0.931 . S
C827 C824 1.382 . S
C827 C829 1.390 . S
C827 H837 0.931 . S
C828 C824 1.390 . S
C828 C825 1.392 . S
C828 H838 0.930 . S
C829 C826 1.372 . S
C829 C827 1.390 . S
C829 H839 0.929 . S
C830 O810 1.255 . S
C830 O811 1.257 . S
C831 Eu767 2.787 . S
C831 O806 1.252 . S
C831 O809 1.268 . S
C831 C824 1.506 . S
H832 C815 0.931 . S
H833 C816 0.931 . S
H834 C817 0.929 . S
H835 C818 0.930 . S
H836 C826 0.931 . S
H837 C827 0.931 . S
H838 C828 0.930 . S
H839 C829 0.929 . S
Eu840 N869 2.600 . S
Eu840 N875 2.562 . S
Eu840 O884 2.462 . S
Eu840 O885 2.373 1_556 S
Eu840 O887 2.432 . S
Eu840 O888 2.291 . S
Eu840 O892 2.335 1_556 S
Eu840 O895 2.372 1_556 S
Eu840 C904 2.787 . S
C841 N842 1.365 . S
C841 C844 1.405 . S
C841 C848 1.448 1_565 S
N842 C841 1.365 . S
N842 C845 1.319 . S
N842 Eu851 2.600 1_565 S
C843 C845 1.397 . S
C843 C846 1.367 . S
C843 H863 0.931 . S
C844 C841 1.405 . S
C844 C846 1.403 . S
C844 C850 1.439 . S
C845 N842 1.319 . S
C845 C843 1.397 . S
C845 H856 0.930 . S
C846 C843 1.367 . S
C846 C844 1.403 . S
C846 H867 0.929 . S
C847 C848 1.430 . S
C847 C849 1.387 . S
C847 C853 1.404 . S
C848 C841 1.448 1_545 S
C848 C847 1.430 . S
C848 N852 1.351 . S
C849 C847 1.387 . S
C849 C850 1.374 1_545 S
C849 H864 0.931 . S
C850 C844 1.439 . S
C850 C849 1.374 1_565 S
C850 H865 0.931 . S
Eu851 N842 2.600 1_545 S
Eu851 N852 2.562 . S
Eu851 O886 2.335 . S
Eu851 O889 2.372 1_545 S
Eu851 O890 2.462 . S
Eu851 O891 2.373 . S
Eu851 O893 2.432 1_545 S
Eu851 O894 2.291 . S
Eu851 C915 2.787 1_545 S
N852 C848 1.351 . S
N852 Eu851 2.562 . S
N852 C854 1.325 . S
C853 C847 1.404 . S
C853 C855 1.366 . S
C853 H861 0.930 . S
C854 N852 1.325 . S
C854 C855 1.416 . S
C854 H860 0.929 . S
C855 C853 1.366 . S
C855 C854 1.416 . S
C855 H857 0.930 . S
H856 C845 0.930 . S
H857 C855 0.930 . S
H858 C873 0.930 1_554 S
H859 C880 0.930 . S
H860 C854 0.929 . S
H861 C853 0.930 . S
H862 C876 0.929 1_565 S
H863 C843 0.931 . S
H864 C849 0.931 . S
H865 C850 0.931 . S
H866 C871 0.916 1_554 S
H867 C846 0.929 . S
H868 C879 0.930 1_565 S
N869 Eu840 2.600 . S
N869 C870 1.365 . S
N869 C873 1.319 . S
C870 N869 1.365 . S
C870 C872 1.405 . S
C870 C878 1.448 . S
C871 H866 0.916 1_556 S
C871 C873 1.397 . S
C871 C874 1.367 . S
C872 C870 1.405 . S
C872 C874 1.403 . S
C872 C905 1.439 . S
C873 H858 0.930 1_556 S
C873 N869 1.319 . S
C873 C871 1.397 . S
C874 C871 1.367 . S
C874 C872 1.403 . S
C874 H881 0.929 . S
N875 Eu840 2.562 . S
N875 C876 1.325 . S
N875 C878 1.351 . S
C876 H862 0.929 1_545 S
C876 N875 1.325 . S
C876 C880 1.416 1_545 S
C877 C878 1.430 . S
C877 C879 1.404 . S
C877 C906 1.387 . S
C878 C870 1.448 . S
C878 N875 1.351 . S
C878 C877 1.430 . S
C879 H868 0.930 1_545 S
C879 C877 1.404 . S
C879 C880 1.366 1_545 S
C880 H859 0.930 . S
C880 C876 1.416 1_565 S
C880 C879 1.366 1_565 S
H881 C874 0.929 . S
H882 C905 0.931 . S
H883 C906 0.931 . S
O884 Eu840 2.462 . S
O884 C904 1.252 . S
O885 Eu840 2.373 1_554 S
O885 C896 1.249 . S
O886 Eu851 2.335 . S
O886 C896 1.264 . S
O887 Eu840 2.432 . S
O887 C904 1.268 . S
O888 Eu840 2.291 . S
O888 C903 1.255 1_546 S
O889 Eu851 2.372 1_565 S
O889 C903 1.257 . S
O890 Eu851 2.462 . S
O890 C915 1.252 1_545 S
O891 Eu851 2.373 . S
O891 C907 1.249 . S
O892 Eu840 2.335 1_554 S
O892 C907 1.264 . S
O893 Eu851 2.432 1_565 S
O893 C915 1.268 . S
O894 Eu851 2.291 . S
O894 C914 1.255 . S
O895 Eu840 2.372 1_554 S
O895 C914 1.257 . S
C896 O885 1.249 . S
C896 O886 1.264 . S
C897 C900 1.382 . S
C897 C902 1.390 . S
C897 C904 1.506 . S
C898 C899 1.398 . S
C898 C902 1.392 . S
C899 C898 1.398 . S
C899 C901 1.372 . S
C899 H916 0.931 . S
C900 C897 1.382 . S
C900 C901 1.390 . S
C900 H917 0.931 . S
C901 C899 1.372 . S
C901 C900 1.390 . S
C901 H918 0.929 . S
C902 C897 1.390 . S
C902 C898 1.392 . S
C902 H919 0.930 . S
C903 O888 1.255 1_564 S
C903 O889 1.257 . S
C904 Eu840 2.787 . S
C904 O884 1.252 . S
C904 O887 1.268 . S
C904 C897 1.506 . S
C905 C872 1.439 . S
C905 H882 0.931 . S
C905 C906 1.374 . S
C906 C877 1.387 . S
C906 H883 0.931 . S
C906 C905 1.374 . S
C907 O891 1.249 . S
C907 O892 1.264 . S
C908 C911 1.382 . S
C908 C912 1.390 1_565 S
C908 C915 1.506 . S
C909 C910 1.398 . S
C909 C912 1.392 1_565 S
C910 C909 1.398 . S
C910 C913 1.372 . S
C910 H920 0.931 . S
C911 C908 1.382 . S
C911 C913 1.390 . S
C911 H921 0.931 . S
C912 C908 1.390 1_545 S
C912 C909 1.392 1_545 S
C912 H922 0.930 . S
C913 C910 1.372 . S
C913 C911 1.390 . S
C913 H923 0.929 . S
C914 O894 1.255 . S
C914 O895 1.257 . S
C915 Eu851 2.787 1_565 S
C915 O890 1.252 1_565 S
C915 O893 1.268 . S
C915 C908 1.506 . S
H916 C899 0.931 . S
H917 C900 0.931 . S
H918 C901 0.929 . S
H919 C902 0.930 . S
H920 C910 0.931 . S
H921 C911 0.931 . S
H922 C912 0.930 . S
H923 C913 0.929 . S
Eu924 N953 2.600 . S
Eu924 N959 2.562 . S
Eu924 O968 2.462 . S
Eu924 O969 2.373 . S
Eu924 O971 2.432 . S
Eu924 O972 2.291 . S
Eu924 O976 2.335 . S
Eu924 O979 2.372 . S
Eu924 C988 2.787 . S
C925 N926 1.365 . S
C925 C928 1.405 . S
C925 C932 1.448 . S
N926 C925 1.365 . S
N926 C929 1.319 . S
N926 Eu935 2.600 . S
C927 C929 1.397 . S
C927 C930 1.367 . S
C927 H947 0.931 . S
C928 C925 1.405 . S
C928 C930 1.403 . S
C928 C934 1.439 . S
C929 N926 1.319 . S
C929 C927 1.397 . S
C929 H940 0.930 . S
C930 C927 1.367 . S
C930 C928 1.403 . S
C930 H951 0.929 . S
C931 C932 1.430 . S
C931 C933 1.387 . S
C931 C937 1.404 . S
C932 C925 1.448 . S
C932 C931 1.430 . S
C932 N936 1.351 . S
C933 C931 1.387 . S
C933 C934 1.374 . S
C933 H948 0.931 . S
C934 C928 1.439 . S
C934 C933 1.374 . S
C934 H949 0.931 . S
Eu935 N926 2.600 . S
Eu935 N936 2.562 . S
Eu935 O970 2.335 . S
Eu935 O973 2.372 . S
Eu935 O974 2.462 . S
Eu935 O975 2.373 . S
Eu935 O977 2.432 . S
Eu935 O978 2.291 . S
Eu935 C999 2.787 . S
N936 C932 1.351 . S
N936 Eu935 2.562 . S
N936 C938 1.325 . S
C937 C931 1.404 . S
C937 C939 1.366 . S
C937 H945 0.930 . S
C938 N936 1.325 . S
C938 C939 1.416 . S
C938 H944 0.929 . S
C939 C937 1.366 . S
C939 C938 1.416 . S
C939 H941 0.930 . S
H940 C929 0.930 . S
H941 C939 0.930 . S
H942 C957 0.930 . S
H943 C964 0.930 . S
H944 C938 0.929 . S
H945 C937 0.930 . S
H946 C960 0.929 . S
H947 C927 0.931 . S
H948 C933 0.931 . S
H949 C934 0.931 . S
H950 C955 0.931 . S
H951 C930 0.929 . S
H952 C963 0.930 . S
N953 Eu924 2.600 . S
N953 C954 1.365 . S
N953 C957 1.319 . S
C954 N953 1.365 . S
C954 C956 1.405 . S
C954 C962 1.448 . S
C955 H950 0.931 . S
C955 C957 1.397 . S
C955 C958 1.367 . S
C956 C954 1.405 . S
C956 C958 1.403 . S
C956 C989 1.439 . S
C957 H942 0.930 . S
C957 N953 1.319 . S
C957 C955 1.397 . S
C958 C955 1.367 . S
C958 C956 1.403 . S
C958 H965 0.929 . S
N959 Eu924 2.562 . S
N959 C960 1.325 . S
N959 C962 1.351 . S
C960 H946 0.929 . S
C960 N959 1.325 . S
C960 C964 1.416 . S
C961 C962 1.430 . S
C961 C963 1.404 . S
C961 C990 1.387 . S
C962 C954 1.448 . S
C962 N959 1.351 . S
C962 C961 1.430 . S
C963 H952 0.930 . S
C963 C961 1.404 . S
C963 C964 1.366 . S
C964 H943 0.930 . S
C964 C960 1.416 . S
C964 C963 1.366 . S
H965 C958 0.929 . S
H966 C989 0.931 . S
H967 C990 0.931 . S
O968 Eu924 2.462 . S
O968 C988 1.252 . S
O969 Eu924 2.373 . S
O969 C980 1.249 . S
O970 Eu935 2.335 . S
O970 C980 1.264 . S
O971 Eu924 2.432 . S
O971 C988 1.268 . S
O972 Eu924 2.291 . S
O972 C987 1.255 . S
O973 Eu935 2.372 . S
O973 C987 1.257 . S
O974 Eu935 2.462 . S
O974 C999 1.252 . S
O975 Eu935 2.373 . S
O975 C991 1.249 . S
O976 Eu924 2.335 . S
O976 C991 1.264 . S
O977 Eu935 2.432 . S
O977 C999 1.268 . S
O978 Eu935 2.291 . S
O978 C998 1.255 . S
O979 Eu924 2.372 . S
O979 C998 1.257 . S
C980 O969 1.249 . S
C980 O970 1.264 . S
C981 C984 1.382 . S
C981 C986 1.390 . S
C981 C988 1.506 . S
C982 C983 1.398 . S
C982 C986 1.392 . S
C983 C982 1.398 . S
C983 C985 1.372 . S
C983 H1000 0.931 . S
C984 C981 1.382 . S
C984 C985 1.390 . S
C984 H1001 0.931 . S
C985 C983 1.372 . S
C985 C984 1.390 . S
C985 H1002 0.929 . S
C986 C981 1.390 . S
C986 C982 1.392 . S
C986 H1003 0.930 . S
C987 O972 1.255 . S
C987 O973 1.257 . S
C988 Eu924 2.787 . S
C988 O968 1.252 . S
C988 O971 1.268 . S
C988 C981 1.506 . S
C989 C956 1.439 . S
C989 H966 0.931 . S
C989 C990 1.374 . S
C990 C961 1.387 . S
C990 H967 0.931 . S
C990 C989 1.374 . S
C991 O975 1.249 . S
C991 O976 1.264 . S
C992 C995 1.382 . S
C992 C996 1.390 . S
C992 C999 1.506 . S
C993 C994 1.398 . S
C993 C996 1.392 . S
C994 C993 1.398 . S
C994 C997 1.372 . S
C994 H1004 0.931 . S
C995 C992 1.382 . S
C995 C997 1.390 . S
C995 H1005 0.931 . S
C996 C992 1.390 . S
C996 C993 1.392 . S
C996 H1006 0.930 . S
C997 C994 1.372 . S
C997 C995 1.390 . S
C997 H1007 0.929 . S
C998 O978 1.255 . S
C998 O979 1.257 . S
C999 Eu935 2.787 . S
C999 O974 1.252 . S
C999 O977 1.268 . S
C999 C992 1.506 . S
H1000 C983 0.931 . S
H1001 C984 0.931 . S
H1002 C985 0.929 . S
H1003 C986 0.930 . S
H1004 C994 0.931 . S
H1005 C995 0.931 . S
H1006 C996 0.930 . S
H1007 C997 0.929 . S
Eu1008 N1037 2.600 1_554 S
Eu1008 N1043 2.562 1_554 S
Eu1008 O1052 2.462 . S
Eu1008 O1053 2.373 1_554 S
Eu1008 O1055 2.432 . S
Eu1008 O1056 2.291 . S
Eu1008 O1060 2.335 . S
Eu1008 O1063 2.372 . S
Eu1008 C1072 2.787 . S
C1009 N1010 1.365 . S
C1009 C1012 1.405 . S
C1009 C1016 1.448 . S
N1010 C1009 1.365 . S
N1010 C1013 1.319 . S
N1010 Eu1019 2.600 . S
C1011 C1013 1.397 . S
C1011 C1014 1.367 . S
C1011 H1031 0.931 . S
C1012 C1009 1.405 . S
C1012 C1014 1.403 . S
C1012 C1018 1.439 . S
C1013 N1010 1.319 . S
C1013 C1011 1.397 . S
C1013 H1024 0.930 . S
C1014 C1011 1.367 . S
C1014 C1012 1.403 . S
C1014 H1035 0.929 . S
C1015 C1016 1.430 . S
C1015 C1017 1.387 . S
C1015 C1021 1.404 . S
C1016 C1009 1.448 . S
C1016 C1015 1.430 . S
C1016 N1020 1.351 . S
C1017 C1015 1.387 . S
C1017 C1018 1.374 . S
C1017 H1032 0.931 . S
C1018 C1012 1.439 . S
C1018 C1017 1.374 . S
C1018 H1033 0.931 . S
Eu1019 N1010 2.600 . S
Eu1019 N1020 2.562 . S
Eu1019 O1054 2.335 1_554 S
Eu1019 O1057 2.372 . S
Eu1019 O1058 2.462 . S
Eu1019 O1059 2.373 . S
Eu1019 O1061 2.432 . S
Eu1019 O1062 2.291 . S
Eu1019 C1083 2.787 . S
N1020 C1016 1.351 . S
N1020 Eu1019 2.562 . S
N1020 C1022 1.325 . S
C1021 C1015 1.404 . S
C1021 C1023 1.366 . S
C1021 H1029 0.930 . S
C1022 N1020 1.325 . S
C1022 C1023 1.416 . S
C1022 H1028 0.929 . S
C1023 C1021 1.366 . S
C1023 C1022 1.416 . S
C1023 H1025 0.930 . S
H1024 C1013 0.930 . S
H1025 C1023 0.930 . S
H1026 C1041 0.930 1_554 S
H1027 C1048 0.930 . S
H1028 C1022 0.929 . S
H1029 C1021 0.930 . S
H1030 C1044 0.929 . S
H1031 C1011 0.931 . S
H1032 C1017 0.931 . S
H1033 C1018 0.931 . S
H1034 C1039 0.931 . S
H1035 C1014 0.929 . S
H1036 C1047 0.930 . S
N1037 Eu1008 2.600 1_556 S
N1037 C1038 1.365 . S
N1037 C1041 1.319 . S
C1038 N1037 1.365 . S
C1038 C1040 1.405 . S
C1038 C1046 1.448 . S
C1039 H1034 0.931 . S
C1039 C1041 1.397 . S
C1039 C1042 1.367 . S
C1040 C1038 1.405 . S
C1040 C1042 1.403 . S
C1040 C1073 1.439 . S
C1041 H1026 0.930 1_556 S
C1041 N1037 1.319 . S
C1041 C1039 1.397 . S
C1042 C1039 1.367 . S
C1042 C1040 1.403 . S
C1042 H1049 0.929 . S
N1043 Eu1008 2.562 1_556 S
N1043 C1044 1.325 . S
N1043 C1046 1.351 . S
C1044 H1030 0.929 . S
C1044 N1043 1.325 . S
C1044 C1048 1.416 . S
C1045 C1046 1.430 . S
C1045 C1047 1.404 . S
C1045 C1074 1.387 . S
C1046 C1038 1.448 . S
C1046 N1043 1.351 . S
C1046 C1045 1.430 . S
C1047 H1036 0.930 . S
C1047 C1045 1.404 . S
C1047 C1048 1.366 . S
C1048 H1027 0.930 . S
C1048 C1044 1.416 . S
C1048 C1047 1.366 . S
H1049 C1042 0.929 . S
H1050 C1073 0.931 . S
H1051 C1074 0.931 . S
O1052 Eu1008 2.462 . S
O1052 C1072 1.252 . S
O1053 Eu1008 2.373 1_556 S
O1053 C1064 1.249 . S
O1054 Eu1019 2.335 1_556 S
O1054 C1064 1.264 . S
O1055 Eu1008 2.432 . S
O1055 C1072 1.268 . S
O1056 Eu1008 2.291 . S
O1056 C1071 1.255 . S
O1057 Eu1019 2.372 . S
O1057 C1071 1.257 . S
O1058 Eu1019 2.462 . S
O1058 C1083 1.252 . S
O1059 Eu1019 2.373 . S
O1059 C1075 1.249 . S
O1060 Eu1008 2.335 . S
O1060 C1075 1.264 . S
O1061 Eu1019 2.432 . S
O1061 C1083 1.268 . S
O1062 Eu1019 2.291 . S
O1062 C1082 1.255 . S
O1063 Eu1008 2.372 . S
O1063 C1082 1.257 . S
C1064 O1053 1.249 . S
C1064 O1054 1.264 . S
C1065 C1068 1.382 . S
C1065 C1070 1.390 . S
C1065 C1072 1.506 . S
C1066 C1067 1.398 . S
C1066 C1070 1.392 . S
C1067 C1066 1.398 . S
C1067 C1069 1.372 . S
C1067 H1084 0.931 . S
C1068 C1065 1.382 . S
C1068 C1069 1.390 . S
C1068 H1085 0.931 . S
C1069 C1067 1.372 . S
C1069 C1068 1.390 . S
C1069 H1086 0.929 . S
C1070 C1065 1.390 . S
C1070 C1066 1.392 . S
C1070 H1087 0.930 . S
C1071 O1056 1.255 . S
C1071 O1057 1.257 . S
C1072 Eu1008 2.787 . S
C1072 O1052 1.252 . S
C1072 O1055 1.268 . S
C1072 C1065 1.506 . S
C1073 C1040 1.439 . S
C1073 H1050 0.931 . S
C1073 C1074 1.374 . S
C1074 C1045 1.387 . S
C1074 H1051 0.931 . S
C1074 C1073 1.374 . S
C1075 O1059 1.249 . S
C1075 O1060 1.264 . S
C1076 C1079 1.382 . S
C1076 C1080 1.390 . S
C1076 C1083 1.506 1_556 S
C1077 C1078 1.398 . S
C1077 C1080 1.392 . S
C1078 C1077 1.398 . S
C1078 C1081 1.372 . S
C1078 H1088 0.931 . S
C1079 C1076 1.382 . S
C1079 C1081 1.390 . S
C1079 H1089 0.931 . S
C1080 C1076 1.390 . S
C1080 C1077 1.392 . S
C1080 H1090 0.930 . S
C1081 C1078 1.372 . S
C1081 C1079 1.390 . S
C1081 H1091 0.929 . S
C1082 O1062 1.255 . S
C1082 O1063 1.257 . S
C1083 Eu1019 2.787 . S
C1083 O1058 1.252 . S
C1083 O1061 1.268 . S
C1083 C1076 1.506 1_554 S
H1084 C1067 0.931 . S
H1085 C1068 0.931 . S
H1086 C1069 0.929 . S
H1087 C1070 0.930 . S
H1088 C1078 0.931 . S
H1089 C1079 0.931 . S
H1090 C1080 0.930 . S
H1091 C1081 0.929 . S
Eu1092 N1121 2.600 . S
Eu1092 N1127 2.562 . S
Eu1092 O1136 2.462 . S
Eu1092 O1137 2.373 . S
Eu1092 O1139 2.432 . S
Eu1092 O1140 2.291 . S
Eu1092 O1144 2.335 . S
Eu1092 O1147 2.372 . S
Eu1092 C1156 2.787 . S
C1093 N1094 1.365 . S
C1093 C1096 1.405 . S
C1093 C1100 1.448 . S
N1094 C1093 1.365 . S
N1094 C1097 1.319 . S
N1094 Eu1103 2.600 . S
C1095 C1097 1.397 . S
C1095 C1098 1.367 . S
C1095 H1115 0.931 . S
C1096 C1093 1.405 . S
C1096 C1098 1.403 . S
C1096 C1102 1.439 . S
C1097 N1094 1.319 . S
C1097 C1095 1.397 . S
C1097 H1108 0.930 . S
C1098 C1095 1.367 . S
C1098 C1096 1.403 . S
C1098 H1119 0.929 . S
C1099 C1100 1.430 . S
C1099 C1101 1.387 . S
C1099 C1105 1.404 . S
C1100 C1093 1.448 . S
C1100 C1099 1.430 . S
C1100 N1104 1.351 . S
C1101 C1099 1.387 . S
C1101 C1102 1.374 . S
C1101 H1116 0.931 . S
C1102 C1096 1.439 . S
C1102 C1101 1.374 . S
C1102 H1117 0.931 . S
Eu1103 N1094 2.600 . S
Eu1103 N1104 2.562 . S
Eu1103 O1138 2.335 . S
Eu1103 O1141 2.372 . S
Eu1103 O1142 2.462 . S
Eu1103 O1143 2.373 . S
Eu1103 O1145 2.432 . S
Eu1103 O1146 2.291 . S
Eu1103 C1167 2.787 . S
N1104 C1100 1.351 . S
N1104 Eu1103 2.562 . S
N1104 C1106 1.325 . S
C1105 C1099 1.404 . S
C1105 C1107 1.366 . S
C1105 H1113 0.930 . S
C1106 N1104 1.325 . S
C1106 C1107 1.416 . S
C1106 H1112 0.929 . S
C1107 C1105 1.366 . S
C1107 C1106 1.416 . S
C1107 H1109 0.930 . S
H1108 C1097 0.930 . S
H1109 C1107 0.930 . S
H1110 C1125 0.930 . S
H1111 C1132 0.930 . S
H1112 C1106 0.929 . S
H1113 C1105 0.930 . S
H1114 C1128 0.929 . S
H1115 C1095 0.931 . S
H1116 C1101 0.931 . S
H1117 C1102 0.931 . S
H1118 C1123 0.931 . S
H1119 C1098 0.929 . S
H1120 C1131 0.930 . S
N1121 Eu1092 2.600 . S
N1121 C1122 1.365 . S
N1121 C1125 1.319 . S
C1122 N1121 1.365 . S
C1122 C1124 1.405 . S
C1122 C1130 1.448 . S
C1123 H1118 0.931 . S
C1123 C1125 1.397 . S
C1123 C1126 1.367 . S
C1124 C1122 1.405 . S
C1124 C1126 1.403 . S
C1124 C1157 1.439 . S
C1125 H1110 0.930 . S
C1125 N1121 1.319 . S
C1125 C1123 1.397 . S
C1126 C1123 1.367 . S
C1126 C1124 1.403 . S
C1126 H1133 0.929 . S
N1127 Eu1092 2.562 . S
N1127 C1128 1.325 . S
N1127 C1130 1.351 . S
C1128 H1114 0.929 . S
C1128 N1127 1.325 . S
C1128 C1132 1.416 . S
C1129 C1130 1.430 . S
C1129 C1131 1.404 . S
C1129 C1158 1.387 . S
C1130 C1122 1.448 . S
C1130 N1127 1.351 . S
C1130 C1129 1.430 . S
C1131 H1120 0.930 . S
C1131 C1129 1.404 . S
C1131 C1132 1.366 . S
C1132 H1111 0.930 . S
C1132 C1128 1.416 . S
C1132 C1131 1.366 . S
H1133 C1126 0.929 . S
H1134 C1157 0.931 . S
H1135 C1158 0.931 . S
O1136 Eu1092 2.462 . S
O1136 C1156 1.252 . S
O1137 Eu1092 2.373 . S
O1137 C1148 1.249 . S
O1138 Eu1103 2.335 . S
O1138 C1148 1.264 . S
O1139 Eu1092 2.432 . S
O1139 C1156 1.268 . S
O1140 Eu1092 2.291 . S
O1140 C1155 1.255 . S
O1141 Eu1103 2.372 . S
O1141 C1155 1.257 . S
O1142 Eu1103 2.462 . S
O1142 C1167 1.252 . S
O1143 Eu1103 2.373 . S
O1143 C1159 1.249 . S
O1144 Eu1092 2.335 . S
O1144 C1159 1.264 . S
O1145 Eu1103 2.432 . S
O1145 C1167 1.268 . S
O1146 Eu1103 2.291 . S
O1146 C1166 1.255 . S
O1147 Eu1092 2.372 . S
O1147 C1166 1.257 . S
C1148 O1137 1.249 . S
C1148 O1138 1.264 . S
C1149 C1152 1.382 . S
C1149 C1154 1.390 . S
C1149 C1156 1.506 . S
C1150 C1151 1.398 . S
C1150 C1154 1.392 . S
C1151 C1150 1.398 . S
C1151 C1153 1.372 . S
C1151 H1168 0.931 . S
C1152 C1149 1.382 . S
C1152 C1153 1.390 . S
C1152 H1169 0.931 . S
C1153 C1151 1.372 . S
C1153 C1152 1.390 . S
C1153 H1170 0.929 . S
C1154 C1149 1.390 . S
C1154 C1150 1.392 . S
C1154 H1171 0.930 . S
C1155 O1140 1.255 . S
C1155 O1141 1.257 . S
C1156 Eu1092 2.787 . S
C1156 O1136 1.252 . S
C1156 O1139 1.268 . S
C1156 C1149 1.506 . S
C1157 C1124 1.439 . S
C1157 H1134 0.931 . S
C1157 C1158 1.374 . S
C1158 C1129 1.387 . S
C1158 H1135 0.931 . S
C1158 C1157 1.374 . S
C1159 O1143 1.249 . S
C1159 O1144 1.264 . S
C1160 C1163 1.382 . S
C1160 C1164 1.390 . S
C1160 C1167 1.506 . S
C1161 C1162 1.398 . S
C1161 C1164 1.392 . S
C1162 C1161 1.398 . S
C1162 C1165 1.372 . S
C1162 H1172 0.931 . S
C1163 C1160 1.382 . S
C1163 C1165 1.390 . S
C1163 H1173 0.931 . S
C1164 C1160 1.390 . S
C1164 C1161 1.392 . S
C1164 H1174 0.930 . S
C1165 C1162 1.372 . S
C1165 C1163 1.390 . S
C1165 H1175 0.929 . S
C1166 O1146 1.255 . S
C1166 O1147 1.257 . S
C1167 Eu1103 2.787 . S
C1167 O1142 1.252 . S
C1167 O1145 1.268 . S
C1167 C1160 1.506 . S
H1168 C1151 0.931 . S
H1169 C1152 0.931 . S
H1170 C1153 0.929 . S
H1171 C1154 0.930 . S
H1172 C1162 0.931 . S
H1173 C1163 0.931 . S
H1174 C1164 0.930 . S
H1175 C1165 0.929 . S
Eu1176 N1205 2.580 1_455 S
Eu1176 N1211 2.562 1_455 S
Eu1176 O1220 2.462 . S
Eu1176 O1221 2.373 1_455 S
Eu1176 O1223 2.432 . S
Eu1176 O1224 2.291 . S
Eu1176 O1228 2.335 . S
Eu1176 O1231 2.372 . S
Eu1176 C1240 2.787 . S
C1177 N1178 1.365 . S
C1177 C1180 1.405 . S
C1177 C1184 1.448 . S
N1178 C1177 1.365 . S
N1178 C1181 1.319 . S
N1178 Eu1187 2.600 . S
C1179 C1181 1.397 . S
C1179 C1182 1.367 . S
C1179 H1199 0.931 . S
C1180 C1177 1.405 . S
C1180 C1182 1.403 . S
C1180 C1186 1.439 . S
C1181 N1178 1.319 . S
C1181 C1179 1.397 . S
C1181 H1192 0.930 . S
C1182 C1179 1.367 . S
C1182 C1180 1.403 . S
C1182 H1203 0.929 . S
C1183 C1184 1.430 . S
C1183 C1185 1.387 . S
C1183 C1189 1.404 . S
C1184 C1177 1.448 . S
C1184 C1183 1.430 . S
C1184 N1188 1.351 . S
C1185 C1183 1.387 . S
C1185 C1186 1.374 . S
C1185 H1200 0.931 . S
C1186 C1180 1.439 . S
C1186 C1185 1.374 . S
C1186 H1201 0.931 . S
Eu1187 N1178 2.600 . S
Eu1187 N1188 2.562 . S
Eu1187 O1222 2.335 1_455 S
Eu1187 O1225 2.372 . S
Eu1187 O1226 2.462 . S
Eu1187 O1227 2.373 . S
Eu1187 O1229 2.432 . S
Eu1187 O1230 2.291 . S
Eu1187 C1251 2.787 . S
N1188 C1184 1.351 . S
N1188 Eu1187 2.562 . S
N1188 C1190 1.325 . S
C1189 C1183 1.404 . S
C1189 C1191 1.366 . S
C1189 H1197 0.930 . S
C1190 N1188 1.325 . S
C1190 C1191 1.416 . S
C1190 H1196 0.929 . S
C1191 C1189 1.366 . S
C1191 C1190 1.416 . S
C1191 H1193 0.930 . S
H1192 C1181 0.930 . S
H1193 C1191 0.930 . S
H1194 C1209 0.930 . S
H1195 C1216 0.930 . S
H1196 C1190 0.929 . S
H1197 C1189 0.930 . S
H1198 C1212 0.929 1_455 S
H1199 C1179 0.931 . S
H1200 C1185 0.931 . S
H1201 C1186 0.931 . S
H1202 C1207 0.931 . S
H1203 C1182 0.929 . S
H1204 C1215 0.930 . S
N1205 Eu1176 2.580 1_655 S
N1205 C1206 1.383 . S
N1205 C1209 1.324 1_655 S
C1206 N1205 1.383 . S
C1206 C1208 1.405 . S
C1206 C1214 1.448 . S
C1207 H1202 0.931 . S
C1207 C1209 1.397 1_655 S
C1207 C1210 1.367 . S
C1208 C1206 1.405 . S
C1208 C1210 1.403 . S
C1208 C1241 1.439 . S
C1209 H1194 0.930 . S
C1209 N1205 1.324 1_455 S
C1209 C1207 1.397 1_455 S
C1210 C1207 1.367 . S
C1210 C1208 1.403 . S
C1210 H1217 0.929 . S
N1211 Eu1176 2.562 1_655 S
N1211 C1212 1.325 . S
N1211 C1214 1.351 . S
C1212 H1198 0.929 1_655 S
C1212 N1211 1.325 . S
C1212 C1216 1.416 . S
C1213 C1214 1.430 . S
C1213 C1215 1.404 . S
C1213 C1242 1.387 . S
C1214 C1206 1.448 . S
C1214 N1211 1.351 . S
C1214 C1213 1.430 . S
C1215 H1204 0.930 . S
C1215 C1213 1.404 . S
C1215 C1216 1.366 . S
C1216 H1195 0.930 . S
C1216 C1212 1.416 . S
C1216 C1215 1.366 . S
H1217 C1210 0.929 . S
H1218 C1241 0.931 . S
H1219 C1242 0.931 . S
O1220 Eu1176 2.462 . S
O1220 C1240 1.252 . S
O1221 Eu1176 2.373 1_655 S
O1221 C1232 1.249 . S
O1222 Eu1187 2.335 1_655 S
O1222 C1232 1.264 . S
O1223 Eu1176 2.432 . S
O1223 C1240 1.268 . S
O1224 Eu1176 2.291 . S
O1224 C1239 1.255 . S
O1225 Eu1187 2.372 . S
O1225 C1239 1.257 . S
O1226 Eu1187 2.462 . S
O1226 C1251 1.252 . S
O1227 Eu1187 2.373 . S
O1227 C1243 1.249 . S
O1228 Eu1176 2.335 . S
O1228 C1243 1.264 . S
O1229 Eu1187 2.432 . S
O1229 C1251 1.268 . S
O1230 Eu1187 2.291 . S
O1230 C1250 1.255 . S
O1231 Eu1176 2.372 . S
O1231 C1250 1.257 . S
C1232 O1221 1.249 . S
C1232 O1222 1.264 . S
C1233 C1236 1.382 . S
C1233 C1238 1.390 . S
C1233 C1240 1.506 . S
C1234 C1235 1.398 . S
C1234 C1238 1.392 . S
C1235 C1234 1.398 . S
C1235 C1237 1.372 . S
C1235 H1252 0.931 . S
C1236 C1233 1.382 . S
C1236 C1237 1.390 . S
C1236 H1253 0.931 . S
C1237 C1235 1.372 . S
C1237 C1236 1.390 . S
C1237 H1254 0.929 . S
C1238 C1233 1.390 . S
C1238 C1234 1.392 . S
C1238 H1255 0.930 . S
C1239 O1224 1.255 . S
C1239 O1225 1.257 . S
C1240 Eu1176 2.787 . S
C1240 O1220 1.252 . S
C1240 O1223 1.268 . S
C1240 C1233 1.506 . S
C1241 C1208 1.439 . S
C1241 H1218 0.931 . S
C1241 C1242 1.374 . S
C1242 C1213 1.387 . S
C1242 H1219 0.931 . S
C1242 C1241 1.374 . S
C1243 O1227 1.249 . S
C1243 O1228 1.264 . S
C1244 C1247 1.382 . S
C1244 C1248 1.390 . S
C1244 C1251 1.506 1_655 S
C1245 C1246 1.398 . S
C1245 C1248 1.392 . S
C1246 C1245 1.398 . S
C1246 C1249 1.372 . S
C1246 H1256 0.931 . S
C1247 C1244 1.382 . S
C1247 C1249 1.390 . S
C1247 H1257 0.931 . S
C1248 C1244 1.390 . S
C1248 C1245 1.392 . S
C1248 H1258 0.930 . S
C1249 C1246 1.372 . S
C1249 C1247 1.390 . S
C1249 H1259 0.929 . S
C1250 O1230 1.255 . S
C1250 O1231 1.257 . S
C1251 Eu1187 2.787 . S
C1251 O1226 1.252 . S
C1251 O1229 1.268 . S
C1251 C1244 1.506 1_455 S
H1252 C1235 0.931 . S
H1253 C1236 0.931 . S
H1254 C1237 0.929 . S
H1255 C1238 0.930 . S
H1256 C1246 0.931 . S
H1257 C1247 0.931 . S
H1258 C1248 0.930 . S
H1259 C1249 0.929 . S
Eu1260 N1289 2.600 . S
Eu1260 N1295 2.562 . S
Eu1260 O1304 2.462 . S
Eu1260 O1305 2.373 . S
Eu1260 O1307 2.432 . S
Eu1260 O1308 2.291 . S
Eu1260 O1312 2.335 . S
Eu1260 O1315 2.372 . S
Eu1260 C1324 2.787 . S
C1261 N1262 1.365 . S
C1261 C1264 1.405 . S
C1261 C1268 1.448 . S
N1262 C1261 1.365 . S
N1262 C1265 1.319 . S
N1262 Eu1271 2.600 . S
C1263 C1265 1.397 . S
C1263 C1266 1.367 . S
C1263 H1283 0.931 . S
C1264 C1261 1.405 . S
C1264 C1266 1.403 . S
C1264 C1270 1.439 . S
C1265 N1262 1.319 . S
C1265 C1263 1.397 . S
C1265 H1276 0.930 . S
C1266 C1263 1.367 . S
C1266 C1264 1.403 . S
C1266 H1287 0.929 . S
C1267 C1268 1.430 . S
C1267 C1269 1.387 . S
C1267 C1273 1.404 . S
C1268 C1261 1.448 . S
C1268 C1267 1.430 . S
C1268 N1272 1.351 . S
C1269 C1267 1.387 . S
C1269 C1270 1.374 . S
C1269 H1284 0.931 . S
C1270 C1264 1.439 . S
C1270 C1269 1.374 . S
C1270 H1285 0.931 . S
Eu1271 N1262 2.600 . S
Eu1271 N1272 2.562 . S
Eu1271 O1306 2.335 . S
Eu1271 O1309 2.372 . S
Eu1271 O1310 2.462 . S
Eu1271 O1311 2.373 . S
Eu1271 O1313 2.432 . S
Eu1271 O1314 2.291 . S
Eu1271 C1335 2.787 . S
N1272 C1268 1.351 . S
N1272 Eu1271 2.562 . S
N1272 C1274 1.325 . S
C1273 C1267 1.404 . S
C1273 C1275 1.366 . S
C1273 H1281 0.930 . S
C1274 N1272 1.325 . S
C1274 C1275 1.416 . S
C1274 H1280 0.929 . S
C1275 C1273 1.366 . S
C1275 C1274 1.416 . S
C1275 H1277 0.930 . S
H1276 C1265 0.930 . S
H1277 C1275 0.930 . S
H1278 C1293 0.930 . S
H1279 C1300 0.930 . S
H1280 C1274 0.929 . S
H1281 C1273 0.930 . S
H1282 C1296 0.929 . S
H1283 C1263 0.931 . S
H1284 C1269 0.931 . S
H1285 C1270 0.931 . S
H1286 C1291 0.931 . S
H1287 C1266 0.929 . S
H1288 C1299 0.930 . S
N1289 Eu1260 2.600 . S
N1289 C1290 1.365 . S
N1289 C1293 1.319 . S
C1290 N1289 1.365 . S
C1290 C1292 1.405 . S
C1290 C1298 1.448 . S
C1291 H1286 0.931 . S
C1291 C1293 1.397 . S
C1291 C1294 1.367 . S
C1292 C1290 1.405 . S
C1292 C1294 1.403 . S
C1292 C1325 1.439 . S
C1293 H1278 0.930 . S
C1293 N1289 1.319 . S
C1293 C1291 1.397 . S
C1294 C1291 1.367 . S
C1294 C1292 1.403 . S
C1294 H1301 0.929 . S
N1295 Eu1260 2.562 . S
N1295 C1296 1.325 . S
N1295 C1298 1.351 . S
C1296 H1282 0.929 . S
C1296 N1295 1.325 . S
C1296 C1300 1.416 . S
C1297 C1298 1.430 . S
C1297 C1299 1.404 . S
C1297 C1326 1.387 . S
C1298 C1290 1.448 . S
C1298 N1295 1.351 . S
C1298 C1297 1.430 . S
C1299 H1288 0.930 . S
C1299 C1297 1.404 . S
C1299 C1300 1.366 . S
C1300 H1279 0.930 . S
C1300 C1296 1.416 . S
C1300 C1299 1.366 . S
H1301 C1294 0.929 . S
H1302 C1325 0.931 . S
H1303 C1326 0.931 . S
O1304 Eu1260 2.462 . S
O1304 C1324 1.252 . S
O1305 Eu1260 2.373 . S
O1305 C1316 1.249 . S
O1306 Eu1271 2.335 . S
O1306 C1316 1.264 . S
O1307 Eu1260 2.432 . S
O1307 C1324 1.268 . S
O1308 Eu1260 2.291 . S
O1308 C1323 1.255 . S
O1309 Eu1271 2.372 . S
O1309 C1323 1.257 . S
O1310 Eu1271 2.462 . S
O1310 C1335 1.252 . S
O1311 Eu1271 2.373 . S
O1311 C1327 1.249 . S
O1312 Eu1260 2.335 . S
O1312 C1327 1.264 . S
O1313 Eu1271 2.432 . S
O1313 C1335 1.268 . S
O1314 Eu1271 2.291 . S
O1314 C1334 1.255 . S
O1315 Eu1260 2.372 . S
O1315 C1334 1.257 . S
C1316 O1305 1.249 . S
C1316 O1306 1.264 . S
C1317 C1320 1.382 . S
C1317 C1322 1.390 . S
C1317 C1324 1.506 . S
C1318 C1319 1.398 . S
C1318 C1322 1.392 . S
C1319 C1318 1.398 . S
C1319 C1321 1.372 . S
C1319 H1336 0.931 . S
C1320 C1317 1.382 . S
C1320 C1321 1.390 . S
C1320 H1337 0.931 . S
C1321 C1319 1.372 . S
C1321 C1320 1.390 . S
C1321 H1338 0.929 . S
C1322 C1317 1.390 . S
C1322 C1318 1.392 . S
C1322 H1339 0.930 . S
C1323 O1308 1.255 . S
C1323 O1309 1.257 . S
C1324 Eu1260 2.787 . S
C1324 O1304 1.252 . S
C1324 O1307 1.268 . S
C1324 C1317 1.506 . S
C1325 C1292 1.439 . S
C1325 H1302 0.931 . S
C1325 C1326 1.374 . S
C1326 C1297 1.387 . S
C1326 H1303 0.931 . S
C1326 C1325 1.374 . S
C1327 O1311 1.249 . S
C1327 O1312 1.264 . S
C1328 C1331 1.382 . S
C1328 C1332 1.390 . S
C1328 C1335 1.506 . S
C1329 C1330 1.398 . S
C1329 C1332 1.392 . S
C1330 C1329 1.398 . S
C1330 C1333 1.372 . S
C1330 H1340 0.931 . S
C1331 C1328 1.382 . S
C1331 C1333 1.390 . S
C1331 H1341 0.931 . S
C1332 C1328 1.390 . S
C1332 C1329 1.392 . S
C1332 H1342 0.930 . S
C1333 C1330 1.372 . S
C1333 C1331 1.390 . S
C1333 H1343 0.929 . S
C1334 O1314 1.255 . S
C1334 O1315 1.257 . S
C1335 Eu1271 2.787 . S
C1335 O1310 1.252 . S
C1335 O1313 1.268 . S
C1335 C1328 1.506 . S
H1336 C1319 0.931 . S
H1337 C1320 0.931 . S
H1338 C1321 0.929 . S
H1339 C1322 0.930 . S
H1340 C1330 0.931 . S
H1341 C1331 0.931 . S
H1342 C1332 0.930 . S
H1343 C1333 0.929 . S
Eu1344 N1373 2.600 . S
Eu1344 N1379 2.562 . S
Eu1344 O1388 2.462 . S
Eu1344 O1389 2.373 . S
Eu1344 O1391 2.432 . S
Eu1344 O1392 2.291 . S
Eu1344 O1396 2.335 . S
Eu1344 O1399 2.372 . S
Eu1344 C1408 2.787 . S
C1345 N1346 1.365 . S
C1345 C1348 1.405 . S
C1345 C1352 1.448 . S
N1346 C1345 1.365 . S
N1346 C1349 1.319 . S
N1346 Eu1355 2.600 . S
C1347 C1349 1.397 . S
C1347 C1350 1.367 . S
C1347 H1367 0.931 . S
C1348 C1345 1.405 . S
C1348 C1350 1.403 . S
C1348 C1354 1.439 . S
C1349 N1346 1.319 . S
C1349 C1347 1.397 . S
C1349 H1360 0.930 . S
C1350 C1347 1.367 . S
C1350 C1348 1.403 . S
C1350 H1371 0.929 . S
C1351 C1352 1.430 . S
C1351 C1353 1.387 . S
C1351 C1357 1.404 . S
C1352 C1345 1.448 . S
C1352 C1351 1.430 . S
C1352 N1356 1.351 . S
C1353 C1351 1.387 . S
C1353 C1354 1.374 . S
C1353 H1368 0.931 . S
C1354 C1348 1.439 . S
C1354 C1353 1.374 . S
C1354 H1369 0.931 . S
Eu1355 N1346 2.600 . S
Eu1355 N1356 2.562 . S
Eu1355 O1390 2.335 . S
Eu1355 O1393 2.372 . S
Eu1355 O1394 2.462 . S
Eu1355 O1395 2.373 . S
Eu1355 O1397 2.432 . S
Eu1355 O1398 2.291 . S
Eu1355 C1419 2.787 . S
N1356 C1352 1.351 . S
N1356 Eu1355 2.562 . S
N1356 C1358 1.325 . S
C1357 C1351 1.404 . S
C1357 C1359 1.366 . S
C1357 H1365 0.930 . S
C1358 N1356 1.325 . S
C1358 C1359 1.416 . S
C1358 H1364 0.929 . S
C1359 C1357 1.366 . S
C1359 C1358 1.416 . S
C1359 H1361 0.930 . S
H1360 C1349 0.930 . S
H1361 C1359 0.930 . S
H1362 C1377 0.930 . S
H1363 C1384 0.930 . S
H1364 C1358 0.929 . S
H1365 C1357 0.930 . S
H1366 C1380 0.929 . S
H1367 C1347 0.931 . S
H1368 C1353 0.931 . S
H1369 C1354 0.931 . S
H1370 C1375 0.931 . S
H1371 C1350 0.929 . S
H1372 C1383 0.930 . S
N1373 Eu1344 2.600 . S
N1373 C1374 1.365 . S
N1373 C1377 1.319 . S
C1374 N1373 1.365 . S
C1374 C1376 1.405 . S
C1374 C1382 1.448 . S
C1375 H1370 0.931 . S
C1375 C1377 1.397 . S
C1375 C1378 1.367 . S
C1376 C1374 1.405 . S
C1376 C1378 1.403 . S
C1376 C1409 1.439 . S
C1377 H1362 0.930 . S
C1377 N1373 1.319 . S
C1377 C1375 1.397 . S
C1378 C1375 1.367 . S
C1378 C1376 1.403 . S
C1378 H1385 0.929 . S
N1379 Eu1344 2.562 . S
N1379 C1380 1.325 . S
N1379 C1382 1.351 . S
C1380 H1366 0.929 . S
C1380 N1379 1.325 . S
C1380 C1384 1.416 . S
C1381 C1382 1.430 . S
C1381 C1383 1.404 . S
C1381 C1410 1.387 . S
C1382 C1374 1.448 . S
C1382 N1379 1.351 . S
C1382 C1381 1.430 . S
C1383 H1372 0.930 . S
C1383 C1381 1.404 . S
C1383 C1384 1.366 . S
C1384 H1363 0.930 . S
C1384 C1380 1.416 . S
C1384 C1383 1.366 . S
H1385 C1378 0.929 . S
H1386 C1409 0.931 . S
H1387 C1410 0.931 . S
O1388 Eu1344 2.462 . S
O1388 C1408 1.252 . S
O1389 Eu1344 2.373 . S
O1389 C1400 1.249 . S
O1390 Eu1355 2.335 . S
O1390 C1400 1.264 . S
O1391 Eu1344 2.432 . S
O1391 C1408 1.268 . S
O1392 Eu1344 2.291 . S
O1392 C1407 1.255 . S
O1393 Eu1355 2.372 . S
O1393 C1407 1.257 . S
O1394 Eu1355 2.462 . S
O1394 C1419 1.252 . S
O1395 Eu1355 2.373 . S
O1395 C1411 1.249 . S
O1396 Eu1344 2.335 . S
O1396 C1411 1.264 . S
O1397 Eu1355 2.432 . S
O1397 C1419 1.268 . S
O1398 Eu1355 2.291 . S
O1398 C1418 1.255 . S
O1399 Eu1344 2.372 . S
O1399 C1418 1.257 . S
C1400 O1389 1.249 . S
C1400 O1390 1.264 . S
C1401 C1404 1.382 . S
C1401 C1406 1.390 . S
C1401 C1408 1.506 . S
C1402 C1403 1.398 . S
C1402 C1406 1.392 . S
C1403 C1402 1.398 . S
C1403 C1405 1.372 . S
C1403 H1420 0.931 . S
C1404 C1401 1.382 . S
C1404 C1405 1.390 . S
C1404 H1421 0.931 . S
C1405 C1403 1.372 . S
C1405 C1404 1.390 . S
C1405 H1422 0.929 . S
C1406 C1401 1.390 . S
C1406 C1402 1.392 . S
C1406 H1423 0.930 . S
C1407 O1392 1.255 . S
C1407 O1393 1.257 . S
C1408 Eu1344 2.787 . S
C1408 O1388 1.252 . S
C1408 O1391 1.268 . S
C1408 C1401 1.506 . S
C1409 C1376 1.439 . S
C1409 H1386 0.931 . S
C1409 C1410 1.374 . S
C1410 C1381 1.387 . S
C1410 H1387 0.931 . S
C1410 C1409 1.374 . S
C1411 O1395 1.249 . S
C1411 O1396 1.264 . S
C1412 C1415 1.382 . S
C1412 C1416 1.390 . S
C1412 C1419 1.506 . S
C1413 C1414 1.398 . S
C1413 C1416 1.392 . S
C1414 C1413 1.398 . S
C1414 C1417 1.372 . S
C1414 H1424 0.931 . S
C1415 C1412 1.382 . S
C1415 C1417 1.390 . S
C1415 H1425 0.931 . S
C1416 C1412 1.390 . S
C1416 C1413 1.392 . S
C1416 H1426 0.930 . S
C1417 C1414 1.372 . S
C1417 C1415 1.390 . S
C1417 H1427 0.929 . S
C1418 O1398 1.255 . S
C1418 O1399 1.257 . S
C1419 Eu1355 2.787 . S
C1419 O1394 1.252 . S
C1419 O1397 1.268 . S
C1419 C1412 1.506 . S
H1420 C1403 0.931 . S
H1421 C1404 0.931 . S
H1422 C1405 0.929 . S
H1423 C1406 0.930 . S
H1424 C1414 0.931 . S
H1425 C1415 0.931 . S
H1426 C1416 0.930 . S
H1427 C1417 0.929 . S
Eu1428 N1457 2.600 . S
Eu1428 N1463 2.562 . S
Eu1428 O1472 2.462 . S
Eu1428 O1473 2.373 . S
Eu1428 O1475 2.432 . S
Eu1428 O1476 2.291 . S
Eu1428 O1480 2.335 . S
Eu1428 O1483 2.372 . S
Eu1428 C1492 2.787 . S
C1429 N1430 1.365 . S
C1429 C1432 1.405 . S
C1429 C1436 1.448 . S
N1430 C1429 1.365 . S
N1430 C1433 1.319 . S
N1430 Eu1439 2.600 . S
C1431 C1433 1.397 . S
C1431 C1434 1.367 . S
C1431 H1451 0.931 . S
C1432 C1429 1.405 . S
C1432 C1434 1.403 . S
C1432 C1438 1.439 . S
C1433 N1430 1.319 . S
C1433 C1431 1.397 . S
C1433 H1444 0.930 . S
C1434 C1431 1.367 . S
C1434 C1432 1.403 . S
C1434 H1455 0.929 . S
C1435 C1436 1.430 . S
C1435 C1437 1.387 . S
C1435 C1441 1.404 . S
C1436 C1429 1.448 . S
C1436 C1435 1.430 . S
C1436 N1440 1.351 . S
C1437 C1435 1.387 . S
C1437 C1438 1.374 . S
C1437 H1452 0.931 . S
C1438 C1432 1.439 . S
C1438 C1437 1.374 . S
C1438 H1453 0.931 . S
Eu1439 N1430 2.600 . S
Eu1439 N1440 2.562 . S
Eu1439 O1474 2.335 . S
Eu1439 O1477 2.372 . S
Eu1439 O1478 2.462 . S
Eu1439 O1479 2.373 . S
Eu1439 O1481 2.432 . S
Eu1439 O1482 2.291 . S
Eu1439 C1503 2.787 . S
N1440 C1436 1.351 . S
N1440 Eu1439 2.562 . S
N1440 C1442 1.325 . S
C1441 C1435 1.404 . S
C1441 C1443 1.366 . S
C1441 H1449 0.930 . S
C1442 N1440 1.325 . S
C1442 C1443 1.416 . S
C1442 H1448 0.929 . S
C1443 C1441 1.366 . S
C1443 C1442 1.416 . S
C1443 H1445 0.930 . S
H1444 C1433 0.930 . S
H1445 C1443 0.930 . S
H1446 C1461 0.930 . S
H1447 C1468 0.930 . S
H1448 C1442 0.929 . S
H1449 C1441 0.930 . S
H1450 C1464 0.929 . S
H1451 C1431 0.931 . S
H1452 C1437 0.931 . S
H1453 C1438 0.931 . S
H1454 C1459 0.931 . S
H1455 C1434 0.929 . S
H1456 C1467 0.930 . S
N1457 Eu1428 2.600 . S
N1457 C1458 1.365 . S
N1457 C1461 1.319 . S
C1458 N1457 1.365 . S
C1458 C1460 1.405 . S
C1458 C1466 1.448 . S
C1459 H1454 0.931 . S
C1459 C1461 1.397 . S
C1459 C1462 1.367 . S
C1460 C1458 1.405 . S
C1460 C1462 1.403 . S
C1460 C1493 1.439 . S
C1461 H1446 0.930 . S
C1461 N1457 1.319 . S
C1461 C1459 1.397 . S
C1462 C1459 1.367 . S
C1462 C1460 1.403 . S
C1462 H1469 0.929 . S
N1463 Eu1428 2.562 . S
N1463 C1464 1.325 . S
N1463 C1466 1.351 . S
C1464 H1450 0.929 . S
C1464 N1463 1.325 . S
C1464 C1468 1.416 . S
C1465 C1466 1.430 . S
C1465 C1467 1.404 . S
C1465 C1494 1.387 . S
C1466 C1458 1.448 . S
C1466 N1463 1.351 . S
C1466 C1465 1.430 . S
C1467 H1456 0.930 . S
C1467 C1465 1.404 . S
C1467 C1468 1.366 . S
C1468 H1447 0.930 . S
C1468 C1464 1.416 . S
C1468 C1467 1.366 . S
H1469 C1462 0.929 . S
H1470 C1493 0.931 . S
H1471 C1494 0.931 . S
O1472 Eu1428 2.462 . S
O1472 C1492 1.252 . S
O1473 Eu1428 2.373 . S
O1473 C1484 1.249 . S
O1474 Eu1439 2.335 . S
O1474 C1484 1.264 . S
O1475 Eu1428 2.432 . S
O1475 C1492 1.268 . S
O1476 Eu1428 2.291 . S
O1476 C1491 1.255 . S
O1477 Eu1439 2.372 . S
O1477 C1491 1.257 . S
O1478 Eu1439 2.462 . S
O1478 C1503 1.252 . S
O1479 Eu1439 2.373 . S
O1479 C1495 1.249 . S
O1480 Eu1428 2.335 . S
O1480 C1495 1.264 . S
O1481 Eu1439 2.432 . S
O1481 C1503 1.268 . S
O1482 Eu1439 2.291 . S
O1482 C1502 1.255 . S
O1483 Eu1428 2.372 . S
O1483 C1502 1.257 . S
C1484 O1473 1.249 . S
C1484 O1474 1.264 . S
C1485 C1488 1.382 . S
C1485 C1490 1.390 . S
C1485 C1492 1.506 . S
C1486 C1487 1.398 . S
C1486 C1490 1.392 . S
C1487 C1486 1.398 . S
C1487 C1489 1.372 . S
C1487 H1504 0.931 . S
C1488 C1485 1.382 . S
C1488 C1489 1.390 . S
C1488 H1505 0.931 . S
C1489 C1487 1.372 . S
C1489 C1488 1.390 . S
C1489 H1506 0.929 . S
C1490 C1485 1.390 . S
C1490 C1486 1.392 . S
C1490 H1507 0.930 . S
C1491 O1476 1.255 . S
C1491 O1477 1.257 . S
C1492 Eu1428 2.787 . S
C1492 O1472 1.252 . S
C1492 O1475 1.268 . S
C1492 C1485 1.506 . S
C1493 C1460 1.439 . S
C1493 H1470 0.931 . S
C1493 C1494 1.374 . S
C1494 C1465 1.387 . S
C1494 H1471 0.931 . S
C1494 C1493 1.374 . S
C1495 O1479 1.249 . S
C1495 O1480 1.264 . S
C1496 C1499 1.382 . S
C1496 C1500 1.390 . S
C1496 C1503 1.506 . S
C1497 C1498 1.398 . S
C1497 C1500 1.392 . S
C1498 C1497 1.398 . S
C1498 C1501 1.372 . S
C1498 H1508 0.931 . S
C1499 C1496 1.382 . S
C1499 C1501 1.390 . S
C1499 H1509 0.931 . S
C1500 C1496 1.390 . S
C1500 C1497 1.392 . S
C1500 H1510 0.930 . S
C1501 C1498 1.372 . S
C1501 C1499 1.390 . S
C1501 H1511 0.929 . S
C1502 O1482 1.255 . S
C1502 O1483 1.257 . S
C1503 Eu1439 2.787 . S
C1503 O1478 1.252 . S
C1503 O1481 1.268 . S
C1503 C1496 1.506 . S
H1504 C1487 0.931 . S
H1505 C1488 0.931 . S
H1506 C1489 0.929 . S
H1507 C1490 0.930 . S
H1508 C1498 0.931 . S
H1509 C1499 0.931 . S
H1510 C1500 0.930 . S
H1511 C1501 0.929 . S
Eu1512 N1541 2.600 . S
Eu1512 N1547 2.562 . S
Eu1512 O1556 2.462 . S
Eu1512 O1557 2.373 . S
Eu1512 O1559 2.432 . S
Eu1512 O1560 2.291 . S
Eu1512 O1564 2.335 . S
Eu1512 O1567 2.372 . S
Eu1512 C1576 2.787 . S
C1513 N1514 1.365 . S
C1513 C1516 1.405 . S
C1513 C1520 1.448 . S
N1514 C1513 1.365 . S
N1514 C1517 1.319 . S
N1514 Eu1523 2.600 . S
C1515 C1517 1.397 . S
C1515 C1518 1.367 . S
C1515 H1535 0.931 . S
C1516 C1513 1.405 . S
C1516 C1518 1.403 . S
C1516 C1522 1.439 . S
C1517 N1514 1.319 . S
C1517 C1515 1.397 . S
C1517 H1528 0.930 . S
C1518 C1515 1.367 . S
C1518 C1516 1.403 . S
C1518 H1539 0.929 . S
C1519 C1520 1.430 . S
C1519 C1521 1.387 . S
C1519 C1525 1.404 . S
C1520 C1513 1.448 . S
C1520 C1519 1.430 . S
C1520 N1524 1.351 . S
C1521 C1519 1.387 . S
C1521 C1522 1.374 . S
C1521 H1536 0.931 . S
C1522 C1516 1.439 . S
C1522 C1521 1.374 . S
C1522 H1537 0.931 . S
Eu1523 N1514 2.600 . S
Eu1523 N1524 2.562 . S
Eu1523 O1558 2.335 . S
Eu1523 O1561 2.372 . S
Eu1523 O1562 2.462 . S
Eu1523 O1563 2.373 . S
Eu1523 O1565 2.432 . S
Eu1523 O1566 2.291 . S
Eu1523 C1587 2.787 . S
N1524 C1520 1.351 . S
N1524 Eu1523 2.562 . S
N1524 C1526 1.325 . S
C1525 C1519 1.404 . S
C1525 C1527 1.366 . S
C1525 H1533 0.930 . S
C1526 N1524 1.325 . S
C1526 C1527 1.416 . S
C1526 H1532 0.929 . S
C1527 C1525 1.366 . S
C1527 C1526 1.416 . S
C1527 H1529 0.930 . S
H1528 C1517 0.930 . S
H1529 C1527 0.930 . S
H1530 C1545 0.930 . S
H1531 C1552 0.930 . S
H1532 C1526 0.929 . S
H1533 C1525 0.930 . S
H1534 C1548 0.929 . S
H1535 C1515 0.931 . S
H1536 C1521 0.931 . S
H1537 C1522 0.931 . S
H1538 C1543 0.931 . S
H1539 C1518 0.929 . S
H1540 C1551 0.930 . S
N1541 Eu1512 2.600 . S
N1541 C1542 1.365 . S
N1541 C1545 1.319 . S
C1542 N1541 1.365 . S
C1542 C1544 1.405 . S
C1542 C1550 1.448 . S
C1543 H1538 0.931 . S
C1543 C1545 1.397 . S
C1543 C1546 1.367 . S
C1544 C1542 1.405 . S
C1544 C1546 1.403 . S
C1544 C1577 1.439 . S
C1545 H1530 0.930 . S
C1545 N1541 1.319 . S
C1545 C1543 1.397 . S
C1546 C1543 1.367 . S
C1546 C1544 1.403 . S
C1546 H1553 0.929 . S
N1547 Eu1512 2.562 . S
N1547 C1548 1.325 . S
N1547 C1550 1.351 . S
C1548 H1534 0.929 . S
C1548 N1547 1.325 . S
C1548 C1552 1.416 . S
C1549 C1550 1.430 . S
C1549 C1551 1.404 . S
C1549 C1578 1.387 . S
C1550 C1542 1.448 . S
C1550 N1547 1.351 . S
C1550 C1549 1.430 . S
C1551 H1540 0.930 . S
C1551 C1549 1.404 . S
C1551 C1552 1.366 . S
C1552 H1531 0.930 . S
C1552 C1548 1.416 . S
C1552 C1551 1.366 . S
H1553 C1546 0.929 . S
H1554 C1577 0.931 . S
H1555 C1578 0.931 . S
O1556 Eu1512 2.462 . S
O1556 C1576 1.252 . S
O1557 Eu1512 2.373 . S
O1557 C1568 1.249 . S
O1558 Eu1523 2.335 . S
O1558 C1568 1.264 . S
O1559 Eu1512 2.432 . S
O1559 C1576 1.268 . S
O1560 Eu1512 2.291 . S
O1560 C1575 1.255 . S
O1561 Eu1523 2.372 . S
O1561 C1575 1.257 . S
O1562 Eu1523 2.462 . S
O1562 C1587 1.252 . S
O1563 Eu1523 2.373 . S
O1563 C1579 1.249 . S
O1564 Eu1512 2.335 . S
O1564 C1579 1.264 . S
O1565 Eu1523 2.432 . S
O1565 C1587 1.268 . S
O1566 Eu1523 2.291 . S
O1566 C1586 1.255 . S
O1567 Eu1512 2.372 . S
O1567 C1586 1.257 . S
C1568 O1557 1.249 . S
C1568 O1558 1.264 . S
C1569 C1572 1.382 . S
C1569 C1574 1.390 . S
C1569 C1576 1.506 . S
C1570 C1571 1.398 . S
C1570 C1574 1.392 . S
C1571 C1570 1.398 . S
C1571 C1573 1.372 . S
C1571 H1588 0.931 . S
C1572 C1569 1.382 . S
C1572 C1573 1.390 . S
C1572 H1589 0.931 . S
C1573 C1571 1.372 . S
C1573 C1572 1.390 . S
C1573 H1590 0.929 . S
C1574 C1569 1.390 . S
C1574 C1570 1.392 . S
C1574 H1591 0.930 . S
C1575 O1560 1.255 . S
C1575 O1561 1.257 . S
C1576 Eu1512 2.787 . S
C1576 O1556 1.252 . S
C1576 O1559 1.268 . S
C1576 C1569 1.506 . S
C1577 C1544 1.439 . S
C1577 H1554 0.931 . S
C1577 C1578 1.374 . S
C1578 C1549 1.387 . S
C1578 H1555 0.931 . S
C1578 C1577 1.374 . S
C1579 O1563 1.249 . S
C1579 O1564 1.264 . S
C1580 C1583 1.382 . S
C1580 C1584 1.390 . S
C1580 C1587 1.506 . S
C1581 C1582 1.398 . S
C1581 C1584 1.392 . S
C1582 C1581 1.398 . S
C1582 C1585 1.372 . S
C1582 H1592 0.931 . S
C1583 C1580 1.382 . S
C1583 C1585 1.390 . S
C1583 H1593 0.931 . S
C1584 C1580 1.390 . S
C1584 C1581 1.392 . S
C1584 H1594 0.930 . S
C1585 C1582 1.372 . S
C1585 C1583 1.390 . S
C1585 H1595 0.929 . S
C1586 O1566 1.255 . S
C1586 O1567 1.257 . S
C1587 Eu1523 2.787 . S
C1587 O1562 1.252 . S
C1587 O1565 1.268 . S
C1587 C1580 1.506 . S
H1588 C1571 0.931 . S
H1589 C1572 0.931 . S
H1590 C1573 0.929 . S
H1591 C1574 0.930 . S
H1592 C1582 0.931 . S
H1593 C1583 0.931 . S
H1594 C1584 0.930 . S
H1595 C1585 0.929 . S
Eu1596 N1625 2.600 . S
Eu1596 N1631 2.562 . S
Eu1596 O1640 2.462 . S
Eu1596 O1641 2.373 1_655 S
Eu1596 O1643 2.432 . S
Eu1596 O1644 2.291 . S
Eu1596 O1648 2.335 1_655 S
Eu1596 O1651 2.372 1_655 S
Eu1596 C1660 2.787 . S
C1597 N1598 1.365 . S
C1597 C1600 1.405 . S
C1597 C1604 1.448 1_556 S
N1598 C1597 1.365 . S
N1598 C1601 1.319 . S
N1598 Eu1607 2.600 1_556 S
C1599 C1601 1.397 . S
C1599 C1602 1.367 . S
C1599 H1619 0.931 . S
C1600 C1597 1.405 . S
C1600 C1602 1.403 . S
C1600 C1606 1.439 . S
C1601 N1598 1.319 . S
C1601 C1599 1.397 . S
C1601 H1612 0.930 . S
C1602 C1599 1.367 . S
C1602 C1600 1.403 . S
C1602 H1623 0.929 . S
C1603 C1604 1.430 . S
C1603 C1605 1.387 1_554 S
C1603 C1609 1.404 . S
C1604 C1597 1.448 1_554 S
C1604 C1603 1.430 . S
C1604 N1608 1.351 . S
C1605 C1603 1.387 1_556 S
C1605 C1606 1.374 . S
C1605 H1620 0.931 1_556 S
C1606 C1600 1.439 . S
C1606 C1605 1.374 . S
C1606 H1621 0.931 . S
Eu1607 N1598 2.600 1_554 S
Eu1607 N1608 2.562 . S
Eu1607 O1642 2.335 . S
Eu1607 O1645 2.372 1_554 S
Eu1607 O1646 2.462 . S
Eu1607 O1647 2.373 . S
Eu1607 O1649 2.432 1_554 S
Eu1607 O1650 2.291 . S
Eu1607 C1671 2.787 1_554 S
N1608 C1604 1.351 . S
N1608 Eu1607 2.562 . S
N1608 C1610 1.325 . S
C1609 C1603 1.404 . S
C1609 C1611 1.366 . S
C1609 H1617 0.930 . S
C1610 N1608 1.325 . S
C1610 C1611 1.416 . S
C1610 H1616 0.929 . S
C1611 C1609 1.366 . S
C1611 C1610 1.416 . S
C1611 H1613 0.930 . S
H1612 C1601 0.930 . S
H1613 C1611 0.930 . S
H1614 C1629 0.930 1_455 S
H1615 C1636 0.930 . S
H1616 C1610 0.929 . S
H1617 C1609 0.930 . S
H1618 C1632 0.929 1_556 S
H1619 C1599 0.931 . S
H1620 C1605 0.931 1_554 S
H1621 C1606 0.931 . S
H1622 C1627 0.935 . S
H1623 C1602 0.929 . S
H1624 C1635 0.930 . S
N1625 Eu1596 2.600 . S
N1625 C1626 1.365 . S
N1625 C1629 1.319 . S
C1626 N1625 1.365 . S
C1626 C1628 1.405 . S
C1626 C1634 1.448 . S
C1627 H1622 0.935 . S
C1627 C1629 1.397 . S
C1627 C1630 1.367 . S
C1628 C1626 1.405 . S
C1628 C1630 1.403 . S
C1628 C1661 1.439 . S
C1629 H1614 0.930 1_655 S
C1629 N1625 1.319 . S
C1629 C1627 1.397 . S
C1630 C1627 1.367 . S
C1630 C1628 1.403 . S
C1630 H1637 0.929 . S
N1631 Eu1596 2.562 . S
N1631 C1632 1.325 . S
N1631 C1634 1.351 . S
C1632 H1618 0.929 1_554 S
C1632 N1631 1.325 . S
C1632 C1636 1.416 1_554 S
C1633 C1634 1.430 . S
C1633 C1635 1.404 . S
C1633 C1662 1.387 . S
C1634 C1626 1.448 . S
C1634 N1631 1.351 . S
C1634 C1633 1.430 . S
C1635 H1624 0.930 . S
C1635 C1633 1.404 . S
C1635 C1636 1.366 1_554 S
C1636 H1615 0.930 . S
C1636 C1632 1.416 1_556 S
C1636 C1635 1.366 1_556 S
H1637 C1630 0.929 . S
H1638 C1661 0.931 . S
H1639 C1662 0.931 . S
O1640 Eu1596 2.462 . S
O1640 C1660 1.252 . S
O1641 Eu1596 2.373 1_455 S
O1641 C1652 1.249 . S
O1642 Eu1607 2.335 . S
O1642 C1652 1.264 . S
O1643 Eu1596 2.432 . S
O1643 C1660 1.268 . S
O1644 Eu1596 2.291 . S
O1644 C1659 1.255 1_654 S
O1645 Eu1607 2.372 1_556 S
O1645 C1659 1.257 . S
O1646 Eu1607 2.462 . S
O1646 C1671 1.252 1_554 S
O1647 Eu1607 2.373 . S
O1647 C1663 1.249 . S
O1648 Eu1596 2.335 1_455 S
O1648 C1663 1.264 . S
O1649 Eu1607 2.432 1_556 S
O1649 C1671 1.268 . S
O1650 Eu1607 2.291 . S
O1650 C1670 1.255 . S
O1651 Eu1596 2.372 1_455 S
O1651 C1670 1.257 . S
C1652 O1641 1.249 . S
C1652 O1642 1.264 . S
C1653 C1656 1.382 . S
C1653 C1658 1.390 . S
C1653 C1660 1.506 . S
C1654 C1655 1.398 . S
C1654 C1658 1.392 . S
C1655 C1654 1.398 . S
C1655 C1657 1.372 . S
C1655 H1672 0.931 . S
C1656 C1653 1.382 . S
C1656 C1657 1.390 . S
C1656 H1673 0.931 . S
C1657 C1655 1.372 . S
C1657 C1656 1.390 . S
C1657 H1674 0.929 . S
C1658 C1653 1.390 . S
C1658 C1654 1.392 . S
C1658 H1675 0.930 . S
C1659 O1644 1.255 1_456 S
C1659 O1645 1.257 . S
C1660 Eu1596 2.787 . S
C1660 O1640 1.252 . S
C1660 O1643 1.268 . S
C1660 C1653 1.506 . S
C1661 C1628 1.439 . S
C1661 H1638 0.931 . S
C1661 C1662 1.374 . S
C1662 C1633 1.387 . S
C1662 H1639 0.931 . S
C1662 C1661 1.374 . S
C1663 O1647 1.249 . S
C1663 O1648 1.264 . S
C1664 C1667 1.382 . S
C1664 C1668 1.390 1_556 S
C1664 C1671 1.506 . S
C1665 C1666 1.398 1_554 S
C1665 C1668 1.392 . S
C1666 C1665 1.398 1_556 S
C1666 C1669 1.372 . S
C1666 H1676 0.931 . S
C1667 C1664 1.382 . S
C1667 C1669 1.390 . S
C1667 H1677 0.931 . S
C1668 C1664 1.390 1_554 S
C1668 C1665 1.392 . S
C1668 H1678 0.930 . S
C1669 C1666 1.372 . S
C1669 C1667 1.390 . S
C1669 H1679 0.929 . S
C1670 O1650 1.255 . S
C1670 O1651 1.257 . S
C1671 Eu1607 2.787 1_556 S
C1671 O1646 1.252 1_556 S
C1671 O1649 1.268 . S
C1671 C1664 1.506 . S
H1672 C1655 0.931 . S
H1673 C1656 0.931 . S
H1674 C1657 0.929 . S
H1675 C1658 0.930 . S
H1676 C1666 0.931 . S
H1677 C1667 0.931 . S
H1678 C1668 0.930 . S
H1679 C1669 0.929 . S
H1680 C1686 0.930 . S
H1681 C1689 0.930 . S
H1682 C1690 0.930 . S
H1683 C1691 0.946 . S
H1684 C1694 0.930 . S
H1685 C1695 0.930 . S
C1686 H1680 0.930 . S
C1686 C1687 1.355 1_455 S
C1686 C1688 1.415 1_556 S
C1687 C1686 1.355 1_655 S
C1687 C1689 1.432 . S
C1688 C1686 1.415 1_554 S
C1688 C1693 1.425 1_455 S
C1688 C1695 1.409 . S
C1689 H1681 0.930 . S
C1689 C1687 1.432 . S
C1689 C1690 1.350 1_556 S
C1690 H1682 0.930 . S
C1690 C1689 1.350 1_554 S
C1690 C1693 1.409 . S
C1691 H1683 0.946 . S
C1691 C1692 1.333 1_655 S
C1691 C1693 1.420 . S
C1692 C1691 1.333 1_455 S
C1692 C1694 1.419 . S
C1693 C1688 1.425 1_655 S
C1693 C1690 1.409 . S
C1693 C1691 1.420 . S
C1694 H1684 0.930 . S
C1694 C1692 1.419 . S
C1694 C1695 1.362 . S
C1695 H1685 0.930 . S
C1695 C1688 1.409 . S
C1695 C1694 1.362 . S
H1696 C1702 0.930 . S
H1697 C1705 0.930 . S
H1698 C1706 0.930 . S
H1699 C1707 0.930 . S
H1700 C1710 0.930 . S
H1701 C1711 0.930 . S
C1702 H1696 0.930 . S
C1702 C1703 1.355 . S
C1702 C1704 1.415 . S
C1703 C1702 1.355 . S
C1703 C1705 1.419 . S
C1704 C1702 1.415 . S
C1704 C1709 1.425 . S
C1704 C1711 1.409 . S
C1705 H1697 0.930 . S
C1705 C1703 1.419 . S
C1705 C1706 1.362 . S
C1706 H1698 0.930 . S
C1706 C1705 1.362 . S
C1706 C1709 1.409 . S
C1707 H1699 0.930 . S
C1707 C1708 1.355 . S
C1707 C1709 1.415 . S
C1708 C1707 1.355 . S
C1708 C1710 1.419 . S
C1709 C1704 1.425 . S
C1709 C1706 1.409 . S
C1709 C1707 1.415 . S
C1710 H1700 0.930 . S
C1710 C1708 1.419 . S
C1710 C1711 1.362 . S
C1711 H1701 0.930 . S
C1711 C1704 1.409 . S
C1711 C1710 1.362 . S
H1712 C1718 0.930 . S
H1713 C1721 0.930 . S
H1714 C1722 0.930 . S
H1715 C1723 0.930 . S
H1716 C1726 0.930 . S
H1717 C1727 0.930 . S
C1718 H1712 0.930 . S
C1718 C1719 1.355 . S
C1718 C1720 1.415 . S
C1719 C1718 1.355 . S
C1719 C1721 1.419 . S
C1720 C1718 1.415 . S
C1720 C1725 1.425 . S
C1720 C1727 1.409 . S
C1721 H1713 0.930 . S
C1721 C1719 1.419 . S
C1721 C1722 1.362 . S
C1722 H1714 0.930 . S
C1722 C1721 1.362 . S
C1722 C1725 1.409 . S
C1723 H1715 0.930 . S
C1723 C1724 1.355 . S
C1723 C1725 1.415 . S
C1724 C1723 1.355 . S
C1724 C1726 1.419 . S
C1725 C1720 1.425 . S
C1725 C1722 1.409 . S
C1725 C1723 1.415 . S
C1726 H1716 0.930 . S
C1726 C1724 1.419 . S
C1726 C1727 1.362 . S
C1727 H1717 0.930 . S
C1727 C1720 1.409 . S
C1727 C1726 1.362 . S
H1728 C1734 0.930 . S
H1729 C1737 0.930 . S
H1730 C1738 0.930 . S
H1731 C1739 0.930 . S
H1732 C1742 0.930 . S
H1733 C1743 0.930 . S
C1734 H1728 0.930 . S
C1734 C1735 1.355 . S
C1734 C1736 1.415 . S
C1735 C1734 1.355 . S
C1735 C1737 1.419 . S
C1736 C1734 1.415 . S
C1736 C1741 1.425 . S
C1736 C1743 1.409 . S
C1737 H1729 0.930 . S
C1737 C1735 1.419 . S
C1737 C1738 1.362 . S
C1738 H1730 0.930 . S
C1738 C1737 1.362 . S
C1738 C1741 1.409 . S
C1739 H1731 0.930 . S
C1739 C1740 1.355 . S
C1739 C1741 1.415 . S
C1740 C1739 1.355 . S
C1740 C1742 1.419 . S
C1741 C1736 1.425 . S
C1741 C1738 1.409 . S
C1741 C1739 1.415 . S
C1742 H1732 0.930 . S
C1742 C1740 1.419 . S
C1742 C1743 1.362 . S
C1743 H1733 0.930 . S
C1743 C1736 1.409 . S
C1743 C1742 1.362 . S
H1744 C1750 0.930 1_655 S
H1745 C1753 0.930 . S
H1746 C1754 0.930 . S
H1747 C1755 0.930 . S
H1748 C1758 0.930 . S
H1749 C1759 0.930 . S
C1750 H1744 0.930 1_455 S
C1750 C1751 1.355 . S
C1750 C1752 1.415 . S
C1751 C1750 1.355 . S
C1751 C1753 1.419 . S
C1752 C1750 1.415 . S
C1752 C1757 1.425 . S
C1752 C1759 1.409 1_455 S
C1753 H1745 0.930 . S
C1753 C1751 1.419 . S
C1753 C1754 1.362 . S
C1754 H1746 0.930 . S
C1754 C1753 1.362 . S
C1754 C1757 1.409 . S
C1755 H1747 0.930 . S
C1755 C1756 1.355 . S
C1755 C1757 1.415 . S
C1756 C1755 1.355 . S
C1756 C1758 1.419 1_455 S
C1757 C1752 1.425 . S
C1757 C1754 1.409 . S
C1757 C1755 1.415 . S
C1758 H1748 0.930 . S
C1758 C1756 1.419 1_655 S
C1758 C1759 1.362 . S
C1759 H1749 0.930 . S
C1759 C1752 1.409 1_655 S
C1759 C1758 1.362 . S
H1760 C1766 0.930 . S
H1761 C1769 0.930 . S
H1762 C1770 0.930 . S
H1763 C1771 0.930 . S
H1764 C1774 0.930 . S
H1765 C1775 0.930 . S
C1766 H1760 0.930 . S
C1766 C1767 1.355 . S
C1766 C1768 1.415 . S
C1767 C1766 1.355 . S
C1767 C1769 1.419 . S
C1768 C1766 1.415 . S
C1768 C1773 1.425 . S
C1768 C1775 1.409 . S
C1769 H1761 0.930 . S
C1769 C1767 1.419 . S
C1769 C1770 1.362 . S
C1770 H1762 0.930 . S
C1770 C1769 1.362 . S
C1770 C1773 1.409 . S
C1771 H1763 0.930 . S
C1771 C1772 1.355 . S
C1771 C1773 1.415 . S
C1772 C1771 1.355 . S
C1772 C1774 1.419 . S
C1773 C1768 1.425 . S
C1773 C1770 1.409 . S
C1773 C1771 1.415 . S
C1774 H1764 0.930 . S
C1774 C1772 1.419 . S
C1774 C1775 1.362 . S
C1775 H1765 0.930 . S
C1775 C1768 1.409 . S
C1775 C1774 1.362 . S
H1776 C1782 0.930 . S
H1777 C1785 0.930 . S
H1778 C1786 0.930 . S
H1779 C1787 0.930 . S
H1780 C1790 0.930 . S
H1781 C1791 0.930 . S
C1782 H1776 0.930 . S
C1782 C1783 1.355 . S
C1782 C1784 1.415 . S
C1783 C1782 1.355 . S
C1783 C1785 1.419 . S
C1784 C1782 1.415 . S
C1784 C1789 1.425 . S
C1784 C1791 1.409 . S
C1785 H1777 0.930 . S
C1785 C1783 1.419 . S
C1785 C1786 1.362 . S
C1786 H1778 0.930 . S
C1786 C1785 1.362 . S
C1786 C1789 1.409 . S
C1787 H1779 0.930 . S
C1787 C1788 1.355 . S
C1787 C1789 1.415 . S
C1788 C1787 1.355 . S
C1788 C1790 1.419 . S
C1789 C1784 1.425 . S
C1789 C1786 1.409 . S
C1789 C1787 1.415 . S
C1790 H1780 0.930 . S
C1790 C1788 1.419 . S
C1790 C1791 1.362 . S
C1791 H1781 0.930 . S
C1791 C1784 1.409 . S
C1791 C1790 1.362 . S
H1792 C1798 0.930 . S
H1793 C1801 0.930 . S
H1794 C1802 0.930 . S
H1795 C1803 0.930 . S
H1796 C1806 0.930 . S
H1797 C1807 0.930 . S
C1798 H1792 0.930 . S
C1798 C1799 1.355 . S
C1798 C1800 1.415 . S
C1799 C1798 1.355 . S
C1799 C1801 1.419 . S
C1800 C1798 1.415 . S
C1800 C1805 1.425 . S
C1800 C1807 1.409 . S
C1801 H1793 0.930 . S
C1801 C1799 1.419 . S
C1801 C1802 1.362 . S
C1802 H1794 0.930 . S
C1802 C1801 1.362 . S
C1802 C1805 1.409 . S
C1803 H1795 0.930 . S
C1803 C1804 1.355 . S
C1803 C1805 1.415 . S
C1804 C1803 1.355 . S
C1804 C1806 1.419 . S
C1805 C1800 1.425 . S
C1805 C1802 1.409 . S
C1805 C1803 1.415 . S
C1806 H1796 0.930 . S
C1806 C1804 1.419 . S
C1806 C1807 1.362 . S
C1807 H1797 0.930 . S
C1807 C1800 1.409 . S
C1807 C1806 1.362 . S
H1808 C1814 0.930 1_455 S
H1809 C1817 0.930 1_565 S
H1810 C1818 0.930 . S
H1811 C1819 0.930 . S
H1812 C1822 0.930 . S
H1813 C1823 0.930 . S
C1814 H1808 0.930 1_655 S
C1814 C1815 1.355 . S
C1814 C1816 1.415 . S
C1815 C1814 1.355 . S
C1815 C1817 1.419 . S
C1816 C1814 1.415 . S
C1816 C1821 1.425 . S
C1816 C1823 1.409 1_655 S
C1817 H1809 0.930 1_545 S
C1817 C1815 1.419 . S
C1817 C1818 1.362 . S
C1818 H1810 0.930 . S
C1818 C1817 1.362 . S
C1818 C1821 1.409 . S
C1819 H1811 0.930 . S
C1819 C1820 1.355 1_655 S
C1819 C1821 1.415 . S
C1820 C1819 1.355 1_455 S
C1820 C1822 1.419 . S
C1821 C1816 1.425 . S
C1821 C1818 1.409 . S
C1821 C1819 1.415 . S
C1822 H1812 0.930 . S
C1822 C1820 1.419 . S
C1822 C1823 1.362 . S
C1823 H1813 0.930 . S
C1823 C1816 1.409 1_455 S
C1823 C1822 1.362 . S
H1824 C1830 0.930 . S
H1825 C1833 0.930 . S
H1826 C1834 0.930 . S
H1827 C1835 0.930 . S
H1828 C1838 0.930 . S
H1829 C1839 0.930 . S
C1830 H1824 0.930 . S
C1830 C1831 1.355 . S
C1830 C1832 1.415 . S
C1831 C1830 1.355 . S
C1831 C1833 1.419 . S
C1832 C1830 1.415 . S
C1832 C1837 1.425 . S
C1832 C1839 1.409 . S
C1833 H1825 0.930 . S
C1833 C1831 1.419 . S
C1833 C1834 1.362 . S
C1834 H1826 0.930 . S
C1834 C1833 1.362 . S
C1834 C1837 1.409 . S
C1835 H1827 0.930 . S
C1835 C1836 1.355 . S
C1835 C1837 1.415 . S
C1836 C1835 1.355 . S
C1836 C1838 1.419 . S
C1837 C1832 1.425 . S
C1837 C1834 1.409 . S
C1837 C1835 1.415 . S
C1838 H1828 0.930 . S
C1838 C1836 1.419 . S
C1838 C1839 1.362 . S
C1839 H1829 0.930 . S
C1839 C1832 1.409 . S
C1839 C1838 1.362 . S
H1840 C1846 0.930 . S
H1841 C1849 0.930 . S
H1842 C1850 0.930 . S
H1843 C1851 0.930 . S
H1844 C1854 0.930 . S
H1845 C1855 0.930 . S
C1846 H1840 0.930 . S
C1846 C1847 1.355 . S
C1846 C1848 1.415 . S
C1847 C1846 1.355 . S
C1847 C1849 1.419 . S
C1848 C1846 1.415 . S
C1848 C1853 1.425 . S
C1848 C1855 1.409 . S
C1849 H1841 0.930 . S
C1849 C1847 1.419 . S
C1849 C1850 1.362 . S
C1850 H1842 0.930 . S
C1850 C1849 1.362 . S
C1850 C1853 1.409 . S
C1851 H1843 0.930 . S
C1851 C1852 1.355 . S
C1851 C1853 1.415 . S
C1852 C1851 1.355 . S
C1852 C1854 1.419 . S
C1853 C1848 1.425 . S
C1853 C1850 1.409 . S
C1853 C1851 1.415 . S
C1854 H1844 0.930 . S
C1854 C1852 1.419 . S
C1854 C1855 1.362 . S
C1855 H1845 0.930 . S
C1855 C1848 1.409 . S
C1855 C1854 1.362 . S
H1856 C1862 0.930 . S
H1857 C1865 0.930 . S
H1858 C1866 0.930 . S
H1859 C1867 0.930 . S
H1860 C1870 0.930 . S
H1861 C1871 0.930 . S
C1862 H1856 0.930 . S
C1862 C1863 1.355 . S
C1862 C1864 1.415 . S
C1863 C1862 1.355 . S
C1863 C1865 1.419 . S
C1864 C1862 1.415 . S
C1864 C1869 1.425 . S
C1864 C1871 1.409 . S
C1865 H1857 0.930 . S
C1865 C1863 1.419 . S
C1865 C1866 1.362 . S
C1866 H1858 0.930 . S
C1866 C1865 1.362 . S
C1866 C1869 1.409 . S
C1867 H1859 0.930 . S
C1867 C1868 1.355 . S
C1867 C1869 1.415 . S
C1868 C1867 1.355 . S
C1868 C1870 1.419 . S
C1869 C1864 1.425 . S
C1869 C1866 1.409 . S
C1869 C1867 1.415 . S
C1870 H1860 0.930 . S
C1870 C1868 1.419 . S
C1870 C1871 1.362 . S
C1871 H1861 0.930 . S
C1871 C1864 1.409 . S
C1871 C1870 1.362 . S
H1872 C1878 0.930 . S
H1873 C1881 0.930 1_455 S
H1874 C1882 0.930 . S
H1875 C1883 0.930 . S
H1876 C1886 0.930 . S
H1877 C1887 0.930 . S
C1878 H1872 0.930 . S
C1878 C1879 1.355 . S
C1878 C1880 1.415 . S
C1879 C1878 1.355 . S
C1879 C1881 1.419 . S
C1880 C1878 1.415 . S
C1880 C1885 1.425 . S
C1880 C1887 1.409 . S
C1881 H1873 0.930 1_655 S
C1881 C1879 1.419 . S
C1881 C1882 1.362 1_655 S
C1882 H1874 0.930 . S
C1882 C1881 1.362 1_455 S
C1882 C1885 1.409 1_455 S
C1883 H1875 0.930 . S
C1883 C1884 1.355 1_455 S
C1883 C1885 1.415 1_455 S
C1884 C1883 1.355 1_655 S
C1884 C1886 1.419 . S
C1885 C1880 1.425 . S
C1885 C1882 1.409 1_655 S
C1885 C1883 1.415 1_655 S
C1886 H1876 0.930 . S
C1886 C1884 1.419 . S
C1886 C1887 1.362 . S
C1887 H1877 0.930 . S
C1887 C1880 1.409 . S
C1887 C1886 1.362 . S
H1888 C1894 0.930 . S
H1889 C1897 0.930 . S
H1890 C1898 0.930 . S
H1891 C1899 0.930 . S
H1892 C1902 0.930 . S
H1893 C1903 0.930 . S
C1894 H1888 0.930 . S
C1894 C1895 1.355 . S
C1894 C1896 1.415 . S
C1895 C1894 1.355 . S
C1895 C1897 1.419 . S
C1896 C1894 1.415 . S
C1896 C1901 1.425 . S
C1896 C1903 1.409 . S
C1897 H1889 0.930 . S
C1897 C1895 1.419 . S
C1897 C1898 1.362 . S
C1898 H1890 0.930 . S
C1898 C1897 1.362 . S
C1898 C1901 1.409 . S
C1899 H1891 0.930 . S
C1899 C1900 1.355 . S
C1899 C1901 1.415 . S
C1900 C1899 1.355 . S
C1900 C1902 1.419 . S
C1901 C1896 1.425 . S
C1901 C1898 1.409 . S
C1901 C1899 1.415 . S
C1902 H1892 0.930 . S
C1902 C1900 1.419 . S
C1902 C1903 1.362 . S
C1903 H1893 0.930 . S
C1903 C1896 1.409 . S
C1903 C1902 1.362 . S
H1904 C1910 0.930 . S
H1905 C1913 0.930 . S
H1906 C1914 0.930 . S
H1907 C1915 0.930 . S
H1908 C1918 0.930 . S
H1909 C1919 0.930 . S
C1910 H1904 0.930 . S
C1910 C1911 1.355 . S
C1910 C1912 1.415 . S
C1911 C1910 1.355 . S
C1911 C1913 1.419 . S
C1912 C1910 1.415 . S
C1912 C1917 1.425 . S
C1912 C1919 1.409 . S
C1913 H1905 0.930 . S
C1913 C1911 1.419 . S
C1913 C1914 1.362 . S
C1914 H1906 0.930 . S
C1914 C1913 1.362 . S
C1914 C1917 1.409 . S
C1915 H1907 0.930 . S
C1915 C1916 1.355 . S
C1915 C1917 1.415 . S
C1916 C1915 1.355 . S
C1916 C1918 1.419 . S
C1917 C1912 1.425 . S
C1917 C1914 1.409 . S
C1917 C1915 1.415 . S
C1918 H1908 0.930 . S
C1918 C1916 1.419 . S
C1918 C1919 1.362 . S
C1919 H1909 0.930 . S
C1919 C1912 1.409 . S
C1919 C1918 1.362 . S
H1920 C1926 0.930 . S
H1921 C1929 0.930 . S
H1922 C1930 0.930 . S
H1923 C1931 0.930 . S
H1924 C1934 0.930 . S
H1925 C1935 0.930 . S
C1926 H1920 0.930 . S
C1926 C1927 1.355 . S
C1926 C1928 1.415 . S
C1927 C1926 1.355 . S
C1927 C1929 1.419 . S
C1928 C1926 1.415 . S
C1928 C1933 1.425 . S
C1928 C1935 1.409 . S
C1929 H1921 0.930 . S
C1929 C1927 1.419 . S
C1929 C1930 1.362 . S
C1930 H1922 0.930 . S
C1930 C1929 1.362 . S
C1930 C1933 1.409 . S
C1931 H1923 0.930 . S
C1931 C1932 1.355 . S
C1931 C1933 1.415 . S
C1932 C1931 1.355 . S
C1932 C1934 1.419 . S
C1933 C1928 1.425 . S
C1933 C1930 1.409 . S
C1933 C1931 1.415 . S
C1934 H1924 0.930 . S
C1934 C1932 1.419 . S
C1934 C1935 1.362 . S
C1935 H1925 0.930 . S
C1935 C1928 1.409 . S
C1935 C1934 1.362 . S
H1936 C1942 0.930 . S
H1937 C1945 0.930 . S
H1938 C1946 0.930 . S
H1939 C1947 0.930 . S
H1940 C1950 0.930 . S
H1941 C1951 0.930 1_556 S
C1942 H1936 0.930 . S
C1942 C1943 1.355 . S
C1942 C1944 1.415 1_556 S
C1943 C1942 1.355 . S
C1943 C1945 1.419 1_566 S
C1944 C1942 1.415 1_554 S
C1944 C1949 1.425 1_565 S
C1944 C1951 1.409 . S
C1945 H1937 0.930 . S
C1945 C1943 1.419 1_544 S
C1945 C1946 1.362 . S
C1946 H1938 0.930 . S
C1946 C1945 1.362 . S
C1946 C1949 1.409 . S
C1947 H1939 0.930 . S
C1947 C1948 1.355 . S
C1947 C1949 1.415 . S
C1948 C1947 1.355 . S
C1948 C1950 1.419 1_545 S
C1949 C1944 1.425 1_545 S
C1949 C1946 1.409 . S
C1949 C1947 1.415 . S
C1950 H1940 0.930 . S
C1950 C1948 1.419 1_565 S
C1950 C1951 1.362 . S
C1951 H1941 0.930 1_554 S
C1951 C1944 1.409 . S
C1951 C1950 1.362 . S
H1952 C1958 0.930 1_556 S
H1953 C1961 0.930 . S
H1954 C1962 0.930 . S
H1955 C1963 0.930 . S
H1956 C1966 0.931 1_556 S
H1957 C1967 0.930 . S
C1958 H1952 0.930 1_554 S
C1958 C1959 1.355 . S
C1958 C1960 1.415 . S
C1959 C1958 1.355 . S
C1959 C1961 1.419 . S
C1960 C1958 1.415 . S
C1960 C1965 1.425 . S
C1960 C1967 1.409 1_554 S
C1961 H1953 0.930 . S
C1961 C1959 1.419 . S
C1961 C1962 1.362 . S
C1962 H1954 0.930 . S
C1962 C1961 1.362 . S
C1962 C1965 1.409 . S
C1963 H1955 0.930 . S
C1963 C1964 1.355 . S
C1963 C1965 1.415 . S
C1964 C1963 1.355 . S
C1964 C1966 1.417 . S
C1965 C1960 1.425 . S
C1965 C1962 1.409 . S
C1965 C1963 1.415 . S
C1966 H1956 0.931 1_554 S
C1966 C1964 1.417 . S
C1966 C1967 1.363 1_554 S
C1967 H1957 0.930 . S
C1967 C1960 1.409 1_556 S
C1967 C1966 1.363 1_556 S
H1968 C1974 0.930 . S
H1969 C1977 0.930 . S
H1970 C1978 0.930 . S
H1971 C1979 0.930 . S
H1972 C1982 0.930 . S
H1973 C1983 0.930 . S
C1974 H1968 0.930 . S
C1974 C1975 1.355 . S
C1974 C1976 1.415 . S
C1975 C1974 1.355 . S
C1975 C1977 1.419 . S
C1976 C1974 1.415 . S
C1976 C1981 1.425 . S
C1976 C1983 1.409 . S
C1977 H1969 0.930 . S
C1977 C1975 1.419 . S
C1977 C1978 1.362 . S
C1978 H1970 0.930 . S
C1978 C1977 1.362 . S
C1978 C1981 1.409 . S
C1979 H1971 0.930 . S
C1979 C1980 1.355 . S
C1979 C1981 1.415 . S
C1980 C1979 1.355 . S
C1980 C1982 1.419 . S
C1981 C1976 1.425 . S
C1981 C1978 1.409 . S
C1981 C1979 1.415 . S
C1982 H1972 0.930 . S
C1982 C1980 1.419 . S
C1982 C1983 1.362 . S
C1983 H1973 0.930 . S
C1983 C1976 1.409 . S
C1983 C1982 1.362 . S
H1984 C1990 0.930 . S
H1985 C1993 0.930 . S
H1986 C1994 0.930 . S
H1987 C1995 0.930 . S
H1988 C1998 0.930 . S
H1989 C1999 0.930 . S
C1990 H1984 0.930 . S
C1990 C1991 1.355 . S
C1990 C1992 1.415 . S
C1991 C1990 1.355 . S
C1991 C1993 1.419 . S
C1992 C1990 1.415 . S
C1992 C1997 1.425 . S
C1992 C1999 1.409 . S
C1993 H1985 0.930 . S
C1993 C1991 1.419 . S
C1993 C1994 1.362 . S
C1994 H1986 0.930 . S
C1994 C1993 1.362 . S
C1994 C1997 1.409 . S
C1995 H1987 0.930 . S
C1995 C1996 1.355 . S
C1995 C1997 1.415 . S
C1996 C1995 1.355 . S
C1996 C1998 1.419 . S
C1997 C1992 1.425 . S
C1997 C1994 1.409 . S
C1997 C1995 1.415 . S
C1998 H1988 0.930 . S
C1998 C1996 1.419 . S
C1998 C1999 1.362 . S
C1999 H1989 0.930 . S
C1999 C1992 1.409 . S
C1999 C1998 1.362 . S
H2000 C2006 0.930 . S
H2001 C2009 0.930 . S
H2002 C2010 0.930 . S
H2003 C2011 0.930 . S
H2004 C2014 0.930 . S
H2005 C2015 0.930 . S
C2006 H2000 0.930 . S
C2006 C2007 1.355 . S
C2006 C2008 1.415 . S
C2007 C2006 1.355 . S
C2007 C2009 1.419 . S
C2008 C2006 1.415 . S
C2008 C2013 1.425 . S
C2008 C2015 1.409 . S
C2009 H2001 0.930 . S
C2009 C2007 1.419 . S
C2009 C2010 1.362 . S
C2010 H2002 0.930 . S
C2010 C2009 1.362 . S
C2010 C2013 1.409 . S
C2011 H2003 0.930 . S
C2011 C2012 1.355 . S
C2011 C2013 1.415 . S
C2012 C2011 1.355 . S
C2012 C2014 1.419 . S
C2013 C2008 1.425 . S
C2013 C2010 1.409 . S
C2013 C2011 1.415 . S
C2014 H2004 0.930 . S
C2014 C2012 1.419 . S
C2014 C2015 1.362 . S
C2015 H2005 0.930 . S
C2015 C2008 1.409 . S
C2015 C2014 1.362 . S
H2016 C2022 0.930 . S
H2017 C2025 0.930 . S
H2018 C2026 0.930 . S
H2019 C2027 0.930 . S
H2020 C2030 0.930 . S
H2021 C2031 0.930 . S
C2022 H2016 0.930 . S
C2022 C2023 1.355 . S
C2022 C2024 1.415 . S
C2023 C2022 1.355 . S
C2023 C2025 1.419 . S
C2024 C2022 1.415 . S
C2024 C2029 1.425 . S
C2024 C2031 1.409 . S
C2025 H2017 0.930 . S
C2025 C2023 1.419 . S
C2025 C2026 1.362 . S
C2026 H2018 0.930 . S
C2026 C2025 1.362 . S
C2026 C2029 1.409 . S
C2027 H2019 0.930 . S
C2027 C2028 1.355 . S
C2027 C2029 1.415 . S
C2028 C2027 1.355 . S
C2028 C2030 1.419 . S
C2029 C2024 1.425 . S
C2029 C2026 1.409 . S
C2029 C2027 1.415 . S
C2030 H2020 0.930 . S
C2030 C2028 1.419 . S
C2030 C2031 1.362 . S
C2031 H2021 0.930 . S
C2031 C2024 1.409 . S
C2031 C2030 1.362 . S
H2032 C2038 0.930 . S
H2033 C2041 0.930 . S
H2034 C2042 0.930 . S
H2035 C2043 0.930 . S
H2036 C2046 0.930 . S
H2037 C2047 0.930 . S
C2038 H2032 0.930 . S
C2038 C2039 1.355 . S
C2038 C2040 1.415 . S
C2039 C2038 1.355 . S
C2039 C2041 1.419 . S
C2040 C2038 1.415 . S
C2040 C2045 1.425 . S
C2040 C2047 1.409 . S
C2041 H2033 0.930 . S
C2041 C2039 1.419 . S
C2041 C2042 1.362 . S
C2042 H2034 0.930 . S
C2042 C2041 1.362 . S
C2042 C2045 1.409 . S
C2043 H2035 0.930 . S
C2043 C2044 1.355 . S
C2043 C2045 1.415 . S
C2044 C2043 1.355 . S
C2044 C2046 1.419 . S
C2045 C2040 1.425 . S
C2045 C2042 1.409 . S
C2045 C2043 1.415 . S
C2046 H2036 0.930 . S
C2046 C2044 1.419 . S
C2046 C2047 1.362 . S
C2047 H2037 0.930 . S
C2047 C2040 1.409 . S
C2047 C2046 1.362 . S
H2048 C2054 0.930 . S
H2049 C2057 0.930 . S
H2050 C2058 0.930 . S
H2051 C2059 0.930 . S
H2052 C2062 0.930 . S
H2053 C2063 0.930 . S
C2054 H2048 0.930 . S
C2054 C2055 1.355 . S
C2054 C2056 1.415 . S
C2055 C2054 1.355 . S
C2055 C2057 1.419 . S
C2056 C2054 1.415 . S
C2056 C2061 1.425 . S
C2056 C2063 1.409 . S
C2057 H2049 0.930 . S
C2057 C2055 1.419 . S
C2057 C2058 1.362 . S
C2058 H2050 0.930 . S
C2058 C2057 1.362 . S
C2058 C2061 1.409 . S
C2059 H2051 0.930 . S
C2059 C2060 1.355 . S
C2059 C2061 1.415 . S
C2060 C2059 1.355 . S
C2060 C2062 1.419 . S
C2061 C2056 1.425 . S
C2061 C2058 1.409 . S
C2061 C2059 1.415 . S
C2062 H2052 0.930 . S
C2062 C2060 1.419 . S
C2062 C2063 1.362 . S
C2063 H2053 0.930 . S
C2063 C2056 1.409 . S
C2063 C2062 1.362 . S
H2064 C2070 0.930 . S
H2065 C2073 0.930 . S
H2066 C2074 0.930 . S
H2067 C2075 0.930 . S
H2068 C2078 0.930 . S
H2069 C2079 0.930 . S
C2070 H2064 0.930 . S
C2070 C2071 1.355 . S
C2070 C2072 1.415 . S
C2071 C2070 1.355 . S
C2071 C2073 1.419 . S
C2072 C2070 1.415 . S
C2072 C2077 1.425 . S
C2072 C2079 1.409 . S
C2073 H2065 0.930 . S
C2073 C2071 1.419 . S
C2073 C2074 1.362 . S
C2074 H2066 0.930 . S
C2074 C2073 1.362 . S
C2074 C2077 1.409 . S
C2075 H2067 0.930 . S
C2075 C2076 1.355 . S
C2075 C2077 1.415 . S
C2076 C2075 1.355 . S
C2076 C2078 1.419 . S
C2077 C2072 1.425 . S
C2077 C2074 1.409 . S
C2077 C2075 1.415 . S
C2078 H2068 0.930 . S
C2078 C2076 1.419 . S
C2078 C2079 1.362 . S
C2079 H2069 0.930 . S
C2079 C2072 1.409 . S
C2079 C2078 1.362 . S
H2080 C2086 0.930 . S
H2081 C2089 0.930 . S
H2082 C2090 0.930 . S
H2083 C2091 0.930 . S
H2084 C2094 0.930 . S
H2085 C2095 0.930 . S
C2086 H2080 0.930 . S
C2086 C2087 1.355 . S
C2086 C2088 1.415 . S
C2087 C2086 1.355 . S
C2087 C2089 1.419 . S
C2088 C2086 1.415 . S
C2088 C2093 1.425 . S
C2088 C2095 1.409 . S
C2089 H2081 0.930 . S
C2089 C2087 1.419 . S
C2089 C2090 1.362 . S
C2090 H2082 0.930 . S
C2090 C2089 1.362 . S
C2090 C2093 1.409 . S
C2091 H2083 0.930 . S
C2091 C2092 1.355 . S
C2091 C2093 1.415 . S
C2092 C2091 1.355 . S
C2092 C2094 1.419 . S
C2093 C2088 1.425 . S
C2093 C2090 1.409 . S
C2093 C2091 1.415 . S
C2094 H2084 0.930 . S
C2094 C2092 1.419 . S
C2094 C2095 1.362 . S
C2095 H2085 0.930 . S
C2095 C2088 1.409 . S
C2095 C2094 1.362 . S
H2096 C2102 0.930 . S
H2097 C2105 0.930 . S
H2098 C2106 0.930 . S
H2099 C2107 0.930 . S
H2100 C2110 0.930 . S
H2101 C2111 0.930 . S
C2102 H2096 0.930 . S
C2102 C2103 1.355 . S
C2102 C2104 1.415 . S
C2103 C2102 1.355 . S
C2103 C2105 1.419 . S
C2104 C2102 1.415 . S
C2104 C2109 1.425 . S
C2104 C2111 1.409 . S
C2105 H2097 0.930 . S
C2105 C2103 1.419 . S
C2105 C2106 1.362 . S
C2106 H2098 0.930 . S
C2106 C2105 1.362 . S
C2106 C2109 1.409 . S
C2107 H2099 0.930 . S
C2107 C2108 1.355 . S
C2107 C2109 1.415 . S
C2108 C2107 1.355 . S
C2108 C2110 1.419 . S
C2109 C2104 1.425 . S
C2109 C2106 1.409 . S
C2109 C2107 1.415 . S
C2110 H2100 0.930 . S
C2110 C2108 1.419 . S
C2110 C2111 1.362 . S
C2111 H2101 0.930 . S
C2111 C2104 1.409 . S
C2111 C2110 1.362 . S
H2112 C2118 0.930 . S
H2113 C2121 0.930 . S
H2114 C2122 0.930 . S
H2115 C2123 0.930 . S
H2116 C2126 0.930 . S
H2117 C2127 0.930 . S
C2118 H2112 0.930 . S
C2118 C2119 1.355 . S
C2118 C2120 1.415 . S
C2119 C2118 1.355 . S
C2119 C2121 1.419 . S
C2120 C2118 1.415 . S
C2120 C2125 1.425 . S
C2120 C2127 1.409 . S
C2121 H2113 0.930 . S
C2121 C2119 1.419 . S
C2121 C2122 1.362 . S
C2122 H2114 0.930 . S
C2122 C2121 1.362 . S
C2122 C2125 1.409 . S
C2123 H2115 0.930 . S
C2123 C2124 1.355 . S
C2123 C2125 1.415 . S
C2124 C2123 1.355 . S
C2124 C2126 1.419 . S
C2125 C2120 1.425 . S
C2125 C2122 1.409 . S
C2125 C2123 1.415 . S
C2126 H2116 0.930 . S
C2126 C2124 1.419 . S
C2126 C2127 1.362 . S
C2127 H2117 0.930 . S
C2127 C2120 1.409 . S
C2127 C2126 1.362 . S
H2128 C2134 0.930 . S
H2129 C2137 0.930 . S
H2130 C2138 0.930 1_655 S
H2131 C2139 0.930 . S
H2132 C2142 0.930 . S
H2133 C2143 0.930 . S
C2134 H2128 0.930 . S
C2134 C2135 1.355 . S
C2134 C2136 1.415 . S
C2135 C2134 1.355 . S
C2135 C2137 1.419 . S
C2136 C2134 1.415 . S
C2136 C2141 1.425 . S
C2136 C2143 1.409 . S
C2137 H2129 0.930 . S
C2137 C2135 1.419 . S
C2137 C2138 1.362 . S
C2138 H2130 0.930 1_455 S
C2138 C2137 1.362 . S
C2138 C2141 1.409 . S
C2139 H2131 0.930 . S
C2139 C2140 1.355 . S
C2139 C2141 1.415 . S
C2140 C2139 1.355 . S
C2140 C2142 1.419 . S
C2141 C2136 1.425 . S
C2141 C2138 1.409 . S
C2141 C2139 1.415 . S
C2142 H2132 0.930 . S
C2142 C2140 1.419 . S
C2142 C2143 1.362 . S
C2143 H2133 0.930 . S
C2143 C2136 1.409 . S
C2143 C2142 1.362 . S
H2144 C2150 0.930 . S
H2145 C2153 0.930 . S
H2146 C2154 0.930 . S
H2147 C2155 0.930 . S
H2148 C2158 0.930 . S
H2149 C2159 0.930 . S
C2150 H2144 0.930 . S
C2150 C2151 1.355 . S
C2150 C2152 1.415 . S
C2151 C2150 1.355 . S
C2151 C2153 1.419 . S
C2152 C2150 1.415 . S
C2152 C2157 1.425 . S
C2152 C2159 1.409 . S
C2153 H2145 0.930 . S
C2153 C2151 1.419 . S
C2153 C2154 1.362 . S
C2154 H2146 0.930 . S
C2154 C2153 1.362 . S
C2154 C2157 1.409 . S
C2155 H2147 0.930 . S
C2155 C2156 1.355 . S
C2155 C2157 1.415 . S
C2156 C2155 1.355 . S
C2156 C2158 1.419 . S
C2157 C2152 1.425 . S
C2157 C2154 1.409 . S
C2157 C2155 1.415 . S
C2158 H2148 0.930 . S
C2158 C2156 1.419 . S
C2158 C2159 1.362 . S
C2159 H2149 0.930 . S
C2159 C2152 1.409 . S
C2159 C2158 1.362 . S
H2160 C2166 0.930 . S
H2161 C2169 0.930 . S
H2162 C2170 0.930 . S
H2163 C2171 0.930 . S
H2164 C2174 0.930 . S
H2165 C2175 0.930 . S
C2166 H2160 0.930 . S
C2166 C2167 1.355 . S
C2166 C2168 1.415 . S
C2167 C2166 1.355 . S
C2167 C2169 1.419 . S
C2168 C2166 1.415 . S
C2168 C2173 1.425 . S
C2168 C2175 1.409 . S
C2169 H2161 0.930 . S
C2169 C2167 1.419 . S
C2169 C2170 1.362 . S
C2170 H2162 0.930 . S
C2170 C2169 1.362 . S
C2170 C2173 1.409 . S
C2171 H2163 0.930 . S
C2171 C2172 1.355 . S
C2171 C2173 1.415 . S
C2172 C2171 1.355 . S
C2172 C2174 1.419 . S
C2173 C2168 1.425 . S
C2173 C2170 1.409 . S
C2173 C2171 1.415 . S
C2174 H2164 0.930 . S
C2174 C2172 1.419 . S
C2174 C2175 1.362 . S
C2175 H2165 0.930 . S
C2175 C2168 1.409 . S
C2175 C2174 1.362 . S
H2176 C2182 0.930 . S
H2177 C2185 0.930 . S
H2178 C2186 0.930 . S
H2179 C2187 0.930 . S
H2180 C2190 0.930 . S
H2181 C2191 0.930 . S
C2182 H2176 0.930 . S
C2182 C2183 1.355 . S
C2182 C2184 1.415 . S
C2183 C2182 1.355 . S
C2183 C2185 1.419 . S
C2184 C2182 1.415 . S
C2184 C2189 1.425 . S
C2184 C2191 1.409 . S
C2185 H2177 0.930 . S
C2185 C2183 1.419 . S
C2185 C2186 1.362 . S
C2186 H2178 0.930 . S
C2186 C2185 1.362 . S
C2186 C2189 1.409 . S
C2187 H2179 0.930 . S
C2187 C2188 1.355 . S
C2187 C2189 1.415 . S
C2188 C2187 1.355 . S
C2188 C2190 1.419 . S
C2189 C2184 1.425 . S
C2189 C2186 1.409 . S
C2189 C2187 1.415 . S
C2190 H2180 0.930 . S
C2190 C2188 1.419 . S
C2190 C2191 1.362 . S
C2191 H2181 0.930 . S
C2191 C2184 1.409 . S
C2191 C2190 1.362 . S
H2192 C2198 0.930 . S
H2193 C2201 0.930 . S
H2194 C2202 0.963 . S
H2195 C2203 0.930 . S
H2196 C2206 0.930 . S
H2197 C2207 0.930 . S
C2198 H2192 0.930 . S
C2198 C2199 1.355 . S
C2198 C2200 1.415 . S
C2199 C2198 1.355 . S
C2199 C2201 1.419 . S
C2200 C2198 1.415 . S
C2200 C2205 1.425 . S
C2200 C2207 1.409 . S
C2201 H2193 0.930 . S
C2201 C2199 1.419 . S
C2201 C2202 1.362 . S
C2202 H2194 0.963 . S
C2202 C2201 1.362 . S
C2202 C2205 1.409 . S
C2203 H2195 0.930 . S
C2203 C2204 1.355 . S
C2203 C2205 1.415 . S
C2204 C2203 1.355 . S
C2204 C2206 1.419 . S
C2205 C2200 1.425 . S
C2205 C2202 1.409 . S
C2205 C2203 1.415 . S
C2206 H2196 0.930 . S
C2206 C2204 1.419 . S
C2206 C2207 1.362 . S
C2207 H2197 0.930 . S
C2207 C2200 1.409 . S
C2207 C2206 1.362 . S
H2208 C2214 0.930 . S
H2209 C2217 0.930 . S
H2210 C2218 0.930 . S
H2211 C2219 0.930 . S
H2212 C2222 0.930 . S
H2213 C2223 0.930 . S
C2214 H2208 0.930 . S
C2214 C2215 1.355 . S
C2214 C2216 1.415 . S
C2215 C2214 1.355 . S
C2215 C2217 1.419 . S
C2216 C2214 1.415 . S
C2216 C2221 1.425 . S
C2216 C2223 1.409 . S
C2217 H2209 0.930 . S
C2217 C2215 1.419 . S
C2217 C2218 1.362 . S
C2218 H2210 0.930 . S
C2218 C2217 1.362 . S
C2218 C2221 1.409 . S
C2219 H2211 0.930 . S
C2219 C2220 1.355 . S
C2219 C2221 1.415 . S
C2220 C2219 1.355 . S
C2220 C2222 1.419 . S
C2221 C2216 1.425 . S
C2221 C2218 1.409 . S
C2221 C2219 1.415 . S
C2222 H2212 0.930 . S
C2222 C2220 1.419 . S
C2222 C2223 1.362 . S
C2223 H2213 0.930 . S
C2223 C2216 1.409 . S
C2223 C2222 1.362 . S
H2224 C2230 0.930 . S
H2225 C2233 0.930 . S
H2226 C2234 0.930 . S
H2227 C2235 0.930 . S
H2228 C2238 0.930 . S
H2229 C2239 0.930 . S
C2230 H2224 0.930 . S
C2230 C2231 1.355 . S
C2230 C2232 1.415 . S
C2231 C2230 1.355 . S
C2231 C2233 1.419 . S
C2232 C2230 1.415 . S
C2232 C2237 1.425 . S
C2232 C2239 1.409 . S
C2233 H2225 0.930 . S
C2233 C2231 1.419 . S
C2233 C2234 1.362 . S
C2234 H2226 0.930 . S
C2234 C2233 1.362 . S
C2234 C2237 1.409 . S
C2235 H2227 0.930 . S
C2235 C2236 1.355 . S
C2235 C2237 1.415 . S
C2236 C2235 1.355 . S
C2236 C2238 1.419 . S
C2237 C2232 1.425 . S
C2237 C2234 1.409 . S
C2237 C2235 1.415 . S
C2238 H2228 0.930 . S
C2238 C2236 1.419 . S
C2238 C2239 1.362 . S
C2239 H2229 0.930 . S
C2239 C2232 1.409 . S
C2239 C2238 1.362 . S
H2240 C2246 0.930 . S
H2241 C2249 0.930 . S
H2242 C2250 0.930 . S
H2243 C2251 0.930 . S
H2244 C2254 0.930 . S
H2245 C2255 0.930 . S
C2246 H2240 0.930 . S
C2246 C2247 1.355 . S
C2246 C2248 1.415 . S
C2247 C2246 1.355 . S
C2247 C2249 1.419 . S
C2248 C2246 1.415 . S
C2248 C2253 1.425 . S
C2248 C2255 1.409 . S
C2249 H2241 0.930 . S
C2249 C2247 1.419 . S
C2249 C2250 1.362 . S
C2250 H2242 0.930 . S
C2250 C2249 1.362 . S
C2250 C2253 1.409 . S
C2251 H2243 0.930 . S
C2251 C2252 1.355 . S
C2251 C2253 1.415 . S
C2252 C2251 1.355 . S
C2252 C2254 1.419 . S
C2253 C2248 1.425 . S
C2253 C2250 1.409 . S
C2253 C2251 1.415 . S
C2254 H2244 0.930 . S
C2254 C2252 1.419 . S
C2254 C2255 1.362 . S
C2255 H2245 0.930 . S
C2255 C2248 1.409 . S
C2255 C2254 1.362 . S
H2256 C2262 0.930 . S
H2257 C2265 0.930 . S
H2258 C2266 0.930 . S
H2259 C2267 0.930 . S
H2260 C2270 0.930 . S
H2261 C2271 0.930 1_565 S
C2262 H2256 0.930 . S
C2262 C2263 1.355 . S
C2262 C2264 1.415 . S
C2263 C2262 1.355 . S
C2263 C2265 1.419 . S
C2264 C2262 1.415 . S
C2264 C2269 1.425 . S
C2264 C2271 1.409 . S
C2265 H2257 0.930 . S
C2265 C2263 1.419 . S
C2265 C2266 1.362 . S
C2266 H2258 0.930 . S
C2266 C2265 1.362 . S
C2266 C2269 1.409 . S
C2267 H2259 0.930 . S
C2267 C2268 1.355 . S
C2267 C2269 1.415 . S
C2268 C2267 1.355 . S
C2268 C2270 1.419 . S
C2269 C2264 1.425 . S
C2269 C2266 1.409 . S
C2269 C2267 1.415 . S
C2270 H2260 0.930 . S
C2270 C2268 1.419 . S
C2270 C2271 1.362 . S
C2271 H2261 0.930 1_545 S
C2271 C2264 1.409 . S
C2271 C2270 1.362 . S
H2272 C2278 0.930 . S
H2273 C2281 0.930 . S
H2274 C2282 0.930 . S
H2275 C2283 0.930 . S
H2276 C2286 0.930 . S
H2277 C2287 0.930 . S
C2278 H2272 0.930 . S
C2278 C2279 1.355 . S
C2278 C2280 1.415 . S
C2279 C2278 1.355 . S
C2279 C2281 1.419 . S
C2280 C2278 1.415 . S
C2280 C2285 1.425 . S
C2280 C2287 1.409 . S
C2281 H2273 0.930 . S
C2281 C2279 1.419 . S
C2281 C2282 1.362 . S
C2282 H2274 0.930 . S
C2282 C2281 1.362 . S
C2282 C2285 1.409 . S
C2283 H2275 0.930 . S
C2283 C2284 1.355 . S
C2283 C2285 1.415 . S
C2284 C2283 1.355 . S
C2284 C2286 1.419 . S
C2285 C2280 1.425 . S
C2285 C2282 1.409 . S
C2285 C2283 1.415 . S
C2286 H2276 0.930 . S
C2286 C2284 1.419 . S
C2286 C2287 1.362 . S
C2287 H2277 0.930 . S
C2287 C2280 1.409 . S
C2287 C2286 1.362 . S
H2288 C2294 0.930 . S
H2289 C2297 0.930 . S
H2290 C2298 0.930 . S
H2291 C2299 0.930 1_565 S
H2292 C2302 0.930 . S
H2293 C2303 0.930 . S
C2294 H2288 0.930 . S
C2294 C2295 1.355 1_545 S
C2294 C2296 1.415 . S
C2295 C2294 1.355 1_565 S
C2295 C2297 1.419 . S
C2296 C2294 1.415 . S
C2296 C2301 1.445 . S
C2296 C2303 1.409 . S
C2297 H2289 0.930 . S
C2297 C2295 1.419 . S
C2297 C2298 1.362 . S
C2298 H2290 0.930 . S
C2298 C2297 1.362 . S
C2298 C2301 1.390 1_565 S
C2299 H2291 0.930 1_545 S
C2299 C2300 1.355 . S
C2299 C2301 1.416 . S
C2300 C2299 1.355 . S
C2300 C2302 1.419 . S
C2301 C2296 1.445 . S
C2301 C2298 1.390 1_545 S
C2301 C2299 1.416 . S
C2302 H2292 0.930 . S
C2302 C2300 1.419 . S
C2302 C2303 1.362 . S
C2303 H2293 0.930 . S
C2303 C2296 1.409 . S
C2303 C2302 1.362 . S
H2304 C2310 0.930 . S
H2305 C2313 0.930 . S
H2306 C2314 0.930 . S
H2307 C2315 0.930 . S
H2308 C2318 0.930 . S
H2309 C2319 0.930 . S
C2310 H2304 0.930 . S
C2310 C2311 1.355 . S
C2310 C2312 1.415 . S
C2311 C2310 1.355 . S
C2311 C2313 1.419 . S
C2312 C2310 1.415 . S
C2312 C2317 1.425 . S
C2312 C2319 1.409 . S
C2313 H2305 0.930 . S
C2313 C2311 1.419 . S
C2313 C2314 1.362 . S
C2314 H2306 0.930 . S
C2314 C2313 1.362 . S
C2314 C2317 1.409 . S
C2315 H2307 0.930 . S
C2315 C2316 1.355 . S
C2315 C2317 1.415 . S
C2316 C2315 1.355 . S
C2316 C2318 1.419 . S
C2317 C2312 1.425 . S
C2317 C2314 1.409 . S
C2317 C2315 1.415 . S
C2318 H2308 0.930 . S
C2318 C2316 1.419 . S
C2318 C2319 1.362 . S
C2319 H2309 0.930 . S
C2319 C2312 1.409 . S
C2319 C2318 1.362 . S
H2320 C2326 0.930 . S
H2321 C2329 0.930 . S
H2322 C2330 0.896 1_556 S
H2323 C2331 0.930 1_556 S
H2324 C2334 0.930 . S
H2325 C2335 0.930 . S
C2326 H2320 0.930 . S
C2326 C2327 1.355 . S
C2326 C2328 1.415 . S
C2327 C2326 1.355 . S
C2327 C2329 1.419 . S
C2328 C2326 1.415 . S
C2328 C2333 1.425 . S
C2328 C2335 1.409 . S
C2329 H2321 0.930 . S
C2329 C2327 1.419 . S
C2329 C2330 1.362 . S
C2330 H2322 0.896 1_554 S
C2330 C2329 1.362 . S
C2330 C2333 1.409 . S
C2331 H2323 0.930 1_554 S
C2331 C2332 1.355 . S
C2331 C2333 1.415 . S
C2332 C2331 1.355 . S
C2332 C2334 1.419 . S
C2333 C2328 1.425 . S
C2333 C2330 1.409 . S
C2333 C2331 1.415 . S
C2334 H2324 0.930 . S
C2334 C2332 1.419 . S
C2334 C2335 1.362 . S
C2335 H2325 0.930 . S
C2335 C2328 1.409 . S
C2335 C2334 1.362 . S
H2336 C2342 0.930 . S
H2337 C2345 0.930 . S
H2338 C2346 0.930 . S
H2339 C2347 0.930 . S
H2340 C2350 0.930 . S
H2341 C2351 0.930 . S
C2342 H2336 0.930 . S
C2342 C2343 1.355 . S
C2342 C2344 1.415 . S
C2343 C2342 1.355 . S
C2343 C2345 1.419 . S
C2344 C2342 1.415 . S
C2344 C2349 1.425 . S
C2344 C2351 1.409 . S
C2345 H2337 0.930 . S
C2345 C2343 1.419 . S
C2345 C2346 1.362 . S
C2346 H2338 0.930 . S
C2346 C2345 1.362 . S
C2346 C2349 1.409 . S
C2347 H2339 0.930 . S
C2347 C2348 1.355 . S
C2347 C2349 1.415 . S
C2348 C2347 1.355 . S
C2348 C2350 1.419 . S
C2349 C2344 1.425 . S
C2349 C2346 1.409 . S
C2349 C2347 1.415 . S
C2350 H2340 0.930 . S
C2350 C2348 1.419 . S
C2350 C2351 1.362 . S
C2351 H2341 0.930 . S
C2351 C2344 1.409 . S
C2351 C2350 1.362 . S
H2352 C2358 0.930 . S
H2353 C2361 0.930 . S
H2354 C2362 0.930 . S
H2355 C2363 0.930 . S
H2356 C2366 0.930 . S
H2357 C2367 0.930 . S
C2358 H2352 0.930 . S
C2358 C2359 1.355 . S
C2358 C2360 1.415 . S
C2359 C2358 1.355 . S
C2359 C2361 1.419 . S
C2360 C2358 1.415 . S
C2360 C2365 1.425 . S
C2360 C2367 1.409 . S
C2361 H2353 0.930 . S
C2361 C2359 1.419 . S
C2361 C2362 1.362 . S
C2362 H2354 0.930 . S
C2362 C2361 1.362 . S
C2362 C2365 1.409 . S
C2363 H2355 0.930 . S
C2363 C2364 1.355 . S
C2363 C2365 1.415 . S
C2364 C2363 1.355 . S
C2364 C2366 1.419 . S
C2365 C2360 1.425 . S
C2365 C2362 1.409 . S
C2365 C2363 1.415 . S
C2366 H2356 0.930 . S
C2366 C2364 1.419 . S
C2366 C2367 1.362 . S
C2367 H2357 0.930 . S
C2367 C2360 1.409 . S
C2367 C2366 1.362 . S
H2368 C2374 0.930 . S
H2369 C2377 0.930 . S
H2370 C2378 0.930 . S
H2371 C2379 0.930 . S
H2372 C2382 0.930 . S
H2373 C2383 0.930 . S
C2374 H2368 0.930 . S
C2374 C2375 1.355 . S
C2374 C2376 1.415 . S
C2375 C2374 1.355 . S
C2375 C2377 1.419 . S
C2376 C2374 1.415 . S
C2376 C2381 1.425 . S
C2376 C2383 1.409 . S
C2377 H2369 0.930 . S
C2377 C2375 1.419 . S
C2377 C2378 1.362 . S
C2378 H2370 0.930 . S
C2378 C2377 1.362 . S
C2378 C2381 1.409 . S
C2379 H2371 0.930 . S
C2379 C2380 1.355 . S
C2379 C2381 1.415 . S
C2380 C2379 1.355 . S
C2380 C2382 1.419 . S
C2381 C2376 1.425 . S
C2381 C2378 1.409 . S
C2381 C2379 1.415 . S
C2382 H2372 0.930 . S
C2382 C2380 1.419 . S
C2382 C2383 1.362 . S
C2383 H2373 0.930 . S
C2383 C2376 1.409 . S
C2383 C2382 1.362 . S
H2384 C2390 0.930 . S
H2385 C2393 0.930 . S
H2386 C2394 0.930 . S
H2387 C2395 0.930 . S
H2388 C2398 0.930 . S
H2389 C2399 0.930 . S
C2390 H2384 0.930 . S
C2390 C2391 1.355 1_565 S
C2390 C2392 1.415 . S
C2391 C2390 1.355 1_545 S
C2391 C2393 1.419 . S
C2392 C2390 1.415 . S
C2392 C2397 1.425 . S
C2392 C2399 1.409 . S
C2393 H2385 0.930 . S
C2393 C2391 1.419 . S
C2393 C2394 1.362 . S
C2394 H2386 0.930 . S
C2394 C2393 1.362 . S
C2394 C2397 1.409 1_545 S
C2395 H2387 0.930 . S
C2395 C2396 1.355 . S
C2395 C2397 1.415 . S
C2396 C2395 1.355 . S
C2396 C2398 1.419 . S
C2397 C2392 1.425 . S
C2397 C2394 1.409 1_565 S
C2397 C2395 1.415 . S
C2398 H2388 0.930 . S
C2398 C2396 1.419 . S
C2398 C2399 1.362 . S
C2399 H2389 0.930 . S
C2399 C2392 1.409 . S
C2399 C2398 1.362 . S
H2400 C2406 0.930 . S
H2401 C2409 0.930 . S
H2402 C2410 0.930 . S
H2403 C2411 0.930 . S
H2404 C2414 0.930 1_545 S
H2405 C2415 0.930 . S
C2406 H2400 0.930 . S
C2406 C2407 1.355 . S
C2406 C2408 1.415 . S
C2407 C2406 1.355 . S
C2407 C2409 1.419 . S
C2408 C2406 1.415 . S
C2408 C2413 1.425 . S
C2408 C2415 1.409 . S
C2409 H2401 0.930 . S
C2409 C2407 1.419 . S
C2409 C2410 1.362 . S
C2410 H2402 0.930 . S
C2410 C2409 1.362 . S
C2410 C2413 1.409 . S
C2411 H2403 0.930 . S
C2411 C2412 1.355 . S
C2411 C2413 1.415 . S
C2412 C2411 1.355 . S
C2412 C2414 1.419 . S
C2413 C2408 1.425 . S
C2413 C2410 1.409 . S
C2413 C2411 1.415 . S
C2414 H2404 0.930 1_565 S
C2414 C2412 1.419 . S
C2414 C2415 1.362 . S
C2415 H2405 0.930 . S
C2415 C2408 1.409 . S
C2415 C2414 1.362 . S
H2416 C2422 0.930 . S
H2417 C2425 0.930 . S
H2418 C2426 0.930 . S
H2419 C2427 0.930 . S
H2420 C2430 0.930 . S
H2421 C2431 0.930 . S
C2422 H2416 0.930 . S
C2422 C2423 1.355 . S
C2422 C2424 1.415 . S
C2423 C2422 1.355 . S
C2423 C2425 1.419 . S
C2424 C2422 1.415 . S
C2424 C2429 1.425 . S
C2424 C2431 1.409 . S
C2425 H2417 0.930 . S
C2425 C2423 1.419 . S
C2425 C2426 1.362 . S
C2426 H2418 0.930 . S
C2426 C2425 1.362 . S
C2426 C2429 1.409 . S
C2427 H2419 0.930 . S
C2427 C2428 1.355 . S
C2427 C2429 1.415 . S
C2428 C2427 1.355 . S
C2428 C2430 1.419 . S
C2429 C2424 1.425 . S
C2429 C2426 1.409 . S
C2429 C2427 1.415 . S
C2430 H2420 0.930 . S
C2430 C2428 1.419 . S
C2430 C2431 1.362 . S
C2431 H2421 0.930 . S
C2431 C2424 1.409 . S
C2431 C2430 1.362 . S
H2432 C2438 0.930 . S
H2433 C2441 0.930 . S
H2434 C2442 0.930 . S
H2435 C2443 0.930 . S
H2436 C2446 0.930 . S
H2437 C2447 0.930 . S
C2438 H2432 0.930 . S
C2438 C2439 1.355 . S
C2438 C2440 1.415 . S
C2439 C2438 1.355 . S
C2439 C2441 1.419 . S
C2440 C2438 1.415 . S
C2440 C2445 1.425 . S
C2440 C2447 1.409 . S
C2441 H2433 0.930 . S
C2441 C2439 1.419 . S
C2441 C2442 1.362 . S
C2442 H2434 0.930 . S
C2442 C2441 1.362 . S
C2442 C2445 1.409 . S
C2443 H2435 0.930 . S
C2443 C2444 1.355 . S
C2443 C2445 1.415 . S
C2444 C2443 1.355 . S
C2444 C2446 1.419 . S
C2445 C2440 1.425 . S
C2445 C2442 1.409 . S
C2445 C2443 1.415 . S
C2446 H2436 0.930 . S
C2446 C2444 1.419 . S
C2446 C2447 1.362 . S
C2447 H2437 0.930 . S
C2447 C2440 1.409 . S
C2447 C2446 1.362 . S
H2448 C2454 0.930 . S
H2449 C2457 0.930 . S
H2450 C2458 0.930 . S
H2451 C2459 0.930 . S
H2452 C2462 0.930 . S
H2453 C2463 0.930 . S
C2454 H2448 0.930 . S
C2454 C2455 1.355 . S
C2454 C2456 1.415 . S
C2455 C2454 1.355 . S
C2455 C2457 1.419 . S
C2456 C2454 1.415 . S
C2456 C2461 1.425 . S
C2456 C2463 1.409 . S
C2457 H2449 0.930 . S
C2457 C2455 1.419 . S
C2457 C2458 1.362 . S
C2458 H2450 0.930 . S
C2458 C2457 1.362 . S
C2458 C2461 1.409 . S
C2459 H2451 0.930 . S
C2459 C2460 1.355 . S
C2459 C2461 1.415 . S
C2460 C2459 1.355 . S
C2460 C2462 1.419 . S
C2461 C2456 1.425 . S
C2461 C2458 1.409 . S
C2461 C2459 1.415 . S
C2462 H2452 0.930 . S
C2462 C2460 1.419 . S
C2462 C2463 1.362 . S
C2463 H2453 0.930 . S
C2463 C2456 1.409 . S
C2463 C2462 1.362 . S
H2464 C2470 0.930 . S
H2465 C2473 0.930 . S
H2466 C2474 0.930 . S
H2467 C2475 0.930 . S
H2468 C2478 0.930 . S
H2469 C2479 0.930 . S
C2470 H2464 0.930 . S
C2470 C2471 1.355 . S
C2470 C2472 1.415 . S
C2471 C2470 1.355 . S
C2471 C2473 1.419 . S
C2472 C2470 1.415 . S
C2472 C2477 1.425 . S
C2472 C2479 1.409 . S
C2473 H2465 0.930 . S
C2473 C2471 1.419 . S
C2473 C2474 1.362 . S
C2474 H2466 0.930 . S
C2474 C2473 1.362 . S
C2474 C2477 1.409 . S
C2475 H2467 0.930 . S
C2475 C2476 1.355 . S
C2475 C2477 1.415 . S
C2476 C2475 1.355 . S
C2476 C2478 1.419 . S
C2477 C2472 1.425 . S
C2477 C2474 1.409 . S
C2477 C2475 1.415 . S
C2478 H2468 0.930 . S
C2478 C2476 1.419 . S
C2478 C2479 1.362 . S
C2479 H2469 0.930 . S
C2479 C2472 1.409 . S
C2479 C2478 1.362 . S
H2480 C2486 0.930 . S
H2481 C2489 0.930 . S
H2482 C2490 0.930 . S
H2483 C2491 0.930 . S
H2484 C2494 0.930 . S
H2485 C2495 0.930 . S
C2486 H2480 0.930 . S
C2486 C2487 1.355 1_655 S
C2486 C2488 1.415 1_656 S
C2487 C2486 1.355 1_455 S
C2487 C2489 1.419 . S
C2488 C2486 1.415 1_454 S
C2488 C2493 1.426 . S
C2488 C2495 1.409 1_455 S
C2489 H2481 0.930 . S
C2489 C2487 1.419 . S
C2489 C2490 1.362 . S
C2490 H2482 0.930 . S
C2490 C2489 1.362 . S
C2490 C2493 1.408 1_556 S
C2491 H2483 0.930 . S
C2491 C2492 1.355 . S
C2491 C2493 1.415 . S
C2492 C2491 1.355 . S
C2492 C2494 1.419 1_455 S
C2493 C2488 1.426 . S
C2493 C2490 1.408 1_554 S
C2493 C2491 1.415 . S
C2494 H2484 0.930 . S
C2494 C2492 1.419 1_655 S
C2494 C2495 1.362 . S
C2495 H2485 0.930 . S
C2495 C2488 1.409 1_655 S
C2495 C2494 1.362 . S
H2496 C2502 0.930 . S
H2497 C2505 0.930 . S
H2498 C2506 0.925 1_455 S
H2499 C2507 0.930 . S
H2500 C2510 0.930 . S
H2501 C2511 0.930 . S
C2502 H2496 0.930 . S
C2502 C2503 1.355 1_655 S
C2502 C2504 1.415 . S
C2503 C2502 1.355 1_455 S
C2503 C2505 1.419 . S
C2504 C2502 1.415 . S
C2504 C2509 1.425 . S
C2504 C2511 1.409 . S
C2505 H2497 0.930 . S
C2505 C2503 1.419 . S
C2505 C2506 1.340 1_455 S
C2506 H2498 0.925 1_655 S
C2506 C2505 1.340 1_655 S
C2506 C2509 1.437 . S
C2507 H2499 0.930 . S
C2507 C2508 1.355 . S
C2507 C2509 1.415 . S
C2508 C2507 1.355 . S
C2508 C2510 1.419 . S
C2509 C2504 1.425 . S
C2509 C2506 1.437 . S
C2509 C2507 1.415 . S
C2510 H2500 0.930 . S
C2510 C2508 1.419 . S
C2510 C2511 1.362 . S
C2511 H2501 0.930 . S
C2511 C2504 1.409 . S
C2511 C2510 1.362 . S
H2512 C2518 0.930 . S
H2513 C2521 0.930 . S
H2514 C2522 0.930 . S
H2515 C2523 0.930 . S
H2516 C2526 0.930 . S
H2517 C2527 0.930 . S
C2518 H2512 0.930 . S
C2518 C2519 1.355 . S
C2518 C2520 1.415 . S
C2519 C2518 1.355 . S
C2519 C2521 1.419 . S
C2520 C2518 1.415 . S
C2520 C2525 1.425 . S
C2520 C2527 1.409 . S
C2521 H2513 0.930 . S
C2521 C2519 1.419 . S
C2521 C2522 1.362 . S
C2522 H2514 0.930 . S
C2522 C2521 1.362 . S
C2522 C2525 1.409 . S
C2523 H2515 0.930 . S
C2523 C2524 1.355 . S
C2523 C2525 1.415 . S
C2524 C2523 1.355 . S
C2524 C2526 1.419 . S
C2525 C2520 1.425 . S
C2525 C2522 1.409 . S
C2525 C2523 1.415 . S
C2526 H2516 0.930 . S
C2526 C2524 1.419 . S
C2526 C2527 1.362 . S
C2527 H2517 0.930 . S
C2527 C2520 1.409 . S
C2527 C2526 1.362 . S
H2528 C2534 0.930 . S
H2529 C2537 0.930 . S
H2530 C2538 0.930 . S
H2531 C2539 0.930 . S
H2532 C2542 0.930 . S
H2533 C2543 0.930 . S
C2534 H2528 0.930 . S
C2534 C2535 1.355 . S
C2534 C2536 1.415 . S
C2535 C2534 1.355 . S
C2535 C2537 1.419 . S
C2536 C2534 1.415 . S
C2536 C2541 1.425 . S
C2536 C2543 1.409 . S
C2537 H2529 0.930 . S
C2537 C2535 1.419 . S
C2537 C2538 1.362 . S
C2538 H2530 0.930 . S
C2538 C2537 1.362 . S
C2538 C2541 1.409 . S
C2539 H2531 0.930 . S
C2539 C2540 1.355 . S
C2539 C2541 1.415 . S
C2540 C2539 1.355 . S
C2540 C2542 1.419 . S
C2541 C2536 1.425 . S
C2541 C2538 1.409 . S
C2541 C2539 1.415 . S
C2542 H2532 0.930 . S
C2542 C2540 1.419 . S
C2542 C2543 1.362 . S
C2543 H2533 0.930 . S
C2543 C2536 1.409 . S
C2543 C2542 1.362 . S
H2544 C2550 0.930 . S
H2545 C2553 0.930 . S
H2546 C2554 0.930 . S
H2547 C2555 0.930 . S
H2548 C2558 0.930 . S
H2549 C2559 0.930 . S
C2550 H2544 0.930 . S
C2550 C2551 1.355 . S
C2550 C2552 1.415 . S
C2551 C2550 1.355 . S
C2551 C2553 1.419 . S
C2552 C2550 1.415 . S
C2552 C2557 1.425 . S
C2552 C2559 1.409 . S
C2553 H2545 0.930 . S
C2553 C2551 1.419 . S
C2553 C2554 1.362 . S
C2554 H2546 0.930 . S
C2554 C2553 1.362 . S
C2554 C2557 1.409 . S
C2555 H2547 0.930 . S
C2555 C2556 1.355 . S
C2555 C2557 1.415 . S
C2556 C2555 1.355 . S
C2556 C2558 1.419 . S
C2557 C2552 1.425 . S
C2557 C2554 1.409 . S
C2557 C2555 1.415 . S
C2558 H2548 0.930 . S
C2558 C2556 1.419 . S
C2558 C2559 1.362 . S
C2559 H2549 0.930 . S
C2559 C2552 1.409 . S
C2559 C2558 1.362 . S
H2560 C2566 0.930 . S
H2561 C2569 0.930 . S
H2562 C2570 0.930 . S
H2563 C2571 0.930 . S
H2564 C2574 0.930 . S
H2565 C2575 0.930 . S
C2566 H2560 0.930 . S
C2566 C2567 1.355 . S
C2566 C2568 1.415 . S
C2567 C2566 1.355 . S
C2567 C2569 1.419 . S
C2568 C2566 1.415 . S
C2568 C2573 1.425 . S
C2568 C2575 1.409 . S
C2569 H2561 0.930 . S
C2569 C2567 1.419 . S
C2569 C2570 1.362 . S
C2570 H2562 0.930 . S
C2570 C2569 1.362 . S
C2570 C2573 1.409 . S
C2571 H2563 0.930 . S
C2571 C2572 1.355 . S
C2571 C2573 1.415 . S
C2572 C2571 1.355 . S
C2572 C2574 1.419 . S
C2573 C2568 1.425 . S
C2573 C2570 1.409 . S
C2573 C2571 1.415 . S
C2574 H2564 0.930 . S
C2574 C2572 1.419 . S
C2574 C2575 1.362 . S
C2575 H2565 0.930 . S
C2575 C2568 1.409 . S
C2575 C2574 1.362 . S
H2576 C2582 0.930 . S
H2577 C2585 0.930 . S
H2578 C2586 0.930 . S
H2579 C2587 0.930 . S
H2580 C2590 0.930 . S
H2581 C2591 0.930 . S
C2582 H2576 0.930 . S
C2582 C2583 1.355 . S
C2582 C2584 1.415 . S
C2583 C2582 1.355 . S
C2583 C2585 1.419 . S
C2584 C2582 1.415 . S
C2584 C2589 1.425 . S
C2584 C2591 1.409 . S
C2585 H2577 0.930 . S
C2585 C2583 1.419 . S
C2585 C2586 1.362 . S
C2586 H2578 0.930 . S
C2586 C2585 1.362 . S
C2586 C2589 1.409 . S
C2587 H2579 0.930 . S
C2587 C2588 1.355 . S
C2587 C2589 1.415 . S
C2588 C2587 1.355 . S
C2588 C2590 1.419 . S
C2589 C2584 1.425 . S
C2589 C2586 1.409 . S
C2589 C2587 1.415 . S
C2590 H2580 0.930 . S
C2590 C2588 1.419 . S
C2590 C2591 1.362 . S
C2591 H2581 0.930 . S
C2591 C2584 1.409 . S
C2591 C2590 1.362 . S
H2592 C2598 0.930 . S
H2593 C2601 0.930 . S
H2594 C2602 0.930 1_554 S
H2595 C2603 0.930 . S
H2596 C2606 0.930 . S
H2597 C2607 0.930 . S
C2598 H2592 0.930 . S
C2598 C2599 1.355 1_556 S
C2598 C2600 1.415 . S
C2599 C2598 1.355 1_554 S
C2599 C2601 1.419 . S
C2600 C2598 1.415 . S
C2600 C2605 1.425 . S
C2600 C2607 1.409 . S
C2601 H2593 0.930 . S
C2601 C2599 1.419 . S
C2601 C2602 1.356 1_554 S
C2602 H2594 0.930 1_556 S
C2602 C2601 1.356 1_556 S
C2602 C2605 1.415 . S
C2603 H2595 0.930 . S
C2603 C2604 1.355 . S
C2603 C2605 1.415 . S
C2604 C2603 1.355 . S
C2604 C2606 1.419 . S
C2605 C2600 1.425 . S
C2605 C2602 1.415 . S
C2605 C2603 1.415 . S
C2606 H2596 0.930 . S
C2606 C2604 1.419 . S
C2606 C2607 1.362 . S
C2607 H2597 0.930 . S
C2607 C2600 1.409 . S
C2607 C2606 1.362 . S
H2608 C2614 0.930 . S
H2609 C2617 0.930 . S
H2610 C2618 0.930 . S
H2611 C2619 0.930 . S
H2612 C2622 0.930 . S
H2613 C2623 0.930 . S
C2614 H2608 0.930 . S
C2614 C2615 1.355 . S
C2614 C2616 1.415 . S
C2615 C2614 1.355 . S
C2615 C2617 1.419 . S
C2616 C2614 1.415 . S
C2616 C2621 1.425 . S
C2616 C2623 1.409 . S
C2617 H2609 0.930 . S
C2617 C2615 1.419 . S
C2617 C2618 1.362 . S
C2618 H2610 0.930 . S
C2618 C2617 1.362 . S
C2618 C2621 1.409 . S
C2619 H2611 0.930 . S
C2619 C2620 1.355 . S
C2619 C2621 1.415 . S
C2620 C2619 1.355 . S
C2620 C2622 1.419 . S
C2621 C2616 1.425 . S
C2621 C2618 1.409 . S
C2621 C2619 1.415 . S
C2622 H2612 0.930 . S
C2622 C2620 1.419 . S
C2622 C2623 1.362 . S
C2623 H2613 0.930 . S
C2623 C2616 1.409 . S
C2623 C2622 1.362 . S
H2624 C2630 0.930 . S
H2625 C2633 0.930 . S
H2626 C2634 0.930 . S
H2627 C2635 0.930 . S
H2628 C2638 0.930 . S
H2629 C2639 0.930 . S
C2630 H2624 0.930 . S
C2630 C2631 1.355 . S
C2630 C2632 1.415 . S
C2631 C2630 1.355 . S
C2631 C2633 1.419 . S
C2632 C2630 1.415 . S
C2632 C2637 1.425 . S
C2632 C2639 1.409 . S
C2633 H2625 0.930 . S
C2633 C2631 1.419 . S
C2633 C2634 1.362 . S
C2634 H2626 0.930 . S
C2634 C2633 1.362 . S
C2634 C2637 1.409 . S
C2635 H2627 0.930 . S
C2635 C2636 1.355 . S
C2635 C2637 1.415 . S
C2636 C2635 1.355 . S
C2636 C2638 1.419 . S
C2637 C2632 1.425 . S
C2637 C2634 1.409 . S
C2637 C2635 1.415 . S
C2638 H2628 0.930 . S
C2638 C2636 1.419 . S
C2638 C2639 1.362 . S
C2639 H2629 0.930 . S
C2639 C2632 1.409 . S
C2639 C2638 1.362 . S
H2640 C2646 0.930 . S
H2641 C2649 0.930 . S
H2642 C2650 0.930 . S
H2643 C2651 0.930 . S
H2644 C2654 0.930 . S
H2645 C2655 0.930 . S
C2646 H2640 0.930 . S
C2646 C2647 1.355 . S
C2646 C2648 1.415 . S
C2647 C2646 1.355 . S
C2647 C2649 1.419 . S
C2648 C2646 1.415 . S
C2648 C2653 1.425 . S
C2648 C2655 1.409 . S
C2649 H2641 0.930 . S
C2649 C2647 1.419 . S
C2649 C2650 1.362 . S
C2650 H2642 0.930 . S
C2650 C2649 1.362 . S
C2650 C2653 1.409 . S
C2651 H2643 0.930 . S
C2651 C2652 1.355 . S
C2651 C2653 1.415 . S
C2652 C2651 1.355 . S
C2652 C2654 1.419 . S
C2653 C2648 1.425 . S
C2653 C2650 1.409 . S
C2653 C2651 1.415 . S
C2654 H2644 0.930 . S
C2654 C2652 1.419 . S
C2654 C2655 1.362 . S
C2655 H2645 0.930 . S
C2655 C2648 1.409 . S
C2655 C2654 1.362 . S
H2656 C2662 0.930 . S
H2657 C2665 0.930 . S
H2658 C2666 0.930 . S
H2659 C2667 0.930 . S
H2660 C2670 0.930 . S
H2661 C2671 0.930 . S
C2662 H2656 0.930 . S
C2662 C2663 1.355 . S
C2662 C2664 1.415 . S
C2663 C2662 1.355 . S
C2663 C2665 1.419 . S
C2664 C2662 1.415 . S
C2664 C2669 1.425 . S
C2664 C2671 1.409 . S
C2665 H2657 0.930 . S
C2665 C2663 1.419 . S
C2665 C2666 1.362 . S
C2666 H2658 0.930 . S
C2666 C2665 1.362 . S
C2666 C2669 1.409 . S
C2667 H2659 0.930 . S
C2667 C2668 1.355 . S
C2667 C2669 1.415 . S
C2668 C2667 1.355 . S
C2668 C2670 1.419 . S
C2669 C2664 1.425 . S
C2669 C2666 1.409 . S
C2669 C2667 1.415 . S
C2670 H2660 0.930 . S
C2670 C2668 1.419 . S
C2670 C2671 1.362 . S
C2671 H2661 0.930 . S
C2671 C2664 1.409 . S
C2671 C2670 1.362 . S
H2672 C2678 0.930 . S
H2673 C2681 0.930 . S
H2674 C2682 0.930 . S
H2675 C2683 0.930 . S
H2676 C2686 0.930 . S
H2677 C2687 0.930 . S
C2678 H2672 0.930 . S
C2678 C2679 1.355 . S
C2678 C2680 1.415 . S
C2679 C2678 1.355 . S
C2679 C2681 1.419 . S
C2680 C2678 1.415 . S
C2680 C2685 1.425 . S
C2680 C2687 1.409 . S
C2681 H2673 0.930 . S
C2681 C2679 1.419 . S
C2681 C2682 1.362 . S
C2682 H2674 0.930 . S
C2682 C2681 1.362 . S
C2682 C2685 1.409 . S
C2683 H2675 0.930 . S
C2683 C2684 1.355 . S
C2683 C2685 1.415 . S
C2684 C2683 1.355 . S
C2684 C2686 1.419 . S
C2685 C2680 1.425 . S
C2685 C2682 1.409 . S
C2685 C2683 1.415 . S
C2686 H2676 0.930 . S
C2686 C2684 1.419 . S
C2686 C2687 1.362 . S
C2687 H2677 0.930 . S
C2687 C2680 1.409 . S
C2687 C2686 1.362 . S
H2688 C2694 0.930 . S
H2689 C2697 0.930 . S
H2690 C2698 0.930 . S
H2691 C2699 0.930 . S
H2692 C2702 0.930 . S
H2693 C2703 0.930 . S
C2694 H2688 0.930 . S
C2694 C2695 1.355 . S
C2694 C2696 1.415 . S
C2695 C2694 1.355 . S
C2695 C2697 1.419 . S
C2696 C2694 1.415 . S
C2696 C2701 1.425 . S
C2696 C2703 1.409 . S
C2697 H2689 0.930 . S
C2697 C2695 1.419 . S
C2697 C2698 1.362 . S
C2698 H2690 0.930 . S
C2698 C2697 1.362 . S
C2698 C2701 1.409 . S
C2699 H2691 0.930 . S
C2699 C2700 1.355 . S
C2699 C2701 1.415 . S
C2700 C2699 1.355 . S
C2700 C2702 1.419 . S
C2701 C2696 1.425 . S
C2701 C2698 1.409 . S
C2701 C2699 1.415 . S
C2702 H2692 0.930 . S
C2702 C2700 1.419 . S
C2702 C2703 1.362 . S
C2703 H2693 0.930 . S
C2703 C2696 1.409 . S
C2703 C2702 1.362 . S
H2704 C2710 0.930 . S
H2705 C2713 0.930 . S
H2706 C2714 0.930 . S
H2707 C2715 0.930 . S
H2708 C2718 0.930 . S
H2709 C2719 0.930 . S
C2710 H2704 0.930 . S
C2710 C2711 1.355 . S
C2710 C2712 1.415 . S
C2711 C2710 1.355 . S
C2711 C2713 1.419 . S
C2712 C2710 1.415 . S
C2712 C2717 1.425 . S
C2712 C2719 1.409 . S
C2713 H2705 0.930 . S
C2713 C2711 1.419 . S
C2713 C2714 1.362 . S
C2714 H2706 0.930 . S
C2714 C2713 1.362 . S
C2714 C2717 1.409 . S
C2715 H2707 0.930 . S
C2715 C2716 1.355 . S
C2715 C2717 1.415 . S
C2716 C2715 1.355 . S
C2716 C2718 1.419 . S
C2717 C2712 1.425 . S
C2717 C2714 1.409 . S
C2717 C2715 1.415 . S
C2718 H2708 0.930 . S
C2718 C2716 1.419 . S
C2718 C2719 1.362 . S
C2719 H2709 0.930 . S
C2719 C2712 1.409 . S
C2719 C2718 1.362 . S
H2720 C2726 0.930 . S
H2721 C2729 0.930 . S
H2722 C2730 0.930 . S
H2723 C2731 0.930 . S
H2724 C2734 0.930 . S
H2725 C2735 0.930 . S
C2726 H2720 0.930 . S
C2726 C2727 1.355 . S
C2726 C2728 1.415 . S
C2727 C2726 1.355 . S
C2727 C2729 1.419 . S
C2728 C2726 1.415 . S
C2728 C2733 1.425 . S
C2728 C2735 1.409 . S
C2729 H2721 0.930 . S
C2729 C2727 1.419 . S
C2729 C2730 1.362 . S
C2730 H2722 0.930 . S
C2730 C2729 1.362 . S
C2730 C2733 1.409 . S
C2731 H2723 0.930 . S
C2731 C2732 1.355 . S
C2731 C2733 1.415 . S
C2732 C2731 1.355 . S
C2732 C2734 1.419 . S
C2733 C2728 1.425 . S
C2733 C2730 1.409 . S
C2733 C2731 1.415 . S
C2734 H2724 0.930 . S
C2734 C2732 1.419 . S
C2734 C2735 1.362 . S
C2735 H2725 0.930 . S
C2735 C2728 1.409 . S
C2735 C2734 1.362 . S
H2736 C2742 0.930 . S
H2737 C2745 0.930 . S
H2738 C2746 0.930 . S
H2739 C2747 0.930 . S
H2740 C2750 0.930 . S
H2741 C2751 0.930 . S
C2742 H2736 0.930 . S
C2742 C2743 1.355 . S
C2742 C2744 1.415 . S
C2743 C2742 1.355 . S
C2743 C2745 1.419 . S
C2744 C2742 1.415 . S
C2744 C2749 1.425 . S
C2744 C2751 1.409 . S
C2745 H2737 0.930 . S
C2745 C2743 1.419 . S
C2745 C2746 1.362 . S
C2746 H2738 0.930 . S
C2746 C2745 1.362 . S
C2746 C2749 1.409 . S
C2747 H2739 0.930 . S
C2747 C2748 1.355 . S
C2747 C2749 1.415 . S
C2748 C2747 1.355 . S
C2748 C2750 1.419 . S
C2749 C2744 1.425 . S
C2749 C2746 1.409 . S
C2749 C2747 1.415 . S
C2750 H2740 0.930 . S
C2750 C2748 1.419 . S
C2750 C2751 1.362 . S
C2751 H2741 0.930 . S
C2751 C2744 1.409 . S
C2751 C2750 1.362 . S
H2752 C2758 0.930 . S
H2753 C2761 0.940 . S
H2754 C2762 0.930 . S
H2755 C2763 0.930 . S
H2756 C2766 0.930 . S
H2757 C2767 0.930 . S
C2758 H2752 0.930 . S
C2758 C2759 1.355 1_556 S
C2758 C2760 1.413 1_556 S
C2759 C2758 1.355 1_554 S
C2759 C2761 1.406 1_565 S
C2760 C2758 1.413 1_554 S
C2760 C2765 1.446 1_565 S
C2760 C2767 1.392 1_554 S
C2761 H2753 0.940 . S
C2761 C2759 1.406 1_545 S
C2761 C2762 1.366 . S
C2762 H2754 0.930 . S
C2762 C2761 1.366 . S
C2762 C2765 1.409 . S
C2763 H2755 0.930 . S
C2763 C2764 1.355 . S
C2763 C2765 1.415 . S
C2764 C2763 1.355 . S
C2764 C2766 1.419 1_544 S
C2765 C2760 1.446 1_545 S
C2765 C2762 1.409 . S
C2765 C2763 1.415 . S
C2766 H2756 0.930 . S
C2766 C2764 1.419 1_566 S
C2766 C2767 1.362 . S
C2767 H2757 0.930 . S
C2767 C2760 1.392 1_556 S
C2767 C2766 1.362 . S
H2768 C2774 0.930 . S
H2769 C2777 0.930 . S
H2770 C2778 0.930 . S
H2771 C2779 0.930 . S
H2772 C2782 0.930 . S
H2773 C2783 0.930 . S
C2774 H2768 0.930 . S
C2774 C2775 1.355 . S
C2774 C2776 1.415 . S
C2775 C2774 1.355 . S
C2775 C2777 1.419 . S
C2776 C2774 1.415 . S
C2776 C2781 1.425 . S
C2776 C2783 1.409 . S
C2777 H2769 0.930 . S
C2777 C2775 1.419 . S
C2777 C2778 1.362 . S
C2778 H2770 0.930 . S
C2778 C2777 1.362 . S
C2778 C2781 1.409 . S
C2779 H2771 0.930 . S
C2779 C2780 1.355 . S
C2779 C2781 1.415 . S
C2780 C2779 1.355 . S
C2780 C2782 1.419 . S
C2781 C2776 1.425 . S
C2781 C2778 1.409 . S
C2781 C2779 1.415 . S
C2782 H2772 0.930 . S
C2782 C2780 1.419 . S
C2782 C2783 1.362 . S
C2783 H2773 0.930 . S
C2783 C2776 1.409 . S
C2783 C2782 1.362 . S
H2784 C2790 0.930 . S
H2785 C2793 0.930 1_556 S
H2786 C2794 0.930 . S
H2787 C2795 0.930 . S
H2788 C2798 0.930 . S
H2789 C2799 0.930 . S
C2790 H2784 0.930 . S
C2790 C2791 1.355 . S
C2790 C2792 1.415 . S
C2791 C2790 1.355 . S
C2791 C2793 1.419 . S
C2792 C2790 1.415 . S
C2792 C2797 1.425 . S
C2792 C2799 1.409 . S
C2793 H2785 0.930 1_554 S
C2793 C2791 1.419 . S
C2793 C2794 1.362 . S
C2794 H2786 0.930 . S
C2794 C2793 1.362 . S
C2794 C2797 1.409 . S
C2795 H2787 0.930 . S
C2795 C2796 1.355 . S
C2795 C2797 1.415 . S
C2796 C2795 1.355 . S
C2796 C2798 1.419 . S
C2797 C2792 1.425 . S
C2797 C2794 1.409 . S
C2797 C2795 1.415 . S
C2798 H2788 0.930 . S
C2798 C2796 1.419 . S
C2798 C2799 1.362 . S
C2799 H2789 0.930 . S
C2799 C2792 1.409 . S
C2799 C2798 1.362 . S
H2800 C2806 0.930 . S
H2801 C2809 0.930 . S
H2802 C2810 0.930 . S
H2803 C2811 0.930 . S
H2804 C2814 0.930 . S
H2805 C2815 0.930 . S
C2806 H2800 0.930 . S
C2806 C2807 1.355 . S
C2806 C2808 1.415 . S
C2807 C2806 1.355 . S
C2807 C2809 1.419 . S
C2808 C2806 1.415 . S
C2808 C2813 1.425 . S
C2808 C2815 1.409 . S
C2809 H2801 0.930 . S
C2809 C2807 1.419 . S
C2809 C2810 1.362 . S
C2810 H2802 0.930 . S
C2810 C2809 1.362 . S
C2810 C2813 1.409 . S
C2811 H2803 0.930 . S
C2811 C2812 1.355 . S
C2811 C2813 1.415 . S
C2812 C2811 1.355 . S
C2812 C2814 1.419 . S
C2813 C2808 1.425 . S
C2813 C2810 1.409 . S
C2813 C2811 1.415 . S
C2814 H2804 0.930 . S
C2814 C2812 1.419 . S
C2814 C2815 1.362 . S
C2815 H2805 0.930 . S
C2815 C2808 1.409 . S
C2815 C2814 1.362 . S
H2816 C2822 0.930 . S
H2817 C2825 0.930 . S
H2818 C2826 0.930 . S
H2819 C2827 0.930 . S
H2820 C2830 0.930 . S
H2821 C2831 0.930 . S
C2822 H2816 0.930 . S
C2822 C2823 1.355 . S
C2822 C2824 1.415 . S
C2823 C2822 1.355 . S
C2823 C2825 1.419 . S
C2824 C2822 1.415 . S
C2824 C2829 1.425 . S
C2824 C2831 1.409 . S
C2825 H2817 0.930 . S
C2825 C2823 1.419 . S
C2825 C2826 1.362 . S
C2826 H2818 0.930 . S
C2826 C2825 1.362 . S
C2826 C2829 1.409 . S
C2827 H2819 0.930 . S
C2827 C2828 1.355 . S
C2827 C2829 1.415 . S
C2828 C2827 1.355 . S
C2828 C2830 1.419 . S
C2829 C2824 1.425 . S
C2829 C2826 1.409 . S
C2829 C2827 1.415 . S
C2830 H2820 0.930 . S
C2830 C2828 1.419 . S
C2830 C2831 1.362 . S
C2831 H2821 0.930 . S
C2831 C2824 1.409 . S
C2831 C2830 1.362 . S
H2832 C2838 0.930 . S
H2833 C2841 0.930 . S
H2834 C2842 0.930 . S
H2835 C2843 0.930 . S
H2836 C2846 0.930 . S
H2837 C2847 0.930 . S
C2838 H2832 0.930 . S
C2838 C2839 1.355 . S
C2838 C2840 1.415 . S
C2839 C2838 1.355 . S
C2839 C2841 1.419 . S
C2840 C2838 1.415 . S
C2840 C2845 1.425 . S
C2840 C2847 1.409 . S
C2841 H2833 0.930 . S
C2841 C2839 1.419 . S
C2841 C2842 1.362 . S
C2842 H2834 0.930 . S
C2842 C2841 1.362 . S
C2842 C2845 1.409 . S
C2843 H2835 0.930 . S
C2843 C2844 1.355 . S
C2843 C2845 1.415 . S
C2844 C2843 1.355 . S
C2844 C2846 1.419 . S
C2845 C2840 1.425 . S
C2845 C2842 1.409 . S
C2845 C2843 1.415 . S
C2846 H2836 0.930 . S
C2846 C2844 1.419 . S
C2846 C2847 1.362 . S
C2847 H2837 0.930 . S
C2847 C2840 1.409 . S
C2847 C2846 1.362 . S
H2848 C2854 0.930 . S
H2849 C2857 0.930 . S
H2850 C2858 0.930 . S
H2851 C2859 0.930 . S
H2852 C2862 0.930 . S
H2853 C2863 0.930 . S
C2854 H2848 0.930 . S
C2854 C2855 1.355 . S
C2854 C2856 1.415 . S
C2855 C2854 1.355 . S
C2855 C2857 1.419 . S
C2856 C2854 1.415 . S
C2856 C2861 1.425 . S
C2856 C2863 1.409 . S
C2857 H2849 0.930 . S
C2857 C2855 1.419 . S
C2857 C2858 1.362 . S
C2858 H2850 0.930 . S
C2858 C2857 1.362 . S
C2858 C2861 1.409 . S
C2859 H2851 0.930 . S
C2859 C2860 1.355 . S
C2859 C2861 1.415 . S
C2860 C2859 1.355 . S
C2860 C2862 1.419 . S
C2861 C2856 1.425 . S
C2861 C2858 1.409 . S
C2861 C2859 1.415 . S
C2862 H2852 0.930 . S
C2862 C2860 1.419 . S
C2862 C2863 1.362 . S
C2863 H2853 0.930 . S
C2863 C2856 1.409 . S
C2863 C2862 1.362 . S
H2864 C2870 0.930 . S
H2865 C2873 0.930 . S
H2866 C2874 0.930 . S
H2867 C2875 0.930 . S
H2868 C2878 0.930 . S
H2869 C2879 0.930 . S
C2870 H2864 0.930 . S
C2870 C2871 1.355 . S
C2870 C2872 1.415 . S
C2871 C2870 1.355 . S
C2871 C2873 1.419 . S
C2872 C2870 1.415 . S
C2872 C2877 1.425 . S
C2872 C2879 1.409 . S
C2873 H2865 0.930 . S
C2873 C2871 1.419 . S
C2873 C2874 1.362 . S
C2874 H2866 0.930 . S
C2874 C2873 1.362 . S
C2874 C2877 1.409 . S
C2875 H2867 0.930 . S
C2875 C2876 1.355 . S
C2875 C2877 1.415 . S
C2876 C2875 1.355 . S
C2876 C2878 1.419 . S
C2877 C2872 1.425 . S
C2877 C2874 1.409 . S
C2877 C2875 1.415 . S
C2878 H2868 0.930 . S
C2878 C2876 1.419 . S
C2878 C2879 1.362 . S
C2879 H2869 0.930 . S
C2879 C2872 1.409 . S
C2879 C2878 1.362 . S
H2880 C2886 0.930 . S
H2881 C2889 0.930 . S
H2882 C2890 0.930 . S
H2883 C2891 0.930 . S
H2884 C2894 0.930 . S
H2885 C2895 0.930 . S
C2886 H2880 0.930 . S
C2886 C2887 1.355 . S
C2886 C2888 1.415 . S
C2887 C2886 1.355 . S
C2887 C2889 1.419 . S
C2888 C2886 1.415 . S
C2888 C2893 1.425 . S
C2888 C2895 1.409 . S
C2889 H2881 0.930 . S
C2889 C2887 1.419 . S
C2889 C2890 1.362 . S
C2890 H2882 0.930 . S
C2890 C2889 1.362 . S
C2890 C2893 1.409 . S
C2891 H2883 0.930 . S
C2891 C2892 1.355 . S
C2891 C2893 1.415 . S
C2892 C2891 1.355 . S
C2892 C2894 1.419 . S
C2893 C2888 1.425 . S
C2893 C2890 1.409 . S
C2893 C2891 1.415 . S
C2894 H2884 0.930 . S
C2894 C2892 1.419 . S
C2894 C2895 1.362 . S
C2895 H2885 0.930 . S
C2895 C2888 1.409 . S
C2895 C2894 1.362 . S
H2896 C2902 0.930 . S
H2897 C2905 0.930 . S
H2898 C2906 0.930 . S
H2899 C2907 0.930 . S
H2900 C2910 0.930 . S
H2901 C2911 0.930 . S
C2902 H2896 0.930 . S
C2902 C2903 1.355 . S
C2902 C2904 1.415 . S
C2903 C2902 1.355 . S
C2903 C2905 1.419 . S
C2904 C2902 1.415 . S
C2904 C2909 1.425 . S
C2904 C2911 1.409 . S
C2905 H2897 0.930 . S
C2905 C2903 1.419 . S
C2905 C2906 1.362 . S
C2906 H2898 0.930 . S
C2906 C2905 1.362 . S
C2906 C2909 1.409 . S
C2907 H2899 0.930 . S
C2907 C2908 1.355 . S
C2907 C2909 1.415 . S
C2908 C2907 1.355 . S
C2908 C2910 1.419 . S
C2909 C2904 1.425 . S
C2909 C2906 1.409 . S
C2909 C2907 1.415 . S
C2910 H2900 0.930 . S
C2910 C2908 1.419 . S
C2910 C2911 1.362 . S
C2911 H2901 0.930 . S
C2911 C2904 1.409 . S
C2911 C2910 1.362 . S
H2912 C2918 0.930 . S
H2913 C2921 0.930 . S
H2914 C2922 0.930 . S
H2915 C2923 0.930 . S
H2916 C2926 0.930 . S
H2917 C2927 0.930 . S
C2918 H2912 0.930 . S
C2918 C2919 1.355 . S
C2918 C2920 1.415 . S
C2919 C2918 1.355 . S
C2919 C2921 1.419 . S
C2920 C2918 1.415 . S
C2920 C2925 1.425 . S
C2920 C2927 1.409 . S
C2921 H2913 0.930 . S
C2921 C2919 1.419 . S
C2921 C2922 1.362 . S
C2922 H2914 0.930 . S
C2922 C2921 1.362 . S
C2922 C2925 1.409 . S
C2923 H2915 0.930 . S
C2923 C2924 1.355 . S
C2923 C2925 1.415 . S
C2924 C2923 1.355 . S
C2924 C2926 1.419 . S
C2925 C2920 1.425 . S
C2925 C2922 1.409 . S
C2925 C2923 1.415 . S
C2926 H2916 0.930 . S
C2926 C2924 1.419 . S
C2926 C2927 1.362 . S
C2927 H2917 0.930 . S
C2927 C2920 1.409 . S
C2927 C2926 1.362 . S
H2928 C2934 0.930 . S
H2929 C2937 0.930 . S
H2930 C2938 0.930 . S
H2931 C2939 0.930 . S
H2932 C2942 0.930 . S
H2933 C2943 0.930 . S
C2934 H2928 0.930 . S
C2934 C2935 1.355 . S
C2934 C2936 1.415 . S
C2935 C2934 1.355 . S
C2935 C2937 1.419 . S
C2936 C2934 1.415 . S
C2936 C2941 1.425 . S
C2936 C2943 1.409 . S
C2937 H2929 0.930 . S
C2937 C2935 1.419 . S
C2937 C2938 1.362 . S
C2938 H2930 0.930 . S
C2938 C2937 1.362 . S
C2938 C2941 1.409 . S
C2939 H2931 0.930 . S
C2939 C2940 1.355 . S
C2939 C2941 1.415 . S
C2940 C2939 1.355 . S
C2940 C2942 1.419 . S
C2941 C2936 1.425 . S
C2941 C2938 1.409 . S
C2941 C2939 1.415 . S
C2942 H2932 0.930 . S
C2942 C2940 1.419 . S
C2942 C2943 1.362 . S
C2943 H2933 0.930 . S
C2943 C2936 1.409 . S
C2943 C2942 1.362 . S
H2944 C2950 0.930 . S
H2945 C2953 0.930 . S
H2946 C2954 0.930 . S
H2947 C2955 0.930 . S
H2948 C2958 0.930 . S
H2949 C2959 0.930 . S
C2950 H2944 0.930 . S
C2950 C2951 1.355 . S
C2950 C2952 1.415 . S
C2951 C2950 1.355 . S
C2951 C2953 1.419 . S
C2952 C2950 1.415 . S
C2952 C2957 1.425 . S
C2952 C2959 1.409 . S
C2953 H2945 0.930 . S
C2953 C2951 1.419 . S
C2953 C2954 1.362 . S
C2954 H2946 0.930 . S
C2954 C2953 1.362 . S
C2954 C2957 1.409 . S
C2955 H2947 0.930 . S
C2955 C2956 1.355 . S
C2955 C2957 1.415 . S
C2956 C2955 1.355 . S
C2956 C2958 1.419 . S
C2957 C2952 1.425 . S
C2957 C2954 1.409 . S
C2957 C2955 1.415 . S
C2958 H2948 0.930 . S
C2958 C2956 1.419 . S
C2958 C2959 1.362 . S
C2959 H2949 0.930 . S
C2959 C2952 1.409 . S
C2959 C2958 1.362 . S
H2960 C2966 0.930 . S
H2961 C2969 0.930 . S
H2962 C2970 0.930 . S
H2963 C2971 0.930 . S
H2964 C2974 0.930 . S
H2965 C2975 0.930 . S
C2966 H2960 0.930 . S
C2966 C2967 1.355 . S
C2966 C2968 1.415 . S
C2967 C2966 1.355 . S
C2967 C2969 1.419 . S
C2968 C2966 1.415 . S
C2968 C2973 1.425 . S
C2968 C2975 1.409 . S
C2969 H2961 0.930 . S
C2969 C2967 1.419 . S
C2969 C2970 1.362 . S
C2970 H2962 0.930 . S
C2970 C2969 1.362 . S
C2970 C2973 1.409 . S
C2971 H2963 0.930 . S
C2971 C2972 1.355 . S
C2971 C2973 1.415 . S
C2972 C2971 1.355 . S
C2972 C2974 1.419 . S
C2973 C2968 1.425 . S
C2973 C2970 1.409 . S
C2973 C2971 1.415 . S
C2974 H2964 0.930 . S
C2974 C2972 1.419 . S
C2974 C2975 1.362 . S
C2975 H2965 0.930 . S
C2975 C2968 1.409 . S
C2975 C2974 1.362 . S
H2976 C2982 0.930 . S
H2977 C2985 0.930 . S
H2978 C2986 0.930 . S
H2979 C2987 0.930 . S
H2980 C2990 0.930 . S
H2981 C2991 0.930 . S
C2982 H2976 0.930 . S
C2982 C2983 1.355 . S
C2982 C2984 1.415 . S
C2983 C2982 1.355 . S
C2983 C2985 1.419 . S
C2984 C2982 1.415 . S
C2984 C2989 1.425 . S
C2984 C2991 1.409 . S
C2985 H2977 0.930 . S
C2985 C2983 1.419 . S
C2985 C2986 1.362 . S
C2986 H2978 0.930 . S
C2986 C2985 1.362 . S
C2986 C2989 1.409 . S
C2987 H2979 0.930 . S
C2987 C2988 1.355 . S
C2987 C2989 1.415 . S
C2988 C2987 1.355 . S
C2988 C2990 1.419 . S
C2989 C2984 1.425 . S
C2989 C2986 1.409 . S
C2989 C2987 1.415 . S
C2990 H2980 0.930 . S
C2990 C2988 1.419 . S
C2990 C2991 1.362 . S
C2991 H2981 0.930 . S
C2991 C2984 1.409 . S
C2991 C2990 1.362 . S
H2992 C2998 0.930 . S
H2993 C3001 0.930 . S
H2994 C3002 0.930 . S
H2995 C3003 0.930 1_455 S
H2996 C3006 0.930 . S
H2997 C3007 0.930 . S
C2998 H2992 0.930 . S
C2998 C2999 1.355 . S
C2998 C3000 1.415 . S
C2999 C2998 1.355 . S
C2999 C3001 1.419 . S
C3000 C2998 1.415 . S
C3000 C3005 1.425 . S
C3000 C3007 1.409 . S
C3001 H2993 0.930 . S
C3001 C2999 1.419 . S
C3001 C3002 1.362 . S
C3002 H2994 0.930 . S
C3002 C3001 1.362 . S
C3002 C3005 1.409 . S
C3003 H2995 0.930 1_655 S
C3003 C3004 1.355 . S
C3003 C3005 1.415 . S
C3004 C3003 1.355 . S
C3004 C3006 1.419 . S
C3005 C3000 1.425 . S
C3005 C3002 1.409 . S
C3005 C3003 1.415 . S
C3006 H2996 0.930 . S
C3006 C3004 1.419 . S
C3006 C3007 1.362 . S
C3007 H2997 0.930 . S
C3007 C3000 1.409 . S
C3007 C3006 1.362 . S
H3008 C3014 0.930 . S
H3009 C3017 0.930 . S
H3010 C3018 0.930 . S
H3011 C3019 0.930 . S
H3012 C3022 0.930 . S
H3013 C3023 0.930 . S
C3014 H3008 0.930 . S
C3014 C3015 1.355 . S
C3014 C3016 1.415 . S
C3015 C3014 1.355 . S
C3015 C3017 1.419 . S
C3016 C3014 1.415 . S
C3016 C3021 1.425 . S
C3016 C3023 1.409 . S
C3017 H3009 0.930 . S
C3017 C3015 1.419 . S
C3017 C3018 1.362 . S
C3018 H3010 0.930 . S
C3018 C3017 1.362 . S
C3018 C3021 1.409 . S
C3019 H3011 0.930 . S
C3019 C3020 1.355 . S
C3019 C3021 1.415 . S
C3020 C3019 1.355 . S
C3020 C3022 1.419 . S
C3021 C3016 1.425 . S
C3021 C3018 1.409 . S
C3021 C3019 1.415 . S
C3022 H3012 0.930 . S
C3022 C3020 1.419 . S
C3022 C3023 1.362 . S
C3023 H3013 0.930 . S
C3023 C3016 1.409 . S
C3023 C3022 1.362 . S
H3024 C3030 0.930 . S
H3025 C3033 0.930 . S
H3026 C3034 0.930 . S
H3027 C3035 0.930 . S
H3028 C3038 0.930 . S
H3029 C3039 0.930 . S
C3030 H3024 0.930 . S
C3030 C3031 1.355 . S
C3030 C3032 1.415 . S
C3031 C3030 1.355 . S
C3031 C3033 1.419 . S
C3032 C3030 1.415 . S
C3032 C3037 1.425 . S
C3032 C3039 1.409 . S
C3033 H3025 0.930 . S
C3033 C3031 1.419 . S
C3033 C3034 1.362 . S
C3034 H3026 0.930 . S
C3034 C3033 1.362 . S
C3034 C3037 1.409 . S
C3035 H3027 0.930 . S
C3035 C3036 1.355 . S
C3035 C3037 1.415 . S
C3036 C3035 1.355 . S
C3036 C3038 1.419 . S
C3037 C3032 1.425 . S
C3037 C3034 1.409 . S
C3037 C3035 1.415 . S
C3038 H3028 0.930 . S
C3038 C3036 1.419 . S
C3038 C3039 1.362 . S
C3039 H3029 0.930 . S
C3039 C3032 1.409 . S
C3039 C3038 1.362 . S
H3040 C3046 0.930 . S
H3041 C3049 0.930 . S
H3042 C3050 0.930 . S
H3043 C3051 0.930 . S
H3044 C3054 0.930 . S
H3045 C3055 0.930 . S
C3046 H3040 0.930 . S
C3046 C3047 1.355 . S
C3046 C3048 1.415 . S
C3047 C3046 1.355 . S
C3047 C3049 1.419 . S
C3048 C3046 1.415 . S
C3048 C3053 1.425 . S
C3048 C3055 1.409 . S
C3049 H3041 0.930 . S
C3049 C3047 1.419 . S
C3049 C3050 1.362 . S
C3050 H3042 0.930 . S
C3050 C3049 1.362 . S
C3050 C3053 1.409 . S
C3051 H3043 0.930 . S
C3051 C3052 1.355 . S
C3051 C3053 1.415 . S
C3052 C3051 1.355 . S
C3052 C3054 1.419 . S
C3053 C3048 1.425 . S
C3053 C3050 1.409 . S
C3053 C3051 1.415 . S
C3054 H3044 0.930 . S
C3054 C3052 1.419 . S
C3054 C3055 1.362 . S
C3055 H3045 0.930 . S
C3055 C3048 1.409 . S
C3055 C3054 1.362 . S
H3056 C3062 0.930 . S
H3057 C3065 0.930 . S
H3058 C3066 0.930 . S
H3059 C3067 0.930 . S
H3060 C3070 0.930 . S
H3061 C3071 0.930 . S
C3062 H3056 0.930 . S
C3062 C3063 1.355 . S
C3062 C3064 1.415 . S
C3063 C3062 1.355 . S
C3063 C3065 1.419 . S
C3064 C3062 1.415 . S
C3064 C3069 1.425 . S
C3064 C3071 1.409 . S
C3065 H3057 0.930 . S
C3065 C3063 1.419 . S
C3065 C3066 1.362 . S
C3066 H3058 0.930 . S
C3066 C3065 1.362 . S
C3066 C3069 1.409 . S
C3067 H3059 0.930 . S
C3067 C3068 1.355 . S
C3067 C3069 1.415 . S
C3068 C3067 1.355 . S
C3068 C3070 1.419 . S
C3069 C3064 1.425 . S
C3069 C3066 1.409 . S
C3069 C3067 1.415 . S
C3070 H3060 0.930 . S
C3070 C3068 1.419 . S
C3070 C3071 1.362 . S
C3071 H3061 0.930 . S
C3071 C3064 1.409 . S
C3071 C3070 1.362 . S
H3072 C3078 0.930 . S
H3073 C3081 0.930 . S
H3074 C3082 0.930 . S
H3075 C3083 0.930 . S
H3076 C3086 0.930 . S
H3077 C3087 0.930 . S
C3078 H3072 0.930 . S
C3078 C3079 1.355 . S
C3078 C3080 1.415 . S
C3079 C3078 1.355 . S
C3079 C3081 1.419 . S
C3080 C3078 1.415 . S
C3080 C3085 1.425 . S
C3080 C3087 1.409 . S
C3081 H3073 0.930 . S
C3081 C3079 1.419 . S
C3081 C3082 1.362 . S
C3082 H3074 0.930 . S
C3082 C3081 1.362 . S
C3082 C3085 1.409 . S
C3083 H3075 0.930 . S
C3083 C3084 1.355 . S
C3083 C3085 1.415 . S
C3084 C3083 1.355 . S
C3084 C3086 1.419 . S
C3085 C3080 1.425 . S
C3085 C3082 1.409 . S
C3085 C3083 1.415 . S
C3086 H3076 0.930 . S
C3086 C3084 1.419 . S
C3086 C3087 1.362 . S
C3087 H3077 0.930 . S
C3087 C3080 1.409 . S
C3087 C3086 1.362 . S
H3088 C3094 0.930 . S
H3089 C3097 0.930 . S
H3090 C3098 0.930 . S
H3091 C3099 0.930 . S
H3092 C3102 0.930 . S
H3093 C3103 0.930 . S
C3094 H3088 0.930 . S
C3094 C3095 1.355 . S
C3094 C3096 1.415 . S
C3095 C3094 1.355 . S
C3095 C3097 1.419 . S
C3096 C3094 1.415 . S
C3096 C3101 1.425 . S
C3096 C3103 1.409 . S
C3097 H3089 0.930 . S
C3097 C3095 1.419 . S
C3097 C3098 1.362 . S
C3098 H3090 0.930 . S
C3098 C3097 1.362 . S
C3098 C3101 1.409 . S
C3099 H3091 0.930 . S
C3099 C3100 1.355 . S
C3099 C3101 1.415 . S
C3100 C3099 1.355 . S
C3100 C3102 1.419 . S
C3101 C3096 1.425 . S
C3101 C3098 1.409 . S
C3101 C3099 1.415 . S
C3102 H3092 0.930 . S
C3102 C3100 1.419 . S
C3102 C3103 1.362 . S
C3103 H3093 0.930 . S
C3103 C3096 1.409 . S
C3103 C3102 1.362 . S
H3104 C3110 0.930 . S
H3105 C3113 0.930 . S
H3106 C3114 0.930 . S
H3107 C3115 0.930 . S
H3108 C3118 0.930 1_545 S
H3109 C3119 0.930 . S
C3110 H3104 0.930 . S
C3110 C3111 1.355 . S
C3110 C3112 1.415 . S
C3111 C3110 1.355 . S
C3111 C3113 1.419 . S
C3112 C3110 1.415 . S
C3112 C3117 1.425 . S
C3112 C3119 1.409 . S
C3113 H3105 0.930 . S
C3113 C3111 1.419 . S
C3113 C3114 1.362 . S
C3114 H3106 0.930 . S
C3114 C3113 1.362 . S
C3114 C3117 1.409 . S
C3115 H3107 0.930 . S
C3115 C3116 1.355 . S
C3115 C3117 1.415 . S
C3116 C3115 1.355 . S
C3116 C3118 1.419 . S
C3117 C3112 1.425 . S
C3117 C3114 1.409 . S
C3117 C3115 1.415 . S
C3118 H3108 0.930 1_565 S
C3118 C3116 1.419 . S
C3118 C3119 1.362 . S
C3119 H3109 0.930 . S
C3119 C3112 1.409 . S
C3119 C3118 1.362 . S
H3120 C3126 0.930 . S
H3121 C3129 0.930 . S
H3122 C3130 0.930 . S
H3123 C3131 0.930 . S
H3124 C3134 0.930 . S
H3125 C3135 0.930 . S
C3126 H3120 0.930 . S
C3126 C3127 1.355 . S
C3126 C3128 1.415 . S
C3127 C3126 1.355 . S
C3127 C3129 1.419 . S
C3128 C3126 1.415 . S
C3128 C3133 1.425 . S
C3128 C3135 1.409 . S
C3129 H3121 0.930 . S
C3129 C3127 1.419 . S
C3129 C3130 1.362 . S
C3130 H3122 0.930 . S
C3130 C3129 1.362 . S
C3130 C3133 1.409 . S
C3131 H3123 0.930 . S
C3131 C3132 1.355 . S
C3131 C3133 1.415 . S
C3132 C3131 1.355 . S
C3132 C3134 1.419 . S
C3133 C3128 1.425 . S
C3133 C3130 1.409 . S
C3133 C3131 1.415 . S
C3134 H3124 0.930 . S
C3134 C3132 1.419 . S
C3134 C3135 1.362 . S
C3135 H3125 0.930 . S
C3135 C3128 1.409 . S
C3135 C3134 1.362 . S
H3136 C3142 0.930 . S
H3137 C3145 0.930 . S
H3138 C3146 0.930 . S
H3139 C3147 0.930 . S
H3140 C3150 0.930 . S
H3141 C3151 0.930 . S
C3142 H3136 0.930 . S
C3142 C3143 1.355 . S
C3142 C3144 1.415 . S
C3143 C3142 1.355 . S
C3143 C3145 1.419 . S
C3144 C3142 1.415 . S
C3144 C3149 1.425 . S
C3144 C3151 1.409 . S
C3145 H3137 0.930 . S
C3145 C3143 1.419 . S
C3145 C3146 1.362 . S
C3146 H3138 0.930 . S
C3146 C3145 1.362 . S
C3146 C3149 1.409 . S
C3147 H3139 0.930 . S
C3147 C3148 1.355 . S
C3147 C3149 1.415 . S
C3148 C3147 1.355 . S
C3148 C3150 1.419 . S
C3149 C3144 1.425 . S
C3149 C3146 1.409 . S
C3149 C3147 1.415 . S
C3150 H3140 0.930 . S
C3150 C3148 1.419 . S
C3150 C3151 1.362 . S
C3151 H3141 0.930 . S
C3151 C3144 1.409 . S
C3151 C3150 1.362 . S
H3152 C3158 0.930 . S
H3153 C3161 0.930 . S
H3154 C3162 0.930 . S
H3155 C3163 0.930 . S
H3156 C3166 0.930 . S
H3157 C3167 0.930 . S
C3158 H3152 0.930 . S
C3158 C3159 1.355 . S
C3158 C3160 1.415 . S
C3159 C3158 1.355 . S
C3159 C3161 1.419 . S
C3160 C3158 1.415 . S
C3160 C3165 1.425 . S
C3160 C3167 1.409 . S
C3161 H3153 0.930 . S
C3161 C3159 1.419 . S
C3161 C3162 1.362 . S
C3162 H3154 0.930 . S
C3162 C3161 1.362 . S
C3162 C3165 1.409 . S
C3163 H3155 0.930 . S
C3163 C3164 1.355 . S
C3163 C3165 1.415 . S
C3164 C3163 1.355 . S
C3164 C3166 1.419 . S
C3165 C3160 1.425 . S
C3165 C3162 1.409 . S
C3165 C3163 1.415 . S
C3166 H3156 0.930 . S
C3166 C3164 1.419 . S
C3166 C3167 1.362 . S
C3167 H3157 0.930 . S
C3167 C3160 1.409 . S
C3167 C3166 1.362 . S
H3168 C3174 0.930 . S
H3169 C3177 0.930 . S
H3170 C3178 0.930 . S
H3171 C3179 0.930 . S
H3172 C3182 0.930 . S
H3173 C3183 0.930 . S
C3174 H3168 0.930 . S
C3174 C3175 1.355 . S
C3174 C3176 1.415 . S
C3175 C3174 1.355 . S
C3175 C3177 1.419 . S
C3176 C3174 1.415 . S
C3176 C3181 1.425 . S
C3176 C3183 1.409 . S
C3177 H3169 0.930 . S
C3177 C3175 1.419 . S
C3177 C3178 1.362 . S
C3178 H3170 0.930 . S
C3178 C3177 1.362 . S
C3178 C3181 1.409 . S
C3179 H3171 0.930 . S
C3179 C3180 1.355 . S
C3179 C3181 1.415 . S
C3180 C3179 1.355 . S
C3180 C3182 1.419 . S
C3181 C3176 1.425 . S
C3181 C3178 1.409 . S
C3181 C3179 1.415 . S
C3182 H3172 0.930 . S
C3182 C3180 1.419 . S
C3182 C3183 1.362 . S
C3183 H3173 0.930 . S
C3183 C3176 1.409 . S
C3183 C3182 1.362 . S
H3184 C3190 0.930 . S
H3185 C3193 0.930 . S
H3186 C3194 0.930 . S
H3187 C3195 0.930 . S
H3188 C3198 0.930 . S
H3189 C3199 0.930 . S
C3190 H3184 0.930 . S
C3190 C3191 1.355 . S
C3190 C3192 1.415 . S
C3191 C3190 1.355 . S
C3191 C3193 1.419 . S
C3192 C3190 1.415 . S
C3192 C3197 1.425 . S
C3192 C3199 1.409 . S
C3193 H3185 0.930 . S
C3193 C3191 1.419 . S
C3193 C3194 1.362 . S
C3194 H3186 0.930 . S
C3194 C3193 1.362 . S
C3194 C3197 1.409 . S
C3195 H3187 0.930 . S
C3195 C3196 1.355 . S
C3195 C3197 1.415 . S
C3196 C3195 1.355 . S
C3196 C3198 1.419 . S
C3197 C3192 1.425 . S
C3197 C3194 1.409 . S
C3197 C3195 1.415 . S
C3198 H3188 0.930 . S
C3198 C3196 1.419 . S
C3198 C3199 1.362 . S
C3199 H3189 0.930 . S
C3199 C3192 1.409 . S
C3199 C3198 1.362 . S
H3200 C3206 0.930 . S
H3201 C3209 0.930 . S
H3202 C3210 0.930 . S
H3203 C3211 0.930 . S
H3204 C3214 0.930 . S
H3205 C3215 0.930 . S
C3206 H3200 0.930 . S
C3206 C3207 1.355 . S
C3206 C3208 1.415 . S
C3207 C3206 1.355 . S
C3207 C3209 1.419 . S
C3208 C3206 1.415 . S
C3208 C3213 1.425 . S
C3208 C3215 1.409 . S
C3209 H3201 0.930 . S
C3209 C3207 1.419 . S
C3209 C3210 1.362 . S
C3210 H3202 0.930 . S
C3210 C3209 1.362 . S
C3210 C3213 1.409 . S
C3211 H3203 0.930 . S
C3211 C3212 1.355 . S
C3211 C3213 1.415 . S
C3212 C3211 1.355 . S
C3212 C3214 1.419 . S
C3213 C3208 1.425 . S
C3213 C3210 1.409 . S
C3213 C3211 1.415 . S
C3214 H3204 0.930 . S
C3214 C3212 1.419 . S
C3214 C3215 1.362 . S
C3215 H3205 0.930 . S
C3215 C3208 1.409 . S
C3215 C3214 1.362 . S
C1687 C109 2.130 . S
C1692 C392 2.141 . S
C1703 C61 1.686 . S
C1708 C494 1.857 . S
C1719 C74 1.865 . S
C1724 C560 1.930 . S
C1740 C646 1.345 . S
C1735 C96 1.459 . S
C1751 C25 1.411 . S
C1756 C730 1.353 . S
C1772 C812 1.947 . S
C1767 C40 1.925 . S
C1788 C914 1.951 . S
C1783 C46 1.927 . S
C1799 C5 1.803 . S
C1804 C980 2.183 . S
C1820 C410 1.642 . S
C1815 C229 1.387 . S
C1831 C249 0.918 . S
C1836 C478 0.939 . S
C1852 C578 1.033 . S
C1847 C271 0.833 . S
C1868 C644 1.748 . S
C1863 C172 1.695 1_556 S
C1879 C236 1.587 . S
C1884 C728 1.587 1_655 S
C1900 C830 1.254 . S
C1895 C242 1.263 . S
C1916 C898 0.938 . S
C1911 C278 0.921 . S
C1932 C998 1.732 . S
C1927 C179 1.784 . S
C1948 C394 1.024 . S
C1943 C159 0.816 1_556 S
C1959 C285 1.418 1_554 S
C1964 C1082 1.602 . S
C1980 C1150 1.207 . S
C1975 C333 1.279 . S
C1996 C1232 0.830 . S
C1991 C320 0.853 . S
C2007 C123 1.033 . S
C2012 C982 0.990 . S
C2023 C138 1.396 . S
C2028 C562 1.378 . S
C2039 C326 1.723 . S
C2044 C1334 1.709 . S
C2060 C1400 0.879 . S
C2055 C298 0.879 . S
C2076 C403 2.109 . S
C2071 C67 2.051 . S
C2092 C1407 1.764 . S
C2087 C110 1.792 . S
C2103 C88 1.852 . S
C2108 C571 1.912 . S
C2119 C75 1.185 . S
C2124 C1329 1.271 . S
C2140 C741 1.326 . S
C2135 C11 1.324 . S
C2151 C47 1.681 . S
C2156 C1159 1.888 . S
C2172 C903 1.808 1_556 S
C2167 C32 1.763 . S
C2188 C1495 2.203 . S
C2183 C26 2.163 . S
C2204 C399 1.707 . S
C2199 C152 1.761 . S
C2220 C1413 0.913 . S
C2215 C319 0.859 . S
C2231 C124 0.983 . S
C2236 C567 0.991 . S
C2247 C284 1.752 . S
C2252 C1327 1.744 . S
C2263 C145 1.396 . S
C2268 C739 1.511 . S
C2284 C1155 1.181 . S
C2279 C312 1.095 . S
C2295 C117 0.797 1_565 S
C2300 C909 0.832 1_545 S
C2311 C291 1.635 . S
C2316 C1491 1.616 . S
C2327 C194 1.054 . S
C2332 C405 1.136 . S
C2343 C180 1.553 . S
C2348 C1071 1.551 . S
C2359 C263 1.207 . S
C2364 C825 1.170 . S
C2375 C243 0.671 . S
C2380 C1243 0.776 . S
C2396 C1497 1.085 . S
C2391 C277 0.946 . S
C2407 C215 1.213 . S
C2412 C573 1.309 . S
C2428 C651 1.619 . S
C2423 C256 1.558 . S
C2444 C487 0.905 . S
C2439 C200 0.866 . S
C2455 C81 2.133 . S
C2460 C1568 2.125 . S
C2476 C1418 1.861 . S
C2471 C89 1.635 . S
C2487 C102 1.907 . S
C2492 C1652 1.944 . S
C2503 C68 1.459 . S
C2508 C1318 1.342 . S
C2519 C53 1.382 . S
C2524 C1066 1.298 . S
C2540 C1148 1.929 . S
C2535 C12 1.879 . S
C2556 C1250 1.955 . S
C2551 C18 1.928 . S
C2572 C1484 2.185 . S
C2567 C33 1.753 . S
C2588 C1586 1.637 . S
C2583 C257 1.374 . S
C2599 C193 0.860 . S
C2604 C1402 0.802 . S
C2620 C1670 1.029 . S
C2615 C201 0.820 . S
C2636 C1316 1.753 . S
C2631 C214 1.705 . S
C2652 C1064 1.588 . S
C2647 C264 1.581 . S
C2663 C186 1.290 . S
C2668 C1166 1.304 . S
C2684 C1234 0.889 . S
C2679 C208 0.920 . S
C2695 C221 1.794 . S
C2700 C1502 1.761 . S
C2716 C1570 0.999 . S
C2711 C313 0.873 . S
C2727 C131 1.469 . S
C2732 C746 1.590 . S
C2748 C814 1.180 . S
C2743 C151 1.285 1_565 S
C2764 C896 0.844 . S
C2759 C166 0.827 . S
C2780 C1486 1.014 . S
C2775 C305 1.027 . S
C2791 C292 1.407 . S
C2796 C1654 1.300 . S
C2812 C662 1.736 . S
C2807 C144 1.718 . S
C2828 C476 0.833 . S
C2823 C116 0.830 . S
C2839 C95 2.052 . S
C2844 C1579 2.112 . S
C2860 C483 1.771 . S
C2855 C82 1.786 . S
C2871 C60 1.878 . S
C2876 C1663 1.903 . S
C2887 C103 1.081 . S
C2892 C657 1.261 . S
C2903 C39 1.333 . S
C2908 C1077 1.287 . S
C2924 C823 1.891 . S
C2919 C19 1.707 . S
C2935 C4 1.695 . S
C2940 C1239 1.831 . S
C2951 C54 2.171 . S
C2956 C991 2.192 . S
C2972 C1575 1.760 . S
C2967 C334 1.794 . S
C2983 C165 0.877 . S
C2988 C489 0.899 . S
C3004 C1659 0.970 1_655 S
C2999 C306 0.989 . S
C3015 C130 1.735 . S
C3020 C655 1.743 . S
C3031 C327 1.382 . S
C3036 C1075 1.513 . S
C3052 C819 1.166 . S
C3047 C158 1.107 . S
C3063 C299 0.626 . S
C3068 C1245 0.689 . S
C3084 C987 1.652 . S
C3079 C137 1.668 . S
C3100 C1581 1.120 . S
C3095 C250 1.073 . S
C3116 C735 1.561 1_565 S
C3111 C222 1.552 . S
C3127 C235 1.231 . S
C3132 C1161 1.118 . S
C3148 C907 0.793 . S
C3143 C187 0.824 . S
C3159 C207 1.064 . S
C3164 C993 1.010 . S
C3175 C173 1.217 . S
C3180 C1665 1.311 . S
C3196 C1323 1.636 . S
C3191 C228 1.524 . S
C3212 C1411 0.899 . S
C3207 C270 0.890 . S
