# Generated by pormake.
# Topology bcu-b, (8,8)-cn, num edge types: 1
# Building blocks:
#     Node 0, Type 0, BuildingBlock: VETTIZ_charged_sbu_0, # of connection points: 8
#     Node 1, Type 1, BuildingBlock: GIZVER_clean_sbu_0, # of connection points: 8
#     Edge 2, Type (0, 1), BuildingBlock: MIFKUJ_clean_linker_0, # of connection points: 2
#     Edge 3, Type (0, 1), BuildingBlock: MIFKUJ_clean_linker_0, # of connection points: 2
#     Edge 4, Type (0, 1), BuildingBlock: MIFKUJ_clean_linker_0, # of connection points: 2
#     Edge 5, Type (0, 1), BuildingBlock: MIFKUJ_clean_linker_0, # of connection points: 2
#     Edge 6, Type (0, 1), BuildingBlock: MIFKUJ_clean_linker_0, # of connection points: 2
#     Edge 7, Type (0, 1), BuildingBlock: MIFKUJ_clean_linker_0, # of connection points: 2
#     Edge 8, Type (0, 1), BuildingBlock: MIFKUJ_clean_linker_0, # of connection points: 2
#     Edge 9, Type (0, 1), BuildingBlock: MIFKUJ_clean_linker_0, # of connection points: 2
# Relax obj value: 0.082
# Max RMSD: 0.155
# Mean RMSD: 0.139
data_MOF--net-bcu-b--node1-VETTIZ_charged_sbu_0--node2-GIZVER_clean_sbu_0--edge1-MIFKUJ_clean_linker_0
_symmetry_space_group_name_H-M    P1
_symmetry_Int_Tables_number       1
_symmetry_cell_setting            triclinic
loop_
_symmetry_equiv_pos_as_xyz
'x, y, z'
_cell_length_a     25.656642
_cell_length_b     28.253874
_cell_length_c     21.288509
_cell_angle_alpha  89.07574
_cell_angle_beta   92.678505
_cell_angle_gamma 98.808061
loop_
_atom_site_label
_atom_site_type_symbol
_atom_site_fract_x
_atom_site_fract_y
_atom_site_fract_z
_atom_type_partial_charge
Fe0 Fe 1.00968 0.96452 1.01032 0.0
O1 O 0.97961 1.01227 0.06065 0.0
Fe2 Fe 0.03755 0.02681 0.87047 0.0
Fe3 Fe 0.98186 1.01246 0.15272 0.0
O4 O 0.04197 0.02271 0.96301 0.0
O5 O 0.04152 0.02782 0.96294 0.0
O6 O 0.97908 1.01707 0.06056 0.0
Fe7 Fe 1.0102 0.0752 0.01274 0.0
C8 C 0.93378 0.91245 0.10826 0.0
O9 O 0.07606 0.96858 0.06964 0.0
O10 O 0.03822 0.9678 0.16192 0.0
O11 O 0.04893 0.12977 0.95537 0.0
O12 O 0.08987 0.08966 0.88241 0.0
O13 O 0.08905 0.97787 0.8805 0.0
O14 O 0.04719 0.92235 0.94953 0.0
O15 O 0.04105 0.07041 0.16524 0.0
O16 O 0.07657 0.08534 0.07178 0.0
C17 C 0.08087 0.93533 0.90576 0.0
O18 O 0.94336 0.06938 0.9538 0.0
O19 O 0.98065 0.0705 0.86136 0.0
O20 O 0.96919 0.90982 0.06675 0.0
O21 O 0.92825 0.95102 0.13821 0.0
C22 C 0.07633 0.96075 0.12876 0.0
C23 C 0.07808 0.08995 0.13123 0.0
C24 C 0.93797 0.10405 0.11529 0.0
O25 O 0.93069 0.06212 0.14239 0.0
O26 O 0.97199 0.11699 0.0721 0.0
C27 C 0.0827 0.128 0.9118 0.0
O28 O 0.97895 0.96802 0.85924 0.0
O29 O 0.94285 0.95682 0.95224 0.0
C30 C 0.94253 0.07687 0.89466 0.0
C31 C 0.94086 0.95081 0.89315 0.0
Co32 Co 0.57893 0.42438 0.49206 0.0
Co33 Co 0.58112 0.45866 0.60371 0.0
Co34 Co 0.51216 0.51845 0.51135 0.0
O35 O 0.57586 0.48624 0.52496 0.0
H36 H 0.60789 0.50818 0.51799 0.0
O37 O 0.4487 0.55117 0.49857 0.0
Co38 Co 0.44795 0.61202 0.53632 0.0
Co39 Co 0.44337 0.58308 0.42442 0.0
H40 H 0.41638 0.52937 0.50453 0.0
O41 O 0.64569 0.44868 0.63951 0.0
O42 O 0.58952 0.39809 0.57814 0.0
O43 O 0.51949 0.45248 0.65296 0.0
O44 O 0.46886 0.48016 0.57736 0.0
O45 O 0.54484 0.56647 0.57561 0.0
O46 O 0.44156 0.66561 0.57572 0.0
O47 O 0.3785 0.60257 0.5534 0.0
O48 O 0.52143 0.62949 0.5258 0.0
O49 O 0.55506 0.55653 0.44433 0.0
O50 O 0.50365 0.58926 0.37385 0.0
O51 O 0.4323 0.64222 0.453 0.0
O52 O 0.37861 0.5901 0.39001 0.0
C53 C 0.63652 0.39046 0.45737 0.0
C54 C 0.47576 0.42471 0.45611 0.0
C55 C 0.47455 0.45945 0.63059 0.0
C56 C 0.63194 0.40662 0.61477 0.0
C57 C 0.39345 0.64381 0.58068 0.0
C58 C 0.55254 0.61131 0.56401 0.0
C59 C 0.54837 0.57924 0.39265 0.0
C60 C 0.39029 0.63216 0.41548 0.0
O61 O 0.58803 0.3689 0.45958 0.0
O62 O 0.64925 0.43353 0.48017 0.0
O63 O 0.47981 0.46994 0.44735 0.0
O64 O 0.5054 0.40762 0.49723 0.0
H65 H 0.11763 0.17968 0.09251 0.0
H66 H 0.1839 0.23777 0.14735 0.0
H67 H 0.20434 0.13228 0.29205 0.0
H68 H 0.13453 0.07566 0.2396 0.0
H69 H 0.21226 0.20846 0.34742 0.0
H70 H 0.2928 0.16658 0.16697 0.0
H71 H 0.30466 0.15206 0.05508 0.0
H72 H 0.30746 0.30145 0.01378 0.0
H73 H 0.2934 0.31681 0.12499 0.0
H74 H 0.47088 0.32782 0.44767 0.0
H75 H 0.40699 0.27178 0.38638 0.0
H76 H 0.33089 0.38858 0.31508 0.0
H77 H 0.39594 0.44561 0.37459 0.0
H78 H 0.35098 0.30738 0.22738 0.0
H79 H 0.29961 0.34604 0.43849 0.0
H80 H 0.31695 0.34987 0.56483 0.0
H81 H 0.27719 0.14854 0.54604 0.0
H82 H 0.26949 0.17311 0.42395 0.0
C83 C 0.13664 0.16895 0.13583 0.0
C84 C 0.12164 0.12313 0.16155 0.0
C85 C 0.17468 0.20211 0.16721 0.0
C86 C 0.20036 0.18944 0.22353 0.0
C87 C 0.18532 0.14332 0.24894 0.0
C88 C 0.14582 0.11074 0.2187 0.0
C89 C 0.24295 0.22408 0.25554 0.0
C90 C 0.24304 0.22953 0.32125 0.0
C91 C 0.28355 0.25159 0.22167 0.0
C92 C 0.29132 0.24272 0.15435 0.0
C93 C 0.29518 0.1963 0.13391 0.0
C94 C 0.30216 0.18792 0.07054 0.0
C95 C 0.30626 0.2258 0.02723 0.0
C96 C 0.30353 0.27215 0.04726 0.0
C97 C 0.29597 0.2807 0.11045 0.0
C98 C 0.44056 0.34179 0.4191 0.0
C99 C 0.43773 0.3912 0.41727 0.0
C100 C 0.40401 0.30959 0.38438 0.0
C101 C 0.363 0.32586 0.34872 0.0
C102 C 0.3618 0.37532 0.34349 0.0
C103 C 0.39873 0.40778 0.3778 0.0
C104 C 0.32032 0.29121 0.31876 0.0
C105 C 0.32017 0.28609 0.25338 0.0
C106 C 0.28226 0.26137 0.35395 0.0
C107 C 0.28468 0.25944 0.42428 0.0
C108 C 0.2984 0.31252 0.46372 0.0
C109 C 0.30806 0.31454 0.54371 0.0
C110 C 0.29709 0.2279 0.59164 0.0
C111 C 0.28268 0.18617 0.53356 0.0
C112 C 0.27726 0.20259 0.45653 0.0
H113 H 0.29992 0.21459 0.64005 0.0
H114 H 0.31187 0.21931 0.97821 0.0
H115 H 0.9579 0.20269 0.1056 0.0
H116 H 0.91095 0.26031 0.15625 0.0
H117 H 0.80204 0.14351 0.23033 0.0
H118 H 0.8477 0.08631 0.17968 0.0
H119 H 0.75112 0.21422 0.18795 0.0
H120 H 0.90933 0.20048 0.31884 0.0
H121 H 1.00572 0.20713 0.33828 0.0
H122 H 0.024 0.35684 0.29058 0.0
H123 H 0.92773 0.35089 0.27007 0.0
H124 H 0.63383 0.29465 0.44393 0.0
H125 H 0.69061 0.25417 0.3813 0.0
H126 H 0.78374 0.39014 0.3377 0.0
H127 H 0.72759 0.43093 0.4023 0.0
H128 H 0.84575 0.32162 0.35227 0.0
H129 H 0.68716 0.33809 0.23303 0.0
H130 H 0.591 0.33221 0.21253 0.0
H131 H 0.57343 0.17933 0.23434 0.0
H132 H 0.66941 0.18433 0.25588 0.0
C133 C 0.92346 0.18939 0.13188 0.0
C134 C 0.9069 0.1398 0.13894 0.0
C135 C 0.89692 0.22234 0.16122 0.0
C136 C 0.85338 0.20622 0.1979 0.0
C137 C 0.83559 0.15689 0.20253 0.0
C138 C 0.862 0.12414 0.17362 0.0
C139 C 0.82662 0.23982 0.23345 0.0
C140 C 0.77181 0.23759 0.22398 0.0
C141 C 0.85377 0.2715 0.27918 0.0
C142 C 0.91147 0.27512 0.29223 0.0
C143 C 0.93397 0.23473 0.3121 0.0
C144 C 0.98856 0.23838 0.32337 0.0
C145 C 0.02099 0.28234 0.31548 0.0
C146 C 0.99885 0.32279 0.29655 0.0
C147 C 0.94429 0.3193 0.28513 0.0
C148 C 0.66678 0.31594 0.42164 0.0
C149 C 0.6758 0.36604 0.42722 0.0
C150 C 0.6991 0.29277 0.38559 0.0
C151 C 0.74048 0.31922 0.35309 0.0
C152 C 0.7517 0.36902 0.36174 0.0
C153 C 0.71966 0.39227 0.39872 0.0
C154 C 0.76997 0.29473 0.30809 0.0
C155 C 0.82515 0.29881 0.3156 0.0
C156 C 0.74323 0.26486 0.26013 0.0
C157 C 0.68549 0.26165 0.24647 0.0
C158 C 0.66277 0.30324 0.2338 0.0
C159 C 0.60828 0.30006 0.22197 0.0
C160 C 0.57612 0.25544 0.22224 0.0
C161 C 0.59839 0.21388 0.23417 0.0
C162 C 0.65284 0.21686 0.24612 0.0
H163 H 0.53394 0.25305 0.21311 0.0
H164 H 0.06324 0.28509 0.32418 0.0
H165 H 0.83578 0.9078 0.1525 0.0
H166 H 0.7798 0.83825 0.19422 0.0
H167 H 0.89279 0.74799 0.14578 0.0
H168 H 0.94954 0.81816 0.10287 0.0
H169 H 0.78631 0.70462 0.12452 0.0
H170 H 0.89555 0.78465 0.28864 0.0
H171 H 0.93756 0.85343 0.35253 0.0
H172 H 0.78536 0.87791 0.4084 0.0
H173 H 0.7425 0.80993 0.34396 0.0
H174 H 0.65312 0.58455 0.42893 0.0
H175 H 0.72901 0.62597 0.3742 0.0
H176 H 0.62521 0.66008 0.22047 0.0
H177 H 0.54936 0.61865 0.27439 0.0
H178 H 0.74415 0.71953 0.34787 0.0
H179 H 0.69131 0.67276 0.08454 0.0
H180 H 0.6507 0.60307 0.02171 0.0
H181 H 0.6939 0.50801 0.16781 0.0
H182 H 0.73551 0.57706 0.23113 0.0
C183 C 0.84872 0.87315 0.15008 0.0
C184 C 0.89754 0.86861 0.12524 0.0
C185 C 0.81657 0.8334 0.17396 0.0
C186 C 0.83263 0.78817 0.1743 0.0
C187 C 0.87986 0.78272 0.14624 0.0
C188 C 0.91217 0.82275 0.12175 0.0
C189 C 0.80104 0.74786 0.20761 0.0
C190 C 0.77731 0.70757 0.17345 0.0
C191 C 0.79027 0.75138 0.27191 0.0
C192 C 0.81588 0.7922 0.31125 0.0
C193 C 0.87111 0.80486 0.31435 0.0
C194 C 0.89504 0.8437 0.35063 0.0
C195 C 0.86415 0.86999 0.38451 0.0
C196 C 0.80926 0.85749 0.38216 0.0
C197 C 0.78514 0.81877 0.34578 0.0
C198 C 0.6465 0.59999 0.38289 0.0
C199 C 0.59503 0.59852 0.35628 0.0
C200 C 0.68996 0.62374 0.35173 0.0
C201 C 0.68288 0.64591 0.29307 0.0
C202 C 0.63181 0.64265 0.26521 0.0
C203 C 0.58836 0.6192 0.29642 0.0
C204 C 0.72756 0.67708 0.26419 0.0
C205 C 0.75372 0.71594 0.29923 0.0
C206 C 0.74061 0.67202 0.20097 0.0
C207 C 0.71624 0.6302 0.1628 0.0
C208 C 0.69244 0.637 0.10314 0.0
C209 C 0.66917 0.59759 0.06745 0.0
C210 C 0.6696 0.55115 0.09082 0.0
C211 C 0.69343 0.54401 0.14985 0.0
C212 C 0.7168 0.58328 0.1857 0.0
H213 H 0.65153 0.52069 0.06313 0.0
H214 H 0.88274 0.90004 0.41259 0.0
H215 H 0.14773 0.91264 0.07402 0.0
H216 H 0.2077 0.86384 0.12786 0.0
H217 H 0.16123 0.90775 0.30737 0.0
H218 H 0.10116 0.95605 0.25432 0.0
H219 H 0.29176 0.87694 0.21534 0.0
H220 H 0.1423 0.80843 0.40317 0.0
H221 H 0.04627 0.79514 0.41751 0.0
H222 H 0.01692 0.7821 0.21785 0.0
H223 H 0.11279 0.79447 0.20237 0.0
H224 H 0.41166 0.72881 0.43949 0.0
H225 H 0.36358 0.79151 0.396 0.0
H226 H 0.25094 0.68395 0.30144 0.0
H227 H 0.29808 0.6215 0.34473 0.0
H228 H 0.20223 0.74919 0.35295 0.0
H229 H 0.351 0.7482 0.223 0.0
H230 H 0.44565 0.75397 0.20279 0.0
H231 H 0.47389 0.89715 0.27482 0.0
H232 H 0.37945 0.89196 0.29626 0.0
C233 C 0.15107 0.91265 0.12494 0.0
C234 C 0.11903 0.93766 0.15986 0.0
C235 C 0.18539 0.88477 0.15565 0.0
C236 C 0.18821 0.88149 0.22163 0.0
C237 C 0.15901 0.90908 0.25644 0.0
C238 C 0.12466 0.93669 0.22594 0.0
C239 C 0.21793 0.84629 0.25407 0.0
C240 C 0.27229 0.84918 0.24572 0.0
C241 C 0.19245 0.80967 0.29319 0.0
C242 C 0.13471 0.80288 0.30165 0.0
C243 C 0.11535 0.80269 0.36235 0.0
C244 C 0.06099 0.79528 0.37067 0.0
C245 C 0.02562 0.7878 0.31863 0.0
C246 C 0.04445 0.78797 0.25809 0.0
C247 C 0.09879 0.79524 0.24951 0.0
C248 C 0.37636 0.71853 0.40992 0.0
C249 C 0.35902 0.67014 0.39512 0.0
C250 C 0.34912 0.75442 0.38483 0.0
C251 C 0.30408 0.74246 0.34472 0.0
C252 C 0.28567 0.69407 0.33206 0.0
C253 C 0.31282 0.65836 0.35681 0.0
C254 C 0.27615 0.77988 0.31463 0.0
C255 C 0.22197 0.77737 0.32335 0.0
C256 C 0.30166 0.81621 0.27514 0.0
C257 C 0.35831 0.8195 0.26185 0.0
C258 C 0.37748 0.78078 0.23496 0.0
C259 C 0.43106 0.78396 0.22322 0.0
C260 C 0.46579 0.82585 0.23768 0.0
C261 C 0.44696 0.8647 0.26374 0.0
C262 C 0.39341 0.86167 0.27567 0.0
H263 H 0.50727 0.82825 0.22856 0.0
H264 H 0.98367 0.78154 0.32536 0.0
H265 H 0.14461 0.94825 0.80618 0.0
H266 H 0.19144 0.89164 0.75804 0.0
H267 H 0.13301 0.78344 0.89333 0.0
H268 H 0.08385 0.84059 0.94199 0.0
H269 H 0.26848 0.8523 0.7996 0.0
H270 H 0.13076 0.67172 0.82349 0.0
H271 H 0.03586 0.63909 0.82478 0.0
H272 H 0.99798 0.76162 0.72052 0.0
H273 H 0.09258 0.79492 0.71861 0.0
H274 H 0.41564 0.68281 0.6954 0.0
H275 H 0.35899 0.72276 0.75897 0.0
H276 H 0.23432 0.69749 0.6145 0.0
H277 H 0.29016 0.65397 0.55288 0.0
H278 H 0.19038 0.69215 0.71919 0.0
H279 H 0.32498 0.80891 0.63379 0.0
H280 H 0.41523 0.84784 0.61208 0.0
H281 H 0.45174 0.86481 0.81009 0.0
H282 H 0.36194 0.8254 0.83302 0.0
C283 C 0.14135 0.91257 0.82641 0.0
C284 C 0.1104 0.8994 0.87872 0.0
C285 C 0.16846 0.88002 0.79846 0.0
C286 C 0.16609 0.83313 0.82181 0.0
C287 C 0.13518 0.81932 0.87395 0.0
C288 C 0.10738 0.85214 0.90205 0.0
C289 C 0.19781 0.80027 0.79178 0.0
C290 C 0.25134 0.81712 0.78247 0.0
C291 C 0.17562 0.75465 0.76829 0.0
C292 C 0.11864 0.73602 0.77163 0.0
C293 C 0.10211 0.69177 0.80114 0.0
C294 C 0.04841 0.67315 0.80191 0.0
C295 C 0.01095 0.69827 0.77276 0.0
C296 C 0.02706 0.74225 0.74318 0.0
C297 C 0.08068 0.76114 0.74255 0.0
C298 C 0.37591 0.68542 0.67756 0.0
C299 C 0.35728 0.66576 0.61913 0.0
C300 C 0.3436 0.70856 0.71374 0.0
C301 C 0.2927 0.71464 0.691 0.0
C302 C 0.27343 0.69358 0.63323 0.0
C303 C 0.30531 0.66888 0.59786 0.0
C304 C 0.26081 0.74462 0.72618 0.0
C305 C 0.20758 0.72713 0.73688 0.0
C306 C 0.28262 0.79071 0.74883 0.0
C307 C 0.33689 0.81382 0.73512 0.0
C308 C 0.3524 0.82061 0.6727 0.0
C309 C 0.40344 0.84282 0.66018 0.0
C310 C 0.43916 0.8588 0.70969 0.0
C311 C 0.42401 0.85243 0.77181 0.0
C312 C 0.37306 0.83017 0.78459 0.0
H313 H 0.47853 0.87628 0.69997 0.0
H314 H 0.96943 0.68363 0.77304 0.0
H315 H 0.16751 0.18359 0.96877 0.0
H316 H 0.22381 0.25172 0.92134 0.0
H317 H 0.11916 0.24139 0.75551 0.0
H318 H 0.06454 0.17219 0.80199 0.0
H319 H 0.21223 0.24666 0.72044 0.0
H320 H 0.13203 0.33525 0.86352 0.0
H321 H 0.10115 0.35778 0.96509 0.0
H322 H 0.26138 0.38931 0.03799 0.0
H323 H 0.29329 0.36644 0.93711 0.0
H324 H 0.37076 0.45424 0.58947 0.0
H325 H 0.29321 0.40943 0.63786 0.0
H326 H 0.3918 0.37152 0.79428 0.0
H327 H 0.46948 0.41629 0.74685 0.0
H328 H 0.29173 0.39746 0.82576 0.0
H329 H 0.37566 0.30585 0.68284 0.0
H330 H 0.42217 0.27742 0.58301 0.0
H331 H 0.20945 0.24592 0.49292 0.0
H332 H 0.19275 0.28158 0.60813 0.0
C333 C 0.15627 0.19669 0.92275 0.0
C334 C 0.11188 0.17322 0.88886 0.0
C335 C 0.18824 0.23563 0.89567 0.0
C336 C 0.17566 0.25207 0.83481 0.0
C337 C 0.1299 0.22945 0.8023 0.0
C338 C 0.09856 0.19016 0.8289 0.0
C339 C 0.21236 0.28993 0.80285 0.0
C340 C 0.2285 0.28027 0.74279 0.0
C341 C 0.23412 0.33357 0.83231 0.0
C342 C 0.21508 0.34827 0.89288 0.0
C343 C 0.16074 0.34653 0.90135 0.0
C344 C 0.14302 0.3595 0.9588 0.0
C345 C 0.17926 0.37475 1.00808 0.0
C346 C 0.23332 0.37741 0.99983 0.0
C347 C 0.25124 0.36449 0.94245 0.0
C348 C 0.37598 0.43697 0.63463 0.0
C349 C 0.42666 0.43827 0.66375 0.0
C350 C 0.33157 0.41121 0.66199 0.0
C351 C 0.33708 0.38608 0.71859 0.0
C352 C 0.38687 0.39017 0.75003 0.0
C353 C 0.43129 0.41568 0.7227 0.0
C354 C 0.29193 0.35361 0.74416 0.0
C355 C 0.27425 0.36437 0.80294 0.0
C356 C 0.26765 0.31149 0.71267 0.0
C357 C 0.28356 0.29689 0.65047 0.0
C358 C 0.34966 0.29538 0.64248 0.0
C359 C 0.37985 0.27655 0.5802 0.0
C360 C 0.34472 0.25511 0.51386 0.0
C361 C 0.24382 0.25675 0.5247 0.0
C362 C 0.23287 0.27914 0.59658 0.0
H363 H 0.3669 0.24238 0.47678 0.0
H364 H 0.16546 0.38468 0.05257 0.0
H365 H 0.87386 0.12875 0.94777 0.0
H366 H 0.81289 0.17544 0.89189 0.0
H367 H 0.85272 0.12113 0.71492 0.0
H368 H 0.91398 0.07519 0.7701 0.0
H369 H 0.86137 0.21395 0.7079 0.0
H370 H 0.73013 0.08802 0.7738 0.0
H371 H 0.68212 0.03106 0.84774 0.0
H372 H 0.64084 0.14799 0.95145 0.0
H373 H 0.68924 0.20573 0.8786 0.0
H374 H 0.60359 0.31062 0.59274 0.0
H375 H 0.64955 0.24528 0.63158 0.0
H376 H 0.77259 0.34804 0.7179 0.0
H377 H 0.72691 0.4134 0.67995 0.0
H378 H 0.676 0.22241 0.75747 0.0
H379 H 0.88941 0.3071 0.69755 0.0
H380 H 0.93353 0.35894 0.6153 0.0
H381 H 0.80399 0.31347 0.48408 0.0
H382 H 0.75949 0.26084 0.56517 0.0
C383 C 0.86872 0.12599 0.89709 0.0
C384 C 0.89908 0.09863 0.86333 0.0
C385 C 0.83388 0.1527 0.86515 0.0
C386 C 0.82835 0.15195 0.79907 0.0
C387 C 0.85665 0.12267 0.76577 0.0
C388 C 0.89158 0.09632 0.79748 0.0
C389 C 0.79629 0.18427 0.76425 0.0
C390 C 0.82077 0.21556 0.71866 0.0
C391 C 0.74292 0.18576 0.77706 0.0
C392 C 0.71371 0.15122 0.82101 0.0
C393 C 0.71117 0.10162 0.81266 0.0
C394 C 0.68382 0.06918 0.85433 0.0
C395 C 0.65854 0.0859 0.90435 0.0
C396 C 0.66047 0.1351 0.91271 0.0
C397 C 0.68781 0.1677 0.8712 0.0
C398 C 0.6406 0.31933 0.61967 0.0
C399 C 0.66148 0.36721 0.63358 0.0
C400 C 0.66661 0.28194 0.64205 0.0
C401 C 0.71433 0.29189 0.67765 0.0
C402 C 0.73586 0.33965 0.69028 0.0
C403 C 0.70966 0.37695 0.66859 0.0
C404 C 0.7417 0.25262 0.70278 0.0
C405 C 0.71645 0.22029 0.74655 0.0
C406 C 0.79393 0.24928 0.68717 0.0
C407 C 0.82093 0.2803 0.63773 0.0
C408 C 0.87047 0.30796 0.65108 0.0
C409 C 0.89553 0.33752 0.60464 0.0
C410 C 0.87152 0.33958 0.54456 0.0
C411 C 0.82247 0.31197 0.5307 0.0
C412 C 0.79728 0.28232 0.57692 0.0
H413 H 0.89097 0.36251 0.50871 0.0
H414 H 0.63737 0.06073 0.93655 0.0
H415 H 0.86885 0.88418 0.95045 0.0
H416 H 0.79871 0.82696 0.89966 0.0
H417 H 0.83869 0.88904 0.71859 0.0
H418 H 0.90916 0.94608 0.76876 0.0
H419 H 0.72612 0.86637 0.73904 0.0
H420 H 0.88851 0.79737 0.76774 0.0
H421 H 0.96037 0.77424 0.83666 0.0
H422 H 0.84874 0.67426 0.93464 0.0
H423 H 0.77569 0.69891 0.86881 0.0
H424 H 0.60671 0.69572 0.52348 0.0
H425 H 0.67152 0.75193 0.58322 0.0
H426 H 0.65598 0.657 0.74448 0.0
H427 H 0.59337 0.59928 0.68323 0.0
H428 H 0.75203 0.69579 0.7435 0.0
H429 H 0.59147 0.75935 0.72764 0.0
H430 H 0.51233 0.78382 0.67432 0.0
H431 H 0.61013 0.89079 0.56905 0.0
H432 H 0.68996 0.86634 0.62088 0.0
C433 C 0.86226 0.88613 0.89989 0.0
C434 C 0.89491 0.91946 0.86354 0.0
C435 C 0.82222 0.85334 0.87099 0.0
C436 C 0.81381 0.85357 0.80535 0.0
C437 C 0.84459 0.88827 0.7693 0.0
C438 C 0.88503 0.92064 0.79802 0.0
C439 C 0.77554 0.81578 0.7735 0.0
C440 C 0.73191 0.82912 0.73947 0.0
C441 C 0.78212 0.7669 0.77635 0.0
C442 C 0.82645 0.75046 0.81374 0.0
C443 C 0.87913 0.7708 0.80435 0.0
C444 C 0.92011 0.75748 0.84297 0.0
C445 C 0.90919 0.72262 0.88976 0.0
C446 C 0.85716 0.70125 0.89833 0.0
C447 C 0.8159 0.71511 0.86064 0.0
C448 C 0.61749 0.6867 0.57152 0.0
C449 C 0.59464 0.64339 0.59894 0.0
C450 C 0.65429 0.71901 0.60587 0.0
C451 C 0.66762 0.70959 0.66922 0.0
C452 C 0.64623 0.66542 0.69593 0.0
C453 C 0.61038 0.63245 0.66094 0.0
C454 C 0.70273 0.74636 0.70761 0.0
C455 C 0.74581 0.73291 0.74308 0.0
C456 C 0.69468 0.79496 0.70791 0.0
C457 C 0.64675 0.81071 0.67777 0.0
C458 C 0.59613 0.78795 0.6929 0.0
C459 C 0.55114 0.80178 0.6629 0.0
C460 C 0.55622 0.83873 0.61816 0.0
C461 C 0.60628 0.86211 0.60362 0.0
C462 C 0.65142 0.84829 0.63332 0.0
H463 H 0.52137 0.84933 0.59487 0.0
H464 H 0.94104 0.71217 0.91934 0.0
loop_
_geom_bond_atom_site_label_1
_geom_bond_atom_site_label_2
_geom_bond_distance
_geom_bond_site_symmetry_2
_ccdc_geom_bond_type
Fe0 O1 1.886 . S
Fe0 O4 1.715 1_554 S
Fe0 O9 2.077 1_655 S
Fe0 O14 1.935 1_654 S
Fe0 O20 2.077 . S
Fe0 O29 1.935 1_554 S
O1 Fe0 1.886 . S
O1 Fe3 1.715 1_655 S
Fe2 O4 1.886 1_545 S
Fe2 O5 1.715 1_655 S
Fe2 O12 1.935 1_655 S
Fe2 O13 2.077 1_645 S
Fe2 O19 1.935 . S
Fe2 O28 2.077 1_545 S
Fe3 O1 1.715 1_455 S
Fe3 O6 1.886 1_565 S
Fe3 O10 1.935 . S
Fe3 O15 2.077 1_565 S
Fe3 O21 1.935 1_455 S
Fe3 O25 2.077 1_465 S
O4 Fe0 1.715 1_556 S
O4 Fe2 1.886 1_565 S
O5 Fe2 1.715 1_455 S
O5 Fe7 1.886 . S
O6 Fe3 1.886 1_545 S
O6 Fe7 1.715 1_554 S
Fe7 O5 1.886 . S
Fe7 O6 1.715 1_556 S
Fe7 O11 2.077 . S
Fe7 O16 1.935 1_556 S
Fe7 O18 2.077 1_455 S
Fe7 O26 1.935 1_456 S
C8 O20 1.381 . S
C8 O21 1.421 . S
O9 Fe0 2.077 1_455 S
O9 C22 1.381 . S
O10 Fe3 1.935 . S
O10 C22 1.421 . S
O11 Fe7 2.077 . S
O11 C27 1.381 . S
O12 Fe2 1.935 1_455 S
O12 C27 1.421 . S
O13 Fe2 2.077 1_465 S
O13 C17 1.381 . S
O14 Fe0 1.935 1_456 S
O14 C17 1.421 . S
O15 Fe3 2.077 1_545 S
O15 C23 1.381 . S
O16 Fe7 1.935 1_554 S
O16 C23 1.421 . S
C17 O13 1.381 . S
C17 O14 1.421 . S
O18 Fe7 2.077 1_655 S
O18 C30 1.381 . S
O19 Fe2 1.935 . S
O19 C30 1.421 . S
O20 Fe0 2.077 . S
O20 C8 1.381 . S
O21 Fe3 1.935 1_655 S
O21 C8 1.421 . S
C22 O9 1.381 . S
C22 O10 1.421 . S
C23 O15 1.381 . S
C23 O16 1.421 . S
C24 O25 1.381 . S
C24 O26 1.421 . S
O25 Fe3 2.077 1_645 S
O25 C24 1.381 . S
O26 Fe7 1.935 1_654 S
O26 C24 1.421 . S
C27 O11 1.381 . S
C27 O12 1.421 . S
O28 Fe2 2.077 1_565 S
O28 C31 1.381 . S
O29 Fe0 1.935 1_556 S
O29 C31 1.421 . S
C30 O18 1.381 . S
C30 O19 1.421 . S
C31 O28 1.381 . S
C31 O29 1.421 . S
Co32 O35 2.042 . S
Co32 O42 2.264 . S
Co32 O61 2.286 . S
Co32 O62 2.069 . S
Co32 O64 2.015 . S
Co33 O35 2.122 . S
Co33 O41 2.073 . S
Co33 O42 2.327 . S
Co33 O43 1.976 . S
Co34 O35 2.087 . S
Co34 O37 2.087 . S
Co34 O44 2.111 . S
Co34 O45 2.143 . S
Co34 O49 2.111 . S
Co34 O63 2.143 . S
O35 Co32 2.042 . S
O35 Co33 2.122 . S
O35 Co34 2.087 . S
O35 H36 0.980 . S
H36 O35 0.980 . S
O37 Co34 2.087 . S
O37 Co38 2.042 . S
O37 Co39 2.122 . S
O37 H40 0.980 . S
Co38 O37 2.042 . S
Co38 O46 2.286 . S
Co38 O47 2.069 . S
Co38 O48 2.015 . S
Co38 O51 2.264 . S
Co39 O37 2.122 . S
Co39 O50 1.976 . S
Co39 O51 2.327 . S
Co39 O52 2.073 . S
H40 O37 0.980 . S
O41 Co33 2.073 . S
O41 C56 1.245 . S
O42 Co32 2.264 . S
O42 Co33 2.327 . S
O42 C56 1.257 . S
O43 Co33 1.976 . S
O43 C55 1.251 . S
O44 Co34 2.111 . S
O44 C55 1.274 . S
O45 Co34 2.143 . S
O45 C58 1.246 . S
O46 Co38 2.286 . S
O46 C57 1.259 . S
O47 Co38 2.069 . S
O47 C57 1.289 . S
O48 Co38 2.015 . S
O48 C58 1.257 . S
O49 Co34 2.111 . S
O49 C59 1.274 . S
O50 Co39 1.976 . S
O50 C59 1.251 . S
O51 Co38 2.264 . S
O51 Co39 2.327 . S
O51 C60 1.257 . S
O52 Co39 2.073 . S
O52 C60 1.245 . S
C53 O61 1.259 . S
C53 O62 1.289 . S
C54 O63 1.246 . S
C54 O64 1.257 . S
C55 O43 1.251 . S
C55 O44 1.274 . S
C56 O41 1.245 . S
C56 O42 1.257 . S
C57 O46 1.259 . S
C57 O47 1.289 . S
C58 O45 1.246 . S
C58 O48 1.257 . S
C59 O49 1.274 . S
C59 O50 1.251 . S
C60 O51 1.257 . S
C60 O52 1.245 . S
O61 Co32 2.286 . S
O61 C53 1.259 . S
O62 Co32 2.069 . S
O62 C53 1.289 . S
O63 Co34 2.143 . S
O63 C54 1.246 . S
O64 Co32 2.015 . S
O64 C54 1.257 . S
H65 C83 0.951 . S
H66 C85 0.951 . S
H67 C87 0.950 . S
H68 C88 0.950 . S
H69 C90 0.950 . S
H70 C93 0.950 . S
H71 C94 0.950 . S
H72 C96 0.950 . S
H73 C97 0.950 . S
H74 C98 0.951 . S
H75 C100 0.951 . S
H76 C102 0.950 . S
H77 C103 0.950 . S
H78 C105 0.950 . S
H79 C108 0.950 . S
H80 C109 0.950 . S
H81 C111 0.950 . S
H82 C112 0.950 . S
C83 H65 0.951 . S
C83 C84 1.366 . S
C83 C85 1.388 . S
C84 C83 1.366 . S
C84 C88 1.385 . S
C85 H66 0.951 . S
C85 C83 1.388 . S
C85 C86 1.366 . S
C86 C85 1.366 . S
C86 C87 1.414 . S
C86 C89 1.499 . S
C87 H67 0.950 . S
C87 C86 1.414 . S
C87 C88 1.374 . S
C88 H68 0.950 . S
C88 C84 1.385 . S
C88 C87 1.374 . S
C89 C86 1.499 . S
C89 C90 1.373 . S
C89 C91 1.389 . S
C90 H69 0.950 . S
C90 C89 1.373 . S
C90 C106 1.377 . S
C91 C89 1.389 . S
C91 C92 1.524 . S
C91 C105 1.377 . S
C92 C91 1.524 . S
C92 C93 1.397 . S
C92 C97 1.363 . S
C93 H70 0.950 . S
C93 C92 1.397 . S
C93 C94 1.334 . S
C94 H71 0.950 . S
C94 C93 1.334 . S
C94 C95 1.287 . S
C95 C94 1.287 . S
C95 C96 1.524 . S
C95 H114 0.913 1_554 S
C96 H72 0.950 . S
C96 C95 1.524 . S
C96 C97 1.415 . S
C97 H73 0.950 . S
C97 C92 1.363 . S
C97 C96 1.415 . S
C98 H74 0.951 . S
C98 C99 1.366 . S
C98 C100 1.388 . S
C99 C98 1.366 . S
C99 C103 1.385 . S
C100 H75 0.951 . S
C100 C98 1.388 . S
C100 C101 1.366 . S
C101 C100 1.366 . S
C101 C102 1.414 . S
C101 C104 1.499 . S
C102 H76 0.950 . S
C102 C101 1.414 . S
C102 C103 1.374 . S
C103 H77 0.950 . S
C103 C99 1.385 . S
C103 C102 1.374 . S
C104 C101 1.499 . S
C104 C105 1.373 . S
C104 C106 1.389 . S
C105 H78 0.950 . S
C105 C91 1.377 . S
C105 C104 1.373 . S
C106 C90 1.377 . S
C106 C104 1.389 . S
C106 C107 1.524 . S
C107 C106 1.524 . S
C107 C108 1.397 . S
C107 C112 1.363 . S
C108 H79 0.950 . S
C108 C107 1.397 . S
C108 C109 1.334 . S
C109 H80 0.950 . S
C109 C108 1.334 . S
C109 C110 1.287 . S
C110 C109 1.287 . S
C110 C111 1.524 . S
C110 H113 0.999 . S
C111 H81 0.950 . S
C111 C110 1.524 . S
C111 C112 1.415 . S
C112 H82 0.950 . S
C112 C107 1.363 . S
C112 C111 1.415 . S
H113 C110 0.999 . S
H114 C95 0.913 1_556 S
H115 C133 0.951 . S
H116 C135 0.951 . S
H117 C137 0.950 . S
H118 C138 0.950 . S
H119 C140 0.950 . S
H120 C143 0.950 . S
H121 C144 0.950 . S
H122 C146 0.950 . S
H123 C147 0.950 . S
H124 C148 0.951 . S
H125 C150 0.951 . S
H126 C152 0.950 . S
H127 C153 0.950 . S
H128 C155 0.950 . S
H129 C158 0.950 . S
H130 C159 0.950 . S
H131 C161 0.950 . S
H132 C162 0.950 . S
C133 H115 0.951 . S
C133 C134 1.366 . S
C133 C135 1.388 . S
C134 C133 1.366 . S
C134 C138 1.385 . S
C135 H116 0.951 . S
C135 C133 1.388 . S
C135 C136 1.366 . S
C136 C135 1.366 . S
C136 C137 1.414 . S
C136 C139 1.499 . S
C137 H117 0.950 . S
C137 C136 1.414 . S
C137 C138 1.374 . S
C138 H118 0.950 . S
C138 C134 1.385 . S
C138 C137 1.374 . S
C139 C136 1.499 . S
C139 C140 1.373 . S
C139 C141 1.389 . S
C140 H119 0.950 . S
C140 C139 1.373 . S
C140 C156 1.377 . S
C141 C139 1.389 . S
C141 C142 1.524 . S
C141 C155 1.377 . S
C142 C141 1.524 . S
C142 C143 1.397 . S
C142 C147 1.363 . S
C143 H120 0.950 . S
C143 C142 1.397 . S
C143 C144 1.334 . S
C144 H121 0.950 . S
C144 C143 1.334 . S
C144 C145 1.287 . S
C145 C144 1.287 . S
C145 C146 1.524 . S
C145 H164 0.913 . S
C146 H122 0.950 . S
C146 C145 1.524 . S
C146 C147 1.415 . S
C147 H123 0.950 . S
C147 C142 1.363 . S
C147 C146 1.415 . S
C148 H124 0.951 . S
C148 C149 1.366 . S
C148 C150 1.388 . S
C149 C148 1.366 . S
C149 C153 1.385 . S
C150 H125 0.951 . S
C150 C148 1.388 . S
C150 C151 1.366 . S
C151 C150 1.366 . S
C151 C152 1.414 . S
C151 C154 1.499 . S
C152 H126 0.950 . S
C152 C151 1.414 . S
C152 C153 1.374 . S
C153 H127 0.950 . S
C153 C149 1.385 . S
C153 C152 1.374 . S
C154 C151 1.499 . S
C154 C155 1.373 . S
C154 C156 1.389 . S
C155 H128 0.950 . S
C155 C141 1.377 . S
C155 C154 1.373 . S
C156 C140 1.377 . S
C156 C154 1.389 . S
C156 C157 1.524 . S
C157 C156 1.524 . S
C157 C158 1.397 . S
C157 C162 1.363 . S
C158 H129 0.950 . S
C158 C157 1.397 . S
C158 C159 1.334 . S
C159 H130 0.950 . S
C159 C158 1.334 . S
C159 C160 1.287 . S
C160 C159 1.287 . S
C160 C161 1.524 . S
C160 H163 0.999 . S
C161 H131 0.950 . S
C161 C160 1.524 . S
C161 C162 1.415 . S
C162 H132 0.950 . S
C162 C157 1.363 . S
C162 C161 1.415 . S
H163 C160 0.999 . S
H164 C145 0.913 . S
H165 C183 0.951 . S
H166 C185 0.951 . S
H167 C187 0.950 . S
H168 C188 0.950 . S
H169 C190 0.950 . S
H170 C193 0.950 . S
H171 C194 0.950 . S
H172 C196 0.950 . S
H173 C197 0.950 . S
H174 C198 0.951 . S
H175 C200 0.951 . S
H176 C202 0.950 . S
H177 C203 0.950 . S
H178 C205 0.950 . S
H179 C208 0.950 . S
H180 C209 0.950 . S
H181 C211 0.950 . S
H182 C212 0.950 . S
C183 H165 0.951 . S
C183 C184 1.366 . S
C183 C185 1.388 . S
C184 C183 1.366 . S
C184 C188 1.385 . S
C185 H166 0.951 . S
C185 C183 1.388 . S
C185 C186 1.366 . S
C186 C185 1.366 . S
C186 C187 1.414 . S
C186 C189 1.499 . S
C187 H167 0.950 . S
C187 C186 1.414 . S
C187 C188 1.374 . S
C188 H168 0.950 . S
C188 C184 1.385 . S
C188 C187 1.374 . S
C189 C186 1.499 . S
C189 C190 1.373 . S
C189 C191 1.389 . S
C190 H169 0.950 . S
C190 C189 1.373 . S
C190 C206 1.377 . S
C191 C189 1.389 . S
C191 C192 1.524 . S
C191 C205 1.377 . S
C192 C191 1.524 . S
C192 C193 1.397 . S
C192 C197 1.363 . S
C193 H170 0.950 . S
C193 C192 1.397 . S
C193 C194 1.334 . S
C194 H171 0.950 . S
C194 C193 1.334 . S
C194 C195 1.287 . S
C195 C194 1.287 . S
C195 C196 1.524 . S
C195 H214 0.913 . S
C196 H172 0.950 . S
C196 C195 1.524 . S
C196 C197 1.415 . S
C197 H173 0.950 . S
C197 C192 1.363 . S
C197 C196 1.415 . S
C198 H174 0.951 . S
C198 C199 1.366 . S
C198 C200 1.388 . S
C199 C198 1.366 . S
C199 C203 1.385 . S
C200 H175 0.951 . S
C200 C198 1.388 . S
C200 C201 1.366 . S
C201 C200 1.366 . S
C201 C202 1.414 . S
C201 C204 1.499 . S
C202 H176 0.950 . S
C202 C201 1.414 . S
C202 C203 1.374 . S
C203 H177 0.950 . S
C203 C199 1.385 . S
C203 C202 1.374 . S
C204 C201 1.499 . S
C204 C205 1.373 . S
C204 C206 1.389 . S
C205 H178 0.950 . S
C205 C191 1.377 . S
C205 C204 1.373 . S
C206 C190 1.377 . S
C206 C204 1.389 . S
C206 C207 1.524 . S
C207 C206 1.524 . S
C207 C208 1.397 . S
C207 C212 1.363 . S
C208 H179 0.950 . S
C208 C207 1.397 . S
C208 C209 1.334 . S
C209 H180 0.950 . S
C209 C208 1.334 . S
C209 C210 1.287 . S
C210 C209 1.287 . S
C210 C211 1.524 . S
C210 H213 0.999 . S
C211 H181 0.950 . S
C211 C210 1.524 . S
C211 C212 1.415 . S
C212 H182 0.950 . S
C212 C207 1.363 . S
C212 C211 1.415 . S
H213 C210 0.999 . S
H214 C195 0.913 . S
H215 C233 0.951 . S
H216 C235 0.951 . S
H217 C237 0.950 . S
H218 C238 0.950 . S
H219 C240 0.950 . S
H220 C243 0.950 . S
H221 C244 0.950 . S
H222 C246 0.950 . S
H223 C247 0.950 . S
H224 C248 0.951 . S
H225 C250 0.951 . S
H226 C252 0.950 . S
H227 C253 0.950 . S
H228 C255 0.950 . S
H229 C258 0.950 . S
H230 C259 0.950 . S
H231 C261 0.950 . S
H232 C262 0.950 . S
C233 H215 0.951 . S
C233 C234 1.366 . S
C233 C235 1.388 . S
C234 C233 1.366 . S
C234 C238 1.385 . S
C235 H216 0.951 . S
C235 C233 1.388 . S
C235 C236 1.366 . S
C236 C235 1.366 . S
C236 C237 1.414 . S
C236 C239 1.499 . S
C237 H217 0.950 . S
C237 C236 1.414 . S
C237 C238 1.374 . S
C238 H218 0.950 . S
C238 C234 1.385 . S
C238 C237 1.374 . S
C239 C236 1.499 . S
C239 C240 1.373 . S
C239 C241 1.389 . S
C240 H219 0.950 . S
C240 C239 1.373 . S
C240 C256 1.377 . S
C241 C239 1.389 . S
C241 C242 1.524 . S
C241 C255 1.377 . S
C242 C241 1.524 . S
C242 C243 1.397 . S
C242 C247 1.363 . S
C243 H220 0.950 . S
C243 C242 1.397 . S
C243 C244 1.334 . S
C244 H221 0.950 . S
C244 C243 1.334 . S
C244 C245 1.287 . S
C245 C244 1.287 . S
C245 C246 1.524 . S
C245 H264 0.913 . S
C246 H222 0.950 . S
C246 C245 1.524 . S
C246 C247 1.415 . S
C247 H223 0.950 . S
C247 C242 1.363 . S
C247 C246 1.415 . S
C248 H224 0.951 . S
C248 C249 1.366 . S
C248 C250 1.388 . S
C249 C248 1.366 . S
C249 C253 1.385 . S
C250 H225 0.951 . S
C250 C248 1.388 . S
C250 C251 1.366 . S
C251 C250 1.366 . S
C251 C252 1.414 . S
C251 C254 1.499 . S
C252 H226 0.950 . S
C252 C251 1.414 . S
C252 C253 1.374 . S
C253 H227 0.950 . S
C253 C249 1.385 . S
C253 C252 1.374 . S
C254 C251 1.499 . S
C254 C255 1.373 . S
C254 C256 1.389 . S
C255 H228 0.950 . S
C255 C241 1.377 . S
C255 C254 1.373 . S
C256 C240 1.377 . S
C256 C254 1.389 . S
C256 C257 1.524 . S
C257 C256 1.524 . S
C257 C258 1.397 . S
C257 C262 1.363 . S
C258 H229 0.950 . S
C258 C257 1.397 . S
C258 C259 1.334 . S
C259 H230 0.950 . S
C259 C258 1.334 . S
C259 C260 1.287 . S
C260 C259 1.287 . S
C260 C261 1.524 . S
C260 H263 0.999 . S
C261 H231 0.950 . S
C261 C260 1.524 . S
C261 C262 1.415 . S
C262 H232 0.950 . S
C262 C257 1.363 . S
C262 C261 1.415 . S
H263 C260 0.999 . S
H264 C245 0.913 . S
H265 C283 0.951 . S
H266 C285 0.951 . S
H267 C287 0.950 . S
H268 C288 0.950 . S
H269 C290 0.950 . S
H270 C293 0.950 . S
H271 C294 0.950 . S
H272 C296 0.950 . S
H273 C297 0.950 . S
H274 C298 0.951 . S
H275 C300 0.951 . S
H276 C302 0.950 . S
H277 C303 0.950 . S
H278 C305 0.950 . S
H279 C308 0.950 . S
H280 C309 0.950 . S
H281 C311 0.950 . S
H282 C312 0.950 . S
C283 H265 0.951 . S
C283 C284 1.366 . S
C283 C285 1.388 . S
C284 C283 1.366 . S
C284 C288 1.385 . S
C285 H266 0.951 . S
C285 C283 1.388 . S
C285 C286 1.366 . S
C286 C285 1.366 . S
C286 C287 1.414 . S
C286 C289 1.499 . S
C287 H267 0.950 . S
C287 C286 1.414 . S
C287 C288 1.374 . S
C288 H268 0.950 . S
C288 C284 1.385 . S
C288 C287 1.374 . S
C289 C286 1.499 . S
C289 C290 1.373 . S
C289 C291 1.389 . S
C290 H269 0.950 . S
C290 C289 1.373 . S
C290 C306 1.377 . S
C291 C289 1.389 . S
C291 C292 1.524 . S
C291 C305 1.377 . S
C292 C291 1.524 . S
C292 C293 1.397 . S
C292 C297 1.363 . S
C293 H270 0.950 . S
C293 C292 1.397 . S
C293 C294 1.334 . S
C294 H271 0.950 . S
C294 C293 1.334 . S
C294 C295 1.287 . S
C295 C294 1.287 . S
C295 C296 1.524 . S
C295 H314 0.913 1_455 S
C296 H272 0.950 . S
C296 C295 1.524 . S
C296 C297 1.415 . S
C297 H273 0.950 . S
C297 C292 1.363 . S
C297 C296 1.415 . S
C298 H274 0.951 . S
C298 C299 1.366 . S
C298 C300 1.388 . S
C299 C298 1.366 . S
C299 C303 1.385 . S
C300 H275 0.951 . S
C300 C298 1.388 . S
C300 C301 1.366 . S
C301 C300 1.366 . S
C301 C302 1.414 . S
C301 C304 1.499 . S
C302 H276 0.950 . S
C302 C301 1.414 . S
C302 C303 1.374 . S
C303 H277 0.950 . S
C303 C299 1.385 . S
C303 C302 1.374 . S
C304 C301 1.499 . S
C304 C305 1.373 . S
C304 C306 1.389 . S
C305 H278 0.950 . S
C305 C291 1.377 . S
C305 C304 1.373 . S
C306 C290 1.377 . S
C306 C304 1.389 . S
C306 C307 1.524 . S
C307 C306 1.524 . S
C307 C308 1.397 . S
C307 C312 1.363 . S
C308 H279 0.950 . S
C308 C307 1.397 . S
C308 C309 1.334 . S
C309 H280 0.950 . S
C309 C308 1.334 . S
C309 C310 1.287 . S
C310 C309 1.287 . S
C310 C311 1.524 . S
C310 H313 0.999 . S
C311 H281 0.950 . S
C311 C310 1.524 . S
C311 C312 1.415 . S
C312 H282 0.950 . S
C312 C307 1.363 . S
C312 C311 1.415 . S
H313 C310 0.999 . S
H314 C295 0.913 1_655 S
H315 C333 0.951 . S
H316 C335 0.951 . S
H317 C337 0.950 . S
H318 C338 0.950 . S
H319 C340 0.950 . S
H320 C343 0.950 . S
H321 C344 0.950 . S
H322 C346 0.950 . S
H323 C347 0.950 . S
H324 C348 0.951 . S
H325 C350 0.951 . S
H326 C352 0.950 . S
H327 C353 0.950 . S
H328 C355 0.950 . S
H329 C358 0.950 . S
H330 C359 0.950 . S
H331 C361 0.950 . S
H332 C362 0.950 . S
C333 H315 0.951 . S
C333 C334 1.366 . S
C333 C335 1.388 . S
C334 C333 1.366 . S
C334 C338 1.385 . S
C335 H316 0.951 . S
C335 C333 1.388 . S
C335 C336 1.366 . S
C336 C335 1.366 . S
C336 C337 1.414 . S
C336 C339 1.499 . S
C337 H317 0.950 . S
C337 C336 1.414 . S
C337 C338 1.374 . S
C338 H318 0.950 . S
C338 C334 1.385 . S
C338 C337 1.374 . S
C339 C336 1.499 . S
C339 C340 1.373 . S
C339 C341 1.389 . S
C340 H319 0.950 . S
C340 C339 1.373 . S
C340 C356 1.377 . S
C341 C339 1.389 . S
C341 C342 1.524 . S
C341 C355 1.377 . S
C342 C341 1.524 . S
C342 C343 1.397 . S
C342 C347 1.363 . S
C343 H320 0.950 . S
C343 C342 1.397 . S
C343 C344 1.334 . S
C344 H321 0.950 . S
C344 C343 1.334 . S
C344 C345 1.287 . S
C345 C344 1.287 . S
C345 C346 1.524 . S
C345 H364 0.913 1_556 S
C346 H322 0.950 . S
C346 C345 1.524 . S
C346 C347 1.415 . S
C347 H323 0.950 . S
C347 C342 1.363 . S
C347 C346 1.415 . S
C348 H324 0.951 . S
C348 C349 1.366 . S
C348 C350 1.388 . S
C349 C348 1.366 . S
C349 C353 1.385 . S
C350 H325 0.951 . S
C350 C348 1.388 . S
C350 C351 1.366 . S
C351 C350 1.366 . S
C351 C352 1.414 . S
C351 C354 1.499 . S
C352 H326 0.950 . S
C352 C351 1.414 . S
C352 C353 1.374 . S
C353 H327 0.950 . S
C353 C349 1.385 . S
C353 C352 1.374 . S
C354 C351 1.499 . S
C354 C355 1.373 . S
C354 C356 1.389 . S
C355 H328 0.950 . S
C355 C341 1.377 . S
C355 C354 1.373 . S
C356 C340 1.377 . S
C356 C354 1.389 . S
C356 C357 1.524 . S
C357 C356 1.524 . S
C357 C358 1.397 . S
C357 C362 1.363 . S
C358 H329 0.950 . S
C358 C357 1.397 . S
C358 C359 1.334 . S
C359 H330 0.950 . S
C359 C358 1.334 . S
C359 C360 1.287 . S
C360 C359 1.287 . S
C360 C361 1.524 . S
C360 H363 0.999 . S
C361 H331 0.950 . S
C361 C360 1.524 . S
C361 C362 1.415 . S
C362 H332 0.950 . S
C362 C357 1.363 . S
C362 C361 1.415 . S
H363 C360 0.999 . S
H364 C345 0.913 1_554 S
H365 C383 0.951 . S
H366 C385 0.951 . S
H367 C387 0.950 . S
H368 C388 0.950 . S
H369 C390 0.950 . S
H370 C393 0.950 . S
H371 C394 0.950 . S
H372 C396 0.950 . S
H373 C397 0.950 . S
H374 C398 0.951 . S
H375 C400 0.951 . S
H376 C402 0.950 . S
H377 C403 0.950 . S
H378 C405 0.950 . S
H379 C408 0.950 . S
H380 C409 0.950 . S
H381 C411 0.950 . S
H382 C412 0.950 . S
C383 H365 0.951 . S
C383 C384 1.366 . S
C383 C385 1.388 . S
C384 C383 1.366 . S
C384 C388 1.385 . S
C385 H366 0.951 . S
C385 C383 1.388 . S
C385 C386 1.366 . S
C386 C385 1.366 . S
C386 C387 1.414 . S
C386 C389 1.499 . S
C387 H367 0.950 . S
C387 C386 1.414 . S
C387 C388 1.374 . S
C388 H368 0.950 . S
C388 C384 1.385 . S
C388 C387 1.374 . S
C389 C386 1.499 . S
C389 C390 1.373 . S
C389 C391 1.389 . S
C390 H369 0.950 . S
C390 C389 1.373 . S
C390 C406 1.377 . S
C391 C389 1.389 . S
C391 C392 1.524 . S
C391 C405 1.377 . S
C392 C391 1.524 . S
C392 C393 1.397 . S
C392 C397 1.363 . S
C393 H370 0.950 . S
C393 C392 1.397 . S
C393 C394 1.334 . S
C394 H371 0.950 . S
C394 C393 1.334 . S
C394 C395 1.287 . S
C395 C394 1.287 . S
C395 C396 1.524 . S
C395 H414 0.913 . S
C396 H372 0.950 . S
C396 C395 1.524 . S
C396 C397 1.415 . S
C397 H373 0.950 . S
C397 C392 1.363 . S
C397 C396 1.415 . S
C398 H374 0.951 . S
C398 C399 1.366 . S
C398 C400 1.388 . S
C399 C398 1.366 . S
C399 C403 1.385 . S
C400 H375 0.951 . S
C400 C398 1.388 . S
C400 C401 1.366 . S
C401 C400 1.366 . S
C401 C402 1.414 . S
C401 C404 1.499 . S
C402 H376 0.950 . S
C402 C401 1.414 . S
C402 C403 1.374 . S
C403 H377 0.950 . S
C403 C399 1.385 . S
C403 C402 1.374 . S
C404 C401 1.499 . S
C404 C405 1.373 . S
C404 C406 1.389 . S
C405 H378 0.950 . S
C405 C391 1.377 . S
C405 C404 1.373 . S
C406 C390 1.377 . S
C406 C404 1.389 . S
C406 C407 1.524 . S
C407 C406 1.524 . S
C407 C408 1.397 . S
C407 C412 1.363 . S
C408 H379 0.950 . S
C408 C407 1.397 . S
C408 C409 1.334 . S
C409 H380 0.950 . S
C409 C408 1.334 . S
C409 C410 1.287 . S
C410 C409 1.287 . S
C410 C411 1.524 . S
C410 H413 0.999 . S
C411 H381 0.950 . S
C411 C410 1.524 . S
C411 C412 1.415 . S
C412 H382 0.950 . S
C412 C407 1.363 . S
C412 C411 1.415 . S
H413 C410 0.999 . S
H414 C395 0.913 . S
H415 C433 0.951 . S
H416 C435 0.951 . S
H417 C437 0.950 . S
H418 C438 0.950 . S
H419 C440 0.950 . S
H420 C443 0.950 . S
H421 C444 0.950 . S
H422 C446 0.950 . S
H423 C447 0.950 . S
H424 C448 0.951 . S
H425 C450 0.951 . S
H426 C452 0.950 . S
H427 C453 0.950 . S
H428 C455 0.950 . S
H429 C458 0.950 . S
H430 C459 0.950 . S
H431 C461 0.950 . S
H432 C462 0.950 . S
C433 H415 0.951 . S
C433 C434 1.366 . S
C433 C435 1.388 . S
C434 C433 1.366 . S
C434 C438 1.385 . S
C435 H416 0.951 . S
C435 C433 1.388 . S
C435 C436 1.366 . S
C436 C435 1.366 . S
C436 C437 1.414 . S
C436 C439 1.499 . S
C437 H417 0.950 . S
C437 C436 1.414 . S
C437 C438 1.374 . S
C438 H418 0.950 . S
C438 C434 1.385 . S
C438 C437 1.374 . S
C439 C436 1.499 . S
C439 C440 1.373 . S
C439 C441 1.389 . S
C440 H419 0.950 . S
C440 C439 1.373 . S
C440 C456 1.377 . S
C441 C439 1.389 . S
C441 C442 1.524 . S
C441 C455 1.377 . S
C442 C441 1.524 . S
C442 C443 1.397 . S
C442 C447 1.363 . S
C443 H420 0.950 . S
C443 C442 1.397 . S
C443 C444 1.334 . S
C444 H421 0.950 . S
C444 C443 1.334 . S
C444 C445 1.287 . S
C445 C444 1.287 . S
C445 C446 1.524 . S
C445 H464 0.913 . S
C446 H422 0.950 . S
C446 C445 1.524 . S
C446 C447 1.415 . S
C447 H423 0.950 . S
C447 C442 1.363 . S
C447 C446 1.415 . S
C448 H424 0.951 . S
C448 C449 1.366 . S
C448 C450 1.388 . S
C449 C448 1.366 . S
C449 C453 1.385 . S
C450 H425 0.951 . S
C450 C448 1.388 . S
C450 C451 1.366 . S
C451 C450 1.366 . S
C451 C452 1.414 . S
C451 C454 1.499 . S
C452 H426 0.950 . S
C452 C451 1.414 . S
C452 C453 1.374 . S
C453 H427 0.950 . S
C453 C449 1.385 . S
C453 C452 1.374 . S
C454 C451 1.499 . S
C454 C455 1.373 . S
C454 C456 1.389 . S
C455 H428 0.950 . S
C455 C441 1.377 . S
C455 C454 1.373 . S
C456 C440 1.377 . S
C456 C454 1.389 . S
C456 C457 1.524 . S
C457 C456 1.524 . S
C457 C458 1.397 . S
C457 C462 1.363 . S
C458 H429 0.950 . S
C458 C457 1.397 . S
C458 C459 1.334 . S
C459 H430 0.950 . S
C459 C458 1.334 . S
C459 C460 1.287 . S
C460 C459 1.287 . S
C460 C461 1.524 . S
C460 H463 0.999 . S
C461 H431 0.950 . S
C461 C460 1.524 . S
C461 C462 1.415 . S
C462 H432 0.950 . S
C462 C457 1.363 . S
C462 C461 1.415 . S
H463 C460 0.999 . S
H464 C445 0.913 . S
C84 C23 1.425 . S
C99 C54 1.426 . S
C134 C24 1.653 . S
C149 C53 1.687 . S
C184 C8 1.419 . S
C199 C59 1.359 . S
C234 C22 1.450 . S
C249 C60 1.406 . S
C284 C17 1.653 . S
C299 C57 1.689 . S
C349 C55 1.358 . S
C334 C27 1.420 . S
C384 C30 1.449 . S
C399 C56 1.406 . S
C449 C58 1.427 . S
C434 C31 1.427 . S
