# Generated by pormake.
# Topology pth, (4,4)-cn, num edge types: 1
# Building blocks:
#     Node 0, Type 0, BuildingBlock: QUQFOY_clean_sbu_1, # of connection points: 4
#     Node 1, Type 0, BuildingBlock: QUQFOY_clean_sbu_1, # of connection points: 4
#     Node 2, Type 0, BuildingBlock: QUQFOY_clean_sbu_1, # of connection points: 4
#     Node 3, Type 1, BuildingBlock: NAWXER_clean_sbu_0, # of connection points: 4
#     Node 4, Type 1, BuildingBlock: NAWXER_clean_sbu_0, # of connection points: 4
#     Node 5, Type 1, BuildingBlock: NAWXER_clean_sbu_0, # of connection points: 4
#     Edge 6, Type (0, 1), BuildingBlock: XIVTED_clean_linker_0, # of connection points: 2
#     Edge 7, Type (0, 1), BuildingBlock: XIVTED_clean_linker_0, # of connection points: 2
#     Edge 8, Type (0, 1), BuildingBlock: XIVTED_clean_linker_0, # of connection points: 2
#     Edge 9, Type (0, 1), BuildingBlock: XIVTED_clean_linker_0, # of connection points: 2
#     Edge 10, Type (0, 1), BuildingBlock: XIVTED_clean_linker_0, # of connection points: 2
#     Edge 11, Type (0, 1), BuildingBlock: XIVTED_clean_linker_0, # of connection points: 2
#     Edge 12, Type (0, 1), BuildingBlock: XIVTED_clean_linker_0, # of connection points: 2
#     Edge 13, Type (0, 1), BuildingBlock: XIVTED_clean_linker_0, # of connection points: 2
#     Edge 14, Type (0, 1), BuildingBlock: XIVTED_clean_linker_0, # of connection points: 2
#     Edge 15, Type (0, 1), BuildingBlock: XIVTED_clean_linker_0, # of connection points: 2
#     Edge 16, Type (0, 1), BuildingBlock: XIVTED_clean_linker_0, # of connection points: 2
#     Edge 17, Type (0, 1), BuildingBlock: XIVTED_clean_linker_0, # of connection points: 2
# Relax obj value: 0.024
# Max RMSD: 0.121
# Mean RMSD: 0.064
data_MOF--net-pth--node1-QUQFOY_clean_sbu_1--node2-NAWXER_clean_sbu_0--edge1-XIVTED_clean_linker_0
_symmetry_space_group_name_H-M    P1
_symmetry_Int_Tables_number       1
_symmetry_cell_setting            triclinic
loop_
_symmetry_equiv_pos_as_xyz
'x, y, z'
_cell_length_a     22.577759
_cell_length_b     23.933797
_cell_length_c     58.146925
_cell_angle_alpha  90.010532
_cell_angle_beta   89.974703
_cell_angle_gamma 119.90007
loop_
_atom_site_label
_atom_site_type_symbol
_atom_site_fract_x
_atom_site_fract_y
_atom_site_fract_z
_atom_type_partial_charge
O0 O 0.02224 0.09384 0.04732 0.0
Cd1 Cd 0.9576 0.03297 0.072 0.0
Cd2 Cd 0.04115 0.99237 0.07158 0.0
O3 O 0.10843 0.0872 0.06176 0.0
O4 O 0.91511 0.07994 0.08661 0.0
O5 O 0.99352 0.06445 0.10368 0.0
C6 C 0.95684 0.09207 0.10358 0.0
C7 C 0.04421 0.93287 0.10265 0.0
C8 C 0.08618 0.11619 0.04907 0.0
C9 C 0.91159 0.9096 0.04906 0.0
O10 O 0.97546 0.93186 0.04705 0.0
O11 O 0.88979 0.93842 0.06205 0.0
O12 O 0.08513 0.94575 0.08538 0.0
O13 O 0.0069 0.95981 0.10332 0.0
O14 O 0.97181 0.0695 0.42442 0.0
Cd15 Cd 0.03938 0.07335 0.40018 0.0
Cd16 Cd 0.95983 0.95265 0.40032 0.0
O17 O 0.88829 0.97698 0.4118 0.0
O18 O 0.07943 0.16115 0.38652 0.0
O19 O 0.00709 0.07196 0.36797 0.0
C20 C 0.0408 0.13419 0.36885 0.0
C21 C 0.95632 0.88948 0.36945 0.0
C22 C 0.90877 0.02753 0.42403 0.0
C23 C 0.09096 0.99911 0.42394 0.0
O24 O 0.02794 0.95709 0.42443 0.0
O25 O 0.1113 0.04953 0.41165 0.0
O26 O 0.91831 0.86396 0.38736 0.0
O27 O 0.99074 0.95161 0.36808 0.0
O28 O 0.90875 0.95256 0.71581 0.0
Cd29 Cd 0.97458 0.95035 0.73952 0.0
Cd30 Cd 0.02266 0.07253 0.73957 0.0
O31 O 0.92557 0.04677 0.72759 0.0
O32 O 0.92565 0.86288 0.75379 0.0
O33 O 0.94645 0.95211 0.77204 0.0
C34 C 0.91707 0.89001 0.77172 0.0
C35 C 0.07938 0.13436 0.7716 0.0
C36 C 0.89127 0.99541 0.71588 0.0
C37 C 0.10653 0.0273 0.71622 0.0
O38 O 0.08917 0.07024 0.71612 0.0
O39 O 0.07184 0.97579 0.72782 0.0
O40 O 0.07068 0.16055 0.75343 0.0
O41 O 0.05069 0.07232 0.77222 0.0
C42 C 0.04743 0.60703 0.26601 0.0
C43 C 0.04848 0.46144 0.20611 0.0
O44 O 0.10181 0.61297 0.25699 0.0
Zn45 Zn 0.05632 0.53803 0.23615 0.0
O46 O 0.98906 0.5621 0.25928 0.0
Zn47 Zn 0.94334 0.48578 0.23552 0.0
O48 O 0.89595 0.41001 0.2559 0.0
O49 O 0.00841 0.46097 0.25951 0.0
O50 O 0.98992 0.45233 0.2122 0.0
O51 O 0.10239 0.50539 0.21577 0.0
O52 O 0.01192 0.5728 0.21244 0.0
O53 O 0.89917 0.51931 0.2147 0.0
C54 C 0.9494 0.41577 0.26559 0.0
C55 C 0.95399 0.56398 0.20571 0.0
C56 C 0.5479 0.96326 0.60079 0.0
C57 C 0.39956 0.96836 0.54002 0.0
O58 O 0.49989 0.91342 0.59112 0.0
Zn59 Zn 0.47026 0.95955 0.57041 0.0
O60 O 0.56146 0.01941 0.59419 0.0
Zn61 Zn 0.52852 0.0653 0.57061 0.0
O62 O 0.49871 0.1108 0.59156 0.0
O63 O 0.43702 1.00473 0.59423 0.0
O64 O 0.44715 0.02336 0.54686 0.0
O65 O 0.39196 0.91712 0.54947 0.0
O66 O 0.55184 1.00222 0.54675 0.0
O67 O 0.60709 0.10836 0.54978 0.0
C68 C 0.45055 0.06068 0.60106 0.0
C69 C 0.59953 0.05741 0.5401 0.0
C70 C 0.39842 0.47337 0.94623 0.0
C71 C 0.55781 0.60757 0.88548 0.0
O72 O 0.39635 0.52006 0.93644 0.0
Zn73 Zn 0.47371 0.54318 0.91549 0.0
O74 O 0.44167 0.45704 0.93961 0.0
Zn75 Zn 0.52127 0.48228 0.91565 0.0
O76 O 0.59912 0.50644 0.93646 0.0
O77 O 0.55379 0.5695 0.93931 0.0
O78 O 0.56334 0.55933 0.89199 0.0
O79 O 0.51321 0.61818 0.89478 0.0
O80 O 0.43078 0.46472 0.8924 0.0
O81 O 0.48131 0.4063 0.89542 0.0
C82 C 0.59721 0.55349 0.94601 0.0
C83 C 0.43617 0.41619 0.88616 0.0
H84 H 0.05133 0.13935 0.13857 0.0
H85 H 0.97188 0.4224 0.16779 0.0
H86 H 0.89292 0.16325 0.10656 0.0
H87 H 0.123 0.3985 0.20487 0.0
H88 H 0.95056 0.33216 0.14315 0.0
H89 H 0.08226 0.23486 0.16227 0.0
C90 C 0.02235 0.16402 0.13675 0.0
C91 C 0.96924 0.14304 0.12055 0.0
C92 C 0.989 0.34674 0.15646 0.0
C93 C 0.00548 0.25313 0.14725 0.0
C94 C 0.00168 0.39876 0.1704 0.0
C95 C 0.0494 0.41796 0.18831 0.0
C96 C 0.02368 0.31271 0.16055 0.0
C97 C 0.08636 0.38556 0.19105 0.0
C98 C 0.04051 0.21888 0.15015 0.0
C99 C 0.93403 0.17734 0.11882 0.0
N100 N 0.07216 0.33383 0.17745 0.0
N101 N 0.95298 0.23066 0.13188 0.0
H102 H 0.93663 0.13313 0.45 0.0
H103 H 0.5692 0.96276 0.50902 0.0
H104 H 0.77202 0.94442 0.43141 0.0
H105 H 0.72742 0.1552 0.52676 0.0
H106 H 0.64121 0.95949 0.47876 0.0
H107 H 0.85976 0.14588 0.4762 0.0
C108 C 0.88417 0.09443 0.45131 0.0
C109 C 0.86089 0.03723 0.4386 0.0
C110 C 0.66039 1.00267 0.48913 0.0
C111 C 0.77268 0.05178 0.46867 0.0
C112 C 0.61931 1.00459 0.50653 0.0
C113 C 0.64272 0.05913 0.52069 0.0
C114 C 0.726 0.05546 0.48581 0.0
C115 C 0.70757 0.11214 0.51632 0.0
C116 C 0.84033 0.1019 0.46628 0.0
C117 C 0.79232 0.98913 0.44092 0.0
N118 N 0.74739 0.10875 0.49936 0.0
N119 N 0.75082 0.99735 0.45579 0.0
H120 H 0.86941 0.93104 0.80767 0.0
H121 H 0.61796 0.57323 0.85256 0.0
H122 H 0.85271 0.7593 0.77719 0.0
H123 H 0.60702 0.73753 0.87762 0.0
H124 H 0.70659 0.64263 0.82569 0.0
H125 H 0.77867 0.86347 0.83489 0.0
C126 C 0.84736 0.8792 0.80689 0.0
C127 C 0.86885 0.85077 0.79013 0.0
C128 C 0.68481 0.6638 0.83691 0.0
C129 C 0.7645 0.77336 0.82102 0.0
C130 C 0.63398 0.6241 0.85228 0.0
C131 C 0.60519 0.6497 0.86743 0.0
C132 C 0.70801 0.73014 0.83668 0.0
C133 C 0.62767 0.71586 0.86615 0.0
C134 C 0.79515 0.84071 0.8223 0.0
C135 C 0.83797 0.7834 0.7898 0.0
N136 N 0.67835 0.75408 0.85115 0.0
N137 N 0.78744 0.74713 0.80496 0.0
H138 H 0.11535 0.8685 0.10614 0.0
H139 H 0.87015 0.61714 0.20177 0.0
H140 H 0.94695 0.87922 0.13662 0.0
H141 H 0.04252 0.61558 0.1705 0.0
H142 H 0.89148 0.70895 0.17695 0.0
H143 H 0.08696 0.7744 0.12973 0.0
C144 C 0.07289 0.85159 0.11803 0.0
C145 C 0.03367 0.88203 0.11941 0.0
C146 C 0.92404 0.68788 0.17539 0.0
C147 C -0.00029 0.77291 0.14632 0.0
C148 C 0.91129 0.63507 0.18932 0.0
C149 C 0.95472 0.60894 0.18816 0.0
C150 C 0.98036 0.71415 0.16028 0.0
C151 C 0.00804 0.63456 0.17203 0.0
C152 C 0.05627 0.79739 0.13141 0.0
C153 C 0.97888 0.85749 0.13508 0.0
N154 N 0.01952 0.68575 0.15889 0.0
N155 N 0.96329 0.80417 0.14786 0.0
H156 H 0.06366 0.89302 0.44949 0.0
H157 H 0.42923 0.06457 0.50967 0.0
H158 H 0.22737 0.08296 0.43168 0.0
H159 H 0.27266 0.87024 0.52604 0.0
H160 H 0.35753 0.06828 0.47942 0.0
H161 H 0.14047 0.88036 0.47571 0.0
C162 C 0.11593 0.93203 0.45098 0.0
C163 C 0.13895 0.98953 0.43848 0.0
C164 C 0.33866 0.0246 0.48948 0.0
C165 C 0.2271 0.97508 0.46858 0.0
C166 C 0.37955 0.02242 0.50689 0.0
C167 C 0.35651 0.96718 0.52066 0.0
C168 C 0.27362 0.97136 0.48576 0.0
C169 C 0.29222 0.91384 0.5159 0.0
C170 C 0.15974 0.92459 0.46596 0.0
C171 C 0.20728 0.038 0.44101 0.0
N172 N 0.25258 0.91747 0.49894 0.0
N173 N 0.24875 0.02983 0.4559 0.0
H174 H 0.1378 0.26449 0.7774 0.0
H175 H 0.39391 0.28789 0.8774 0.0
H176 H 0.13142 0.09628 0.80706 0.0
H177 H 0.36765 0.446 0.85487 0.0
H178 H 0.30423 0.21692 0.85009 0.0
H179 H 0.22667 0.33192 0.80478 0.0
C180 C 0.15456 0.24164 0.78985 0.0
C181 C 0.12692 0.17463 0.78997 0.0
C182 C 0.31845 0.26725 0.85116 0.0
C183 C 0.22992 0.2518 0.82123 0.0
C184 C 0.36992 0.30776 0.86658 0.0
C185 C 0.38802 0.37281 0.86849 0.0
C186 C 0.28571 0.29242 0.83751 0.0
C187 C 0.355 0.39605 0.85416 0.0
C188 C 0.20561 0.28021 0.80546 0.0
C189 C 0.151 0.14776 0.80646 0.0
N190 N 0.30567 0.35602 0.83937 0.0
N191 N 0.20149 0.18647 0.82135 0.0
H192 H 0.83985 0.07702 0.71056 0.0
H193 H 0.56971 0.86308 0.61307 0.0
H194 H 0.80903 0.892 0.68862 0.0
H195 H 0.61786 0.05522 0.63262 0.0
H196 H 0.64679 0.86576 0.64359 0.0
H197 H 0.74794 0.06305 0.68493 0.0
C198 C 0.81355 0.03331 0.70046 0.0
C199 C 0.83271 0.98598 0.7016 0.0
C200 C 0.63992 0.90704 0.64122 0.0
C201 C 0.72737 0.9696 0.67207 0.0
C202 C 0.59585 0.90538 0.62389 0.0
C203 C 0.58819 0.9593 0.6201 0.0
C204 C 0.67573 0.96278 0.65483 0.0
C205 C 0.6231 0.01291 0.63463 0.0
C206 C 0.76101 0.02529 0.68578 0.0
C207 C 0.79637 0.93005 0.68816 0.0
N208 N 0.6654 0.01335 0.65121 0.0
N209 N 0.74576 0.92359 0.67384 0.0
H210 H 0.77132 0.84485 0.04958 0.0
H211 H 0.73298 0.59019 0.95274 0.0
H212 H 0.94319 0.83847 0.01989 0.0
H213 H 0.56533 0.60419 0.98202 0.0
H214 H 0.81044 0.67134 0.98062 0.0
H215 H 0.69437 0.74825 0.0278 0.0
C216 C 0.7929 0.82313 0.03852 0.0
C217 C 0.86382 0.85026 0.03641 0.0
C218 C 0.75647 0.65584 0.98111 0.0
C219 C 0.776 0.73936 1.0114 0.0
C220 C 0.71237 0.60922 0.96536 0.0
C221 C 0.64306 0.59121 0.96499 0.0
C222 C 0.73058 0.68398 0.9965 0.0
C223 C 0.61875 0.61754 0.98155 0.0
C224 C 0.74895 0.76779 0.02611 0.0
C225 C 0.88883 0.81957 0.02192 0.0
N226 N 0.66243 0.66287 0.99645 0.0
N227 N 0.84502 0.76604 1.00987 0.0
H228 H 0.8887 0.75812 0.36699 0.0
H229 H 0.12943 0.73935 0.26914 0.0
H230 H 0.05076 0.92776 0.33449 0.0
H231 H 0.96258 0.57513 0.30227 0.0
H232 H 0.10806 0.81084 0.29412 0.0
H233 H 0.91796 0.69138 0.34339 0.0
C234 C 0.92994 0.78137 0.35466 0.0
C235 C 0.96713 0.84869 0.35271 0.0
C236 C 0.0768 0.75912 0.29607 0.0
C237 C 0.00212 0.77227 0.32577 0.0
C238 C 0.08963 0.71848 0.28206 0.0
C239 C 0.04769 0.6514 0.2837 0.0
C240 C 0.02189 0.7321 0.31174 0.0
C241 C 0.99594 0.62665 0.3004 0.0
C242 C 0.94708 0.74319 0.34127 0.0
C243 C 0.02039 0.87599 0.33647 0.0
N244 N 0.98431 0.66684 0.31361 0.0
N245 N 0.03654 0.83771 0.32369 0.0
H246 H 0.15694 0.94496 0.71053 0.0
H247 H 0.43005 0.16116 0.61405 0.0
H248 H 0.19024 0.13153 0.68952 0.0
H249 H 0.37873 0.9673 0.63228 0.0
H250 H 0.35292 0.15804 0.64465 0.0
H251 H 0.24898 0.959 0.68491 0.0
C252 C 0.18383 0.98903 0.70064 0.0
C253 C 0.16531 0.03677 0.70204 0.0
C254 C 0.3591 0.11646 0.64197 0.0
C255 C 0.27077 0.05322 0.67251 0.0
C256 C 0.40318 0.11837 0.62459 0.0
C257 C 0.41001 0.06415 0.62041 0.0
C258 C 0.32241 0.06016 0.65525 0.0
C259 C 0.37418 1.00989 0.6346 0.0
C260 C 0.23643 0.99708 0.68597 0.0
C261 C 0.20238 0.09314 0.68887 0.0
N262 N 0.33188 1.00923 0.65124 0.0
N263 N 0.25302 0.09962 0.67454 0.0
H264 H 0.22642 0.18209 0.0496 0.0
H265 H 0.26215 0.43513 0.95262 0.0
H266 H 0.05358 0.18688 0.02005 0.0
H267 H 0.43118 0.42533 0.98279 0.0
H268 H 0.18504 0.35381 0.98052 0.0
H269 H 0.3027 0.2793 0.02799 0.0
C270 C 0.2045 0.20359 0.0386 0.0
C271 C 0.13351 0.17585 0.03649 0.0
C272 C 0.23921 0.3703 0.98122 0.0
C273 C 0.22055 0.28745 1.01167 0.0
C274 C 0.28312 0.41705 0.96546 0.0
C275 C 0.35274 0.43623 0.96533 0.0
C276 C 0.26562 0.34319 0.99683 0.0
C277 C 0.37751 0.41107 0.98215 0.0
C278 C 0.24806 0.25929 0.0263 0.0
C279 C 0.10802 0.20627 0.02209 0.0
N280 N 0.33402 0.36552 0.99704 0.0
N281 N 0.15146 0.26014 1.01012 0.0
H282 H 0.94986 0.09247 0.33277 0.0
H283 H 0.02202 0.44864 0.30477 0.0
H284 H 0.10086 0.26532 0.36694 0.0
H285 H 0.87684 0.28276 0.26619 0.0
H286 H 0.04302 0.37875 0.32969 0.0
H287 H 0.9184 0.15825 0.30891 0.0
C288 C 0.97712 0.14428 0.33504 0.0
C289 C 0.02829 0.17341 0.35188 0.0
C290 C 0.00587 0.35712 0.316 0.0
C291 C 0.99141 0.24862 0.325 0.0
C292 C 0.99334 0.39703 0.30191 0.0
C293 C 0.94739 0.3713 0.28351 0.0
C294 C 0.97293 0.29067 0.31156 0.0
C295 C 0.91199 0.30425 0.28042 0.0
C296 C 0.95864 0.18168 0.32155 0.0
C297 C 0.06129 0.24064 0.35418 0.0
N298 N 0.9261 0.26611 0.29417 0.0
N299 N 0.04209 0.27573 0.34101 0.0
loop_
_geom_bond_atom_site_label_1
_geom_bond_atom_site_label_2
_geom_bond_distance
_geom_bond_site_symmetry_2
_ccdc_geom_bond_type
O0 Cd1 2.223 1_455 S
O0 C8 1.315 . S
Cd1 O0 2.223 1_655 S
Cd1 O4 2.297 . S
Cd1 O5 2.439 . S
Cd1 O11 2.240 1_545 S
Cd2 O3 2.240 1_565 S
Cd2 O10 2.223 1_455 S
Cd2 O12 2.297 . S
Cd2 O13 2.439 . S
O3 Cd2 2.240 1_545 S
O3 C8 1.279 . S
O4 Cd1 2.297 . S
O4 C6 1.247 . S
O5 Cd1 2.439 . S
O5 C6 1.208 . S
C6 O4 1.247 . S
C6 O5 1.208 . S
C7 O12 1.247 . S
C7 O13 1.208 . S
C8 O0 1.315 . S
C8 O3 1.279 . S
C9 O10 1.315 . S
C9 O11 1.279 . S
O10 Cd2 2.223 1_655 S
O10 C9 1.315 . S
O11 Cd1 2.240 1_565 S
O11 C9 1.279 . S
O12 Cd2 2.297 . S
O12 C7 1.247 . S
O13 Cd2 2.439 . S
O13 C7 1.208 . S
O14 Cd15 2.223 1_655 S
O14 C22 1.315 . S
Cd15 O14 2.223 1_455 S
Cd15 O18 2.297 . S
Cd15 O19 2.439 . S
Cd15 O25 2.240 . S
Cd16 O17 2.240 . S
Cd16 O24 2.223 1_655 S
Cd16 O26 2.297 . S
Cd16 O27 2.439 . S
O17 Cd16 2.240 . S
O17 C22 1.279 1_565 S
O18 Cd15 2.297 . S
O18 C20 1.247 . S
O19 Cd15 2.439 . S
O19 C20 1.208 . S
C20 O18 1.247 . S
C20 O19 1.208 . S
C21 O26 1.247 . S
C21 O27 1.208 . S
C22 O14 1.315 . S
C22 O17 1.279 1_545 S
C23 O24 1.315 . S
C23 O25 1.279 1_565 S
O24 Cd16 2.223 1_455 S
O24 C23 1.315 . S
O25 Cd15 2.240 . S
O25 C23 1.279 1_545 S
O26 Cd16 2.297 . S
O26 C21 1.247 . S
O27 Cd16 2.439 . S
O27 C21 1.208 . S
O28 Cd29 2.223 . S
O28 C36 1.315 . S
Cd29 O28 2.223 . S
Cd29 O32 2.297 . S
Cd29 O33 2.439 . S
Cd29 O39 2.240 1_655 S
Cd30 O31 2.240 1_455 S
Cd30 O38 2.223 . S
Cd30 O40 2.297 . S
Cd30 O41 2.439 . S
O31 Cd30 2.240 1_655 S
O31 C36 1.279 1_545 S
O32 Cd29 2.297 . S
O32 C34 1.247 . S
O33 Cd29 2.439 . S
O33 C34 1.208 . S
C34 O32 1.247 . S
C34 O33 1.208 . S
C35 O40 1.247 . S
C35 O41 1.208 . S
C36 O28 1.315 . S
C36 O31 1.279 1_565 S
C37 O38 1.315 . S
C37 O39 1.279 1_545 S
O38 Cd30 2.223 . S
O38 C37 1.315 . S
O39 Cd29 2.240 1_455 S
O39 C37 1.279 1_565 S
O40 Cd30 2.297 . S
O40 C35 1.247 . S
O41 Cd30 2.439 . S
O41 C35 1.208 . S
C42 O44 1.252 . S
C42 O46 1.255 1_455 S
C43 O50 1.248 . S
C43 O51 1.257 1_655 S
O44 C42 1.252 . S
O44 Zn45 2.028 . S
Zn45 O44 2.028 . S
Zn45 O49 2.035 . S
Zn45 O51 2.035 . S
Zn45 O52 2.028 . S
O46 C42 1.255 1_655 S
O46 Zn47 2.035 . S
Zn47 O46 2.035 . S
Zn47 O48 2.028 . S
Zn47 O50 2.028 . S
Zn47 O53 2.035 . S
O48 Zn47 2.028 . S
O48 C54 1.248 . S
O49 Zn45 2.035 . S
O49 C54 1.257 1_455 S
O50 C43 1.248 . S
O50 Zn47 2.028 . S
O51 C43 1.257 1_455 S
O51 Zn45 2.035 . S
O52 Zn45 2.028 . S
O52 C55 1.252 . S
O53 Zn47 2.035 . S
O53 C55 1.255 1_655 S
C54 O48 1.248 . S
C54 O49 1.257 1_655 S
C55 O52 1.252 . S
C55 O53 1.255 1_455 S
C56 O58 1.247 . S
C56 O60 1.258 1_565 S
C57 O64 1.250 . S
C57 O65 1.253 1_545 S
O58 C56 1.247 . S
O58 Zn59 2.028 . S
Zn59 O58 2.028 . S
Zn59 O63 2.035 . S
Zn59 O65 2.035 . S
Zn59 O66 2.028 . S
O60 C56 1.258 1_545 S
O60 Zn61 2.035 . S
Zn61 O60 2.035 . S
Zn61 O62 2.028 . S
Zn61 O64 2.028 . S
Zn61 O67 2.035 . S
O62 Zn61 2.028 . S
O62 C68 1.250 . S
O63 Zn59 2.035 . S
O63 C68 1.253 1_565 S
O64 C57 1.250 . S
O64 Zn61 2.028 . S
O65 C57 1.253 1_565 S
O65 Zn59 2.035 . S
O66 Zn59 2.028 . S
O66 C69 1.247 . S
O67 Zn61 2.035 . S
O67 C69 1.258 1_545 S
C68 O62 1.250 . S
C68 O63 1.253 1_545 S
C69 O66 1.247 . S
C69 O67 1.258 1_565 S
C70 O72 1.247 . S
C70 O74 1.258 . S
C71 O78 1.247 . S
C71 O79 1.258 . S
O72 C70 1.247 . S
O72 Zn73 2.028 . S
Zn73 O72 2.028 . S
Zn73 O77 2.035 . S
Zn73 O79 2.035 . S
Zn73 O80 2.028 . S
O74 C70 1.258 . S
O74 Zn75 2.035 . S
Zn75 O74 2.035 . S
Zn75 O76 2.028 . S
Zn75 O78 2.028 . S
Zn75 O81 2.035 . S
O76 Zn75 2.028 . S
O76 C82 1.247 . S
O77 Zn73 2.035 . S
O77 C82 1.258 . S
O78 C71 1.247 . S
O78 Zn75 2.028 . S
O79 C71 1.258 . S
O79 Zn73 2.035 . S
O80 Zn73 2.028 . S
O80 C83 1.247 . S
O81 Zn75 2.035 . S
O81 C83 1.258 . S
C82 O76 1.247 . S
C82 O77 1.258 . S
C83 O80 1.247 . S
C83 O81 1.258 . S
H84 C90 0.931 . S
H85 C94 0.931 . S
H86 C99 0.929 . S
H87 C97 0.929 . S
H88 C92 0.929 . S
H89 C98 0.929 . S
C90 H84 0.931 . S
C90 C91 1.367 1_655 S
C90 C98 1.378 . S
C91 C90 1.367 1_455 S
C91 C99 1.435 . S
C92 H88 0.929 . S
C92 C94 1.378 . S
C92 C96 1.351 . S
C93 C96 1.463 . S
C93 C98 1.349 1_455 S
C93 N101 1.428 . S
C94 H85 0.931 . S
C94 C92 1.378 . S
C94 C95 1.367 . S
C95 C94 1.367 . S
C95 C97 1.433 1_455 S
C96 C92 1.351 . S
C96 C93 1.463 . S
C96 N100 1.427 1_455 S
C97 H87 0.929 . S
C97 C95 1.433 1_655 S
C97 N100 1.384 . S
C98 H89 0.929 . S
C98 C90 1.378 . S
C98 C93 1.349 1_655 S
C99 H86 0.929 . S
C99 C91 1.435 . S
C99 N101 1.384 . S
N100 C96 1.427 1_655 S
N100 C97 1.384 . S
N101 C93 1.428 . S
N101 C99 1.384 . S
H102 C108 0.930 . S
H103 C112 0.930 . S
H104 C117 0.929 . S
H105 C115 0.929 . S
H106 C110 0.929 . S
H107 C116 0.929 . S
C108 H102 0.930 . S
C108 C109 1.367 . S
C108 C116 1.378 . S
C109 C108 1.367 . S
C109 C117 1.433 1_545 S
C110 H106 0.929 . S
C110 C112 1.378 . S
C110 C114 1.347 1_565 S
C111 C114 1.459 . S
C111 C116 1.350 . S
C111 N119 1.427 1_545 S
C112 H103 0.930 . S
C112 C110 1.378 . S
C112 C113 1.372 . S
C113 C112 1.372 . S
C113 C115 1.431 1_565 S
C114 C110 1.347 1_545 S
C114 C111 1.459 . S
C114 N118 1.434 . S
C115 H105 0.929 . S
C115 C113 1.431 1_545 S
C115 N118 1.384 . S
C116 H107 0.929 . S
C116 C108 1.378 . S
C116 C111 1.350 . S
C117 H104 0.929 . S
C117 C109 1.433 1_565 S
C117 N119 1.384 . S
N118 C114 1.434 . S
N118 C115 1.384 . S
N119 C111 1.427 1_565 S
N119 C117 1.384 . S
H120 C126 0.930 . S
H121 C130 0.930 . S
H122 C135 0.929 . S
H123 C133 0.929 . S
H124 C128 0.929 . S
H125 C134 0.929 . S
C126 H120 0.930 . S
C126 C127 1.367 . S
C126 C134 1.378 . S
C127 C126 1.367 . S
C127 C135 1.433 . S
C128 H124 0.929 . S
C128 C130 1.378 . S
C128 C132 1.350 . S
C129 C132 1.463 . S
C129 C134 1.350 . S
C129 N137 1.427 . S
C130 H121 0.930 . S
C130 C128 1.378 . S
C130 C131 1.367 . S
C131 C130 1.367 . S
C131 C133 1.433 . S
C132 C128 1.350 . S
C132 C129 1.463 . S
C132 N136 1.427 . S
C133 H123 0.929 . S
C133 C131 1.433 . S
C133 N136 1.384 . S
C134 H125 0.929 . S
C134 C126 1.378 . S
C134 C129 1.350 . S
C135 H122 0.929 . S
C135 C127 1.433 . S
C135 N137 1.384 . S
N136 C132 1.427 . S
N136 C133 1.384 . S
N137 C129 1.427 . S
N137 C135 1.384 . S
H138 C144 0.930 . S
H139 C148 0.930 . S
H140 C153 0.929 . S
H141 C151 0.929 . S
H142 C146 0.929 . S
H143 C152 0.929 . S
C144 H138 0.930 . S
C144 C145 1.373 . S
C144 C152 1.378 . S
C145 C144 1.373 . S
C145 C153 1.430 1_455 S
C146 H142 0.929 . S
C146 C148 1.378 . S
C146 C150 1.353 . S
C147 C150 1.471 1_455 S
C147 C152 1.355 . S
C147 N155 1.417 1_455 S
C148 H139 0.930 . S
C148 C146 1.378 . S
C148 C149 1.371 . S
C149 C148 1.371 . S
C149 C151 1.431 1_655 S
C150 C146 1.353 . S
C150 C147 1.471 1_655 S
C150 N154 1.420 1_655 S
C151 H141 0.929 . S
C151 C149 1.431 1_455 S
C151 N154 1.384 . S
C152 H143 0.929 . S
C152 C144 1.378 . S
C152 C147 1.355 . S
C153 H140 0.929 . S
C153 C145 1.430 1_655 S
C153 N155 1.384 . S
N154 C150 1.420 1_455 S
N154 C151 1.384 . S
N155 C147 1.417 1_655 S
N155 C153 1.384 . S
H156 C162 0.930 . S
H157 C166 0.930 . S
H158 C171 0.929 . S
H159 C169 0.929 . S
H160 C164 0.929 . S
H161 C170 0.929 . S
C162 H156 0.930 . S
C162 C163 1.367 . S
C162 C170 1.378 . S
C163 C162 1.367 . S
C163 C171 1.433 1_565 S
C164 H160 0.929 . S
C164 C166 1.378 . S
C164 C168 1.346 1_545 S
C165 C168 1.461 . S
C165 C170 1.350 . S
C165 N173 1.427 1_565 S
C166 H157 0.930 . S
C166 C164 1.378 . S
C166 C167 1.381 . S
C167 C166 1.381 . S
C167 C169 1.424 1_545 S
C168 C164 1.346 1_565 S
C168 C165 1.461 . S
C168 N172 1.433 . S
C169 H159 0.929 . S
C169 C167 1.424 1_565 S
C169 N172 1.384 . S
C170 H161 0.929 . S
C170 C162 1.378 . S
C170 C165 1.350 . S
C171 H158 0.929 . S
C171 C163 1.433 1_545 S
C171 N173 1.384 . S
N172 C168 1.433 . S
N172 C169 1.384 . S
N173 C165 1.427 1_545 S
N173 C171 1.384 . S
H174 C180 0.930 . S
H175 C184 0.930 . S
H176 C189 0.929 . S
H177 C187 0.929 . S
H178 C182 0.929 . S
H179 C188 0.929 . S
C180 H174 0.930 . S
C180 C181 1.367 . S
C180 C188 1.378 . S
C181 C180 1.367 . S
C181 C189 1.433 . S
C182 H178 0.929 . S
C182 C184 1.378 . S
C182 C186 1.350 . S
C183 C186 1.463 . S
C183 C188 1.350 . S
C183 N191 1.427 . S
C184 H175 0.930 . S
C184 C182 1.378 . S
C184 C185 1.367 . S
C185 C184 1.367 . S
C185 C187 1.433 . S
C186 C182 1.350 . S
C186 C183 1.463 . S
C186 N190 1.427 . S
C187 H177 0.929 . S
C187 C185 1.433 . S
C187 N190 1.384 . S
C188 H179 0.929 . S
C188 C180 1.378 . S
C188 C183 1.350 . S
C189 H176 0.929 . S
C189 C181 1.433 . S
C189 N191 1.384 . S
N190 C186 1.427 . S
N190 C187 1.384 . S
N191 C183 1.427 . S
N191 C189 1.384 . S
H192 C198 0.930 . S
H193 C202 0.930 . S
H194 C207 0.929 . S
H195 C205 0.929 . S
H196 C200 0.929 . S
H197 C206 0.929 . S
C198 H192 0.930 . S
C198 C199 1.367 1_545 S
C198 C206 1.378 . S
C199 C198 1.367 1_565 S
C199 C207 1.433 . S
C200 H196 0.929 . S
C200 C202 1.378 . S
C200 C204 1.350 . S
C201 C204 1.463 . S
C201 C206 1.350 1_565 S
C201 N209 1.427 . S
C202 H193 0.930 . S
C202 C200 1.378 . S
C202 C203 1.367 . S
C203 C202 1.367 . S
C203 C205 1.433 1_565 S
C204 C200 1.350 . S
C204 C201 1.463 . S
C204 N208 1.427 1_565 S
C205 H195 0.929 . S
C205 C203 1.433 1_545 S
C205 N208 1.384 . S
C206 H197 0.929 . S
C206 C198 1.378 . S
C206 C201 1.350 1_545 S
C207 H194 0.929 . S
C207 C199 1.433 . S
C207 N209 1.384 . S
N208 C204 1.427 1_545 S
N208 C205 1.384 . S
N209 C201 1.427 . S
N209 C207 1.384 . S
H210 C216 0.930 . S
H211 C220 0.930 . S
H212 C225 0.929 . S
H213 C223 0.929 . S
H214 C218 0.929 . S
H215 C224 0.929 . S
C216 H210 0.930 . S
C216 C217 1.367 . S
C216 C224 1.378 . S
C217 C216 1.367 . S
C217 C225 1.433 1_554 S
C218 H214 0.929 . S
C218 C220 1.378 . S
C218 C222 1.350 . S
C219 C222 1.463 . S
C219 C224 1.350 1_556 S
C219 N227 1.427 . S
C220 H211 0.930 . S
C220 C218 1.378 . S
C220 C221 1.367 . S
C221 C220 1.367 . S
C221 C223 1.433 . S
C222 C218 1.350 . S
C222 C219 1.463 . S
C222 N226 1.427 . S
C223 H213 0.929 . S
C223 C221 1.433 . S
C223 N226 1.384 . S
C224 H215 0.929 . S
C224 C216 1.378 . S
C224 C219 1.350 1_554 S
C225 H212 0.929 . S
C225 C217 1.433 1_556 S
C225 N227 1.384 . S
N226 C222 1.427 . S
N226 C223 1.384 . S
N227 C219 1.427 . S
N227 C225 1.384 . S
H228 C234 0.930 . S
H229 C238 0.930 . S
H230 C243 0.929 . S
H231 C241 0.929 . S
H232 C236 0.929 . S
H233 C242 0.929 . S
C234 H228 0.930 . S
C234 C235 1.367 1_655 S
C234 C242 1.378 . S
C235 C234 1.367 1_455 S
C235 C243 1.433 . S
C236 H232 0.929 . S
C236 C238 1.378 . S
C236 C240 1.350 . S
C237 C240 1.463 . S
C237 C242 1.350 1_455 S
C237 N245 1.427 . S
C238 H229 0.930 . S
C238 C236 1.378 . S
C238 C239 1.367 . S
C239 C238 1.367 . S
C239 C241 1.433 1_455 S
C240 C236 1.350 . S
C240 C237 1.463 . S
C240 N244 1.427 1_455 S
C241 H231 0.929 . S
C241 C239 1.433 1_655 S
C241 N244 1.384 . S
C242 H233 0.929 . S
C242 C234 1.378 . S
C242 C237 1.350 1_655 S
C243 H230 0.929 . S
C243 C235 1.433 . S
C243 N245 1.384 . S
N244 C240 1.427 1_655 S
N244 C241 1.384 . S
N245 C237 1.427 . S
N245 C243 1.384 . S
H246 C252 0.930 . S
H247 C256 0.930 . S
H248 C261 0.929 . S
H249 C259 0.929 . S
H250 C254 0.929 . S
H251 C260 0.929 . S
C252 H246 0.930 . S
C252 C253 1.367 1_565 S
C252 C260 1.378 . S
C253 C252 1.367 1_545 S
C253 C261 1.433 . S
C254 H250 0.929 . S
C254 C256 1.378 . S
C254 C258 1.350 . S
C255 C258 1.463 . S
C255 C260 1.350 1_545 S
C255 N263 1.427 . S
C256 H247 0.930 . S
C256 C254 1.378 . S
C256 C257 1.367 . S
C257 C256 1.367 . S
C257 C259 1.433 1_545 S
C258 C254 1.350 . S
C258 C255 1.463 . S
C258 N262 1.427 1_545 S
C259 H249 0.929 . S
C259 C257 1.433 1_565 S
C259 N262 1.384 . S
C260 H251 0.929 . S
C260 C252 1.378 . S
C260 C255 1.350 1_565 S
C261 H248 0.929 . S
C261 C253 1.433 . S
C261 N263 1.384 . S
N262 C258 1.427 1_565 S
N262 C259 1.384 . S
N263 C255 1.427 . S
N263 C261 1.384 . S
H264 C270 0.930 . S
H265 C274 0.930 . S
H266 C279 0.929 . S
H267 C277 0.929 . S
H268 C272 0.929 . S
H269 C278 0.929 . S
C270 H264 0.930 . S
C270 C271 1.367 . S
C270 C278 1.378 . S
C271 C270 1.367 . S
C271 C279 1.433 1_554 S
C272 H268 0.929 . S
C272 C274 1.378 . S
C272 C276 1.350 . S
C273 C276 1.463 . S
C273 C278 1.350 1_556 S
C273 N281 1.427 . S
C274 H265 0.930 . S
C274 C272 1.378 . S
C274 C275 1.367 . S
C275 C274 1.367 . S
C275 C277 1.433 . S
C276 C272 1.350 . S
C276 C273 1.463 . S
C276 N280 1.427 . S
C277 H267 0.929 . S
C277 C275 1.433 . S
C277 N280 1.384 . S
C278 H269 0.929 . S
C278 C270 1.378 . S
C278 C273 1.350 1_554 S
C279 H266 0.929 . S
C279 C271 1.433 1_556 S
C279 N281 1.384 . S
N280 C276 1.427 . S
N280 C277 1.384 . S
N281 C273 1.427 . S
N281 C279 1.384 . S
H282 C288 0.930 . S
H283 C292 0.930 . S
H284 C297 0.929 . S
H285 C295 0.929 . S
H286 C290 0.929 . S
H287 C296 0.929 . S
C288 H282 0.930 . S
C288 C289 1.367 . S
C288 C296 1.378 . S
C289 C288 1.367 . S
C289 C297 1.433 1_655 S
C290 H286 0.929 . S
C290 C292 1.378 . S
C290 C294 1.345 1_455 S
C291 C294 1.460 . S
C291 C296 1.350 . S
C291 N299 1.427 1_655 S
C292 H283 0.930 . S
C292 C290 1.378 . S
C292 C293 1.386 . S
C293 C292 1.386 . S
C293 C295 1.421 1_455 S
C294 C290 1.345 1_655 S
C294 C291 1.460 . S
C294 N298 1.436 . S
C295 H285 0.929 . S
C295 C293 1.421 1_655 S
C295 N298 1.384 . S
C296 H287 0.929 . S
C296 C288 1.378 . S
C296 C291 1.350 . S
C297 H284 0.929 . S
C297 C289 1.433 1_455 S
C297 N299 1.384 . S
N298 C294 1.436 . S
N298 C295 1.384 . S
N299 C291 1.427 1_455 S
N299 C297 1.384 . S
C95 C43 1.469 1_455 S
C91 C6 1.457 1_455 S
C109 C22 1.530 . S
C113 C69 1.552 . S
C127 C34 1.275 . S
C131 C71 1.286 . S
C145 C7 1.450 . S
C149 C55 1.469 1_655 S
C167 C57 1.551 . S
C163 C23 1.527 . S
C181 C35 1.265 . S
C185 C83 1.284 . S
C203 C56 1.554 . S
C199 C36 1.543 . S
C217 C9 1.724 . S
C221 C82 1.761 . S
C239 C42 1.466 . S
C235 C21 1.446 1_455 S
C257 C68 1.556 . S
C253 C37 1.540 . S
C275 C70 1.759 . S
C271 C8 1.722 . S
C289 C20 1.452 1_655 S
C293 C54 1.458 1_455 S
