# Generated by pormake.
# Topology gar, (4,6)-cn, num edge types: 1
# Building blocks:
#     Node 0, Type 0, BuildingBlock: NAHDIM_clean_sbu_0, # of connection points: 4
#     Node 1, Type 0, BuildingBlock: NAHDIM_clean_sbu_0, # of connection points: 4
#     Node 2, Type 0, BuildingBlock: NAHDIM_clean_sbu_0, # of connection points: 4
#     Node 3, Type 0, BuildingBlock: NAHDIM_clean_sbu_0, # of connection points: 4
#     Node 4, Type 0, BuildingBlock: NAHDIM_clean_sbu_0, # of connection points: 4
#     Node 5, Type 0, BuildingBlock: NAHDIM_clean_sbu_0, # of connection points: 4
#     Node 6, Type 0, BuildingBlock: NAHDIM_clean_sbu_0, # of connection points: 4
#     Node 7, Type 0, BuildingBlock: NAHDIM_clean_sbu_0, # of connection points: 4
#     Node 8, Type 0, BuildingBlock: NAHDIM_clean_sbu_0, # of connection points: 4
#     Node 9, Type 0, BuildingBlock: NAHDIM_clean_sbu_0, # of connection points: 4
#     Node 10, Type 0, BuildingBlock: NAHDIM_clean_sbu_0, # of connection points: 4
#     Node 11, Type 0, BuildingBlock: NAHDIM_clean_sbu_0, # of connection points: 4
#     Node 12, Type 0, BuildingBlock: NAHDIM_clean_sbu_0, # of connection points: 4
#     Node 13, Type 0, BuildingBlock: NAHDIM_clean_sbu_0, # of connection points: 4
#     Node 14, Type 0, BuildingBlock: NAHDIM_clean_sbu_0, # of connection points: 4
#     Node 15, Type 0, BuildingBlock: NAHDIM_clean_sbu_0, # of connection points: 4
#     Node 16, Type 0, BuildingBlock: NAHDIM_clean_sbu_0, # of connection points: 4
#     Node 17, Type 0, BuildingBlock: NAHDIM_clean_sbu_0, # of connection points: 4
#     Node 18, Type 0, BuildingBlock: NAHDIM_clean_sbu_0, # of connection points: 4
#     Node 19, Type 0, BuildingBlock: NAHDIM_clean_sbu_0, # of connection points: 4
#     Node 20, Type 0, BuildingBlock: NAHDIM_clean_sbu_0, # of connection points: 4
#     Node 21, Type 0, BuildingBlock: NAHDIM_clean_sbu_0, # of connection points: 4
#     Node 22, Type 0, BuildingBlock: NAHDIM_clean_sbu_0, # of connection points: 4
#     Node 23, Type 0, BuildingBlock: NAHDIM_clean_sbu_0, # of connection points: 4
#     Node 24, Type 1, BuildingBlock: KUMJIN_clean_sbu_0, # of connection points: 6
#     Node 25, Type 1, BuildingBlock: KUMJIN_clean_sbu_0, # of connection points: 6
#     Node 26, Type 1, BuildingBlock: KUMJIN_clean_sbu_0, # of connection points: 6
#     Node 27, Type 1, BuildingBlock: KUMJIN_clean_sbu_0, # of connection points: 6
#     Node 28, Type 1, BuildingBlock: KUMJIN_clean_sbu_0, # of connection points: 6
#     Node 29, Type 1, BuildingBlock: KUMJIN_clean_sbu_0, # of connection points: 6
#     Node 30, Type 1, BuildingBlock: KUMJIN_clean_sbu_0, # of connection points: 6
#     Node 31, Type 1, BuildingBlock: KUMJIN_clean_sbu_0, # of connection points: 6
#     Node 32, Type 1, BuildingBlock: KUMJIN_clean_sbu_0, # of connection points: 6
#     Node 33, Type 1, BuildingBlock: KUMJIN_clean_sbu_0, # of connection points: 6
#     Node 34, Type 1, BuildingBlock: KUMJIN_clean_sbu_0, # of connection points: 6
#     Node 35, Type 1, BuildingBlock: KUMJIN_clean_sbu_0, # of connection points: 6
#     Node 36, Type 1, BuildingBlock: KUMJIN_clean_sbu_0, # of connection points: 6
#     Node 37, Type 1, BuildingBlock: KUMJIN_clean_sbu_0, # of connection points: 6
#     Node 38, Type 1, BuildingBlock: KUMJIN_clean_sbu_0, # of connection points: 6
#     Node 39, Type 1, BuildingBlock: KUMJIN_clean_sbu_0, # of connection points: 6
#     Edge 40, Type (0, 1), BuildingBlock: XIVTED_clean_linker_0, # of connection points: 2
#     Edge 41, Type (0, 1), BuildingBlock: XIVTED_clean_linker_0, # of connection points: 2
#     Edge 42, Type (0, 1), BuildingBlock: XIVTED_clean_linker_0, # of connection points: 2
#     Edge 43, Type (0, 1), BuildingBlock: XIVTED_clean_linker_0, # of connection points: 2
#     Edge 44, Type (0, 1), BuildingBlock: XIVTED_clean_linker_0, # of connection points: 2
#     Edge 45, Type (0, 1), BuildingBlock: XIVTED_clean_linker_0, # of connection points: 2
#     Edge 46, Type (0, 1), BuildingBlock: XIVTED_clean_linker_0, # of connection points: 2
#     Edge 47, Type (0, 1), BuildingBlock: XIVTED_clean_linker_0, # of connection points: 2
#     Edge 48, Type (0, 1), BuildingBlock: XIVTED_clean_linker_0, # of connection points: 2
#     Edge 49, Type (0, 1), BuildingBlock: XIVTED_clean_linker_0, # of connection points: 2
#     Edge 50, Type (0, 1), BuildingBlock: XIVTED_clean_linker_0, # of connection points: 2
#     Edge 51, Type (0, 1), BuildingBlock: XIVTED_clean_linker_0, # of connection points: 2
#     Edge 52, Type (0, 1), BuildingBlock: XIVTED_clean_linker_0, # of connection points: 2
#     Edge 53, Type (0, 1), BuildingBlock: XIVTED_clean_linker_0, # of connection points: 2
#     Edge 54, Type (0, 1), BuildingBlock: XIVTED_clean_linker_0, # of connection points: 2
#     Edge 55, Type (0, 1), BuildingBlock: XIVTED_clean_linker_0, # of connection points: 2
#     Edge 56, Type (0, 1), BuildingBlock: XIVTED_clean_linker_0, # of connection points: 2
#     Edge 57, Type (0, 1), BuildingBlock: XIVTED_clean_linker_0, # of connection points: 2
#     Edge 58, Type (0, 1), BuildingBlock: XIVTED_clean_linker_0, # of connection points: 2
#     Edge 59, Type (0, 1), BuildingBlock: XIVTED_clean_linker_0, # of connection points: 2
#     Edge 60, Type (0, 1), BuildingBlock: XIVTED_clean_linker_0, # of connection points: 2
#     Edge 61, Type (0, 1), BuildingBlock: XIVTED_clean_linker_0, # of connection points: 2
#     Edge 62, Type (0, 1), BuildingBlock: XIVTED_clean_linker_0, # of connection points: 2
#     Edge 63, Type (0, 1), BuildingBlock: XIVTED_clean_linker_0, # of connection points: 2
#     Edge 64, Type (0, 1), BuildingBlock: XIVTED_clean_linker_0, # of connection points: 2
#     Edge 65, Type (0, 1), BuildingBlock: XIVTED_clean_linker_0, # of connection points: 2
#     Edge 66, Type (0, 1), BuildingBlock: XIVTED_clean_linker_0, # of connection points: 2
#     Edge 67, Type (0, 1), BuildingBlock: XIVTED_clean_linker_0, # of connection points: 2
#     Edge 68, Type (0, 1), BuildingBlock: XIVTED_clean_linker_0, # of connection points: 2
#     Edge 69, Type (0, 1), BuildingBlock: XIVTED_clean_linker_0, # of connection points: 2
#     Edge 70, Type (0, 1), BuildingBlock: XIVTED_clean_linker_0, # of connection points: 2
#     Edge 71, Type (0, 1), BuildingBlock: XIVTED_clean_linker_0, # of connection points: 2
#     Edge 72, Type (0, 1), BuildingBlock: XIVTED_clean_linker_0, # of connection points: 2
#     Edge 73, Type (0, 1), BuildingBlock: XIVTED_clean_linker_0, # of connection points: 2
#     Edge 74, Type (0, 1), BuildingBlock: XIVTED_clean_linker_0, # of connection points: 2
#     Edge 75, Type (0, 1), BuildingBlock: XIVTED_clean_linker_0, # of connection points: 2
#     Edge 76, Type (0, 1), BuildingBlock: XIVTED_clean_linker_0, # of connection points: 2
#     Edge 77, Type (0, 1), BuildingBlock: XIVTED_clean_linker_0, # of connection points: 2
#     Edge 78, Type (0, 1), BuildingBlock: XIVTED_clean_linker_0, # of connection points: 2
#     Edge 79, Type (0, 1), BuildingBlock: XIVTED_clean_linker_0, # of connection points: 2
#     Edge 80, Type (0, 1), BuildingBlock: XIVTED_clean_linker_0, # of connection points: 2
#     Edge 81, Type (0, 1), BuildingBlock: XIVTED_clean_linker_0, # of connection points: 2
#     Edge 82, Type (0, 1), BuildingBlock: XIVTED_clean_linker_0, # of connection points: 2
#     Edge 83, Type (0, 1), BuildingBlock: XIVTED_clean_linker_0, # of connection points: 2
#     Edge 84, Type (0, 1), BuildingBlock: XIVTED_clean_linker_0, # of connection points: 2
#     Edge 85, Type (0, 1), BuildingBlock: XIVTED_clean_linker_0, # of connection points: 2
#     Edge 86, Type (0, 1), BuildingBlock: XIVTED_clean_linker_0, # of connection points: 2
#     Edge 87, Type (0, 1), BuildingBlock: XIVTED_clean_linker_0, # of connection points: 2
#     Edge 88, Type (0, 1), BuildingBlock: XIVTED_clean_linker_0, # of connection points: 2
#     Edge 89, Type (0, 1), BuildingBlock: XIVTED_clean_linker_0, # of connection points: 2
#     Edge 90, Type (0, 1), BuildingBlock: XIVTED_clean_linker_0, # of connection points: 2
#     Edge 91, Type (0, 1), BuildingBlock: XIVTED_clean_linker_0, # of connection points: 2
#     Edge 92, Type (0, 1), BuildingBlock: XIVTED_clean_linker_0, # of connection points: 2
#     Edge 93, Type (0, 1), BuildingBlock: XIVTED_clean_linker_0, # of connection points: 2
#     Edge 94, Type (0, 1), BuildingBlock: XIVTED_clean_linker_0, # of connection points: 2
#     Edge 95, Type (0, 1), BuildingBlock: XIVTED_clean_linker_0, # of connection points: 2
#     Edge 96, Type (0, 1), BuildingBlock: XIVTED_clean_linker_0, # of connection points: 2
#     Edge 97, Type (0, 1), BuildingBlock: XIVTED_clean_linker_0, # of connection points: 2
#     Edge 98, Type (0, 1), BuildingBlock: XIVTED_clean_linker_0, # of connection points: 2
#     Edge 99, Type (0, 1), BuildingBlock: XIVTED_clean_linker_0, # of connection points: 2
#     Edge 100, Type (0, 1), BuildingBlock: XIVTED_clean_linker_0, # of connection points: 2
#     Edge 101, Type (0, 1), BuildingBlock: XIVTED_clean_linker_0, # of connection points: 2
#     Edge 102, Type (0, 1), BuildingBlock: XIVTED_clean_linker_0, # of connection points: 2
#     Edge 103, Type (0, 1), BuildingBlock: XIVTED_clean_linker_0, # of connection points: 2
#     Edge 104, Type (0, 1), BuildingBlock: XIVTED_clean_linker_0, # of connection points: 2
#     Edge 105, Type (0, 1), BuildingBlock: XIVTED_clean_linker_0, # of connection points: 2
#     Edge 106, Type (0, 1), BuildingBlock: XIVTED_clean_linker_0, # of connection points: 2
#     Edge 107, Type (0, 1), BuildingBlock: XIVTED_clean_linker_0, # of connection points: 2
#     Edge 108, Type (0, 1), BuildingBlock: XIVTED_clean_linker_0, # of connection points: 2
#     Edge 109, Type (0, 1), BuildingBlock: XIVTED_clean_linker_0, # of connection points: 2
#     Edge 110, Type (0, 1), BuildingBlock: XIVTED_clean_linker_0, # of connection points: 2
#     Edge 111, Type (0, 1), BuildingBlock: XIVTED_clean_linker_0, # of connection points: 2
#     Edge 112, Type (0, 1), BuildingBlock: XIVTED_clean_linker_0, # of connection points: 2
#     Edge 113, Type (0, 1), BuildingBlock: XIVTED_clean_linker_0, # of connection points: 2
#     Edge 114, Type (0, 1), BuildingBlock: XIVTED_clean_linker_0, # of connection points: 2
#     Edge 115, Type (0, 1), BuildingBlock: XIVTED_clean_linker_0, # of connection points: 2
#     Edge 116, Type (0, 1), BuildingBlock: XIVTED_clean_linker_0, # of connection points: 2
#     Edge 117, Type (0, 1), BuildingBlock: XIVTED_clean_linker_0, # of connection points: 2
#     Edge 118, Type (0, 1), BuildingBlock: XIVTED_clean_linker_0, # of connection points: 2
#     Edge 119, Type (0, 1), BuildingBlock: XIVTED_clean_linker_0, # of connection points: 2
#     Edge 120, Type (0, 1), BuildingBlock: XIVTED_clean_linker_0, # of connection points: 2
#     Edge 121, Type (0, 1), BuildingBlock: XIVTED_clean_linker_0, # of connection points: 2
#     Edge 122, Type (0, 1), BuildingBlock: XIVTED_clean_linker_0, # of connection points: 2
#     Edge 123, Type (0, 1), BuildingBlock: XIVTED_clean_linker_0, # of connection points: 2
#     Edge 124, Type (0, 1), BuildingBlock: XIVTED_clean_linker_0, # of connection points: 2
#     Edge 125, Type (0, 1), BuildingBlock: XIVTED_clean_linker_0, # of connection points: 2
#     Edge 126, Type (0, 1), BuildingBlock: XIVTED_clean_linker_0, # of connection points: 2
#     Edge 127, Type (0, 1), BuildingBlock: XIVTED_clean_linker_0, # of connection points: 2
#     Edge 128, Type (0, 1), BuildingBlock: XIVTED_clean_linker_0, # of connection points: 2
#     Edge 129, Type (0, 1), BuildingBlock: XIVTED_clean_linker_0, # of connection points: 2
#     Edge 130, Type (0, 1), BuildingBlock: XIVTED_clean_linker_0, # of connection points: 2
#     Edge 131, Type (0, 1), BuildingBlock: XIVTED_clean_linker_0, # of connection points: 2
#     Edge 132, Type (0, 1), BuildingBlock: XIVTED_clean_linker_0, # of connection points: 2
#     Edge 133, Type (0, 1), BuildingBlock: XIVTED_clean_linker_0, # of connection points: 2
#     Edge 134, Type (0, 1), BuildingBlock: XIVTED_clean_linker_0, # of connection points: 2
#     Edge 135, Type (0, 1), BuildingBlock: XIVTED_clean_linker_0, # of connection points: 2
# Relax obj value: 0.135
# Max RMSD: 0.319
# Mean RMSD: 0.177
data_MOF--net-gar--node1-NAHDIM_clean_sbu_0--node2-KUMJIN_clean_sbu_0--edge1-XIVTED_clean_linker_0
_symmetry_space_group_name_H-M    P1
_symmetry_Int_Tables_number       1
_symmetry_cell_setting            triclinic
loop_
_symmetry_equiv_pos_as_xyz
'x, y, z'
_cell_length_a     62.162534
_cell_length_b     56.118284
_cell_length_c     55.013027
_cell_angle_alpha  100.87753
_cell_angle_beta   93.612449
_cell_angle_gamma 102.61359
loop_
_atom_site_label
_atom_site_type_symbol
_atom_site_fract_x
_atom_site_fract_y
_atom_site_fract_z
_atom_type_partial_charge
C0 C 0.14114 0.31191 0.34142 0.0
O1 O 0.12585 0.3193 0.32921 0.0
O2 O 0.10223 0.29006 0.40275 0.0
Zn3 Zn 0.11049 0.31192 0.37789 0.0
O4 O 0.11725 0.34764 0.39552 0.0
C5 C 0.06506 0.30244 0.35777 0.0
O6 O 0.06153 0.2983 0.38006 0.0
O7 O 0.13765 0.30627 0.36237 0.0
C8 C 0.11516 0.36489 0.38425 0.0
O9 O 0.10936 0.35936 0.36011 0.0
C10 C 0.10162 0.29973 0.4255 0.0
O11 O 0.10707 0.32411 0.43292 0.0
O12 O 0.0848 0.30733 0.3521 0.0
C13 C 0.97439 0.77904 0.68204 0.0
O14 O 0.97507 0.78041 0.65851 0.0
O15 O 0.01404 0.74005 0.6607 0.0
Zn16 Zn 0.01827 0.77575 0.67663 0.0
O17 O 0.02182 0.7959 0.6498 0.0
C18 C 0.06201 0.77691 0.68689 0.0
O19 O 0.05868 0.7716 0.66244 0.0
O20 O 0.99192 0.77844 0.6948 0.0
C21 C 0.03589 0.81665 0.65285 0.0
O22 O 0.04761 0.82607 0.67461 0.0
C23 C 1.00362 0.72929 0.63957 0.0
O24 O 0.99353 0.74185 0.62662 0.0
O25 O 0.04639 0.78218 0.69912 0.0
C26 C 0.66384 0.82277 0.87765 0.0
O27 O 0.66319 0.82631 0.90184 0.0
O28 O 0.61057 0.79058 0.90088 0.0
Zn29 Zn 0.61775 0.81618 0.87929 0.0
O30 O 0.6224 0.84953 0.90139 0.0
C31 C 0.57262 0.80217 0.85526 0.0
O32 O 0.56897 0.78851 0.87218 0.0
O33 O 0.64581 0.81639 0.86333 0.0
C34 C 0.62802 0.86946 0.89334 0.0
O35 O 0.63066 0.8682 0.86966 0.0
C36 C 0.61667 0.79751 0.92417 0.0
O37 O 0.6287 0.82022 0.93298 0.0
O38 O 0.59224 0.81419 0.85409 0.0
C39 C 0.46858 0.26498 0.18206 0.0
O40 O 0.46859 0.2593 0.15778 0.0
O41 O 0.51306 0.24109 0.15931 0.0
Zn42 Zn 0.51493 0.27515 0.17926 0.0
O43 O 0.51906 0.29904 0.15581 0.0
C44 C 0.54138 0.26332 0.21583 0.0
O45 O 0.52349 0.24505 0.21263 0.0
O46 O 0.48694 0.27364 0.1957 0.0
C47 C 0.53819 0.31189 0.1539 0.0
O48 O 0.5552 0.3111 0.1689 0.0
C49 C 0.50765 0.23382 0.13603 0.0
O50 O 0.50211 0.2493 0.12296 0.0
O51 O 0.54142 0.28102 0.20441 0.0
C52 C 0.0589 0.82619 0.14384 0.0
O53 O 0.05428 0.83367 0.1233 0.0
O54 O 0.09034 0.78597 0.09939 0.0
Zn55 Zn 0.09978 0.82184 0.12137 0.0
O56 O 0.09768 0.85269 0.10525 0.0
C57 C 0.13846 0.80709 0.14242 0.0
O58 O 0.12549 0.78487 0.13358 0.0
O59 O 0.07758 0.82081 0.14752 0.0
C60 C 0.09205 0.85454 0.08301 0.0
O61 O 0.0871 0.83429 0.06532 0.0
C62 C 0.09862 0.77427 0.08149 0.0
O63 O 0.11526 0.78651 0.07179 0.0
O64 O 0.13136 0.82627 0.13968 0.0
C65 C 0.56733 0.77666 0.41003 0.0
O66 O 0.5728 0.78177 0.43423 0.0
O67 O 0.52587 0.74051 0.44424 0.0
Zn68 Zn 0.5248 0.7715 0.4282 0.0
O69 O 0.53576 0.80679 0.45045 0.0
C70 C 0.48374 0.75666 0.39122 0.0
O71 O 0.49385 0.74075 0.37884 0.0
O72 O 0.5468 0.77101 0.40187 0.0
C73 C 0.52454 0.81933 0.46416 0.0
O74 O 0.50449 0.80829 0.46795 0.0
C75 C 0.53337 0.73904 0.46599 0.0
O76 O 0.54093 0.75969 0.48285 0.0
O77 O 0.49333 0.77035 0.41195 0.0
C78 C 0.55862 0.31505 0.63824 0.0
O79 O 0.55286 0.30816 0.6141 0.0
O80 O 0.59392 0.28516 0.60075 0.0
Zn81 Zn 0.60223 0.32152 0.62117 0.0
O82 O 0.60099 0.35159 0.60382 0.0
C83 C 0.64763 0.31522 0.63238 0.0
O84 O 0.6437 0.30219 0.60942 0.0
O85 O 0.57919 0.32202 0.64618 0.0
C86 C 0.5917 0.3528 0.58279 0.0
O87 O 0.58184 0.332 0.56709 0.0
C88 C 0.59655 0.27342 0.57932 0.0
O89 O 0.60602 0.28596 0.5634 0.0
O90 O 0.63291 0.32609 0.6412 0.0
C91 C 0.07086 0.2791 0.91089 0.0
O92 O 0.07632 0.28691 0.93501 0.0
O93 O 0.02693 0.24171 0.94427 0.0
Zn94 Zn 0.02659 0.27181 0.92672 0.0
O95 O 0.03439 0.30816 0.94741 0.0
C96 C 0.98377 0.28178 0.91041 0.0
O97 O 0.98948 0.29964 0.93044 0.0
O98 O 0.05038 0.27136 0.90268 0.0
C99 C 0.03136 0.31935 0.96893 0.0
O100 O 0.02201 0.30622 0.98447 0.0
C101 C 0.03632 0.24043 0.96522 0.0
O102 O 0.04697 0.26116 0.98054 0.0
O103 O 0.99643 0.26679 0.90529 0.0
C104 C 0.40012 0.10419 0.31094 0.0
O105 O 0.42183 0.11021 0.31548 0.0
O106 O 0.43084 0.06282 0.2819 0.0
Zn107 Zn 0.40748 0.05554 0.30511 0.0
O108 O 0.42358 0.05621 0.33794 0.0
C109 C 0.39341 1.00658 0.27398 0.0
O110 O 0.41116 0.0149 0.26352 0.0
O111 O 0.38994 0.08139 0.30731 0.0
C112 C 0.43272 0.0381 0.33825 0.0
O113 O 0.42904 0.01975 0.31863 0.0
C114 C 0.45121 0.07191 0.28982 0.0
O115 O 0.45728 0.07875 0.31387 0.0
O116 O 0.38776 0.02104 0.29189 0.0
C117 C 0.34117 0.16644 0.5031 0.0
O118 O 0.34832 0.18562 0.49285 0.0
O119 O 0.3036 0.20681 0.54436 0.0
Zn120 Zn 0.30195 0.18668 0.50962 0.0
O121 O 0.30935 0.2066 0.4832 0.0
C122 C 0.25509 0.17721 0.5049 0.0
O123 O 0.26002 0.20153 0.51302 0.0
O124 O 0.32218 0.16336 0.51099 0.0
C125 C 0.30604 0.19341 0.46121 0.0
O126 O 0.29852 0.16913 0.45807 0.0
C127 C 0.30486 0.22971 0.55347 0.0
O128 O 0.30629 0.24582 0.53881 0.0
O129 O 0.27071 0.16612 0.50118 0.0
C130 C 0.21452 0.97434 0.78934 0.0
O131 O 0.21118 0.98368 0.81216 0.0
O132 O 0.16984 0.01496 0.73909 0.0
Zn133 Zn 0.18922 0.01602 0.77523 0.0
O134 O 0.17132 0.01966 0.80934 0.0
C135 C 0.2062 0.07095 0.77659 0.0
O136 O 0.18478 0.06821 0.77132 0.0
O137 O 0.20719 0.98414 0.77181 0.0
C138 C 0.1521 1.00824 0.81414 0.0
O139 O 0.13977 0.99096 0.79614 0.0
C140 C 0.15185 0.02198 0.73389 0.0
O141 O 0.14114 0.02961 0.75256 0.0
O142 O 0.21296 0.05154 0.77981 0.0
C143 C 0.29181 0.97723 0.03151 0.0
O144 O 0.28252 0.9534 0.02338 0.0
O145 O 0.32747 0.94228 0.0641 0.0
Zn146 Zn 0.32943 0.95729 0.03384 0.0
O147 O 0.31865 0.93152 1.00232 0.0
C148 C 0.37395 0.9563 0.03165 0.0
O149 O 0.36551 0.93374 0.03502 0.0
O150 O 0.31267 0.98404 0.03686 0.0
C151 C 0.31883 0.90857 0.99968 0.0
O152 O 0.32434 0.89986 0.01913 0.0
C153 C 0.31104 0.9264 0.06852 0.0
O154 O 0.2931 0.91876 0.05255 0.0
O155 O 0.36143 0.97138 0.03132 0.0
C156 C 0.2877 0.42394 0.02307 0.0
O157 O 0.28748 0.4044 1.00556 0.0
O158 O 0.32521 0.39303 0.06988 0.0
Zn159 Zn 0.32714 0.41158 0.04213 0.0
O160 O 0.32714 0.39052 0.0081 0.0
C161 C 0.37302 0.4253 0.04919 0.0
O162 O 0.36891 0.40082 0.04531 0.0
O163 O 0.30289 0.4304 0.04125 0.0
C164 C 0.32844 0.36814 1.00011 0.0
O165 O 0.32952 0.35333 0.01577 0.0
C166 C 0.3108 0.37399 0.07221 0.0
O167 O 0.29448 0.36361 0.05444 0.0
O168 O 0.35682 0.43572 0.04917 0.0
C169 C 0.82154 0.09758 0.02667 0.0
O170 O 0.8143 0.10288 0.04852 0.0
O171 O 0.8105 0.16035 0.04716 0.0
Zn172 Zn 0.79809 0.13345 0.01692 0.0
O173 O 0.79551 0.15149 0.98919 0.0
C174 C 0.76001 0.11913 0.04351 0.0
O175 O 0.77299 0.13257 0.06334 0.0
O176 O 0.81692 0.10885 0.00979 0.0
C177 C 0.7778 0.14793 0.97478 0.0
O178 O 0.76122 0.12896 0.97507 0.0
C179 C 0.80028 0.17785 0.05013 0.0
O180 O 0.78393 0.17704 0.03341 0.0
O181 O 0.76754 0.11611 0.02247 0.0
C182 C 0.23896 0.51187 0.27263 0.0
O183 O 0.22482 0.51889 0.28756 0.0
O184 O 0.20198 0.52128 0.20476 0.0
Zn185 Zn 0.21678 0.53443 0.23948 0.0
O186 O 0.19305 0.53685 0.26241 0.0
C187 C 0.22471 0.58498 0.23516 0.0
O188 O 0.20384 0.57759 0.22564 0.0
O189 O 0.23764 0.51507 0.25038 0.0
C190 C 0.19512 0.55546 0.28032 0.0
O191 O 0.2137 0.57281 0.28505 0.0
C192 C 0.18237 0.50768 0.20099 0.0
O193 O 0.17339 0.49921 0.21961 0.0
O194 O 0.23447 0.56909 0.24145 0.0
C195 C 0.7883 0.92768 0.53309 0.0
O196 O 0.78084 0.90337 0.5262 0.0
O197 O 0.8216 0.89573 0.57201 0.0
Zn198 Zn 0.82898 0.91377 0.54429 0.0
O199 O 0.8284 0.89205 0.51044 0.0
C200 C 0.87553 0.9234 0.54859 0.0
O201 O 0.87035 0.89924 0.53953 0.0
O202 O 0.80851 0.93652 0.54172 0.0
C203 C 0.81867 0.8697 0.50019 0.0
O204 O 0.8054 0.85593 0.51249 0.0
C205 C 0.82693 0.87567 0.57453 0.0
O206 O 0.83674 0.86409 0.55711 0.0
O207 O 0.86007 0.93461 0.55296 0.0
C208 C 0.91717 0.12213 0.26675 0.0
O209 O 0.92008 0.11323 0.24365 0.0
O210 O 0.96017 0.07519 0.24674 0.0
Zn211 Zn 0.94206 0.07964 0.28055 0.0
O212 O 0.96141 0.08067 0.3168 0.0
C213 C 0.92472 0.02489 0.27927 0.0
O214 O 0.94613 0.02749 0.2844 0.0
O215 O 0.92456 0.1118 0.28382 0.0
C216 C 0.97938 0.07356 0.32196 0.0
O217 O 0.99 0.06584 0.30324 0.0
C218 C 0.9721 0.09123 0.23597 0.0
O219 O 0.97538 0.11497 0.24645 0.0
O220 O 0.91805 0.04437 0.27612 0.0
C221 C 0.32388 0.60409 0.53107 0.0
O222 O 0.31951 0.61211 0.55382 0.0
O223 O 0.31285 0.66473 0.55187 0.0
Zn224 Zn 0.30022 0.64002 0.52 0.0
O225 O 0.30143 0.65811 0.49176 0.0
C226 C 0.25884 0.63143 0.54224 0.0
O227 O 0.27022 0.64894 0.56063 0.0
O228 O 0.31726 0.61344 0.51351 0.0
C229 C 0.28871 0.64936 0.47159 0.0
O230 O 0.27487 0.62744 0.4687 0.0
C231 C 0.31149 0.68737 0.55472 0.0
O232 O 0.30387 0.69526 0.53565 0.0
O233 O 0.26822 0.62433 0.52317 0.0
C234 C 0.41589 0.62338 0.79562 0.0
O235 O 0.41653 0.6183 0.81797 0.0
O236 O 0.46425 0.57825 0.749 0.0
Zn237 Zn 0.44302 0.57919 0.78014 0.0
O238 O 0.46104 0.58101 0.81729 0.0
C239 C 0.42661 0.52406 0.77806 0.0
O240 O 0.44787 0.52728 0.78475 0.0
O241 O 0.42509 0.61041 0.77896 0.0
C242 C 0.47907 0.57407 0.82252 0.0
O243 O 0.48991 0.56675 0.80386 0.0
C244 C 0.45838 0.56381 0.7272 0.0
O245 O 0.43875 0.54832 0.72369 0.0
O246 O 0.41981 0.5432 0.77406 0.0
C247 C 0.72532 0.98511 0.75146 0.0
O248 O 0.70408 0.98247 0.75382 0.0
O249 O 0.70147 0.01494 0.69875 0.0
Zn250 Zn 0.71885 0.02693 0.73232 0.0
O251 O 0.69713 0.03267 0.7569 0.0
C252 C 0.7366 0.07318 0.71789 0.0
O253 O 0.72096 0.06362 0.69925 0.0
O254 O 0.73523 1.00257 0.7416 0.0
C255 C 0.7024 0.04704 0.77821 0.0
O256 O 0.72326 0.0586 0.78524 0.0
C257 C 0.68107 1.004 0.69665 0.0
O258 O 0.67243 0.99703 0.7161 0.0
O259 O 0.73965 0.06025 0.73387 0.0
C260 C 0.8423 0.67158 0.01961 0.0
O261 O 0.84968 0.69573 0.02802 0.0
O262 O 0.80298 0.70493 0.04733 0.0
Zn263 Zn 0.80116 0.68592 0.01216 0.0
O264 O 0.80832 0.70773 0.98736 0.0
C265 C 0.75419 0.67588 1.00561 0.0
O266 O 0.75876 0.70026 0.01311 0.0
O267 O 0.82196 0.66299 0.01144 0.0
C268 C 0.80822 0.69551 0.96541 0.0
O269 O 0.804 0.67103 0.9615 0.0
C270 C 0.80243 0.72749 0.05571 0.0
O271 O 0.80132 0.7425 0.04025 0.0
O272 O 0.77006 0.66501 1.00305 0.0
C273 C 0.89819 0.60031 0.79977 0.0
O274 O 0.91781 0.61249 0.8112 0.0
O275 O 0.93949 0.56167 0.7828 0.0
Zn276 Zn 0.91419 0.55661 0.80378 0.0
O277 O 0.92731 0.56635 0.83944 0.0
C278 C 0.90918 0.5035 0.79239 0.0
O279 O 0.93087 0.51004 0.79714 0.0
O280 O 0.8931 0.57666 0.79569 0.0
C281 C 0.92312 0.55147 0.85417 0.0
O282 O 0.90692 0.53136 0.84733 0.0
C283 C 0.95878 0.56094 0.79132 0.0
O284 O 0.96217 0.55782 0.8142 0.0
O285 O 0.89827 0.52033 0.79449 0.0
C286 C 0.80576 0.49015 0.54781 0.0
O287 O 0.81769 0.48848 0.56772 0.0
O288 O 0.82832 0.44009 0.55764 0.0
Zn289 Zn 0.82554 0.45115 0.52535 0.0
O290 O 0.81414 0.42123 0.49776 0.0
C291 C 0.86902 0.48583 0.52905 0.0
O292 O 0.86183 0.50073 0.5464 0.0
O293 O 0.8065 0.47594 0.52709 0.0
C294 C 0.82714 0.40655 0.4946 0.0
O295 O 0.84515 0.41118 0.51022 0.0
C296 C 0.81539 0.42071 0.56167 0.0
O297 O 0.79904 0.40809 0.54465 0.0
O298 O 0.8562 0.46532 0.51796 0.0
C299 C 0.71086 0.46812 0.26017 0.0
O300 O 0.70307 0.46704 0.23712 0.0
O301 O 0.66988 0.51381 0.23843 0.0
Zn302 Zn 0.68849 0.51638 0.27536 0.0
O303 O 0.66923 0.52123 0.30798 0.0
C304 C 0.705 0.57126 0.27653 0.0
O305 O 0.68357 0.56829 0.27115 0.0
O306 O 0.70691 0.48564 0.27724 0.0
C307 C 0.65597 0.50495 0.31723 0.0
O308 O 0.65196 0.4815 0.3055 0.0
C309 C 0.65195 0.52094 0.23324 0.0
O310 O 0.64144 0.52893 0.25195 0.0
O311 O 0.71194 0.55198 0.2798 0.0
Eu312 Eu 0.03751 0.02522 0.01052 0.0
C313 C 0.09532 0.12565 0.0752 0.0
C314 C 0.09934 0.15519 0.04797 0.0
C315 C 0.10118 0.17006 0.09265 0.0
C316 C 0.09558 0.13039 0.05149 0.0
C317 C 0.09866 0.14548 0.09612 0.0
C318 C 0.10154 0.1749 0.0686 0.0
C319 C 0.09927 0.11562 0.1224 0.0
N320 N 0.09331 0.1018 0.07792 0.0
C321 C 0.09619 0.09665 0.10109 0.0
C322 C 0.1002 0.14011 0.11991 0.0
Eu323 Eu 0.08762 0.07037 0.0411 0.0
N324 N 0.09363 0.11093 0.03199 0.0
C325 C 0.09722 0.11525 0.00877 0.0
C326 C 0.1016 0.1595 0.02393 0.0
C327 C 0.10088 0.13947 1.00432 0.0
H328 H 0.09545 0.07774 0.10315 0.0
H329 H 0.10307 0.14263 0.98573 0.0
H330 H 0.10418 0.19403 0.06622 0.0
H331 H 0.10095 0.11134 0.1407 0.0
H332 H 0.09669 0.10006 0.99333 0.0
H333 H 0.02301 0.95235 0.06517 0.0
H334 H 0.10446 0.17825 0.02044 0.0
H335 H 0.02794 0.01779 0.94863 0.0
H336 H 0.02818 0.99494 0.05772 0.0
H337 H 0.02246 0.98438 0.91091 0.0
H338 H 0.10356 0.18551 0.10847 0.0
H339 H 0.02323 0.91724 0.03052 0.0
H340 H 0.02413 0.90191 0.98474 0.0
H341 H 0.10275 0.15482 0.13644 0.0
H342 H 0.02396 0.91065 0.94255 0.0
N343 N 0.03222 0.98457 0.01928 0.0
C344 C 0.02834 0.97995 0.04233 0.0
C345 C 0.02558 0.93598 0.02711 0.0
C346 C 0.0279 0.94054 1.00316 0.0
C347 C 0.02537 0.95573 0.04669 0.0
C348 C 0.03099 0.96533 0.99976 0.0
H349 H 0.02273 0.94124 0.9148 0.0
N350 N 0.032 0.99396 0.97356 0.0
C351 C 0.025 0.98015 0.92912 0.0
C352 C 0.03096 0.9702 0.97611 0.0
C353 C 0.02808 0.99901 0.95053 0.0
C354 C 0.02526 0.95585 0.9314 0.0
C355 C 0.02778 0.9505 0.95511 0.0
O356 O 1.00744 0.03051 0.99176 0.0
O357 O 0.05407 0.06602 0.02178 0.0
O358 O 0.06042 0.07574 0.06693 0.0
O359 O 0.03487 0.03766 0.05318 0.0
O360 O 0.03756 0.05377 0.9863 0.0
O361 O 1.00599 0.01752 0.02636 0.0
O362 O 0.11729 0.06459 0.06022 0.0
O363 O 0.07111 0.0295 0.02987 0.0
O364 O 0.06442 0.02061 0.98381 0.0
O365 O 0.09073 0.05795 0.99872 0.0
O366 O 0.08722 0.04197 0.06554 0.0
O367 O 0.11928 0.07793 0.02569 0.0
C368 C 0.04872 0.0731 1.00214 0.0
C369 C 0.9736 1.00509 0.99796 0.0
C370 C 0.93332 0.99705 0.99299 0.0
C371 C 0.95407 0.01254 1.0032 0.0
C372 C 0.9323 0.9738 0.97747 0.0
C373 C 0.97244 0.98168 0.98275 0.0
C374 C 0.95182 0.9661 0.97258 0.0
C375 C 0.04287 0.05868 0.0703 0.0
C376 C 0.99482 0.02257 0.00794 0.0
C377 C 0.02614 0.92599 0.95844 0.0
C378 C 0.02622 0.92102 0.98246 0.0
C379 C 0.07631 0.02253 0.04965 0.0
C380 C 0.15176 0.08866 0.05399 0.0
C381 C 0.16965 0.07755 0.05512 0.0
C382 C 0.19102 0.09185 0.0644 0.0
C383 C 0.19439 0.11783 0.07226 0.0
C384 C 0.15506 0.11455 0.06217 0.0
C385 C 0.17639 0.12907 0.07124 0.0
C386 C 0.08248 0.03742 0.98112 0.0
C387 C 0.13006 0.07234 0.04407 0.0
H388 H 0.95507 0.0308 0.01471 0.0
H389 H 0.91647 0.96161 0.96929 0.0
H390 H 0.98736 0.97558 0.97856 0.0
H391 H 0.95098 0.94811 0.96072 0.0
H392 H 0.1669 0.05754 0.04835 0.0
H393 H 0.21077 0.12929 0.07939 0.0
H394 H 0.1413 0.12344 0.06144 0.0
H395 H 0.17899 0.14906 0.07749 0.0
Eu396 Eu 0.31965 0.77371 0.24606 0.0
C397 C 0.31874 0.8773 0.30906 0.0
C398 C 0.35782 0.89365 0.32296 0.0
C399 C 0.33403 0.92228 0.32071 0.0
C400 C 0.33935 0.87314 0.31492 0.0
C401 C 0.3159 0.90198 0.31185 0.0
C402 C 0.35496 0.91812 0.32623 0.0
C403 C 0.2773 0.88501 0.29704 0.0
N404 N 0.30162 0.85733 0.2998 0.0
C405 C 0.28086 0.861 0.2948 0.0
C406 C 0.29492 0.90562 0.30549 0.0
Eu407 Eu 0.30781 0.81691 0.30039 0.0
N408 N 0.34169 0.84921 0.31093 0.0
C409 C 0.36266 0.84508 0.31232 0.0
C410 C 0.37885 0.88907 0.32649 0.0
C411 C 0.38131 0.86469 0.32066 0.0
H412 H 0.26663 0.84546 0.28967 0.0
H413 H 0.39767 0.86098 0.32195 0.0
H414 H 0.36894 0.93398 0.33243 0.0
H415 H 0.26083 0.88756 0.29269 0.0
H416 H 0.36568 0.82699 0.30594 0.0
H417 H 0.23194 0.72406 0.21457 0.0
H418 H 0.39339 0.90428 0.33256 0.0
H419 H 0.36223 0.74785 0.25816 0.0
H420 H 0.26136 0.7589 0.23591 0.0
H421 H 0.37072 0.70677 0.25254 0.0
H422 H 0.33211 0.94128 0.32296 0.0
H423 H 0.23949 0.68248 0.2012 0.0
H424 H 0.26597 0.65502 0.20145 0.0
H425 H 0.29211 0.92424 0.30732 0.0
H426 H 0.30311 0.64998 0.21367 0.0
N427 N 0.28746 0.73959 0.23126 0.0
C428 C 0.26599 0.74196 0.22833 0.0
C429 C 0.253 0.69826 0.2096 0.0
C430 C 0.27436 0.69517 0.21472 0.0
C431 C 0.24871 0.72169 0.21696 0.0
C432 C 0.29141 0.71636 0.22589 0.0
H433 H 0.34184 0.66891 0.23343 0.0
N434 N 0.32786 0.73389 0.24488 0.0
C435 C 0.35407 0.70826 0.24728 0.0
C436 C 0.31215 0.71342 0.23315 0.0
C437 C 0.34895 0.73161 0.25086 0.0
C438 C 0.33779 0.687 0.23636 0.0
C439 C 0.31662 0.68939 0.22885 0.0
O440 O 0.3538 0.78027 0.23738 0.0
O441 O 0.32925 0.81207 0.27019 0.0
O442 O 0.28425 0.81574 0.26514 0.0
O443 O 0.29191 0.78863 0.23016 0.0
O444 O 0.32531 0.80939 0.23164 0.0
O445 O 0.32691 0.76412 0.20755 0.0
O446 O 0.27548 0.81606 0.31341 0.0
O447 O 0.2978 0.77921 0.27551 0.0
O448 O 0.34014 0.77214 0.28236 0.0
O449 O 0.33445 0.80095 0.31698 0.0
O450 O 0.298 0.78026 0.31341 0.0
O451 O 0.30493 0.82777 0.34025 0.0
C452 C 0.33069 0.82429 0.25302 0.0
C453 C 0.36026 0.78942 0.19831 0.0
C454 C 0.36195 0.82204 0.17441 0.0
C455 C 0.34962 0.80409 0.18594 0.0
C456 C 0.38495 0.82447 0.17447 0.0
C457 C 0.38321 0.792 0.19808 0.0
C458 C 0.39544 0.80934 0.18606 0.0
C459 C 0.28055 0.80456 0.24096 0.0
C460 C 0.34831 0.77295 0.21339 0.0
C461 C 0.29994 0.6685 0.2171 0.0
C462 C 0.27886 0.67139 0.20999 0.0
C463 C 0.29405 0.76613 0.29163 0.0
C464 C 0.27037 0.80926 0.35354 0.0
C465 C 0.27731 0.7903 0.3631 0.0
C466 C 0.26314 0.77556 0.37635 0.0
C467 C 0.24235 0.78058 0.38065 0.0
C468 C 0.24961 0.81402 0.35816 0.0
C469 C 0.23575 0.79984 0.37176 0.0
C470 C 0.3443 0.78345 0.3064 0.0
C471 C 0.28324 0.82297 0.33687 0.0
H472 H 0.33191 0.80222 0.18603 0.0
H473 H 0.39479 0.83794 0.1654 0.0
H474 H 0.39171 0.78089 0.2076 0.0
H475 H 0.41316 0.81132 0.18604 0.0
H476 H 0.29333 0.78652 0.35969 0.0
H477 H 0.23128 0.76975 0.3911 0.0
H478 H 0.24396 0.82849 0.35083 0.0
H479 H 0.21973 0.80358 0.37517 0.0
Eu480 Eu 0.59053 0.05601 0.5116 0.0
C481 C 0.51788 0.9961 0.56741 0.0
C482 C 0.50054 0.95695 0.53924 0.0
C483 C 0.50203 0.95966 0.58395 0.0
C484 C 0.51196 0.98227 0.54343 0.0
C485 C 0.51272 0.98507 0.58797 0.0
C486 C 0.49595 0.94562 0.55962 0.0
C487 C 0.52783 0.02544 0.6149 0.0
N488 N 0.52799 0.02063 0.57064 0.0
C489 C 0.53248 0.03555 0.59393 0.0
C490 C 0.51806 1.00004 0.61194 0.0
Eu491 Eu 0.53582 0.03644 0.53436 0.0
N492 N 0.51655 0.99383 0.52418 0.0
C493 C 0.50896 0.9815 0.50027 0.0
C494 C 0.49366 0.94392 0.51471 0.0
C495 C 0.49769 0.95635 0.49516 0.0
H496 H 0.54014 0.05518 0.59639 0.0
H497 H 0.49215 0.94656 0.47613 0.0
H498 H 0.48734 0.92615 0.55677 0.0
H499 H 0.53178 0.03725 0.63334 0.0
H500 H 0.51185 0.99078 0.48494 0.0
H501 H 0.63284 0.14549 0.5713 0.0
H502 H 0.48491 0.92444 0.5107 0.0
H503 H 0.58764 0.03813 0.44964 0.0
H504 H 0.61378 0.1009 0.5616 0.0
H505 H 0.59591 0.05694 0.41311 0.0
H506 H 0.49803 0.95081 0.59951 0.0
H507 H 0.63952 0.16857 0.53733 0.0
H508 H 0.63708 0.16778 0.4914 0.0
H509 H 0.51438 0.99227 0.62822 0.0
H510 H 0.62707 0.1437 0.44836 0.0
N511 N 0.60897 0.09881 0.52254 0.0
C512 C 0.61652 0.11071 0.54657 0.0
C513 C 0.63107 0.14898 0.53295 0.0
C514 C 0.62435 0.13635 0.50826 0.0
C515 C 0.62737 0.13601 0.55216 0.0
C516 C 0.61333 0.11087 0.50359 0.0
H517 H 0.61196 0.10232 0.419 0.0
N518 N 0.59828 0.07263 0.47576 0.0
C519 C 0.59924 0.06855 0.43165 0.0
C520 C 0.60777 0.09736 0.47943 0.0
C521 C 0.59463 0.05795 0.45236 0.0
C522 C 0.60825 0.09418 0.43505 0.0
C523 C 0.61294 0.10887 0.45918 0.0
O524 O 0.61353 0.03422 0.49644 0.0
O525 O 0.56452 0.02417 0.51801 0.0
O526 O 0.5618 0.02704 0.55897 0.0
O527 O 0.5921 0.05741 0.5535 0.0
O528 O 0.58025 0.01718 0.48648 0.0
O529 O 0.62197 0.05855 0.533 0.0
O530 O 0.51232 0.05769 0.54926 0.0
O531 O 0.56183 0.06836 0.52782 0.0
O532 O 0.56412 0.06317 0.48556 0.0
O533 O 0.53438 0.03271 0.49241 0.0
O534 O 0.54696 0.07491 0.55998 0.0
O535 O 0.50558 0.0356 0.51158 0.0
C536 C 0.56577 1.00731 0.49969 0.0
C537 C 0.65146 0.05061 0.51025 0.0
C538 C 0.68783 0.04108 0.50841 0.0
C539 C 0.66564 0.03493 0.51345 0.0
C540 C 0.69566 0.0634 0.50025 0.0
C541 C 0.65944 0.07272 0.502 0.0
C542 C 0.6815 0.07907 0.49707 0.0
C543 C 0.58237 0.04039 0.56559 0.0
C544 C 0.62845 0.04331 0.51561 0.0
C545 C 0.6231 0.13447 0.46367 0.0
C546 C 0.6288 0.14818 0.48818 0.0
C547 C 0.56118 0.08491 0.54663 0.0
C548 C 0.47486 0.04195 0.53267 0.0
C549 C 0.46066 0.05733 0.52845 0.0
C550 C 0.43791 0.05019 0.531 0.0
C551 C 0.42966 0.02734 0.53803 0.0
C552 C 0.46641 0.0193 0.53974 0.0
C553 C 0.44387 0.01207 0.54241 0.0
C554 C 0.54426 0.04807 0.47881 0.0
C555 C 0.49832 0.04983 0.52917 0.0
H556 H 0.65937 0.01803 0.52016 0.0
H557 H 0.71262 0.06855 0.49599 0.0
H558 H 0.64867 0.085 0.4994 0.0
H559 H 0.68762 0.09614 0.49066 0.0
H560 H 0.46747 0.07501 0.52341 0.0
H561 H 0.41219 0.02109 0.53986 0.0
H562 H 0.47717 1.00725 0.54311 0.0
H563 H 0.43737 0.99451 0.54777 0.0
Eu564 Eu 0.28931 0.30479 0.77001 0.0
C565 C 0.35963 0.26293 0.82648 0.0
C566 C 0.37376 0.29452 0.8638 0.0
C567 C 0.3729 0.25106 0.86395 0.0
C568 C 0.36409 0.28752 0.83883 0.0
C569 C 0.36467 0.2445 0.83862 0.0
C570 C 0.37742 0.27606 0.87654 0.0
C571 C 0.35595 0.2153 0.79905 0.0
N572 N 0.35223 0.25741 0.80194 0.0
C573 C 0.35127 0.23427 0.78787 0.0
C574 C 0.36228 0.22031 0.82466 0.0
Eu575 Eu 0.34384 0.29003 0.78405 0.0
N576 N 0.3608 0.30486 0.82575 0.0
C577 C 0.36891 0.32968 0.83583 0.0
C578 C 0.38043 0.31992 0.87482 0.0
C579 C 0.37844 0.33758 0.86058 0.0
H580 H 0.34623 0.23026 0.76808 0.0
H581 H 0.38415 0.3573 0.86867 0.0
H582 H 0.38455 0.28104 0.89582 0.0
H583 H 0.3546 0.19683 0.78794 0.0
H584 H 0.36748 0.34363 0.8252 0.0
H585 H 0.24985 0.23728 0.68518 0.0
H586 H 0.38789 0.32608 0.89396 0.0
H587 H 0.28688 0.36455 0.78582 0.0
H588 H 0.26645 0.25105 0.72866 0.0
H589 H 0.27832 0.39785 0.7659 0.0
H590 H 0.37661 0.23713 0.8737 0.0
H591 H 0.24553 0.26841 0.66 0.0
H592 H 0.24837 0.31337 0.65818 0.0
H593 H 0.36602 0.20563 0.83327 0.0
H594 H 0.25607 0.35728 0.68025 0.0
N595 N 0.2725 0.28983 0.72825 0.0
C596 C 0.26477 0.26497 0.71809 0.0
C597 C 0.25295 0.27462 0.67915 0.0
C598 C 0.25935 0.30003 0.6902 0.0
C599 C 0.25528 0.25701 0.69333 0.0
C600 C 0.26899 0.3071 0.71519 0.0
H601 H 0.26669 0.38888 0.7206 0.0
N602 N 0.2808 0.3373 0.75203 0.0
C603 C 0.27698 0.37937 0.75482 0.0
C604 C 0.27333 0.3317 0.7275 0.0
C605 C 0.28177 0.36047 0.76605 0.0
C606 C 0.27052 0.37426 0.72925 0.0
C607 C 0.26816 0.35005 0.71533 0.0
O608 O 0.26642 0.31772 0.79528 0.0
O609 O 0.31443 0.30149 0.79933 0.0
O610 O 0.31709 0.25737 0.79152 0.0
O611 O 0.28552 0.26276 0.76979 0.0
O612 O 0.3002 0.33205 0.80661 0.0
O613 O 0.25738 0.28036 0.77306 0.0
O614 O 0.36662 0.27708 0.75864 0.0
O615 O 0.3188 0.29353 0.75485 0.0
O616 O 0.31607 0.33742 0.76251 0.0
O617 O 0.34762 0.33209 0.78434 0.0
O618 O 0.33286 0.26294 0.74727 0.0
O619 O 0.37583 0.31437 0.78101 0.0
C620 C 0.31386 0.32069 0.81529 0.0
C621 C 0.22823 0.29997 0.78352 0.0
C622 C 0.19056 0.29777 0.79542 0.0
C623 C 0.21247 0.29527 0.80042 0.0
C624 C 0.18493 0.30526 0.77329 0.0
C625 C 0.22209 0.30727 0.76161 0.0
C626 C 0.20057 0.30993 0.75659 0.0
C627 C 0.29613 0.24898 0.7812 0.0
C628 C 0.251 0.29719 0.7888 0.0
C629 C 0.25989 0.34341 0.69002 0.0
C630 C 0.2555 0.31841 0.67746 0.0
C631 C 0.31931 0.27449 0.73868 0.0
C632 C 0.40486 0.29467 0.77021 0.0
C633 C 0.42056 0.29955 0.75328 0.0
C634 C 0.44246 0.29693 0.75806 0.0
C635 C 0.44813 0.28912 0.77998 0.0
C636 C 0.41104 0.28706 0.79191 0.0
C637 C 0.43255 0.28427 0.79671 0.0
C638 C 0.33702 0.34584 0.77286 0.0
C639 C 0.38209 0.29756 0.76513 0.0
H640 H 0.21721 0.28938 0.81723 0.0
H641 H 0.16847 0.30788 0.769 0.0
H642 H 0.23392 0.31091 0.7484 0.0
H643 H 0.19599 0.3157 0.73968 0.0
H644 H 0.41579 0.30568 0.73663 0.0
H645 H 0.46458 0.28639 0.7841 0.0
H646 H 0.39925 0.28326 0.80513 0.0
H647 H 0.43717 0.27826 0.81346 0.0
Eu648 Eu 0.06124 0.07668 0.54568 0.0
C649 C 0.09073 1.00752 0.45783 0.0
C650 C 0.06026 0.99752 0.42514 0.0
C651 C 0.09754 0.99711 0.41447 0.0
C652 C 0.06849 1.00473 0.45059 0.0
C653 C 0.10546 1.0033 0.43988 0.0
C654 C 0.07497 0.99423 0.40711 0.0
C655 C 0.13441 1.0098 0.47351 0.0
N656 N 0.09779 0.01328 0.4825 0.0
C657 C 0.11917 0.01378 0.49059 0.0
C658 C 0.1276 1.00481 0.44803 0.0
Eu659 Eu 0.0712 0.02031 0.51039 0.0
N660 N 0.05472 1.00781 0.46849 0.0
C661 C 0.03229 1.00215 0.46225 0.0
C662 C 0.03741 0.99312 0.4186 0.0
C663 C 0.02334 0.99511 0.43728 0.0
H664 H 0.12466 0.01774 0.51023 0.0
H665 H 1.00559 0.99127 0.43247 0.0
H666 H 0.06898 0.9889 0.38747 0.0
H667 H 0.15141 1.01064 0.48002 0.0
H668 H 0.02114 1.00356 0.4764 0.0
H669 H 0.12457 0.10392 0.62576 0.0
H670 H 0.03044 0.9876 0.39927 0.0
H671 H 0.00784 0.08059 0.54396 0.0
H672 H 0.11031 0.09265 0.58131 0.0
H673 H 0.98031 0.08749 0.57312 0.0
H674 H 0.10862 0.99398 0.4004 0.0
H675 H 0.09862 0.10685 0.65787 0.0
H676 H 0.05966 0.10555 0.66818 0.0
H677 H 0.13942 1.00168 0.43483 0.0
H678 H 0.02044 0.10128 0.65386 0.0
N679 N 0.07644 0.0882 0.588 0.0
C680 C 0.09874 0.09372 0.59506 0.0
C681 C 0.09223 0.10177 0.63835 0.0
C682 C 0.06953 0.0976 0.63098 0.0
C683 C 0.10693 0.1002 0.62028 0.0
C684 C 0.06207 0.09095 0.6053 0.0
H685 H 0.99081 0.095 0.61851 0.0
N686 N 0.03372 0.08348 0.57242 0.0
C687 C 0.99702 0.08771 0.58017 0.0
C688 C 0.04004 0.08859 0.59727 0.0
C689 C 0.01272 0.08378 0.56367 0.0
C690 C 1.003 0.09189 0.60577 0.0
C691 C 0.0248 0.09272 0.61464 0.0
O692 O 0.05158 0.10665 0.53087 0.0
O693 O 0.05986 0.05497 0.50599 0.0
O694 O 0.09606 0.05185 0.50045 0.0
O695 O 0.09694 0.08076 0.53681 0.0
O696 O 0.03302 0.06938 0.51462 0.0
O697 O 0.08275 0.11429 0.55409 0.0
O698 O 0.08269 0.98957 0.52188 0.0
O699 O 0.07283 0.04209 0.54993 0.0
O700 O 0.03618 0.04562 0.55576 0.0
O701 O 0.03559 0.01632 0.51974 0.0
O702 O 0.09955 0.02751 0.54133 0.0
O703 O 0.04844 0.984 0.50671 0.0
C704 C 0.04128 0.05751 0.49656 0.0
C705 C 0.06566 0.14792 0.55272 0.0
C706 C 0.06351 0.18926 0.5467 0.0
C707 C 0.06745 0.16564 0.5378 0.0
C708 C 0.05812 0.1951 0.57122 0.0
C709 C 0.06004 0.15372 0.57705 0.0
C710 C 0.05636 0.17735 0.58627 0.0
C711 C 0.10536 0.07305 0.51611 0.0
C712 C 0.06914 0.12342 0.54168 0.0
C713 C 0.03194 0.09824 0.64024 0.0
C714 C 0.05426 0.10066 0.64839 0.0
C715 C 0.09133 0.03942 0.5594 0.0
C716 C 0.06279 0.94802 0.50511 0.0
C717 C 0.06225 0.93171 0.52147 0.0
C718 C 0.06054 0.90618 0.51259 0.0
C719 C 0.05934 0.89706 0.4868 0.0
C720 C 0.06187 0.93893 0.47944 0.0
C721 C 0.06018 0.91346 0.47036 0.0
C722 C 0.027 0.02434 0.54025 0.0
C723 C 0.06335 0.97407 0.51585 0.0
H724 H 0.07212 0.16098 0.51913 0.0
H725 H 0.05498 0.21318 0.5786 0.0
H726 H 0.05847 0.1401 0.58879 0.0
H727 H 0.05203 0.18187 0.60506 0.0
H728 H 0.06254 0.9389 0.54127 0.0
H729 H 0.05794 0.87741 0.47945 0.0
H730 H 0.06225 0.95139 0.46655 0.0
H731 H 0.05936 0.90637 0.45053 0.0
Eu732 Eu 0.3411 0.81902 0.77199 0.0
C733 C 0.28695 0.74609 0.82942 0.0
C734 C 0.29706 0.70674 0.81597 0.0
C735 C 0.28542 0.71692 0.85722 0.0
C736 C 0.29455 0.73002 0.81158 0.0
C737 C 0.2819 0.7395 0.85228 0.0
C738 C 0.29297 0.70055 0.83908 0.0
C739 C 0.26841 0.77694 0.86285 0.0
N740 N 0.28339 0.76759 0.82389 0.0
C741 C 0.27352 0.78259 0.83989 0.0
C742 C 0.27286 0.75546 0.86922 0.0
Eu743 Eu 0.29338 0.77625 0.78484 0.0
N744 N 0.29807 0.73641 0.78934 0.0
C745 C 0.30244 0.71955 0.77004 0.0
C746 C 0.30285 0.69 0.79668 0.0
C747 C 0.30518 0.69628 0.77348 0.0
H748 H 0.26997 0.79929 0.83539 0.0
H749 H 0.30921 0.68329 0.75825 0.0
H750 H 0.29502 0.68287 0.84287 0.0
H751 H 0.26106 0.7892 0.87563 0.0
H752 H 0.30434 0.72418 0.75204 0.0
H753 H 0.32399 0.91155 0.79645 0.0
H754 H 0.30496 0.67196 0.7993 0.0
H755 H 0.36678 0.79649 0.72288 0.0
H756 H 0.32965 0.87125 0.80379 0.0
H757 H 0.37607 0.80617 0.68262 0.0
H758 H 0.2818 0.71164 0.87475 0.0
H759 H 0.32804 0.92191 0.75497 0.0
H760 H 0.33849 0.91049 0.71174 0.0
H761 H 0.26879 0.75108 0.88698 0.0
H762 H 0.35283 0.88188 0.68084 0.0
N763 N 0.33587 0.85836 0.76663 0.0
C764 C 0.33131 0.87545 0.78558 0.0
C765 C 0.33042 0.90412 0.75807 0.0
C766 C 0.33662 0.88726 0.73922 0.0
C767 C 0.3282 0.89838 0.78152 0.0
C768 C 0.33952 0.86433 0.74422 0.0
H769 H 0.36723 0.84324 0.67 0.0
N770 N 0.35177 0.8272 0.73301 0.0
C771 C 0.36798 0.8181 0.69483 0.0
C772 C 0.34777 0.84832 0.72691 0.0
C773 C 0.36259 0.81264 0.71777 0.0
C774 C 0.36292 0.83901 0.68775 0.0
C775 C 0.35307 0.85468 0.70402 0.0
O776 O 0.37444 0.81553 0.78313 0.0
O777 O 0.33047 0.78191 0.78421 0.0
O778 O 0.3149 0.79209 0.82116 0.0
O779 O 0.33207 0.8295 0.81145 0.0
O780 O 0.35282 0.78336 0.75832 0.0
O781 O 0.36649 0.85138 0.79236 0.0
O782 O 0.25889 0.77824 0.77905 0.0
O783 O 0.30388 0.81355 0.77279 0.0
O784 O 0.32086 0.80245 0.735 0.0
O785 O 0.30173 0.76588 0.74498 0.0
O786 O 0.2812 0.81156 0.79824 0.0
O787 O 0.26914 0.74589 0.75996 0.0
C788 C 0.34226 0.76894 0.77151 0.0
C789 C 0.40307 0.85029 0.78296 0.0
C790 C 0.44239 0.85139 0.78076 0.0
C791 C 0.42226 0.84308 0.79031 0.0
C792 C 0.44309 0.86762 0.76406 0.0
C793 C 0.40404 0.86643 0.76622 0.0
C794 C 0.42403 0.87512 0.75694 0.0
C795 C 0.32554 0.81572 0.82785 0.0
C796 C 0.38209 0.83925 0.79179 0.0
C797 C 0.34905 0.87682 0.69842 0.0
C798 C 0.34086 0.89309 0.71599 0.0
C799 C 0.29175 0.82624 0.78536 0.0
C800 C 0.23215 0.74044 0.77015 0.0
C801 C 0.21209 0.74321 0.75956 0.0
C802 C 0.19182 0.73017 0.76542 0.0
C803 C 0.19182 0.71416 0.78221 0.0
C804 C 0.23209 0.72422 0.78669 0.0
C805 C 0.21193 0.7111 0.79264 0.0
C806 C 0.30922 0.7792 0.72853 0.0
C807 C 0.25262 0.75617 0.76475 0.0
H808 H 0.42139 0.83084 0.80347 0.0
H809 H 0.45823 0.8742 0.75615 0.0
H810 H 0.38939 0.87212 0.76015 0.0
H811 H 0.42468 0.88747 0.74394 0.0
H812 H 0.21229 0.7562 0.7472 0.0
H813 H 0.17636 0.70394 0.78706 0.0
H814 H 0.24748 0.72192 0.79514 0.0
H815 H 0.21189 0.69868 0.8055 0.0
Eu816 Eu 0.57398 0.03571 0.0553 0.0
C817 C 0.51307 0.06758 0.9765 0.0
C818 C 0.48504 0.02992 0.95855 0.0
C819 C 0.47664 0.0705 0.96032 0.0
C820 C 0.50656 0.04183 0.97024 0.0
C821 C 0.49838 0.08224 0.97108 0.0
C822 C 0.46997 0.04439 0.95412 0.0
C823 C 0.52832 0.1189 0.98537 0.0
N824 N 0.53421 0.07832 0.98672 0.0
C825 C 0.54227 0.10355 0.99039 0.0
C826 C 0.50619 0.10823 0.97597 0.0
Eu827 Eu 0.55683 0.05129 0.99477 0.0
N828 N 0.52162 0.02844 0.97446 0.0
C829 C 0.51673 1.00318 0.96588 0.0
C830 C 0.47951 1.00389 0.95105 0.0
C831 C 0.49553 0.9905 0.95445 0.0
H832 H 0.55935 0.11183 0.99775 0.0
H833 H 0.49157 0.9704 0.94828 0.0
H834 H 0.4533 0.03557 0.94533 0.0
H835 H 0.53463 0.13893 0.98879 0.0
H836 H 0.52895 0.99259 0.96838 0.0
H837 H 0.63113 0.12257 0.10498 0.0
H838 H 0.46312 0.99403 0.9421 0.0
H839 H 0.57858 0.97739 0.05345 0.0
H840 H 0.59576 0.0962 0.08363 0.0
H841 H 0.6072 0.95487 0.06278 0.0
H842 H 0.46504 0.08144 0.9562 0.0
H843 H 0.66334 0.10421 0.11067 0.0
H844 H 0.67868 0.06597 0.10622 0.0
H845 H 0.49543 0.12015 0.97203 0.0
H846 H 0.67219 0.02022 0.09474 0.0
N847 N 0.60748 0.06281 0.07661 0.0
C848 C 0.60944 0.08766 0.08592 0.0
C849 C 0.64774 0.09241 0.10126 0.0
C850 C 0.64531 0.06674 0.09293 0.0
C851 C 0.62959 0.10282 0.09814 0.0
C852 C 0.62465 0.05222 0.08073 0.0
H853 H 0.64544 0.9786 0.07912 0.0
N854 N 0.6006 0.01323 0.06392 0.0
C855 C 0.61139 0.97505 0.06589 0.0
C856 C 0.62111 0.02659 0.0741 0.0
C857 C 0.59524 0.9878 0.06069 0.0
C858 C 0.63297 0.9885 0.07502 0.0
C859 C 0.63797 0.01462 0.07967 0.0
O860 O 0.55895 0.01255 0.08037 0.0
O861 O 0.54691 0.03219 0.02578 0.0
O862 O 0.54047 0.07232 0.02392 0.0
O863 O 0.56244 0.07229 0.06012 0.0
O864 O 0.54656 1.00089 0.04037 0.0
O865 O 0.56245 0.05261 0.08944 0.0
O866 O 0.5779 0.07165 0.97156 0.0
O867 O 0.58351 0.05405 0.02426 0.0
O868 O 0.58932 0.0142 0.02477 0.0
O869 O 0.56575 0.01359 0.98972 0.0
O870 O 0.5859 0.0851 0.00919 0.0
O871 O 0.56157 0.03265 0.95769 0.0
C872 C 0.53606 1.01031 0.02506 0.0
C873 C 0.56474 0.03264 0.12288 0.0
C874 C 0.55861 0.04157 0.16669 0.0
C875 C 0.55107 0.03817 0.14133 0.0
C876 C 0.58005 0.0387 0.17315 0.0
C877 C 0.58601 0.02979 0.1296 0.0
C878 C 0.59356 0.03269 0.15467 0.0
C879 C 0.54741 0.08054 0.04786 0.0
C880 C 0.55692 0.03165 0.09694 0.0
C881 C 0.65894 0.02905 0.09059 0.0
C882 C 0.66262 0.05509 0.09716 0.0
C883 C 0.59543 0.07531 0.02496 0.0
C884 C 0.56923 0.05805 0.92824 0.0
C885 C 0.58569 0.05872 0.91203 0.0
C886 C 0.58188 0.06375 0.88828 0.0
C887 C 0.56123 0.06812 0.88097 0.0
C888 C 0.54873 0.0625 0.92082 0.0
C889 C 0.54479 0.06754 0.89723 0.0
C890 C 0.5819 1.00619 1.00084 0.0
C891 C 0.57401 0.05271 0.95277 0.0
H892 H 0.53452 0.03988 0.13577 0.0
H893 H 0.58659 0.04152 0.19245 0.0
H894 H 0.59682 0.02559 0.11559 0.0
H895 H 0.61005 0.03064 0.15981 0.0
H896 H 0.60136 0.05487 0.91781 0.0
H897 H 0.55787 0.07217 0.86282 0.0
H898 H 0.53584 0.06201 0.93315 0.0
H899 H 0.52896 0.07099 0.89153 0.0
Eu900 Eu 0.33828 0.32456 0.2894 0.0
C901 C 0.23563 0.26857 0.26005 0.0
C902 C 0.2233 0.25929 0.29868 0.0
C903 C 0.19615 0.25866 0.26482 0.0
C904 C 0.24059 0.26506 0.28362 0.0
C905 C 0.21336 0.26591 0.25053 0.0
C906 C 0.20111 0.25533 0.28888 0.0
C907 C 0.22668 0.27949 0.21412 0.0
N908 N 0.25268 0.27655 0.24716 0.0
C909 C 0.24838 0.28184 0.22432 0.0
C910 C 0.20904 0.27132 0.22721 0.0
Eu911 Eu 0.28899 0.27446 0.26204 0.0
N912 N 0.26233 0.27019 0.29275 0.0
C913 C 0.26728 0.27299 0.31802 0.0
C914 C 0.22876 0.25923 0.32361 0.0
C915 C 0.25085 0.2668 0.33347 0.0
H916 H 0.26154 0.28734 0.2134 0.0
H917 H 0.25526 0.26876 0.35322 0.0
H918 H 0.18772 0.25075 0.30015 0.0
H919 H 0.22359 0.28372 0.196 0.0
H920 H 0.28356 0.28155 0.32724 0.0
H921 H 0.40778 0.30978 0.23732 0.0
H922 H 0.21601 0.25504 0.33576 0.0
H923 H 0.34071 0.34632 0.3515 0.0
H924 H 0.37069 0.31722 0.24323 0.0
H925 H 0.36486 0.34909 0.38956 0.0
H926 H 0.17899 0.25638 0.25775 0.0
H927 H 0.43143 0.30447 0.2728 0.0
H928 H 0.43754 0.30586 0.31853 0.0
H929 H 0.19222 0.26955 0.2193 0.0
H930 H 0.42574 0.31657 0.36021 0.0
N931 N 0.37286 0.31536 0.28157 0.0
C932 C 0.38066 0.31464 0.25884 0.0
C933 C 0.41506 0.30758 0.2755 0.0
C934 C 0.40757 0.30999 0.29909 0.0
C935 C 0.40179 0.31063 0.25545 0.0
C936 C 0.38627 0.31449 0.30171 0.0
H937 H 0.39902 0.33344 0.38688 0.0
N938 N 0.36021 0.32782 0.32729 0.0
C939 C 0.3691 0.34081 0.37163 0.0
C940 C 0.37976 0.32089 0.32526 0.0
C941 C 0.35534 0.33903 0.34994 0.0
C942 C 0.38833 0.33188 0.37004 0.0
C943 C 0.3942 0.32241 0.34665 0.0
O944 O 0.33195 0.36148 0.28986 0.0
O945 O 0.30159 0.31383 0.28082 0.0
O946 O 0.29456 0.3069 0.24161 0.0
O947 O 0.33276 0.32003 0.24737 0.0
O948 O 0.31375 0.33563 0.31595 0.0
O949 O 0.36509 0.3565 0.28748 0.0
O950 O 0.2892 0.26182 0.22213 0.0
O951 O 0.32562 0.28872 0.26204 0.0
O952 O 0.33345 0.29657 0.31511 0.0
O953 O 0.30274 0.26356 0.29664 0.0
O954 O 0.31477 0.25168 0.26424 0.0
O955 O 0.27299 0.23598 0.24347 0.0
C956 C 0.29617 0.32455 0.30086 0.0
C957 C 0.36071 0.39508 0.31015 0.0
C958 C 0.35681 0.43674 0.32798 0.0
C959 C 0.35181 0.41557 0.30865 0.0
C960 C 0.37116 0.43755 0.34898 0.0
C961 C 0.37552 0.39612 0.33094 0.0
C962 C 0.38074 0.41736 0.35023 0.0
C963 C 0.31355 0.31751 0.23423 0.0
C964 C 0.3527 0.37242 0.29067 0.0
C965 C 0.41458 0.31581 0.34399 0.0
C966 C 0.42128 0.30968 0.32025 0.0
C967 C 0.33186 0.26885 0.2625 0.0
C968 C 0.29239 0.22074 0.21021 0.0
C969 C 0.30171 0.20637 0.22424 0.0
C970 C 0.31756 0.19381 0.2149 0.0
C971 C 0.32299 0.19429 0.19057 0.0
C972 C 0.29769 0.22076 0.18578 0.0
C973 C 0.31276 0.20736 0.17595 0.0
C974 C 0.31949 0.27469 0.31438 0.0
C975 C 0.28011 0.23866 0.22207 0.0
H976 H 0.34011 0.4146 0.29278 0.0
H977 H 0.3749 0.45366 0.36424 0.0
H978 H 0.38272 0.3805 0.33249 0.0
H979 H 0.39192 0.418 0.36636 0.0
H980 H 0.29785 0.20634 0.24317 0.0
H981 H 0.33517 0.18467 0.18295 0.0
H982 H 0.2908 0.23189 0.17467 0.0
H983 H 0.31703 0.20775 0.15723 0.0
Eu984 Eu 0.56039 0.57509 0.0452 0.0
C985 C 0.58958 0.50497 0.95778 0.0
C986 C 0.55912 0.49515 0.92511 0.0
C987 C 0.5963 0.4942 0.91443 0.0
C988 C 0.56739 0.50241 0.95056 0.0
C989 C 0.60425 0.50044 0.93983 0.0
C990 C 0.57377 0.49157 0.90708 0.0
C991 C 0.63315 0.50676 0.97347 0.0
N992 N 0.59666 0.51081 0.98245 0.0
C993 C 0.61798 0.51106 0.99054 0.0
C994 C 0.62633 0.5017 0.94798 0.0
Eu995 Eu 0.57023 0.51848 0.01035 0.0
N996 N 0.55367 0.50575 0.96847 0.0
C997 C 0.53124 0.5003 0.96225 0.0
C998 C 0.53629 0.49099 0.9186 0.0
C999 C 0.52226 0.49323 0.93729 0.0
H1000 H 0.62348 0.51506 0.01018 0.0
H1001 H 0.50453 0.48956 0.9325 0.0
H1002 H 0.56776 0.48619 0.88745 0.0
H1003 H 0.65011 0.50741 0.97998 0.0
H1004 H 0.52011 0.50189 0.97641 0.0
H1005 H 0.62499 0.60316 0.12409 0.0
H1006 H 0.5293 0.48544 0.89927 0.0
H1007 H 0.50736 0.5798 0.04442 0.0
H1008 H 0.61 0.59132 0.07991 0.0
H1009 H 0.48041 0.58771 0.0741 0.0
H1010 H 0.60734 0.49083 0.90036 0.0
H1011 H 0.59968 0.60685 0.15681 0.0
H1012 H 0.56101 0.60615 0.16792 0.0
H1013 H 0.6381 0.49833 0.93479 0.0
H1014 H 0.52168 0.60216 0.15431 0.0
N1015 N 0.57631 0.58722 0.0873 0.0
C1016 C 0.59867 0.5927 0.0939 0.0
C1017 C 0.59296 0.60149 0.13739 0.0
C1018 C 0.5702 0.59742 0.13047 0.0
C1019 C 0.60729 0.5995 0.11898 0.0
C1020 C 0.5623 0.59041 0.10492 0.0
H1021 H 0.49159 0.59577 0.1194 0.0
N1022 N 0.53353 0.58276 0.07253 0.0
C1023 C 0.49715 0.58776 0.08089 0.0
C1024 C 0.54022 0.58818 0.0973 0.0
C1025 C 0.51251 0.58327 0.0641 0.0
C1026 C 0.5035 0.59224 0.10644 0.0
C1027 C 0.52535 0.59285 0.11496 0.0
O1028 O 0.54983 0.60505 0.03118 0.0
O1029 O 0.55886 0.55308 1.00565 0.0
O1030 O 0.59523 0.54968 1.00003 0.0
O1031 O 0.59599 0.57913 0.03596 0.0
O1032 O 0.53198 0.56743 0.01434 0.0
O1033 O 0.58247 0.61218 0.05129 0.0
O1034 O 0.58168 0.48808 0.02268 0.0
O1035 O 0.5719 0.54056 0.04979 0.0
O1036 O 0.53505 0.54424 0.05534 0.0
O1037 O 0.53463 0.51457 0.01965 0.0
O1038 O 0.59877 0.52626 0.04108 0.0
O1039 O 0.54755 0.48218 0.00704 0.0
C1040 C 0.54023 0.55554 0.99628 0.0
C1041 C 0.56643 0.64664 0.05076 0.0
C1042 C 0.56827 0.68885 0.04471 0.0
C1043 C 0.56971 0.66423 0.03568 0.0
C1044 C 0.56362 0.69575 0.06939 0.0
C1045 C 0.56155 0.65349 0.07525 0.0
C1046 C 0.56017 0.67807 0.08451 0.0
C1047 C 0.60445 0.57111 0.01537 0.0
C1048 C 0.56824 0.62142 0.03993 0.0
C1049 C 0.53289 0.59872 0.14046 0.0
C1050 C 0.55528 0.60098 0.14821 0.0
C1051 C 0.59053 0.53812 0.05916 0.0
C1052 C 0.56185 0.44632 0.00675 0.0
C1053 C 0.56123 0.43049 0.02363 0.0
C1054 C 0.55925 0.40483 0.01532 0.0
C1055 C 0.55801 0.39511 0.98964 0.0
C1056 C 0.56089 0.43662 0.98119 0.0
C1057 C 0.55903 0.41103 0.97271 0.0
C1058 C 0.52589 0.52285 0.03995 0.0
C1059 C 0.56238 0.47253 0.01677 0.0
H1060 H 0.57382 0.65875 0.01687 0.0
H1061 H 0.56246 0.71467 0.07686 0.0
H1062 H 0.5589 0.63998 0.08711 0.0
H1063 H 0.55646 0.68343 0.10345 0.0
H1064 H 0.56162 0.43812 0.04335 0.0
H1065 H 0.55642 0.37534 0.98274 0.0
H1066 H 0.56134 0.4487 0.96792 0.0
H1067 H 0.55818 0.40347 0.95297 0.0
Eu1068 Eu 0.83967 0.31741 0.27144 0.0
C1069 C 0.78295 0.23527 0.30809 0.0
C1070 C 0.79708 0.20032 0.2884 0.0
C1071 C 0.78263 0.20033 0.32844 0.0
C1072 C 0.79283 0.22405 0.28869 0.0
C1073 C 0.77694 0.22309 0.3277 0.0
C1074 C 0.79271 0.18897 0.30881 0.0
C1075 C 0.75699 0.2546 0.34204 0.0
N1076 N 0.77717 0.25692 0.30647 0.0
C1077 C 0.76312 0.26577 0.32206 0.0
C1078 C 0.76434 0.23345 0.34519 0.0
Eu1079 Eu 0.78867 0.27521 0.27258 0.0
N1080 N 0.79629 0.23523 0.269 0.0
C1081 C 0.80216 0.22281 0.24757 0.0
C1082 C 0.80449 0.18816 0.26707 0.0
C1083 C 0.80649 0.19919 0.24633 0.0
H1084 H 0.75721 0.28194 0.3194 0.0
H1085 H 0.81161 0.18964 0.22948 0.0
H1086 H 0.79617 0.17091 0.30909 0.0
H1087 H 0.74649 0.26219 0.35487 0.0
H1088 H 0.80386 0.23126 0.23153 0.0
H1089 H 0.88054 0.39064 0.35184 0.0
H1090 H 0.80791 0.1699 0.26608 0.0
H1091 H 0.81707 0.32441 0.2166 0.0
H1092 H 0.87162 0.3485 0.3248 0.0
H1093 H 0.80573 0.35711 0.19841 0.0
H1094 H 0.77844 0.19085 0.34353 0.0
H1095 H 0.86509 0.42412 0.33934 0.0
H1096 H 0.84376 0.43834 0.30688 0.0
H1097 H 0.75935 0.22464 0.36051 0.0
H1098 H 0.82398 0.42941 0.26484 0.0
N1099 N 0.84995 0.35755 0.29829 0.0
C1100 C 0.86451 0.36293 0.31941 0.0
C1101 C 0.86089 0.40559 0.32759 0.0
C1102 C 0.84774 0.4006 0.30479 0.0
C1103 C 0.86967 0.38676 0.3347 0.0
C1104 C 0.84271 0.37613 0.29019 0.0
H1105 H 0.81051 0.39953 0.22404 0.0
N1106 N 0.82786 0.34765 0.25246 0.0
C1107 C 0.81284 0.36128 0.21763 0.0
C1108 C 0.83164 0.37113 0.26647 0.0
C1109 C 0.81916 0.34267 0.22811 0.0
C1110 C 0.81558 0.38519 0.23215 0.0
C1111 C 0.82523 0.39045 0.25681 0.0
O1112 O 0.86059 0.32506 0.24182 0.0
O1113 O 0.82516 0.27606 0.26861 0.0
O1114 O 0.8035 0.28843 0.31271 0.0
O1115 O 0.83132 0.32325 0.31121 0.0
O1116 O 0.85297 0.29212 0.29368 0.0
O1117 O 0.87577 0.32447 0.2786 0.0
O1118 O 0.75429 0.27846 0.26773 0.0
O1119 O 0.8025 0.3141 0.26549 0.0
O1120 O 0.83189 0.29075 0.23419 0.0
O1121 O 0.79417 0.27464 0.2322 0.0
O1122 O 0.77933 0.31104 0.2908 0.0
O1123 O 0.76371 0.24686 0.24642 0.0
C1124 C 0.83945 0.27101 0.28371 0.0
C1125 C 0.90092 0.33285 0.24745 0.0
C1126 C 0.94018 0.33246 0.25252 0.0
C1127 C 0.91919 0.32918 0.26134 0.0
C1128 C 0.94275 0.34027 0.2298 0.0
C1129 C 0.90382 0.34059 0.22482 0.0
C1130 C 0.92468 0.34443 0.21617 0.0
C1131 C 0.81838 0.30891 0.32343 0.0
C1132 C 0.87874 0.3273 0.25603 0.0
C1133 C 0.82909 0.41446 0.27182 0.0
C1134 C 0.84029 0.41953 0.29578 0.0
C1135 C 0.79109 0.32659 0.2795 0.0
C1136 C 0.72779 0.24036 0.25972 0.0
C1137 C 0.70708 0.24616 0.25685 0.0
C1138 C 0.68824 0.23191 0.26471 0.0
C1139 C 0.69055 0.21164 0.27552 0.0
C1140 C 0.72964 0.21981 0.27015 0.0
C1141 C 0.71111 0.20563 0.27808 0.0
C1142 C 0.81271 0.2785 0.22169 0.0
C1143 C 0.74736 0.25677 0.25295 0.0
H1144 H 0.91698 0.32351 0.27896 0.0
H1145 H 0.95858 0.34269 0.22227 0.0
H1146 H 0.88996 0.3435 0.21374 0.0
H1147 H 0.9268 0.35029 0.19865 0.0
H1148 H 0.70572 0.26175 0.24831 0.0
H1149 H 0.67655 0.20054 0.28221 0.0
H1150 H 0.74538 0.21482 0.27235 0.0
H1151 H 0.7127 0.18998 0.28637 0.0
Eu1152 Eu 0.07175 0.53196 0.5515 0.0
C1153 C 0.01234 0.57503 0.48286 0.0
C1154 C 0.98289 0.53939 0.46307 0.0
C1155 C 0.97588 0.58097 0.47083 0.0
C1156 C 1.00491 0.54959 0.47407 0.0
C1157 C 0.99808 0.5911 0.48083 0.0
C1158 C 0.96829 0.55516 0.462 0.0
C1159 C 0.02921 0.62607 0.49684 0.0
N1160 N 0.03389 0.58419 0.49229 0.0
C1161 C 0.04272 0.60937 0.49839 0.0
C1162 C 1.00672 0.61689 0.48831 0.0
Eu1163 Eu 0.05557 0.55481 0.49509 0.0
N1164 N 0.01949 0.53493 0.47521 0.0
C1165 C 0.01359 0.51018 0.46413 0.0
C1166 C 0.9764 0.51378 0.45288 0.0
C1167 C 0.99192 0.49919 0.45308 0.0
H1168 H 0.06009 0.6165 0.50508 0.0
H1169 H 0.98719 0.47944 0.44484 0.0
H1170 H 0.95126 0.54764 0.45383 0.0
H1171 H 0.03614 0.64598 0.50222 0.0
H1172 H 0.02537 0.49866 0.46429 0.0
H1173 H 0.13731 0.60759 0.60669 0.0
H1174 H 0.95962 0.50521 0.44432 0.0
H1175 H 0.06877 0.47066 0.53949 0.0
H1176 H 0.09998 0.58792 0.58502 0.0
H1177 H 0.09334 0.44181 0.54267 0.0
H1178 H 0.96459 0.59299 0.46933 0.0
H1179 H 0.16561 0.58279 0.60757 0.0
H1180 H 0.17525 0.54109 0.59717 0.0
H1181 H 0.9963 0.62987 0.48705 0.0
H1182 H 0.16328 0.49594 0.57982 0.0
N1183 N 0.10712 0.55241 0.57298 0.0
C1184 C 0.11209 0.57682 0.58521 0.0
C1185 C 0.14922 0.57403 0.59797 0.0
C1186 C 0.1436 0.54866 0.58666 0.0
C1187 C 0.13328 0.58807 0.59756 0.0
C1188 C 0.12206 0.5382 0.57433 0.0
H1189 H 0.13267 0.45869 0.55985 0.0
N1190 N 0.09416 0.5033 0.55411 0.0
C1191 C 0.09978 0.46176 0.54878 0.0
C1192 C 0.11538 0.51285 0.56453 0.0
C1193 C 0.08592 0.47807 0.54705 0.0
C1194 C 0.12199 0.47137 0.55842 0.0
C1195 C 0.12997 0.49717 0.56682 0.0
O1196 O 0.05526 0.50792 0.575 0.0
O1197 O 0.04502 0.53317 0.5238 0.0
O1198 O 0.04142 0.57447 0.5271 0.0
O1199 O 0.06378 0.57053 0.56133 0.0
O1200 O 0.04121 0.50034 0.53577 0.0
O1201 O 0.0641 0.54823 0.58811 0.0
O1202 O 0.07678 0.57702 0.47353 0.0
O1203 O 0.08251 0.55351 0.52278 0.0
O1204 O 0.08689 0.51356 0.51897 0.0
O1205 O 0.0627 0.51613 0.48591 0.0
O1206 O 0.08526 0.58694 0.5116 0.0
O1207 O 0.05855 0.53939 0.45625 0.0
C1208 C 0.032 0.51224 0.52189 0.0
C1209 C 0.06446 0.52392 0.61831 0.0
C1210 C 0.061 0.53061 0.66283 0.0
C1211 C 0.05303 0.53107 0.63847 0.0
C1212 C 0.08054 0.52238 0.66658 0.0
C1213 C 0.08389 0.51572 0.62229 0.0
C1214 C 0.09183 0.5149 0.64637 0.0
C1215 C 0.04892 0.58051 0.55098 0.0
C1216 C 0.05634 0.52658 0.59362 0.0
C1217 C 0.15176 0.50764 0.57808 0.0
C1218 C 0.15857 0.53335 0.58797 0.0
C1219 C 0.09461 0.57509 0.52543 0.0
C1220 C 0.06615 0.56871 0.4305 0.0
C1221 C 0.07927 0.56543 0.41103 0.0
C1222 C 0.07596 0.57518 0.38981 0.0
C1223 C 0.0592 0.58816 0.38811 0.0
C1224 C 0.04915 0.58132 0.42854 0.0
C1225 C 0.0457 0.59096 0.40735 0.0
C1226 C 0.07862 0.50708 0.49527 0.0
C1227 C 0.07145 0.56 0.45308 0.0
H1228 H 0.03783 0.53696 0.63504 0.0
H1229 H 0.08728 0.52202 0.6851 0.0
H1230 H 0.09294 0.51012 0.60692 0.0
H1231 H 0.10689 0.50868 0.64941 0.0
H1232 H 0.09257 0.55594 0.41273 0.0
H1233 H 0.0565 0.59594 0.3719 0.0
H1234 H 0.03882 0.58399 0.4434 0.0
H1235 H 0.03269 0.60085 0.40596 0.0
Eu1236 Eu 0.78681 0.8057 0.27139 0.0
C1237 C 0.85762 0.76519 0.32903 0.0
C1238 C 0.87097 0.79716 0.36623 0.0
C1239 C 0.87088 0.75398 0.36688 0.0
C1240 C 0.86157 0.7898 0.34115 0.0
C1241 C 0.86288 0.74707 0.34149 0.0
C1242 C 0.8749 0.779 0.37925 0.0
C1243 C 0.85466 0.7175 0.30215 0.0
N1244 N 0.8504 0.75935 0.30444 0.0
C1245 C 0.84974 0.73616 0.29065 0.0
C1246 C 0.86088 0.72285 0.32779 0.0
Eu1247 Eu 0.84151 0.79138 0.28594 0.0
N1248 N 0.85803 0.80684 0.3278 0.0
C1249 C 0.86558 0.83176 0.33778 0.0
C1250 C 0.87709 0.82262 0.37709 0.0
C1251 C 0.87481 0.84 0.36262 0.0
H1252 H 0.84477 0.73188 0.27084 0.0
H1253 H 0.88008 0.85978 0.3706 0.0
H1254 H 0.88184 0.78426 0.3986 0.0
H1255 H 0.85358 0.699 0.29126 0.0
H1256 H 0.86394 0.84553 0.32702 0.0
H1257 H 0.74711 0.73796 0.18682 0.0
H1258 H 0.88431 0.82905 0.39629 0.0
H1259 H 0.78404 0.86537 0.28689 0.0
H1260 H 0.76346 0.7519 0.23039 0.0
H1261 H 0.77571 0.8986 0.26666 0.0
H1262 H 0.87476 0.74028 0.37687 0.0
H1263 H 0.74356 0.76896 0.16121 0.0
H1264 H 0.74688 0.81391 0.15901 0.0
H1265 H 0.8648 0.70841 0.33666 0.0
H1266 H 0.75457 0.85789 0.18089 0.0
N1267 N 0.77016 0.79061 0.22959 0.0
C1268 C 0.76212 0.76576 0.21962 0.0
C1269 C 0.75088 0.77524 0.18039 0.0
C1270 C 0.75748 0.80068 0.19128 0.0
C1271 C 0.75277 0.7577 0.19481 0.0
C1272 C 0.76697 0.80784 0.21632 0.0
H1273 H 0.76473 0.88956 0.22123 0.0
N1274 N 0.77847 0.83813 0.25313 0.0
C1275 C 0.77454 0.88012 0.25566 0.0
C1276 C 0.77129 0.83247 0.22852 0.0
C1277 C 0.7792 0.86127 0.26705 0.0
C1278 C 0.76846 0.87498 0.23 0.0
C1279 C 0.76628 0.85077 0.21618 0.0
O1280 O 0.76358 0.81865 0.29622 0.0
O1281 O 0.81178 0.80236 0.30081 0.0
O1282 O 0.81483 0.75839 0.29292 0.0
O1283 O 0.78314 0.76372 0.2713 0.0
O1284 O 0.79751 0.83283 0.30818 0.0
O1285 O 0.75489 0.78116 0.27438 0.0
O1286 O 0.86494 0.77823 0.26149 0.0
O1287 O 0.81637 0.79429 0.25648 0.0
O1288 O 0.81354 0.83851 0.26411 0.0
O1289 O 0.8451 0.83331 0.28604 0.0
O1290 O 0.83088 0.76396 0.2494 0.0
O1291 O 0.87286 0.8163 0.2819 0.0
C1292 C 0.81111 0.8214 0.31688 0.0
C1293 C 0.72545 0.80056 0.28405 0.0
C1294 C 0.68728 0.79742 0.29476 0.0
C1295 C 0.70921 0.79518 0.30032 0.0
C1296 C 0.68214 0.80537 0.27275 0.0
C1297 C 0.71973 0.80826 0.26224 0.0
C1298 C 0.69822 0.81068 0.25668 0.0
C1299 C 0.79387 0.74994 0.2826 0.0
C1300 C 0.74826 0.79802 0.28981 0.0
C1301 C 0.75826 0.84405 0.19079 0.0
C1302 C 0.75388 0.81902 0.17834 0.0
C1303 C 0.81711 0.77511 0.2406 0.0
C1304 C 0.90293 0.79783 0.27275 0.0
C1305 C 0.91823 0.80091 0.25504 0.0
C1306 C 0.94055 0.79996 0.26054 0.0
C1307 C 0.94708 0.79598 0.28417 0.0
C1308 C 0.90992 0.79367 0.29597 0.0
C1309 C 0.93187 0.79278 0.30161 0.0
C1310 C 0.83447 0.84701 0.27453 0.0
C1311 C 0.87979 0.79927 0.26703 0.0
H1312 H 0.71361 0.78896 0.31705 0.0
H1313 H 0.66572 0.80787 0.26804 0.0
H1314 H 0.7319 0.81241 0.2495 0.0
H1315 H 0.694 0.81679 0.23985 0.0
H1316 H 0.91265 0.80379 0.237 0.0
H1317 H 0.96408 0.79573 0.28945 0.0
H1318 H 0.89843 0.79128 0.30979 0.0
H1319 H 0.93719 0.78976 0.31967 0.0
Eu1320 Eu 0.8258 0.27378 0.74128 0.0
C1321 C 0.77954 0.35094 0.80037 0.0
C1322 C 0.80734 0.39006 0.8099 0.0
C1323 C 0.76827 0.39035 0.80564 0.0
C1324 C 0.80161 0.36371 0.80435 0.0
C1325 C 0.76263 0.36418 0.80169 0.0
C1326 C 0.79059 0.40327 0.80973 0.0
C1327 C 0.73591 0.32501 0.79811 0.0
N1328 N 0.7746 0.32565 0.79695 0.0
C1329 C 0.75322 0.31271 0.79699 0.0
C1330 C 0.74059 0.35081 0.80004 0.0
Eu1331 Eu 0.80507 0.30644 0.79585 0.0
N1332 N 0.81741 0.35046 0.80484 0.0
C1333 C 0.83898 0.36237 0.813 0.0
C1334 C 0.82964 0.40237 0.81662 0.0
C1335 C 0.84546 0.38844 0.8187 0.0
H1336 H 0.74932 0.29283 0.79589 0.0
H1337 H 0.86268 0.39777 0.82457 0.0
H1338 H 0.7947 0.4235 0.81365 0.0
H1339 H 0.71898 0.31459 0.79758 0.0
H1340 H 0.85136 0.35183 0.81484 0.0
H1341 H 0.74393 0.21943 0.69002 0.0
H1342 H 0.83472 0.42258 0.82104 0.0
H1343 H 0.86882 0.25047 0.75587 0.0
H1344 H 0.7678 0.25295 0.7199 0.0
H1345 H 0.88172 0.21195 0.74578 0.0
H1346 H 0.75551 0.40081 0.80643 0.0
H1347 H 0.75703 0.1822 0.67223 0.0
H1348 H 0.78633 0.15842 0.67247 0.0
H1349 H 0.72715 0.36031 0.80105 0.0
H1350 H 0.82311 0.15562 0.68892 0.0
N1351 N 0.79734 0.23897 0.71648 0.0
C1352 C 0.7754 0.23884 0.71082 0.0
C1353 C 0.7684 0.19786 0.68455 0.0
C1354 C 0.78984 0.19659 0.69216 0.0
C1355 C 0.76102 0.21889 0.69438 0.0
C1356 C 0.80406 0.21756 0.70835 0.0
H1357 H 0.85831 0.17507 0.71672 0.0
N1358 N 0.8373 0.23551 0.73441 0.0
C1359 C 0.8655 0.21261 0.73795 0.0
C1360 C 0.82455 0.21573 0.71785 0.0
C1361 C 0.85785 0.23438 0.74396 0.0
C1362 C 0.85232 0.19193 0.72145 0.0
C1363 C 0.83164 0.1933 0.71109 0.0
O1364 O 0.86154 0.28843 0.74418 0.0
O1365 O 0.82957 0.31014 0.76816 0.0
O1366 O 0.78312 0.30906 0.76184 0.0
O1367 O 0.79581 0.2872 0.72663 0.0
O1368 O 0.82631 0.31051 0.7301 0.0
O1369 O 0.8431 0.27317 0.70782 0.0
O1370 O 0.79758 0.28418 0.82422 0.0
O1371 O 0.80848 0.27005 0.77423 0.0
O1372 O 0.84136 0.26842 0.77848 0.0
O1373 O 0.84163 0.30648 0.80299 0.0
O1374 O 0.7775 0.27083 0.78586 0.0
O1375 O 0.81237 0.32345 0.83553 0.0
C1376 C 0.82965 0.32396 0.75242 0.0
C1377 C 0.8744 0.30747 0.71185 0.0
C1378 C 0.8752 0.34141 0.68971 0.0
C1379 C 0.86379 0.31929 0.69604 0.0
C1380 C 0.89751 0.35157 0.69939 0.0
C1381 C 0.8967 0.31781 0.7212 0.0
C1382 C 0.90816 0.33976 0.71499 0.0
C1383 C 0.78183 0.30005 0.73743 0.0
C1384 C 0.86217 0.28544 0.72024 0.0
C1385 C 0.81789 0.1729 0.69436 0.0
C1386 C 0.79703 0.17454 0.6849 0.0
C1387 C 0.78927 0.25712 0.77413 0.0
C1388 C 0.78682 0.30513 0.8608 0.0
C1389 C 0.78067 0.28543 0.87306 0.0
C1390 C 0.76554 0.28634 0.89082 0.0
C1391 C 0.75649 0.30729 0.89643 0.0
C1392 C 0.77732 0.32584 0.86606 0.0
C1393 C 0.76223 0.32686 0.88384 0.0
C1394 C 0.84995 0.28653 0.79812 0.0
C1395 C 0.80305 0.30326 0.84265 0.0
H1396 H 0.84647 0.31162 0.68912 0.0
H1397 H 0.90684 0.36841 0.6946 0.0
H1398 H 0.90514 0.30907 0.73359 0.0
H1399 H 0.92533 0.34767 0.72233 0.0
H1400 H 0.78807 0.26948 0.86913 0.0
H1401 H 0.74501 0.30842 0.91038 0.0
H1402 H 0.78159 0.34121 0.85658 0.0
H1403 H 0.75508 0.34291 0.888 0.0
Eu1404 Eu 0.84224 0.82572 0.79303 0.0
C1405 C 0.74631 0.79139 0.7747 0.0
C1406 C 0.72937 0.76997 0.80558 0.0
C1407 C 0.71069 0.79731 0.78772 0.0
C1408 C 0.74698 0.77535 0.79087 0.0
C1409 C 0.72792 0.80227 0.77279 0.0
C1410 C 0.7115 0.78136 0.80422 0.0
C1411 C 0.7443 0.82168 0.74081 0.0
N1412 N 0.76326 0.79596 0.76045 0.0
C1413 C 0.76202 0.81036 0.7431 0.0
C1414 C 0.72724 0.81777 0.75581 0.0
Eu1415 Eu 0.7923 0.77459 0.76483 0.0
N1416 N 0.76417 0.76402 0.79136 0.0
C1417 C 0.76321 0.74507 0.80407 0.0
C1418 C 0.72974 0.75253 0.82056 0.0
C1419 C 0.74654 0.73968 0.81943 0.0
H1420 H 0.7742 0.81315 0.73037 0.0
H1421 H 0.74636 0.72513 0.82989 0.0
H1422 H 0.69796 0.77754 0.81548 0.0
H1423 H 0.74372 0.83322 0.72719 0.0
H1424 H 0.77497 0.73343 0.80207 0.0
H1425 H 0.88825 0.88564 0.73632 0.0
H1426 H 0.7166 0.74801 0.83215 0.0
H1427 H 0.86223 0.78624 0.82463 0.0
H1428 H 0.85868 0.87188 0.76177 0.0
H1429 H 0.89403 0.76806 0.82686 0.0
H1430 H 0.69659 0.80563 0.78653 0.0
H1431 H 0.91933 0.86474 0.73205 0.0
H1432 H 0.9389 0.83397 0.74506 0.0
H1433 H 0.71348 0.82651 0.75391 0.0
H1434 H 0.94098 0.80301 0.77072 0.0
N1435 N 0.87129 0.84137 0.76962 0.0
C1436 C 0.87162 0.86181 0.75925 0.0
C1437 C 0.90606 0.85817 0.74276 0.0
C1438 C 0.90683 0.83894 0.75539 0.0
C1439 C 0.88855 0.86998 0.74509 0.0
C1440 C 0.88903 0.83094 0.769 0.0
H1441 H 0.92457 0.77866 0.80133 0.0
N1442 N 0.87289 0.80645 0.79651 0.0
C1443 C 0.89306 0.78057 0.81428 0.0
C1444 C 0.89005 0.81329 0.78318 0.0
C1445 C 0.87462 0.79085 0.81256 0.0
C1446 C 0.91028 0.78666 0.79994 0.0
C1447 C 0.90908 0.80339 0.78436 0.0
O1448 O 0.85036 0.8381 0.83342 0.0
O1449 O 0.80585 0.8108 0.79161 0.0
O1450 O 0.80452 0.79685 0.73604 0.0
O1451 O 0.83099 0.83311 0.75567 0.0
O1452 O 0.81627 0.84854 0.79244 0.0
O1453 O 0.85751 0.86469 0.8097 0.0
O1454 O 0.78237 0.75942 0.725 0.0
O1455 O 0.82855 0.78971 0.76658 0.0
O1456 O 0.83074 0.80114 0.82062 0.0
O1457 O 0.80595 0.76435 0.7992 0.0
O1458 O 0.8186 0.75158 0.76161 0.0
O1459 O 0.77288 0.73645 0.75173 0.0
C1460 C 0.79937 0.83068 0.79302 0.0
C1461 C 0.84399 0.87796 0.84797 0.0
C1462 C 0.8182 0.90525 0.85064 0.0
C1463 C 0.83206 0.89249 0.83707 0.0
C1464 C 0.81699 0.90427 0.87584 0.0
C1465 C 0.84289 0.87742 0.87327 0.0
C1466 C 0.82956 0.89069 0.88715 0.0
C1467 C 0.81771 0.81888 0.73615 0.0
C1468 C 0.85575 0.86163 0.83244 0.0
C1469 C 0.92643 0.81067 0.77023 0.0
C1470 C 0.92523 0.82825 0.7556 0.0
C1471 C 0.8355 0.77011 0.76323 0.0
C1472 C 0.78105 0.71646 0.71287 0.0
C1473 C 0.79377 0.70282 0.72397 0.0
C1474 C 0.8019 0.6841 0.70948 0.0
C1475 C 0.7964 0.67826 0.68355 0.0
C1476 C 0.77585 0.71068 0.68693 0.0
C1477 C 0.78339 0.69151 0.67238 0.0
C1478 C 0.81871 0.77817 0.81918 0.0
C1479 C 0.77375 0.73706 0.72825 0.0
H1480 H 0.83267 0.893 0.81754 0.0
H1481 H 0.80641 0.91401 0.88672 0.0
H1482 H 0.85193 0.86631 0.88211 0.0
H1483 H 0.82864 0.89004 0.9066 0.0
H1484 H 0.79741 0.70669 0.74403 0.0
H1485 H 0.8025 0.66385 0.67196 0.0
H1486 H 0.76606 0.72101 0.67798 0.0
H1487 H 0.77934 0.68712 0.65237 0.0
Eu1488 Eu 0.53757 0.52427 0.50918 0.0
C1489 C 0.59473 0.62254 0.57738 0.0
C1490 C 0.59865 0.65327 0.55146 0.0
C1491 C 0.6 0.66653 0.59631 0.0
C1492 C 0.5951 0.6282 0.55405 0.0
C1493 C 0.59787 0.64171 0.59886 0.0
C1494 C 0.60038 0.6723 0.57263 0.0
C1495 C 0.59952 0.61089 0.62377 0.0
N1496 N 0.59321 0.5985 0.57918 0.0
C1497 C 0.59657 0.5926 0.60193 0.0
C1498 C 0.59978 0.6355 0.62224 0.0
Eu1499 Eu 0.58773 0.56821 0.54149 0.0
N1500 N 0.59374 0.6094 0.53407 0.0
C1501 C 0.59789 0.61471 0.51132 0.0
C1502 C 0.60131 0.65857 0.52784 0.0
C1503 C 0.60132 0.63923 0.50776 0.0
H1504 H 0.59633 0.57359 0.60325 0.0
H1505 H 0.60391 0.64318 0.48951 0.0
H1506 H 0.60283 0.69162 0.57097 0.0
H1507 H 0.60157 0.60599 0.64174 0.0
H1508 H 0.59792 0.60003 0.49557 0.0
H1509 H 0.52062 0.44976 0.56171 0.0
H1510 H 0.60403 0.67756 0.52506 0.0
H1511 H 0.53046 0.51879 0.44729 0.0
H1512 H 0.5272 0.49281 0.55547 0.0
H1513 H 0.5253 0.4862 0.40899 0.0
H1514 H 0.60217 0.68148 0.61257 0.0
H1515 H 0.51981 0.41504 0.52626 0.0
H1516 H 0.52081 0.40063 0.48037 0.0
H1517 H 0.60222 0.64968 0.63918 0.0
H1518 H 0.52209 0.41055 0.4387 0.0
N1519 N 0.53097 0.48313 0.51686 0.0
C1520 C 0.52692 0.47803 0.53972 0.0
C1521 C 0.52277 0.43401 0.52337 0.0
C1522 C 0.52545 0.43912 0.49968 0.0
C1523 C 0.52316 0.45354 0.5434 0.0
C1524 C 0.52934 0.46417 0.49695 0.0
H1525 H 0.52332 0.44232 0.41187 0.0
N1526 N 0.53214 0.49378 0.47164 0.0
C1527 C 0.52674 0.4813 0.42703 0.0
C1528 C 0.53004 0.4697 0.47358 0.0
C1529 C 0.52962 0.4997 0.44877 0.0
C1530 C 0.52571 0.45658 0.42874 0.0
C1531 C 0.52693 0.45042 0.4522 0.0
O1532 O 0.5081 0.53027 0.48984 0.0
O1533 O 0.55453 0.56496 0.52153 0.0
O1534 O 0.56061 0.57251 0.56786 0.0
O1535 O 0.53434 0.53544 0.55165 0.0
O1536 O 0.53892 0.55341 0.48557 0.0
O1537 O 0.50585 0.51786 0.52474 0.0
O1538 O 0.61693 0.56046 0.55967 0.0
O1539 O 0.57078 0.52761 0.52892 0.0
O1540 O 0.56512 0.51935 0.48371 0.0
O1541 O 0.59104 0.5569 0.49896 0.0
O1542 O 0.58647 0.53881 0.56483 0.0
O1543 O 0.61992 0.57704 0.52724 0.0
C1544 C 0.54983 0.57247 0.5019 0.0
C1545 C 0.47343 0.50673 0.49644 0.0
C1546 C 0.43327 0.5006 0.49287 0.0
C1547 C 0.45451 0.51516 0.50255 0.0
C1548 C 0.43118 0.47729 0.47695 0.0
C1549 C 0.47122 0.48332 0.48079 0.0
C1550 C 0.45011 0.46865 0.47112 0.0
C1551 C 0.54249 0.55548 0.56985 0.0
C1552 C 0.49517 0.52322 0.50615 0.0
C1553 C 0.52428 0.42559 0.45489 0.0
C1554 C 0.52355 0.41994 0.4786 0.0
C1555 C 0.5755 0.51987 0.54838 0.0
C1556 C 0.65164 0.58586 0.55637 0.0
C1557 C 0.67059 0.57644 0.55374 0.0
C1558 C 0.69141 0.59069 0.56531 0.0
C1559 C 0.693 0.61465 0.57974 0.0
C1560 C 0.65341 0.60988 0.57055 0.0
C1561 C 0.67406 0.62419 0.58219 0.0
C1562 C 0.58305 0.53638 0.48124 0.0
C1563 C 0.63026 0.56974 0.54475 0.0
H1564 H 0.45638 0.53346 0.51438 0.0
H1565 H 0.41498 0.46575 0.46919 0.0
H1566 H 0.48569 0.47652 0.4759 0.0
H1567 H 0.44842 0.45063 0.45894 0.0
H1568 H 0.66901 0.55767 0.54307 0.0
H1569 H 0.70885 0.62603 0.58886 0.0
H1570 H 0.63891 0.61745 0.57273 0.0
H1571 H 0.67538 0.6427 0.59322 0.0
Eu1572 Eu 0.09085 0.55569 0.01109 0.0
C1573 C 0.02166 0.49796 0.07215 0.0
C1574 C 1.00314 0.45865 0.04492 0.0
C1575 C 1.00675 0.46193 0.08974 0.0
C1576 C 0.01464 0.48389 0.04843 0.0
C1577 C 0.01755 0.48726 0.09312 0.0
C1578 C 0.99957 0.44765 0.06568 0.0
C1579 C 0.03398 0.52774 0.11923 0.0
N1580 N 0.03188 0.52239 0.07474 0.0
C1581 C 0.0376 0.53751 0.09786 0.0
C1582 C 0.02406 0.50245 0.11686 0.0
Eu1583 Eu 0.03797 0.53759 0.03779 0.0
N1584 N 0.0182 0.49515 0.02882 0.0
C1585 C 0.00939 0.48266 1.0053 0.0
C1586 C 0.99513 0.44539 0.02071 0.0
C1587 C 0.99804 0.45756 1.00084 0.0
H1588 H 0.0454 0.55705 0.0999 0.0
H1589 H 0.99159 0.44762 0.98207 0.0
H1590 H 0.9909 0.42825 0.06335 0.0
H1591 H 0.03886 0.53971 0.1375 0.0
H1592 H 0.01148 0.49174 0.98975 0.0
H1593 H 0.13597 0.64468 0.06958 0.0
H1594 H 0.98629 0.42596 0.01721 0.0
H1595 H 0.08482 0.53781 0.94898 0.0
H1596 H 0.11609 0.60038 0.06046 0.0
H1597 H 0.09202 0.55639 0.91212 0.0
H1598 H 1.00355 0.45334 0.10562 0.0
H1599 H 0.14195 0.66752 0.03535 0.0
H1600 H 0.13805 0.66662 0.98942 0.0
H1601 H 0.0212 0.49494 0.13344 0.0
H1602 H 0.12614 0.64262 0.9466 0.0
N1603 N 0.11013 0.59822 0.02149 0.0
C1604 C 0.1185 0.61008 0.04532 0.0
C1605 C 0.13313 0.64806 0.03123 0.0
C1606 C 0.12548 0.63545 0.00671 0.0
C1607 C 0.12983 0.63522 0.05059 0.0
C1608 C 0.11401 0.61015 1.00237 0.0
H1609 H 0.10919 0.60148 0.9176 0.0
N1610 N 0.09719 0.57216 0.97493 0.0
C1611 C 0.0963 0.56798 0.93064 0.0
C1612 C 0.10727 0.59671 0.97834 0.0
C1613 C 0.09228 0.55751 0.95153 0.0
C1614 C 0.10595 0.59344 0.93381 0.0
C1615 C 0.11184 0.60809 0.95787 0.0
O1616 O 0.11214 0.53235 0.99456 0.0
O1617 O 0.06523 0.52435 0.01904 0.0
O1618 O 0.06475 0.52729 0.06041 0.0
O1619 O 0.09476 0.55687 0.05297 0.0
O1620 O 0.07864 0.51714 0.98585 0.0
O1621 O 0.12342 0.55799 0.03002 0.0
O1622 O 0.01573 0.55991 0.05409 0.0
O1623 O 0.06357 0.56908 0.02968 0.0
O1624 O 0.06334 0.56353 0.98685 0.0
O1625 O 0.0342 0.53374 0.99584 0.0
O1626 O 0.05085 0.57596 0.06317 0.0
O1627 O 1.00672 0.53682 0.01696 0.0
C1628 C 0.0651 0.50751 1.00013 0.0
C1629 C 0.15067 0.5474 1.00479 0.0
C1630 C 0.18638 0.53661 1.00122 0.0
C1631 C 0.16534 0.53274 0.00975 0.0
C1632 C 0.19272 0.55563 0.98793 0.0
C1633 C 0.15724 0.56648 0.99174 0.0
C1634 C 0.17826 0.5706 0.98343 0.0
C1635 C 0.08563 0.54003 0.06559 0.0
C1636 C 0.12829 0.54159 0.01242 0.0
C1637 C 0.1226 0.6335 0.96207 0.0
C1638 C 0.12939 0.64716 0.98645 0.0
C1639 C 0.06417 0.58577 0.04884 0.0
C1640 C 0.9776 0.54547 0.03991 0.0
C1641 C 0.96395 0.56158 0.03618 0.0
C1642 C 0.94152 0.55591 0.04046 0.0
C1643 C 0.93294 0.53366 0.04842 0.0
C1644 C 0.96887 0.52343 0.04794 0.0
C1645 C 0.94658 0.51757 0.05214 0.0
C1646 C 0.04297 0.54922 0.98178 0.0
C1647 C 1.00076 0.552 0.03485 0.0
H1648 H 0.1601 0.5178 0.01961 0.0
H1649 H 0.20888 0.55897 0.98117 0.0
H1650 H 0.14609 0.57793 0.98776 0.0
H1651 H 0.18327 0.58527 0.97325 0.0
H1652 H 0.9708 0.5784 0.0296 0.0
H1653 H 0.91579 0.52885 0.05211 0.0
H1654 H 0.97922 0.51081 0.05088 0.0
H1655 H 0.93985 0.50055 0.05836 0.0
H1656 H 0.02516 0.19386 0.93426 0.0
H1657 H 0.04697 0.11526 0.03757 0.0
H1658 H 0.04894 0.23012 0.01049 0.0
H1659 H 0.04697 0.0889 0.95879 0.0
H1660 H 0.04357 0.15626 0.02949 0.0
H1661 H 0.02824 0.15393 0.94422 0.0
C1662 C 0.03086 0.19347 0.95316 0.0
C1663 C 0.03681 0.2156 0.97149 0.0
C1664 C 0.04442 0.1415 0.01401 0.0
C1665 C 0.04035 0.16949 0.98316 0.0
C1666 C 0.04652 0.11817 0.01866 0.0
C1667 C 0.04787 0.09878 0.99889 0.0
C1668 C 0.04302 0.14523 0.98937 0.0
C1669 C 0.04636 0.10337 0.97465 0.0
C1670 C 0.03274 0.17059 0.95883 0.0
C1671 C 0.0442 0.21366 0.99567 0.0
N1672 N 0.04402 0.12593 0.97061 0.0
N1673 N 0.04569 0.1911 1.0008 0.0
H1674 H 0.16204 0.77124 0.13834 0.0
H1675 H 0.25714 0.84199 0.24881 0.0
H1676 H 0.166 0.84698 0.17616 0.0
H1677 H 0.26042 0.77608 0.19572 0.0
H1678 H 0.22369 0.84434 0.22425 0.0
H1679 H 0.19748 0.77263 0.16079 0.0
C1680 C 0.17039 0.78827 0.15135 0.0
C1681 C 0.16087 0.80901 0.15532 0.0
C1682 C 0.23177 0.82937 0.21803 0.0
C1683 C 0.20182 0.81065 0.18157 0.0
C1684 C 0.25083 0.82783 0.23228 0.0
C1685 C 0.26145 0.80828 0.2251 0.0
C1686 C 0.22308 0.81114 0.19637 0.0
C1687 C 0.25279 0.79125 0.20256 0.0
C1688 C 0.19075 0.78906 0.16417 0.0
C1689 C 0.1727 0.83056 0.1724 0.0
N1690 N 0.2341 0.7929 0.18931 0.0
N1691 N 0.19243 0.83074 0.18508 0.0
H1692 H 0.55492 0.85083 0.44379 0.0
H1693 H 0.55723 0.9788 0.5356 0.0
H1694 H 0.51163 0.85116 0.50207 0.0
H1695 H 0.55856 0.97307 0.45653 0.0
H1696 H 0.54723 0.93279 0.52865 0.0
H1697 H 0.56438 0.89658 0.4536 0.0
C1698 C 0.54767 0.86047 0.45893 0.0
C1699 C 0.53242 0.84702 0.4721 0.0
C1700 C 0.54953 0.9417 0.51286 0.0
C1701 C 0.54338 0.89957 0.48352 0.0
C1702 C 0.55499 0.96791 0.51677 0.0
C1703 C 0.55791 0.97979 0.49649 0.0
C1704 C 0.54801 0.92737 0.48864 0.0
C1705 C 0.55598 0.9647 0.47263 0.0
C1706 C 0.55296 0.8866 0.46437 0.0
C1707 C 0.52343 0.86073 0.4914 0.0
N1708 N 0.55131 0.93938 0.46938 0.0
N1709 N 0.52911 0.88623 0.49663 0.0
H1710 H 0.51354 0.29941 0.62685 0.0
H1711 H 0.48682 0.31975 0.76903 0.0
H1712 H 0.5639 0.32807 0.68953 0.0
H1713 H 0.437 0.28567 0.70664 0.0
H1714 H 0.51487 0.32523 0.74014 0.0
H1715 H 0.48514 0.29658 0.6556 0.0
C1716 C 0.51867 0.30519 0.64667 0.0
C1717 C 0.54125 0.31395 0.65573 0.0
C1718 C 0.49781 0.3166 0.73273 0.0
C1719 C 0.50859 0.31073 0.6889 0.0
C1720 C 0.48173 0.31335 0.74925 0.0
C1721 C 0.45942 0.30197 0.74037 0.0
C1722 C 0.49167 0.3085 0.70698 0.0
C1723 C 0.45389 0.29466 0.71443 0.0
C1724 C 0.50238 0.30354 0.6631 0.0
C1725 C 0.54676 0.32116 0.68165 0.0
N1726 N 0.46989 0.29793 0.69871 0.0
N1727 N 0.53058 0.31936 0.69728 0.0
H1728 H 0.0672 0.85894 0.65186 0.0
H1729 H 0.03115 0.86128 0.51025 0.0
H1730 H 0.01469 0.80237 0.6053 0.0
H1731 H 0.08666 0.91357 0.55628 0.0
H1732 H 0.02585 0.83783 0.54369 0.0
H1733 H 0.07495 0.87842 0.61635 0.0
C1734 C 0.05724 0.85064 0.63418 0.0
C1735 C 0.04021 0.82904 0.6316 0.0
C1736 C 0.03933 0.8543 0.54635 0.0
C1737 C 0.04909 0.85121 0.5907 0.0
C1738 C 0.04245 0.86754 0.5272 0.0
C1739 C 0.05922 0.88951 0.53064 0.0
C1740 C 0.05307 0.86318 0.56902 0.0
C1741 C 0.0733 0.89694 0.55303 0.0
C1742 C 0.06175 0.86172 0.61384 0.0
C1743 C 0.02794 0.81906 0.60816 0.0
N1744 N 0.06979 0.88394 0.57142 0.0
N1745 N 0.03258 0.83027 0.58862 0.0
H1746 H 0.5291 0.7766 0.8492 0.0
H1747 H 0.48576 0.87832 0.79017 0.0
H1748 H 0.57326 0.83798 0.82757 0.0
H1749 H 0.44478 0.80504 0.78845 0.0
H1750 H 0.51798 0.8645 0.8048 0.0
H1751 H 0.49772 0.78717 0.82809 0.0
C1752 C 0.53222 0.79213 0.83979 0.0
C1753 C 0.55382 0.80648 0.84023 0.0
C1754 C 0.50194 0.85142 0.80105 0.0
C1755 C 0.518 0.81887 0.81637 0.0
C1756 C 0.48353 0.85926 0.79259 0.0
C1757 C 0.46242 0.84293 0.78829 0.0
C1758 C 0.4992 0.82715 0.80548 0.0
C1759 C 0.46059 0.81852 0.7921 0.0
C1760 C 0.51432 0.79814 0.82774 0.0
C1761 C 0.55689 0.82639 0.82771 0.0
N1762 N 0.47868 0.81145 0.80068 0.0
N1763 N 0.53915 0.83218 0.81653 0.0
H1764 H 0.52212 0.19949 0.1577 0.0
H1765 H 0.51456 0.10085 0.03087 0.0
H1766 H 0.49774 0.2111 0.08659 0.0
H1767 H 0.55894 0.10581 0.09629 0.0
H1768 H 0.50191 0.13641 0.0527 0.0
H1769 H 0.52879 0.15987 0.13692 0.0
C1770 C 0.51799 0.19364 0.13772 0.0
C1771 C 0.50963 0.20879 0.12378 0.0
C1772 C 0.5144 0.12965 0.06221 0.0
C1773 C 0.51724 0.16343 0.09998 0.0
C1774 C 0.52179 0.10946 0.04974 0.0
C1775 C 0.53839 0.10078 0.06148 0.0
C1776 C 0.52336 0.1409 0.08676 0.0
C1777 C 0.54641 0.11209 0.08631 0.0
C1778 C 0.52187 0.17103 0.1259 0.0
C1779 C 0.50441 0.2001 0.098 0.0
N1780 N 0.53887 0.13165 0.0981 0.0
N1781 N 0.50843 0.17798 0.08686 0.0
H1782 H 0.15535 0.32612 0.29905 0.0
H1783 H 0.26273 0.32605 0.2672 0.0
H1784 H 0.17755 0.30203 0.36432 0.0
H1785 H 0.27932 0.33058 0.34535 0.0
H1786 H 0.22406 0.32379 0.27435 0.0
H1787 H 0.19307 0.33313 0.28755 0.0
C1788 C 0.1681 0.32194 0.31076 0.0
C1789 C 0.16328 0.3135 0.33269 0.0
C1790 C 0.23608 0.32572 0.2901 0.0
C1791 C 0.20656 0.32132 0.31958 0.0
C1792 C 0.25809 0.32658 0.28589 0.0
C1793 C 0.27374 0.32708 0.30551 0.0
C1794 C 0.22991 0.32561 0.31423 0.0
C1795 C 0.26744 0.3294 0.32964 0.0
C1796 C 0.1897 0.32589 0.30413 0.0
C1797 C 0.18049 0.30856 0.34725 0.0
N1798 N 0.24584 0.32793 0.33326 0.0
N1799 N 0.20137 0.3127 0.3405 0.0
H1800 H 0.96619 0.04494 0.2018 0.0
H1801 H 0.04978 0.10162 0.10754 0.0
H1802 H 1.00173 0.12189 0.21333 0.0
H1803 H 0.01087 0.02581 0.08965 0.0
H1804 H 0.03312 0.10821 0.14677 0.0
H1805 H 0.98268 0.03648 0.1621 0.0
C1806 C 0.97746 0.06009 0.19625 0.0
C1807 C 0.98232 0.08429 0.21155 0.0
C1808 C 0.02815 0.09005 0.13438 0.0
C1809 C 1.00161 0.07457 0.16532 0.0
C1810 C 0.03783 0.0862 0.11175 0.0
C1811 C 0.0321 0.06299 0.09471 0.0
C1812 C 0.01233 0.07064 0.14077 0.0
C1813 C 0.01606 0.04408 0.10179 0.0
C1814 C 0.9869 0.05522 0.17335 0.0
C1815 C 0.99717 0.10291 0.20266 0.0
N1816 N 1.00693 0.04827 0.12399 0.0
N1817 N 1.0061 0.0977 0.18061 0.0
H1818 H 0.25906 0.64015 0.42998 0.0
H1819 H 0.30281 0.77605 0.40135 0.0
H1820 H 0.31633 0.69436 0.47074 0.0
H1821 H 0.23858 0.72804 0.37253 0.0
H1822 H 0.31184 0.74285 0.42041 0.0
H1823 H 0.25527 0.6688 0.40242 0.0
C1824 C 0.271 0.65794 0.43296 0.0
C1825 C 0.28784 0.66503 0.45292 0.0
C1826 C 0.29584 0.73952 0.40973 0.0
C1827 C 0.28357 0.69787 0.4215 0.0
C1828 C 0.29074 0.7584 0.39877 0.0
C1829 C 0.2698 0.75488 0.38572 0.0
C1830 C 0.27992 0.71697 0.40747 0.0
C1831 C 0.25474 0.73167 0.38292 0.0
C1832 C 0.26879 0.6743 0.41726 0.0
C1833 C 0.30292 0.68825 0.45578 0.0
N1834 N 0.26004 0.71365 0.39386 0.0
N1835 N 0.30032 0.70392 0.44038 0.0
H1836 H 0.69297 0.02344 0.65622 0.0
H1837 H 0.56963 1.00572 0.59426 0.0
H1838 H 0.63587 0.98704 0.68751 0.0
H1839 H 0.62568 0.06207 0.58324 0.0
H1840 H 0.59343 0.99409 0.62498 0.0
H1841 H 0.66828 0.03154 0.62423 0.0
C1842 C 0.67524 0.0168 0.65617 0.0
C1843 C 0.66647 1.00477 0.67475 0.0
C1844 C 0.6004 1.00904 0.61583 0.0
C1845 C 0.63813 0.01426 0.6383 0.0
C1846 C 0.58685 0.01579 0.5984 0.0
C1847 C 0.59569 0.03484 0.58603 0.0
C1848 C 0.62296 0.02119 0.62059 0.0
C1849 C 0.61813 0.04715 0.5921 0.0
C1850 C 0.66116 0.02164 0.63801 0.0
C1851 C 0.64334 0.99651 0.67362 0.0
N1852 N 0.63101 0.03998 0.6088 0.0
N1853 N 0.62991 1.00156 0.65576 0.0
H1854 H 0.32619 0.32041 0.9735 0.0
H1855 H 0.3281 0.3662 0.84417 0.0
H1856 H 0.33273 0.39654 0.96504 0.0
H1857 H 0.31485 0.28821 0.84707 0.0
H1858 H 0.33489 0.3771 0.88932 0.0
H1859 H 0.32632 0.30761 0.92814 0.0
C1860 C 0.32774 0.33441 0.96219 0.0
C1861 C 0.32922 0.35955 0.97309 0.0
C1862 C 0.33071 0.35755 0.88026 0.0
C1863 C 0.32954 0.34512 0.92152 0.0
C1864 C 0.32693 0.35138 0.85446 0.0
C1865 C 0.32123 0.32636 0.84204 0.0
C1866 C 0.32821 0.33855 0.89395 0.0
C1867 C 0.31962 0.30775 0.85612 0.0
C1868 C 0.32782 0.32709 0.93636 0.0
C1869 C 0.33131 0.37691 0.95757 0.0
N1870 N 0.32294 0.31423 0.88148 0.0
N1871 N 0.33134 0.36936 0.93271 0.0
H1872 H 0.95997 0.07839 0.36727 0.0
H1873 H 0.06385 0.05774 0.45301 0.0
H1874 H 0.01983 0.06525 0.3377 0.0
H1875 H 0.99995 0.05934 0.47827 0.0
H1876 H 0.04905 0.06169 0.41139 0.0
H1877 H 0.97506 0.07362 0.40828 0.0
C1878 C 0.97631 0.07472 0.36924 0.0
C1879 C 0.98841 0.07236 0.34838 0.0
C1880 C 0.0382 0.06108 0.42601 0.0
C1881 C 1.00618 0.06669 0.39624 0.0
C1882 C 0.04669 0.0586 0.4499 0.0
C1883 C 0.0332 0.05774 0.4696 0.0
C1884 C 0.01605 0.06325 0.42147 0.0
C1885 C 0.01114 0.05965 0.46398 0.0
C1886 C 0.98498 0.07184 0.39285 0.0
C1887 C 0.00958 0.06732 0.35279 0.0
N1888 N 1.00345 0.06234 0.44091 0.0
N1889 N 0.01763 0.06476 0.37581 0.0
H1890 H 0.31028 0.73666 0.56831 0.0
H1891 H 0.29969 0.72896 0.71006 0.0
H1892 H 0.31774 0.67314 0.59894 0.0
H1893 H 0.31594 0.79969 0.68721 0.0
H1894 H 0.30175 0.7077 0.6678 0.0
H1895 H 0.30936 0.75997 0.61054 0.0
C1896 C 0.31199 0.72772 0.5839 0.0
C1897 C 0.31401 0.70287 0.58008 0.0
C1898 C 0.30488 0.72788 0.67201 0.0
C1899 C 0.31252 0.72921 0.62817 0.0
C1900 C 0.30352 0.74007 0.69614 0.0
C1901 C 0.3079 0.7662 0.70231 0.0
C1902 C 0.31038 0.74185 0.65372 0.0
C1903 C 0.31272 0.77952 0.68333 0.0
C1904 C 0.31141 0.74101 0.60794 0.0
C1905 C 0.31615 0.69222 0.60095 0.0
N1906 N 0.31386 0.76718 0.65983 0.0
N1907 N 0.31512 0.70536 0.62405 0.0
H1908 H 0.70728 0.07528 0.82562 0.0
H1909 H 0.57699 0.04264 0.83856 0.0
H1910 H 0.65776 0.02776 0.76792 0.0
H1911 H 0.62647 0.08442 0.89899 0.0
H1912 H 0.60633 0.04001 0.81134 0.0
H1913 H 0.67785 0.08129 0.85203 0.0
C1914 C 0.69024 0.06612 0.8185 0.0
C1915 C 0.68498 0.05094 0.79456 0.0
C1916 C 0.61078 0.04984 0.83054 0.0
C1917 C 0.65127 0.05781 0.82458 0.0
C1918 C 0.59401 0.05151 0.84602 0.0
C1919 C 0.59931 0.06365 0.8711 0.0
C1920 C 0.63301 0.06043 0.84018 0.0
C1921 C 0.62168 0.07455 0.87986 0.0
C1922 C 0.67346 0.06957 0.83357 0.0
C1923 C 0.66261 0.03957 0.78628 0.0
N1924 N 0.63772 0.07262 0.86444 0.0
N1925 N 0.64661 0.04324 0.80126 0.0
H1926 H 0.34095 0.39369 0.11325 0.0
H1927 H 0.28925 0.29197 0.19028 0.0
H1928 H 0.28382 0.33315 0.08444 0.0
H1929 H 0.33906 0.35891 0.22255 0.0
H1930 H 0.28868 0.30509 0.15056 0.0
H1931 H 0.34236 0.37937 0.15229 0.0
C1932 C 0.32871 0.3773 0.11507 0.0
C1933 C 0.31214 0.36465 0.09552 0.0
C1934 C 0.29957 0.31707 0.16635 0.0
C1935 C 0.31373 0.34817 0.14035 0.0
C1936 C 0.29961 0.30978 0.1892 0.0
C1937 C 0.3135 0.32492 0.20998 0.0
C1938 C 0.31376 0.33956 0.16421 0.0
C1939 C 0.32785 0.34692 0.20699 0.0
C1940 C 0.32953 0.36918 0.13744 0.0
C1941 C 0.29681 0.34352 0.09902 0.0
N1942 N 0.32753 0.35368 0.18453 0.0
N1943 N 0.29796 0.33595 0.12104 0.0
H1944 H 0.2474 0.96747 0.03473 0.0
H1945 H 0.23218 0.10482 0.04839 0.0
H1946 H 0.3048 0.02834 0.04011 0.0
H1947 H 0.19129 0.04933 0.08107 0.0
H1948 H 0.25867 0.07802 0.04155 0.0
H1949 H 0.22497 0.99764 0.04591 0.0
C1950 C 0.25526 0.98719 0.03812 0.0
C1951 C 0.27799 0.99544 0.03663 0.0
C1952 C 0.24403 0.07201 0.05055 0.0
C1953 C 0.25243 0.03002 0.04947 0.0
C1954 C 0.22905 0.08731 0.05461 0.0
C1955 C 0.20938 0.07902 0.0649 0.0
C1956 C 0.23899 0.04832 0.05656 0.0
C1957 C 0.20601 0.05613 0.07254 0.0
C1958 C 0.2425 1.00439 0.04471 0.0
C1959 C 0.28732 0.02126 0.04123 0.0
N1960 N 0.22046 0.04139 0.06782 0.0
N1961 N 0.27444 0.03774 0.04735 0.0
H1962 H 0.71768 0.69223 0.0195 0.0
H1963 H 0.63186 0.55959 0.97951 0.0
H1964 H 0.73801 0.62595 0.98557 0.0
H1965 H 0.62527 0.61821 0.03989 0.0
H1966 H 0.66785 0.58537 0.97397 0.0
H1967 H 0.68023 0.66697 0.01872 0.0
C1968 C 0.71422 0.67241 0.01163 0.0
C1969 C 0.73105 0.66113 1.00283 0.0
C1970 C 0.65839 0.59246 0.98836 0.0
C1971 C 0.6882 0.63216 1.00186 0.0
C1972 C 0.63792 0.57775 0.99162 0.0
C1973 C 0.62567 0.58647 0.01053 0.0
C1974 C 0.6663 0.61624 1.00372 0.0
C1975 C 0.63415 0.61048 0.02525 0.0
C1976 C 0.69286 0.658 0.01129 0.0
C1977 C 0.72556 0.63534 0.99277 0.0
N1978 N 0.65388 0.62448 0.02151 0.0
N1979 N 0.70457 0.62165 0.99262 0.0
H1980 H 0.73266 0.46083 0.30466 0.0
H1981 H 0.77139 0.33668 0.23649 0.0
H1982 H 0.7196 0.42939 0.22601 0.0
H1983 H 0.78855 0.36824 0.31458 0.0
H1984 H 0.75331 0.37101 0.23265 0.0
H1985 H 0.75321 0.42836 0.30927 0.0
C1986 C 0.73398 0.44729 0.28831 0.0
C1987 C 0.72397 0.44847 0.26483 0.0
C1988 C 0.76126 0.37079 0.25065 0.0
C1989 C 0.74801 0.41037 0.27007 0.0
C1990 C 0.77198 0.35115 0.25278 0.0
C1991 C 0.78262 0.34967 0.27571 0.0
C1992 C 0.76038 0.38936 0.27172 0.0
C1993 C 0.78132 0.36865 0.29628 0.0
C1994 C 0.74586 0.42857 0.29096 0.0
C1995 C 0.72671 0.42984 0.2446 0.0
N1996 N 0.77065 0.3874 0.29382 0.0
N1997 N 0.73817 0.41201 0.24768 0.0
H1998 H 0.90105 0.52879 0.54664 0.0
H1999 H 1.001 0.46845 0.50463 0.0
H2000 H 0.89056 0.45483 0.5009 0.0
H2001 H 1.00769 0.54687 0.5336 0.0
H2002 H 0.96043 0.46237 0.5028 0.0
H2003 H 0.94051 0.53562 0.54155 0.0
C2004 C 0.90702 0.51408 0.53537 0.0
C2005 C 0.89253 0.49119 0.52433 0.0
C2006 C 0.97088 0.48099 0.50911 0.0
C2007 C 0.93768 0.49871 0.51862 0.0
C2008 C 0.99393 0.48441 0.51018 0.0
C2009 C 1.0077 0.50834 0.51852 0.0
C2010 C 0.96175 0.50159 0.51713 0.0
C2011 C 0.99785 0.52835 0.52606 0.0
C2012 C 0.92954 0.51797 0.53243 0.0
C2013 C 0.90117 0.47277 0.50983 0.0
N2014 N 0.97554 0.52453 0.52527 0.0
N2015 N 0.92324 0.47683 0.50761 0.0
H2016 H 0.41767 0.14955 0.29999 0.0
H2017 H 0.2999 0.16333 0.24542 0.0
H2018 H 0.35542 0.09994 0.30606 0.0
H2019 H 0.36221 0.19825 0.22274 0.0
H2020 H 0.32002 0.146 0.2747 0.0
H2021 H 0.39735 0.1745 0.27977 0.0
C2022 C 0.39971 0.14421 0.29758 0.0
C2023 C 0.38819 0.12238 0.30424 0.0
C2024 C 0.32929 0.15748 0.26334 0.0
C2025 C 0.36499 0.15061 0.28098 0.0
C2026 C 0.31784 0.1673 0.24662 0.0
C2027 C 0.32945 0.18197 0.23149 0.0
C2028 C 0.35252 0.16249 0.26502 0.0
C2029 C 0.35265 0.18663 0.23376 0.0
C2030 C 0.38816 0.15834 0.28585 0.0
C2031 C 0.36494 0.11641 0.3008 0.0
N2032 N 0.36347 0.17689 0.25024 0.0
N2033 N 0.35409 0.1303 0.28913 0.0
H2034 H 0.37992 0.16305 0.48302 0.0
H2035 H 0.40317 0.05984 0.55661 0.0
H2036 H 0.33461 0.13006 0.53045 0.0
H2037 H 0.43854 0.07823 0.495 0.0
H2038 H 0.37927 0.08752 0.54918 0.0
H2039 H 0.40326 0.13431 0.48926 0.0
C2040 C 0.37487 0.14976 0.49472 0.0
C2041 C 0.35528 0.14895 0.50622 0.0
C2042 C 0.39223 0.08543 0.53725 0.0
C2043 C 0.38194 0.11615 0.51354 0.0
C2044 C 0.40582 0.06951 0.54139 0.0
C2045 C 0.42295 0.06665 0.52643 0.0
C2046 C 0.39584 0.09876 0.51812 0.0
C2047 C 0.42581 0.08012 0.50728 0.0
C2048 C 0.38817 0.13333 0.49822 0.0
C2049 C 0.34953 0.13131 0.52115 0.0
N2050 N 0.41245 0.09564 0.50374 0.0
N2051 N 0.36285 0.1157 0.52447 0.0
H2052 H 0.75066 0.59009 0.29279 0.0
H2053 H 0.75129 0.72568 0.26214 0.0
H2054 H 0.69357 0.61193 0.26367 0.0
H2055 H 0.80757 0.71274 0.3031 0.0
H2056 H 0.73134 0.68298 0.26097 0.0
H2057 H 0.77297 0.63302 0.29503 0.0
C2058 C 0.74276 0.60371 0.28682 0.0
C2059 C 0.71998 0.59697 0.27805 0.0
C2060 C 0.74809 0.6893 0.27019 0.0
C2061 C 0.74562 0.64646 0.28047 0.0
C2062 C 0.75966 0.71396 0.27087 0.0
C2063 C 0.78153 0.72332 0.28252 0.0
C2064 C 0.75818 0.67315 0.28115 0.0
C2065 C 0.79099 0.70662 0.29355 0.0
C2066 C 0.75554 0.62833 0.28816 0.0
C2067 C 0.71092 0.61582 0.27065 0.0
N2068 N 0.77938 0.68251 0.29252 0.0
N2069 N 0.72361 0.63928 0.27197 0.0
H2070 H 0.92755 0.46311 0.78765 0.0
H2071 H 0.81211 0.3625 0.7447 0.0
H2072 H 0.86467 0.48325 0.77961 0.0
H2073 H 0.87283 0.34428 0.76831 0.0
H2074 H 0.8318 0.40671 0.7519 0.0
H2075 H 0.90835 0.41918 0.77542 0.0
C2076 C 0.9097 0.45831 0.78329 0.0
C2077 C 0.89769 0.47688 0.78478 0.0
C2078 C 0.84081 0.39305 0.7555 0.0
C2079 C 0.87561 0.42659 0.77069 0.0
C2080 C 0.82959 0.36799 0.75148 0.0
C2081 C 0.84085 0.35029 0.7569 0.0
C2082 C 0.86346 0.40009 0.76446 0.0
C2083 C 0.86357 0.35777 0.7648 0.0
C2084 C 0.89875 0.43321 0.77631 0.0
C2085 C 0.87458 0.46953 0.77881 0.0
N2086 N 0.87415 0.38221 0.76853 0.0
N2087 N 0.86427 0.44492 0.77206 0.0
H2088 H 0.08411 0.86605 0.03708 0.0
H2089 H 0.07633 1.00661 0.093 0.0
H2090 H 0.09521 0.89959 0.11544 0.0
H2091 H 0.08 0.98062 0.01489 0.0
H2092 H 0.08041 0.96628 0.1008 0.0
H2093 H 0.07994 0.90612 0.028 0.0
C2094 C 0.08575 0.8818 0.05243 0.0
C2095 C 0.09011 0.87921 0.07715 0.0
C2096 C 0.08023 0.96921 0.08189 0.0
C2097 C 0.08515 0.92545 0.06672 0.0
C2098 C 0.07783 0.99228 0.0774 0.0
C2099 C 0.07731 0.99694 0.05317 0.0
C2100 C 0.08235 0.95031 0.06207 0.0
C2101 C 0.07974 0.97771 0.03378 0.0
C2102 C 0.08338 0.90474 0.04716 0.0
C2103 C 0.09197 0.90048 0.09611 0.0
N2104 N 0.08203 0.95524 0.03862 0.0
N2105 N 0.0894 0.92249 0.09051 0.0
H2106 H 0.96438 0.24658 0.86769 0.0
H2107 H 0.87425 0.32256 0.83656 0.0
H2108 H 0.95679 0.31443 0.91467 0.0
H2109 H 0.86984 0.24683 0.79825 0.0
H2110 H 0.90612 0.32041 0.86351 0.0
H2111 H 0.9315 0.24673 0.84027 0.0
C2112 C 0.95583 0.26144 0.87231 0.0
C2113 C 0.96348 0.28052 0.89362 0.0
C2114 C 0.89826 0.30423 0.84918 0.0
C2115 C 0.92595 0.28091 0.86216 0.0
C2116 C 0.87998 0.30544 0.83369 0.0
C2117 C 0.86936 0.28496 0.81473 0.0
C2118 C 0.90628 0.2824 0.84581 0.0
C2119 C 0.87769 0.2633 0.81217 0.0
C2120 C 0.93704 0.2615 0.85665 0.0
C2121 C 0.95164 0.29928 0.89856 0.0
N2122 N 0.89568 0.26262 0.82741 0.0
N2123 N 0.93368 0.29904 0.88298 0.0
H2124 H 0.58316 0.2419 0.61078 0.0
H2125 H 0.56657 0.11359 0.51056 0.0
H2126 H 0.59727 0.24094 0.53484 0.0
H2127 H 0.57069 0.119 0.58995 0.0
H2128 H 0.57559 0.15958 0.51761 0.0
H2129 H 0.57562 0.19646 0.60208 0.0
C2130 C 0.58457 0.23218 0.59219 0.0
C2131 C 0.59088 0.24548 0.57355 0.0
C2132 C 0.5747 0.15068 0.53347 0.0
C2133 C 0.5822 0.19289 0.56338 0.0
C2134 C 0.56973 0.12445 0.52945 0.0
C2135 C 0.56847 0.11248 0.54975 0.0
C2136 C 0.57784 0.16497 0.55794 0.0
C2137 C 0.57186 0.12745 0.57379 0.0
C2138 C 0.58035 0.20611 0.58725 0.0
C2139 C 0.59247 0.23157 0.54983 0.0
N2140 N 0.57635 0.15277 0.57719 0.0
N2141 N 0.58811 0.20609 0.54541 0.0
H2142 H 0.61224 0.79104 0.42266 0.0
H2143 H 0.64306 0.77436 0.28206 0.0
H2144 H 0.56315 0.76599 0.35855 0.0
H2145 H 0.69114 0.80778 0.34621 0.0
H2146 H 0.61399 0.76841 0.3097 0.0
H2147 H 0.64142 0.7945 0.39499 0.0
C2148 C 0.60754 0.78618 0.40273 0.0
C2149 C 0.58508 0.77824 0.39298 0.0
C2150 C 0.6309 0.777 0.31776 0.0
C2151 C 0.61872 0.78218 0.36101 0.0
C2152 C 0.64757 0.78053 0.30196 0.0
C2153 C 0.66971 0.79188 0.3117 0.0
C2154 C 0.63625 0.78475 0.34364 0.0
C2155 C 0.67443 0.79883 0.33774 0.0
C2156 C 0.62429 0.78821 0.38692 0.0
C2157 C 0.58018 0.77224 0.36696 0.0
N2158 N 0.65787 0.79526 0.35274 0.0
N2159 N 0.59683 0.77434 0.35191 0.0
H2160 H 0.08383 0.24935 0.41576 0.0
H2161 H 0.08327 0.23944 0.55824 0.0
H2162 H 0.10269 0.31402 0.47602 0.0
H2163 H 0.04849 0.18044 0.49735 0.0
H2164 H 0.09076 0.26741 0.52894 0.0
H2165 H 0.07188 0.22357 0.44578 0.0
C2166 C 0.08547 0.25813 0.4353 0.0
C2167 C 0.09435 0.28385 0.4434 0.0
C2168 C 0.08132 0.24839 0.52207 0.0
C2169 C 0.08067 0.25448 0.47788 0.0
C2170 C 0.07692 0.23249 0.53881 0.0
C2171 C 0.06555 0.20748 0.53016 0.0
C2172 C 0.07441 0.23911 0.49656 0.0
C2173 C 0.05781 0.19942 0.50474 0.0
C2174 C 0.07852 0.24343 0.45243 0.0
C2175 C 0.09597 0.29424 0.46896 0.0
N2176 N 0.0626 0.21508 0.48882 0.0
N2177 N 0.08932 0.27949 0.48532 0.0
H2178 H 0.54838 0.22359 0.23451 0.0
H2179 H 0.67884 0.27822 0.26921 0.0
H2180 H 0.58186 0.29692 0.22562 0.0
H2181 H 0.64728 0.19948 0.25239 0.0
H2182 H 0.64272 0.28739 0.26097 0.0
H2183 H 0.58384 0.21695 0.24981 0.0
C2184 C 0.56313 0.23847 0.23611 0.0
C2185 C 0.56217 0.26078 0.22855 0.0
C2186 C 0.64376 0.26814 0.25924 0.0
C2187 C 0.60284 0.25318 0.24597 0.0
C2188 C 0.66439 0.26283 0.26376 0.0
C2189 C 0.66624 0.23798 0.26129 0.0
C2190 C 0.62479 0.2485 0.25248 0.0
C2191 C 0.64675 0.21892 0.25483 0.0
C2192 C 0.58339 0.23458 0.24472 0.0
C2193 C 0.58186 0.27938 0.2311 0.0
N2194 N 0.62688 0.22459 0.25061 0.0
N2195 N 0.60144 0.27511 0.23948 0.0
H2196 H 0.63289 0.88008 0.94402 0.0
H2197 H 0.57542 0.99075 0.95027 0.0
H2198 H 0.62354 0.91291 0.88037 0.0
H2199 H 0.61307 0.98215 0.01546 0.0
H2200 H 0.59266 0.9618 0.92453 0.0
H2201 H 0.6263 0.91704 0.97107 0.0
C2202 C 0.62982 0.89528 0.93581 0.0
C2203 C 0.62835 0.89335 0.90992 0.0
C2204 C 0.59724 0.96636 0.94448 0.0
C2205 C 0.62054 0.93529 0.94061 0.0
C2206 C 0.58724 0.98275 0.95929 0.0
C2207 C 0.59237 0.98851 0.98526 0.0
C2208 C 0.61215 0.95518 0.95568 0.0
C2209 C 0.60813 0.97775 0.99567 0.0
C2210 C 0.62615 0.91636 0.95125 0.0
C2211 C 0.62461 0.91361 0.90022 0.0
N2212 N 0.61722 0.96123 0.98086 0.0
N2213 N 0.62036 0.9336 0.91556 0.0
H2214 H 0.9359 0.788 0.66358 0.0
H2215 H 0.86499 0.74126 0.76914 0.0
H2216 H 0.96436 0.76225 0.72449 0.0
H2217 H 0.84872 0.79239 0.72556 0.0
H2218 H 0.89813 0.73988 0.74699 0.0
H2219 H 0.9004 0.78154 0.68095 0.0
C2220 C 0.93467 0.78098 0.6806 0.0
C2221 C 0.95311 0.77591 0.69277 0.0
C2222 C 0.88712 0.75122 0.74224 0.0
C2223 C 0.91254 0.76802 0.71243 0.0
C2224 C 0.86831 0.75196 0.75477 0.0
C2225 C 0.85463 0.76754 0.74959 0.0
C2226 C 0.89178 0.76584 0.72423 0.0
C2227 C 0.85927 0.78081 0.73065 0.0
C2228 C 0.91442 0.77722 0.69045 0.0
C2229 C 0.95057 0.76669 0.71471 0.0
N2230 N 0.87754 0.77981 0.71877 0.0
N2231 N 0.93059 0.76298 0.72386 0.0
H2232 H 0.11329 0.9834 0.82868 0.0
H2233 H 0.11941 0.06802 0.96685 0.0
H2234 H 0.16913 0.04489 0.85847 0.0
H2235 H 0.07226 0.99784 0.93955 0.0
H2236 H 0.13691 0.06183 0.92786 0.0
H2237 H 0.09754 0.99047 0.8682 0.0
C2238 C 0.12244 0.99849 0.84345 0.0
C2239 C 0.14291 0.01342 0.83954 0.0
C2240 C 0.12269 0.04778 0.9303 0.0
C2241 C 0.12421 0.02189 0.88626 0.0
C2242 C 0.11254 0.0513 0.95277 0.0
C2243 C 0.09382 0.03363 0.95701 0.0
C2244 C 0.1142 0.02643 0.91124 0.0
C2245 C 0.0862 0.01237 0.93752 0.0
C2246 C 0.11326 1.00249 0.86632 0.0
C2247 C 0.15344 0.03267 0.86009 0.0
N2248 N 0.09619 1.00954 0.91585 0.0
N2249 N 0.14403 0.03633 0.88223 0.0
H2250 H 0.84447 0.44447 0.60285 0.0
H2251 H 0.84607 0.31891 0.64815 0.0
H2252 H 0.79872 0.37416 0.57038 0.0
H2253 H 0.8784 0.39151 0.69257 0.0
H2254 H 0.82826 0.33901 0.61979 0.0
H2255 H 0.85671 0.42588 0.63637 0.0
C2256 C 0.83682 0.42519 0.60293 0.0
C2257 C 0.82071 0.41074 0.58367 0.0
C2258 C 0.8391 0.35056 0.63585 0.0
C2259 C 0.83482 0.38933 0.62177 0.0
C2260 C 0.84925 0.33909 0.65212 0.0
C2261 C 0.86386 0.35354 0.67274 0.0
C2262 C 0.84377 0.3767 0.63999 0.0
C2263 C 0.86762 0.37964 0.67664 0.0
C2264 C 0.8438 0.41461 0.62208 0.0
C2265 C 0.81125 0.38594 0.58479 0.0
N2266 N 0.85777 0.3904 0.66029 0.0
N2267 N 0.81866 0.37592 0.60336 0.0
H2268 H 0.45128 1.00062 0.34742 0.0
H2269 H 0.54085 0.08725 0.45706 0.0
H2270 H 0.45401 0.07882 0.37406 0.0
H2271 H 0.52027 1.00715 0.44663 0.0
H2272 H 0.51479 0.08539 0.42073 0.0
H2273 H 0.48183 1.00368 0.3788 0.0
C2274 C 0.45824 0.01841 0.35998 0.0
C2275 C 0.44997 0.03943 0.35835 0.0
C2276 C 0.51622 0.06826 0.42632 0.0
C2277 C 0.48513 0.04314 0.39394 0.0
C2278 C 0.53116 0.0693 0.44679 0.0
C2279 C 0.53229 0.04735 0.45484 0.0
C2280 C 0.5028 0.04506 0.41386 0.0
C2281 C 0.51948 0.02451 0.44114 0.0
C2282 C 0.47571 0.02016 0.37779 0.0
C2283 C 0.45971 0.06208 0.37495 0.0
N2284 N 0.50517 0.02395 0.42136 0.0
N2285 N 0.47687 0.06336 0.39209 0.0
H2286 H 0.80485 0.77515 0.08242 0.0
H2287 H 0.80317 0.72953 0.21181 0.0
H2288 H 0.79912 0.69912 0.09085 0.0
H2289 H 0.81623 0.80748 0.20872 0.0
H2290 H 0.7967 0.71853 0.16663 0.0
H2291 H 0.80492 0.78794 0.12777 0.0
C2292 C 0.80357 0.76118 0.09373 0.0
C2293 C 0.80218 0.73606 0.08282 0.0
C2294 C 0.80077 0.73808 0.17566 0.0
C2295 C 0.80207 0.75047 0.13439 0.0
C2296 C 0.80435 0.74432 0.20146 0.0
C2297 C 0.80989 0.76935 0.21383 0.0
C2298 C 0.80329 0.75705 0.16194 0.0
C2299 C 0.81156 0.78792 0.19971 0.0
C2300 C 0.80358 0.76848 0.11956 0.0
C2301 C 0.80043 0.71872 0.09835 0.0
N2302 N 0.80841 0.78139 0.17435 0.0
N2303 N 0.80047 0.72627 0.12322 0.0
H2304 H 0.17169 0.01769 0.6889 0.0
H2305 H 0.06819 0.03792 0.60238 0.0
H2306 H 0.11137 0.02999 0.71786 0.0
H2307 H 0.13265 0.03792 0.57808 0.0
H2308 H 0.08261 0.03354 0.64397 0.0
H2309 H 0.15689 0.02267 0.64786 0.0
C2310 C 0.15531 0.02121 0.68678 0.0
C2311 C 0.14298 0.02328 0.70747 0.0
C2312 C 0.09367 0.0346 0.62958 0.0
C2313 C 0.12556 0.02919 0.6596 0.0
C2314 C 0.08539 0.03732 0.6057 0.0
C2315 C 0.09916 0.0388 0.5863 0.0
C2316 C 0.11589 0.03279 0.63437 0.0
C2317 C 0.12126 0.03717 0.59216 0.0
C2318 C 0.14681 0.02421 0.66316 0.0
C2319 C 0.12177 0.02815 0.7029 0.0
N2320 N 0.12875 0.03424 0.6152 0.0
N2321 N 0.11388 0.03082 0.67986 0.0
H2322 H 0.79008 0.38789 0.46098 0.0
H2323 H 0.85513 0.32664 0.35704 0.0
H2324 H 0.85715 0.38085 0.47622 0.0
H2325 H 0.78383 0.3123 0.35062 0.0
H2326 H 0.85638 0.34622 0.40104 0.0
H2327 H 0.78711 0.35936 0.42073 0.0
C2328 C 0.80408 0.38012 0.45598 0.0
C2329 C 0.82395 0.38692 0.47183 0.0
C2330 C 0.84043 0.33833 0.39012 0.0
C2331 C 0.82079 0.35463 0.4258 0.0
C2332 C 0.83975 0.32729 0.36506 0.0
C2333 C 0.81934 0.31766 0.35042 0.0
C2334 C 0.82054 0.34017 0.40033 0.0
C2335 C 0.79984 0.31891 0.3615 0.0
C2336 C 0.80237 0.36381 0.43305 0.0
C2337 C 0.84154 0.37619 0.46451 0.0
N2338 N 0.80091 0.33027 0.38576 0.0
N2339 N 0.83966 0.36086 0.44185 0.0
H2340 H 0.44652 0.07234 0.2402 0.0
H2341 H 0.55514 0.02716 0.21173 0.0
H2342 H 0.49402 0.0693 0.29957 0.0
H2343 H 0.52897 0.07147 0.16623 0.0
H2344 H 0.53034 0.03759 0.2427 0.0
H2345 H 0.474 0.06713 0.21073 0.0
C2346 C 0.46279 0.0708 0.24703 0.0
C2347 C 0.46809 0.0713 0.27229 0.0
C2348 C 0.5302 0.04507 0.22594 0.0
C2349 C 0.49918 0.06481 0.23882 0.0
C2350 C 0.5444 0.03924 0.20828 0.0
C2351 C 0.54414 0.04828 0.18614 0.0
C2352 C 0.51535 0.05965 0.22126 0.0
C2353 C 0.52944 0.06348 0.18263 0.0
C2354 C 0.47841 0.06788 0.23027 0.0
C2355 C 0.48936 0.06919 0.28025 0.0
N2356 N 0.51547 0.06846 0.19987 0.0
N2357 N 0.50407 0.06567 0.26347 0.0
H2358 H 0.8085 0.67409 0.91674 0.0
H2359 H 0.82814 0.80219 0.86824 0.0
H2360 H 0.81625 0.74584 0.96596 0.0
H2361 H 0.81129 0.72884 0.8205 0.0
H2362 H 0.82738 0.78271 0.90467 0.0
H2363 H 0.81299 0.69471 0.88166 0.0
C2364 C 0.81122 0.69423 0.92021 0.0
C2365 C 0.81189 0.70825 0.94433 0.0
C2366 C 0.82389 0.77094 0.8862 0.0
C2367 C 0.81702 0.73206 0.90407 0.0
C2368 C 0.82442 0.78202 0.86544 0.0
C2369 C 0.81952 0.76706 0.84137 0.0
C2370 C 0.81865 0.74478 0.88274 0.0
C2371 C 0.81477 0.74106 0.83874 0.0
C2372 C 0.81376 0.70601 0.90012 0.0
C2373 C 0.81555 0.73431 0.94764 0.0
N2374 N 0.81442 0.73077 0.85915 0.0
N2375 N 0.81792 0.74541 0.92769 0.0
H2376 H 0.84073 0.0763 0.06045 0.0
H2377 H 0.89987 0.99857 0.95906 0.0
H2378 H 0.83328 0.07662 0.98195 0.0
H2379 H 0.92123 0.01659 0.03783 0.0
H2380 H 0.86954 0.01956 0.96712 0.0
H2381 H 0.86485 0.04725 0.05225 0.0
C2382 C 0.84405 0.07014 0.04147 0.0
C2383 C 0.8352 0.0791 0.02188 0.0
C2384 C 0.88072 0.01865 0.98265 0.0
C2385 C 0.86258 0.04578 0.01239 0.0
C2386 C 0.89787 1.00652 0.97807 0.0
C2387 C 0.91308 1.00609 0.99781 0.0
C2388 C 0.87875 0.03018 0.00713 0.0
C2389 C 0.90994 0.01682 0.0221 0.0
C2390 C 0.85781 0.05359 0.03682 0.0
C2391 C 0.83997 0.07041 0.99765 0.0
N2392 N 0.89319 0.02857 0.02608 0.0
N2393 N 0.8534 0.05428 0.99359 0.0
H2394 H 0.38876 0.47599 0.06512 0.0
H2395 H 0.50436 0.47621 0.01479 0.0
H2396 H 0.40971 0.40815 0.03837 0.0
H2397 H 0.49789 0.53533 0.07473 0.0
H2398 H 0.46794 0.45252 0.01999 0.0
H2399 H 0.42706 0.49992 0.0659 0.0
C2400 C 0.40141 0.46614 0.05957 0.0
C2401 C 0.39606 0.44007 0.05152 0.0
C2402 C 0.47452 0.47067 0.03206 0.0
C2403 C 0.4395 0.46721 0.05213 0.0
C2404 C 0.49533 0.48432 0.02907 0.0
C2405 C 0.50416 0.50809 0.04409 0.0
C2406 C 0.46215 0.48094 0.0499 0.0
C2407 C 0.49159 0.51736 0.0624 0.0
C2408 C 0.4232 0.47977 0.06014 0.0
C2409 C 0.41307 0.42821 0.04466 0.0
N2410 N 0.47102 0.50388 0.0646 0.0
N2411 N 0.43397 0.4419 0.04482 0.0
H2412 H 0.396 0.65266 0.82916 0.0
H2413 H 0.35786 0.73684 0.73718 0.0
H2414 H 0.40861 0.64309 0.75226 0.0
H2415 H 0.34712 0.74795 0.81457 0.0
H2416 H 0.37491 0.70223 0.74203 0.0
H2417 H 0.37756 0.68596 0.82385 0.0
C2418 C 0.39501 0.65737 0.81099 0.0
C2419 C 0.40431 0.64434 0.7912 0.0
C2420 C 0.36875 0.71197 0.75802 0.0
C2421 C 0.38239 0.68385 0.78493 0.0
C2422 C 0.35881 0.73192 0.75527 0.0
C2423 C 0.35043 0.74565 0.77531 0.0
C2424 C 0.37094 0.70511 0.78125 0.0
C2425 C 0.35278 0.73806 0.79829 0.0
C2426 C 0.38429 0.6767 0.80803 0.0
C2427 C 0.40199 0.6521 0.76829 0.0
N2428 N 0.36266 0.71858 0.80053 0.0
N2429 N 0.39144 0.67104 0.76589 0.0
H2430 H 0.23153 0.65122 0.57297 0.0
H2431 H 0.12325 0.54454 0.51753 0.0
H2432 H 0.23179 0.589 0.5134 0.0
H2433 H 0.12077 0.62074 0.54634 0.0
H2434 H 0.16372 0.55674 0.52482 0.0
H2435 H 0.19139 0.63611 0.57207 0.0
C2436 C 0.22319 0.63426 0.55986 0.0
C2437 C 0.23495 0.62145 0.54304 0.0
C2438 C 0.15428 0.57071 0.52978 0.0
C2439 C 0.18924 0.6041 0.54215 0.0
C2440 C 0.13122 0.56374 0.52586 0.0
C2441 C 0.11875 0.58163 0.53186 0.0
C2442 C 0.16487 0.59573 0.53971 0.0
C2443 C 0.12991 0.60643 0.54177 0.0
C2444 C 0.20032 0.62575 0.55933 0.0
C2445 C 0.22331 0.59956 0.5265 0.0
N2446 N 0.15242 0.61278 0.54553 0.0
N2447 N 0.20104 0.59155 0.52646 0.0
H2448 H 0.76881 0.98431 0.74819 0.0
H2449 H 0.77385 0.90278 0.85222 0.0
H2450 H 0.7114 0.95293 0.78209 0.0
H2451 H 0.83066 0.9362 0.81873 0.0
H2452 H 0.75027 0.92 0.8262 0.0
H2453 H 0.79117 0.96442 0.77223 0.0
C2454 C 0.76086 0.97306 0.76056 0.0
C2455 C 0.73827 0.97051 0.76337 0.0
C2456 C 0.76792 0.92366 0.82465 0.0
C2457 C 0.76384 0.94793 0.79123 0.0
C2458 C 0.78138 0.91408 0.83968 0.0
C2459 C 0.80419 0.9181 0.83758 0.0
C2460 C 0.77742 0.93745 0.80757 0.0
C2461 C 0.81309 0.9325 0.82076 0.0
C2462 C 0.77366 0.96177 0.77436 0.0
C2463 C 0.72881 0.95551 0.77947 0.0
N2464 N 0.79969 0.9416 0.80638 0.0
N2465 N 0.7417 0.94494 0.79299 0.0
H2466 H 0.79845 0.97877 0.54555 0.0
H2467 H 0.67798 0.98997 0.49579 0.0
H2468 H 0.74461 0.91526 0.51394 0.0
H2469 H 0.73136 0.05354 0.52853 0.0
H2470 H 0.70214 0.96234 0.50242 0.0
H2471 H 0.77412 1.00645 0.53965 0.0
C2472 C 0.78149 0.97063 0.5374 0.0
C2473 C 0.77357 0.94463 0.53018 0.0
C2474 C 0.70859 0.98233 0.50816 0.0
C2475 C 0.74563 0.97627 0.52331 0.0
C2476 C 0.69477 0.99813 0.50448 0.0
C2477 C 0.70263 0.02415 0.51169 0.0
C2478 C 0.73049 0.99256 0.51912 0.0
C2479 C 0.72467 0.03363 0.52244 0.0
C2480 C 0.76761 0.98646 0.53402 0.0
C2481 C 0.75144 0.93517 0.51976 0.0
N2482 N 0.73781 0.01785 0.52587 0.0
N2483 N 0.73826 0.95099 0.5166 0.0
H2484 H 0.38116 0.50506 0.76065 0.0
H2485 H 0.37945 0.37019 0.79375 0.0
H2486 H 0.43771 0.48347 0.7915 0.0
H2487 H 0.32372 0.38271 0.75143 0.0
H2488 H 0.39961 0.41273 0.79449 0.0
H2489 H 0.35869 0.46222 0.75856 0.0
C2490 C 0.38892 0.4915 0.767 0.0
C2491 C 0.4116 0.49831 0.77625 0.0
C2492 C 0.38293 0.40636 0.78506 0.0
C2493 C 0.38575 0.44893 0.77402 0.0
C2494 C 0.37125 0.38179 0.78462 0.0
C2495 C 0.34946 0.37237 0.77273 0.0
C2496 C 0.37306 0.42234 0.77359 0.0
C2497 C 0.34022 0.38891 0.76121 0.0
C2498 C 0.37604 0.46694 0.76575 0.0
C2499 C 0.42046 0.47955 0.78414 0.0
N2500 N 0.35194 0.41292 0.76199 0.0
N2501 N 0.40767 0.45615 0.78291 0.0
H2502 H 0.2064 0.62442 0.23171 0.0
H2503 H 0.31475 0.72849 0.2948 0.0
H2504 H 0.26714 0.60659 0.25663 0.0
H2505 H 0.25086 0.74377 0.27983 0.0
H2506 H 0.29775 0.68354 0.28249 0.0
H2507 H 0.22297 0.66846 0.24877 0.0
C2508 C 0.22328 0.62978 0.24062 0.0
C2509 C 0.23537 0.6118 0.24285 0.0
C2510 C 0.28741 0.6967 0.28204 0.0
C2511 C 0.25431 0.66213 0.26281 0.0
C2512 C 0.29712 0.72224 0.28895 0.0
C2513 C 0.28421 0.73942 0.28693 0.0
C2514 C 0.26471 0.68869 0.27336 0.0
C2515 C 0.26137 0.73079 0.28049 0.0
C2516 C 0.23266 0.6549 0.2506 0.0
C2517 C 0.25719 0.61983 0.25458 0.0
N2518 N 0.25233 0.70594 0.27347 0.0
N2519 N 0.26598 0.64444 0.26416 0.0
H2520 H 0.52725 0.69345 0.43381 0.0
H2521 H 0.54644 0.61393 0.53743 0.0
H2522 H 0.54342 0.72802 0.51169 0.0
H2523 H 0.5497 0.58916 0.45902 0.0
H2524 H 0.54233 0.65475 0.52948 0.0
H2525 H 0.53171 0.65387 0.44354 0.0
C2526 C 0.5316 0.69275 0.453 0.0
C2527 C 0.53495 0.71432 0.47188 0.0
C2528 C 0.54407 0.64039 0.51406 0.0
C2529 C 0.5401 0.66859 0.4833 0.0
C2530 C 0.54658 0.61716 0.51865 0.0
C2531 C 0.54895 0.59823 0.49894 0.0
C2532 C 0.54337 0.64451 0.48952 0.0
C2533 C 0.54824 0.60325 0.47484 0.0
C2534 C 0.53426 0.67008 0.45856 0.0
C2535 C 0.54068 0.712 0.49643 0.0
N2536 N 0.54551 0.62569 0.47085 0.0
N2537 N 0.543 0.68965 0.50142 0.0
H2538 H 0.66127 0.3377 0.68191 0.0
H2539 H 0.76982 0.28179 0.68699 0.0
H2540 H 0.68148 0.29323 0.61849 0.0
H2541 H 0.75194 0.32898 0.75008 0.0
H2542 H 0.73817 0.28692 0.6615 0.0
H2543 H 0.69468 0.33573 0.70707 0.0
C2544 C 0.67274 0.32766 0.67321 0.0
C2545 C 0.6684 0.3156 0.64796 0.0
C2546 C 0.74114 0.29616 0.68095 0.0
C2547 C 0.70678 0.31314 0.67678 0.0
C2548 C 0.7593 0.29324 0.69561 0.0
C2549 C 0.76349 0.3045 0.72108 0.0
C2550 C 0.72691 0.31057 0.69167 0.0
C2551 C 0.74923 0.31938 0.73083 0.0
C2552 C 0.69184 0.3265 0.68761 0.0
C2553 C 0.68397 0.30282 0.63783 0.0
N2554 N 0.73161 0.32185 0.71623 0.0
N2555 N 0.70231 0.30187 0.65221 0.0
H2556 H 0.03042 0.35079 0.01396 0.0
H2557 H 0.05253 0.47419 0.95664 0.0
H2558 H 0.04285 0.35185 0.93784 0.0
H2559 H 0.06048 0.47822 0.03577 0.0
H2560 H 0.04371 0.42866 0.9497 0.0
H2561 H 0.03687 0.39661 0.02261 0.0
C2562 C 0.03458 0.36058 0.99908 0.0
C2563 C 0.03617 0.34727 0.97511 0.0
C2564 C 0.04716 0.43939 0.96863 0.0
C2565 C 0.04327 0.39977 0.98488 0.0
C2566 C 0.05208 0.46542 0.9726 0.0
C2567 C 0.05683 0.48004 0.99681 0.0
C2568 C 0.04715 0.42761 0.98901 0.0
C2569 C 0.05639 0.46766 0.01681 0.0
C2570 C 0.03825 0.38676 1.00407 0.0
C2571 C 0.04154 0.36112 0.95663 0.0
N2572 N 0.05161 0.44215 0.01249 0.0
N2573 N 0.04476 0.38643 0.96187 0.0
H2574 H 0.05877 0.8026 0.18343 0.0
H2575 H 0.94437 0.8309 0.22657 0.0
H2576 H 0.02013 0.84196 0.14478 0.0
H2577 H 0.97502 0.7768 0.25223 0.0
H2578 H 0.97293 0.83736 0.19822 0.0
H2579 H 0.02971 0.79585 0.21119 0.0
C2580 C 0.04426 0.80996 0.18085 0.0
C2581 C 0.04195 0.82286 0.16167 0.0
C2582 C 0.97336 0.82406 0.21006 0.0
C2583 C 0.00851 0.81519 0.19348 0.0
C2584 C 0.95692 0.8202 0.22617 0.0
C2585 C 0.9572 0.80336 0.24211 0.0
C2586 C 0.99037 0.81114 0.20989 0.0
C2587 C 0.97425 0.79039 0.24083 0.0
C2588 C 0.0276 0.80599 0.19664 0.0
C2589 C 0.02266 0.83185 0.15922 0.0
N2590 N 0.99012 0.79464 0.22518 0.0
N2591 N 1.00676 0.82791 0.17493 0.0
H2592 H 0.57485 0.34687 0.14865 0.0
H2593 H 0.52866 0.3612 0.0142 0.0
H2594 H 0.50962 0.308 0.11254 0.0
H2595 H 0.58592 0.41193 0.05862 0.0
H2596 H 0.52373 0.33771 0.04765 0.0
H2597 H 0.58107 0.3679 0.11378 0.0
C2598 C 0.56181 0.34281 0.13342 0.0
C2599 C 0.54166 0.32573 0.13356 0.0
C2600 C 0.53745 0.35391 0.04999 0.0
C2601 C 0.54877 0.34949 0.09341 0.0
C2602 C 0.54038 0.36713 0.03083 0.0
C2603 C 0.55766 0.38855 0.03375 0.0
C2604 C 0.55203 0.36209 0.07207 0.0
C2605 C 0.57226 0.39563 0.05576 0.0
C2606 C 0.56537 0.3548 0.1135 0.0
C2607 C 0.52534 0.32118 0.11329 0.0
N2608 N 0.56909 0.38248 0.07409 0.0
N2609 N 0.52929 0.33292 0.09398 0.0
H2610 H 0.02063 0.28521 0.35939 0.0
H2611 H 0.98417 0.3574 0.25877 0.0
H2612 H 0.0675 0.3246 0.31751 0.0
H2613 H 0.93951 0.29528 0.27876 0.0
H2614 H 0.01479 0.34845 0.28281 0.0
H2615 H 0.99026 0.29153 0.33267 0.0
C2616 C 0.02451 0.29502 0.34447 0.0
C2617 C 0.04658 0.30434 0.34061 0.0
C2618 C 0.99827 0.33677 0.28182 0.0
C2619 C 0.01202 0.31196 0.3103 0.0
C2620 C 0.98077 0.34179 0.26803 0.0
C2621 C 0.95912 0.32718 0.26678 0.0
C2622 C 0.99406 0.31719 0.2947 0.0
C2623 C 0.95577 0.30744 0.27958 0.0
C2624 C 1.0072 0.2986 0.32923 0.0
C2625 C 0.0507 0.31697 0.32103 0.0
N2626 N 0.97301 0.30314 0.29312 0.0
N2627 N 0.03357 0.32062 0.30673 0.0
H2628 H 0.98566 0.70042 0.59386 0.0
H2629 H 0.06415 0.60657 0.59874 0.0
H2630 H 0.027 0.70079 0.66014 0.0
H2631 H 0.01256 0.59726 0.53894 0.0
H2632 H 0.04973 0.64001 0.62257 0.0
H2633 H 0.99401 0.66119 0.57413 0.0
C2634 C 0.99625 0.6921 0.60436 0.0
C2635 C 1.00587 0.70404 0.62852 0.0
C2636 C 0.04153 0.6305 0.60426 0.0
C2637 C 0.0157 0.65941 0.60607 0.0
C2638 C 0.04979 0.61148 0.59066 0.0
C2639 C 0.03993 0.59957 0.56657 0.0
C2640 C 0.02338 0.63759 0.59357 0.0
C2641 C 0.02116 0.60643 0.55712 0.0
C2642 C 1.00104 0.66972 0.59311 0.0
C2643 C 0.01939 0.69236 0.64135 0.0
N2644 N 0.01366 0.62515 0.57053 0.0
N2645 N 0.02414 0.67084 0.62984 0.0
H2646 H 0.70419 0.82187 0.89919 0.0
H2647 H 0.77105 0.86106 0.78786 0.0
H2648 H 0.67225 0.83651 0.83345 0.0
H2649 H 0.78869 0.81242 0.83376 0.0
H2650 H 0.73907 0.86455 0.81162 0.0
H2651 H 0.73972 0.83036 0.88188 0.0
C2652 C 0.7047 0.827 0.88117 0.0
C2653 C 0.68528 0.82803 0.86747 0.0
C2654 C 0.75018 0.85338 0.81656 0.0
C2655 C 0.72577 0.83841 0.848 0.0
C2656 C 0.76826 0.85137 0.80306 0.0
C2657 C 0.78169 0.83553 0.80826 0.0
C2658 C 0.74628 0.84016 0.83577 0.0
C2659 C 0.77809 0.82402 0.8286 0.0
C2660 C 0.72494 0.83194 0.8714 0.0
C2661 C 0.68684 0.83502 0.84434 0.0
N2662 N 0.7606 0.82638 0.84151 0.0
N2663 N 0.7068 0.83998 0.83528 0.0
H2664 H 0.45081 0.52972 0.68288 0.0
H2665 H 0.5515 0.59418 0.61255 0.0
H2666 H 0.49823 0.59699 0.71987 0.0
H2667 H 0.50646 0.52302 0.58271 0.0
H2668 H 0.53291 0.59692 0.651 0.0
H2669 H 0.47107 0.5285 0.6464 0.0
C2670 C 0.46555 0.54438 0.68357 0.0
C2671 C 0.47248 0.56352 0.70516 0.0
C2672 C 0.52711 0.58066 0.63609 0.0
C2673 C 0.49642 0.56219 0.66189 0.0
C2674 C 0.53786 0.57899 0.61394 0.0
C2675 C 0.53099 0.55815 0.59385 0.0
C2676 C 0.50897 0.56146 0.63857 0.0
C2677 C 0.51273 0.53949 0.59725 0.0
C2678 C 0.47724 0.5436 0.66238 0.0
C2679 C 0.49199 0.58173 0.70407 0.0
N2680 N 0.50257 0.54163 0.61879 0.0
N2681 N 0.50308 0.58066 0.68298 0.0
H2682 H 0.80106 0.19635 0.98491 0.0
H2683 H 0.74731 0.23717 0.87157 0.0
H2684 H 0.74648 0.14511 0.93618 0.0
H2685 H 0.77441 0.28922 0.94036 0.0
H2686 H 0.74757 0.20247 0.89282 0.0
H2687 H 0.79372 0.23012 0.96611 0.0
C2688 C 0.78766 0.19213 0.97004 0.0
C2689 C 0.77445 0.16783 0.96192 0.0
C2690 C 0.75298 0.22148 0.90336 0.0
C2691 C 0.76589 0.20653 0.94052 0.0
C2692 C 0.75277 0.24118 0.89131 0.0
C2693 C 0.76081 0.2659 0.90438 0.0
C2694 C 0.76187 0.22668 0.92838 0.0
C2695 C 0.76795 0.27035 0.9298 0.0
C2696 C 0.78331 0.2115 0.95957 0.0
C2697 C 0.7571 0.16358 0.94287 0.0
N2698 N 0.76871 0.25087 0.94092 0.0
N2699 N 0.75342 0.18275 0.93258 0.0
H2700 H 0.1379 0.48651 0.18907 0.0
H2701 H 0.1296 0.5608 0.08057 0.0
H2702 H 0.19471 0.52747 0.16085 0.0
H2703 H 0.074 0.50615 0.09535 0.0
H2704 H 0.15332 0.54929 0.11098 0.0
H2705 H 0.11396 0.49269 0.15493 0.0
C2706 C 0.1454 0.4964 0.17547 0.0
C2707 C 0.16833 0.50677 0.17801 0.0
C2708 C 0.13594 0.53975 0.10755 0.0
C2709 C 0.14102 0.51424 0.13926 0.0
C2710 C 0.12231 0.54643 0.09025 0.0
C2711 C 0.09973 0.53444 0.08535 0.0
C2712 C 0.12694 0.52111 0.12029 0.0
C2713 C 0.09129 0.51599 0.0986 0.0
C2714 C 0.1317 0.50002 0.15606 0.0
C2715 C 0.17711 0.51936 0.1598 0.0
N2716 N 0.10491 0.50993 0.11554 0.0
N2717 N 0.16341 0.52301 0.14139 0.0
H2718 H 0.84387 0.89457 0.46993 0.0
H2719 H 0.81028 0.78719 0.3469 0.0
H2720 H 0.80052 0.82316 0.47048 0.0
H2721 H 0.82471 0.86608 0.34783 0.0
H2722 H 0.8155 0.79686 0.39291 0.0
H2723 H 0.84624 0.88061 0.42578 0.0
C2724 C 0.83493 0.87585 0.46084 0.0
C2725 C 0.82161 0.86017 0.4739 0.0
C2726 C 0.81779 0.81196 0.38292 0.0
C2727 C 0.82442 0.84408 0.42317 0.0
C2728 C 0.81501 0.80648 0.35682 0.0
C2729 C 0.81739 0.82596 0.3438 0.0
C2730 C 0.82315 0.837 0.39574 0.0
C2731 C 0.82294 0.85062 0.35731 0.0
C2732 C 0.83633 0.86792 0.4356 0.0
C2733 C 0.81072 0.83598 0.46106 0.0
N2734 N 0.82572 0.85544 0.38252 0.0
N2735 N 0.81222 0.82869 0.43627 0.0
H2736 H 0.45929 0.57796 0.86762 0.0
H2737 H 0.56282 0.5559 0.95279 0.0
H2738 H 0.51951 0.56585 0.83823 0.0
H2739 H 0.49896 0.55764 0.97813 0.0
H2740 H 0.54817 0.56049 0.91137 0.0
H2741 H 0.47418 0.57252 0.90844 0.0
C2742 C 0.47566 0.57439 0.8696 0.0
C2743 C 0.48793 0.57252 0.84885 0.0
C2744 C 0.53729 0.55976 0.92596 0.0
C2745 C 0.50545 0.56603 0.89645 0.0
C2746 C 0.5457 0.55693 0.94973 0.0
C2747 C 0.53219 0.55596 0.9694 0.0
C2748 C 0.5152 0.56216 0.92152 0.0
C2749 C 0.51017 0.55805 0.96385 0.0
C2750 C 0.48421 0.57111 0.89309 0.0
C2751 C 0.50914 0.56755 0.85324 0.0
N2752 N 0.50256 0.56107 0.9409 0.0
N2753 N 0.51706 0.56458 0.87614 0.0
H2754 H 0.77441 0.20961 0.06669 0.0
H2755 H 0.84752 0.26826 0.19722 0.0
H2756 H 0.83464 0.18831 0.08723 0.0
H2757 H 0.77706 0.26275 0.1861 0.0
H2758 H 0.84612 0.24667 0.15395 0.0
H2759 H 0.77862 0.23721 0.10754 0.0
C2760 C 0.78868 0.21096 0.07967 0.0
C2761 C 0.80412 0.19649 0.07366 0.0
C2762 C 0.83104 0.25037 0.16099 0.0
C2763 C 0.80898 0.22804 0.12032 0.0
C2764 C 0.8318 0.26277 0.1856 0.0
C2765 C 0.81232 0.26717 0.19523 0.0
C2766 C 0.81073 0.24269 0.14589 0.0
C2767 C 0.79242 0.25954 0.17942 0.0
C2768 C 0.79098 0.22662 0.103 0.0
C2769 C 0.82227 0.19901 0.09121 0.0
N2770 N 0.79212 0.24765 0.15547 0.0
N2771 N 0.82419 0.21447 0.11385 0.0
H2772 H 0.1581 0.51958 0.28238 0.0
H2773 H 0.10122 0.61204 0.37086 0.0
H2774 H 0.18962 0.59729 0.31134 0.0
H2775 H 0.08487 0.53231 0.36509 0.0
H2776 H 0.12956 0.60745 0.34229 0.0
H2777 H 0.1271 0.5245 0.30661 0.0
C2778 C 0.15848 0.53767 0.29382 0.0
C2779 C 0.17649 0.55802 0.29503 0.0
C2780 C 0.1196 0.59097 0.34713 0.0
C2781 C 0.14106 0.56381 0.3224 0.0
C2782 C 0.10337 0.59356 0.36317 0.0
C2783 C 0.09084 0.5725 0.3702 0.0
C2784 C 0.12301 0.56714 0.33792 0.0
C2785 C 0.09433 0.54896 0.36009 0.0
C2786 C 0.14082 0.54045 0.30762 0.0
C2787 C 0.17614 0.58106 0.31008 0.0
N2788 N 0.11014 0.54689 0.34444 0.0
N2789 N 0.15864 0.58337 0.32316 0.0
H2790 H 0.81828 0.9016 0.61862 0.0
H2791 H 0.81012 0.78957 0.68967 0.0
H2792 H 0.82948 0.83019 0.58423 0.0
H2793 H 0.82713 0.86672 0.72831 0.0
H2794 H 0.81168 0.80308 0.64999 0.0
H2795 H 0.81582 0.88788 0.65817 0.0
C2796 C 0.82004 0.88295 0.61932 0.0
C2797 C 0.82409 0.86698 0.59809 0.0
C2798 C 0.8151 0.81704 0.66715 0.0
C2799 C 0.82125 0.85126 0.64326 0.0
C2800 C 0.81409 0.80937 0.68978 0.0
C2801 C 0.81853 0.8271 0.71227 0.0
C2802 C 0.8202 0.8426 0.66699 0.0
C2803 C 0.82379 0.85249 0.71137 0.0
C2804 C 0.81879 0.87524 0.64194 0.0
C2805 C 0.82638 0.8431 0.60016 0.0
N2806 N 0.82434 0.85952 0.68904 0.0
N2807 N 0.82484 0.83591 0.62235 0.0
H2808 H 0.77917 0.49862 0.51035 0.0
H2809 H 0.72386 0.59102 0.60165 0.0
H2810 H 0.79874 0.52157 0.58953 0.0
H2811 H 0.70356 0.56573 0.52283 0.0
H2812 H 0.75388 0.5691 0.59716 0.0
H2813 H 0.7536 0.52613 0.51417 0.0
C2814 C 0.77817 0.50953 0.52854 0.0
C2815 C 0.79101 0.50766 0.54968 0.0
C2816 C 0.74296 0.56852 0.58082 0.0
C2817 C 0.76171 0.53922 0.55422 0.0
C2818 C 0.72594 0.58116 0.58335 0.0
C2819 C 0.71111 0.57997 0.56261 0.0
C2820 C 0.74516 0.55468 0.55736 0.0
C2821 C 0.71442 0.56676 0.53937 0.0
C2822 C 0.76356 0.52526 0.53071 0.0
C2823 C 0.78908 0.52234 0.57275 0.0
N2824 N 0.73099 0.55452 0.5374 0.0
N2825 N 0.7746 0.53741 0.57443 0.0
H2826 H 0.21945 0.19363 0.5217 0.0
H2827 H 0.13198 0.0624 0.47918 0.0
H2828 H 0.23801 0.12781 0.48338 0.0
H2829 H 0.127 0.11934 0.54204 0.0
H2830 H 0.16795 0.08814 0.47362 0.0
H2831 H 0.18202 0.16862 0.52169 0.0
C2832 C 0.2156 0.17397 0.51303 0.0
C2833 C 0.23192 0.16272 0.50274 0.0
C2834 C 0.15887 0.09487 0.48858 0.0
C2835 C 0.18912 0.13405 0.50264 0.0
C2836 C 0.13842 0.08018 0.49184 0.0
C2837 C 0.12662 0.08844 0.51142 0.0
C2838 C 0.16723 0.11819 0.50464 0.0
C2839 C 0.13554 0.11198 0.52686 0.0
C2840 C 0.19426 0.1597 0.51314 0.0
C2841 C 0.22595 0.13716 0.49173 0.0
N2842 N 0.15527 0.12601 0.52311 0.0
N2843 N 0.205 0.12361 0.49202 0.0
H2844 H 0.22955 0.95201 0.82521 0.0
H2845 H 0.28376 0.84778 0.74298 0.0
H2846 H 0.22839 0.94607 0.7459 0.0
H2847 H 0.27949 0.85882 0.82187 0.0
H2848 H 0.26576 0.88322 0.74177 0.0
H2849 H 0.24888 0.9186 0.82246 0.0
C2850 C 0.23326 0.94383 0.80697 0.0
C2851 C 0.22682 0.95269 0.78581 0.0
C2852 C 0.26891 0.87803 0.7594 0.0
C2853 C 0.25006 0.91261 0.78249 0.0
C2854 C 0.27947 0.85774 0.76013 0.0
C2855 C 0.28378 0.85003 0.78273 0.0
C2856 C 0.26226 0.89096 0.78135 0.0
C2857 C 0.27701 0.86379 0.80399 0.0
C2858 C 0.24455 0.92436 0.80546 0.0
C2859 C 0.23268 0.9404 0.76295 0.0
N2860 N 0.26689 0.88306 0.80275 0.0
N2861 N 0.24379 0.92127 0.76194 0.0
H2862 H 0.40388 0.92711 0.02766 0.0
H2863 H 0.50601 0.03928 0.02457 0.0
H2864 H 0.39741 1.00183 0.02578 0.0
H2865 H 0.51114 0.96281 0.01568 0.0
H2866 H 0.4659 0.02551 0.02194 0.0
H2867 H 0.44284 0.93938 0.02117 0.0
C2868 C 0.41065 0.94611 0.02586 0.0
C2869 C 0.39744 0.96356 0.02749 0.0
C2870 C 0.47571 0.01165 0.02018 0.0
C2871 C 0.44201 0.97768 0.01996 0.0
C2872 C 0.49866 0.01952 0.02146 0.0
C2873 C 0.51184 1.00209 0.01989 0.0
C2874 C 0.46595 0.98622 0.01803 0.0
C2875 C 0.50145 0.97676 0.01674 0.0
C2876 C 0.43288 0.95306 0.02202 0.0
C2877 C 0.40704 0.98784 0.02481 0.0
N2878 N 0.47907 0.96956 0.0161 0.0
N2879 N 0.42881 0.99424 0.02134 0.0
H2880 H 0.90382 0.65068 0.80278 0.0
H2881 H 0.79985 0.63392 0.70248 0.0
H2882 H 0.85849 0.57974 0.77142 0.0
H2883 H 0.83676 0.70543 0.74484 0.0
H2884 H 0.82281 0.61355 0.72572 0.0
H2885 H 0.88035 0.67128 0.78069 0.0
C2886 C 0.88887 0.63947 0.79142 0.0
C2887 C 0.8832 0.61346 0.78879 0.0
C2888 C 0.82589 0.63373 0.72991 0.0
C2889 C 0.85649 0.63678 0.76328 0.0
C2890 C 0.81294 0.6453 0.7165 0.0
C2891 C 0.81646 0.67135 0.72185 0.0
C2892 C 0.84256 0.64837 0.74857 0.0
C2893 C 0.83348 0.68529 0.74035 0.0
C2894 C 0.87551 0.65121 0.77878 0.0
C2895 C 0.86359 0.59984 0.77389 0.0
N2896 N 0.84592 0.67365 0.75305 0.0
N2897 N 0.85103 0.61165 0.76155 0.0
H2898 H 0.83238 0.62074 1.00377 0.0
H2899 H 0.95214 0.60706 0.05314 0.0
H2900 H 0.88609 0.68329 0.0383 0.0
H2901 H 0.89839 0.5444 0.01909 0.0
H2902 H 0.92859 0.63532 0.0465 0.0
H2903 H 0.85671 0.59259 0.0078 0.0
C2904 C 0.84932 0.62858 0.01213 0.0
C2905 C 0.85717 0.65443 0.02083 0.0
C2906 C 0.92194 0.61539 0.04045 0.0
C2907 C 0.88511 0.62225 0.02557 0.0
C2908 C 0.93542 0.59923 0.04413 0.0
C2909 C 0.92724 0.57327 0.03667 0.0
C2910 C 0.90006 0.6056 0.02922 0.0
C2911 C 0.90531 0.56423 0.02544 0.0
C2912 C 0.8632 0.61247 0.01444 0.0
C2913 C 0.87929 0.6635 0.0314 0.0
N2914 N 0.89249 0.58037 0.02206 0.0
N2915 N 0.89245 0.64743 0.03355 0.0
H2916 H 0.25189 0.08958 0.79295 0.0
H2917 H 0.25365 0.22468 0.76037 0.0
H2918 H 0.19514 0.11159 0.7632 0.0
H2919 H 0.3094 0.212 0.80252 0.0
H2920 H 0.23346 0.18214 0.75958 0.0
H2921 H 0.27445 0.13233 0.79484 0.0
C2922 C 0.24412 0.1032 0.78676 0.0
C2923 C 0.22135 0.09655 0.77792 0.0
C2924 C 0.25015 0.18847 0.76898 0.0
C2925 C 0.24729 0.14585 0.77994 0.0
C2926 C 0.26185 0.21304 0.76945 0.0
C2927 C 0.28366 0.22243 0.78131 0.0
C2928 C 0.26002 0.17244 0.78037 0.0
C2929 C 0.2929 0.20584 0.79276 0.0
C2930 C 0.25705 0.12772 0.78791 0.0
C2931 C 0.21246 0.11539 0.77026 0.0
N2932 N 0.28116 0.18182 0.79194 0.0
N2933 N 0.2253 0.13875 0.77138 0.0
H2934 H 0.41006 0.96877 0.25007 0.0
H2935 H 0.30597 0.85775 0.24688 0.0
H2936 H 0.35213 0.98335 0.28387 0.0
H2937 H 0.37296 0.85092 0.26171 0.0
H2938 H 0.32003 0.90295 0.24996 0.0
H2939 H 0.39365 0.92405 0.24325 0.0
C2940 C 0.39374 0.96259 0.25574 0.0
C2941 C 0.38246 0.97978 0.26766 0.0
C2942 C 0.33155 0.8915 0.25272 0.0
C2943 C 0.36365 0.92874 0.25968 0.0
C2944 C 0.32359 0.86592 0.25113 0.0
C2945 C 0.33834 0.85124 0.25565 0.0
C2946 C 0.35444 0.90187 0.25751 0.0
C2947 C 0.36109 0.8621 0.25951 0.0
C2948 C 0.3845 0.9371 0.25196 0.0
C2949 C 0.3614 0.97067 0.27473 0.0
N2950 N 0.3685 0.88688 0.26044 0.0
N2951 N 0.35258 0.94565 0.27056 0.0
H2952 H 0.60092 0.39897 0.61439 0.0
H2953 H 0.57789 0.47837 0.51228 0.0
H2954 H 0.57909 0.36333 0.53759 0.0
H2955 H 0.57638 0.50294 0.59109 0.0
H2956 H 0.58194 0.43735 0.5197 0.0
H2957 H 0.5965 0.43865 0.60492 0.0
C2958 C 0.59537 0.39946 0.59547 0.0
C2959 C 0.59038 0.37756 0.57683 0.0
C2960 C 0.58058 0.45171 0.53532 0.0
C2961 C 0.58527 0.4234 0.56573 0.0
C2962 C 0.5781 0.47505 0.53105 0.0
C2963 C 0.57625 0.49399 0.55103 0.0
C2964 C 0.58187 0.44752 0.55981 0.0
C2965 C 0.57744 0.48885 0.57507 0.0
C2966 C 0.59271 0.42218 0.59008 0.0
C2967 C 0.58311 0.37961 0.55264 0.0
N2968 N 0.5802 0.46633 0.57875 0.0
N2969 N 0.58086 0.40203 0.54778 0.0
H2970 H 0.45724 0.72734 0.34983 0.0
H2971 H 0.3694 0.81284 0.34901 0.0
H2972 H 0.46013 0.79201 0.40764 0.0
H2973 H 0.36103 0.74116 0.29991 0.0
H2974 H 0.4022 0.80575 0.37098 0.0
H2975 H 0.4223 0.73258 0.33116 0.0
C2976 C 0.45053 0.74262 0.35871 0.0
C2977 C 0.46183 0.75925 0.38042 0.0
C2978 C 0.39321 0.79156 0.35536 0.0
C2979 C 0.42149 0.76549 0.35885 0.0
C2980 C 0.37436 0.79555 0.34277 0.0
C2981 C 0.36268 0.77794 0.32182 0.0
C2982 C 0.40056 0.76973 0.34708 0.0
C2983 C 0.36996 0.75582 0.31503 0.0
C2984 C 0.43047 0.74558 0.34801 0.0
C2985 C 0.4521 0.77868 0.39096 0.0
N2986 N 0.38843 0.75246 0.32739 0.0
N2987 N 0.43264 0.78133 0.38002 0.0
H2988 H 0.07609 0.74208 0.10809 0.0
H2989 H 0.06902 0.61407 0.01223 0.0
H2990 H 0.10654 0.74249 0.03979 0.0
H2991 H 0.07306 0.62047 0.09175 0.0
H2992 H 0.0775 0.66009 0.01876 0.0
H2993 H 0.06844 0.69649 0.09903 0.0
C2994 C 0.08093 0.73263 0.091 0.0
C2995 C 0.09201 0.74633 0.07471 0.0
C2996 C 0.0767 0.65135 0.03473 0.0
C2997 C 0.08315 0.69371 0.06416 0.0
C2998 C 0.07207 0.62513 0.03103 0.0
C2999 C 0.071 0.6134 0.05152 0.0
C3000 C 0.0794 0.66586 0.05905 0.0
C3001 C 0.07411 0.62868 0.07543 0.0
C3002 C 0.07669 0.70653 0.08593 0.0
C3003 C 0.098 0.73278 0.05293 0.0
N3004 N 0.07802 0.65395 0.07851 0.0
N3005 N 0.09342 0.70726 0.04823 0.0
H3006 H 0.06606 0.26426 0.85981 0.0
H3007 H 0.19585 0.30977 0.8468 0.0
H3008 H 0.11585 0.29619 0.92262 0.0
H3009 H 0.14626 0.27469 0.7844 0.0
H3010 H 0.16707 0.30377 0.87497 0.0
H3011 H 0.09533 0.26714 0.83199 0.0
C3012 C 0.08313 0.27182 0.86778 0.0
C3013 C 0.08842 0.28005 0.89365 0.0
C3014 C 0.1625 0.29731 0.85511 0.0
C3015 C 0.12214 0.28346 0.86181 0.0
C3016 C 0.17898 0.30059 0.83899 0.0
C3017 C 0.17355 0.29291 0.81308 0.0
C3018 C 0.14034 0.28625 0.84533 0.0
C3019 C 0.15126 0.28138 0.80415 0.0
C3020 C 0.09987 0.27346 0.85187 0.0
C3021 C 0.11091 0.28965 0.90284 0.0
N3022 N 0.13555 0.27851 0.82019 0.0
N3023 N 0.12687 0.29115 0.88697 0.0
H3024 H 0.58786 0.75129 0.9138 0.0
H3025 H 0.59411 0.7366 0.05597 0.0
H3026 H 0.62756 0.80701 0.97443 0.0
H3027 H 0.55241 0.68225 0.99586 0.0
H3028 H 0.60503 0.76381 0.02673 0.0
H3029 H 0.574 0.72606 0.94373 0.0
C3030 C 0.59374 0.75816 0.93337 0.0
C3031 C 0.60893 0.78126 0.94161 0.0
C3032 C 0.59336 0.746 0.01997 0.0
C3033 C 0.593 0.75265 0.97597 0.0
C3034 C 0.58698 0.73059 0.03671 0.0
C3035 C 0.57253 0.70706 0.02826 0.0
C3036 C 0.58522 0.73777 0.99463 0.0
C3037 C 0.56391 0.70008 1.00305 0.0
C3038 C 0.58574 0.74382 0.95047 0.0
C3039 C 0.61588 0.7893 0.96721 0.0
N3040 N 0.57052 0.71527 0.98709 0.0
N3041 N 0.60788 0.77502 0.98346 0.0
H3042 H 0.09832 0.76698 0.66579 0.0
H3043 H 0.15619 0.74041 0.78881 0.0
H3044 H 0.07093 0.77597 0.73625 0.0
H3045 H 0.18053 0.72974 0.71678 0.0
H3046 H 0.12436 0.75276 0.77039 0.0
H3047 H 0.12899 0.75418 0.68501 0.0
C3048 C 0.09887 0.76649 0.68541 0.0
C3049 C 0.082 0.77247 0.69942 0.0
C3050 C 0.13662 0.74756 0.75863 0.0
C3051 C 0.11705 0.75747 0.72156 0.0
C3052 C 0.15462 0.7403 0.76907 0.0
C3053 C 0.17101 0.73424 0.75428 0.0
C3054 C 0.13512 0.74869 0.73328 0.0
C3055 C 0.16838 0.7346 0.72887 0.0
C3056 C 0.11636 0.75904 0.69636 0.0
C3057 C 0.08363 0.77155 0.72479 0.0
N3058 N 0.15086 0.74185 0.71923 0.0
N3059 N 0.10082 0.76403 0.73505 0.0
H3060 H 0.10074 0.4027 0.36856 0.0
H3061 H 0.11277 0.48558 0.50583 0.0
H3062 H 0.13028 0.38375 0.43332 0.0
H3063 H 0.06543 0.48774 0.44577 0.0
H3064 H 0.12622 0.45428 0.47768 0.0
H3065 H 0.09554 0.44082 0.39493 0.0
C3066 C 0.10648 0.40676 0.38823 0.0
C3067 C 0.11557 0.38985 0.39888 0.0
C3068 C 0.11293 0.46171 0.47072 0.0
C3069 C 0.10958 0.43321 0.42902 0.0
C3070 C 0.10509 0.4794 0.48682 0.0
C3071 C 0.0875 0.4888 0.47836 0.0
C3072 C 0.10335 0.45369 0.44592 0.0
C3073 C 0.07877 0.48074 0.45325 0.0
C3074 C 0.10339 0.42843 0.40326 0.0
C3075 C 0.12286 0.39612 0.42444 0.0
N3076 N 0.08673 0.46356 0.43794 0.0
N3077 N 0.1195 0.41721 0.43872 0.0
H3078 H 0.46266 0.26433 0.23086 0.0
H3079 H 0.33734 0.26907 0.2144 0.0
H3080 H 0.42655 0.25508 0.15875 0.0
H3081 H 0.36649 0.25215 0.2803 0.0
H3082 H 0.36909 0.2612 0.19286 0.0
H3083 H 0.42751 0.25797 0.24911 0.0
C3084 C 0.44734 0.26094 0.21887 0.0
C3085 C 0.44752 0.26059 0.19331 0.0
C3086 C 0.36851 0.25889 0.21192 0.0
C3087 C 0.40733 0.25336 0.21406 0.0
C3088 C 0.35051 0.26357 0.22421 0.0
C3089 C 0.34999 0.26213 0.24927 0.0
C3090 C 0.38619 0.25314 0.22501 0.0
C3091 C 0.36684 0.2541 0.26111 0.0
C3092 C 0.42728 0.25709 0.22926 0.0
C3093 C 0.42718 0.25574 0.17859 0.0
N3094 N 0.38463 0.25043 0.24901 0.0
N3095 N 0.40792 0.25266 0.18923 0.0
H3096 H 0.62341 0.47422 0.3362 0.0
H3097 H 0.61671 0.56948 0.46468 0.0
H3098 H 0.66321 0.54966 0.35411 0.0
H3099 H 0.5758 0.49483 0.44211 0.0
H3100 H 0.63415 0.56328 0.42565 0.0
H3101 H 0.60644 0.48215 0.37482 0.0
C3102 C 0.62869 0.4926 0.34814 0.0
C3103 C 0.64505 0.51119 0.34124 0.0
C3104 C 0.62132 0.54824 0.42914 0.0
C3105 C 0.62515 0.52054 0.38695 0.0
C3106 C 0.61127 0.55174 0.45165 0.0
C3107 C 0.59436 0.53277 0.45719 0.0
C3108 C 0.61474 0.52545 0.41156 0.0
C3109 C 0.5884 0.51028 0.43904 0.0
C3110 C 0.61884 0.49711 0.37048 0.0
C3111 C 0.65075 0.53458 0.35814 0.0
N3112 N 0.59845 0.50734 0.41744 0.0
N3113 N 0.64096 0.53848 0.37998 0.0
H3114 H 0.3413 0.94322 0.10952 0.0
H3115 H 0.32273 0.80932 0.14411 0.0
H3116 H 0.28753 0.88095 0.07461 0.0
H3117 H 0.37588 0.87242 0.17863 0.0
H3118 H 0.30613 0.83668 0.12302 0.0
H3119 H 0.35037 0.91934 0.13975 0.0
C3120 C 0.33121 0.9246 0.10844 0.0
C3121 C 0.31389 0.91385 0.08931 0.0
C3122 C 0.32132 0.84458 0.13538 0.0
C3123 C 0.32439 0.88624 0.12359 0.0
C3124 C 0.33078 0.82899 0.14743 0.0
C3125 C 0.35092 0.83857 0.16275 0.0
C3126 C 0.33212 0.8699 0.13868 0.0
C3127 C 0.36065 0.86416 0.16644 0.0
C3128 C 0.33641 0.91095 0.12569 0.0
C3129 C 0.30114 0.88984 0.08898 0.0
N3130 N 0.35125 0.87889 0.15432 0.0
N3131 N 0.3069 0.87663 0.10563 0.0
H3132 H 0.92444 0.51781 0.88378 0.0
H3133 H 0.04186 0.58915 0.95979 0.0
H3134 H 0.96013 0.58917 0.872 0.0
H3135 H 0.01103 0.51136 0.95449 0.0
H3136 H 0.01217 0.59132 0.92898 0.0
H3137 H 0.95516 0.5177 0.91336 0.0
C3138 C 0.93859 0.53366 0.88769 0.0
C3139 C 0.93975 0.55344 0.87527 0.0
C3140 C 0.0121 0.57376 0.93447 0.0
C3141 C 0.97526 0.55326 0.90887 0.0
C3142 C 0.02911 0.57248 0.9518 0.0
C3143 C 0.02859 0.55016 0.95992 0.0
C3144 C 0.99467 0.55258 0.92548 0.0
C3145 C 0.01174 0.52909 0.94915 0.0
C3146 C 0.95627 0.53347 0.9044 0.0
C3147 C 0.95859 0.57347 0.8811 0.0
N3148 N 0.99537 0.53088 0.9327 0.0
N3149 N 0.9757 0.57282 0.89743 0.0
H3150 H 0.29485 0.19949 0.58635 0.0
H3151 H 0.31854 0.3085 0.70857 0.0
H3152 H 0.31266 0.27739 0.58249 0.0
H3153 H 0.30661 0.22977 0.70785 0.0
H3154 H 0.31223 0.29867 0.66265 0.0
H3155 H 0.29479 0.21136 0.63096 0.0
C3156 C 0.29879 0.21918 0.59489 0.0
C3157 C 0.30407 0.23746 0.58061 0.0
C3158 C 0.31076 0.28359 0.67261 0.0
C3159 C 0.3041 0.25132 0.63223 0.0
C3160 C 0.31418 0.28918 0.69871 0.0
C3161 C 0.31272 0.26982 0.7118 0.0
C3162 C 0.30606 0.25853 0.65981 0.0
C3163 C 0.30767 0.24516 0.69836 0.0
C3164 C 0.29871 0.22598 0.62049 0.0
C3165 C 0.30867 0.26268 0.59283 0.0
N3166 N 0.30452 0.24025 0.67317 0.0
N3167 N 0.30877 0.26891 0.61805 0.0
H3168 H 0.6715 0.51632 0.18806 0.0
H3169 H 0.56773 0.53711 0.10241 0.0
H3170 H 0.61142 0.52889 0.21748 0.0
H3171 H 0.63187 0.53639 0.07746 0.0
H3172 H 0.58238 0.53272 0.14391 0.0
H3173 H 0.65649 0.52127 0.14709 0.0
C3174 C 0.65512 0.51988 0.18605 0.0
C3175 C 0.64293 0.52204 0.20684 0.0
C3176 C 0.59331 0.53362 0.12939 0.0
C3177 C 0.62528 0.52795 0.15909 0.0
C3178 C 0.5849 0.53634 0.10557 0.0
C3179 C 0.59851 0.53758 0.08602 0.0
C3180 C 0.61549 0.53159 0.13395 0.0
C3181 C 0.62059 0.53579 0.09167 0.0
C3182 C 0.64651 0.52287 0.16248 0.0
C3183 C 0.62172 0.52697 0.20242 0.0
N3184 N 0.62821 0.53286 0.11465 0.0
N3185 N 0.61372 0.52965 0.17944 0.0
H3186 H 0.31143 0.92238 0.95553 0.0
H3187 H 0.32082 0.79475 0.86903 0.0
H3188 H 0.32201 0.85988 0.98613 0.0
H3189 H 0.33118 0.86552 0.84614 0.0
H3190 H 0.31726 0.8161 0.9113 0.0
H3191 H 0.31322 0.89897 0.91403 0.0
C3192 C 0.31391 0.90362 0.95352 0.0
C3193 C 0.31679 0.89317 0.97438 0.0
C3194 C 0.32046 0.82689 0.89699 0.0
C3195 C 0.31906 0.86633 0.92683 0.0
C3196 C 0.32252 0.81476 0.87293 0.0
C3197 C 0.32616 0.82836 0.85401 0.0
C3198 C 0.32191 0.8527 0.90198 0.0
C3199 C 0.32839 0.85425 0.86008 0.0
C3200 C 0.31508 0.89033 0.92981 0.0
C3201 C 0.31982 0.8687 0.97056 0.0
N3202 N 0.32605 0.86552 0.88347 0.0
N3203 N 0.32099 0.8561 0.94719 0.0
H3204 H 0.99657 0.54472 0.79823 0.0
H3205 H 0.03951 0.56884 0.66961 0.0
H3206 H 0.961 0.57543 0.74661 0.0
H3207 H 0.05445 0.51066 0.70451 0.0
H3208 H 0.01639 0.57897 0.70246 0.0
H3209 H 0.0239 0.54003 0.76866 0.0
C3210 C 0.99466 0.55078 0.78082 0.0
C3211 C 0.97643 0.56033 0.77474 0.0
C3212 C 0.02485 0.56409 0.70293 0.0
C3213 C 1.00762 0.55512 0.74106 0.0
C3214 C 0.03795 0.55816 0.68413 0.0
C3215 C 0.04869 0.53854 0.684 0.0
C3216 C 0.02273 0.55062 0.722 0.0
C3217 C 0.04661 0.52598 0.70385 0.0
C3218 C 0.01019 0.54796 0.76395 0.0
C3219 C 0.97473 0.56781 0.75191 0.0
N3220 N 0.03379 0.53219 0.72202 0.0
N3221 N 0.99015 0.56502 0.73585 0.0
H3222 H 0.29887 0.17015 0.41216 0.0
H3223 H 0.33714 0.296 0.36245 0.0
H3224 H 0.32292 0.24274 0.46045 0.0
H3225 H 0.30518 0.22514 0.31494 0.0
H3226 H 0.33644 0.27603 0.39809 0.0
H3227 H 0.30491 0.18927 0.37613 0.0
C3228 C 0.30549 0.19013 0.41521 0.0
C3229 C 0.31028 0.2049 0.43939 0.0
C3230 C 0.32979 0.26478 0.37984 0.0
C3231 C 0.31727 0.22691 0.3981 0.0
C3232 C 0.33047 0.27617 0.35937 0.0
C3233 C 0.32142 0.26229 0.33561 0.0
C3234 C 0.31993 0.23923 0.37653 0.0
C3235 C 0.31229 0.23663 0.33296 0.0
C3236 C 0.30893 0.20103 0.39459 0.0
C3237 C 0.3189 0.23066 0.44216 0.0
N3238 N 0.31171 0.22595 0.35318 0.0
N3239 N 0.32207 0.24087 0.42174 0.0
H3240 H 0.34642 0.5857 0.5648 0.0
H3241 H 0.39852 0.50221 0.46059 0.0
H3242 H 0.33155 0.57941 0.48579 0.0
H3243 H 0.42366 0.52214 0.53841 0.0
H3244 H 0.36898 0.52403 0.47011 0.0
H3245 H 0.3702 0.55639 0.5559 0.0
C3246 C 0.34802 0.57802 0.54558 0.0
C3247 C 0.33717 0.5852 0.52601 0.0
C3248 C 0.38084 0.5234 0.48513 0.0
C3249 C 0.36426 0.55161 0.51571 0.0
C3250 C 0.39756 0.5108 0.47973 0.0
C3251 C 0.41362 0.51061 0.49872 0.0
C3252 C 0.38013 0.53571 0.50971 0.0
C3253 C 0.41176 0.52218 0.52319 0.0
C3254 C 0.36161 0.56132 0.54052 0.0
C3255 C 0.33979 0.57458 0.50147 0.0
N3256 N 0.3954 0.5344 0.52796 0.0
N3257 N 0.35314 0.5584 0.49701 0.0
H3258 H 0.91107 0.90612 0.53301 0.0
H3259 H 1.00034 0.03563 0.5769 0.0
H3260 H 0.89305 0.97275 0.57024 0.0
H3261 H 1.00477 0.97839 0.51403 0.0
H3262 H 0.96383 1.01073 0.58194 0.0
H3263 H 0.94891 0.93031 0.53403 0.0
C3264 C 0.9151 0.9258 0.54162 0.0
C3265 C 0.89883 0.93751 0.55131 0.0
C3266 C 0.97293 1.00374 0.56712 0.0
C3267 C 0.94212 0.96524 0.55254 0.0
C3268 C 0.99369 0.01795 0.56414 0.0
C3269 C 1.0055 1.00936 0.54471 0.0
C3270 C 0.96429 0.98058 0.55092 0.0
C3271 C 0.99627 0.98597 0.52913 0.0
C3272 C 0.93669 0.93959 0.54211 0.0
C3273 C 0.90507 0.96306 0.56234 0.0
N3274 N 0.97626 0.97242 0.53261 0.0
N3275 N 0.92628 0.97616 0.5626 0.0
H3276 H 0.90424 0.14855 0.31122 0.0
H3277 H 0.85172 0.24294 0.24145 0.0
H3278 H 0.90208 0.14661 0.23246 0.0
H3279 H 0.84998 0.24534 0.31983 0.0
H3280 H 0.86977 0.20761 0.2384 0.0
H3281 H 0.88478 0.18313 0.31553 0.0
C3282 C 0.89983 0.15518 0.29479 0.0
C3283 C 0.90521 0.14397 0.27136 0.0
C3284 C 0.8653 0.21557 0.25632 0.0
C3285 C 0.8824 0.18447 0.27627 0.0
C3286 C 0.8547 0.23583 0.25802 0.0
C3287 C 0.84832 0.24706 0.2808 0.0
C3288 C 0.87033 0.20616 0.27762 0.0
C3289 C 0.85384 0.23718 0.30166 0.0
C3290 C 0.88856 0.17513 0.29728 0.0
C3291 C 0.89862 0.15407 0.25102 0.0
N3292 N 0.86425 0.21758 0.29958 0.0
N3293 N 0.88786 0.17327 0.25395 0.0
H3294 H 0.73456 0.1405 0.07569 0.0
H3295 H 0.62246 0.04332 0.01675 0.0
H3296 H 0.73113 0.07961 0.01342 0.0
H3297 H 0.62359 0.12097 0.04329 0.0
H3298 H 0.66255 0.0528 0.0249 0.0
H3299 H 0.69386 0.12961 0.07338 0.0
C3300 C 0.72526 0.12459 0.06186 0.0
C3301 C 0.73608 0.11091 0.04464 0.0
C3302 C 0.65402 0.06774 0.02917 0.0
C3303 C 0.69003 0.09856 0.04202 0.0
C3304 C 0.63109 0.0623 0.02485 0.0
C3305 C 0.61967 0.08126 0.03027 0.0
C3306 C 0.66568 0.09237 0.03883 0.0
C3307 C 0.63189 0.10583 0.03932 0.0
C3308 C 0.70215 0.11861 0.06043 0.0
C3309 C 0.72335 0.09066 0.02693 0.0
N3310 N 0.65439 0.11073 0.0436 0.0
N3311 N 0.70094 0.08504 0.02609 0.0
H3312 H 0.27574 0.50563 0.25001 0.0
H3313 H 0.32717 0.45192 0.35809 0.0
H3314 H 0.24567 0.49965 0.31794 0.0
H3315 H 0.35893 0.46475 0.29281 0.0
H3316 H 0.2996 0.47439 0.34684 0.0
H3317 H 0.30793 0.49396 0.26739 0.0
C3318 C 0.27585 0.50171 0.26855 0.0
C3319 C 0.25793 0.50342 0.28249 0.0
C3320 C 0.31292 0.47285 0.33531 0.0
C3321 C 0.29489 0.49025 0.30265 0.0
C3322 C 0.32878 0.46034 0.34191 0.0
C3323 C 0.34516 0.45658 0.32626 0.0
C3324 C 0.31354 0.48135 0.31284 0.0
C3325 C 0.34643 0.46734 0.30527 0.0
C3326 C 0.29435 0.49527 0.27858 0.0
C3327 C 0.25911 0.49843 0.30653 0.0
N3328 N 0.3306 0.47893 0.29895 0.0
N3329 N 0.27725 0.49191 0.31582 0.0
H3330 H 0.2607 0.42264 0.98154 0.0
H3331 H 0.19905 0.52465 0.04505 0.0
H3332 H 0.27789 0.46034 0.05858 0.0
H3333 H 0.20717 0.51092 0.96675 0.0
H3334 H 0.22309 0.49635 0.05115 0.0
H3335 H 0.23562 0.44979 0.97664 0.0
C3336 C 0.2591 0.43651 0.99749 0.0
C3337 C 0.27152 0.43933 0.02048 0.0
C3338 C 0.21963 0.49962 0.03268 0.0
C3339 C 0.24276 0.47037 0.01496 0.0
C3340 C 0.20592 0.51565 0.02919 0.0
C3341 C 0.20129 0.52016 1.00539 0.0
C3342 C 0.22834 0.48767 0.01213 0.0
C3343 C 0.21056 0.50812 0.98542 0.0
C3344 C 0.24487 0.45208 0.99462 0.0
C3345 C 0.26874 0.45766 0.04049 0.0
N3346 N 0.22353 0.49228 0.98921 0.0
N3347 N 0.25459 0.47247 0.03729 0.0
H3348 H 0.87898 1.00649 0.26303 0.0
H3349 H 0.87695 0.87125 0.29531 0.0
H3350 H 0.93562 0.98416 0.29259 0.0
H3351 H 0.82119 0.88407 0.2533 0.0
H3352 H 0.89717 0.91376 0.29617 0.0
H3353 H 0.85629 0.96378 0.26112 0.0
C3354 C 0.8867 0.99281 0.26918 0.0
C3355 C 0.90948 0.99935 0.27796 0.0
C3356 C 0.88047 0.90747 0.28679 0.0
C3357 C 0.8834 0.95011 0.27591 0.0
C3358 C 0.86874 0.88291 0.28629 0.0
C3359 C 0.84693 0.87356 0.27444 0.0
C3360 C 0.87061 0.92355 0.27545 0.0
C3361 C 0.8377 0.89019 0.26304 0.0
C3362 C 0.8737 0.96832 0.26801 0.0
C3363 C 0.9183 0.98044 0.28557 0.0
N3364 N 0.84946 0.91421 0.26389 0.0
N3365 N 0.9054 0.95712 0.28443 0.0
H3366 H 0.72757 0.10819 0.69297 0.0
H3367 H 0.74761 0.22993 0.75735 0.0
H3368 H 0.77036 0.0994 0.754 0.0
H3369 H 0.81426 0.22263 0.77397 0.0
H3370 H 0.73607 0.1848 0.74091 0.0
H3371 H 0.74111 0.15342 0.70574 0.0
C3372 C 0.73998 0.11572 0.70889 0.0
C3373 C 0.7475 0.10002 0.72279 0.0
C3374 C 0.75329 0.19316 0.74786 0.0
C3375 C 0.76272 0.15162 0.73757 0.0
C3376 C 0.75978 0.21875 0.75746 0.0
C3377 C 0.78206 0.22993 0.76586 0.0
C3378 C 0.76909 0.17869 0.74753 0.0
C3379 C 0.79713 0.2147 0.76649 0.0
C3380 C 0.7475 0.14151 0.71626 0.0
C3381 C 0.76385 0.11086 0.74303 0.0
N3382 N 0.79036 0.18969 0.75741 0.0
N3383 N 0.77088 0.13611 0.74992 0.0
loop_
_geom_bond_atom_site_label_1
_geom_bond_atom_site_label_2
_geom_bond_distance
_geom_bond_site_symmetry_2
_ccdc_geom_bond_type
C0 O1 1.160 . S
C0 O7 1.185 . S
O1 C0 1.160 . S
O2 Zn3 1.899 . S
O2 C10 1.284 . S
Zn3 O2 1.899 . S
Zn3 O4 2.032 . S
Zn3 O7 2.086 . S
Zn3 O12 1.977 . S
O4 Zn3 2.032 . S
O4 C8 1.278 . S
C5 O6 1.203 . S
C5 O12 1.267 . S
O6 C5 1.203 . S
O7 C0 1.185 . S
O7 Zn3 2.086 . S
C8 O4 1.278 . S
C8 O9 1.211 . S
O9 C8 1.211 . S
C10 O2 1.284 . S
C10 O11 1.273 . S
O11 C10 1.273 . S
O12 Zn3 1.977 . S
O12 C5 1.267 . S
C13 O14 1.160 . S
C13 O20 1.185 . S
O14 C13 1.160 . S
O15 Zn16 1.899 . S
O15 C23 1.284 . S
Zn16 O15 1.899 . S
Zn16 O17 2.032 . S
Zn16 O20 2.086 . S
Zn16 O25 1.977 1_655 S
O17 Zn16 2.032 . S
O17 C21 1.278 1_655 S
C18 O19 1.203 . S
C18 O25 1.267 . S
O19 C18 1.203 . S
O20 C13 1.185 . S
O20 Zn16 2.086 . S
C21 O17 1.278 1_455 S
C21 O22 1.211 . S
O22 C21 1.211 . S
C23 O15 1.284 . S
C23 O24 1.273 1_655 S
O24 C23 1.273 1_455 S
O25 Zn16 1.977 1_455 S
O25 C18 1.267 . S
C26 O27 1.160 . S
C26 O33 1.185 . S
O27 C26 1.160 . S
O28 Zn29 1.899 . S
O28 C36 1.284 . S
Zn29 O28 1.899 . S
Zn29 O30 2.032 . S
Zn29 O33 2.086 . S
Zn29 O38 1.977 . S
O30 Zn29 2.032 . S
O30 C34 1.278 . S
C31 O32 1.203 . S
C31 O38 1.267 . S
O32 C31 1.203 . S
O33 C26 1.185 . S
O33 Zn29 2.086 . S
C34 O30 1.278 . S
C34 O35 1.211 . S
O35 C34 1.211 . S
C36 O28 1.284 . S
C36 O37 1.273 . S
O37 C36 1.273 . S
O38 Zn29 1.977 . S
O38 C31 1.267 . S
C39 O40 1.160 . S
C39 O46 1.185 . S
O40 C39 1.160 . S
O41 Zn42 1.899 . S
O41 C49 1.284 . S
Zn42 O41 1.899 . S
Zn42 O43 2.032 . S
Zn42 O46 2.086 . S
Zn42 O51 1.977 . S
O43 Zn42 2.032 . S
O43 C47 1.278 . S
C44 O45 1.203 . S
C44 O51 1.267 . S
O45 C44 1.203 . S
O46 C39 1.185 . S
O46 Zn42 2.086 . S
C47 O43 1.278 . S
C47 O48 1.211 . S
O48 C47 1.211 . S
C49 O41 1.284 . S
C49 O50 1.273 . S
O50 C49 1.273 . S
O51 Zn42 1.977 . S
O51 C44 1.267 . S
C52 O53 1.160 . S
C52 O59 1.185 . S
O53 C52 1.160 . S
O54 Zn55 1.899 . S
O54 C62 1.284 . S
Zn55 O54 1.899 . S
Zn55 O56 2.032 . S
Zn55 O59 2.086 . S
Zn55 O64 1.977 . S
O56 Zn55 2.032 . S
O56 C60 1.278 . S
C57 O58 1.203 . S
C57 O64 1.267 . S
O58 C57 1.203 . S
O59 C52 1.185 . S
O59 Zn55 2.086 . S
C60 O56 1.278 . S
C60 O61 1.211 . S
O61 C60 1.211 . S
C62 O54 1.284 . S
C62 O63 1.273 . S
O63 C62 1.273 . S
O64 Zn55 1.977 . S
O64 C57 1.267 . S
C65 O66 1.160 . S
C65 O72 1.185 . S
O66 C65 1.160 . S
O67 Zn68 1.899 . S
O67 C75 1.284 . S
Zn68 O67 1.899 . S
Zn68 O69 2.032 . S
Zn68 O72 2.086 . S
Zn68 O77 1.977 . S
O69 Zn68 2.032 . S
O69 C73 1.278 . S
C70 O71 1.203 . S
C70 O77 1.267 . S
O71 C70 1.203 . S
O72 C65 1.185 . S
O72 Zn68 2.086 . S
C73 O69 1.278 . S
C73 O74 1.211 . S
O74 C73 1.211 . S
C75 O67 1.284 . S
C75 O76 1.273 . S
O76 C75 1.273 . S
O77 Zn68 1.977 . S
O77 C70 1.267 . S
C78 O79 1.160 . S
C78 O85 1.185 . S
O79 C78 1.160 . S
O80 Zn81 1.899 . S
O80 C88 1.284 . S
Zn81 O80 1.899 . S
Zn81 O82 2.032 . S
Zn81 O85 2.086 . S
Zn81 O90 1.977 . S
O82 Zn81 2.032 . S
O82 C86 1.278 . S
C83 O84 1.203 . S
C83 O90 1.267 . S
O84 C83 1.203 . S
O85 C78 1.185 . S
O85 Zn81 2.086 . S
C86 O82 1.278 . S
C86 O87 1.211 . S
O87 C86 1.211 . S
C88 O80 1.284 . S
C88 O89 1.273 . S
O89 C88 1.273 . S
O90 Zn81 1.977 . S
O90 C83 1.267 . S
C91 O92 1.160 . S
C91 O98 1.185 . S
O92 C91 1.160 . S
O93 Zn94 1.899 . S
O93 C101 1.284 . S
Zn94 O93 1.899 . S
Zn94 O95 2.032 . S
Zn94 O98 2.086 . S
Zn94 O103 1.977 1_455 S
O95 Zn94 2.032 . S
O95 C99 1.278 . S
C96 O97 1.203 . S
C96 O103 1.267 . S
O97 C96 1.203 . S
O98 C91 1.185 . S
O98 Zn94 2.086 . S
C99 O95 1.278 . S
C99 O100 1.211 . S
O100 C99 1.211 . S
C101 O93 1.284 . S
C101 O102 1.273 . S
O102 C101 1.273 . S
O103 Zn94 1.977 1_655 S
O103 C96 1.267 . S
C104 O105 1.160 . S
C104 O111 1.185 . S
O105 C104 1.160 . S
O106 Zn107 1.899 . S
O106 C114 1.284 . S
Zn107 O106 1.899 . S
Zn107 O108 2.032 . S
Zn107 O111 2.086 . S
Zn107 O116 1.977 1_545 S
O108 Zn107 2.032 . S
O108 C112 1.278 . S
C109 O110 1.203 . S
C109 O116 1.267 . S
O110 C109 1.203 . S
O111 C104 1.185 . S
O111 Zn107 2.086 . S
C112 O108 1.278 . S
C112 O113 1.177 1_545 S
O113 C112 1.177 1_565 S
C114 O106 1.284 . S
C114 O115 1.273 . S
O115 C114 1.273 . S
O116 Zn107 1.977 1_565 S
O116 C109 1.267 . S
C117 O118 1.160 . S
C117 O124 1.185 . S
O118 C117 1.160 . S
O119 Zn120 1.899 . S
O119 C127 1.284 . S
Zn120 O119 1.899 . S
Zn120 O121 2.032 . S
Zn120 O124 2.086 . S
Zn120 O129 1.977 . S
O121 Zn120 2.032 . S
O121 C125 1.278 . S
C122 O123 1.203 . S
C122 O129 1.267 . S
O123 C122 1.203 . S
O124 C117 1.185 . S
O124 Zn120 2.086 . S
C125 O121 1.278 . S
C125 O126 1.211 . S
O126 C125 1.211 . S
C127 O119 1.284 . S
C127 O128 1.273 . S
O128 C127 1.273 . S
O129 Zn120 1.977 . S
O129 C122 1.267 . S
C130 O131 1.160 . S
C130 O137 1.185 . S
O131 C130 1.160 . S
O132 Zn133 1.899 . S
O132 C140 1.284 . S
Zn133 O132 1.899 . S
Zn133 O134 2.032 . S
Zn133 O137 2.086 . S
Zn133 O142 1.977 1_565 S
O134 Zn133 2.032 . S
O134 C138 1.278 1_565 S
C135 O136 1.203 . S
C135 O142 1.267 . S
O136 C135 1.203 . S
O137 C130 1.185 . S
O137 Zn133 2.086 . S
C138 O134 1.278 1_545 S
C138 O139 1.211 . S
O139 C138 1.211 . S
C140 O132 1.284 . S
C140 O141 1.273 1_565 S
O141 C140 1.273 1_545 S
O142 Zn133 1.977 1_545 S
O142 C135 1.267 . S
C143 O144 1.160 . S
C143 O150 1.185 . S
O144 C143 1.160 . S
O145 Zn146 1.899 . S
O145 C153 1.284 . S
Zn146 O145 1.899 . S
Zn146 O147 2.032 1_554 S
Zn146 O150 2.086 . S
Zn146 O155 1.977 . S
O147 Zn146 2.032 1_556 S
O147 C151 1.278 . S
C148 O149 1.203 . S
C148 O155 1.267 . S
O149 C148 1.203 . S
O150 C143 1.185 . S
O150 Zn146 2.086 . S
C151 O147 1.278 . S
C151 O152 1.211 . S
O152 C151 1.211 . S
C153 O145 1.284 . S
C153 O154 1.273 . S
O154 C153 1.273 . S
O155 Zn146 1.977 . S
O155 C148 1.267 . S
C156 O157 1.160 . S
C156 O163 1.185 . S
O157 C156 1.160 . S
O158 Zn159 1.899 . S
O158 C166 1.284 . S
Zn159 O158 1.899 . S
Zn159 O160 2.032 . S
Zn159 O163 2.086 . S
Zn159 O168 1.977 . S
O160 Zn159 2.032 . S
O160 C164 1.278 1_554 S
C161 O162 1.203 . S
C161 O168 1.267 . S
O162 C161 1.203 . S
O163 C156 1.185 . S
O163 Zn159 2.086 . S
C164 O160 1.278 1_556 S
C164 O165 1.208 1_556 S
O165 C164 1.208 1_554 S
C166 O158 1.284 . S
C166 O167 1.273 . S
O167 C166 1.273 . S
O168 Zn159 1.977 . S
O168 C161 1.267 . S
C169 O170 1.160 . S
C169 O176 1.185 . S
O170 C169 1.160 . S
O171 Zn172 1.899 . S
O171 C179 1.284 . S
Zn172 O171 1.899 . S
Zn172 O173 2.032 . S
Zn172 O176 2.086 . S
Zn172 O181 1.977 . S
O173 Zn172 2.032 . S
O173 C177 1.278 1_554 S
C174 O175 1.203 . S
C174 O181 1.267 . S
O175 C174 1.203 . S
O176 C169 1.185 . S
O176 Zn172 2.086 . S
C177 O173 1.278 1_556 S
C177 O178 1.211 . S
O178 C177 1.211 . S
C179 O171 1.284 . S
C179 O180 1.273 . S
O180 C179 1.273 . S
O181 Zn172 1.977 . S
O181 C174 1.267 . S
C182 O183 1.160 . S
C182 O189 1.185 . S
O183 C182 1.160 . S
O184 Zn185 1.899 . S
O184 C192 1.284 . S
Zn185 O184 1.899 . S
Zn185 O186 2.032 . S
Zn185 O189 2.086 . S
Zn185 O194 1.977 . S
O186 Zn185 2.032 . S
O186 C190 1.278 . S
C187 O188 1.203 . S
C187 O194 1.267 . S
O188 C187 1.203 . S
O189 C182 1.185 . S
O189 Zn185 2.086 . S
C190 O186 1.278 . S
C190 O191 1.211 . S
O191 C190 1.211 . S
C192 O184 1.284 . S
C192 O193 1.273 . S
O193 C192 1.273 . S
O194 Zn185 1.977 . S
O194 C187 1.267 . S
C195 O196 1.160 . S
C195 O202 1.185 . S
O196 C195 1.160 . S
O197 Zn198 1.899 . S
O197 C205 1.284 . S
Zn198 O197 1.899 . S
Zn198 O199 2.032 . S
Zn198 O202 2.086 . S
Zn198 O207 1.977 . S
O199 Zn198 2.032 . S
O199 C203 1.278 . S
C200 O201 1.203 . S
C200 O207 1.267 . S
O201 C200 1.203 . S
O202 C195 1.185 . S
O202 Zn198 2.086 . S
C203 O199 1.278 . S
C203 O204 1.211 . S
O204 C203 1.211 . S
C205 O197 1.284 . S
C205 O206 1.273 . S
O206 C205 1.273 . S
O207 Zn198 1.977 . S
O207 C200 1.267 . S
C208 O209 1.160 . S
C208 O215 1.185 . S
O209 C208 1.160 . S
O210 Zn211 1.899 . S
O210 C218 1.284 . S
Zn211 O210 1.899 . S
Zn211 O212 2.032 . S
Zn211 O215 2.086 . S
Zn211 O220 1.977 . S
O212 Zn211 2.032 . S
O212 C216 1.278 . S
C213 O214 1.203 . S
C213 O220 1.267 . S
O214 C213 1.203 . S
O215 C208 1.185 . S
O215 Zn211 2.086 . S
C216 O212 1.278 . S
C216 O217 1.211 . S
O217 C216 1.211 . S
C218 O210 1.284 . S
C218 O219 1.273 . S
O219 C218 1.273 . S
O220 Zn211 1.977 . S
O220 C213 1.267 . S
C221 O222 1.160 . S
C221 O228 1.185 . S
O222 C221 1.160 . S
O223 Zn224 1.899 . S
O223 C231 1.284 . S
Zn224 O223 1.899 . S
Zn224 O225 2.032 . S
Zn224 O228 2.086 . S
Zn224 O233 1.977 . S
O225 Zn224 2.032 . S
O225 C229 1.278 . S
C226 O227 1.203 . S
C226 O233 1.267 . S
O227 C226 1.203 . S
O228 C221 1.185 . S
O228 Zn224 2.086 . S
C229 O225 1.278 . S
C229 O230 1.211 . S
O230 C229 1.211 . S
C231 O223 1.284 . S
C231 O232 1.273 . S
O232 C231 1.273 . S
O233 Zn224 1.977 . S
O233 C226 1.267 . S
C234 O235 1.160 . S
C234 O241 1.185 . S
O235 C234 1.160 . S
O236 Zn237 1.899 . S
O236 C244 1.284 . S
Zn237 O236 1.899 . S
Zn237 O238 2.032 . S
Zn237 O241 2.086 . S
Zn237 O246 1.977 . S
O238 Zn237 2.032 . S
O238 C242 1.278 . S
C239 O240 1.203 . S
C239 O246 1.267 . S
O240 C239 1.203 . S
O241 C234 1.185 . S
O241 Zn237 2.086 . S
C242 O238 1.278 . S
C242 O243 1.211 . S
O243 C242 1.211 . S
C244 O236 1.284 . S
C244 O245 1.273 . S
O245 C244 1.273 . S
O246 Zn237 1.977 . S
O246 C239 1.267 . S
C247 O248 1.160 1_545 S
C247 O254 1.185 . S
O248 C247 1.160 1_565 S
O249 Zn250 1.899 . S
O249 C257 1.284 . S
Zn250 O249 1.899 . S
Zn250 O251 2.032 . S
Zn250 O254 2.086 . S
Zn250 O259 1.977 . S
O251 Zn250 2.032 . S
O251 C255 1.278 . S
C252 O253 1.203 . S
C252 O259 1.267 . S
O253 C252 1.203 . S
O254 C247 1.185 . S
O254 Zn250 2.086 . S
C255 O251 1.278 . S
C255 O256 1.211 . S
O256 C255 1.211 . S
C257 O249 1.284 . S
C257 O258 1.273 . S
O258 C257 1.273 . S
O259 Zn250 1.977 . S
O259 C252 1.267 . S
C260 O261 1.160 . S
C260 O267 1.185 1_554 S
O261 C260 1.160 . S
O262 Zn263 1.899 . S
O262 C270 1.284 . S
Zn263 O262 1.899 . S
Zn263 O264 2.032 1_554 S
Zn263 O267 2.086 1_554 S
Zn263 O272 1.977 1_554 S
O264 Zn263 2.032 1_556 S
O264 C268 1.278 . S
C265 O266 1.203 1_556 S
C265 O272 1.267 . S
O266 C265 1.203 1_554 S
O267 C260 1.185 1_556 S
O267 Zn263 2.086 1_556 S
C268 O264 1.278 . S
C268 O269 1.211 . S
O269 C268 1.211 . S
C270 O262 1.284 . S
C270 O271 1.273 . S
O271 C270 1.273 . S
O272 Zn263 1.977 1_556 S
O272 C265 1.267 . S
C273 O274 1.160 . S
C273 O280 1.185 . S
O274 C273 1.160 . S
O275 Zn276 1.899 . S
O275 C283 1.284 . S
Zn276 O275 1.899 . S
Zn276 O277 2.032 . S
Zn276 O280 2.086 . S
Zn276 O285 1.977 . S
O277 Zn276 2.032 . S
O277 C281 1.278 . S
C278 O279 1.203 . S
C278 O285 1.267 . S
O279 C278 1.203 . S
O280 C273 1.185 . S
O280 Zn276 2.086 . S
C281 O277 1.278 . S
C281 O282 1.211 . S
O282 C281 1.211 . S
C283 O275 1.284 . S
C283 O284 1.273 . S
O284 C283 1.273 . S
O285 Zn276 1.977 . S
O285 C278 1.267 . S
C286 O287 1.160 . S
C286 O293 1.185 . S
O287 C286 1.160 . S
O288 Zn289 1.899 . S
O288 C296 1.284 . S
Zn289 O288 1.899 . S
Zn289 O290 2.032 . S
Zn289 O293 2.086 . S
Zn289 O298 1.977 . S
O290 Zn289 2.032 . S
O290 C294 1.278 . S
C291 O292 1.203 . S
C291 O298 1.267 . S
O292 C291 1.203 . S
O293 C286 1.185 . S
O293 Zn289 2.086 . S
C294 O290 1.278 . S
C294 O295 1.211 . S
O295 C294 1.211 . S
C296 O288 1.284 . S
C296 O297 1.273 . S
O297 C296 1.273 . S
O298 Zn289 1.977 . S
O298 C291 1.267 . S
C299 O300 1.160 . S
C299 O306 1.185 . S
O300 C299 1.160 . S
O301 Zn302 1.899 . S
O301 C309 1.284 . S
Zn302 O301 1.899 . S
Zn302 O303 2.032 . S
Zn302 O306 2.086 . S
Zn302 O311 1.977 . S
O303 Zn302 2.032 . S
O303 C307 1.278 . S
C304 O305 1.203 . S
C304 O311 1.267 . S
O305 C304 1.203 . S
O306 C299 1.185 . S
O306 Zn302 2.086 . S
C307 O303 1.278 . S
C307 O308 1.211 . S
O308 C307 1.211 . S
C309 O301 1.284 . S
C309 O310 1.273 . S
O310 C309 1.273 . S
O311 Zn302 1.977 . S
O311 C304 1.267 . S
Eu312 N343 2.634 1_546 S
Eu312 N350 2.628 1_545 S
Eu312 O356 2.584 1_455 S
Eu312 O357 2.607 1_556 S
Eu312 O359 2.301 1_556 S
Eu312 O360 2.574 . S
Eu312 O361 2.411 1_456 S
Eu312 O363 2.366 1_556 S
Eu312 O364 2.463 . S
Eu312 C376 2.857 1_455 S
C313 C316 1.429 . S
C313 C317 1.411 . S
C313 N320 1.377 . S
C314 C316 1.420 . S
C314 C318 1.423 . S
C314 C326 1.392 1_554 S
C315 C317 1.420 . S
C315 C318 1.351 . S
C315 H338 0.931 . S
C316 C313 1.429 . S
C316 C314 1.420 . S
C316 N324 1.362 . S
C317 C313 1.411 . S
C317 C315 1.420 . S
C317 C322 1.395 . S
C318 C314 1.423 . S
C318 C315 1.351 . S
C318 H330 0.930 . S
C319 C321 1.400 . S
C319 C322 1.386 . S
C319 H331 0.930 . S
N320 C313 1.377 . S
N320 C321 1.321 . S
N320 Eu323 2.609 . S
C321 C319 1.400 . S
C321 N320 1.321 . S
C321 H328 0.930 . S
C322 C317 1.395 . S
C322 C319 1.386 . S
C322 H341 0.930 . S
Eu323 N320 2.609 . S
Eu323 N324 2.657 . S
Eu323 O357 2.380 . S
Eu323 O358 2.432 . S
Eu323 O362 2.558 . S
Eu323 O363 2.612 . S
Eu323 O365 2.339 1_554 S
Eu323 O366 2.563 . S
Eu323 O367 2.419 . S
Eu323 C387 2.848 . S
N324 C316 1.362 . S
N324 Eu323 2.657 . S
N324 C325 1.334 1_554 S
C325 N324 1.334 1_556 S
C325 C327 1.413 . S
C325 H332 0.929 . S
C326 C314 1.392 1_556 S
C326 C327 1.367 . S
C326 H334 0.930 . S
C327 C325 1.413 . S
C327 C326 1.367 . S
C327 H329 0.930 . S
H328 C321 0.930 . S
H329 C327 0.930 . S
H330 C318 0.930 . S
H331 C319 0.930 . S
H332 C325 0.929 . S
H333 C347 0.930 1_455 S
H334 C326 0.930 . S
H335 C353 0.930 . S
H336 C344 0.929 . S
H337 C351 0.930 . S
H338 C315 0.931 . S
H339 C345 0.930 . S
H340 C378 0.930 . S
H341 C322 0.930 . S
H342 C377 0.931 . S
N343 Eu312 2.634 1_564 S
N343 C344 1.334 . S
N343 C348 1.362 1_455 S
C344 H336 0.929 . S
C344 N343 1.334 . S
C344 C347 1.413 1_455 S
C345 H339 0.930 . S
C345 C346 1.392 . S
C345 C347 1.367 . S
C346 C345 1.392 . S
C346 C348 1.420 . S
C346 C378 1.423 1_554 S
C347 H333 0.930 1_655 S
C347 C344 1.413 1_655 S
C347 C345 1.367 . S
C348 N343 1.362 1_655 S
C348 C346 1.420 . S
C348 C352 1.429 1_554 S
H349 C354 0.930 . S
N350 Eu312 2.628 1_565 S
N350 C352 1.377 1_455 S
N350 C353 1.321 . S
C351 H337 0.930 . S
C351 C353 1.400 1_655 S
C351 C354 1.386 . S
C352 C348 1.429 1_556 S
C352 N350 1.377 1_655 S
C352 C355 1.411 . S
C353 H335 0.930 . S
C353 N350 1.321 . S
C353 C351 1.400 1_455 S
C354 H349 0.930 . S
C354 C351 1.386 . S
C354 C355 1.395 . S
C355 C352 1.411 . S
C355 C354 1.395 . S
C355 C377 1.420 . S
O356 Eu312 2.584 1_655 S
O356 C376 1.257 . S
O357 Eu312 2.607 1_554 S
O357 Eu323 2.380 . S
O357 C368 1.276 . S
O358 Eu323 2.432 . S
O358 C375 1.264 . S
O359 Eu312 2.301 1_554 S
O359 C375 1.254 . S
O360 Eu312 2.574 . S
O360 C368 1.235 1_556 S
O361 Eu312 2.411 1_654 S
O361 C376 1.249 1_554 S
O362 Eu323 2.558 . S
O362 C387 1.257 . S
O363 Eu312 2.366 1_554 S
O363 Eu323 2.612 . S
O363 C379 1.276 1_545 S
O364 Eu312 2.463 . S
O364 C386 1.264 . S
O365 Eu323 2.339 1_556 S
O365 C386 1.254 . S
O366 Eu323 2.563 . S
O366 C379 1.235 1_545 S
O367 Eu323 2.419 . S
O367 C387 1.249 . S
C368 O357 1.276 . S
C368 O360 1.235 1_554 S
C369 C371 1.393 . S
C369 C373 1.395 . S
C369 C376 1.492 . S
C370 C371 1.392 . S
C370 C372 1.386 . S
C371 C369 1.393 . S
C371 C370 1.392 . S
C371 H388 0.930 1_556 S
C372 C370 1.386 . S
C372 C374 1.395 . S
C372 H389 0.930 . S
C373 C369 1.395 . S
C373 C374 1.379 . S
C373 H390 0.930 . S
C374 C372 1.395 . S
C374 C373 1.379 . S
C374 H391 0.930 . S
C375 O358 1.264 . S
C375 O359 1.254 . S
C376 Eu312 2.857 1_655 S
C376 O356 1.257 . S
C376 O361 1.249 1_556 S
C376 C369 1.492 . S
C377 H342 0.931 . S
C377 C355 1.420 . S
C377 C378 1.351 . S
C378 H340 0.930 . S
C378 C346 1.423 1_556 S
C378 C377 1.351 . S
C379 O363 1.276 1_565 S
C379 O366 1.235 1_565 S
C380 C381 1.393 . S
C380 C384 1.395 . S
C380 C387 1.492 . S
C381 C380 1.393 . S
C381 C382 1.392 . S
C381 H392 0.930 . S
C382 C381 1.392 . S
C382 C383 1.386 . S
C383 C382 1.386 . S
C383 C385 1.395 . S
C383 H393 0.930 . S
C384 C380 1.395 . S
C384 C385 1.379 . S
C384 H394 0.930 . S
C385 C383 1.395 . S
C385 C384 1.379 . S
C385 H395 0.930 . S
C386 O364 1.264 . S
C386 O365 1.254 . S
C387 Eu323 2.848 . S
C387 O362 1.257 . S
C387 O367 1.249 . S
C387 C380 1.492 . S
H388 C371 0.930 1_554 S
H389 C372 0.930 . S
H390 C373 0.930 . S
H391 C374 0.930 . S
H392 C381 0.930 . S
H393 C383 0.930 . S
H394 C384 0.930 . S
H395 C385 0.930 . S
Eu396 N427 2.657 . S
Eu396 N434 2.609 . S
Eu396 O440 2.558 . S
Eu396 O441 2.612 . S
Eu396 O443 2.339 . S
Eu396 O444 2.563 . S
Eu396 O445 2.419 . S
Eu396 O447 2.380 . S
Eu396 O448 2.432 . S
Eu396 C460 2.848 . S
C397 C400 1.429 . S
C397 C401 1.411 . S
C397 N404 1.377 . S
C398 C400 1.420 . S
C398 C402 1.423 . S
C398 C410 1.392 . S
C399 C401 1.420 . S
C399 C402 1.351 . S
C399 H422 0.931 . S
C400 C397 1.429 . S
C400 C398 1.420 . S
C400 N408 1.362 . S
C401 C397 1.411 . S
C401 C399 1.420 . S
C401 C406 1.395 . S
C402 C398 1.423 . S
C402 C399 1.351 . S
C402 H414 0.930 . S
C403 C405 1.400 . S
C403 C406 1.386 . S
C403 H415 0.930 . S
N404 C397 1.377 . S
N404 C405 1.321 . S
N404 Eu407 2.609 . S
C405 C403 1.400 . S
C405 N404 1.321 . S
C405 H412 0.930 . S
C406 C401 1.395 . S
C406 C403 1.386 . S
C406 H425 0.930 . S
Eu407 N404 2.609 . S
Eu407 N408 2.657 . S
Eu407 O441 2.380 . S
Eu407 O442 2.432 . S
Eu407 O446 2.558 . S
Eu407 O447 2.612 . S
Eu407 O449 2.339 . S
Eu407 O450 2.563 . S
Eu407 O451 2.419 . S
Eu407 C471 2.848 . S
N408 C400 1.362 . S
N408 Eu407 2.657 . S
N408 C409 1.334 . S
C409 N408 1.334 . S
C409 C411 1.413 . S
C409 H416 0.929 . S
C410 C398 1.392 . S
C410 C411 1.367 . S
C410 H418 0.930 . S
C411 C409 1.413 . S
C411 C410 1.367 . S
C411 H413 0.930 . S
H412 C405 0.930 . S
H413 C411 0.930 . S
H414 C402 0.930 . S
H415 C403 0.930 . S
H416 C409 0.929 . S
H417 C431 0.930 . S
H418 C410 0.930 . S
H419 C437 0.930 . S
H420 C428 0.929 . S
H421 C435 0.930 . S
H422 C399 0.931 . S
H423 C429 0.930 . S
H424 C462 0.930 . S
H425 C406 0.930 . S
H426 C461 0.931 . S
N427 Eu396 2.657 . S
N427 C428 1.334 . S
N427 C432 1.362 . S
C428 H420 0.929 . S
C428 N427 1.334 . S
C428 C431 1.413 . S
C429 H423 0.930 . S
C429 C430 1.392 . S
C429 C431 1.367 . S
C430 C429 1.392 . S
C430 C432 1.420 . S
C430 C462 1.423 . S
C431 H417 0.930 . S
C431 C428 1.413 . S
C431 C429 1.367 . S
C432 N427 1.362 . S
C432 C430 1.420 . S
C432 C436 1.429 . S
H433 C438 0.930 . S
N434 Eu396 2.609 . S
N434 C436 1.377 . S
N434 C437 1.321 . S
C435 H421 0.930 . S
C435 C437 1.400 . S
C435 C438 1.386 . S
C436 C432 1.429 . S
C436 N434 1.377 . S
C436 C439 1.411 . S
C437 H419 0.930 . S
C437 N434 1.321 . S
C437 C435 1.400 . S
C438 H433 0.930 . S
C438 C435 1.386 . S
C438 C439 1.395 . S
C439 C436 1.411 . S
C439 C438 1.395 . S
C439 C461 1.420 . S
O440 Eu396 2.558 . S
O440 C460 1.257 . S
O441 Eu396 2.612 . S
O441 Eu407 2.380 . S
O441 C452 1.276 . S
O442 Eu407 2.432 . S
O442 C459 1.264 . S
O443 Eu396 2.339 . S
O443 C459 1.254 . S
O444 Eu396 2.563 . S
O444 C452 1.235 . S
O445 Eu396 2.419 . S
O445 C460 1.249 . S
O446 Eu407 2.558 . S
O446 C471 1.257 . S
O447 Eu396 2.380 . S
O447 Eu407 2.612 . S
O447 C463 1.276 . S
O448 Eu396 2.432 . S
O448 C470 1.264 . S
O449 Eu407 2.339 . S
O449 C470 1.254 . S
O450 Eu407 2.563 . S
O450 C463 1.235 . S
O451 Eu407 2.419 . S
O451 C471 1.249 . S
C452 O441 1.276 . S
C452 O444 1.235 . S
C453 C455 1.393 . S
C453 C457 1.395 . S
C453 C460 1.492 . S
C454 C455 1.392 . S
C454 C456 1.386 . S
C455 C453 1.393 . S
C455 C454 1.392 . S
C455 H472 0.930 . S
C456 C454 1.386 . S
C456 C458 1.395 . S
C456 H473 0.930 . S
C457 C453 1.395 . S
C457 C458 1.379 . S
C457 H474 0.930 . S
C458 C456 1.395 . S
C458 C457 1.379 . S
C458 H475 0.930 . S
C459 O442 1.264 . S
C459 O443 1.254 . S
C460 Eu396 2.848 . S
C460 O440 1.257 . S
C460 O445 1.249 . S
C460 C453 1.492 . S
C461 H426 0.931 . S
C461 C439 1.420 . S
C461 C462 1.351 . S
C462 H424 0.930 . S
C462 C430 1.423 . S
C462 C461 1.351 . S
C463 O447 1.276 . S
C463 O450 1.235 . S
C464 C465 1.393 . S
C464 C468 1.395 . S
C464 C471 1.492 . S
C465 C464 1.393 . S
C465 C466 1.392 . S
C465 H476 0.930 . S
C466 C465 1.392 . S
C466 C467 1.386 . S
C467 C466 1.386 . S
C467 C469 1.395 . S
C467 H477 0.930 . S
C468 C464 1.395 . S
C468 C469 1.379 . S
C468 H478 0.930 . S
C469 C467 1.395 . S
C469 C468 1.379 . S
C469 H479 0.930 . S
C470 O448 1.264 . S
C470 O449 1.254 . S
C471 Eu407 2.848 . S
C471 O446 1.257 . S
C471 O451 1.249 . S
C471 C464 1.492 . S
H472 C455 0.930 . S
H473 C456 0.930 . S
H474 C457 0.930 . S
H475 C458 0.930 . S
H476 C465 0.930 . S
H477 C467 0.930 . S
H478 C468 0.930 . S
H479 C469 0.930 . S
Eu480 N511 2.657 . S
Eu480 N518 2.609 . S
Eu480 O524 2.558 . S
Eu480 O525 2.612 . S
Eu480 O527 2.339 . S
Eu480 O528 2.563 1_545 S
Eu480 O529 2.419 . S
Eu480 O531 2.380 . S
Eu480 O532 2.432 . S
Eu480 C544 2.848 . S
C481 C484 1.429 . S
C481 C485 1.411 . S
C481 N488 1.377 1_565 S
C482 C484 1.420 . S
C482 C486 1.423 . S
C482 C494 1.392 . S
C483 C485 1.420 . S
C483 C486 1.351 . S
C483 H506 0.931 . S
C484 C481 1.429 . S
C484 C482 1.420 . S
C484 N492 1.362 . S
C485 C481 1.411 . S
C485 C483 1.420 . S
C485 C490 1.395 . S
C486 C482 1.423 . S
C486 C483 1.351 . S
C486 H498 0.930 . S
C487 C489 1.400 . S
C487 C490 1.386 1_545 S
C487 H499 0.930 . S
N488 C481 1.377 1_545 S
N488 C489 1.321 . S
N488 Eu491 2.609 . S
C489 C487 1.400 . S
C489 N488 1.321 . S
C489 H496 0.930 . S
C490 C485 1.395 . S
C490 C487 1.386 1_565 S
C490 H509 0.930 . S
Eu491 N488 2.609 . S
Eu491 N492 2.657 1_545 S
Eu491 O525 2.380 . S
Eu491 O526 2.432 . S
Eu491 O530 2.558 . S
Eu491 O531 2.612 . S
Eu491 O533 2.339 . S
Eu491 O534 2.563 . S
Eu491 O535 2.419 . S
Eu491 C555 2.848 . S
N492 C484 1.362 . S
N492 Eu491 2.657 1_565 S
N492 C493 1.334 . S
C493 N492 1.334 . S
C493 C495 1.413 . S
C493 H500 0.929 . S
C494 C482 1.392 . S
C494 C495 1.367 . S
C494 H502 0.930 . S
C495 C493 1.413 . S
C495 C494 1.367 . S
C495 H497 0.930 . S
H496 C489 0.930 . S
H497 C495 0.930 . S
H498 C486 0.930 . S
H499 C487 0.930 . S
H500 C493 0.929 . S
H501 C515 0.930 . S
H502 C494 0.930 . S
H503 C521 0.930 . S
H504 C512 0.929 . S
H505 C519 0.930 . S
H506 C483 0.931 . S
H507 C513 0.930 . S
H508 C546 0.930 . S
H509 C490 0.930 . S
H510 C545 0.931 . S
N511 Eu480 2.657 . S
N511 C512 1.334 . S
N511 C516 1.362 . S
C512 H504 0.929 . S
C512 N511 1.334 . S
C512 C515 1.413 . S
C513 H507 0.930 . S
C513 C514 1.392 . S
C513 C515 1.367 . S
C514 C513 1.392 . S
C514 C516 1.420 . S
C514 C546 1.423 . S
C515 H501 0.930 . S
C515 C512 1.413 . S
C515 C513 1.367 . S
C516 N511 1.362 . S
C516 C514 1.420 . S
C516 C520 1.429 . S
H517 C522 0.930 . S
N518 Eu480 2.609 . S
N518 C520 1.377 . S
N518 C521 1.321 . S
C519 H505 0.930 . S
C519 C521 1.400 . S
C519 C522 1.386 . S
C520 C516 1.429 . S
C520 N518 1.377 . S
C520 C523 1.411 . S
C521 H503 0.930 . S
C521 N518 1.321 . S
C521 C519 1.400 . S
C522 H517 0.930 . S
C522 C519 1.386 . S
C522 C523 1.395 . S
C523 C520 1.411 . S
C523 C522 1.395 . S
C523 C545 1.420 . S
O524 Eu480 2.558 . S
O524 C544 1.257 . S
O525 Eu480 2.612 . S
O525 Eu491 2.380 . S
O525 C536 1.276 1_545 S
O526 Eu491 2.432 . S
O526 C543 1.264 . S
O527 Eu480 2.339 . S
O527 C543 1.254 . S
O528 Eu480 2.563 1_565 S
O528 C536 1.235 . S
O529 Eu480 2.419 . S
O529 C544 1.249 . S
O530 Eu491 2.558 . S
O530 C555 1.257 . S
O531 Eu480 2.380 . S
O531 Eu491 2.612 . S
O531 C547 1.276 . S
O532 Eu480 2.432 . S
O532 C554 1.264 . S
O533 Eu491 2.339 . S
O533 C554 1.254 . S
O534 Eu491 2.563 . S
O534 C547 1.235 . S
O535 Eu491 2.419 . S
O535 C555 1.249 . S
C536 O525 1.276 1_565 S
C536 O528 1.235 . S
C537 C539 1.393 1_545 S
C537 C541 1.395 . S
C537 C544 1.492 . S
C538 C539 1.392 . S
C538 C540 1.386 . S
C539 C537 1.393 1_565 S
C539 C538 1.392 . S
C539 H556 0.930 . S
C540 C538 1.386 . S
C540 C542 1.395 . S
C540 H557 0.930 . S
C541 C537 1.395 . S
C541 C542 1.379 1_545 S
C541 H558 0.930 . S
C542 C540 1.395 . S
C542 C541 1.379 1_565 S
C542 H559 0.930 . S
C543 O526 1.264 . S
C543 O527 1.254 . S
C544 Eu480 2.848 . S
C544 O524 1.257 . S
C544 O529 1.249 . S
C544 C537 1.492 . S
C545 H510 0.931 . S
C545 C523 1.420 . S
C545 C546 1.351 . S
C546 H508 0.930 . S
C546 C514 1.423 . S
C546 C545 1.351 . S
C547 O531 1.276 . S
C547 O534 1.235 . S
C548 C549 1.393 . S
C548 C552 1.395 . S
C548 C555 1.492 . S
C549 C548 1.393 . S
C549 C550 1.392 . S
C549 H560 0.930 . S
C550 C549 1.392 . S
C550 C551 1.386 . S
C551 C550 1.386 . S
C551 C553 1.395 . S
C551 H561 0.930 . S
C552 C548 1.395 . S
C552 C553 1.379 . S
C552 H562 0.930 . S
C553 C551 1.395 . S
C553 C552 1.379 . S
C553 H563 0.930 . S
C554 O532 1.264 . S
C554 O533 1.254 . S
C555 Eu491 2.848 . S
C555 O530 1.257 . S
C555 O535 1.249 . S
C555 C548 1.492 . S
H556 C539 0.930 . S
H557 C540 0.930 . S
H558 C541 0.930 . S
H559 C542 0.930 . S
H560 C549 0.930 . S
H561 C551 0.930 . S
H562 C552 0.930 . S
H563 C553 0.930 . S
Eu564 N595 2.657 . S
Eu564 N602 2.609 . S
Eu564 O608 2.558 . S
Eu564 O609 2.612 . S
Eu564 O611 2.339 . S
Eu564 O612 2.563 . S
Eu564 O613 2.419 . S
Eu564 O615 2.380 . S
Eu564 O616 2.432 . S
Eu564 C628 2.848 . S
C565 C568 1.429 . S
C565 C569 1.411 . S
C565 N572 1.377 . S
C566 C568 1.420 . S
C566 C570 1.423 . S
C566 C578 1.392 . S
C567 C569 1.420 . S
C567 C570 1.351 . S
C567 H590 0.931 . S
C568 C565 1.429 . S
C568 C566 1.420 . S
C568 N576 1.362 . S
C569 C565 1.411 . S
C569 C567 1.420 . S
C569 C574 1.395 . S
C570 C566 1.423 . S
C570 C567 1.351 . S
C570 H582 0.930 . S
C571 C573 1.400 . S
C571 C574 1.386 . S
C571 H583 0.930 . S
N572 C565 1.377 . S
N572 C573 1.321 . S
N572 Eu575 2.609 . S
C573 C571 1.400 . S
C573 N572 1.321 . S
C573 H580 0.930 . S
C574 C569 1.395 . S
C574 C571 1.386 . S
C574 H593 0.930 . S
Eu575 N572 2.609 . S
Eu575 N576 2.657 . S
Eu575 O609 2.380 . S
Eu575 O610 2.432 . S
Eu575 O614 2.558 . S
Eu575 O615 2.612 . S
Eu575 O617 2.339 . S
Eu575 O618 2.563 . S
Eu575 O619 2.419 . S
Eu575 C639 2.848 . S
N576 C568 1.362 . S
N576 Eu575 2.657 . S
N576 C577 1.334 . S
C577 N576 1.334 . S
C577 C579 1.413 . S
C577 H584 0.929 . S
C578 C566 1.392 . S
C578 C579 1.367 . S
C578 H586 0.930 . S
C579 C577 1.413 . S
C579 C578 1.367 . S
C579 H581 0.930 . S
H580 C573 0.930 . S
H581 C579 0.930 . S
H582 C570 0.930 . S
H583 C571 0.930 . S
H584 C577 0.929 . S
H585 C599 0.930 . S
H586 C578 0.930 . S
H587 C605 0.930 . S
H588 C596 0.929 . S
H589 C603 0.930 . S
H590 C567 0.931 . S
H591 C597 0.930 . S
H592 C630 0.930 . S
H593 C574 0.930 . S
H594 C629 0.931 . S
N595 Eu564 2.657 . S
N595 C596 1.334 . S
N595 C600 1.362 . S
C596 H588 0.929 . S
C596 N595 1.334 . S
C596 C599 1.413 . S
C597 H591 0.930 . S
C597 C598 1.392 . S
C597 C599 1.367 . S
C598 C597 1.392 . S
C598 C600 1.420 . S
C598 C630 1.423 . S
C599 H585 0.930 . S
C599 C596 1.413 . S
C599 C597 1.367 . S
C600 N595 1.362 . S
C600 C598 1.420 . S
C600 C604 1.429 . S
H601 C606 0.930 . S
N602 Eu564 2.609 . S
N602 C604 1.377 . S
N602 C605 1.321 . S
C603 H589 0.930 . S
C603 C605 1.400 . S
C603 C606 1.386 . S
C604 C600 1.429 . S
C604 N602 1.377 . S
C604 C607 1.411 . S
C605 H587 0.930 . S
C605 N602 1.321 . S
C605 C603 1.400 . S
C606 H601 0.930 . S
C606 C603 1.386 . S
C606 C607 1.395 . S
C607 C604 1.411 . S
C607 C606 1.395 . S
C607 C629 1.420 . S
O608 Eu564 2.558 . S
O608 C628 1.257 . S
O609 Eu564 2.612 . S
O609 Eu575 2.380 . S
O609 C620 1.276 . S
O610 Eu575 2.432 . S
O610 C627 1.264 . S
O611 Eu564 2.339 . S
O611 C627 1.254 . S
O612 Eu564 2.563 . S
O612 C620 1.235 . S
O613 Eu564 2.419 . S
O613 C628 1.249 . S
O614 Eu575 2.558 . S
O614 C639 1.257 . S
O615 Eu564 2.380 . S
O615 Eu575 2.612 . S
O615 C631 1.276 . S
O616 Eu564 2.432 . S
O616 C638 1.264 . S
O617 Eu575 2.339 . S
O617 C638 1.254 . S
O618 Eu575 2.563 . S
O618 C631 1.235 . S
O619 Eu575 2.419 . S
O619 C639 1.249 . S
C620 O609 1.276 . S
C620 O612 1.235 . S
C621 C623 1.393 . S
C621 C625 1.395 . S
C621 C628 1.492 . S
C622 C623 1.392 . S
C622 C624 1.386 . S
C623 C621 1.393 . S
C623 C622 1.392 . S
C623 H640 0.930 . S
C624 C622 1.386 . S
C624 C626 1.395 . S
C624 H641 0.930 . S
C625 C621 1.395 . S
C625 C626 1.379 . S
C625 H642 0.930 . S
C626 C624 1.395 . S
C626 C625 1.379 . S
C626 H643 0.930 . S
C627 O610 1.264 . S
C627 O611 1.254 . S
C628 Eu564 2.848 . S
C628 O608 1.257 . S
C628 O613 1.249 . S
C628 C621 1.492 . S
C629 H594 0.931 . S
C629 C607 1.420 . S
C629 C630 1.351 . S
C630 H592 0.930 . S
C630 C598 1.423 . S
C630 C629 1.351 . S
C631 O615 1.276 . S
C631 O618 1.235 . S
C632 C633 1.393 . S
C632 C636 1.395 . S
C632 C639 1.492 . S
C633 C632 1.393 . S
C633 C634 1.392 . S
C633 H644 0.930 . S
C634 C633 1.392 . S
C634 C635 1.386 . S
C635 C634 1.386 . S
C635 C637 1.395 . S
C635 H645 0.930 . S
C636 C632 1.395 . S
C636 C637 1.379 . S
C636 H646 0.930 . S
C637 C635 1.395 . S
C637 C636 1.379 . S
C637 H647 0.930 . S
C638 O616 1.264 . S
C638 O617 1.254 . S
C639 Eu575 2.848 . S
C639 O614 1.257 . S
C639 O619 1.249 . S
C639 C632 1.492 . S
H640 C623 0.930 . S
H641 C624 0.930 . S
H642 C625 0.930 . S
H643 C626 0.930 . S
H644 C633 0.930 . S
H645 C635 0.930 . S
H646 C636 0.930 . S
H647 C637 0.930 . S
Eu648 N679 2.657 . S
Eu648 N686 2.609 . S
Eu648 O692 2.558 . S
Eu648 O693 2.612 . S
Eu648 O695 2.339 . S
Eu648 O696 2.563 . S
Eu648 O697 2.419 . S
Eu648 O699 2.380 . S
Eu648 O700 2.432 . S
Eu648 C712 2.848 . S
C649 C652 1.429 . S
C649 C653 1.411 . S
C649 N656 1.377 . S
C650 C652 1.420 . S
C650 C654 1.423 . S
C650 C662 1.392 . S
C651 C653 1.420 . S
C651 C654 1.351 . S
C651 H674 0.931 . S
C652 C649 1.429 . S
C652 C650 1.420 . S
C652 N660 1.362 . S
C653 C649 1.411 . S
C653 C651 1.420 . S
C653 C658 1.395 . S
C654 C650 1.423 . S
C654 C651 1.351 . S
C654 H666 0.930 . S
C655 C657 1.400 . S
C655 C658 1.386 . S
C655 H667 0.930 . S
N656 C649 1.377 . S
N656 C657 1.321 . S
N656 Eu659 2.609 1_565 S
C657 C655 1.400 . S
C657 N656 1.321 . S
C657 H664 0.930 . S
C658 C653 1.395 . S
C658 C655 1.386 . S
C658 H677 0.930 . S
Eu659 N656 2.609 1_545 S
Eu659 N660 2.657 1_545 S
Eu659 O693 2.380 . S
Eu659 O694 2.432 . S
Eu659 O698 2.558 1_545 S
Eu659 O699 2.612 . S
Eu659 O701 2.339 . S
Eu659 O702 2.563 . S
Eu659 O703 2.419 1_545 S
Eu659 C723 2.848 1_545 S
N660 C652 1.362 . S
N660 Eu659 2.657 1_565 S
N660 C661 1.334 . S
C661 N660 1.334 . S
C661 C663 1.413 1_455 S
C661 H668 0.929 . S
C662 C650 1.392 . S
C662 C663 1.367 1_455 S
C662 H670 0.930 1_455 S
C663 C661 1.413 1_655 S
C663 C662 1.367 1_655 S
C663 H665 0.930 . S
H664 C657 0.930 . S
H665 C663 0.930 . S
H666 C654 0.930 . S
H667 C655 0.930 . S
H668 C661 0.929 . S
H669 C683 0.930 . S
H670 C662 0.930 1_655 S
H671 C689 0.930 . S
H672 C680 0.929 . S
H673 C687 0.923 1_655 S
H674 C651 0.931 . S
H675 C681 0.930 . S
H676 C714 0.930 . S
H677 C658 0.930 . S
H678 C713 0.931 . S
N679 Eu648 2.657 . S
N679 C680 1.334 . S
N679 C684 1.362 . S
C680 H672 0.929 . S
C680 N679 1.334 . S
C680 C683 1.413 . S
C681 H675 0.930 . S
C681 C682 1.392 . S
C681 C683 1.367 . S
C682 C681 1.392 . S
C682 C684 1.420 . S
C682 C714 1.423 . S
C683 H669 0.930 . S
C683 C680 1.413 . S
C683 C681 1.367 . S
C684 N679 1.362 . S
C684 C682 1.420 . S
C684 C688 1.429 . S
H685 C690 0.930 . S
N686 Eu648 2.609 . S
N686 C688 1.377 . S
N686 C689 1.321 . S
C687 H673 0.923 1_455 S
C687 C689 1.403 . S
C687 C690 1.388 . S
C688 C684 1.429 . S
C688 N686 1.377 . S
C688 C691 1.411 . S
C689 H671 0.930 . S
C689 N686 1.321 . S
C689 C687 1.403 . S
C690 H685 0.930 . S
C690 C687 1.388 . S
C690 C691 1.395 . S
C691 C688 1.411 . S
C691 C690 1.395 . S
C691 C713 1.420 . S
O692 Eu648 2.558 . S
O692 C712 1.257 . S
O693 Eu648 2.612 . S
O693 Eu659 2.380 . S
O693 C704 1.276 . S
O694 Eu659 2.432 . S
O694 C711 1.264 . S
O695 Eu648 2.339 . S
O695 C711 1.254 . S
O696 Eu648 2.563 . S
O696 C704 1.235 . S
O697 Eu648 2.419 . S
O697 C712 1.249 . S
O698 Eu659 2.558 1_565 S
O698 C723 1.257 . S
O699 Eu648 2.380 . S
O699 Eu659 2.612 . S
O699 C715 1.276 . S
O700 Eu648 2.432 . S
O700 C722 1.264 . S
O701 Eu659 2.339 . S
O701 C722 1.254 . S
O702 Eu659 2.563 . S
O702 C715 1.235 . S
O703 Eu659 2.419 1_565 S
O703 C723 1.249 . S
C704 O693 1.276 . S
C704 O696 1.235 . S
C705 C707 1.393 . S
C705 C709 1.395 . S
C705 C712 1.492 . S
C706 C707 1.392 . S
C706 C708 1.386 . S
C707 C705 1.393 . S
C707 C706 1.392 . S
C707 H724 0.930 . S
C708 C706 1.386 . S
C708 C710 1.395 . S
C708 H725 0.930 . S
C709 C705 1.395 . S
C709 C710 1.379 . S
C709 H726 0.930 . S
C710 C708 1.395 . S
C710 C709 1.379 . S
C710 H727 0.930 . S
C711 O694 1.264 . S
C711 O695 1.254 . S
C712 Eu648 2.848 . S
C712 O692 1.257 . S
C712 O697 1.249 . S
C712 C705 1.492 . S
C713 H678 0.931 . S
C713 C691 1.420 . S
C713 C714 1.351 . S
C714 H676 0.930 . S
C714 C682 1.423 . S
C714 C713 1.351 . S
C715 O699 1.276 . S
C715 O702 1.235 . S
C716 C717 1.393 . S
C716 C720 1.395 . S
C716 C723 1.492 . S
C717 C716 1.393 . S
C717 C718 1.392 . S
C717 H728 0.930 . S
C718 C717 1.392 . S
C718 C719 1.386 . S
C719 C718 1.386 . S
C719 C721 1.395 . S
C719 H729 0.930 . S
C720 C716 1.395 . S
C720 C721 1.379 . S
C720 H730 0.930 . S
C721 C719 1.395 . S
C721 C720 1.379 . S
C721 H731 0.930 . S
C722 O700 1.264 . S
C722 O701 1.254 . S
C723 Eu659 2.848 1_565 S
C723 O698 1.257 . S
C723 O703 1.249 . S
C723 C716 1.492 . S
H724 C707 0.930 . S
H725 C708 0.930 . S
H726 C709 0.930 . S
H727 C710 0.930 . S
H728 C717 0.930 . S
H729 C719 0.930 . S
H730 C720 0.930 . S
H731 C721 0.930 . S
Eu732 N763 2.657 . S
Eu732 N770 2.609 . S
Eu732 O776 2.558 . S
Eu732 O777 2.612 . S
Eu732 O779 2.339 . S
Eu732 O780 2.563 . S
Eu732 O781 2.419 . S
Eu732 O783 2.380 . S
Eu732 O784 2.432 . S
Eu732 C796 2.848 . S
C733 C736 1.429 . S
C733 C737 1.411 . S
C733 N740 1.377 . S
C734 C736 1.420 . S
C734 C738 1.423 . S
C734 C746 1.392 . S
C735 C737 1.420 . S
C735 C738 1.351 . S
C735 H758 0.931 . S
C736 C733 1.429 . S
C736 C734 1.420 . S
C736 N744 1.362 . S
C737 C733 1.411 . S
C737 C735 1.420 . S
C737 C742 1.395 . S
C738 C734 1.423 . S
C738 C735 1.351 . S
C738 H750 0.930 . S
C739 C741 1.400 . S
C739 C742 1.386 . S
C739 H751 0.930 . S
N740 C733 1.377 . S
N740 C741 1.321 . S
N740 Eu743 2.609 . S
C741 C739 1.400 . S
C741 N740 1.321 . S
C741 H748 0.930 . S
C742 C737 1.395 . S
C742 C739 1.386 . S
C742 H761 0.930 . S
Eu743 N740 2.609 . S
Eu743 N744 2.657 . S
Eu743 O777 2.380 . S
Eu743 O778 2.432 . S
Eu743 O782 2.558 . S
Eu743 O783 2.612 . S
Eu743 O785 2.339 . S
Eu743 O786 2.563 . S
Eu743 O787 2.419 . S
Eu743 C807 2.848 . S
N744 C736 1.362 . S
N744 Eu743 2.657 . S
N744 C745 1.334 . S
C745 N744 1.334 . S
C745 C747 1.413 . S
C745 H752 0.929 . S
C746 C734 1.392 . S
C746 C747 1.367 . S
C746 H754 0.930 . S
C747 C745 1.413 . S
C747 C746 1.367 . S
C747 H749 0.930 . S
H748 C741 0.930 . S
H749 C747 0.930 . S
H750 C738 0.930 . S
H751 C739 0.930 . S
H752 C745 0.929 . S
H753 C767 0.930 . S
H754 C746 0.930 . S
H755 C773 0.930 . S
H756 C764 0.929 . S
H757 C771 0.930 . S
H758 C735 0.931 . S
H759 C765 0.930 . S
H760 C798 0.930 . S
H761 C742 0.930 . S
H762 C797 0.931 . S
N763 Eu732 2.657 . S
N763 C764 1.334 . S
N763 C768 1.362 . S
C764 H756 0.929 . S
C764 N763 1.334 . S
C764 C767 1.413 . S
C765 H759 0.930 . S
C765 C766 1.392 . S
C765 C767 1.367 . S
C766 C765 1.392 . S
C766 C768 1.420 . S
C766 C798 1.423 . S
C767 H753 0.930 . S
C767 C764 1.413 . S
C767 C765 1.367 . S
C768 N763 1.362 . S
C768 C766 1.420 . S
C768 C772 1.429 . S
H769 C774 0.930 . S
N770 Eu732 2.609 . S
N770 C772 1.377 . S
N770 C773 1.321 . S
C771 H757 0.930 . S
C771 C773 1.400 . S
C771 C774 1.386 . S
C772 C768 1.429 . S
C772 N770 1.377 . S
C772 C775 1.411 . S
C773 H755 0.930 . S
C773 N770 1.321 . S
C773 C771 1.400 . S
C774 H769 0.930 . S
C774 C771 1.386 . S
C774 C775 1.395 . S
C775 C772 1.411 . S
C775 C774 1.395 . S
C775 C797 1.420 . S
O776 Eu732 2.558 . S
O776 C796 1.257 . S
O777 Eu732 2.612 . S
O777 Eu743 2.380 . S
O777 C788 1.276 . S
O778 Eu743 2.432 . S
O778 C795 1.264 . S
O779 Eu732 2.339 . S
O779 C795 1.254 . S
O780 Eu732 2.563 . S
O780 C788 1.235 . S
O781 Eu732 2.419 . S
O781 C796 1.249 . S
O782 Eu743 2.558 . S
O782 C807 1.257 . S
O783 Eu732 2.380 . S
O783 Eu743 2.612 . S
O783 C799 1.276 . S
O784 Eu732 2.432 . S
O784 C806 1.264 . S
O785 Eu743 2.339 . S
O785 C806 1.254 . S
O786 Eu743 2.563 . S
O786 C799 1.235 . S
O787 Eu743 2.419 . S
O787 C807 1.249 . S
C788 O777 1.276 . S
C788 O780 1.235 . S
C789 C791 1.393 . S
C789 C793 1.395 . S
C789 C796 1.492 . S
C790 C791 1.392 . S
C790 C792 1.386 . S
C791 C789 1.393 . S
C791 C790 1.392 . S
C791 H808 0.930 . S
C792 C790 1.386 . S
C792 C794 1.395 . S
C792 H809 0.930 . S
C793 C789 1.395 . S
C793 C794 1.379 . S
C793 H810 0.930 . S
C794 C792 1.395 . S
C794 C793 1.379 . S
C794 H811 0.930 . S
C795 O778 1.264 . S
C795 O779 1.254 . S
C796 Eu732 2.848 . S
C796 O776 1.257 . S
C796 O781 1.249 . S
C796 C789 1.492 . S
C797 H762 0.931 . S
C797 C775 1.420 . S
C797 C798 1.351 . S
C798 H760 0.930 . S
C798 C766 1.423 . S
C798 C797 1.351 . S
C799 O783 1.276 . S
C799 O786 1.235 . S
C800 C801 1.393 . S
C800 C804 1.395 . S
C800 C807 1.492 . S
C801 C800 1.393 . S
C801 C802 1.392 . S
C801 H812 0.930 . S
C802 C801 1.392 . S
C802 C803 1.386 . S
C803 C802 1.386 . S
C803 C805 1.395 . S
C803 H813 0.930 . S
C804 C800 1.395 . S
C804 C805 1.379 . S
C804 H814 0.930 . S
C805 C803 1.395 . S
C805 C804 1.379 . S
C805 H815 0.930 . S
C806 O784 1.264 . S
C806 O785 1.254 . S
C807 Eu743 2.848 . S
C807 O782 1.257 . S
C807 O787 1.249 . S
C807 C800 1.492 . S
H808 C791 0.930 . S
H809 C792 0.930 . S
H810 C793 0.930 . S
H811 C794 0.930 . S
H812 C801 0.930 . S
H813 C803 0.930 . S
H814 C804 0.930 . S
H815 C805 0.930 . S
Eu816 N847 2.657 . S
Eu816 N854 2.609 . S
Eu816 O860 2.558 1_545 S
Eu816 O861 2.612 . S
Eu816 O863 2.339 . S
Eu816 O864 2.563 . S
Eu816 O865 2.419 . S
Eu816 O867 2.380 . S
Eu816 O868 2.432 1_545 S
Eu816 C880 2.848 . S
C817 C820 1.429 . S
C817 C821 1.411 . S
C817 N824 1.377 . S
C818 C820 1.420 . S
C818 C822 1.423 . S
C818 C830 1.392 1_545 S
C819 C821 1.420 . S
C819 C822 1.351 . S
C819 H842 0.931 . S
C820 C817 1.429 . S
C820 C818 1.420 . S
C820 N828 1.362 . S
C821 C817 1.411 . S
C821 C819 1.420 . S
C821 C826 1.395 . S
C822 C818 1.423 . S
C822 C819 1.351 . S
C822 H834 0.930 . S
C823 C825 1.400 . S
C823 C826 1.386 . S
C823 H835 0.930 . S
N824 C817 1.377 . S
N824 C825 1.321 . S
N824 Eu827 2.609 . S
C825 C823 1.400 . S
C825 N824 1.321 . S
C825 H832 0.930 . S
C826 C821 1.395 . S
C826 C823 1.386 . S
C826 H845 0.930 . S
Eu827 N824 2.609 . S
Eu827 N828 2.657 . S
Eu827 O861 2.380 1_556 S
Eu827 O862 2.432 1_556 S
Eu827 O866 2.558 . S
Eu827 O867 2.612 1_556 S
Eu827 O869 2.339 . S
Eu827 O870 2.563 . S
Eu827 O871 2.419 . S
Eu827 C891 2.848 . S
N828 C820 1.362 . S
N828 Eu827 2.657 . S
N828 C829 1.334 1_545 S
C829 N828 1.334 1_565 S
C829 C831 1.413 . S
C829 H836 0.929 . S
C830 C818 1.392 1_565 S
C830 C831 1.367 . S
C830 H838 0.930 . S
C831 C829 1.413 . S
C831 C830 1.367 . S
C831 H833 0.930 . S
H832 C825 0.930 . S
H833 C831 0.930 . S
H834 C822 0.930 . S
H835 C823 0.930 . S
H836 C829 0.929 . S
H837 C851 0.930 . S
H838 C830 0.930 . S
H839 C857 0.930 . S
H840 C848 0.929 . S
H841 C855 0.930 . S
H842 C819 0.931 . S
H843 C849 0.930 . S
H844 C882 0.930 . S
H845 C826 0.930 . S
H846 C881 0.931 . S
N847 Eu816 2.657 . S
N847 C848 1.334 . S
N847 C852 1.362 . S
C848 H840 0.929 . S
C848 N847 1.334 . S
C848 C851 1.413 . S
C849 H843 0.930 . S
C849 C850 1.392 . S
C849 C851 1.367 . S
C850 C849 1.392 . S
C850 C852 1.420 . S
C850 C882 1.423 . S
C851 H837 0.930 . S
C851 C848 1.413 . S
C851 C849 1.367 . S
C852 N847 1.362 . S
C852 C850 1.420 . S
C852 C856 1.429 . S
H853 C858 0.930 . S
N854 Eu816 2.609 . S
N854 C856 1.377 . S
N854 C857 1.321 1_545 S
C855 H841 0.930 . S
C855 C857 1.400 . S
C855 C858 1.386 . S
C856 C852 1.429 . S
C856 N854 1.377 . S
C856 C859 1.411 . S
C857 H839 0.930 . S
C857 N854 1.321 1_565 S
C857 C855 1.400 . S
C858 H853 0.930 . S
C858 C855 1.386 . S
C858 C859 1.395 1_565 S
C859 C856 1.411 . S
C859 C858 1.395 1_545 S
C859 C881 1.420 . S
O860 Eu816 2.558 1_565 S
O860 C880 1.257 1_565 S
O861 Eu816 2.612 . S
O861 Eu827 2.380 1_554 S
O861 C872 1.276 . S
O862 Eu827 2.432 1_554 S
O862 C879 1.264 . S
O863 Eu816 2.339 . S
O863 C879 1.254 . S
O864 Eu816 2.563 . S
O864 C872 1.235 . S
O865 Eu816 2.419 . S
O865 C880 1.249 . S
O866 Eu827 2.558 . S
O866 C891 1.257 . S
O867 Eu816 2.380 . S
O867 Eu827 2.612 1_554 S
O867 C883 1.276 . S
O868 Eu816 2.432 1_565 S
O868 C890 1.264 1_554 S
O869 Eu827 2.339 . S
O869 C890 1.254 1_545 S
O870 Eu827 2.563 . S
O870 C883 1.235 1_556 S
O871 Eu827 2.419 . S
O871 C891 1.249 . S
C872 O861 1.276 . S
C872 O864 1.235 . S
C873 C875 1.392 1_565 S
C873 C877 1.395 . S
C873 C880 1.492 1_565 S
C874 C875 1.392 . S
C874 C876 1.386 1_545 S
C875 C873 1.392 1_545 S
C875 C874 1.392 . S
C875 H892 0.930 . S
C876 C874 1.386 1_565 S
C876 C878 1.395 . S
C876 H893 0.930 . S
C877 C873 1.395 . S
C877 C878 1.379 . S
C877 H894 0.930 . S
C878 C876 1.395 . S
C878 C877 1.379 . S
C878 H895 0.930 . S
C879 O862 1.264 . S
C879 O863 1.254 . S
C880 Eu816 2.848 . S
C880 O860 1.257 1_545 S
C880 O865 1.249 . S
C880 C873 1.492 1_545 S
C881 H846 0.931 . S
C881 C859 1.420 . S
C881 C882 1.351 . S
C882 H844 0.930 . S
C882 C850 1.423 . S
C882 C881 1.351 . S
C883 O867 1.276 . S
C883 O870 1.235 1_554 S
C884 C885 1.393 . S
C884 C888 1.395 . S
C884 C891 1.492 . S
C885 C884 1.393 . S
C885 C886 1.392 . S
C885 H896 0.930 . S
C886 C885 1.392 . S
C886 C887 1.386 . S
C887 C886 1.386 . S
C887 C889 1.395 . S
C887 H897 0.930 . S
C888 C884 1.395 . S
C888 C889 1.379 . S
C888 H898 0.930 . S
C889 C887 1.395 . S
C889 C888 1.379 . S
C889 H899 0.930 . S
C890 O868 1.264 1_556 S
C890 O869 1.254 1_565 S
C891 Eu827 2.848 . S
C891 O866 1.257 . S
C891 O871 1.249 . S
C891 C884 1.492 . S
H892 C875 0.930 . S
H893 C876 0.930 . S
H894 C877 0.930 . S
H895 C878 0.930 . S
H896 C885 0.930 . S
H897 C887 0.930 . S
H898 C888 0.930 . S
H899 C889 0.930 . S
Eu900 N931 2.657 . S
Eu900 N938 2.609 . S
Eu900 O944 2.558 . S
Eu900 O945 2.612 . S
Eu900 O947 2.339 . S
Eu900 O948 2.563 . S
Eu900 O949 2.419 . S
Eu900 O951 2.380 . S
Eu900 O952 2.432 . S
Eu900 C964 2.848 . S
C901 C904 1.429 . S
C901 C905 1.411 . S
C901 N908 1.377 . S
C902 C904 1.420 . S
C902 C906 1.423 . S
C902 C914 1.392 . S
C903 C905 1.420 . S
C903 C906 1.351 . S
C903 H926 0.931 . S
C904 C901 1.429 . S
C904 C902 1.420 . S
C904 N912 1.362 . S
C905 C901 1.411 . S
C905 C903 1.420 . S
C905 C910 1.395 . S
C906 C902 1.423 . S
C906 C903 1.351 . S
C906 H918 0.930 . S
C907 C909 1.400 . S
C907 C910 1.386 . S
C907 H919 0.930 . S
N908 C901 1.377 . S
N908 C909 1.321 . S
N908 Eu911 2.609 . S
C909 C907 1.400 . S
C909 N908 1.321 . S
C909 H916 0.930 . S
C910 C905 1.395 . S
C910 C907 1.386 . S
C910 H929 0.930 . S
Eu911 N908 2.609 . S
Eu911 N912 2.657 . S
Eu911 O945 2.380 . S
Eu911 O946 2.432 . S
Eu911 O950 2.558 . S
Eu911 O951 2.612 . S
Eu911 O953 2.339 . S
Eu911 O954 2.563 . S
Eu911 O955 2.419 . S
Eu911 C975 2.848 . S
N912 C904 1.362 . S
N912 Eu911 2.657 . S
N912 C913 1.334 . S
C913 N912 1.334 . S
C913 C915 1.413 . S
C913 H920 0.929 . S
C914 C902 1.392 . S
C914 C915 1.367 . S
C914 H922 0.930 . S
C915 C913 1.413 . S
C915 C914 1.367 . S
C915 H917 0.930 . S
H916 C909 0.930 . S
H917 C915 0.930 . S
H918 C906 0.930 . S
H919 C907 0.930 . S
H920 C913 0.929 . S
H921 C935 0.930 . S
H922 C914 0.930 . S
H923 C941 0.930 . S
H924 C932 0.929 . S
H925 C939 0.930 . S
H926 C903 0.931 . S
H927 C933 0.930 . S
H928 C966 0.930 . S
H929 C910 0.930 . S
H930 C965 0.931 . S
N931 Eu900 2.657 . S
N931 C932 1.334 . S
N931 C936 1.362 . S
C932 H924 0.929 . S
C932 N931 1.334 . S
C932 C935 1.413 . S
C933 H927 0.930 . S
C933 C934 1.392 . S
C933 C935 1.367 . S
C934 C933 1.392 . S
C934 C936 1.420 . S
C934 C966 1.423 . S
C935 H921 0.930 . S
C935 C932 1.413 . S
C935 C933 1.367 . S
C936 N931 1.362 . S
C936 C934 1.420 . S
C936 C940 1.429 . S
H937 C942 0.930 . S
N938 Eu900 2.609 . S
N938 C940 1.377 . S
N938 C941 1.321 . S
C939 H925 0.930 . S
C939 C941 1.400 . S
C939 C942 1.386 . S
C940 C936 1.429 . S
C940 N938 1.377 . S
C940 C943 1.411 . S
C941 H923 0.930 . S
C941 N938 1.321 . S
C941 C939 1.400 . S
C942 H937 0.930 . S
C942 C939 1.386 . S
C942 C943 1.395 . S
C943 C940 1.411 . S
C943 C942 1.395 . S
C943 C965 1.420 . S
O944 Eu900 2.558 . S
O944 C964 1.257 . S
O945 Eu900 2.612 . S
O945 Eu911 2.380 . S
O945 C956 1.276 . S
O946 Eu911 2.432 . S
O946 C963 1.264 . S
O947 Eu900 2.339 . S
O947 C963 1.254 . S
O948 Eu900 2.563 . S
O948 C956 1.235 . S
O949 Eu900 2.419 . S
O949 C964 1.249 . S
O950 Eu911 2.558 . S
O950 C975 1.257 . S
O951 Eu900 2.380 . S
O951 Eu911 2.612 . S
O951 C967 1.276 . S
O952 Eu900 2.432 . S
O952 C974 1.264 . S
O953 Eu911 2.339 . S
O953 C974 1.254 . S
O954 Eu911 2.563 . S
O954 C967 1.235 . S
O955 Eu911 2.419 . S
O955 C975 1.249 . S
C956 O945 1.276 . S
C956 O948 1.235 . S
C957 C959 1.393 . S
C957 C961 1.395 . S
C957 C964 1.492 . S
C958 C959 1.392 . S
C958 C960 1.386 . S
C959 C957 1.393 . S
C959 C958 1.392 . S
C959 H976 0.930 . S
C960 C958 1.386 . S
C960 C962 1.395 . S
C960 H977 0.930 . S
C961 C957 1.395 . S
C961 C962 1.379 . S
C961 H978 0.930 . S
C962 C960 1.395 . S
C962 C961 1.379 . S
C962 H979 0.930 . S
C963 O946 1.264 . S
C963 O947 1.254 . S
C964 Eu900 2.848 . S
C964 O944 1.257 . S
C964 O949 1.249 . S
C964 C957 1.492 . S
C965 H930 0.931 . S
C965 C943 1.420 . S
C965 C966 1.351 . S
C966 H928 0.930 . S
C966 C934 1.423 . S
C966 C965 1.351 . S
C967 O951 1.276 . S
C967 O954 1.235 . S
C968 C969 1.393 . S
C968 C972 1.395 . S
C968 C975 1.492 . S
C969 C968 1.393 . S
C969 C970 1.392 . S
C969 H980 0.930 . S
C970 C969 1.392 . S
C970 C971 1.386 . S
C971 C970 1.386 . S
C971 C973 1.395 . S
C971 H981 0.930 . S
C972 C968 1.395 . S
C972 C973 1.379 . S
C972 H982 0.930 . S
C973 C971 1.395 . S
C973 C972 1.379 . S
C973 H983 0.930 . S
C974 O952 1.264 . S
C974 O953 1.254 . S
C975 Eu911 2.848 . S
C975 O950 1.257 . S
C975 O955 1.249 . S
C975 C968 1.492 . S
H976 C959 0.930 . S
H977 C960 0.930 . S
H978 C961 0.930 . S
H979 C962 0.930 . S
H980 C969 0.930 . S
H981 C971 0.930 . S
H982 C972 0.930 . S
H983 C973 0.930 . S
Eu984 N1015 2.657 . S
Eu984 N1022 2.609 . S
Eu984 O1028 2.558 . S
Eu984 O1029 2.612 1_554 S
Eu984 O1031 2.339 . S
Eu984 O1032 2.563 1_554 S
Eu984 O1033 2.419 . S
Eu984 O1035 2.380 . S
Eu984 O1036 2.432 . S
Eu984 C1048 2.848 . S
C985 C988 1.429 . S
C985 C989 1.411 . S
C985 N992 1.377 . S
C986 C988 1.420 . S
C986 C990 1.423 . S
C986 C998 1.392 . S
C987 C989 1.420 . S
C987 C990 1.351 . S
C987 H1010 0.931 . S
C988 C985 1.429 . S
C988 C986 1.420 . S
C988 N996 1.362 . S
C989 C985 1.411 . S
C989 C987 1.420 . S
C989 C994 1.395 . S
C990 C986 1.423 . S
C990 C987 1.351 . S
C990 H1002 0.930 . S
C991 C993 1.400 . S
C991 C994 1.386 . S
C991 H1003 0.930 . S
N992 C985 1.377 . S
N992 C993 1.321 . S
N992 Eu995 2.609 1_556 S
C993 C991 1.400 . S
C993 N992 1.321 . S
C993 H1000 0.930 . S
C994 C989 1.395 . S
C994 C991 1.386 . S
C994 H1013 0.930 . S
Eu995 N992 2.609 1_554 S
Eu995 N996 2.657 1_554 S
Eu995 O1029 2.380 1_554 S
Eu995 O1030 2.432 . S
Eu995 O1034 2.558 . S
Eu995 O1035 2.612 . S
Eu995 O1037 2.339 . S
Eu995 O1038 2.563 . S
Eu995 O1039 2.419 . S
Eu995 C1059 2.848 . S
N996 C988 1.362 . S
N996 Eu995 2.657 1_556 S
N996 C997 1.334 . S
C997 N996 1.334 . S
C997 C999 1.413 . S
C997 H1004 0.929 . S
C998 C986 1.392 . S
C998 C999 1.367 . S
C998 H1006 0.930 . S
C999 C997 1.413 . S
C999 C998 1.367 . S
C999 H1001 0.930 . S
H1000 C993 0.930 . S
H1001 C999 0.930 . S
H1002 C990 0.930 . S
H1003 C991 0.930 . S
H1004 C997 0.929 . S
H1005 C1019 0.930 . S
H1006 C998 0.930 . S
H1007 C1025 0.930 . S
H1008 C1016 0.929 . S
H1009 C1023 0.930 . S
H1010 C987 0.931 . S
H1011 C1017 0.930 . S
H1012 C1050 0.930 . S
H1013 C994 0.930 . S
H1014 C1049 0.931 . S
N1015 Eu984 2.657 . S
N1015 C1016 1.334 . S
N1015 C1020 1.362 . S
C1016 H1008 0.929 . S
C1016 N1015 1.334 . S
C1016 C1019 1.413 . S
C1017 H1011 0.930 . S
C1017 C1018 1.392 . S
C1017 C1019 1.367 . S
C1018 C1017 1.392 . S
C1018 C1020 1.420 . S
C1018 C1050 1.423 . S
C1019 H1005 0.930 . S
C1019 C1016 1.413 . S
C1019 C1017 1.367 . S
C1020 N1015 1.362 . S
C1020 C1018 1.420 . S
C1020 C1024 1.429 . S
H1021 C1026 0.930 . S
N1022 Eu984 2.609 . S
N1022 C1024 1.377 . S
N1022 C1025 1.321 . S
C1023 H1009 0.930 . S
C1023 C1025 1.400 . S
C1023 C1026 1.386 . S
C1024 C1020 1.429 . S
C1024 N1022 1.377 . S
C1024 C1027 1.411 . S
C1025 H1007 0.930 . S
C1025 N1022 1.321 . S
C1025 C1023 1.400 . S
C1026 H1021 0.930 . S
C1026 C1023 1.386 . S
C1026 C1027 1.395 . S
C1027 C1024 1.411 . S
C1027 C1026 1.395 . S
C1027 C1049 1.420 . S
O1028 Eu984 2.558 . S
O1028 C1048 1.257 . S
O1029 Eu984 2.612 1_556 S
O1029 Eu995 2.380 1_556 S
O1029 C1040 1.276 . S
O1030 Eu995 2.432 . S
O1030 C1047 1.264 . S
O1031 Eu984 2.339 . S
O1031 C1047 1.254 . S
O1032 Eu984 2.563 1_556 S
O1032 C1040 1.235 . S
O1033 Eu984 2.419 . S
O1033 C1048 1.249 . S
O1034 Eu995 2.558 . S
O1034 C1059 1.257 . S
O1035 Eu984 2.380 . S
O1035 Eu995 2.612 . S
O1035 C1051 1.276 . S
O1036 Eu984 2.432 . S
O1036 C1058 1.264 . S
O1037 Eu995 2.339 . S
O1037 C1058 1.254 . S
O1038 Eu995 2.563 . S
O1038 C1051 1.235 . S
O1039 Eu995 2.419 . S
O1039 C1059 1.249 . S
C1040 O1029 1.276 . S
C1040 O1032 1.235 . S
C1041 C1043 1.393 . S
C1041 C1045 1.395 . S
C1041 C1048 1.492 . S
C1042 C1043 1.392 1_556 S
C1042 C1044 1.386 1_556 S
C1043 C1041 1.393 . S
C1043 C1042 1.392 1_554 S
C1043 H1060 0.933 . S
C1044 C1042 1.386 1_554 S
C1044 C1046 1.395 . S
C1044 H1061 0.930 . S
C1045 C1041 1.395 . S
C1045 C1046 1.379 . S
C1045 H1062 0.930 . S
C1046 C1044 1.395 . S
C1046 C1045 1.379 . S
C1046 H1063 0.930 . S
C1047 O1030 1.264 . S
C1047 O1031 1.254 . S
C1048 Eu984 2.848 . S
C1048 O1028 1.257 . S
C1048 O1033 1.249 . S
C1048 C1041 1.492 . S
C1049 H1014 0.931 . S
C1049 C1027 1.420 . S
C1049 C1050 1.351 . S
C1050 H1012 0.930 . S
C1050 C1018 1.423 . S
C1050 C1049 1.351 . S
C1051 O1035 1.276 . S
C1051 O1038 1.235 . S
C1052 C1053 1.393 . S
C1052 C1056 1.395 . S
C1052 C1059 1.492 . S
C1053 C1052 1.393 . S
C1053 C1054 1.392 . S
C1053 H1064 0.930 . S
C1054 C1053 1.392 . S
C1054 C1055 1.386 . S
C1055 C1054 1.386 . S
C1055 C1057 1.395 . S
C1055 H1065 0.930 . S
C1056 C1052 1.395 . S
C1056 C1057 1.379 . S
C1056 H1066 0.930 . S
C1057 C1055 1.395 . S
C1057 C1056 1.379 . S
C1057 H1067 0.930 . S
C1058 O1036 1.264 . S
C1058 O1037 1.254 . S
C1059 Eu995 2.848 . S
C1059 O1034 1.257 . S
C1059 O1039 1.249 . S
C1059 C1052 1.492 . S
H1060 C1043 0.933 . S
H1061 C1044 0.930 . S
H1062 C1045 0.930 . S
H1063 C1046 0.930 . S
H1064 C1053 0.930 . S
H1065 C1055 0.930 . S
H1066 C1056 0.930 . S
H1067 C1057 0.930 . S
Eu1068 N1099 2.657 . S
Eu1068 N1106 2.609 . S
Eu1068 O1112 2.558 . S
Eu1068 O1113 2.612 . S
Eu1068 O1115 2.339 . S
Eu1068 O1116 2.563 . S
Eu1068 O1117 2.419 . S
Eu1068 O1119 2.380 . S
Eu1068 O1120 2.432 . S
Eu1068 C1132 2.848 . S
C1069 C1072 1.429 . S
C1069 C1073 1.411 . S
C1069 N1076 1.377 . S
C1070 C1072 1.420 . S
C1070 C1074 1.423 . S
C1070 C1082 1.392 . S
C1071 C1073 1.420 . S
C1071 C1074 1.351 . S
C1071 H1094 0.931 . S
C1072 C1069 1.429 . S
C1072 C1070 1.420 . S
C1072 N1080 1.362 . S
C1073 C1069 1.411 . S
C1073 C1071 1.420 . S
C1073 C1078 1.395 . S
C1074 C1070 1.423 . S
C1074 C1071 1.351 . S
C1074 H1086 0.930 . S
C1075 C1077 1.400 . S
C1075 C1078 1.386 . S
C1075 H1087 0.930 . S
N1076 C1069 1.377 . S
N1076 C1077 1.321 . S
N1076 Eu1079 2.609 . S
C1077 C1075 1.400 . S
C1077 N1076 1.321 . S
C1077 H1084 0.930 . S
C1078 C1073 1.395 . S
C1078 C1075 1.386 . S
C1078 H1097 0.930 . S
Eu1079 N1076 2.609 . S
Eu1079 N1080 2.657 . S
Eu1079 O1113 2.380 . S
Eu1079 O1114 2.432 . S
Eu1079 O1118 2.558 . S
Eu1079 O1119 2.612 . S
Eu1079 O1121 2.339 . S
Eu1079 O1122 2.563 . S
Eu1079 O1123 2.419 . S
Eu1079 C1143 2.848 . S
N1080 C1072 1.362 . S
N1080 Eu1079 2.657 . S
N1080 C1081 1.334 . S
C1081 N1080 1.334 . S
C1081 C1083 1.413 . S
C1081 H1088 0.929 . S
C1082 C1070 1.392 . S
C1082 C1083 1.367 . S
C1082 H1090 0.930 . S
C1083 C1081 1.413 . S
C1083 C1082 1.367 . S
C1083 H1085 0.930 . S
H1084 C1077 0.930 . S
H1085 C1083 0.930 . S
H1086 C1074 0.930 . S
H1087 C1075 0.930 . S
H1088 C1081 0.929 . S
H1089 C1103 0.930 . S
H1090 C1082 0.930 . S
H1091 C1109 0.930 . S
H1092 C1100 0.929 . S
H1093 C1107 0.930 . S
H1094 C1071 0.931 . S
H1095 C1101 0.930 . S
H1096 C1134 0.930 . S
H1097 C1078 0.930 . S
H1098 C1133 0.931 . S
N1099 Eu1068 2.657 . S
N1099 C1100 1.334 . S
N1099 C1104 1.362 . S
C1100 H1092 0.929 . S
C1100 N1099 1.334 . S
C1100 C1103 1.413 . S
C1101 H1095 0.930 . S
C1101 C1102 1.392 . S
C1101 C1103 1.367 . S
C1102 C1101 1.392 . S
C1102 C1104 1.420 . S
C1102 C1134 1.423 . S
C1103 H1089 0.930 . S
C1103 C1100 1.413 . S
C1103 C1101 1.367 . S
C1104 N1099 1.362 . S
C1104 C1102 1.420 . S
C1104 C1108 1.429 . S
H1105 C1110 0.930 . S
N1106 Eu1068 2.609 . S
N1106 C1108 1.377 . S
N1106 C1109 1.321 . S
C1107 H1093 0.930 . S
C1107 C1109 1.400 . S
C1107 C1110 1.386 . S
C1108 C1104 1.429 . S
C1108 N1106 1.377 . S
C1108 C1111 1.411 . S
C1109 H1091 0.930 . S
C1109 N1106 1.321 . S
C1109 C1107 1.400 . S
C1110 H1105 0.930 . S
C1110 C1107 1.386 . S
C1110 C1111 1.395 . S
C1111 C1108 1.411 . S
C1111 C1110 1.395 . S
C1111 C1133 1.420 . S
O1112 Eu1068 2.558 . S
O1112 C1132 1.257 . S
O1113 Eu1068 2.612 . S
O1113 Eu1079 2.380 . S
O1113 C1124 1.276 . S
O1114 Eu1079 2.432 . S
O1114 C1131 1.264 . S
O1115 Eu1068 2.339 . S
O1115 C1131 1.254 . S
O1116 Eu1068 2.563 . S
O1116 C1124 1.235 . S
O1117 Eu1068 2.419 . S
O1117 C1132 1.249 . S
O1118 Eu1079 2.558 . S
O1118 C1143 1.257 . S
O1119 Eu1068 2.380 . S
O1119 Eu1079 2.612 . S
O1119 C1135 1.276 . S
O1120 Eu1068 2.432 . S
O1120 C1142 1.264 . S
O1121 Eu1079 2.339 . S
O1121 C1142 1.254 . S
O1122 Eu1079 2.563 . S
O1122 C1135 1.235 . S
O1123 Eu1079 2.419 . S
O1123 C1143 1.249 . S
C1124 O1113 1.276 . S
C1124 O1116 1.235 . S
C1125 C1127 1.393 . S
C1125 C1129 1.395 . S
C1125 C1132 1.492 . S
C1126 C1127 1.392 . S
C1126 C1128 1.386 . S
C1127 C1125 1.393 . S
C1127 C1126 1.392 . S
C1127 H1144 0.930 . S
C1128 C1126 1.386 . S
C1128 C1130 1.395 . S
C1128 H1145 0.930 . S
C1129 C1125 1.395 . S
C1129 C1130 1.379 . S
C1129 H1146 0.930 . S
C1130 C1128 1.395 . S
C1130 C1129 1.379 . S
C1130 H1147 0.930 . S
C1131 O1114 1.264 . S
C1131 O1115 1.254 . S
C1132 Eu1068 2.848 . S
C1132 O1112 1.257 . S
C1132 O1117 1.249 . S
C1132 C1125 1.492 . S
C1133 H1098 0.931 . S
C1133 C1111 1.420 . S
C1133 C1134 1.351 . S
C1134 H1096 0.930 . S
C1134 C1102 1.423 . S
C1134 C1133 1.351 . S
C1135 O1119 1.276 . S
C1135 O1122 1.235 . S
C1136 C1137 1.393 . S
C1136 C1140 1.395 . S
C1136 C1143 1.492 . S
C1137 C1136 1.393 . S
C1137 C1138 1.392 . S
C1137 H1148 0.930 . S
C1138 C1137 1.392 . S
C1138 C1139 1.386 . S
C1139 C1138 1.386 . S
C1139 C1141 1.395 . S
C1139 H1149 0.930 . S
C1140 C1136 1.395 . S
C1140 C1141 1.379 . S
C1140 H1150 0.930 . S
C1141 C1139 1.395 . S
C1141 C1140 1.379 . S
C1141 H1151 0.930 . S
C1142 O1120 1.264 . S
C1142 O1121 1.254 . S
C1143 Eu1079 2.848 . S
C1143 O1118 1.257 . S
C1143 O1123 1.249 . S
C1143 C1136 1.492 . S
H1144 C1127 0.930 . S
H1145 C1128 0.930 . S
H1146 C1129 0.930 . S
H1147 C1130 0.930 . S
H1148 C1137 0.930 . S
H1149 C1139 0.930 . S
H1150 C1140 0.930 . S
H1151 C1141 0.930 . S
Eu1152 N1183 2.657 . S
Eu1152 N1190 2.609 . S
Eu1152 O1196 2.558 . S
Eu1152 O1197 2.612 . S
Eu1152 O1199 2.339 . S
Eu1152 O1200 2.563 . S
Eu1152 O1201 2.419 . S
Eu1152 O1203 2.380 . S
Eu1152 O1204 2.432 . S
Eu1152 C1216 2.848 . S
C1153 C1156 1.429 . S
C1153 C1157 1.411 1_455 S
C1153 N1160 1.377 . S
C1154 C1156 1.420 1_655 S
C1154 C1158 1.423 . S
C1154 C1166 1.392 . S
C1155 C1157 1.420 . S
C1155 C1158 1.351 . S
C1155 H1178 0.931 . S
C1156 C1153 1.429 . S
C1156 C1154 1.420 1_455 S
C1156 N1164 1.362 . S
C1157 C1153 1.411 1_655 S
C1157 C1155 1.420 . S
C1157 C1162 1.395 . S
C1158 C1154 1.423 . S
C1158 C1155 1.351 . S
C1158 H1170 0.930 . S
C1159 C1161 1.400 . S
C1159 C1162 1.386 1_455 S
C1159 H1171 0.930 . S
N1160 C1153 1.377 . S
N1160 C1161 1.321 . S
N1160 Eu1163 2.609 . S
C1161 C1159 1.400 . S
C1161 N1160 1.321 . S
C1161 H1168 0.930 . S
C1162 C1157 1.395 . S
C1162 C1159 1.386 1_655 S
C1162 H1181 0.930 . S
Eu1163 N1160 2.609 . S
Eu1163 N1164 2.657 . S
Eu1163 O1197 2.380 . S
Eu1163 O1198 2.432 . S
Eu1163 O1202 2.558 . S
Eu1163 O1203 2.612 . S
Eu1163 O1205 2.339 . S
Eu1163 O1206 2.563 . S
Eu1163 O1207 2.419 . S
Eu1163 C1227 2.848 . S
N1164 C1156 1.362 . S
N1164 Eu1163 2.657 . S
N1164 C1165 1.334 . S
C1165 N1164 1.334 . S
C1165 C1167 1.413 1_455 S
C1165 H1172 0.929 . S
C1166 C1154 1.392 . S
C1166 C1167 1.367 . S
C1166 H1174 0.930 . S
C1167 C1165 1.413 1_655 S
C1167 C1166 1.367 . S
C1167 H1169 0.930 . S
H1168 C1161 0.930 . S
H1169 C1167 0.930 . S
H1170 C1158 0.930 . S
H1171 C1159 0.930 . S
H1172 C1165 0.929 . S
H1173 C1187 0.930 . S
H1174 C1166 0.930 . S
H1175 C1193 0.930 . S
H1176 C1184 0.929 . S
H1177 C1191 0.930 . S
H1178 C1155 0.931 . S
H1179 C1185 0.930 . S
H1180 C1218 0.930 . S
H1181 C1162 0.930 . S
H1182 C1217 0.931 . S
N1183 Eu1152 2.657 . S
N1183 C1184 1.334 . S
N1183 C1188 1.362 . S
C1184 H1176 0.929 . S
C1184 N1183 1.334 . S
C1184 C1187 1.413 . S
C1185 H1179 0.930 . S
C1185 C1186 1.392 . S
C1185 C1187 1.367 . S
C1186 C1185 1.392 . S
C1186 C1188 1.420 . S
C1186 C1218 1.423 . S
C1187 H1173 0.930 . S
C1187 C1184 1.413 . S
C1187 C1185 1.367 . S
C1188 N1183 1.362 . S
C1188 C1186 1.420 . S
C1188 C1192 1.429 . S
H1189 C1194 0.930 . S
N1190 Eu1152 2.609 . S
N1190 C1192 1.377 . S
N1190 C1193 1.321 . S
C1191 H1177 0.930 . S
C1191 C1193 1.400 . S
C1191 C1194 1.386 . S
C1192 C1188 1.429 . S
C1192 N1190 1.377 . S
C1192 C1195 1.411 . S
C1193 H1175 0.930 . S
C1193 N1190 1.321 . S
C1193 C1191 1.400 . S
C1194 H1189 0.930 . S
C1194 C1191 1.386 . S
C1194 C1195 1.395 . S
C1195 C1192 1.411 . S
C1195 C1194 1.395 . S
C1195 C1217 1.420 . S
O1196 Eu1152 2.558 . S
O1196 C1216 1.257 . S
O1197 Eu1152 2.612 . S
O1197 Eu1163 2.380 . S
O1197 C1208 1.276 . S
O1198 Eu1163 2.432 . S
O1198 C1215 1.264 . S
O1199 Eu1152 2.339 . S
O1199 C1215 1.254 . S
O1200 Eu1152 2.563 . S
O1200 C1208 1.235 . S
O1201 Eu1152 2.419 . S
O1201 C1216 1.249 . S
O1202 Eu1163 2.558 . S
O1202 C1227 1.257 . S
O1203 Eu1152 2.380 . S
O1203 Eu1163 2.612 . S
O1203 C1219 1.276 . S
O1204 Eu1152 2.432 . S
O1204 C1226 1.264 . S
O1205 Eu1163 2.339 . S
O1205 C1226 1.254 . S
O1206 Eu1163 2.563 . S
O1206 C1219 1.235 . S
O1207 Eu1163 2.419 . S
O1207 C1227 1.249 . S
C1208 O1197 1.276 . S
C1208 O1200 1.235 . S
C1209 C1211 1.393 . S
C1209 C1213 1.395 . S
C1209 C1216 1.492 . S
C1210 C1211 1.392 . S
C1210 C1212 1.386 . S
C1211 C1209 1.393 . S
C1211 C1210 1.392 . S
C1211 H1228 0.930 . S
C1212 C1210 1.386 . S
C1212 C1214 1.395 . S
C1212 H1229 0.930 . S
C1213 C1209 1.395 . S
C1213 C1214 1.379 . S
C1213 H1230 0.930 . S
C1214 C1212 1.395 . S
C1214 C1213 1.379 . S
C1214 H1231 0.930 . S
C1215 O1198 1.264 . S
C1215 O1199 1.254 . S
C1216 Eu1152 2.848 . S
C1216 O1196 1.257 . S
C1216 O1201 1.249 . S
C1216 C1209 1.492 . S
C1217 H1182 0.931 . S
C1217 C1195 1.420 . S
C1217 C1218 1.351 . S
C1218 H1180 0.930 . S
C1218 C1186 1.423 . S
C1218 C1217 1.351 . S
C1219 O1203 1.276 . S
C1219 O1206 1.235 . S
C1220 C1221 1.393 . S
C1220 C1224 1.395 . S
C1220 C1227 1.492 . S
C1221 C1220 1.393 . S
C1221 C1222 1.392 . S
C1221 H1232 0.930 . S
C1222 C1221 1.392 . S
C1222 C1223 1.386 . S
C1223 C1222 1.386 . S
C1223 C1225 1.395 . S
C1223 H1233 0.930 . S
C1224 C1220 1.395 . S
C1224 C1225 1.379 . S
C1224 H1234 0.930 . S
C1225 C1223 1.395 . S
C1225 C1224 1.379 . S
C1225 H1235 0.930 . S
C1226 O1204 1.264 . S
C1226 O1205 1.254 . S
C1227 Eu1163 2.848 . S
C1227 O1202 1.257 . S
C1227 O1207 1.249 . S
C1227 C1220 1.492 . S
H1228 C1211 0.930 . S
H1229 C1212 0.930 . S
H1230 C1213 0.930 . S
H1231 C1214 0.930 . S
H1232 C1221 0.930 . S
H1233 C1223 0.930 . S
H1234 C1224 0.930 . S
H1235 C1225 0.930 . S
Eu1236 N1267 2.657 . S
Eu1236 N1274 2.609 . S
Eu1236 O1280 2.558 . S
Eu1236 O1281 2.612 . S
Eu1236 O1283 2.339 . S
Eu1236 O1284 2.563 . S
Eu1236 O1285 2.419 . S
Eu1236 O1287 2.380 . S
Eu1236 O1288 2.432 . S
Eu1236 C1300 2.848 . S
C1237 C1240 1.429 . S
C1237 C1241 1.411 . S
C1237 N1244 1.377 . S
C1238 C1240 1.420 . S
C1238 C1242 1.423 . S
C1238 C1250 1.392 . S
C1239 C1241 1.420 . S
C1239 C1242 1.351 . S
C1239 H1262 0.931 . S
C1240 C1237 1.429 . S
C1240 C1238 1.420 . S
C1240 N1248 1.362 . S
C1241 C1237 1.411 . S
C1241 C1239 1.420 . S
C1241 C1246 1.395 . S
C1242 C1238 1.423 . S
C1242 C1239 1.351 . S
C1242 H1254 0.930 . S
C1243 C1245 1.400 . S
C1243 C1246 1.386 . S
C1243 H1255 0.930 . S
N1244 C1237 1.377 . S
N1244 C1245 1.321 . S
N1244 Eu1247 2.609 . S
C1245 C1243 1.400 . S
C1245 N1244 1.321 . S
C1245 H1252 0.930 . S
C1246 C1241 1.395 . S
C1246 C1243 1.386 . S
C1246 H1265 0.930 . S
Eu1247 N1244 2.609 . S
Eu1247 N1248 2.657 . S
Eu1247 O1281 2.380 . S
Eu1247 O1282 2.432 . S
Eu1247 O1286 2.558 . S
Eu1247 O1287 2.612 . S
Eu1247 O1289 2.339 . S
Eu1247 O1290 2.563 . S
Eu1247 O1291 2.419 . S
Eu1247 C1311 2.848 . S
N1248 C1240 1.362 . S
N1248 Eu1247 2.657 . S
N1248 C1249 1.334 . S
C1249 N1248 1.334 . S
C1249 C1251 1.413 . S
C1249 H1256 0.929 . S
C1250 C1238 1.392 . S
C1250 C1251 1.367 . S
C1250 H1258 0.930 . S
C1251 C1249 1.413 . S
C1251 C1250 1.367 . S
C1251 H1253 0.930 . S
H1252 C1245 0.930 . S
H1253 C1251 0.930 . S
H1254 C1242 0.930 . S
H1255 C1243 0.930 . S
H1256 C1249 0.929 . S
H1257 C1271 0.930 . S
H1258 C1250 0.930 . S
H1259 C1277 0.930 . S
H1260 C1268 0.929 . S
H1261 C1275 0.930 . S
H1262 C1239 0.931 . S
H1263 C1269 0.930 . S
H1264 C1302 0.930 . S
H1265 C1246 0.930 . S
H1266 C1301 0.931 . S
N1267 Eu1236 2.657 . S
N1267 C1268 1.334 . S
N1267 C1272 1.362 . S
C1268 H1260 0.929 . S
C1268 N1267 1.334 . S
C1268 C1271 1.413 . S
C1269 H1263 0.930 . S
C1269 C1270 1.392 . S
C1269 C1271 1.367 . S
C1270 C1269 1.392 . S
C1270 C1272 1.420 . S
C1270 C1302 1.423 . S
C1271 H1257 0.930 . S
C1271 C1268 1.413 . S
C1271 C1269 1.367 . S
C1272 N1267 1.362 . S
C1272 C1270 1.420 . S
C1272 C1276 1.429 . S
H1273 C1278 0.930 . S
N1274 Eu1236 2.609 . S
N1274 C1276 1.377 . S
N1274 C1277 1.321 . S
C1275 H1261 0.930 . S
C1275 C1277 1.400 . S
C1275 C1278 1.386 . S
C1276 C1272 1.429 . S
C1276 N1274 1.377 . S
C1276 C1279 1.411 . S
C1277 H1259 0.930 . S
C1277 N1274 1.321 . S
C1277 C1275 1.400 . S
C1278 H1273 0.930 . S
C1278 C1275 1.386 . S
C1278 C1279 1.395 . S
C1279 C1276 1.411 . S
C1279 C1278 1.395 . S
C1279 C1301 1.420 . S
O1280 Eu1236 2.558 . S
O1280 C1300 1.257 . S
O1281 Eu1236 2.612 . S
O1281 Eu1247 2.380 . S
O1281 C1292 1.276 . S
O1282 Eu1247 2.432 . S
O1282 C1299 1.264 . S
O1283 Eu1236 2.339 . S
O1283 C1299 1.254 . S
O1284 Eu1236 2.563 . S
O1284 C1292 1.235 . S
O1285 Eu1236 2.419 . S
O1285 C1300 1.249 . S
O1286 Eu1247 2.558 . S
O1286 C1311 1.257 . S
O1287 Eu1236 2.380 . S
O1287 Eu1247 2.612 . S
O1287 C1303 1.276 . S
O1288 Eu1236 2.432 . S
O1288 C1310 1.264 . S
O1289 Eu1247 2.339 . S
O1289 C1310 1.254 . S
O1290 Eu1247 2.563 . S
O1290 C1303 1.235 . S
O1291 Eu1247 2.419 . S
O1291 C1311 1.249 . S
C1292 O1281 1.276 . S
C1292 O1284 1.235 . S
C1293 C1295 1.393 . S
C1293 C1297 1.395 . S
C1293 C1300 1.492 . S
C1294 C1295 1.392 . S
C1294 C1296 1.386 . S
C1295 C1293 1.393 . S
C1295 C1294 1.392 . S
C1295 H1312 0.930 . S
C1296 C1294 1.386 . S
C1296 C1298 1.395 . S
C1296 H1313 0.930 . S
C1297 C1293 1.395 . S
C1297 C1298 1.379 . S
C1297 H1314 0.930 . S
C1298 C1296 1.395 . S
C1298 C1297 1.379 . S
C1298 H1315 0.930 . S
C1299 O1282 1.264 . S
C1299 O1283 1.254 . S
C1300 Eu1236 2.848 . S
C1300 O1280 1.257 . S
C1300 O1285 1.249 . S
C1300 C1293 1.492 . S
C1301 H1266 0.931 . S
C1301 C1279 1.420 . S
C1301 C1302 1.351 . S
C1302 H1264 0.930 . S
C1302 C1270 1.423 . S
C1302 C1301 1.351 . S
C1303 O1287 1.276 . S
C1303 O1290 1.235 . S
C1304 C1305 1.393 . S
C1304 C1308 1.395 . S
C1304 C1311 1.492 . S
C1305 C1304 1.393 . S
C1305 C1306 1.392 . S
C1305 H1316 0.930 . S
C1306 C1305 1.392 . S
C1306 C1307 1.386 . S
C1307 C1306 1.386 . S
C1307 C1309 1.395 . S
C1307 H1317 0.930 . S
C1308 C1304 1.395 . S
C1308 C1309 1.379 . S
C1308 H1318 0.930 . S
C1309 C1307 1.395 . S
C1309 C1308 1.379 . S
C1309 H1319 0.930 . S
C1310 O1288 1.264 . S
C1310 O1289 1.254 . S
C1311 Eu1247 2.848 . S
C1311 O1286 1.257 . S
C1311 O1291 1.249 . S
C1311 C1304 1.492 . S
H1312 C1295 0.930 . S
H1313 C1296 0.930 . S
H1314 C1297 0.930 . S
H1315 C1298 0.930 . S
H1316 C1305 0.930 . S
H1317 C1307 0.930 . S
H1318 C1308 0.930 . S
H1319 C1309 0.930 . S
Eu1320 N1351 2.657 . S
Eu1320 N1358 2.609 . S
Eu1320 O1364 2.558 . S
Eu1320 O1365 2.612 . S
Eu1320 O1367 2.339 . S
Eu1320 O1368 2.563 . S
Eu1320 O1369 2.419 . S
Eu1320 O1371 2.380 . S
Eu1320 O1372 2.432 . S
Eu1320 C1384 2.848 . S
C1321 C1324 1.429 . S
C1321 C1325 1.411 . S
C1321 N1328 1.377 . S
C1322 C1324 1.420 . S
C1322 C1326 1.423 . S
C1322 C1334 1.392 . S
C1323 C1325 1.420 . S
C1323 C1326 1.351 . S
C1323 H1346 0.931 . S
C1324 C1321 1.429 . S
C1324 C1322 1.420 . S
C1324 N1332 1.362 . S
C1325 C1321 1.411 . S
C1325 C1323 1.420 . S
C1325 C1330 1.395 . S
C1326 C1322 1.423 . S
C1326 C1323 1.351 . S
C1326 H1338 0.930 . S
C1327 C1329 1.400 . S
C1327 C1330 1.386 . S
C1327 H1339 0.930 . S
N1328 C1321 1.377 . S
N1328 C1329 1.321 . S
N1328 Eu1331 2.609 . S
C1329 C1327 1.400 . S
C1329 N1328 1.321 . S
C1329 H1336 0.930 . S
C1330 C1325 1.395 . S
C1330 C1327 1.386 . S
C1330 H1349 0.930 . S
Eu1331 N1328 2.609 . S
Eu1331 N1332 2.657 . S
Eu1331 O1365 2.380 . S
Eu1331 O1366 2.432 . S
Eu1331 O1370 2.558 . S
Eu1331 O1371 2.612 . S
Eu1331 O1373 2.339 . S
Eu1331 O1374 2.563 . S
Eu1331 O1375 2.419 . S
Eu1331 C1395 2.848 . S
N1332 C1324 1.362 . S
N1332 Eu1331 2.657 . S
N1332 C1333 1.334 . S
C1333 N1332 1.334 . S
C1333 C1335 1.413 . S
C1333 H1340 0.929 . S
C1334 C1322 1.392 . S
C1334 C1335 1.367 . S
C1334 H1342 0.930 . S
C1335 C1333 1.413 . S
C1335 C1334 1.367 . S
C1335 H1337 0.930 . S
H1336 C1329 0.930 . S
H1337 C1335 0.930 . S
H1338 C1326 0.930 . S
H1339 C1327 0.930 . S
H1340 C1333 0.929 . S
H1341 C1355 0.930 . S
H1342 C1334 0.930 . S
H1343 C1361 0.930 . S
H1344 C1352 0.929 . S
H1345 C1359 0.930 . S
H1346 C1323 0.931 . S
H1347 C1353 0.930 . S
H1348 C1386 0.930 . S
H1349 C1330 0.930 . S
H1350 C1385 0.931 . S
N1351 Eu1320 2.657 . S
N1351 C1352 1.334 . S
N1351 C1356 1.362 . S
C1352 H1344 0.929 . S
C1352 N1351 1.334 . S
C1352 C1355 1.413 . S
C1353 H1347 0.930 . S
C1353 C1354 1.392 . S
C1353 C1355 1.367 . S
C1354 C1353 1.392 . S
C1354 C1356 1.420 . S
C1354 C1386 1.423 . S
C1355 H1341 0.930 . S
C1355 C1352 1.413 . S
C1355 C1353 1.367 . S
C1356 N1351 1.362 . S
C1356 C1354 1.420 . S
C1356 C1360 1.429 . S
H1357 C1362 0.930 . S
N1358 Eu1320 2.609 . S
N1358 C1360 1.377 . S
N1358 C1361 1.321 . S
C1359 H1345 0.930 . S
C1359 C1361 1.400 . S
C1359 C1362 1.386 . S
C1360 C1356 1.429 . S
C1360 N1358 1.377 . S
C1360 C1363 1.411 . S
C1361 H1343 0.930 . S
C1361 N1358 1.321 . S
C1361 C1359 1.400 . S
C1362 H1357 0.930 . S
C1362 C1359 1.386 . S
C1362 C1363 1.395 . S
C1363 C1360 1.411 . S
C1363 C1362 1.395 . S
C1363 C1385 1.420 . S
O1364 Eu1320 2.558 . S
O1364 C1384 1.257 . S
O1365 Eu1320 2.612 . S
O1365 Eu1331 2.380 . S
O1365 C1376 1.276 . S
O1366 Eu1331 2.432 . S
O1366 C1383 1.264 . S
O1367 Eu1320 2.339 . S
O1367 C1383 1.254 . S
O1368 Eu1320 2.563 . S
O1368 C1376 1.235 . S
O1369 Eu1320 2.419 . S
O1369 C1384 1.249 . S
O1370 Eu1331 2.558 . S
O1370 C1395 1.257 . S
O1371 Eu1320 2.380 . S
O1371 Eu1331 2.612 . S
O1371 C1387 1.276 . S
O1372 Eu1320 2.432 . S
O1372 C1394 1.264 . S
O1373 Eu1331 2.339 . S
O1373 C1394 1.254 . S
O1374 Eu1331 2.563 . S
O1374 C1387 1.235 . S
O1375 Eu1331 2.419 . S
O1375 C1395 1.249 . S
C1376 O1365 1.276 . S
C1376 O1368 1.235 . S
C1377 C1379 1.393 . S
C1377 C1381 1.395 . S
C1377 C1384 1.492 . S
C1378 C1379 1.392 . S
C1378 C1380 1.386 . S
C1379 C1377 1.393 . S
C1379 C1378 1.392 . S
C1379 H1396 0.930 . S
C1380 C1378 1.386 . S
C1380 C1382 1.395 . S
C1380 H1397 0.930 . S
C1381 C1377 1.395 . S
C1381 C1382 1.379 . S
C1381 H1398 0.930 . S
C1382 C1380 1.395 . S
C1382 C1381 1.379 . S
C1382 H1399 0.930 . S
C1383 O1366 1.264 . S
C1383 O1367 1.254 . S
C1384 Eu1320 2.848 . S
C1384 O1364 1.257 . S
C1384 O1369 1.249 . S
C1384 C1377 1.492 . S
C1385 H1350 0.931 . S
C1385 C1363 1.420 . S
C1385 C1386 1.351 . S
C1386 H1348 0.930 . S
C1386 C1354 1.423 . S
C1386 C1385 1.351 . S
C1387 O1371 1.276 . S
C1387 O1374 1.235 . S
C1388 C1389 1.393 . S
C1388 C1392 1.395 . S
C1388 C1395 1.492 . S
C1389 C1388 1.393 . S
C1389 C1390 1.392 . S
C1389 H1400 0.930 . S
C1390 C1389 1.392 . S
C1390 C1391 1.386 . S
C1391 C1390 1.386 . S
C1391 C1393 1.395 . S
C1391 H1401 0.930 . S
C1392 C1388 1.395 . S
C1392 C1393 1.379 . S
C1392 H1402 0.930 . S
C1393 C1391 1.395 . S
C1393 C1392 1.379 . S
C1393 H1403 0.930 . S
C1394 O1372 1.264 . S
C1394 O1373 1.254 . S
C1395 Eu1331 2.848 . S
C1395 O1370 1.257 . S
C1395 O1375 1.249 . S
C1395 C1388 1.492 . S
H1396 C1379 0.930 . S
H1397 C1380 0.930 . S
H1398 C1381 0.930 . S
H1399 C1382 0.930 . S
H1400 C1389 0.930 . S
H1401 C1391 0.930 . S
H1402 C1392 0.930 . S
H1403 C1393 0.930 . S
Eu1404 N1435 2.657 . S
Eu1404 N1442 2.609 . S
Eu1404 O1448 2.558 . S
Eu1404 O1449 2.612 . S
Eu1404 O1451 2.339 . S
Eu1404 O1452 2.563 . S
Eu1404 O1453 2.419 . S
Eu1404 O1455 2.380 . S
Eu1404 O1456 2.432 . S
Eu1404 C1468 2.848 . S
C1405 C1408 1.429 . S
C1405 C1409 1.411 . S
C1405 N1412 1.377 . S
C1406 C1408 1.420 . S
C1406 C1410 1.423 . S
C1406 C1418 1.392 . S
C1407 C1409 1.420 . S
C1407 C1410 1.351 . S
C1407 H1430 0.931 . S
C1408 C1405 1.429 . S
C1408 C1406 1.420 . S
C1408 N1416 1.362 . S
C1409 C1405 1.411 . S
C1409 C1407 1.420 . S
C1409 C1414 1.395 . S
C1410 C1406 1.423 . S
C1410 C1407 1.351 . S
C1410 H1422 0.930 . S
C1411 C1413 1.400 . S
C1411 C1414 1.386 . S
C1411 H1423 0.930 . S
N1412 C1405 1.377 . S
N1412 C1413 1.321 . S
N1412 Eu1415 2.609 . S
C1413 C1411 1.400 . S
C1413 N1412 1.321 . S
C1413 H1420 0.930 . S
C1414 C1409 1.395 . S
C1414 C1411 1.386 . S
C1414 H1433 0.930 . S
Eu1415 N1412 2.609 . S
Eu1415 N1416 2.657 . S
Eu1415 O1449 2.380 . S
Eu1415 O1450 2.432 . S
Eu1415 O1454 2.558 . S
Eu1415 O1455 2.612 . S
Eu1415 O1457 2.339 . S
Eu1415 O1458 2.563 . S
Eu1415 O1459 2.419 . S
Eu1415 C1479 2.848 . S
N1416 C1408 1.362 . S
N1416 Eu1415 2.657 . S
N1416 C1417 1.334 . S
C1417 N1416 1.334 . S
C1417 C1419 1.413 . S
C1417 H1424 0.929 . S
C1418 C1406 1.392 . S
C1418 C1419 1.367 . S
C1418 H1426 0.930 . S
C1419 C1417 1.413 . S
C1419 C1418 1.367 . S
C1419 H1421 0.930 . S
H1420 C1413 0.930 . S
H1421 C1419 0.930 . S
H1422 C1410 0.930 . S
H1423 C1411 0.930 . S
H1424 C1417 0.929 . S
H1425 C1439 0.930 . S
H1426 C1418 0.930 . S
H1427 C1445 0.930 . S
H1428 C1436 0.929 . S
H1429 C1443 0.930 . S
H1430 C1407 0.931 . S
H1431 C1437 0.930 . S
H1432 C1470 0.930 . S
H1433 C1414 0.930 . S
H1434 C1469 0.931 . S
N1435 Eu1404 2.657 . S
N1435 C1436 1.334 . S
N1435 C1440 1.362 . S
C1436 H1428 0.929 . S
C1436 N1435 1.334 . S
C1436 C1439 1.413 . S
C1437 H1431 0.930 . S
C1437 C1438 1.392 . S
C1437 C1439 1.367 . S
C1438 C1437 1.392 . S
C1438 C1440 1.420 . S
C1438 C1470 1.423 . S
C1439 H1425 0.930 . S
C1439 C1436 1.413 . S
C1439 C1437 1.367 . S
C1440 N1435 1.362 . S
C1440 C1438 1.420 . S
C1440 C1444 1.429 . S
H1441 C1446 0.930 . S
N1442 Eu1404 2.609 . S
N1442 C1444 1.377 . S
N1442 C1445 1.321 . S
C1443 H1429 0.930 . S
C1443 C1445 1.400 . S
C1443 C1446 1.386 . S
C1444 C1440 1.429 . S
C1444 N1442 1.377 . S
C1444 C1447 1.411 . S
C1445 H1427 0.930 . S
C1445 N1442 1.321 . S
C1445 C1443 1.400 . S
C1446 H1441 0.930 . S
C1446 C1443 1.386 . S
C1446 C1447 1.395 . S
C1447 C1444 1.411 . S
C1447 C1446 1.395 . S
C1447 C1469 1.420 . S
O1448 Eu1404 2.558 . S
O1448 C1468 1.257 . S
O1449 Eu1404 2.612 . S
O1449 Eu1415 2.380 . S
O1449 C1460 1.276 . S
O1450 Eu1415 2.432 . S
O1450 C1467 1.264 . S
O1451 Eu1404 2.339 . S
O1451 C1467 1.254 . S
O1452 Eu1404 2.563 . S
O1452 C1460 1.235 . S
O1453 Eu1404 2.419 . S
O1453 C1468 1.249 . S
O1454 Eu1415 2.558 . S
O1454 C1479 1.257 . S
O1455 Eu1404 2.380 . S
O1455 Eu1415 2.612 . S
O1455 C1471 1.276 . S
O1456 Eu1404 2.432 . S
O1456 C1478 1.264 . S
O1457 Eu1415 2.339 . S
O1457 C1478 1.254 . S
O1458 Eu1415 2.563 . S
O1458 C1471 1.235 . S
O1459 Eu1415 2.419 . S
O1459 C1479 1.249 . S
C1460 O1449 1.276 . S
C1460 O1452 1.235 . S
C1461 C1463 1.393 . S
C1461 C1465 1.395 . S
C1461 C1468 1.492 . S
C1462 C1463 1.392 . S
C1462 C1464 1.386 . S
C1463 C1461 1.393 . S
C1463 C1462 1.392 . S
C1463 H1480 0.930 . S
C1464 C1462 1.386 . S
C1464 C1466 1.395 . S
C1464 H1481 0.930 . S
C1465 C1461 1.395 . S
C1465 C1466 1.379 . S
C1465 H1482 0.930 . S
C1466 C1464 1.395 . S
C1466 C1465 1.379 . S
C1466 H1483 0.930 . S
C1467 O1450 1.264 . S
C1467 O1451 1.254 . S
C1468 Eu1404 2.848 . S
C1468 O1448 1.257 . S
C1468 O1453 1.249 . S
C1468 C1461 1.492 . S
C1469 H1434 0.931 . S
C1469 C1447 1.420 . S
C1469 C1470 1.351 . S
C1470 H1432 0.930 . S
C1470 C1438 1.423 . S
C1470 C1469 1.351 . S
C1471 O1455 1.276 . S
C1471 O1458 1.235 . S
C1472 C1473 1.393 . S
C1472 C1476 1.395 . S
C1472 C1479 1.492 . S
C1473 C1472 1.393 . S
C1473 C1474 1.392 . S
C1473 H1484 0.930 . S
C1474 C1473 1.392 . S
C1474 C1475 1.386 . S
C1475 C1474 1.386 . S
C1475 C1477 1.395 . S
C1475 H1485 0.930 . S
C1476 C1472 1.395 . S
C1476 C1477 1.379 . S
C1476 H1486 0.930 . S
C1477 C1475 1.395 . S
C1477 C1476 1.379 . S
C1477 H1487 0.930 . S
C1478 O1456 1.264 . S
C1478 O1457 1.254 . S
C1479 Eu1415 2.848 . S
C1479 O1454 1.257 . S
C1479 O1459 1.249 . S
C1479 C1472 1.492 . S
H1480 C1463 0.930 . S
H1481 C1464 0.930 . S
H1482 C1465 0.930 . S
H1483 C1466 0.930 . S
H1484 C1473 0.930 . S
H1485 C1475 0.930 . S
H1486 C1476 0.930 . S
H1487 C1477 0.930 . S
Eu1488 N1519 2.657 . S
Eu1488 N1526 2.609 . S
Eu1488 O1532 2.558 . S
Eu1488 O1533 2.612 . S
Eu1488 O1535 2.339 . S
Eu1488 O1536 2.563 . S
Eu1488 O1537 2.419 . S
Eu1488 O1539 2.380 . S
Eu1488 O1540 2.432 . S
Eu1488 C1552 2.848 . S
C1489 C1492 1.429 . S
C1489 C1493 1.411 . S
C1489 N1496 1.377 . S
C1490 C1492 1.420 . S
C1490 C1494 1.423 . S
C1490 C1502 1.392 . S
C1491 C1493 1.420 . S
C1491 C1494 1.351 . S
C1491 H1514 0.931 . S
C1492 C1489 1.429 . S
C1492 C1490 1.420 . S
C1492 N1500 1.362 . S
C1493 C1489 1.411 . S
C1493 C1491 1.420 . S
C1493 C1498 1.395 . S
C1494 C1490 1.423 . S
C1494 C1491 1.351 . S
C1494 H1506 0.930 . S
C1495 C1497 1.400 . S
C1495 C1498 1.386 . S
C1495 H1507 0.930 . S
N1496 C1489 1.377 . S
N1496 C1497 1.321 . S
N1496 Eu1499 2.609 . S
C1497 C1495 1.400 . S
C1497 N1496 1.321 . S
C1497 H1504 0.930 . S
C1498 C1493 1.395 . S
C1498 C1495 1.386 . S
C1498 H1517 0.930 . S
Eu1499 N1496 2.609 . S
Eu1499 N1500 2.657 . S
Eu1499 O1533 2.380 . S
Eu1499 O1534 2.432 . S
Eu1499 O1538 2.558 . S
Eu1499 O1539 2.612 . S
Eu1499 O1541 2.339 . S
Eu1499 O1542 2.563 . S
Eu1499 O1543 2.419 . S
Eu1499 C1563 2.848 . S
N1500 C1492 1.362 . S
N1500 Eu1499 2.657 . S
N1500 C1501 1.334 . S
C1501 N1500 1.334 . S
C1501 C1503 1.413 . S
C1501 H1508 0.929 . S
C1502 C1490 1.392 . S
C1502 C1503 1.367 . S
C1502 H1510 0.930 . S
C1503 C1501 1.413 . S
C1503 C1502 1.367 . S
C1503 H1505 0.930 . S
H1504 C1497 0.930 . S
H1505 C1503 0.930 . S
H1506 C1494 0.930 . S
H1507 C1495 0.930 . S
H1508 C1501 0.929 . S
H1509 C1523 0.930 . S
H1510 C1502 0.930 . S
H1511 C1529 0.930 . S
H1512 C1520 0.929 . S
H1513 C1527 0.930 . S
H1514 C1491 0.931 . S
H1515 C1521 0.930 . S
H1516 C1554 0.930 . S
H1517 C1498 0.930 . S
H1518 C1553 0.931 . S
N1519 Eu1488 2.657 . S
N1519 C1520 1.334 . S
N1519 C1524 1.362 . S
C1520 H1512 0.929 . S
C1520 N1519 1.334 . S
C1520 C1523 1.413 . S
C1521 H1515 0.930 . S
C1521 C1522 1.392 . S
C1521 C1523 1.367 . S
C1522 C1521 1.392 . S
C1522 C1524 1.420 . S
C1522 C1554 1.423 . S
C1523 H1509 0.930 . S
C1523 C1520 1.413 . S
C1523 C1521 1.367 . S
C1524 N1519 1.362 . S
C1524 C1522 1.420 . S
C1524 C1528 1.429 . S
H1525 C1530 0.930 . S
N1526 Eu1488 2.609 . S
N1526 C1528 1.377 . S
N1526 C1529 1.321 . S
C1527 H1513 0.930 . S
C1527 C1529 1.400 . S
C1527 C1530 1.386 . S
C1528 C1524 1.429 . S
C1528 N1526 1.377 . S
C1528 C1531 1.411 . S
C1529 H1511 0.930 . S
C1529 N1526 1.321 . S
C1529 C1527 1.400 . S
C1530 H1525 0.930 . S
C1530 C1527 1.386 . S
C1530 C1531 1.395 . S
C1531 C1528 1.411 . S
C1531 C1530 1.395 . S
C1531 C1553 1.420 . S
O1532 Eu1488 2.558 . S
O1532 C1552 1.257 . S
O1533 Eu1488 2.612 . S
O1533 Eu1499 2.380 . S
O1533 C1544 1.276 . S
O1534 Eu1499 2.432 . S
O1534 C1551 1.264 . S
O1535 Eu1488 2.339 . S
O1535 C1551 1.254 . S
O1536 Eu1488 2.563 . S
O1536 C1544 1.235 . S
O1537 Eu1488 2.419 . S
O1537 C1552 1.249 . S
O1538 Eu1499 2.558 . S
O1538 C1563 1.257 . S
O1539 Eu1488 2.380 . S
O1539 Eu1499 2.612 . S
O1539 C1555 1.276 . S
O1540 Eu1488 2.432 . S
O1540 C1562 1.264 . S
O1541 Eu1499 2.339 . S
O1541 C1562 1.254 . S
O1542 Eu1499 2.563 . S
O1542 C1555 1.235 . S
O1543 Eu1499 2.419 . S
O1543 C1563 1.249 . S
C1544 O1533 1.276 . S
C1544 O1536 1.235 . S
C1545 C1547 1.393 . S
C1545 C1549 1.395 . S
C1545 C1552 1.492 . S
C1546 C1547 1.392 . S
C1546 C1548 1.386 . S
C1547 C1545 1.393 . S
C1547 C1546 1.392 . S
C1547 H1564 0.930 . S
C1548 C1546 1.386 . S
C1548 C1550 1.395 . S
C1548 H1565 0.930 . S
C1549 C1545 1.395 . S
C1549 C1550 1.379 . S
C1549 H1566 0.930 . S
C1550 C1548 1.395 . S
C1550 C1549 1.379 . S
C1550 H1567 0.930 . S
C1551 O1534 1.264 . S
C1551 O1535 1.254 . S
C1552 Eu1488 2.848 . S
C1552 O1532 1.257 . S
C1552 O1537 1.249 . S
C1552 C1545 1.492 . S
C1553 H1518 0.931 . S
C1553 C1531 1.420 . S
C1553 C1554 1.351 . S
C1554 H1516 0.930 . S
C1554 C1522 1.423 . S
C1554 C1553 1.351 . S
C1555 O1539 1.276 . S
C1555 O1542 1.235 . S
C1556 C1557 1.393 . S
C1556 C1560 1.395 . S
C1556 C1563 1.492 . S
C1557 C1556 1.393 . S
C1557 C1558 1.392 . S
C1557 H1568 0.930 . S
C1558 C1557 1.392 . S
C1558 C1559 1.386 . S
C1559 C1558 1.386 . S
C1559 C1561 1.395 . S
C1559 H1569 0.930 . S
C1560 C1556 1.395 . S
C1560 C1561 1.379 . S
C1560 H1570 0.930 . S
C1561 C1559 1.395 . S
C1561 C1560 1.379 . S
C1561 H1571 0.930 . S
C1562 O1540 1.264 . S
C1562 O1541 1.254 . S
C1563 Eu1499 2.848 . S
C1563 O1538 1.257 . S
C1563 O1543 1.249 . S
C1563 C1556 1.492 . S
H1564 C1547 0.930 . S
H1565 C1548 0.930 . S
H1566 C1549 0.930 . S
H1567 C1550 0.930 . S
H1568 C1557 0.930 . S
H1569 C1559 0.930 . S
H1570 C1560 0.930 . S
H1571 C1561 0.930 . S
Eu1572 N1603 2.649 1_556 S
Eu1572 N1610 2.643 . S
Eu1572 O1616 2.586 . S
Eu1572 O1617 2.591 1_556 S
Eu1572 O1619 2.295 1_556 S
Eu1572 O1620 2.559 . S
Eu1572 O1621 2.412 1_556 S
Eu1572 O1623 2.368 1_556 S
Eu1572 O1624 2.461 . S
Eu1572 C1636 2.859 . S
C1573 C1576 1.434 . S
C1573 C1577 1.432 . S
C1573 N1580 1.351 1_655 S
C1574 C1576 1.420 . S
C1574 C1578 1.423 . S
C1574 C1586 1.392 1_554 S
C1575 C1577 1.420 . S
C1575 C1578 1.351 . S
C1575 H1598 0.931 . S
C1576 C1573 1.434 . S
C1576 C1574 1.420 . S
C1576 N1584 1.362 1_655 S
C1577 C1573 1.432 . S
C1577 C1575 1.420 . S
C1577 C1582 1.395 . S
C1578 C1574 1.423 . S
C1578 C1575 1.351 . S
C1578 H1590 0.930 . S
C1579 C1581 1.400 . S
C1579 C1582 1.386 1_455 S
C1579 H1591 0.930 . S
N1580 C1573 1.351 1_455 S
N1580 C1581 1.321 . S
N1580 Eu1583 2.609 . S
C1581 C1579 1.400 . S
C1581 N1580 1.321 . S
C1581 H1588 0.930 . S
C1582 C1577 1.395 . S
C1582 C1579 1.386 1_655 S
C1582 H1601 0.930 . S
Eu1583 N1580 2.609 . S
Eu1583 N1584 2.657 . S
Eu1583 O1617 2.380 . S
Eu1583 O1618 2.432 . S
Eu1583 O1622 2.558 . S
Eu1583 O1623 2.612 . S
Eu1583 O1625 2.339 1_554 S
Eu1583 O1626 2.563 . S
Eu1583 O1627 2.419 1_455 S
Eu1583 C1647 2.848 1_455 S
N1584 C1576 1.362 1_455 S
N1584 Eu1583 2.657 . S
N1584 C1585 1.334 1_454 S
C1585 N1584 1.334 1_656 S
C1585 C1587 1.413 . S
C1585 H1592 0.929 1_655 S
C1586 C1574 1.392 1_556 S
C1586 C1587 1.367 . S
C1586 H1594 0.930 . S
C1587 C1585 1.413 . S
C1587 C1586 1.367 . S
C1587 H1589 0.930 . S
H1588 C1581 0.930 . S
H1589 C1587 0.930 . S
H1590 C1578 0.930 . S
H1591 C1579 0.930 . S
H1592 C1585 0.929 1_455 S
H1593 C1607 0.930 . S
H1594 C1586 0.930 . S
H1595 C1613 0.930 . S
H1596 C1604 0.929 . S
H1597 C1611 0.930 . S
H1598 C1575 0.931 . S
H1599 C1605 0.930 . S
H1600 C1638 0.930 1_554 S
H1601 C1582 0.930 . S
H1602 C1637 0.931 . S
N1603 Eu1572 2.649 1_554 S
N1603 C1604 1.334 . S
N1603 C1608 1.362 . S
C1604 H1596 0.929 . S
C1604 N1603 1.334 . S
C1604 C1607 1.413 . S
C1605 H1599 0.930 . S
C1605 C1606 1.392 . S
C1605 C1607 1.367 . S
C1606 C1605 1.392 . S
C1606 C1608 1.420 . S
C1606 C1638 1.423 1_554 S
C1607 H1593 0.930 . S
C1607 C1604 1.413 . S
C1607 C1605 1.367 . S
C1608 N1603 1.362 . S
C1608 C1606 1.420 . S
C1608 C1612 1.429 1_554 S
H1609 C1614 0.930 . S
N1610 Eu1572 2.643 . S
N1610 C1612 1.377 . S
N1610 C1613 1.321 . S
C1611 H1597 0.930 . S
C1611 C1613 1.400 . S
C1611 C1614 1.386 . S
C1612 C1608 1.429 1_556 S
C1612 N1610 1.377 . S
C1612 C1615 1.411 . S
C1613 H1595 0.930 . S
C1613 N1610 1.321 . S
C1613 C1611 1.400 . S
C1614 H1609 0.930 . S
C1614 C1611 1.386 . S
C1614 C1615 1.395 . S
C1615 C1612 1.411 . S
C1615 C1614 1.395 . S
C1615 C1637 1.420 . S
O1616 Eu1572 2.586 . S
O1616 C1636 1.257 . S
O1617 Eu1572 2.591 1_554 S
O1617 Eu1583 2.380 . S
O1617 C1628 1.276 . S
O1618 Eu1583 2.432 . S
O1618 C1635 1.264 . S
O1619 Eu1572 2.295 1_554 S
O1619 C1635 1.254 . S
O1620 Eu1572 2.559 . S
O1620 C1628 1.235 1_556 S
O1621 Eu1572 2.412 1_554 S
O1621 C1636 1.249 1_554 S
O1622 Eu1583 2.558 . S
O1622 C1647 1.257 1_455 S
O1623 Eu1572 2.368 1_554 S
O1623 Eu1583 2.612 . S
O1623 C1639 1.276 . S
O1624 Eu1572 2.461 . S
O1624 C1646 1.264 . S
O1625 Eu1583 2.339 1_556 S
O1625 C1646 1.254 . S
O1626 Eu1583 2.563 . S
O1626 C1639 1.235 . S
O1627 Eu1583 2.419 1_655 S
O1627 C1647 1.249 . S
C1628 O1617 1.276 . S
C1628 O1620 1.235 1_554 S
C1629 C1631 1.393 . S
C1629 C1633 1.395 . S
C1629 C1636 1.492 . S
C1630 C1631 1.392 . S
C1630 C1632 1.386 . S
C1631 C1629 1.393 . S
C1631 C1630 1.392 . S
C1631 H1648 0.930 1_556 S
C1632 C1630 1.386 . S
C1632 C1634 1.395 . S
C1632 H1649 0.930 . S
C1633 C1629 1.395 . S
C1633 C1634 1.379 . S
C1633 H1650 0.930 . S
C1634 C1632 1.395 . S
C1634 C1633 1.379 . S
C1634 H1651 0.930 . S
C1635 O1618 1.264 . S
C1635 O1619 1.254 . S
C1636 Eu1572 2.859 . S
C1636 O1616 1.257 . S
C1636 O1621 1.249 1_556 S
C1636 C1629 1.492 . S
C1637 H1602 0.931 . S
C1637 C1615 1.420 . S
C1637 C1638 1.351 . S
C1638 H1600 0.930 1_556 S
C1638 C1606 1.423 1_556 S
C1638 C1637 1.351 . S
C1639 O1623 1.276 . S
C1639 O1626 1.235 . S
C1640 C1641 1.393 . S
C1640 C1644 1.395 . S
C1640 C1647 1.492 . S
C1641 C1640 1.393 . S
C1641 C1642 1.392 . S
C1641 H1652 0.930 . S
C1642 C1641 1.392 . S
C1642 C1643 1.386 . S
C1643 C1642 1.386 . S
C1643 C1645 1.395 . S
C1643 H1653 0.930 . S
C1644 C1640 1.395 . S
C1644 C1645 1.379 . S
C1644 H1654 0.930 . S
C1645 C1643 1.395 . S
C1645 C1644 1.379 . S
C1645 H1655 0.930 . S
C1646 O1624 1.264 . S
C1646 O1625 1.254 . S
C1647 Eu1583 2.848 1_655 S
C1647 O1622 1.257 1_655 S
C1647 O1627 1.249 . S
C1647 C1640 1.492 . S
H1648 C1631 0.930 1_554 S
H1649 C1632 0.930 . S
H1650 C1633 0.930 . S
H1651 C1634 0.930 . S
H1652 C1641 0.930 . S
H1653 C1643 0.930 . S
H1654 C1644 0.930 . S
H1655 C1645 0.930 . S
H1656 C1662 0.930 . S
H1657 C1666 0.930 . S
H1658 C1671 0.958 1_554 S
H1659 C1669 0.929 . S
H1660 C1664 0.929 . S
H1661 C1670 0.929 . S
C1662 H1656 0.930 . S
C1662 C1663 1.367 . S
C1662 C1670 1.378 . S
C1663 C1662 1.367 . S
C1663 C1671 1.433 . S
C1664 H1660 0.929 . S
C1664 C1666 1.378 . S
C1664 C1668 1.350 1_554 S
C1665 C1668 1.463 . S
C1665 C1670 1.350 . S
C1665 N1673 1.427 1_556 S
C1666 H1657 0.930 . S
C1666 C1664 1.378 . S
C1666 C1667 1.367 . S
C1667 C1666 1.367 . S
C1667 C1669 1.433 1_554 S
C1668 C1664 1.350 1_556 S
C1668 C1665 1.463 . S
C1668 N1672 1.427 . S
C1669 H1659 0.929 . S
C1669 C1667 1.433 1_556 S
C1669 N1672 1.384 . S
C1670 H1661 0.929 . S
C1670 C1662 1.378 . S
C1670 C1665 1.350 . S
C1671 H1658 0.958 1_556 S
C1671 C1663 1.433 . S
C1671 N1673 1.384 1_556 S
N1672 C1668 1.427 . S
N1672 C1669 1.384 . S
N1673 C1665 1.427 1_554 S
N1673 C1671 1.384 1_554 S
H1674 C1680 0.930 . S
H1675 C1684 0.930 . S
H1676 C1689 0.929 . S
H1677 C1687 0.929 . S
H1678 C1682 0.929 . S
H1679 C1688 0.929 . S
C1680 H1674 0.930 . S
C1680 C1681 1.367 . S
C1680 C1688 1.378 . S
C1681 C1680 1.367 . S
C1681 C1689 1.433 . S
C1682 H1678 0.929 . S
C1682 C1684 1.378 . S
C1682 C1686 1.350 . S
C1683 C1686 1.463 . S
C1683 C1688 1.350 . S
C1683 N1691 1.427 . S
C1684 H1675 0.930 . S
C1684 C1682 1.378 . S
C1684 C1685 1.367 . S
C1685 C1684 1.367 . S
C1685 C1687 1.433 . S
C1686 C1682 1.350 . S
C1686 C1683 1.463 . S
C1686 N1690 1.427 . S
C1687 H1677 0.929 . S
C1687 C1685 1.433 . S
C1687 N1690 1.384 . S
C1688 H1679 0.929 . S
C1688 C1680 1.378 . S
C1688 C1683 1.350 . S
C1689 H1676 0.929 . S
C1689 C1681 1.433 . S
C1689 N1691 1.384 . S
N1690 C1686 1.427 . S
N1690 C1687 1.384 . S
N1691 C1683 1.427 . S
N1691 C1689 1.384 . S
H1692 C1698 0.930 . S
H1693 C1702 0.930 . S
H1694 C1707 0.929 . S
H1695 C1705 0.929 . S
H1696 C1700 0.929 . S
H1697 C1706 0.929 . S
C1698 H1692 0.930 . S
C1698 C1699 1.367 . S
C1698 C1706 1.378 . S
C1699 C1698 1.367 . S
C1699 C1707 1.433 . S
C1700 H1696 0.929 . S
C1700 C1702 1.378 . S
C1700 C1704 1.350 . S
C1701 C1704 1.463 . S
C1701 C1706 1.350 . S
C1701 N1709 1.427 . S
C1702 H1693 0.930 . S
C1702 C1700 1.378 . S
C1702 C1703 1.367 . S
C1703 C1702 1.367 . S
C1703 C1705 1.433 . S
C1704 C1700 1.350 . S
C1704 C1701 1.463 . S
C1704 N1708 1.427 . S
C1705 H1695 0.929 . S
C1705 C1703 1.433 . S
C1705 N1708 1.384 . S
C1706 H1697 0.929 . S
C1706 C1698 1.378 . S
C1706 C1701 1.350 . S
C1707 H1694 0.929 . S
C1707 C1699 1.433 . S
C1707 N1709 1.384 . S
N1708 C1704 1.427 . S
N1708 C1705 1.384 . S
N1709 C1701 1.427 . S
N1709 C1707 1.384 . S
H1710 C1716 0.930 . S
H1711 C1720 0.930 . S
H1712 C1725 0.929 . S
H1713 C1723 0.929 . S
H1714 C1718 0.929 . S
H1715 C1724 0.929 . S
C1716 H1710 0.930 . S
C1716 C1717 1.367 . S
C1716 C1724 1.378 . S
C1717 C1716 1.367 . S
C1717 C1725 1.433 . S
C1718 H1714 0.929 . S
C1718 C1720 1.378 . S
C1718 C1722 1.350 . S
C1719 C1722 1.463 . S
C1719 C1724 1.350 . S
C1719 N1727 1.427 . S
C1720 H1711 0.930 . S
C1720 C1718 1.378 . S
C1720 C1721 1.367 . S
C1721 C1720 1.367 . S
C1721 C1723 1.433 . S
C1722 C1718 1.350 . S
C1722 C1719 1.463 . S
C1722 N1726 1.427 . S
C1723 H1713 0.929 . S
C1723 C1721 1.433 . S
C1723 N1726 1.384 . S
C1724 H1715 0.929 . S
C1724 C1716 1.378 . S
C1724 C1719 1.350 . S
C1725 H1712 0.929 . S
C1725 C1717 1.433 . S
C1725 N1727 1.384 . S
N1726 C1722 1.427 . S
N1726 C1723 1.384 . S
N1727 C1719 1.427 . S
N1727 C1725 1.384 . S
H1728 C1734 0.930 . S
H1729 C1738 0.930 . S
H1730 C1743 0.929 . S
H1731 C1741 0.929 . S
H1732 C1736 0.929 . S
H1733 C1742 0.929 . S
C1734 H1728 0.930 . S
C1734 C1735 1.367 . S
C1734 C1742 1.378 . S
C1735 C1734 1.367 . S
C1735 C1743 1.433 1_455 S
C1736 H1732 0.929 . S
C1736 C1738 1.378 . S
C1736 C1740 1.350 . S
C1737 C1740 1.463 . S
C1737 C1742 1.350 . S
C1737 N1745 1.427 . S
C1738 H1729 0.930 . S
C1738 C1736 1.378 . S
C1738 C1739 1.367 . S
C1739 C1738 1.367 . S
C1739 C1741 1.433 . S
C1740 C1736 1.350 . S
C1740 C1737 1.463 . S
C1740 N1744 1.427 . S
C1741 H1731 0.929 . S
C1741 C1739 1.433 . S
C1741 N1744 1.384 . S
C1742 H1733 0.929 . S
C1742 C1734 1.378 . S
C1742 C1737 1.350 . S
C1743 H1730 0.929 . S
C1743 C1735 1.433 1_655 S
C1743 N1745 1.384 1_655 S
N1744 C1740 1.427 . S
N1744 C1741 1.384 . S
N1745 C1737 1.427 . S
N1745 C1743 1.384 1_455 S
H1746 C1752 0.930 . S
H1747 C1756 0.930 . S
H1748 C1761 0.929 . S
H1749 C1759 0.929 . S
H1750 C1754 0.929 . S
H1751 C1760 0.929 . S
C1752 H1746 0.930 . S
C1752 C1753 1.367 . S
C1752 C1760 1.378 . S
C1753 C1752 1.367 . S
C1753 C1761 1.433 . S
C1754 H1750 0.929 . S
C1754 C1756 1.378 . S
C1754 C1758 1.350 . S
C1755 C1758 1.463 . S
C1755 C1760 1.350 . S
C1755 N1763 1.427 . S
C1756 H1747 0.930 . S
C1756 C1754 1.378 . S
C1756 C1757 1.367 . S
C1757 C1756 1.367 . S
C1757 C1759 1.433 . S
C1758 C1754 1.350 . S
C1758 C1755 1.463 . S
C1758 N1762 1.427 . S
C1759 H1749 0.929 . S
C1759 C1757 1.433 . S
C1759 N1762 1.384 . S
C1760 H1751 0.929 . S
C1760 C1752 1.378 . S
C1760 C1755 1.350 . S
C1761 H1748 0.929 . S
C1761 C1753 1.433 . S
C1761 N1763 1.384 . S
N1762 C1758 1.427 . S
N1762 C1759 1.384 . S
N1763 C1755 1.427 . S
N1763 C1761 1.384 . S
H1764 C1770 0.930 . S
H1765 C1774 0.930 . S
H1766 C1779 0.929 . S
H1767 C1777 0.929 . S
H1768 C1772 0.929 . S
H1769 C1778 0.929 . S
C1770 H1764 0.930 . S
C1770 C1771 1.367 . S
C1770 C1778 1.378 . S
C1771 C1770 1.367 . S
C1771 C1779 1.433 . S
C1772 H1768 0.929 . S
C1772 C1774 1.378 . S
C1772 C1776 1.350 . S
C1773 C1776 1.463 . S
C1773 C1778 1.350 . S
C1773 N1781 1.427 . S
C1774 H1765 0.930 . S
C1774 C1772 1.378 . S
C1774 C1775 1.367 . S
C1775 C1774 1.367 . S
C1775 C1777 1.433 . S
C1776 C1772 1.350 . S
C1776 C1773 1.463 . S
C1776 N1780 1.427 . S
C1777 H1767 0.929 . S
C1777 C1775 1.433 . S
C1777 N1780 1.384 . S
C1778 H1769 0.929 . S
C1778 C1770 1.378 . S
C1778 C1773 1.350 . S
C1779 H1766 0.929 . S
C1779 C1771 1.433 . S
C1779 N1781 1.384 . S
N1780 C1776 1.427 . S
N1780 C1777 1.384 . S
N1781 C1773 1.427 . S
N1781 C1779 1.384 . S
H1782 C1788 0.930 . S
H1783 C1792 0.930 . S
H1784 C1797 0.929 . S
H1785 C1795 0.929 . S
H1786 C1790 0.929 . S
H1787 C1796 0.929 . S
C1788 H1782 0.930 . S
C1788 C1789 1.367 . S
C1788 C1796 1.378 . S
C1789 C1788 1.367 . S
C1789 C1797 1.433 . S
C1790 H1786 0.929 . S
C1790 C1792 1.378 . S
C1790 C1794 1.350 . S
C1791 C1794 1.463 . S
C1791 C1796 1.350 . S
C1791 N1799 1.427 . S
C1792 H1783 0.930 . S
C1792 C1790 1.378 . S
C1792 C1793 1.367 . S
C1793 C1792 1.367 . S
C1793 C1795 1.433 . S
C1794 C1790 1.350 . S
C1794 C1791 1.463 . S
C1794 N1798 1.427 . S
C1795 H1785 0.929 . S
C1795 C1793 1.433 . S
C1795 N1798 1.384 . S
C1796 H1787 0.929 . S
C1796 C1788 1.378 . S
C1796 C1791 1.350 . S
C1797 H1784 0.929 . S
C1797 C1789 1.433 . S
C1797 N1799 1.384 . S
N1798 C1794 1.427 . S
N1798 C1795 1.384 . S
N1799 C1791 1.427 . S
N1799 C1797 1.384 . S
H1800 C1806 0.930 . S
H1801 C1810 0.930 . S
H1802 C1815 0.929 . S
H1803 C1813 0.929 . S
H1804 C1808 0.929 . S
H1805 C1814 0.929 . S
C1806 H1800 0.930 . S
C1806 C1807 1.367 . S
C1806 C1814 1.378 . S
C1807 C1806 1.367 . S
C1807 C1815 1.433 . S
C1808 H1804 0.929 . S
C1808 C1810 1.378 . S
C1808 C1812 1.350 . S
C1809 C1812 1.453 1_655 S
C1809 C1814 1.356 . S
C1809 N1817 1.431 1_655 S
C1810 H1801 0.930 . S
C1810 C1808 1.378 . S
C1810 C1811 1.367 . S
C1811 C1810 1.367 . S
C1811 C1813 1.433 . S
C1812 C1808 1.350 . S
C1812 C1809 1.453 1_455 S
C1812 N1816 1.427 . S
C1813 H1803 0.929 . S
C1813 C1811 1.433 . S
C1813 N1816 1.384 . S
C1814 H1805 0.929 . S
C1814 C1806 1.378 . S
C1814 C1809 1.356 . S
C1815 H1802 0.929 . S
C1815 C1807 1.433 . S
C1815 N1817 1.384 1_655 S
N1816 C1812 1.427 . S
N1816 C1813 1.384 . S
N1817 C1809 1.431 1_455 S
N1817 C1815 1.384 1_455 S
H1818 C1824 0.930 . S
H1819 C1828 0.930 . S
H1820 C1833 0.929 . S
H1821 C1831 0.929 . S
H1822 C1826 0.929 . S
H1823 C1832 0.929 . S
C1824 H1818 0.930 . S
C1824 C1825 1.367 . S
C1824 C1832 1.378 . S
C1825 C1824 1.367 . S
C1825 C1833 1.433 . S
C1826 H1822 0.929 . S
C1826 C1828 1.378 . S
C1826 C1830 1.350 . S
C1827 C1830 1.463 . S
C1827 C1832 1.350 . S
C1827 N1835 1.427 . S
C1828 H1819 0.930 . S
C1828 C1826 1.378 . S
C1828 C1829 1.367 . S
C1829 C1828 1.367 . S
C1829 C1831 1.433 . S
C1830 C1826 1.350 . S
C1830 C1827 1.463 . S
C1830 N1834 1.427 . S
C1831 H1821 0.929 . S
C1831 C1829 1.433 . S
C1831 N1834 1.384 . S
C1832 H1823 0.929 . S
C1832 C1824 1.378 . S
C1832 C1827 1.350 . S
C1833 H1820 0.929 . S
C1833 C1825 1.433 . S
C1833 N1835 1.384 . S
N1834 C1830 1.427 . S
N1834 C1831 1.384 . S
N1835 C1827 1.427 . S
N1835 C1833 1.384 . S
H1836 C1842 0.930 . S
H1837 C1846 0.930 . S
H1838 C1851 0.929 . S
H1839 C1849 0.929 . S
H1840 C1844 0.929 . S
H1841 C1850 0.929 . S
C1842 H1836 0.930 . S
C1842 C1843 1.367 . S
C1842 C1850 1.378 . S
C1843 C1842 1.367 . S
C1843 C1851 1.433 . S
C1844 H1840 0.929 . S
C1844 C1846 1.378 . S
C1844 C1848 1.350 . S
C1845 C1848 1.463 . S
C1845 C1850 1.350 . S
C1845 N1853 1.427 . S
C1846 H1837 0.930 . S
C1846 C1844 1.378 . S
C1846 C1847 1.367 . S
C1847 C1846 1.367 . S
C1847 C1849 1.433 . S
C1848 C1844 1.350 . S
C1848 C1845 1.463 . S
C1848 N1852 1.427 . S
C1849 H1839 0.929 . S
C1849 C1847 1.433 . S
C1849 N1852 1.384 . S
C1850 H1841 0.929 . S
C1850 C1842 1.378 . S
C1850 C1845 1.350 . S
C1851 H1838 0.929 . S
C1851 C1843 1.433 . S
C1851 N1853 1.384 . S
N1852 C1848 1.427 . S
N1852 C1849 1.384 . S
N1853 C1845 1.427 . S
N1853 C1851 1.384 . S
H1854 C1860 0.930 . S
H1855 C1864 0.930 . S
H1856 C1869 0.929 . S
H1857 C1867 0.929 . S
H1858 C1862 0.929 . S
H1859 C1868 0.929 . S
C1860 H1854 0.930 . S
C1860 C1861 1.367 . S
C1860 C1868 1.378 . S
C1861 C1860 1.367 . S
C1861 C1869 1.433 . S
C1862 H1858 0.929 . S
C1862 C1864 1.378 . S
C1862 C1866 1.350 . S
C1863 C1866 1.463 . S
C1863 C1868 1.350 . S
C1863 N1871 1.427 . S
C1864 H1855 0.930 . S
C1864 C1862 1.378 . S
C1864 C1865 1.367 . S
C1865 C1864 1.367 . S
C1865 C1867 1.433 . S
C1866 C1862 1.350 . S
C1866 C1863 1.463 . S
C1866 N1870 1.427 . S
C1867 H1857 0.929 . S
C1867 C1865 1.433 . S
C1867 N1870 1.384 . S
C1868 H1859 0.929 . S
C1868 C1860 1.378 . S
C1868 C1863 1.350 . S
C1869 H1856 0.929 . S
C1869 C1861 1.433 . S
C1869 N1871 1.384 . S
N1870 C1866 1.427 . S
N1870 C1867 1.384 . S
N1871 C1863 1.427 . S
N1871 C1869 1.384 . S
H1872 C1878 0.930 . S
H1873 C1882 0.930 . S
H1874 C1887 0.929 . S
H1875 C1885 0.929 . S
H1876 C1880 0.929 . S
H1877 C1886 0.929 . S
C1878 H1872 0.930 . S
C1878 C1879 1.367 . S
C1878 C1886 1.378 . S
C1879 C1878 1.367 . S
C1879 C1887 1.433 . S
C1880 H1876 0.929 . S
C1880 C1882 1.378 . S
C1880 C1884 1.350 . S
C1881 C1884 1.463 . S
C1881 C1886 1.350 1_455 S
C1881 N1889 1.427 . S
C1882 H1873 0.930 . S
C1882 C1880 1.378 . S
C1882 C1883 1.367 . S
C1883 C1882 1.367 . S
C1883 C1885 1.433 . S
C1884 C1880 1.350 . S
C1884 C1881 1.463 . S
C1884 N1888 1.427 . S
C1885 H1875 0.929 . S
C1885 C1883 1.433 . S
C1885 N1888 1.384 . S
C1886 H1877 0.929 . S
C1886 C1878 1.378 . S
C1886 C1881 1.350 1_655 S
C1887 H1874 0.929 . S
C1887 C1879 1.433 . S
C1887 N1889 1.384 1_655 S
N1888 C1884 1.427 . S
N1888 C1885 1.384 . S
N1889 C1881 1.427 . S
N1889 C1887 1.384 1_455 S
H1890 C1896 0.930 . S
H1891 C1900 0.930 . S
H1892 C1905 0.929 . S
H1893 C1903 0.929 . S
H1894 C1898 0.929 . S
H1895 C1904 0.929 . S
C1896 H1890 0.930 . S
C1896 C1897 1.367 . S
C1896 C1904 1.378 . S
C1897 C1896 1.367 . S
C1897 C1905 1.433 . S
C1898 H1894 0.929 . S
C1898 C1900 1.378 . S
C1898 C1902 1.350 . S
C1899 C1902 1.463 . S
C1899 C1904 1.350 . S
C1899 N1907 1.427 . S
C1900 H1891 0.930 . S
C1900 C1898 1.378 . S
C1900 C1901 1.367 . S
C1901 C1900 1.367 . S
C1901 C1903 1.433 . S
C1902 C1898 1.350 . S
C1902 C1899 1.463 . S
C1902 N1906 1.427 . S
C1903 H1893 0.929 . S
C1903 C1901 1.433 . S
C1903 N1906 1.384 . S
C1904 H1895 0.929 . S
C1904 C1896 1.378 . S
C1904 C1899 1.350 . S
C1905 H1892 0.929 . S
C1905 C1897 1.433 . S
C1905 N1907 1.384 . S
N1906 C1902 1.427 . S
N1906 C1903 1.384 . S
N1907 C1899 1.427 . S
N1907 C1905 1.384 . S
H1908 C1914 0.930 . S
H1909 C1918 0.930 . S
H1910 C1923 0.929 . S
H1911 C1921 0.929 . S
H1912 C1916 0.929 . S
H1913 C1922 0.929 . S
C1914 H1908 0.930 . S
C1914 C1915 1.367 . S
C1914 C1922 1.378 . S
C1915 C1914 1.367 . S
C1915 C1923 1.433 . S
C1916 H1912 0.929 . S
C1916 C1918 1.378 . S
C1916 C1920 1.350 . S
C1917 C1920 1.463 . S
C1917 C1922 1.350 . S
C1917 N1925 1.427 . S
C1918 H1909 0.930 . S
C1918 C1916 1.378 . S
C1918 C1919 1.367 . S
C1919 C1918 1.367 . S
C1919 C1921 1.433 . S
C1920 C1916 1.350 . S
C1920 C1917 1.463 . S
C1920 N1924 1.427 . S
C1921 H1911 0.929 . S
C1921 C1919 1.433 . S
C1921 N1924 1.384 . S
C1922 H1913 0.929 . S
C1922 C1914 1.378 . S
C1922 C1917 1.350 . S
C1923 H1910 0.929 . S
C1923 C1915 1.433 . S
C1923 N1925 1.384 . S
N1924 C1920 1.427 . S
N1924 C1921 1.384 . S
N1925 C1917 1.427 . S
N1925 C1923 1.384 . S
H1926 C1932 0.930 . S
H1927 C1936 0.930 . S
H1928 C1941 0.929 . S
H1929 C1939 0.929 . S
H1930 C1934 0.929 . S
H1931 C1940 0.929 . S
C1932 H1926 0.930 . S
C1932 C1933 1.367 . S
C1932 C1940 1.378 . S
C1933 C1932 1.367 . S
C1933 C1941 1.433 . S
C1934 H1930 0.929 . S
C1934 C1936 1.378 . S
C1934 C1938 1.350 . S
C1935 C1938 1.463 . S
C1935 C1940 1.350 . S
C1935 N1943 1.427 . S
C1936 H1927 0.930 . S
C1936 C1934 1.378 . S
C1936 C1937 1.367 . S
C1937 C1936 1.367 . S
C1937 C1939 1.433 . S
C1938 C1934 1.350 . S
C1938 C1935 1.463 . S
C1938 N1942 1.427 . S
C1939 H1929 0.929 . S
C1939 C1937 1.433 . S
C1939 N1942 1.384 . S
C1940 H1931 0.929 . S
C1940 C1932 1.378 . S
C1940 C1935 1.350 . S
C1941 H1928 0.929 . S
C1941 C1933 1.433 . S
C1941 N1943 1.384 . S
N1942 C1938 1.427 . S
N1942 C1939 1.384 . S
N1943 C1935 1.427 . S
N1943 C1941 1.384 . S
H1944 C1950 0.930 . S
H1945 C1954 0.930 . S
H1946 C1959 0.929 1_545 S
H1947 C1957 0.929 . S
H1948 C1952 0.929 . S
H1949 C1958 0.929 . S
C1950 H1944 0.930 . S
C1950 C1951 1.367 . S
C1950 C1958 1.378 . S
C1951 C1950 1.367 . S
C1951 C1959 1.433 . S
C1952 H1948 0.929 . S
C1952 C1954 1.378 . S
C1952 C1956 1.350 1_545 S
C1953 C1956 1.463 . S
C1953 C1958 1.350 . S
C1953 N1961 1.427 1_565 S
C1954 H1945 0.930 . S
C1954 C1952 1.378 . S
C1954 C1955 1.367 . S
C1955 C1954 1.367 . S
C1955 C1957 1.433 1_545 S
C1956 C1952 1.350 1_565 S
C1956 C1953 1.463 . S
C1956 N1960 1.427 . S
C1957 H1947 0.929 . S
C1957 C1955 1.433 1_565 S
C1957 N1960 1.384 . S
C1958 H1949 0.929 . S
C1958 C1950 1.378 . S
C1958 C1953 1.350 . S
C1959 H1946 0.929 1_565 S
C1959 C1951 1.433 . S
C1959 N1961 1.384 1_565 S
N1960 C1956 1.427 . S
N1960 C1957 1.384 . S
N1961 C1953 1.427 1_545 S
N1961 C1959 1.384 1_545 S
H1962 C1968 0.930 . S
H1963 C1972 0.930 . S
H1964 C1977 0.929 . S
H1965 C1975 0.929 . S
H1966 C1970 0.929 . S
H1967 C1976 0.929 . S
C1968 H1962 0.930 . S
C1968 C1969 1.367 1_554 S
C1968 C1976 1.378 . S
C1969 C1968 1.367 1_556 S
C1969 C1977 1.433 . S
C1970 H1966 0.929 . S
C1970 C1972 1.378 . S
C1970 C1974 1.350 . S
C1971 C1974 1.463 . S
C1971 C1976 1.350 1_556 S
C1971 N1979 1.427 . S
C1972 H1963 0.930 . S
C1972 C1970 1.378 . S
C1972 C1973 1.361 1_556 S
C1973 C1972 1.361 1_554 S
C1973 C1975 1.436 . S
C1974 C1970 1.350 . S
C1974 C1971 1.463 . S
C1974 N1978 1.427 1_556 S
C1975 H1965 0.929 . S
C1975 C1973 1.436 . S
C1975 N1978 1.384 . S
C1976 H1967 0.929 . S
C1976 C1968 1.378 . S
C1976 C1971 1.350 1_554 S
C1977 H1964 0.929 . S
C1977 C1969 1.433 . S
C1977 N1979 1.384 . S
N1978 C1974 1.427 1_554 S
N1978 C1975 1.384 . S
N1979 C1971 1.427 . S
N1979 C1977 1.384 . S
H1980 C1986 0.930 . S
H1981 C1990 0.930 . S
H1982 C1995 0.929 . S
H1983 C1993 0.929 . S
H1984 C1988 0.929 . S
H1985 C1994 0.929 . S
C1986 H1980 0.930 . S
C1986 C1987 1.367 . S
C1986 C1994 1.378 . S
C1987 C1986 1.367 . S
C1987 C1995 1.433 . S
C1988 H1984 0.929 . S
C1988 C1990 1.378 . S
C1988 C1992 1.350 . S
C1989 C1992 1.463 . S
C1989 C1994 1.350 . S
C1989 N1997 1.427 . S
C1990 H1981 0.930 . S
C1990 C1988 1.378 . S
C1990 C1991 1.367 . S
C1991 C1990 1.367 . S
C1991 C1993 1.433 . S
C1992 C1988 1.350 . S
C1992 C1989 1.463 . S
C1992 N1996 1.427 . S
C1993 H1983 0.929 . S
C1993 C1991 1.433 . S
C1993 N1996 1.384 . S
C1994 H1985 0.929 . S
C1994 C1986 1.378 . S
C1994 C1989 1.350 . S
C1995 H1982 0.929 . S
C1995 C1987 1.433 . S
C1995 N1997 1.384 . S
N1996 C1992 1.427 . S
N1996 C1993 1.384 . S
N1997 C1989 1.427 . S
N1997 C1995 1.384 . S
H1998 C2004 0.930 . S
H1999 C2008 0.930 1_455 S
H2000 C2013 0.929 . S
H2001 C2011 0.929 . S
H2002 C2006 0.929 . S
H2003 C2012 0.929 . S
C2004 H1998 0.930 . S
C2004 C2005 1.367 . S
C2004 C2012 1.378 . S
C2005 C2004 1.367 . S
C2005 C2013 1.433 . S
C2006 H2002 0.929 . S
C2006 C2008 1.378 . S
C2006 C2010 1.350 . S
C2007 C2010 1.463 . S
C2007 C2012 1.350 . S
C2007 N2015 1.427 . S
C2008 H1999 0.930 1_655 S
C2008 C2006 1.378 . S
C2008 C2009 1.367 1_655 S
C2009 C2008 1.367 1_455 S
C2009 C2011 1.433 . S
C2010 C2006 1.350 . S
C2010 C2007 1.463 . S
C2010 N2014 1.427 . S
C2011 H2001 0.929 . S
C2011 C2009 1.433 . S
C2011 N2014 1.384 1_455 S
C2012 H2003 0.929 . S
C2012 C2004 1.378 . S
C2012 C2007 1.350 . S
C2013 H2000 0.929 . S
C2013 C2005 1.433 . S
C2013 N2015 1.384 . S
N2014 C2010 1.427 . S
N2014 C2011 1.384 1_655 S
N2015 C2007 1.427 . S
N2015 C2013 1.384 . S
H2016 C2022 0.930 . S
H2017 C2026 0.930 . S
H2018 C2031 0.929 . S
H2019 C2029 0.929 . S
H2020 C2024 0.929 . S
H2021 C2030 0.929 . S
C2022 H2016 0.930 . S
C2022 C2023 1.367 . S
C2022 C2030 1.378 . S
C2023 C2022 1.367 . S
C2023 C2031 1.433 . S
C2024 H2020 0.929 . S
C2024 C2026 1.378 . S
C2024 C2028 1.350 . S
C2025 C2028 1.463 . S
C2025 C2030 1.350 . S
C2025 N2033 1.427 . S
C2026 H2017 0.930 . S
C2026 C2024 1.378 . S
C2026 C2027 1.367 . S
C2027 C2026 1.367 . S
C2027 C2029 1.433 . S
C2028 C2024 1.350 . S
C2028 C2025 1.463 . S
C2028 N2032 1.427 . S
C2029 H2019 0.929 . S
C2029 C2027 1.433 . S
C2029 N2032 1.384 . S
C2030 H2021 0.929 . S
C2030 C2022 1.378 . S
C2030 C2025 1.350 . S
C2031 H2018 0.929 . S
C2031 C2023 1.433 . S
C2031 N2033 1.384 . S
N2032 C2028 1.427 . S
N2032 C2029 1.384 . S
N2033 C2025 1.427 . S
N2033 C2031 1.384 . S
H2034 C2040 0.930 . S
H2035 C2044 0.930 . S
H2036 C2049 0.929 . S
H2037 C2047 0.929 . S
H2038 C2042 0.929 . S
H2039 C2048 0.929 . S
C2040 H2034 0.930 . S
C2040 C2041 1.367 . S
C2040 C2048 1.378 . S
C2041 C2040 1.367 . S
C2041 C2049 1.433 . S
C2042 H2038 0.929 . S
C2042 C2044 1.378 . S
C2042 C2046 1.350 . S
C2043 C2046 1.463 . S
C2043 C2048 1.350 . S
C2043 N2051 1.427 . S
C2044 H2035 0.930 . S
C2044 C2042 1.378 . S
C2044 C2045 1.367 . S
C2045 C2044 1.367 . S
C2045 C2047 1.433 . S
C2046 C2042 1.350 . S
C2046 C2043 1.463 . S
C2046 N2050 1.427 . S
C2047 H2037 0.929 . S
C2047 C2045 1.433 . S
C2047 N2050 1.384 . S
C2048 H2039 0.929 . S
C2048 C2040 1.378 . S
C2048 C2043 1.350 . S
C2049 H2036 0.929 . S
C2049 C2041 1.433 . S
C2049 N2051 1.384 . S
N2050 C2046 1.427 . S
N2050 C2047 1.384 . S
N2051 C2043 1.427 . S
N2051 C2049 1.384 . S
H2052 C2058 0.930 . S
H2053 C2062 0.930 . S
H2054 C2067 0.929 . S
H2055 C2065 0.929 . S
H2056 C2060 0.929 . S
H2057 C2066 0.929 . S
C2058 H2052 0.930 . S
C2058 C2059 1.367 . S
C2058 C2066 1.378 . S
C2059 C2058 1.367 . S
C2059 C2067 1.433 . S
C2060 H2056 0.929 . S
C2060 C2062 1.378 . S
C2060 C2064 1.350 . S
C2061 C2064 1.463 . S
C2061 C2066 1.350 . S
C2061 N2069 1.427 . S
C2062 H2053 0.930 . S
C2062 C2060 1.378 . S
C2062 C2063 1.367 . S
C2063 C2062 1.367 . S
C2063 C2065 1.433 . S
C2064 C2060 1.350 . S
C2064 C2061 1.463 . S
C2064 N2068 1.427 . S
C2065 H2055 0.929 . S
C2065 C2063 1.433 . S
C2065 N2068 1.384 . S
C2066 H2057 0.929 . S
C2066 C2058 1.378 . S
C2066 C2061 1.350 . S
C2067 H2054 0.929 . S
C2067 C2059 1.433 . S
C2067 N2069 1.384 . S
N2068 C2064 1.427 . S
N2068 C2065 1.384 . S
N2069 C2061 1.427 . S
N2069 C2067 1.384 . S
H2070 C2076 0.930 . S
H2071 C2080 0.930 . S
H2072 C2085 0.929 . S
H2073 C2083 0.929 . S
H2074 C2078 0.929 . S
H2075 C2084 0.929 . S
C2076 H2070 0.930 . S
C2076 C2077 1.367 . S
C2076 C2084 1.378 . S
C2077 C2076 1.367 . S
C2077 C2085 1.433 . S
C2078 H2074 0.929 . S
C2078 C2080 1.378 . S
C2078 C2082 1.350 . S
C2079 C2082 1.463 . S
C2079 C2084 1.350 . S
C2079 N2087 1.427 . S
C2080 H2071 0.930 . S
C2080 C2078 1.378 . S
C2080 C2081 1.367 . S
C2081 C2080 1.367 . S
C2081 C2083 1.433 . S
C2082 C2078 1.350 . S
C2082 C2079 1.463 . S
C2082 N2086 1.427 . S
C2083 H2073 0.929 . S
C2083 C2081 1.433 . S
C2083 N2086 1.384 . S
C2084 H2075 0.929 . S
C2084 C2076 1.378 . S
C2084 C2079 1.350 . S
C2085 H2072 0.929 . S
C2085 C2077 1.433 . S
C2085 N2087 1.384 . S
N2086 C2082 1.427 . S
N2086 C2083 1.384 . S
N2087 C2079 1.427 . S
N2087 C2085 1.384 . S
H2088 C2094 0.930 . S
H2089 C2098 0.930 . S
H2090 C2103 0.929 . S
H2091 C2101 0.929 1_556 S
H2092 C2096 0.929 . S
H2093 C2102 0.929 . S
C2094 H2088 0.930 . S
C2094 C2095 1.367 . S
C2094 C2102 1.378 . S
C2095 C2094 1.367 . S
C2095 C2103 1.433 . S
C2096 H2092 0.929 . S
C2096 C2098 1.378 . S
C2096 C2100 1.350 . S
C2097 C2100 1.463 . S
C2097 C2102 1.350 . S
C2097 N2105 1.427 . S
C2098 H2089 0.930 . S
C2098 C2096 1.378 . S
C2098 C2099 1.367 . S
C2099 C2098 1.367 . S
C2099 C2101 1.433 . S
C2100 C2096 1.350 . S
C2100 C2097 1.463 . S
C2100 N2104 1.427 . S
C2101 H2091 0.929 1_554 S
C2101 C2099 1.433 . S
C2101 N2104 1.384 . S
C2102 H2093 0.929 . S
C2102 C2094 1.378 . S
C2102 C2097 1.350 . S
C2103 H2090 0.929 . S
C2103 C2095 1.433 . S
C2103 N2105 1.384 . S
N2104 C2100 1.427 . S
N2104 C2101 1.384 . S
N2105 C2097 1.427 . S
N2105 C2103 1.384 . S
H2106 C2112 0.930 . S
H2107 C2116 0.930 . S
H2108 C2121 0.929 . S
H2109 C2119 0.929 . S
H2110 C2114 0.929 . S
H2111 C2120 0.929 . S
C2112 H2106 0.930 . S
C2112 C2113 1.367 . S
C2112 C2120 1.378 . S
C2113 C2112 1.367 . S
C2113 C2121 1.433 . S
C2114 H2110 0.929 . S
C2114 C2116 1.378 . S
C2114 C2118 1.350 . S
C2115 C2118 1.463 . S
C2115 C2120 1.350 . S
C2115 N2123 1.427 . S
C2116 H2107 0.930 . S
C2116 C2114 1.378 . S
C2116 C2117 1.367 . S
C2117 C2116 1.367 . S
C2117 C2119 1.433 . S
C2118 C2114 1.350 . S
C2118 C2115 1.463 . S
C2118 N2122 1.427 . S
C2119 H2109 0.929 . S
C2119 C2117 1.433 . S
C2119 N2122 1.384 . S
C2120 H2111 0.929 . S
C2120 C2112 1.378 . S
C2120 C2115 1.350 . S
C2121 H2108 0.929 . S
C2121 C2113 1.433 . S
C2121 N2123 1.384 . S
N2122 C2118 1.427 . S
N2122 C2119 1.384 . S
N2123 C2115 1.427 . S
N2123 C2121 1.384 . S
H2124 C2130 0.930 . S
H2125 C2134 0.930 . S
H2126 C2139 0.929 . S
H2127 C2137 0.929 . S
H2128 C2132 0.929 . S
H2129 C2138 0.929 . S
C2130 H2124 0.930 . S
C2130 C2131 1.367 . S
C2130 C2138 1.378 . S
C2131 C2130 1.367 . S
C2131 C2139 1.433 . S
C2132 H2128 0.929 . S
C2132 C2134 1.378 . S
C2132 C2136 1.350 . S
C2133 C2136 1.463 . S
C2133 C2138 1.350 . S
C2133 N2141 1.427 . S
C2134 H2125 0.930 . S
C2134 C2132 1.378 . S
C2134 C2135 1.367 . S
C2135 C2134 1.367 . S
C2135 C2137 1.433 . S
C2136 C2132 1.350 . S
C2136 C2133 1.463 . S
C2136 N2140 1.427 . S
C2137 H2127 0.929 . S
C2137 C2135 1.433 . S
C2137 N2140 1.384 . S
C2138 H2129 0.929 . S
C2138 C2130 1.378 . S
C2138 C2133 1.350 . S
C2139 H2126 0.929 . S
C2139 C2131 1.433 . S
C2139 N2141 1.384 . S
N2140 C2136 1.427 . S
N2140 C2137 1.384 . S
N2141 C2133 1.427 . S
N2141 C2139 1.384 . S
H2142 C2148 0.930 . S
H2143 C2152 0.930 . S
H2144 C2157 0.929 . S
H2145 C2155 0.929 . S
H2146 C2150 0.929 . S
H2147 C2156 0.929 . S
C2148 H2142 0.930 . S
C2148 C2149 1.367 . S
C2148 C2156 1.378 . S
C2149 C2148 1.367 . S
C2149 C2157 1.433 . S
C2150 H2146 0.929 . S
C2150 C2152 1.378 . S
C2150 C2154 1.350 . S
C2151 C2154 1.463 . S
C2151 C2156 1.350 . S
C2151 N2159 1.427 . S
C2152 H2143 0.930 . S
C2152 C2150 1.378 . S
C2152 C2153 1.367 . S
C2153 C2152 1.367 . S
C2153 C2155 1.433 . S
C2154 C2150 1.350 . S
C2154 C2151 1.463 . S
C2154 N2158 1.427 . S
C2155 H2145 0.929 . S
C2155 C2153 1.433 . S
C2155 N2158 1.384 . S
C2156 H2147 0.929 . S
C2156 C2148 1.378 . S
C2156 C2151 1.350 . S
C2157 H2144 0.929 . S
C2157 C2149 1.433 . S
C2157 N2159 1.384 . S
N2158 C2154 1.427 . S
N2158 C2155 1.384 . S
N2159 C2151 1.427 . S
N2159 C2157 1.384 . S
H2160 C2166 0.930 . S
H2161 C2170 0.930 . S
H2162 C2175 0.929 . S
H2163 C2173 0.929 . S
H2164 C2168 0.929 . S
H2165 C2174 0.929 . S
C2166 H2160 0.930 . S
C2166 C2167 1.367 . S
C2166 C2174 1.378 . S
C2167 C2166 1.367 . S
C2167 C2175 1.433 . S
C2168 H2164 0.929 . S
C2168 C2170 1.378 . S
C2168 C2172 1.350 . S
C2169 C2172 1.463 . S
C2169 C2174 1.350 . S
C2169 N2177 1.427 . S
C2170 H2161 0.930 . S
C2170 C2168 1.378 . S
C2170 C2171 1.367 . S
C2171 C2170 1.367 . S
C2171 C2173 1.433 . S
C2172 C2168 1.350 . S
C2172 C2169 1.463 . S
C2172 N2176 1.427 . S
C2173 H2163 0.929 . S
C2173 C2171 1.433 . S
C2173 N2176 1.384 . S
C2174 H2165 0.929 . S
C2174 C2166 1.378 . S
C2174 C2169 1.350 . S
C2175 H2162 0.929 . S
C2175 C2167 1.433 . S
C2175 N2177 1.384 . S
N2176 C2172 1.427 . S
N2176 C2173 1.384 . S
N2177 C2169 1.427 . S
N2177 C2175 1.384 . S
H2178 C2184 0.930 . S
H2179 C2188 0.930 . S
H2180 C2193 0.929 . S
H2181 C2191 0.929 . S
H2182 C2186 0.929 . S
H2183 C2192 0.929 . S
C2184 H2178 0.930 . S
C2184 C2185 1.367 . S
C2184 C2192 1.378 . S
C2185 C2184 1.367 . S
C2185 C2193 1.433 . S
C2186 H2182 0.929 . S
C2186 C2188 1.378 . S
C2186 C2190 1.350 . S
C2187 C2190 1.463 . S
C2187 C2192 1.350 . S
C2187 N2195 1.427 . S
C2188 H2179 0.930 . S
C2188 C2186 1.378 . S
C2188 C2189 1.367 . S
C2189 C2188 1.367 . S
C2189 C2191 1.433 . S
C2190 C2186 1.350 . S
C2190 C2187 1.463 . S
C2190 N2194 1.427 . S
C2191 H2181 0.929 . S
C2191 C2189 1.433 . S
C2191 N2194 1.384 . S
C2192 H2183 0.929 . S
C2192 C2184 1.378 . S
C2192 C2187 1.350 . S
C2193 H2180 0.929 . S
C2193 C2185 1.433 . S
C2193 N2195 1.384 . S
N2194 C2190 1.427 . S
N2194 C2191 1.384 . S
N2195 C2187 1.427 . S
N2195 C2193 1.384 . S
H2196 C2202 0.930 . S
H2197 C2206 0.930 1_545 S
H2198 C2211 0.929 . S
H2199 C2209 0.929 . S
H2200 C2204 0.929 . S
H2201 C2210 0.929 . S
C2202 H2196 0.930 . S
C2202 C2203 1.367 . S
C2202 C2210 1.378 . S
C2203 C2202 1.367 . S
C2203 C2211 1.433 . S
C2204 H2200 0.929 . S
C2204 C2206 1.378 . S
C2204 C2208 1.350 . S
C2205 C2208 1.463 . S
C2205 C2210 1.350 . S
C2205 N2213 1.427 . S
C2206 H2197 0.930 1_565 S
C2206 C2204 1.378 . S
C2206 C2207 1.367 . S
C2207 C2206 1.367 . S
C2207 C2209 1.433 . S
C2208 C2204 1.350 . S
C2208 C2205 1.463 . S
C2208 N2212 1.427 . S
C2209 H2199 0.929 . S
C2209 C2207 1.433 . S
C2209 N2212 1.384 . S
C2210 H2201 0.929 . S
C2210 C2202 1.378 . S
C2210 C2205 1.350 . S
C2211 H2198 0.929 . S
C2211 C2203 1.433 . S
C2211 N2213 1.384 . S
N2212 C2208 1.427 . S
N2212 C2209 1.384 . S
N2213 C2205 1.427 . S
N2213 C2211 1.384 . S
H2214 C2220 0.930 . S
H2215 C2224 0.930 . S
H2216 C2229 0.929 . S
H2217 C2227 0.929 . S
H2218 C2222 0.929 . S
H2219 C2228 0.929 . S
C2220 H2214 0.930 . S
C2220 C2221 1.367 . S
C2220 C2228 1.378 . S
C2221 C2220 1.367 . S
C2221 C2229 1.433 . S
C2222 H2218 0.929 . S
C2222 C2224 1.378 . S
C2222 C2226 1.350 . S
C2223 C2226 1.463 . S
C2223 C2228 1.350 . S
C2223 N2231 1.427 . S
C2224 H2215 0.930 . S
C2224 C2222 1.378 . S
C2224 C2225 1.367 . S
C2225 C2224 1.367 . S
C2225 C2227 1.433 . S
C2226 C2222 1.350 . S
C2226 C2223 1.463 . S
C2226 N2230 1.427 . S
C2227 H2217 0.929 . S
C2227 C2225 1.433 . S
C2227 N2230 1.384 . S
C2228 H2219 0.929 . S
C2228 C2220 1.378 . S
C2228 C2223 1.350 . S
C2229 H2216 0.929 . S
C2229 C2221 1.433 . S
C2229 N2231 1.384 . S
N2230 C2226 1.427 . S
N2230 C2227 1.384 . S
N2231 C2223 1.427 . S
N2231 C2229 1.384 . S
H2232 C2238 0.930 . S
H2233 C2242 0.930 . S
H2234 C2247 0.929 . S
H2235 C2245 0.929 . S
H2236 C2240 0.929 . S
H2237 C2246 0.929 . S
C2238 H2232 0.930 . S
C2238 C2239 1.367 . S
C2238 C2246 1.378 . S
C2239 C2238 1.367 . S
C2239 C2247 1.433 1_545 S
C2240 H2236 0.929 . S
C2240 C2242 1.378 . S
C2240 C2244 1.350 1_565 S
C2241 C2244 1.463 . S
C2241 C2246 1.350 . S
C2241 N2249 1.427 1_545 S
C2242 H2233 0.930 . S
C2242 C2240 1.378 . S
C2242 C2243 1.367 1_565 S
C2243 C2242 1.367 1_545 S
C2243 C2245 1.433 . S
C2244 C2240 1.350 1_545 S
C2244 C2241 1.463 . S
C2244 N2248 1.427 . S
C2245 H2235 0.929 . S
C2245 C2243 1.433 . S
C2245 N2248 1.384 . S
C2246 H2237 0.929 . S
C2246 C2238 1.378 . S
C2246 C2241 1.350 . S
C2247 H2234 0.929 . S
C2247 C2239 1.433 1_565 S
C2247 N2249 1.384 . S
N2248 C2244 1.427 . S
N2248 C2245 1.384 . S
N2249 C2241 1.427 1_565 S
N2249 C2247 1.384 . S
H2250 C2256 0.930 . S
H2251 C2260 0.930 . S
H2252 C2265 0.929 . S
H2253 C2263 0.929 . S
H2254 C2258 0.929 . S
H2255 C2264 0.929 . S
C2256 H2250 0.930 . S
C2256 C2257 1.367 . S
C2256 C2264 1.378 . S
C2257 C2256 1.367 . S
C2257 C2265 1.433 . S
C2258 H2254 0.929 . S
C2258 C2260 1.378 . S
C2258 C2262 1.350 . S
C2259 C2262 1.463 . S
C2259 C2264 1.350 . S
C2259 N2267 1.427 . S
C2260 H2251 0.930 . S
C2260 C2258 1.378 . S
C2260 C2261 1.367 . S
C2261 C2260 1.367 . S
C2261 C2263 1.433 . S
C2262 C2258 1.350 . S
C2262 C2259 1.463 . S
C2262 N2266 1.427 . S
C2263 H2253 0.929 . S
C2263 C2261 1.433 . S
C2263 N2266 1.384 . S
C2264 H2255 0.929 . S
C2264 C2256 1.378 . S
C2264 C2259 1.350 . S
C2265 H2252 0.929 . S
C2265 C2257 1.433 . S
C2265 N2267 1.384 . S
N2266 C2262 1.427 . S
N2266 C2263 1.384 . S
N2267 C2259 1.427 . S
N2267 C2265 1.384 . S
H2268 C2274 0.937 . S
H2269 C2278 0.930 . S
H2270 C2283 0.929 . S
H2271 C2281 0.929 . S
H2272 C2276 0.929 . S
H2273 C2282 0.929 . S
C2274 H2268 0.937 . S
C2274 C2275 1.367 . S
C2274 C2282 1.378 . S
C2275 C2274 1.367 . S
C2275 C2283 1.433 . S
C2276 H2272 0.929 . S
C2276 C2278 1.378 . S
C2276 C2280 1.350 . S
C2277 C2280 1.463 . S
C2277 C2282 1.350 . S
C2277 N2285 1.427 . S
C2278 H2269 0.930 . S
C2278 C2276 1.378 . S
C2278 C2279 1.367 . S
C2279 C2278 1.367 . S
C2279 C2281 1.433 . S
C2280 C2276 1.350 . S
C2280 C2277 1.463 . S
C2280 N2284 1.427 . S
C2281 H2271 0.929 . S
C2281 C2279 1.433 . S
C2281 N2284 1.384 . S
C2282 H2273 0.929 . S
C2282 C2274 1.378 . S
C2282 C2277 1.350 . S
C2283 H2270 0.929 . S
C2283 C2275 1.433 . S
C2283 N2285 1.384 . S
N2284 C2280 1.427 . S
N2284 C2281 1.384 . S
N2285 C2277 1.427 . S
N2285 C2283 1.384 . S
H2286 C2292 0.930 . S
H2287 C2296 0.930 . S
H2288 C2301 0.929 . S
H2289 C2299 0.929 . S
H2290 C2294 0.929 . S
H2291 C2300 0.929 . S
C2292 H2286 0.930 . S
C2292 C2293 1.367 . S
C2292 C2300 1.378 . S
C2293 C2292 1.367 . S
C2293 C2301 1.433 . S
C2294 H2290 0.929 . S
C2294 C2296 1.378 . S
C2294 C2298 1.350 . S
C2295 C2298 1.463 . S
C2295 C2300 1.350 . S
C2295 N2303 1.427 . S
C2296 H2287 0.930 . S
C2296 C2294 1.378 . S
C2296 C2297 1.367 . S
C2297 C2296 1.367 . S
C2297 C2299 1.433 . S
C2298 C2294 1.350 . S
C2298 C2295 1.463 . S
C2298 N2302 1.427 . S
C2299 H2289 0.929 . S
C2299 C2297 1.433 . S
C2299 N2302 1.384 . S
C2300 H2291 0.929 . S
C2300 C2292 1.378 . S
C2300 C2295 1.350 . S
C2301 H2288 0.929 . S
C2301 C2293 1.433 . S
C2301 N2303 1.384 . S
N2302 C2298 1.427 . S
N2302 C2299 1.384 . S
N2303 C2295 1.427 . S
N2303 C2301 1.384 . S
H2304 C2310 0.930 . S
H2305 C2314 0.930 1_565 S
H2306 C2319 0.929 . S
H2307 C2317 0.929 . S
H2308 C2312 0.945 . S
H2309 C2318 0.929 . S
C2310 H2304 0.930 . S
C2310 C2311 1.367 1_545 S
C2310 C2318 1.378 . S
C2311 C2310 1.367 1_565 S
C2311 C2319 1.433 . S
C2312 H2308 0.945 . S
C2312 C2314 1.368 1_565 S
C2312 C2316 1.344 1_565 S
C2313 C2316 1.463 . S
C2313 C2318 1.350 . S
C2313 N2321 1.427 1_545 S
C2314 H2305 0.930 1_545 S
C2314 C2312 1.368 1_545 S
C2314 C2315 1.367 . S
C2315 C2314 1.367 . S
C2315 C2317 1.433 . S
C2316 C2312 1.344 1_545 S
C2316 C2313 1.463 . S
C2316 N2320 1.427 . S
C2317 H2307 0.929 . S
C2317 C2315 1.433 . S
C2317 N2320 1.384 . S
C2318 H2309 0.929 . S
C2318 C2310 1.378 . S
C2318 C2313 1.350 . S
C2319 H2306 0.929 . S
C2319 C2311 1.433 . S
C2319 N2321 1.384 . S
N2320 C2316 1.427 . S
N2320 C2317 1.384 . S
N2321 C2313 1.427 1_565 S
N2321 C2319 1.384 . S
H2322 C2328 0.930 . S
H2323 C2332 0.930 . S
H2324 C2337 0.929 . S
H2325 C2335 0.929 . S
H2326 C2330 0.929 . S
H2327 C2336 0.929 . S
C2328 H2322 0.930 . S
C2328 C2329 1.367 . S
C2328 C2336 1.378 . S
C2329 C2328 1.367 . S
C2329 C2337 1.433 . S
C2330 H2326 0.929 . S
C2330 C2332 1.378 . S
C2330 C2334 1.350 . S
C2331 C2334 1.463 . S
C2331 C2336 1.350 . S
C2331 N2339 1.427 . S
C2332 H2323 0.930 . S
C2332 C2330 1.378 . S
C2332 C2333 1.367 . S
C2333 C2332 1.367 . S
C2333 C2335 1.433 . S
C2334 C2330 1.350 . S
C2334 C2331 1.463 . S
C2334 N2338 1.427 . S
C2335 H2325 0.929 . S
C2335 C2333 1.433 . S
C2335 N2338 1.384 . S
C2336 H2327 0.929 . S
C2336 C2328 1.378 . S
C2336 C2331 1.350 . S
C2337 H2324 0.929 . S
C2337 C2329 1.433 . S
C2337 N2339 1.384 . S
N2338 C2334 1.427 . S
N2338 C2335 1.384 . S
N2339 C2331 1.427 . S
N2339 C2337 1.384 . S
H2340 C2346 0.930 . S
H2341 C2350 0.930 . S
H2342 C2355 0.929 . S
H2343 C2353 0.929 . S
H2344 C2348 0.929 . S
H2345 C2354 0.929 . S
C2346 H2340 0.930 . S
C2346 C2347 1.367 . S
C2346 C2354 1.378 . S
C2347 C2346 1.367 . S
C2347 C2355 1.433 1_545 S
C2348 H2344 0.929 . S
C2348 C2350 1.378 . S
C2348 C2352 1.350 1_565 S
C2349 C2352 1.463 . S
C2349 C2354 1.350 . S
C2349 N2357 1.427 1_545 S
C2350 H2341 0.930 . S
C2350 C2348 1.378 . S
C2350 C2351 1.367 1_565 S
C2351 C2350 1.367 1_545 S
C2351 C2353 1.433 . S
C2352 C2348 1.350 1_545 S
C2352 C2349 1.463 . S
C2352 N2356 1.427 . S
C2353 H2343 0.929 . S
C2353 C2351 1.433 . S
C2353 N2356 1.384 . S
C2354 H2345 0.929 . S
C2354 C2346 1.378 . S
C2354 C2349 1.350 . S
C2355 H2342 0.929 . S
C2355 C2347 1.433 1_565 S
C2355 N2357 1.384 . S
N2356 C2352 1.427 . S
N2356 C2353 1.384 . S
N2357 C2349 1.427 1_565 S
N2357 C2355 1.384 . S
H2358 C2364 0.930 . S
H2359 C2368 0.930 . S
H2360 C2373 0.929 . S
H2361 C2371 0.929 . S
H2362 C2366 0.929 . S
H2363 C2372 0.929 . S
C2364 H2358 0.930 . S
C2364 C2365 1.367 . S
C2364 C2372 1.378 . S
C2365 C2364 1.367 . S
C2365 C2373 1.433 . S
C2366 H2362 0.929 . S
C2366 C2368 1.378 . S
C2366 C2370 1.350 . S
C2367 C2370 1.463 . S
C2367 C2372 1.350 . S
C2367 N2375 1.427 . S
C2368 H2359 0.930 . S
C2368 C2366 1.378 . S
C2368 C2369 1.367 . S
C2369 C2368 1.367 . S
C2369 C2371 1.433 . S
C2370 C2366 1.350 . S
C2370 C2367 1.463 . S
C2370 N2374 1.427 . S
C2371 H2361 0.929 . S
C2371 C2369 1.433 . S
C2371 N2374 1.384 . S
C2372 H2363 0.929 . S
C2372 C2364 1.378 . S
C2372 C2367 1.350 . S
C2373 H2360 0.929 . S
C2373 C2365 1.433 . S
C2373 N2375 1.384 . S
N2374 C2370 1.427 . S
N2374 C2371 1.384 . S
N2375 C2367 1.427 . S
N2375 C2373 1.384 . S
H2376 C2382 0.930 . S
H2377 C2386 0.930 . S
H2378 C2391 0.929 . S
H2379 C2389 0.929 . S
H2380 C2384 0.929 . S
H2381 C2390 0.929 . S
C2382 H2376 0.930 . S
C2382 C2383 1.367 . S
C2382 C2390 1.378 . S
C2383 C2382 1.367 . S
C2383 C2391 1.433 1_554 S
C2384 H2380 0.929 . S
C2384 C2386 1.378 . S
C2384 C2388 1.350 1_556 S
C2385 C2388 1.463 . S
C2385 C2390 1.350 . S
C2385 N2393 1.427 1_554 S
C2386 H2377 0.930 . S
C2386 C2384 1.378 . S
C2386 C2387 1.367 1_556 S
C2387 C2386 1.367 1_554 S
C2387 C2389 1.433 . S
C2388 C2384 1.350 1_554 S
C2388 C2385 1.463 . S
C2388 N2392 1.427 . S
C2389 H2379 0.929 . S
C2389 C2387 1.433 . S
C2389 N2392 1.384 . S
C2390 H2381 0.929 . S
C2390 C2382 1.378 . S
C2390 C2385 1.350 . S
C2391 H2378 0.929 . S
C2391 C2383 1.433 1_556 S
C2391 N2393 1.384 . S
N2392 C2388 1.427 . S
N2392 C2389 1.384 . S
N2393 C2385 1.427 1_556 S
N2393 C2391 1.384 . S
H2394 C2400 0.930 . S
H2395 C2404 0.930 . S
H2396 C2409 0.929 . S
H2397 C2407 0.929 . S
H2398 C2402 0.929 . S
H2399 C2408 0.929 . S
C2400 H2394 0.930 . S
C2400 C2401 1.367 . S
C2400 C2408 1.378 . S
C2401 C2400 1.367 . S
C2401 C2409 1.433 . S
C2402 H2398 0.929 . S
C2402 C2404 1.378 . S
C2402 C2406 1.350 . S
C2403 C2406 1.463 . S
C2403 C2408 1.350 . S
C2403 N2411 1.427 . S
C2404 H2395 0.930 . S
C2404 C2402 1.378 . S
C2404 C2405 1.367 . S
C2405 C2404 1.367 . S
C2405 C2407 1.433 . S
C2406 C2402 1.350 . S
C2406 C2403 1.463 . S
C2406 N2410 1.427 . S
C2407 H2397 0.929 . S
C2407 C2405 1.433 . S
C2407 N2410 1.384 . S
C2408 H2399 0.929 . S
C2408 C2400 1.378 . S
C2408 C2403 1.350 . S
C2409 H2396 0.929 . S
C2409 C2401 1.433 . S
C2409 N2411 1.384 . S
N2410 C2406 1.427 . S
N2410 C2407 1.384 . S
N2411 C2403 1.427 . S
N2411 C2409 1.384 . S
H2412 C2418 0.930 . S
H2413 C2422 0.930 . S
H2414 C2427 0.929 . S
H2415 C2425 0.929 . S
H2416 C2420 0.929 . S
H2417 C2426 0.929 . S
C2418 H2412 0.930 . S
C2418 C2419 1.367 . S
C2418 C2426 1.378 . S
C2419 C2418 1.367 . S
C2419 C2427 1.433 . S
C2420 H2416 0.929 . S
C2420 C2422 1.378 . S
C2420 C2424 1.350 . S
C2421 C2424 1.463 . S
C2421 C2426 1.350 . S
C2421 N2429 1.427 . S
C2422 H2413 0.930 . S
C2422 C2420 1.378 . S
C2422 C2423 1.367 . S
C2423 C2422 1.367 . S
C2423 C2425 1.433 . S
C2424 C2420 1.350 . S
C2424 C2421 1.463 . S
C2424 N2428 1.427 . S
C2425 H2415 0.929 . S
C2425 C2423 1.433 . S
C2425 N2428 1.384 . S
C2426 H2417 0.929 . S
C2426 C2418 1.378 . S
C2426 C2421 1.350 . S
C2427 H2414 0.929 . S
C2427 C2419 1.433 . S
C2427 N2429 1.384 . S
N2428 C2424 1.427 . S
N2428 C2425 1.384 . S
N2429 C2421 1.427 . S
N2429 C2427 1.384 . S
H2430 C2436 0.930 . S
H2431 C2440 0.930 . S
H2432 C2445 0.929 . S
H2433 C2443 0.929 . S
H2434 C2438 0.929 . S
H2435 C2444 0.929 . S
C2436 H2430 0.930 . S
C2436 C2437 1.367 . S
C2436 C2444 1.378 . S
C2437 C2436 1.367 . S
C2437 C2445 1.433 . S
C2438 H2434 0.929 . S
C2438 C2440 1.378 . S
C2438 C2442 1.350 . S
C2439 C2442 1.463 . S
C2439 C2444 1.350 . S
C2439 N2447 1.427 . S
C2440 H2431 0.930 . S
C2440 C2438 1.378 . S
C2440 C2441 1.367 . S
C2441 C2440 1.367 . S
C2441 C2443 1.433 . S
C2442 C2438 1.350 . S
C2442 C2439 1.463 . S
C2442 N2446 1.427 . S
C2443 H2433 0.929 . S
C2443 C2441 1.433 . S
C2443 N2446 1.384 . S
C2444 H2435 0.929 . S
C2444 C2436 1.378 . S
C2444 C2439 1.350 . S
C2445 H2432 0.929 . S
C2445 C2437 1.433 . S
C2445 N2447 1.384 . S
N2446 C2442 1.427 . S
N2446 C2443 1.384 . S
N2447 C2439 1.427 . S
N2447 C2445 1.384 . S
H2448 C2454 0.930 . S
H2449 C2458 0.930 . S
H2450 C2463 0.929 . S
H2451 C2461 0.929 . S
H2452 C2456 0.929 . S
H2453 C2462 0.929 . S
C2454 H2448 0.930 . S
C2454 C2455 1.367 . S
C2454 C2462 1.378 . S
C2455 C2454 1.367 . S
C2455 C2463 1.433 1_565 S
C2456 H2452 0.929 . S
C2456 C2458 1.378 . S
C2456 C2460 1.350 . S
C2457 C2460 1.463 . S
C2457 C2462 1.350 . S
C2457 N2465 1.427 . S
C2458 H2449 0.930 . S
C2458 C2456 1.378 . S
C2458 C2459 1.367 . S
C2459 C2458 1.367 . S
C2459 C2461 1.433 . S
C2460 C2456 1.350 . S
C2460 C2457 1.463 . S
C2460 N2464 1.427 . S
C2461 H2451 0.929 . S
C2461 C2459 1.433 . S
C2461 N2464 1.384 . S
C2462 H2453 0.929 . S
C2462 C2454 1.378 . S
C2462 C2457 1.350 . S
C2463 H2450 0.929 . S
C2463 C2455 1.433 1_545 S
C2463 N2465 1.384 1_545 S
N2464 C2460 1.427 . S
N2464 C2461 1.384 . S
N2465 C2457 1.427 . S
N2465 C2463 1.384 1_565 S
H2466 C2472 0.930 . S
H2467 C2476 0.930 . S
H2468 C2481 0.929 . S
H2469 C2479 0.929 1_545 S
H2470 C2474 0.929 . S
H2471 C2480 0.929 . S
C2472 H2466 0.930 . S
C2472 C2473 1.367 . S
C2472 C2480 1.378 . S
C2473 C2472 1.367 . S
C2473 C2481 1.433 . S
C2474 H2470 0.929 . S
C2474 C2476 1.378 . S
C2474 C2478 1.350 . S
C2475 C2478 1.463 . S
C2475 C2480 1.350 . S
C2475 N2483 1.427 . S
C2476 H2467 0.930 . S
C2476 C2474 1.378 . S
C2476 C2477 1.367 . S
C2477 C2476 1.367 . S
C2477 C2479 1.433 . S
C2478 C2474 1.350 . S
C2478 C2475 1.463 . S
C2478 N2482 1.427 . S
C2479 H2469 0.929 1_565 S
C2479 C2477 1.433 . S
C2479 N2482 1.384 . S
C2480 H2471 0.929 . S
C2480 C2472 1.378 . S
C2480 C2475 1.350 . S
C2481 H2468 0.929 . S
C2481 C2473 1.433 . S
C2481 N2483 1.384 . S
N2482 C2478 1.427 . S
N2482 C2479 1.384 . S
N2483 C2475 1.427 . S
N2483 C2481 1.384 . S
H2484 C2490 0.930 . S
H2485 C2494 0.930 . S
H2486 C2499 0.929 . S
H2487 C2497 0.929 . S
H2488 C2492 0.929 . S
H2489 C2498 0.929 . S
C2490 H2484 0.930 . S
C2490 C2491 1.367 . S
C2490 C2498 1.378 . S
C2491 C2490 1.367 . S
C2491 C2499 1.433 . S
C2492 H2488 0.929 . S
C2492 C2494 1.378 . S
C2492 C2496 1.350 . S
C2493 C2496 1.463 . S
C2493 C2498 1.350 . S
C2493 N2501 1.427 . S
C2494 H2485 0.930 . S
C2494 C2492 1.378 . S
C2494 C2495 1.367 . S
C2495 C2494 1.367 . S
C2495 C2497 1.433 . S
C2496 C2492 1.350 . S
C2496 C2493 1.463 . S
C2496 N2500 1.427 . S
C2497 H2487 0.929 . S
C2497 C2495 1.433 . S
C2497 N2500 1.384 . S
C2498 H2489 0.929 . S
C2498 C2490 1.378 . S
C2498 C2493 1.350 . S
C2499 H2486 0.929 . S
C2499 C2491 1.433 . S
C2499 N2501 1.384 . S
N2500 C2496 1.427 . S
N2500 C2497 1.384 . S
N2501 C2493 1.427 . S
N2501 C2499 1.384 . S
H2502 C2508 0.930 . S
H2503 C2512 0.930 . S
H2504 C2517 0.929 . S
H2505 C2515 0.929 . S
H2506 C2510 0.929 . S
H2507 C2516 0.929 . S
C2508 H2502 0.930 . S
C2508 C2509 1.367 . S
C2508 C2516 1.378 . S
C2509 C2508 1.367 . S
C2509 C2517 1.433 . S
C2510 H2506 0.929 . S
C2510 C2512 1.378 . S
C2510 C2514 1.350 . S
C2511 C2514 1.463 . S
C2511 C2516 1.350 . S
C2511 N2519 1.427 . S
C2512 H2503 0.930 . S
C2512 C2510 1.378 . S
C2512 C2513 1.367 . S
C2513 C2512 1.367 . S
C2513 C2515 1.433 . S
C2514 C2510 1.350 . S
C2514 C2511 1.463 . S
C2514 N2518 1.427 . S
C2515 H2505 0.929 . S
C2515 C2513 1.433 . S
C2515 N2518 1.384 . S
C2516 H2507 0.929 . S
C2516 C2508 1.378 . S
C2516 C2511 1.350 . S
C2517 H2504 0.929 . S
C2517 C2509 1.433 . S
C2517 N2519 1.384 . S
N2518 C2514 1.427 . S
N2518 C2515 1.384 . S
N2519 C2511 1.427 . S
N2519 C2517 1.384 . S
H2520 C2526 0.930 . S
H2521 C2530 0.930 . S
H2522 C2535 0.929 . S
H2523 C2533 0.929 . S
H2524 C2528 0.929 . S
H2525 C2534 0.929 . S
C2526 H2520 0.930 . S
C2526 C2527 1.367 . S
C2526 C2534 1.378 . S
C2527 C2526 1.367 . S
C2527 C2535 1.433 . S
C2528 H2524 0.929 . S
C2528 C2530 1.378 . S
C2528 C2532 1.350 . S
C2529 C2532 1.463 . S
C2529 C2534 1.350 . S
C2529 N2537 1.427 . S
C2530 H2521 0.930 . S
C2530 C2528 1.378 . S
C2530 C2531 1.367 . S
C2531 C2530 1.367 . S
C2531 C2533 1.433 . S
C2532 C2528 1.350 . S
C2532 C2529 1.463 . S
C2532 N2536 1.427 . S
C2533 H2523 0.929 . S
C2533 C2531 1.433 . S
C2533 N2536 1.384 . S
C2534 H2525 0.929 . S
C2534 C2526 1.378 . S
C2534 C2529 1.350 . S
C2535 H2522 0.929 . S
C2535 C2527 1.433 . S
C2535 N2537 1.384 . S
N2536 C2532 1.427 . S
N2536 C2533 1.384 . S
N2537 C2529 1.427 . S
N2537 C2535 1.384 . S
H2538 C2544 0.930 . S
H2539 C2548 0.930 . S
H2540 C2553 0.929 . S
H2541 C2551 0.929 . S
H2542 C2546 0.929 . S
H2543 C2552 0.929 . S
C2544 H2538 0.930 . S
C2544 C2545 1.367 . S
C2544 C2552 1.378 . S
C2545 C2544 1.367 . S
C2545 C2553 1.433 . S
C2546 H2542 0.929 . S
C2546 C2548 1.378 . S
C2546 C2550 1.350 . S
C2547 C2550 1.463 . S
C2547 C2552 1.350 . S
C2547 N2555 1.427 . S
C2548 H2539 0.930 . S
C2548 C2546 1.378 . S
C2548 C2549 1.367 . S
C2549 C2548 1.367 . S
C2549 C2551 1.433 . S
C2550 C2546 1.350 . S
C2550 C2547 1.463 . S
C2550 N2554 1.427 . S
C2551 H2541 0.929 . S
C2551 C2549 1.433 . S
C2551 N2554 1.384 . S
C2552 H2543 0.929 . S
C2552 C2544 1.378 . S
C2552 C2547 1.350 . S
C2553 H2540 0.929 . S
C2553 C2545 1.433 . S
C2553 N2555 1.384 . S
N2554 C2550 1.427 . S
N2554 C2551 1.384 . S
N2555 C2547 1.427 . S
N2555 C2553 1.384 . S
H2556 C2562 0.930 . S
H2557 C2566 0.930 . S
H2558 C2571 0.929 . S
H2559 C2569 0.929 . S
H2560 C2564 0.929 . S
H2561 C2570 0.929 . S
C2562 H2556 0.930 . S
C2562 C2563 1.367 1_554 S
C2562 C2570 1.378 . S
C2563 C2562 1.367 1_556 S
C2563 C2571 1.433 . S
C2564 H2560 0.929 . S
C2564 C2566 1.378 . S
C2564 C2568 1.350 . S
C2565 C2568 1.463 . S
C2565 C2570 1.350 1_556 S
C2565 N2573 1.427 . S
C2566 H2557 0.930 . S
C2566 C2564 1.378 . S
C2566 C2567 1.367 1_556 S
C2567 C2566 1.367 1_554 S
C2567 C2569 1.433 . S
C2568 C2564 1.350 . S
C2568 C2565 1.463 . S
C2568 N2572 1.427 1_556 S
C2569 H2559 0.929 . S
C2569 C2567 1.433 . S
C2569 N2572 1.384 . S
C2570 H2561 0.929 . S
C2570 C2562 1.378 . S
C2570 C2565 1.350 1_554 S
C2571 H2558 0.929 . S
C2571 C2563 1.433 . S
C2571 N2573 1.384 . S
N2572 C2568 1.427 1_554 S
N2572 C2569 1.384 . S
N2573 C2565 1.427 . S
N2573 C2571 1.384 . S
H2574 C2580 0.930 . S
H2575 C2584 0.930 . S
H2576 C2589 0.929 . S
H2577 C2587 0.929 . S
H2578 C2582 0.929 . S
H2579 C2588 0.929 1_655 S
C2580 H2574 0.930 . S
C2580 C2581 1.367 . S
C2580 C2588 1.378 . S
C2581 C2580 1.367 . S
C2581 C2589 1.433 . S
C2582 H2578 0.929 . S
C2582 C2584 1.378 . S
C2582 C2586 1.350 . S
C2583 C2586 1.463 . S
C2583 C2588 1.350 1_655 S
C2583 N2591 1.427 1_655 S
C2584 H2575 0.930 . S
C2584 C2582 1.378 . S
C2584 C2585 1.367 . S
C2585 C2584 1.367 . S
C2585 C2587 1.433 . S
C2586 C2582 1.350 . S
C2586 C2583 1.463 . S
C2586 N2590 1.427 . S
C2587 H2577 0.929 . S
C2587 C2585 1.433 . S
C2587 N2590 1.384 . S
C2588 H2579 0.929 1_455 S
C2588 C2580 1.378 . S
C2588 C2583 1.350 1_455 S
C2589 H2576 0.929 . S
C2589 C2581 1.433 . S
C2589 N2591 1.384 . S
N2590 C2586 1.427 . S
N2590 C2587 1.384 . S
N2591 C2583 1.427 1_455 S
N2591 C2589 1.384 . S
H2592 C2598 0.930 . S
H2593 C2602 0.930 . S
H2594 C2607 0.929 . S
H2595 C2605 0.929 . S
H2596 C2600 0.929 . S
H2597 C2606 0.929 . S
C2598 H2592 0.930 . S
C2598 C2599 1.367 . S
C2598 C2606 1.378 . S
C2599 C2598 1.367 . S
C2599 C2607 1.433 . S
C2600 H2596 0.929 . S
C2600 C2602 1.378 . S
C2600 C2604 1.350 . S
C2601 C2604 1.463 . S
C2601 C2606 1.350 . S
C2601 N2609 1.427 . S
C2602 H2593 0.930 . S
C2602 C2600 1.378 . S
C2602 C2603 1.367 . S
C2603 C2602 1.367 . S
C2603 C2605 1.433 . S
C2604 C2600 1.350 . S
C2604 C2601 1.463 . S
C2604 N2608 1.427 . S
C2605 H2595 0.929 . S
C2605 C2603 1.433 . S
C2605 N2608 1.384 . S
C2606 H2597 0.929 . S
C2606 C2598 1.378 . S
C2606 C2601 1.350 . S
C2607 H2594 0.929 . S
C2607 C2599 1.433 . S
C2607 N2609 1.384 . S
N2608 C2604 1.427 . S
N2608 C2605 1.384 . S
N2609 C2601 1.427 . S
N2609 C2607 1.384 . S
H2610 C2616 0.930 . S
H2611 C2620 0.930 . S
H2612 C2625 0.929 . S
H2613 C2623 0.929 . S
H2614 C2618 0.929 . S
H2615 C2624 0.929 . S
C2616 H2610 0.930 . S
C2616 C2617 1.367 . S
C2616 C2624 1.378 . S
C2617 C2616 1.367 . S
C2617 C2625 1.433 . S
C2618 H2614 0.929 . S
C2618 C2620 1.378 . S
C2618 C2622 1.350 . S
C2619 C2622 1.463 1_455 S
C2619 C2624 1.350 . S
C2619 N2627 1.427 . S
C2620 H2611 0.930 . S
C2620 C2618 1.378 . S
C2620 C2621 1.367 . S
C2621 C2620 1.367 . S
C2621 C2623 1.433 . S
C2622 C2618 1.350 . S
C2622 C2619 1.463 1_655 S
C2622 N2626 1.427 . S
C2623 H2613 0.929 . S
C2623 C2621 1.433 . S
C2623 N2626 1.384 . S
C2624 H2615 0.929 . S
C2624 C2616 1.378 . S
C2624 C2619 1.350 . S
C2625 H2612 0.929 . S
C2625 C2617 1.433 . S
C2625 N2627 1.384 . S
N2626 C2622 1.427 . S
N2626 C2623 1.384 . S
N2627 C2619 1.427 . S
N2627 C2625 1.384 . S
H2628 C2634 0.930 . S
H2629 C2638 0.930 . S
H2630 C2643 0.929 . S
H2631 C2641 0.929 . S
H2632 C2636 0.929 . S
H2633 C2642 0.929 . S
C2634 H2628 0.930 . S
C2634 C2635 1.367 . S
C2634 C2642 1.378 . S
C2635 C2634 1.367 . S
C2635 C2643 1.433 1_655 S
C2636 H2632 0.929 . S
C2636 C2638 1.378 . S
C2636 C2640 1.350 . S
C2637 C2640 1.463 . S
C2637 C2642 1.350 1_455 S
C2637 N2645 1.427 . S
C2638 H2629 0.930 . S
C2638 C2636 1.378 . S
C2638 C2639 1.367 . S
C2639 C2638 1.367 . S
C2639 C2641 1.433 . S
C2640 C2636 1.350 . S
C2640 C2637 1.463 . S
C2640 N2644 1.427 . S
C2641 H2631 0.929 . S
C2641 C2639 1.433 . S
C2641 N2644 1.384 . S
C2642 H2633 0.929 . S
C2642 C2634 1.378 . S
C2642 C2637 1.350 1_655 S
C2643 H2630 0.929 . S
C2643 C2635 1.433 1_455 S
C2643 N2645 1.384 . S
N2644 C2640 1.427 . S
N2644 C2641 1.384 . S
N2645 C2637 1.427 . S
N2645 C2643 1.384 . S
H2646 C2652 0.930 . S
H2647 C2656 0.930 . S
H2648 C2661 0.929 . S
H2649 C2659 0.929 . S
H2650 C2654 0.929 . S
H2651 C2660 0.929 . S
C2652 H2646 0.930 . S
C2652 C2653 1.367 . S
C2652 C2660 1.378 . S
C2653 C2652 1.367 . S
C2653 C2661 1.433 . S
C2654 H2650 0.929 . S
C2654 C2656 1.378 . S
C2654 C2658 1.350 . S
C2655 C2658 1.463 . S
C2655 C2660 1.350 . S
C2655 N2663 1.427 . S
C2656 H2647 0.930 . S
C2656 C2654 1.378 . S
C2656 C2657 1.367 . S
C2657 C2656 1.367 . S
C2657 C2659 1.433 . S
C2658 C2654 1.350 . S
C2658 C2655 1.463 . S
C2658 N2662 1.427 . S
C2659 H2649 0.929 . S
C2659 C2657 1.433 . S
C2659 N2662 1.384 . S
C2660 H2651 0.929 . S
C2660 C2652 1.378 . S
C2660 C2655 1.350 . S
C2661 H2648 0.929 . S
C2661 C2653 1.433 . S
C2661 N2663 1.384 . S
N2662 C2658 1.427 . S
N2662 C2659 1.384 . S
N2663 C2655 1.427 . S
N2663 C2661 1.384 . S
H2664 C2670 0.930 . S
H2665 C2674 0.930 . S
H2666 C2679 0.929 . S
H2667 C2677 0.929 . S
H2668 C2672 0.929 . S
H2669 C2678 0.929 . S
C2670 H2664 0.930 . S
C2670 C2671 1.367 . S
C2670 C2678 1.378 . S
C2671 C2670 1.367 . S
C2671 C2679 1.433 . S
C2672 H2668 0.929 . S
C2672 C2674 1.378 . S
C2672 C2676 1.350 . S
C2673 C2676 1.463 . S
C2673 C2678 1.350 . S
C2673 N2681 1.427 . S
C2674 H2665 0.930 . S
C2674 C2672 1.378 . S
C2674 C2675 1.367 . S
C2675 C2674 1.367 . S
C2675 C2677 1.433 . S
C2676 C2672 1.350 . S
C2676 C2673 1.463 . S
C2676 N2680 1.427 . S
C2677 H2667 0.929 . S
C2677 C2675 1.433 . S
C2677 N2680 1.384 . S
C2678 H2669 0.929 . S
C2678 C2670 1.378 . S
C2678 C2673 1.350 . S
C2679 H2666 0.929 . S
C2679 C2671 1.433 . S
C2679 N2681 1.384 . S
N2680 C2676 1.427 . S
N2680 C2677 1.384 . S
N2681 C2673 1.427 . S
N2681 C2679 1.384 . S
H2682 C2688 0.960 . S
H2683 C2692 0.930 . S
H2684 C2697 0.929 . S
H2685 C2695 0.929 . S
H2686 C2690 0.929 . S
H2687 C2696 0.929 . S
C2688 H2682 0.960 . S
C2688 C2689 1.367 . S
C2688 C2696 1.378 . S
C2689 C2688 1.367 . S
C2689 C2697 1.433 . S
C2690 H2686 0.929 . S
C2690 C2692 1.378 . S
C2690 C2694 1.350 . S
C2691 C2694 1.463 . S
C2691 C2696 1.350 . S
C2691 N2699 1.427 . S
C2692 H2683 0.930 . S
C2692 C2690 1.378 . S
C2692 C2693 1.367 . S
C2693 C2692 1.367 . S
C2693 C2695 1.433 . S
C2694 C2690 1.350 . S
C2694 C2691 1.463 . S
C2694 N2698 1.427 . S
C2695 H2685 0.929 . S
C2695 C2693 1.433 . S
C2695 N2698 1.384 . S
C2696 H2687 0.929 . S
C2696 C2688 1.378 . S
C2696 C2691 1.350 . S
C2697 H2684 0.929 . S
C2697 C2689 1.433 . S
C2697 N2699 1.384 . S
N2698 C2694 1.427 . S
N2698 C2695 1.384 . S
N2699 C2691 1.427 . S
N2699 C2697 1.384 . S
H2700 C2706 0.930 . S
H2701 C2710 0.930 . S
H2702 C2715 0.929 . S
H2703 C2713 0.929 . S
H2704 C2708 0.929 . S
H2705 C2714 0.929 . S
C2706 H2700 0.930 . S
C2706 C2707 1.367 . S
C2706 C2714 1.378 . S
C2707 C2706 1.367 . S
C2707 C2715 1.433 . S
C2708 H2704 0.929 . S
C2708 C2710 1.378 . S
C2708 C2712 1.350 . S
C2709 C2712 1.463 . S
C2709 C2714 1.350 . S
C2709 N2717 1.427 . S
C2710 H2701 0.930 . S
C2710 C2708 1.378 . S
C2710 C2711 1.367 . S
C2711 C2710 1.367 . S
C2711 C2713 1.433 . S
C2712 C2708 1.350 . S
C2712 C2709 1.463 . S
C2712 N2716 1.427 . S
C2713 H2703 0.929 . S
C2713 C2711 1.433 . S
C2713 N2716 1.384 . S
C2714 H2705 0.929 . S
C2714 C2706 1.378 . S
C2714 C2709 1.350 . S
C2715 H2702 0.929 . S
C2715 C2707 1.433 . S
C2715 N2717 1.384 . S
N2716 C2712 1.427 . S
N2716 C2713 1.384 . S
N2717 C2709 1.427 . S
N2717 C2715 1.384 . S
H2718 C2724 0.930 . S
H2719 C2728 0.930 . S
H2720 C2733 0.929 . S
H2721 C2731 0.929 . S
H2722 C2726 0.929 . S
H2723 C2732 0.929 . S
C2724 H2718 0.930 . S
C2724 C2725 1.367 . S
C2724 C2732 1.378 . S
C2725 C2724 1.367 . S
C2725 C2733 1.433 . S
C2726 H2722 0.929 . S
C2726 C2728 1.378 . S
C2726 C2730 1.350 . S
C2727 C2730 1.463 . S
C2727 C2732 1.350 . S
C2727 N2735 1.427 . S
C2728 H2719 0.930 . S
C2728 C2726 1.378 . S
C2728 C2729 1.367 . S
C2729 C2728 1.367 . S
C2729 C2731 1.433 . S
C2730 C2726 1.350 . S
C2730 C2727 1.463 . S
C2730 N2734 1.427 . S
C2731 H2721 0.929 . S
C2731 C2729 1.433 . S
C2731 N2734 1.384 . S
C2732 H2723 0.929 . S
C2732 C2724 1.378 . S
C2732 C2727 1.350 . S
C2733 H2720 0.929 . S
C2733 C2725 1.433 . S
C2733 N2735 1.384 . S
N2734 C2730 1.427 . S
N2734 C2731 1.384 . S
N2735 C2727 1.427 . S
N2735 C2733 1.384 . S
H2736 C2742 0.930 . S
H2737 C2746 0.930 . S
H2738 C2751 0.929 . S
H2739 C2749 0.929 . S
H2740 C2744 0.929 . S
H2741 C2750 0.929 . S
C2742 H2736 0.930 . S
C2742 C2743 1.367 . S
C2742 C2750 1.378 . S
C2743 C2742 1.367 . S
C2743 C2751 1.433 . S
C2744 H2740 0.929 . S
C2744 C2746 1.378 . S
C2744 C2748 1.350 . S
C2745 C2748 1.463 . S
C2745 C2750 1.350 . S
C2745 N2753 1.427 . S
C2746 H2737 0.930 . S
C2746 C2744 1.378 . S
C2746 C2747 1.367 . S
C2747 C2746 1.367 . S
C2747 C2749 1.433 . S
C2748 C2744 1.350 . S
C2748 C2745 1.463 . S
C2748 N2752 1.427 . S
C2749 H2739 0.929 . S
C2749 C2747 1.433 . S
C2749 N2752 1.384 . S
C2750 H2741 0.929 . S
C2750 C2742 1.378 . S
C2750 C2745 1.350 . S
C2751 H2738 0.929 . S
C2751 C2743 1.433 . S
C2751 N2753 1.384 . S
N2752 C2748 1.427 . S
N2752 C2749 1.384 . S
N2753 C2745 1.427 . S
N2753 C2751 1.384 . S
H2754 C2760 0.930 . S
H2755 C2764 0.930 . S
H2756 C2769 0.929 . S
H2757 C2767 0.929 . S
H2758 C2762 0.929 . S
H2759 C2768 0.929 . S
C2760 H2754 0.930 . S
C2760 C2761 1.367 . S
C2760 C2768 1.378 . S
C2761 C2760 1.367 . S
C2761 C2769 1.433 . S
C2762 H2758 0.929 . S
C2762 C2764 1.378 . S
C2762 C2766 1.350 . S
C2763 C2766 1.463 . S
C2763 C2768 1.350 . S
C2763 N2771 1.427 . S
C2764 H2755 0.930 . S
C2764 C2762 1.378 . S
C2764 C2765 1.367 . S
C2765 C2764 1.367 . S
C2765 C2767 1.433 . S
C2766 C2762 1.350 . S
C2766 C2763 1.463 . S
C2766 N2770 1.427 . S
C2767 H2757 0.929 . S
C2767 C2765 1.433 . S
C2767 N2770 1.384 . S
C2768 H2759 0.929 . S
C2768 C2760 1.378 . S
C2768 C2763 1.350 . S
C2769 H2756 0.929 . S
C2769 C2761 1.433 . S
C2769 N2771 1.384 . S
N2770 C2766 1.427 . S
N2770 C2767 1.384 . S
N2771 C2763 1.427 . S
N2771 C2769 1.384 . S
H2772 C2778 0.930 . S
H2773 C2782 0.930 . S
H2774 C2787 0.929 . S
H2775 C2785 0.929 . S
H2776 C2780 0.929 . S
H2777 C2786 0.929 . S
C2778 H2772 0.930 . S
C2778 C2779 1.367 . S
C2778 C2786 1.378 . S
C2779 C2778 1.367 . S
C2779 C2787 1.433 . S
C2780 H2776 0.929 . S
C2780 C2782 1.378 . S
C2780 C2784 1.350 . S
C2781 C2784 1.463 . S
C2781 C2786 1.350 . S
C2781 N2789 1.427 . S
C2782 H2773 0.930 . S
C2782 C2780 1.378 . S
C2782 C2783 1.367 . S
C2783 C2782 1.367 . S
C2783 C2785 1.433 . S
C2784 C2780 1.350 . S
C2784 C2781 1.463 . S
C2784 N2788 1.427 . S
C2785 H2775 0.929 . S
C2785 C2783 1.433 . S
C2785 N2788 1.384 . S
C2786 H2777 0.929 . S
C2786 C2778 1.378 . S
C2786 C2781 1.350 . S
C2787 H2774 0.929 . S
C2787 C2779 1.433 . S
C2787 N2789 1.384 . S
N2788 C2784 1.427 . S
N2788 C2785 1.384 . S
N2789 C2781 1.427 . S
N2789 C2787 1.384 . S
H2790 C2796 0.930 . S
H2791 C2800 0.930 . S
H2792 C2805 0.929 . S
H2793 C2803 0.929 . S
H2794 C2798 0.929 . S
H2795 C2804 0.929 . S
C2796 H2790 0.930 . S
C2796 C2797 1.367 . S
C2796 C2804 1.378 . S
C2797 C2796 1.367 . S
C2797 C2805 1.433 . S
C2798 H2794 0.929 . S
C2798 C2800 1.378 . S
C2798 C2802 1.350 . S
C2799 C2802 1.463 . S
C2799 C2804 1.350 . S
C2799 N2807 1.427 . S
C2800 H2791 0.930 . S
C2800 C2798 1.378 . S
C2800 C2801 1.367 . S
C2801 C2800 1.367 . S
C2801 C2803 1.433 . S
C2802 C2798 1.350 . S
C2802 C2799 1.463 . S
C2802 N2806 1.427 . S
C2803 H2793 0.929 . S
C2803 C2801 1.433 . S
C2803 N2806 1.384 . S
C2804 H2795 0.929 . S
C2804 C2796 1.378 . S
C2804 C2799 1.350 . S
C2805 H2792 0.929 . S
C2805 C2797 1.433 . S
C2805 N2807 1.384 . S
N2806 C2802 1.427 . S
N2806 C2803 1.384 . S
N2807 C2799 1.427 . S
N2807 C2805 1.384 . S
H2808 C2814 0.930 . S
H2809 C2818 0.930 . S
H2810 C2823 0.929 . S
H2811 C2821 0.929 . S
H2812 C2816 0.929 . S
H2813 C2822 0.929 . S
C2814 H2808 0.930 . S
C2814 C2815 1.367 . S
C2814 C2822 1.378 . S
C2815 C2814 1.367 . S
C2815 C2823 1.433 . S
C2816 H2812 0.929 . S
C2816 C2818 1.378 . S
C2816 C2820 1.350 . S
C2817 C2820 1.463 . S
C2817 C2822 1.350 . S
C2817 N2825 1.427 . S
C2818 H2809 0.930 . S
C2818 C2816 1.378 . S
C2818 C2819 1.367 . S
C2819 C2818 1.367 . S
C2819 C2821 1.433 . S
C2820 C2816 1.350 . S
C2820 C2817 1.463 . S
C2820 N2824 1.427 . S
C2821 H2811 0.929 . S
C2821 C2819 1.433 . S
C2821 N2824 1.384 . S
C2822 H2813 0.929 . S
C2822 C2814 1.378 . S
C2822 C2817 1.350 . S
C2823 H2810 0.929 . S
C2823 C2815 1.433 . S
C2823 N2825 1.384 . S
N2824 C2820 1.427 . S
N2824 C2821 1.384 . S
N2825 C2817 1.427 . S
N2825 C2823 1.384 . S
H2826 C2832 0.930 . S
H2827 C2836 0.930 . S
H2828 C2841 0.929 . S
H2829 C2839 0.929 . S
H2830 C2834 0.929 . S
H2831 C2840 0.929 . S
C2832 H2826 0.930 . S
C2832 C2833 1.367 . S
C2832 C2840 1.378 . S
C2833 C2832 1.367 . S
C2833 C2841 1.433 . S
C2834 H2830 0.929 . S
C2834 C2836 1.378 . S
C2834 C2838 1.350 . S
C2835 C2838 1.463 . S
C2835 C2840 1.350 . S
C2835 N2843 1.427 . S
C2836 H2827 0.930 . S
C2836 C2834 1.378 . S
C2836 C2837 1.367 . S
C2837 C2836 1.367 . S
C2837 C2839 1.433 . S
C2838 C2834 1.350 . S
C2838 C2835 1.463 . S
C2838 N2842 1.427 . S
C2839 H2829 0.929 . S
C2839 C2837 1.433 . S
C2839 N2842 1.384 . S
C2840 H2831 0.929 . S
C2840 C2832 1.378 . S
C2840 C2835 1.350 . S
C2841 H2828 0.929 . S
C2841 C2833 1.433 . S
C2841 N2843 1.384 . S
N2842 C2838 1.427 . S
N2842 C2839 1.384 . S
N2843 C2835 1.427 . S
N2843 C2841 1.384 . S
H2844 C2850 0.930 . S
H2845 C2854 0.930 . S
H2846 C2859 0.929 . S
H2847 C2857 0.929 . S
H2848 C2852 0.929 . S
H2849 C2858 0.929 . S
C2850 H2844 0.930 . S
C2850 C2851 1.367 . S
C2850 C2858 1.378 . S
C2851 C2850 1.367 . S
C2851 C2859 1.433 . S
C2852 H2848 0.929 . S
C2852 C2854 1.378 . S
C2852 C2856 1.350 . S
C2853 C2856 1.463 . S
C2853 C2858 1.350 . S
C2853 N2861 1.427 . S
C2854 H2845 0.930 . S
C2854 C2852 1.378 . S
C2854 C2855 1.367 . S
C2855 C2854 1.367 . S
C2855 C2857 1.433 . S
C2856 C2852 1.350 . S
C2856 C2853 1.463 . S
C2856 N2860 1.427 . S
C2857 H2847 0.929 . S
C2857 C2855 1.433 . S
C2857 N2860 1.384 . S
C2858 H2849 0.929 . S
C2858 C2850 1.378 . S
C2858 C2853 1.350 . S
C2859 H2846 0.929 . S
C2859 C2851 1.433 . S
C2859 N2861 1.384 . S
N2860 C2856 1.427 . S
N2860 C2857 1.384 . S
N2861 C2853 1.427 . S
N2861 C2859 1.384 . S
H2862 C2868 0.930 . S
H2863 C2872 0.930 . S
H2864 C2877 0.929 1_545 S
H2865 C2875 0.929 . S
H2866 C2870 0.929 . S
H2867 C2876 0.929 . S
C2868 H2862 0.930 . S
C2868 C2869 1.367 . S
C2868 C2876 1.378 . S
C2869 C2868 1.367 . S
C2869 C2877 1.433 . S
C2870 H2866 0.929 . S
C2870 C2872 1.378 . S
C2870 C2874 1.350 1_545 S
C2871 C2874 1.463 . S
C2871 C2876 1.350 . S
C2871 N2879 1.427 1_565 S
C2872 H2863 0.930 . S
C2872 C2870 1.378 . S
C2872 C2873 1.367 . S
C2873 C2872 1.367 . S
C2873 C2875 1.433 1_545 S
C2874 C2870 1.350 1_565 S
C2874 C2871 1.463 . S
C2874 N2878 1.427 . S
C2875 H2865 0.929 . S
C2875 C2873 1.433 1_565 S
C2875 N2878 1.384 . S
C2876 H2867 0.929 . S
C2876 C2868 1.378 . S
C2876 C2871 1.350 . S
C2877 H2864 0.929 1_565 S
C2877 C2869 1.433 . S
C2877 N2879 1.384 1_565 S
N2878 C2874 1.427 . S
N2878 C2875 1.384 . S
N2879 C2871 1.427 1_545 S
N2879 C2877 1.384 1_545 S
H2880 C2886 0.930 . S
H2881 C2890 0.930 . S
H2882 C2895 0.929 . S
H2883 C2893 0.929 . S
H2884 C2888 0.929 . S
H2885 C2894 0.929 . S
C2886 H2880 0.930 . S
C2886 C2887 1.367 . S
C2886 C2894 1.378 . S
C2887 C2886 1.367 . S
C2887 C2895 1.433 . S
C2888 H2884 0.929 . S
C2888 C2890 1.378 . S
C2888 C2892 1.350 . S
C2889 C2892 1.463 . S
C2889 C2894 1.350 . S
C2889 N2897 1.427 . S
C2890 H2881 0.930 . S
C2890 C2888 1.378 . S
C2890 C2891 1.367 . S
C2891 C2890 1.367 . S
C2891 C2893 1.433 . S
C2892 C2888 1.350 . S
C2892 C2889 1.463 . S
C2892 N2896 1.427 . S
C2893 H2883 0.929 . S
C2893 C2891 1.433 . S
C2893 N2896 1.384 . S
C2894 H2885 0.929 . S
C2894 C2886 1.378 . S
C2894 C2889 1.350 . S
C2895 H2882 0.929 . S
C2895 C2887 1.433 . S
C2895 N2897 1.384 . S
N2896 C2892 1.427 . S
N2896 C2893 1.384 . S
N2897 C2889 1.427 . S
N2897 C2895 1.384 . S
H2898 C2904 0.930 . S
H2899 C2908 0.930 . S
H2900 C2913 0.929 . S
H2901 C2911 0.929 1_556 S
H2902 C2906 0.929 . S
H2903 C2912 0.929 . S
C2904 H2898 0.930 . S
C2904 C2905 1.367 . S
C2904 C2912 1.378 . S
C2905 C2904 1.367 . S
C2905 C2913 1.433 1_556 S
C2906 H2902 0.929 . S
C2906 C2908 1.378 . S
C2906 C2910 1.350 . S
C2907 C2910 1.463 . S
C2907 C2912 1.350 1_554 S
C2907 N2915 1.427 . S
C2908 H2899 0.930 . S
C2908 C2906 1.378 . S
C2908 C2909 1.367 . S
C2909 C2908 1.367 . S
C2909 C2911 1.433 . S
C2910 C2906 1.350 . S
C2910 C2907 1.463 . S
C2910 N2914 1.427 1_554 S
C2911 H2901 0.929 1_554 S
C2911 C2909 1.433 . S
C2911 N2914 1.384 1_554 S
C2912 H2903 0.929 . S
C2912 C2904 1.378 . S
C2912 C2907 1.350 1_556 S
C2913 H2900 0.929 . S
C2913 C2905 1.433 1_554 S
C2913 N2915 1.384 . S
N2914 C2910 1.427 1_556 S
N2914 C2911 1.384 1_556 S
N2915 C2907 1.427 . S
N2915 C2913 1.384 . S
H2916 C2922 0.930 . S
H2917 C2926 0.930 . S
H2918 C2931 0.929 . S
H2919 C2929 0.929 . S
H2920 C2924 0.929 . S
H2921 C2930 0.929 . S
C2922 H2916 0.930 . S
C2922 C2923 1.367 . S
C2922 C2930 1.378 . S
C2923 C2922 1.367 . S
C2923 C2931 1.433 . S
C2924 H2920 0.929 . S
C2924 C2926 1.378 . S
C2924 C2928 1.350 . S
C2925 C2928 1.463 . S
C2925 C2930 1.350 . S
C2925 N2933 1.427 . S
C2926 H2917 0.930 . S
C2926 C2924 1.378 . S
C2926 C2927 1.367 . S
C2927 C2926 1.367 . S
C2927 C2929 1.433 . S
C2928 C2924 1.350 . S
C2928 C2925 1.463 . S
C2928 N2932 1.427 . S
C2929 H2919 0.929 . S
C2929 C2927 1.433 . S
C2929 N2932 1.384 . S
C2930 H2921 0.929 . S
C2930 C2922 1.378 . S
C2930 C2925 1.350 . S
C2931 H2918 0.929 . S
C2931 C2923 1.433 . S
C2931 N2933 1.384 . S
N2932 C2928 1.427 . S
N2932 C2929 1.384 . S
N2933 C2925 1.427 . S
N2933 C2931 1.384 . S
H2934 C2940 0.930 . S
H2935 C2944 0.930 . S
H2936 C2949 0.929 . S
H2937 C2947 0.929 . S
H2938 C2942 0.929 . S
H2939 C2948 0.929 . S
C2940 H2934 0.930 . S
C2940 C2941 1.367 . S
C2940 C2948 1.378 . S
C2941 C2940 1.367 . S
C2941 C2949 1.433 . S
C2942 H2938 0.929 . S
C2942 C2944 1.378 . S
C2942 C2946 1.350 . S
C2943 C2946 1.463 . S
C2943 C2948 1.350 . S
C2943 N2951 1.427 . S
C2944 H2935 0.930 . S
C2944 C2942 1.378 . S
C2944 C2945 1.367 . S
C2945 C2944 1.367 . S
C2945 C2947 1.433 . S
C2946 C2942 1.350 . S
C2946 C2943 1.463 . S
C2946 N2950 1.427 . S
C2947 H2937 0.929 . S
C2947 C2945 1.433 . S
C2947 N2950 1.384 . S
C2948 H2939 0.929 . S
C2948 C2940 1.378 . S
C2948 C2943 1.350 . S
C2949 H2936 0.929 . S
C2949 C2941 1.433 . S
C2949 N2951 1.384 . S
N2950 C2946 1.427 . S
N2950 C2947 1.384 . S
N2951 C2943 1.427 . S
N2951 C2949 1.384 . S
H2952 C2958 0.930 . S
H2953 C2962 0.930 . S
H2954 C2967 0.929 . S
H2955 C2965 0.929 . S
H2956 C2960 0.929 . S
H2957 C2966 0.929 . S
C2958 H2952 0.930 . S
C2958 C2959 1.367 . S
C2958 C2966 1.378 . S
C2959 C2958 1.367 . S
C2959 C2967 1.433 . S
C2960 H2956 0.929 . S
C2960 C2962 1.378 . S
C2960 C2964 1.350 . S
C2961 C2964 1.463 . S
C2961 C2966 1.350 . S
C2961 N2969 1.427 . S
C2962 H2953 0.930 . S
C2962 C2960 1.378 . S
C2962 C2963 1.367 . S
C2963 C2962 1.367 . S
C2963 C2965 1.433 . S
C2964 C2960 1.350 . S
C2964 C2961 1.463 . S
C2964 N2968 1.427 . S
C2965 H2955 0.929 . S
C2965 C2963 1.433 . S
C2965 N2968 1.384 . S
C2966 H2957 0.929 . S
C2966 C2958 1.378 . S
C2966 C2961 1.350 . S
C2967 H2954 0.929 . S
C2967 C2959 1.433 . S
C2967 N2969 1.384 . S
N2968 C2964 1.427 . S
N2968 C2965 1.384 . S
N2969 C2961 1.427 . S
N2969 C2967 1.384 . S
H2970 C2976 0.930 . S
H2971 C2980 0.930 . S
H2972 C2985 0.929 . S
H2973 C2983 0.929 . S
H2974 C2978 0.929 . S
H2975 C2984 0.929 . S
C2976 H2970 0.930 . S
C2976 C2977 1.367 . S
C2976 C2984 1.378 . S
C2977 C2976 1.367 . S
C2977 C2985 1.433 . S
C2978 H2974 0.929 . S
C2978 C2980 1.378 . S
C2978 C2982 1.350 . S
C2979 C2982 1.463 . S
C2979 C2984 1.350 . S
C2979 N2987 1.427 . S
C2980 H2971 0.930 . S
C2980 C2978 1.378 . S
C2980 C2981 1.367 . S
C2981 C2980 1.367 . S
C2981 C2983 1.433 . S
C2982 C2978 1.350 . S
C2982 C2979 1.463 . S
C2982 N2986 1.427 . S
C2983 H2973 0.929 . S
C2983 C2981 1.433 . S
C2983 N2986 1.384 . S
C2984 H2975 0.929 . S
C2984 C2976 1.378 . S
C2984 C2979 1.350 . S
C2985 H2972 0.929 . S
C2985 C2977 1.433 . S
C2985 N2987 1.384 . S
N2986 C2982 1.427 . S
N2986 C2983 1.384 . S
N2987 C2979 1.427 . S
N2987 C2985 1.384 . S
H2988 C2994 0.930 . S
H2989 C2998 0.930 1_556 S
H2990 C3003 0.929 . S
H2991 C3001 0.929 . S
H2992 C2996 0.929 . S
H2993 C3002 0.929 . S
C2994 H2988 0.930 . S
C2994 C2995 1.367 . S
C2994 C3002 1.378 . S
C2995 C2994 1.367 . S
C2995 C3003 1.433 . S
C2996 H2992 0.929 . S
C2996 C2998 1.378 . S
C2996 C3000 1.350 . S
C2997 C3000 1.463 . S
C2997 C3002 1.350 . S
C2997 N3005 1.427 . S
C2998 H2989 0.930 1_554 S
C2998 C2996 1.378 . S
C2998 C2999 1.367 . S
C2999 C2998 1.367 . S
C2999 C3001 1.433 . S
C3000 C2996 1.350 . S
C3000 C2997 1.463 . S
C3000 N3004 1.427 . S
C3001 H2991 0.929 . S
C3001 C2999 1.433 . S
C3001 N3004 1.384 . S
C3002 H2993 0.929 . S
C3002 C2994 1.378 . S
C3002 C2997 1.350 . S
C3003 H2990 0.929 . S
C3003 C2995 1.433 . S
C3003 N3005 1.384 . S
N3004 C3000 1.427 . S
N3004 C3001 1.384 . S
N3005 C2997 1.427 . S
N3005 C3003 1.384 . S
H3006 C3012 0.930 . S
H3007 C3016 0.930 . S
H3008 C3021 0.929 . S
H3009 C3019 0.929 . S
H3010 C3014 0.929 . S
H3011 C3020 0.929 . S
C3012 H3006 0.930 . S
C3012 C3013 1.367 . S
C3012 C3020 1.378 . S
C3013 C3012 1.367 . S
C3013 C3021 1.433 . S
C3014 H3010 0.929 . S
C3014 C3016 1.378 . S
C3014 C3018 1.350 . S
C3015 C3018 1.463 . S
C3015 C3020 1.350 . S
C3015 N3023 1.427 . S
C3016 H3007 0.930 . S
C3016 C3014 1.378 . S
C3016 C3017 1.367 . S
C3017 C3016 1.367 . S
C3017 C3019 1.433 . S
C3018 C3014 1.350 . S
C3018 C3015 1.463 . S
C3018 N3022 1.427 . S
C3019 H3009 0.929 . S
C3019 C3017 1.433 . S
C3019 N3022 1.384 . S
C3020 H3011 0.929 . S
C3020 C3012 1.378 . S
C3020 C3015 1.350 . S
C3021 H3008 0.929 . S
C3021 C3013 1.433 . S
C3021 N3023 1.384 . S
N3022 C3018 1.427 . S
N3022 C3019 1.384 . S
N3023 C3015 1.427 . S
N3023 C3021 1.384 . S
H3024 C3030 0.930 . S
H3025 C3034 0.930 1_554 S
H3026 C3039 0.929 . S
H3027 C3037 0.929 . S
H3028 C3032 0.929 . S
H3029 C3038 0.929 . S
C3030 H3024 0.930 . S
C3030 C3031 1.367 . S
C3030 C3038 1.378 . S
C3031 C3030 1.367 . S
C3031 C3039 1.433 . S
C3032 H3028 0.929 . S
C3032 C3034 1.378 . S
C3032 C3036 1.350 . S
C3033 C3036 1.463 . S
C3033 C3038 1.350 . S
C3033 N3041 1.427 . S
C3034 H3025 0.930 1_556 S
C3034 C3032 1.378 . S
C3034 C3035 1.367 . S
C3035 C3034 1.367 . S
C3035 C3037 1.433 . S
C3036 C3032 1.350 . S
C3036 C3033 1.463 . S
C3036 N3040 1.427 . S
C3037 H3027 0.929 . S
C3037 C3035 1.433 . S
C3037 N3040 1.384 . S
C3038 H3029 0.929 . S
C3038 C3030 1.378 . S
C3038 C3033 1.350 . S
C3039 H3026 0.929 . S
C3039 C3031 1.433 . S
C3039 N3041 1.384 . S
N3040 C3036 1.427 . S
N3040 C3037 1.384 . S
N3041 C3033 1.427 . S
N3041 C3039 1.384 . S
H3042 C3048 0.930 . S
H3043 C3052 0.930 . S
H3044 C3057 0.929 . S
H3045 C3055 0.929 . S
H3046 C3050 0.929 . S
H3047 C3056 0.929 . S
C3048 H3042 0.930 . S
C3048 C3049 1.367 . S
C3048 C3056 1.378 . S
C3049 C3048 1.367 . S
C3049 C3057 1.433 . S
C3050 H3046 0.929 . S
C3050 C3052 1.378 . S
C3050 C3054 1.350 . S
C3051 C3054 1.463 . S
C3051 C3056 1.350 . S
C3051 N3059 1.427 . S
C3052 H3043 0.930 . S
C3052 C3050 1.378 . S
C3052 C3053 1.367 . S
C3053 C3052 1.367 . S
C3053 C3055 1.433 . S
C3054 C3050 1.350 . S
C3054 C3051 1.463 . S
C3054 N3058 1.427 . S
C3055 H3045 0.929 . S
C3055 C3053 1.433 . S
C3055 N3058 1.384 . S
C3056 H3047 0.929 . S
C3056 C3048 1.378 . S
C3056 C3051 1.350 . S
C3057 H3044 0.929 . S
C3057 C3049 1.433 . S
C3057 N3059 1.384 . S
N3058 C3054 1.427 . S
N3058 C3055 1.384 . S
N3059 C3051 1.427 . S
N3059 C3057 1.384 . S
H3060 C3066 0.930 . S
H3061 C3070 0.930 . S
H3062 C3075 0.929 . S
H3063 C3073 0.929 . S
H3064 C3068 0.929 . S
H3065 C3074 0.929 . S
C3066 H3060 0.930 . S
C3066 C3067 1.367 . S
C3066 C3074 1.378 . S
C3067 C3066 1.367 . S
C3067 C3075 1.433 . S
C3068 H3064 0.929 . S
C3068 C3070 1.378 . S
C3068 C3072 1.350 . S
C3069 C3072 1.463 . S
C3069 C3074 1.350 . S
C3069 N3077 1.427 . S
C3070 H3061 0.930 . S
C3070 C3068 1.378 . S
C3070 C3071 1.367 . S
C3071 C3070 1.367 . S
C3071 C3073 1.433 . S
C3072 C3068 1.350 . S
C3072 C3069 1.463 . S
C3072 N3076 1.427 . S
C3073 H3063 0.929 . S
C3073 C3071 1.433 . S
C3073 N3076 1.384 . S
C3074 H3065 0.929 . S
C3074 C3066 1.378 . S
C3074 C3069 1.350 . S
C3075 H3062 0.929 . S
C3075 C3067 1.433 . S
C3075 N3077 1.384 . S
N3076 C3072 1.427 . S
N3076 C3073 1.384 . S
N3077 C3069 1.427 . S
N3077 C3075 1.384 . S
H3078 C3084 0.930 . S
H3079 C3088 0.930 . S
H3080 C3093 0.929 . S
H3081 C3091 0.929 . S
H3082 C3086 0.929 . S
H3083 C3092 0.929 . S
C3084 H3078 0.930 . S
C3084 C3085 1.367 . S
C3084 C3092 1.378 . S
C3085 C3084 1.367 . S
C3085 C3093 1.433 . S
C3086 H3082 0.929 . S
C3086 C3088 1.378 . S
C3086 C3090 1.350 . S
C3087 C3090 1.463 . S
C3087 C3092 1.350 . S
C3087 N3095 1.427 . S
C3088 H3079 0.930 . S
C3088 C3086 1.378 . S
C3088 C3089 1.367 . S
C3089 C3088 1.367 . S
C3089 C3091 1.433 . S
C3090 C3086 1.350 . S
C3090 C3087 1.463 . S
C3090 N3094 1.427 . S
C3091 H3081 0.929 . S
C3091 C3089 1.433 . S
C3091 N3094 1.384 . S
C3092 H3083 0.929 . S
C3092 C3084 1.378 . S
C3092 C3087 1.350 . S
C3093 H3080 0.929 . S
C3093 C3085 1.433 . S
C3093 N3095 1.384 . S
N3094 C3090 1.427 . S
N3094 C3091 1.384 . S
N3095 C3087 1.427 . S
N3095 C3093 1.384 . S
H3096 C3102 0.930 . S
H3097 C3106 0.930 . S
H3098 C3111 0.929 . S
H3099 C3109 0.929 . S
H3100 C3104 0.929 . S
H3101 C3110 0.929 . S
C3102 H3096 0.930 . S
C3102 C3103 1.367 . S
C3102 C3110 1.378 . S
C3103 C3102 1.367 . S
C3103 C3111 1.433 . S
C3104 H3100 0.929 . S
C3104 C3106 1.378 . S
C3104 C3108 1.350 . S
C3105 C3108 1.463 . S
C3105 C3110 1.350 . S
C3105 N3113 1.427 . S
C3106 H3097 0.930 . S
C3106 C3104 1.378 . S
C3106 C3107 1.367 . S
C3107 C3106 1.367 . S
C3107 C3109 1.433 . S
C3108 C3104 1.350 . S
C3108 C3105 1.463 . S
C3108 N3112 1.427 . S
C3109 H3099 0.929 . S
C3109 C3107 1.433 . S
C3109 N3112 1.384 . S
C3110 H3101 0.929 . S
C3110 C3102 1.378 . S
C3110 C3105 1.350 . S
C3111 H3098 0.929 . S
C3111 C3103 1.433 . S
C3111 N3113 1.384 . S
N3112 C3108 1.427 . S
N3112 C3109 1.384 . S
N3113 C3105 1.427 . S
N3113 C3111 1.384 . S
H3114 C3120 0.930 . S
H3115 C3124 0.930 . S
H3116 C3129 0.929 . S
H3117 C3127 0.929 . S
H3118 C3122 0.929 . S
H3119 C3128 0.929 . S
C3120 H3114 0.930 . S
C3120 C3121 1.367 . S
C3120 C3128 1.378 . S
C3121 C3120 1.367 . S
C3121 C3129 1.433 . S
C3122 H3118 0.929 . S
C3122 C3124 1.378 . S
C3122 C3126 1.350 . S
C3123 C3126 1.463 . S
C3123 C3128 1.350 . S
C3123 N3131 1.427 . S
C3124 H3115 0.930 . S
C3124 C3122 1.378 . S
C3124 C3125 1.367 . S
C3125 C3124 1.367 . S
C3125 C3127 1.433 . S
C3126 C3122 1.350 . S
C3126 C3123 1.463 . S
C3126 N3130 1.427 . S
C3127 H3117 0.929 . S
C3127 C3125 1.433 . S
C3127 N3130 1.384 . S
C3128 H3119 0.929 . S
C3128 C3120 1.378 . S
C3128 C3123 1.350 . S
C3129 H3116 0.929 . S
C3129 C3121 1.433 . S
C3129 N3131 1.384 . S
N3130 C3126 1.427 . S
N3130 C3127 1.384 . S
N3131 C3123 1.427 . S
N3131 C3129 1.384 . S
H3132 C3138 0.930 . S
H3133 C3142 0.930 . S
H3134 C3147 0.929 . S
H3135 C3145 0.929 . S
H3136 C3140 0.929 1_655 S
H3137 C3146 0.929 . S
C3138 H3132 0.930 . S
C3138 C3139 1.367 . S
C3138 C3146 1.378 . S
C3139 C3138 1.367 . S
C3139 C3147 1.433 . S
C3140 H3136 0.929 1_455 S
C3140 C3142 1.378 . S
C3140 C3144 1.350 1_455 S
C3141 C3144 1.463 . S
C3141 C3146 1.350 . S
C3141 N3149 1.427 . S
C3142 H3133 0.930 . S
C3142 C3140 1.378 . S
C3142 C3143 1.367 . S
C3143 C3142 1.367 . S
C3143 C3145 1.433 . S
C3144 C3140 1.350 1_655 S
C3144 C3141 1.463 . S
C3144 N3148 1.427 1_655 S
C3145 H3135 0.929 . S
C3145 C3143 1.433 . S
C3145 N3148 1.384 . S
C3146 H3137 0.929 . S
C3146 C3138 1.378 . S
C3146 C3141 1.350 . S
C3147 H3134 0.929 . S
C3147 C3139 1.433 . S
C3147 N3149 1.384 . S
N3148 C3144 1.427 1_455 S
N3148 C3145 1.384 . S
N3149 C3141 1.427 . S
N3149 C3147 1.384 . S
H3150 C3156 0.930 . S
H3151 C3160 0.930 . S
H3152 C3165 0.929 . S
H3153 C3163 0.929 . S
H3154 C3158 0.929 . S
H3155 C3164 0.929 . S
C3156 H3150 0.930 . S
C3156 C3157 1.367 . S
C3156 C3164 1.378 . S
C3157 C3156 1.367 . S
C3157 C3165 1.433 . S
C3158 H3154 0.929 . S
C3158 C3160 1.378 . S
C3158 C3162 1.350 . S
C3159 C3162 1.463 . S
C3159 C3164 1.350 . S
C3159 N3167 1.427 . S
C3160 H3151 0.930 . S
C3160 C3158 1.378 . S
C3160 C3161 1.367 . S
C3161 C3160 1.367 . S
C3161 C3163 1.433 . S
C3162 C3158 1.350 . S
C3162 C3159 1.463 . S
C3162 N3166 1.427 . S
C3163 H3153 0.929 . S
C3163 C3161 1.433 . S
C3163 N3166 1.384 . S
C3164 H3155 0.929 . S
C3164 C3156 1.378 . S
C3164 C3159 1.350 . S
C3165 H3152 0.929 . S
C3165 C3157 1.433 . S
C3165 N3167 1.384 . S
N3166 C3162 1.427 . S
N3166 C3163 1.384 . S
N3167 C3159 1.427 . S
N3167 C3165 1.384 . S
H3168 C3174 0.930 . S
H3169 C3178 0.930 . S
H3170 C3183 0.929 . S
H3171 C3181 0.929 . S
H3172 C3176 0.929 . S
H3173 C3182 0.929 . S
C3174 H3168 0.930 . S
C3174 C3175 1.367 . S
C3174 C3182 1.378 . S
C3175 C3174 1.367 . S
C3175 C3183 1.433 . S
C3176 H3172 0.929 . S
C3176 C3178 1.378 . S
C3176 C3180 1.350 . S
C3177 C3180 1.463 . S
C3177 C3182 1.350 . S
C3177 N3185 1.427 . S
C3178 H3169 0.930 . S
C3178 C3176 1.378 . S
C3178 C3179 1.367 . S
C3179 C3178 1.367 . S
C3179 C3181 1.433 . S
C3180 C3176 1.350 . S
C3180 C3177 1.463 . S
C3180 N3184 1.427 . S
C3181 H3171 0.929 . S
C3181 C3179 1.433 . S
C3181 N3184 1.384 . S
C3182 H3173 0.929 . S
C3182 C3174 1.378 . S
C3182 C3177 1.350 . S
C3183 H3170 0.929 . S
C3183 C3175 1.433 . S
C3183 N3185 1.384 . S
N3184 C3180 1.427 . S
N3184 C3181 1.384 . S
N3185 C3177 1.427 . S
N3185 C3183 1.384 . S
H3186 C3192 0.930 . S
H3187 C3196 0.930 . S
H3188 C3201 0.929 . S
H3189 C3199 0.929 . S
H3190 C3194 0.929 . S
H3191 C3200 0.929 . S
C3192 H3186 0.930 . S
C3192 C3193 1.367 . S
C3192 C3200 1.378 . S
C3193 C3192 1.367 . S
C3193 C3201 1.433 . S
C3194 H3190 0.929 . S
C3194 C3196 1.378 . S
C3194 C3198 1.350 . S
C3195 C3198 1.463 . S
C3195 C3200 1.350 . S
C3195 N3203 1.427 . S
C3196 H3187 0.930 . S
C3196 C3194 1.378 . S
C3196 C3197 1.367 . S
C3197 C3196 1.367 . S
C3197 C3199 1.433 . S
C3198 C3194 1.350 . S
C3198 C3195 1.463 . S
C3198 N3202 1.427 . S
C3199 H3189 0.929 . S
C3199 C3197 1.433 . S
C3199 N3202 1.384 . S
C3200 H3191 0.929 . S
C3200 C3192 1.378 . S
C3200 C3195 1.350 . S
C3201 H3188 0.929 . S
C3201 C3193 1.433 . S
C3201 N3203 1.384 . S
N3202 C3198 1.427 . S
N3202 C3199 1.384 . S
N3203 C3195 1.427 . S
N3203 C3201 1.384 . S
H3204 C3210 0.930 . S
H3205 C3214 0.930 . S
H3206 C3219 0.929 . S
H3207 C3217 0.929 . S
H3208 C3212 0.929 . S
H3209 C3218 0.929 . S
C3210 H3204 0.930 . S
C3210 C3211 1.367 . S
C3210 C3218 1.378 . S
C3211 C3210 1.367 . S
C3211 C3219 1.433 . S
C3212 H3208 0.929 . S
C3212 C3214 1.378 1_655 S
C3212 C3216 1.350 . S
C3213 C3216 1.463 . S
C3213 C3218 1.350 . S
C3213 N3221 1.427 . S
C3214 H3205 0.930 . S
C3214 C3212 1.378 1_455 S
C3214 C3215 1.367 . S
C3215 C3214 1.367 . S
C3215 C3217 1.433 1_455 S
C3216 C3212 1.350 . S
C3216 C3213 1.463 . S
C3216 N3220 1.427 . S
C3217 H3207 0.929 . S
C3217 C3215 1.433 1_655 S
C3217 N3220 1.384 . S
C3218 H3209 0.929 . S
C3218 C3210 1.378 . S
C3218 C3213 1.350 . S
C3219 H3206 0.929 . S
C3219 C3211 1.433 . S
C3219 N3221 1.384 . S
N3220 C3216 1.427 . S
N3220 C3217 1.384 . S
N3221 C3213 1.427 . S
N3221 C3219 1.384 . S
H3222 C3228 0.930 . S
H3223 C3232 0.930 . S
H3224 C3237 0.929 . S
H3225 C3235 0.929 . S
H3226 C3230 0.929 . S
H3227 C3236 0.929 . S
C3228 H3222 0.930 . S
C3228 C3229 1.367 . S
C3228 C3236 1.378 . S
C3229 C3228 1.367 . S
C3229 C3237 1.433 . S
C3230 H3226 0.929 . S
C3230 C3232 1.378 . S
C3230 C3234 1.350 . S
C3231 C3234 1.463 . S
C3231 C3236 1.350 . S
C3231 N3239 1.427 . S
C3232 H3223 0.930 . S
C3232 C3230 1.378 . S
C3232 C3233 1.367 . S
C3233 C3232 1.367 . S
C3233 C3235 1.433 . S
C3234 C3230 1.350 . S
C3234 C3231 1.463 . S
C3234 N3238 1.427 . S
C3235 H3225 0.929 . S
C3235 C3233 1.433 . S
C3235 N3238 1.384 . S
C3236 H3227 0.929 . S
C3236 C3228 1.378 . S
C3236 C3231 1.350 . S
C3237 H3224 0.929 . S
C3237 C3229 1.433 . S
C3237 N3239 1.384 . S
N3238 C3234 1.427 . S
N3238 C3235 1.384 . S
N3239 C3231 1.427 . S
N3239 C3237 1.384 . S
H3240 C3246 0.930 . S
H3241 C3250 0.930 . S
H3242 C3255 0.929 . S
H3243 C3253 0.929 . S
H3244 C3248 0.929 . S
H3245 C3254 0.929 . S
C3246 H3240 0.930 . S
C3246 C3247 1.367 . S
C3246 C3254 1.378 . S
C3247 C3246 1.367 . S
C3247 C3255 1.433 . S
C3248 H3244 0.929 . S
C3248 C3250 1.378 . S
C3248 C3252 1.350 . S
C3249 C3252 1.463 . S
C3249 C3254 1.350 . S
C3249 N3257 1.427 . S
C3250 H3241 0.930 . S
C3250 C3248 1.378 . S
C3250 C3251 1.367 . S
C3251 C3250 1.367 . S
C3251 C3253 1.433 . S
C3252 C3248 1.350 . S
C3252 C3249 1.463 . S
C3252 N3256 1.427 . S
C3253 H3243 0.929 . S
C3253 C3251 1.433 . S
C3253 N3256 1.384 . S
C3254 H3245 0.929 . S
C3254 C3246 1.378 . S
C3254 C3249 1.350 . S
C3255 H3242 0.929 . S
C3255 C3247 1.433 . S
C3255 N3257 1.384 . S
N3256 C3252 1.427 . S
N3256 C3253 1.384 . S
N3257 C3249 1.427 . S
N3257 C3255 1.384 . S
H3258 C3264 0.930 . S
H3259 C3268 0.930 1_545 S
H3260 C3273 0.929 . S
H3261 C3271 0.929 . S
H3262 C3266 0.929 . S
H3263 C3272 0.929 . S
C3264 H3258 0.930 . S
C3264 C3265 1.367 . S
C3264 C3272 1.378 . S
C3265 C3264 1.367 . S
C3265 C3273 1.433 . S
C3266 H3262 0.929 . S
C3266 C3268 1.378 . S
C3266 C3270 1.350 . S
C3267 C3270 1.463 . S
C3267 C3272 1.350 . S
C3267 N3275 1.427 . S
C3268 H3259 0.930 1_565 S
C3268 C3266 1.378 . S
C3268 C3269 1.367 . S
C3269 C3268 1.367 . S
C3269 C3271 1.433 . S
C3270 C3266 1.350 . S
C3270 C3267 1.463 . S
C3270 N3274 1.427 . S
C3271 H3261 0.929 . S
C3271 C3269 1.433 . S
C3271 N3274 1.384 . S
C3272 H3263 0.929 . S
C3272 C3264 1.378 . S
C3272 C3267 1.350 . S
C3273 H3260 0.929 . S
C3273 C3265 1.433 . S
C3273 N3275 1.384 . S
N3274 C3270 1.427 . S
N3274 C3271 1.384 . S
N3275 C3267 1.427 . S
N3275 C3273 1.384 . S
H3276 C3282 0.930 . S
H3277 C3286 0.930 . S
H3278 C3291 0.929 . S
H3279 C3289 0.929 . S
H3280 C3284 0.929 . S
H3281 C3290 0.929 . S
C3282 H3276 0.930 . S
C3282 C3283 1.367 . S
C3282 C3290 1.378 . S
C3283 C3282 1.367 . S
C3283 C3291 1.433 . S
C3284 H3280 0.929 . S
C3284 C3286 1.378 . S
C3284 C3288 1.350 . S
C3285 C3288 1.463 . S
C3285 C3290 1.350 . S
C3285 N3293 1.427 . S
C3286 H3277 0.930 . S
C3286 C3284 1.378 . S
C3286 C3287 1.367 . S
C3287 C3286 1.367 . S
C3287 C3289 1.433 . S
C3288 C3284 1.350 . S
C3288 C3285 1.463 . S
C3288 N3292 1.427 . S
C3289 H3279 0.929 . S
C3289 C3287 1.433 . S
C3289 N3292 1.384 . S
C3290 H3281 0.929 . S
C3290 C3282 1.378 . S
C3290 C3285 1.350 . S
C3291 H3278 0.929 . S
C3291 C3283 1.433 . S
C3291 N3293 1.384 . S
N3292 C3288 1.427 . S
N3292 C3289 1.384 . S
N3293 C3285 1.427 . S
N3293 C3291 1.384 . S
H3294 C3300 0.930 . S
H3295 C3304 0.930 . S
H3296 C3309 0.929 . S
H3297 C3307 0.929 . S
H3298 C3302 0.929 . S
H3299 C3308 0.929 . S
C3300 H3294 0.930 . S
C3300 C3301 1.367 . S
C3300 C3308 1.378 . S
C3301 C3300 1.367 . S
C3301 C3309 1.433 . S
C3302 H3298 0.929 . S
C3302 C3304 1.378 . S
C3302 C3306 1.350 . S
C3303 C3306 1.463 . S
C3303 C3308 1.350 . S
C3303 N3311 1.427 . S
C3304 H3295 0.930 . S
C3304 C3302 1.378 . S
C3304 C3305 1.367 . S
C3305 C3304 1.367 . S
C3305 C3307 1.433 . S
C3306 C3302 1.350 . S
C3306 C3303 1.463 . S
C3306 N3310 1.427 . S
C3307 H3297 0.929 . S
C3307 C3305 1.433 . S
C3307 N3310 1.384 . S
C3308 H3299 0.929 . S
C3308 C3300 1.378 . S
C3308 C3303 1.350 . S
C3309 H3296 0.929 . S
C3309 C3301 1.433 . S
C3309 N3311 1.384 . S
N3310 C3306 1.427 . S
N3310 C3307 1.384 . S
N3311 C3303 1.427 . S
N3311 C3309 1.384 . S
H3312 C3318 0.930 . S
H3313 C3322 0.930 . S
H3314 C3327 0.929 . S
H3315 C3325 0.929 . S
H3316 C3320 0.929 . S
H3317 C3326 0.929 . S
C3318 H3312 0.930 . S
C3318 C3319 1.367 . S
C3318 C3326 1.378 . S
C3319 C3318 1.367 . S
C3319 C3327 1.433 . S
C3320 H3316 0.929 . S
C3320 C3322 1.378 . S
C3320 C3324 1.350 . S
C3321 C3324 1.463 . S
C3321 C3326 1.350 . S
C3321 N3329 1.427 . S
C3322 H3313 0.930 . S
C3322 C3320 1.378 . S
C3322 C3323 1.367 . S
C3323 C3322 1.367 . S
C3323 C3325 1.433 . S
C3324 C3320 1.350 . S
C3324 C3321 1.463 . S
C3324 N3328 1.427 . S
C3325 H3315 0.929 . S
C3325 C3323 1.433 . S
C3325 N3328 1.384 . S
C3326 H3317 0.929 . S
C3326 C3318 1.378 . S
C3326 C3321 1.350 . S
C3327 H3314 0.929 . S
C3327 C3319 1.433 . S
C3327 N3329 1.384 . S
N3328 C3324 1.427 . S
N3328 C3325 1.384 . S
N3329 C3321 1.427 . S
N3329 C3327 1.384 . S
H3330 C3336 0.930 . S
H3331 C3340 0.930 . S
H3332 C3345 0.929 . S
H3333 C3343 0.929 . S
H3334 C3338 0.929 . S
H3335 C3344 0.929 1_556 S
C3336 H3330 0.930 . S
C3336 C3337 1.367 . S
C3336 C3344 1.378 . S
C3337 C3336 1.367 . S
C3337 C3345 1.433 . S
C3338 H3334 0.929 . S
C3338 C3340 1.378 . S
C3338 C3342 1.350 . S
C3339 C3342 1.463 . S
C3339 C3344 1.350 . S
C3339 N3347 1.427 . S
C3340 H3331 0.930 . S
C3340 C3338 1.378 . S
C3340 C3341 1.367 . S
C3341 C3340 1.367 . S
C3341 C3343 1.433 1_554 S
C3342 C3338 1.350 . S
C3342 C3339 1.463 . S
C3342 N3346 1.427 1_554 S
C3343 H3333 0.929 . S
C3343 C3341 1.433 1_556 S
C3343 N3346 1.384 . S
C3344 H3335 0.929 1_554 S
C3344 C3336 1.378 . S
C3344 C3339 1.350 . S
C3345 H3332 0.929 . S
C3345 C3337 1.433 . S
C3345 N3347 1.384 . S
N3346 C3342 1.427 1_556 S
N3346 C3343 1.384 . S
N3347 C3339 1.427 . S
N3347 C3345 1.384 . S
H3348 C3354 0.930 . S
H3349 C3358 0.930 . S
H3350 C3363 0.929 . S
H3351 C3361 0.929 . S
H3352 C3356 0.929 . S
H3353 C3362 0.929 . S
C3354 H3348 0.930 . S
C3354 C3355 1.367 . S
C3354 C3362 1.378 . S
C3355 C3354 1.367 . S
C3355 C3363 1.433 . S
C3356 H3352 0.929 . S
C3356 C3358 1.378 . S
C3356 C3360 1.350 . S
C3357 C3360 1.463 . S
C3357 C3362 1.350 . S
C3357 N3365 1.427 . S
C3358 H3349 0.930 . S
C3358 C3356 1.378 . S
C3358 C3359 1.367 . S
C3359 C3358 1.367 . S
C3359 C3361 1.433 . S
C3360 C3356 1.350 . S
C3360 C3357 1.463 . S
C3360 N3364 1.427 . S
C3361 H3351 0.929 . S
C3361 C3359 1.433 . S
C3361 N3364 1.384 . S
C3362 H3353 0.929 . S
C3362 C3354 1.378 . S
C3362 C3357 1.350 . S
C3363 H3350 0.929 . S
C3363 C3355 1.433 . S
C3363 N3365 1.384 . S
N3364 C3360 1.427 . S
N3364 C3361 1.384 . S
N3365 C3357 1.427 . S
N3365 C3363 1.384 . S
H3366 C3372 0.930 . S
H3367 C3376 0.930 . S
H3368 C3381 0.929 . S
H3369 C3379 0.929 . S
H3370 C3374 0.929 . S
H3371 C3380 0.929 . S
C3372 H3366 0.930 . S
C3372 C3373 1.367 . S
C3372 C3380 1.378 . S
C3373 C3372 1.367 . S
C3373 C3381 1.433 . S
C3374 H3370 0.929 . S
C3374 C3376 1.378 . S
C3374 C3378 1.350 . S
C3375 C3378 1.463 . S
C3375 C3380 1.350 . S
C3375 N3383 1.427 . S
C3376 H3367 0.930 . S
C3376 C3374 1.378 . S
C3376 C3377 1.367 . S
C3377 C3376 1.367 . S
C3377 C3379 1.433 . S
C3378 C3374 1.350 . S
C3378 C3375 1.463 . S
C3378 N3382 1.427 . S
C3379 H3369 0.929 . S
C3379 C3377 1.433 . S
C3379 N3382 1.384 . S
C3380 H3371 0.929 . S
C3380 C3372 1.378 . S
C3380 C3375 1.350 . S
C3381 H3368 0.929 . S
C3381 C3373 1.433 . S
C3381 N3383 1.384 . S
N3382 C3378 1.427 . S
N3382 C3379 1.384 . S
N3383 C3375 1.427 . S
N3383 C3381 1.384 . S
C1663 C101 1.869 . S
C1667 C368 1.766 . S
C1681 C57 2.168 . S
C1685 C459 2.161 . S
C1699 C73 1.622 . S
C1703 C536 1.644 . S
C1721 C634 1.415 . S
C1717 C78 1.515 . S
C1735 C21 1.507 . S
C1739 C718 1.513 . S
C1757 C790 0.948 . S
C1753 C31 1.001 . S
C1775 C879 0.966 . S
C1771 C49 0.965 . S
C1789 C0 1.380 . S
C1793 C956 1.319 . S
C1811 C375 2.040 . S
C1807 C218 2.135 . S
C1825 C229 0.692 . S
C1829 C466 0.722 . S
C1847 C543 1.163 . S
C1843 C257 1.188 . S
C1865 C620 1.593 . S
C1861 C164 1.602 . S
C1879 C216 1.985 . S
C1883 C704 1.964 . S
C1901 C806 1.123 . S
C1897 C231 1.207 . S
C1919 C886 0.778 . S
C1915 C255 0.784 . S
C1937 C963 1.502 . S
C1933 C166 1.633 . S
C1955 C382 1.340 . S
C1951 C143 1.372 . S
C1969 C265 1.938 . S
C1973 C1047 1.915 . S
C1991 C1135 2.170 . S
C1987 C299 2.318 . S
C2009 C1208 0.595 . S
C2005 C291 0.580 . S
C2023 C104 0.785 . S
C2027 C970 0.805 . S
C2041 C117 1.383 . S
C2045 C550 1.378 . S
C2059 C304 2.182 . S
C2063 C1299 2.152 . S
C2081 C1376 0.687 . S
C2077 C278 0.642 . S
C2099 C379 1.696 . S
C2095 C60 1.831 . S
C2117 C1394 2.088 . S
C2113 C96 2.150 . S
C2131 C88 1.614 . S
C2135 C547 1.542 . S
C2149 C65 1.469 . S
C2153 C1294 1.368 . S
C2171 C706 1.467 . S
C2167 C10 1.520 . S
C2185 C44 0.940 . S
C2189 C1138 0.920 . S
C2207 C890 0.840 . S
C2203 C34 0.788 . S
C2225 C1471 1.268 . S
C2221 C13 1.447 . S
C2243 C386 1.967 . S
C2239 C138 2.012 . S
C2261 C1378 0.657 . S
C2257 C296 0.652 . S
C2275 C112 1.119 . S
C2279 C554 1.112 . S
C2293 C270 1.592 . S
C2297 C1303 1.488 . S
C2311 C140 2.022 . S
C2315 C715 1.876 . S
C2333 C1131 1.075 . S
C2329 C294 1.155 . S
C2347 C114 0.723 . S
C2351 C874 0.715 . S
C2365 C268 1.533 . S
C2369 C1478 1.435 . S
C2383 C169 1.380 . S
C2387 C370 1.316 1_554 S
C2401 C161 1.901 . S
C2405 C1058 1.846 . S
C2419 C234 2.271 . S
C2423 C788 2.099 . S
C2437 C226 0.470 . S
C2441 C1219 0.518 . S
C2459 C1462 0.869 . S
C2455 C247 0.883 1_565 S
C2473 C195 1.428 . S
C2477 C538 1.373 . S
C2495 C638 2.071 . S
C2491 C239 2.117 . S
C2513 C463 0.654 . S
C2509 C187 0.571 . S
C2527 C75 1.869 . S
C2531 C1544 1.766 . S
C2549 C1383 2.152 . S
C2545 C83 2.177 . S
C2563 C99 1.636 . S
C2567 C1628 1.636 . S
C2581 C52 1.511 . S
C2585 C1306 1.433 . S
C2599 C47 1.507 . S
C2603 C1054 1.514 . S
C2621 C1126 0.959 . S
C2617 C5 1.008 . S
C2639 C1215 0.969 . S
C2635 C23 0.959 . S
C2657 C1460 1.310 . S
C2653 C26 1.360 . S
C2675 C1551 2.041 . S
C2671 C244 2.134 . S
C2689 C177 0.712 . S
C2693 C1390 0.706 . S
C2711 C1635 1.147 . S
C2707 C192 1.182 . S
C2729 C1292 1.598 . S
C2725 C203 1.586 . S
C2747 C1040 1.964 . S
C2743 C242 1.987 . S
C2761 C179 1.206 . S
C2765 C1142 1.123 . S
C2783 C1222 0.761 . S
C2779 C190 0.800 . S
C2797 C205 1.633 . S
C2801 C1467 1.501 . S
C2819 C1558 1.338 . S
C2815 C286 1.386 . S
C2833 C122 1.939 . S
C2837 C711 1.915 . S
C2855 C799 2.172 . S
C2851 C130 2.322 . S
C2873 C872 0.591 . S
C2869 C148 0.561 . S
C2891 C1474 0.797 . S
C2887 C273 0.803 . S
C2905 C260 1.384 1_556 S
C2909 C1642 1.378 . S
C2927 C627 2.141 . S
C2923 C135 2.177 . S
C2945 C452 0.691 . S
C2941 C109 0.640 . S
C2959 C86 1.825 . S
C2963 C1555 1.704 . S
C2981 C470 2.078 . S
C2977 C70 2.151 . S
C2995 C62 1.614 . S
C2999 C1639 1.538 . S
C3013 C91 1.465 . S
C3017 C622 1.357 . S
C3031 C36 1.518 . S
C3035 C1042 1.470 . S
C3053 C802 0.899 . S
C3049 C18 0.932 . S
C3067 C8 0.794 . S
C3071 C1226 0.835 . S
C3085 C39 1.449 . S
C3089 C967 1.253 . S
C3107 C1562 1.967 . S
C3103 C307 2.012 . S
C3121 C153 0.652 . S
C3125 C454 0.655 . S
C3143 C1646 1.115 . S
C3139 C281 1.118 . S
C3157 C127 1.592 . S
C3161 C631 1.510 . S
C3175 C309 2.021 . S
C3179 C1051 1.875 . S
C3197 C795 1.095 . S
C3193 C151 1.152 . S
C3211 C283 0.728 . S
C3215 C1210 0.742 . S
C3233 C974 1.431 . S
C3229 C125 1.533 . S
C3251 C1546 1.316 . S
C3247 C221 1.380 . S
C3269 C722 1.835 1_665 S
C3265 C200 1.896 . S
C3283 C208 2.272 . S
C3287 C1124 2.093 . S
C3305 C883 0.527 . S
C3301 C174 0.470 . S
C3319 C182 0.881 . S
C3323 C958 0.877 . S
C3337 C156 1.427 . S
C3341 C1630 1.379 1_554 S
C3359 C1310 2.067 . S
C3355 C213 2.117 1_565 S
C3377 C1387 0.617 . S
C3373 C252 0.574 . S
