# Generated by pormake.
# Topology ssa, (4,4)-cn, num edge types: 1
# Building blocks:
#     Node 0, Type 0, BuildingBlock: NAWXER_clean_sbu_0, # of connection points: 4
#     Node 1, Type 0, BuildingBlock: NAWXER_clean_sbu_0, # of connection points: 4
#     Node 2, Type 0, BuildingBlock: NAWXER_clean_sbu_0, # of connection points: 4
#     Node 3, Type 0, BuildingBlock: NAWXER_clean_sbu_0, # of connection points: 4
#     Node 4, Type 0, BuildingBlock: NAWXER_clean_sbu_0, # of connection points: 4
#     Node 5, Type 0, BuildingBlock: NAWXER_clean_sbu_0, # of connection points: 4
#     Node 6, Type 1, BuildingBlock: ESEHIV_clean_sbu_0, # of connection points: 4
#     Node 7, Type 1, BuildingBlock: ESEHIV_clean_sbu_0, # of connection points: 4
#     Node 8, Type 1, BuildingBlock: ESEHIV_clean_sbu_0, # of connection points: 4
#     Node 9, Type 1, BuildingBlock: ESEHIV_clean_sbu_0, # of connection points: 4
#     Node 10, Type 1, BuildingBlock: ESEHIV_clean_sbu_0, # of connection points: 4
#     Node 11, Type 1, BuildingBlock: ESEHIV_clean_sbu_0, # of connection points: 4
#     Edge 12, Type (0, 1), BuildingBlock: KIFKEQ_clean_linker_1, # of connection points: 2
#     Edge 13, Type (0, 1), BuildingBlock: KIFKEQ_clean_linker_1, # of connection points: 2
#     Edge 14, Type (0, 1), BuildingBlock: KIFKEQ_clean_linker_1, # of connection points: 2
#     Edge 15, Type (0, 1), BuildingBlock: KIFKEQ_clean_linker_1, # of connection points: 2
#     Edge 16, Type (0, 1), BuildingBlock: KIFKEQ_clean_linker_1, # of connection points: 2
#     Edge 17, Type (0, 1), BuildingBlock: KIFKEQ_clean_linker_1, # of connection points: 2
#     Edge 18, Type (0, 1), BuildingBlock: KIFKEQ_clean_linker_1, # of connection points: 2
#     Edge 19, Type (0, 1), BuildingBlock: KIFKEQ_clean_linker_1, # of connection points: 2
#     Edge 20, Type (0, 1), BuildingBlock: KIFKEQ_clean_linker_1, # of connection points: 2
#     Edge 21, Type (0, 1), BuildingBlock: KIFKEQ_clean_linker_1, # of connection points: 2
#     Edge 22, Type (0, 1), BuildingBlock: KIFKEQ_clean_linker_1, # of connection points: 2
#     Edge 23, Type (0, 1), BuildingBlock: KIFKEQ_clean_linker_1, # of connection points: 2
#     Edge 24, Type (0, 1), BuildingBlock: KIFKEQ_clean_linker_1, # of connection points: 2
#     Edge 25, Type (0, 1), BuildingBlock: KIFKEQ_clean_linker_1, # of connection points: 2
#     Edge 26, Type (0, 1), BuildingBlock: KIFKEQ_clean_linker_1, # of connection points: 2
#     Edge 27, Type (0, 1), BuildingBlock: KIFKEQ_clean_linker_1, # of connection points: 2
#     Edge 28, Type (0, 1), BuildingBlock: KIFKEQ_clean_linker_1, # of connection points: 2
#     Edge 29, Type (0, 1), BuildingBlock: KIFKEQ_clean_linker_1, # of connection points: 2
#     Edge 30, Type (0, 1), BuildingBlock: KIFKEQ_clean_linker_1, # of connection points: 2
#     Edge 31, Type (0, 1), BuildingBlock: KIFKEQ_clean_linker_1, # of connection points: 2
#     Edge 32, Type (0, 1), BuildingBlock: KIFKEQ_clean_linker_1, # of connection points: 2
#     Edge 33, Type (0, 1), BuildingBlock: KIFKEQ_clean_linker_1, # of connection points: 2
#     Edge 34, Type (0, 1), BuildingBlock: KIFKEQ_clean_linker_1, # of connection points: 2
#     Edge 35, Type (0, 1), BuildingBlock: KIFKEQ_clean_linker_1, # of connection points: 2
# Relax obj value: 0.033
# Max RMSD: 0.097
# Mean RMSD: 0.065
data_MOF--net-ssa--node1-NAWXER_clean_sbu_0--node2-ESEHIV_clean_sbu_0--edge1-KIFKEQ_clean_linker_1
_symmetry_space_group_name_H-M    P1
_symmetry_Int_Tables_number       1
_symmetry_cell_setting            triclinic
loop_
_symmetry_equiv_pos_as_xyz
'x, y, z'
_cell_length_a     48.527819
_cell_length_b     48.589966
_cell_length_c     34.945311
_cell_angle_alpha  89.95495
_cell_angle_beta   89.96224
_cell_angle_gamma 120.0566
loop_
_atom_site_label
_atom_site_type_symbol
_atom_site_fract_x
_atom_site_fract_y
_atom_site_fract_z
_atom_type_partial_charge
C0 C 0.06736 0.58964 1.02121 0.0
C1 C 0.03412 0.4855 0.96523 0.0
O2 O 0.0442 0.56658 0.039 0.0
Zn3 Zn 1.01618 0.51608 0.03595 0.0
O4 O 0.07941 0.58391 0.9921 0.0
Zn5 Zn 0.05193 0.53794 0.99262 0.0
O6 O 1.00603 0.53159 0.97785 0.0
O7 O 0.97332 0.50946 0.02655 0.0
O8 O 0.05634 0.51223 0.95331 0.0
O9 O 1.01831 0.48423 0.99526 0.0
O10 O 0.02734 0.50339 0.08407 0.0
O11 O 0.0676 0.52483 0.04367 0.0
C12 C 0.97823 0.52048 0.99259 0.0
C13 C 0.05626 0.51223 0.0764 0.0
C14 C 0.52215 0.06749 0.56578 0.0
C15 C 0.53238 0.98874 0.48603 0.0
O16 O 0.51188 0.04034 0.58191 0.0
Zn17 Zn 0.50688 0.99467 0.56937 0.0
O18 O 0.53301 0.07157 0.53179 0.0
Zn19 Zn 0.52779 0.02918 0.52449 0.0
O20 O 0.47744 0.99973 0.52186 0.0
O21 O 0.46092 0.9662 0.57045 0.0
O22 O 0.54076 0.01731 0.47715 0.0
O23 O 0.52008 0.97818 0.51911 0.0
O24 O 0.53371 0.99217 0.60886 0.0
O25 O 0.56045 0.02922 0.56546 0.0
C26 C 0.45472 0.97679 0.54031 0.0
C27 C 0.56006 0.01448 0.59608 0.0
C28 C 0.52324 0.47128 1.00025 0.0
C29 C 0.53279 0.55868 0.08293 0.0
O30 O 0.51281 0.48841 0.98527 0.0
Zn31 Zn 0.5075 0.52861 0.99919 0.0
O32 O 0.53407 0.47725 0.03429 0.0
Zn33 Zn 0.52831 0.51407 0.04329 0.0
O34 O 0.47784 0.49255 0.04557 0.0
O35 O 0.46155 0.51086 0.99813 0.0
O36 O 0.54109 0.53832 0.0912 0.0
O37 O 0.52055 0.55738 0.04999 0.0
O38 O 0.53447 0.55855 0.96009 0.0
O39 O 0.561 0.54736 1.00276 0.0
C40 C 0.45519 0.49308 0.02739 0.0
C41 C 0.56074 0.5622 0.97254 0.0
C42 C 0.05507 0.55304 0.48444 0.0
C43 C 0.9781 0.46706 0.56988 0.0
O44 O 0.06608 0.55283 0.51773 0.0
Zn45 Zn 0.0507 0.52545 0.5697 0.0
O46 O 0.02651 0.53207 0.47645 0.0
Zn47 Zn 1.01549 0.50902 0.52532 0.0
O48 O 1.01522 0.54303 0.56386 0.0
O49 O 0.05304 0.55621 0.60698 0.0
O50 O 0.97321 0.47178 0.5353 0.0
O51 O 1.00557 0.4851 0.58469 0.0
O52 O 0.07975 0.50894 0.57268 0.0
O53 O 0.0458 0.48894 0.52474 0.0
C54 C 0.03012 0.55892 0.59362 0.0
C55 C 0.06924 0.49072 0.54371 0.0
C56 C 0.55555 0.9778 0.02768 0.0
C57 C 0.48381 1.00577 0.96269 0.0
O58 O 0.553 0.99992 0.04443 0.0
Zn59 Zn 0.52802 0.0256 0.03721 0.0
O60 O 0.54001 0.96549 0.99708 0.0
Zn61 Zn 0.51937 0.99073 0.99442 0.0
O62 O 0.55901 0.03738 0.98286 0.0
O63 O 0.56236 0.06961 0.0293 0.0
O64 O 0.4911 0.98527 0.95178 0.0
O65 O 0.49575 0.02136 0.99358 0.0
O66 O 0.50101 1.01307 0.08272 0.0
O67 O 0.48806 0.97288 0.04352 0.0
C68 C 0.57266 0.06525 0.99769 0.0
C69 C 0.48358 0.98364 0.07504 0.0
C70 C 0.57507 0.51869 0.55981 0.0
C71 C 0.48616 0.50974 0.48025 0.0
O72 O 0.55764 0.52814 0.57628 0.0
Zn73 Zn 0.51638 0.5324 0.56454 0.0
O74 O 0.56859 0.50838 0.52558 0.0
Zn75 Zn 0.53117 0.5134 0.5185 0.0
O76 O 0.55207 0.56371 0.51899 0.0
O77 O 0.53343 0.57818 0.56794 0.0
O78 O 0.5067 0.50197 0.47072 0.0
O79 O 0.48743 0.52082 0.51392 0.0
O80 O 0.48684 0.50365 0.60292 0.0
O81 O 0.49855 0.47923 0.55798 0.0
C82 C 0.55133 0.58559 0.5386 0.0
C83 C 0.48365 0.47809 0.58876 0.0
Cu84 Cu 0.24223 0.45831 0.28279 0.0
N85 N 0.24459 0.43392 0.24302 0.0
N86 N 0.26628 0.42302 0.19318 0.0
C87 C 0.27154 0.44182 0.22381 0.0
C88 C 0.23465 0.40247 0.19279 0.0
C89 C 0.22127 0.4092 0.22379 0.0
O90 O 0.28512 0.4817 0.30562 0.0
C91 C 0.19306 0.46538 0.25375 0.0
O92 O 0.17814 0.43548 0.26459 0.0
H93 H 0.29444 0.46203 0.23112 0.0
H94 H 0.19625 0.3976 0.23095 0.0
N95 N 0.21572 0.43345 0.32252 0.0
N96 N 0.18757 0.42265 0.37659 0.0
C97 C 0.2075 0.44547 0.35212 0.0
C98 C 0.20064 0.40183 0.32829 0.0
C99 C 0.18306 0.39505 0.36165 0.0
C100 C 0.29533 0.46335 0.31699 0.0
O101 O 0.27685 0.43257 0.31215 0.0
H102 H 0.21523 0.47049 0.35479 0.0
H103 H 0.20202 0.38495 0.30939 0.0
O104 O 0.22303 0.48206 0.26005 0.0
H105 H 0.22213 0.38427 0.17143 0.0
H106 H 0.16804 0.37167 0.37377 0.0
Cu107 Cu 0.80318 0.24062 0.78524 0.0
N108 N 0.79089 0.20229 0.76042 0.0
N109 N 0.75961 0.15486 0.73364 0.0
C110 C 0.76097 0.18041 0.75076 0.0
C111 C 0.79 0.16103 0.7324 0.0
C112 C 0.80924 0.19029 0.74911 0.0
O113 O 0.77143 0.23114 0.82531 0.0
C114 C 0.82063 0.30189 0.75347 0.0
O115 O 0.82138 0.31066 0.78919 0.0
H116 H 0.74067 0.18349 0.7555 0.0
H117 H 0.83478 0.20199 0.7528 0.0
N118 N 0.84167 0.25339 0.81033 0.0
N119 N 0.88986 0.28509 0.83562 0.0
C120 C 0.86818 0.28221 0.80922 0.0
C121 C 0.84682 0.23712 0.83775 0.0
C122 C 0.87644 0.25651 0.85338 0.0
C123 C 0.74257 0.22435 0.8217 0.0
O124 O 0.73254 0.22843 0.78842 0.0
H125 H 0.87093 0.30101 0.79036 0.0
H126 H 0.82949 0.21341 0.84712 0.0
O127 O 0.8105 0.27265 0.74631 0.0
H128 H 0.79779 0.1455 0.72051 0.0
H129 H 0.88625 0.25051 0.87764 0.0
Cu130 Cu 0.58863 0.80105 0.28625 0.0
N131 N 0.61396 0.82903 0.24783 0.0
N132 N 0.62608 0.86313 0.19942 0.0
C133 C 0.60468 0.84601 0.22668 0.0
C134 C 0.64981 0.85651 0.20313 0.0
C135 C 0.64233 0.83548 0.23335 0.0
O136 O 0.56455 0.81971 0.30939 0.0
C137 C 0.5829 0.74721 0.25244 0.0
O138 O 0.61344 0.76394 0.26019 0.0
H139 H 0.58223 0.84534 0.23083 0.0
H140 H 0.6564 0.82544 0.24372 0.0
N141 N 0.61246 0.79773 0.32601 0.0
N142 N 0.62224 0.77546 0.37608 0.0
C143 C 0.60248 0.77114 0.34679 0.0
C144 C 0.63962 0.81982 0.34276 0.0
C145 C 0.64564 0.8061 0.37398 0.0
C146 C 0.58201 0.84887 0.31918 0.0
O147 O 0.61274 0.86272 0.31258 0.0
H148 H 0.58057 0.74918 0.34112 0.0
H149 H 0.65373 0.84425 0.33342 0.0
O150 O 0.56523 0.75875 0.26189 0.0
H151 H 0.67104 0.86635 0.18558 0.0
H152 H 0.66559 0.81758 0.39345 0.0
Cu153 Cu 0.8023 0.57607 0.78209 0.0
N154 N 0.83977 0.60123 0.75444 0.0
N155 N 0.88677 0.61728 0.72613 0.0
C156 C 0.86235 0.59386 0.74591 0.0
C157 C 0.87918 0.64032 0.72203 0.0
C158 C 0.85024 0.6304 0.73964 0.0
O159 O 0.81269 0.55427 0.8219 0.0
C160 C 0.76731 0.55403 0.71206 0.0
O161 O 0.79466 0.57415 0.69619 0.0
H162 H 0.86061 0.57148 0.75337 0.0
H163 H 0.83762 0.64345 0.74138 0.0
N164 N 0.79063 0.6026 0.80691 0.0
N165 N 0.75977 0.61917 0.83405 0.0
C166 C 0.76066 0.59539 0.81512 0.0
C167 C 0.80949 0.63192 0.82106 0.0
C168 C 0.79053 0.64223 0.83783 0.0
C169 C 0.81933 0.53237 0.8159 0.0
O170 O 0.81471 0.51975 0.78161 0.0
H171 H 0.74003 0.57267 0.80831 0.0
H172 H 0.83522 0.64474 0.81965 0.0
O173 O 0.76629 0.5492 0.74812 0.0
H174 H 0.89349 0.66278 0.70749 0.0
H175 H 0.79884 0.66488 0.85186 0.0
Cu176 Cu 0.24332 0.79405 0.28015 0.0
N177 N 0.21658 0.79364 0.2416 0.0
N178 N 0.18377 0.77429 0.19162 0.0
C179 C 0.19656 0.76748 0.2218 0.0
C180 C 0.19638 0.80612 0.19211 0.0
C181 C 0.21663 0.81804 0.22321 0.0
O182 O 0.2229 0.751 0.30263 0.0
C183 C 0.30134 0.84108 0.25037 0.0
O184 O 0.28953 0.85856 0.2627 0.0
H185 H 0.19283 0.74404 0.22816 0.0
H186 H 0.23136 0.84281 0.23085 0.0
N187 N 0.24742 0.8211 0.32038 0.0
N188 N 0.26944 0.85241 0.37106 0.0
C189 C 0.27291 0.83503 0.3435 0.0
C190 C 0.22686 0.82973 0.33395 0.0
C191 C 0.24043 0.84907 0.36549 0.0
C192 C 0.19418 0.74049 0.3137 0.0
O193 O 0.18149 0.75857 0.30844 0.0
H194 H 0.29367 0.83243 0.34013 0.0
H195 H 0.20373 0.82251 0.32181 0.0
O196 O 0.28542 0.81096 0.25563 0.0
H197 H 0.19182 0.81974 0.17113 0.0
H198 H 0.23017 0.86036 0.38241 0.0
Cu199 Cu 0.47053 0.23994 0.79125 0.0
N200 N 0.44358 0.25173 0.76715 0.0
N201 N 0.42858 0.28151 0.73434 0.0
C202 C 0.45243 0.27562 0.74187 0.0
C203 C 0.40363 0.26029 0.75541 0.0
C204 C 0.41294 0.2419 0.77556 0.0
O205 O 0.49423 0.27282 0.82972 0.0
C206 C 0.48242 0.21819 0.72212 0.0
O207 O 0.45387 0.21347 0.7145 0.0
H208 H 0.47636 0.28946 0.7307 0.0
H209 H 0.3987 0.22351 0.79602 0.0
N210 N 0.44633 0.20177 0.81739 0.0
N211 N 0.43089 0.15309 0.84004 0.0
C212 C 0.44924 0.17573 0.81431 0.0
C213 C 0.42545 0.19556 0.84595 0.0
C214 C 0.41577 0.16552 0.85987 0.0
C215 C 0.51173 0.30218 0.82152 0.0
O216 O 0.5187 0.31045 0.78549 0.0
H217 H 0.46535 0.17398 0.79437 0.0
H218 H 0.41886 0.21225 0.85701 0.0
O219 O 0.49568 0.23173 0.75358 0.0
H220 H 0.38057 0.25863 0.75682 0.0
H221 H 0.40026 0.15454 0.88422 0.0
H222 H 0.11731 0.52427 0.06606 0.0
H223 H 0.04302 0.49215 0.15126 0.0
H224 H 0.15127 0.51701 0.11135 0.0
H225 H 0.07737 0.48581 0.19707 0.0
H226 H 0.12884 0.43747 0.24906 0.0
H227 H 0.09727 0.45128 0.20852 0.0
H228 H 0.18282 0.53438 0.16869 0.0
H229 H 0.21493 0.51973 0.20907 0.0
C230 C 0.10825 0.51589 0.09459 0.0
C231 C 0.07717 0.50848 0.10477 0.0
C232 C 0.12795 0.51201 0.12079 0.0
C233 C 0.11725 0.50072 0.15807 0.0
C234 C 0.08639 0.49403 0.16849 0.0
C235 C 0.06662 0.49775 0.1422 0.0
C236 C 0.14112 0.45891 0.23198 0.0
C237 C 0.17459 0.47736 0.23227 0.0
C238 C 0.12282 0.46701 0.2088 0.0
C239 C 0.13726 0.49398 0.18504 0.0
C240 C 0.17078 0.51318 0.18619 0.0
C241 C 0.18924 0.50501 0.20962 0.0
H242 H 0.56789 1.00574 0.67212 0.0
H243 H 0.62015 0.05006 0.56862 0.0
H244 H 0.6174 0.03347 0.70891 0.0
H245 H 0.6691 0.07789 0.60508 0.0
H246 H 0.75696 0.11729 0.67467 0.0
H247 H 0.70915 0.07533 0.64411 0.0
H248 H 0.65089 0.08974 0.72606 0.0
H249 H 0.69862 0.13078 0.75738 0.0
C250 C 0.59 0.0208 0.65714 0.0
C251 C 0.5901 0.026 0.61757 0.0
C252 C 0.61829 0.03686 0.6782 0.0
C253 C 0.64716 0.05812 0.65998 0.0
C254 C 0.64742 0.06152 0.62004 0.0
C255 C 0.61925 0.04572 0.59913 0.0
C256 C 0.734 0.11102 0.6867 0.0
C257 C 0.73164 0.12778 0.7181 0.0
C258 C 0.70657 0.08711 0.66902 0.0
C259 C 0.67618 0.07938 0.68242 0.0
C260 C 0.67389 0.09491 0.71514 0.0
C261 C 0.70128 0.11881 0.73276 0.0
H262 H 0.51817 0.60578 0.07244 0.0
H263 H 0.55629 0.56862 0.15646 0.0
H264 H 0.52632 0.64813 0.11626 0.0
H265 H 0.56377 0.61066 0.20078 0.0
H266 H 0.6131 0.71333 0.24526 0.0
H267 H 0.5983 0.66644 0.20715 0.0
H268 H 0.51065 0.66299 0.17519 0.0
H269 H 0.52607 0.71108 0.21328 0.0
C270 C 0.52809 0.60645 0.10042 0.0
C271 C 0.53688 0.58384 0.11066 0.0
C272 C 0.53247 0.63067 0.12577 0.0
C273 C 0.5458 0.63307 0.1622 0.0
C274 C 0.55389 0.60997 0.17279 0.0
C275 C 0.54953 0.58573 0.14738 0.0
C276 C 0.59048 0.70257 0.23041 0.0
C277 C 0.57089 0.71626 0.23221 0.0
C278 C 0.58184 0.67532 0.20868 0.0
C279 C 0.55325 0.6607 0.18787 0.0
C280 C 0.53305 0.67378 0.19048 0.0
C281 C 0.54171 0.70119 0.21256 0.0
H282 H 0.99254 0.58029 0.56421 0.0
H283 H 0.03936 0.57864 0.66856 0.0
H284 H 0.96368 0.60111 0.59895 0.0
H285 H 1.01062 0.60019 0.70358 0.0
H286 H 0.91329 0.58333 0.75276 0.0
H287 H 0.95467 0.57682 0.72214 0.0
H288 H 0.96485 0.64421 0.63472 0.0
H289 H 0.92245 0.64972 0.66448 0.0
C290 C 0.99722 0.58508 0.59451 0.0
C291 C 1.01797 0.57748 0.61373 0.0
C292 C 0.9808 0.59727 0.61442 0.0
C293 C 0.98462 0.60211 0.65414 0.0
C294 C 1.00686 0.59635 0.67305 0.0
C295 C 0.02352 0.58427 0.65297 0.0
C296 C 0.92434 0.59681 0.72704 0.0
C297 C 0.91403 0.61658 0.7107 0.0
C298 C 0.94848 0.59346 0.7098 0.0
C299 C 0.96296 0.60983 0.6758 0.0
C300 C 0.95389 0.63094 0.66063 0.0
C301 C 0.92971 0.63428 0.67788 0.0
H302 H 0.45436 0.91869 0.07756 0.0
H303 H 0.45592 0.99836 0.13407 0.0
H304 H 0.41363 0.88227 0.12192 0.0
H305 H 0.41397 0.96206 0.17716 0.0
H306 H 0.3545 0.8958 0.26911 0.0
H307 H 0.40034 0.92869 0.22885 0.0
H308 H 0.36053 0.85758 0.13969 0.0
H309 H 0.3156 0.82391 0.18151 0.0
C310 C 0.44579 0.92844 0.09931 0.0
C311 C 0.4585 0.96153 0.10222 0.0
C312 C 0.42218 0.90745 0.12476 0.0
C313 C 0.41017 0.91886 0.15359 0.0
C314 C 0.4229 0.95207 0.1562 0.0
C315 C 0.44689 0.97307 0.13117 0.0
C316 C 0.35605 0.88689 0.24124 0.0
C317 C 0.33162 0.85721 0.22855 0.0
C318 C 0.38213 0.90602 0.21775 0.0
C319 C 0.38416 0.89646 0.18029 0.0
C320 C 0.36025 0.86593 0.1683 0.0
C321 C 0.3344 0.84643 0.1923 0.0
H322 H 0.46107 0.41932 0.55837 0.0
H323 H 0.46685 0.46717 0.66474 0.0
H324 H 0.4421 0.36947 0.59265 0.0
H325 H 0.4481 0.41699 0.6993 0.0
H326 H 0.39773 0.31441 0.74622 0.0
H327 H 0.40431 0.36044 0.70981 0.0
H328 H 0.47174 0.35339 0.63562 0.0
H329 H 0.46471 0.30731 0.67144 0.0
C330 C 0.45779 0.41908 0.58907 0.0
C331 C 0.4659 0.44728 0.60895 0.0
C332 C 0.44705 0.39052 0.6087 0.0
C333 C 0.44425 0.38945 0.64872 0.0
C334 C 0.45001 0.41709 0.66842 0.0
C335 C 0.46073 0.44582 0.64866 0.0
C336 C 0.41353 0.32243 0.72174 0.0
C337 C 0.43074 0.30728 0.71165 0.0
C338 C 0.4175 0.34893 0.70115 0.0
C339 C 0.43844 0.36047 0.6698 0.0
C340 C 0.45509 0.34484 0.65931 0.0
C341 C 0.45133 0.31863 0.68004 0.0
H342 H 0.55449 1.00109 0.41188 0.0
H343 H 0.51863 0.92742 0.49805 0.0
H344 H 0.56143 0.96597 0.36798 0.0
H345 H 0.52631 0.89264 0.45461 0.0
H346 H 0.52541 0.82809 0.35902 0.0
H347 H 0.50988 0.861 0.39654 0.0
H348 H 0.59631 0.9453 0.36129 0.0
H349 H 0.61115 0.91297 0.32374 0.0
C350 C 0.54814 0.97745 0.42153 0.0
C351 C 0.53628 0.96732 0.45871 0.0
C352 C 0.55217 0.95725 0.39635 0.0
C353 C 0.54459 0.92635 0.40766 0.0
C354 C 0.53205 0.91601 0.44458 0.0
C355 C 0.52794 0.93618 0.4697 0.0
C356 C 0.5407 0.85369 0.35885 0.0
C357 C 0.5696 0.8678 0.33854 0.0
C358 C 0.532 0.87258 0.38061 0.0
C359 C 0.55188 0.90596 0.38219 0.0
C360 C 0.5801 0.91988 0.36058 0.0
C361 C 0.58878 0.90115 0.33918 0.0
H362 H 0.62075 0.586 0.99969 0.0
H363 H 0.56869 0.57908 0.89652 0.0
H364 H 0.66953 0.60636 0.963 0.0
H365 H 0.6181 0.60021 0.85947 0.0
H366 H 0.69864 0.58366 0.8097 0.0
H367 H 0.65115 0.57744 0.84125 0.0
H368 H 0.70994 0.64834 0.92453 0.0
H369 H 0.7574 0.65353 0.89403 0.0
C370 C 0.61988 0.58955 0.96919 0.0
C371 C 0.5908 0.5806 0.95094 0.0
C372 C 0.64797 0.60148 0.94814 0.0
C373 C 0.64774 0.60471 0.9082 0.0
C374 C 0.61898 0.59761 0.89015 0.0
C375 C 0.59075 0.58579 0.91138 0.0
C376 C 0.70151 0.59797 0.8347 0.0
C377 C 0.73193 0.61863 0.84971 0.0
C378 C 0.67423 0.59477 0.85246 0.0
C379 C 0.6767 0.6122 0.88564 0.0
C380 C 0.70718 0.63422 0.89933 0.0
C381 C 0.73446 0.63738 0.88161 0.0
H382 H 0.11742 0.59926 0.49315 0.0
H383 H 0.04056 0.5628 0.41121 0.0
H384 H 0.15148 0.64102 0.44847 0.0
H385 H 0.07499 0.60441 0.36604 0.0
H386 H 0.13005 0.70792 0.32213 0.0
H387 H 0.09748 0.66082 0.36009 0.0
H388 H 0.18078 0.65447 0.38825 0.0
H389 H 0.21387 0.7026 0.35024 0.0
C390 C 0.10778 0.59996 0.46545 0.0
C391 C 0.076 0.57771 0.45604 0.0
C392 C 0.12754 0.62383 0.4396 0.0
C393 C 0.11614 0.62629 0.40352 0.0
C394 C 0.08455 0.60358 0.39374 0.0
C395 C 0.06476 0.57962 0.41962 0.0
C396 C 0.14155 0.69642 0.33607 0.0
C397 C 0.17472 0.7093 0.3333 0.0
C398 C 0.12269 0.6691 0.3577 0.0
C399 C 0.13633 0.65368 0.37748 0.0
C400 C 0.16945 0.6659 0.37377 0.0
C401 C 0.18843 0.69333 0.35174 0.0
H402 H 0.44454 0.02647 0.98726 0.0
H403 H 0.48123 1.00718 0.88444 0.0
H404 H 0.42446 0.05491 0.95006 0.0
H405 H 0.46093 0.03584 0.84672 0.0
H406 H 0.47727 0.13911 0.8229 0.0
H407 H 0.48116 0.09405 0.84568 0.0
H408 H 0.38926 0.05573 0.9001 0.0
H409 H 0.3851 0.10088 0.87695 0.0
C410 C 0.4474 0.02748 0.95644 0.0
C411 C 0.46464 0.01488 0.93874 0.0
C412 C 0.43575 0.04367 0.93504 0.0
C413 C 0.44139 0.04794 0.89546 0.0
C414 C 0.4565 0.03318 0.87726 0.0
C415 C 0.46785 0.01654 0.89874 0.0
C416 C 0.45742 0.12078 0.83879 0.0
C417 C 0.4311 0.1241 0.84866 0.0
C418 C 0.45963 0.09475 0.85177 0.0
C419 C 0.43564 0.07141 0.87498 0.0
C420 C 0.40835 0.07357 0.88272 0.0
C421 C 0.40608 0.09957 0.86963 0.0
H422 H 0.44033 0.526 0.49219 0.0
H423 H 0.47454 0.48616 0.4067 0.0
H424 H 0.3976 0.51886 0.4495 0.0
H425 H 0.43201 0.47954 0.3636 0.0
H426 H 0.3277 0.43159 0.32326 0.0
H427 H 0.37541 0.44568 0.35962 0.0
H428 H 0.38283 0.53522 0.39037 0.0
H429 H 0.33406 0.52064 0.35389 0.0
C430 C 0.43893 0.5159 0.46415 0.0
C431 C 0.46084 0.50635 0.45315 0.0
C432 C 0.4145 0.5121 0.43945 0.0
C433 C 0.41113 0.49855 0.40299 0.0
C434 C 0.43351 0.48968 0.39163 0.0
C435 C 0.45802 0.49354 0.41634 0.0
C436 C 0.33955 0.45448 0.33744 0.0
C437 C 0.32681 0.47489 0.3358 0.0
C438 C 0.36723 0.46269 0.35814 0.0
C439 C 0.38317 0.49159 0.37814 0.0
C440 C 0.37103 0.51259 0.37566 0.0
C441 C 0.34324 0.5044 0.35451 0.0
H442 H 1.00478 0.42511 0.99242 0.0
H443 H 0.03849 0.47945 0.88789 0.0
H444 H 0.97692 0.37623 0.95551 0.0
H445 H 1.01027 0.43023 0.85066 0.0
H446 H 0.93777 0.29029 0.88139 0.0
H447 H 0.98078 0.33888 0.90897 0.0
H448 H 0.95081 0.39443 0.84316 0.0
H449 H 0.90755 0.34631 0.81624 0.0
C450 C 1.00688 0.42648 0.96151 0.0
C451 C 0.0236 0.45607 0.943 0.0
C452 C 0.99105 0.39845 0.94036 0.0
C453 C 0.99122 0.39942 0.90018 0.0
C454 C 1.00959 0.42884 0.88162 0.0
C455 C 0.0259 0.45694 0.90289 0.0
C456 C 0.94029 0.31276 0.87255 0.0
C457 C 0.91838 0.31393 0.84712 0.0
C458 C 0.96515 0.34065 0.88823 0.0
C459 C 0.96902 0.37043 0.87844 0.0
C460 C 0.94865 0.37185 0.85101 0.0
C461 C 0.92361 0.344 0.83561 0.0
H462 H 0.97868 0.52979 0.91573 0.0
H463 H 0.91896 0.50954 1.01552 0.0
H464 H 0.93732 0.52907 0.87593 0.0
H465 H 0.87718 0.50896 0.97518 0.0
H466 H 0.83258 0.55326 0.89044 0.0
H467 H 0.86832 0.54766 0.93509 0.0
H468 H 0.8832 0.49057 0.85221 0.0
H469 H 0.84763 0.4961 0.80766 0.0
C470 C 0.95669 0.52517 0.92928 0.0
C471 C 0.95228 0.51979 0.96898 0.0
C472 C 0.93279 0.5245 0.90629 0.0
C473 C 0.90378 0.51874 0.92223 0.0
C474 C 0.89929 0.51354 0.962 0.0
C475 C 0.92317 0.51378 0.98509 0.0
C476 C 0.84307 0.53908 0.88194 0.0
C477 C 0.8373 0.52531 0.84523 0.0
C478 C 0.8635 0.5358 0.90764 0.0
C479 C 0.87894 0.51897 0.89711 0.0
C480 C 0.87209 0.5041 0.86106 0.0
C481 C 0.85147 0.50711 0.83556 0.0
H482 H 0.40274 0.91864 0.55841 0.0
H483 H 0.43375 0.9998 0.48356 0.0
H484 H 0.3537 0.88957 0.52068 0.0
H485 H 0.38531 0.97077 0.44621 0.0
H486 H 0.33221 0.88839 0.35859 0.0
H487 H 0.37326 0.92023 0.40526 0.0
H488 H 0.3016 0.89219 0.49323 0.0
H489 H 0.26006 0.86032 0.44581 0.0
C490 C 0.39876 0.93054 0.53464 0.0
C491 C 0.42238 0.96129 0.52355 0.0
C492 C 0.37073 0.91394 0.51315 0.0
C493 C 0.36611 0.92788 0.48032 0.0
C494 C 0.38856 0.95941 0.47114 0.0
C495 C 0.4163 0.97597 0.49257 0.0
C496 C 0.32522 0.88906 0.38786 0.0
C497 C 0.29309 0.87194 0.39872 0.0
C498 C 0.34862 0.9074 0.41448 0.0
C499 C 0.34049 0.9087 0.45273 0.0
C500 C 0.30836 0.89151 0.46386 0.0
C501 C 0.28472 0.87353 0.43684 0.0
H502 H 0.50967 0.45991 0.92441 0.0
H503 H 0.53759 0.42502 1.0221 0.0
H504 H 0.51061 0.41969 0.88435 0.0
H505 H 0.53855 0.38426 0.98135 0.0
H506 H 0.49556 0.29425 0.89805 0.0
H507 H 0.50089 0.33504 0.9434 0.0
H508 H 0.54988 0.40721 0.8573 0.0
H509 H 0.54446 0.36673 0.81208 0.0
C510 C 0.51603 0.44364 0.93747 0.0
C511 C 0.52356 0.44584 0.97666 0.0
C512 C 0.51682 0.42064 0.91427 0.0
C513 C 0.52497 0.39887 0.92943 0.0
C514 C 0.53213 0.40064 0.96875 0.0
C515 C 0.53166 0.42403 0.99208 0.0
C516 C 0.50796 0.31889 0.88899 0.0
C517 C 0.51929 0.32707 0.85117 0.0
C518 C 0.51107 0.34229 0.91507 0.0
C519 C 0.52538 0.37438 0.90386 0.0
C520 C 0.53817 0.38267 0.86671 0.0
C521 C 0.53522 0.3594 0.84079 0.0
H522 H 0.12753 0.49878 0.56428 0.0
H523 H 0.0474 0.44452 0.48943 0.0
H524 H 0.15698 0.47687 0.53179 0.0
H525 H 0.07682 0.42342 0.45665 0.0
H526 H 0.13013 0.38046 0.40719 0.0
H527 H 0.10145 0.39114 0.45697 0.0
H528 H 0.18129 0.48645 0.46918 0.0
H529 H 0.21032 0.47527 0.42082 0.0
C530 C 0.11599 0.48176 0.54142 0.0
C531 C 0.0853 0.47373 0.52912 0.0
C532 C 0.13292 0.46937 0.52264 0.0
C533 C 0.11941 0.44861 0.49133 0.0
C534 C 0.08793 0.43905 0.48083 0.0
C535 C 0.07111 0.45143 0.49947 0.0
C536 C 0.14186 0.40338 0.42119 0.0
C537 C 0.17229 0.42721 0.40947 0.0
C538 C 0.12532 0.40962 0.44952 0.0
C539 C 0.13887 0.43981 0.46675 0.0
C540 C 0.17013 0.46288 0.45676 0.0
C541 C 0.18663 0.45663 0.42854 0.0
H542 H 0.58975 0.1285 0.99531 0.0
H543 H 0.61616 0.06165 0.95232 0.0
H544 H 0.63171 0.17063 0.95567 0.0
H545 H 0.6584 0.1037 0.91398 0.0
H546 H 0.75132 0.19518 0.88364 0.0
H547 H 0.71147 0.15946 0.92954 0.0
H548 H 0.64118 0.17664 0.87683 0.0
H549 H 0.68093 0.21201 0.82991 0.0
C550 C 0.60482 0.12295 0.97794 0.0
C551 C 0.59971 0.09178 0.97699 0.0
C552 C 0.62864 0.14697 0.95511 0.0
C553 C 0.64833 0.14042 0.93181 0.0
C554 C 0.64373 0.10949 0.93181 0.0
C555 C 0.6195 0.08541 0.95372 0.0
C556 C 0.72755 0.19185 0.88205 0.0
C557 C 0.71937 0.20647 0.85286 0.0
C558 C 0.7047 0.17125 0.90834 0.0
C559 C 0.67324 0.16521 0.90671 0.0
C560 C 0.66533 0.18102 0.87887 0.0
C561 C 0.68807 0.20119 0.85197 0.0
H562 H 0.60156 0.60971 0.49 0.0
H563 H 0.54216 0.636 0.55433 0.0
H564 H 0.62448 0.65973 0.45523 0.0
H565 H 0.56543 0.68653 0.51908 0.0
H566 H 0.63122 0.78261 0.45279 0.0
H567 H 0.61941 0.74006 0.4996 0.0
H568 H 0.5922 0.67254 0.40706 0.0
H569 H 0.60359 0.71461 0.36099 0.0
C570 C 0.59383 0.62647 0.49727 0.0
C571 C 0.56958 0.61866 0.52437 0.0
C572 C 0.60702 0.65511 0.47735 0.0
C573 C 0.59633 0.67667 0.48407 0.0
C574 C 0.57408 0.67025 0.51346 0.0
C575 C 0.56076 0.64136 0.53354 0.0
C576 C 0.62313 0.75869 0.44273 0.0
C577 C 0.61826 0.7517 0.40346 0.0
C578 C 0.61619 0.73444 0.46937 0.0
C579 C 0.60508 0.70314 0.45685 0.0
C580 C 0.60108 0.69653 0.41747 0.0
C581 C 0.60741 0.72048 0.39114 0.0
H582 H 0.51279 0.06976 0.64241 0.0
H583 H 0.52994 0.12432 0.53861 0.0
H584 H 0.50914 0.11066 0.67839 0.0
H585 H 0.52623 0.16553 0.57493 0.0
H586 H 0.46873 0.20213 0.64712 0.0
H587 H 0.48302 0.16948 0.60832 0.0
H588 H 0.54009 0.16648 0.70119 0.0
H589 H 0.52568 0.19931 0.7402 0.0
C590 C 0.51595 0.09059 0.62721 0.0
C591 C 0.52143 0.09356 0.58745 0.0
C592 C 0.51416 0.11425 0.64802 0.0
C593 C 0.51746 0.14149 0.62967 0.0
C594 C 0.52341 0.14477 0.58996 0.0
C595 C 0.52561 0.12119 0.56914 0.0
C596 C 0.48484 0.19505 0.65906 0.0
C597 C 0.49597 0.20328 0.69685 0.0
C598 C 0.49314 0.1764 0.63669 0.0
C599 C 0.5125 0.16509 0.65166 0.0
C600 C 0.52484 0.17451 0.68889 0.0
C601 C 0.51684 0.19358 0.71115 0.0
H602 H 0.40387 0.50106 1.01298 0.0
H603 H 0.43292 0.44431 0.07818 0.0
H604 H 0.35405 0.47795 0.04956 0.0
H605 H 0.3834 0.42125 0.11414 0.0
H606 H 0.32637 0.43803 0.20848 0.0
H607 H 0.36846 0.44925 0.16255 0.0
H608 H 0.30209 0.4274 0.06954 0.0
H609 H 0.25966 0.41618 0.11612 0.0
C610 C 0.39928 0.48309 0.03434 0.0
C611 C 0.42256 0.47496 0.0432 0.0
C612 C 0.37075 0.46982 0.0552 0.0
C613 C 0.36516 0.44823 0.08513 0.0
C614 C 0.38736 0.43829 0.09175 0.0
C615 C 0.41571 0.4515 0.07107 0.0
C616 C 0.32072 0.43535 0.17825 0.0
C617 C 0.28987 0.42632 0.1658 0.0
C618 C 0.34471 0.44152 0.15194 0.0
C619 C 0.33852 0.43908 0.11243 0.0
C620 C 0.30749 0.42949 0.09983 0.0
C621 C 0.28324 0.42285 0.12638 0.0
H622 H 0.98058 0.45768 0.64632 0.0
H623 H 0.9173 0.42015 0.54931 0.0
H624 H 0.93945 0.41858 0.68767 0.0
H625 H 0.8756 0.38058 0.59135 0.0
H626 H 0.82821 0.29274 0.67726 0.0
H627 H 0.86369 0.33259 0.63095 0.0
H628 H 0.88804 0.40631 0.71495 0.0
H629 H 0.85294 0.36667 0.76124 0.0
C630 C 0.95785 0.44106 0.63368 0.0
C631 C 0.9524 0.44218 0.59428 0.0
C632 C 0.93406 0.41873 0.65762 0.0
C633 C 0.90401 0.39656 0.64304 0.0
C634 C 0.8985 0.39727 0.60354 0.0
C635 C 0.92237 0.41998 0.57945 0.0
C636 C 0.8407 0.31752 0.68568 0.0
C637 C 0.83783 0.32636 0.72323 0.0
C638 C 0.86102 0.34039 0.65902 0.0
C639 C 0.87913 0.37265 0.66933 0.0
C640 C 0.87494 0.38163 0.70621 0.0
C641 C 0.85456 0.35885 0.73274 0.0
H642 H 0.59748 1.00455 0.08632 0.0
H643 H 0.55622 0.92274 1.01159 0.0
H644 H 0.6214 0.98027 0.12472 0.0
H645 H 0.58013 0.89826 0.05057 0.0
H646 H 0.64191 0.87047 0.12418 0.0
H647 H 0.63134 0.90192 0.0773 0.0
H648 H 0.5927 0.93326 0.16765 0.0
H649 H 0.60327 0.90218 0.21381 0.0
C650 C 0.59389 0.98156 0.07772 0.0
C651 C 0.57444 0.9653 0.04629 0.0
C652 C 0.6076 0.96768 0.09977 0.0
C653 C 0.6022 0.93718 0.09099 0.0
C654 C 0.58476 0.92185 0.05792 0.0
C655 C 0.57098 0.93581 0.03571 0.0
C656 C 0.63168 0.88459 0.13384 0.0
C657 C 0.62324 0.88389 0.17244 0.0
C658 C 0.62544 0.90233 0.10711 0.0
C659 C 0.61129 0.92009 0.11886 0.0
C660 C 0.60399 0.92016 0.15776 0.0
C661 C 0.60977 0.90218 0.18416 0.0
H662 H 0.59158 0.53625 0.63419 0.0
H663 H 0.61997 0.50361 0.53486 0.0
H664 H 0.63604 0.53974 0.66996 0.0
H665 H 0.66456 0.5066 0.5712 0.0
H666 H 0.76224 0.55814 0.63464 0.0
H667 H 0.71502 0.54605 0.59773 0.0
H668 H 0.65745 0.50986 0.69971 0.0
H669 H 0.70502 0.5227 0.73696 0.0
C670 C 0.6072 0.52958 0.61994 0.0
C671 C 0.60215 0.5198 0.58141 0.0
C672 C 0.63265 0.5313 0.64072 0.0
C673 C 0.65399 0.52333 0.62371 0.0
C674 C 0.64881 0.5132 0.58523 0.0
C675 C 0.62317 0.51138 0.56437 0.0
C676 C 0.73947 0.54718 0.6492 0.0
C677 C 0.73759 0.54163 0.68894 0.0
C678 C 0.71226 0.54007 0.62788 0.0
C679 C 0.6823 0.52725 0.64564 0.0
C680 C 0.68017 0.52026 0.6851 0.0
C681 C 0.70744 0.52732 0.70646 0.0
H682 H 0.03926 0.61095 0.07092 0.0
H683 H 0.12681 0.64129 1.00865 0.0
H684 H 0.06469 0.65994 0.10777 0.0
H685 H 0.1525 0.69045 0.04618 0.0
H686 H 0.18537 0.7828 0.11475 0.0
H687 H 0.15436 0.74178 0.06678 0.0
H688 H 0.10579 0.67411 0.15767 0.0
H689 H 0.13646 0.71485 0.20495 0.0
C690 C 0.06383 0.62835 0.06464 0.0
C691 C 0.08122 0.62201 0.03736 0.0
C692 C 0.07838 0.65639 0.08582 0.0
C693 C 0.11072 0.67873 0.08036 0.0
C694 C 0.1275 0.67367 0.05094 0.0
C695 C 0.11283 0.6455 0.02953 0.0
C696 C 0.16756 0.75929 0.12422 0.0
C697 C 0.16326 0.75184 0.16344 0.0
C698 C 0.15006 0.73582 0.09689 0.0
C699 C 0.12761 0.70478 0.10847 0.0
C700 C 0.12258 0.69788 0.14778 0.0
C701 C 0.14027 0.72109 0.17488 0.0
loop_
_geom_bond_atom_site_label_1
_geom_bond_atom_site_label_2
_geom_bond_distance
_geom_bond_site_symmetry_2
_ccdc_geom_bond_type
C0 O2 1.247 . S
C0 O4 1.258 . S
C1 O8 1.247 1_655 S
C1 O9 1.258 . S
O2 C0 1.247 . S
O2 Zn3 2.028 1_455 S
Zn3 O2 2.028 1_655 S
Zn3 O7 2.035 1_554 S
Zn3 O9 2.035 1_554 S
Zn3 O10 2.028 1_655 S
O4 C0 1.258 . S
O4 Zn5 2.035 1_554 S
Zn5 O4 2.035 1_556 S
Zn5 O6 2.028 . S
Zn5 O8 2.028 . S
Zn5 O11 2.035 1_556 S
O6 Zn5 2.028 . S
O6 C12 1.247 1_455 S
O7 Zn3 2.035 1_556 S
O7 C12 1.258 . S
O8 C1 1.247 1_455 S
O8 Zn5 2.028 . S
O9 C1 1.258 . S
O9 Zn3 2.035 1_556 S
O10 Zn3 2.028 1_455 S
O10 C13 1.247 . S
O11 Zn5 2.035 1_554 S
O11 C13 1.258 . S
C12 O6 1.247 1_655 S
C12 O7 1.258 . S
C13 O10 1.247 . S
C13 O11 1.258 . S
C14 O16 1.247 . S
C14 O18 1.258 . S
C15 O22 1.247 1_565 S
C15 O23 1.258 . S
O16 C14 1.247 . S
O16 Zn17 2.028 1_545 S
Zn17 O16 2.028 1_565 S
Zn17 O21 2.035 . S
Zn17 O23 2.035 . S
Zn17 O24 2.028 1_565 S
O18 C14 1.258 . S
O18 Zn19 2.035 . S
Zn19 O18 2.035 . S
Zn19 O20 2.028 . S
Zn19 O22 2.028 . S
Zn19 O25 2.035 . S
O20 Zn19 2.028 . S
O20 C26 1.247 1_545 S
O21 Zn17 2.035 . S
O21 C26 1.258 . S
O22 C15 1.247 1_545 S
O22 Zn19 2.028 . S
O23 C15 1.258 . S
O23 Zn17 2.035 . S
O24 Zn17 2.028 1_545 S
O24 C27 1.247 . S
O25 Zn19 2.035 . S
O25 C27 1.258 . S
C26 O20 1.247 1_565 S
C26 O21 1.258 . S
C27 O24 1.247 . S
C27 O25 1.258 . S
C28 O30 1.247 . S
C28 O32 1.258 . S
C29 O36 1.247 . S
C29 O37 1.258 . S
O30 C28 1.247 . S
O30 Zn31 2.028 . S
Zn31 O30 2.028 . S
Zn31 O35 2.035 1_556 S
Zn31 O37 2.035 1_556 S
Zn31 O38 2.028 . S
O32 C28 1.258 . S
O32 Zn33 2.035 1_556 S
Zn33 O32 2.035 1_554 S
Zn33 O34 2.028 . S
Zn33 O36 2.028 . S
Zn33 O39 2.035 1_554 S
O34 Zn33 2.028 . S
O34 C40 1.247 . S
O35 Zn31 2.035 1_554 S
O35 C40 1.258 . S
O36 C29 1.247 . S
O36 Zn33 2.028 . S
O37 C29 1.258 . S
O37 Zn31 2.035 1_554 S
O38 Zn31 2.028 . S
O38 C41 1.247 . S
O39 Zn33 2.035 1_556 S
O39 C41 1.258 . S
C40 O34 1.247 . S
C40 O35 1.258 . S
C41 O38 1.247 . S
C41 O39 1.258 . S
C42 O44 1.247 . S
C42 O46 1.258 . S
C43 O50 1.247 . S
C43 O51 1.258 . S
O44 C42 1.247 . S
O44 Zn45 2.028 . S
Zn45 O44 2.028 . S
Zn45 O49 2.035 1_455 S
Zn45 O51 2.035 1_455 S
Zn45 O52 2.028 . S
O46 C42 1.258 . S
O46 Zn47 2.035 1_455 S
Zn47 O46 2.035 1_655 S
Zn47 O48 2.028 . S
Zn47 O50 2.028 . S
Zn47 O53 2.035 1_655 S
O48 Zn47 2.028 . S
O48 C54 1.247 . S
O49 Zn45 2.035 1_655 S
O49 C54 1.258 . S
O50 C43 1.247 . S
O50 Zn47 2.028 . S
O51 C43 1.258 . S
O51 Zn45 2.035 1_655 S
O52 Zn45 2.028 . S
O52 C55 1.247 . S
O53 Zn47 2.035 1_455 S
O53 C55 1.258 . S
C54 O48 1.247 . S
C54 O49 1.258 . S
C55 O52 1.247 . S
C55 O53 1.258 . S
C56 O58 1.247 . S
C56 O60 1.258 . S
C57 O64 1.247 . S
C57 O65 1.258 . S
O58 C56 1.247 . S
O58 Zn59 2.028 1_565 S
Zn59 O58 2.028 1_545 S
Zn59 O63 2.035 1_554 S
Zn59 O65 2.035 1_554 S
Zn59 O66 2.028 1_545 S
O60 C56 1.258 . S
O60 Zn61 2.035 1_554 S
Zn61 O60 2.035 1_556 S
Zn61 O62 2.028 1_565 S
Zn61 O64 2.028 1_565 S
Zn61 O67 2.035 1_556 S
O62 Zn61 2.028 1_545 S
O62 C68 1.247 . S
O63 Zn59 2.035 1_556 S
O63 C68 1.258 . S
O64 C57 1.247 . S
O64 Zn61 2.028 1_545 S
O65 C57 1.258 . S
O65 Zn59 2.035 1_556 S
O66 Zn59 2.028 1_565 S
O66 C69 1.247 . S
O67 Zn61 2.035 1_554 S
O67 C69 1.258 . S
C68 O62 1.247 . S
C68 O63 1.258 . S
C69 O66 1.247 . S
C69 O67 1.258 . S
C70 O72 1.247 . S
C70 O74 1.258 . S
C71 O78 1.247 . S
C71 O79 1.258 . S
O72 C70 1.247 . S
O72 Zn73 2.028 . S
Zn73 O72 2.028 . S
Zn73 O77 2.035 . S
Zn73 O79 2.035 . S
Zn73 O80 2.028 . S
O74 C70 1.258 . S
O74 Zn75 2.035 . S
Zn75 O74 2.035 . S
Zn75 O76 2.028 . S
Zn75 O78 2.028 . S
Zn75 O81 2.035 . S
O76 Zn75 2.028 . S
O76 C82 1.247 . S
O77 Zn73 2.035 . S
O77 C82 1.258 . S
O78 C71 1.247 . S
O78 Zn75 2.028 . S
O79 C71 1.258 . S
O79 Zn73 2.035 . S
O80 Zn73 2.028 . S
O80 C83 1.247 . S
O81 Zn75 2.035 . S
O81 C83 1.258 . S
C82 O76 1.247 . S
C82 O77 1.258 . S
C83 O80 1.247 . S
C83 O81 1.258 . S
Cu84 N85 1.999 . S
Cu84 O90 1.974 . S
Cu84 N95 1.985 . S
Cu84 O104 1.959 . S
N85 Cu84 1.999 . S
N85 C87 1.263 . S
N85 C89 1.389 . S
N86 C87 1.358 . S
N86 C88 1.400 . S
C87 N85 1.263 . S
C87 N86 1.358 . S
C87 H93 0.930 . S
C88 N86 1.400 . S
C88 C89 1.351 . S
C88 H105 0.930 . S
C89 N85 1.389 . S
C89 C88 1.351 . S
C89 H94 0.930 . S
O90 Cu84 1.974 . S
O90 C100 1.282 . S
C91 O92 1.261 . S
C91 O104 1.251 . S
O92 C91 1.261 . S
H93 C87 0.930 . S
H94 C89 0.930 . S
N95 Cu84 1.985 . S
N95 C97 1.335 . S
N95 C98 1.390 . S
N96 C97 1.345 . S
N96 C99 1.336 . S
C97 N95 1.335 . S
C97 N96 1.345 . S
C97 H102 0.930 . S
C98 N95 1.390 . S
C98 C99 1.346 . S
C98 H103 0.930 . S
C99 N96 1.336 . S
C99 C98 1.346 . S
C99 H106 0.929 . S
C100 O90 1.282 . S
C100 O101 1.216 . S
O101 C100 1.216 . S
H102 C97 0.930 . S
H103 C98 0.930 . S
O104 Cu84 1.959 . S
O104 C91 1.251 . S
H105 C88 0.930 . S
H106 C99 0.929 . S
Cu107 N108 1.999 . S
Cu107 O113 1.974 . S
Cu107 N118 1.985 . S
Cu107 O127 1.959 . S
N108 Cu107 1.999 . S
N108 C110 1.263 . S
N108 C112 1.389 . S
N109 C110 1.358 . S
N109 C111 1.400 . S
C110 N108 1.263 . S
C110 N109 1.358 . S
C110 H116 0.930 . S
C111 N109 1.400 . S
C111 C112 1.351 . S
C111 H128 0.930 . S
C112 N108 1.389 . S
C112 C111 1.351 . S
C112 H117 0.930 . S
O113 Cu107 1.974 . S
O113 C123 1.282 . S
C114 O115 1.261 . S
C114 O127 1.251 . S
O115 C114 1.261 . S
H116 C110 0.930 . S
H117 C112 0.930 . S
N118 Cu107 1.985 . S
N118 C120 1.335 . S
N118 C121 1.390 . S
N119 C120 1.345 . S
N119 C122 1.336 . S
C120 N118 1.335 . S
C120 N119 1.345 . S
C120 H125 0.930 . S
C121 N118 1.390 . S
C121 C122 1.346 . S
C121 H126 0.930 . S
C122 N119 1.336 . S
C122 C121 1.346 . S
C122 H129 0.929 . S
C123 O113 1.282 . S
C123 O124 1.216 . S
O124 C123 1.216 . S
H125 C120 0.930 . S
H126 C121 0.930 . S
O127 Cu107 1.959 . S
O127 C114 1.251 . S
H128 C111 0.930 . S
H129 C122 0.929 . S
Cu130 N131 1.999 . S
Cu130 O136 1.974 . S
Cu130 N141 1.985 . S
Cu130 O150 1.959 . S
N131 Cu130 1.999 . S
N131 C133 1.263 . S
N131 C135 1.389 . S
N132 C133 1.358 . S
N132 C134 1.400 . S
C133 N131 1.263 . S
C133 N132 1.358 . S
C133 H139 0.930 . S
C134 N132 1.400 . S
C134 C135 1.351 . S
C134 H151 0.930 . S
C135 N131 1.389 . S
C135 C134 1.351 . S
C135 H140 0.930 . S
O136 Cu130 1.974 . S
O136 C146 1.282 . S
C137 O138 1.261 . S
C137 O150 1.251 . S
O138 C137 1.261 . S
H139 C133 0.930 . S
H140 C135 0.930 . S
N141 Cu130 1.985 . S
N141 C143 1.335 . S
N141 C144 1.390 . S
N142 C143 1.345 . S
N142 C145 1.336 . S
C143 N141 1.335 . S
C143 N142 1.345 . S
C143 H148 0.930 . S
C144 N141 1.390 . S
C144 C145 1.346 . S
C144 H149 0.930 . S
C145 N142 1.336 . S
C145 C144 1.346 . S
C145 H152 0.929 . S
C146 O136 1.282 . S
C146 O147 1.216 . S
O147 C146 1.216 . S
H148 C143 0.930 . S
H149 C144 0.930 . S
O150 Cu130 1.959 . S
O150 C137 1.251 . S
H151 C134 0.930 . S
H152 C145 0.929 . S
Cu153 N154 1.999 . S
Cu153 O159 1.974 . S
Cu153 N164 1.985 . S
Cu153 O173 1.959 . S
N154 Cu153 1.999 . S
N154 C156 1.263 . S
N154 C158 1.389 . S
N155 C156 1.358 . S
N155 C157 1.400 . S
C156 N154 1.263 . S
C156 N155 1.358 . S
C156 H162 0.930 . S
C157 N155 1.400 . S
C157 C158 1.351 . S
C157 H174 0.930 . S
C158 N154 1.389 . S
C158 C157 1.351 . S
C158 H163 0.930 . S
O159 Cu153 1.974 . S
O159 C169 1.282 . S
C160 O161 1.261 . S
C160 O173 1.251 . S
O161 C160 1.261 . S
H162 C156 0.930 . S
H163 C158 0.930 . S
N164 Cu153 1.985 . S
N164 C166 1.335 . S
N164 C167 1.390 . S
N165 C166 1.345 . S
N165 C168 1.336 . S
C166 N164 1.335 . S
C166 N165 1.345 . S
C166 H171 0.930 . S
C167 N164 1.390 . S
C167 C168 1.346 . S
C167 H172 0.930 . S
C168 N165 1.336 . S
C168 C167 1.346 . S
C168 H175 0.929 . S
C169 O159 1.282 . S
C169 O170 1.216 . S
O170 C169 1.216 . S
H171 C166 0.930 . S
H172 C167 0.930 . S
O173 Cu153 1.959 . S
O173 C160 1.251 . S
H174 C157 0.930 . S
H175 C168 0.929 . S
Cu176 N177 1.999 . S
Cu176 O182 1.974 . S
Cu176 N187 1.985 . S
Cu176 O196 1.959 . S
N177 Cu176 1.999 . S
N177 C179 1.263 . S
N177 C181 1.389 . S
N178 C179 1.358 . S
N178 C180 1.400 . S
C179 N177 1.263 . S
C179 N178 1.358 . S
C179 H185 0.930 . S
C180 N178 1.400 . S
C180 C181 1.351 . S
C180 H197 0.930 . S
C181 N177 1.389 . S
C181 C180 1.351 . S
C181 H186 0.930 . S
O182 Cu176 1.974 . S
O182 C192 1.282 . S
C183 O184 1.261 . S
C183 O196 1.251 . S
O184 C183 1.261 . S
H185 C179 0.930 . S
H186 C181 0.930 . S
N187 Cu176 1.985 . S
N187 C189 1.335 . S
N187 C190 1.390 . S
N188 C189 1.345 . S
N188 C191 1.336 . S
C189 N187 1.335 . S
C189 N188 1.345 . S
C189 H194 0.930 . S
C190 N187 1.390 . S
C190 C191 1.346 . S
C190 H195 0.930 . S
C191 N188 1.336 . S
C191 C190 1.346 . S
C191 H198 0.929 . S
C192 O182 1.282 . S
C192 O193 1.216 . S
O193 C192 1.216 . S
H194 C189 0.930 . S
H195 C190 0.930 . S
O196 Cu176 1.959 . S
O196 C183 1.251 . S
H197 C180 0.930 . S
H198 C191 0.929 . S
Cu199 N200 1.999 . S
Cu199 O205 1.974 . S
Cu199 N210 1.985 . S
Cu199 O219 1.959 . S
N200 Cu199 1.999 . S
N200 C202 1.263 . S
N200 C204 1.389 . S
N201 C202 1.358 . S
N201 C203 1.400 . S
C202 N200 1.263 . S
C202 N201 1.358 . S
C202 H208 0.930 . S
C203 N201 1.400 . S
C203 C204 1.351 . S
C203 H220 0.930 . S
C204 N200 1.389 . S
C204 C203 1.351 . S
C204 H209 0.930 . S
O205 Cu199 1.974 . S
O205 C215 1.282 . S
C206 O207 1.261 . S
C206 O219 1.251 . S
O207 C206 1.261 . S
H208 C202 0.930 . S
H209 C204 0.930 . S
N210 Cu199 1.985 . S
N210 C212 1.335 . S
N210 C213 1.390 . S
N211 C212 1.345 . S
N211 C214 1.336 . S
C212 N210 1.335 . S
C212 N211 1.345 . S
C212 H217 0.930 . S
C213 N210 1.390 . S
C213 C214 1.346 . S
C213 H218 0.930 . S
C214 N211 1.336 . S
C214 C213 1.346 . S
C214 H221 0.929 . S
C215 O205 1.282 . S
C215 O216 1.216 . S
O216 C215 1.216 . S
H217 C212 0.930 . S
H218 C213 0.930 . S
O219 Cu199 1.959 . S
O219 C206 1.251 . S
H220 C203 0.930 . S
H221 C214 0.929 . S
H222 C230 0.950 . S
H223 C235 0.950 . S
H224 C232 0.950 . S
H225 C234 0.950 . S
H226 C236 0.950 . S
H227 C238 0.950 . S
H228 C240 0.950 . S
H229 C241 0.950 . S
C230 H222 0.950 . S
C230 C231 1.386 . S
C230 C232 1.391 . S
C231 C230 1.386 . S
C231 C235 1.393 . S
C232 H224 0.950 . S
C232 C230 1.391 . S
C232 C233 1.400 . S
C233 C232 1.400 . S
C233 C234 1.398 . S
C233 C239 1.491 . S
C234 H225 0.950 . S
C234 C233 1.398 . S
C234 C235 1.391 . S
C235 H223 0.950 . S
C235 C231 1.393 . S
C235 C234 1.391 . S
C236 H226 0.950 . S
C236 C237 1.386 . S
C236 C238 1.391 . S
C237 C236 1.386 . S
C237 C241 1.393 . S
C238 H227 0.950 . S
C238 C236 1.391 . S
C238 C239 1.400 . S
C239 C233 1.491 . S
C239 C238 1.400 . S
C239 C240 1.398 . S
C240 H228 0.950 . S
C240 C239 1.398 . S
C240 C241 1.391 . S
C241 H229 0.950 . S
C241 C237 1.393 . S
C241 C240 1.391 . S
H242 C250 0.950 . S
H243 C255 0.950 . S
H244 C252 0.950 . S
H245 C254 0.950 . S
H246 C256 0.950 . S
H247 C258 0.950 . S
H248 C260 0.950 . S
H249 C261 0.950 . S
C250 H242 0.950 . S
C250 C251 1.386 . S
C250 C252 1.391 . S
C251 C250 1.386 . S
C251 C255 1.393 . S
C252 H244 0.950 . S
C252 C250 1.391 . S
C252 C253 1.400 . S
C253 C252 1.400 . S
C253 C254 1.398 . S
C253 C259 1.491 . S
C254 H245 0.950 . S
C254 C253 1.398 . S
C254 C255 1.391 . S
C255 H243 0.950 . S
C255 C251 1.393 . S
C255 C254 1.391 . S
C256 H246 0.950 . S
C256 C257 1.386 . S
C256 C258 1.391 . S
C257 C256 1.386 . S
C257 C261 1.393 . S
C258 H247 0.950 . S
C258 C256 1.391 . S
C258 C259 1.400 . S
C259 C253 1.491 . S
C259 C258 1.400 . S
C259 C260 1.398 . S
C260 H248 0.950 . S
C260 C259 1.398 . S
C260 C261 1.391 . S
C261 H249 0.950 . S
C261 C257 1.393 . S
C261 C260 1.391 . S
H262 C270 0.950 . S
H263 C275 0.950 . S
H264 C272 0.950 . S
H265 C274 0.950 . S
H266 C276 0.950 . S
H267 C278 0.950 . S
H268 C280 0.950 . S
H269 C281 0.950 . S
C270 H262 0.950 . S
C270 C271 1.386 . S
C270 C272 1.391 . S
C271 C270 1.386 . S
C271 C275 1.393 . S
C272 H264 0.950 . S
C272 C270 1.391 . S
C272 C273 1.400 . S
C273 C272 1.400 . S
C273 C274 1.398 . S
C273 C279 1.491 . S
C274 H265 0.950 . S
C274 C273 1.398 . S
C274 C275 1.391 . S
C275 H263 0.950 . S
C275 C271 1.393 . S
C275 C274 1.391 . S
C276 H266 0.950 . S
C276 C277 1.386 . S
C276 C278 1.391 . S
C277 C276 1.386 . S
C277 C281 1.393 . S
C278 H267 0.950 . S
C278 C276 1.391 . S
C278 C279 1.400 . S
C279 C273 1.491 . S
C279 C278 1.400 . S
C279 C280 1.398 . S
C280 H268 0.950 . S
C280 C279 1.398 . S
C280 C281 1.391 . S
C281 H269 0.950 . S
C281 C277 1.393 . S
C281 C280 1.391 . S
H282 C290 0.950 . S
H283 C295 0.950 . S
H284 C292 0.950 . S
H285 C294 0.950 . S
H286 C296 0.950 . S
H287 C298 0.950 . S
H288 C300 0.950 . S
H289 C301 0.950 . S
C290 H282 0.950 . S
C290 C291 1.386 . S
C290 C292 1.391 . S
C291 C290 1.386 . S
C291 C295 1.393 . S
C292 H284 0.950 . S
C292 C290 1.391 . S
C292 C293 1.400 . S
C293 C292 1.400 . S
C293 C294 1.398 . S
C293 C299 1.491 . S
C294 H285 0.950 . S
C294 C293 1.398 . S
C294 C295 1.391 . S
C295 H283 0.950 . S
C295 C291 1.393 . S
C295 C294 1.391 . S
C296 H286 0.950 . S
C296 C297 1.386 . S
C296 C298 1.391 . S
C297 C296 1.386 . S
C297 C301 1.393 . S
C298 H287 0.950 . S
C298 C296 1.391 . S
C298 C299 1.400 . S
C299 C293 1.491 . S
C299 C298 1.400 . S
C299 C300 1.398 . S
C300 H288 0.950 . S
C300 C299 1.398 . S
C300 C301 1.391 . S
C301 H289 0.950 . S
C301 C297 1.393 . S
C301 C300 1.391 . S
H302 C310 0.950 . S
H303 C315 0.950 . S
H304 C312 0.950 . S
H305 C314 0.950 . S
H306 C316 0.950 . S
H307 C318 0.950 . S
H308 C320 0.950 . S
H309 C321 0.950 . S
C310 H302 0.950 . S
C310 C311 1.386 . S
C310 C312 1.391 . S
C311 C310 1.386 . S
C311 C315 1.393 . S
C312 H304 0.950 . S
C312 C310 1.391 . S
C312 C313 1.400 . S
C313 C312 1.400 . S
C313 C314 1.398 . S
C313 C319 1.491 . S
C314 H305 0.950 . S
C314 C313 1.398 . S
C314 C315 1.391 . S
C315 H303 0.950 . S
C315 C311 1.393 . S
C315 C314 1.391 . S
C316 H306 0.950 . S
C316 C317 1.386 . S
C316 C318 1.391 . S
C317 C316 1.386 . S
C317 C321 1.393 . S
C318 H307 0.950 . S
C318 C316 1.391 . S
C318 C319 1.400 . S
C319 C313 1.491 . S
C319 C318 1.400 . S
C319 C320 1.398 . S
C320 H308 0.950 . S
C320 C319 1.398 . S
C320 C321 1.391 . S
C321 H309 0.950 . S
C321 C317 1.393 . S
C321 C320 1.391 . S
H322 C330 0.950 . S
H323 C335 0.950 . S
H324 C332 0.950 . S
H325 C334 0.950 . S
H326 C336 0.950 . S
H327 C338 0.950 . S
H328 C340 0.950 . S
H329 C341 0.950 . S
C330 H322 0.950 . S
C330 C331 1.386 . S
C330 C332 1.391 . S
C331 C330 1.386 . S
C331 C335 1.393 . S
C332 H324 0.950 . S
C332 C330 1.391 . S
C332 C333 1.400 . S
C333 C332 1.400 . S
C333 C334 1.398 . S
C333 C339 1.491 . S
C334 H325 0.950 . S
C334 C333 1.398 . S
C334 C335 1.391 . S
C335 H323 0.950 . S
C335 C331 1.393 . S
C335 C334 1.391 . S
C336 H326 0.950 . S
C336 C337 1.386 . S
C336 C338 1.391 . S
C337 C336 1.386 . S
C337 C341 1.393 . S
C338 H327 0.950 . S
C338 C336 1.391 . S
C338 C339 1.400 . S
C339 C333 1.491 . S
C339 C338 1.400 . S
C339 C340 1.398 . S
C340 H328 0.950 . S
C340 C339 1.398 . S
C340 C341 1.391 . S
C341 H329 0.950 . S
C341 C337 1.393 . S
C341 C340 1.391 . S
H342 C350 0.950 . S
H343 C355 0.950 . S
H344 C352 0.950 . S
H345 C354 0.950 . S
H346 C356 0.950 . S
H347 C358 0.950 . S
H348 C360 0.950 . S
H349 C361 0.950 . S
C350 H342 0.950 . S
C350 C351 1.386 . S
C350 C352 1.391 . S
C351 C350 1.386 . S
C351 C355 1.393 . S
C352 H344 0.950 . S
C352 C350 1.391 . S
C352 C353 1.400 . S
C353 C352 1.400 . S
C353 C354 1.398 . S
C353 C359 1.491 . S
C354 H345 0.950 . S
C354 C353 1.398 . S
C354 C355 1.391 . S
C355 H343 0.950 . S
C355 C351 1.393 . S
C355 C354 1.391 . S
C356 H346 0.950 . S
C356 C357 1.386 . S
C356 C358 1.391 . S
C357 C356 1.386 . S
C357 C361 1.393 . S
C358 H347 0.950 . S
C358 C356 1.391 . S
C358 C359 1.400 . S
C359 C353 1.491 . S
C359 C358 1.400 . S
C359 C360 1.398 . S
C360 H348 0.950 . S
C360 C359 1.398 . S
C360 C361 1.391 . S
C361 H349 0.950 . S
C361 C357 1.393 . S
C361 C360 1.391 . S
H362 C370 0.950 . S
H363 C375 0.950 . S
H364 C372 0.950 . S
H365 C374 0.950 . S
H366 C376 0.950 . S
H367 C378 0.950 . S
H368 C380 0.950 . S
H369 C381 0.950 . S
C370 H362 0.950 . S
C370 C371 1.386 . S
C370 C372 1.391 . S
C371 C370 1.386 . S
C371 C375 1.393 . S
C372 H364 0.950 . S
C372 C370 1.391 . S
C372 C373 1.400 . S
C373 C372 1.400 . S
C373 C374 1.398 . S
C373 C379 1.491 . S
C374 H365 0.950 . S
C374 C373 1.398 . S
C374 C375 1.391 . S
C375 H363 0.950 . S
C375 C371 1.393 . S
C375 C374 1.391 . S
C376 H366 0.950 . S
C376 C377 1.386 . S
C376 C378 1.391 . S
C377 C376 1.386 . S
C377 C381 1.393 . S
C378 H367 0.950 . S
C378 C376 1.391 . S
C378 C379 1.400 . S
C379 C373 1.491 . S
C379 C378 1.400 . S
C379 C380 1.398 . S
C380 H368 0.950 . S
C380 C379 1.398 . S
C380 C381 1.391 . S
C381 H369 0.950 . S
C381 C377 1.393 . S
C381 C380 1.391 . S
H382 C390 0.950 . S
H383 C395 0.950 . S
H384 C392 0.950 . S
H385 C394 0.950 . S
H386 C396 0.950 . S
H387 C398 0.950 . S
H388 C400 0.950 . S
H389 C401 0.950 . S
C390 H382 0.950 . S
C390 C391 1.386 . S
C390 C392 1.391 . S
C391 C390 1.386 . S
C391 C395 1.393 . S
C392 H384 0.950 . S
C392 C390 1.391 . S
C392 C393 1.400 . S
C393 C392 1.400 . S
C393 C394 1.398 . S
C393 C399 1.491 . S
C394 H385 0.950 . S
C394 C393 1.398 . S
C394 C395 1.391 . S
C395 H383 0.950 . S
C395 C391 1.393 . S
C395 C394 1.391 . S
C396 H386 0.950 . S
C396 C397 1.386 . S
C396 C398 1.391 . S
C397 C396 1.386 . S
C397 C401 1.393 . S
C398 H387 0.950 . S
C398 C396 1.391 . S
C398 C399 1.400 . S
C399 C393 1.491 . S
C399 C398 1.400 . S
C399 C400 1.398 . S
C400 H388 0.950 . S
C400 C399 1.398 . S
C400 C401 1.391 . S
C401 H389 0.950 . S
C401 C397 1.393 . S
C401 C400 1.391 . S
H402 C410 0.950 . S
H403 C415 0.950 . S
H404 C412 0.950 . S
H405 C414 0.950 . S
H406 C416 0.950 . S
H407 C418 0.950 . S
H408 C420 0.950 . S
H409 C421 0.950 . S
C410 H402 0.950 . S
C410 C411 1.386 . S
C410 C412 1.391 . S
C411 C410 1.386 . S
C411 C415 1.393 . S
C412 H404 0.950 . S
C412 C410 1.391 . S
C412 C413 1.400 . S
C413 C412 1.400 . S
C413 C414 1.398 . S
C413 C419 1.491 . S
C414 H405 0.950 . S
C414 C413 1.398 . S
C414 C415 1.391 . S
C415 H403 0.950 . S
C415 C411 1.393 . S
C415 C414 1.391 . S
C416 H406 0.950 . S
C416 C417 1.386 . S
C416 C418 1.391 . S
C417 C416 1.386 . S
C417 C421 1.393 . S
C418 H407 0.950 . S
C418 C416 1.391 . S
C418 C419 1.400 . S
C419 C413 1.491 . S
C419 C418 1.400 . S
C419 C420 1.398 . S
C420 H408 0.950 . S
C420 C419 1.398 . S
C420 C421 1.391 . S
C421 H409 0.950 . S
C421 C417 1.393 . S
C421 C420 1.391 . S
H422 C430 0.950 . S
H423 C435 0.950 . S
H424 C432 0.950 . S
H425 C434 0.950 . S
H426 C436 0.950 . S
H427 C438 0.950 . S
H428 C440 0.950 . S
H429 C441 0.950 . S
C430 H422 0.950 . S
C430 C431 1.386 . S
C430 C432 1.391 . S
C431 C430 1.386 . S
C431 C435 1.393 . S
C432 H424 0.950 . S
C432 C430 1.391 . S
C432 C433 1.400 . S
C433 C432 1.400 . S
C433 C434 1.398 . S
C433 C439 1.491 . S
C434 H425 0.950 . S
C434 C433 1.398 . S
C434 C435 1.391 . S
C435 H423 0.950 . S
C435 C431 1.393 . S
C435 C434 1.391 . S
C436 H426 0.950 . S
C436 C437 1.386 . S
C436 C438 1.391 . S
C437 C436 1.386 . S
C437 C441 1.393 . S
C438 H427 0.950 . S
C438 C436 1.391 . S
C438 C439 1.400 . S
C439 C433 1.491 . S
C439 C438 1.400 . S
C439 C440 1.398 . S
C440 H428 0.950 . S
C440 C439 1.398 . S
C440 C441 1.391 . S
C441 H429 0.950 . S
C441 C437 1.393 . S
C441 C440 1.391 . S
H442 C450 0.950 . S
H443 C455 0.950 . S
H444 C452 0.950 . S
H445 C454 0.950 . S
H446 C456 0.950 . S
H447 C458 0.950 . S
H448 C460 0.950 . S
H449 C461 0.950 . S
C450 H442 0.950 . S
C450 C451 1.386 . S
C450 C452 1.391 . S
C451 C450 1.386 . S
C451 C455 1.393 . S
C452 H444 0.950 . S
C452 C450 1.391 . S
C452 C453 1.400 . S
C453 C452 1.400 . S
C453 C454 1.398 . S
C453 C459 1.491 . S
C454 H445 0.950 . S
C454 C453 1.398 . S
C454 C455 1.391 . S
C455 H443 0.950 . S
C455 C451 1.393 . S
C455 C454 1.391 . S
C456 H446 0.950 . S
C456 C457 1.386 . S
C456 C458 1.391 . S
C457 C456 1.386 . S
C457 C461 1.393 . S
C458 H447 0.950 . S
C458 C456 1.391 . S
C458 C459 1.400 . S
C459 C453 1.491 . S
C459 C458 1.400 . S
C459 C460 1.398 . S
C460 H448 0.950 . S
C460 C459 1.398 . S
C460 C461 1.391 . S
C461 H449 0.950 . S
C461 C457 1.393 . S
C461 C460 1.391 . S
H462 C470 0.950 . S
H463 C475 0.950 . S
H464 C472 0.950 . S
H465 C474 0.950 . S
H466 C476 0.950 . S
H467 C478 0.950 . S
H468 C480 0.950 . S
H469 C481 0.950 . S
C470 H462 0.950 . S
C470 C471 1.386 . S
C470 C472 1.391 . S
C471 C470 1.386 . S
C471 C475 1.393 . S
C472 H464 0.950 . S
C472 C470 1.391 . S
C472 C473 1.400 . S
C473 C472 1.400 . S
C473 C474 1.398 . S
C473 C479 1.491 . S
C474 H465 0.950 . S
C474 C473 1.398 . S
C474 C475 1.391 . S
C475 H463 0.950 . S
C475 C471 1.393 . S
C475 C474 1.391 . S
C476 H466 0.950 . S
C476 C477 1.386 . S
C476 C478 1.391 . S
C477 C476 1.386 . S
C477 C481 1.393 . S
C478 H467 0.950 . S
C478 C476 1.391 . S
C478 C479 1.400 . S
C479 C473 1.491 . S
C479 C478 1.400 . S
C479 C480 1.398 . S
C480 H468 0.950 . S
C480 C479 1.398 . S
C480 C481 1.391 . S
C481 H469 0.950 . S
C481 C477 1.393 . S
C481 C480 1.391 . S
H482 C490 0.950 . S
H483 C495 0.950 . S
H484 C492 0.950 . S
H485 C494 0.950 . S
H486 C496 0.950 . S
H487 C498 0.950 . S
H488 C500 0.950 . S
H489 C501 0.950 . S
C490 H482 0.950 . S
C490 C491 1.386 . S
C490 C492 1.391 . S
C491 C490 1.386 . S
C491 C495 1.393 . S
C492 H484 0.950 . S
C492 C490 1.391 . S
C492 C493 1.400 . S
C493 C492 1.400 . S
C493 C494 1.398 . S
C493 C499 1.491 . S
C494 H485 0.950 . S
C494 C493 1.398 . S
C494 C495 1.391 . S
C495 H483 0.950 . S
C495 C491 1.393 . S
C495 C494 1.391 . S
C496 H486 0.950 . S
C496 C497 1.386 . S
C496 C498 1.391 . S
C497 C496 1.386 . S
C497 C501 1.393 . S
C498 H487 0.950 . S
C498 C496 1.391 . S
C498 C499 1.400 . S
C499 C493 1.491 . S
C499 C498 1.400 . S
C499 C500 1.398 . S
C500 H488 0.950 . S
C500 C499 1.398 . S
C500 C501 1.391 . S
C501 H489 0.950 . S
C501 C497 1.393 . S
C501 C500 1.391 . S
H502 C510 0.950 . S
H503 C515 0.950 . S
H504 C512 0.950 . S
H505 C514 0.950 . S
H506 C516 0.950 . S
H507 C518 0.950 . S
H508 C520 0.950 . S
H509 C521 0.950 . S
C510 H502 0.950 . S
C510 C511 1.386 . S
C510 C512 1.391 . S
C511 C510 1.386 . S
C511 C515 1.393 . S
C512 H504 0.950 . S
C512 C510 1.391 . S
C512 C513 1.400 . S
C513 C512 1.400 . S
C513 C514 1.398 . S
C513 C519 1.491 . S
C514 H505 0.950 . S
C514 C513 1.398 . S
C514 C515 1.391 . S
C515 H503 0.950 . S
C515 C511 1.393 . S
C515 C514 1.391 . S
C516 H506 0.950 . S
C516 C517 1.386 . S
C516 C518 1.391 . S
C517 C516 1.386 . S
C517 C521 1.393 . S
C518 H507 0.950 . S
C518 C516 1.391 . S
C518 C519 1.400 . S
C519 C513 1.491 . S
C519 C518 1.400 . S
C519 C520 1.398 . S
C520 H508 0.950 . S
C520 C519 1.398 . S
C520 C521 1.391 . S
C521 H509 0.950 . S
C521 C517 1.393 . S
C521 C520 1.391 . S
H522 C530 0.950 . S
H523 C535 0.950 . S
H524 C532 0.950 . S
H525 C534 0.950 . S
H526 C536 0.950 . S
H527 C538 0.950 . S
H528 C540 0.950 . S
H529 C541 0.950 . S
C530 H522 0.950 . S
C530 C531 1.386 . S
C530 C532 1.391 . S
C531 C530 1.386 . S
C531 C535 1.393 . S
C532 H524 0.950 . S
C532 C530 1.391 . S
C532 C533 1.400 . S
C533 C532 1.400 . S
C533 C534 1.398 . S
C533 C539 1.491 . S
C534 H525 0.950 . S
C534 C533 1.398 . S
C534 C535 1.391 . S
C535 H523 0.950 . S
C535 C531 1.393 . S
C535 C534 1.391 . S
C536 H526 0.950 . S
C536 C537 1.386 . S
C536 C538 1.391 . S
C537 C536 1.386 . S
C537 C541 1.393 . S
C538 H527 0.950 . S
C538 C536 1.391 . S
C538 C539 1.400 . S
C539 C533 1.491 . S
C539 C538 1.400 . S
C539 C540 1.398 . S
C540 H528 0.950 . S
C540 C539 1.398 . S
C540 C541 1.391 . S
C541 H529 0.950 . S
C541 C537 1.393 . S
C541 C540 1.391 . S
H542 C550 0.950 . S
H543 C555 0.950 . S
H544 C552 0.950 . S
H545 C554 0.950 . S
H546 C556 0.950 . S
H547 C558 0.950 . S
H548 C560 0.950 . S
H549 C561 0.950 . S
C550 H542 0.950 . S
C550 C551 1.386 . S
C550 C552 1.391 . S
C551 C550 1.386 . S
C551 C555 1.393 . S
C552 H544 0.950 . S
C552 C550 1.391 . S
C552 C553 1.400 . S
C553 C552 1.400 . S
C553 C554 1.398 . S
C553 C559 1.491 . S
C554 H545 0.950 . S
C554 C553 1.398 . S
C554 C555 1.391 . S
C555 H543 0.950 . S
C555 C551 1.393 . S
C555 C554 1.391 . S
C556 H546 0.950 . S
C556 C557 1.386 . S
C556 C558 1.391 . S
C557 C556 1.386 . S
C557 C561 1.393 . S
C558 H547 0.950 . S
C558 C556 1.391 . S
C558 C559 1.400 . S
C559 C553 1.491 . S
C559 C558 1.400 . S
C559 C560 1.398 . S
C560 H548 0.950 . S
C560 C559 1.398 . S
C560 C561 1.391 . S
C561 H549 0.950 . S
C561 C557 1.393 . S
C561 C560 1.391 . S
H562 C570 0.950 . S
H563 C575 0.950 . S
H564 C572 0.950 . S
H565 C574 0.950 . S
H566 C576 0.950 . S
H567 C578 0.950 . S
H568 C580 0.950 . S
H569 C581 0.950 . S
C570 H562 0.950 . S
C570 C571 1.386 . S
C570 C572 1.391 . S
C571 C570 1.386 . S
C571 C575 1.393 . S
C572 H564 0.950 . S
C572 C570 1.391 . S
C572 C573 1.400 . S
C573 C572 1.400 . S
C573 C574 1.398 . S
C573 C579 1.491 . S
C574 H565 0.950 . S
C574 C573 1.398 . S
C574 C575 1.391 . S
C575 H563 0.950 . S
C575 C571 1.393 . S
C575 C574 1.391 . S
C576 H566 0.950 . S
C576 C577 1.386 . S
C576 C578 1.391 . S
C577 C576 1.386 . S
C577 C581 1.393 . S
C578 H567 0.950 . S
C578 C576 1.391 . S
C578 C579 1.400 . S
C579 C573 1.491 . S
C579 C578 1.400 . S
C579 C580 1.398 . S
C580 H568 0.950 . S
C580 C579 1.398 . S
C580 C581 1.391 . S
C581 H569 0.950 . S
C581 C577 1.393 . S
C581 C580 1.391 . S
H582 C590 0.950 . S
H583 C595 0.950 . S
H584 C592 0.950 . S
H585 C594 0.950 . S
H586 C596 0.950 . S
H587 C598 0.950 . S
H588 C600 0.950 . S
H589 C601 0.950 . S
C590 H582 0.950 . S
C590 C591 1.386 . S
C590 C592 1.391 . S
C591 C590 1.386 . S
C591 C595 1.393 . S
C592 H584 0.950 . S
C592 C590 1.391 . S
C592 C593 1.400 . S
C593 C592 1.400 . S
C593 C594 1.398 . S
C593 C599 1.491 . S
C594 H585 0.950 . S
C594 C593 1.398 . S
C594 C595 1.391 . S
C595 H583 0.950 . S
C595 C591 1.393 . S
C595 C594 1.391 . S
C596 H586 0.950 . S
C596 C597 1.386 . S
C596 C598 1.391 . S
C597 C596 1.386 . S
C597 C601 1.393 . S
C598 H587 0.950 . S
C598 C596 1.391 . S
C598 C599 1.400 . S
C599 C593 1.491 . S
C599 C598 1.400 . S
C599 C600 1.398 . S
C600 H588 0.950 . S
C600 C599 1.398 . S
C600 C601 1.391 . S
C601 H589 0.950 . S
C601 C597 1.393 . S
C601 C600 1.391 . S
H602 C610 0.950 . S
H603 C615 0.950 . S
H604 C612 0.950 . S
H605 C614 0.950 . S
H606 C616 0.950 . S
H607 C618 0.950 . S
H608 C620 0.950 . S
H609 C621 0.950 . S
C610 H602 0.950 . S
C610 C611 1.386 . S
C610 C612 1.391 . S
C611 C610 1.386 . S
C611 C615 1.393 . S
C612 H604 0.950 . S
C612 C610 1.391 . S
C612 C613 1.400 . S
C613 C612 1.400 . S
C613 C614 1.398 . S
C613 C619 1.491 . S
C614 H605 0.950 . S
C614 C613 1.398 . S
C614 C615 1.391 . S
C615 H603 0.950 . S
C615 C611 1.393 . S
C615 C614 1.391 . S
C616 H606 0.950 . S
C616 C617 1.386 . S
C616 C618 1.391 . S
C617 C616 1.386 . S
C617 C621 1.393 . S
C618 H607 0.950 . S
C618 C616 1.391 . S
C618 C619 1.400 . S
C619 C613 1.491 . S
C619 C618 1.400 . S
C619 C620 1.398 . S
C620 H608 0.950 . S
C620 C619 1.398 . S
C620 C621 1.391 . S
C621 H609 0.950 . S
C621 C617 1.393 . S
C621 C620 1.391 . S
H622 C630 0.950 . S
H623 C635 0.950 . S
H624 C632 0.950 . S
H625 C634 0.950 . S
H626 C636 0.950 . S
H627 C638 0.950 . S
H628 C640 0.950 . S
H629 C641 0.950 . S
C630 H622 0.950 . S
C630 C631 1.386 . S
C630 C632 1.391 . S
C631 C630 1.386 . S
C631 C635 1.393 . S
C632 H624 0.950 . S
C632 C630 1.391 . S
C632 C633 1.400 . S
C633 C632 1.400 . S
C633 C634 1.398 . S
C633 C639 1.491 . S
C634 H625 0.950 . S
C634 C633 1.398 . S
C634 C635 1.391 . S
C635 H623 0.950 . S
C635 C631 1.393 . S
C635 C634 1.391 . S
C636 H626 0.950 . S
C636 C637 1.386 . S
C636 C638 1.391 . S
C637 C636 1.386 . S
C637 C641 1.393 . S
C638 H627 0.950 . S
C638 C636 1.391 . S
C638 C639 1.400 . S
C639 C633 1.491 . S
C639 C638 1.400 . S
C639 C640 1.398 . S
C640 H628 0.950 . S
C640 C639 1.398 . S
C640 C641 1.391 . S
C641 H629 0.950 . S
C641 C637 1.393 . S
C641 C640 1.391 . S
H642 C650 0.950 . S
H643 C655 0.950 . S
H644 C652 0.950 . S
H645 C654 0.950 . S
H646 C656 0.950 . S
H647 C658 0.950 . S
H648 C660 0.950 . S
H649 C661 0.950 . S
C650 H642 0.950 . S
C650 C651 1.386 . S
C650 C652 1.391 . S
C651 C650 1.386 . S
C651 C655 1.393 . S
C652 H644 0.950 . S
C652 C650 1.391 . S
C652 C653 1.400 . S
C653 C652 1.400 . S
C653 C654 1.398 . S
C653 C659 1.491 . S
C654 H645 0.950 . S
C654 C653 1.398 . S
C654 C655 1.391 . S
C655 H643 0.950 . S
C655 C651 1.393 . S
C655 C654 1.391 . S
C656 H646 0.950 . S
C656 C657 1.386 . S
C656 C658 1.391 . S
C657 C656 1.386 . S
C657 C661 1.393 . S
C658 H647 0.950 . S
C658 C656 1.391 . S
C658 C659 1.400 . S
C659 C653 1.491 . S
C659 C658 1.400 . S
C659 C660 1.398 . S
C660 H648 0.950 . S
C660 C659 1.398 . S
C660 C661 1.391 . S
C661 H649 0.950 . S
C661 C657 1.393 . S
C661 C660 1.391 . S
H662 C670 0.950 . S
H663 C675 0.950 . S
H664 C672 0.950 . S
H665 C674 0.950 . S
H666 C676 0.950 . S
H667 C678 0.950 . S
H668 C680 0.950 . S
H669 C681 0.950 . S
C670 H662 0.950 . S
C670 C671 1.386 . S
C670 C672 1.391 . S
C671 C670 1.386 . S
C671 C675 1.393 . S
C672 H664 0.950 . S
C672 C670 1.391 . S
C672 C673 1.400 . S
C673 C672 1.400 . S
C673 C674 1.398 . S
C673 C679 1.491 . S
C674 H665 0.950 . S
C674 C673 1.398 . S
C674 C675 1.391 . S
C675 H663 0.950 . S
C675 C671 1.393 . S
C675 C674 1.391 . S
C676 H666 0.950 . S
C676 C677 1.386 . S
C676 C678 1.391 . S
C677 C676 1.386 . S
C677 C681 1.393 . S
C678 H667 0.950 . S
C678 C676 1.391 . S
C678 C679 1.400 . S
C679 C673 1.491 . S
C679 C678 1.400 . S
C679 C680 1.398 . S
C680 H668 0.950 . S
C680 C679 1.398 . S
C680 C681 1.391 . S
C681 H669 0.950 . S
C681 C677 1.393 . S
C681 C680 1.391 . S
H682 C690 0.950 . S
H683 C695 0.950 . S
H684 C692 0.950 . S
H685 C694 0.950 . S
H686 C696 0.950 . S
H687 C698 0.950 . S
H688 C700 0.950 . S
H689 C701 0.950 . S
C690 H682 0.950 . S
C690 C691 1.386 . S
C690 C692 1.391 . S
C691 C690 1.386 . S
C691 C695 1.393 . S
C692 H684 0.950 . S
C692 C690 1.391 . S
C692 C693 1.400 . S
C693 C692 1.400 . S
C693 C694 1.398 . S
C693 C699 1.491 . S
C694 H685 0.950 . S
C694 C693 1.398 . S
C694 C695 1.391 . S
C695 H683 0.950 . S
C695 C691 1.393 . S
C695 C694 1.391 . S
C696 H686 0.950 . S
C696 C697 1.386 . S
C696 C698 1.391 . S
C697 C696 1.386 . S
C697 C701 1.393 . S
C698 H687 0.950 . S
C698 C696 1.391 . S
C698 C699 1.400 . S
C699 C693 1.491 . S
C699 C698 1.400 . S
C699 C700 1.398 . S
C700 H688 0.950 . S
C700 C699 1.398 . S
C700 C701 1.391 . S
C701 H689 0.950 . S
C701 C697 1.393 . S
C701 C700 1.391 . S
C231 C13 2.076 . S
C237 C91 2.040 . S
C251 C27 1.422 . S
C257 N109 1.420 . S
C277 C137 2.037 . S
C271 C29 2.074 . S
C297 N155 1.430 . S
C291 C54 1.432 . S
C317 C183 2.047 . S
C311 C69 2.078 . S
C337 N201 1.416 . S
C331 C83 1.431 . S
C351 C15 2.068 . S
C357 C146 2.064 . S
C371 C41 1.434 . S
C377 N165 1.357 . S
C397 C192 2.061 . S
C391 C42 2.069 . S
C417 N211 1.366 . S
C411 C57 1.434 . S
C431 C71 2.070 . S
C437 C100 2.063 . S
C457 N119 1.334 . S
C451 C1 1.427 . S
C477 C169 1.884 . S
C471 C12 1.936 . S
C491 C26 1.278 . S
C497 N188 1.240 . S
C517 C215 1.884 . S
C511 C28 1.936 . S
C531 C55 1.274 . S
C537 N96 1.251 . S
C551 C68 1.935 . S
C557 C123 1.877 . S
C571 C82 1.281 . S
C577 N142 1.265 . S
C591 C14 1.947 . S
C597 C206 1.927 . S
C617 N86 1.169 . S
C611 C40 1.273 . S
C631 C43 1.947 . S
C637 C114 1.926 . S
C651 C56 1.280 . S
C657 N132 1.206 . S
C671 C70 1.947 . S
C677 C160 1.928 . S
C691 C0 1.283 . S
C697 N178 1.202 . S
