# Generated by pormake.
# Topology pth, (4,4)-cn, num edge types: 1
# Building blocks:
#     Node 0, Type 0, BuildingBlock: UXUYUI_clean_sbu_0, # of connection points: 4
#     Node 1, Type 0, BuildingBlock: UXUYUI_clean_sbu_0, # of connection points: 4
#     Node 2, Type 0, BuildingBlock: UXUYUI_clean_sbu_0, # of connection points: 4
#     Node 3, Type 1, BuildingBlock: KOZSID_clean_sbu_0, # of connection points: 4
#     Node 4, Type 1, BuildingBlock: KOZSID_clean_sbu_0, # of connection points: 4
#     Node 5, Type 1, BuildingBlock: KOZSID_clean_sbu_0, # of connection points: 4
#     Edge 6, Type (0, 1), BuildingBlock: FUNLAD_clean_linker_0, # of connection points: 2
#     Edge 7, Type (0, 1), BuildingBlock: FUNLAD_clean_linker_0, # of connection points: 2
#     Edge 8, Type (0, 1), BuildingBlock: FUNLAD_clean_linker_0, # of connection points: 2
#     Edge 9, Type (0, 1), BuildingBlock: FUNLAD_clean_linker_0, # of connection points: 2
#     Edge 10, Type (0, 1), BuildingBlock: FUNLAD_clean_linker_0, # of connection points: 2
#     Edge 11, Type (0, 1), BuildingBlock: FUNLAD_clean_linker_0, # of connection points: 2
#     Edge 12, Type (0, 1), BuildingBlock: FUNLAD_clean_linker_0, # of connection points: 2
#     Edge 13, Type (0, 1), BuildingBlock: FUNLAD_clean_linker_0, # of connection points: 2
#     Edge 14, Type (0, 1), BuildingBlock: FUNLAD_clean_linker_0, # of connection points: 2
#     Edge 15, Type (0, 1), BuildingBlock: FUNLAD_clean_linker_0, # of connection points: 2
#     Edge 16, Type (0, 1), BuildingBlock: FUNLAD_clean_linker_0, # of connection points: 2
#     Edge 17, Type (0, 1), BuildingBlock: FUNLAD_clean_linker_0, # of connection points: 2
# Relax obj value: 0.074
# Max RMSD: 0.212
# Mean RMSD: 0.112
data_MOF--net-pth--node1-UXUYUI_clean_sbu_0--node2-KOZSID_clean_sbu_0--edge1-FUNLAD_clean_linker_0
_symmetry_space_group_name_H-M    P1
_symmetry_Int_Tables_number       1
_symmetry_cell_setting            triclinic
loop_
_symmetry_equiv_pos_as_xyz
'x, y, z'
_cell_length_a     35.946395
_cell_length_b     35.984327
_cell_length_c     81.851123
_cell_angle_alpha  88.051642
_cell_angle_beta   88.068792
_cell_angle_gamma 119.96263
loop_
_atom_site_label
_atom_site_type_symbol
_atom_site_fract_x
_atom_site_fract_y
_atom_site_fract_z
_atom_type_partial_charge
Li0 Li 0.09001 0.07417 0.02643 0.0
Li1 Li 0.03983 0.07327 0.04747 0.0
Li2 Li 0.06073 0.0161 0.04848 0.0
Li3 Li 0.01178 0.01601 0.02856 0.0
C4 C 0.13896 0.09961 0.05485 0.0
N5 N 0.22305 0.14057 0.06398 0.0
C6 C 0.15695 0.14024 0.06119 0.0
C7 C 0.16353 0.07951 0.05346 0.0
C8 C 0.19958 0.16053 0.06564 0.0
C9 C 0.20601 0.1008 0.05806 0.0
C10 C 0.02695 0.10976 0.02051 0.0
C11 C 0.97397 0.13214 0.01967 0.0
N12 N 0.00569 0.17305 0.01541 0.0
C13 C 0.05895 0.1519 0.01591 0.0
C14 C 0.98405 0.09967 0.02221 0.0
C15 C 0.04759 0.18348 0.01348 0.0
C16 C 0.14044 0.09912 0.99652 0.0
N17 N 0.13746 0.11166 0.01176 0.0
C18 C 0.19861 0.18116 0.00527 0.0
C19 C 0.16568 0.15175 0.01628 0.0
C20 C 0.20232 0.16938 0.98938 0.0
C21 C 0.1729 0.12757 0.98509 0.0
H22 H 0.11708 0.06728 0.99316 0.0
H23 H 0.16162 0.16155 0.0282 0.0
C24 C 0.99841 0.09554 0.07248 0.0
N25 N 0.02998 0.11093 0.0603 0.0
C26 C 0.99407 0.12384 0.0826 0.0
C27 C 0.05453 0.18314 0.06733 0.0
C28 C 0.05777 0.15374 0.05758 0.0
C29 C 0.02262 0.16829 0.08016 0.0
H30 H 0.97725 0.0613 0.0746 0.0
H31 H 0.08332 0.16502 0.0481 0.0
C32 C 0.08387 0.98921 0.01931 0.0
N33 N 0.12406 0.9452 0.00868 0.0
C34 C 0.0595 0.94705 0.01457 0.0
C35 C 0.12875 0.00927 0.01827 0.0
C36 C 0.08039 0.92524 0.00935 0.0
C37 C 0.14845 0.98642 0.01296 0.0
C38 C 0.96113 0.98096 0.0564 0.0
C39 C 0.94942 0.93986 0.06285 0.0
C40 C 0.92926 0.99141 0.05353 0.0
C41 C 0.9059 0.90959 0.06599 0.0
C42 C 0.88608 0.96026 0.05682 0.0
N43 N 0.87539 0.9203 0.06291 0.0
C44 C 0.08867 0.99204 0.07692 0.0
C45 C 0.05349 0.93712 0.0585 0.0
C46 C 0.09147 0.96324 0.088 0.0
N47 N 0.06993 0.97855 0.0625 0.0
C48 C 0.05546 0.90724 0.0692 0.0
C49 C 0.07425 0.92003 0.08427 0.0
H50 H 0.1005 0.02492 0.08 0.0
H51 H 0.03703 0.92675 0.04733 0.0
C52 C 0.94973 0.99143 0.00422 0.0
N53 N 0.96451 0.97734 0.01667 0.0
C54 C 0.91647 0.96192 0.99512 0.0
C55 C 0.91427 0.90422 0.01193 0.0
C56 C 0.94762 0.93473 0.02059 0.0
C57 C 0.89842 0.91763 0.99893 0.0
H58 H 0.96422 0.0255 0.00118 0.0
H59 H 0.96073 0.92441 0.03027 0.0
O60 O 0.0972 0.07932 0.05044 0.0
O61 O 0.03753 0.07847 0.02309 0.0
O62 O 0.06386 0.01112 0.02434 0.0
O63 O 0.00358 0.01086 0.05302 0.0
H64 H 0.13831 0.15608 0.06259 0.0
H65 H 0.14976 0.04751 0.04916 0.0
H66 H 0.21398 0.19211 0.07044 0.0
H67 H 0.22536 0.08559 0.05702 0.0
H68 H 0.9409 0.1248 0.02102 0.0
H69 H 0.09225 0.16025 0.01438 0.0
H70 H 0.95876 0.0671 0.02537 0.0
H71 H 0.07209 0.21629 0.01006 0.0
H72 H 0.21992 0.21333 0.00899 0.0
H73 H 0.17473 0.11707 0.973 0.0
H74 H 0.96891 0.11105 0.09232 0.0
H75 H 0.07777 0.21701 0.0652 0.0
H76 H 0.0248 0.93119 0.015 0.0
H77 H 0.14828 0.0423 0.0213 0.0
H78 H 0.06186 0.89248 0.00579 0.0
H79 H 0.18315 0.00156 0.01216 0.0
H80 H 0.97362 0.93131 0.06533 0.0
H81 H 0.93776 0.02325 0.04885 0.0
H82 H 0.89638 0.87757 0.07088 0.0
H83 H 0.86109 0.96788 0.05457 0.0
H84 H 0.10645 0.97459 0.09943 0.0
H85 H 0.0408 0.8741 0.06598 0.0
H86 H 0.90506 0.97361 0.98522 0.0
H87 H 0.90191 0.87044 0.01507 0.0
Li88 Li 0.02749 0.02006 0.36372 0.0
Li89 Li 0.07577 0.06951 0.38294 0.0
Li90 Li 0.99821 0.05175 0.38236 0.0
Li91 Li 0.0506 0.0992 0.36082 0.0
C92 C 0.00689 0.97122 0.39233 0.0
N93 N 0.97733 0.88531 0.40026 0.0
C94 C 0.03437 0.95834 0.39889 0.0
C95 C 0.96416 0.94046 0.39012 0.0
C96 C 0.01889 0.91475 0.40273 0.0
C97 C 0.94987 0.89718 0.39411 0.0
C98 C 0.12771 0.08798 0.35314 0.0
C99 C 0.1972 0.14936 0.34517 0.0
N100 N 0.21223 0.12254 0.34139 0.0
C101 C 0.14367 0.06105 0.34888 0.0
C102 C 0.15453 0.13251 0.35102 0.0
C103 C 0.18655 0.07911 0.34309 0.0
C104 C 0.99217 0.95836 0.33941 0.0
N105 N 0.01828 0.97146 0.35215 0.0
C106 C 0.03878 0.91874 0.34757 0.0
C107 C 0.04129 0.95236 0.35635 0.0
C108 C 0.01262 0.90484 0.33418 0.0
C109 C 0.98865 0.92474 0.33025 0.0
H110 H 0.97498 0.97475 0.33607 0.0
H111 H 0.06258 0.96404 0.36628 0.0
C112 C 0.13257 0.10235 0.40931 0.0
N113 N 0.12236 0.07824 0.39599 0.0
C114 C 0.1662 0.10696 0.41876 0.0
C115 C 0.17743 0.06104 0.40083 0.0
C116 C 0.14377 0.05747 0.39175 0.0
C117 C 0.18918 0.0861 0.41455 0.0
H118 H 0.11442 0.11776 0.41269 0.0
H119 H 0.13387 0.03702 0.38155 0.0
C120 C 0.95187 0.03645 0.35536 0.0
N121 N 0.86778 0.01393 0.35009 0.0
C122 C 0.94193 0.06778 0.35025 0.0
C123 C 0.91912 0.99354 0.35746 0.0
C124 C 0.89921 0.05581 0.34774 0.0
C125 C 0.87679 0.98282 0.35482 0.0
C126 C 0.07388 0.1505 0.38843 0.0
C127 C 0.05263 0.17057 0.39513 0.0
C128 C 0.11862 0.17361 0.38584 0.0
C129 C 0.07642 0.21374 0.39873 0.0
C130 C 0.1413 0.21669 0.38963 0.0
N131 N 0.1199 0.23573 0.39591 0.0
C132 C 0.92512 0.01354 0.40582 0.0
C133 C 0.93889 0.07669 0.39055 0.0
C134 C 0.88923 0.01145 0.41401 0.0
N135 N 0.94896 0.04582 0.39431 0.0
C136 C 0.90337 0.07578 0.39835 0.0
C137 C 0.87802 0.04298 0.41033 0.0
H138 H 0.93412 0.98969 0.40876 0.0
H139 H 0.95861 0.10214 0.38143 0.0
C140 C 0.08003 0.14983 0.33068 0.0
N141 N 0.06222 0.1461 0.346 0.0
C142 C 0.08388 0.1816 0.31929 0.0
C143 C 0.05109 0.20501 0.3397 0.0
C144 C 0.04797 0.17293 0.35065 0.0
C145 C 0.0688 0.20942 0.3237 0.0
H146 H 0.09025 0.12744 0.32718 0.0
H147 H 0.03223 0.16812 0.36263 0.0
O148 O 0.02164 0.01375 0.38832 0.0
O149 O 0.08563 0.07076 0.35871 0.0
O150 O 0.99347 0.04769 0.35811 0.0
O151 O 0.05098 0.10825 0.38476 0.0
H152 H 0.06734 0.98168 0.40093 0.0
H153 H 0.9422 0.9499 0.38544 0.0
H154 H 0.03992 0.90433 0.40769 0.0
H155 H 0.91691 0.87304 0.39237 0.0
H156 H 0.21831 0.18378 0.34355 0.0
H157 H 0.12329 0.02653 0.35012 0.0
H158 H 0.14249 0.15394 0.35363 0.0
H159 H 0.19937 0.05859 0.33991 0.0
H160 H 0.05749 0.90409 0.35114 0.0
H161 H 0.96857 0.91546 0.31988 0.0
H162 H 0.17417 0.12673 0.42919 0.0
H163 H 0.19331 0.04341 0.39737 0.0
H164 H 0.96683 0.10106 0.34837 0.0
H165 H 0.92628 0.9687 0.36097 0.0
H166 H 0.89106 0.07981 0.34393 0.0
H167 H 0.85113 0.94974 0.35649 0.0
H168 H 0.01811 0.1531 0.39747 0.0
H169 H 0.13577 0.15828 0.38125 0.0
H170 H 0.06033 0.22972 0.40379 0.0
H171 H 0.17594 0.23491 0.38766 0.0
H172 H 0.87103 0.98595 0.42334 0.0
H173 H 0.89574 0.10045 0.39493 0.0
H174 H 0.09796 0.18398 0.30713 0.0
H175 H 0.03804 0.22491 0.34353 0.0
Li176 Li 0.08126 0.0419 0.69081 0.0
Li177 Li 0.08287 0.08834 0.71204 0.0
Li178 Li 0.02775 0.01196 0.71316 0.0
Li179 Li 0.02589 0.06259 0.69325 0.0
C180 C 0.09163 0.01411 0.72732 0.0
N181 N 0.08881 0.96461 0.7544 0.0
C182 C 0.09816 0.03078 0.74281 0.0
C183 C 0.08374 0.97231 0.72559 0.0
C184 C 0.09663 0.00524 0.75635 0.0
C185 C 0.08238 0.94778 0.73943 0.0
C186 C 0.12134 0.14088 0.68584 0.0
C187 C 0.15031 0.2172 0.68733 0.0
N188 N 0.19019 0.22393 0.68304 0.0
C189 C 0.16258 0.14855 0.68137 0.0
C190 C 0.11508 0.17546 0.68876 0.0
C191 C 0.19697 0.19077 0.68004 0.0
C192 C 0.12214 0.04683 0.65996 0.0
N193 N 0.11829 0.03385 0.67603 0.0
C194 C 0.17493 0.01803 0.67205 0.0
C195 C 0.14354 0.01919 0.68216 0.0
C196 C 0.1806 0.0324 0.65549 0.0
C197 C 0.15311 0.04616 0.64939 0.0
H198 H 0.10221 0.05922 0.65551 0.0
H199 H 0.14026 0.0097 0.69503 0.0
C200 C 0.10984 0.15526 0.73474 0.0
N201 N 0.12222 0.13433 0.7243 0.0
C202 C 0.14036 0.18809 0.74372 0.0
C203 C 0.19545 0.17701 0.73098 0.0
C204 C 0.16392 0.14418 0.72244 0.0
C205 C 0.18383 0.19939 0.74181 0.0
H206 H 0.07634 0.14622 0.73623 0.0
H207 H 0.1726 0.12621 0.71436 0.0
C208 C 0.01691 0.98422 0.67595 0.0
N209 N 0.01831 0.94477 0.64774 0.0
C210 C 0.00771 0.99712 0.66105 0.0
C211 C 0.02671 0.95119 0.67651 0.0
C212 C 0.00857 0.97675 0.64693 0.0
C213 C 0.02732 0.9317 0.66211 0.0
C214 C 0.98878 0.07114 0.72013 0.0
C215 C 0.94708 0.03807 0.72473 0.0
C216 C 0.99682 0.11317 0.71755 0.0
C217 C 0.91401 0.04761 0.72655 0.0
C218 C 0.96287 0.12138 0.71948 0.0
N219 N 0.92252 0.08871 0.72389 0.0
C220 C 0.98452 0.96852 0.74321 0.0
C221 C 0.96894 0.9239 0.72083 0.0
C222 C 0.95353 0.93408 0.75332 0.0
N223 N 0.99108 0.96294 0.72725 0.0
C224 C 0.93781 0.88855 0.7305 0.0
C225 C 0.92904 0.89357 0.7469 0.0
H226 H 0.00216 0.00015 0.74789 0.0
H227 H 0.97448 0.92048 0.70806 0.0
C228 C 0.99831 0.10888 0.67221 0.0
N229 N 0.98624 0.07283 0.68193 0.0
C230 C 0.9674 0.11401 0.66407 0.0
C231 C 0.91257 0.04501 0.6762 0.0
C232 C 0.94448 0.04096 0.68388 0.0
C233 C 0.92386 0.08185 0.66613 0.0
H234 H 0.03185 0.13343 0.67068 0.0
H235 H 0.93602 0.01224 0.69139 0.0
O236 O 0.09194 0.0382 0.71397 0.0
O237 O 0.08736 0.09972 0.68748 0.0
O238 O 0.01703 0.00427 0.68986 0.0
O239 O 0.02144 0.06234 0.71796 0.0
H240 H 0.10393 0.06291 0.7444 0.0
H241 H 0.07811 0.95875 0.71371 0.0
H242 H 0.10149 0.01766 0.76842 0.0
H243 H 0.07607 0.9153 0.73829 0.0
H244 H 0.14595 0.24425 0.68964 0.0
H245 H 0.16814 0.12222 0.67917 0.0
H246 H 0.08342 0.17013 0.69221 0.0
H247 H 0.22909 0.19716 0.67669 0.0
H248 H 0.19506 0.00669 0.67722 0.0
H249 H 0.15671 0.05803 0.63676 0.0
H250 H 0.13015 0.20461 0.75197 0.0
H251 H 0.22847 0.18418 0.72939 0.0
H252 H 1.00035 0.0228 0.66035 0.0
H253 H 0.03443 0.94117 0.6879 0.0
H254 H 0.00164 0.98648 0.6353 0.0
H255 H 0.03512 0.90629 0.66235 0.0
H256 H 0.94015 0.00529 0.72664 0.0
H257 H 0.02883 0.13911 0.71395 0.0
H258 H 0.88154 0.0223 0.73002 0.0
H259 H 0.96861 0.15373 0.71742 0.0
H260 H 0.94755 0.93964 0.7658 0.0
H261 H 0.92023 0.85781 0.7251 0.0
H262 H 0.97733 0.14287 0.65637 0.0
H263 H 0.87949 0.01915 0.67786 0.0
C264 C 0.07838 0.62245 0.17908 0.0
C265 C 0.11821 0.65347 0.17207 0.0
C266 C 0.14835 0.64821 0.17983 0.0
C267 C 0.12536 0.61452 0.1911 0.0
N268 N 0.08226 0.59775 0.191 0.0
Co269 Co 0.03691 0.54858 0.20544 0.0
N270 N 0.08157 0.54223 0.21732 0.0
C271 C 0.12481 0.56665 0.21483 0.0
C272 C 0.14719 0.55449 0.22479 0.0
C273 C 0.11648 0.52007 0.23419 0.0
C274 C 0.07695 0.51326 0.22939 0.0
N275 N 0.99157 0.49886 0.21968 0.0
C276 C 0.99553 0.47341 0.23127 0.0
C277 C 0.95577 0.44157 0.23798 0.0
C278 C 0.92551 0.44679 0.23026 0.0
C279 C 0.94841 0.48136 0.21932 0.0
N280 N 0.9923 0.55549 0.19374 0.0
C281 C 0.94908 0.53197 0.19659 0.0
C282 C 0.92683 0.54485 0.18686 0.0
C283 C 0.95763 0.57889 0.17729 0.0
C284 C 0.99704 0.58482 0.18179 0.0
N285 N 0.03478 0.50778 0.18924 0.0
C286 C 0.03121 0.44899 0.16656 0.0
C287 C 0.9938 0.44766 0.17263 0.0
C288 C 0.99628 0.47697 0.18388 0.0
C289 C 0.07052 0.48033 0.172 0.0
C290 C 0.07158 0.50928 0.1832 0.0
N291 N 0.03889 0.58942 0.22161 0.0
C292 C 0.00212 0.61451 0.23948 0.0
C293 C 0.04111 0.64974 0.24328 0.0
C294 C 0.07905 0.65376 0.23629 0.0
C295 C 0.07723 0.62349 0.2256 0.0
C296 C 0.00177 0.585 0.22876 0.0
H297 H 0.10725 0.62852 0.22064 0.0
H298 H 0.97098 0.55917 0.22633 0.0
H299 H 0.96653 0.47383 0.18812 0.0
H300 H 0.10252 0.53255 0.18679 0.0
C301 C 0.14343 0.59933 0.20245 0.0
C302 C 0.038 0.61882 0.17437 0.0
C303 C 0.03606 0.4779 0.23624 0.0
C304 C 0.93036 0.49792 0.20848 0.0
H305 H 0.12489 0.67785 0.1625 0.0
H306 H 0.18294 0.6672 0.17773 0.0
H307 H 0.18172 0.56842 0.22496 0.0
H308 H 0.12252 0.50162 0.24335 0.0
H309 H 0.94935 0.41699 0.24743 0.0
H310 H 0.89091 0.42748 0.23228 0.0
H311 H 0.89233 0.53123 0.18677 0.0
H312 H 0.95178 0.59738 0.16808 0.0
H313 H 0.96252 0.42359 0.16894 0.0
H314 H 0.10045 0.4829 0.1675 0.0
H315 H 0.97176 0.61009 0.24443 0.0
H316 H 0.11016 0.68008 0.23907 0.0
C317 C 0.46831 0.02181 0.55474 0.0
C318 C 0.4337 0.98125 0.5592 0.0
C319 C 0.44366 0.95223 0.55316 0.0
C320 C 0.48346 0.97651 0.5453 0.0
N321 N 0.4996 0.01938 0.54597 0.0
Co322 Co 0.5555 0.06622 0.5355 0.0
N323 N 0.56786 0.02355 0.52519 0.0
C324 C 0.54536 0.98037 0.52777 0.0
C325 C 0.56628 0.96038 0.52161 0.0
C326 C 0.60363 0.99273 0.51415 0.0
C327 C 0.60216 0.03037 0.51544 0.0
N328 N 0.61168 0.11274 0.52519 0.0
C329 C 0.64122 0.10962 0.51549 0.0
C330 C 0.68057 0.14755 0.51489 0.0
C331 C 0.67389 0.17699 0.52261 0.0
C332 C 0.63171 0.15474 0.52835 0.0
N333 N 0.54292 0.10919 0.54549 0.0
C334 C 0.56843 0.15248 0.54435 0.0
C335 C 0.55067 0.17365 0.55205 0.0
C336 C 0.51134 0.14207 0.55837 0.0
C337 C 0.50734 0.10323 0.55413 0.0
N338 N 0.58589 0.06415 0.55529 0.0
C339 C 0.64139 0.06395 0.57887 0.0
C340 C 0.64127 0.10159 0.57432 0.0
C341 C 0.61309 0.10082 0.56282 0.0
C342 C 0.61041 0.02574 0.57265 0.0
C343 C 0.58275 0.0265 0.56122 0.0
N344 N 0.5257 0.06856 0.51601 0.0
C345 C 0.50871 0.1102 0.49715 0.0
C346 C 0.47395 0.07281 0.49186 0.0
C347 C 0.46767 0.03317 0.49799 0.0
C348 C 0.49401 0.0318 0.50992 0.0
C349 C 0.53424 0.10735 0.50904 0.0
H350 H 0.48756 0.00076 0.51442 0.0
H351 H 0.5601 0.13691 0.51279 0.0
H352 H 0.61467 0.13058 0.56012 0.0
H353 H 0.55953 0.99616 0.55732 0.0
C354 C 0.50586 0.96002 0.53679 0.0
C355 C 0.46966 0.06157 0.55897 0.0
C356 C 0.63174 0.07145 0.50647 0.0
C357 C 0.60973 0.17208 0.53663 0.0
H358 H 0.40407 0.97337 0.56598 0.0
H359 H 0.42396 0.91755 0.55419 0.0
H360 H 0.55589 0.92647 0.52259 0.0
H361 H 0.62848 0.98881 0.50801 0.0
H362 H 0.71111 0.1535 0.50954 0.0
H363 H 0.69716 0.21042 0.52404 0.0
H364 H 0.56481 0.20794 0.55311 0.0
H365 H 0.48839 0.14708 0.56543 0.0
H366 H 0.66394 0.13199 0.5791 0.0
H367 H 0.60778 0.99533 0.57642 0.0
H368 H 0.51583 0.14162 0.49233 0.0
H369 H 0.4415 0.0033 0.49414 0.0
C370 C 0.63299 0.5819 0.84453 0.0
C371 C 0.66447 0.5741 0.83806 0.0
C372 C 0.65886 0.5378 0.8462 0.0
C373 C 0.6243 0.52547 0.85706 0.0
N374 N 0.60711 0.55137 0.85621 0.0
Co375 Co 0.55665 0.54537 0.86974 0.0
N376 N 0.55198 0.49536 0.88316 0.0
C377 C 0.5782 0.47855 0.88192 0.0
C378 C 0.56756 0.44492 0.89301 0.0
C379 C 0.53219 0.43963 0.90181 0.0
C380 C 0.52307 0.47027 0.89543 0.0
N381 N 0.50535 0.53855 0.883 0.0
C382 C 0.47987 0.5083 0.89488 0.0
C383 C 0.4459 0.51373 0.90023 0.0
C384 C 0.45001 0.54857 0.89142 0.0
C385 C 0.4859 0.56224 0.88116 0.0
N386 N 0.56233 0.59636 0.85663 0.0
C387 C 0.53733 0.61444 0.85831 0.0
C388 C 0.55072 0.65071 0.84831 0.0
C389 C 0.58693 0.65667 0.83993 0.0
C390 C 0.59337 0.62339 0.84527 0.0
N391 N 0.51712 0.50565 0.85393 0.0
C392 C 0.45731 0.44686 0.83307 0.0
C393 C 0.45674 0.48407 0.83689 0.0
C394 C 0.4866 0.51271 0.84722 0.0
C395 C 0.48893 0.43997 0.83961 0.0
C396 C 0.51841 0.46965 0.84985 0.0
N397 N 0.59598 0.58507 0.88552 0.0
C398 C 0.61697 0.64551 0.9024 0.0
C399 C 0.6541 0.64495 0.90649 0.0
C400 C 0.66124 0.61334 0.90011 0.0
C401 C 0.63194 0.58388 0.88977 0.0
C402 C 0.58861 0.61553 0.89203 0.0
H403 H 0.63923 0.56067 0.88525 0.0
H404 H 0.56125 0.61811 0.88929 0.0
H405 H 0.4838 0.53997 0.84976 0.0
H406 H 0.54166 0.46252 0.85442 0.0
C407 C 0.61047 0.4929 0.8694 0.0
C408 C 0.63048 0.61993 0.83981 0.0
C409 C 0.48566 0.47308 0.90102 0.0
C410 C 0.50215 0.59721 0.86971 0.0
H411 H 0.68965 0.59339 0.82875 0.0
H412 H 0.67869 0.52316 0.84484 0.0
H413 H 0.58303 0.42584 0.89429 0.0
H414 H 0.51459 0.41538 0.91161 0.0
H415 H 0.4204 0.4942 0.90939 0.0
H416 H 0.42902 0.56202 0.89226 0.0
H417 H 0.53645 0.67096 0.84749 0.0
H418 H 0.60681 0.68302 0.83113 0.0
H419 H 0.4326 0.49067 0.83228 0.0
H420 H 0.49105 0.41186 0.8368 0.0
H421 H 0.61019 0.66964 0.90684 0.0
H422 H 0.68925 0.61119 0.90311 0.0
C423 C 0.02731 0.23893 0.08523 0.0
C424 C 0.02075 0.19901 0.09136 0.0
C425 C 0.02839 0.26899 0.09586 0.0
C426 C 0.02271 0.25968 0.11291 0.0
C427 C 0.01583 0.21966 0.11901 0.0
C428 C 0.01463 0.18956 0.10838 0.0
C429 C 0.02601 0.29156 0.12472 0.0
C430 C 0.01906 0.32424 0.12092 0.0
C431 C 0.0229 0.35614 0.1328 0.0
C432 C 0.99889 0.37683 0.1308 0.0
C433 C 0.00165 0.40701 0.14172 0.0
C434 C 0.02902 0.41762 0.15476 0.0
H435 H 0.0709 0.35301 0.14734 0.0
C436 C 0.05383 0.39766 0.15656 0.0
C437 C 0.05085 0.36725 0.1457 0.0
H438 H 0.07514 0.40511 0.1665 0.0
H439 H 0.03199 0.24712 0.07217 0.0
H440 H 0.03489 0.29983 0.09064 0.0
H441 H 0.01175 0.21177 0.13208 0.0
H442 H 0.01021 0.1594 0.11352 0.0
H443 H 0.03288 0.2868 0.13719 0.0
H444 H 0.00807 0.32672 0.10896 0.0
H445 H 0.97757 0.36932 0.12085 0.0
H446 H 0.98262 0.42234 0.13987 0.0
C447 C 0.84368 0.08106 0.42376 0.0
C448 C 0.84082 0.04247 0.41913 0.0
C449 C 0.80917 0.08087 0.43223 0.0
C450 C 0.77075 0.04198 0.43624 0.0
C451 C 0.7679 0.00343 0.43163 0.0
C452 C 0.80243 0.00363 0.42311 0.0
C453 C 0.73463 0.04003 0.44642 0.0
C454 C 0.72825 0.07368 0.44803 0.0
C455 C 0.69738 0.07347 0.46064 0.0
C456 C 0.70597 0.11223 0.46717 0.0
C457 C 0.68204 0.11236 0.48098 0.0
C458 C 0.65028 0.0735 0.48918 0.0
H459 H 0.64989 0.00567 0.46085 0.0
C460 C 0.63634 0.03606 0.48036 0.0
C461 C 0.66031 0.03567 0.46662 0.0
H462 H 0.60712 0.00651 0.48393 0.0
H463 H 0.87309 0.11148 0.42124 0.0
H464 H 0.81355 0.11119 0.43607 0.0
H465 H 0.7389 0.97295 0.4347 0.0
H466 H 0.79895 0.97336 0.4196 0.0
H467 H 0.71381 0.01 0.45345 0.0
H468 H 0.74895 0.10377 0.44105 0.0
H469 H 0.73231 0.14249 0.46197 0.0
H470 H 0.6892 0.14332 0.48486 0.0
C471 C 0.8963 0.85086 0.77369 0.0
C472 C 0.89288 0.85755 0.75691 0.0
C473 C 0.86146 0.81812 0.78318 0.0
C474 C 0.82229 0.79145 0.77608 0.0
C475 C 0.81928 0.79754 0.75926 0.0
C476 C 0.85398 0.83031 0.74981 0.0
C477 C 0.78413 0.75647 0.78562 0.0
C478 C 0.77694 0.7562 0.80191 0.0
C479 C 0.73836 0.7214 0.81133 0.0
C480 C 0.74083 0.71469 0.82817 0.0
C481 C 0.70554 0.68203 0.83745 0.0
C482 C 0.66698 0.65589 0.83007 0.0
H483 H 0.69536 0.70046 0.79126 0.0
C484 C 0.6639 0.66288 0.81336 0.0
C485 C 0.6992 0.69549 0.80405 0.0
H486 H 0.63424 0.64293 0.80752 0.0
H487 H 0.92605 0.87072 0.77948 0.0
H488 H 0.86572 0.81357 0.79596 0.0
H489 H 0.78963 0.77735 0.75345 0.0
H490 H 0.84991 0.83485 0.73698 0.0
H491 H 0.76074 0.73052 0.77876 0.0
H492 H 0.80035 0.78205 0.8088 0.0
H493 H 0.77037 0.73436 0.83413 0.0
H494 H 0.70838 0.67692 0.85036 0.0
C495 C 0.08051 0.8548 0.09111 0.0
C496 C 0.07367 0.88785 0.09633 0.0
C497 C 0.07733 0.82302 0.10232 0.0
C498 C 0.06704 0.8235 0.11902 0.0
C499 C 0.0616 0.85727 0.1243 0.0
C500 C 0.06462 0.88896 0.11309 0.0
C501 C 0.06243 0.78992 0.13134 0.0
C502 C 0.05098 0.74949 0.12764 0.0
C503 C 0.04618 0.71575 0.13993 0.0
C504 C 0.05017 0.68119 0.13452 0.0
C505 C 0.0468 0.64925 0.14568 0.0
C506 C 0.03897 0.65117 0.16242 0.0
H507 H 0.03218 0.7419 0.16138 0.0
C508 C 0.03367 0.68478 0.16788 0.0
C509 C 0.03708 0.7168 0.15674 0.0
H510 H 0.02729 0.68643 0.18079 0.0
H511 H 0.08849 0.85355 0.07834 0.0
H512 H 0.08348 0.79855 0.09782 0.0
H513 H 0.05403 0.85866 0.13712 0.0
H514 H 0.05872 0.91367 0.11753 0.0
H515 H 0.06785 0.79896 0.14392 0.0
H516 H 0.04552 0.74055 0.11504 0.0
H517 H 0.05668 0.67929 0.12164 0.0
H518 H 0.05086 0.62334 0.14129 0.0
C519 C 0.26144 0.09187 0.41709 0.0
C520 C 0.22436 0.0893 0.4246 0.0
C521 C 0.2937 0.09303 0.42652 0.0
C522 C 0.28957 0.09152 0.44372 0.0
C523 C 0.2531 0.0901 0.4512 0.0
C524 C 0.22076 0.08877 0.44177 0.0
C525 C 0.32295 0.09241 0.45425 0.0
C526 C 0.35004 0.07844 0.44963 0.0
C527 C 0.38241 0.07813 0.46043 0.0
C528 C 0.39656 0.04863 0.45794 0.0
C529 C 0.42648 0.04699 0.46801 0.0
C530 C 0.44338 0.07529 0.48067 0.0
H531 H 0.39099 0.13114 0.47491 0.0
C532 C 0.42996 0.10549 0.48291 0.0
C533 C 0.39997 0.10702 0.47289 0.0
H534 H 0.4421 0.12759 0.49261 0.0
H535 H 0.26577 0.09336 0.40388 0.0
H536 H 0.322 0.09572 0.42025 0.0
H537 H 0.24922 0.08926 0.46441 0.0
H538 H 0.19252 0.08638 0.44799 0.0
H539 H 0.32332 0.10263 0.4666 0.0
H540 H 0.3469 0.06431 0.43788 0.0
H541 H 0.384 0.02635 0.4483 0.0
H542 H 0.43654 0.02371 0.46583 0.0
C543 C 0.20985 0.23498 0.76817 0.0
C544 C 0.21702 0.2336 0.75128 0.0
C545 C 0.24218 0.26576 0.77724 0.0
C546 C 0.28232 0.29588 0.76955 0.0
C547 C 0.28888 0.29531 0.75259 0.0
C548 C 0.25674 0.2643 0.74356 0.0
C549 C 0.31767 0.32882 0.77875 0.0
C550 C 0.32302 0.32256 0.79463 0.0
C551 C 0.35881 0.35505 0.80383 0.0
C552 C 0.37176 0.34124 0.81765 0.0
C553 C 0.40438 0.3709 0.82693 0.0
C554 C 0.42443 0.41516 0.82268 0.0
H555 H 0.36929 0.41149 0.78924 0.0
C556 C 0.41153 0.42901 0.80883 0.0
C557 C 0.37905 0.39936 0.79953 0.0
H558 H 0.42646 0.46289 0.80521 0.0
H559 H 0.17955 0.21168 0.77445 0.0
H560 H 0.23548 0.26604 0.79021 0.0
H561 H 0.31926 0.31849 0.74633 0.0
H562 H 0.26294 0.26436 0.73051 0.0
H563 H 0.34142 0.35798 0.77188 0.0
H564 H 0.30162 0.29164 0.801 0.0
H565 H 0.35648 0.30736 0.82134 0.0
H566 H 0.41311 0.35923 0.83767 0.0
C567 C 0.89608 0.09776 0.6407 0.0
C568 C 0.89024 0.08574 0.6575 0.0
C569 C 0.863 0.09816 0.63232 0.0
C570 C 0.82346 0.08669 0.64063 0.0
C571 C 0.81836 0.07644 0.65755 0.0
C572 C 0.85124 0.07556 0.66588 0.0
C573 C 0.78706 0.0852 0.63202 0.0
C574 C 0.77979 0.0742 0.61639 0.0
C575 C 0.74264 0.07061 0.60765 0.0
C576 C 0.72873 0.0444 0.5943 0.0
C577 C 0.6951 0.04136 0.5853 0.0
C578 C 0.67483 0.06489 0.58933 0.0
H579 H 0.7325 0.11522 0.62179 0.0
C580 C 0.68854 0.09102 0.60275 0.0
C581 C 0.72209 0.09388 0.61183 0.0
H582 H 0.67353 0.10949 0.60617 0.0
H583 H 0.92581 0.10574 0.63394 0.0
H584 H 0.86852 0.10749 0.61936 0.0
H585 H 0.78846 0.06804 0.66427 0.0
H586 H 0.8461 0.06673 0.67889 0.0
H587 H 0.76405 0.09017 0.63915 0.0
H588 H 0.80066 0.06512 0.6099 0.0
H589 H 0.74416 0.02639 0.59074 0.0
H590 H 0.68585 0.02152 0.57487 0.0
C591 C 0.86739 0.89054 0.97192 0.0
C592 C 0.86437 0.88532 0.9891 0.0
C593 C 0.83675 0.85877 0.96264 0.0
C594 C 0.80244 0.82099 0.97036 0.0
C595 C 0.79869 0.81652 0.98753 0.0
C596 C 0.82941 0.84817 0.9968 0.0
C597 C 0.76958 0.786 0.96098 0.0
C598 C 0.77735 0.77844 0.94557 0.0
C599 C 0.74493 0.74298 0.93619 0.0
C600 C 0.75925 0.72919 0.92277 0.0
C601 C 0.7299 0.69687 0.91332 0.0
C602 C 0.68542 0.67777 0.91701 0.0
H603 H 0.68776 0.73413 0.94985 0.0
C604 C 0.67105 0.69147 0.93048 0.0
C605 C 0.70038 0.7238 0.93992 0.0
H606 H 0.63701 0.67726 0.93372 0.0
H607 H 0.894 0.91877 0.96562 0.0
H608 H 0.84001 0.86413 0.94945 0.0
H609 H 0.77227 0.78807 0.99381 0.0
H610 H 0.82581 0.84352 0.01003 0.0
H611 H 0.73891 0.76435 0.96745 0.0
H612 H 0.8094 0.79774 0.93974 0.0
H613 H 0.79332 0.74362 0.91951 0.0
H614 H 0.74206 0.6876 0.90287 0.0
C615 C 0.05011 0.87089 0.32 0.0
C616 C 0.01185 0.87105 0.32401 0.0
C617 C 0.04978 0.83945 0.31036 0.0
C618 C 0.01112 0.80751 0.30438 0.0
C619 C 0.9728 0.80731 0.30857 0.0
C620 C 0.97315 0.83887 0.31819 0.0
C621 C 0.00947 0.77335 0.29417 0.0
C622 C 0.04337 0.77841 0.28474 0.0
C623 C 0.04197 0.74462 0.27439 0.0
C624 C 0.07129 0.75702 0.26077 0.0
C625 C 0.07119 0.72631 0.25074 0.0
C626 C 0.04199 0.68234 0.25421 0.0
H627 H 0.99111 0.68957 0.28876 0.0
C628 C 0.01316 0.66984 0.26805 0.0
C629 C 0.01317 0.70058 0.27805 0.0
H630 H 0.99088 0.6362 0.27128 0.0
H631 H 0.08054 0.89539 0.32418 0.0
H632 H 0.07982 0.84005 0.30786 0.0
H633 H 0.94249 0.7828 0.30429 0.0
H634 H 0.94304 0.83776 0.32124 0.0
H635 H 0.97866 0.74399 0.29384 0.0
H636 H 0.07291 0.8093 0.28385 0.0
H637 H 0.09404 0.79068 0.25773 0.0
H638 H 0.09353 0.73715 0.2401 0.0
C639 C 0.21066 0.02381 0.62857 0.0
C640 C 0.2165 0.03528 0.64492 0.0
C641 C 0.24487 0.02735 0.61863 0.0
C642 C 0.28586 0.04291 0.62482 0.0
C643 C 0.29143 0.05397 0.6412 0.0
C644 C 0.25729 0.05036 0.65111 0.0
C645 C 0.3233 0.04686 0.61491 0.0
C646 C 0.32637 0.04875 0.5984 0.0
C647 C 0.36414 0.05275 0.5887 0.0
C648 C 0.37107 0.06794 0.57219 0.0
C649 C 0.40563 0.07132 0.56256 0.0
C650 C 0.43376 0.05938 0.56926 0.0
H651 H 0.38766 0.02729 0.60776 0.0
C652 C 0.42706 0.04415 0.58569 0.0
C653 C 0.39244 0.04054 0.59531 0.0
H654 H 0.44833 0.03445 0.591 0.0
H655 H 0.17944 0.01147 0.62352 0.0
H656 H 0.23869 0.01713 0.60626 0.0
H657 H 0.3225 0.06584 0.64634 0.0
H658 H 0.26309 0.06008 0.66358 0.0
H659 H 0.35021 0.05026 0.62165 0.0
H660 H 0.3012 0.04919 0.59159 0.0
H661 H 0.34967 0.07723 0.56671 0.0
H662 H 0.41025 0.08291 0.54984 0.0
C663 C 0.27715 0.22997 0.98181 0.0
C664 C 0.23542 0.20131 0.97719 0.0
C665 C 0.30755 0.26166 0.9706 0.0
C666 C 0.29674 0.26564 0.95451 0.0
C667 C 0.25547 0.23616 0.94977 0.0
C668 C 0.22509 0.20445 0.96098 0.0
C669 C 0.32768 0.29951 0.94227 0.0
C670 C 0.36107 0.33709 0.94638 0.0
C671 C 0.39177 0.37159 0.93425 0.0
C672 C 0.41736 0.4133 0.93954 0.0
C673 C 0.44741 0.44648 0.92871 0.0
C674 C 0.45241 0.43853 0.91238 0.0
H675 H 0.37937 0.33202 0.91329 0.0
C676 C 0.42714 0.39705 0.907 0.0
C677 C 0.39723 0.36378 0.91783 0.0
H678 H 0.43108 0.39031 0.89446 0.0
H679 H 0.28639 0.22779 0.99411 0.0
H680 H 0.33949 0.28257 0.97458 0.0
H681 H 0.24638 0.23817 0.93742 0.0
H682 H 0.19313 0.18314 0.95705 0.0
H683 H 0.32095 0.29395 0.92948 0.0
H684 H 0.36529 0.344 0.95921 0.0
H685 H 0.4142 0.42023 0.95213 0.0
H686 H 0.46706 0.47826 0.9331 0.0
C687 C 0.07793 0.28195 0.31626 0.0
C688 C 0.06908 0.24124 0.31155 0.0
C689 C 0.07488 0.31064 0.3052 0.0
C690 C 0.06274 0.29916 0.28915 0.0
C691 C 0.05554 0.25919 0.28426 0.0
C692 C 0.05842 0.23042 0.29534 0.0
C693 C 0.05791 0.32819 0.27715 0.0
C694 C 0.04731 0.35764 0.28157 0.0
C695 C 0.04257 0.38705 0.2697 0.0
C696 C 0.04697 0.42556 0.2752 0.0
C697 C 0.04394 0.45473 0.2644 0.0
C698 C 0.03602 0.44563 0.24796 0.0
H699 H 0.02815 0.34764 0.24863 0.0
C700 C 0.03023 0.40674 0.24248 0.0
C701 C 0.03332 0.37754 0.25326 0.0
H702 H 0.02386 0.39926 0.22981 0.0
H703 H 0.08722 0.29171 0.32853 0.0
H704 H 0.08247 0.34182 0.30926 0.0
H705 H 0.04659 0.24972 0.27193 0.0
H706 H 0.05101 0.19921 0.29133 0.0
H707 H 0.06242 0.32423 0.26429 0.0
H708 H 0.04261 0.36121 0.29446 0.0
H709 H 0.05362 0.43352 0.28781 0.0
H710 H 0.04846 0.4847 0.26879 0.0
loop_
_geom_bond_atom_site_label_1
_geom_bond_atom_site_label_2
_geom_bond_distance
_geom_bond_site_symmetry_2
_ccdc_geom_bond_type
Li0 N17 1.990 . S
Li0 O60 1.956 . S
Li0 O61 1.970 . S
Li0 O62 1.961 . S
Li1 N25 1.990 . S
Li1 O60 1.970 . S
Li1 O61 1.956 . S
Li1 O63 1.961 . S
Li2 N47 1.990 1_545 S
Li2 O60 1.961 . S
Li2 O62 1.956 . S
Li2 O63 1.970 . S
Li3 N53 1.990 1_445 S
Li3 O61 1.961 . S
Li3 O62 1.970 . S
Li3 O63 1.956 . S
C4 C6 1.348 . S
C4 C7 1.356 . S
C4 O60 1.325 . S
N5 C8 1.314 . S
N5 C9 1.279 . S
C6 C4 1.348 . S
C6 C8 1.353 . S
C6 H64 0.929 . S
C7 C4 1.356 . S
C7 C9 1.358 . S
C7 H65 0.930 . S
C8 N5 1.314 . S
C8 C6 1.353 . S
C8 H66 0.930 . S
C9 N5 1.279 . S
C9 C7 1.358 . S
C9 H67 0.930 . S
C10 C13 1.348 . S
C10 C14 1.356 . S
C10 O61 1.325 . S
C11 N12 1.279 1_654 S
C11 C14 1.358 1_655 S
C11 H68 0.930 . S
N12 C11 1.279 1_456 S
N12 C15 1.314 . S
C13 C10 1.348 . S
C13 C15 1.353 1_554 S
C13 H69 0.929 . S
C14 C10 1.356 . S
C14 C11 1.358 1_455 S
C14 H70 0.930 1_455 S
C15 N12 1.314 . S
C15 C13 1.353 1_556 S
C15 H71 0.930 . S
C16 N17 1.314 1_556 S
C16 C21 1.353 . S
C16 H22 0.930 . S
N17 Li0 1.990 . S
N17 C16 1.314 1_554 S
N17 C19 1.279 . S
C18 C19 1.358 . S
C18 C20 1.356 1_554 S
C18 H72 0.930 . S
C19 N17 1.279 . S
C19 C18 1.358 . S
C19 H23 0.930 . S
C20 C18 1.356 1_556 S
C20 C21 1.348 . S
C21 C16 1.353 . S
C21 C20 1.348 . S
C21 H73 0.929 . S
H22 C16 0.930 . S
H23 C19 0.930 . S
C24 N25 1.314 . S
C24 C26 1.353 . S
C24 H30 0.930 . S
N25 Li1 1.990 . S
N25 C24 1.314 . S
N25 C28 1.279 . S
C26 C24 1.353 . S
C26 C29 1.348 . S
C26 H74 0.929 . S
C27 C28 1.358 . S
C27 C29 1.356 . S
C27 H75 0.930 . S
C28 N25 1.279 . S
C28 C27 1.358 . S
C28 H31 0.930 . S
C29 C26 1.348 . S
C29 C27 1.356 . S
H30 C24 0.930 . S
H31 C28 0.930 . S
C32 C34 1.348 . S
C32 C35 1.353 . S
C32 O62 1.325 1_565 S
N33 C36 1.312 1_556 S
N33 C37 1.279 1_556 S
C34 C32 1.348 . S
C34 C36 1.365 . S
C34 H76 0.929 . S
C35 C32 1.353 . S
C35 C37 1.365 . S
C35 H77 0.926 1_565 S
C36 N33 1.312 1_554 S
C36 C34 1.365 . S
C36 H78 0.919 1_554 S
C37 N33 1.279 1_554 S
C37 C35 1.365 . S
C37 H79 0.930 . S
C38 C39 1.348 . S
C38 C40 1.356 . S
C38 O63 1.325 1_665 S
C39 C38 1.348 . S
C39 C41 1.353 . S
C39 H80 0.929 . S
C40 C38 1.356 . S
C40 C42 1.358 . S
C40 H81 0.930 1_565 S
C41 C39 1.353 . S
C41 N43 1.314 . S
C41 H82 0.930 . S
C42 C40 1.358 . S
C42 N43 1.279 . S
C42 H83 0.930 . S
N43 C41 1.314 . S
N43 C42 1.279 . S
C44 C46 1.353 . S
C44 N47 1.314 . S
C44 H50 0.930 1_565 S
C45 N47 1.279 . S
C45 C48 1.358 . S
C45 H51 0.930 . S
C46 C44 1.353 . S
C46 C49 1.348 . S
C46 H84 0.929 . S
N47 Li2 1.990 1_565 S
N47 C44 1.314 . S
N47 C45 1.279 . S
C48 C45 1.358 . S
C48 C49 1.356 . S
C48 H85 0.930 . S
C49 C46 1.348 . S
C49 C48 1.356 . S
H50 C44 0.930 1_545 S
H51 C45 0.930 . S
C52 N53 1.314 1_556 S
C52 C54 1.353 . S
C52 H58 0.930 1_565 S
N53 Li3 1.990 1_665 S
N53 C52 1.314 1_554 S
N53 C56 1.279 . S
C54 C52 1.353 . S
C54 C57 1.348 . S
C54 H86 0.929 . S
C55 C56 1.358 . S
C55 C57 1.356 1_554 S
C55 H87 0.930 . S
C56 N53 1.279 . S
C56 C55 1.358 . S
C56 H59 0.930 . S
C57 C54 1.348 . S
C57 C55 1.356 1_556 S
H58 C52 0.930 1_545 S
H59 C56 0.930 . S
O60 Li0 1.956 . S
O60 Li1 1.970 . S
O60 Li2 1.961 . S
O60 C4 1.325 . S
O61 Li0 1.970 . S
O61 Li1 1.956 . S
O61 Li3 1.961 . S
O61 C10 1.325 . S
O62 Li0 1.961 . S
O62 Li2 1.956 . S
O62 Li3 1.970 . S
O62 C32 1.325 1_545 S
O63 Li1 1.961 . S
O63 Li2 1.970 . S
O63 Li3 1.956 . S
O63 C38 1.325 1_445 S
H64 C6 0.929 . S
H65 C7 0.930 . S
H66 C8 0.930 . S
H67 C9 0.930 . S
H68 C11 0.930 . S
H69 C13 0.929 . S
H70 C14 0.930 1_655 S
H71 C15 0.930 . S
H72 C18 0.930 . S
H73 C21 0.929 . S
H74 C26 0.929 . S
H75 C27 0.930 . S
H76 C34 0.929 . S
H77 C35 0.926 1_545 S
H78 C36 0.919 1_556 S
H79 C37 0.930 . S
H80 C39 0.929 . S
H81 C40 0.930 1_545 S
H82 C41 0.930 . S
H83 C42 0.930 . S
H84 C46 0.929 . S
H85 C48 0.930 . S
H86 C54 0.929 . S
H87 C55 0.930 . S
Li88 N105 1.990 1_545 S
Li88 O148 1.956 . S
Li88 O149 1.970 . S
Li88 O150 1.961 1_455 S
Li89 N113 1.990 . S
Li89 O148 1.970 . S
Li89 O149 1.956 . S
Li89 O151 1.961 . S
Li90 N135 1.990 . S
Li90 O148 1.961 1_655 S
Li90 O150 1.956 . S
Li90 O151 1.970 1_655 S
Li91 N141 1.990 . S
Li91 O149 1.961 . S
Li91 O150 1.970 1_455 S
Li91 O151 1.956 . S
C92 C94 1.348 . S
C92 C95 1.356 1_455 S
C92 O148 1.325 1_565 S
N93 C96 1.314 1_655 S
N93 C97 1.279 . S
C94 C92 1.348 . S
C94 C96 1.353 . S
C94 H152 0.929 1_565 S
C95 C92 1.356 1_655 S
C95 C97 1.358 . S
C95 H153 0.930 . S
C96 N93 1.314 1_455 S
C96 C94 1.353 . S
C96 H154 0.930 . S
C97 N93 1.279 . S
C97 C95 1.358 . S
C97 H155 0.930 . S
C98 C101 1.348 . S
C98 C102 1.356 . S
C98 O149 1.325 . S
C99 N100 1.279 . S
C99 C102 1.358 . S
C99 H156 0.930 . S
N100 C99 1.279 . S
N100 C103 1.314 . S
C101 C98 1.348 . S
C101 C103 1.353 . S
C101 H157 0.929 . S
C102 C98 1.356 . S
C102 C99 1.358 . S
C102 H158 0.930 . S
C103 N100 1.314 . S
C103 C101 1.353 . S
C103 H159 0.930 . S
C104 N105 1.314 1_655 S
C104 C109 1.353 . S
C104 H110 0.930 . S
N105 Li88 1.990 1_565 S
N105 C104 1.314 1_455 S
N105 C107 1.279 . S
C106 C107 1.358 1_655 S
C106 C108 1.356 . S
C106 H160 0.930 . S
C107 N105 1.279 . S
C107 C106 1.358 1_455 S
C107 H111 0.930 . S
C108 C106 1.356 . S
C108 C109 1.348 . S
C109 C104 1.353 . S
C109 C108 1.348 . S
C109 H161 0.929 . S
H110 C104 0.930 . S
H111 C107 0.930 . S
C112 N113 1.314 . S
C112 C114 1.353 . S
C112 H118 0.930 . S
N113 Li89 1.990 . S
N113 C112 1.314 . S
N113 C116 1.279 . S
C114 C112 1.353 . S
C114 C117 1.348 . S
C114 H162 0.929 . S
C115 C116 1.358 . S
C115 C117 1.356 . S
C115 H163 0.930 . S
C116 N113 1.279 . S
C116 C115 1.358 . S
C116 H119 0.930 . S
C117 C114 1.348 . S
C117 C115 1.356 . S
H118 C112 0.930 . S
H119 C116 0.930 . S
C120 C122 1.348 . S
C120 C123 1.356 . S
C120 O150 1.325 . S
N121 C124 1.314 . S
N121 C125 1.279 1_545 S
C122 C120 1.348 . S
C122 C124 1.353 . S
C122 H164 0.929 . S
C123 C120 1.356 . S
C123 C125 1.358 1_545 S
C123 H165 0.930 1_545 S
C124 N121 1.314 . S
C124 C122 1.353 . S
C124 H166 0.930 . S
C125 N121 1.279 1_565 S
C125 C123 1.358 1_565 S
C125 H167 0.930 . S
C126 C127 1.348 . S
C126 C128 1.356 . S
C126 O151 1.325 . S
C127 C126 1.348 . S
C127 C129 1.353 . S
C127 H168 0.929 1_455 S
C128 C126 1.356 . S
C128 C130 1.358 . S
C128 H169 0.930 . S
C129 C127 1.353 . S
C129 N131 1.314 . S
C129 H170 0.930 . S
C130 C128 1.358 . S
C130 N131 1.279 . S
C130 H171 0.930 . S
N131 C129 1.314 . S
N131 C130 1.279 . S
C132 C134 1.353 . S
C132 N135 1.314 . S
C132 H138 0.930 . S
C133 N135 1.279 . S
C133 C136 1.358 . S
C133 H139 0.930 . S
C134 C132 1.353 . S
C134 C137 1.348 . S
C134 H172 0.929 . S
N135 Li90 1.990 . S
N135 C132 1.314 . S
N135 C133 1.279 . S
C136 C133 1.358 . S
C136 C137 1.356 . S
C136 H173 0.930 . S
C137 C134 1.348 . S
C137 C136 1.356 . S
H138 C132 0.930 . S
H139 C133 0.930 . S
C140 N141 1.314 . S
C140 C142 1.353 . S
C140 H146 0.930 . S
N141 Li91 1.990 . S
N141 C140 1.314 . S
N141 C144 1.279 . S
C142 C140 1.353 . S
C142 C145 1.348 . S
C142 H174 0.929 . S
C143 C144 1.358 . S
C143 C145 1.356 . S
C143 H175 0.930 . S
C144 N141 1.279 . S
C144 C143 1.358 . S
C144 H147 0.930 . S
C145 C142 1.348 . S
C145 C143 1.356 . S
H146 C140 0.930 . S
H147 C144 0.930 . S
O148 Li88 1.956 . S
O148 Li89 1.970 . S
O148 Li90 1.961 1_455 S
O148 C92 1.325 1_545 S
O149 Li88 1.970 . S
O149 Li89 1.956 . S
O149 Li91 1.961 . S
O149 C98 1.325 . S
O150 Li88 1.961 1_655 S
O150 Li90 1.956 . S
O150 Li91 1.970 1_655 S
O150 C120 1.325 . S
O151 Li89 1.961 . S
O151 Li90 1.970 1_455 S
O151 Li91 1.956 . S
O151 C126 1.325 . S
H152 C94 0.929 1_545 S
H153 C95 0.930 . S
H154 C96 0.930 . S
H155 C97 0.930 . S
H156 C99 0.930 . S
H157 C101 0.929 . S
H158 C102 0.930 . S
H159 C103 0.930 . S
H160 C106 0.930 . S
H161 C109 0.929 . S
H162 C114 0.929 . S
H163 C115 0.930 . S
H164 C122 0.929 . S
H165 C123 0.930 1_565 S
H166 C124 0.930 . S
H167 C125 0.930 . S
H168 C127 0.929 1_655 S
H169 C128 0.930 . S
H170 C129 0.930 . S
H171 C130 0.930 . S
H172 C134 0.929 . S
H173 C136 0.930 . S
H174 C142 0.929 . S
H175 C143 0.930 . S
Li176 N193 1.990 . S
Li176 O236 1.956 . S
Li176 O237 1.970 . S
Li176 O238 1.961 1_545 S
Li177 N201 1.990 . S
Li177 O236 1.970 . S
Li177 O237 1.956 . S
Li177 O239 1.961 . S
Li178 N223 1.990 1_455 S
Li178 O236 1.961 1_565 S
Li178 O238 1.956 . S
Li178 O239 1.970 1_565 S
Li179 N229 1.990 1_455 S
Li179 O237 1.961 . S
Li179 O238 1.970 1_545 S
Li179 O239 1.956 . S
C180 C182 1.348 . S
C180 C183 1.356 1_545 S
C180 O236 1.325 . S
N181 C184 1.314 1_565 S
N181 C185 1.279 . S
C182 C180 1.348 . S
C182 C184 1.353 . S
C182 H240 0.929 . S
C183 C180 1.356 1_565 S
C183 C185 1.358 . S
C183 H241 0.930 . S
C184 N181 1.314 1_545 S
C184 C182 1.353 . S
C184 H242 0.930 . S
C185 N181 1.279 . S
C185 C183 1.358 . S
C185 H243 0.930 . S
C186 C189 1.348 . S
C186 C190 1.356 . S
C186 O237 1.325 . S
C187 N188 1.279 . S
C187 C190 1.358 . S
C187 H244 0.930 . S
N188 C187 1.279 . S
N188 C191 1.314 . S
C189 C186 1.348 . S
C189 C191 1.353 . S
C189 H245 0.929 . S
C190 C186 1.356 . S
C190 C187 1.358 . S
C190 H246 0.930 . S
C191 N188 1.314 . S
C191 C189 1.353 . S
C191 H247 0.930 . S
C192 N193 1.314 . S
C192 C197 1.369 . S
C192 H198 0.930 . S
N193 Li176 1.990 . S
N193 C192 1.314 . S
N193 C195 1.279 . S
C194 C195 1.358 . S
C194 C196 1.356 . S
C194 H248 0.930 . S
C195 N193 1.279 . S
C195 C194 1.358 . S
C195 H199 0.930 . S
C196 C194 1.356 . S
C196 C197 1.335 . S
C197 C192 1.369 . S
C197 C196 1.335 . S
C197 H249 0.927 1_545 S
H198 C192 0.930 . S
H199 C195 0.930 . S
C200 N201 1.314 . S
C200 C202 1.353 . S
C200 H206 0.930 . S
N201 Li177 1.990 . S
N201 C200 1.314 . S
N201 C204 1.279 . S
C202 C200 1.353 . S
C202 C205 1.348 . S
C202 H250 0.929 . S
C203 C204 1.358 . S
C203 C205 1.356 . S
C203 H251 0.930 . S
C204 N201 1.279 . S
C204 C203 1.358 . S
C204 H207 0.930 . S
C205 C202 1.348 . S
C205 C203 1.356 . S
H206 C200 0.930 . S
H207 C204 0.930 . S
C208 C210 1.348 . S
C208 C211 1.356 1_655 S
C208 O238 1.325 1_655 S
N209 C212 1.314 . S
N209 C213 1.279 . S
C210 C208 1.348 . S
C210 C212 1.353 . S
C210 H252 0.929 . S
C211 C208 1.356 1_455 S
C211 C213 1.358 1_455 S
C211 H253 0.930 . S
C212 N209 1.314 . S
C212 C210 1.353 . S
C212 H254 0.930 . S
C213 N209 1.279 . S
C213 C211 1.358 1_655 S
C213 H255 0.930 . S
C214 C215 1.348 . S
C214 C216 1.356 1_655 S
C214 O239 1.325 1_655 S
C215 C214 1.348 . S
C215 C217 1.353 . S
C215 H256 0.929 1_545 S
C216 C214 1.356 1_455 S
C216 C218 1.358 1_455 S
C216 H257 0.930 . S
C217 C215 1.353 . S
C217 N219 1.314 . S
C217 H258 0.930 . S
C218 C216 1.358 1_655 S
C218 N219 1.279 . S
C218 H259 0.930 . S
N219 C217 1.314 . S
N219 C218 1.279 . S
C220 C222 1.353 . S
C220 N223 1.314 . S
C220 H226 0.930 1_655 S
C221 N223 1.279 . S
C221 C224 1.358 . S
C221 H227 0.930 . S
C222 C220 1.353 . S
C222 C225 1.348 . S
C222 H260 0.929 . S
N223 Li178 1.990 1_655 S
N223 C220 1.314 . S
N223 C221 1.279 . S
C224 C221 1.358 . S
C224 C225 1.356 . S
C224 H261 0.930 . S
C225 C222 1.348 . S
C225 C224 1.356 . S
H226 C220 0.930 1_455 S
H227 C221 0.930 . S
C228 N229 1.314 . S
C228 C230 1.353 . S
C228 H234 0.930 1_655 S
N229 Li179 1.990 1_655 S
N229 C228 1.314 . S
N229 C232 1.279 . S
C230 C228 1.353 . S
C230 C233 1.348 . S
C230 H262 0.929 . S
C231 C232 1.358 . S
C231 C233 1.356 . S
C231 H263 0.930 . S
C232 N229 1.279 . S
C232 C231 1.358 . S
C232 H235 0.930 . S
C233 C230 1.348 . S
C233 C231 1.356 . S
H234 C228 0.930 1_455 S
H235 C232 0.930 . S
O236 Li176 1.956 . S
O236 Li177 1.970 . S
O236 Li178 1.961 1_545 S
O236 C180 1.325 . S
O237 Li176 1.970 . S
O237 Li177 1.956 . S
O237 Li179 1.961 . S
O237 C186 1.325 . S
O238 Li176 1.961 1_565 S
O238 Li178 1.956 . S
O238 Li179 1.970 1_565 S
O238 C208 1.325 1_455 S
O239 Li177 1.961 . S
O239 Li178 1.970 1_545 S
O239 Li179 1.956 . S
O239 C214 1.325 1_455 S
H240 C182 0.929 . S
H241 C183 0.930 . S
H242 C184 0.930 . S
H243 C185 0.930 . S
H244 C187 0.930 . S
H245 C189 0.929 . S
H246 C190 0.930 . S
H247 C191 0.930 . S
H248 C194 0.930 . S
H249 C197 0.927 1_565 S
H250 C202 0.929 . S
H251 C203 0.930 . S
H252 C210 0.929 . S
H253 C211 0.930 . S
H254 C212 0.930 . S
H255 C213 0.930 . S
H256 C215 0.929 1_565 S
H257 C216 0.930 . S
H258 C217 0.930 . S
H259 C218 0.930 . S
H260 C222 0.929 . S
H261 C224 0.930 . S
H262 C230 0.929 . S
H263 C231 0.930 . S
C264 C265 1.443 . S
C264 N268 1.376 . S
C264 C302 1.389 . S
C265 C264 1.443 . S
C265 C266 1.340 . S
C265 H305 0.951 . S
C266 C265 1.340 . S
C266 C267 1.439 . S
C266 H306 0.950 . S
C267 C266 1.439 . S
C267 N268 1.374 . S
C267 C301 1.395 . S
N268 C264 1.376 . S
N268 C267 1.374 . S
N268 Co269 2.008 . S
Co269 N268 2.008 . S
Co269 N270 1.995 . S
Co269 N275 2.008 1_455 S
Co269 N280 1.995 1_455 S
Co269 N285 2.282 . S
Co269 N291 2.282 . S
N270 Co269 1.995 . S
N270 C271 1.376 . S
N270 C274 1.383 . S
C271 N270 1.376 . S
C271 C272 1.446 . S
C271 C301 1.391 . S
C272 C271 1.446 . S
C272 C273 1.339 . S
C272 H307 0.949 . S
C273 C272 1.339 . S
C273 C274 1.439 . S
C273 H308 0.950 . S
C274 N270 1.383 . S
C274 C273 1.439 . S
C274 C303 1.392 . S
N275 Co269 2.008 1_655 S
N275 C276 1.376 . S
N275 C279 1.374 . S
C276 N275 1.376 . S
C276 C277 1.443 . S
C276 C303 1.389 1_655 S
C277 C276 1.443 . S
C277 C278 1.340 . S
C277 H309 0.951 . S
C278 C277 1.340 . S
C278 C279 1.439 . S
C278 H310 0.950 . S
C279 N275 1.374 . S
C279 C278 1.439 . S
C279 C304 1.395 . S
N280 Co269 1.995 1_655 S
N280 C281 1.376 . S
N280 C284 1.383 . S
C281 N280 1.376 . S
C281 C282 1.446 . S
C281 C304 1.391 . S
C282 C281 1.446 . S
C282 C283 1.339 . S
C282 H311 0.949 . S
C283 C282 1.339 . S
C283 C284 1.439 . S
C283 H312 0.950 . S
C284 N280 1.383 . S
C284 C283 1.439 . S
C284 C302 1.392 1_655 S
N285 Co269 2.282 . S
N285 C288 1.332 1_455 S
N285 C290 1.332 . S
C286 C287 1.386 1_455 S
C286 C289 1.388 . S
C287 C286 1.386 1_655 S
C287 C288 1.382 . S
C287 H313 0.950 . S
C288 N285 1.332 1_655 S
C288 C287 1.382 . S
C288 H299 0.952 . S
C289 C286 1.388 . S
C289 C290 1.382 . S
C289 H314 0.950 . S
C290 N285 1.332 . S
C290 C289 1.382 . S
C290 H300 0.948 . S
N291 Co269 2.282 . S
N291 C295 1.332 . S
N291 C296 1.332 1_455 S
C292 C293 1.388 1_655 S
C292 C296 1.382 . S
C292 H315 0.950 . S
C293 C292 1.388 1_455 S
C293 C294 1.386 . S
C294 C293 1.386 . S
C294 C295 1.382 . S
C294 H316 0.950 . S
C295 N291 1.332 . S
C295 C294 1.382 . S
C295 H297 0.952 . S
C296 N291 1.332 1_655 S
C296 C292 1.382 . S
C296 H298 0.948 . S
H297 C295 0.952 . S
H298 C296 0.948 . S
H299 C288 0.952 . S
H300 C290 0.948 . S
C301 C267 1.395 . S
C301 C271 1.391 . S
C302 C264 1.389 . S
C302 C284 1.392 1_455 S
C303 C274 1.392 . S
C303 C276 1.389 1_455 S
C304 C279 1.395 . S
C304 C281 1.391 . S
H305 C265 0.951 . S
H306 C266 0.950 . S
H307 C272 0.949 . S
H308 C273 0.950 . S
H309 C277 0.951 . S
H310 C278 0.950 . S
H311 C282 0.949 . S
H312 C283 0.950 . S
H313 C287 0.950 . S
H314 C289 0.950 . S
H315 C292 0.950 . S
H316 C294 0.950 . S
C317 C318 1.443 1_545 S
C317 N321 1.376 . S
C317 C355 1.389 . S
C318 C317 1.443 1_565 S
C318 C319 1.340 . S
C318 H358 0.951 . S
C319 C318 1.340 . S
C319 C320 1.439 . S
C319 H359 0.950 . S
C320 C319 1.439 . S
C320 N321 1.374 1_565 S
C320 C354 1.395 . S
N321 C317 1.376 . S
N321 C320 1.374 1_545 S
N321 Co322 2.008 . S
Co322 N321 2.008 . S
Co322 N323 1.995 . S
Co322 N328 2.008 . S
Co322 N333 1.995 . S
Co322 N338 2.282 . S
Co322 N344 2.282 . S
N323 Co322 1.995 . S
N323 C324 1.376 1_545 S
N323 C327 1.383 . S
C324 N323 1.376 1_565 S
C324 C325 1.446 . S
C324 C354 1.391 . S
C325 C324 1.446 . S
C325 C326 1.339 . S
C325 H360 0.949 . S
C326 C325 1.339 . S
C326 C327 1.439 1_565 S
C326 H361 0.950 . S
C327 N323 1.383 . S
C327 C326 1.439 1_545 S
C327 C356 1.392 . S
N328 Co322 2.008 . S
N328 C329 1.376 . S
N328 C332 1.374 . S
C329 N328 1.376 . S
C329 C330 1.443 . S
C329 C356 1.389 . S
C330 C329 1.443 . S
C330 C331 1.340 . S
C330 H362 0.951 . S
C331 C330 1.340 . S
C331 C332 1.439 . S
C331 H363 0.950 . S
C332 N328 1.374 . S
C332 C331 1.439 . S
C332 C357 1.395 . S
N333 Co322 1.995 . S
N333 C334 1.376 . S
N333 C337 1.383 . S
C334 N333 1.376 . S
C334 C335 1.446 . S
C334 C357 1.391 . S
C335 C334 1.446 . S
C335 C336 1.339 . S
C335 H364 0.949 . S
C336 C335 1.339 . S
C336 C337 1.439 . S
C336 H365 0.950 . S
C337 N333 1.383 . S
C337 C336 1.439 . S
C337 C355 1.392 . S
N338 Co322 2.282 . S
N338 C341 1.332 . S
N338 C343 1.332 . S
C339 C340 1.386 . S
C339 C342 1.388 . S
C340 C339 1.386 . S
C340 C341 1.382 . S
C340 H366 0.950 . S
C341 N338 1.332 . S
C341 C340 1.382 . S
C341 H352 0.952 . S
C342 C339 1.388 . S
C342 C343 1.382 . S
C342 H367 0.950 . S
C343 N338 1.332 . S
C343 C342 1.382 . S
C343 H353 0.948 . S
N344 Co322 2.282 . S
N344 C348 1.332 . S
N344 C349 1.332 . S
C345 C346 1.388 . S
C345 C349 1.382 . S
C345 H368 0.950 . S
C346 C345 1.388 . S
C346 C347 1.386 . S
C347 C346 1.386 . S
C347 C348 1.382 . S
C347 H369 0.950 . S
C348 N344 1.332 . S
C348 C347 1.382 . S
C348 H350 0.952 . S
C349 N344 1.332 . S
C349 C345 1.382 . S
C349 H351 0.948 . S
H350 C348 0.952 . S
H351 C349 0.948 . S
H352 C341 0.952 . S
H353 C343 0.948 . S
C354 C320 1.395 . S
C354 C324 1.391 . S
C355 C317 1.389 . S
C355 C337 1.392 . S
C356 C327 1.392 . S
C356 C329 1.389 . S
C357 C332 1.395 . S
C357 C334 1.391 . S
H358 C318 0.951 . S
H359 C319 0.950 . S
H360 C325 0.949 . S
H361 C326 0.950 . S
H362 C330 0.951 . S
H363 C331 0.950 . S
H364 C335 0.949 . S
H365 C336 0.950 . S
H366 C340 0.950 . S
H367 C342 0.950 . S
H368 C345 0.950 . S
H369 C347 0.950 . S
C370 C371 1.443 . S
C370 N374 1.376 . S
C370 C408 1.389 . S
C371 C370 1.443 . S
C371 C372 1.340 . S
C371 H411 0.951 . S
C372 C371 1.340 . S
C372 C373 1.439 . S
C372 H412 0.950 . S
C373 C372 1.439 . S
C373 N374 1.374 . S
C373 C407 1.395 . S
N374 C370 1.376 . S
N374 C373 1.374 . S
N374 Co375 2.008 . S
Co375 N374 2.008 . S
Co375 N376 1.995 . S
Co375 N381 2.008 . S
Co375 N386 1.995 . S
Co375 N391 2.282 . S
Co375 N397 2.282 . S
N376 Co375 1.995 . S
N376 C377 1.376 . S
N376 C380 1.383 . S
C377 N376 1.376 . S
C377 C378 1.446 . S
C377 C407 1.391 . S
C378 C377 1.446 . S
C378 C379 1.339 . S
C378 H413 0.949 . S
C379 C378 1.339 . S
C379 C380 1.439 . S
C379 H414 0.950 . S
C380 N376 1.383 . S
C380 C379 1.439 . S
C380 C409 1.392 . S
N381 Co375 2.008 . S
N381 C382 1.376 . S
N381 C385 1.374 . S
C382 N381 1.376 . S
C382 C383 1.443 . S
C382 C409 1.389 . S
C383 C382 1.443 . S
C383 C384 1.340 . S
C383 H415 0.951 . S
C384 C383 1.340 . S
C384 C385 1.439 . S
C384 H416 0.950 . S
C385 N381 1.374 . S
C385 C384 1.439 . S
C385 C410 1.395 . S
N386 Co375 1.995 . S
N386 C387 1.376 . S
N386 C390 1.383 . S
C387 N386 1.376 . S
C387 C388 1.446 . S
C387 C410 1.391 . S
C388 C387 1.446 . S
C388 C389 1.339 . S
C388 H417 0.949 . S
C389 C388 1.339 . S
C389 C390 1.439 . S
C389 H418 0.950 . S
C390 N386 1.383 . S
C390 C389 1.439 . S
C390 C408 1.392 . S
N391 Co375 2.282 . S
N391 C394 1.332 . S
N391 C396 1.332 . S
C392 C393 1.386 . S
C392 C395 1.388 . S
C393 C392 1.386 . S
C393 C394 1.382 . S
C393 H419 0.950 . S
C394 N391 1.332 . S
C394 C393 1.382 . S
C394 H405 0.952 . S
C395 C392 1.388 . S
C395 C396 1.382 . S
C395 H420 0.950 . S
C396 N391 1.332 . S
C396 C395 1.382 . S
C396 H406 0.948 . S
N397 Co375 2.282 . S
N397 C401 1.332 . S
N397 C402 1.332 . S
C398 C399 1.388 . S
C398 C402 1.382 . S
C398 H421 0.950 . S
C399 C398 1.388 . S
C399 C400 1.386 . S
C400 C399 1.386 . S
C400 C401 1.382 . S
C400 H422 0.950 . S
C401 N397 1.332 . S
C401 C400 1.382 . S
C401 H403 0.952 . S
C402 N397 1.332 . S
C402 C398 1.382 . S
C402 H404 0.948 . S
H403 C401 0.952 . S
H404 C402 0.948 . S
H405 C394 0.952 . S
H406 C396 0.948 . S
C407 C373 1.395 . S
C407 C377 1.391 . S
C408 C370 1.389 . S
C408 C390 1.392 . S
C409 C380 1.392 . S
C409 C382 1.389 . S
C410 C385 1.395 . S
C410 C387 1.391 . S
H411 C371 0.951 . S
H412 C372 0.950 . S
H413 C378 0.949 . S
H414 C379 0.950 . S
H415 C383 0.951 . S
H416 C384 0.950 . S
H417 C388 0.949 . S
H418 C389 0.950 . S
H419 C393 0.950 . S
H420 C395 0.950 . S
H421 C398 0.950 . S
H422 C400 0.950 . S
C423 C424 1.387 1_655 S
C423 C425 1.385 1_655 S
C423 H439 0.950 . S
C424 C423 1.387 1_455 S
C424 C428 1.383 . S
C425 C423 1.385 1_455 S
C425 C426 1.404 . S
C425 H440 0.946 1_455 S
C426 C425 1.404 . S
C426 C427 1.375 . S
C426 C429 1.481 . S
C427 C426 1.375 . S
C427 C428 1.367 . S
C427 H441 0.951 . S
C428 C424 1.383 . S
C428 C427 1.367 . S
C428 H442 0.950 . S
C429 C426 1.481 . S
C429 C430 1.286 1_455 S
C429 H443 0.950 . S
C430 C429 1.286 1_655 S
C430 C431 1.483 1_655 S
C430 H444 0.958 . S
C431 C430 1.483 1_455 S
C431 C432 1.375 . S
C431 C437 1.404 . S
C432 C431 1.375 . S
C432 C433 1.369 . S
C432 H445 0.950 1_455 S
C433 C432 1.369 . S
C433 C434 1.392 . S
C433 H446 0.951 . S
C434 C433 1.392 . S
C434 C436 1.384 . S
H435 C437 0.949 . S
C436 C434 1.384 . S
C436 C437 1.385 . S
C436 H438 0.950 . S
C437 C431 1.404 . S
C437 H435 0.949 . S
C437 C436 1.385 . S
H438 C436 0.950 . S
H439 C423 0.950 . S
H440 C425 0.946 1_655 S
H441 C427 0.951 . S
H442 C428 0.950 . S
H443 C429 0.950 . S
H444 C430 0.958 . S
H445 C432 0.950 1_655 S
H446 C433 0.951 . S
C447 C448 1.386 . S
C447 C449 1.383 . S
C447 H463 0.951 . S
C448 C447 1.386 . S
C448 C452 1.383 1_545 S
C449 C447 1.383 . S
C449 C450 1.402 . S
C449 H464 0.951 . S
C450 C449 1.402 . S
C450 C451 1.375 1_545 S
C450 C453 1.481 . S
C451 C450 1.375 1_565 S
C451 C452 1.367 . S
C451 H465 0.951 . S
C452 C448 1.383 1_565 S
C452 C451 1.367 . S
C452 H466 0.950 . S
C453 C450 1.481 . S
C453 C454 1.297 . S
C453 H467 0.949 1_545 S
C454 C453 1.297 . S
C454 C455 1.479 . S
C454 H468 0.950 . S
C455 C454 1.479 . S
C455 C456 1.375 . S
C455 C461 1.404 . S
C456 C455 1.375 . S
C456 C457 1.369 . S
C456 H469 0.950 . S
C457 C456 1.369 . S
C457 C458 1.392 . S
C457 H470 0.951 . S
C458 C457 1.392 . S
C458 C460 1.384 . S
H459 C461 0.949 . S
C460 C458 1.384 . S
C460 C461 1.385 . S
C460 H462 0.950 . S
C461 C455 1.404 . S
C461 H459 0.949 . S
C461 C460 1.385 . S
H462 C460 0.950 . S
H463 C447 0.951 . S
H464 C449 0.951 . S
H465 C451 0.951 . S
H466 C452 0.950 . S
H467 C453 0.949 1_565 S
H468 C454 0.950 . S
H469 C456 0.950 . S
H470 C457 0.951 . S
C471 C472 1.386 . S
C471 C473 1.383 . S
C471 H487 0.951 . S
C472 C471 1.386 . S
C472 C476 1.383 . S
C473 C471 1.383 . S
C473 C474 1.402 . S
C473 H488 0.951 . S
C474 C473 1.402 . S
C474 C475 1.375 . S
C474 C477 1.481 . S
C475 C474 1.375 . S
C475 C476 1.367 . S
C475 H489 0.951 . S
C476 C472 1.383 . S
C476 C475 1.367 . S
C476 H490 0.950 . S
C477 C474 1.481 . S
C477 C478 1.297 . S
C477 H491 0.950 . S
C478 C477 1.297 . S
C478 C479 1.479 . S
C478 H492 0.950 . S
C479 C478 1.479 . S
C479 C480 1.375 . S
C479 C485 1.404 . S
C480 C479 1.375 . S
C480 C481 1.369 . S
C480 H493 0.950 . S
C481 C480 1.369 . S
C481 C482 1.392 . S
C481 H494 0.951 . S
C482 C481 1.392 . S
C482 C484 1.384 . S
H483 C485 0.949 . S
C484 C482 1.384 . S
C484 C485 1.385 . S
C484 H486 0.950 . S
C485 C479 1.404 . S
C485 H483 0.949 . S
C485 C484 1.385 . S
H486 C484 0.950 . S
H487 C471 0.951 . S
H488 C473 0.951 . S
H489 C475 0.951 . S
H490 C476 0.950 . S
H491 C477 0.950 . S
H492 C478 0.950 . S
H493 C480 0.950 . S
H494 C481 0.951 . S
C495 C496 1.386 . S
C495 C497 1.383 . S
C495 H511 0.951 . S
C496 C495 1.386 . S
C496 C500 1.383 . S
C497 C495 1.383 . S
C497 C498 1.402 . S
C497 H512 0.951 . S
C498 C497 1.402 . S
C498 C499 1.375 . S
C498 C501 1.481 . S
C499 C498 1.375 . S
C499 C500 1.367 . S
C499 H513 0.951 . S
C500 C496 1.383 . S
C500 C499 1.367 . S
C500 H514 0.950 . S
C501 C498 1.481 . S
C501 C502 1.297 . S
C501 H515 0.950 . S
C502 C501 1.297 . S
C502 C503 1.479 . S
C502 H516 0.950 . S
C503 C502 1.479 . S
C503 C504 1.375 . S
C503 C509 1.404 . S
C504 C503 1.375 . S
C504 C505 1.369 . S
C504 H517 0.950 . S
C505 C504 1.369 . S
C505 C506 1.392 . S
C505 H518 0.951 . S
C506 C505 1.392 . S
C506 C508 1.384 . S
H507 C509 0.949 . S
C508 C506 1.384 . S
C508 C509 1.385 . S
C508 H510 0.950 . S
C509 C503 1.404 . S
C509 H507 0.949 . S
C509 C508 1.385 . S
H510 C508 0.950 . S
H511 C495 0.951 . S
H512 C497 0.951 . S
H513 C499 0.951 . S
H514 C500 0.950 . S
H515 C501 0.950 . S
H516 C502 0.950 . S
H517 C504 0.950 . S
H518 C505 0.951 . S
C519 C520 1.386 . S
C519 C521 1.383 . S
C519 H535 0.951 . S
C520 C519 1.386 . S
C520 C524 1.383 . S
C521 C519 1.383 . S
C521 C522 1.402 . S
C521 H536 0.951 . S
C522 C521 1.402 . S
C522 C523 1.375 . S
C522 C525 1.481 . S
C523 C522 1.375 . S
C523 C524 1.367 . S
C523 H537 0.951 . S
C524 C520 1.383 . S
C524 C523 1.367 . S
C524 H538 0.950 . S
C525 C522 1.481 . S
C525 C526 1.297 . S
C525 H539 0.950 . S
C526 C525 1.297 . S
C526 C527 1.479 . S
C526 H540 0.950 . S
C527 C526 1.479 . S
C527 C528 1.375 . S
C527 C533 1.404 . S
C528 C527 1.375 . S
C528 C529 1.369 . S
C528 H541 0.950 . S
C529 C528 1.369 . S
C529 C530 1.392 . S
C529 H542 0.951 . S
C530 C529 1.392 . S
C530 C532 1.384 . S
H531 C533 0.949 . S
C532 C530 1.384 . S
C532 C533 1.385 . S
C532 H534 0.950 . S
C533 C527 1.404 . S
C533 H531 0.949 . S
C533 C532 1.385 . S
H534 C532 0.950 . S
H535 C519 0.951 . S
H536 C521 0.951 . S
H537 C523 0.951 . S
H538 C524 0.950 . S
H539 C525 0.950 . S
H540 C526 0.950 . S
H541 C528 0.950 . S
H542 C529 0.951 . S
C543 C544 1.386 . S
C543 C545 1.383 . S
C543 H559 0.951 . S
C544 C543 1.386 . S
C544 C548 1.383 . S
C545 C543 1.383 . S
C545 C546 1.402 . S
C545 H560 0.951 . S
C546 C545 1.402 . S
C546 C547 1.375 . S
C546 C549 1.481 . S
C547 C546 1.375 . S
C547 C548 1.367 . S
C547 H561 0.951 . S
C548 C544 1.383 . S
C548 C547 1.367 . S
C548 H562 0.950 . S
C549 C546 1.481 . S
C549 C550 1.297 . S
C549 H563 0.950 . S
C550 C549 1.297 . S
C550 C551 1.479 . S
C550 H564 0.950 . S
C551 C550 1.479 . S
C551 C552 1.375 . S
C551 C557 1.404 . S
C552 C551 1.375 . S
C552 C553 1.369 . S
C552 H565 0.950 . S
C553 C552 1.369 . S
C553 C554 1.392 . S
C553 H566 0.951 . S
C554 C553 1.392 . S
C554 C556 1.384 . S
H555 C557 0.949 . S
C556 C554 1.384 . S
C556 C557 1.385 . S
C556 H558 0.950 . S
C557 C551 1.404 . S
C557 H555 0.949 . S
C557 C556 1.385 . S
H558 C556 0.950 . S
H559 C543 0.951 . S
H560 C545 0.951 . S
H561 C547 0.951 . S
H562 C548 0.950 . S
H563 C549 0.950 . S
H564 C550 0.950 . S
H565 C552 0.950 . S
H566 C553 0.951 . S
C567 C568 1.386 . S
C567 C569 1.383 . S
C567 H583 0.951 . S
C568 C567 1.386 . S
C568 C572 1.383 . S
C569 C567 1.383 . S
C569 C570 1.402 . S
C569 H584 0.951 . S
C570 C569 1.402 . S
C570 C571 1.375 . S
C570 C573 1.481 . S
C571 C570 1.375 . S
C571 C572 1.367 . S
C571 H585 0.951 . S
C572 C568 1.383 . S
C572 C571 1.367 . S
C572 H586 0.950 . S
C573 C570 1.481 . S
C573 C574 1.297 . S
C573 H587 0.950 . S
C574 C573 1.297 . S
C574 C575 1.479 . S
C574 H588 0.950 . S
C575 C574 1.479 . S
C575 C576 1.375 . S
C575 C581 1.404 . S
C576 C575 1.375 . S
C576 C577 1.369 . S
C576 H589 0.950 . S
C577 C576 1.369 . S
C577 C578 1.392 . S
C577 H590 0.951 . S
C578 C577 1.392 . S
C578 C580 1.384 . S
H579 C581 0.949 . S
C580 C578 1.384 . S
C580 C581 1.385 . S
C580 H582 0.950 . S
C581 C575 1.404 . S
C581 H579 0.949 . S
C581 C580 1.385 . S
H582 C580 0.950 . S
H583 C567 0.951 . S
H584 C569 0.951 . S
H585 C571 0.951 . S
H586 C572 0.950 . S
H587 C573 0.950 . S
H588 C574 0.950 . S
H589 C576 0.950 . S
H590 C577 0.951 . S
C591 C592 1.386 . S
C591 C593 1.383 . S
C591 H607 0.951 . S
C592 C591 1.386 . S
C592 C596 1.383 . S
C593 C591 1.383 . S
C593 C594 1.402 . S
C593 H608 0.951 . S
C594 C593 1.402 . S
C594 C595 1.375 . S
C594 C597 1.481 . S
C595 C594 1.375 . S
C595 C596 1.367 . S
C595 H609 0.951 . S
C596 C592 1.383 . S
C596 C595 1.367 . S
C596 H610 0.950 1_556 S
C597 C594 1.481 . S
C597 C598 1.297 . S
C597 H611 0.950 . S
C598 C597 1.297 . S
C598 C599 1.479 . S
C598 H612 0.950 . S
C599 C598 1.479 . S
C599 C600 1.375 . S
C599 C605 1.404 . S
C600 C599 1.375 . S
C600 C601 1.369 . S
C600 H613 0.950 . S
C601 C600 1.369 . S
C601 C602 1.392 . S
C601 H614 0.951 . S
C602 C601 1.392 . S
C602 C604 1.384 . S
H603 C605 0.949 . S
C604 C602 1.384 . S
C604 C605 1.385 . S
C604 H606 0.950 . S
C605 C599 1.404 . S
C605 H603 0.949 . S
C605 C604 1.385 . S
H606 C604 0.950 . S
H607 C591 0.951 . S
H608 C593 0.951 . S
H609 C595 0.951 . S
H610 C596 0.950 1_554 S
H611 C597 0.950 . S
H612 C598 0.950 . S
H613 C600 0.950 . S
H614 C601 0.951 . S
C615 C616 1.386 1_455 S
C615 C617 1.383 . S
C615 H631 0.951 . S
C616 C615 1.386 1_655 S
C616 C620 1.383 . S
C617 C615 1.383 . S
C617 C618 1.402 1_455 S
C617 H632 0.951 . S
C618 C617 1.402 1_655 S
C618 C619 1.375 . S
C618 C621 1.481 . S
C619 C618 1.375 . S
C619 C620 1.367 . S
C619 H633 0.951 . S
C620 C616 1.383 . S
C620 C619 1.367 . S
C620 H634 0.950 . S
C621 C618 1.481 . S
C621 C622 1.297 1_655 S
C621 H635 0.950 . S
C622 C621 1.297 1_455 S
C622 C623 1.479 . S
C622 H636 0.950 . S
C623 C622 1.479 . S
C623 C624 1.375 . S
C623 C629 1.404 1_455 S
C624 C623 1.375 . S
C624 C625 1.369 . S
C624 H637 0.950 . S
C625 C624 1.369 . S
C625 C626 1.392 . S
C625 H638 0.951 . S
C626 C625 1.392 . S
C626 C628 1.384 1_455 S
H627 C629 0.949 . S
C628 C626 1.384 1_655 S
C628 C629 1.385 . S
C628 H630 0.950 . S
C629 C623 1.404 1_655 S
C629 H627 0.949 . S
C629 C628 1.385 . S
H630 C628 0.950 . S
H631 C615 0.951 . S
H632 C617 0.951 . S
H633 C619 0.951 . S
H634 C620 0.950 . S
H635 C621 0.950 . S
H636 C622 0.950 . S
H637 C624 0.950 . S
H638 C625 0.951 . S
C639 C640 1.386 1_565 S
C639 C641 1.383 . S
C639 H655 0.951 . S
C640 C639 1.386 1_545 S
C640 C644 1.383 . S
C641 C639 1.383 . S
C641 C642 1.402 1_565 S
C641 H656 0.951 . S
C642 C641 1.402 1_545 S
C642 C643 1.375 . S
C642 C645 1.481 . S
C643 C642 1.375 . S
C643 C644 1.367 . S
C643 H657 0.951 . S
C644 C640 1.383 . S
C644 C643 1.367 . S
C644 H658 0.950 . S
C645 C642 1.481 . S
C645 C646 1.297 . S
C645 H659 0.950 . S
C646 C645 1.297 . S
C646 C647 1.479 . S
C646 H660 0.950 . S
C647 C646 1.479 . S
C647 C648 1.375 . S
C647 C653 1.404 . S
C648 C647 1.375 . S
C648 C649 1.369 . S
C648 H661 0.950 1_545 S
C649 C648 1.369 . S
C649 C650 1.392 . S
C649 H662 0.951 . S
C650 C649 1.392 . S
C650 C652 1.384 . S
H651 C653 0.949 . S
C652 C650 1.384 . S
C652 C653 1.385 . S
C652 H654 0.950 . S
C653 C647 1.404 . S
C653 H651 0.949 . S
C653 C652 1.385 . S
H654 C652 0.950 . S
H655 C639 0.951 . S
H656 C641 0.951 . S
H657 C643 0.951 . S
H658 C644 0.950 . S
H659 C645 0.950 . S
H660 C646 0.950 . S
H661 C648 0.950 1_565 S
H662 C649 0.951 . S
C663 C664 1.386 . S
C663 C665 1.383 . S
C663 H679 0.951 . S
C664 C663 1.386 . S
C664 C668 1.383 . S
C665 C663 1.383 . S
C665 C666 1.402 . S
C665 H680 0.951 . S
C666 C665 1.402 . S
C666 C667 1.375 . S
C666 C669 1.481 . S
C667 C666 1.375 . S
C667 C668 1.367 . S
C667 H681 0.951 . S
C668 C664 1.383 . S
C668 C667 1.367 . S
C668 H682 0.950 . S
C669 C666 1.481 . S
C669 C670 1.297 . S
C669 H683 0.950 . S
C670 C669 1.297 . S
C670 C671 1.479 . S
C670 H684 0.950 . S
C671 C670 1.479 . S
C671 C672 1.375 . S
C671 C677 1.404 . S
C672 C671 1.375 . S
C672 C673 1.369 . S
C672 H685 0.950 . S
C673 C672 1.369 . S
C673 C674 1.392 . S
C673 H686 0.951 . S
C674 C673 1.392 . S
C674 C676 1.384 . S
H675 C677 0.949 . S
C676 C674 1.384 . S
C676 C677 1.385 . S
C676 H678 0.950 . S
C677 C671 1.404 . S
C677 H675 0.949 . S
C677 C676 1.385 . S
H678 C676 0.950 . S
H679 C663 0.951 . S
H680 C665 0.951 . S
H681 C667 0.951 . S
H682 C668 0.950 . S
H683 C669 0.950 . S
H684 C670 0.950 . S
H685 C672 0.950 . S
H686 C673 0.951 . S
C687 C688 1.386 . S
C687 C689 1.383 . S
C687 H703 0.951 . S
C688 C687 1.386 . S
C688 C692 1.383 . S
C689 C687 1.383 . S
C689 C690 1.402 . S
C689 H704 0.951 . S
C690 C689 1.402 . S
C690 C691 1.375 . S
C690 C693 1.481 . S
C691 C690 1.375 . S
C691 C692 1.367 . S
C691 H705 0.951 . S
C692 C688 1.383 . S
C692 C691 1.367 . S
C692 H706 0.950 . S
C693 C690 1.481 . S
C693 C694 1.297 . S
C693 H707 0.950 . S
C694 C693 1.297 . S
C694 C695 1.479 . S
C694 H708 0.950 . S
C695 C694 1.479 . S
C695 C696 1.375 . S
C695 C701 1.404 . S
C696 C695 1.375 . S
C696 C697 1.369 . S
C696 H709 0.950 . S
C697 C696 1.369 . S
C697 C698 1.392 . S
C697 H710 0.951 . S
C698 C697 1.392 . S
C698 C700 1.384 . S
H699 C701 0.949 . S
C700 C698 1.384 . S
C700 C701 1.385 . S
C700 H702 0.950 1_455 S
C701 C695 1.404 . S
C701 H699 0.949 . S
C701 C700 1.385 . S
H702 C700 0.950 1_655 S
H703 C687 0.951 . S
H704 C689 0.951 . S
H705 C691 0.951 . S
H706 C692 0.950 . S
H707 C693 0.950 . S
H708 C694 0.950 . S
H709 C696 0.950 . S
H710 C697 0.951 . S
C434 C286 1.402 . S
C424 C29 1.411 . S
C448 C137 1.441 . S
C458 C356 1.431 . S
C472 C225 1.413 . S
C482 C408 1.459 . S
C496 C49 1.442 . S
C506 C302 1.428 . S
C530 C346 1.403 . S
C520 C117 1.418 . S
C544 C205 1.400 . S
C554 C392 1.419 . S
C578 C339 1.410 . S
C568 C233 1.404 . S
C592 C57 1.402 . S
C602 C399 1.419 . S
C626 C293 1.408 . S
C616 C108 1.423 . S
C650 C355 1.460 . S
C640 C196 1.418 . S
C674 C409 1.441 . S
C664 C20 1.422 . S
C688 C145 1.426 . S
C698 C303 1.427 . S
