# Generated by pormake.
# Topology ssa, (4,4)-cn, num edge types: 1
# Building blocks:
#     Node 0, Type 0, BuildingBlock: KOZSID_clean_sbu_0, # of connection points: 4
#     Node 1, Type 0, BuildingBlock: KOZSID_clean_sbu_0, # of connection points: 4
#     Node 2, Type 0, BuildingBlock: KOZSID_clean_sbu_0, # of connection points: 4
#     Node 3, Type 0, BuildingBlock: KOZSID_clean_sbu_0, # of connection points: 4
#     Node 4, Type 0, BuildingBlock: KOZSID_clean_sbu_0, # of connection points: 4
#     Node 5, Type 0, BuildingBlock: KOZSID_clean_sbu_0, # of connection points: 4
#     Node 6, Type 1, BuildingBlock: ESEHIV_clean_sbu_0, # of connection points: 4
#     Node 7, Type 1, BuildingBlock: ESEHIV_clean_sbu_0, # of connection points: 4
#     Node 8, Type 1, BuildingBlock: ESEHIV_clean_sbu_0, # of connection points: 4
#     Node 9, Type 1, BuildingBlock: ESEHIV_clean_sbu_0, # of connection points: 4
#     Node 10, Type 1, BuildingBlock: ESEHIV_clean_sbu_0, # of connection points: 4
#     Node 11, Type 1, BuildingBlock: ESEHIV_clean_sbu_0, # of connection points: 4
#     Edge 12, Type (0, 1), BuildingBlock: UVAHIK_clean_linker_0, # of connection points: 2
#     Edge 13, Type (0, 1), BuildingBlock: UVAHIK_clean_linker_0, # of connection points: 2
#     Edge 14, Type (0, 1), BuildingBlock: UVAHIK_clean_linker_0, # of connection points: 2
#     Edge 15, Type (0, 1), BuildingBlock: UVAHIK_clean_linker_0, # of connection points: 2
#     Edge 16, Type (0, 1), BuildingBlock: UVAHIK_clean_linker_0, # of connection points: 2
#     Edge 17, Type (0, 1), BuildingBlock: UVAHIK_clean_linker_0, # of connection points: 2
#     Edge 18, Type (0, 1), BuildingBlock: UVAHIK_clean_linker_0, # of connection points: 2
#     Edge 19, Type (0, 1), BuildingBlock: UVAHIK_clean_linker_0, # of connection points: 2
#     Edge 20, Type (0, 1), BuildingBlock: UVAHIK_clean_linker_0, # of connection points: 2
#     Edge 21, Type (0, 1), BuildingBlock: UVAHIK_clean_linker_0, # of connection points: 2
#     Edge 22, Type (0, 1), BuildingBlock: UVAHIK_clean_linker_0, # of connection points: 2
#     Edge 23, Type (0, 1), BuildingBlock: UVAHIK_clean_linker_0, # of connection points: 2
#     Edge 24, Type (0, 1), BuildingBlock: UVAHIK_clean_linker_0, # of connection points: 2
#     Edge 25, Type (0, 1), BuildingBlock: UVAHIK_clean_linker_0, # of connection points: 2
#     Edge 26, Type (0, 1), BuildingBlock: UVAHIK_clean_linker_0, # of connection points: 2
#     Edge 27, Type (0, 1), BuildingBlock: UVAHIK_clean_linker_0, # of connection points: 2
#     Edge 28, Type (0, 1), BuildingBlock: UVAHIK_clean_linker_0, # of connection points: 2
#     Edge 29, Type (0, 1), BuildingBlock: UVAHIK_clean_linker_0, # of connection points: 2
#     Edge 30, Type (0, 1), BuildingBlock: UVAHIK_clean_linker_0, # of connection points: 2
#     Edge 31, Type (0, 1), BuildingBlock: UVAHIK_clean_linker_0, # of connection points: 2
#     Edge 32, Type (0, 1), BuildingBlock: UVAHIK_clean_linker_0, # of connection points: 2
#     Edge 33, Type (0, 1), BuildingBlock: UVAHIK_clean_linker_0, # of connection points: 2
#     Edge 34, Type (0, 1), BuildingBlock: UVAHIK_clean_linker_0, # of connection points: 2
#     Edge 35, Type (0, 1), BuildingBlock: UVAHIK_clean_linker_0, # of connection points: 2
# Relax obj value: 0.014
# Max RMSD: 0.096
# Mean RMSD: 0.055
data_MOF--net-ssa--node1-KOZSID_clean_sbu_0--node2-ESEHIV_clean_sbu_0--edge1-UVAHIK_clean_linker_0
_symmetry_space_group_name_H-M    P1
_symmetry_Int_Tables_number       1
_symmetry_cell_setting            triclinic
loop_
_symmetry_equiv_pos_as_xyz
'x, y, z'
_cell_length_a     67.54891
_cell_length_b     68.860688
_cell_length_c     50.893206
_cell_angle_alpha  88.037903
_cell_angle_beta   89.963663
_cell_angle_gamma 121.9812
loop_
_atom_site_label
_atom_site_type_symbol
_atom_site_fract_x
_atom_site_fract_y
_atom_site_fract_z
_atom_type_partial_charge
C0 C 0.96969 0.5071 0.99437 0.0
C1 C 0.94713 0.49665 1.00472 0.0
C2 C 0.94703 0.48704 0.02863 0.0
C3 C 0.96938 0.49198 0.03155 0.0
N4 N 0.9839 0.50438 0.01103 0.0
Co5 Co 0.01757 0.51403 0.00678 0.0
N6 N 0.0169 0.49841 0.04122 0.0
C7 C 0.99836 0.48647 0.05798 0.0
C8 C 1.00311 0.47805 0.08027 0.0
C9 C 0.02613 0.48518 0.07778 0.0
C10 C 0.03416 0.49765 0.05403 0.0
N11 N 0.05123 0.52367 1.0025 0.0
C12 C 0.06525 0.52038 0.01882 0.0
C13 C 0.08775 0.53059 0.00839 0.0
C14 C 0.08803 0.54072 0.98478 0.0
C15 C 0.06582 0.53623 0.9821 0.0
N16 N 0.01824 0.52961 0.97233 0.0
C17 C 0.03686 0.54181 0.95574 0.0
C18 C 0.03214 0.55026 0.93347 0.0
C19 C 0.00903 0.54281 0.93574 0.0
C20 C 1.00088 0.53006 0.95931 0.0
N21 N 0.02746 0.54256 0.02543 0.0
C22 C 0.04556 0.58184 0.05547 0.0
C23 C 0.0551 0.58296 0.03071 0.0
C24 C 0.04581 0.56329 0.01611 0.0
C25 C 0.02593 0.56107 0.06423 0.0
C26 C 0.01713 0.54186 0.04892 0.0
N27 N 0.00774 0.48553 0.98818 0.0
C28 C 0.01012 0.46677 0.95009 0.0
C29 C 0.99075 0.44588 0.95904 0.0
C30 C 0.98071 0.44496 0.98341 0.0
C31 C 0.98945 0.46479 0.99757 0.0
C32 C 0.01832 0.48619 0.9649 0.0
H33 H 0.98078 0.463 0.01576 0.0
H34 H 0.03298 0.50161 0.95687 0.0
H35 H 0.05421 0.5652 0.99771 0.0
H36 H 1.00229 0.52654 0.05683 0.0
C37 C 0.97691 0.4841 0.05259 0.0
C38 C 0.97645 0.51851 0.96819 0.0
C39 C 0.05838 0.50849 0.04469 0.0
C40 C 0.05833 0.54423 0.96113 0.0
H41 H 0.93211 0.4956 0.9957 0.0
H42 H 0.93225 0.47707 0.042 0.0
H43 H 0.99132 0.46816 0.09656 0.0
H44 H 0.03596 0.48175 0.09194 0.0
H45 H 0.10255 0.53099 0.01716 0.0
H46 H 0.1028 0.55056 0.97136 0.0
H47 H 0.04399 0.56032 0.9173 0.0
H48 H 0.99922 0.54618 0.92149 0.0
H49 H 0.07032 0.59869 0.02304 0.0
H50 H 0.01759 0.55953 0.08303 0.0
H51 H 0.01881 0.46824 0.93156 0.0
H52 H 0.9656 0.42918 0.99117 0.0
C53 C 0.55159 0.01833 0.55127 0.0
C54 C 0.55304 0.00881 0.57513 0.0
C55 C 0.53096 0.99132 0.58182 0.0
C56 C 0.51735 0.99128 0.56186 0.0
N57 N 0.52942 0.0073 0.54249 0.0
Co58 Co 0.51608 0.01481 0.51145 0.0
N59 N 0.48355 0.98916 0.52133 0.0
C60 C 0.47711 0.9741 0.54209 0.0
C61 C 0.45405 0.9569 0.5424 0.0
C62 C 0.44529 0.96087 0.52015 0.0
C63 C 0.46355 0.98056 0.50767 0.0
N64 N 0.50266 0.02313 0.48129 0.0
C65 C 0.48056 0.01224 0.47244 0.0
C66 C 0.47847 0.02411 0.45113 0.0
C67 C 0.50024 0.04286 0.44591 0.0
C68 C 0.51425 0.04146 0.4644 0.0
N69 N 0.54866 0.03938 0.50042 0.0
C70 C 0.55523 0.05346 0.47871 0.0
C71 C 0.57889 0.06848 0.47626 0.0
C72 C 0.58793 0.0639 0.49789 0.0
C73 C 0.56913 0.04642 0.51239 0.0
N74 N 0.51927 0.99307 0.48938 0.0
C75 C 0.52329 0.9619 0.45779 0.0
C76 C 0.52653 0.98245 0.44704 0.0
C77 C 0.52455 0.99763 0.46298 0.0
C78 C 0.51801 0.95743 0.48482 0.0
C79 C 0.51602 0.97298 0.50004 0.0
N80 N 0.51301 0.03676 0.53368 0.0
C81 C 0.52592 0.07578 0.5449 0.0
C82 C 0.51071 0.0681 0.56673 0.0
C83 C 0.49637 0.04441 0.57147 0.0
C84 C 0.49795 0.02922 0.55509 0.0
C85 C 0.52653 0.06005 0.5286 0.0
H86 H 0.48691 0.01145 0.56041 0.0
H87 H 0.53823 0.0673 0.51204 0.0
H88 H 0.52723 0.01294 0.45346 0.0
H89 H 0.51181 0.96839 0.52044 0.0
C90 C 0.4933 0.97627 0.56055 0.0
C91 C 0.57135 0.03876 0.5386 0.0
C92 C 0.46152 0.98989 0.48231 0.0
C93 C 0.5386 0.05448 0.46347 0.0
H94 H 0.56833 0.01421 0.58683 0.0
H95 H 0.52543 0.98022 0.59937 0.0
H96 H 0.44488 0.94275 0.55667 0.0
H97 H 0.42757 0.95007 0.5137 0.0
H98 H 0.46301 0.01918 0.4399 0.0
H99 H 0.50546 0.05526 0.42964 0.0
H100 H 0.58833 0.08198 0.46132 0.0
H101 H 0.60614 0.07308 0.5031 0.0
H102 H 0.53024 0.98679 0.42624 0.0
H103 H 0.51565 0.94206 0.49447 0.0
H104 H 0.53715 0.09396 0.54014 0.0
H105 H 0.48432 0.03758 0.58818 0.0
C106 C 0.56125 0.55216 0.97681 0.0
C107 C 0.56534 0.56645 0.95488 0.0
C108 C 0.54427 0.56315 0.94808 0.0
C109 C 0.5286 0.54707 0.96613 0.0
N110 N 0.53844 0.54021 0.98436 0.0
Co111 Co 0.5221 0.51637 0.01349 0.0
N112 N 0.49088 0.50978 1.00186 0.0
C113 C 0.48634 0.51923 0.9808 0.0
C114 C 0.46315 0.51167 0.97839 0.0
C115 C 0.45228 0.49684 0.99947 0.0
C116 C 0.46959 0.49631 0.01354 0.0
N117 N 0.50573 0.49258 0.04269 0.0
C118 C 0.48297 0.48089 0.05048 0.0
C119 C 0.47891 0.46678 0.07258 0.0
C120 C 0.49995 0.46992 0.07923 0.0
C121 C 0.51558 0.48574 0.06095 0.0
N122 N 0.55331 0.52293 0.0251 0.0
C123 C 0.55784 0.51333 0.04601 0.0
C124 C 0.58102 0.52082 0.04833 0.0
C125 C 0.5919 0.53578 0.02736 0.0
C126 C 0.57461 0.53647 0.01346 0.0
N127 N 0.52463 0.54035 0.03702 0.0
C128 C 0.52808 0.57431 0.07043 0.0
C129 C 0.53313 0.55798 0.07946 0.0
C130 C 0.53139 0.54142 0.06263 0.0
C131 C 0.52115 0.57315 0.04431 0.0
C132 C 0.51944 0.55618 0.0282 0.0
N133 N 0.51966 0.49242 0.98992 0.0
C134 C 0.52383 0.46006 0.98234 0.0
C135 C 0.51776 0.45945 0.95593 0.0
C136 C 0.51251 0.47566 0.94701 0.0
C137 C 0.51347 0.49171 0.96412 0.0
C138 C 0.52475 0.47652 0.99874 0.0
H139 H 0.50921 0.50346 0.95593 0.0
H140 H 0.52987 0.47617 0.01846 0.0
H141 H 0.5356 0.52964 0.07082 0.0
H142 H 0.51374 0.55614 0.00868 0.0
C143 C 0.5044 0.53663 0.96509 0.0
C144 C 0.57904 0.54887 0.98829 0.0
C145 C 0.46518 0.48413 0.03887 0.0
C146 C 0.53977 0.49602 0.06181 0.0
H147 H 0.5817 0.5775 0.94431 0.0
H148 H 0.54067 0.57082 0.93132 0.0
H149 H 0.45523 0.51701 0.96368 0.0
H150 H 0.43385 0.488 1.00447 0.0
H151 H 0.46262 0.45595 0.08335 0.0
H152 H 0.50358 0.46233 0.09605 0.0
H153 H 0.58893 0.51539 0.06295 0.0
H154 H 0.61032 0.54463 0.02232 0.0
H155 H 0.53877 0.55814 0.09941 0.0
H156 H 0.51666 0.58508 0.03633 0.0
H157 H 0.52836 0.44815 0.99032 0.0
H158 H 0.50739 0.47587 0.92689 0.0
C159 C 0.96917 0.47125 0.53177 0.0
C160 C 0.94692 0.45806 0.52179 0.0
C161 C 0.9476 0.46701 0.49725 0.0
C162 C 0.97007 0.48517 0.49361 0.0
N163 N 0.98391 0.48838 0.51431 0.0
Co164 Co 0.01767 0.51347 0.51725 0.0
N165 N 0.01819 0.52744 0.48168 0.0
C166 C 0.99992 0.52017 0.46545 0.0
C167 C 1.00523 0.53316 0.44254 0.0
C168 C 0.02833 0.54966 0.44405 0.0
C169 C 0.03592 0.54568 0.46783 0.0
N170 N 0.05157 0.53832 0.51997 0.0
C171 C 0.06638 0.55524 0.50233 0.0
C172 C 0.08888 0.56782 0.51183 0.0
C173 C 0.0883 0.55871 0.53624 0.0
C174 C 0.06564 0.54102 0.54026 0.0
N175 N 0.01704 0.49975 0.55304 0.0
C176 C 0.03509 0.50748 0.56967 0.0
C177 C 0.02956 0.49497 0.59297 0.0
C178 C 1.0065 0.47836 0.59133 0.0
C179 C 0.99919 0.48175 0.56706 0.0
N180 N 0.02722 0.49393 0.5007 0.0
C181 C 0.04633 0.47278 0.47303 0.0
C182 C 0.0541 0.481 0.498 0.0
C183 C 0.04426 0.49127 0.51146 0.0
C184 C 0.02754 0.47362 0.46304 0.0
C185 C 0.01823 0.4841 0.47719 0.0
N186 N 0.00823 0.5331 0.53378 0.0
C187 C 0.01194 0.55767 0.5687 0.0
C188 C 0.99229 0.55768 0.56026 0.0
C189 C 0.98139 0.54603 0.53763 0.0
C190 C 0.98963 0.53403 0.52475 0.0
C191 C 0.01959 0.54544 0.55524 0.0
H192 H 0.98034 0.52525 0.5079 0.0
H193 H 0.03447 0.54591 0.56288 0.0
H194 H 0.05127 0.49755 0.53016 0.0
H195 H 1.00434 0.48476 0.46827 0.0
C196 C 0.97827 0.50046 0.47176 0.0
C197 C 0.97512 0.46731 0.55832 0.0
C198 C 0.06019 0.55964 0.47614 0.0
C199 C 0.05711 0.52645 0.56272 0.0
H200 H 0.93159 0.44372 0.53141 0.0
H201 H 0.93323 0.46134 0.48392 0.0
H202 H 0.99374 0.53073 0.42648 0.0
H203 H 0.03847 0.56302 0.4292 0.0
H204 H 0.10426 0.58194 0.50201 0.0
H205 H 0.10277 0.56413 0.54935 0.0
H206 H 0.04094 0.49763 0.60923 0.0
H207 H 0.99625 0.46523 0.60636 0.0
H208 H 0.06821 0.48012 0.50683 0.0
H209 H 0.02082 0.46732 0.44381 0.0
H210 H 0.02127 0.56685 0.58584 0.0
H211 H 0.966 0.54542 0.53037 0.0
C212 C 0.48605 0.99473 0.05837 0.0
C213 C 0.48469 1.0022 0.08294 0.0
C214 C 0.50266 0.02444 0.0839 0.0
C215 C 0.51408 0.02932 0.06008 0.0
N216 N 0.5044 0.01161 0.04375 0.0
Co217 Co 0.51673 0.01114 0.00792 0.0
N218 N 0.5442 0.04344 0.01022 0.0
C219 C 0.5493 0.05719 0.03075 0.0
C220 C 0.56853 0.07876 0.02645 0.0
C221 C 0.57614 0.07896 1.00156 0.0
C222 C 0.56111 0.05735 0.99207 0.0
N223 N 0.52896 0.01073 0.97202 0.0
C224 C 0.54723 0.02767 0.95737 0.0
C225 C 0.54913 0.02007 0.93314 0.0
C226 C 0.53122 0.99777 0.93215 0.0
C227 C 0.51947 0.99295 0.95578 0.0
N228 N 0.48935 0.97875 0.0057 0.0
C229 C 0.4844 0.96489 0.9853 0.0
C230 C 0.46494 0.94343 0.98952 0.0
C231 C 0.45711 0.94341 0.01424 0.0
C232 C 0.47237 0.96492 0.02383 0.0
N233 N 0.4983 0.02296 0.99166 0.0
C234 C 0.47499 0.04174 0.96591 0.0
C235 C 0.47368 0.02222 0.95682 0.0
C236 C 0.48533 0.01318 0.96989 0.0
C237 C 0.48735 0.05116 0.98877 0.0
C238 C 0.49873 0.04152 1.00129 0.0
N239 N 0.53486 0.99906 0.02437 0.0
C240 C 0.53841 0.96623 0.03082 0.0
C241 C 0.54601 0.97243 0.05647 0.0
C242 C 0.55138 0.994 0.06408 0.0
C243 C 0.54586 0.00708 0.04767 0.0
C244 C 0.53345 0.97998 0.01504 0.0
H245 H 0.54937 0.02291 0.05491 0.0
H246 H 0.52696 0.97396 0.99608 0.0
H247 H 0.48384 0.99848 0.96174 0.0
H248 H 0.50812 0.04963 0.01841 0.0
C249 C 0.53478 0.04984 0.05314 0.0
C250 C 0.47012 0.97117 0.05041 0.0
C251 C 0.56305 0.05125 0.96529 0.0
C252 C 0.4989 0.97225 0.96284 0.0
H253 H 0.47236 0.99245 0.09885 0.0
H254 H 0.50728 0.03553 0.10034 0.0
H255 H 0.57575 0.09289 0.03956 0.0
H256 H 0.59076 0.09361 0.99139 0.0
H257 H 0.56198 0.02974 0.91762 0.0
H258 H 0.527 0.98653 0.91594 0.0
H259 H 0.45756 0.92934 0.97635 0.0
H260 H 0.44201 0.92907 0.02421 0.0
H261 H 0.46389 0.01402 0.93948 0.0
H262 H 0.48892 0.06636 0.99653 0.0
H263 H 0.53445 0.95 0.0235 0.0
H264 H 0.55852 1.00022 0.08319 0.0
C265 C 0.53271 0.56121 0.51222 0.0
C266 C 0.53207 0.57722 0.52738 0.0
C267 C 0.51895 0.56556 0.54939 0.0
C268 C 0.51235 0.54319 0.54636 0.0
N269 N 0.52103 0.54008 0.52409 0.0
Co270 Co 0.51521 0.51055 0.51083 0.0
N271 N 0.49074 0.49255 0.53879 0.0
C272 C 0.48306 0.50085 0.55727 0.0
C273 C 0.46585 0.48417 0.57358 0.0
C274 C 0.46259 0.46406 0.56522 0.0
C275 C 0.47818 0.46973 0.54433 0.0
N276 N 0.51004 0.48107 0.49804 0.0
C277 C 0.49656 0.45947 0.50851 0.0
C278 C 0.49924 0.44394 0.49474 0.0
C279 C 0.51528 0.45625 0.47504 0.0
C280 C 0.52151 0.4785 0.47798 0.0
N281 N 0.53887 0.52867 0.4821 0.0
C282 C 0.5466 0.5207 0.46332 0.0
C283 C 0.5609 0.53713 0.44463 0.0
C284 C 0.56165 0.55654 0.45144 0.0
C285 C 0.54784 0.55073 0.47398 0.0
N286 N 0.54002 0.51265 0.5346 0.0
C287 C 0.57425 0.51375 0.56851 0.0
C288 C 0.57628 0.51374 0.5411 0.0
C289 C 0.55917 0.51303 0.52479 0.0
C290 C 0.5547 0.51341 0.57846 0.0
C291 C 0.53818 0.51306 0.56143 0.0
N292 N 0.49055 0.5084 0.48725 0.0
C293 C 0.47184 0.50037 0.44489 0.0
C294 C 0.45639 0.50673 0.45331 0.0
C295 C 0.45837 0.51385 0.47913 0.0
C296 C 0.47545 0.51466 0.49555 0.0
C297 C 0.48852 0.50118 0.46205 0.0
H298 H 0.47629 0.52061 0.51488 0.0
H299 H 0.49977 0.49609 0.45445 0.0
H300 H 0.5619 0.51271 0.50427 0.0
H301 H 0.52394 0.51292 0.57063 0.0
C302 C 0.49426 0.52443 0.56064 0.0
C303 C 0.54136 0.56575 0.48517 0.0
C304 C 0.48233 0.45324 0.53247 0.0
C305 C 0.53819 0.49732 0.46245 0.0
H306 H 0.53911 0.59513 0.52236 0.0
H307 H 0.51327 0.57224 0.56463 0.0
H308 H 0.45745 0.48642 0.5903 0.0
H309 H 0.45085 0.4472 0.57418 0.0
H310 H 0.49088 0.42571 0.49889 0.0
H311 H 0.52197 0.44981 0.46064 0.0
H312 H 0.56869 0.53492 0.4273 0.0
H313 H 0.57031 0.57281 0.44045 0.0
H314 H 0.59115 0.51447 0.53199 0.0
H315 H 0.55178 0.51303 0.59944 0.0
H316 H 0.47091 0.49449 0.42519 0.0
H317 H 0.44701 0.51916 0.48658 0.0
Cu318 Cu 0.23881 0.46513 0.24285 0.0
N319 N 0.24615 0.44878 0.22051 0.0
N320 N 0.26771 0.4419 0.19364 0.0
C321 C 0.26754 0.45673 0.21017 0.0
C322 C 0.2455 0.42383 0.1937 0.0
C323 C 0.23223 0.42814 0.21024 0.0
O324 O 0.26634 0.48256 0.26521 0.0
C325 C 0.21095 0.4701 0.20678 0.0
O326 O 0.20149 0.44781 0.20824 0.0
H327 H 0.28263 0.47319 0.21469 0.0
H328 H 0.21364 0.41721 0.21387 0.0
N329 N 0.21335 0.44533 0.26487 0.0
N330 N 0.18487 0.43459 0.29473 0.0
C331 C 0.20263 0.45227 0.2808 0.0
C332 C 0.20204 0.42242 0.26889 0.0
C333 C 0.18431 0.41571 0.28725 0.0
C334 C 0.26903 0.47082 0.2833 0.0
O335 O 0.25341 0.4488 0.28604 0.0
H336 H 0.20771 0.46999 0.28197 0.0
H337 H 0.20661 0.41139 0.25964 0.0
O338 O 0.22868 0.48249 0.22091 0.0
H339 H 0.23908 0.4089 0.18198 0.0
H340 H 0.17233 0.39844 0.29495 0.0
Cu341 Cu 0.78565 0.2383 0.75721 0.0
N342 N 0.77771 0.2144 0.73489 0.0
N343 N 0.75842 0.18761 0.70543 0.0
C344 C 0.75831 0.20326 0.72062 0.0
C345 C 0.77879 0.18906 0.71031 0.0
C346 C 0.7907 0.20568 0.72836 0.0
O347 O 0.7597 0.22784 0.78292 0.0
C348 C 0.80561 0.28661 0.73951 0.0
O349 O 0.80458 0.29155 0.76398 0.0
H350 H 0.74447 0.20666 0.72124 0.0
H351 H 0.80785 0.21134 0.73577 0.0
N352 N 0.81062 0.24235 0.77714 0.0
N353 N 0.84237 0.25856 0.80186 0.0
C354 C 0.82912 0.26214 0.78492 0.0
C355 C 0.81223 0.22566 0.78949 0.0
C356 C 0.83181 0.23559 0.8047 0.0
C357 C 0.73823 0.22051 0.77902 0.0
O358 O 0.73182 0.22333 0.75557 0.0
H359 H 0.83215 0.27879 0.77942 0.0
H360 H 0.79954 0.20752 0.78823 0.0
O361 O 0.79672 0.26572 0.73378 0.0
H362 H 0.78497 0.17928 0.70101 0.0
H363 H 0.83746 0.22656 0.81736 0.0
Cu364 Cu 0.50398 0.75277 0.27055 0.0
N365 N 0.48299 0.75642 0.2507 0.0
N366 N 0.4719 0.77444 0.22291 0.0
C367 C 0.4855 0.77653 0.24331 0.0
C368 C 0.46004 0.75203 0.21748 0.0
C369 C 0.46687 0.74092 0.23477 0.0
O370 O 0.51956 0.77868 0.29422 0.0
C371 C 0.53558 0.73995 0.24742 0.0
O372 O 0.54551 0.74244 0.27027 0.0
H373 H 0.49886 0.79279 0.25064 0.0
H374 H 0.46215 0.72328 0.23412 0.0
N375 N 0.48714 0.7265 0.29216 0.0
N376 N 0.47989 0.6971 0.31903 0.0
C377 C 0.49623 0.71578 0.30504 0.0
C378 C 0.46418 0.71435 0.29844 0.0
C379 C 0.45965 0.69614 0.31517 0.0
C380 C 0.53252 0.80011 0.28852 0.0
O381 O 0.54066 0.80698 0.26432 0.0
H382 H 0.51459 0.72183 0.30472 0.0
H383 H 0.45166 0.71843 0.29136 0.0
O384 O 0.52092 0.74613 0.24428 0.0
H385 H 0.44878 0.74462 0.20088 0.0
H386 H 0.44281 0.68311 0.32353 0.0
Cu387 Cu 0.79052 0.55291 0.77339 0.0
N388 N 0.8127 0.5733 0.74854 0.0
N389 N 0.84287 0.59019 0.72006 0.0
C390 C 0.83127 0.57342 0.73882 0.0
C391 C 0.83117 0.60108 0.71805 0.0
C392 C 0.8126 0.59064 0.73569 0.0
O393 O 0.80358 0.53886 0.79616 0.0
C394 C 0.75898 0.53012 0.73122 0.0
O395 O 0.77789 0.53579 0.71748 0.0
H396 H 0.83574 0.56102 0.74471 0.0
H397 H 0.79965 0.5951 0.7387 0.0
N398 N 0.78509 0.57033 0.79578 0.0
N399 N 0.76642 0.57975 0.82378 0.0
C400 C 0.76457 0.56384 0.80749 0.0
C401 C 0.80055 0.59109 0.80478 0.0
C402 C 0.78905 0.59701 0.82206 0.0
C403 C 0.81236 0.52708 0.79026 0.0
O404 O 0.81071 0.52025 0.76614 0.0
H405 H 0.74866 0.54767 0.80409 0.0
H406 H 0.81894 0.601 0.79949 0.0
O407 O 0.76062 0.53356 0.75585 0.0
H408 H 0.83558 0.61544 0.70467 0.0
H409 H 0.7969 0.61248 0.83302 0.0
Cu410 Cu 0.24834 0.78743 0.26907 0.0
N411 N 0.22493 0.78328 0.24605 0.0
N412 N 0.19544 0.76585 0.21832 0.0
C413 C 0.21019 0.76367 0.23421 0.0
C414 C 0.20119 0.78773 0.2201 0.0
C415 C 0.21936 0.79843 0.23727 0.0
O416 O 0.23608 0.75789 0.28904 0.0
C417 C 0.28425 0.82068 0.23723 0.0
O418 O 0.27239 0.83005 0.24359 0.0
H419 H 0.21057 0.74821 0.23694 0.0
H420 H 0.22788 0.81605 0.24286 0.0
N421 N 0.25336 0.80902 0.29367 0.0
N422 N 0.27189 0.83623 0.32273 0.0
C423 C 0.27264 0.8207 0.30804 0.0
C424 C 0.23981 0.81724 0.29974 0.0
C425 C 0.25131 0.8342 0.31755 0.0
C426 C 0.21571 0.74965 0.29938 0.0
O427 O 0.20553 0.76132 0.29604 0.0
H428 H 0.28727 0.81838 0.30705 0.0
H429 H 0.2229 0.81152 0.29158 0.0
O430 O 0.27736 0.80067 0.24715 0.0
H431 H 0.19274 0.79538 0.20994 0.0
H432 H 0.24507 0.84424 0.32606 0.0
Cu433 Cu 0.46968 0.24408 0.75899 0.0
N434 N 0.45162 0.25075 0.73726 0.0
N435 N 0.44142 0.26867 0.70807 0.0
C436 C 0.45899 0.26964 0.72176 0.0
C437 C 0.42224 0.2482 0.71491 0.0
C438 C 0.42861 0.23715 0.73287 0.0
O439 O 0.48806 0.27009 0.78212 0.0
C440 C 0.498 0.22554 0.74042 0.0
O441 O 0.5077 0.22898 0.76354 0.0
H442 H 0.47697 0.28353 0.71986 0.0
H443 H 0.41728 0.22028 0.74192 0.0
N444 N 0.44897 0.22023 0.78196 0.0
N445 N 0.43336 0.18955 0.80949 0.0
C446 C 0.45003 0.20222 0.79091 0.0
C447 C 0.43108 0.21896 0.79527 0.0
C448 C 0.42136 0.20001 0.81222 0.0
C449 C 0.50161 0.2914 0.77609 0.0
O450 O 0.50866 0.29788 0.75155 0.0
H451 H 0.46347 0.19915 0.7849 0.0
H452 H 0.42594 0.23138 0.7933 0.0
O453 O 0.48398 0.23228 0.7356 0.0
H454 H 0.40486 0.24175 0.70765 0.0
H455 H 0.4069 0.19465 0.82586 0.0
C456 C 0.0833 0.49218 0.05521 0.0
C457 C 0.07594 0.50713 0.06132 0.0
C458 C 0.09981 0.49092 0.07066 0.0
C459 C 0.12784 0.50535 0.13654 0.0
H460 H 0.17156 0.49339 0.1028 0.0
C461 C 0.19959 0.49896 0.19429 0.0
C462 C 0.2004 0.47951 0.18872 0.0
C463 C 0.18656 0.50527 0.17848 0.0
C464 C 0.15946 0.49669 0.1126 0.0
H465 H 0.07996 0.53247 0.08831 0.0
H466 H 0.10913 0.53068 0.11516 0.0
H467 H 0.14447 0.49829 0.07619 0.0
H468 H 0.18892 0.45209 0.16161 0.0
H469 H 0.16692 0.46323 0.13412 0.0
H470 H 0.14302 0.50369 0.17302 0.0
C471 C 0.10197 0.51961 0.09869 0.0
C472 C 0.14374 0.49937 0.0973 0.0
C473 C 0.08536 0.52078 0.08325 0.0
C474 C 0.18871 0.46717 0.16651 0.0
C475 C 0.17612 0.47363 0.15061 0.0
C476 C 0.14372 0.5028 0.15187 0.0
C477 C 0.10954 0.50469 0.09262 0.0
C478 C 0.12734 0.5033 0.10902 0.0
C479 C 0.1745 0.49253 0.15651 0.0
C480 C 0.15946 0.498 0.14015 0.0
H481 H 0.07617 0.48138 0.03848 0.0
H482 H 0.1047 0.47886 0.06552 0.0
H483 H 0.11543 0.50815 0.14645 0.0
H484 H 0.20821 0.5087 0.21138 0.0
H485 H 0.18578 0.52 0.18354 0.0
C486 C 0.59454 0.07477 0.56259 0.0
C487 C 0.59182 0.05432 0.55431 0.0
C488 C 0.61327 0.08926 0.57819 0.0
C489 C 0.6715 0.10271 0.59936 0.0
H490 H 0.65933 0.13085 0.65679 0.0
C491 C 0.7383 0.15218 0.68033 0.0
C492 C 0.74063 0.17282 0.68753 0.0
C493 C 0.72064 0.13761 0.66351 0.0
C494 C 0.66305 0.12328 0.64069 0.0
H495 H 0.60645 0.03298 0.55493 0.0
H496 H 0.63918 0.05812 0.58279 0.0
H497 H 0.62763 0.1056 0.62842 0.0
H498 H 0.72661 0.19463 0.68177 0.0
H499 H 0.69576 0.16915 0.65281 0.0
H500 H 0.70695 0.12032 0.61195 0.0
C501 C 0.62703 0.06315 0.57705 0.0
C502 C 0.6449 0.10885 0.62439 0.0
C503 C 0.6083 0.0487 0.56131 0.0
C504 C 0.72507 0.17867 0.6772 0.0
C505 C 0.70739 0.16409 0.66051 0.0
C506 C 0.68965 0.11709 0.61578 0.0
C507 C 0.6296 0.0835 0.58587 0.0
C508 C 0.64893 0.09852 0.60341 0.0
C509 C 0.70488 0.14334 0.65363 0.0
C510 C 0.68563 0.12764 0.63649 0.0
H511 H 0.582 0.0794 0.55718 0.0
H512 H 0.61497 0.10501 0.5842 0.0
H513 H 0.67524 0.09522 0.5832 0.0
H514 H 0.74979 0.147 0.68812 0.0
H515 H 0.71898 0.12161 0.65871 0.0
C516 C 0.52273 0.587 0.11466 0.0
C517 C 0.52998 0.5923 0.08805 0.0
C518 C 0.52444 0.60379 0.13111 0.0
C519 C 0.53217 0.66203 0.12948 0.0
H520 H 0.54495 0.65973 0.20334 0.0
C521 C 0.52373 0.71915 0.20484 0.0
C522 C 0.53822 0.72636 0.22685 0.0
C523 C 0.52404 0.70401 0.18726 0.0
C524 C 0.54165 0.66092 0.18272 0.0
H525 H 0.54518 0.61985 0.05821 0.0
H526 H 0.54851 0.64909 0.08679 0.0
H527 H 0.54335 0.63152 0.17453 0.0
H528 H 0.56506 0.7237 0.24686 0.0
H529 H 0.56614 0.69798 0.21592 0.0
H530 H 0.53115 0.69183 0.13751 0.0
C531 C 0.54095 0.6318 0.09494 0.0
C532 C 0.54035 0.64438 0.16615 0.0
C533 C 0.53908 0.61496 0.07845 0.0
C534 C 0.5536 0.71856 0.23021 0.0
C535 C 0.55402 0.70353 0.21253 0.0
C536 C 0.5336 0.67864 0.14602 0.0
C537 C 0.53362 0.62652 0.12157 0.0
C538 C 0.53545 0.64454 0.13924 0.0
C539 C 0.53895 0.69565 0.19098 0.0
C540 C 0.53824 0.67833 0.17299 0.0
H541 H 0.5153 0.56971 0.12275 0.0
H542 H 0.51815 0.59876 0.15126 0.0
H543 H 0.5281 0.66275 0.10904 0.0
H544 H 0.51149 0.72457 0.20161 0.0
H545 H 0.51191 0.69827 0.17124 0.0
C546 C 0.97288 0.58019 0.56338 0.0
C547 C 0.98231 0.56843 0.57585 0.0
C548 C 0.96153 0.58837 0.57812 0.0
C549 C 0.95214 0.60034 0.64609 0.0
H550 H 0.89137 0.58427 0.62069 0.0
C551 C 0.8777 0.58774 0.71365 0.0
C552 C 0.86237 0.59414 0.70409 0.0
C553 C 0.89536 0.58965 0.69743 0.0
C554 C 0.90849 0.58932 0.62786 0.0
H555 H 0.98761 0.55644 0.61361 0.0
H556 H 0.96786 0.57065 0.63923 0.0
H557 H 0.91724 0.57879 0.59298 0.0
H558 H 0.85411 0.60835 0.6702 0.0
H559 H 0.88516 0.61197 0.64197 0.0
H560 H 0.94298 0.61015 0.68135 0.0
C561 C 0.96955 0.57391 0.61812 0.0
C562 C 0.92333 0.58619 0.61195 0.0
C563 C 0.98087 0.56574 0.60342 0.0
C564 C 0.86568 0.60336 0.67823 0.0
C565 C 0.88333 0.60524 0.66197 0.0
C566 C 0.93727 0.60347 0.66201 0.0
C567 C 0.95939 0.58495 0.60562 0.0
C568 C 0.94509 0.59117 0.62113 0.0
C569 C 0.89808 0.59801 0.67126 0.0
C570 C 0.91508 0.5975 0.65328 0.0
H571 H 0.97403 0.58283 0.54219 0.0
H572 H 0.95414 0.59708 0.56796 0.0
H573 H 0.96896 0.60468 0.65352 0.0
H574 H 0.87584 0.5809 0.73359 0.0
H575 H 0.90629 0.58373 0.70512 0.0
C576 C 0.43305 0.95639 0.07719 0.0
C577 C 0.45139 0.9538 0.06915 0.0
C578 C 0.4161 0.94085 0.09561 0.0
C579 C 0.38866 0.88222 0.12647 0.0
H580 H 0.37008 0.90805 0.18056 0.0
C581 C 0.31997 0.82674 0.21171 0.0
C582 C 0.30451 0.83378 0.21828 0.0
C583 C 0.33905 0.84026 0.19408 0.0
C584 C 0.37481 0.9004 0.16548 0.0
H585 H 0.46602 0.93255 0.07355 0.0
H586 H 0.43618 0.90509 0.10563 0.0
H587 H 0.40027 0.93333 0.14845 0.0
H588 H 0.29687 0.86037 0.21049 0.0
H589 H 0.32909 0.88311 0.18019 0.0
H590 H 0.36271 0.84917 0.14342 0.0
C591 C 0.43493 0.9192 0.09773 0.0
C592 C 0.39221 0.915 0.14699 0.0
C593 C 0.45205 0.93493 0.07942 0.0
C594 C 0.30842 0.85435 0.20641 0.0
C595 C 0.32719 0.86764 0.18897 0.0
C596 C 0.37101 0.86751 0.14498 0.0
C597 C 0.41687 0.92212 0.10637 0.0
C598 C 0.39915 0.90619 0.1269 0.0
C599 C 0.34306 0.86111 0.18271 0.0
C600 C 0.36347 0.87639 0.16445 0.0
H601 H 0.432 0.97065 0.06939 0.0
H602 H 0.40229 0.94348 0.10139 0.0
H603 H 0.39353 0.87479 0.11129 0.0
H604 H 0.3175 0.811 0.22036 0.0
H605 H 0.35087 0.83462 0.18975 0.0
C606 C 0.45814 0.41093 0.54257 0.0
C607 C 0.47704 0.43265 0.54841 0.0
C608 C 0.45234 0.39193 0.55914 0.0
C609 C 0.45891 0.37749 0.62746 0.0
H610 H 0.44529 0.31967 0.60077 0.0
C611 C 0.46031 0.30921 0.69323 0.0
C612 C 0.44305 0.28607 0.69008 0.0
C613 C 0.4623 0.32615 0.67567 0.0
C614 C 0.4487 0.3356 0.60849 0.0
H615 H 0.50498 0.45193 0.57533 0.0
H616 H 0.49508 0.41879 0.60424 0.0
H617 H 0.45308 0.35111 0.56994 0.0
H618 H 0.41431 0.26258 0.66599 0.0
H619 H 0.41764 0.29236 0.63531 0.0
H620 H 0.45481 0.36222 0.66593 0.0
C621 C 0.48453 0.41633 0.58717 0.0
C622 C 0.45319 0.35358 0.59086 0.0
C623 C 0.49032 0.43521 0.57062 0.0
C624 C 0.42767 0.28027 0.66904 0.0
C625 C 0.42972 0.29728 0.65135 0.0
C626 C 0.45441 0.35957 0.64503 0.0
C627 C 0.46531 0.39454 0.58181 0.0
C628 C 0.45878 0.37484 0.60021 0.0
C629 C 0.44707 0.32039 0.65452 0.0
C630 C 0.44971 0.33859 0.63575 0.0
H631 H 0.44765 0.4088 0.52555 0.0
H632 H 0.43738 0.37535 0.55463 0.0
H633 H 0.46265 0.39353 0.63523 0.0
H634 H 0.47222 0.31428 0.70942 0.0
H635 H 0.47604 0.34378 0.67846 0.0
C636 C 0.54111 0.95313 0.41941 0.0
C637 C 0.52529 0.94534 0.44101 0.0
C638 C 0.54281 0.93767 0.40366 0.0
C639 C 0.51062 0.87555 0.38717 0.0
H640 H 0.57012 0.89209 0.35576 0.0
C641 C 0.52222 0.80965 0.332 0.0
C642 C 0.53488 0.81708 0.30793 0.0
C643 C 0.5221 0.82534 0.34883 0.0
C644 C 0.55331 0.88722 0.3642 0.0
H645 H 0.49872 0.91459 0.46249 0.0
H646 H 0.50228 0.88793 0.43587 0.0
H647 H 0.56774 0.91894 0.38365 0.0
H648 H 0.55796 0.84724 0.28333 0.0
H649 H 0.55794 0.87455 0.31276 0.0
H650 H 0.49628 0.84374 0.36791 0.0
C651 C 0.51315 0.90605 0.4307 0.0
C652 C 0.5519 0.90272 0.38021 0.0
C653 C 0.51135 0.92149 0.44635 0.0
C654 C 0.54806 0.8408 0.30168 0.0
C655 C 0.54808 0.85653 0.31864 0.0
C656 C 0.51208 0.86001 0.37135 0.0
C657 C 0.52885 0.91383 0.40899 0.0
C658 C 0.5305 0.89718 0.39197 0.0
C659 C 0.53475 0.849 0.34226 0.0
C660 C 0.53343 0.86559 0.35955 0.0
H661 H 0.55244 0.97128 0.41469 0.0
H662 H 0.55493 0.94451 0.38703 0.0
H663 H 0.49369 0.87065 0.39526 0.0
H664 H 0.51182 0.79157 0.33758 0.0
H665 H 0.51192 0.81886 0.36699 0.0
C666 C 0.59921 0.53529 0.96055 0.0
C667 C 0.59927 0.55355 0.97191 0.0
C668 C 0.61781 0.53941 0.94437 0.0
C669 C 0.67952 0.58207 0.92751 0.0
H670 H 0.66535 0.5472 0.86456 0.0
C671 C 0.74958 0.59789 0.84917 0.0
C672 C 0.74817 0.57809 0.84026 0.0
C673 C 0.73172 0.59613 0.86499 0.0
C674 C 0.66957 0.55696 0.88215 0.0
H675 H 0.61854 0.59022 0.97613 0.0
H676 H 0.65122 0.59767 0.94736 0.0
H677 H 0.63361 0.54189 0.89281 0.0
H678 H 0.72713 0.5409 0.84177 0.0
H679 H 0.69604 0.53791 0.86895 0.0
H680 H 0.71557 0.59712 0.91671 0.0
C681 C 0.63693 0.58015 0.95108 0.0
C682 C 0.65141 0.55389 0.89836 0.0
C683 C 0.61829 0.57598 0.96735 0.0
C684 C 0.7286 0.55653 0.8477 0.0
C685 C 0.71076 0.5548 0.86336 0.0
C686 C 0.69773 0.58521 0.9112 0.0
C687 C 0.63678 0.56191 0.93924 0.0
C688 C 0.65617 0.56616 0.92142 0.0
C689 C 0.71208 0.57456 0.87208 0.0
C690 C 0.69291 0.57244 0.88856 0.0
H691 H 0.58465 0.51785 0.96406 0.0
H692 H 0.61737 0.52495 0.93597 0.0
H693 H 0.68375 0.59164 0.94526 0.0
H694 H 0.76427 0.61476 0.84361 0.0
H695 H 0.73308 0.61166 0.8713 0.0
C696 C 0.0845 0.5726 0.43406 0.0
C697 C 0.07847 0.57814 0.45787 0.0
C698 C 0.10108 0.58986 0.41659 0.0
C699 C 0.14978 0.65127 0.41205 0.0
H700 H 0.13605 0.64637 0.33778 0.0
C701 C 0.21349 0.71975 0.3321 0.0
C702 C 0.20262 0.72728 0.31455 0.0
C703 C 0.19997 0.70029 0.34901 0.0
C704 C 0.14024 0.64801 0.35844 0.0
H705 H 0.08517 0.60612 0.48208 0.0
H706 H 0.11426 0.63633 0.45176 0.0
H707 H 0.10941 0.61557 0.36879 0.0
H708 H 0.16912 0.7197 0.30028 0.0
H709 H 0.14586 0.68589 0.32893 0.0
H710 H 0.18042 0.68402 0.40161 0.0
C711 C 0.10634 0.61862 0.44659 0.0
C712 C 0.125 0.63022 0.37626 0.0
C713 C 0.0896 0.60135 0.46395 0.0
C714 C 0.17809 0.71439 0.31353 0.0
C715 C 0.1647 0.69488 0.32995 0.0
C716 C 0.16518 0.669 0.39415 0.0
C717 C 0.11223 0.61317 0.42253 0.0
C718 C 0.12932 0.63169 0.40341 0.0
C719 C 0.17533 0.68771 0.3483 0.0
C720 C 0.16043 0.6678 0.36711 0.0
H721 H 0.07626 0.55485 0.42892 0.0
H722 H 0.10527 0.58491 0.39844 0.0
H723 H 0.15387 0.65295 0.43273 0.0
H724 H 0.23232 0.72943 0.33356 0.0
H725 H 0.20876 0.6952 0.36279 0.0
C726 C 0.46689 0.05508 0.92327 0.0
C727 C 0.46459 0.05285 0.95083 0.0
C728 C 0.45837 0.06664 0.90894 0.0
C729 C 0.44501 0.11122 0.91589 0.0
H730 H 0.41854 0.09247 0.84693 0.0
C731 C 0.42209 0.16639 0.85118 0.0
C732 C 0.43083 0.17054 0.82517 0.0
C733 C 0.42161 0.14925 0.86714 0.0
C734 C 0.42592 0.09791 0.86615 0.0
H735 H 0.45087 0.06033 0.98492 0.0
H736 H 0.43595 0.08063 0.95981 0.0
H737 H 0.42586 0.06718 0.8743 0.0
H738 H 0.44473 0.15915 0.79511 0.0
H739 H 0.44424 0.12945 0.82307 0.0
H740 H 0.44565 0.14218 0.90751 0.0
C741 C 0.44459 0.07362 0.94936 0.0
C742 C 0.43012 0.08346 0.8818 0.0
C743 C 0.45315 0.06204 0.96373 0.0
C744 C 0.4382 0.15657 0.81516 0.0
C745 C 0.43765 0.13938 0.83109 0.0
C746 C 0.44077 0.12563 0.90027 0.0
C747 C 0.44735 0.07625 0.92183 0.0
C748 C 0.44019 0.09019 0.90659 0.0
C749 C 0.42976 0.13583 0.8574 0.0
C750 C 0.43165 0.11934 0.87502 0.0
H751 H 0.47599 0.04855 0.91278 0.0
H752 H 0.46119 0.06875 0.88782 0.0
H753 H 0.45307 0.11704 0.93473 0.0
H754 H 0.41642 0.17693 0.85956 0.0
H755 H 0.41523 0.14675 0.88727 0.0
C756 C 0.41517 0.49648 0.4449 0.0
C757 C 0.43816 0.50562 0.43551 0.0
C758 C 0.39786 0.49479 0.42819 0.0
C759 C 0.38779 0.51731 0.36561 0.0
H760 H 0.32775 0.4602 0.36954 0.0
C761 C 0.31239 0.49537 0.29169 0.0
C762 C 0.28932 0.48064 0.30107 0.0
C763 C 0.33138 0.50047 0.30789 0.0
C764 C 0.3442 0.4765 0.36838 0.0
H765 H 0.46102 0.52081 0.40115 0.0
H766 H 0.43079 0.51797 0.37197 0.0
H767 H 0.35881 0.4651 0.39788 0.0
H768 H 0.26811 0.46098 0.33518 0.0
H769 H 0.30069 0.47071 0.36359 0.0
H770 H 0.37298 0.52881 0.33627 0.0
C771 C 0.42616 0.51202 0.39231 0.0
C772 C 0.36214 0.47924 0.38468 0.0
C773 C 0.44345 0.51345 0.40899 0.0
C774 C 0.28568 0.47228 0.32731 0.0
C775 C 0.30448 0.47763 0.34353 0.0
C776 C 0.36967 0.51466 0.34941 0.0
C777 C 0.40304 0.50242 0.40161 0.0
C778 C 0.38417 0.49969 0.38369 0.0
C779 C 0.32767 0.49111 0.3339 0.0
C780 C 0.34747 0.49424 0.35069 0.0
H781 H 0.4104 0.49018 0.46513 0.0
H782 H 0.38035 0.48752 0.43615 0.0
H783 H 0.40449 0.53335 0.36437 0.0
H784 H 0.31576 0.50183 0.27144 0.0
H785 H 0.34889 0.51086 0.29959 0.0
C786 C 0.97776 0.42796 0.91537 0.0
C787 C 0.98026 0.42555 0.94249 0.0
C788 C 0.96614 0.40873 0.90006 0.0
C789 C 0.92149 0.34742 0.90607 0.0
H790 H 0.93991 0.34756 0.83383 0.0
C791 C 0.86647 0.27033 0.84162 0.0
C792 C 0.86173 0.2757 0.81642 0.0
C793 C 0.8837 0.28746 0.85679 0.0
C794 C 0.93452 0.34731 0.85395 0.0
H795 H 0.97347 0.4011 0.97457 0.0
H796 H 0.95316 0.36745 0.94778 0.0
H797 H 0.96532 0.37977 0.86106 0.0
H798 H 0.87234 0.30305 0.78685 0.0
H799 H 0.90207 0.333 0.81348 0.0
H800 H 0.89047 0.31529 0.89886 0.0
C801 C 0.95989 0.38424 0.93847 0.0
C802 C 0.94906 0.36574 0.86953 0.0
C803 C 0.97151 0.40349 0.9538 0.0
C804 C 0.8753 0.29841 0.80632 0.0
C805 C 0.89255 0.31553 0.82148 0.0
C806 C 0.90698 0.32902 0.89052 0.0
C807 C 0.95676 0.38662 0.9115 0.0
C808 C 0.94253 0.36616 0.89565 0.0
C809 C 0.89662 0.31032 0.84709 0.0
C810 C 0.91315 0.32891 0.86416 0.0
H811 H 0.98397 0.44468 0.90612 0.0
H812 H 0.96371 0.41115 0.87944 0.0
H813 H 0.91576 0.34737 0.92597 0.0
H814 H 0.85628 0.25308 0.8501 0.0
H815 H 0.88663 0.28286 0.87633 0.0
C816 C 0.95253 0.50649 0.9271 0.0
C817 C 0.95858 0.51839 0.95053 0.0
C818 C 0.93609 0.50661 0.91032 0.0
C819 C 0.90655 0.53873 0.89507 0.0
H820 H 0.86412 0.48471 0.85694 0.0
C821 C 0.83102 0.53329 0.83468 0.0
C822 C 0.82682 0.52354 0.80986 0.0
C823 C 0.84622 0.53179 0.85224 0.0
C824 C 0.87596 0.50004 0.86723 0.0
H825 H 0.95224 0.53981 0.97475 0.0
H826 H 0.9232 0.53971 0.94593 0.0
H827 H 0.89211 0.48392 0.88654 0.0
H828 H 0.83515 0.50406 0.7845 0.0
H829 H 0.86156 0.50139 0.81507 0.0
H830 H 0.89033 0.5548 0.87585 0.0
C831 C 0.93133 0.53051 0.94014 0.0
C832 C 0.89212 0.49961 0.88425 0.0
C833 C 0.94784 0.53044 0.95684 0.0
C834 C 0.83784 0.51172 0.80342 0.0
C835 C 0.85298 0.51013 0.82105 0.0
C836 C 0.89034 0.53912 0.87816 0.0
C837 C 0.9252 0.51864 0.91653 0.0
C838 C 0.90773 0.51897 0.89845 0.0
C839 C 0.85767 0.52042 0.8456 0.0
C840 C 0.87479 0.51979 0.86393 0.0
H841 H 0.96065 0.49716 0.92172 0.0
H842 H 0.93223 0.49756 0.89223 0.0
H843 H 0.91847 0.55416 0.90515 0.0
H844 H 0.82289 0.54251 0.84045 0.0
H845 H 0.84903 0.53961 0.87108 0.0
C846 C 0.44476 0.96854 0.44135 0.0
C847 C 0.4413 0.97587 0.46535 0.0
C848 C 0.4258 0.95474 0.42558 0.0
C849 C 0.36443 0.91147 0.42947 0.0
H850 H 0.3634 0.92563 0.35521 0.0
C851 C 0.30278 0.84569 0.35474 0.0
C852 C 0.28985 0.85229 0.33946 0.0
C853 C 0.32054 0.86138 0.37067 0.0
C854 C 0.36347 0.92156 0.37594 0.0
H855 H 0.41576 0.97563 0.49126 0.0
H856 H 0.38227 0.9506 0.46411 0.0
H857 H 0.39629 0.95268 0.38175 0.0
H858 H 0.28541 0.88039 0.32852 0.0
H859 H 0.317 0.90813 0.35596 0.0
H860 H 0.33201 0.88002 0.42349 0.0
C861 C 0.39965 0.95554 0.45756 0.0
C862 C 0.38226 0.93692 0.39104 0.0
C863 C 0.41869 0.96974 0.47305 0.0
C864 C 0.29502 0.87488 0.34031 0.0
C865 C 0.31312 0.89072 0.35582 0.0
C866 C 0.3459 0.89589 0.41426 0.0
C867 C 0.40305 0.94783 0.43377 0.0
C868 C 0.38288 0.93199 0.41792 0.0
C869 C 0.32598 0.88407 0.37116 0.0
C870 C 0.34528 0.90081 0.38738 0.0
H871 H 0.46213 0.97324 0.43501 0.0
H872 H 0.42882 0.94894 0.40735 0.0
H873 H 0.36464 0.90725 0.45013 0.0
H874 H 0.299 0.82833 0.35448 0.0
H875 H 0.33031 0.85591 0.38226 0.0
C876 C 0.50839 0.41945 0.94675 0.0
C877 C 0.51701 0.44221 0.93787 0.0
C878 C 0.50755 0.40333 0.9298 0.0
C879 C 0.50978 0.39287 0.85818 0.0
H880 H 0.52002 0.34558 0.885 0.0
C881 C 0.51797 0.33238 0.7883 0.0
C882 C 0.50645 0.30895 0.79591 0.0
C883 C 0.52021 0.34865 0.80595 0.0
C884 C 0.51691 0.35854 0.87717 0.0
H885 H 0.53205 0.46576 0.90398 0.0
H886 H 0.5309 0.43796 0.87467 0.0
H887 H 0.52195 0.37361 0.91467 0.0
H888 H 0.4888 0.28459 0.82866 0.0
H889 H 0.49285 0.31291 0.85942 0.0
H890 H 0.50491 0.37787 0.82065 0.0
C891 C 0.5242 0.43229 0.89461 0.0
C892 C 0.51797 0.37467 0.89427 0.0
C893 C 0.52491 0.44835 0.91152 0.0
C894 C 0.49788 0.30243 0.82203 0.0
C895 C 0.50025 0.31874 0.83975 0.0
C896 C 0.50886 0.37683 0.84108 0.0
C897 C 0.51543 0.40944 0.90339 0.0
C898 C 0.5144 0.39214 0.88509 0.0
C899 C 0.51111 0.34208 0.83187 0.0
C900 C 0.5124 0.35938 0.85026 0.0
H901 H 0.50184 0.4139 0.96676 0.0
H902 H 0.50029 0.38592 0.93737 0.0
H903 H 0.50644 0.40563 0.85026 0.0
H904 H 0.5248 0.33817 0.76842 0.0
H905 H 0.52903 0.36644 0.79919 0.0
C906 C 0.08368 0.47894 0.45514 0.0
C907 C 0.05918 0.46552 0.45657 0.0
C908 C 0.09606 0.47362 0.43799 0.0
C909 C 0.09396 0.42845 0.40035 0.0
H910 H 0.1409 0.47945 0.35641 0.0
C911 C 0.14646 0.41838 0.31704 0.0
C912 C 0.17004 0.43597 0.31385 0.0
C913 C 0.13184 0.42053 0.3346 0.0
C914 C 0.12808 0.46506 0.36875 0.0
H915 H 0.02845 0.43557 0.44182 0.0
H916 H 0.0503 0.42615 0.41172 0.0
H917 H 0.11735 0.48553 0.3872 0.0
H918 H 0.19714 0.46892 0.32748 0.0
H919 H 0.17194 0.47253 0.35838 0.0
H920 H 0.10508 0.40807 0.3822 0.0
C921 C 0.05979 0.44079 0.42395 0.0
C922 C 0.11455 0.46855 0.3863 0.0
C923 C 0.04733 0.44625 0.441 0.0
C924 C 0.17892 0.45535 0.32912 0.0
C925 C 0.16443 0.45741 0.34677 0.0
C926 C 0.1077 0.42497 0.38287 0.0
C927 C 0.08424 0.45472 0.42197 0.0
C928 C 0.09757 0.45038 0.40251 0.0
C929 C 0.14063 0.44024 0.3494 0.0
C930 C 0.12514 0.44335 0.36714 0.0
H931 H 0.0933 0.49406 0.46663 0.0
H932 H 0.11493 0.48451 0.43702 0.0
H933 H 0.08099 0.41418 0.41271 0.0
H934 H 0.13919 0.40333 0.30537 0.0
H935 H 0.11356 0.40707 0.33603 0.0
C936 C 0.57408 0.07667 0.9241 0.0
C937 C 0.58096 0.06899 0.94614 0.0
C938 C 0.5908 0.09355 0.90639 0.0
C939 C 0.65374 0.14017 0.90073 0.0
H940 H 0.64286 0.13552 0.82582 0.0
C941 C 0.72649 0.19949 0.82344 0.0
C942 C 0.72018 0.20586 0.7998 0.0
C943 C 0.70941 0.18373 0.84168 0.0
C944 C 0.64612 0.13738 0.84668 0.0
H945 H 0.61067 0.07263 0.96668 0.0
H946 H 0.63993 0.10208 0.93589 0.0
H947 H 0.61358 0.10625 0.85627 0.0
H948 H 0.69066 0.20093 0.77744 0.0
H949 H 0.66101 0.17398 0.80937 0.0
H950 H 0.68623 0.17132 0.8912 0.0
C951 C 0.62165 0.09535 0.93236 0.0
C952 C 0.62925 0.12046 0.86423 0.0
C953 C 0.60491 0.07839 0.94996 0.0
C954 C 0.69627 0.19648 0.79534 0.0
C955 C 0.67918 0.18076 0.81363 0.0
C956 C 0.67058 0.15714 0.8832 0.0
C957 C 0.61488 0.10326 0.9103 0.0
C958 C 0.63281 0.12152 0.89154 0.0
C959 C 0.68543 0.17384 0.83694 0.0
C960 C 0.66712 0.15601 0.85584 0.0
H961 H 0.55573 0.06972 0.92071 0.0
H962 H 0.58483 0.09928 0.88986 0.0
H963 H 0.65702 0.14187 0.9216 0.0
H964 H 0.74467 0.20617 0.82758 0.0
H965 H 0.71508 0.17876 0.85915 0.0
C966 C 0.5478 0.60327 0.46805 0.0
C967 C 0.53559 0.57935 0.4673 0.0
C968 C 0.54123 0.6157 0.45198 0.0
C969 C 0.5321 0.63813 0.40512 0.0
H970 H 0.46629 0.61453 0.3953 0.0
C971 C 0.50165 0.6781 0.32733 0.0
C972 C 0.48387 0.68175 0.33469 0.0
C973 C 0.50699 0.66477 0.34337 0.0
C974 C 0.48472 0.62141 0.39801 0.0
H975 H 0.50764 0.54958 0.44894 0.0
H976 H 0.49624 0.57115 0.42058 0.0
H977 H 0.47801 0.59347 0.42418 0.0
H978 H 0.45722 0.67375 0.36418 0.0
H979 H 0.46665 0.65042 0.39255 0.0
H980 H 0.53886 0.66625 0.37938 0.0
C981 C 0.51053 0.58038 0.43388 0.0
C982 C 0.49144 0.60924 0.41431 0.0
C983 C 0.51712 0.56802 0.44991 0.0
C984 C 0.47092 0.6711 0.35801 0.0
C985 C 0.47634 0.65778 0.3742 0.0
C986 C 0.52539 0.65027 0.38885 0.0
C987 C 0.5224 0.60435 0.43486 0.0
C988 C 0.51522 0.61744 0.41795 0.0
C989 C 0.49472 0.65482 0.36723 0.0
C990 C 0.50164 0.64199 0.38498 0.0
H991 H 0.56225 0.61229 0.48118 0.0
H992 H 0.55064 0.63415 0.45328 0.0
H993 H 0.55055 0.64479 0.40732 0.0
H994 H 0.51154 0.68567 0.30914 0.0
H995 H 0.52083 0.66233 0.33711 0.0
C996 C 0.48853 0.08239 0.59119 0.0
C997 C 0.50989 0.08468 0.58438 0.0
C998 C 0.48786 0.09822 0.60733 0.0
C999 C 0.51887 0.13846 0.6594 0.0
H1000 H 0.48634 0.16821 0.63648 0.0
C1001 C 0.51998 0.20829 0.72219 0.0
C1002 C 0.50095 0.21129 0.72108 0.0
C1003 C 0.52188 0.1938 0.70491 0.0
C1004 C 0.49515 0.15985 0.64367 0.0
H1005 H 0.54725 0.10523 0.58974 0.0
H1006 H 0.54599 0.13238 0.61866 0.0
H1007 H 0.48726 0.14063 0.60868 0.0
H1008 H 0.46879 0.20095 0.70094 0.0
H1009 H 0.47134 0.17506 0.672 0.0
H1010 H 0.52593 0.15661 0.69486 0.0
C1011 C 0.52979 0.11852 0.61115 0.0
C1012 C 0.4958 0.14406 0.62746 0.0
C1013 C 0.53052 0.10303 0.59449 0.0
C1014 C 0.4839 0.19938 0.70218 0.0
C1015 C 0.48549 0.1845 0.68533 0.0
C1016 C 0.51778 0.15384 0.67593 0.0
C1017 C 0.50847 0.11643 0.61765 0.0
C1018 C 0.50772 0.1332 0.63505 0.0
C1019 C 0.5045 0.18133 0.68631 0.0
C1020 C 0.50593 0.16493 0.66841 0.0
H1021 H 0.47234 0.06854 0.58367 0.0
H1022 H 0.47114 0.09605 0.61204 0.0
H1023 H 0.52804 0.13025 0.66596 0.0
H1024 H 0.5335 0.21723 0.73641 0.0
H1025 H 0.53714 0.19252 0.7062 0.0
C1026 C 0.44297 0.49647 0.06512 0.0
C1027 C 0.44432 0.47864 0.05465 0.0
C1028 C 0.42328 0.49166 0.0797 0.0
C1029 C 0.37356 0.44597 0.11868 0.0
H1030 H 0.34774 0.4841 0.10686 0.0
C1031 C 0.28761 0.42643 0.16892 0.0
C1032 C 0.28722 0.44526 0.17809 0.0
C1033 C 0.30636 0.42977 0.15346 0.0
C1034 C 0.35488 0.47344 0.1106 0.0
H1035 H 0.42649 0.44201 0.05058 0.0
H1036 H 0.3918 0.43341 0.0763 0.0
H1037 H 0.38124 0.49124 0.08051 0.0
H1038 H 0.30631 0.48242 0.17797 0.0
H1039 H 0.33914 0.48819 0.1517 0.0
H1040 H 0.34733 0.42831 0.149 0.0
C1041 C 0.40604 0.45107 0.0735 0.0
C1042 C 0.37405 0.47752 0.09548 0.0
C1043 C 0.42575 0.45592 0.05879 0.0
C1044 C 0.30609 0.46749 0.17156 0.0
C1045 C 0.32481 0.47083 0.15616 0.0
C1046 C 0.3544 0.44192 0.13389 0.0
C1047 C 0.40459 0.46891 0.08403 0.0
C1048 C 0.3837 0.46395 0.09949 0.0
C1049 C 0.32512 0.45202 0.14682 0.0
C1050 C 0.34497 0.45574 0.13015 0.0
H1051 H 0.45722 0.51411 0.06204 0.0
H1052 H 0.4228 0.50573 0.08783 0.0
H1053 H 0.38079 0.43538 0.12239 0.0
H1054 H 0.27349 0.40908 0.17379 0.0
H1055 H 0.306 0.41493 0.14641 0.0
C1056 C 0.94646 0.42552 0.57071 0.0
C1057 C 0.95676 0.44871 0.57641 0.0
C1058 C 0.92933 0.40815 0.58765 0.0
C1059 C 0.88793 0.39787 0.64345 0.0
H1060 H 0.88545 0.34052 0.65256 0.0
C1061 C 0.83118 0.32857 0.72552 0.0
C1062 C 0.82015 0.30534 0.71936 0.0
C1063 C 0.84676 0.34606 0.70752 0.0
C1064 C 0.88566 0.3563 0.65006 0.0
H1065 H 0.95737 0.47189 0.60444 0.0
H1066 H 0.92799 0.44174 0.63441 0.0
H1067 H 0.91474 0.37066 0.62296 0.0
H1068 H 0.81667 0.28256 0.68883 0.0
H1069 H 0.84363 0.31291 0.65759 0.0
H1070 H 0.85902 0.38351 0.67099 0.0
C1071 C 0.93263 0.4368 0.61658 0.0
C1072 C 0.90253 0.37369 0.63295 0.0
C1073 C 0.94965 0.45415 0.59952 0.0
C1074 C 0.82475 0.30019 0.69439 0.0
C1075 C 0.84044 0.31765 0.67648 0.0
C1076 C 0.87114 0.38051 0.6607 0.0
C1077 C 0.92214 0.41346 0.61095 0.0
C1078 C 0.90398 0.3948 0.62929 0.0
C1079 C 0.85194 0.34086 0.68288 0.0
C1080 C 0.86971 0.35942 0.66426 0.0
H1081 H 0.95163 0.42084 0.55304 0.0
H1082 H 0.92156 0.39054 0.58224 0.0
H1083 H 0.88806 0.41362 0.64096 0.0
H1084 H 0.8282 0.33328 0.74454 0.0
H1085 H 0.85535 0.36367 0.7133 0.0
C1086 C 0.53672 0.95394 0.10177 0.0
C1087 C 0.54493 0.95525 0.07592 0.0
C1088 C 0.53096 0.93518 0.11862 0.0
C1089 C 0.50666 0.87481 0.11541 0.0
H1090 H 0.52441 0.87677 0.18813 0.0
C1091 C 0.47848 0.79286 0.17881 0.0
C1092 C 0.47552 0.79323 0.20603 0.0
C1093 C 0.48652 0.81268 0.16296 0.0
C1094 C 0.51891 0.87592 0.16801 0.0
H1095 H 0.55548 0.93869 0.04851 0.0
H1096 H 0.54452 0.9055 0.07776 0.0
H1097 H 0.54189 0.91218 0.16108 0.0
H1098 H 0.47725 0.81398 0.23791 0.0
H1099 H 0.49013 0.84843 0.21013 0.0
H1100 H 0.48298 0.83885 0.12234 0.0
C1101 C 0.54251 0.91906 0.08474 0.0
C1102 C 0.52915 0.89619 0.1525 0.0
C1103 C 0.54868 0.93803 0.06801 0.0
C1104 C 0.47946 0.81338 0.21693 0.0
C1105 C 0.48713 0.83313 0.20105 0.0
C1106 C 0.4961 0.85461 0.13101 0.0
C1107 C 0.53298 0.91721 0.10988 0.0
C1108 C 0.52318 0.89576 0.12606 0.0
C1109 C 0.49146 0.83323 0.17396 0.0
C1110 C 0.50212 0.85486 0.15752 0.0
H1111 H 0.53322 0.96658 0.10853 0.0
H1112 H 0.52353 0.93404 0.13791 0.0
H1113 H 0.50147 0.87416 0.09517 0.0
H1114 H 0.47599 0.77764 0.17002 0.0
H1115 H 0.48992 0.81211 0.1423 0.0
C1116 C 0.60467 0.50377 0.57938 0.0
C1117 C 0.59221 0.51406 0.58644 0.0
C1118 C 0.62153 0.50423 0.59593 0.0
C1119 C 0.65787 0.53375 0.65458 0.0
H1120 H 0.66939 0.48427 0.65437 0.0
C1121 C 0.72026 0.52743 0.7284 0.0
C1122 C 0.73706 0.52383 0.71717 0.0
C1123 C 0.70147 0.52479 0.71362 0.0
C1124 C 0.66644 0.49827 0.65461 0.0
H1125 H 0.58834 0.53308 0.61708 0.0
H1126 H 0.61653 0.53279 0.64627 0.0
H1127 H 0.63904 0.4826 0.62685 0.0
H1128 H 0.74658 0.51371 0.6818 0.0
H1129 H 0.71352 0.50849 0.65637 0.0
H1130 H 0.68503 0.54907 0.68287 0.0
C1131 C 0.61377 0.52482 0.62755 0.0
C1132 C 0.64907 0.49743 0.63863 0.0
C1133 C 0.59713 0.52463 0.61084 0.0
C1134 C 0.73397 0.51656 0.69115 0.0
C1135 C 0.71497 0.51354 0.67654 0.0
C1136 C 0.67497 0.53439 0.67085 0.0
C1137 C 0.62639 0.51472 0.62038 0.0
C1138 C 0.64458 0.51526 0.63811 0.0
C1139 C 0.69873 0.51809 0.68736 0.0
C1140 C 0.67964 0.51676 0.67095 0.0
H1141 H 0.60132 0.49508 0.56109 0.0
H1142 H 0.63095 0.49653 0.58924 0.0
H1143 H 0.65549 0.54811 0.65457 0.0
H1144 H 0.72214 0.53322 0.74829 0.0
H1145 H 0.68918 0.52824 0.72267 0.0
C1146 C 0.06579 0.6241 0.06237 0.0
C1147 C 0.05694 0.60172 0.07267 0.0
C1148 C 0.07818 0.64288 0.07827 0.0
C1149 C 0.09132 0.659 0.14802 0.0
H1150 H 0.14826 0.71124 0.11792 0.0
C1151 C 0.16632 0.72524 0.21071 0.0
C1152 C 0.17759 0.74846 0.20253 0.0
C1153 C 0.14958 0.70826 0.19501 0.0
C1154 C 0.13224 0.69694 0.12651 0.0
H1155 H 0.05397 0.5815 0.10776 0.0
H1156 H 0.0757 0.61416 0.13538 0.0
H1157 H 0.12233 0.67988 0.09015 0.0
H1158 H 0.18002 0.7721 0.17161 0.0
H1159 H 0.15069 0.74237 0.14411 0.0
H1160 H 0.1017 0.67584 0.18459 0.0
C1161 C 0.0727 0.61725 0.11519 0.0
C1162 C 0.11734 0.67897 0.11059 0.0
C1163 C 0.06024 0.5985 0.09935 0.0
C1164 C 0.17151 0.75437 0.17849 0.0
C1165 C 0.15489 0.73735 0.16267 0.0
C1166 C 0.1063 0.67692 0.16396 0.0
C1167 C 0.08207 0.6397 0.10478 0.0
C1168 C 0.09685 0.65963 0.12123 0.0
C1169 C 0.14384 0.71412 0.17071 0.0
C1170 C 0.12707 0.69593 0.15344 0.0
H1171 H 0.06328 0.62708 0.04195 0.0
H1172 H 0.08484 0.65992 0.06974 0.0
H1173 H 0.07548 0.64456 0.15674 0.0
H1174 H 0.17043 0.72019 0.22928 0.0
H1175 H 0.14152 0.69048 0.20163 0.0
loop_
_geom_bond_atom_site_label_1
_geom_bond_atom_site_label_2
_geom_bond_distance
_geom_bond_site_symmetry_2
_ccdc_geom_bond_type
C0 C1 1.444 1_556 S
C0 N4 1.376 1_556 S
C0 C38 1.389 . S
C1 C0 1.444 1_554 S
C1 C2 1.340 . S
C1 H41 0.952 1_554 S
C2 C1 1.340 . S
C2 C3 1.439 . S
C2 H42 0.950 . S
C3 C2 1.439 . S
C3 N4 1.374 . S
C3 C37 1.395 . S
N4 C0 1.376 1_554 S
N4 C3 1.374 . S
N4 Co5 2.008 1_655 S
Co5 N4 2.008 1_455 S
Co5 N6 1.995 . S
Co5 N11 2.012 . S
Co5 N16 1.995 1_554 S
Co5 N21 2.282 . S
Co5 N27 2.282 1_454 S
N6 Co5 1.995 . S
N6 C7 1.376 1_455 S
N6 C10 1.383 . S
C7 N6 1.376 1_655 S
C7 C8 1.446 . S
C7 C37 1.391 . S
C8 C7 1.446 . S
C8 C9 1.339 1_655 S
C8 H43 0.949 . S
C9 C8 1.339 1_455 S
C9 C10 1.439 . S
C9 H44 0.950 . S
C10 N6 1.383 . S
C10 C9 1.439 . S
C10 C39 1.392 . S
N11 Co5 2.012 . S
N11 C12 1.395 . S
N11 C15 1.354 1_554 S
C12 N11 1.395 . S
C12 C13 1.443 . S
C12 C39 1.389 . S
C13 C12 1.443 . S
C13 C14 1.340 1_554 S
C13 H45 0.951 . S
C14 C13 1.340 1_556 S
C14 C15 1.439 . S
C14 H46 0.950 . S
C15 N11 1.354 1_556 S
C15 C14 1.439 . S
C15 C40 1.395 . S
N16 Co5 1.995 1_556 S
N16 C17 1.376 . S
N16 C20 1.383 1_455 S
C17 N16 1.376 . S
C17 C18 1.446 . S
C17 C40 1.391 . S
C18 C17 1.446 . S
C18 C19 1.339 . S
C18 H47 0.949 . S
C19 C18 1.339 . S
C19 C20 1.439 1_455 S
C19 H48 0.951 . S
C20 N16 1.383 1_655 S
C20 C19 1.439 1_655 S
C20 C38 1.392 . S
N21 Co5 2.282 . S
N21 C24 1.332 . S
N21 C26 1.332 . S
C22 C23 1.386 . S
C22 C25 1.388 . S
C23 C22 1.386 . S
C23 C24 1.382 . S
C23 H49 0.950 . S
C24 N21 1.332 . S
C24 C23 1.382 . S
C24 H35 0.952 . S
C25 C22 1.388 . S
C25 C26 1.382 . S
C25 H50 0.950 . S
C26 N21 1.332 . S
C26 C25 1.382 . S
C26 H36 0.948 . S
N27 Co5 2.282 1_656 S
N27 C31 1.332 . S
N27 C32 1.332 . S
C28 C29 1.388 . S
C28 C32 1.382 . S
C28 H51 0.950 . S
C29 C28 1.388 . S
C29 C30 1.386 . S
C30 C29 1.386 . S
C30 C31 1.382 . S
C30 H52 0.950 . S
C31 N27 1.332 . S
C31 C30 1.382 . S
C31 H33 0.952 1_556 S
C32 N27 1.332 . S
C32 C28 1.382 . S
C32 H34 0.948 1_655 S
H33 C31 0.952 1_554 S
H34 C32 0.948 1_455 S
H35 C24 0.952 . S
H36 C26 0.948 . S
C37 C3 1.395 . S
C37 C7 1.391 . S
C38 C0 1.389 . S
C38 C20 1.392 . S
C39 C10 1.392 . S
C39 C12 1.389 . S
C40 C15 1.395 . S
C40 C17 1.391 . S
H41 C1 0.952 1_556 S
H42 C2 0.950 . S
H43 C8 0.949 . S
H44 C9 0.950 . S
H45 C13 0.951 . S
H46 C14 0.950 . S
H47 C18 0.949 . S
H48 C19 0.951 . S
H49 C23 0.950 . S
H50 C25 0.950 . S
H51 C28 0.950 . S
H52 C30 0.950 . S
C53 C54 1.443 . S
C53 N57 1.376 . S
C53 C91 1.389 . S
C54 C53 1.443 . S
C54 C55 1.340 1_545 S
C54 H94 0.951 . S
C55 C54 1.340 1_565 S
C55 C56 1.439 . S
C55 H95 0.950 . S
C56 C55 1.439 . S
C56 N57 1.374 1_565 S
C56 C90 1.395 . S
N57 C53 1.376 . S
N57 C56 1.374 1_545 S
N57 Co58 2.008 . S
Co58 N57 2.008 . S
Co58 N59 1.995 1_545 S
Co58 N64 2.008 . S
Co58 N69 1.995 . S
Co58 N74 2.282 1_545 S
Co58 N80 2.282 . S
N59 Co58 1.995 1_565 S
N59 C60 1.376 . S
N59 C63 1.383 . S
C60 N59 1.376 . S
C60 C61 1.446 . S
C60 C90 1.391 . S
C61 C60 1.446 . S
C61 C62 1.339 . S
C61 H96 0.949 . S
C62 C61 1.339 . S
C62 C63 1.439 . S
C62 H97 0.950 . S
C63 N59 1.383 . S
C63 C62 1.439 . S
C63 C92 1.392 . S
N64 Co58 2.008 . S
N64 C65 1.376 1_545 S
N64 C68 1.374 . S
C65 N64 1.376 1_565 S
C65 C66 1.443 1_565 S
C65 C92 1.389 . S
C66 C65 1.443 1_545 S
C66 C67 1.340 . S
C66 H98 0.951 1_545 S
C67 C66 1.340 . S
C67 C68 1.439 . S
C67 H99 0.950 . S
C68 N64 1.374 . S
C68 C67 1.439 . S
C68 C93 1.395 . S
N69 Co58 1.995 . S
N69 C70 1.376 . S
N69 C73 1.383 . S
C70 N69 1.376 . S
C70 C71 1.446 . S
C70 C93 1.391 . S
C71 C70 1.446 . S
C71 C72 1.339 . S
C71 H100 0.949 . S
C72 C71 1.339 . S
C72 C73 1.439 . S
C72 H101 0.950 . S
C73 N69 1.383 . S
C73 C72 1.439 . S
C73 C91 1.392 . S
N74 Co58 2.282 1_565 S
N74 C77 1.332 . S
N74 C79 1.332 . S
C75 C76 1.386 . S
C75 C78 1.388 . S
C76 C75 1.386 . S
C76 C77 1.382 . S
C76 H102 0.950 . S
C77 N74 1.332 . S
C77 C76 1.382 . S
C77 H88 0.952 1_565 S
C78 C75 1.388 . S
C78 C79 1.382 . S
C78 H103 0.950 . S
C79 N74 1.332 . S
C79 C78 1.382 . S
C79 H89 0.948 . S
N80 Co58 2.282 . S
N80 C84 1.332 . S
N80 C85 1.332 . S
C81 C82 1.388 . S
C81 C85 1.382 . S
C81 H104 0.950 . S
C82 C81 1.388 . S
C82 C83 1.386 . S
C83 C82 1.386 . S
C83 C84 1.382 . S
C83 H105 0.950 . S
C84 N80 1.332 . S
C84 C83 1.382 . S
C84 H86 0.952 . S
C85 N80 1.332 . S
C85 C81 1.382 . S
C85 H87 0.948 . S
H86 C84 0.952 . S
H87 C85 0.948 . S
H88 C77 0.952 1_545 S
H89 C79 0.948 . S
C90 C56 1.395 . S
C90 C60 1.391 . S
C91 C53 1.389 . S
C91 C73 1.392 . S
C92 C63 1.392 . S
C92 C65 1.389 . S
C93 C68 1.395 . S
C93 C70 1.391 . S
H94 C54 0.951 . S
H95 C55 0.950 . S
H96 C61 0.949 . S
H97 C62 0.950 . S
H98 C66 0.951 1_565 S
H99 C67 0.950 . S
H100 C71 0.949 . S
H101 C72 0.950 . S
H102 C76 0.950 . S
H103 C78 0.950 . S
H104 C81 0.950 . S
H105 C83 0.950 . S
C106 C107 1.443 . S
C106 N110 1.376 . S
C106 C144 1.389 . S
C107 C106 1.443 . S
C107 C108 1.340 . S
C107 H147 0.951 . S
C108 C107 1.340 . S
C108 C109 1.439 . S
C108 H148 0.950 . S
C109 C108 1.439 . S
C109 N110 1.374 . S
C109 C143 1.395 . S
N110 C106 1.376 . S
N110 C109 1.374 . S
N110 Co111 2.008 1_556 S
Co111 N110 2.008 1_554 S
Co111 N112 1.995 1_554 S
Co111 N117 2.008 . S
Co111 N122 1.995 . S
Co111 N127 2.282 . S
Co111 N133 2.282 1_554 S
N112 Co111 1.995 1_556 S
N112 C113 1.376 . S
N112 C116 1.383 1_556 S
C113 N112 1.376 . S
C113 C114 1.446 . S
C113 C143 1.391 . S
C114 C113 1.446 . S
C114 C115 1.339 1_556 S
C114 H149 0.949 . S
C115 C114 1.339 1_554 S
C115 C116 1.439 . S
C115 H150 0.950 . S
C116 N112 1.383 1_554 S
C116 C115 1.439 . S
C116 C145 1.392 . S
N117 Co111 2.008 . S
N117 C118 1.376 . S
N117 C121 1.374 . S
C118 N117 1.376 . S
C118 C119 1.443 . S
C118 C145 1.389 . S
C119 C118 1.443 . S
C119 C120 1.340 . S
C119 H151 0.951 . S
C120 C119 1.340 . S
C120 C121 1.439 . S
C120 H152 0.950 . S
C121 N117 1.374 . S
C121 C120 1.439 . S
C121 C146 1.395 . S
N122 Co111 1.995 . S
N122 C123 1.376 . S
N122 C126 1.383 1_554 S
C123 N122 1.376 . S
C123 C124 1.446 . S
C123 C146 1.391 . S
C124 C123 1.446 . S
C124 C125 1.339 . S
C124 H153 0.949 . S
C125 C124 1.339 . S
C125 C126 1.439 1_554 S
C125 H154 0.950 1_554 S
C126 N122 1.383 1_556 S
C126 C125 1.439 1_556 S
C126 C144 1.392 . S
N127 Co111 2.282 . S
N127 C130 1.332 . S
N127 C132 1.332 . S
C128 C129 1.386 . S
C128 C131 1.388 . S
C129 C128 1.386 . S
C129 C130 1.382 . S
C129 H155 0.950 . S
C130 N127 1.332 . S
C130 C129 1.382 . S
C130 H141 0.952 . S
C131 C128 1.388 . S
C131 C132 1.382 . S
C131 H156 0.950 . S
C132 N127 1.332 . S
C132 C131 1.382 . S
C132 H142 0.948 . S
N133 Co111 2.282 1_556 S
N133 C137 1.332 . S
N133 C138 1.332 . S
C134 C135 1.388 . S
C134 C138 1.382 . S
C134 H157 0.950 . S
C135 C134 1.388 . S
C135 C136 1.386 . S
C136 C135 1.386 . S
C136 C137 1.382 . S
C136 H158 0.950 . S
C137 N133 1.332 . S
C137 C136 1.382 . S
C137 H139 0.952 . S
C138 N133 1.332 . S
C138 C134 1.382 . S
C138 H140 0.948 1_556 S
H139 C137 0.952 . S
H140 C138 0.948 1_554 S
H141 C130 0.952 . S
H142 C132 0.948 . S
C143 C109 1.395 . S
C143 C113 1.391 . S
C144 C106 1.389 . S
C144 C126 1.392 . S
C145 C116 1.392 . S
C145 C118 1.389 . S
C146 C121 1.395 . S
C146 C123 1.391 . S
H147 C107 0.951 . S
H148 C108 0.950 . S
H149 C114 0.949 . S
H150 C115 0.950 . S
H151 C119 0.951 . S
H152 C120 0.950 . S
H153 C124 0.949 . S
H154 C125 0.950 1_556 S
H155 C129 0.950 . S
H156 C131 0.950 . S
H157 C134 0.950 . S
H158 C136 0.950 . S
C159 C160 1.443 . S
C159 N163 1.376 . S
C159 C197 1.389 . S
C160 C159 1.443 . S
C160 C161 1.340 . S
C160 H200 0.951 . S
C161 C160 1.340 . S
C161 C162 1.439 . S
C161 H201 0.950 . S
C162 C161 1.439 . S
C162 N163 1.374 . S
C162 C196 1.395 . S
N163 C159 1.376 . S
N163 C162 1.374 . S
N163 Co164 2.008 1_655 S
Co164 N163 2.008 1_455 S
Co164 N165 1.995 1_455 S
Co164 N170 2.008 . S
Co164 N175 1.995 . S
Co164 N180 2.282 . S
Co164 N186 2.282 1_455 S
N165 Co164 1.995 1_655 S
N165 C166 1.376 . S
N165 C169 1.383 1_655 S
C166 N165 1.376 . S
C166 C167 1.446 . S
C166 C196 1.391 . S
C167 C166 1.446 . S
C167 C168 1.339 1_655 S
C167 H202 0.949 . S
C168 C167 1.339 1_455 S
C168 C169 1.439 . S
C168 H203 0.950 . S
C169 N165 1.383 1_455 S
C169 C168 1.439 . S
C169 C198 1.392 . S
N170 Co164 2.008 . S
N170 C171 1.376 . S
N170 C174 1.374 . S
C171 N170 1.376 . S
C171 C172 1.443 . S
C171 C198 1.389 . S
C172 C171 1.443 . S
C172 C173 1.340 . S
C172 H204 0.951 . S
C173 C172 1.340 . S
C173 C174 1.439 . S
C173 H205 0.950 . S
C174 N170 1.374 . S
C174 C173 1.439 . S
C174 C199 1.395 . S
N175 Co164 1.995 . S
N175 C176 1.376 . S
N175 C179 1.383 1_455 S
C176 N175 1.376 . S
C176 C177 1.446 . S
C176 C199 1.391 . S
C177 C176 1.446 . S
C177 C178 1.310 1_455 S
C177 H206 0.949 . S
C178 C177 1.310 1_655 S
C178 C179 1.463 . S
C178 H207 0.955 . S
C179 N175 1.383 1_655 S
C179 C178 1.463 . S
C179 C197 1.392 . S
N180 Co164 2.282 . S
N180 C183 1.332 . S
N180 C185 1.332 . S
C181 C182 1.386 . S
C181 C184 1.388 . S
C182 C181 1.386 . S
C182 C183 1.382 . S
C182 H208 0.950 . S
C183 N180 1.332 . S
C183 C182 1.382 . S
C183 H194 0.952 . S
C184 C181 1.388 . S
C184 C185 1.382 . S
C184 H209 0.950 . S
C185 N180 1.332 . S
C185 C184 1.382 . S
C185 H195 0.948 . S
N186 Co164 2.282 1_655 S
N186 C190 1.332 . S
N186 C191 1.332 . S
C187 C188 1.388 . S
C187 C191 1.382 . S
C187 H210 0.950 . S
C188 C187 1.388 . S
C188 C189 1.386 . S
C189 C188 1.386 . S
C189 C190 1.382 . S
C189 H211 0.950 . S
C190 N186 1.332 . S
C190 C189 1.382 . S
C190 H192 0.952 . S
C191 N186 1.332 . S
C191 C187 1.382 . S
C191 H193 0.948 1_655 S
H192 C190 0.952 . S
H193 C191 0.948 1_455 S
H194 C183 0.952 . S
H195 C185 0.948 . S
C196 C162 1.395 . S
C196 C166 1.391 . S
C197 C159 1.389 . S
C197 C179 1.392 . S
C198 C169 1.392 . S
C198 C171 1.389 . S
C199 C174 1.395 . S
C199 C176 1.391 . S
H200 C160 0.951 . S
H201 C161 0.950 . S
H202 C167 0.949 . S
H203 C168 0.950 . S
H204 C172 0.951 . S
H205 C173 0.950 . S
H206 C177 0.949 . S
H207 C178 0.955 . S
H208 C182 0.950 . S
H209 C184 0.950 . S
H210 C187 0.950 . S
H211 C189 0.950 . S
C212 C213 1.443 . S
C212 N216 1.376 1_565 S
C212 C250 1.389 . S
C213 C212 1.443 . S
C213 C214 1.340 1_565 S
C213 H253 0.951 . S
C214 C213 1.340 1_545 S
C214 C215 1.439 . S
C214 H254 0.950 . S
C215 C214 1.439 . S
C215 N216 1.374 . S
C215 C249 1.395 . S
N216 C212 1.376 1_545 S
N216 C215 1.374 . S
N216 Co217 2.008 . S
Co217 N216 2.008 . S
Co217 N218 1.995 . S
Co217 N223 2.008 1_544 S
Co217 N228 1.995 1_545 S
Co217 N233 2.282 1_554 S
Co217 N239 2.282 1_545 S
N218 Co217 1.995 . S
N218 C219 1.376 . S
N218 C222 1.383 1_554 S
C219 N218 1.376 . S
C219 C220 1.446 . S
C219 C249 1.391 . S
C220 C219 1.446 . S
C220 C221 1.339 1_554 S
C220 H255 0.949 . S
C221 C220 1.339 1_556 S
C221 C222 1.439 . S
C221 H256 0.950 . S
C222 N218 1.383 1_556 S
C222 C221 1.439 . S
C222 C251 1.392 . S
N223 Co217 2.008 1_566 S
N223 C224 1.376 1_565 S
N223 C227 1.374 . S
C224 N223 1.376 1_545 S
C224 C225 1.443 . S
C224 C251 1.389 . S
C225 C224 1.443 . S
C225 C226 1.340 1_545 S
C225 H257 0.951 . S
C226 C225 1.340 1_565 S
C226 C227 1.439 . S
C226 H258 0.950 . S
C227 N223 1.374 . S
C227 C226 1.439 . S
C227 C252 1.395 . S
N228 Co217 1.995 1_565 S
N228 C229 1.376 1_554 S
N228 C232 1.383 . S
C229 N228 1.376 1_556 S
C229 C230 1.446 . S
C229 C252 1.391 . S
C230 C229 1.446 . S
C230 C231 1.339 1_556 S
C230 H259 0.949 . S
C231 C230 1.339 1_554 S
C231 C232 1.439 . S
C231 H260 0.950 . S
C232 N228 1.383 . S
C232 C231 1.439 . S
C232 C250 1.392 . S
N233 Co217 2.282 1_556 S
N233 C236 1.332 . S
N233 C238 1.332 . S
C234 C235 1.386 . S
C234 C237 1.388 . S
C235 C234 1.386 . S
C235 C236 1.382 . S
C235 H261 0.950 . S
C236 N233 1.332 . S
C236 C235 1.382 . S
C236 H247 0.952 1_545 S
C237 C234 1.388 . S
C237 C238 1.382 . S
C237 H262 0.950 . S
C238 N233 1.332 . S
C238 C237 1.382 . S
C238 H248 0.968 . S
N239 Co217 2.282 1_565 S
N239 C243 1.332 . S
N239 C244 1.332 . S
C240 C241 1.388 . S
C240 C244 1.382 . S
C240 H263 0.950 . S
C241 C240 1.388 . S
C241 C242 1.386 . S
C242 C241 1.386 . S
C242 C243 1.382 . S
C242 H264 0.950 . S
C243 N239 1.332 . S
C243 C242 1.382 . S
C243 H245 0.952 1_565 S
C244 N239 1.332 . S
C244 C240 1.382 . S
C244 H246 0.948 . S
H245 C243 0.952 1_545 S
H246 C244 0.948 . S
H247 C236 0.952 1_565 S
H248 C238 0.968 . S
C249 C215 1.395 . S
C249 C219 1.391 . S
C250 C212 1.389 . S
C250 C232 1.392 . S
C251 C222 1.392 . S
C251 C224 1.389 . S
C252 C227 1.395 . S
C252 C229 1.391 . S
H253 C213 0.951 . S
H254 C214 0.950 . S
H255 C220 0.949 . S
H256 C221 0.950 . S
H257 C225 0.951 . S
H258 C226 0.950 . S
H259 C230 0.949 . S
H260 C231 0.950 . S
H261 C235 0.950 . S
H262 C237 0.950 . S
H263 C240 0.950 . S
H264 C242 0.950 . S
C265 C266 1.443 . S
C265 N269 1.376 . S
C265 C303 1.389 . S
C266 C265 1.443 . S
C266 C267 1.340 . S
C266 H306 0.951 . S
C267 C266 1.340 . S
C267 C268 1.439 . S
C267 H307 0.950 . S
C268 C267 1.439 . S
C268 N269 1.374 . S
C268 C302 1.395 . S
N269 C265 1.376 . S
N269 C268 1.374 . S
N269 Co270 2.008 . S
Co270 N269 2.008 . S
Co270 N271 1.995 . S
Co270 N276 2.008 . S
Co270 N281 1.995 . S
Co270 N286 2.282 . S
Co270 N292 2.282 . S
N271 Co270 1.995 . S
N271 C272 1.376 . S
N271 C275 1.383 . S
C272 N271 1.376 . S
C272 C273 1.446 . S
C272 C302 1.391 . S
C273 C272 1.446 . S
C273 C274 1.339 . S
C273 H308 0.949 . S
C274 C273 1.339 . S
C274 C275 1.439 . S
C274 H309 0.950 . S
C275 N271 1.383 . S
C275 C274 1.439 . S
C275 C304 1.392 . S
N276 Co270 2.008 . S
N276 C277 1.376 . S
N276 C280 1.374 . S
C277 N276 1.376 . S
C277 C278 1.443 . S
C277 C304 1.389 . S
C278 C277 1.443 . S
C278 C279 1.340 . S
C278 H310 0.951 . S
C279 C278 1.340 . S
C279 C280 1.439 . S
C279 H311 0.950 . S
C280 N276 1.374 . S
C280 C279 1.439 . S
C280 C305 1.395 . S
N281 Co270 1.995 . S
N281 C282 1.376 . S
N281 C285 1.383 . S
C282 N281 1.376 . S
C282 C283 1.446 . S
C282 C305 1.391 . S
C283 C282 1.446 . S
C283 C284 1.339 . S
C283 H312 0.949 . S
C284 C283 1.339 . S
C284 C285 1.439 . S
C284 H313 0.950 . S
C285 N281 1.383 . S
C285 C284 1.439 . S
C285 C303 1.392 . S
N286 Co270 2.282 . S
N286 C289 1.332 . S
N286 C291 1.332 . S
C287 C288 1.386 . S
C287 C290 1.388 . S
C288 C287 1.386 . S
C288 C289 1.382 . S
C288 H314 0.950 . S
C289 N286 1.332 . S
C289 C288 1.382 . S
C289 H300 0.952 . S
C290 C287 1.388 . S
C290 C291 1.382 . S
C290 H315 0.950 . S
C291 N286 1.332 . S
C291 C290 1.382 . S
C291 H301 0.948 . S
N292 Co270 2.282 . S
N292 C296 1.332 . S
N292 C297 1.332 . S
C293 C294 1.388 . S
C293 C297 1.382 . S
C293 H316 0.950 . S
C294 C293 1.388 . S
C294 C295 1.386 . S
C295 C294 1.386 . S
C295 C296 1.382 . S
C295 H317 0.950 . S
C296 N292 1.332 . S
C296 C295 1.382 . S
C296 H298 0.952 . S
C297 N292 1.332 . S
C297 C293 1.382 . S
C297 H299 0.948 . S
H298 C296 0.952 . S
H299 C297 0.948 . S
H300 C289 0.952 . S
H301 C291 0.948 . S
C302 C268 1.395 . S
C302 C272 1.391 . S
C303 C265 1.389 . S
C303 C285 1.392 . S
C304 C275 1.392 . S
C304 C277 1.389 . S
C305 C280 1.395 . S
C305 C282 1.391 . S
H306 C266 0.951 . S
H307 C267 0.950 . S
H308 C273 0.949 . S
H309 C274 0.950 . S
H310 C278 0.951 . S
H311 C279 0.950 . S
H312 C283 0.949 . S
H313 C284 0.950 . S
H314 C288 0.950 . S
H315 C290 0.950 . S
H316 C293 0.950 . S
H317 C295 0.950 . S
Cu318 N319 1.999 . S
Cu318 O324 1.974 . S
Cu318 N329 1.985 . S
Cu318 O338 1.959 . S
N319 Cu318 1.999 . S
N319 C321 1.263 . S
N319 C323 1.389 . S
N320 C321 1.358 . S
N320 C322 1.400 . S
C321 N319 1.263 . S
C321 N320 1.358 . S
C321 H327 0.930 . S
C322 N320 1.400 . S
C322 C323 1.351 . S
C322 H339 0.930 . S
C323 N319 1.389 . S
C323 C322 1.351 . S
C323 H328 0.930 . S
O324 Cu318 1.974 . S
O324 C334 1.282 . S
C325 O326 1.261 . S
C325 O338 1.251 . S
O326 C325 1.261 . S
H327 C321 0.930 . S
H328 C323 0.930 . S
N329 Cu318 1.985 . S
N329 C331 1.335 . S
N329 C332 1.390 . S
N330 C331 1.345 . S
N330 C333 1.336 . S
C331 N329 1.335 . S
C331 N330 1.345 . S
C331 H336 0.930 . S
C332 N329 1.390 . S
C332 C333 1.346 . S
C332 H337 0.930 . S
C333 N330 1.336 . S
C333 C332 1.346 . S
C333 H340 0.929 . S
C334 O324 1.282 . S
C334 O335 1.216 . S
O335 C334 1.216 . S
H336 C331 0.930 . S
H337 C332 0.930 . S
O338 Cu318 1.959 . S
O338 C325 1.251 . S
H339 C322 0.930 . S
H340 C333 0.929 . S
Cu341 N342 1.999 . S
Cu341 O347 1.974 . S
Cu341 N352 1.985 . S
Cu341 O361 1.959 . S
N342 Cu341 1.999 . S
N342 C344 1.263 . S
N342 C346 1.389 . S
N343 C344 1.358 . S
N343 C345 1.400 . S
C344 N342 1.263 . S
C344 N343 1.358 . S
C344 H350 0.930 . S
C345 N343 1.400 . S
C345 C346 1.351 . S
C345 H362 0.930 . S
C346 N342 1.389 . S
C346 C345 1.351 . S
C346 H351 0.930 . S
O347 Cu341 1.974 . S
O347 C357 1.282 . S
C348 O349 1.261 . S
C348 O361 1.251 . S
O349 C348 1.261 . S
H350 C344 0.930 . S
H351 C346 0.930 . S
N352 Cu341 1.985 . S
N352 C354 1.335 . S
N352 C355 1.390 . S
N353 C354 1.345 . S
N353 C356 1.336 . S
C354 N352 1.335 . S
C354 N353 1.345 . S
C354 H359 0.930 . S
C355 N352 1.390 . S
C355 C356 1.346 . S
C355 H360 0.930 . S
C356 N353 1.336 . S
C356 C355 1.346 . S
C356 H363 0.929 . S
C357 O347 1.282 . S
C357 O358 1.216 . S
O358 C357 1.216 . S
H359 C354 0.930 . S
H360 C355 0.930 . S
O361 Cu341 1.959 . S
O361 C348 1.251 . S
H362 C345 0.930 . S
H363 C356 0.929 . S
Cu364 N365 1.999 . S
Cu364 O370 1.974 . S
Cu364 N375 1.985 . S
Cu364 O384 1.959 . S
N365 Cu364 1.999 . S
N365 C367 1.263 . S
N365 C369 1.389 . S
N366 C367 1.358 . S
N366 C368 1.400 . S
C367 N365 1.263 . S
C367 N366 1.358 . S
C367 H373 0.930 . S
C368 N366 1.400 . S
C368 C369 1.351 . S
C368 H385 0.930 . S
C369 N365 1.389 . S
C369 C368 1.351 . S
C369 H374 0.930 . S
O370 Cu364 1.974 . S
O370 C380 1.282 . S
C371 O372 1.261 . S
C371 O384 1.251 . S
O372 C371 1.261 . S
H373 C367 0.930 . S
H374 C369 0.930 . S
N375 Cu364 1.985 . S
N375 C377 1.335 . S
N375 C378 1.390 . S
N376 C377 1.345 . S
N376 C379 1.336 . S
C377 N375 1.335 . S
C377 N376 1.345 . S
C377 H382 0.930 . S
C378 N375 1.390 . S
C378 C379 1.346 . S
C378 H383 0.930 . S
C379 N376 1.336 . S
C379 C378 1.346 . S
C379 H386 0.929 . S
C380 O370 1.282 . S
C380 O381 1.216 . S
O381 C380 1.216 . S
H382 C377 0.930 . S
H383 C378 0.930 . S
O384 Cu364 1.959 . S
O384 C371 1.251 . S
H385 C368 0.930 . S
H386 C379 0.929 . S
Cu387 N388 1.999 . S
Cu387 O393 1.974 . S
Cu387 N398 1.985 . S
Cu387 O407 1.959 . S
N388 Cu387 1.999 . S
N388 C390 1.263 . S
N388 C392 1.389 . S
N389 C390 1.358 . S
N389 C391 1.400 . S
C390 N388 1.263 . S
C390 N389 1.358 . S
C390 H396 0.930 . S
C391 N389 1.400 . S
C391 C392 1.351 . S
C391 H408 0.930 . S
C392 N388 1.389 . S
C392 C391 1.351 . S
C392 H397 0.930 . S
O393 Cu387 1.974 . S
O393 C403 1.282 . S
C394 O395 1.261 . S
C394 O407 1.251 . S
O395 C394 1.261 . S
H396 C390 0.930 . S
H397 C392 0.930 . S
N398 Cu387 1.985 . S
N398 C400 1.335 . S
N398 C401 1.390 . S
N399 C400 1.345 . S
N399 C402 1.336 . S
C400 N398 1.335 . S
C400 N399 1.345 . S
C400 H405 0.930 . S
C401 N398 1.390 . S
C401 C402 1.346 . S
C401 H406 0.930 . S
C402 N399 1.336 . S
C402 C401 1.346 . S
C402 H409 0.929 . S
C403 O393 1.282 . S
C403 O404 1.216 . S
O404 C403 1.216 . S
H405 C400 0.930 . S
H406 C401 0.930 . S
O407 Cu387 1.959 . S
O407 C394 1.251 . S
H408 C391 0.930 . S
H409 C402 0.929 . S
Cu410 N411 1.999 . S
Cu410 O416 1.974 . S
Cu410 N421 1.985 . S
Cu410 O430 1.959 . S
N411 Cu410 1.999 . S
N411 C413 1.263 . S
N411 C415 1.389 . S
N412 C413 1.358 . S
N412 C414 1.400 . S
C413 N411 1.263 . S
C413 N412 1.358 . S
C413 H419 0.930 . S
C414 N412 1.400 . S
C414 C415 1.351 . S
C414 H431 0.930 . S
C415 N411 1.389 . S
C415 C414 1.351 . S
C415 H420 0.930 . S
O416 Cu410 1.974 . S
O416 C426 1.282 . S
C417 O418 1.261 . S
C417 O430 1.251 . S
O418 C417 1.261 . S
H419 C413 0.930 . S
H420 C415 0.930 . S
N421 Cu410 1.985 . S
N421 C423 1.335 . S
N421 C424 1.390 . S
N422 C423 1.345 . S
N422 C425 1.336 . S
C423 N421 1.335 . S
C423 N422 1.345 . S
C423 H428 0.930 . S
C424 N421 1.390 . S
C424 C425 1.346 . S
C424 H429 0.930 . S
C425 N422 1.336 . S
C425 C424 1.346 . S
C425 H432 0.929 . S
C426 O416 1.282 . S
C426 O427 1.216 . S
O427 C426 1.216 . S
H428 C423 0.930 . S
H429 C424 0.930 . S
O430 Cu410 1.959 . S
O430 C417 1.251 . S
H431 C414 0.930 . S
H432 C425 0.929 . S
Cu433 N434 1.999 . S
Cu433 O439 1.974 . S
Cu433 N444 1.985 . S
Cu433 O453 1.959 . S
N434 Cu433 1.999 . S
N434 C436 1.263 . S
N434 C438 1.389 . S
N435 C436 1.358 . S
N435 C437 1.400 . S
C436 N434 1.263 . S
C436 N435 1.358 . S
C436 H442 0.930 . S
C437 N435 1.400 . S
C437 C438 1.351 . S
C437 H454 0.930 . S
C438 N434 1.389 . S
C438 C437 1.351 . S
C438 H443 0.930 . S
O439 Cu433 1.974 . S
O439 C449 1.282 . S
C440 O441 1.261 . S
C440 O453 1.251 . S
O441 C440 1.261 . S
H442 C436 0.930 . S
H443 C438 0.930 . S
N444 Cu433 1.985 . S
N444 C446 1.335 . S
N444 C447 1.390 . S
N445 C446 1.345 . S
N445 C448 1.336 . S
C446 N444 1.335 . S
C446 N445 1.345 . S
C446 H451 0.930 . S
C447 N444 1.390 . S
C447 C448 1.346 . S
C447 H452 0.930 . S
C448 N445 1.336 . S
C448 C447 1.346 . S
C448 H455 0.929 . S
C449 O439 1.282 . S
C449 O450 1.216 . S
O450 C449 1.216 . S
H451 C446 0.930 . S
H452 C447 0.930 . S
O453 Cu433 1.959 . S
O453 C440 1.251 . S
H454 C437 0.930 . S
H455 C448 0.929 . S
C456 C457 1.349 . S
C456 C458 1.327 . S
C456 H481 0.950 . S
C457 C456 1.349 . S
C457 C473 1.349 . S
C458 C456 1.327 . S
C458 C477 1.429 . S
C458 H482 0.950 . S
C459 C476 1.574 . S
C459 C478 1.368 . S
C459 H483 0.949 . S
H460 C464 0.949 . S
C461 C462 1.349 . S
C461 C463 1.327 . S
C461 H484 0.950 . S
C462 C461 1.349 . S
C462 C474 1.349 . S
C463 C461 1.327 . S
C463 C479 1.429 . S
C463 H485 0.950 . S
C464 H460 0.949 . S
C464 C472 1.574 . S
C464 C480 1.368 . S
H465 C473 0.950 . S
H466 C471 0.950 . S
H467 C472 0.949 . S
H468 C474 0.950 . S
H469 C475 0.950 . S
H470 C476 0.949 . S
C471 H466 0.950 . S
C471 C473 1.327 . S
C471 C477 1.429 . S
C472 C464 1.574 . S
C472 H467 0.949 . S
C472 C478 1.368 . S
C473 C457 1.349 . S
C473 H465 0.950 . S
C473 C471 1.327 . S
C474 C462 1.349 . S
C474 H468 0.950 . S
C474 C475 1.327 . S
C475 H469 0.950 . S
C475 C474 1.327 . S
C475 C479 1.429 . S
C476 C459 1.574 . S
C476 H470 0.949 . S
C476 C480 1.368 . S
C477 C458 1.429 . S
C477 C471 1.429 . S
C477 C478 1.523 . S
C478 C459 1.368 . S
C478 C472 1.368 . S
C478 C477 1.523 . S
C479 C463 1.429 . S
C479 C475 1.429 . S
C479 C480 1.523 . S
C480 C464 1.368 . S
C480 C476 1.368 . S
C480 C479 1.523 . S
H481 C456 0.950 . S
H482 C458 0.950 . S
H483 C459 0.949 . S
H484 C461 0.950 . S
H485 C463 0.950 . S
C486 C487 1.349 . S
C486 C488 1.327 . S
C486 H511 0.950 . S
C487 C486 1.349 . S
C487 C503 1.349 . S
C488 C486 1.327 . S
C488 C507 1.429 . S
C488 H512 0.950 . S
C489 C506 1.574 . S
C489 C508 1.368 . S
C489 H513 0.949 . S
H490 C494 0.949 . S
C491 C492 1.349 . S
C491 C493 1.327 . S
C491 H514 0.950 . S
C492 C491 1.349 . S
C492 C504 1.349 . S
C493 C491 1.327 . S
C493 C509 1.429 . S
C493 H515 0.950 . S
C494 H490 0.949 . S
C494 C502 1.574 . S
C494 C510 1.368 . S
H495 C503 0.950 . S
H496 C501 0.950 . S
H497 C502 0.949 . S
H498 C504 0.950 . S
H499 C505 0.950 . S
H500 C506 0.949 . S
C501 H496 0.950 . S
C501 C503 1.327 . S
C501 C507 1.429 . S
C502 C494 1.574 . S
C502 H497 0.949 . S
C502 C508 1.368 . S
C503 C487 1.349 . S
C503 H495 0.950 . S
C503 C501 1.327 . S
C504 C492 1.349 . S
C504 H498 0.950 . S
C504 C505 1.327 . S
C505 H499 0.950 . S
C505 C504 1.327 . S
C505 C509 1.429 . S
C506 C489 1.574 . S
C506 H500 0.949 . S
C506 C510 1.368 . S
C507 C488 1.429 . S
C507 C501 1.429 . S
C507 C508 1.523 . S
C508 C489 1.368 . S
C508 C502 1.368 . S
C508 C507 1.523 . S
C509 C493 1.429 . S
C509 C505 1.429 . S
C509 C510 1.523 . S
C510 C494 1.368 . S
C510 C506 1.368 . S
C510 C509 1.523 . S
H511 C486 0.950 . S
H512 C488 0.950 . S
H513 C489 0.949 . S
H514 C491 0.950 . S
H515 C493 0.950 . S
C516 C517 1.349 . S
C516 C518 1.327 . S
C516 H541 0.950 . S
C517 C516 1.349 . S
C517 C533 1.349 . S
C518 C516 1.327 . S
C518 C537 1.429 . S
C518 H542 0.950 . S
C519 C536 1.574 . S
C519 C538 1.368 . S
C519 H543 0.949 . S
H520 C524 0.949 . S
C521 C522 1.349 . S
C521 C523 1.327 . S
C521 H544 0.950 . S
C522 C521 1.349 . S
C522 C534 1.349 . S
C523 C521 1.327 . S
C523 C539 1.429 . S
C523 H545 0.950 . S
C524 H520 0.949 . S
C524 C532 1.574 . S
C524 C540 1.368 . S
H525 C533 0.950 . S
H526 C531 0.950 . S
H527 C532 0.949 . S
H528 C534 0.950 . S
H529 C535 0.950 . S
H530 C536 0.949 . S
C531 H526 0.950 . S
C531 C533 1.327 . S
C531 C537 1.429 . S
C532 C524 1.574 . S
C532 H527 0.949 . S
C532 C538 1.368 . S
C533 C517 1.349 . S
C533 H525 0.950 . S
C533 C531 1.327 . S
C534 C522 1.349 . S
C534 H528 0.950 . S
C534 C535 1.327 . S
C535 H529 0.950 . S
C535 C534 1.327 . S
C535 C539 1.429 . S
C536 C519 1.574 . S
C536 H530 0.949 . S
C536 C540 1.368 . S
C537 C518 1.429 . S
C537 C531 1.429 . S
C537 C538 1.523 . S
C538 C519 1.368 . S
C538 C532 1.368 . S
C538 C537 1.523 . S
C539 C523 1.429 . S
C539 C535 1.429 . S
C539 C540 1.523 . S
C540 C524 1.368 . S
C540 C536 1.368 . S
C540 C539 1.523 . S
H541 C516 0.950 . S
H542 C518 0.950 . S
H543 C519 0.949 . S
H544 C521 0.950 . S
H545 C523 0.950 . S
C546 C547 1.349 . S
C546 C548 1.327 . S
C546 H571 0.950 . S
C547 C546 1.349 . S
C547 C563 1.349 . S
C548 C546 1.327 . S
C548 C567 1.429 . S
C548 H572 0.950 . S
C549 C566 1.574 . S
C549 C568 1.368 . S
C549 H573 0.949 . S
H550 C554 0.949 . S
C551 C552 1.349 . S
C551 C553 1.327 . S
C551 H574 0.950 . S
C552 C551 1.349 . S
C552 C564 1.349 . S
C553 C551 1.327 . S
C553 C569 1.429 . S
C553 H575 0.950 . S
C554 H550 0.949 . S
C554 C562 1.574 . S
C554 C570 1.368 . S
H555 C563 0.950 . S
H556 C561 0.950 . S
H557 C562 0.949 . S
H558 C564 0.950 . S
H559 C565 0.950 . S
H560 C566 0.949 . S
C561 H556 0.950 . S
C561 C563 1.327 . S
C561 C567 1.429 . S
C562 C554 1.574 . S
C562 H557 0.949 . S
C562 C568 1.368 . S
C563 C547 1.349 . S
C563 H555 0.950 . S
C563 C561 1.327 . S
C564 C552 1.349 . S
C564 H558 0.950 . S
C564 C565 1.327 . S
C565 H559 0.950 . S
C565 C564 1.327 . S
C565 C569 1.429 . S
C566 C549 1.574 . S
C566 H560 0.949 . S
C566 C570 1.368 . S
C567 C548 1.429 . S
C567 C561 1.429 . S
C567 C568 1.523 . S
C568 C549 1.368 . S
C568 C562 1.368 . S
C568 C567 1.523 . S
C569 C553 1.429 . S
C569 C565 1.429 . S
C569 C570 1.523 . S
C570 C554 1.368 . S
C570 C566 1.368 . S
C570 C569 1.523 . S
H571 C546 0.950 . S
H572 C548 0.950 . S
H573 C549 0.949 . S
H574 C551 0.950 . S
H575 C553 0.950 . S
C576 C577 1.349 . S
C576 C578 1.327 . S
C576 H601 0.950 . S
C577 C576 1.349 . S
C577 C593 1.349 . S
C578 C576 1.327 . S
C578 C597 1.429 . S
C578 H602 0.950 . S
C579 C596 1.574 . S
C579 C598 1.368 . S
C579 H603 0.949 . S
H580 C584 0.949 . S
C581 C582 1.349 . S
C581 C583 1.327 . S
C581 H604 0.950 . S
C582 C581 1.349 . S
C582 C594 1.349 . S
C583 C581 1.327 . S
C583 C599 1.429 . S
C583 H605 0.950 . S
C584 H580 0.949 . S
C584 C592 1.574 . S
C584 C600 1.368 . S
H585 C593 0.950 . S
H586 C591 0.950 . S
H587 C592 0.949 . S
H588 C594 0.950 . S
H589 C595 0.950 . S
H590 C596 0.949 . S
C591 H586 0.950 . S
C591 C593 1.327 . S
C591 C597 1.429 . S
C592 C584 1.574 . S
C592 H587 0.949 . S
C592 C598 1.368 . S
C593 C577 1.349 . S
C593 H585 0.950 . S
C593 C591 1.327 . S
C594 C582 1.349 . S
C594 H588 0.950 . S
C594 C595 1.327 . S
C595 H589 0.950 . S
C595 C594 1.327 . S
C595 C599 1.429 . S
C596 C579 1.574 . S
C596 H590 0.949 . S
C596 C600 1.368 . S
C597 C578 1.429 . S
C597 C591 1.429 . S
C597 C598 1.523 . S
C598 C579 1.368 . S
C598 C592 1.368 . S
C598 C597 1.523 . S
C599 C583 1.429 . S
C599 C595 1.429 . S
C599 C600 1.523 . S
C600 C584 1.368 . S
C600 C596 1.368 . S
C600 C599 1.523 . S
H601 C576 0.950 . S
H602 C578 0.950 . S
H603 C579 0.949 . S
H604 C581 0.950 . S
H605 C583 0.950 . S
C606 C607 1.349 . S
C606 C608 1.327 . S
C606 H631 0.950 . S
C607 C606 1.349 . S
C607 C623 1.349 . S
C608 C606 1.327 . S
C608 C627 1.429 . S
C608 H632 0.950 . S
C609 C626 1.574 . S
C609 C628 1.368 . S
C609 H633 0.949 . S
H610 C614 0.949 . S
C611 C612 1.349 . S
C611 C613 1.327 . S
C611 H634 0.950 . S
C612 C611 1.349 . S
C612 C624 1.349 . S
C613 C611 1.327 . S
C613 C629 1.429 . S
C613 H635 0.950 . S
C614 H610 0.949 . S
C614 C622 1.574 . S
C614 C630 1.368 . S
H615 C623 0.950 . S
H616 C621 0.950 . S
H617 C622 0.949 . S
H618 C624 0.950 . S
H619 C625 0.950 . S
H620 C626 0.949 . S
C621 H616 0.950 . S
C621 C623 1.327 . S
C621 C627 1.429 . S
C622 C614 1.574 . S
C622 H617 0.949 . S
C622 C628 1.368 . S
C623 C607 1.349 . S
C623 H615 0.950 . S
C623 C621 1.327 . S
C624 C612 1.349 . S
C624 H618 0.950 . S
C624 C625 1.327 . S
C625 H619 0.950 . S
C625 C624 1.327 . S
C625 C629 1.429 . S
C626 C609 1.574 . S
C626 H620 0.949 . S
C626 C630 1.368 . S
C627 C608 1.429 . S
C627 C621 1.429 . S
C627 C628 1.523 . S
C628 C609 1.368 . S
C628 C622 1.368 . S
C628 C627 1.523 . S
C629 C613 1.429 . S
C629 C625 1.429 . S
C629 C630 1.523 . S
C630 C614 1.368 . S
C630 C626 1.368 . S
C630 C629 1.523 . S
H631 C606 0.950 . S
H632 C608 0.950 . S
H633 C609 0.949 . S
H634 C611 0.950 . S
H635 C613 0.950 . S
C636 C637 1.349 . S
C636 C638 1.327 . S
C636 H661 0.950 . S
C637 C636 1.349 . S
C637 C653 1.349 . S
C638 C636 1.327 . S
C638 C657 1.429 . S
C638 H662 0.950 . S
C639 C656 1.574 . S
C639 C658 1.368 . S
C639 H663 0.949 . S
H640 C644 0.949 . S
C641 C642 1.349 . S
C641 C643 1.327 . S
C641 H664 0.950 . S
C642 C641 1.349 . S
C642 C654 1.349 . S
C643 C641 1.327 . S
C643 C659 1.429 . S
C643 H665 0.950 . S
C644 H640 0.949 . S
C644 C652 1.574 . S
C644 C660 1.368 . S
H645 C653 0.950 . S
H646 C651 0.950 . S
H647 C652 0.949 . S
H648 C654 0.950 . S
H649 C655 0.950 . S
H650 C656 0.949 . S
C651 H646 0.950 . S
C651 C653 1.327 . S
C651 C657 1.429 . S
C652 C644 1.574 . S
C652 H647 0.949 . S
C652 C658 1.368 . S
C653 C637 1.349 . S
C653 H645 0.950 . S
C653 C651 1.327 . S
C654 C642 1.349 . S
C654 H648 0.950 . S
C654 C655 1.327 . S
C655 H649 0.950 . S
C655 C654 1.327 . S
C655 C659 1.429 . S
C656 C639 1.574 . S
C656 H650 0.949 . S
C656 C660 1.368 . S
C657 C638 1.429 . S
C657 C651 1.429 . S
C657 C658 1.523 . S
C658 C639 1.368 . S
C658 C652 1.368 . S
C658 C657 1.523 . S
C659 C643 1.429 . S
C659 C655 1.429 . S
C659 C660 1.523 . S
C660 C644 1.368 . S
C660 C656 1.368 . S
C660 C659 1.523 . S
H661 C636 0.950 . S
H662 C638 0.950 . S
H663 C639 0.949 . S
H664 C641 0.950 . S
H665 C643 0.950 . S
C666 C667 1.349 . S
C666 C668 1.327 . S
C666 H691 0.950 . S
C667 C666 1.349 . S
C667 C683 1.349 . S
C668 C666 1.327 . S
C668 C687 1.429 . S
C668 H692 0.950 . S
C669 C686 1.574 . S
C669 C688 1.368 . S
C669 H693 0.949 . S
H670 C674 0.949 . S
C671 C672 1.349 . S
C671 C673 1.327 . S
C671 H694 0.950 . S
C672 C671 1.349 . S
C672 C684 1.349 . S
C673 C671 1.327 . S
C673 C689 1.429 . S
C673 H695 0.950 . S
C674 H670 0.949 . S
C674 C682 1.574 . S
C674 C690 1.368 . S
H675 C683 0.950 . S
H676 C681 0.950 . S
H677 C682 0.949 . S
H678 C684 0.950 . S
H679 C685 0.950 . S
H680 C686 0.949 . S
C681 H676 0.950 . S
C681 C683 1.327 . S
C681 C687 1.429 . S
C682 C674 1.574 . S
C682 H677 0.949 . S
C682 C688 1.368 . S
C683 C667 1.349 . S
C683 H675 0.950 . S
C683 C681 1.327 . S
C684 C672 1.349 . S
C684 H678 0.950 . S
C684 C685 1.327 . S
C685 H679 0.950 . S
C685 C684 1.327 . S
C685 C689 1.429 . S
C686 C669 1.574 . S
C686 H680 0.949 . S
C686 C690 1.368 . S
C687 C668 1.429 . S
C687 C681 1.429 . S
C687 C688 1.523 . S
C688 C669 1.368 . S
C688 C682 1.368 . S
C688 C687 1.523 . S
C689 C673 1.429 . S
C689 C685 1.429 . S
C689 C690 1.523 . S
C690 C674 1.368 . S
C690 C686 1.368 . S
C690 C689 1.523 . S
H691 C666 0.950 . S
H692 C668 0.950 . S
H693 C669 0.949 . S
H694 C671 0.950 . S
H695 C673 0.950 . S
C696 C697 1.349 . S
C696 C698 1.327 . S
C696 H721 0.950 . S
C697 C696 1.349 . S
C697 C713 1.349 . S
C698 C696 1.327 . S
C698 C717 1.429 . S
C698 H722 0.950 . S
C699 C716 1.574 . S
C699 C718 1.368 . S
C699 H723 0.949 . S
H700 C704 0.949 . S
C701 C702 1.349 . S
C701 C703 1.327 . S
C701 H724 0.950 . S
C702 C701 1.349 . S
C702 C714 1.349 . S
C703 C701 1.327 . S
C703 C719 1.429 . S
C703 H725 0.950 . S
C704 H700 0.949 . S
C704 C712 1.574 . S
C704 C720 1.368 . S
H705 C713 0.950 . S
H706 C711 0.950 . S
H707 C712 0.949 . S
H708 C714 0.950 . S
H709 C715 0.950 . S
H710 C716 0.949 . S
C711 H706 0.950 . S
C711 C713 1.327 . S
C711 C717 1.429 . S
C712 C704 1.574 . S
C712 H707 0.949 . S
C712 C718 1.368 . S
C713 C697 1.349 . S
C713 H705 0.950 . S
C713 C711 1.327 . S
C714 C702 1.349 . S
C714 H708 0.950 . S
C714 C715 1.327 . S
C715 H709 0.950 . S
C715 C714 1.327 . S
C715 C719 1.429 . S
C716 C699 1.574 . S
C716 H710 0.949 . S
C716 C720 1.368 . S
C717 C698 1.429 . S
C717 C711 1.429 . S
C717 C718 1.523 . S
C718 C699 1.368 . S
C718 C712 1.368 . S
C718 C717 1.523 . S
C719 C703 1.429 . S
C719 C715 1.429 . S
C719 C720 1.523 . S
C720 C704 1.368 . S
C720 C716 1.368 . S
C720 C719 1.523 . S
H721 C696 0.950 . S
H722 C698 0.950 . S
H723 C699 0.949 . S
H724 C701 0.950 . S
H725 C703 0.950 . S
C726 C727 1.349 . S
C726 C728 1.327 . S
C726 H751 0.950 . S
C727 C726 1.349 . S
C727 C743 1.349 . S
C728 C726 1.327 . S
C728 C747 1.429 . S
C728 H752 0.950 . S
C729 C746 1.574 . S
C729 C748 1.368 . S
C729 H753 0.949 . S
H730 C734 0.949 . S
C731 C732 1.349 . S
C731 C733 1.327 . S
C731 H754 0.950 . S
C732 C731 1.349 . S
C732 C744 1.349 . S
C733 C731 1.327 . S
C733 C749 1.429 . S
C733 H755 0.950 . S
C734 H730 0.949 . S
C734 C742 1.574 . S
C734 C750 1.368 . S
H735 C743 0.950 . S
H736 C741 0.950 . S
H737 C742 0.949 . S
H738 C744 0.950 . S
H739 C745 0.950 . S
H740 C746 0.949 . S
C741 H736 0.950 . S
C741 C743 1.327 . S
C741 C747 1.429 . S
C742 C734 1.574 . S
C742 H737 0.949 . S
C742 C748 1.368 . S
C743 C727 1.349 . S
C743 H735 0.950 . S
C743 C741 1.327 . S
C744 C732 1.349 . S
C744 H738 0.950 . S
C744 C745 1.327 . S
C745 H739 0.950 . S
C745 C744 1.327 . S
C745 C749 1.429 . S
C746 C729 1.574 . S
C746 H740 0.949 . S
C746 C750 1.368 . S
C747 C728 1.429 . S
C747 C741 1.429 . S
C747 C748 1.523 . S
C748 C729 1.368 . S
C748 C742 1.368 . S
C748 C747 1.523 . S
C749 C733 1.429 . S
C749 C745 1.429 . S
C749 C750 1.523 . S
C750 C734 1.368 . S
C750 C746 1.368 . S
C750 C749 1.523 . S
H751 C726 0.950 . S
H752 C728 0.950 . S
H753 C729 0.949 . S
H754 C731 0.950 . S
H755 C733 0.950 . S
C756 C757 1.349 . S
C756 C758 1.327 . S
C756 H781 0.950 . S
C757 C756 1.349 . S
C757 C773 1.349 . S
C758 C756 1.327 . S
C758 C777 1.429 . S
C758 H782 0.950 . S
C759 C776 1.574 . S
C759 C778 1.368 . S
C759 H783 0.949 . S
H760 C764 0.949 . S
C761 C762 1.349 . S
C761 C763 1.327 . S
C761 H784 0.950 . S
C762 C761 1.349 . S
C762 C774 1.349 . S
C763 C761 1.327 . S
C763 C779 1.429 . S
C763 H785 0.950 . S
C764 H760 0.949 . S
C764 C772 1.574 . S
C764 C780 1.368 . S
H765 C773 0.950 . S
H766 C771 0.950 . S
H767 C772 0.949 . S
H768 C774 0.950 . S
H769 C775 0.950 . S
H770 C776 0.949 . S
C771 H766 0.950 . S
C771 C773 1.327 . S
C771 C777 1.429 . S
C772 C764 1.574 . S
C772 H767 0.949 . S
C772 C778 1.368 . S
C773 C757 1.349 . S
C773 H765 0.950 . S
C773 C771 1.327 . S
C774 C762 1.349 . S
C774 H768 0.950 . S
C774 C775 1.327 . S
C775 H769 0.950 . S
C775 C774 1.327 . S
C775 C779 1.429 . S
C776 C759 1.574 . S
C776 H770 0.949 . S
C776 C780 1.368 . S
C777 C758 1.429 . S
C777 C771 1.429 . S
C777 C778 1.523 . S
C778 C759 1.368 . S
C778 C772 1.368 . S
C778 C777 1.523 . S
C779 C763 1.429 . S
C779 C775 1.429 . S
C779 C780 1.523 . S
C780 C764 1.368 . S
C780 C776 1.368 . S
C780 C779 1.523 . S
H781 C756 0.950 . S
H782 C758 0.950 . S
H783 C759 0.949 . S
H784 C761 0.950 . S
H785 C763 0.950 . S
C786 C787 1.349 . S
C786 C788 1.327 . S
C786 H811 0.950 . S
C787 C786 1.349 . S
C787 C803 1.349 . S
C788 C786 1.327 . S
C788 C807 1.429 . S
C788 H812 0.950 . S
C789 C806 1.574 . S
C789 C808 1.368 . S
C789 H813 0.949 . S
H790 C794 0.949 . S
C791 C792 1.349 . S
C791 C793 1.327 . S
C791 H814 0.950 . S
C792 C791 1.349 . S
C792 C804 1.349 . S
C793 C791 1.327 . S
C793 C809 1.429 . S
C793 H815 0.950 . S
C794 H790 0.949 . S
C794 C802 1.574 . S
C794 C810 1.368 . S
H795 C803 0.950 . S
H796 C801 0.950 . S
H797 C802 0.949 . S
H798 C804 0.950 . S
H799 C805 0.950 . S
H800 C806 0.949 . S
C801 H796 0.950 . S
C801 C803 1.327 . S
C801 C807 1.429 . S
C802 C794 1.574 . S
C802 H797 0.949 . S
C802 C808 1.368 . S
C803 C787 1.349 . S
C803 H795 0.950 . S
C803 C801 1.327 . S
C804 C792 1.349 . S
C804 H798 0.950 . S
C804 C805 1.327 . S
C805 H799 0.950 . S
C805 C804 1.327 . S
C805 C809 1.429 . S
C806 C789 1.574 . S
C806 H800 0.949 . S
C806 C810 1.368 . S
C807 C788 1.429 . S
C807 C801 1.429 . S
C807 C808 1.523 . S
C808 C789 1.368 . S
C808 C802 1.368 . S
C808 C807 1.523 . S
C809 C793 1.429 . S
C809 C805 1.429 . S
C809 C810 1.523 . S
C810 C794 1.368 . S
C810 C806 1.368 . S
C810 C809 1.523 . S
H811 C786 0.950 . S
H812 C788 0.950 . S
H813 C789 0.949 . S
H814 C791 0.950 . S
H815 C793 0.950 . S
C816 C817 1.349 . S
C816 C818 1.327 . S
C816 H841 0.950 . S
C817 C816 1.349 . S
C817 C833 1.349 . S
C818 C816 1.327 . S
C818 C837 1.429 . S
C818 H842 0.950 . S
C819 C836 1.574 . S
C819 C838 1.368 . S
C819 H843 0.949 . S
H820 C824 0.949 . S
C821 C822 1.349 . S
C821 C823 1.327 . S
C821 H844 0.950 . S
C822 C821 1.349 . S
C822 C834 1.349 . S
C823 C821 1.327 . S
C823 C839 1.429 . S
C823 H845 0.950 . S
C824 H820 0.949 . S
C824 C832 1.574 . S
C824 C840 1.368 . S
H825 C833 0.950 . S
H826 C831 0.950 . S
H827 C832 0.949 . S
H828 C834 0.950 . S
H829 C835 0.950 . S
H830 C836 0.949 . S
C831 H826 0.950 . S
C831 C833 1.327 . S
C831 C837 1.429 . S
C832 C824 1.574 . S
C832 H827 0.949 . S
C832 C838 1.368 . S
C833 C817 1.349 . S
C833 H825 0.950 . S
C833 C831 1.327 . S
C834 C822 1.349 . S
C834 H828 0.950 . S
C834 C835 1.327 . S
C835 H829 0.950 . S
C835 C834 1.327 . S
C835 C839 1.429 . S
C836 C819 1.574 . S
C836 H830 0.949 . S
C836 C840 1.368 . S
C837 C818 1.429 . S
C837 C831 1.429 . S
C837 C838 1.523 . S
C838 C819 1.368 . S
C838 C832 1.368 . S
C838 C837 1.523 . S
C839 C823 1.429 . S
C839 C835 1.429 . S
C839 C840 1.523 . S
C840 C824 1.368 . S
C840 C836 1.368 . S
C840 C839 1.523 . S
H841 C816 0.950 . S
H842 C818 0.950 . S
H843 C819 0.949 . S
H844 C821 0.950 . S
H845 C823 0.950 . S
C846 C847 1.349 . S
C846 C848 1.327 . S
C846 H871 0.950 . S
C847 C846 1.349 . S
C847 C863 1.349 . S
C848 C846 1.327 . S
C848 C867 1.429 . S
C848 H872 0.950 . S
C849 C866 1.574 . S
C849 C868 1.368 . S
C849 H873 0.949 . S
H850 C854 0.949 . S
C851 C852 1.349 . S
C851 C853 1.327 . S
C851 H874 0.950 . S
C852 C851 1.349 . S
C852 C864 1.349 . S
C853 C851 1.327 . S
C853 C869 1.429 . S
C853 H875 0.950 . S
C854 H850 0.949 . S
C854 C862 1.574 . S
C854 C870 1.368 . S
H855 C863 0.950 . S
H856 C861 0.950 . S
H857 C862 0.949 . S
H858 C864 0.950 . S
H859 C865 0.950 . S
H860 C866 0.949 . S
C861 H856 0.950 . S
C861 C863 1.327 . S
C861 C867 1.429 . S
C862 C854 1.574 . S
C862 H857 0.949 . S
C862 C868 1.368 . S
C863 C847 1.349 . S
C863 H855 0.950 . S
C863 C861 1.327 . S
C864 C852 1.349 . S
C864 H858 0.950 . S
C864 C865 1.327 . S
C865 H859 0.950 . S
C865 C864 1.327 . S
C865 C869 1.429 . S
C866 C849 1.574 . S
C866 H860 0.949 . S
C866 C870 1.368 . S
C867 C848 1.429 . S
C867 C861 1.429 . S
C867 C868 1.523 . S
C868 C849 1.368 . S
C868 C862 1.368 . S
C868 C867 1.523 . S
C869 C853 1.429 . S
C869 C865 1.429 . S
C869 C870 1.523 . S
C870 C854 1.368 . S
C870 C866 1.368 . S
C870 C869 1.523 . S
H871 C846 0.950 . S
H872 C848 0.950 . S
H873 C849 0.949 . S
H874 C851 0.950 . S
H875 C853 0.950 . S
C876 C877 1.349 . S
C876 C878 1.327 . S
C876 H901 0.950 . S
C877 C876 1.349 . S
C877 C893 1.349 . S
C878 C876 1.327 . S
C878 C897 1.429 . S
C878 H902 0.950 . S
C879 C896 1.574 . S
C879 C898 1.368 . S
C879 H903 0.949 . S
H880 C884 0.949 . S
C881 C882 1.349 . S
C881 C883 1.327 . S
C881 H904 0.950 . S
C882 C881 1.349 . S
C882 C894 1.349 . S
C883 C881 1.327 . S
C883 C899 1.429 . S
C883 H905 0.950 . S
C884 H880 0.949 . S
C884 C892 1.574 . S
C884 C900 1.368 . S
H885 C893 0.950 . S
H886 C891 0.950 . S
H887 C892 0.949 . S
H888 C894 0.950 . S
H889 C895 0.950 . S
H890 C896 0.949 . S
C891 H886 0.950 . S
C891 C893 1.327 . S
C891 C897 1.429 . S
C892 C884 1.574 . S
C892 H887 0.949 . S
C892 C898 1.368 . S
C893 C877 1.349 . S
C893 H885 0.950 . S
C893 C891 1.327 . S
C894 C882 1.349 . S
C894 H888 0.950 . S
C894 C895 1.327 . S
C895 H889 0.950 . S
C895 C894 1.327 . S
C895 C899 1.429 . S
C896 C879 1.574 . S
C896 H890 0.949 . S
C896 C900 1.368 . S
C897 C878 1.429 . S
C897 C891 1.429 . S
C897 C898 1.523 . S
C898 C879 1.368 . S
C898 C892 1.368 . S
C898 C897 1.523 . S
C899 C883 1.429 . S
C899 C895 1.429 . S
C899 C900 1.523 . S
C900 C884 1.368 . S
C900 C896 1.368 . S
C900 C899 1.523 . S
H901 C876 0.950 . S
H902 C878 0.950 . S
H903 C879 0.949 . S
H904 C881 0.950 . S
H905 C883 0.950 . S
C906 C907 1.349 . S
C906 C908 1.327 . S
C906 H931 0.950 . S
C907 C906 1.349 . S
C907 C923 1.349 . S
C908 C906 1.327 . S
C908 C927 1.429 . S
C908 H932 0.950 . S
C909 C926 1.574 . S
C909 C928 1.368 . S
C909 H933 0.949 . S
H910 C914 0.949 . S
C911 C912 1.349 . S
C911 C913 1.327 . S
C911 H934 0.950 . S
C912 C911 1.349 . S
C912 C924 1.349 . S
C913 C911 1.327 . S
C913 C929 1.429 . S
C913 H935 0.950 . S
C914 H910 0.949 . S
C914 C922 1.574 . S
C914 C930 1.368 . S
H915 C923 0.950 . S
H916 C921 0.950 . S
H917 C922 0.949 . S
H918 C924 0.950 . S
H919 C925 0.950 . S
H920 C926 0.949 . S
C921 H916 0.950 . S
C921 C923 1.327 . S
C921 C927 1.429 . S
C922 C914 1.574 . S
C922 H917 0.949 . S
C922 C928 1.368 . S
C923 C907 1.349 . S
C923 H915 0.950 . S
C923 C921 1.327 . S
C924 C912 1.349 . S
C924 H918 0.950 . S
C924 C925 1.327 . S
C925 H919 0.950 . S
C925 C924 1.327 . S
C925 C929 1.429 . S
C926 C909 1.574 . S
C926 H920 0.949 . S
C926 C930 1.368 . S
C927 C908 1.429 . S
C927 C921 1.429 . S
C927 C928 1.523 . S
C928 C909 1.368 . S
C928 C922 1.368 . S
C928 C927 1.523 . S
C929 C913 1.429 . S
C929 C925 1.429 . S
C929 C930 1.523 . S
C930 C914 1.368 . S
C930 C926 1.368 . S
C930 C929 1.523 . S
H931 C906 0.950 . S
H932 C908 0.950 . S
H933 C909 0.949 . S
H934 C911 0.950 . S
H935 C913 0.950 . S
C936 C937 1.349 . S
C936 C938 1.327 . S
C936 H961 0.950 . S
C937 C936 1.349 . S
C937 C953 1.349 . S
C938 C936 1.327 . S
C938 C957 1.429 . S
C938 H962 0.950 . S
C939 C956 1.574 . S
C939 C958 1.368 . S
C939 H963 0.949 . S
H940 C944 0.949 . S
C941 C942 1.349 . S
C941 C943 1.327 . S
C941 H964 0.950 . S
C942 C941 1.349 . S
C942 C954 1.349 . S
C943 C941 1.327 . S
C943 C959 1.429 . S
C943 H965 0.950 . S
C944 H940 0.949 . S
C944 C952 1.574 . S
C944 C960 1.368 . S
H945 C953 0.950 . S
H946 C951 0.950 . S
H947 C952 0.949 . S
H948 C954 0.950 . S
H949 C955 0.950 . S
H950 C956 0.949 . S
C951 H946 0.950 . S
C951 C953 1.327 . S
C951 C957 1.429 . S
C952 C944 1.574 . S
C952 H947 0.949 . S
C952 C958 1.368 . S
C953 C937 1.349 . S
C953 H945 0.950 . S
C953 C951 1.327 . S
C954 C942 1.349 . S
C954 H948 0.950 . S
C954 C955 1.327 . S
C955 H949 0.950 . S
C955 C954 1.327 . S
C955 C959 1.429 . S
C956 C939 1.574 . S
C956 H950 0.949 . S
C956 C960 1.368 . S
C957 C938 1.429 . S
C957 C951 1.429 . S
C957 C958 1.523 . S
C958 C939 1.368 . S
C958 C952 1.368 . S
C958 C957 1.523 . S
C959 C943 1.429 . S
C959 C955 1.429 . S
C959 C960 1.523 . S
C960 C944 1.368 . S
C960 C956 1.368 . S
C960 C959 1.523 . S
H961 C936 0.950 . S
H962 C938 0.950 . S
H963 C939 0.949 . S
H964 C941 0.950 . S
H965 C943 0.950 . S
C966 C967 1.349 . S
C966 C968 1.327 . S
C966 H991 0.950 . S
C967 C966 1.349 . S
C967 C983 1.349 . S
C968 C966 1.327 . S
C968 C987 1.429 . S
C968 H992 0.950 . S
C969 C986 1.574 . S
C969 C988 1.368 . S
C969 H993 0.949 . S
H970 C974 0.949 . S
C971 C972 1.349 . S
C971 C973 1.327 . S
C971 H994 0.950 . S
C972 C971 1.349 . S
C972 C984 1.349 . S
C973 C971 1.327 . S
C973 C989 1.429 . S
C973 H995 0.950 . S
C974 H970 0.949 . S
C974 C982 1.574 . S
C974 C990 1.368 . S
H975 C983 0.950 . S
H976 C981 0.950 . S
H977 C982 0.949 . S
H978 C984 0.950 . S
H979 C985 0.950 . S
H980 C986 0.949 . S
C981 H976 0.950 . S
C981 C983 1.327 . S
C981 C987 1.429 . S
C982 C974 1.574 . S
C982 H977 0.949 . S
C982 C988 1.368 . S
C983 C967 1.349 . S
C983 H975 0.950 . S
C983 C981 1.327 . S
C984 C972 1.349 . S
C984 H978 0.950 . S
C984 C985 1.327 . S
C985 H979 0.950 . S
C985 C984 1.327 . S
C985 C989 1.429 . S
C986 C969 1.574 . S
C986 H980 0.949 . S
C986 C990 1.368 . S
C987 C968 1.429 . S
C987 C981 1.429 . S
C987 C988 1.523 . S
C988 C969 1.368 . S
C988 C982 1.368 . S
C988 C987 1.523 . S
C989 C973 1.429 . S
C989 C985 1.429 . S
C989 C990 1.523 . S
C990 C974 1.368 . S
C990 C986 1.368 . S
C990 C989 1.523 . S
H991 C966 0.950 . S
H992 C968 0.950 . S
H993 C969 0.949 . S
H994 C971 0.950 . S
H995 C973 0.950 . S
C996 C997 1.349 . S
C996 C998 1.327 . S
C996 H1021 0.950 . S
C997 C996 1.349 . S
C997 C1013 1.349 . S
C998 C996 1.327 . S
C998 C1017 1.429 . S
C998 H1022 0.950 . S
C999 C1016 1.574 . S
C999 C1018 1.368 . S
C999 H1023 0.949 . S
H1000 C1004 0.949 . S
C1001 C1002 1.349 . S
C1001 C1003 1.327 . S
C1001 H1024 0.950 . S
C1002 C1001 1.349 . S
C1002 C1014 1.349 . S
C1003 C1001 1.327 . S
C1003 C1019 1.429 . S
C1003 H1025 0.950 . S
C1004 H1000 0.949 . S
C1004 C1012 1.574 . S
C1004 C1020 1.368 . S
H1005 C1013 0.950 . S
H1006 C1011 0.950 . S
H1007 C1012 0.949 . S
H1008 C1014 0.950 . S
H1009 C1015 0.950 . S
H1010 C1016 0.949 . S
C1011 H1006 0.950 . S
C1011 C1013 1.327 . S
C1011 C1017 1.429 . S
C1012 C1004 1.574 . S
C1012 H1007 0.949 . S
C1012 C1018 1.368 . S
C1013 C997 1.349 . S
C1013 H1005 0.950 . S
C1013 C1011 1.327 . S
C1014 C1002 1.349 . S
C1014 H1008 0.950 . S
C1014 C1015 1.327 . S
C1015 H1009 0.950 . S
C1015 C1014 1.327 . S
C1015 C1019 1.429 . S
C1016 C999 1.574 . S
C1016 H1010 0.949 . S
C1016 C1020 1.368 . S
C1017 C998 1.429 . S
C1017 C1011 1.429 . S
C1017 C1018 1.523 . S
C1018 C999 1.368 . S
C1018 C1012 1.368 . S
C1018 C1017 1.523 . S
C1019 C1003 1.429 . S
C1019 C1015 1.429 . S
C1019 C1020 1.523 . S
C1020 C1004 1.368 . S
C1020 C1016 1.368 . S
C1020 C1019 1.523 . S
H1021 C996 0.950 . S
H1022 C998 0.950 . S
H1023 C999 0.949 . S
H1024 C1001 0.950 . S
H1025 C1003 0.950 . S
C1026 C1027 1.349 . S
C1026 C1028 1.327 . S
C1026 H1051 0.950 . S
C1027 C1026 1.349 . S
C1027 C1043 1.349 . S
C1028 C1026 1.327 . S
C1028 C1047 1.429 . S
C1028 H1052 0.950 . S
C1029 C1046 1.574 . S
C1029 C1048 1.368 . S
C1029 H1053 0.949 . S
H1030 C1034 0.949 . S
C1031 C1032 1.349 . S
C1031 C1033 1.327 . S
C1031 H1054 0.950 . S
C1032 C1031 1.349 . S
C1032 C1044 1.349 . S
C1033 C1031 1.327 . S
C1033 C1049 1.429 . S
C1033 H1055 0.950 . S
C1034 H1030 0.949 . S
C1034 C1042 1.574 . S
C1034 C1050 1.368 . S
H1035 C1043 0.950 . S
H1036 C1041 0.950 . S
H1037 C1042 0.949 . S
H1038 C1044 0.950 . S
H1039 C1045 0.950 . S
H1040 C1046 0.949 . S
C1041 H1036 0.950 . S
C1041 C1043 1.327 . S
C1041 C1047 1.429 . S
C1042 C1034 1.574 . S
C1042 H1037 0.949 . S
C1042 C1048 1.368 . S
C1043 C1027 1.349 . S
C1043 H1035 0.950 . S
C1043 C1041 1.327 . S
C1044 C1032 1.349 . S
C1044 H1038 0.950 . S
C1044 C1045 1.327 . S
C1045 H1039 0.950 . S
C1045 C1044 1.327 . S
C1045 C1049 1.429 . S
C1046 C1029 1.574 . S
C1046 H1040 0.949 . S
C1046 C1050 1.368 . S
C1047 C1028 1.429 . S
C1047 C1041 1.429 . S
C1047 C1048 1.523 . S
C1048 C1029 1.368 . S
C1048 C1042 1.368 . S
C1048 C1047 1.523 . S
C1049 C1033 1.429 . S
C1049 C1045 1.429 . S
C1049 C1050 1.523 . S
C1050 C1034 1.368 . S
C1050 C1046 1.368 . S
C1050 C1049 1.523 . S
H1051 C1026 0.950 . S
H1052 C1028 0.950 . S
H1053 C1029 0.949 . S
H1054 C1031 0.950 . S
H1055 C1033 0.950 . S
C1056 C1057 1.349 . S
C1056 C1058 1.327 . S
C1056 H1081 0.950 . S
C1057 C1056 1.349 . S
C1057 C1073 1.349 . S
C1058 C1056 1.327 . S
C1058 C1077 1.429 . S
C1058 H1082 0.950 . S
C1059 C1076 1.574 . S
C1059 C1078 1.368 . S
C1059 H1083 0.949 . S
H1060 C1064 0.949 . S
C1061 C1062 1.349 . S
C1061 C1063 1.327 . S
C1061 H1084 0.950 . S
C1062 C1061 1.349 . S
C1062 C1074 1.349 . S
C1063 C1061 1.327 . S
C1063 C1079 1.429 . S
C1063 H1085 0.950 . S
C1064 H1060 0.949 . S
C1064 C1072 1.574 . S
C1064 C1080 1.368 . S
H1065 C1073 0.950 . S
H1066 C1071 0.950 . S
H1067 C1072 0.949 . S
H1068 C1074 0.950 . S
H1069 C1075 0.950 . S
H1070 C1076 0.949 . S
C1071 H1066 0.950 . S
C1071 C1073 1.327 . S
C1071 C1077 1.429 . S
C1072 C1064 1.574 . S
C1072 H1067 0.949 . S
C1072 C1078 1.368 . S
C1073 C1057 1.349 . S
C1073 H1065 0.950 . S
C1073 C1071 1.327 . S
C1074 C1062 1.349 . S
C1074 H1068 0.950 . S
C1074 C1075 1.327 . S
C1075 H1069 0.950 . S
C1075 C1074 1.327 . S
C1075 C1079 1.429 . S
C1076 C1059 1.574 . S
C1076 H1070 0.949 . S
C1076 C1080 1.368 . S
C1077 C1058 1.429 . S
C1077 C1071 1.429 . S
C1077 C1078 1.523 . S
C1078 C1059 1.368 . S
C1078 C1072 1.368 . S
C1078 C1077 1.523 . S
C1079 C1063 1.429 . S
C1079 C1075 1.429 . S
C1079 C1080 1.523 . S
C1080 C1064 1.368 . S
C1080 C1076 1.368 . S
C1080 C1079 1.523 . S
H1081 C1056 0.950 . S
H1082 C1058 0.950 . S
H1083 C1059 0.949 . S
H1084 C1061 0.950 . S
H1085 C1063 0.950 . S
C1086 C1087 1.349 . S
C1086 C1088 1.327 . S
C1086 H1111 0.950 . S
C1087 C1086 1.349 . S
C1087 C1103 1.349 . S
C1088 C1086 1.327 . S
C1088 C1107 1.429 . S
C1088 H1112 0.950 . S
C1089 C1106 1.574 . S
C1089 C1108 1.368 . S
C1089 H1113 0.949 . S
H1090 C1094 0.949 . S
C1091 C1092 1.349 . S
C1091 C1093 1.327 . S
C1091 H1114 0.950 . S
C1092 C1091 1.349 . S
C1092 C1104 1.349 . S
C1093 C1091 1.327 . S
C1093 C1109 1.429 . S
C1093 H1115 0.950 . S
C1094 H1090 0.949 . S
C1094 C1102 1.574 . S
C1094 C1110 1.368 . S
H1095 C1103 0.950 . S
H1096 C1101 0.950 . S
H1097 C1102 0.949 . S
H1098 C1104 0.950 . S
H1099 C1105 0.950 . S
H1100 C1106 0.949 . S
C1101 H1096 0.950 . S
C1101 C1103 1.327 . S
C1101 C1107 1.429 . S
C1102 C1094 1.574 . S
C1102 H1097 0.949 . S
C1102 C1108 1.368 . S
C1103 C1087 1.349 . S
C1103 H1095 0.950 . S
C1103 C1101 1.327 . S
C1104 C1092 1.349 . S
C1104 H1098 0.950 . S
C1104 C1105 1.327 . S
C1105 H1099 0.950 . S
C1105 C1104 1.327 . S
C1105 C1109 1.429 . S
C1106 C1089 1.574 . S
C1106 H1100 0.949 . S
C1106 C1110 1.368 . S
C1107 C1088 1.429 . S
C1107 C1101 1.429 . S
C1107 C1108 1.523 . S
C1108 C1089 1.368 . S
C1108 C1102 1.368 . S
C1108 C1107 1.523 . S
C1109 C1093 1.429 . S
C1109 C1105 1.429 . S
C1109 C1110 1.523 . S
C1110 C1094 1.368 . S
C1110 C1106 1.368 . S
C1110 C1109 1.523 . S
H1111 C1086 0.950 . S
H1112 C1088 0.950 . S
H1113 C1089 0.949 . S
H1114 C1091 0.950 . S
H1115 C1093 0.950 . S
C1116 C1117 1.349 . S
C1116 C1118 1.327 . S
C1116 H1141 0.950 . S
C1117 C1116 1.349 . S
C1117 C1133 1.349 . S
C1118 C1116 1.327 . S
C1118 C1137 1.429 . S
C1118 H1142 0.950 . S
C1119 C1136 1.574 . S
C1119 C1138 1.368 . S
C1119 H1143 0.949 . S
H1120 C1124 0.949 . S
C1121 C1122 1.349 . S
C1121 C1123 1.327 . S
C1121 H1144 0.950 . S
C1122 C1121 1.349 . S
C1122 C1134 1.349 . S
C1123 C1121 1.327 . S
C1123 C1139 1.429 . S
C1123 H1145 0.950 . S
C1124 H1120 0.949 . S
C1124 C1132 1.574 . S
C1124 C1140 1.368 . S
H1125 C1133 0.950 . S
H1126 C1131 0.950 . S
H1127 C1132 0.949 . S
H1128 C1134 0.950 . S
H1129 C1135 0.950 . S
H1130 C1136 0.949 . S
C1131 H1126 0.950 . S
C1131 C1133 1.327 . S
C1131 C1137 1.429 . S
C1132 C1124 1.574 . S
C1132 H1127 0.949 . S
C1132 C1138 1.368 . S
C1133 C1117 1.349 . S
C1133 H1125 0.950 . S
C1133 C1131 1.327 . S
C1134 C1122 1.349 . S
C1134 H1128 0.950 . S
C1134 C1135 1.327 . S
C1135 H1129 0.950 . S
C1135 C1134 1.327 . S
C1135 C1139 1.429 . S
C1136 C1119 1.574 . S
C1136 H1130 0.949 . S
C1136 C1140 1.368 . S
C1137 C1118 1.429 . S
C1137 C1131 1.429 . S
C1137 C1138 1.523 . S
C1138 C1119 1.368 . S
C1138 C1132 1.368 . S
C1138 C1137 1.523 . S
C1139 C1123 1.429 . S
C1139 C1135 1.429 . S
C1139 C1140 1.523 . S
C1140 C1124 1.368 . S
C1140 C1136 1.368 . S
C1140 C1139 1.523 . S
H1141 C1116 0.950 . S
H1142 C1118 0.950 . S
H1143 C1119 0.949 . S
H1144 C1121 0.950 . S
H1145 C1123 0.950 . S
C1146 C1147 1.349 . S
C1146 C1148 1.327 . S
C1146 H1171 0.950 . S
C1147 C1146 1.349 . S
C1147 C1163 1.349 . S
C1148 C1146 1.327 . S
C1148 C1167 1.429 . S
C1148 H1172 0.950 . S
C1149 C1166 1.574 . S
C1149 C1168 1.368 . S
C1149 H1173 0.949 . S
H1150 C1154 0.949 . S
C1151 C1152 1.349 . S
C1151 C1153 1.327 . S
C1151 H1174 0.950 . S
C1152 C1151 1.349 . S
C1152 C1164 1.349 . S
C1153 C1151 1.327 . S
C1153 C1169 1.429 . S
C1153 H1175 0.950 . S
C1154 H1150 0.949 . S
C1154 C1162 1.574 . S
C1154 C1170 1.368 . S
H1155 C1163 0.950 . S
H1156 C1161 0.950 . S
H1157 C1162 0.949 . S
H1158 C1164 0.950 . S
H1159 C1165 0.950 . S
H1160 C1166 0.949 . S
C1161 H1156 0.950 . S
C1161 C1163 1.327 . S
C1161 C1167 1.429 . S
C1162 C1154 1.574 . S
C1162 H1157 0.949 . S
C1162 C1168 1.368 . S
C1163 C1147 1.349 . S
C1163 H1155 0.950 . S
C1163 C1161 1.327 . S
C1164 C1152 1.349 . S
C1164 H1158 0.950 . S
C1164 C1165 1.327 . S
C1165 H1159 0.950 . S
C1165 C1164 1.327 . S
C1165 C1169 1.429 . S
C1166 C1149 1.574 . S
C1166 H1160 0.949 . S
C1166 C1170 1.368 . S
C1167 C1148 1.429 . S
C1167 C1161 1.429 . S
C1167 C1168 1.523 . S
C1168 C1149 1.368 . S
C1168 C1162 1.368 . S
C1168 C1167 1.523 . S
C1169 C1153 1.429 . S
C1169 C1165 1.429 . S
C1169 C1170 1.523 . S
C1170 C1154 1.368 . S
C1170 C1166 1.368 . S
C1170 C1169 1.523 . S
H1171 C1146 0.950 . S
H1172 C1148 0.950 . S
H1173 C1149 0.949 . S
H1174 C1151 0.950 . S
H1175 C1153 0.950 . S
C457 C39 2.129 . S
C462 C325 2.109 . S
C487 C91 1.416 . S
C492 N343 1.404 . S
C522 C371 1.925 . S
C517 C128 1.948 . S
C552 N389 1.233 . S
C547 C188 1.248 . S
C582 C417 2.018 . S
C577 C250 2.039 . S
C612 N435 1.391 . S
C607 C304 1.401 . S
C637 C75 1.980 . S
C642 C380 1.979 . S
C667 C144 1.421 . S
C672 N399 1.368 . S
C702 C426 2.070 . S
C697 C198 2.070 . S
C732 N445 1.198 . S
C727 C234 1.251 . S
C757 C294 1.893 . S
C762 C334 1.888 . S
C792 N353 1.219 . S
C787 C29 1.271 . S
C822 C403 1.978 . S
C817 C38 2.020 . S
C847 C92 1.316 . S
C852 N422 1.291 . S
C882 C449 1.796 . S
C877 C135 1.840 . S
C907 C181 1.147 . S
C912 N330 1.121 . S
C937 C251 1.937 . S
C942 C357 1.894 . S
C967 C303 1.281 . S
C972 N376 1.258 . S
C997 C82 1.889 . S
C1002 C440 1.875 . S
C1032 N320 1.247 . S
C1027 C145 1.313 . S
C1057 C197 1.986 . S
C1062 C348 1.974 . S
C1087 C241 1.138 . S
C1092 N366 1.080 . S
C1117 C287 1.808 . S
C1122 C394 1.794 . S
C1147 C22 1.171 . S
C1152 N412 1.114 . S
