# Generated by pormake.
# Topology ocu, (6,8)-cn, num edge types: 1
# Building blocks:
#     Node 0, Type 0, BuildingBlock: JUFBIX_clean_sbu_0, # of connection points: 6
#     Node 1, Type 0, BuildingBlock: JUFBIX_clean_sbu_0, # of connection points: 6
#     Node 2, Type 0, BuildingBlock: JUFBIX_clean_sbu_0, # of connection points: 6
#     Node 3, Type 0, BuildingBlock: JUFBIX_clean_sbu_0, # of connection points: 6
#     Node 4, Type 0, BuildingBlock: JUFBIX_clean_sbu_0, # of connection points: 6
#     Node 5, Type 0, BuildingBlock: JUFBIX_clean_sbu_0, # of connection points: 6
#     Node 6, Type 0, BuildingBlock: JUFBIX_clean_sbu_0, # of connection points: 6
#     Node 7, Type 0, BuildingBlock: JUFBIX_clean_sbu_0, # of connection points: 6
#     Node 8, Type 1, BuildingBlock: GIZVER_clean_sbu_0, # of connection points: 8
#     Node 9, Type 1, BuildingBlock: GIZVER_clean_sbu_0, # of connection points: 8
#     Node 10, Type 1, BuildingBlock: GIZVER_clean_sbu_0, # of connection points: 8
#     Node 11, Type 1, BuildingBlock: GIZVER_clean_sbu_0, # of connection points: 8
#     Node 12, Type 1, BuildingBlock: GIZVER_clean_sbu_0, # of connection points: 8
#     Node 13, Type 1, BuildingBlock: GIZVER_clean_sbu_0, # of connection points: 8
#     Edge 14, Type (0, 1), BuildingBlock: ZUJKAS_clean_linker_0, # of connection points: 2
#     Edge 15, Type (0, 1), BuildingBlock: ZUJKAS_clean_linker_0, # of connection points: 2
#     Edge 16, Type (0, 1), BuildingBlock: ZUJKAS_clean_linker_0, # of connection points: 2
#     Edge 17, Type (0, 1), BuildingBlock: ZUJKAS_clean_linker_0, # of connection points: 2
#     Edge 18, Type (0, 1), BuildingBlock: ZUJKAS_clean_linker_0, # of connection points: 2
#     Edge 19, Type (0, 1), BuildingBlock: ZUJKAS_clean_linker_0, # of connection points: 2
#     Edge 20, Type (0, 1), BuildingBlock: ZUJKAS_clean_linker_0, # of connection points: 2
#     Edge 21, Type (0, 1), BuildingBlock: ZUJKAS_clean_linker_0, # of connection points: 2
#     Edge 22, Type (0, 1), BuildingBlock: ZUJKAS_clean_linker_0, # of connection points: 2
#     Edge 23, Type (0, 1), BuildingBlock: ZUJKAS_clean_linker_0, # of connection points: 2
#     Edge 24, Type (0, 1), BuildingBlock: ZUJKAS_clean_linker_0, # of connection points: 2
#     Edge 25, Type (0, 1), BuildingBlock: ZUJKAS_clean_linker_0, # of connection points: 2
#     Edge 26, Type (0, 1), BuildingBlock: ZUJKAS_clean_linker_0, # of connection points: 2
#     Edge 27, Type (0, 1), BuildingBlock: ZUJKAS_clean_linker_0, # of connection points: 2
#     Edge 28, Type (0, 1), BuildingBlock: ZUJKAS_clean_linker_0, # of connection points: 2
#     Edge 29, Type (0, 1), BuildingBlock: ZUJKAS_clean_linker_0, # of connection points: 2
#     Edge 30, Type (0, 1), BuildingBlock: ZUJKAS_clean_linker_0, # of connection points: 2
#     Edge 31, Type (0, 1), BuildingBlock: ZUJKAS_clean_linker_0, # of connection points: 2
#     Edge 32, Type (0, 1), BuildingBlock: ZUJKAS_clean_linker_0, # of connection points: 2
#     Edge 33, Type (0, 1), BuildingBlock: ZUJKAS_clean_linker_0, # of connection points: 2
#     Edge 34, Type (0, 1), BuildingBlock: ZUJKAS_clean_linker_0, # of connection points: 2
#     Edge 35, Type (0, 1), BuildingBlock: ZUJKAS_clean_linker_0, # of connection points: 2
#     Edge 36, Type (0, 1), BuildingBlock: ZUJKAS_clean_linker_0, # of connection points: 2
#     Edge 37, Type (0, 1), BuildingBlock: ZUJKAS_clean_linker_0, # of connection points: 2
#     Edge 38, Type (0, 1), BuildingBlock: ZUJKAS_clean_linker_0, # of connection points: 2
#     Edge 39, Type (0, 1), BuildingBlock: ZUJKAS_clean_linker_0, # of connection points: 2
#     Edge 40, Type (0, 1), BuildingBlock: ZUJKAS_clean_linker_0, # of connection points: 2
#     Edge 41, Type (0, 1), BuildingBlock: ZUJKAS_clean_linker_0, # of connection points: 2
#     Edge 42, Type (0, 1), BuildingBlock: ZUJKAS_clean_linker_0, # of connection points: 2
#     Edge 43, Type (0, 1), BuildingBlock: ZUJKAS_clean_linker_0, # of connection points: 2
#     Edge 44, Type (0, 1), BuildingBlock: ZUJKAS_clean_linker_0, # of connection points: 2
#     Edge 45, Type (0, 1), BuildingBlock: ZUJKAS_clean_linker_0, # of connection points: 2
#     Edge 46, Type (0, 1), BuildingBlock: ZUJKAS_clean_linker_0, # of connection points: 2
#     Edge 47, Type (0, 1), BuildingBlock: ZUJKAS_clean_linker_0, # of connection points: 2
#     Edge 48, Type (0, 1), BuildingBlock: ZUJKAS_clean_linker_0, # of connection points: 2
#     Edge 49, Type (0, 1), BuildingBlock: ZUJKAS_clean_linker_0, # of connection points: 2
#     Edge 50, Type (0, 1), BuildingBlock: ZUJKAS_clean_linker_0, # of connection points: 2
#     Edge 51, Type (0, 1), BuildingBlock: ZUJKAS_clean_linker_0, # of connection points: 2
#     Edge 52, Type (0, 1), BuildingBlock: ZUJKAS_clean_linker_0, # of connection points: 2
#     Edge 53, Type (0, 1), BuildingBlock: ZUJKAS_clean_linker_0, # of connection points: 2
#     Edge 54, Type (0, 1), BuildingBlock: ZUJKAS_clean_linker_0, # of connection points: 2
#     Edge 55, Type (0, 1), BuildingBlock: ZUJKAS_clean_linker_0, # of connection points: 2
#     Edge 56, Type (0, 1), BuildingBlock: ZUJKAS_clean_linker_0, # of connection points: 2
#     Edge 57, Type (0, 1), BuildingBlock: ZUJKAS_clean_linker_0, # of connection points: 2
#     Edge 58, Type (0, 1), BuildingBlock: ZUJKAS_clean_linker_0, # of connection points: 2
#     Edge 59, Type (0, 1), BuildingBlock: ZUJKAS_clean_linker_0, # of connection points: 2
#     Edge 60, Type (0, 1), BuildingBlock: ZUJKAS_clean_linker_0, # of connection points: 2
#     Edge 61, Type (0, 1), BuildingBlock: ZUJKAS_clean_linker_0, # of connection points: 2
# Relax obj value: 0.240
# Max RMSD: 0.317
# Mean RMSD: 0.221
data_MOF--net-ocu--node1-JUFBIX_clean_sbu_0--node2-GIZVER_clean_sbu_0--edge1-ZUJKAS_clean_linker_0
_symmetry_space_group_name_H-M    P1
_symmetry_Int_Tables_number       1
_symmetry_cell_setting            triclinic
loop_
_symmetry_equiv_pos_as_xyz
'x, y, z'
_cell_length_a     51.312269
_cell_length_b     54.038347
_cell_length_c     38.914749
_cell_angle_alpha  91.88411
_cell_angle_beta   93.101658
_cell_angle_gamma 98.474292
loop_
_atom_site_label
_atom_site_type_symbol
_atom_site_fract_x
_atom_site_fract_y
_atom_site_fract_z
_atom_type_partial_charge
Co0 Co 0.24743 0.25152 0.25348 0.0
C1 C 0.24132 0.29266 0.2963 0.0
Co2 Co 0.28105 0.28169 0.25444 0.0
C3 C 0.21954 0.20184 0.25774 0.0
C4 C 0.19333 0.22844 0.24755 0.0
N5 N 0.21908 0.2263 0.25244 0.0
N6 N 0.19507 0.1886 0.25666 0.0
C7 C 0.17851 0.2053 0.25011 0.0
H8 H 0.23753 0.19401 0.26288 0.0
H9 H 0.18578 0.24584 0.24341 0.0
C10 C 0.28714 0.2406 0.21151 0.0
N11 N 0.30933 0.30696 0.25546 0.0
C12 C 0.30872 0.33121 0.24895 0.0
C13 C 0.3351 0.30508 0.261 0.0
N14 N 0.33312 0.34457 0.24974 0.0
C15 C 0.34978 0.32818 0.2575 0.0
C16 C 0.28765 0.24548 0.30248 0.0
O17 O 0.26403 0.23258 0.22052 0.0
O18 O 0.29817 0.2622 0.22283 0.0
O19 O 0.29785 0.26651 0.29183 0.0
O20 O 0.26493 0.23574 0.28985 0.0
O21 O 0.26386 0.30113 0.28589 0.0
H22 H 0.34274 0.28785 0.26604 0.0
H23 H 0.29069 0.33875 0.24294 0.0
O24 O 0.23083 0.27054 0.28656 0.0
O25 O 0.23015 0.26738 0.21719 0.0
O26 O 0.26418 0.29684 0.21692 0.0
C27 C 0.24098 0.28776 0.20535 0.0
H28 H 0.15717 0.20135 0.24899 0.0
H29 H 0.37111 0.33222 0.25865 0.0
Co30 Co 0.77963 0.26729 0.24317 0.0
C31 C 0.79486 0.30308 0.2962 0.0
Co32 Co 0.75324 0.26466 0.2859 0.0
C33 C 0.80993 0.29246 0.19336 0.0
C34 C 0.8139 0.25362 0.19084 0.0
N35 N 0.80175 0.27054 0.20753 0.0
N36 N 0.82677 0.29016 0.16857 0.0
C37 C 0.82956 0.26575 0.16691 0.0
H38 H 0.80449 0.31006 0.20225 0.0
H39 H 0.81193 0.23394 0.19624 0.0
C40 C 0.73839 0.22867 0.2329 0.0
N41 N 0.7308 0.26232 0.32139 0.0
C42 C 0.71728 0.24142 0.33333 0.0
C43 C 0.72199 0.28141 0.33819 0.0
N44 N 0.70003 0.24667 0.35645 0.0
C45 C 0.70292 0.27182 0.35966 0.0
C46 C 0.73843 0.2954 0.23476 0.0
O47 O 0.75909 0.23929 0.2199 0.0
O48 O 0.73189 0.23706 0.26161 0.0
O49 O 0.73265 0.28709 0.26398 0.0
O50 O 0.75826 0.2888 0.22082 0.0
O51 O 0.77464 0.29207 0.30978 0.0
H52 H 0.72814 0.30103 0.33388 0.0
H53 H 0.71882 0.22272 0.32358 0.0
O54 O 0.80048 0.29535 0.26677 0.0
O55 O 0.80071 0.24586 0.26546 0.0
O56 O 0.77397 0.2421 0.30772 0.0
C57 C 0.79446 0.23657 0.294 0.0
H58 H 0.84229 0.25738 0.1501 0.0
H59 H 0.69142 0.28247 0.37544 0.0
Co60 Co 0.76191 0.75345 0.27531 0.0
C61 C 0.8052 0.79183 0.28516 0.0
Co62 Co 0.76737 0.77946 0.23314 0.0
C63 C 0.78 0.72594 0.32958 0.0
C64 C 0.73868 0.72695 0.33254 0.0
N65 N 0.75916 0.73344 0.31271 0.0
N66 N 0.77369 0.7155 0.35953 0.0
C67 C 0.74764 0.71597 0.36157 0.0
H68 H 0.79988 0.72981 0.32119 0.0
H69 H 0.71895 0.73121 0.32722 0.0
C70 C 0.72406 0.74099 0.22338 0.0
N71 N 0.77074 0.79951 0.19578 0.0
C72 C 0.75094 0.80801 0.17788 0.0
C73 C 0.79224 0.80591 0.17766 0.0
N74 N 0.75905 0.81913 0.14904 0.0
C75 C 0.78504 0.81789 0.14868 0.0
C76 C 0.79333 0.73753 0.22554 0.0
O77 O 0.7315 0.73438 0.25292 0.0
O78 O 0.73688 0.76009 0.21059 0.0
O79 O 0.789 0.75778 0.21212 0.0
O80 O 0.78331 0.73182 0.25392 0.0
O81 O 0.79773 0.79872 0.25583 0.0
H82 H 0.81162 0.80125 0.18435 0.0
H83 H 0.73062 0.80487 0.18492 0.0
O84 O 0.79239 0.77265 0.29757 0.0
O85 O 0.74063 0.7751 0.29655 0.0
O86 O 0.74563 0.80106 0.25455 0.0
C87 C 0.73606 0.79533 0.28327 0.0
H88 H 0.73609 0.70963 0.38294 0.0
H89 H 0.79776 0.82476 0.12869 0.0
Co90 Co 0.25072 0.7845 0.25307 0.0
C91 C 0.28661 0.79902 0.30887 0.0
Co92 Co 0.27994 0.75939 0.26044 0.0
C93 C 0.19977 0.79928 0.24678 0.0
C94 C 0.23031 0.83061 0.2445 0.0
N95 N 0.22611 0.80555 0.2465 0.0
N96 N 0.18719 0.81951 0.24675 0.0
C97 C 0.20645 0.83926 0.2447 0.0
H98 H 0.19021 0.78028 0.24939 0.0
H99 H 0.24955 0.842 0.24548 0.0
C100 C 0.24377 0.74468 0.20488 0.0
N101 N 0.30448 0.73843 0.26693 0.0
C102 C 0.31797 0.72929 0.2421 0.0
C103 C 0.31154 0.72735 0.29587 0.0
N104 N 0.333 0.71271 0.25411 0.0
C105 C 0.32902 0.71126 0.28794 0.0
C106 C 0.2336 0.74358 0.29508 0.0
O107 O 0.235 0.76447 0.21419 0.0
O108 O 0.26425 0.73918 0.22095 0.0
O109 O 0.2564 0.73848 0.28901 0.0
O110 O 0.22709 0.76359 0.28285 0.0
O111 O 0.2953 0.77917 0.29961 0.0
H112 H 0.3038 0.73018 0.32077 0.0
H113 H 0.31567 0.73372 0.21529 0.0
O114 O 0.26647 0.80486 0.29233 0.0
O115 O 0.27414 0.80499 0.22368 0.0
O116 O 0.30391 0.78049 0.23159 0.0
C117 C 0.2972 0.80014 0.21845 0.0
H118 H 0.20394 0.85877 0.24695 0.0
H119 H 0.33763 0.69907 0.30538 0.0
Co120 Co 0.28573 0.76559 0.72238 0.0
C121 C 0.30057 0.80183 0.77534 0.0
Co122 Co 0.25989 0.76295 0.76571 0.0
C123 C 0.32058 0.78967 0.67455 0.0
C124 C 0.31746 0.74976 0.66981 0.0
N125 N 0.30791 0.76841 0.68662 0.0
N126 N 0.33803 0.7851 0.65134 0.0
C127 C 0.33615 0.76 0.6482 0.0
H128 H 0.31832 0.80818 0.68431 0.0
H129 H 0.31211 0.73005 0.67423 0.0
C130 C 0.24461 0.72697 0.71268 0.0
N131 N 0.23805 0.75943 0.8016 0.0
C132 C 0.22978 0.73742 0.81546 0.0
C133 C 0.22631 0.77636 0.81891 0.0
N134 N 0.21326 0.73967 0.84066 0.0
C135 C 0.21081 0.76415 0.84292 0.0
C136 C 0.24409 0.79326 0.71498 0.0
O137 O 0.2648 0.73784 0.69891 0.0
O138 O 0.23902 0.73492 0.74202 0.0
O139 O 0.23854 0.78444 0.74402 0.0
O140 O 0.2642 0.78747 0.70059 0.0
O141 O 0.28036 0.79083 0.78896 0.0
H142 H 0.22848 0.79611 0.81393 0.0
H143 H 0.23496 0.71983 0.80611 0.0
O144 O 0.3067 0.79364 0.74633 0.0
O145 O 0.30704 0.74369 0.74418 0.0
O146 O 0.28157 0.74142 0.78752 0.0
C147 C 0.30147 0.73517 0.77336 0.0
H148 H 0.3481 0.74985 0.63243 0.0
H149 H 0.19844 0.77253 0.86023 0.0
Co150 Co 0.26323 0.24947 0.77971 0.0
C151 C 0.30535 0.28963 0.78844 0.0
Co152 Co 0.26875 0.27447 0.73643 0.0
C153 C 0.28165 0.22363 0.83636 0.0
C154 C 0.23968 0.22169 0.83507 0.0
N155 N 0.26105 0.23009 0.81771 0.0
N156 N 0.27416 0.21175 0.86493 0.0
C157 C 0.24771 0.21042 0.86427 0.0
H158 H 0.30192 0.22858 0.82979 0.0
H159 H 0.21969 0.22428 0.82753 0.0
C160 C 0.22684 0.23413 0.72751 0.0
N161 N 0.27027 0.29383 0.69827 0.0
C162 C 0.24885 0.29714 0.67851 0.0
C163 C 0.29097 0.30547 0.68204 0.0
N164 N 0.25514 0.30979 0.65031 0.0
C165 C 0.28161 0.31558 0.65243 0.0
C166 C 0.29647 0.23428 0.7306 0.0
O167 O 0.23342 0.22873 0.75791 0.0
O168 O 0.23961 0.25299 0.71434 0.0
O169 O 0.29181 0.25422 0.7166 0.0
O170 O 0.28606 0.22849 0.75883 0.0
O171 O 0.29802 0.29541 0.75845 0.0
H172 H 0.31145 0.306 0.69065 0.0
H173 H 0.22879 0.29022 0.68451 0.0
O174 O 0.29306 0.27048 0.80172 0.0
O175 O 0.24074 0.27028 0.79994 0.0
O176 O 0.24545 0.29507 0.75668 0.0
C177 C 0.23561 0.28985 0.78538 0.0
H178 H 0.23512 0.2021 0.88356 0.0
H179 H 0.29326 0.32567 0.63355 0.0
Co180 Co 0.7539 0.27765 0.7488 0.0
C181 C 0.7882 0.2936 0.80573 0.0
Co182 Co 0.78343 0.2532 0.7587 0.0
C183 C 0.71636 0.30934 0.76315 0.0
C184 C 0.72394 0.30909 0.70965 0.0
N185 N 0.72944 0.29836 0.73949 0.0
N186 N 0.70343 0.327 0.74966 0.0
C187 C 0.7081 0.32703 0.71595 0.0
H188 H 0.71827 0.30606 0.79042 0.0
H189 H 0.73236 0.30533 0.68547 0.0
C190 C 0.74948 0.23717 0.70169 0.0
N191 N 0.8079 0.23274 0.76883 0.0
C192 C 0.82444 0.22428 0.7473 0.0
C193 C 0.81245 0.22206 0.79905 0.0
N194 N 0.83897 0.20857 0.76271 0.0
C195 C 0.83144 0.20685 0.7952 0.0
C196 C 0.73564 0.23762 0.79101 0.0
O197 O 0.73981 0.2567 0.70999 0.0
O198 O 0.76963 0.2322 0.71914 0.0
O199 O 0.75879 0.23282 0.78648 0.0
O200 O 0.72906 0.2572 0.77748 0.0
O201 O 0.79711 0.27367 0.79773 0.0
H202 H 0.80216 0.2247 0.82212 0.0
H203 H 0.82494 0.22862 0.72035 0.0
O204 O 0.76842 0.29907 0.78806 0.0
O205 O 0.77839 0.29781 0.72035 0.0
O206 O 0.8084 0.27389 0.73056 0.0
C207 C 0.80171 0.29319 0.71638 0.0
H208 H 0.7018 0.34001 0.69776 0.0
H209 H 0.83874 0.19507 0.81437 0.0
Co210 Co 0.75439 0.75161 0.75588 0.0
C211 C 0.74942 0.79313 0.79876 0.0
Co212 Co 0.78826 0.7815 0.75562 0.0
C213 C 0.72621 0.70235 0.7623 0.0
C214 C 0.7001 0.7287 0.75015 0.0
N215 N 0.72583 0.72661 0.7556 0.0
N216 N 0.70172 0.68919 0.76164 0.0
C217 C 0.68522 0.70571 0.75384 0.0
H218 H 0.74414 0.69461 0.76819 0.0
H219 H 0.69262 0.74597 0.74491 0.0
C220 C 0.79336 0.73996 0.71288 0.0
N221 N 0.81704 0.80632 0.75583 0.0
C222 C 0.81742 0.83079 0.74976 0.0
C223 C 0.8426 0.80336 0.76033 0.0
N224 N 0.84227 0.84324 0.75 0.0
C225 C 0.85814 0.82598 0.75679 0.0
C226 C 0.79479 0.74543 0.80406 0.0
O227 O 0.77098 0.73169 0.72402 0.0
O228 O 0.80406 0.76209 0.72227 0.0
O229 O 0.80574 0.76549 0.79152 0.0
O230 O 0.77135 0.73653 0.79332 0.0
O231 O 0.7724 0.80087 0.78899 0.0
H232 H 0.84954 0.7857 0.76469 0.0
H233 H 0.79979 0.83914 0.74452 0.0
O234 O 0.73796 0.77158 0.78781 0.0
O235 O 0.73746 0.76676 0.71866 0.0
O236 O 0.77054 0.79736 0.71956 0.0
C237 C 0.74765 0.78762 0.7075 0.0
H238 H 0.66388 0.70179 0.75262 0.0
H239 H 0.87948 0.82912 0.75731 0.0
Co240 Co 0.04414 0.95911 0.50777 0.0
Co241 Co 0.05449 0.99055 0.55894 0.0
Co242 Co 0.01884 1.01213 0.49922 0.0
O243 O 0.04919 0.99484 0.51263 0.0
H244 H 0.06538 1.00259 0.50336 0.0
O245 O 0.98789 0.02823 0.4856 0.0
Co246 Co 0.98582 0.062 0.49659 0.0
Co247 Co 0.98277 0.03559 0.44048 0.0
H248 H 0.97201 0.01769 0.49158 0.0
O249 O 0.08736 0.98691 0.57771 0.0
O250 O 0.05505 0.95618 0.5573 0.0
O251 O 0.02714 0.99861 0.58684 0.0
O252 O 0.99949 1.00431 0.54245 0.0
O253 O 0.03834 0.04315 0.52265 0.0
O254 O 0.9802 0.09246 0.50872 0.0
O255 O 0.95164 0.05633 0.50412 0.0
O256 O 0.02233 0.0718 0.49158 0.0
O257 O 0.03811 0.02042 0.45604 0.0
O258 O 1.0121 0.03254 0.41367 0.0
O259 O 0.97817 0.06868 0.44737 0.0
O260 O 0.94936 0.03767 0.42066 0.0
C261 C 0.06594 0.93353 0.49143 0.0
C262 C 0.99341 0.96131 0.49213 0.0
C263 C 1.00445 1.00169 0.57462 0.0
C264 C 0.07846 0.96322 0.57245 0.0
C265 C 0.95694 0.08003 0.51299 0.0
C266 C 0.03981 0.06543 0.51251 0.0
C267 C 0.03408 0.02695 0.42505 0.0
C268 C 0.95587 0.06121 0.42986 0.0
O269 O 0.04218 0.9267 0.501 0.0
O270 O 0.07686 0.95692 0.49531 0.0
O271 O 0.99949 0.98122 0.4761 0.0
O272 O 1.00812 0.95663 0.51773 0.0
Co273 Co 0.55257 0.97124 0.97185 0.0
Co274 Co 0.55194 0.9776 0.03846 0.0
Co275 Co 0.51813 0.01698 1.00438 0.0
O276 O 0.55009 0.9995 1.00287 0.0
H277 H 0.56618 1.01145 1.00386 0.0
O278 O 0.4862 0.03437 0.00623 0.0
Co279 Co 0.4846 0.06289 0.0371 0.0
Co280 Co 0.48395 0.05597 0.97066 0.0
H281 H 0.47008 0.0225 0.00575 0.0
O282 O 0.58409 0.96993 0.05459 0.0
O283 O 0.55682 0.95015 0.0117 0.0
O284 O 0.52114 0.96806 0.06307 0.0
O285 O 0.49541 0.99022 0.03288 0.0
O286 O 0.53465 0.03565 0.04706 0.0
O287 O 0.48056 0.08833 0.06554 0.0
O288 O 0.4489 0.05798 0.04341 0.0
O289 O 0.52148 0.07201 0.03585 0.0
O290 O 0.54078 0.0438 0.97571 0.0
O291 O 0.51448 0.06566 0.94588 0.0
O292 O 0.47853 0.08339 0.99704 0.0
O293 O 0.45156 0.06249 0.95454 0.0
C294 C 0.58237 0.95566 0.94835 0.0
C295 C 0.49873 0.97465 0.95776 0.0
C296 C 0.49843 0.9734 0.05514 0.0
C297 C 0.57834 0.95176 0.03147 0.0
C298 C 0.45579 0.07858 0.06252 0.0
C299 C 0.53821 0.05953 0.04954 0.0
C300 C 0.53736 0.06061 0.95354 0.0
C301 C 0.45671 0.08077 0.9776 0.0
O302 O 0.55763 0.94603 0.94343 0.0
O303 O 0.58854 0.97612 0.96793 0.0
O304 O 0.50158 0.99845 0.96159 0.0
O305 O 0.51564 0.96215 0.9709 0.0
Co306 Co 0.04947 0.4654 0.98863 0.0
Co307 Co 0.05766 0.48587 0.04911 0.0
Co308 Co 0.01784 0.51665 0.00592 0.0
O309 O 0.04988 0.49904 0.00736 0.0
H310 H 0.06528 0.51005 1.00089 0.0
O311 O 0.98565 0.5341 1.00436 0.0
Co312 Co 0.9852 0.56708 0.02467 0.0
Co313 Co 0.97863 0.54869 0.96353 0.0
H314 H 0.97016 0.52274 0.00973 0.0
O315 O 0.09164 0.48244 0.0633 0.0
O316 O 0.06131 0.45343 0.03463 0.0
O317 O 0.03086 0.48439 0.08154 0.0
O318 O 1.00188 0.50001 0.04685 0.0
O319 O 0.03867 0.54424 0.03606 0.0
O320 O 0.98198 0.59625 0.04544 0.0
O321 O 0.95113 0.56213 0.03717 0.0
O322 O 0.02146 0.57668 0.01573 0.0
O323 O 0.0339 0.53323 0.965 0.0
O324 O 1.00596 0.5514 0.93199 0.0
O325 O 0.97344 0.58034 0.9793 0.0
O326 O 0.94499 0.55111 0.94766 0.0
C327 C 0.07584 0.44614 0.96439 0.0
C328 C 0.99456 0.46587 0.98219 0.0
C329 C 1.00785 0.48945 0.07448 0.0
C330 C 0.08422 0.45951 0.05168 0.0
C331 C 0.9582 0.58506 0.04967 0.0
C332 C 0.04051 0.56762 0.03061 0.0
C333 C 0.02847 0.54501 0.93826 0.0
C334 C 0.95141 0.5739 0.96034 0.0
O335 O 0.05197 0.43551 0.96939 0.0
O336 O 0.0834 0.46931 0.97562 0.0
O337 O 0.99707 0.48911 0.97576 0.0
O338 O 1.01313 0.45679 0.9982 0.0
Co339 Co 0.55864 0.46902 0.0051 0.0
Co340 Co 0.55236 0.48893 0.06328 0.0
Co341 Co 0.51854 0.51409 1.00304 0.0
O342 O 0.55045 0.50043 0.01991 0.0
H343 H 0.56567 0.51313 0.01829 0.0
O344 O 0.48693 0.52832 0.98628 0.0
Co345 Co 0.4844 0.56242 0.99616 0.0
Co346 Co 0.48413 0.53579 0.94072 0.0
H347 H 0.47102 0.51748 0.99146 0.0
O348 O 0.5842 0.48902 0.08855 0.0
O349 O 0.56217 0.45806 0.05338 0.0
O350 O 0.5202 0.48742 0.08556 0.0
O351 O 0.49686 0.50292 0.04321 0.0
O352 O 0.53354 0.54528 0.0298 0.0
O353 O 0.47833 0.59287 0.00726 0.0
O354 O 0.4498 0.55677 1.00125 0.0
O355 O 0.52134 0.5725 0.99358 0.0
O356 O 0.54029 0.52516 0.96288 0.0
O357 O 0.51518 0.53336 0.91699 0.0
O358 O 0.47887 0.56891 0.94648 0.0
O359 O 0.45184 0.53776 0.91734 0.0
C360 C 0.59226 0.4571 0.99189 0.0
C361 C 0.50376 0.4603 0.98419 0.0
C362 C 0.4989 0.49381 0.07307 0.0
C363 C 0.5814 0.46609 0.07613 0.0
C364 C 0.45482 0.58051 0.01011 0.0
C365 C 0.53671 0.56707 0.01797 0.0
C366 C 0.53732 0.53028 0.9311 0.0
C367 C 0.4577 0.56132 0.92668 0.0
O368 O 0.57016 0.44163 0.99012 0.0
O369 O 0.59316 0.47979 1.00463 0.0
O370 O 0.50312 0.48288 0.97649 0.0
O371 O 0.52279 0.45394 1.00242 0.0
Co372 Co 0.06128 0.47715 0.50965 0.0
Co373 Co 0.05265 0.4907 0.44987 0.0
Co374 Co 1.01695 0.51779 0.50404 0.0
O375 O 0.03124 0.48742 0.48621 0.0
H376 H 1.01716 0.4735 0.4814 0.0
O377 O 1.00251 0.54801 0.52165 0.0
Co378 Co 0.96999 0.55619 0.50209 0.0
Co379 Co 0.98547 0.54489 0.56227 0.0
H380 H 1.01613 0.56253 0.52377 0.0
O381 O 0.0539 0.46426 0.41874 0.0
O382 O 0.08066 0.47543 0.46633 0.0
O383 O 0.06505 0.52433 0.43954 0.0
O384 O 0.0413 0.54376 0.47568 0.0
O385 O 0.98967 0.5119 0.46519 0.0
O386 O 0.9417 0.5664 0.48375 0.0
O387 O 0.97889 0.58983 0.50703 0.0
O388 O 0.95643 0.52181 0.49378 0.0
O389 O 0.99276 0.49194 0.53255 0.0
O390 O 0.97731 0.51146 0.57707 0.0
O391 O 0.9541 0.55592 0.54806 0.0
O392 O 0.98311 0.5728 0.59085 0.0
C393 C 0.07203 0.44405 0.5234 0.0
C394 C 0.06849 0.52601 0.53808 0.0
C395 C 0.05897 0.54433 0.4528 0.0
C396 C 0.07459 0.46141 0.43815 0.0
C397 C 0.95522 0.58822 0.49225 0.0
C398 C 0.96533 0.50818 0.47128 0.0
C399 C 0.97971 0.49142 0.56033 0.0
C400 C 0.96065 0.57239 0.57359 0.0
O401 O 0.08692 0.46516 0.53206 0.0
O402 O 0.04985 0.44387 0.50524 0.0
O403 O 0.04401 0.52378 0.54315 0.0
O404 O 0.07716 0.51083 0.51757 0.0
Co405 Co 0.57203 0.98267 0.52029 0.0
Co406 Co 0.55525 0.9872 0.46047 0.0
Co407 Co 0.51843 0.01718 0.50572 0.0
O408 O 0.53751 0.98704 0.49964 0.0
H409 H 0.52539 0.97157 0.50001 0.0
O410 O 0.49914 0.0472 0.51163 0.0
Co411 Co 0.46414 0.05095 0.49151 0.0
Co412 Co 0.48217 0.04785 0.55145 0.0
H413 H 0.51113 0.06268 0.51046 0.0
O414 O 0.55421 0.95806 0.43542 0.0
O415 O 0.58653 0.97659 0.47399 0.0
O416 O 0.55872 0.01832 0.4384 0.0
O417 O 0.52051 0.02717 0.4563 0.0
O418 O 0.48523 0.99346 0.4933 0.0
O419 O 0.43383 0.05702 0.47189 0.0
O420 O 0.4704 0.08479 0.48491 0.0
O421 O 0.45225 0.01614 0.49406 0.0
O422 O 0.51642 1.00718 0.55514 0.0
O423 O 0.47898 0.01706 0.57435 0.0
O424 O 0.45031 0.05741 0.53799 0.0
O425 O 0.48268 0.07767 0.57505 0.0
C426 C 0.58956 0.95337 0.53967 0.0
C427 C 0.57622 0.03863 0.52023 0.0
C428 C 0.54061 0.03197 0.4382 0.0
C429 C 0.5778 0.95917 0.45008 0.0
C430 C 0.44605 0.07986 0.47176 0.0
C431 C 0.46069 0.99517 0.49212 0.0
C432 C 0.49663 1.00291 0.57389 0.0
C433 C 0.45887 0.07562 0.5608 0.0
O434 O 0.60197 0.97616 0.54036 0.0
O435 O 0.56534 0.94876 0.52599 0.0
O436 O 0.55178 0.04086 0.5182 0.0
O437 O 0.58416 0.01742 0.51871 0.0
H438 H 0.22296 0.1619 0.2991 0.0
H439 H 0.20713 0.12132 0.3221 0.0
H440 H 0.13446 0.11732 0.25962 0.0
H441 H 0.15052 0.15745 0.23566 0.0
H442 H 0.1645 0.11751 0.35958 0.0
H443 H 0.14623 0.04497 0.25461 0.0
H444 H 0.1679 0.0742 0.25081 0.0
H445 H 0.13275 0.07244 0.24262 0.0
C446 C 0.20403 0.15198 0.28926 0.0
C447 C 0.18782 0.16303 0.26582 0.0
C448 C 0.19501 0.12878 0.30249 0.0
C449 C 0.16975 0.11617 0.29232 0.0
C450 C 0.15426 0.12642 0.26728 0.0
H451 H 0.03411 0.04303 0.35925 0.0
H452 H 0.07246 0.05776 0.32739 0.0
C453 C 0.16326 0.14958 0.25403 0.0
C454 C 0.15747 0.09518 0.31223 0.0
H455 H 0.11694 0.03914 0.30238 0.0
C456 C 0.1548 0.09996 0.34741 0.0
C457 C 0.14488 0.07236 0.29624 0.0
C458 C 0.14833 0.0656 0.25904 0.0
C459 C 0.13776 0.08371 0.36625 0.0
C460 C 0.12351 0.0618 0.34952 0.0
C461 C 0.12788 0.05597 0.31509 0.0
C462 C 0.10084 0.0475 0.36547 0.0
C463 C 0.13336 0.09132 0.40296 0.0
C464 C 0.10407 0.03575 0.39668 0.0
C465 C 0.08212 0.02754 0.41531 0.0
C466 C 0.05665 0.03085 0.40277 0.0
C467 C 0.05343 0.0405 0.36995 0.0
C468 C 0.07534 0.0488 0.35153 0.0
H469 H 0.14331 0.11058 0.41035 0.0
H470 H 0.11194 0.09042 0.4067 0.0
H471 H 0.14128 0.07824 0.42074 0.0
H472 H 0.12363 0.03421 0.40752 0.0
H473 H 0.08527 0.01984 0.44028 0.0
H474 H 0.84297 0.22705 0.27662 0.0
H475 H 0.86964 0.198 0.30269 0.0
H476 H 0.80982 0.17751 0.37456 0.0
H477 H 0.78324 0.20719 0.34915 0.0
H478 H 0.85903 0.18305 0.40599 0.0
H479 H 0.85597 0.1231 0.28723 0.0
H480 H 0.86908 0.15514 0.28082 0.0
H481 H 0.83526 0.14711 0.29157 0.0
C482 C 0.83543 0.21639 0.29798 0.0
C483 C 0.81083 0.21931 0.3106 0.0
C484 C 0.85067 0.19965 0.31275 0.0
C485 C 0.84151 0.1851 0.34009 0.0
C486 C 0.81724 0.18839 0.35332 0.0
H487 H 0.90634 0.05152 0.39819 0.0
H488 H 0.87797 0.08161 0.37937 0.0
C489 C 0.80205 0.20535 0.33875 0.0
C490 C 0.85723 0.16644 0.35469 0.0
H491 H 0.88654 0.11585 0.33263 0.0
C492 C 0.86493 0.16826 0.39001 0.0
C493 C 0.86461 0.14687 0.33398 0.0
C494 C 0.85558 0.14273 0.29639 0.0
C495 C 0.88021 0.15139 0.40499 0.0
C496 C 0.88852 0.1325 0.38393 0.0
C497 C 0.88042 0.13045 0.34876 0.0
C498 C 0.90532 0.11437 0.39765 0.0
C499 C 0.88684 0.15371 0.44333 0.0
C500 C 0.9302 0.12266 0.41435 0.0
C501 C 0.94644 0.10543 0.42542 0.0
C502 C 0.9383 0.07954 0.41952 0.0
C503 C 0.91332 0.0713 0.40302 0.0
C504 C 0.89704 0.08851 0.39223 0.0
H505 H 0.87272 0.16371 0.4569 0.0
H506 H 0.88677 0.13504 0.45446 0.0
H507 H 0.90684 0.16463 0.44835 0.0
H508 H 0.93736 0.14249 0.41815 0.0
H509 H 0.96557 0.11244 0.43798 0.0
H510 H 0.82932 0.83942 0.27495 0.0
H511 H 0.86206 0.86556 0.31405 0.0
H512 H 0.86309 0.80422 0.38195 0.0
H513 H 0.83034 0.778 0.34331 0.0
H514 H 0.85108 0.87255 0.39103 0.0
H515 H 0.94356 0.83441 0.36472 0.0
H516 H 0.91638 0.83258 0.33273 0.0
H517 H 0.91371 0.81277 0.3688 0.0
C518 C 0.83685 0.83138 0.2979 0.0
C519 C 0.82721 0.80671 0.30613 0.0
C520 C 0.85545 0.84632 0.3202 0.0
C521 C 0.86491 0.83669 0.3507 0.0
C522 C 0.85608 0.81184 0.35837 0.0
H523 H 0.98213 0.91164 0.50725 0.0
H524 H 0.94887 0.87978 0.47718 0.0
C525 C 0.83735 0.79696 0.3363 0.0
C526 C 0.8826 0.85317 0.37569 0.0
H527 H 0.94656 0.86684 0.40735 0.0
C528 C 0.87195 0.87131 0.39475 0.0
C529 C 0.90961 0.85106 0.38076 0.0
C530 C 0.92171 0.83175 0.36068 0.0
C531 C 0.88782 0.88784 0.41848 0.0
C532 C 0.91513 0.88649 0.42253 0.0
C533 C 0.9256 0.86779 0.40421 0.0
C534 C 0.93354 0.90574 0.44306 0.0
C535 C 0.87519 0.90659 0.43894 0.0
C536 C 0.93576 0.93079 0.43391 0.0
C537 C 0.95453 0.9489 0.45096 0.0
C538 C 0.97172 0.94231 0.47733 0.0
C539 C 0.96908 0.91729 0.48715 0.0
C540 C 0.9502 0.89909 0.46994 0.0
H541 H 0.8539 0.89986 0.44168 0.0
H542 H 0.88513 0.91052 0.46502 0.0
H543 H 0.87671 0.92438 0.42524 0.0
H544 H 0.92351 0.93624 0.41276 0.0
H545 H 0.95602 0.968 0.44278 0.0
H546 H 0.15813 0.78481 0.28419 0.0
H547 H 0.1258 0.79426 0.32358 0.0
H548 H 0.12587 0.86666 0.28027 0.0
H549 H 0.15793 0.85714 0.23969 0.0
H550 H 0.14994 0.83584 0.36601 0.0
H551 H 0.05031 0.84923 0.31412 0.0
H552 H 0.0702 0.8291 0.29279 0.0
H553 H 0.07684 0.86245 0.28888 0.0
C554 C 0.15048 0.80228 0.28155 0.0
C555 C 0.16163 0.82077 0.25971 0.0
C556 C 0.13184 0.80759 0.30427 0.0
C557 C 0.1239 0.83127 0.30518 0.0
C558 C 0.13179 0.84823 0.2799 0.0
H559 H 0.11139 0.94174 0.45726 0.0
H560 H 0.12621 0.91253 0.41581 0.0
C561 C 0.1504 0.84289 0.25702 0.0
C562 C 0.11405 0.84066 0.33712 0.0
H563 H 0.06581 0.87054 0.36831 0.0
C564 C 0.13125 0.84291 0.36678 0.0
C565 C 0.08984 0.84999 0.33779 0.0
C566 C 0.07059 0.84742 0.30677 0.0
C567 C 0.12541 0.85541 0.39674 0.0
C568 C 0.10184 0.86582 0.39684 0.0
C569 C 0.08397 0.86252 0.36784 0.0
C570 C 0.09607 0.88164 0.42597 0.0
C571 C 0.14476 0.85814 0.42771 0.0
C572 C 0.07497 0.87342 0.44604 0.0
C573 C 0.06664 0.8899 0.46985 0.0
C574 C 0.07906 0.91494 0.47341 0.0
C575 C 0.10147 0.92257 0.45505 0.0
C576 C 0.10989 0.90597 0.43134 0.0
H577 H 0.15937 0.84496 0.42587 0.0
H578 H 0.15562 0.87752 0.42963 0.0
H579 H 0.13423 0.85485 0.45172 0.0
H580 H 0.06424 0.85461 0.44216 0.0
H581 H 0.04945 0.88339 0.48389 0.0
H582 H 0.24361 0.8082 0.64825 0.0
H583 H 0.21492 0.83524 0.62095 0.0
H584 H 0.17817 0.84373 0.71689 0.0
H585 H 0.206 0.81601 0.7439 0.0
H586 H 0.14195 0.83634 0.66566 0.0
H587 H 0.22191 0.9098 0.62995 0.0
H588 H 0.22457 0.87945 0.61166 0.0
H589 H 0.22799 0.88494 0.65768 0.0
C590 C 0.22947 0.8159 0.66354 0.0
C591 C 0.22719 0.81003 0.6983 0.0
C592 C 0.21317 0.83151 0.64795 0.0
C593 C 0.19466 0.84197 0.66697 0.0
C594 C 0.1923 0.83597 0.70163 0.0
H595 H 0.12215 0.97146 0.61682 0.0
H596 H 0.14895 0.94107 0.63849 0.0
C597 C 0.2083 0.82014 0.71708 0.0
C598 C 0.17744 0.85892 0.65095 0.0
H599 H 0.1786 0.91337 0.60848 0.0
C600 C 0.14998 0.85322 0.65319 0.0
C601 C 0.18786 0.88112 0.63501 0.0
C602 C 0.2172 0.88937 0.6337 0.0
C603 C 0.13271 0.86912 0.64032 0.0
C604 C 0.14308 0.891 0.62357 0.0
C605 C 0.17054 0.89654 0.62103 0.0
C606 C 0.12613 0.90919 0.61024 0.0
C607 C 0.10368 0.8627 0.64608 0.0
C608 C 0.10425 0.90157 0.58697 0.0
C609 C 0.0884 0.91893 0.57514 0.0
C610 C 0.0946 0.94442 0.58544 0.0
C611 C 0.11678 0.95203 0.60821 0.0
C612 C 0.13223 0.93462 0.62059 0.0
H613 H 0.10019 0.84992 0.66769 0.0
H614 H 0.09477 0.87979 0.65176 0.0
H615 H 0.09333 0.85302 0.62252 0.0
H616 H 0.09947 0.88223 0.57775 0.0
H617 H 0.07149 0.91238 0.55766 0.0
H618 H 0.22248 0.22849 0.65801 0.0
H619 H 0.18902 0.20116 0.62235 0.0
H620 H 0.14938 0.17706 0.71323 0.0
H621 H 0.18412 0.20335 0.7494 0.0
H622 H 0.14979 0.13899 0.67349 0.0
H623 H 0.11745 0.21114 0.59132 0.0
H624 H 0.15214 0.21129 0.58832 0.0
H625 H 0.13945 0.21912 0.62901 0.0
C626 C 0.20653 0.21748 0.67042 0.0
C627 C 0.20575 0.21813 0.70646 0.0
C628 C 0.18723 0.20204 0.64993 0.0
C629 C 0.16613 0.18759 0.6649 0.0
C630 C 0.16532 0.1882 0.70101 0.0
H631 H 0.03292 0.11259 0.53267 0.0
H632 H 0.06271 0.14218 0.57076 0.0
C633 C 0.18511 0.2032 0.72166 0.0
C634 C 0.14587 0.17088 0.64283 0.0
H635 H 0.10725 0.16857 0.56824 0.0
C636 C 0.1402 0.14556 0.65075 0.0
C637 C 0.13281 0.17944 0.61351 0.0
C638 C 0.13557 0.2068 0.60534 0.0
C639 C 0.12257 0.12847 0.62967 0.0
C640 C 0.11131 0.13661 0.59874 0.0
C641 C 0.1163 0.1621 0.59144 0.0
C642 C 0.09391 0.11917 0.57399 0.0
C643 C 0.11584 0.10204 0.64137 0.0
C644 C 0.10178 0.09674 0.56203 0.0
C645 C 0.08447 0.07953 0.541 0.0
C646 C 0.05943 0.08492 0.53035 0.0
C647 C 0.05223 0.10807 0.5403 0.0
C648 C 0.06922 0.12494 0.5622 0.0
H649 H 0.11837 0.10135 0.66985 0.0
H650 H 0.0952 0.0939 0.63323 0.0
H651 H 0.12939 0.09019 0.63015 0.0
H652 H 0.12113 0.09228 0.56949 0.0
H653 H 0.09051 0.06185 0.53341 0.0
H654 H 0.8396 0.15913 0.76792 0.0
H655 H 0.86055 0.13268 0.72849 0.0
H656 H 0.89568 0.19861 0.67878 0.0
H657 H 0.87464 0.2249 0.71787 0.0
H658 H 0.84757 0.13713 0.65344 0.0
H659 H 0.95506 0.15283 0.69002 0.0
H660 H 0.93036 0.15674 0.72037 0.0
H661 H 0.93952 0.18056 0.69033 0.0
C662 C 0.85258 0.16788 0.74934 0.0
C663 C 0.85561 0.19387 0.74555 0.0
C664 C 0.86435 0.15286 0.72685 0.0
C665 C 0.87961 0.16385 0.70105 0.0
C666 C 0.88417 0.18993 0.69891 0.0
H667 H 0.95593 0.12999 0.52211 0.0
H668 H 0.93214 0.14954 0.56569 0.0
C669 C 0.87216 0.20486 0.72101 0.0
C670 C 0.88777 0.14838 0.67319 0.0
H671 H 0.94203 0.13646 0.63305 0.0
C672 C 0.86818 0.13653 0.6491 0.0
C673 C 0.91462 0.14802 0.66784 0.0
C674 C 0.93616 0.16004 0.69362 0.0
C675 C 0.87492 0.12524 0.6186 0.0
C676 C 0.90186 0.12562 0.6127 0.0
C677 C 0.92137 0.13662 0.63754 0.0
C678 C 0.91065 0.11456 0.58119 0.0
C679 C 0.85331 0.11395 0.59242 0.0
C680 C 0.9052 0.08864 0.57444 0.0
C681 C 0.9185 0.07749 0.54931 0.0
C682 C 0.93773 0.09215 0.5313 0.0
C683 C 0.94139 0.1183 0.53598 0.0
C684 C 0.92787 0.12945 0.56081 0.0
H685 H 0.83431 0.12072 0.59694 0.0
H686 H 0.85883 0.11838 0.56586 0.0
H687 H 0.85019 0.09329 0.59423 0.0
H688 H 0.89224 0.07686 0.59027 0.0
H689 H 0.91538 0.05725 0.54624 0.0
H690 H 0.81455 0.87114 0.70883 0.0
H691 H 0.83175 0.91064 0.68376 0.0
H692 H 0.90609 0.91153 0.74138 0.0
H693 H 0.8887 0.87269 0.76776 0.0
H694 H 0.89188 0.95979 0.73322 0.0
H695 H 0.88383 0.90337 0.60941 0.0
H696 H 0.85377 0.90449 0.63061 0.0
H697 H 0.87911 0.88901 0.6502 0.0
C698 C 0.83427 0.88008 0.71703 0.0
C699 C 0.85049 0.86843 0.73975 0.0
C700 C 0.84411 0.90259 0.70245 0.0
C701 C 0.87035 0.91364 0.71014 0.0
C702 C 0.88582 0.90318 0.73493 0.0
H703 H 1.00582 0.99114 0.64289 0.0
H704 H 0.96829 0.97733 0.67665 0.0
C705 C 0.87596 0.88081 0.74967 0.0
C706 C 0.88309 0.93391 0.68939 0.0
H707 H 0.90751 0.94351 0.61043 0.0
C708 C 0.89487 0.95652 0.70616 0.0
C709 C 0.88688 0.92957 0.65407 0.0
C710 C 0.87543 0.90528 0.63492 0.0
C711 C 0.91155 0.97435 0.68896 0.0
C712 C 0.91673 0.9692 0.65435 0.0
C713 C 0.90341 0.94745 0.63695 0.0
C714 C 0.93882 0.98357 0.63722 0.0
C715 C 0.92415 0.99811 0.70831 0.0
C716 C 0.93479 0.99212 0.60397 0.0
C717 C 0.95629 0.99974 0.5843 0.0
C718 C 0.98218 0.99873 0.59752 0.0
C719 C 0.98617 0.99203 0.63181 0.0
C720 C 0.96468 0.98438 0.65137 0.0
H721 H 0.91126 1.00365 0.72835 0.0
H722 H 0.943 0.99489 0.72153 0.0
H723 H 0.9284 1.01378 0.69072 0.0
H724 H 0.91497 0.99149 0.59251 0.0
H725 H 0.9525 1.00504 0.5581 0.0
H726 H 0.33968 0.2484 0.19858 0.0
H727 H 0.36522 0.21928 0.17098 0.0
H728 H 0.29454 0.16578 0.15136 0.0
H729 H 0.26879 0.19471 0.17931 0.0
H730 H 0.36687 0.16771 0.19441 0.0
H731 H 0.33229 0.17035 0.05676 0.0
H732 H 0.32957 0.19531 0.0878 0.0
H733 H 0.30745 0.16635 0.0879 0.0
C734 C 0.32941 0.23062 0.18794 0.0
C735 C 0.30207 0.22402 0.19115 0.0
C736 C 0.34411 0.21392 0.17223 0.0
C737 C 0.33184 0.19036 0.15884 0.0
C738 C 0.30444 0.18395 0.16111 0.0
H739 H 0.40103 0.06796 0.05798 0.0
H740 H 0.36969 0.09332 0.08208 0.0
C741 C 0.28974 0.20054 0.17717 0.0
C742 C 0.34805 0.17199 0.14467 0.0
H743 H 0.36235 0.14254 0.07032 0.0
C744 C 0.36578 0.16212 0.16727 0.0
C745 C 0.3465 0.16446 0.10933 0.0
C746 C 0.32808 0.1747 0.08382 0.0
C747 C 0.38195 0.14506 0.15559 0.0
C748 C 0.38103 0.13805 0.12004 0.0
C749 C 0.36299 0.14764 0.0975 0.0
C750 C 0.39975 0.12208 0.10569 0.0
C751 C 0.39972 0.13451 0.18168 0.0
C752 C 0.42707 0.12971 0.11065 0.0
C753 C 0.44489 0.11513 0.0975 0.0
C754 C 0.43604 0.09255 0.07841 0.0
C755 C 0.40862 0.08497 0.07299 0.0
C756 C 0.39067 0.0996 0.0865 0.0
H757 H 0.39205 0.13498 0.20782 0.0
H758 H 0.40191 0.1149 0.17448 0.0
H759 H 0.41955 0.14605 0.18304 0.0
H760 H 0.43472 0.14723 0.12445 0.0
H761 H 0.46578 0.12193 0.10186 0.0
H762 H 0.80938 0.33312 0.15168 0.0
H763 H 0.83652 0.37141 0.13509 0.0
H764 H 0.90371 0.33227 0.13065 0.0
H765 H 0.87681 0.29392 0.14823 0.0
H766 H 0.88892 0.38934 0.18099 0.0
H767 H 0.8967 0.37726 0.03926 0.0
H768 H 0.86848 0.36262 0.0609 0.0
H769 H 0.89922 0.35072 0.0655 0.0
C770 C 0.82986 0.33258 0.14676 0.0
C771 C 0.84115 0.31069 0.15178 0.0
C772 C 0.84523 0.3544 0.13718 0.0
C773 C 0.87198 0.35451 0.13195 0.0
C774 C 0.88297 0.33232 0.13454 0.0
H775 H 1.01048 0.4592 0.12931 0.0
H776 H 0.97383 0.43012 0.14879 0.0
C777 C 0.8676 0.31046 0.14435 0.0
C778 C 0.88898 0.37835 0.12727 0.0
H779 H 0.92327 0.41214 0.06774 0.0
C780 C 0.89633 0.39453 0.15623 0.0
C781 C 0.89822 0.38488 0.09488 0.0
C782 C 0.89025 0.36811 0.06316 0.0
C783 C 0.91355 0.41697 0.15376 0.0
C784 C 0.92349 0.42314 0.12156 0.0
C785 C 0.91543 0.40729 0.09239 0.0
C786 C 0.94392 0.44484 0.11763 0.0
C787 C 0.92123 0.43379 0.18548 0.0
C788 C 0.93892 0.46344 0.09504 0.0
C789 C 0.95978 0.48014 0.08388 0.0
C790 C 0.98598 0.47809 0.09471 0.0
C791 C 0.99058 0.46115 0.12024 0.0
C792 C 0.96964 0.44454 0.1315 0.0
H793 H 0.90723 0.42951 0.20604 0.0
H794 H 0.94116 0.43105 0.19572 0.0
H795 H 0.92204 0.45378 0.1792 0.0
H796 H 0.91911 0.4639 0.08418 0.0
H797 H 0.95548 0.49317 0.06455 0.0
H798 H 0.76305 0.81646 0.07982 0.0
H799 H 0.7325 0.83012 0.0359 0.0
H800 H 0.68755 0.85655 0.1164 0.0
H801 H 0.7175 0.84259 0.15986 0.0
H802 H 0.65665 0.82705 0.06447 0.0
H803 H 0.72705 0.90217 0.00985 0.0
H804 H 0.7346 0.87069 0.01023 0.0
H805 H 0.7352 0.88855 0.05002 0.0
C806 C 0.74676 0.82545 0.08794 0.0
C807 C 0.74252 0.82851 0.12315 0.0
C808 C 0.72935 0.83316 0.06291 0.0
C809 C 0.70779 0.84432 0.07293 0.0
C810 C 0.70391 0.84771 0.1081 0.0
H811 H 0.62784 0.95427 0.06112 0.0
H812 H 0.65805 0.92397 0.0556 0.0
C813 C 0.72102 0.83981 0.13292 0.0
C814 C 0.6889 0.85299 0.0477 0.0
H815 H 0.68201 0.90428 1.00137 0.0
C816 C 0.66208 0.84352 0.04971 0.0
C817 C 0.69624 0.87406 0.02787 0.0
C818 C 0.7248 0.88463 0.02422 0.0
C819 C 0.64237 0.85673 0.03695 0.0
C820 C 0.64988 0.8796 0.02091 0.0
C821 C 0.67647 0.88693 0.01423 0.0
C822 C 0.63221 0.89886 0.01971 0.0
C823 C 0.61406 0.84763 0.0444 0.0
C824 C 0.60764 0.89491 1.00117 0.0
C825 C 0.58988 0.91198 0.00514 0.0
C826 C 0.59678 0.93352 0.02697 0.0
C827 C 0.62179 0.9378 0.04435 0.0
C828 C 0.63925 0.92063 0.04083 0.0
H829 H 0.61203 0.83044 0.05954 0.0
H830 H 0.6058 0.86238 0.05899 0.0
H831 H 0.60203 0.84333 0.01981 0.0
H832 H 0.60199 0.87845 0.9843 0.0
H833 H 0.57077 0.90826 0.99122 0.0
H834 H 0.25041 0.69629 0.18837 0.0
H835 H 0.22033 0.66514 0.15249 0.0
H836 H 0.17124 0.72109 0.12784 0.0
H837 H 0.20111 0.75228 0.16347 0.0
H838 H 0.16681 0.65134 0.16549 0.0
H839 H 0.17633 0.68602 0.03361 0.0
H840 H 0.20075 0.69602 0.06843 0.0
H841 H 0.17072 0.70944 0.06505 0.0
C842 C 0.23356 0.70213 0.17466 0.0
C843 C 0.22823 0.72684 0.17882 0.0
C844 C 0.21632 0.68426 0.15425 0.0
C845 C 0.19362 0.69079 0.13718 0.0
C846 C 0.18884 0.71567 0.1402 0.0
H847 H 0.04864 0.61897 0.03235 0.0
H848 H 0.08711 0.64733 0.0569 0.0
C849 C 0.20594 0.73349 0.16075 0.0
C850 C 0.17359 0.67124 0.11906 0.0
H851 H 0.13892 0.65538 0.04201 0.0
C852 C 0.16094 0.65201 0.13837 0.0
C853 C 0.1658 0.67223 0.08374 0.0
C854 C 0.17925 0.6919 0.06136 0.0
C855 C 0.14008 0.63433 0.12375 0.0
C856 C 0.13201 0.63549 0.0885 0.0
C857 C 0.14505 0.65444 0.06899 0.0
C858 C 0.10931 0.61793 0.07187 0.0
C859 C 0.12614 0.61528 0.14667 0.0
C860 C 0.1091 0.59188 0.07128 0.0
C861 C 0.08697 0.57553 0.05746 0.0
C862 C 0.06466 0.58489 0.04352 0.0
C863 C 0.06537 0.61103 0.04296 0.0
C864 C 0.08742 0.62732 0.05697 0.0
H865 H 0.13009 0.62095 0.17438 0.0
H866 H 0.10447 0.61245 0.14071 0.0
H867 H 0.1333 0.59709 0.14238 0.0
H868 H 0.126 0.58415 0.08177 0.0
H869 H 0.0873 0.55555 0.05795 0.0
H870 H 0.34888 0.82524 0.75884 0.0
H871 H 0.37705 0.85963 0.7911 0.0
H872 H 0.31699 0.86278 0.86386 0.0
H873 H 0.28897 0.82794 0.83234 0.0
H874 H 0.37054 0.90819 0.80959 0.0
H875 H 0.38045 0.85131 0.92492 0.0
H876 H 0.36615 0.83771 0.88401 0.0
H877 H 0.34722 0.85474 0.91133 0.0
C878 C 0.34163 0.8333 0.78165 0.0
C879 C 0.3169 0.82365 0.79337 0.0
C880 C 0.35769 0.853 0.79996 0.0
C881 C 0.34924 0.86344 0.83014 0.0
C882 C 0.32408 0.8546 0.84104 0.0
H883 H 0.4522 0.99151 0.93875 0.0
H884 H 0.41282 0.9671 0.90881 0.0
C885 C 0.30811 0.83474 0.82295 0.0
C886 C 0.36746 0.88265 0.85099 0.0
H887 H 0.40326 0.89233 0.92791 0.0
C888 C 0.37755 0.90491 0.8356 0.0
C889 C 0.37655 0.87816 0.88485 0.0
C890 C 0.36725 0.85413 0.90225 0.0
C891 C 0.39728 0.92244 0.85275 0.0
C892 C 0.40673 0.91766 0.8863 0.0
C893 C 0.39581 0.89592 0.9022 0.0
C894 C 0.43018 0.93309 0.90375 0.0
C895 C 0.4088 0.94524 0.83424 0.0
C896 C 0.45273 0.92195 0.91105 0.0
C897 C 0.47495 0.93563 0.92828 0.0
C898 C 0.47517 0.96084 0.93853 0.0
C899 C 0.45265 0.97216 0.93092 0.0
C900 C 0.43021 0.95829 0.91378 0.0
H901 H 0.40228 0.94405 0.80646 0.0
H902 H 0.40243 0.96213 0.84613 0.0
H903 H 0.4307 0.94773 0.83662 0.0
H904 H 0.45311 0.90254 0.90341 0.0
H905 H 0.49199 0.92637 0.93354 0.0
H906 H 0.21202 0.28372 0.84664 0.0
H907 H 0.1864 0.31192 0.8758 0.0
H908 H 0.19729 0.36296 0.79317 0.0
H909 H 0.22265 0.33462 0.76348 0.0
H910 H 0.20045 0.36059 0.90011 0.0
H911 H 0.11784 0.35429 0.8006 0.0
H912 H 0.14181 0.33299 0.80061 0.0
H913 H 0.14982 0.3639 0.78473 0.0
C914 C 0.20884 0.30085 0.83445 0.0
C915 C 0.21929 0.30676 0.8025 0.0
C916 C 0.19423 0.31704 0.85129 0.0
C917 C 0.18958 0.3395 0.8366 0.0
C918 C 0.20012 0.34555 0.80479 0.0
H919 H 0.12786 0.46082 0.94998 0.0
H920 H 0.15665 0.43625 0.91924 0.0
C921 C 0.21472 0.32933 0.78786 0.0
C922 C 0.1739 0.35654 0.85483 0.0
H923 H 0.11778 0.38364 0.84706 0.0
C924 C 0.18241 0.36569 0.88846 0.0
C925 C 0.15017 0.36303 0.83987 0.0
C926 C 0.13917 0.35289 0.80461 0.0
C927 C 0.16791 0.38104 0.90743 0.0
C928 C 0.14441 0.38782 0.89224 0.0
C929 C 0.13593 0.3787 0.85862 0.0
C930 C 0.12741 0.40303 0.9114 0.0
C931 C 0.17744 0.38923 0.94397 0.0
C932 C 0.10129 0.39278 0.91688 0.0
C933 C 0.08484 0.40676 0.93426 0.0
C934 C 0.09397 0.43151 0.94649 0.0
C935 C 0.12017 0.44183 0.94101 0.0
C936 C 0.13671 0.42774 0.92359 0.0
H937 H 0.19226 0.37794 0.95438 0.0
H938 H 0.1868 0.40912 0.94465 0.0
H939 H 0.16071 0.38771 0.96111 0.0
H940 H 0.09359 0.37381 0.90777 0.0
H941 H 0.06482 0.3981 0.93793 0.0
H942 H 0.68183 0.23687 0.79749 0.0
H943 H 0.65084 0.20614 0.82603 0.0
H944 H 0.71464 0.16637 0.85622 0.0
H945 H 0.74558 0.19687 0.82781 0.0
H946 H 0.63787 0.15414 0.81303 0.0
H947 H 0.67967 0.1717 0.94744 0.0
H948 H 0.6882 0.19321 0.91387 0.0
H949 H 0.70297 0.16513 0.91682 0.0
C950 C 0.68939 0.22176 0.8105 0.0
C951 C 0.7165 0.21973 0.81029 0.0
C952 C 0.67153 0.20402 0.82684 0.0
C953 C 0.68012 0.18379 0.84404 0.0
C954 C 0.70722 0.18186 0.844 0.0
H955 H 0.59231 0.05949 0.95967 0.0
H956 H 0.62757 0.08746 0.93314 0.0
C957 C 0.72502 0.19942 0.82744 0.0
C958 C 0.66071 0.16431 0.86064 0.0
H959 H 0.64559 0.13718 0.93735 0.0
C960 C 0.63962 0.15058 0.84026 0.0
C961 C 0.66283 0.15896 0.89616 0.0
C962 C 0.68448 0.17312 0.92001 0.0
C963 C 0.62103 0.13197 0.85398 0.0
C964 C 0.62258 0.12712 0.88975 0.0
C965 C 0.64397 0.14056 0.91007 0.0
C966 C 0.60137 0.10948 0.90653 0.0
C967 C 0.60023 0.11722 0.82941 0.0
C968 C 0.57466 0.11234 0.90148 0.0
C969 C 0.5546 0.09626 0.91619 0.0
C970 C 0.5601 0.07664 0.93739 0.0
C971 C 0.58695 0.07399 0.94331 0.0
C972 C 0.60724 0.09018 0.92815 0.0
H973 H 0.60726 0.1162 0.80296 0.0
H974 H 0.59445 0.09785 0.83782 0.0
H975 H 0.58248 0.12674 0.82805 0.0
H976 H 0.56915 0.12738 0.88627 0.0
H977 H 0.53449 0.09962 0.91109 0.0
H978 H 0.77639 0.71054 0.85018 0.0
H979 H 0.80199 0.68436 0.88462 0.0
H980 H 0.87335 0.7194 0.84157 0.0
H981 H 0.84814 0.7467 0.80933 0.0
H982 H 0.82668 0.65016 0.86866 0.0
H983 H 0.90225 0.72038 0.9362 0.0
H984 H 0.87414 0.72921 0.9125 0.0
H985 H 0.90337 0.7244 0.89084 0.0
C986 C 0.79764 0.71308 0.84883 0.0
C987 C 0.81025 0.73102 0.82746 0.0
C988 C 0.81232 0.69798 0.86839 0.0
C989 C 0.83992 0.70005 0.86654 0.0
C990 C 0.85239 0.71793 0.84491 0.0
H991 H 0.92453 0.57487 0.89858 0.0
H992 H 0.89783 0.6057 0.87834 0.0
C993 C 0.83785 0.73349 0.82615 0.0
C994 C 0.85528 0.68231 0.88494 0.0
H995 H 0.91357 0.6786 0.93026 0.0
C996 C 0.84548 0.65656 0.88257 0.0
C997 C 0.87963 0.69029 0.90401 0.0
C998 C 0.89024 0.71761 0.91137 0.0
C999 C 0.85956 0.63872 0.89742 0.0
C1000 C 0.88505 0.64651 0.91363 0.0
C1001 C 0.89439 0.67232 0.91725 0.0
C1002 C 0.90249 0.62821 0.92601 0.0
C1003 C 0.84647 0.61175 0.89602 0.0
C1004 C 0.91582 0.6312 0.95889 0.0
C1005 C 0.93221 0.61397 0.97006 0.0
C1006 C 0.93512 0.59308 0.9489 0.0
C1007 C 0.9222 0.5904 0.9159 0.0
C1008 C 0.90661 0.60797 0.90438 0.0
H1009 H 0.82464 0.61046 0.89572 0.0
H1010 H 0.8512 0.60231 0.87188 0.0
H1011 H 0.85313 0.6015 0.91832 0.0
H1012 H 0.91339 0.64675 0.97609 0.0
H1013 H 0.94213 0.61674 0.99544 0.0
H1014 H 0.1889 0.27652 0.18273 0.0
H1015 H 0.16216 0.3028 0.15039 0.0
H1016 H 0.23077 0.35851 0.14319 0.0
H1017 H 0.25772 0.33236 0.17561 0.0
H1018 H 0.15483 0.35155 0.17201 0.0
H1019 H 0.197 0.35176 0.04362 0.0
H1020 H 0.20189 0.32852 0.07474 0.0
H1021 H 0.22089 0.35927 0.07935 0.0
C1022 C 0.19848 0.29414 0.17373 0.0
C1023 C 0.22558 0.3022 0.18172 0.0
C1024 C 0.18309 0.30921 0.1553 0.0
C1025 C 0.19442 0.33258 0.144 0.0
C1026 C 0.2216 0.34039 0.15105 0.0
H1027 H 0.12744 0.46499 0.09696 0.0
H1028 H 0.15297 0.43301 0.11685 0.0
C1029 C 0.23701 0.3254 0.1697 0.0
C1030 C 0.17743 0.34952 0.12725 0.0
H1031 H 0.16787 0.3814 0.05404 0.0
C1032 C 0.15757 0.35787 0.14611 0.0
C1033 C 0.18083 0.35775 0.09335 0.0
C1034 C 0.20114 0.34874 0.07137 0.0
C1035 C 0.14166 0.37472 0.13246 0.0
C1036 C 0.14557 0.3835 0.09901 0.0
C1037 C 0.1649 0.37468 0.0797 0.0
C1038 C 0.1307 0.40296 0.0848 0.0
C1039 C 0.12089 0.38332 0.15405 0.0
C1040 C 0.10984 0.39681 0.0596 0.0
C1041 C 0.09489 0.41514 0.04822 0.0
C1042 C 0.10074 0.44002 0.06159 0.0
C1043 C 0.12223 0.44611 0.08602 0.0
C1044 C 0.13691 0.42782 0.09754 0.0
H1045 H 0.11726 0.37172 0.17684 0.0
H1046 H 0.12745 0.40303 0.16325 0.0
H1047 H 0.10202 0.38268 0.13841 0.0
H1048 H 0.10474 0.37773 0.04934 0.0
H1049 H 0.0786 0.40978 0.02929 0.0
H1050 H 0.16392 0.73664 0.86327 0.0
H1051 H 0.13687 0.69863 0.88151 0.0
H1052 H 0.20264 0.65801 0.8727 0.0
H1053 H 0.22999 0.69598 0.8555 0.0
H1054 H 0.1491 0.64115 0.82943 0.0
H1055 H 0.14523 0.65317 0.9718 0.0
H1056 H 0.14241 0.67993 0.94612 0.0
H1057 H 0.17292 0.66749 0.9489 0.0
C1058 C 0.17283 0.71984 0.86629 0.0
C1059 C 0.19891 0.71913 0.85748 0.0
C1060 C 0.15737 0.69817 0.8765 0.0
C1061 C 0.16788 0.67569 0.87811 0.0
C1062 C 0.1943 0.67527 0.87139 0.0
H1063 H 0.08041 0.53941 0.94775 0.0
H1064 H 0.11767 0.56725 0.92748 0.0
C1065 C 0.20978 0.6969 0.86144 0.0
C1066 C 0.15059 0.65212 0.88332 0.0
H1067 H 0.11667 0.61922 0.94395 0.0
C1068 C 0.14215 0.63612 0.85447 0.0
C1069 C 0.14195 0.64579 0.91607 0.0
C1070 C 0.15111 0.66234 0.94768 0.0
C1071 C 0.12432 0.61413 0.85741 0.0
C1072 C 0.11488 0.60825 0.88997 0.0
C1073 C 0.12412 0.62383 0.91902 0.0
C1074 C 0.09365 0.58735 0.89439 0.0
C1075 C 0.11541 0.59756 0.82576 0.0
C1076 C 0.06802 0.58873 0.88099 0.0
C1077 C 0.04659 0.57294 0.8926 0.0
C1078 C 0.05059 0.55575 0.91802 0.0
C1079 C 0.07657 0.55265 0.92849 0.0
C1080 C 0.09794 0.56852 0.91696 0.0
H1081 H 0.12932 0.6011 0.80495 0.0
H1082 H 0.11347 0.57748 0.83195 0.0
H1083 H 0.09578 0.60142 0.81588 0.0
H1084 H 0.06438 0.60335 0.86375 0.0
H1085 H 0.02687 0.57568 0.8838 0.0
H1086 H 0.26598 0.2072 0.93308 0.0
H1087 H 0.29623 0.19342 0.97715 0.0
H1088 H 0.35125 0.18383 0.89954 0.0
H1089 H 0.32136 0.19713 0.85585 0.0
H1090 H 0.31393 0.14811 0.97908 0.0
H1091 H 0.39947 0.22196 0.9757 0.0
H1092 H 0.36676 0.22633 0.95977 0.0
H1093 H 0.38814 0.21206 0.93238 0.0
C1094 C 0.28455 0.20215 0.92554 0.0
C1095 C 0.29141 0.20345 0.89104 0.0
C1096 C 0.30188 0.19457 0.95076 0.0
C1097 C 0.32632 0.18844 0.94176 0.0
C1098 C 0.33296 0.18946 0.9073 0.0
H1099 H 0.40713 0.07626 0.94765 0.0
H1100 H 0.37491 0.10436 0.95415 0.0
C1101 C 0.31576 0.19694 0.88227 0.0
C1102 C 0.34407 0.17816 0.96682 0.0
H1103 H 0.41002 0.17889 0.98218 0.0
C1104 C 0.33489 0.15522 0.98096 0.0
C1105 C 0.37123 0.18786 0.97062 0.0
C1106 C 0.38186 0.21358 0.95912 0.0
C1107 C 0.35264 0.13999 0.99394 0.0
C1108 C 0.38008 0.14783 0.99191 0.0
C1109 C 0.38902 0.17244 0.98286 0.0
C1110 C 0.39903 0.12967 0.99163 0.0
C1111 C 0.34168 0.11495 0.00737 0.0
C1112 C 0.42394 0.13505 0.00926 0.0
C1113 C 0.44296 0.11938 1.00447 0.0
C1114 C 0.43718 0.0979 0.9824 0.0
C1115 C 0.41221 0.09255 0.96501 0.0
C1116 C 0.39349 0.10838 0.96929 0.0
H1117 H 0.32487 0.11694 0.02356 0.0
H1118 H 0.33395 0.10185 0.98537 0.0
H1119 H 0.35677 0.10669 0.02284 0.0
H1120 H 0.42884 0.15159 0.02619 0.0
H1121 H 0.46214 0.12411 0.018 0.0
H1122 H 0.82612 0.28412 0.85309 0.0
H1123 H 0.85698 0.31448 0.88848 0.0
H1124 H 0.81667 0.37413 0.85236 0.0
H1125 H 0.78531 0.34365 0.81702 0.0
H1126 H 0.88999 0.35193 0.85994 0.0
H1127 H 0.82992 0.39261 0.95544 0.0
H1128 H 0.81835 0.36351 0.93148 0.0
H1129 H 0.81758 0.39286 0.91136 0.0
C1130 C 0.82336 0.30362 0.85325 0.0
C1131 C 0.80325 0.31144 0.83209 0.0
C1132 C 0.84111 0.32099 0.87349 0.0
C1133 C 0.8392 0.34662 0.8732 0.0
C1134 C 0.81833 0.35442 0.85348 0.0
H1135 H 0.95045 0.47815 0.94756 0.0
H1136 H 0.91206 0.44965 0.92251 0.0
C1137 C 0.80041 0.33697 0.83324 0.0
C1138 C 0.86072 0.36508 0.8906 0.0
H1139 H 0.87439 0.41211 0.95288 0.0
C1140 C 0.88655 0.365 0.88037 0.0
C1141 C 0.85624 0.38231 0.91705 0.0
C1142 C 0.82907 0.3828 0.92977 0.0
C1143 C 0.90795 0.38162 0.8957 0.0
C1144 C 0.90358 0.39861 0.92246 0.0
C1145 C 0.87772 0.39899 0.93247 0.0
C1146 C 0.92578 0.41603 0.94017 0.0
C1147 C 0.93507 0.38112 0.88271 0.0
C1148 C 0.94597 0.40667 0.95917 0.0
C1149 C 0.96797 0.42287 0.97349 0.0
C1150 C 0.97027 0.44886 0.96917 0.0
C1151 C 0.9495 0.45825 0.9512 0.0
C1152 C 0.92746 0.442 0.93693 0.0
H1153 H 0.93412 0.3714 0.85697 0.0
H1154 H 0.94581 0.40041 0.88101 0.0
H1155 H 0.94663 0.37098 0.90094 0.0
H1156 H 0.9449 0.38672 0.96246 0.0
H1157 H 0.98342 0.41493 0.98737 0.0
H1158 H 0.76799 0.84028 0.82682 0.0
H1159 H 0.7436 0.86879 0.85782 0.0
H1160 H 0.67396 0.81307 0.84863 0.0
H1161 H 0.69833 0.78433 0.81837 0.0
H1162 H 0.70209 0.88943 0.83627 0.0
H1163 H 0.6734 0.83383 0.94847 0.0
H1164 H 0.69764 0.82557 0.91996 0.0
H1165 H 0.66293 0.81656 0.90875 0.0
C1166 C 0.7476 0.83389 0.83189 0.0
C1167 C 0.73528 0.80982 0.82023 0.0
C1168 C 0.7336 0.85031 0.84958 0.0
C1169 C 0.70692 0.84311 0.85625 0.0
C1170 C 0.69466 0.819 0.84483 0.0
H1171 H 0.57419 0.91277 0.90778 0.0
H1172 H 0.60647 0.88728 0.88857 0.0
C1173 C 0.70865 0.80255 0.82726 0.0
C1174 C 0.69149 0.86129 0.87305 0.0
H1175 H 0.64895 0.86764 0.93669 0.0
C1176 C 0.69083 0.88474 0.85855 0.0
C1177 C 0.67678 0.85548 0.90238 0.0
C1178 C 0.67792 0.8316 0.92102 0.0
C1179 C 0.67512 0.90186 0.87148 0.0
C1180 C 0.65958 0.89553 0.89971 0.0
C1181 C 0.66077 0.87247 0.91492 0.0
C1182 C 0.64037 0.91168 0.9119 0.0
C1183 C 0.67439 0.9263 0.8541 0.0
C1184 C 0.64861 0.9341 0.93151 0.0
C1185 C 0.63003 0.94891 0.94274 0.0
C1186 C 0.60285 0.94163 0.93442 0.0
C1187 C 0.59488 0.91924 0.91452 0.0
C1188 C 0.61334 0.90446 0.90361 0.0
H1189 H 0.68626 0.92781 0.83102 0.0
H1190 H 0.65369 0.92829 0.84626 0.0
H1191 H 0.68219 0.94209 0.87256 0.0
H1192 H 0.66938 0.93998 0.93845 0.0
H1193 H 0.6369 0.96578 0.95842 0.0
H1194 H 0.81705 0.74407 0.16432 0.0
H1195 H 0.84281 0.71603 0.13502 0.0
H1196 H 0.83149 0.66443 0.21694 0.0
H1197 H 0.806 0.69257 0.24673 0.0
H1198 H 0.88247 0.67185 0.19905 0.0
H1199 H 0.81628 0.65078 0.08129 0.0
H1200 H 0.8264 0.68372 0.0899 0.0
H1201 H 0.80634 0.66579 0.11954 0.0
C1202 C 0.81996 0.72673 0.17613 0.0
C1203 C 0.80931 0.72058 0.20789 0.0
C1204 C 0.83455 0.71058 0.15915 0.0
C1205 C 0.83871 0.6878 0.17334 0.0
C1206 C 0.82841 0.68177 0.20527 0.0
H1207 H 0.90598 0.56925 0.06221 0.0
H1208 H 0.87616 0.59271 0.09296 0.0
C1209 C 0.81382 0.69791 0.2223 0.0
C1210 C 0.85455 0.67071 0.1555 0.0
H1211 H 0.85916 0.63868 0.07919 0.0
C1212 C 0.87723 0.66448 0.17293 0.0
C1213 C 0.84759 0.66067 0.12156 0.0
C1214 C 0.82268 0.66535 0.10207 0.0
C1215 C 0.89353 0.64925 0.15708 0.0
C1216 C 0.88729 0.64024 0.12257 0.0
C1217 C 0.86414 0.64576 0.10549 0.0
C1218 C 0.90508 0.62588 0.10349 0.0
C1219 C 0.91727 0.64286 0.17759 0.0
C1220 C 0.93108 0.6368 0.09854 0.0
C1221 C 0.94809 0.62349 0.0811 0.0
C1222 C 0.93954 0.59888 0.06788 0.0
C1223 C 0.9133 0.58807 0.07224 0.0
C1224 C 0.89622 0.60149 0.08976 0.0
H1225 H 0.91499 0.64472 0.20575 0.0
H1226 H 0.9207 0.62348 0.17113 0.0
H1227 H 0.93502 0.65596 0.17148 0.0
H1228 H 0.93826 0.65577 0.10811 0.0
H1229 H 0.96803 0.63261 0.07802 0.0
H1230 H 0.35013 0.79888 0.20834 0.0
H1231 H 0.38135 0.82912 0.17964 0.0
H1232 H 0.31898 0.87202 0.15464 0.0
H1233 H 0.288 0.84232 0.18416 0.0
H1234 H 0.38658 0.84405 0.11668 0.0
H1235 H 0.3717 0.92816 0.19358 0.0
H1236 H 0.35807 0.89702 0.20486 0.0
H1237 H 0.34165 0.9128 0.17193 0.0
C1238 C 0.34298 0.81475 0.19679 0.0
C1239 C 0.31629 0.81794 0.19899 0.0
C1240 C 0.36099 0.83221 0.18025 0.0
C1241 C 0.35311 0.85362 0.1653 0.0
C1242 C 0.32625 0.85641 0.16669 0.0
H1243 H 0.44373 0.97491 0.04689 0.0
H1244 H 0.40755 0.94694 0.07169 0.0
C1245 C 0.30829 0.83907 0.18341 0.0
C1246 C 0.37277 0.87252 0.14786 0.0
H1247 H 0.39751 0.93527 0.145 0.0
C1248 C 0.38885 0.86395 0.12311 0.0
C1249 C 0.37621 0.89881 0.15562 0.0
C1250 C 0.3612 0.90976 0.18317 0.0
C1251 C 0.40769 0.88048 0.10624 0.0
C1252 C 0.41118 0.90668 0.11412 0.0
C1253 C 0.39492 0.91537 0.13843 0.0
C1254 C 0.43296 0.92477 0.09937 0.0
C1255 C 0.42371 0.86968 0.07974 0.0
C1256 C 0.45953 0.92238 0.1069 0.0
C1257 C 0.48014 0.93844 0.09313 0.0
C1258 C 0.47527 0.95773 0.07096 0.0
C1259 C 0.44857 0.96049 0.06375 0.0
C1260 C 0.42776 0.94437 0.07797 0.0
H1261 H 0.41415 0.85084 0.06977 0.0
H1262 H 0.4267 0.88216 0.05773 0.0
H1263 H 0.4434 0.86778 0.09174 0.0
H1264 H 0.46446 0.90791 0.12363 0.0
H1265 H 0.50014 0.93536 0.09975 0.0
H1266 H 0.68941 0.20609 0.24809 0.0
H1267 H 0.66135 0.17178 0.21576 0.0
H1268 H 0.72225 0.16757 0.14448 0.0
H1269 H 0.75017 0.20242 0.1761 0.0
H1270 H 0.67643 0.1684 0.11117 0.0
H1271 H 0.66223 0.09765 0.21023 0.0
H1272 H 0.6537 0.12686 0.22563 0.0
H1273 H 0.68724 0.12496 0.21552 0.0
C1274 C 0.69695 0.1977 0.22574 0.0
C1275 C 0.72197 0.207 0.21458 0.0
C1276 C 0.68098 0.17791 0.20747 0.0
C1277 C 0.68991 0.16675 0.1781 0.0
C1278 C 0.71505 0.17577 0.16722 0.0
H1279 H 0.5824 0.0408 0.07382 0.0
H1280 H 0.62269 0.06454 0.10239 0.0
C1281 C 0.73094 0.19572 0.18528 0.0
C1282 C 0.67204 0.14728 0.1571 0.0
H1283 H 0.6288 0.0934 0.16296 0.0
C1284 C 0.6664 0.15176 0.12236 0.0
C1285 C 0.65936 0.12526 0.1714 0.0
C1286 C 0.66619 0.11826 0.20764 0.0
C1287 C 0.64715 0.1357 0.10221 0.0
C1288 C 0.63272 0.11501 0.11749 0.0
C1289 C 0.63959 0.10953 0.15148 0.0
C1290 C 0.60888 0.10042 0.09972 0.0
C1291 C 0.64209 0.14137 0.06492 0.0
C1292 C 0.58771 0.1127 0.08943 0.0
C1293 C 0.56486 0.09933 0.07317 0.0
C1294 C 0.56254 0.07328 0.0672 0.0
C1295 C 0.58361 0.06086 0.07804 0.0
C1296 C 0.60662 0.07436 0.09428 0.0
H1297 H 0.66002 0.15175 0.05435 0.0
H1298 H 0.63565 0.12397 0.04882 0.0
H1299 H 0.62632 0.15335 0.0629 0.0
H1300 H 0.58875 0.13269 0.09427 0.0
H1301 H 0.54894 0.10947 0.06551 0.0
H1302 H 0.72929 0.66403 0.80657 0.0
H1303 H 0.71343 0.62423 0.83173 0.0
H1304 H 0.64131 0.61803 0.76765 0.0
H1305 H 0.65738 0.6574 0.74164 0.0
H1306 H 0.67011 0.62122 0.86831 0.0
H1307 H 0.65415 0.54578 0.76719 0.0
H1308 H 0.67576 0.57493 0.76248 0.0
H1309 H 0.6407 0.57277 0.75304 0.0
C1310 C 0.71048 0.65377 0.79689 0.0
C1311 C 0.69443 0.664 0.77233 0.0
C1312 C 0.70144 0.63102 0.81136 0.0
C1313 C 0.67634 0.61803 0.80131 0.0
C1314 C 0.661 0.62742 0.77526 0.0
H1315 H 0.53974 0.54626 0.86541 0.0
H1316 H 0.57913 0.56078 0.83551 0.0
C1317 C 0.67001 0.65015 0.76081 0.0
C1318 C 0.66401 0.59757 0.8221 0.0
H1319 H 0.62405 0.54116 0.81417 0.0
C1320 C 0.66074 0.60332 0.85687 0.0
C1321 C 0.6519 0.57427 0.80707 0.0
C1322 C 0.65606 0.56649 0.77046 0.0
C1323 C 0.64347 0.58754 0.87605 0.0
C1324 C 0.62959 0.56518 0.8601 0.0
C1325 C 0.63468 0.55836 0.82627 0.0
C1326 C 0.60641 0.55148 0.87573 0.0
C1327 C 0.63838 0.59613 0.91209 0.0
C1328 C 0.6087 0.54049 0.9077 0.0
C1329 C 0.5861 0.53241 0.92522 0.0
C1330 C 0.56095 0.53507 0.91079 0.0
C1331 C 0.55877 0.54421 0.87751 0.0
C1332 C 0.5813 0.55238 0.86022 0.0
H1333 H 0.64836 0.61547 0.91887 0.0
H1334 H 0.61687 0.5955 0.91492 0.0
H1335 H 0.64578 0.58342 0.93089 0.0
H1336 H 0.62796 0.53924 0.91978 0.0
H1337 H 0.58845 0.52504 0.95057 0.0
H1338 H 0.29831 0.71818 0.83874 0.0
H1339 H 0.32531 0.69031 0.86728 0.0
H1340 H 0.36781 0.68483 0.77536 0.0
H1341 H 0.34146 0.71333 0.74703 0.0
H1342 H 0.33047 0.64322 0.8534 0.0
H1343 H 0.42819 0.70105 0.84598 0.0
H1344 H 0.39774 0.71302 0.83618 0.0
H1345 H 0.41142 0.69454 0.80432 0.0
C1346 C 0.31355 0.71121 0.82465 0.0
C1347 C 0.31785 0.71818 0.79065 0.0
C1348 C 0.32897 0.69522 0.84102 0.0
C1349 C 0.34901 0.68577 0.82379 0.0
C1350 C 0.35304 0.69239 0.78963 0.0
H1351 H 0.41721 0.55322 0.87696 0.0
H1352 H 0.39084 0.58353 0.85363 0.0
C1353 C 0.3378 0.70857 0.77334 0.0
C1354 C 0.36503 0.66836 0.84116 0.0
H1355 H 0.42834 0.65845 0.86061 0.0
C1356 C 0.35188 0.64667 0.85516 0.0
C1357 C 0.39298 0.67299 0.84418 0.0
C1358 C 0.4084 0.6968 0.83221 0.0
C1359 C 0.36583 0.62924 0.87122 0.0
C1360 C 0.39379 0.63316 0.87246 0.0
C1361 C 0.40694 0.65518 0.85929 0.0
C1362 C 0.40978 0.6146 0.88698 0.0
C1363 C 0.35037 0.60705 0.88725 0.0
C1364 C 0.42992 0.62202 0.91278 0.0
C1365 C 0.44546 0.60478 0.92572 0.0
C1366 C 0.44111 0.57967 0.91329 0.0
C1367 C 0.42095 0.57231 0.88744 0.0
C1368 C 0.40567 0.58962 0.87422 0.0
H1369 H 0.33062 0.61102 0.89415 0.0
H1370 H 0.34726 0.59087 0.86842 0.0
H1371 H 0.36103 0.60167 0.91078 0.0
H1372 H 0.43364 0.6412 0.92295 0.0
H1373 H 0.46088 0.61118 0.94546 0.0
H1374 H 0.34709 0.31987 0.76391 0.0
H1375 H 0.38305 0.34629 0.79761 0.0
H1376 H 0.34742 0.32285 0.89152 0.0
H1377 H 0.31255 0.2953 0.85804 0.0
H1378 H 0.38332 0.3847 0.83693 0.0
H1379 H 0.42044 0.31389 0.9177 0.0
H1380 H 0.39689 0.30533 0.88169 0.0
H1381 H 0.38603 0.31398 0.92315 0.0
C1382 C 0.34721 0.32016 0.79177 0.0
C1383 C 0.32724 0.30541 0.80842 0.0
C1384 C 0.36771 0.33526 0.81102 0.0
C1385 C 0.36835 0.3362 0.84723 0.0
C1386 C 0.34804 0.32178 0.86376 0.0
H1387 H 0.45197 0.46348 0.96978 0.0
H1388 H 0.41904 0.43263 0.93785 0.0
C1389 C 0.32795 0.30621 0.84457 0.0
C1390 C 0.38935 0.35331 0.86761 0.0
H1391 H 0.43278 0.35677 0.93786 0.0
C1392 C 0.39434 0.37848 0.85875 0.0
C1393 C 0.40416 0.34522 0.89576 0.0
C1394 C 0.4018 0.31807 0.90484 0.0
C1395 C 0.41326 0.39584 0.87754 0.0
C1396 C 0.42668 0.38813 0.90718 0.0
C1397 C 0.42215 0.36285 0.91559 0.0
C1398 C 0.44586 0.40588 0.92936 0.0
C1399 C 0.41901 0.42206 0.86476 0.0
C1400 C 0.47138 0.40039 0.93741 0.0
C1401 C 0.48991 0.41761 0.95679 0.0
C1402 C 0.48335 0.44076 0.96796 0.0
C1403 C 0.45758 0.44586 0.96103 0.0
C1404 C 0.43887 0.42838 0.94246 0.0
H1405 H 0.41416 0.42241 0.83662 0.0
H1406 H 0.40662 0.43419 0.87789 0.0
H1407 H 0.44008 0.43014 0.87 0.0
H1408 H 0.47721 0.38309 0.92788 0.0
H1409 H 0.50969 0.41327 0.96169 0.0
H1410 H 0.71084 0.37695 0.74111 0.0
H1411 H 0.70226 0.40896 0.78366 0.0
H1412 H 0.66555 0.35089 0.84639 0.0
H1413 H 0.67413 0.31903 0.80413 0.0
H1414 H 0.65432 0.41832 0.81453 0.0
H1415 H 0.7274 0.38984 0.90918 0.0
H1416 H 0.7266 0.38152 0.86372 0.0
H1417 H 0.70455 0.36365 0.89129 0.0
C1418 C 0.70028 0.37117 0.76353 0.0
C1419 C 0.69324 0.34564 0.7697 0.0
C1420 C 0.6957 0.38937 0.78789 0.0
C1421 C 0.68411 0.38208 0.81847 0.0
C1422 C 0.67524 0.35672 0.8233 0.0
H1423 H 0.60218 0.40977 0.97937 0.0
H1424 H 0.63387 0.39742 0.94004 0.0
C1425 C 0.67987 0.33862 0.79914 0.0
C1426 C 0.68132 0.40059 0.84601 0.0
H1427 H 0.69285 0.41042 0.93278 0.0
C1428 C 0.66333 0.41733 0.84021 0.0
C1429 C 0.69351 0.39931 0.87923 0.0
C1430 C 0.71432 0.38278 0.88618 0.0
C1431 C 0.65504 0.43095 0.86773 0.0
C1432 C 0.66529 0.4277 0.90151 0.0
C1433 C 0.68508 0.41274 0.90679 0.0
C1434 C 0.65175 0.43538 0.93146 0.0
C1435 C 0.63365 0.44691 0.86099 0.0
C1436 C 0.65252 0.46071 0.94091 0.0
C1437 C 0.63449 0.46781 0.96352 0.0
C1438 C 0.61546 0.44959 0.97643 0.0
C1439 C 0.61647 0.42414 0.96941 0.0
C1440 C 0.6346 0.41709 0.94712 0.0
H1441 H 0.62702 0.44649 0.8333 0.0
H1442 H 0.61635 0.44037 0.87603 0.0
H1443 H 0.64107 0.46662 0.86949 0.0
H1444 H 0.66578 0.47498 0.92905 0.0
H1445 H 0.63409 0.48758 0.96857 0.0
H1446 H 0.69705 0.31609 0.2593 0.0
H1447 H 0.67092 0.34441 0.23011 0.0
H1448 H 0.71691 0.34138 0.14094 0.0
H1449 H 0.74356 0.31358 0.17026 0.0
H1450 H 0.71011 0.38853 0.15682 0.0
H1451 H 0.61342 0.32735 0.15473 0.0
H1452 H 0.62863 0.33324 0.19738 0.0
H1453 H 0.64411 0.31615 0.1658 0.0
C1454 C 0.70156 0.32136 0.23342 0.0
C1455 C 0.72234 0.31243 0.21708 0.0
C1456 C 0.68645 0.33744 0.21665 0.0
C1457 C 0.69156 0.34468 0.18301 0.0
C1458 C 0.71245 0.33596 0.16678 0.0
H1459 H 0.58366 0.41792 0.05322 0.0
H1460 H 0.6114 0.38874 0.07706 0.0
C1461 C 0.72767 0.32002 0.1836 0.0
C1462 C 0.67567 0.36191 0.1651 0.0
H1463 H 0.61258 0.36983 0.1404 0.0
C1464 C 0.6888 0.38435 0.15307 0.0
C1465 C 0.64788 0.35633 0.15959 0.0
C1466 C 0.63269 0.33184 0.16972 0.0
C1467 C 0.6749 0.40159 0.13649 0.0
C1468 C 0.647 0.39657 0.13252 0.0
C1469 C 0.63393 0.37385 0.14377 0.0
C1470 C 0.63097 0.41473 0.11714 0.0
C1471 C 0.69032 0.42482 0.12294 0.0
C1472 C 0.63263 0.43908 0.1317 0.0
C1473 C 0.61695 0.45588 0.11796 0.0
C1474 C 0.59894 0.4486 0.08961 0.0
C1475 C 0.5973 0.42419 0.07504 0.0
C1476 C 0.61313 0.40744 0.08869 0.0
H1477 H 0.71094 0.42217 0.11837 0.0
H1478 H 0.68087 0.43018 0.0985 0.0
H1479 H 0.69115 0.44054 0.14223 0.0
H1480 H 0.64574 0.44499 0.15416 0.0
H1481 H 0.61861 0.47444 0.13002 0.0
H1482 H 0.69872 0.69442 0.23655 0.0
H1483 H 0.66536 0.66771 0.19926 0.0
H1484 H 0.66573 0.72656 0.12696 0.0
H1485 H 0.69955 0.75316 0.16361 0.0
H1486 H 0.61557 0.67322 0.1748 0.0
H1487 H 0.68125 0.66854 0.06658 0.0
H1488 H 0.69338 0.68097 0.10897 0.0
H1489 H 0.67704 0.69974 0.07992 0.0
C1490 C 0.69158 0.70174 0.21283 0.0
C1491 C 0.70196 0.72579 0.20285 0.0
C1492 C 0.67254 0.68646 0.19154 0.0
C1493 C 0.66352 0.69497 0.15999 0.0
C1494 C 0.67295 0.71939 0.15074 0.0
H1495 H 0.54748 0.61698 1.00385 0.0
H1496 H 0.57786 0.64965 0.03703 0.0
C1497 C 0.69214 0.73461 0.17185 0.0
C1498 C 0.64457 0.67807 0.13663 0.0
H1499 H 0.63705 0.64874 0.05677 0.0
C1500 C 0.62024 0.66794 0.14897 0.0
C1501 C 0.65075 0.67117 0.10292 0.0
C1502 C 0.6771 0.68046 0.08884 0.0
C1503 C 0.60198 0.65098 0.12857 0.0
C1504 C 0.60829 0.64395 0.0951 0.0
C1505 C 0.63232 0.6544 0.08241 0.0
C1506 C 0.59092 0.62436 0.07395 0.0
C1507 C 0.57613 0.64045 0.14299 0.0
C1508 C 0.58887 0.5994 0.08337 0.0
C1509 C 0.57182 0.58077 0.06448 0.0
C1510 C 0.55637 0.58676 0.03581 0.0
C1511 C 0.55904 0.61176 0.02583 0.0
C1512 C 0.57631 0.63043 0.04473 0.0
H1513 H 0.57201 0.65139 0.16623 0.0
H1514 H 0.55957 0.64017 0.12332 0.0
H1515 H 0.57687 0.62087 0.15027 0.0
H1516 H 0.60029 0.59438 0.10563 0.0
H1517 H 0.57041 0.56172 0.07283 0.0
H1518 H 0.33782 0.66403 0.26225 0.0
H1519 H 0.35523 0.63652 0.22048 0.0
H1520 H 0.37601 0.69939 0.15674 0.0
H1521 H 0.35901 0.72687 0.19836 0.0
H1522 H 0.34046 0.65306 0.12547 0.0
H1523 H 0.43524 0.63742 0.19258 0.0
H1524 H 0.40573 0.63496 0.21617 0.0
H1525 H 0.42027 0.66488 0.20225 0.0
C1526 C 0.34674 0.672 0.23977 0.0
C1527 C 0.34696 0.69745 0.23323 0.0
C1528 C 0.35644 0.65631 0.21593 0.0
C1529 C 0.36655 0.66606 0.18563 0.0
C1530 C 0.368 0.69164 0.17995 0.0
H1531 H 0.45661 0.63034 0.02446 0.0
H1532 H 0.42976 0.64919 0.06493 0.0
C1533 C 0.35834 0.70725 0.20365 0.0
C1534 C 0.37463 0.64969 0.15872 0.0
H1535 H 0.42636 0.62133 0.1356 0.0
C1536 C 0.35902 0.64571 0.12772 0.0
C1537 C 0.39883 0.64036 0.16212 0.0
C1538 C 0.41617 0.64457 0.19497 0.0
C1539 C 0.36762 0.63329 0.09931 0.0
C1540 C 0.3923 0.62491 0.10231 0.0
C1541 C 0.4074 0.62797 0.13371 0.0
C1542 C 0.40403 0.61461 0.07258 0.0
C1543 C 0.35103 0.63013 0.06584 0.0
C1544 C 0.39743 0.58925 0.06263 0.0
C1545 C 0.41269 0.5784 0.03947 0.0
C1546 C 0.4348 0.59286 0.02652 0.0
C1547 C 0.43985 0.61873 0.03435 0.0
C1548 C 0.42458 0.62952 0.05738 0.0
H1549 H 0.33228 0.63794 0.06771 0.0
H1550 H 0.36236 0.6396 0.04522 0.0
H1551 H 0.34633 0.60993 0.0581 0.0
H1552 H 0.38161 0.57758 0.07437 0.0
H1553 H 0.40833 0.55841 0.03382 0.0
H1554 H 0.37767 0.37644 0.2685 0.0
H1555 H 0.39371 0.41511 0.24094 0.0
H1556 H 0.32068 0.40875 0.17868 0.0
H1557 H 0.3049 0.36953 0.20521 0.0
H1558 H 0.36229 0.4101 0.14066 0.0
H1559 H 0.38363 0.48753 0.23826 0.0
H1560 H 0.39677 0.46067 0.2534 0.0
H1561 H 0.3616 0.45907 0.24536 0.0
C1562 C 0.36483 0.38351 0.24942 0.0
C1563 C 0.34022 0.36969 0.23869 0.0
C1564 C 0.37382 0.40589 0.2341 0.0
C1565 C 0.35825 0.415 0.20804 0.0
C1566 C 0.33288 0.40218 0.19902 0.0
H1567 H 0.44844 0.50165 0.05439 0.0
H1568 H 0.40874 0.48979 0.0859 0.0
C1569 C 0.32388 0.37975 0.21429 0.0
C1570 C 0.37064 0.43459 0.18596 0.0
H1571 H 0.41367 0.48918 0.1907 0.0
C1572 C 0.37277 0.42786 0.1512 0.0
C1573 C 0.38417 0.45775 0.19974 0.0
C1574 C 0.38116 0.46675 0.23619 0.0
C1575 C 0.39041 0.44229 0.13093 0.0
C1576 C 0.40589 0.46424 0.14579 0.0
C1577 C 0.40184 0.47225 0.1795 0.0
C1578 C 0.42958 0.47594 0.12931 0.0
C1579 C 0.3942 0.43265 0.09493 0.0
C1580 C 0.4544 0.47301 0.14404 0.0
C1581 C 0.47702 0.47971 0.12627 0.0
C1582 C 0.47523 0.48949 0.09334 0.0
C1583 C 0.45046 0.49387 0.07952 0.0
C1584 C 0.42777 0.48715 0.09745 0.0
H1585 H 0.38245 0.41392 0.08869 0.0
H1586 H 0.38805 0.44587 0.07597 0.0
H1587 H 0.41534 0.43133 0.0918 0.0
H1588 H 0.45615 0.46433 0.16861 0.0
H1589 H 0.49577 0.47636 0.13791 0.0
H1590 H 0.84014 0.75223 0.68164 0.0
H1591 H 0.8662 0.72391 0.65315 0.0
H1592 H 0.80657 0.66126 0.66992 0.0
H1593 H 0.78029 0.68943 0.69823 0.0
H1594 H 0.85946 0.6551 0.69277 0.0
H1595 H 0.85462 0.68499 0.5576 0.0
H1596 H 0.8626 0.70975 0.59017 0.0
H1597 H 0.83058 0.69099 0.58788 0.0
C1598 C 0.83229 0.73249 0.67876 0.0
C1599 C 0.80795 0.72323 0.69218 0.0
C1600 C 0.84724 0.71628 0.66232 0.0
C1601 C 0.83832 0.69038 0.65901 0.0
C1602 C 0.81386 0.68114 0.67191 0.0
H1603 H 0.90884 0.57309 0.55071 0.0
H1604 H 0.87873 0.60113 0.57081 0.0
C1605 C 0.79878 0.69735 0.68804 0.0
C1606 C 0.85529 0.67277 0.64445 0.0
H1607 H 0.88493 0.65712 0.57161 0.0
C1608 C 0.86484 0.65544 0.6662 0.0
C1609 C 0.8623 0.67303 0.6097 0.0
C1610 C 0.85189 0.69051 0.58477 0.0
C1611 C 0.88148 0.63881 0.65444 0.0
C1612 C 0.88903 0.63947 0.61996 0.0
C1613 C 0.87913 0.65649 0.59798 0.0
C1614 C 0.90753 0.62288 0.60671 0.0
C1615 C 0.89087 0.62058 0.6791 0.0
C1616 C 0.9338 0.62564 0.62013 0.0
C1617 C 0.95093 0.60942 0.60912 0.0
C1618 C 0.94234 0.59005 0.58414 0.0
C1619 C 0.91617 0.58769 0.57004 0.0
C1620 C 0.89896 0.60387 0.58131 0.0
H1621 H 0.87873 0.61844 0.70191 0.0
H1622 H 0.89037 0.60189 0.66612 0.0
H1623 H 0.91158 0.62752 0.68833 0.0
H1624 H 0.94105 0.6403 0.63943 0.0
H1625 H 0.97096 0.61206 0.62038 0.0
H1626 H 0.33187 0.83155 0.6328 0.0
H1627 H 0.3668 0.86478 0.61794 0.0
H1628 H 0.42362 0.81358 0.62622 0.0
H1629 H 0.38874 0.78027 0.64112 0.0
H1630 H 0.4341 0.86178 0.66873 0.0
H1631 H 0.41122 0.87329 0.52926 0.0
H1632 H 0.3836 0.87075 0.55612 0.0
H1633 H 0.40082 0.84445 0.55034 0.0
C1634 C 0.35174 0.82734 0.63089 0.0
C1635 C 0.35766 0.80342 0.63807 0.0
C1636 C 0.37158 0.84621 0.62226 0.0
C1637 C 0.39763 0.84145 0.62084 0.0
C1638 C 0.40352 0.81743 0.62697 0.0
H1639 H 0.51787 0.96042 0.56058 0.0
H1640 H 0.49951 0.91823 0.57608 0.0
C1641 C 0.38361 0.79844 0.63524 0.0
C1642 C 0.41892 0.86225 0.61607 0.0
H1643 H 0.44072 0.90608 0.55916 0.0
C1644 C 0.43596 0.87124 0.64463 0.0
C1645 C 0.42109 0.87442 0.58459 0.0
C1646 C 0.40336 0.86519 0.55317 0.0
C1647 C 0.45438 0.893 0.64295 0.0
C1648 C 0.45578 0.90573 0.61191 0.0
C1649 C 0.43963 0.89605 0.58287 0.0
C1650 C 0.47146 0.93064 0.60979 0.0
C1651 C 0.4716 0.90277 0.67453 0.0
C1652 C 0.4624 0.95144 0.62484 0.0
C1653 C 0.47257 0.97552 0.61572 0.0
C1654 C 0.49197 0.97907 0.59148 0.0
C1655 C 0.50289 0.9583 0.57923 0.0
C1656 C 0.49242 0.93417 0.58799 0.0
H1657 H 0.47211 0.88826 0.69404 0.0
H1658 H 0.49207 0.90947 0.66752 0.0
H1659 H 0.46374 0.91889 0.68638 0.0
H1660 H 0.44605 0.94896 0.64151 0.0
H1661 H 0.46388 0.99118 0.62572 0.0
H1662 H 0.25378 0.35396 0.62067 0.0
H1663 H 0.21608 0.36543 0.58643 0.0
H1664 H 0.1768 0.28911 0.58665 0.0
H1665 H 0.21416 0.27788 0.62154 0.0
H1666 H 0.18695 0.34907 0.5245 0.0
H1667 H 0.12828 0.32827 0.63931 0.0
H1668 H 0.16363 0.32961 0.64099 0.0
H1669 H 0.14267 0.3029 0.62095 0.0
C1670 C 0.2374 0.33961 0.61249 0.0
C1671 C 0.23649 0.31523 0.62399 0.0
C1672 C 0.2159 0.34609 0.59308 0.0
C1673 C 0.19346 0.32818 0.58478 0.0
C1674 C 0.19368 0.30328 0.59349 0.0
H1675 H 0.06439 0.39905 0.48681 0.0
H1676 H 0.08842 0.36349 0.49737 0.0
C1677 C 0.21498 0.2969 0.61323 0.0
C1678 C 0.169 0.33639 0.57068 0.0
H1679 H 0.10899 0.34849 0.59469 0.0
C1680 C 0.16956 0.34838 0.53929 0.0
C1681 C 0.14647 0.33552 0.59035 0.0
C1682 C 0.14512 0.32356 0.62488 0.0
C1683 C 0.14893 0.36109 0.52817 0.0
C1684 C 0.12714 0.36147 0.54881 0.0
C1685 C 0.12565 0.34785 0.57884 0.0
C1686 C 0.10932 0.38034 0.54416 0.0
C1687 C 0.15193 0.3763 0.4965 0.0
C1688 C 0.11244 0.40089 0.56767 0.0
C1689 C 0.09894 0.42096 0.56174 0.0
C1690 C 0.08185 0.42075 0.53233 0.0
C1691 C 0.07732 0.39947 0.50984 0.0
C1692 C 0.09114 0.37933 0.51566 0.0
H1693 H 0.17006 0.37391 0.48316 0.0
H1694 H 0.1346 0.37089 0.47808 0.0
H1695 H 0.15285 0.39639 0.50416 0.0
H1696 H 0.12638 0.40197 0.58982 0.0
H1697 H 0.10267 0.43711 0.57953 0.0
H1698 H 0.76258 0.19204 0.67948 0.0
H1699 H 0.73621 0.16032 0.64044 0.0
H1700 H 0.67775 0.20924 0.62504 0.0
H1701 H 0.70416 0.24115 0.66326 0.0
H1702 H 0.68744 0.13729 0.65165 0.0
H1703 H 0.68285 0.18409 0.52744 0.0
H1704 H 0.70638 0.19595 0.56247 0.0
H1705 H 0.67288 0.2022 0.56249 0.0
C1706 C 0.74441 0.19628 0.66717 0.0
C1707 C 0.73556 0.2192 0.67454 0.0
C1708 C 0.7293 0.17809 0.64489 0.0
C1709 C 0.70507 0.18243 0.62937 0.0
C1710 C 0.69661 0.20559 0.63591 0.0
H1711 H 0.56813 0.08759 0.53036 0.0
H1712 H 0.60029 0.12297 0.55398 0.0
C1713 C 0.71173 0.22381 0.65805 0.0
C1714 C 0.68747 0.16192 0.60927 0.0
H1715 H 0.65157 0.14708 0.5327 0.0
C1716 C 0.67988 0.13937 0.62549 0.0
C1717 C 0.67731 0.16465 0.57522 0.0
C1718 C 0.68546 0.18794 0.55575 0.0
C1719 C 0.66211 0.11976 0.60901 0.0
C1720 C 0.65186 0.12252 0.57508 0.0
C1721 C 0.65943 0.145 0.55871 0.0
C1722 C 0.63319 0.10214 0.55654 0.0
C1723 C 0.6539 0.09643 0.62845 0.0
C1724 C 0.64125 0.07899 0.54878 0.0
C1725 C 0.62299 0.05876 0.53529 0.0
C1726 C 0.59618 0.0612 0.5292 0.0
C1727 C 0.58851 0.08491 0.53498 0.0
C1728 C 0.60688 0.10519 0.54847 0.0
H1729 H 0.65865 0.09953 0.6566 0.0
H1730 H 0.63238 0.08989 0.62404 0.0
H1731 H 0.66454 0.0813 0.61914 0.0
H1732 H 0.66156 0.07634 0.5542 0.0
H1733 H 0.62979 0.04094 0.53088 0.0
H1734 H 0.78596 0.32697 0.35648 0.0
H1735 H 0.81471 0.36171 0.38746 0.0
H1736 H 0.87102 0.36171 0.30917 0.0
H1737 H 0.84241 0.32707 0.27781 0.0
H1738 H 0.89025 0.36116 0.38532 0.0
H1739 H 0.83077 0.43612 0.35117 0.0
H1740 H 0.81357 0.40717 0.36558 0.0
H1741 H 0.82887 0.40749 0.32522 0.0
C1742 C 0.80443 0.3344 0.34578 0.0
C1743 C 0.81191 0.32432 0.31467 0.0
C1744 C 0.82076 0.35423 0.36348 0.0
C1745 C 0.84482 0.36421 0.35042 0.0
C1746 C 0.85245 0.35418 0.31952 0.0
H1747 H 0.97664 0.47679 0.4194 0.0
H1748 H 0.94745 0.44121 0.39131 0.0
C1749 C 0.83606 0.33447 0.30165 0.0
C1750 C 0.8622 0.38502 0.36919 0.0
H1751 H 0.86843 0.44764 0.38883 0.0
C1752 C 0.88558 0.3801 0.38614 0.0
C1753 C 0.85578 0.40954 0.37028 0.0
C1754 C 0.83097 0.41562 0.35199 0.0
C1755 C 0.90277 0.3992 0.40449 0.0
C1756 C 0.89664 0.42389 0.40504 0.0
C1757 C 0.87309 0.4287 0.38828 0.0
C1758 C 0.91449 0.44511 0.42248 0.0
C1759 C 0.92704 0.39269 0.42367 0.0
C1760 C 0.90541 0.45943 0.44874 0.0
C1761 C 0.92191 0.47997 0.46455 0.0
C1762 C 0.9478 0.48657 0.4543 0.0
C1763 C 0.95684 0.47216 0.42796 0.0
C1764 C 0.94026 0.4517 0.41206 0.0
H1765 H 0.92497 0.3724 0.4288 0.0
H1766 H 0.94432 0.39726 0.40785 0.0
H1767 H 0.93113 0.40356 0.44859 0.0
H1768 H 0.88554 0.45468 0.45705 0.0
H1769 H 0.91437 0.4906 0.48486 0.0
H1770 H 0.7188 0.83831 0.26094 0.0
H1771 H 0.69379 0.86603 0.29241 0.0
H1772 H 0.69383 0.81879 0.37958 0.0
H1773 H 0.71812 0.79072 0.34803 0.0
H1774 H 0.64648 0.83116 0.36776 0.0
H1775 H 0.71922 0.91762 0.36813 0.0
H1776 H 0.70969 0.90483 0.32541 0.0
H1777 H 0.72709 0.88735 0.3552 0.0
C1778 C 0.71352 0.83384 0.28683 0.0
C1779 C 0.72057 0.81225 0.3019 0.0
C1780 C 0.6994 0.84987 0.30497 0.0
C1781 C 0.6923 0.8449 0.33879 0.0
C1782 C 0.69913 0.82321 0.35368 0.0
H1783 H 0.62843 0.95365 0.47361 0.0
H1784 H 0.6569 0.92537 0.44959 0.0
C1785 C 0.71305 0.80712 0.33551 0.0
C1786 C 0.67695 0.86165 0.35826 0.0
H1787 H 0.67605 0.92254 0.38491 0.0
C1788 C 0.65311 0.85111 0.37166 0.0
C1789 C 0.68569 0.88767 0.36416 0.0
C1790 C 0.71196 0.90001 0.3528 0.0
C1791 C 0.63746 0.86584 0.38966 0.0
C1792 C 0.64544 0.89207 0.39381 0.0
C1793 C 0.66971 0.90252 0.38147 0.0
C1794 C 0.62823 0.90899 0.40925 0.0
C1795 C 0.61259 0.85305 0.40433 0.0
C1796 C 0.60274 0.90944 0.39454 0.0
C1797 C 0.58648 0.92541 0.40823 0.0
C1798 C 0.59532 0.94172 0.43685 0.0
C1799 C 0.62094 0.94139 0.45159 0.0
C1800 C 0.63726 0.92524 0.43784 0.0
H1801 H 0.61379 0.83307 0.40907 0.0
H1802 H 0.60865 0.86248 0.42888 0.0
H1803 H 0.59562 0.85361 0.3856 0.0
H1804 H 0.59545 0.89762 0.37203 0.0
H1805 H 0.567 0.92514 0.39592 0.0
H1806 H 0.18276 0.74786 0.31381 0.0
H1807 H 0.15207 0.71776 0.34379 0.0
H1808 H 0.20991 0.66755 0.3487 0.0
H1809 H 0.2407 0.69766 0.3198 0.0
H1810 H 0.1276 0.67128 0.3297 0.0
H1811 H 0.19208 0.66612 0.44651 0.0
H1812 H 0.19994 0.68941 0.41506 0.0
H1813 H 0.20789 0.65824 0.40858 0.0
C1814 C 0.18912 0.73054 0.32163 0.0
C1815 C 0.21463 0.72562 0.31453 0.0
C1816 C 0.17138 0.71315 0.33878 0.0
C1817 C 0.17847 0.69021 0.34962 0.0
C1818 C 0.20381 0.68519 0.34199 0.0
H1819 H 0.10934 0.55047 0.43267 0.0
H1820 H 0.13562 0.58671 0.4099 0.0
C1821 C 0.22154 0.70256 0.32506 0.0
C1822 C 0.15945 0.67134 0.36803 0.0
H1823 H 0.15518 0.63344 0.43749 0.0
C1824 C 0.13364 0.66332 0.35352 0.0
C1825 C 0.16672 0.66064 0.39943 0.0
C1826 C 0.19305 0.66923 0.4185 0.0
C1827 C 0.11576 0.64452 0.36835 0.0
C1828 C 0.12341 0.63327 0.39908 0.0
C1829 C 0.14896 0.64173 0.414 0.0
C1830 C 0.10638 0.61137 0.41455 0.0
C1831 C 0.08911 0.63608 0.3501 0.0
C1832 C 0.08083 0.61265 0.42604 0.0
C1833 C 0.06544 0.59153 0.43973 0.0
C1834 C 0.07504 0.56842 0.44192 0.0
C1835 C 0.10082 0.56762 0.43118 0.0
C1836 C 0.11613 0.58856 0.41806 0.0
H1837 H 0.08805 0.64282 0.32346 0.0
H1838 H 0.08442 0.61533 0.34895 0.0
H1839 H 0.07375 0.64359 0.36459 0.0
H1840 H 0.07273 0.63 0.42448 0.0
H1841 H 0.04583 0.59312 0.44766 0.0
H1842 H 0.33754 0.26022 0.33234 0.0
H1843 H 0.3657 0.23452 0.36357 0.0
H1844 H 0.30232 0.17232 0.3559 0.0
H1845 H 0.27407 0.19778 0.32451 0.0
H1846 H 0.36023 0.2072 0.42531 0.0
H1847 H 0.3632 0.14432 0.31043 0.0
H1848 H 0.35155 0.17418 0.30785 0.0
H1849 H 0.33048 0.14746 0.32237 0.0
C1850 C 0.32941 0.24118 0.33769 0.0
C1851 C 0.30347 0.23111 0.32572 0.0
C1852 C 0.34561 0.22648 0.35554 0.0
C1853 C 0.33636 0.20131 0.36161 0.0
C1854 C 0.31012 0.19154 0.35102 0.0
H1855 H 0.39509 0.0739 0.44574 0.0
H1856 H 0.37069 0.10477 0.42055 0.0
C1857 C 0.29388 0.20622 0.33327 0.0
C1858 C 0.35436 0.18501 0.37782 0.0
H1859 H 0.38163 0.13185 0.36313 0.0
C1860 C 0.36508 0.19081 0.41166 0.0
C1861 C 0.36089 0.16371 0.35998 0.0
C1862 C 0.35117 0.1571 0.32304 0.0
C1863 C 0.38123 0.17537 0.42851 0.0
C1864 C 0.38731 0.15378 0.41085 0.0
C1865 C 0.37703 0.14834 0.37677 0.0
C1866 C 0.40277 0.13558 0.42771 0.0
C1867 C 0.39083 0.18173 0.46552 0.0
C1868 C 0.4292 0.14245 0.44035 0.0
C1869 C 0.44346 0.12461 0.45499 0.0
C1870 C 0.43157 0.09954 0.45714 0.0
C1871 C 0.40508 0.09293 0.44457 0.0
C1872 C 0.39098 0.11063 0.43005 0.0
H1873 H 0.37998 0.19575 0.47761 0.0
H1874 H 0.38866 0.16469 0.48093 0.0
H1875 H 0.41208 0.18969 0.46657 0.0
H1876 H 0.43896 0.16148 0.43836 0.0
H1877 H 0.4638 0.13037 0.46428 0.0
H1878 H 0.69778 0.77242 0.67815 0.0
H1879 H 0.6698 0.79716 0.64501 0.0
H1880 H 0.73265 0.85988 0.65203 0.0
H1881 H 0.7609 0.83515 0.68465 0.0
H1882 H 0.65226 0.84011 0.66537 0.0
H1883 H 0.71043 0.85815 0.55074 0.0
H1884 H 0.71674 0.83482 0.581 0.0
H1885 H 0.72944 0.86734 0.59034 0.0
C1886 C 0.70587 0.79132 0.67211 0.0
C1887 C 0.73176 0.80166 0.68391 0.0
C1888 C 0.68975 0.80552 0.65325 0.0
C1889 C 0.6991 0.83036 0.64554 0.0
C1890 C 0.72507 0.84061 0.65685 0.0
H1891 H 0.64058 0.95848 0.56525 0.0
H1892 H 0.66466 0.92694 0.58921 0.0
C1893 C 0.74124 0.82641 0.67565 0.0
C1894 C 0.68128 0.84596 0.62736 0.0
H1895 H 0.67662 0.88347 0.55883 0.0
C1896 C 0.65744 0.84934 0.64183 0.0
C1897 C 0.68789 0.85802 0.59655 0.0
C1898 C 0.71239 0.85423 0.57853 0.0
C1899 C 0.6407 0.86519 0.62724 0.0
C1900 C 0.64768 0.87776 0.59696 0.0
C1901 C 0.67118 0.87388 0.58202 0.0
C1902 C 0.63214 0.89656 0.58186 0.0
C1903 C 0.61624 0.86918 0.64522 0.0
C1904 C 0.60564 0.89011 0.56929 0.0
C1905 C 0.59157 0.90833 0.55539 0.0
C1906 C 0.60376 0.93334 0.55379 0.0
C1907 C 0.63035 0.93951 0.5661 0.0
C1908 C 0.64429 0.92142 0.57982 0.0
H1909 H 0.61648 0.86225 0.67179 0.0
H1910 H 0.61414 0.88935 0.64652 0.0
H1911 H 0.59862 0.85889 0.63047 0.0
H1912 H 0.5959 0.87096 0.56999 0.0
H1913 H 0.57121 0.90286 0.54601 0.0
H1914 H 0.64976 0.25333 0.36628 0.0
H1915 H 0.61385 0.22126 0.38186 0.0
H1916 H 0.66846 0.16804 0.39139 0.0
H1917 H 0.7044 0.19999 0.37568 0.0
H1918 H 0.60275 0.17132 0.3399 0.0
H1919 H 0.62255 0.16424 0.48094 0.0
H1920 H 0.63355 0.19227 0.45839 0.0
H1921 H 0.65077 0.16577 0.45514 0.0
C1922 C 0.65418 0.23497 0.37252 0.0
C1923 C 0.67979 0.22904 0.36982 0.0
C1924 C 0.63369 0.21671 0.3812 0.0
C1925 C 0.63868 0.19249 0.38788 0.0
C1926 C 0.66439 0.18678 0.38657 0.0
H1927 H 0.57335 0.0439 0.38651 0.0
H1928 H 0.59034 0.08611 0.37 0.0
C1929 C 0.6848 0.20492 0.37747 0.0
C1930 C 0.61681 0.17239 0.39319 0.0
H1931 H 0.59354 0.1306 0.45191 0.0
C1932 C 0.60028 0.16268 0.36451 0.0
C1933 C 0.6138 0.16135 0.42535 0.0
C1934 C 0.63096 0.17149 0.45687 0.0
C1935 C 0.58167 0.14113 0.36678 0.0
C1936 C 0.57963 0.12931 0.3985 0.0
C1937 C 0.59511 0.1399 0.42765 0.0
C1938 C 0.56444 0.10421 0.40122 0.0
C1939 C 0.56507 0.13054 0.33507 0.0
C1940 C 0.54351 0.1005 0.42307 0.0
C1941 C 0.53352 0.07634 0.43225 0.0
C1942 C 0.5449 0.05575 0.4204 0.0
C1943 C 0.56431 0.05942 0.3962 0.0
C1944 C 0.57398 0.08351 0.38664 0.0
H1945 H 0.56423 0.14479 0.31526 0.0
H1946 H 0.5738 0.11476 0.32371 0.0
H1947 H 0.54466 0.12319 0.34169 0.0
H1948 H 0.53605 0.11637 0.43463 0.0
H1949 H 0.5185 0.07409 0.45085 0.0
H1950 H 0.77025 0.7169 0.42914 0.0
H1951 H 0.80394 0.70772 0.47231 0.0
H1952 H 0.85276 0.69007 0.39083 0.0
H1953 H 0.81934 0.69857 0.34806 0.0
H1954 H 0.82316 0.66226 0.47831 0.0
H1955 H 0.90525 0.73661 0.45561 0.0
H1956 H 0.87124 0.73906 0.44327 0.0
H1957 H 0.89054 0.72271 0.41537 0.0
C1958 C 0.78812 0.71093 0.42055 0.0
C1959 C 0.79228 0.70866 0.3852 0.0
C1960 C 0.80746 0.70606 0.44518 0.0
C1961 C 0.83122 0.69918 0.4347 0.0
C1962 C 0.83504 0.6964 0.39948 0.0
H1963 H 0.91765 0.59387 0.44347 0.0
H1964 H 0.88941 0.62629 0.44188 0.0
C1965 C 0.81581 0.70107 0.37503 0.0
C1966 C 0.85107 0.69178 0.45961 0.0
H1967 H 0.91795 0.69534 0.46938 0.0
C1968 C 0.84384 0.6701 0.4777 0.0
C1969 C 0.878 0.70227 0.45941 0.0
C1970 C 0.88665 0.72664 0.44265 0.0
C1971 C 0.86305 0.65659 0.49104 0.0
C1972 C 0.88994 0.66513 0.48614 0.0
C1973 C 0.89727 0.68867 0.47263 0.0
C1974 C 0.90914 0.6474 0.4865 0.0
C1975 C 0.85418 0.63188 0.50681 0.0
C1976 C 0.93041 0.64938 0.51116 0.0
C1977 C 0.94694 0.63091 0.51182 0.0
C1978 C 0.9421 0.6104 0.48795 0.0
C1979 C 0.92168 0.60939 0.46229 0.0
C1980 C 0.90546 0.62778 0.46148 0.0
H1981 H 0.83687 0.63311 0.5224 0.0
H1982 H 0.84803 0.61737 0.48592 0.0
H1983 H 0.87015 0.62584 0.52332 0.0
H1984 H 0.93355 0.66457 0.53049 0.0
H1985 H 0.96245 0.6319 0.53206 0.0
H1986 H 0.27627 0.84499 0.33213 0.0
H1987 H 0.30463 0.87544 0.37116 0.0
H1988 H 0.3594 0.82286 0.38547 0.0
H1989 H 0.33133 0.79236 0.34669 0.0
H1990 H 0.32769 0.87126 0.44351 0.0
H1991 H 0.40182 0.88666 0.34416 0.0
H1992 H 0.36812 0.87234 0.33381 0.0
H1993 H 0.39112 0.85466 0.35429 0.0
C1994 C 0.29413 0.83974 0.34402 0.0
C1995 C 0.30158 0.81626 0.33604 0.0
C1996 C 0.31031 0.85717 0.36631 0.0
C1997 C 0.33427 0.85151 0.38086 0.0
C1998 C 0.34113 0.82771 0.37423 0.0
H1999 H 0.47023 0.94662 0.48416 0.0
H2000 H 0.43918 0.91012 0.46194 0.0
C2001 C 0.32498 0.81026 0.35209 0.0
C2002 C 0.35292 0.87097 0.40113 0.0
H2003 H 0.41256 0.90817 0.39779 0.0
C2004 C 0.34626 0.87935 0.43358 0.0
C2005 C 0.37721 0.88137 0.3882 0.0
C2006 C 0.38506 0.87351 0.35312 0.0
C2007 C 0.36336 0.89782 0.45352 0.0
C2008 C 0.38743 0.90856 0.44028 0.0
C2009 C 0.39417 0.8999 0.408 0.0
C2010 C 0.40536 0.92973 0.45838 0.0
C2011 C 0.35571 0.90543 0.48877 0.0
C2012 C 0.39661 0.95281 0.46444 0.0
C2013 C 0.4143 0.97375 0.47713 0.0
C2014 C 0.44125 0.97214 0.4838 0.0
C2015 C 0.4497 0.94867 0.47917 0.0
C2016 C 0.43197 0.92774 0.46644 0.0
H2017 H 0.34108 0.89074 0.49914 0.0
H2018 H 0.37326 0.90926 0.50721 0.0
H2019 H 0.34663 0.92279 0.48702 0.0
H2020 H 0.37631 0.95497 0.45787 0.0
H2021 H 0.407 0.99144 0.4803 0.0
H2022 H 0.19966 0.27945 0.33699 0.0
H2023 H 0.173 0.30716 0.3655 0.0
H2024 H 0.22086 0.37136 0.32646 0.0
H2025 H 0.24849 0.34385 0.29995 0.0
H2026 H 0.20943 0.38391 0.38614 0.0
H2027 H 0.11549 0.33744 0.32179 0.0
H2028 H 0.13064 0.31627 0.348 0.0
H2029 H 0.14684 0.32908 0.31111 0.0
C2030 C 0.20465 0.2995 0.33482 0.0
C2031 C 0.22624 0.30936 0.31611 0.0
C2032 C 0.18913 0.3154 0.35079 0.0
C2033 C 0.19417 0.34154 0.34742 0.0
C2034 C 0.21624 0.35137 0.32951 0.0
H2035 H 0.07402 0.4379 0.37457 0.0
H2036 H 0.1038 0.41022 0.35411 0.0
C2037 C 0.23213 0.33555 0.3143 0.0
C2038 C 0.17659 0.3587 0.36216 0.0
H2039 H 0.11216 0.36773 0.36614 0.0
C2040 C 0.18815 0.3804 0.38151 0.0
C2041 C 0.14874 0.35464 0.3559 0.0
C2042 C 0.13473 0.33325 0.33276 0.0
C2043 C 0.17296 0.39802 0.39439 0.0
C2044 C 0.14499 0.39338 0.38943 0.0
C2045 C 0.13346 0.37152 0.37036 0.0
C2046 C 0.12724 0.41115 0.40231 0.0
C2047 C 0.18744 0.42186 0.4118 0.0
C2048 C 0.13003 0.42134 0.43635 0.0
C2049 C 0.11317 0.43767 0.44803 0.0
C2050 C 0.09259 0.44392 0.42619 0.0
C2051 C 0.08952 0.43349 0.39231 0.0
C2052 C 0.10663 0.4175 0.38053 0.0
H2053 H 0.20773 0.42635 0.40286 0.0
H2054 H 0.17692 0.43804 0.40683 0.0
H2055 H 0.18931 0.41944 0.43999 0.0
H2056 H 0.14526 0.41672 0.45408 0.0
H2057 H 0.11619 0.44525 0.47428 0.0
H2058 H 0.30297 0.18603 0.74528 0.0
H2059 H 0.32856 0.15844 0.7146 0.0
H2060 H 0.35326 0.21746 0.64618 0.0
H2061 H 0.32703 0.24476 0.67591 0.0
H2062 H 0.34048 0.17462 0.61029 0.0
H2063 H 0.40645 0.1587 0.72219 0.0
H2064 H 0.37225 0.14938 0.7294 0.0
H2065 H 0.38456 0.18186 0.72364 0.0
C2066 C 0.314 0.19319 0.72386 0.0
C2067 C 0.31304 0.21771 0.71328 0.0
C2068 C 0.32876 0.1774 0.70637 0.0
C2069 C 0.34334 0.1859 0.6783 0.0
C2070 C 0.34231 0.21037 0.66772 0.0
H2071 H 0.47251 0.11901 0.59958 0.0
H2072 H 0.44362 0.1455 0.62517 0.0
C2073 C 0.32734 0.22604 0.6849 0.0
C2074 C 0.35947 0.16939 0.6597 0.0
H2075 H 0.4089 0.13386 0.67145 0.0
C2076 C 0.35548 0.16575 0.62369 0.0
C2077 C 0.37936 0.15799 0.67693 0.0
C2078 C 0.38614 0.16236 0.7151 0.0
C2079 C 0.37067 0.15112 0.60461 0.0
C2080 C 0.39001 0.13915 0.62202 0.0
C2081 C 0.39396 0.14278 0.65799 0.0
C2082 C 0.4073 0.1237 0.60363 0.0
C2083 C 0.3664 0.14933 0.56587 0.0
C2084 C 0.39672 0.10265 0.58231 0.0
C2085 C 0.41337 0.08748 0.56716 0.0
C2086 C 0.44093 0.09279 0.57353 0.0
C2087 C 0.4514 0.11416 0.59426 0.0
C2088 C 0.43485 0.12938 0.60903 0.0
H2089 H 0.35661 0.16494 0.55606 0.0
H2090 H 0.38537 0.14955 0.55336 0.0
H2091 H 0.35347 0.13151 0.55805 0.0
H2092 H 0.37556 0.09749 0.57816 0.0
H2093 H 0.40461 0.07114 0.55146 0.0
H2094 H 0.85387 0.29016 0.70302 0.0
H2095 H 0.88514 0.31994 0.67367 0.0
H2096 H 0.8251 0.36689 0.65683 0.0
H2097 H 0.79367 0.33695 0.68542 0.0
H2098 H 0.85248 0.36641 0.60066 0.0
H2099 H 0.92537 0.3847 0.71195 0.0
H2100 H 0.91898 0.35232 0.69794 0.0
H2101 H 0.89303 0.36704 0.71542 0.0
C2102 C 0.84721 0.30677 0.69302 0.0
C2103 C 0.82098 0.31091 0.69699 0.0
C2104 C 0.86533 0.32407 0.67636 0.0
C2105 C 0.85806 0.34635 0.66329 0.0
C2106 C 0.83167 0.35015 0.66655 0.0
H2107 H 0.96183 0.48389 0.62461 0.0
H2108 H 0.93371 0.44837 0.64606 0.0
C2109 C 0.81356 0.33287 0.68311 0.0
C2110 C 0.87768 0.36569 0.64653 0.0
H2111 H 0.93807 0.40286 0.65987 0.0
C2112 C 0.87122 0.37427 0.6137 0.0
C2113 C 0.90225 0.37658 0.66318 0.0
C2114 C 0.91028 0.36992 0.69918 0.0
C2115 C 0.88821 0.39301 0.59745 0.0
C2116 C 0.91299 0.40358 0.61388 0.0
C2117 C 0.91944 0.39489 0.64663 0.0
C2118 C 0.9314 0.4251 0.59941 0.0
C2119 C 0.87883 0.40197 0.56329 0.0
C2120 C 0.94061 0.42447 0.56571 0.0
C2121 C 0.95707 0.4453 0.55298 0.0
C2122 C 0.96498 0.46741 0.5736 0.0
C2123 C 0.95635 0.46751 0.60752 0.0
C2124 C 0.94007 0.44692 0.62008 0.0
H2125 H 0.85713 0.39691 0.5584 0.0
H2126 H 0.88403 0.42259 0.56207 0.0
H2127 H 0.88848 0.39305 0.54233 0.0
H2128 H 0.93505 0.40789 0.54908 0.0
H2129 H 0.963 0.44429 0.52674 0.0
H2130 H 0.19717 0.70321 0.73164 0.0
H2131 H 0.16795 0.66905 0.70019 0.0
H2132 H 0.22362 0.66878 0.62113 0.0
H2133 H 0.25299 0.70304 0.65222 0.0
H2134 H 0.14852 0.67097 0.62446 0.0
H2135 H 0.20606 0.594 0.65567 0.0
H2136 H 0.20882 0.62237 0.68239 0.0
H2137 H 0.22374 0.6229 0.64177 0.0
C2138 C 0.20327 0.69582 0.70764 0.0
C2139 C 0.22739 0.7058 0.69439 0.0
C2140 C 0.18655 0.67638 0.68973 0.0
C2141 C 0.1938 0.66646 0.65856 0.0
C2142 C 0.21788 0.67618 0.64533 0.0
H2143 H 0.11966 0.54182 0.52394 0.0
H2144 H 0.14984 0.57694 0.55153 0.0
C2145 C 0.23456 0.69574 0.66309 0.0
C2146 C 0.17589 0.64618 0.63955 0.0
H2147 H 0.16776 0.58364 0.61886 0.0
C2148 C 0.15263 0.65185 0.62316 0.0
C2149 C 0.18162 0.62144 0.63781 0.0
C2150 C 0.20633 0.61459 0.65544 0.0
C2151 C 0.13482 0.63327 0.60479 0.0
C2152 C 0.14021 0.60833 0.60371 0.0
C2153 C 0.16367 0.60277 0.61984 0.0
C2154 C 0.1216 0.58759 0.58643 0.0
C2155 C 0.1107 0.64061 0.58621 0.0
C2156 C 0.09581 0.58187 0.59714 0.0
C2157 C 0.07847 0.56191 0.58133 0.0
C2158 C 0.08679 0.5471 0.55489 0.0
C2159 C 0.11271 0.55278 0.5444 0.0
C2160 C 0.12996 0.57285 0.56006 0.0
H2161 H 0.11349 0.6609 0.58103 0.0
H2162 H 0.10585 0.62976 0.56138 0.0
H2163 H 0.09361 0.63671 0.60253 0.0
H2164 H 0.08917 0.59265 0.61802 0.0
H2165 H 0.05865 0.55794 0.59008 0.0
loop_
_geom_bond_atom_site_label_1
_geom_bond_atom_site_label_2
_geom_bond_distance
_geom_bond_site_symmetry_2
_ccdc_geom_bond_type
Co0 N5 2.057 . S
Co0 O17 2.021 . S
Co0 O20 2.062 . S
Co0 O24 2.117 . S
Co0 O25 2.020 . S
C1 O21 1.259 . S
C1 O24 1.258 . S
Co2 N11 2.057 . S
Co2 O18 2.117 . S
Co2 O19 2.020 . S
Co2 O21 2.021 . S
Co2 O26 2.062 . S
C3 N5 1.316 . S
C3 N6 1.347 . S
C3 H8 0.931 . S
C4 N5 1.375 . S
C4 C7 1.350 . S
C4 H9 0.930 . S
N5 Co0 2.057 . S
N5 C3 1.316 . S
N5 C4 1.375 . S
N6 C3 1.347 . S
N6 C7 1.373 . S
C7 C4 1.350 . S
C7 N6 1.373 . S
C7 H28 0.931 . S
H8 C3 0.931 . S
H9 C4 0.930 . S
C10 O17 1.259 . S
C10 O18 1.258 . S
N11 Co2 2.057 . S
N11 C12 1.316 . S
N11 C13 1.375 . S
C12 N11 1.316 . S
C12 N14 1.347 . S
C12 H23 0.931 . S
C13 N11 1.375 . S
C13 C15 1.350 . S
C13 H22 0.930 . S
N14 C12 1.347 . S
N14 C15 1.373 . S
C15 C13 1.350 . S
C15 N14 1.373 . S
C15 H29 0.931 . S
C16 O19 1.256 . S
C16 O20 1.255 . S
O17 Co0 2.021 . S
O17 C10 1.259 . S
O18 Co2 2.117 . S
O18 C10 1.258 . S
O19 Co2 2.020 . S
O19 C16 1.256 . S
O20 Co0 2.062 . S
O20 C16 1.255 . S
O21 C1 1.259 . S
O21 Co2 2.021 . S
H22 C13 0.930 . S
H23 C12 0.931 . S
O24 Co0 2.117 . S
O24 C1 1.258 . S
O25 Co0 2.020 . S
O25 C27 1.256 . S
O26 Co2 2.062 . S
O26 C27 1.255 . S
C27 O25 1.256 . S
C27 O26 1.255 . S
H28 C7 0.931 . S
H29 C15 0.931 . S
Co30 N35 2.057 . S
Co30 O47 2.021 . S
Co30 O50 2.062 . S
Co30 O54 2.117 . S
Co30 O55 2.020 . S
C31 O51 1.259 . S
C31 O54 1.258 . S
Co32 N41 2.057 . S
Co32 O48 2.117 . S
Co32 O49 2.020 . S
Co32 O51 2.021 . S
Co32 O56 2.062 . S
C33 N35 1.316 . S
C33 N36 1.347 . S
C33 H38 0.931 . S
C34 N35 1.375 . S
C34 C37 1.350 . S
C34 H39 0.930 . S
N35 Co30 2.057 . S
N35 C33 1.316 . S
N35 C34 1.375 . S
N36 C33 1.347 . S
N36 C37 1.373 . S
C37 C34 1.350 . S
C37 N36 1.373 . S
C37 H58 0.931 . S
H38 C33 0.931 . S
H39 C34 0.930 . S
C40 O47 1.259 . S
C40 O48 1.258 . S
N41 Co32 2.057 . S
N41 C42 1.316 . S
N41 C43 1.375 . S
C42 N41 1.316 . S
C42 N44 1.347 . S
C42 H53 0.931 . S
C43 N41 1.375 . S
C43 C45 1.350 . S
C43 H52 0.930 . S
N44 C42 1.347 . S
N44 C45 1.373 . S
C45 C43 1.350 . S
C45 N44 1.373 . S
C45 H59 0.931 . S
C46 O49 1.256 . S
C46 O50 1.255 . S
O47 Co30 2.021 . S
O47 C40 1.259 . S
O48 Co32 2.117 . S
O48 C40 1.258 . S
O49 Co32 2.020 . S
O49 C46 1.256 . S
O50 Co30 2.062 . S
O50 C46 1.255 . S
O51 C31 1.259 . S
O51 Co32 2.021 . S
H52 C43 0.930 . S
H53 C42 0.931 . S
O54 Co30 2.117 . S
O54 C31 1.258 . S
O55 Co30 2.020 . S
O55 C57 1.256 . S
O56 Co32 2.062 . S
O56 C57 1.255 . S
C57 O55 1.256 . S
C57 O56 1.255 . S
H58 C37 0.931 . S
H59 C45 0.931 . S
Co60 N65 2.057 . S
Co60 O77 2.021 . S
Co60 O80 2.062 . S
Co60 O84 2.117 . S
Co60 O85 2.020 . S
C61 O81 1.259 . S
C61 O84 1.258 . S
Co62 N71 2.057 . S
Co62 O78 2.117 . S
Co62 O79 2.020 . S
Co62 O81 2.021 . S
Co62 O86 2.062 . S
C63 N65 1.316 . S
C63 N66 1.347 . S
C63 H68 0.931 . S
C64 N65 1.375 . S
C64 C67 1.350 . S
C64 H69 0.930 . S
N65 Co60 2.057 . S
N65 C63 1.316 . S
N65 C64 1.375 . S
N66 C63 1.347 . S
N66 C67 1.373 . S
C67 C64 1.350 . S
C67 N66 1.373 . S
C67 H88 0.931 . S
H68 C63 0.931 . S
H69 C64 0.930 . S
C70 O77 1.259 . S
C70 O78 1.258 . S
N71 Co62 2.057 . S
N71 C72 1.316 . S
N71 C73 1.375 . S
C72 N71 1.316 . S
C72 N74 1.347 . S
C72 H83 0.931 . S
C73 N71 1.375 . S
C73 C75 1.350 . S
C73 H82 0.930 . S
N74 C72 1.347 . S
N74 C75 1.373 . S
C75 C73 1.350 . S
C75 N74 1.373 . S
C75 H89 0.931 . S
C76 O79 1.256 . S
C76 O80 1.255 . S
O77 Co60 2.021 . S
O77 C70 1.259 . S
O78 Co62 2.117 . S
O78 C70 1.258 . S
O79 Co62 2.020 . S
O79 C76 1.256 . S
O80 Co60 2.062 . S
O80 C76 1.255 . S
O81 C61 1.259 . S
O81 Co62 2.021 . S
H82 C73 0.930 . S
H83 C72 0.931 . S
O84 Co60 2.117 . S
O84 C61 1.258 . S
O85 Co60 2.020 . S
O85 C87 1.256 . S
O86 Co62 2.062 . S
O86 C87 1.255 . S
C87 O85 1.256 . S
C87 O86 1.255 . S
H88 C67 0.931 . S
H89 C75 0.931 . S
Co90 N95 2.057 . S
Co90 O107 2.021 . S
Co90 O110 2.062 . S
Co90 O114 2.117 . S
Co90 O115 2.020 . S
C91 O111 1.259 . S
C91 O114 1.258 . S
Co92 N101 2.057 . S
Co92 O108 2.117 . S
Co92 O109 2.020 . S
Co92 O111 2.021 . S
Co92 O116 2.062 . S
C93 N95 1.316 . S
C93 N96 1.347 . S
C93 H98 0.931 . S
C94 N95 1.375 . S
C94 C97 1.350 . S
C94 H99 0.930 . S
N95 Co90 2.057 . S
N95 C93 1.316 . S
N95 C94 1.375 . S
N96 C93 1.347 . S
N96 C97 1.373 . S
C97 C94 1.350 . S
C97 N96 1.373 . S
C97 H118 0.931 . S
H98 C93 0.931 . S
H99 C94 0.930 . S
C100 O107 1.259 . S
C100 O108 1.258 . S
N101 Co92 2.057 . S
N101 C102 1.316 . S
N101 C103 1.375 . S
C102 N101 1.316 . S
C102 N104 1.347 . S
C102 H113 0.931 . S
C103 N101 1.375 . S
C103 C105 1.350 . S
C103 H112 0.930 . S
N104 C102 1.347 . S
N104 C105 1.373 . S
C105 C103 1.350 . S
C105 N104 1.373 . S
C105 H119 0.931 . S
C106 O109 1.256 . S
C106 O110 1.255 . S
O107 Co90 2.021 . S
O107 C100 1.259 . S
O108 Co92 2.117 . S
O108 C100 1.258 . S
O109 Co92 2.020 . S
O109 C106 1.256 . S
O110 Co90 2.062 . S
O110 C106 1.255 . S
O111 C91 1.259 . S
O111 Co92 2.021 . S
H112 C103 0.930 . S
H113 C102 0.931 . S
O114 Co90 2.117 . S
O114 C91 1.258 . S
O115 Co90 2.020 . S
O115 C117 1.256 . S
O116 Co92 2.062 . S
O116 C117 1.255 . S
C117 O115 1.256 . S
C117 O116 1.255 . S
H118 C97 0.931 . S
H119 C105 0.931 . S
Co120 N125 2.057 . S
Co120 O137 2.021 . S
Co120 O140 2.062 . S
Co120 O144 2.117 . S
Co120 O145 2.020 . S
C121 O141 1.259 . S
C121 O144 1.258 . S
Co122 N131 2.057 . S
Co122 O138 2.117 . S
Co122 O139 2.020 . S
Co122 O141 2.021 . S
Co122 O146 2.062 . S
C123 N125 1.316 . S
C123 N126 1.347 . S
C123 H128 0.931 . S
C124 N125 1.375 . S
C124 C127 1.350 . S
C124 H129 0.930 . S
N125 Co120 2.057 . S
N125 C123 1.316 . S
N125 C124 1.375 . S
N126 C123 1.347 . S
N126 C127 1.373 . S
C127 C124 1.350 . S
C127 N126 1.373 . S
C127 H148 0.931 . S
H128 C123 0.931 . S
H129 C124 0.930 . S
C130 O137 1.259 . S
C130 O138 1.258 . S
N131 Co122 2.057 . S
N131 C132 1.316 . S
N131 C133 1.375 . S
C132 N131 1.316 . S
C132 N134 1.347 . S
C132 H143 0.931 . S
C133 N131 1.375 . S
C133 C135 1.350 . S
C133 H142 0.930 . S
N134 C132 1.347 . S
N134 C135 1.373 . S
C135 C133 1.350 . S
C135 N134 1.373 . S
C135 H149 0.931 . S
C136 O139 1.256 . S
C136 O140 1.255 . S
O137 Co120 2.021 . S
O137 C130 1.259 . S
O138 Co122 2.117 . S
O138 C130 1.258 . S
O139 Co122 2.020 . S
O139 C136 1.256 . S
O140 Co120 2.062 . S
O140 C136 1.255 . S
O141 C121 1.259 . S
O141 Co122 2.021 . S
H142 C133 0.930 . S
H143 C132 0.931 . S
O144 Co120 2.117 . S
O144 C121 1.258 . S
O145 Co120 2.020 . S
O145 C147 1.256 . S
O146 Co122 2.062 . S
O146 C147 1.255 . S
C147 O145 1.256 . S
C147 O146 1.255 . S
H148 C127 0.931 . S
H149 C135 0.931 . S
Co150 N155 2.057 . S
Co150 O167 2.021 . S
Co150 O170 2.062 . S
Co150 O174 2.117 . S
Co150 O175 2.020 . S
C151 O171 1.259 . S
C151 O174 1.258 . S
Co152 N161 2.057 . S
Co152 O168 2.117 . S
Co152 O169 2.020 . S
Co152 O171 2.021 . S
Co152 O176 2.062 . S
C153 N155 1.316 . S
C153 N156 1.347 . S
C153 H158 0.931 . S
C154 N155 1.375 . S
C154 C157 1.350 . S
C154 H159 0.930 . S
N155 Co150 2.057 . S
N155 C153 1.316 . S
N155 C154 1.375 . S
N156 C153 1.347 . S
N156 C157 1.373 . S
C157 C154 1.350 . S
C157 N156 1.373 . S
C157 H178 0.931 . S
H158 C153 0.931 . S
H159 C154 0.930 . S
C160 O167 1.259 . S
C160 O168 1.258 . S
N161 Co152 2.057 . S
N161 C162 1.316 . S
N161 C163 1.375 . S
C162 N161 1.316 . S
C162 N164 1.347 . S
C162 H173 0.931 . S
C163 N161 1.375 . S
C163 C165 1.350 . S
C163 H172 0.930 . S
N164 C162 1.347 . S
N164 C165 1.373 . S
C165 C163 1.350 . S
C165 N164 1.373 . S
C165 H179 0.931 . S
C166 O169 1.256 . S
C166 O170 1.255 . S
O167 Co150 2.021 . S
O167 C160 1.259 . S
O168 Co152 2.117 . S
O168 C160 1.258 . S
O169 Co152 2.020 . S
O169 C166 1.256 . S
O170 Co150 2.062 . S
O170 C166 1.255 . S
O171 C151 1.259 . S
O171 Co152 2.021 . S
H172 C163 0.930 . S
H173 C162 0.931 . S
O174 Co150 2.117 . S
O174 C151 1.258 . S
O175 Co150 2.020 . S
O175 C177 1.256 . S
O176 Co152 2.062 . S
O176 C177 1.255 . S
C177 O175 1.256 . S
C177 O176 1.255 . S
H178 C157 0.931 . S
H179 C165 0.931 . S
Co180 N185 2.057 . S
Co180 O197 2.021 . S
Co180 O200 2.062 . S
Co180 O204 2.117 . S
Co180 O205 2.020 . S
C181 O201 1.259 . S
C181 O204 1.258 . S
Co182 N191 2.057 . S
Co182 O198 2.117 . S
Co182 O199 2.020 . S
Co182 O201 2.021 . S
Co182 O206 2.062 . S
C183 N185 1.316 . S
C183 N186 1.347 . S
C183 H188 0.931 . S
C184 N185 1.375 . S
C184 C187 1.350 . S
C184 H189 0.930 . S
N185 Co180 2.057 . S
N185 C183 1.316 . S
N185 C184 1.375 . S
N186 C183 1.347 . S
N186 C187 1.373 . S
C187 C184 1.350 . S
C187 N186 1.373 . S
C187 H208 0.931 . S
H188 C183 0.931 . S
H189 C184 0.930 . S
C190 O197 1.259 . S
C190 O198 1.258 . S
N191 Co182 2.057 . S
N191 C192 1.316 . S
N191 C193 1.375 . S
C192 N191 1.316 . S
C192 N194 1.347 . S
C192 H203 0.931 . S
C193 N191 1.375 . S
C193 C195 1.350 . S
C193 H202 0.930 . S
N194 C192 1.347 . S
N194 C195 1.373 . S
C195 C193 1.350 . S
C195 N194 1.373 . S
C195 H209 0.931 . S
C196 O199 1.256 . S
C196 O200 1.255 . S
O197 Co180 2.021 . S
O197 C190 1.259 . S
O198 Co182 2.117 . S
O198 C190 1.258 . S
O199 Co182 2.020 . S
O199 C196 1.256 . S
O200 Co180 2.062 . S
O200 C196 1.255 . S
O201 C181 1.259 . S
O201 Co182 2.021 . S
H202 C193 0.930 . S
H203 C192 0.931 . S
O204 Co180 2.117 . S
O204 C181 1.258 . S
O205 Co180 2.020 . S
O205 C207 1.256 . S
O206 Co182 2.062 . S
O206 C207 1.255 . S
C207 O205 1.256 . S
C207 O206 1.255 . S
H208 C187 0.931 . S
H209 C195 0.931 . S
Co210 N215 2.057 . S
Co210 O227 2.021 . S
Co210 O230 2.062 . S
Co210 O234 2.117 . S
Co210 O235 2.020 . S
C211 O231 1.259 . S
C211 O234 1.258 . S
Co212 N221 2.057 . S
Co212 O228 2.117 . S
Co212 O229 2.020 . S
Co212 O231 2.021 . S
Co212 O236 2.062 . S
C213 N215 1.316 . S
C213 N216 1.347 . S
C213 H218 0.931 . S
C214 N215 1.375 . S
C214 C217 1.350 . S
C214 H219 0.930 . S
N215 Co210 2.057 . S
N215 C213 1.316 . S
N215 C214 1.375 . S
N216 C213 1.347 . S
N216 C217 1.373 . S
C217 C214 1.350 . S
C217 N216 1.373 . S
C217 H238 0.931 . S
H218 C213 0.931 . S
H219 C214 0.930 . S
C220 O227 1.259 . S
C220 O228 1.258 . S
N221 Co212 2.057 . S
N221 C222 1.316 . S
N221 C223 1.375 . S
C222 N221 1.316 . S
C222 N224 1.347 . S
C222 H233 0.931 . S
C223 N221 1.375 . S
C223 C225 1.350 . S
C223 H232 0.930 . S
N224 C222 1.347 . S
N224 C225 1.373 . S
C225 C223 1.350 . S
C225 N224 1.373 . S
C225 H239 0.931 . S
C226 O229 1.256 . S
C226 O230 1.255 . S
O227 Co210 2.021 . S
O227 C220 1.259 . S
O228 Co212 2.117 . S
O228 C220 1.258 . S
O229 Co212 2.020 . S
O229 C226 1.256 . S
O230 Co210 2.062 . S
O230 C226 1.255 . S
O231 C211 1.259 . S
O231 Co212 2.021 . S
H232 C223 0.930 . S
H233 C222 0.931 . S
O234 Co210 2.117 . S
O234 C211 1.258 . S
O235 Co210 2.020 . S
O235 C237 1.256 . S
O236 Co212 2.062 . S
O236 C237 1.255 . S
C237 O235 1.256 . S
C237 O236 1.255 . S
H238 C217 0.931 . S
H239 C225 0.931 . S
Co240 O243 2.042 . S
Co240 O250 2.264 . S
Co240 O269 2.286 . S
Co240 O270 2.069 . S
Co240 O272 2.015 1_455 S
Co241 O243 2.122 . S
Co241 O249 2.073 . S
Co241 O250 2.327 . S
Co241 O251 1.976 1_455 S
Co242 O243 2.086 1_545 S
Co242 O245 2.088 1_455 S
Co242 O252 2.107 1_445 S
Co242 O253 2.148 . S
Co242 O257 2.116 . S
Co242 O271 2.139 1_445 S
O243 Co240 2.042 . S
O243 Co241 2.122 . S
O243 Co242 2.086 1_565 S
O243 H244 0.980 . S
H244 O243 0.980 . S
O245 Co242 2.088 1_655 S
O245 Co246 2.042 . S
O245 Co247 2.122 . S
O245 H248 0.980 . S
Co246 O245 2.042 . S
Co246 O254 2.286 . S
Co246 O255 2.069 . S
Co246 O256 2.015 1_655 S
Co246 O259 2.264 . S
Co247 O245 2.122 . S
Co247 O258 1.976 1_655 S
Co247 O259 2.327 . S
Co247 O260 2.073 . S
H248 O245 0.980 . S
O249 Co241 2.073 . S
O249 C264 1.245 . S
O250 Co240 2.264 . S
O250 Co241 2.327 . S
O250 C264 1.257 . S
O251 Co241 1.976 1_655 S
O251 C263 1.251 . S
O252 Co242 2.107 1_665 S
O252 C263 1.274 . S
O253 Co242 2.148 . S
O253 C266 1.246 . S
O254 Co246 2.286 . S
O254 C265 1.259 . S
O255 Co246 2.069 . S
O255 C265 1.289 . S
O256 Co246 2.015 1_455 S
O256 C266 1.257 . S
O257 Co242 2.116 . S
O257 C267 1.274 . S
O258 Co247 1.976 1_455 S
O258 C267 1.251 . S
O259 Co246 2.264 . S
O259 Co247 2.327 . S
O259 C268 1.257 . S
O260 Co247 2.073 . S
O260 C268 1.245 . S
C261 O269 1.259 . S
C261 O270 1.289 . S
C262 O271 1.246 . S
C262 O272 1.257 . S
C263 O251 1.251 . S
C263 O252 1.274 . S
C264 O249 1.245 . S
C264 O250 1.257 . S
C265 O254 1.259 . S
C265 O255 1.289 . S
C266 O253 1.246 . S
C266 O256 1.257 . S
C267 O257 1.274 . S
C267 O258 1.251 . S
C268 O259 1.257 . S
C268 O260 1.245 . S
O269 Co240 2.286 . S
O269 C261 1.259 . S
O270 Co240 2.069 . S
O270 C261 1.289 . S
O271 Co242 2.139 1_665 S
O271 C262 1.246 . S
O272 Co240 2.015 1_655 S
O272 C262 1.257 . S
Co273 O276 2.042 1_556 S
Co273 O283 2.264 1_556 S
Co273 O302 2.286 . S
Co273 O303 2.069 . S
Co273 O305 2.015 . S
Co274 O276 2.122 . S
Co274 O282 2.073 . S
Co274 O283 2.327 . S
Co274 O284 1.976 . S
Co275 O276 2.082 1_545 S
Co275 O278 2.091 1_554 S
Co275 O285 2.109 1_545 S
Co275 O286 2.147 . S
Co275 O290 2.113 1_554 S
Co275 O304 2.140 1_544 S
O276 Co273 2.042 1_554 S
O276 Co274 2.122 . S
O276 Co275 2.082 1_565 S
O276 H277 0.980 . S
H277 O276 0.980 . S
O278 Co275 2.091 1_556 S
O278 Co279 2.042 1_556 S
O278 Co280 2.122 . S
O278 H281 0.980 . S
Co279 O278 2.042 1_554 S
Co279 O287 2.286 . S
Co279 O288 2.069 . S
Co279 O289 2.015 . S
Co279 O292 2.264 1_554 S
Co280 O278 2.122 . S
Co280 O291 1.976 . S
Co280 O292 2.327 . S
Co280 O293 2.073 . S
H281 O278 0.980 . S
O282 Co274 2.073 . S
O282 C297 1.245 . S
O283 Co273 2.264 1_554 S
O283 Co274 2.327 . S
O283 C297 1.257 . S
O284 Co274 1.976 . S
O284 C296 1.251 . S
O285 Co275 2.109 1_565 S
O285 C296 1.274 . S
O286 Co275 2.147 . S
O286 C299 1.246 . S
O287 Co279 2.286 . S
O287 C298 1.259 . S
O288 Co279 2.069 . S
O288 C298 1.289 . S
O289 Co279 2.015 . S
O289 C299 1.257 . S
O290 Co275 2.113 1_556 S
O290 C300 1.274 . S
O291 Co280 1.976 . S
O291 C300 1.251 . S
O292 Co279 2.264 1_556 S
O292 Co280 2.327 . S
O292 C301 1.257 . S
O293 Co280 2.073 . S
O293 C301 1.245 . S
C294 O302 1.259 . S
C294 O303 1.289 . S
C295 O304 1.246 . S
C295 O305 1.257 . S
C296 O284 1.251 . S
C296 O285 1.274 . S
C297 O282 1.245 . S
C297 O283 1.257 . S
C298 O287 1.259 . S
C298 O288 1.289 . S
C299 O286 1.246 . S
C299 O289 1.257 . S
C300 O290 1.274 . S
C300 O291 1.251 . S
C301 O292 1.257 . S
C301 O293 1.245 . S
O302 Co273 2.286 . S
O302 C294 1.259 . S
O303 Co273 2.069 . S
O303 C294 1.289 . S
O304 Co275 2.140 1_566 S
O304 C295 1.246 . S
O305 Co273 2.015 . S
O305 C295 1.257 . S
Co306 O309 2.042 1_556 S
Co306 O316 2.264 1_556 S
Co306 O335 2.286 . S
Co306 O336 2.069 . S
Co306 O338 2.015 1_455 S
Co307 O309 2.122 . S
Co307 O315 2.073 . S
Co307 O316 2.327 . S
Co307 O317 1.976 1_455 S
Co308 O309 2.090 . S
Co308 O311 2.084 1_454 S
Co308 O318 2.109 1_455 S
Co308 O319 2.145 . S
Co308 O323 2.114 1_554 S
Co308 O337 2.142 1_454 S
O309 Co306 2.042 1_554 S
O309 Co307 2.122 . S
O309 Co308 2.090 . S
O309 H310 0.980 . S
H310 O309 0.980 . S
O311 Co308 2.084 1_656 S
O311 Co312 2.042 1_556 S
O311 Co313 2.122 . S
O311 H314 0.980 . S
Co312 O311 2.042 1_554 S
Co312 O320 2.286 . S
Co312 O321 2.069 . S
Co312 O322 2.015 1_655 S
Co312 O325 2.264 1_554 S
Co313 O311 2.122 . S
Co313 O324 1.976 1_655 S
Co313 O325 2.327 . S
Co313 O326 2.073 . S
H314 O311 0.980 . S
O315 Co307 2.073 . S
O315 C330 1.245 . S
O316 Co306 2.264 1_554 S
O316 Co307 2.327 . S
O316 C330 1.257 . S
O317 Co307 1.976 1_655 S
O317 C329 1.251 . S
O318 Co308 2.109 1_655 S
O318 C329 1.274 . S
O319 Co308 2.145 . S
O319 C332 1.246 . S
O320 Co312 2.286 . S
O320 C331 1.259 . S
O321 Co312 2.069 . S
O321 C331 1.289 . S
O322 Co312 2.015 1_455 S
O322 C332 1.257 . S
O323 Co308 2.114 1_556 S
O323 C333 1.274 . S
O324 Co313 1.976 1_455 S
O324 C333 1.251 . S
O325 Co312 2.264 1_556 S
O325 Co313 2.327 . S
O325 C334 1.257 . S
O326 Co313 2.073 . S
O326 C334 1.245 . S
C327 O335 1.259 . S
C327 O336 1.289 . S
C328 O337 1.246 . S
C328 O338 1.257 . S
C329 O317 1.251 . S
C329 O318 1.274 . S
C330 O315 1.245 . S
C330 O316 1.257 . S
C331 O320 1.259 . S
C331 O321 1.289 . S
C332 O319 1.246 . S
C332 O322 1.257 . S
C333 O323 1.274 . S
C333 O324 1.251 . S
C334 O325 1.257 . S
C334 O326 1.245 . S
O335 Co306 2.286 . S
O335 C327 1.259 . S
O336 Co306 2.069 . S
O336 C327 1.289 . S
O337 Co308 2.142 1_656 S
O337 C328 1.246 . S
O338 Co306 2.015 1_655 S
O338 C328 1.257 . S
Co339 O342 2.042 1_556 S
Co339 O349 2.264 1_556 S
Co339 O368 2.286 . S
Co339 O369 2.069 . S
Co339 O371 2.015 . S
Co340 O342 2.122 . S
Co340 O348 2.073 . S
Co340 O349 2.327 . S
Co340 O350 1.976 . S
Co341 O342 2.087 . S
Co341 O344 2.087 1_554 S
Co341 O351 2.111 . S
Co341 O352 2.143 . S
Co341 O356 2.111 1_554 S
Co341 O370 2.143 1_554 S
O342 Co339 2.042 1_554 S
O342 Co340 2.122 . S
O342 Co341 2.087 . S
O342 H343 0.980 . S
H343 O342 0.980 . S
O344 Co341 2.087 1_556 S
O344 Co345 2.042 1_556 S
O344 Co346 2.122 . S
O344 H347 0.980 . S
Co345 O344 2.042 1_554 S
Co345 O353 2.286 . S
Co345 O354 2.069 . S
Co345 O355 2.015 . S
Co345 O358 2.264 1_554 S
Co346 O344 2.122 . S
Co346 O357 1.976 . S
Co346 O358 2.327 . S
Co346 O359 2.073 . S
H347 O344 0.980 . S
O348 Co340 2.073 . S
O348 C363 1.245 . S
O349 Co339 2.264 1_554 S
O349 Co340 2.327 . S
O349 C363 1.257 . S
O350 Co340 1.976 . S
O350 C362 1.251 . S
O351 Co341 2.111 . S
O351 C362 1.274 . S
O352 Co341 2.143 . S
O352 C365 1.246 . S
O353 Co345 2.286 . S
O353 C364 1.259 . S
O354 Co345 2.069 . S
O354 C364 1.289 . S
O355 Co345 2.015 . S
O355 C365 1.257 . S
O356 Co341 2.111 1_556 S
O356 C366 1.274 . S
O357 Co346 1.976 . S
O357 C366 1.251 . S
O358 Co345 2.264 1_556 S
O358 Co346 2.327 . S
O358 C367 1.257 . S
O359 Co346 2.073 . S
O359 C367 1.245 . S
C360 O368 1.259 . S
C360 O369 1.289 . S
C361 O370 1.246 . S
C361 O371 1.257 . S
C362 O350 1.251 . S
C362 O351 1.274 . S
C363 O348 1.245 . S
C363 O349 1.257 . S
C364 O353 1.259 . S
C364 O354 1.289 . S
C365 O352 1.246 . S
C365 O355 1.257 . S
C366 O356 1.274 . S
C366 O357 1.251 . S
C367 O358 1.257 . S
C367 O359 1.245 . S
O368 Co339 2.286 . S
O368 C360 1.259 . S
O369 Co339 2.069 . S
O369 C360 1.289 . S
O370 Co341 2.143 1_556 S
O370 C361 1.246 . S
O371 Co339 2.015 . S
O371 C361 1.257 . S
Co372 O375 2.042 . S
Co372 O382 2.264 . S
Co372 O401 2.286 . S
Co372 O402 2.069 . S
Co372 O404 2.015 . S
Co373 O375 2.122 . S
Co373 O381 2.073 . S
Co373 O382 2.327 . S
Co373 O383 1.976 . S
Co374 O375 2.090 . S
Co374 O377 2.084 1_455 S
Co374 O384 2.113 . S
Co374 O385 2.141 1_455 S
Co374 O389 2.110 1_455 S
Co374 O403 2.146 . S
O375 Co372 2.042 . S
O375 Co373 2.122 . S
O375 Co374 2.090 . S
O375 H376 0.980 . S
H376 O375 0.980 . S
O377 Co374 2.084 1_655 S
O377 Co378 2.042 . S
O377 Co379 2.122 . S
O377 H380 0.980 . S
Co378 O377 2.042 . S
Co378 O386 2.286 . S
Co378 O387 2.069 . S
Co378 O388 2.015 . S
Co378 O391 2.264 . S
Co379 O377 2.122 . S
Co379 O390 1.976 . S
Co379 O391 2.327 . S
Co379 O392 2.073 . S
H380 O377 0.980 . S
O381 Co373 2.073 . S
O381 C396 1.245 . S
O382 Co372 2.264 . S
O382 Co373 2.327 . S
O382 C396 1.257 . S
O383 Co373 1.976 . S
O383 C395 1.251 . S
O384 Co374 2.113 . S
O384 C395 1.274 . S
O385 Co374 2.141 1_655 S
O385 C398 1.246 . S
O386 Co378 2.286 . S
O386 C397 1.259 . S
O387 Co378 2.069 . S
O387 C397 1.289 . S
O388 Co378 2.015 . S
O388 C398 1.257 . S
O389 Co374 2.110 1_655 S
O389 C399 1.274 . S
O390 Co379 1.976 . S
O390 C399 1.251 . S
O391 Co378 2.264 . S
O391 Co379 2.327 . S
O391 C400 1.257 . S
O392 Co379 2.073 . S
O392 C400 1.245 . S
C393 O401 1.259 . S
C393 O402 1.289 . S
C394 O403 1.246 . S
C394 O404 1.257 . S
C395 O383 1.251 . S
C395 O384 1.274 . S
C396 O381 1.245 . S
C396 O382 1.257 . S
C397 O386 1.259 . S
C397 O387 1.289 . S
C398 O385 1.246 . S
C398 O388 1.257 . S
C399 O389 1.274 . S
C399 O390 1.251 . S
C400 O391 1.257 . S
C400 O392 1.245 . S
O401 Co372 2.286 . S
O401 C393 1.259 . S
O402 Co372 2.069 . S
O402 C393 1.289 . S
O403 Co374 2.146 . S
O403 C394 1.246 . S
O404 Co372 2.015 . S
O404 C394 1.257 . S
Co405 O408 2.042 . S
Co405 O415 2.264 . S
Co405 O434 2.286 . S
Co405 O435 2.069 . S
Co405 O437 2.015 1_565 S
Co406 O408 2.122 . S
Co406 O414 2.073 . S
Co406 O415 2.327 . S
Co406 O416 1.976 1_565 S
Co407 O408 2.082 1_545 S
Co407 O410 2.091 . S
Co407 O417 2.115 . S
Co407 O418 2.141 1_545 S
Co407 O422 2.108 1_545 S
Co407 O436 2.146 . S
O408 Co405 2.042 . S
O408 Co406 2.122 . S
O408 Co407 2.082 1_565 S
O408 H409 0.980 . S
H409 O408 0.980 . S
O410 Co407 2.091 . S
O410 Co411 2.042 . S
O410 Co412 2.122 . S
O410 H413 0.980 . S
Co411 O410 2.042 . S
Co411 O419 2.286 . S
Co411 O420 2.069 . S
Co411 O421 2.015 1_545 S
Co411 O424 2.264 . S
Co412 O410 2.122 . S
Co412 O423 1.976 1_545 S
Co412 O424 2.327 . S
Co412 O425 2.073 . S
H413 O410 0.980 . S
O414 Co406 2.073 . S
O414 C429 1.245 . S
O415 Co405 2.264 . S
O415 Co406 2.327 . S
O415 C429 1.257 . S
O416 Co406 1.976 1_545 S
O416 C428 1.251 . S
O417 Co407 2.115 . S
O417 C428 1.274 . S
O418 Co407 2.141 1_565 S
O418 C431 1.246 . S
O419 Co411 2.286 . S
O419 C430 1.259 . S
O420 Co411 2.069 . S
O420 C430 1.289 . S
O421 Co411 2.015 1_565 S
O421 C431 1.257 . S
O422 Co407 2.108 1_565 S
O422 C432 1.274 . S
O423 Co412 1.976 1_565 S
O423 C432 1.251 . S
O424 Co411 2.264 . S
O424 Co412 2.327 . S
O424 C433 1.257 . S
O425 Co412 2.073 . S
O425 C433 1.245 . S
C426 O434 1.259 . S
C426 O435 1.289 . S
C427 O436 1.246 . S
C427 O437 1.257 . S
C428 O416 1.251 . S
C428 O417 1.274 . S
C429 O414 1.245 . S
C429 O415 1.257 . S
C430 O419 1.259 . S
C430 O420 1.289 . S
C431 O418 1.246 . S
C431 O421 1.257 . S
C432 O422 1.274 . S
C432 O423 1.251 . S
C433 O424 1.257 . S
C433 O425 1.245 . S
O434 Co405 2.286 . S
O434 C426 1.259 . S
O435 Co405 2.069 . S
O435 C426 1.289 . S
O436 Co407 2.146 . S
O436 C427 1.246 . S
O437 Co405 2.015 1_545 S
O437 C427 1.257 . S
H438 C446 0.929 . S
H439 C448 0.930 . S
H440 C450 0.930 . S
H441 C453 0.929 . S
H442 C456 0.930 . S
H443 C458 0.960 . S
H444 C458 0.960 . S
H445 C458 0.960 . S
C446 H438 0.929 . S
C446 C447 1.377 . S
C446 C448 1.384 . S
C447 C446 1.377 . S
C447 C453 1.390 . S
C448 H439 0.930 . S
C448 C446 1.384 . S
C448 C449 1.372 . S
C449 C448 1.372 . S
C449 C450 1.400 . S
C449 C454 1.490 . S
C450 H440 0.930 . S
C450 C449 1.400 . S
C450 C453 1.386 . S
H451 C467 0.930 . S
H452 C468 0.931 . S
C453 H441 0.929 . S
C453 C447 1.390 . S
C453 C450 1.386 . S
C454 C449 1.490 . S
C454 C456 1.395 . S
C454 C457 1.403 . S
H455 C461 0.930 . S
C456 H442 0.930 . S
C456 C454 1.395 . S
C456 C459 1.403 . S
C457 C454 1.403 . S
C457 C458 1.524 . S
C457 C461 1.400 . S
C458 H443 0.960 . S
C458 H444 0.960 . S
C458 H445 0.960 . S
C458 C457 1.524 . S
C459 C456 1.403 . S
C459 C460 1.392 . S
C459 C463 1.495 . S
C460 C459 1.392 . S
C460 C461 1.385 . S
C460 C462 1.478 . S
C461 H455 0.930 . S
C461 C457 1.400 . S
C461 C460 1.385 . S
C462 C460 1.478 . S
C462 C464 1.381 . S
C462 C468 1.383 . S
C463 C459 1.495 . S
C463 H469 0.959 . S
C463 H470 0.961 . S
C463 H471 0.960 . S
C464 C462 1.381 . S
C464 C465 1.394 . S
C464 H472 0.930 . S
C465 C464 1.394 . S
C465 C466 1.383 . S
C465 H473 0.929 . S
C466 C465 1.383 . S
C466 C467 1.377 . S
C467 H451 0.930 . S
C467 C466 1.377 . S
C467 C468 1.379 . S
C468 H452 0.931 . S
C468 C462 1.383 . S
C468 C467 1.379 . S
H469 C463 0.959 . S
H470 C463 0.961 . S
H471 C463 0.960 . S
H472 C464 0.930 . S
H473 C465 0.929 . S
H474 C482 0.929 . S
H475 C484 0.930 . S
H476 C486 0.930 . S
H477 C489 0.929 . S
H478 C492 0.930 . S
H479 C494 0.960 . S
H480 C494 0.960 . S
H481 C494 0.960 . S
C482 H474 0.929 . S
C482 C483 1.377 . S
C482 C484 1.384 . S
C483 C482 1.377 . S
C483 C489 1.390 . S
C484 H475 0.930 . S
C484 C482 1.384 . S
C484 C485 1.372 . S
C485 C484 1.372 . S
C485 C486 1.400 . S
C485 C490 1.490 . S
C486 H476 0.930 . S
C486 C485 1.400 . S
C486 C489 1.386 . S
H487 C503 0.930 . S
H488 C504 0.931 . S
C489 H477 0.929 . S
C489 C483 1.390 . S
C489 C486 1.386 . S
C490 C485 1.490 . S
C490 C492 1.395 . S
C490 C493 1.403 . S
H491 C497 0.930 . S
C492 H478 0.930 . S
C492 C490 1.395 . S
C492 C495 1.403 . S
C493 C490 1.403 . S
C493 C494 1.524 . S
C493 C497 1.400 . S
C494 H479 0.960 . S
C494 H480 0.960 . S
C494 H481 0.960 . S
C494 C493 1.524 . S
C495 C492 1.403 . S
C495 C496 1.392 . S
C495 C499 1.495 . S
C496 C495 1.392 . S
C496 C497 1.385 . S
C496 C498 1.478 . S
C497 H491 0.930 . S
C497 C493 1.400 . S
C497 C496 1.385 . S
C498 C496 1.478 . S
C498 C500 1.381 . S
C498 C504 1.383 . S
C499 C495 1.495 . S
C499 H505 0.959 . S
C499 H506 0.961 . S
C499 H507 0.960 . S
C500 C498 1.381 . S
C500 C501 1.394 . S
C500 H508 0.930 . S
C501 C500 1.394 . S
C501 C502 1.383 . S
C501 H509 0.929 . S
C502 C501 1.383 . S
C502 C503 1.377 . S
C503 H487 0.930 . S
C503 C502 1.377 . S
C503 C504 1.379 . S
C504 H488 0.931 . S
C504 C498 1.383 . S
C504 C503 1.379 . S
H505 C499 0.959 . S
H506 C499 0.961 . S
H507 C499 0.960 . S
H508 C500 0.930 . S
H509 C501 0.929 . S
H510 C518 0.929 . S
H511 C520 0.930 . S
H512 C522 0.930 . S
H513 C525 0.929 . S
H514 C528 0.930 . S
H515 C530 0.960 . S
H516 C530 0.960 . S
H517 C530 0.960 . S
C518 H510 0.929 . S
C518 C519 1.377 . S
C518 C520 1.384 . S
C519 C518 1.377 . S
C519 C525 1.390 . S
C520 H511 0.930 . S
C520 C518 1.384 . S
C520 C521 1.372 . S
C521 C520 1.372 . S
C521 C522 1.400 . S
C521 C526 1.490 . S
C522 H512 0.930 . S
C522 C521 1.400 . S
C522 C525 1.386 . S
H523 C539 0.930 . S
H524 C540 0.931 . S
C525 H513 0.929 . S
C525 C519 1.390 . S
C525 C522 1.386 . S
C526 C521 1.490 . S
C526 C528 1.395 . S
C526 C529 1.403 . S
H527 C533 0.930 . S
C528 H514 0.930 . S
C528 C526 1.395 . S
C528 C531 1.403 . S
C529 C526 1.403 . S
C529 C530 1.524 . S
C529 C533 1.400 . S
C530 H515 0.960 . S
C530 H516 0.960 . S
C530 H517 0.960 . S
C530 C529 1.524 . S
C531 C528 1.403 . S
C531 C532 1.392 . S
C531 C535 1.495 . S
C532 C531 1.392 . S
C532 C533 1.385 . S
C532 C534 1.478 . S
C533 H527 0.930 . S
C533 C529 1.400 . S
C533 C532 1.385 . S
C534 C532 1.478 . S
C534 C536 1.381 . S
C534 C540 1.383 . S
C535 C531 1.495 . S
C535 H541 0.959 . S
C535 H542 0.961 . S
C535 H543 0.960 . S
C536 C534 1.381 . S
C536 C537 1.394 . S
C536 H544 0.930 . S
C537 C536 1.394 . S
C537 C538 1.383 . S
C537 H545 0.929 . S
C538 C537 1.383 . S
C538 C539 1.377 . S
C539 H523 0.930 . S
C539 C538 1.377 . S
C539 C540 1.379 . S
C540 H524 0.931 . S
C540 C534 1.383 . S
C540 C539 1.379 . S
H541 C535 0.959 . S
H542 C535 0.961 . S
H543 C535 0.960 . S
H544 C536 0.930 . S
H545 C537 0.929 . S
H546 C554 0.929 . S
H547 C556 0.930 . S
H548 C558 0.930 . S
H549 C561 0.929 . S
H550 C564 0.930 . S
H551 C566 0.960 . S
H552 C566 0.960 . S
H553 C566 0.960 . S
C554 H546 0.929 . S
C554 C555 1.377 . S
C554 C556 1.384 . S
C555 C554 1.377 . S
C555 C561 1.390 . S
C556 H547 0.930 . S
C556 C554 1.384 . S
C556 C557 1.372 . S
C557 C556 1.372 . S
C557 C558 1.400 . S
C557 C562 1.490 . S
C558 H548 0.930 . S
C558 C557 1.400 . S
C558 C561 1.386 . S
H559 C575 0.930 . S
H560 C576 0.931 . S
C561 H549 0.929 . S
C561 C555 1.390 . S
C561 C558 1.386 . S
C562 C557 1.490 . S
C562 C564 1.395 . S
C562 C565 1.403 . S
H563 C569 0.930 . S
C564 H550 0.930 . S
C564 C562 1.395 . S
C564 C567 1.403 . S
C565 C562 1.403 . S
C565 C566 1.524 . S
C565 C569 1.400 . S
C566 H551 0.960 . S
C566 H552 0.960 . S
C566 H553 0.960 . S
C566 C565 1.524 . S
C567 C564 1.403 . S
C567 C568 1.392 . S
C567 C571 1.495 . S
C568 C567 1.392 . S
C568 C569 1.385 . S
C568 C570 1.478 . S
C569 H563 0.930 . S
C569 C565 1.400 . S
C569 C568 1.385 . S
C570 C568 1.478 . S
C570 C572 1.381 . S
C570 C576 1.383 . S
C571 C567 1.495 . S
C571 H577 0.959 . S
C571 H578 0.961 . S
C571 H579 0.960 . S
C572 C570 1.381 . S
C572 C573 1.394 . S
C572 H580 0.930 . S
C573 C572 1.394 . S
C573 C574 1.383 . S
C573 H581 0.929 . S
C574 C573 1.383 . S
C574 C575 1.377 . S
C575 H559 0.930 . S
C575 C574 1.377 . S
C575 C576 1.379 . S
C576 H560 0.931 . S
C576 C570 1.383 . S
C576 C575 1.379 . S
H577 C571 0.959 . S
H578 C571 0.961 . S
H579 C571 0.960 . S
H580 C572 0.930 . S
H581 C573 0.929 . S
H582 C590 0.929 . S
H583 C592 0.930 . S
H584 C594 0.930 . S
H585 C597 0.929 . S
H586 C600 0.930 . S
H587 C602 0.960 . S
H588 C602 0.960 . S
H589 C602 0.960 . S
C590 H582 0.929 . S
C590 C591 1.377 . S
C590 C592 1.384 . S
C591 C590 1.377 . S
C591 C597 1.390 . S
C592 H583 0.930 . S
C592 C590 1.384 . S
C592 C593 1.372 . S
C593 C592 1.372 . S
C593 C594 1.400 . S
C593 C598 1.490 . S
C594 H584 0.930 . S
C594 C593 1.400 . S
C594 C597 1.386 . S
H595 C611 0.930 . S
H596 C612 0.931 . S
C597 H585 0.929 . S
C597 C591 1.390 . S
C597 C594 1.386 . S
C598 C593 1.490 . S
C598 C600 1.395 . S
C598 C601 1.403 . S
H599 C605 0.930 . S
C600 H586 0.930 . S
C600 C598 1.395 . S
C600 C603 1.403 . S
C601 C598 1.403 . S
C601 C602 1.524 . S
C601 C605 1.400 . S
C602 H587 0.960 . S
C602 H588 0.960 . S
C602 H589 0.960 . S
C602 C601 1.524 . S
C603 C600 1.403 . S
C603 C604 1.392 . S
C603 C607 1.495 . S
C604 C603 1.392 . S
C604 C605 1.385 . S
C604 C606 1.478 . S
C605 H599 0.930 . S
C605 C601 1.400 . S
C605 C604 1.385 . S
C606 C604 1.478 . S
C606 C608 1.381 . S
C606 C612 1.383 . S
C607 C603 1.495 . S
C607 H613 0.959 . S
C607 H614 0.961 . S
C607 H615 0.960 . S
C608 C606 1.381 . S
C608 C609 1.394 . S
C608 H616 0.930 . S
C609 C608 1.394 . S
C609 C610 1.383 . S
C609 H617 0.929 . S
C610 C609 1.383 . S
C610 C611 1.377 . S
C611 H595 0.930 . S
C611 C610 1.377 . S
C611 C612 1.379 . S
C612 H596 0.931 . S
C612 C606 1.383 . S
C612 C611 1.379 . S
H613 C607 0.959 . S
H614 C607 0.961 . S
H615 C607 0.960 . S
H616 C608 0.930 . S
H617 C609 0.929 . S
H618 C626 0.929 . S
H619 C628 0.930 . S
H620 C630 0.930 . S
H621 C633 0.929 . S
H622 C636 0.930 . S
H623 C638 0.960 . S
H624 C638 0.960 . S
H625 C638 0.960 . S
C626 H618 0.929 . S
C626 C627 1.377 . S
C626 C628 1.384 . S
C627 C626 1.377 . S
C627 C633 1.390 . S
C628 H619 0.930 . S
C628 C626 1.384 . S
C628 C629 1.372 . S
C629 C628 1.372 . S
C629 C630 1.400 . S
C629 C634 1.490 . S
C630 H620 0.930 . S
C630 C629 1.400 . S
C630 C633 1.386 . S
H631 C647 0.930 . S
H632 C648 0.931 . S
C633 H621 0.929 . S
C633 C627 1.390 . S
C633 C630 1.386 . S
C634 C629 1.490 . S
C634 C636 1.395 . S
C634 C637 1.403 . S
H635 C641 0.930 . S
C636 H622 0.930 . S
C636 C634 1.395 . S
C636 C639 1.403 . S
C637 C634 1.403 . S
C637 C638 1.524 . S
C637 C641 1.400 . S
C638 H623 0.960 . S
C638 H624 0.960 . S
C638 H625 0.960 . S
C638 C637 1.524 . S
C639 C636 1.403 . S
C639 C640 1.392 . S
C639 C643 1.495 . S
C640 C639 1.392 . S
C640 C641 1.385 . S
C640 C642 1.478 . S
C641 H635 0.930 . S
C641 C637 1.400 . S
C641 C640 1.385 . S
C642 C640 1.478 . S
C642 C644 1.381 . S
C642 C648 1.383 . S
C643 C639 1.495 . S
C643 H649 0.959 . S
C643 H650 0.961 . S
C643 H651 0.960 . S
C644 C642 1.381 . S
C644 C645 1.394 . S
C644 H652 0.930 . S
C645 C644 1.394 . S
C645 C646 1.383 . S
C645 H653 0.929 . S
C646 C645 1.383 . S
C646 C647 1.377 . S
C647 H631 0.930 . S
C647 C646 1.377 . S
C647 C648 1.379 . S
C648 H632 0.931 . S
C648 C642 1.383 . S
C648 C647 1.379 . S
H649 C643 0.959 . S
H650 C643 0.961 . S
H651 C643 0.960 . S
H652 C644 0.930 . S
H653 C645 0.929 . S
H654 C662 0.929 . S
H655 C664 0.930 . S
H656 C666 0.930 . S
H657 C669 0.929 . S
H658 C672 0.930 . S
H659 C674 0.960 . S
H660 C674 0.960 . S
H661 C674 0.960 . S
C662 H654 0.929 . S
C662 C663 1.377 . S
C662 C664 1.384 . S
C663 C662 1.377 . S
C663 C669 1.390 . S
C664 H655 0.930 . S
C664 C662 1.384 . S
C664 C665 1.372 . S
C665 C664 1.372 . S
C665 C666 1.400 . S
C665 C670 1.490 . S
C666 H656 0.930 . S
C666 C665 1.400 . S
C666 C669 1.386 . S
H667 C683 0.930 . S
H668 C684 0.931 . S
C669 H657 0.929 . S
C669 C663 1.390 . S
C669 C666 1.386 . S
C670 C665 1.490 . S
C670 C672 1.395 . S
C670 C673 1.403 . S
H671 C677 0.930 . S
C672 H658 0.930 . S
C672 C670 1.395 . S
C672 C675 1.403 . S
C673 C670 1.403 . S
C673 C674 1.524 . S
C673 C677 1.400 . S
C674 H659 0.960 . S
C674 H660 0.960 . S
C674 H661 0.960 . S
C674 C673 1.524 . S
C675 C672 1.403 . S
C675 C676 1.392 . S
C675 C679 1.495 . S
C676 C675 1.392 . S
C676 C677 1.385 . S
C676 C678 1.478 . S
C677 H671 0.930 . S
C677 C673 1.400 . S
C677 C676 1.385 . S
C678 C676 1.478 . S
C678 C680 1.381 . S
C678 C684 1.383 . S
C679 C675 1.495 . S
C679 H685 0.959 . S
C679 H686 0.961 . S
C679 H687 0.960 . S
C680 C678 1.381 . S
C680 C681 1.394 . S
C680 H688 0.930 . S
C681 C680 1.394 . S
C681 C682 1.383 . S
C681 H689 0.929 . S
C682 C681 1.383 . S
C682 C683 1.377 . S
C683 H667 0.930 . S
C683 C682 1.377 . S
C683 C684 1.379 . S
C684 H668 0.931 . S
C684 C678 1.383 . S
C684 C683 1.379 . S
H685 C679 0.959 . S
H686 C679 0.961 . S
H687 C679 0.960 . S
H688 C680 0.930 . S
H689 C681 0.929 . S
H690 C698 0.929 . S
H691 C700 0.930 . S
H692 C702 0.930 . S
H693 C705 0.929 . S
H694 C708 0.930 . S
H695 C710 0.960 . S
H696 C710 0.960 . S
H697 C710 0.960 . S
C698 H690 0.929 . S
C698 C699 1.377 . S
C698 C700 1.384 . S
C699 C698 1.377 . S
C699 C705 1.390 . S
C700 H691 0.930 . S
C700 C698 1.384 . S
C700 C701 1.372 . S
C701 C700 1.372 . S
C701 C702 1.400 . S
C701 C706 1.490 . S
C702 H692 0.930 . S
C702 C701 1.400 . S
C702 C705 1.386 . S
H703 C719 0.930 . S
H704 C720 0.931 . S
C705 H693 0.929 . S
C705 C699 1.390 . S
C705 C702 1.386 . S
C706 C701 1.490 . S
C706 C708 1.395 . S
C706 C709 1.403 . S
H707 C713 0.930 . S
C708 H694 0.930 . S
C708 C706 1.395 . S
C708 C711 1.403 . S
C709 C706 1.403 . S
C709 C710 1.524 . S
C709 C713 1.400 . S
C710 H695 0.960 . S
C710 H696 0.960 . S
C710 H697 0.960 . S
C710 C709 1.524 . S
C711 C708 1.403 . S
C711 C712 1.392 . S
C711 C715 1.495 . S
C712 C711 1.392 . S
C712 C713 1.385 . S
C712 C714 1.478 . S
C713 H707 0.930 . S
C713 C709 1.400 . S
C713 C712 1.385 . S
C714 C712 1.478 . S
C714 C716 1.381 . S
C714 C720 1.383 . S
C715 C711 1.495 . S
C715 H721 0.959 . S
C715 H722 0.961 . S
C715 H723 0.960 . S
C716 C714 1.381 . S
C716 C717 1.394 . S
C716 H724 0.930 . S
C717 C716 1.394 . S
C717 C718 1.383 . S
C717 H725 0.929 . S
C718 C717 1.383 . S
C718 C719 1.377 . S
C719 H703 0.930 . S
C719 C718 1.377 . S
C719 C720 1.379 . S
C720 H704 0.931 . S
C720 C714 1.383 . S
C720 C719 1.379 . S
H721 C715 0.959 . S
H722 C715 0.961 . S
H723 C715 0.960 . S
H724 C716 0.930 . S
H725 C717 0.929 . S
H726 C734 0.929 . S
H727 C736 0.930 . S
H728 C738 0.930 . S
H729 C741 0.929 . S
H730 C744 0.930 . S
H731 C746 0.960 . S
H732 C746 0.960 . S
H733 C746 0.960 . S
C734 H726 0.929 . S
C734 C735 1.377 . S
C734 C736 1.384 . S
C735 C734 1.377 . S
C735 C741 1.390 . S
C736 H727 0.930 . S
C736 C734 1.384 . S
C736 C737 1.372 . S
C737 C736 1.372 . S
C737 C738 1.400 . S
C737 C742 1.490 . S
C738 H728 0.930 . S
C738 C737 1.400 . S
C738 C741 1.386 . S
H739 C755 0.930 . S
H740 C756 0.931 . S
C741 H729 0.929 . S
C741 C735 1.390 . S
C741 C738 1.386 . S
C742 C737 1.490 . S
C742 C744 1.395 . S
C742 C745 1.403 . S
H743 C749 0.930 . S
C744 H730 0.930 . S
C744 C742 1.395 . S
C744 C747 1.403 . S
C745 C742 1.403 . S
C745 C746 1.524 . S
C745 C749 1.400 . S
C746 H731 0.960 . S
C746 H732 0.960 . S
C746 H733 0.960 . S
C746 C745 1.524 . S
C747 C744 1.403 . S
C747 C748 1.392 . S
C747 C751 1.495 . S
C748 C747 1.392 . S
C748 C749 1.385 . S
C748 C750 1.478 . S
C749 H743 0.930 . S
C749 C745 1.400 . S
C749 C748 1.385 . S
C750 C748 1.478 . S
C750 C752 1.381 . S
C750 C756 1.383 . S
C751 C747 1.495 . S
C751 H757 0.959 . S
C751 H758 0.961 . S
C751 H759 0.960 . S
C752 C750 1.381 . S
C752 C753 1.394 . S
C752 H760 0.930 . S
C753 C752 1.394 . S
C753 C754 1.383 . S
C753 H761 0.929 . S
C754 C753 1.383 . S
C754 C755 1.377 . S
C755 H739 0.930 . S
C755 C754 1.377 . S
C755 C756 1.379 . S
C756 H740 0.931 . S
C756 C750 1.383 . S
C756 C755 1.379 . S
H757 C751 0.959 . S
H758 C751 0.961 . S
H759 C751 0.960 . S
H760 C752 0.930 . S
H761 C753 0.929 . S
H762 C770 0.929 . S
H763 C772 0.930 . S
H764 C774 0.930 . S
H765 C777 0.929 . S
H766 C780 0.930 . S
H767 C782 0.960 . S
H768 C782 0.960 . S
H769 C782 0.960 . S
C770 H762 0.929 . S
C770 C771 1.377 . S
C770 C772 1.384 . S
C771 C770 1.377 . S
C771 C777 1.390 . S
C772 H763 0.930 . S
C772 C770 1.384 . S
C772 C773 1.372 . S
C773 C772 1.372 . S
C773 C774 1.400 . S
C773 C778 1.490 . S
C774 H764 0.930 . S
C774 C773 1.400 . S
C774 C777 1.386 . S
H775 C791 0.930 . S
H776 C792 0.931 . S
C777 H765 0.929 . S
C777 C771 1.390 . S
C777 C774 1.386 . S
C778 C773 1.490 . S
C778 C780 1.395 . S
C778 C781 1.403 . S
H779 C785 0.930 . S
C780 H766 0.930 . S
C780 C778 1.395 . S
C780 C783 1.403 . S
C781 C778 1.403 . S
C781 C782 1.524 . S
C781 C785 1.400 . S
C782 H767 0.960 . S
C782 H768 0.960 . S
C782 H769 0.960 . S
C782 C781 1.524 . S
C783 C780 1.403 . S
C783 C784 1.392 . S
C783 C787 1.495 . S
C784 C783 1.392 . S
C784 C785 1.385 . S
C784 C786 1.478 . S
C785 H779 0.930 . S
C785 C781 1.400 . S
C785 C784 1.385 . S
C786 C784 1.478 . S
C786 C788 1.381 . S
C786 C792 1.383 . S
C787 C783 1.495 . S
C787 H793 0.959 . S
C787 H794 0.961 . S
C787 H795 0.960 . S
C788 C786 1.381 . S
C788 C789 1.394 . S
C788 H796 0.930 . S
C789 C788 1.394 . S
C789 C790 1.383 . S
C789 H797 0.929 . S
C790 C789 1.383 . S
C790 C791 1.377 . S
C791 H775 0.930 . S
C791 C790 1.377 . S
C791 C792 1.379 . S
C792 H776 0.931 . S
C792 C786 1.383 . S
C792 C791 1.379 . S
H793 C787 0.959 . S
H794 C787 0.961 . S
H795 C787 0.960 . S
H796 C788 0.930 . S
H797 C789 0.929 . S
H798 C806 0.929 . S
H799 C808 0.930 . S
H800 C810 0.930 . S
H801 C813 0.929 . S
H802 C816 0.930 . S
H803 C818 0.960 . S
H804 C818 0.960 . S
H805 C818 0.960 . S
C806 H798 0.929 . S
C806 C807 1.377 . S
C806 C808 1.384 . S
C807 C806 1.377 . S
C807 C813 1.390 . S
C808 H799 0.930 . S
C808 C806 1.384 . S
C808 C809 1.372 . S
C809 C808 1.372 . S
C809 C810 1.400 . S
C809 C814 1.490 . S
C810 H800 0.930 . S
C810 C809 1.400 . S
C810 C813 1.386 . S
H811 C827 0.930 . S
H812 C828 0.931 . S
C813 H801 0.929 . S
C813 C807 1.390 . S
C813 C810 1.386 . S
C814 C809 1.490 . S
C814 C816 1.395 . S
C814 C817 1.403 . S
H815 C821 0.930 . S
C816 H802 0.930 . S
C816 C814 1.395 . S
C816 C819 1.403 . S
C817 C814 1.403 . S
C817 C818 1.524 . S
C817 C821 1.400 . S
C818 H803 0.960 . S
C818 H804 0.960 . S
C818 H805 0.960 . S
C818 C817 1.524 . S
C819 C816 1.403 . S
C819 C820 1.392 . S
C819 C823 1.495 . S
C820 C819 1.392 . S
C820 C821 1.385 . S
C820 C822 1.478 . S
C821 H815 0.930 . S
C821 C817 1.400 . S
C821 C820 1.385 . S
C822 C820 1.478 . S
C822 C824 1.381 . S
C822 C828 1.383 . S
C823 C819 1.495 . S
C823 H829 0.959 . S
C823 H830 0.961 . S
C823 H831 0.960 . S
C824 C822 1.381 . S
C824 C825 1.394 . S
C824 H832 0.930 . S
C825 C824 1.394 . S
C825 C826 1.383 . S
C825 H833 0.929 . S
C826 C825 1.383 . S
C826 C827 1.377 . S
C827 H811 0.930 . S
C827 C826 1.377 . S
C827 C828 1.379 . S
C828 H812 0.931 . S
C828 C822 1.383 . S
C828 C827 1.379 . S
H829 C823 0.959 . S
H830 C823 0.961 . S
H831 C823 0.960 . S
H832 C824 0.930 . S
H833 C825 0.929 . S
H834 C842 0.929 . S
H835 C844 0.930 . S
H836 C846 0.930 . S
H837 C849 0.929 . S
H838 C852 0.930 . S
H839 C854 0.960 . S
H840 C854 0.960 . S
H841 C854 0.960 . S
C842 H834 0.929 . S
C842 C843 1.377 . S
C842 C844 1.384 . S
C843 C842 1.377 . S
C843 C849 1.390 . S
C844 H835 0.930 . S
C844 C842 1.384 . S
C844 C845 1.372 . S
C845 C844 1.372 . S
C845 C846 1.400 . S
C845 C850 1.490 . S
C846 H836 0.930 . S
C846 C845 1.400 . S
C846 C849 1.386 . S
H847 C863 0.930 . S
H848 C864 0.931 . S
C849 H837 0.929 . S
C849 C843 1.390 . S
C849 C846 1.386 . S
C850 C845 1.490 . S
C850 C852 1.395 . S
C850 C853 1.403 . S
H851 C857 0.930 . S
C852 H838 0.930 . S
C852 C850 1.395 . S
C852 C855 1.403 . S
C853 C850 1.403 . S
C853 C854 1.524 . S
C853 C857 1.400 . S
C854 H839 0.960 . S
C854 H840 0.960 . S
C854 H841 0.960 . S
C854 C853 1.524 . S
C855 C852 1.403 . S
C855 C856 1.392 . S
C855 C859 1.495 . S
C856 C855 1.392 . S
C856 C857 1.385 . S
C856 C858 1.478 . S
C857 H851 0.930 . S
C857 C853 1.400 . S
C857 C856 1.385 . S
C858 C856 1.478 . S
C858 C860 1.381 . S
C858 C864 1.383 . S
C859 C855 1.495 . S
C859 H865 0.959 . S
C859 H866 0.961 . S
C859 H867 0.960 . S
C860 C858 1.381 . S
C860 C861 1.394 . S
C860 H868 0.930 . S
C861 C860 1.394 . S
C861 C862 1.383 . S
C861 H869 0.929 . S
C862 C861 1.383 . S
C862 C863 1.377 . S
C863 H847 0.930 . S
C863 C862 1.377 . S
C863 C864 1.379 . S
C864 H848 0.931 . S
C864 C858 1.383 . S
C864 C863 1.379 . S
H865 C859 0.959 . S
H866 C859 0.961 . S
H867 C859 0.960 . S
H868 C860 0.930 . S
H869 C861 0.929 . S
H870 C878 0.929 . S
H871 C880 0.930 . S
H872 C882 0.930 . S
H873 C885 0.929 . S
H874 C888 0.930 . S
H875 C890 0.960 . S
H876 C890 0.960 . S
H877 C890 0.960 . S
C878 H870 0.929 . S
C878 C879 1.377 . S
C878 C880 1.384 . S
C879 C878 1.377 . S
C879 C885 1.390 . S
C880 H871 0.930 . S
C880 C878 1.384 . S
C880 C881 1.372 . S
C881 C880 1.372 . S
C881 C882 1.400 . S
C881 C886 1.490 . S
C882 H872 0.930 . S
C882 C881 1.400 . S
C882 C885 1.386 . S
H883 C899 0.930 . S
H884 C900 0.931 . S
C885 H873 0.929 . S
C885 C879 1.390 . S
C885 C882 1.386 . S
C886 C881 1.490 . S
C886 C888 1.395 . S
C886 C889 1.403 . S
H887 C893 0.930 . S
C888 H874 0.930 . S
C888 C886 1.395 . S
C888 C891 1.403 . S
C889 C886 1.403 . S
C889 C890 1.524 . S
C889 C893 1.400 . S
C890 H875 0.960 . S
C890 H876 0.960 . S
C890 H877 0.960 . S
C890 C889 1.524 . S
C891 C888 1.403 . S
C891 C892 1.392 . S
C891 C895 1.495 . S
C892 C891 1.392 . S
C892 C893 1.385 . S
C892 C894 1.478 . S
C893 H887 0.930 . S
C893 C889 1.400 . S
C893 C892 1.385 . S
C894 C892 1.478 . S
C894 C896 1.381 . S
C894 C900 1.383 . S
C895 C891 1.495 . S
C895 H901 0.959 . S
C895 H902 0.961 . S
C895 H903 0.960 . S
C896 C894 1.381 . S
C896 C897 1.394 . S
C896 H904 0.930 . S
C897 C896 1.394 . S
C897 C898 1.383 . S
C897 H905 0.929 . S
C898 C897 1.383 . S
C898 C899 1.377 . S
C899 H883 0.930 . S
C899 C898 1.377 . S
C899 C900 1.379 . S
C900 H884 0.931 . S
C900 C894 1.383 . S
C900 C899 1.379 . S
H901 C895 0.959 . S
H902 C895 0.961 . S
H903 C895 0.960 . S
H904 C896 0.930 . S
H905 C897 0.929 . S
H906 C914 0.929 . S
H907 C916 0.930 . S
H908 C918 0.930 . S
H909 C921 0.929 . S
H910 C924 0.930 . S
H911 C926 0.960 . S
H912 C926 0.960 . S
H913 C926 0.960 . S
C914 H906 0.929 . S
C914 C915 1.377 . S
C914 C916 1.384 . S
C915 C914 1.377 . S
C915 C921 1.390 . S
C916 H907 0.930 . S
C916 C914 1.384 . S
C916 C917 1.372 . S
C917 C916 1.372 . S
C917 C918 1.400 . S
C917 C922 1.490 . S
C918 H908 0.930 . S
C918 C917 1.400 . S
C918 C921 1.386 . S
H919 C935 0.930 . S
H920 C936 0.931 . S
C921 H909 0.929 . S
C921 C915 1.390 . S
C921 C918 1.386 . S
C922 C917 1.490 . S
C922 C924 1.395 . S
C922 C925 1.403 . S
H923 C929 0.930 . S
C924 H910 0.930 . S
C924 C922 1.395 . S
C924 C927 1.403 . S
C925 C922 1.403 . S
C925 C926 1.524 . S
C925 C929 1.400 . S
C926 H911 0.960 . S
C926 H912 0.960 . S
C926 H913 0.960 . S
C926 C925 1.524 . S
C927 C924 1.403 . S
C927 C928 1.392 . S
C927 C931 1.495 . S
C928 C927 1.392 . S
C928 C929 1.385 . S
C928 C930 1.478 . S
C929 H923 0.930 . S
C929 C925 1.400 . S
C929 C928 1.385 . S
C930 C928 1.478 . S
C930 C932 1.381 . S
C930 C936 1.383 . S
C931 C927 1.495 . S
C931 H937 0.959 . S
C931 H938 0.961 . S
C931 H939 0.960 . S
C932 C930 1.381 . S
C932 C933 1.394 . S
C932 H940 0.930 . S
C933 C932 1.394 . S
C933 C934 1.383 . S
C933 H941 0.929 . S
C934 C933 1.383 . S
C934 C935 1.377 . S
C935 H919 0.930 . S
C935 C934 1.377 . S
C935 C936 1.379 . S
C936 H920 0.931 . S
C936 C930 1.383 . S
C936 C935 1.379 . S
H937 C931 0.959 . S
H938 C931 0.961 . S
H939 C931 0.960 . S
H940 C932 0.930 . S
H941 C933 0.929 . S
H942 C950 0.929 . S
H943 C952 0.930 . S
H944 C954 0.930 . S
H945 C957 0.929 . S
H946 C960 0.930 . S
H947 C962 0.960 . S
H948 C962 0.960 . S
H949 C962 0.960 . S
C950 H942 0.929 . S
C950 C951 1.377 . S
C950 C952 1.384 . S
C951 C950 1.377 . S
C951 C957 1.390 . S
C952 H943 0.930 . S
C952 C950 1.384 . S
C952 C953 1.372 . S
C953 C952 1.372 . S
C953 C954 1.400 . S
C953 C958 1.490 . S
C954 H944 0.930 . S
C954 C953 1.400 . S
C954 C957 1.386 . S
H955 C971 0.930 . S
H956 C972 0.931 . S
C957 H945 0.929 . S
C957 C951 1.390 . S
C957 C954 1.386 . S
C958 C953 1.490 . S
C958 C960 1.395 . S
C958 C961 1.403 . S
H959 C965 0.930 . S
C960 H946 0.930 . S
C960 C958 1.395 . S
C960 C963 1.403 . S
C961 C958 1.403 . S
C961 C962 1.524 . S
C961 C965 1.400 . S
C962 H947 0.960 . S
C962 H948 0.960 . S
C962 H949 0.960 . S
C962 C961 1.524 . S
C963 C960 1.403 . S
C963 C964 1.392 . S
C963 C967 1.495 . S
C964 C963 1.392 . S
C964 C965 1.385 . S
C964 C966 1.478 . S
C965 H959 0.930 . S
C965 C961 1.400 . S
C965 C964 1.385 . S
C966 C964 1.478 . S
C966 C968 1.381 . S
C966 C972 1.383 . S
C967 C963 1.495 . S
C967 H973 0.959 . S
C967 H974 0.961 . S
C967 H975 0.960 . S
C968 C966 1.381 . S
C968 C969 1.394 . S
C968 H976 0.930 . S
C969 C968 1.394 . S
C969 C970 1.383 . S
C969 H977 0.929 . S
C970 C969 1.383 . S
C970 C971 1.377 . S
C971 H955 0.930 . S
C971 C970 1.377 . S
C971 C972 1.379 . S
C972 H956 0.931 . S
C972 C966 1.383 . S
C972 C971 1.379 . S
H973 C967 0.959 . S
H974 C967 0.961 . S
H975 C967 0.960 . S
H976 C968 0.930 . S
H977 C969 0.929 . S
H978 C986 0.929 . S
H979 C988 0.930 . S
H980 C990 0.930 . S
H981 C993 0.929 . S
H982 C996 0.930 . S
H983 C998 0.960 . S
H984 C998 0.960 . S
H985 C998 0.960 . S
C986 H978 0.929 . S
C986 C987 1.377 . S
C986 C988 1.384 . S
C987 C986 1.377 . S
C987 C993 1.390 . S
C988 H979 0.930 . S
C988 C986 1.384 . S
C988 C989 1.372 . S
C989 C988 1.372 . S
C989 C990 1.400 . S
C989 C994 1.490 . S
C990 H980 0.930 . S
C990 C989 1.400 . S
C990 C993 1.386 . S
H991 C1007 0.930 . S
H992 C1008 0.931 . S
C993 H981 0.929 . S
C993 C987 1.390 . S
C993 C990 1.386 . S
C994 C989 1.490 . S
C994 C996 1.395 . S
C994 C997 1.403 . S
H995 C1001 0.930 . S
C996 H982 0.930 . S
C996 C994 1.395 . S
C996 C999 1.403 . S
C997 C994 1.403 . S
C997 C998 1.524 . S
C997 C1001 1.400 . S
C998 H983 0.960 . S
C998 H984 0.960 . S
C998 H985 0.960 . S
C998 C997 1.524 . S
C999 C996 1.403 . S
C999 C1000 1.392 . S
C999 C1003 1.495 . S
C1000 C999 1.392 . S
C1000 C1001 1.385 . S
C1000 C1002 1.478 . S
C1001 H995 0.930 . S
C1001 C997 1.400 . S
C1001 C1000 1.385 . S
C1002 C1000 1.478 . S
C1002 C1004 1.381 . S
C1002 C1008 1.383 . S
C1003 C999 1.495 . S
C1003 H1009 0.959 . S
C1003 H1010 0.961 . S
C1003 H1011 0.960 . S
C1004 C1002 1.381 . S
C1004 C1005 1.394 . S
C1004 H1012 0.930 . S
C1005 C1004 1.394 . S
C1005 C1006 1.383 . S
C1005 H1013 0.929 . S
C1006 C1005 1.383 . S
C1006 C1007 1.377 . S
C1007 H991 0.930 . S
C1007 C1006 1.377 . S
C1007 C1008 1.379 . S
C1008 H992 0.931 . S
C1008 C1002 1.383 . S
C1008 C1007 1.379 . S
H1009 C1003 0.959 . S
H1010 C1003 0.961 . S
H1011 C1003 0.960 . S
H1012 C1004 0.930 . S
H1013 C1005 0.929 . S
H1014 C1022 0.929 . S
H1015 C1024 0.930 . S
H1016 C1026 0.930 . S
H1017 C1029 0.929 . S
H1018 C1032 0.930 . S
H1019 C1034 0.960 . S
H1020 C1034 0.960 . S
H1021 C1034 0.960 . S
C1022 H1014 0.929 . S
C1022 C1023 1.377 . S
C1022 C1024 1.384 . S
C1023 C1022 1.377 . S
C1023 C1029 1.390 . S
C1024 H1015 0.930 . S
C1024 C1022 1.384 . S
C1024 C1025 1.372 . S
C1025 C1024 1.372 . S
C1025 C1026 1.400 . S
C1025 C1030 1.490 . S
C1026 H1016 0.930 . S
C1026 C1025 1.400 . S
C1026 C1029 1.386 . S
H1027 C1043 0.930 . S
H1028 C1044 0.931 . S
C1029 H1017 0.929 . S
C1029 C1023 1.390 . S
C1029 C1026 1.386 . S
C1030 C1025 1.490 . S
C1030 C1032 1.395 . S
C1030 C1033 1.403 . S
H1031 C1037 0.930 . S
C1032 H1018 0.930 . S
C1032 C1030 1.395 . S
C1032 C1035 1.403 . S
C1033 C1030 1.403 . S
C1033 C1034 1.524 . S
C1033 C1037 1.400 . S
C1034 H1019 0.960 . S
C1034 H1020 0.960 . S
C1034 H1021 0.960 . S
C1034 C1033 1.524 . S
C1035 C1032 1.403 . S
C1035 C1036 1.392 . S
C1035 C1039 1.495 . S
C1036 C1035 1.392 . S
C1036 C1037 1.385 . S
C1036 C1038 1.478 . S
C1037 H1031 0.930 . S
C1037 C1033 1.400 . S
C1037 C1036 1.385 . S
C1038 C1036 1.478 . S
C1038 C1040 1.381 . S
C1038 C1044 1.383 . S
C1039 C1035 1.495 . S
C1039 H1045 0.959 . S
C1039 H1046 0.961 . S
C1039 H1047 0.960 . S
C1040 C1038 1.381 . S
C1040 C1041 1.394 . S
C1040 H1048 0.930 . S
C1041 C1040 1.394 . S
C1041 C1042 1.383 . S
C1041 H1049 0.929 . S
C1042 C1041 1.383 . S
C1042 C1043 1.377 . S
C1043 H1027 0.930 . S
C1043 C1042 1.377 . S
C1043 C1044 1.379 . S
C1044 H1028 0.931 . S
C1044 C1038 1.383 . S
C1044 C1043 1.379 . S
H1045 C1039 0.959 . S
H1046 C1039 0.961 . S
H1047 C1039 0.960 . S
H1048 C1040 0.930 . S
H1049 C1041 0.929 . S
H1050 C1058 0.929 . S
H1051 C1060 0.930 . S
H1052 C1062 0.930 . S
H1053 C1065 0.929 . S
H1054 C1068 0.930 . S
H1055 C1070 0.960 . S
H1056 C1070 0.960 . S
H1057 C1070 0.960 . S
C1058 H1050 0.929 . S
C1058 C1059 1.377 . S
C1058 C1060 1.384 . S
C1059 C1058 1.377 . S
C1059 C1065 1.390 . S
C1060 H1051 0.930 . S
C1060 C1058 1.384 . S
C1060 C1061 1.372 . S
C1061 C1060 1.372 . S
C1061 C1062 1.400 . S
C1061 C1066 1.490 . S
C1062 H1052 0.930 . S
C1062 C1061 1.400 . S
C1062 C1065 1.386 . S
H1063 C1079 0.930 . S
H1064 C1080 0.931 . S
C1065 H1053 0.929 . S
C1065 C1059 1.390 . S
C1065 C1062 1.386 . S
C1066 C1061 1.490 . S
C1066 C1068 1.395 . S
C1066 C1069 1.403 . S
H1067 C1073 0.930 . S
C1068 H1054 0.930 . S
C1068 C1066 1.395 . S
C1068 C1071 1.403 . S
C1069 C1066 1.403 . S
C1069 C1070 1.524 . S
C1069 C1073 1.400 . S
C1070 H1055 0.960 . S
C1070 H1056 0.960 . S
C1070 H1057 0.960 . S
C1070 C1069 1.524 . S
C1071 C1068 1.403 . S
C1071 C1072 1.392 . S
C1071 C1075 1.495 . S
C1072 C1071 1.392 . S
C1072 C1073 1.385 . S
C1072 C1074 1.478 . S
C1073 H1067 0.930 . S
C1073 C1069 1.400 . S
C1073 C1072 1.385 . S
C1074 C1072 1.478 . S
C1074 C1076 1.381 . S
C1074 C1080 1.383 . S
C1075 C1071 1.495 . S
C1075 H1081 0.959 . S
C1075 H1082 0.961 . S
C1075 H1083 0.960 . S
C1076 C1074 1.381 . S
C1076 C1077 1.394 . S
C1076 H1084 0.930 . S
C1077 C1076 1.394 . S
C1077 C1078 1.383 . S
C1077 H1085 0.959 . S
C1078 C1077 1.383 . S
C1078 C1079 1.377 . S
C1079 H1063 0.930 . S
C1079 C1078 1.377 . S
C1079 C1080 1.379 . S
C1080 H1064 0.931 . S
C1080 C1074 1.383 . S
C1080 C1079 1.379 . S
H1081 C1075 0.959 . S
H1082 C1075 0.961 . S
H1083 C1075 0.960 . S
H1084 C1076 0.930 . S
H1085 C1077 0.959 . S
H1086 C1094 0.929 . S
H1087 C1096 0.930 . S
H1088 C1098 0.930 . S
H1089 C1101 0.929 . S
H1090 C1104 0.930 . S
H1091 C1106 0.960 . S
H1092 C1106 0.960 . S
H1093 C1106 0.960 . S
C1094 H1086 0.929 . S
C1094 C1095 1.377 . S
C1094 C1096 1.384 . S
C1095 C1094 1.377 . S
C1095 C1101 1.390 . S
C1096 H1087 0.930 . S
C1096 C1094 1.384 . S
C1096 C1097 1.372 . S
C1097 C1096 1.372 . S
C1097 C1098 1.400 . S
C1097 C1102 1.490 . S
C1098 H1088 0.930 . S
C1098 C1097 1.400 . S
C1098 C1101 1.386 . S
H1099 C1115 0.930 . S
H1100 C1116 0.931 . S
C1101 H1089 0.929 . S
C1101 C1095 1.390 . S
C1101 C1098 1.386 . S
C1102 C1097 1.490 . S
C1102 C1104 1.395 . S
C1102 C1105 1.403 . S
H1103 C1109 0.930 . S
C1104 H1090 0.930 . S
C1104 C1102 1.395 . S
C1104 C1107 1.403 . S
C1105 C1102 1.403 . S
C1105 C1106 1.524 . S
C1105 C1109 1.400 . S
C1106 H1091 0.960 . S
C1106 H1092 0.960 . S
C1106 H1093 0.960 . S
C1106 C1105 1.524 . S
C1107 C1104 1.403 . S
C1107 C1108 1.392 . S
C1107 C1111 1.495 . S
C1108 C1107 1.392 . S
C1108 C1109 1.385 . S
C1108 C1110 1.478 . S
C1109 H1103 0.930 . S
C1109 C1105 1.400 . S
C1109 C1108 1.385 . S
C1110 C1108 1.478 . S
C1110 C1112 1.381 . S
C1110 C1116 1.383 . S
C1111 C1107 1.495 . S
C1111 H1117 0.959 . S
C1111 H1118 0.961 . S
C1111 H1119 0.960 . S
C1112 C1110 1.381 . S
C1112 C1113 1.394 . S
C1112 H1120 0.930 . S
C1113 C1112 1.394 . S
C1113 C1114 1.383 . S
C1113 H1121 0.929 1_556 S
C1114 C1113 1.383 . S
C1114 C1115 1.377 . S
C1115 H1099 0.930 . S
C1115 C1114 1.377 . S
C1115 C1116 1.379 . S
C1116 H1100 0.931 . S
C1116 C1110 1.383 . S
C1116 C1115 1.379 . S
H1117 C1111 0.959 . S
H1118 C1111 0.961 . S
H1119 C1111 0.960 . S
H1120 C1112 0.930 . S
H1121 C1113 0.929 1_554 S
H1122 C1130 0.929 . S
H1123 C1132 0.930 . S
H1124 C1134 0.930 . S
H1125 C1137 0.929 . S
H1126 C1140 0.930 . S
H1127 C1142 0.960 . S
H1128 C1142 0.960 . S
H1129 C1142 0.960 . S
C1130 H1122 0.929 . S
C1130 C1131 1.377 . S
C1130 C1132 1.384 . S
C1131 C1130 1.377 . S
C1131 C1137 1.390 . S
C1132 H1123 0.930 . S
C1132 C1130 1.384 . S
C1132 C1133 1.372 . S
C1133 C1132 1.372 . S
C1133 C1134 1.400 . S
C1133 C1138 1.490 . S
C1134 H1124 0.930 . S
C1134 C1133 1.400 . S
C1134 C1137 1.386 . S
H1135 C1151 0.930 . S
H1136 C1152 0.931 . S
C1137 H1125 0.929 . S
C1137 C1131 1.390 . S
C1137 C1134 1.386 . S
C1138 C1133 1.490 . S
C1138 C1140 1.395 . S
C1138 C1141 1.403 . S
H1139 C1145 0.930 . S
C1140 H1126 0.930 . S
C1140 C1138 1.395 . S
C1140 C1143 1.403 . S
C1141 C1138 1.403 . S
C1141 C1142 1.524 . S
C1141 C1145 1.400 . S
C1142 H1127 0.960 . S
C1142 H1128 0.960 . S
C1142 H1129 0.960 . S
C1142 C1141 1.524 . S
C1143 C1140 1.403 . S
C1143 C1144 1.392 . S
C1143 C1147 1.495 . S
C1144 C1143 1.392 . S
C1144 C1145 1.385 . S
C1144 C1146 1.478 . S
C1145 H1139 0.930 . S
C1145 C1141 1.400 . S
C1145 C1144 1.385 . S
C1146 C1144 1.478 . S
C1146 C1148 1.381 . S
C1146 C1152 1.383 . S
C1147 C1143 1.495 . S
C1147 H1153 0.959 . S
C1147 H1154 0.961 . S
C1147 H1155 0.960 . S
C1148 C1146 1.381 . S
C1148 C1149 1.394 . S
C1148 H1156 0.930 . S
C1149 C1148 1.394 . S
C1149 C1150 1.383 . S
C1149 H1157 0.929 . S
C1150 C1149 1.383 . S
C1150 C1151 1.377 . S
C1151 H1135 0.930 . S
C1151 C1150 1.377 . S
C1151 C1152 1.379 . S
C1152 H1136 0.931 . S
C1152 C1146 1.383 . S
C1152 C1151 1.379 . S
H1153 C1147 0.959 . S
H1154 C1147 0.961 . S
H1155 C1147 0.960 . S
H1156 C1148 0.930 . S
H1157 C1149 0.929 . S
H1158 C1166 0.929 . S
H1159 C1168 0.930 . S
H1160 C1170 0.930 . S
H1161 C1173 0.929 . S
H1162 C1176 0.930 . S
H1163 C1178 0.960 . S
H1164 C1178 0.960 . S
H1165 C1178 0.960 . S
C1166 H1158 0.929 . S
C1166 C1167 1.377 . S
C1166 C1168 1.384 . S
C1167 C1166 1.377 . S
C1167 C1173 1.390 . S
C1168 H1159 0.930 . S
C1168 C1166 1.384 . S
C1168 C1169 1.372 . S
C1169 C1168 1.372 . S
C1169 C1170 1.400 . S
C1169 C1174 1.490 . S
C1170 H1160 0.930 . S
C1170 C1169 1.400 . S
C1170 C1173 1.386 . S
H1171 C1187 0.930 . S
H1172 C1188 0.931 . S
C1173 H1161 0.929 . S
C1173 C1167 1.390 . S
C1173 C1170 1.386 . S
C1174 C1169 1.490 . S
C1174 C1176 1.395 . S
C1174 C1177 1.403 . S
H1175 C1181 0.930 . S
C1176 H1162 0.930 . S
C1176 C1174 1.395 . S
C1176 C1179 1.403 . S
C1177 C1174 1.403 . S
C1177 C1178 1.524 . S
C1177 C1181 1.400 . S
C1178 H1163 0.960 . S
C1178 H1164 0.960 . S
C1178 H1165 0.960 . S
C1178 C1177 1.524 . S
C1179 C1176 1.403 . S
C1179 C1180 1.392 . S
C1179 C1183 1.495 . S
C1180 C1179 1.392 . S
C1180 C1181 1.385 . S
C1180 C1182 1.478 . S
C1181 H1175 0.930 . S
C1181 C1177 1.400 . S
C1181 C1180 1.385 . S
C1182 C1180 1.478 . S
C1182 C1184 1.381 . S
C1182 C1188 1.383 . S
C1183 C1179 1.495 . S
C1183 H1189 0.959 . S
C1183 H1190 0.961 . S
C1183 H1191 0.960 . S
C1184 C1182 1.381 . S
C1184 C1185 1.394 . S
C1184 H1192 0.930 . S
C1185 C1184 1.394 . S
C1185 C1186 1.383 . S
C1185 H1193 0.929 . S
C1186 C1185 1.383 . S
C1186 C1187 1.377 . S
C1187 H1171 0.930 . S
C1187 C1186 1.377 . S
C1187 C1188 1.379 . S
C1188 H1172 0.931 . S
C1188 C1182 1.383 . S
C1188 C1187 1.379 . S
H1189 C1183 0.959 . S
H1190 C1183 0.961 . S
H1191 C1183 0.960 . S
H1192 C1184 0.930 . S
H1193 C1185 0.929 . S
H1194 C1202 0.929 . S
H1195 C1204 0.930 . S
H1196 C1206 0.930 . S
H1197 C1209 0.929 . S
H1198 C1212 0.930 . S
H1199 C1214 0.960 . S
H1200 C1214 0.960 . S
H1201 C1214 0.960 . S
C1202 H1194 0.929 . S
C1202 C1203 1.377 . S
C1202 C1204 1.384 . S
C1203 C1202 1.377 . S
C1203 C1209 1.390 . S
C1204 H1195 0.930 . S
C1204 C1202 1.384 . S
C1204 C1205 1.372 . S
C1205 C1204 1.372 . S
C1205 C1206 1.400 . S
C1205 C1210 1.490 . S
C1206 H1196 0.930 . S
C1206 C1205 1.400 . S
C1206 C1209 1.386 . S
H1207 C1223 0.930 . S
H1208 C1224 0.931 . S
C1209 H1197 0.929 . S
C1209 C1203 1.390 . S
C1209 C1206 1.386 . S
C1210 C1205 1.490 . S
C1210 C1212 1.395 . S
C1210 C1213 1.403 . S
H1211 C1217 0.930 . S
C1212 H1198 0.930 . S
C1212 C1210 1.395 . S
C1212 C1215 1.403 . S
C1213 C1210 1.403 . S
C1213 C1214 1.524 . S
C1213 C1217 1.400 . S
C1214 H1199 0.960 . S
C1214 H1200 0.960 . S
C1214 H1201 0.960 . S
C1214 C1213 1.524 . S
C1215 C1212 1.403 . S
C1215 C1216 1.392 . S
C1215 C1219 1.495 . S
C1216 C1215 1.392 . S
C1216 C1217 1.385 . S
C1216 C1218 1.478 . S
C1217 H1211 0.930 . S
C1217 C1213 1.400 . S
C1217 C1216 1.385 . S
C1218 C1216 1.478 . S
C1218 C1220 1.381 . S
C1218 C1224 1.383 . S
C1219 C1215 1.495 . S
C1219 H1225 0.959 . S
C1219 H1226 0.961 . S
C1219 H1227 0.960 . S
C1220 C1218 1.381 . S
C1220 C1221 1.394 . S
C1220 H1228 0.930 . S
C1221 C1220 1.394 . S
C1221 C1222 1.383 . S
C1221 H1229 0.929 . S
C1222 C1221 1.383 . S
C1222 C1223 1.377 . S
C1223 H1207 0.930 . S
C1223 C1222 1.377 . S
C1223 C1224 1.379 . S
C1224 H1208 0.931 . S
C1224 C1218 1.383 . S
C1224 C1223 1.379 . S
H1225 C1219 0.959 . S
H1226 C1219 0.961 . S
H1227 C1219 0.960 . S
H1228 C1220 0.930 . S
H1229 C1221 0.929 . S
H1230 C1238 0.929 . S
H1231 C1240 0.930 . S
H1232 C1242 0.930 . S
H1233 C1245 0.929 . S
H1234 C1248 0.930 . S
H1235 C1250 0.960 . S
H1236 C1250 0.960 . S
H1237 C1250 0.960 . S
C1238 H1230 0.929 . S
C1238 C1239 1.377 . S
C1238 C1240 1.384 . S
C1239 C1238 1.377 . S
C1239 C1245 1.390 . S
C1240 H1231 0.930 . S
C1240 C1238 1.384 . S
C1240 C1241 1.372 . S
C1241 C1240 1.372 . S
C1241 C1242 1.400 . S
C1241 C1246 1.490 . S
C1242 H1232 0.930 . S
C1242 C1241 1.400 . S
C1242 C1245 1.386 . S
H1243 C1259 0.930 . S
H1244 C1260 0.931 . S
C1245 H1233 0.929 . S
C1245 C1239 1.390 . S
C1245 C1242 1.386 . S
C1246 C1241 1.490 . S
C1246 C1248 1.395 . S
C1246 C1249 1.403 . S
H1247 C1253 0.930 . S
C1248 H1234 0.930 . S
C1248 C1246 1.395 . S
C1248 C1251 1.403 . S
C1249 C1246 1.403 . S
C1249 C1250 1.524 . S
C1249 C1253 1.400 . S
C1250 H1235 0.960 . S
C1250 H1236 0.960 . S
C1250 H1237 0.960 . S
C1250 C1249 1.524 . S
C1251 C1248 1.403 . S
C1251 C1252 1.392 . S
C1251 C1255 1.495 . S
C1252 C1251 1.392 . S
C1252 C1253 1.385 . S
C1252 C1254 1.478 . S
C1253 H1247 0.930 . S
C1253 C1249 1.400 . S
C1253 C1252 1.385 . S
C1254 C1252 1.478 . S
C1254 C1256 1.381 . S
C1254 C1260 1.383 . S
C1255 C1251 1.495 . S
C1255 H1261 0.959 . S
C1255 H1262 0.961 . S
C1255 H1263 0.960 . S
C1256 C1254 1.381 . S
C1256 C1257 1.394 . S
C1256 H1264 0.930 . S
C1257 C1256 1.394 . S
C1257 C1258 1.383 . S
C1257 H1265 0.929 . S
C1258 C1257 1.383 . S
C1258 C1259 1.377 . S
C1259 H1243 0.930 . S
C1259 C1258 1.377 . S
C1259 C1260 1.379 . S
C1260 H1244 0.931 . S
C1260 C1254 1.383 . S
C1260 C1259 1.379 . S
H1261 C1255 0.959 . S
H1262 C1255 0.961 . S
H1263 C1255 0.960 . S
H1264 C1256 0.930 . S
H1265 C1257 0.929 . S
H1266 C1274 0.929 . S
H1267 C1276 0.930 . S
H1268 C1278 0.930 . S
H1269 C1281 0.929 . S
H1270 C1284 0.930 . S
H1271 C1286 0.960 . S
H1272 C1286 0.960 . S
H1273 C1286 0.960 . S
C1274 H1266 0.929 . S
C1274 C1275 1.377 . S
C1274 C1276 1.384 . S
C1275 C1274 1.377 . S
C1275 C1281 1.390 . S
C1276 H1267 0.930 . S
C1276 C1274 1.384 . S
C1276 C1277 1.372 . S
C1277 C1276 1.372 . S
C1277 C1278 1.400 . S
C1277 C1282 1.490 . S
C1278 H1268 0.930 . S
C1278 C1277 1.400 . S
C1278 C1281 1.386 . S
H1279 C1295 0.930 . S
H1280 C1296 0.931 . S
C1281 H1269 0.929 . S
C1281 C1275 1.390 . S
C1281 C1278 1.386 . S
C1282 C1277 1.490 . S
C1282 C1284 1.395 . S
C1282 C1285 1.403 . S
H1283 C1289 0.930 . S
C1284 H1270 0.930 . S
C1284 C1282 1.395 . S
C1284 C1287 1.403 . S
C1285 C1282 1.403 . S
C1285 C1286 1.524 . S
C1285 C1289 1.400 . S
C1286 H1271 0.960 . S
C1286 H1272 0.960 . S
C1286 H1273 0.960 . S
C1286 C1285 1.524 . S
C1287 C1284 1.403 . S
C1287 C1288 1.392 . S
C1287 C1291 1.495 . S
C1288 C1287 1.392 . S
C1288 C1289 1.385 . S
C1288 C1290 1.478 . S
C1289 H1283 0.930 . S
C1289 C1285 1.400 . S
C1289 C1288 1.385 . S
C1290 C1288 1.478 . S
C1290 C1292 1.381 . S
C1290 C1296 1.383 . S
C1291 C1287 1.495 . S
C1291 H1297 0.959 . S
C1291 H1298 0.961 . S
C1291 H1299 0.960 . S
C1292 C1290 1.381 . S
C1292 C1293 1.394 . S
C1292 H1300 0.930 . S
C1293 C1292 1.394 . S
C1293 C1294 1.383 . S
C1293 H1301 0.929 . S
C1294 C1293 1.383 . S
C1294 C1295 1.377 . S
C1295 H1279 0.930 . S
C1295 C1294 1.377 . S
C1295 C1296 1.379 . S
C1296 H1280 0.931 . S
C1296 C1290 1.383 . S
C1296 C1295 1.379 . S
H1297 C1291 0.959 . S
H1298 C1291 0.961 . S
H1299 C1291 0.960 . S
H1300 C1292 0.930 . S
H1301 C1293 0.929 . S
H1302 C1310 0.929 . S
H1303 C1312 0.930 . S
H1304 C1314 0.930 . S
H1305 C1317 0.929 . S
H1306 C1320 0.930 . S
H1307 C1322 0.960 . S
H1308 C1322 0.960 . S
H1309 C1322 0.960 . S
C1310 H1302 0.929 . S
C1310 C1311 1.377 . S
C1310 C1312 1.384 . S
C1311 C1310 1.377 . S
C1311 C1317 1.390 . S
C1312 H1303 0.930 . S
C1312 C1310 1.384 . S
C1312 C1313 1.372 . S
C1313 C1312 1.372 . S
C1313 C1314 1.400 . S
C1313 C1318 1.490 . S
C1314 H1304 0.930 . S
C1314 C1313 1.400 . S
C1314 C1317 1.386 . S
H1315 C1331 0.930 . S
H1316 C1332 0.931 . S
C1317 H1305 0.929 . S
C1317 C1311 1.390 . S
C1317 C1314 1.386 . S
C1318 C1313 1.490 . S
C1318 C1320 1.395 . S
C1318 C1321 1.403 . S
H1319 C1325 0.930 . S
C1320 H1306 0.930 . S
C1320 C1318 1.395 . S
C1320 C1323 1.403 . S
C1321 C1318 1.403 . S
C1321 C1322 1.524 . S
C1321 C1325 1.400 . S
C1322 H1307 0.960 . S
C1322 H1308 0.960 . S
C1322 H1309 0.960 . S
C1322 C1321 1.524 . S
C1323 C1320 1.403 . S
C1323 C1324 1.392 . S
C1323 C1327 1.495 . S
C1324 C1323 1.392 . S
C1324 C1325 1.385 . S
C1324 C1326 1.478 . S
C1325 H1319 0.930 . S
C1325 C1321 1.400 . S
C1325 C1324 1.385 . S
C1326 C1324 1.478 . S
C1326 C1328 1.381 . S
C1326 C1332 1.383 . S
C1327 C1323 1.495 . S
C1327 H1333 0.959 . S
C1327 H1334 0.961 . S
C1327 H1335 0.960 . S
C1328 C1326 1.381 . S
C1328 C1329 1.394 . S
C1328 H1336 0.930 . S
C1329 C1328 1.394 . S
C1329 C1330 1.383 . S
C1329 H1337 0.949 . S
C1330 C1329 1.383 . S
C1330 C1331 1.377 . S
C1331 H1315 0.930 . S
C1331 C1330 1.377 . S
C1331 C1332 1.379 . S
C1332 H1316 0.931 . S
C1332 C1326 1.383 . S
C1332 C1331 1.379 . S
H1333 C1327 0.959 . S
H1334 C1327 0.961 . S
H1335 C1327 0.960 . S
H1336 C1328 0.930 . S
H1337 C1329 0.949 . S
H1338 C1346 0.929 . S
H1339 C1348 0.930 . S
H1340 C1350 0.930 . S
H1341 C1353 0.929 . S
H1342 C1356 0.930 . S
H1343 C1358 0.960 . S
H1344 C1358 0.960 . S
H1345 C1358 0.960 . S
C1346 H1338 0.929 . S
C1346 C1347 1.377 . S
C1346 C1348 1.384 . S
C1347 C1346 1.377 . S
C1347 C1353 1.390 . S
C1348 H1339 0.930 . S
C1348 C1346 1.384 . S
C1348 C1349 1.372 . S
C1349 C1348 1.372 . S
C1349 C1350 1.400 . S
C1349 C1354 1.490 . S
C1350 H1340 0.930 . S
C1350 C1349 1.400 . S
C1350 C1353 1.386 . S
H1351 C1367 0.930 . S
H1352 C1368 0.931 . S
C1353 H1341 0.929 . S
C1353 C1347 1.390 . S
C1353 C1350 1.386 . S
C1354 C1349 1.490 . S
C1354 C1356 1.395 . S
C1354 C1357 1.403 . S
H1355 C1361 0.930 . S
C1356 H1342 0.930 . S
C1356 C1354 1.395 . S
C1356 C1359 1.403 . S
C1357 C1354 1.403 . S
C1357 C1358 1.524 . S
C1357 C1361 1.400 . S
C1358 H1343 0.960 . S
C1358 H1344 0.960 . S
C1358 H1345 0.960 . S
C1358 C1357 1.524 . S
C1359 C1356 1.403 . S
C1359 C1360 1.392 . S
C1359 C1363 1.495 . S
C1360 C1359 1.392 . S
C1360 C1361 1.385 . S
C1360 C1362 1.478 . S
C1361 H1355 0.930 . S
C1361 C1357 1.400 . S
C1361 C1360 1.385 . S
C1362 C1360 1.478 . S
C1362 C1364 1.381 . S
C1362 C1368 1.383 . S
C1363 C1359 1.495 . S
C1363 H1369 0.959 . S
C1363 H1370 0.961 . S
C1363 H1371 0.960 . S
C1364 C1362 1.381 . S
C1364 C1365 1.394 . S
C1364 H1372 0.930 . S
C1365 C1364 1.394 . S
C1365 C1366 1.383 . S
C1365 H1373 0.929 . S
C1366 C1365 1.383 . S
C1366 C1367 1.377 . S
C1367 H1351 0.930 . S
C1367 C1366 1.377 . S
C1367 C1368 1.379 . S
C1368 H1352 0.931 . S
C1368 C1362 1.383 . S
C1368 C1367 1.379 . S
H1369 C1363 0.959 . S
H1370 C1363 0.961 . S
H1371 C1363 0.960 . S
H1372 C1364 0.930 . S
H1373 C1365 0.929 . S
H1374 C1382 0.929 . S
H1375 C1384 0.930 . S
H1376 C1386 0.930 . S
H1377 C1389 0.929 . S
H1378 C1392 0.930 . S
H1379 C1394 0.960 . S
H1380 C1394 0.960 . S
H1381 C1394 0.960 . S
C1382 H1374 0.929 . S
C1382 C1383 1.377 . S
C1382 C1384 1.384 . S
C1383 C1382 1.377 . S
C1383 C1389 1.390 . S
C1384 H1375 0.930 . S
C1384 C1382 1.384 . S
C1384 C1385 1.372 . S
C1385 C1384 1.372 . S
C1385 C1386 1.400 . S
C1385 C1390 1.490 . S
C1386 H1376 0.930 . S
C1386 C1385 1.400 . S
C1386 C1389 1.386 . S
H1387 C1403 0.930 . S
H1388 C1404 0.931 . S
C1389 H1377 0.929 . S
C1389 C1383 1.390 . S
C1389 C1386 1.386 . S
C1390 C1385 1.490 . S
C1390 C1392 1.395 . S
C1390 C1393 1.403 . S
H1391 C1397 0.930 . S
C1392 H1378 0.930 . S
C1392 C1390 1.395 . S
C1392 C1395 1.403 . S
C1393 C1390 1.403 . S
C1393 C1394 1.524 . S
C1393 C1397 1.400 . S
C1394 H1379 0.960 . S
C1394 H1380 0.960 . S
C1394 H1381 0.960 . S
C1394 C1393 1.524 . S
C1395 C1392 1.403 . S
C1395 C1396 1.392 . S
C1395 C1399 1.495 . S
C1396 C1395 1.392 . S
C1396 C1397 1.385 . S
C1396 C1398 1.478 . S
C1397 H1391 0.930 . S
C1397 C1393 1.400 . S
C1397 C1396 1.385 . S
C1398 C1396 1.478 . S
C1398 C1400 1.381 . S
C1398 C1404 1.383 . S
C1399 C1395 1.495 . S
C1399 H1405 0.959 . S
C1399 H1406 0.961 . S
C1399 H1407 0.960 . S
C1400 C1398 1.381 . S
C1400 C1401 1.394 . S
C1400 H1408 0.930 . S
C1401 C1400 1.394 . S
C1401 C1402 1.383 . S
C1401 H1409 0.929 . S
C1402 C1401 1.383 . S
C1402 C1403 1.377 . S
C1403 H1387 0.930 . S
C1403 C1402 1.377 . S
C1403 C1404 1.379 . S
C1404 H1388 0.931 . S
C1404 C1398 1.383 . S
C1404 C1403 1.379 . S
H1405 C1399 0.959 . S
H1406 C1399 0.961 . S
H1407 C1399 0.960 . S
H1408 C1400 0.930 . S
H1409 C1401 0.929 . S
H1410 C1418 0.929 . S
H1411 C1420 0.930 . S
H1412 C1422 0.930 . S
H1413 C1425 0.929 . S
H1414 C1428 0.930 . S
H1415 C1430 0.960 . S
H1416 C1430 0.960 . S
H1417 C1430 0.960 . S
C1418 H1410 0.929 . S
C1418 C1419 1.377 . S
C1418 C1420 1.384 . S
C1419 C1418 1.377 . S
C1419 C1425 1.390 . S
C1420 H1411 0.930 . S
C1420 C1418 1.384 . S
C1420 C1421 1.372 . S
C1421 C1420 1.372 . S
C1421 C1422 1.400 . S
C1421 C1426 1.490 . S
C1422 H1412 0.930 . S
C1422 C1421 1.400 . S
C1422 C1425 1.386 . S
H1423 C1439 0.930 . S
H1424 C1440 0.931 . S
C1425 H1413 0.929 . S
C1425 C1419 1.390 . S
C1425 C1422 1.386 . S
C1426 C1421 1.490 . S
C1426 C1428 1.395 . S
C1426 C1429 1.403 . S
H1427 C1433 0.930 . S
C1428 H1414 0.930 . S
C1428 C1426 1.395 . S
C1428 C1431 1.403 . S
C1429 C1426 1.403 . S
C1429 C1430 1.524 . S
C1429 C1433 1.400 . S
C1430 H1415 0.960 . S
C1430 H1416 0.960 . S
C1430 H1417 0.960 . S
C1430 C1429 1.524 . S
C1431 C1428 1.403 . S
C1431 C1432 1.392 . S
C1431 C1435 1.495 . S
C1432 C1431 1.392 . S
C1432 C1433 1.385 . S
C1432 C1434 1.478 . S
C1433 H1427 0.930 . S
C1433 C1429 1.400 . S
C1433 C1432 1.385 . S
C1434 C1432 1.478 . S
C1434 C1436 1.381 . S
C1434 C1440 1.383 . S
C1435 C1431 1.495 . S
C1435 H1441 0.959 . S
C1435 H1442 0.961 . S
C1435 H1443 0.960 . S
C1436 C1434 1.381 . S
C1436 C1437 1.394 . S
C1436 H1444 0.930 . S
C1437 C1436 1.394 . S
C1437 C1438 1.383 . S
C1437 H1445 0.929 . S
C1438 C1437 1.383 . S
C1438 C1439 1.377 . S
C1439 H1423 0.930 . S
C1439 C1438 1.377 . S
C1439 C1440 1.379 . S
C1440 H1424 0.931 . S
C1440 C1434 1.383 . S
C1440 C1439 1.379 . S
H1441 C1435 0.959 . S
H1442 C1435 0.961 . S
H1443 C1435 0.960 . S
H1444 C1436 0.930 . S
H1445 C1437 0.929 . S
H1446 C1454 0.929 . S
H1447 C1456 0.930 . S
H1448 C1458 0.930 . S
H1449 C1461 0.929 . S
H1450 C1464 0.930 . S
H1451 C1466 0.960 . S
H1452 C1466 0.960 . S
H1453 C1466 0.960 . S
C1454 H1446 0.929 . S
C1454 C1455 1.377 . S
C1454 C1456 1.384 . S
C1455 C1454 1.377 . S
C1455 C1461 1.390 . S
C1456 H1447 0.930 . S
C1456 C1454 1.384 . S
C1456 C1457 1.372 . S
C1457 C1456 1.372 . S
C1457 C1458 1.400 . S
C1457 C1462 1.490 . S
C1458 H1448 0.930 . S
C1458 C1457 1.400 . S
C1458 C1461 1.386 . S
H1459 C1475 0.930 . S
H1460 C1476 0.931 . S
C1461 H1449 0.929 . S
C1461 C1455 1.390 . S
C1461 C1458 1.386 . S
C1462 C1457 1.490 . S
C1462 C1464 1.395 . S
C1462 C1465 1.403 . S
H1463 C1469 0.930 . S
C1464 H1450 0.930 . S
C1464 C1462 1.395 . S
C1464 C1467 1.403 . S
C1465 C1462 1.403 . S
C1465 C1466 1.524 . S
C1465 C1469 1.400 . S
C1466 H1451 0.960 . S
C1466 H1452 0.960 . S
C1466 H1453 0.960 . S
C1466 C1465 1.524 . S
C1467 C1464 1.403 . S
C1467 C1468 1.392 . S
C1467 C1471 1.495 . S
C1468 C1467 1.392 . S
C1468 C1469 1.385 . S
C1468 C1470 1.478 . S
C1469 H1463 0.930 . S
C1469 C1465 1.400 . S
C1469 C1468 1.385 . S
C1470 C1468 1.478 . S
C1470 C1472 1.381 . S
C1470 C1476 1.383 . S
C1471 C1467 1.495 . S
C1471 H1477 0.959 . S
C1471 H1478 0.961 . S
C1471 H1479 0.960 . S
C1472 C1470 1.381 . S
C1472 C1473 1.394 . S
C1472 H1480 0.930 . S
C1473 C1472 1.394 . S
C1473 C1474 1.383 . S
C1473 H1481 0.929 . S
C1474 C1473 1.383 . S
C1474 C1475 1.377 . S
C1475 H1459 0.930 . S
C1475 C1474 1.377 . S
C1475 C1476 1.379 . S
C1476 H1460 0.931 . S
C1476 C1470 1.383 . S
C1476 C1475 1.379 . S
H1477 C1471 0.959 . S
H1478 C1471 0.961 . S
H1479 C1471 0.960 . S
H1480 C1472 0.930 . S
H1481 C1473 0.929 . S
H1482 C1490 0.929 . S
H1483 C1492 0.930 . S
H1484 C1494 0.930 . S
H1485 C1497 0.929 . S
H1486 C1500 0.930 . S
H1487 C1502 0.960 . S
H1488 C1502 0.960 . S
H1489 C1502 0.960 . S
C1490 H1482 0.929 . S
C1490 C1491 1.377 . S
C1490 C1492 1.384 . S
C1491 C1490 1.377 . S
C1491 C1497 1.390 . S
C1492 H1483 0.930 . S
C1492 C1490 1.384 . S
C1492 C1493 1.372 . S
C1493 C1492 1.372 . S
C1493 C1494 1.400 . S
C1493 C1498 1.490 . S
C1494 H1484 0.930 . S
C1494 C1493 1.400 . S
C1494 C1497 1.386 . S
H1495 C1511 0.930 . S
H1496 C1512 0.931 . S
C1497 H1485 0.929 . S
C1497 C1491 1.390 . S
C1497 C1494 1.386 . S
C1498 C1493 1.490 . S
C1498 C1500 1.395 . S
C1498 C1501 1.403 . S
H1499 C1505 0.930 . S
C1500 H1486 0.930 . S
C1500 C1498 1.395 . S
C1500 C1503 1.403 . S
C1501 C1498 1.403 . S
C1501 C1502 1.524 . S
C1501 C1505 1.400 . S
C1502 H1487 0.960 . S
C1502 H1488 0.960 . S
C1502 H1489 0.960 . S
C1502 C1501 1.524 . S
C1503 C1500 1.403 . S
C1503 C1504 1.392 . S
C1503 C1507 1.495 . S
C1504 C1503 1.392 . S
C1504 C1505 1.385 . S
C1504 C1506 1.478 . S
C1505 H1499 0.930 . S
C1505 C1501 1.400 . S
C1505 C1504 1.385 . S
C1506 C1504 1.478 . S
C1506 C1508 1.381 . S
C1506 C1512 1.383 . S
C1507 C1503 1.495 . S
C1507 H1513 0.959 . S
C1507 H1514 0.961 . S
C1507 H1515 0.960 . S
C1508 C1506 1.381 . S
C1508 C1509 1.394 . S
C1508 H1516 0.930 . S
C1509 C1508 1.394 . S
C1509 C1510 1.383 . S
C1509 H1517 0.929 . S
C1510 C1509 1.383 . S
C1510 C1511 1.377 . S
C1511 H1495 0.930 . S
C1511 C1510 1.377 . S
C1511 C1512 1.379 . S
C1512 H1496 0.931 . S
C1512 C1506 1.383 . S
C1512 C1511 1.379 . S
H1513 C1507 0.959 . S
H1514 C1507 0.961 . S
H1515 C1507 0.960 . S
H1516 C1508 0.930 . S
H1517 C1509 0.929 . S
H1518 C1526 0.929 . S
H1519 C1528 0.930 . S
H1520 C1530 0.930 . S
H1521 C1533 0.929 . S
H1522 C1536 0.930 . S
H1523 C1538 0.960 . S
H1524 C1538 0.960 . S
H1525 C1538 0.960 . S
C1526 H1518 0.929 . S
C1526 C1527 1.377 . S
C1526 C1528 1.384 . S
C1527 C1526 1.377 . S
C1527 C1533 1.390 . S
C1528 H1519 0.930 . S
C1528 C1526 1.384 . S
C1528 C1529 1.372 . S
C1529 C1528 1.372 . S
C1529 C1530 1.400 . S
C1529 C1534 1.490 . S
C1530 H1520 0.930 . S
C1530 C1529 1.400 . S
C1530 C1533 1.386 . S
H1531 C1547 0.930 . S
H1532 C1548 0.931 . S
C1533 H1521 0.929 . S
C1533 C1527 1.390 . S
C1533 C1530 1.386 . S
C1534 C1529 1.490 . S
C1534 C1536 1.395 . S
C1534 C1537 1.403 . S
H1535 C1541 0.930 . S
C1536 H1522 0.930 . S
C1536 C1534 1.395 . S
C1536 C1539 1.403 . S
C1537 C1534 1.403 . S
C1537 C1538 1.524 . S
C1537 C1541 1.400 . S
C1538 H1523 0.960 . S
C1538 H1524 0.960 . S
C1538 H1525 0.960 . S
C1538 C1537 1.524 . S
C1539 C1536 1.403 . S
C1539 C1540 1.392 . S
C1539 C1543 1.495 . S
C1540 C1539 1.392 . S
C1540 C1541 1.385 . S
C1540 C1542 1.478 . S
C1541 H1535 0.930 . S
C1541 C1537 1.400 . S
C1541 C1540 1.385 . S
C1542 C1540 1.478 . S
C1542 C1544 1.381 . S
C1542 C1548 1.383 . S
C1543 C1539 1.495 . S
C1543 H1549 0.959 . S
C1543 H1550 0.961 . S
C1543 H1551 0.960 . S
C1544 C1542 1.381 . S
C1544 C1545 1.394 . S
C1544 H1552 0.930 . S
C1545 C1544 1.394 . S
C1545 C1546 1.383 . S
C1545 H1553 0.929 . S
C1546 C1545 1.383 . S
C1546 C1547 1.377 . S
C1547 H1531 0.930 . S
C1547 C1546 1.377 . S
C1547 C1548 1.379 . S
C1548 H1532 0.931 . S
C1548 C1542 1.383 . S
C1548 C1547 1.379 . S
H1549 C1543 0.959 . S
H1550 C1543 0.961 . S
H1551 C1543 0.960 . S
H1552 C1544 0.930 . S
H1553 C1545 0.929 . S
H1554 C1562 0.929 . S
H1555 C1564 0.930 . S
H1556 C1566 0.930 . S
H1557 C1569 0.929 . S
H1558 C1572 0.930 . S
H1559 C1574 0.960 . S
H1560 C1574 0.960 . S
H1561 C1574 0.960 . S
C1562 H1554 0.929 . S
C1562 C1563 1.377 . S
C1562 C1564 1.384 . S
C1563 C1562 1.377 . S
C1563 C1569 1.390 . S
C1564 H1555 0.930 . S
C1564 C1562 1.384 . S
C1564 C1565 1.372 . S
C1565 C1564 1.372 . S
C1565 C1566 1.400 . S
C1565 C1570 1.490 . S
C1566 H1556 0.930 . S
C1566 C1565 1.400 . S
C1566 C1569 1.386 . S
H1567 C1583 0.930 . S
H1568 C1584 0.931 . S
C1569 H1557 0.929 . S
C1569 C1563 1.390 . S
C1569 C1566 1.386 . S
C1570 C1565 1.490 . S
C1570 C1572 1.395 . S
C1570 C1573 1.403 . S
H1571 C1577 0.930 . S
C1572 H1558 0.930 . S
C1572 C1570 1.395 . S
C1572 C1575 1.403 . S
C1573 C1570 1.403 . S
C1573 C1574 1.524 . S
C1573 C1577 1.400 . S
C1574 H1559 0.960 . S
C1574 H1560 0.960 . S
C1574 H1561 0.960 . S
C1574 C1573 1.524 . S
C1575 C1572 1.403 . S
C1575 C1576 1.392 . S
C1575 C1579 1.495 . S
C1576 C1575 1.392 . S
C1576 C1577 1.385 . S
C1576 C1578 1.478 . S
C1577 H1571 0.930 . S
C1577 C1573 1.400 . S
C1577 C1576 1.385 . S
C1578 C1576 1.478 . S
C1578 C1580 1.381 . S
C1578 C1584 1.383 . S
C1579 C1575 1.495 . S
C1579 H1585 0.959 . S
C1579 H1586 0.961 . S
C1579 H1587 0.960 . S
C1580 C1578 1.381 . S
C1580 C1581 1.394 . S
C1580 H1588 0.930 . S
C1581 C1580 1.394 . S
C1581 C1582 1.383 . S
C1581 H1589 0.929 . S
C1582 C1581 1.383 . S
C1582 C1583 1.377 . S
C1583 H1567 0.930 . S
C1583 C1582 1.377 . S
C1583 C1584 1.379 . S
C1584 H1568 0.931 . S
C1584 C1578 1.383 . S
C1584 C1583 1.379 . S
H1585 C1579 0.959 . S
H1586 C1579 0.961 . S
H1587 C1579 0.960 . S
H1588 C1580 0.930 . S
H1589 C1581 0.929 . S
H1590 C1598 0.929 . S
H1591 C1600 0.930 . S
H1592 C1602 0.930 . S
H1593 C1605 0.929 . S
H1594 C1608 0.930 . S
H1595 C1610 0.960 . S
H1596 C1610 0.960 . S
H1597 C1610 0.960 . S
C1598 H1590 0.929 . S
C1598 C1599 1.377 . S
C1598 C1600 1.384 . S
C1599 C1598 1.377 . S
C1599 C1605 1.390 . S
C1600 H1591 0.930 . S
C1600 C1598 1.384 . S
C1600 C1601 1.372 . S
C1601 C1600 1.372 . S
C1601 C1602 1.400 . S
C1601 C1606 1.490 . S
C1602 H1592 0.930 . S
C1602 C1601 1.400 . S
C1602 C1605 1.386 . S
H1603 C1619 0.930 . S
H1604 C1620 0.931 . S
C1605 H1593 0.929 . S
C1605 C1599 1.390 . S
C1605 C1602 1.386 . S
C1606 C1601 1.490 . S
C1606 C1608 1.395 . S
C1606 C1609 1.403 . S
H1607 C1613 0.930 . S
C1608 H1594 0.930 . S
C1608 C1606 1.395 . S
C1608 C1611 1.403 . S
C1609 C1606 1.403 . S
C1609 C1610 1.524 . S
C1609 C1613 1.400 . S
C1610 H1595 0.960 . S
C1610 H1596 0.960 . S
C1610 H1597 0.960 . S
C1610 C1609 1.524 . S
C1611 C1608 1.403 . S
C1611 C1612 1.392 . S
C1611 C1615 1.495 . S
C1612 C1611 1.392 . S
C1612 C1613 1.385 . S
C1612 C1614 1.478 . S
C1613 H1607 0.930 . S
C1613 C1609 1.400 . S
C1613 C1612 1.385 . S
C1614 C1612 1.478 . S
C1614 C1616 1.381 . S
C1614 C1620 1.383 . S
C1615 C1611 1.495 . S
C1615 H1621 0.959 . S
C1615 H1622 0.961 . S
C1615 H1623 0.960 . S
C1616 C1614 1.381 . S
C1616 C1617 1.394 . S
C1616 H1624 0.930 . S
C1617 C1616 1.394 . S
C1617 C1618 1.383 . S
C1617 H1625 0.929 . S
C1618 C1617 1.383 . S
C1618 C1619 1.377 . S
C1619 H1603 0.930 . S
C1619 C1618 1.377 . S
C1619 C1620 1.379 . S
C1620 H1604 0.931 . S
C1620 C1614 1.383 . S
C1620 C1619 1.379 . S
H1621 C1615 0.959 . S
H1622 C1615 0.961 . S
H1623 C1615 0.960 . S
H1624 C1616 0.930 . S
H1625 C1617 0.929 . S
H1626 C1634 0.929 . S
H1627 C1636 0.930 . S
H1628 C1638 0.930 . S
H1629 C1641 0.929 . S
H1630 C1644 0.930 . S
H1631 C1646 0.960 . S
H1632 C1646 0.960 . S
H1633 C1646 0.960 . S
C1634 H1626 0.929 . S
C1634 C1635 1.377 . S
C1634 C1636 1.384 . S
C1635 C1634 1.377 . S
C1635 C1641 1.390 . S
C1636 H1627 0.930 . S
C1636 C1634 1.384 . S
C1636 C1637 1.372 . S
C1637 C1636 1.372 . S
C1637 C1638 1.400 . S
C1637 C1642 1.490 . S
C1638 H1628 0.930 . S
C1638 C1637 1.400 . S
C1638 C1641 1.386 . S
H1639 C1655 0.930 . S
H1640 C1656 0.931 . S
C1641 H1629 0.929 . S
C1641 C1635 1.390 . S
C1641 C1638 1.386 . S
C1642 C1637 1.490 . S
C1642 C1644 1.395 . S
C1642 C1645 1.403 . S
H1643 C1649 0.930 . S
C1644 H1630 0.930 . S
C1644 C1642 1.395 . S
C1644 C1647 1.403 . S
C1645 C1642 1.403 . S
C1645 C1646 1.524 . S
C1645 C1649 1.400 . S
C1646 H1631 0.960 . S
C1646 H1632 0.960 . S
C1646 H1633 0.960 . S
C1646 C1645 1.524 . S
C1647 C1644 1.403 . S
C1647 C1648 1.392 . S
C1647 C1651 1.495 . S
C1648 C1647 1.392 . S
C1648 C1649 1.385 . S
C1648 C1650 1.478 . S
C1649 H1643 0.930 . S
C1649 C1645 1.400 . S
C1649 C1648 1.385 . S
C1650 C1648 1.478 . S
C1650 C1652 1.381 . S
C1650 C1656 1.383 . S
C1651 C1647 1.495 . S
C1651 H1657 0.959 . S
C1651 H1658 0.961 . S
C1651 H1659 0.960 . S
C1652 C1650 1.381 . S
C1652 C1653 1.394 . S
C1652 H1660 0.930 . S
C1653 C1652 1.394 . S
C1653 C1654 1.383 . S
C1653 H1661 0.929 . S
C1654 C1653 1.383 . S
C1654 C1655 1.377 . S
C1655 H1639 0.930 . S
C1655 C1654 1.377 . S
C1655 C1656 1.379 . S
C1656 H1640 0.931 . S
C1656 C1650 1.383 . S
C1656 C1655 1.379 . S
H1657 C1651 0.959 . S
H1658 C1651 0.961 . S
H1659 C1651 0.960 . S
H1660 C1652 0.930 . S
H1661 C1653 0.929 . S
H1662 C1670 0.929 . S
H1663 C1672 0.930 . S
H1664 C1674 0.930 . S
H1665 C1677 0.929 . S
H1666 C1680 0.930 . S
H1667 C1682 0.960 . S
H1668 C1682 0.960 . S
H1669 C1682 0.960 . S
C1670 H1662 0.929 . S
C1670 C1671 1.377 . S
C1670 C1672 1.384 . S
C1671 C1670 1.377 . S
C1671 C1677 1.390 . S
C1672 H1663 0.930 . S
C1672 C1670 1.384 . S
C1672 C1673 1.372 . S
C1673 C1672 1.372 . S
C1673 C1674 1.400 . S
C1673 C1678 1.490 . S
C1674 H1664 0.930 . S
C1674 C1673 1.400 . S
C1674 C1677 1.386 . S
H1675 C1691 0.930 . S
H1676 C1692 0.931 . S
C1677 H1665 0.929 . S
C1677 C1671 1.390 . S
C1677 C1674 1.386 . S
C1678 C1673 1.490 . S
C1678 C1680 1.395 . S
C1678 C1681 1.403 . S
H1679 C1685 0.930 . S
C1680 H1666 0.930 . S
C1680 C1678 1.395 . S
C1680 C1683 1.403 . S
C1681 C1678 1.403 . S
C1681 C1682 1.524 . S
C1681 C1685 1.400 . S
C1682 H1667 0.960 . S
C1682 H1668 0.960 . S
C1682 H1669 0.960 . S
C1682 C1681 1.524 . S
C1683 C1680 1.403 . S
C1683 C1684 1.392 . S
C1683 C1687 1.495 . S
C1684 C1683 1.392 . S
C1684 C1685 1.385 . S
C1684 C1686 1.478 . S
C1685 H1679 0.930 . S
C1685 C1681 1.400 . S
C1685 C1684 1.385 . S
C1686 C1684 1.478 . S
C1686 C1688 1.381 . S
C1686 C1692 1.383 . S
C1687 C1683 1.495 . S
C1687 H1693 0.959 . S
C1687 H1694 0.961 . S
C1687 H1695 0.960 . S
C1688 C1686 1.381 . S
C1688 C1689 1.394 . S
C1688 H1696 0.930 . S
C1689 C1688 1.394 . S
C1689 C1690 1.383 . S
C1689 H1697 0.929 . S
C1690 C1689 1.383 . S
C1690 C1691 1.377 . S
C1691 H1675 0.930 . S
C1691 C1690 1.377 . S
C1691 C1692 1.379 . S
C1692 H1676 0.931 . S
C1692 C1686 1.383 . S
C1692 C1691 1.379 . S
H1693 C1687 0.959 . S
H1694 C1687 0.961 . S
H1695 C1687 0.960 . S
H1696 C1688 0.930 . S
H1697 C1689 0.929 . S
H1698 C1706 0.929 . S
H1699 C1708 0.930 . S
H1700 C1710 0.930 . S
H1701 C1713 0.929 . S
H1702 C1716 0.930 . S
H1703 C1718 0.960 . S
H1704 C1718 0.960 . S
H1705 C1718 0.960 . S
C1706 H1698 0.929 . S
C1706 C1707 1.377 . S
C1706 C1708 1.384 . S
C1707 C1706 1.377 . S
C1707 C1713 1.390 . S
C1708 H1699 0.930 . S
C1708 C1706 1.384 . S
C1708 C1709 1.372 . S
C1709 C1708 1.372 . S
C1709 C1710 1.400 . S
C1709 C1714 1.490 . S
C1710 H1700 0.930 . S
C1710 C1709 1.400 . S
C1710 C1713 1.386 . S
H1711 C1727 0.930 . S
H1712 C1728 0.931 . S
C1713 H1701 0.929 . S
C1713 C1707 1.390 . S
C1713 C1710 1.386 . S
C1714 C1709 1.490 . S
C1714 C1716 1.395 . S
C1714 C1717 1.403 . S
H1715 C1721 0.930 . S
C1716 H1702 0.930 . S
C1716 C1714 1.395 . S
C1716 C1719 1.403 . S
C1717 C1714 1.403 . S
C1717 C1718 1.524 . S
C1717 C1721 1.400 . S
C1718 H1703 0.960 . S
C1718 H1704 0.960 . S
C1718 H1705 0.960 . S
C1718 C1717 1.524 . S
C1719 C1716 1.403 . S
C1719 C1720 1.392 . S
C1719 C1723 1.495 . S
C1720 C1719 1.392 . S
C1720 C1721 1.385 . S
C1720 C1722 1.478 . S
C1721 H1715 0.930 . S
C1721 C1717 1.400 . S
C1721 C1720 1.385 . S
C1722 C1720 1.478 . S
C1722 C1724 1.381 . S
C1722 C1728 1.383 . S
C1723 C1719 1.495 . S
C1723 H1729 0.959 . S
C1723 H1730 0.961 . S
C1723 H1731 0.960 . S
C1724 C1722 1.381 . S
C1724 C1725 1.394 . S
C1724 H1732 0.930 . S
C1725 C1724 1.394 . S
C1725 C1726 1.383 . S
C1725 H1733 0.929 . S
C1726 C1725 1.383 . S
C1726 C1727 1.377 . S
C1727 H1711 0.930 . S
C1727 C1726 1.377 . S
C1727 C1728 1.379 . S
C1728 H1712 0.931 . S
C1728 C1722 1.383 . S
C1728 C1727 1.379 . S
H1729 C1723 0.959 . S
H1730 C1723 0.961 . S
H1731 C1723 0.960 . S
H1732 C1724 0.930 . S
H1733 C1725 0.929 . S
H1734 C1742 0.929 . S
H1735 C1744 0.930 . S
H1736 C1746 0.930 . S
H1737 C1749 0.929 . S
H1738 C1752 0.930 . S
H1739 C1754 0.960 . S
H1740 C1754 0.960 . S
H1741 C1754 0.960 . S
C1742 H1734 0.929 . S
C1742 C1743 1.377 . S
C1742 C1744 1.384 . S
C1743 C1742 1.377 . S
C1743 C1749 1.390 . S
C1744 H1735 0.930 . S
C1744 C1742 1.384 . S
C1744 C1745 1.372 . S
C1745 C1744 1.372 . S
C1745 C1746 1.400 . S
C1745 C1750 1.490 . S
C1746 H1736 0.930 . S
C1746 C1745 1.400 . S
C1746 C1749 1.386 . S
H1747 C1763 0.930 . S
H1748 C1764 0.931 . S
C1749 H1737 0.929 . S
C1749 C1743 1.390 . S
C1749 C1746 1.386 . S
C1750 C1745 1.490 . S
C1750 C1752 1.395 . S
C1750 C1753 1.403 . S
H1751 C1757 0.930 . S
C1752 H1738 0.930 . S
C1752 C1750 1.395 . S
C1752 C1755 1.403 . S
C1753 C1750 1.403 . S
C1753 C1754 1.524 . S
C1753 C1757 1.400 . S
C1754 H1739 0.960 . S
C1754 H1740 0.960 . S
C1754 H1741 0.960 . S
C1754 C1753 1.524 . S
C1755 C1752 1.403 . S
C1755 C1756 1.392 . S
C1755 C1759 1.495 . S
C1756 C1755 1.392 . S
C1756 C1757 1.385 . S
C1756 C1758 1.478 . S
C1757 H1751 0.930 . S
C1757 C1753 1.400 . S
C1757 C1756 1.385 . S
C1758 C1756 1.478 . S
C1758 C1760 1.381 . S
C1758 C1764 1.383 . S
C1759 C1755 1.495 . S
C1759 H1765 0.959 . S
C1759 H1766 0.961 . S
C1759 H1767 0.960 . S
C1760 C1758 1.381 . S
C1760 C1761 1.394 . S
C1760 H1768 0.930 . S
C1761 C1760 1.394 . S
C1761 C1762 1.383 . S
C1761 H1769 0.929 . S
C1762 C1761 1.383 . S
C1762 C1763 1.377 . S
C1763 H1747 0.930 . S
C1763 C1762 1.377 . S
C1763 C1764 1.379 . S
C1764 H1748 0.931 . S
C1764 C1758 1.383 . S
C1764 C1763 1.379 . S
H1765 C1759 0.959 . S
H1766 C1759 0.961 . S
H1767 C1759 0.960 . S
H1768 C1760 0.930 . S
H1769 C1761 0.929 . S
H1770 C1778 0.929 . S
H1771 C1780 0.930 . S
H1772 C1782 0.930 . S
H1773 C1785 0.929 . S
H1774 C1788 0.930 . S
H1775 C1790 0.960 . S
H1776 C1790 0.960 . S
H1777 C1790 0.960 . S
C1778 H1770 0.929 . S
C1778 C1779 1.377 . S
C1778 C1780 1.384 . S
C1779 C1778 1.377 . S
C1779 C1785 1.390 . S
C1780 H1771 0.930 . S
C1780 C1778 1.384 . S
C1780 C1781 1.372 . S
C1781 C1780 1.372 . S
C1781 C1782 1.400 . S
C1781 C1786 1.490 . S
C1782 H1772 0.930 . S
C1782 C1781 1.400 . S
C1782 C1785 1.386 . S
H1783 C1799 0.930 . S
H1784 C1800 0.931 . S
C1785 H1773 0.929 . S
C1785 C1779 1.390 . S
C1785 C1782 1.386 . S
C1786 C1781 1.490 . S
C1786 C1788 1.395 . S
C1786 C1789 1.403 . S
H1787 C1793 0.930 . S
C1788 H1774 0.930 . S
C1788 C1786 1.395 . S
C1788 C1791 1.403 . S
C1789 C1786 1.403 . S
C1789 C1790 1.524 . S
C1789 C1793 1.400 . S
C1790 H1775 0.960 . S
C1790 H1776 0.960 . S
C1790 H1777 0.960 . S
C1790 C1789 1.524 . S
C1791 C1788 1.403 . S
C1791 C1792 1.392 . S
C1791 C1795 1.495 . S
C1792 C1791 1.392 . S
C1792 C1793 1.385 . S
C1792 C1794 1.478 . S
C1793 H1787 0.930 . S
C1793 C1789 1.400 . S
C1793 C1792 1.385 . S
C1794 C1792 1.478 . S
C1794 C1796 1.381 . S
C1794 C1800 1.383 . S
C1795 C1791 1.495 . S
C1795 H1801 0.959 . S
C1795 H1802 0.961 . S
C1795 H1803 0.960 . S
C1796 C1794 1.381 . S
C1796 C1797 1.394 . S
C1796 H1804 0.930 . S
C1797 C1796 1.394 . S
C1797 C1798 1.383 . S
C1797 H1805 0.929 . S
C1798 C1797 1.383 . S
C1798 C1799 1.377 . S
C1799 H1783 0.930 . S
C1799 C1798 1.377 . S
C1799 C1800 1.379 . S
C1800 H1784 0.931 . S
C1800 C1794 1.383 . S
C1800 C1799 1.379 . S
H1801 C1795 0.959 . S
H1802 C1795 0.961 . S
H1803 C1795 0.960 . S
H1804 C1796 0.930 . S
H1805 C1797 0.929 . S
H1806 C1814 0.929 . S
H1807 C1816 0.930 . S
H1808 C1818 0.930 . S
H1809 C1821 0.929 . S
H1810 C1824 0.930 . S
H1811 C1826 0.960 . S
H1812 C1826 0.960 . S
H1813 C1826 0.960 . S
C1814 H1806 0.929 . S
C1814 C1815 1.377 . S
C1814 C1816 1.384 . S
C1815 C1814 1.377 . S
C1815 C1821 1.390 . S
C1816 H1807 0.930 . S
C1816 C1814 1.384 . S
C1816 C1817 1.372 . S
C1817 C1816 1.372 . S
C1817 C1818 1.400 . S
C1817 C1822 1.490 . S
C1818 H1808 0.930 . S
C1818 C1817 1.400 . S
C1818 C1821 1.386 . S
H1819 C1835 0.930 . S
H1820 C1836 0.931 . S
C1821 H1809 0.929 . S
C1821 C1815 1.390 . S
C1821 C1818 1.386 . S
C1822 C1817 1.490 . S
C1822 C1824 1.395 . S
C1822 C1825 1.403 . S
H1823 C1829 0.930 . S
C1824 H1810 0.930 . S
C1824 C1822 1.395 . S
C1824 C1827 1.403 . S
C1825 C1822 1.403 . S
C1825 C1826 1.524 . S
C1825 C1829 1.400 . S
C1826 H1811 0.960 . S
C1826 H1812 0.960 . S
C1826 H1813 0.960 . S
C1826 C1825 1.524 . S
C1827 C1824 1.403 . S
C1827 C1828 1.392 . S
C1827 C1831 1.495 . S
C1828 C1827 1.392 . S
C1828 C1829 1.385 . S
C1828 C1830 1.478 . S
C1829 H1823 0.930 . S
C1829 C1825 1.400 . S
C1829 C1828 1.385 . S
C1830 C1828 1.478 . S
C1830 C1832 1.381 . S
C1830 C1836 1.383 . S
C1831 C1827 1.495 . S
C1831 H1837 0.959 . S
C1831 H1838 0.961 . S
C1831 H1839 0.960 . S
C1832 C1830 1.381 . S
C1832 C1833 1.394 . S
C1832 H1840 0.930 . S
C1833 C1832 1.394 . S
C1833 C1834 1.383 . S
C1833 H1841 0.929 . S
C1834 C1833 1.383 . S
C1834 C1835 1.377 . S
C1835 H1819 0.930 . S
C1835 C1834 1.377 . S
C1835 C1836 1.379 . S
C1836 H1820 0.931 . S
C1836 C1830 1.383 . S
C1836 C1835 1.379 . S
H1837 C1831 0.959 . S
H1838 C1831 0.961 . S
H1839 C1831 0.960 . S
H1840 C1832 0.930 . S
H1841 C1833 0.929 . S
H1842 C1850 0.929 . S
H1843 C1852 0.930 . S
H1844 C1854 0.930 . S
H1845 C1857 0.929 . S
H1846 C1860 0.930 . S
H1847 C1862 0.960 . S
H1848 C1862 0.960 . S
H1849 C1862 0.960 . S
C1850 H1842 0.929 . S
C1850 C1851 1.377 . S
C1850 C1852 1.384 . S
C1851 C1850 1.377 . S
C1851 C1857 1.390 . S
C1852 H1843 0.930 . S
C1852 C1850 1.384 . S
C1852 C1853 1.372 . S
C1853 C1852 1.372 . S
C1853 C1854 1.400 . S
C1853 C1858 1.490 . S
C1854 H1844 0.930 . S
C1854 C1853 1.400 . S
C1854 C1857 1.386 . S
H1855 C1871 0.930 . S
H1856 C1872 0.931 . S
C1857 H1845 0.929 . S
C1857 C1851 1.390 . S
C1857 C1854 1.386 . S
C1858 C1853 1.490 . S
C1858 C1860 1.395 . S
C1858 C1861 1.403 . S
H1859 C1865 0.930 . S
C1860 H1846 0.930 . S
C1860 C1858 1.395 . S
C1860 C1863 1.403 . S
C1861 C1858 1.403 . S
C1861 C1862 1.524 . S
C1861 C1865 1.400 . S
C1862 H1847 0.960 . S
C1862 H1848 0.960 . S
C1862 H1849 0.960 . S
C1862 C1861 1.524 . S
C1863 C1860 1.403 . S
C1863 C1864 1.392 . S
C1863 C1867 1.495 . S
C1864 C1863 1.392 . S
C1864 C1865 1.385 . S
C1864 C1866 1.478 . S
C1865 H1859 0.930 . S
C1865 C1861 1.400 . S
C1865 C1864 1.385 . S
C1866 C1864 1.478 . S
C1866 C1868 1.381 . S
C1866 C1872 1.383 . S
C1867 C1863 1.495 . S
C1867 H1873 0.959 . S
C1867 H1874 0.961 . S
C1867 H1875 0.960 . S
C1868 C1866 1.381 . S
C1868 C1869 1.394 . S
C1868 H1876 0.930 . S
C1869 C1868 1.394 . S
C1869 C1870 1.383 . S
C1869 H1877 0.929 . S
C1870 C1869 1.383 . S
C1870 C1871 1.377 . S
C1871 H1855 0.930 . S
C1871 C1870 1.377 . S
C1871 C1872 1.379 . S
C1872 H1856 0.931 . S
C1872 C1866 1.383 . S
C1872 C1871 1.379 . S
H1873 C1867 0.959 . S
H1874 C1867 0.961 . S
H1875 C1867 0.960 . S
H1876 C1868 0.930 . S
H1877 C1869 0.929 . S
H1878 C1886 0.929 . S
H1879 C1888 0.930 . S
H1880 C1890 0.930 . S
H1881 C1893 0.929 . S
H1882 C1896 0.930 . S
H1883 C1898 0.960 . S
H1884 C1898 0.960 . S
H1885 C1898 0.960 . S
C1886 H1878 0.929 . S
C1886 C1887 1.377 . S
C1886 C1888 1.384 . S
C1887 C1886 1.377 . S
C1887 C1893 1.390 . S
C1888 H1879 0.930 . S
C1888 C1886 1.384 . S
C1888 C1889 1.372 . S
C1889 C1888 1.372 . S
C1889 C1890 1.400 . S
C1889 C1894 1.490 . S
C1890 H1880 0.930 . S
C1890 C1889 1.400 . S
C1890 C1893 1.386 . S
H1891 C1907 0.930 . S
H1892 C1908 0.931 . S
C1893 H1881 0.929 . S
C1893 C1887 1.390 . S
C1893 C1890 1.386 . S
C1894 C1889 1.490 . S
C1894 C1896 1.395 . S
C1894 C1897 1.403 . S
H1895 C1901 0.930 . S
C1896 H1882 0.930 . S
C1896 C1894 1.395 . S
C1896 C1899 1.403 . S
C1897 C1894 1.403 . S
C1897 C1898 1.524 . S
C1897 C1901 1.400 . S
C1898 H1883 0.960 . S
C1898 H1884 0.960 . S
C1898 H1885 0.960 . S
C1898 C1897 1.524 . S
C1899 C1896 1.403 . S
C1899 C1900 1.392 . S
C1899 C1903 1.495 . S
C1900 C1899 1.392 . S
C1900 C1901 1.385 . S
C1900 C1902 1.478 . S
C1901 H1895 0.930 . S
C1901 C1897 1.400 . S
C1901 C1900 1.385 . S
C1902 C1900 1.478 . S
C1902 C1904 1.381 . S
C1902 C1908 1.383 . S
C1903 C1899 1.495 . S
C1903 H1909 0.959 . S
C1903 H1910 0.961 . S
C1903 H1911 0.960 . S
C1904 C1902 1.381 . S
C1904 C1905 1.394 . S
C1904 H1912 0.930 . S
C1905 C1904 1.394 . S
C1905 C1906 1.383 . S
C1905 H1913 0.929 . S
C1906 C1905 1.383 . S
C1906 C1907 1.377 . S
C1907 H1891 0.930 . S
C1907 C1906 1.377 . S
C1907 C1908 1.379 . S
C1908 H1892 0.931 . S
C1908 C1902 1.383 . S
C1908 C1907 1.379 . S
H1909 C1903 0.959 . S
H1910 C1903 0.961 . S
H1911 C1903 0.960 . S
H1912 C1904 0.930 . S
H1913 C1905 0.929 . S
H1914 C1922 0.929 . S
H1915 C1924 0.930 . S
H1916 C1926 0.930 . S
H1917 C1929 0.929 . S
H1918 C1932 0.930 . S
H1919 C1934 0.960 . S
H1920 C1934 0.960 . S
H1921 C1934 0.960 . S
C1922 H1914 0.929 . S
C1922 C1923 1.377 . S
C1922 C1924 1.384 . S
C1923 C1922 1.377 . S
C1923 C1929 1.390 . S
C1924 H1915 0.930 . S
C1924 C1922 1.384 . S
C1924 C1925 1.372 . S
C1925 C1924 1.372 . S
C1925 C1926 1.400 . S
C1925 C1930 1.490 . S
C1926 H1916 0.930 . S
C1926 C1925 1.400 . S
C1926 C1929 1.386 . S
H1927 C1943 0.930 . S
H1928 C1944 0.931 . S
C1929 H1917 0.929 . S
C1929 C1923 1.390 . S
C1929 C1926 1.386 . S
C1930 C1925 1.490 . S
C1930 C1932 1.395 . S
C1930 C1933 1.403 . S
H1931 C1937 0.930 . S
C1932 H1918 0.930 . S
C1932 C1930 1.395 . S
C1932 C1935 1.403 . S
C1933 C1930 1.403 . S
C1933 C1934 1.524 . S
C1933 C1937 1.400 . S
C1934 H1919 0.960 . S
C1934 H1920 0.960 . S
C1934 H1921 0.960 . S
C1934 C1933 1.524 . S
C1935 C1932 1.403 . S
C1935 C1936 1.392 . S
C1935 C1939 1.495 . S
C1936 C1935 1.392 . S
C1936 C1937 1.385 . S
C1936 C1938 1.478 . S
C1937 H1931 0.930 . S
C1937 C1933 1.400 . S
C1937 C1936 1.385 . S
C1938 C1936 1.478 . S
C1938 C1940 1.381 . S
C1938 C1944 1.383 . S
C1939 C1935 1.495 . S
C1939 H1945 0.959 . S
C1939 H1946 0.961 . S
C1939 H1947 0.960 . S
C1940 C1938 1.381 . S
C1940 C1941 1.394 . S
C1940 H1948 0.930 . S
C1941 C1940 1.394 . S
C1941 C1942 1.383 . S
C1941 H1949 0.929 . S
C1942 C1941 1.383 . S
C1942 C1943 1.377 . S
C1943 H1927 0.930 . S
C1943 C1942 1.377 . S
C1943 C1944 1.379 . S
C1944 H1928 0.931 . S
C1944 C1938 1.383 . S
C1944 C1943 1.379 . S
H1945 C1939 0.959 . S
H1946 C1939 0.961 . S
H1947 C1939 0.960 . S
H1948 C1940 0.930 . S
H1949 C1941 0.929 . S
H1950 C1958 0.929 . S
H1951 C1960 0.930 . S
H1952 C1962 0.930 . S
H1953 C1965 0.929 . S
H1954 C1968 0.930 . S
H1955 C1970 0.960 . S
H1956 C1970 0.960 . S
H1957 C1970 0.960 . S
C1958 H1950 0.929 . S
C1958 C1959 1.377 . S
C1958 C1960 1.384 . S
C1959 C1958 1.377 . S
C1959 C1965 1.390 . S
C1960 H1951 0.930 . S
C1960 C1958 1.384 . S
C1960 C1961 1.372 . S
C1961 C1960 1.372 . S
C1961 C1962 1.400 . S
C1961 C1966 1.490 . S
C1962 H1952 0.930 . S
C1962 C1961 1.400 . S
C1962 C1965 1.386 . S
H1963 C1979 0.930 . S
H1964 C1980 0.931 . S
C1965 H1953 0.929 . S
C1965 C1959 1.390 . S
C1965 C1962 1.386 . S
C1966 C1961 1.490 . S
C1966 C1968 1.395 . S
C1966 C1969 1.403 . S
H1967 C1973 0.930 . S
C1968 H1954 0.930 . S
C1968 C1966 1.395 . S
C1968 C1971 1.403 . S
C1969 C1966 1.403 . S
C1969 C1970 1.524 . S
C1969 C1973 1.400 . S
C1970 H1955 0.960 . S
C1970 H1956 0.960 . S
C1970 H1957 0.960 . S
C1970 C1969 1.524 . S
C1971 C1968 1.403 . S
C1971 C1972 1.392 . S
C1971 C1975 1.495 . S
C1972 C1971 1.392 . S
C1972 C1973 1.385 . S
C1972 C1974 1.478 . S
C1973 H1967 0.930 . S
C1973 C1969 1.400 . S
C1973 C1972 1.385 . S
C1974 C1972 1.478 . S
C1974 C1976 1.381 . S
C1974 C1980 1.383 . S
C1975 C1971 1.495 . S
C1975 H1981 0.959 . S
C1975 H1982 0.961 . S
C1975 H1983 0.960 . S
C1976 C1974 1.381 . S
C1976 C1977 1.394 . S
C1976 H1984 0.930 . S
C1977 C1976 1.394 . S
C1977 C1978 1.383 . S
C1977 H1985 0.929 . S
C1978 C1977 1.383 . S
C1978 C1979 1.377 . S
C1979 H1963 0.930 . S
C1979 C1978 1.377 . S
C1979 C1980 1.379 . S
C1980 H1964 0.931 . S
C1980 C1974 1.383 . S
C1980 C1979 1.379 . S
H1981 C1975 0.959 . S
H1982 C1975 0.961 . S
H1983 C1975 0.960 . S
H1984 C1976 0.930 . S
H1985 C1977 0.929 . S
H1986 C1994 0.929 . S
H1987 C1996 0.930 . S
H1988 C1998 0.930 . S
H1989 C2001 0.929 . S
H1990 C2004 0.930 . S
H1991 C2006 0.960 . S
H1992 C2006 0.960 . S
H1993 C2006 0.960 . S
C1994 H1986 0.929 . S
C1994 C1995 1.377 . S
C1994 C1996 1.384 . S
C1995 C1994 1.377 . S
C1995 C2001 1.390 . S
C1996 H1987 0.930 . S
C1996 C1994 1.384 . S
C1996 C1997 1.372 . S
C1997 C1996 1.372 . S
C1997 C1998 1.400 . S
C1997 C2002 1.490 . S
C1998 H1988 0.930 . S
C1998 C1997 1.400 . S
C1998 C2001 1.386 . S
H1999 C2015 0.930 . S
H2000 C2016 0.931 . S
C2001 H1989 0.929 . S
C2001 C1995 1.390 . S
C2001 C1998 1.386 . S
C2002 C1997 1.490 . S
C2002 C2004 1.395 . S
C2002 C2005 1.403 . S
H2003 C2009 0.930 . S
C2004 H1990 0.930 . S
C2004 C2002 1.395 . S
C2004 C2007 1.403 . S
C2005 C2002 1.403 . S
C2005 C2006 1.524 . S
C2005 C2009 1.400 . S
C2006 H1991 0.960 . S
C2006 H1992 0.960 . S
C2006 H1993 0.960 . S
C2006 C2005 1.524 . S
C2007 C2004 1.403 . S
C2007 C2008 1.392 . S
C2007 C2011 1.495 . S
C2008 C2007 1.392 . S
C2008 C2009 1.385 . S
C2008 C2010 1.478 . S
C2009 H2003 0.930 . S
C2009 C2005 1.400 . S
C2009 C2008 1.385 . S
C2010 C2008 1.478 . S
C2010 C2012 1.381 . S
C2010 C2016 1.383 . S
C2011 C2007 1.495 . S
C2011 H2017 0.959 . S
C2011 H2018 0.961 . S
C2011 H2019 0.960 . S
C2012 C2010 1.381 . S
C2012 C2013 1.394 . S
C2012 H2020 0.930 . S
C2013 C2012 1.394 . S
C2013 C2014 1.383 . S
C2013 H2021 0.929 . S
C2014 C2013 1.383 . S
C2014 C2015 1.377 . S
C2015 H1999 0.930 . S
C2015 C2014 1.377 . S
C2015 C2016 1.379 . S
C2016 H2000 0.931 . S
C2016 C2010 1.383 . S
C2016 C2015 1.379 . S
H2017 C2011 0.959 . S
H2018 C2011 0.961 . S
H2019 C2011 0.960 . S
H2020 C2012 0.930 . S
H2021 C2013 0.929 . S
H2022 C2030 0.929 . S
H2023 C2032 0.930 . S
H2024 C2034 0.930 . S
H2025 C2037 0.929 . S
H2026 C2040 0.930 . S
H2027 C2042 0.960 . S
H2028 C2042 0.960 . S
H2029 C2042 0.960 . S
C2030 H2022 0.929 . S
C2030 C2031 1.377 . S
C2030 C2032 1.384 . S
C2031 C2030 1.377 . S
C2031 C2037 1.390 . S
C2032 H2023 0.930 . S
C2032 C2030 1.384 . S
C2032 C2033 1.372 . S
C2033 C2032 1.372 . S
C2033 C2034 1.400 . S
C2033 C2038 1.490 . S
C2034 H2024 0.930 . S
C2034 C2033 1.400 . S
C2034 C2037 1.386 . S
H2035 C2051 0.930 . S
H2036 C2052 0.931 . S
C2037 H2025 0.929 . S
C2037 C2031 1.390 . S
C2037 C2034 1.386 . S
C2038 C2033 1.490 . S
C2038 C2040 1.395 . S
C2038 C2041 1.403 . S
H2039 C2045 0.930 . S
C2040 H2026 0.930 . S
C2040 C2038 1.395 . S
C2040 C2043 1.403 . S
C2041 C2038 1.403 . S
C2041 C2042 1.524 . S
C2041 C2045 1.400 . S
C2042 H2027 0.960 . S
C2042 H2028 0.960 . S
C2042 H2029 0.960 . S
C2042 C2041 1.524 . S
C2043 C2040 1.403 . S
C2043 C2044 1.392 . S
C2043 C2047 1.495 . S
C2044 C2043 1.392 . S
C2044 C2045 1.385 . S
C2044 C2046 1.478 . S
C2045 H2039 0.930 . S
C2045 C2041 1.400 . S
C2045 C2044 1.385 . S
C2046 C2044 1.478 . S
C2046 C2048 1.381 . S
C2046 C2052 1.383 . S
C2047 C2043 1.495 . S
C2047 H2053 0.959 . S
C2047 H2054 0.961 . S
C2047 H2055 0.960 . S
C2048 C2046 1.381 . S
C2048 C2049 1.394 . S
C2048 H2056 0.930 . S
C2049 C2048 1.394 . S
C2049 C2050 1.383 . S
C2049 H2057 0.929 . S
C2050 C2049 1.383 . S
C2050 C2051 1.377 . S
C2051 H2035 0.930 . S
C2051 C2050 1.377 . S
C2051 C2052 1.379 . S
C2052 H2036 0.931 . S
C2052 C2046 1.383 . S
C2052 C2051 1.379 . S
H2053 C2047 0.959 . S
H2054 C2047 0.961 . S
H2055 C2047 0.960 . S
H2056 C2048 0.930 . S
H2057 C2049 0.929 . S
H2058 C2066 0.929 . S
H2059 C2068 0.930 . S
H2060 C2070 0.930 . S
H2061 C2073 0.929 . S
H2062 C2076 0.930 . S
H2063 C2078 0.960 . S
H2064 C2078 0.960 . S
H2065 C2078 0.960 . S
C2066 H2058 0.929 . S
C2066 C2067 1.377 . S
C2066 C2068 1.384 . S
C2067 C2066 1.377 . S
C2067 C2073 1.390 . S
C2068 H2059 0.930 . S
C2068 C2066 1.384 . S
C2068 C2069 1.372 . S
C2069 C2068 1.372 . S
C2069 C2070 1.400 . S
C2069 C2074 1.490 . S
C2070 H2060 0.930 . S
C2070 C2069 1.400 . S
C2070 C2073 1.386 . S
H2071 C2087 0.930 . S
H2072 C2088 0.931 . S
C2073 H2061 0.929 . S
C2073 C2067 1.390 . S
C2073 C2070 1.386 . S
C2074 C2069 1.490 . S
C2074 C2076 1.395 . S
C2074 C2077 1.403 . S
H2075 C2081 0.930 . S
C2076 H2062 0.930 . S
C2076 C2074 1.395 . S
C2076 C2079 1.403 . S
C2077 C2074 1.403 . S
C2077 C2078 1.524 . S
C2077 C2081 1.400 . S
C2078 H2063 0.960 . S
C2078 H2064 0.960 . S
C2078 H2065 0.960 . S
C2078 C2077 1.524 . S
C2079 C2076 1.403 . S
C2079 C2080 1.392 . S
C2079 C2083 1.495 . S
C2080 C2079 1.392 . S
C2080 C2081 1.385 . S
C2080 C2082 1.478 . S
C2081 H2075 0.930 . S
C2081 C2077 1.400 . S
C2081 C2080 1.385 . S
C2082 C2080 1.478 . S
C2082 C2084 1.381 . S
C2082 C2088 1.383 . S
C2083 C2079 1.495 . S
C2083 H2089 0.959 . S
C2083 H2090 0.961 . S
C2083 H2091 0.960 . S
C2084 C2082 1.381 . S
C2084 C2085 1.394 . S
C2084 H2092 0.930 . S
C2085 C2084 1.394 . S
C2085 C2086 1.383 . S
C2085 H2093 0.929 . S
C2086 C2085 1.383 . S
C2086 C2087 1.377 . S
C2087 H2071 0.930 . S
C2087 C2086 1.377 . S
C2087 C2088 1.379 . S
C2088 H2072 0.931 . S
C2088 C2082 1.383 . S
C2088 C2087 1.379 . S
H2089 C2083 0.959 . S
H2090 C2083 0.961 . S
H2091 C2083 0.960 . S
H2092 C2084 0.930 . S
H2093 C2085 0.929 . S
H2094 C2102 0.929 . S
H2095 C2104 0.930 . S
H2096 C2106 0.930 . S
H2097 C2109 0.929 . S
H2098 C2112 0.930 . S
H2099 C2114 0.960 . S
H2100 C2114 0.960 . S
H2101 C2114 0.960 . S
C2102 H2094 0.929 . S
C2102 C2103 1.377 . S
C2102 C2104 1.384 . S
C2103 C2102 1.377 . S
C2103 C2109 1.390 . S
C2104 H2095 0.930 . S
C2104 C2102 1.384 . S
C2104 C2105 1.372 . S
C2105 C2104 1.372 . S
C2105 C2106 1.400 . S
C2105 C2110 1.490 . S
C2106 H2096 0.930 . S
C2106 C2105 1.400 . S
C2106 C2109 1.386 . S
H2107 C2123 0.930 . S
H2108 C2124 0.931 . S
C2109 H2097 0.929 . S
C2109 C2103 1.390 . S
C2109 C2106 1.386 . S
C2110 C2105 1.490 . S
C2110 C2112 1.395 . S
C2110 C2113 1.403 . S
H2111 C2117 0.930 . S
C2112 H2098 0.930 . S
C2112 C2110 1.395 . S
C2112 C2115 1.403 . S
C2113 C2110 1.403 . S
C2113 C2114 1.524 . S
C2113 C2117 1.400 . S
C2114 H2099 0.960 . S
C2114 H2100 0.960 . S
C2114 H2101 0.960 . S
C2114 C2113 1.524 . S
C2115 C2112 1.403 . S
C2115 C2116 1.392 . S
C2115 C2119 1.495 . S
C2116 C2115 1.392 . S
C2116 C2117 1.385 . S
C2116 C2118 1.478 . S
C2117 H2111 0.930 . S
C2117 C2113 1.400 . S
C2117 C2116 1.385 . S
C2118 C2116 1.478 . S
C2118 C2120 1.381 . S
C2118 C2124 1.383 . S
C2119 C2115 1.495 . S
C2119 H2125 0.959 . S
C2119 H2126 0.961 . S
C2119 H2127 0.960 . S
C2120 C2118 1.381 . S
C2120 C2121 1.394 . S
C2120 H2128 0.930 . S
C2121 C2120 1.394 . S
C2121 C2122 1.383 . S
C2121 H2129 0.929 . S
C2122 C2121 1.383 . S
C2122 C2123 1.377 . S
C2123 H2107 0.930 . S
C2123 C2122 1.377 . S
C2123 C2124 1.379 . S
C2124 H2108 0.931 . S
C2124 C2118 1.383 . S
C2124 C2123 1.379 . S
H2125 C2119 0.959 . S
H2126 C2119 0.961 . S
H2127 C2119 0.960 . S
H2128 C2120 0.930 . S
H2129 C2121 0.929 . S
H2130 C2138 0.929 . S
H2131 C2140 0.930 . S
H2132 C2142 0.930 . S
H2133 C2145 0.929 . S
H2134 C2148 0.930 . S
H2135 C2150 0.960 . S
H2136 C2150 0.960 . S
H2137 C2150 0.960 . S
C2138 H2130 0.929 . S
C2138 C2139 1.377 . S
C2138 C2140 1.384 . S
C2139 C2138 1.377 . S
C2139 C2145 1.390 . S
C2140 H2131 0.930 . S
C2140 C2138 1.384 . S
C2140 C2141 1.372 . S
C2141 C2140 1.372 . S
C2141 C2142 1.400 . S
C2141 C2146 1.490 . S
C2142 H2132 0.930 . S
C2142 C2141 1.400 . S
C2142 C2145 1.386 . S
H2143 C2159 0.930 . S
H2144 C2160 0.931 . S
C2145 H2133 0.929 . S
C2145 C2139 1.390 . S
C2145 C2142 1.386 . S
C2146 C2141 1.490 . S
C2146 C2148 1.395 . S
C2146 C2149 1.403 . S
H2147 C2153 0.930 . S
C2148 H2134 0.930 . S
C2148 C2146 1.395 . S
C2148 C2151 1.403 . S
C2149 C2146 1.403 . S
C2149 C2150 1.524 . S
C2149 C2153 1.400 . S
C2150 H2135 0.960 . S
C2150 H2136 0.960 . S
C2150 H2137 0.960 . S
C2150 C2149 1.524 . S
C2151 C2148 1.403 . S
C2151 C2152 1.392 . S
C2151 C2155 1.495 . S
C2152 C2151 1.392 . S
C2152 C2153 1.385 . S
C2152 C2154 1.478 . S
C2153 H2147 0.930 . S
C2153 C2149 1.400 . S
C2153 C2152 1.385 . S
C2154 C2152 1.478 . S
C2154 C2156 1.381 . S
C2154 C2160 1.383 . S
C2155 C2151 1.495 . S
C2155 H2161 0.959 . S
C2155 H2162 0.961 . S
C2155 H2163 0.960 . S
C2156 C2154 1.381 . S
C2156 C2157 1.394 . S
C2156 H2164 0.930 . S
C2157 C2156 1.394 . S
C2157 C2158 1.383 . S
C2157 H2165 0.929 . S
C2158 C2157 1.383 . S
C2158 C2159 1.377 . S
C2159 H2143 0.930 . S
C2159 C2158 1.377 . S
C2159 C2160 1.379 . S
C2160 H2144 0.931 . S
C2160 C2154 1.383 . S
C2160 C2159 1.379 . S
H2161 C2155 0.959 . S
H2162 C2155 0.961 . S
H2163 C2155 0.960 . S
H2164 C2156 0.930 . S
H2165 C2157 0.929 . S
C466 C267 0.646 . S
C447 N6 0.666 . S
C502 C268 2.174 . S
C483 C57 2.283 . S
C538 C262 1.238 . S
C519 C61 1.248 . S
C555 N96 0.499 . S
C574 C261 0.407 . S
C591 C136 2.282 . S
C610 C264 2.176 . S
C646 C266 1.236 . S
C627 C160 1.246 . S
C663 N194 0.505 . S
C682 C265 0.319 . S
C699 N224 0.664 . S
C718 C263 0.650 . S
C754 C298 1.954 . S
C735 C10 1.946 . S
C771 N36 0.847 . S
C790 C329 0.854 . S
C826 C297 0.527 . S
C807 N74 0.577 . S
C862 C332 1.131 . S
C843 C100 1.133 . S
C879 C121 1.393 . S
C898 C295 1.377 . S
C934 C327 1.904 . S
C915 C177 1.895 . S
C951 C196 1.960 . S
C970 C300 1.875 . S
C987 C226 1.925 . S
C1006 C334 1.885 . S
C1023 C27 1.925 . S
C1042 C330 1.849 . S
C1059 N134 0.846 . S
C1078 C333 0.800 . S
C1114 C301 0.577 . S
C1095 N156 0.576 . S
C1150 C328 1.066 . S
C1131 C181 1.136 . S
C1167 C211 1.952 . S
C1186 C294 1.957 . S
C1203 C76 1.893 . S
C1222 C331 1.886 . S
C1258 C296 1.899 . S
C1239 C117 1.953 . S
C1275 C40 1.391 . S
C1294 C299 1.343 . S
C1311 N216 0.688 . S
C1330 C366 0.705 . S
C1347 C147 1.758 . S
C1366 C367 1.682 . S
C1402 C361 1.125 . S
C1383 C151 1.164 . S
C1438 C360 0.591 . S
C1419 N186 0.618 . S
C1455 C46 1.762 . S
C1474 C363 1.675 . S
C1510 C365 1.122 . S
C1491 C70 1.160 . S
C1527 N104 0.636 . S
C1546 C364 0.646 . S
C1563 N14 0.692 . S
C1582 C362 0.662 . S
C1599 C220 2.074 . S
C1618 C400 1.988 . S
C1654 C432 0.705 . S
C1635 N126 0.756 . S
C1671 N164 0.512 . S
C1690 C393 0.481 . S
C1707 C190 1.418 . S
C1726 C427 1.386 . S
C1762 C398 1.165 . S
C1743 C31 1.158 . S
C1779 C87 2.072 . S
C1798 C429 1.999 . S
C1834 C395 2.107 . S
C1815 C106 2.207 . S
C1870 C430 1.861 . S
C1851 C16 1.816 . S
C1906 C426 1.852 . S
C1887 C237 1.819 . S
C1923 N44 0.764 . S
C1942 C428 0.750 . S
C1959 N66 0.490 . S
C1978 C397 0.421 . S
C2014 C431 1.381 . S
C1995 C91 1.415 . S
C2031 C1 2.073 . S
C2050 C396 2.003 . S
C2067 C166 2.073 . S
C2086 C433 2.026 . S
C2122 C399 2.127 . S
C2103 C207 2.205 . S
C2158 C394 1.165 . S
C2139 C130 1.152 . S
