# Generated by pormake.
# Topology nia, (6,6)-cn, num edge types: 1
# Building blocks:
#     Node 0, Type 0, BuildingBlock: KUMJIN_clean_sbu_1, # of connection points: 6
#     Node 1, Type 0, BuildingBlock: KUMJIN_clean_sbu_1, # of connection points: 6
#     Node 2, Type 1, BuildingBlock: MIDCAF_clean_sbu_0, # of connection points: 6
#     Node 3, Type 1, BuildingBlock: MIDCAF_clean_sbu_0, # of connection points: 6
#     Edge 4, Type (0, 1), BuildingBlock: UVAHIK_clean_linker_0, # of connection points: 2
#     Edge 5, Type (0, 1), BuildingBlock: UVAHIK_clean_linker_0, # of connection points: 2
#     Edge 6, Type (0, 1), BuildingBlock: UVAHIK_clean_linker_0, # of connection points: 2
#     Edge 7, Type (0, 1), BuildingBlock: UVAHIK_clean_linker_0, # of connection points: 2
#     Edge 8, Type (0, 1), BuildingBlock: UVAHIK_clean_linker_0, # of connection points: 2
#     Edge 9, Type (0, 1), BuildingBlock: UVAHIK_clean_linker_0, # of connection points: 2
#     Edge 10, Type (0, 1), BuildingBlock: UVAHIK_clean_linker_0, # of connection points: 2
#     Edge 11, Type (0, 1), BuildingBlock: UVAHIK_clean_linker_0, # of connection points: 2
#     Edge 12, Type (0, 1), BuildingBlock: UVAHIK_clean_linker_0, # of connection points: 2
#     Edge 13, Type (0, 1), BuildingBlock: UVAHIK_clean_linker_0, # of connection points: 2
#     Edge 14, Type (0, 1), BuildingBlock: UVAHIK_clean_linker_0, # of connection points: 2
#     Edge 15, Type (0, 1), BuildingBlock: UVAHIK_clean_linker_0, # of connection points: 2
# Relax obj value: 0.167
# Max RMSD: 0.273
# Mean RMSD: 0.199
data_MOF--net-nia--node1-KUMJIN_clean_sbu_1--node2-MIDCAF_clean_sbu_0--edge1-UVAHIK_clean_linker_0
_symmetry_space_group_name_H-M    P1
_symmetry_Int_Tables_number       1
_symmetry_cell_setting            triclinic
loop_
_symmetry_equiv_pos_as_xyz
'x, y, z'
_cell_length_a     35.251442
_cell_length_b     35.186707
_cell_length_c     40.062746
_cell_angle_alpha  89.785416
_cell_angle_beta   90.137628
_cell_angle_gamma 134.03678
loop_
_atom_site_label
_atom_site_type_symbol
_atom_site_fract_x
_atom_site_fract_y
_atom_site_fract_z
_atom_type_partial_charge
Eu0 Eu 0.0178 0.9855 0.04524 0.0
C1 C 0.91171 0.93443 0.90766 0.0
N2 N 0.96232 0.97793 0.91585 0.0
C3 C -0.00663 0.96847 0.86649 0.0
C4 C 0.90001 0.90445 0.87919 0.0
C5 C 0.00297 -0.00336 0.89517 0.0
C6 C 0.94172 0.92168 0.85873 0.0
C7 C 0.81849 0.87725 0.91884 0.0
C8 C 0.87167 0.92115 0.92728 0.0
C9 C 0.80653 0.84545 0.89155 0.0
C10 C 0.84723 0.85906 0.87174 0.0
Eu11 Eu 0.97622 0.02234 0.9653 0.0
N12 N 0.88467 0.95321 0.95318 0.0
C13 C 0.77898 0.86781 0.9373 0.0
C14 C 0.84636 0.9467 0.96933 0.0
C15 C 0.79304 0.90331 0.96222 0.0
H16 H 0.04283 0.03264 0.90138 0.0
H17 H 0.76284 0.89767 0.97569 0.0
H18 H 0.91569 0.92392 0.09854 0.0
H19 H 0.22521 0.15897 0.06958 0.0
H20 H 0.8566 0.97507 0.9876 0.0
H21 H 0.73765 0.83452 0.93163 0.0
H22 H 0.14863 0.07839 0.03946 0.0
H23 H 0.02577 0.98267 0.85051 0.0
H24 H 0.76591 0.81119 0.88496 0.0
H25 H 0.83742 0.83499 0.85026 0.0
H26 H 0.89203 0.94501 0.14821 0.0
H27 H 0.93438 0.89976 0.83661 0.0
H28 H 0.21071 0.18814 0.11991 0.0
N29 N -0.00713 0.00056 0.09469 0.0
C30 C 0.03197 0.04617 0.11132 0.0
C31 C 0.93131 0.97439 0.13772 0.0
C32 C 0.02152 0.05879 0.14111 0.0
C33 C 0.94422 0.96311 0.10889 0.0
C34 C 0.96991 0.02302 0.15352 0.0
N35 N 0.09215 0.06385 0.0719 0.0
C36 C 0.14228 0.09134 0.0613 0.0
C37 C 0.12565 0.12331 0.11819 0.0
C38 C 0.08338 0.07806 0.1001 0.0
C39 C 0.17716 0.15301 0.10675 0.0
C40 C 0.18551 0.13671 0.07832 0.0
H41 H 0.96018 0.03129 0.17626 0.0
H42 H 0.05589 0.11566 0.18123 0.0
H43 H 0.14714 0.1717 0.16141 0.0
O44 O 0.06403 0.96503 0.05004 0.0
O45 O 0.05688 0.06917 0.03232 0.0
O46 O 0.99058 0.06176 0.01454 0.0
O47 O -0.00189 0.92914 0.08268 0.0
O48 O 0.06444 0.00687 0.99775 0.0
O49 O 0.06205 0.06299 0.96919 0.0
O50 O 0.95143 0.05573 0.93744 0.0
O51 O 0.98082 0.96151 0.96042 0.0
O52 O 0.95389 0.91822 0.01074 0.0
O53 O 0.03404 0.09873 0.94062 0.0
O54 O 0.93177 -0.00097 0.01418 0.0
O55 O 0.93071 0.93843 0.03774 0.0
C56 C 0.03259 0.0851 0.03283 0.0
C57 C 0.0718 0.95027 0.10639 0.0
C58 C 0.1268 0.94378 0.13754 0.0
C59 C 0.1306 0.97301 0.1636 0.0
C60 C 0.07573 0.97876 0.13299 0.0
C61 C 0.10538 0.9905 0.16119 0.0
C62 C 0.09763 0.93306 0.10871 0.0
C63 C 0.08281 0.04357 0.97495 0.0
C64 C 0.03929 0.93691 0.07691 0.0
C65 C 0.06322 0.10515 0.15844 0.0
C66 C 0.11521 0.13706 0.14717 0.0
C67 C 0.95468 0.91812 0.97794 0.0
C68 C 0.01266 0.14907 0.93773 0.0
C69 C 0.00376 0.20974 0.92199 0.0
C70 C 0.03978 0.24437 0.9474 0.0
C71 C 0.04775 0.18371 0.9633 0.0
C72 C 0.99043 0.16195 0.9175 0.0
C73 C 0.06122 0.23114 0.968 0.0
C74 C 0.90941 0.95729 0.03302 0.0
C75 C -0.00043 0.09993 0.93115 0.0
H76 H 0.15176 0.98108 0.18636 0.0
H77 H 0.05504 0.99109 0.13239 0.0
H78 H 0.10791 0.01231 0.18156 0.0
H79 H 0.09457 0.91102 0.08822 0.0
H80 H 0.05182 0.28192 0.95128 0.0
H81 H 0.06507 0.17439 0.97945 0.0
H82 H 0.96224 0.13418 0.89849 0.0
H83 H 0.08866 0.25794 0.98755 0.0
Eu84 Eu 0.01638 0.97316 0.46766 0.0
C85 C 0.05005 0.05167 0.61709 0.0
N86 N 0.00324 0.01137 0.602 0.0
C87 C 0.97276 0.95758 0.65095 0.0
C88 C 0.06029 0.04592 0.64984 0.0
C89 C 0.96448 0.96501 0.61842 0.0
C90 C 0.02095 -0.00188 0.6667 0.0
C91 C 0.1377 0.14046 0.61431 0.0
C92 C 0.08839 0.09845 0.59944 0.0
C93 C 0.14799 0.13477 0.64689 0.0
C94 C 0.10942 0.08767 0.66459 0.0
Eu95 Eu -0.00636 0.02653 0.5467 0.0
N96 N 0.07804 0.10225 0.56744 0.0
C97 C 0.17541 0.18691 0.59591 0.0
C98 C 0.11388 0.14835 0.55 0.0
C99 C 0.16322 0.19102 0.56376 0.0
H100 H 0.92681 0.93415 0.60661 0.0
H101 H 0.19173 0.22722 0.54962 0.0
H102 H 0.03678 0.04738 0.40383 0.0
H103 H 0.8563 0.75832 0.4854 0.0
H104 H 0.10479 0.15305 0.52564 0.0
H105 H 0.21377 0.22001 0.60643 0.0
H106 H 0.94506 0.84656 0.49355 0.0
H107 H 0.94194 0.92068 0.66389 0.0
H108 H 0.18574 0.16656 0.65861 0.0
H109 H 0.11803 0.08388 0.68968 0.0
H110 H 0.98887 0.0382 0.35427 0.0
H111 H 0.02732 0.99218 0.69187 0.0
H112 H 0.79753 0.74478 0.44232 0.0
N113 N 0.97439 0.9677 0.41926 0.0
C114 C 0.92581 0.91947 0.41233 0.0
C115 C 0.97063 0.00459 0.37045 0.0
C116 C 0.89699 0.91248 0.38444 0.0
C117 C -0.00242 0.00981 0.39852 0.0
C118 C 0.91997 0.95583 0.3635 0.0
N119 N 0.93375 0.88491 0.45994 0.0
C120 C 0.91851 0.84225 0.47667 0.0
C121 C 0.85427 0.82685 0.4268 0.0
C122 C 0.90452 0.87731 0.43361 0.0
C123 C 0.83587 0.78413 0.44674 0.0
C124 C 0.86874 0.79166 0.47123 0.0
H125 H 0.89901 0.95203 0.34189 0.0
H126 H 0.82318 0.85683 0.35743 0.0
H127 H 0.7859 0.78182 0.39436 0.0
O128 O 0.04792 0.93764 0.46055 0.0
O129 O 0.96186 0.98644 0.46498 0.0
O130 O 0.9229 0.95967 0.51613 0.0
O131 O 0.05671 0.98564 0.42174 0.0
O132 O -0.00428 0.93205 0.51818 0.0
O133 O 0.94111 0.93786 0.54362 0.0
O134 O 0.97742 0.07615 0.54219 0.0
O135 O 0.05608 0.02393 0.55139 0.0
O136 O 0.08925 0.03755 0.49849 0.0
O137 O 0.94537 0.0222 0.58372 0.0
O138 O 0.02417 0.07462 0.49835 0.0
O139 O 0.07123 0.06183 0.46902 0.0
C140 C 0.92058 0.96348 0.48387 0.0
C141 C 0.12398 0.98744 0.42652 0.0
C142 C 0.18837 0.98977 0.40096 0.0
C143 C 0.22911 0.04176 0.41282 0.0
C144 C 0.16508 0.03922 0.43804 0.0
C145 C 0.21742 0.06608 0.43136 0.0
C146 C 0.13567 0.96277 0.40823 0.0
C147 C 0.95837 0.91479 0.53987 0.0
C148 C 0.06876 0.96003 0.43165 0.0
C149 C 0.84614 0.86281 0.37851 0.0
C150 C 0.8248 0.82015 0.39966 0.0
C151 C 0.09439 0.04071 0.53114 0.0
C152 C 0.89515 0.03876 0.56351 0.0
C153 C 0.83969 0.05677 0.56961 0.0
C154 C 0.79691 0.00614 0.55657 0.0
C155 C 0.85203 0.98883 0.55036 0.0
C156 C 0.88904 0.07277 0.57277 0.0
C157 C 0.80328 0.97278 0.54683 0.0
C158 C 0.05796 0.0881 0.47481 0.0
C159 C 0.94637 0.05537 0.56811 0.0
H160 H 0.27004 0.06408 0.40732 0.0
H161 H 0.15659 0.0591 0.45162 0.0
H162 H 0.249 0.10617 0.44017 0.0
H163 H 0.1036 0.92257 0.39968 0.0
H164 H 0.75806 0.99162 0.55445 0.0
H165 H 0.8559 0.96204 0.5432 0.0
H166 H 0.92288 0.11164 0.58232 0.0
H167 H 0.77005 0.93399 0.53689 0.0
Zn168 Zn 0.36128 0.66113 0.19276 0.0
Zn169 Zn 0.32577 0.64418 0.32137 0.0
Zn170 Zn 0.34818 0.65419 0.25816 0.0
C171 C 0.43183 0.69465 0.31551 0.0
C172 C 0.26179 0.54287 0.2984 0.0
O173 O 0.32544 0.69332 0.2351 0.0
O174 O 0.32658 0.68533 0.18034 0.0
C175 C 0.46084 0.72369 0.22285 0.0
O176 O 0.42324 0.69521 0.28433 0.0
O177 O 0.39488 0.6721 0.33648 0.0
O178 O 0.26481 0.56674 0.32328 0.0
O179 O 0.2911 0.56921 0.27256 0.0
O180 O 0.43913 0.71387 0.19488 0.0
O181 O 0.43325 0.70324 0.24983 0.0
O182 O 0.30019 0.57349 0.23794 0.0
O183 O 0.32381 0.58686 0.1848 0.0
C184 C 0.29774 0.55574 0.20912 0.0
O185 O 0.31867 0.69176 0.26965 0.0
O186 O 0.31348 0.69082 0.32474 0.0
C187 C 0.31792 0.70041 0.20511 0.0
C188 C 0.30951 0.70408 0.29666 0.0
Zn189 Zn 0.64731 0.32341 0.8226 0.0
Zn190 Zn 0.66856 0.35927 0.64395 0.0
Zn191 Zn 0.65337 0.34098 0.76125 0.0
C192 C 0.70404 0.4268 0.7121 0.0
C193 C 0.58038 0.29857 0.70405 0.0
O194 O 0.69152 0.31184 0.77209 0.0
O195 O 0.67856 0.29365 0.82604 0.0
C196 C 0.70948 0.43422 0.81092 0.0
O197 O 0.69881 0.42131 0.7439 0.0
O198 O 0.68248 0.38536 0.6949 0.0
O199 O 0.62613 0.32842 0.69051 0.0
O200 O 0.57844 0.29493 0.73598 0.0
O201 O 0.69313 0.40025 0.83331 0.0
O202 O 0.69814 0.42044 0.78012 0.0
O203 O 0.56814 0.28593 0.77096 0.0
O204 O 0.56912 0.27314 0.82491 0.0
C205 C 0.54375 0.2637 0.79872 0.0
O206 O 0.6873 0.31493 0.73825 0.0
O207 O 0.67858 0.33853 0.69077 0.0
C208 C 0.69694 0.29507 0.79857 0.0
C209 C 0.69193 0.31754 0.70646 0.0
C210 C 0.19981 0.9521 0.15789 0.0
C211 C 0.15107 0.92248 0.14146 0.0
C212 C 0.22035 0.93028 0.16424 0.0
C213 C 0.21468 0.82732 0.13698 0.0
H214 H 0.26074 0.83551 0.227 0.0
C215 C 0.25669 0.70316 0.17783 0.0
C216 C 0.29948 0.72649 0.1992 0.0
C217 C 0.23998 0.72852 0.17107 0.0
C218 C 0.24875 0.83351 0.20165 0.0
H219 H 0.08625 0.84685 0.11837 0.0
H220 H 0.12296 0.80944 0.12866 0.0
H221 H 0.23027 0.87841 0.21366 0.0
H222 H 0.35969 0.7948 0.22957 0.0
H223 H 0.33134 0.84015 0.21722 0.0
H224 H 0.23357 0.78305 0.12471 0.0
C225 C 0.14511 0.84955 0.13662 0.0
C226 C 0.23124 0.858 0.19404 0.0
C227 C 0.12425 0.87113 0.13058 0.0
C228 C 0.32601 0.77589 0.21339 0.0
C229 C 0.30969 0.80165 0.20635 0.0
C230 C 0.23258 0.80326 0.14448 0.0
C231 C 0.19296 0.87866 0.15392 0.0
C232 C 0.21362 0.8547 0.1617 0.0
C233 C 0.2665 0.77824 0.18503 0.0
C234 C 0.24931 0.80557 0.17698 0.0
H235 H 0.22201 0.99213 0.16605 0.0
H236 H 0.25772 0.95382 0.17719 0.0
H237 H 0.20198 0.82481 0.11175 0.0
H238 H 0.2359 0.66508 0.16657 0.0
H239 H 0.20608 0.70896 0.155 0.0
C240 C 0.19276 0.10041 0.52802 0.0
C241 C 0.14548 0.06514 0.54623 0.0
C242 C 0.241 0.12476 0.54308 0.0
C243 C 0.29743 0.11224 0.61571 0.0
H244 H 0.42035 0.26096 0.59975 0.0
C245 C 0.48203 0.23387 0.6994 0.0
C246 C 0.53183 0.27048 0.68405 0.0
C247 C 0.43605 0.20806 0.68094 0.0
C248 C 0.38657 0.21924 0.60414 0.0
H249 H 0.11173 0.02735 0.59444 0.0
H250 H 0.19545 0.07061 0.62083 0.0
H251 H 0.33803 0.21735 0.5704 0.0
H252 H 0.5723 0.30852 0.63712 0.0
H253 H 0.49184 0.2632 0.60478 0.0
H254 H 0.34565 0.11427 0.6498 0.0
C255 C 0.19548 0.07893 0.59477 0.0
C256 C 0.33937 0.19421 0.58729 0.0
C257 C 0.14743 0.05451 0.57971 0.0
C258 C 0.53457 0.28049 0.6497 0.0
C259 C 0.48849 0.2548 0.63121 0.0
C260 C 0.34449 0.13727 0.6326 0.0
C261 C 0.24293 0.11435 0.57669 0.0
C262 C 0.29404 0.14051 0.59315 0.0
C263 C 0.43867 0.21827 0.64664 0.0
C264 C 0.38948 0.19119 0.6273 0.0
H265 H 0.19268 0.11001 0.50235 0.0
H266 H 0.27674 0.15155 0.52835 0.0
H267 H 0.26364 0.0706 0.62033 0.0
H268 H 0.47844 0.22512 0.72578 0.0
H269 H 0.3984 0.18069 0.69372 0.0
C270 C 0.10781 0.17301 0.0571 0.0
C271 C 0.05321 0.13002 0.054 0.0
C272 C 0.12804 0.21302 0.07997 0.0
C273 C 0.09603 0.2751 0.1297 0.0
H274 H 0.22118 0.33123 0.17842 0.0
C275 C 0.21239 0.46067 0.21309 0.0
C276 C 0.26569 0.49925 0.20366 0.0
C277 C 0.18055 0.40822 0.20261 0.0
C278 C 0.186 0.31572 0.1652 0.0
H279 H 0.9766 0.09551 0.07113 0.0
H280 H 0.01201 0.16571 0.11155 0.0
H281 H 0.17655 0.25483 0.14242 0.0
H282 H 0.32839 0.51372 0.17753 0.0
H283 H 0.27353 0.4228 0.15957 0.0
H284 H 0.10734 0.338 0.15131 0.0
C285 C 0.03918 0.16859 0.09621 0.0
C286 C 0.16051 0.27206 0.14451 0.0
C287 C 0.01892 0.12861 0.07306 0.0
C288 C 0.28736 0.48445 0.18517 0.0
C289 C 0.25598 0.43232 0.1751 0.0
C290 C 0.12177 0.3191 0.15037 0.0
C291 C 0.09402 0.2107 0.10033 0.0
C292 C 0.11633 0.25237 0.12565 0.0
C293 C 0.20195 0.39387 0.18292 0.0
C294 C 0.16812 0.34094 0.16736 0.0
H295 H 0.1349 0.17506 0.04232 0.0
H296 H 0.17045 0.24558 0.08195 0.0
H297 H 0.0621 0.26087 0.11545 0.0
H298 H 0.19489 0.47153 0.22711 0.0
H299 H 0.13904 0.37929 0.20905 0.0
C300 C 0.79597 0.09061 0.56422 0.0
C301 C 0.83211 0.09174 0.58065 0.0
C302 C 0.78586 0.12024 0.57599 0.0
C303 C 0.7999 0.18874 0.65281 0.0
H304 H 0.75303 0.23674 0.59368 0.0
C305 C 0.70134 0.25379 0.70519 0.0
C306 C 0.70943 0.29466 0.68948 0.0
C307 C 0.71932 0.23278 0.69065 0.0
C308 C 0.76674 0.22436 0.61059 0.0
H309 H 0.88718 0.12701 0.6221 0.0
H310 H 0.87208 0.18086 0.64125 0.0
H311 H 0.78238 0.19708 0.57035 0.0
H312 H 0.74182 0.34505 0.64581 0.0
H313 H 0.77491 0.30938 0.6205 0.0
H314 H 0.78658 0.21802 0.69292 0.0
C315 C 0.84997 0.15554 0.61988 0.0
C316 C 0.78285 0.2007 0.5972 0.0
C317 C 0.8594 0.12517 0.60846 0.0
C318 C 0.73507 0.31351 0.65844 0.0
C319 C 0.75383 0.29287 0.64395 0.0
C320 C 0.78466 0.21311 0.66612 0.0
C321 C 0.81227 0.15278 0.60424 0.0
C322 C 0.79882 0.18167 0.61815 0.0
C323 C 0.74657 0.25245 0.66005 0.0
C324 C 0.76676 0.23029 0.64531 0.0
H325 H 0.77492 0.06641 0.54229 0.0
H326 H 0.75614 0.11633 0.56333 0.0
H327 H 0.8112 0.17424 0.66998 0.0
H328 H 0.68059 0.23755 0.72878 0.0
H329 H 0.71127 0.20064 0.70342 0.0
C330 C 0.85694 0.96903 0.06429 0.0
C331 C 0.86341 0.93585 0.05361 0.0
C332 C 0.8181 0.95109 0.08768 0.0
C333 C 0.73765 0.85194 0.15439 0.0
H334 H 0.64927 0.87927 0.14267 0.0
C335 C 0.53677 0.73305 0.21875 0.0
C336 C 0.51786 0.75697 0.22286 0.0
C337 C 0.58712 0.76198 0.20555 0.0
C338 C 0.67439 0.87233 0.1469 0.0
H339 H 0.83233 0.85699 0.0572 0.0
H340 H 0.76403 0.82538 0.09792 0.0
H341 H 0.7182 0.91392 0.10226 0.0
H342 H 0.53728 0.83018 0.2195 0.0
H343 H 0.6263 0.88168 0.19797 0.0
H344 H 0.69321 0.80959 0.19883 0.0
C345 C 0.78985 0.86566 0.08887 0.0
C346 C 0.71372 0.89194 0.12351 0.0
C347 C 0.82851 0.88353 0.06534 0.0
C348 C 0.55156 0.81126 0.21685 0.0
C349 C 0.6021 0.84039 0.20403 0.0
C350 C 0.69842 0.8325 0.17795 0.0
C351 C 0.78489 0.89957 0.10074 0.0
C352 C 0.74515 0.88119 0.12667 0.0
C353 C 0.61919 0.81529 0.19627 0.0
C354 C 0.66571 0.84174 0.1742 0.0
H355 H 0.8833 0.00957 0.05566 0.0
H356 H 0.81523 0.97813 0.09636 0.0
H357 H 0.762 0.84387 0.15779 0.0
H358 H 0.51082 0.69089 0.22262 0.0
H359 H 0.59872 0.7412 0.19982 0.0
C360 C 0.95738 0.84689 0.56123 0.0
C361 C 0.93362 0.86647 0.55962 0.0
C362 C 0.93291 0.79997 0.57836 0.0
C363 C 0.8529 0.71843 0.6472 0.0
H364 H 0.79845 0.5963 0.59546 0.0
C365 C 0.72915 0.51297 0.70901 0.0
C366 C 0.73155 0.47794 0.69563 0.0
C367 C 0.75387 0.56068 0.69281 0.0
C368 C 0.81424 0.63008 0.61053 0.0
H369 H 0.86563 0.85207 0.5753 0.0
H370 H 0.82441 0.77142 0.60673 0.0
H371 H 0.84306 0.67982 0.56728 0.0
H372 H 0.76218 0.46529 0.65513 0.0
H373 H 0.80782 0.5495 0.62771 0.0
H374 H 0.82671 0.67026 0.69063 0.0
C375 C 0.86164 0.79235 0.5942 0.0
C376 C 0.83936 0.67778 0.59422 0.0
C377 C 0.88544 0.83862 0.57636 0.0
C378 C 0.75954 0.49159 0.66589 0.0
C379 C 0.78532 0.53981 0.65004 0.0
C380 C 0.82887 0.67108 0.66367 0.0
C381 C 0.88492 0.7724 0.59497 0.0
C382 C 0.85862 0.72218 0.61241 0.0
C383 C 0.78255 0.57501 0.66306 0.0
C384 C 0.8089 0.62598 0.64558 0.0
H385 H -0.00538 0.86744 0.54884 0.0
H386 H 0.95157 0.78525 0.57876 0.0
H387 H 0.86788 0.75246 0.66169 0.0
H388 H 0.70668 0.5027 0.73143 0.0
H389 H 0.74944 0.58567 0.70336 0.0
C390 C 0.24513 0.97242 0.389 0.0
C391 C 0.20082 0.96389 0.3811 0.0
C392 C 0.25661 0.94774 0.37076 0.0
C393 C 0.19452 0.82994 0.32232 0.0
H394 H 0.33908 0.9054 0.29965 0.0
C395 C 0.25472 0.72131 0.27809 0.0
C396 C 0.29819 0.73707 0.29567 0.0
C397 C 0.24251 0.75162 0.27981 0.0
C398 C 0.29847 0.88378 0.30573 0.0
H399 H 0.1345 0.92339 0.34709 0.0
H400 H 0.15386 0.87894 0.31592 0.0
H401 H 0.31798 0.95433 0.31968 0.0
H402 H 0.36302 0.79601 0.32855 0.0
H403 H 0.34204 0.84874 0.33172 0.0
H404 H 0.17544 0.75908 0.3101 0.0
C405 C 0.17961 0.90494 0.33627 0.0
C406 C 0.28644 0.91179 0.31717 0.0
C407 C 0.16841 0.93015 0.35431 0.0
C408 C 0.32959 0.78352 0.31456 0.0
C409 C 0.31779 0.81389 0.31607 0.0
C410 C 0.20663 0.80181 0.31107 0.0
C411 C 0.22383 0.91351 0.34435 0.0
C412 C 0.23471 0.88496 0.32674 0.0
C413 C 0.27385 0.79812 0.29903 0.0
C414 C 0.25911 0.82829 0.30395 0.0
H415 H 0.27042 -0.00274 0.40981 0.0
H416 H 0.2904 0.95427 0.37798 0.0
H417 H 0.15429 0.80825 0.32958 0.0
H418 H 0.22978 0.68522 0.2636 0.0
H419 H 0.20852 0.73859 0.26632 0.0
C420 C 0.15048 0.10388 0.93071 0.0
C421 C 0.12698 0.06195 0.95335 0.0
C422 C 0.19053 0.11976 0.90923 0.0
C423 C 0.29145 0.11561 0.9004 0.0
H424 H 0.29972 0.15715 0.8088 0.0
C425 C 0.45784 0.17945 0.81815 0.0
C426 C 0.48631 0.22784 0.80163 0.0
C427 C 0.40736 0.15154 0.83034 0.0
C428 C 0.29796 0.14578 0.83433 0.0
H429 H 0.12714 0.00366 0.97095 0.0
H430 H 0.19688 0.03128 0.93345 0.0
H431 H 0.22533 0.12445 0.84396 0.0
H432 H 0.48361 0.28351 0.78257 0.0
H433 H 0.39526 0.23524 0.80463 0.0
H434 H 0.36422 0.13777 0.89134 0.0
C435 C 0.18467 0.05226 0.93256 0.0
C436 C 0.25548 0.1272 0.8545 0.0
C437 C 0.14465 0.03641 0.95407 0.0
C438 C 0.46196 0.24589 0.79499 0.0
C439 C 0.41148 0.21827 0.80769 0.0
C440 C 0.33369 0.13408 0.88034 0.0
C441 C 0.20812 0.09415 0.9099 0.0
C442 C 0.25193 0.11214 0.88784 0.0
C443 C 0.38484 0.17217 0.82697 0.0
C444 C 0.33762 0.1495 0.84708 0.0
H445 H 0.13794 0.12455 0.92949 0.0
H446 H 0.2083 0.15269 0.89247 0.0
H447 H 0.2906 0.10543 0.92612 0.0
H448 H 0.47601 0.16485 0.82346 0.0
H449 H 0.38729 0.11538 0.84421 0.0
C450 C 0.05702 0.15398 0.45245 0.0
C451 C 0.07881 0.13243 0.45219 0.0
C452 C 0.07341 0.19268 0.42927 0.0
C453 C 0.18289 0.29403 0.37295 0.0
H454 H 0.07947 0.29105 0.33508 0.0
C455 C 0.24843 0.46396 0.28994 0.0
C456 C 0.22938 0.4857 0.30155 0.0
C457 C 0.22458 0.41338 0.30021 0.0
C458 C 0.10877 0.29228 0.34533 0.0
H459 H 0.13596 0.13571 0.42781 0.0
H460 H 0.1644 0.20316 0.38729 0.0
H461 H 0.05039 0.21847 0.37079 0.0
H462 H 0.16856 0.47068 0.33087 0.0
H463 H 0.12692 0.38271 0.34873 0.0
H464 H 0.24139 0.36854 0.34833 0.0
C465 C 0.1347 0.19017 0.40549 0.0
C466 C 0.09218 0.25091 0.36593 0.0
C467 C 0.11832 0.15144 0.42871 0.0
C468 C 0.18387 0.45468 0.32149 0.0
C469 C 0.1599 0.40417 0.33159 0.0
C470 C 0.19947 0.33537 0.3523 0.0
C471 C 0.11204 0.21085 0.4053 0.0
C472 C 0.12918 0.252 0.38069 0.0
C473 C 0.18129 0.38383 0.32221 0.0
C474 C 0.16271 0.33563 0.33897 0.0
H475 H 0.02653 0.14033 0.47017 0.0
H476 H 0.05595 0.20859 0.43027 0.0
H477 H 0.21245 0.29632 0.38409 0.0
H478 H 0.28391 0.48736 0.2749 0.0
H479 H 0.24156 0.39847 0.29228 0.0
C480 C 0.96661 0.24963 0.91406 0.0
C481 C 0.97932 0.22272 0.90064 0.0
C482 C 0.94141 0.25957 0.89455 0.0
C483 C 0.84774 0.20415 0.82823 0.0
H484 H 0.89342 0.34117 0.82529 0.0
C485 C 0.71242 0.24015 0.81929 0.0
C486 C 0.72669 0.27989 0.79774 0.0
C487 C 0.74465 0.23069 0.82252 0.0
C488 C 0.88069 0.30291 0.82535 0.0
H489 H 0.97707 0.18716 0.85544 0.0
H490 H 0.93059 0.20233 0.82204 0.0
H491 H 0.95091 0.33289 0.85023 0.0
H492 H 0.78443 0.33949 0.7616 0.0
H493 H 0.84215 0.32405 0.76818 0.0
H494 H 0.77597 0.17357 0.80544 0.0
C495 C 0.94067 0.21588 0.84767 0.0
C496 C 0.91331 0.29814 0.83982 0.0
C497 C 0.96685 0.20683 0.86697 0.0
C498 C 0.77256 0.30848 0.77828 0.0
C499 C 0.80552 0.29979 0.78208 0.0
C500 C 0.81466 0.20874 0.81435 0.0
C501 C 0.92756 0.2421 0.86137 0.0
C502 C 0.89659 0.24854 0.84202 0.0
C503 C 0.79229 0.26158 0.80479 0.0
C504 C 0.83045 0.25798 0.81346 0.0
H505 H 0.97458 0.26167 0.93996 0.0
H506 H 0.93099 0.27925 0.90578 0.0
H507 H 0.83393 0.16544 0.82985 0.0
H508 H 0.67714 0.21753 0.83448 0.0
H509 H 0.73387 0.20135 0.8404 0.0
C510 C 0.87169 0.96311 0.43883 0.0
C511 C 0.87076 0.94026 0.46799 0.0
C512 C 0.82519 0.9382 0.42137 0.0
C513 C 0.68055 0.8386 0.43004 0.0
H514 H 0.68124 0.82786 0.33368 0.0
C515 C 0.48792 0.70032 0.35695 0.0
C516 C 0.48445 0.7203 0.32797 0.0
C517 C 0.5365 0.72736 0.37202 0.0
C518 C 0.68061 0.83103 0.36052 0.0
H519 H 0.8208 0.8748 0.50265 0.0
H520 H 0.73913 0.83103 0.47223 0.0
H521 H 0.76308 0.87614 0.36517 0.0
H522 H 0.52918 0.7835 0.29145 0.0
H523 H 0.61494 0.83118 0.31782 0.0
H524 H 0.59834 0.79363 0.42556 0.0
C525 C 0.77576 0.86828 0.46284 0.0
C526 C 0.7274 0.85865 0.37855 0.0
C527 C 0.82236 0.89327 0.4803 0.0
C528 C 0.53091 0.76681 0.31343 0.0
C529 C 0.57986 0.79417 0.32865 0.0
C530 C 0.63394 0.8111 0.41206 0.0
C531 C 0.77681 0.8901 0.4329 0.0
C532 C 0.72771 0.86232 0.41355 0.0
C533 C 0.58285 0.77536 0.35864 0.0
C534 C 0.63326 0.80646 0.37716 0.0
H535 H 0.90861 -0.00023 0.42913 0.0
H536 H 0.82718 0.95646 0.39874 0.0
H537 H 0.67971 0.84161 0.45687 0.0
H538 H 0.45276 0.66418 0.36849 0.0
H539 H 0.53761 0.71112 0.3946 0.0
C540 C 0.95149 0.87083 0.93024 0.0
C541 C 0.92945 0.86885 0.96012 0.0
C542 C 0.92657 0.82487 0.91211 0.0
C543 C 0.83333 0.68082 0.92184 0.0
H544 H 0.82978 0.68115 0.82501 0.0
C545 C 0.7315 0.51902 0.8088 0.0
C546 C 0.74114 0.48919 0.82151 0.0
C547 C 0.75566 0.56758 0.82336 0.0
C548 C 0.83016 0.68037 0.85203 0.0
H549 H 0.86452 0.81751 0.99481 0.0
H550 H 0.82073 0.7366 0.9632 0.0
H551 H 0.86649 0.7605 0.85581 0.0
H552 H 0.78528 0.4874 0.85804 0.0
H553 H 0.82826 0.57224 0.88286 0.0
H554 H 0.7965 0.60077 0.91828 0.0
C555 C 0.85743 0.77377 0.9538 0.0
C556 C 0.85158 0.7259 0.86967 0.0
C557 C 0.88245 0.81992 0.97194 0.0
C558 C 0.77704 0.50964 0.84788 0.0
C559 C 0.80129 0.55799 0.86225 0.0
C560 C 0.81203 0.63548 0.90427 0.0
C561 C 0.87919 0.77578 0.92362 0.0
C562 C 0.85384 0.72674 0.90478 0.0
C563 C 0.78967 0.58678 0.85089 0.0
C564 C 0.8108 0.63487 0.86916 0.0
H565 H 0.98833 0.90799 0.92097 0.0
H566 H 0.94498 0.82772 0.88936 0.0
H567 H 0.83483 0.68023 0.94883 0.0
H568 H 0.70282 0.50331 0.78916 0.0
H569 H 0.74564 0.58867 0.81418 0.0
loop_
_geom_bond_atom_site_label_1
_geom_bond_atom_site_label_2
_geom_bond_distance
_geom_bond_site_symmetry_2
_ccdc_geom_bond_type
Eu0 N29 2.600 . S
Eu0 N35 2.562 1_565 S
Eu0 O44 2.462 . S
Eu0 O45 2.373 1_565 S
Eu0 O47 2.432 . S
Eu0 O48 2.294 1_564 S
Eu0 O52 2.347 1_455 S
Eu0 O55 2.372 1_455 S
Eu0 C64 2.787 . S
C1 N2 1.365 1_665 S
C1 C4 1.405 . S
C1 C8 1.448 . S
N2 C1 1.365 1_445 S
N2 C5 1.319 . S
N2 Eu11 2.600 1_455 S
C3 C5 1.397 . S
C3 C6 1.367 . S
C3 H23 0.931 . S
C4 C1 1.405 . S
C4 C6 1.403 1_665 S
C4 C10 1.439 . S
C5 N2 1.319 . S
C5 C3 1.397 . S
C5 H16 0.930 . S
C6 C3 1.367 . S
C6 C4 1.403 1_445 S
C6 H27 0.923 1_545 S
C7 C8 1.430 . S
C7 C9 1.387 . S
C7 C13 1.404 . S
C8 C1 1.448 . S
C8 C7 1.430 . S
C8 N12 1.351 . S
C9 C7 1.387 . S
C9 C10 1.374 . S
C9 H24 0.931 . S
C10 C4 1.439 . S
C10 C9 1.374 . S
C10 H25 0.931 . S
Eu11 N2 2.600 1_655 S
Eu11 N12 2.562 1_545 S
Eu11 O46 2.312 1_656 S
Eu11 O49 2.372 1_655 S
Eu11 O50 2.462 . S
Eu11 O51 2.373 1_545 S
Eu11 O53 2.432 1_655 S
Eu11 O54 2.291 1_546 S
Eu11 C75 2.787 . S
N12 C8 1.351 . S
N12 Eu11 2.562 1_565 S
N12 C14 1.325 . S
C13 C7 1.404 . S
C13 C15 1.366 . S
C13 H21 0.930 . S
C14 N12 1.325 . S
C14 C15 1.416 . S
C14 H20 0.929 . S
C15 C13 1.366 . S
C15 C14 1.416 . S
C15 H17 0.930 . S
H16 C5 0.930 . S
H17 C15 0.930 . S
H18 C33 0.930 . S
H19 C40 0.930 . S
H20 C14 0.929 . S
H21 C13 0.930 . S
H22 C36 0.929 . S
H23 C3 0.931 . S
H24 C9 0.931 . S
H25 C10 0.931 . S
H26 C31 0.931 . S
H27 C6 0.923 1_565 S
H28 C39 0.930 . S
N29 Eu0 2.600 . S
N29 C30 1.365 1_565 S
N29 C33 1.319 1_455 S
C30 N29 1.365 1_545 S
C30 C32 1.405 . S
C30 C38 1.448 . S
C31 H26 0.931 . S
C31 C33 1.397 . S
C31 C34 1.367 1_565 S
C32 C30 1.405 . S
C32 C34 1.403 1_455 S
C32 C65 1.439 . S
C33 H18 0.930 . S
C33 N29 1.319 1_655 S
C33 C31 1.397 . S
C34 C31 1.367 1_545 S
C34 C32 1.403 1_655 S
C34 H41 0.929 . S
N35 Eu0 2.562 1_545 S
N35 C36 1.325 . S
N35 C38 1.351 . S
C36 H22 0.929 . S
C36 N35 1.325 . S
C36 C40 1.416 . S
C37 C38 1.430 . S
C37 C39 1.404 . S
C37 C66 1.387 . S
C38 C30 1.448 . S
C38 N35 1.351 . S
C38 C37 1.430 . S
C39 H28 0.930 . S
C39 C37 1.404 . S
C39 C40 1.366 . S
C40 H19 0.930 . S
C40 C36 1.416 . S
C40 C39 1.366 . S
H41 C34 0.929 . S
H42 C65 0.931 . S
H43 C66 0.931 . S
O44 Eu0 2.462 . S
O44 C64 1.252 . S
O45 Eu0 2.373 1_545 S
O45 C56 1.249 . S
O46 Eu11 2.312 1_454 S
O46 C56 1.293 . S
O47 Eu0 2.432 . S
O47 C64 1.268 . S
O48 Eu0 2.294 1_546 S
O48 C63 1.252 . S
O49 Eu11 2.372 1_455 S
O49 C63 1.257 . S
O50 Eu11 2.462 . S
O50 C75 1.252 . S
O51 Eu11 2.373 1_565 S
O51 C67 1.249 . S
O52 Eu0 2.347 1_655 S
O52 C67 1.249 1_554 S
O53 Eu11 2.432 1_455 S
O53 C75 1.268 1_455 S
O54 Eu11 2.291 1_564 S
O54 C74 1.255 . S
O55 Eu0 2.372 1_655 S
O55 C74 1.257 . S
C56 O45 1.249 . S
C56 O46 1.293 . S
C57 C60 1.382 . S
C57 C62 1.390 . S
C57 C64 1.506 . S
C58 C59 1.398 . S
C58 C62 1.392 . S
C59 C58 1.398 . S
C59 C61 1.372 . S
C59 H76 0.931 . S
C60 C57 1.382 . S
C60 C61 1.390 . S
C60 H77 0.931 1_455 S
C61 C59 1.372 . S
C61 C60 1.390 . S
C61 H78 0.929 . S
C62 C57 1.390 . S
C62 C58 1.392 . S
C62 H79 0.930 . S
C63 O48 1.252 . S
C63 O49 1.257 . S
C64 Eu0 2.787 . S
C64 O44 1.252 . S
C64 O47 1.268 . S
C64 C57 1.506 . S
C65 C32 1.439 . S
C65 H42 0.931 . S
C65 C66 1.374 . S
C66 C37 1.387 . S
C66 H43 0.931 . S
C66 C65 1.374 . S
C67 O51 1.249 . S
C67 O52 1.249 1_556 S
C68 C71 1.382 . S
C68 C72 1.390 . S
C68 C75 1.506 . S
C69 C70 1.398 . S
C69 C72 1.392 . S
C70 C69 1.398 . S
C70 C73 1.372 . S
C70 H80 0.931 . S
C71 C68 1.382 . S
C71 C73 1.390 . S
C71 H81 0.931 1_655 S
C72 C68 1.390 . S
C72 C69 1.392 . S
C72 H82 0.930 . S
C73 C70 1.372 . S
C73 C71 1.390 . S
C73 H83 0.928 1_655 S
C74 O54 1.255 . S
C74 O55 1.257 . S
C75 Eu11 2.787 . S
C75 O50 1.252 . S
C75 O53 1.268 1_655 S
C75 C68 1.506 . S
H76 C59 0.931 . S
H77 C60 0.931 1_655 S
H78 C61 0.929 . S
H79 C62 0.930 . S
H80 C70 0.931 . S
H81 C71 0.931 1_455 S
H82 C72 0.930 . S
H83 C73 0.928 1_455 S
Eu84 N113 2.600 1_565 S
Eu84 N119 2.562 1_455 S
Eu84 O128 2.462 . S
Eu84 O129 2.373 1_455 S
Eu84 O131 2.432 1_565 S
Eu84 O132 2.291 1_455 S
Eu84 O136 2.335 1_565 S
Eu84 O139 2.372 1_565 S
Eu84 C148 2.787 . S
C85 N86 1.365 . S
C85 C88 1.405 . S
C85 C92 1.448 . S
N86 C85 1.365 . S
N86 C89 1.319 1_445 S
N86 Eu95 2.600 1_455 S
C87 C89 1.397 . S
C87 C90 1.367 1_665 S
C87 H107 0.931 . S
C88 C85 1.405 . S
C88 C90 1.403 . S
C88 C94 1.439 . S
C89 N86 1.319 1_665 S
C89 C87 1.397 . S
C89 H100 0.930 . S
C90 C87 1.367 1_445 S
C90 C88 1.403 . S
C90 H111 0.927 1_545 S
C91 C92 1.430 . S
C91 C93 1.387 . S
C91 C97 1.404 . S
C92 C85 1.448 . S
C92 C91 1.430 . S
C92 N96 1.351 . S
C93 C91 1.387 . S
C93 C94 1.374 . S
C93 H108 0.931 . S
C94 C88 1.439 . S
C94 C93 1.374 . S
C94 H109 0.931 . S
Eu95 N86 2.600 1_655 S
Eu95 N96 2.562 1_655 S
Eu95 O130 2.335 1_545 S
Eu95 O133 2.372 1_545 S
Eu95 O134 2.462 . S
Eu95 O135 2.373 1_655 S
Eu95 O137 2.432 . S
Eu95 O138 2.291 1_655 S
Eu95 C159 2.787 . S
N96 C92 1.351 . S
N96 Eu95 2.562 1_455 S
N96 C98 1.325 . S
C97 C91 1.404 . S
C97 C99 1.366 . S
C97 H105 0.930 . S
C98 N96 1.325 . S
C98 C99 1.416 . S
C98 H104 0.929 . S
C99 C97 1.366 . S
C99 C98 1.416 . S
C99 H101 0.930 . S
H100 C89 0.930 . S
H101 C99 0.930 . S
H102 C117 0.930 . S
H103 C124 0.930 . S
H104 C98 0.929 . S
H105 C97 0.930 . S
H106 C120 0.929 . S
H107 C87 0.931 . S
H108 C93 0.931 . S
H109 C94 0.931 . S
H110 C115 0.931 . S
H111 C90 0.927 1_565 S
H112 C123 0.930 . S
N113 Eu84 2.600 1_545 S
N113 C114 1.365 1_445 S
N113 C117 1.319 . S
C114 N113 1.365 1_665 S
C114 C116 1.405 . S
C114 C122 1.448 . S
C115 H110 0.931 . S
C115 C117 1.397 . S
C115 C118 1.367 . S
C116 C114 1.405 . S
C116 C118 1.403 1_665 S
C116 C149 1.439 . S
C117 H102 0.930 . S
C117 N113 1.319 . S
C117 C115 1.397 . S
C118 C115 1.367 . S
C118 C116 1.403 1_445 S
C118 H125 0.929 . S
N119 Eu84 2.562 1_655 S
N119 C120 1.325 . S
N119 C122 1.351 . S
C120 H106 0.929 . S
C120 N119 1.325 . S
C120 C124 1.416 . S
C121 C122 1.430 . S
C121 C123 1.404 . S
C121 C150 1.387 . S
C122 C114 1.448 . S
C122 N119 1.351 . S
C122 C121 1.430 . S
C123 H112 0.930 . S
C123 C121 1.404 . S
C123 C124 1.366 . S
C124 H103 0.930 . S
C124 C120 1.416 . S
C124 C123 1.366 . S
H125 C118 0.929 . S
H126 C149 0.931 . S
H127 C150 0.931 . S
O128 Eu84 2.462 . S
O128 C148 1.252 . S
O129 Eu84 2.373 1_655 S
O129 C140 1.249 . S
O130 Eu95 2.335 1_565 S
O130 C140 1.264 . S
O131 Eu84 2.432 1_545 S
O131 C148 1.268 1_545 S
O132 Eu84 2.291 1_655 S
O132 C147 1.255 . S
O133 Eu95 2.372 1_565 S
O133 C147 1.257 . S
O134 Eu95 2.462 . S
O134 C159 1.252 . S
O135 Eu95 2.373 1_455 S
O135 C151 1.249 . S
O136 Eu84 2.335 1_545 S
O136 C151 1.264 . S
O137 Eu95 2.432 . S
O137 C159 1.268 . S
O138 Eu95 2.291 1_455 S
O138 C158 1.255 . S
O139 Eu84 2.372 1_545 S
O139 C158 1.257 . S
C140 O129 1.249 . S
C140 O130 1.264 . S
C141 C144 1.382 . S
C141 C146 1.390 . S
C141 C148 1.506 . S
C142 C143 1.398 . S
C142 C146 1.392 . S
C143 C142 1.398 . S
C143 C145 1.372 . S
C143 H160 0.931 . S
C144 C141 1.382 . S
C144 C145 1.390 . S
C144 H161 0.931 1_565 S
C145 C143 1.372 . S
C145 C144 1.390 . S
C145 H162 0.929 1_565 S
C146 C141 1.390 . S
C146 C142 1.392 . S
C146 H163 0.930 . S
C147 O132 1.255 . S
C147 O133 1.257 . S
C148 Eu84 2.787 . S
C148 O128 1.252 . S
C148 O131 1.268 1_565 S
C148 C141 1.506 . S
C149 C116 1.439 . S
C149 H126 0.931 . S
C149 C150 1.374 . S
C150 C121 1.387 . S
C150 H127 0.931 . S
C150 C149 1.374 . S
C151 O135 1.249 . S
C151 O136 1.264 . S
C152 C155 1.382 . S
C152 C156 1.390 . S
C152 C159 1.506 . S
C153 C154 1.398 . S
C153 C156 1.392 . S
C154 C153 1.398 . S
C154 C157 1.372 . S
C154 H164 0.931 . S
C155 C152 1.382 . S
C155 C157 1.390 . S
C155 H165 0.931 . S
C156 C152 1.390 . S
C156 C153 1.392 . S
C156 H166 0.930 . S
C157 C154 1.372 . S
C157 C155 1.390 . S
C157 H167 0.929 . S
C158 O138 1.255 . S
C158 O139 1.257 . S
C159 Eu95 2.787 . S
C159 O134 1.252 . S
C159 O137 1.268 . S
C159 C152 1.506 . S
H160 C143 0.931 . S
H161 C144 0.931 1_545 S
H162 C145 0.929 1_545 S
H163 C146 0.930 . S
H164 C154 0.931 . S
H165 C155 0.931 . S
H166 C156 0.930 . S
H167 C157 0.929 . S
Zn168 O174 1.920 . S
Zn168 O180 1.898 . S
Zn168 O183 1.905 . S
Zn169 O177 1.905 . S
Zn169 O178 1.898 . S
Zn169 O186 1.920 . S
Zn170 O173 2.080 . S
Zn170 O176 2.114 . S
Zn170 O179 2.120 . S
Zn170 O181 2.120 . S
Zn170 O182 2.114 . S
Zn170 O185 2.080 . S
C171 O176 1.166 . S
C171 O177 1.182 . S
C172 O178 1.167 . S
C172 O179 1.299 . S
O173 Zn170 2.080 . S
O173 C187 1.305 . S
O174 Zn168 1.920 . S
O174 C187 1.234 . S
C175 O180 1.167 . S
C175 O181 1.299 . S
O176 Zn170 2.114 . S
O176 C171 1.166 . S
O177 Zn169 1.905 . S
O177 C171 1.182 . S
O178 Zn169 1.898 . S
O178 C172 1.167 . S
O179 Zn170 2.120 . S
O179 C172 1.299 . S
O180 Zn168 1.898 . S
O180 C175 1.167 . S
O181 Zn170 2.120 . S
O181 C175 1.299 . S
O182 Zn170 2.114 . S
O182 C184 1.166 . S
O183 Zn168 1.905 . S
O183 C184 1.182 . S
C184 O182 1.166 . S
C184 O183 1.182 . S
O185 Zn170 2.080 . S
O185 C188 1.305 . S
O186 Zn169 1.920 . S
O186 C188 1.234 . S
C187 O173 1.305 . S
C187 O174 1.234 . S
C188 O185 1.305 . S
C188 O186 1.234 . S
Zn189 O195 1.920 . S
Zn189 O201 1.898 . S
Zn189 O204 1.905 . S
Zn190 O198 1.905 . S
Zn190 O199 1.898 . S
Zn190 O207 1.920 . S
Zn191 O194 2.080 . S
Zn191 O197 2.114 . S
Zn191 O200 2.120 . S
Zn191 O202 2.120 . S
Zn191 O203 2.114 . S
Zn191 O206 2.080 . S
C192 O197 1.166 . S
C192 O198 1.182 . S
C193 O199 1.167 . S
C193 O200 1.299 . S
O194 Zn191 2.080 . S
O194 C208 1.305 . S
O195 Zn189 1.920 . S
O195 C208 1.234 . S
C196 O201 1.167 . S
C196 O202 1.299 . S
O197 Zn191 2.114 . S
O197 C192 1.166 . S
O198 Zn190 1.905 . S
O198 C192 1.182 . S
O199 Zn190 1.898 . S
O199 C193 1.167 . S
O200 Zn191 2.120 . S
O200 C193 1.299 . S
O201 Zn189 1.898 . S
O201 C196 1.167 . S
O202 Zn191 2.120 . S
O202 C196 1.299 . S
O203 Zn191 2.114 . S
O203 C205 1.166 . S
O204 Zn189 1.905 . S
O204 C205 1.182 . S
C205 O203 1.166 . S
C205 O204 1.182 . S
O206 Zn191 2.080 . S
O206 C209 1.305 . S
O207 Zn190 1.920 . S
O207 C209 1.234 . S
C208 O194 1.305 . S
C208 O195 1.234 . S
C209 O206 1.305 . S
C209 O207 1.234 . S
C210 C211 1.349 . S
C210 C212 1.327 . S
C210 H235 0.950 . S
C211 C210 1.349 . S
C211 C227 1.349 . S
C212 C210 1.327 . S
C212 C231 1.429 . S
C212 H236 0.950 . S
C213 C230 1.574 . S
C213 C232 1.368 . S
C213 H237 0.949 . S
H214 C218 0.949 . S
C215 C216 1.349 . S
C215 C217 1.327 . S
C215 H238 0.950 . S
C216 C215 1.349 . S
C216 C228 1.349 . S
C217 C215 1.327 . S
C217 C233 1.429 . S
C217 H239 0.950 . S
C218 H214 0.949 . S
C218 C226 1.574 . S
C218 C234 1.368 . S
H219 C227 0.950 . S
H220 C225 0.950 . S
H221 C226 0.949 . S
H222 C228 0.950 . S
H223 C229 0.950 . S
H224 C230 0.949 . S
C225 H220 0.950 . S
C225 C227 1.327 . S
C225 C231 1.429 . S
C226 C218 1.574 . S
C226 H221 0.949 . S
C226 C232 1.368 . S
C227 C211 1.349 . S
C227 H219 0.950 . S
C227 C225 1.327 . S
C228 C216 1.349 . S
C228 H222 0.950 . S
C228 C229 1.327 . S
C229 H223 0.950 . S
C229 C228 1.327 . S
C229 C233 1.429 . S
C230 C213 1.574 . S
C230 H224 0.949 . S
C230 C234 1.368 . S
C231 C212 1.429 . S
C231 C225 1.429 . S
C231 C232 1.523 . S
C232 C213 1.368 . S
C232 C226 1.368 . S
C232 C231 1.523 . S
C233 C217 1.429 . S
C233 C229 1.429 . S
C233 C234 1.523 . S
C234 C218 1.368 . S
C234 C230 1.368 . S
C234 C233 1.523 . S
H235 C210 0.950 . S
H236 C212 0.950 . S
H237 C213 0.949 . S
H238 C215 0.950 . S
H239 C217 0.950 . S
C240 C241 1.349 . S
C240 C242 1.327 . S
C240 H265 0.950 . S
C241 C240 1.349 . S
C241 C257 1.349 . S
C242 C240 1.327 . S
C242 C261 1.429 . S
C242 H266 0.950 . S
C243 C260 1.574 . S
C243 C262 1.368 . S
C243 H267 0.949 . S
H244 C248 0.949 . S
C245 C246 1.349 . S
C245 C247 1.327 . S
C245 H268 0.950 . S
C246 C245 1.349 . S
C246 C258 1.349 . S
C247 C245 1.327 . S
C247 C263 1.429 . S
C247 H269 0.950 . S
C248 H244 0.949 . S
C248 C256 1.574 . S
C248 C264 1.368 . S
H249 C257 0.950 . S
H250 C255 0.950 . S
H251 C256 0.949 . S
H252 C258 0.950 . S
H253 C259 0.950 . S
H254 C260 0.949 . S
C255 H250 0.950 . S
C255 C257 1.327 . S
C255 C261 1.429 . S
C256 C248 1.574 . S
C256 H251 0.949 . S
C256 C262 1.368 . S
C257 C241 1.349 . S
C257 H249 0.950 . S
C257 C255 1.327 . S
C258 C246 1.349 . S
C258 H252 0.950 . S
C258 C259 1.327 . S
C259 H253 0.950 . S
C259 C258 1.327 . S
C259 C263 1.429 . S
C260 C243 1.574 . S
C260 H254 0.949 . S
C260 C264 1.368 . S
C261 C242 1.429 . S
C261 C255 1.429 . S
C261 C262 1.523 . S
C262 C243 1.368 . S
C262 C256 1.368 . S
C262 C261 1.523 . S
C263 C247 1.429 . S
C263 C259 1.429 . S
C263 C264 1.523 . S
C264 C248 1.368 . S
C264 C260 1.368 . S
C264 C263 1.523 . S
H265 C240 0.950 . S
H266 C242 0.950 . S
H267 C243 0.949 . S
H268 C245 0.950 . S
H269 C247 0.950 . S
C270 C271 1.349 . S
C270 C272 1.327 . S
C270 H295 0.950 . S
C271 C270 1.349 . S
C271 C287 1.349 . S
C272 C270 1.327 . S
C272 C291 1.429 . S
C272 H296 0.950 . S
C273 C290 1.574 . S
C273 C292 1.368 . S
C273 H297 0.949 . S
H274 C278 0.949 . S
C275 C276 1.349 . S
C275 C277 1.327 . S
C275 H298 0.950 . S
C276 C275 1.349 . S
C276 C288 1.349 . S
C277 C275 1.327 . S
C277 C293 1.429 . S
C277 H299 0.950 . S
C278 H274 0.949 . S
C278 C286 1.574 . S
C278 C294 1.368 . S
H279 C287 0.950 . S
H280 C285 0.950 . S
H281 C286 0.949 . S
H282 C288 0.950 . S
H283 C289 0.950 . S
H284 C290 0.949 . S
C285 H280 0.950 . S
C285 C287 1.327 . S
C285 C291 1.429 . S
C286 C278 1.574 . S
C286 H281 0.949 . S
C286 C292 1.368 . S
C287 C271 1.349 . S
C287 H279 0.950 . S
C287 C285 1.327 . S
C288 C276 1.349 . S
C288 H282 0.950 . S
C288 C289 1.327 . S
C289 H283 0.950 . S
C289 C288 1.327 . S
C289 C293 1.429 . S
C290 C273 1.574 . S
C290 H284 0.949 . S
C290 C294 1.368 . S
C291 C272 1.429 . S
C291 C285 1.429 . S
C291 C292 1.523 . S
C292 C273 1.368 . S
C292 C286 1.368 . S
C292 C291 1.523 . S
C293 C277 1.429 . S
C293 C289 1.429 . S
C293 C294 1.523 . S
C294 C278 1.368 . S
C294 C290 1.368 . S
C294 C293 1.523 . S
H295 C270 0.950 . S
H296 C272 0.950 . S
H297 C273 0.949 . S
H298 C275 0.950 . S
H299 C277 0.950 . S
C300 C301 1.349 . S
C300 C302 1.327 . S
C300 H325 0.950 . S
C301 C300 1.349 . S
C301 C317 1.349 . S
C302 C300 1.327 . S
C302 C321 1.429 . S
C302 H326 0.950 . S
C303 C320 1.574 . S
C303 C322 1.368 . S
C303 H327 0.949 . S
H304 C308 0.949 . S
C305 C306 1.349 . S
C305 C307 1.327 . S
C305 H328 0.950 . S
C306 C305 1.349 . S
C306 C318 1.349 . S
C307 C305 1.327 . S
C307 C323 1.429 . S
C307 H329 0.950 . S
C308 H304 0.949 . S
C308 C316 1.574 . S
C308 C324 1.368 . S
H309 C317 0.950 . S
H310 C315 0.950 . S
H311 C316 0.949 . S
H312 C318 0.950 . S
H313 C319 0.950 . S
H314 C320 0.949 . S
C315 H310 0.950 . S
C315 C317 1.327 . S
C315 C321 1.429 . S
C316 C308 1.574 . S
C316 H311 0.949 . S
C316 C322 1.368 . S
C317 C301 1.349 . S
C317 H309 0.950 . S
C317 C315 1.327 . S
C318 C306 1.349 . S
C318 H312 0.950 . S
C318 C319 1.327 . S
C319 H313 0.950 . S
C319 C318 1.327 . S
C319 C323 1.429 . S
C320 C303 1.574 . S
C320 H314 0.949 . S
C320 C324 1.368 . S
C321 C302 1.429 . S
C321 C315 1.429 . S
C321 C322 1.523 . S
C322 C303 1.368 . S
C322 C316 1.368 . S
C322 C321 1.523 . S
C323 C307 1.429 . S
C323 C319 1.429 . S
C323 C324 1.523 . S
C324 C308 1.368 . S
C324 C320 1.368 . S
C324 C323 1.523 . S
H325 C300 0.950 . S
H326 C302 0.950 . S
H327 C303 0.949 . S
H328 C305 0.950 . S
H329 C307 0.950 . S
C330 C331 1.349 . S
C330 C332 1.327 . S
C330 H355 0.950 . S
C331 C330 1.349 . S
C331 C347 1.349 . S
C332 C330 1.327 . S
C332 C351 1.429 . S
C332 H356 0.950 . S
C333 C350 1.574 . S
C333 C352 1.368 . S
C333 H357 0.949 . S
H334 C338 0.949 . S
C335 C336 1.349 . S
C335 C337 1.327 . S
C335 H358 0.950 . S
C336 C335 1.349 . S
C336 C348 1.349 . S
C337 C335 1.327 . S
C337 C353 1.429 . S
C337 H359 0.950 . S
C338 H334 0.949 . S
C338 C346 1.574 . S
C338 C354 1.368 . S
H339 C347 0.950 . S
H340 C345 0.950 . S
H341 C346 0.949 . S
H342 C348 0.950 . S
H343 C349 0.950 . S
H344 C350 0.949 . S
C345 H340 0.950 . S
C345 C347 1.327 . S
C345 C351 1.429 . S
C346 C338 1.574 . S
C346 H341 0.949 . S
C346 C352 1.368 . S
C347 C331 1.349 . S
C347 H339 0.950 . S
C347 C345 1.327 . S
C348 C336 1.349 . S
C348 H342 0.950 . S
C348 C349 1.327 . S
C349 H343 0.950 . S
C349 C348 1.327 . S
C349 C353 1.429 . S
C350 C333 1.574 . S
C350 H344 0.949 . S
C350 C354 1.368 . S
C351 C332 1.429 . S
C351 C345 1.429 . S
C351 C352 1.523 . S
C352 C333 1.368 . S
C352 C346 1.368 . S
C352 C351 1.523 . S
C353 C337 1.429 . S
C353 C349 1.429 . S
C353 C354 1.523 . S
C354 C338 1.368 . S
C354 C350 1.368 . S
C354 C353 1.523 . S
H355 C330 0.950 . S
H356 C332 0.950 . S
H357 C333 0.949 . S
H358 C335 0.950 . S
H359 C337 0.950 . S
C360 C361 1.349 . S
C360 C362 1.327 . S
C360 H385 0.950 . S
C361 C360 1.349 . S
C361 C377 1.349 . S
C362 C360 1.327 . S
C362 C381 1.429 . S
C362 H386 0.950 . S
C363 C380 1.574 . S
C363 C382 1.368 . S
C363 H387 0.949 . S
H364 C368 0.949 . S
C365 C366 1.349 . S
C365 C367 1.327 . S
C365 H388 0.950 . S
C366 C365 1.349 . S
C366 C378 1.349 . S
C367 C365 1.327 . S
C367 C383 1.429 . S
C367 H389 0.950 . S
C368 H364 0.949 . S
C368 C376 1.574 . S
C368 C384 1.368 . S
H369 C377 0.950 . S
H370 C375 0.950 . S
H371 C376 0.949 . S
H372 C378 0.950 . S
H373 C379 0.950 . S
H374 C380 0.949 . S
C375 H370 0.950 . S
C375 C377 1.327 . S
C375 C381 1.429 . S
C376 C368 1.574 . S
C376 H371 0.949 . S
C376 C382 1.368 . S
C377 C361 1.349 . S
C377 H369 0.950 . S
C377 C375 1.327 . S
C378 C366 1.349 . S
C378 H372 0.950 . S
C378 C379 1.327 . S
C379 H373 0.950 . S
C379 C378 1.327 . S
C379 C383 1.429 . S
C380 C363 1.574 . S
C380 H374 0.949 . S
C380 C384 1.368 . S
C381 C362 1.429 . S
C381 C375 1.429 . S
C381 C382 1.523 . S
C382 C363 1.368 . S
C382 C376 1.368 . S
C382 C381 1.523 . S
C383 C367 1.429 . S
C383 C379 1.429 . S
C383 C384 1.523 . S
C384 C368 1.368 . S
C384 C380 1.368 . S
C384 C383 1.523 . S
H385 C360 0.950 . S
H386 C362 0.950 . S
H387 C363 0.949 . S
H388 C365 0.950 . S
H389 C367 0.950 . S
C390 C391 1.349 . S
C390 C392 1.327 . S
C390 H415 0.950 . S
C391 C390 1.349 . S
C391 C407 1.349 . S
C392 C390 1.327 . S
C392 C411 1.429 . S
C392 H416 0.950 . S
C393 C410 1.574 . S
C393 C412 1.368 . S
C393 H417 0.949 . S
H394 C398 0.949 . S
C395 C396 1.349 . S
C395 C397 1.327 . S
C395 H418 0.950 . S
C396 C395 1.349 . S
C396 C408 1.349 . S
C397 C395 1.327 . S
C397 C413 1.429 . S
C397 H419 0.950 . S
C398 H394 0.949 . S
C398 C406 1.574 . S
C398 C414 1.368 . S
H399 C407 0.950 . S
H400 C405 0.950 . S
H401 C406 0.949 . S
H402 C408 0.950 . S
H403 C409 0.950 . S
H404 C410 0.949 . S
C405 H400 0.950 . S
C405 C407 1.327 . S
C405 C411 1.429 . S
C406 C398 1.574 . S
C406 H401 0.949 . S
C406 C412 1.368 . S
C407 C391 1.349 . S
C407 H399 0.950 . S
C407 C405 1.327 . S
C408 C396 1.349 . S
C408 H402 0.950 . S
C408 C409 1.327 . S
C409 H403 0.950 . S
C409 C408 1.327 . S
C409 C413 1.429 . S
C410 C393 1.574 . S
C410 H404 0.949 . S
C410 C414 1.368 . S
C411 C392 1.429 . S
C411 C405 1.429 . S
C411 C412 1.523 . S
C412 C393 1.368 . S
C412 C406 1.368 . S
C412 C411 1.523 . S
C413 C397 1.429 . S
C413 C409 1.429 . S
C413 C414 1.523 . S
C414 C398 1.368 . S
C414 C410 1.368 . S
C414 C413 1.523 . S
H415 C390 0.950 . S
H416 C392 0.950 . S
H417 C393 0.949 . S
H418 C395 0.950 . S
H419 C397 0.950 . S
C420 C421 1.349 . S
C420 C422 1.327 . S
C420 H445 0.950 . S
C421 C420 1.349 . S
C421 C437 1.349 . S
C422 C420 1.327 . S
C422 C441 1.429 . S
C422 H446 0.950 . S
C423 C440 1.574 . S
C423 C442 1.368 . S
C423 H447 0.949 . S
H424 C428 0.949 . S
C425 C426 1.349 . S
C425 C427 1.327 . S
C425 H448 0.950 . S
C426 C425 1.349 . S
C426 C438 1.349 . S
C427 C425 1.327 . S
C427 C443 1.429 . S
C427 H449 0.950 . S
C428 H424 0.949 . S
C428 C436 1.574 . S
C428 C444 1.368 . S
H429 C437 0.950 . S
H430 C435 0.950 . S
H431 C436 0.949 . S
H432 C438 0.950 . S
H433 C439 0.950 . S
H434 C440 0.949 . S
C435 H430 0.950 . S
C435 C437 1.327 . S
C435 C441 1.429 . S
C436 C428 1.574 . S
C436 H431 0.949 . S
C436 C442 1.368 . S
C437 C421 1.349 . S
C437 H429 0.950 . S
C437 C435 1.327 . S
C438 C426 1.349 . S
C438 H432 0.950 . S
C438 C439 1.327 . S
C439 H433 0.950 . S
C439 C438 1.327 . S
C439 C443 1.429 . S
C440 C423 1.574 . S
C440 H434 0.949 . S
C440 C444 1.368 . S
C441 C422 1.429 . S
C441 C435 1.429 . S
C441 C442 1.523 . S
C442 C423 1.368 . S
C442 C436 1.368 . S
C442 C441 1.523 . S
C443 C427 1.429 . S
C443 C439 1.429 . S
C443 C444 1.523 . S
C444 C428 1.368 . S
C444 C440 1.368 . S
C444 C443 1.523 . S
H445 C420 0.950 . S
H446 C422 0.950 . S
H447 C423 0.949 . S
H448 C425 0.950 . S
H449 C427 0.950 . S
C450 C451 1.349 . S
C450 C452 1.327 . S
C450 H475 0.950 . S
C451 C450 1.349 . S
C451 C467 1.349 . S
C452 C450 1.327 . S
C452 C471 1.429 . S
C452 H476 0.950 . S
C453 C470 1.574 . S
C453 C472 1.368 . S
C453 H477 0.949 . S
H454 C458 0.949 . S
C455 C456 1.349 . S
C455 C457 1.327 . S
C455 H478 0.950 . S
C456 C455 1.349 . S
C456 C468 1.349 . S
C457 C455 1.327 . S
C457 C473 1.429 . S
C457 H479 0.950 . S
C458 H454 0.949 . S
C458 C466 1.574 . S
C458 C474 1.368 . S
H459 C467 0.950 . S
H460 C465 0.950 . S
H461 C466 0.949 . S
H462 C468 0.950 . S
H463 C469 0.950 . S
H464 C470 0.949 . S
C465 H460 0.950 . S
C465 C467 1.327 . S
C465 C471 1.429 . S
C466 C458 1.574 . S
C466 H461 0.949 . S
C466 C472 1.368 . S
C467 C451 1.349 . S
C467 H459 0.950 . S
C467 C465 1.327 . S
C468 C456 1.349 . S
C468 H462 0.950 . S
C468 C469 1.327 . S
C469 H463 0.950 . S
C469 C468 1.327 . S
C469 C473 1.429 . S
C470 C453 1.574 . S
C470 H464 0.949 . S
C470 C474 1.368 . S
C471 C452 1.429 . S
C471 C465 1.429 . S
C471 C472 1.523 . S
C472 C453 1.368 . S
C472 C466 1.368 . S
C472 C471 1.523 . S
C473 C457 1.429 . S
C473 C469 1.429 . S
C473 C474 1.523 . S
C474 C458 1.368 . S
C474 C470 1.368 . S
C474 C473 1.523 . S
H475 C450 0.950 . S
H476 C452 0.950 . S
H477 C453 0.949 . S
H478 C455 0.950 . S
H479 C457 0.950 . S
C480 C481 1.349 . S
C480 C482 1.327 . S
C480 H505 0.950 . S
C481 C480 1.349 . S
C481 C497 1.349 . S
C482 C480 1.327 . S
C482 C501 1.429 . S
C482 H506 0.950 . S
C483 C500 1.574 . S
C483 C502 1.368 . S
C483 H507 0.949 . S
H484 C488 0.949 . S
C485 C486 1.349 . S
C485 C487 1.327 . S
C485 H508 0.950 . S
C486 C485 1.349 . S
C486 C498 1.349 . S
C487 C485 1.327 . S
C487 C503 1.429 . S
C487 H509 0.950 . S
C488 H484 0.949 . S
C488 C496 1.574 . S
C488 C504 1.368 . S
H489 C497 0.950 . S
H490 C495 0.950 . S
H491 C496 0.949 . S
H492 C498 0.950 . S
H493 C499 0.950 . S
H494 C500 0.949 . S
C495 H490 0.950 . S
C495 C497 1.327 . S
C495 C501 1.429 . S
C496 C488 1.574 . S
C496 H491 0.949 . S
C496 C502 1.368 . S
C497 C481 1.349 . S
C497 H489 0.950 . S
C497 C495 1.327 . S
C498 C486 1.349 . S
C498 H492 0.950 . S
C498 C499 1.327 . S
C499 H493 0.950 . S
C499 C498 1.327 . S
C499 C503 1.429 . S
C500 C483 1.574 . S
C500 H494 0.949 . S
C500 C504 1.368 . S
C501 C482 1.429 . S
C501 C495 1.429 . S
C501 C502 1.523 . S
C502 C483 1.368 . S
C502 C496 1.368 . S
C502 C501 1.523 . S
C503 C487 1.429 . S
C503 C499 1.429 . S
C503 C504 1.523 . S
C504 C488 1.368 . S
C504 C500 1.368 . S
C504 C503 1.523 . S
H505 C480 0.950 . S
H506 C482 0.950 . S
H507 C483 0.949 . S
H508 C485 0.950 . S
H509 C487 0.950 . S
C510 C511 1.349 . S
C510 C512 1.327 . S
C510 H535 0.950 . S
C511 C510 1.349 . S
C511 C527 1.349 . S
C512 C510 1.327 . S
C512 C531 1.429 . S
C512 H536 0.950 . S
C513 C530 1.574 . S
C513 C532 1.368 . S
C513 H537 0.949 . S
H514 C518 0.949 . S
C515 C516 1.349 . S
C515 C517 1.327 . S
C515 H538 0.950 . S
C516 C515 1.349 . S
C516 C528 1.349 . S
C517 C515 1.327 . S
C517 C533 1.429 . S
C517 H539 0.950 . S
C518 H514 0.949 . S
C518 C526 1.574 . S
C518 C534 1.368 . S
H519 C527 0.950 . S
H520 C525 0.950 . S
H521 C526 0.949 . S
H522 C528 0.950 . S
H523 C529 0.950 . S
H524 C530 0.949 . S
C525 H520 0.950 . S
C525 C527 1.327 . S
C525 C531 1.429 . S
C526 C518 1.574 . S
C526 H521 0.949 . S
C526 C532 1.368 . S
C527 C511 1.349 . S
C527 H519 0.950 . S
C527 C525 1.327 . S
C528 C516 1.349 . S
C528 H522 0.950 . S
C528 C529 1.327 . S
C529 H523 0.950 . S
C529 C528 1.327 . S
C529 C533 1.429 . S
C530 C513 1.574 . S
C530 H524 0.949 . S
C530 C534 1.368 . S
C531 C512 1.429 . S
C531 C525 1.429 . S
C531 C532 1.523 . S
C532 C513 1.368 . S
C532 C526 1.368 . S
C532 C531 1.523 . S
C533 C517 1.429 . S
C533 C529 1.429 . S
C533 C534 1.523 . S
C534 C518 1.368 . S
C534 C530 1.368 . S
C534 C533 1.523 . S
H535 C510 0.950 . S
H536 C512 0.950 . S
H537 C513 0.949 . S
H538 C515 0.950 . S
H539 C517 0.950 . S
C540 C541 1.349 . S
C540 C542 1.327 . S
C540 H565 0.950 1_655 S
C541 C540 1.349 . S
C541 C557 1.349 . S
C542 C540 1.327 . S
C542 C561 1.429 . S
C542 H566 0.950 . S
C543 C560 1.574 . S
C543 C562 1.368 . S
C543 H567 0.949 . S
H544 C548 0.949 . S
C545 C546 1.349 . S
C545 C547 1.327 . S
C545 H568 0.950 . S
C546 C545 1.349 . S
C546 C558 1.349 . S
C547 C545 1.327 . S
C547 C563 1.429 . S
C547 H569 0.950 . S
C548 H544 0.949 . S
C548 C556 1.574 . S
C548 C564 1.368 . S
H549 C557 0.950 . S
H550 C555 0.950 . S
H551 C556 0.949 . S
H552 C558 0.950 . S
H553 C559 0.950 . S
H554 C560 0.949 . S
C555 H550 0.950 . S
C555 C557 1.327 . S
C555 C561 1.429 . S
C556 C548 1.574 . S
C556 H551 0.949 . S
C556 C562 1.368 . S
C557 C541 1.349 . S
C557 H549 0.950 . S
C557 C555 1.327 . S
C558 C546 1.349 . S
C558 H552 0.950 . S
C558 C559 1.327 . S
C559 H553 0.950 . S
C559 C558 1.327 . S
C559 C563 1.429 . S
C560 C543 1.574 . S
C560 H554 0.949 . S
C560 C564 1.368 . S
C561 C542 1.429 . S
C561 C555 1.429 . S
C561 C562 1.523 . S
C562 C543 1.368 . S
C562 C556 1.368 . S
C562 C561 1.523 . S
C563 C547 1.429 . S
C563 C559 1.429 . S
C563 C564 1.523 . S
C564 C548 1.368 . S
C564 C560 1.368 . S
C564 C563 1.523 . S
H565 C540 0.950 1_455 S
H566 C542 0.950 . S
H567 C543 0.949 . S
H568 C545 0.950 . S
H569 C547 0.950 . S
C211 C58 1.167 . S
C216 C187 1.248 . S
C241 C151 1.521 . S
C246 C193 1.384 . S
C271 C56 1.591 . S
C276 C184 1.468 . S
C301 C153 1.195 . S
C306 C209 1.252 . S
C331 C74 1.563 . S
C336 C175 1.431 . S
C366 C192 1.511 . S
C361 C147 1.603 . S
C391 C142 1.167 . S
C396 C188 1.248 . S
C426 C205 1.511 . S
C421 C63 1.603 . S
C456 C172 1.431 . S
C451 C158 1.563 . S
C486 C208 1.252 . S
C481 C69 1.195 . S
C516 C171 1.467 . S
C511 C140 1.591 . S
C546 C196 1.384 . S
C541 C67 1.521 . S
