# Generated by pormake.
# Topology iac, (4,6)-cn, num edge types: 1
# Building blocks:
#     Node 0, Type 0, BuildingBlock: CEKHIL_clean_sbu_0, # of connection points: 4
#     Node 1, Type 0, BuildingBlock: CEKHIL_clean_sbu_0, # of connection points: 4
#     Node 2, Type 0, BuildingBlock: CEKHIL_clean_sbu_0, # of connection points: 4
#     Node 3, Type 0, BuildingBlock: CEKHIL_clean_sbu_0, # of connection points: 4
#     Node 4, Type 0, BuildingBlock: CEKHIL_clean_sbu_0, # of connection points: 4
#     Node 5, Type 0, BuildingBlock: CEKHIL_clean_sbu_0, # of connection points: 4
#     Node 6, Type 0, BuildingBlock: CEKHIL_clean_sbu_0, # of connection points: 4
#     Node 7, Type 0, BuildingBlock: CEKHIL_clean_sbu_0, # of connection points: 4
#     Node 8, Type 0, BuildingBlock: CEKHIL_clean_sbu_0, # of connection points: 4
#     Node 9, Type 0, BuildingBlock: CEKHIL_clean_sbu_0, # of connection points: 4
#     Node 10, Type 0, BuildingBlock: CEKHIL_clean_sbu_0, # of connection points: 4
#     Node 11, Type 0, BuildingBlock: CEKHIL_clean_sbu_0, # of connection points: 4
#     Node 12, Type 0, BuildingBlock: CEKHIL_clean_sbu_0, # of connection points: 4
#     Node 13, Type 0, BuildingBlock: CEKHIL_clean_sbu_0, # of connection points: 4
#     Node 14, Type 0, BuildingBlock: CEKHIL_clean_sbu_0, # of connection points: 4
#     Node 15, Type 0, BuildingBlock: CEKHIL_clean_sbu_0, # of connection points: 4
#     Node 16, Type 0, BuildingBlock: CEKHIL_clean_sbu_0, # of connection points: 4
#     Node 17, Type 0, BuildingBlock: CEKHIL_clean_sbu_0, # of connection points: 4
#     Node 18, Type 0, BuildingBlock: CEKHIL_clean_sbu_0, # of connection points: 4
#     Node 19, Type 0, BuildingBlock: CEKHIL_clean_sbu_0, # of connection points: 4
#     Node 20, Type 0, BuildingBlock: CEKHIL_clean_sbu_0, # of connection points: 4
#     Node 21, Type 0, BuildingBlock: CEKHIL_clean_sbu_0, # of connection points: 4
#     Node 22, Type 0, BuildingBlock: CEKHIL_clean_sbu_0, # of connection points: 4
#     Node 23, Type 0, BuildingBlock: CEKHIL_clean_sbu_0, # of connection points: 4
#     Node 24, Type 1, BuildingBlock: FUNLAD_clean_sbu_0, # of connection points: 6
#     Node 25, Type 1, BuildingBlock: FUNLAD_clean_sbu_0, # of connection points: 6
#     Node 26, Type 1, BuildingBlock: FUNLAD_clean_sbu_0, # of connection points: 6
#     Node 27, Type 1, BuildingBlock: FUNLAD_clean_sbu_0, # of connection points: 6
#     Node 28, Type 1, BuildingBlock: FUNLAD_clean_sbu_0, # of connection points: 6
#     Node 29, Type 1, BuildingBlock: FUNLAD_clean_sbu_0, # of connection points: 6
#     Node 30, Type 1, BuildingBlock: FUNLAD_clean_sbu_0, # of connection points: 6
#     Node 31, Type 1, BuildingBlock: FUNLAD_clean_sbu_0, # of connection points: 6
#     Node 32, Type 1, BuildingBlock: FUNLAD_clean_sbu_0, # of connection points: 6
#     Node 33, Type 1, BuildingBlock: FUNLAD_clean_sbu_0, # of connection points: 6
#     Node 34, Type 1, BuildingBlock: FUNLAD_clean_sbu_0, # of connection points: 6
#     Node 35, Type 1, BuildingBlock: FUNLAD_clean_sbu_0, # of connection points: 6
#     Node 36, Type 1, BuildingBlock: FUNLAD_clean_sbu_0, # of connection points: 6
#     Node 37, Type 1, BuildingBlock: FUNLAD_clean_sbu_0, # of connection points: 6
#     Node 38, Type 1, BuildingBlock: FUNLAD_clean_sbu_0, # of connection points: 6
#     Node 39, Type 1, BuildingBlock: FUNLAD_clean_sbu_0, # of connection points: 6
#     Edge 40, Type (0, 1), BuildingBlock: CIFDUS_clean_linker_0, # of connection points: 2
#     Edge 41, Type (0, 1), BuildingBlock: CIFDUS_clean_linker_0, # of connection points: 2
#     Edge 42, Type (0, 1), BuildingBlock: CIFDUS_clean_linker_0, # of connection points: 2
#     Edge 43, Type (0, 1), BuildingBlock: CIFDUS_clean_linker_0, # of connection points: 2
#     Edge 44, Type (0, 1), BuildingBlock: CIFDUS_clean_linker_0, # of connection points: 2
#     Edge 45, Type (0, 1), BuildingBlock: CIFDUS_clean_linker_0, # of connection points: 2
#     Edge 46, Type (0, 1), BuildingBlock: CIFDUS_clean_linker_0, # of connection points: 2
#     Edge 47, Type (0, 1), BuildingBlock: CIFDUS_clean_linker_0, # of connection points: 2
#     Edge 48, Type (0, 1), BuildingBlock: CIFDUS_clean_linker_0, # of connection points: 2
#     Edge 49, Type (0, 1), BuildingBlock: CIFDUS_clean_linker_0, # of connection points: 2
#     Edge 50, Type (0, 1), BuildingBlock: CIFDUS_clean_linker_0, # of connection points: 2
#     Edge 51, Type (0, 1), BuildingBlock: CIFDUS_clean_linker_0, # of connection points: 2
#     Edge 52, Type (0, 1), BuildingBlock: CIFDUS_clean_linker_0, # of connection points: 2
#     Edge 53, Type (0, 1), BuildingBlock: CIFDUS_clean_linker_0, # of connection points: 2
#     Edge 54, Type (0, 1), BuildingBlock: CIFDUS_clean_linker_0, # of connection points: 2
#     Edge 55, Type (0, 1), BuildingBlock: CIFDUS_clean_linker_0, # of connection points: 2
#     Edge 56, Type (0, 1), BuildingBlock: CIFDUS_clean_linker_0, # of connection points: 2
#     Edge 57, Type (0, 1), BuildingBlock: CIFDUS_clean_linker_0, # of connection points: 2
#     Edge 58, Type (0, 1), BuildingBlock: CIFDUS_clean_linker_0, # of connection points: 2
#     Edge 59, Type (0, 1), BuildingBlock: CIFDUS_clean_linker_0, # of connection points: 2
#     Edge 60, Type (0, 1), BuildingBlock: CIFDUS_clean_linker_0, # of connection points: 2
#     Edge 61, Type (0, 1), BuildingBlock: CIFDUS_clean_linker_0, # of connection points: 2
#     Edge 62, Type (0, 1), BuildingBlock: CIFDUS_clean_linker_0, # of connection points: 2
#     Edge 63, Type (0, 1), BuildingBlock: CIFDUS_clean_linker_0, # of connection points: 2
#     Edge 64, Type (0, 1), BuildingBlock: CIFDUS_clean_linker_0, # of connection points: 2
#     Edge 65, Type (0, 1), BuildingBlock: CIFDUS_clean_linker_0, # of connection points: 2
#     Edge 66, Type (0, 1), BuildingBlock: CIFDUS_clean_linker_0, # of connection points: 2
#     Edge 67, Type (0, 1), BuildingBlock: CIFDUS_clean_linker_0, # of connection points: 2
#     Edge 68, Type (0, 1), BuildingBlock: CIFDUS_clean_linker_0, # of connection points: 2
#     Edge 69, Type (0, 1), BuildingBlock: CIFDUS_clean_linker_0, # of connection points: 2
#     Edge 70, Type (0, 1), BuildingBlock: CIFDUS_clean_linker_0, # of connection points: 2
#     Edge 71, Type (0, 1), BuildingBlock: CIFDUS_clean_linker_0, # of connection points: 2
#     Edge 72, Type (0, 1), BuildingBlock: CIFDUS_clean_linker_0, # of connection points: 2
#     Edge 73, Type (0, 1), BuildingBlock: CIFDUS_clean_linker_0, # of connection points: 2
#     Edge 74, Type (0, 1), BuildingBlock: CIFDUS_clean_linker_0, # of connection points: 2
#     Edge 75, Type (0, 1), BuildingBlock: CIFDUS_clean_linker_0, # of connection points: 2
#     Edge 76, Type (0, 1), BuildingBlock: CIFDUS_clean_linker_0, # of connection points: 2
#     Edge 77, Type (0, 1), BuildingBlock: CIFDUS_clean_linker_0, # of connection points: 2
#     Edge 78, Type (0, 1), BuildingBlock: CIFDUS_clean_linker_0, # of connection points: 2
#     Edge 79, Type (0, 1), BuildingBlock: CIFDUS_clean_linker_0, # of connection points: 2
#     Edge 80, Type (0, 1), BuildingBlock: CIFDUS_clean_linker_0, # of connection points: 2
#     Edge 81, Type (0, 1), BuildingBlock: CIFDUS_clean_linker_0, # of connection points: 2
#     Edge 82, Type (0, 1), BuildingBlock: CIFDUS_clean_linker_0, # of connection points: 2
#     Edge 83, Type (0, 1), BuildingBlock: CIFDUS_clean_linker_0, # of connection points: 2
#     Edge 84, Type (0, 1), BuildingBlock: CIFDUS_clean_linker_0, # of connection points: 2
#     Edge 85, Type (0, 1), BuildingBlock: CIFDUS_clean_linker_0, # of connection points: 2
#     Edge 86, Type (0, 1), BuildingBlock: CIFDUS_clean_linker_0, # of connection points: 2
#     Edge 87, Type (0, 1), BuildingBlock: CIFDUS_clean_linker_0, # of connection points: 2
#     Edge 88, Type (0, 1), BuildingBlock: CIFDUS_clean_linker_0, # of connection points: 2
#     Edge 89, Type (0, 1), BuildingBlock: CIFDUS_clean_linker_0, # of connection points: 2
#     Edge 90, Type (0, 1), BuildingBlock: CIFDUS_clean_linker_0, # of connection points: 2
#     Edge 91, Type (0, 1), BuildingBlock: CIFDUS_clean_linker_0, # of connection points: 2
#     Edge 92, Type (0, 1), BuildingBlock: CIFDUS_clean_linker_0, # of connection points: 2
#     Edge 93, Type (0, 1), BuildingBlock: CIFDUS_clean_linker_0, # of connection points: 2
#     Edge 94, Type (0, 1), BuildingBlock: CIFDUS_clean_linker_0, # of connection points: 2
#     Edge 95, Type (0, 1), BuildingBlock: CIFDUS_clean_linker_0, # of connection points: 2
#     Edge 96, Type (0, 1), BuildingBlock: CIFDUS_clean_linker_0, # of connection points: 2
#     Edge 97, Type (0, 1), BuildingBlock: CIFDUS_clean_linker_0, # of connection points: 2
#     Edge 98, Type (0, 1), BuildingBlock: CIFDUS_clean_linker_0, # of connection points: 2
#     Edge 99, Type (0, 1), BuildingBlock: CIFDUS_clean_linker_0, # of connection points: 2
#     Edge 100, Type (0, 1), BuildingBlock: CIFDUS_clean_linker_0, # of connection points: 2
#     Edge 101, Type (0, 1), BuildingBlock: CIFDUS_clean_linker_0, # of connection points: 2
#     Edge 102, Type (0, 1), BuildingBlock: CIFDUS_clean_linker_0, # of connection points: 2
#     Edge 103, Type (0, 1), BuildingBlock: CIFDUS_clean_linker_0, # of connection points: 2
#     Edge 104, Type (0, 1), BuildingBlock: CIFDUS_clean_linker_0, # of connection points: 2
#     Edge 105, Type (0, 1), BuildingBlock: CIFDUS_clean_linker_0, # of connection points: 2
#     Edge 106, Type (0, 1), BuildingBlock: CIFDUS_clean_linker_0, # of connection points: 2
#     Edge 107, Type (0, 1), BuildingBlock: CIFDUS_clean_linker_0, # of connection points: 2
#     Edge 108, Type (0, 1), BuildingBlock: CIFDUS_clean_linker_0, # of connection points: 2
#     Edge 109, Type (0, 1), BuildingBlock: CIFDUS_clean_linker_0, # of connection points: 2
#     Edge 110, Type (0, 1), BuildingBlock: CIFDUS_clean_linker_0, # of connection points: 2
#     Edge 111, Type (0, 1), BuildingBlock: CIFDUS_clean_linker_0, # of connection points: 2
#     Edge 112, Type (0, 1), BuildingBlock: CIFDUS_clean_linker_0, # of connection points: 2
#     Edge 113, Type (0, 1), BuildingBlock: CIFDUS_clean_linker_0, # of connection points: 2
#     Edge 114, Type (0, 1), BuildingBlock: CIFDUS_clean_linker_0, # of connection points: 2
#     Edge 115, Type (0, 1), BuildingBlock: CIFDUS_clean_linker_0, # of connection points: 2
#     Edge 116, Type (0, 1), BuildingBlock: CIFDUS_clean_linker_0, # of connection points: 2
#     Edge 117, Type (0, 1), BuildingBlock: CIFDUS_clean_linker_0, # of connection points: 2
#     Edge 118, Type (0, 1), BuildingBlock: CIFDUS_clean_linker_0, # of connection points: 2
#     Edge 119, Type (0, 1), BuildingBlock: CIFDUS_clean_linker_0, # of connection points: 2
#     Edge 120, Type (0, 1), BuildingBlock: CIFDUS_clean_linker_0, # of connection points: 2
#     Edge 121, Type (0, 1), BuildingBlock: CIFDUS_clean_linker_0, # of connection points: 2
#     Edge 122, Type (0, 1), BuildingBlock: CIFDUS_clean_linker_0, # of connection points: 2
#     Edge 123, Type (0, 1), BuildingBlock: CIFDUS_clean_linker_0, # of connection points: 2
#     Edge 124, Type (0, 1), BuildingBlock: CIFDUS_clean_linker_0, # of connection points: 2
#     Edge 125, Type (0, 1), BuildingBlock: CIFDUS_clean_linker_0, # of connection points: 2
#     Edge 126, Type (0, 1), BuildingBlock: CIFDUS_clean_linker_0, # of connection points: 2
#     Edge 127, Type (0, 1), BuildingBlock: CIFDUS_clean_linker_0, # of connection points: 2
#     Edge 128, Type (0, 1), BuildingBlock: CIFDUS_clean_linker_0, # of connection points: 2
#     Edge 129, Type (0, 1), BuildingBlock: CIFDUS_clean_linker_0, # of connection points: 2
#     Edge 130, Type (0, 1), BuildingBlock: CIFDUS_clean_linker_0, # of connection points: 2
#     Edge 131, Type (0, 1), BuildingBlock: CIFDUS_clean_linker_0, # of connection points: 2
#     Edge 132, Type (0, 1), BuildingBlock: CIFDUS_clean_linker_0, # of connection points: 2
#     Edge 133, Type (0, 1), BuildingBlock: CIFDUS_clean_linker_0, # of connection points: 2
#     Edge 134, Type (0, 1), BuildingBlock: CIFDUS_clean_linker_0, # of connection points: 2
#     Edge 135, Type (0, 1), BuildingBlock: CIFDUS_clean_linker_0, # of connection points: 2
# Relax obj value: 0.335
# Max RMSD: 0.291
# Mean RMSD: 0.135
data_MOF--net-iac--node1-CEKHIL_clean_sbu_0--node2-FUNLAD_clean_sbu_0--edge1-CIFDUS_clean_linker_0
_symmetry_space_group_name_H-M    P1
_symmetry_Int_Tables_number       1
_symmetry_cell_setting            triclinic
loop_
_symmetry_equiv_pos_as_xyz
'x, y, z'
_cell_length_a     48.664138
_cell_length_b     46.281388
_cell_length_c     51.844544
_cell_angle_alpha  89.719249
_cell_angle_beta   92.264896
_cell_angle_gamma 90.310797
loop_
_atom_site_label
_atom_site_type_symbol
_atom_site_fract_x
_atom_site_fract_y
_atom_site_fract_z
_atom_type_partial_charge
Co0 Co 0.03653 0.23975 0.1886 0.0
O1 O 1.00344 0.23312 0.20597 0.0
O2 O 0.04304 0.21073 0.21523 0.0
C3 C 0.03427 0.28801 0.18897 0.0
O4 O 0.07497 0.24229 0.1749 0.0
Co5 Co 0.03529 0.27189 0.13549 0.0
O6 O 0.07535 0.27625 0.14362 0.0
C7 C 0.01768 0.21086 0.13869 0.0
C8 C 0.01726 0.21456 0.21997 0.0
C9 C 0.08768 0.25922 0.15957 0.0
O10 O 0.02564 0.20941 0.16261 0.0
O11 O 0.018 0.23415 0.12527 0.0
O12 O 0.04448 0.27444 0.20913 0.0
O13 O 0.02384 0.27203 0.17077 0.0
Co14 Co 0.05643 0.76498 0.39896 0.0
O15 O 0.09646 0.76651 0.40506 0.0
O16 O 0.07683 0.75177 0.36883 0.0
C17 C 0.04896 0.81045 0.41549 0.0
O18 O 0.01579 0.76187 0.38395 0.0
Co19 Co 0.01531 0.77014 0.44306 0.0
O20 O 0.9863 0.77119 0.41525 0.0
C21 C 0.04707 0.71615 0.43787 0.0
C22 C 0.09968 0.75753 0.38172 0.0
C23 C 0.99097 0.76563 0.39179 0.0
O24 O 0.05483 0.72408 0.41515 0.0
O25 O 0.03385 0.73288 0.4525 0.0
O26 O 0.05641 0.80719 0.39186 0.0
O27 O 0.04759 0.78672 0.42839 0.0
Co28 Co 0.51743 0.75503 0.66308 0.0
O29 O 0.48036 0.74204 0.66353 0.0
O30 O 0.51485 0.72418 0.68812 0.0
C31 C 0.50916 0.80231 0.66336 0.0
O32 O 0.5581 0.76394 0.66774 0.0
Co33 Co 0.53688 0.78921 0.61542 0.0
O34 O 0.57241 0.79233 0.63538 0.0
C35 C 0.52509 0.72751 0.61114 0.0
C36 C 0.48905 0.72314 0.68049 0.0
C37 C 0.57665 0.77893 0.65667 0.0
O38 O 0.52405 0.72608 0.63574 0.0
O39 O 0.52798 0.75116 0.59867 0.0
O40 O 0.51003 0.78797 0.68501 0.0
O41 O 0.5103 0.78721 0.64254 0.0
Co42 Co 0.55342 0.2575 0.89899 0.0
O43 O 0.59418 0.25796 0.90059 0.0
O44 O 0.56941 0.24845 0.86561 0.0
C45 C 0.54802 0.29996 0.92186 0.0
O46 O 0.51144 0.25662 0.88747 0.0
Co47 Co 0.51693 0.2557 0.94681 0.0
O48 O 0.48533 0.26122 0.92203 0.0
C49 C 0.54839 0.20374 0.93338 0.0
C50 C 0.5939 0.2518 0.87615 0.0
C51 C 0.48757 0.25926 0.89769 0.0
O52 O 0.55312 0.21453 0.9107 0.0
O53 O 0.53702 0.2183 0.95093 0.0
O54 O 0.5531 0.30072 0.89738 0.0
O55 O 0.54789 0.27435 0.9315 0.0
Co56 Co 0.17847 0.00358 0.25897 0.0
O57 O 0.17961 0.9619 0.25956 0.0
O58 O 0.21355 0.99035 0.24742 0.0
C59 C 0.16176 0.00907 0.29874 0.0
O60 O 0.18581 0.04683 0.25679 0.0
Co61 Co 0.12396 0.03749 0.26252 0.0
O62 O 0.14865 0.07134 0.26853 0.0
C63 C 0.13679 0.00797 0.21399 0.0
C64 C 0.20455 0.96436 0.25176 0.0
C65 C 0.17387 0.07047 0.2628 0.0
O66 O 0.16161 0.00314 0.22253 0.0
O67 O 0.11826 0.01882 0.22784 0.0
O68 O 0.18787 0.00504 0.296 0.0
O69 O 0.14647 0.00721 0.27789 0.0
Co70 Co 0.29156 0.90682 0.55207 0.0
O71 O 0.2518 0.90269 0.55115 0.0
O72 O 0.2741 0.94305 0.56091 0.0
C73 C 0.298 0.88517 0.51378 0.0
O74 O 0.33223 0.92023 0.55335 0.0
Co75 Co 0.33051 0.85351 0.55194 0.0
O76 O 0.35904 0.8825 0.54405 0.0
C77 C 0.30207 0.86835 0.59941 0.0
C78 C 0.25063 0.92991 0.55685 0.0
C79 C 0.35579 0.90943 0.54782 0.0
O80 O 0.29359 0.89262 0.58953 0.0
O81 O 0.3152 0.84947 0.58693 0.0
O82 O 0.29073 0.91212 0.51445 0.0
O83 O 0.2988 0.87191 0.5357 0.0
Co84 Co 0.41278 0.02238 0.7535 0.0
O85 O 0.42022 0.06344 0.75481 0.0
O86 O 0.37985 0.0438 0.74399 0.0
C87 C 0.43399 0.01128 0.79172 0.0
O88 O 0.39609 0.98155 0.75162 0.0
Co89 Co 0.45872 0.97591 0.75365 0.0
O90 O 0.4287 0.94931 0.76314 0.0
C91 C 0.44963 0.01523 0.70892 0.0
C92 C 0.39444 0.06704 0.74814 0.0
C93 C 0.40354 0.95595 0.75894 0.0
O94 O 0.42548 0.02181 0.71654 0.0
O95 O 0.4664 0.99936 0.72224 0.0
O96 O 0.40903 0.02126 0.79109 0.0
O97 O 0.44556 0.01044 0.76985 0.0
Co98 Co 0.34385 0.12127 0.02304 0.0
O99 O 0.37996 0.1153 0.03717 0.0
O100 O 0.3445 0.08504 0.04131 0.0
C101 C 0.35479 0.13534 0.98362 0.0
O102 O 0.30414 0.12039 0.01061 0.0
Co103 Co 0.32556 0.18302 0.00724 0.0
O104 O 0.29054 0.1639 0.9954 0.0
C105 C 0.33851 0.1682 0.06109 0.0
C106 C 0.37009 0.09161 0.04673 0.0
C107 C 0.28622 0.13712 -0.00035 0.0
O108 O 0.33474 0.14164 0.05522 0.0
O109 O 0.33885 0.18842 0.04419 0.0
O110 O 0.35378 0.10792 0.98916 0.0
O111 O 0.35263 0.15284 0.00274 0.0
Co112 Co 0.79093 0.41244 0.05415 0.0
O113 O 0.75137 0.40955 0.04983 0.0
O114 O 0.77331 0.44749 0.0662 0.0
C115 C 0.80001 0.39716 0.01407 0.0
O116 O 0.83206 0.42344 0.05993 0.0
Co117 Co 0.82643 0.35683 0.05032 0.0
O118 O 0.85746 0.38453 0.05031 0.0
C119 C 0.79358 0.36603 0.09627 0.0
C120 C 0.75002 0.43551 0.05887 0.0
C121 C 0.85542 0.41112 0.05616 0.0
O122 O 0.78908 0.39258 0.0894 0.0
O123 O 0.80573 0.34804 0.08196 0.0
O124 O 0.7935 0.42393 0.01788 0.0
O125 O 0.79824 0.38035 0.03383 0.0
Co126 Co 0.91119 0.51611 0.26653 0.0
O127 O 0.91226 0.55783 0.26358 0.0
O128 O 0.8774 0.53017 0.25013 0.0
C129 C 0.92617 0.51334 0.30829 0.0
O130 O 0.90117 0.47294 0.26761 0.0
Co131 Co 0.96357 0.47948 0.27888 0.0
O132 O 0.93696 0.44784 0.28474 0.0
C133 C 0.95446 0.50474 0.2268 0.0
C134 C 0.88747 0.55601 0.25347 0.0
C135 C 0.91187 0.44942 0.27686 0.0
O136 O 0.92987 0.51258 0.23212 0.0
O137 O 0.97132 0.49312 0.24326 0.0
O138 O 0.90055 0.51906 0.30247 0.0
O139 O 0.94209 0.51223 0.28901 0.0
Co140 Co 0.84875 0.59966 0.49052 0.0
O141 O 0.87884 0.58463 0.51051 0.0
O142 O 0.83654 0.56566 0.50856 0.0
C143 C 0.8697 0.60744 0.45342 0.0
O144 O 0.81303 0.60868 0.47134 0.0
Co145 Co 0.84907 0.66283 0.4708 0.0
O146 O 0.81361 0.65262 0.45252 0.0
C147 C 0.84461 0.65086 0.52595 0.0
C148 C 0.86162 0.56505 0.51806 0.0
C149 C 0.80223 0.62828 0.45666 0.0
O150 O 0.83915 0.6244 0.52045 0.0
O151 O 0.85191 0.66935 0.50908 0.0
O152 O 0.86132 0.58158 0.45934 0.0
O153 O 0.86886 0.62628 0.47171 0.0
Co154 Co 0.66714 0.49235 0.75289 0.0
O155 O 0.66343 0.45095 0.75438 0.0
O156 O 0.70169 0.47474 0.74553 0.0
C157 C 0.64615 0.50202 0.79005 0.0
O158 O 0.67947 0.53406 0.75027 0.0
Co159 Co 0.61598 0.53247 0.74894 0.0
O160 O 0.64359 0.56368 0.75493 0.0
C161 C 0.63246 0.49949 0.70353 0.0
C162 C 0.68928 0.45019 0.74902 0.0
C163 C 0.66924 0.55936 0.75264 0.0
O164 O 0.65528 0.49227 0.71509 0.0
O165 O 0.61318 0.51286 0.71449 0.0
O166 O 0.67179 0.49427 0.79054 0.0
O167 O 0.63357 0.501 0.76768 0.0
Co168 Co 0.98577 0.82579 0.88767 0.0
O169 O 0.0249 0.83013 0.89132 0.0
O170 O 1.00266 0.80876 0.85837 0.0
C171 C 0.9783 0.87181 0.89908 0.0
O172 O 0.94592 0.81783 0.87671 0.0
Co173 Co 0.94749 0.8351 0.93313 0.0
O174 O 0.91689 0.82952 0.90752 0.0
C175 C 0.98109 0.78215 0.93031 0.0
C176 C 0.02583 0.81752 0.86909 0.0
C177 C 0.92153 0.82009 0.8851 0.0
O178 O 0.98753 0.78833 0.90711 0.0
O179 O 0.96758 0.79923 0.94442 0.0
O180 O 0.98345 0.86568 0.87533 0.0
O181 O 0.97828 0.85027 0.91489 0.0
Co182 Co 0.03187 0.26175 0.66406 0.0
O183 O 0.99169 0.26041 0.65833 0.0
O184 O 0.01241 0.25208 0.69578 0.0
C185 C 0.03658 0.3049 0.64187 0.0
O186 O 0.07246 0.26222 0.67942 0.0
Co187 Co 0.07436 0.26568 0.62104 0.0
O188 O 0.10252 0.27241 0.64886 0.0
C189 C 0.04579 0.20961 0.63108 0.0
C190 C 0.98922 0.25503 0.68274 0.0
C191 C 0.09738 0.26747 0.67236 0.0
O192 O 0.03531 0.21923 0.65215 0.0
O193 O 0.05919 0.22593 0.61597 0.0
O194 O 0.03001 0.30476 0.66596 0.0
O195 O 0.03973 0.27969 0.63229 0.0
Co196 Co 0.48848 0.31637 0.39409 0.0
O197 O 0.52658 0.30675 0.39893 0.0
O198 O 0.50089 0.29627 0.36394 0.0
C199 C 0.49666 0.36175 0.40764 0.0
O200 O 0.44862 0.32273 0.38218 0.0
Co201 Co 0.45329 0.33779 0.43799 0.0
O202 O 0.42445 0.34639 0.4113 0.0
C203 C 0.46732 0.2755 0.43385 0.0
C204 C 0.52494 0.29613 0.37587 0.0
C205 C 0.42639 0.33473 0.38931 0.0
O206 O 0.47782 0.27966 0.41174 0.0
O207 O 0.45847 0.29602 0.44775 0.0
O208 O 0.49887 0.35518 0.3835 0.0
O209 O 0.48868 0.34115 0.42252 0.0
Co210 Co 0.53446 0.75803 0.16728 0.0
O211 O 0.49387 0.75825 0.16547 0.0
O212 O 0.51846 0.74623 0.20002 0.0
C213 C 0.53818 0.80279 0.14806 0.0
O214 O 0.57625 0.75688 0.17892 0.0
Co215 Co 0.57223 0.76439 0.12099 0.0
O216 O 0.60298 0.77015 0.14657 0.0
C217 C 0.54505 0.70752 0.1309 0.0
C218 C 0.49412 0.75128 0.18977 0.0
C219 C 0.60022 0.76331 0.17014 0.0
O220 O 0.53576 0.71637 0.15274 0.0
O221 O 0.55757 0.72441 0.11559 0.0
O222 O 0.53406 0.80035 0.1726 0.0
O223 O 0.53941 0.77864 0.13602 0.0
Co224 Co 0.90186 0.00478 0.81355 0.0
O225 O 0.90694 0.04605 0.81168 0.0
O226 O 0.86965 0.02223 0.79762 0.0
C227 C 0.91793 0.00186 0.85498 0.0
O228 O 0.88712 0.96385 0.81283 0.0
Co229 Co 0.94744 0.96057 0.82467 0.0
O230 O 0.91892 0.92995 0.82132 0.0
C231 C 0.94046 0.98608 0.77236 0.0
C232 C 0.88204 0.04679 0.80166 0.0
C233 C 0.89434 0.93742 0.81558 0.0
O234 O 0.9185 0.99919 0.77883 0.0
O235 O 0.95575 0.97177 0.78844 0.0
O236 O 0.89244 0.00847 0.84957 0.0
O237 O 0.93308 0.99753 0.83545 0.0
Co238 Co 0.80137 0.12824 0.49571 0.0
O239 O 0.84068 0.13383 0.49547 0.0
O240 O 0.82097 0.09281 0.50616 0.0
C241 C 0.79361 0.14926 0.45651 0.0
O242 O 0.76094 0.11464 0.49737 0.0
Co243 Co 0.76168 0.18095 0.49258 0.0
O244 O 0.7338 0.15121 0.48335 0.0
C245 C 0.787 0.16239 0.54311 0.0
C246 C 0.84362 0.10701 0.50211 0.0
C247 C 0.73714 0.12501 0.49032 0.0
O248 O 0.80032 0.14183 0.53263 0.0
O249 O 0.7716 0.18028 0.53046 0.0
O250 O 0.80058 0.12227 0.45839 0.0
O251 O 0.79306 0.163 0.47805 0.0
Co252 Co 0.67815 0.0013 0.32668 0.0
O253 O 0.67395 0.95985 0.32602 0.0
O254 O 0.71025 0.9835 0.31247 0.0
C255 C 0.66322 0.00471 0.36751 0.0
O256 O 0.69065 0.04358 0.32445 0.0
Co257 Co 0.62929 0.04266 0.33609 0.0
O258 O 0.6563 0.07426 0.3322 0.0
C259 C 0.63469 0.01411 0.28537 0.0
C260 C 0.69828 0.95882 0.31672 0.0
C261 C 0.68092 0.06935 0.32607 0.0
O262 O 0.65911 0.00504 0.2915 0.0
O263 O 0.61912 0.02631 0.30138 0.0
O264 O 0.68887 0.99889 0.36371 0.0
O265 O 0.64791 0.00784 0.34694 0.0
Co266 Co 0.76268 0.86899 0.00866 0.0
O267 O 0.73305 0.86057 0.03054 0.0
O268 O 0.75933 0.89982 0.03291 0.0
C269 C 0.73934 0.85927 0.97204 0.0
O270 O 0.79356 0.88601 0.98901 0.0
Co271 Co 0.78904 0.8235 0.9745 0.0
O272 O 0.81046 0.856 0.95984 0.0
C273 C 0.80488 0.8262 0.02973 0.0
C274 C 0.73707 0.8865 0.03951 0.0
C275 C 0.80941 0.88066 0.97051 0.0
O276 O 0.78941 0.84831 0.032 0.0
O277 O 0.80617 0.81151 0.00896 0.0
O278 O 0.73712 0.88422 0.9829 0.0
O279 O 0.75409 0.83994 0.98432 0.0
Co280 Co 0.29677 0.61906 0.98833 0.0
O281 O 0.33574 0.62678 0.98777 0.0
O282 O 0.31813 0.585 -0.00066 0.0
C283 C 0.28854 0.63941 0.94886 0.0
O284 O 0.25716 0.6034 0.99107 0.0
Co285 Co 0.25453 0.66984 0.98331 0.0
O286 O 0.22714 0.63838 0.97905 0.0
C287 C 0.28355 0.65648 0.03368 0.0
C288 C 0.34002 0.60032 0.99491 0.0
C289 C 0.2324 0.61254 0.98618 0.0
O290 O 0.29507 0.63378 0.02474 0.0
O291 O 0.26914 0.67409 0.0197 0.0
O292 O 0.29622 0.61261 0.95082 0.0
O293 O 0.28697 0.65286 0.97035 0.0
Co294 Co 0.17672 0.50931 0.83808 0.0
O295 O 0.17297 0.46776 0.83805 0.0
O296 O 0.20879 0.49144 0.82363 0.0
C297 C 0.16186 0.51379 0.87893 0.0
O298 O 0.1886 0.55174 0.8349 0.0
Co299 Co 0.1273 0.5505 0.84735 0.0
O300 O 0.15392 0.58221 0.84224 0.0
C301 C 0.13227 0.52003 0.79756 0.0
C302 C 0.19704 0.46673 0.82819 0.0
C303 C 0.1785 0.57744 0.83589 0.0
O304 O 0.15722 0.51226 0.80313 0.0
O305 O 0.11663 0.53171 0.8138 0.0
O306 O 0.18752 0.50775 0.8753 0.0
O307 O 0.14664 0.51623 0.8583 0.0
Co308 Co 0.2744 0.41567 0.50275 0.0
O309 O 0.23725 0.42462 0.50874 0.0
O310 O 0.27336 0.45144 0.52169 0.0
C311 C 0.26483 0.40522 0.46136 0.0
O312 O 0.31531 0.41385 0.49996 0.0
Co313 Co 0.29378 0.35644 0.48512 0.0
O314 O 0.3315 0.37256 0.48439 0.0
C315 C 0.28592 0.36753 0.54067 0.0
C316 C 0.24687 0.44783 0.5198 0.0
C317 C 0.3352 0.3977 0.49366 0.0
O318 O 0.27783 0.3933 0.53558 0.0
O319 O 0.29217 0.34932 0.52335 0.0
O320 O 0.2701 0.43161 0.46834 0.0
O321 O 0.26562 0.38571 0.47937 0.0
Co322 Co 0.41124 0.51256 0.30799 0.0
O323 O 0.41545 0.55384 0.30403 0.0
O324 O 0.3791 0.52835 0.29035 0.0
C325 C 0.42636 0.51361 0.3497 0.0
O326 O 0.39757 0.47113 0.30927 0.0
Co327 Co 0.45688 0.46976 0.32497 0.0
O328 O 0.42796 0.43962 0.32627 0.0
C329 C 0.45334 0.49257 0.27104 0.0
C330 C 0.39062 0.55347 0.29383 0.0
C331 C 0.40419 0.44551 0.31666 0.0
O332 O 0.42991 0.50466 0.27448 0.0
O333 O 0.46761 0.48036 0.28927 0.0
O334 O 0.40071 0.51896 0.34367 0.0
O335 O 0.4417 0.50759 0.33079 0.0
C336 C 0.00689 0.03518 0.98364 0.0
N337 N 0.97731 0.99541 0.04771 0.0
C338 C 0.95489 0.00961 0.03785 0.0
C339 C 0.93339 0.99408 0.02606 0.0
C340 C 0.93428 0.9637 0.02604 0.0
C341 C 0.95507 0.94999 0.04123 0.0
C342 C 0.97676 0.96641 0.0518 0.0
Zn343 Zn 0.01361 0.01344 0.03844 0.0
C344 C 0.04269 0.97122 0.00499 0.0
N345 N 0.08717 0.04767 0.01048 0.0
C346 C 0.08502 0.07379 0.99842 0.0
C347 C 0.11201 0.0354 0.01598 0.0
C348 C 0.13609 0.05001 0.01002 0.0
C349 C 0.13447 0.0774 0.99817 0.0
C350 C 0.10851 0.08903 0.99194 0.0
Zn351 Zn 0.05221 0.02874 0.02209 0.0
O352 O 0.99419 0.02634 0.003 0.0
C353 C 0.01988 0.07269 0.0516 0.0
O354 O 0.03253 0.03986 0.98616 0.0
H355 H 0.11315 0.01465 0.02564 0.0
H356 H 0.95574 0.03276 0.035 0.0
H357 H 0.06503 0.08322 0.99436 0.0
O358 O 1.00356 0.05199 0.05591 0.0
O359 O 0.04089 0.06856 0.03837 0.0
H360 H 0.99478 0.95559 0.05993 0.0
O361 O 0.07203 0.01619 0.05885 0.0
O362 O 0.03287 0.99991 0.07292 0.0
O363 O 0.06213 0.98956 0.00427 0.0
O364 O 0.02329 0.97522 0.02014 0.0
C365 C 0.05846 0.00448 0.07675 0.0
H366 H 0.91796 0.00603 0.01496 0.0
H367 H 0.95589 0.92672 0.04316 0.0
H368 H 0.15571 0.04043 0.01556 0.0
H369 H 0.10635 0.1099 0.98256 0.0
C370 C 0.3447 0.76415 0.25496 0.0
N371 N 0.27108 0.72591 0.22873 0.0
C372 C 0.24764 0.7327 0.21494 0.0
C373 C 0.24343 0.72233 0.18978 0.0
C374 C 0.26371 0.70516 0.17884 0.0
C375 C 0.2867 0.69705 0.19428 0.0
C376 C 0.28993 0.7076 0.2192 0.0
Zn377 Zn 0.28335 0.74649 0.26176 0.0
C378 C 0.31317 0.7045 0.2971 0.0
N379 N 0.31601 0.7878 0.32922 0.0
C380 C 0.32709 0.81484 0.32847 0.0
C381 C 0.30891 0.77552 0.35189 0.0
C382 C 0.31134 0.7911 0.3748 0.0
C383 C 0.32124 0.81968 0.3745 0.0
C384 C 0.32993 0.83126 0.35103 0.0
Zn385 Zn 0.30297 0.76717 0.29617 0.0
O386 O 0.32271 0.75429 0.24409 0.0
C387 C 0.27335 0.80907 0.25989 0.0
O388 O 0.34361 0.77263 0.27833 0.0
H389 H 0.29973 0.7542 0.35201 0.0
H390 H 0.23296 0.74732 0.2229 0.0
H391 H 0.3324 0.82426 0.31018 0.0
O392 O 0.26801 0.78611 0.24731 0.0
O393 O 0.28842 0.80768 0.28049 0.0
H394 H 0.30862 0.70267 0.23023 0.0
O395 O 0.26174 0.76078 0.3135 0.0
O396 O 0.24415 0.73916 0.2792 0.0
O397 O 0.31776 0.72672 0.31098 0.0
O398 O 0.29845 0.70699 0.27651 0.0
C399 C 0.24099 0.74878 0.30191 0.0
H400 H 0.22515 0.72875 0.17867 0.0
H401 H 0.30315 0.68436 0.1867 0.0
H402 H 0.30394 0.78136 0.39226 0.0
H403 H 0.33797 0.85307 0.34995 0.0
C404 C 0.53391 0.03744 0.5837 0.0
N405 N 0.58249 0.96833 0.56475 0.0
C406 C 0.59414 0.97415 0.5885 0.0
C407 C 0.59603 0.95244 0.60719 0.0
C408 C 0.58603 0.92491 0.6009 0.0
C409 C 0.5784 0.91853 0.57516 0.0
C410 C 0.5766 0.94089 0.55718 0.0
Zn411 Zn 0.56374 0.00115 0.54542 0.0
C412 C 0.50335 0.98584 0.53325 0.0
N413 N 0.52065 0.0698 0.50915 0.0
C414 C 0.52426 0.09667 0.51918 0.0
C415 C 0.5062 0.0654 0.48648 0.0
C416 C 0.4953 0.08882 0.47255 0.0
C417 C 0.49905 0.11678 0.48237 0.0
C418 C 0.51344 0.12058 0.50611 0.0
Zn419 Zn 0.53948 0.03652 0.52772 0.0
O420 O 0.54949 0.01588 0.58103 0.0
C421 C 0.60028 0.05052 0.53918 0.0
O422 O 0.52665 0.05238 0.56403 0.0
H423 H 0.50364 0.04377 0.47893 0.0
H424 H 0.59866 0.99622 0.59403 0.0
H425 H 0.53612 0.09961 0.53706 0.0
O426 O 0.5998 0.02581 0.54976 0.0
O427 O 0.57802 0.06085 0.52924 0.0
H428 H 0.56733 0.93691 0.53821 0.0
O429 O 0.55172 0.02038 0.49187 0.0
O430 O 0.57839 0.9871 0.50965 0.0
O431 O 0.50218 0.012 0.52576 0.0
O432 O 0.52652 0.97558 0.5409 0.0
C433 C 0.56941 1.00055 0.48965 0.0
H434 H 0.60183 0.95796 0.62696 0.0
H435 H 0.57051 0.89734 0.56986 0.0
H436 H 0.48425 0.08519 0.45429 0.0
H437 H 0.51712 0.14193 0.51405 0.0
C438 C 0.31244 0.21399 0.76528 0.0
N439 N 0.27039 0.2455 0.82665 0.0
C440 C 0.25929 0.21845 0.82613 0.0
C441 C 0.26061 0.20136 0.84833 0.0
C442 C 0.27297 0.21278 0.87098 0.0
C443 C 0.2793 0.24241 0.87195 0.0
C444 C 0.27834 0.25842 0.8492 0.0
Zn445 Zn 0.28615 0.2614 0.79412 0.0
C446 C 0.34932 0.27492 0.8046 0.0
N447 N 0.32383 0.29241 0.72773 0.0
C448 C 0.32013 0.27426 0.70731 0.0
C449 C 0.33422 0.31954 0.72478 0.0
C450 C 0.33961 0.32992 0.70012 0.0
C451 C 0.33489 0.31179 0.67878 0.0
C452 C 0.32603 0.28339 0.68265 0.0
Zn453 Zn 0.30828 0.27853 0.76127 0.0
O454 O 0.29608 0.21834 0.78325 0.0
C455 C 0.24598 0.26479 0.74988 0.0
O456 O 0.32128 0.23551 0.75282 0.0
H457 H 0.33683 0.33364 0.74127 0.0
H458 H 0.25269 0.20885 0.80794 0.0
H459 H 0.31088 0.25323 0.70972 0.0
O460 O 0.24602 0.25813 0.77374 0.0
O461 O 0.26877 0.27241 0.74047 0.0
H462 H 0.28708 0.27994 0.84912 0.0
O463 O 0.29566 0.32162 0.77061 0.0
O464 O 0.27576 0.30428 0.80462 0.0
O465 O 0.34713 0.28454 0.78157 0.0
O466 O 0.32767 0.26462 0.8146 0.0
C467 C 0.28167 0.32579 0.79048 0.0
H468 H 0.25519 0.17869 0.84689 0.0
H469 H 0.28813 0.25215 0.88936 0.0
H470 H 0.34609 0.35215 0.69758 0.0
H471 H 0.32144 0.26915 0.66649 0.0
C472 C 0.09446 0.98518 0.54394 0.0
N473 N 0.06061 0.02968 0.4783 0.0
C474 C 0.08786 0.03456 0.47492 0.0
C475 C 0.09814 0.03571 0.45011 0.0
C476 C 0.08015 0.03292 0.42827 0.0
C477 C 0.05175 0.03141 0.43252 0.0
C478 C 0.0425 0.02908 0.45763 0.0
Zn479 Zn 0.04771 0.01401 0.51343 0.0
C480 C 0.03239 0.9502 0.50606 0.0
N481 N 0.02124 0.9771 0.58406 0.0
C482 C 0.03849 0.98226 0.60485 0.0
C483 C 0.99541 0.96642 0.58704 0.0
C484 C 0.98566 0.96188 0.6118 0.0
C485 C 1.00292 0.96786 0.63346 0.0
C486 C 0.02983 0.97745 0.62977 0.0
Zn487 Zn 0.03356 0.99282 0.54937 0.0
O488 O 0.08939 0.99974 0.52345 0.0
C489 C 0.04907 0.05692 0.55614 0.0
O490 O 0.07488 0.97965 0.5587 0.0
H491 H 0.9819 0.96267 0.57032 0.0
H492 H 0.10213 0.03556 0.49139 0.0
H493 H 0.05857 0.99165 0.60227 0.0
O494 O 0.0553 0.05427 0.53258 0.0
O495 O 0.03994 0.03487 0.56795 0.0
H496 H 0.02094 0.02496 0.46032 0.0
O497 O 0.99251 0.0052 0.5397 0.0
O498 O 1.00538 0.02815 0.50511 0.0
O499 O 0.02728 0.9516 0.53002 0.0
O500 O 0.04007 0.9731 0.49464 0.0
C501 C 0.98637 0.02081 0.52014 0.0
H502 H 0.12018 0.03693 0.44843 0.0
H503 H 0.03664 0.03058 0.41668 0.0
H504 H 0.96476 0.95438 0.61402 0.0
H505 H 0.04358 0.98267 0.64605 0.0
C506 C 0.26936 0.7876 0.73004 0.0
N507 N 0.32471 0.72944 0.76792 0.0
C508 C 0.3217 0.70708 0.75111 0.0
C509 C 0.34365 0.68859 0.74711 0.0
C510 C 0.36933 0.69386 0.75974 0.0
C511 C 0.37124 0.71627 0.77797 0.0
C512 C 0.34856 0.73357 0.78196 0.0
Zn513 Zn 0.29259 0.75538 0.77556 0.0
C514 C 0.3113 0.8164 0.78712 0.0
N515 N 0.22579 0.80764 0.79602 0.0
C516 C 0.20299 0.80611 0.78004 0.0
C517 C 0.22504 0.82024 0.81961 0.0
C518 C 0.20006 0.82951 0.8289 0.0
C519 C 0.1758 0.82606 0.81356 0.0
C520 C 0.17776 0.81561 0.78833 0.0
Zn521 Zn 0.25883 0.78392 0.7866 0.0
O522 O 0.28794 0.76931 0.73633 0.0
C523 C 0.24085 0.72236 0.77685 0.0
O524 O 0.25298 0.79605 0.74692 0.0
H525 H 0.24344 0.82125 0.83198 0.0
H526 H 0.30236 0.70369 0.74055 0.0
H527 H 0.20392 0.79572 0.76148 0.0
O528 O 0.26558 0.71976 0.77043 0.0
O529 O 0.23212 0.74725 0.7826 0.0
H530 H 0.35025 0.75069 0.79604 0.0
O531 O 0.26516 0.77097 0.82634 0.0
O532 O 0.29724 0.74191 0.81378 0.0
O533 O 0.28593 0.82045 0.79096 0.0
O534 O 0.31944 0.79118 0.78171 0.0
C535 C 0.28236 0.75097 0.83145 0.0
H536 H 0.34079 0.67117 0.73341 0.0
H537 H 0.39042 0.72173 0.78808 0.0
H538 H 0.19958 0.83734 0.84852 0.0
H539 H 0.15971 0.81325 0.77559 0.0
C540 C 0.54653 0.94061 0.05293 0.0
N541 N 0.5745 0.01799 0.0845 0.0
C542 C 0.56003 0.00802 0.10461 0.0
C543 C 0.57106 0.00948 0.12963 0.0
C544 C 0.59713 0.02195 0.13441 0.0
C545 C 0.61116 0.03344 0.11344 0.0
C546 C 0.59943 0.03108 0.08841 0.0
Zn547 Zn 0.55981 0.00509 0.04908 0.0
C548 C 0.60418 0.98029 0.01869 0.0
N549 N 0.52887 0.97254 0.97702 0.0
C550 C 0.50417 0.95857 0.97573 0.0
C551 C 0.54035 0.98317 0.95543 0.0
C552 C 0.52585 0.98217 0.93171 0.0
C553 C 0.49925 0.97015 0.93021 0.0
C554 C 0.48888 0.95719 0.95238 0.0
Zn555 Zn 0.54483 0.98609 0.01193 0.0
O556 O 0.55453 0.96288 0.06533 0.0
C557 C 0.50006 0.00706 0.04397 0.0
O558 O 0.54085 0.94313 0.02879 0.0
H559 H 0.55986 0.99446 0.95692 0.0
H560 H 0.54053 0.99716 0.10118 0.0
H561 H 0.49538 0.95032 0.99315 0.0
O562 O 0.51973 0.01558 0.05883 0.0
O563 O 0.50514 0.99516 0.02277 0.0
H564 H 0.61074 0.03851 0.07208 0.0
O565 O 0.54913 0.02984 0.99554 0.0
O566 O 0.56499 0.04731 0.03241 0.0
O567 O 0.58465 0.97577 0.00219 0.0
O568 O 0.59947 0.99343 0.03946 0.0
C569 C 0.55831 0.05133 0.00861 0.0
H570 H 0.55965 0.99956 0.14487 0.0
H571 H 0.63117 0.04352 0.11623 0.0
H572 H 0.53458 0.99267 0.91519 0.0
H573 H 0.46863 0.94732 0.95196 0.0
C574 C 0.23891 0.22941 0.26985 0.0
N575 N 0.30703 0.25992 0.23151 0.0
C576 C 0.32053 0.23469 0.23623 0.0
C577 C 0.33911 0.22456 0.21865 0.0
C578 C 0.34343 0.24051 0.19602 0.0
C579 C 0.33079 0.26754 0.19279 0.0
C580 C 0.31253 0.27682 0.21084 0.0
Zn581 Zn 0.27779 0.27373 0.25467 0.0
C582 C 0.22837 0.29484 0.22445 0.0
N583 N 0.21843 0.30864 0.30207 0.0
C584 C 0.21441 0.29401 0.32438 0.0
C585 C 0.20672 0.33482 0.29724 0.0
C586 C 0.19352 0.34912 0.31679 0.0
C587 C 0.19294 0.33629 0.34134 0.0
C588 C 0.20133 0.30743 0.34437 0.0
Zn589 Zn 0.2471 0.29372 0.27869 0.0
O590 O 0.25971 0.23216 0.25598 0.0
C591 C 0.29785 0.2745 0.30826 0.0
O592 O 0.23017 0.25134 0.28167 0.0
H593 H 0.20992 0.3458 0.27914 0.0
H594 H 0.31606 0.2219 0.25309 0.0
H595 H 0.22377 0.27311 0.32764 0.0
O596 O 0.30329 0.26419 0.28648 0.0
O597 O 0.275 0.28707 0.31101 0.0
H598 H 0.30174 0.29697 0.20769 0.0
O599 O 0.26402 0.33547 0.27615 0.0
O600 O 0.29661 0.31523 0.25473 0.0
O601 O 0.22082 0.30155 0.24673 0.0
O602 O 0.25163 0.2832 0.22185 0.0
C603 C 0.28709 0.33722 0.26577 0.0
H604 H 0.34861 0.20367 0.22186 0.0
H605 H 0.3331 0.28034 0.17547 0.0
H606 H 0.187 0.37126 0.31371 0.0
H607 H 0.20138 0.29671 0.36299 0.0
C608 C 0.59367 0.48755 0.0399 0.0
N609 N 0.56185 0.53316 0.97482 0.0
C610 C 0.58718 0.54574 0.97454 0.0
C611 C 0.60071 0.54863 0.95134 0.0
C612 C 0.58816 0.53821 0.92825 0.0
C613 C 0.56104 0.52766 0.92894 0.0
C614 C 0.54821 0.52543 0.95248 0.0
Zn615 Zn 0.54762 0.51639 0.00854 0.0
C616 C 0.53441 0.45192 0.99771 0.0
N617 N 0.51837 0.47601 0.07619 0.0
C618 C 0.53336 0.4844 0.09755 0.0
C619 C 0.49277 0.46436 0.07813 0.0
C620 C 0.4807 0.46259 0.10221 0.0
C621 C 0.49506 0.47312 0.12436 0.0
C622 C 0.52207 0.48334 0.12174 0.0
Zn623 Zn 0.53236 0.49218 0.04225 0.0
O624 O 0.58934 0.50325 0.01992 0.0
C625 C 0.54643 0.55742 0.05161 0.0
O626 O 0.57339 0.48015 0.05319 0.0
H627 H 0.48099 0.45822 0.06087 0.0
H628 H 0.59774 0.55163 0.99252 0.0
H629 H 0.55332 0.49436 0.09565 0.0
O630 O 0.55359 0.556 0.0283 0.0
O631 O 0.537 0.53463 0.06212 0.0
H632 H 0.52822 0.51518 0.95312 0.0
O633 O 0.49167 0.50353 0.03098 0.0
O634 O 0.50537 0.52954 0.99841 0.0
O635 O 0.52809 0.4506 0.02142 0.0
O636 O 0.54189 0.4762 0.98875 0.0
C637 C 0.4859 0.52021 0.01207 0.0
H638 H 0.62134 0.55752 0.95172 0.0
H639 H 0.5505 0.51906 0.91185 0.0
H640 H 0.45999 0.45411 0.10328 0.0
H641 H 0.53392 0.49237 0.1379 0.0
C642 C 0.77251 0.28306 0.22995 0.0
N643 N 0.82971 0.23438 0.27505 0.0
C644 C 0.83398 0.21914 0.25325 0.0
C645 C 0.85845 0.20409 0.25063 0.0
C646 C 0.87854 0.20383 0.27099 0.0
C647 C 0.87288 0.21877 0.29371 0.0
C648 C 0.84864 0.23448 0.29508 0.0
Zn649 Zn 0.79345 0.25561 0.27886 0.0
C650 C 0.80341 0.31958 0.28996 0.0
N651 N 0.71826 0.29937 0.2898 0.0
C652 C 0.69785 0.29277 0.27203 0.0
C653 C 0.71258 0.31181 0.31268 0.0
C654 C 0.68532 0.31552 0.31939 0.0
C655 C 0.66385 0.30647 0.30231 0.0
C656 C 0.67034 0.29631 0.27788 0.0
Zn657 Zn 0.75571 0.28087 0.28519 0.0
O658 O 0.79083 0.2659 0.23902 0.0
C659 C 0.74611 0.21675 0.27534 0.0
O660 O 0.75437 0.29248 0.24477 0.0
H661 H 0.72908 0.31678 0.32655 0.0
H662 H 0.81852 0.2189 0.23769 0.0
H663 H 0.70277 0.28239 0.25417 0.0
O664 O 0.77199 0.21612 0.27321 0.0
O665 O 0.73449 0.24095 0.27838 0.0
H666 H 0.84507 0.24676 0.31228 0.0
O667 O 0.75781 0.2691 0.32571 0.0
O668 O 0.7952 0.24518 0.31797 0.0
O669 O 0.77745 0.32016 0.2923 0.0
O670 O 0.81496 0.2956 0.28528 0.0
C671 C 0.77712 0.25244 0.33351 0.0
H672 H 0.86176 0.19364 0.2324 0.0
H673 H 0.88714 0.21887 0.31025 0.0
H674 H 0.68107 0.32385 0.3383 0.0
H675 H 0.65438 0.28898 0.26425 0.0
C676 C 0.04835 0.45938 0.56902 0.0
N677 N 0.0679 0.5398 0.59916 0.0
C678 C 0.05404 0.52779 0.6188 0.0
C679 C 0.06506 0.52838 0.64379 0.0
C680 C 0.09038 0.54225 0.64915 0.0
C681 C 0.10333 0.55648 0.62883 0.0
C682 C 0.09173 0.55478 0.60372 0.0
Zn683 Zn 0.0554 0.5254 0.56364 0.0
C684 C 0.10241 0.50876 0.53299 0.0
N685 N 0.02949 0.48822 0.49145 0.0
C686 C 1.00529 0.4736 0.48773 0.0
C687 C 0.04373 0.49799 0.47104 0.0
C688 C 0.03326 0.49432 0.44588 0.0
C689 C 0.00763 0.48084 0.44149 0.0
C690 C 0.99383 0.46981 0.46274 0.0
Zn691 Zn 0.04245 0.50316 0.52723 0.0
O692 O 0.05465 0.4831 0.57994 0.0
C693 C 0.99545 0.5193 0.55859 0.0
O694 O 0.04251 0.45966 0.54477 0.0
H695 H 0.06248 0.51027 0.47423 0.0
H696 H 0.03547 0.51543 0.61489 0.0
H697 H 0.99413 0.46618 0.50415 0.0
O698 O 0.01416 0.53062 0.57295 0.0
O699 O 1.00166 0.50739 0.53763 0.0
H700 H 0.10257 0.56391 0.58776 0.0
O701 O 0.04273 0.54708 0.51048 0.0
O702 O 0.05598 0.56753 0.54697 0.0
O703 O 0.08345 0.49899 0.51792 0.0
O704 O 0.09648 0.52012 0.55423 0.0
C705 C 0.0497 0.56985 0.52295 0.0
H706 H 0.05448 0.5163 0.65835 0.0
H707 H 0.12265 0.56783 0.63207 0.0
H708 H 0.04438 0.50359 0.43012 0.0
H709 H 0.97406 0.45915 0.46013 0.0
C710 C 0.8229 0.71356 0.24905 0.0
N711 N 0.7791 0.73515 0.31287 0.0
C712 C 0.76937 0.70801 0.3081 0.0
C713 C 0.77427 0.68618 0.32624 0.0
C714 C 0.78852 0.69296 0.34949 0.0
C715 C 0.79302 0.72219 0.35575 0.0
C716 C 0.78842 0.74318 0.3368 0.0
Zn717 Zn 0.79445 0.75645 0.28257 0.0
C718 C 0.85617 0.77154 0.29458 0.0
N719 N 0.8319 0.79651 0.21965 0.0
C720 C 0.85569 0.7862 0.21032 0.0
C721 C 0.81752 0.81792 0.20734 0.0
C722 C 0.82611 0.82866 0.18389 0.0
C723 C 0.84935 0.81679 0.17288 0.0
C724 C 0.86468 0.79585 0.18656 0.0
Zn725 Zn 0.81535 0.77707 0.25041 0.0
O726 O 0.80781 0.71557 0.26833 0.0
C727 C 0.7538 0.76233 0.23817 0.0
O728 O 0.82899 0.73637 0.23687 0.0
H729 H 0.79855 0.82559 0.21499 0.0
H730 H 0.76181 0.70228 0.28889 0.0
H731 H 0.86695 0.76938 0.22062 0.0
O732 O 0.75513 0.75277 0.26125 0.0
O733 O 0.77577 0.77254 0.2288 0.0
H734 H 0.79592 0.76494 0.3401 0.0
O735 O 0.80224 0.81769 0.26438 0.0
O736 O 0.78118 0.79726 0.29644 0.0
O737 O 0.85393 0.78157 0.27172 0.0
O738 O 0.8348 0.76034 0.3042 0.0
C739 C 0.7875 0.81995 0.28396 0.0
H740 H 0.77005 0.664 0.32075 0.0
H741 H 0.80297 0.72839 0.37397 0.0
H742 H 0.81351 0.84448 0.17354 0.0
H743 H 0.88257 0.78616 0.1784 0.0
C744 C 0.85026 0.26261 0.76586 0.0
N745 N 0.77322 0.23237 0.73604 0.0
C746 C 0.78238 0.24658 0.71498 0.0
C747 C 0.7794 0.23431 0.6906 0.0
C748 C 0.76648 0.20739 0.68777 0.0
C749 C 0.75565 0.19383 0.70942 0.0
C750 C 0.75953 0.20671 0.73371 0.0
Zn751 Zn 0.7873 0.24818 0.77079 0.0
C752 C 0.81359 0.20233 0.80304 0.0
N753 N 0.82255 0.28211 0.84068 0.0
C754 C 0.83521 0.30838 0.84227 0.0
C755 C 0.81569 0.26737 0.86227 0.0
C756 C 0.82023 0.27956 0.88657 0.0
C757 C 0.83184 0.30731 0.8888 0.0
C758 C 0.84003 0.32149 0.8663 0.0
Zn759 Zn 0.80792 0.2661 0.80612 0.0
O760 O 0.82866 0.25329 0.75373 0.0
C761 C 0.78216 0.31196 0.77313 0.0
O762 O 0.84788 0.2708 0.78913 0.0
H763 H 0.80525 0.24674 0.86059 0.0
H764 H 0.79334 0.26685 0.71722 0.0
H765 H 0.84039 0.31977 0.82485 0.0
O766 O 0.77554 0.29024 0.75934 0.0
O767 O 0.79651 0.30837 0.79389 0.0
H768 H 0.75277 0.19563 0.75077 0.0
O769 O 0.76754 0.26098 0.8231 0.0
O770 O 0.74642 0.24318 0.7887 0.0
O771 O 0.81961 0.22375 0.81746 0.0
O772 O 0.79906 0.20631 0.78247 0.0
C773 C 0.74535 0.25148 0.81216 0.0
H774 H 0.7877 0.24542 0.67417 0.0
H775 H 0.74546 0.17302 0.70773 0.0
H776 H 0.81317 0.26801 0.90331 0.0
H777 H 0.84925 0.34282 0.8672 0.0
C778 C 0.74593 0.71192 0.75292 0.0
N779 N 0.80589 0.74585 0.70572 0.0
C780 C 0.81842 0.71967 0.70584 0.0
C781 C 0.83107 0.71001 0.68383 0.0
C782 C 0.8307 0.7275 0.66159 0.0
C783 C 0.81894 0.75507 0.66258 0.0
C784 C 0.80656 0.76384 0.68496 0.0
Zn785 Zn 0.78297 0.75758 0.73556 0.0
C786 C 0.72856 0.78163 0.71694 0.0
N787 N 0.73363 0.78386 0.79576 0.0
C788 C 0.7332 0.76498 0.81588 0.0
C789 C 0.71795 0.80809 0.79511 0.0
C790 C 0.70227 0.81499 0.81614 0.0
C791 C 0.70336 0.79705 0.83812 0.0
C792 C 0.71823 0.77117 0.83733 0.0
Zn793 Zn 0.75763 0.77345 0.76654 0.0
O794 O 0.76521 0.71486 0.73725 0.0
C795 C 0.81186 0.75163 0.78611 0.0
O796 O 0.73963 0.73307 0.76676 0.0
H797 H 0.71823 0.82249 0.77863 0.0
H798 H 0.81768 0.70583 0.72268 0.0
H799 H 0.74534 0.74549 0.81574 0.0
O800 O 0.81544 0.74633 0.76244 0.0
O801 O 0.78864 0.76064 0.79275 0.0
H802 H 0.7964 0.78455 0.68536 0.0
O803 O 0.77584 0.81418 0.76691 0.0
O804 O 0.80098 0.79987 0.73523 0.0
O805 O 0.72732 0.78671 0.7408 0.0
O806 O 0.74997 0.76978 0.70861 0.0
C807 C 0.79526 0.81892 0.7518 0.0
H808 H 0.84021 0.68872 0.6839 0.0
H809 H 0.81789 0.76908 0.64577 0.0
H810 H 0.69078 0.83497 0.8158 0.0
H811 H 0.72018 0.7568 0.85383 0.0
C812 C 0.52578 0.54104 0.47215 0.0
N813 N 0.51212 0.50553 0.54378 0.0
C814 C 0.4875 0.51925 0.54316 0.0
C815 C 0.46383 0.50407 0.54902 0.0
C816 C 0.46577 0.47457 0.55501 0.0
C817 C 0.49166 0.46177 0.5582 0.0
C818 C 0.51489 0.47795 0.5527 0.0
Zn819 Zn 0.5432 0.52339 0.52475 0.0
C820 C 0.57029 0.47815 0.49365 0.0
N821 N 0.60911 0.55732 0.48382 0.0
C822 C 0.60376 0.58263 0.47113 0.0
C823 C 0.63439 0.5451 0.48413 0.0
C824 C 0.65582 0.55897 0.472 0.0
C825 C 0.6511 0.58561 0.45942 0.0
C826 C 0.62459 0.59725 0.45874 0.0
Zn827 Zn 0.57876 0.53891 0.50361 0.0
O828 O 0.51596 0.5314 0.49279 0.0
C829 C 0.55055 0.58454 0.53342 0.0
O830 O 0.5513 0.54674 0.47174 0.0
H831 H 0.63808 0.52501 0.4944 0.0
H832 H 0.48584 0.54111 0.53585 0.0
H833 H 0.58342 0.59193 0.47114 0.0
O834 O 0.53502 0.56389 0.53989 0.0
O835 O 0.57032 0.5797 0.51888 0.0
H836 H 0.5348 0.46765 0.55329 0.0
O837 O 0.60626 0.53 0.53664 0.0
O838 O 0.56962 0.51466 0.55597 0.0
O839 O 0.58659 0.4982 0.48732 0.0
O840 O 0.55148 0.48324 0.50916 0.0
C841 C 0.59535 0.51906 0.55641 0.0
H842 H 0.44402 0.51443 0.54611 0.0
H843 H 0.49367 0.43898 0.56275 0.0
H844 H 0.67615 0.54954 0.47348 0.0
H845 H 0.62018 0.6177 0.44924 0.0
C846 C 0.03172 0.53658 0.09694 0.0
N847 N 0.07066 0.46573 0.06784 0.0
C848 C 0.08266 0.46577 0.09199 0.0
C849 C 0.08066 0.44145 0.1077 0.0
C850 C 0.06648 0.41709 0.09812 0.0
C851 C 0.05831 0.41622 0.07182 0.0
C852 C 0.0604 0.44115 0.05691 0.0
Zn853 Zn 0.05725 0.50395 0.05371 0.0
C854 C 0.99544 0.50049 0.04066 0.0
N855 N 0.02513 0.58362 0.02842 0.0
C856 C 0.03263 0.60769 0.04192 0.0
C857 C 0.00976 0.58516 0.00599 0.0
C858 C 1.00185 0.61192 0.99594 0.0
C859 C 0.00973 0.63712 0.00927 0.0
C860 C 0.02499 0.63487 0.03268 0.0
Zn861 Zn 0.03884 0.54509 0.04128 0.0
O862 O 0.0446 0.51396 0.09108 0.0
C863 C 0.1006 0.54797 0.05218 0.0
O864 O 0.02804 0.55614 0.07991 0.0
H865 H 1.00404 0.56564 0.99569 0.0
H866 H 0.09066 0.48569 0.1002 0.0
H867 H 0.04504 0.60582 0.05962 0.0
O868 O 0.09726 0.52223 0.06009 0.0
O869 O 0.07958 0.56271 0.04518 0.0
H870 H 0.05101 0.44175 0.03766 0.0
O871 O 0.04922 0.53393 0.00321 0.0
O872 O 0.06992 0.4941 0.01623 0.0
O873 O 0.99869 0.52725 0.03612 0.0
O874 O 0.01649 0.48539 0.04693 0.0
C875 C 0.06394 0.51216 0.99838 0.0
H876 H 0.08736 0.44293 0.12783 0.0
H877 H 0.04796 0.39744 0.06359 0.0
H878 H 0.98984 0.61294 0.97792 0.0
H879 H 0.03163 0.65393 0.04331 0.0
H880 H 0.02241 0.20079 0.08811 0.0
H881 H 0.99842 0.16031 0.15901 0.0
H882 H 0.99329 0.11385 0.13686 0.0
H883 H 1.00064 0.08412 0.09849 0.0
H884 H 0.02999 0.12443 0.02955 0.0
H885 H 0.02774 0.17192 0.0497 0.0
C886 C 0.01553 0.18195 0.09864 0.0
C887 C 0.01081 0.18385 0.1251 0.0
C888 C 0.01381 0.15534 0.08615 0.0
C889 C 1.00228 0.15921 0.1386 0.0
C890 C 0.9994 0.13272 0.12598 0.0
C891 C 0.00604 0.10345 0.08784 0.0
C892 C 0.01545 0.10112 0.06272 0.0
C893 C 0.00585 0.13041 0.09994 0.0
C894 C 0.02282 0.12598 0.04902 0.0
C895 C 0.02155 0.15302 0.0605 0.0
H896 H 0.11478 0.73885 0.33312 0.0
H897 H 0.14909 0.7729 0.40473 0.0
H898 H 0.1949 0.77306 0.38724 0.0
H899 H 0.22604 0.76463 0.35117 0.0
H900 H 0.19206 0.72969 0.27976 0.0
H901 H 0.14629 0.72879 0.29745 0.0
C902 C 0.13226 0.74616 0.34499 0.0
C903 C 0.12797 0.75586 0.37043 0.0
C904 C 0.15907 0.74613 0.33474 0.0
C905 C 0.15128 0.76524 0.38522 0.0
C906 C 0.17773 0.7654 0.37516 0.0
C907 C 0.2087 0.75666 0.33945 0.0
C908 C 0.21303 0.74723 0.31394 0.0
C909 C 0.182 0.75605 0.34987 0.0
C910 C 0.18987 0.73705 0.29937 0.0
C911 C 0.16343 0.73656 0.30952 0.0
H912 H 0.556 0.82824 0.67952 0.0
H913 H 0.47658 0.84385 0.6427 0.0
H914 H 0.49378 0.88832 0.62337 0.0
H915 H 0.53348 0.91498 0.6087 0.0
H916 H 0.61489 0.89451 0.63868 0.0
H917 H 0.59545 0.85894 0.66848 0.0
C918 C 0.54241 0.842 0.66791 0.0
C919 C 0.51527 0.83306 0.66219 0.0
C920 C 0.55322 0.86574 0.65484 0.0
C921 C 0.49751 0.85073 0.64735 0.0
C922 C 0.50748 0.87576 0.63597 0.0
C923 C 0.54686 0.9029 0.62205 0.0
C924 C 0.57543 0.90637 0.62126 0.0
C925 C 0.53565 0.88221 0.63818 0.0
C926 C 0.59281 0.89149 0.63886 0.0
C927 C 0.58169 0.87136 0.65583 0.0
H928 H 0.47499 0.28009 0.84761 0.0
H929 H 0.43889 0.237 0.91211 0.0
H930 H 0.39388 0.23815 0.89004 0.0
H931 H 0.36354 0.25217 0.85282 0.0
H932 H 0.39862 0.29605 0.78826 0.0
H933 H 0.44419 0.29396 0.80973 0.0
C934 C 0.45736 0.27068 0.85671 0.0
C935 C 0.46081 0.25845 0.88172 0.0
C936 C 0.43082 0.27181 0.84391 0.0
C937 C 0.43727 0.24673 0.89306 0.0
C938 C 0.41126 0.24737 0.88041 0.0
C939 C 0.38107 0.26142 0.84342 0.0
C940 C 0.37715 0.27441 0.8188 0.0
C941 C 0.40759 0.26012 0.85594 0.0
C942 C 0.40056 0.28601 0.80715 0.0
C943 C 0.42687 0.28474 0.81945 0.0
H944 H 0.03247 0.82111 0.46436 0.0
H945 H 0.05543 0.8647 0.39466 0.0
H946 H 0.0512 0.91151 0.416 0.0
H947 H 0.04299 0.94014 0.45516 0.0
H948 H 0.0202 0.89625 0.52486 0.0
H949 H 0.02222 0.84978 0.50282 0.0
C950 C 0.03637 0.84084 0.45371 0.0
C951 C 0.04434 0.83919 0.42782 0.0
C952 C 0.03399 0.86777 0.4662 0.0
C953 C 0.04924 0.86513 0.41449 0.0
C954 C 0.04689 0.89198 0.42676 0.0
C955 C 0.03822 0.92047 0.46555 0.0
C956 C 0.03145 0.92198 0.49183 0.0
C957 C 0.03956 0.89359 0.45271 0.0
C958 C 0.02541 0.89603 0.50474 0.0
C959 C 0.02665 0.86932 0.49212 0.0
H960 H 0.48799 0.70134 0.72923 0.0
H961 H 0.44661 0.69824 0.65419 0.0
H962 H 0.40579 0.67778 0.67299 0.0
H963 H 0.37882 0.67644 0.71086 0.0
H964 H 0.41829 0.68175 0.7868 0.0
H965 H 0.46313 0.68483 0.76749 0.0
C966 C 0.47038 0.69507 0.717 0.0
C967 C 0.46961 0.70219 0.69067 0.0
C968 C 0.44649 0.68443 0.72812 0.0
C969 C 0.44707 0.69368 0.67473 0.0
C970 C 0.42376 0.68201 0.68545 0.0
C971 C 0.39708 0.67689 0.72351 0.0
C972 C 0.39497 0.68097 0.7502 0.0
C973 C 0.42257 0.67961 0.71229 0.0
C974 C 0.41921 0.68044 0.766 0.0
C975 C 0.44491 0.68222 0.75499 0.0
H976 H 0.56613 0.18447 0.98023 0.0
H977 H 0.54413 0.15365 0.90388 0.0
H978 H 0.54585 0.10347 0.92004 0.0
H979 H 0.54992 0.06848 0.95728 0.0
H980 H 0.57187 0.10155 0.03315 0.0
H981 H 0.57358 0.15038 0.01581 0.0
C982 C 0.56209 0.1668 0.96691 0.0
C983 C 0.55497 0.17304 0.94079 0.0
C984 C 0.56268 0.13822 0.97645 0.0
C985 C 0.54998 0.14968 0.92396 0.0
C986 C 0.55064 0.12094 0.93334 0.0
C987 C 0.55522 0.08635 0.96999 0.0
C988 C 0.56052 0.08098 0.99674 0.0
C989 C 0.55634 0.11492 0.95975 0.0
C990 C 0.56756 0.10464 0.01267 0.0
C991 C 0.56858 0.13276 0.00273 0.0
H992 H 0.11826 0.30772 0.16159 0.0
H993 H 0.12369 0.21492 0.16599 0.0
H994 H 0.17197 0.21856 0.18077 0.0
H995 H 0.20915 0.24811 0.20011 0.0
H996 H 0.20013 0.34045 0.20382 0.0
H997 H 0.157 0.33748 0.17782 0.0
C998 C 0.13031 0.28837 0.16517 0.0
C999 C 0.1177 0.26112 0.16285 0.0
C1000 C 0.15734 0.29074 0.1753 0.0
C1001 C 0.13318 0.23609 0.16777 0.0
C1002 C 0.16067 0.23819 0.17628 0.0
C1003 C 0.19817 0.26758 0.19429 0.0
C1004 C 0.20769 0.29448 0.20327 0.0
C1005 C 0.17254 0.26539 0.1812 0.0
C1006 C 0.19312 0.31964 0.19661 0.0
C1007 C 0.16843 0.31786 0.18203 0.0
H1008 H 0.08791 0.98855 0.19506 0.0
H1009 H 0.16791 0.01583 0.17145 0.0
H1010 H 0.15144 0.01528 0.12604 0.0
H1011 H 0.11248 0.01191 0.0936 0.0
H1012 H 0.03304 0.98351 0.11863 0.0
H1013 H 0.05117 0.97949 0.16274 0.0
C1014 C 0.10187 0.99396 0.17993 0.0
C1015 C 0.12896 0.00251 0.18655 0.0
C1016 C 0.09225 0.99367 0.15408 0.0
C1017 C 0.14695 0.00909 0.16679 0.0
C1018 C 0.13746 0.00901 0.14086 0.0
C1019 C 0.09927 0.00447 0.10866 0.0
C1020 C 0.07128 0.99848 0.10271 0.0
C1021 C 0.10988 0.00209 0.13432 0.0
C1022 C 0.05456 0.98858 0.1225 0.0
C1023 C 0.06489 0.98627 0.14786 0.0
H1024 H 0.29546 0.90609 0.46436 0.0
H1025 H 0.31961 0.8315 0.50999 0.0
H1026 H 0.3317 0.80594 0.47119 0.0
H1027 H 0.33298 0.80347 0.42424 0.0
H1028 H 0.30628 0.87656 0.3779 0.0
H1029 H 0.29851 0.90418 0.41693 0.0
C1030 C 0.30354 0.88432 0.46577 0.0
C1031 C 0.30645 0.8707 0.49002 0.0
C1032 C 0.31016 0.86946 0.44324 0.0
C1033 C 0.317 0.84249 0.49157 0.0
C1034 C 0.32397 0.82781 0.46938 0.0
C1035 C 0.32547 0.82544 0.42263 0.0
C1036 C 0.32007 0.83775 0.39811 0.0
C1037 C 0.32022 0.84089 0.4451 0.0
C1038 C 0.31093 0.86654 0.39647 0.0
C1039 C 0.30617 0.88229 0.41881 0.0
H1040 H 0.50222 0.02576 0.69834 0.0
H1041 H 0.42019 0.03021 0.66399 0.0
H1042 H 0.43936 0.0424 0.62204 0.0
H1043 H 0.48012 0.04563 0.59434 0.0
H1044 H 0.56139 0.03746 0.62976 0.0
H1045 H 0.54189 0.03331 0.67226 0.0
C1046 C 0.4884 0.02955 0.68174 0.0
C1047 C 0.45982 0.02648 0.68416 0.0
C1048 C 0.49955 0.03598 0.65791 0.0
C1049 C 0.44226 0.03222 0.6626 0.0
C1050 C 0.45326 0.03909 0.63863 0.0
C1051 C 0.49346 0.04389 0.61153 0.0
C1052 C 0.52217 0.04217 0.6091 0.0
C1053 C 0.48195 0.04026 0.63591 0.0
C1054 C 0.53931 0.03911 0.6313 0.0
C1055 C 0.52815 0.0365 0.65554 0.0
H1056 H 0.31146 0.11953 0.95348 0.0
H1057 H 0.38203 0.17619 0.95745 0.0
H1058 H 0.363 0.20437 0.92096 0.0
H1059 H 0.32404 0.21618 0.89227 0.0
H1060 H 0.24997 0.16442 0.89268 0.0
H1061 H 0.27223 0.13117 0.92391 0.0
C1062 C 0.32286 0.13764 0.94582 0.0
C1063 C 0.34808 0.14588 0.95767 0.0
C1064 C 0.31069 0.15507 0.92649 0.0
C1065 C 0.36273 0.16946 0.94814 0.0
C1066 C 0.35166 0.18574 0.92766 0.0
C1067 C 0.31249 0.19794 0.8995 0.0
C1068 C 0.28513 0.19318 0.8908 0.0
C1069 C 0.32516 0.17946 0.91755 0.0
C1070 C 0.27094 0.1687 0.89945 0.0
C1071 C 0.28369 0.14966 0.91711 0.0
H1072 H 0.11074 0.99754 0.3148 0.0
H1073 H 0.1873 0.0385 0.33847 0.0
H1074 H 0.16802 0.05202 0.37966 0.0
H1075 H 0.12959 0.05154 0.40894 0.0
H1076 H 0.05556 0.00382 0.38703 0.0
H1077 H 0.07329 0.99483 0.345 0.0
C1078 C 0.12315 0.00949 0.32899 0.0
C1079 C 0.15033 0.01707 0.32367 0.0
C1080 C 0.11224 0.01636 0.35287 0.0
C1081 C 0.16634 0.03229 0.34225 0.0
C1082 C 0.15528 0.0401 0.36574 0.0
C1083 C 0.11728 0.03882 0.3953 0.0
C1084 C 0.09088 0.02884 0.40171 0.0
C1085 C 0.12827 0.03205 0.37135 0.0
C1086 C 0.07545 0.0129 0.38298 0.0
C1087 C 0.08577 0.00721 0.3588 0.0
H1088 H 0.25463 0.85375 0.62295 0.0
H1089 H 0.34205 0.86428 0.63626 0.0
H1090 H 0.33977 0.83905 0.6776 0.0
H1091 H 0.31374 0.81032 0.70821 0.0
H1092 H 0.22602 0.80109 0.69688 0.0
H1093 H 0.22746 0.82892 0.65642 0.0
C1094 C 0.27292 0.85136 0.6354 0.0
C1095 C 0.29842 0.8613 0.62686 0.0
C1096 C 0.27152 0.83618 0.65904 0.0
C1097 C 0.32216 0.85731 0.64274 0.0
C1098 C 0.32092 0.84251 0.66619 0.0
C1099 C 0.29499 0.81418 0.69669 0.0
C1100 C 0.26993 0.80292 0.70495 0.0
C1101 C 0.2959 0.83106 0.67413 0.0
C1102 C 0.24561 0.80902 0.6905 0.0
C1103 C 0.24644 0.82512 0.66752 0.0
H1104 H 0.41508 0.00814 0.84072 0.0
H1105 H 0.48506 0.98832 0.79539 0.0
H1106 H 0.51032 0.97116 0.83376 0.0
H1107 H 0.51388 0.96437 0.88048 0.0
H1108 H 0.44503 0.98559 0.92663 0.0
H1109 H 0.41789 0.99876 0.88775 0.0
C1110 C 0.43579 0.99991 0.83928 0.0
C1111 C 0.4482 0.99976 0.81526 0.0
C1112 C 0.45043 0.99014 0.86158 0.0
C1113 C 0.47501 0.98886 0.81365 0.0
C1114 C 0.48954 0.97899 0.8356 0.0
C1115 C 0.49289 0.97174 0.88202 0.0
C1116 C 0.4816 0.9741 0.90642 0.0
C1117 C 0.47764 0.97993 0.85969 0.0
C1118 C 0.45418 0.98324 0.90805 0.0
C1119 C 0.43871 0.99109 0.88584 0.0
H1120 H 0.36534 0.21451 0.08187 0.0
H1121 H 0.321 0.13698 0.10174 0.0
H1122 H 0.32471 0.14973 0.14724 0.0
H1123 H 0.33402 0.18618 0.17984 0.0
H1124 H 0.37766 0.26434 0.16071 0.0
H1125 H 0.38159 0.24753 0.11636 0.0
C1126 C 0.35659 0.20044 0.09622 0.0
C1127 C 0.34224 0.17535 0.08853 0.0
C1128 C 0.35889 0.20781 0.12236 0.0
C1129 C 0.33174 0.15671 0.10724 0.0
C1130 C 0.33394 0.16389 0.13325 0.0
C1131 C 0.34543 0.19908 0.16635 0.0
C1132 C 0.35504 0.22669 0.17333 0.0
C1133 C 0.34672 0.1898 0.14088 0.0
C1134 C 0.36967 0.24316 0.15554 0.0
C1135 C 0.37168 0.23371 0.13018 0.0
H1136 H 0.23608 0.16195 0.0017 0.0
H1137 H 0.27687 0.08327 0.98129 0.0
H1138 H 0.2326 0.05863 0.97558 0.0
H1139 H 0.18307 0.05793 0.98137 0.0
H1140 H 0.14257 0.13529 0.00587 0.0
H1141 H 0.18572 0.16213 0.00434 0.0
C1142 C 0.23512 0.1396 0.99549 0.0
C1143 C 0.25949 0.12427 0.99218 0.0
C1144 C 0.20968 0.12528 0.99316 0.0
C1145 C 0.25822 0.0953 0.98426 0.0
C1146 C 0.23298 0.08122 0.98102 0.0
C1147 C 0.18368 0.08068 0.98631 0.0
C1148 C 0.15975 0.09446 0.99401 0.0
C1149 C 0.20869 0.09572 0.98631 0.0
C1150 C 0.16068 0.12415 -0.00028 0.0
C1151 C 0.1854 0.1395 -0.00093 0.0
H1152 H 0.69952 0.41259 0.06575 0.0
H1153 H 0.74051 0.49305 0.04981 0.0
H1154 H 0.69586 0.51667 0.04198 0.0
H1155 H 0.64465 0.51347 0.03721 0.0
H1156 H 0.60454 0.43356 0.05711 0.0
H1157 H 0.64907 0.41077 0.06575 0.0
C1158 C 0.69867 0.43541 0.06092 0.0
C1159 C 0.7233 0.45101 0.05829 0.0
C1160 C 0.67296 0.44889 0.05687 0.0
C1161 C 0.72186 0.48061 0.05217 0.0
C1162 C 0.6963 0.49405 0.04747 0.0
C1163 C 0.64576 0.49113 0.04356 0.0
C1164 C 0.62127 0.47515 0.04628 0.0
C1165 C 0.67165 0.47828 0.04933 0.0
C1166 C 0.62302 0.44634 0.05488 0.0
C1167 C 0.64851 0.43325 0.05979 0.0
H1168 H 0.85602 0.4449 0.28152 0.0
H1169 H 0.92959 0.39388 0.27655 0.0
H1170 H 0.90288 0.34966 0.28128 0.0
H1171 H 0.85882 0.32517 0.28661 0.0
H1172 H 0.78493 0.37541 0.29261 0.0
H1173 H 0.81156 0.42002 0.28812 0.0
C1174 C 0.86613 0.42408 0.28129 0.0
C1175 C 0.89479 0.42279 0.27854 0.0
C1176 C 0.85063 0.39852 0.28451 0.0
C1177 C 0.9076 0.3956 0.27867 0.0
C1178 C 0.89234 0.37023 0.28141 0.0
C1179 C 0.84849 0.34585 0.28715 0.0
C1180 C 0.81985 0.3468 0.28997 0.0
C1181 C 0.86388 0.37141 0.28443 0.0
C1182 C 0.80694 0.37392 0.29061 0.0
C1183 C 0.82215 0.3995 0.28787 0.0
H1184 H 0.88244 0.57285 0.56565 0.0
H1185 H 0.8647 0.50778 0.50837 0.0
H1186 H 0.90568 0.48102 0.52268 0.0
H1187 H 0.95304 0.48715 0.53955 0.0
H1188 H 0.97309 0.55652 0.59247 0.0
H1189 H 0.92483 0.57045 0.59238 0.0
C1190 C 0.8868 0.55186 0.55751 0.0
C1191 C 0.8716 0.54254 0.5356 0.0
C1192 C 0.9115 0.53817 0.56436 0.0
C1193 C 0.87659 0.51532 0.52516 0.0
C1194 C 0.90034 0.50041 0.53297 0.0
C1195 C 0.94666 0.5048 0.55161 0.0
C1196 C 0.96648 0.52181 0.56491 0.0
C1197 C 0.91918 0.51333 0.55063 0.0
C1198 C 0.95812 0.54377 0.58139 0.0
C1199 C 0.93056 0.55173 0.58135 0.0
H1200 H 0.16012 0.12217 0.28332 0.0
H1201 H 0.22387 0.08022 0.24187 0.0
H1202 H 0.24982 0.12548 0.2407 0.0
H1203 H 0.25404 0.17728 0.25073 0.0
H1204 H 0.19052 0.21867 0.29293 0.0
H1205 H 0.16499 0.17331 0.29451 0.0
C1206 C 0.17967 0.12288 0.27398 0.0
C1207 C 0.18989 0.09781 0.26257 0.0
C1208 C 0.19459 0.14891 0.27351 0.0
C1209 C 0.21545 0.09915 0.25083 0.0
C1210 C 0.23032 0.12505 0.2501 0.0
C1211 C 0.23465 0.17636 0.26033 0.0
C1212 C 0.22421 0.20141 0.2716 0.0
C1213 C 0.22004 0.15011 0.26128 0.0
C1214 C 0.1991 0.19976 0.28408 0.0
C1215 C 0.18441 0.17382 0.28497 0.0
H1216 H 0.4092 0.89278 0.54566 0.0
H1217 H 0.35845 0.969 0.54474 0.0
H1218 H 0.39931 0.99929 0.539 0.0
H1219 H 0.44976 0.00401 0.53411 0.0
H1220 H 0.49978 0.92723 0.53668 0.0
H1221 H 0.45885 0.89737 0.54162 0.0
C1222 C 0.40689 0.91603 0.5442 0.0
C1223 C 0.38055 0.92847 0.54557 0.0
C1224 C 0.43043 0.93326 0.541 0.0
C1225 C 0.37833 0.95873 0.54385 0.0
C1226 C 0.40173 0.97607 0.54045 0.0
C1227 C 0.45165 0.98072 0.53549 0.0
C1228 C 0.47791 0.96791 0.53474 0.0
C1229 C 0.42792 0.96356 0.53888 0.0
C1230 C 0.47995 0.93771 0.53705 0.0
C1231 C 0.45651 0.92059 0.53995 0.0
H1232 H 0.90391 0.60916 0.23723 0.0
H1233 H 0.83279 0.56131 0.2606 0.0
H1234 H 0.80568 0.6057 0.26012 0.0
H1235 H 0.80343 0.65894 0.2567 0.0
H1236 H 0.87342 0.70613 0.22971 0.0
H1237 H 0.89956 0.66133 0.22759 0.0
C1238 C 0.88236 0.60846 0.2418 0.0
C1239 C 0.87041 0.5821 0.24914 0.0
C1240 C 0.86671 0.63399 0.24091 0.0
C1241 C 0.84241 0.58136 0.25479 0.0
C1242 C 0.82694 0.60676 0.25467 0.0
C1243 C 0.82423 0.65928 0.2499 0.0
C1244 C 0.83652 0.68583 0.24352 0.0
C1245 C 0.83902 0.63331 0.24828 0.0
C1246 C 0.86343 0.68597 0.2346 0.0
C1247 C 0.87848 0.66037 0.23356 0.0
H1248 H 0.74253 0.44097 0.76326 0.0
H1249 H 0.66899 0.39786 0.73416 0.0
H1250 H 0.69267 0.35135 0.73626 0.0
H1251 H 0.7331 0.32272 0.74936 0.0
H1252 H 0.80484 0.36492 0.78342 0.0
H1253 H 0.78324 0.41216 0.77626 0.0
C1254 C 0.73189 0.42139 0.75706 0.0
C1255 C 0.70419 0.42267 0.74843 0.0
C1256 C 0.74529 0.39467 0.75934 0.0
C1257 C 0.69034 0.39724 0.74088 0.0
C1258 C 0.70386 0.37071 0.74209 0.0
C1259 C 0.74416 0.34232 0.75481 0.0
C1260 C 0.77056 0.34052 0.76665 0.0
C1261 C 0.73117 0.36913 0.75168 0.0
C1262 C 0.78449 0.36592 0.77419 0.0
C1263 C 0.77214 0.39286 0.77015 0.0
H1264 H 0.029 0.89254 0.90652 0.0
H1265 H 0.94383 0.91067 0.91903 0.0
H1266 H 0.95735 0.94454 0.95341 0.0
H1267 H 0.99254 0.9619 0.98392 0.0
H1268 H 0.07812 0.94245 0.97385 0.0
H1269 H 0.06528 0.91494 0.93463 0.0
C1270 C 0.01357 0.90499 0.91607 0.0
C1271 C 0.98553 0.8998 0.91015 0.0
C1272 C 0.02151 0.92266 0.93695 0.0
C1273 C 0.96548 0.91507 0.92299 0.0
C1274 C 0.97322 0.93381 0.94297 0.0
C1275 C 0.00851 0.95135 0.97341 0.0
C1276 C 0.03622 0.95301 0.98234 0.0
C1277 C 1.00103 0.93641 0.95094 0.0
C1278 C 0.05665 0.94055 0.96775 0.0
C1279 C 0.0493 0.92521 0.94526 0.0
H1280 H 0.97645 0.2628 0.73398 0.0
H1281 H 0.93866 0.24617 0.65891 0.0
H1282 H 0.89311 0.24679 0.67729 0.0
H1283 H 0.8632 0.25259 0.71482 0.0
H1284 H 0.901 0.27188 0.78945 0.0
H1285 H 0.94649 0.26986 0.77127 0.0
C1286 C 0.95829 0.25907 0.72163 0.0
C1287 C 0.9614 0.25413 0.69493 0.0
C1288 C 0.93175 0.26017 0.73233 0.0
C1289 C 0.93727 0.24989 0.67943 0.0
C1290 C 0.91103 0.2503 0.68998 0.0
C1291 C 0.88134 0.25645 0.72716 0.0
C1292 C 0.87817 0.26244 0.75371 0.0
C1293 C 0.90787 0.25557 0.71642 0.0
C1294 C 0.90231 0.26737 0.76906 0.0
C1295 C 0.92857 0.26611 0.75863 0.0
H1296 H 0.48436 0.22592 0.41135 0.0
H1297 H 0.4486 0.25836 0.48047 0.0
H1298 H 0.45243 0.21084 0.5004 0.0
H1299 H 0.47021 0.16158 0.50001 0.0
H1300 H 0.50701 0.12907 0.43174 0.0
H1301 H 0.49794 0.17499 0.40944 0.0
C1302 C 0.47713 0.22256 0.43066 0.0
C1303 C 0.46668 0.24586 0.44451 0.0
C1304 C 0.47959 0.19519 0.44219 0.0
C1305 C 0.45707 0.24096 0.46942 0.0
C1306 C 0.45923 0.21377 0.48089 0.0
C1307 C 0.47593 0.16453 0.48015 0.0
C1308 C 0.48949 0.14232 0.46757 0.0
C1309 C 0.47114 0.191 0.46773 0.0
C1310 C 0.49646 0.14598 0.44173 0.0
C1311 C 0.49149 0.17226 0.42908 0.0
H1312 H 0.65307 0.77527 0.15692 0.0
H1313 H 0.60669 0.74768 0.22192 0.0
H1314 H 0.64952 0.74428 0.24846 0.0
H1315 H 0.70082 0.74917 0.25325 0.0
H1316 H 0.74583 0.77715 0.18742 0.0
H1317 H 0.70312 0.78011 0.16148 0.0
C1318 C 0.65206 0.76851 0.17691 0.0
C1319 C 0.6262 0.76177 0.18718 0.0
C1320 C 0.67683 0.76653 0.19205 0.0
C1321 C 0.62595 0.75309 0.21326 0.0
C1322 C 0.65059 0.75108 0.2285 0.0
C1323 C 0.70133 0.75577 0.23319 0.0
C1324 C 0.72697 0.7628 0.22248 0.0
C1325 C 0.67627 0.75768 0.21812 0.0
C1326 C 0.7268 0.77151 0.19641 0.0
C1327 C 0.70222 0.77328 0.18145 0.0
H1328 H 0.07073 0.18553 0.59074 0.0
H1329 H 0.01629 0.16285 0.65151 0.0
H1330 H 0.01327 0.11312 0.63455 0.0
H1331 H 0.02545 0.0764 0.60096 0.0
H1332 H 0.07895 0.1028 0.54049 0.0
H1333 H 0.08282 0.15078 0.559 0.0
C1334 C 0.05801 0.17004 0.6006 0.0
C1335 C 0.04359 0.1785 0.62254 0.0
C1336 C 0.05621 0.14192 0.59064 0.0
C1337 C 0.02762 0.15735 0.63468 0.0
C1338 C 0.02589 0.12885 0.62488 0.0
C1339 C 0.0381 0.09263 0.59198 0.0
C1340 C 0.05192 0.08571 0.56917 0.0
C1341 C 0.04 0.12087 0.60268 0.0
C1342 C 0.06801 0.10723 0.55782 0.0
C1343 C 0.07026 0.13481 0.56844 0.0
H1344 H 0.53747 0.30779 0.3264 0.0
H1345 H 0.56982 0.27025 0.39748 0.0
H1346 H 0.61586 0.2693 0.38038 0.0
H1347 H 0.64749 0.28357 0.34712 0.0
H1348 H 0.61621 0.32333 0.27662 0.0
H1349 H 0.56915 0.31916 0.29154 0.0
C1350 C 0.5545 0.2986 0.33775 0.0
C1351 C 0.55039 0.28888 0.36304 0.0
C1352 C 0.58115 0.29926 0.32817 0.0
C1353 C 0.57262 0.27765 0.37789 0.0
C1354 C 0.59894 0.27738 0.36823 0.0
C1355 C 0.63038 0.29154 0.33511 0.0
C1356 C 0.63529 0.30431 0.31108 0.0
C1357 C 0.60357 0.28905 0.34379 0.0
C1358 C 0.61289 0.31368 0.29533 0.0
C1359 C 0.58603 0.31123 0.30382 0.0
H1360 H 0.53666 0.81228 0.09607 0.0
H1361 H 0.54504 0.85699 0.16878 0.0
H1362 H 0.54856 0.90321 0.14581 0.0
H1363 H 0.54903 0.93101 0.10506 0.0
H1364 H 0.5388 0.88641 0.03237 0.0
H1365 H 0.5361 0.84018 0.05534 0.0
C1366 C 0.53936 0.83211 0.10695 0.0
C1367 C 0.54075 0.83103 0.13423 0.0
C1368 C 0.54092 0.8587 0.09357 0.0
C1369 C 0.54396 0.85707 0.14787 0.0
C1370 C 0.54595 0.88354 0.1347 0.0
C1371 C 0.54621 0.9112 0.09416 0.0
C1372 C 0.54421 0.91235 0.06687 0.0
C1373 C 0.54441 0.88464 0.10755 0.0
C1374 C 0.54037 0.88634 0.05327 0.0
C1375 C 0.53888 0.85984 0.06644 0.0
H1376 H 0.92355 0.78819 0.84109 0.0
H1377 H 0.86687 0.82466 0.89406 0.0
H1378 H 0.82847 0.80198 0.87032 0.0
H1379 H 0.81084 0.77371 0.83407 0.0
H1380 H 0.86635 0.73982 0.77885 0.0
H1381 H 0.9056 0.75849 0.80483 0.0
C1382 C 0.90279 0.79138 0.84736 0.0
C1383 C 0.89815 0.80833 0.86927 0.0
C1384 C 0.8807 0.77818 0.83364 0.0
C1385 C 0.8711 0.8119 0.87723 0.0
C1386 C 0.84911 0.79876 0.86378 0.0
C1387 C 0.83151 0.76984 0.82783 0.0
C1388 C 0.83561 0.75541 0.80446 0.0
C1389 C 0.8537 0.78191 0.842 0.0
C1390 C 0.8626 0.7507 0.79682 0.0
C1391 C 0.88501 0.76174 0.81147 0.0
H1392 H 0.96983 0.01905 0.86696 0.0
H1393 H 0.89371 0.99492 0.90128 0.0
H1394 H 0.91417 0.00479 0.94438 0.0
H1395 H 0.95371 0.02032 0.97195 0.0
H1396 H 0.02919 0.0463 0.93707 0.0
H1397 H 0.00859 0.03646 0.89431 0.0
C1398 C 0.95779 0.01573 0.88391 0.0
C1399 C 0.93044 0.00594 0.88109 0.0
C1400 C 0.96936 0.02237 0.90837 0.0
C1401 C 0.91486 0.00229 0.90309 0.0
C1402 C 0.9265 0.00807 0.92765 0.0
C1403 C 0.96555 0.02433 0.95499 0.0
C1404 C 0.99296 0.03422 0.95775 0.0
C1405 C 0.95367 0.01835 0.93047 0.0
C1406 C 0.00801 0.03899 0.93553 0.0
C1407 C 0.99633 0.03309 0.91108 0.0
H1408 H 0.74392 0.16956 0.57299 0.0
H1409 H 0.83215 0.1613 0.57622 0.0
H1410 H 0.8334 0.17249 0.62254 0.0
H1411 H 0.80937 0.18924 0.66086 0.0
H1412 H 0.721 0.19553 0.65765 0.0
H1413 H 0.71957 0.1801 0.61243 0.0
C1414 C 0.76337 0.16995 0.58397 0.0
C1415 C 0.78797 0.16517 0.57138 0.0
C1416 C 0.7638 0.17606 0.61041 0.0
C1417 C 0.81304 0.16508 0.58566 0.0
C1418 C 0.81372 0.17157 0.61203 0.0
C1419 C 0.78984 0.1867 0.65026 0.0
C1420 C 0.7653 0.19361 0.66221 0.0
C1421 C 0.78927 0.17777 0.62442 0.0
C1422 C 0.74003 0.19021 0.64865 0.0
C1423 C 0.73927 0.18158 0.62285 0.0
H1424 H 0.60962 0.01101 0.37682 0.0
H1425 H 0.68822 0.99439 0.4153 0.0
H1426 H 0.66553 0.98854 0.45652 0.0
H1427 H 0.62308 0.98905 0.4815 0.0
H1428 H 0.54522 0.00679 0.44207 0.0
H1429 H 0.56788 0.01043 0.40099 0.0
C1430 C 0.62194 0.0062 0.39419 0.0
C1431 C 0.65063 0.0033 0.39302 0.0
C1432 C 0.60877 0.0025 0.4175 0.0
C1433 C 0.66614 0.99695 0.41574 0.0
C1434 C 0.65313 0.9934 0.43923 0.0
C1435 C 0.61106 0.99298 0.46378 0.0
C1436 C 0.58245 0.99719 0.46466 0.0
C1437 C 0.62441 0.99599 0.44031 0.0
C1438 C 0.56718 0.00314 0.44175 0.0
C1439 C 0.58016 0.00549 0.41834 0.0
H1440 H 0.83011 0.86306 0.06234 0.0
H1441 H 0.81834 0.77212 0.04777 0.0
H1442 H 0.83836 0.76071 0.09079 0.0
H1443 H 0.84975 0.77759 0.13493 0.0
H1444 H 0.85723 0.86889 0.1499 0.0
H1445 H 0.84901 0.87941 0.10399 0.0
C1446 C 0.83241 0.8407 0.06847 0.0
C1447 C 0.82219 0.81842 0.05247 0.0
C1448 C 0.8431 0.83454 0.09322 0.0
C1449 C 0.82586 0.78954 0.06006 0.0
C1450 C 0.83715 0.78309 0.08462 0.0
C1451 C 0.85068 0.79967 0.12788 0.0
C1452 C 0.85388 0.82253 0.14549 0.0
C1453 C 0.84455 0.80551 0.10177 0.0
C1454 C 0.85474 0.85111 0.13647 0.0
C1455 C 0.8498 0.85707 0.11035 0.0
H1456 H 0.98337 0.95822 0.75206 0.0
H1457 H 0.91441 0.01288 0.73065 0.0
H1458 H 0.92652 0.01032 0.68533 0.0
H1459 H 0.95749 0.99318 0.6519 0.0
H1460 H 0.02652 0.93936 0.67432 0.0
H1461 H 0.01328 0.94063 0.71927 0.0
C1462 C 0.9709 0.96971 0.73761 0.0
C1463 C 0.94804 0.98585 0.7449 0.0
C1464 C 0.97787 0.96803 0.71173 0.0
C1465 C 0.9322 1.00041 0.72569 0.0
C1466 C 0.93905 0.99886 0.69974 0.0
C1467 C 0.96929 0.98138 0.66664 0.0
C1468 C 0.99283 0.96604 0.65993 0.0
C1469 C 0.96185 0.98271 0.69254 0.0
C1470 C 0.00832 0.95124 0.67915 0.0
C1471 C 1.00082 0.95206 0.70479 0.0
H1472 H 0.77314 0.20333 0.44743 0.0
H1473 H 0.8043 0.12836 0.40913 0.0
H1474 H 0.80174 0.15404 0.36793 0.0
H1475 H 0.79292 0.19815 0.34324 0.0
H1476 H 0.75953 0.27286 0.37992 0.0
H1477 H 0.76069 0.24692 0.42152 0.0
C1478 C 0.77916 0.19259 0.43001 0.0
C1479 C 0.78914 0.16404 0.43136 0.0
C1480 C 0.77751 0.20749 0.40627 0.0
C1481 C 0.7966 0.15028 0.40863 0.0
C1482 C 0.79527 0.165 0.38508 0.0
C1483 C 0.78603 0.20887 0.36038 0.0
C1484 C 0.77677 0.23758 0.35877 0.0
C1485 C 0.78622 0.1937 0.3838 0.0
C1486 C 0.76705 0.25088 0.38086 0.0
C1487 C 0.76771 0.23604 0.40455 0.0
H1488 H 0.66367 0.00795 0.24135 0.0
H1489 H 0.58148 0.01826 0.26859 0.0
H1490 H 0.56351 0.02412 0.22466 0.0
H1491 H 0.57087 0.02857 0.17906 0.0
H1492 H 0.65149 0.014 0.14991 0.0
H1493 H 0.67048 0.00904 0.19413 0.0
C1494 C 0.64179 0.01099 0.23759 0.0
C1495 C 0.62404 0.01289 0.25831 0.0
C1496 C 0.63137 0.01439 0.21204 0.0
C1497 C 0.59572 0.01698 0.2531 0.0
C1498 C 0.58536 0.02047 0.22796 0.0
C1499 C 0.59254 0.02381 0.18219 0.0
C1500 C 0.60958 0.02144 0.16107 0.0
C1501 C 0.60301 0.01964 0.20738 0.0
C1502 C 0.63784 0.01632 0.16576 0.0
C1503 C 0.64868 0.01307 0.19105 0.0
H1504 H 0.71246 0.81138 0.9555 0.0
H1505 H 0.73759 0.89677 0.93225 0.0
H1506 H 0.72106 0.88733 0.88798 0.0
H1507 H 0.70802 0.85187 0.8555 0.0
H1508 H 0.68123 0.76668 0.87822 0.0
H1509 H 0.68873 0.77947 0.92359 0.0
C1510 C 0.71398 0.82788 0.94067 0.0
C1511 C 0.72691 0.85425 0.94649 0.0
C1512 C 0.70401 0.82248 0.91547 0.0
C1513 C 0.72809 0.87607 0.92773 0.0
C1514 C 0.71857 0.87076 0.90256 0.0
C1515 C 0.70255 0.83639 0.87022 0.0
C1516 C 0.69529 0.80793 0.86349 0.0
C1517 C 0.70751 0.84363 0.89607 0.0
C1518 C 0.68789 0.78844 0.88299 0.0
C1519 C 0.69238 0.79564 0.9089 0.0
H1520 H 0.8635 0.87127 0.96462 0.0
H1521 H 0.80302 0.9386 0.9689 0.0
H1522 H 0.83812 0.97219 0.98539 0.0
H1523 H 0.88206 0.97766 0.00865 0.0
H1524 H 0.9441 0.91169 0.00256 0.0
H1525 H 0.9117 0.88176 0.9777 0.0
C1526 C 0.85835 0.89371 0.96788 0.0
C1527 C 0.83077 0.90239 0.96629 0.0
C1528 C 0.8784 0.91252 0.97848 0.0
C1529 C 0.82422 0.93149 0.97037 0.0
C1530 C 0.84415 0.95052 0.98026 0.0
C1531 C 0.88907 0.95721 0.00137 0.0
C1532 C 0.91529 0.94662 0.00871 0.0
C1533 C 0.87078 0.94053 0.98615 0.0
C1534 C 0.92354 0.91986 0.99875 0.0
C1535 C 0.90521 0.90287 0.98398 0.0
H1536 H 0.35807 0.54686 0.0121 0.0
H1537 H 0.38648 0.62729 0.97987 0.0
H1538 H 0.43328 0.60909 0.98013 0.0
H1539 H 0.46703 0.57084 0.99055 0.0
H1540 H 0.43948 0.49134 0.02491 0.0
H1541 H 0.39201 0.50837 0.02248 0.0
C1542 C 0.37451 0.56039 0.00517 0.0
C1543 C 0.36855 0.58849 0.99609 0.0
C1544 C 0.40177 0.54984 0.00557 0.0
C1545 C 0.39027 0.60565 0.98716 0.0
C1546 C 0.41718 0.59522 0.98718 0.0
C1547 C 0.45057 0.55709 0.99712 0.0
C1548 C 0.45688 0.52975 0.00768 0.0
C1549 C 0.42327 0.56738 0.99639 0.0
C1550 C 0.43528 0.51245 0.01659 0.0
C1551 C 0.40806 0.52223 0.01531 0.0
H1552 H 0.15924 0.63012 0.8207 0.0
H1553 H 0.23398 0.58037 0.8278 0.0
H1554 H 0.25929 0.61987 0.80778 0.0
H1555 H 0.26019 0.66869 0.78859 0.0
H1556 H 0.18536 0.71829 0.78207 0.0
H1557 H 0.15992 0.67822 0.80091 0.0
C1558 C 0.18114 0.62791 0.81816 0.0
C1559 C 0.19469 0.60228 0.82607 0.0
C1560 C 0.19542 0.65044 0.80619 0.0
C1561 C 0.22301 0.59983 0.82212 0.0
C1562 C 0.23746 0.62236 0.81049 0.0
C1563 C 0.23818 0.6705 0.79072 0.0
C1564 C 0.22461 0.69636 0.78354 0.0
C1565 C 0.22383 0.64767 0.80228 0.0
C1566 C 0.19623 0.69855 0.78711 0.0
C1567 C 0.18174 0.67575 0.79812 0.0
H1568 H 0.21266 0.47341 0.48679 0.0
H1569 H 0.23774 0.47047 0.56729 0.0
H1570 H 0.19516 0.49504 0.57846 0.0
H1571 H 0.14733 0.50746 0.56548 0.0
H1572 H 0.12142 0.50447 0.48489 0.0
H1573 H 0.16796 0.49231 0.47331 0.0
C1574 C 0.20908 0.47914 0.50667 0.0
C1575 C 0.22769 0.4703 0.5263 0.0
C1576 C 0.18423 0.49153 0.51282 0.0
C1577 C 0.22341 0.47746 0.55202 0.0
C1578 C 0.19901 0.49108 0.55834 0.0
C1579 C 0.15211 0.5047 0.54538 0.0
C1580 C 0.13109 0.50607 0.52606 0.0
C1581 C 0.17866 0.49668 0.53897 0.0
C1582 C 0.13731 0.50277 0.50006 0.0
C1583 C 0.16386 0.49596 0.49343 0.0
H1584 H 0.89834 0.89738 0.7786 0.0
H1585 H 0.84368 0.93033 0.83467 0.0
H1586 H 0.80692 0.89817 0.81815 0.0
H1587 H 0.79059 0.86091 0.78775 0.0
H1588 H 0.84468 0.82956 0.73015 0.0
H1589 H 0.88113 0.86173 0.74662 0.0
C1590 C 0.8785 0.897 0.78744 0.0
C1591 C 0.87375 0.91538 0.80823 0.0
C1592 C 0.85722 0.87944 0.7771 0.0
C1593 C 0.84778 0.91575 0.81901 0.0
C1594 C 0.82676 0.89766 0.80939 0.0
C1595 C 0.81018 0.86143 0.77847 0.0
C1596 C 0.81483 0.8428 0.75772 0.0
C1597 C 0.8312 0.87961 0.7883 0.0
C1598 C 0.8404 0.8438 0.746 0.0
C1599 C 0.86141 0.86192 0.75562 0.0
H1600 H 0.72446 0.09001 0.53073 0.0
H1601 H 0.69175 0.12408 0.4584 0.0
H1602 H 0.64603 0.1058 0.46787 0.0
H1603 H 0.61469 0.08224 0.49764 0.0
H1604 H 0.64703 0.04753 0.56984 0.0
H1605 H 0.6932 0.06448 0.55989 0.0
C1606 C 0.70745 0.09271 0.51678 0.0
C1607 C 0.71157 0.10807 0.49374 0.0
C1608 C 0.68091 0.08285 0.52272 0.0
C1609 C 0.68915 0.11208 0.47614 0.0
C1610 C 0.66293 0.10192 0.48168 0.0
C1611 C 0.63177 0.07888 0.5114 0.0
C1612 C 0.62731 0.06427 0.53474 0.0
C1613 C 0.65841 0.0879 0.50518 0.0
C1614 C 0.64984 0.05918 0.55195 0.0
C1615 C 0.6763 0.06862 0.54615 0.0
H1616 H 0.24243 0.45589 0.79987 0.0
H1617 H 0.18198 0.41411 0.84627 0.0
H1618 H 0.20367 0.36753 0.8399 0.0
H1619 H 0.23916 0.33824 0.82076 0.0
H1620 H 0.29836 0.37858 0.77218 0.0
H1621 H 0.27799 0.42595 0.77988 0.0
C1622 C 0.23405 0.43657 0.80858 0.0
C1623 C 0.21056 0.43859 0.82354 0.0
C1624 C 0.24646 0.40953 0.80452 0.0
C1625 C 0.19991 0.41328 0.83457 0.0
C1626 C 0.21236 0.38656 0.83101 0.0
C1627 C 0.24781 0.3574 0.81202 0.0
C1628 C 0.27043 0.35483 0.79608 0.0
C1629 C 0.23559 0.3844 0.81601 0.0
C1630 C 0.28103 0.37991 0.7846 0.0
C1631 C 0.26934 0.40701 0.78897 0.0
H1632 H 0.3969 0.60327 0.32061 0.0
H1633 H 0.34748 0.56287 0.25989 0.0
H1634 H 0.31791 0.60546 0.25686 0.0
H1635 H 0.30621 0.65391 0.27147 0.0
H1636 H 0.35454 0.6939 0.33329 0.0
H1637 H 0.384 0.65127 0.33644 0.0
C1638 C 0.37988 0.60401 0.30646 0.0
C1639 C 0.37461 0.58025 0.29014 0.0
C1640 C 0.36247 0.62815 0.30545 0.0
C1641 C 0.35208 0.58108 0.27242 0.0
C1642 C 0.33508 0.60531 0.27082 0.0
C1643 C 0.32298 0.65323 0.28588 0.0
C1644 C 0.32812 0.67712 0.30214 0.0
C1645 C 0.33999 0.62886 0.28736 0.0
C1646 C 0.34996 0.67577 0.32067 0.0
C1647 C 0.36699 0.65152 0.3223 0.0
H1648 H 0.54998 0.71474 0.56692 0.0
H1649 H 0.49756 0.67908 0.62443 0.0
H1650 H 0.49915 0.63177 0.60405 0.0
H1651 H 0.51822 0.59997 0.57206 0.0
H1652 H 0.57305 0.63467 0.51608 0.0
H1653 H 0.56768 0.68306 0.53366 0.0
C1654 C 0.53861 0.69667 0.57468 0.0
C1655 C 0.52382 0.70016 0.59708 0.0
C1656 C 0.54025 0.6694 0.56334 0.0
C1657 C 0.50931 0.67666 0.60724 0.0
C1658 C 0.51019 0.64967 0.59565 0.0
C1659 C 0.5288 0.61816 0.56357 0.0
C1660 C 0.54612 0.61383 0.54301 0.0
C1661 C 0.52608 0.64568 0.57405 0.0
C1662 C 0.55978 0.63752 0.53216 0.0
C1663 C 0.55669 0.66517 0.54213 0.0
H1664 H 0.64846 0.26046 0.89233 0.0
H1665 H 0.59842 0.23802 0.8249 0.0
H1666 H 0.63958 0.23515 0.79937 0.0
H1667 H 0.69064 0.23975 0.79552 0.0
H1668 H 0.74002 0.26276 0.86337 0.0
H1669 H 0.69902 0.26449 0.88869 0.0
C1670 C 0.64645 0.25483 0.87207 0.0
C1671 C 0.61988 0.24945 0.86084 0.0
C1672 C 0.6705 0.2533 0.85723 0.0
C1673 C 0.61824 0.2423 0.83438 0.0
C1674 C 0.64197 0.24065 0.81963 0.0
C1675 C 0.69252 0.245 0.81586 0.0
C1676 C 0.719 0.25107 0.82718 0.0
C1677 C 0.66836 0.24619 0.83073 0.0
C1678 C 0.72039 0.25796 0.85372 0.0
C1679 C 0.69673 0.259 0.86842 0.0
H1680 H 1.00323 0.32372 0.16061 0.0
H1681 H 0.08141 0.31801 0.20217 0.0
H1682 H 0.09849 0.35971 0.17803 0.0
H1683 H 0.09321 0.39205 0.13993 0.0
H1684 H 0.0149 0.39505 0.0977 0.0
H1685 H 0.99609 0.35941 0.12671 0.0
C1686 C 0.02372 0.33227 0.16492 0.0
C1687 C 0.04115 0.31799 0.18282 0.0
C1688 C 0.03371 0.35488 0.15009 0.0
C1689 C 0.06758 0.32904 0.18856 0.0
C1690 C 0.07749 0.35245 0.1744 0.0
C1691 C 0.07201 0.38498 0.13725 0.0
C1692 C 0.05579 0.39537 0.11616 0.0
C1693 C 0.06114 0.36454 0.1542 0.0
C1694 C 0.0282 0.38643 0.1131 0.0
C1695 C 0.01724 0.36642 0.12992 0.0
H1696 H 0.97927 0.78648 0.34184 0.0
H1697 H 0.94507 0.73597 0.40298 0.0
H1698 H 0.90102 0.73312 0.37908 0.0
H1699 H 0.87081 0.74663 0.34166 0.0
H1700 H 0.90408 0.79774 0.28041 0.0
H1701 H 0.94897 0.79879 0.30326 0.0
C1702 C 0.96233 0.77444 0.34969 0.0
C1703 C 0.96582 0.76133 0.37429 0.0
C1704 C 0.93639 0.77333 0.33591 0.0
C1705 C 0.94323 0.74628 0.38418 0.0
C1706 C 0.91783 0.74471 0.37053 0.0
C1707 C 0.88782 0.75807 0.33327 0.0
C1708 C 0.88362 0.77225 0.30924 0.0
C1709 C 0.91391 0.75854 0.34655 0.0
C1710 C 0.90631 0.78669 0.29883 0.0
C1711 C 0.93221 0.78726 0.31192 0.0
H1712 H 0.54832 0.35837 0.90904 0.0
H1713 H 0.53608 0.3 0.9727 0.0
H1714 H 0.52958 0.34064 0.00142 0.0
H1715 H 0.52894 0.39345 0.00953 0.0
H1716 H 0.54129 0.45179 0.94579 0.0
H1717 H 0.5459 0.41116 0.91676 0.0
C1718 C 0.54406 0.35453 0.92914 0.0
C1719 C 0.54279 0.32585 0.93844 0.0
C1720 C 0.54035 0.37829 0.94591 0.0
C1721 C 0.53726 0.32162 0.96472 0.0
C1722 C 0.53352 0.34498 0.98134 0.0
C1723 C 0.53235 0.39731 0.98926 0.0
C1724 C 0.53475 0.426 0.98019 0.0
C1725 C 0.53522 0.37353 0.97231 0.0
C1726 C 0.53936 0.43019 0.95368 0.0
C1727 C 0.54207 0.40682 0.93687 0.0
H1728 H 0.98347 0.16879 0.21647 0.0
H1729 H 0.01844 0.23141 0.26949 0.0
H1730 H 0.97745 0.22898 0.29505 0.0
H1731 H 0.92808 0.2209 0.29317 0.0
H1732 H 0.89229 0.15762 0.24051 0.0
H1733 H 0.93743 0.14856 0.22374 0.0
C1734 C 0.98271 0.18044 0.23455 0.0
C1735 C 1.00353 0.20044 0.24112 0.0
C1736 C 0.95853 0.17991 0.24836 0.0
C1737 C 1.00255 0.21574 0.26431 0.0
C1738 C 0.97887 0.21479 0.27858 0.0
C1739 C 0.92992 0.20413 0.27887 0.0
C1740 C 0.90628 0.19124 0.26715 0.0
C1741 C 0.95597 0.19876 0.26947 0.0
C1742 C 0.90978 0.16929 0.24885 0.0
C1743 C 0.93569 0.16379 0.2394 0.0
H1744 H 0.05379 0.70108 0.48807 0.0
H1745 H 0.05065 0.66378 0.412 0.0
H1746 H 0.05102 0.61503 0.43135 0.0
H1747 H 0.04944 0.58296 0.47054 0.0
H1748 H 0.05294 0.62243 0.54593 0.0
H1749 H 0.05481 0.67011 0.52617 0.0
C1750 C 0.05342 0.68234 0.47556 0.0
C1751 C 0.05207 0.6863 0.44849 0.0
C1752 C 0.05328 0.65459 0.48681 0.0
C1753 C 0.05193 0.66158 0.43282 0.0
C1754 C 0.05184 0.63365 0.44395 0.0
C1755 C 0.05057 0.60201 0.48262 0.0
C1756 C 0.05079 0.59883 0.50987 0.0
C1757 C 0.05199 0.62985 0.471 0.0
C1758 C 0.05264 0.62391 0.52507 0.0
C1759 C 0.05376 0.65134 0.51374 0.0
H1760 H 0.62758 0.77951 0.63664 0.0
H1761 H 0.58492 0.78686 0.70771 0.0
H1762 H 0.62855 0.79227 0.7319 0.0
H1763 H 0.67805 0.79178 0.73334 0.0
H1764 H 0.72238 0.77897 0.66384 0.0
H1765 H 0.67874 0.77926 0.63829 0.0
C1766 C 0.62802 0.78244 0.6574 0.0
C1767 C 0.60328 0.78261 0.67052 0.0
C1768 C 0.65331 0.78461 0.67133 0.0
C1769 C 0.60383 0.78629 0.69736 0.0
C1770 C 0.6287 0.78952 0.71115 0.0
C1771 C 0.67839 0.78944 0.71254 0.0
C1772 C 0.70343 0.78545 0.70046 0.0
C1773 C 0.65348 0.78829 0.69838 0.0
C1774 C 0.70333 0.78215 0.67354 0.0
C1775 C 0.67841 0.78217 0.659 0.0
H1776 H 0.66046 0.52141 0.66361 0.0
H1777 H 0.59331 0.46496 0.68226 0.0
H1778 H 0.57864 0.46243 0.6367 0.0
H1779 H 0.58084 0.48176 0.59324 0.0
H1780 H 0.64511 0.54174 0.57407 0.0
H1781 H 0.66547 0.53706 0.61802 0.0
C1782 C 0.64314 0.50794 0.65743 0.0
C1783 C 0.62798 0.49319 0.67597 0.0
C1784 C 0.63417 0.5076 0.63127 0.0
C1785 C 0.60525 0.47625 0.66812 0.0
C1786 C 0.59681 0.47497 0.64217 0.0
C1787 C 0.59955 0.49356 0.59852 0.0
C1788 C 0.61121 0.51247 0.58062 0.0
C1789 C 0.61047 0.49142 0.6238 0.0
C1790 C 0.63571 0.52714 0.58757 0.0
C1791 C 0.6472 0.5246 0.61273 0.0
H1792 H 0.82353 0.34571 0.00435 0.0
H1793 H 0.79559 0.42449 0.96732 0.0
H1794 H 0.80564 0.40457 0.92509 0.0
H1795 H 0.81829 0.36306 0.89866 0.0
H1796 H 0.84672 0.28459 0.93604 0.0
H1797 H 0.84066 0.30621 0.97827 0.0
C1798 C 0.81986 0.35863 0.98707 0.0
C1799 C 0.80852 0.38637 0.98888 0.0
C1800 C 0.82566 0.34706 0.96295 0.0
C1801 C 0.80419 0.403 0.96637 0.0
C1802 C 0.80988 0.39161 0.94224 0.0
C1803 C 0.82383 0.35093 0.91603 0.0
C1804 C 0.83269 0.32213 0.91417 0.0
C1805 C 0.82012 0.36343 0.94027 0.0
C1806 C 0.83945 0.30663 0.93692 0.0
C1807 C 0.83601 0.31897 0.96107 0.0
H1808 H 0.96263 0.55341 0.19745 0.0
H1809 H 0.96981 0.4606 0.19769 0.0
H1810 H 0.99523 0.46259 0.15812 0.0
H1811 H 0.01773 0.49034 0.12518 0.0
H1812 H 0.01072 0.58317 0.1228 0.0
H1813 H 0.98336 0.5817 0.16171 0.0
C1814 C 0.96918 0.5337 0.18835 0.0
C1815 C 0.9641 0.50682 0.2002 0.0
C1816 C 0.98445 0.53506 0.16571 0.0
C1817 C 0.97324 0.48143 0.18868 0.0
C1818 C 0.98801 0.48258 0.16623 0.0
C1819 C 0.01053 0.51039 0.13325 0.0
C1820 C 0.01684 0.53691 0.12142 0.0
C1821 C 0.99429 0.50926 0.15497 0.0
C1822 C 0.00655 0.56251 0.13179 0.0
C1823 C 0.99074 0.56162 0.15391 0.0
H1824 H 0.83351 0.58885 0.41651 0.0
H1825 H 0.8986 0.65068 0.43164 0.0
H1826 H 0.88 0.68182 0.39708 0.0
H1827 H 0.84028 0.6958 0.36998 0.0
H1828 H 0.77061 0.63802 0.36091 0.0
H1829 H 0.79584 0.60081 0.38546 0.0
C1830 C 0.84413 0.60864 0.41154 0.0
C1831 C 0.867 0.61788 0.42674 0.0
C1832 C 0.83175 0.62766 0.39355 0.0
C1833 C 0.88084 0.64335 0.42015 0.0
C1834 C 0.86989 0.66137 0.4008 0.0
C1835 C 0.8303 0.67529 0.37377 0.0
C1836 C 0.80317 0.67011 0.36449 0.0
C1837 C 0.84435 0.65463 0.38881 0.0
C1838 C 0.79125 0.64278 0.3683 0.0
C1839 C 0.80567 0.62151 0.38234 0.0
H1840 H 0.66732 0.50467 0.83942 0.0
H1841 H 0.59411 0.52299 0.79266 0.0
H1842 H 0.57056 0.53847 0.83088 0.0
H1843 H 0.56994 0.5446 0.87784 0.0
H1844 H 0.64239 0.5236 0.92488 0.0
H1845 H 0.66715 0.51237 0.88634 0.0
C1846 C 0.64626 0.5122 0.83759 0.0
C1847 C 0.63247 0.51249 0.81323 0.0
C1848 C 0.6327 0.52084 0.85972 0.0
C1849 C 0.6052 0.52238 0.81118 0.0
C1850 C 0.59169 0.53128 0.83304 0.0
C1851 C 0.59114 0.53758 0.87973 0.0
C1852 C 0.60411 0.53498 0.90441 0.0
C1853 C 0.60511 0.53024 0.85747 0.0
C1854 C 0.63184 0.52635 0.90626 0.0
C1855 C 0.64601 0.51953 0.88417 0.0
H1856 H 0.80099 0.31198 0.11562 0.0
H1857 H 0.76727 0.39484 0.13501 0.0
H1858 H 0.75539 0.37571 0.17745 0.0
H1859 H 0.75682 0.33568 0.20989 0.0
H1860 H 0.79291 0.25429 0.1897 0.0
H1861 H 0.80129 0.27262 0.14655 0.0
C1862 C 0.79095 0.32607 0.12895 0.0
C1863 C 0.78522 0.355 0.12197 0.0
C1864 C 0.78448 0.31506 0.15322 0.0
C1865 C 0.77208 0.37257 0.13976 0.0
C1866 C 0.76526 0.3616 0.16405 0.0
C1867 C 0.76607 0.32186 0.19584 0.0
C1868 C 0.77409 0.29354 0.20296 0.0
C1869 C 0.77158 0.33289 0.1711 0.0
C1870 C 0.78651 0.27607 0.18473 0.0
C1871 C 0.7914 0.28659 0.16007 0.0
H1872 H 0.97586 0.49146 0.32303 0.0
H1873 H 0.89893 0.519 0.35315 0.0
H1874 H 0.91654 0.5089 0.39717 0.0
H1875 H 0.95497 0.49508 0.42713 0.0
H1876 H 0.0316 0.46741 0.39646 0.0
H1877 H 0.01279 0.47442 0.35253 0.0
C1878 C 0.96285 0.49513 0.33919 0.0
C1879 C 0.93621 0.5062 0.33485 0.0
C1880 C 0.97306 0.48919 0.36433 0.0
C1881 C 0.91957 0.51061 0.356 0.0
C1882 C 0.92962 0.50482 0.38116 0.0
C1883 C 0.96732 0.48999 0.41082 0.0
C1884 C 0.9947 0.48085 0.41505 0.0
C1885 C 0.95646 0.4944 0.38557 0.0
C1886 C 0.01058 0.47473 0.39371 0.0
C1887 C 0.99985 0.47877 0.3686 0.0
H1888 H 0.8619 0.70166 0.54745 0.0
H1889 H 0.82186 0.62083 0.56528 0.0
H1890 H 0.81631 0.63661 0.60948 0.0
H1891 H 0.82001 0.67439 0.64214 0.0
H1892 H 0.8602 0.75514 0.62484 0.0
H1893 H 0.86856 0.73824 0.58124 0.0
C1894 C 0.85197 0.68748 0.56098 0.0
C1895 C 0.842 0.66027 0.55292 0.0
C1896 C 0.84888 0.69662 0.58644 0.0
C1897 C 0.82956 0.64199 0.57086 0.0
C1898 C 0.82639 0.65096 0.59618 0.0
C1899 C 0.8312 0.68805 0.62907 0.0
C1900 C 0.83944 0.71597 0.63666 0.0
C1901 C 0.83568 0.67833 0.60407 0.0
C1902 C 0.85343 0.73363 0.61932 0.0
C1903 C 0.85819 0.724 0.59442 0.0
H1904 H 0.75648 0.66103 0.45725 0.0
H1905 H 0.78773 0.57971 0.43128 0.0
H1906 H 0.74118 0.56194 0.42252 0.0
H1907 H 0.69285 0.56532 0.4321 0.0
H1908 H 0.66198 0.64327 0.46547 0.0
H1909 H 0.70644 0.66694 0.46074 0.0
C1910 C 0.75291 0.63989 0.44877 0.0
C1911 C 0.7752 0.62164 0.44483 0.0
C1912 C 0.72602 0.62903 0.4456 0.0
C1913 C 0.77068 0.59407 0.43431 0.0
C1914 C 0.7441 0.58383 0.4295 0.0
C1915 C 0.69576 0.58768 0.43784 0.0
C1916 C 0.67455 0.60226 0.44973 0.0
C1917 C 0.72174 0.60044 0.43662 0.0
C1918 C 0.67814 0.63149 0.4564 0.0
C1919 C 0.70366 0.64495 0.45397 0.0
H1920 H 0.20009 0.90875 0.56805 0.0
H1921 H 0.24112 0.98613 0.54314 0.0
H1922 H 0.19668 0.01025 0.53639 0.0
H1923 H 0.1455 0.00854 0.53566 0.0
H1924 H 0.10529 0.9325 0.5647 0.0
H1925 H 0.1497 0.90881 0.57171 0.0
C1926 C 0.1993 0.931 0.56142 0.0
C1927 C 0.22391 0.94555 0.556 0.0
C1928 C 0.17367 0.94496 0.55813 0.0
C1929 C 0.22253 0.97447 0.54761 0.0
C1930 C 0.19707 0.98823 0.54358 0.0
C1931 C 0.14656 0.98685 0.54365 0.0
C1932 C 0.12205 0.97223 0.54945 0.0
C1933 C 0.17241 0.97358 0.54844 0.0
C1934 C 0.12379 0.94427 0.56011 0.0
C1935 C 0.14921 0.93065 0.56407 0.0
H1936 H 0.41186 0.90097 0.7762 0.0
H1937 H 0.34721 0.9599 0.75213 0.0
H1938 H 0.31272 0.92278 0.76082 0.0
H1939 H 0.30098 0.87282 0.77426 0.0
H1940 H 0.36636 0.81426 0.79691 0.0
H1941 H 0.40039 0.85217 0.79019 0.0
C1942 C 0.39025 0.90583 0.77274 0.0
C1943 C 0.3823 0.93329 0.76332 0.0
C1944 C 0.37056 0.88446 0.77782 0.0
C1945 C 0.35407 0.93898 0.7592 0.0
C1946 C 0.33428 0.91777 0.76428 0.0
C1947 C 0.32264 0.86858 0.77816 0.0
C1948 C 0.33111 0.8408 0.78629 0.0
C1949 C 0.34228 0.89038 0.77358 0.0
C1950 C 0.3593 0.83546 0.79075 0.0
C1951 C 0.37879 0.85709 0.78678 0.0
H1952 H 0.37652 0.03578 0.03651 0.0
H1953 H 0.40577 0.10455 0.08619 0.0
H1954 H 0.44874 0.07873 0.09535 0.0
H1955 H 0.48172 0.04449 0.07904 0.0
H1956 H 0.45452 0.98024 0.02348 0.0
H1957 H 0.40708 0.99594 0.02683 0.0
C1958 C 0.39186 0.04427 0.05029 0.0
C1959 C 0.38861 0.07186 0.06047 0.0
C1960 C 0.41724 0.03054 0.0536 0.0
C1961 C 0.40833 0.08321 0.07812 0.0
C1962 C 0.43293 0.06866 0.08306 0.0
C1963 C 0.46528 0.03348 0.0682 0.0
C1964 C 0.47148 0.01209 0.05038 0.0
C1965 C 0.43836 0.04353 0.06927 0.0
C1966 C 0.45014 0.9975 0.03674 0.0
C1967 C 0.42304 0.00636 0.0387 0.0
H1968 H 0.65927 0.61328 0.76933 0.0
H1969 H 0.721 0.56205 0.73371 0.0
H1970 H 0.75052 0.60474 0.73019 0.0
H1971 H 0.75825 0.65731 0.73654 0.0
H1972 H 0.69608 0.70695 0.77348 0.0
H1973 H 0.66741 0.6643 0.77699 0.0
C1974 C 0.67918 0.6114 0.76079 0.0
C1975 C 0.68782 0.58463 0.75167 0.0
C1976 C 0.69601 0.63584 0.75895 0.0
C1977 C 0.71386 0.58248 0.74095 0.0
C1978 C 0.73072 0.60689 0.73883 0.0
C1979 C 0.73843 0.65867 0.74531 0.0
C1980 C 0.72937 0.68526 0.75466 0.0
C1981 C 0.72192 0.63379 0.74762 0.0
C1982 C 0.70369 0.68673 0.76619 0.0
C1983 C 0.68716 0.66235 0.76821 0.0
H1984 H 0.86887 0.46436 0.03609 0.0
H1985 H 0.90181 0.39317 0.08121 0.0
H1986 H 0.9479 0.41389 0.07992 0.0
H1987 H 0.97954 0.45074 0.06416 0.0
H1988 H 0.94757 0.52238 0.01899 0.0
H1989 H 0.90086 0.50295 0.02176 0.0
C1990 C 0.88608 0.45383 0.0461 0.0
C1991 C 0.88183 0.42735 0.05891 0.0
C1992 C 0.91292 0.4656 0.04476 0.0
C1993 C 0.90448 0.41362 0.07132 0.0
C1994 C 0.93092 0.42534 0.07044 0.0
C1995 C 0.9624 0.46202 0.05473 0.0
C1996 C 0.96722 0.4878 0.04107 0.0
C1997 C 0.93552 0.45098 0.05676 0.0
C1998 C 0.94457 0.50236 0.02944 0.0
C1999 C 0.91778 0.49132 0.03113 0.0
H2000 H 0.34188 0.08151 0.75786 0.0
H2001 H 0.41956 0.11792 0.73663 0.0
H2002 H 0.40018 0.16658 0.73769 0.0
H2003 H 0.36193 0.19899 0.74718 0.0
H2004 H 0.28583 0.16285 0.77291 0.0
H2005 H 0.30363 0.11397 0.7675 0.0
C2006 C 0.35441 0.10011 0.75315 0.0
C2007 C 0.38204 0.09617 0.74699 0.0
C2008 C 0.34341 0.12809 0.75476 0.0
C2009 C 0.39823 0.12044 0.74141 0.0
C2010 C 0.38717 0.14825 0.74203 0.0
C2011 C 0.34914 0.18038 0.75127 0.0
C2012 C 0.32253 0.18449 0.76024 0.0
C2013 C 0.35989 0.15237 0.74903 0.0
C2014 C 0.30637 0.16022 0.76595 0.0
C2015 C 0.31654 0.13228 0.76288 0.0
H2016 H 0.19021 0.91037 0.23624 0.0
H2017 H 0.25907 0.96135 0.26494 0.0
H2018 H 0.28733 0.91781 0.26919 0.0
H2019 H 0.29107 0.86449 0.26806 0.0
H2020 H 0.22317 0.81436 0.23587 0.0
H2021 H 0.19606 0.85819 0.22938 0.0
C2022 C 0.21154 0.91192 0.24305 0.0
C2023 C 0.22254 0.93886 0.25048 0.0
C2024 C 0.22778 0.88691 0.24492 0.0
C2025 C 0.25023 0.94077 0.25903 0.0
C2026 C 0.26633 0.91587 0.26161 0.0
C2027 C 0.2705 0.8633 0.25928 0.0
C2028 C 0.25906 0.83623 0.25265 0.0
C2029 C 0.25515 0.88872 0.25511 0.0
C2030 C 0.23248 0.83495 0.24106 0.0
C2031 C 0.21688 0.85999 0.23747 0.0
H2032 H 0.52074 0.36351 0.45494 0.0
H2033 H 0.50873 0.41379 0.38514 0.0
H2034 H 0.53664 0.45312 0.4044 0.0
H2035 H 0.56079 0.47428 0.4427 0.0
H2036 H 0.57058 0.42381 0.51248 0.0
H2037 H 0.54829 0.38246 0.49109 0.0
C2038 C 0.52405 0.38313 0.44392 0.0
C2039 C 0.51216 0.38622 0.41895 0.0
C2040 C 0.54041 0.40505 0.45484 0.0
C2041 C 0.51732 0.41132 0.40462 0.0
C2042 C 0.53344 0.43358 0.41552 0.0
C2043 C 0.55913 0.45373 0.45272 0.0
C2044 C 0.56771 0.45158 0.47883 0.0
C2045 C 0.54487 0.43074 0.44073 0.0
C2046 C 0.56463 0.42544 0.49216 0.0
C2047 C 0.55143 0.40211 0.4801 0.0
H2048 H 0.43988 0.75981 0.17333 0.0
H2049 H 0.49033 0.74528 0.24232 0.0
H2050 H 0.44993 0.74979 0.26867 0.0
H2051 H 0.39941 0.75782 0.27257 0.0
H2052 H 0.34912 0.76985 0.20306 0.0
H2053 H 0.3897 0.76669 0.17706 0.0
C2054 C 0.44211 0.75743 0.19412 0.0
C2055 C 0.46852 0.75204 0.20557 0.0
C2056 C 0.41851 0.75993 0.20936 0.0
C2057 C 0.47054 0.74919 0.23268 0.0
C2058 C 0.4473 0.75194 0.2479 0.0
C2059 C 0.39736 0.76012 0.25177 0.0
C2060 C 0.37087 0.76451 0.24003 0.0
C2061 C 0.42107 0.75744 0.23655 0.0
C2062 C 0.36895 0.7667 0.21288 0.0
C2063 C 0.39229 0.76477 0.19785 0.0
H2064 H 0.9756 0.76386 0.97952 0.0
H2065 H 1.00427 0.73664 0.90566 0.0
H2066 H 0.01547 0.68914 0.92372 0.0
H2067 H 0.0166 0.6553 0.96037 0.0
H2068 H 0.98805 0.68285 0.034 0.0
H2069 H 0.9773 0.73058 0.01603 0.0
C2070 C 0.98429 0.7476 0.96729 0.0
C2071 C 0.98894 0.75377 0.94124 0.0
C2072 C 0.99063 0.72046 0.97772 0.0
C2073 C 1.00045 0.73247 0.92579 0.0
C2074 C 0.00681 0.70529 0.93606 0.0
C2075 C 0.00779 0.67174 0.97236 0.0
C2076 C 1.0029 0.66571 0.99835 0.0
C2077 C 1.00181 0.69903 0.96195 0.0
C2078 C 0.99203 0.6872 0.01393 0.0
C2079 C 0.98585 0.71437 0.00368 0.0
H2080 H 0.15162 0.27471 0.66216 0.0
H2081 H 0.09902 0.25739 0.72553 0.0
H2082 H 0.13974 0.2544 0.75509 0.0
H2083 H 0.19113 0.2567 0.76292 0.0
H2084 H 0.24194 0.27381 0.69805 0.0
H2085 H 0.20129 0.27663 0.6695 0.0
C2086 C 0.14875 0.27034 0.68244 0.0
C2087 C 0.12182 0.2664 0.69135 0.0
C2088 C 0.17225 0.26844 0.69926 0.0
C2089 C 0.11919 0.26065 0.71787 0.0
C2090 C 0.14261 0.25886 0.73484 0.0
C2091 C 0.19332 0.26089 0.74252 0.0
C2092 C 0.22002 0.26497 0.7329 0.0
C2093 C 0.16939 0.26265 0.72577 0.0
C2094 C 0.22205 0.27054 0.7063 0.0
C2095 C 0.19865 0.27222 0.6898 0.0
H2096 H 0.5719 0.6834 0.09182 0.0
H2097 H 0.51302 0.66129 0.1489 0.0
H2098 H 0.50886 0.61231 0.13039 0.0
H2099 H 0.52108 0.57619 0.09611 0.0
H2100 H 0.57904 0.60235 0.03931 0.0
H2101 H 0.58415 0.64921 0.05963 0.0
C2102 C 0.55793 0.66817 0.10048 0.0
C2103 C 0.54257 0.67661 0.1218 0.0
C2104 C 0.55543 0.64051 0.08957 0.0
C2105 C 0.52512 0.65579 0.13256 0.0
C2106 C 0.5227 0.62772 0.12185 0.0
C2107 C 0.53493 0.59213 0.08832 0.0
C2108 C 0.54959 0.58546 0.06593 0.0
C2109 C 0.5376 0.61985 0.10009 0.0
C2110 C 0.56732 0.6066 0.0562 0.0
C2111 C 0.57033 0.63355 0.06789 0.0
H2112 H 0.07038 0.85161 0.87641 0.0
H2113 H 0.03935 0.77894 0.83212 0.0
H2114 H 0.08305 0.77579 0.81043 0.0
H2115 H 0.13017 0.79279 0.80533 0.0
H2116 H 0.16013 0.86759 0.84756 0.0
H2117 H 0.11653 0.87067 0.8691 0.0
C2118 C 0.07326 0.835 0.86208 0.0
C2119 C 0.05195 0.81527 0.85602 0.0
C2120 C 0.09808 0.83376 0.84939 0.0
C2121 C 0.05561 0.79423 0.8371 0.0
C2122 C 0.08052 0.79247 0.82474 0.0
C2123 C 0.12705 0.81024 0.81876 0.0
C2124 C 0.14848 0.82997 0.82477 0.0
C2125 C 0.10187 0.81211 0.83078 0.0
C2126 C 0.14415 0.85192 0.84278 0.0
C2127 C 0.11921 0.85375 0.85505 0.0
H2128 H 0.03882 0.36253 0.65615 0.0
H2129 H 0.04044 0.30684 0.58979 0.0
H2130 H 0.04366 0.34861 0.56133 0.0
H2131 H 0.04581 0.40165 0.55465 0.0
H2132 H 0.04639 0.45715 0.62132 0.0
H2133 H 0.04259 0.41543 0.64962 0.0
C2134 C 0.03993 0.35955 0.63549 0.0
C2135 C 0.03932 0.33136 0.62533 0.0
C2136 C 0.04218 0.3839 0.61897 0.0
C2137 C 0.04092 0.32813 0.59838 0.0
C2138 C 0.04271 0.35212 0.58193 0.0
C2139 C 0.04512 0.40461 0.57535 0.0
C2140 C 0.0464 0.43278 0.58557 0.0
C2141 C 0.04332 0.38021 0.59191 0.0
C2142 C 0.0456 0.43591 0.61262 0.0
C2143 C 0.04335 0.41195 0.62901 0.0
H2144 H 0.41403 0.2868 0.36233 0.0
H2145 H 0.38085 0.36911 0.38372 0.0
H2146 H 0.33631 0.35597 0.36309 0.0
H2147 H 0.30726 0.321 0.33864 0.0
H2148 H 0.34097 0.23869 0.31788 0.0
H2149 H 0.38477 0.25143 0.33967 0.0
C2150 C 0.39718 0.30207 0.36213 0.0
C2151 C 0.40076 0.32908 0.37406 0.0
C2152 C 0.37158 0.29395 0.35116 0.0
C2153 C 0.37856 0.34832 0.37434 0.0
C2154 C 0.35309 0.34068 0.36283 0.0
C2155 C 0.32391 0.3055 0.33967 0.0
C2156 C 0.32083 0.27872 0.32712 0.0
C2157 C 0.3493 0.31341 0.35143 0.0
C2158 C 0.34282 0.2592 0.32781 0.0
C2159 C 0.36793 0.26665 0.3399 0.0
H2160 H 0.47658 0.53516 0.35892 0.0
H2161 H 0.4046 0.50613 0.39758 0.0
H2162 H 0.42855 0.51415 0.43971 0.0
H2163 H 0.47134 0.52667 0.46498 0.0
H2164 H 0.54211 0.55714 0.42472 0.0
H2165 H 0.51695 0.55169 0.38362 0.0
C2166 C 0.46609 0.53056 0.37658 0.0
C2167 C 0.43915 0.51955 0.37533 0.0
C2168 C 0.47972 0.53564 0.40033 0.0
C2169 C 0.42548 0.51441 0.39823 0.0
C2170 C 0.43917 0.51899 0.42221 0.0
C2171 C 0.48109 0.53253 0.44723 0.0
C2172 C 0.5087 0.54205 0.44795 0.0
C2173 C 0.46647 0.52926 0.42346 0.0
C2174 C 0.52098 0.54967 0.42478 0.0
C2175 C 0.50666 0.54643 0.40122 0.0
H2176 H 0.26563 0.70393 0.05794 0.0
H2177 H 0.30213 0.62028 0.07281 0.0
H2178 H 0.29713 0.62703 0.11919 0.0
H2179 H 0.28105 0.65619 0.15513 0.0
H2180 H 0.24593 0.74034 0.13933 0.0
H2181 H 0.25034 0.73295 0.09332 0.0
C2182 C 0.27268 0.6871 0.07122 0.0
C2183 C 0.28422 0.66159 0.06184 0.0
C2184 C 0.26926 0.69085 0.0976 0.0
C2185 C 0.29334 0.64022 0.07948 0.0
C2186 C 0.29023 0.64394 0.10597 0.0
C2187 C 0.27443 0.67297 0.14165 0.0
C2188 C 0.26308 0.69876 0.15081 0.0
C2189 C 0.27793 0.66906 0.11518 0.0
C2190 C 0.25416 0.72001 0.13295 0.0
C2191 C 0.2571 0.71603 0.10661 0.0
H2192 H 0.10993 0.52897 0.88799 0.0
H2193 H 0.18445 0.49869 0.92681 0.0
H2194 H 0.15994 0.4936 0.96716 0.0
H2195 H 0.11666 0.49659 0.99083 0.0
H2196 H 0.04306 0.52802 0.95122 0.0
H2197 H 0.06779 0.53301 0.91129 0.0
C2198 C 0.121 0.52138 0.90527 0.0
C2199 C 0.14901 0.51413 0.90437 0.0
C2200 C 0.10672 0.51806 0.92802 0.0
C2201 C 0.16295 0.50454 0.92702 0.0
C2202 C 0.14885 0.50137 0.94999 0.0
C2203 C 0.10596 0.50391 0.97326 0.0
C2204 C 0.07788 0.51121 0.97367 0.0
C2205 C 0.1206 0.50761 0.95057 0.0
C2206 C 0.06448 0.52176 0.95115 0.0
C2207 C 0.07868 0.52487 0.92844 0.0
H2208 H 0.32273 0.32864 0.55946 0.0
H2209 H 0.26287 0.39082 0.58284 0.0
H2210 H 0.27592 0.38186 0.62816 0.0
H2211 H 0.30317 0.35506 0.66096 0.0
H2212 H 0.3622 0.29223 0.63765 0.0
H2213 H 0.3513 0.30341 0.59217 0.0
C2214 C 0.31227 0.33993 0.57448 0.0
C2215 C 0.29156 0.35997 0.56791 0.0
C2216 C 0.32023 0.3351 0.60035 0.0
C2217 C 0.27868 0.37504 0.58751 0.0
C2218 C 0.28627 0.37011 0.61336 0.0
C2219 C 0.31419 0.34452 0.64586 0.0
C2220 C 0.33369 0.32325 0.65235 0.0
C2221 C 0.30705 0.35026 0.61996 0.0
C2222 C 0.34739 0.309 0.63283 0.0
C2223 C 0.3409 0.3151 0.60696 0.0
H2224 H 0.42617 0.49781 0.22351 0.0
H2225 H 0.50627 0.48255 0.25989 0.0
H2226 H 0.52511 0.47267 0.21836 0.0
H2227 H 0.51916 0.46664 0.17221 0.0
H2228 H 0.44099 0.48578 0.13386 0.0
H2229 H 0.42094 0.49444 0.17563 0.0
C2230 C 0.4478 0.49275 0.22225 0.0
C2231 C 0.46463 0.49075 0.24493 0.0
C2232 C 0.4588 0.48703 0.19801 0.0
C2233 C 0.49265 0.48399 0.2429 0.0
C2234 C 0.50353 0.47821 0.21911 0.0
C2235 C 0.49782 0.47312 0.17277 0.0
C2236 C 0.4818 0.47568 0.14973 0.0
C2237 C 0.48678 0.47933 0.19663 0.0
C2238 C 0.45387 0.48317 0.15121 0.0
C2239 C 0.44244 0.48855 0.17512 0.0
H2240 H 0.27146 0.69455 0.94162 0.0
H2241 H 0.29958 0.62003 0.90062 0.0
H2242 H 0.30068 0.64863 0.86083 0.0
H2243 H 0.29584 0.69512 0.83847 0.0
H2244 H 0.26643 0.76946 0.87882 0.0
H2245 H 0.26405 0.74056 0.91851 0.0
C2246 C 0.2776 0.68446 0.92393 0.0
C2247 C 0.2856 0.65522 0.92408 0.0
C2248 C 0.27845 0.7011 0.90127 0.0
C2249 C 0.29332 0.64244 0.90099 0.0
C2250 C 0.29415 0.65885 0.87831 0.0
C2251 C 0.28922 0.70515 0.85603 0.0
C2252 C 0.28196 0.7346 0.85595 0.0
C2253 C 0.28728 0.68829 0.87841 0.0
C2254 C 0.27252 0.74699 0.87857 0.0
C2255 C 0.27104 0.73043 0.90116 0.0
H2256 H 0.16067 0.52121 0.75302 0.0
H2257 H 0.07871 0.51741 0.78208 0.0
H2258 H 0.05907 0.52705 0.7392 0.0
H2259 H 0.06493 0.54015 0.69473 0.0
H2260 H 0.14566 0.53826 0.66301 0.0
H2261 H 0.16613 0.52916 0.70609 0.0
C2262 C 0.13853 0.52177 0.74978 0.0
C2263 C 0.1212 0.5189 0.77074 0.0
C2264 C 0.12718 0.52741 0.7249 0.0
C2265 C 0.09252 0.51984 0.76631 0.0
C2266 C 0.08123 0.52558 0.74185 0.0
C2267 C 0.08697 0.5371 0.6969 0.0
C2268 C 0.10356 0.53967 0.67544 0.0
C2269 C 0.09838 0.53007 0.7212 0.0
C2270 C 0.13226 0.53688 0.67915 0.0
C2271 C 0.14399 0.53117 0.70374 0.0
H2272 H 0.22151 0.36998 0.45347 0.0
H2273 H 0.27501 0.42911 0.41471 0.0
H2274 H 0.2514 0.41799 0.37325 0.0
H2275 H 0.22065 0.38618 0.34824 0.0
H2276 H 0.16771 0.32624 0.38693 0.0
H2277 H 0.18513 0.34416 0.42879 0.0
C2278 C 0.22796 0.38037 0.43589 0.0
C2279 C 0.25049 0.39944 0.43665 0.0
C2280 C 0.21408 0.37422 0.41246 0.0
C2281 C 0.25808 0.4138 0.41417 0.0
C2282 C 0.24449 0.40762 0.39064 0.0
C2283 C 0.21193 0.37788 0.36575 0.0
C2284 C 0.19327 0.35456 0.36459 0.0
C2285 C 0.22298 0.38726 0.38953 0.0
C2286 C 0.18229 0.34402 0.38747 0.0
C2287 C 0.19255 0.35394 0.41133 0.0
H2288 H 0.34661 0.43028 0.53492 0.0
H2289 H 0.38538 0.38426 0.47404 0.0
H2290 H 0.43072 0.40074 0.49093 0.0
H2291 H 0.45817 0.43185 0.52077 0.0
H2292 H 0.4181 0.47889 0.58015 0.0
H2293 H 0.37383 0.45759 0.56637 0.0
C2294 C 0.36493 0.424 0.52511 0.0
C2295 C 0.36278 0.40688 0.50279 0.0
C2296 C 0.39044 0.43328 0.53495 0.0
C2297 C 0.38667 0.39792 0.49095 0.0
C2298 C 0.41245 0.4072 0.50067 0.0
C2299 C 0.43981 0.43662 0.53116 0.0
C2300 C 0.44108 0.45657 0.55154 0.0
C2301 C 0.41446 0.42524 0.52244 0.0
C2302 C 0.41733 0.46332 0.56459 0.0
C2303 C 0.39214 0.45143 0.55654 0.0
H2304 H 0.85986 0.05398 0.52209 0.0
H2305 H 0.89046 0.12995 0.48383 0.0
H2306 H 0.93635 0.10937 0.484 0.0
H2307 H 0.96874 0.07042 0.49601 0.0
H2308 H 0.93938 0.99568 0.53672 0.0
H2309 H 0.8926 0.01481 0.53436 0.0
C2310 C 0.87658 0.06599 0.5138 0.0
C2311 C 0.87151 0.09359 0.50306 0.0
C2312 C 0.90337 0.05414 0.51426 0.0
C2313 C 0.89358 0.10879 0.49244 0.0
C2314 C 0.91997 0.09698 0.49241 0.0
C2315 C 0.95203 0.05815 0.50404 0.0
C2316 C 0.95763 0.03152 0.51632 0.0
C2317 C 0.92521 0.06972 0.50334 0.0
C2318 C 0.93573 0.0162 0.52707 0.0
C2319 C 0.90891 0.02718 0.52581 0.0
H2320 H 0.66223 0.12074 0.30768 0.0
H2321 H 0.73721 0.07355 0.32386 0.0
H2322 H 0.76404 0.11406 0.30716 0.0
H2323 H 0.76606 0.16355 0.28905 0.0
H2324 H 0.69051 0.20981 0.27268 0.0
H2325 H 0.66402 0.16862 0.28779 0.0
C2326 C 0.68448 0.11933 0.30782 0.0
C2327 C 0.6977 0.09427 0.31746 0.0
C2328 C 0.69963 0.14235 0.29769 0.0
C2329 C 0.72651 0.09266 0.31682 0.0
C2330 C 0.74184 0.11576 0.30714 0.0
C2331 C 0.74377 0.16437 0.28822 0.0
C2332 C 0.7303 0.18975 0.27956 0.0
C2333 C 0.7286 0.14073 0.29749 0.0
C2334 C 0.70141 0.19056 0.27908 0.0
C2335 C 0.68624 0.16709 0.28794 0.0
H2336 H 0.69052 0.88299 0.01204 0.0
H2337 H 0.73099 0.9313 0.0736 0.0
H2338 H 0.69357 0.96701 0.07127 0.0
H2339 H 0.65018 0.98458 0.05018 0.0
H2340 H 0.61522 0.93851 0.9842 0.0
H2341 H 0.65114 0.90249 0.98872 0.0
C2342 C 0.69093 0.90097 0.02543 0.0
C2343 C 0.71282 0.90412 0.04363 0.0
C2344 C 0.6711 0.92232 0.02233 0.0
C2345 C 0.71373 0.9281 0.06006 0.0
C2346 C 0.69271 0.94868 0.05833 0.0
C2347 C 0.65078 0.96697 0.03649 0.0
C2348 C 0.62987 0.96403 0.01707 0.0
C2349 C 0.67157 0.94622 0.03915 0.0
C2350 C 0.63102 0.94131 -0.0007 0.0
C2351 C 0.65129 0.92043 0.0021 0.0
H2352 H 0.35079 0.45029 0.29959 0.0
H2353 H 0.41308 0.38718 0.32029 0.0
H2354 H 0.38259 0.34849 0.3047 0.0
H2355 H 0.33916 0.3328 0.28354 0.0
H2356 H 0.2756 0.39499 0.26546 0.0
H2357 H 0.30606 0.43418 0.28113 0.0
C2358 C 0.3577 0.42807 0.30087 0.0
C2359 C 0.38439 0.42175 0.31083 0.0
C2360 C 0.34012 0.40593 0.29178 0.0
C2361 C 0.39275 0.39275 0.31265 0.0
C2362 C 0.37542 0.37061 0.30352 0.0
C2363 C 0.33221 0.35504 0.2826 0.0
C2364 C 0.30565 0.36135 0.27258 0.0
C2365 C 0.34933 0.37704 0.29259 0.0
C2366 C 0.29627 0.38993 0.27252 0.0
C2367 C 0.31357 0.41217 0.28167 0.0
H2368 H 0.22437 0.58098 0.03003 0.0
H2369 H 0.18534 0.60601 0.95728 0.0
H2370 H 0.14105 0.58859 0.97176 0.0
H2371 H 0.11259 0.57087 0.00641 0.0
H2372 H 0.15049 0.54419 0.07906 0.0
H2373 H 0.19594 0.55818 0.06368 0.0
C2374 C 0.20631 0.58174 0.01711 0.0
C2375 C 0.20819 0.59458 0.99248 0.0
C2376 C 0.18057 0.57244 0.02594 0.0
C2377 C 0.18447 0.59603 0.97618 0.0
C2378 C 0.15907 0.58642 0.98459 0.0
C2379 C 0.13078 0.56847 0.01902 0.0
C2380 C 0.12814 0.55758 0.04421 0.0
C2381 C 0.15671 0.5756 0.00972 0.0
C2382 C 0.15198 0.55328 0.05987 0.0
C2383 C 0.17794 0.56104 0.05097 0.0
H2384 H 0.7472 0.94898 0.29409 0.0
H2385 H 0.68033 0.90544 0.33067 0.0
H2386 H 0.70298 0.85908 0.32565 0.0
H2387 H 0.74126 0.83049 0.31006 0.0
H2388 H 0.80707 0.87335 0.27143 0.0
H2389 H 0.78562 0.9202 0.27833 0.0
C2390 C 0.73759 0.92934 0.30092 0.0
C2391 C 0.71205 0.93076 0.31267 0.0
C2392 C 0.75066 0.90256 0.29778 0.0
C2393 C 0.69989 0.90505 0.32141 0.0
C2394 C 0.71289 0.87846 0.31865 0.0
C2395 C 0.7511 0.85012 0.30347 0.0
C2396 C 0.77584 0.84843 0.29045 0.0
C2397 C 0.73825 0.87692 0.30685 0.0
C2398 C 0.78806 0.87405 0.2816 0.0
C2399 C 0.77575 0.90086 0.28545 0.0
H2400 H 0.8898 0.09579 0.82894 0.0
H2401 H 0.84031 0.0584 0.76673 0.0
H2402 H 0.81347 0.10291 0.76261 0.0
H2403 H 0.80445 0.15243 0.77659 0.0
H2404 H 0.85271 0.18885 0.84028 0.0
H2405 H 0.87923 0.14438 0.84437 0.0
C2406 C 0.87333 0.09757 0.8143 0.0
C2407 C 0.86725 0.07419 0.79785 0.0
C2408 C 0.85749 0.12278 0.81264 0.0
C2409 C 0.84545 0.07634 0.77941 0.0
C2410 C 0.83005 0.10167 0.77716 0.0
C2411 C 0.82055 0.15054 0.79158 0.0
C2412 C 0.82662 0.17398 0.80805 0.0
C2413 C 0.83583 0.12497 0.79375 0.0
C2414 C 0.84752 0.17112 0.82739 0.0
C2415 C 0.86287 0.14578 0.82962 0.0
loop_
_geom_bond_atom_site_label_1
_geom_bond_atom_site_label_2
_geom_bond_distance
_geom_bond_site_symmetry_2
_ccdc_geom_bond_type
Co0 O1 2.216 . S
Co0 O2 2.091 . S
Co0 O4 2.004 . S
Co0 O10 2.021 . S
Co0 O12 2.137 . S
Co0 O13 2.244 . S
O1 Co0 2.216 . S
O1 C8 1.247 . S
O2 Co0 2.091 . S
O2 C8 1.261 . S
C3 O12 1.247 . S
C3 O13 1.272 . S
O4 Co0 2.004 . S
O4 C9 1.259 . S
Co5 O6 2.061 . S
Co5 O11 2.052 . S
Co5 O13 2.135 . S
O6 Co5 2.061 . S
O6 C9 1.235 . S
C7 O10 1.238 . S
C7 O11 1.241 . S
C8 O1 1.247 . S
C8 O2 1.261 . S
C9 O4 1.259 . S
C9 O6 1.235 . S
O10 Co0 2.021 . S
O10 C7 1.238 . S
O11 Co5 2.052 . S
O11 C7 1.241 . S
O12 Co0 2.137 . S
O12 C3 1.247 . S
O13 Co0 2.244 . S
O13 C3 1.272 . S
O13 Co5 2.135 . S
Co14 O15 2.216 . S
Co14 O16 2.091 . S
Co14 O18 2.004 . S
Co14 O24 2.021 . S
Co14 O26 2.137 . S
Co14 O27 2.244 . S
O15 Co14 2.216 . S
O15 C22 1.247 . S
O16 Co14 2.091 . S
O16 C22 1.261 . S
C17 O26 1.247 . S
C17 O27 1.272 . S
O18 Co14 2.004 . S
O18 C23 1.259 1_455 S
Co19 O20 2.061 . S
Co19 O25 2.052 1_655 S
Co19 O27 2.135 1_655 S
O20 Co19 2.061 . S
O20 C23 1.235 . S
C21 O24 1.238 . S
C21 O25 1.241 . S
C22 O15 1.247 . S
C22 O16 1.261 . S
C23 O18 1.259 1_655 S
C23 O20 1.235 . S
O24 Co14 2.021 . S
O24 C21 1.238 . S
O25 Co19 2.052 1_455 S
O25 C21 1.241 . S
O26 Co14 2.137 . S
O26 C17 1.247 . S
O27 Co14 2.244 . S
O27 C17 1.272 . S
O27 Co19 2.135 1_455 S
Co28 O29 2.216 . S
Co28 O30 2.091 . S
Co28 O32 2.004 . S
Co28 O38 2.021 . S
Co28 O40 2.137 . S
Co28 O41 2.244 . S
O29 Co28 2.216 . S
O29 C36 1.247 . S
O30 Co28 2.091 . S
O30 C36 1.261 . S
C31 O40 1.247 . S
C31 O41 1.272 . S
O32 Co28 2.004 . S
O32 C37 1.259 . S
Co33 O34 2.061 . S
Co33 O39 2.052 . S
Co33 O41 2.135 . S
O34 Co33 2.061 . S
O34 C37 1.235 . S
C35 O38 1.238 . S
C35 O39 1.241 . S
C36 O29 1.247 . S
C36 O30 1.261 . S
C37 O32 1.259 . S
C37 O34 1.235 . S
O38 Co28 2.021 . S
O38 C35 1.238 . S
O39 Co33 2.052 . S
O39 C35 1.241 . S
O40 Co28 2.137 . S
O40 C31 1.247 . S
O41 Co28 2.244 . S
O41 C31 1.272 . S
O41 Co33 2.135 . S
Co42 O43 2.216 . S
Co42 O44 2.091 . S
Co42 O46 2.004 . S
Co42 O52 2.021 . S
Co42 O54 2.137 . S
Co42 O55 2.244 . S
O43 Co42 2.216 . S
O43 C50 1.247 . S
O44 Co42 2.091 . S
O44 C50 1.261 . S
C45 O54 1.247 . S
C45 O55 1.272 . S
O46 Co42 2.004 . S
O46 C51 1.259 . S
Co47 O48 2.061 . S
Co47 O53 2.052 . S
Co47 O55 2.135 . S
O48 Co47 2.061 . S
O48 C51 1.235 . S
C49 O52 1.238 . S
C49 O53 1.241 . S
C50 O43 1.247 . S
C50 O44 1.261 . S
C51 O46 1.259 . S
C51 O48 1.235 . S
O52 Co42 2.021 . S
O52 C49 1.238 . S
O53 Co47 2.052 . S
O53 C49 1.241 . S
O54 Co42 2.137 . S
O54 C45 1.247 . S
O55 Co42 2.244 . S
O55 C45 1.272 . S
O55 Co47 2.135 . S
Co56 O57 2.216 1_545 S
Co56 O58 2.091 1_545 S
Co56 O60 2.004 . S
Co56 O66 2.021 . S
Co56 O68 2.137 . S
Co56 O69 2.244 . S
O57 Co56 2.216 1_565 S
O57 C64 1.247 . S
O58 Co56 2.091 1_565 S
O58 C64 1.261 . S
C59 O68 1.247 . S
C59 O69 1.272 . S
O60 Co56 2.004 . S
O60 C65 1.259 . S
Co61 O62 2.061 . S
Co61 O67 2.052 . S
Co61 O69 2.135 . S
O62 Co61 2.061 . S
O62 C65 1.235 . S
C63 O66 1.238 . S
C63 O67 1.241 . S
C64 O57 1.247 . S
C64 O58 1.261 . S
C65 O60 1.259 . S
C65 O62 1.235 . S
O66 Co56 2.021 . S
O66 C63 1.238 . S
O67 Co61 2.052 . S
O67 C63 1.241 . S
O68 Co56 2.137 . S
O68 C59 1.247 . S
O69 Co56 2.244 . S
O69 C59 1.272 . S
O69 Co61 2.135 . S
Co70 O71 2.216 . S
Co70 O72 2.091 . S
Co70 O74 2.004 . S
Co70 O80 2.021 . S
Co70 O82 2.137 . S
Co70 O83 2.244 . S
O71 Co70 2.216 . S
O71 C78 1.247 . S
O72 Co70 2.091 . S
O72 C78 1.261 . S
C73 O82 1.247 . S
C73 O83 1.272 . S
O74 Co70 2.004 . S
O74 C79 1.259 . S
Co75 O76 2.061 . S
Co75 O81 2.052 . S
Co75 O83 2.135 . S
O76 Co75 2.061 . S
O76 C79 1.235 . S
C77 O80 1.238 . S
C77 O81 1.241 . S
C78 O71 1.247 . S
C78 O72 1.261 . S
C79 O74 1.259 . S
C79 O76 1.235 . S
O80 Co70 2.021 . S
O80 C77 1.238 . S
O81 Co75 2.052 . S
O81 C77 1.241 . S
O82 Co70 2.137 . S
O82 C73 1.247 . S
O83 Co70 2.244 . S
O83 C73 1.272 . S
O83 Co75 2.135 . S
Co84 O85 2.216 . S
Co84 O86 2.091 . S
Co84 O88 2.004 1_545 S
Co84 O94 2.021 . S
Co84 O96 2.137 . S
Co84 O97 2.244 . S
O85 Co84 2.216 . S
O85 C92 1.247 . S
O86 Co84 2.091 . S
O86 C92 1.261 . S
C87 O96 1.247 . S
C87 O97 1.272 . S
O88 Co84 2.004 1_565 S
O88 C93 1.259 . S
Co89 O90 2.061 . S
Co89 O95 2.052 . S
Co89 O97 2.135 1_565 S
O90 Co89 2.061 . S
O90 C93 1.235 . S
C91 O94 1.238 . S
C91 O95 1.241 1_545 S
C92 O85 1.247 . S
C92 O86 1.261 . S
C93 O88 1.259 . S
C93 O90 1.235 . S
O94 Co84 2.021 . S
O94 C91 1.238 . S
O95 Co89 2.052 . S
O95 C91 1.241 1_565 S
O96 Co84 2.137 . S
O96 C87 1.247 . S
O97 Co84 2.244 . S
O97 C87 1.272 . S
O97 Co89 2.135 1_545 S
Co98 O99 2.216 . S
Co98 O100 2.091 . S
Co98 O102 2.004 . S
Co98 O108 2.021 . S
Co98 O110 2.137 1_554 S
Co98 O111 2.244 . S
O99 Co98 2.216 . S
O99 C106 1.247 . S
O100 Co98 2.091 . S
O100 C106 1.261 . S
C101 O110 1.247 . S
C101 O111 1.272 1_556 S
O102 Co98 2.004 . S
O102 C107 1.259 . S
Co103 O104 2.061 . S
Co103 O109 2.052 . S
Co103 O111 2.135 . S
O104 Co103 2.061 . S
O104 C107 1.235 . S
C105 O108 1.238 . S
C105 O109 1.241 . S
C106 O99 1.247 . S
C106 O100 1.261 . S
C107 O102 1.259 . S
C107 O104 1.235 . S
O108 Co98 2.021 . S
O108 C105 1.238 . S
O109 Co103 2.052 . S
O109 C105 1.241 . S
O110 Co98 2.137 1_556 S
O110 C101 1.247 . S
O111 Co98 2.244 . S
O111 C101 1.272 1_554 S
O111 Co103 2.135 . S
Co112 O113 2.216 . S
Co112 O114 2.091 . S
Co112 O116 2.004 . S
Co112 O122 2.021 . S
Co112 O124 2.137 . S
Co112 O125 2.244 . S
O113 Co112 2.216 . S
O113 C120 1.247 . S
O114 Co112 2.091 . S
O114 C120 1.261 . S
C115 O124 1.247 . S
C115 O125 1.272 . S
O116 Co112 2.004 . S
O116 C121 1.259 . S
Co117 O118 2.061 . S
Co117 O123 2.052 . S
Co117 O125 2.135 . S
O118 Co117 2.061 . S
O118 C121 1.235 . S
C119 O122 1.238 . S
C119 O123 1.241 . S
C120 O113 1.247 . S
C120 O114 1.261 . S
C121 O116 1.259 . S
C121 O118 1.235 . S
O122 Co112 2.021 . S
O122 C119 1.238 . S
O123 Co117 2.052 . S
O123 C119 1.241 . S
O124 Co112 2.137 . S
O124 C115 1.247 . S
O125 Co112 2.244 . S
O125 C115 1.272 . S
O125 Co117 2.135 . S
Co126 O127 2.216 . S
Co126 O128 2.091 . S
Co126 O130 2.004 . S
Co126 O136 2.021 . S
Co126 O138 2.137 . S
Co126 O139 2.244 . S
O127 Co126 2.216 . S
O127 C134 1.247 . S
O128 Co126 2.091 . S
O128 C134 1.261 . S
C129 O138 1.247 . S
C129 O139 1.272 . S
O130 Co126 2.004 . S
O130 C135 1.259 . S
Co131 O132 2.061 . S
Co131 O137 2.052 . S
Co131 O139 2.135 . S
O132 Co131 2.061 . S
O132 C135 1.235 . S
C133 O136 1.238 . S
C133 O137 1.241 . S
C134 O127 1.247 . S
C134 O128 1.261 . S
C135 O130 1.259 . S
C135 O132 1.235 . S
O136 Co126 2.021 . S
O136 C133 1.238 . S
O137 Co131 2.052 . S
O137 C133 1.241 . S
O138 Co126 2.137 . S
O138 C129 1.247 . S
O139 Co126 2.244 . S
O139 C129 1.272 . S
O139 Co131 2.135 . S
Co140 O141 2.216 . S
Co140 O142 2.091 . S
Co140 O144 2.004 . S
Co140 O150 2.021 . S
Co140 O152 2.137 . S
Co140 O153 2.244 . S
O141 Co140 2.216 . S
O141 C148 1.247 . S
O142 Co140 2.091 . S
O142 C148 1.261 . S
C143 O152 1.247 . S
C143 O153 1.272 . S
O144 Co140 2.004 . S
O144 C149 1.259 . S
Co145 O146 2.061 . S
Co145 O151 2.052 . S
Co145 O153 2.135 . S
O146 Co145 2.061 . S
O146 C149 1.235 . S
C147 O150 1.238 . S
C147 O151 1.241 . S
C148 O141 1.247 . S
C148 O142 1.261 . S
C149 O144 1.259 . S
C149 O146 1.235 . S
O150 Co140 2.021 . S
O150 C147 1.238 . S
O151 Co145 2.052 . S
O151 C147 1.241 . S
O152 Co140 2.137 . S
O152 C143 1.247 . S
O153 Co140 2.244 . S
O153 C143 1.272 . S
O153 Co145 2.135 . S
Co154 O155 2.216 . S
Co154 O156 2.091 . S
Co154 O158 2.004 . S
Co154 O164 2.021 . S
Co154 O166 2.137 . S
Co154 O167 2.244 . S
O155 Co154 2.216 . S
O155 C162 1.247 . S
O156 Co154 2.091 . S
O156 C162 1.261 . S
C157 O166 1.247 . S
C157 O167 1.272 . S
O158 Co154 2.004 . S
O158 C163 1.259 . S
Co159 O160 2.061 . S
Co159 O165 2.052 . S
Co159 O167 2.135 . S
O160 Co159 2.061 . S
O160 C163 1.235 . S
C161 O164 1.238 . S
C161 O165 1.241 . S
C162 O155 1.247 . S
C162 O156 1.261 . S
C163 O158 1.259 . S
C163 O160 1.235 . S
O164 Co154 2.021 . S
O164 C161 1.238 . S
O165 Co159 2.052 . S
O165 C161 1.241 . S
O166 Co154 2.137 . S
O166 C157 1.247 . S
O167 Co154 2.244 . S
O167 C157 1.272 . S
O167 Co159 2.135 . S
Co168 O169 2.216 . S
Co168 O170 2.091 . S
Co168 O172 2.004 1_455 S
Co168 O178 2.021 . S
Co168 O180 2.137 . S
Co168 O181 2.244 1_455 S
O169 Co168 2.216 . S
O169 C176 1.247 . S
O170 Co168 2.091 . S
O170 C176 1.261 . S
C171 O180 1.247 . S
C171 O181 1.271 1_455 S
O172 Co168 2.004 1_655 S
O172 C177 1.259 . S
Co173 O174 2.061 . S
Co173 O179 2.052 . S
Co173 O181 2.135 . S
O174 Co173 2.061 . S
O174 C177 1.235 . S
C175 O178 1.238 1_655 S
C175 O179 1.241 . S
C176 O169 1.247 . S
C176 O170 1.261 . S
C177 O172 1.259 . S
C177 O174 1.235 . S
O178 Co168 2.021 . S
O178 C175 1.238 1_455 S
O179 Co173 2.052 . S
O179 C175 1.241 . S
O180 Co168 2.137 . S
O180 C171 1.247 . S
O181 Co168 2.244 1_655 S
O181 C171 1.271 1_655 S
O181 Co173 2.135 . S
Co182 O183 2.216 1_455 S
Co182 O184 2.091 . S
Co182 O186 2.004 . S
Co182 O192 2.021 . S
Co182 O194 2.137 . S
Co182 O195 2.244 . S
O183 Co182 2.216 1_655 S
O183 C190 1.247 . S
O184 Co182 2.091 . S
O184 C190 1.261 1_455 S
C185 O194 1.247 . S
C185 O195 1.272 . S
O186 Co182 2.004 . S
O186 C191 1.259 . S
Co187 O188 2.061 . S
Co187 O193 2.052 . S
Co187 O195 2.135 . S
O188 Co187 2.061 . S
O188 C191 1.235 . S
C189 O192 1.238 . S
C189 O193 1.241 . S
C190 O183 1.247 . S
C190 O184 1.261 1_655 S
C191 O186 1.259 . S
C191 O188 1.235 . S
O192 Co182 2.021 . S
O192 C189 1.238 . S
O193 Co187 2.052 . S
O193 C189 1.241 . S
O194 Co182 2.137 . S
O194 C185 1.247 . S
O195 Co182 2.244 . S
O195 C185 1.272 . S
O195 Co187 2.135 . S
Co196 O197 2.216 . S
Co196 O198 2.091 . S
Co196 O200 2.004 . S
Co196 O206 2.021 . S
Co196 O208 2.137 . S
Co196 O209 2.244 . S
O197 Co196 2.216 . S
O197 C204 1.247 . S
O198 Co196 2.091 . S
O198 C204 1.261 . S
C199 O208 1.247 . S
C199 O209 1.272 . S
O200 Co196 2.004 . S
O200 C205 1.259 . S
Co201 O202 2.061 . S
Co201 O207 2.052 . S
Co201 O209 2.135 . S
O202 Co201 2.061 . S
O202 C205 1.235 . S
C203 O206 1.238 . S
C203 O207 1.241 . S
C204 O197 1.247 . S
C204 O198 1.261 . S
C205 O200 1.259 . S
C205 O202 1.235 . S
O206 Co196 2.021 . S
O206 C203 1.238 . S
O207 Co201 2.052 . S
O207 C203 1.241 . S
O208 Co196 2.137 . S
O208 C199 1.247 . S
O209 Co196 2.244 . S
O209 C199 1.272 . S
O209 Co201 2.135 . S
Co210 O211 2.216 . S
Co210 O212 2.091 . S
Co210 O214 2.004 . S
Co210 O220 2.021 . S
Co210 O222 2.137 . S
Co210 O223 2.244 . S
O211 Co210 2.216 . S
O211 C218 1.247 . S
O212 Co210 2.091 . S
O212 C218 1.261 . S
C213 O222 1.247 . S
C213 O223 1.272 . S
O214 Co210 2.004 . S
O214 C219 1.259 . S
Co215 O216 2.061 . S
Co215 O221 2.052 . S
Co215 O223 2.135 . S
O216 Co215 2.061 . S
O216 C219 1.235 . S
C217 O220 1.238 . S
C217 O221 1.241 . S
C218 O211 1.247 . S
C218 O212 1.261 . S
C219 O214 1.259 . S
C219 O216 1.235 . S
O220 Co210 2.021 . S
O220 C217 1.238 . S
O221 Co215 2.052 . S
O221 C217 1.241 . S
O222 Co210 2.137 . S
O222 C213 1.247 . S
O223 Co210 2.244 . S
O223 C213 1.272 . S
O223 Co215 2.135 . S
Co224 O225 2.216 . S
Co224 O226 2.091 . S
Co224 O228 2.004 1_545 S
Co224 O234 2.021 . S
Co224 O236 2.137 . S
Co224 O237 2.244 1_545 S
O225 Co224 2.216 . S
O225 C232 1.247 . S
O226 Co224 2.091 . S
O226 C232 1.261 . S
C227 O236 1.247 . S
C227 O237 1.272 1_545 S
O228 Co224 2.004 1_565 S
O228 C233 1.259 . S
Co229 O230 2.061 . S
Co229 O235 2.052 . S
Co229 O237 2.135 . S
O230 Co229 2.061 . S
O230 C233 1.235 . S
C231 O234 1.249 . S
C231 O235 1.223 1_545 S
C232 O225 1.247 . S
C232 O226 1.261 . S
C233 O228 1.259 . S
C233 O230 1.235 . S
O234 Co224 2.021 . S
O234 C231 1.249 . S
O235 Co229 2.052 . S
O235 C231 1.223 1_565 S
O236 Co224 2.137 . S
O236 C227 1.247 . S
O237 Co224 2.244 1_565 S
O237 C227 1.272 1_565 S
O237 Co229 2.135 . S
Co238 O239 2.216 . S
Co238 O240 2.091 . S
Co238 O242 2.004 . S
Co238 O248 2.021 . S
Co238 O250 2.137 . S
Co238 O251 2.244 . S
O239 Co238 2.216 . S
O239 C246 1.247 . S
O240 Co238 2.091 . S
O240 C246 1.261 . S
C241 O250 1.247 . S
C241 O251 1.272 . S
O242 Co238 2.004 . S
O242 C247 1.259 . S
Co243 O244 2.061 . S
Co243 O249 2.052 . S
Co243 O251 2.135 . S
O244 Co243 2.061 . S
O244 C247 1.235 . S
C245 O248 1.238 . S
C245 O249 1.241 . S
C246 O239 1.247 . S
C246 O240 1.261 . S
C247 O242 1.259 . S
C247 O244 1.235 . S
O248 Co238 2.021 . S
O248 C245 1.238 . S
O249 Co243 2.052 . S
O249 C245 1.241 . S
O250 Co238 2.137 . S
O250 C241 1.247 . S
O251 Co238 2.244 . S
O251 C241 1.272 . S
O251 Co243 2.135 . S
Co252 O253 2.216 1_545 S
Co252 O254 2.091 1_545 S
Co252 O256 2.004 . S
Co252 O262 2.021 . S
Co252 O264 2.137 . S
Co252 O265 2.244 . S
O253 Co252 2.216 1_565 S
O253 C260 1.247 . S
O254 Co252 2.091 1_565 S
O254 C260 1.261 . S
C255 O264 1.247 . S
C255 O265 1.272 . S
O256 Co252 2.004 . S
O256 C261 1.259 . S
Co257 O258 2.061 . S
Co257 O263 2.052 . S
Co257 O265 2.135 . S
O258 Co257 2.061 . S
O258 C261 1.235 . S
C259 O262 1.238 . S
C259 O263 1.241 . S
C260 O253 1.247 . S
C260 O254 1.261 . S
C261 O256 1.259 . S
C261 O258 1.235 . S
O262 Co252 2.021 . S
O262 C259 1.238 . S
O263 Co257 2.052 . S
O263 C259 1.241 . S
O264 Co252 2.137 . S
O264 C255 1.247 . S
O265 Co252 2.244 . S
O265 C255 1.272 . S
O265 Co257 2.135 . S
Co266 O267 2.216 . S
Co266 O268 2.091 . S
Co266 O270 2.004 . S
Co266 O276 2.021 . S
Co266 O278 2.137 1_554 S
Co266 O279 2.244 . S
O267 Co266 2.216 . S
O267 C274 1.247 . S
O268 Co266 2.091 . S
O268 C274 1.261 . S
C269 O278 1.247 . S
C269 O279 1.272 1_556 S
O270 Co266 2.004 . S
O270 C275 1.259 . S
Co271 O272 2.061 . S
Co271 O277 2.052 . S
Co271 O279 2.135 . S
O272 Co271 2.061 . S
O272 C275 1.235 . S
C273 O276 1.238 . S
C273 O277 1.241 . S
C274 O267 1.247 . S
C274 O268 1.261 . S
C275 O270 1.259 . S
C275 O272 1.235 . S
O276 Co266 2.021 . S
O276 C273 1.238 . S
O277 Co271 2.052 . S
O277 C273 1.241 . S
O278 Co266 2.137 1_556 S
O278 C269 1.247 . S
O279 Co266 2.244 . S
O279 C269 1.272 1_554 S
O279 Co271 2.135 . S
Co280 O281 2.216 . S
Co280 O282 2.091 1_556 S
Co280 O284 2.004 . S
Co280 O290 2.021 1_556 S
Co280 O292 2.137 . S
Co280 O293 2.244 . S
O281 Co280 2.216 . S
O281 C288 1.247 1_556 S
O282 Co280 2.091 1_554 S
O282 C288 1.261 . S
C283 O292 1.247 . S
C283 O293 1.272 . S
O284 Co280 2.004 . S
O284 C289 1.259 . S
Co285 O286 2.061 1_556 S
Co285 O291 2.052 1_556 S
Co285 O293 2.135 . S
O286 Co285 2.061 1_554 S
O286 C289 1.234 1_554 S
C287 O290 1.238 . S
C287 O291 1.241 . S
C288 O281 1.247 1_554 S
C288 O282 1.261 . S
C289 O284 1.259 . S
C289 O286 1.234 1_556 S
O290 Co280 2.021 1_554 S
O290 C287 1.238 . S
O291 Co285 2.052 1_554 S
O291 C287 1.241 . S
O292 Co280 2.137 . S
O292 C283 1.247 . S
O293 Co280 2.244 . S
O293 C283 1.272 . S
O293 Co285 2.135 . S
Co294 O295 2.216 . S
Co294 O296 2.091 . S
Co294 O298 2.004 . S
Co294 O304 2.021 . S
Co294 O306 2.137 . S
Co294 O307 2.244 . S
O295 Co294 2.216 . S
O295 C302 1.247 . S
O296 Co294 2.091 . S
O296 C302 1.261 . S
C297 O306 1.247 . S
C297 O307 1.272 . S
O298 Co294 2.004 . S
O298 C303 1.259 . S
Co299 O300 2.061 . S
Co299 O305 2.052 . S
Co299 O307 2.135 . S
O300 Co299 2.061 . S
O300 C303 1.235 . S
C301 O304 1.238 . S
C301 O305 1.241 . S
C302 O295 1.247 . S
C302 O296 1.261 . S
C303 O298 1.259 . S
C303 O300 1.235 . S
O304 Co294 2.021 . S
O304 C301 1.238 . S
O305 Co299 2.052 . S
O305 C301 1.241 . S
O306 Co294 2.137 . S
O306 C297 1.247 . S
O307 Co294 2.244 . S
O307 C297 1.272 . S
O307 Co299 2.135 . S
Co308 O309 2.216 . S
Co308 O310 2.091 . S
Co308 O312 2.004 . S
Co308 O318 2.021 . S
Co308 O320 2.137 . S
Co308 O321 2.244 . S
O309 Co308 2.216 . S
O309 C316 1.247 . S
O310 Co308 2.091 . S
O310 C316 1.261 . S
C311 O320 1.247 . S
C311 O321 1.272 . S
O312 Co308 2.004 . S
O312 C317 1.259 . S
Co313 O314 2.061 . S
Co313 O319 2.052 . S
Co313 O321 2.135 . S
O314 Co313 2.061 . S
O314 C317 1.235 . S
C315 O318 1.238 . S
C315 O319 1.241 . S
C316 O309 1.247 . S
C316 O310 1.261 . S
C317 O312 1.259 . S
C317 O314 1.235 . S
O318 Co308 2.021 . S
O318 C315 1.238 . S
O319 Co313 2.052 . S
O319 C315 1.241 . S
O320 Co308 2.137 . S
O320 C311 1.247 . S
O321 Co308 2.244 . S
O321 C311 1.272 . S
O321 Co313 2.135 . S
Co322 O323 2.216 . S
Co322 O324 2.091 . S
Co322 O326 2.004 . S
Co322 O332 2.021 . S
Co322 O334 2.137 . S
Co322 O335 2.244 . S
O323 Co322 2.216 . S
O323 C330 1.247 . S
O324 Co322 2.091 . S
O324 C330 1.261 . S
C325 O334 1.247 . S
C325 O335 1.272 . S
O326 Co322 2.004 . S
O326 C331 1.259 . S
Co327 O328 2.061 . S
Co327 O333 2.052 . S
Co327 O335 2.135 . S
O328 Co327 2.061 . S
O328 C331 1.235 . S
C329 O332 1.238 . S
C329 O333 1.241 . S
C330 O323 1.247 . S
C330 O324 1.261 . S
C331 O326 1.259 . S
C331 O328 1.235 . S
O332 Co322 2.021 . S
O332 C329 1.238 . S
O333 Co327 2.052 . S
O333 C329 1.241 . S
O334 Co322 2.137 . S
O334 C325 1.247 . S
O335 Co322 2.244 . S
O335 C325 1.272 . S
O335 Co327 2.135 . S
C336 O352 1.255 1_455 S
C336 O354 1.254 . S
N337 C338 1.333 1_565 S
N337 C342 1.307 . S
N337 Zn343 2.020 1_665 S
C338 N337 1.333 1_545 S
C338 C339 1.379 . S
C338 H356 0.952 . S
C339 C338 1.379 . S
C339 C340 1.390 1_545 S
C339 H366 0.949 . S
C340 C339 1.390 1_565 S
C340 C341 1.357 . S
C341 C340 1.357 . S
C341 C342 1.370 . S
C341 H367 0.950 . S
C342 N337 1.307 . S
C342 C341 1.370 . S
C342 H360 0.948 . S
Zn343 N337 2.020 1_445 S
Zn343 O352 2.034 1_454 S
Zn343 O358 2.034 . S
Zn343 O362 2.025 1_545 S
Zn343 O364 2.024 1_545 S
C344 O363 1.246 . S
C344 O364 1.249 . S
N345 C346 1.307 1_554 S
N345 C347 1.333 . S
N345 Zn351 2.020 . S
C346 N345 1.307 1_556 S
C346 C350 1.370 . S
C346 H357 0.948 . S
C347 N345 1.333 . S
C347 C348 1.379 . S
C347 H355 0.952 . S
C348 C347 1.379 . S
C348 C349 1.390 . S
C348 H368 0.949 . S
C349 C348 1.390 . S
C349 C350 1.357 1_554 S
C350 C346 1.370 . S
C350 C349 1.357 1_556 S
C350 H369 0.950 . S
Zn351 N345 2.020 . S
Zn351 O354 2.025 1_554 S
Zn351 O359 2.024 . S
Zn351 O361 2.039 . S
Zn351 O363 2.034 1_545 S
O352 C336 1.255 1_655 S
O352 Zn343 2.034 1_656 S
C353 O358 1.246 . S
C353 O359 1.249 . S
O354 C336 1.254 . S
O354 Zn351 2.025 1_556 S
H355 C347 0.952 . S
H356 C338 0.952 . S
H357 C346 0.948 . S
O358 Zn343 2.034 . S
O358 C353 1.246 . S
O359 Zn351 2.024 . S
O359 C353 1.249 . S
H360 C342 0.948 . S
O361 Zn351 2.039 . S
O361 C365 1.251 1_545 S
O362 Zn343 2.025 1_565 S
O362 C365 1.254 . S
O363 C344 1.246 . S
O363 Zn351 2.034 1_565 S
O364 Zn343 2.024 1_565 S
O364 C344 1.249 . S
C365 O361 1.251 1_565 S
C365 O362 1.254 . S
H366 C339 0.949 . S
H367 C341 0.950 . S
H368 C348 0.949 . S
H369 C350 0.950 . S
C370 O386 1.251 . S
C370 O388 1.254 . S
N371 C372 1.333 . S
N371 C376 1.307 . S
N371 Zn377 2.020 . S
C372 N371 1.333 . S
C372 C373 1.379 . S
C372 H390 0.952 . S
C373 C372 1.379 . S
C373 C374 1.390 . S
C373 H400 0.949 . S
C374 C373 1.390 . S
C374 C375 1.357 . S
C375 C374 1.357 . S
C375 C376 1.370 . S
C375 H401 0.950 . S
C376 N371 1.307 . S
C376 C375 1.370 . S
C376 H394 0.948 . S
Zn377 N371 2.020 . S
Zn377 O386 2.039 . S
Zn377 O392 2.034 . S
Zn377 O396 2.025 . S
Zn377 O398 2.024 . S
C378 O397 1.246 . S
C378 O398 1.249 . S
N379 C380 1.307 . S
N379 C381 1.333 . S
N379 Zn385 2.020 . S
C380 N379 1.307 . S
C380 C384 1.370 . S
C380 H391 0.948 . S
C381 N379 1.333 . S
C381 C382 1.379 . S
C381 H389 0.952 . S
C382 C381 1.379 . S
C382 C383 1.390 . S
C382 H402 0.949 . S
C383 C382 1.390 . S
C383 C384 1.357 . S
C384 C380 1.370 . S
C384 C383 1.357 . S
C384 H403 0.950 . S
Zn385 N379 2.020 . S
Zn385 O388 2.025 . S
Zn385 O393 2.024 . S
Zn385 O395 2.039 . S
Zn385 O397 2.034 . S
O386 C370 1.251 . S
O386 Zn377 2.039 . S
C387 O392 1.246 . S
C387 O393 1.249 . S
O388 C370 1.254 . S
O388 Zn385 2.025 . S
H389 C381 0.952 . S
H390 C372 0.952 . S
H391 C380 0.948 . S
O392 Zn377 2.034 . S
O392 C387 1.246 . S
O393 Zn385 2.024 . S
O393 C387 1.249 . S
H394 C376 0.948 . S
O395 Zn385 2.039 . S
O395 C399 1.251 . S
O396 Zn377 2.025 . S
O396 C399 1.254 . S
O397 C378 1.246 . S
O397 Zn385 2.034 . S
O398 Zn377 2.024 . S
O398 C378 1.249 . S
C399 O395 1.251 . S
C399 O396 1.254 . S
H400 C373 0.949 . S
H401 C375 0.950 . S
H402 C382 0.949 . S
H403 C384 0.950 . S
C404 O420 1.284 . S
C404 O422 1.254 . S
N405 C406 1.333 . S
N405 C410 1.307 . S
N405 Zn411 2.020 . S
C406 N405 1.333 . S
C406 C407 1.379 . S
C406 H424 0.952 . S
C407 C406 1.379 . S
C407 C408 1.390 . S
C407 H434 0.949 . S
C408 C407 1.390 . S
C408 C409 1.357 . S
C409 C408 1.357 . S
C409 C410 1.370 . S
C409 H435 0.950 . S
C410 N405 1.307 . S
C410 C409 1.370 . S
C410 H428 0.948 . S
Zn411 N405 2.020 . S
Zn411 O420 2.026 1_565 S
Zn411 O426 2.034 1_565 S
Zn411 O430 2.025 . S
Zn411 O432 2.024 . S
C412 O431 1.246 1_565 S
C412 O432 1.249 . S
N413 C414 1.307 . S
N413 C415 1.333 . S
N413 Zn419 2.020 . S
C414 N413 1.307 . S
C414 C418 1.370 . S
C414 H425 0.948 . S
C415 N413 1.333 . S
C415 C416 1.379 . S
C415 H423 0.952 . S
C416 C415 1.379 . S
C416 C417 1.390 . S
C416 H436 0.949 . S
C417 C416 1.390 . S
C417 C418 1.357 . S
C418 C414 1.370 . S
C418 C417 1.357 . S
C418 H437 0.950 . S
Zn419 N413 2.020 . S
Zn419 O422 2.025 . S
Zn419 O427 2.024 . S
Zn419 O429 2.039 . S
Zn419 O431 2.034 . S
O420 C404 1.284 . S
O420 Zn411 2.026 1_545 S
C421 O426 1.246 . S
C421 O427 1.249 . S
O422 C404 1.254 . S
O422 Zn419 2.025 . S
H423 C415 0.952 . S
H424 C406 0.952 . S
H425 C414 0.948 . S
O426 Zn411 2.034 1_545 S
O426 C421 1.246 . S
O427 Zn419 2.024 . S
O427 C421 1.249 . S
H428 C410 0.948 . S
O429 Zn419 2.039 . S
O429 C433 1.251 . S
O430 Zn411 2.025 . S
O430 C433 1.254 1_565 S
O431 C412 1.246 1_545 S
O431 Zn419 2.034 . S
O432 Zn411 2.024 . S
O432 C412 1.249 . S
C433 O429 1.251 . S
C433 O430 1.254 1_545 S
H434 C407 0.949 . S
H435 C409 0.950 . S
H436 C416 0.949 . S
H437 C418 0.950 . S
C438 O454 1.251 . S
C438 O456 1.254 . S
N439 C440 1.333 . S
N439 C444 1.307 . S
N439 Zn445 2.020 . S
C440 N439 1.333 . S
C440 C441 1.379 . S
C440 H458 0.952 . S
C441 C440 1.379 . S
C441 C442 1.390 . S
C441 H468 0.949 . S
C442 C441 1.390 . S
C442 C443 1.357 . S
C443 C442 1.357 . S
C443 C444 1.370 . S
C443 H469 0.950 . S
C444 N439 1.307 . S
C444 C443 1.370 . S
C444 H462 0.948 . S
Zn445 N439 2.020 . S
Zn445 O454 2.039 . S
Zn445 O460 2.034 . S
Zn445 O464 2.025 . S
Zn445 O466 2.024 . S
C446 O465 1.246 . S
C446 O466 1.249 . S
N447 C448 1.307 . S
N447 C449 1.333 . S
N447 Zn453 2.020 . S
C448 N447 1.307 . S
C448 C452 1.370 . S
C448 H459 0.948 . S
C449 N447 1.333 . S
C449 C450 1.379 . S
C449 H457 0.952 . S
C450 C449 1.379 . S
C450 C451 1.390 . S
C450 H470 0.949 . S
C451 C450 1.390 . S
C451 C452 1.357 . S
C452 C448 1.370 . S
C452 C451 1.357 . S
C452 H471 0.950 . S
Zn453 N447 2.020 . S
Zn453 O456 2.025 . S
Zn453 O461 2.024 . S
Zn453 O463 2.039 . S
Zn453 O465 2.034 . S
O454 C438 1.251 . S
O454 Zn445 2.039 . S
C455 O460 1.246 . S
C455 O461 1.249 . S
O456 C438 1.254 . S
O456 Zn453 2.025 . S
H457 C449 0.952 . S
H458 C440 0.952 . S
H459 C448 0.948 . S
O460 Zn445 2.034 . S
O460 C455 1.246 . S
O461 Zn453 2.024 . S
O461 C455 1.249 . S
H462 C444 0.948 . S
O463 Zn453 2.039 . S
O463 C467 1.251 . S
O464 Zn445 2.025 . S
O464 C467 1.254 . S
O465 C446 1.246 . S
O465 Zn453 2.034 . S
O466 Zn445 2.024 . S
O466 C446 1.249 . S
C467 O463 1.251 . S
C467 O464 1.254 . S
H468 C441 0.949 . S
H469 C443 0.950 . S
H470 C450 0.949 . S
H471 C452 0.950 . S
C472 O488 1.251 1_565 S
C472 O490 1.254 . S
N473 C474 1.333 . S
N473 C478 1.307 . S
N473 Zn479 2.020 . S
C474 N473 1.333 . S
C474 C475 1.379 . S
C474 H492 0.952 . S
C475 C474 1.379 . S
C475 C476 1.390 . S
C475 H502 0.949 . S
C476 C475 1.390 . S
C476 C477 1.357 . S
C477 C476 1.357 . S
C477 C478 1.370 . S
C477 H503 0.950 . S
C478 N473 1.307 . S
C478 C477 1.370 . S
C478 H496 0.948 . S
Zn479 N473 2.020 . S
Zn479 O488 2.039 . S
Zn479 O494 2.034 . S
Zn479 O498 2.025 . S
Zn479 O500 2.024 1_545 S
C480 O499 1.246 . S
C480 O500 1.249 . S
N481 C482 1.307 . S
N481 C483 1.333 1_455 S
N481 Zn487 2.020 1_565 S
C482 N481 1.307 . S
C482 C486 1.370 . S
C482 H493 0.955 . S
C483 N481 1.333 1_655 S
C483 C484 1.379 . S
C483 H491 0.952 . S
C484 C483 1.379 . S
C484 C485 1.390 . S
C484 H504 0.949 . S
C485 C484 1.390 . S
C485 C486 1.357 1_655 S
C486 C482 1.370 . S
C486 C485 1.357 1_455 S
C486 H505 0.950 . S
Zn487 N481 2.020 1_545 S
Zn487 O490 2.025 1_545 S
Zn487 O495 2.024 . S
Zn487 O497 2.039 1_455 S
Zn487 O499 2.034 1_545 S
O488 C472 1.251 1_545 S
O488 Zn479 2.039 . S
C489 O494 1.246 . S
C489 O495 1.249 . S
O490 C472 1.254 . S
O490 Zn487 2.025 1_565 S
H491 C483 0.952 . S
H492 C474 0.952 . S
H493 C482 0.955 . S
O494 Zn479 2.034 . S
O494 C489 1.246 . S
O495 Zn487 2.024 . S
O495 C489 1.249 . S
H496 C478 0.948 . S
O497 Zn487 2.039 1_655 S
O497 C501 1.251 . S
O498 Zn479 2.025 . S
O498 C501 1.254 1_455 S
O499 C480 1.246 . S
O499 Zn487 2.034 1_565 S
O500 Zn479 2.024 1_565 S
O500 C480 1.249 . S
C501 O497 1.251 . S
C501 O498 1.254 1_655 S
H502 C475 0.949 . S
H503 C477 0.950 . S
H504 C484 0.949 . S
H505 C486 0.950 . S
C506 O522 1.251 . S
C506 O524 1.254 . S
N507 C508 1.333 . S
N507 C512 1.307 . S
N507 Zn513 2.020 . S
C508 N507 1.333 . S
C508 C509 1.379 . S
C508 H526 0.952 . S
C509 C508 1.379 . S
C509 C510 1.390 . S
C509 H536 0.949 . S
C510 C509 1.390 . S
C510 C511 1.357 . S
C511 C510 1.357 . S
C511 C512 1.370 . S
C511 H537 0.950 . S
C512 N507 1.307 . S
C512 C511 1.370 . S
C512 H530 0.948 . S
Zn513 N507 2.020 . S
Zn513 O522 2.039 . S
Zn513 O528 2.034 . S
Zn513 O532 2.025 . S
Zn513 O534 2.024 . S
C514 O533 1.246 . S
C514 O534 1.249 . S
N515 C516 1.307 . S
N515 C517 1.333 . S
N515 Zn521 2.020 . S
C516 N515 1.307 . S
C516 C520 1.370 . S
C516 H527 0.948 . S
C517 N515 1.333 . S
C517 C518 1.379 . S
C517 H525 0.952 . S
C518 C517 1.379 . S
C518 C519 1.390 . S
C518 H538 0.949 . S
C519 C518 1.390 . S
C519 C520 1.357 . S
C520 C516 1.370 . S
C520 C519 1.357 . S
C520 H539 0.950 . S
Zn521 N515 2.020 . S
Zn521 O524 2.025 . S
Zn521 O529 2.024 . S
Zn521 O531 2.039 . S
Zn521 O533 2.034 . S
O522 C506 1.251 . S
O522 Zn513 2.039 . S
C523 O528 1.246 . S
C523 O529 1.249 . S
O524 C506 1.254 . S
O524 Zn521 2.025 . S
H525 C517 0.952 . S
H526 C508 0.952 . S
H527 C516 0.948 . S
O528 Zn513 2.034 . S
O528 C523 1.246 . S
O529 Zn521 2.024 . S
O529 C523 1.249 . S
H530 C512 0.948 . S
O531 Zn521 2.039 . S
O531 C535 1.251 . S
O532 Zn513 2.025 . S
O532 C535 1.254 . S
O533 C514 1.246 . S
O533 Zn521 2.034 . S
O534 Zn513 2.024 . S
O534 C514 1.249 . S
C535 O531 1.251 . S
C535 O532 1.254 . S
H536 C509 0.949 . S
H537 C511 0.950 . S
H538 C518 0.949 . S
H539 C520 0.950 . S
C540 O556 1.251 . S
C540 O558 1.254 . S
N541 C542 1.333 . S
N541 C546 1.307 . S
N541 Zn547 2.020 . S
C542 N541 1.333 . S
C542 C543 1.379 . S
C542 H560 0.952 . S
C543 C542 1.379 . S
C543 C544 1.390 . S
C543 H570 0.949 . S
C544 C543 1.390 . S
C544 C545 1.357 . S
C545 C544 1.357 . S
C545 C546 1.370 . S
C545 H571 0.950 . S
C546 N541 1.307 . S
C546 C545 1.370 . S
C546 H564 0.948 . S
Zn547 N541 2.020 . S
Zn547 O556 2.039 1_545 S
Zn547 O562 2.034 . S
Zn547 O566 2.025 . S
Zn547 O568 2.024 . S
C548 O567 1.246 . S
C548 O568 1.249 1_565 S
N549 C550 1.307 . S
N549 C551 1.333 1_565 S
N549 Zn555 2.020 1_566 S
C550 N549 1.307 . S
C550 C554 1.370 . S
C550 H561 0.948 . S
C551 N549 1.333 1_545 S
C551 C552 1.379 . S
C551 H559 0.952 . S
C552 C551 1.379 . S
C552 C553 1.393 1_545 S
C552 H572 0.947 . S
C553 C552 1.393 1_565 S
C553 C554 1.357 . S
C554 C550 1.370 . S
C554 C553 1.357 . S
C554 H573 0.950 . S
Zn555 N549 2.020 1_544 S
Zn555 O558 2.025 1_545 S
Zn555 O563 2.024 . S
Zn555 O565 2.039 1_554 S
Zn555 O567 2.034 1_545 S
O556 C540 1.251 . S
O556 Zn547 2.039 1_565 S
C557 O562 1.246 . S
C557 O563 1.249 . S
O558 C540 1.254 . S
O558 Zn555 2.025 1_565 S
H559 C551 0.952 . S
H560 C542 0.952 . S
H561 C550 0.948 . S
O562 Zn547 2.034 . S
O562 C557 1.246 . S
O563 Zn555 2.024 . S
O563 C557 1.249 . S
H564 C546 0.948 . S
O565 Zn555 2.039 1_556 S
O565 C569 1.251 1_556 S
O566 Zn547 2.025 . S
O566 C569 1.254 . S
O567 C548 1.246 . S
O567 Zn555 2.034 1_565 S
O568 Zn547 2.024 . S
O568 C548 1.249 1_545 S
C569 O565 1.251 1_554 S
C569 O566 1.254 . S
H570 C543 0.949 . S
H571 C545 0.950 . S
H572 C552 0.947 . S
H573 C554 0.950 . S
C574 O590 1.251 . S
C574 O592 1.254 . S
N575 C576 1.333 . S
N575 C580 1.307 . S
N575 Zn581 2.020 . S
C576 N575 1.333 . S
C576 C577 1.379 . S
C576 H594 0.952 . S
C577 C576 1.379 . S
C577 C578 1.390 . S
C577 H604 0.949 . S
C578 C577 1.390 . S
C578 C579 1.357 . S
C579 C578 1.357 . S
C579 C580 1.370 . S
C579 H605 0.950 . S
C580 N575 1.307 . S
C580 C579 1.370 . S
C580 H598 0.948 . S
Zn581 N575 2.020 . S
Zn581 O590 2.039 . S
Zn581 O596 2.034 . S
Zn581 O600 2.025 . S
Zn581 O602 2.024 . S
C582 O601 1.246 . S
C582 O602 1.249 . S
N583 C584 1.307 . S
N583 C585 1.333 . S
N583 Zn589 2.020 . S
C584 N583 1.307 . S
C584 C588 1.370 . S
C584 H595 0.948 . S
C585 N583 1.333 . S
C585 C586 1.379 . S
C585 H593 0.952 . S
C586 C585 1.379 . S
C586 C587 1.390 . S
C586 H606 0.949 . S
C587 C586 1.390 . S
C587 C588 1.357 . S
C588 C584 1.370 . S
C588 C587 1.357 . S
C588 H607 0.950 . S
Zn589 N583 2.020 . S
Zn589 O592 2.025 . S
Zn589 O597 2.024 . S
Zn589 O599 2.039 . S
Zn589 O601 2.034 . S
O590 C574 1.251 . S
O590 Zn581 2.039 . S
C591 O596 1.246 . S
C591 O597 1.249 . S
O592 C574 1.254 . S
O592 Zn589 2.025 . S
H593 C585 0.952 . S
H594 C576 0.952 . S
H595 C584 0.948 . S
O596 Zn581 2.034 . S
O596 C591 1.246 . S
O597 Zn589 2.024 . S
O597 C591 1.249 . S
H598 C580 0.948 . S
O599 Zn589 2.039 . S
O599 C603 1.251 . S
O600 Zn581 2.025 . S
O600 C603 1.254 . S
O601 C582 1.246 . S
O601 Zn589 2.034 . S
O602 Zn581 2.024 . S
O602 C582 1.249 . S
C603 O599 1.251 . S
C603 O600 1.254 . S
H604 C577 0.949 . S
H605 C579 0.950 . S
H606 C586 0.949 . S
H607 C588 0.950 . S
C608 O624 1.251 . S
C608 O626 1.254 . S
N609 C610 1.333 . S
N609 C614 1.307 . S
N609 Zn615 2.020 1_556 S
C610 N609 1.333 . S
C610 C611 1.379 . S
C610 H628 0.952 . S
C611 C610 1.379 . S
C611 C612 1.390 . S
C611 H638 0.949 . S
C612 C611 1.390 . S
C612 C613 1.357 . S
C613 C612 1.357 . S
C613 C614 1.370 . S
C613 H639 0.950 . S
C614 N609 1.307 . S
C614 C613 1.370 . S
C614 H632 0.948 . S
Zn615 N609 2.020 1_554 S
Zn615 O624 2.039 . S
Zn615 O630 2.034 . S
Zn615 O634 2.026 . S
Zn615 O636 2.024 1_554 S
C616 O635 1.246 . S
C616 O636 1.249 1_554 S
N617 C618 1.307 . S
N617 C619 1.333 . S
N617 Zn623 2.020 . S
C618 N617 1.307 . S
C618 C622 1.370 . S
C618 H629 0.948 . S
C619 N617 1.333 . S
C619 C620 1.379 . S
C619 H627 0.952 . S
C620 C619 1.379 . S
C620 C621 1.390 . S
C620 H640 0.949 . S
C621 C620 1.390 . S
C621 C622 1.357 . S
C622 C618 1.370 . S
C622 C621 1.357 . S
C622 H641 0.950 . S
Zn623 N617 2.020 . S
Zn623 O626 2.025 . S
Zn623 O631 2.024 . S
Zn623 O633 2.039 . S
Zn623 O635 2.034 . S
O624 C608 1.251 . S
O624 Zn615 2.039 . S
C625 O630 1.246 . S
C625 O631 1.249 . S
O626 C608 1.254 . S
O626 Zn623 2.025 . S
H627 C619 0.952 . S
H628 C610 0.952 . S
H629 C618 0.948 . S
O630 Zn615 2.034 . S
O630 C625 1.246 . S
O631 Zn623 2.024 . S
O631 C625 1.249 . S
H632 C614 0.948 . S
O633 Zn623 2.039 . S
O633 C637 1.251 . S
O634 Zn615 2.026 . S
O634 C637 1.268 . S
O635 C616 1.246 . S
O635 Zn623 2.034 . S
O636 Zn615 2.024 1_556 S
O636 C616 1.249 1_556 S
C637 O633 1.251 . S
C637 O634 1.268 . S
H638 C611 0.949 . S
H639 C613 0.950 . S
H640 C620 0.949 . S
H641 C622 0.950 . S
C642 O658 1.251 . S
C642 O660 1.254 . S
N643 C644 1.333 . S
N643 C648 1.307 . S
N643 Zn649 2.020 . S
C644 N643 1.333 . S
C644 C645 1.379 . S
C644 H662 0.952 . S
C645 C644 1.379 . S
C645 C646 1.390 . S
C645 H672 0.949 . S
C646 C645 1.390 . S
C646 C647 1.357 . S
C647 C646 1.357 . S
C647 C648 1.370 . S
C647 H673 0.950 . S
C648 N643 1.307 . S
C648 C647 1.370 . S
C648 H666 0.948 . S
Zn649 N643 2.020 . S
Zn649 O658 2.039 . S
Zn649 O664 2.034 . S
Zn649 O668 2.025 . S
Zn649 O670 2.024 . S
C650 O669 1.246 . S
C650 O670 1.249 . S
N651 C652 1.307 . S
N651 C653 1.333 . S
N651 Zn657 2.020 . S
C652 N651 1.307 . S
C652 C656 1.370 . S
C652 H663 0.948 . S
C653 N651 1.333 . S
C653 C654 1.379 . S
C653 H661 0.952 . S
C654 C653 1.379 . S
C654 C655 1.390 . S
C654 H674 0.949 . S
C655 C654 1.390 . S
C655 C656 1.357 . S
C656 C652 1.370 . S
C656 C655 1.357 . S
C656 H675 0.950 . S
Zn657 N651 2.020 . S
Zn657 O660 2.025 . S
Zn657 O665 2.024 . S
Zn657 O667 2.039 . S
Zn657 O669 2.034 . S
O658 C642 1.251 . S
O658 Zn649 2.039 . S
C659 O664 1.246 . S
C659 O665 1.249 . S
O660 C642 1.254 . S
O660 Zn657 2.025 . S
H661 C653 0.952 . S
H662 C644 0.952 . S
H663 C652 0.948 . S
O664 Zn649 2.034 . S
O664 C659 1.246 . S
O665 Zn657 2.024 . S
O665 C659 1.249 . S
H666 C648 0.948 . S
O667 Zn657 2.039 . S
O667 C671 1.251 . S
O668 Zn649 2.025 . S
O668 C671 1.254 . S
O669 C650 1.246 . S
O669 Zn657 2.034 . S
O670 Zn649 2.024 . S
O670 C650 1.249 . S
C671 O667 1.251 . S
C671 O668 1.254 . S
H672 C645 0.949 . S
H673 C647 0.950 . S
H674 C654 0.949 . S
H675 C656 0.950 . S
C676 O692 1.251 . S
C676 O694 1.254 . S
N677 C678 1.333 . S
N677 C682 1.307 . S
N677 Zn683 2.020 . S
C678 N677 1.333 . S
C678 C679 1.379 . S
C678 H696 0.952 . S
C679 C678 1.379 . S
C679 C680 1.390 . S
C679 H706 0.949 . S
C680 C679 1.390 . S
C680 C681 1.357 . S
C681 C680 1.357 . S
C681 C682 1.370 . S
C681 H707 0.950 . S
C682 N677 1.307 . S
C682 C681 1.370 . S
C682 H700 0.948 . S
Zn683 N677 2.020 . S
Zn683 O692 2.039 . S
Zn683 O698 2.034 . S
Zn683 O702 2.025 . S
Zn683 O704 2.024 . S
C684 O703 1.246 . S
C684 O704 1.249 . S
N685 C686 1.307 1_455 S
N685 C687 1.333 . S
N685 Zn691 2.020 . S
C686 N685 1.307 1_655 S
C686 C690 1.370 . S
C686 H697 0.948 . S
C687 N685 1.333 . S
C687 C688 1.379 . S
C687 H695 0.952 . S
C688 C687 1.379 . S
C688 C689 1.390 1_455 S
C688 H708 0.949 . S
C689 C688 1.390 1_655 S
C689 C690 1.357 . S
C690 C686 1.370 . S
C690 C689 1.357 . S
C690 H709 0.950 . S
Zn691 N685 2.020 . S
Zn691 O694 2.025 . S
Zn691 O699 2.024 1_455 S
Zn691 O701 2.039 . S
Zn691 O703 2.034 . S
O692 C676 1.251 . S
O692 Zn683 2.039 . S
C693 O698 1.246 1_655 S
C693 O699 1.249 . S
O694 C676 1.254 . S
O694 Zn691 2.025 . S
H695 C687 0.952 . S
H696 C678 0.952 . S
H697 C686 0.948 . S
O698 Zn683 2.034 . S
O698 C693 1.246 1_455 S
O699 Zn691 2.024 1_655 S
O699 C693 1.249 . S
H700 C682 0.948 . S
O701 Zn691 2.039 . S
O701 C705 1.251 . S
O702 Zn683 2.025 . S
O702 C705 1.254 . S
O703 C684 1.246 . S
O703 Zn691 2.034 . S
O704 Zn683 2.024 . S
O704 C684 1.249 . S
C705 O701 1.251 . S
C705 O702 1.254 . S
H706 C679 0.949 . S
H707 C681 0.950 . S
H708 C688 0.949 . S
H709 C690 0.950 . S
C710 O726 1.251 . S
C710 O728 1.254 . S
N711 C712 1.333 . S
N711 C716 1.307 . S
N711 Zn717 2.020 . S
C712 N711 1.333 . S
C712 C713 1.379 . S
C712 H730 0.952 . S
C713 C712 1.379 . S
C713 C714 1.390 . S
C713 H740 0.949 . S
C714 C713 1.390 . S
C714 C715 1.357 . S
C715 C714 1.357 . S
C715 C716 1.370 . S
C715 H741 0.950 . S
C716 N711 1.307 . S
C716 C715 1.370 . S
C716 H734 0.948 . S
Zn717 N711 2.020 . S
Zn717 O726 2.039 . S
Zn717 O732 2.034 . S
Zn717 O736 2.025 . S
Zn717 O738 2.024 . S
C718 O737 1.246 . S
C718 O738 1.249 . S
N719 C720 1.307 . S
N719 C721 1.333 . S
N719 Zn725 2.020 . S
C720 N719 1.307 . S
C720 C724 1.370 . S
C720 H731 0.948 . S
C721 N719 1.333 . S
C721 C722 1.379 . S
C721 H729 0.952 . S
C722 C721 1.379 . S
C722 C723 1.390 . S
C722 H742 0.949 . S
C723 C722 1.390 . S
C723 C724 1.357 . S
C724 C720 1.370 . S
C724 C723 1.357 . S
C724 H743 0.950 . S
Zn725 N719 2.020 . S
Zn725 O728 2.025 . S
Zn725 O733 2.024 . S
Zn725 O735 2.039 . S
Zn725 O737 2.034 . S
O726 C710 1.251 . S
O726 Zn717 2.039 . S
C727 O732 1.246 . S
C727 O733 1.249 . S
O728 C710 1.254 . S
O728 Zn725 2.025 . S
H729 C721 0.952 . S
H730 C712 0.952 . S
H731 C720 0.948 . S
O732 Zn717 2.034 . S
O732 C727 1.246 . S
O733 Zn725 2.024 . S
O733 C727 1.249 . S
H734 C716 0.948 . S
O735 Zn725 2.039 . S
O735 C739 1.251 . S
O736 Zn717 2.025 . S
O736 C739 1.254 . S
O737 C718 1.246 . S
O737 Zn725 2.034 . S
O738 Zn717 2.024 . S
O738 C718 1.249 . S
C739 O735 1.251 . S
C739 O736 1.254 . S
H740 C713 0.949 . S
H741 C715 0.950 . S
H742 C722 0.949 . S
H743 C724 0.950 . S
C744 O760 1.251 . S
C744 O762 1.254 . S
N745 C746 1.333 . S
N745 C750 1.307 . S
N745 Zn751 2.020 . S
C746 N745 1.333 . S
C746 C747 1.379 . S
C746 H764 0.952 . S
C747 C746 1.379 . S
C747 C748 1.390 . S
C747 H774 0.949 . S
C748 C747 1.390 . S
C748 C749 1.357 . S
C749 C748 1.357 . S
C749 C750 1.370 . S
C749 H775 0.950 . S
C750 N745 1.307 . S
C750 C749 1.370 . S
C750 H768 0.948 . S
Zn751 N745 2.020 . S
Zn751 O760 2.039 . S
Zn751 O766 2.034 . S
Zn751 O770 2.025 . S
Zn751 O772 2.024 . S
C752 O771 1.246 . S
C752 O772 1.249 . S
N753 C754 1.307 . S
N753 C755 1.333 . S
N753 Zn759 2.020 . S
C754 N753 1.307 . S
C754 C758 1.370 . S
C754 H765 0.948 . S
C755 N753 1.333 . S
C755 C756 1.379 . S
C755 H763 0.952 . S
C756 C755 1.379 . S
C756 C757 1.390 . S
C756 H776 0.949 . S
C757 C756 1.390 . S
C757 C758 1.357 . S
C758 C754 1.370 . S
C758 C757 1.357 . S
C758 H777 0.950 . S
Zn759 N753 2.020 . S
Zn759 O762 2.025 . S
Zn759 O767 2.024 . S
Zn759 O769 2.039 . S
Zn759 O771 2.034 . S
O760 C744 1.251 . S
O760 Zn751 2.039 . S
C761 O766 1.246 . S
C761 O767 1.249 . S
O762 C744 1.254 . S
O762 Zn759 2.025 . S
H763 C755 0.952 . S
H764 C746 0.952 . S
H765 C754 0.948 . S
O766 Zn751 2.034 . S
O766 C761 1.246 . S
O767 Zn759 2.024 . S
O767 C761 1.249 . S
H768 C750 0.948 . S
O769 Zn759 2.039 . S
O769 C773 1.251 . S
O770 Zn751 2.025 . S
O770 C773 1.254 . S
O771 C752 1.246 . S
O771 Zn759 2.034 . S
O772 Zn751 2.024 . S
O772 C752 1.249 . S
C773 O769 1.251 . S
C773 O770 1.254 . S
H774 C747 0.949 . S
H775 C749 0.950 . S
H776 C756 0.949 . S
H777 C758 0.950 . S
C778 O794 1.251 . S
C778 O796 1.254 . S
N779 C780 1.333 . S
N779 C784 1.307 . S
N779 Zn785 2.020 . S
C780 N779 1.333 . S
C780 C781 1.379 . S
C780 H798 0.952 . S
C781 C780 1.379 . S
C781 C782 1.390 . S
C781 H808 0.949 . S
C782 C781 1.390 . S
C782 C783 1.357 . S
C783 C782 1.357 . S
C783 C784 1.370 . S
C783 H809 0.950 . S
C784 N779 1.307 . S
C784 C783 1.370 . S
C784 H802 0.948 . S
Zn785 N779 2.020 . S
Zn785 O794 2.039 . S
Zn785 O800 2.034 . S
Zn785 O804 2.025 . S
Zn785 O806 2.024 . S
C786 O805 1.246 . S
C786 O806 1.249 . S
N787 C788 1.307 . S
N787 C789 1.333 . S
N787 Zn793 2.020 . S
C788 N787 1.307 . S
C788 C792 1.370 . S
C788 H799 0.948 . S
C789 N787 1.333 . S
C789 C790 1.379 . S
C789 H797 0.952 . S
C790 C789 1.379 . S
C790 C791 1.390 . S
C790 H810 0.949 . S
C791 C790 1.390 . S
C791 C792 1.357 . S
C792 C788 1.370 . S
C792 C791 1.357 . S
C792 H811 0.950 . S
Zn793 N787 2.020 . S
Zn793 O796 2.025 . S
Zn793 O801 2.024 . S
Zn793 O803 2.039 . S
Zn793 O805 2.034 . S
O794 C778 1.251 . S
O794 Zn785 2.039 . S
C795 O800 1.246 . S
C795 O801 1.249 . S
O796 C778 1.254 . S
O796 Zn793 2.025 . S
H797 C789 0.952 . S
H798 C780 0.952 . S
H799 C788 0.948 . S
O800 Zn785 2.034 . S
O800 C795 1.246 . S
O801 Zn793 2.024 . S
O801 C795 1.249 . S
H802 C784 0.948 . S
O803 Zn793 2.039 . S
O803 C807 1.251 . S
O804 Zn785 2.025 . S
O804 C807 1.254 . S
O805 C786 1.246 . S
O805 Zn793 2.034 . S
O806 Zn785 2.024 . S
O806 C786 1.249 . S
C807 O803 1.251 . S
C807 O804 1.254 . S
H808 C781 0.949 . S
H809 C783 0.950 . S
H810 C790 0.949 . S
H811 C792 0.950 . S
C812 O828 1.251 . S
C812 O830 1.254 . S
N813 C814 1.333 . S
N813 C818 1.307 . S
N813 Zn819 2.020 . S
C814 N813 1.333 . S
C814 C815 1.379 . S
C814 H832 0.952 . S
C815 C814 1.379 . S
C815 C816 1.390 . S
C815 H842 0.949 . S
C816 C815 1.390 . S
C816 C817 1.357 . S
C817 C816 1.357 . S
C817 C818 1.370 . S
C817 H843 0.950 . S
C818 N813 1.307 . S
C818 C817 1.370 . S
C818 H836 0.948 . S
Zn819 N813 2.020 . S
Zn819 O828 2.039 . S
Zn819 O834 2.034 . S
Zn819 O838 2.025 . S
Zn819 O840 2.024 . S
C820 O839 1.246 . S
C820 O840 1.249 . S
N821 C822 1.307 . S
N821 C823 1.333 . S
N821 Zn827 2.020 . S
C822 N821 1.307 . S
C822 C826 1.370 . S
C822 H833 0.948 . S
C823 N821 1.333 . S
C823 C824 1.379 . S
C823 H831 0.952 . S
C824 C823 1.379 . S
C824 C825 1.390 . S
C824 H844 0.949 . S
C825 C824 1.390 . S
C825 C826 1.357 . S
C826 C822 1.370 . S
C826 C825 1.357 . S
C826 H845 0.950 . S
Zn827 N821 2.020 . S
Zn827 O830 2.025 . S
Zn827 O835 2.024 . S
Zn827 O837 2.039 . S
Zn827 O839 2.034 . S
O828 C812 1.251 . S
O828 Zn819 2.039 . S
C829 O834 1.246 . S
C829 O835 1.249 . S
O830 C812 1.254 . S
O830 Zn827 2.025 . S
H831 C823 0.952 . S
H832 C814 0.952 . S
H833 C822 0.948 . S
O834 Zn819 2.034 . S
O834 C829 1.246 . S
O835 Zn827 2.024 . S
O835 C829 1.249 . S
H836 C818 0.948 . S
O837 Zn827 2.039 . S
O837 C841 1.251 . S
O838 Zn819 2.025 . S
O838 C841 1.254 . S
O839 C820 1.246 . S
O839 Zn827 2.034 . S
O840 Zn819 2.024 . S
O840 C820 1.249 . S
C841 O837 1.251 . S
C841 O838 1.254 . S
H842 C815 0.949 . S
H843 C817 0.950 . S
H844 C824 0.949 . S
H845 C826 0.950 . S
C846 O862 1.251 . S
C846 O864 1.254 . S
N847 C848 1.333 . S
N847 C852 1.307 . S
N847 Zn853 2.020 . S
C848 N847 1.333 . S
C848 C849 1.379 . S
C848 H866 0.952 . S
C849 C848 1.379 . S
C849 C850 1.390 . S
C849 H876 0.949 . S
C850 C849 1.390 . S
C850 C851 1.357 . S
C851 C850 1.357 . S
C851 C852 1.370 . S
C851 H877 0.950 . S
C852 N847 1.307 . S
C852 C851 1.370 . S
C852 H870 0.948 . S
Zn853 N847 2.020 . S
Zn853 O862 2.039 . S
Zn853 O868 2.034 . S
Zn853 O872 2.021 . S
Zn853 O874 2.024 . S
C854 O873 1.246 . S
C854 O874 1.249 1_655 S
N855 C856 1.307 . S
N855 C857 1.333 1_554 S
N855 Zn861 2.020 . S
C856 N855 1.307 . S
C856 C860 1.370 . S
C856 H867 0.948 . S
C857 N855 1.333 1_556 S
C857 C858 1.389 . S
C857 H865 0.952 . S
C858 C857 1.389 . S
C858 C859 1.387 1_455 S
C858 H878 0.944 1_455 S
C859 C858 1.387 1_655 S
C859 C860 1.357 1_656 S
C860 C856 1.370 . S
C860 C859 1.357 1_454 S
C860 H879 0.950 . S
Zn861 N855 2.020 . S
Zn861 O864 2.025 . S
Zn861 O869 2.024 . S
Zn861 O871 2.039 1_554 S
Zn861 O873 2.034 1_455 S
O862 C846 1.251 . S
O862 Zn853 2.039 . S
C863 O868 1.246 . S
C863 O869 1.249 . S
O864 C846 1.254 . S
O864 Zn861 2.025 . S
H865 C857 0.952 . S
H866 C848 0.952 . S
H867 C856 0.948 . S
O868 Zn853 2.034 . S
O868 C863 1.246 . S
O869 Zn861 2.024 . S
O869 C863 1.249 . S
H870 C852 0.948 . S
O871 Zn861 2.039 1_556 S
O871 C875 1.251 . S
O872 Zn853 2.021 . S
O872 C875 1.257 1_554 S
O873 C854 1.246 . S
O873 Zn861 2.034 1_655 S
O874 Zn853 2.024 . S
O874 C854 1.249 1_455 S
C875 O871 1.251 . S
C875 O872 1.257 1_556 S
H876 C849 0.949 . S
H877 C851 0.950 . S
H878 C858 0.944 1_655 S
H879 C860 0.950 . S
H880 C886 0.930 . S
H881 C889 0.930 . S
H882 C890 0.930 . S
H883 C891 0.930 . S
H884 C894 0.930 . S
H885 C895 0.930 . S
C886 H880 0.930 . S
C886 C887 1.355 . S
C886 C888 1.415 . S
C887 C886 1.355 . S
C887 C889 1.419 . S
C888 C886 1.415 . S
C888 C893 1.425 . S
C888 C895 1.409 . S
C889 H881 0.930 . S
C889 C887 1.419 . S
C889 C890 1.362 . S
C890 H882 0.930 . S
C890 C889 1.362 . S
C890 C893 1.409 . S
C891 H883 0.930 . S
C891 C892 1.355 . S
C891 C893 1.415 . S
C892 C891 1.355 . S
C892 C894 1.419 . S
C893 C888 1.425 . S
C893 C890 1.409 . S
C893 C891 1.415 . S
C894 H884 0.930 . S
C894 C892 1.419 . S
C894 C895 1.362 . S
C895 H885 0.930 . S
C895 C888 1.409 . S
C895 C894 1.362 . S
H896 C902 0.930 . S
H897 C905 0.930 . S
H898 C906 0.930 . S
H899 C907 0.930 . S
H900 C910 0.930 . S
H901 C911 0.930 . S
C902 H896 0.930 . S
C902 C903 1.355 . S
C902 C904 1.415 . S
C903 C902 1.355 . S
C903 C905 1.419 . S
C904 C902 1.415 . S
C904 C909 1.425 . S
C904 C911 1.409 . S
C905 H897 0.930 . S
C905 C903 1.419 . S
C905 C906 1.362 . S
C906 H898 0.930 . S
C906 C905 1.362 . S
C906 C909 1.409 . S
C907 H899 0.930 . S
C907 C908 1.355 . S
C907 C909 1.415 . S
C908 C907 1.355 . S
C908 C910 1.419 . S
C909 C904 1.425 . S
C909 C906 1.409 . S
C909 C907 1.415 . S
C910 H900 0.930 . S
C910 C908 1.419 . S
C910 C911 1.362 . S
C911 H901 0.930 . S
C911 C904 1.409 . S
C911 C910 1.362 . S
H912 C918 0.930 . S
H913 C921 0.930 . S
H914 C922 0.930 . S
H915 C923 0.930 . S
H916 C926 0.930 . S
H917 C927 0.930 . S
C918 H912 0.930 . S
C918 C919 1.355 . S
C918 C920 1.415 . S
C919 C918 1.355 . S
C919 C921 1.419 . S
C920 C918 1.415 . S
C920 C925 1.425 . S
C920 C927 1.409 . S
C921 H913 0.930 . S
C921 C919 1.419 . S
C921 C922 1.362 . S
C922 H914 0.930 . S
C922 C921 1.362 . S
C922 C925 1.409 . S
C923 H915 0.930 . S
C923 C924 1.355 . S
C923 C925 1.415 . S
C924 C923 1.355 . S
C924 C926 1.419 . S
C925 C920 1.425 . S
C925 C922 1.409 . S
C925 C923 1.415 . S
C926 H916 0.930 . S
C926 C924 1.419 . S
C926 C927 1.362 . S
C927 H917 0.930 . S
C927 C920 1.409 . S
C927 C926 1.362 . S
H928 C934 0.930 . S
H929 C937 0.930 . S
H930 C938 0.930 . S
H931 C939 0.930 . S
H932 C942 0.930 . S
H933 C943 0.930 . S
C934 H928 0.930 . S
C934 C935 1.355 . S
C934 C936 1.415 . S
C935 C934 1.355 . S
C935 C937 1.419 . S
C936 C934 1.415 . S
C936 C941 1.425 . S
C936 C943 1.409 . S
C937 H929 0.930 . S
C937 C935 1.419 . S
C937 C938 1.362 . S
C938 H930 0.930 . S
C938 C937 1.362 . S
C938 C941 1.409 . S
C939 H931 0.930 . S
C939 C940 1.355 . S
C939 C941 1.415 . S
C940 C939 1.355 . S
C940 C942 1.419 . S
C941 C936 1.425 . S
C941 C938 1.409 . S
C941 C939 1.415 . S
C942 H932 0.930 . S
C942 C940 1.419 . S
C942 C943 1.362 . S
C943 H933 0.930 . S
C943 C936 1.409 . S
C943 C942 1.362 . S
H944 C950 0.930 . S
H945 C953 0.930 . S
H946 C954 0.930 . S
H947 C955 0.930 . S
H948 C958 0.930 . S
H949 C959 0.930 . S
C950 H944 0.930 . S
C950 C951 1.355 . S
C950 C952 1.415 . S
C951 C950 1.355 . S
C951 C953 1.419 . S
C952 C950 1.415 . S
C952 C957 1.425 . S
C952 C959 1.409 . S
C953 H945 0.930 . S
C953 C951 1.419 . S
C953 C954 1.362 . S
C954 H946 0.930 . S
C954 C953 1.362 . S
C954 C957 1.409 . S
C955 H947 0.930 . S
C955 C956 1.355 . S
C955 C957 1.415 . S
C956 C955 1.355 . S
C956 C958 1.419 . S
C957 C952 1.425 . S
C957 C954 1.409 . S
C957 C955 1.415 . S
C958 H948 0.930 . S
C958 C956 1.419 . S
C958 C959 1.362 . S
C959 H949 0.930 . S
C959 C952 1.409 . S
C959 C958 1.362 . S
H960 C966 0.930 . S
H961 C969 0.930 . S
H962 C970 0.930 . S
H963 C971 0.930 . S
H964 C974 0.930 . S
H965 C975 0.930 . S
C966 H960 0.930 . S
C966 C967 1.355 . S
C966 C968 1.415 . S
C967 C966 1.355 . S
C967 C969 1.419 . S
C968 C966 1.415 . S
C968 C973 1.425 . S
C968 C975 1.409 . S
C969 H961 0.930 . S
C969 C967 1.419 . S
C969 C970 1.362 . S
C970 H962 0.930 . S
C970 C969 1.362 . S
C970 C973 1.409 . S
C971 H963 0.930 . S
C971 C972 1.355 . S
C971 C973 1.415 . S
C972 C971 1.355 . S
C972 C974 1.419 . S
C973 C968 1.425 . S
C973 C970 1.409 . S
C973 C971 1.415 . S
C974 H964 0.930 . S
C974 C972 1.419 . S
C974 C975 1.362 . S
C975 H965 0.930 . S
C975 C968 1.409 . S
C975 C974 1.362 . S
H976 C982 0.930 . S
H977 C985 0.930 . S
H978 C986 0.930 . S
H979 C987 0.930 1_554 S
H980 C990 0.930 . S
H981 C991 0.930 . S
C982 H976 0.930 . S
C982 C983 1.355 . S
C982 C984 1.415 . S
C983 C982 1.355 . S
C983 C985 1.419 . S
C984 C982 1.415 . S
C984 C989 1.425 . S
C984 C991 1.409 . S
C985 H977 0.930 . S
C985 C983 1.419 . S
C985 C986 1.362 . S
C986 H978 0.930 . S
C986 C985 1.362 . S
C986 C989 1.409 . S
C987 H979 0.930 1_556 S
C987 C988 1.355 . S
C987 C989 1.415 . S
C988 C987 1.355 . S
C988 C990 1.419 . S
C989 C984 1.425 . S
C989 C986 1.409 . S
C989 C987 1.415 . S
C990 H980 0.930 . S
C990 C988 1.419 . S
C990 C991 1.362 . S
C991 H981 0.930 . S
C991 C984 1.409 . S
C991 C990 1.362 . S
H992 C998 0.930 . S
H993 C1001 0.930 . S
H994 C1002 0.930 . S
H995 C1003 0.930 . S
H996 C1006 0.930 . S
H997 C1007 0.930 . S
C998 H992 0.930 . S
C998 C999 1.355 . S
C998 C1000 1.415 . S
C999 C998 1.355 . S
C999 C1001 1.419 . S
C1000 C998 1.415 . S
C1000 C1005 1.425 . S
C1000 C1007 1.409 . S
C1001 H993 0.930 . S
C1001 C999 1.419 . S
C1001 C1002 1.362 . S
C1002 H994 0.930 . S
C1002 C1001 1.362 . S
C1002 C1005 1.409 . S
C1003 H995 0.930 . S
C1003 C1004 1.355 . S
C1003 C1005 1.415 . S
C1004 C1003 1.355 . S
C1004 C1006 1.419 . S
C1005 C1000 1.425 . S
C1005 C1002 1.409 . S
C1005 C1003 1.415 . S
C1006 H996 0.930 . S
C1006 C1004 1.419 . S
C1006 C1007 1.362 . S
C1007 H997 0.930 . S
C1007 C1000 1.409 . S
C1007 C1006 1.362 . S
H1008 C1014 0.930 . S
H1009 C1017 0.930 . S
H1010 C1018 0.930 . S
H1011 C1019 0.932 . S
H1012 C1022 0.929 1_565 S
H1013 C1023 0.930 . S
C1014 H1008 0.930 . S
C1014 C1015 1.355 . S
C1014 C1016 1.415 . S
C1015 C1014 1.355 . S
C1015 C1017 1.419 . S
C1016 C1014 1.415 . S
C1016 C1021 1.425 . S
C1016 C1023 1.409 . S
C1017 H1009 0.930 . S
C1017 C1015 1.419 . S
C1017 C1018 1.362 . S
C1018 H1010 0.930 . S
C1018 C1017 1.362 . S
C1018 C1021 1.409 . S
C1019 H1011 0.932 . S
C1019 C1020 1.356 . S
C1019 C1021 1.411 1_565 S
C1020 C1019 1.356 . S
C1020 C1022 1.419 1_565 S
C1021 C1016 1.425 . S
C1021 C1018 1.409 . S
C1021 C1019 1.411 1_545 S
C1022 H1012 0.929 1_545 S
C1022 C1020 1.419 1_545 S
C1022 C1023 1.362 . S
C1023 H1013 0.930 . S
C1023 C1016 1.409 . S
C1023 C1022 1.362 . S
H1024 C1030 0.930 . S
H1025 C1033 0.930 . S
H1026 C1034 0.930 . S
H1027 C1035 0.930 . S
H1028 C1038 0.930 . S
H1029 C1039 0.930 . S
C1030 H1024 0.930 . S
C1030 C1031 1.355 . S
C1030 C1032 1.415 . S
C1031 C1030 1.355 . S
C1031 C1033 1.419 . S
C1032 C1030 1.415 . S
C1032 C1037 1.425 . S
C1032 C1039 1.409 . S
C1033 H1025 0.930 . S
C1033 C1031 1.419 . S
C1033 C1034 1.362 . S
C1034 H1026 0.930 . S
C1034 C1033 1.362 . S
C1034 C1037 1.409 . S
C1035 H1027 0.930 . S
C1035 C1036 1.355 . S
C1035 C1037 1.415 . S
C1036 C1035 1.355 . S
C1036 C1038 1.419 . S
C1037 C1032 1.425 . S
C1037 C1034 1.409 . S
C1037 C1035 1.415 . S
C1038 H1028 0.930 . S
C1038 C1036 1.419 . S
C1038 C1039 1.362 . S
C1039 H1029 0.930 . S
C1039 C1032 1.409 . S
C1039 C1038 1.362 . S
H1040 C1046 0.930 . S
H1041 C1049 0.930 . S
H1042 C1050 0.930 . S
H1043 C1051 0.930 1_565 S
H1044 C1054 0.930 . S
H1045 C1055 0.930 . S
C1046 H1040 0.930 . S
C1046 C1047 1.355 . S
C1046 C1048 1.415 . S
C1047 C1046 1.355 . S
C1047 C1049 1.419 1_545 S
C1048 C1046 1.415 . S
C1048 C1053 1.425 . S
C1048 C1055 1.409 . S
C1049 H1041 0.930 . S
C1049 C1047 1.419 1_565 S
C1049 C1050 1.362 . S
C1050 H1042 0.930 . S
C1050 C1049 1.362 . S
C1050 C1053 1.409 1_565 S
C1051 H1043 0.930 1_545 S
C1051 C1052 1.355 . S
C1051 C1053 1.415 . S
C1052 C1051 1.355 . S
C1052 C1054 1.419 . S
C1053 C1048 1.425 . S
C1053 C1050 1.409 1_545 S
C1053 C1051 1.415 . S
C1054 H1044 0.930 . S
C1054 C1052 1.419 . S
C1054 C1055 1.362 . S
C1055 H1045 0.930 . S
C1055 C1048 1.409 . S
C1055 C1054 1.362 . S
H1056 C1062 0.930 . S
H1057 C1065 0.930 . S
H1058 C1066 0.930 . S
H1059 C1067 0.930 . S
H1060 C1070 0.930 . S
H1061 C1071 0.930 . S
C1062 H1056 0.930 . S
C1062 C1063 1.355 . S
C1062 C1064 1.415 . S
C1063 C1062 1.355 . S
C1063 C1065 1.419 . S
C1064 C1062 1.415 . S
C1064 C1069 1.425 . S
C1064 C1071 1.409 . S
C1065 H1057 0.930 . S
C1065 C1063 1.419 . S
C1065 C1066 1.362 . S
C1066 H1058 0.930 . S
C1066 C1065 1.362 . S
C1066 C1069 1.409 . S
C1067 H1059 0.930 . S
C1067 C1068 1.355 . S
C1067 C1069 1.415 . S
C1068 C1067 1.355 . S
C1068 C1070 1.419 . S
C1069 C1064 1.425 . S
C1069 C1066 1.409 . S
C1069 C1067 1.415 . S
C1070 H1060 0.930 . S
C1070 C1068 1.419 . S
C1070 C1071 1.362 . S
C1071 H1061 0.930 . S
C1071 C1064 1.409 . S
C1071 C1070 1.362 . S
H1072 C1078 0.930 1_565 S
H1073 C1081 0.930 . S
H1074 C1082 0.930 . S
H1075 C1083 0.930 . S
H1076 C1086 0.930 . S
H1077 C1087 0.930 1_565 S
C1078 H1072 0.930 1_545 S
C1078 C1079 1.355 . S
C1078 C1080 1.415 . S
C1079 C1078 1.355 . S
C1079 C1081 1.419 . S
C1080 C1078 1.415 . S
C1080 C1085 1.425 . S
C1080 C1087 1.409 . S
C1081 H1073 0.930 . S
C1081 C1079 1.419 . S
C1081 C1082 1.362 . S
C1082 H1074 0.930 . S
C1082 C1081 1.362 . S
C1082 C1085 1.409 . S
C1083 H1075 0.930 . S
C1083 C1084 1.355 . S
C1083 C1085 1.415 . S
C1084 C1083 1.355 . S
C1084 C1086 1.419 . S
C1085 C1080 1.425 . S
C1085 C1082 1.409 . S
C1085 C1083 1.415 . S
C1086 H1076 0.930 . S
C1086 C1084 1.419 . S
C1086 C1087 1.362 . S
C1087 H1077 0.930 1_545 S
C1087 C1080 1.409 . S
C1087 C1086 1.362 . S
H1088 C1094 0.930 . S
H1089 C1097 0.930 . S
H1090 C1098 0.930 . S
H1091 C1099 0.930 . S
H1092 C1102 0.930 . S
H1093 C1103 0.930 . S
C1094 H1088 0.930 . S
C1094 C1095 1.355 . S
C1094 C1096 1.415 . S
C1095 C1094 1.355 . S
C1095 C1097 1.419 . S
C1096 C1094 1.415 . S
C1096 C1101 1.425 . S
C1096 C1103 1.409 . S
C1097 H1089 0.930 . S
C1097 C1095 1.419 . S
C1097 C1098 1.362 . S
C1098 H1090 0.930 . S
C1098 C1097 1.362 . S
C1098 C1101 1.409 . S
C1099 H1091 0.930 . S
C1099 C1100 1.355 . S
C1099 C1101 1.415 . S
C1100 C1099 1.355 . S
C1100 C1102 1.419 . S
C1101 C1096 1.425 . S
C1101 C1098 1.409 . S
C1101 C1099 1.415 . S
C1102 H1092 0.930 . S
C1102 C1100 1.419 . S
C1102 C1103 1.362 . S
C1103 H1093 0.930 . S
C1103 C1096 1.409 . S
C1103 C1102 1.362 . S
H1104 C1110 0.930 . S
H1105 C1113 0.930 . S
H1106 C1114 0.930 . S
H1107 C1115 0.930 . S
H1108 C1118 0.930 . S
H1109 C1119 0.930 . S
C1110 H1104 0.930 . S
C1110 C1111 1.355 1_565 S
C1110 C1112 1.415 . S
C1111 C1110 1.355 1_545 S
C1111 C1113 1.419 . S
C1112 C1110 1.415 . S
C1112 C1117 1.425 . S
C1112 C1119 1.409 . S
C1113 H1105 0.930 . S
C1113 C1111 1.419 . S
C1113 C1114 1.362 . S
C1114 H1106 0.930 . S
C1114 C1113 1.362 . S
C1114 C1117 1.409 1_545 S
C1115 H1107 0.930 . S
C1115 C1116 1.355 . S
C1115 C1117 1.415 . S
C1116 C1115 1.355 . S
C1116 C1118 1.419 . S
C1117 C1112 1.425 . S
C1117 C1114 1.409 1_565 S
C1117 C1115 1.415 . S
C1118 H1108 0.930 . S
C1118 C1116 1.419 . S
C1118 C1119 1.362 . S
C1119 H1109 0.930 . S
C1119 C1112 1.409 . S
C1119 C1118 1.362 . S
H1120 C1126 0.930 . S
H1121 C1129 0.930 . S
H1122 C1130 0.930 . S
H1123 C1131 0.930 . S
H1124 C1134 0.930 . S
H1125 C1135 0.930 . S
C1126 H1120 0.930 . S
C1126 C1127 1.355 . S
C1126 C1128 1.415 . S
C1127 C1126 1.355 . S
C1127 C1129 1.419 . S
C1128 C1126 1.415 . S
C1128 C1133 1.425 . S
C1128 C1135 1.409 . S
C1129 H1121 0.930 . S
C1129 C1127 1.419 . S
C1129 C1130 1.362 . S
C1130 H1122 0.930 . S
C1130 C1129 1.362 . S
C1130 C1133 1.409 . S
C1131 H1123 0.930 . S
C1131 C1132 1.355 . S
C1131 C1133 1.415 . S
C1132 C1131 1.355 . S
C1132 C1134 1.419 . S
C1133 C1128 1.425 . S
C1133 C1130 1.409 . S
C1133 C1131 1.415 . S
C1134 H1124 0.930 . S
C1134 C1132 1.419 . S
C1134 C1135 1.362 . S
C1135 H1125 0.930 . S
C1135 C1128 1.409 . S
C1135 C1134 1.362 . S
H1136 C1142 0.930 . S
H1137 C1145 0.930 . S
H1138 C1146 0.930 . S
H1139 C1147 0.930 . S
H1140 C1150 0.930 . S
H1141 C1151 0.930 . S
C1142 H1136 0.930 . S
C1142 C1143 1.355 . S
C1142 C1144 1.415 . S
C1143 C1142 1.355 . S
C1143 C1145 1.419 . S
C1144 C1142 1.415 . S
C1144 C1149 1.425 . S
C1144 C1151 1.409 1_554 S
C1145 H1137 0.930 . S
C1145 C1143 1.419 . S
C1145 C1146 1.362 . S
C1146 H1138 0.930 . S
C1146 C1145 1.362 . S
C1146 C1149 1.409 . S
C1147 H1139 0.930 . S
C1147 C1148 1.355 1_554 S
C1147 C1149 1.415 . S
C1148 C1147 1.355 1_556 S
C1148 C1150 1.419 . S
C1149 C1144 1.425 . S
C1149 C1146 1.409 . S
C1149 C1147 1.415 . S
C1150 H1140 0.930 . S
C1150 C1148 1.419 . S
C1150 C1151 1.362 . S
C1151 H1141 0.930 . S
C1151 C1144 1.409 1_556 S
C1151 C1150 1.362 . S
H1152 C1158 0.930 . S
H1153 C1161 0.930 . S
H1154 C1162 0.930 . S
H1155 C1163 0.930 . S
H1156 C1166 0.930 . S
H1157 C1167 0.930 . S
C1158 H1152 0.930 . S
C1158 C1159 1.355 . S
C1158 C1160 1.415 . S
C1159 C1158 1.355 . S
C1159 C1161 1.419 . S
C1160 C1158 1.415 . S
C1160 C1165 1.425 . S
C1160 C1167 1.409 . S
C1161 H1153 0.930 . S
C1161 C1159 1.419 . S
C1161 C1162 1.362 . S
C1162 H1154 0.930 . S
C1162 C1161 1.362 . S
C1162 C1165 1.409 . S
C1163 H1155 0.930 . S
C1163 C1164 1.355 . S
C1163 C1165 1.415 . S
C1164 C1163 1.355 . S
C1164 C1166 1.419 . S
C1165 C1160 1.425 . S
C1165 C1162 1.409 . S
C1165 C1163 1.415 . S
C1166 H1156 0.930 . S
C1166 C1164 1.419 . S
C1166 C1167 1.362 . S
C1167 H1157 0.930 . S
C1167 C1160 1.409 . S
C1167 C1166 1.362 . S
H1168 C1174 0.930 . S
H1169 C1177 0.930 . S
H1170 C1178 0.930 . S
H1171 C1179 0.930 . S
H1172 C1182 0.930 . S
H1173 C1183 0.930 . S
C1174 H1168 0.930 . S
C1174 C1175 1.355 . S
C1174 C1176 1.415 . S
C1175 C1174 1.355 . S
C1175 C1177 1.419 . S
C1176 C1174 1.415 . S
C1176 C1181 1.425 . S
C1176 C1183 1.409 . S
C1177 H1169 0.930 . S
C1177 C1175 1.419 . S
C1177 C1178 1.362 . S
C1178 H1170 0.930 . S
C1178 C1177 1.362 . S
C1178 C1181 1.409 . S
C1179 H1171 0.930 . S
C1179 C1180 1.355 . S
C1179 C1181 1.415 . S
C1180 C1179 1.355 . S
C1180 C1182 1.419 . S
C1181 C1176 1.425 . S
C1181 C1178 1.409 . S
C1181 C1179 1.415 . S
C1182 H1172 0.930 . S
C1182 C1180 1.419 . S
C1182 C1183 1.362 . S
C1183 H1173 0.930 . S
C1183 C1176 1.409 . S
C1183 C1182 1.362 . S
H1184 C1190 0.930 . S
H1185 C1193 0.930 . S
H1186 C1194 0.930 . S
H1187 C1195 0.930 . S
H1188 C1198 0.923 1_455 S
H1189 C1199 0.930 . S
C1190 H1184 0.930 . S
C1190 C1191 1.355 . S
C1190 C1192 1.415 . S
C1191 C1190 1.355 . S
C1191 C1193 1.419 . S
C1192 C1190 1.415 . S
C1192 C1197 1.425 . S
C1192 C1199 1.409 . S
C1193 H1185 0.930 . S
C1193 C1191 1.419 . S
C1193 C1194 1.362 . S
C1194 H1186 0.930 . S
C1194 C1193 1.362 . S
C1194 C1197 1.409 . S
C1195 H1187 0.930 . S
C1195 C1196 1.355 . S
C1195 C1197 1.415 . S
C1196 C1195 1.355 . S
C1196 C1198 1.419 . S
C1197 C1192 1.425 . S
C1197 C1194 1.409 . S
C1197 C1195 1.415 . S
C1198 H1188 0.923 1_655 S
C1198 C1196 1.419 . S
C1198 C1199 1.362 . S
C1199 H1189 0.930 . S
C1199 C1192 1.409 . S
C1199 C1198 1.362 . S
H1200 C1206 0.930 . S
H1201 C1209 0.930 . S
H1202 C1210 0.930 . S
H1203 C1211 0.930 . S
H1204 C1214 0.930 . S
H1205 C1215 0.930 . S
C1206 H1200 0.930 . S
C1206 C1207 1.355 . S
C1206 C1208 1.415 . S
C1207 C1206 1.355 . S
C1207 C1209 1.419 . S
C1208 C1206 1.415 . S
C1208 C1213 1.425 . S
C1208 C1215 1.409 . S
C1209 H1201 0.930 . S
C1209 C1207 1.419 . S
C1209 C1210 1.362 . S
C1210 H1202 0.930 . S
C1210 C1209 1.362 . S
C1210 C1213 1.409 . S
C1211 H1203 0.930 . S
C1211 C1212 1.355 . S
C1211 C1213 1.415 . S
C1212 C1211 1.355 . S
C1212 C1214 1.419 . S
C1213 C1208 1.425 . S
C1213 C1210 1.409 . S
C1213 C1211 1.415 . S
C1214 H1204 0.930 . S
C1214 C1212 1.419 . S
C1214 C1215 1.362 . S
C1215 H1205 0.930 . S
C1215 C1208 1.409 . S
C1215 C1214 1.362 . S
H1216 C1222 0.930 . S
H1217 C1225 0.930 . S
H1218 C1226 0.930 . S
H1219 C1227 0.930 1_545 S
H1220 C1230 0.930 . S
H1221 C1231 0.930 . S
C1222 H1216 0.930 . S
C1222 C1223 1.355 . S
C1222 C1224 1.415 . S
C1223 C1222 1.355 . S
C1223 C1225 1.419 . S
C1224 C1222 1.415 . S
C1224 C1229 1.425 . S
C1224 C1231 1.409 . S
C1225 H1217 0.930 . S
C1225 C1223 1.419 . S
C1225 C1226 1.362 . S
C1226 H1218 0.930 . S
C1226 C1225 1.362 . S
C1226 C1229 1.409 . S
C1227 H1219 0.930 1_565 S
C1227 C1228 1.355 . S
C1227 C1229 1.415 . S
C1228 C1227 1.355 . S
C1228 C1230 1.419 . S
C1229 C1224 1.425 . S
C1229 C1226 1.409 . S
C1229 C1227 1.415 . S
C1230 H1220 0.930 . S
C1230 C1228 1.419 . S
C1230 C1231 1.362 . S
C1231 H1221 0.930 . S
C1231 C1224 1.409 . S
C1231 C1230 1.362 . S
H1232 C1238 0.930 . S
H1233 C1241 0.930 . S
H1234 C1242 0.930 . S
H1235 C1243 0.930 . S
H1236 C1246 0.930 . S
H1237 C1247 0.930 . S
C1238 H1232 0.930 . S
C1238 C1239 1.355 . S
C1238 C1240 1.415 . S
C1239 C1238 1.355 . S
C1239 C1241 1.419 . S
C1240 C1238 1.415 . S
C1240 C1245 1.425 . S
C1240 C1247 1.409 . S
C1241 H1233 0.930 . S
C1241 C1239 1.419 . S
C1241 C1242 1.362 . S
C1242 H1234 0.930 . S
C1242 C1241 1.362 . S
C1242 C1245 1.409 . S
C1243 H1235 0.930 . S
C1243 C1244 1.355 . S
C1243 C1245 1.415 . S
C1244 C1243 1.355 . S
C1244 C1246 1.419 . S
C1245 C1240 1.425 . S
C1245 C1242 1.409 . S
C1245 C1243 1.415 . S
C1246 H1236 0.930 . S
C1246 C1244 1.419 . S
C1246 C1247 1.362 . S
C1247 H1237 0.930 . S
C1247 C1240 1.409 . S
C1247 C1246 1.362 . S
H1248 C1254 0.930 . S
H1249 C1257 0.930 . S
H1250 C1258 0.930 . S
H1251 C1259 0.930 . S
H1252 C1262 0.930 . S
H1253 C1263 0.930 . S
C1254 H1248 0.930 . S
C1254 C1255 1.355 . S
C1254 C1256 1.415 . S
C1255 C1254 1.355 . S
C1255 C1257 1.419 . S
C1256 C1254 1.415 . S
C1256 C1261 1.425 . S
C1256 C1263 1.409 . S
C1257 H1249 0.930 . S
C1257 C1255 1.419 . S
C1257 C1258 1.362 . S
C1258 H1250 0.930 . S
C1258 C1257 1.362 . S
C1258 C1261 1.409 . S
C1259 H1251 0.930 . S
C1259 C1260 1.355 . S
C1259 C1261 1.415 . S
C1260 C1259 1.355 . S
C1260 C1262 1.419 . S
C1261 C1256 1.425 . S
C1261 C1258 1.409 . S
C1261 C1259 1.415 . S
C1262 H1252 0.930 . S
C1262 C1260 1.419 . S
C1262 C1263 1.362 . S
C1263 H1253 0.930 . S
C1263 C1256 1.409 . S
C1263 C1262 1.362 . S
H1264 C1270 0.930 . S
H1265 C1273 0.930 . S
H1266 C1274 0.930 . S
H1267 C1275 0.930 1_554 S
H1268 C1278 0.930 . S
H1269 C1279 0.930 . S
C1270 H1264 0.930 . S
C1270 C1271 1.375 . S
C1270 C1272 1.415 . S
C1271 C1270 1.375 . S
C1271 C1273 1.403 1_455 S
C1272 C1270 1.415 . S
C1272 C1277 1.425 . S
C1272 C1279 1.409 . S
C1273 H1265 0.930 . S
C1273 C1271 1.403 1_655 S
C1273 C1274 1.362 . S
C1274 H1266 0.930 . S
C1274 C1273 1.362 . S
C1274 C1277 1.409 1_655 S
C1275 H1267 0.930 1_556 S
C1275 C1276 1.355 . S
C1275 C1277 1.415 . S
C1276 C1275 1.355 . S
C1276 C1278 1.419 . S
C1277 C1272 1.425 . S
C1277 C1274 1.409 1_455 S
C1277 C1275 1.415 . S
C1278 H1268 0.930 . S
C1278 C1276 1.419 . S
C1278 C1279 1.362 . S
C1279 H1269 0.930 . S
C1279 C1272 1.409 . S
C1279 C1278 1.362 . S
H1280 C1286 0.930 . S
H1281 C1289 0.930 . S
H1282 C1290 0.930 . S
H1283 C1291 0.930 . S
H1284 C1294 0.930 . S
H1285 C1295 0.930 . S
C1286 H1280 0.930 . S
C1286 C1287 1.355 . S
C1286 C1288 1.415 . S
C1287 C1286 1.355 . S
C1287 C1289 1.419 . S
C1288 C1286 1.415 . S
C1288 C1293 1.425 . S
C1288 C1295 1.409 . S
C1289 H1281 0.930 . S
C1289 C1287 1.419 . S
C1289 C1290 1.362 . S
C1290 H1282 0.930 . S
C1290 C1289 1.362 . S
C1290 C1293 1.409 . S
C1291 H1283 0.930 . S
C1291 C1292 1.355 . S
C1291 C1293 1.415 . S
C1292 C1291 1.355 . S
C1292 C1294 1.419 . S
C1293 C1288 1.425 . S
C1293 C1290 1.409 . S
C1293 C1291 1.415 . S
C1294 H1284 0.930 . S
C1294 C1292 1.419 . S
C1294 C1295 1.362 . S
C1295 H1285 0.930 . S
C1295 C1288 1.409 . S
C1295 C1294 1.362 . S
H1296 C1302 0.930 . S
H1297 C1305 0.930 . S
H1298 C1306 0.930 . S
H1299 C1307 0.930 . S
H1300 C1310 0.930 . S
H1301 C1311 0.930 . S
C1302 H1296 0.930 . S
C1302 C1303 1.355 . S
C1302 C1304 1.415 . S
C1303 C1302 1.355 . S
C1303 C1305 1.419 . S
C1304 C1302 1.415 . S
C1304 C1309 1.425 . S
C1304 C1311 1.409 . S
C1305 H1297 0.930 . S
C1305 C1303 1.419 . S
C1305 C1306 1.362 . S
C1306 H1298 0.930 . S
C1306 C1305 1.362 . S
C1306 C1309 1.409 . S
C1307 H1299 0.930 . S
C1307 C1308 1.355 . S
C1307 C1309 1.415 . S
C1308 C1307 1.355 . S
C1308 C1310 1.419 . S
C1309 C1304 1.425 . S
C1309 C1306 1.409 . S
C1309 C1307 1.415 . S
C1310 H1300 0.930 . S
C1310 C1308 1.419 . S
C1310 C1311 1.362 . S
C1311 H1301 0.930 . S
C1311 C1304 1.409 . S
C1311 C1310 1.362 . S
H1312 C1318 0.930 . S
H1313 C1321 0.930 . S
H1314 C1322 0.930 . S
H1315 C1323 0.930 . S
H1316 C1326 0.930 . S
H1317 C1327 0.930 . S
C1318 H1312 0.930 . S
C1318 C1319 1.355 . S
C1318 C1320 1.415 . S
C1319 C1318 1.355 . S
C1319 C1321 1.419 . S
C1320 C1318 1.415 . S
C1320 C1325 1.425 . S
C1320 C1327 1.409 . S
C1321 H1313 0.930 . S
C1321 C1319 1.419 . S
C1321 C1322 1.362 . S
C1322 H1314 0.930 . S
C1322 C1321 1.362 . S
C1322 C1325 1.409 . S
C1323 H1315 0.930 . S
C1323 C1324 1.355 . S
C1323 C1325 1.415 . S
C1324 C1323 1.355 . S
C1324 C1326 1.419 . S
C1325 C1320 1.425 . S
C1325 C1322 1.409 . S
C1325 C1323 1.415 . S
C1326 H1316 0.930 . S
C1326 C1324 1.419 . S
C1326 C1327 1.362 . S
C1327 H1317 0.930 . S
C1327 C1320 1.409 . S
C1327 C1326 1.362 . S
H1328 C1334 0.930 . S
H1329 C1337 0.930 . S
H1330 C1338 0.930 . S
H1331 C1339 0.930 . S
H1332 C1342 0.930 . S
H1333 C1343 0.930 1_655 S
C1334 H1328 0.930 . S
C1334 C1335 1.355 . S
C1334 C1336 1.415 . S
C1335 C1334 1.355 . S
C1335 C1337 1.419 . S
C1336 C1334 1.415 . S
C1336 C1341 1.425 . S
C1336 C1343 1.409 . S
C1337 H1329 0.930 . S
C1337 C1335 1.419 . S
C1337 C1338 1.362 . S
C1338 H1330 0.930 . S
C1338 C1337 1.362 . S
C1338 C1341 1.409 . S
C1339 H1331 0.930 . S
C1339 C1340 1.355 . S
C1339 C1341 1.415 . S
C1340 C1339 1.355 . S
C1340 C1342 1.419 . S
C1341 C1336 1.425 . S
C1341 C1338 1.409 . S
C1341 C1339 1.415 . S
C1342 H1332 0.930 . S
C1342 C1340 1.419 . S
C1342 C1343 1.362 . S
C1343 H1333 0.930 1_455 S
C1343 C1336 1.409 . S
C1343 C1342 1.362 . S
H1344 C1350 0.930 . S
H1345 C1353 0.930 . S
H1346 C1354 0.930 . S
H1347 C1355 0.930 . S
H1348 C1358 0.930 . S
H1349 C1359 0.930 . S
C1350 H1344 0.930 . S
C1350 C1351 1.355 . S
C1350 C1352 1.415 . S
C1351 C1350 1.355 . S
C1351 C1353 1.419 . S
C1352 C1350 1.415 . S
C1352 C1357 1.425 . S
C1352 C1359 1.409 . S
C1353 H1345 0.930 . S
C1353 C1351 1.419 . S
C1353 C1354 1.362 . S
C1354 H1346 0.930 . S
C1354 C1353 1.362 . S
C1354 C1357 1.409 . S
C1355 H1347 0.930 . S
C1355 C1356 1.355 . S
C1355 C1357 1.415 . S
C1356 C1355 1.355 . S
C1356 C1358 1.419 . S
C1357 C1352 1.425 . S
C1357 C1354 1.409 . S
C1357 C1355 1.415 . S
C1358 H1348 0.930 . S
C1358 C1356 1.419 . S
C1358 C1359 1.362 . S
C1359 H1349 0.930 . S
C1359 C1352 1.409 . S
C1359 C1358 1.362 . S
H1360 C1366 0.930 . S
H1361 C1369 0.930 . S
H1362 C1370 0.930 . S
H1363 C1371 0.930 . S
H1364 C1374 0.930 . S
H1365 C1375 0.930 . S
C1366 H1360 0.930 . S
C1366 C1367 1.355 . S
C1366 C1368 1.415 . S
C1367 C1366 1.355 . S
C1367 C1369 1.419 . S
C1368 C1366 1.415 . S
C1368 C1373 1.425 . S
C1368 C1375 1.409 . S
C1369 H1361 0.930 . S
C1369 C1367 1.419 . S
C1369 C1370 1.362 . S
C1370 H1362 0.930 . S
C1370 C1369 1.362 . S
C1370 C1373 1.409 . S
C1371 H1363 0.930 . S
C1371 C1372 1.355 . S
C1371 C1373 1.415 . S
C1372 C1371 1.355 . S
C1372 C1374 1.419 . S
C1373 C1368 1.425 . S
C1373 C1370 1.409 . S
C1373 C1371 1.415 . S
C1374 H1364 0.930 . S
C1374 C1372 1.419 . S
C1374 C1375 1.362 . S
C1375 H1365 0.930 . S
C1375 C1368 1.409 . S
C1375 C1374 1.362 . S
H1376 C1382 0.930 . S
H1377 C1385 0.930 . S
H1378 C1386 0.930 . S
H1379 C1387 0.930 . S
H1380 C1390 0.930 . S
H1381 C1391 0.930 . S
C1382 H1376 0.930 . S
C1382 C1383 1.355 . S
C1382 C1384 1.415 . S
C1383 C1382 1.355 . S
C1383 C1385 1.419 . S
C1384 C1382 1.415 . S
C1384 C1389 1.425 . S
C1384 C1391 1.409 . S
C1385 H1377 0.930 . S
C1385 C1383 1.419 . S
C1385 C1386 1.362 . S
C1386 H1378 0.930 . S
C1386 C1385 1.362 . S
C1386 C1389 1.409 . S
C1387 H1379 0.930 . S
C1387 C1388 1.355 . S
C1387 C1389 1.415 . S
C1388 C1387 1.355 . S
C1388 C1390 1.419 . S
C1389 C1384 1.425 . S
C1389 C1386 1.409 . S
C1389 C1387 1.415 . S
C1390 H1380 0.930 . S
C1390 C1388 1.419 . S
C1390 C1391 1.362 . S
C1391 H1381 0.930 . S
C1391 C1384 1.409 . S
C1391 C1390 1.362 . S
H1392 C1398 0.930 . S
H1393 C1401 0.930 . S
H1394 C1402 0.930 . S
H1395 C1403 0.930 . S
H1396 C1406 0.934 . S
H1397 C1407 0.930 . S
C1398 H1392 0.930 . S
C1398 C1399 1.355 1_565 S
C1398 C1400 1.415 1_565 S
C1399 C1398 1.355 1_545 S
C1399 C1401 1.419 . S
C1400 C1398 1.415 1_545 S
C1400 C1405 1.425 . S
C1400 C1407 1.409 1_545 S
C1401 H1393 0.930 . S
C1401 C1399 1.419 . S
C1401 C1402 1.362 . S
C1402 H1394 0.930 . S
C1402 C1401 1.362 . S
C1402 C1405 1.409 . S
C1403 H1395 0.930 . S
C1403 C1404 1.355 1_655 S
C1403 C1405 1.415 . S
C1404 C1403 1.355 1_455 S
C1404 C1406 1.419 1_545 S
C1405 C1400 1.425 . S
C1405 C1402 1.409 . S
C1405 C1403 1.415 . S
C1406 H1396 0.934 . S
C1406 C1404 1.419 1_565 S
C1406 C1407 1.358 1_455 S
C1407 H1397 0.930 . S
C1407 C1400 1.409 1_565 S
C1407 C1406 1.358 1_655 S
H1408 C1414 0.930 . S
H1409 C1417 0.930 . S
H1410 C1418 0.930 . S
H1411 C1419 0.930 . S
H1412 C1422 0.930 . S
H1413 C1423 0.930 . S
C1414 H1408 0.930 . S
C1414 C1415 1.355 . S
C1414 C1416 1.415 . S
C1415 C1414 1.355 . S
C1415 C1417 1.419 . S
C1416 C1414 1.415 . S
C1416 C1421 1.425 . S
C1416 C1423 1.409 . S
C1417 H1409 0.930 . S
C1417 C1415 1.419 . S
C1417 C1418 1.362 . S
C1418 H1410 0.930 . S
C1418 C1417 1.362 . S
C1418 C1421 1.409 . S
C1419 H1411 0.930 . S
C1419 C1420 1.355 . S
C1419 C1421 1.415 . S
C1420 C1419 1.355 . S
C1420 C1422 1.419 . S
C1421 C1416 1.425 . S
C1421 C1418 1.409 . S
C1421 C1419 1.415 . S
C1422 H1412 0.930 . S
C1422 C1420 1.419 . S
C1422 C1423 1.362 . S
C1423 H1413 0.930 . S
C1423 C1416 1.409 . S
C1423 C1422 1.362 . S
H1424 C1430 0.930 . S
H1425 C1433 0.930 . S
H1426 C1434 0.930 . S
H1427 C1435 0.930 . S
H1428 C1438 0.930 . S
H1429 C1439 0.930 . S
C1430 H1424 0.930 . S
C1430 C1431 1.355 . S
C1430 C1432 1.415 . S
C1431 C1430 1.355 . S
C1431 C1433 1.419 1_545 S
C1432 C1430 1.415 . S
C1432 C1437 1.425 1_545 S
C1432 C1439 1.409 . S
C1433 H1425 0.930 . S
C1433 C1431 1.419 1_565 S
C1433 C1434 1.362 . S
C1434 H1426 0.930 . S
C1434 C1433 1.362 . S
C1434 C1437 1.409 . S
C1435 H1427 0.930 . S
C1435 C1436 1.355 1_565 S
C1435 C1437 1.415 . S
C1436 C1435 1.355 1_545 S
C1436 C1438 1.419 . S
C1437 C1432 1.425 1_565 S
C1437 C1434 1.409 . S
C1437 C1435 1.415 . S
C1438 H1428 0.930 . S
C1438 C1436 1.419 . S
C1438 C1439 1.362 . S
C1439 H1429 0.930 . S
C1439 C1432 1.409 . S
C1439 C1438 1.362 . S
H1440 C1446 0.930 . S
H1441 C1449 0.930 . S
H1442 C1450 0.930 . S
H1443 C1451 0.930 . S
H1444 C1454 0.930 . S
H1445 C1455 0.930 . S
C1446 H1440 0.930 . S
C1446 C1447 1.355 . S
C1446 C1448 1.415 . S
C1447 C1446 1.355 . S
C1447 C1449 1.419 . S
C1448 C1446 1.415 . S
C1448 C1453 1.425 . S
C1448 C1455 1.409 . S
C1449 H1441 0.930 . S
C1449 C1447 1.419 . S
C1449 C1450 1.362 . S
C1450 H1442 0.930 . S
C1450 C1449 1.362 . S
C1450 C1453 1.409 . S
C1451 H1443 0.930 . S
C1451 C1452 1.355 . S
C1451 C1453 1.415 . S
C1452 C1451 1.355 . S
C1452 C1454 1.419 . S
C1453 C1448 1.425 . S
C1453 C1450 1.409 . S
C1453 C1451 1.415 . S
C1454 H1444 0.930 . S
C1454 C1452 1.419 . S
C1454 C1455 1.362 . S
C1455 H1445 0.930 . S
C1455 C1448 1.409 . S
C1455 C1454 1.362 . S
H1456 C1462 0.930 . S
H1457 C1465 0.930 . S
H1458 C1466 0.930 . S
H1459 C1467 0.930 . S
H1460 C1470 0.930 1_455 S
H1461 C1471 0.947 . S
C1462 H1456 0.930 . S
C1462 C1463 1.355 1_565 S
C1462 C1464 1.415 . S
C1463 C1462 1.355 1_545 S
C1463 C1465 1.419 . S
C1464 C1462 1.415 . S
C1464 C1469 1.425 . S
C1464 C1471 1.409 . S
C1465 H1457 0.930 . S
C1465 C1463 1.419 . S
C1465 C1466 1.362 . S
C1466 H1458 0.930 . S
C1466 C1465 1.362 . S
C1466 C1469 1.409 1_545 S
C1467 H1459 0.930 . S
C1467 C1468 1.355 . S
C1467 C1469 1.415 . S
C1468 C1467 1.355 . S
C1468 C1470 1.419 . S
C1469 C1464 1.425 . S
C1469 C1466 1.409 1_565 S
C1469 C1467 1.415 . S
C1470 H1460 0.930 1_655 S
C1470 C1468 1.419 . S
C1470 C1471 1.362 . S
C1471 H1461 0.947 . S
C1471 C1464 1.409 . S
C1471 C1470 1.362 . S
H1472 C1478 0.930 . S
H1473 C1481 0.930 . S
H1474 C1482 0.930 . S
H1475 C1483 0.930 . S
H1476 C1486 0.930 . S
H1477 C1487 0.930 . S
C1478 H1472 0.930 . S
C1478 C1479 1.355 . S
C1478 C1480 1.415 . S
C1479 C1478 1.355 . S
C1479 C1481 1.419 . S
C1480 C1478 1.415 . S
C1480 C1485 1.425 . S
C1480 C1487 1.409 . S
C1481 H1473 0.930 . S
C1481 C1479 1.419 . S
C1481 C1482 1.362 . S
C1482 H1474 0.930 . S
C1482 C1481 1.362 . S
C1482 C1485 1.409 . S
C1483 H1475 0.930 . S
C1483 C1484 1.355 . S
C1483 C1485 1.415 . S
C1484 C1483 1.355 . S
C1484 C1486 1.419 . S
C1485 C1480 1.425 . S
C1485 C1482 1.409 . S
C1485 C1483 1.415 . S
C1486 H1476 0.930 . S
C1486 C1484 1.419 . S
C1486 C1487 1.362 . S
C1487 H1477 0.930 . S
C1487 C1480 1.409 . S
C1487 C1486 1.362 . S
H1488 C1494 0.930 . S
H1489 C1497 0.930 . S
H1490 C1498 0.930 . S
H1491 C1499 0.930 . S
H1492 C1502 0.930 . S
H1493 C1503 0.930 . S
C1494 H1488 0.930 . S
C1494 C1495 1.355 . S
C1494 C1496 1.415 . S
C1495 C1494 1.355 . S
C1495 C1497 1.419 . S
C1496 C1494 1.415 . S
C1496 C1501 1.425 . S
C1496 C1503 1.409 . S
C1497 H1489 0.930 . S
C1497 C1495 1.419 . S
C1497 C1498 1.362 . S
C1498 H1490 0.930 . S
C1498 C1497 1.362 . S
C1498 C1501 1.409 . S
C1499 H1491 0.930 . S
C1499 C1500 1.355 . S
C1499 C1501 1.415 . S
C1500 C1499 1.355 . S
C1500 C1502 1.419 . S
C1501 C1496 1.425 . S
C1501 C1498 1.409 . S
C1501 C1499 1.415 . S
C1502 H1492 0.930 . S
C1502 C1500 1.419 . S
C1502 C1503 1.362 . S
C1503 H1493 0.930 . S
C1503 C1496 1.409 . S
C1503 C1502 1.362 . S
H1504 C1510 0.930 . S
H1505 C1513 0.930 . S
H1506 C1514 0.930 . S
H1507 C1515 0.930 . S
H1508 C1518 0.930 . S
H1509 C1519 0.930 . S
C1510 H1504 0.930 . S
C1510 C1511 1.355 . S
C1510 C1512 1.415 . S
C1511 C1510 1.355 . S
C1511 C1513 1.419 . S
C1512 C1510 1.415 . S
C1512 C1517 1.425 . S
C1512 C1519 1.409 . S
C1513 H1505 0.930 . S
C1513 C1511 1.419 . S
C1513 C1514 1.362 . S
C1514 H1506 0.930 . S
C1514 C1513 1.362 . S
C1514 C1517 1.409 . S
C1515 H1507 0.930 . S
C1515 C1516 1.355 . S
C1515 C1517 1.415 . S
C1516 C1515 1.355 . S
C1516 C1518 1.419 . S
C1517 C1512 1.425 . S
C1517 C1514 1.409 . S
C1517 C1515 1.415 . S
C1518 H1508 0.930 . S
C1518 C1516 1.419 . S
C1518 C1519 1.362 . S
C1519 H1509 0.930 . S
C1519 C1512 1.409 . S
C1519 C1518 1.362 . S
H1520 C1526 0.930 . S
H1521 C1529 0.930 . S
H1522 C1530 0.930 1_545 S
H1523 C1531 0.930 1_545 S
H1524 C1534 0.930 . S
H1525 C1535 0.930 . S
C1526 H1520 0.930 . S
C1526 C1527 1.355 . S
C1526 C1528 1.415 . S
C1527 C1526 1.355 . S
C1527 C1529 1.419 . S
C1528 C1526 1.415 . S
C1528 C1533 1.425 . S
C1528 C1535 1.409 . S
C1529 H1521 0.930 . S
C1529 C1527 1.419 . S
C1529 C1530 1.362 . S
C1530 H1522 0.930 1_565 S
C1530 C1529 1.362 . S
C1530 C1533 1.409 . S
C1531 H1523 0.930 1_565 S
C1531 C1532 1.355 . S
C1531 C1533 1.415 . S
C1532 C1531 1.355 . S
C1532 C1534 1.419 . S
C1533 C1528 1.425 . S
C1533 C1530 1.409 . S
C1533 C1531 1.415 . S
C1534 H1524 0.930 . S
C1534 C1532 1.419 . S
C1534 C1535 1.362 . S
C1535 H1525 0.930 . S
C1535 C1528 1.409 . S
C1535 C1534 1.362 . S
H1536 C1542 0.930 . S
H1537 C1545 0.930 . S
H1538 C1546 0.930 . S
H1539 C1547 0.930 . S
H1540 C1550 0.930 . S
H1541 C1551 0.930 . S
C1542 H1536 0.930 . S
C1542 C1543 1.355 . S
C1542 C1544 1.415 . S
C1543 C1542 1.355 . S
C1543 C1545 1.419 . S
C1544 C1542 1.415 . S
C1544 C1549 1.425 . S
C1544 C1551 1.409 . S
C1545 H1537 0.930 . S
C1545 C1543 1.419 . S
C1545 C1546 1.362 . S
C1546 H1538 0.930 . S
C1546 C1545 1.362 . S
C1546 C1549 1.409 . S
C1547 H1539 0.930 . S
C1547 C1548 1.355 . S
C1547 C1549 1.415 . S
C1548 C1547 1.355 . S
C1548 C1550 1.419 . S
C1549 C1544 1.425 . S
C1549 C1546 1.409 . S
C1549 C1547 1.415 . S
C1550 H1540 0.930 . S
C1550 C1548 1.419 . S
C1550 C1551 1.362 . S
C1551 H1541 0.930 . S
C1551 C1544 1.409 . S
C1551 C1550 1.362 . S
H1552 C1558 0.930 . S
H1553 C1561 0.930 . S
H1554 C1562 0.930 . S
H1555 C1563 0.930 . S
H1556 C1566 0.930 . S
H1557 C1567 0.930 . S
C1558 H1552 0.930 . S
C1558 C1559 1.355 . S
C1558 C1560 1.415 . S
C1559 C1558 1.355 . S
C1559 C1561 1.419 . S
C1560 C1558 1.415 . S
C1560 C1565 1.425 . S
C1560 C1567 1.409 . S
C1561 H1553 0.930 . S
C1561 C1559 1.419 . S
C1561 C1562 1.362 . S
C1562 H1554 0.930 . S
C1562 C1561 1.362 . S
C1562 C1565 1.409 . S
C1563 H1555 0.930 . S
C1563 C1564 1.355 . S
C1563 C1565 1.415 . S
C1564 C1563 1.355 . S
C1564 C1566 1.419 . S
C1565 C1560 1.425 . S
C1565 C1562 1.409 . S
C1565 C1563 1.415 . S
C1566 H1556 0.930 . S
C1566 C1564 1.419 . S
C1566 C1567 1.362 . S
C1567 H1557 0.930 . S
C1567 C1560 1.409 . S
C1567 C1566 1.362 . S
H1568 C1574 0.930 . S
H1569 C1577 0.930 . S
H1570 C1578 0.930 . S
H1571 C1579 0.930 . S
H1572 C1582 0.930 . S
H1573 C1583 0.930 . S
C1574 H1568 0.930 . S
C1574 C1575 1.355 . S
C1574 C1576 1.415 . S
C1575 C1574 1.355 . S
C1575 C1577 1.419 . S
C1576 C1574 1.415 . S
C1576 C1581 1.425 . S
C1576 C1583 1.409 . S
C1577 H1569 0.930 . S
C1577 C1575 1.419 . S
C1577 C1578 1.362 . S
C1578 H1570 0.930 . S
C1578 C1577 1.362 . S
C1578 C1581 1.409 . S
C1579 H1571 0.930 . S
C1579 C1580 1.355 . S
C1579 C1581 1.415 . S
C1580 C1579 1.355 . S
C1580 C1582 1.419 . S
C1581 C1576 1.425 . S
C1581 C1578 1.409 . S
C1581 C1579 1.415 . S
C1582 H1572 0.930 . S
C1582 C1580 1.419 . S
C1582 C1583 1.362 . S
C1583 H1573 0.930 . S
C1583 C1576 1.409 . S
C1583 C1582 1.362 . S
H1584 C1590 0.930 . S
H1585 C1593 0.930 . S
H1586 C1594 0.930 . S
H1587 C1595 0.930 . S
H1588 C1598 0.930 . S
H1589 C1599 0.930 . S
C1590 H1584 0.930 . S
C1590 C1591 1.355 . S
C1590 C1592 1.415 . S
C1591 C1590 1.355 . S
C1591 C1593 1.419 . S
C1592 C1590 1.415 . S
C1592 C1597 1.425 . S
C1592 C1599 1.409 . S
C1593 H1585 0.930 . S
C1593 C1591 1.419 . S
C1593 C1594 1.362 . S
C1594 H1586 0.930 . S
C1594 C1593 1.362 . S
C1594 C1597 1.409 . S
C1595 H1587 0.930 . S
C1595 C1596 1.355 . S
C1595 C1597 1.415 . S
C1596 C1595 1.355 . S
C1596 C1598 1.419 . S
C1597 C1592 1.425 . S
C1597 C1594 1.409 . S
C1597 C1595 1.415 . S
C1598 H1588 0.930 . S
C1598 C1596 1.419 . S
C1598 C1599 1.362 . S
C1599 H1589 0.930 . S
C1599 C1592 1.409 . S
C1599 C1598 1.362 . S
H1600 C1606 0.930 . S
H1601 C1609 0.930 . S
H1602 C1610 0.930 . S
H1603 C1611 0.930 . S
H1604 C1614 0.930 . S
H1605 C1615 0.930 . S
C1606 H1600 0.930 . S
C1606 C1607 1.355 . S
C1606 C1608 1.415 . S
C1607 C1606 1.355 . S
C1607 C1609 1.419 . S
C1608 C1606 1.415 . S
C1608 C1613 1.425 . S
C1608 C1615 1.409 . S
C1609 H1601 0.930 . S
C1609 C1607 1.419 . S
C1609 C1610 1.362 . S
C1610 H1602 0.930 . S
C1610 C1609 1.362 . S
C1610 C1613 1.409 . S
C1611 H1603 0.930 . S
C1611 C1612 1.355 . S
C1611 C1613 1.415 . S
C1612 C1611 1.355 . S
C1612 C1614 1.419 . S
C1613 C1608 1.425 . S
C1613 C1610 1.409 . S
C1613 C1611 1.415 . S
C1614 H1604 0.930 . S
C1614 C1612 1.419 . S
C1614 C1615 1.362 . S
C1615 H1605 0.930 . S
C1615 C1608 1.409 . S
C1615 C1614 1.362 . S
H1616 C1622 0.930 . S
H1617 C1625 0.930 . S
H1618 C1626 0.930 . S
H1619 C1627 0.930 . S
H1620 C1630 0.930 . S
H1621 C1631 0.930 . S
C1622 H1616 0.930 . S
C1622 C1623 1.355 . S
C1622 C1624 1.415 . S
C1623 C1622 1.355 . S
C1623 C1625 1.419 . S
C1624 C1622 1.415 . S
C1624 C1629 1.425 . S
C1624 C1631 1.409 . S
C1625 H1617 0.930 . S
C1625 C1623 1.419 . S
C1625 C1626 1.362 . S
C1626 H1618 0.930 . S
C1626 C1625 1.362 . S
C1626 C1629 1.409 . S
C1627 H1619 0.930 . S
C1627 C1628 1.355 . S
C1627 C1629 1.415 . S
C1628 C1627 1.355 . S
C1628 C1630 1.419 . S
C1629 C1624 1.425 . S
C1629 C1626 1.409 . S
C1629 C1627 1.415 . S
C1630 H1620 0.930 . S
C1630 C1628 1.419 . S
C1630 C1631 1.362 . S
C1631 H1621 0.930 . S
C1631 C1624 1.409 . S
C1631 C1630 1.362 . S
H1632 C1638 0.930 . S
H1633 C1641 0.930 . S
H1634 C1642 0.930 . S
H1635 C1643 0.930 . S
H1636 C1646 0.930 . S
H1637 C1647 0.930 . S
C1638 H1632 0.930 . S
C1638 C1639 1.355 . S
C1638 C1640 1.415 . S
C1639 C1638 1.355 . S
C1639 C1641 1.419 . S
C1640 C1638 1.415 . S
C1640 C1645 1.425 . S
C1640 C1647 1.409 . S
C1641 H1633 0.930 . S
C1641 C1639 1.419 . S
C1641 C1642 1.362 . S
C1642 H1634 0.930 . S
C1642 C1641 1.362 . S
C1642 C1645 1.409 . S
C1643 H1635 0.930 . S
C1643 C1644 1.355 . S
C1643 C1645 1.415 . S
C1644 C1643 1.355 . S
C1644 C1646 1.419 . S
C1645 C1640 1.425 . S
C1645 C1642 1.409 . S
C1645 C1643 1.415 . S
C1646 H1636 0.930 . S
C1646 C1644 1.419 . S
C1646 C1647 1.362 . S
C1647 H1637 0.930 . S
C1647 C1640 1.409 . S
C1647 C1646 1.362 . S
H1648 C1654 0.930 . S
H1649 C1657 0.930 . S
H1650 C1658 0.930 . S
H1651 C1659 0.930 . S
H1652 C1662 0.930 . S
H1653 C1663 0.930 . S
C1654 H1648 0.930 . S
C1654 C1655 1.355 . S
C1654 C1656 1.415 . S
C1655 C1654 1.355 . S
C1655 C1657 1.419 . S
C1656 C1654 1.415 . S
C1656 C1661 1.425 . S
C1656 C1663 1.409 . S
C1657 H1649 0.930 . S
C1657 C1655 1.419 . S
C1657 C1658 1.362 . S
C1658 H1650 0.930 . S
C1658 C1657 1.362 . S
C1658 C1661 1.409 . S
C1659 H1651 0.930 . S
C1659 C1660 1.355 . S
C1659 C1661 1.415 . S
C1660 C1659 1.355 . S
C1660 C1662 1.419 . S
C1661 C1656 1.425 . S
C1661 C1658 1.409 . S
C1661 C1659 1.415 . S
C1662 H1652 0.930 . S
C1662 C1660 1.419 . S
C1662 C1663 1.362 . S
C1663 H1653 0.930 . S
C1663 C1656 1.409 . S
C1663 C1662 1.362 . S
H1664 C1670 0.930 . S
H1665 C1673 0.930 . S
H1666 C1674 0.930 . S
H1667 C1675 0.930 . S
H1668 C1678 0.930 . S
H1669 C1679 0.930 . S
C1670 H1664 0.930 . S
C1670 C1671 1.355 . S
C1670 C1672 1.415 . S
C1671 C1670 1.355 . S
C1671 C1673 1.419 . S
C1672 C1670 1.415 . S
C1672 C1677 1.425 . S
C1672 C1679 1.409 . S
C1673 H1665 0.930 . S
C1673 C1671 1.419 . S
C1673 C1674 1.362 . S
C1674 H1666 0.930 . S
C1674 C1673 1.362 . S
C1674 C1677 1.409 . S
C1675 H1667 0.930 . S
C1675 C1676 1.355 . S
C1675 C1677 1.415 . S
C1676 C1675 1.355 . S
C1676 C1678 1.419 . S
C1677 C1672 1.425 . S
C1677 C1674 1.409 . S
C1677 C1675 1.415 . S
C1678 H1668 0.930 . S
C1678 C1676 1.419 . S
C1678 C1679 1.362 . S
C1679 H1669 0.930 . S
C1679 C1672 1.409 . S
C1679 C1678 1.362 . S
H1680 C1686 0.930 . S
H1681 C1689 0.930 . S
H1682 C1690 0.930 . S
H1683 C1691 0.930 . S
H1684 C1694 0.930 . S
H1685 C1695 0.930 . S
C1686 H1680 0.930 . S
C1686 C1687 1.355 . S
C1686 C1688 1.415 . S
C1687 C1686 1.355 . S
C1687 C1689 1.419 . S
C1688 C1686 1.415 . S
C1688 C1693 1.425 . S
C1688 C1695 1.409 . S
C1689 H1681 0.930 . S
C1689 C1687 1.419 . S
C1689 C1690 1.362 . S
C1690 H1682 0.930 . S
C1690 C1689 1.362 . S
C1690 C1693 1.409 . S
C1691 H1683 0.930 . S
C1691 C1692 1.355 . S
C1691 C1693 1.415 . S
C1692 C1691 1.355 . S
C1692 C1694 1.419 . S
C1693 C1688 1.425 . S
C1693 C1690 1.409 . S
C1693 C1691 1.415 . S
C1694 H1684 0.930 . S
C1694 C1692 1.419 . S
C1694 C1695 1.362 . S
C1695 H1685 0.930 . S
C1695 C1688 1.409 . S
C1695 C1694 1.362 . S
H1696 C1702 0.930 . S
H1697 C1705 0.930 . S
H1698 C1706 0.930 . S
H1699 C1707 0.930 . S
H1700 C1710 0.930 . S
H1701 C1711 0.930 . S
C1702 H1696 0.930 . S
C1702 C1703 1.355 . S
C1702 C1704 1.415 . S
C1703 C1702 1.355 . S
C1703 C1705 1.419 . S
C1704 C1702 1.415 . S
C1704 C1709 1.425 . S
C1704 C1711 1.409 . S
C1705 H1697 0.930 . S
C1705 C1703 1.419 . S
C1705 C1706 1.362 . S
C1706 H1698 0.930 . S
C1706 C1705 1.362 . S
C1706 C1709 1.409 . S
C1707 H1699 0.930 . S
C1707 C1708 1.355 . S
C1707 C1709 1.415 . S
C1708 C1707 1.355 . S
C1708 C1710 1.419 . S
C1709 C1704 1.425 . S
C1709 C1706 1.409 . S
C1709 C1707 1.415 . S
C1710 H1700 0.930 . S
C1710 C1708 1.419 . S
C1710 C1711 1.362 . S
C1711 H1701 0.930 . S
C1711 C1704 1.409 . S
C1711 C1710 1.362 . S
H1712 C1718 0.930 . S
H1713 C1721 0.930 . S
H1714 C1722 0.930 1_554 S
H1715 C1723 0.933 . S
H1716 C1726 0.930 . S
H1717 C1727 0.930 . S
C1718 H1712 0.930 . S
C1718 C1719 1.355 . S
C1718 C1720 1.415 . S
C1719 C1718 1.355 . S
C1719 C1721 1.419 . S
C1720 C1718 1.415 . S
C1720 C1725 1.425 . S
C1720 C1727 1.409 . S
C1721 H1713 0.930 . S
C1721 C1719 1.419 . S
C1721 C1722 1.362 . S
C1722 H1714 0.930 1_556 S
C1722 C1721 1.362 . S
C1722 C1725 1.409 . S
C1723 H1715 0.933 . S
C1723 C1724 1.354 1_554 S
C1723 C1725 1.412 1_554 S
C1724 C1723 1.354 1_556 S
C1724 C1726 1.419 . S
C1725 C1720 1.425 . S
C1725 C1722 1.409 . S
C1725 C1723 1.412 1_556 S
C1726 H1716 0.930 . S
C1726 C1724 1.419 . S
C1726 C1727 1.362 . S
C1727 H1717 0.930 . S
C1727 C1720 1.409 . S
C1727 C1726 1.362 . S
H1728 C1734 0.930 . S
H1729 C1737 0.930 . S
H1730 C1738 0.930 . S
H1731 C1739 0.930 . S
H1732 C1742 0.930 . S
H1733 C1743 0.930 . S
C1734 H1728 0.930 . S
C1734 C1735 1.355 1_655 S
C1734 C1736 1.415 . S
C1735 C1734 1.355 1_455 S
C1735 C1737 1.419 . S
C1736 C1734 1.415 . S
C1736 C1741 1.425 . S
C1736 C1743 1.409 . S
C1737 H1729 0.930 . S
C1737 C1735 1.419 . S
C1737 C1738 1.362 1_455 S
C1738 H1730 0.930 . S
C1738 C1737 1.362 1_655 S
C1738 C1741 1.409 . S
C1739 H1731 0.930 . S
C1739 C1740 1.355 . S
C1739 C1741 1.415 . S
C1740 C1739 1.355 . S
C1740 C1742 1.419 . S
C1741 C1736 1.425 . S
C1741 C1738 1.409 . S
C1741 C1739 1.415 . S
C1742 H1732 0.930 . S
C1742 C1740 1.419 . S
C1742 C1743 1.362 . S
C1743 H1733 0.930 . S
C1743 C1736 1.409 . S
C1743 C1742 1.362 . S
H1744 C1750 0.930 . S
H1745 C1753 0.930 . S
H1746 C1754 0.930 . S
H1747 C1755 0.930 . S
H1748 C1758 0.930 . S
H1749 C1759 0.930 1_655 S
C1750 H1744 0.930 . S
C1750 C1751 1.355 . S
C1750 C1752 1.415 . S
C1751 C1750 1.355 . S
C1751 C1753 1.419 . S
C1752 C1750 1.415 . S
C1752 C1757 1.425 . S
C1752 C1759 1.409 . S
C1753 H1745 0.930 . S
C1753 C1751 1.419 . S
C1753 C1754 1.362 . S
C1754 H1746 0.930 . S
C1754 C1753 1.362 . S
C1754 C1757 1.409 . S
C1755 H1747 0.930 . S
C1755 C1756 1.355 . S
C1755 C1757 1.415 . S
C1756 C1755 1.355 . S
C1756 C1758 1.419 . S
C1757 C1752 1.425 . S
C1757 C1754 1.409 . S
C1757 C1755 1.415 . S
C1758 H1748 0.930 . S
C1758 C1756 1.419 . S
C1758 C1759 1.362 . S
C1759 H1749 0.930 1_455 S
C1759 C1752 1.409 . S
C1759 C1758 1.362 . S
H1760 C1766 0.930 . S
H1761 C1769 0.930 . S
H1762 C1770 0.930 . S
H1763 C1771 0.930 . S
H1764 C1774 0.930 . S
H1765 C1775 0.930 . S
C1766 H1760 0.930 . S
C1766 C1767 1.355 . S
C1766 C1768 1.415 . S
C1767 C1766 1.355 . S
C1767 C1769 1.419 . S
C1768 C1766 1.415 . S
C1768 C1773 1.425 . S
C1768 C1775 1.409 . S
C1769 H1761 0.930 . S
C1769 C1767 1.419 . S
C1769 C1770 1.362 . S
C1770 H1762 0.930 . S
C1770 C1769 1.362 . S
C1770 C1773 1.409 . S
C1771 H1763 0.930 . S
C1771 C1772 1.355 . S
C1771 C1773 1.415 . S
C1772 C1771 1.355 . S
C1772 C1774 1.419 . S
C1773 C1768 1.425 . S
C1773 C1770 1.409 . S
C1773 C1771 1.415 . S
C1774 H1764 0.930 . S
C1774 C1772 1.419 . S
C1774 C1775 1.362 . S
C1775 H1765 0.930 . S
C1775 C1768 1.409 . S
C1775 C1774 1.362 . S
H1776 C1782 0.930 . S
H1777 C1785 0.930 . S
H1778 C1786 0.930 . S
H1779 C1787 0.930 . S
H1780 C1790 0.930 . S
H1781 C1791 0.930 . S
C1782 H1776 0.930 . S
C1782 C1783 1.355 . S
C1782 C1784 1.415 . S
C1783 C1782 1.355 . S
C1783 C1785 1.419 . S
C1784 C1782 1.415 . S
C1784 C1789 1.425 . S
C1784 C1791 1.409 . S
C1785 H1777 0.930 . S
C1785 C1783 1.419 . S
C1785 C1786 1.362 . S
C1786 H1778 0.930 . S
C1786 C1785 1.362 . S
C1786 C1789 1.409 . S
C1787 H1779 0.930 . S
C1787 C1788 1.355 . S
C1787 C1789 1.415 . S
C1788 C1787 1.355 . S
C1788 C1790 1.419 . S
C1789 C1784 1.425 . S
C1789 C1786 1.409 . S
C1789 C1787 1.415 . S
C1790 H1780 0.930 . S
C1790 C1788 1.419 . S
C1790 C1791 1.362 . S
C1791 H1781 0.930 . S
C1791 C1784 1.409 . S
C1791 C1790 1.362 . S
H1792 C1798 0.930 . S
H1793 C1801 0.930 . S
H1794 C1802 0.930 . S
H1795 C1803 0.930 . S
H1796 C1806 0.930 . S
H1797 C1807 0.930 . S
C1798 H1792 0.930 . S
C1798 C1799 1.355 . S
C1798 C1800 1.415 . S
C1799 C1798 1.355 . S
C1799 C1801 1.419 . S
C1800 C1798 1.415 . S
C1800 C1805 1.425 . S
C1800 C1807 1.409 . S
C1801 H1793 0.930 . S
C1801 C1799 1.419 . S
C1801 C1802 1.362 . S
C1802 H1794 0.930 . S
C1802 C1801 1.362 . S
C1802 C1805 1.409 . S
C1803 H1795 0.930 . S
C1803 C1804 1.355 . S
C1803 C1805 1.415 . S
C1804 C1803 1.355 . S
C1804 C1806 1.419 . S
C1805 C1800 1.425 . S
C1805 C1802 1.409 . S
C1805 C1803 1.415 . S
C1806 H1796 0.930 . S
C1806 C1804 1.419 . S
C1806 C1807 1.362 . S
C1807 H1797 0.930 . S
C1807 C1800 1.409 . S
C1807 C1806 1.362 . S
H1808 C1814 0.930 . S
H1809 C1817 0.930 . S
H1810 C1818 0.930 1_455 S
H1811 C1819 0.930 . S
H1812 C1822 0.930 . S
H1813 C1823 0.930 . S
C1814 H1808 0.930 . S
C1814 C1815 1.355 . S
C1814 C1816 1.415 . S
C1815 C1814 1.355 . S
C1815 C1817 1.419 . S
C1816 C1814 1.415 . S
C1816 C1821 1.425 . S
C1816 C1823 1.409 . S
C1817 H1809 0.930 . S
C1817 C1815 1.419 . S
C1817 C1818 1.362 . S
C1818 H1810 0.930 1_655 S
C1818 C1817 1.362 . S
C1818 C1821 1.409 . S
C1819 H1811 0.930 . S
C1819 C1820 1.355 1_455 S
C1819 C1821 1.415 1_455 S
C1820 C1819 1.355 1_655 S
C1820 C1822 1.419 . S
C1821 C1816 1.425 . S
C1821 C1818 1.409 . S
C1821 C1819 1.415 1_655 S
C1822 H1812 0.930 . S
C1822 C1820 1.419 . S
C1822 C1823 1.362 . S
C1823 H1813 0.930 . S
C1823 C1816 1.409 . S
C1823 C1822 1.362 . S
H1824 C1830 0.930 . S
H1825 C1833 0.930 . S
H1826 C1834 0.930 . S
H1827 C1835 0.930 . S
H1828 C1838 0.930 . S
H1829 C1839 0.930 . S
C1830 H1824 0.930 . S
C1830 C1831 1.355 . S
C1830 C1832 1.415 . S
C1831 C1830 1.355 . S
C1831 C1833 1.419 . S
C1832 C1830 1.415 . S
C1832 C1837 1.425 . S
C1832 C1839 1.409 . S
C1833 H1825 0.930 . S
C1833 C1831 1.419 . S
C1833 C1834 1.362 . S
C1834 H1826 0.930 . S
C1834 C1833 1.362 . S
C1834 C1837 1.409 . S
C1835 H1827 0.930 . S
C1835 C1836 1.355 . S
C1835 C1837 1.415 . S
C1836 C1835 1.355 . S
C1836 C1838 1.419 . S
C1837 C1832 1.425 . S
C1837 C1834 1.409 . S
C1837 C1835 1.415 . S
C1838 H1828 0.930 . S
C1838 C1836 1.419 . S
C1838 C1839 1.362 . S
C1839 H1829 0.930 . S
C1839 C1832 1.409 . S
C1839 C1838 1.362 . S
H1840 C1846 0.930 . S
H1841 C1849 0.930 . S
H1842 C1850 0.930 . S
H1843 C1851 0.930 . S
H1844 C1854 0.930 . S
H1845 C1855 0.930 . S
C1846 H1840 0.930 . S
C1846 C1847 1.355 . S
C1846 C1848 1.415 . S
C1847 C1846 1.355 . S
C1847 C1849 1.419 . S
C1848 C1846 1.415 . S
C1848 C1853 1.425 . S
C1848 C1855 1.409 . S
C1849 H1841 0.930 . S
C1849 C1847 1.419 . S
C1849 C1850 1.362 . S
C1850 H1842 0.930 . S
C1850 C1849 1.362 . S
C1850 C1853 1.409 . S
C1851 H1843 0.930 . S
C1851 C1852 1.355 . S
C1851 C1853 1.415 . S
C1852 C1851 1.355 . S
C1852 C1854 1.419 . S
C1853 C1848 1.425 . S
C1853 C1850 1.409 . S
C1853 C1851 1.415 . S
C1854 H1844 0.930 . S
C1854 C1852 1.419 . S
C1854 C1855 1.362 . S
C1855 H1845 0.930 . S
C1855 C1848 1.409 . S
C1855 C1854 1.362 . S
H1856 C1862 0.930 . S
H1857 C1865 0.930 . S
H1858 C1866 0.930 . S
H1859 C1867 0.930 . S
H1860 C1870 0.930 . S
H1861 C1871 0.930 . S
C1862 H1856 0.930 . S
C1862 C1863 1.355 . S
C1862 C1864 1.415 . S
C1863 C1862 1.355 . S
C1863 C1865 1.419 . S
C1864 C1862 1.415 . S
C1864 C1869 1.425 . S
C1864 C1871 1.409 . S
C1865 H1857 0.930 . S
C1865 C1863 1.419 . S
C1865 C1866 1.362 . S
C1866 H1858 0.930 . S
C1866 C1865 1.362 . S
C1866 C1869 1.409 . S
C1867 H1859 0.930 . S
C1867 C1868 1.355 . S
C1867 C1869 1.415 . S
C1868 C1867 1.355 . S
C1868 C1870 1.419 . S
C1869 C1864 1.425 . S
C1869 C1866 1.409 . S
C1869 C1867 1.415 . S
C1870 H1860 0.930 . S
C1870 C1868 1.419 . S
C1870 C1871 1.362 . S
C1871 H1861 0.930 . S
C1871 C1864 1.409 . S
C1871 C1870 1.362 . S
H1872 C1878 0.930 . S
H1873 C1881 0.930 . S
H1874 C1882 0.930 . S
H1875 C1883 0.930 . S
H1876 C1886 0.934 1_455 S
H1877 C1887 0.927 1_455 S
C1878 H1872 0.930 . S
C1878 C1879 1.355 . S
C1878 C1880 1.415 . S
C1879 C1878 1.355 . S
C1879 C1881 1.419 . S
C1880 C1878 1.415 . S
C1880 C1885 1.425 . S
C1880 C1887 1.409 . S
C1881 H1873 0.930 . S
C1881 C1879 1.419 . S
C1881 C1882 1.362 . S
C1882 H1874 0.930 . S
C1882 C1881 1.362 . S
C1882 C1885 1.409 . S
C1883 H1875 0.930 . S
C1883 C1884 1.355 . S
C1883 C1885 1.415 . S
C1884 C1883 1.355 . S
C1884 C1886 1.417 . S
C1885 C1880 1.425 . S
C1885 C1882 1.409 . S
C1885 C1883 1.415 . S
C1886 H1876 0.934 1_655 S
C1886 C1884 1.417 . S
C1886 C1887 1.361 . S
C1887 H1877 0.927 1_655 S
C1887 C1880 1.409 . S
C1887 C1886 1.361 . S
H1888 C1894 0.930 . S
H1889 C1897 0.930 . S
H1890 C1898 0.930 . S
H1891 C1899 0.930 . S
H1892 C1902 0.930 . S
H1893 C1903 0.930 . S
C1894 H1888 0.930 . S
C1894 C1895 1.355 . S
C1894 C1896 1.415 . S
C1895 C1894 1.355 . S
C1895 C1897 1.419 . S
C1896 C1894 1.415 . S
C1896 C1901 1.425 . S
C1896 C1903 1.409 . S
C1897 H1889 0.930 . S
C1897 C1895 1.419 . S
C1897 C1898 1.362 . S
C1898 H1890 0.930 . S
C1898 C1897 1.362 . S
C1898 C1901 1.409 . S
C1899 H1891 0.930 . S
C1899 C1900 1.355 . S
C1899 C1901 1.415 . S
C1900 C1899 1.355 . S
C1900 C1902 1.419 . S
C1901 C1896 1.425 . S
C1901 C1898 1.409 . S
C1901 C1899 1.415 . S
C1902 H1892 0.930 . S
C1902 C1900 1.419 . S
C1902 C1903 1.362 . S
C1903 H1893 0.930 . S
C1903 C1896 1.409 . S
C1903 C1902 1.362 . S
H1904 C1910 0.930 . S
H1905 C1913 0.930 . S
H1906 C1914 0.930 . S
H1907 C1915 0.930 . S
H1908 C1918 0.930 . S
H1909 C1919 0.930 . S
C1910 H1904 0.930 . S
C1910 C1911 1.355 . S
C1910 C1912 1.415 . S
C1911 C1910 1.355 . S
C1911 C1913 1.419 . S
C1912 C1910 1.415 . S
C1912 C1917 1.425 . S
C1912 C1919 1.409 . S
C1913 H1905 0.930 . S
C1913 C1911 1.419 . S
C1913 C1914 1.362 . S
C1914 H1906 0.930 . S
C1914 C1913 1.362 . S
C1914 C1917 1.409 . S
C1915 H1907 0.930 . S
C1915 C1916 1.355 . S
C1915 C1917 1.415 . S
C1916 C1915 1.355 . S
C1916 C1918 1.419 . S
C1917 C1912 1.425 . S
C1917 C1914 1.409 . S
C1917 C1915 1.415 . S
C1918 H1908 0.930 . S
C1918 C1916 1.419 . S
C1918 C1919 1.362 . S
C1919 H1909 0.930 . S
C1919 C1912 1.409 . S
C1919 C1918 1.362 . S
H1920 C1926 0.930 . S
H1921 C1929 0.930 . S
H1922 C1930 0.930 . S
H1923 C1931 0.930 . S
H1924 C1934 0.930 . S
H1925 C1935 0.930 . S
C1926 H1920 0.930 . S
C1926 C1927 1.355 . S
C1926 C1928 1.415 . S
C1927 C1926 1.355 . S
C1927 C1929 1.419 . S
C1928 C1926 1.415 . S
C1928 C1933 1.425 . S
C1928 C1935 1.409 . S
C1929 H1921 0.930 . S
C1929 C1927 1.419 . S
C1929 C1930 1.362 . S
C1930 H1922 0.930 . S
C1930 C1929 1.362 . S
C1930 C1933 1.409 . S
C1931 H1923 0.930 . S
C1931 C1932 1.355 . S
C1931 C1933 1.415 . S
C1932 C1931 1.355 . S
C1932 C1934 1.419 . S
C1933 C1928 1.425 . S
C1933 C1930 1.409 . S
C1933 C1931 1.415 . S
C1934 H1924 0.930 . S
C1934 C1932 1.419 . S
C1934 C1935 1.362 . S
C1935 H1925 0.930 . S
C1935 C1928 1.409 . S
C1935 C1934 1.362 . S
H1936 C1942 0.930 . S
H1937 C1945 0.930 . S
H1938 C1946 0.930 . S
H1939 C1947 0.930 . S
H1940 C1950 0.930 . S
H1941 C1951 0.930 . S
C1942 H1936 0.930 . S
C1942 C1943 1.355 . S
C1942 C1944 1.415 . S
C1943 C1942 1.355 . S
C1943 C1945 1.419 . S
C1944 C1942 1.415 . S
C1944 C1949 1.425 . S
C1944 C1951 1.409 . S
C1945 H1937 0.930 . S
C1945 C1943 1.419 . S
C1945 C1946 1.362 . S
C1946 H1938 0.930 . S
C1946 C1945 1.362 . S
C1946 C1949 1.409 . S
C1947 H1939 0.930 . S
C1947 C1948 1.355 . S
C1947 C1949 1.415 . S
C1948 C1947 1.355 . S
C1948 C1950 1.419 . S
C1949 C1944 1.425 . S
C1949 C1946 1.409 . S
C1949 C1947 1.415 . S
C1950 H1940 0.930 . S
C1950 C1948 1.419 . S
C1950 C1951 1.362 . S
C1951 H1941 0.930 . S
C1951 C1944 1.409 . S
C1951 C1950 1.362 . S
H1952 C1958 0.930 . S
H1953 C1961 0.930 . S
H1954 C1962 0.930 . S
H1955 C1963 0.930 . S
H1956 C1966 0.930 . S
H1957 C1967 0.930 1_556 S
C1958 H1952 0.930 . S
C1958 C1959 1.355 . S
C1958 C1960 1.415 . S
C1959 C1958 1.355 . S
C1959 C1961 1.419 . S
C1960 C1958 1.415 . S
C1960 C1965 1.425 . S
C1960 C1967 1.409 . S
C1961 H1953 0.930 . S
C1961 C1959 1.419 . S
C1961 C1962 1.362 . S
C1962 H1954 0.930 . S
C1962 C1961 1.362 . S
C1962 C1965 1.409 . S
C1963 H1955 0.930 . S
C1963 C1964 1.355 . S
C1963 C1965 1.415 . S
C1964 C1963 1.355 . S
C1964 C1966 1.419 . S
C1965 C1960 1.425 . S
C1965 C1962 1.409 . S
C1965 C1963 1.415 . S
C1966 H1956 0.930 . S
C1966 C1964 1.419 . S
C1966 C1967 1.362 . S
C1967 H1957 0.930 1_554 S
C1967 C1960 1.409 . S
C1967 C1966 1.362 . S
H1968 C1974 0.930 . S
H1969 C1977 0.930 . S
H1970 C1978 0.930 . S
H1971 C1979 0.930 . S
H1972 C1982 0.930 . S
H1973 C1983 0.930 . S
C1974 H1968 0.930 . S
C1974 C1975 1.355 . S
C1974 C1976 1.415 . S
C1975 C1974 1.355 . S
C1975 C1977 1.419 . S
C1976 C1974 1.415 . S
C1976 C1981 1.425 . S
C1976 C1983 1.409 . S
C1977 H1969 0.930 . S
C1977 C1975 1.419 . S
C1977 C1978 1.362 . S
C1978 H1970 0.930 . S
C1978 C1977 1.362 . S
C1978 C1981 1.409 . S
C1979 H1971 0.930 . S
C1979 C1980 1.355 . S
C1979 C1981 1.415 . S
C1980 C1979 1.355 . S
C1980 C1982 1.419 . S
C1981 C1976 1.425 . S
C1981 C1978 1.409 . S
C1981 C1979 1.415 . S
C1982 H1972 0.930 . S
C1982 C1980 1.419 . S
C1982 C1983 1.362 . S
C1983 H1973 0.930 . S
C1983 C1976 1.409 . S
C1983 C1982 1.362 . S
H1984 C1990 0.930 . S
H1985 C1993 0.930 . S
H1986 C1994 0.930 . S
H1987 C1995 0.930 . S
H1988 C1998 0.930 . S
H1989 C1999 0.930 . S
C1990 H1984 0.930 . S
C1990 C1991 1.355 . S
C1990 C1992 1.415 . S
C1991 C1990 1.355 . S
C1991 C1993 1.419 . S
C1992 C1990 1.415 . S
C1992 C1997 1.425 . S
C1992 C1999 1.409 . S
C1993 H1985 0.930 . S
C1993 C1991 1.419 . S
C1993 C1994 1.362 . S
C1994 H1986 0.930 . S
C1994 C1993 1.362 . S
C1994 C1997 1.409 . S
C1995 H1987 0.930 . S
C1995 C1996 1.355 . S
C1995 C1997 1.415 . S
C1996 C1995 1.355 . S
C1996 C1998 1.419 . S
C1997 C1992 1.425 . S
C1997 C1994 1.409 . S
C1997 C1995 1.415 . S
C1998 H1988 0.930 . S
C1998 C1996 1.419 . S
C1998 C1999 1.362 . S
C1999 H1989 0.930 . S
C1999 C1992 1.409 . S
C1999 C1998 1.362 . S
H2000 C2006 0.930 . S
H2001 C2009 0.930 . S
H2002 C2010 0.930 . S
H2003 C2011 0.930 . S
H2004 C2014 0.930 . S
H2005 C2015 0.930 . S
C2006 H2000 0.930 . S
C2006 C2007 1.355 . S
C2006 C2008 1.415 . S
C2007 C2006 1.355 . S
C2007 C2009 1.419 . S
C2008 C2006 1.415 . S
C2008 C2013 1.425 . S
C2008 C2015 1.409 . S
C2009 H2001 0.930 . S
C2009 C2007 1.419 . S
C2009 C2010 1.362 . S
C2010 H2002 0.930 . S
C2010 C2009 1.362 . S
C2010 C2013 1.409 . S
C2011 H2003 0.930 . S
C2011 C2012 1.355 . S
C2011 C2013 1.415 . S
C2012 C2011 1.355 . S
C2012 C2014 1.419 . S
C2013 C2008 1.425 . S
C2013 C2010 1.409 . S
C2013 C2011 1.415 . S
C2014 H2004 0.930 . S
C2014 C2012 1.419 . S
C2014 C2015 1.362 . S
C2015 H2005 0.930 . S
C2015 C2008 1.409 . S
C2015 C2014 1.362 . S
H2016 C2022 0.930 . S
H2017 C2025 0.930 . S
H2018 C2026 0.930 . S
H2019 C2027 0.930 . S
H2020 C2030 0.930 . S
H2021 C2031 0.930 . S
C2022 H2016 0.930 . S
C2022 C2023 1.355 . S
C2022 C2024 1.415 . S
C2023 C2022 1.355 . S
C2023 C2025 1.419 . S
C2024 C2022 1.415 . S
C2024 C2029 1.425 . S
C2024 C2031 1.409 . S
C2025 H2017 0.930 . S
C2025 C2023 1.419 . S
C2025 C2026 1.362 . S
C2026 H2018 0.930 . S
C2026 C2025 1.362 . S
C2026 C2029 1.409 . S
C2027 H2019 0.930 . S
C2027 C2028 1.355 . S
C2027 C2029 1.415 . S
C2028 C2027 1.355 . S
C2028 C2030 1.419 . S
C2029 C2024 1.425 . S
C2029 C2026 1.409 . S
C2029 C2027 1.415 . S
C2030 H2020 0.930 . S
C2030 C2028 1.419 . S
C2030 C2031 1.362 . S
C2031 H2021 0.930 . S
C2031 C2024 1.409 . S
C2031 C2030 1.362 . S
H2032 C2038 0.930 . S
H2033 C2041 0.930 . S
H2034 C2042 0.930 . S
H2035 C2043 0.930 . S
H2036 C2046 0.930 . S
H2037 C2047 0.930 . S
C2038 H2032 0.930 . S
C2038 C2039 1.355 . S
C2038 C2040 1.415 . S
C2039 C2038 1.355 . S
C2039 C2041 1.419 . S
C2040 C2038 1.415 . S
C2040 C2045 1.425 . S
C2040 C2047 1.409 . S
C2041 H2033 0.930 . S
C2041 C2039 1.419 . S
C2041 C2042 1.362 . S
C2042 H2034 0.930 . S
C2042 C2041 1.362 . S
C2042 C2045 1.409 . S
C2043 H2035 0.930 . S
C2043 C2044 1.355 . S
C2043 C2045 1.415 . S
C2044 C2043 1.355 . S
C2044 C2046 1.419 . S
C2045 C2040 1.425 . S
C2045 C2042 1.409 . S
C2045 C2043 1.415 . S
C2046 H2036 0.930 . S
C2046 C2044 1.419 . S
C2046 C2047 1.362 . S
C2047 H2037 0.930 . S
C2047 C2040 1.409 . S
C2047 C2046 1.362 . S
H2048 C2054 0.930 . S
H2049 C2057 0.930 . S
H2050 C2058 0.930 . S
H2051 C2059 0.930 . S
H2052 C2062 0.930 . S
H2053 C2063 0.930 . S
C2054 H2048 0.930 . S
C2054 C2055 1.355 . S
C2054 C2056 1.415 . S
C2055 C2054 1.355 . S
C2055 C2057 1.419 . S
C2056 C2054 1.415 . S
C2056 C2061 1.425 . S
C2056 C2063 1.409 . S
C2057 H2049 0.930 . S
C2057 C2055 1.419 . S
C2057 C2058 1.362 . S
C2058 H2050 0.930 . S
C2058 C2057 1.362 . S
C2058 C2061 1.409 . S
C2059 H2051 0.930 . S
C2059 C2060 1.355 . S
C2059 C2061 1.415 . S
C2060 C2059 1.355 . S
C2060 C2062 1.419 . S
C2061 C2056 1.425 . S
C2061 C2058 1.409 . S
C2061 C2059 1.415 . S
C2062 H2052 0.930 . S
C2062 C2060 1.419 . S
C2062 C2063 1.362 . S
C2063 H2053 0.930 . S
C2063 C2056 1.409 . S
C2063 C2062 1.362 . S
H2064 C2070 0.930 . S
H2065 C2073 0.930 . S
H2066 C2074 0.930 . S
H2067 C2075 0.930 . S
H2068 C2078 0.930 . S
H2069 C2079 0.930 . S
C2070 H2064 0.930 . S
C2070 C2071 1.355 1_655 S
C2070 C2072 1.415 . S
C2071 C2070 1.355 1_455 S
C2071 C2073 1.419 . S
C2072 C2070 1.415 . S
C2072 C2077 1.425 1_655 S
C2072 C2079 1.409 . S
C2073 H2065 0.930 . S
C2073 C2071 1.419 . S
C2073 C2074 1.362 . S
C2074 H2066 0.930 . S
C2074 C2073 1.362 . S
C2074 C2077 1.409 . S
C2075 H2067 0.930 . S
C2075 C2076 1.355 1_455 S
C2075 C2077 1.415 . S
C2076 C2075 1.355 1_655 S
C2076 C2078 1.419 . S
C2077 C2072 1.425 1_455 S
C2077 C2074 1.409 . S
C2077 C2075 1.415 . S
C2078 H2068 0.930 . S
C2078 C2076 1.419 . S
C2078 C2079 1.362 . S
C2079 H2069 0.930 . S
C2079 C2072 1.409 . S
C2079 C2078 1.362 . S
H2080 C2086 0.930 . S
H2081 C2089 0.930 . S
H2082 C2090 0.930 . S
H2083 C2091 0.930 . S
H2084 C2094 0.930 . S
H2085 C2095 0.930 . S
C2086 H2080 0.930 . S
C2086 C2087 1.355 . S
C2086 C2088 1.415 . S
C2087 C2086 1.355 . S
C2087 C2089 1.419 . S
C2088 C2086 1.415 . S
C2088 C2093 1.425 . S
C2088 C2095 1.409 . S
C2089 H2081 0.930 . S
C2089 C2087 1.419 . S
C2089 C2090 1.362 . S
C2090 H2082 0.930 . S
C2090 C2089 1.362 . S
C2090 C2093 1.409 . S
C2091 H2083 0.930 . S
C2091 C2092 1.355 . S
C2091 C2093 1.415 . S
C2092 C2091 1.355 . S
C2092 C2094 1.419 . S
C2093 C2088 1.425 . S
C2093 C2090 1.409 . S
C2093 C2091 1.415 . S
C2094 H2084 0.930 . S
C2094 C2092 1.419 . S
C2094 C2095 1.362 . S
C2095 H2085 0.930 . S
C2095 C2088 1.409 . S
C2095 C2094 1.362 . S
H2096 C2102 0.930 . S
H2097 C2105 0.930 . S
H2098 C2106 0.930 . S
H2099 C2107 0.930 . S
H2100 C2110 0.930 . S
H2101 C2111 0.930 . S
C2102 H2096 0.930 . S
C2102 C2103 1.355 . S
C2102 C2104 1.415 . S
C2103 C2102 1.355 . S
C2103 C2105 1.419 . S
C2104 C2102 1.415 . S
C2104 C2109 1.425 . S
C2104 C2111 1.409 . S
C2105 H2097 0.930 . S
C2105 C2103 1.419 . S
C2105 C2106 1.362 . S
C2106 H2098 0.930 . S
C2106 C2105 1.362 . S
C2106 C2109 1.409 . S
C2107 H2099 0.930 . S
C2107 C2108 1.355 . S
C2107 C2109 1.415 . S
C2108 C2107 1.355 . S
C2108 C2110 1.419 . S
C2109 C2104 1.425 . S
C2109 C2106 1.409 . S
C2109 C2107 1.415 . S
C2110 H2100 0.930 . S
C2110 C2108 1.419 . S
C2110 C2111 1.362 . S
C2111 H2101 0.930 . S
C2111 C2104 1.409 . S
C2111 C2110 1.362 . S
H2112 C2118 0.930 . S
H2113 C2121 0.930 . S
H2114 C2122 0.930 . S
H2115 C2123 0.930 . S
H2116 C2126 0.930 . S
H2117 C2127 0.930 . S
C2118 H2112 0.930 . S
C2118 C2119 1.355 . S
C2118 C2120 1.415 . S
C2119 C2118 1.355 . S
C2119 C2121 1.419 . S
C2120 C2118 1.415 . S
C2120 C2125 1.425 . S
C2120 C2127 1.409 . S
C2121 H2113 0.930 . S
C2121 C2119 1.419 . S
C2121 C2122 1.362 . S
C2122 H2114 0.930 . S
C2122 C2121 1.362 . S
C2122 C2125 1.409 . S
C2123 H2115 0.930 . S
C2123 C2124 1.355 . S
C2123 C2125 1.415 . S
C2124 C2123 1.355 . S
C2124 C2126 1.419 . S
C2125 C2120 1.425 . S
C2125 C2122 1.409 . S
C2125 C2123 1.415 . S
C2126 H2116 0.930 . S
C2126 C2124 1.419 . S
C2126 C2127 1.362 . S
C2127 H2117 0.930 . S
C2127 C2120 1.409 . S
C2127 C2126 1.362 . S
H2128 C2134 0.930 . S
H2129 C2137 0.930 . S
H2130 C2138 0.930 . S
H2131 C2139 0.930 . S
H2132 C2142 0.930 . S
H2133 C2143 0.930 . S
C2134 H2128 0.930 . S
C2134 C2135 1.355 . S
C2134 C2136 1.415 . S
C2135 C2134 1.355 . S
C2135 C2137 1.419 . S
C2136 C2134 1.415 . S
C2136 C2141 1.425 . S
C2136 C2143 1.409 . S
C2137 H2129 0.930 . S
C2137 C2135 1.419 . S
C2137 C2138 1.362 . S
C2138 H2130 0.930 . S
C2138 C2137 1.362 . S
C2138 C2141 1.409 . S
C2139 H2131 0.930 . S
C2139 C2140 1.355 . S
C2139 C2141 1.415 . S
C2140 C2139 1.355 . S
C2140 C2142 1.419 . S
C2141 C2136 1.425 . S
C2141 C2138 1.409 . S
C2141 C2139 1.415 . S
C2142 H2132 0.930 . S
C2142 C2140 1.419 . S
C2142 C2143 1.362 . S
C2143 H2133 0.930 . S
C2143 C2136 1.409 . S
C2143 C2142 1.362 . S
H2144 C2150 0.930 . S
H2145 C2153 0.930 . S
H2146 C2154 0.930 . S
H2147 C2155 0.930 . S
H2148 C2158 0.930 . S
H2149 C2159 0.930 . S
C2150 H2144 0.930 . S
C2150 C2151 1.355 . S
C2150 C2152 1.415 . S
C2151 C2150 1.355 . S
C2151 C2153 1.419 . S
C2152 C2150 1.415 . S
C2152 C2157 1.425 . S
C2152 C2159 1.409 . S
C2153 H2145 0.930 . S
C2153 C2151 1.419 . S
C2153 C2154 1.362 . S
C2154 H2146 0.930 . S
C2154 C2153 1.362 . S
C2154 C2157 1.409 . S
C2155 H2147 0.930 . S
C2155 C2156 1.355 . S
C2155 C2157 1.415 . S
C2156 C2155 1.355 . S
C2156 C2158 1.419 . S
C2157 C2152 1.425 . S
C2157 C2154 1.409 . S
C2157 C2155 1.415 . S
C2158 H2148 0.930 . S
C2158 C2156 1.419 . S
C2158 C2159 1.362 . S
C2159 H2149 0.930 . S
C2159 C2152 1.409 . S
C2159 C2158 1.362 . S
H2160 C2166 0.930 . S
H2161 C2169 0.930 . S
H2162 C2170 0.930 . S
H2163 C2171 0.930 . S
H2164 C2174 0.930 . S
H2165 C2175 0.930 . S
C2166 H2160 0.930 . S
C2166 C2167 1.355 . S
C2166 C2168 1.415 . S
C2167 C2166 1.355 . S
C2167 C2169 1.419 . S
C2168 C2166 1.415 . S
C2168 C2173 1.425 . S
C2168 C2175 1.409 . S
C2169 H2161 0.930 . S
C2169 C2167 1.419 . S
C2169 C2170 1.362 . S
C2170 H2162 0.930 . S
C2170 C2169 1.362 . S
C2170 C2173 1.409 . S
C2171 H2163 0.930 . S
C2171 C2172 1.355 . S
C2171 C2173 1.415 . S
C2172 C2171 1.355 . S
C2172 C2174 1.419 . S
C2173 C2168 1.425 . S
C2173 C2170 1.409 . S
C2173 C2171 1.415 . S
C2174 H2164 0.930 . S
C2174 C2172 1.419 . S
C2174 C2175 1.362 . S
C2175 H2165 0.930 . S
C2175 C2168 1.409 . S
C2175 C2174 1.362 . S
H2176 C2182 0.930 . S
H2177 C2185 0.930 . S
H2178 C2186 0.930 . S
H2179 C2187 0.930 . S
H2180 C2190 0.930 . S
H2181 C2191 0.930 . S
C2182 H2176 0.930 . S
C2182 C2183 1.355 . S
C2182 C2184 1.415 . S
C2183 C2182 1.355 . S
C2183 C2185 1.419 . S
C2184 C2182 1.415 . S
C2184 C2189 1.425 . S
C2184 C2191 1.409 . S
C2185 H2177 0.930 . S
C2185 C2183 1.419 . S
C2185 C2186 1.362 . S
C2186 H2178 0.930 . S
C2186 C2185 1.362 . S
C2186 C2189 1.409 . S
C2187 H2179 0.930 . S
C2187 C2188 1.355 . S
C2187 C2189 1.415 . S
C2188 C2187 1.355 . S
C2188 C2190 1.419 . S
C2189 C2184 1.425 . S
C2189 C2186 1.409 . S
C2189 C2187 1.415 . S
C2190 H2180 0.930 . S
C2190 C2188 1.419 . S
C2190 C2191 1.362 . S
C2191 H2181 0.930 . S
C2191 C2184 1.409 . S
C2191 C2190 1.362 . S
H2192 C2198 0.930 . S
H2193 C2201 0.930 . S
H2194 C2202 0.930 . S
H2195 C2203 0.930 . S
H2196 C2206 0.930 . S
H2197 C2207 0.930 . S
C2198 H2192 0.930 . S
C2198 C2199 1.355 . S
C2198 C2200 1.415 . S
C2199 C2198 1.355 . S
C2199 C2201 1.419 . S
C2200 C2198 1.415 . S
C2200 C2205 1.425 . S
C2200 C2207 1.409 . S
C2201 H2193 0.930 . S
C2201 C2199 1.419 . S
C2201 C2202 1.362 . S
C2202 H2194 0.930 . S
C2202 C2201 1.362 . S
C2202 C2205 1.409 . S
C2203 H2195 0.930 . S
C2203 C2204 1.355 . S
C2203 C2205 1.415 . S
C2204 C2203 1.355 . S
C2204 C2206 1.419 . S
C2205 C2200 1.425 . S
C2205 C2202 1.409 . S
C2205 C2203 1.415 . S
C2206 H2196 0.930 . S
C2206 C2204 1.419 . S
C2206 C2207 1.362 . S
C2207 H2197 0.930 . S
C2207 C2200 1.409 . S
C2207 C2206 1.362 . S
H2208 C2214 0.930 . S
H2209 C2217 0.930 . S
H2210 C2218 0.930 . S
H2211 C2219 0.930 . S
H2212 C2222 0.930 . S
H2213 C2223 0.930 . S
C2214 H2208 0.930 . S
C2214 C2215 1.355 . S
C2214 C2216 1.415 . S
C2215 C2214 1.355 . S
C2215 C2217 1.419 . S
C2216 C2214 1.415 . S
C2216 C2221 1.425 . S
C2216 C2223 1.409 . S
C2217 H2209 0.930 . S
C2217 C2215 1.419 . S
C2217 C2218 1.362 . S
C2218 H2210 0.930 . S
C2218 C2217 1.362 . S
C2218 C2221 1.409 . S
C2219 H2211 0.930 . S
C2219 C2220 1.355 . S
C2219 C2221 1.415 . S
C2220 C2219 1.355 . S
C2220 C2222 1.419 . S
C2221 C2216 1.425 . S
C2221 C2218 1.409 . S
C2221 C2219 1.415 . S
C2222 H2212 0.930 . S
C2222 C2220 1.419 . S
C2222 C2223 1.362 . S
C2223 H2213 0.930 . S
C2223 C2216 1.409 . S
C2223 C2222 1.362 . S
H2224 C2230 0.930 . S
H2225 C2233 0.930 . S
H2226 C2234 0.930 . S
H2227 C2235 0.930 . S
H2228 C2238 0.930 . S
H2229 C2239 0.930 . S
C2230 H2224 0.930 . S
C2230 C2231 1.355 . S
C2230 C2232 1.415 . S
C2231 C2230 1.355 . S
C2231 C2233 1.419 . S
C2232 C2230 1.415 . S
C2232 C2237 1.425 . S
C2232 C2239 1.409 . S
C2233 H2225 0.930 . S
C2233 C2231 1.419 . S
C2233 C2234 1.362 . S
C2234 H2226 0.930 . S
C2234 C2233 1.362 . S
C2234 C2237 1.409 . S
C2235 H2227 0.930 . S
C2235 C2236 1.355 . S
C2235 C2237 1.415 . S
C2236 C2235 1.355 . S
C2236 C2238 1.419 . S
C2237 C2232 1.425 . S
C2237 C2234 1.409 . S
C2237 C2235 1.415 . S
C2238 H2228 0.930 . S
C2238 C2236 1.419 . S
C2238 C2239 1.362 . S
C2239 H2229 0.930 . S
C2239 C2232 1.409 . S
C2239 C2238 1.362 . S
H2240 C2246 0.930 . S
H2241 C2249 0.930 . S
H2242 C2250 0.930 . S
H2243 C2251 0.930 . S
H2244 C2254 0.930 . S
H2245 C2255 0.930 . S
C2246 H2240 0.930 . S
C2246 C2247 1.355 . S
C2246 C2248 1.415 . S
C2247 C2246 1.355 . S
C2247 C2249 1.419 . S
C2248 C2246 1.415 . S
C2248 C2253 1.425 . S
C2248 C2255 1.409 . S
C2249 H2241 0.930 . S
C2249 C2247 1.419 . S
C2249 C2250 1.362 . S
C2250 H2242 0.930 . S
C2250 C2249 1.362 . S
C2250 C2253 1.409 . S
C2251 H2243 0.930 . S
C2251 C2252 1.355 . S
C2251 C2253 1.415 . S
C2252 C2251 1.355 . S
C2252 C2254 1.419 . S
C2253 C2248 1.425 . S
C2253 C2250 1.409 . S
C2253 C2251 1.415 . S
C2254 H2244 0.930 . S
C2254 C2252 1.419 . S
C2254 C2255 1.362 . S
C2255 H2245 0.930 . S
C2255 C2248 1.409 . S
C2255 C2254 1.362 . S
H2256 C2262 0.930 . S
H2257 C2265 0.930 . S
H2258 C2266 0.930 . S
H2259 C2267 0.930 . S
H2260 C2270 0.930 . S
H2261 C2271 0.930 . S
C2262 H2256 0.930 . S
C2262 C2263 1.355 . S
C2262 C2264 1.415 . S
C2263 C2262 1.355 . S
C2263 C2265 1.419 . S
C2264 C2262 1.415 . S
C2264 C2269 1.425 . S
C2264 C2271 1.409 . S
C2265 H2257 0.930 . S
C2265 C2263 1.419 . S
C2265 C2266 1.362 . S
C2266 H2258 0.930 . S
C2266 C2265 1.362 . S
C2266 C2269 1.409 . S
C2267 H2259 0.930 . S
C2267 C2268 1.355 . S
C2267 C2269 1.415 . S
C2268 C2267 1.355 . S
C2268 C2270 1.419 . S
C2269 C2264 1.425 . S
C2269 C2266 1.409 . S
C2269 C2267 1.415 . S
C2270 H2260 0.930 . S
C2270 C2268 1.419 . S
C2270 C2271 1.362 . S
C2271 H2261 0.930 . S
C2271 C2264 1.409 . S
C2271 C2270 1.362 . S
H2272 C2278 0.930 . S
H2273 C2281 0.930 . S
H2274 C2282 0.930 . S
H2275 C2283 0.930 . S
H2276 C2286 0.930 . S
H2277 C2287 0.930 . S
C2278 H2272 0.930 . S
C2278 C2279 1.355 . S
C2278 C2280 1.415 . S
C2279 C2278 1.355 . S
C2279 C2281 1.419 . S
C2280 C2278 1.415 . S
C2280 C2285 1.425 . S
C2280 C2287 1.409 . S
C2281 H2273 0.930 . S
C2281 C2279 1.419 . S
C2281 C2282 1.362 . S
C2282 H2274 0.930 . S
C2282 C2281 1.362 . S
C2282 C2285 1.409 . S
C2283 H2275 0.930 . S
C2283 C2284 1.355 . S
C2283 C2285 1.415 . S
C2284 C2283 1.355 . S
C2284 C2286 1.419 . S
C2285 C2280 1.425 . S
C2285 C2282 1.409 . S
C2285 C2283 1.415 . S
C2286 H2276 0.930 . S
C2286 C2284 1.419 . S
C2286 C2287 1.362 . S
C2287 H2277 0.930 . S
C2287 C2280 1.409 . S
C2287 C2286 1.362 . S
H2288 C2294 0.930 . S
H2289 C2297 0.930 . S
H2290 C2298 0.930 . S
H2291 C2299 0.930 . S
H2292 C2302 0.930 . S
H2293 C2303 0.930 . S
C2294 H2288 0.930 . S
C2294 C2295 1.355 . S
C2294 C2296 1.415 . S
C2295 C2294 1.355 . S
C2295 C2297 1.419 . S
C2296 C2294 1.415 . S
C2296 C2301 1.425 . S
C2296 C2303 1.409 . S
C2297 H2289 0.930 . S
C2297 C2295 1.419 . S
C2297 C2298 1.362 . S
C2298 H2290 0.930 . S
C2298 C2297 1.362 . S
C2298 C2301 1.409 . S
C2299 H2291 0.930 . S
C2299 C2300 1.355 . S
C2299 C2301 1.415 . S
C2300 C2299 1.355 . S
C2300 C2302 1.419 . S
C2301 C2296 1.425 . S
C2301 C2298 1.409 . S
C2301 C2299 1.415 . S
C2302 H2292 0.930 . S
C2302 C2300 1.419 . S
C2302 C2303 1.362 . S
C2303 H2293 0.930 . S
C2303 C2296 1.409 . S
C2303 C2302 1.362 . S
H2304 C2310 0.930 . S
H2305 C2313 0.930 . S
H2306 C2314 0.930 . S
H2307 C2315 0.930 . S
H2308 C2318 0.903 1_565 S
H2309 C2319 0.930 . S
C2310 H2304 0.930 . S
C2310 C2311 1.355 . S
C2310 C2312 1.415 . S
C2311 C2310 1.355 . S
C2311 C2313 1.419 . S
C2312 C2310 1.415 . S
C2312 C2317 1.425 . S
C2312 C2319 1.409 . S
C2313 H2305 0.930 . S
C2313 C2311 1.419 . S
C2313 C2314 1.362 . S
C2314 H2306 0.930 . S
C2314 C2313 1.362 . S
C2314 C2317 1.409 . S
C2315 H2307 0.930 . S
C2315 C2316 1.355 . S
C2315 C2317 1.415 . S
C2316 C2315 1.355 . S
C2316 C2318 1.419 . S
C2317 C2312 1.425 . S
C2317 C2314 1.409 . S
C2317 C2315 1.415 . S
C2318 H2308 0.903 1_545 S
C2318 C2316 1.419 . S
C2318 C2319 1.362 . S
C2319 H2309 0.930 . S
C2319 C2312 1.409 . S
C2319 C2318 1.362 . S
H2320 C2326 0.930 . S
H2321 C2329 0.930 . S
H2322 C2330 0.930 . S
H2323 C2331 0.930 . S
H2324 C2334 0.930 . S
H2325 C2335 0.930 . S
C2326 H2320 0.930 . S
C2326 C2327 1.355 . S
C2326 C2328 1.415 . S
C2327 C2326 1.355 . S
C2327 C2329 1.419 . S
C2328 C2326 1.415 . S
C2328 C2333 1.425 . S
C2328 C2335 1.409 . S
C2329 H2321 0.930 . S
C2329 C2327 1.419 . S
C2329 C2330 1.362 . S
C2330 H2322 0.930 . S
C2330 C2329 1.362 . S
C2330 C2333 1.409 . S
C2331 H2323 0.930 . S
C2331 C2332 1.355 . S
C2331 C2333 1.415 . S
C2332 C2331 1.355 . S
C2332 C2334 1.419 . S
C2333 C2328 1.425 . S
C2333 C2330 1.409 . S
C2333 C2331 1.415 . S
C2334 H2324 0.930 . S
C2334 C2332 1.419 . S
C2334 C2335 1.362 . S
C2335 H2325 0.930 . S
C2335 C2328 1.409 . S
C2335 C2334 1.362 . S
H2336 C2342 0.930 . S
H2337 C2345 0.930 . S
H2338 C2346 0.930 1_545 S
H2339 C2347 0.930 1_545 S
H2340 C2350 0.930 . S
H2341 C2351 0.930 . S
C2342 H2336 0.930 . S
C2342 C2343 1.355 . S
C2342 C2344 1.415 . S
C2343 C2342 1.355 . S
C2343 C2345 1.419 . S
C2344 C2342 1.415 . S
C2344 C2349 1.425 . S
C2344 C2351 1.409 . S
C2345 H2337 0.930 . S
C2345 C2343 1.419 . S
C2345 C2346 1.362 . S
C2346 H2338 0.930 1_565 S
C2346 C2345 1.362 . S
C2346 C2349 1.409 . S
C2347 H2339 0.930 1_565 S
C2347 C2348 1.355 . S
C2347 C2349 1.415 . S
C2348 C2347 1.355 . S
C2348 C2350 1.419 . S
C2349 C2344 1.425 . S
C2349 C2346 1.409 . S
C2349 C2347 1.415 . S
C2350 H2340 0.930 . S
C2350 C2348 1.419 . S
C2350 C2351 1.362 . S
C2351 H2341 0.930 . S
C2351 C2344 1.409 . S
C2351 C2350 1.362 . S
H2352 C2358 0.930 . S
H2353 C2361 0.930 . S
H2354 C2362 0.930 . S
H2355 C2363 0.930 . S
H2356 C2366 0.930 . S
H2357 C2367 0.930 . S
C2358 H2352 0.930 . S
C2358 C2359 1.355 . S
C2358 C2360 1.415 . S
C2359 C2358 1.355 . S
C2359 C2361 1.419 . S
C2360 C2358 1.415 . S
C2360 C2365 1.425 . S
C2360 C2367 1.409 . S
C2361 H2353 0.930 . S
C2361 C2359 1.419 . S
C2361 C2362 1.362 . S
C2362 H2354 0.930 . S
C2362 C2361 1.362 . S
C2362 C2365 1.409 . S
C2363 H2355 0.930 . S
C2363 C2364 1.355 . S
C2363 C2365 1.415 . S
C2364 C2363 1.355 . S
C2364 C2366 1.419 . S
C2365 C2360 1.425 . S
C2365 C2362 1.409 . S
C2365 C2363 1.415 . S
C2366 H2356 0.930 . S
C2366 C2364 1.419 . S
C2366 C2367 1.362 . S
C2367 H2357 0.930 . S
C2367 C2360 1.409 . S
C2367 C2366 1.362 . S
H2368 C2374 0.930 . S
H2369 C2377 0.930 . S
H2370 C2378 0.930 . S
H2371 C2379 0.924 1_556 S
H2372 C2382 0.930 . S
H2373 C2383 0.930 . S
C2374 H2368 0.930 . S
C2374 C2375 1.396 . S
C2374 C2376 1.415 . S
C2375 C2374 1.396 . S
C2375 C2377 1.387 1_554 S
C2376 C2374 1.415 . S
C2376 C2381 1.425 . S
C2376 C2383 1.409 . S
C2377 H2369 0.930 . S
C2377 C2375 1.387 1_556 S
C2377 C2378 1.362 . S
C2378 H2370 0.930 . S
C2378 C2377 1.362 . S
C2378 C2381 1.409 1_556 S
C2379 H2371 0.924 1_554 S
C2379 C2380 1.355 . S
C2379 C2381 1.415 . S
C2380 C2379 1.355 . S
C2380 C2382 1.419 . S
C2381 C2376 1.425 . S
C2381 C2378 1.409 1_554 S
C2381 C2379 1.415 . S
C2382 H2372 0.930 . S
C2382 C2380 1.419 . S
C2382 C2383 1.362 . S
C2383 H2373 0.930 . S
C2383 C2376 1.409 . S
C2383 C2382 1.362 . S
H2384 C2390 0.930 . S
H2385 C2393 0.930 . S
H2386 C2394 0.930 . S
H2387 C2395 0.930 . S
H2388 C2398 0.930 . S
H2389 C2399 0.930 . S
C2390 H2384 0.930 . S
C2390 C2391 1.355 . S
C2390 C2392 1.415 . S
C2391 C2390 1.355 . S
C2391 C2393 1.419 . S
C2392 C2390 1.415 . S
C2392 C2397 1.425 . S
C2392 C2399 1.409 . S
C2393 H2385 0.930 . S
C2393 C2391 1.419 . S
C2393 C2394 1.362 . S
C2394 H2386 0.930 . S
C2394 C2393 1.362 . S
C2394 C2397 1.409 . S
C2395 H2387 0.930 . S
C2395 C2396 1.355 . S
C2395 C2397 1.415 . S
C2396 C2395 1.355 . S
C2396 C2398 1.419 . S
C2397 C2392 1.425 . S
C2397 C2394 1.409 . S
C2397 C2395 1.415 . S
C2398 H2388 0.930 . S
C2398 C2396 1.419 . S
C2398 C2399 1.362 . S
C2399 H2389 0.930 . S
C2399 C2392 1.409 . S
C2399 C2398 1.362 . S
H2400 C2406 0.930 . S
H2401 C2409 0.930 . S
H2402 C2410 0.930 . S
H2403 C2411 0.930 . S
H2404 C2414 0.930 . S
H2405 C2415 0.930 . S
C2406 H2400 0.930 . S
C2406 C2407 1.355 . S
C2406 C2408 1.415 . S
C2407 C2406 1.355 . S
C2407 C2409 1.419 . S
C2408 C2406 1.415 . S
C2408 C2413 1.425 . S
C2408 C2415 1.409 . S
C2409 H2401 0.930 . S
C2409 C2407 1.419 . S
C2409 C2410 1.362 . S
C2410 H2402 0.930 . S
C2410 C2409 1.362 . S
C2410 C2413 1.409 . S
C2411 H2403 0.930 . S
C2411 C2412 1.355 . S
C2411 C2413 1.415 . S
C2412 C2411 1.355 . S
C2412 C2414 1.419 . S
C2413 C2408 1.425 . S
C2413 C2410 1.409 . S
C2413 C2411 1.415 . S
C2414 H2404 0.930 . S
C2414 C2412 1.419 . S
C2414 C2415 1.362 . S
C2415 H2405 0.930 . S
C2415 C2408 1.409 . S
C2415 C2414 1.362 . S
C892 C353 1.133 . S
C887 C7 1.166 . S
C903 C22 1.932 . S
C908 C399 1.914 . S
C919 C31 0.991 . S
C924 C408 0.998 . S
C940 C446 1.740 . S
C935 C51 1.761 . S
C951 C17 1.739 . S
C956 C480 1.723 . S
C972 C510 0.873 . S
C967 C36 0.898 . S
C988 C569 1.717 1_556 S
C983 C49 1.664 . S
C999 C9 1.099 . S
C1004 C582 1.121 . S
C1015 C63 1.492 . S
C1020 C365 1.451 . S
C1031 C73 1.260 . S
C1036 C383 1.223 . S
C1052 C404 1.779 . S
C1047 C91 1.748 . S
C1068 C442 0.988 . S
C1063 C101 0.992 . S
C1079 C59 1.344 . S
C1084 C476 1.293 . S
C1100 C506 1.671 . S
C1095 C77 1.641 . S
C1116 C553 1.304 . S
C1111 C87 1.336 . S
C1132 C578 0.826 . S
C1127 C105 0.825 . S
C1148 C349 0.794 1_556 S
C1143 C107 0.828 . S
C1164 C608 1.637 . S
C1159 C120 1.633 . S
C1175 C135 1.446 . S
C1180 C650 1.462 . S
C1196 C693 0.552 . S
C1191 C148 0.522 . S
C1207 C65 1.454 . S
C1212 C574 1.442 . S
C1228 C412 1.589 . S
C1223 C79 1.590 . S
C1239 C134 1.360 . S
C1244 C710 1.382 . S
C1260 C761 1.591 . S
C1255 C162 1.608 . S
C1271 C171 1.142 . S
C1276 C344 1.140 1_556 S
C1292 C744 1.866 . S
C1287 C190 1.876 . S
C1303 C203 0.909 . S
C1308 C417 0.954 . S
C1319 C219 1.726 . S
C1324 C727 1.660 . S
C1340 C489 1.652 . S
C1335 C189 1.601 . S
C1356 C655 0.869 . S
C1351 C204 0.877 . S
C1372 C540 1.675 . S
C1367 C213 1.689 . S
C1388 C795 1.037 . S
C1383 C177 1.048 . S
C1404 C336 1.388 . S
C1399 C227 1.425 . S
C1415 C245 1.220 . S
C1420 C748 1.243 . S
C1436 C433 1.702 . S
C1431 C255 1.736 . S
C1447 C273 0.924 . S
C1452 C723 0.967 . S
C1463 C231 1.336 . S
C1468 C485 1.334 . S
C1479 C241 1.646 . S
C1484 C671 1.620 . S
C1500 C544 1.240 . S
C1495 C259 1.195 . S
C1511 C269 0.779 . S
C1516 C791 0.813 . S
C1527 C275 0.796 . S
C1532 C340 0.731 . S
C1543 C288 1.610 . S
C1548 C637 1.609 . S
C1559 C303 1.422 . S
C1564 C523 1.413 . S
C1575 C316 0.506 . S
C1580 C684 0.554 . S
C1596 C807 1.348 . S
C1591 C233 1.410 . S
C1612 C421 1.520 . S
C1607 C247 1.510 . S
C1628 C467 1.360 . S
C1623 C302 1.357 . S
C1644 C378 1.559 . S
C1639 C330 1.557 . S
C1655 C35 1.197 . S
C1660 C829 1.173 . S
C1676 C773 1.915 . S
C1671 C50 1.917 . S
C1692 C850 0.957 . S
C1687 C3 0.993 . S
C1703 C23 1.762 . S
C1708 C718 1.748 . S
C1719 C45 1.730 . S
C1724 C616 1.679 1_556 S
C1740 C646 0.902 . S
C1735 C8 0.869 . S
C1756 C705 1.693 . S
C1751 C21 1.691 . S
C1772 C786 1.106 . S
C1767 C37 1.138 . S
C1788 C841 1.446 . S
C1783 C161 1.443 . S
C1799 C115 1.264 1_556 S
C1804 C757 1.267 . S
C1815 C133 1.710 . S
C1820 C846 1.745 1_655 S
C1836 C714 0.999 . S
C1831 C143 1.000 . S
C1852 C612 1.330 . S
C1847 C157 1.368 . S
C1863 C119 1.677 . S
C1868 C642 1.656 . S
C1884 C689 1.280 . S
C1879 C129 1.310 . S
C1895 C147 0.802 . S
C1900 C782 0.836 . S
C1916 C825 0.713 . S
C1911 C149 0.764 . S
C1932 C472 1.631 . S
C1927 C78 1.641 . S
C1948 C514 1.456 . S
C1943 C93 1.487 . S
C1959 C106 0.545 . S
C1964 C557 0.497 . S
C1980 C778 1.396 . S
C1975 C163 1.445 . S
C1991 C121 1.532 . S
C1996 C854 1.550 . S
C2012 C438 1.394 . S
C2007 C92 1.362 . S
C2028 C387 1.599 . S
C2023 C64 1.581 . S
C2039 C199 1.098 . S
C2044 C820 1.085 . S
C2060 C370 1.865 . S
C2055 C218 1.870 . S
C2076 C859 1.005 . S
C2071 C175 1.002 1_455 S
C2087 C191 1.727 . S
C2092 C455 1.659 . S
C2103 C217 1.593 . S
C2108 C625 1.642 . S
C2119 C176 0.849 . S
C2124 C519 0.852 . S
C2135 C185 1.679 . S
C2140 C676 1.652 . S
C2151 C205 1.119 . S
C2156 C591 1.102 . S
C2172 C812 1.445 . S
C2167 C325 1.457 . S
C2183 C287 1.168 . S
C2188 C374 1.201 . S
C2204 C875 1.730 . S
C2199 C297 1.750 . S
C2215 C315 0.957 . S
C2220 C451 0.983 . S
C2231 C329 1.243 . S
C2236 C621 1.271 . S
C2252 C535 1.656 . S
C2247 C283 1.671 . S
C2263 C301 1.196 . S
C2268 C680 1.241 . S
C2284 C587 0.794 . S
C2279 C311 0.770 . S
C2300 C816 0.804 . S
C2295 C317 0.739 . S
C2316 C501 1.611 . S
C2311 C246 1.610 . S
C2327 C261 1.452 . S
C2332 C659 1.409 . S
C2348 C548 0.533 . S
C2343 C274 0.492 . S
C2364 C603 1.379 . S
C2359 C331 1.398 . S
C2375 C289 1.557 1_554 S
C2380 C863 1.552 . S
C2396 C739 1.343 . S
C2391 C260 1.358 . S
C2412 C752 1.554 . S
C2407 C232 1.561 . S
