# Generated by pormake.
# Topology tsx, (6,3)-cn, num edge types: 1
# Building blocks:
#     Node 0, Type 0, BuildingBlock: JUFBIX_clean_sbu_0, # of connection points: 6
#     Node 1, Type 0, BuildingBlock: JUFBIX_clean_sbu_0, # of connection points: 6
#     Node 2, Type 1, BuildingBlock: OLANEW_clean_sbu_2, # of connection points: 3
#     Node 3, Type 1, BuildingBlock: OLANEW_clean_sbu_2, # of connection points: 3
#     Node 4, Type 1, BuildingBlock: OLANEW_clean_sbu_2, # of connection points: 3
#     Node 5, Type 1, BuildingBlock: OLANEW_clean_sbu_2, # of connection points: 3
#     Edge 6, Type (0, 1), BuildingBlock: UVAHIK_clean_linker_0, # of connection points: 2
#     Edge 7, Type (0, 1), BuildingBlock: UVAHIK_clean_linker_0, # of connection points: 2
#     Edge 8, Type (0, 1), BuildingBlock: UVAHIK_clean_linker_0, # of connection points: 2
#     Edge 9, Type (0, 1), BuildingBlock: UVAHIK_clean_linker_0, # of connection points: 2
#     Edge 10, Type (0, 1), BuildingBlock: UVAHIK_clean_linker_0, # of connection points: 2
#     Edge 11, Type (0, 1), BuildingBlock: UVAHIK_clean_linker_0, # of connection points: 2
#     Edge 12, Type (0, 1), BuildingBlock: UVAHIK_clean_linker_0, # of connection points: 2
#     Edge 13, Type (0, 1), BuildingBlock: UVAHIK_clean_linker_0, # of connection points: 2
#     Edge 14, Type (0, 1), BuildingBlock: UVAHIK_clean_linker_0, # of connection points: 2
#     Edge 15, Type (0, 1), BuildingBlock: UVAHIK_clean_linker_0, # of connection points: 2
#     Edge 16, Type (0, 1), BuildingBlock: UVAHIK_clean_linker_0, # of connection points: 2
#     Edge 17, Type (0, 1), BuildingBlock: UVAHIK_clean_linker_0, # of connection points: 2
# Relax obj value: 0.062
# Max RMSD: 0.102
# Mean RMSD: 0.073
data_MOF--net-tsx--node1-JUFBIX_clean_sbu_0--node2-OLANEW_clean_sbu_2--edge1-UVAHIK_clean_linker_0
_symmetry_space_group_name_H-M    P1
_symmetry_Int_Tables_number       1
_symmetry_cell_setting            triclinic
loop_
_symmetry_equiv_pos_as_xyz
'x, y, z'
_cell_length_a     27.784218
_cell_length_b     32.587205
_cell_length_c     43.177907
_cell_angle_alpha  97.794134
_cell_angle_beta   89.184185
_cell_angle_gamma 97.900737
loop_
_atom_site_label
_atom_site_type_symbol
_atom_site_fract_x
_atom_site_fract_y
_atom_site_fract_z
_atom_type_partial_charge
Co0 Co 0.03531 0.98686 1e-05 0.0
C1 C 0.99685 0.00627 0.94491 0.0
Co2 Co 0.97661 0.02646 0.00695 0.0
C3 C 0.0946 0.9214 0.00422 0.0
C4 C 0.12223 0.96247 0.97142 0.0
N5 N 0.08612 0.95583 0.9921 0.0
N6 N 0.13434 0.9061 0.99165 0.0
C7 C 0.15181 0.93192 0.97102 0.0
H8 H 0.07131 0.90719 0.02128 0.0
H9 H 0.1264 0.98766 0.95724 0.0
C10 C 0.01589 0.00748 0.06202 0.0
N11 N 0.9253 0.05707 0.01518 0.0
C12 C 0.91524 0.09165 0.00387 0.0
C13 C 0.88852 0.04782 0.03489 0.0
N14 N 0.87337 0.104 0.01562 0.0
C15 C 0.8566 0.07644 0.03515 0.0
C16 C 0.94549 0.94013 0.00109 0.0
O17 O 0.04261 0.9869 0.04354 0.0
O18 O 0.98509 0.02696 0.05076 0.0
O19 O 0.93225 0.97626 0.00514 0.0
O20 O 0.99041 0.93696 0.99794 0.0
O21 O 0.96895 0.026 0.96317 0.0
H22 H 0.88518 0.02185 0.04831 0.0
H23 H 0.93783 0.10707 0.98705 0.0
O24 O 0.02764 0.98706 0.95643 0.0
O25 O 0.07989 0.03707 0.00219 0.0
O26 O 0.02128 0.07621 0.00846 0.0
C27 C 0.06629 0.07312 0.00568 0.0
H28 H 0.18376 0.92895 0.95668 0.0
H29 H 0.82395 0.07728 0.04906 0.0
Co30 Co 0.53994 0.48287 0.5016 0.0
C31 C 0.49888 0.5022 0.4472 0.0
Co32 Co 0.48252 0.5237 0.50941 0.0
C33 C 0.5958 0.41472 0.50406 0.0
C34 C 0.6242 0.45546 0.47122 0.0
N35 N 0.58865 0.44985 0.49243 0.0
N36 N 0.63421 0.39802 0.49071 0.0
C37 C 0.65217 0.42365 0.47007 0.0
H38 H 0.57249 0.40111 0.52136 0.0
H39 H 0.6291 0.48084 0.45722 0.0
C40 C 0.52445 0.50439 0.56376 0.0
N41 N 0.43355 0.55661 0.51902 0.0
C42 C 0.42076 0.58805 0.50485 0.0
C43 C 0.40341 0.55434 0.54372 0.0
N44 N 0.38446 0.60571 0.52015 0.0
C45 C 0.37352 0.58468 0.54461 0.0
C46 C 0.44832 0.43862 0.50499 0.0
O47 O 0.55 0.48321 0.54489 0.0
O48 O 0.49369 0.52426 0.55294 0.0
O49 O 0.43634 0.4752 0.50912 0.0
O50 O 0.49285 0.43424 0.50096 0.0
O51 O 0.47235 0.52286 0.46584 0.0
H52 H 0.40327 0.5321 0.56019 0.0
H53 H 0.43826 0.59831 0.48414 0.0
O54 O 0.52977 0.48268 0.45828 0.0
O55 O 0.58641 0.53193 0.50235 0.0
O56 O 0.52883 0.57204 0.50948 0.0
C57 C 0.57353 0.56825 0.50578 0.0
H58 H 0.68341 0.41977 0.45524 0.0
H59 H 0.34544 0.59054 0.56164 0.0
O60 O 0.02267 0.97314 0.40585 0.0
Cd61 Cd 0.009 0.96055 0.45993 0.0
O62 O 0.00469 0.03738 0.41283 0.0
Cd63 Cd 0.98453 0.0393 0.46199 0.0
O64 O 0.93716 0.07273 0.49387 0.0
C65 C 0.89201 0.05939 0.49415 0.0
O66 O 0.87607 0.02312 0.47787 0.0
C67 C 0.01806 0.00673 0.395 0.0
C68 C 0.06967 0.90352 0.4724 0.0
O69 O 0.02849 0.89125 0.45885 0.0
O70 O 0.08169 0.94279 0.48093 0.0
O71 O 0.99339 0.03562 0.599 0.0
Cd72 Cd 0.99326 0.03575 0.54236 0.0
O73 O 0.05134 0.99572 0.59713 0.0
Cd74 Cd 0.03785 0.97541 0.54739 0.0
O75 O 0.97977 0.93032 0.52417 0.0
C76 C 0.94404 0.9236 0.54236 0.0
O77 O 0.94585 0.94493 0.57052 0.0
C78 C 0.0235 0.01838 0.61303 0.0
C79 C 0.06688 0.09706 0.5274 0.0
O80 O 0.02385 0.10553 0.53377 0.0
O81 O 0.07494 0.05928 0.52746 0.0
O82 O 0.57545 0.51638 0.91334 0.0
Cd83 Cd 0.57878 0.5202 0.97002 0.0
O84 O 0.50444 0.53906 0.91308 0.0
Cd85 Cd 0.49383 0.55212 0.96344 0.0
O86 O 0.44875 0.5891 0.99461 0.0
C87 C 0.40407 0.57532 0.99743 0.0
O88 O 0.38775 0.53738 0.98406 0.0
C89 C 0.54032 0.52562 0.89837 0.0
C90 C 0.6286 0.45658 0.9844 0.0
O91 O 0.58221 0.45089 0.9816 0.0
O92 O 0.65127 0.49276 0.98124 0.0
O93 O 0.50277 0.52889 0.10107 0.0
Cd94 Cd 0.50542 0.52811 0.0445 0.0
O95 O 0.5567 0.48529 0.10012 0.0
Cd96 Cd 0.54391 0.46533 0.05028 0.0
O97 O 0.48325 0.42395 0.02646 0.0
C98 C 0.44626 0.41997 0.04403 0.0
O99 O 0.44851 0.44162 0.07208 0.0
C100 C 0.53046 0.50988 0.11556 0.0
C101 C 0.57756 0.59088 0.03016 0.0
O102 O 0.53352 0.59772 0.03468 0.0
O103 O 0.58752 0.55408 0.03219 0.0
C104 C 0.08826 0.14983 0.00308 0.0
C105 C 0.10265 0.11083 0.00594 0.0
C106 C 0.12295 0.18522 0.00278 0.0
C107 C 0.25591 0.21754 0.99312 0.0
H108 H 0.22776 0.32299 0.03758 0.0
C109 C 0.36574 0.38181 0.05643 0.0
C110 C 0.40301 0.38908 0.0347 0.0
C111 C 0.32652 0.35055 0.04905 0.0
C112 C 0.23635 0.29375 0.02516 0.0
H113 H 0.16463 0.07839 0.01096 0.0
H114 H 0.22481 0.14009 0.0116 0.0
H115 H 0.16541 0.26242 0.03301 0.0
H116 H 0.42738 0.37024 0.98765 0.0
H117 H 0.35804 0.31605 0.97439 0.0
H118 H 0.32778 0.24826 0.98691 0.0
C119 C 0.18695 0.14335 0.00864 0.0
C120 C 0.20027 0.25907 0.02216 0.0
C121 C 0.15236 0.10796 0.00858 0.0
C122 C 0.39936 0.36523 0.00496 0.0
C123 C 0.35977 0.33402 0.99745 0.0
C124 C 0.29216 0.25212 0.99642 0.0
C125 C 0.17277 0.18246 0.00567 0.0
C126 C 0.20985 0.22028 0.00659 0.0
C127 C 0.3232 0.3259 0.0196 0.0
C128 C 0.28314 0.29048 0.01301 0.0
H129 H 0.05021 0.15297 0.00072 0.0
H130 H 0.11067 0.21464 2e-05 0.0
H131 H 0.26433 0.18843 0.98039 0.0
H132 H 0.3674 0.3995 0.0796 0.0
H133 H 0.29968 0.34482 0.06694 0.0
C134 C 0.17583 0.8451 0.97376 0.0
C135 C 0.15331 0.86904 0.99777 0.0
C136 C 0.19539 0.80971 0.97958 0.0
C137 C 0.24818 0.76376 0.04102 0.0
H138 H 0.23195 0.66424 0.97967 0.0
C139 C 0.38641 0.64648 0.02048 0.0
C140 C 0.36959 0.60429 0.00987 0.0
C141 C 0.35374 0.67559 0.02639 0.0
C142 C 0.23626 0.69141 0.99739 0.0
H143 H 0.13346 0.87467 0.0467 0.0
H144 H 0.16837 0.8126 0.05706 0.0
H145 H 0.18503 0.72082 0.97466 0.0
H146 H 0.30499 0.55895 -5e-05 0.0
H147 H 0.24806 0.60976 0.01043 0.0
H148 H 0.30063 0.73474 0.06321 0.0
C149 C 0.17058 0.82134 0.0337 0.0
C150 C 0.20972 0.724 0.9943 0.0
C151 C 0.15038 0.8566 0.02775 0.0
C152 C 0.31922 0.59128 0.00773 0.0
C153 C 0.28657 0.62042 0.01359 0.0
C154 C 0.27505 0.73118 0.04402 0.0
C155 C 0.19327 0.79756 0.00962 0.0
C156 C 0.21632 0.76094 0.01559 0.0
C157 C 0.30358 0.66312 0.02183 0.0
C158 C 0.27018 0.69504 0.0218 0.0
H159 H 0.17814 0.85364 0.95037 0.0
H160 H 0.21314 0.79229 0.96064 0.0
H161 H 0.25408 0.79195 0.05773 0.0
H162 H 0.42498 0.6575 0.02258 0.0
H163 H 0.3681 0.70827 0.03256 0.0
C164 C 0.92275 0.86248 -0.00059 0.0
C165 C 0.90882 0.9026 0.00103 0.0
C166 C 0.88779 0.82749 0.00088 0.0
C167 C 0.76281 0.7992 0.02855 0.0
H168 H 0.76881 0.69343 0.97628 0.0
C169 C 0.60437 0.66528 0.02256 0.0
C170 C 0.6159 0.62487 0.02373 0.0
C171 C 0.64076 0.69806 0.01829 0.0
C172 C 0.76692 0.72267 0.99123 0.0
H173 H 0.84714 0.93725 0.0046 0.0
H174 H 0.78647 0.87644 0.00673 0.0
H175 H 0.83155 0.75274 0.97165 0.0
H176 H 0.67454 0.58689 0.02041 0.0
H177 H 0.73826 0.64436 0.01317 0.0
H178 H 0.69839 0.76937 0.04816 0.0
C179 C 0.82438 0.87199 0.00492 0.0
C180 C 0.80286 0.75661 0.9886 0.0
C181 C 0.8592 0.90686 0.0035 0.0
C182 C 0.6645 0.61772 0.0197 0.0
C183 C 0.70097 0.65058 0.01538 0.0
C184 C 0.72697 0.76539 0.03114 0.0
C185 C 0.83823 0.83196 0.00402 0.0
C186 C 0.80097 0.79536 0.00708 0.0
C187 C 0.68957 0.69125 0.01508 0.0
C188 C 0.72837 0.72681 0.01238 0.0
H189 H 0.9607 0.85817 0.99755 0.0
H190 H 0.89968 0.79712 0.00035 0.0
H191 H 0.76083 0.82831 0.04364 0.0
H192 H 0.56724 0.6718 0.02534 0.0
H193 H 0.63065 0.72886 0.01759 0.0
C194 C 0.80001 0.13757 0.01093 0.0
C195 C 0.85078 0.13923 0.00928 0.0
C196 C 0.77784 0.17231 0.0067 0.0
C197 C 0.80115 0.28664 0.01309 0.0
H198 H 0.68101 0.27323 0.96589 0.0
C199 C 0.70643 0.42685 0.98865 0.0
C200 C 0.65537 0.42177 0.98946 0.0
C201 C 0.7316 0.39306 0.99099 0.0
C202 C 0.71421 0.27747 0.97948 0.0
H203 H 0.91809 0.1785 0.00144 0.0
H204 H 0.8792 0.23954 0.99388 0.0
H205 H 0.7231 0.21293 0.96839 0.0
H206 H 0.59076 0.37758 0.99446 0.0
H207 H 0.63465 0.31889 -0.00092 0.0
H208 H 0.79192 0.35111 0.02452 0.0
C209 C 0.85667 0.21125 0.99864 0.0
C210 C 0.73843 0.24292 0.9808 0.0
C211 C 0.8789 0.17625 0.00266 0.0
C212 C 0.63009 0.38248 0.99353 0.0
C213 C 0.65526 0.34874 0.99595 0.0
C214 C 0.77682 0.32123 0.01186 0.0
C215 C 0.80589 0.20969 0.00082 0.0
C216 C 0.78194 0.24702 0.99784 0.0
C217 C 0.70629 0.35346 0.99426 0.0
C218 C 0.73282 0.31697 0.99525 0.0
H219 H 0.77732 0.10935 0.0156 0.0
H220 H 0.73871 0.17017 0.00879 0.0
H221 H 0.83429 0.29069 0.02674 0.0
H222 H 0.727 0.4567 0.98547 0.0
H223 H 0.77086 0.39773 0.98934 0.0
C224 C 0.59545 0.6445 0.50199 0.0
C225 C 0.61007 0.60567 0.50512 0.0
C226 C 0.62988 0.67994 0.50147 0.0
C227 C 0.76267 0.71402 0.49261 0.0
H228 H 0.73115 0.81844 0.53698 0.0
C229 C 0.86659 0.88134 0.55552 0.0
C230 C 0.90281 0.89039 0.53347 0.0
C231 C 0.82912 0.84842 0.54845 0.0
C232 C 0.7407 0.78951 0.52459 0.0
H233 H 0.67227 0.57346 0.50996 0.0
H234 H 0.73223 0.63548 0.51023 0.0
H235 H 0.67051 0.7568 0.53223 0.0
H236 H 0.92734 0.8726 0.48628 0.0
H237 H 0.86098 0.8153 0.4736 0.0
H238 H 0.83387 0.74638 0.48657 0.0
C239 C 0.69429 0.6385 0.50733 0.0
C240 C 0.70558 0.75418 0.52147 0.0
C241 C 0.65987 0.60294 0.50747 0.0
C242 C 0.90003 0.86631 0.5038 0.0
C243 C 0.8622 0.83334 0.49663 0.0
C244 C 0.798 0.74933 0.496 0.0
C245 C 0.67975 0.67753 0.50446 0.0
C246 C 0.71627 0.71578 0.50583 0.0
C247 C 0.82651 0.82377 0.51901 0.0
C248 C 0.7877 0.78734 0.51253 0.0
H249 H 0.55735 0.64752 0.49976 0.0
H250 H 0.61731 0.70922 0.49863 0.0
H251 H 0.77197 0.6852 0.4799 0.0
H252 H 0.86766 0.89911 0.57865 0.0
H253 H 0.80296 0.84158 0.56651 0.0
C254 C 0.6474 0.34658 0.52595 0.0
C255 C 0.65161 0.36001 0.4963 0.0
C256 C 0.66585 0.31028 0.53138 0.0
C257 C 0.70328 0.21279 0.49038 0.0
H258 H 0.78854 0.21783 0.56153 0.0
C259 C 0.80705 0.0761 0.50238 0.0
C260 C 0.85731 0.08808 0.50673 0.0
C261 C 0.77491 0.10567 0.50823 0.0
C262 C 0.76457 0.21585 0.54166 0.0
H263 H 0.67702 0.34529 0.44894 0.0
H264 H 0.70932 0.28239 0.45837 0.0
H265 H 0.74497 0.27688 0.5563 0.0
H266 H 0.91275 0.1397 0.52339 0.0
H267 H 0.85688 0.19123 0.5332 0.0
H268 H 0.72441 0.15287 0.47482 0.0
C269 C 0.69173 0.29972 0.47744 0.0
C270 C 0.73934 0.24951 0.53881 0.0
C271 C 0.67376 0.33605 0.47211 0.0
C272 C 0.87428 0.12947 0.51955 0.0
C273 C 0.84214 0.15903 0.52536 0.0
C274 C 0.72828 0.17917 0.49327 0.0
C275 C 0.68823 0.28651 0.50714 0.0
C276 C 0.70954 0.24877 0.51265 0.0
C277 C 0.79234 0.14782 0.51857 0.0
C278 C 0.76021 0.18072 0.51851 0.0
H279 H 0.63077 0.36458 0.54507 0.0
H280 H 0.66254 0.30077 0.55448 0.0
H281 H 0.68006 0.21111 0.47017 0.0
H282 H 0.79269 0.04437 0.49288 0.0
H283 H 0.7366 0.09588 0.50336 0.0
C284 C 0.42274 0.36111 0.50232 0.0
C285 C 0.41052 0.40192 0.50533 0.0
C286 C 0.38661 0.32684 0.50347 0.0
C287 C 0.26159 0.30053 0.53197 0.0
H288 H 0.26147 0.1974 0.47536 0.0
C289 C 0.09714 0.17182 0.5224 0.0
C290 C 0.10649 0.13039 0.52154 0.0
C291 C 0.13494 0.20388 0.51908 0.0
C292 C 0.26129 0.22587 0.49152 0.0
H293 H 0.35067 0.43864 0.51135 0.0
H294 H 0.28805 0.37916 0.51301 0.0
H295 H 0.32679 0.25527 0.47249 0.0
H296 H 0.16273 0.08995 0.51562 0.0
H297 H 0.22885 0.14609 0.50998 0.0
H298 H 0.19626 0.27139 0.551 0.0
C299 C 0.3255 0.37355 0.51028 0.0
C300 C 0.29872 0.25898 0.4899 0.0
C301 C 0.36146 0.40767 0.50914 0.0
C302 C 0.15432 0.12156 0.5164 0.0
C303 C 0.19219 0.15369 0.51304 0.0
C304 C 0.22427 0.26755 0.53356 0.0
C305 C 0.33761 0.33275 0.50773 0.0
C306 C 0.29904 0.29683 0.50995 0.0
C307 C 0.18301 0.19531 0.51481 0.0
C308 C 0.22341 0.22995 0.5132 0.0
H309 H 0.46022 0.35564 0.49938 0.0
H310 H 0.39717 0.29583 0.50167 0.0
H311 H 0.26128 0.3289 0.54821 0.0
H312 H 0.06068 0.17967 0.52613 0.0
H313 H 0.12652 0.2355 0.51999 0.0
C314 C 0.35095 0.67131 0.5358 0.0
C315 C 0.36098 0.63948 0.51229 0.0
C316 C 0.32381 0.70202 0.52907 0.0
C317 C 0.22454 0.71567 0.48238 0.0
H318 H 0.26656 0.83493 0.50042 0.0
C319 C 0.10001 0.83505 0.45712 0.0
C320 C 0.10325 0.87337 0.47674 0.0
C321 C 0.13337 0.80735 0.45989 0.0
C322 C 0.25382 0.80177 0.49573 0.0
H323 H 0.35149 0.61479 0.46337 0.0
H324 H 0.30212 0.66806 0.45166 0.0
H325 H 0.32306 0.78587 0.50765 0.0
H326 H 0.14298 0.91239 0.51522 0.0
H327 H 0.19953 0.86315 0.52139 0.0
H328 H 0.15466 0.73079 0.47227 0.0
C329 C 0.31613 0.66949 0.47513 0.0
C330 C 0.28647 0.77378 0.49955 0.0
C331 C 0.3444 0.63932 0.48172 0.0
C332 C 0.13987 0.88313 0.49964 0.0
C333 C 0.1726 0.85499 0.50292 0.0
C334 C 0.19154 0.74356 0.47923 0.0
C335 C 0.30528 0.7008 0.49886 0.0
C336 C 0.27204 0.73056 0.4929 0.0
C337 C 0.17015 0.81683 0.48287 0.0
C338 C 0.20562 0.78707 0.48591 0.0
H339 H 0.36356 0.67193 0.5595 0.0
H340 H 0.31563 0.72576 0.54775 0.0
H341 H 0.21248 0.68237 0.47759 0.0
H342 H 0.07246 0.82693 0.43899 0.0
H343 H 0.13069 0.77885 0.44354 0.0
C344 C 0.04581 0.9806 0.10892 0.0
C345 C 0.02018 0.00874 0.09623 0.0
C346 C 0.04854 0.9812 0.14131 0.0
C347 C 0.9872 0.01879 0.21467 0.0
H348 H 0.10334 0.99592 0.25421 0.0
C349 C 0.01111 0.04314 0.34814 0.0
C350 C 0.02521 0.00938 0.36123 0.0
C351 C 0.01372 0.04405 0.31592 0.0
C352 C 0.07062 0.00215 0.24341 0.0
H353 H 0.97852 0.06034 0.10753 0.0
H354 H 0.98455 0.06233 0.16383 0.0
H355 H 0.10164 0.99596 0.19763 0.0
H356 H 0.05501 0.9509 0.3508 0.0
H357 H 0.06003 0.95282 0.29442 0.0
H358 H 0.95656 0.02564 0.26052 0.0
C359 C 0.00135 0.03891 0.1489 0.0
C360 C 0.06951 0.00202 0.211 0.0
C361 C 0.99813 0.03796 0.11657 0.0
C362 C 0.04371 0.9773 0.34146 0.0
C363 C 0.0468 0.97845 0.30921 0.0
C364 C 0.98855 0.01938 0.24702 0.0
C365 C 0.02614 0.01026 0.16173 0.0
C366 C 0.02774 0.01036 0.19621 0.0
C367 C 0.03095 0.01145 0.29609 0.0
C368 C 0.03023 0.0111 0.26173 0.0
H369 H 0.06302 0.95758 0.09382 0.0
H370 H 0.06738 0.9583 0.15027 0.0
H371 H 0.954 0.02437 0.20412 0.0
H372 H 0.9968 0.06843 0.36266 0.0
H373 H 0.00182 0.07012 0.30645 0.0
C374 C 0.02678 0.98471 0.89114 0.0
C375 C 0.99553 0.00688 0.91072 0.0
C376 C 0.02785 0.98666 0.85907 0.0
C377 C 0.99953 0.05189 0.80024 0.0
H378 H 0.01339 0.95229 0.74239 0.0
C379 C 0.99078 0.0449 0.66532 0.0
C380 C 0.02335 0.02185 0.64761 0.0
C381 C 0.98731 0.04482 0.69766 0.0
C382 C 0.01009 0.98049 0.75826 0.0
H383 H 0.94042 0.04817 0.91183 0.0
H384 H 0.94196 0.05124 0.85551 0.0
H385 H 0.00482 0.94758 0.79803 0.0
H386 H 0.07913 0.9819 0.65026 0.0
H387 H 0.07337 0.98211 0.70663 0.0
H388 H 0.00481 0.08474 0.76029 0.0
C389 C 0.96601 0.0327 0.86517 0.0
C390 C 0.00508 0.97778 0.79015 0.0
C391 C 0.96488 0.0307 0.89738 0.0
C392 C 0.05349 -0.00016 0.66313 0.0
C393 C 0.04994 -0.00031 0.69542 0.0
C394 C 0.00447 0.05459 0.76825 0.0
C395 C 0.99769 0.01081 0.84568 0.0
C396 C 1.00021 0.01349 0.81158 0.0
C397 C 0.01624 0.02159 0.71298 0.0
C398 C 0.01027 0.01897 0.74694 0.0
H399 H 0.05106 0.96619 0.90062 0.0
H400 H 0.05321 0.96993 0.84485 0.0
H401 H 0.99644 0.08008 0.81616 0.0
H402 H 0.967 0.06219 0.65412 0.0
H403 H 0.96081 0.06182 0.71048 0.0
C404 C 0.49738 0.52563 0.61828 0.0
C405 C 0.52921 0.5053 0.59792 0.0
C406 C 0.50045 0.52554 0.65048 0.0
C407 C 0.58223 0.51365 0.71351 0.0
H408 H 0.46209 0.49137 0.75887 0.0
C409 C 0.57744 0.50246 0.8466 0.0
C410 C 0.5409 0.52114 0.86378 0.0
C411 C 0.5774 0.49823 0.8139 0.0
C412 C 0.49595 0.49807 0.74663 0.0
H413 H 0.58979 0.46947 0.59545 0.0
H414 H 0.59526 0.46957 0.65199 0.0
H415 H 0.45989 0.48869 0.7023 0.0
H416 H 0.47613 0.55061 0.86006 0.0
H417 H 0.4766 0.54398 0.80339 0.0
H418 H 0.61822 0.52385 0.75799 0.0
C419 C 0.568 0.48557 0.64287 0.0
C420 C 0.49467 0.49645 0.71421 0.0
C421 C 0.56472 0.48539 0.61054 0.0
C422 C 0.50461 0.53575 0.84759 0.0
C423 C 0.5047 0.5317 0.81502 0.0
C424 C 0.58352 0.51552 0.74606 0.0
C425 C 0.53556 0.50532 0.66312 0.0
C426 C 0.53768 0.50474 0.69734 0.0
C427 C 0.54089 0.5127 0.79775 0.0
C428 C 0.54027 0.5083 0.76303 0.0
H429 H 0.4697 0.54137 0.60937 0.0
H430 H 0.47543 0.54156 0.66555 0.0
H431 H 0.61593 0.52044 0.7011 0.0
H432 H 0.60589 0.49081 0.85837 0.0
H433 H 0.60556 0.48311 0.80129 0.0
C434 C 0.52446 0.4774 0.39307 0.0
C435 C 0.4961 0.50207 0.41301 0.0
C436 C 0.52476 0.47878 0.36096 0.0
C437 C 0.50251 0.54592 0.30238 0.0
H438 H 0.50716 0.44435 0.24473 0.0
C439 C 0.49833 0.53907 0.16729 0.0
C440 C 0.52907 0.51358 0.15011 0.0
C441 C 0.49332 0.53931 0.19958 0.0
C442 C 0.50639 0.47305 0.26055 0.0
H443 H 0.44514 0.54713 0.41475 0.0
H444 H 0.4454 0.54929 0.35828 0.0
H445 H 0.49694 0.44037 0.30039 0.0
H446 H 0.58006 0.46958 0.15363 0.0
H447 H 0.57162 0.47033 0.20992 0.0
H448 H 0.51217 0.57855 0.26236 0.0
C449 C 0.46774 0.52917 0.36771 0.0
C450 C 0.5004 0.47076 0.29243 0.0
C451 C 0.46733 0.5277 0.39999 0.0
C452 C 0.55591 0.48943 0.1661 0.0
C453 C 0.55079 0.4896 0.19833 0.0
C454 C 0.50841 0.5482 0.27039 0.0
C455 C 0.49671 0.50486 0.34789 0.0
C456 C 0.49907 0.5072 0.31378 0.0
C457 C 0.51882 0.51397 0.21534 0.0
C458 C 0.51108 0.51182 0.2492 0.0
H459 H 0.54718 0.45737 0.40229 0.0
H460 H 0.54803 0.46013 0.34644 0.0
H461 H 0.50216 0.57461 0.31826 0.0
H462 H 0.47711 0.55806 0.15571 0.0
H463 H 0.46824 0.55827 0.21201 0.0
loop_
_geom_bond_atom_site_label_1
_geom_bond_atom_site_label_2
_geom_bond_distance
_geom_bond_site_symmetry_2
_ccdc_geom_bond_type
Co0 N5 2.057 1_554 S
Co0 O17 2.021 . S
Co0 O20 2.062 1_455 S
Co0 O24 2.117 1_554 S
Co0 O25 2.020 1_565 S
C1 O21 1.272 . S
C1 O24 1.248 1_645 S
Co2 N11 2.057 . S
Co2 O18 2.117 . S
Co2 O19 2.020 1_545 S
Co2 O21 2.021 1_554 S
Co2 O26 2.062 1_655 S
C3 N5 1.316 1_554 S
C3 N6 1.334 1_554 S
C3 H8 0.931 . S
C4 N5 1.375 . S
C4 C7 1.350 . S
C4 H9 0.930 . S
N5 Co0 2.057 1_556 S
N5 C3 1.316 1_556 S
N5 C4 1.375 . S
N6 C3 1.334 1_556 S
N6 C7 1.402 . S
C7 C4 1.350 . S
C7 N6 1.402 . S
C7 H28 0.931 . S
H8 C3 0.931 . S
H9 C4 0.930 . S
C10 O17 1.259 1_545 S
C10 O18 1.258 1_455 S
N11 Co2 2.057 . S
N11 C12 1.316 . S
N11 C13 1.375 . S
C12 N11 1.316 . S
C12 N14 1.347 . S
C12 H23 0.931 1_554 S
C13 N11 1.375 . S
C13 C15 1.350 . S
C13 H22 0.930 . S
N14 C12 1.347 . S
N14 C15 1.373 . S
C15 C13 1.350 . S
C15 N14 1.373 . S
C15 H29 0.931 . S
C16 O19 1.256 . S
C16 O20 1.255 . S
O17 Co0 2.021 . S
O17 C10 1.259 1_565 S
O18 Co2 2.117 . S
O18 C10 1.258 1_655 S
O19 Co2 2.020 1_565 S
O19 C16 1.256 . S
O20 Co0 2.062 1_655 S
O20 C16 1.255 . S
O21 C1 1.272 . S
O21 Co2 2.021 1_556 S
H22 C13 0.930 . S
H23 C12 0.931 1_556 S
O24 Co0 2.117 1_556 S
O24 C1 1.248 1_465 S
O25 Co0 2.020 1_545 S
O25 C27 1.256 . S
O26 Co2 2.062 1_455 S
O26 C27 1.255 . S
C27 O25 1.256 . S
C27 O26 1.255 . S
H28 C7 0.931 . S
H29 C15 0.931 . S
Co30 N35 2.057 . S
Co30 O47 2.021 . S
Co30 O50 2.062 . S
Co30 O54 2.117 . S
Co30 O55 2.020 . S
C31 O51 1.259 . S
C31 O54 1.258 . S
Co32 N41 2.057 . S
Co32 O48 2.117 . S
Co32 O49 2.020 . S
Co32 O51 2.021 . S
Co32 O56 2.062 . S
C33 N35 1.316 . S
C33 N36 1.347 . S
C33 H38 0.931 . S
C34 N35 1.375 . S
C34 C37 1.350 . S
C34 H39 0.930 . S
N35 Co30 2.057 . S
N35 C33 1.316 . S
N35 C34 1.375 . S
N36 C33 1.347 . S
N36 C37 1.373 . S
C37 C34 1.350 . S
C37 N36 1.373 . S
C37 H58 0.931 . S
H38 C33 0.931 . S
H39 C34 0.930 . S
C40 O47 1.259 . S
C40 O48 1.258 . S
N41 Co32 2.057 . S
N41 C42 1.316 . S
N41 C43 1.375 . S
C42 N41 1.316 . S
C42 N44 1.347 . S
C42 H53 0.931 . S
C43 N41 1.375 . S
C43 C45 1.350 . S
C43 H52 0.930 . S
N44 C42 1.347 . S
N44 C45 1.373 . S
C45 C43 1.350 . S
C45 N44 1.373 . S
C45 H59 0.931 . S
C46 O49 1.256 . S
C46 O50 1.255 . S
O47 Co30 2.021 . S
O47 C40 1.259 . S
O48 Co32 2.117 . S
O48 C40 1.258 . S
O49 Co32 2.020 . S
O49 C46 1.256 . S
O50 Co30 2.062 . S
O50 C46 1.255 . S
O51 C31 1.259 . S
O51 Co32 2.021 . S
H52 C43 0.930 . S
H53 C42 0.931 . S
O54 Co30 2.117 . S
O54 C31 1.258 . S
O55 Co30 2.020 . S
O55 C57 1.256 . S
O56 Co32 2.062 . S
O56 C57 1.255 . S
C57 O55 1.256 . S
C57 O56 1.255 . S
H58 C37 0.931 . S
H59 C45 0.931 . S
O60 Cd61 2.300 . S
O60 C67 1.275 1_565 S
Cd61 O60 2.300 . S
Cd61 O69 2.381 . S
Cd61 O70 2.378 . S
O62 Cd63 2.385 . S
O62 C67 1.255 . S
Cd63 O62 2.385 . S
Cd63 O64 2.317 1_455 S
O64 Cd63 2.317 1_655 S
O64 C65 1.232 . S
C65 O64 1.232 . S
C65 O66 1.218 . S
O66 C65 1.218 . S
C67 O60 1.275 1_545 S
C67 O62 1.255 . S
C68 O69 1.258 . S
C68 O70 1.256 . S
O69 Cd61 2.381 . S
O69 C68 1.258 . S
O70 Cd61 2.378 . S
O70 C68 1.256 . S
O71 Cd72 2.300 . S
O71 C78 1.276 . S
Cd72 O71 2.300 . S
Cd72 O80 2.381 . S
Cd72 O81 2.378 . S
O73 Cd74 2.385 . S
O73 C78 1.255 1_565 S
Cd74 O73 2.385 . S
Cd74 O75 2.317 1_455 S
O75 Cd74 2.317 1_655 S
O75 C76 1.232 . S
C76 O75 1.232 . S
C76 O77 1.218 . S
O77 C76 1.218 . S
C78 O71 1.276 . S
C78 O73 1.255 1_545 S
C79 O80 1.258 . S
C79 O81 1.256 . S
O80 Cd72 2.381 . S
O80 C79 1.258 . S
O81 Cd72 2.378 . S
O81 C79 1.256 . S
O82 Cd83 2.300 . S
O82 C89 1.275 . S
Cd83 O82 2.300 . S
Cd83 O91 2.381 . S
Cd83 O92 2.378 . S
O84 Cd85 2.385 . S
O84 C89 1.255 . S
Cd85 O84 2.385 . S
Cd85 O86 2.317 . S
O86 Cd85 2.317 . S
O86 C87 1.232 . S
C87 O86 1.232 . S
C87 O88 1.218 . S
O88 C87 1.218 . S
C89 O82 1.275 . S
C89 O84 1.255 . S
C90 O91 1.258 . S
C90 O92 1.256 . S
O91 Cd83 2.381 . S
O91 C90 1.258 . S
O92 Cd83 2.378 . S
O92 C90 1.256 . S
O93 Cd94 2.300 . S
O93 C100 1.275 . S
Cd94 O93 2.300 . S
Cd94 O102 2.381 . S
Cd94 O103 2.378 . S
O95 Cd96 2.385 . S
O95 C100 1.255 . S
Cd96 O95 2.385 . S
Cd96 O97 2.317 . S
O97 Cd96 2.317 . S
O97 C98 1.232 . S
C98 O97 1.232 . S
C98 O99 1.218 . S
O99 C98 1.218 . S
C100 O93 1.275 . S
C100 O95 1.255 . S
C101 O102 1.258 . S
C101 O103 1.256 . S
O102 Cd94 2.381 . S
O102 C101 1.258 . S
O103 Cd94 2.378 . S
O103 C101 1.256 . S
C104 C105 1.349 1_556 S
C104 C106 1.327 . S
C104 H129 0.950 . S
C105 C104 1.349 1_554 S
C105 C121 1.349 . S
C106 C104 1.327 . S
C106 C125 1.429 1_556 S
C106 H130 0.950 . S
C107 C124 1.574 . S
C107 C126 1.368 . S
C107 H131 0.949 . S
H108 C112 0.949 1_556 S
C109 C110 1.349 . S
C109 C111 1.327 . S
C109 H132 0.950 . S
C110 C109 1.349 . S
C110 C122 1.349 . S
C111 C109 1.327 . S
C111 C127 1.429 . S
C111 H133 0.950 . S
C112 H108 0.949 1_554 S
C112 C120 1.574 . S
C112 C128 1.368 . S
H113 C121 0.950 . S
H114 C119 0.950 . S
H115 C120 0.949 1_556 S
H116 C122 0.950 . S
H117 C123 0.950 1_556 S
H118 C124 0.949 . S
C119 H114 0.950 . S
C119 C121 1.327 . S
C119 C125 1.429 . S
C120 C112 1.574 . S
C120 H115 0.949 1_554 S
C120 C126 1.368 . S
C121 C105 1.349 . S
C121 H113 0.950 . S
C121 C119 1.327 . S
C122 C110 1.349 . S
C122 H116 0.950 . S
C122 C123 1.327 . S
C123 H117 0.950 1_554 S
C123 C122 1.327 . S
C123 C127 1.429 . S
C124 C107 1.574 . S
C124 H118 0.949 . S
C124 C128 1.368 . S
C125 C106 1.429 1_554 S
C125 C119 1.429 . S
C125 C126 1.523 . S
C126 C107 1.368 . S
C126 C120 1.368 . S
C126 C125 1.523 . S
C127 C111 1.429 . S
C127 C123 1.429 . S
C127 C128 1.523 . S
C128 C112 1.368 . S
C128 C124 1.368 . S
C128 C127 1.523 . S
H129 C104 0.950 . S
H130 C106 0.950 . S
H131 C107 0.949 . S
H132 C109 0.950 . S
H133 C111 0.950 . S
C134 C135 1.349 1_556 S
C134 C136 1.327 . S
C134 H159 0.950 . S
C135 C134 1.349 1_554 S
C135 C151 1.349 . S
C136 C134 1.327 . S
C136 C155 1.429 . S
C136 H160 0.950 . S
C137 C154 1.574 . S
C137 C156 1.368 1_554 S
C137 H161 0.949 . S
H138 C142 0.949 . S
C139 C140 1.349 . S
C139 C141 1.327 1_556 S
C139 H162 0.950 1_556 S
C140 C139 1.349 . S
C140 C152 1.349 . S
C141 C139 1.327 1_554 S
C141 C157 1.429 1_554 S
C141 H163 0.950 . S
C142 H138 0.949 . S
C142 C150 1.574 . S
C142 C158 1.368 . S
H143 C151 0.950 . S
H144 C149 0.950 . S
H145 C150 0.949 . S
H146 C152 0.950 . S
H147 C153 0.950 . S
H148 C154 0.949 . S
C149 H144 0.950 . S
C149 C151 1.327 . S
C149 C155 1.429 1_554 S
C150 C142 1.574 . S
C150 H145 0.949 . S
C150 C156 1.368 . S
C151 C135 1.349 . S
C151 H143 0.950 . S
C151 C149 1.327 . S
C152 C140 1.349 . S
C152 H146 0.950 . S
C152 C153 1.327 . S
C153 H147 0.950 . S
C153 C152 1.327 . S
C153 C157 1.429 . S
C154 C137 1.574 . S
C154 H148 0.949 . S
C154 C158 1.368 1_554 S
C155 C136 1.429 . S
C155 C149 1.429 1_556 S
C155 C156 1.523 . S
C156 C137 1.368 1_556 S
C156 C150 1.368 . S
C156 C155 1.523 . S
C157 C141 1.429 1_556 S
C157 C153 1.429 . S
C157 C158 1.523 . S
C158 C142 1.368 . S
C158 C154 1.368 1_556 S
C158 C157 1.523 . S
H159 C134 0.950 . S
H160 C136 0.950 . S
H161 C137 0.949 . S
H162 C139 0.950 1_554 S
H163 C141 0.950 . S
C164 C165 1.349 1_556 S
C164 C166 1.327 . S
C164 H189 0.950 . S
C165 C164 1.349 1_554 S
C165 C181 1.349 . S
C166 C164 1.327 . S
C166 C185 1.429 1_556 S
C166 H190 0.950 . S
C167 C184 1.574 . S
C167 C186 1.368 . S
C167 H191 0.949 . S
H168 C172 0.945 1_556 S
C169 C170 1.349 . S
C169 C171 1.327 . S
C169 H192 0.950 . S
C170 C169 1.349 . S
C170 C182 1.349 . S
C171 C169 1.327 . S
C171 C187 1.429 . S
C171 H193 0.950 . S
C172 H168 0.945 1_554 S
C172 C180 1.572 1_554 S
C172 C188 1.375 . S
H173 C181 0.950 . S
H174 C179 0.950 . S
H175 C180 0.949 . S
H176 C182 0.950 1_556 S
H177 C183 0.950 1_556 S
H178 C184 0.949 . S
C179 H174 0.950 . S
C179 C181 1.327 . S
C179 C185 1.429 . S
C180 C172 1.572 1_556 S
C180 H175 0.949 . S
C180 C186 1.368 1_556 S
C181 C165 1.349 . S
C181 H173 0.950 . S
C181 C179 1.327 . S
C182 C170 1.349 . S
C182 H176 0.950 1_554 S
C182 C183 1.327 . S
C183 H177 0.950 1_554 S
C183 C182 1.327 . S
C183 C187 1.429 . S
C184 C167 1.574 . S
C184 H178 0.949 . S
C184 C188 1.368 . S
C185 C166 1.429 1_554 S
C185 C179 1.429 . S
C185 C186 1.523 . S
C186 C167 1.368 . S
C186 C180 1.368 1_554 S
C186 C185 1.523 . S
C187 C171 1.429 . S
C187 C183 1.429 . S
C187 C188 1.523 . S
C188 C172 1.375 . S
C188 C184 1.368 . S
C188 C187 1.523 . S
H189 C164 0.950 . S
H190 C166 0.950 . S
H191 C167 0.949 . S
H192 C169 0.950 . S
H193 C171 0.950 . S
C194 C195 1.349 1_556 S
C194 C196 1.327 . S
C194 H219 0.950 . S
C195 C194 1.349 1_554 S
C195 C211 1.349 . S
C196 C194 1.327 . S
C196 C215 1.429 1_556 S
C196 H220 0.950 . S
C197 C214 1.574 . S
C197 C216 1.368 . S
C197 H221 0.949 . S
H198 C202 0.949 . S
C199 C200 1.349 1_554 S
C199 C201 1.327 . S
C199 H222 0.950 . S
C200 C199 1.349 1_556 S
C200 C212 1.349 . S
C201 C199 1.327 . S
C201 C217 1.429 1_554 S
C201 H223 0.950 . S
C202 H198 0.949 . S
C202 C210 1.574 . S
C202 C218 1.368 . S
H203 C211 0.950 . S
H204 C209 0.950 . S
H205 C210 0.949 . S
H206 C212 0.950 . S
H207 C213 0.950 . S
H208 C214 0.949 . S
C209 H204 0.950 . S
C209 C211 1.327 . S
C209 C215 1.429 . S
C210 C202 1.574 . S
C210 H205 0.949 . S
C210 C216 1.368 1_556 S
C211 C195 1.349 . S
C211 H203 0.950 . S
C211 C209 1.327 . S
C212 C200 1.349 . S
C212 H206 0.950 . S
C212 C213 1.327 . S
C213 H207 0.950 . S
C213 C212 1.327 . S
C213 C217 1.429 . S
C214 C197 1.574 . S
C214 H208 0.949 . S
C214 C218 1.368 1_554 S
C215 C196 1.429 1_554 S
C215 C209 1.429 . S
C215 C216 1.523 . S
C216 C197 1.368 . S
C216 C210 1.368 1_554 S
C216 C215 1.523 . S
C217 C201 1.429 1_556 S
C217 C213 1.429 . S
C217 C218 1.523 . S
C218 C202 1.368 . S
C218 C214 1.368 1_556 S
C218 C217 1.523 . S
H219 C194 0.950 . S
H220 C196 0.950 . S
H221 C197 0.949 . S
H222 C199 0.950 . S
H223 C201 0.950 . S
C224 C225 1.349 . S
C224 C226 1.327 . S
C224 H249 0.950 . S
C225 C224 1.349 . S
C225 C241 1.349 . S
C226 C224 1.327 . S
C226 C245 1.429 . S
C226 H250 0.950 . S
C227 C244 1.574 . S
C227 C246 1.368 . S
C227 H251 0.949 . S
H228 C232 0.949 . S
C229 C230 1.349 . S
C229 C231 1.327 . S
C229 H252 0.950 . S
C230 C229 1.349 . S
C230 C242 1.349 . S
C231 C229 1.327 . S
C231 C247 1.429 . S
C231 H253 0.950 . S
C232 H228 0.949 . S
C232 C240 1.574 . S
C232 C248 1.368 . S
H233 C241 0.950 . S
H234 C239 0.950 . S
H235 C240 0.949 . S
H236 C242 0.950 . S
H237 C243 0.950 . S
H238 C244 0.949 . S
C239 H234 0.950 . S
C239 C241 1.327 . S
C239 C245 1.429 . S
C240 C232 1.574 . S
C240 H235 0.949 . S
C240 C246 1.368 . S
C241 C225 1.349 . S
C241 H233 0.950 . S
C241 C239 1.327 . S
C242 C230 1.349 . S
C242 H236 0.950 . S
C242 C243 1.327 . S
C243 H237 0.950 . S
C243 C242 1.327 . S
C243 C247 1.429 . S
C244 C227 1.574 . S
C244 H238 0.949 . S
C244 C248 1.368 . S
C245 C226 1.429 . S
C245 C239 1.429 . S
C245 C246 1.523 . S
C246 C227 1.368 . S
C246 C240 1.368 . S
C246 C245 1.523 . S
C247 C231 1.429 . S
C247 C243 1.429 . S
C247 C248 1.523 . S
C248 C232 1.368 . S
C248 C244 1.368 . S
C248 C247 1.523 . S
H249 C224 0.950 . S
H250 C226 0.950 . S
H251 C227 0.949 . S
H252 C229 0.950 . S
H253 C231 0.950 . S
C254 C255 1.349 . S
C254 C256 1.327 . S
C254 H279 0.950 . S
C255 C254 1.349 . S
C255 C271 1.349 . S
C256 C254 1.327 . S
C256 C275 1.429 . S
C256 H280 0.950 . S
C257 C274 1.574 . S
C257 C276 1.368 . S
C257 H281 0.949 . S
H258 C262 0.949 . S
C259 C260 1.349 . S
C259 C261 1.327 . S
C259 H282 0.950 . S
C260 C259 1.349 . S
C260 C272 1.349 . S
C261 C259 1.327 . S
C261 C277 1.429 . S
C261 H283 0.950 . S
C262 H258 0.949 . S
C262 C270 1.574 . S
C262 C278 1.368 . S
H263 C271 0.950 . S
H264 C269 0.950 . S
H265 C270 0.949 . S
H266 C272 0.950 . S
H267 C273 0.950 . S
H268 C274 0.949 . S
C269 H264 0.950 . S
C269 C271 1.327 . S
C269 C275 1.429 . S
C270 C262 1.574 . S
C270 H265 0.949 . S
C270 C276 1.368 . S
C271 C255 1.349 . S
C271 H263 0.950 . S
C271 C269 1.327 . S
C272 C260 1.349 . S
C272 H266 0.950 . S
C272 C273 1.327 . S
C273 H267 0.950 . S
C273 C272 1.327 . S
C273 C277 1.429 . S
C274 C257 1.574 . S
C274 H268 0.949 . S
C274 C278 1.368 . S
C275 C256 1.429 . S
C275 C269 1.429 . S
C275 C276 1.523 . S
C276 C257 1.368 . S
C276 C270 1.368 . S
C276 C275 1.523 . S
C277 C261 1.429 . S
C277 C273 1.429 . S
C277 C278 1.523 . S
C278 C262 1.368 . S
C278 C274 1.368 . S
C278 C277 1.523 . S
H279 C254 0.950 . S
H280 C256 0.950 . S
H281 C257 0.949 . S
H282 C259 0.950 . S
H283 C261 0.950 . S
C284 C285 1.349 . S
C284 C286 1.327 . S
C284 H309 0.950 . S
C285 C284 1.349 . S
C285 C301 1.349 . S
C286 C284 1.327 . S
C286 C305 1.429 . S
C286 H310 0.950 . S
C287 C304 1.574 . S
C287 C306 1.368 . S
C287 H311 0.949 . S
H288 C292 0.949 . S
C289 C290 1.349 . S
C289 C291 1.327 . S
C289 H312 0.950 . S
C290 C289 1.349 . S
C290 C302 1.349 . S
C291 C289 1.327 . S
C291 C307 1.429 . S
C291 H313 0.950 . S
C292 H288 0.949 . S
C292 C300 1.574 . S
C292 C308 1.368 . S
H293 C301 0.950 . S
H294 C299 0.950 . S
H295 C300 0.949 . S
H296 C302 0.950 . S
H297 C303 0.950 . S
H298 C304 0.949 . S
C299 H294 0.950 . S
C299 C301 1.327 . S
C299 C305 1.429 . S
C300 C292 1.574 . S
C300 H295 0.949 . S
C300 C306 1.368 . S
C301 C285 1.349 . S
C301 H293 0.950 . S
C301 C299 1.327 . S
C302 C290 1.349 . S
C302 H296 0.950 . S
C302 C303 1.327 . S
C303 H297 0.950 . S
C303 C302 1.327 . S
C303 C307 1.429 . S
C304 C287 1.574 . S
C304 H298 0.949 . S
C304 C308 1.368 . S
C305 C286 1.429 . S
C305 C299 1.429 . S
C305 C306 1.523 . S
C306 C287 1.368 . S
C306 C300 1.368 . S
C306 C305 1.523 . S
C307 C291 1.429 . S
C307 C303 1.429 . S
C307 C308 1.523 . S
C308 C292 1.368 . S
C308 C304 1.368 . S
C308 C307 1.523 . S
H309 C284 0.950 . S
H310 C286 0.950 . S
H311 C287 0.949 . S
H312 C289 0.950 . S
H313 C291 0.950 . S
C314 C315 1.349 . S
C314 C316 1.327 . S
C314 H339 0.950 . S
C315 C314 1.349 . S
C315 C331 1.349 . S
C316 C314 1.327 . S
C316 C335 1.429 . S
C316 H340 0.950 . S
C317 C334 1.574 . S
C317 C336 1.368 . S
C317 H341 0.949 . S
H318 C322 0.949 . S
C319 C320 1.349 . S
C319 C321 1.327 . S
C319 H342 0.950 . S
C320 C319 1.349 . S
C320 C332 1.349 . S
C321 C319 1.327 . S
C321 C337 1.429 . S
C321 H343 0.950 . S
C322 H318 0.949 . S
C322 C330 1.574 . S
C322 C338 1.368 . S
H323 C331 0.950 . S
H324 C329 0.950 . S
H325 C330 0.949 . S
H326 C332 0.950 . S
H327 C333 0.950 . S
H328 C334 0.949 . S
C329 H324 0.950 . S
C329 C331 1.327 . S
C329 C335 1.429 . S
C330 C322 1.574 . S
C330 H325 0.949 . S
C330 C336 1.368 . S
C331 C315 1.349 . S
C331 H323 0.950 . S
C331 C329 1.327 . S
C332 C320 1.349 . S
C332 H326 0.950 . S
C332 C333 1.327 . S
C333 H327 0.950 . S
C333 C332 1.327 . S
C333 C337 1.429 . S
C334 C317 1.574 . S
C334 H328 0.949 . S
C334 C338 1.368 . S
C335 C316 1.429 . S
C335 C329 1.429 . S
C335 C336 1.523 . S
C336 C317 1.368 . S
C336 C330 1.368 . S
C336 C335 1.523 . S
C337 C321 1.429 . S
C337 C333 1.429 . S
C337 C338 1.523 . S
C338 C322 1.368 . S
C338 C334 1.368 . S
C338 C337 1.523 . S
H339 C314 0.950 . S
H340 C316 0.950 . S
H341 C317 0.949 . S
H342 C319 0.950 . S
H343 C321 0.950 . S
C344 C345 1.349 1_565 S
C344 C346 1.327 . S
C344 H369 0.950 . S
C345 C344 1.349 1_545 S
C345 C361 1.349 1_455 S
C346 C344 1.327 . S
C346 C365 1.429 1_565 S
C346 H370 0.950 . S
C347 C364 1.574 . S
C347 C366 1.368 1_655 S
C347 H371 0.949 . S
H348 C352 0.949 . S
C349 C350 1.349 1_655 S
C349 C351 1.327 . S
C349 H372 0.950 . S
C350 C349 1.349 1_455 S
C350 C362 1.349 1_545 S
C351 C349 1.327 . S
C351 C367 1.429 1_655 S
C351 H373 0.950 . S
C352 H348 0.949 . S
C352 C360 1.574 . S
C352 C368 1.368 1_565 S
H353 C361 0.950 . S
H354 C359 0.950 . S
H355 C360 0.949 . S
H356 C362 0.950 . S
H357 C363 0.950 . S
H358 C364 0.949 . S
C359 H354 0.950 . S
C359 C361 1.327 . S
C359 C365 1.429 1_655 S
C360 C352 1.574 . S
C360 H355 0.949 . S
C360 C366 1.368 1_565 S
C361 C345 1.349 1_655 S
C361 H353 0.950 . S
C361 C359 1.327 . S
C362 C350 1.349 1_565 S
C362 H356 0.950 . S
C362 C363 1.327 . S
C363 H357 0.950 . S
C363 C362 1.327 . S
C363 C367 1.429 1_565 S
C364 C347 1.574 . S
C364 H358 0.949 . S
C364 C368 1.368 1_655 S
C365 C346 1.429 1_545 S
C365 C359 1.429 1_455 S
C365 C366 1.523 . S
C366 C347 1.368 1_455 S
C366 C360 1.368 1_545 S
C366 C365 1.523 . S
C367 C351 1.429 1_455 S
C367 C363 1.429 1_545 S
C367 C368 1.523 . S
C368 C352 1.368 1_545 S
C368 C364 1.368 1_455 S
C368 C367 1.523 . S
H369 C344 0.950 . S
H370 C346 0.950 . S
H371 C347 0.949 . S
H372 C349 0.950 . S
H373 C351 0.950 . S
C374 C375 1.349 1_665 S
C374 C376 1.327 . S
C374 H399 0.950 . S
C375 C374 1.349 1_445 S
C375 C391 1.349 . S
C376 C374 1.327 . S
C376 C395 1.417 1_665 S
C376 H400 0.950 . S
C377 C394 1.574 . S
C377 C396 1.367 . S
C377 H401 0.949 . S
H378 C382 0.949 . S
C379 C380 1.349 1_545 S
C379 C381 1.327 . S
C379 H402 0.950 . S
C380 C379 1.349 1_565 S
C380 C392 1.349 1_455 S
C381 C379 1.327 . S
C381 C397 1.429 1_545 S
C381 H403 0.950 . S
C382 H378 0.949 . S
C382 C390 1.574 . S
C382 C398 1.386 1_655 S
H383 C391 0.950 . S
H384 C389 0.950 . S
H385 C390 0.949 . S
H386 C392 0.950 . S
H387 C393 0.950 . S
H388 C394 0.949 . S
C389 H384 0.950 . S
C389 C391 1.327 . S
C389 C395 1.438 . S
C390 C382 1.574 . S
C390 H385 0.949 . S
C390 C396 1.369 1_665 S
C391 C375 1.349 . S
C391 H383 0.950 . S
C391 C389 1.327 . S
C392 C380 1.349 1_655 S
C392 H386 0.950 . S
C392 C393 1.327 . S
C393 H387 0.950 . S
C393 C392 1.327 . S
C393 C397 1.429 1_655 S
C394 C377 1.574 . S
C394 H388 0.949 . S
C394 C398 1.353 1_545 S
C395 C376 1.417 1_445 S
C395 C389 1.438 . S
C395 C396 1.525 . S
C396 C377 1.367 . S
C396 C390 1.369 1_445 S
C396 C395 1.525 . S
C397 C381 1.429 1_565 S
C397 C393 1.429 1_455 S
C397 C398 1.520 . S
C398 C382 1.386 1_455 S
C398 C394 1.353 1_565 S
C398 C397 1.520 . S
H399 C374 0.950 . S
H400 C376 0.950 . S
H401 C377 0.949 . S
H402 C379 0.950 . S
H403 C381 0.950 . S
C404 C405 1.349 . S
C404 C406 1.327 . S
C404 H429 0.950 . S
C405 C404 1.349 . S
C405 C421 1.349 . S
C406 C404 1.327 . S
C406 C425 1.429 . S
C406 H430 0.950 . S
C407 C424 1.574 . S
C407 C426 1.368 . S
C407 H431 0.949 . S
H408 C412 0.949 . S
C409 C410 1.349 . S
C409 C411 1.327 . S
C409 H432 0.950 . S
C410 C409 1.349 . S
C410 C422 1.349 . S
C411 C409 1.327 . S
C411 C427 1.429 . S
C411 H433 0.950 . S
C412 H408 0.949 . S
C412 C420 1.574 . S
C412 C428 1.368 . S
H413 C421 0.950 . S
H414 C419 0.950 . S
H415 C420 0.949 . S
H416 C422 0.950 . S
H417 C423 0.950 . S
H418 C424 0.949 . S
C419 H414 0.950 . S
C419 C421 1.327 . S
C419 C425 1.429 . S
C420 C412 1.574 . S
C420 H415 0.949 . S
C420 C426 1.368 . S
C421 C405 1.349 . S
C421 H413 0.950 . S
C421 C419 1.327 . S
C422 C410 1.349 . S
C422 H416 0.950 . S
C422 C423 1.327 . S
C423 H417 0.950 . S
C423 C422 1.327 . S
C423 C427 1.429 . S
C424 C407 1.574 . S
C424 H418 0.949 . S
C424 C428 1.368 . S
C425 C406 1.429 . S
C425 C419 1.429 . S
C425 C426 1.523 . S
C426 C407 1.368 . S
C426 C420 1.368 . S
C426 C425 1.523 . S
C427 C411 1.429 . S
C427 C423 1.429 . S
C427 C428 1.523 . S
C428 C412 1.368 . S
C428 C424 1.368 . S
C428 C427 1.523 . S
H429 C404 0.950 . S
H430 C406 0.950 . S
H431 C407 0.949 . S
H432 C409 0.950 . S
H433 C411 0.950 . S
C434 C435 1.349 . S
C434 C436 1.327 . S
C434 H459 0.950 . S
C435 C434 1.349 . S
C435 C451 1.349 . S
C436 C434 1.327 . S
C436 C455 1.429 . S
C436 H460 0.950 . S
C437 C454 1.574 . S
C437 C456 1.368 . S
C437 H461 0.949 . S
H438 C442 0.949 . S
C439 C440 1.349 . S
C439 C441 1.327 . S
C439 H462 0.950 . S
C440 C439 1.349 . S
C440 C452 1.349 . S
C441 C439 1.327 . S
C441 C457 1.429 . S
C441 H463 0.950 . S
C442 H438 0.949 . S
C442 C450 1.574 . S
C442 C458 1.368 . S
H443 C451 0.950 . S
H444 C449 0.950 . S
H445 C450 0.949 . S
H446 C452 0.950 . S
H447 C453 0.950 . S
H448 C454 0.949 . S
C449 H444 0.950 . S
C449 C451 1.327 . S
C449 C455 1.429 . S
C450 C442 1.574 . S
C450 H445 0.949 . S
C450 C456 1.368 . S
C451 C435 1.349 . S
C451 H443 0.950 . S
C451 C449 1.327 . S
C452 C440 1.349 . S
C452 H446 0.950 . S
C452 C453 1.327 . S
C453 H447 0.950 . S
C453 C452 1.327 . S
C453 C457 1.429 . S
C454 C437 1.574 . S
C454 H448 0.949 . S
C454 C458 1.368 . S
C455 C436 1.429 . S
C455 C449 1.429 . S
C455 C456 1.523 . S
C456 C437 1.368 . S
C456 C450 1.368 . S
C456 C455 1.523 . S
C457 C441 1.429 . S
C457 C453 1.429 . S
C457 C458 1.523 . S
C458 C442 1.368 . S
C458 C454 1.368 . S
C458 C457 1.523 . S
H459 C434 0.950 . S
H460 C436 0.950 . S
H461 C437 0.949 . S
H462 C439 0.950 . S
H463 C441 0.950 . S
C110 C98 1.234 . S
C105 C27 1.457 . S
C135 N6 1.383 1_554 S
C140 C87 1.217 . S
C165 C16 1.409 . S
C170 C101 1.381 . S
C195 N14 1.377 . S
C200 C90 1.367 . S
C225 C57 1.457 . S
C230 C76 1.234 . S
C255 N36 1.389 . S
C260 C65 1.217 . S
C290 C79 1.381 . S
C285 C46 1.409 . S
C320 C68 1.367 . S
C315 N44 1.377 . S
C345 C10 1.453 . S
C350 C67 1.408 . S
C375 C1 1.529 1_455 S
C380 C78 1.482 1_565 S
C410 C89 1.408 . S
C405 C40 1.453 . S
C435 C31 1.530 . S
C440 C100 1.482 . S
