# Generated by pormake.
# Topology cor, (4,6)-cn, num edge types: 1
# Building blocks:
#     Node 0, Type 0, BuildingBlock: NAHDIM_clean_sbu_0, # of connection points: 4
#     Node 1, Type 0, BuildingBlock: NAHDIM_clean_sbu_0, # of connection points: 4
#     Node 2, Type 0, BuildingBlock: NAHDIM_clean_sbu_0, # of connection points: 4
#     Node 3, Type 0, BuildingBlock: NAHDIM_clean_sbu_0, # of connection points: 4
#     Node 4, Type 0, BuildingBlock: NAHDIM_clean_sbu_0, # of connection points: 4
#     Node 5, Type 0, BuildingBlock: NAHDIM_clean_sbu_0, # of connection points: 4
#     Node 6, Type 0, BuildingBlock: NAHDIM_clean_sbu_0, # of connection points: 4
#     Node 7, Type 0, BuildingBlock: NAHDIM_clean_sbu_0, # of connection points: 4
#     Node 8, Type 0, BuildingBlock: NAHDIM_clean_sbu_0, # of connection points: 4
#     Node 9, Type 0, BuildingBlock: NAHDIM_clean_sbu_0, # of connection points: 4
#     Node 10, Type 0, BuildingBlock: NAHDIM_clean_sbu_0, # of connection points: 4
#     Node 11, Type 0, BuildingBlock: NAHDIM_clean_sbu_0, # of connection points: 4
#     Node 12, Type 0, BuildingBlock: NAHDIM_clean_sbu_0, # of connection points: 4
#     Node 13, Type 0, BuildingBlock: NAHDIM_clean_sbu_0, # of connection points: 4
#     Node 14, Type 0, BuildingBlock: NAHDIM_clean_sbu_0, # of connection points: 4
#     Node 15, Type 0, BuildingBlock: NAHDIM_clean_sbu_0, # of connection points: 4
#     Node 16, Type 0, BuildingBlock: NAHDIM_clean_sbu_0, # of connection points: 4
#     Node 17, Type 0, BuildingBlock: NAHDIM_clean_sbu_0, # of connection points: 4
#     Node 18, Type 1, BuildingBlock: MIDCAF_clean_sbu_0, # of connection points: 6
#     Node 19, Type 1, BuildingBlock: MIDCAF_clean_sbu_0, # of connection points: 6
#     Node 20, Type 1, BuildingBlock: MIDCAF_clean_sbu_0, # of connection points: 6
#     Node 21, Type 1, BuildingBlock: MIDCAF_clean_sbu_0, # of connection points: 6
#     Node 22, Type 1, BuildingBlock: MIDCAF_clean_sbu_0, # of connection points: 6
#     Node 23, Type 1, BuildingBlock: MIDCAF_clean_sbu_0, # of connection points: 6
#     Node 24, Type 1, BuildingBlock: MIDCAF_clean_sbu_0, # of connection points: 6
#     Node 25, Type 1, BuildingBlock: MIDCAF_clean_sbu_0, # of connection points: 6
#     Node 26, Type 1, BuildingBlock: MIDCAF_clean_sbu_0, # of connection points: 6
#     Node 27, Type 1, BuildingBlock: MIDCAF_clean_sbu_0, # of connection points: 6
#     Node 28, Type 1, BuildingBlock: MIDCAF_clean_sbu_0, # of connection points: 6
#     Node 29, Type 1, BuildingBlock: MIDCAF_clean_sbu_0, # of connection points: 6
#     Edge 30, Type (0, 1), BuildingBlock: AJUNOK_clean_linker_0, # of connection points: 2
#     Edge 31, Type (0, 1), BuildingBlock: AJUNOK_clean_linker_0, # of connection points: 2
#     Edge 32, Type (0, 1), BuildingBlock: AJUNOK_clean_linker_0, # of connection points: 2
#     Edge 33, Type (0, 1), BuildingBlock: AJUNOK_clean_linker_0, # of connection points: 2
#     Edge 34, Type (0, 1), BuildingBlock: AJUNOK_clean_linker_0, # of connection points: 2
#     Edge 35, Type (0, 1), BuildingBlock: AJUNOK_clean_linker_0, # of connection points: 2
#     Edge 36, Type (0, 1), BuildingBlock: AJUNOK_clean_linker_0, # of connection points: 2
#     Edge 37, Type (0, 1), BuildingBlock: AJUNOK_clean_linker_0, # of connection points: 2
#     Edge 38, Type (0, 1), BuildingBlock: AJUNOK_clean_linker_0, # of connection points: 2
#     Edge 39, Type (0, 1), BuildingBlock: AJUNOK_clean_linker_0, # of connection points: 2
#     Edge 40, Type (0, 1), BuildingBlock: AJUNOK_clean_linker_0, # of connection points: 2
#     Edge 41, Type (0, 1), BuildingBlock: AJUNOK_clean_linker_0, # of connection points: 2
#     Edge 42, Type (0, 1), BuildingBlock: AJUNOK_clean_linker_0, # of connection points: 2
#     Edge 43, Type (0, 1), BuildingBlock: AJUNOK_clean_linker_0, # of connection points: 2
#     Edge 44, Type (0, 1), BuildingBlock: AJUNOK_clean_linker_0, # of connection points: 2
#     Edge 45, Type (0, 1), BuildingBlock: AJUNOK_clean_linker_0, # of connection points: 2
#     Edge 46, Type (0, 1), BuildingBlock: AJUNOK_clean_linker_0, # of connection points: 2
#     Edge 47, Type (0, 1), BuildingBlock: AJUNOK_clean_linker_0, # of connection points: 2
#     Edge 48, Type (0, 1), BuildingBlock: AJUNOK_clean_linker_0, # of connection points: 2
#     Edge 49, Type (0, 1), BuildingBlock: AJUNOK_clean_linker_0, # of connection points: 2
#     Edge 50, Type (0, 1), BuildingBlock: AJUNOK_clean_linker_0, # of connection points: 2
#     Edge 51, Type (0, 1), BuildingBlock: AJUNOK_clean_linker_0, # of connection points: 2
#     Edge 52, Type (0, 1), BuildingBlock: AJUNOK_clean_linker_0, # of connection points: 2
#     Edge 53, Type (0, 1), BuildingBlock: AJUNOK_clean_linker_0, # of connection points: 2
#     Edge 54, Type (0, 1), BuildingBlock: AJUNOK_clean_linker_0, # of connection points: 2
#     Edge 55, Type (0, 1), BuildingBlock: AJUNOK_clean_linker_0, # of connection points: 2
#     Edge 56, Type (0, 1), BuildingBlock: AJUNOK_clean_linker_0, # of connection points: 2
#     Edge 57, Type (0, 1), BuildingBlock: AJUNOK_clean_linker_0, # of connection points: 2
#     Edge 58, Type (0, 1), BuildingBlock: AJUNOK_clean_linker_0, # of connection points: 2
#     Edge 59, Type (0, 1), BuildingBlock: AJUNOK_clean_linker_0, # of connection points: 2
#     Edge 60, Type (0, 1), BuildingBlock: AJUNOK_clean_linker_0, # of connection points: 2
#     Edge 61, Type (0, 1), BuildingBlock: AJUNOK_clean_linker_0, # of connection points: 2
#     Edge 62, Type (0, 1), BuildingBlock: AJUNOK_clean_linker_0, # of connection points: 2
#     Edge 63, Type (0, 1), BuildingBlock: AJUNOK_clean_linker_0, # of connection points: 2
#     Edge 64, Type (0, 1), BuildingBlock: AJUNOK_clean_linker_0, # of connection points: 2
#     Edge 65, Type (0, 1), BuildingBlock: AJUNOK_clean_linker_0, # of connection points: 2
#     Edge 66, Type (0, 1), BuildingBlock: AJUNOK_clean_linker_0, # of connection points: 2
#     Edge 67, Type (0, 1), BuildingBlock: AJUNOK_clean_linker_0, # of connection points: 2
#     Edge 68, Type (0, 1), BuildingBlock: AJUNOK_clean_linker_0, # of connection points: 2
#     Edge 69, Type (0, 1), BuildingBlock: AJUNOK_clean_linker_0, # of connection points: 2
#     Edge 70, Type (0, 1), BuildingBlock: AJUNOK_clean_linker_0, # of connection points: 2
#     Edge 71, Type (0, 1), BuildingBlock: AJUNOK_clean_linker_0, # of connection points: 2
#     Edge 72, Type (0, 1), BuildingBlock: AJUNOK_clean_linker_0, # of connection points: 2
#     Edge 73, Type (0, 1), BuildingBlock: AJUNOK_clean_linker_0, # of connection points: 2
#     Edge 74, Type (0, 1), BuildingBlock: AJUNOK_clean_linker_0, # of connection points: 2
#     Edge 75, Type (0, 1), BuildingBlock: AJUNOK_clean_linker_0, # of connection points: 2
#     Edge 76, Type (0, 1), BuildingBlock: AJUNOK_clean_linker_0, # of connection points: 2
#     Edge 77, Type (0, 1), BuildingBlock: AJUNOK_clean_linker_0, # of connection points: 2
#     Edge 78, Type (0, 1), BuildingBlock: AJUNOK_clean_linker_0, # of connection points: 2
#     Edge 79, Type (0, 1), BuildingBlock: AJUNOK_clean_linker_0, # of connection points: 2
#     Edge 80, Type (0, 1), BuildingBlock: AJUNOK_clean_linker_0, # of connection points: 2
#     Edge 81, Type (0, 1), BuildingBlock: AJUNOK_clean_linker_0, # of connection points: 2
#     Edge 82, Type (0, 1), BuildingBlock: AJUNOK_clean_linker_0, # of connection points: 2
#     Edge 83, Type (0, 1), BuildingBlock: AJUNOK_clean_linker_0, # of connection points: 2
#     Edge 84, Type (0, 1), BuildingBlock: AJUNOK_clean_linker_0, # of connection points: 2
#     Edge 85, Type (0, 1), BuildingBlock: AJUNOK_clean_linker_0, # of connection points: 2
#     Edge 86, Type (0, 1), BuildingBlock: AJUNOK_clean_linker_0, # of connection points: 2
#     Edge 87, Type (0, 1), BuildingBlock: AJUNOK_clean_linker_0, # of connection points: 2
#     Edge 88, Type (0, 1), BuildingBlock: AJUNOK_clean_linker_0, # of connection points: 2
#     Edge 89, Type (0, 1), BuildingBlock: AJUNOK_clean_linker_0, # of connection points: 2
#     Edge 90, Type (0, 1), BuildingBlock: AJUNOK_clean_linker_0, # of connection points: 2
#     Edge 91, Type (0, 1), BuildingBlock: AJUNOK_clean_linker_0, # of connection points: 2
#     Edge 92, Type (0, 1), BuildingBlock: AJUNOK_clean_linker_0, # of connection points: 2
#     Edge 93, Type (0, 1), BuildingBlock: AJUNOK_clean_linker_0, # of connection points: 2
#     Edge 94, Type (0, 1), BuildingBlock: AJUNOK_clean_linker_0, # of connection points: 2
#     Edge 95, Type (0, 1), BuildingBlock: AJUNOK_clean_linker_0, # of connection points: 2
#     Edge 96, Type (0, 1), BuildingBlock: AJUNOK_clean_linker_0, # of connection points: 2
#     Edge 97, Type (0, 1), BuildingBlock: AJUNOK_clean_linker_0, # of connection points: 2
#     Edge 98, Type (0, 1), BuildingBlock: AJUNOK_clean_linker_0, # of connection points: 2
#     Edge 99, Type (0, 1), BuildingBlock: AJUNOK_clean_linker_0, # of connection points: 2
#     Edge 100, Type (0, 1), BuildingBlock: AJUNOK_clean_linker_0, # of connection points: 2
#     Edge 101, Type (0, 1), BuildingBlock: AJUNOK_clean_linker_0, # of connection points: 2
# Relax obj value: 0.159
# Max RMSD: 0.191
# Mean RMSD: 0.174
data_MOF--net-cor--node1-NAHDIM_clean_sbu_0--node2-MIDCAF_clean_sbu_0--edge1-AJUNOK_clean_linker_0
_symmetry_space_group_name_H-M    P1
_symmetry_Int_Tables_number       1
_symmetry_cell_setting            triclinic
loop_
_symmetry_equiv_pos_as_xyz
'x, y, z'
_cell_length_a     29.28257
_cell_length_b     29.052748
_cell_length_c     68.73222
_cell_angle_alpha  91.838386
_cell_angle_beta   89.359235
_cell_angle_gamma 121.55806
loop_
_atom_site_label
_atom_site_type_symbol
_atom_site_fract_x
_atom_site_fract_y
_atom_site_fract_z
_atom_type_partial_charge
C0 C 0.71196 0.09973 0.25975 0.0
O1 O 0.69656 0.05977 0.24691 0.0
O2 O 0.62959 0.97176 0.29218 0.0
Zn3 Zn 0.70696 0.02008 0.28483 0.0
O4 O 0.73029 0.98999 0.26236 0.0
C5 C 0.73944 0.98735 0.31867 0.0
O6 O 0.69835 0.93973 0.31346 0.0
O7 O 0.71974 0.09256 0.27729 0.0
C8 C 0.71838 0.94139 0.25968 0.0
O9 O 0.68517 0.90451 0.2717 0.0
C10 C 0.6149 0.97811 0.30907 0.0
O11 O 0.64973 0.01731 0.32074 0.0
O12 O 0.75131 0.028 0.30848 0.0
C13 C 0.06142 0.6771 0.30809 0.0
O14 O 0.02718 0.67795 0.32034 0.0
O15 O 0.94851 0.66419 0.27067 0.0
Zn16 Zn 0.01913 0.72363 0.2825 0.0
O17 O 0.0114 0.76283 0.30612 0.0
C18 C 0.04976 0.7766 0.24431 0.0
O19 O 0.01673 0.72828 0.23665 0.0
O20 O 0.06416 0.69321 0.29084 0.0
C21 C 0.97634 0.74566 0.31948 0.0
O22 O 0.9357 0.69547 0.31852 0.0
C23 C 0.90608 0.66589 0.26947 0.0
O24 O 0.90514 0.70728 0.27722 0.0
O25 O 0.05771 0.78188 0.26264 0.0
C26 C 0.35201 0.28821 0.26114 0.0
O27 O 0.32773 0.29756 0.24726 0.0
O28 O 0.32368 0.39093 0.29325 0.0
Zn29 Zn 0.28594 0.31234 0.28544 0.0
O30 O 0.23822 0.29448 0.262 0.0
C31 C 0.25196 0.24883 0.3208 0.0
O32 O 0.2986 0.25258 0.31959 0.0
O33 O 0.34037 0.29182 0.27881 0.0
C34 C 0.19665 0.29771 0.2616 0.0
O35 O 0.18529 0.31804 0.27693 0.0
C36 C 0.34348 0.40616 0.3103 0.0
O37 O 0.34083 0.3705 0.32224 0.0
O38 O 0.23869 0.26997 0.30783 0.0
C39 C 0.34754 0.96734 0.80636 0.0
O40 O 0.34808 0.00048 0.81991 0.0
O41 O 0.35067 0.08343 0.77752 0.0
Zn42 Zn 0.29226 0.00756 0.78479 0.0
O43 O 0.25315 0.0075 0.80939 0.0
C44 C 0.2365 0.96451 0.74553 0.0
O45 O 0.28232 0.97713 0.73744 0.0
O46 O 0.32599 0.96348 0.7899 0.0
C47 C 0.27103 0.04162 0.82361 0.0
O48 O 0.32024 0.08351 0.82296 0.0
C49 C 0.35221 0.10792 0.76223 0.0
O50 O 0.31172 0.08519 0.74995 0.0
O51 O 0.2347 0.97305 0.76374 0.0
C52 C 0.9156 0.28936 0.7656 0.0
O53 O 0.95008 0.30074 0.75144 0.0
O54 O 0.05129 0.39225 0.79358 0.0
Zn55 Zn 0.00756 0.31234 0.78771 0.0
O56 O 0.03391 0.29141 0.76366 0.0
C57 C -0.01142 0.25927 0.82567 0.0
O58 O 0.94596 0.26321 0.82712 0.0
O59 O 0.93064 0.29044 0.78301 0.0
C60 C 0.08135 0.3016 0.76108 0.0
O61 O 0.11806 0.3306 0.77438 0.0
C62 C 0.05018 0.41096 0.81047 0.0
O63 O 0.01953 0.37778 0.82391 0.0
O64 O 0.01707 0.27542 0.81043 0.0
C65 C 0.61489 0.67645 0.80547 0.0
O66 O 0.64827 0.67985 0.81883 0.0
O67 O 0.7312 0.67687 0.7761 0.0
Zn68 Zn 0.71156 0.73272 0.78309 0.0
O69 O 0.75185 0.77712 0.80713 0.0
C70 C 0.71877 0.78633 0.74463 0.0
O71 O 0.68201 0.74041 0.73635 0.0
O72 O 0.63265 0.69564 0.78879 0.0
C73 C 0.76949 0.7629 0.82109 0.0
O74 O 0.76213 0.71422 0.82054 0.0
C75 C 0.74477 0.66837 0.75932 0.0
O76 O 0.74801 0.69816 0.7448 0.0
O77 O 0.73319 0.78777 0.76216 0.0
C78 C 0.38626 0.43323 0.59499 0.0
O79 O 0.37877 0.39974 0.58036 0.0
O80 O 0.29938 0.29574 0.62946 0.0
Zn81 Zn 0.37168 0.34429 0.61778 0.0
O82 O 0.38478 0.31278 0.5931 0.0
C83 C 0.41747 0.34078 0.65547 0.0
O84 O 0.3718 0.32933 0.66336 0.0
O85 O 0.38443 0.41809 0.61231 0.0
C86 C 0.38101 0.26713 0.59224 0.0
O87 O 0.36184 0.2361 0.60736 0.0
C88 C 0.26846 0.31101 0.63598 0.0
O89 O 0.28054 0.36083 0.63364 0.0
O90 O 0.42509 0.35036 0.63737 0.0
C91 C 0.72256 0.00134 0.64033 0.0
O92 O 0.68384 -0.00439 0.65179 0.0
O93 O 0.61506 -0.00527 0.60345 0.0
Zn94 Zn 0.68352 0.05332 0.61644 0.0
O95 O 0.66776 0.08267 0.64105 0.0
C96 C 0.71466 0.11113 0.57966 0.0
O97 O 0.68639 0.06257 0.57154 0.0
O98 O 0.72944 0.02361 0.62399 0.0
C99 C 0.70521 0.11302 0.65306 0.0
O100 O 0.75419 0.12478 0.64926 0.0
C101 C 0.57161 -0.00535 0.60424 0.0
O102 O 0.56994 0.03264 0.61452 0.0
O103 O 0.72101 0.11571 0.59808 0.0
C104 C 0.02141 0.6183 0.5919 0.0
O105 O -0.00596 0.61992 0.57722 0.0
O106 O -0.00684 0.72906 0.62204 0.0
Zn107 Zn 0.95733 0.64972 0.61488 0.0
O108 O 0.90893 0.62847 0.59135 0.0
C109 C 0.92717 0.59018 0.65108 0.0
O110 O 0.97506 0.59681 0.64985 0.0
O111 O 0.01273 0.6299 0.60904 0.0
C112 C 0.86822 0.63304 0.59021 0.0
O113 O 0.85785 0.65659 0.60475 0.0
C114 C 0.01425 0.74559 0.63888 0.0
O115 O 0.01498 0.71134 0.65066 0.0
O116 O 0.91144 0.60818 0.63775 0.0
C117 C -0.00454 0.28231 0.15039 0.0
O118 O 0.9831 0.30828 0.1633 0.0
O119 O 0.01215 0.39604 0.11382 0.0
Zn120 Zn 0.95255 0.32433 0.12334 0.0
O121 O 0.91256 0.33221 0.14599 0.0
C122 C 0.9036 0.29428 0.08384 0.0
O123 O 0.95227 0.32765 0.07755 0.0
O124 O 0.98475 0.28215 0.13246 0.0
C125 C 0.92675 0.37301 0.15728 0.0
O126 O 0.97213 0.41835 0.15424 0.0
C127 C 0.05494 0.42211 0.12387 0.0
O128 O 0.05825 0.40237 0.14034 0.0
O129 O 0.89667 0.28528 0.10197 0.0
C130 C 0.59871 0.64156 0.08599 0.0
O131 O 0.64198 0.66795 0.07535 0.0
O132 O 0.71538 0.71336 0.12251 0.0
Zn133 Zn 0.67362 0.6373 0.11096 0.0
O134 O 0.70749 0.62393 0.08746 0.0
C135 C 0.64147 0.57867 0.14763 0.0
O136 O 0.6118 0.59999 0.15035 0.0
O137 O 0.60206 0.62345 0.1022 0.0
C138 C 0.75346 0.62945 0.08667 0.0
O139 O 0.78551 0.6505 0.10187 0.0
C140 C 0.73899 0.72197 0.13885 0.0
O141 O 0.74178 0.68286 0.14656 0.0
O142 O 0.66698 0.58626 0.13178 0.0
C143 C 0.26103 0.00932 0.13549 0.0
O144 O 0.29584 0.00482 0.14584 0.0
O145 O 0.35102 -0.00185 0.09725 0.0
Zn146 Zn 0.3502 0.06138 0.10963 0.0
O147 O 0.40004 0.0915 0.13302 0.0
C148 C 0.38162 0.11726 0.07205 0.0
O149 O 0.36224 0.0687 0.06417 0.0
O150 O 0.27514 0.03316 0.11932 0.0
C151 C 0.39582 0.12244 0.1455 0.0
O152 O 0.3588 0.13431 0.14286 0.0
C153 C 0.39378 0.00034 0.09195 0.0
O154 O 0.43994 0.04586 0.09448 0.0
O155 O 0.37735 0.12216 0.09037 0.0
C156 C 0.08022 0.78408 0.93074 0.0
O157 O 0.09285 0.76196 0.91638 0.0
O158 O 0.00096 0.63575 0.96336 0.0
Zn159 Zn 0.07172 0.69707 0.95351 0.0
O160 O 0.09424 0.67226 0.92939 0.0
C161 C 0.12538 0.73922 0.99097 0.0
O162 O 0.08644 0.74828 0.99421 0.0
O163 O 0.06815 0.76218 0.94725 0.0
C164 C 0.08183 0.624 0.92539 0.0
O165 O 0.05215 0.58584 0.93762 0.0
C166 C 0.96749 0.63977 0.97416 0.0
O167 O 0.97681 0.68794 0.9792 0.0
O168 O 0.12765 0.71871 0.97461 0.0
C169 C 0.42982 0.37684 0.97107 0.0
O170 O 0.40388 0.38547 0.98498 0.0
O171 O 0.31121 0.36836 0.93519 0.0
Zn172 Zn 0.38416 0.42417 0.94673 0.0
O173 O 0.37624 0.46191 0.97094 0.0
C174 C 0.41365 0.4755 0.90864 0.0
O175 O 0.38212 0.42612 0.90156 0.0
O176 O 0.42722 0.38996 0.95376 0.0
C177 C 0.33943 0.43903 0.98354 0.0
O178 O 0.3031 0.38754 0.981 0.0
C179 C 0.28452 0.32101 0.9417 0.0
O180 O 0.30427 0.30784 0.95606 0.0
O181 O 0.42224 0.48272 0.92693 0.0
C182 C 0.68703 0.9277 0.93181 0.0
O183 O 0.64789 0.89883 0.91931 0.0
O184 O 0.62695 0.01602 0.96789 0.0
Zn185 Zn 0.61063 0.94918 0.95177 0.0
O186 O 0.57824 0.94691 0.92577 0.0
C187 C 0.56172 0.86531 0.9815 0.0
O188 O 0.60869 0.89236 0.99023 0.0
O189 O 0.67867 0.94967 0.94663 0.0
C190 C 0.54721 0.96416 0.92248 0.0
O191 O 0.53815 0.9901 0.93651 0.0
C192 C 0.67453 0.05336 0.97244 0.0
O193 O 0.71495 0.04927 0.96632 0.0
O194 O 0.55523 0.88213 0.96553 0.0
C195 C 0.66847 0.61931 0.47899 0.0
O196 O 0.66759 0.65289 0.49201 0.0
O197 O 0.68004 0.73482 0.44862 0.0
Zn198 Zn 0.61888 0.66113 0.4555 0.0
O199 O 0.57938 0.66405 0.47921 0.0
C200 C 0.57025 0.63323 0.41543 0.0
O201 O 0.61912 0.65822 0.40844 0.0
O202 O 0.64934 0.61528 0.46202 0.0
C203 C 0.59612 0.70195 0.49205 0.0
O204 O 0.64354 0.74587 0.49011 0.0
C205 C 0.67982 0.76915 0.43763 0.0
O206 O 0.63459 0.75864 0.42972 0.0
O207 O 0.5636 0.62881 0.43377 0.0
C208 C 0.23484 0.9452 0.42854 0.0
O209 O 0.26981 0.9562 0.4146 0.0
O210 O 0.3681 0.04778 0.46002 0.0
Zn211 Zn 0.32546 0.96897 0.45231 0.0
O212 O 0.35567 0.95242 0.4284 0.0
C213 C 0.29636 0.9065 0.48808 0.0
O214 O 0.25226 0.90788 0.4875 0.0
O215 O 0.24928 0.94731 0.44613 0.0
C216 C 0.40405 0.96587 0.42565 0.0
O217 O 0.44011 -0.00501 0.43913 0.0
C218 C 0.36653 0.06344 0.47739 0.0
O219 O 0.33584 0.02773 0.49019 0.0
O220 O 0.33062 0.92798 0.47461 0.0
C221 C 0.9343 0.33808 0.47476 0.0
O222 O 0.96978 0.33929 0.48659 0.0
O223 O 0.03512 0.32885 0.43702 0.0
Zn224 Zn 0.02522 0.38773 0.44893 0.0
O225 O 0.07241 0.42663 0.47251 0.0
C226 C 0.05243 0.44166 0.41094 0.0
O227 O 0.03795 0.39391 0.40326 0.0
O228 O 0.94824 0.35556 0.4576 0.0
C229 C 0.09054 0.40953 0.48531 0.0
O230 O 0.08028 0.35979 0.4838 0.0
C231 C 0.07928 0.33054 0.43537 0.0
O232 O 0.12341 0.37227 0.44264 0.0
O233 O 0.04725 0.44621 0.4292 0.0
Zn234 Zn -0.00998 0.0098 0.15578 0.0
Zn235 Zn -0.00183 0.00338 0.22947 0.0
Zn236 Zn -0.00456 0.00726 0.19241 0.0
C237 C 0.05435 0.95724 0.21617 0.0
C238 C 0.0431 0.11142 0.22173 0.0
O239 O 0.02533 0.09192 0.18417 0.0
O240 O 0.01569 0.08545 0.1522 0.0
C241 C 0.88834 0.93474 0.16623 0.0
O242 O 0.04036 0.96717 0.19984 0.0
O243 O 0.04309 0.97218 0.23198 0.0
O244 O 0.02991 0.0806 0.23593 0.0
O245 O 0.03407 0.09168 0.20416 0.0
O246 O 0.9142 0.95741 0.15114 0.0
O247 O 0.91159 0.94995 0.18303 0.0
O248 O 0.04845 0.98023 0.17989 0.0
O249 O 0.0397 0.98688 0.14844 0.0
C250 C 0.06093 0.97645 0.16209 0.0
O251 O 0.91149 0.96211 0.20343 0.0
O252 O 0.92127 0.95696 0.23497 0.0
C253 C 0.02928 0.11382 0.16771 0.0
C254 C 0.89113 0.94718 0.22049 0.0
Zn255 Zn 0.98704 0.00272 0.35975 0.0
Zn256 Zn 0.00151 0.01837 0.42747 0.0
Zn257 Zn -0.00951 0.0077 0.39165 0.0
C258 C 0.04568 0.12236 0.41517 0.0
C259 C 0.89068 0.95199 0.41927 0.0
O260 O 0.00831 0.94566 0.38035 0.0
O261 O 0.94931 0.92268 0.35686 0.0
C262 C 0.08088 0.08841 0.36587 0.0
O263 O 0.03697 0.0964 0.3987 0.0
O264 O 0.03233 0.09701 0.43082 0.0
O265 O 0.9249 0.96817 0.43284 0.0
O266 O 0.90625 0.96714 0.40178 0.0
O267 O 0.06569 0.04606 0.3556 0.0
O268 O 0.05084 0.08742 0.37991 0.0
O269 O 0.90859 0.98331 0.3819 0.0
O270 O 0.94511 0.03823 0.35761 0.0
C271 C 0.90489 0.0104 0.36816 0.0
O272 O 0.03123 0.96433 0.39918 0.0
O273 O 0.04897 0.98979 0.4302 0.0
C274 C 0.97798 0.91165 0.36685 0.0
C275 C 0.05354 0.96562 0.41542 0.0
Zn276 Zn 0.01257 0.02932 0.92894 0.0
Zn277 Zn 0.01848 0.02796 0.86198 0.0
Zn278 Zn 0.01513 0.02796 0.89423 0.0
C279 C 0.01324 0.11385 0.87037 0.0
C280 C 0.92998 0.93611 0.86817 0.0
O281 O 0.05582 0.98564 0.90278 0.0
O282 O 0.02796 0.972 0.93314 0.0
C283 C 0.08343 0.1353 0.91995 0.0
O284 O 0.03833 0.10992 0.8849 0.0
O285 O -0.01119 0.07447 0.85847 0.0
O286 O 0.97014 0.94909 0.85759 0.0
O287 O 0.93422 0.96758 0.88262 0.0
O288 O 0.07075 0.10418 0.93404 0.0
O289 O 0.06199 0.11569 0.90306 0.0
O290 O 0.92781 0.98329 0.90173 0.0
O291 O 0.93889 0.01243 0.93231 0.0
C292 C 0.90809 0.9885 0.91795 0.0
O293 O 0.07434 0.00609 0.88423 0.0
O294 O 0.09673 0.06009 0.85957 0.0
C295 C 0.05099 0.96325 0.91917 0.0
C296 C 0.10742 0.03315 0.87061 0.0
Zn297 Zn 0.00737 0.01957 0.72558 0.0
Zn298 Zn 0.0101 0.02354 0.65113 0.0
Zn299 Zn 0.00833 0.02177 0.68861 0.0
C300 C 0.03831 0.94978 0.66057 0.0
C301 C 0.08004 0.12846 0.66351 0.0
O302 O 0.05314 0.10726 0.70021 0.0
O303 O 0.0477 0.09699 0.73205 0.0
C304 C 0.90106 0.9648 0.7148 0.0
O305 O 0.03574 0.96719 0.67782 0.0
O306 O 0.02917 0.96881 0.6459 0.0
O307 O 0.06425 0.1001 0.64798 0.0
O308 O 0.0626 0.10667 0.68013 0.0
O309 O 0.92999 0.97967 0.72989 0.0
O310 O 0.92285 0.97757 0.69785 0.0
O311 O 0.05094 0.98034 0.69774 0.0
O312 O 0.04508 0.98177 0.72981 0.0
C313 C 0.06203 0.97021 0.71463 0.0
O314 O 0.92484 0.99201 0.67827 0.0
O315 O 0.93571 0.00225 0.64652 0.0
C316 C 0.06339 0.12753 0.71773 0.0
C317 C 0.90581 0.99013 0.6612 0.0
Zn318 Zn 0.65896 0.34058 0.56051 0.0
Zn319 Zn 0.65791 0.33674 0.48653 0.0
Zn320 Zn 0.65856 0.33987 0.52353 0.0
C321 C 0.73093 0.30929 0.49621 0.0
C322 C 0.55355 0.26664 0.49639 0.0
O323 O 0.5733 0.29435 0.53361 0.0
O324 O 0.58205 0.29567 0.56555 0.0
C325 C 0.70804 0.44761 0.55136 0.0
O326 O 0.71417 0.31301 0.51331 0.0
O327 O 0.71122 0.31707 0.48137 0.0
O328 O 0.58275 0.28236 0.48151 0.0
O329 O 0.57445 0.28485 0.51343 0.0
O330 O 0.69264 0.41833 0.56603 0.0
O331 O 0.69904 0.42583 0.53408 0.0
O332 O 0.7007 0.29855 0.53316 0.0
O333 O 0.70097 0.30729 0.56521 0.0
C334 C 0.71221 0.28937 0.55014 0.0
O335 O 0.68916 0.42358 0.51395 0.0
O336 O 0.6801 0.4116 0.48203 0.0
C337 C 0.55238 0.2818 0.5507 0.0
C338 C 0.69253 0.44245 0.4969 0.0
Zn339 Zn 0.67257 0.3534 0.76054 0.0
Zn340 Zn 0.67857 0.34165 0.69305 0.0
Zn341 Zn 0.67352 0.34848 0.72437 0.0
C342 C 0.5936 0.34758 0.69586 0.0
C343 C 0.76778 0.4308 0.70006 0.0
O344 O 0.71354 0.30662 0.73448 0.0
O345 O 0.72089 0.32678 0.76599 0.0
C346 C 0.56495 0.28933 0.74775 0.0
O347 O 0.59435 0.32474 0.71154 0.0
O348 O 0.63608 0.37298 0.68615 0.0
O349 O 0.75785 0.38785 0.69116 0.0
O350 O 0.73402 0.42864 0.71278 0.0
O351 O 0.59438 0.30254 0.76272 0.0
O352 O 0.5867 0.30674 0.73105 0.0
O353 O 0.71812 0.43601 0.73186 0.0
O354 O 0.70129 0.43199 0.76334 0.0
C355 C 0.72077 0.4597 0.74835 0.0
O356 O 0.69571 0.28744 0.71536 0.0
O357 O 0.64283 0.2623 0.68983 0.0
C358 C 0.73142 0.30619 0.7515 0.0
C359 C 0.66974 0.2528 0.70138 0.0
Zn360 Zn 0.66081 0.35331 0.25894 0.0
Zn361 Zn 0.6582 0.34753 0.19007 0.0
Zn362 Zn 0.65883 0.35133 0.22194 0.0
C363 C 0.65031 0.43143 0.19761 0.0
C364 C 0.57309 0.25702 0.19652 0.0
O365 O 0.69929 0.30812 0.22957 0.0
O366 O 0.68581 0.30181 0.26136 0.0
C367 C 0.72282 0.461 0.24684 0.0
O368 O 0.68046 0.43137 0.21112 0.0
O369 O 0.62184 0.38879 0.18751 0.0
O370 O 0.61451 0.26735 0.18712 0.0
O371 O 0.57744 0.29072 0.21016 0.0
O372 O 0.71236 0.43266 0.26169 0.0
O373 O 0.70269 0.43832 0.23013 0.0
O374 O 0.57401 0.30663 0.2299 0.0
O375 O 0.5829 0.32471 0.26158 0.0
C376 C 0.55322 0.30463 0.24668 0.0
O377 O 0.72008 0.3331 0.21182 0.0
O378 O 0.73735 0.38674 0.18746 0.0
C379 C 0.70102 0.28883 0.246 0.0
C380 C 0.75201 0.3627 0.19835 0.0
Zn381 Zn 0.67638 0.34448 0.05614 0.0
Zn382 Zn 0.68966 0.33695 0.98292 0.0
Zn383 Zn 0.68292 0.34413 1.01931 0.0
C384 C 0.69792 0.25469 0.99596 0.0
C385 C 0.77394 0.43857 0.99413 0.0
O386 O 0.73039 0.43067 1.02917 0.0
O387 O 0.71685 0.42282 0.06094 0.0
C388 C 0.57155 0.29328 0.04334 0.0
O389 O 0.70298 0.28142 1.01197 0.0
O390 O 0.68706 0.26824 0.98026 0.0
O391 O 0.76041 0.40351 0.98055 0.0
O392 O 0.74573 0.42671 1.0098 0.0
O393 O 0.59845 0.30649 0.0589 0.0
O394 O 0.59568 0.30541 1.02675 0.0
O395 O 0.71922 0.29906 1.03124 0.0
O396 O 0.71212 0.30611 0.06307 0.0
C397 C 0.72861 0.29084 0.04872 0.0
O398 O 0.60366 0.32212 1.0073 0.0
O399 O 0.62498 0.33849 0.97634 0.0
C400 C 0.73676 0.4522 0.0464 0.0
C401 C 0.59166 0.32768 0.98987 0.0
Zn402 Zn 0.35282 0.69533 0.88669 0.0
Zn403 Zn 0.34201 0.68542 0.81281 0.0
Zn404 Zn 0.3463 0.69138 0.85025 0.0
C405 C 0.41279 0.65468 0.82235 0.0
C406 C 0.23829 0.61654 0.8253 0.0
O407 O 0.26335 0.64729 0.86231 0.0
O408 O 0.27788 0.64628 0.8937 0.0
C409 C 0.39603 0.80083 0.87659 0.0
O410 O 0.39792 0.66084 0.83949 0.0
O411 O 0.39395 0.66359 0.80753 0.0
O412 O 0.26567 0.63082 0.80994 0.0
O413 O 0.26119 0.63612 0.84196 0.0
O414 O 0.38088 0.77241 0.89148 0.0
O415 O 0.38799 0.7782 0.8595 0.0
O416 O 0.39109 0.65233 0.8598 0.0
O417 O 0.40137 0.66963 0.89149 0.0
C418 C 0.40881 0.64853 0.87644 0.0
O419 O 0.37494 0.77387 0.83949 0.0
O420 O 0.36354 0.75996 0.80769 0.0
C421 C 0.24554 0.63371 0.87975 0.0
C422 C 0.37645 0.79157 0.82236 0.0
Zn423 Zn 0.35277 0.69846 0.09389 0.0
Zn424 Zn 0.26847 0.63285 1.0361 0.0
Zn425 Zn 0.32342 0.67445 0.0613 0.0
C426 C 0.24462 0.70244 0.04559 0.0
C427 C 0.37724 0.70083 1.02347 0.0
O428 O 0.3947 0.66738 0.05912 0.0
O429 O 0.40571 0.67511 0.09112 0.0
C430 C 0.24621 0.60952 0.09392 0.0
O431 O 0.29518 0.72427 0.04872 0.0
O432 O 0.21502 0.65153 0.04595 0.0
O433 O 0.33066 0.68891 1.01838 0.0
O434 O 0.38195 0.68246 0.03973 0.0
O435 O 0.28061 0.64622 0.10528 0.0
O436 O 0.25623 0.61112 0.07578 0.0
O437 O 0.34131 0.7573 0.06289 0.0
O438 O 0.37912 0.77722 0.09195 0.0
C439 C 0.36698 0.79188 0.07673 0.0
O440 O 0.34736 0.6218 0.04532 0.0
O441 O 0.26281 0.56124 0.03932 0.0
C442 C 0.4188 0.66601 0.07449 0.0
C443 C 0.31107 0.57335 0.03983 0.0
Zn444 Zn 0.32872 0.68289 0.59448 0.0
Zn445 Zn 0.33278 0.67712 0.5256 0.0
Zn446 Zn 0.32955 0.67937 0.5577 0.0
C447 C 0.31724 0.75668 0.53279 0.0
C448 C 0.25089 0.58156 0.53299 0.0
O449 O 0.37361 0.64093 0.56654 0.0
O450 O 0.35516 0.63309 0.59795 0.0
C451 C 0.38909 0.78984 0.58216 0.0
O452 O 0.34663 0.7581 0.54689 0.0
O453 O 0.2931 0.71465 0.52202 0.0
O454 O 0.29299 0.59669 0.5233 0.0
O455 O 0.25065 0.61408 0.54615 0.0
O456 O 0.37907 0.76224 0.59719 0.0
O457 O 0.36962 0.76626 0.56551 0.0
O458 O 0.2439 0.63182 0.56486 0.0
O459 O 0.25065 0.65343 0.59624 0.0
C460 C 0.22187 0.63113 0.58126 0.0
O461 O 0.39305 0.66378 0.54829 0.0
O462 O 0.41252 0.71939 0.5244 0.0
C463 C 0.37436 0.62225 0.5832 0.0
C464 C 0.42611 0.69432 0.53525 0.0
Zn465 Zn 0.34241 0.68364 0.31922 0.0
Zn466 Zn 0.33888 0.68575 0.39336 0.0
Zn467 Zn 0.3415 0.68674 0.35612 0.0
C468 C 0.39638 0.63861 0.38331 0.0
C469 C 0.233 0.62716 0.38191 0.0
O470 O 0.25819 0.65725 0.3457 0.0
O471 O 0.26983 0.66728 0.31399 0.0
C472 C 0.41679 0.78935 0.32994 0.0
O473 O 0.38456 0.64686 0.36623 0.0
O474 O 0.37952 0.65109 0.39829 0.0
O475 O 0.26118 0.64289 0.39721 0.0
O476 O 0.25554 0.64092 0.3651 0.0
O477 O 0.40066 0.75782 0.31518 0.0
O478 O 0.39694 0.77124 0.34683 0.0
O479 O 0.36964 0.63194 0.34656 0.0
O480 O 0.3574 0.6261 0.31472 0.0
C481 C 0.36971 0.61102 0.32973 0.0
O482 O 0.38467 0.77255 0.36671 0.0
O483 O 0.37618 0.76374 0.39862 0.0
C484 C 0.23982 0.65628 0.32859 0.0
C485 C 0.39261 0.79353 0.38409 0.0
C486 C 0.10055 0.23717 0.25256 0.0
C487 C 0.15463 0.26385 0.24696 0.0
C488 C 0.06174 0.19056 0.24239 0.0
C489 C 0.07556 0.16991 0.22611 0.0
H490 H 0.089 0.2485 0.26606 0.0
H491 H 0.02186 0.16753 0.24846 0.0
S492 S 0.20829 0.23354 0.20246 0.0
N493 N 0.21776 0.27283 0.22183 0.0
N494 N 0.1442 0.18548 0.20255 0.0
C495 C 0.12751 0.20079 0.21865 0.0
C496 C 0.16734 0.24782 0.22918 0.0
C497 C 0.77548 0.96448 0.22992 0.0
C498 C 0.7503 0.92993 0.24558 0.0
C499 C 0.81675 0.96408 0.21946 0.0
C500 C 0.83493 0.92991 0.22461 0.0
H501 H 0.76588 -0.00531 0.2266 0.0
H502 H 0.83838 -0.0052 0.2088 0.0
S503 S 0.77601 0.82482 0.26179 0.0
N504 N 0.7409 0.85444 0.26346 0.0
N505 N 0.81973 0.85531 0.24423 0.0
C506 C 0.80636 0.89132 0.23875 0.0
C507 C 0.76369 0.89094 0.24916 0.0
C508 C 0.03852 0.82154 0.21572 0.0
C509 C 0.06656 0.82557 0.23287 0.0
C510 C 0.0413 0.8673 0.20811 0.0
C511 C 0.07205 0.9183 0.21748 0.0
H512 H 0.01023 0.78233 0.20919 0.0
H513 H 0.01437 0.8615 0.19631 0.0
S514 S 0.16492 0.95294 0.25911 0.0
N515 N 0.13549 0.88674 0.25614 0.0
N516 N 0.13979 0.97217 0.24201 0.0
C517 C 0.10607 0.92393 0.23281 0.0
C518 C 0.10346 0.87762 0.24051 0.0
C519 C 0.21697 0.17434 0.34438 0.0
C520 C 0.21287 0.21542 0.33585 0.0
C521 C 0.1757 0.13591 0.35592 0.0
C522 C 0.12957 0.13798 0.35978 0.0
H523 H 0.25049 0.16948 0.34105 0.0
H524 H 0.17834 0.10231 0.36086 0.0
S525 S 0.10274 0.24186 0.34353 0.0
N526 N 0.16145 0.25933 0.33394 0.0
N527 N 0.08427 0.18708 0.35593 0.0
C528 C 0.12697 0.18137 0.35285 0.0
C529 C 0.16857 0.22012 0.34077 0.0
C530 C 0.77475 0.94665 0.34108 0.0
C531 C 0.77456 0.99245 0.33501 0.0
C532 C 0.81416 0.9518 0.35396 0.0
C533 C 0.85383 0.00271 0.36147 0.0
H534 H 0.74669 0.90698 0.33482 0.0
H535 H 0.81605 0.91637 0.35682 0.0
S536 S 0.8656 0.13369 0.35291 0.0
N537 N 0.81349 0.08938 0.33957 0.0
N538 N 0.88719 0.09866 0.36379 0.0
C539 C 0.85121 0.04797 0.35688 0.0
C540 C 0.81157 0.04295 0.34367 0.0
C541 C 0.93242 0.77528 0.34403 0.0
C542 C 0.97955 0.78367 0.33512 0.0
C543 C 0.93314 0.81537 0.35619 0.0
C544 C 0.98113 0.86464 0.36027 0.0
H545 H 0.89413 0.73919 0.34053 0.0
H546 H 0.89535 0.80925 0.36141 0.0
S547 S 0.11648 0.90342 0.34293 0.0
N548 N 0.0765 0.84265 0.33302 0.0
N549 N 0.07741 0.91767 0.35593 0.0
C550 C 0.02906 0.87164 0.35285 0.0
C551 C 0.02837 0.83122 0.34023 0.0
C552 C 0.80812 0.85463 0.8371 0.0
C553 C 0.80223 0.80318 0.83673 0.0
C554 C 0.84595 0.8968 0.84929 0.0
C555 C 0.87883 0.88892 0.86167 0.0
H556 H 0.78557 0.86346 0.8271 0.0
H557 H 0.85229 0.93681 0.84795 0.0
S558 S 0.8747 0.76102 0.86861 0.0
N559 N 0.82862 0.74564 0.85178 0.0
N560 N 0.90017 0.82557 0.87442 0.0
C561 C 0.87064 0.83702 0.86266 0.0
C562 C 0.83203 0.79388 0.85031 0.0
C563 C 0.18462 0.98719 0.84154 0.0
C564 C 0.23454 0.03585 0.83985 0.0
C565 C 0.14493 0.98372 0.85413 0.0
C566 C 0.15377 0.02881 0.86539 0.0
H567 H 0.17479 0.95242 0.8322 0.0
H568 H 0.10547 0.9473 0.85359 0.0
S569 S 0.27962 0.16245 0.86902 0.0
N570 N 0.29269 0.12768 0.85282 0.0
N571 N 0.21732 0.12108 0.87602 0.0
C572 C 0.20486 0.07584 0.86528 0.0
C573 C 0.24552 0.0794 0.85263 0.0
C574 C 0.96097 0.19825 0.85397 0.0
C575 C 0.00103 0.23219 0.84087 0.0
C576 C 0.96812 0.16424 0.86592 0.0
C577 C 0.01592 0.16393 0.86551 0.0
H578 H 0.9223 0.19479 0.85398 0.0
H579 H 0.93435 0.13471 0.87428 0.0
S580 S 0.13646 0.25129 0.83643 0.0
N581 N 0.09302 0.26828 0.83018 0.0
N582 N 0.10595 0.20428 0.8528 0.0
C583 C 0.05811 0.20129 0.854 0.0
C584 C 0.05078 0.23547 0.84161 0.0
C585 C 0.77318 0.83047 0.71512 0.0
C586 C 0.75175 0.83476 0.73305 0.0
C587 C 0.81851 0.87578 0.70733 0.0
C588 C 0.84325 0.9262 0.71733 0.0
H589 H 0.75855 0.79117 0.70816 0.0
H590 H 0.83765 0.86988 0.69473 0.0
S591 S 0.79349 0.96081 0.76182 0.0
N592 N 0.75184 0.89512 0.75833 0.0
N593 N 0.83659 0.97997 0.7437 0.0
C594 C 0.81752 0.93215 0.73372 0.0
C595 C 0.77185 0.88635 0.74163 0.0
C596 C 0.13803 0.92217 0.74195 0.0
C597 C 0.18911 0.95129 0.73354 0.0
C598 C 0.0944 0.92239 0.73399 0.0
C599 C 0.10022 0.9521 0.71739 0.0
H600 H 0.13259 0.90246 0.75564 0.0
H601 H 0.057 0.90321 0.74192 0.0
S602 S 0.22292 0.02652 0.68774 0.0
N603 N 0.24109 0.00361 0.70594 0.0
N604 N 0.15879 0.00441 0.69109 0.0
C605 C 0.14929 0.9759 0.70749 0.0
C606 C 0.19396 0.97553 0.71558 0.0
C607 C 0.05477 0.24775 0.72968 0.0
C608 C 0.09076 0.27081 0.74555 0.0
C609 C 0.0521 0.20581 0.71802 0.0
C610 C 0.08476 0.18517 0.72208 0.0
H611 H 0.02548 0.25905 0.72722 0.0
H612 H 0.02001 0.18529 0.70738 0.0
S613 S 0.19312 0.23862 0.75906 0.0
N614 N 0.16632 0.27612 0.76229 0.0
N615 N 0.15978 0.19618 0.74073 0.0
C616 C 0.12515 0.21216 0.73626 0.0
C617 C 0.12853 0.25535 0.74795 0.0
C618 C 0.77196 0.57654 0.58054 0.0
C619 C 0.82613 0.59884 0.57558 0.0
C620 C 0.73151 0.53058 0.57053 0.0
C621 C 0.74379 0.50616 0.55503 0.0
H622 H 0.76105 0.59086 0.59346 0.0
H623 H 0.69111 0.51089 0.57621 0.0
S624 S 0.8774 0.55748 0.53314 0.0
N625 N 0.88863 0.59955 0.55177 0.0
N626 N 0.81214 0.51348 0.53282 0.0
C627 C 0.79656 0.53269 0.54814 0.0
C628 C 0.83798 0.57901 0.55851 0.0
C629 C 0.43387 0.29234 0.56128 0.0
C630 C 0.41067 0.25646 0.57676 0.0
C631 C 0.47536 0.29438 0.55013 0.0
C632 C 0.4952 0.26096 0.55421 0.0
H633 H 0.42336 0.32234 0.55886 0.0
H634 H 0.49618 0.32664 0.53994 0.0
S635 S 0.43939 0.15067 0.58935 0.0
N636 N 0.40328 0.17888 0.59252 0.0
N637 N 0.48226 0.18426 0.5719 0.0
C638 C 0.46761 0.22018 0.56769 0.0
C639 C 0.42501 0.21754 0.57891 0.0
C640 C 0.75693 0.21115 0.57793 0.0
C641 C 0.7285 0.15991 0.56851 0.0
C642 C 0.75759 0.25564 0.57035 0.0
C643 C 0.72994 0.25076 0.55305 0.0
H644 H 0.77535 0.21618 0.59204 0.0
H645 H 0.77587 0.29293 0.57902 0.0
S646 S 0.66098 0.12938 0.52027 0.0
N647 N 0.68094 0.10973 0.53894 0.0
N648 N 0.68199 0.19363 0.52486 0.0
C649 C 0.70762 0.20194 0.54216 0.0
C650 C 0.70682 0.15633 0.54988 0.0
C651 C 0.90067 0.52357 0.67742 0.0
C652 C 0.89023 0.55785 0.66687 0.0
C653 C 0.86241 0.48582 0.69003 0.0
C654 C 0.81286 0.48176 0.69291 0.0
H655 H 0.93712 0.52326 0.675 0.0
H656 H 0.87019 0.45713 0.69659 0.0
S657 S 0.76857 0.56692 0.67101 0.0
N658 N 0.8288 0.58924 0.66188 0.0
N659 N 0.75703 0.51794 0.68561 0.0
C660 C 0.80364 0.51867 0.68379 0.0
C661 C 0.84231 0.5568 0.67073 0.0
C662 C 0.49958 0.33633 0.65673 0.0
C663 C 0.45903 0.33882 0.66689 0.0
C664 C 0.54105 0.33666 0.66652 0.0
C665 C 0.5443 0.33974 0.68697 0.0
H666 H 0.49982 0.33456 0.64096 0.0
H667 H 0.5716 0.33547 0.65786 0.0
S668 S 0.4468 0.34352 0.72069 0.0
N669 N 0.42286 0.34124 0.69878 0.0
N670 N 0.5024 0.34285 0.71724 0.0
C671 C 0.50318 0.34009 0.69749 0.0
C672 C 0.46022 0.33948 0.68744 0.0
C673 C 0.73864 0.18669 0.67888 0.0
C674 C 0.69528 0.14054 0.66969 0.0
C675 C 0.73017 0.22028 0.6916 0.0
C676 C 0.6781 0.20849 0.69567 0.0
H677 H 0.77952 0.19942 0.67509 0.0
H678 H 0.76453 0.25832 0.69658 0.0
S679 S 0.55107 0.08678 0.67893 0.0
N680 N 0.59833 0.08033 0.66826 0.0
N681 N 0.58275 0.14364 0.69209 0.0
C682 C 0.63458 0.15955 0.68832 0.0
C683 C 0.64305 0.12549 0.67533 0.0
C684 C 0.43723 0.19196 0.17275 0.0
C685 C 0.43518 0.14906 0.16173 0.0
C686 C 0.47944 0.22383 0.18587 0.0
C687 C 0.52093 0.21381 0.18848 0.0
H688 H 0.4079 0.20324 0.17038 0.0
H689 H 0.48189 0.25916 0.19268 0.0
S690 S 0.52903 0.10026 0.16628 0.0
N691 N 0.47436 0.09356 0.15667 0.0
N692 N 0.55352 0.15364 0.18123 0.0
C693 C 0.51666 0.16811 0.17899 0.0
C694 C 0.47386 0.1357 0.16563 0.0
C695 C 0.88871 0.41818 0.17713 0.0
C696 C 0.88863 0.37096 0.17202 0.0
C697 C 0.84612 0.41554 0.18756 0.0
C698 C 0.80264 0.36582 0.19358 0.0
H699 H 0.91962 0.45693 0.17179 0.0
H700 H 0.84541 0.45225 0.18977 0.0
S701 S 0.78857 0.232 0.18713 0.0
N702 N 0.84534 0.27399 0.17615 0.0
N703 N 0.76552 0.26951 0.19592 0.0
C704 C 0.80481 0.31916 0.19034 0.0
C705 C 0.8478 0.32162 0.17946 0.0
C706 C 0.60462 0.51623 0.17548 0.0
C707 C 0.64797 0.54881 0.16332 0.0
C708 C 0.60768 0.48201 0.18865 0.0
C709 C 0.65478 0.48075 0.19059 0.0
H710 H 0.56691 0.51436 0.17387 0.0
H711 H 0.57181 0.4536 0.19638 0.0
S712 S 0.78211 0.56423 0.16441 0.0
N713 N 0.74131 0.58175 0.15555 0.0
N714 N 0.74719 0.51864 0.18083 0.0
C715 C 0.69985 0.51664 0.17985 0.0
C716 C 0.69639 0.55034 0.16604 0.0
C717 C 0.44281 0.16012 0.04361 0.0
C718 C 0.41917 0.16582 0.06082 0.0
C719 C 0.4891 0.20448 1.03587 0.0
C720 C 0.51309 0.25585 0.04508 0.0
H721 H 0.42858 0.12045 1.03706 0.0
H722 H 0.50937 0.19718 1.02398 0.0
S723 S 0.45917 0.29515 0.08716 0.0
N724 N 0.41728 0.22932 0.08428 0.0
N725 N 0.5043 0.3121 0.06984 0.0
C726 C 0.48585 0.26333 0.06064 0.0
C727 C 0.4389 0.21842 0.06852 0.0
C728 C 0.80441 0.24918 0.07944 0.0
C729 C 0.85597 0.27792 0.07125 0.0
C730 C 0.76059 0.24701 0.07048 0.0
C731 C 0.76636 0.27299 0.0529 0.0
H732 H 0.79851 0.2321 0.09369 0.0
H733 H 0.72304 0.22916 0.0783 0.0
S734 S 0.88896 0.34089 1.02286 0.0
N735 N 0.90755 0.32336 0.0425 0.0
N736 N 0.82476 0.31904 1.02574 0.0
C737 C 0.81559 0.2951 0.0432 0.0
C738 C 0.8606 0.29772 0.05239 0.0
C739 C 0.79938 0.58143 0.07512 0.0
C740 C 0.76332 0.59838 0.07136 0.0
C741 C 0.79627 0.53765 0.06463 0.0
C742 C 0.75777 0.51011 0.04983 0.0
H743 H 0.82637 0.59811 0.08752 0.0
H744 H 0.82025 0.52172 0.06948 0.0
S745 S 0.66302 0.54662 1.03123 0.0
N746 N 0.69508 0.59081 0.04927 0.0
N747 N 0.68888 0.50795 1.02988 0.0
C748 C 0.72651 0.53111 0.04424 0.0
C749 C 0.72948 0.57557 0.05492 0.0
C750 C 0.52609 0.91992 0.88939 0.0
C751 C 0.51114 0.94107 0.90527 0.0
C752 C 0.48733 0.8798 0.87681 0.0
C753 C 0.43262 0.85914 0.88001 0.0
H754 H 0.56721 0.9301 0.88793 0.0
H755 H 0.49976 0.85955 0.86647 0.0
S756 S 0.37398 0.9119 0.91555 0.0
N757 N 0.43895 0.94763 0.9203 0.0
N758 N 0.36629 0.87087 0.89698 0.0
C759 C 0.41811 0.88612 0.89365 0.0
C760 C 0.45748 0.9275 0.9063 0.0
C761 C 0.12619 0.57661 0.91177 0.0
C762 C 0.11 0.6139 0.90936 0.0
C763 C 0.16584 0.57751 0.89987 0.0
C764 C 0.18967 0.61488 0.88496 0.0
H765 H 0.11228 0.55031 0.92408 0.0
H766 H 0.18176 0.5526 0.90362 0.0
S767 S 0.15173 0.71164 0.86975 0.0
N768 N 0.11371 0.6824 0.88883 0.0
N769 N 0.18749 0.68315 0.86624 0.0
C770 C 0.16845 0.64698 0.88071 0.0
C771 C 0.12889 0.64691 0.89306 0.0
C772 C 0.3985 0.5151 0.87925 0.0
C773 C 0.42745 0.52264 0.89655 0.0
C774 C 0.39852 0.55854 0.87078 0.0
C775 C 0.42739 0.61072 0.87939 0.0
H776 H 0.37176 0.47483 0.87319 0.0
H777 H 0.37126 0.55 0.85878 0.0
S778 S 0.5218 0.65456 0.92109 0.0
N779 N 0.4951 0.58849 0.91922 0.0
N780 N 0.49455 0.66964 0.90341 0.0
C781 C 0.46222 0.61994 0.89494 0.0
C782 C 0.46233 0.57595 0.90353 0.0
C783 C 0.52023 0.80616 1.01024 0.0
C784 C 0.51537 0.81858 0.99102 0.0
C785 C 0.47583 0.76605 1.02029 0.0
C786 C 0.42475 0.7366 1.01154 0.0
H787 H 0.55822 0.82886 1.01791 0.0
H788 H 0.48114 0.76001 1.03536 0.0
S789 S 0.39134 0.74864 0.96074 0.0
N790 N 0.45581 0.79447 0.96305 0.0
N791 N 0.37268 0.71943 0.98197 0.0
C792 C 0.41975 0.74667 0.99203 0.0
C793 C 0.46494 0.78747 0.98176 0.0
C794 C 0.21375 0.75733 1.0029 0.0
C795 C 0.16124 0.74447 1.00701 0.0
C796 C 0.2446 0.75131 1.0169 0.0
C797 C 0.22328 0.73079 1.03525 0.0
H798 H 0.22995 0.76915 0.98842 0.0
H799 H 0.28305 0.75732 1.01261 0.0
S800 S 0.09083 0.69768 0.05406 0.0
N801 N 0.09202 0.7169 1.03161 0.0
N802 N 0.14923 0.70314 0.05753 0.0
C803 C 0.17274 0.7221 0.04006 0.0
C804 C 0.14183 0.72952 1.02601 0.0
C805 C 0.37546 0.52624 1.00293 0.0
C806 C 0.33631 0.47083 1.00037 0.0
C807 C 0.3699 0.55867 1.0172 0.0
C808 C 0.32473 0.53695 1.02931 0.0
H809 H 0.40962 0.54537 0.99331 0.0
H810 H 0.39922 0.60166 1.01776 0.0
S811 S 0.21535 0.39308 1.03091 0.0
N812 N 0.2543 0.39465 1.01306 0.0
N813 N 0.24377 0.45583 0.03957 0.0
C814 C 0.28754 0.48104 1.02795 0.0
C815 C 0.2933 0.44793 1.01356 0.0
C816 C 0.12086 0.49191 0.50675 0.0
C817 C 0.12511 0.44712 0.50118 0.0
C818 C 0.15863 0.5331 0.51932 0.0
C819 C 0.20226 0.53117 0.52646 0.0
H820 H 0.08955 0.49645 0.50063 0.0
H821 H 0.15623 0.56872 0.52206 0.0
S822 S 0.22827 0.42017 0.51842 0.0
N823 N 0.17327 0.4008 0.50568 0.0
N824 N 0.24494 0.47901 0.52882 0.0
C825 C 0.20473 0.48489 0.52223 0.0
C826 C 0.16592 0.44258 0.50971 0.0
C827 C 0.56284 0.74679 0.51461 0.0
C828 C 0.55908 0.69908 0.50743 0.0
C829 C 0.52136 0.74479 0.52564 0.0
C830 C 0.47544 0.69514 0.53023 0.0
H831 H 0.59583 0.7859 0.51041 0.0
H832 H 0.52342 0.78234 0.52939 0.0
S833 S 0.45058 0.55892 0.51785 0.0
N834 N 0.50913 0.60078 0.50791 0.0
N835 N 0.43138 0.59748 0.52873 0.0
C836 C 0.47369 0.64733 0.52484 0.0
C837 C 0.51552 0.64921 0.51337 0.0
C838 C 0.25869 0.83151 0.5115 0.0
C839 C 0.30383 0.87572 0.50319 0.0
C840 C 0.26398 0.79568 0.52304 0.0
C841 C 0.3146 0.80358 0.52712 0.0
H842 H 0.21872 0.82219 0.50794 0.0
H843 H 0.22797 0.7595 0.52774 0.0
S844 S 0.44577 0.91796 0.51172 0.0
N845 N 0.40133 0.92908 0.50184 0.0
N846 N 0.41088 0.86182 0.5239 0.0
C847 C 0.36027 0.85023 0.52049 0.0
C848 C 0.35497 0.88629 0.50839 0.0
C849 C 0.11128 0.48835 0.38238 0.0
C850 C 0.0864 0.49125 0.39969 0.0
C851 C 0.15528 0.53493 0.37466 0.0
C852 C 0.17573 0.58568 0.38406 0.0
H853 H 0.10002 0.44951 0.3757 0.0
H854 H 0.17684 0.53022 0.36262 0.0
S855 S 0.1163 0.61725 0.42638 0.0
N856 N 0.07859 0.55093 0.42335 0.0
N857 N 0.1618 0.63783 0.40906 0.0
C858 C 0.14694 0.58999 0.39974 0.0
C859 C 0.1021 0.54287 0.40753 0.0
C860 C 0.47167 0.58986 0.41071 0.0
C861 C 0.52363 0.62101 0.40305 0.0
C862 C 0.42833 0.59024 0.40254 0.0
C863 C 0.43509 0.6214 0.38631 0.0
H864 H 0.46508 0.56834 0.42404 0.0
H865 H 0.39019 0.56964 0.40999 0.0
S866 S 0.55995 0.7008 0.35823 0.0
N867 N 0.57733 0.67679 0.3763 0.0
N868 N 0.49532 0.67712 0.36097 0.0
C869 C 0.48503 0.64715 0.37702 0.0
C870 C 0.52955 0.64709 0.38541 0.0
C871 C 0.45219 0.92075 0.41381 0.0
C872 C 0.41539 0.93673 0.41013 0.0
C873 C 0.45038 0.87813 0.40297 0.0
C874 C 0.41264 0.85112 0.38788 0.0
H875 H 0.4784 0.9369 0.42642 0.0
H876 H 0.47468 0.86247 0.40775 0.0
S877 S 0.31747 0.88699 0.36931 0.0
N878 N 0.34743 0.92938 0.38801 0.0
N879 N 0.34497 0.84983 0.36746 0.0
C880 C 0.38138 0.87203 0.38224 0.0
C881 C 0.38242 0.91475 0.39347 0.0
C882 C 0.19997 -0.00087 0.16295 0.0
C883 C 0.20702 0.99015 0.14319 0.0
C884 C 0.15027 0.98921 0.16977 0.0
C885 C 0.10618 0.9694 0.15703 0.0
H886 H 0.23388 0.01737 0.17288 0.0
H887 H 0.14771 0.00115 0.18464 0.0
S888 S 0.10141 0.92698 0.10515 0.0
N889 N 0.16432 0.9523 0.11185 0.0
N890 N 0.07058 0.93181 0.12466 0.0
C891 C 0.1116 0.95466 0.13779 0.0
C892 C 0.16221 0.96573 0.13083 0.0
C893 C 0.00359 0.22615 0.17526 0.0
C894 C 0.01721 0.24961 0.15685 0.0
C895 C 0.01418 0.18604 0.18004 0.0
C896 C 0.03892 0.1687 0.16657 0.0
H897 H 0.9808 0.23554 0.1854 0.0
H898 H -0.00191 0.16496 0.19347 0.0
S899 S 0.09561 0.2283 0.11884 0.0
N900 N 0.06617 0.26056 0.12685 0.0
N901 N 0.08658 0.18565 0.13592 0.0
C902 C 0.05889 0.19695 0.14926 0.0
C903 C 0.04768 0.23721 0.14432 0.0
C904 C 0.77476 0.82106 0.13825 0.0
C905 C 0.76637 0.77622 0.14849 0.0
C906 C 0.80931 0.87365 0.14558 0.0
C907 C 0.83685 0.88322 0.16335 0.0
H908 H 0.75758 0.81583 0.12388 0.0
H909 H 0.81824 0.90702 0.13642 0.0
S910 S 0.81784 0.77931 0.19799 0.0
N911 N 0.7796 0.74452 0.1791 0.0
N912 N 0.8457 0.84344 0.19259 0.0
C913 C 0.82349 0.83876 0.17483 0.0
C914 C 0.78815 0.78513 0.1674 0.0
C915 C 0.1075 0.26327 0.4369 0.0
C916 C 0.07932 0.28286 0.42725 0.0
C917 C 0.0999 0.21261 0.43173 0.0
C918 C 0.06512 0.18061 0.4164 0.0
H919 H 0.13259 0.28539 0.44939 0.0
H920 H 0.11909 0.19702 0.44049 0.0
S921 S -0.01132 0.21785 0.38472 0.0
N922 N 0.01986 0.26939 0.40042 0.0
N923 N 0.00664 0.17467 0.39039 0.0
C924 C 0.04046 0.20193 0.40557 0.0
C925 C 0.04721 0.25295 0.41112 0.0
C926 C 0.77744 0.83077 0.44365 0.0
C927 C 0.73152 0.81889 0.4331 0.0
C928 C 0.82779 0.8746 0.43916 0.0
C929 C 0.83504 0.9088 0.42383 0.0
H930 H 0.77489 0.80553 0.45539 0.0
H931 H 0.86169 0.88065 0.44757 0.0
S932 S 0.72728 0.89907 0.3929 0.0
N933 N 0.6958 0.84724 0.40737 0.0
N934 N 0.79138 0.93034 0.39901 0.0
C935 C 0.78945 0.89873 0.41348 0.0
C936 C 0.73752 0.85378 0.41815 0.0
C937 C 0.17385 0.95397 0.40575 0.0
C938 C 0.18226 0.9385 0.42398 0.0
C939 C 0.12887 0.95784 0.40228 0.0
C940 C 0.09055 0.94582 0.41684 0.0
H941 H 0.20389 0.96669 0.39448 0.0
H942 H 0.12657 0.97474 0.38878 0.0
S943 S 0.08806 0.89324 0.46555 0.0
N944 N 0.14422 0.90358 0.45568 0.0
N945 N 0.0597 0.91066 0.44907 0.0
C946 C 0.09592 0.92561 0.43442 0.0
C947 C 0.14173 0.92192 0.43801 0.0
C948 C 0.78515 0.98348 0.93817 0.0
C949 C 0.74227 0.94033 0.92778 0.0
C950 C 0.83802 -0.00154 0.93451 0.0
C951 C 0.85085 0.97097 0.92034 0.0
H952 H 0.77813 0.00665 0.94914 0.0
H953 H 0.86928 0.03245 0.9429 0.0
S954 S 0.7534 0.85277 0.88985 0.0
N955 N 0.71589 0.86886 0.90301 0.0
N956 N 0.81602 0.89682 0.89643 0.0
C957 C 0.80855 0.92738 0.90989 0.0
C958 C 0.75415 0.91207 0.91357 0.0
C959 C 0.07344 0.84769 0.90882 0.0
C960 C 0.07926 0.83374 0.9277 0.0
C961 C 0.06768 0.89202 0.90589 0.0
C962 C 0.06774 0.92386 0.92175 0.0
H963 H 0.07113 0.82295 0.89629 0.0
H964 H 0.06042 0.89963 0.89126 0.0
S965 S 0.09143 0.91012 0.97364 0.0
N966 N 0.09149 0.85943 0.96214 0.0
N967 N 0.08112 0.94265 0.95667 0.0
C968 C 0.07732 0.91252 0.94051 0.0
C969 C 0.08288 0.86744 0.94349 0.0
C970 C 0.22015 0.26143 0.9153 0.0
C971 C 0.22972 0.28223 0.9346 0.0
C972 C 0.16983 0.2166 0.90968 0.0
C973 C 0.12789 0.1919 0.92322 0.0
H974 H 0.25268 0.27732 0.90493 0.0
H975 H 0.16528 0.19856 0.89523 0.0
S976 S 0.13039 0.23893 0.97428 0.0
N977 N 0.19167 0.28011 0.96629 0.0
N978 N 0.09714 0.19727 0.95576 0.0
C979 C 0.13585 0.21624 0.94192 0.0
C980 C 0.18689 0.26097 0.94764 0.0
C981 C 0.05135 0.843 0.633 0.0
C982 C 0.03039 0.80053 0.64602 0.0
C983 C 0.05876 0.89322 0.6386 0.0
C984 C 0.04431 0.90252 0.65729 0.0
H985 H 0.06027 0.83679 0.61815 0.0
H986 H 0.07299 0.92401 0.62776 0.0
S987 S -0.00999 0.80448 0.6971 0.0
N988 N -0.00105 0.7717 0.67886 0.0
N989 N 0.00991 0.86504 0.68905 0.0
C990 C 0.026 0.86113 0.67079 0.0
C991 C 0.01965 0.8103 0.66521 0.0
C992 C 0.22277 0.23827 0.65989 0.0
C993 C 0.21995 0.27248 0.64657 0.0
C994 C 0.1762 0.19505 0.66772 0.0
C995 C 0.12547 0.184 0.66203 0.0
H996 H 0.26108 0.24336 0.66356 0.0
H997 H 0.17978 0.1672 0.67677 0.0
S998 S 0.09672 0.26471 0.62932 0.0
N999 N 0.16283 0.29613 0.62978 0.0
N1000 N 0.07493 0.21292 0.64375 0.0
C1001 C 0.12225 0.22004 0.64984 0.0
C1002 C 0.16972 0.26492 0.64227 0.0
C1003 C 0.78536 0.96939 0.63389 0.0
C1004 C 0.76201 0.98842 0.64725 0.0
C1005 C 0.82875 0.96491 0.63929 0.0
C1006 C 0.85141 0.98055 0.65813 0.0
H1007 H 0.7712 0.95969 0.61895 0.0
H1008 H 0.84674 0.95211 0.6282 0.0
S1009 S 0.80257 0.03032 0.69881 0.0
N1010 N 0.76155 0.01916 0.68053 0.0
N1011 N 0.84512 0.01353 0.69041 0.0
C1012 C 0.82642 -0.00321 0.67195 0.0
C1013 C 0.78128 0.0002 0.66654 0.0
C1014 C 0.83667 0.2977 0.46882 0.0
C1015 C 0.88011 0.32139 0.48187 0.0
C1016 C 0.78658 0.28856 0.47442 0.0
C1017 C 0.77822 0.30398 0.49316 0.0
H1018 H 0.84187 0.28779 0.45394 0.0
H1019 H 0.75501 0.27234 0.46352 0.0
S1020 S 0.87856 0.36399 0.53323 0.0
N1021 N 0.91077 0.35573 0.51489 0.0
N1022 N 0.81727 0.34119 0.52512 0.0
C1023 C 0.82052 0.32463 0.50674 0.0
C1024 C 0.87139 0.33287 0.50113 0.0
C1025 C 0.67657 0.56251 0.50364 0.0
C1026 C 0.68602 0.58237 0.48466 0.0
C1027 C 0.68403 0.52019 0.50833 0.0
C1028 C 0.70174 0.49697 0.49421 0.0
H1029 H 0.65973 0.57704 0.51455 0.0
H1030 H 0.6717 0.50287 0.52254 0.0
S1031 S 0.74447 0.54387 0.44392 0.0
N1032 N 0.72231 0.58209 0.45276 0.0
N1033 N 0.7378 0.50373 0.46162 0.0
C1034 C 0.71692 0.52074 0.47588 0.0
C1035 C 0.70853 0.56306 0.47105 0.0
C1036 C 0.42829 0.13052 0.50259 0.0
C1037 C 0.40558 0.11955 0.48379 0.0
C1038 C 0.47381 0.1809 0.50749 0.0
C1039 C 0.4975 0.22178 0.49377 0.0
H1040 H 0.41351 0.09879 0.51306 0.0
H1041 H 0.49299 0.186 0.52144 0.0
S1042 S 0.44502 0.21726 0.44438 0.0
N1043 N 0.40427 0.1563 0.45271 0.0
N1044 N 0.48903 0.25128 0.46198 0.0
C1045 C 0.47134 0.21313 0.47576 0.0
C1046 C 0.42558 0.16184 0.47073 0.0
C1047 C 0.73645 0.59392 0.73728 0.0
C1048 C 0.74955 0.62053 0.7557 0.0
C1049 C 0.73134 0.54332 0.73446 0.0
C1050 C 0.73979 0.518 0.74991 0.0
H1051 H 0.72662 0.61051 0.72526 0.0
H1052 H 0.71679 0.52224 0.72055 0.0
S1053 S 0.78538 0.57591 0.79988 0.0
N1054 N 0.77811 0.62133 0.78883 0.0
N1055 N 0.76949 0.52693 0.78349 0.0
C1056 C 0.75755 0.54649 0.7679 0.0
C1057 C 0.76218 0.59758 0.77081 0.0
C1058 C 0.43506 0.19311 0.77282 0.0
C1059 C 0.40189 0.15928 0.75757 0.0
C1060 C 0.48597 0.23762 0.76917 0.0
C1061 C 0.50664 0.24968 0.75012 0.0
H1062 H 0.42224 0.18419 0.7878 0.0
H1063 H 0.51034 0.26121 0.78161 0.0
S1064 S 0.43323 0.17629 0.70484 0.0
N1065 N 0.39069 0.14347 0.72249 0.0
N1066 N 0.48765 0.22602 0.71565 0.0
C1067 C 0.47256 0.21801 0.73459 0.0
C1068 C 0.41993 0.17305 0.73832 0.0
C1069 C 0.85285 0.29522 0.74285 0.0
C1070 C 0.86295 0.28307 0.76143 0.0
C1071 C 0.80764 0.29849 0.73926 0.0
C1072 C 0.77058 0.28929 0.75404 0.0
H1073 H 0.88156 0.30536 0.73122 0.0
H1074 H 0.80394 0.31225 0.72525 0.0
S1075 S 0.77306 0.24665 0.80414 0.0
N1076 N 0.8282 0.25494 0.79404 0.0
N1077 N 0.74307 0.26078 0.7872 0.0
C1078 C 0.77783 0.27288 0.7722 0.0
C1079 C 0.82399 0.26975 0.7759 0.0
C1080 C 0.42225 0.29619 0.23803 0.0
C1081 C 0.39748 0.28114 0.25636 0.0
C1082 C 0.47086 0.29915 0.23428 0.0
C1083 C 0.49608 0.28672 0.24866 0.0
H1084 H 0.4059 0.30913 0.22688 0.0
H1085 H 0.49078 0.31539 0.22062 0.0
S1086 S 0.44256 0.23477 0.29756 0.0
N1087 N 0.39802 0.24611 0.28798 0.0
N1088 N 0.4892 0.25143 0.28086 0.0
C1089 C 0.46938 0.26699 0.26638 0.0
C1090 C 0.42008 0.26422 0.27025 0.0
C1091 C 0.7398 0.19586 0.26734 0.0
C1092 C 0.716 0.15084 0.25432 0.0
C1093 C 0.73832 0.24229 0.26379 0.0
C1094 C 0.71327 0.2457 0.24703 0.0
H1095 H 0.75817 0.19464 0.28075 0.0
H1096 H 0.75498 0.27495 0.27465 0.0
S1097 S 0.64567 0.1398 0.20814 0.0
N1098 N 0.66826 0.11369 0.22354 0.0
N1099 N 0.66432 0.20046 0.21724 0.0
C1100 C 0.6912 0.20203 0.23349 0.0
C1101 C 0.69289 0.15475 0.23704 0.0
C1102 C 0.80796 0.59841 0.27103 0.0
C1103 C 0.85672 0.61892 0.2611 0.0
C1104 C 0.76266 0.54879 0.26525 0.0
C1105 C 0.76408 0.51898 0.24895 0.0
H1106 H 0.80577 0.61893 0.28413 0.0
H1107 H 0.7271 0.5322 0.2742 0.0
S1108 S 0.87991 0.55916 0.21642 0.0
N1109 N 0.90251 0.60834 0.2332 0.0
N1110 N 0.81662 0.51606 0.2219 0.0
C1111 C 0.81124 0.54133 0.23795 0.0
C1112 C 0.85784 0.59106 0.24416 0.0
C1113 C 0.73211 0.15322 0.97825 0.0
C1114 C 0.6847 0.10407 0.98226 0.0
C1115 C 0.73884 0.20283 0.98452 0.0
C1116 C 0.69923 0.20487 0.99552 0.0
H1117 H 0.76262 0.15368 0.96905 0.0
H1118 H 0.7737 0.23987 0.97971 0.0
S1119 S 0.57158 0.08813 1.01236 0.0
N1120 N 0.59998 0.06064 0.99961 0.0
N1121 N 0.61362 0.15416 1.01176 0.0
C1122 C 0.65386 0.1562 1.00103 0.0
C1123 C 0.64632 0.10565 0.9943 0.0
C1124 C 0.91327 0.53948 0.97692 0.0
C1125 C 0.91876 0.58993 0.98097 0.0
C1126 C 0.8671 0.49133 0.98209 0.0
C1127 C 0.82428 0.49119 0.99163 0.0
H1128 H 0.94454 0.53683 0.96939 0.0
H1129 H 0.86455 0.45357 0.97824 0.0
S1130 S 0.81816 0.61178 1.00601 0.0
N1131 N 0.87744 0.63672 0.9957 0.0
N1132 N 0.79016 0.54545 1.00509 0.0
C1133 C 0.82948 0.54107 0.99631 0.0
C1134 C 0.87679 0.59058 0.99103 0.0
C1135 C 0.48131 0.3585 0.99539 0.0
C1136 C 0.46502 0.35609 0.97594 0.0
C1137 C 0.51949 0.34521 1.00014 0.0
C1138 C 0.54268 0.32883 0.98561 0.0
H1139 H 0.46641 0.37323 1.00697 0.0
H1140 H 0.53315 0.35095 1.01509 0.0
S1141 S 0.50635 0.30597 0.93306 0.0
N1142 N 0.46987 0.32911 0.94251 0.0
N1143 N 0.54108 0.30375 0.95138 0.0
C1144 C 0.52359 0.32218 0.96636 0.0
C1145 C 0.485 0.33597 0.96153 0.0
C1146 C 0.54795 0.67051 0.82961 0.0
C1147 C 0.55929 0.65904 0.81075 0.0
C1148 C 0.49823 0.66452 0.83391 0.0
C1149 C 0.45796 0.64597 0.81957 0.0
H1150 H 0.57893 0.68804 0.84073 0.0
H1151 H 0.49322 0.67867 0.84805 0.0
S1152 S 0.46413 0.59911 0.76923 0.0
N1153 N 0.52407 0.6209 0.77853 0.0
N1154 N 0.42994 0.60778 0.78671 0.0
C1155 C 0.46714 0.62914 0.80126 0.0
C1156 C 0.51802 0.63619 0.79681 0.0
C1157 C 0.36023 0.91151 0.83013 0.0
C1158 C 0.36576 0.93017 0.81107 0.0
C1159 C 0.36867 0.86952 0.83427 0.0
C1160 C 0.38365 0.84534 0.81953 0.0
H1161 H 0.34579 0.92687 0.84166 0.0
H1162 H 0.35938 0.85335 0.84872 0.0
S1163 S 0.4151 0.88831 0.7683 0.0
N1164 N 0.39488 0.92724 0.7781 0.0
N1165 N 0.41235 0.84955 0.78589 0.0
C1166 C 0.39457 0.86761 0.80089 0.0
C1167 C 0.3851 0.90962 0.79664 0.0
C1168 C 0.11426 0.48144 0.83425 0.0
C1169 C 0.08967 0.46781 0.81575 0.0
C1170 C 0.16004 0.53244 0.83813 0.0
C1171 C 0.18208 0.57134 0.82367 0.0
H1172 H 0.10072 0.45125 0.84529 0.0
H1173 H 0.18067 0.53948 0.85188 0.0
S1174 S 0.12429 0.55961 0.77465 0.0
N1175 N 0.08483 0.49988 0.78412 0.0
N1176 N 0.16997 0.5962 0.79149 0.0
C1177 C 0.15402 0.56008 0.80594 0.0
C1178 C 0.10804 0.50808 0.80193 0.0
C1179 C 0.34316 0.90736 0.07661 0.0
C1180 C 0.39123 0.95043 0.08476 0.0
C1181 C 0.33696 0.85683 0.0723 0.0
C1182 C 0.37829 0.84754 0.07636 0.0
H1183 H 0.30938 0.91213 0.0742 0.0
H1184 H 0.29844 0.82397 0.06704 0.0
S1185 S 0.51373 0.94786 0.09555 0.0
N1186 N 0.48255 0.98147 0.09485 0.0
N1187 N 0.47017 0.8861 0.08726 0.0
C1188 C 0.42746 0.89092 0.08339 0.0
C1189 C 0.43417 0.94256 0.08743 0.0
C1190 C 0.10838 0.48151 0.09655 0.0
C1191 C 0.10172 0.4722 0.11663 0.0
C1192 C 0.15484 0.52642 0.08931 0.0
C1193 C 0.19602 0.56405 0.10192 0.0
H1194 H 0.07826 0.45305 0.08627 0.0
H1195 H 0.15871 0.53124 0.0737 0.0
S1196 S 0.19566 0.56007 0.15596 0.0
N1197 N 0.13854 0.50565 0.1491 0.0
N1198 N 0.22544 0.59014 0.13567 0.0
C1199 C 0.1888 0.55608 0.12212 0.0
C1200 C 0.1418 0.51014 0.12943 0.0
C1201 C 0.54979 0.6731 0.06584 0.0
C1202 C 0.54876 0.63926 0.08037 0.0
C1203 C 0.5055 0.67846 0.06258 0.0
C1204 C 0.45901 0.65016 0.07376 0.0
H1205 H 0.58601 0.69799 0.05767 0.0
H1206 H 0.50913 0.70756 0.05228 0.0
S1207 S 0.4316 0.54845 0.11063 0.0
N1208 N 0.49388 0.57098 0.10381 0.0
N1209 N 0.41125 0.58152 0.09776 0.0
C1210 C 0.45576 0.6128 0.08704 0.0
C1211 C 0.50051 0.60721 0.09034 0.0
C1212 C 0.09035 0.61884 0.56981 0.0
C1213 C 0.0663 0.60952 0.58831 0.0
C1214 C 0.1387 0.6204 0.56698 0.0
C1215 C 0.16438 0.61256 0.58255 0.0
H1216 H 0.07369 0.62848 0.55772 0.0
H1217 H 0.15804 0.63204 0.55294 0.0
S1218 S 0.11147 0.57419 0.63255 0.0
N1219 N 0.06712 0.58319 0.62147 0.0
N1220 N 0.15769 0.58597 0.61615 0.0
C1221 C 0.13786 0.59769 0.60053 0.0
C1222 C 0.08891 0.5963 0.60343 0.0
C1223 C 0.37645 0.49496 0.57317 0.0
C1224 C 0.39197 0.48603 0.59131 0.0
C1225 C 0.37475 0.54153 0.5701 0.0
C1226 C 0.38923 0.5812 0.58495 0.0
H1227 H 0.36266 0.46447 0.56154 0.0
H1228 H 0.35831 0.5445 0.55649 0.0
S1229 S 0.44063 0.58143 0.63406 0.0
N1230 N 0.42767 0.52379 0.62363 0.0
N1231 N 0.42494 0.61146 0.61773 0.0
C1232 C 0.40831 0.57458 0.60268 0.0
C1233 C 0.40965 0.52703 0.60589 0.0
C1234 C 0.47358 0.92736 0.60604 0.0
C1235 C 0.52194 0.9483 0.59579 0.0
C1236 C 0.42835 0.87764 0.6004 0.0
C1237 C 0.42948 0.84804 0.58399 0.0
H1238 H 0.47174 0.94747 0.61931 0.0
H1239 H 0.39324 0.86066 0.60959 0.0
S1240 S 0.54369 0.88972 0.55048 0.0
N1241 N 0.5666 0.93884 0.56728 0.0
N1242 N 0.48094 0.84593 0.55639 0.0
C1243 C 0.47598 0.87094 0.57261 0.0
C1244 C 0.52248 0.92096 0.57861 0.0
C1245 C 0.38485 0.50378 0.30415 0.0
C1246 C 0.36188 0.46166 0.31733 0.0
C1247 C 0.39271 0.55442 0.30919 0.0
C1248 C 0.37691 0.56446 0.32748 0.0
H1249 H 0.39445 0.49681 0.28949 0.0
H1250 H 0.4079 0.5848 0.29818 0.0
S1251 S 0.3191 0.46849 0.36778 0.0
N1252 N 0.32824 0.43439 0.35008 0.0
N1253 N 0.34064 0.52896 0.35927 0.0
C1254 C 0.35752 0.52385 0.3413 0.0
C1255 C 0.35046 0.47244 0.33627 0.0
C1256 C 0.51808 0.91204 0.3032 0.0
C1257 C 0.56147 0.93736 0.31625 0.0
C1258 C 0.46924 0.86711 0.30862 0.0
C1259 C 0.46223 0.84506 0.32717 0.0
H1260 H 0.52254 0.92574 0.28844 0.0
H1261 H 0.43772 0.84743 0.29773 0.0
S1262 S 0.56298 0.89883 0.36708 0.0
N1263 N 0.59354 0.94014 0.34902 0.0
N1264 N 0.50218 0.854 0.35894 0.0
C1265 C 0.50428 0.87206 0.34078 0.0
C1266 C 0.55393 0.9186 0.33535 0.0
C1267 C 0.12239 0.64283 0.30124 0.0
C1268 C 0.10006 0.66259 0.31478 0.0
C1269 C 0.1644 0.63593 0.30651 0.0
C1270 C 0.18653 0.64944 0.32545 0.0
H1271 H 0.10853 0.63431 0.28626 0.0
H1272 H 0.18168 0.62273 0.29528 0.0
S1273 S 0.13963 0.69926 0.36674 0.0
N1274 N 0.1 0.69151 0.34841 0.0
N1275 N 0.18055 0.68064 0.35809 0.0
C1276 C 0.16242 0.66618 0.33946 0.0
C1277 C 0.11887 0.67238 0.33416 0.0
loop_
_geom_bond_atom_site_label_1
_geom_bond_atom_site_label_2
_geom_bond_distance
_geom_bond_site_symmetry_2
_ccdc_geom_bond_type
C0 O1 1.160 . S
C0 O7 1.185 . S
O1 C0 1.160 . S
O2 Zn3 1.899 1_565 S
O2 C10 1.284 . S
Zn3 O2 1.899 1_545 S
Zn3 O4 2.032 . S
Zn3 O7 2.086 . S
Zn3 O12 1.977 . S
O4 Zn3 2.032 . S
O4 C8 1.278 1_545 S
C5 O6 1.203 1_545 S
C5 O12 1.267 . S
O6 C5 1.203 1_565 S
O7 C0 1.185 . S
O7 Zn3 2.086 . S
C8 O4 1.278 1_565 S
C8 O9 1.211 . S
O9 C8 1.211 . S
C10 O2 1.284 . S
C10 O11 1.273 . S
O11 C10 1.273 . S
O12 Zn3 1.977 . S
O12 C5 1.267 . S
C13 O14 1.160 . S
C13 O20 1.185 . S
O14 C13 1.160 . S
O15 Zn16 1.899 1_655 S
O15 C23 1.284 . S
Zn16 O15 1.899 1_455 S
Zn16 O17 2.032 . S
Zn16 O20 2.086 . S
Zn16 O25 1.977 . S
O17 Zn16 2.032 . S
O17 C21 1.278 1_455 S
C18 O19 1.203 1_455 S
C18 O25 1.267 . S
O19 C18 1.203 1_655 S
O20 C13 1.185 . S
O20 Zn16 2.086 . S
C21 O17 1.278 1_655 S
C21 O22 1.211 . S
O22 C21 1.211 . S
C23 O15 1.284 . S
C23 O24 1.273 . S
O24 C23 1.273 . S
O25 Zn16 1.977 . S
O25 C18 1.267 . S
C26 O27 1.160 . S
C26 O33 1.185 . S
O27 C26 1.160 . S
O28 Zn29 1.899 . S
O28 C36 1.284 . S
Zn29 O28 1.899 . S
Zn29 O30 2.032 . S
Zn29 O33 2.086 . S
Zn29 O38 1.977 . S
O30 Zn29 2.032 . S
O30 C34 1.278 . S
C31 O32 1.203 . S
C31 O38 1.267 . S
O32 C31 1.203 . S
O33 C26 1.185 . S
O33 Zn29 2.086 . S
C34 O30 1.278 . S
C34 O35 1.211 . S
O35 C34 1.211 . S
C36 O28 1.284 . S
C36 O37 1.273 . S
O37 C36 1.273 . S
O38 Zn29 1.977 . S
O38 C31 1.267 . S
C39 O40 1.160 . S
C39 O46 1.185 . S
O40 C39 1.160 . S
O41 Zn42 1.899 . S
O41 C49 1.284 . S
Zn42 O41 1.899 . S
Zn42 O43 2.032 . S
Zn42 O46 2.086 1_545 S
Zn42 O51 1.977 1_545 S
O43 Zn42 2.032 . S
O43 C47 1.278 . S
C44 O45 1.203 . S
C44 O51 1.267 1_545 S
O45 C44 1.203 . S
O46 C39 1.185 . S
O46 Zn42 2.086 1_565 S
C47 O43 1.278 . S
C47 O48 1.211 . S
O48 C47 1.211 . S
C49 O41 1.284 . S
C49 O50 1.273 . S
O50 C49 1.273 . S
O51 Zn42 1.977 1_565 S
O51 C44 1.267 1_565 S
C52 O53 1.160 . S
C52 O59 1.185 . S
O53 C52 1.160 . S
O54 Zn55 1.899 . S
O54 C62 1.284 . S
Zn55 O54 1.899 . S
Zn55 O56 2.032 . S
Zn55 O59 2.086 1_455 S
Zn55 O64 1.977 1_455 S
O56 Zn55 2.032 . S
O56 C60 1.278 . S
C57 O58 1.203 . S
C57 O64 1.267 1_455 S
O58 C57 1.203 . S
O59 C52 1.185 . S
O59 Zn55 2.086 1_655 S
C60 O56 1.278 . S
C60 O61 1.211 . S
O61 C60 1.211 . S
C62 O54 1.284 . S
C62 O63 1.273 . S
O63 C62 1.273 . S
O64 Zn55 1.977 1_655 S
O64 C57 1.267 1_655 S
C65 O66 1.160 . S
C65 O72 1.185 . S
O66 C65 1.160 . S
O67 Zn68 1.899 . S
O67 C75 1.284 . S
Zn68 O67 1.899 . S
Zn68 O69 2.032 . S
Zn68 O72 2.086 . S
Zn68 O77 1.977 . S
O69 Zn68 2.032 . S
O69 C73 1.278 . S
C70 O71 1.203 . S
C70 O77 1.267 . S
O71 C70 1.203 . S
O72 C65 1.185 . S
O72 Zn68 2.086 . S
C73 O69 1.278 . S
C73 O74 1.211 . S
O74 C73 1.211 . S
C75 O67 1.284 . S
C75 O76 1.273 . S
O76 C75 1.273 . S
O77 Zn68 1.977 . S
O77 C70 1.267 . S
C78 O79 1.160 . S
C78 O85 1.185 . S
O79 C78 1.160 . S
O80 Zn81 1.899 . S
O80 C88 1.284 . S
Zn81 O80 1.899 . S
Zn81 O82 2.032 . S
Zn81 O85 2.086 . S
Zn81 O90 1.977 . S
O82 Zn81 2.032 . S
O82 C86 1.278 . S
C83 O84 1.203 . S
C83 O90 1.267 . S
O84 C83 1.203 . S
O85 C78 1.185 . S
O85 Zn81 2.086 . S
C86 O82 1.278 . S
C86 O87 1.211 . S
O87 C86 1.211 . S
C88 O80 1.284 . S
C88 O89 1.273 . S
O89 C88 1.273 . S
O90 Zn81 1.977 . S
O90 C83 1.267 . S
C91 O92 1.160 . S
C91 O98 1.185 . S
O92 C91 1.160 . S
O93 Zn94 1.899 . S
O93 C101 1.284 1_545 S
Zn94 O93 1.899 . S
Zn94 O95 2.032 . S
Zn94 O98 2.086 . S
Zn94 O103 1.977 . S
O95 Zn94 2.032 . S
O95 C99 1.278 . S
C96 O97 1.203 . S
C96 O103 1.267 . S
O97 C96 1.203 . S
O98 C91 1.185 . S
O98 Zn94 2.086 . S
C99 O95 1.278 . S
C99 O100 1.211 . S
O100 C99 1.211 . S
C101 O93 1.284 1_565 S
C101 O102 1.273 1_565 S
O102 C101 1.273 1_545 S
O103 Zn94 1.977 . S
O103 C96 1.267 . S
C104 O105 1.160 . S
C104 O111 1.185 . S
O105 C104 1.160 . S
O106 Zn107 1.899 . S
O106 C114 1.284 . S
Zn107 O106 1.899 . S
Zn107 O108 2.032 . S
Zn107 O111 2.086 1_655 S
Zn107 O116 1.977 . S
O108 Zn107 2.032 . S
O108 C112 1.278 . S
C109 O110 1.203 . S
C109 O116 1.267 . S
O110 C109 1.203 . S
O111 C104 1.185 . S
O111 Zn107 2.086 1_455 S
C112 O108 1.278 . S
C112 O113 1.211 . S
O113 C112 1.211 . S
C114 O106 1.284 . S
C114 O115 1.273 . S
O115 C114 1.273 . S
O116 Zn107 1.977 . S
O116 C109 1.267 . S
C117 O118 1.160 1_655 S
C117 O124 1.185 . S
O118 C117 1.160 1_455 S
O119 Zn120 1.899 1_455 S
O119 C127 1.284 . S
Zn120 O119 1.899 1_655 S
Zn120 O121 2.032 . S
Zn120 O124 2.086 . S
Zn120 O129 1.977 . S
O121 Zn120 2.032 . S
O121 C125 1.278 . S
C122 O123 1.203 . S
C122 O129 1.267 . S
O123 C122 1.203 . S
O124 C117 1.185 . S
O124 Zn120 2.086 . S
C125 O121 1.278 . S
C125 O126 1.211 . S
O126 C125 1.211 . S
C127 O119 1.284 . S
C127 O128 1.273 . S
O128 C127 1.273 . S
O129 Zn120 1.977 . S
O129 C122 1.267 . S
C130 O131 1.160 . S
C130 O137 1.185 . S
O131 C130 1.160 . S
O132 Zn133 1.899 . S
O132 C140 1.284 . S
Zn133 O132 1.899 . S
Zn133 O134 2.032 . S
Zn133 O137 2.086 . S
Zn133 O142 1.977 . S
O134 Zn133 2.032 . S
O134 C138 1.278 . S
C135 O136 1.203 . S
C135 O142 1.267 . S
O136 C135 1.203 . S
O137 C130 1.185 . S
O137 Zn133 2.086 . S
C138 O134 1.278 . S
C138 O139 1.211 . S
O139 C138 1.211 . S
C140 O132 1.284 . S
C140 O141 1.273 . S
O141 C140 1.273 . S
O142 Zn133 1.977 . S
O142 C135 1.267 . S
C143 O144 1.160 . S
C143 O150 1.185 . S
O144 C143 1.160 . S
O145 Zn146 1.911 . S
O145 C153 1.274 1_545 S
Zn146 O145 1.911 . S
Zn146 O147 2.032 . S
Zn146 O150 2.086 . S
Zn146 O155 1.977 . S
O147 Zn146 2.032 . S
O147 C151 1.278 . S
C148 O149 1.203 . S
C148 O155 1.267 . S
O149 C148 1.203 . S
O150 C143 1.185 . S
O150 Zn146 2.086 . S
C151 O147 1.278 . S
C151 O152 1.211 . S
O152 C151 1.211 . S
C153 O145 1.274 1_565 S
C153 O154 1.273 1_565 S
O154 C153 1.273 1_545 S
O155 Zn146 1.977 . S
O155 C148 1.267 . S
C156 O157 1.160 . S
C156 O163 1.185 . S
O157 C156 1.160 . S
O158 Zn159 1.899 1_655 S
O158 C166 1.284 . S
Zn159 O158 1.899 1_455 S
Zn159 O160 2.032 . S
Zn159 O163 2.086 . S
Zn159 O168 1.977 . S
O160 Zn159 2.032 . S
O160 C164 1.278 . S
C161 O162 1.203 . S
C161 O168 1.267 . S
O162 C161 1.203 . S
O163 C156 1.185 . S
O163 Zn159 2.086 . S
C164 O160 1.278 . S
C164 O165 1.211 . S
O165 C164 1.211 . S
C166 O158 1.284 . S
C166 O167 1.273 1_655 S
O167 C166 1.273 1_455 S
O168 Zn159 1.977 . S
O168 C161 1.267 . S
C169 O170 1.160 . S
C169 O176 1.185 . S
O170 C169 1.160 . S
O171 Zn172 1.899 . S
O171 C179 1.284 . S
Zn172 O171 1.899 . S
Zn172 O173 2.032 . S
Zn172 O176 2.086 . S
Zn172 O181 1.977 . S
O173 Zn172 2.032 . S
O173 C177 1.278 . S
C174 O175 1.203 . S
C174 O181 1.267 . S
O175 C174 1.203 . S
O176 C169 1.185 . S
O176 Zn172 2.086 . S
C177 O173 1.278 . S
C177 O178 1.211 . S
O178 C177 1.211 . S
C179 O171 1.284 . S
C179 O180 1.273 . S
O180 C179 1.273 . S
O181 Zn172 1.977 . S
O181 C174 1.267 . S
C182 O183 1.160 1_565 S
C182 O189 1.185 . S
O183 C182 1.160 1_545 S
O184 Zn185 1.899 1_545 S
O184 C192 1.284 . S
Zn185 O184 1.899 1_565 S
Zn185 O186 2.032 . S
Zn185 O189 2.086 . S
Zn185 O194 1.977 . S
O186 Zn185 2.032 . S
O186 C190 1.278 . S
C187 O188 1.203 . S
C187 O194 1.267 . S
O188 C187 1.203 . S
O189 C182 1.185 . S
O189 Zn185 2.086 . S
C190 O186 1.278 . S
C190 O191 1.211 . S
O191 C190 1.211 . S
C192 O184 1.284 . S
C192 O193 1.273 . S
O193 C192 1.273 . S
O194 Zn185 1.977 . S
O194 C187 1.267 . S
C195 O196 1.160 . S
C195 O202 1.185 . S
O196 C195 1.160 . S
O197 Zn198 1.899 . S
O197 C205 1.284 . S
Zn198 O197 1.899 . S
Zn198 O199 2.032 . S
Zn198 O202 2.086 . S
Zn198 O207 1.977 . S
O199 Zn198 2.032 . S
O199 C203 1.278 . S
C200 O201 1.203 . S
C200 O207 1.267 . S
O201 C200 1.203 . S
O202 C195 1.185 . S
O202 Zn198 2.086 . S
C203 O199 1.278 . S
C203 O204 1.211 . S
O204 C203 1.211 . S
C205 O197 1.284 . S
C205 O206 1.273 . S
O206 C205 1.273 . S
O207 Zn198 1.977 . S
O207 C200 1.267 . S
C208 O209 1.160 1_565 S
C208 O215 1.185 . S
O209 C208 1.160 1_545 S
O210 Zn211 1.899 1_545 S
O210 C218 1.284 . S
Zn211 O210 1.899 1_565 S
Zn211 O212 2.032 . S
Zn211 O215 2.086 . S
Zn211 O220 1.977 . S
O212 Zn211 2.032 . S
O212 C216 1.278 . S
C213 O214 1.203 . S
C213 O220 1.267 . S
O214 C213 1.203 . S
O215 C208 1.185 . S
O215 Zn211 2.086 . S
C216 O212 1.278 . S
C216 O217 1.211 . S
O217 C216 1.211 . S
C218 O210 1.284 . S
C218 O219 1.273 . S
O219 C218 1.273 . S
O220 Zn211 1.977 . S
O220 C213 1.267 . S
C221 O222 1.160 . S
C221 O228 1.185 . S
O222 C221 1.160 . S
O223 Zn224 1.899 . S
O223 C231 1.284 . S
Zn224 O223 1.899 . S
Zn224 O225 2.032 . S
Zn224 O228 2.086 1_455 S
Zn224 O233 1.977 . S
O225 Zn224 2.032 . S
O225 C229 1.278 . S
C226 O227 1.203 . S
C226 O233 1.267 . S
O227 C226 1.203 . S
O228 C221 1.185 . S
O228 Zn224 2.086 1_655 S
C229 O225 1.278 . S
C229 O230 1.211 . S
O230 C229 1.211 . S
C231 O223 1.284 . S
C231 O232 1.273 . S
O232 C231 1.273 . S
O233 Zn224 1.977 . S
O233 C226 1.267 . S
Zn234 O240 1.920 1_455 S
Zn234 O246 1.898 1_445 S
Zn234 O249 1.905 . S
Zn235 O243 1.905 1_445 S
Zn235 O244 1.898 . S
Zn235 O252 1.920 1_455 S
Zn236 O239 2.080 . S
Zn236 O242 2.114 1_545 S
Zn236 O245 2.120 . S
Zn236 O247 2.120 1_445 S
Zn236 O248 2.114 . S
Zn236 O251 2.080 1_455 S
C237 O242 1.166 1_655 S
C237 O243 1.182 . S
C238 O244 1.167 . S
C238 O245 1.299 . S
O239 Zn236 2.080 . S
O239 C253 1.305 1_455 S
O240 Zn234 1.920 1_655 S
O240 C253 1.234 . S
C241 O246 1.167 . S
C241 O247 1.299 . S
O242 Zn236 2.114 1_565 S
O242 C237 1.166 1_455 S
O243 Zn235 1.905 1_665 S
O243 C237 1.182 . S
O244 Zn235 1.898 . S
O244 C238 1.167 . S
O245 Zn236 2.120 . S
O245 C238 1.299 . S
O246 Zn234 1.898 1_665 S
O246 C241 1.167 . S
O247 Zn236 2.120 1_665 S
O247 C241 1.299 . S
O248 Zn236 2.114 . S
O248 C250 1.166 . S
O249 Zn234 1.905 . S
O249 C250 1.182 . S
C250 O248 1.166 . S
C250 O249 1.182 . S
O251 Zn236 2.080 1_655 S
O251 C254 1.305 . S
O252 Zn235 1.920 1_655 S
O252 C254 1.234 . S
C253 O239 1.305 1_655 S
C253 O240 1.234 . S
C254 O251 1.305 . S
C254 O252 1.234 . S
Zn255 O261 1.920 1_545 S
Zn255 O267 1.898 . S
Zn255 O270 1.905 1_445 S
Zn256 O264 1.905 . S
Zn256 O265 1.898 1_445 S
Zn256 O273 1.920 1_545 S
Zn257 O260 2.080 1_545 S
Zn257 O263 2.114 . S
Zn257 O266 2.120 1_445 S
Zn257 O268 2.120 . S
Zn257 O269 2.114 1_455 S
Zn257 O272 2.080 . S
C258 O263 1.166 . S
C258 O264 1.182 . S
C259 O265 1.167 . S
C259 O266 1.299 . S
O260 Zn257 2.080 1_565 S
O260 C274 1.305 . S
O261 Zn255 1.920 1_565 S
O261 C274 1.234 . S
C262 O267 1.167 . S
C262 O268 1.299 . S
O263 Zn257 2.114 . S
O263 C258 1.166 . S
O264 Zn256 1.905 . S
O264 C258 1.182 . S
O265 Zn256 1.898 1_665 S
O265 C259 1.167 . S
O266 Zn257 2.120 1_665 S
O266 C259 1.299 . S
O267 Zn255 1.898 . S
O267 C262 1.167 . S
O268 Zn257 2.120 . S
O268 C262 1.299 . S
O269 Zn257 2.114 1_655 S
O269 C271 1.166 . S
O270 Zn255 1.905 1_665 S
O270 C271 1.182 1_565 S
C271 O269 1.166 . S
C271 O270 1.182 1_545 S
O272 Zn257 2.080 . S
O272 C275 1.305 1_545 S
O273 Zn256 1.920 1_565 S
O273 C275 1.234 . S
C274 O260 1.305 . S
C274 O261 1.234 . S
C275 O272 1.305 1_565 S
C275 O273 1.234 . S
Zn276 O282 1.920 1_545 S
Zn276 O288 1.898 . S
Zn276 O291 1.905 1_445 S
Zn277 O285 1.905 . S
Zn277 O286 1.898 1_445 S
Zn277 O294 1.920 1_545 S
Zn278 O281 2.080 1_545 S
Zn278 O284 2.114 . S
Zn278 O287 2.120 1_445 S
Zn278 O289 2.120 . S
Zn278 O290 2.114 1_455 S
Zn278 O293 2.080 . S
C279 O284 1.166 . S
C279 O285 1.182 . S
C280 O286 1.167 . S
C280 O287 1.299 . S
O281 Zn278 2.080 1_565 S
O281 C295 1.305 . S
O282 Zn276 1.920 1_565 S
O282 C295 1.234 . S
C283 O288 1.167 . S
C283 O289 1.299 . S
O284 Zn278 2.114 . S
O284 C279 1.166 . S
O285 Zn277 1.905 . S
O285 C279 1.182 . S
O286 Zn277 1.898 1_665 S
O286 C280 1.167 . S
O287 Zn278 2.120 1_665 S
O287 C280 1.299 . S
O288 Zn276 1.898 . S
O288 C283 1.167 . S
O289 Zn278 2.120 . S
O289 C283 1.299 . S
O290 Zn278 2.114 1_655 S
O290 C292 1.166 . S
O291 Zn276 1.905 1_665 S
O291 C292 1.182 1_565 S
C292 O290 1.166 . S
C292 O291 1.182 1_545 S
O293 Zn278 2.080 . S
O293 C296 1.305 . S
O294 Zn277 1.920 1_565 S
O294 C296 1.234 1_565 S
C295 O281 1.305 . S
C295 O282 1.234 . S
C296 O293 1.305 . S
C296 O294 1.234 1_545 S
Zn297 O303 1.920 1_455 S
Zn297 O309 1.898 1_445 S
Zn297 O312 1.905 . S
Zn298 O306 1.905 1_445 S
Zn298 O307 1.898 . S
Zn298 O315 1.920 1_455 S
Zn299 O302 2.080 . S
Zn299 O305 2.114 1_545 S
Zn299 O308 2.120 . S
Zn299 O310 2.120 1_445 S
Zn299 O311 2.114 . S
Zn299 O314 2.080 1_455 S
C300 O305 1.166 1_655 S
C300 O306 1.182 . S
C301 O307 1.167 . S
C301 O308 1.299 . S
O302 Zn299 2.080 . S
O302 C316 1.305 . S
O303 Zn297 1.920 1_655 S
O303 C316 1.234 1_655 S
C304 O309 1.167 . S
C304 O310 1.299 . S
O305 Zn299 2.114 1_565 S
O305 C300 1.166 1_455 S
O306 Zn298 1.905 1_665 S
O306 C300 1.182 . S
O307 Zn298 1.898 . S
O307 C301 1.167 . S
O308 Zn299 2.120 . S
O308 C301 1.299 . S
O309 Zn297 1.898 1_665 S
O309 C304 1.167 . S
O310 Zn299 2.120 1_665 S
O310 C304 1.299 . S
O311 Zn299 2.114 . S
O311 C313 1.166 . S
O312 Zn297 1.905 . S
O312 C313 1.182 . S
C313 O311 1.166 . S
C313 O312 1.182 . S
O314 Zn299 2.080 1_655 S
O314 C317 1.305 . S
O315 Zn298 1.920 1_655 S
O315 C317 1.234 . S
C316 O302 1.305 . S
C316 O303 1.234 1_455 S
C317 O314 1.305 . S
C317 O315 1.234 . S
Zn318 O324 1.920 . S
Zn318 O330 1.898 . S
Zn318 O333 1.905 . S
Zn319 O327 1.905 . S
Zn319 O328 1.898 . S
Zn319 O336 1.920 . S
Zn320 O323 2.080 . S
Zn320 O326 2.114 . S
Zn320 O329 2.120 . S
Zn320 O331 2.120 . S
Zn320 O332 2.114 . S
Zn320 O335 2.080 . S
C321 O326 1.166 . S
C321 O327 1.182 . S
C322 O328 1.167 . S
C322 O329 1.299 . S
O323 Zn320 2.080 . S
O323 C337 1.305 . S
O324 Zn318 1.920 . S
O324 C337 1.234 . S
C325 O330 1.167 . S
C325 O331 1.299 . S
O326 Zn320 2.114 . S
O326 C321 1.166 . S
O327 Zn319 1.905 . S
O327 C321 1.182 . S
O328 Zn319 1.898 . S
O328 C322 1.167 . S
O329 Zn320 2.120 . S
O329 C322 1.299 . S
O330 Zn318 1.898 . S
O330 C325 1.167 . S
O331 Zn320 2.120 . S
O331 C325 1.299 . S
O332 Zn320 2.114 . S
O332 C334 1.166 . S
O333 Zn318 1.905 . S
O333 C334 1.182 . S
C334 O332 1.166 . S
C334 O333 1.182 . S
O335 Zn320 2.080 . S
O335 C338 1.305 . S
O336 Zn319 1.920 . S
O336 C338 1.234 . S
C337 O323 1.305 . S
C337 O324 1.234 . S
C338 O335 1.305 . S
C338 O336 1.234 . S
Zn339 O345 1.920 . S
Zn339 O351 1.898 . S
Zn339 O354 1.905 . S
Zn340 O348 1.905 . S
Zn340 O349 1.898 . S
Zn340 O357 1.920 . S
Zn341 O344 2.080 . S
Zn341 O347 2.114 . S
Zn341 O350 2.120 . S
Zn341 O352 2.120 . S
Zn341 O353 2.114 . S
Zn341 O356 2.080 . S
C342 O347 1.166 . S
C342 O348 1.182 . S
C343 O349 1.167 . S
C343 O350 1.299 . S
O344 Zn341 2.080 . S
O344 C358 1.305 . S
O345 Zn339 1.920 . S
O345 C358 1.234 . S
C346 O351 1.167 . S
C346 O352 1.299 . S
O347 Zn341 2.114 . S
O347 C342 1.166 . S
O348 Zn340 1.905 . S
O348 C342 1.182 . S
O349 Zn340 1.898 . S
O349 C343 1.167 . S
O350 Zn341 2.120 . S
O350 C343 1.299 . S
O351 Zn339 1.898 . S
O351 C346 1.167 . S
O352 Zn341 2.120 . S
O352 C346 1.299 . S
O353 Zn341 2.114 . S
O353 C355 1.166 . S
O354 Zn339 1.905 . S
O354 C355 1.182 . S
C355 O353 1.166 . S
C355 O354 1.182 . S
O356 Zn341 2.080 . S
O356 C359 1.305 . S
O357 Zn340 1.920 . S
O357 C359 1.234 . S
C358 O344 1.305 . S
C358 O345 1.234 . S
C359 O356 1.305 . S
C359 O357 1.234 . S
Zn360 O366 1.920 . S
Zn360 O372 1.898 . S
Zn360 O375 1.905 . S
Zn361 O369 1.905 . S
Zn361 O370 1.898 . S
Zn361 O378 1.920 . S
Zn362 O365 2.080 . S
Zn362 O368 2.114 . S
Zn362 O371 2.120 . S
Zn362 O373 2.120 . S
Zn362 O374 2.114 . S
Zn362 O377 2.080 . S
C363 O368 1.166 . S
C363 O369 1.182 . S
C364 O370 1.167 . S
C364 O371 1.299 . S
O365 Zn362 2.080 . S
O365 C379 1.305 . S
O366 Zn360 1.920 . S
O366 C379 1.234 . S
C367 O372 1.167 . S
C367 O373 1.299 . S
O368 Zn362 2.114 . S
O368 C363 1.166 . S
O369 Zn361 1.905 . S
O369 C363 1.182 . S
O370 Zn361 1.898 . S
O370 C364 1.167 . S
O371 Zn362 2.120 . S
O371 C364 1.299 . S
O372 Zn360 1.898 . S
O372 C367 1.167 . S
O373 Zn362 2.120 . S
O373 C367 1.299 . S
O374 Zn362 2.114 . S
O374 C376 1.166 . S
O375 Zn360 1.905 . S
O375 C376 1.182 . S
C376 O374 1.166 . S
C376 O375 1.182 . S
O377 Zn362 2.080 . S
O377 C380 1.305 . S
O378 Zn361 1.920 . S
O378 C380 1.234 . S
C379 O365 1.305 . S
C379 O366 1.234 . S
C380 O377 1.305 . S
C380 O378 1.234 . S
Zn381 O387 1.920 . S
Zn381 O393 1.898 . S
Zn381 O396 1.905 . S
Zn382 O390 1.905 . S
Zn382 O391 1.898 . S
Zn382 O399 1.920 . S
Zn383 O386 2.080 . S
Zn383 O389 2.114 . S
Zn383 O392 2.120 . S
Zn383 O394 2.120 . S
Zn383 O395 2.114 . S
Zn383 O398 2.080 . S
C384 O389 1.166 . S
C384 O390 1.182 . S
C385 O391 1.167 . S
C385 O392 1.299 . S
O386 Zn383 2.080 . S
O386 C400 1.305 1_556 S
O387 Zn381 1.920 . S
O387 C400 1.234 . S
C388 O393 1.167 . S
C388 O394 1.299 1_554 S
O389 Zn383 2.114 . S
O389 C384 1.166 . S
O390 Zn382 1.905 . S
O390 C384 1.182 . S
O391 Zn382 1.898 . S
O391 C385 1.167 . S
O392 Zn383 2.120 . S
O392 C385 1.299 . S
O393 Zn381 1.898 . S
O393 C388 1.167 . S
O394 Zn383 2.120 . S
O394 C388 1.299 1_556 S
O395 Zn383 2.114 . S
O395 C397 1.166 1_556 S
O396 Zn381 1.905 . S
O396 C397 1.182 . S
C397 O395 1.166 1_554 S
C397 O396 1.182 . S
O398 Zn383 2.080 . S
O398 C401 1.305 . S
O399 Zn382 1.920 . S
O399 C401 1.234 . S
C400 O386 1.305 1_554 S
C400 O387 1.234 . S
C401 O398 1.305 . S
C401 O399 1.234 . S
Zn402 O408 1.920 . S
Zn402 O414 1.898 . S
Zn402 O417 1.905 . S
Zn403 O411 1.905 . S
Zn403 O412 1.898 . S
Zn403 O420 1.920 . S
Zn404 O407 2.080 . S
Zn404 O410 2.114 . S
Zn404 O413 2.120 . S
Zn404 O415 2.120 . S
Zn404 O416 2.114 . S
Zn404 O419 2.080 . S
C405 O410 1.166 . S
C405 O411 1.182 . S
C406 O412 1.167 . S
C406 O413 1.299 . S
O407 Zn404 2.080 . S
O407 C421 1.305 . S
O408 Zn402 1.920 . S
O408 C421 1.234 . S
C409 O414 1.167 . S
C409 O415 1.299 . S
O410 Zn404 2.114 . S
O410 C405 1.166 . S
O411 Zn403 1.905 . S
O411 C405 1.182 . S
O412 Zn403 1.898 . S
O412 C406 1.167 . S
O413 Zn404 2.120 . S
O413 C406 1.299 . S
O414 Zn402 1.898 . S
O414 C409 1.167 . S
O415 Zn404 2.120 . S
O415 C409 1.299 . S
O416 Zn404 2.114 . S
O416 C418 1.166 . S
O417 Zn402 1.905 . S
O417 C418 1.182 . S
C418 O416 1.166 . S
C418 O417 1.182 . S
O419 Zn404 2.080 . S
O419 C422 1.305 . S
O420 Zn403 1.920 . S
O420 C422 1.234 . S
C421 O407 1.305 . S
C421 O408 1.234 . S
C422 O419 1.305 . S
C422 O420 1.234 . S
Zn423 O429 1.920 . S
Zn423 O435 1.898 . S
Zn423 O438 1.905 . S
Zn424 O432 1.905 . S
Zn424 O433 1.898 . S
Zn424 O441 1.920 . S
Zn425 O428 2.080 . S
Zn425 O431 2.114 . S
Zn425 O434 2.120 . S
Zn425 O436 2.120 . S
Zn425 O437 2.114 . S
Zn425 O440 2.080 . S
C426 O431 1.166 1_556 S
C426 O432 1.182 . S
C427 O433 1.167 . S
C427 O434 1.299 1_556 S
O428 Zn425 2.080 . S
O428 C442 1.305 . S
O429 Zn423 1.920 . S
O429 C442 1.234 . S
C430 O435 1.167 . S
C430 O436 1.299 . S
O431 Zn425 2.114 . S
O431 C426 1.166 1_554 S
O432 Zn424 1.905 . S
O432 C426 1.182 . S
O433 Zn424 1.898 . S
O433 C427 1.167 . S
O434 Zn425 2.120 . S
O434 C427 1.299 1_554 S
O435 Zn423 1.898 . S
O435 C430 1.167 . S
O436 Zn425 2.120 . S
O436 C430 1.299 . S
O437 Zn425 2.114 . S
O437 C439 1.166 . S
O438 Zn423 1.905 . S
O438 C439 1.182 . S
C439 O437 1.166 . S
C439 O438 1.182 . S
O440 Zn425 2.080 . S
O440 C443 1.305 1_554 S
O441 Zn424 1.920 . S
O441 C443 1.234 . S
C442 O428 1.305 . S
C442 O429 1.234 . S
C443 O440 1.305 1_556 S
C443 O441 1.234 . S
Zn444 O450 1.920 . S
Zn444 O456 1.898 . S
Zn444 O459 1.905 . S
Zn445 O453 1.905 . S
Zn445 O454 1.898 . S
Zn445 O462 1.920 . S
Zn446 O449 2.080 . S
Zn446 O452 2.114 . S
Zn446 O455 2.120 . S
Zn446 O457 2.120 . S
Zn446 O458 2.114 . S
Zn446 O461 2.080 . S
C447 O452 1.166 . S
C447 O453 1.182 . S
C448 O454 1.167 . S
C448 O455 1.299 . S
O449 Zn446 2.080 . S
O449 C463 1.305 . S
O450 Zn444 1.920 . S
O450 C463 1.234 . S
C451 O456 1.167 . S
C451 O457 1.299 . S
O452 Zn446 2.114 . S
O452 C447 1.166 . S
O453 Zn445 1.905 . S
O453 C447 1.182 . S
O454 Zn445 1.898 . S
O454 C448 1.167 . S
O455 Zn446 2.120 . S
O455 C448 1.299 . S
O456 Zn444 1.898 . S
O456 C451 1.167 . S
O457 Zn446 2.120 . S
O457 C451 1.299 . S
O458 Zn446 2.114 . S
O458 C460 1.166 . S
O459 Zn444 1.905 . S
O459 C460 1.182 . S
C460 O458 1.166 . S
C460 O459 1.182 . S
O461 Zn446 2.080 . S
O461 C464 1.305 . S
O462 Zn445 1.920 . S
O462 C464 1.234 . S
C463 O449 1.305 . S
C463 O450 1.234 . S
C464 O461 1.305 . S
C464 O462 1.234 . S
Zn465 O471 1.920 . S
Zn465 O477 1.898 . S
Zn465 O480 1.905 . S
Zn466 O474 1.905 . S
Zn466 O475 1.898 . S
Zn466 O483 1.920 . S
Zn467 O470 2.080 . S
Zn467 O473 2.114 . S
Zn467 O476 2.120 . S
Zn467 O478 2.120 . S
Zn467 O479 2.114 . S
Zn467 O482 2.080 . S
C468 O473 1.166 . S
C468 O474 1.182 . S
C469 O475 1.167 . S
C469 O476 1.299 . S
O470 Zn467 2.080 . S
O470 C484 1.305 . S
O471 Zn465 1.920 . S
O471 C484 1.234 . S
C472 O477 1.167 . S
C472 O478 1.299 . S
O473 Zn467 2.114 . S
O473 C468 1.166 . S
O474 Zn466 1.905 . S
O474 C468 1.182 . S
O475 Zn466 1.898 . S
O475 C469 1.167 . S
O476 Zn467 2.120 . S
O476 C469 1.299 . S
O477 Zn465 1.898 . S
O477 C472 1.167 . S
O478 Zn467 2.120 . S
O478 C472 1.299 . S
O479 Zn467 2.114 . S
O479 C481 1.166 . S
O480 Zn465 1.905 . S
O480 C481 1.182 . S
C481 O479 1.166 . S
C481 O480 1.182 . S
O482 Zn467 2.080 . S
O482 C485 1.305 . S
O483 Zn466 1.920 . S
O483 C485 1.234 . S
C484 O470 1.305 . S
C484 O471 1.234 . S
C485 O482 1.305 . S
C485 O483 1.234 . S
C486 C487 1.369 . S
C486 C488 1.419 . S
C486 H490 0.930 . S
C487 C486 1.369 . S
C487 C496 1.429 . S
C488 C486 1.419 . S
C488 C489 1.363 . S
C488 H491 0.929 . S
C489 C488 1.363 . S
C489 C495 1.428 . S
H490 C486 0.930 . S
H491 C488 0.929 . S
S492 N493 1.613 . S
S492 N494 1.610 . S
N493 S492 1.613 . S
N493 C496 1.350 . S
N494 S492 1.610 . S
N494 C495 1.351 . S
C495 C489 1.428 . S
C495 N494 1.351 . S
C495 C496 1.434 . S
C496 C487 1.429 . S
C496 N493 1.350 . S
C496 C495 1.434 . S
C497 C498 1.363 1_545 S
C497 C499 1.419 . S
C497 H501 0.930 . S
C498 C497 1.363 1_565 S
C498 C507 1.437 . S
C499 C497 1.419 . S
C499 C500 1.363 . S
C499 H502 0.929 . S
C500 C499 1.363 . S
C500 C506 1.428 1_545 S
H501 C497 0.930 . S
H502 C499 0.929 . S
S503 N504 1.613 . S
S503 N505 1.610 . S
N504 S503 1.613 . S
N504 C507 1.350 . S
N505 S503 1.610 . S
N505 C506 1.351 . S
C506 C500 1.428 1_565 S
C506 N505 1.351 . S
C506 C507 1.434 . S
C507 C498 1.437 . S
C507 N504 1.350 . S
C507 C506 1.434 . S
C508 C509 1.369 1_655 S
C508 C510 1.419 . S
C508 H512 0.930 . S
C509 C508 1.369 1_455 S
C509 C518 1.429 . S
C510 C508 1.419 . S
C510 C511 1.363 . S
C510 H513 0.929 . S
C511 C510 1.363 . S
C511 C517 1.428 1_655 S
H512 C508 0.930 . S
H513 C510 0.929 . S
S514 N515 1.613 . S
S514 N516 1.610 . S
N515 S514 1.613 . S
N515 C518 1.350 . S
N516 S514 1.610 . S
N516 C517 1.351 . S
C517 C511 1.428 1_455 S
C517 N516 1.351 . S
C517 C518 1.434 . S
C518 C509 1.429 . S
C518 N515 1.350 . S
C518 C517 1.434 . S
C519 C520 1.369 . S
C519 C521 1.419 . S
C519 H523 0.930 . S
C520 C519 1.369 . S
C520 C529 1.429 . S
C521 C519 1.419 . S
C521 C522 1.363 . S
C521 H524 0.929 . S
C522 C521 1.363 . S
C522 C528 1.428 . S
H523 C519 0.930 . S
H524 C521 0.929 . S
S525 N526 1.613 . S
S525 N527 1.610 . S
N526 S525 1.613 . S
N526 C529 1.350 . S
N527 S525 1.610 . S
N527 C528 1.351 . S
C528 C522 1.428 . S
C528 N527 1.351 . S
C528 C529 1.434 . S
C529 C520 1.429 . S
C529 N526 1.350 . S
C529 C528 1.434 . S
C530 C531 1.369 1_565 S
C530 C532 1.419 . S
C530 H534 0.930 . S
C531 C530 1.369 1_545 S
C531 C540 1.429 . S
C532 C530 1.419 . S
C532 C533 1.363 1_565 S
C532 H535 0.929 . S
C533 C532 1.363 1_545 S
C533 C539 1.428 . S
H534 C530 0.930 . S
H535 C532 0.929 . S
S536 N537 1.613 . S
S536 N538 1.610 . S
N537 S536 1.613 . S
N537 C540 1.350 . S
N538 S536 1.610 . S
N538 C539 1.351 . S
C539 C533 1.428 . S
C539 N538 1.351 . S
C539 C540 1.434 . S
C540 C531 1.429 . S
C540 N537 1.350 . S
C540 C539 1.434 . S
C541 C542 1.369 . S
C541 C543 1.419 . S
C541 H545 0.930 . S
C542 C541 1.369 . S
C542 C551 1.429 1_655 S
C543 C541 1.419 . S
C543 C544 1.363 1_655 S
C543 H546 0.929 . S
C544 C543 1.363 1_455 S
C544 C550 1.428 . S
H545 C541 0.930 . S
H546 C543 0.929 . S
S547 N548 1.613 . S
S547 N549 1.610 . S
N548 S547 1.613 . S
N548 C551 1.350 . S
N549 S547 1.610 . S
N549 C550 1.351 . S
C550 C544 1.428 . S
C550 N549 1.351 . S
C550 C551 1.434 . S
C551 C542 1.429 1_455 S
C551 N548 1.350 . S
C551 C550 1.434 . S
C552 C553 1.369 . S
C552 C554 1.419 . S
C552 H556 0.930 . S
C553 C552 1.369 . S
C553 C562 1.429 . S
C554 C552 1.419 . S
C554 C555 1.363 . S
C554 H557 0.929 . S
C555 C554 1.363 . S
C555 C561 1.428 . S
H556 C552 0.930 . S
H557 C554 0.929 . S
S558 N559 1.613 . S
S558 N560 1.610 . S
N559 S558 1.613 . S
N559 C562 1.350 . S
N560 S558 1.610 . S
N560 C561 1.351 . S
C561 C555 1.428 . S
C561 N560 1.351 . S
C561 C562 1.434 . S
C562 C553 1.429 . S
C562 N559 1.350 . S
C562 C561 1.434 . S
C563 C564 1.369 1_565 S
C563 C565 1.419 . S
C563 H567 0.930 . S
C564 C563 1.369 1_545 S
C564 C573 1.429 . S
C565 C563 1.419 . S
C565 C566 1.363 1_565 S
C565 H568 0.929 . S
C566 C565 1.363 1_545 S
C566 C572 1.428 . S
H567 C563 0.930 . S
H568 C565 0.929 . S
S569 N570 1.613 . S
S569 N571 1.610 . S
N570 S569 1.613 . S
N570 C573 1.350 . S
N571 S569 1.610 . S
N571 C572 1.351 . S
C572 C566 1.428 . S
C572 N571 1.351 . S
C572 C573 1.434 . S
C573 C564 1.429 . S
C573 N570 1.350 . S
C573 C572 1.434 . S
C574 C575 1.369 1_655 S
C574 C576 1.419 . S
C574 H578 0.930 . S
C575 C574 1.369 1_455 S
C575 C584 1.429 . S
C576 C574 1.419 . S
C576 C577 1.363 1_655 S
C576 H579 0.929 . S
C577 C576 1.363 1_455 S
C577 C583 1.428 . S
H578 C574 0.930 . S
H579 C576 0.929 . S
S580 N581 1.613 . S
S580 N582 1.610 . S
N581 S580 1.613 . S
N581 C584 1.350 . S
N582 S580 1.610 . S
N582 C583 1.351 . S
C583 C577 1.428 . S
C583 N582 1.351 . S
C583 C584 1.434 . S
C584 C575 1.429 . S
C584 N581 1.350 . S
C584 C583 1.434 . S
C585 C586 1.369 . S
C585 C587 1.419 . S
C585 H589 0.930 . S
C586 C585 1.369 . S
C586 C595 1.429 . S
C587 C585 1.419 . S
C587 C588 1.363 . S
C587 H590 0.929 . S
C588 C587 1.363 . S
C588 C594 1.428 . S
H589 C585 0.930 . S
H590 C587 0.929 . S
S591 N592 1.613 . S
S591 N593 1.610 . S
N592 S591 1.613 . S
N592 C595 1.350 . S
N593 S591 1.610 . S
N593 C594 1.351 . S
C594 C588 1.428 . S
C594 N593 1.351 . S
C594 C595 1.434 . S
C595 C586 1.429 . S
C595 N592 1.350 . S
C595 C594 1.434 . S
C596 C597 1.369 1_565 S
C596 C598 1.419 . S
C596 H600 0.930 . S
C597 C596 1.369 1_545 S
C597 C606 1.429 . S
C598 C596 1.419 . S
C598 C599 1.363 1_565 S
C598 H601 0.929 . S
C599 C598 1.363 1_545 S
C599 C605 1.428 . S
H600 C596 0.930 . S
H601 C598 0.929 . S
S602 N603 1.613 . S
S602 N604 1.610 . S
N603 S602 1.613 . S
N603 C606 1.350 . S
N604 S602 1.610 . S
N604 C605 1.351 . S
C605 C599 1.428 . S
C605 N604 1.351 . S
C605 C606 1.434 . S
C606 C597 1.429 . S
C606 N603 1.350 . S
C606 C605 1.434 . S
C607 C608 1.369 . S
C607 C609 1.419 1_455 S
C607 H611 0.930 1_455 S
C608 C607 1.369 . S
C608 C617 1.429 . S
C609 C607 1.419 1_655 S
C609 C610 1.363 1_655 S
C609 H612 0.929 . S
C610 C609 1.363 1_455 S
C610 C616 1.428 . S
H611 C607 0.930 1_655 S
H612 C609 0.929 . S
S613 N614 1.613 . S
S613 N615 1.610 . S
N614 S613 1.613 . S
N614 C617 1.350 . S
N615 S613 1.610 . S
N615 C616 1.351 . S
C616 C610 1.428 . S
C616 N615 1.351 . S
C616 C617 1.434 . S
C617 C608 1.429 . S
C617 N614 1.350 . S
C617 C616 1.434 . S
C618 C619 1.369 . S
C618 C620 1.419 . S
C618 H622 0.930 . S
C619 C618 1.369 . S
C619 C628 1.429 . S
C620 C618 1.419 . S
C620 C621 1.363 . S
C620 H623 0.929 . S
C621 C620 1.363 . S
C621 C627 1.428 . S
H622 C618 0.930 . S
H623 C620 0.929 . S
S624 N625 1.613 . S
S624 N626 1.610 . S
N625 S624 1.613 . S
N625 C628 1.350 . S
N626 S624 1.610 . S
N626 C627 1.351 . S
C627 C621 1.428 . S
C627 N626 1.351 . S
C627 C628 1.434 . S
C628 C619 1.429 . S
C628 N625 1.350 . S
C628 C627 1.434 . S
C629 C630 1.369 . S
C629 C631 1.419 . S
C629 H633 0.930 . S
C630 C629 1.369 . S
C630 C639 1.429 . S
C631 C629 1.419 . S
C631 C632 1.363 . S
C631 H634 0.929 . S
C632 C631 1.363 . S
C632 C638 1.428 . S
H633 C629 0.930 . S
H634 C631 0.929 . S
S635 N636 1.613 . S
S635 N637 1.610 . S
N636 S635 1.613 . S
N636 C639 1.350 . S
N637 S635 1.610 . S
N637 C638 1.351 . S
C638 C632 1.428 . S
C638 N637 1.351 . S
C638 C639 1.434 . S
C639 C630 1.429 . S
C639 N636 1.350 . S
C639 C638 1.434 . S
C640 C641 1.369 . S
C640 C642 1.419 . S
C640 H644 0.930 . S
C641 C640 1.369 . S
C641 C650 1.429 . S
C642 C640 1.419 . S
C642 C643 1.363 . S
C642 H645 0.929 . S
C643 C642 1.363 . S
C643 C649 1.428 . S
H644 C640 0.930 . S
H645 C642 0.929 . S
S646 N647 1.613 . S
S646 N648 1.610 . S
N647 S646 1.613 . S
N647 C650 1.350 . S
N648 S646 1.610 . S
N648 C649 1.351 . S
C649 C643 1.428 . S
C649 N648 1.351 . S
C649 C650 1.434 . S
C650 C641 1.429 . S
C650 N647 1.350 . S
C650 C649 1.434 . S
C651 C652 1.369 . S
C651 C653 1.419 . S
C651 H655 0.930 . S
C652 C651 1.369 . S
C652 C661 1.429 . S
C653 C651 1.419 . S
C653 C654 1.363 . S
C653 H656 0.929 . S
C654 C653 1.363 . S
C654 C660 1.428 . S
H655 C651 0.930 . S
H656 C653 0.929 . S
S657 N658 1.613 . S
S657 N659 1.610 . S
N658 S657 1.613 . S
N658 C661 1.350 . S
N659 S657 1.610 . S
N659 C660 1.351 . S
C660 C654 1.428 . S
C660 N659 1.351 . S
C660 C661 1.434 . S
C661 C652 1.429 . S
C661 N658 1.350 . S
C661 C660 1.434 . S
C662 C663 1.369 . S
C662 C664 1.419 . S
C662 H666 0.930 . S
C663 C662 1.369 . S
C663 C672 1.429 . S
C664 C662 1.419 . S
C664 C665 1.363 . S
C664 H667 0.929 . S
C665 C664 1.363 . S
C665 C671 1.428 . S
H666 C662 0.930 . S
H667 C664 0.929 . S
S668 N669 1.613 . S
S668 N670 1.610 . S
N669 S668 1.613 . S
N669 C672 1.350 . S
N670 S668 1.610 . S
N670 C671 1.351 . S
C671 C665 1.428 . S
C671 N670 1.351 . S
C671 C672 1.434 . S
C672 C663 1.429 . S
C672 N669 1.350 . S
C672 C671 1.434 . S
C673 C674 1.369 . S
C673 C675 1.419 . S
C673 H677 0.930 . S
C674 C673 1.369 . S
C674 C683 1.429 . S
C675 C673 1.419 . S
C675 C676 1.363 . S
C675 H678 0.929 . S
C676 C675 1.363 . S
C676 C682 1.428 . S
H677 C673 0.930 . S
H678 C675 0.929 . S
S679 N680 1.613 . S
S679 N681 1.610 . S
N680 S679 1.613 . S
N680 C683 1.350 . S
N681 S679 1.610 . S
N681 C682 1.351 . S
C682 C676 1.428 . S
C682 N681 1.351 . S
C682 C683 1.434 . S
C683 C674 1.429 . S
C683 N680 1.350 . S
C683 C682 1.434 . S
C684 C685 1.369 . S
C684 C686 1.419 . S
C684 H688 0.930 . S
C685 C684 1.369 . S
C685 C694 1.429 . S
C686 C684 1.419 . S
C686 C687 1.363 . S
C686 H689 0.929 . S
C687 C686 1.363 . S
C687 C693 1.428 . S
H688 C684 0.930 . S
H689 C686 0.929 . S
S690 N691 1.613 . S
S690 N692 1.610 . S
N691 S690 1.613 . S
N691 C694 1.350 . S
N692 S690 1.610 . S
N692 C693 1.351 . S
C693 C687 1.428 . S
C693 N692 1.351 . S
C693 C694 1.434 . S
C694 C685 1.429 . S
C694 N691 1.350 . S
C694 C693 1.434 . S
C695 C696 1.369 . S
C695 C697 1.419 . S
C695 H699 0.930 . S
C696 C695 1.369 . S
C696 C705 1.429 . S
C697 C695 1.419 . S
C697 C698 1.363 . S
C697 H700 0.929 . S
C698 C697 1.363 . S
C698 C704 1.428 . S
H699 C695 0.930 . S
H700 C697 0.929 . S
S701 N702 1.613 . S
S701 N703 1.610 . S
N702 S701 1.613 . S
N702 C705 1.350 . S
N703 S701 1.610 . S
N703 C704 1.351 . S
C704 C698 1.428 . S
C704 N703 1.351 . S
C704 C705 1.434 . S
C705 C696 1.429 . S
C705 N702 1.350 . S
C705 C704 1.434 . S
C706 C707 1.369 . S
C706 C708 1.419 . S
C706 H710 0.930 . S
C707 C706 1.369 . S
C707 C716 1.429 . S
C708 C706 1.419 . S
C708 C709 1.363 . S
C708 H711 0.929 . S
C709 C708 1.363 . S
C709 C715 1.428 . S
H710 C706 0.930 . S
H711 C708 0.929 . S
S712 N713 1.613 . S
S712 N714 1.610 . S
N713 S712 1.613 . S
N713 C716 1.350 . S
N714 S712 1.610 . S
N714 C715 1.351 . S
C715 C709 1.428 . S
C715 N714 1.351 . S
C715 C716 1.434 . S
C716 C707 1.429 . S
C716 N713 1.350 . S
C716 C715 1.434 . S
C717 C718 1.369 . S
C717 C719 1.419 . S
C717 H721 0.930 . S
C718 C717 1.369 . S
C718 C727 1.429 . S
C719 C717 1.419 . S
C719 C720 1.363 . S
C719 H722 0.903 1_554 S
C720 C719 1.363 . S
C720 C726 1.428 . S
H721 C717 0.930 . S
H722 C719 0.903 1_556 S
S723 N724 1.613 . S
S723 N725 1.610 . S
N724 S723 1.613 . S
N724 C727 1.350 . S
N725 S723 1.610 . S
N725 C726 1.351 . S
C726 C720 1.428 . S
C726 N725 1.351 . S
C726 C727 1.434 . S
C727 C718 1.429 . S
C727 N724 1.350 . S
C727 C726 1.434 . S
C728 C729 1.369 . S
C728 C730 1.419 . S
C728 H732 0.930 . S
C729 C728 1.369 . S
C729 C738 1.429 . S
C730 C728 1.419 . S
C730 C731 1.363 . S
C730 H733 0.929 . S
C731 C730 1.363 . S
C731 C737 1.428 . S
H732 C728 0.930 . S
H733 C730 0.929 . S
S734 N735 1.613 . S
S734 N736 1.610 . S
N735 S734 1.613 . S
N735 C738 1.350 . S
N736 S734 1.610 . S
N736 C737 1.351 . S
C737 C731 1.428 . S
C737 N736 1.351 . S
C737 C738 1.434 . S
C738 C729 1.429 . S
C738 N735 1.350 . S
C738 C737 1.434 . S
C739 C740 1.369 . S
C739 C741 1.419 . S
C739 H743 0.930 . S
C740 C739 1.369 . S
C740 C749 1.429 . S
C741 C739 1.419 . S
C741 C742 1.363 . S
C741 H744 0.929 . S
C742 C741 1.363 . S
C742 C748 1.428 . S
H743 C739 0.930 . S
H744 C741 0.929 . S
S745 N746 1.613 1_556 S
S745 N747 1.610 . S
N746 S745 1.613 1_554 S
N746 C749 1.350 . S
N747 S745 1.610 . S
N747 C748 1.351 1_556 S
C748 C742 1.428 . S
C748 N747 1.351 1_554 S
C748 C749 1.434 . S
C749 C740 1.429 . S
C749 N746 1.350 . S
C749 C748 1.434 . S
C750 C751 1.369 . S
C750 C752 1.419 . S
C750 H754 0.930 . S
C751 C750 1.369 . S
C751 C760 1.429 . S
C752 C750 1.419 . S
C752 C753 1.363 . S
C752 H755 0.929 . S
C753 C752 1.363 . S
C753 C759 1.428 . S
H754 C750 0.930 . S
H755 C752 0.929 . S
S756 N757 1.613 . S
S756 N758 1.610 . S
N757 S756 1.613 . S
N757 C760 1.350 . S
N758 S756 1.610 . S
N758 C759 1.351 . S
C759 C753 1.428 . S
C759 N758 1.351 . S
C759 C760 1.434 . S
C760 C751 1.429 . S
C760 N757 1.350 . S
C760 C759 1.434 . S
C761 C762 1.369 . S
C761 C763 1.419 . S
C761 H765 0.930 . S
C762 C761 1.369 . S
C762 C771 1.429 . S
C763 C761 1.419 . S
C763 C764 1.363 . S
C763 H766 0.929 . S
C764 C763 1.363 . S
C764 C770 1.428 . S
H765 C761 0.930 . S
H766 C763 0.929 . S
S767 N768 1.613 . S
S767 N769 1.610 . S
N768 S767 1.613 . S
N768 C771 1.350 . S
N769 S767 1.610 . S
N769 C770 1.351 . S
C770 C764 1.428 . S
C770 N769 1.351 . S
C770 C771 1.434 . S
C771 C762 1.429 . S
C771 N768 1.350 . S
C771 C770 1.434 . S
C772 C773 1.369 . S
C772 C774 1.419 . S
C772 H776 0.930 . S
C773 C772 1.369 . S
C773 C782 1.429 . S
C774 C772 1.419 . S
C774 C775 1.363 . S
C774 H777 0.929 . S
C775 C774 1.363 . S
C775 C781 1.428 . S
H776 C772 0.930 . S
H777 C774 0.929 . S
S778 N779 1.613 . S
S778 N780 1.610 . S
N779 S778 1.613 . S
N779 C782 1.350 . S
N780 S778 1.610 . S
N780 C781 1.351 . S
C781 C775 1.428 . S
C781 N780 1.351 . S
C781 C782 1.434 . S
C782 C773 1.429 . S
C782 N779 1.350 . S
C782 C781 1.434 . S
C783 C784 1.369 . S
C783 C785 1.419 . S
C783 H787 0.930 . S
C784 C783 1.369 . S
C784 C793 1.429 . S
C785 C783 1.419 . S
C785 C786 1.363 . S
C785 H788 0.929 . S
C786 C785 1.363 . S
C786 C792 1.428 . S
H787 C783 0.930 . S
H788 C785 0.929 . S
S789 N790 1.613 . S
S789 N791 1.610 . S
N790 S789 1.613 . S
N790 C793 1.350 . S
N791 S789 1.610 . S
N791 C792 1.351 . S
C792 C786 1.428 . S
C792 N791 1.351 . S
C792 C793 1.434 . S
C793 C784 1.429 . S
C793 N790 1.350 . S
C793 C792 1.434 . S
C794 C795 1.369 . S
C794 C796 1.419 . S
C794 H798 0.930 . S
C795 C794 1.369 . S
C795 C804 1.429 . S
C796 C794 1.419 . S
C796 C797 1.363 . S
C796 H799 0.929 . S
C797 C796 1.363 . S
C797 C803 1.428 . S
H798 C794 0.930 . S
H799 C796 0.929 . S
S800 N801 1.613 1_554 S
S800 N802 1.610 . S
N801 S800 1.613 1_556 S
N801 C804 1.350 . S
N802 S800 1.610 . S
N802 C803 1.351 1_554 S
C803 C797 1.428 . S
C803 N802 1.351 1_556 S
C803 C804 1.434 . S
C804 C795 1.429 . S
C804 N801 1.350 . S
C804 C803 1.434 . S
C805 C806 1.369 . S
C805 C807 1.419 . S
C805 H809 0.930 . S
C806 C805 1.369 . S
C806 C815 1.429 . S
C807 C805 1.419 . S
C807 C808 1.363 . S
C807 H810 0.929 . S
C808 C807 1.363 . S
C808 C814 1.428 . S
H809 C805 0.930 . S
H810 C807 0.929 . S
S811 N812 1.613 1_554 S
S811 N813 1.610 . S
N812 S811 1.613 1_556 S
N812 C815 1.350 . S
N813 S811 1.610 . S
N813 C814 1.351 1_554 S
C814 C808 1.428 . S
C814 N813 1.351 1_556 S
C814 C815 1.434 . S
C815 C806 1.429 . S
C815 N812 1.350 . S
C815 C814 1.434 . S
C816 C817 1.369 . S
C816 C818 1.419 . S
C816 H820 0.930 . S
C817 C816 1.369 . S
C817 C826 1.429 . S
C818 C816 1.419 . S
C818 C819 1.363 . S
C818 H821 0.929 . S
C819 C818 1.363 . S
C819 C825 1.428 . S
H820 C816 0.930 . S
H821 C818 0.929 . S
S822 N823 1.613 . S
S822 N824 1.610 . S
N823 S822 1.613 . S
N823 C826 1.350 . S
N824 S822 1.610 . S
N824 C825 1.351 . S
C825 C819 1.428 . S
C825 N824 1.351 . S
C825 C826 1.434 . S
C826 C817 1.429 . S
C826 N823 1.350 . S
C826 C825 1.434 . S
C827 C828 1.369 . S
C827 C829 1.419 . S
C827 H831 0.930 . S
C828 C827 1.369 . S
C828 C837 1.429 . S
C829 C827 1.419 . S
C829 C830 1.363 . S
C829 H832 0.929 . S
C830 C829 1.363 . S
C830 C836 1.428 . S
H831 C827 0.930 . S
H832 C829 0.929 . S
S833 N834 1.613 . S
S833 N835 1.610 . S
N834 S833 1.613 . S
N834 C837 1.350 . S
N835 S833 1.610 . S
N835 C836 1.351 . S
C836 C830 1.428 . S
C836 N835 1.351 . S
C836 C837 1.434 . S
C837 C828 1.429 . S
C837 N834 1.350 . S
C837 C836 1.434 . S
C838 C839 1.369 . S
C838 C840 1.419 . S
C838 H842 0.930 . S
C839 C838 1.369 . S
C839 C848 1.429 . S
C840 C838 1.419 . S
C840 C841 1.363 . S
C840 H843 0.929 . S
C841 C840 1.363 . S
C841 C847 1.428 . S
H842 C838 0.930 . S
H843 C840 0.929 . S
S844 N845 1.613 . S
S844 N846 1.610 . S
N845 S844 1.613 . S
N845 C848 1.350 . S
N846 S844 1.610 . S
N846 C847 1.351 . S
C847 C841 1.428 . S
C847 N846 1.351 . S
C847 C848 1.434 . S
C848 C839 1.429 . S
C848 N845 1.350 . S
C848 C847 1.434 . S
C849 C850 1.369 . S
C849 C851 1.419 . S
C849 H853 0.930 . S
C850 C849 1.369 . S
C850 C859 1.429 . S
C851 C849 1.419 . S
C851 C852 1.363 . S
C851 H854 0.929 . S
C852 C851 1.363 . S
C852 C858 1.428 . S
H853 C849 0.930 . S
H854 C851 0.929 . S
S855 N856 1.613 . S
S855 N857 1.610 . S
N856 S855 1.613 . S
N856 C859 1.350 . S
N857 S855 1.610 . S
N857 C858 1.351 . S
C858 C852 1.428 . S
C858 N857 1.351 . S
C858 C859 1.434 . S
C859 C850 1.429 . S
C859 N856 1.350 . S
C859 C858 1.434 . S
C860 C861 1.369 . S
C860 C862 1.419 . S
C860 H864 0.930 . S
C861 C860 1.369 . S
C861 C870 1.429 . S
C862 C860 1.419 . S
C862 C863 1.363 . S
C862 H865 0.929 . S
C863 C862 1.363 . S
C863 C869 1.428 . S
H864 C860 0.930 . S
H865 C862 0.929 . S
S866 N867 1.613 . S
S866 N868 1.610 . S
N867 S866 1.613 . S
N867 C870 1.350 . S
N868 S866 1.610 . S
N868 C869 1.351 . S
C869 C863 1.428 . S
C869 N868 1.351 . S
C869 C870 1.434 . S
C870 C861 1.429 . S
C870 N867 1.350 . S
C870 C869 1.434 . S
C871 C872 1.369 . S
C871 C873 1.419 . S
C871 H875 0.930 . S
C872 C871 1.369 . S
C872 C881 1.429 . S
C873 C871 1.419 . S
C873 C874 1.363 . S
C873 H876 0.929 . S
C874 C873 1.363 . S
C874 C880 1.428 . S
H875 C871 0.930 . S
H876 C873 0.929 . S
S877 N878 1.613 . S
S877 N879 1.610 . S
N878 S877 1.613 . S
N878 C881 1.350 . S
N879 S877 1.610 . S
N879 C880 1.351 . S
C880 C874 1.428 . S
C880 N879 1.351 . S
C880 C881 1.434 . S
C881 C872 1.429 . S
C881 N878 1.350 . S
C881 C880 1.434 . S
C882 C883 1.369 . S
C882 C884 1.419 . S
C882 H886 0.930 . S
C883 C882 1.369 . S
C883 C892 1.429 . S
C884 C882 1.419 . S
C884 C885 1.363 . S
C884 H887 0.929 . S
C885 C884 1.363 . S
C885 C891 1.428 . S
H886 C882 0.930 . S
H887 C884 0.929 . S
S888 N889 1.613 . S
S888 N890 1.610 . S
N889 S888 1.613 . S
N889 C892 1.350 . S
N890 S888 1.610 . S
N890 C891 1.351 . S
C891 C885 1.428 . S
C891 N890 1.351 . S
C891 C892 1.434 . S
C892 C883 1.429 . S
C892 N889 1.350 . S
C892 C891 1.434 . S
C893 C894 1.369 . S
C893 C895 1.419 . S
C893 H897 0.930 1_655 S
C894 C893 1.369 . S
C894 C903 1.429 . S
C895 C893 1.419 . S
C895 C896 1.363 . S
C895 H898 0.929 1_655 S
C896 C895 1.363 . S
C896 C902 1.428 . S
H897 C893 0.930 1_455 S
H898 C895 0.929 1_455 S
S899 N900 1.613 . S
S899 N901 1.610 . S
N900 S899 1.613 . S
N900 C903 1.350 . S
N901 S899 1.610 . S
N901 C902 1.351 . S
C902 C896 1.428 . S
C902 N901 1.351 . S
C902 C903 1.434 . S
C903 C894 1.429 . S
C903 N900 1.350 . S
C903 C902 1.434 . S
C904 C905 1.369 . S
C904 C906 1.419 . S
C904 H908 0.930 . S
C905 C904 1.369 . S
C905 C914 1.429 . S
C906 C904 1.419 . S
C906 C907 1.363 . S
C906 H909 0.929 . S
C907 C906 1.363 . S
C907 C913 1.428 . S
H908 C904 0.930 . S
H909 C906 0.929 . S
S910 N911 1.613 . S
S910 N912 1.610 . S
N911 S910 1.613 . S
N911 C914 1.350 . S
N912 S910 1.610 . S
N912 C913 1.351 . S
C913 C907 1.428 . S
C913 N912 1.351 . S
C913 C914 1.434 . S
C914 C905 1.429 . S
C914 N911 1.350 . S
C914 C913 1.434 . S
C915 C916 1.369 . S
C915 C917 1.419 . S
C915 H919 0.930 . S
C916 C915 1.369 . S
C916 C925 1.429 . S
C917 C915 1.419 . S
C917 C918 1.363 . S
C917 H920 0.929 . S
C918 C917 1.363 . S
C918 C924 1.431 . S
H919 C915 0.930 . S
H920 C917 0.929 . S
S921 N922 1.613 . S
S921 N923 1.610 . S
N922 S921 1.613 . S
N922 C925 1.350 1_655 S
N923 S921 1.610 . S
N923 C924 1.350 1_655 S
C924 C918 1.431 . S
C924 N923 1.350 1_455 S
C924 C925 1.433 . S
C925 C916 1.429 . S
C925 N922 1.350 1_455 S
C925 C924 1.433 . S
C926 C927 1.369 . S
C926 C928 1.419 . S
C926 H930 0.930 . S
C927 C926 1.369 . S
C927 C936 1.429 . S
C928 C926 1.419 . S
C928 C929 1.363 . S
C928 H931 0.929 . S
C929 C928 1.363 . S
C929 C935 1.428 . S
H930 C926 0.930 . S
H931 C928 0.929 . S
S932 N933 1.613 . S
S932 N934 1.610 . S
N933 S932 1.613 . S
N933 C936 1.350 . S
N934 S932 1.610 . S
N934 C935 1.351 . S
C935 C929 1.428 . S
C935 N934 1.351 . S
C935 C936 1.434 . S
C936 C927 1.429 . S
C936 N933 1.350 . S
C936 C935 1.434 . S
C937 C938 1.369 . S
C937 C939 1.419 . S
C937 H941 0.930 . S
C938 C937 1.369 . S
C938 C947 1.429 1_565 S
C939 C937 1.419 . S
C939 C940 1.363 . S
C939 H942 0.929 . S
C940 C939 1.363 . S
C940 C946 1.428 1_565 S
H941 C937 0.930 . S
H942 C939 0.929 . S
S943 N944 1.613 . S
S943 N945 1.610 . S
N944 S943 1.613 . S
N944 C947 1.350 . S
N945 S943 1.610 . S
N945 C946 1.351 . S
C946 C940 1.428 1_545 S
C946 N945 1.351 . S
C946 C947 1.434 . S
C947 C938 1.429 1_545 S
C947 N944 1.350 . S
C947 C946 1.434 . S
C948 C949 1.369 1_545 S
C948 C950 1.419 . S
C948 H952 0.930 . S
C949 C948 1.369 1_565 S
C949 C958 1.429 . S
C950 C948 1.419 . S
C950 C951 1.363 1_545 S
C950 H953 0.929 . S
C951 C950 1.363 1_565 S
C951 C957 1.428 . S
H952 C948 0.930 . S
H953 C950 0.929 . S
S954 N955 1.613 . S
S954 N956 1.610 . S
N955 S954 1.613 . S
N955 C958 1.350 . S
N956 S954 1.610 . S
N956 C957 1.351 . S
C957 C951 1.428 . S
C957 N956 1.351 . S
C957 C958 1.434 . S
C958 C949 1.429 . S
C958 N955 1.350 . S
C958 C957 1.434 . S
C959 C960 1.369 . S
C959 C961 1.419 . S
C959 H963 0.930 1_455 S
C960 C959 1.369 . S
C960 C969 1.429 . S
C961 C959 1.419 . S
C961 C962 1.363 . S
C961 H964 0.929 1_455 S
C962 C961 1.363 . S
C962 C968 1.428 . S
H963 C959 0.930 1_655 S
H964 C961 0.929 1_655 S
S965 N966 1.613 . S
S965 N967 1.610 . S
N966 S965 1.613 . S
N966 C969 1.350 . S
N967 S965 1.610 . S
N967 C968 1.351 . S
C968 C962 1.428 . S
C968 N967 1.351 . S
C968 C969 1.434 . S
C969 C960 1.429 . S
C969 N966 1.350 . S
C969 C968 1.434 . S
C970 C971 1.369 . S
C970 C972 1.419 . S
C970 H974 0.930 . S
C971 C970 1.369 . S
C971 C980 1.429 . S
C972 C970 1.419 . S
C972 C973 1.363 . S
C972 H975 0.929 . S
C973 C972 1.363 . S
C973 C979 1.428 . S
H974 C970 0.930 . S
H975 C972 0.929 . S
S976 N977 1.613 . S
S976 N978 1.610 . S
N977 S976 1.613 . S
N977 C980 1.350 . S
N978 S976 1.610 . S
N978 C979 1.351 . S
C979 C973 1.428 . S
C979 N978 1.351 . S
C979 C980 1.434 . S
C980 C971 1.429 . S
C980 N977 1.350 . S
C980 C979 1.434 . S
C981 C982 1.369 1_455 S
C981 C983 1.419 . S
C981 H985 0.930 . S
C982 C981 1.369 1_655 S
C982 C991 1.429 . S
C983 C981 1.419 . S
C983 C984 1.363 1_455 S
C983 H986 0.929 . S
C984 C983 1.363 1_655 S
C984 C990 1.428 . S
H985 C981 0.930 . S
H986 C983 0.929 . S
S987 N988 1.613 . S
S987 N989 1.610 . S
N988 S987 1.613 . S
N988 C991 1.350 . S
N989 S987 1.610 . S
N989 C990 1.351 . S
C990 C984 1.428 . S
C990 N989 1.351 . S
C990 C991 1.434 . S
C991 C982 1.429 . S
C991 N988 1.350 . S
C991 C990 1.434 . S
C992 C993 1.369 . S
C992 C994 1.419 . S
C992 H996 0.930 . S
C993 C992 1.369 . S
C993 C1002 1.429 . S
C994 C992 1.419 . S
C994 C995 1.363 . S
C994 H997 0.929 . S
C995 C994 1.363 . S
C995 C1001 1.428 . S
H996 C992 0.930 . S
H997 C994 0.929 . S
S998 N999 1.613 . S
S998 N1000 1.610 . S
N999 S998 1.613 . S
N999 C1002 1.350 . S
N1000 S998 1.610 . S
N1000 C1001 1.351 . S
C1001 C995 1.428 . S
C1001 N1000 1.351 . S
C1001 C1002 1.434 . S
C1002 C993 1.429 . S
C1002 N999 1.350 . S
C1002 C1001 1.434 . S
C1003 C1004 1.369 . S
C1003 C1005 1.419 . S
C1003 H1007 0.930 . S
C1004 C1003 1.369 . S
C1004 C1013 1.429 . S
C1005 C1003 1.419 . S
C1005 C1006 1.363 . S
C1005 H1008 0.929 . S
C1006 C1005 1.363 . S
C1006 C1012 1.428 . S
H1007 C1003 0.930 . S
H1008 C1005 0.929 . S
S1009 N1010 1.613 . S
S1009 N1011 1.610 . S
N1010 S1009 1.613 . S
N1010 C1013 1.350 . S
N1011 S1009 1.610 . S
N1011 C1012 1.351 . S
C1012 C1006 1.428 . S
C1012 N1011 1.351 . S
C1012 C1013 1.434 . S
C1013 C1004 1.429 . S
C1013 N1010 1.350 . S
C1013 C1012 1.434 . S
C1014 C1015 1.369 . S
C1014 C1016 1.419 . S
C1014 H1018 0.930 . S
C1015 C1014 1.369 . S
C1015 C1024 1.429 . S
C1016 C1014 1.419 . S
C1016 C1017 1.363 . S
C1016 H1019 0.929 . S
C1017 C1016 1.363 . S
C1017 C1023 1.428 . S
H1018 C1014 0.930 . S
H1019 C1016 0.929 . S
S1020 N1021 1.613 . S
S1020 N1022 1.610 . S
N1021 S1020 1.613 . S
N1021 C1024 1.350 . S
N1022 S1020 1.610 . S
N1022 C1023 1.351 . S
C1023 C1017 1.428 . S
C1023 N1022 1.351 . S
C1023 C1024 1.434 . S
C1024 C1015 1.429 . S
C1024 N1021 1.350 . S
C1024 C1023 1.434 . S
C1025 C1026 1.369 . S
C1025 C1027 1.419 . S
C1025 H1029 0.930 . S
C1026 C1025 1.369 . S
C1026 C1035 1.429 . S
C1027 C1025 1.419 . S
C1027 C1028 1.363 . S
C1027 H1030 0.929 . S
C1028 C1027 1.363 . S
C1028 C1034 1.428 . S
H1029 C1025 0.930 . S
H1030 C1027 0.929 . S
S1031 N1032 1.613 . S
S1031 N1033 1.610 . S
N1032 S1031 1.613 . S
N1032 C1035 1.350 . S
N1033 S1031 1.610 . S
N1033 C1034 1.351 . S
C1034 C1028 1.428 . S
C1034 N1033 1.351 . S
C1034 C1035 1.434 . S
C1035 C1026 1.429 . S
C1035 N1032 1.350 . S
C1035 C1034 1.434 . S
C1036 C1037 1.369 . S
C1036 C1038 1.419 . S
C1036 H1040 0.930 . S
C1037 C1036 1.369 . S
C1037 C1046 1.429 . S
C1038 C1036 1.419 . S
C1038 C1039 1.363 . S
C1038 H1041 0.929 . S
C1039 C1038 1.363 . S
C1039 C1045 1.428 . S
H1040 C1036 0.930 . S
H1041 C1038 0.929 . S
S1042 N1043 1.613 . S
S1042 N1044 1.610 . S
N1043 S1042 1.613 . S
N1043 C1046 1.350 . S
N1044 S1042 1.610 . S
N1044 C1045 1.351 . S
C1045 C1039 1.428 . S
C1045 N1044 1.351 . S
C1045 C1046 1.434 . S
C1046 C1037 1.429 . S
C1046 N1043 1.350 . S
C1046 C1045 1.434 . S
C1047 C1048 1.369 . S
C1047 C1049 1.419 . S
C1047 H1051 0.930 . S
C1048 C1047 1.369 . S
C1048 C1057 1.429 . S
C1049 C1047 1.419 . S
C1049 C1050 1.363 . S
C1049 H1052 0.929 . S
C1050 C1049 1.363 . S
C1050 C1056 1.428 . S
H1051 C1047 0.930 . S
H1052 C1049 0.929 . S
S1053 N1054 1.613 . S
S1053 N1055 1.610 . S
N1054 S1053 1.613 . S
N1054 C1057 1.350 . S
N1055 S1053 1.610 . S
N1055 C1056 1.351 . S
C1056 C1050 1.428 . S
C1056 N1055 1.351 . S
C1056 C1057 1.434 . S
C1057 C1048 1.429 . S
C1057 N1054 1.350 . S
C1057 C1056 1.434 . S
C1058 C1059 1.369 . S
C1058 C1060 1.419 . S
C1058 H1062 0.930 . S
C1059 C1058 1.369 . S
C1059 C1068 1.429 . S
C1060 C1058 1.419 . S
C1060 C1061 1.363 . S
C1060 H1063 0.929 . S
C1061 C1060 1.363 . S
C1061 C1067 1.428 . S
H1062 C1058 0.930 . S
H1063 C1060 0.929 . S
S1064 N1065 1.613 . S
S1064 N1066 1.610 . S
N1065 S1064 1.613 . S
N1065 C1068 1.350 . S
N1066 S1064 1.610 . S
N1066 C1067 1.351 . S
C1067 C1061 1.428 . S
C1067 N1066 1.351 . S
C1067 C1068 1.434 . S
C1068 C1059 1.429 . S
C1068 N1065 1.350 . S
C1068 C1067 1.434 . S
C1069 C1070 1.369 . S
C1069 C1071 1.419 . S
C1069 H1073 0.930 . S
C1070 C1069 1.369 . S
C1070 C1079 1.429 . S
C1071 C1069 1.419 . S
C1071 C1072 1.363 . S
C1071 H1074 0.929 . S
C1072 C1071 1.363 . S
C1072 C1078 1.428 . S
H1073 C1069 0.930 . S
H1074 C1071 0.929 . S
S1075 N1076 1.613 . S
S1075 N1077 1.610 . S
N1076 S1075 1.613 . S
N1076 C1079 1.350 . S
N1077 S1075 1.610 . S
N1077 C1078 1.351 . S
C1078 C1072 1.428 . S
C1078 N1077 1.351 . S
C1078 C1079 1.434 . S
C1079 C1070 1.429 . S
C1079 N1076 1.350 . S
C1079 C1078 1.434 . S
C1080 C1081 1.369 . S
C1080 C1082 1.419 . S
C1080 H1084 0.930 . S
C1081 C1080 1.369 . S
C1081 C1090 1.429 . S
C1082 C1080 1.419 . S
C1082 C1083 1.363 . S
C1082 H1085 0.929 . S
C1083 C1082 1.363 . S
C1083 C1089 1.428 . S
H1084 C1080 0.930 . S
H1085 C1082 0.929 . S
S1086 N1087 1.613 . S
S1086 N1088 1.610 . S
N1087 S1086 1.613 . S
N1087 C1090 1.350 . S
N1088 S1086 1.610 . S
N1088 C1089 1.351 . S
C1089 C1083 1.428 . S
C1089 N1088 1.351 . S
C1089 C1090 1.434 . S
C1090 C1081 1.429 . S
C1090 N1087 1.350 . S
C1090 C1089 1.434 . S
C1091 C1092 1.369 . S
C1091 C1093 1.419 . S
C1091 H1095 0.930 . S
C1092 C1091 1.369 . S
C1092 C1101 1.429 . S
C1093 C1091 1.419 . S
C1093 C1094 1.363 . S
C1093 H1096 0.929 . S
C1094 C1093 1.363 . S
C1094 C1100 1.428 . S
H1095 C1091 0.930 . S
H1096 C1093 0.929 . S
S1097 N1098 1.613 . S
S1097 N1099 1.610 . S
N1098 S1097 1.613 . S
N1098 C1101 1.350 . S
N1099 S1097 1.610 . S
N1099 C1100 1.351 . S
C1100 C1094 1.428 . S
C1100 N1099 1.351 . S
C1100 C1101 1.434 . S
C1101 C1092 1.429 . S
C1101 N1098 1.350 . S
C1101 C1100 1.434 . S
C1102 C1103 1.369 . S
C1102 C1104 1.419 . S
C1102 H1106 0.930 . S
C1103 C1102 1.369 . S
C1103 C1112 1.429 . S
C1104 C1102 1.419 . S
C1104 C1105 1.363 . S
C1104 H1107 0.929 . S
C1105 C1104 1.363 . S
C1105 C1111 1.428 . S
H1106 C1102 0.930 . S
H1107 C1104 0.929 . S
S1108 N1109 1.613 . S
S1108 N1110 1.610 . S
N1109 S1108 1.613 . S
N1109 C1112 1.350 . S
N1110 S1108 1.610 . S
N1110 C1111 1.351 . S
C1111 C1105 1.428 . S
C1111 N1110 1.351 . S
C1111 C1112 1.434 . S
C1112 C1103 1.429 . S
C1112 N1109 1.350 . S
C1112 C1111 1.434 . S
C1113 C1114 1.369 . S
C1113 C1115 1.419 . S
C1113 H1117 0.930 . S
C1114 C1113 1.369 . S
C1114 C1123 1.429 . S
C1115 C1113 1.419 . S
C1115 C1116 1.363 . S
C1115 H1118 0.929 . S
C1116 C1115 1.363 . S
C1116 C1122 1.428 . S
H1117 C1113 0.930 . S
H1118 C1115 0.929 . S
S1119 N1120 1.613 . S
S1119 N1121 1.610 . S
N1120 S1119 1.613 . S
N1120 C1123 1.350 . S
N1121 S1119 1.610 . S
N1121 C1122 1.351 . S
C1122 C1116 1.428 . S
C1122 N1121 1.351 . S
C1122 C1123 1.434 . S
C1123 C1114 1.429 . S
C1123 N1120 1.350 . S
C1123 C1122 1.434 . S
C1124 C1125 1.369 . S
C1124 C1126 1.419 . S
C1124 H1128 0.930 . S
C1125 C1124 1.369 . S
C1125 C1134 1.429 . S
C1126 C1124 1.419 . S
C1126 C1127 1.363 . S
C1126 H1129 0.929 . S
C1127 C1126 1.363 . S
C1127 C1133 1.428 . S
H1128 C1124 0.930 . S
H1129 C1126 0.929 . S
S1130 N1131 1.613 . S
S1130 N1132 1.610 . S
N1131 S1130 1.613 . S
N1131 C1134 1.350 . S
N1132 S1130 1.610 . S
N1132 C1133 1.351 . S
C1133 C1127 1.428 . S
C1133 N1132 1.351 . S
C1133 C1134 1.434 . S
C1134 C1125 1.429 . S
C1134 N1131 1.350 . S
C1134 C1133 1.434 . S
C1135 C1136 1.369 . S
C1135 C1137 1.419 . S
C1135 H1139 0.930 . S
C1136 C1135 1.369 . S
C1136 C1145 1.429 . S
C1137 C1135 1.419 . S
C1137 C1138 1.363 . S
C1137 H1140 0.929 . S
C1138 C1137 1.363 . S
C1138 C1144 1.428 . S
H1139 C1135 0.930 . S
H1140 C1137 0.929 . S
S1141 N1142 1.613 . S
S1141 N1143 1.610 . S
N1142 S1141 1.613 . S
N1142 C1145 1.350 . S
N1143 S1141 1.610 . S
N1143 C1144 1.351 . S
C1144 C1138 1.428 . S
C1144 N1143 1.351 . S
C1144 C1145 1.434 . S
C1145 C1136 1.429 . S
C1145 N1142 1.350 . S
C1145 C1144 1.434 . S
C1146 C1147 1.369 . S
C1146 C1148 1.419 . S
C1146 H1150 0.930 . S
C1147 C1146 1.369 . S
C1147 C1156 1.429 . S
C1148 C1146 1.419 . S
C1148 C1149 1.363 . S
C1148 H1151 0.929 . S
C1149 C1148 1.363 . S
C1149 C1155 1.428 . S
H1150 C1146 0.930 . S
H1151 C1148 0.929 . S
S1152 N1153 1.613 . S
S1152 N1154 1.610 . S
N1153 S1152 1.613 . S
N1153 C1156 1.350 . S
N1154 S1152 1.610 . S
N1154 C1155 1.351 . S
C1155 C1149 1.428 . S
C1155 N1154 1.351 . S
C1155 C1156 1.434 . S
C1156 C1147 1.429 . S
C1156 N1153 1.350 . S
C1156 C1155 1.434 . S
C1157 C1158 1.369 . S
C1157 C1159 1.419 . S
C1157 H1161 0.930 . S
C1158 C1157 1.369 . S
C1158 C1167 1.429 . S
C1159 C1157 1.419 . S
C1159 C1160 1.363 . S
C1159 H1162 0.929 . S
C1160 C1159 1.363 . S
C1160 C1166 1.428 . S
H1161 C1157 0.930 . S
H1162 C1159 0.929 . S
S1163 N1164 1.613 . S
S1163 N1165 1.610 . S
N1164 S1163 1.613 . S
N1164 C1167 1.350 . S
N1165 S1163 1.610 . S
N1165 C1166 1.351 . S
C1166 C1160 1.428 . S
C1166 N1165 1.351 . S
C1166 C1167 1.434 . S
C1167 C1158 1.429 . S
C1167 N1164 1.350 . S
C1167 C1166 1.434 . S
C1168 C1169 1.369 . S
C1168 C1170 1.419 . S
C1168 H1172 0.930 . S
C1169 C1168 1.369 . S
C1169 C1178 1.429 . S
C1170 C1168 1.419 . S
C1170 C1171 1.363 . S
C1170 H1173 0.929 . S
C1171 C1170 1.363 . S
C1171 C1177 1.428 . S
H1172 C1168 0.930 . S
H1173 C1170 0.929 . S
S1174 N1175 1.613 . S
S1174 N1176 1.610 . S
N1175 S1174 1.613 . S
N1175 C1178 1.350 . S
N1176 S1174 1.610 . S
N1176 C1177 1.351 . S
C1177 C1171 1.428 . S
C1177 N1176 1.351 . S
C1177 C1178 1.434 . S
C1178 C1169 1.429 . S
C1178 N1175 1.350 . S
C1178 C1177 1.434 . S
C1179 C1180 1.369 . S
C1179 C1181 1.419 . S
C1179 H1183 0.930 . S
C1180 C1179 1.369 . S
C1180 C1189 1.429 . S
C1181 C1179 1.419 . S
C1181 C1182 1.363 . S
C1181 H1184 0.929 . S
C1182 C1181 1.363 . S
C1182 C1188 1.428 . S
H1183 C1179 0.930 . S
H1184 C1181 0.929 . S
S1185 N1186 1.613 . S
S1185 N1187 1.610 . S
N1186 S1185 1.613 . S
N1186 C1189 1.350 . S
N1187 S1185 1.610 . S
N1187 C1188 1.351 . S
C1188 C1182 1.428 . S
C1188 N1187 1.351 . S
C1188 C1189 1.434 . S
C1189 C1180 1.429 . S
C1189 N1186 1.350 . S
C1189 C1188 1.434 . S
C1190 C1191 1.369 . S
C1190 C1192 1.419 . S
C1190 H1194 0.930 . S
C1191 C1190 1.369 . S
C1191 C1200 1.429 . S
C1192 C1190 1.419 . S
C1192 C1193 1.363 . S
C1192 H1195 0.929 . S
C1193 C1192 1.363 . S
C1193 C1199 1.428 . S
H1194 C1190 0.930 . S
H1195 C1192 0.929 . S
S1196 N1197 1.613 . S
S1196 N1198 1.610 . S
N1197 S1196 1.613 . S
N1197 C1200 1.350 . S
N1198 S1196 1.610 . S
N1198 C1199 1.351 . S
C1199 C1193 1.428 . S
C1199 N1198 1.351 . S
C1199 C1200 1.434 . S
C1200 C1191 1.429 . S
C1200 N1197 1.350 . S
C1200 C1199 1.434 . S
C1201 C1202 1.369 . S
C1201 C1203 1.419 . S
C1201 H1205 0.930 . S
C1202 C1201 1.369 . S
C1202 C1211 1.429 . S
C1203 C1201 1.419 . S
C1203 C1204 1.363 . S
C1203 H1206 0.929 . S
C1204 C1203 1.363 . S
C1204 C1210 1.428 . S
H1205 C1201 0.930 . S
H1206 C1203 0.929 . S
S1207 N1208 1.613 . S
S1207 N1209 1.610 . S
N1208 S1207 1.613 . S
N1208 C1211 1.350 . S
N1209 S1207 1.610 . S
N1209 C1210 1.351 . S
C1210 C1204 1.428 . S
C1210 N1209 1.351 . S
C1210 C1211 1.434 . S
C1211 C1202 1.429 . S
C1211 N1208 1.350 . S
C1211 C1210 1.434 . S
C1212 C1213 1.369 . S
C1212 C1214 1.419 . S
C1212 H1216 0.930 . S
C1213 C1212 1.369 . S
C1213 C1222 1.429 . S
C1214 C1212 1.419 . S
C1214 C1215 1.363 . S
C1214 H1217 0.929 . S
C1215 C1214 1.363 . S
C1215 C1221 1.428 . S
H1216 C1212 0.930 . S
H1217 C1214 0.929 . S
S1218 N1219 1.613 . S
S1218 N1220 1.610 . S
N1219 S1218 1.613 . S
N1219 C1222 1.350 . S
N1220 S1218 1.610 . S
N1220 C1221 1.351 . S
C1221 C1215 1.428 . S
C1221 N1220 1.351 . S
C1221 C1222 1.434 . S
C1222 C1213 1.429 . S
C1222 N1219 1.350 . S
C1222 C1221 1.434 . S
C1223 C1224 1.369 . S
C1223 C1225 1.419 . S
C1223 H1227 0.930 . S
C1224 C1223 1.369 . S
C1224 C1233 1.429 . S
C1225 C1223 1.419 . S
C1225 C1226 1.363 . S
C1225 H1228 0.929 . S
C1226 C1225 1.363 . S
C1226 C1232 1.428 . S
H1227 C1223 0.930 . S
H1228 C1225 0.929 . S
S1229 N1230 1.613 . S
S1229 N1231 1.610 . S
N1230 S1229 1.613 . S
N1230 C1233 1.350 . S
N1231 S1229 1.610 . S
N1231 C1232 1.351 . S
C1232 C1226 1.428 . S
C1232 N1231 1.351 . S
C1232 C1233 1.434 . S
C1233 C1224 1.429 . S
C1233 N1230 1.350 . S
C1233 C1232 1.434 . S
C1234 C1235 1.369 . S
C1234 C1236 1.419 . S
C1234 H1238 0.930 . S
C1235 C1234 1.369 . S
C1235 C1244 1.429 . S
C1236 C1234 1.419 . S
C1236 C1237 1.363 . S
C1236 H1239 0.929 . S
C1237 C1236 1.363 . S
C1237 C1243 1.428 . S
H1238 C1234 0.930 . S
H1239 C1236 0.929 . S
S1240 N1241 1.613 . S
S1240 N1242 1.610 . S
N1241 S1240 1.613 . S
N1241 C1244 1.350 . S
N1242 S1240 1.610 . S
N1242 C1243 1.351 . S
C1243 C1237 1.428 . S
C1243 N1242 1.351 . S
C1243 C1244 1.434 . S
C1244 C1235 1.429 . S
C1244 N1241 1.350 . S
C1244 C1243 1.434 . S
C1245 C1246 1.369 . S
C1245 C1247 1.419 . S
C1245 H1249 0.930 . S
C1246 C1245 1.369 . S
C1246 C1255 1.429 . S
C1247 C1245 1.419 . S
C1247 C1248 1.363 . S
C1247 H1250 0.929 . S
C1248 C1247 1.363 . S
C1248 C1254 1.428 . S
H1249 C1245 0.930 . S
H1250 C1247 0.929 . S
S1251 N1252 1.613 . S
S1251 N1253 1.610 . S
N1252 S1251 1.613 . S
N1252 C1255 1.350 . S
N1253 S1251 1.610 . S
N1253 C1254 1.351 . S
C1254 C1248 1.428 . S
C1254 N1253 1.351 . S
C1254 C1255 1.434 . S
C1255 C1246 1.429 . S
C1255 N1252 1.350 . S
C1255 C1254 1.434 . S
C1256 C1257 1.369 . S
C1256 C1258 1.419 . S
C1256 H1260 0.930 . S
C1257 C1256 1.369 . S
C1257 C1266 1.429 . S
C1258 C1256 1.419 . S
C1258 C1259 1.363 . S
C1258 H1261 0.929 . S
C1259 C1258 1.363 . S
C1259 C1265 1.428 . S
H1260 C1256 0.930 . S
H1261 C1258 0.929 . S
S1262 N1263 1.613 . S
S1262 N1264 1.610 . S
N1263 S1262 1.613 . S
N1263 C1266 1.350 . S
N1264 S1262 1.610 . S
N1264 C1265 1.351 . S
C1265 C1259 1.428 . S
C1265 N1264 1.351 . S
C1265 C1266 1.434 . S
C1266 C1257 1.429 . S
C1266 N1263 1.350 . S
C1266 C1265 1.434 . S
C1267 C1268 1.369 . S
C1267 C1269 1.419 . S
C1267 H1271 0.930 . S
C1268 C1267 1.369 . S
C1268 C1277 1.429 . S
C1269 C1267 1.419 . S
C1269 C1270 1.363 . S
C1269 H1272 0.929 . S
C1270 C1269 1.363 . S
C1270 C1276 1.428 . S
H1271 C1267 0.930 . S
H1272 C1269 0.929 . S
S1273 N1274 1.613 . S
S1273 N1275 1.610 . S
N1274 S1273 1.613 . S
N1274 C1277 1.350 . S
N1275 S1273 1.610 . S
N1275 C1276 1.351 . S
C1276 C1270 1.428 . S
C1276 N1275 1.351 . S
C1276 C1277 1.434 . S
C1277 C1268 1.429 . S
C1277 N1274 1.350 . S
C1277 C1276 1.434 . S
C487 C34 1.373 . S
C489 C238 1.232 . S
C498 C8 1.382 . S
C500 C254 1.244 . S
C511 C237 1.214 . S
C509 C18 1.330 . S
C522 C262 1.187 . S
C520 C31 1.311 . S
C531 C5 1.352 . S
C533 C271 1.232 . S
C544 C274 1.239 . S
C542 C21 1.371 . S
C553 C73 1.373 . S
C555 C280 1.232 . S
C566 C296 1.247 . S
C564 C47 1.387 . S
C577 C279 1.214 . S
C575 C57 1.319 . S
C586 C70 1.323 . S
C588 C304 1.188 . S
C599 C313 1.240 . S
C597 C44 1.339 . S
C610 C316 1.225 . S
C608 C60 1.369 . S
C621 C325 1.232 . S
C619 C112 1.373 . S
C632 C337 1.237 . S
C630 C86 1.379 . S
C643 C334 1.223 . S
C641 C96 1.318 . S
C652 C109 1.311 . S
C654 C343 1.197 . S
C665 C342 1.241 . S
C663 C83 1.350 . S
C674 C99 1.375 . S
C676 C359 1.238 . S
C687 C364 1.233 . S
C685 C151 1.372 . S
C698 C380 1.243 . S
C696 C125 1.375 . S
C707 C135 1.324 . S
C709 C363 1.210 . S
C720 C388 1.184 . S
C718 C148 1.320 . S
C731 C397 1.240 . S
C729 C122 1.339 . S
C740 C138 1.371 . S
C742 C400 1.239 . S
C751 C190 1.372 . S
C753 C409 1.226 . S
C764 C421 1.248 . S
C762 C164 1.387 . S
C775 C418 1.212 . S
C773 C174 1.329 . S
C784 C187 1.316 . S
C786 C427 1.183 . S
C797 C426 1.238 . S
C795 C161 1.352 . S
C806 C177 1.375 . S
C808 C443 1.235 . S
C819 C448 1.226 . S
C817 C229 1.372 . S
C830 C464 1.241 . S
C828 C203 1.375 . S
C839 C213 1.323 . S
C841 C447 1.210 . S
C852 C469 1.184 . S
C850 C226 1.320 . S
C863 C468 1.242 . S
C861 C200 1.340 . S
C874 C485 1.238 . S
C872 C216 1.375 . S
C885 C250 1.386 . S
C883 C143 1.475 . S
C894 C117 1.495 . S
C896 C253 1.393 . S
C907 C241 1.355 . S
C905 C140 1.454 . S
C916 C231 1.491 . S
C918 C258 1.405 . S
C927 C205 1.507 . S
C929 C259 1.410 . S
C940 C275 1.419 . S
C938 C208 1.503 . S
C951 C292 1.393 1_565 S
C949 C182 1.476 . S
C962 C295 1.396 . S
C960 C156 1.495 . S
C971 C179 1.455 . S
C973 C283 1.349 . S
C984 C300 1.411 . S
C982 C114 1.488 . S
C993 C88 1.510 . S
C995 C301 1.401 . S
C1004 C91 1.503 . S
C1006 C317 1.428 . S
C1015 C221 1.472 . S
C1017 C321 1.392 . S
C1026 C195 1.493 . S
C1028 C338 1.390 . S
C1039 C322 1.351 . S
C1037 C218 1.458 . S
C1050 C355 1.404 . S
C1048 C75 1.491 . S
C1061 C346 1.410 . S
C1059 C49 1.507 . S
C1070 C52 1.503 . S
C1072 C358 1.419 . S
C1083 C376 1.384 . S
C1081 C26 1.472 . S
C1094 C379 1.400 . S
C1092 C0 1.493 . S
C1103 C23 1.459 . S
C1105 C367 1.348 . S
C1116 C384 1.412 . S
C1114 C192 1.489 . S
C1127 C385 1.401 . S
C1125 C166 1.510 . S
C1138 C401 1.419 . S
C1136 C169 1.502 . S
C1149 C405 1.385 . S
C1147 C65 1.474 . S
C1160 C422 1.391 . S
C1158 C39 1.494 . S
C1169 C62 1.458 . S
C1171 C406 1.354 . S
C1180 C153 1.488 . S
C1182 C439 1.411 . S
C1191 C127 1.509 . S
C1193 C430 1.403 . S
C1204 C442 1.420 . S
C1202 C130 1.504 . S
C1213 C104 1.474 . S
C1215 C460 1.385 . S
C1224 C78 1.495 . S
C1226 C463 1.394 . S
C1237 C451 1.352 . S
C1235 C101 1.458 . S
C1248 C481 1.411 . S
C1246 C36 1.488 . S
C1259 C472 1.411 . S
C1257 C10 1.508 . S
C1268 C13 1.501 . S
C1270 C484 1.423 . S
