# Generated by pormake.
# Topology wbl, (4,4)-cn, num edge types: 1
# Building blocks:
#     Node 0, Type 0, BuildingBlock: MUDLON_clean_sbu_0, # of connection points: 4
#     Node 1, Type 0, BuildingBlock: MUDLON_clean_sbu_0, # of connection points: 4
#     Node 2, Type 0, BuildingBlock: MUDLON_clean_sbu_0, # of connection points: 4
#     Node 3, Type 0, BuildingBlock: MUDLON_clean_sbu_0, # of connection points: 4
#     Node 4, Type 0, BuildingBlock: MUDLON_clean_sbu_0, # of connection points: 4
#     Node 5, Type 0, BuildingBlock: MUDLON_clean_sbu_0, # of connection points: 4
#     Node 6, Type 0, BuildingBlock: MUDLON_clean_sbu_0, # of connection points: 4
#     Node 7, Type 0, BuildingBlock: MUDLON_clean_sbu_0, # of connection points: 4
#     Node 8, Type 1, BuildingBlock: QUQFOY_clean_sbu_3, # of connection points: 4
#     Node 9, Type 1, BuildingBlock: QUQFOY_clean_sbu_3, # of connection points: 4
#     Node 10, Type 1, BuildingBlock: QUQFOY_clean_sbu_3, # of connection points: 4
#     Node 11, Type 1, BuildingBlock: QUQFOY_clean_sbu_3, # of connection points: 4
#     Node 12, Type 1, BuildingBlock: QUQFOY_clean_sbu_3, # of connection points: 4
#     Node 13, Type 1, BuildingBlock: QUQFOY_clean_sbu_3, # of connection points: 4
#     Node 14, Type 1, BuildingBlock: QUQFOY_clean_sbu_3, # of connection points: 4
#     Node 15, Type 1, BuildingBlock: QUQFOY_clean_sbu_3, # of connection points: 4
#     Edge 16, Type (0, 1), BuildingBlock: MIFKUJ_clean_linker_0, # of connection points: 2
#     Edge 17, Type (0, 1), BuildingBlock: MIFKUJ_clean_linker_0, # of connection points: 2
#     Edge 18, Type (0, 1), BuildingBlock: MIFKUJ_clean_linker_0, # of connection points: 2
#     Edge 19, Type (0, 1), BuildingBlock: MIFKUJ_clean_linker_0, # of connection points: 2
#     Edge 20, Type (0, 1), BuildingBlock: MIFKUJ_clean_linker_0, # of connection points: 2
#     Edge 21, Type (0, 1), BuildingBlock: MIFKUJ_clean_linker_0, # of connection points: 2
#     Edge 22, Type (0, 1), BuildingBlock: MIFKUJ_clean_linker_0, # of connection points: 2
#     Edge 23, Type (0, 1), BuildingBlock: MIFKUJ_clean_linker_0, # of connection points: 2
#     Edge 24, Type (0, 1), BuildingBlock: MIFKUJ_clean_linker_0, # of connection points: 2
#     Edge 25, Type (0, 1), BuildingBlock: MIFKUJ_clean_linker_0, # of connection points: 2
#     Edge 26, Type (0, 1), BuildingBlock: MIFKUJ_clean_linker_0, # of connection points: 2
#     Edge 27, Type (0, 1), BuildingBlock: MIFKUJ_clean_linker_0, # of connection points: 2
#     Edge 28, Type (0, 1), BuildingBlock: MIFKUJ_clean_linker_0, # of connection points: 2
#     Edge 29, Type (0, 1), BuildingBlock: MIFKUJ_clean_linker_0, # of connection points: 2
#     Edge 30, Type (0, 1), BuildingBlock: MIFKUJ_clean_linker_0, # of connection points: 2
#     Edge 31, Type (0, 1), BuildingBlock: MIFKUJ_clean_linker_0, # of connection points: 2
#     Edge 32, Type (0, 1), BuildingBlock: MIFKUJ_clean_linker_0, # of connection points: 2
#     Edge 33, Type (0, 1), BuildingBlock: MIFKUJ_clean_linker_0, # of connection points: 2
#     Edge 34, Type (0, 1), BuildingBlock: MIFKUJ_clean_linker_0, # of connection points: 2
#     Edge 35, Type (0, 1), BuildingBlock: MIFKUJ_clean_linker_0, # of connection points: 2
#     Edge 36, Type (0, 1), BuildingBlock: MIFKUJ_clean_linker_0, # of connection points: 2
#     Edge 37, Type (0, 1), BuildingBlock: MIFKUJ_clean_linker_0, # of connection points: 2
#     Edge 38, Type (0, 1), BuildingBlock: MIFKUJ_clean_linker_0, # of connection points: 2
#     Edge 39, Type (0, 1), BuildingBlock: MIFKUJ_clean_linker_0, # of connection points: 2
#     Edge 40, Type (0, 1), BuildingBlock: MIFKUJ_clean_linker_0, # of connection points: 2
#     Edge 41, Type (0, 1), BuildingBlock: MIFKUJ_clean_linker_0, # of connection points: 2
#     Edge 42, Type (0, 1), BuildingBlock: MIFKUJ_clean_linker_0, # of connection points: 2
#     Edge 43, Type (0, 1), BuildingBlock: MIFKUJ_clean_linker_0, # of connection points: 2
#     Edge 44, Type (0, 1), BuildingBlock: MIFKUJ_clean_linker_0, # of connection points: 2
#     Edge 45, Type (0, 1), BuildingBlock: MIFKUJ_clean_linker_0, # of connection points: 2
#     Edge 46, Type (0, 1), BuildingBlock: MIFKUJ_clean_linker_0, # of connection points: 2
#     Edge 47, Type (0, 1), BuildingBlock: MIFKUJ_clean_linker_0, # of connection points: 2
# Relax obj value: 0.237
# Max RMSD: 0.221
# Mean RMSD: 0.172
data_MOF--net-wbl--node1-MUDLON_clean_sbu_0--node2-QUQFOY_clean_sbu_3--edge1-MIFKUJ_clean_linker_0
_symmetry_space_group_name_H-M    P1
_symmetry_Int_Tables_number       1
_symmetry_cell_setting            triclinic
loop_
_symmetry_equiv_pos_as_xyz
'x, y, z'
_cell_length_a     44.8957
_cell_length_b     45.515519
_cell_length_c     98.409503
_cell_angle_alpha  90.570426
_cell_angle_beta   90.187589
_cell_angle_gamma 89.88482
loop_
_atom_site_label
_atom_site_type_symbol
_atom_site_fract_x
_atom_site_fract_y
_atom_site_fract_z
_atom_type_partial_charge
Mg0 Mg 0.99688 0.00015 0.3442 0.0
C1 C 0.99406 0.95342 0.36601 0.0
O2 O 0.97448 0.97156 0.37137 0.0
C3 C 0.95745 0.01706 0.32041 0.0
O4 O 0.98248 0.01452 0.31367 0.0
C5 C 0.03596 0.98149 0.32218 0.0
O6 O 0.01384 0.96264 0.32161 0.0
O7 O 0.03522 0.00209 0.331 0.0
O8 O 0.00329 0.95812 0.35405 0.0
O9 O 0.99542 0.03375 0.36015 0.0
C10 C 0.96935 0.03753 0.36492 0.0
O11 O 0.94733 0.02205 0.35973 0.0
O12 O 0.9564 0.00859 0.33267 0.0
Mg13 Mg 0.16323 0.48755 0.59456 0.0
C14 C 0.23309 0.49325 0.609 0.0
O15 O 0.25365 0.47436 0.6052 0.0
C16 C 0.14668 0.44927 0.56992 0.0
O17 O 0.15229 0.47336 0.5632 0.0
C18 C 0.18168 0.52704 0.5733 0.0
O19 O 0.20136 0.50566 0.57274 0.0
O20 O 0.16068 0.52581 0.58191 0.0
O21 O 0.2073 0.49122 0.6037 0.0
O22 O 0.13072 0.48516 0.6107 0.0
C23 C 0.14041 0.47336 0.62149 0.0
O24 O 0.16869 0.46615 0.6223 0.0
O25 O 0.1527 0.4483 0.58256 0.0
Mg26 Mg 0.67314 0.64549 0.846 0.0
C27 C 0.65105 0.70541 0.85469 0.0
O28 O 0.63556 0.70274 0.8434 0.0
C29 C 0.7314 0.62406 0.83488 0.0
O30 O 0.73638 0.62008 0.84789 0.0
C31 C 0.63065 0.6446 0.82264 0.0
O32 O 0.65603 0.64443 0.81604 0.0
O33 O 0.63095 0.64291 0.83551 0.0
O34 O 0.67192 0.68715 0.85696 0.0
O35 O 0.67746 0.6117 0.86133 0.0
C36 C 0.68943 0.62003 0.87243 0.0
O37 O 0.69748 0.64761 0.87382 0.0
O38 O 0.708 0.63765 0.83127 0.0
Mg39 Mg 0.52062 0.15159 0.09674 0.0
C40 C 0.54536 0.15619 0.1253 0.0
O41 O 0.51684 0.15658 0.12819 0.0
C42 C 0.52496 0.11529 0.07045 0.0
O43 O 0.52775 0.14078 0.06447 0.0
C44 C 0.55995 0.1881 0.083 0.0
O45 O 0.57424 0.16509 0.08769 0.0
O46 O 0.53195 0.18989 0.0849 0.0
O47 O 0.5535 0.15257 0.11304 0.0
O48 O 0.47793 0.1432 0.10644 0.0
C49 C 0.4797 0.11681 0.11059 0.0
O50 O 0.50444 0.10219 0.1082 0.0
O51 O 0.52452 0.11396 0.08332 0.0
Mg52 Mg 0.17797 0.50237 0.9179 0.0
C53 C 0.16528 0.54945 0.89567 0.0
O54 O 0.137 0.54769 0.89894 0.0
C55 C 0.14045 0.50396 0.94307 0.0
O56 O 0.16619 0.49796 0.94879 0.0
C57 C 0.21811 0.53725 0.93275 0.0
O58 O 0.19838 0.55435 0.92691 0.0
O59 O 0.21616 0.50957 0.93103 0.0
O60 O 0.18435 0.53361 0.90174 0.0
O61 O 0.16775 0.46094 0.90766 0.0
C62 C 0.14051 0.46195 0.90399 0.0
O63 O 0.12507 0.4857 0.90688 0.0
O64 O 0.13945 0.51007 0.93051 0.0
Mg65 Mg 0.66738 0.66332 0.16864 0.0
C66 C 0.60656 0.67703 0.15578 0.0
O67 O 0.60343 0.69455 0.16637 0.0
C68 C 0.65579 0.60626 0.18477 0.0
O69 O 0.62837 0.60805 0.18014 0.0
C70 C 0.64685 0.69514 0.19256 0.0
O71 O 0.6482 0.66772 0.19649 0.0
O72 O 0.6585 0.70183 0.18125 0.0
O73 O 0.62913 0.66017 0.15509 0.0
O74 O 0.70456 0.65997 0.15462 0.0
C75 C 0.69887 0.6369 0.14766 0.0
O76 O 0.67452 0.62217 0.1504 0.0
O77 O 0.67471 0.62556 0.18145 0.0
Mg78 Mg 0.50044 0.14466 0.41802 0.0
C79 C 0.51571 0.2059 0.40816 0.0
O80 O 0.52912 0.20789 0.42 0.0
C81 C 0.46887 0.1155 0.4402 0.0
O82 O 0.49688 0.10904 0.44267 0.0
C83 C 0.53837 0.16243 0.44125 0.0
O84 O 0.5123 0.17327 0.44473 0.0
O85 O 0.54049 0.14768 0.43025 0.0
O86 O 0.49865 0.18416 0.40579 0.0
O87 O 0.50022 0.10993 0.40282 0.0
C88 C 0.47931 0.11452 0.39435 0.0
O89 O 0.46272 0.13812 0.39594 0.0
O90 O 0.46271 0.13286 0.43053 0.0
Mg91 Mg 0.00441 0.98392 0.66615 0.0
C92 C 0.06263 0.98815 0.64905 0.0
O93 O 0.0762 0.99579 0.66037 0.0
C94 C 0.01526 0.04699 0.67634 0.0
O95 O 0.02101 0.0524 0.66353 0.0
C96 C 0.04053 0.95144 0.68445 0.0
O97 O 0.05067 0.97844 0.68436 0.0
O98 O 0.01707 0.94538 0.67771 0.0
O99 O 0.03465 0.98401 0.64903 0.0
O100 O 0.96116 0.98741 0.65627 0.0
C101 C 0.94503 0.00956 0.65925 0.0
O102 O 0.9506 0.02404 0.67058 0.0
O103 O 0.00896 0.02101 0.67985 0.0
C104 C 0.50391 0.76454 0.02547 0.0
O105 O 0.52575 0.77236 0.0182 0.0
Cd106 Cd 0.52093 0.79177 0.99585 0.0
O107 O 0.47742 0.76525 0.02077 0.0
Cd108 Cd 0.45218 0.77657 -0.00122 0.0
C109 C 0.4706 0.84752 0.00249 0.0
O110 O 0.49075 0.75749 0.98389 0.0
O111 O 0.45755 0.78381 0.97395 0.0
O112 O 0.42422 0.73251 0.00367 0.0
C113 C 0.48042 0.76758 0.97291 0.0
O114 O 0.49649 0.83936 -0.00125 0.0
C115 C 0.39927 0.74217 -0.00042 0.0
O116 O 0.44996 0.82883 0.00432 0.0
O117 O 0.3985 0.7686 0.99554 0.0
C118 C 0.3951 0.97855 0.2257 0.0
O119 O 0.41812 0.98502 0.23261 0.0
Cd120 Cd 0.42791 0.96771 0.25499 0.0
O121 O 0.37527 0.96148 0.23039 0.0
Cd122 Cd 0.36741 0.93277 0.25146 0.0
C123 C 0.43026 0.89414 0.24664 0.0
O124 O 0.38282 0.97069 0.26754 0.0
O125 O 0.3792 0.92704 0.27567 0.0
O126 O 0.31644 0.94778 0.2479 0.0
C127 C 0.38317 0.95423 0.27784 0.0
O128 O 0.44302 0.91717 0.25122 0.0
C129 C 0.30463 0.924 0.25173 0.0
O130 O 0.40224 0.89378 0.24446 0.0
O131 O 0.32219 0.90312 0.25477 0.0
C132 C 0.17175 0.88464 0.47792 0.0
O133 O 0.16556 0.90608 0.48577 0.0
Cd134 Cd 0.1888 0.91596 0.507 0.0
O135 O 0.19066 0.86517 0.48142 0.0
Cd136 Cd 0.22009 0.85474 0.50251 0.0
C137 C 0.26257 0.91338 0.49692 0.0
O138 O 0.18316 0.87142 0.51886 0.0
O139 O 0.22734 0.86653 0.527 0.0
O140 O 0.20299 0.80484 0.4992 0.0
C141 C 0.19992 0.8712 0.5292 0.0
O142 O 0.24058 0.92768 0.5018 0.0
C143 C 0.22726 0.79259 0.50259 0.0
O144 O 0.26098 0.88574 0.49497 0.0
O145 O 0.24913 0.80939 0.50527 0.0
C146 C 0.28349 0.67034 0.77492 0.0
O147 O 0.29699 0.64993 0.76855 0.0
Cd148 Cd 0.31402 0.65404 0.74561 0.0
O149 O 0.27903 0.69516 0.76937 0.0
Cd150 Cd 0.29234 0.71865 0.74752 0.0
C151 C 0.36558 0.70655 0.75216 0.0
O152 O 0.27535 0.67817 0.73322 0.0
O153 O 0.30094 0.71092 0.72285 0.0
O154 O 0.24664 0.74622 0.75116 0.0
C155 C 0.28456 0.68831 0.72207 0.0
O156 O 0.36061 0.68096 0.74736 0.0
C157 C 0.25657 0.77038 0.74675 0.0
O158 O 0.34425 0.72429 0.75454 0.0
O159 O 0.28376 0.77089 0.74322 0.0
C160 C 0.88804 0.16718 0.49058 0.0
O161 O 0.87631 0.14646 0.49727 0.0
Cd162 Cd 0.85963 0.14828 0.52029 0.0
O163 O 0.89175 0.19258 0.49594 0.0
Cd164 Cd 0.88023 0.21719 0.51821 0.0
C165 C 0.8066 0.20143 0.51495 0.0
O166 O 0.89698 0.17591 0.53145 0.0
O167 O 0.87749 0.21073 0.54332 0.0
O168 O 0.92437 0.24625 0.51356 0.0
C169 C 0.89002 0.18578 0.54306 0.0
O170 O 0.81324 0.17548 0.51863 0.0
C171 C 0.91398 0.27023 0.51827 0.0
O172 O 0.82677 0.22059 0.513 0.0
O173 O 0.88728 0.26988 0.52249 0.0
C174 C 0.00098 0.37559 0.74216 0.0
O175 O 0.02163 0.36451 0.74936 0.0
Cd176 Cd 0.01592 0.33988 0.77048 0.0
O177 O 0.97407 0.37628 0.74628 0.0
Cd178 Cd 0.94563 0.36387 0.76723 0.0
C179 C 0.95917 0.29209 0.76059 0.0
O180 O 0.98612 0.37324 0.78246 0.0
O181 O 0.94787 0.35445 0.79219 0.0
O182 O 0.92611 0.41296 0.76548 0.0
C183 C 0.97417 0.3643 0.79324 0.0
O184 O 0.9856 0.29733 0.76471 0.0
C185 C 0.89898 0.40639 0.76731 0.0
O186 O 0.93986 0.31257 0.75956 0.0
O187 O 0.89287 0.37922 0.76845 0.0
C188 C 0.77225 0.48305 0.99416 0.0
O189 O 0.78066 0.50446 0.00158 0.0
Cd190 Cd 0.80856 0.49856 0.02194 0.0
O191 O 0.77694 0.45667 -0.00218 0.0
Cd192 Cd 0.79693 0.4307 0.018 0.0
C193 C 0.86482 0.45334 0.00966 0.0
O194 O 0.78002 0.46543 0.03492 0.0
O195 O 0.81484 0.43653 0.0418 0.0
O196 O 0.75156 0.40332 0.01497 0.0
C197 C 0.79564 0.45606 0.04468 0.0
O198 O 0.8565 0.47774 0.01488 0.0
C199 C 0.76224 0.3785 0.0181 0.0
O200 O 0.84678 0.43191 0.00842 0.0
O201 O 0.78996 0.37743 0.02077 0.0
C202 C 0.68735 0.2582 0.29155 0.0
O203 O 0.68669 0.23425 0.28483 0.0
Cd204 Cd 0.70382 0.22789 0.262 0.0
O205 O 0.69871 0.28128 0.28649 0.0
Cd206 Cd 0.7246 0.29434 0.26504 0.0
C207 C 0.77708 0.24173 0.26843 0.0
O208 O 0.68895 0.27054 0.2502 0.0
O209 O 0.72869 0.28524 0.24018 0.0
O210 O 0.6996 0.34124 0.2669 0.0
C211 C 0.70284 0.27424 0.2392 0.0
O212 O 0.75735 0.22431 0.26375 0.0
C213 C 0.72212 0.35689 0.26419 0.0
O214 O 0.77084 0.26839 0.27134 0.0
O215 O 0.74683 0.34352 0.26277 0.0
H216 H 0.03521 0.95981 0.29641 0.0
H217 H 0.07797 0.94939 0.28181 0.0
H218 H 0.13706 0.98213 0.31318 0.0
H219 H 0.09411 0.99433 0.3274 0.0
H220 H 0.15816 0.99739 0.29084 0.0
H221 H 0.12148 0.90531 0.30713 0.0
H222 H 0.08378 0.86701 0.31107 0.0
H223 H 0.07162 0.85613 0.26801 0.0
H224 H 0.10901 0.89464 0.26382 0.0
H225 H 0.27528 0.88622 0.2684 0.0
H226 H 0.22541 0.89358 0.27781 0.0
H227 H 0.21144 0.96665 0.25093 0.0
H228 H 0.26146 0.95989 0.24174 0.0
H229 H 0.1676 0.89746 0.2706 0.0
H230 H 0.1847 0.02343 0.26888 0.0
H231 H 0.22604 0.0591 0.26833 0.0
H232 H 0.28344 0.99717 0.28817 0.0
H233 H 0.24239 0.96129 0.28894 0.0
C234 C 0.05736 0.96508 0.30008 0.0
C235 C 0.06151 0.9777 0.31302 0.0
C236 C 0.08179 0.9589 0.29179 0.0
C237 C 0.11087 0.96419 0.29651 0.0
C238 C 0.11489 0.97773 0.3093 0.0
C239 C 0.09039 0.9847 0.31743 0.0
C240 C 0.13713 0.95513 0.28831 0.0
C241 C 0.16005 0.97556 0.28639 0.0
C242 C 0.14006 0.92644 0.28268 0.0
C243 C 0.11784 0.90304 0.28517 0.0
C244 C 0.11065 0.89485 0.29851 0.0
C245 C 0.08935 0.8731 0.30078 0.0
C246 C 0.07526 0.8592 0.2898 0.0
C247 C 0.08253 0.86695 0.27651 0.0
C248 C 0.10379 0.88871 0.27418 0.0
C249 C 0.26122 0.90326 0.2642 0.0
C250 C 0.2724 0.92283 0.25452 0.0
C251 C 0.23274 0.90746 0.2696 0.0
C252 C 0.21508 0.93114 0.26531 0.0
C253 C 0.225 0.94865 0.25458 0.0
C254 C 0.25354 0.94469 0.24931 0.0
C255 C 0.18826 0.9398 0.27313 0.0
C256 C 0.16537 0.91934 0.27496 0.0
C257 C 0.18584 0.96806 0.27917 0.0
C258 C 0.21057 0.9896 0.27882 0.0
C259 C 0.20613 0.01748 0.27314 0.0
C260 C 0.22951 0.03771 0.27279 0.0
C261 C 0.25737 0.03036 0.27816 0.0
C262 C 0.26189 0.00279 0.28395 0.0
C263 C 0.2386 0.98249 0.28433 0.0
H264 H 0.27543 0.04606 0.27788 0.0
H265 H 0.05876 0.84238 0.29158 0.0
H266 H 0.19809 0.52613 0.54682 0.0
H267 H 0.20666 0.56839 0.53217 0.0
H268 H 0.1836 0.6268 0.56542 0.0
H269 H 0.17274 0.58446 0.57964 0.0
H270 H 0.16277 0.64862 0.54475 0.0
H271 H 0.25954 0.60845 0.55448 0.0
H272 H 0.2984 0.5701 0.55528 0.0
H273 H 0.29487 0.56104 0.51183 0.0
H274 H 0.25571 0.59908 0.51079 0.0
H275 H 0.26957 0.76229 0.51678 0.0
H276 H 0.26413 0.713 0.52614 0.0
H277 H 0.1818 0.70186 0.50398 0.0
H278 H 0.18676 0.75124 0.49481 0.0
H279 H 0.25658 0.65617 0.51848 0.0
H280 H 0.12982 0.67651 0.52572 0.0
H281 H 0.09491 0.71812 0.52841 0.0
H282 H 0.16583 0.7723 0.5438 0.0
H283 H 0.20102 0.73092 0.54139 0.0
C284 C 0.19456 0.54808 0.55088 0.0
C285 C 0.18483 0.55228 0.56429 0.0
C286 C 0.19976 0.5722 0.54258 0.0
C287 C 0.19658 0.6009 0.54776 0.0
C288 C 0.18626 0.60494 0.56114 0.0
C289 C 0.18006 0.58081 0.56928 0.0
C290 C 0.20382 0.62683 0.53934 0.0
C291 C 0.18329 0.6501 0.53901 0.0
C292 C 0.23081 0.62916 0.53196 0.0
C293 C 0.2545 0.60642 0.53257 0.0
C294 C 0.26693 0.59815 0.5451 0.0
C295 C 0.28902 0.57648 0.5456 0.0
C296 C 0.29904 0.56309 0.53361 0.0
C297 C 0.28705 0.5714 0.52111 0.0
C298 C 0.26493 0.59303 0.52056 0.0
C299 C 0.25077 0.74901 0.51359 0.0
C300 C 0.2283 0.76078 0.50528 0.0
C301 C 0.2477 0.72084 0.51894 0.0
C302 C 0.22221 0.70412 0.51599 0.0
C303 C 0.20135 0.71469 0.50658 0.0
C304 C 0.20426 0.74287 0.50133 0.0
C305 C 0.21552 0.67759 0.52399 0.0
C306 C 0.23604 0.65435 0.52419 0.0
C307 C 0.18913 0.6757 0.53175 0.0
C308 C 0.16811 0.70074 0.53318 0.0
C309 C 0.13793 0.69731 0.52968 0.0
C310 C 0.1181 0.72084 0.53117 0.0
C311 C 0.12817 0.74787 0.53622 0.0
C312 C 0.15808 0.7514 0.53983 0.0
C313 C 0.17798 0.72793 0.53839 0.0
H314 H 0.11278 0.76606 0.53736 0.0
H315 H 0.31614 0.54632 0.53402 0.0
H316 H 0.62144 0.64627 0.79526 0.0
H317 H 0.5772 0.66398 0.78338 0.0
H318 H 0.53315 0.67843 0.82179 0.0
H319 H 0.57707 0.66007 0.83374 0.0
H320 H 0.49558 0.65607 0.80435 0.0
H321 H 0.56281 0.7358 0.80427 0.0
H322 H 0.61037 0.76174 0.80107 0.0
H323 H 0.60653 0.7436 0.7582 0.0
H324 H 0.55914 0.71712 0.76117 0.0
H325 H 0.38077 0.73911 0.77443 0.0
H326 H 0.42872 0.73746 0.78633 0.0
H327 H 0.46629 0.68696 0.75328 0.0
H328 H 0.41817 0.68769 0.7415 0.0
H329 H 0.50619 0.73369 0.76956 0.0
H330 H 0.44121 0.64569 0.77263 0.0
H331 H 0.39188 0.62402 0.77702 0.0
H332 H 0.39069 0.66431 0.81666 0.0
H333 H 0.43984 0.68664 0.81237 0.0
C334 C 0.60222 0.65292 0.80117 0.0
C335 C 0.60278 0.6519 0.81543 0.0
C336 C 0.57706 0.66328 0.79438 0.0
C337 C 0.55216 0.67319 0.80172 0.0
C338 C 0.55221 0.6711 0.81593 0.0
C339 C 0.5773 0.66051 0.82274 0.0
C340 C 0.52607 0.68558 0.79451 0.0
C341 C 0.49795 0.67335 0.79691 0.0
C342 C 0.52902 0.70828 0.78484 0.0
C343 C 0.55752 0.72423 0.78296 0.0
C344 C 0.57222 0.73712 0.79417 0.0
C345 C 0.59913 0.75196 0.7924 0.0
C346 C 0.6115 0.75426 0.77945 0.0
C347 C 0.59694 0.74177 0.76823 0.0
C348 C 0.57002 0.72687 0.76995 0.0
C349 C 0.39956 0.72866 0.76946 0.0
C350 C 0.39579 0.71323 0.75713 0.0
C351 C 0.42688 0.72774 0.77627 0.0
C352 C 0.45079 0.71195 0.77067 0.0
C353 C 0.44801 0.69934 0.75768 0.0
C354 C 0.42054 0.69966 0.75101 0.0
C355 C 0.47629 0.70368 0.77928 0.0
C356 C 0.5041 0.71665 0.77713 0.0
C357 C 0.47304 0.68215 0.78941 0.0
C358 C 0.44396 0.66808 0.79212 0.0
C359 C 0.43031 0.65009 0.78223 0.0
C360 C 0.40241 0.63767 0.78471 0.0
C361 C 0.38811 0.64286 0.7971 0.0
C362 C 0.40176 0.66036 0.80706 0.0
C363 C 0.42963 0.6729 0.80461 0.0
H364 H 0.36649 0.63326 0.79899 0.0
H365 H 0.63234 0.76577 0.7781 0.0
H366 H 0.48242 0.07655 0.07737 0.0
H367 H 0.46399 0.03491 0.06413 0.0
H368 H 0.52799 0.05339 0.03267 0.0
H369 H 0.54489 0.0968 0.04556 0.0
H370 H 0.47907 0.03735 0.02135 0.0
H371 H 0.5372 0.99663 0.05839 0.0
H372 H 0.55069 0.98983 0.08249 0.0
H373 H 0.46268 0.958 0.09077 0.0
H374 H 0.44863 0.96479 0.06674 0.0
H375 H 0.50373 0.8944 0.99465 0.0
H376 H 0.50238 0.94397 0.00423 0.0
H377 H 0.42609 0.92089 0.0284 0.0
H378 H 0.42724 0.87104 0.0188 0.0
H379 H 0.47337 0.94018 0.04356 0.0
H380 H 0.41864 0.97356 0.0053 0.0
H381 H 0.40623 0.97976 0.98107 0.0
H382 H 0.48917 0.02428 0.97474 0.0
H383 H 0.50231 0.018 -0.00111 0.0
C384 C 0.49267 0.0716 0.06765 0.0
C385 C 0.51545 0.08941 0.06255 0.0
C386 C 0.48217 0.04775 0.0601 0.0
C387 C 0.49516 0.04041 0.04757 0.0
C388 C 0.51772 0.05849 0.04236 0.0
C389 C 0.52754 0.08308 0.04974 0.0
C390 C 0.48549 0.01368 0.04001 0.0
C391 C 0.47815 0.01604 0.02617 0.0
C392 C 0.48319 0.98601 0.0464 0.0
C393 C 0.49181 0.98145 0.0608 0.0
C394 C 0.52071 0.98827 0.06537 0.0
C395 C 0.52846 0.9844 0.07901 0.0
C396 C 0.50754 0.97354 0.08816 0.0
C397 C 0.47886 0.9664 0.08368 0.0
C398 C 0.47102 0.97021 0.07004 0.0
C399 C 0.4862 0.90005 0.00176 0.0
C400 C 0.46585 0.87872 0.00613 0.0
C401 C 0.48532 0.92847 0.00714 0.0
C402 C 0.46415 0.93606 0.01702 0.0
C403 C 0.44256 0.91541 0.02075 0.0
C404 C 0.44323 0.88699 0.01525 0.0
C405 C 0.4677 0.96373 0.02485 0.0
C406 C 0.47394 0.96155 0.03877 0.0
C407 C 0.46928 0.99139 0.01849 0.0
C408 C 0.46155 0.99511 0.00391 0.0
C409 C 0.43437 0.98444 -0.00128 0.0
C410 C 0.42717 0.98803 0.985 0.0
C411 C 0.44692 0.00236 0.97637 0.0
C412 C 0.4739 0.01318 0.98144 0.0
C413 C 0.48121 0.00965 0.99515 0.0
H414 H 0.4413 0.00512 0.96576 0.0
H415 H 0.51356 0.97062 0.09872 0.0
H416 H 0.23379 0.52472 0.95894 0.0
H417 H 0.26409 0.5563 0.97407 0.0
H418 H 0.28311 0.61319 0.94037 0.0
H419 H 0.25272 0.58221 0.92547 0.0
H420 H 0.33197 0.6046 0.95642 0.0
H421 H 0.22874 0.63045 0.96026 0.0
H422 H 0.17547 0.62213 0.96477 0.0
H423 H 0.19593 0.59916 0.00597 0.0
H424 H 0.24947 0.60686 0.00163 0.0
H425 H 0.35141 0.74881 0.98275 0.0
H426 H 0.31719 0.70994 0.97538 0.0
H427 H 0.35541 0.65132 0.00484 0.0
H428 H 0.39024 0.68979 0.01205 0.0
H429 H 0.2785 0.65752 0.99342 0.0
H430 H 0.38671 0.62583 0.98545 0.0
H431 H 0.4375 0.64105 0.97903 0.0
H432 H 0.40278 0.68276 0.94336 0.0
H433 H 0.35176 0.66805 0.9497 0.0
C434 C 0.24529 0.54347 0.95476 0.0
C435 C 0.24132 0.55108 0.9411 0.0
C436 C 0.26225 0.5616 0.96339 0.0
C437 C 0.27558 0.58716 0.95832 0.0
C438 C 0.27305 0.59356 0.94447 0.0
C439 C 0.2558 0.57585 0.93597 0.0
C440 C 0.29065 0.60855 0.9674 0.0
C441 C 0.32034 0.61578 0.96463 0.0
C442 C 0.27529 0.62363 0.97794 0.0
C443 C 0.24317 0.61874 0.98055 0.0
C444 C 0.22194 0.62326 0.97023 0.0
C445 C 0.19168 0.61873 0.97277 0.0
C446 C 0.18233 0.60999 0.98563 0.0
C447 C 0.20322 0.60583 0.996 0.0
C448 C 0.23353 0.61025 0.9935 0.0
C449 C 0.35184 0.728 0.98799 0.0
C450 C 0.37375 0.72212 -0.00218 0.0
C451 C 0.33224 0.70587 0.98379 0.0
C452 C 0.33402 0.67787 0.98955 0.0
C453 C 0.35378 0.67288 0.00033 0.0
C454 C 0.3737 0.69482 0.00438 0.0
C455 C 0.31977 0.65279 0.98256 0.0
C456 C 0.29027 0.64537 0.98555 0.0
C457 C 0.33496 0.6378 0.97203 0.0
C458 C 0.36557 0.64602 0.96808 0.0
C459 C 0.38997 0.63834 0.97627 0.0
C460 C 0.41876 0.64688 0.97265 0.0
C461 C 0.42336 0.66291 0.9608 0.0
C462 C 0.39918 0.67038 0.95254 0.0
C463 C 0.37035 0.66195 0.95614 0.0
H464 H 0.44566 0.66951 0.95802 0.0
H465 H 0.15889 0.60654 0.98758 0.0
H466 H 0.64325 0.75546 0.1914 0.0
H467 H 0.60378 0.78675 0.20121 0.0
H468 H 0.56043 0.70988 0.21696 0.0
H469 H 0.5999 0.67898 0.20789 0.0
H470 H 0.53975 0.78322 0.19642 0.0
H471 H 0.54297 0.71745 0.24192 0.0
H472 H 0.57776 0.69127 0.25712 0.0
H473 H 0.63929 0.76322 0.25499 0.0
H474 H 0.60508 0.78941 0.23952 0.0
H475 H 0.41512 0.84517 0.2315 0.0
H476 H 0.44906 0.80674 0.22313 0.0
H477 H 0.52184 0.84778 0.24481 0.0
H478 H 0.48834 0.88555 0.25336 0.0
H479 H 0.52587 0.78962 0.24641 0.0
H480 H 0.5078 0.86201 0.211 0.0
H481 H 0.47539 0.88965 0.19536 0.0
H482 H 0.44571 0.80884 0.17699 0.0
H483 H 0.47769 0.78071 0.19266 0.0
C484 C 0.62552 0.74542 0.19717 0.0
C485 C 0.625 0.7149 0.19912 0.0
C486 C 0.60295 0.76321 0.20265 0.0
C487 C 0.57951 0.75058 0.20998 0.0
C488 C 0.57877 0.72012 0.2117 0.0
C489 C 0.60144 0.70251 0.20649 0.0
C490 C 0.55568 0.769 0.21595 0.0
C491 C 0.53656 0.7846 0.20733 0.0
C492 C 0.55147 0.77056 0.23014 0.0
C493 C 0.57164 0.75524 0.23961 0.0
C494 C 0.56392 0.72763 0.24474 0.0
C495 C 0.58357 0.71275 0.25333 0.0
C496 C 0.61073 0.72557 0.25702 0.0
C497 C 0.61831 0.75327 0.25209 0.0
C498 C 0.59889 0.76806 0.24336 0.0
C499 C 0.43825 0.84565 0.23466 0.0
C500 C 0.44911 0.86863 0.24294 0.0
C501 C 0.45761 0.8238 0.22982 0.0
C502 C 0.48805 0.82472 0.23319 0.0
C503 C 0.49847 0.84668 0.24206 0.0
C504 C 0.47926 0.86839 0.24688 0.0
C505 C 0.50979 0.80423 0.22691 0.0
C506 C 0.52863 0.78808 0.23547 0.0
C507 C 0.51368 0.80233 0.21264 0.0
C508 C 0.49491 0.81927 0.20308 0.0
C509 C 0.49425 0.85015 0.20367 0.0
C510 C 0.47597 0.86589 0.1948 0.0
C511 C 0.45845 0.85101 0.18521 0.0
C512 C 0.45926 0.82034 0.18444 0.0
C513 C 0.47747 0.80449 0.1933 0.0
H514 H 0.44429 0.86324 0.17836 0.0
H515 H 0.62588 0.71407 0.2637 0.0
H516 H 0.46984 0.09367 0.46574 0.0
H517 H 0.43564 0.05781 0.47538 0.0
H518 H 0.3826 0.06017 0.43872 0.0
H519 H 0.41594 0.0973 0.42938 0.0
H520 H 0.34733 0.05375 0.45842 0.0
H521 H 0.43632 0.00467 0.44518 0.0
H522 H 0.49038 0.9954 0.44394 0.0
H523 H 0.49331 0.98118 0.48699 0.0
H524 H 0.43931 0.99077 0.48852 0.0
H525 H 0.30396 0.89748 0.47772 0.0
H526 H 0.34225 0.92928 0.46786 0.0
H527 H 0.31906 -0.00194 0.49639 0.0
H528 H 0.28073 0.96684 0.50611 0.0
H529 H 0.39251 0.96374 0.47796 0.0
H530 H 0.30344 0.05324 0.48013 0.0
H531 H 0.24855 0.05661 0.47883 0.0
H532 H 0.24639 0.98175 0.45193 0.0
H533 H 0.30119 0.97788 0.45318 0.0
C534 C 0.45049 0.08697 0.45989 0.0
C535 C 0.44549 0.09816 0.44684 0.0
C536 C 0.43116 0.06622 0.46532 0.0
C537 C 0.40705 0.05552 0.45761 0.0
C538 C 0.40116 0.06788 0.44484 0.0
C539 C 0.42012 0.0892 0.43953 0.0
C540 C 0.38851 0.031 0.46273 0.0
C541 C 0.35739 0.03413 0.46263 0.0
C542 C 0.40134 0.00476 0.46786 0.0
C543 C 0.43379 -0.00133 0.46698 0.0
C544 C 0.44852 -0.00027 0.4544 0.0
C545 C 0.47915 0.99441 0.45364 0.0
C546 C 0.49528 0.98777 0.46538 0.0
C547 C 0.48079 0.98635 0.4779 0.0
C548 C 0.45016 0.9917 0.47872 0.0
C549 C 0.30753 0.91915 0.48207 0.0
C550 C 0.28907 0.9299 0.49254 0.0
C551 C 0.3294 0.93722 0.47645 0.0
C552 C 0.33308 0.96608 0.48129 0.0
C553 C 0.31622 0.97595 0.49241 0.0
C554 C 0.29431 0.95811 0.49793 0.0
C555 C 0.35189 0.98727 0.47397 0.0
C556 C 0.38282 0.98343 0.47365 0.0
C557 C 0.33901 0.01227 0.46791 0.0
C558 C 0.30628 0.01538 0.46671 0.0
C559 C 0.29121 0.03771 0.47385 0.0
C560 C 0.26013 0.03959 0.47318 0.0
C561 C 0.24399 0.01943 0.46529 0.0
C562 C 0.25889 0.99733 0.45805 0.0
C563 C 0.28992 0.99524 0.45877 0.0
H564 H 0.21995 0.02091 0.46479 0.0
H565 H 0.519 0.98367 0.46478 0.0
H566 H 0.09857 0.94385 0.67954 0.0
H567 H 0.13333 0.91169 0.69137 0.0
H568 H 0.06095 0.87651 0.71488 0.0
H569 H 0.02566 0.90877 0.70275 0.0
H570 H 0.11161 0.89805 0.7304 0.0
H571 H 0.09116 0.83274 0.69288 0.0
H572 H 0.08505 0.81925 0.6687 0.0
H573 H 0.17608 0.84246 0.66109 0.0
H574 H 0.18264 0.85649 0.68519 0.0
H575 H 0.20058 0.77905 0.75671 0.0
H576 H 0.16309 0.81307 0.74792 0.0
H577 H 0.22863 0.85067 0.72132 0.0
H578 H 0.26637 0.81704 0.7302 0.0
H579 H 0.17919 0.82635 0.70791 0.0
H580 H 0.20073 0.89352 0.74374 0.0
H581 H 0.2089 0.91116 0.76721 0.0
H582 H 0.11902 0.88847 0.77745 0.0
H583 H 0.11041 0.87027 0.75407 0.0
C584 C 0.09 0.92883 0.68705 0.0
C585 C 0.05959 0.92856 0.69027 0.0
C586 C 0.10984 0.9105 0.69378 0.0
C587 C 0.09967 0.89177 0.70397 0.0
C588 C 0.06911 0.89085 0.70701 0.0
C589 C 0.04902 0.90898 0.70005 0.0
C590 C 0.12166 0.87466 0.71183 0.0
C591 C 0.12597 0.8818 0.72561 0.0
C592 C 0.14111 0.85453 0.70534 0.0
C593 C 0.13731 0.84588 0.69084 0.0
C594 C 0.10981 0.83518 0.68603 0.0
C595 C 0.10629 0.8274 0.67234 0.0
C596 C 0.13014 0.83006 0.66336 0.0
C597 C 0.15761 0.84042 0.66806 0.0
C598 C 0.16126 0.84826 0.68174 0.0
C599 C 0.2072 0.79515 0.74928 0.0
C600 C 0.23626 0.79515 0.74399 0.0
C601 C 0.18579 0.8146 0.7443 0.0
C602 C 0.19309 0.83411 0.73389 0.0
C603 C 0.22262 0.83564 0.72933 0.0
C604 C 0.24415 0.8165 0.73444 0.0
C605 C 0.16922 0.84971 0.72651 0.0
C606 C 0.16462 0.8423 0.71279 0.0
C607 C 0.14982 0.86985 0.73301 0.0
C608 C 0.15505 0.88013 0.74718 0.0
C609 C 0.18281 0.8919 0.75104 0.0
C610 C 0.1875 0.90212 0.76431 0.0
C611 C 0.16453 0.90083 0.77383 0.0
C612 C 0.13681 0.88937 0.77008 0.0
C613 C 0.13201 0.87912 0.75681 0.0
H614 H 0.16818 0.9088 0.7841 0.0
H615 H 0.12735 0.82405 0.65276 0.0
H616 H 0.71839 0.61564 0.80788 0.0
H617 H 0.74117 0.57964 0.79243 0.0
H618 H 0.80525 0.55727 0.82339 0.0
H619 H 0.78252 0.59285 0.83895 0.0
H620 H 0.79969 0.57029 0.78233 0.0
H621 H 0.8065 0.49545 0.82738 0.0
H622 H 0.77712 0.4826 0.84767 0.0
H623 H 0.69599 0.49634 0.82535 0.0
H624 H 0.72497 0.50976 0.80504 0.0
H625 H 0.90903 0.46495 0.76982 0.0
H626 H 0.87429 0.50273 0.77708 0.0
H627 H 0.80297 0.43924 0.77695 0.0
H628 H 0.83836 0.40063 0.77025 0.0
H629 H 0.80061 0.4678 0.79916 0.0
H630 H 0.80617 0.49903 0.75357 0.0
H631 H 0.82955 0.51192 0.73179 0.0
H632 H 0.87592 0.58328 0.75127 0.0
H633 H 0.85312 0.57061 0.7732 0.0
C634 C 0.7377 0.60348 0.81132 0.0
C635 C 0.74848 0.60689 0.82471 0.0
C636 C 0.75059 0.58286 0.80248 0.0
C637 C 0.77441 0.5654 0.8069 0.0
C638 C 0.78642 0.57013 0.81992 0.0
C639 C 0.77355 0.59062 0.82876 0.0
C640 C 0.78611 0.54126 0.79825 0.0
C641 C 0.79987 0.54782 0.7859 0.0
C642 C 0.78509 0.51187 0.80264 0.0
C643 C 0.76782 0.5035 0.81476 0.0
C644 C 0.7824 0.49559 0.82683 0.0
C645 C 0.76583 0.48838 0.83834 0.0
C646 C 0.73471 0.48864 0.8378 0.0
C647 C 0.72008 0.49623 0.82577 0.0
C648 C 0.73655 0.50379 0.81429 0.0
C649 C 0.88586 0.45901 0.77108 0.0
C650 C 0.87648 0.42973 0.7695 0.0
C651 C 0.86587 0.4808 0.77514 0.0
C652 C 0.83581 0.47407 0.7774 0.0
C653 C 0.82604 0.44503 0.77525 0.0
C654 C 0.84624 0.423 0.77138 0.0
C655 C 0.8157 0.49678 0.78334 0.0
C656 C 0.80021 0.49003 0.79529 0.0
C657 C 0.81439 0.52584 0.77826 0.0
C658 C 0.82799 0.53377 0.76506 0.0
C659 C 0.82146 0.51738 0.75323 0.0
C660 C 0.8346 0.52467 0.74085 0.0
C661 C 0.85422 0.54839 0.74015 0.0
C662 C 0.86069 0.56492 0.75183 0.0
C663 C 0.84761 0.55774 0.76423 0.0
H664 H 0.8644 0.55397 0.73057 0.0
H665 H 0.72192 0.48295 0.8467 0.0
H666 H 0.54081 0.226 0.0631 0.0
H667 H 0.57238 0.25914 0.04969 0.0
H668 H 0.649 0.23309 0.0733 0.0
H669 H 0.61802 0.20039 0.08653 0.0
H670 H 0.64709 0.29204 0.06952 0.0
H671 H 0.63692 0.20242 0.04322 0.0
H672 H 0.6091 0.16374 0.03093 0.0
H673 H 0.57341 0.2281 0.0037 0.0
H674 H 0.60069 0.26727 0.01599 0.0
H675 H 0.77321 0.32951 0.03312 0.0
H676 H 0.73578 0.29532 0.04163 0.0
H677 H 0.66851 0.33707 0.01707 0.0
H678 H 0.7057 0.37146 0.00858 0.0
H679 H 0.66156 0.27363 0.02017 0.0
H680 H 0.67488 0.363 0.04637 0.0
H681 H 0.70449 0.40033 0.05869 0.0
H682 H 0.73554 0.33467 0.08641 0.0
H683 H 0.70654 0.29682 0.07408 0.0
C684 C 0.5643 0.22779 0.06549 0.0
C685 C 0.57706 0.21059 0.07576 0.0
C686 C 0.5823 0.24648 0.05781 0.0
C687 C 0.61305 0.2483 0.06046 0.0
C688 C 0.62537 0.23198 0.07108 0.0
C689 C 0.60762 0.21323 0.07859 0.0
C690 C 0.63308 0.26645 0.05212 0.0
C691 C 0.65027 0.28796 0.05874 0.0
C692 C 0.63692 0.26132 0.03802 0.0
C693 C 0.6205 0.23783 0.03064 0.0
C694 C 0.62289 0.20837 0.0347 0.0
C695 C 0.60728 0.18635 0.02772 0.0
C696 C 0.58941 0.19347 0.01658 0.0
C697 C 0.5872 0.22263 0.01237 0.0
C698 C 0.60272 0.24475 0.01933 0.0
C699 C 0.75068 0.33079 0.02919 0.0
C700 C 0.74221 0.3534 0.02037 0.0
C701 C 0.72933 0.31132 0.03408 0.0
C702 C 0.69939 0.31411 0.03012 0.0
C703 C 0.69151 0.33471 0.02026 0.0
C704 C 0.71275 0.35438 0.01548 0.0
C705 C 0.67588 0.29864 0.03768 0.0
C706 C 0.65806 0.27785 0.03091 0.0
C707 C 0.67153 0.30423 0.0517 0.0
C708 C 0.68877 0.32702 0.05921 0.0
C709 C 0.68823 0.35647 0.05501 0.0
C710 C 0.70488 0.37773 0.06201 0.0
C711 C 0.72194 0.36987 0.07331 0.0
C712 C 0.72235 0.34072 0.07764 0.0
C713 C 0.70581 0.31936 0.07066 0.0
H714 H 0.73479 0.38636 0.07872 0.0
H715 H 0.57736 0.17639 0.01118 0.0
H716 H 0.94154 0.02711 0.29415 0.0
H717 H 0.91307 0.06909 0.28573 0.0
H718 H 0.89687 0.09777 0.32701 0.0
H719 H 0.92358 0.05488 0.33541 0.0
H720 H 0.8519 0.11191 0.31311 0.0
H721 H 0.95594 0.12559 0.30675 0.0
H722 H 0.0067 0.11301 0.29913 0.0
H723 H 0.97704 0.11229 0.2576 0.0
H724 H 0.92599 0.12447 0.26499 0.0
H725 H 0.80921 0.25246 0.29149 0.0
H726 H 0.84666 0.21924 0.30115 0.0
H727 H 0.84609 0.16787 0.26408 0.0
H728 H 0.80849 0.20061 0.25451 0.0
H729 H 0.90327 0.17043 0.27793 0.0
H730 H 0.7969 0.15187 0.28651 0.0
H731 H 0.74797 0.16781 0.29526 0.0
H732 H 0.78615 0.1821 0.33484 0.0
H733 H 0.83544 0.16672 0.32624 0.0
C734 C 0.93111 0.04194 0.30139 0.0
C735 C 0.93483 0.03784 0.3154 0.0
C736 C 0.91522 0.06615 0.29659 0.0
C737 C 0.90383 0.08727 0.30573 0.0
C738 C 0.90571 0.08201 0.31974 0.0
C739 C 0.92087 0.05736 0.32454 0.0
C740 C 0.89125 0.1154 0.3007 0.0
C741 C 0.86346 0.12486 0.30559 0.0
C742 C 0.90631 0.13266 0.29095 0.0
C743 C 0.93708 0.12573 0.28644 0.0
C744 C 0.96021 0.12261 0.296 0.0
C745 C 0.98904 0.11555 0.29172 0.0
C746 C 0.99508 0.1118 0.27789 0.0
C747 C 0.97232 0.11519 0.26831 0.0
C748 C 0.94344 0.1222 0.27253 0.0
C749 C 0.81809 0.23484 0.28521 0.0
C750 C 0.80586 0.22881 0.27233 0.0
C751 C 0.83932 0.21582 0.29075 0.0
C752 C 0.84868 0.19091 0.28338 0.0
C753 C 0.83906 0.18695 0.26993 0.0
C754 C 0.81758 0.20562 0.26448 0.0
C755 C 0.864 0.16634 0.2902 0.0
C756 C 0.89217 0.15756 0.28563 0.0
C757 C 0.84967 0.1501 0.30047 0.0
C758 C 0.81987 0.15844 0.30571 0.0
C759 C 0.79487 0.15855 0.29706 0.0
C760 C 0.76708 0.1675 0.30199 0.0
C761 C 0.76396 0.17604 0.31559 0.0
C762 C 0.78861 0.17553 0.3243 0.0
C763 C 0.81647 0.16671 0.31941 0.0
H764 H 0.74244 0.183 0.31938 0.0
H765 H 0.01741 0.10632 0.2746 0.0
H766 H 0.1374 0.43751 0.543 0.0
H767 H 0.09628 0.4094 0.53302 0.0
H768 H 0.06671 0.38611 0.5732 0.0
H769 H 0.1086 0.41278 0.58313 0.0
H770 H 0.05607 0.34311 0.5582 0.0
H771 H 0.03537 0.44439 0.55423 0.0
H772 H 0.04303 0.49633 0.54834 0.0
H773 H 0.04558 0.47311 0.50596 0.0
H774 H 0.03842 0.42091 0.51162 0.0
H775 H 0.9056 0.31649 0.53572 0.0
H776 H 0.94323 0.35244 0.54288 0.0
H777 H 0.00376 0.31814 0.51273 0.0
H778 H 0.96663 0.28169 0.50572 0.0
H779 H 0.99425 0.393 0.52336 0.0
H780 H 0.02918 0.28629 0.5336 0.0
H781 H 0.01247 0.238 0.5419 0.0
H782 H 0.97107 0.27992 0.5763 0.0
H783 H 0.98739 0.32842 0.56809 0.0
C784 C 0.12251 0.42578 0.54966 0.0
C785 C 0.12611 0.42749 0.56384 0.0
C786 C 0.09878 0.41005 0.54397 0.0
C787 C 0.07773 0.39644 0.55236 0.0
C788 C 0.08244 0.39659 0.56649 0.0
C789 C 0.10653 0.41177 0.57217 0.0
C790 C 0.0505 0.38267 0.54649 0.0
C791 C 0.04268 0.35429 0.55065 0.0
C792 C 0.03221 0.39729 0.53684 0.0
C793 C 0.0367 0.42865 0.53337 0.0
C794 C 0.03784 0.4503 0.54366 0.0
C795 C 0.04205 0.47981 0.54036 0.0
C796 C 0.04488 0.48801 0.52679 0.0
C797 C 0.04344 0.46671 0.51648 0.0
C798 C 0.0393 0.43716 0.51972 0.0
C799 C 0.92656 0.31722 0.53032 0.0
C800 C 0.93338 0.29606 0.52028 0.0
C801 C 0.94795 0.33782 0.53439 0.0
C802 C 0.97612 0.33782 0.5283 0.0
C803 C 0.982 0.3185 0.51746 0.0
C804 C 0.96085 0.29762 0.51353 0.0
C805 C 0.00106 0.35362 0.53483 0.0
C806 C 0.00809 0.38221 0.53088 0.0
C807 C 0.01797 0.3399 0.54506 0.0
C808 C 0.00954 0.31077 0.55029 0.0
C809 C 0.01662 0.2851 0.54296 0.0
C810 C 0.00716 0.25775 0.54762 0.0
C811 C 0.99073 0.25589 0.55963 0.0
C812 C 0.98382 0.28138 0.56702 0.0
C813 C 0.9932 0.30878 0.56238 0.0
H814 H 0.98335 0.23471 0.5632 0.0
H815 H 0.04811 0.51086 0.52425 0.0
H816 H 0.5968 0.15377 0.43451 0.0
H817 H 0.64071 0.16645 0.44811 0.0
H818 H 0.58399 0.19917 0.4802 0.0
H819 H 0.54004 0.18719 0.46655 0.0
H820 H 0.6307 0.23525 0.47644 0.0
H821 H 0.6152 0.13063 0.48184 0.0
H822 H 0.6087 0.07969 0.47356 0.0
H823 H 0.69403 0.0829 0.45405 0.0
H824 H 0.70087 0.13398 0.46208 0.0
H825 H 0.75702 0.17402 0.52412 0.0
H826 H 0.70784 0.17431 0.51355 0.0
H827 H 0.73667 0.24124 0.48581 0.0
H828 H 0.78596 0.24143 0.49654 0.0
H829 H 0.70283 0.15649 0.4878 0.0
H830 H 0.67315 0.27542 0.47277 0.0
H831 H 0.67839 0.32599 0.48169 0.0
H832 H 0.68158 0.29335 0.52246 0.0
H833 H 0.67601 0.24263 0.5138 0.0
C834 C 0.59369 0.16358 0.44447 0.0
C835 C 0.56498 0.16924 0.44952 0.0
C836 C 0.61878 0.17088 0.45222 0.0
C837 C 0.61556 0.18352 0.46521 0.0
C838 C 0.58694 0.18952 0.47018 0.0
C839 C 0.56187 0.18247 0.46241 0.0
C840 C 0.64195 0.18948 0.47386 0.0
C841 C 0.64653 0.21808 0.47894 0.0
C842 C 0.66241 0.167 0.47718 0.0
C843 C 0.65843 0.13619 0.47247 0.0
C844 C 0.63249 0.12051 0.47572 0.0
C845 C 0.62876 0.09162 0.47108 0.0
C846 C 0.6509 0.07809 0.46326 0.0
C847 C 0.67688 0.09341 0.4601 0.0
C848 C 0.68071 0.12232 0.4647 0.0
C849 C 0.75264 0.18943 0.51604 0.0
C850 C 0.77543 0.20738 0.51102 0.0
C851 C 0.72454 0.18954 0.50999 0.0
C852 C 0.71873 0.2075 0.49879 0.0
C853 C 0.74063 0.22731 0.49449 0.0
C854 C 0.76879 0.2274 0.50064 0.0
C855 C 0.6916 0.20226 0.49053 0.0
C856 C 0.68702 0.17375 0.48537 0.0
C857 C 0.67113 0.22479 0.48727 0.0
C858 C 0.67448 0.25519 0.49261 0.0
C859 C 0.67491 0.27904 0.48364 0.0
C860 C 0.67795 0.30773 0.48865 0.0
C861 C 0.68042 0.31287 0.50263 0.0
C862 C 0.6798 0.28933 0.51163 0.0
C863 C 0.67678 0.26059 0.50667 0.0
H864 H 0.68275 0.3351 0.50649 0.0
H865 H 0.64796 0.05573 0.45967 0.0
H866 H 0.00559 0.04247 0.70361 0.0
H867 H 0.99219 0.08181 0.71948 0.0
H868 H 0.0017 0.14535 0.68755 0.0
H869 H 0.01566 0.10614 0.67163 0.0
H870 H 0.02331 0.16641 0.71082 0.0
H871 H 0.93374 0.11696 0.69641 0.0
H872 H 0.9009 0.07415 0.69297 0.0
H873 H 0.89909 0.05986 0.73602 0.0
H874 H 0.93244 0.10223 0.7397 0.0
H875 H 0.92388 0.27678 0.73899 0.0
H876 H 0.92676 0.23028 0.72622 0.0
H877 H 0.98432 0.19442 0.75704 0.0
H878 H 0.98191 0.24075 0.76974 0.0
H879 H 0.92594 0.15951 0.73445 0.0
H880 H 0.04015 0.19379 0.74155 0.0
H881 H 0.07097 0.2382 0.74504 0.0
H882 H 0.01918 0.28392 0.71514 0.0
H883 H 0.98798 0.23977 0.7116 0.0
C884 C 0.00518 0.06486 0.69998 0.0
C885 C 0.0113 0.07118 0.6863 0.0
C886 C 0.99735 0.08728 0.70906 0.0
C887 C 0.99521 0.11638 0.7046 0.0
C888 C 0.00294 0.12297 0.69116 0.0
C889 C 0.01094 0.10055 0.68207 0.0
C890 C 0.98413 0.13987 0.71382 0.0
C891 C 0.00198 0.16477 0.7159 0.0
C892 C 0.95623 0.1379 0.72051 0.0
C893 C 0.93584 0.11263 0.71832 0.0
C894 C 0.92653 0.10457 0.70514 0.0
C895 C 0.90781 0.08038 0.70314 0.0
C896 C 0.89796 0.06426 0.71427 0.0
C897 C 0.90677 0.07234 0.72741 0.0
C898 C 0.92559 0.09644 0.72946 0.0
C899 C 0.93604 0.25853 0.74333 0.0
C900 C 0.95297 0.26237 0.75525 0.0
C901 C 0.93764 0.23202 0.73603 0.0
C902 C 0.95583 0.20913 0.74072 0.0
C903 C 0.9701 0.21188 0.75334 0.0
C904 C 0.96879 0.23837 0.76053 0.0
C905 C 0.96523 0.18548 0.73133 0.0
C906 C 0.9472 0.16078 0.72928 0.0
C907 C 0.99275 0.18754 0.72453 0.0
C908 C 0.01201 0.2136 0.72626 0.0
C909 C 0.03556 0.21329 0.73567 0.0
C910 C 0.05296 0.23842 0.7377 0.0
C911 C 0.04706 0.26385 0.7303 0.0
C912 C 0.02373 0.26421 0.72086 0.0
C913 C 0.00618 0.23918 0.71885 0.0
H914 H 0.06053 0.28328 0.73189 0.0
H915 H 0.88346 0.04556 0.7127 0.0
H916 H 0.12888 0.50868 0.97024 0.0
H917 H 0.08339 0.49364 0.98196 0.0
H918 H 0.04578 0.46477 0.94363 0.0
H919 H 0.09007 0.48164 0.93191 0.0
H920 H 0.00602 0.49036 0.95569 0.0
H921 H 0.07273 0.41614 0.96968 0.0
H922 H 0.11827 0.39377 0.97911 0.0
H923 H 0.10066 0.4342 0.01787 0.0
H924 H 0.05519 0.45716 0.00862 0.0
H925 H 0.88399 0.41895 0.98851 0.0
H926 H 0.9328 0.42089 0.97738 0.0
H927 H 0.9628 0.48431 0.00722 0.0
H928 H 0.914 0.48306 0.01818 0.0
H929 H 0.00572 0.43524 -0.00109 0.0
H930 H 0.93896 0.5126 0.98072 0.0
H931 H 0.89458 0.5312 0.96868 0.0
H932 H 0.91332 0.47389 0.93483 0.0
H933 H 0.95769 0.45486 0.94672 0.0
C934 C 0.11066 0.49943 0.96437 0.0
C935 C 0.1127 0.49674 0.95019 0.0
C936 C 0.08487 0.49041 0.97107 0.0
C937 C 0.06123 0.47755 0.96373 0.0
C938 C 0.06354 0.47473 0.94955 0.0
C939 C 0.08883 0.48453 0.94283 0.0
C940 C 0.03334 0.46858 0.97063 0.0
C941 C 0.00616 0.47774 0.96499 0.0
C942 C 0.0332 0.45216 0.9828 0.0
C943 C 0.06068 0.43863 0.98841 0.0
C944 C 0.07869 0.42049 0.98018 0.0
C945 C 0.10447 0.40765 0.9855 0.0
C946 C 0.1124 0.41262 -0.00093 0.0
C947 C 0.09452 0.4304 0.00735 0.0
C948 C 0.06871 0.44331 0.00208 0.0
C949 C 0.9012 0.43286 0.99283 0.0
C950 C 0.89522 0.45102 0.00414 0.0
C951 C 0.92896 0.43397 0.98646 0.0
C952 C 0.9512 0.4528 0.9915 0.0
C953 C 0.94586 0.46961 0.00324 0.0
C954 C 0.91798 0.46897 0.00944 0.0
C955 C 0.97905 0.45719 0.9839 0.0
C956 C 0.00602 0.44734 0.98947 0.0
C957 C 0.97907 0.4719 0.97135 0.0
C958 C 0.95137 0.48208 0.96467 0.0
C959 C 0.93332 0.50365 0.97081 0.0
C960 C 0.90826 0.51437 0.96397 0.0
C961 C 0.90115 0.50371 0.95099 0.0
C962 C 0.91887 0.48211 0.94488 0.0
C963 C 0.94395 0.47137 0.95165 0.0
H964 H 0.88206 0.51229 0.94559 0.0
H965 H 0.13235 0.40265 0.00317 0.0
H966 H 0.62063 0.56399 0.19618 0.0
H967 H 0.63573 0.52666 0.2126 0.0
H968 H 0.72587 0.5592 0.21171 0.0
H969 H 0.71114 0.59628 0.19527 0.0
H970 H 0.724 0.49997 0.20971 0.0
H971 H 0.68251 0.57451 0.23866 0.0
H972 H 0.64412 0.6098 0.24624 0.0
H973 H 0.58264 0.53903 0.25232 0.0
H974 H 0.62054 0.50333 0.2446 0.0
H975 H 0.76575 0.39785 0.25963 0.0
H976 H 0.75887 0.44661 0.24973 0.0
H977 H 0.66356 0.43428 0.25028 0.0
H978 H 0.67022 0.38668 0.26079 0.0
H979 H 0.67374 0.48875 0.25417 0.0
H980 H 0.71118 0.41585 0.22171 0.0
H981 H 0.7478 0.37993 0.21294 0.0
H982 H 0.81502 0.44691 0.21248 0.0
H983 H 0.77885 0.48313 0.22139 0.0
C984 C 0.64366 0.56317 0.19947 0.0
C985 C 0.66464 0.58313 0.19443 0.0
C986 C 0.65222 0.54197 0.20891 0.0
C987 C 0.68185 0.54045 0.2135 0.0
C988 C 0.70288 0.56009 0.20835 0.0
C989 C 0.69436 0.58128 0.19896 0.0
C990 C 0.69112 0.51782 0.22338 0.0
C991 C 0.71339 0.49779 0.21954 0.0
C992 C 0.67703 0.51487 0.23612 0.0
C993 C 0.65432 0.53626 0.24096 0.0
C994 C 0.66075 0.56648 0.24154 0.0
C995 C 0.63908 0.58656 0.24587 0.0
C996 C 0.61095 0.57667 0.24974 0.0
C997 C 0.60445 0.54667 0.24932 0.0
C998 C 0.62603 0.52649 0.24499 0.0
C999 C 0.74335 0.40594 0.25795 0.0
C1000 C 0.71855 0.38827 0.26081 0.0
C1001 C 0.73942 0.43369 0.25219 0.0
C1002 C 0.7107 0.44378 0.24885 0.0
C1003 C 0.68595 0.42702 0.25266 0.0
C1004 C 0.68982 0.39967 0.25866 0.0
C1005 C 0.70605 0.47024 0.24035 0.0
C1006 C 0.68468 0.49112 0.24443 0.0
C1007 C 0.72076 0.47383 0.22774 0.0
C1008 C 0.74244 0.45207 0.22237 0.0
C1009 C 0.73382 0.42284 0.21981 0.0
C1010 C 0.75449 0.40245 0.21481 0.0
C1011 C 0.78374 0.41111 0.21219 0.0
C1012 C 0.79238 0.44021 0.21454 0.0
C1013 C 0.77181 0.46068 0.21956 0.0
H1014 H 0.79971 0.3953 0.20832 0.0
H1015 H 0.59419 0.59225 0.25308 0.0
H1016 H 0.04454 0.92181 0.35983 0.0
H1017 H 0.07994 0.90107 0.37614 0.0
H1018 H 0.01928 0.92104 0.40883 0.0
H1019 H 0.98384 0.94175 0.39271 0.0
H1020 H 0.07724 0.94875 0.41026 0.0
H1021 H 0.03273 0.85164 0.40019 0.0
H1022 H 0.02113 0.81107 0.38424 0.0
H1023 H 0.11403 0.80155 0.37489 0.0
H1024 H 0.12613 0.8423 0.39067 0.0
H1025 H 0.11565 0.90227 0.47251 0.0
H1026 H 0.09106 0.90487 0.45051 0.0
H1027 H 0.1681 0.86608 0.43126 0.0
H1028 H 0.19272 0.86246 0.45363 0.0
H1029 H 0.11447 0.84789 0.41896 0.0
H1030 H 0.16252 0.93667 0.42922 0.0
H1031 H 0.17984 0.97821 0.44341 0.0
H1032 H 0.08946 0.00661 0.44915 0.0
H1033 H 0.07152 0.96495 0.43518 0.0
C1034 C 0.03831 0.92099 0.37044 0.0
C1035 C 0.01153 0.93391 0.37501 0.0
C1036 C 0.05863 0.90914 0.37974 0.0
C1037 C 0.05232 0.9099 0.39367 0.0
C1038 C 0.02459 0.92049 0.3981 0.0
C1039 C 0.00431 0.93224 0.38885 0.0
C1040 C 0.07557 0.90338 0.4039 0.0
C1041 C 0.08528 0.92668 0.4122 0.0
C1042 C 0.08767 0.87498 0.40577 0.0
C1043 C 0.08029 0.85018 0.39651 0.0
C1044 C 0.05065 0.84103 0.39467 0.0
C1045 C 0.044 0.81797 0.38567 0.0
C1046 C 0.06682 0.80379 0.37853 0.0
C1047 C 0.09637 0.81256 0.38041 0.0
C1048 C 0.10313 0.8356 0.3894 0.0
C1049 C 0.12727 0.89395 0.46364 0.0
C1050 C 0.15624 0.88263 0.46472 0.0
C1051 C 0.11319 0.89541 0.45107 0.0
C1052 C 0.12804 0.88633 0.43922 0.0
C1053 C 0.15636 0.87336 0.44029 0.0
C1054 C 0.17038 0.87138 0.45303 0.0
C1055 C 0.1143 0.89297 0.42589 0.0
C1056 C 0.10678 0.87001 0.41689 0.0
C1057 C 0.10506 0.92198 0.42297 0.0
C1058 C 0.11566 0.94757 0.43116 0.0
C1059 C 0.14631 0.95169 0.43355 0.0
C1060 C 0.15624 0.97526 0.44156 0.0
C1061 C 0.13576 0.99502 0.44719 0.0
C1062 C 0.1053 0.99129 0.44478 0.0
C1063 C 0.09523 0.96772 0.43678 0.0
H1064 H 0.14349 0.01323 0.4534 0.0
H1065 H 0.06162 0.78598 0.37155 0.0
H1066 H 0.28646 0.50386 0.6216 0.0
H1067 H 0.29778 0.54089 0.63899 0.0
H1068 H 0.20733 0.57264 0.63699 0.0
H1069 H 0.19585 0.5358 0.61944 0.0
H1070 H 0.2461 0.61833 0.63975 0.0
H1071 H 0.22786 0.52604 0.66183 0.0
H1072 H 0.23488 0.47336 0.66656 0.0
H1073 H 0.32656 0.48902 0.67684 0.0
H1074 H 0.32013 0.54179 0.67203 0.0
H1075 H 0.24587 0.64344 0.71757 0.0
H1076 H 0.23905 0.61456 0.69678 0.0
H1077 H 0.30483 0.66736 0.67659 0.0
H1078 H 0.31141 0.69687 0.69739 0.0
H1079 H 0.2817 0.58126 0.68421 0.0
H1080 H 0.2914 0.67287 0.6486 0.0
H1081 H 0.27791 0.72528 0.64626 0.0
H1082 H 0.19393 0.70925 0.66558 0.0
H1083 H 0.20722 0.65688 0.66819 0.0
C1084 C 0.26896 0.51879 0.62478 0.0
C1085 C 0.24014 0.51662 0.61919 0.0
C1086 C 0.27551 0.54 0.63473 0.0
C1087 C 0.25335 0.55942 0.6394 0.0
C1088 C 0.22481 0.55796 0.63354 0.0
C1089 C 0.21823 0.53674 0.62356 0.0
C1090 C 0.25936 0.5799 0.65098 0.0
C1091 C 0.25411 0.61018 0.64942 0.0
C1092 C 0.26954 0.56947 0.66369 0.0
C1093 C 0.27361 0.53774 0.66639 0.0
C1094 C 0.24958 0.51818 0.66497 0.0
C1095 C 0.25344 0.48833 0.6677 0.0
C1096 C 0.28118 0.47783 0.67195 0.0
C1097 C 0.30511 0.49718 0.67351 0.0
C1098 C 0.30137 0.52705 0.67079 0.0
C1099 C 0.25873 0.6491 0.70868 0.0
C1100 C 0.2793 0.67232 0.70913 0.0
C1101 C 0.2548 0.63257 0.6968 0.0
C1102 C 0.27134 0.63884 0.68512 0.0
C1103 C 0.29149 0.66242 0.68542 0.0
C1104 C 0.29533 0.67915 0.69733 0.0
C1105 C 0.26843 0.61947 0.67297 0.0
C1106 C 0.27429 0.5894 0.67443 0.0
C1107 C 0.25838 0.62998 0.66031 0.0
C1108 C 0.25023 0.66115 0.65854 0.0
C1109 C 0.27003 0.68059 0.65228 0.0
C1110 C 0.26249 0.71026 0.65097 0.0
C1111 C 0.23506 0.72058 0.65576 0.0
C1112 C 0.21517 0.70125 0.6619 0.0
C1113 C 0.22273 0.67163 0.66334 0.0
H1114 H 0.22923 0.74353 0.65471 0.0
H1115 H 0.28411 0.45472 0.67407 0.0
H1116 H 0.60383 0.74364 0.85436 0.0
H1117 H 0.57525 0.76073 0.87405 0.0
H1118 H 0.63982 0.72143 0.90086 0.0
H1119 H 0.66869 0.70455 0.88132 0.0
H1120 H 0.58058 0.70061 0.90389 0.0
H1121 H 0.63382 0.79255 0.90107 0.0
H1122 H 0.65155 0.83708 0.88957 0.0
H1123 H 0.5612 0.86372 0.88215 0.0
H1124 H 0.54292 0.81912 0.89346 0.0
H1125 H 0.5328 0.73877 0.96894 0.0
H1126 H 0.56108 0.73392 0.94797 0.0
H1127 H 0.49402 0.7836 0.92663 0.0
H1128 H 0.4656 0.78902 0.94779 0.0
H1129 H 0.55049 0.80034 0.91945 0.0
H1130 H 0.49612 0.7114 0.92226 0.0
H1131 H 0.47605 0.6674 0.93337 0.0
H1132 H 0.56479 0.63463 0.93945 0.0
H1133 H 0.58545 0.6787 0.92857 0.0
C1134 C 0.61245 0.73939 0.86444 0.0
C1135 C 0.63835 0.72235 0.86624 0.0
C1136 C 0.59605 0.74915 0.87569 0.0
C1137 C 0.60527 0.742 0.88888 0.0
C1138 C 0.63225 0.72697 0.89073 0.0
C1139 C 0.64881 0.71747 0.87953 0.0
C1140 C 0.5853 0.7471 0.90062 0.0
C1141 C 0.57431 0.72242 0.90741 0.0
C1142 C 0.57604 0.77551 0.90476 0.0
C1143 C 0.58701 0.80232 0.89797 0.0
C1144 C 0.61773 0.80775 0.89687 0.0
C1145 C 0.62788 0.83304 0.89042 0.0
C1146 C 0.60751 0.85317 0.8851 0.0
C1147 C 0.57695 0.84809 0.88626 0.0
C1148 C 0.56668 0.82282 0.8927 0.0
C1149 C 0.52395 0.74863 0.9598 0.0
C1150 C 0.49687 0.76414 0.96 0.0
C1151 C 0.54016 0.74582 0.94781 0.0
C1152 C 0.5295 0.75813 0.93571 0.0
C1153 C 0.50262 0.77392 0.93586 0.0
C1154 C 0.48635 0.77685 0.94793 0.0
C1155 C 0.54649 0.75384 0.92294 0.0
C1156 C 0.55669 0.77854 0.9159 0.0
C1157 C 0.55465 0.72539 0.91837 0.0
C1158 C 0.54236 0.69849 0.92467 0.0
C1159 C 0.51138 0.6949 0.92603 0.0
C1160 C 0.49989 0.66994 0.93229 0.0
C1161 C 0.51914 0.64826 0.93714 0.0
C1162 C 0.54991 0.65146 0.9357 0.0
C1163 C 0.56153 0.67641 0.92947 0.0
H1164 H 0.5102 0.62897 0.94199 0.0
H1165 H 0.61542 0.87274 0.88011 0.0
H1166 H 0.48066 0.06141 0.12002 0.0
H1167 H 0.44874 0.03961 0.13667 0.0
H1168 H 0.39413 0.1178 0.13757 0.0
H1169 H 0.42777 0.14091 0.12108 0.0
H1170 H 0.40604 0.10221 0.16216 0.0
H1171 H 0.36645 0.04834 0.12509 0.0
H1172 H 0.36756 0.02058 0.10346 0.0
H1173 H 0.41873 0.9523 0.12229 0.0
H1174 H 0.4183 0.97976 0.14399 0.0
H1175 H 0.34528 0.00225 0.21411 0.0
H1176 H 0.34205 0.02668 0.19188 0.0
H1177 H 0.43413 0.00524 0.18426 0.0
H1178 H 0.43783 0.98219 0.20657 0.0
H1179 H 0.38134 0.99594 0.16136 0.0
H1180 H 0.43681 0.06365 0.19323 0.0
H1181 H 0.43834 0.0913 0.21492 0.0
H1182 H 0.35495 0.13255 0.20515 0.0
H1183 H 0.35279 0.1047 0.18348 0.0
C1184 C 0.46168 0.07407 0.12354 0.0
C1185 C 0.4569 0.10306 0.11926 0.0
C1186 C 0.44304 0.06126 0.13299 0.0
C1187 C 0.41841 0.07664 0.13817 0.0
C1188 C 0.41281 0.10535 0.13359 0.0
C1189 C 0.43195 0.11851 0.12417 0.0
C1190 C 0.40136 0.06345 0.14949 0.0
C1191 C 0.39954 0.07927 0.1618 0.0
C1192 C 0.39281 0.03342 0.14915 0.0
C1193 C 0.39223 0.01616 0.13622 0.0
C1194 C 0.37794 0.02741 0.12463 0.0
C1195 C 0.37848 0.01172 0.11234 0.0
C1196 C 0.39319 0.98469 0.1115 0.0
C1197 C 0.40726 0.97321 0.12297 0.0
C1198 C 0.40677 0.98878 0.13529 0.0
C1199 C 0.36465 0.00257 0.20757 0.0
C1200 C 0.39187 0.99063 0.21198 0.0
C1201 C 0.36276 0.01642 0.19494 0.0
C1202 C 0.38784 0.01758 0.18651 0.0
C1203 C 0.41456 0.0044 0.19066 0.0
C1204 C 0.4167 0.99143 0.20339 0.0
C1205 C 0.3876 0.03448 0.17381 0.0
C1206 C 0.38628 0.01926 0.1614 0.0
C1207 C 0.39301 0.06499 0.17397 0.0
C1208 C 0.39446 0.0819 0.18687 0.0
C1209 C 0.4187 0.07843 0.19578 0.0
C1210 C 0.4197 0.09415 0.20805 0.0
C1211 C 0.39671 0.1136 0.21143 0.0
C1212 C 0.3727 0.11741 0.20253 0.0
C1213 C 0.37157 0.10166 0.19026 0.0
H1214 H 0.39752 0.12577 0.22093 0.0
H1215 H 0.3937 0.97264 0.10197 0.0
H1216 H 0.13141 0.57715 0.87636 0.0
H1217 H 0.14952 0.60525 0.85692 0.0
H1218 H 0.24002 0.59314 0.87066 0.0
H1219 H 0.22223 0.56541 0.89005 0.0
H1220 H 0.23253 0.64757 0.86094 0.0
H1221 H 0.21286 0.54879 0.84695 0.0
H1222 H 0.18353 0.5035 0.84375 0.0
H1223 H 0.12104 0.55003 0.81876 0.0
H1224 H 0.1498 0.59576 0.822 0.0
H1225 H 0.30329 0.62952 0.79291 0.0
H1226 H 0.28159 0.61726 0.81493 0.0
H1227 H 0.21556 0.68518 0.80988 0.0
H1228 H 0.23764 0.69825 0.78798 0.0
H1229 H 0.20808 0.60723 0.81522 0.0
H1230 H 0.23334 0.70874 0.83153 0.0
H1231 H 0.26976 0.74884 0.83453 0.0
H1232 H 0.32968 0.68987 0.85475 0.0
H1233 H 0.29371 0.64934 0.85168 0.0
C1234 C 0.15512 0.58083 0.87532 0.0
C1235 C 0.1754 0.56876 0.88463 0.0
C1236 C 0.16543 0.59681 0.86421 0.0
C1237 C 0.19614 0.601 0.86229 0.0
C1238 C 0.21626 0.59019 0.87195 0.0
C1239 C 0.20602 0.57413 0.88297 0.0
C1240 C 0.20762 0.61474 0.84978 0.0
C1241 C 0.22695 0.63888 0.85095 0.0
C1242 C 0.20077 0.60314 0.83674 0.0
C1243 C 0.18322 0.57579 0.83488 0.0
C1244 C 0.19267 0.54944 0.8409 0.0
C1245 C 0.1762 0.52368 0.83905 0.0
C1246 C 0.15037 0.52391 0.8311 0.0
C1247 C 0.141 0.54991 0.82496 0.0
C1248 C 0.15738 0.57576 0.82679 0.0
C1249 C 0.28441 0.64214 0.79657 0.0
C1250 C 0.27203 0.66473 0.78871 0.0
C1251 C 0.27216 0.63519 0.80915 0.0
C1252 C 0.24723 0.65053 0.81401 0.0
C1253 C 0.23514 0.67348 0.80635 0.0
C1254 C 0.24771 0.68082 0.79386 0.0
C1255 C 0.23224 0.64037 0.82641 0.0
C1256 C 0.21275 0.61648 0.82521 0.0
C1257 C 0.23948 0.65172 0.8394 0.0
C1258 C 0.26107 0.67599 0.84119 0.0
C1259 C 0.25444 0.70427 0.83645 0.0
C1260 C 0.27494 0.72709 0.83821 0.0
C1261 C 0.30207 0.72188 0.84478 0.0
C1262 C 0.3087 0.69386 0.84963 0.0
C1263 C 0.28826 0.67097 0.84789 0.0
H1264 H 0.3179 0.73957 0.84615 0.0
H1265 H 0.13766 0.50392 0.82966 0.0
H1266 H 0.55491 0.70896 0.15344 0.0
H1267 H 0.52976 0.72312 0.13227 0.0
H1268 H 0.5924 0.67116 0.10921 0.0
H1269 H 0.61716 0.6563 0.13015 0.0
H1270 H 0.58123 0.74298 0.10555 0.0
H1271 H 0.54044 0.64178 0.10537 0.0
H1272 H 0.51168 0.60257 0.11638 0.0
H1273 H 0.43594 0.66001 0.11945 0.0
H1274 H 0.46449 0.69971 0.10863 0.0
H1275 H 0.55651 0.74589 0.03616 0.0
H1276 H 0.56674 0.73087 0.05938 0.0
H1277 H 0.47479 0.74613 0.07001 0.0
H1278 H 0.46409 0.76029 0.04649 0.0
H1279 H 0.49414 0.69814 0.08213 0.0
H1280 H 0.52892 0.79596 0.07922 0.0
H1281 H 0.55526 0.83815 0.06937 0.0
H1282 H 0.63878 0.79316 0.07394 0.0
H1283 H 0.61291 0.7505 0.08366 0.0
C1284 C 0.56287 0.69998 0.14388 0.0
C1285 C 0.58809 0.68157 0.14348 0.0
C1286 C 0.54851 0.70813 0.13183 0.0
C1287 C 0.55934 0.69815 0.11926 0.0
C1288 C 0.58371 0.67892 0.11886 0.0
C1289 C 0.59775 0.6704 0.13086 0.0
C1290 C 0.54729 0.70979 0.10642 0.0
C1291 C 0.56229 0.73317 0.10036 0.0
C1292 C 0.52187 0.69771 0.10004 0.0
C1293 C 0.50469 0.67378 0.10637 0.0
C1294 C 0.51777 0.64613 0.10853 0.0
C1295 C 0.50148 0.6238 0.1147 0.0
C1296 C 0.47203 0.62883 0.11866 0.0
C1297 C 0.45877 0.65616 0.11641 0.0
C1298 C 0.47498 0.67857 0.11025 0.0
C1299 C 0.53841 0.74606 0.04341 0.0
C1300 C 0.50955 0.75457 0.03952 0.0
C1301 C 0.54432 0.73756 0.05671 0.0
C1302 C 0.5217 0.73805 0.06654 0.0
C1303 C 0.49263 0.74577 0.06262 0.0
C1304 C 0.48657 0.7539 0.0492 0.0
C1305 C 0.52889 0.7307 0.08086 0.0
C1306 C 0.5129 0.70831 0.08731 0.0
C1307 C 0.55313 0.74416 0.08775 0.0
C1308 C 0.56893 0.76994 0.08211 0.0
C1309 C 0.55289 0.79499 0.07807 0.0
C1310 C 0.56774 0.819 0.07251 0.0
C1311 C 0.59867 0.81832 0.07102 0.0
C1312 C 0.61482 0.79365 0.07511 0.0
C1313 C 0.60008 0.76957 0.08067 0.0
H1314 H 0.61012 0.83691 0.0667 0.0
H1315 H 0.45946 0.61152 0.12344 0.0
H1316 H 0.49441 0.05606 0.39204 0.0
H1317 H 0.47805 0.02144 0.3742 0.0
H1318 H 0.43266 0.0921 0.35371 0.0
H1319 H 0.4481 0.12622 0.37152 0.0
H1320 H 0.39734 0.04693 0.35525 0.0
H1321 H 0.50038 0.06257 0.34262 0.0
H1322 H 0.55479 0.06204 0.34616 0.0
H1323 H 0.55228 0.96906 0.35306 0.0
H1324 H 0.49776 0.96913 0.34971 0.0
H1325 H 0.38412 0.01132 0.2861 0.0
H1326 H 0.40005 0.03093 0.30814 0.0
H1327 H 0.41814 0.94313 0.32207 0.0
H1328 H 0.4018 0.92317 0.3 0.0
H1329 H 0.46542 0.98668 0.32672 0.0
H1330 H 0.36147 0.9721 0.33494 0.0
H1331 H 0.30803 0.97514 0.32927 0.0
H1332 H 0.31315 0.06931 0.32904 0.0
H1333 H 0.36675 0.06685 0.33451 0.0
C1334 C 0.48119 0.06413 0.38364 0.0
C1335 C 0.4724 0.09376 0.38319 0.0
C1336 C 0.47184 0.04438 0.37348 0.0
C1337 C 0.45402 0.05418 0.36264 0.0
C1338 C 0.44606 0.08394 0.36205 0.0
C1339 C 0.45503 0.10346 0.37222 0.0
C1340 C 0.44296 0.03382 0.3519 0.0
C1341 C 0.41228 0.03379 0.34902 0.0
C1342 C 0.46227 0.01595 0.34402 0.0
C1343 C 0.49498 0.01592 0.34611 0.0
C1344 C 0.5114 0.04206 0.34502 0.0
C1345 C 0.54226 0.04184 0.34696 0.0
C1346 C 0.55697 0.01555 0.34989 0.0
C1347 C 0.54085 0.98942 0.35083 0.0
C1348 C 0.50998 0.98953 0.34891 0.0
C1349 C 0.39135 0.99616 0.29386 0.0
C1350 C 0.39173 0.96575 0.29135 0.0
C1351 C 0.40038 0.00738 0.30644 0.0
C1352 C 0.41014 0.98842 0.31669 0.0
C1353 C 0.41063 0.95803 0.31425 0.0
C1354 C 0.40119 0.94672 0.30169 0.0
C1355 C 0.42016 0.00087 0.32983 0.0
C1356 C 0.4505 -0.0007 0.33319 0.0
C1357 C 0.40064 0.01765 0.33804 0.0
C1358 C 0.3682 0.01927 0.33508 0.0
C1359 C 0.35125 0.99346 0.33362 0.0
C1360 C 0.32092 0.99508 0.33044 0.0
C1361 C 0.30721 0.0224 0.32877 0.0
C1362 C 0.3238 0.04816 0.33034 0.0
C1363 C 0.35415 0.04667 0.3335 0.0
H1364 H 0.28374 0.0236 0.32628 0.0
H1365 H 0.58087 0.01541 0.35138 0.0
H1366 H 0.04094 0.97227 0.62413 0.0
H1367 H 0.06873 0.95221 0.60493 0.0
H1368 H 0.15112 0.96502 0.62682 0.0
H1369 H 0.1234 0.98506 0.64627 0.0
H1370 H 0.15302 0.98078 0.59857 0.0
H1371 H 0.12622 0.89941 0.62649 0.0
H1372 H 0.09244 0.8686 0.63995 0.0
H1373 H 0.03859 0.85231 0.60454 0.0
H1374 H 0.07187 0.88332 0.59089 0.0
H1375 H 0.23216 0.88792 0.5517 0.0
H1376 H 0.21265 0.90766 0.5732 0.0
H1377 H 0.12289 0.89627 0.55833 0.0
H1378 H 0.14211 0.87669 0.5369 0.0
H1379 H 0.12952 0.87817 0.58479 0.0
H1380 H 0.15344 0.96197 0.55738 0.0
H1381 H 0.18606 0.99348 0.54368 0.0
H1382 H 0.24435 0.0058 0.57794 0.0
H1383 H 0.21226 0.97398 0.5918 0.0
C1384 C 0.065 0.97113 0.62487 0.0
C1385 C 0.07994 0.97998 0.63681 0.0
C1386 C 0.08082 0.95957 0.61388 0.0
C1387 C 0.11188 0.9567 0.61458 0.0
C1388 C 0.1271 0.96695 0.62615 0.0
C1389 C 0.11123 0.97841 0.63723 0.0
C1390 C 0.12804 0.94192 0.60335 0.0
C1391 C 0.14838 0.95817 0.5957 0.0
C1392 C 0.12152 0.91258 0.59952 0.0
C1393 C 0.10142 0.8939 0.60769 0.0
C1394 C 0.10704 0.88946 0.62159 0.0
C1395 C 0.08802 0.8719 0.62925 0.0
C1396 C 0.06335 0.85855 0.62311 0.0
C1397 C 0.0577 0.86268 0.60929 0.0
C1398 C 0.07666 0.8802 0.60158 0.0
C1399 C 0.20828 0.8894 0.55308 0.0
C1400 C 0.18865 0.88094 0.5426 0.0
C1401 C 0.19719 0.90077 0.56533 0.0
C1402 C 0.16634 0.90364 0.56729 0.0
C1403 C 0.14676 0.89425 0.55701 0.0
C1404 C 0.15779 0.88317 0.54476 0.0
C1405 C 0.15422 0.91713 0.57987 0.0
C1406 C 0.13455 0.90064 0.58777 0.0
C1407 C 0.16132 0.94625 0.58389 0.0
C1408 C 0.18068 0.96528 0.57557 0.0
C1409 C 0.17338 0.97115 0.56195 0.0
C1410 C 0.19173 0.98912 0.55416 0.0
C1411 C 0.21732 0.00155 0.55992 0.0
C1412 C 0.22456 0.9961 0.57348 0.0
C1413 C 0.2063 0.9781 0.58131 0.0
H1414 H 0.23149 0.01547 0.55388 0.0
H1415 H 0.04865 0.84497 0.62906 0.0
H1416 H 0.69279 0.55973 0.87106 0.0
H1417 H 0.70696 0.5264 0.88951 0.0
H1418 H 0.71366 0.60053 0.91705 0.0
H1419 H 0.70046 0.63363 0.89877 0.0
H1420 H 0.76095 0.56657 0.91928 0.0
H1421 H 0.65274 0.5513 0.91633 0.0
H1422 H 0.60703 0.53589 0.90425 0.0
H1423 H 0.64432 0.45001 0.89757 0.0
H1424 H 0.69038 0.46505 0.9095 0.0
H1425 H 0.74706 0.5343 0.98606 0.0
H1426 H 0.7303 0.54689 0.96329 0.0
H1427 H 0.74866 0.45855 0.94942 0.0
H1428 H 0.76519 0.44547 0.9724 0.0
H1429 H 0.69603 0.48757 0.93693 0.0
H1430 H 0.79929 0.50198 0.94593 0.0
H1431 H 0.84018 0.51851 0.96078 0.0
H1432 H 0.81261 0.60816 0.95597 0.0
H1433 H 0.76994 0.592 0.94199 0.0
C1434 C 0.69709 0.56876 0.8811 0.0
C1435 C 0.69563 0.59926 0.88349 0.0
C1436 C 0.70518 0.54974 0.89161 0.0
C1437 C 0.71142 0.561 0.90466 0.0
C1438 C 0.70927 0.59137 0.90704 0.0
C1439 C 0.7016 0.61028 0.89658 0.0
C1440 C 0.72063 0.54184 0.91602 0.0
C1441 C 0.74679 0.54926 0.92311 0.0
C1442 C 0.70281 0.51842 0.92071 0.0
C1443 C 0.67507 0.50939 0.91366 0.0
C1444 C 0.65124 0.5292 0.9122 0.0
C1445 C 0.62527 0.52052 0.9054 0.0
C1446 C 0.62281 0.49202 0.90011 0.0
C1447 C 0.64628 0.4721 0.90165 0.0
C1448 C 0.6723 0.48068 0.90844 0.0
C1449 C 0.7471 0.51736 0.97825 0.0
C1450 C 0.75805 0.48908 0.98093 0.0
C1451 C 0.73731 0.52454 0.96527 0.0
C1452 C 0.73874 0.50375 0.95468 0.0
C1453 C 0.74746 0.47484 0.95749 0.0
C1454 C 0.75707 0.46751 0.97058 0.0
C1455 C 0.73515 0.51382 0.94054 0.0
C1456 C 0.7105 0.50442 0.93289 0.0
C1457 C 0.75429 0.53563 0.93533 0.0
C1458 C 0.78119 0.54569 0.94294 0.0
C1459 C 0.80175 0.52522 0.9481 0.0
C1460 C 0.82525 0.53453 0.95641 0.0
C1461 C 0.82926 0.5644 0.95919 0.0
C1462 C 0.80955 0.58502 0.95377 0.0
C1463 C 0.78552 0.57576 0.94574 0.0
H1464 H 0.84758 0.57156 0.96558 0.0
H1465 H 0.60269 0.48535 0.89484 0.0
H1466 H 0.54027 0.14955 0.15257 0.0
H1467 H 0.57216 0.17085 0.17021 0.0
H1468 H 0.63025 0.20566 0.13946 0.0
H1469 H 0.59904 0.18317 0.12175 0.0
H1470 H 0.66217 0.1896 0.16059 0.0
H1471 H 0.57585 0.24903 0.15446 0.0
H1472 H 0.52227 0.26018 0.15233 0.0
H1473 H 0.50762 0.22987 0.19294 0.0
H1474 H 0.56105 0.21816 0.19525 0.0
H1475 H 0.72249 0.28532 0.21334 0.0
H1476 H 0.70023 0.26769 0.19192 0.0
H1477 H 0.63377 0.22053 0.21454 0.0
H1478 H 0.65517 0.23856 0.23574 0.0
H1479 H 0.60888 0.2508 0.19473 0.0
H1480 H 0.69659 0.18689 0.19914 0.0
H1481 H 0.75076 0.17816 0.20065 0.0
H1482 H 0.76329 0.22116 0.16245 0.0
H1483 H 0.70922 0.23042 0.1608 0.0
C1484 C 0.56013 0.16129 0.14959 0.0
C1485 C 0.56707 0.16495 0.13583 0.0
C1486 C 0.57822 0.17364 0.15966 0.0
C1487 C 0.60306 0.19064 0.15614 0.0
C1488 C 0.61105 0.19286 0.14241 0.0
C1489 C 0.59324 0.17996 0.13231 0.0
C1490 C 0.61964 0.20712 0.1668 0.0
C1491 C 0.65059 0.20331 0.16795 0.0
C1492 C 0.60462 0.22535 0.17632 0.0
C1493 C 0.57245 0.23255 0.17499 0.0
C1494 C 0.56118 0.24458 0.16291 0.0
C1495 C 0.53083 0.25102 0.16167 0.0
C1496 C 0.51155 0.24569 0.17248 0.0
C1497 C 0.52258 0.23398 0.18457 0.0
C1498 C 0.5529 0.22747 0.18585 0.0
C1499 C 0.70317 0.27113 0.21368 0.0
C1500 C 0.69048 0.26338 0.22619 0.0
C1501 C 0.69057 0.26101 0.20147 0.0
C1502 C 0.66543 0.24267 0.20164 0.0
C1503 C 0.65306 0.23477 0.21415 0.0
C1504 C 0.66535 0.24508 0.22628 0.0
C1505 C 0.65107 0.23194 0.18896 0.0
C1506 C 0.6205 0.23724 0.18731 0.0
C1507 C 0.66653 0.21547 0.17895 0.0
C1508 C 0.69894 0.20961 0.17992 0.0
C1509 C 0.71093 0.19464 0.19111 0.0
C1510 C 0.7416 0.18957 0.19198 0.0
C1511 C 0.76046 0.19917 0.18167 0.0
C1512 C 0.74867 0.21378 0.17044 0.0
C1513 C 0.71802 0.21892 0.16953 0.0
H1514 H 0.7842 0.19525 0.18237 0.0
H1515 H 0.48806 0.25068 0.1715 0.0
H1516 H 0.92169 0.03607 0.38164 0.0
H1517 H 0.91101 0.06747 0.40108 0.0
H1518 H 0.99227 0.11557 0.39426 0.0
H1519 H 0.00382 0.08297 0.37488 0.0
H1520 H 0.98605 0.10632 0.42022 0.0
H1521 H 0.92161 0.14553 0.38666 0.0
H1522 H 0.88457 0.14486 0.3681 0.0
H1523 H 0.81996 0.10693 0.39475 0.0
H1524 H 0.8567 0.10695 0.41342 0.0
H1525 H 0.9287 0.1973 0.47524 0.0
H1526 H 0.9453 0.18506 0.45206 0.0
H1527 H 0.88419 0.1121 0.45077 0.0
H1528 H 0.8679 0.1238 0.4738 0.0
H1529 H 0.88434 0.1468 0.4268 0.0
H1530 H 0.95322 0.09878 0.45822 0.0
H1531 H 0.99037 0.09919 0.47674 0.0
H1532 H 0.04659 0.15591 0.45351 0.0
H1533 H 0.00953 0.15614 0.43492 0.0
C1534 C 0.93729 0.05342 0.38418 0.0
C1535 C 0.9635 0.05721 0.37665 0.0
C1536 C 0.93101 0.07156 0.39528 0.0
C1537 C 0.95036 0.09451 0.39894 0.0
C1538 C 0.97683 0.09821 0.39154 0.0
C1539 C 0.98342 0.07961 0.38049 0.0
C1540 C 0.94314 0.11346 0.41088 0.0
C1541 C 0.96406 0.11587 0.42148 0.0
C1542 C 0.91439 0.1259 0.41263 0.0
C1543 C 0.89201 0.12618 0.40145 0.0
C1544 C 0.89955 0.13692 0.38856 0.0
C1545 C 0.87859 0.13666 0.37801 0.0
C1546 C 0.84994 0.12585 0.38025 0.0
C1547 C 0.84216 0.11533 0.39304 0.0
C1548 C 0.86303 0.11552 0.40361 0.0
C1549 C 0.9187 0.1788 0.46995 0.0
C1550 C 0.89717 0.16136 0.47637 0.0
C1551 C 0.92821 0.17184 0.45675 0.0
C1552 C 0.91597 0.14765 0.44975 0.0
C1553 C 0.89383 0.13089 0.45599 0.0
C1554 C 0.8847 0.13751 0.46919 0.0
C1555 C 0.92685 0.13853 0.43616 0.0
C1556 C 0.90659 0.13801 0.42529 0.0
C1557 C 0.95619 0.12807 0.43413 0.0
C1558 C 0.97846 0.1278 0.44527 0.0
C1559 C 0.97339 0.11155 0.45712 0.0
C1560 C 0.99444 0.11162 0.46761 0.0
C1561 C 0.02078 0.12765 0.46632 0.0
C1562 C 0.02615 0.14357 0.45451 0.0
C1563 C 0.00513 0.1436 0.44399 0.0
H1564 H 0.03706 0.12767 0.47446 0.0
H1565 H 0.83376 0.12564 0.37207 0.0
H1566 H 0.08272 0.45419 0.61972 0.0
H1567 H 0.0523 0.43483 0.6383 0.0
H1568 H 0.12273 0.45568 0.66679 0.0
H1569 H 0.15349 0.47336 0.64823 0.0
H1570 H 0.10411 0.40315 0.67116 0.0
H1571 H 0.05357 0.49723 0.66228 0.0
H1572 H 0.02624 0.53089 0.64717 0.0
H1573 H 0.95863 0.46557 0.64075 0.0
H1574 H 0.98575 0.43141 0.65571 0.0
H1575 H 0.0506 0.40609 0.73608 0.0
H1576 H 0.06665 0.42267 0.7138 0.0
H1577 H 0.98586 0.38847 0.69583 0.0
H1578 H 0.96893 0.3731 0.71844 0.0
H1579 H 0.00308 0.43884 0.68339 0.0
H1580 H 0.04901 0.34754 0.69439 0.0
H1581 H 0.07532 0.31299 0.70941 0.0
H1582 H 0.15075 0.37077 0.71112 0.0
H1583 H 0.12478 0.40583 0.69622 0.0
C1584 C 0.09137 0.45498 0.63001 0.0
C1585 C 0.1203 0.46539 0.63263 0.0
C1586 C 0.07403 0.44392 0.6406 0.0
C1587 C 0.08511 0.44395 0.65399 0.0
C1588 C 0.11372 0.4552 0.65656 0.0
C1589 C 0.13122 0.4655 0.64598 0.0
C1590 C 0.06783 0.43164 0.66546 0.0
C1591 C 0.08209 0.41114 0.67385 0.0
C1592 C 0.03846 0.44081 0.66863 0.0
C1593 C 0.02179 0.46172 0.66001 0.0
C1594 C 0.03291 0.49004 0.65762 0.0
C1595 C 0.01747 0.5092 0.64908 0.0
C1596 C 0.99076 0.50035 0.64298 0.0
C1597 C 0.97934 0.47238 0.64547 0.0
C1598 C 0.99471 0.45314 0.65399 0.0
C1599 C 0.03611 0.40242 0.7274 0.0
C1600 C 0.00878 0.38798 0.72889 0.0
C1601 C 0.04529 0.41183 0.71468 0.0
C1602 C 0.02785 0.40601 0.70309 0.0
C1603 C -0.00025 0.39295 0.70463 0.0
C1604 C 0.99016 0.38415 0.7175 0.0
C1605 C 0.04028 0.41194 0.68945 0.0
C1606 C 0.02497 0.43071 0.68059 0.0
C1607 C 0.06865 0.401 0.68572 0.0
C1608 C 0.08491 0.37934 0.69419 0.0
C1609 C 0.07121 0.35287 0.69796 0.0
C1610 C 0.08605 0.33322 0.70648 0.0
C1611 C 0.11467 0.33969 0.71123 0.0
C1612 C 0.12859 0.36577 0.70742 0.0
C1613 C 0.11386 0.3855 0.69891 0.0
H1614 H 0.12608 0.3245 0.71786 0.0
H1615 H 0.97888 0.51518 0.63634 0.0
H1616 H 0.50544 0.19637 0.38107 0.0
H1617 H 0.53481 0.21516 0.36231 0.0
H1618 H 0.58221 0.27243 0.39003 0.0
H1619 H 0.5535 0.25302 0.409 0.0
H1620 H 0.54754 0.2651 0.35009 0.0
H1621 H 0.6492 0.27383 0.38351 0.0
H1622 H 0.67007 0.25335 0.40468 0.0
H1623 H 0.6277 0.17068 0.39608 0.0
H1624 H 0.6064 0.19084 0.37495 0.0
H1625 H 0.66397 0.30608 0.30475 0.0
H1626 H 0.63553 0.30636 0.32601 0.0
H1627 H 0.65113 0.21335 0.33019 0.0
H1628 H 0.6791 0.21279 0.30892 0.0
H1629 H 0.65583 0.24533 0.35503 0.0
H1630 H 0.58982 0.23145 0.3167 0.0
H1631 H 0.56771 0.24443 0.29459 0.0
H1632 H 0.5369 0.32646 0.31134 0.0
H1633 H 0.55926 0.31411 0.33352 0.0
C1634 C 0.52158 0.21349 0.38317 0.0
C1635 C 0.52747 0.22282 0.39659 0.0
C1636 C 0.53841 0.22422 0.37241 0.0
C1637 C 0.56124 0.24465 0.37481 0.0
C1638 C 0.56522 0.2561 0.38799 0.0
C1639 C 0.54861 0.24515 0.39881 0.0
C1640 C 0.58244 0.25159 0.36376 0.0
C1641 C 0.57127 0.26128 0.35125 0.0
C1642 C 0.61336 0.24607 0.36515 0.0
C1643 C 0.62621 0.23383 0.37774 0.0
C1644 C 0.64445 0.25127 0.38615 0.0
C1645 C 0.65624 0.23976 0.39815 0.0
C1646 C 0.65019 0.21074 0.40173 0.0
C1647 C 0.63229 0.19318 0.39333 0.0
C1648 C 0.62027 0.20465 0.38137 0.0
C1649 C 0.66172 0.28581 0.31033 0.0
C1650 C 0.67345 0.25935 0.30513 0.0
C1651 C 0.64547 0.28601 0.32243 0.0
C1652 C 0.64116 0.25985 0.32959 0.0
C1653 C 0.65428 0.23376 0.32481 0.0
C1654 C 0.67006 0.23345 0.31262 0.0
C1655 C 0.62089 0.2589 0.34141 0.0
C1656 C 0.63225 0.25013 0.35402 0.0
C1657 C 0.59005 0.26458 0.34 0.0
C1658 C 0.57655 0.27205 0.3267 0.0
C1659 C 0.57859 0.25238 0.31563 0.0
C1660 C 0.56596 0.25959 0.30309 0.0
C1661 C 0.551 0.2863 0.30154 0.0
C1662 C 0.54857 0.30581 0.31254 0.0
C1663 C 0.56121 0.29872 0.3251 0.0
H1664 H 0.54121 0.29184 0.29183 0.0
H1665 H 0.65938 0.20185 0.41101 0.0
H1666 H 0.92633 0.98633 0.63482 0.0
H1667 H 0.90878 0.01381 0.61508 0.0
H1668 H 0.91025 0.09392 0.63891 0.0
H1669 H 0.92611 0.06649 0.65874 0.0
H1670 H 0.86781 0.098 0.62167 0.0
H1671 H 0.97131 0.06855 0.61836 0.0
H1672 H 0.01309 0.03325 0.61749 0.0
H1673 H 0.97444 0.99161 0.5823 0.0
H1674 H 0.93224 0.02642 0.58308 0.0
H1675 H 0.89266 0.20302 0.56973 0.0
H1676 H 0.89612 0.17135 0.58968 0.0
H1677 H 0.8929 0.09465 0.56354 0.0
H1678 H 0.89116 0.12618 0.54365 0.0
H1679 H 0.93315 0.08682 0.58142 0.0
H1680 H 0.83127 0.12144 0.58399 0.0
H1681 H 0.79222 0.15961 0.58498 0.0
H1682 H 0.83043 0.19447 0.62179 0.0
H1683 H 0.86992 0.15675 0.62093 0.0
C1684 C 0.92208 0.00966 0.63593 0.0
C1685 C 0.92801 0.02425 0.64831 0.0
C1686 C 0.91234 0.02542 0.62461 0.0
C1687 C 0.90917 0.05615 0.62536 0.0
C1688 C 0.91276 0.07031 0.63799 0.0
C1689 C 0.92186 0.05451 0.64937 0.0
C1690 C 0.90456 0.07399 0.61291 0.0
C1691 C 0.88218 0.09562 0.61289 0.0
C1692 C 0.92307 0.07079 0.60134 0.0
C1693 C 0.94846 0.04986 0.60088 0.0
C1694 C 0.97163 0.05173 0.6105 0.0
C1695 C 0.9954 0.03183 0.61001 0.0
C1696 C 0.99637 0.01015 0.59987 0.0
C1697 C 0.97362 0.00837 0.59017 0.0
C1698 C 0.94978 0.02817 0.59063 0.0
C1699 C 0.89268 0.17939 0.5683 0.0
C1700 C 0.89172 0.16703 0.55518 0.0
C1701 C 0.8944 0.16128 0.57969 0.0
C1702 C 0.89421 0.1305 0.57817 0.0
C1703 C 0.89308 0.11826 0.56502 0.0
C1704 C 0.89209 0.13632 0.55365 0.0
C1705 C 0.8964 0.11088 0.59015 0.0
C1706 C 0.91846 0.08896 0.5901 0.0
C1707 C 0.87782 0.11409 0.60169 0.0
C1708 C 0.85366 0.13636 0.60235 0.0
C1709 C 0.8314 0.1373 0.59227 0.0
C1710 C 0.80919 0.15887 0.59281 0.0
C1711 C 0.80887 0.17948 0.60343 0.0
C1712 C 0.8307 0.1785 0.61356 0.0
C1713 C 0.85297 0.15701 0.61307 0.0
H1714 H 0.79169 0.19618 0.60381 0.0
H1715 H 0.01479 0.99478 0.5995 0.0
H1716 H 0.08156 0.45239 0.90133 0.0
H1717 H 0.05656 0.42276 0.88419 0.0
H1718 H 0.1414 0.38975 0.87021 0.0
H1719 H 0.16693 0.42043 0.88735 0.0
H1720 H 0.10936 0.41337 0.85006 0.0
H1721 H 0.08785 0.3436 0.88506 0.0
H1722 H 0.07064 0.32864 0.90773 0.0
H1723 H 0.98375 0.36371 0.89929 0.0
H1724 H 0.0005 0.37921 0.87664 0.0
H1725 H 0.03196 0.34861 0.796 0.0
H1726 H 0.06268 0.35176 0.81647 0.0
H1727 H 0.98647 0.38235 0.83929 0.0
H1728 H 0.9552 0.37714 0.81891 0.0
H1729 H 0.01927 0.35156 0.85515 0.0
H1730 H 0.03951 0.4302 0.82432 0.0
H1731 H 0.05341 0.4524 0.80248 0.0
H1732 H 0.13841 0.40911 0.80402 0.0
H1733 H 0.12485 0.38636 0.8258 0.0
C1734 C 0.09497 0.43835 0.89482 0.0
C1735 C 0.12623 0.43893 0.89557 0.0
C1736 C 0.08056 0.42114 0.88508 0.0
C1737 C 0.09703 0.40375 0.87598 0.0
C1738 C 0.12826 0.4029 0.87721 0.0
C1739 C 0.14281 0.42028 0.88702 0.0
C1740 C 0.08163 0.3901 0.86415 0.0
C1741 C 0.0902 0.39909 0.85114 0.0
C1742 C 0.0558 0.37259 0.86562 0.0
C1743 C 0.04549 0.3626 0.87913 0.0
C1744 C 0.0651 0.3482 0.88805 0.0
C1745 C 0.05541 0.33962 0.9009 0.0
C1746 C 0.02613 0.34523 0.90495 0.0
C1747 C 0.00642 0.35934 0.89613 0.0
C1748 C 0.01598 0.36795 0.88327 0.0
C1749 C 0.02171 0.35551 0.80546 0.0
C1750 C 0.9914 0.36299 0.80593 0.0
C1751 C 0.03929 0.35745 0.81713 0.0
C1752 C 0.02715 0.36818 0.82935 0.0
C1753 C 0.99642 0.37417 0.82998 0.0
C1754 C 0.97857 0.3713 0.81836 0.0
C1755 C 0.04681 0.37519 0.84111 0.0
C1756 C 0.03893 0.36512 0.85405 0.0
C1757 C 0.07278 0.39255 0.83968 0.0
C1758 C 0.08103 0.40631 0.8266 0.0
C1759 C 0.06109 0.42527 0.81995 0.0
C1760 C 0.06891 0.43797 0.80759 0.0
C1761 C 0.09674 0.4321 0.80184 0.0
C1762 C 0.11684 0.41359 0.80847 0.0
C1763 C 0.1091 0.40079 0.82082 0.0
H1764 H 0.10276 0.44195 0.79227 0.0
H1765 H 0.0187 0.33863 0.91491 0.0
H1766 H 0.76022 0.64097 0.14582 0.0
H1767 H 0.79219 0.61113 0.13059 0.0
H1768 H 0.7138 0.57553 0.11111 0.0
H1769 H 0.68229 0.60497 0.12592 0.0
H1770 H 0.75444 0.53299 0.12293 0.0
H1771 H 0.74933 0.61954 0.09397 0.0
H1772 H 0.75869 0.67152 0.08863 0.0
H1773 H 0.85257 0.65827 0.09447 0.0
H1774 H 0.84367 0.60622 0.10004 0.0
H1775 H 0.74843 0.48308 0.05615 0.0
H1776 H 0.74774 0.51347 0.07674 0.0
H1777 H 0.84114 0.49606 0.0832 0.0
H1778 H 0.84182 0.46471 0.06261 0.0
H1779 H 0.81253 0.56288 0.0826 0.0
H1780 H 0.81355 0.46958 0.10535 0.0
H1781 H 0.79846 0.41784 0.10782 0.0
H1782 H 0.70707 0.44441 0.11182 0.0
H1783 H 0.72155 0.49628 0.10917 0.0
C1784 C 0.75002 0.62733 0.13802 0.0
C1785 C 0.71885 0.62491 0.13713 0.0
C1786 C 0.76821 0.61022 0.12943 0.0
C1787 C 0.7552 0.59076 0.11996 0.0
C1788 C 0.7242 0.59005 0.11851 0.0
C1789 C 0.70624 0.60697 0.12696 0.0
C1790 C 0.77287 0.5694 0.11196 0.0
C1791 C 0.76775 0.53944 0.11428 0.0
C1792 C 0.79051 0.5779 0.10083 0.0
C1793 C 0.7958 0.60919 0.09766 0.0
C1794 C 0.77192 0.62781 0.0943 0.0
C1795 C 0.77715 0.65725 0.09118 0.0
C1796 C 0.80619 0.66823 0.09128 0.0
C1797 C 0.83008 0.64976 0.09445 0.0
C1798 C 0.82496 0.6203 0.0976 0.0
C1799 C 0.76874 0.48542 0.06204 0.0
C1800 C 0.79514 0.47158 0.05785 0.0
C1801 C 0.76834 0.5028 0.07374 0.0
C1802 C 0.79443 0.50703 0.08136 0.0
C1803 C 0.82086 0.49299 0.07737 0.0
C1804 C 0.82113 0.475 0.06573 0.0
C1805 C 0.79314 0.52666 0.09335 0.0
C1806 C 0.80091 0.55627 0.09172 0.0
C1807 C 0.77744 0.51794 0.10502 0.0
C1808 C 0.76867 0.48683 0.10703 0.0
C1809 C 0.79022 0.46438 0.1067 0.0
C1810 C 0.78178 0.43503 0.10813 0.0
C1811 C 0.75182 0.42784 0.10996 0.0
C1812 C 0.73027 0.45001 0.11042 0.0
C1813 C 0.7386 0.4794 0.10898 0.0
H1814 H 0.74532 0.40509 0.11103 0.0
H1815 H 0.8102 0.69102 0.08884 0.0
loop_
_geom_bond_atom_site_label_1
_geom_bond_atom_site_label_2
_geom_bond_distance
_geom_bond_site_symmetry_2
_ccdc_geom_bond_type
Mg0 O7 2.141 . S
Mg0 O8 2.048 1_545 S
Mg0 O9 2.048 1_455 S
Mg0 O12 2.141 1_455 S
C1 O2 1.313 . S
C1 O8 1.195 . S
O2 C1 1.313 . S
C3 O4 1.245 . S
C3 O12 1.289 . S
O4 C3 1.245 . S
C5 O6 1.245 . S
C5 O7 1.289 1_565 S
O6 C5 1.245 . S
O7 Mg0 2.141 . S
O7 C5 1.289 1_545 S
O8 Mg0 2.048 1_565 S
O8 C1 1.195 . S
O9 Mg0 2.048 1_655 S
O9 C10 1.195 . S
C10 O9 1.195 . S
C10 O11 1.313 1_545 S
O11 C10 1.313 1_565 S
O12 Mg0 2.141 1_655 S
O12 C3 1.289 . S
Mg13 O20 2.141 . S
Mg13 O21 2.048 . S
Mg13 O22 2.048 . S
Mg13 O25 2.141 . S
C14 O15 1.313 . S
C14 O21 1.195 . S
O15 C14 1.313 . S
C16 O17 1.245 . S
C16 O25 1.289 . S
O17 C16 1.245 . S
C18 O19 1.245 . S
C18 O20 1.289 . S
O19 C18 1.245 . S
O20 Mg13 2.141 . S
O20 C18 1.289 . S
O21 Mg13 2.048 . S
O21 C14 1.195 . S
O22 Mg13 2.048 . S
O22 C23 1.195 . S
C23 O22 1.195 . S
C23 O24 1.313 . S
O24 C23 1.313 . S
O25 Mg13 2.141 . S
O25 C16 1.289 . S
Mg26 O33 2.141 . S
Mg26 O34 2.048 . S
Mg26 O35 2.048 . S
Mg26 O38 2.141 . S
C27 O28 1.313 . S
C27 O34 1.195 . S
O28 C27 1.313 . S
C29 O30 1.245 . S
C29 O38 1.289 . S
O30 C29 1.245 . S
C31 O32 1.245 . S
C31 O33 1.289 . S
O32 C31 1.245 . S
O33 Mg26 2.141 . S
O33 C31 1.289 . S
O34 Mg26 2.048 . S
O34 C27 1.195 . S
O35 Mg26 2.048 . S
O35 C36 1.195 . S
C36 O35 1.195 . S
C36 O37 1.313 . S
O37 C36 1.313 . S
O38 Mg26 2.141 . S
O38 C29 1.289 . S
Mg39 O46 2.141 . S
Mg39 O47 2.048 . S
Mg39 O48 2.048 . S
Mg39 O51 2.141 . S
C40 O41 1.313 . S
C40 O47 1.195 . S
O41 C40 1.313 . S
C42 O43 1.245 . S
C42 O51 1.289 . S
O43 C42 1.245 . S
C44 O45 1.245 . S
C44 O46 1.289 . S
O45 C44 1.245 . S
O46 Mg39 2.141 . S
O46 C44 1.289 . S
O47 Mg39 2.048 . S
O47 C40 1.195 . S
O48 Mg39 2.048 . S
O48 C49 1.195 . S
C49 O48 1.195 . S
C49 O50 1.313 . S
O50 C49 1.313 . S
O51 Mg39 2.141 . S
O51 C42 1.289 . S
Mg52 O59 2.141 . S
Mg52 O60 2.048 . S
Mg52 O61 2.048 . S
Mg52 O64 2.141 . S
C53 O54 1.313 . S
C53 O60 1.195 . S
O54 C53 1.313 . S
C55 O56 1.245 . S
C55 O64 1.289 . S
O56 C55 1.245 . S
C57 O58 1.245 . S
C57 O59 1.289 . S
O58 C57 1.245 . S
O59 Mg52 2.141 . S
O59 C57 1.289 . S
O60 Mg52 2.048 . S
O60 C53 1.195 . S
O61 Mg52 2.048 . S
O61 C62 1.195 . S
C62 O61 1.195 . S
C62 O63 1.313 . S
O63 C62 1.313 . S
O64 Mg52 2.141 . S
O64 C55 1.289 . S
Mg65 O72 2.141 . S
Mg65 O73 2.048 . S
Mg65 O74 2.048 . S
Mg65 O77 2.141 . S
C66 O67 1.313 . S
C66 O73 1.195 . S
O67 C66 1.313 . S
C68 O69 1.245 . S
C68 O77 1.289 . S
O69 C68 1.245 . S
C70 O71 1.245 . S
C70 O72 1.289 . S
O71 C70 1.245 . S
O72 Mg65 2.141 . S
O72 C70 1.289 . S
O73 Mg65 2.048 . S
O73 C66 1.195 . S
O74 Mg65 2.048 . S
O74 C75 1.195 . S
C75 O74 1.195 . S
C75 O76 1.313 . S
O76 C75 1.313 . S
O77 Mg65 2.141 . S
O77 C68 1.289 . S
Mg78 O85 2.141 . S
Mg78 O86 2.048 . S
Mg78 O87 2.048 . S
Mg78 O90 2.141 . S
C79 O80 1.313 . S
C79 O86 1.195 . S
O80 C79 1.313 . S
C81 O82 1.245 . S
C81 O90 1.289 . S
O82 C81 1.245 . S
C83 O84 1.245 . S
C83 O85 1.289 . S
O84 C83 1.245 . S
O85 Mg78 2.141 . S
O85 C83 1.289 . S
O86 Mg78 2.048 . S
O86 C79 1.195 . S
O87 Mg78 2.048 . S
O87 C88 1.195 . S
C88 O87 1.195 . S
C88 O89 1.313 . S
O89 C88 1.313 . S
O90 Mg78 2.141 . S
O90 C81 1.289 . S
Mg91 O98 2.141 . S
Mg91 O99 2.048 . S
Mg91 O100 2.048 1_465 S
Mg91 O103 2.141 1_465 S
C92 O93 1.313 . S
C92 O99 1.195 . S
O93 C92 1.313 . S
C94 O95 1.245 . S
C94 O103 1.289 1_455 S
O95 C94 1.245 . S
C96 O97 1.245 . S
C96 O98 1.289 . S
O97 C96 1.245 . S
O98 Mg91 2.141 . S
O98 C96 1.289 . S
O99 Mg91 2.048 . S
O99 C92 1.195 . S
O100 Mg91 2.048 1_645 S
O100 C101 1.195 . S
C101 O100 1.195 . S
C101 O102 1.313 1_655 S
O102 C101 1.313 1_455 S
O103 Mg91 2.141 1_645 S
O103 C94 1.289 1_655 S
C104 O105 1.306 . S
C104 O107 1.160 . S
O105 C104 1.306 . S
O105 Cd106 2.228 . S
Cd106 O105 2.228 . S
Cd106 O110 2.273 1_554 S
Cd106 O114 2.277 . S
O107 C104 1.160 . S
O107 Cd108 2.203 . S
Cd108 O107 2.203 . S
Cd108 O110 2.411 1_554 S
Cd108 O111 2.333 1_554 S
Cd108 O112 2.352 1_554 S
Cd108 O116 2.277 . S
Cd108 O117 2.356 1_554 S
C109 O114 1.209 . S
C109 O116 1.226 . S
O110 Cd106 2.273 1_556 S
O110 Cd108 2.411 1_556 S
O110 C113 1.320 . S
O111 Cd108 2.333 1_556 S
O111 C113 1.214 . S
O112 Cd108 2.352 1_556 S
O112 C115 1.258 . S
C113 O110 1.320 . S
C113 O111 1.214 . S
O114 Cd106 2.277 . S
O114 C109 1.209 . S
C115 O112 1.258 . S
C115 O117 1.282 . S
O116 Cd108 2.277 . S
O116 C109 1.226 . S
O117 Cd108 2.356 1_556 S
O117 C115 1.282 . S
C118 O119 1.306 . S
C118 O121 1.160 . S
O119 C118 1.306 . S
O119 Cd120 2.228 . S
Cd120 O119 2.228 . S
Cd120 O124 2.273 . S
Cd120 O128 2.277 . S
O121 C118 1.160 . S
O121 Cd122 2.203 . S
Cd122 O121 2.203 . S
Cd122 O124 2.411 . S
Cd122 O125 2.333 . S
Cd122 O126 2.352 . S
Cd122 O130 2.277 . S
Cd122 O131 2.356 . S
C123 O128 1.209 . S
C123 O130 1.226 . S
O124 Cd120 2.273 . S
O124 Cd122 2.411 . S
O124 C127 1.320 . S
O125 Cd122 2.333 . S
O125 C127 1.214 . S
O126 Cd122 2.352 . S
O126 C129 1.258 . S
C127 O124 1.320 . S
C127 O125 1.214 . S
O128 Cd120 2.277 . S
O128 C123 1.209 . S
C129 O126 1.258 . S
C129 O131 1.282 . S
O130 Cd122 2.277 . S
O130 C123 1.226 . S
O131 Cd122 2.356 . S
O131 C129 1.282 . S
C132 O133 1.306 . S
C132 O135 1.160 . S
O133 C132 1.306 . S
O133 Cd134 2.228 . S
Cd134 O133 2.228 . S
Cd134 O138 2.273 . S
Cd134 O142 2.277 . S
O135 C132 1.160 . S
O135 Cd136 2.203 . S
Cd136 O135 2.203 . S
Cd136 O138 2.411 . S
Cd136 O139 2.333 . S
Cd136 O140 2.352 . S
Cd136 O144 2.277 . S
Cd136 O145 2.356 . S
C137 O142 1.209 . S
C137 O144 1.226 . S
O138 Cd134 2.273 . S
O138 Cd136 2.411 . S
O138 C141 1.320 . S
O139 Cd136 2.333 . S
O139 C141 1.214 . S
O140 Cd136 2.352 . S
O140 C143 1.258 . S
C141 O138 1.320 . S
C141 O139 1.214 . S
O142 Cd134 2.277 . S
O142 C137 1.209 . S
C143 O140 1.258 . S
C143 O145 1.282 . S
O144 Cd136 2.277 . S
O144 C137 1.226 . S
O145 Cd136 2.356 . S
O145 C143 1.282 . S
C146 O147 1.306 . S
C146 O149 1.160 . S
O147 C146 1.306 . S
O147 Cd148 2.228 . S
Cd148 O147 2.228 . S
Cd148 O152 2.273 . S
Cd148 O156 2.277 . S
O149 C146 1.160 . S
O149 Cd150 2.203 . S
Cd150 O149 2.203 . S
Cd150 O152 2.411 . S
Cd150 O153 2.333 . S
Cd150 O154 2.352 . S
Cd150 O158 2.277 . S
Cd150 O159 2.356 . S
C151 O156 1.209 . S
C151 O158 1.226 . S
O152 Cd148 2.273 . S
O152 Cd150 2.411 . S
O152 C155 1.320 . S
O153 Cd150 2.333 . S
O153 C155 1.214 . S
O154 Cd150 2.352 . S
O154 C157 1.258 . S
C155 O152 1.320 . S
C155 O153 1.214 . S
O156 Cd148 2.277 . S
O156 C151 1.209 . S
C157 O154 1.258 . S
C157 O159 1.282 . S
O158 Cd150 2.277 . S
O158 C151 1.226 . S
O159 Cd150 2.356 . S
O159 C157 1.282 . S
C160 O161 1.306 . S
C160 O163 1.160 . S
O161 C160 1.306 . S
O161 Cd162 2.228 . S
Cd162 O161 2.228 . S
Cd162 O166 2.273 . S
Cd162 O170 2.277 . S
O163 C160 1.160 . S
O163 Cd164 2.203 . S
Cd164 O163 2.203 . S
Cd164 O166 2.411 . S
Cd164 O167 2.333 . S
Cd164 O168 2.352 . S
Cd164 O172 2.277 . S
Cd164 O173 2.356 . S
C165 O170 1.209 . S
C165 O172 1.226 . S
O166 Cd162 2.273 . S
O166 Cd164 2.411 . S
O166 C169 1.320 . S
O167 Cd164 2.333 . S
O167 C169 1.214 . S
O168 Cd164 2.352 . S
O168 C171 1.258 . S
C169 O166 1.320 . S
C169 O167 1.214 . S
O170 Cd162 2.277 . S
O170 C165 1.209 . S
C171 O168 1.258 . S
C171 O173 1.282 . S
O172 Cd164 2.277 . S
O172 C165 1.226 . S
O173 Cd164 2.356 . S
O173 C171 1.282 . S
C174 O175 1.306 . S
C174 O177 1.160 . S
O175 C174 1.306 . S
O175 Cd176 2.228 1_655 S
Cd176 O175 2.228 1_455 S
Cd176 O180 2.273 1_455 S
Cd176 O184 2.277 1_455 S
O177 C174 1.160 . S
O177 Cd178 2.203 . S
Cd178 O177 2.203 . S
Cd178 O180 2.411 . S
Cd178 O181 2.333 . S
Cd178 O182 2.352 . S
Cd178 O186 2.277 . S
Cd178 O187 2.356 . S
C179 O184 1.209 . S
C179 O186 1.226 . S
O180 Cd176 2.273 1_655 S
O180 Cd178 2.411 . S
O180 C183 1.320 . S
O181 Cd178 2.333 . S
O181 C183 1.214 . S
O182 Cd178 2.352 . S
O182 C185 1.258 . S
C183 O180 1.320 . S
C183 O181 1.214 . S
O184 Cd176 2.277 1_655 S
O184 C179 1.209 . S
C185 O182 1.258 . S
C185 O187 1.282 . S
O186 Cd178 2.277 . S
O186 C179 1.226 . S
O187 Cd178 2.356 . S
O187 C185 1.282 . S
C188 O189 1.307 . S
C188 O191 1.160 . S
O189 C188 1.307 . S
O189 Cd190 2.226 1_556 S
Cd190 O189 2.226 1_554 S
Cd190 O194 2.273 . S
Cd190 O198 2.277 . S
O191 C188 1.160 . S
O191 Cd192 2.203 1_556 S
Cd192 O191 2.203 1_554 S
Cd192 O194 2.411 . S
Cd192 O195 2.333 . S
Cd192 O196 2.352 . S
Cd192 O200 2.277 . S
Cd192 O201 2.356 . S
C193 O198 1.209 . S
C193 O200 1.226 . S
O194 Cd190 2.273 . S
O194 Cd192 2.411 . S
O194 C197 1.320 . S
O195 Cd192 2.333 . S
O195 C197 1.214 . S
O196 Cd192 2.352 . S
O196 C199 1.258 . S
C197 O194 1.320 . S
C197 O195 1.214 . S
O198 Cd190 2.277 . S
O198 C193 1.209 . S
C199 O196 1.258 . S
C199 O201 1.282 . S
O200 Cd192 2.277 . S
O200 C193 1.226 . S
O201 Cd192 2.356 . S
O201 C199 1.282 . S
C202 O203 1.306 . S
C202 O205 1.160 . S
O203 C202 1.306 . S
O203 Cd204 2.228 . S
Cd204 O203 2.228 . S
Cd204 O208 2.273 . S
Cd204 O212 2.277 . S
O205 C202 1.160 . S
O205 Cd206 2.203 . S
Cd206 O205 2.203 . S
Cd206 O208 2.411 . S
Cd206 O209 2.333 . S
Cd206 O210 2.352 . S
Cd206 O214 2.277 . S
Cd206 O215 2.356 . S
C207 O212 1.209 . S
C207 O214 1.226 . S
O208 Cd204 2.273 . S
O208 Cd206 2.411 . S
O208 C211 1.320 . S
O209 Cd206 2.333 . S
O209 C211 1.214 . S
O210 Cd206 2.352 . S
O210 C213 1.258 . S
C211 O208 1.320 . S
C211 O209 1.214 . S
O212 Cd204 2.277 . S
O212 C207 1.209 . S
C213 O210 1.258 . S
C213 O215 1.282 . S
O214 Cd206 2.277 . S
O214 C207 1.226 . S
O215 Cd206 2.356 . S
O215 C213 1.282 . S
H216 C234 0.951 . S
H217 C236 0.951 . S
H218 C238 0.950 . S
H219 C239 0.950 . S
H220 C241 0.950 . S
H221 C244 0.950 . S
H222 C245 0.950 . S
H223 C247 0.950 . S
H224 C248 0.950 . S
H225 C249 0.951 . S
H226 C251 0.951 . S
H227 C253 0.950 . S
H228 C254 0.950 . S
H229 C256 0.950 . S
H230 C259 0.950 . S
H231 C260 0.950 . S
H232 C262 0.950 . S
H233 C263 0.950 . S
C234 H216 0.951 . S
C234 C235 1.366 . S
C234 C236 1.388 . S
C235 C234 1.366 . S
C235 C239 1.385 . S
C236 H217 0.951 . S
C236 C234 1.388 . S
C236 C237 1.366 . S
C237 C236 1.366 . S
C237 C238 1.414 . S
C237 C240 1.499 . S
C238 H218 0.950 . S
C238 C237 1.414 . S
C238 C239 1.374 . S
C239 H219 0.950 . S
C239 C235 1.385 . S
C239 C238 1.374 . S
C240 C237 1.499 . S
C240 C241 1.373 . S
C240 C242 1.389 . S
C241 H220 0.950 . S
C241 C240 1.373 . S
C241 C257 1.377 . S
C242 C240 1.389 . S
C242 C243 1.524 . S
C242 C256 1.377 . S
C243 C242 1.524 . S
C243 C244 1.397 . S
C243 C248 1.363 . S
C244 H221 0.950 . S
C244 C243 1.397 . S
C244 C245 1.334 . S
C245 H222 0.950 . S
C245 C244 1.334 . S
C245 C246 1.287 . S
C246 C245 1.287 . S
C246 C247 1.524 . S
C246 H265 0.913 . S
C247 H223 0.950 . S
C247 C246 1.524 . S
C247 C248 1.415 . S
C248 H224 0.950 . S
C248 C243 1.363 . S
C248 C247 1.415 . S
C249 H225 0.951 . S
C249 C250 1.366 . S
C249 C251 1.388 . S
C250 C249 1.366 . S
C250 C254 1.385 . S
C251 H226 0.951 . S
C251 C249 1.388 . S
C251 C252 1.366 . S
C252 C251 1.366 . S
C252 C253 1.414 . S
C252 C255 1.499 . S
C253 H227 0.950 . S
C253 C252 1.414 . S
C253 C254 1.374 . S
C254 H228 0.950 . S
C254 C250 1.385 . S
C254 C253 1.374 . S
C255 C252 1.499 . S
C255 C256 1.373 . S
C255 C257 1.389 . S
C256 H229 0.950 . S
C256 C242 1.377 . S
C256 C255 1.373 . S
C257 C241 1.377 . S
C257 C255 1.389 . S
C257 C258 1.524 1_565 S
C258 C257 1.524 1_545 S
C258 C259 1.397 . S
C258 C263 1.363 . S
C259 H230 0.950 . S
C259 C258 1.397 . S
C259 C260 1.334 . S
C260 H231 0.950 . S
C260 C259 1.334 . S
C260 C261 1.287 . S
C261 C260 1.287 . S
C261 C262 1.524 . S
C261 H264 0.999 . S
C262 H232 0.950 . S
C262 C261 1.524 . S
C262 C263 1.415 . S
C263 H233 0.950 . S
C263 C258 1.363 . S
C263 C262 1.415 . S
H264 C261 0.999 . S
H265 C246 0.913 . S
H266 C284 0.951 . S
H267 C286 0.951 . S
H268 C288 0.950 . S
H269 C289 0.950 . S
H270 C291 0.950 . S
H271 C294 0.950 . S
H272 C295 0.950 . S
H273 C297 0.950 . S
H274 C298 0.950 . S
H275 C299 0.951 . S
H276 C301 0.951 . S
H277 C303 0.950 . S
H278 C304 0.950 . S
H279 C306 0.950 . S
H280 C309 0.950 . S
H281 C310 0.950 . S
H282 C312 0.950 . S
H283 C313 0.950 . S
C284 H266 0.951 . S
C284 C285 1.366 . S
C284 C286 1.388 . S
C285 C284 1.366 . S
C285 C289 1.385 . S
C286 H267 0.951 . S
C286 C284 1.388 . S
C286 C287 1.366 . S
C287 C286 1.366 . S
C287 C288 1.414 . S
C287 C290 1.499 . S
C288 H268 0.950 . S
C288 C287 1.414 . S
C288 C289 1.374 . S
C289 H269 0.950 . S
C289 C285 1.385 . S
C289 C288 1.374 . S
C290 C287 1.499 . S
C290 C291 1.373 . S
C290 C292 1.389 . S
C291 H270 0.950 . S
C291 C290 1.373 . S
C291 C307 1.377 . S
C292 C290 1.389 . S
C292 C293 1.524 . S
C292 C306 1.377 . S
C293 C292 1.524 . S
C293 C294 1.397 . S
C293 C298 1.363 . S
C294 H271 0.950 . S
C294 C293 1.397 . S
C294 C295 1.334 . S
C295 H272 0.950 . S
C295 C294 1.334 . S
C295 C296 1.287 . S
C296 C295 1.287 . S
C296 C297 1.524 . S
C296 H315 0.913 . S
C297 H273 0.950 . S
C297 C296 1.524 . S
C297 C298 1.415 . S
C298 H274 0.950 . S
C298 C293 1.363 . S
C298 C297 1.415 . S
C299 H275 0.951 . S
C299 C300 1.366 . S
C299 C301 1.388 . S
C300 C299 1.366 . S
C300 C304 1.385 . S
C301 H276 0.951 . S
C301 C299 1.388 . S
C301 C302 1.366 . S
C302 C301 1.366 . S
C302 C303 1.414 . S
C302 C305 1.499 . S
C303 H277 0.950 . S
C303 C302 1.414 . S
C303 C304 1.374 . S
C304 H278 0.950 . S
C304 C300 1.385 . S
C304 C303 1.374 . S
C305 C302 1.499 . S
C305 C306 1.373 . S
C305 C307 1.389 . S
C306 H279 0.950 . S
C306 C292 1.377 . S
C306 C305 1.373 . S
C307 C291 1.377 . S
C307 C305 1.389 . S
C307 C308 1.524 . S
C308 C307 1.524 . S
C308 C309 1.397 . S
C308 C313 1.363 . S
C309 H280 0.950 . S
C309 C308 1.397 . S
C309 C310 1.334 . S
C310 H281 0.950 . S
C310 C309 1.334 . S
C310 C311 1.287 . S
C311 C310 1.287 . S
C311 C312 1.524 . S
C311 H314 0.999 . S
C312 H282 0.950 . S
C312 C311 1.524 . S
C312 C313 1.415 . S
C313 H283 0.950 . S
C313 C308 1.363 . S
C313 C312 1.415 . S
H314 C311 0.999 . S
H315 C296 0.913 . S
H316 C334 0.951 . S
H317 C336 0.951 . S
H318 C338 0.950 . S
H319 C339 0.950 . S
H320 C341 0.950 . S
H321 C344 0.950 . S
H322 C345 0.950 . S
H323 C347 0.950 . S
H324 C348 0.950 . S
H325 C349 0.951 . S
H326 C351 0.951 . S
H327 C353 0.950 . S
H328 C354 0.950 . S
H329 C356 0.950 . S
H330 C359 0.950 . S
H331 C360 0.950 . S
H332 C362 0.950 . S
H333 C363 0.950 . S
C334 H316 0.951 . S
C334 C335 1.366 . S
C334 C336 1.388 . S
C335 C334 1.366 . S
C335 C339 1.385 . S
C336 H317 0.951 . S
C336 C334 1.388 . S
C336 C337 1.366 . S
C337 C336 1.366 . S
C337 C338 1.414 . S
C337 C340 1.499 . S
C338 H318 0.950 . S
C338 C337 1.414 . S
C338 C339 1.374 . S
C339 H319 0.950 . S
C339 C335 1.385 . S
C339 C338 1.374 . S
C340 C337 1.499 . S
C340 C341 1.373 . S
C340 C342 1.389 . S
C341 H320 0.950 . S
C341 C340 1.373 . S
C341 C357 1.377 . S
C342 C340 1.389 . S
C342 C343 1.524 . S
C342 C356 1.377 . S
C343 C342 1.524 . S
C343 C344 1.397 . S
C343 C348 1.363 . S
C344 H321 0.950 . S
C344 C343 1.397 . S
C344 C345 1.334 . S
C345 H322 0.950 . S
C345 C344 1.334 . S
C345 C346 1.287 . S
C346 C345 1.287 . S
C346 C347 1.524 . S
C346 H365 0.913 . S
C347 H323 0.950 . S
C347 C346 1.524 . S
C347 C348 1.415 . S
C348 H324 0.950 . S
C348 C343 1.363 . S
C348 C347 1.415 . S
C349 H325 0.951 . S
C349 C350 1.366 . S
C349 C351 1.388 . S
C350 C349 1.366 . S
C350 C354 1.385 . S
C351 H326 0.951 . S
C351 C349 1.388 . S
C351 C352 1.366 . S
C352 C351 1.366 . S
C352 C353 1.414 . S
C352 C355 1.499 . S
C353 H327 0.950 . S
C353 C352 1.414 . S
C353 C354 1.374 . S
C354 H328 0.950 . S
C354 C350 1.385 . S
C354 C353 1.374 . S
C355 C352 1.499 . S
C355 C356 1.373 . S
C355 C357 1.389 . S
C356 H329 0.950 . S
C356 C342 1.377 . S
C356 C355 1.373 . S
C357 C341 1.377 . S
C357 C355 1.389 . S
C357 C358 1.524 . S
C358 C357 1.524 . S
C358 C359 1.397 . S
C358 C363 1.363 . S
C359 H330 0.950 . S
C359 C358 1.397 . S
C359 C360 1.334 . S
C360 H331 0.950 . S
C360 C359 1.334 . S
C360 C361 1.287 . S
C361 C360 1.287 . S
C361 C362 1.524 . S
C361 H364 0.999 . S
C362 H332 0.950 . S
C362 C361 1.524 . S
C362 C363 1.415 . S
C363 H333 0.950 . S
C363 C358 1.363 . S
C363 C362 1.415 . S
H364 C361 0.999 . S
H365 C346 0.913 . S
H366 C384 0.951 . S
H367 C386 0.951 . S
H368 C388 0.950 . S
H369 C389 0.950 . S
H370 C391 0.950 . S
H371 C394 0.950 . S
H372 C395 0.950 . S
H373 C397 0.950 . S
H374 C398 0.950 . S
H375 C399 0.951 . S
H376 C401 0.951 . S
H377 C403 0.950 . S
H378 C404 0.950 . S
H379 C406 0.950 . S
H380 C409 0.950 . S
H381 C410 0.950 . S
H382 C412 0.950 . S
H383 C413 0.950 . S
C384 H366 0.951 . S
C384 C385 1.366 . S
C384 C386 1.388 . S
C385 C384 1.366 . S
C385 C389 1.385 . S
C386 H367 0.951 . S
C386 C384 1.388 . S
C386 C387 1.366 . S
C387 C386 1.366 . S
C387 C388 1.414 . S
C387 C390 1.499 . S
C388 H368 0.950 . S
C388 C387 1.414 . S
C388 C389 1.374 . S
C389 H369 0.950 . S
C389 C385 1.385 . S
C389 C388 1.374 . S
C390 C387 1.499 . S
C390 C391 1.373 . S
C390 C392 1.389 1_545 S
C391 H370 0.950 . S
C391 C390 1.373 . S
C391 C407 1.377 1_545 S
C392 C390 1.389 1_565 S
C392 C393 1.524 . S
C392 C406 1.377 . S
C393 C392 1.524 . S
C393 C394 1.397 . S
C393 C398 1.363 . S
C394 H371 0.950 . S
C394 C393 1.397 . S
C394 C395 1.334 . S
C395 H372 0.950 . S
C395 C394 1.334 . S
C395 C396 1.287 . S
C396 C395 1.287 . S
C396 C397 1.524 . S
C396 H415 0.913 . S
C397 H373 0.950 . S
C397 C396 1.524 . S
C397 C398 1.415 . S
C398 H374 0.950 . S
C398 C393 1.363 . S
C398 C397 1.415 . S
C399 H375 0.951 . S
C399 C400 1.366 . S
C399 C401 1.388 . S
C400 C399 1.366 . S
C400 C404 1.385 . S
C401 H376 0.951 . S
C401 C399 1.388 . S
C401 C402 1.366 . S
C402 C401 1.366 . S
C402 C403 1.414 . S
C402 C405 1.499 . S
C403 H377 0.950 . S
C403 C402 1.414 . S
C403 C404 1.374 . S
C404 H378 0.950 . S
C404 C400 1.385 . S
C404 C403 1.374 . S
C405 C402 1.499 . S
C405 C406 1.373 . S
C405 C407 1.389 . S
C406 H379 0.950 . S
C406 C392 1.377 . S
C406 C405 1.373 . S
C407 C391 1.377 1_565 S
C407 C405 1.389 . S
C407 C408 1.524 . S
C408 C407 1.524 . S
C408 C409 1.397 . S
C408 C413 1.363 1_565 S
C409 H380 0.950 . S
C409 C408 1.397 . S
C409 C410 1.334 1_554 S
C410 H381 0.950 . S
C410 C409 1.334 1_556 S
C410 C411 1.287 . S
C411 C410 1.287 . S
C411 C412 1.524 1_565 S
C411 H414 0.999 . S
C412 H382 0.950 . S
C412 C411 1.524 1_545 S
C412 C413 1.415 1_556 S
C413 H383 0.950 . S
C413 C408 1.363 1_545 S
C413 C412 1.415 1_554 S
H414 C411 0.999 . S
H415 C396 0.913 . S
H416 C434 0.951 . S
H417 C436 0.951 . S
H418 C438 0.950 . S
H419 C439 0.950 . S
H420 C441 0.950 . S
H421 C444 0.950 . S
H422 C445 0.950 . S
H423 C447 0.885 1_554 S
H424 C448 0.939 1_554 S
H425 C449 0.951 . S
H426 C451 0.951 . S
H427 C453 0.950 1_554 S
H428 C454 0.950 . S
H429 C456 0.950 . S
H430 C459 0.950 . S
H431 C460 0.950 . S
H432 C462 0.950 . S
H433 C463 0.950 . S
C434 H416 0.951 . S
C434 C435 1.366 . S
C434 C436 1.388 . S
C435 C434 1.366 . S
C435 C439 1.385 . S
C436 H417 0.951 . S
C436 C434 1.388 . S
C436 C437 1.366 . S
C437 C436 1.366 . S
C437 C438 1.414 . S
C437 C440 1.499 . S
C438 H418 0.950 . S
C438 C437 1.414 . S
C438 C439 1.374 . S
C439 H419 0.950 . S
C439 C435 1.385 . S
C439 C438 1.374 . S
C440 C437 1.499 . S
C440 C441 1.373 . S
C440 C442 1.389 . S
C441 H420 0.950 . S
C441 C440 1.373 . S
C441 C457 1.377 . S
C442 C440 1.389 . S
C442 C443 1.524 . S
C442 C456 1.377 . S
C443 C442 1.524 . S
C443 C444 1.397 . S
C443 C448 1.363 . S
C444 H421 0.950 . S
C444 C443 1.397 . S
C444 C445 1.334 . S
C445 H422 0.950 . S
C445 C444 1.334 . S
C445 C446 1.287 . S
C446 C445 1.287 . S
C446 C447 1.575 . S
C446 H465 0.913 . S
C447 H423 0.885 1_556 S
C447 C446 1.575 . S
C447 C448 1.440 . S
C448 H424 0.939 1_556 S
C448 C443 1.363 . S
C448 C447 1.440 . S
C449 H425 0.951 . S
C449 C450 1.366 . S
C449 C451 1.388 . S
C450 C449 1.366 . S
C450 C454 1.385 1_556 S
C451 H426 0.951 . S
C451 C449 1.388 . S
C451 C452 1.366 . S
C452 C451 1.366 . S
C452 C453 1.414 . S
C452 C455 1.499 . S
C453 H427 0.950 1_556 S
C453 C452 1.414 . S
C453 C454 1.374 1_556 S
C454 H428 0.950 . S
C454 C450 1.385 1_554 S
C454 C453 1.374 1_554 S
C455 C452 1.499 . S
C455 C456 1.373 . S
C455 C457 1.389 . S
C456 H429 0.950 . S
C456 C442 1.377 . S
C456 C455 1.373 . S
C457 C441 1.377 . S
C457 C455 1.389 . S
C457 C458 1.524 . S
C458 C457 1.524 . S
C458 C459 1.397 . S
C458 C463 1.363 . S
C459 H430 0.950 . S
C459 C458 1.397 . S
C459 C460 1.334 . S
C460 H431 0.950 . S
C460 C459 1.334 . S
C460 C461 1.287 . S
C461 C460 1.287 . S
C461 C462 1.524 . S
C461 H464 0.999 . S
C462 H432 0.950 . S
C462 C461 1.524 . S
C462 C463 1.415 . S
C463 H433 0.950 . S
C463 C458 1.363 . S
C463 C462 1.415 . S
H464 C461 0.999 . S
H465 C446 0.913 . S
H466 C484 0.951 . S
H467 C486 0.951 . S
H468 C488 0.950 . S
H469 C489 0.950 . S
H470 C491 0.950 . S
H471 C494 0.950 . S
H472 C495 0.950 . S
H473 C497 0.950 . S
H474 C498 0.950 . S
H475 C499 0.951 . S
H476 C501 0.951 . S
H477 C503 0.950 . S
H478 C504 0.950 . S
H479 C506 0.950 . S
H480 C509 0.950 . S
H481 C510 0.950 . S
H482 C512 0.950 . S
H483 C513 0.950 . S
C484 H466 0.951 . S
C484 C485 1.366 . S
C484 C486 1.388 . S
C485 C484 1.366 . S
C485 C489 1.385 . S
C486 H467 0.951 . S
C486 C484 1.388 . S
C486 C487 1.366 . S
C487 C486 1.366 . S
C487 C488 1.414 . S
C487 C490 1.499 . S
C488 H468 0.950 . S
C488 C487 1.414 . S
C488 C489 1.374 . S
C489 H469 0.950 . S
C489 C485 1.385 . S
C489 C488 1.374 . S
C490 C487 1.499 . S
C490 C491 1.373 . S
C490 C492 1.389 . S
C491 H470 0.950 . S
C491 C490 1.373 . S
C491 C507 1.377 . S
C492 C490 1.389 . S
C492 C493 1.524 . S
C492 C506 1.377 . S
C493 C492 1.524 . S
C493 C494 1.397 . S
C493 C498 1.363 . S
C494 H471 0.950 . S
C494 C493 1.397 . S
C494 C495 1.334 . S
C495 H472 0.950 . S
C495 C494 1.334 . S
C495 C496 1.287 . S
C496 C495 1.287 . S
C496 C497 1.524 . S
C496 H515 0.913 . S
C497 H473 0.950 . S
C497 C496 1.524 . S
C497 C498 1.415 . S
C498 H474 0.950 . S
C498 C493 1.363 . S
C498 C497 1.415 . S
C499 H475 0.951 . S
C499 C500 1.366 . S
C499 C501 1.388 . S
C500 C499 1.366 . S
C500 C504 1.385 . S
C501 H476 0.951 . S
C501 C499 1.388 . S
C501 C502 1.366 . S
C502 C501 1.366 . S
C502 C503 1.414 . S
C502 C505 1.499 . S
C503 H477 0.950 . S
C503 C502 1.414 . S
C503 C504 1.374 . S
C504 H478 0.950 . S
C504 C500 1.385 . S
C504 C503 1.374 . S
C505 C502 1.499 . S
C505 C506 1.373 . S
C505 C507 1.389 . S
C506 H479 0.950 . S
C506 C492 1.377 . S
C506 C505 1.373 . S
C507 C491 1.377 . S
C507 C505 1.389 . S
C507 C508 1.524 . S
C508 C507 1.524 . S
C508 C509 1.397 . S
C508 C513 1.363 . S
C509 H480 0.950 . S
C509 C508 1.397 . S
C509 C510 1.334 . S
C510 H481 0.950 . S
C510 C509 1.334 . S
C510 C511 1.287 . S
C511 C510 1.287 . S
C511 C512 1.524 . S
C511 H514 0.999 . S
C512 H482 0.950 . S
C512 C511 1.524 . S
C512 C513 1.415 . S
C513 H483 0.950 . S
C513 C508 1.363 . S
C513 C512 1.415 . S
H514 C511 0.999 . S
H515 C496 0.913 . S
H516 C534 0.951 . S
H517 C536 0.951 . S
H518 C538 0.950 . S
H519 C539 0.950 . S
H520 C541 0.950 . S
H521 C544 0.950 . S
H522 C545 0.950 . S
H523 C547 0.950 . S
H524 C548 0.950 . S
H525 C549 0.951 . S
H526 C551 0.951 . S
H527 C553 0.950 . S
H528 C554 0.950 . S
H529 C556 0.950 . S
H530 C559 0.950 . S
H531 C560 0.950 . S
H532 C562 0.950 . S
H533 C563 0.950 . S
C534 H516 0.951 . S
C534 C535 1.366 . S
C534 C536 1.388 . S
C535 C534 1.366 . S
C535 C539 1.385 . S
C536 H517 0.951 . S
C536 C534 1.388 . S
C536 C537 1.366 . S
C537 C536 1.366 . S
C537 C538 1.414 . S
C537 C540 1.499 . S
C538 H518 0.950 . S
C538 C537 1.414 . S
C538 C539 1.374 . S
C539 H519 0.950 . S
C539 C535 1.385 . S
C539 C538 1.374 . S
C540 C537 1.499 . S
C540 C541 1.373 . S
C540 C542 1.389 1_545 S
C541 H520 0.950 . S
C541 C540 1.373 . S
C541 C557 1.377 . S
C542 C540 1.389 1_565 S
C542 C543 1.524 . S
C542 C556 1.377 . S
C543 C542 1.524 . S
C543 C544 1.397 . S
C543 C548 1.363 . S
C544 H521 0.950 . S
C544 C543 1.397 . S
C544 C545 1.334 . S
C545 H522 0.950 . S
C545 C544 1.334 . S
C545 C546 1.287 . S
C546 C545 1.287 . S
C546 C547 1.524 . S
C546 H565 0.913 . S
C547 H523 0.950 . S
C547 C546 1.524 . S
C547 C548 1.415 . S
C548 H524 0.950 . S
C548 C543 1.363 . S
C548 C547 1.415 . S
C549 H525 0.951 . S
C549 C550 1.366 . S
C549 C551 1.388 . S
C550 C549 1.366 . S
C550 C554 1.385 . S
C551 H526 0.951 . S
C551 C549 1.388 . S
C551 C552 1.366 . S
C552 C551 1.366 . S
C552 C553 1.414 . S
C552 C555 1.499 . S
C553 H527 0.950 . S
C553 C552 1.414 . S
C553 C554 1.374 . S
C554 H528 0.950 . S
C554 C550 1.385 . S
C554 C553 1.374 . S
C555 C552 1.499 . S
C555 C556 1.373 . S
C555 C557 1.389 1_565 S
C556 H529 0.950 . S
C556 C542 1.377 . S
C556 C555 1.373 . S
C557 C541 1.377 . S
C557 C555 1.389 1_545 S
C557 C558 1.524 . S
C558 C557 1.524 . S
C558 C559 1.397 . S
C558 C563 1.363 . S
C559 H530 0.950 . S
C559 C558 1.397 . S
C559 C560 1.334 . S
C560 H531 0.950 . S
C560 C559 1.334 . S
C560 C561 1.287 . S
C561 C560 1.287 . S
C561 C562 1.524 . S
C561 H564 0.999 . S
C562 H532 0.950 . S
C562 C561 1.524 . S
C562 C563 1.415 . S
C563 H533 0.950 . S
C563 C558 1.363 . S
C563 C562 1.415 . S
H564 C561 0.999 . S
H565 C546 0.913 . S
H566 C584 0.951 . S
H567 C586 0.951 . S
H568 C588 0.950 . S
H569 C589 0.950 . S
H570 C591 0.950 . S
H571 C594 0.950 . S
H572 C595 0.950 . S
H573 C597 0.950 . S
H574 C598 0.950 . S
H575 C599 0.951 . S
H576 C601 0.951 . S
H577 C603 0.950 . S
H578 C604 0.950 . S
H579 C606 0.950 . S
H580 C609 0.950 . S
H581 C610 0.950 . S
H582 C612 0.950 . S
H583 C613 0.950 . S
C584 H566 0.951 . S
C584 C585 1.366 . S
C584 C586 1.388 . S
C585 C584 1.366 . S
C585 C589 1.385 . S
C586 H567 0.951 . S
C586 C584 1.388 . S
C586 C587 1.366 . S
C587 C586 1.366 . S
C587 C588 1.414 . S
C587 C590 1.499 . S
C588 H568 0.950 . S
C588 C587 1.414 . S
C588 C589 1.374 . S
C589 H569 0.950 . S
C589 C585 1.385 . S
C589 C588 1.374 . S
C590 C587 1.499 . S
C590 C591 1.373 . S
C590 C592 1.389 . S
C591 H570 0.950 . S
C591 C590 1.373 . S
C591 C607 1.377 . S
C592 C590 1.389 . S
C592 C593 1.524 . S
C592 C606 1.377 . S
C593 C592 1.524 . S
C593 C594 1.397 . S
C593 C598 1.363 . S
C594 H571 0.950 . S
C594 C593 1.397 . S
C594 C595 1.334 . S
C595 H572 0.950 . S
C595 C594 1.334 . S
C595 C596 1.287 . S
C596 C595 1.287 . S
C596 C597 1.524 . S
C596 H615 0.913 . S
C597 H573 0.950 . S
C597 C596 1.524 . S
C597 C598 1.415 . S
C598 H574 0.950 . S
C598 C593 1.363 . S
C598 C597 1.415 . S
C599 H575 0.951 . S
C599 C600 1.366 . S
C599 C601 1.388 . S
C600 C599 1.366 . S
C600 C604 1.385 . S
C601 H576 0.951 . S
C601 C599 1.388 . S
C601 C602 1.366 . S
C602 C601 1.366 . S
C602 C603 1.414 . S
C602 C605 1.499 . S
C603 H577 0.950 . S
C603 C602 1.414 . S
C603 C604 1.374 . S
C604 H578 0.950 . S
C604 C600 1.385 . S
C604 C603 1.374 . S
C605 C602 1.499 . S
C605 C606 1.373 . S
C605 C607 1.389 . S
C606 H579 0.950 . S
C606 C592 1.377 . S
C606 C605 1.373 . S
C607 C591 1.377 . S
C607 C605 1.389 . S
C607 C608 1.524 . S
C608 C607 1.524 . S
C608 C609 1.397 . S
C608 C613 1.363 . S
C609 H580 0.950 . S
C609 C608 1.397 . S
C609 C610 1.334 . S
C610 H581 0.950 . S
C610 C609 1.334 . S
C610 C611 1.287 . S
C611 C610 1.287 . S
C611 C612 1.524 . S
C611 H614 0.999 . S
C612 H582 0.950 . S
C612 C611 1.524 . S
C612 C613 1.415 . S
C613 H583 0.950 . S
C613 C608 1.363 . S
C613 C612 1.415 . S
H614 C611 0.999 . S
H615 C596 0.913 . S
H616 C634 0.951 . S
H617 C636 0.951 . S
H618 C638 0.950 . S
H619 C639 0.950 . S
H620 C641 0.950 . S
H621 C644 0.950 . S
H622 C645 0.950 . S
H623 C647 0.950 . S
H624 C648 0.950 . S
H625 C649 0.951 . S
H626 C651 0.951 . S
H627 C653 0.950 . S
H628 C654 0.950 . S
H629 C656 0.950 . S
H630 C659 0.950 . S
H631 C660 0.950 . S
H632 C662 0.950 . S
H633 C663 0.950 . S
C634 H616 0.951 . S
C634 C635 1.366 . S
C634 C636 1.388 . S
C635 C634 1.366 . S
C635 C639 1.385 . S
C636 H617 0.951 . S
C636 C634 1.388 . S
C636 C637 1.366 . S
C637 C636 1.366 . S
C637 C638 1.414 . S
C637 C640 1.499 . S
C638 H618 0.950 . S
C638 C637 1.414 . S
C638 C639 1.374 . S
C639 H619 0.950 . S
C639 C635 1.385 . S
C639 C638 1.374 . S
C640 C637 1.499 . S
C640 C641 1.373 . S
C640 C642 1.389 . S
C641 H620 0.950 . S
C641 C640 1.373 . S
C641 C657 1.377 . S
C642 C640 1.389 . S
C642 C643 1.524 . S
C642 C656 1.377 . S
C643 C642 1.524 . S
C643 C644 1.397 . S
C643 C648 1.363 . S
C644 H621 0.950 . S
C644 C643 1.397 . S
C644 C645 1.334 . S
C645 H622 0.950 . S
C645 C644 1.334 . S
C645 C646 1.287 . S
C646 C645 1.287 . S
C646 C647 1.524 . S
C646 H665 0.913 . S
C647 H623 0.950 . S
C647 C646 1.524 . S
C647 C648 1.415 . S
C648 H624 0.950 . S
C648 C643 1.363 . S
C648 C647 1.415 . S
C649 H625 0.951 . S
C649 C650 1.366 . S
C649 C651 1.388 . S
C650 C649 1.366 . S
C650 C654 1.385 . S
C651 H626 0.951 . S
C651 C649 1.388 . S
C651 C652 1.366 . S
C652 C651 1.366 . S
C652 C653 1.414 . S
C652 C655 1.499 . S
C653 H627 0.950 . S
C653 C652 1.414 . S
C653 C654 1.374 . S
C654 H628 0.950 . S
C654 C650 1.385 . S
C654 C653 1.374 . S
C655 C652 1.499 . S
C655 C656 1.373 . S
C655 C657 1.389 . S
C656 H629 0.950 . S
C656 C642 1.377 . S
C656 C655 1.373 . S
C657 C641 1.377 . S
C657 C655 1.389 . S
C657 C658 1.524 . S
C658 C657 1.524 . S
C658 C659 1.397 . S
C658 C663 1.363 . S
C659 H630 0.950 . S
C659 C658 1.397 . S
C659 C660 1.334 . S
C660 H631 0.950 . S
C660 C659 1.334 . S
C660 C661 1.287 . S
C661 C660 1.287 . S
C661 C662 1.524 . S
C661 H664 0.999 . S
C662 H632 0.950 . S
C662 C661 1.524 . S
C662 C663 1.415 . S
C663 H633 0.950 . S
C663 C658 1.363 . S
C663 C662 1.415 . S
H664 C661 0.999 . S
H665 C646 0.913 . S
H666 C684 0.951 . S
H667 C686 0.951 . S
H668 C688 0.950 . S
H669 C689 0.950 . S
H670 C691 0.950 . S
H671 C694 0.950 . S
H672 C695 0.950 . S
H673 C697 0.950 . S
H674 C698 0.950 . S
H675 C699 0.951 . S
H676 C701 0.951 . S
H677 C703 0.950 . S
H678 C704 0.950 . S
H679 C706 0.950 . S
H680 C709 0.950 . S
H681 C710 0.950 . S
H682 C712 0.950 . S
H683 C713 0.950 . S
C684 H666 0.951 . S
C684 C685 1.366 . S
C684 C686 1.388 . S
C685 C684 1.366 . S
C685 C689 1.385 . S
C686 H667 0.951 . S
C686 C684 1.388 . S
C686 C687 1.366 . S
C687 C686 1.366 . S
C687 C688 1.414 . S
C687 C690 1.499 . S
C688 H668 0.950 . S
C688 C687 1.414 . S
C688 C689 1.374 . S
C689 H669 0.950 . S
C689 C685 1.385 . S
C689 C688 1.374 . S
C690 C687 1.499 . S
C690 C691 1.373 . S
C690 C692 1.389 . S
C691 H670 0.950 . S
C691 C690 1.373 . S
C691 C707 1.377 . S
C692 C690 1.389 . S
C692 C693 1.524 . S
C692 C706 1.377 . S
C693 C692 1.524 . S
C693 C694 1.397 . S
C693 C698 1.363 . S
C694 H671 0.950 . S
C694 C693 1.397 . S
C694 C695 1.334 . S
C695 H672 0.950 . S
C695 C694 1.334 . S
C695 C696 1.287 . S
C696 C695 1.287 . S
C696 C697 1.524 . S
C696 H715 0.913 . S
C697 H673 0.950 . S
C697 C696 1.524 . S
C697 C698 1.415 . S
C698 H674 0.950 . S
C698 C693 1.363 . S
C698 C697 1.415 . S
C699 H675 0.951 . S
C699 C700 1.366 . S
C699 C701 1.388 . S
C700 C699 1.366 . S
C700 C704 1.385 . S
C701 H676 0.951 . S
C701 C699 1.388 . S
C701 C702 1.366 . S
C702 C701 1.366 . S
C702 C703 1.414 . S
C702 C705 1.499 . S
C703 H677 0.950 . S
C703 C702 1.414 . S
C703 C704 1.374 . S
C704 H678 0.950 . S
C704 C700 1.385 . S
C704 C703 1.374 . S
C705 C702 1.499 . S
C705 C706 1.373 . S
C705 C707 1.389 . S
C706 H679 0.950 . S
C706 C692 1.377 . S
C706 C705 1.373 . S
C707 C691 1.377 . S
C707 C705 1.389 . S
C707 C708 1.524 . S
C708 C707 1.524 . S
C708 C709 1.397 . S
C708 C713 1.363 . S
C709 H680 0.950 . S
C709 C708 1.397 . S
C709 C710 1.334 . S
C710 H681 0.950 . S
C710 C709 1.334 . S
C710 C711 1.287 . S
C711 C710 1.287 . S
C711 C712 1.524 . S
C711 H714 0.999 . S
C712 H682 0.950 . S
C712 C711 1.524 . S
C712 C713 1.415 . S
C713 H683 0.950 . S
C713 C708 1.363 . S
C713 C712 1.415 . S
H714 C711 0.999 . S
H715 C696 0.913 . S
H716 C734 0.951 . S
H717 C736 0.951 . S
H718 C738 0.950 . S
H719 C739 0.950 . S
H720 C741 0.950 . S
H721 C744 0.950 . S
H722 C745 0.975 . S
H723 C747 0.950 . S
H724 C748 0.950 . S
H725 C749 0.951 . S
H726 C751 0.951 . S
H727 C753 0.950 . S
H728 C754 0.950 . S
H729 C756 0.950 . S
H730 C759 0.950 . S
H731 C760 0.950 . S
H732 C762 0.950 . S
H733 C763 0.950 . S
C734 H716 0.951 . S
C734 C735 1.366 . S
C734 C736 1.388 . S
C735 C734 1.366 . S
C735 C739 1.385 . S
C736 H717 0.951 . S
C736 C734 1.388 . S
C736 C737 1.366 . S
C737 C736 1.366 . S
C737 C738 1.414 . S
C737 C740 1.499 . S
C738 H718 0.950 . S
C738 C737 1.414 . S
C738 C739 1.374 . S
C739 H719 0.950 . S
C739 C735 1.385 . S
C739 C738 1.374 . S
C740 C737 1.499 . S
C740 C741 1.373 . S
C740 C742 1.389 . S
C741 H720 0.950 . S
C741 C740 1.373 . S
C741 C757 1.377 . S
C742 C740 1.389 . S
C742 C743 1.524 . S
C742 C756 1.377 . S
C743 C742 1.524 . S
C743 C744 1.397 . S
C743 C748 1.363 . S
C744 H721 0.950 . S
C744 C743 1.397 . S
C744 C745 1.334 . S
C745 H722 0.975 . S
C745 C744 1.334 . S
C745 C746 1.287 . S
C746 C745 1.287 . S
C746 C747 1.524 . S
C746 H765 0.941 . S
C747 H723 0.950 . S
C747 C746 1.524 . S
C747 C748 1.415 . S
C748 H724 0.950 . S
C748 C743 1.363 . S
C748 C747 1.415 . S
C749 H725 0.951 . S
C749 C750 1.366 . S
C749 C751 1.388 . S
C750 C749 1.366 . S
C750 C754 1.385 . S
C751 H726 0.951 . S
C751 C749 1.388 . S
C751 C752 1.366 . S
C752 C751 1.366 . S
C752 C753 1.414 . S
C752 C755 1.499 . S
C753 H727 0.950 . S
C753 C752 1.414 . S
C753 C754 1.374 . S
C754 H728 0.950 . S
C754 C750 1.385 . S
C754 C753 1.374 . S
C755 C752 1.499 . S
C755 C756 1.373 . S
C755 C757 1.389 . S
C756 H729 0.950 . S
C756 C742 1.377 . S
C756 C755 1.373 . S
C757 C741 1.377 . S
C757 C755 1.389 . S
C757 C758 1.524 . S
C758 C757 1.524 . S
C758 C759 1.397 . S
C758 C763 1.363 . S
C759 H730 0.950 . S
C759 C758 1.397 . S
C759 C760 1.334 . S
C760 H731 0.950 . S
C760 C759 1.334 . S
C760 C761 1.287 . S
C761 C760 1.287 . S
C761 C762 1.524 . S
C761 H764 0.999 . S
C762 H732 0.950 . S
C762 C761 1.524 . S
C762 C763 1.415 . S
C763 H733 0.950 . S
C763 C758 1.363 . S
C763 C762 1.415 . S
H764 C761 0.999 . S
H765 C746 0.941 . S
H766 C784 0.951 . S
H767 C786 0.951 . S
H768 C788 0.950 . S
H769 C789 0.950 . S
H770 C791 0.950 . S
H771 C794 0.950 . S
H772 C795 0.950 . S
H773 C797 0.950 . S
H774 C798 0.950 . S
H775 C799 0.951 . S
H776 C801 0.951 . S
H777 C803 0.950 . S
H778 C804 0.950 . S
H779 C806 0.950 . S
H780 C809 0.950 . S
H781 C810 0.950 . S
H782 C812 0.950 . S
H783 C813 0.950 . S
C784 H766 0.951 . S
C784 C785 1.366 . S
C784 C786 1.388 . S
C785 C784 1.366 . S
C785 C789 1.385 . S
C786 H767 0.951 . S
C786 C784 1.388 . S
C786 C787 1.366 . S
C787 C786 1.366 . S
C787 C788 1.414 . S
C787 C790 1.499 . S
C788 H768 0.950 . S
C788 C787 1.414 . S
C788 C789 1.374 . S
C789 H769 0.950 . S
C789 C785 1.385 . S
C789 C788 1.374 . S
C790 C787 1.499 . S
C790 C791 1.373 . S
C790 C792 1.389 . S
C791 H770 0.950 . S
C791 C790 1.373 . S
C791 C807 1.377 . S
C792 C790 1.389 . S
C792 C793 1.524 . S
C792 C806 1.377 1_455 S
C793 C792 1.524 . S
C793 C794 1.397 . S
C793 C798 1.363 . S
C794 H771 0.950 . S
C794 C793 1.397 . S
C794 C795 1.334 . S
C795 H772 0.950 . S
C795 C794 1.334 . S
C795 C796 1.287 . S
C796 C795 1.287 . S
C796 C797 1.524 . S
C796 H815 0.913 . S
C797 H773 0.950 . S
C797 C796 1.524 . S
C797 C798 1.415 . S
C798 H774 0.950 . S
C798 C793 1.363 . S
C798 C797 1.415 . S
C799 H775 0.951 . S
C799 C800 1.366 . S
C799 C801 1.388 . S
C800 C799 1.366 . S
C800 C804 1.385 . S
C801 H776 0.951 . S
C801 C799 1.388 . S
C801 C802 1.366 . S
C802 C801 1.366 . S
C802 C803 1.414 . S
C802 C805 1.499 . S
C803 H777 0.950 . S
C803 C802 1.414 . S
C803 C804 1.374 . S
C804 H778 0.950 . S
C804 C800 1.385 . S
C804 C803 1.374 . S
C805 C802 1.499 . S
C805 C806 1.373 . S
C805 C807 1.389 1_655 S
C806 H779 0.950 . S
C806 C792 1.377 1_655 S
C806 C805 1.373 . S
C807 C791 1.377 . S
C807 C805 1.389 1_455 S
C807 C808 1.524 . S
C808 C807 1.524 . S
C808 C809 1.397 . S
C808 C813 1.363 . S
C809 H780 0.950 . S
C809 C808 1.397 . S
C809 C810 1.334 . S
C810 H781 0.950 . S
C810 C809 1.334 . S
C810 C811 1.287 . S
C811 C810 1.287 . S
C811 C812 1.524 . S
C811 H814 0.999 . S
C812 H782 0.950 . S
C812 C811 1.524 . S
C812 C813 1.415 . S
C813 H783 0.950 . S
C813 C808 1.363 . S
C813 C812 1.415 . S
H814 C811 0.999 . S
H815 C796 0.913 . S
H816 C834 0.951 . S
H817 C836 0.951 . S
H818 C838 0.950 . S
H819 C839 0.950 . S
H820 C841 0.950 . S
H821 C844 0.950 . S
H822 C845 0.950 . S
H823 C847 0.950 . S
H824 C848 0.950 . S
H825 C849 0.951 . S
H826 C851 0.951 . S
H827 C853 0.950 . S
H828 C854 0.950 . S
H829 C856 0.950 . S
H830 C859 0.950 . S
H831 C860 0.950 . S
H832 C862 0.950 . S
H833 C863 0.950 . S
C834 H816 0.951 . S
C834 C835 1.366 . S
C834 C836 1.388 . S
C835 C834 1.366 . S
C835 C839 1.385 . S
C836 H817 0.951 . S
C836 C834 1.388 . S
C836 C837 1.366 . S
C837 C836 1.366 . S
C837 C838 1.414 . S
C837 C840 1.499 . S
C838 H818 0.950 . S
C838 C837 1.414 . S
C838 C839 1.374 . S
C839 H819 0.950 . S
C839 C835 1.385 . S
C839 C838 1.374 . S
C840 C837 1.499 . S
C840 C841 1.373 . S
C840 C842 1.389 . S
C841 H820 0.950 . S
C841 C840 1.373 . S
C841 C857 1.377 . S
C842 C840 1.389 . S
C842 C843 1.524 . S
C842 C856 1.377 . S
C843 C842 1.524 . S
C843 C844 1.397 . S
C843 C848 1.363 . S
C844 H821 0.950 . S
C844 C843 1.397 . S
C844 C845 1.334 . S
C845 H822 0.950 . S
C845 C844 1.334 . S
C845 C846 1.287 . S
C846 C845 1.287 . S
C846 C847 1.524 . S
C846 H865 0.913 . S
C847 H823 0.950 . S
C847 C846 1.524 . S
C847 C848 1.415 . S
C848 H824 0.950 . S
C848 C843 1.363 . S
C848 C847 1.415 . S
C849 H825 0.951 . S
C849 C850 1.366 . S
C849 C851 1.388 . S
C850 C849 1.366 . S
C850 C854 1.385 . S
C851 H826 0.951 . S
C851 C849 1.388 . S
C851 C852 1.366 . S
C852 C851 1.366 . S
C852 C853 1.414 . S
C852 C855 1.499 . S
C853 H827 0.950 . S
C853 C852 1.414 . S
C853 C854 1.374 . S
C854 H828 0.950 . S
C854 C850 1.385 . S
C854 C853 1.374 . S
C855 C852 1.499 . S
C855 C856 1.373 . S
C855 C857 1.389 . S
C856 H829 0.950 . S
C856 C842 1.377 . S
C856 C855 1.373 . S
C857 C841 1.377 . S
C857 C855 1.389 . S
C857 C858 1.524 . S
C858 C857 1.524 . S
C858 C859 1.397 . S
C858 C863 1.363 . S
C859 H830 0.950 . S
C859 C858 1.397 . S
C859 C860 1.334 . S
C860 H831 0.950 . S
C860 C859 1.334 . S
C860 C861 1.287 . S
C861 C860 1.287 . S
C861 C862 1.524 . S
C861 H864 0.999 . S
C862 H832 0.950 . S
C862 C861 1.524 . S
C862 C863 1.415 . S
C863 H833 0.950 . S
C863 C858 1.363 . S
C863 C862 1.415 . S
H864 C861 0.999 . S
H865 C846 0.913 . S
H866 C884 0.951 . S
H867 C886 0.951 . S
H868 C888 0.950 . S
H869 C889 0.950 . S
H870 C891 0.950 1_455 S
H871 C894 0.950 . S
H872 C895 0.950 . S
H873 C897 0.950 . S
H874 C898 0.950 . S
H875 C899 0.951 . S
H876 C901 0.951 . S
H877 C903 0.950 . S
H878 C904 0.950 . S
H879 C906 0.950 . S
H880 C909 0.950 . S
H881 C910 0.950 . S
H882 C912 0.950 . S
H883 C913 0.950 . S
C884 H866 0.951 . S
C884 C885 1.366 . S
C884 C886 1.388 . S
C885 C884 1.366 . S
C885 C889 1.385 . S
C886 H867 0.951 . S
C886 C884 1.388 . S
C886 C887 1.366 . S
C887 C886 1.366 . S
C887 C888 1.414 . S
C887 C890 1.499 . S
C888 H868 0.950 . S
C888 C887 1.414 . S
C888 C889 1.374 . S
C889 H869 0.950 . S
C889 C885 1.385 . S
C889 C888 1.374 . S
C890 C887 1.499 . S
C890 C891 1.373 . S
C890 C892 1.389 . S
C891 H870 0.950 1_655 S
C891 C890 1.373 . S
C891 C907 1.377 . S
C892 C890 1.389 . S
C892 C893 1.524 . S
C892 C906 1.377 . S
C893 C892 1.524 . S
C893 C894 1.397 . S
C893 C898 1.363 . S
C894 H871 0.950 . S
C894 C893 1.397 . S
C894 C895 1.334 . S
C895 H872 0.950 . S
C895 C894 1.334 . S
C895 C896 1.287 . S
C896 C895 1.287 . S
C896 C897 1.524 . S
C896 H915 0.913 . S
C897 H873 0.950 . S
C897 C896 1.524 . S
C897 C898 1.415 . S
C898 H874 0.950 . S
C898 C893 1.363 . S
C898 C897 1.415 . S
C899 H875 0.951 . S
C899 C900 1.366 . S
C899 C901 1.388 . S
C900 C899 1.366 . S
C900 C904 1.385 . S
C901 H876 0.951 . S
C901 C899 1.388 . S
C901 C902 1.366 . S
C902 C901 1.366 . S
C902 C903 1.414 . S
C902 C905 1.499 . S
C903 H877 0.950 . S
C903 C902 1.414 . S
C903 C904 1.374 . S
C904 H878 0.950 . S
C904 C900 1.385 . S
C904 C903 1.374 . S
C905 C902 1.499 . S
C905 C906 1.373 . S
C905 C907 1.389 . S
C906 H879 0.950 . S
C906 C892 1.377 . S
C906 C905 1.373 . S
C907 C891 1.377 . S
C907 C905 1.389 . S
C907 C908 1.524 1_655 S
C908 C907 1.524 1_455 S
C908 C909 1.397 . S
C908 C913 1.363 . S
C909 H880 0.950 . S
C909 C908 1.397 . S
C909 C910 1.334 . S
C910 H881 0.950 . S
C910 C909 1.334 . S
C910 C911 1.287 . S
C911 C910 1.287 . S
C911 C912 1.524 . S
C911 H914 0.999 . S
C912 H882 0.950 . S
C912 C911 1.524 . S
C912 C913 1.415 . S
C913 H883 0.950 . S
C913 C908 1.363 . S
C913 C912 1.415 . S
H914 C911 0.999 . S
H915 C896 0.913 . S
H916 C934 0.951 . S
H917 C936 0.951 . S
H918 C938 0.950 . S
H919 C939 0.950 . S
H920 C941 0.950 . S
H921 C944 0.950 . S
H922 C945 0.950 . S
H923 C947 0.950 . S
H924 C948 0.950 . S
H925 C949 0.951 . S
H926 C951 0.951 . S
H927 C953 0.950 . S
H928 C954 0.950 . S
H929 C956 0.930 1_554 S
H930 C959 0.950 . S
H931 C960 0.950 . S
H932 C962 0.950 . S
H933 C963 0.950 . S
C934 H916 0.951 . S
C934 C935 1.366 . S
C934 C936 1.388 . S
C935 C934 1.366 . S
C935 C939 1.385 . S
C936 H917 0.951 . S
C936 C934 1.388 . S
C936 C937 1.366 . S
C937 C936 1.366 . S
C937 C938 1.414 . S
C937 C940 1.499 . S
C938 H918 0.950 . S
C938 C937 1.414 . S
C938 C939 1.374 . S
C939 H919 0.950 . S
C939 C935 1.385 . S
C939 C938 1.374 . S
C940 C937 1.499 . S
C940 C941 1.376 1_455 S
C940 C942 1.389 . S
C941 H920 0.950 . S
C941 C940 1.376 1_655 S
C941 C957 1.373 . S
C942 C940 1.389 . S
C942 C943 1.524 . S
C942 C956 1.361 1_455 S
C943 C942 1.524 . S
C943 C944 1.397 . S
C943 C948 1.363 1_556 S
C944 H921 0.950 . S
C944 C943 1.397 . S
C944 C945 1.334 . S
C945 H922 0.950 . S
C945 C944 1.334 . S
C945 C946 1.272 1_556 S
C946 C945 1.272 1_554 S
C946 C947 1.534 . S
C946 H965 0.918 . S
C947 H923 0.950 . S
C947 C946 1.534 . S
C947 C948 1.415 . S
C948 H924 0.950 . S
C948 C943 1.363 1_554 S
C948 C947 1.415 . S
C949 H925 0.951 . S
C949 C950 1.366 1_556 S
C949 C951 1.388 . S
C950 C949 1.366 1_554 S
C950 C954 1.385 . S
C951 H926 0.951 . S
C951 C949 1.388 . S
C951 C952 1.366 . S
C952 C951 1.366 . S
C952 C953 1.414 1_556 S
C952 C955 1.499 . S
C953 H927 0.950 . S
C953 C952 1.414 1_554 S
C953 C954 1.374 . S
C954 H928 0.950 . S
C954 C950 1.385 . S
C954 C953 1.374 . S
C955 C952 1.499 . S
C955 C956 1.389 . S
C955 C957 1.389 . S
C956 H929 0.930 1_556 S
C956 C942 1.361 1_655 S
C956 C955 1.389 . S
C957 C941 1.373 . S
C957 C955 1.389 . S
C957 C958 1.524 . S
C958 C957 1.524 . S
C958 C959 1.397 . S
C958 C963 1.363 . S
C959 H930 0.950 . S
C959 C958 1.397 . S
C959 C960 1.334 . S
C960 H931 0.950 . S
C960 C959 1.334 . S
C960 C961 1.287 . S
C961 C960 1.287 . S
C961 C962 1.524 . S
C961 H964 0.999 . S
C962 H932 0.950 . S
C962 C961 1.524 . S
C962 C963 1.415 . S
C963 H933 0.950 . S
C963 C958 1.363 . S
C963 C962 1.415 . S
H964 C961 0.999 . S
H965 C946 0.918 . S
H966 C984 0.951 . S
H967 C986 0.951 . S
H968 C988 0.950 . S
H969 C989 0.950 . S
H970 C991 0.950 . S
H971 C994 0.950 . S
H972 C995 0.950 . S
H973 C997 0.950 . S
H974 C998 0.950 . S
H975 C999 0.951 . S
H976 C1001 0.951 . S
H977 C1003 0.950 . S
H978 C1004 0.950 . S
H979 C1006 0.950 . S
H980 C1009 0.950 . S
H981 C1010 0.950 . S
H982 C1012 0.950 . S
H983 C1013 0.950 . S
C984 H966 0.951 . S
C984 C985 1.366 . S
C984 C986 1.388 . S
C985 C984 1.366 . S
C985 C989 1.385 . S
C986 H967 0.951 . S
C986 C984 1.388 . S
C986 C987 1.366 . S
C987 C986 1.366 . S
C987 C988 1.414 . S
C987 C990 1.499 . S
C988 H968 0.950 . S
C988 C987 1.414 . S
C988 C989 1.374 . S
C989 H969 0.950 . S
C989 C985 1.385 . S
C989 C988 1.374 . S
C990 C987 1.499 . S
C990 C991 1.373 . S
C990 C992 1.389 . S
C991 H970 0.950 . S
C991 C990 1.373 . S
C991 C1007 1.377 . S
C992 C990 1.389 . S
C992 C993 1.524 . S
C992 C1006 1.377 . S
C993 C992 1.524 . S
C993 C994 1.397 . S
C993 C998 1.363 . S
C994 H971 0.950 . S
C994 C993 1.397 . S
C994 C995 1.334 . S
C995 H972 0.950 . S
C995 C994 1.334 . S
C995 C996 1.287 . S
C996 C995 1.287 . S
C996 C997 1.524 . S
C996 H1015 0.913 . S
C997 H973 0.950 . S
C997 C996 1.524 . S
C997 C998 1.415 . S
C998 H974 0.950 . S
C998 C993 1.363 . S
C998 C997 1.415 . S
C999 H975 0.951 . S
C999 C1000 1.366 . S
C999 C1001 1.388 . S
C1000 C999 1.366 . S
C1000 C1004 1.385 . S
C1001 H976 0.951 . S
C1001 C999 1.388 . S
C1001 C1002 1.366 . S
C1002 C1001 1.366 . S
C1002 C1003 1.414 . S
C1002 C1005 1.499 . S
C1003 H977 0.950 . S
C1003 C1002 1.414 . S
C1003 C1004 1.374 . S
C1004 H978 0.950 . S
C1004 C1000 1.385 . S
C1004 C1003 1.374 . S
C1005 C1002 1.499 . S
C1005 C1006 1.373 . S
C1005 C1007 1.389 . S
C1006 H979 0.950 . S
C1006 C992 1.377 . S
C1006 C1005 1.373 . S
C1007 C991 1.377 . S
C1007 C1005 1.389 . S
C1007 C1008 1.524 . S
C1008 C1007 1.524 . S
C1008 C1009 1.397 . S
C1008 C1013 1.363 . S
C1009 H980 0.950 . S
C1009 C1008 1.397 . S
C1009 C1010 1.334 . S
C1010 H981 0.950 . S
C1010 C1009 1.334 . S
C1010 C1011 1.287 . S
C1011 C1010 1.287 . S
C1011 C1012 1.524 . S
C1011 H1014 0.999 . S
C1012 H982 0.950 . S
C1012 C1011 1.524 . S
C1012 C1013 1.415 . S
C1013 H983 0.950 . S
C1013 C1008 1.363 . S
C1013 C1012 1.415 . S
H1014 C1011 0.999 . S
H1015 C996 0.913 . S
H1016 C1034 0.951 . S
H1017 C1036 0.951 . S
H1018 C1038 0.950 . S
H1019 C1039 0.950 . S
H1020 C1041 0.950 . S
H1021 C1044 0.950 . S
H1022 C1045 0.950 . S
H1023 C1047 0.950 . S
H1024 C1048 0.950 . S
H1025 C1049 0.951 . S
H1026 C1051 0.951 . S
H1027 C1053 0.950 . S
H1028 C1054 0.950 . S
H1029 C1056 0.950 . S
H1030 C1059 0.950 . S
H1031 C1060 0.950 . S
H1032 C1062 0.932 1_545 S
H1033 C1063 0.950 . S
C1034 H1016 0.951 . S
C1034 C1035 1.366 . S
C1034 C1036 1.388 . S
C1035 C1034 1.366 . S
C1035 C1039 1.385 . S
C1036 H1017 0.951 . S
C1036 C1034 1.388 . S
C1036 C1037 1.366 . S
C1037 C1036 1.366 . S
C1037 C1038 1.414 . S
C1037 C1040 1.499 . S
C1038 H1018 0.950 . S
C1038 C1037 1.414 . S
C1038 C1039 1.374 . S
C1039 H1019 0.950 . S
C1039 C1035 1.385 . S
C1039 C1038 1.374 . S
C1040 C1037 1.499 . S
C1040 C1041 1.373 . S
C1040 C1042 1.389 . S
C1041 H1020 0.950 . S
C1041 C1040 1.373 . S
C1041 C1057 1.377 . S
C1042 C1040 1.389 . S
C1042 C1043 1.524 . S
C1042 C1056 1.377 . S
C1043 C1042 1.524 . S
C1043 C1044 1.397 . S
C1043 C1048 1.363 . S
C1044 H1021 0.950 . S
C1044 C1043 1.397 . S
C1044 C1045 1.334 . S
C1045 H1022 0.950 . S
C1045 C1044 1.334 . S
C1045 C1046 1.287 . S
C1046 C1045 1.287 . S
C1046 C1047 1.524 . S
C1046 H1065 0.913 . S
C1047 H1023 0.950 . S
C1047 C1046 1.524 . S
C1047 C1048 1.415 . S
C1048 H1024 0.950 . S
C1048 C1043 1.363 . S
C1048 C1047 1.415 . S
C1049 H1025 0.951 . S
C1049 C1050 1.366 . S
C1049 C1051 1.388 . S
C1050 C1049 1.366 . S
C1050 C1054 1.385 . S
C1051 H1026 0.951 . S
C1051 C1049 1.388 . S
C1051 C1052 1.366 . S
C1052 C1051 1.366 . S
C1052 C1053 1.414 . S
C1052 C1055 1.499 . S
C1053 H1027 0.950 . S
C1053 C1052 1.414 . S
C1053 C1054 1.374 . S
C1054 H1028 0.950 . S
C1054 C1050 1.385 . S
C1054 C1053 1.374 . S
C1055 C1052 1.499 . S
C1055 C1056 1.373 . S
C1055 C1057 1.389 . S
C1056 H1029 0.950 . S
C1056 C1042 1.377 . S
C1056 C1055 1.373 . S
C1057 C1041 1.377 . S
C1057 C1055 1.389 . S
C1057 C1058 1.524 . S
C1058 C1057 1.524 . S
C1058 C1059 1.397 . S
C1058 C1063 1.363 . S
C1059 H1030 0.950 . S
C1059 C1058 1.397 . S
C1059 C1060 1.334 . S
C1060 H1031 0.950 . S
C1060 C1059 1.334 . S
C1060 C1061 1.287 . S
C1061 C1060 1.287 . S
C1061 C1062 1.524 . S
C1061 H1064 0.999 1_565 S
C1062 H1032 0.932 1_565 S
C1062 C1061 1.524 . S
C1062 C1063 1.415 . S
C1063 H1033 0.950 . S
C1063 C1058 1.363 . S
C1063 C1062 1.415 . S
H1064 C1061 0.999 1_545 S
H1065 C1046 0.913 . S
H1066 C1084 0.951 . S
H1067 C1086 0.951 . S
H1068 C1088 0.950 . S
H1069 C1089 0.950 . S
H1070 C1091 0.950 . S
H1071 C1094 0.950 . S
H1072 C1095 0.950 . S
H1073 C1097 0.950 . S
H1074 C1098 0.950 . S
H1075 C1099 0.951 . S
H1076 C1101 0.951 . S
H1077 C1103 0.950 . S
H1078 C1104 0.950 . S
H1079 C1106 0.950 . S
H1080 C1109 0.950 . S
H1081 C1110 0.950 . S
H1082 C1112 0.950 . S
H1083 C1113 0.950 . S
C1084 H1066 0.951 . S
C1084 C1085 1.366 . S
C1084 C1086 1.388 . S
C1085 C1084 1.366 . S
C1085 C1089 1.385 . S
C1086 H1067 0.951 . S
C1086 C1084 1.388 . S
C1086 C1087 1.366 . S
C1087 C1086 1.366 . S
C1087 C1088 1.414 . S
C1087 C1090 1.499 . S
C1088 H1068 0.950 . S
C1088 C1087 1.414 . S
C1088 C1089 1.374 . S
C1089 H1069 0.950 . S
C1089 C1085 1.385 . S
C1089 C1088 1.374 . S
C1090 C1087 1.499 . S
C1090 C1091 1.373 . S
C1090 C1092 1.389 . S
C1091 H1070 0.950 . S
C1091 C1090 1.373 . S
C1091 C1107 1.377 . S
C1092 C1090 1.389 . S
C1092 C1093 1.524 . S
C1092 C1106 1.377 . S
C1093 C1092 1.524 . S
C1093 C1094 1.397 . S
C1093 C1098 1.363 . S
C1094 H1071 0.950 . S
C1094 C1093 1.397 . S
C1094 C1095 1.334 . S
C1095 H1072 0.950 . S
C1095 C1094 1.334 . S
C1095 C1096 1.287 . S
C1096 C1095 1.287 . S
C1096 C1097 1.524 . S
C1096 H1115 0.913 . S
C1097 H1073 0.950 . S
C1097 C1096 1.524 . S
C1097 C1098 1.415 . S
C1098 H1074 0.950 . S
C1098 C1093 1.363 . S
C1098 C1097 1.415 . S
C1099 H1075 0.951 . S
C1099 C1100 1.366 . S
C1099 C1101 1.388 . S
C1100 C1099 1.366 . S
C1100 C1104 1.385 . S
C1101 H1076 0.951 . S
C1101 C1099 1.388 . S
C1101 C1102 1.366 . S
C1102 C1101 1.366 . S
C1102 C1103 1.414 . S
C1102 C1105 1.499 . S
C1103 H1077 0.950 . S
C1103 C1102 1.414 . S
C1103 C1104 1.374 . S
C1104 H1078 0.950 . S
C1104 C1100 1.385 . S
C1104 C1103 1.374 . S
C1105 C1102 1.499 . S
C1105 C1106 1.373 . S
C1105 C1107 1.389 . S
C1106 H1079 0.950 . S
C1106 C1092 1.377 . S
C1106 C1105 1.373 . S
C1107 C1091 1.377 . S
C1107 C1105 1.389 . S
C1107 C1108 1.524 . S
C1108 C1107 1.524 . S
C1108 C1109 1.397 . S
C1108 C1113 1.363 . S
C1109 H1080 0.950 . S
C1109 C1108 1.397 . S
C1109 C1110 1.334 . S
C1110 H1081 0.950 . S
C1110 C1109 1.334 . S
C1110 C1111 1.287 . S
C1111 C1110 1.287 . S
C1111 C1112 1.524 . S
C1111 H1114 0.999 . S
C1112 H1082 0.950 . S
C1112 C1111 1.524 . S
C1112 C1113 1.415 . S
C1113 H1083 0.950 . S
C1113 C1108 1.363 . S
C1113 C1112 1.415 . S
H1114 C1111 0.999 . S
H1115 C1096 0.913 . S
H1116 C1134 0.951 . S
H1117 C1136 0.951 . S
H1118 C1138 0.950 . S
H1119 C1139 0.950 . S
H1120 C1141 0.950 . S
H1121 C1144 0.950 . S
H1122 C1145 0.950 . S
H1123 C1147 0.950 . S
H1124 C1148 0.950 . S
H1125 C1149 0.951 . S
H1126 C1151 0.951 . S
H1127 C1153 0.950 . S
H1128 C1154 0.950 . S
H1129 C1156 0.950 . S
H1130 C1159 0.950 . S
H1131 C1160 0.950 . S
H1132 C1162 0.950 . S
H1133 C1163 0.950 . S
C1134 H1116 0.951 . S
C1134 C1135 1.366 . S
C1134 C1136 1.388 . S
C1135 C1134 1.366 . S
C1135 C1139 1.385 . S
C1136 H1117 0.951 . S
C1136 C1134 1.388 . S
C1136 C1137 1.366 . S
C1137 C1136 1.366 . S
C1137 C1138 1.414 . S
C1137 C1140 1.499 . S
C1138 H1118 0.950 . S
C1138 C1137 1.414 . S
C1138 C1139 1.374 . S
C1139 H1119 0.950 . S
C1139 C1135 1.385 . S
C1139 C1138 1.374 . S
C1140 C1137 1.499 . S
C1140 C1141 1.373 . S
C1140 C1142 1.389 . S
C1141 H1120 0.950 . S
C1141 C1140 1.373 . S
C1141 C1157 1.377 . S
C1142 C1140 1.389 . S
C1142 C1143 1.524 . S
C1142 C1156 1.377 . S
C1143 C1142 1.524 . S
C1143 C1144 1.397 . S
C1143 C1148 1.363 . S
C1144 H1121 0.950 . S
C1144 C1143 1.397 . S
C1144 C1145 1.334 . S
C1145 H1122 0.950 . S
C1145 C1144 1.334 . S
C1145 C1146 1.287 . S
C1146 C1145 1.287 . S
C1146 C1147 1.524 . S
C1146 H1165 0.913 . S
C1147 H1123 0.950 . S
C1147 C1146 1.524 . S
C1147 C1148 1.415 . S
C1148 H1124 0.950 . S
C1148 C1143 1.363 . S
C1148 C1147 1.415 . S
C1149 H1125 0.951 . S
C1149 C1150 1.366 . S
C1149 C1151 1.388 . S
C1150 C1149 1.366 . S
C1150 C1154 1.385 . S
C1151 H1126 0.951 . S
C1151 C1149 1.388 . S
C1151 C1152 1.366 . S
C1152 C1151 1.366 . S
C1152 C1153 1.414 . S
C1152 C1155 1.499 . S
C1153 H1127 0.950 . S
C1153 C1152 1.414 . S
C1153 C1154 1.374 . S
C1154 H1128 0.950 . S
C1154 C1150 1.385 . S
C1154 C1153 1.374 . S
C1155 C1152 1.499 . S
C1155 C1156 1.373 . S
C1155 C1157 1.389 . S
C1156 H1129 0.950 . S
C1156 C1142 1.377 . S
C1156 C1155 1.373 . S
C1157 C1141 1.377 . S
C1157 C1155 1.389 . S
C1157 C1158 1.524 . S
C1158 C1157 1.524 . S
C1158 C1159 1.397 . S
C1158 C1163 1.363 . S
C1159 H1130 0.950 . S
C1159 C1158 1.397 . S
C1159 C1160 1.334 . S
C1160 H1131 0.950 . S
C1160 C1159 1.334 . S
C1160 C1161 1.287 . S
C1161 C1160 1.287 . S
C1161 C1162 1.524 . S
C1161 H1164 0.999 . S
C1162 H1132 0.950 . S
C1162 C1161 1.524 . S
C1162 C1163 1.415 . S
C1163 H1133 0.950 . S
C1163 C1158 1.363 . S
C1163 C1162 1.415 . S
H1164 C1161 0.999 . S
H1165 C1146 0.913 . S
H1166 C1184 0.951 . S
H1167 C1186 0.951 . S
H1168 C1188 0.950 . S
H1169 C1189 0.950 . S
H1170 C1191 0.950 . S
H1171 C1194 0.950 . S
H1172 C1195 0.950 1_545 S
H1173 C1197 0.950 . S
H1174 C1198 0.950 . S
H1175 C1199 0.947 1_545 S
H1176 C1201 0.951 . S
H1177 C1203 0.950 . S
H1178 C1204 0.950 . S
H1179 C1206 0.950 1_565 S
H1180 C1209 0.950 . S
H1181 C1210 0.950 . S
H1182 C1212 0.950 . S
H1183 C1213 0.950 . S
C1184 H1166 0.951 . S
C1184 C1185 1.366 . S
C1184 C1186 1.388 . S
C1185 C1184 1.366 . S
C1185 C1189 1.385 . S
C1186 H1167 0.951 . S
C1186 C1184 1.388 . S
C1186 C1187 1.366 . S
C1187 C1186 1.366 . S
C1187 C1188 1.414 . S
C1187 C1190 1.499 . S
C1188 H1168 0.950 . S
C1188 C1187 1.414 . S
C1188 C1189 1.374 . S
C1189 H1169 0.950 . S
C1189 C1185 1.385 . S
C1189 C1188 1.374 . S
C1190 C1187 1.499 . S
C1190 C1191 1.373 . S
C1190 C1192 1.389 . S
C1191 H1170 0.950 . S
C1191 C1190 1.373 . S
C1191 C1207 1.377 . S
C1192 C1190 1.389 . S
C1192 C1193 1.524 . S
C1192 C1206 1.377 . S
C1193 C1192 1.524 . S
C1193 C1194 1.397 . S
C1193 C1198 1.363 1_545 S
C1194 H1171 0.950 . S
C1194 C1193 1.397 . S
C1194 C1195 1.334 1_545 S
C1195 H1172 0.950 1_565 S
C1195 C1194 1.334 1_565 S
C1195 C1196 1.287 . S
C1196 C1195 1.287 . S
C1196 C1197 1.524 . S
C1196 H1215 0.913 . S
C1197 H1173 0.950 . S
C1197 C1196 1.524 . S
C1197 C1198 1.415 . S
C1198 H1174 0.950 . S
C1198 C1193 1.363 1_565 S
C1198 C1197 1.415 . S
C1199 H1175 0.947 1_565 S
C1199 C1200 1.375 . S
C1199 C1201 1.382 1_565 S
C1200 C1199 1.375 . S
C1200 C1204 1.385 . S
C1201 H1176 0.951 . S
C1201 C1199 1.382 1_545 S
C1201 C1202 1.366 . S
C1202 C1201 1.366 . S
C1202 C1203 1.414 1_545 S
C1202 C1205 1.499 . S
C1203 H1177 0.950 . S
C1203 C1202 1.414 1_565 S
C1203 C1204 1.374 . S
C1204 H1178 0.950 . S
C1204 C1200 1.385 . S
C1204 C1203 1.374 . S
C1205 C1202 1.499 . S
C1205 C1206 1.373 . S
C1205 C1207 1.389 . S
C1206 H1179 0.950 1_545 S
C1206 C1192 1.377 . S
C1206 C1205 1.373 . S
C1207 C1191 1.377 . S
C1207 C1205 1.389 . S
C1207 C1208 1.524 . S
C1208 C1207 1.524 . S
C1208 C1209 1.397 . S
C1208 C1213 1.363 . S
C1209 H1180 0.950 . S
C1209 C1208 1.397 . S
C1209 C1210 1.334 . S
C1210 H1181 0.950 . S
C1210 C1209 1.334 . S
C1210 C1211 1.287 . S
C1211 C1210 1.287 . S
C1211 C1212 1.524 . S
C1211 H1214 0.999 . S
C1212 H1182 0.950 . S
C1212 C1211 1.524 . S
C1212 C1213 1.415 . S
C1213 H1183 0.950 . S
C1213 C1208 1.363 . S
C1213 C1212 1.415 . S
H1214 C1211 0.999 . S
H1215 C1196 0.913 . S
H1216 C1234 0.951 . S
H1217 C1236 0.951 . S
H1218 C1238 0.950 . S
H1219 C1239 0.950 . S
H1220 C1241 0.950 . S
H1221 C1244 0.950 . S
H1222 C1245 0.950 . S
H1223 C1247 0.950 . S
H1224 C1248 0.950 . S
H1225 C1249 0.951 . S
H1226 C1251 0.951 . S
H1227 C1253 0.950 . S
H1228 C1254 0.950 . S
H1229 C1256 0.950 . S
H1230 C1259 0.950 . S
H1231 C1260 0.950 . S
H1232 C1262 0.950 . S
H1233 C1263 0.950 . S
C1234 H1216 0.951 . S
C1234 C1235 1.366 . S
C1234 C1236 1.388 . S
C1235 C1234 1.366 . S
C1235 C1239 1.385 . S
C1236 H1217 0.951 . S
C1236 C1234 1.388 . S
C1236 C1237 1.366 . S
C1237 C1236 1.366 . S
C1237 C1238 1.414 . S
C1237 C1240 1.499 . S
C1238 H1218 0.950 . S
C1238 C1237 1.414 . S
C1238 C1239 1.374 . S
C1239 H1219 0.950 . S
C1239 C1235 1.385 . S
C1239 C1238 1.374 . S
C1240 C1237 1.499 . S
C1240 C1241 1.373 . S
C1240 C1242 1.389 . S
C1241 H1220 0.950 . S
C1241 C1240 1.373 . S
C1241 C1257 1.377 . S
C1242 C1240 1.389 . S
C1242 C1243 1.524 . S
C1242 C1256 1.377 . S
C1243 C1242 1.524 . S
C1243 C1244 1.397 . S
C1243 C1248 1.363 . S
C1244 H1221 0.950 . S
C1244 C1243 1.397 . S
C1244 C1245 1.334 . S
C1245 H1222 0.950 . S
C1245 C1244 1.334 . S
C1245 C1246 1.287 . S
C1246 C1245 1.287 . S
C1246 C1247 1.524 . S
C1246 H1265 0.913 . S
C1247 H1223 0.950 . S
C1247 C1246 1.524 . S
C1247 C1248 1.415 . S
C1248 H1224 0.950 . S
C1248 C1243 1.363 . S
C1248 C1247 1.415 . S
C1249 H1225 0.951 . S
C1249 C1250 1.366 . S
C1249 C1251 1.388 . S
C1250 C1249 1.366 . S
C1250 C1254 1.385 . S
C1251 H1226 0.951 . S
C1251 C1249 1.388 . S
C1251 C1252 1.366 . S
C1252 C1251 1.366 . S
C1252 C1253 1.414 . S
C1252 C1255 1.499 . S
C1253 H1227 0.950 . S
C1253 C1252 1.414 . S
C1253 C1254 1.374 . S
C1254 H1228 0.950 . S
C1254 C1250 1.385 . S
C1254 C1253 1.374 . S
C1255 C1252 1.499 . S
C1255 C1256 1.373 . S
C1255 C1257 1.389 . S
C1256 H1229 0.950 . S
C1256 C1242 1.377 . S
C1256 C1255 1.373 . S
C1257 C1241 1.377 . S
C1257 C1255 1.389 . S
C1257 C1258 1.524 . S
C1258 C1257 1.524 . S
C1258 C1259 1.397 . S
C1258 C1263 1.363 . S
C1259 H1230 0.950 . S
C1259 C1258 1.397 . S
C1259 C1260 1.334 . S
C1260 H1231 0.950 . S
C1260 C1259 1.334 . S
C1260 C1261 1.287 . S
C1261 C1260 1.287 . S
C1261 C1262 1.524 . S
C1261 H1264 0.999 . S
C1262 H1232 0.950 . S
C1262 C1261 1.524 . S
C1262 C1263 1.415 . S
C1263 H1233 0.950 . S
C1263 C1258 1.363 . S
C1263 C1262 1.415 . S
H1264 C1261 0.999 . S
H1265 C1246 0.913 . S
H1266 C1284 0.951 . S
H1267 C1286 0.951 . S
H1268 C1288 0.950 . S
H1269 C1289 0.950 . S
H1270 C1291 0.950 . S
H1271 C1294 0.950 . S
H1272 C1295 0.950 . S
H1273 C1297 0.950 . S
H1274 C1298 0.950 . S
H1275 C1299 0.951 . S
H1276 C1301 0.951 . S
H1277 C1303 0.950 . S
H1278 C1304 0.950 . S
H1279 C1306 0.950 . S
H1280 C1309 0.950 . S
H1281 C1310 0.950 . S
H1282 C1312 0.950 . S
H1283 C1313 0.950 . S
C1284 H1266 0.951 . S
C1284 C1285 1.366 . S
C1284 C1286 1.388 . S
C1285 C1284 1.366 . S
C1285 C1289 1.385 . S
C1286 H1267 0.951 . S
C1286 C1284 1.388 . S
C1286 C1287 1.366 . S
C1287 C1286 1.366 . S
C1287 C1288 1.414 . S
C1287 C1290 1.499 . S
C1288 H1268 0.950 . S
C1288 C1287 1.414 . S
C1288 C1289 1.374 . S
C1289 H1269 0.950 . S
C1289 C1285 1.385 . S
C1289 C1288 1.374 . S
C1290 C1287 1.499 . S
C1290 C1291 1.373 . S
C1290 C1292 1.389 . S
C1291 H1270 0.950 . S
C1291 C1290 1.373 . S
C1291 C1307 1.377 . S
C1292 C1290 1.389 . S
C1292 C1293 1.524 . S
C1292 C1306 1.377 . S
C1293 C1292 1.524 . S
C1293 C1294 1.397 . S
C1293 C1298 1.363 . S
C1294 H1271 0.950 . S
C1294 C1293 1.397 . S
C1294 C1295 1.334 . S
C1295 H1272 0.950 . S
C1295 C1294 1.334 . S
C1295 C1296 1.287 . S
C1296 C1295 1.287 . S
C1296 C1297 1.524 . S
C1296 H1315 0.913 . S
C1297 H1273 0.950 . S
C1297 C1296 1.524 . S
C1297 C1298 1.415 . S
C1298 H1274 0.950 . S
C1298 C1293 1.363 . S
C1298 C1297 1.415 . S
C1299 H1275 0.951 . S
C1299 C1300 1.366 . S
C1299 C1301 1.388 . S
C1300 C1299 1.366 . S
C1300 C1304 1.385 . S
C1301 H1276 0.951 . S
C1301 C1299 1.388 . S
C1301 C1302 1.366 . S
C1302 C1301 1.366 . S
C1302 C1303 1.414 . S
C1302 C1305 1.499 . S
C1303 H1277 0.950 . S
C1303 C1302 1.414 . S
C1303 C1304 1.374 . S
C1304 H1278 0.950 . S
C1304 C1300 1.385 . S
C1304 C1303 1.374 . S
C1305 C1302 1.499 . S
C1305 C1306 1.373 . S
C1305 C1307 1.389 . S
C1306 H1279 0.950 . S
C1306 C1292 1.377 . S
C1306 C1305 1.373 . S
C1307 C1291 1.377 . S
C1307 C1305 1.389 . S
C1307 C1308 1.524 . S
C1308 C1307 1.524 . S
C1308 C1309 1.397 . S
C1308 C1313 1.363 . S
C1309 H1280 0.950 . S
C1309 C1308 1.397 . S
C1309 C1310 1.334 . S
C1310 H1281 0.950 . S
C1310 C1309 1.334 . S
C1310 C1311 1.287 . S
C1311 C1310 1.287 . S
C1311 C1312 1.524 . S
C1311 H1314 0.999 . S
C1312 H1282 0.950 . S
C1312 C1311 1.524 . S
C1312 C1313 1.415 . S
C1313 H1283 0.950 . S
C1313 C1308 1.363 . S
C1313 C1312 1.415 . S
H1314 C1311 0.999 . S
H1315 C1296 0.913 . S
H1316 C1334 0.951 . S
H1317 C1336 0.951 . S
H1318 C1338 0.950 . S
H1319 C1339 0.950 . S
H1320 C1341 0.950 . S
H1321 C1344 0.950 . S
H1322 C1345 0.950 . S
H1323 C1347 0.983 . S
H1324 C1348 0.925 1_565 S
H1325 C1349 0.936 1_545 S
H1326 C1351 0.951 . S
H1327 C1353 0.950 . S
H1328 C1354 0.950 . S
H1329 C1356 0.950 1_565 S
H1330 C1359 0.950 1_565 S
H1331 C1360 0.950 1_565 S
H1332 C1362 0.950 . S
H1333 C1363 0.950 . S
C1334 H1316 0.951 . S
C1334 C1335 1.366 . S
C1334 C1336 1.388 . S
C1335 C1334 1.366 . S
C1335 C1339 1.385 . S
C1336 H1317 0.951 . S
C1336 C1334 1.388 . S
C1336 C1337 1.366 . S
C1337 C1336 1.366 . S
C1337 C1338 1.414 . S
C1337 C1340 1.499 . S
C1338 H1318 0.950 . S
C1338 C1337 1.414 . S
C1338 C1339 1.374 . S
C1339 H1319 0.950 . S
C1339 C1335 1.385 . S
C1339 C1338 1.374 . S
C1340 C1337 1.499 . S
C1340 C1341 1.373 . S
C1340 C1342 1.389 . S
C1341 H1320 0.950 . S
C1341 C1340 1.373 . S
C1341 C1357 1.377 . S
C1342 C1340 1.389 . S
C1342 C1343 1.524 . S
C1342 C1356 1.377 . S
C1343 C1342 1.524 . S
C1343 C1344 1.397 . S
C1343 C1348 1.390 . S
C1344 H1321 0.950 . S
C1344 C1343 1.397 . S
C1344 C1345 1.334 . S
C1345 H1322 0.950 . S
C1345 C1344 1.334 . S
C1345 C1346 1.287 . S
C1346 C1345 1.287 . S
C1346 C1347 1.489 1_545 S
C1346 H1365 0.913 . S
C1347 H1323 0.983 . S
C1347 C1346 1.489 1_565 S
C1347 C1348 1.413 1_565 S
C1348 H1324 0.925 1_545 S
C1348 C1343 1.390 . S
C1348 C1347 1.413 1_545 S
C1349 H1325 0.936 1_565 S
C1349 C1350 1.366 . S
C1349 C1351 1.388 1_565 S
C1350 C1349 1.366 . S
C1350 C1354 1.385 . S
C1351 H1326 0.951 . S
C1351 C1349 1.388 1_545 S
C1351 C1352 1.366 1_545 S
C1352 C1351 1.366 1_565 S
C1352 C1353 1.414 . S
C1352 C1355 1.499 1_565 S
C1353 H1327 0.950 . S
C1353 C1352 1.414 . S
C1353 C1354 1.374 . S
C1354 H1328 0.950 . S
C1354 C1350 1.385 . S
C1354 C1353 1.374 . S
C1355 C1352 1.499 1_545 S
C1355 C1356 1.373 . S
C1355 C1357 1.389 . S
C1356 H1329 0.950 1_545 S
C1356 C1342 1.377 . S
C1356 C1355 1.373 . S
C1357 C1341 1.377 . S
C1357 C1355 1.389 . S
C1357 C1358 1.524 . S
C1358 C1357 1.524 . S
C1358 C1359 1.397 . S
C1358 C1363 1.363 . S
C1359 H1330 0.950 1_545 S
C1359 C1358 1.397 . S
C1359 C1360 1.334 . S
C1360 H1331 0.950 1_545 S
C1360 C1359 1.334 . S
C1360 C1361 1.287 . S
C1361 C1360 1.287 . S
C1361 C1362 1.524 . S
C1361 H1364 0.999 . S
C1362 H1332 0.950 . S
C1362 C1361 1.524 . S
C1362 C1363 1.415 . S
C1363 H1333 0.950 . S
C1363 C1358 1.363 . S
C1363 C1362 1.415 . S
H1364 C1361 0.999 . S
H1365 C1346 0.913 . S
H1366 C1384 0.951 . S
H1367 C1386 0.951 . S
H1368 C1388 0.950 . S
H1369 C1389 0.950 . S
H1370 C1391 0.950 . S
H1371 C1394 0.950 . S
H1372 C1395 0.950 . S
H1373 C1397 0.950 . S
H1374 C1398 0.950 . S
H1375 C1399 0.951 . S
H1376 C1401 0.951 . S
H1377 C1403 0.950 . S
H1378 C1404 0.950 . S
H1379 C1406 0.950 . S
H1380 C1409 0.950 . S
H1381 C1410 0.950 1_545 S
H1382 C1412 0.950 . S
H1383 C1413 0.950 . S
C1384 H1366 0.951 . S
C1384 C1385 1.366 . S
C1384 C1386 1.388 . S
C1385 C1384 1.366 . S
C1385 C1389 1.385 . S
C1386 H1367 0.951 . S
C1386 C1384 1.388 . S
C1386 C1387 1.366 . S
C1387 C1386 1.366 . S
C1387 C1388 1.414 . S
C1387 C1390 1.499 . S
C1388 H1368 0.950 . S
C1388 C1387 1.414 . S
C1388 C1389 1.374 . S
C1389 H1369 0.950 . S
C1389 C1385 1.385 . S
C1389 C1388 1.374 . S
C1390 C1387 1.499 . S
C1390 C1391 1.373 . S
C1390 C1392 1.389 . S
C1391 H1370 0.950 . S
C1391 C1390 1.373 . S
C1391 C1407 1.377 . S
C1392 C1390 1.389 . S
C1392 C1393 1.524 . S
C1392 C1406 1.377 . S
C1393 C1392 1.524 . S
C1393 C1394 1.397 . S
C1393 C1398 1.363 . S
C1394 H1371 0.950 . S
C1394 C1393 1.397 . S
C1394 C1395 1.334 . S
C1395 H1372 0.950 . S
C1395 C1394 1.334 . S
C1395 C1396 1.287 . S
C1396 C1395 1.287 . S
C1396 C1397 1.524 . S
C1396 H1415 0.913 . S
C1397 H1373 0.950 . S
C1397 C1396 1.524 . S
C1397 C1398 1.415 . S
C1398 H1374 0.950 . S
C1398 C1393 1.363 . S
C1398 C1397 1.415 . S
C1399 H1375 0.951 . S
C1399 C1400 1.366 . S
C1399 C1401 1.388 . S
C1400 C1399 1.366 . S
C1400 C1404 1.385 . S
C1401 H1376 0.951 . S
C1401 C1399 1.388 . S
C1401 C1402 1.366 . S
C1402 C1401 1.366 . S
C1402 C1403 1.414 . S
C1402 C1405 1.499 . S
C1403 H1377 0.950 . S
C1403 C1402 1.414 . S
C1403 C1404 1.374 . S
C1404 H1378 0.950 . S
C1404 C1400 1.385 . S
C1404 C1403 1.374 . S
C1405 C1402 1.499 . S
C1405 C1406 1.373 . S
C1405 C1407 1.389 . S
C1406 H1379 0.950 . S
C1406 C1392 1.377 . S
C1406 C1405 1.373 . S
C1407 C1391 1.377 . S
C1407 C1405 1.389 . S
C1407 C1408 1.524 . S
C1408 C1407 1.524 . S
C1408 C1409 1.397 . S
C1408 C1413 1.363 . S
C1409 H1380 0.950 . S
C1409 C1408 1.397 . S
C1409 C1410 1.334 . S
C1410 H1381 0.950 1_565 S
C1410 C1409 1.334 . S
C1410 C1411 1.287 1_565 S
C1411 C1410 1.287 1_545 S
C1411 C1412 1.524 . S
C1411 H1414 0.999 . S
C1412 H1382 0.950 . S
C1412 C1411 1.524 . S
C1412 C1413 1.415 1_545 S
C1413 H1383 0.950 . S
C1413 C1408 1.363 . S
C1413 C1412 1.415 1_565 S
H1414 C1411 0.999 . S
H1415 C1396 0.913 . S
H1416 C1434 0.951 . S
H1417 C1436 0.951 . S
H1418 C1438 0.950 . S
H1419 C1439 0.950 . S
H1420 C1441 0.950 . S
H1421 C1444 0.950 . S
H1422 C1445 0.950 . S
H1423 C1447 0.950 . S
H1424 C1448 0.950 . S
H1425 C1449 0.951 . S
H1426 C1451 0.951 . S
H1427 C1453 0.950 . S
H1428 C1454 0.950 . S
H1429 C1456 0.950 . S
H1430 C1459 0.950 . S
H1431 C1460 0.950 . S
H1432 C1462 0.950 . S
H1433 C1463 0.950 . S
C1434 H1416 0.951 . S
C1434 C1435 1.366 . S
C1434 C1436 1.388 . S
C1435 C1434 1.366 . S
C1435 C1439 1.385 . S
C1436 H1417 0.951 . S
C1436 C1434 1.388 . S
C1436 C1437 1.366 . S
C1437 C1436 1.366 . S
C1437 C1438 1.414 . S
C1437 C1440 1.499 . S
C1438 H1418 0.950 . S
C1438 C1437 1.414 . S
C1438 C1439 1.374 . S
C1439 H1419 0.950 . S
C1439 C1435 1.385 . S
C1439 C1438 1.374 . S
C1440 C1437 1.499 . S
C1440 C1441 1.373 . S
C1440 C1442 1.389 . S
C1441 H1420 0.950 . S
C1441 C1440 1.373 . S
C1441 C1457 1.377 . S
C1442 C1440 1.389 . S
C1442 C1443 1.524 . S
C1442 C1456 1.377 . S
C1443 C1442 1.524 . S
C1443 C1444 1.397 . S
C1443 C1448 1.363 . S
C1444 H1421 0.950 . S
C1444 C1443 1.397 . S
C1444 C1445 1.334 . S
C1445 H1422 0.950 . S
C1445 C1444 1.334 . S
C1445 C1446 1.287 . S
C1446 C1445 1.287 . S
C1446 C1447 1.524 . S
C1446 H1465 0.913 . S
C1447 H1423 0.950 . S
C1447 C1446 1.524 . S
C1447 C1448 1.415 . S
C1448 H1424 0.950 . S
C1448 C1443 1.363 . S
C1448 C1447 1.415 . S
C1449 H1425 0.951 . S
C1449 C1450 1.366 . S
C1449 C1451 1.388 . S
C1450 C1449 1.366 . S
C1450 C1454 1.385 . S
C1451 H1426 0.951 . S
C1451 C1449 1.388 . S
C1451 C1452 1.366 . S
C1452 C1451 1.366 . S
C1452 C1453 1.414 . S
C1452 C1455 1.499 . S
C1453 H1427 0.950 . S
C1453 C1452 1.414 . S
C1453 C1454 1.374 . S
C1454 H1428 0.950 . S
C1454 C1450 1.385 . S
C1454 C1453 1.374 . S
C1455 C1452 1.499 . S
C1455 C1456 1.373 . S
C1455 C1457 1.389 . S
C1456 H1429 0.950 . S
C1456 C1442 1.377 . S
C1456 C1455 1.373 . S
C1457 C1441 1.377 . S
C1457 C1455 1.389 . S
C1457 C1458 1.524 . S
C1458 C1457 1.524 . S
C1458 C1459 1.397 . S
C1458 C1463 1.363 . S
C1459 H1430 0.950 . S
C1459 C1458 1.397 . S
C1459 C1460 1.334 . S
C1460 H1431 0.950 . S
C1460 C1459 1.334 . S
C1460 C1461 1.287 . S
C1461 C1460 1.287 . S
C1461 C1462 1.524 . S
C1461 H1464 0.999 . S
C1462 H1432 0.950 . S
C1462 C1461 1.524 . S
C1462 C1463 1.415 . S
C1463 H1433 0.950 . S
C1463 C1458 1.363 . S
C1463 C1462 1.415 . S
H1464 C1461 0.999 . S
H1465 C1446 0.913 . S
H1466 C1484 0.951 . S
H1467 C1486 0.951 . S
H1468 C1488 0.950 . S
H1469 C1489 0.950 . S
H1470 C1491 0.950 . S
H1471 C1494 0.950 . S
H1472 C1495 0.950 . S
H1473 C1497 0.950 . S
H1474 C1498 0.950 . S
H1475 C1499 0.951 . S
H1476 C1501 0.951 . S
H1477 C1503 0.950 . S
H1478 C1504 0.950 . S
H1479 C1506 0.950 . S
H1480 C1509 0.950 . S
H1481 C1510 0.950 . S
H1482 C1512 0.950 . S
H1483 C1513 0.950 . S
C1484 H1466 0.951 . S
C1484 C1485 1.366 . S
C1484 C1486 1.388 . S
C1485 C1484 1.366 . S
C1485 C1489 1.385 . S
C1486 H1467 0.951 . S
C1486 C1484 1.388 . S
C1486 C1487 1.366 . S
C1487 C1486 1.366 . S
C1487 C1488 1.414 . S
C1487 C1490 1.499 . S
C1488 H1468 0.950 . S
C1488 C1487 1.414 . S
C1488 C1489 1.374 . S
C1489 H1469 0.950 . S
C1489 C1485 1.385 . S
C1489 C1488 1.374 . S
C1490 C1487 1.499 . S
C1490 C1491 1.373 . S
C1490 C1492 1.389 . S
C1491 H1470 0.950 . S
C1491 C1490 1.373 . S
C1491 C1507 1.377 . S
C1492 C1490 1.389 . S
C1492 C1493 1.524 . S
C1492 C1506 1.377 . S
C1493 C1492 1.524 . S
C1493 C1494 1.397 . S
C1493 C1498 1.363 . S
C1494 H1471 0.950 . S
C1494 C1493 1.397 . S
C1494 C1495 1.334 . S
C1495 H1472 0.950 . S
C1495 C1494 1.334 . S
C1495 C1496 1.287 . S
C1496 C1495 1.287 . S
C1496 C1497 1.524 . S
C1496 H1515 0.913 . S
C1497 H1473 0.950 . S
C1497 C1496 1.524 . S
C1497 C1498 1.415 . S
C1498 H1474 0.950 . S
C1498 C1493 1.363 . S
C1498 C1497 1.415 . S
C1499 H1475 0.951 . S
C1499 C1500 1.366 . S
C1499 C1501 1.388 . S
C1500 C1499 1.366 . S
C1500 C1504 1.385 . S
C1501 H1476 0.951 . S
C1501 C1499 1.388 . S
C1501 C1502 1.366 . S
C1502 C1501 1.366 . S
C1502 C1503 1.414 . S
C1502 C1505 1.499 . S
C1503 H1477 0.950 . S
C1503 C1502 1.414 . S
C1503 C1504 1.374 . S
C1504 H1478 0.950 . S
C1504 C1500 1.385 . S
C1504 C1503 1.374 . S
C1505 C1502 1.499 . S
C1505 C1506 1.373 . S
C1505 C1507 1.389 . S
C1506 H1479 0.950 . S
C1506 C1492 1.377 . S
C1506 C1505 1.373 . S
C1507 C1491 1.377 . S
C1507 C1505 1.389 . S
C1507 C1508 1.524 . S
C1508 C1507 1.524 . S
C1508 C1509 1.397 . S
C1508 C1513 1.363 . S
C1509 H1480 0.950 . S
C1509 C1508 1.397 . S
C1509 C1510 1.334 . S
C1510 H1481 0.950 . S
C1510 C1509 1.334 . S
C1510 C1511 1.287 . S
C1511 C1510 1.287 . S
C1511 C1512 1.524 . S
C1511 H1514 0.999 . S
C1512 H1482 0.950 . S
C1512 C1511 1.524 . S
C1512 C1513 1.415 . S
C1513 H1483 0.950 . S
C1513 C1508 1.363 . S
C1513 C1512 1.415 . S
H1514 C1511 0.999 . S
H1515 C1496 0.913 . S
H1516 C1534 0.951 . S
H1517 C1536 0.951 . S
H1518 C1538 0.950 . S
H1519 C1539 0.950 . S
H1520 C1541 0.950 . S
H1521 C1544 0.950 . S
H1522 C1545 0.950 . S
H1523 C1547 0.950 . S
H1524 C1548 0.950 . S
H1525 C1549 0.951 . S
H1526 C1551 0.951 . S
H1527 C1553 0.950 . S
H1528 C1554 0.950 . S
H1529 C1556 0.950 . S
H1530 C1559 0.950 . S
H1531 C1560 0.950 . S
H1532 C1562 0.950 . S
H1533 C1563 0.950 . S
C1534 H1516 0.951 . S
C1534 C1535 1.366 . S
C1534 C1536 1.388 . S
C1535 C1534 1.366 . S
C1535 C1539 1.385 . S
C1536 H1517 0.951 . S
C1536 C1534 1.388 . S
C1536 C1537 1.366 . S
C1537 C1536 1.366 . S
C1537 C1538 1.414 . S
C1537 C1540 1.499 . S
C1538 H1518 0.950 . S
C1538 C1537 1.414 . S
C1538 C1539 1.374 . S
C1539 H1519 0.950 . S
C1539 C1535 1.385 . S
C1539 C1538 1.374 . S
C1540 C1537 1.499 . S
C1540 C1541 1.373 . S
C1540 C1542 1.389 . S
C1541 H1520 0.950 . S
C1541 C1540 1.373 . S
C1541 C1557 1.377 . S
C1542 C1540 1.389 . S
C1542 C1543 1.524 . S
C1542 C1556 1.377 . S
C1543 C1542 1.524 . S
C1543 C1544 1.397 . S
C1543 C1548 1.363 . S
C1544 H1521 0.950 . S
C1544 C1543 1.397 . S
C1544 C1545 1.334 . S
C1545 H1522 0.950 . S
C1545 C1544 1.334 . S
C1545 C1546 1.287 . S
C1546 C1545 1.287 . S
C1546 C1547 1.524 . S
C1546 H1565 0.913 . S
C1547 H1523 0.950 . S
C1547 C1546 1.524 . S
C1547 C1548 1.415 . S
C1548 H1524 0.950 . S
C1548 C1543 1.363 . S
C1548 C1547 1.415 . S
C1549 H1525 0.951 . S
C1549 C1550 1.366 . S
C1549 C1551 1.388 . S
C1550 C1549 1.366 . S
C1550 C1554 1.385 . S
C1551 H1526 0.951 . S
C1551 C1549 1.388 . S
C1551 C1552 1.366 . S
C1552 C1551 1.366 . S
C1552 C1553 1.414 . S
C1552 C1555 1.499 . S
C1553 H1527 0.950 . S
C1553 C1552 1.414 . S
C1553 C1554 1.374 . S
C1554 H1528 0.950 . S
C1554 C1550 1.385 . S
C1554 C1553 1.374 . S
C1555 C1552 1.499 . S
C1555 C1556 1.373 . S
C1555 C1557 1.389 . S
C1556 H1529 0.950 . S
C1556 C1542 1.377 . S
C1556 C1555 1.373 . S
C1557 C1541 1.377 . S
C1557 C1555 1.389 . S
C1557 C1558 1.524 . S
C1558 C1557 1.524 . S
C1558 C1559 1.397 . S
C1558 C1563 1.363 1_655 S
C1559 H1530 0.950 . S
C1559 C1558 1.397 . S
C1559 C1560 1.334 . S
C1560 H1531 0.950 . S
C1560 C1559 1.334 . S
C1560 C1561 1.287 1_655 S
C1561 C1560 1.287 1_455 S
C1561 C1562 1.524 . S
C1561 H1564 0.999 . S
C1562 H1532 0.950 . S
C1562 C1561 1.524 . S
C1562 C1563 1.415 . S
C1563 H1533 0.950 . S
C1563 C1558 1.363 1_455 S
C1563 C1562 1.415 . S
H1564 C1561 0.999 . S
H1565 C1546 0.913 . S
H1566 C1584 0.951 . S
H1567 C1586 0.951 . S
H1568 C1588 0.950 . S
H1569 C1589 0.950 . S
H1570 C1591 0.950 . S
H1571 C1594 0.950 . S
H1572 C1595 0.950 . S
H1573 C1597 0.950 . S
H1574 C1598 0.950 . S
H1575 C1599 0.951 . S
H1576 C1601 0.951 . S
H1577 C1603 0.950 . S
H1578 C1604 0.950 . S
H1579 C1606 0.950 1_655 S
H1580 C1609 0.950 . S
H1581 C1610 0.950 . S
H1582 C1612 0.950 . S
H1583 C1613 0.950 . S
C1584 H1566 0.951 . S
C1584 C1585 1.366 . S
C1584 C1586 1.388 . S
C1585 C1584 1.366 . S
C1585 C1589 1.385 . S
C1586 H1567 0.951 . S
C1586 C1584 1.388 . S
C1586 C1587 1.366 . S
C1587 C1586 1.366 . S
C1587 C1588 1.414 . S
C1587 C1590 1.499 . S
C1588 H1568 0.950 . S
C1588 C1587 1.414 . S
C1588 C1589 1.374 . S
C1589 H1569 0.950 . S
C1589 C1585 1.385 . S
C1589 C1588 1.374 . S
C1590 C1587 1.499 . S
C1590 C1591 1.373 . S
C1590 C1592 1.389 . S
C1591 H1570 0.950 . S
C1591 C1590 1.373 . S
C1591 C1607 1.377 . S
C1592 C1590 1.389 . S
C1592 C1593 1.524 . S
C1592 C1606 1.377 . S
C1593 C1592 1.524 . S
C1593 C1594 1.397 . S
C1593 C1598 1.363 1_455 S
C1594 H1571 0.950 . S
C1594 C1593 1.397 . S
C1594 C1595 1.334 . S
C1595 H1572 0.950 . S
C1595 C1594 1.334 . S
C1595 C1596 1.287 1_455 S
C1596 C1595 1.287 1_655 S
C1596 C1597 1.524 . S
C1596 H1615 0.913 . S
C1597 H1573 0.950 . S
C1597 C1596 1.524 . S
C1597 C1598 1.415 . S
C1598 H1574 0.950 . S
C1598 C1593 1.363 1_655 S
C1598 C1597 1.415 . S
C1599 H1575 0.951 . S
C1599 C1600 1.366 1_455 S
C1599 C1601 1.388 . S
C1600 C1599 1.366 1_655 S
C1600 C1604 1.385 . S
C1601 H1576 0.951 . S
C1601 C1599 1.388 . S
C1601 C1602 1.366 . S
C1602 C1601 1.366 . S
C1602 C1603 1.414 1_455 S
C1602 C1605 1.499 . S
C1603 H1577 0.950 . S
C1603 C1602 1.414 1_655 S
C1603 C1604 1.374 . S
C1604 H1578 0.950 . S
C1604 C1600 1.385 . S
C1604 C1603 1.374 . S
C1605 C1602 1.499 . S
C1605 C1606 1.373 . S
C1605 C1607 1.389 . S
C1606 H1579 0.950 1_455 S
C1606 C1592 1.377 . S
C1606 C1605 1.373 . S
C1607 C1591 1.377 . S
C1607 C1605 1.389 . S
C1607 C1608 1.524 . S
C1608 C1607 1.524 . S
C1608 C1609 1.397 . S
C1608 C1613 1.363 . S
C1609 H1580 0.950 . S
C1609 C1608 1.397 . S
C1609 C1610 1.334 . S
C1610 H1581 0.950 . S
C1610 C1609 1.334 . S
C1610 C1611 1.287 . S
C1611 C1610 1.287 . S
C1611 C1612 1.524 . S
C1611 H1614 0.999 . S
C1612 H1582 0.950 . S
C1612 C1611 1.524 . S
C1612 C1613 1.415 . S
C1613 H1583 0.950 . S
C1613 C1608 1.363 . S
C1613 C1612 1.415 . S
H1614 C1611 0.999 . S
H1615 C1596 0.913 . S
H1616 C1634 0.951 . S
H1617 C1636 0.951 . S
H1618 C1638 0.950 . S
H1619 C1639 0.950 . S
H1620 C1641 0.950 . S
H1621 C1644 0.950 . S
H1622 C1645 0.950 . S
H1623 C1647 0.950 . S
H1624 C1648 0.950 . S
H1625 C1649 0.951 . S
H1626 C1651 0.951 . S
H1627 C1653 0.950 . S
H1628 C1654 0.950 . S
H1629 C1656 0.950 . S
H1630 C1659 0.950 . S
H1631 C1660 0.950 . S
H1632 C1662 0.950 . S
H1633 C1663 0.950 . S
C1634 H1616 0.951 . S
C1634 C1635 1.366 . S
C1634 C1636 1.388 . S
C1635 C1634 1.366 . S
C1635 C1639 1.385 . S
C1636 H1617 0.951 . S
C1636 C1634 1.388 . S
C1636 C1637 1.366 . S
C1637 C1636 1.366 . S
C1637 C1638 1.414 . S
C1637 C1640 1.499 . S
C1638 H1618 0.950 . S
C1638 C1637 1.414 . S
C1638 C1639 1.374 . S
C1639 H1619 0.950 . S
C1639 C1635 1.385 . S
C1639 C1638 1.374 . S
C1640 C1637 1.499 . S
C1640 C1641 1.373 . S
C1640 C1642 1.389 . S
C1641 H1620 0.950 . S
C1641 C1640 1.373 . S
C1641 C1657 1.377 . S
C1642 C1640 1.389 . S
C1642 C1643 1.524 . S
C1642 C1656 1.377 . S
C1643 C1642 1.524 . S
C1643 C1644 1.397 . S
C1643 C1648 1.363 . S
C1644 H1621 0.950 . S
C1644 C1643 1.397 . S
C1644 C1645 1.334 . S
C1645 H1622 0.950 . S
C1645 C1644 1.334 . S
C1645 C1646 1.287 . S
C1646 C1645 1.287 . S
C1646 C1647 1.524 . S
C1646 H1665 0.913 . S
C1647 H1623 0.950 . S
C1647 C1646 1.524 . S
C1647 C1648 1.415 . S
C1648 H1624 0.950 . S
C1648 C1643 1.363 . S
C1648 C1647 1.415 . S
C1649 H1625 0.951 . S
C1649 C1650 1.366 . S
C1649 C1651 1.388 . S
C1650 C1649 1.366 . S
C1650 C1654 1.385 . S
C1651 H1626 0.951 . S
C1651 C1649 1.388 . S
C1651 C1652 1.366 . S
C1652 C1651 1.366 . S
C1652 C1653 1.414 . S
C1652 C1655 1.499 . S
C1653 H1627 0.950 . S
C1653 C1652 1.414 . S
C1653 C1654 1.374 . S
C1654 H1628 0.950 . S
C1654 C1650 1.385 . S
C1654 C1653 1.374 . S
C1655 C1652 1.499 . S
C1655 C1656 1.373 . S
C1655 C1657 1.389 . S
C1656 H1629 0.950 . S
C1656 C1642 1.377 . S
C1656 C1655 1.373 . S
C1657 C1641 1.377 . S
C1657 C1655 1.389 . S
C1657 C1658 1.524 . S
C1658 C1657 1.524 . S
C1658 C1659 1.397 . S
C1658 C1663 1.363 . S
C1659 H1630 0.950 . S
C1659 C1658 1.397 . S
C1659 C1660 1.334 . S
C1660 H1631 0.950 . S
C1660 C1659 1.334 . S
C1660 C1661 1.287 . S
C1661 C1660 1.287 . S
C1661 C1662 1.524 . S
C1661 H1664 0.999 . S
C1662 H1632 0.950 . S
C1662 C1661 1.524 . S
C1662 C1663 1.415 . S
C1663 H1633 0.950 . S
C1663 C1658 1.363 . S
C1663 C1662 1.415 . S
H1664 C1661 0.999 . S
H1665 C1646 0.913 . S
H1666 C1684 0.951 . S
H1667 C1686 0.951 . S
H1668 C1688 0.950 . S
H1669 C1689 0.950 . S
H1670 C1691 0.950 . S
H1671 C1694 0.950 1_455 S
H1672 C1695 0.950 . S
H1673 C1697 0.950 . S
H1674 C1698 0.950 . S
H1675 C1699 0.951 . S
H1676 C1701 0.951 . S
H1677 C1703 0.950 . S
H1678 C1704 0.950 . S
H1679 C1706 0.950 . S
H1680 C1709 0.950 . S
H1681 C1710 0.950 . S
H1682 C1712 0.950 . S
H1683 C1713 0.950 . S
C1684 H1666 0.951 . S
C1684 C1685 1.366 . S
C1684 C1686 1.388 . S
C1685 C1684 1.366 . S
C1685 C1689 1.385 . S
C1686 H1667 0.951 . S
C1686 C1684 1.388 . S
C1686 C1687 1.366 . S
C1687 C1686 1.366 . S
C1687 C1688 1.414 . S
C1687 C1690 1.499 . S
C1688 H1668 0.950 . S
C1688 C1687 1.414 . S
C1688 C1689 1.374 . S
C1689 H1669 0.950 . S
C1689 C1685 1.385 . S
C1689 C1688 1.374 . S
C1690 C1687 1.499 . S
C1690 C1691 1.373 . S
C1690 C1692 1.389 . S
C1691 H1670 0.950 . S
C1691 C1690 1.373 . S
C1691 C1707 1.377 . S
C1692 C1690 1.389 . S
C1692 C1693 1.524 . S
C1692 C1706 1.377 . S
C1693 C1692 1.524 . S
C1693 C1694 1.397 . S
C1693 C1698 1.363 . S
C1694 H1671 0.950 1_655 S
C1694 C1693 1.397 . S
C1694 C1695 1.334 1_655 S
C1695 H1672 0.950 . S
C1695 C1694 1.334 1_455 S
C1695 C1696 1.287 . S
C1696 C1695 1.287 . S
C1696 C1697 1.524 1_455 S
C1696 H1715 0.913 . S
C1697 H1673 0.950 . S
C1697 C1696 1.524 1_655 S
C1697 C1698 1.415 . S
C1698 H1674 0.950 . S
C1698 C1693 1.363 . S
C1698 C1697 1.415 . S
C1699 H1675 0.951 . S
C1699 C1700 1.366 . S
C1699 C1701 1.388 . S
C1700 C1699 1.366 . S
C1700 C1704 1.385 . S
C1701 H1676 0.951 . S
C1701 C1699 1.388 . S
C1701 C1702 1.366 . S
C1702 C1701 1.366 . S
C1702 C1703 1.414 . S
C1702 C1705 1.499 . S
C1703 H1677 0.950 . S
C1703 C1702 1.414 . S
C1703 C1704 1.374 . S
C1704 H1678 0.950 . S
C1704 C1700 1.385 . S
C1704 C1703 1.374 . S
C1705 C1702 1.499 . S
C1705 C1706 1.373 . S
C1705 C1707 1.389 . S
C1706 H1679 0.950 . S
C1706 C1692 1.377 . S
C1706 C1705 1.373 . S
C1707 C1691 1.377 . S
C1707 C1705 1.389 . S
C1707 C1708 1.524 . S
C1708 C1707 1.524 . S
C1708 C1709 1.397 . S
C1708 C1713 1.363 . S
C1709 H1680 0.950 . S
C1709 C1708 1.397 . S
C1709 C1710 1.334 . S
C1710 H1681 0.950 . S
C1710 C1709 1.334 . S
C1710 C1711 1.287 . S
C1711 C1710 1.287 . S
C1711 C1712 1.524 . S
C1711 H1714 0.999 . S
C1712 H1682 0.950 . S
C1712 C1711 1.524 . S
C1712 C1713 1.415 . S
C1713 H1683 0.950 . S
C1713 C1708 1.363 . S
C1713 C1712 1.415 . S
H1714 C1711 0.999 . S
H1715 C1696 0.913 . S
H1716 C1734 0.951 . S
H1717 C1736 0.951 . S
H1718 C1738 0.950 . S
H1719 C1739 0.950 . S
H1720 C1741 0.950 . S
H1721 C1744 0.950 . S
H1722 C1745 0.950 . S
H1723 C1747 0.950 . S
H1724 C1748 0.950 . S
H1725 C1749 0.951 . S
H1726 C1751 0.951 . S
H1727 C1753 0.950 . S
H1728 C1754 0.950 . S
H1729 C1756 0.950 . S
H1730 C1759 0.950 . S
H1731 C1760 0.950 . S
H1732 C1762 0.950 . S
H1733 C1763 0.950 . S
C1734 H1716 0.951 . S
C1734 C1735 1.366 . S
C1734 C1736 1.388 . S
C1735 C1734 1.366 . S
C1735 C1739 1.385 . S
C1736 H1717 0.951 . S
C1736 C1734 1.388 . S
C1736 C1737 1.366 . S
C1737 C1736 1.366 . S
C1737 C1738 1.414 . S
C1737 C1740 1.499 . S
C1738 H1718 0.950 . S
C1738 C1737 1.414 . S
C1738 C1739 1.374 . S
C1739 H1719 0.950 . S
C1739 C1735 1.385 . S
C1739 C1738 1.374 . S
C1740 C1737 1.499 . S
C1740 C1741 1.373 . S
C1740 C1742 1.389 . S
C1741 H1720 0.950 . S
C1741 C1740 1.373 . S
C1741 C1757 1.377 . S
C1742 C1740 1.389 . S
C1742 C1743 1.524 . S
C1742 C1756 1.377 . S
C1743 C1742 1.524 . S
C1743 C1744 1.397 . S
C1743 C1748 1.363 1_455 S
C1744 H1721 0.950 . S
C1744 C1743 1.397 . S
C1744 C1745 1.334 . S
C1745 H1722 0.950 . S
C1745 C1744 1.334 . S
C1745 C1746 1.287 . S
C1746 C1745 1.287 . S
C1746 C1747 1.524 1_455 S
C1746 H1765 0.913 1_455 S
C1747 H1723 0.950 . S
C1747 C1746 1.524 1_655 S
C1747 C1748 1.415 . S
C1748 H1724 0.950 . S
C1748 C1743 1.363 1_655 S
C1748 C1747 1.415 . S
C1749 H1725 0.951 . S
C1749 C1750 1.366 1_455 S
C1749 C1751 1.388 . S
C1750 C1749 1.366 1_655 S
C1750 C1754 1.385 . S
C1751 H1726 0.951 . S
C1751 C1749 1.388 . S
C1751 C1752 1.366 . S
C1752 C1751 1.366 . S
C1752 C1753 1.414 1_455 S
C1752 C1755 1.499 . S
C1753 H1727 0.950 . S
C1753 C1752 1.414 1_655 S
C1753 C1754 1.374 . S
C1754 H1728 0.950 . S
C1754 C1750 1.385 . S
C1754 C1753 1.374 . S
C1755 C1752 1.499 . S
C1755 C1756 1.373 . S
C1755 C1757 1.389 . S
C1756 H1729 0.950 . S
C1756 C1742 1.377 . S
C1756 C1755 1.373 . S
C1757 C1741 1.377 . S
C1757 C1755 1.389 . S
C1757 C1758 1.524 . S
C1758 C1757 1.524 . S
C1758 C1759 1.397 . S
C1758 C1763 1.363 . S
C1759 H1730 0.950 . S
C1759 C1758 1.397 . S
C1759 C1760 1.334 . S
C1760 H1731 0.950 . S
C1760 C1759 1.334 . S
C1760 C1761 1.287 . S
C1761 C1760 1.287 . S
C1761 C1762 1.524 . S
C1761 H1764 0.999 . S
C1762 H1732 0.950 . S
C1762 C1761 1.524 . S
C1762 C1763 1.415 . S
C1763 H1733 0.950 . S
C1763 C1758 1.363 . S
C1763 C1762 1.415 . S
H1764 C1761 0.999 . S
H1765 C1746 0.913 1_655 S
H1766 C1784 0.951 . S
H1767 C1786 0.951 . S
H1768 C1788 0.950 . S
H1769 C1789 0.950 . S
H1770 C1791 0.950 . S
H1771 C1794 0.950 . S
H1772 C1795 0.950 . S
H1773 C1797 0.950 . S
H1774 C1798 0.950 . S
H1775 C1799 0.951 . S
H1776 C1801 0.951 . S
H1777 C1803 0.950 . S
H1778 C1804 0.950 . S
H1779 C1806 0.950 . S
H1780 C1809 0.950 . S
H1781 C1810 0.950 . S
H1782 C1812 0.950 . S
H1783 C1813 0.950 . S
C1784 H1766 0.951 . S
C1784 C1785 1.366 . S
C1784 C1786 1.388 . S
C1785 C1784 1.366 . S
C1785 C1789 1.385 . S
C1786 H1767 0.951 . S
C1786 C1784 1.388 . S
C1786 C1787 1.366 . S
C1787 C1786 1.366 . S
C1787 C1788 1.414 . S
C1787 C1790 1.499 . S
C1788 H1768 0.950 . S
C1788 C1787 1.414 . S
C1788 C1789 1.374 . S
C1789 H1769 0.950 . S
C1789 C1785 1.385 . S
C1789 C1788 1.374 . S
C1790 C1787 1.499 . S
C1790 C1791 1.373 . S
C1790 C1792 1.389 . S
C1791 H1770 0.950 . S
C1791 C1790 1.373 . S
C1791 C1807 1.377 . S
C1792 C1790 1.389 . S
C1792 C1793 1.524 . S
C1792 C1806 1.377 . S
C1793 C1792 1.524 . S
C1793 C1794 1.397 . S
C1793 C1798 1.363 . S
C1794 H1771 0.950 . S
C1794 C1793 1.397 . S
C1794 C1795 1.334 . S
C1795 H1772 0.950 . S
C1795 C1794 1.334 . S
C1795 C1796 1.287 . S
C1796 C1795 1.287 . S
C1796 C1797 1.524 . S
C1796 H1815 0.913 . S
C1797 H1773 0.950 . S
C1797 C1796 1.524 . S
C1797 C1798 1.415 . S
C1798 H1774 0.950 . S
C1798 C1793 1.363 . S
C1798 C1797 1.415 . S
C1799 H1775 0.951 . S
C1799 C1800 1.366 . S
C1799 C1801 1.388 . S
C1800 C1799 1.366 . S
C1800 C1804 1.385 . S
C1801 H1776 0.951 . S
C1801 C1799 1.388 . S
C1801 C1802 1.366 . S
C1802 C1801 1.366 . S
C1802 C1803 1.414 . S
C1802 C1805 1.499 . S
C1803 H1777 0.950 . S
C1803 C1802 1.414 . S
C1803 C1804 1.374 . S
C1804 H1778 0.950 . S
C1804 C1800 1.385 . S
C1804 C1803 1.374 . S
C1805 C1802 1.499 . S
C1805 C1806 1.373 . S
C1805 C1807 1.389 . S
C1806 H1779 0.950 . S
C1806 C1792 1.377 . S
C1806 C1805 1.373 . S
C1807 C1791 1.377 . S
C1807 C1805 1.389 . S
C1807 C1808 1.524 . S
C1808 C1807 1.524 . S
C1808 C1809 1.397 . S
C1808 C1813 1.363 . S
C1809 H1780 0.950 . S
C1809 C1808 1.397 . S
C1809 C1810 1.334 . S
C1810 H1781 0.950 . S
C1810 C1809 1.334 . S
C1810 C1811 1.287 . S
C1811 C1810 1.287 . S
C1811 C1812 1.524 . S
C1811 H1814 0.999 . S
C1812 H1782 0.950 . S
C1812 C1811 1.524 . S
C1812 C1813 1.415 . S
C1813 H1783 0.950 . S
C1813 C1808 1.363 . S
C1813 C1812 1.415 . S
H1814 C1811 0.999 . S
H1815 C1796 0.913 . S
C250 C129 1.101 . S
C235 C5 1.108 . S
C300 C143 1.151 . S
C285 C18 1.160 . S
C350 C151 1.143 . S
C335 C31 1.149 . S
C385 C42 1.031 . S
C400 C109 1.057 . S
C435 C57 1.338 . S
C450 C115 1.362 . S
C485 C70 1.405 . S
C500 C123 1.430 . S
C550 C137 1.458 . S
C535 C81 1.459 . S
C600 C157 1.399 . S
C585 C96 1.376 . S
C635 C29 1.356 . S
C650 C185 1.354 . S
C700 C199 1.403 . S
C685 C44 1.378 . S
C735 C3 1.412 . S
C750 C207 1.407 . S
C800 C171 1.383 . S
C785 C16 1.386 . S
C835 C83 1.105 . S
C850 C165 1.097 . S
C885 C94 1.085 1_655 S
C900 C179 1.118 . S
C950 C193 1.153 . S
C935 C55 1.116 . S
C985 C68 1.155 . S
C1000 C213 1.195 . S
C1050 C132 1.286 . S
C1035 C1 1.323 . S
C1100 C155 1.301 . S
C1085 C14 1.316 . S
C1135 C27 1.276 . S
C1150 C113 1.259 . S
C1185 C49 1.279 . S
C1200 C118 1.249 . S
C1235 C53 1.630 . S
C1250 C146 1.649 . S
C1300 C104 1.659 . S
C1285 C66 1.632 . S
C1350 C127 1.674 . S
C1335 C88 1.686 . S
C1400 C141 1.682 . S
C1385 C92 1.636 . S
C1450 C188 1.649 . S
C1435 C36 1.688 . S
C1500 C211 1.656 . S
C1485 C40 1.610 . S
C1535 C10 1.674 . S
C1550 C160 1.638 . S
C1600 C174 1.643 . S
C1585 C23 1.680 . S
C1650 C202 1.274 . S
C1635 C79 1.313 . S
C1685 C101 1.277 . S
C1700 C169 1.266 . S
C1750 C183 1.271 . S
C1735 C62 1.281 . S
C1800 C197 1.338 . S
C1785 C75 1.342 . S
