# Generated by pormake.
# Topology hwx, (6,3)-cn, num edge types: 1
# Building blocks:
#     Node 0, Type 0, BuildingBlock: IZENUY_clean_sbu_0, # of connection points: 6
#     Node 1, Type 0, BuildingBlock: IZENUY_clean_sbu_0, # of connection points: 6
#     Node 2, Type 0, BuildingBlock: IZENUY_clean_sbu_0, # of connection points: 6
#     Node 3, Type 0, BuildingBlock: IZENUY_clean_sbu_0, # of connection points: 6
#     Node 4, Type 1, BuildingBlock: WUSLED_clean_sbu_0, # of connection points: 3
#     Node 5, Type 1, BuildingBlock: WUSLED_clean_sbu_0, # of connection points: 3
#     Node 6, Type 1, BuildingBlock: WUSLED_clean_sbu_0, # of connection points: 3
#     Node 7, Type 1, BuildingBlock: WUSLED_clean_sbu_0, # of connection points: 3
#     Node 8, Type 1, BuildingBlock: WUSLED_clean_sbu_0, # of connection points: 3
#     Node 9, Type 1, BuildingBlock: WUSLED_clean_sbu_0, # of connection points: 3
#     Node 10, Type 1, BuildingBlock: WUSLED_clean_sbu_0, # of connection points: 3
#     Node 11, Type 1, BuildingBlock: WUSLED_clean_sbu_0, # of connection points: 3
#     Edge 12, Type (0, 1), BuildingBlock: XUDNAN_clean_linker_2, # of connection points: 2
#     Edge 13, Type (0, 1), BuildingBlock: XUDNAN_clean_linker_2, # of connection points: 2
#     Edge 14, Type (0, 1), BuildingBlock: XUDNAN_clean_linker_2, # of connection points: 2
#     Edge 15, Type (0, 1), BuildingBlock: XUDNAN_clean_linker_2, # of connection points: 2
#     Edge 16, Type (0, 1), BuildingBlock: XUDNAN_clean_linker_2, # of connection points: 2
#     Edge 17, Type (0, 1), BuildingBlock: XUDNAN_clean_linker_2, # of connection points: 2
#     Edge 18, Type (0, 1), BuildingBlock: XUDNAN_clean_linker_2, # of connection points: 2
#     Edge 19, Type (0, 1), BuildingBlock: XUDNAN_clean_linker_2, # of connection points: 2
#     Edge 20, Type (0, 1), BuildingBlock: XUDNAN_clean_linker_2, # of connection points: 2
#     Edge 21, Type (0, 1), BuildingBlock: XUDNAN_clean_linker_2, # of connection points: 2
#     Edge 22, Type (0, 1), BuildingBlock: XUDNAN_clean_linker_2, # of connection points: 2
#     Edge 23, Type (0, 1), BuildingBlock: XUDNAN_clean_linker_2, # of connection points: 2
#     Edge 24, Type (0, 1), BuildingBlock: XUDNAN_clean_linker_2, # of connection points: 2
#     Edge 25, Type (0, 1), BuildingBlock: XUDNAN_clean_linker_2, # of connection points: 2
#     Edge 26, Type (0, 1), BuildingBlock: XUDNAN_clean_linker_2, # of connection points: 2
#     Edge 27, Type (0, 1), BuildingBlock: XUDNAN_clean_linker_2, # of connection points: 2
#     Edge 28, Type (0, 1), BuildingBlock: XUDNAN_clean_linker_2, # of connection points: 2
#     Edge 29, Type (0, 1), BuildingBlock: XUDNAN_clean_linker_2, # of connection points: 2
#     Edge 30, Type (0, 1), BuildingBlock: XUDNAN_clean_linker_2, # of connection points: 2
#     Edge 31, Type (0, 1), BuildingBlock: XUDNAN_clean_linker_2, # of connection points: 2
#     Edge 32, Type (0, 1), BuildingBlock: XUDNAN_clean_linker_2, # of connection points: 2
#     Edge 33, Type (0, 1), BuildingBlock: XUDNAN_clean_linker_2, # of connection points: 2
#     Edge 34, Type (0, 1), BuildingBlock: XUDNAN_clean_linker_2, # of connection points: 2
#     Edge 35, Type (0, 1), BuildingBlock: XUDNAN_clean_linker_2, # of connection points: 2
# Relax obj value: 0.048
# Max RMSD: 0.074
# Mean RMSD: 0.065
data_MOF--net-hwx--node1-IZENUY_clean_sbu_0--node2-WUSLED_clean_sbu_0--edge1-XUDNAN_clean_linker_2
_symmetry_space_group_name_H-M    P1
_symmetry_Int_Tables_number       1
_symmetry_cell_setting            triclinic
loop_
_symmetry_equiv_pos_as_xyz
'x, y, z'
_cell_length_a     61.558622
_cell_length_b     62.011533
_cell_length_c     29.725396
_cell_angle_alpha  90.574189
_cell_angle_beta   90.331433
_cell_angle_gamma 90.02706
loop_
_atom_site_label
_atom_site_type_symbol
_atom_site_fract_x
_atom_site_fract_y
_atom_site_fract_z
_atom_type_partial_charge
Fe0 Fe 0.24719 0.22739 0.05645 0.0
Fe1 Fe 0.24598 0.22793 0.95306 0.0
O2 O 0.2384 0.21595 1.00454 0.0
Fe3 Fe 0.22204 0.19247 1.00398 0.0
O4 O 0.20099 0.20605 0.03512 0.0
O5 O 0.22216 0.22023 0.0874 0.0
O6 O 0.23414 0.25273 0.04418 0.0
C7 C 0.2377 0.26402 0.01008 0.0
C8 C 0.25177 0.18468 0.07552 0.0
O9 O 0.24648 0.25583 0.97542 0.0
C10 C 0.24877 0.18292 0.934 0.0
O11 O 0.27376 0.23663 0.03481 0.0
O12 O 0.27441 0.22399 0.96543 0.0
O13 O 0.23392 0.18094 0.05548 0.0
O14 O 0.26083 0.2028 0.07246 0.0
C15 C 0.20395 0.21761 0.93352 0.0
O16 O 0.24695 0.20229 0.92118 0.0
O17 O 0.24214 0.17743 0.97229 0.0
C18 C 0.28425 0.23082 1.00004 0.0
O19 O 0.21789 0.23247 0.93707 0.0
O20 O 0.20692 0.19966 0.95266 0.0
C21 C 0.20336 0.21519 0.07286 0.0
Fe22 Fe 0.26317 0.72502 0.55972 0.0
Fe23 Fe 0.28828 0.694 0.49885 0.0
O24 O 0.27082 0.71653 0.5051 0.0
Fe25 Fe 0.26105 0.73059 0.45718 0.0
O26 O 0.27275 0.756 0.47678 0.0
O27 O 0.2608 0.75358 0.54591 0.0
O28 O 0.29111 0.73036 0.57572 0.0
C29 C 0.30592 0.71632 0.57453 0.0
C30 C 0.22442 0.72835 0.51505 0.0
O31 O 0.3036 0.69923 0.55118 0.0
C32 C 0.25845 0.68888 0.42606 0.0
O33 O 0.26405 0.6981 0.58416 0.0
O34 O 0.26932 0.67612 0.52706 0.0
O35 O 0.23423 0.73683 0.48209 0.0
O36 O 0.23492 0.72009 0.54707 0.0
C37 C 0.3052 0.72156 0.43659 0.0
O38 O 0.27642 0.68477 0.4451 0.0
O39 O 0.24868 0.70639 0.43382 0.0
C40 C 0.26269 0.67948 0.56662 0.0
O41 O 0.30832 0.71026 0.47101 0.0
O42 O 0.28614 0.72664 0.42403 0.0
C43 C 0.26934 0.7644 0.51488 0.0
Fe44 Fe 0.7615 0.7922 0.95581 0.0
Fe45 Fe 0.76455 0.79144 0.05926 0.0
O46 O 0.77155 0.8032 0.00722 0.0
Fe47 Fe 0.78875 0.82609 0.00688 0.0
O48 O 0.77696 0.83798 0.95589 0.0
O49 O 0.74885 0.81749 0.94029 0.0
O50 O 0.73483 0.78435 0.9792 0.0
C51 C 0.72536 0.78986 0.01544 0.0
C52 C 0.80572 0.80233 0.93757 0.0
O53 O 0.7361 0.79621 0.04928 0.0
C54 C 0.80712 0.80037 0.07554 0.0
O55 O 0.77326 0.76606 0.96713 0.0
O56 O 0.76267 0.76363 0.03727 0.0
O57 O 0.80883 0.81165 0.9749 0.0
O58 O 0.78658 0.79807 0.92369 0.0
C59 C 0.76331 0.83649 0.07825 0.0
O60 O 0.79273 0.78594 0.07288 0.0
O61 O 0.8042 0.81853 0.05737 0.0
C62 C 0.76993 0.75496 1.00166 0.0
O63 O 0.76498 0.8171 0.09102 0.0
O64 O 0.76952 0.84186 0.03954 0.0
C65 C 0.75879 0.83512 0.93664 0.0
Fe66 Fe 0.71958 0.322 0.54098 0.0
Fe67 Fe 0.74712 0.2852 0.5788 0.0
O68 O 0.73895 0.30119 0.53269 0.0
Fe69 Fe 0.74997 0.29631 0.47851 0.0
O70 O 0.76029 0.3236 0.47452 0.0
O71 O 0.73037 0.3396 0.49694 0.0
O72 O 0.73724 0.336 0.58085 0.0
C73 C 0.74462 0.32748 0.6162 0.0
C74 C 0.70519 0.30446 0.46133 0.0
O75 O 0.74464 0.30715 0.6205 0.0
C76 C 0.74413 0.25481 0.50719 0.0
O77 O 0.70499 0.30834 0.58661 0.0
O78 O 0.71953 0.27607 0.58832 0.0
O79 O 0.72476 0.3033 0.44825 0.0
O80 O 0.70077 0.30923 0.50169 0.0
C81 C 0.78623 0.29162 0.53735 0.0
O82 O 0.75129 0.26027 0.54567 0.0
O83 O 0.74023 0.26882 0.47789 0.0
C84 C 0.70403 0.28863 0.59732 0.0
O85 O 0.77505 0.29339 0.57255 0.0
O86 O 0.77722 0.28837 0.49935 0.0
C87 C 0.74849 0.34018 0.47699 0.0
C88 C 0.23319 0.56953 0.91147 0.0
C89 C 0.21969 0.5865 0.89805 0.0
C90 C 0.23493 0.58514 0.82258 0.0
C91 C 0.22046 0.59417 0.85407 0.0
C92 C 0.24794 0.56762 0.83574 0.0
C93 C 0.24705 0.55984 0.87975 0.0
U94 U 0.2333 0.52662 1.00366 0.0
O95 O 0.2157 0.50039 0.96898 0.0
O96 O 0.25134 0.50039 0.97037 0.0
C97 C 0.23357 0.48981 0.95917 0.0
C98 C 0.23305 0.56287 0.95897 0.0
C99 C 0.23335 0.46675 0.97001 0.0
C100 C 0.22939 0.42955 0.94501 0.0
C101 C 0.23028 0.45155 0.93539 0.0
C102 C 0.23482 0.43773 0.02417 0.0
C103 C 0.23155 0.42236 0.98955 0.0
C104 C 0.23568 0.45975 0.01448 0.0
C105 C 0.23264 0.54549 0.12547 0.0
C106 C 0.23741 0.55802 0.20263 0.0
C107 C 0.22727 0.58331 0.14457 0.0
C108 C 0.22758 0.56662 0.11258 0.0
C109 C 0.23215 0.57921 0.19001 0.0
C110 C 0.23761 0.54131 0.17061 0.0
C111 C 0.23297 0.52785 0.09197 0.0
O112 O 0.25091 0.55381 0.97423 0.0
O113 O 0.21523 0.55338 0.9727 0.0
O114 O 0.21528 0.52582 0.06729 0.0
O115 O 0.2509 0.52631 0.06836 0.0
H116 H 0.20876 0.59408 0.92187 0.0
H117 H 0.20988 0.60739 0.8449 0.0
H118 H 0.25939 0.56039 0.81255 0.0
H119 H 0.25754 0.5466 0.88919 0.0
H120 H 0.22655 0.41823 0.91763 0.0
H121 H 0.22835 0.45673 0.90088 0.0
H122 H 0.23683 0.43274 0.05875 0.0
H123 H 0.23805 0.47131 0.04164 0.0
H124 H 0.24107 0.5543 0.23738 0.0
H125 H 0.22347 0.59949 0.13361 0.0
H126 H 0.2239 0.57019 0.07776 0.0
H127 H 0.2416 0.5251 0.18112 0.0
C128 C 0.94805 0.76823 0.63869 0.0
C129 C 0.92832 0.7792 0.6324 0.0
C130 C 0.91887 0.77347 0.71093 0.0
C131 C 0.91384 0.78182 0.66826 0.0
C132 C 0.93832 0.7618 0.71638 0.0
C133 C 0.95277 0.75927 0.68065 0.0
U134 U 0.96319 0.76902 0.51439 0.0
O135 O 0.99135 0.78347 0.48087 0.0
O136 O 0.98581 0.74858 0.47591 0.0
C137 C 0.99899 0.7647 0.46745 0.0
C138 C 0.96413 0.76641 0.6024 0.0
C139 C 0.02204 0.76078 0.47763 0.0
C140 C 0.0517 0.75734 0.53128 0.0
C141 C 0.02982 0.7616 0.52203 0.0
C142 C 0.05827 0.75154 0.45179 0.0
C143 C 0.06618 0.75208 0.4963 0.0
C144 C 0.03639 0.75584 0.44259 0.0
C145 C 0.91861 0.77841 0.42562 0.0
C146 C 0.90235 0.76303 0.3576 0.0
C147 C 0.91029 0.80124 0.36163 0.0
C148 C 0.91839 0.79878 0.40529 0.0
C149 C 0.90209 0.78342 0.33734 0.0
C150 C 0.91045 0.76057 0.40129 0.0
C151 C 0.92619 0.77594 0.47272 0.0
O152 O 0.96211 0.74946 0.57582 0.0
O153 O 0.96819 0.7843 0.58062 0.0
O154 O 0.93843 0.79152 0.48933 0.0
O155 O 0.93291 0.75662 0.4842 0.0
H156 H 0.92433 0.78612 0.60006 0.0
H157 H 0.8991 0.79099 0.66295 0.0
H158 H 0.94251 0.75477 0.74849 0.0
H159 H 0.96781 0.75058 0.68599 0.0
H160 H 0.05729 0.75821 0.56587 0.0
H161 H 0.01895 0.76543 0.54952 0.0
H162 H 0.06886 0.74728 0.42412 0.0
H163 H 0.03061 0.75509 0.4081 0.0
H164 H 0.89629 0.74895 0.3397 0.0
H165 H 0.90995 0.81724 0.34736 0.0
H166 H 0.92419 0.81295 0.42329 0.0
H167 H 0.91012 0.74469 0.41612 0.0
C168 C 0.76873 0.44879 0.12814 0.0
C169 C 0.76549 0.42677 0.13566 0.0
C170 C 0.76712 0.4328 0.21672 0.0
C171 C 0.76466 0.41885 0.17942 0.0
C172 C 0.77037 0.45496 0.20901 0.0
C173 C 0.77119 0.4629 0.16502 0.0
U174 U 0.77089 0.49266 0.03647 0.0
O175 O 0.75332 0.52004 0.06716 0.0
O176 O 0.78892 0.5187 0.07068 0.0
C177 C 0.77137 0.53036 0.07746 0.0
C178 C 0.76945 0.45642 0.0815 0.0
C179 C 0.77244 0.55315 0.06336 0.0
C180 C 0.75892 0.58994 0.06964 0.0
C181 C 0.75812 0.56826 0.08229 0.0
C182 C 0.78858 0.58177 0.01915 0.0
C183 C 0.77418 0.59701 0.0379 0.0
C184 C 0.78764 0.56009 0.03153 0.0
C185 C 0.77171 0.47232 0.91487 0.0
C186 C 0.75395 0.45345 0.85244 0.0
C187 C 0.78732 0.43934 0.88392 0.0
C188 C 0.78808 0.45652 0.9147 0.0
C189 C 0.7701 0.43739 0.85279 0.0
C190 C 0.7548 0.47074 0.88307 0.0
C191 C 0.77177 0.49022 0.94827 0.0
O192 O 0.78766 0.46558 0.06895 0.0
O193 O 0.75202 0.46648 0.06697 0.0
O194 O 0.78934 0.49236 0.97334 0.0
O195 O 0.75372 0.49271 0.97119 0.0
H196 H 0.76346 0.41567 0.10756 0.0
H197 H 0.7617 0.40179 0.18398 0.0
H198 H 0.77247 0.46614 0.23693 0.0
H199 H 0.77373 0.47998 0.15977 0.0
H200 H 0.74735 0.60108 0.08431 0.0
H201 H 0.74622 0.56327 0.10681 0.0
H202 H 0.80078 0.5866 0.99518 0.0
H203 H 0.7989 0.54881 0.01627 0.0
H204 H 0.74033 0.45239 0.82932 0.0
H205 H 0.80028 0.42754 0.88464 0.0
H206 H 0.80142 0.45726 0.93857 0.0
H207 H 0.74201 0.48273 0.8824 0.0
C208 C 0.06042 0.24901 0.37112 0.0
C209 C 0.08108 0.24007 0.37854 0.0
C210 C 0.0892 0.24251 0.29853 0.0
C211 C 0.09536 0.23684 0.34254 0.0
C212 C 0.06872 0.2521 0.29173 0.0
C213 C 0.05448 0.25526 0.32765 0.0
U214 U 0.04725 0.24984 0.49608 0.0
O215 O 0.02539 0.27058 0.5356 0.0
O216 O 0.01976 0.23561 0.53262 0.0
C217 C 0.01276 0.25446 0.547 0.0
C218 C 0.04472 0.25139 0.40802 0.0
C219 C 0.98917 0.25827 0.54397 0.0
C220 C 0.95686 0.27122 0.50493 0.0
C221 C 0.97913 0.26615 0.50486 0.0
C222 C 0.95457 0.25995 0.58255 0.0
C223 C 0.94449 0.26862 0.54421 0.0
C224 C 0.97664 0.25484 0.58238 0.0
C225 C 0.09387 0.24131 0.58016 0.0
C226 C 0.08849 0.2369 0.66049 0.0
C227 C 0.12495 0.23852 0.63043 0.0
C228 C 0.11638 0.24098 0.58713 0.0
C229 C 0.11112 0.23632 0.66764 0.0
C230 C 0.07993 0.23942 0.61709 0.0
C231 C 0.08529 0.24337 0.53413 0.0
O232 O 0.04098 0.2338 0.43105 0.0
O233 O 0.04712 0.26866 0.43359 0.0
O234 O 0.07805 0.26258 0.5234 0.0
O235 O 0.07253 0.22765 0.52014 0.0
H236 H 0.08598 0.23522 0.41201 0.0
H237 H 0.11091 0.22929 0.34897 0.0
H238 H 0.0636 0.25706 0.25848 0.0
H239 H 0.03867 0.26235 0.32135 0.0
H240 H 0.94954 0.27791 0.47494 0.0
H241 H 0.98857 0.26886 0.4748 0.0
H242 H 0.94542 0.25743 0.61307 0.0
H243 H 0.98407 0.24865 0.61278 0.0
H244 H 0.0774 0.23548 0.68844 0.0
H245 H 0.14243 0.23783 0.63458 0.0
H246 H 0.12737 0.24239 0.55896 0.0
H247 H 0.06247 0.23976 0.6123 0.0
C248 C 0.73843 0.97941 0.64303 0.0
C249 C 0.75513 0.96414 0.64842 0.0
C250 C 0.73603 0.94801 0.71127 0.0
C251 C 0.75396 0.94869 0.68226 0.0
C252 C 0.7194 0.96335 0.70605 0.0
C253 C 0.72066 0.97895 0.67243 0.0
U254 U 0.74018 0.99303 0.51857 0.0
O255 O 0.72339 0.01787 0.47928 0.0
O256 O 0.75906 0.01722 0.48162 0.0
C257 C 0.74158 0.02736 0.4676 0.0
C258 C 0.73908 0.99557 0.60665 0.0
C259 C 0.74197 0.05103 0.47118 0.0
C260 C 0.73471 0.0847 0.51113 0.0
C261 C 0.73547 0.06207 0.51033 0.0
C262 C 0.74747 0.08529 0.4342 0.0
C263 C 0.74033 0.09653 0.4727 0.0
C264 C 0.74825 0.06281 0.43348 0.0
C265 C 0.74018 0.94598 0.43394 0.0
C266 C 0.75087 0.94825 0.3555 0.0
C267 C 0.7311 0.91702 0.38152 0.0
C268 C 0.73052 0.92594 0.42486 0.0
C269 C 0.74146 0.92795 0.34633 0.0
C270 C 0.75017 0.95722 0.39889 0.0
C271 C 0.73977 0.95471 0.48017 0.0
O272 O 0.75718 0.99662 0.58344 0.0
O273 O 0.72154 0.99671 0.58129 0.0
O274 O 0.72201 0.96513 0.49145 0.0
O275 O 0.75764 0.96432 0.49427 0.0
H276 H 0.76903 0.96394 0.62627 0.0
H277 H 0.76691 0.93694 0.68507 0.0
H278 H 0.70548 0.96338 0.72817 0.0
H279 H 0.70762 0.99057 0.66916 0.0
H280 H 0.72909 0.09289 0.54123 0.0
H281 H 0.7306 0.05321 0.53984 0.0
H282 H 0.75231 0.0939 0.40435 0.0
H283 H 0.75343 0.05456 0.40307 0.0
H284 H 0.75918 0.95703 0.32942 0.0
H285 H 0.72333 0.90157 0.37558 0.0
H286 H 0.72258 0.91711 0.45142 0.0
H287 H 0.75763 0.97279 0.40516 0.0
C288 C 0.56061 0.26992 0.89699 0.0
C289 C 0.579 0.28335 0.89829 0.0
C290 C 0.59145 0.26818 0.82692 0.0
C291 C 0.59422 0.28257 0.86343 0.0
C292 C 0.57301 0.25478 0.82586 0.0
C293 C 0.55773 0.2557 0.86048 0.0
U294 U 0.54488 0.27416 0.02143 0.0
O295 O 0.51698 0.29013 0.05358 0.0
O296 O 0.52116 0.25517 0.05952 0.0
C297 C 0.50843 0.27183 0.06678 0.0
C298 C 0.54436 0.27021 0.93335 0.0
C299 C 0.48537 0.26841 0.0551 0.0
C300 C 0.45617 0.26676 0.99979 0.0
C301 C 0.47791 0.27098 0.01081 0.0
C302 C 0.44904 0.25748 0.07726 0.0
C303 C 0.44149 0.25969 0.03275 0.0
C304 C 0.47078 0.26179 0.08827 0.0
C305 C 0.59098 0.28165 0.10939 0.0
C306 C 0.59004 0.29701 0.18504 0.0
C307 C 0.61975 0.27368 0.16308 0.0
C308 C 0.61047 0.27122 0.12032 0.0
C309 C 0.60979 0.28678 0.19593 0.0
C310 C 0.5807 0.29445 0.1422 0.0
C311 C 0.58229 0.27938 0.06317 0.0
O312 O 0.54492 0.25363 0.96051 0.0
O313 O 0.5415 0.28871 0.95454 0.0
O314 O 0.57065 0.2955 0.04767 0.0
O315 O 0.5743 0.26036 0.05234 0.0
H316 H 0.58169 0.29435 0.92631 0.0
H317 H 0.60837 0.29293 0.86547 0.0
H318 H 0.57028 0.24369 0.79801 0.0
H319 H 0.54366 0.24521 0.8588 0.0
H320 H 0.4509 0.26898 0.96533 0.0
H321 H 0.48893 0.27606 0.98468 0.0
H322 H 0.43832 0.25183 0.10339 0.0
H323 H 0.47629 0.25961 0.12261 0.0
H324 H 0.582 0.30737 0.20929 0.0
H325 H 0.63472 0.26521 0.17042 0.0
H326 H 0.61864 0.26122 0.09556 0.0
H327 H 0.56561 0.30266 0.13461 0.0
C328 C 0.27874 0.04215 0.37032 0.0
C329 C 0.2841 0.06349 0.38199 0.0
C330 C 0.27888 0.07451 0.30431 0.0
C331 C 0.28426 0.0795 0.34926 0.0
C332 C 0.27308 0.05319 0.2929 0.0
C333 C 0.2731 0.03711 0.32568 0.0
U334 U 0.27762 0.02659 0.49279 0.0
O335 O 0.26151 0.99998 0.52784 0.0
O336 O 0.29706 1.00312 0.53085 0.0
C337 C 0.28002 0.9913 0.54059 0.0
C338 C 0.27905 0.02522 0.40464 0.0
C339 C 0.28249 0.96774 0.53427 0.0
C340 C 0.26907 0.9328 0.508 0.0
C341 C 0.26759 0.95536 0.50885 0.0
C342 C 0.30084 0.93475 0.55626 0.0
C343 C 0.28541 0.92223 0.53265 0.0
C344 C 0.29933 0.95721 0.55718 0.0
C345 C 0.27283 0.07295 0.57939 0.0
C346 C 0.28376 0.07301 0.65819 0.0
C347 C 0.25865 0.10003 0.63101 0.0
C348 C 0.25972 0.09098 0.58785 0.0
C349 C 0.27079 0.09129 0.66671 0.0
C350 C 0.28473 0.06388 0.61495 0.0
C351 C 0.27409 0.06429 0.53311 0.0
O352 O 0.29649 0.02498 0.43036 0.0
O353 O 0.26093 0.02299 0.42733 0.0
O354 O 0.25724 0.05299 0.51918 0.0
O355 O 0.29279 0.05585 0.52104 0.0
H356 H 0.28826 0.06775 0.41642 0.0
H357 H 0.28845 0.09583 0.35922 0.0
H358 H 0.26895 0.04886 0.25851 0.0
H359 H 0.26884 0.02074 0.31614 0.0
H360 H 0.25687 0.92362 0.48969 0.0
H361 H 0.25442 0.96303 0.49074 0.0
H362 H 0.31385 0.92714 0.57495 0.0
H363 H 0.31103 0.96637 0.57695 0.0
H364 H 0.29347 0.06595 0.68472 0.0
H365 H 0.24814 0.1138 0.63642 0.0
H366 H 0.25033 0.09814 0.56091 0.0
H367 H 0.29492 0.04989 0.60924 0.0
C368 C 0.44831 0.74797 0.13836 0.0
C369 C 0.45383 0.73523 0.17536 0.0
C370 C 0.41942 0.74392 0.21149 0.0
C371 C 0.43955 0.73314 0.2114 0.0
C372 C 0.41369 0.75634 0.17386 0.0
C373 C 0.42798 0.75832 0.13758 0.0
U374 U 0.46357 0.74827 0.01343 0.0
O375 O 0.48568 0.76924 0.97596 0.0
O376 O 0.49234 0.73454 0.97988 0.0
C377 C 0.49953 0.75355 0.96769 0.0
C378 C 0.46417 0.75035 0.10162 0.0
C379 C 0.52257 0.75808 0.97824 0.0
C380 C 0.55046 0.7778 0.01977 0.0
C381 C 0.52855 0.77367 0.0106 0.0
C382 C 0.56083 0.75068 0.96481 0.0
C383 C 0.56692 0.76628 0.99723 0.0
C384 C 0.53888 0.74668 0.95539 0.0
C385 C 0.41935 0.73773 0.92369 0.0
C386 C 0.40387 0.75284 0.85528 0.0
C387 C 0.40977 0.71435 0.86031 0.0
C388 C 0.41803 0.71708 0.90388 0.0
C389 C 0.40247 0.73218 0.8356 0.0
C390 C 0.41217 0.75559 0.89886 0.0
C391 C 0.42689 0.74038 0.9709 0.0
O392 O 0.46861 0.73263 0.07885 0.0
O393 O 0.46208 0.76741 0.07601 0.0
O394 O 0.43304 0.75986 0.98348 0.0
O395 O 0.43957 0.72513 0.9867 0.0
H396 H 0.46933 0.72696 0.17653 0.0
H397 H 0.44433 0.72304 0.23926 0.0
H398 H 0.3984 0.76495 0.17287 0.0
H399 H 0.42323 0.76814 0.10926 0.0
H400 H 0.55448 0.79018 0.04438 0.0
H401 H 0.51631 0.7827 0.02879 0.0
H402 H 0.57299 0.74128 0.94723 0.0
H403 H 0.53462 0.73455 0.93035 0.0
H404 H 0.39851 0.76692 0.83702 0.0
H405 H 0.40855 0.69817 0.84647 0.0
H406 H 0.42304 0.70293 0.9223 0.0
H407 H 0.4127 0.7717 0.91324 0.0
H408 H 0.20083 0.2306 0.16078 0.0
H409 H 0.16129 0.20733 0.04877 0.0
H410 H 0.12844 0.21198 0.09423 0.0
H411 H 0.16979 0.20517 0.24808 0.0
H412 H 0.17247 0.22732 0.28746 0.0
H413 H 0.19328 0.22251 0.24619 0.0
H414 H 0.18904 0.26162 0.21763 0.0
H415 H 0.16825 0.26656 0.25888 0.0
H416 H 0.16264 0.27105 0.20014 0.0
H417 H 0.09984 0.21843 0.15087 0.0
H418 H 0.07683 0.22674 0.21616 0.0
H419 H 0.13397 0.24652 0.29251 0.0
C420 C 0.18526 0.22653 0.14582 0.0
C421 C 0.18377 0.21852 0.1011 0.0
C422 C 0.16301 0.2134 0.0829 0.0
C423 C 0.14417 0.216 0.10845 0.0
C424 C 0.1462 0.22377 0.1523 0.0
C425 C 0.16614 0.22901 0.17099 0.0
C426 C 0.16354 0.23698 0.21916 0.0
C427 C 0.17548 0.2221 0.25217 0.0
C428 C 0.17133 0.26045 0.22423 0.0
C429 C 0.13906 0.23532 0.22442 0.0
C430 C 0.12946 0.22767 0.18532 0.0
C431 C 0.10712 0.22459 0.18163 0.0
C432 C 0.09416 0.22951 0.21888 0.0
C433 C 0.10349 0.23752 0.25945 0.0
C434 C 0.12632 0.24035 0.26212 0.0
H435 H 0.24941 0.6822 0.65362 0.0
H436 H 0.26194 0.63575 0.54665 0.0
H437 H 0.25412 0.606 0.59938 0.0
H438 H 0.27534 0.65366 0.73929 0.0
H439 H 0.25633 0.66161 0.78225 0.0
H440 H 0.26091 0.67885 0.73494 0.0
H441 H 0.21969 0.67847 0.71644 0.0
H442 H 0.21495 0.66125 0.76384 0.0
H443 H 0.20592 0.65304 0.70847 0.0
H444 H 0.24702 0.58136 0.66673 0.0
H445 H 0.24113 0.56448 0.74084 0.0
H446 H 0.23478 0.628 0.80193 0.0
C447 C 0.25027 0.66581 0.64081 0.0
C448 C 0.2563 0.66134 0.59587 0.0
C449 C 0.2573 0.63959 0.58088 0.0
C450 C 0.25289 0.62261 0.61061 0.0
C451 C 0.24746 0.62769 0.65504 0.0
C452 C 0.24608 0.64883 0.66985 0.0
C453 C 0.24108 0.65028 0.71948 0.0
C454 C 0.25951 0.66177 0.7455 0.0
C455 C 0.2191 0.66141 0.72751 0.0
C456 C 0.24007 0.62662 0.73072 0.0
C457 C 0.24364 0.61376 0.69324 0.0
C458 C 0.24409 0.59133 0.69617 0.0
C459 C 0.24087 0.58189 0.73846 0.0
C460 C 0.23733 0.59488 0.77729 0.0
C461 C 0.2369 0.61753 0.77292 0.0
H462 H 0.81018 0.77372 0.14833 0.0
H463 H 0.84595 0.82144 0.07284 0.0
H464 H 0.87584 0.81988 0.12856 0.0
H465 H 0.8228 0.79505 0.25415 0.0
H466 H 0.82495 0.76947 0.28209 0.0
H467 H 0.80775 0.77205 0.2333 0.0
H468 H 0.82832 0.74076 0.19385 0.0
H469 H 0.84554 0.73797 0.24269 0.0
H470 H 0.85742 0.74222 0.18821 0.0
H471 H 0.90033 0.8154 0.19545 0.0
H472 H 0.91752 0.80865 0.26923 0.0
H473 H 0.865 0.76497 0.30249 0.0
C474 C 0.82455 0.78341 0.14291 0.0
C475 C 0.82588 0.79757 0.1061 0.0
C476 C 0.84468 0.81045 0.10079 0.0
C477 C 0.86174 0.80962 0.13215 0.0
C478 C 0.85971 0.79588 0.16869 0.0
C479 C 0.84161 0.78298 0.1742 0.0
C480 C 0.8426 0.77105 0.21836 0.0
C481 C 0.82339 0.77729 0.24876 0.0
C482 C 0.84353 0.74654 0.21028 0.0
C483 C 0.8639 0.77953 0.23716 0.0
C484 C 0.87363 0.79365 0.20778 0.0
C485 C 0.89295 0.80425 0.2186 0.0
C486 C 0.9025 0.80044 0.26072 0.0
C487 C 0.89264 0.78627 0.29167 0.0
C488 C 0.87318 0.77557 0.27931 0.0
H489 H 0.74142 0.3718 0.62587 0.0
H490 H 0.76248 0.31409 0.6954 0.0
H491 H 0.77191 0.33604 0.76209 0.0
H492 H 0.78312 0.40752 0.67249 0.0
H493 H 0.76505 0.43028 0.67722 0.0
H494 H 0.76057 0.41017 0.63397 0.0
H495 H 0.72138 0.40438 0.66274 0.0
H496 H 0.72575 0.42438 0.70619 0.0
H497 H 0.71713 0.39759 0.72086 0.0
H498 H 0.77767 0.36362 0.82235 0.0
H499 H 0.78011 0.39545 0.87224 0.0
H500 H 0.75633 0.43581 0.76395 0.0
C501 C 0.74817 0.3638 0.65498 0.0
C502 C 0.75113 0.34116 0.65528 0.0
C503 C 0.75995 0.33136 0.69423 0.0
C504 C 0.76541 0.34369 0.73236 0.0
C505 C 0.76204 0.36586 0.73116 0.0
C506 C 0.75372 0.37589 0.69351 0.0
C507 C 0.75139 0.39998 0.70161 0.0
C508 C 0.7659 0.41274 0.66941 0.0
C509 C 0.72749 0.40699 0.69762 0.0
C510 C 0.75951 0.40183 0.7498 0.0
C511 C 0.7656 0.38193 0.76606 0.0
C512 C 0.77318 0.37935 0.80987 0.0
C513 C 0.77465 0.3976 0.83789 0.0
C514 C 0.76864 0.41827 0.82208 0.0
C515 C 0.76096 0.42029 0.77729 0.0
H516 H 0.70861 0.3006 0.36951 0.0
H517 H 0.66129 0.30266 0.47727 0.0
H518 H 0.63167 0.29861 0.42134 0.0
H519 H 0.6772 0.33103 0.28994 0.0
H520 H 0.68613 0.31536 0.24212 0.0
H521 H 0.70352 0.31829 0.29074 0.0
H522 H 0.70605 0.27671 0.29713 0.0
H523 H 0.68865 0.27364 0.24857 0.0
H524 H 0.68146 0.26103 0.30079 0.0
H525 H 0.60714 0.29393 0.35313 0.0
H526 H 0.58982 0.28914 0.27851 0.0
H527 H 0.65331 0.29131 0.21578 0.0
C528 C 0.69203 0.30017 0.38149 0.0
C529 C 0.68732 0.30194 0.42791 0.0
C530 C 0.66535 0.30138 0.44194 0.0
C531 C 0.6484 0.29907 0.41041 0.0
C532 C 0.65364 0.29741 0.36494 0.0
C533 C 0.67494 0.29798 0.35053 0.0
C534 C 0.67626 0.29602 0.2998 0.0
C535 C 0.68637 0.31639 0.27947 0.0
C536 C 0.68885 0.27564 0.28576 0.0
C537 C 0.65239 0.29411 0.28786 0.0
C538 C 0.63958 0.29495 0.32585 0.0
C539 C 0.61702 0.29335 0.32315 0.0
C540 C 0.60731 0.29077 0.28053 0.0
C541 C 0.62013 0.28983 0.24107 0.0
C542 C 0.64299 0.29164 0.24515 0.0
H543 H 0.25675 0.18769 0.84391 0.0
H544 H 0.25508 0.13974 0.94931 0.0
H545 H 0.26255 0.11117 0.89299 0.0
H546 H 0.22935 0.15682 0.76215 0.0
H547 H 0.2451 0.1663 0.7154 0.0
H548 H 0.24165 0.1832 0.76442 0.0
H549 H 0.28343 0.1865 0.77338 0.0
H550 H 0.28703 0.16975 0.72411 0.0
H551 H 0.29972 0.1624 0.77655 0.0
H552 H 0.2675 0.08752 0.82404 0.0
H553 H 0.27012 0.07084 0.74846 0.0
H554 H 0.26911 0.13446 0.68876 0.0
C555 C 0.25833 0.17125 0.8554 0.0
C556 C 0.25536 0.166 0.90116 0.0
C557 C 0.25731 0.1442 0.9145 0.0
C558 C 0.26156 0.12784 0.88275 0.0
C559 C 0.26391 0.13354 0.83779 0.0
C560 C 0.26249 0.15474 0.8242 0.0
C561 C 0.2646 0.15652 0.77364 0.0
C562 C 0.24394 0.16628 0.75269 0.0
C563 C 0.28491 0.16956 0.7612 0.0
C564 C 0.26707 0.13297 0.7608 0.0
C565 C 0.26676 0.11996 0.79824 0.0
C566 C 0.26804 0.09758 0.79453 0.0
C567 C 0.26962 0.08825 0.75141 0.0
C568 C 0.26987 0.10129 0.71248 0.0
C569 C 0.26875 0.12397 0.71763 0.0
H570 H 0.30737 0.72897 0.34514 0.0
H571 H 0.34643 0.72712 0.46711 0.0
H572 H 0.3793 0.73456 0.42305 0.0
H573 H 0.34548 0.70162 0.27614 0.0
H574 H 0.34013 0.71717 0.22639 0.0
H575 H 0.31915 0.71368 0.26765 0.0
H576 H 0.31498 0.75513 0.27502 0.0
H577 H 0.33592 0.75875 0.23365 0.0
H578 H 0.33846 0.77143 0.28826 0.0
H579 H 0.40803 0.7407 0.3666 0.0
H580 H 0.4314 0.74439 0.30026 0.0
H581 H 0.37454 0.74063 0.21326 0.0
C582 C 0.32281 0.73053 0.36254 0.0
C583 C 0.32435 0.72758 0.40959 0.0
C584 C 0.34488 0.72929 0.43111 0.0
C585 C 0.36364 0.73359 0.40641 0.0
C586 C 0.36168 0.73604 0.36009 0.0
C587 C 0.34185 0.73456 0.33821 0.0
C588 C 0.34463 0.7366 0.2877 0.0
C589 C 0.33689 0.71604 0.26303 0.0
C590 C 0.33279 0.75667 0.27013 0.0
C591 C 0.36911 0.7392 0.28476 0.0
C592 C 0.37853 0.73903 0.32703 0.0
C593 C 0.40088 0.74083 0.33326 0.0
C594 C 0.41404 0.74273 0.29526 0.0
C595 C 0.40491 0.7426 0.25135 0.0
C596 C 0.38206 0.74099 0.24627 0.0
H597 H 0.78117 0.86894 0.9004 0.0
H598 H 0.71773 0.83834 0.90093 0.0
H599 H 0.70445 0.86491 0.8457 0.0
H600 H 0.76249 0.92423 0.88824 0.0
H601 H 0.78439 0.93138 0.85125 0.0
H602 H 0.78838 0.91083 0.8929 0.0
H603 H 0.80024 0.88392 0.83047 0.0
H604 H 0.79622 0.90434 0.78862 0.0
H605 H 0.78238 0.87881 0.78326 0.0
H606 H 0.69845 0.89438 0.78874 0.0
H607 H 0.70057 0.9235 0.7327 0.0
H608 H 0.76819 0.93411 0.76844 0.0
C609 C 0.76439 0.86797 0.8894 0.0
C610 C 0.75044 0.85162 0.90523 0.0
C611 C 0.7287 0.85073 0.88933 0.0
C612 C 0.72101 0.86578 0.85804 0.0
C613 C 0.73527 0.88154 0.8428 0.0
C614 C 0.75652 0.88269 0.85788 0.0
C615 C 0.76886 0.90051 0.83469 0.0
C616 C 0.77647 0.91776 0.86881 0.0
C617 C 0.78806 0.89134 0.80766 0.0
C618 C 0.75128 0.90915 0.80395 0.0
C619 C 0.73197 0.89814 0.8094 0.0
C620 C 0.71347 0.90317 0.78436 0.0
C621 C 0.7148 0.91979 0.75276 0.0
C622 C 0.73453 0.93109 0.7462 0.0
C623 C 0.75293 0.92567 0.77241 0.0
H624 H 0.80738 0.78983 0.84747 0.0
H625 H 0.84801 0.80447 0.96396 0.0
H626 H 0.88064 0.79828 0.91876 0.0
H627 H 0.84198 0.7474 0.80145 0.0
H628 H 0.83741 0.75492 0.74375 0.0
H629 H 0.81677 0.76 0.78527 0.0
H630 H 0.81655 0.80043 0.76421 0.0
H631 H 0.83723 0.79549 0.72275 0.0
H632 H 0.84158 0.81551 0.76624 0.0
H633 H 0.90893 0.7916 0.86217 0.0
H634 H 0.93175 0.78424 0.79619 0.0
H635 H 0.87385 0.77322 0.71487 0.0
C636 C 0.82314 0.7916 0.86345 0.0
C637 C 0.82502 0.79774 0.90934 0.0
C638 C 0.84601 0.79995 0.92888 0.0
C639 C 0.86473 0.79642 0.90352 0.0
C640 C 0.86235 0.79064 0.85848 0.0
C641 C 0.84218 0.78818 0.83844 0.0
C642 C 0.8445 0.78211 0.78904 0.0
C643 C 0.83458 0.75978 0.77932 0.0
C644 C 0.83436 0.79942 0.75878 0.0
C645 C 0.86909 0.78168 0.78472 0.0
C646 C 0.87896 0.78662 0.82535 0.0
C647 C 0.90144 0.78751 0.83019 0.0
C648 C 0.91427 0.78315 0.79251 0.0
C649 C 0.90467 0.77787 0.75036 0.0
C650 C 0.88171 0.77724 0.74653 0.0
H651 H 0.77392 0.34106 0.40165 0.0
H652 H 0.73327 0.38142 0.48634 0.0
H653 H 0.73691 0.41121 0.43225 0.0
H654 H 0.80993 0.38441 0.35843 0.0
H655 H 0.81069 0.37233 0.30306 0.0
H656 H 0.80776 0.35556 0.35184 0.0
H657 H 0.77273 0.33898 0.31728 0.0
H658 H 0.77537 0.35582 0.26872 0.0
H659 H 0.75072 0.35649 0.30113 0.0
H660 H 0.7416 0.43512 0.36489 0.0
H661 H 0.7466 0.45095 0.28973 0.0
H662 H 0.78389 0.39478 0.24877 0.0
C663 C 0.76639 0.35639 0.40961 0.0
C664 C 0.75354 0.35901 0.44855 0.0
C665 C 0.74334 0.37912 0.45691 0.0
C666 C 0.74534 0.39614 0.42641 0.0
C667 C 0.75756 0.3928 0.38761 0.0
C668 C 0.768 0.37344 0.37925 0.0
C669 C 0.77831 0.37319 0.33309 0.0
C670 C 0.80315 0.37126 0.33685 0.0
C671 C 0.7687 0.35505 0.30332 0.0
C672 C 0.77164 0.39521 0.31637 0.0
C673 C 0.75991 0.4064 0.34848 0.0
C674 C 0.75105 0.42664 0.33975 0.0
C675 C 0.75406 0.43555 0.29697 0.0
C676 C 0.76568 0.42418 0.26324 0.0
C677 C 0.77482 0.40388 0.27362 0.0
H678 H 0.20047 0.24559 0.86272 0.0
H679 H 0.16644 0.19409 0.93064 0.0
H680 H 0.13742 0.19526 0.87297 0.0
H681 H 0.15206 0.27527 0.82376 0.0
H682 H 0.16429 0.28179 0.77064 0.0
H683 H 0.1811 0.27854 0.81996 0.0
H684 H 0.20387 0.24967 0.77787 0.0
H685 H 0.18709 0.2527 0.72858 0.0
H686 H 0.19043 0.22649 0.75339 0.0
H687 H 0.11347 0.20023 0.80513 0.0
H688 H 0.09681 0.20803 0.73131 0.0
H689 H 0.14666 0.256 0.70701 0.0
C690 C 0.18668 0.23489 0.86604 0.0
C691 C 0.18563 0.21984 0.90138 0.0
C692 C 0.16755 0.20577 0.9039 0.0
C693 C 0.15096 0.20636 0.87138 0.0
C694 C 0.1527 0.22108 0.83646 0.0
C695 C 0.17008 0.2351 0.83359 0.0
C696 C 0.16887 0.24825 0.79094 0.0
C697 C 0.16643 0.27239 0.802 0.0
C698 C 0.18874 0.24401 0.76093 0.0
C699 C 0.14831 0.23915 0.7699 0.0
C700 C 0.13909 0.22368 0.79693 0.0
C701 C 0.1204 0.21249 0.7839 0.0
C702 C 0.111 0.21711 0.74197 0.0
C703 C 0.12036 0.23268 0.71334 0.0
C704 C 0.13916 0.24393 0.72794 0.0
H705 H 0.27652 0.65085 0.39603 0.0
H706 H 0.22112 0.6931 0.37589 0.0
H707 H 0.20788 0.66916 0.31482 0.0
H708 H 0.28566 0.63877 0.28067 0.0
H709 H 0.2931 0.61106 0.28997 0.0
H710 H 0.29773 0.63098 0.33345 0.0
H711 H 0.27531 0.60825 0.38926 0.0
H712 H 0.27064 0.58821 0.34596 0.0
H713 H 0.24795 0.60041 0.37456 0.0
H714 H 0.20144 0.64138 0.25376 0.0
H715 H 0.20187 0.61138 0.19847 0.0
H716 H 0.26148 0.58735 0.25833 0.0
C717 C 0.2615 0.65503 0.37908 0.0
C718 C 0.24989 0.67393 0.39086 0.0
C719 C 0.23034 0.67875 0.36758 0.0
C720 C 0.22267 0.66524 0.33281 0.0
C721 C 0.23466 0.64689 0.32176 0.0
C722 C 0.2536 0.64172 0.34433 0.0
C723 C 0.26366 0.6213 0.32529 0.0
C724 C 0.28638 0.62581 0.30621 0.0
C725 C 0.26443 0.60349 0.36089 0.0
C726 C 0.24753 0.6159 0.28819 0.0
C727 C 0.2309 0.63085 0.28675 0.0
C728 C 0.21435 0.62954 0.25467 0.0
C729 C 0.2148 0.61252 0.22323 0.0
C730 C 0.23169 0.59699 0.22402 0.0
C731 C 0.24819 0.59876 0.25718 0.0
H732 H 0.31018 0.74312 0.64813 0.0
H733 H 0.34377 0.6933 0.57209 0.0
H734 H 0.37369 0.69403 0.62776 0.0
H735 H 0.35877 0.77296 0.68655 0.0
H736 H 0.34738 0.77849 0.74119 0.0
H737 H 0.32978 0.77571 0.69281 0.0
H738 H 0.30812 0.74586 0.73335 0.0
H739 H 0.32567 0.74847 0.78171 0.0
H740 H 0.3223 0.72258 0.75445 0.0
H741 H 0.39855 0.69818 0.69451 0.0
H742 H 0.41642 0.7053 0.76778 0.0
H743 H 0.36605 0.75165 0.80111 0.0
C744 C 0.32403 0.73268 0.64266 0.0
C745 C 0.32468 0.71821 0.60565 0.0
C746 C 0.34292 0.70452 0.60019 0.0
C747 C 0.36003 0.70486 0.63154 0.0
C748 C 0.35866 0.71899 0.66815 0.0
C749 C 0.34115 0.73268 0.67381 0.0
C750 C 0.3429 0.74521 0.71768 0.0
C751 C 0.34483 0.76954 0.70902 0.0
C752 C 0.3236 0.74022 0.74861 0.0
C753 C 0.36391 0.73613 0.7362 0.0
C754 C 0.37286 0.72119 0.70694 0.0
C755 C 0.39178 0.70997 0.71756 0.0
C756 C 0.40173 0.71402 0.75937 0.0
C757 C 0.39267 0.72906 0.79019 0.0
C758 C 0.37362 0.74037 0.77801 0.0
H759 H 0.75954 0.83217 0.16942 0.0
H760 H 0.75422 0.87921 0.06272 0.0
H761 H 0.74672 0.9077 0.11941 0.0
H762 H 0.71757 0.8543 0.24183 0.0
H763 H 0.73247 0.84848 0.29265 0.0
H764 H 0.73599 0.83172 0.24337 0.0
H765 H 0.7775 0.83866 0.24636 0.0
H766 H 0.77412 0.85548 0.29553 0.0
H767 H 0.78746 0.86601 0.2466 0.0
H768 H 0.74102 0.93127 0.18867 0.0
H769 H 0.73779 0.94791 0.26423 0.0
H770 H 0.74842 0.88533 0.32474 0.0
C771 C 0.7565 0.84839 0.15777 0.0
C772 C 0.75737 0.85342 0.11153 0.0
C773 C 0.7536 0.87495 0.09794 0.0
C774 C 0.74931 0.89123 0.12989 0.0
C775 C 0.7489 0.88573 0.17526 0.0
C776 C 0.75239 0.86481 0.18912 0.0
C777 C 0.75205 0.8632 0.23988 0.0
C778 C 0.73341 0.84856 0.25533 0.0
C779 C 0.7741 0.85538 0.25815 0.0
C780 C 0.74792 0.88652 0.25255 0.0
C781 C 0.74603 0.89927 0.21488 0.0
C782 C 0.74247 0.92142 0.21838 0.0
C783 C 0.74082 0.93075 0.26148 0.0
C784 C 0.74283 0.91797 0.30061 0.0
C785 C 0.74642 0.89555 0.2957 0.0
H786 H 0.67613 0.31338 0.64773 0.0
H787 H 0.69231 0.24693 0.61514 0.0
H788 H 0.66451 0.23447 0.66867 0.0
H789 H 0.6692 0.30546 0.76465 0.0
H790 H 0.64699 0.32422 0.77014 0.0
H791 H 0.66698 0.32795 0.72693 0.0
H792 H 0.63663 0.32796 0.66617 0.0
H793 H 0.61651 0.32438 0.70923 0.0
H794 H 0.61794 0.30561 0.66265 0.0
H795 H 0.63564 0.2293 0.72745 0.0
H796 H 0.60835 0.23174 0.78791 0.0
H797 H 0.61171 0.30159 0.78352 0.0
C798 C 0.67362 0.2962 0.65127 0.0
C799 C 0.68631 0.28112 0.62695 0.0
C800 C 0.68276 0.25878 0.6333 0.0
C801 C 0.66699 0.25155 0.6636 0.0
C802 C 0.65499 0.26686 0.68751 0.0
C803 C 0.65813 0.28872 0.68173 0.0
C804 C 0.64381 0.30183 0.71301 0.0
C805 C 0.65757 0.31568 0.74561 0.0
C806 C 0.62777 0.31577 0.68615 0.0
C807 C 0.63218 0.28393 0.7375 0.0
C808 C 0.63874 0.26389 0.72206 0.0
C809 C 0.63032 0.24491 0.73965 0.0
C810 C 0.61476 0.24647 0.77386 0.0
C811 C 0.60786 0.26684 0.79042 0.0
C812 C 0.61678 0.28578 0.77187 0.0
H813 H 0.23301 0.14692 0.10409 0.0
H814 H 0.29079 0.18657 0.12 0.0
H815 H 0.30471 0.16167 0.17747 0.0
H816 H 0.22662 0.13509 0.21906 0.0
H817 H 0.21759 0.10773 0.20998 0.0
H818 H 0.21279 0.1277 0.16753 0.0
H819 H 0.23259 0.10381 0.10869 0.0
H820 H 0.23738 0.0837 0.15094 0.0
H821 H 0.25987 0.09471 0.12012 0.0
H822 H 0.31134 0.13398 0.23656 0.0
H823 H 0.31061 0.1047 0.29221 0.0
H824 H 0.24862 0.08292 0.2383 0.0
C825 C 0.24874 0.15021 0.11914 0.0
C826 C 0.26079 0.16874 0.10742 0.0
C827 C 0.28121 0.17253 0.12836 0.0
C828 C 0.2893 0.15846 0.16103 0.0
C829 C 0.27684 0.14059 0.17235 0.0
C830 C 0.25706 0.13633 0.15191 0.0
C831 C 0.24651 0.11647 0.17159 0.0
C832 C 0.22458 0.1221 0.19333 0.0
C833 C 0.24394 0.09861 0.13569 0.0
C834 C 0.26332 0.11041 0.2067 0.0
C835 C 0.28071 0.12451 0.20645 0.0
C836 C 0.29789 0.12275 0.23688 0.0
C837 C 0.29726 0.10616 0.26853 0.0
C838 C 0.27958 0.09154 0.26956 0.0
C839 C 0.2625 0.09366 0.23791 0.0
H840 H 0.251 0.29574 0.95186 0.0
H841 H 0.21493 0.28559 0.07505 0.0
H842 H 0.20911 0.32475 0.08248 0.0
H843 H 0.27812 0.34373 0.98845 0.0
H844 H 0.27672 0.35667 0.93448 0.0
H845 H 0.27736 0.32769 0.93754 0.0
H846 H 0.24165 0.32541 0.89113 0.0
H847 H 0.24093 0.35439 0.88781 0.0
H848 H 0.21803 0.33998 0.91018 0.0
H849 H 0.20785 0.36498 0.07786 0.0
H850 H 0.21083 0.4037 0.06071 0.0
H851 H 0.24841 0.38801 0.9416 0.0
C852 C 0.24171 0.30172 0.98018 0.0
C853 C 0.23344 0.28753 0.01287 0.0
C854 C 0.22151 0.29609 0.04961 0.0
C855 C 0.21807 0.31833 0.05414 0.0
C856 C 0.22667 0.33188 0.0217 0.0
C857 C 0.2382 0.32394 0.98537 0.0
C858 C 0.24609 0.3421 0.95585 0.0
C859 C 0.27105 0.34257 0.95399 0.0
C860 C 0.23607 0.34036 0.90844 0.0
C861 C 0.23726 0.36144 0.9814 0.0
C862 C 0.22608 0.35517 0.01922 0.0
C863 C 0.21659 0.37011 0.04835 0.0
C864 C 0.21852 0.39209 0.0385 0.0
C865 C 0.22991 0.39897 0.9999 0.0
C866 C 0.23938 0.38332 0.97109 0.0
H867 H 0.19521 0.74897 0.45877 0.0
H868 H 0.19909 0.71014 0.57947 0.0
H869 H 0.15943 0.71214 0.58738 0.0
H870 H 0.15263 0.78418 0.49764 0.0
H871 H 0.13927 0.78576 0.44366 0.0
H872 H 0.16813 0.78116 0.44669 0.0
H873 H 0.16369 0.74647 0.39822 0.0
H874 H 0.13481 0.75097 0.395 0.0
H875 H 0.14513 0.72577 0.41599 0.0
H876 H 0.11956 0.71827 0.58312 0.0
H877 H 0.08159 0.72791 0.56613 0.0
H878 H 0.10296 0.76332 0.44904 0.0
C879 C 0.18772 0.74084 0.48677 0.0
C880 C 0.20039 0.72945 0.51853 0.0
C881 C 0.18986 0.71906 0.55473 0.0
C882 C 0.16728 0.72007 0.55957 0.0
C883 C 0.15533 0.73151 0.52797 0.0
C884 C 0.16509 0.7417 0.49223 0.0
C885 C 0.14831 0.753 0.46324 0.0
C886 C 0.15233 0.77748 0.4628 0.0
C887 C 0.14797 0.74348 0.41527 0.0
C888 C 0.12767 0.74754 0.48836 0.0
C889 C 0.13214 0.73514 0.52559 0.0
C890 C 0.11583 0.72805 0.55414 0.0
C891 C 0.0943 0.73376 0.54438 0.0
C892 C 0.08921 0.74649 0.50641 0.0
C893 C 0.10623 0.75343 0.4781 0.0
H894 H 0.76516 0.72528 0.0694 0.0
H895 H 0.7808 0.73067 0.92762 0.0
H896 H 0.7839 0.69112 0.92187 0.0
H897 H 0.8019 0.68087 0.09262 0.0
H898 H 0.78357 0.66814 0.13129 0.0
H899 H 0.78296 0.69697 0.12453 0.0
H900 H 0.74191 0.69499 0.10519 0.0
H901 H 0.74241 0.66615 0.11164 0.0
H902 H 0.73279 0.67767 0.05979 0.0
H903 H 0.78385 0.65094 0.9305 0.0
H904 H 0.78203 0.61295 0.95359 0.0
H905 H 0.76788 0.6335 0.09048 0.0
C906 C 0.76933 0.71818 0.03716 0.0
C907 C 0.77266 0.73118 0.99893 0.0
C908 C 0.77815 0.72115 0.95743 0.0
C909 C 0.77993 0.69866 0.95377 0.0
C910 C 0.77633 0.68635 0.99194 0.0
C911 C 0.77129 0.69573 0.03292 0.0
C912 C 0.76818 0.67875 0.06871 0.0
C913 C 0.78517 0.68134 0.10652 0.0
C914 C 0.74494 0.67944 0.08742 0.0
C915 C 0.77205 0.65838 0.0413 0.0
C916 C 0.77671 0.66314 0.99711 0.0
C917 C 0.78045 0.64701 0.96515 0.0
C918 C 0.77952 0.62544 0.97872 0.0
C919 C 0.77499 0.62007 0.024 0.0
C920 C 0.7712 0.63692 0.05555 0.0
H921 H 0.81751 0.27484 0.47978 0.0
H922 H 0.8093 0.30965 0.60607 0.0
H923 H 0.84883 0.3094 0.61812 0.0
H924 H 0.8594 0.24023 0.5184 0.0
H925 H 0.87464 0.24014 0.4668 0.0
H926 H 0.84573 0.2445 0.46544 0.0
H927 H 0.85149 0.28043 0.4235 0.0
H928 H 0.88045 0.27617 0.42467 0.0
H929 H 0.86916 0.3007 0.44762 0.0
H930 H 0.88844 0.30391 0.6196 0.0
H931 H 0.92663 0.29301 0.61073 0.0
H932 H 0.91055 0.26116 0.48415 0.0
C933 C 0.8241 0.28268 0.50956 0.0
C934 C 0.81025 0.29229 0.54197 0.0
C935 C 0.8195 0.3021 0.58085 0.0
C936 C 0.84198 0.30214 0.58796 0.0
C937 C 0.85514 0.29228 0.55593 0.0
C938 C 0.84667 0.28272 0.51746 0.0
C939 C 0.8646 0.27227 0.48981 0.0
C940 C 0.86087 0.24784 0.48484 0.0
C941 C 0.86654 0.28304 0.44366 0.0
C942 C 0.88432 0.27718 0.51924 0.0
C943 C 0.87838 0.28889 0.55699 0.0
C944 C 0.89335 0.29481 0.59011 0.0
C945 C 0.91498 0.28843 0.58489 0.0
C946 C 0.92157 0.27613 0.54693 0.0
C947 C 0.90603 0.27071 0.51332 0.0
H948 H 0.75466 0.21904 0.55772 0.0
H949 H 0.72695 0.23813 0.42937 0.0
H950 H 0.72207 0.19996 0.40834 0.0
H951 H 0.78421 0.17337 0.51552 0.0
H952 H 0.77923 0.15686 0.56397 0.0
H953 H 0.78006 0.18578 0.5699 0.0
H954 H 0.74167 0.18541 0.6051 0.0
H955 H 0.74069 0.15648 0.59918 0.0
H956 H 0.71955 0.17279 0.57477 0.0
H957 H 0.72061 0.16008 0.40016 0.0
H958 H 0.72317 0.12053 0.40483 0.0
H959 H 0.75215 0.12654 0.53789 0.0
C960 C 0.74751 0.2152 0.52526 0.0
C961 C 0.74124 0.23168 0.4952 0.0
C962 C 0.73198 0.22589 0.45298 0.0
C963 C 0.72907 0.20421 0.44072 0.0
C964 C 0.73547 0.18842 0.47097 0.0
C965 C 0.74451 0.19356 0.51234 0.0
C966 C 0.75035 0.17332 0.53808 0.0
C967 C 0.77492 0.17228 0.5474 0.0
C968 C 0.73728 0.17192 0.58188 0.0
C969 C 0.7433 0.15606 0.5045 0.0
C970 C 0.7347 0.1652 0.46613 0.0
C971 C 0.72735 0.15271 0.42999 0.0
C972 C 0.729 0.13025 0.43287 0.0
C973 C 0.73802 0.12041 0.47155 0.0
C974 C 0.74504 0.13356 0.50802 0.0
H975 H 0.31207 0.24972 0.06285 0.0
H976 H 0.31099 0.2173 0.93254 0.0
H977 H 0.3506 0.22129 0.92728 0.0
H978 H 0.35368 0.2884 0.03556 0.0
H979 H 0.36643 0.28774 0.09027 0.0
H980 H 0.3378 0.28223 0.08457 0.0
H981 H 0.34315 0.2455 0.1239 0.0
H982 H 0.37179 0.2509 0.12973 0.0
H983 H 0.36268 0.22657 0.10181 0.0
H984 H 0.39015 0.22852 0.93531 0.0
H985 H 0.42754 0.23856 0.95657 0.0
H986 H 0.40374 0.26712 0.08091 0.0
C987 C 0.32017 0.24343 0.03327 0.0
C988 C 0.30827 0.23323 0.99809 0.0
C989 C 0.31959 0.22526 0.95994 0.0
C990 C 0.34216 0.22741 0.95657 0.0
C991 C 0.35334 0.2376 0.99158 0.0
C992 C 0.34281 0.24549 0.02923 0.0
C993 C 0.35888 0.25588 0.06182 0.0
C994 C 0.3539 0.27999 0.06843 0.0
C995 C 0.35914 0.244 0.10699 0.0
C996 C 0.38001 0.25253 0.03652 0.0
C997 C 0.37636 0.24194 0.9961 0.0
C998 C 0.39322 0.23693 0.96679 0.0
C999 C 0.41442 0.24287 0.97905 0.0
C1000 C 0.4187 0.25382 0.02026 0.0
C1001 C 0.40113 0.25864 0.04932 0.0
H1002 H 0.2697 0.79848 0.45533 0.0
H1003 H 0.28017 0.78209 0.59544 0.0
H1004 H 0.28704 0.82029 0.61376 0.0
H1005 H 0.31015 0.84193 0.45017 0.0
H1006 H 0.29346 0.85873 0.41491 0.0
H1007 H 0.29089 0.8298 0.41163 0.0
H1008 H 0.24971 0.83301 0.42779 0.0
H1009 H 0.25217 0.86192 0.43129 0.0
H1010 H 0.24081 0.84722 0.47758 0.0
H1011 H 0.29136 0.85983 0.61823 0.0
H1012 H 0.29211 0.89919 0.60904 0.0
H1013 H 0.27822 0.89119 0.46642 0.0
C1014 C 0.27373 0.80297 0.48968 0.0
C1015 C 0.27444 0.78734 0.52399 0.0
C1016 C 0.27943 0.79382 0.5687 0.0
C1017 C 0.28345 0.81547 0.57943 0.0
C1018 C 0.28229 0.83053 0.54515 0.0
C1019 C 0.27751 0.82469 0.5012 0.0
C1020 C 0.2762 0.84445 0.47149 0.0
C1021 C 0.29372 0.84368 0.43489 0.0
C1022 C 0.25336 0.84678 0.45083 0.0
C1023 C 0.28081 0.86222 0.50579 0.0
C1024 C 0.28446 0.85371 0.54792 0.0
C1025 C 0.28872 0.86672 0.58534 0.0
C1026 C 0.28924 0.88908 0.57969 0.0
C1027 C 0.28546 0.89833 0.53694 0.0
C1028 C 0.28116 0.88463 0.49952 0.0
H1029 H 0.69465 0.77985 0.94982 0.0
H1030 H 0.70195 0.79381 0.09271 0.0
H1031 H 0.66272 0.789 0.10294 0.0
H1032 H 0.64336 0.80766 0.93633 0.0
H1033 H 0.6324 0.7882 0.89685 0.0
H1034 H 0.66132 0.79249 0.90025 0.0
H1035 H 0.6671 0.75174 0.91447 0.0
H1036 H 0.6382 0.74734 0.91127 0.0
H1037 H 0.65319 0.73906 0.96041 0.0
H1038 H 0.6231 0.78205 0.09898 0.0
H1039 H 0.58483 0.77465 0.08022 0.0
H1040 H 0.60208 0.76664 0.93947 0.0
C1041 C 0.68799 0.78187 0.98323 0.0
C1042 C 0.70152 0.78716 0.02041 0.0
C1043 C 0.69206 0.78978 0.06357 0.0
C1044 C 0.66974 0.78704 0.06985 0.0
C1045 C 0.65691 0.78179 0.03269 0.0
C1046 C 0.66558 0.77933 0.99016 0.0
C1047 C 0.64792 0.77396 0.95599 0.0
C1048 C 0.64615 0.79163 0.92024 0.0
C1049 C 0.65184 0.7517 0.93426 0.0
C1050 C 0.62808 0.77373 0.98612 0.0
C1051 C 0.63373 0.77821 0.03023 0.0
C1052 C 0.61841 0.77871 0.06447 0.0
C1053 C 0.59664 0.77463 0.05337 0.0
C1054 C 0.59026 0.77027 0.00827 0.0
C1055 C 0.60634 0.76975 0.97431 0.0
loop_
_geom_bond_atom_site_label_1
_geom_bond_atom_site_label_2
_geom_bond_distance
_geom_bond_site_symmetry_2
_ccdc_geom_bond_type
Fe0 O2 1.918 . S
Fe0 O5 1.997 . S
Fe0 O6 2.002 . S
Fe0 O11 1.976 . S
Fe0 O14 1.996 . S
Fe1 O2 1.918 1_556 S
Fe1 O9 1.997 . S
Fe1 O12 1.996 . S
Fe1 O16 1.976 . S
Fe1 O19 2.002 . S
O2 Fe0 1.918 . S
O2 Fe1 1.918 1_554 S
O2 Fe3 1.918 . S
Fe3 O2 1.918 . S
Fe3 O4 2.002 . S
Fe3 O13 1.976 . S
Fe3 O17 1.996 1_554 S
Fe3 O20 1.997 1_554 S
O4 Fe3 2.002 . S
O4 C21 1.295 . S
O5 Fe0 1.997 . S
O5 C21 1.235 . S
O6 Fe0 2.002 . S
O6 C7 1.295 . S
C7 O6 1.295 . S
C7 O9 1.235 1_554 S
C8 O13 1.287 . S
C8 O14 1.255 . S
O9 Fe1 1.997 . S
O9 C7 1.235 1_556 S
C10 O16 1.287 . S
C10 O17 1.255 . S
O11 Fe0 1.976 . S
O11 C18 1.287 . S
O12 Fe1 1.996 . S
O12 C18 1.255 1_556 S
O13 Fe3 1.976 . S
O13 C8 1.287 . S
O14 Fe0 1.996 . S
O14 C8 1.255 . S
C15 O19 1.295 . S
C15 O20 1.235 . S
O16 Fe1 1.976 . S
O16 C10 1.287 . S
O17 Fe3 1.996 1_556 S
O17 C10 1.255 . S
C18 O11 1.287 . S
C18 O12 1.255 1_554 S
O19 Fe1 2.002 . S
O19 C15 1.295 . S
O20 Fe3 1.997 1_556 S
O20 C15 1.235 . S
C21 O4 1.295 . S
C21 O5 1.235 . S
Fe22 O24 1.918 . S
Fe22 O27 1.997 . S
Fe22 O28 2.002 . S
Fe22 O33 1.976 . S
Fe22 O36 1.996 . S
Fe23 O24 1.918 . S
Fe23 O31 1.997 . S
Fe23 O34 1.996 . S
Fe23 O38 1.976 . S
Fe23 O41 2.002 . S
O24 Fe22 1.918 . S
O24 Fe23 1.918 . S
O24 Fe25 1.918 . S
Fe25 O24 1.918 . S
Fe25 O26 2.002 . S
Fe25 O35 1.976 . S
Fe25 O39 1.996 . S
Fe25 O42 1.997 . S
O26 Fe25 2.002 . S
O26 C43 1.295 . S
O27 Fe22 1.997 . S
O27 C43 1.235 . S
O28 Fe22 2.002 . S
O28 C29 1.295 . S
C29 O28 1.295 . S
C29 O31 1.235 . S
C30 O35 1.287 . S
C30 O36 1.255 . S
O31 Fe23 1.997 . S
O31 C29 1.235 . S
C32 O38 1.287 . S
C32 O39 1.255 . S
O33 Fe22 1.976 . S
O33 C40 1.287 . S
O34 Fe23 1.996 . S
O34 C40 1.255 . S
O35 Fe25 1.976 . S
O35 C30 1.287 . S
O36 Fe22 1.996 . S
O36 C30 1.255 . S
C37 O41 1.295 . S
C37 O42 1.235 . S
O38 Fe23 1.976 . S
O38 C32 1.287 . S
O39 Fe25 1.996 . S
O39 C32 1.255 . S
C40 O33 1.287 . S
C40 O34 1.255 . S
O41 Fe23 2.002 . S
O41 C37 1.295 . S
O42 Fe25 1.997 . S
O42 C37 1.235 . S
C43 O26 1.295 . S
C43 O27 1.235 . S
Fe44 O46 1.918 1_556 S
Fe44 O49 1.997 . S
Fe44 O50 2.002 . S
Fe44 O55 1.976 . S
Fe44 O58 1.996 . S
Fe45 O46 1.918 . S
Fe45 O53 1.997 . S
Fe45 O56 1.996 . S
Fe45 O60 1.976 . S
Fe45 O63 2.002 . S
O46 Fe44 1.918 1_554 S
O46 Fe45 1.918 . S
O46 Fe47 1.918 . S
Fe47 O46 1.918 . S
Fe47 O48 2.002 1_554 S
Fe47 O57 1.976 1_554 S
Fe47 O61 1.996 . S
Fe47 O64 1.997 . S
O48 Fe47 2.002 1_556 S
O48 C65 1.295 . S
O49 Fe44 1.997 . S
O49 C65 1.235 . S
O50 Fe44 2.002 . S
O50 C51 1.295 1_556 S
C51 O50 1.295 1_554 S
C51 O53 1.235 . S
C52 O57 1.287 . S
C52 O58 1.255 . S
O53 Fe45 1.997 . S
O53 C51 1.235 . S
C54 O60 1.287 . S
C54 O61 1.255 . S
O55 Fe44 1.976 . S
O55 C62 1.287 1_556 S
O56 Fe45 1.996 . S
O56 C62 1.255 . S
O57 Fe47 1.976 1_556 S
O57 C52 1.287 . S
O58 Fe44 1.996 . S
O58 C52 1.255 . S
C59 O63 1.295 . S
C59 O64 1.235 . S
O60 Fe45 1.976 . S
O60 C54 1.287 . S
O61 Fe47 1.996 . S
O61 C54 1.255 . S
C62 O55 1.287 1_554 S
C62 O56 1.255 . S
O63 Fe45 2.002 . S
O63 C59 1.295 . S
O64 Fe47 1.997 . S
O64 C59 1.235 . S
C65 O48 1.295 . S
C65 O49 1.235 . S
Fe66 O68 1.918 . S
Fe66 O71 1.997 . S
Fe66 O72 2.002 . S
Fe66 O77 1.976 . S
Fe66 O80 1.996 . S
Fe67 O68 1.918 . S
Fe67 O75 1.997 . S
Fe67 O78 1.996 . S
Fe67 O82 1.976 . S
Fe67 O85 2.002 . S
O68 Fe66 1.918 . S
O68 Fe67 1.918 . S
O68 Fe69 1.918 . S
Fe69 O68 1.918 . S
Fe69 O70 2.002 . S
Fe69 O79 1.976 . S
Fe69 O83 1.996 . S
Fe69 O86 1.997 . S
O70 Fe69 2.002 . S
O70 C87 1.295 . S
O71 Fe66 1.997 . S
O71 C87 1.235 . S
O72 Fe66 2.002 . S
O72 C73 1.295 . S
C73 O72 1.295 . S
C73 O75 1.235 . S
C74 O79 1.287 . S
C74 O80 1.255 . S
O75 Fe67 1.997 . S
O75 C73 1.235 . S
C76 O82 1.287 . S
C76 O83 1.255 . S
O77 Fe66 1.976 . S
O77 C84 1.287 . S
O78 Fe67 1.996 . S
O78 C84 1.255 . S
O79 Fe69 1.976 . S
O79 C74 1.287 . S
O80 Fe66 1.996 . S
O80 C74 1.255 . S
C81 O85 1.295 . S
C81 O86 1.235 . S
O82 Fe67 1.976 . S
O82 C76 1.287 . S
O83 Fe69 1.996 . S
O83 C76 1.255 . S
C84 O77 1.287 . S
C84 O78 1.255 . S
O85 Fe67 2.002 . S
O85 C81 1.295 . S
O86 Fe69 1.997 . S
O86 C81 1.235 . S
C87 O70 1.295 . S
C87 O71 1.235 . S
C88 C89 1.264 . S
C88 C93 1.479 . S
C88 C98 1.465 . S
C89 C88 1.264 . S
C89 C91 1.339 . S
C89 H116 0.931 . S
C90 C91 1.395 . S
C90 C92 1.320 . S
C91 C89 1.339 . S
C91 C90 1.395 . S
C91 H117 0.929 . S
C92 C90 1.320 . S
C92 C93 1.405 . S
C92 H118 0.930 . S
C93 C88 1.479 . S
C93 C92 1.405 . S
C93 H119 0.931 . S
U94 O95 2.458 . S
U94 O96 2.453 1_556 S
U94 C97 2.984 1_556 S
U94 C98 2.857 . S
U94 C111 2.873 1_556 S
U94 O112 2.452 . S
U94 O113 2.427 . S
U94 O114 2.444 1_556 S
U94 O115 2.443 1_556 S
O95 U94 2.458 . S
O95 C97 1.353 1_556 S
O96 U94 2.453 1_554 S
O96 C97 1.286 . S
C97 U94 2.984 1_554 S
C97 O95 1.353 1_554 S
C97 O96 1.286 . S
C97 C99 1.363 . S
C98 C88 1.465 . S
C98 U94 2.857 . S
C98 O112 1.249 . S
C98 O113 1.202 . S
C99 C97 1.363 . S
C99 C101 1.408 1_554 S
C99 C104 1.342 . S
C100 C101 1.310 . S
C100 C103 1.461 1_556 S
C100 H120 0.932 . S
C101 C99 1.408 1_556 S
C101 C100 1.310 . S
C101 H121 0.930 . S
C102 C103 1.474 . S
C102 C104 1.285 . S
C102 H122 0.929 . S
C103 C100 1.461 1_554 S
C103 C102 1.474 . S
C104 C99 1.342 . S
C104 C102 1.285 . S
C104 H123 0.930 . S
C105 C108 1.424 . S
C105 C110 1.245 . S
C105 C111 1.428 . S
C106 C109 1.260 . S
C106 C110 1.477 . S
C106 H124 0.932 . S
C107 C108 1.384 . S
C107 C109 1.479 . S
C107 H125 0.929 . S
C108 C105 1.424 . S
C108 C107 1.384 . S
C108 H126 0.928 . S
C109 C106 1.260 . S
C109 C107 1.479 . S
C110 C105 1.245 . S
C110 C106 1.477 . S
C110 H127 0.932 . S
C111 U94 2.873 1_554 S
C111 C105 1.428 . S
C111 O114 1.301 . S
C111 O115 1.282 . S
O112 U94 2.452 . S
O112 C98 1.249 . S
O113 U94 2.427 . S
O113 C98 1.202 . S
O114 U94 2.444 1_554 S
O114 C111 1.301 . S
O115 U94 2.443 1_554 S
O115 C111 1.282 . S
H116 C89 0.931 . S
H117 C91 0.929 . S
H118 C92 0.930 . S
H119 C93 0.931 . S
H120 C100 0.932 . S
H121 C101 0.930 . S
H122 C102 0.929 . S
H123 C104 0.930 . S
H124 C106 0.932 . S
H125 C107 0.929 . S
H126 C108 0.928 . S
H127 C110 0.932 . S
C128 C129 1.264 . S
C128 C133 1.479 . S
C128 C138 1.465 . S
C129 C128 1.264 . S
C129 C131 1.339 . S
C129 H156 0.931 . S
C130 C131 1.395 . S
C130 C132 1.320 . S
C131 C129 1.339 . S
C131 C130 1.395 . S
C131 H157 0.929 . S
C132 C130 1.320 . S
C132 C133 1.405 . S
C132 H158 0.930 . S
C133 C128 1.479 . S
C133 C132 1.405 . S
C133 H159 0.931 . S
U134 O135 2.454 1_655 S
U134 O136 2.458 1_655 S
U134 C137 2.984 1_655 S
U134 C138 2.847 . S
U134 C151 2.882 . S
U134 O152 2.441 . S
U134 O153 2.420 . S
U134 O154 2.455 . S
U134 O155 2.449 . S
O135 U134 2.454 1_455 S
O135 C137 1.353 . S
O136 U134 2.458 1_455 S
O136 C137 1.286 . S
C137 U134 2.984 1_455 S
C137 O135 1.353 . S
C137 O136 1.286 . S
C137 C139 1.363 . S
C138 C128 1.465 . S
C138 U134 2.847 . S
C138 O152 1.249 . S
C138 O153 1.202 . S
C139 C137 1.363 . S
C139 C141 1.408 . S
C139 C144 1.342 . S
C140 C141 1.310 . S
C140 C143 1.461 . S
C140 H160 0.932 . S
C141 C139 1.408 . S
C141 C140 1.310 . S
C141 H161 0.930 . S
C142 C143 1.474 . S
C142 C144 1.285 . S
C142 H162 0.929 . S
C143 C140 1.461 . S
C143 C142 1.474 . S
C144 C139 1.342 . S
C144 C142 1.285 . S
C144 H163 0.930 . S
C145 C148 1.424 . S
C145 C150 1.245 . S
C145 C151 1.428 . S
C146 C149 1.260 . S
C146 C150 1.477 . S
C146 H164 0.932 . S
C147 C148 1.384 . S
C147 C149 1.479 . S
C147 H165 0.929 . S
C148 C145 1.424 . S
C148 C147 1.384 . S
C148 H166 0.928 . S
C149 C146 1.260 . S
C149 C147 1.479 . S
C150 C145 1.245 . S
C150 C146 1.477 . S
C150 H167 0.932 . S
C151 U134 2.882 . S
C151 C145 1.428 . S
C151 O154 1.301 . S
C151 O155 1.282 . S
O152 U134 2.441 . S
O152 C138 1.249 . S
O153 U134 2.420 . S
O153 C138 1.202 . S
O154 U134 2.455 . S
O154 C151 1.301 . S
O155 U134 2.449 . S
O155 C151 1.282 . S
H156 C129 0.931 . S
H157 C131 0.929 . S
H158 C132 0.930 . S
H159 C133 0.931 . S
H160 C140 0.932 . S
H161 C141 0.930 . S
H162 C142 0.929 . S
H163 C144 0.930 . S
H164 C146 0.932 . S
H165 C147 0.929 . S
H166 C148 0.928 . S
H167 C150 0.932 . S
C168 C169 1.264 . S
C168 C173 1.479 . S
C168 C178 1.465 . S
C169 C168 1.264 . S
C169 C171 1.339 . S
C169 H196 0.931 . S
C170 C171 1.395 . S
C170 C172 1.320 . S
C171 C169 1.339 . S
C171 C170 1.395 . S
C171 H197 0.929 . S
C172 C170 1.320 . S
C172 C173 1.405 . S
C172 H198 0.930 . S
C173 C168 1.479 . S
C173 C172 1.405 . S
C173 H199 0.931 . S
U174 O175 2.454 . S
U174 O176 2.458 1_554 S
U174 C177 2.984 . S
U174 C178 2.847 . S
U174 C191 2.882 1_554 S
U174 O192 2.441 . S
U174 O193 2.420 . S
U174 O194 2.455 1_554 S
U174 O195 2.449 1_554 S
O175 U174 2.454 . S
O175 C177 1.353 . S
O176 U174 2.458 1_556 S
O176 C177 1.286 1_556 S
C177 U174 2.984 . S
C177 O175 1.353 . S
C177 O176 1.286 1_554 S
C177 C179 1.363 . S
C178 C168 1.465 . S
C178 U174 2.847 . S
C178 O192 1.249 . S
C178 O193 1.202 . S
C179 C177 1.363 . S
C179 C181 1.408 . S
C179 C184 1.342 1_554 S
C180 C181 1.310 . S
C180 C183 1.461 . S
C180 H200 0.932 . S
C181 C179 1.408 . S
C181 C180 1.310 . S
C181 H201 0.930 . S
C182 C183 1.474 1_556 S
C182 C184 1.285 . S
C182 H202 0.929 . S
C183 C180 1.461 . S
C183 C182 1.474 1_554 S
C184 C179 1.342 1_556 S
C184 C182 1.285 . S
C184 H203 0.930 . S
C185 C188 1.424 . S
C185 C190 1.245 . S
C185 C191 1.428 . S
C186 C189 1.260 . S
C186 C190 1.477 . S
C186 H204 0.932 . S
C187 C188 1.384 . S
C187 C189 1.479 . S
C187 H205 0.929 . S
C188 C185 1.424 . S
C188 C187 1.384 . S
C188 H206 0.928 . S
C189 C186 1.260 . S
C189 C187 1.479 . S
C190 C185 1.245 . S
C190 C186 1.477 . S
C190 H207 0.932 . S
C191 U174 2.882 1_556 S
C191 C185 1.428 . S
C191 O194 1.301 . S
C191 O195 1.282 . S
O192 U174 2.441 . S
O192 C178 1.249 . S
O193 U174 2.420 . S
O193 C178 1.202 . S
O194 U174 2.455 1_556 S
O194 C191 1.301 . S
O195 U174 2.449 1_556 S
O195 C191 1.282 . S
H196 C169 0.931 . S
H197 C171 0.929 . S
H198 C172 0.930 . S
H199 C173 0.931 . S
H200 C180 0.932 . S
H201 C181 0.930 . S
H202 C182 0.929 . S
H203 C184 0.930 . S
H204 C186 0.932 . S
H205 C187 0.929 . S
H206 C188 0.928 . S
H207 C190 0.932 . S
C208 C209 1.264 . S
C208 C213 1.479 . S
C208 C218 1.465 . S
C209 C208 1.264 . S
C209 C211 1.339 . S
C209 H236 0.931 . S
C210 C211 1.395 . S
C210 C212 1.320 . S
C211 C209 1.339 . S
C211 C210 1.395 . S
C211 H237 0.929 . S
C212 C210 1.320 . S
C212 C213 1.405 . S
C212 H238 0.930 . S
C213 C208 1.479 . S
C213 C212 1.405 . S
C213 H239 0.931 . S
U214 O215 2.454 1_455 S
U214 O216 2.458 1_455 S
U214 C217 2.984 1_455 S
U214 C218 2.847 . S
U214 C231 2.882 . S
U214 O232 2.441 . S
U214 O233 2.420 . S
U214 O234 2.455 . S
U214 O235 2.449 . S
O215 U214 2.454 1_655 S
O215 C217 1.353 . S
O216 U214 2.458 1_655 S
O216 C217 1.286 . S
C217 U214 2.984 1_655 S
C217 O215 1.353 . S
C217 O216 1.286 . S
C217 C219 1.363 . S
C218 C208 1.465 . S
C218 U214 2.847 . S
C218 O232 1.249 . S
C218 O233 1.202 . S
C219 C217 1.363 . S
C219 C221 1.408 . S
C219 C224 1.342 . S
C220 C221 1.310 . S
C220 C223 1.461 . S
C220 H240 0.932 . S
C221 C219 1.408 . S
C221 C220 1.310 . S
C221 H241 0.930 . S
C222 C223 1.474 . S
C222 C224 1.285 . S
C222 H242 0.929 . S
C223 C220 1.461 . S
C223 C222 1.474 . S
C224 C219 1.342 . S
C224 C222 1.285 . S
C224 H243 0.930 . S
C225 C228 1.424 . S
C225 C230 1.245 . S
C225 C231 1.428 . S
C226 C229 1.260 . S
C226 C230 1.477 . S
C226 H244 0.932 . S
C227 C228 1.384 . S
C227 C229 1.479 . S
C227 H245 0.929 . S
C228 C225 1.424 . S
C228 C227 1.384 . S
C228 H246 0.928 . S
C229 C226 1.260 . S
C229 C227 1.479 . S
C230 C225 1.245 . S
C230 C226 1.477 . S
C230 H247 0.932 . S
C231 U214 2.882 . S
C231 C225 1.428 . S
C231 O234 1.301 . S
C231 O235 1.282 . S
O232 U214 2.441 . S
O232 C218 1.249 . S
O233 U214 2.420 . S
O233 C218 1.202 . S
O234 U214 2.455 . S
O234 C231 1.301 . S
O235 U214 2.449 . S
O235 C231 1.282 . S
H236 C209 0.931 . S
H237 C211 0.929 . S
H238 C212 0.930 . S
H239 C213 0.931 . S
H240 C220 0.932 . S
H241 C221 0.930 . S
H242 C222 0.929 . S
H243 C224 0.930 . S
H244 C226 0.932 . S
H245 C227 0.929 . S
H246 C228 0.928 . S
H247 C230 0.932 . S
C248 C249 1.264 . S
C248 C253 1.479 . S
C248 C258 1.465 . S
C249 C248 1.264 . S
C249 C251 1.339 . S
C249 H276 0.931 . S
C250 C251 1.395 . S
C250 C252 1.320 . S
C251 C249 1.339 . S
C251 C250 1.395 . S
C251 H277 0.929 . S
C252 C250 1.320 . S
C252 C253 1.405 . S
C252 H278 0.930 . S
C253 C248 1.479 . S
C253 C252 1.405 . S
C253 H279 0.931 . S
U254 O255 2.454 1_565 S
U254 O256 2.458 1_565 S
U254 C257 2.984 1_565 S
U254 C258 2.847 . S
U254 C271 2.882 . S
U254 O272 2.441 . S
U254 O273 2.420 . S
U254 O274 2.455 . S
U254 O275 2.449 . S
O255 U254 2.454 1_545 S
O255 C257 1.353 . S
O256 U254 2.458 1_545 S
O256 C257 1.286 . S
C257 U254 2.984 1_545 S
C257 O255 1.353 . S
C257 O256 1.286 . S
C257 C259 1.363 . S
C258 C248 1.465 . S
C258 U254 2.847 . S
C258 O272 1.249 . S
C258 O273 1.202 . S
C259 C257 1.363 . S
C259 C261 1.408 . S
C259 C264 1.342 . S
C260 C261 1.310 . S
C260 C263 1.461 . S
C260 H280 0.932 . S
C261 C259 1.408 . S
C261 C260 1.310 . S
C261 H281 0.930 . S
C262 C263 1.474 . S
C262 C264 1.285 . S
C262 H282 0.929 . S
C263 C260 1.461 . S
C263 C262 1.474 . S
C264 C259 1.342 . S
C264 C262 1.285 . S
C264 H283 0.930 . S
C265 C268 1.424 . S
C265 C270 1.245 . S
C265 C271 1.428 . S
C266 C269 1.260 . S
C266 C270 1.477 . S
C266 H284 0.932 . S
C267 C268 1.384 . S
C267 C269 1.479 . S
C267 H285 0.929 . S
C268 C265 1.424 . S
C268 C267 1.384 . S
C268 H286 0.928 . S
C269 C266 1.260 . S
C269 C267 1.479 . S
C270 C265 1.245 . S
C270 C266 1.477 . S
C270 H287 0.932 . S
C271 U254 2.882 . S
C271 C265 1.428 . S
C271 O274 1.301 . S
C271 O275 1.282 . S
O272 U254 2.441 . S
O272 C258 1.249 . S
O273 U254 2.420 . S
O273 C258 1.202 . S
O274 U254 2.455 . S
O274 C271 1.301 . S
O275 U254 2.449 . S
O275 C271 1.282 . S
H276 C249 0.931 . S
H277 C251 0.929 . S
H278 C252 0.930 . S
H279 C253 0.931 . S
H280 C260 0.932 . S
H281 C261 0.930 . S
H282 C262 0.929 . S
H283 C264 0.930 . S
H284 C266 0.932 . S
H285 C267 0.929 . S
H286 C268 0.928 . S
H287 C270 0.932 . S
C288 C289 1.264 . S
C288 C293 1.479 . S
C288 C298 1.465 . S
C289 C288 1.264 . S
C289 C291 1.339 . S
C289 H316 0.931 . S
C290 C291 1.395 . S
C290 C292 1.320 . S
C291 C289 1.339 . S
C291 C290 1.395 . S
C291 H317 0.929 . S
C292 C290 1.320 . S
C292 C293 1.405 . S
C292 H318 0.930 . S
C293 C288 1.479 . S
C293 C292 1.405 . S
C293 H319 0.931 . S
U294 O295 2.454 1_554 S
U294 O296 2.458 . S
U294 C297 2.984 . S
U294 C298 2.847 1_554 S
U294 C311 2.882 . S
U294 O312 2.441 1_554 S
U294 O313 2.420 1_554 S
U294 O314 2.455 . S
U294 O315 2.449 . S
O295 U294 2.454 1_556 S
O295 C297 1.353 1_556 S
O296 U294 2.458 . S
O296 C297 1.286 . S
C297 U294 2.984 . S
C297 O295 1.353 1_554 S
C297 O296 1.286 . S
C297 C299 1.363 . S
C298 C288 1.465 . S
C298 U294 2.847 1_556 S
C298 O312 1.249 . S
C298 O313 1.202 . S
C299 C297 1.363 . S
C299 C301 1.408 1_554 S
C299 C304 1.342 . S
C300 C301 1.310 . S
C300 C303 1.461 1_556 S
C300 H320 0.932 . S
C301 C299 1.408 1_556 S
C301 C300 1.310 . S
C301 H321 0.930 . S
C302 C303 1.474 . S
C302 C304 1.285 . S
C302 H322 0.929 . S
C303 C300 1.461 1_554 S
C303 C302 1.474 . S
C304 C299 1.342 . S
C304 C302 1.285 . S
C304 H323 0.930 . S
C305 C308 1.424 . S
C305 C310 1.245 . S
C305 C311 1.428 . S
C306 C309 1.260 . S
C306 C310 1.477 . S
C306 H324 0.932 . S
C307 C308 1.384 . S
C307 C309 1.479 . S
C307 H325 0.929 . S
C308 C305 1.424 . S
C308 C307 1.384 . S
C308 H326 0.928 . S
C309 C306 1.260 . S
C309 C307 1.479 . S
C310 C305 1.245 . S
C310 C306 1.477 . S
C310 H327 0.932 . S
C311 U294 2.882 . S
C311 C305 1.428 . S
C311 O314 1.301 . S
C311 O315 1.282 . S
O312 U294 2.441 1_556 S
O312 C298 1.249 . S
O313 U294 2.420 1_556 S
O313 C298 1.202 . S
O314 U294 2.455 . S
O314 C311 1.301 . S
O315 U294 2.449 . S
O315 C311 1.282 . S
H316 C289 0.931 . S
H317 C291 0.929 . S
H318 C292 0.930 . S
H319 C293 0.931 . S
H320 C300 0.932 . S
H321 C301 0.930 . S
H322 C302 0.929 . S
H323 C304 0.930 . S
H324 C306 0.932 . S
H325 C307 0.929 . S
H326 C308 0.928 . S
H327 C310 0.932 . S
C328 C329 1.264 . S
C328 C333 1.479 . S
C328 C338 1.465 . S
C329 C328 1.264 . S
C329 C331 1.339 . S
C329 H356 0.931 . S
C330 C331 1.395 . S
C330 C332 1.320 . S
C331 C329 1.339 . S
C331 C330 1.395 . S
C331 H357 0.929 . S
C332 C330 1.320 . S
C332 C333 1.405 . S
C332 H358 0.930 . S
C333 C328 1.479 . S
C333 C332 1.405 . S
C333 H359 0.931 . S
U334 O335 2.454 1_545 S
U334 O336 2.458 1_545 S
U334 C337 2.984 1_545 S
U334 C338 2.847 . S
U334 C351 2.882 . S
U334 O352 2.441 . S
U334 O353 2.420 . S
U334 O354 2.455 . S
U334 O355 2.449 . S
O335 U334 2.454 1_565 S
O335 C337 1.353 . S
O336 U334 2.458 1_565 S
O336 C337 1.286 . S
C337 U334 2.984 1_565 S
C337 O335 1.353 . S
C337 O336 1.286 . S
C337 C339 1.363 . S
C338 C328 1.465 . S
C338 U334 2.847 . S
C338 O352 1.249 . S
C338 O353 1.202 . S
C339 C337 1.363 . S
C339 C341 1.408 . S
C339 C344 1.342 . S
C340 C341 1.310 . S
C340 C343 1.461 . S
C340 H360 0.932 . S
C341 C339 1.408 . S
C341 C340 1.310 . S
C341 H361 0.930 . S
C342 C343 1.474 . S
C342 C344 1.285 . S
C342 H362 0.929 . S
C343 C340 1.461 . S
C343 C342 1.474 . S
C344 C339 1.342 . S
C344 C342 1.285 . S
C344 H363 0.930 . S
C345 C348 1.424 . S
C345 C350 1.245 . S
C345 C351 1.428 . S
C346 C349 1.260 . S
C346 C350 1.477 . S
C346 H364 0.932 . S
C347 C348 1.384 . S
C347 C349 1.479 . S
C347 H365 0.929 . S
C348 C345 1.424 . S
C348 C347 1.384 . S
C348 H366 0.928 . S
C349 C346 1.260 . S
C349 C347 1.479 . S
C350 C345 1.245 . S
C350 C346 1.477 . S
C350 H367 0.932 . S
C351 U334 2.882 . S
C351 C345 1.428 . S
C351 O354 1.301 . S
C351 O355 1.282 . S
O352 U334 2.441 . S
O352 C338 1.249 . S
O353 U334 2.420 . S
O353 C338 1.202 . S
O354 U334 2.455 . S
O354 C351 1.301 . S
O355 U334 2.449 . S
O355 C351 1.282 . S
H356 C329 0.931 . S
H357 C331 0.929 . S
H358 C332 0.930 . S
H359 C333 0.931 . S
H360 C340 0.932 . S
H361 C341 0.930 . S
H362 C342 0.929 . S
H363 C344 0.930 . S
H364 C346 0.932 . S
H365 C347 0.929 . S
H366 C348 0.928 . S
H367 C350 0.932 . S
C368 C369 1.264 . S
C368 C373 1.479 . S
C368 C378 1.465 . S
C369 C368 1.264 . S
C369 C371 1.339 . S
C369 H396 0.931 . S
C370 C371 1.395 . S
C370 C372 1.320 . S
C371 C369 1.339 . S
C371 C370 1.395 . S
C371 H397 0.929 . S
C372 C370 1.320 . S
C372 C373 1.405 . S
C372 H398 0.930 . S
C373 C368 1.479 . S
C373 C372 1.405 . S
C373 H399 0.931 . S
U374 O375 2.454 . S
U374 O376 2.458 1_554 S
U374 C377 2.984 . S
U374 C378 2.847 . S
U374 C391 2.882 1_554 S
U374 O392 2.441 . S
U374 O393 2.420 . S
U374 O394 2.455 1_554 S
U374 O395 2.449 1_554 S
O375 U374 2.454 . S
O375 C377 1.353 . S
O376 U374 2.458 1_556 S
O376 C377 1.286 1_556 S
C377 U374 2.984 . S
C377 O375 1.353 . S
C377 O376 1.286 1_554 S
C377 C379 1.363 . S
C378 C368 1.465 . S
C378 U374 2.847 . S
C378 O392 1.249 . S
C378 O393 1.202 . S
C379 C377 1.363 . S
C379 C381 1.408 . S
C379 C384 1.342 1_554 S
C380 C381 1.310 . S
C380 C383 1.461 . S
C380 H400 0.932 . S
C381 C379 1.408 . S
C381 C380 1.310 . S
C381 H401 0.930 . S
C382 C383 1.474 1_556 S
C382 C384 1.285 . S
C382 H402 0.929 . S
C383 C380 1.461 . S
C383 C382 1.474 1_554 S
C384 C379 1.342 1_556 S
C384 C382 1.285 . S
C384 H403 0.930 . S
C385 C388 1.424 . S
C385 C390 1.245 . S
C385 C391 1.428 . S
C386 C389 1.260 . S
C386 C390 1.477 . S
C386 H404 0.932 . S
C387 C388 1.384 . S
C387 C389 1.479 . S
C387 H405 0.929 . S
C388 C385 1.424 . S
C388 C387 1.384 . S
C388 H406 0.928 . S
C389 C386 1.260 . S
C389 C387 1.479 . S
C390 C385 1.245 . S
C390 C386 1.477 . S
C390 H407 0.932 . S
C391 U374 2.882 1_556 S
C391 C385 1.428 . S
C391 O394 1.301 . S
C391 O395 1.282 . S
O392 U374 2.441 . S
O392 C378 1.249 . S
O393 U374 2.420 . S
O393 C378 1.202 . S
O394 U374 2.455 1_556 S
O394 C391 1.301 . S
O395 U374 2.449 1_556 S
O395 C391 1.282 . S
H396 C369 0.931 . S
H397 C371 0.929 . S
H398 C372 0.930 . S
H399 C373 0.931 . S
H400 C380 0.932 . S
H401 C381 0.930 . S
H402 C382 0.929 . S
H403 C384 0.930 . S
H404 C386 0.932 . S
H405 C387 0.929 . S
H406 C388 0.928 . S
H407 C390 0.932 . S
H408 C420 0.930 . S
H409 C422 0.930 . S
H410 C423 0.930 . S
H411 C427 0.959 . S
H412 C427 0.959 . S
H413 C427 0.961 . S
H414 C428 0.960 . S
H415 C428 0.961 . S
H416 C428 0.959 . S
H417 C431 0.929 . S
H418 C432 0.931 . S
H419 C434 0.930 . S
C420 H408 0.930 . S
C420 C421 1.399 . S
C420 C425 1.399 . S
C421 C420 1.399 . S
C421 C422 1.376 . S
C422 H409 0.930 . S
C422 C421 1.376 . S
C422 C423 1.388 . S
C423 H410 0.930 . S
C423 C422 1.388 . S
C423 C424 1.390 . S
C424 C423 1.390 . S
C424 C425 1.394 . S
C424 C430 1.465 . S
C425 C420 1.399 . S
C425 C424 1.394 . S
C425 C426 1.516 . S
C426 C425 1.516 . S
C426 C427 1.502 . S
C426 C428 1.561 . S
C426 C429 1.526 . S
C427 H411 0.959 . S
C427 H412 0.959 . S
C427 H413 0.961 . S
C427 C426 1.502 . S
C428 H414 0.960 . S
C428 H415 0.961 . S
C428 H416 0.959 . S
C428 C426 1.561 . S
C429 C426 1.526 . S
C429 C430 1.396 . S
C429 C434 1.390 . S
C430 C424 1.465 . S
C430 C429 1.396 . S
C430 C431 1.399 . S
C431 H417 0.929 . S
C431 C430 1.399 . S
C431 C432 1.385 . S
C432 H418 0.931 . S
C432 C431 1.385 . S
C432 C433 1.389 . S
C433 C432 1.389 . S
C433 C434 1.387 . S
C434 H419 0.930 . S
C434 C429 1.390 . S
C434 C433 1.387 . S
H435 C447 0.930 . S
H436 C449 0.930 . S
H437 C450 0.930 . S
H438 C454 0.959 . S
H439 C454 0.959 . S
H440 C454 0.961 . S
H441 C455 0.960 . S
H442 C455 0.961 . S
H443 C455 0.959 . S
H444 C458 0.929 . S
H445 C459 0.931 . S
H446 C461 0.930 . S
C447 H435 0.930 . S
C447 C448 1.399 . S
C447 C452 1.399 . S
C448 C447 1.399 . S
C448 C449 1.376 . S
C449 H436 0.930 . S
C449 C448 1.376 . S
C449 C450 1.388 . S
C450 H437 0.930 . S
C450 C449 1.388 . S
C450 C451 1.390 . S
C451 C450 1.390 . S
C451 C452 1.394 . S
C451 C457 1.465 . S
C452 C447 1.399 . S
C452 C451 1.394 . S
C452 C453 1.516 . S
C453 C452 1.516 . S
C453 C454 1.502 . S
C453 C455 1.561 . S
C453 C456 1.526 . S
C454 H438 0.959 . S
C454 H439 0.959 . S
C454 H440 0.961 . S
C454 C453 1.502 . S
C455 H441 0.960 . S
C455 H442 0.961 . S
C455 H443 0.959 . S
C455 C453 1.561 . S
C456 C453 1.526 . S
C456 C457 1.396 . S
C456 C461 1.390 . S
C457 C451 1.465 . S
C457 C456 1.396 . S
C457 C458 1.399 . S
C458 H444 0.929 . S
C458 C457 1.399 . S
C458 C459 1.385 . S
C459 H445 0.931 . S
C459 C458 1.385 . S
C459 C460 1.389 . S
C460 C459 1.389 . S
C460 C461 1.387 . S
C461 H446 0.930 . S
C461 C456 1.390 . S
C461 C460 1.387 . S
H462 C474 0.930 . S
H463 C476 0.930 . S
H464 C477 0.930 . S
H465 C481 0.959 . S
H466 C481 0.959 . S
H467 C481 0.961 . S
H468 C482 0.960 . S
H469 C482 0.961 . S
H470 C482 0.959 . S
H471 C485 0.929 . S
H472 C486 0.931 . S
H473 C488 0.930 . S
C474 H462 0.930 . S
C474 C475 1.399 . S
C474 C479 1.399 . S
C475 C474 1.399 . S
C475 C476 1.376 . S
C476 H463 0.930 . S
C476 C475 1.376 . S
C476 C477 1.388 . S
C477 H464 0.930 . S
C477 C476 1.388 . S
C477 C478 1.390 . S
C478 C477 1.390 . S
C478 C479 1.394 . S
C478 C484 1.465 . S
C479 C474 1.399 . S
C479 C478 1.394 . S
C479 C480 1.516 . S
C480 C479 1.516 . S
C480 C481 1.502 . S
C480 C482 1.561 . S
C480 C483 1.526 . S
C481 H465 0.959 . S
C481 H466 0.959 . S
C481 H467 0.961 . S
C481 C480 1.502 . S
C482 H468 0.960 . S
C482 H469 0.961 . S
C482 H470 0.959 . S
C482 C480 1.561 . S
C483 C480 1.526 . S
C483 C484 1.396 . S
C483 C488 1.390 . S
C484 C478 1.465 . S
C484 C483 1.396 . S
C484 C485 1.399 . S
C485 H471 0.929 . S
C485 C484 1.399 . S
C485 C486 1.385 . S
C486 H472 0.931 . S
C486 C485 1.385 . S
C486 C487 1.389 . S
C487 C486 1.389 . S
C487 C488 1.387 . S
C488 H473 0.930 . S
C488 C483 1.390 . S
C488 C487 1.387 . S
H489 C501 0.930 . S
H490 C503 0.930 . S
H491 C504 0.930 . S
H492 C508 0.959 . S
H493 C508 0.959 . S
H494 C508 0.961 . S
H495 C509 0.960 . S
H496 C509 0.961 . S
H497 C509 0.959 . S
H498 C512 0.929 . S
H499 C513 0.931 . S
H500 C515 0.930 . S
C501 H489 0.930 . S
C501 C502 1.399 . S
C501 C506 1.399 . S
C502 C501 1.399 . S
C502 C503 1.376 . S
C503 H490 0.930 . S
C503 C502 1.376 . S
C503 C504 1.388 . S
C504 H491 0.930 . S
C504 C503 1.388 . S
C504 C505 1.390 . S
C505 C504 1.390 . S
C505 C506 1.394 . S
C505 C511 1.465 . S
C506 C501 1.399 . S
C506 C505 1.394 . S
C506 C507 1.516 . S
C507 C506 1.516 . S
C507 C508 1.502 . S
C507 C509 1.561 . S
C507 C510 1.526 . S
C508 H492 0.959 . S
C508 H493 0.959 . S
C508 H494 0.961 . S
C508 C507 1.502 . S
C509 H495 0.960 . S
C509 H496 0.961 . S
C509 H497 0.959 . S
C509 C507 1.561 . S
C510 C507 1.526 . S
C510 C511 1.396 . S
C510 C515 1.390 . S
C511 C505 1.465 . S
C511 C510 1.396 . S
C511 C512 1.399 . S
C512 H498 0.929 . S
C512 C511 1.399 . S
C512 C513 1.385 . S
C513 H499 0.931 . S
C513 C512 1.385 . S
C513 C514 1.389 . S
C514 C513 1.389 . S
C514 C515 1.387 . S
C515 H500 0.930 . S
C515 C510 1.390 . S
C515 C514 1.387 . S
H516 C528 0.930 . S
H517 C530 0.930 . S
H518 C531 0.930 . S
H519 C535 0.959 . S
H520 C535 0.959 . S
H521 C535 0.961 . S
H522 C536 0.960 . S
H523 C536 0.961 . S
H524 C536 0.959 . S
H525 C539 0.929 . S
H526 C540 0.931 . S
H527 C542 0.930 . S
C528 H516 0.930 . S
C528 C529 1.399 . S
C528 C533 1.399 . S
C529 C528 1.399 . S
C529 C530 1.376 . S
C530 H517 0.930 . S
C530 C529 1.376 . S
C530 C531 1.388 . S
C531 H518 0.930 . S
C531 C530 1.388 . S
C531 C532 1.390 . S
C532 C531 1.390 . S
C532 C533 1.394 . S
C532 C538 1.465 . S
C533 C528 1.399 . S
C533 C532 1.394 . S
C533 C534 1.516 . S
C534 C533 1.516 . S
C534 C535 1.502 . S
C534 C536 1.561 . S
C534 C537 1.526 . S
C535 H519 0.959 . S
C535 H520 0.959 . S
C535 H521 0.961 . S
C535 C534 1.502 . S
C536 H522 0.960 . S
C536 H523 0.961 . S
C536 H524 0.959 . S
C536 C534 1.561 . S
C537 C534 1.526 . S
C537 C538 1.396 . S
C537 C542 1.390 . S
C538 C532 1.465 . S
C538 C537 1.396 . S
C538 C539 1.399 . S
C539 H525 0.929 . S
C539 C538 1.399 . S
C539 C540 1.385 . S
C540 H526 0.931 . S
C540 C539 1.385 . S
C540 C541 1.389 . S
C541 C540 1.389 . S
C541 C542 1.387 . S
C542 H527 0.930 . S
C542 C537 1.390 . S
C542 C541 1.387 . S
H543 C555 0.930 . S
H544 C557 0.930 . S
H545 C558 0.930 . S
H546 C562 0.959 . S
H547 C562 0.959 . S
H548 C562 0.961 . S
H549 C563 0.960 . S
H550 C563 0.961 . S
H551 C563 0.959 . S
H552 C566 0.929 . S
H553 C567 0.931 . S
H554 C569 0.930 . S
C555 H543 0.930 . S
C555 C556 1.399 . S
C555 C560 1.399 . S
C556 C555 1.399 . S
C556 C557 1.376 . S
C557 H544 0.930 . S
C557 C556 1.376 . S
C557 C558 1.388 . S
C558 H545 0.930 . S
C558 C557 1.388 . S
C558 C559 1.390 . S
C559 C558 1.390 . S
C559 C560 1.394 . S
C559 C565 1.465 . S
C560 C555 1.399 . S
C560 C559 1.394 . S
C560 C561 1.516 . S
C561 C560 1.516 . S
C561 C562 1.502 . S
C561 C563 1.561 . S
C561 C564 1.526 . S
C562 H546 0.959 . S
C562 H547 0.959 . S
C562 H548 0.961 . S
C562 C561 1.502 . S
C563 H549 0.960 . S
C563 H550 0.961 . S
C563 H551 0.959 . S
C563 C561 1.561 . S
C564 C561 1.526 . S
C564 C565 1.396 . S
C564 C569 1.390 . S
C565 C559 1.465 . S
C565 C564 1.396 . S
C565 C566 1.399 . S
C566 H552 0.929 . S
C566 C565 1.399 . S
C566 C567 1.385 . S
C567 H553 0.931 . S
C567 C566 1.385 . S
C567 C568 1.389 . S
C568 C567 1.389 . S
C568 C569 1.387 . S
C569 H554 0.930 . S
C569 C564 1.390 . S
C569 C568 1.387 . S
H570 C582 0.930 . S
H571 C584 0.930 . S
H572 C585 0.930 . S
H573 C589 0.959 . S
H574 C589 0.959 . S
H575 C589 0.961 . S
H576 C590 0.960 . S
H577 C590 0.961 . S
H578 C590 0.959 . S
H579 C593 0.929 . S
H580 C594 0.931 . S
H581 C596 0.930 . S
C582 H570 0.930 . S
C582 C583 1.399 . S
C582 C587 1.399 . S
C583 C582 1.399 . S
C583 C584 1.376 . S
C584 H571 0.930 . S
C584 C583 1.376 . S
C584 C585 1.388 . S
C585 H572 0.930 . S
C585 C584 1.388 . S
C585 C586 1.390 . S
C586 C585 1.390 . S
C586 C587 1.394 . S
C586 C592 1.465 . S
C587 C582 1.399 . S
C587 C586 1.394 . S
C587 C588 1.516 . S
C588 C587 1.516 . S
C588 C589 1.502 . S
C588 C590 1.561 . S
C588 C591 1.526 . S
C589 H573 0.959 . S
C589 H574 0.959 . S
C589 H575 0.961 . S
C589 C588 1.502 . S
C590 H576 0.960 . S
C590 H577 0.961 . S
C590 H578 0.959 . S
C590 C588 1.561 . S
C591 C588 1.526 . S
C591 C592 1.396 . S
C591 C596 1.390 . S
C592 C586 1.465 . S
C592 C591 1.396 . S
C592 C593 1.399 . S
C593 H579 0.929 . S
C593 C592 1.399 . S
C593 C594 1.385 . S
C594 H580 0.931 . S
C594 C593 1.385 . S
C594 C595 1.389 . S
C595 C594 1.389 . S
C595 C596 1.387 . S
C596 H581 0.930 . S
C596 C591 1.390 . S
C596 C595 1.387 . S
H597 C609 0.930 . S
H598 C611 0.930 . S
H599 C612 0.930 . S
H600 C616 0.959 . S
H601 C616 0.959 . S
H602 C616 0.961 . S
H603 C617 0.960 . S
H604 C617 0.961 . S
H605 C617 0.959 . S
H606 C620 0.929 . S
H607 C621 0.931 . S
H608 C623 0.930 . S
C609 H597 0.930 . S
C609 C610 1.399 . S
C609 C614 1.399 . S
C610 C609 1.399 . S
C610 C611 1.376 . S
C611 H598 0.930 . S
C611 C610 1.376 . S
C611 C612 1.388 . S
C612 H599 0.930 . S
C612 C611 1.388 . S
C612 C613 1.390 . S
C613 C612 1.390 . S
C613 C614 1.394 . S
C613 C619 1.465 . S
C614 C609 1.399 . S
C614 C613 1.394 . S
C614 C615 1.516 . S
C615 C614 1.516 . S
C615 C616 1.502 . S
C615 C617 1.561 . S
C615 C618 1.526 . S
C616 H600 0.959 . S
C616 H601 0.959 . S
C616 H602 0.961 . S
C616 C615 1.502 . S
C617 H603 0.960 . S
C617 H604 0.961 . S
C617 H605 0.959 . S
C617 C615 1.561 . S
C618 C615 1.526 . S
C618 C619 1.396 . S
C618 C623 1.390 . S
C619 C613 1.465 . S
C619 C618 1.396 . S
C619 C620 1.399 . S
C620 H606 0.929 . S
C620 C619 1.399 . S
C620 C621 1.385 . S
C621 H607 0.931 . S
C621 C620 1.385 . S
C621 C622 1.389 . S
C622 C621 1.389 . S
C622 C623 1.387 . S
C623 H608 0.930 . S
C623 C618 1.390 . S
C623 C622 1.387 . S
H624 C636 0.930 . S
H625 C638 0.930 . S
H626 C639 0.930 . S
H627 C643 0.959 . S
H628 C643 0.959 . S
H629 C643 0.961 . S
H630 C644 0.960 . S
H631 C644 0.961 . S
H632 C644 0.959 . S
H633 C647 0.929 . S
H634 C648 0.931 . S
H635 C650 0.930 . S
C636 H624 0.930 . S
C636 C637 1.399 . S
C636 C641 1.399 . S
C637 C636 1.399 . S
C637 C638 1.376 . S
C638 H625 0.930 . S
C638 C637 1.376 . S
C638 C639 1.388 . S
C639 H626 0.930 . S
C639 C638 1.388 . S
C639 C640 1.390 . S
C640 C639 1.390 . S
C640 C641 1.394 . S
C640 C646 1.465 . S
C641 C636 1.399 . S
C641 C640 1.394 . S
C641 C642 1.516 . S
C642 C641 1.516 . S
C642 C643 1.502 . S
C642 C644 1.561 . S
C642 C645 1.526 . S
C643 H627 0.959 . S
C643 H628 0.959 . S
C643 H629 0.961 . S
C643 C642 1.502 . S
C644 H630 0.960 . S
C644 H631 0.961 . S
C644 H632 0.959 . S
C644 C642 1.561 . S
C645 C642 1.526 . S
C645 C646 1.396 . S
C645 C650 1.390 . S
C646 C640 1.465 . S
C646 C645 1.396 . S
C646 C647 1.399 . S
C647 H633 0.929 . S
C647 C646 1.399 . S
C647 C648 1.385 . S
C648 H634 0.931 . S
C648 C647 1.385 . S
C648 C649 1.389 . S
C649 C648 1.389 . S
C649 C650 1.387 . S
C650 H635 0.930 . S
C650 C645 1.390 . S
C650 C649 1.387 . S
H651 C663 0.930 . S
H652 C665 0.930 . S
H653 C666 0.930 . S
H654 C670 0.959 . S
H655 C670 0.959 . S
H656 C670 0.961 . S
H657 C671 0.960 . S
H658 C671 0.961 . S
H659 C671 0.959 . S
H660 C674 0.929 . S
H661 C675 0.931 . S
H662 C677 0.930 . S
C663 H651 0.930 . S
C663 C664 1.399 . S
C663 C668 1.399 . S
C664 C663 1.399 . S
C664 C665 1.376 . S
C665 H652 0.930 . S
C665 C664 1.376 . S
C665 C666 1.388 . S
C666 H653 0.930 . S
C666 C665 1.388 . S
C666 C667 1.390 . S
C667 C666 1.390 . S
C667 C668 1.394 . S
C667 C673 1.465 . S
C668 C663 1.399 . S
C668 C667 1.394 . S
C668 C669 1.516 . S
C669 C668 1.516 . S
C669 C670 1.502 . S
C669 C671 1.561 . S
C669 C672 1.526 . S
C670 H654 0.959 . S
C670 H655 0.959 . S
C670 H656 0.961 . S
C670 C669 1.502 . S
C671 H657 0.960 . S
C671 H658 0.961 . S
C671 H659 0.959 . S
C671 C669 1.561 . S
C672 C669 1.526 . S
C672 C673 1.396 . S
C672 C677 1.390 . S
C673 C667 1.465 . S
C673 C672 1.396 . S
C673 C674 1.399 . S
C674 H660 0.929 . S
C674 C673 1.399 . S
C674 C675 1.385 . S
C675 H661 0.931 . S
C675 C674 1.385 . S
C675 C676 1.389 . S
C676 C675 1.389 . S
C676 C677 1.387 . S
C677 H662 0.930 . S
C677 C672 1.390 . S
C677 C676 1.387 . S
H678 C690 0.930 . S
H679 C692 0.930 . S
H680 C693 0.930 . S
H681 C697 0.959 . S
H682 C697 0.959 . S
H683 C697 0.961 . S
H684 C698 0.960 . S
H685 C698 0.961 . S
H686 C698 0.959 . S
H687 C701 0.929 . S
H688 C702 0.931 . S
H689 C704 0.930 . S
C690 H678 0.930 . S
C690 C691 1.399 . S
C690 C695 1.399 . S
C691 C690 1.399 . S
C691 C692 1.376 . S
C692 H679 0.930 . S
C692 C691 1.376 . S
C692 C693 1.388 . S
C693 H680 0.930 . S
C693 C692 1.388 . S
C693 C694 1.390 . S
C694 C693 1.390 . S
C694 C695 1.394 . S
C694 C700 1.465 . S
C695 C690 1.399 . S
C695 C694 1.394 . S
C695 C696 1.516 . S
C696 C695 1.516 . S
C696 C697 1.502 . S
C696 C698 1.561 . S
C696 C699 1.526 . S
C697 H681 0.959 . S
C697 H682 0.959 . S
C697 H683 0.961 . S
C697 C696 1.502 . S
C698 H684 0.960 . S
C698 H685 0.961 . S
C698 H686 0.959 . S
C698 C696 1.561 . S
C699 C696 1.526 . S
C699 C700 1.396 . S
C699 C704 1.390 . S
C700 C694 1.465 . S
C700 C699 1.396 . S
C700 C701 1.399 . S
C701 H687 0.929 . S
C701 C700 1.399 . S
C701 C702 1.385 . S
C702 H688 0.931 . S
C702 C701 1.385 . S
C702 C703 1.389 . S
C703 C702 1.389 . S
C703 C704 1.387 . S
C704 H689 0.930 . S
C704 C699 1.390 . S
C704 C703 1.387 . S
H705 C717 0.930 . S
H706 C719 0.930 . S
H707 C720 0.930 . S
H708 C724 0.959 . S
H709 C724 0.959 . S
H710 C724 0.961 . S
H711 C725 0.960 . S
H712 C725 0.961 . S
H713 C725 0.959 . S
H714 C728 0.929 . S
H715 C729 0.931 . S
H716 C731 0.930 . S
C717 H705 0.930 . S
C717 C718 1.399 . S
C717 C722 1.399 . S
C718 C717 1.399 . S
C718 C719 1.376 . S
C719 H706 0.930 . S
C719 C718 1.376 . S
C719 C720 1.388 . S
C720 H707 0.930 . S
C720 C719 1.388 . S
C720 C721 1.390 . S
C721 C720 1.390 . S
C721 C722 1.394 . S
C721 C727 1.465 . S
C722 C717 1.399 . S
C722 C721 1.394 . S
C722 C723 1.516 . S
C723 C722 1.516 . S
C723 C724 1.502 . S
C723 C725 1.561 . S
C723 C726 1.526 . S
C724 H708 0.959 . S
C724 H709 0.959 . S
C724 H710 0.961 . S
C724 C723 1.502 . S
C725 H711 0.960 . S
C725 H712 0.961 . S
C725 H713 0.959 . S
C725 C723 1.561 . S
C726 C723 1.526 . S
C726 C727 1.396 . S
C726 C731 1.390 . S
C727 C721 1.465 . S
C727 C726 1.396 . S
C727 C728 1.399 . S
C728 H714 0.929 . S
C728 C727 1.399 . S
C728 C729 1.385 . S
C729 H715 0.931 . S
C729 C728 1.385 . S
C729 C730 1.389 . S
C730 C729 1.389 . S
C730 C731 1.387 . S
C731 H716 0.930 . S
C731 C726 1.390 . S
C731 C730 1.387 . S
H732 C744 0.930 . S
H733 C746 0.930 . S
H734 C747 0.930 . S
H735 C751 0.959 . S
H736 C751 0.959 . S
H737 C751 0.961 . S
H738 C752 0.960 . S
H739 C752 0.961 . S
H740 C752 0.959 . S
H741 C755 0.929 . S
H742 C756 0.931 . S
H743 C758 0.930 . S
C744 H732 0.930 . S
C744 C745 1.399 . S
C744 C749 1.399 . S
C745 C744 1.399 . S
C745 C746 1.376 . S
C746 H733 0.930 . S
C746 C745 1.376 . S
C746 C747 1.388 . S
C747 H734 0.930 . S
C747 C746 1.388 . S
C747 C748 1.390 . S
C748 C747 1.390 . S
C748 C749 1.394 . S
C748 C754 1.465 . S
C749 C744 1.399 . S
C749 C748 1.394 . S
C749 C750 1.516 . S
C750 C749 1.516 . S
C750 C751 1.502 . S
C750 C752 1.561 . S
C750 C753 1.526 . S
C751 H735 0.959 . S
C751 H736 0.959 . S
C751 H737 0.961 . S
C751 C750 1.502 . S
C752 H738 0.960 . S
C752 H739 0.961 . S
C752 H740 0.959 . S
C752 C750 1.561 . S
C753 C750 1.526 . S
C753 C754 1.396 . S
C753 C758 1.390 . S
C754 C748 1.465 . S
C754 C753 1.396 . S
C754 C755 1.399 . S
C755 H741 0.929 . S
C755 C754 1.399 . S
C755 C756 1.385 . S
C756 H742 0.931 . S
C756 C755 1.385 . S
C756 C757 1.389 . S
C757 C756 1.389 . S
C757 C758 1.387 . S
C758 H743 0.930 . S
C758 C753 1.390 . S
C758 C757 1.387 . S
H759 C771 0.930 . S
H760 C773 0.930 . S
H761 C774 0.930 . S
H762 C778 0.959 . S
H763 C778 0.959 . S
H764 C778 0.961 . S
H765 C779 0.960 . S
H766 C779 0.961 . S
H767 C779 0.959 . S
H768 C782 0.929 . S
H769 C783 0.931 . S
H770 C785 0.930 . S
C771 H759 0.930 . S
C771 C772 1.399 . S
C771 C776 1.399 . S
C772 C771 1.399 . S
C772 C773 1.376 . S
C773 H760 0.930 . S
C773 C772 1.376 . S
C773 C774 1.388 . S
C774 H761 0.930 . S
C774 C773 1.388 . S
C774 C775 1.390 . S
C775 C774 1.390 . S
C775 C776 1.394 . S
C775 C781 1.465 . S
C776 C771 1.399 . S
C776 C775 1.394 . S
C776 C777 1.516 . S
C777 C776 1.516 . S
C777 C778 1.502 . S
C777 C779 1.561 . S
C777 C780 1.526 . S
C778 H762 0.959 . S
C778 H763 0.959 . S
C778 H764 0.961 . S
C778 C777 1.502 . S
C779 H765 0.960 . S
C779 H766 0.961 . S
C779 H767 0.959 . S
C779 C777 1.561 . S
C780 C777 1.526 . S
C780 C781 1.396 . S
C780 C785 1.390 . S
C781 C775 1.465 . S
C781 C780 1.396 . S
C781 C782 1.399 . S
C782 H768 0.929 . S
C782 C781 1.399 . S
C782 C783 1.385 . S
C783 H769 0.931 . S
C783 C782 1.385 . S
C783 C784 1.389 . S
C784 C783 1.389 . S
C784 C785 1.387 . S
C785 H770 0.930 . S
C785 C780 1.390 . S
C785 C784 1.387 . S
H786 C798 0.930 . S
H787 C800 0.930 . S
H788 C801 0.930 . S
H789 C805 0.959 . S
H790 C805 0.959 . S
H791 C805 0.961 . S
H792 C806 0.960 . S
H793 C806 0.961 . S
H794 C806 0.959 . S
H795 C809 0.929 . S
H796 C810 0.931 . S
H797 C812 0.930 . S
C798 H786 0.930 . S
C798 C799 1.399 . S
C798 C803 1.399 . S
C799 C798 1.399 . S
C799 C800 1.376 . S
C800 H787 0.930 . S
C800 C799 1.376 . S
C800 C801 1.388 . S
C801 H788 0.930 . S
C801 C800 1.388 . S
C801 C802 1.390 . S
C802 C801 1.390 . S
C802 C803 1.394 . S
C802 C808 1.465 . S
C803 C798 1.399 . S
C803 C802 1.394 . S
C803 C804 1.516 . S
C804 C803 1.516 . S
C804 C805 1.502 . S
C804 C806 1.561 . S
C804 C807 1.526 . S
C805 H789 0.959 . S
C805 H790 0.959 . S
C805 H791 0.961 . S
C805 C804 1.502 . S
C806 H792 0.960 . S
C806 H793 0.961 . S
C806 H794 0.959 . S
C806 C804 1.561 . S
C807 C804 1.526 . S
C807 C808 1.396 . S
C807 C812 1.390 . S
C808 C802 1.465 . S
C808 C807 1.396 . S
C808 C809 1.399 . S
C809 H795 0.929 . S
C809 C808 1.399 . S
C809 C810 1.385 . S
C810 H796 0.931 . S
C810 C809 1.385 . S
C810 C811 1.389 . S
C811 C810 1.389 . S
C811 C812 1.387 . S
C812 H797 0.930 . S
C812 C807 1.390 . S
C812 C811 1.387 . S
H813 C825 0.930 . S
H814 C827 0.930 . S
H815 C828 0.930 . S
H816 C832 0.959 . S
H817 C832 0.959 . S
H818 C832 0.961 . S
H819 C833 0.960 . S
H820 C833 0.961 . S
H821 C833 0.959 . S
H822 C836 0.929 . S
H823 C837 0.931 . S
H824 C839 0.930 . S
C825 H813 0.930 . S
C825 C826 1.399 . S
C825 C830 1.399 . S
C826 C825 1.399 . S
C826 C827 1.376 . S
C827 H814 0.930 . S
C827 C826 1.376 . S
C827 C828 1.388 . S
C828 H815 0.930 . S
C828 C827 1.388 . S
C828 C829 1.390 . S
C829 C828 1.390 . S
C829 C830 1.394 . S
C829 C835 1.465 . S
C830 C825 1.399 . S
C830 C829 1.394 . S
C830 C831 1.516 . S
C831 C830 1.516 . S
C831 C832 1.502 . S
C831 C833 1.561 . S
C831 C834 1.526 . S
C832 H816 0.959 . S
C832 H817 0.959 . S
C832 H818 0.961 . S
C832 C831 1.502 . S
C833 H819 0.960 . S
C833 H820 0.961 . S
C833 H821 0.959 . S
C833 C831 1.561 . S
C834 C831 1.526 . S
C834 C835 1.396 . S
C834 C839 1.390 . S
C835 C829 1.465 . S
C835 C834 1.396 . S
C835 C836 1.399 . S
C836 H822 0.929 . S
C836 C835 1.399 . S
C836 C837 1.385 . S
C837 H823 0.931 . S
C837 C836 1.385 . S
C837 C838 1.389 . S
C838 C837 1.389 . S
C838 C839 1.387 . S
C839 H824 0.930 . S
C839 C834 1.390 . S
C839 C838 1.387 . S
H840 C852 0.930 . S
H841 C854 0.930 . S
H842 C855 0.930 . S
H843 C859 0.959 . S
H844 C859 0.959 . S
H845 C859 0.961 . S
H846 C860 0.960 . S
H847 C860 0.961 . S
H848 C860 0.959 . S
H849 C863 0.929 . S
H850 C864 0.931 . S
H851 C866 0.930 . S
C852 H840 0.930 . S
C852 C853 1.399 1_556 S
C852 C857 1.399 . S
C853 C852 1.399 1_554 S
C853 C854 1.376 . S
C854 H841 0.930 . S
C854 C853 1.376 . S
C854 C855 1.388 . S
C855 H842 0.930 . S
C855 C854 1.388 . S
C855 C856 1.390 . S
C856 C855 1.390 . S
C856 C857 1.394 1_554 S
C856 C862 1.465 . S
C857 C852 1.399 . S
C857 C856 1.394 1_556 S
C857 C858 1.516 . S
C858 C857 1.516 . S
C858 C859 1.502 . S
C858 C860 1.561 . S
C858 C861 1.526 . S
C859 H843 0.959 . S
C859 H844 0.959 . S
C859 H845 0.961 . S
C859 C858 1.502 . S
C860 H846 0.960 . S
C860 H847 0.961 . S
C860 H848 0.959 . S
C860 C858 1.561 . S
C861 C858 1.526 . S
C861 C862 1.396 1_556 S
C861 C866 1.390 . S
C862 C856 1.465 . S
C862 C861 1.396 1_554 S
C862 C863 1.399 . S
C863 H849 0.929 . S
C863 C862 1.399 . S
C863 C864 1.385 . S
C864 H850 0.931 . S
C864 C863 1.385 . S
C864 C865 1.389 . S
C865 C864 1.389 . S
C865 C866 1.387 1_554 S
C866 H851 0.930 . S
C866 C861 1.390 . S
C866 C865 1.387 1_556 S
H867 C879 0.930 . S
H868 C881 0.930 . S
H869 C882 0.930 . S
H870 C886 0.959 . S
H871 C886 0.959 . S
H872 C886 0.961 . S
H873 C887 0.960 . S
H874 C887 0.961 . S
H875 C887 0.959 . S
H876 C890 0.929 . S
H877 C891 0.931 . S
H878 C893 0.930 . S
C879 H867 0.930 . S
C879 C880 1.399 . S
C879 C884 1.399 . S
C880 C879 1.399 . S
C880 C881 1.376 . S
C881 H868 0.930 . S
C881 C880 1.376 . S
C881 C882 1.388 . S
C882 H869 0.930 . S
C882 C881 1.388 . S
C882 C883 1.390 . S
C883 C882 1.390 . S
C883 C884 1.394 . S
C883 C889 1.465 . S
C884 C879 1.399 . S
C884 C883 1.394 . S
C884 C885 1.516 . S
C885 C884 1.516 . S
C885 C886 1.502 . S
C885 C887 1.561 . S
C885 C888 1.526 . S
C886 H870 0.959 . S
C886 H871 0.959 . S
C886 H872 0.961 . S
C886 C885 1.502 . S
C887 H873 0.960 . S
C887 H874 0.961 . S
C887 H875 0.959 . S
C887 C885 1.561 . S
C888 C885 1.526 . S
C888 C889 1.396 . S
C888 C893 1.390 . S
C889 C883 1.465 . S
C889 C888 1.396 . S
C889 C890 1.399 . S
C890 H876 0.929 . S
C890 C889 1.399 . S
C890 C891 1.385 . S
C891 H877 0.931 . S
C891 C890 1.385 . S
C891 C892 1.389 . S
C892 C891 1.389 . S
C892 C893 1.387 . S
C893 H878 0.930 . S
C893 C888 1.390 . S
C893 C892 1.387 . S
H894 C906 0.930 . S
H895 C908 0.930 . S
H896 C909 0.930 . S
H897 C913 0.959 . S
H898 C913 0.959 . S
H899 C913 0.961 . S
H900 C914 0.960 . S
H901 C914 0.961 . S
H902 C914 0.959 . S
H903 C917 0.929 . S
H904 C918 0.931 . S
H905 C920 0.930 . S
C906 H894 0.930 . S
C906 C907 1.399 . S
C906 C911 1.399 . S
C907 C906 1.399 . S
C907 C908 1.376 1_554 S
C908 H895 0.930 . S
C908 C907 1.376 1_556 S
C908 C909 1.388 . S
C909 H896 0.930 . S
C909 C908 1.388 . S
C909 C910 1.390 . S
C910 C909 1.390 . S
C910 C911 1.394 1_556 S
C910 C916 1.465 . S
C911 C906 1.399 . S
C911 C910 1.394 1_554 S
C911 C912 1.516 . S
C912 C911 1.516 . S
C912 C913 1.502 . S
C912 C914 1.561 . S
C912 C915 1.526 . S
C913 H897 0.959 . S
C913 H898 0.959 . S
C913 H899 0.961 . S
C913 C912 1.502 . S
C914 H900 0.960 . S
C914 H901 0.961 . S
C914 H902 0.959 . S
C914 C912 1.561 . S
C915 C912 1.526 . S
C915 C916 1.396 1_554 S
C915 C920 1.390 . S
C916 C910 1.465 . S
C916 C915 1.396 1_556 S
C916 C917 1.399 . S
C917 H903 0.929 . S
C917 C916 1.399 . S
C917 C918 1.385 . S
C918 H904 0.931 . S
C918 C917 1.385 . S
C918 C919 1.389 1_556 S
C919 C918 1.389 1_554 S
C919 C920 1.387 . S
C920 H905 0.930 . S
C920 C915 1.390 . S
C920 C919 1.387 . S
H921 C933 0.930 . S
H922 C935 0.930 . S
H923 C936 0.930 . S
H924 C940 0.959 . S
H925 C940 0.959 . S
H926 C940 0.961 . S
H927 C941 0.960 . S
H928 C941 0.961 . S
H929 C941 0.959 . S
H930 C944 0.929 . S
H931 C945 0.931 . S
H932 C947 0.930 . S
C933 H921 0.930 . S
C933 C934 1.399 . S
C933 C938 1.399 . S
C934 C933 1.399 . S
C934 C935 1.376 . S
C935 H922 0.930 . S
C935 C934 1.376 . S
C935 C936 1.388 . S
C936 H923 0.930 . S
C936 C935 1.388 . S
C936 C937 1.390 . S
C937 C936 1.390 . S
C937 C938 1.394 . S
C937 C943 1.465 . S
C938 C933 1.399 . S
C938 C937 1.394 . S
C938 C939 1.516 . S
C939 C938 1.516 . S
C939 C940 1.502 . S
C939 C941 1.561 . S
C939 C942 1.526 . S
C940 H924 0.959 . S
C940 H925 0.959 . S
C940 H926 0.961 . S
C940 C939 1.502 . S
C941 H927 0.960 . S
C941 H928 0.961 . S
C941 H929 0.959 . S
C941 C939 1.561 . S
C942 C939 1.526 . S
C942 C943 1.396 . S
C942 C947 1.390 . S
C943 C937 1.465 . S
C943 C942 1.396 . S
C943 C944 1.399 . S
C944 H930 0.929 . S
C944 C943 1.399 . S
C944 C945 1.385 . S
C945 H931 0.931 . S
C945 C944 1.385 . S
C945 C946 1.389 . S
C946 C945 1.389 . S
C946 C947 1.387 . S
C947 H932 0.930 . S
C947 C942 1.390 . S
C947 C946 1.387 . S
H948 C960 0.930 . S
H949 C962 0.930 . S
H950 C963 0.930 . S
H951 C967 0.959 . S
H952 C967 0.959 . S
H953 C967 0.961 . S
H954 C968 0.960 . S
H955 C968 0.961 . S
H956 C968 0.959 . S
H957 C971 0.929 . S
H958 C972 0.931 . S
H959 C974 0.930 . S
C960 H948 0.930 . S
C960 C961 1.399 . S
C960 C965 1.399 . S
C961 C960 1.399 . S
C961 C962 1.376 . S
C962 H949 0.930 . S
C962 C961 1.376 . S
C962 C963 1.388 . S
C963 H950 0.930 . S
C963 C962 1.388 . S
C963 C964 1.390 . S
C964 C963 1.390 . S
C964 C965 1.394 . S
C964 C970 1.465 . S
C965 C960 1.399 . S
C965 C964 1.394 . S
C965 C966 1.516 . S
C966 C965 1.516 . S
C966 C967 1.502 . S
C966 C968 1.561 . S
C966 C969 1.526 . S
C967 H951 0.959 . S
C967 H952 0.959 . S
C967 H953 0.961 . S
C967 C966 1.502 . S
C968 H954 0.960 . S
C968 H955 0.961 . S
C968 H956 0.959 . S
C968 C966 1.561 . S
C969 C966 1.526 . S
C969 C970 1.396 . S
C969 C974 1.390 . S
C970 C964 1.465 . S
C970 C969 1.396 . S
C970 C971 1.399 . S
C971 H957 0.929 . S
C971 C970 1.399 . S
C971 C972 1.385 . S
C972 H958 0.931 . S
C972 C971 1.385 . S
C972 C973 1.389 . S
C973 C972 1.389 . S
C973 C974 1.387 . S
C974 H959 0.930 . S
C974 C969 1.390 . S
C974 C973 1.387 . S
H975 C987 0.930 . S
H976 C989 0.930 . S
H977 C990 0.930 . S
H978 C994 0.959 . S
H979 C994 0.959 . S
H980 C994 0.961 . S
H981 C995 0.960 . S
H982 C995 0.961 . S
H983 C995 0.959 . S
H984 C998 0.929 . S
H985 C999 0.931 . S
H986 C1001 0.930 . S
C987 H975 0.930 . S
C987 C988 1.399 . S
C987 C992 1.399 . S
C988 C987 1.399 . S
C988 C989 1.376 1_554 S
C989 H976 0.930 . S
C989 C988 1.376 1_556 S
C989 C990 1.388 . S
C990 H977 0.930 . S
C990 C989 1.388 . S
C990 C991 1.390 . S
C991 C990 1.390 . S
C991 C992 1.394 1_556 S
C991 C997 1.465 . S
C992 C987 1.399 . S
C992 C991 1.394 1_554 S
C992 C993 1.516 . S
C993 C992 1.516 . S
C993 C994 1.502 . S
C993 C995 1.561 . S
C993 C996 1.526 . S
C994 H978 0.959 . S
C994 H979 0.959 . S
C994 H980 0.961 . S
C994 C993 1.502 . S
C995 H981 0.960 . S
C995 H982 0.961 . S
C995 H983 0.959 . S
C995 C993 1.561 . S
C996 C993 1.526 . S
C996 C997 1.396 1_554 S
C996 C1001 1.390 . S
C997 C991 1.465 . S
C997 C996 1.396 1_556 S
C997 C998 1.399 . S
C998 H984 0.929 . S
C998 C997 1.399 . S
C998 C999 1.385 . S
C999 H985 0.931 . S
C999 C998 1.385 . S
C999 C1000 1.389 1_556 S
C1000 C999 1.389 1_554 S
C1000 C1001 1.387 . S
C1001 H986 0.930 . S
C1001 C996 1.390 . S
C1001 C1000 1.387 . S
H1002 C1014 0.930 . S
H1003 C1016 0.930 . S
H1004 C1017 0.930 . S
H1005 C1021 0.959 . S
H1006 C1021 0.959 . S
H1007 C1021 0.961 . S
H1008 C1022 0.960 . S
H1009 C1022 0.961 . S
H1010 C1022 0.959 . S
H1011 C1025 0.929 . S
H1012 C1026 0.931 . S
H1013 C1028 0.930 . S
C1014 H1002 0.930 . S
C1014 C1015 1.399 . S
C1014 C1019 1.399 . S
C1015 C1014 1.399 . S
C1015 C1016 1.376 . S
C1016 H1003 0.930 . S
C1016 C1015 1.376 . S
C1016 C1017 1.388 . S
C1017 H1004 0.930 . S
C1017 C1016 1.388 . S
C1017 C1018 1.390 . S
C1018 C1017 1.390 . S
C1018 C1019 1.394 . S
C1018 C1024 1.465 . S
C1019 C1014 1.399 . S
C1019 C1018 1.394 . S
C1019 C1020 1.516 . S
C1020 C1019 1.516 . S
C1020 C1021 1.502 . S
C1020 C1022 1.561 . S
C1020 C1023 1.526 . S
C1021 H1005 0.959 . S
C1021 H1006 0.959 . S
C1021 H1007 0.961 . S
C1021 C1020 1.502 . S
C1022 H1008 0.960 . S
C1022 H1009 0.961 . S
C1022 H1010 0.959 . S
C1022 C1020 1.561 . S
C1023 C1020 1.526 . S
C1023 C1024 1.396 . S
C1023 C1028 1.390 . S
C1024 C1018 1.465 . S
C1024 C1023 1.396 . S
C1024 C1025 1.399 . S
C1025 H1011 0.929 . S
C1025 C1024 1.399 . S
C1025 C1026 1.385 . S
C1026 H1012 0.931 . S
C1026 C1025 1.385 . S
C1026 C1027 1.389 . S
C1027 C1026 1.389 . S
C1027 C1028 1.387 . S
C1028 H1013 0.930 . S
C1028 C1023 1.390 . S
C1028 C1027 1.387 . S
H1029 C1041 0.930 . S
H1030 C1043 0.930 . S
H1031 C1044 0.930 . S
H1032 C1048 0.959 . S
H1033 C1048 0.959 . S
H1034 C1048 0.961 . S
H1035 C1049 0.960 . S
H1036 C1049 0.961 . S
H1037 C1049 0.959 . S
H1038 C1052 0.929 . S
H1039 C1053 0.931 . S
H1040 C1055 0.930 . S
C1041 H1029 0.930 . S
C1041 C1042 1.399 1_556 S
C1041 C1046 1.399 . S
C1042 C1041 1.399 1_554 S
C1042 C1043 1.376 . S
C1043 H1030 0.930 . S
C1043 C1042 1.376 . S
C1043 C1044 1.388 . S
C1044 H1031 0.930 . S
C1044 C1043 1.388 . S
C1044 C1045 1.390 . S
C1045 C1044 1.390 . S
C1045 C1046 1.394 1_554 S
C1045 C1051 1.465 . S
C1046 C1041 1.399 . S
C1046 C1045 1.394 1_556 S
C1046 C1047 1.516 . S
C1047 C1046 1.516 . S
C1047 C1048 1.502 . S
C1047 C1049 1.561 . S
C1047 C1050 1.526 . S
C1048 H1032 0.959 . S
C1048 H1033 0.959 . S
C1048 H1034 0.961 . S
C1048 C1047 1.502 . S
C1049 H1035 0.960 . S
C1049 H1036 0.961 . S
C1049 H1037 0.959 . S
C1049 C1047 1.561 . S
C1050 C1047 1.526 . S
C1050 C1051 1.396 1_556 S
C1050 C1055 1.390 . S
C1051 C1045 1.465 . S
C1051 C1050 1.396 1_554 S
C1051 C1052 1.399 . S
C1052 H1038 0.929 . S
C1052 C1051 1.399 . S
C1052 C1053 1.385 . S
C1053 H1039 0.931 . S
C1053 C1052 1.385 . S
C1053 C1054 1.389 . S
C1054 C1053 1.389 . S
C1054 C1055 1.387 1_554 S
C1055 H1040 0.930 . S
C1055 C1050 1.390 . S
C1055 C1054 1.387 1_556 S
C421 C21 1.633 . S
C433 C210 1.632 . S
C448 C40 1.796 . S
C460 C90 1.795 . S
C487 C149 1.643 . S
C475 C54 1.625 . S
C502 C73 1.842 . S
C514 C189 1.672 . S
C541 C309 1.609 . S
C529 C74 1.642 . S
C568 C349 1.665 . S
C556 C10 1.810 . S
C595 C370 1.635 . S
C583 C37 1.637 . S
C622 C250 1.839 . S
C610 C65 1.841 . S
C637 C52 1.614 . S
C649 C130 1.642 . S
C664 C87 1.848 . S
C676 C170 1.698 . S
C691 C15 1.648 . S
C703 C229 1.630 . S
C730 C109 1.781 . S
C718 C32 1.790 . S
C745 C29 1.641 . S
C757 C389 1.606 . S
C784 C269 1.838 . S
C772 C59 1.859 . S
C811 C290 1.629 . S
C799 C84 1.642 . S
C826 C8 1.783 . S
C838 C330 1.713 . S
C865 C103 1.871 . S
C853 C7 1.912 . S
C892 C143 1.690 . S
C880 C30 1.723 . S
C907 C62 1.939 . S
C919 C183 1.842 . S
C934 C81 1.712 . S
C946 C223 1.668 . S
C973 C263 1.890 . S
C961 C76 1.922 . S
C988 C18 1.724 . S
C1000 C303 1.688 . S
C1015 C43 1.915 . S
C1027 C343 1.834 . S
C1042 C51 1.678 . S
C1054 C383 1.690 . S
