# Generated by pormake.
# Topology gar, (4,6)-cn, num edge types: 1
# Building blocks:
#     Node 0, Type 0, BuildingBlock: KUFVIS_clean_sbu_0, # of connection points: 4
#     Node 1, Type 0, BuildingBlock: KUFVIS_clean_sbu_0, # of connection points: 4
#     Node 2, Type 0, BuildingBlock: KUFVIS_clean_sbu_0, # of connection points: 4
#     Node 3, Type 0, BuildingBlock: KUFVIS_clean_sbu_0, # of connection points: 4
#     Node 4, Type 0, BuildingBlock: KUFVIS_clean_sbu_0, # of connection points: 4
#     Node 5, Type 0, BuildingBlock: KUFVIS_clean_sbu_0, # of connection points: 4
#     Node 6, Type 0, BuildingBlock: KUFVIS_clean_sbu_0, # of connection points: 4
#     Node 7, Type 0, BuildingBlock: KUFVIS_clean_sbu_0, # of connection points: 4
#     Node 8, Type 0, BuildingBlock: KUFVIS_clean_sbu_0, # of connection points: 4
#     Node 9, Type 0, BuildingBlock: KUFVIS_clean_sbu_0, # of connection points: 4
#     Node 10, Type 0, BuildingBlock: KUFVIS_clean_sbu_0, # of connection points: 4
#     Node 11, Type 0, BuildingBlock: KUFVIS_clean_sbu_0, # of connection points: 4
#     Node 12, Type 0, BuildingBlock: KUFVIS_clean_sbu_0, # of connection points: 4
#     Node 13, Type 0, BuildingBlock: KUFVIS_clean_sbu_0, # of connection points: 4
#     Node 14, Type 0, BuildingBlock: KUFVIS_clean_sbu_0, # of connection points: 4
#     Node 15, Type 0, BuildingBlock: KUFVIS_clean_sbu_0, # of connection points: 4
#     Node 16, Type 0, BuildingBlock: KUFVIS_clean_sbu_0, # of connection points: 4
#     Node 17, Type 0, BuildingBlock: KUFVIS_clean_sbu_0, # of connection points: 4
#     Node 18, Type 0, BuildingBlock: KUFVIS_clean_sbu_0, # of connection points: 4
#     Node 19, Type 0, BuildingBlock: KUFVIS_clean_sbu_0, # of connection points: 4
#     Node 20, Type 0, BuildingBlock: KUFVIS_clean_sbu_0, # of connection points: 4
#     Node 21, Type 0, BuildingBlock: KUFVIS_clean_sbu_0, # of connection points: 4
#     Node 22, Type 0, BuildingBlock: KUFVIS_clean_sbu_0, # of connection points: 4
#     Node 23, Type 0, BuildingBlock: KUFVIS_clean_sbu_0, # of connection points: 4
#     Node 24, Type 1, BuildingBlock: PAMTOO_clean_sbu_0, # of connection points: 6
#     Node 25, Type 1, BuildingBlock: PAMTOO_clean_sbu_0, # of connection points: 6
#     Node 26, Type 1, BuildingBlock: PAMTOO_clean_sbu_0, # of connection points: 6
#     Node 27, Type 1, BuildingBlock: PAMTOO_clean_sbu_0, # of connection points: 6
#     Node 28, Type 1, BuildingBlock: PAMTOO_clean_sbu_0, # of connection points: 6
#     Node 29, Type 1, BuildingBlock: PAMTOO_clean_sbu_0, # of connection points: 6
#     Node 30, Type 1, BuildingBlock: PAMTOO_clean_sbu_0, # of connection points: 6
#     Node 31, Type 1, BuildingBlock: PAMTOO_clean_sbu_0, # of connection points: 6
#     Node 32, Type 1, BuildingBlock: PAMTOO_clean_sbu_0, # of connection points: 6
#     Node 33, Type 1, BuildingBlock: PAMTOO_clean_sbu_0, # of connection points: 6
#     Node 34, Type 1, BuildingBlock: PAMTOO_clean_sbu_0, # of connection points: 6
#     Node 35, Type 1, BuildingBlock: PAMTOO_clean_sbu_0, # of connection points: 6
#     Node 36, Type 1, BuildingBlock: PAMTOO_clean_sbu_0, # of connection points: 6
#     Node 37, Type 1, BuildingBlock: PAMTOO_clean_sbu_0, # of connection points: 6
#     Node 38, Type 1, BuildingBlock: PAMTOO_clean_sbu_0, # of connection points: 6
#     Node 39, Type 1, BuildingBlock: PAMTOO_clean_sbu_0, # of connection points: 6
#     Edge 40, Type (0, 1), BuildingBlock: AJUNOK_clean_linker_0, # of connection points: 2
#     Edge 41, Type (0, 1), BuildingBlock: AJUNOK_clean_linker_0, # of connection points: 2
#     Edge 42, Type (0, 1), BuildingBlock: AJUNOK_clean_linker_0, # of connection points: 2
#     Edge 43, Type (0, 1), BuildingBlock: AJUNOK_clean_linker_0, # of connection points: 2
#     Edge 44, Type (0, 1), BuildingBlock: AJUNOK_clean_linker_0, # of connection points: 2
#     Edge 45, Type (0, 1), BuildingBlock: AJUNOK_clean_linker_0, # of connection points: 2
#     Edge 46, Type (0, 1), BuildingBlock: AJUNOK_clean_linker_0, # of connection points: 2
#     Edge 47, Type (0, 1), BuildingBlock: AJUNOK_clean_linker_0, # of connection points: 2
#     Edge 48, Type (0, 1), BuildingBlock: AJUNOK_clean_linker_0, # of connection points: 2
#     Edge 49, Type (0, 1), BuildingBlock: AJUNOK_clean_linker_0, # of connection points: 2
#     Edge 50, Type (0, 1), BuildingBlock: AJUNOK_clean_linker_0, # of connection points: 2
#     Edge 51, Type (0, 1), BuildingBlock: AJUNOK_clean_linker_0, # of connection points: 2
#     Edge 52, Type (0, 1), BuildingBlock: AJUNOK_clean_linker_0, # of connection points: 2
#     Edge 53, Type (0, 1), BuildingBlock: AJUNOK_clean_linker_0, # of connection points: 2
#     Edge 54, Type (0, 1), BuildingBlock: AJUNOK_clean_linker_0, # of connection points: 2
#     Edge 55, Type (0, 1), BuildingBlock: AJUNOK_clean_linker_0, # of connection points: 2
#     Edge 56, Type (0, 1), BuildingBlock: AJUNOK_clean_linker_0, # of connection points: 2
#     Edge 57, Type (0, 1), BuildingBlock: AJUNOK_clean_linker_0, # of connection points: 2
#     Edge 58, Type (0, 1), BuildingBlock: AJUNOK_clean_linker_0, # of connection points: 2
#     Edge 59, Type (0, 1), BuildingBlock: AJUNOK_clean_linker_0, # of connection points: 2
#     Edge 60, Type (0, 1), BuildingBlock: AJUNOK_clean_linker_0, # of connection points: 2
#     Edge 61, Type (0, 1), BuildingBlock: AJUNOK_clean_linker_0, # of connection points: 2
#     Edge 62, Type (0, 1), BuildingBlock: AJUNOK_clean_linker_0, # of connection points: 2
#     Edge 63, Type (0, 1), BuildingBlock: AJUNOK_clean_linker_0, # of connection points: 2
#     Edge 64, Type (0, 1), BuildingBlock: AJUNOK_clean_linker_0, # of connection points: 2
#     Edge 65, Type (0, 1), BuildingBlock: AJUNOK_clean_linker_0, # of connection points: 2
#     Edge 66, Type (0, 1), BuildingBlock: AJUNOK_clean_linker_0, # of connection points: 2
#     Edge 67, Type (0, 1), BuildingBlock: AJUNOK_clean_linker_0, # of connection points: 2
#     Edge 68, Type (0, 1), BuildingBlock: AJUNOK_clean_linker_0, # of connection points: 2
#     Edge 69, Type (0, 1), BuildingBlock: AJUNOK_clean_linker_0, # of connection points: 2
#     Edge 70, Type (0, 1), BuildingBlock: AJUNOK_clean_linker_0, # of connection points: 2
#     Edge 71, Type (0, 1), BuildingBlock: AJUNOK_clean_linker_0, # of connection points: 2
#     Edge 72, Type (0, 1), BuildingBlock: AJUNOK_clean_linker_0, # of connection points: 2
#     Edge 73, Type (0, 1), BuildingBlock: AJUNOK_clean_linker_0, # of connection points: 2
#     Edge 74, Type (0, 1), BuildingBlock: AJUNOK_clean_linker_0, # of connection points: 2
#     Edge 75, Type (0, 1), BuildingBlock: AJUNOK_clean_linker_0, # of connection points: 2
#     Edge 76, Type (0, 1), BuildingBlock: AJUNOK_clean_linker_0, # of connection points: 2
#     Edge 77, Type (0, 1), BuildingBlock: AJUNOK_clean_linker_0, # of connection points: 2
#     Edge 78, Type (0, 1), BuildingBlock: AJUNOK_clean_linker_0, # of connection points: 2
#     Edge 79, Type (0, 1), BuildingBlock: AJUNOK_clean_linker_0, # of connection points: 2
#     Edge 80, Type (0, 1), BuildingBlock: AJUNOK_clean_linker_0, # of connection points: 2
#     Edge 81, Type (0, 1), BuildingBlock: AJUNOK_clean_linker_0, # of connection points: 2
#     Edge 82, Type (0, 1), BuildingBlock: AJUNOK_clean_linker_0, # of connection points: 2
#     Edge 83, Type (0, 1), BuildingBlock: AJUNOK_clean_linker_0, # of connection points: 2
#     Edge 84, Type (0, 1), BuildingBlock: AJUNOK_clean_linker_0, # of connection points: 2
#     Edge 85, Type (0, 1), BuildingBlock: AJUNOK_clean_linker_0, # of connection points: 2
#     Edge 86, Type (0, 1), BuildingBlock: AJUNOK_clean_linker_0, # of connection points: 2
#     Edge 87, Type (0, 1), BuildingBlock: AJUNOK_clean_linker_0, # of connection points: 2
#     Edge 88, Type (0, 1), BuildingBlock: AJUNOK_clean_linker_0, # of connection points: 2
#     Edge 89, Type (0, 1), BuildingBlock: AJUNOK_clean_linker_0, # of connection points: 2
#     Edge 90, Type (0, 1), BuildingBlock: AJUNOK_clean_linker_0, # of connection points: 2
#     Edge 91, Type (0, 1), BuildingBlock: AJUNOK_clean_linker_0, # of connection points: 2
#     Edge 92, Type (0, 1), BuildingBlock: AJUNOK_clean_linker_0, # of connection points: 2
#     Edge 93, Type (0, 1), BuildingBlock: AJUNOK_clean_linker_0, # of connection points: 2
#     Edge 94, Type (0, 1), BuildingBlock: AJUNOK_clean_linker_0, # of connection points: 2
#     Edge 95, Type (0, 1), BuildingBlock: AJUNOK_clean_linker_0, # of connection points: 2
#     Edge 96, Type (0, 1), BuildingBlock: AJUNOK_clean_linker_0, # of connection points: 2
#     Edge 97, Type (0, 1), BuildingBlock: AJUNOK_clean_linker_0, # of connection points: 2
#     Edge 98, Type (0, 1), BuildingBlock: AJUNOK_clean_linker_0, # of connection points: 2
#     Edge 99, Type (0, 1), BuildingBlock: AJUNOK_clean_linker_0, # of connection points: 2
#     Edge 100, Type (0, 1), BuildingBlock: AJUNOK_clean_linker_0, # of connection points: 2
#     Edge 101, Type (0, 1), BuildingBlock: AJUNOK_clean_linker_0, # of connection points: 2
#     Edge 102, Type (0, 1), BuildingBlock: AJUNOK_clean_linker_0, # of connection points: 2
#     Edge 103, Type (0, 1), BuildingBlock: AJUNOK_clean_linker_0, # of connection points: 2
#     Edge 104, Type (0, 1), BuildingBlock: AJUNOK_clean_linker_0, # of connection points: 2
#     Edge 105, Type (0, 1), BuildingBlock: AJUNOK_clean_linker_0, # of connection points: 2
#     Edge 106, Type (0, 1), BuildingBlock: AJUNOK_clean_linker_0, # of connection points: 2
#     Edge 107, Type (0, 1), BuildingBlock: AJUNOK_clean_linker_0, # of connection points: 2
#     Edge 108, Type (0, 1), BuildingBlock: AJUNOK_clean_linker_0, # of connection points: 2
#     Edge 109, Type (0, 1), BuildingBlock: AJUNOK_clean_linker_0, # of connection points: 2
#     Edge 110, Type (0, 1), BuildingBlock: AJUNOK_clean_linker_0, # of connection points: 2
#     Edge 111, Type (0, 1), BuildingBlock: AJUNOK_clean_linker_0, # of connection points: 2
#     Edge 112, Type (0, 1), BuildingBlock: AJUNOK_clean_linker_0, # of connection points: 2
#     Edge 113, Type (0, 1), BuildingBlock: AJUNOK_clean_linker_0, # of connection points: 2
#     Edge 114, Type (0, 1), BuildingBlock: AJUNOK_clean_linker_0, # of connection points: 2
#     Edge 115, Type (0, 1), BuildingBlock: AJUNOK_clean_linker_0, # of connection points: 2
#     Edge 116, Type (0, 1), BuildingBlock: AJUNOK_clean_linker_0, # of connection points: 2
#     Edge 117, Type (0, 1), BuildingBlock: AJUNOK_clean_linker_0, # of connection points: 2
#     Edge 118, Type (0, 1), BuildingBlock: AJUNOK_clean_linker_0, # of connection points: 2
#     Edge 119, Type (0, 1), BuildingBlock: AJUNOK_clean_linker_0, # of connection points: 2
#     Edge 120, Type (0, 1), BuildingBlock: AJUNOK_clean_linker_0, # of connection points: 2
#     Edge 121, Type (0, 1), BuildingBlock: AJUNOK_clean_linker_0, # of connection points: 2
#     Edge 122, Type (0, 1), BuildingBlock: AJUNOK_clean_linker_0, # of connection points: 2
#     Edge 123, Type (0, 1), BuildingBlock: AJUNOK_clean_linker_0, # of connection points: 2
#     Edge 124, Type (0, 1), BuildingBlock: AJUNOK_clean_linker_0, # of connection points: 2
#     Edge 125, Type (0, 1), BuildingBlock: AJUNOK_clean_linker_0, # of connection points: 2
#     Edge 126, Type (0, 1), BuildingBlock: AJUNOK_clean_linker_0, # of connection points: 2
#     Edge 127, Type (0, 1), BuildingBlock: AJUNOK_clean_linker_0, # of connection points: 2
#     Edge 128, Type (0, 1), BuildingBlock: AJUNOK_clean_linker_0, # of connection points: 2
#     Edge 129, Type (0, 1), BuildingBlock: AJUNOK_clean_linker_0, # of connection points: 2
#     Edge 130, Type (0, 1), BuildingBlock: AJUNOK_clean_linker_0, # of connection points: 2
#     Edge 131, Type (0, 1), BuildingBlock: AJUNOK_clean_linker_0, # of connection points: 2
#     Edge 132, Type (0, 1), BuildingBlock: AJUNOK_clean_linker_0, # of connection points: 2
#     Edge 133, Type (0, 1), BuildingBlock: AJUNOK_clean_linker_0, # of connection points: 2
#     Edge 134, Type (0, 1), BuildingBlock: AJUNOK_clean_linker_0, # of connection points: 2
#     Edge 135, Type (0, 1), BuildingBlock: AJUNOK_clean_linker_0, # of connection points: 2
# Relax obj value: 0.178
# Max RMSD: 0.281
# Mean RMSD: 0.165
data_MOF--net-gar--node1-KUFVIS_clean_sbu_0--node2-PAMTOO_clean_sbu_0--edge1-AJUNOK_clean_linker_0
_symmetry_space_group_name_H-M    P1
_symmetry_Int_Tables_number       1
_symmetry_cell_setting            triclinic
loop_
_symmetry_equiv_pos_as_xyz
'x, y, z'
_cell_length_a     44.980339
_cell_length_b     45.477721
_cell_length_c     43.790612
_cell_angle_alpha  96.887391
_cell_angle_beta   97.034356
_cell_angle_gamma 105.40023
loop_
_atom_site_label
_atom_site_type_symbol
_atom_site_fract_x
_atom_site_fract_y
_atom_site_fract_z
_atom_type_partial_charge
Mn0 Mn 0.06502 0.34415 0.39196 0.0
Mn1 Mn 0.07239 0.39441 0.34222 0.0
C2 C 1.01743 0.35441 0.36957 0.0
C3 C 0.05784 0.29581 0.40929 0.0
C4 C 0.0834 0.41581 0.41322 0.0
O5 O 0.10925 0.34365 0.37746 0.0
O6 O 0.11187 0.37744 0.34433 0.0
C7 C 0.06919 0.35261 0.28348 0.0
N8 N 0.05761 0.37296 0.30033 0.0
C9 C 1.01829 0.37031 0.25659 0.0
C10 C 0.02992 0.34947 0.23885 0.0
C11 C 0.05542 0.34054 0.25237 0.0
C12 C 0.03274 0.38139 0.28759 0.0
H13 H 0.08887 0.34568 0.29355 0.0
C14 C 0.1235 0.3575 0.3569 0.0
O15 O 0.07262 0.32165 0.42695 0.0
O16 O 0.04904 0.29733 0.38024 0.0
N17 N 0.03848 0.41245 0.33545 0.0
C18 C 0.03254 0.43594 0.35399 0.0
C19 C 1.00867 0.44852 0.34322 0.0
C20 C 0.99131 0.43723 0.31332 0.0
C21 C 0.99858 0.41403 0.29414 0.0
C22 C 0.02277 0.4024 0.30608 0.0
H23 H 0.04577 0.44526 0.37689 0.0
O24 O 0.02073 0.34449 0.39587 0.0
O25 O 0.04301 0.35814 0.35627 0.0
O26 O 0.07901 0.38825 0.41911 0.0
O27 O 0.08593 0.42099 0.38531 0.0
C28 C 0.98347 0.40284 0.26321 0.0
C29 C 0.99326 0.38094 0.24447 0.0
H30 H 1.01958 0.34034 0.21476 0.0
H31 H 0.06457 0.32451 0.23877 0.0
H32 H 1.00368 0.46689 0.35799 0.0
H33 H 0.97293 0.44703 0.30507 0.0
H34 H 0.96466 0.41135 0.25343 0.0
H35 H 0.98171 0.3728 0.22058 0.0
Mn36 Mn 0.04603 0.76256 0.72534 0.0
Mn37 Mn 0.07162 0.82373 0.78368 0.0
C38 C 0.10192 0.78019 0.74901 0.0
C39 C 0.03176 0.70968 0.69596 0.0
C40 C 0.06078 0.83096 0.71571 0.0
O41 O 1.002 0.76512 0.74161 0.0
O42 O 0.02331 0.80859 0.77614 0.0
C43 C 0.05019 0.79532 0.83755 0.0
N44 N 0.07395 0.81007 0.8234 0.0
C45 C 0.11141 0.81687 0.86987 0.0
C46 C 0.08741 0.80158 0.88472 0.0
C47 C 0.05665 0.79078 0.86857 0.0
C48 C 0.1036 0.8208 0.83899 0.0
H49 H 0.02641 0.78749 0.82548 0.0
C50 C 0.99848 0.78737 0.76174 0.0
O51 O 0.02535 0.7326 0.68474 0.0
O52 O 0.04236 0.71606 0.72573 0.0
N53 N 0.11604 0.84106 0.79447 0.0
C54 C 0.13633 0.85776 0.77799 0.0
C55 C 0.1682 0.86903 0.79044 0.0
C56 C 0.17874 0.86425 0.82044 0.0
C57 C 0.15723 0.84867 0.83776 0.0
C58 C 0.12589 0.8369 0.82357 0.0
H59 H 0.12826 0.86238 0.75554 0.0
O60 O 0.0916 0.76644 0.7206 0.0
O61 O 0.07888 0.7845 0.76358 0.0
O62 O 0.04825 0.80228 0.70602 0.0
O63 O 0.07156 0.84167 0.74436 0.0
C64 C 0.16568 0.8445 0.86861 0.0
C65 C 0.14271 0.82887 0.88479 0.0
H66 H 0.0925 0.79827 0.90857 0.0
H67 H 0.03794 0.77927 0.8801 0.0
H68 H 0.1845 0.8815 0.77699 0.0
H69 H 0.20331 0.8727 0.83011 0.0
H70 H 0.18969 0.85357 0.88025 0.0
H71 H 0.14934 0.82626 0.90872 0.0
Mn72 Mn 0.56495 0.84166 0.89044 0.0
Mn73 Mn 0.57237 0.89028 0.83906 0.0
C74 C 0.51685 0.84975 0.8651 0.0
C75 C 0.55918 0.79335 0.90776 0.0
C76 C 0.58206 0.91342 0.91034 0.0
O77 O 0.61106 0.84329 0.87848 0.0
O78 O 0.61188 0.87317 0.84173 0.0
C79 C 0.56896 0.84731 0.78106 0.0
N80 N 0.55759 0.86817 0.79739 0.0
C81 C 0.5178 0.8643 0.7536 0.0
C82 C 0.52918 0.84287 0.73643 0.0
C83 C 0.55483 0.83432 0.75023 0.0
C84 C 0.53261 0.87628 0.78434 0.0
H85 H 0.58869 0.8406 0.79138 0.0
C86 C 0.62476 0.85524 0.8565 0.0
O87 O 0.57182 0.81935 0.92598 0.0
O88 O 0.55134 0.79487 0.87854 0.0
N89 N 0.53831 0.90807 0.83165 0.0
C90 C 0.532 0.93151 0.84979 0.0
C91 C 0.50874 0.94451 0.83838 0.0
C92 C 0.49154 0.93294 0.8085 0.0
C93 C 0.49854 0.90914 0.78997 0.0
C94 C 0.52272 0.89768 0.80231 0.0
H95 H 0.54395 0.93995 0.8731 0.0
O96 O 0.51923 0.83989 0.89153 0.0
O97 O 0.54342 0.85443 0.85353 0.0
O98 O 0.57649 0.88609 0.91715 0.0
O99 O 0.58577 0.91748 0.88222 0.0
C100 C 0.48314 0.89713 0.75929 0.0
C101 C 0.49263 0.87458 0.74117 0.0
H102 H 0.51852 0.83298 0.71257 0.0
H103 H 0.56378 0.81783 0.73705 0.0
H104 H 0.5038 0.96311 0.85284 0.0
H105 H 0.47336 0.94281 0.79987 0.0
H106 H 0.46427 0.90542 0.74925 0.0
H107 H 0.48077 0.8657 0.71748 0.0
Mn108 Mn 0.54608 0.26146 0.2288 0.0
Mn109 Mn 0.48893 0.25104 0.16757 0.0
C110 C 0.5267 0.21144 0.19375 0.0
C111 C 0.60356 0.27181 0.24819 0.0
C112 C 0.47689 0.26903 0.23507 0.0
O113 O 0.55202 0.30522 0.2165 0.0
O114 O 0.51815 0.29319 0.17064 0.0
C115 C 0.51851 0.25322 0.11083 0.0
N116 N 0.49958 0.23688 0.12866 0.0
C117 C 0.48493 0.19146 0.08953 0.0
C118 C 0.50504 0.20753 0.07119 0.0
C119 C 0.52174 0.23863 0.08181 0.0
C120 C 0.48257 0.20729 0.11817 0.0
H121 H 0.53053 0.27733 0.11845 0.0
C122 C 0.54051 0.31202 0.19067 0.0
O123 O 0.5835 0.27547 0.26621 0.0
O124 O 0.5907 0.26286 0.21943 0.0
N125 N 0.46155 0.21027 0.16402 0.0
C126 C 0.44391 0.19773 0.18496 0.0
C127 C 0.42604 0.16667 0.17808 0.0
C128 C 0.42645 0.14886 0.14975 0.0
C129 C 0.44506 0.16223 0.12877 0.0
C130 C 0.46264 0.19315 0.13703 0.0
H131 H 0.44363 0.21114 0.2069 0.0
O132 O 0.53756 0.21345 0.22305 0.0
O133 O 0.52368 0.23794 0.18788 0.0
O134 O 0.50294 0.26493 0.24862 0.0
O135 O 0.47219 0.26565 0.20532 0.0
C136 C 0.44707 0.14595 0.10012 0.0
C137 C 0.46691 0.16045 0.08042 0.0
H138 H 0.50755 0.19633 0.04877 0.0
H139 H 0.53683 0.25141 0.06752 0.0
H140 H 0.41204 0.15648 0.1946 0.0
H141 H 0.41265 0.12487 0.14448 0.0
H142 H 0.43319 0.12236 0.09308 0.0
H143 H 0.4681 0.14755 0.05836 0.0
Mn144 Mn 0.11105 0.82326 0.13613 0.0
Mn145 Mn 0.05048 0.7988 0.07578 0.0
C146 C 0.09365 0.7691 0.1111 0.0
C147 C 0.16408 0.83318 0.16733 0.0
C148 C 0.04083 0.80832 0.14314 0.0
O149 O 0.10878 0.86751 0.12022 0.0
O150 O 0.06558 0.84637 0.08439 0.0
C151 C 0.07983 0.82162 0.02287 0.0
N152 N 0.06444 0.7976 0.03611 0.0
C153 C 0.05279 0.76307 0.98715 0.0
C154 C 0.0684 0.78745 0.97314 0.0
C155 C 0.08219 0.81679 0.99106 0.0
C156 C 0.05124 0.7692 0.01891 0.0
H157 H 0.08956 0.84447 0.03626 0.0
C158 C 0.08648 0.87095 0.09945 0.0
O159 O 0.14103 0.84047 0.17806 0.0
O160 O 0.15841 0.82563 0.1371 0.0
N161 N 0.0332 0.75494 0.06389 0.0
C162 C 1.01883 0.73377 0.08081 0.0
C163 C 1.00508 0.70296 0.06664 0.0
C164 C 1.00577 0.69426 0.03495 0.0
C165 C 0.02083 0.71638 0.01799 0.0
C166 C 0.03495 0.74657 0.03371 0.0
H167 H 1.0197 0.74002 0.10537 0.0
O168 O 0.10614 0.77815 0.13999 0.0
O169 O 0.08997 0.79214 0.09672 0.0
O170 O 0.06973 0.82099 0.1538 0.0
O171 O 0.03119 0.79771 0.1143 0.0
C172 C 0.02228 0.70968 0.98608 0.0
C173 C 0.03801 0.7331 0.97058 0.0
H174 H 0.06949 0.78385 0.94856 0.0
H175 H 0.09402 0.83579 0.98022 0.0
H176 H 0.99433 0.68597 0.08027 0.0
H177 H 0.9951 0.67051 0.02396 0.0
H178 H 1.0112 0.68667 0.9732 0.0
H179 H 0.0386 0.72783 0.9459 0.0
Mn180 Mn 0.5147 0.79094 0.48758 0.0
Mn181 Mn 0.51556 0.84435 0.43586 0.0
C182 C 0.46689 0.79171 0.45171 0.0
C183 C 0.52322 0.73961 0.50446 0.0
C184 C 0.5246 0.86475 0.50612 0.0
O185 O 0.56066 0.80472 0.47837 0.0
O186 O 0.55526 0.83323 0.43976 0.0
C187 C 0.51994 0.812 0.37434 0.0
N188 N 0.5051 0.82797 0.39242 0.0
C189 C 0.47392 0.83637 0.34716 0.0
C190 C 0.48869 0.81972 0.3281 0.0
C191 C 0.51172 0.80741 0.34174 0.0
C192 C 0.4832 0.8403 0.37941 0.0
H193 H 0.53818 0.80328 0.38474 0.0
C194 C 0.5708 0.81924 0.45632 0.0
O195 O 0.52695 0.76531 0.52289 0.0
O196 O 0.51359 0.743 0.47611 0.0
N197 N 0.478 0.85634 0.43008 0.0
C198 C 0.46219 0.86625 0.45175 0.0
C199 C 0.4375 0.87839 0.4425 0.0
C200 C 0.42857 0.8789 0.41074 0.0
C201 C 0.44394 0.86649 0.38868 0.0
C202 C 0.46878 0.85539 0.39952 0.0
H203 H 0.46733 0.8629 0.47537 0.0
O204 O 0.46542 0.77919 0.47696 0.0
O205 O 0.49541 0.80391 0.4485 0.0
O206 O 0.51868 0.83706 0.5138 0.0
O207 O 0.52684 0.86843 0.4782 0.0
C208 C 0.43456 0.8632 0.35636 0.0
C209 C 0.4497 0.8484 0.33555 0.0
H210 H 0.48239 0.81605 0.30297 0.0
H211 H 0.52334 0.7947 0.32713 0.0
H212 H 0.4248 0.88638 0.45964 0.0
H213 H 0.409 0.8875 0.40347 0.0
H214 H 0.41487 0.87083 0.34747 0.0
H215 H 0.44183 0.8455 0.3107 0.0
Mn216 Mn 0.61182 0.32255 0.63671 0.0
Mn217 Mn 0.55066 0.30415 0.57607 0.0
C218 C 0.59124 0.26898 0.60917 0.0
C219 C 0.66541 0.33305 0.66731 0.0
C220 C 0.54204 0.31232 0.64391 0.0
O221 O 0.61132 0.36798 0.62332 0.0
O222 O 0.56968 0.35092 0.58495 0.0
C223 C 0.58473 0.32278 0.52453 0.0
N224 N 0.56588 0.30043 0.53723 0.0
C225 C 0.55666 0.2638 0.49007 0.0
C226 C 0.57615 0.28638 0.47664 0.0
C227 C 0.5903 0.31596 0.49397 0.0
C228 C 0.55251 0.27169 0.52089 0.0
H229 H 0.59505 0.34577 0.53748 0.0
C230 C 0.59104 0.37366 0.60202 0.0
O231 O 0.64223 0.33938 0.67851 0.0
O232 O 0.65916 0.32488 0.63714 0.0
N233 N 0.5279 0.26142 0.56376 0.0
C234 C 0.50354 0.24526 0.57638 0.0
C235 C 0.48533 0.21594 0.56115 0.0
C236 C 0.49115 0.20418 0.53212 0.0
C237 C 0.51444 0.22221 0.51826 0.0
C238 C 0.5323 0.25109 0.53489 0.0
H239 H 0.49753 0.25483 0.59766 0.0
O240 O 0.6058 0.27639 0.63757 0.0
O241 O 0.58835 0.29343 0.59685 0.0
O242 O 0.57105 0.31991 0.65509 0.0
O243 O 0.53183 0.30596 0.61473 0.0
C244 C 0.519 0.21348 0.48764 0.0
C245 C 0.54018 0.23423 0.47358 0.0
H246 H 0.57993 0.28145 0.45283 0.0
H247 H 0.60504 0.33362 0.48357 0.0
H248 H 0.46633 0.20287 0.57137 0.0
H249 H 0.47662 0.18204 0.5198 0.0
H250 H 0.50551 0.19128 0.47432 0.0
H251 H 0.54283 0.22758 0.4497 0.0
Mn252 Mn 1.01402 0.29164 0.98512 0.0
Mn253 Mn 1.00752 0.34087 0.9309 0.0
C254 C 0.96397 0.28787 0.94984 0.0
C255 C 0.02385 0.24079 1.00216 0.0
C256 C 1.02023 0.36484 1.00044 0.0
O257 O 0.06001 0.30839 0.97447 0.0
O258 O 0.04784 0.33299 0.9348 0.0
C259 C 1.01531 0.31225 0.86967 0.0
N260 N 0.99745 0.32416 0.8878 0.0
C261 C 0.96813 0.33542 0.84301 0.0
C262 C 0.98561 0.32241 0.82379 0.0
C263 C 1.00929 0.31077 0.83719 0.0
C264 C 0.97504 0.33603 0.87513 0.0
H265 H 0.03453 0.30475 0.88004 0.0
C266 C 0.06727 0.32338 0.95162 0.0
O267 O 0.02702 0.26636 0.02064 0.0
O268 O 1.01501 0.24437 0.97373 0.0
N269 N 0.96842 0.35007 0.92596 0.0
C270 C 0.95272 0.36022 0.94781 0.0
C271 C 0.92812 0.37248 0.93847 0.0
C272 C 0.91989 0.37386 0.9068 0.0
C273 C 0.93564 0.36193 0.88477 0.0
C274 C 0.95953 0.34959 0.89544 0.0
H275 H 0.95938 0.35947 0.97219 0.0
O276 O 0.96435 0.27702 0.97603 0.0
O277 O 0.9917 0.30107 0.94546 0.0
O278 O 1.01692 0.33841 1.01074 0.0
O279 O 1.01904 0.36521 0.97175 0.0
C280 C 0.92823 0.36133 0.85262 0.0
C281 C 0.9445 0.34829 0.83167 0.0
H282 H 0.98128 0.32152 0.79877 0.0
H283 H 0.02327 0.30126 0.82255 0.0
H284 H 0.91577 0.38105 0.95562 0.0
H285 H 0.90106 0.3835 0.89959 0.0
H286 H 0.90968 0.37045 0.84404 0.0
H287 H 0.93855 0.34815 0.80692 0.0
Mn288 Mn 0.41211 0.03306 0.34287 0.0
Mn289 Mn 0.35889 0.01702 0.39141 0.0
C290 C 0.39371 0.98505 0.35232 0.0
C291 C 0.42912 0.03069 0.29483 0.0
C292 C 0.42715 0.05069 0.41305 0.0
O293 O 0.39185 0.06656 0.33869 0.0
O294 O 0.35792 0.05597 0.37353 0.0
C295 C 0.29506 0.00901 0.35832 0.0
N296 N 0.31646 0.99638 0.37205 0.0
C297 C 0.27615 0.94897 0.37159 0.0
C298 C 0.25456 0.96061 0.35472 0.0
C299 C 0.26394 0.99099 0.34855 0.0
C300 C 0.30689 0.96808 0.3806 0.0
H301 H 0.3013 0.03312 0.35641 0.0
C302 C 0.36993 0.07139 0.35272 0.0
O303 O 0.4463 0.04914 0.3193 0.0
O304 O 0.40072 0.01636 0.29737 0.0
N305 N 0.35786 0.97846 0.40608 0.0
C306 C 0.3821 0.96904 0.41925 0.0
C307 C 0.37644 0.93952 0.42788 0.0
C308 C 0.34601 0.91941 0.42184 0.0
C309 C 0.32177 0.9287 0.40628 0.0
C310 C 0.3289 0.95848 0.39831 0.0
H311 H 0.40578 0.98344 0.42182 0.0
O312 O 0.4229 0.99559 0.34966 0.0
O313 O 0.3776 1.00478 0.35554 0.0
O314 O 0.43424 0.05349 0.38626 0.0
O315 O 0.39988 0.03693 0.41727 0.0
C316 C 0.29099 0.90927 0.39766 0.0
C317 C 0.26818 0.91938 0.38031 0.0
H318 H 0.23049 0.94683 0.34737 0.0
H319 H 0.24702 1.00081 0.33709 0.0
H320 H 0.39558 0.9321 0.43867 0.0
H321 H 0.34176 0.89656 0.42827 0.0
H322 H 0.2846 0.88653 0.40425 0.0
H323 H 0.24458 0.90421 0.3738 0.0
Mn324 Mn 0.27589 0.23045 0.54824 0.0
Mn325 Mn 0.26005 0.1705 0.48884 0.0
C326 C 0.22414 0.19802 0.53019 0.0
C327 C 0.28391 0.2505 0.6035 0.0
C328 C 0.2829 0.23765 0.47847 0.0
O329 O 0.31799 0.21876 0.55031 0.0
O330 O 0.3021 0.17698 0.51229 0.0
C331 C 0.26059 0.11632 0.51985 0.0
N332 N 0.24467 0.13151 0.50201 0.0
C333 C 0.19861 0.088 0.49163 0.0
C334 C 0.2144 0.07205 0.51022 0.0
C335 C 0.24559 0.08622 0.52423 0.0
C336 C 0.21494 0.11775 0.48769 0.0
H337 H 0.28462 0.12699 0.53052 0.0
C338 C 0.32242 0.19476 0.53461 0.0
O339 O 0.29283 0.26797 0.58302 0.0
O340 O 0.2721 0.22149 0.59227 0.0
N341 N 0.21881 0.16279 0.46634 0.0
C342 C 0.20674 0.18163 0.44974 0.0
C343 C 0.1755 0.17124 0.43486 0.0
C344 C 0.15707 0.14158 0.43711 0.0
C345 C 0.16997 0.1227 0.4545 0.0
C346 C 0.20116 0.13441 0.46904 0.0
H347 H 0.22075 0.20449 0.44806 0.0
O348 O 0.22895 0.22654 0.54293 0.0
O349 O 0.24934 0.19103 0.52577 0.0
O350 O 0.28271 0.25022 0.50653 0.0
O351 O 0.27558 0.20843 0.47085 0.0
C352 C 0.15297 0.09294 0.45842 0.0
C353 C 0.16734 0.07552 0.47681 0.0
H354 H 0.20285 0.04889 0.51381 0.0
H355 H 0.25802 0.07397 0.5384 0.0
H356 H 0.16564 0.18606 0.42173 0.0
H357 H 0.13297 0.13367 0.42565 0.0
H358 H 0.12879 0.08325 0.44748 0.0
H359 H 0.15407 0.05261 0.47954 0.0
Mn360 Mn 0.13934 0.08996 0.81217 0.0
Mn361 Mn 0.20064 0.10732 0.87129 0.0
C362 C 0.17091 0.14162 0.82977 0.0
C363 C 0.11844 0.08042 0.75687 0.0
C364 C 0.13311 0.08266 0.88198 0.0
O365 O 0.1522 0.04906 0.81092 0.0
O366 O 0.19554 0.06616 0.84782 0.0
C367 C 0.25486 0.11009 0.83864 0.0
N368 N 0.23948 0.12435 0.85782 0.0
C369 C 0.28226 0.17097 0.86871 0.0
C370 C 0.29848 0.15685 0.84891 0.0
C371 C 0.28472 0.12627 0.83384 0.0
C372 C 0.25267 0.15363 0.87275 0.0
H373 H 0.24454 0.08647 0.82731 0.0
C374 C 0.17704 0.04547 0.82633 0.0
O375 O 0.10127 0.07166 0.77773 0.0
O376 O 0.1477 0.09334 0.76779 0.0
N377 N 0.20711 0.14758 0.89437 0.0
C378 C 0.18813 0.15794 0.9123 0.0
C379 C 0.19826 0.18823 0.92871 0.0
C380 C 0.22778 0.20751 0.92654 0.0
C381 C 0.24682 0.19637 0.9078 0.0
C382 C 0.23548 0.16596 0.89202 0.0
H383 H 0.16542 0.14324 0.91407 0.0
O384 O 0.14196 0.13605 0.81685 0.0
O385 O 0.17888 0.11719 0.83438 0.0
O386 O 0.11999 0.08315 0.85413 0.0
O387 O 0.16273 0.09021 0.88934 0.0
C388 C 0.2765 0.2143 0.90398 0.0
C389 C 0.29425 0.20157 0.88453 0.0
H390 H 0.32152 0.16924 0.84514 0.0
H391 H 0.29719 0.11515 0.81871 0.0
H392 H 0.18331 0.19673 0.94293 0.0
H393 H 0.23546 0.23091 0.93913 0.0
H394 H 0.28588 0.23793 0.91583 0.0
H395 H 0.31705 0.21558 0.88179 0.0
Mn396 Mn 0.32891 0.94371 0.01426 0.0
Mn397 Mn 0.34233 0.99965 0.96842 0.0
C398 C 0.3783 0.96911 1.00919 0.0
C399 C 0.32352 0.92404 0.06012 0.0
C400 C 0.31451 0.9317 0.94404 0.0
O401 O 0.28935 0.95638 1.01119 0.0
O402 O 0.30282 0.99773 0.98573 0.0
C403 C 0.34836 0.06086 1.00446 0.0
N404 N 0.36182 0.04134 0.98898 0.0
C405 C 0.40642 0.08396 0.98621 0.0
C406 C 0.39357 0.10406 1.00343 0.0
C407 C 0.3643 0.0925 0.01236 0.0
C408 C 0.38925 0.05271 0.97872 0.0
H409 H 0.32507 0.05263 1.00964 0.0
C410 C 0.28481 0.98035 1.00127 0.0
O411 O 0.31154 0.90716 0.03326 0.0
O412 O 0.33676 0.95329 0.06071 0.0
N413 N 0.38127 1.00284 0.95337 0.0
C414 C 0.39234 0.97989 0.94065 0.0
C415 C 0.42158 0.98725 0.93069 0.0
C416 C 0.43984 0.01815 0.9353 0.0
C417 C 0.42916 0.04112 0.95093 0.0
C418 C 0.39973 0.03221 0.96021 0.0
H419 H 0.38001 0.9561 0.94053 0.0
O420 O 0.37226 0.94124 0.01583 0.0
O421 O 0.35532 0.98097 1.00432 0.0
O422 O 0.31728 0.92243 0.96996 0.0
O423 O 0.32266 0.95991 0.94097 0.0
C424 C 0.44699 0.07228 0.95861 0.0
C425 C 0.43542 0.09379 0.97588 0.0
H426 H 0.40573 0.12847 1.00948 0.0
H427 H 0.35373 0.10805 0.02475 0.0
H428 H 0.43046 0.96906 0.92056 0.0
H429 H 0.46261 0.02377 0.92806 0.0
H430 H 0.46969 0.07991 0.95154 0.0
H431 H 0.44919 0.11778 0.98141 0.0
Mn432 Mn 0.33224 0.39044 0.07057 0.0
Mn433 Mn 0.34278 0.44197 0.01864 0.0
C434 C 0.38278 0.42398 0.06893 0.0
C435 C 0.31981 0.37396 0.12038 0.0
C436 C 0.32684 0.37248 0.99883 0.0
O437 O 0.28834 0.39699 0.05857 0.0
O438 O 0.30138 0.43719 0.03171 0.0
C439 C 0.34156 0.50235 0.05132 0.0
N440 N 0.35737 0.48479 0.03651 0.0
C441 C 0.39752 0.53027 0.03128 0.0
C442 C 0.38185 0.5487 0.04692 0.0
C443 C 0.35377 0.53467 0.05699 0.0
C444 C 0.38423 0.49817 0.02628 0.0
H445 H 0.31943 0.49183 0.05807 0.0
C446 C 0.28219 0.41913 0.0454 0.0
O447 O 0.31617 0.355 0.09481 0.0
O448 O 0.33055 0.40283 0.11736 0.0
N449 N 0.38268 0.44836 1.00503 0.0
C450 C 0.39443 0.42753 0.98915 0.0
C451 C 0.42272 0.43777 0.97793 0.0
C452 C 0.43841 0.46944 0.98257 0.0
C453 C 0.42578 0.49051 0.9987 0.0
C454 C 0.39778 0.47884 1.00991 0.0
H455 H 0.38232 0.40332 0.98493 0.0
O456 O 0.37962 0.39847 0.08049 0.0
O457 O 0.35677 0.42902 0.05834 0.0
O458 O 0.33035 0.36505 0.02616 0.0
O459 O 0.32795 0.39988 0.99472 0.0
C460 C 0.43977 0.52267 1.00391 0.0
C461 C 0.42556 0.54254 0.02004 0.0
H462 H 0.39106 0.57363 0.05115 0.0
H463 H 0.3413 0.54878 0.06869 0.0
H464 H 0.4322 0.4213 0.96542 0.0
H465 H 0.46008 0.47731 0.97362 0.0
H466 H 0.46137 0.53236 0.99547 0.0
H467 H 0.43637 0.56726 0.02363 0.0
Mn468 Mn 0.7983 0.18863 0.12005 0.0
Mn469 Mn 0.7629 0.12933 0.0601 0.0
C470 C 0.74598 0.16461 0.11151 0.0
C471 C 0.8196 0.20888 0.17006 0.0
C472 C 0.7897 0.19732 0.05388 0.0
O473 O 0.83534 0.17575 0.10587 0.0
O474 O 0.80171 0.13027 0.08698 0.0
C475 C 0.73984 0.05029 0.08784 0.0
N476 N 0.73214 0.06835 0.06779 0.0
C477 C 0.68465 0.025 0.04 0.0
C478 C 0.69399 1.0077 0.06204 0.0
C479 C 0.72077 0.01993 0.08516 0.0
C480 C 0.70236 0.05501 0.04101 0.0
H481 H 0.76045 0.05912 0.10548 0.0
C482 C 0.82901 0.14872 0.09024 0.0
O483 O 0.82482 0.22499 0.14781 0.0
O484 O 0.80595 0.17936 0.16279 0.0
N485 N 0.70557 0.11058 1.01087 0.0
C486 C 0.69027 0.12664 0.99427 0.0
C487 C 0.66082 0.11084 0.97718 0.0
C488 C 0.64751 0.07885 0.97623 0.0
C489 C 0.66166 0.06105 0.99434 0.0
C490 C 0.68949 0.07536 0.01316 0.0
H491 H 0.70001 0.15126 0.99531 0.0
O492 O 0.75605 0.19179 0.12795 0.0
O493 O 0.76573 0.15212 0.10168 0.0
O494 O 0.79394 0.20876 0.08228 0.0
O495 O 0.7816 0.16831 0.04426 0.0
C496 C 0.64803 0.02971 0.99487 0.0
C497 C 0.6583 0.01258 0.01672 0.0
H498 H 0.68033 0.98404 0.0614 0.0
H499 H 0.72684 1.00535 0.10125 0.0
H500 H 0.64765 0.12358 0.96479 0.0
H501 H 0.62483 0.06839 0.96228 0.0
H502 H 0.62918 0.0177 0.9771 0.0
H503 H 0.64499 0.98864 0.01515 0.0
Mn504 Mn 0.19955 0.59172 0.25533 0.0
Mn505 Mn 0.26107 0.62605 0.31251 0.0
C506 C 0.21345 0.64355 0.26828 0.0
C507 C 0.17986 0.57323 0.20394 0.0
C508 C 0.19552 0.59956 0.32469 0.0
O509 O 0.21866 0.55711 0.26104 0.0
O510 O 0.25893 0.58306 0.29837 0.0
C511 C 0.31123 0.62529 0.2747 0.0
N512 N 0.29798 0.64101 0.29491 0.0
C513 C 0.34552 0.68251 0.30955 0.0
C514 C 0.35966 0.667 0.28866 0.0
C515 C 0.34226 0.6385 0.27075 0.0
C516 C 0.31384 0.66931 0.31075 0.0
H517 H 0.29846 0.60251 0.26241 0.0
C518 C 0.24277 0.55876 0.2801 0.0
O519 O 0.16441 0.56343 0.22571 0.0
O520 O 0.20792 0.5916 0.2121 0.0
N521 N 0.26834 0.66775 0.33174 0.0
C522 C 0.25318 0.67717 0.3545 0.0
C523 C 0.26817 0.7036 0.37642 0.0
C524 C 0.29921 0.71973 0.37578 0.0
C525 C 0.31491 0.70911 0.35303 0.0
C526 C 0.29844 0.6831 0.33098 0.0
H527 H 0.22985 0.66421 0.35642 0.0
O528 O 0.18615 0.62895 0.25277 0.0
O529 O 0.23346 0.62786 0.27425 0.0
O530 O 0.1826 0.58869 0.29649 0.0
O531 O 0.22469 0.61245 0.33285 0.0
C532 C 0.347 0.72185 0.35313 0.0
C533 C 0.36216 0.70924 0.33085 0.0
H534 H 0.38406 0.67635 0.28679 0.0
H535 H 0.35314 0.62616 0.25491 0.0
H536 H 0.25614 0.71049 0.39459 0.0
H537 H 0.31108 0.73954 0.39351 0.0
H538 H 0.36038 0.74042 0.37125 0.0
H539 H 0.38697 0.71926 0.33141 0.0
Mn540 Mn 0.83607 0.89439 0.57285 0.0
Mn541 Mn 0.84917 0.94847 0.52379 0.0
C542 C 0.88742 0.92641 0.57157 0.0
C543 C 0.82443 0.87718 0.62263 0.0
C544 C 0.82999 0.87927 0.50067 0.0
O545 O 0.79301 0.90338 0.56219 0.0
O546 O 0.80759 0.94366 0.53578 0.0
C547 C 0.84926 1.00738 0.56052 0.0
N548 N 0.86432 0.99046 0.54375 0.0
C549 C 0.904 0.03632 0.53886 0.0
C550 C 0.88909 0.05419 0.55639 0.0
C551 C 0.8617 0.03965 0.56739 0.0
C552 C 0.89075 1.00426 0.53308 0.0
H553 H 0.82758 0.99636 0.568 0.0
C554 C 0.78766 0.92565 0.54865 0.0
O555 O 0.81873 0.8587 0.59635 0.0
O556 O 0.83641 0.90599 0.62016 0.0
N557 N 0.88883 0.95487 0.51006 0.0
C558 C 0.89963 0.93443 0.49232 0.0
C559 C 0.92699 0.9452 0.47973 0.0
C560 C 0.94255 0.97695 0.48479 0.0
C561 C 0.93076 0.99756 0.50276 0.0
C562 C 0.90377 0.98538 0.51532 0.0
H563 H 0.88742 0.91011 0.48763 0.0
O564 O 0.88325 0.90004 0.58161 0.0
O565 O 0.86202 0.93299 0.56207 0.0
O566 O 0.83184 0.86974 0.52715 0.0
O567 O 0.83423 0.9076 0.49873 0.0
C568 C 0.94448 0.02976 0.50833 0.0
C569 C 0.9311 0.04912 0.52635 0.0
H570 H 0.89837 0.07911 0.56138 0.0
H571 H 0.8499 0.05334 0.58065 0.0
H572 H 0.9358 0.92913 0.46576 0.0
H573 H 0.96343 0.98524 0.4747 0.0
H574 H 0.96515 0.03988 0.49866 0.0
H575 H 0.94167 0.07387 0.53022 0.0
Mn576 Mn 0.97421 0.03216 0.28861 0.0
Mn577 Mn 0.92119 0.01752 0.33898 0.0
C578 C 0.94041 0.98096 0.28745 0.0
C579 C 0.99126 0.04572 0.23924 0.0
C580 C 0.99129 0.03594 0.36027 0.0
O581 O 0.96718 0.07514 0.30298 0.0
O582 O 0.92631 0.05919 0.3287 0.0
C583 C 0.86064 0.01845 0.30456 0.0
N584 N 0.87814 1.00341 0.32068 0.0
C585 C 0.83223 0.96352 0.32553 0.0
C586 C 0.81373 0.97838 0.30861 0.0
C587 C 0.828 1.00588 0.29799 0.0
C588 C 0.86459 0.97704 0.33124 0.0
H589 H 0.87153 0.04007 0.29723 0.0
C590 C 0.94547 0.08018 0.31796 0.0
O591 O 1.01019 0.0503 0.26523 0.0
O592 O 0.96213 0.03404 0.24181 0.0
N593 N 0.91512 0.97755 0.35077 0.0
C594 C 0.93659 0.96508 0.36474 0.0
C595 C 0.92641 0.93673 0.37533 0.0
C596 C 0.89428 0.92175 0.37187 0.0
C597 C 0.87267 0.9351 0.35741 0.0
C598 C 0.88425 0.96322 0.34699 0.0
H599 H 0.96126 0.97669 0.36785 0.0
O600 O 0.96689 0.98538 0.27704 0.0
O601 O 0.93499 1.00609 0.29918 0.0
O602 O 0.99983 0.03411 0.33332 0.0
O603 O 0.96299 0.03186 0.36346 0.0
C604 C 0.84014 0.92141 0.35249 0.0
C605 C 0.81991 0.93565 0.33666 0.0
H606 H 0.78856 0.96885 0.3036 0.0
H607 H 0.81381 0.01758 0.28514 0.0
H608 H 0.94326 0.92658 0.38638 0.0
H609 H 0.88648 0.89992 0.38017 0.0
H610 H 0.83049 0.89972 0.36037 0.0
H611 H 0.79495 0.92473 0.33275 0.0
Mn612 Mn 0.29512 0.67673 0.61241 0.0
Mn613 Mn 0.25588 0.6268 0.54844 0.0
C614 C 0.24197 0.6628 0.60157 0.0
C615 C 0.31328 0.69138 0.66421 0.0
C616 C 0.28549 0.69401 0.54807 0.0
O617 O 0.32828 0.65626 0.60194 0.0
O618 O 0.29974 0.62832 0.55707 0.0
C619 C 0.25935 0.5738 0.58085 0.0
N620 N 0.2431 0.58727 0.56129 0.0
C621 C 0.19802 0.54309 0.55267 0.0
C622 C 0.21499 0.52775 0.57077 0.0
C623 C 0.24556 0.54351 0.58564 0.0
C624 C 0.21273 0.57362 0.54974 0.0
H625 H 0.28262 0.58615 0.59271 0.0
C626 C 0.32482 0.63767 0.57673 0.0
O627 O 0.32465 0.7081 0.64406 0.0
O628 O 0.29458 0.66389 0.65397 0.0
N629 N 0.2123 0.62115 0.53523 0.0
C630 C 0.1991 0.63904 0.51828 0.0
C631 C 0.16821 0.62722 0.50268 0.0
C632 C 0.1516 0.59653 0.50322 0.0
C633 C 0.16598 0.57809 0.51971 0.0
C634 C 0.19661 0.5913 0.53526 0.0
H635 H 0.21228 0.66184 0.51585 0.0
O636 O 0.25671 0.6894 0.61812 0.0
O637 O 0.25833 0.6458 0.59101 0.0
O638 O 0.30038 0.69969 0.57563 0.0
O639 O 0.26713 0.66769 0.53523 0.0
C640 C 0.15156 0.54673 0.52029 0.0
C641 C 0.16715 0.52939 0.53741 0.0
H642 H 0.20453 0.50421 0.57402 0.0
H643 H 0.25847 0.53232 0.60063 0.0
H644 H 0.15765 0.64147 0.48947 0.0
H645 H 0.12811 0.58717 0.49042 0.0
H646 H 0.12864 0.53569 0.50743 0.0
H647 H 0.15536 0.50548 0.53828 0.0
Mn648 Mn 0.47481 0.5288 0.78762 0.0
Mn649 Mn 0.42158 0.51829 0.83854 0.0
C650 C 0.44175 0.47875 0.79038 0.0
C651 C 0.4917 0.53907 0.73738 0.0
C652 C 0.49162 0.53434 0.86 0.0
O653 O 0.46803 0.57232 0.79841 0.0
O654 O 0.4287 0.55974 0.82674 0.0
C655 C 0.36389 0.51997 0.79914 0.0
N656 N 0.3793 0.50497 0.81768 0.0
C657 C 0.33161 0.46568 0.8187 0.0
C658 C 0.31523 0.48068 0.79953 0.0
C659 C 0.33147 0.50781 0.78953 0.0
C660 C 0.36395 0.4786 0.82708 0.0
H661 H 0.37623 0.54123 0.79206 0.0
C662 C 0.44691 0.57887 0.81327 0.0
O663 O 0.51073 0.54402 0.76336 0.0
O664 O 0.46247 0.5287 0.74031 0.0
N665 N 0.41259 0.47892 0.85242 0.0
C666 C 0.43156 0.46786 0.87187 0.0
C667 C 0.41895 0.44103 0.88424 0.0
C668 C 0.38678 0.4261 0.87704 0.0
C669 C 0.36757 0.43818 0.85747 0.0
C670 C 0.38154 0.46494 0.84568 0.0
H671 H 0.45608 0.47957 0.8782 0.0
O672 O 0.46772 0.48198 0.77922 0.0
O673 O 0.43602 0.50436 0.79991 0.0
O674 O 0.49987 0.53253 0.83287 0.0
O675 O 0.46349 0.53136 0.86385 0.0
C676 C 0.33503 0.4249 0.84946 0.0
C677 C 0.31709 0.43855 0.82996 0.0
H678 H 0.2902 0.47154 0.79231 0.0
H679 H 0.31896 0.51951 0.77476 0.0
H680 H 0.43393 0.43211 0.89963 0.0
H681 H 0.37707 0.40551 0.88678 0.0
H682 H 0.32359 0.40419 0.85816 0.0
H683 H 0.2921 0.42809 0.82391 0.0
Mn684 Mn 0.69939 0.08817 0.76259 0.0
Mn685 Mn 0.7604 0.12187 0.8206 0.0
C686 C 0.7226 0.13929 0.7693 0.0
C687 C 0.6762 0.06509 0.71327 0.0
C688 C 0.6937 0.10367 0.8302 0.0
O689 O 0.71353 0.05207 0.77392 0.0
O690 O 0.75575 0.07764 0.81033 0.0
C691 C 0.81497 0.11472 0.79177 0.0
N692 N 0.80003 0.13296 0.80692 0.0
C693 C 0.84826 0.17292 0.82538 0.0
C694 C 0.86421 0.15482 0.80968 0.0
C695 C 0.84738 0.12587 0.79222 0.0
C696 C 0.81578 0.1616 0.82219 0.0
H697 H 0.80235 0.09159 0.78027 0.0
C698 C 0.73738 0.05325 0.79339 0.0
O699 O 0.66151 0.06137 0.73682 0.0
O700 O 0.70587 0.07982 0.71883 0.0
N701 N 0.76761 0.16512 0.83347 0.0
C702 C 0.74853 0.18022 0.8462 0.0
C703 C 0.76145 0.20993 0.8636 0.0
C704 C 0.79396 0.22318 0.86875 0.0
C705 C 0.81296 0.20718 0.85514 0.0
C706 C 0.79857 0.17854 0.8365 0.0
H707 H 0.7237 0.16946 0.84342 0.0
O708 O 0.69408 0.12853 0.75472 0.0
O709 O 0.73688 0.12016 0.77918 0.0
O710 O 0.68164 0.09279 0.80215 0.0
O711 O 0.72285 0.11321 0.8395 0.0
C712 C 0.84571 0.21757 0.86086 0.0
C713 C 0.86339 0.20077 0.84566 0.0
H714 H 0.88938 0.1627 0.81126 0.0
H715 H 0.85959 0.11163 0.78029 0.0
H716 H 0.74655 0.22207 0.87398 0.0
H717 H 0.80412 0.24548 0.88329 0.0
H718 H 0.85733 0.23763 0.87798 0.0
H719 H 0.88856 0.20869 0.8507 0.0
Mn720 Mn 0.77521 0.72762 0.04803 0.0
Mn721 Mn 0.76209 0.67034 0.98628 0.0
C722 C 0.72435 0.69325 0.02974 0.0
C723 C 0.78355 0.74757 0.10289 0.0
C724 C 0.78126 0.7385 0.97969 0.0
O725 O 0.81806 0.71816 0.04951 0.0
O726 O 0.80443 0.67781 1.00977 0.0
C727 C 0.76819 0.61261 1.00676 0.0
N728 N 0.74969 0.62866 0.99369 0.0
C729 C 0.71017 0.58145 0.97046 0.0
C730 C 0.72852 0.56457 0.98433 0.0
C731 C 0.75767 0.58022 1.0025 0.0
C732 C 0.72191 0.61369 0.97545 0.0
H733 H 0.79112 0.62437 0.01979 0.0
C734 C 0.82378 0.6954 0.03298 0.0
O735 O 0.79094 0.76518 0.08222 0.0
O736 O 0.77258 0.71831 0.09215 0.0
N737 N 0.7208 0.66192 0.96387 0.0
C738 C 0.70651 0.68174 0.95155 0.0
C739 C 0.6766 0.67002 0.93361 0.0
C740 C 0.66202 0.63803 0.92817 0.0
C741 C 0.67709 0.61822 0.94158 0.0
C742 C 0.7063 0.63143 0.96029 0.0
H743 H 0.71782 0.70628 0.95546 0.0
O744 O 0.7282 0.7216 0.04263 0.0
O745 O 0.74997 0.68702 0.02492 0.0
O746 O 0.7814 0.74998 1.00799 0.0
O747 O 0.77487 0.70967 0.97151 0.0
C748 C 0.66451 0.58588 0.93681 0.0
C749 C 0.68124 0.56748 0.95089 0.0
H750 H 0.72071 0.53956 0.98073 0.0
H751 H 0.77227 0.56732 0.01273 0.0
H752 H 0.66502 0.68552 0.92367 0.0
H753 H 0.63924 0.62897 0.91375 0.0
H754 H 0.64221 0.5749 0.92198 0.0
H755 H 0.67171 0.54257 0.9464 0.0
Mn756 Mn 0.90837 0.5286 0.84477 0.0
Mn757 Mn 0.85572 0.51374 0.8931 0.0
C758 C 0.89019 0.48085 0.85466 0.0
C759 C 0.92581 0.52572 0.79679 0.0
C760 C 0.92399 0.54669 0.91477 0.0
O761 O 0.88776 0.56172 0.83953 0.0
O762 O 0.85582 0.5534 0.87602 0.0
C763 C 0.79424 0.50461 0.85359 0.0
N764 N 0.81349 0.49375 0.87287 0.0
C765 C 0.77088 0.44954 0.87635 0.0
C766 C 0.75057 0.46087 0.85731 0.0
C767 C 0.76235 0.48838 0.84568 0.0
C768 C 0.80233 0.467 0.88389 0.0
H769 H 0.80329 0.5251 0.84378 0.0
C770 C 0.86722 0.56836 0.85467 0.0
O771 O 0.94245 0.54481 0.82111 0.0
O772 O 0.89766 0.51068 0.79943 0.0
N773 N 0.85327 0.47532 0.90837 0.0
C774 C 0.87663 0.46525 0.92242 0.0
C775 C 0.86939 0.43666 0.93312 0.0
C776 C 0.83821 0.41838 0.92873 0.0
C777 C 0.81477 0.42838 0.91263 0.0
C778 C 0.82353 0.457 0.90226 0.0
H779 H 0.90071 0.47857 0.92459 0.0
O780 O 0.9197 0.4918 0.8532 0.0
O781 O 0.87388 0.5004 0.85746 0.0
O782 O 0.93043 0.55031 0.8879 0.0
O783 O 0.89688 0.53261 0.91917 0.0
C784 C 0.78318 0.41076 0.90582 0.0
C785 C 0.76119 0.42146 0.88789 0.0
H786 H 0.72602 0.44834 0.85099 0.0
H787 H 0.74693 0.49695 0.83045 0.0
H788 H 0.88782 0.42863 0.9445 0.0
H789 H 0.83267 0.39633 0.93699 0.0
H790 H 0.77563 0.38878 0.91392 0.0
H791 H 0.737 0.40761 0.88261 0.0
Mn792 Mn 0.82797 0.43976 0.51022 0.0
Mn793 Mn 0.84703 0.50104 0.47217 0.0
C794 C 0.87846 0.46246 0.50692 0.0
C795 C 0.81785 0.41632 0.55269 0.0
C796 C 0.81826 0.43576 0.44134 0.0
O797 O 0.78988 0.45504 0.50725 0.0
O798 O 0.80889 0.50065 0.49082 0.0
C799 C 0.86215 0.555 0.52254 0.0
N800 N 0.87108 0.53823 0.49932 0.0
C801 C 0.92009 0.57758 0.5037 0.0
C802 C 0.91135 0.5952 0.52763 0.0
C803 C 0.88233 0.58381 0.53717 0.0
C804 C 0.89916 0.54892 0.49016 0.0
H805 H 0.83965 0.54663 0.52959 0.0
C806 C 0.78868 0.48203 0.50315 0.0
O807 O 0.80658 0.40178 0.5247 0.0
O808 O 0.83313 0.44547 0.55626 0.0
N809 N 0.88447 0.50356 0.45428 0.0
C810 C 0.88924 0.48449 0.43 0.0
C811 C 0.91741 0.49235 0.41812 0.0
C812 C 0.94012 0.52031 0.43053 0.0
C813 C 0.93448 0.54006 0.45486 0.0
C814 C 0.9062 0.53062 0.4663 0.0
H815 H 0.87156 0.46367 0.41926 0.0
O816 O 0.87043 0.43431 0.51259 0.0
O817 O 0.85701 0.47632 0.50359 0.0
O818 O 0.81965 0.42356 0.46552 0.0
O819 O 0.82392 0.46459 0.44093 0.0
C820 C 0.95578 0.56882 0.4681 0.0
C821 C 0.94858 0.58758 0.49249 0.0
H822 H 0.92667 0.61758 0.53875 0.0
H823 H 0.87538 0.59738 0.55554 0.0
H824 H 0.92136 0.47711 0.39904 0.0
H825 H 0.96168 0.5265 0.42105 0.0
H826 H 0.97772 0.57675 0.45964 0.0
H827 H 0.9651 0.60973 0.50239 0.0
Mn828 Mn 0.63918 0.5921 0.31347 0.0
Mn829 Mn 0.70065 0.60693 0.3719 0.0
C830 C 0.67215 0.64348 0.33219 0.0
C831 C 0.61782 0.58317 0.25849 0.0
C832 C 0.63299 0.5825 0.38212 0.0
O833 O 0.65072 0.55021 0.3115 0.0
O834 O 0.69561 0.5673 0.34608 0.0
C835 C 0.75452 0.61289 0.3382 0.0
N836 N 0.7395 0.6254 0.35916 0.0
C837 C 0.78337 0.67079 0.37462 0.0
C838 C 0.79929 0.65845 0.35311 0.0
C839 C 0.78474 0.62943 0.33473 0.0
C840 C 0.75317 0.65342 0.37676 0.0
H841 H 0.74363 0.59032 0.32449 0.0
C842 C 0.67642 0.54666 0.32521 0.0
O843 O 0.60052 0.57576 0.27957 0.0
O844 O 0.64741 0.59458 0.26899 0.0
N845 N 0.70724 0.64574 0.3979 0.0
C846 C 0.68893 0.65406 0.41798 0.0
C847 C 0.70029 0.68218 0.43853 0.0
C848 C 0.73044 0.70131 0.43842 0.0
C849 C 0.74879 0.69233 0.41743 0.0
C850 C 0.7362 0.66406 0.39747 0.0
H851 H 0.66599 0.63922 0.41866 0.0
O852 O 0.64351 0.6387 0.31877 0.0
O853 O 0.67912 0.61846 0.33608 0.0
O854 O 0.61998 0.58562 0.35522 0.0
O855 O 0.66253 0.58817 0.38889 0.0
C856 C 0.77921 0.71016 0.41577 0.0
C857 C 0.79645 0.69944 0.39432 0.0
H858 H 0.82275 0.67097 0.35064 0.0
H859 H 0.79695 0.61967 0.31823 0.0
H860 H 0.68595 0.68896 0.4546 0.0
H861 H 0.7392 0.72291 0.45442 0.0
H862 H 0.7896 0.73211 0.43094 0.0
H863 H 0.81986 0.71332 0.39332 0.0
Dy864 Dy 0.09014 0.07488 0.07202 0.0
Dy865 Dy 0.02282 0.04199 0.04008 0.0
C866 C 0.07647 0.05688 0.99641 0.0
O867 O 0.07586 0.11694 0.05417 0.0
O868 O 0.02369 0.09424 0.04234 0.0
O869 O 0.13512 0.10807 0.07387 0.0
O870 O 0.12847 0.07818 0.10861 0.0
O871 O 1.01821 0.04492 0.09134 0.0
O872 O 0.06408 0.08022 0.11333 0.0
O873 O 0.0414 0.9985 0.0461 0.0
O874 O 0.08697 0.02373 0.0783 0.0
O875 O 0.97634 0.01334 0.04189 0.0
O876 O 0.98532 0.03393 1.00109 0.0
C877 C 0.0475 0.11953 0.04415 0.0
O878 O 0.09623 0.05955 0.02213 0.0
O879 O 0.04661 0.05144 0.998 0.0
C880 C 0.17196 0.08044 0.08387 0.0
C881 C 0.2072 0.04191 0.0623 0.0
C882 C 0.18909 0.05353 0.04117 0.0
C883 C 0.17177 0.07261 0.05178 0.0
C884 C 0.19033 0.06909 0.10518 0.0
C885 C 0.20791 0.04995 0.09447 0.0
C886 C 0.1486 0.09511 0.0943 0.0
C887 C 0.03642 0.06243 0.11632 0.0
C888 C 0.06644 0.99687 0.06533 0.0
C889 C 0.94435 0.0429 0.02497 0.0
C890 C 0.90996 0.08428 0.03977 0.0
C891 C 0.93882 0.08758 0.05765 0.0
C892 C 0.9556 0.06685 0.0506 0.0
C893 C 0.91588 0.04013 1.0062 0.0
C894 C 0.89842 0.06056 0.01391 0.0
C895 C 0.9643 0.02299 0.01785 0.0
H896 H 0.18845 0.04801 0.01628 0.0
H897 H 0.1576 0.08052 0.03462 0.0
H898 H 0.19022 0.07415 0.12997 0.0
H899 H 0.22151 0.04099 0.11123 0.0
H900 H 0.94759 0.10518 0.07816 0.0
H901 H 0.97725 0.0693 0.06571 0.0
H902 H 0.90698 0.02202 0.98618 0.0
H903 H 0.87565 0.05737 1.00036 0.0
Dy904 Dy 0.34069 0.80284 0.27543 0.0
Dy905 Dy 0.29549 0.80969 0.33248 0.0
C906 C 0.32889 0.86458 0.302 0.0
O907 O 0.37136 0.80252 0.32244 0.0
O908 O 0.33955 0.8049 0.35997 0.0
O909 O 0.38348 0.82445 0.2594 0.0
O910 O 0.35038 0.78333 0.23157 0.0
O911 O 0.30592 0.76552 0.3229 0.0
O912 O 0.31885 0.75468 0.27625 0.0
O913 O 0.26366 0.81187 0.28802 0.0
O914 O 0.29268 0.8039 0.24913 0.0
O915 O 0.25539 0.79132 0.35412 0.0
O916 O 0.2889 0.83548 0.37433 0.0
C917 C 0.36639 0.80254 0.35202 0.0
O918 O 0.32915 0.84657 0.27694 0.0
O919 O 0.32459 0.85507 0.32839 0.0
C920 C 0.36929 0.82524 0.20553 0.0
C921 C 0.35096 0.85705 0.15852 0.0
C922 C 0.36516 0.87317 0.1882 0.0
C923 C 0.37447 0.85749 0.21137 0.0
C924 C 0.35563 0.80925 0.17544 0.0
C925 C 0.34673 0.82508 0.15204 0.0
C926 C 0.37343 0.80795 0.23159 0.0
C927 C 0.29896 0.74938 0.29521 0.0
C928 C 0.26683 0.8092 0.25803 0.0
C929 C 0.2692 0.80234 0.40935 0.0
C930 C 0.27865 0.77978 0.46587 0.0
C931 C 0.2582 0.76091 0.43987 0.0
C932 C 0.25334 0.77206 0.41209 0.0
C933 C 0.28939 0.82165 0.4356 0.0
C934 C 0.29417 0.81039 0.46371 0.0
C935 C 0.26579 0.81285 0.37874 0.0
H936 H 0.36923 0.89796 0.19339 0.0
H937 H 0.38506 0.87069 0.23403 0.0
H938 H 0.35103 0.7844 0.17028 0.0
H939 H 0.33609 0.81235 0.12904 0.0
H940 H 0.24608 0.73713 0.44093 0.0
H941 H 0.2375 0.75665 0.39255 0.0
H942 H 0.30178 0.84527 0.4343 0.0
H943 H 0.30979 0.82547 0.4836 0.0
Dy944 Dy 0.52369 0.06319 0.57467 0.0
Dy945 Dy 0.59318 0.06828 0.53874 0.0
C946 C 0.53754 0.0669 0.50179 0.0
O947 O 0.52165 0.01187 0.56191 0.0
O948 O 0.56936 0.0171 0.54354 0.0
O949 O 0.47417 0.05469 0.56075 0.0
O950 O 0.49596 0.07651 0.60817 0.0
O951 O 0.59609 0.08615 0.58888 0.0
O952 O 0.55845 0.05707 0.61149 0.0
O953 O 0.59009 0.11948 0.54851 0.0
O954 O 0.54787 0.11471 0.57624 0.0
O955 O 0.64235 0.07582 0.55477 0.0
O956 O 0.62379 0.05836 0.50639 0.0
C957 C 0.54316 0.99952 0.55125 0.0
O958 O 0.54023 0.06625 0.53123 0.0
O959 O 0.56437 0.06982 0.49315 0.0
C960 C 0.45528 0.09467 0.58401 0.0
C961 C 0.42004 0.13705 0.57423 0.0
C962 C 0.44064 0.13169 0.55391 0.0
C963 C 0.45814 0.11098 0.55876 0.0
C964 C 0.43627 0.10134 0.60559 0.0
C965 C 0.41887 0.12248 0.60083 0.0
C966 C 0.47093 0.06991 0.58693 0.0
C967 C 0.58811 0.06884 0.60995 0.0
C968 C 0.57144 0.13214 0.56469 0.0
C969 C 0.66271 0.03764 0.5303 0.0
C970 C 0.69554 0.99248 0.53641 0.0
C971 C 0.67445 0.99661 0.55663 0.0
C972 C 0.65813 0.01875 0.55354 0.0
C973 C 0.68291 0.03284 0.50937 0.0
C974 C 0.69902 0.01045 0.51228 0.0
C975 C 0.64747 0.06293 0.52854 0.0
H976 H 0.44173 0.14217 0.53305 0.0
H977 H 0.4729 0.10675 0.54193 0.0
H978 H 0.43396 0.08934 0.62548 0.0
H979 H 0.40313 0.12596 0.61684 0.0
H980 H 0.67088 0.98295 0.57517 0.0
H981 H 0.64242 0.02156 0.56981 0.0
H982 H 0.68676 0.0469 0.49114 0.0
H983 H 0.71509 1.00798 0.4963 0.0
Dy984 Dy 0.33552 0.29261 0.80346 0.0
Dy985 Dy 0.27759 0.32387 0.80288 0.0
C986 C 0.34661 0.36377 0.79682 0.0
O987 O 0.3305 0.29933 0.85505 0.0
O988 O 0.30259 0.33487 0.85218 0.0
O989 O 0.38434 0.29477 0.81622 0.0
O990 O 0.35442 0.25804 0.78108 0.0
O991 O 0.26129 0.28027 0.82234 0.0
O992 O 0.29275 0.25239 0.80408 0.0
O993 O 0.27137 0.29807 0.75352 0.0
O994 O 0.32283 0.30108 0.75439 0.0
O995 O 0.22833 0.32019 0.79205 0.0
O996 O 0.26011 0.36215 0.81903 0.0
C997 C 0.31787 0.31963 0.86874 0.0
O998 O 0.3564 0.34378 0.81152 0.0
O999 O 0.31648 0.35865 0.78668 0.0
C1000 C 0.40645 0.27916 0.77234 0.0
C1001 C 0.45026 0.29013 0.72993 0.0
C1002 C 0.42706 0.30577 0.73063 0.0
C1003 C 0.40543 0.30033 0.75151 0.0
C1004 C 0.42976 0.26391 0.77204 0.0
C1005 C 0.45144 0.26941 0.75131 0.0
C1006 C 0.38315 0.27245 0.79398 0.0
C1007 C 0.26736 0.2538 0.81591 0.0
C1008 C 0.29463 0.29555 0.73864 0.0
C1009 C 0.21145 0.34287 0.83661 0.0
C1010 C 0.17406 0.33843 0.88492 0.0
C1011 C 0.17309 0.3121 0.86408 0.0
C1012 C 0.1916 0.31422 0.84034 0.0
C1013 C 0.21299 0.36912 0.85798 0.0
C1014 C 0.19474 0.3669 0.88191 0.0
C1015 C 0.23103 0.34545 0.81119 0.0
H1016 H 0.42529 0.32188 0.71466 0.0
H1017 H 0.38776 0.31253 0.75125 0.0
H1018 H 0.43125 0.24764 0.78791 0.0
H1019 H 0.4694 0.25759 0.75234 0.0
H1020 H 0.15681 0.2901 0.86522 0.0
H1021 H 0.18981 0.2934 0.82451 0.0
H1022 H 0.22808 0.3915 0.85597 0.0
H1023 H 0.19604 0.38772 0.89754 0.0
Dy1024 Dy 0.07483 0.03136 0.55476 0.0
Dy1025 Dy 0.04303 0.08845 0.55843 0.0
C1026 C 1.00359 0.02018 0.56517 0.0
O1027 O 0.06738 0.03869 0.50397 0.0
O1028 O 0.0289 0.06234 0.50959 0.0
O1029 O 0.07236 0.98347 0.53941 0.0
O1030 O 0.11053 0.01189 0.57428 0.0
O1031 O 0.08632 0.10505 0.53775 0.0
O1032 O 0.11501 0.07448 0.55621 0.0
O1033 O 0.0692 0.09282 0.60762 0.0
O1034 O 0.06832 0.04215 0.60471 0.0
O1035 O 0.04672 0.13694 0.571 0.0
O1036 O 1.00439 0.10633 0.54317 0.0
C1037 C 0.04518 0.04991 0.49158 0.0
O1038 O 0.02315 0.0106 0.54941 0.0
O1039 O 1.00879 0.04994 0.57539 0.0
C1040 C 0.08885 0.96028 0.58187 0.0
C1041 C 0.07877 0.91699 0.62438 0.0
C1042 C 0.0622 0.9393 0.6234 0.0
C1043 C 0.06716 0.96062 0.60243 0.0
C1044 C 0.10486 0.9377 0.58222 0.0
C1045 C 0.0997 0.91619 0.60293 0.0
C1046 C 0.09542 0.98381 0.56079 0.0
C1047 C 0.11335 0.09973 0.54479 0.0
C1048 C 0.07271 0.06937 0.62144 0.0
C1049 C 0.02346 0.15573 0.52837 0.0
C1050 C 0.02837 0.19562 0.48256 0.0
C1051 C 0.05391 0.18541 0.49387 0.0
C1052 C 0.05149 0.1658 0.51646 0.0
C1053 C 0.99759 0.16502 0.51637 0.0
C1054 C 0.99998 0.18465 0.49372 0.0
C1055 C 0.02096 0.13497 0.55248 0.0
H1056 H 0.04583 0.94072 0.63932 0.0
H1057 H 0.05429 0.97766 0.60253 0.0
H1058 H 0.1215 0.93674 0.56648 0.0
H1059 H 0.11209 0.89879 0.60194 0.0
H1060 H 0.07614 0.19335 0.48596 0.0
H1061 H 0.07176 0.15882 0.52494 0.0
H1062 H 0.97554 0.15722 0.52465 0.0
H1063 H 0.97957 0.19139 0.48506 0.0
Dy1064 Dy 0.31288 0.84733 0.78893 0.0
Dy1065 Dy 0.30607 0.77405 0.82092 0.0
C1066 C 0.30265 0.82542 0.85702 0.0
O1067 O 0.36487 0.84794 0.80562 0.0
O1068 O 0.35933 0.8028 0.82917 0.0
O1069 O 0.31619 0.89316 0.81048 0.0
O1070 O 0.30702 0.88191 0.76001 0.0
O1071 O 0.32747 0.79216 0.7822 0.0
O1072 O 0.30692 0.81376 0.74594 0.0
O1073 O 0.25446 0.77625 0.80315 0.0
O1074 O 0.26029 0.82387 0.78488 0.0
O1075 O 0.29809 0.72681 0.79872 0.0
O1076 O 0.3148 0.74004 0.8486 0.0
C1077 C 0.3774 0.8289 0.82129 0.0
O1078 O 0.30595 0.82358 0.82808 0.0
O1079 O 0.29989 0.79903 0.8661 0.0
C1080 C 0.28176 0.91659 0.78447 0.0
C1081 C 0.23837 0.95116 0.79144 0.0
C1082 C 0.24021 0.92835 0.80995 0.0
C1083 C 0.26138 0.91112 0.80641 0.0
C1084 C 0.27886 0.9382 0.76467 0.0
C1085 C 0.25716 0.95524 0.76799 0.0
C1086 C 0.30768 0.90201 0.78439 0.0
C1087 C 0.312 0.78884 0.75453 0.0
C1088 C 0.24216 0.79736 0.79082 0.0
C1089 C 0.33393 0.70208 0.82214 0.0
C1090 C 0.38084 0.67071 0.82057 0.0
C1091 C 0.38049 0.69443 0.80268 0.0
C1092 C 0.35742 0.71011 0.80362 0.0
C1093 C 0.3342 0.67838 0.83985 0.0
C1094 C 0.35724 0.66286 0.83904 0.0
C1095 C 0.30963 0.71861 0.82426 0.0
H1096 H 0.22618 0.92496 0.82832 0.0
H1097 H 0.26276 0.8945 0.82193 0.0
H1098 H 0.29425 0.94284 0.74756 0.0
H1099 H 0.25645 0.97287 0.75356 0.0
H1100 H 0.39823 0.70103 0.78818 0.0
H1101 H 0.35799 0.72854 0.78998 0.0
H1102 H 0.31644 0.67179 0.85436 0.0
H1103 H 0.35622 0.64424 0.85251 0.0
Dy1104 Dy 0.56477 0.08958 0.03064 0.0
Dy1105 Dy 0.56027 0.04243 0.07909 0.0
C1106 C 0.57067 0.01799 1.00765 0.0
O1107 O 0.51552 0.0723 0.03723 0.0
O1108 O 0.52267 0.02593 0.03918 0.0
O1109 O 0.54144 0.10232 0.99064 0.0
O1110 O 0.58613 0.13233 0.01502 0.0
O1111 O 0.5418 0.0819 0.10182 0.0
O1112 O 0.56468 0.1204 0.07622 0.0
O1113 O 0.60961 0.07249 0.09092 0.0
O1114 O 0.6141 0.08903 0.04388 0.0
O1115 O 0.52963 1.00149 0.0902 0.0
O1116 O 0.57247 0.02475 0.12154 0.0
C1117 C 0.50435 0.04252 0.03251 0.0
O1118 O 0.56497 0.04382 0.99987 0.0
O1119 O 0.57472 0.01517 0.03786 0.0
C1120 C 0.57682 0.12807 0.96094 0.0
C1121 C 0.60976 0.1295 0.91095 0.0
C1122 C 0.59001 0.10154 0.91581 0.0
C1123 C 0.57381 0.10075 0.94072 0.0
C1124 C 0.59471 0.15643 0.95485 0.0
C1125 C 0.61121 0.15718 0.92984 0.0
C1126 C 0.56481 0.12644 0.99031 0.0
C1127 C 0.55007 0.11192 0.09961 0.0
C1128 C 0.62663 0.08625 0.07161 0.0
C1129 C 0.52699 1.00347 0.14304 0.0
C1130 C 0.48899 1.00214 0.18976 0.0
C1131 C 0.48922 0.02272 0.16835 0.0
C1132 C 0.50815 0.02353 0.14536 0.0
C1133 C 0.5261 0.98209 0.16375 0.0
C1134 C 0.50745 0.98165 0.18726 0.0
C1135 C 0.54558 1.00368 0.11757 0.0
H1136 H 0.58882 0.07994 0.90164 0.0
H1137 H 0.56035 0.07855 0.94509 0.0
H1138 H 0.59724 0.17768 0.97038 0.0
H1139 H 0.62623 0.17899 0.92621 0.0
H1140 H 0.47518 0.03864 0.16987 0.0
H1141 H 0.50785 0.03964 0.12915 0.0
H1142 H 0.53986 0.96589 0.16182 0.0
H1143 H 0.50751 0.9655 0.20353 0.0
Dy1144 Dy 0.28499 0.27833 0.28863 0.0
Dy1145 Dy 0.32124 0.34517 0.31858 0.0
C1146 C 0.30617 0.29411 0.36365 0.0
O1147 O 0.24301 0.29725 0.30175 0.0
O1148 O 0.26999 0.34721 0.32093 0.0
O1149 O 0.25214 0.23518 0.29293 0.0
O1150 O 0.27683 0.23768 0.25379 0.0
O1151 O 0.31025 0.35036 0.26758 0.0
O1152 O 0.28558 0.30066 0.24462 0.0
O1153 O 0.36338 0.32439 0.31026 0.0
O1154 O 0.33503 0.27982 0.27883 0.0
O1155 O 0.35299 0.38925 0.31524 0.0
O1156 O 0.33366 0.38294 0.35733 0.0
C1157 C 0.24268 0.32534 0.31507 0.0
O1158 O 0.30472 0.27479 0.33823 0.0
O1159 O 0.31012 0.32328 0.36131 0.0
C1160 C 0.27634 0.19608 0.28073 0.0
C1161 C 0.31043 0.1555 0.29914 0.0
C1162 C 0.30831 0.17999 0.32062 0.0
C1163 C 0.29142 0.19987 0.31159 0.0
C1164 C 0.27879 0.17195 0.25889 0.0
C1165 C 0.29575 0.15177 0.26801 0.0
C1166 C 0.26165 0.21965 0.27105 0.0
C1167 C 0.29801 0.32989 0.24222 0.0
C1168 C 0.36298 0.29922 0.29056 0.0
C1169 C 0.3282 0.42481 0.33386 0.0
C1170 C 0.29318 0.46481 0.31874 0.0
C1171 C 0.28466 0.43475 0.30263 0.0
C1172 C 0.30207 0.41502 0.31009 0.0
C1173 C 0.33588 0.45447 0.35123 0.0
C1174 C 0.3183 0.47456 0.34362 0.0
C1175 C 0.34577 0.40275 0.34003 0.0
H1176 H 0.31914 0.18345 0.34478 0.0
H1177 H 0.29017 0.21817 0.32903 0.0
H1178 H 0.26802 0.16901 0.23478 0.0
H1179 H 0.2976 0.13353 0.25067 0.0
H1180 H 0.26517 0.42691 0.28356 0.0
H1181 H 0.29539 0.39222 0.29661 0.0
H1182 H 0.35558 0.46219 0.37002 0.0
H1183 H 0.32493 0.49791 0.35626 0.0
Dy1184 Dy 0.57315 0.52963 0.05491 0.0
Dy1185 Dy 0.54003 0.58733 0.05903 0.0
C1186 C 0.50038 0.51805 0.06656 0.0
O1187 O 0.5554 0.52827 1.00389 0.0
O1188 O 0.54115 0.57341 1.00806 0.0
O1189 O 0.57074 0.48154 0.04172 0.0
O1190 O 0.61078 0.51176 0.07323 0.0
O1191 O 0.59059 0.60939 0.05743 0.0
O1192 O 0.60836 0.56833 0.03967 0.0
O1193 O 0.55127 0.58224 0.11031 0.0
O1194 O 0.58679 0.55497 0.10388 0.0
O1195 O 0.54115 0.63506 0.07312 0.0
O1196 O 0.5024 0.6047 0.04 0.0
C1197 C 0.54565 0.54956 0.99098 0.0
O1198 O 0.52567 0.50894 0.06627 0.0
O1199 O 0.50009 0.54635 0.06292 0.0
C1200 C 0.5906 0.46119 0.08485 0.0
C1201 C 0.58141 0.41758 0.12699 0.0
C1202 C 0.55787 0.43129 0.11754 0.0
C1203 C 0.56243 0.45284 0.09686 0.0
C1204 C 0.61459 0.44855 0.09513 0.0
C1205 C 0.61016 0.42722 0.11608 0.0
C1206 C 0.59515 0.4832 0.06202 0.0
C1207 C 0.61167 0.59834 0.04561 0.0
C1208 C 0.57286 0.56996 0.12225 0.0
C1209 C 0.52234 0.65537 0.02889 0.0
C1210 C 0.53143 0.69445 0.98245 0.0
C1211 C 0.55707 0.69044 1.00168 0.0
C1212 C 0.55258 0.67126 0.02457 0.0
C1213 C 0.49668 0.65932 1.00972 0.0
C1214 C 0.50114 0.67872 0.98693 0.0
C1215 C 0.51744 0.63329 0.05176 0.0
H1216 H 0.53545 0.42466 0.12535 0.0
H1217 H 0.54363 0.46255 0.08985 0.0
H1218 H 0.63675 0.45502 0.08678 0.0
H1219 H 0.62932 0.41816 0.12358 0.0
H1220 H 0.58071 0.70274 0.99956 0.0
H1221 H 0.57285 0.66895 0.03901 0.0
H1222 H 0.47309 0.64725 1.01227 0.0
H1223 H 0.48084 0.68129 0.97265 0.0
Dy1224 Dy 0.81347 0.35193 0.29882 0.0
Dy1225 Dy 0.80644 0.27529 0.32275 0.0
C1226 C 0.79592 0.32614 0.35985 0.0
O1227 O 0.86441 0.35323 0.32227 0.0
O1228 O 0.85934 0.30217 0.33179 0.0
O1229 O 0.81291 0.39663 0.32159 0.0
O1230 O 0.80893 0.38694 0.27096 0.0
O1231 O 0.82353 0.30647 0.29261 0.0
O1232 O 0.82452 0.33056 0.25443 0.0
O1233 O 0.75549 0.27296 0.30011 0.0
O1234 O 0.76184 0.32111 0.28246 0.0
O1235 O 0.80716 0.23239 0.29628 0.0
O1236 O 0.81041 0.23769 0.34707 0.0
C1237 C 0.87717 0.33102 0.33105 0.0
O1238 O 0.78686 0.32532 0.33058 0.0
O1239 O 0.80433 0.3024 0.36748 0.0
C1240 C 0.77996 0.41901 0.2906 0.0
C1241 C 0.73226 0.44879 0.28718 0.0
C1242 C 0.72955 0.42292 0.30243 0.0
C1243 C 0.75308 0.40795 0.30385 0.0
C1244 C 0.78149 0.44325 0.27325 0.0
C1245 C 0.75782 0.45803 0.27154 0.0
C1246 C 0.80669 0.40592 0.29488 0.0
C1247 C 0.82641 0.30529 0.26392 0.0
C1248 C 0.7436 0.29313 0.28576 0.0
C1249 C 0.8415 0.20887 0.32371 0.0
C1250 C 0.89166 0.18183 0.32721 0.0
C1251 C 0.87502 0.18296 0.29821 0.0
C1252 C 0.85025 0.19624 0.2965 0.0
C1253 C 0.85879 0.20872 0.35272 0.0
C1254 C 0.88361 0.19548 0.35442 0.0
C1255 C 0.81393 0.2212 0.3217 0.0
H1256 H 0.71045 0.41582 0.31528 0.0
H1257 H 0.75098 0.38865 0.31645 0.0
H1258 H 0.80173 0.45173 0.26228 0.0
H1259 H 0.76079 0.47832 0.26025 0.0
H1260 H 0.87986 0.17193 0.27681 0.0
H1261 H 0.83726 0.19565 0.27383 0.0
H1262 H 0.85273 0.21816 0.37422 0.0
H1263 H 0.89584 0.19499 0.37718 0.0
Dy1264 Dy 0.06045 0.58729 0.53153 0.0
Dy1265 Dy 0.05783 0.54014 0.58263 0.0
C1266 C 0.06824 0.51707 0.51088 0.0
O1267 O 1.01532 0.55272 0.51875 0.0
O1268 O 1.01224 0.54829 0.56934 0.0
O1269 O 0.04351 0.60975 0.49484 0.0
O1270 O 0.09239 0.62419 0.51592 0.0
O1271 O 0.05599 0.58535 0.61119 0.0
O1272 O 0.04091 0.61033 0.5716 0.0
O1273 O 0.10799 0.5611 0.58086 0.0
O1274 O 0.09616 0.60485 0.57264 0.0
O1275 O 0.07155 0.52738 0.6271 0.0
O1276 O 0.03355 0.49597 0.59365 0.0
C1277 C 0.99918 0.54434 0.54042 0.0
O1278 O 0.07512 0.54658 0.50668 0.0
O1279 O 0.05824 0.50967 0.537 0.0
C1280 C 0.08246 0.62555 0.46335 0.0
C1281 C 0.11691 0.62118 0.41477 0.0
C1282 C 0.09529 0.59481 0.42058 0.0
C1283 C 0.07828 0.59692 0.44486 0.0
C1284 C 0.10281 0.65225 0.45643 0.0
C1285 C 0.12015 0.65007 0.43229 0.0
C1286 C 0.07172 0.62665 0.49355 0.0
C1287 C 0.04574 0.60824 0.60192 0.0
C1288 C 0.11661 0.59086 0.58084 0.0
C1289 C 0.0266 0.50143 0.6458 0.0
C1290 C 0.98793 0.50218 0.69156 0.0
C1291 C 0.99053 0.52358 0.6708 0.0
C1292 C 1.00958 0.52314 0.64807 0.0
C1293 C 0.02325 0.4792 0.66574 0.0
C1294 C 1.00389 0.47952 0.68855 0.0
C1295 C 0.04765 0.50267 0.62252 0.0
H1296 H 0.0929 0.57231 0.40744 0.0
H1297 H 0.06341 0.57594 0.45043 0.0
H1298 H 0.10686 0.67439 0.47101 0.0
H1299 H 0.13693 0.6706 0.42813 0.0
H1300 H 0.9784 0.5412 0.67273 0.0
H1301 H 1.01154 0.54024 0.63264 0.0
H1302 H 0.03603 0.46211 0.66408 0.0
H1303 H 1.00233 0.46295 0.70454 0.0
Dy1304 Dy 0.83789 0.7937 0.30589 0.0
Dy1305 Dy 0.77683 0.82394 0.30059 0.0
C1306 C 0.84628 0.86399 0.29213 0.0
O1307 O 0.83415 0.80483 0.3576 0.0
O1308 O 0.79969 0.83337 0.35004 0.0
O1309 O 0.88734 0.79879 0.31908 0.0
O1310 O 0.8586 0.759 0.2868 0.0
O1311 O 0.75827 0.77678 0.31282 0.0
O1312 O 0.79821 0.75359 0.31256 0.0
O1313 O 0.77387 0.80334 0.2503 0.0
O1314 O 0.82108 0.792 0.2547 0.0
O1315 O 0.72755 0.8206 0.28956 0.0
O1316 O 0.75864 0.86093 0.31948 0.0
C1317 C 0.81805 0.82304 0.36886 0.0
O1318 O 0.85722 0.84437 0.30642 0.0
O1319 O 0.81574 0.85966 0.28484 0.0
C1320 C 0.90973 0.78135 0.27626 0.0
C1321 C 0.95291 0.79241 0.23351 0.0
C1322 C 0.92974 0.80793 0.23429 0.0
C1323 C 0.90825 0.80229 0.25526 0.0
C1324 C 0.93287 0.76584 0.27541 0.0
C1325 C 0.95409 0.77116 0.25418 0.0
C1326 C 0.88708 0.77532 0.29864 0.0
C1327 C 0.7692 0.753 0.31562 0.0
C1328 C 0.79549 0.79368 0.23761 0.0
C1329 C 0.70908 0.83983 0.33491 0.0
C1330 C 0.67024 0.83064 0.38226 0.0
C1331 C 0.67767 0.80578 0.36567 0.0
C1332 C 0.69702 0.81028 0.34272 0.0
C1333 C 0.70169 0.86482 0.35139 0.0
C1334 C 0.68262 0.86033 0.37475 0.0
C1335 C 0.72962 0.84461 0.31021 0.0
H1336 H 0.92793 0.82403 0.21831 0.0
H1337 H 0.89035 0.81422 0.255 0.0
H1338 H 0.93443 0.7494 0.29108 0.0
H1339 H 0.97144 0.7586 0.25383 0.0
H1340 H 0.66812 0.78262 0.37029 0.0
H1341 H 0.70222 0.79043 0.33079 0.0
H1342 H 0.71052 0.88788 0.34604 0.0
H1343 H 0.67683 0.88001 0.38629 0.0
Dy1344 Dy 0.84713 0.31033 0.77515 0.0
Dy1345 Dy 0.79538 0.31394 0.83312 0.0
C1346 C 0.83465 0.36464 0.81106 0.0
O1347 O 0.87031 0.29674 0.81974 0.0
O1348 O 0.84174 0.30923 0.85855 0.0
O1349 O 0.88396 0.34518 0.76214 0.0
O1350 O 0.8709 0.29827 0.73757 0.0
O1351 O 0.80663 0.28165 0.79946 0.0
O1352 O 0.82706 0.2608 0.76389 0.0
O1353 O 0.76578 0.31757 0.78811 0.0
O1354 O 0.79975 0.31671 0.75119 0.0
O1355 O 0.76032 0.28287 0.85272 0.0
O1356 O 0.77624 0.33234 0.8711 0.0
C1357 C 0.86566 0.29976 0.84966 0.0
O1358 O 0.85064 0.34518 0.81448 0.0
O1359 O 0.81105 0.36163 0.82583 0.0
C1360 C 0.87352 0.33773 0.70749 0.0
C1361 C 0.84553 0.3529 0.65298 0.0
C1362 C 0.84712 0.37043 0.68199 0.0
C1363 C 0.86083 0.3629 0.70893 0.0
C1364 C 0.87121 0.3196 0.67855 0.0
C1365 C 0.85701 0.32695 0.65147 0.0
C1366 C 0.88367 0.32735 0.73642 0.0
C1367 C 0.80596 0.25682 0.78139 0.0
C1368 C 0.77217 0.31891 0.75915 0.0
C1369 C 0.76873 0.29832 0.90699 0.0
C1370 C 0.78388 0.27751 0.96269 0.0
C1371 C 0.80753 0.29038 0.94622 0.0
C1372 C 0.79996 0.30116 0.91875 0.0
C1373 C 0.74538 0.28774 0.9247 0.0
C1374 C 0.75302 0.27758 0.95271 0.0
C1375 C 0.76095 0.30476 0.87552 0.0
H1376 H 0.83855 0.3906 0.68384 0.0
H1377 H 0.86111 0.37675 0.73094 0.0
H1378 H 0.87972 0.29939 0.677 0.0
H1379 H 0.85529 0.31255 0.62938 0.0
H1380 H 0.83147 0.29061 0.95375 0.0
H1381 H 0.81827 0.31042 0.90591 0.0
H1382 H 0.72124 0.28608 0.91626 0.0
H1383 H 0.73455 0.26777 0.96541 0.0
Dy1384 Dy 0.79044 0.78073 0.78911 0.0
Dy1385 Dy 0.82664 0.84651 0.82286 0.0
C1386 C 0.80888 0.79424 0.86611 0.0
O1387 O 0.74721 0.79847 0.80049 0.0
O1388 O 0.77451 0.84652 0.8261 0.0
O1389 O 0.75871 0.73572 0.78957 0.0
O1390 O 0.78596 0.74229 0.75271 0.0
O1391 O 0.82093 0.85229 0.77132 0.0
O1392 O 0.78773 0.80582 0.74757 0.0
O1393 O 0.86961 0.82895 0.81401 0.0
O1394 O 0.84292 0.78246 0.78521 0.0
O1395 O 0.85936 0.89086 0.82251 0.0
O1396 O 0.8356 0.88326 0.86194 0.0
C1397 C 0.74683 0.82531 0.81693 0.0
O1398 O 0.79492 0.77561 0.84001 0.0
O1399 O 0.82617 0.8222 0.86508 0.0
C1400 C 0.78525 0.6992 0.77729 0.0
C1401 C 0.8137 0.65614 0.79945 0.0
C1402 C 0.82546 0.68747 0.8121 0.0
C1403 C 0.81127 0.70879 0.80121 0.0
C1404 C 0.77418 0.66798 0.7637 0.0
C1405 C 0.78829 0.64646 0.77487 0.0
C1406 C 0.76997 0.72228 0.7677 0.0
C1407 C 0.80486 0.83379 0.74565 0.0
C1408 C 0.87045 0.80337 0.79617 0.0
C1409 C 0.83283 0.92534 0.8387 0.0
C1410 C 0.79537 0.96289 0.82385 0.0
C1411 C 0.7885 0.93323 0.80716 0.0
C1412 C 0.80721 0.91469 0.81443 0.0
C1413 C 0.83934 0.95476 0.85617 0.0
C1414 C 0.82054 0.97367 0.84864 0.0
C1415 C 0.84995 0.90361 0.84628 0.0
H1416 H 0.84498 0.69527 0.83111 0.0
H1417 H 0.82025 0.73277 0.812 0.0
H1418 H 0.75437 0.66023 0.74502 0.0
H1419 H 0.77913 0.62227 0.76475 0.0
H1420 H 0.76886 0.92457 0.7883 0.0
H1421 H 0.80148 0.89185 0.80106 0.0
H1422 H 0.85866 0.96293 0.87534 0.0
H1423 H 0.82584 0.99675 0.86168 0.0
Dy1424 Dy 0.59342 0.57452 0.57253 0.0
Dy1425 Dy 0.52583 0.54107 0.5417 0.0
C1426 C 0.57799 0.55594 0.4962 0.0
O1427 O 0.57489 0.6176 0.56357 0.0
O1428 O 0.52729 0.59165 0.5351 0.0
O1429 O 0.63942 0.6046 0.57137 0.0
O1430 O 0.63102 0.58242 0.61137 0.0
O1431 O 0.51947 0.55845 0.5908 0.0
O1432 O 0.56875 0.56457 0.61436 0.0
O1433 O 0.54244 0.49922 0.55665 0.0
O1434 O 0.59415 0.52318 0.57121 0.0
O1435 O 0.4808 0.51004 0.54426 0.0
O1436 O 0.48835 0.52978 0.50246 0.0
C1437 C 0.54878 0.6186 0.54557 0.0
O1438 O 0.59884 0.56655 0.5216 0.0
O1439 O 0.54857 0.54346 0.49827 0.0
C1440 C 0.67311 0.57627 0.58755 0.0
C1441 C 0.71118 0.53937 0.57041 0.0
C1442 C 0.68099 0.53325 0.55421 0.0
C1443 C 0.66239 0.55178 0.56242 0.0
C1444 C 0.7029 0.58158 0.6049 0.0
C1445 C 0.72216 0.56338 0.596 0.0
C1446 C 0.65191 0.59478 0.59507 0.0
C1447 C 0.53896 0.56023 0.61636 0.0
C1448 C 0.57084 0.49739 0.56754 0.0
C1449 C 0.44723 0.53792 0.52596 0.0
C1450 C 0.41836 0.58449 0.53778 0.0
C1451 C 0.43525 0.57602 0.56239 0.0
C1452 C 0.44911 0.55261 0.55661 0.0
C1453 C 0.43134 0.54737 0.5011 0.0
C1454 C 0.41683 0.57053 0.507 0.0
C1455 C 0.46805 0.51882 0.51993 0.0
H1456 H 0.67248 0.51528 0.53398 0.0
H1457 H 0.63985 0.54737 0.54833 0.0
H1458 H 0.71149 0.60011 0.62455 0.0
H1459 H 0.74579 0.56857 0.60836 0.0
H1460 H 0.43587 0.586 0.58631 0.0
H1461 H 0.46134 0.54618 0.57637 0.0
H1462 H 0.43045 0.53708 0.47725 0.0
H1463 H 0.40309 0.57647 0.48784 0.0
Dy1464 Dy 0.02232 0.56356 0.08273 0.0
Dy1465 Dy 0.09255 0.56797 0.04133 0.0
C1466 C 0.03433 0.56626 1.00611 0.0
O1467 O 0.02428 0.51268 0.07091 0.0
O1468 O 0.06569 0.51676 0.04133 0.0
O1469 O 0.97283 0.55385 0.06703 0.0
O1470 O 0.99285 0.57702 0.11415 0.0
O1471 O 0.07266 0.56366 0.08297 0.0
O1472 O 0.05524 0.5637 0.12574 0.0
O1473 O 0.09182 0.61913 0.05498 0.0
O1474 O 0.04907 0.61449 0.08265 0.0
O1475 O 0.14007 0.57357 0.06284 0.0
O1476 O 0.12575 0.55767 0.01287 0.0
C1477 C 0.04274 0.50006 0.0546 0.0
O1478 O 0.03508 0.56594 0.03586 0.0
O1479 O 0.06147 0.56861 0.99757 0.0
C1480 C 0.95238 0.59349 0.08792 0.0
C1481 C 0.91797 0.63588 0.07585 0.0
C1482 C 0.94163 0.63265 0.05859 0.0
C1483 C 0.95869 0.61179 0.06455 0.0
C1484 C 0.93019 0.59803 0.10661 0.0
C1485 C 0.91316 0.61915 0.1007 0.0
C1486 C 0.96835 0.56934 0.09234 0.0
C1487 C 0.07955 0.56481 0.11249 0.0
C1488 C 0.07322 0.6316 0.07135 0.0
C1489 C 0.16113 0.53454 0.03931 0.0
C1490 C 0.19024 0.48631 0.04344 0.0
C1491 C 0.17915 0.4987 0.06924 0.0
C1492 C 0.16463 0.52233 0.06717 0.0
C1493 C 0.17167 0.52168 0.01328 0.0
C1494 C 0.18592 0.49778 0.01527 0.0
C1495 C 0.14705 0.56074 0.03722 0.0
H1496 H 0.94603 0.64545 0.03953 0.0
H1497 H 0.97613 0.60925 0.05021 0.0
H1498 H 0.92532 0.58452 0.12511 0.0
H1499 H 0.89511 0.62114 0.11442 0.0
H1500 H 0.18232 0.4905 0.09129 0.0
H1501 H 0.15673 0.53143 0.08765 0.0
H1502 H 0.16942 0.53055 0.99149 0.0
H1503 H 0.19476 0.48915 0.99515 0.0
C1504 C 1.00913 0.18877 0.02778 0.0
C1505 C 0.03019 0.20989 0.01293 0.0
C1506 C 1.01452 0.16064 0.03735 0.0
C1507 C 0.04208 0.15105 0.03411 0.0
H1508 H 0.9876 0.19378 0.03188 0.0
H1509 H 0.99663 0.14626 0.04789 0.0
S1510 S 0.10565 0.19665 0.99666 0.0
N1511 N 0.08031 0.21715 0.99533 0.0
N1512 N 0.0907 0.16689 0.01381 0.0
C1513 C 0.06347 0.17216 0.01962 0.0
C1514 C 0.05758 0.20035 1.00913 0.0
C1515 C 0.19454 0.83485 0.2223 0.0
C1516 C 0.19203 0.82839 0.18933 0.0
C1517 C 0.21796 0.82833 0.24359 0.0
C1518 C 0.24104 0.81481 0.23384 0.0
H1519 H 0.17782 0.8449 0.23206 0.0
H1520 H 0.21795 0.83425 0.26829 0.0
S1521 S 0.24531 0.79164 0.15026 0.0
N1522 N 0.21531 0.80628 0.14842 0.0
N1523 N 0.25873 0.7946 0.18769 0.0
C1524 C 0.23887 0.80809 0.20092 0.0
C1525 C 0.21481 0.81462 0.17913 0.0
C1526 C 0.50296 0.91041 0.52476 0.0
C1527 C 0.52729 0.89562 0.5278 0.0
C1528 C 0.50782 0.94299 0.53334 0.0
C1529 C 0.53747 0.96374 0.54607 0.0
H1530 H 0.47951 0.89701 0.51497 0.0
H1531 H 0.48811 0.95215 0.52868 0.0
S1532 S 0.60778 0.93749 0.5681 0.0
N1533 N 0.58153 0.90527 0.55031 0.0
N1534 N 0.59044 0.96527 0.56727 0.0
C1535 C 0.56143 0.94912 0.55222 0.0
C1536 C 0.55645 0.91583 0.5431 0.0
C1537 C 0.51023 0.33121 0.68172 0.0
C1538 C 0.51883 0.30679 0.66574 0.0
C1539 C 0.48787 0.32568 0.70202 0.0
C1540 C 0.47326 0.29551 0.7073 0.0
H1541 H 0.52081 0.35473 0.67847 0.0
H1542 H 0.48237 0.34531 0.71406 0.0
S1543 S 0.487 0.22354 0.66966 0.0
N1544 N 0.51101 0.25145 0.65629 0.0
N1545 N 0.46839 0.24082 0.69299 0.0
C1546 C 0.48152 0.27094 0.6909 0.0
C1547 C 0.50439 0.27664 0.67054 0.0
C1548 C 0.03998 0.85981 0.67603 0.0
C1549 C 0.06537 0.8525 0.69228 0.0
C1550 C 0.04441 0.88064 0.65432 0.0
C1551 C 0.07444 0.89492 0.64777 0.0
H1552 H 1.01652 0.84953 0.68028 0.0
H1553 H 0.02405 0.88531 0.64232 0.0
S1554 S 0.14856 0.88239 0.68351 0.0
N1555 N 0.12127 0.85967 0.69886 0.0
N1556 N 0.13002 0.90004 0.6602 0.0
C1557 C 0.09994 0.88752 0.66392 0.0
C1558 C 0.0953 0.86605 0.68557 0.0
C1559 C 0.4635 0.81991 0.82979 0.0
C1560 C 0.48323 0.84766 0.84856 0.0
C1561 C 0.43019 0.81422 0.82095 0.0
C1562 C 0.41389 0.83611 0.82951 0.0
H1563 H 0.47364 0.80151 0.82306 0.0
H1564 H 0.41695 0.79205 0.80743 0.0
S1565 S 0.45248 0.91101 0.88142 0.0
N1566 N 0.48142 0.89536 0.87851 0.0
N1567 N 0.42134 0.88662 0.85913 0.0
C1568 C 0.43335 0.86394 0.8479 0.0
C1569 C 0.46687 0.86907 0.85816 0.0
C1570 C 0.54921 0.19258 0.1451 0.0
C1571 C 0.53043 0.18569 0.16864 0.0
C1572 C 0.55508 0.16918 0.12338 0.0
C1573 C 0.54271 0.13687 0.12336 0.0
H1574 H 0.56014 0.21655 0.14372 0.0
H1575 H 0.56994 0.17674 0.10649 0.0
S1576 S 0.48959 0.10568 0.17819 0.0
N1577 N 0.49837 0.14339 0.18909 0.0
N1578 N 0.50846 0.10025 0.14887 0.0
C1579 C 0.52327 0.12979 0.14638 0.0
C1580 C 0.51755 0.15368 0.16866 0.0
C1581 C 0.18337 0.37116 0.34673 0.0
C1582 C 0.15376 0.34904 0.34592 0.0
C1583 C 0.21076 0.36352 0.33704 0.0
C1584 C 0.21148 0.33303 0.32459 0.0
H1585 H 0.18579 0.39509 0.35556 0.0
H1586 H 0.23199 0.38227 0.3394 0.0
S1587 S 0.13992 0.26572 0.31364 0.0
N1588 N 0.12773 0.29442 0.32932 0.0
N1589 N 0.17703 0.2807 0.31083 0.0
C1590 C 0.18169 0.31082 0.32275 0.0
C1591 C 0.15397 0.31852 0.33325 0.0
C1592 C 0.98538 0.03502 0.17932 0.0
C1593 C 1.00267 0.05187 0.20819 0.0
C1594 C 0.9963 0.03895 0.15042 0.0
C1595 C 0.02515 0.06029 0.14815 0.0
H1596 H 0.96334 0.01792 0.17903 0.0
H1597 H 0.98186 0.0246 0.1295 0.0
S1598 S 0.0788 0.11231 0.21637 0.0
N1599 N 0.05002 0.0921 0.23208 0.0
N1600 N 0.07001 0.09971 0.17847 0.0
C1601 C 0.04237 0.07787 0.17683 0.0
C1602 C 0.03136 0.07362 0.20639 0.0
C1603 C 0.25728 0.72624 0.52261 0.0
C1604 C 0.28574 0.72035 0.53207 0.0
C1605 C 0.25586 0.74891 0.50427 0.0
C1606 C 0.28283 0.76611 0.49445 0.0
H1607 H 0.23584 0.71278 0.52881 0.0
H1608 H 0.23313 0.75132 0.49561 0.0
S1609 S 0.36416 0.76565 0.52161 0.0
N1610 N 0.34224 0.73793 0.53709 0.0
N1611 N 0.33968 0.78054 0.50168 0.0
C1612 C 0.31198 0.76329 0.50741 0.0
C1613 C 0.3134 0.74024 0.52645 0.0
C1614 C 0.62609 0.04248 0.67854 0.0
C1615 C 0.65743 0.06028 0.68241 0.0
C1616 C 0.60397 0.04546 0.65494 0.0
C1617 C 0.61241 0.06614 0.63412 0.0
H1618 H 0.61809 0.02755 0.69517 0.0
H1619 H 0.57992 0.03196 0.65358 0.0
S1620 S 0.69237 0.11584 0.63219 0.0
N1621 N 0.69664 0.09728 0.66185 0.0
N1622 N 0.65485 0.10348 0.61749 0.0
C1623 C 0.64413 0.08285 0.63647 0.0
C1624 C 0.66678 0.07956 0.66049 0.0
C1625 C 0.29541 0.34603 0.94691 0.0
C1626 C 0.3221 0.34989 0.96921 0.0
C1627 C 0.29388 0.33437 0.91523 0.0
C1628 C 0.31912 0.32619 0.90372 0.0
H1629 H 0.27611 0.35395 0.95368 0.0
H1630 H 0.27301 0.33311 0.89926 0.0
S1631 S 0.39422 0.33047 0.95228 0.0
N1632 N 0.37402 0.34289 0.97751 0.0
N1633 N 0.37132 0.32152 0.91799 0.0
C1634 C 0.34537 0.32825 0.92595 0.0
C1635 C 0.34684 0.34 0.95853 0.0
C1636 C 0.02925 0.02346 0.40183 0.0
C1637 C 1.0135 0.04412 0.39073 0.0
C1638 C 0.04115 0.02613 0.4341 0.0
C1639 C 0.03713 0.04915 0.45671 0.0
H1640 H 0.03056 1.0039 0.38586 0.0
H1641 H 0.05188 0.00896 0.44154 0.0
S1642 S 1.00012 0.11074 0.43925 0.0
N1643 N 0.99691 0.08974 0.40493 0.0
N1644 N 1.01853 0.09473 0.46444 0.0
C1645 C 0.02295 0.07087 0.44539 0.0
C1646 C 1.01136 0.06834 0.41286 0.0
C1647 C 0.33943 0.7279 0.71121 0.0
C1648 C 0.31157 0.70807 0.69403 0.0
C1649 C 0.33919 0.75432 0.73074 0.0
C1650 C 0.31119 0.76197 0.73281 0.0
H1651 H 0.36168 0.72418 0.70773 0.0
H1652 H 0.36121 0.7695 0.7434 0.0
S1653 S 0.23147 0.71523 0.69661 0.0
N1654 N 0.25466 0.69549 0.6837 0.0
N1655 N 0.25468 0.74629 0.71981 0.0
C1656 C 0.28293 0.74138 0.71767 0.0
C1657 C 0.28301 0.71391 0.69852 0.0
C1658 C 0.64061 0.10147 0.84123 0.0
C1659 C 0.67299 0.11032 0.85178 0.0
C1660 C 0.62038 0.11017 0.85963 0.0
C1661 C 0.63175 0.12808 0.88918 0.0
H1662 H 0.63061 0.08761 0.81858 0.0
H1663 H 0.59548 0.10189 0.85117 0.0
S1664 S 0.71469 0.15974 0.92682 0.0
N1665 N 0.71571 0.13921 0.89348 0.0
N1666 N 0.67739 0.1567 0.92741 0.0
C1667 C 0.66413 0.13844 0.89956 0.0
C1668 C 0.68481 0.12901 0.88114 0.0
C1669 C 0.31692 0.3342 0.158 0.0
C1670 C 0.31275 0.36272 0.15122 0.0
C1671 C 0.31112 0.32333 0.1866 0.0
C1672 C 0.30065 0.34021 0.21026 0.0
H1673 H 0.32545 0.32029 0.14125 0.0
H1674 H 0.31579 0.3018 0.19053 0.0
S1675 S 0.2811 0.41377 0.20294 0.0
N1676 N 0.29413 0.40588 0.17012 0.0
N1677 N 0.28356 0.38581 0.22312 0.0
C1678 C 0.29535 0.3682 0.20336 0.0
C1679 C 0.30124 0.37927 0.17425 0.0
C1680 C 0.23199 0.98468 1.0084 0.0
C1681 C 0.2644 0.99415 0.01759 0.0
C1682 C 0.21317 0.99896 0.02446 0.0
C1683 C 0.22639 0.02293 0.05002 0.0
H1684 H 0.22134 0.96678 0.98848 0.0
H1685 H 0.18822 0.99193 0.01626 0.0
S1686 S 0.31007 0.05185 0.08549 0.0
N1687 N 0.30871 0.02513 0.0559 0.0
N1688 N 0.27368 0.05313 0.08525 0.0
C1689 C 0.25868 0.03091 0.06049 0.0
C1690 C 0.27764 0.01621 0.04436 0.0
C1691 C 0.66571 0.67273 0.02719 0.0
C1692 C 0.69552 0.66801 0.03167 0.0
C1693 C 0.63881 0.64992 0.03113 0.0
C1694 C 0.64035 0.62122 0.03952 0.0
H1695 H 0.66318 0.69435 0.02088 0.0
H1696 H 0.61654 0.65483 0.02753 0.0
S1697 S 0.71298 0.59906 0.05904 0.0
N1698 N 0.72506 0.63389 0.04964 0.0
N1699 N 0.67453 0.59037 0.05408 0.0
C1700 C 0.66995 0.61629 0.04426 0.0
C1701 C 0.69744 0.63984 0.04123 0.0
C1702 C 0.67502 0.49821 0.28811 0.0
C1703 C 0.68735 0.51879 0.31641 0.0
C1704 C 0.68895 0.47488 0.27837 0.0
C1705 C 0.71557 0.47157 0.29667 0.0
H1706 H 0.65524 0.50075 0.27298 0.0
H1707 H 0.67928 0.45981 0.2563 0.0
S1708 S 0.75716 0.51839 0.37226 0.0
N1709 N 0.72781 0.5326 0.36286 0.0
N1710 N 0.75373 0.49017 0.34356 0.0
C1711 C 0.72773 0.49145 0.32485 0.0
C1712 C 0.71367 0.5146 0.33502 0.0
C1713 C 0.93255 0.47944 0.49843 0.0
C1714 C 0.90982 0.48111 0.51694 0.0
C1715 C 0.96154 0.50125 0.50567 0.0
C1716 C 0.96812 0.52428 0.53192 0.0
H1717 H 0.92747 0.46215 0.47775 0.0
H1718 H 0.97893 0.49991 0.49089 0.0
S1719 S 0.91691 0.53496 0.58974 0.0
N1720 N 0.8957 0.50512 0.56367 0.0
N1721 N 0.951 0.54609 0.57783 0.0
C1722 C 0.94598 0.52506 0.55151 0.0
C1723 C 0.91646 0.5032 0.54391 0.0
C1724 C 0.36868 0.12442 0.34591 0.0
C1725 C 0.35432 0.09255 0.33979 0.0
C1726 C 0.35511 0.14459 0.33138 0.0
C1727 C 0.32666 0.13346 0.3104 0.0
H1728 H 0.39053 0.13374 0.3619 0.0
H1729 H 0.36676 0.16914 0.33692 0.0
S1730 S 0.28326 0.05108 0.28261 0.0
N1731 N 0.31371 0.05023 0.30732 0.0
N1732 N 0.28618 0.08802 0.28251 0.0
C1733 C 0.31305 0.10136 0.30299 0.0
C1734 C 0.32739 0.08091 0.31712 0.0
C1735 C 0.36946 0.19356 0.57331 0.0
C1736 C 0.3504 0.18351 0.54373 0.0
C1737 C 0.39215 0.1788 0.58345 0.0
C1738 C 0.39652 0.15343 0.5644 0.0
H1739 H 0.36619 0.21225 0.58911 0.0
H1740 H 0.40619 0.18712 0.60634 0.0
S1741 S 0.35279 0.11738 0.48555 0.0
N1742 N 0.33885 0.14657 0.49541 0.0
N1743 N 0.37923 0.1183 0.51546 0.0
C1744 C 0.37778 0.14333 0.53502 0.0
C1745 C 0.35547 0.15853 0.52441 0.0
C1746 C 0.71791 0.66954 0.3078 0.0
C1747 C 0.69734 0.67164 0.3294 0.0
C1748 C 0.7421 0.69544 0.30427 0.0
C1749 C 0.74681 0.72453 0.32235 0.0
H1750 H 0.71495 0.6477 0.29311 0.0
H1751 H 0.7565 0.69287 0.2866 0.0
S1752 S 0.70269 0.74123 0.38534 0.0
N1753 N 0.68507 0.70466 0.37063 0.0
N1754 N 0.73099 0.75288 0.36499 0.0
C1755 C 0.72721 0.72654 0.34485 0.0
C1756 C 0.70235 0.70031 0.34808 0.0
C1757 C 0.89403 0.43244 0.82623 0.0
C1758 C 0.87529 0.45155 0.83425 0.0
C1759 C 0.88077 0.40427 0.80724 0.0
C1760 C 0.84828 0.39319 0.80048 0.0
H1761 H 0.91876 0.43865 0.83535 0.0
H1762 H 0.89538 0.38937 0.80327 0.0
S1763 S 0.79279 0.43948 0.79783 0.0
N1764 N 0.82556 0.46268 0.81869 0.0
N1765 N 0.80031 0.40647 0.78757 0.0
C1766 C 0.8309 0.41412 0.80064 0.0
C1767 C 0.84432 0.44381 0.81816 0.0
C1768 C 0.10228 0.93388 0.10427 0.0
C1769 C 0.0825 0.90366 0.09078 0.0
C1770 C 0.09732 0.96272 0.09597 0.0
C1771 C 0.07201 0.96465 0.0734 0.0
H1772 H 0.12211 0.93554 0.12176 0.0
H1773 H 0.11384 0.98413 0.10789 0.0
S1774 S 1.01286 0.89353 0.0294 0.0
N1775 N 0.03595 0.87938 0.05194 0.0
N1776 N 0.02719 0.93146 0.0375 0.0
C1777 C 0.05229 0.9347 0.05962 0.0
C1778 C 0.05732 0.90541 0.06786 0.0
C1779 C 0.90949 0.29526 0.93175 0.0
C1780 C 0.93507 0.28437 0.92522 0.0
C1781 C 0.88746 0.29985 0.90759 0.0
C1782 C 0.88893 0.29304 0.87527 0.0
H1783 H 0.90782 0.30268 0.95576 0.0
H1784 H 0.86985 0.31018 0.91459 0.0
S1785 S 0.94485 0.25354 0.84563 0.0
N1786 N 0.95566 0.25973 0.88383 0.0
N1787 N 0.91511 0.2681 0.83914 0.0
C1788 C 0.91234 0.2787 0.86869 0.0
C1789 C 0.93476 0.27417 0.89329 0.0
C1790 C 0.55766 0.21178 0.59471 0.0
C1791 C 0.58478 0.23522 0.59228 0.0
C1792 C 0.55327 0.17966 0.58411 0.0
C1793 C 0.57654 0.16783 0.57205 0.0
H1794 H 0.53995 0.21806 0.60643 0.0
H1795 H 0.53144 0.16371 0.58672 0.0
S1796 S 0.65534 0.21811 0.5668 0.0
N1797 N 0.63716 0.24305 0.57984 0.0
N1798 N 0.62983 0.18354 0.56175 0.0
C1799 C 0.6045 0.19088 0.57067 0.0
C1800 C 0.60852 0.22388 0.58065 0.0
C1801 C 0.59654 0.79635 0.41657 0.0
C1802 C 0.59982 0.81659 0.44455 0.0
C1803 C 0.61982 0.80039 0.39741 0.0
C1804 C 0.64765 0.82493 0.40527 0.0
H1805 H 0.57474 0.77846 0.40826 0.0
H1806 H 0.61508 0.78509 0.37534 0.0
S1807 S 0.66991 0.88103 0.47892 0.0
N1808 N 0.63432 0.85997 0.48087 0.0
N1809 N 0.67873 0.86714 0.44566 0.0
C1810 C 0.6522 0.84393 0.43444 0.0
C1811 C 0.62823 0.83985 0.45384 0.0
C1812 C 0.05467 0.24058 0.41681 0.0
C1813 C 0.04631 0.26799 0.42404 0.0
C1814 C 0.04793 0.21674 0.43513 0.0
C1815 C 0.03225 0.21931 0.46103 0.0
H1816 H 0.06769 0.23815 0.39789 0.0
H1817 H 0.05561 0.19641 0.42938 0.0
S1818 S 1.00364 0.28593 0.48784 0.0
N1819 N 1.02009 0.29561 0.45744 0.0
N1820 N 1.00762 0.25143 0.49165 0.0
C1821 C 0.02263 0.24615 0.46734 0.0
C1822 C 0.02964 0.27028 0.44894 0.0
C1823 C 0.66178 0.30277 0.2525 0.0
C1824 C 0.639 0.27718 0.25913 0.0
C1825 C 0.69471 0.30738 0.26088 0.0
C1826 C 0.70754 0.28639 0.27594 0.0
H1827 H 0.65407 0.3197 0.24071 0.0
H1828 H 0.71033 0.32789 0.25531 0.0
S1829 S 0.65834 0.21458 0.29781 0.0
N1830 N 0.63231 0.23012 0.28158 0.0
N1831 N 0.69303 0.23814 0.29658 0.0
C1832 C 0.68485 0.26045 0.28241 0.0
C1833 C 0.65125 0.25604 0.27424 0.0
C1834 C 0.57394 0.93651 0.96575 0.0
C1835 C 0.58071 0.94081 0.93533 0.0
C1836 C 0.57053 0.96077 0.98829 0.0
C1837 C 0.57178 0.99102 0.98184 0.0
H1838 H 0.57139 0.91396 0.97254 0.0
H1839 H 0.5665 0.95549 1.01115 0.0
S1840 S 0.58896 0.01581 0.90622 0.0
N1841 N 0.59122 0.97999 0.90193 0.0
N1842 N 0.57818 0.02224 0.94053 0.0
C1843 C 0.5761 0.99483 0.95064 0.0
C1844 C 0.58271 0.97112 0.92887 0.0
C1845 C 0.93547 0.76768 0.7606 0.0
C1846 C 0.96519 0.79051 0.77006 0.0
C1847 C 0.90598 0.77149 0.76899 0.0
C1848 C 0.90301 0.79852 0.7877 0.0
H1849 H 0.93476 0.74623 0.74644 0.0
H1850 H 0.885 0.75266 0.76044 0.0
S1851 S 0.97233 0.86646 0.81882 0.0
N1852 N 0.98774 0.84215 0.79982 0.0
N1853 N 0.93461 0.84883 0.81472 0.0
C1854 C 0.93248 0.8214 0.79717 0.0
C1855 C 0.96234 0.81758 0.78876 0.0
C1856 C 0.12813 0.05872 0.93149 0.0
C1857 C 0.11494 0.07305 0.90836 0.0
C1858 C 0.11537 0.05307 0.95904 0.0
C1859 C 0.08826 0.06106 0.96536 0.0
H1860 H 0.14924 0.05226 0.92861 0.0
H1861 H 0.12718 0.04253 0.97578 0.0
S1862 S 0.04481 0.10063 0.91398 0.0
N1863 N 0.07314 0.09597 0.89485 0.0
N1864 N 0.049 0.0851 0.94592 0.0
C1865 C 0.07437 0.07499 0.9423 0.0
C1866 C 0.08759 0.08096 0.91416 0.0
C1867 C 0.80303 0.39291 0.59916 0.0
C1868 C 0.82286 0.39824 0.57695 0.0
C1869 C 0.80917 0.37604 0.62273 0.0
C1870 C 0.83536 0.3644 0.6246 0.0
H1871 H 0.78319 0.40222 0.59861 0.0
H1872 H 0.79399 0.37298 0.6402 0.0
S1873 S 0.89281 0.37116 0.56997 0.0
N1874 N 0.86801 0.38933 0.55647 0.0
N1875 N 0.88026 0.35852 0.60118 0.0
C1876 C 0.85441 0.36862 0.60146 0.0
C1877 C 0.84801 0.38549 0.57754 0.0
C1878 C 0.4819 0.07937 0.43654 0.0
C1879 C 0.45314 0.059 0.43954 0.0
C1880 C 0.50915 0.08212 0.45714 0.0
C1881 C 0.50858 0.06441 0.48121 0.0
H1882 H 0.48362 0.09247 0.41741 0.0
H1883 H 0.5309 0.09779 0.45386 0.0
S1884 S 0.44023 1.0065 0.49848 0.0
N1885 N 0.4259 0.02188 0.46991 0.0
N1886 N 0.47809 0.0241 0.5056 0.0
C1887 C 0.48026 0.04405 0.48468 0.0
C1888 C 0.4522 0.04226 0.46469 0.0
C1889 C 0.81503 0.76887 0.15679 0.0
C1890 C 0.78616 0.76034 0.13677 0.0
C1891 C 0.81771 0.78005 0.18889 0.0
C1892 C 0.79171 0.78371 0.20265 0.0
H1893 H 0.83573 0.76644 0.14768 0.0
H1894 H 0.84056 0.78573 0.20308 0.0
S1895 S 0.71091 0.76627 0.1596 0.0
N1896 N 0.73113 0.75729 0.13264 0.0
N1897 N 0.73604 0.77866 0.19243 0.0
C1898 C 0.76279 0.77604 0.18249 0.0
C1899 C 0.76006 0.76427 0.14983 0.0
C1900 C 0.11602 0.10177 0.70563 0.0
C1901 C 0.10537 0.07753 0.72265 0.0
C1902 C 0.10439 0.09972 0.67353 0.0
C1903 C 0.08221 0.0729 0.65647 0.0
H1904 H 0.13347 0.12272 0.71731 0.0
H1905 H 0.11368 0.11896 0.66175 0.0
S1906 S 0.04664 1.0026 0.68956 0.0
N1907 N 0.07057 0.02601 0.71961 0.0
N1908 N 0.04996 0.02152 0.65964 0.0
C1909 C 0.07138 0.04851 0.67325 0.0
C1910 C 0.08254 0.05098 0.70609 0.0
C1911 C 0.83862 0.40025 0.41085 0.0
C1912 C 0.81458 0.41453 0.41324 0.0
C1913 C 0.83227 0.3706 0.39445 0.0
C1914 C 0.80181 0.35488 0.38016 0.0
H1915 H 0.86184 0.41092 0.42405 0.0
H1916 H 0.85105 0.35991 0.39309 0.0
S1917 S 0.73147 0.38269 0.37857 0.0
N1918 N 0.75998 0.4115 0.3994 0.0
N1919 N 0.74781 0.35548 0.36755 0.0
C1920 C 0.778 0.36943 0.38093 0.0
C1921 C 0.7845 0.39956 0.39765 0.0
C1922 C 0.47482 0.02274 0.27171 0.0
C1923 C 0.44309 0.02209 0.26744 0.0
C1924 C 0.48894 0.01406 0.24667 0.0
C1925 C 0.47198 1.00487 0.21634 0.0
H1926 H 0.48893 0.02999 0.29465 0.0
H1927 H 0.51365 0.01584 0.25084 0.0
S1928 S 0.38752 0.99563 0.19313 0.0
N1929 N 0.39437 0.00839 0.23101 0.0
N1930 N 0.42131 0.99313 0.18363 0.0
C1931 C 0.43994 1.00277 0.21188 0.0
C1932 C 0.42538 0.01106 0.23753 0.0
C1933 C 0.77406 0.74103 0.92235 0.0
C1934 C 0.78704 0.75687 0.95293 0.0
C1935 C 0.78164 0.75338 0.89547 0.0
C1936 C 0.80266 0.78281 0.89678 0.0
H1937 H 0.75801 0.71802 0.91879 0.0
H1938 H 0.7707 0.73919 0.8732 0.0
S1939 S 0.8413 0.83636 0.9706 0.0
N1940 N 0.82091 0.80523 0.98271 0.0
N1941 N 0.8347 0.82898 0.93206 0.0
C1942 C 0.81495 0.79994 0.92714 0.0
C1943 C 0.80724 0.787 0.95503 0.0
C1944 C 0.87568 0.14926 0.0647 0.0
C1945 C 0.85359 0.13489 0.08236 0.0
C1946 C 0.89383 0.1327 0.05019 0.0
C1947 C 0.88971 0.10135 0.0526 0.0
H1948 H 0.87786 0.1728 0.06092 0.0
H1949 H 0.91072 0.14419 0.03668 0.0
S1950 S 0.83768 0.05447 0.09887 0.0
N1951 N 0.831 0.08855 0.10383 0.0
N1952 N 0.8643 0.05747 0.07572 0.0
C1953 C 0.8687 0.08727 0.0711 0.0
C1954 C 0.85084 0.10407 0.08626 0.0
C1955 C 0.43858 0.4399 0.05908 0.0
C1956 C 0.41369 0.44758 0.07135 0.0
C1957 C 0.46656 0.46278 0.0582 0.0
C1958 C 0.47094 0.49432 0.06969 0.0
H1959 H 0.43594 0.41627 0.04888 0.0
H1960 H 0.48454 0.45574 0.04745 0.0
S1961 S 0.41589 0.52501 0.11144 0.0
N1962 N 0.39742 0.48792 0.10037 0.0
N1963 N 0.44951 0.53084 0.09821 0.0
C1964 C 0.44702 0.50185 0.08404 0.0
C1965 C 0.41865 0.4785 0.08514 0.0
C1966 C 0.42774 0.61858 0.78811 0.0
C1967 C 0.44066 0.60946 0.81506 0.0
C1968 C 0.41018 0.64011 0.79011 0.0
C1969 C 0.40463 0.65303 0.8191 0.0
H1970 H 0.42883 0.60704 0.76533 0.0
H1971 H 0.39898 0.6449 0.76869 0.0
S1972 S 0.43793 0.64042 0.8967 0.0
N1973 N 0.44998 0.61783 0.87162 0.0
N1974 N 0.41744 0.65815 0.87545 0.0
C1975 C 0.41978 0.64601 0.84622 0.0
C1976 C 0.43768 0.62434 0.84416 0.0
C1977 C 0.18687 0.65833 0.58671 0.0
C1978 C 0.20985 0.64841 0.60301 0.0
C1979 C 0.15648 0.63928 0.58011 0.0
C1980 C 0.14845 0.61023 0.59023 0.0
H1981 H 0.19283 0.67945 0.57678 0.0
H1982 H 0.13957 0.6469 0.56568 0.0
S1983 S 0.20012 0.57841 0.64051 0.0
N1984 N 0.22294 0.61121 0.63386 0.0
N1985 N 0.16496 0.57511 0.62164 0.0
C1986 C 0.17091 0.60156 0.60908 0.0
C1987 C 0.20193 0.62098 0.61569 0.0
C1988 C 0.74501 0.01627 0.82695 0.0
C1989 C 0.74512 0.02518 0.79742 0.0
C1990 C 0.76078 0.99523 0.83523 0.0
C1991 C 0.77697 0.98291 0.8141 0.0
H1992 H 0.73418 0.02697 0.84424 0.0
H1993 H 0.76115 0.98929 0.85849 0.0
S1994 S 0.78367 0.99895 0.73386 0.0
N1995 N 0.76191 0.02026 0.74689 0.0
N1996 N 0.79159 0.98007 0.76234 0.0
C1997 C 0.77608 0.99067 0.784 0.0
C1998 C 0.76004 0.01209 0.77562 0.0
C1999 C 0.73991 0.93279 0.51936 0.0
C2000 C 0.75787 0.93388 0.54841 0.0
C2001 C 0.71895 0.95077 0.51587 0.0
C2002 C 0.71503 0.97072 0.5413 0.0
H2003 H 0.74372 0.91952 0.49869 0.0
H2004 H 0.70658 0.94992 0.4928 0.0
S2005 S 0.75798 0.98352 0.62197 0.0
N2006 N 0.77098 0.95722 0.60281 0.0
N2007 N 0.73166 0.99082 0.59653 0.0
C2008 C 0.73221 0.97132 0.57068 0.0
C2009 C 0.75356 0.95299 0.57417 0.0
C2010 C 0.42545 0.42549 0.805 0.0
C2011 C 0.41834 0.4481 0.78864 0.0
C2012 C 0.40217 0.3984 0.8071 0.0
C2013 C 0.37079 0.39239 0.79249 0.0
H2014 H 0.4488 0.42947 0.81759 0.0
H2015 H 0.40886 0.38244 0.82113 0.0
S2016 S 0.34227 0.44118 0.74039 0.0
N2017 N 0.37917 0.46064 0.7534 0.0
N2018 N 0.3356 0.40971 0.75685 0.0
C2019 C 0.36412 0.41381 0.77395 0.0
C2020 C 0.38783 0.44155 0.77206 0.0
C2021 C 0.22326 0.69598 0.29563 0.0
C2022 C 0.22365 0.67613 0.26897 0.0
C2023 C 0.24569 0.72448 0.30283 0.0
C2024 C 0.26695 0.73286 0.28233 0.0
H2025 H 0.20904 0.68779 0.31281 0.0
H2026 H 0.24935 0.73714 0.32613 0.0
S2027 S 0.26118 0.69633 0.20088 0.0
N2028 N 0.23639 0.67106 0.21654 0.0
N2029 N 0.27587 0.72686 0.2283 0.0
C2030 C 0.26013 0.71727 0.25159 0.0
C2031 C 0.23889 0.68764 0.24518 0.0
C2032 C 0.51449 0.6781 0.4998 0.0
C2033 C 0.53016 0.70893 0.51531 0.0
C2034 C 0.5202 0.65029 0.50979 0.0
C2035 C 0.54288 0.6501 0.53587 0.0
H2036 H 0.49692 0.67514 0.47957 0.0
H2037 H 0.50655 0.62828 0.49628 0.0
S2038 S 0.59236 0.72388 0.58502 0.0
N2039 N 0.57044 0.73616 0.55921 0.0
N2040 N 0.58176 0.68578 0.57641 0.0
C2041 C 0.55916 0.68081 0.55127 0.0
C2042 C 0.55274 0.70914 0.54161 0.0
C2043 C 0.70552 0.34945 0.71884 0.0
C2044 C 0.69486 0.33098 0.68889 0.0
C2045 C 0.73034 0.34582 0.74068 0.0
C2046 C 0.74653 0.32341 0.73434 0.0
H2047 H 0.69424 0.36689 0.72578 0.0
H2048 H 0.73683 0.36081 0.76304 0.0
S2049 S 0.72572 0.26576 0.66174 0.0
N2050 N 0.70164 0.28712 0.65592 0.0
N2051 N 0.74755 0.28069 0.69612 0.0
C2052 C 0.73592 0.30452 0.70473 0.0
C2053 C 0.71054 0.30814 0.68247 0.0
C2054 C 0.03713 0.4106 0.04982 0.0
C2055 C 0.02303 0.39806 0.01832 0.0
C2056 C 0.04271 0.44298 0.06249 0.0
C2057 C 0.03391 0.46464 0.04469 0.0
H2058 H 0.0452 0.3958 0.06444 0.0
H2059 H 0.05481 0.45124 0.08616 0.0
S2060 S 0.99632 0.44627 0.9622 0.0
N2061 N 1.00149 0.41343 0.97041 0.0
N2062 N 1.0099 0.47074 0.99484 0.0
C2063 C 1.01926 0.45243 0.01416 0.0
C2064 C 1.01437 0.42045 1.00102 0.0
C2065 C 0.02187 0.82682 0.19237 0.0
C2066 C 1.01747 0.8047 0.16542 0.0
C2067 C 1.00065 0.82323 0.21397 0.0
C2068 C 0.97467 0.7969 0.21003 0.0
H2069 H 0.04176 0.84723 0.19672 0.0
H2070 H 1.0049 0.84092 0.23417 0.0
S2071 S 0.95242 0.73183 0.14441 0.0
N2072 N 0.98397 0.75574 0.1363 0.0
N2073 N 0.94593 0.74827 0.17765 0.0
C2074 C 0.97007 0.77462 0.18351 0.0
C2075 C 0.99093 0.7787 0.16106 0.0
C2076 C 0.54865 0.36867 0.1877 0.0
C2077 C 0.55654 0.3411 0.17997 0.0
C2078 C 0.55799 0.39384 0.17154 0.0
C2079 C 0.57513 0.39221 0.14664 0.0
H2080 H 0.53403 0.37031 0.20537 0.0
H2081 H 0.55091 0.4144 0.17799 0.0
S2082 S 0.60194 0.32479 0.11813 0.0
N2083 N 0.58385 0.31416 0.14732 0.0
N2084 N 0.59964 0.36009 0.11573 0.0
C2085 C 0.58389 0.36491 0.13955 0.0
C2086 C 0.57497 0.33974 0.15644 0.0
C2087 C 0.96785 0.37327 0.35578 0.0
C2088 C 0.9831 0.34957 0.35367 0.0
C2089 C 0.93459 0.36764 0.34743 0.0
C2090 C 0.91353 0.33747 0.33849 0.0
H2091 H 0.98145 0.39646 0.36568 0.0
H2092 H 0.92519 0.38723 0.34956 0.0
S2093 S 0.93977 0.26594 0.33331 0.0
N2094 N 0.97283 0.29394 0.34357 0.0
N2095 N 0.91173 0.28311 0.32999 0.0
C2096 C 0.92838 0.31338 0.33736 0.0
C2097 C 0.96228 0.31935 0.34465 0.0
C2098 C 0.06172 0.67286 0.67432 0.0
C2099 C 0.03342 0.68108 0.67424 0.0
C2100 C 0.06535 0.64945 0.65137 0.0
C2101 C 0.04102 0.63291 0.62664 0.0
H2102 H 0.08176 0.68544 0.69171 0.0
H2103 H 0.08783 0.64481 0.65257 0.0
S2104 S 0.96093 0.64206 0.61753 0.0
N2105 N 0.97981 0.66829 0.64808 0.0
N2106 N 0.98656 0.6249 0.60574 0.0
C2107 C 1.01239 0.6402 0.62686 0.0
C2108 C 1.00867 0.66399 0.65023 0.0
C2109 C 0.67123 0.85867 0.82155 0.0
C2110 C 0.65617 0.84744 0.8468 0.0
C2111 C 0.69913 0.85161 0.81215 0.0
C2112 C 0.71503 0.83197 0.82648 0.0
H2113 H 0.66129 0.87349 0.80849 0.0
H2114 H 0.70833 0.86186 0.79296 0.0
S2115 S 0.68762 0.79575 0.89411 0.0
N2116 N 0.66193 0.81493 0.88599 0.0
N2117 N 0.71202 0.80194 0.86871 0.0
C2118 C 0.70027 0.8205 0.85164 0.0
C2119 C 0.67204 0.82791 0.86143 0.0
C2120 C 0.48809 0.55694 0.68324 0.0
C2121 C 0.50331 0.54406 0.70624 0.0
C2122 C 0.49961 0.56238 0.65473 0.0
C2123 C 0.52707 0.5553 0.64744 0.0
H2124 H 0.46725 0.56334 0.68746 0.0
H2125 H 0.4869 0.5725 0.63832 0.0
S2126 S 0.57308 0.51662 0.69711 0.0
N2127 N 0.54593 0.52172 0.71771 0.0
N2128 N 0.567 0.53143 0.66507 0.0
C2129 C 0.54185 0.54153 0.66986 0.0
C2130 C 0.53022 0.53611 0.6988 0.0
C2131 C 0.78821 0.24835 0.03954 0.0
C2132 C 0.79235 0.21891 0.0311 0.0
C2133 C 0.78676 0.26806 0.01758 0.0
C2134 C 0.79014 0.25922 0.98677 0.0
H2135 H 0.78463 0.25574 0.06292 0.0
H2136 H 0.78212 0.2899 0.02447 0.0
S2137 S 0.80497 0.18667 0.95343 0.0
N2138 N 0.8022 0.18319 0.99017 0.0
N2139 N 0.80007 0.22073 0.94908 0.0
C2140 C 0.79613 0.23085 0.97839 0.0
C2141 C 0.79707 0.21053 1.00053 0.0
C2142 C 0.14452 0.54329 0.15659 0.0
C2143 C 0.16248 0.57199 0.17338 0.0
C2144 C 0.11882 0.54138 0.13427 0.0
C2145 C 0.11043 0.56806 0.12888 0.0
H2146 H 0.14886 0.52218 0.1625 0.0
H2147 H 0.10409 0.51881 0.12295 0.0
S2148 S 0.15167 0.64879 0.1646 0.0
N2149 N 0.17209 0.62788 0.181 0.0
N2150 N 0.12299 0.62396 0.13947 0.0
C2151 C 0.12956 0.59704 0.14356 0.0
C2152 C 0.15604 0.5991 0.16578 0.0
C2153 C 0.83835 0.8369 0.46016 0.0
C2154 C 0.82229 0.85862 0.4692 0.0
C2155 C 0.83674 0.82468 0.42808 0.0
C2156 C 0.81945 0.83407 0.40362 0.0
H2157 H 0.85348 0.8305 0.47776 0.0
H2158 H 0.84983 0.8085 0.42242 0.0
S2159 S 0.77208 0.8897 0.41549 0.0
N2160 N 0.78699 0.88713 0.45096 0.0
N2161 N 0.78504 0.86638 0.39236 0.0
C2162 C 0.80259 0.85509 0.41298 0.0
C2163 C 0.80368 0.86665 0.44512 0.0
C2164 C 0.51852 0.51449 0.90393 0.0
C2165 C 0.51443 0.53974 0.88967 0.0
C2166 C 0.53019 0.51792 0.93617 0.0
C2167 C 0.53817 0.54679 0.95582 0.0
H2168 H 0.51086 0.49148 0.89047 0.0
H2169 H 0.53126 0.49744 0.94605 0.0
S2170 S 0.53598 0.62102 0.92911 0.0
N2171 N 0.52213 0.59501 0.89732 0.0
N2172 N 0.54455 0.60186 0.95708 0.0
C2173 C 0.53629 0.57256 0.94123 0.0
C2174 C 0.52433 0.56894 0.90852 0.0
C2175 C 0.84106 0.23454 0.22411 0.0
C2176 C 0.81638 0.22573 0.19906 0.0
C2177 C 0.84341 0.25985 0.24672 0.0
C2178 C 0.82157 0.27678 0.24374 0.0
H2179 H 0.85959 0.22341 0.22496 0.0
H2180 H 0.86329 0.26737 0.26536 0.0
S2181 S 0.75065 0.26045 0.18531 0.0
N2182 N 0.76775 0.23371 0.17519 0.0
N2183 N 0.77309 0.28158 0.21722 0.0
C2184 C 0.79566 0.26677 0.22054 0.0
C2185 C 0.79281 0.24092 0.19817 0.0
C2186 C 0.14369 0.6001 0.33906 0.0
C2187 C 0.17548 0.60268 0.34853 0.0
C2188 C 0.12507 0.60717 0.36056 0.0
C2189 C 0.13767 0.61752 0.39212 0.0
H2190 H 0.13314 0.59318 0.31477 0.0
H2191 H 0.10061 0.60453 0.35249 0.0
S2192 S 0.21926 0.62884 0.42936 0.0
N2193 N 0.21856 0.61622 0.39225 0.0
N2194 N 0.18347 0.63052 0.43217 0.0
C2195 C 0.16934 0.6207 0.40203 0.0
C2196 C 0.18825 0.61293 0.38036 0.0
C2197 C 0.82311 0.88645 0.68192 0.0
C2198 C 0.81818 0.86573 0.65366 0.0
C2199 C 0.81828 0.87615 0.71098 0.0
C2200 C 0.80784 0.84443 0.71376 0.0
H2201 H 0.83109 0.91107 0.68172 0.0
H2202 H 0.8229 0.89342 0.73161 0.0
S2203 S 0.79246 0.78 0.64757 0.0
N2204 N 0.80283 0.81129 0.63124 0.0
N2205 N 0.79363 0.79235 0.68485 0.0
C2206 C 0.80269 0.82345 0.68567 0.0
C2207 C 0.80785 0.83391 0.65615 0.0
C2208 C 0.76705 0.52572 0.5176 0.0
C2209 C 0.76648 0.49477 0.51876 0.0
C2210 C 0.7504 0.54036 0.53604 0.0
C2211 C 0.73233 0.52459 0.55605 0.0
H2212 H 0.78089 0.53911 0.50276 0.0
H2213 H 0.75105 0.56405 0.53409 0.0
S2214 S 0.72164 0.44335 0.5676 0.0
N2215 N 0.74566 0.4487 0.54182 0.0
N2216 N 0.71355 0.47653 0.57574 0.0
C2217 C 0.73081 0.49361 0.55724 0.0
C2218 C 0.74805 0.4786 0.5387 0.0
C2219 C 0.1657 0.1715 0.51946 0.0
C2220 C 0.19588 0.17318 0.53392 0.0
C2221 C 0.13952 0.14722 0.52235 0.0
C2222 C 0.14218 0.12382 0.54032 0.0
H2223 H 0.16236 0.18868 0.5053 0.0
H2224 H 0.11696 0.14682 0.51019 0.0
S2225 S 0.21593 0.11974 0.58556 0.0
N2226 N 0.22669 0.15055 0.5686 0.0
N2227 N 0.1779 0.10534 0.57399 0.0
C2228 C 0.17229 0.1257 0.5553 0.0
C2229 C 0.19889 0.15031 0.55228 0.0
C2230 C 0.18156 1.00107 0.78764 0.0
C2231 C 0.18806 0.01765 0.81823 0.0
C2232 C 0.19758 0.97932 0.77877 0.0
C2233 C 0.22053 0.9734 0.80022 0.0
H2234 H 0.16508 1.0059 0.77013 0.0
H2235 H 0.19229 0.96736 0.75497 0.0
S2236 S 0.24602 0.00993 0.88305 0.0
N2237 N 0.21828 0.025 0.87021 0.0
N2238 N 0.24904 0.98599 0.85299 0.0
C2239 C 0.22671 0.98933 0.83083 0.0
C2240 C 0.21025 0.01082 0.83998 0.0
C2241 C 0.43324 0.97725 1.00306 0.0
C2242 C 0.4101 0.98859 0.01434 0.0
C2243 C 0.4636 0.99626 1.0069 0.0
C2244 C 0.47161 0.02663 0.02307 0.0
H2245 H 0.42771 0.95385 0.99071 0.0
H2246 H 0.48115 0.98682 0.99799 0.0
S2247 S 0.42016 0.06421 0.06228 0.0
N2248 N 0.39731 0.02988 0.04574 0.0
N2249 N 0.45496 0.06621 0.05281 0.0
C2250 C 0.44881 0.03795 0.03518 0.0
C2251 C 0.41787 0.01851 0.03125 0.0
C2252 C 0.87043 0.61233 0.82496 0.0
C2253 C 0.85431 0.593 0.84422 0.0
C2254 C 0.85706 0.63249 0.81025 0.0
C2255 C 0.82684 0.63367 0.81372 0.0
H2256 H 0.89348 0.61162 0.82073 0.0
H2257 H 0.87029 0.64699 0.79578 0.0
S2258 S 0.77553 0.59066 0.86323 0.0
N2259 N 0.80734 0.57903 0.86807 0.0
N2260 N 0.78164 0.61565 0.83864 0.0
C2261 C 0.81068 0.61529 0.8333 0.0
C2262 C 0.8246 0.59538 0.84911 0.0
C2263 C 0.86701 0.69163 0.07414 0.0
C2264 C 0.8518 0.68478 0.04287 0.0
C2265 C 0.88852 0.67599 0.08497 0.0
C2266 C 0.8959 0.65326 0.06488 0.0
H2267 H 0.86115 0.70802 0.09072 0.0
H2268 H 0.89897 0.68126 0.1093 0.0
S2269 S 0.86205 0.62564 0.9815 0.0
N2270 N 0.84646 0.65345 0.99207 0.0
N2271 N 0.88519 0.62366 0.01293 0.0
C2272 C 0.88109 0.64642 0.03373 0.0
C2273 C 0.8597 0.66238 0.02259 0.0
C2274 C 0.21924 0.16891 0.80948 0.0
C2275 C 0.19525 0.17054 0.8271 0.0
C2276 C 0.24289 0.19554 0.80662 0.0
C2277 C 0.24371 0.22513 0.8213 0.0
H2278 H 0.21963 0.14675 0.79757 0.0
H2279 H 0.26036 0.1929 0.79238 0.0
S2280 S 0.1876 0.24131 0.8724 0.0
N2281 N 0.17431 0.20377 0.8601 0.0
N2282 N 0.21901 0.25359 0.85624 0.0
C2283 C 0.22006 0.2268 0.8396 0.0
C2284 C 0.19574 0.19969 0.84196 0.0
C2285 C 0.34453 0.94658 0.32703 0.0
C2286 C 0.37725 0.95466 0.33482 0.0
C2287 C 0.32772 0.91709 0.31303 0.0
C2288 C 0.34367 0.89632 0.30351 0.0
H2289 H 0.33169 0.96291 0.3316 0.0
H2290 H 0.30245 0.91013 0.31094 0.0
S2291 S 0.4282 0.91105 0.30191 0.0
N2292 N 0.42466 0.94268 0.32197 0.0
N2293 N 0.39244 0.88749 0.29263 0.0
C2294 C 0.37599 0.90571 0.30501 0.0
C2295 C 0.39319 0.9351 0.3212 0.0
C2296 C 0.61026 0.42901 0.58321 0.0
C2297 C 0.58857 0.40723 0.59672 0.0
C2298 C 0.60479 0.45729 0.57422 0.0
C2299 C 0.57675 0.46614 0.57701 0.0
H2300 H 0.63165 0.4239 0.57873 0.0
H2301 H 0.62278 0.47216 0.56421 0.0
S2302 S 0.51245 0.41914 0.61232 0.0
N2303 N 0.5378 0.39867 0.61303 0.0
N2304 N 0.52776 0.44965 0.59638 0.0
C2305 C 0.55513 0.44463 0.59064 0.0
C2306 C 0.56084 0.4162 0.6001 0.0
C2307 C 0.43886 0.78248 0.39479 0.0
C2308 C 0.43871 0.79066 0.42709 0.0
C2309 C 0.41607 0.78643 0.37099 0.0
C2310 C 0.39113 0.79835 0.37784 0.0
H2311 H 0.45756 0.77381 0.38767 0.0
H2312 H 0.41827 0.78024 0.3469 0.0
S2313 S 0.37684 0.81925 0.45854 0.0
N2314 N 0.4088 0.80795 0.46417 0.0
N2315 N 0.36656 0.81529 0.42048 0.0
C2316 C 0.3894 0.80431 0.41014 0.0
C2317 C 0.41265 0.80026 0.4343 0.0
C2318 C 0.07388 0.7118 0.11553 0.0
C2319 C 0.08679 0.73441 0.0975 0.0
C2320 C 0.06961 0.67961 0.10653 0.0
C2321 C 0.07926 0.6672 0.07941 0.0
H2322 H 0.06654 0.71912 0.13713 0.0
H2323 H 0.05898 0.6642 0.1217 0.0
S2324 S 0.11698 0.71587 0.02426 0.0
N2325 N 0.11042 0.74138 0.05091 0.0
N2326 N 0.10372 0.68162 0.03473 0.0
C2327 C 0.09303 0.68955 0.06127 0.0
C2328 C 0.09651 0.72262 0.07007 0.0
C2329 C 0.11917 0.31213 0.94397 0.0
C2330 C 0.09881 0.33081 0.94107 0.0
C2331 C 0.14441 0.31527 0.92681 0.0
C2332 C 0.15011 0.33711 0.90615 0.0
H2333 H 0.11466 0.29398 0.95814 0.0
H2334 H 0.15899 0.29989 0.92899 0.0
S2335 S 0.10458 0.39215 0.89034 0.0
N2336 N 0.08848 0.374 0.91718 0.0
N2337 N 0.13315 0.37717 0.8837 0.0
C2338 C 0.13065 0.35642 0.9039 0.0
C2339 C 0.10591 0.35407 0.92176 0.0
C2340 C 0.52623 0.7626 0.94097 0.0
C2341 C 0.54921 0.76469 0.92158 0.0
C2342 C 0.51967 0.73901 0.9593 0.0
C2343 C 0.53628 0.71676 0.95956 0.0
H2344 H 0.5139 0.78006 0.94281 0.0
H2345 H 0.50248 0.73917 0.97456 0.0
S2346 S 0.59716 0.71057 0.91085 0.0
N2347 N 0.5872 0.74139 0.90204 0.0
N2348 N 0.57536 0.69721 0.9367 0.0
C2349 C 0.55854 0.71791 0.93924 0.0
C2350 C 0.56488 0.74179 0.92021 0.0
C2351 C 0.15007 0.78035 0.79143 0.0
C2352 C 0.13772 0.7867 0.76209 0.0
C2353 C 0.18291 0.78279 0.80058 0.0
C2354 C 0.20593 0.79174 0.78107 0.0
H2355 H 0.13414 0.77284 0.80744 0.0
H2356 H 0.19031 0.77799 0.82346 0.0
S2357 S 0.18695 0.81022 0.70169 0.0
N2358 N 0.15274 0.80174 0.71368 0.0
N2359 N 0.21239 0.80663 0.7305 0.0
C2360 C 0.1937 0.79812 0.75194 0.0
C2361 C 0.16059 0.79537 0.7426 0.0
C2362 C 0.08899 0.47373 0.43561 0.0
C2363 C 0.08173 0.442 0.43913 0.0
C2364 C 0.08466 0.49738 0.4582 0.0
C2365 C 0.07263 0.49123 0.48613 0.0
H2366 H 0.09791 0.48052 0.41487 0.0
H2367 H 0.09086 0.52092 0.45355 0.0
S2368 S 0.04715 0.41194 0.50642 0.0
N2369 N 0.06001 0.40626 0.47313 0.0
N2370 N 0.05214 0.44949 0.51444 0.0
C2371 C 0.06488 0.45952 0.48967 0.0
C2372 C 0.06935 0.43554 0.46678 0.0
C2373 C 0.44911 0.28673 0.28407 0.0
C2374 C 0.44879 0.27688 0.25152 0.0
C2375 C 0.42284 0.29456 0.29677 0.0
C2376 C 0.39343 0.29278 0.27827 0.0
H2377 H 0.47006 0.28875 0.30021 0.0
H2378 H 0.42561 0.30161 0.32169 0.0
S2379 S 0.37862 0.26999 0.19196 0.0
N2380 N 0.41434 0.26748 0.20166 0.0
N2381 N 0.36748 0.2809 0.22489 0.0
C2382 C 0.39302 0.28312 0.24608 0.0
C2383 C 0.4195 0.2757 0.23315 0.0
C2384 C 0.62776 0.55707 0.43047 0.0
C2385 C 0.61477 0.57228 0.40812 0.0
C2386 C 0.61518 0.55102 0.45793 0.0
C2387 C 0.58839 0.55925 0.46469 0.0
H2388 H 0.64868 0.55038 0.42717 0.0
H2389 H 0.62698 0.54016 0.47436 0.0
S2390 S 0.54508 0.60026 0.41517 0.0
N2391 N 0.57322 0.59585 0.39561 0.0
N2392 N 0.54926 0.58393 0.44658 0.0
C2393 C 0.57443 0.57371 0.44231 0.0
C2394 C 0.58755 0.58025 0.4143 0.0
C2395 C 0.35281 0.89256 0.08514 0.0
C2396 C 0.3302 0.90865 0.0865 0.0
C2397 C 0.35898 0.87553 0.10841 0.0
C2398 C 0.34272 0.87409 0.13378 0.0
H2399 H 0.36574 0.89305 0.06579 0.0
H2400 H 0.3768 0.86366 0.10673 0.0
S2401 S 0.27977 0.91049 0.14691 0.0
N2402 N 0.2905 0.92113 0.11416 0.0
N2403 N 0.30223 0.88911 0.15846 0.0
C2404 C 0.31983 0.8899 0.13533 0.0
C2405 C 0.3135 0.90722 0.11147 0.0
C2406 C 0.97936 0.57482 0.93759 0.0
C2407 C 0.95044 0.55492 0.94097 0.0
C2408 C 1.00645 0.57855 0.95892 0.0
C2409 C 1.00562 0.56241 0.98426 0.0
H2410 H 0.9813 0.58703 0.91782 0.0
H2411 H 0.02824 0.59396 0.95538 0.0
S2412 S 0.93703 0.50554 1.0026 0.0
N2413 N 0.92307 0.51895 0.97229 0.0
N2414 N 0.97473 0.5238 1.0102 0.0
C2415 C 0.9772 0.54229 0.98792 0.0
C2416 C 0.94936 0.5392 0.96689 0.0
C2417 C 0.30992 0.28863 0.65349 0.0
C2418 C 0.2855 0.26289 0.63763 0.0
C2419 C 0.31234 0.29934 0.68578 0.0
C2420 C 0.28977 0.28571 0.70366 0.0
H2421 H 0.32792 0.30005 0.64108 0.0
H2422 H 0.33222 0.31848 0.69693 0.0
S2423 S 0.22005 0.21897 0.67324 0.0
N2424 N 0.23775 0.22465 0.64265 0.0
N2425 N 0.24154 0.24559 0.70233 0.0
C2426 C 0.26463 0.26077 0.68782 0.0
C2427 C 0.2627 0.2492 0.65522 0.0
C2428 C 0.58199 0.59235 0.21247 0.0
C2429 C 0.60491 0.5786 0.22412 0.0
C2430 C 0.57159 0.58971 0.17988 0.0
C2431 C 0.58327 0.57276 0.15733 0.0
H2432 H 0.57254 0.60594 0.22865 0.0
H2433 H 0.55442 0.60121 0.17237 0.0
S2434 S 0.64094 0.52905 0.17629 0.0
N2435 N 0.63729 0.54587 0.21061 0.0
N2436 N 0.6176 0.53968 0.1505 0.0
C2437 C 0.60539 0.55793 0.16917 0.0
C2438 C 0.61622 0.56118 0.20209 0.0
C2439 C 0.28331 0.88004 0.91719 0.0
C2440 C 0.30589 0.90793 0.91644 0.0
C2441 C 0.28179 0.8532 0.89719 0.0
C2442 C 0.30358 0.85354 0.87689 0.0
H2443 H 0.26782 0.87867 0.93442 0.0
H2444 H 0.26425 0.83195 0.8983 0.0
S2445 S 0.36766 0.92025 0.86696 0.0
N2446 N 0.34778 0.93476 0.89094 0.0
N2447 N 0.34997 0.88278 0.85931 0.0
C2448 C 0.3262 0.88107 0.87602 0.0
C2449 C 0.32582 0.90885 0.89412 0.0
C2450 C 0.96767 0.54007 0.76456 0.0
C2451 C 0.93992 0.51905 0.76883 0.0
C2452 C 0.98304 0.53399 0.7397 0.0
C2453 C 0.97158 0.50642 0.71833 0.0
H2454 H 0.97769 0.56154 0.78058 0.0
H2455 H 1.00421 0.55103 0.73718 0.0
S2456 S 0.90088 0.4427 0.71963 0.0
N2457 N 0.90211 0.46867 0.74994 0.0
N2458 N 0.93147 0.45735 0.70314 0.0
C2459 C 0.94424 0.48476 0.72243 0.0
C2460 C 0.92824 0.49107 0.74766 0.0
C2461 C 0.3066 0.24342 0.42884 0.0
C2462 C 0.29206 0.25598 0.45214 0.0
C2463 C 0.31168 0.25617 0.40123 0.0
C2464 C 0.30281 0.28262 0.39495 0.0
H2465 H 0.31366 0.22277 0.4316 0.0
H2466 H 0.32244 0.24483 0.38439 0.0
S2467 S 0.2629 0.3247 0.44712 0.0
N2468 N 0.26837 0.29677 0.46611 0.0
N2469 N 0.27815 0.32089 0.41489 0.0
C2470 C 0.28883 0.29602 0.41827 0.0
C2471 C 0.28347 0.28281 0.44651 0.0
C2472 C 0.381 0.64181 0.57474 0.0
C2473 C 0.34953 0.62424 0.56893 0.0
C2474 C 0.40371 0.6296 0.56323 0.0
C2475 C 0.39512 0.59987 0.54546 0.0
H2476 H 0.38791 0.66511 0.58756 0.0
H2477 H 0.428 0.6432 0.56838 0.0
S2478 S 0.31657 0.54357 0.52694 0.0
N2479 N 0.3116 0.5748 0.54626 0.0
N2480 N 0.35415 0.55241 0.52487 0.0
C2481 C 0.36398 0.58204 0.5402 0.0
C2482 C 0.34118 0.59409 0.55198 0.0
C2483 C 0.94236 0.94184 0.55952 0.0
C2484 C 0.91875 0.94929 0.57429 0.0
C2485 C 0.96977 0.96482 0.55735 0.0
C2486 C 0.97506 0.99623 0.57029 0.0
H2487 H 0.93887 0.91847 0.54798 0.0
H2488 H 0.98651 0.95787 0.54448 0.0
S2489 S 0.92368 0.02575 0.6186 0.0
N2490 N 0.9047 0.98888 0.60692 0.0
N2491 N 0.95607 0.03193 0.60315 0.0
C2492 C 0.95275 1.00326 0.58762 0.0
C2493 C 0.92475 0.97983 0.58963 0.0
C2494 C 0.92267 0.11626 0.34797 0.0
C2495 C 0.94008 0.11126 0.32406 0.0
C2496 C 0.90918 0.14056 0.35022 0.0
C2497 C 0.91301 0.16169 0.32915 0.0
H2498 H 0.91749 0.1 0.36411 0.0
H2499 H 0.89373 0.14127 0.36726 0.0
S2500 S 0.96523 0.16571 0.26942 0.0
N2501 N 0.9663 0.13377 0.28346 0.0
N2502 N 0.94183 0.18065 0.28857 0.0
C2503 C 0.93387 0.15966 0.3079 0.0
C2504 C 0.94738 0.13432 0.30527 0.0
C2505 C 0.69095 0.15083 0.11874 0.0
C2506 C 0.71455 0.14762 0.10252 0.0
C2507 C 0.66245 0.12889 0.10921 0.0
C2508 C 0.65882 0.10537 0.08359 0.0
H2509 H 0.69455 0.169 0.13838 0.0
H2510 H 0.64291 0.13065 0.12084 0.0
S2511 S 0.74773 0.09479 0.028 0.0
N2512 N 0.72338 0.1111 0.05834 0.0
N2513 N 0.71863 0.11097 0.06059 0.0
C2514 C 0.68315 0.10121 0.06641 0.0
C2515 C 0.70824 0.12114 0.07711 0.0
C2516 C 0.24592 0.52137 0.31494 0.0
C2517 C 0.25023 0.53075 0.28598 0.0
C2518 C 0.25953 0.49949 0.32545 0.0
C2519 C 0.27768 0.48657 0.30712 0.0
H2520 H 0.23315 0.53213 0.33013 0.0
H2521 H 0.25645 0.49313 0.34818 0.0
S2522 S 0.29524 0.50319 0.22943 0.0
N2523 N 0.27316 0.52554 0.23904 0.0
N2524 N 0.29857 0.48367 0.25854 0.0
C2525 C 0.28112 0.49492 0.27761 0.0
C2526 C 0.26738 0.5173 0.26702 0.0
C2527 C 0.259 0.45708 0.07094 0.0
C2528 C 0.25421 0.42937 0.05038 0.0
C2529 C 0.23742 0.4744 0.0694 0.0
C2530 C 0.20998 0.46476 0.04718 0.0
H2531 H 0.28073 0.46657 0.08707 0.0
H2532 H 0.24315 0.49644 0.08457 0.0
S2533 S 0.18371 0.39119 0.99141 0.0
N2534 N 0.21828 0.39127 1.00942 0.0
N2535 N 0.17723 0.42353 1.00674 0.0
C2536 C 0.20372 0.43593 0.02792 0.0
C2537 C 0.22589 0.41827 0.02952 0.0
C2538 C 0.88454 0.94589 0.27518 0.0
C2539 C 0.91685 0.94972 0.2838 0.0
C2540 C 0.86167 0.91801 0.27668 0.0
C2541 C 0.87018 0.8924 0.28613 0.0
H2542 H 0.87676 0.96507 0.26837 0.0
H2543 H 0.83722 0.91704 0.27157 0.0
S2544 S 0.95198 0.88699 0.29931 0.0
N2545 N 0.95603 0.92314 0.29427 0.0
N2546 N 0.91404 0.87085 0.2962 0.0
C2547 C 0.90262 0.89484 0.29055 0.0
C2548 C 0.92567 0.92329 0.28935 0.0
C2549 C 0.77075 0.17338 0.76157 0.0
C2550 C 0.74058 0.16996 0.76831 0.0
C2551 C 0.79198 0.20203 0.767 0.0
C2552 C 0.78305 0.22793 0.77806 0.0
H2553 H 0.7785 0.15359 0.75355 0.0
H2554 H 0.81568 0.20374 0.76303 0.0
S2555 S 0.70438 0.23152 0.79125 0.0
N2556 N 0.70083 0.19431 0.78172 0.0
N2557 N 0.74122 0.24976 0.7903 0.0
C2558 C 0.75214 0.22535 0.78204 0.0
C2559 C 0.73044 0.19576 0.777 0.0
loop_
_geom_bond_atom_site_label_1
_geom_bond_atom_site_label_2
_geom_bond_distance
_geom_bond_site_symmetry_2
_ccdc_geom_bond_type
Mn0 O5 2.095 . S
Mn0 O15 2.162 . S
Mn0 O16 2.297 . S
Mn0 O24 2.385 1_455 S
Mn0 O25 2.209 . S
Mn0 O26 2.094 . S
Mn1 O6 2.121 . S
Mn1 N8 2.257 . S
Mn1 N17 2.282 . S
Mn1 O25 2.215 . S
Mn1 O27 2.117 . S
C2 O24 1.234 . S
C2 O25 1.283 1_655 S
C3 O15 1.281 . S
C3 O16 1.236 . S
C4 O26 1.240 . S
C4 O27 1.264 . S
O5 Mn0 2.095 . S
O5 C14 1.250 . S
O6 Mn1 2.121 . S
O6 C14 1.258 . S
C7 N8 1.326 . S
C7 C11 1.460 . S
C7 H13 0.929 . S
N8 Mn1 2.257 . S
N8 C7 1.326 . S
N8 C12 1.365 1_455 S
C9 C10 1.258 . S
C9 C12 1.430 . S
C9 C29 1.449 . S
C10 C9 1.258 . S
C10 C11 1.477 1_655 S
C10 H30 0.931 . S
C11 C7 1.460 . S
C11 C10 1.477 1_455 S
C11 H31 0.930 . S
C12 N8 1.365 1_655 S
C12 C9 1.430 . S
C12 C22 1.474 . S
H13 C7 0.929 . S
C14 O5 1.250 . S
C14 O6 1.258 . S
O15 Mn0 2.162 . S
O15 C3 1.281 . S
O16 Mn0 2.297 . S
O16 C3 1.236 . S
N17 Mn1 2.282 . S
N17 C18 1.328 1_455 S
N17 C22 1.318 1_455 S
C18 N17 1.328 1_655 S
C18 C19 1.457 . S
C18 H23 0.941 . S
C19 C18 1.457 . S
C19 C20 1.291 . S
C19 H32 0.931 . S
C20 C19 1.291 . S
C20 C21 1.373 . S
C20 H33 0.929 . S
C21 C20 1.373 . S
C21 C22 1.396 . S
C21 C28 1.403 . S
C22 C12 1.474 . S
C22 N17 1.318 1_655 S
C22 C21 1.396 . S
H23 C18 0.941 . S
O24 Mn0 2.385 1_655 S
O24 C2 1.234 . S
O25 Mn0 2.209 . S
O25 Mn1 2.215 . S
O25 C2 1.283 1_455 S
O26 Mn0 2.094 . S
O26 C4 1.240 . S
O27 Mn1 2.117 . S
O27 C4 1.264 . S
C28 C21 1.403 . S
C28 C29 1.399 . S
C28 H34 0.929 . S
C29 C9 1.449 . S
C29 C28 1.399 . S
C29 H35 0.930 . S
H30 C10 0.931 . S
H31 C11 0.930 . S
H32 C19 0.931 . S
H33 C20 0.929 . S
H34 C28 0.929 . S
H35 C29 0.930 . S
Mn36 O41 2.095 1_455 S
Mn36 O51 2.162 . S
Mn36 O52 2.297 . S
Mn36 O60 2.385 . S
Mn36 O61 2.209 . S
Mn36 O62 2.094 . S
Mn37 O42 2.121 . S
Mn37 N44 2.257 . S
Mn37 N53 2.282 . S
Mn37 O61 2.215 . S
Mn37 O63 2.117 . S
C38 O60 1.234 . S
C38 O61 1.283 . S
C39 O51 1.281 . S
C39 O52 1.236 . S
C40 O62 1.240 . S
C40 O63 1.264 . S
O41 Mn36 2.095 1_655 S
O41 C50 1.250 . S
O42 Mn37 2.121 . S
O42 C50 1.258 1_455 S
C43 N44 1.326 . S
C43 C47 1.460 . S
C43 H49 0.929 . S
N44 Mn37 2.257 . S
N44 C43 1.326 . S
N44 C48 1.362 . S
C45 C46 1.258 . S
C45 C48 1.431 . S
C45 C65 1.449 . S
C46 C45 1.258 . S
C46 C47 1.477 . S
C46 H66 0.931 . S
C47 C43 1.460 . S
C47 C46 1.477 . S
C47 H67 0.930 . S
C48 N44 1.362 . S
C48 C45 1.431 . S
C48 C58 1.476 . S
H49 C43 0.929 . S
C50 O41 1.250 . S
C50 O42 1.258 1_655 S
O51 Mn36 2.162 . S
O51 C39 1.281 . S
O52 Mn36 2.297 . S
O52 C39 1.236 . S
N53 Mn37 2.282 . S
N53 C54 1.328 . S
N53 C58 1.318 . S
C54 N53 1.328 . S
C54 C55 1.457 . S
C54 H59 0.929 . S
C55 C54 1.457 . S
C55 C56 1.291 . S
C55 H68 0.931 . S
C56 C55 1.291 . S
C56 C57 1.373 . S
C56 H69 0.929 . S
C57 C56 1.373 . S
C57 C58 1.396 . S
C57 C64 1.403 . S
C58 C48 1.476 . S
C58 N53 1.318 . S
C58 C57 1.396 . S
H59 C54 0.929 . S
O60 Mn36 2.385 . S
O60 C38 1.234 . S
O61 Mn36 2.209 . S
O61 Mn37 2.215 . S
O61 C38 1.283 . S
O62 Mn36 2.094 . S
O62 C40 1.240 . S
O63 Mn37 2.117 . S
O63 C40 1.264 . S
C64 C57 1.403 . S
C64 C65 1.399 . S
C64 H70 0.929 . S
C65 C45 1.449 . S
C65 C64 1.399 . S
C65 H71 0.930 . S
H66 C46 0.931 . S
H67 C47 0.930 . S
H68 C55 0.931 . S
H69 C56 0.929 . S
H70 C64 0.929 . S
H71 C65 0.930 . S
Mn72 O77 2.095 . S
Mn72 O87 2.162 . S
Mn72 O88 2.297 . S
Mn72 O96 2.385 . S
Mn72 O97 2.209 . S
Mn72 O98 2.094 . S
Mn73 O78 2.121 . S
Mn73 N80 2.257 . S
Mn73 N89 2.282 . S
Mn73 O97 2.215 . S
Mn73 O99 2.117 . S
C74 O96 1.234 . S
C74 O97 1.283 . S
C75 O87 1.281 . S
C75 O88 1.236 . S
C76 O98 1.240 . S
C76 O99 1.264 . S
O77 Mn72 2.095 . S
O77 C86 1.250 . S
O78 Mn73 2.121 . S
O78 C86 1.258 . S
C79 N80 1.326 . S
C79 C83 1.460 . S
C79 H85 0.929 . S
N80 Mn73 2.257 . S
N80 C79 1.326 . S
N80 C84 1.362 . S
C81 C82 1.258 . S
C81 C84 1.431 . S
C81 C101 1.449 . S
C82 C81 1.258 . S
C82 C83 1.477 . S
C82 H102 0.931 . S
C83 C79 1.460 . S
C83 C82 1.477 . S
C83 H103 0.930 . S
C84 N80 1.362 . S
C84 C81 1.431 . S
C84 C94 1.476 . S
H85 C79 0.929 . S
C86 O77 1.250 . S
C86 O78 1.258 . S
O87 Mn72 2.162 . S
O87 C75 1.281 . S
O88 Mn72 2.297 . S
O88 C75 1.236 . S
N89 Mn73 2.282 . S
N89 C90 1.328 . S
N89 C94 1.318 . S
C90 N89 1.328 . S
C90 C91 1.457 . S
C90 H95 0.929 . S
C91 C90 1.457 . S
C91 C92 1.291 . S
C91 H104 0.931 . S
C92 C91 1.291 . S
C92 C93 1.373 . S
C92 H105 0.929 . S
C93 C92 1.373 . S
C93 C94 1.396 . S
C93 C100 1.403 . S
C94 C84 1.476 . S
C94 N89 1.318 . S
C94 C93 1.396 . S
H95 C90 0.929 . S
O96 Mn72 2.385 . S
O96 C74 1.234 . S
O97 Mn72 2.209 . S
O97 Mn73 2.215 . S
O97 C74 1.283 . S
O98 Mn72 2.094 . S
O98 C76 1.240 . S
O99 Mn73 2.117 . S
O99 C76 1.264 . S
C100 C93 1.403 . S
C100 C101 1.399 . S
C100 H106 0.929 . S
C101 C81 1.449 . S
C101 C100 1.399 . S
C101 H107 0.930 . S
H102 C82 0.931 . S
H103 C83 0.930 . S
H104 C91 0.931 . S
H105 C92 0.929 . S
H106 C100 0.929 . S
H107 C101 0.930 . S
Mn108 O113 2.095 . S
Mn108 O123 2.162 . S
Mn108 O124 2.297 . S
Mn108 O132 2.385 . S
Mn108 O133 2.209 . S
Mn108 O134 2.094 . S
Mn109 O114 2.121 . S
Mn109 N116 2.257 . S
Mn109 N125 2.282 . S
Mn109 O133 2.215 . S
Mn109 O135 2.117 . S
C110 O132 1.234 . S
C110 O133 1.283 . S
C111 O123 1.281 . S
C111 O124 1.236 . S
C112 O134 1.240 . S
C112 O135 1.264 . S
O113 Mn108 2.095 . S
O113 C122 1.250 . S
O114 Mn109 2.121 . S
O114 C122 1.258 . S
C115 N116 1.326 . S
C115 C119 1.460 . S
C115 H121 0.929 . S
N116 Mn109 2.257 . S
N116 C115 1.326 . S
N116 C120 1.362 . S
C117 C118 1.258 . S
C117 C120 1.431 . S
C117 C137 1.449 . S
C118 C117 1.258 . S
C118 C119 1.477 . S
C118 H138 0.931 . S
C119 C115 1.460 . S
C119 C118 1.477 . S
C119 H139 0.930 . S
C120 N116 1.362 . S
C120 C117 1.431 . S
C120 C130 1.476 . S
H121 C115 0.929 . S
C122 O113 1.250 . S
C122 O114 1.258 . S
O123 Mn108 2.162 . S
O123 C111 1.281 . S
O124 Mn108 2.297 . S
O124 C111 1.236 . S
N125 Mn109 2.282 . S
N125 C126 1.328 . S
N125 C130 1.318 . S
C126 N125 1.328 . S
C126 C127 1.457 . S
C126 H131 0.929 . S
C127 C126 1.457 . S
C127 C128 1.291 . S
C127 H140 0.931 . S
C128 C127 1.291 . S
C128 C129 1.373 . S
C128 H141 0.929 . S
C129 C128 1.373 . S
C129 C130 1.396 . S
C129 C136 1.403 . S
C130 C120 1.476 . S
C130 N125 1.318 . S
C130 C129 1.396 . S
H131 C126 0.929 . S
O132 Mn108 2.385 . S
O132 C110 1.234 . S
O133 Mn108 2.209 . S
O133 Mn109 2.215 . S
O133 C110 1.283 . S
O134 Mn108 2.094 . S
O134 C112 1.240 . S
O135 Mn109 2.117 . S
O135 C112 1.264 . S
C136 C129 1.403 . S
C136 C137 1.399 . S
C136 H142 0.929 . S
C137 C117 1.449 . S
C137 C136 1.399 . S
C137 H143 0.930 . S
H138 C118 0.931 . S
H139 C119 0.930 . S
H140 C127 0.931 . S
H141 C128 0.929 . S
H142 C136 0.929 . S
H143 C137 0.930 . S
Mn144 O149 2.095 . S
Mn144 O159 2.162 . S
Mn144 O160 2.297 . S
Mn144 O168 2.385 . S
Mn144 O169 2.209 . S
Mn144 O170 2.094 . S
Mn145 O150 2.121 . S
Mn145 N152 2.257 . S
Mn145 N161 2.282 1_455 S
Mn145 O169 2.215 . S
Mn145 O171 2.117 . S
C146 O168 1.234 . S
C146 O169 1.283 . S
C147 O159 1.281 . S
C147 O160 1.236 . S
C148 O170 1.240 . S
C148 O171 1.264 . S
O149 Mn144 2.095 . S
O149 C158 1.250 . S
O150 Mn145 2.121 . S
O150 C158 1.258 . S
C151 N152 1.326 1_556 S
C151 C155 1.460 . S
C151 H157 0.929 . S
N152 Mn145 2.257 . S
N152 C151 1.326 1_554 S
N152 C156 1.362 1_554 S
C153 C154 1.258 . S
C153 C156 1.431 . S
C153 C173 1.449 1_455 S
C154 C153 1.258 . S
C154 C155 1.477 . S
C154 H174 0.931 . S
C155 C151 1.460 . S
C155 C154 1.477 . S
C155 H175 0.930 . S
C156 N152 1.362 1_556 S
C156 C153 1.431 . S
C156 C166 1.476 1_456 S
H157 C151 0.929 . S
C158 O149 1.250 . S
C158 O150 1.258 . S
O159 Mn144 2.162 . S
O159 C147 1.281 . S
O160 Mn144 2.297 . S
O160 C147 1.236 . S
N161 Mn145 2.282 1_655 S
N161 C162 1.328 . S
N161 C166 1.318 . S
C162 N161 1.328 . S
C162 C163 1.457 . S
C162 H167 0.929 . S
C163 C162 1.457 . S
C163 C164 1.291 . S
C163 H176 0.931 . S
C164 C163 1.291 . S
C164 C165 1.373 . S
C164 H177 0.929 . S
C165 C164 1.373 . S
C165 C166 1.396 . S
C165 C172 1.403 1_554 S
C166 C156 1.476 1_654 S
C166 N161 1.318 . S
C166 C165 1.396 . S
H167 C162 0.929 . S
O168 Mn144 2.385 . S
O168 C146 1.234 . S
O169 Mn144 2.209 . S
O169 Mn145 2.215 . S
O169 C146 1.283 . S
O170 Mn144 2.094 . S
O170 C148 1.240 . S
O171 Mn145 2.117 . S
O171 C148 1.264 . S
C172 C165 1.403 1_556 S
C172 C173 1.399 . S
C172 H178 0.929 . S
C173 C153 1.449 1_655 S
C173 C172 1.399 . S
C173 H179 0.930 . S
H174 C154 0.931 . S
H175 C155 0.930 . S
H176 C163 0.931 . S
H177 C164 0.929 . S
H178 C172 0.929 . S
H179 C173 0.930 . S
Mn180 O185 2.095 . S
Mn180 O195 2.162 . S
Mn180 O196 2.297 . S
Mn180 O204 2.385 . S
Mn180 O205 2.209 . S
Mn180 O206 2.094 . S
Mn181 O186 2.121 . S
Mn181 N188 2.257 . S
Mn181 N197 2.282 . S
Mn181 O205 2.215 . S
Mn181 O207 2.117 . S
C182 O204 1.234 . S
C182 O205 1.283 . S
C183 O195 1.281 . S
C183 O196 1.236 . S
C184 O206 1.240 . S
C184 O207 1.264 . S
O185 Mn180 2.095 . S
O185 C194 1.250 . S
O186 Mn181 2.121 . S
O186 C194 1.258 . S
C187 N188 1.326 . S
C187 C191 1.460 . S
C187 H193 0.929 . S
N188 Mn181 2.257 . S
N188 C187 1.326 . S
N188 C192 1.362 . S
C189 C190 1.258 . S
C189 C192 1.431 . S
C189 C209 1.449 . S
C190 C189 1.258 . S
C190 C191 1.477 . S
C190 H210 0.931 . S
C191 C187 1.460 . S
C191 C190 1.477 . S
C191 H211 0.930 . S
C192 N188 1.362 . S
C192 C189 1.431 . S
C192 C202 1.476 . S
H193 C187 0.929 . S
C194 O185 1.250 . S
C194 O186 1.258 . S
O195 Mn180 2.162 . S
O195 C183 1.281 . S
O196 Mn180 2.297 . S
O196 C183 1.236 . S
N197 Mn181 2.282 . S
N197 C198 1.328 . S
N197 C202 1.318 . S
C198 N197 1.328 . S
C198 C199 1.457 . S
C198 H203 0.929 . S
C199 C198 1.457 . S
C199 C200 1.291 . S
C199 H212 0.931 . S
C200 C199 1.291 . S
C200 C201 1.373 . S
C200 H213 0.929 . S
C201 C200 1.373 . S
C201 C202 1.396 . S
C201 C208 1.403 . S
C202 C192 1.476 . S
C202 N197 1.318 . S
C202 C201 1.396 . S
H203 C198 0.929 . S
O204 Mn180 2.385 . S
O204 C182 1.234 . S
O205 Mn180 2.209 . S
O205 Mn181 2.215 . S
O205 C182 1.283 . S
O206 Mn180 2.094 . S
O206 C184 1.240 . S
O207 Mn181 2.117 . S
O207 C184 1.264 . S
C208 C201 1.403 . S
C208 C209 1.399 . S
C208 H214 0.929 . S
C209 C189 1.449 . S
C209 C208 1.399 . S
C209 H215 0.930 . S
H210 C190 0.931 . S
H211 C191 0.930 . S
H212 C199 0.931 . S
H213 C200 0.929 . S
H214 C208 0.929 . S
H215 C209 0.930 . S
Mn216 O221 2.095 . S
Mn216 O231 2.162 . S
Mn216 O232 2.297 . S
Mn216 O240 2.385 . S
Mn216 O241 2.209 . S
Mn216 O242 2.094 . S
Mn217 O222 2.121 . S
Mn217 N224 2.257 . S
Mn217 N233 2.282 . S
Mn217 O241 2.215 . S
Mn217 O243 2.117 . S
C218 O240 1.234 . S
C218 O241 1.283 . S
C219 O231 1.281 . S
C219 O232 1.236 . S
C220 O242 1.240 . S
C220 O243 1.264 . S
O221 Mn216 2.095 . S
O221 C230 1.250 . S
O222 Mn217 2.121 . S
O222 C230 1.258 . S
C223 N224 1.326 . S
C223 C227 1.460 . S
C223 H229 0.929 . S
N224 Mn217 2.257 . S
N224 C223 1.326 . S
N224 C228 1.362 . S
C225 C226 1.258 . S
C225 C228 1.431 . S
C225 C245 1.449 . S
C226 C225 1.258 . S
C226 C227 1.477 . S
C226 H246 0.931 . S
C227 C223 1.460 . S
C227 C226 1.477 . S
C227 H247 0.930 . S
C228 N224 1.362 . S
C228 C225 1.431 . S
C228 C238 1.476 . S
H229 C223 0.929 . S
C230 O221 1.250 . S
C230 O222 1.258 . S
O231 Mn216 2.162 . S
O231 C219 1.281 . S
O232 Mn216 2.297 . S
O232 C219 1.236 . S
N233 Mn217 2.282 . S
N233 C234 1.328 . S
N233 C238 1.318 . S
C234 N233 1.328 . S
C234 C235 1.457 . S
C234 H239 0.929 . S
C235 C234 1.457 . S
C235 C236 1.291 . S
C235 H248 0.931 . S
C236 C235 1.291 . S
C236 C237 1.373 . S
C236 H249 0.929 . S
C237 C236 1.373 . S
C237 C238 1.396 . S
C237 C244 1.403 . S
C238 C228 1.476 . S
C238 N233 1.318 . S
C238 C237 1.396 . S
H239 C234 0.929 . S
O240 Mn216 2.385 . S
O240 C218 1.234 . S
O241 Mn216 2.209 . S
O241 Mn217 2.215 . S
O241 C218 1.283 . S
O242 Mn216 2.094 . S
O242 C220 1.240 . S
O243 Mn217 2.117 . S
O243 C220 1.264 . S
C244 C237 1.403 . S
C244 C245 1.399 . S
C244 H250 0.929 . S
C245 C225 1.449 . S
C245 C244 1.399 . S
C245 H251 0.930 . S
H246 C226 0.931 . S
H247 C227 0.930 . S
H248 C235 0.931 . S
H249 C236 0.929 . S
H250 C244 0.929 . S
H251 C245 0.930 . S
Mn252 O257 2.064 1_655 S
Mn252 O267 2.156 1_656 S
Mn252 O268 2.292 . S
Mn252 O276 2.419 . S
Mn252 O277 2.223 . S
Mn252 O278 2.100 1_656 S
Mn253 O258 2.105 1_655 S
Mn253 N260 2.260 . S
Mn253 N269 2.299 . S
Mn253 O277 2.220 . S
Mn253 O279 2.119 1_655 S
C254 O276 1.234 . S
C254 O277 1.283 . S
C255 O267 1.282 1_655 S
C255 O268 1.236 1_554 S
C256 O278 1.240 . S
C256 O279 1.264 1_554 S
O257 Mn252 2.064 1_455 S
O257 C266 1.250 . S
O258 Mn253 2.105 1_455 S
O258 C266 1.258 . S
C259 N260 1.326 . S
C259 C263 1.460 . S
C259 H265 0.929 1_655 S
N260 Mn253 2.260 . S
N260 C259 1.326 . S
N260 C264 1.362 . S
C261 C262 1.258 . S
C261 C264 1.431 . S
C261 C281 1.449 . S
C262 C261 1.258 . S
C262 C263 1.477 . S
C262 H282 0.931 . S
C263 C259 1.460 . S
C263 C262 1.477 . S
C263 H283 0.930 . S
C264 N260 1.362 . S
C264 C261 1.431 . S
C264 C274 1.476 . S
H265 C259 0.929 1_455 S
C266 O257 1.250 . S
C266 O258 1.258 . S
O267 Mn252 2.156 1_454 S
O267 C255 1.282 1_455 S
O268 Mn252 2.292 . S
O268 C255 1.236 1_556 S
N269 Mn253 2.299 . S
N269 C270 1.328 . S
N269 C274 1.318 . S
C270 N269 1.328 . S
C270 C271 1.457 . S
C270 H275 0.929 . S
C271 C270 1.457 . S
C271 C272 1.291 . S
C271 H284 0.931 . S
C272 C271 1.291 . S
C272 C273 1.373 . S
C272 H285 0.929 . S
C273 C272 1.373 . S
C273 C274 1.396 . S
C273 C280 1.403 . S
C274 C264 1.476 . S
C274 N269 1.318 . S
C274 C273 1.396 . S
H275 C270 0.929 . S
O276 Mn252 2.419 . S
O276 C254 1.234 . S
O277 Mn252 2.223 . S
O277 Mn253 2.220 . S
O277 C254 1.283 . S
O278 Mn252 2.100 1_454 S
O278 C256 1.240 . S
O279 Mn253 2.119 1_455 S
O279 C256 1.264 1_556 S
C280 C273 1.403 . S
C280 C281 1.399 . S
C280 H286 0.929 . S
C281 C261 1.449 . S
C281 C280 1.399 . S
C281 H287 0.930 . S
H282 C262 0.931 . S
H283 C263 0.930 . S
H284 C271 0.931 . S
H285 C272 0.929 . S
H286 C280 0.929 . S
H287 C281 0.930 . S
Mn288 O293 2.095 . S
Mn288 O303 2.162 . S
Mn288 O304 2.297 1_545 S
Mn288 O312 2.385 1_545 S
Mn288 O313 2.209 1_545 S
Mn288 O314 2.094 . S
Mn289 O294 2.121 1_565 S
Mn289 N296 2.257 . S
Mn289 N305 2.282 . S
Mn289 O313 2.215 . S
Mn289 O315 2.117 1_565 S
C290 O312 1.234 . S
C290 O313 1.283 . S
C291 O303 1.281 . S
C291 O304 1.236 1_545 S
C292 O314 1.240 . S
C292 O315 1.264 . S
O293 Mn288 2.095 . S
O293 C302 1.250 . S
O294 Mn289 2.121 1_545 S
O294 C302 1.258 . S
C295 N296 1.326 . S
C295 C299 1.460 . S
C295 H301 0.929 . S
N296 Mn289 2.257 . S
N296 C295 1.326 . S
N296 C300 1.362 . S
C297 C298 1.258 . S
C297 C300 1.431 . S
C297 C317 1.449 . S
C298 C297 1.258 . S
C298 C299 1.477 . S
C298 H318 0.931 . S
C299 C295 1.460 . S
C299 C298 1.477 . S
C299 H319 0.930 . S
C300 N296 1.362 . S
C300 C297 1.431 . S
C300 C310 1.476 . S
H301 C295 0.929 . S
C302 O293 1.250 . S
C302 O294 1.258 . S
O303 Mn288 2.162 . S
O303 C291 1.281 . S
O304 Mn288 2.297 1_565 S
O304 C291 1.236 1_565 S
N305 Mn289 2.282 . S
N305 C306 1.328 . S
N305 C310 1.318 . S
C306 N305 1.328 . S
C306 C307 1.457 . S
C306 H311 0.929 . S
C307 C306 1.457 . S
C307 C308 1.291 . S
C307 H320 0.931 . S
C308 C307 1.291 . S
C308 C309 1.373 . S
C308 H321 0.929 . S
C309 C308 1.373 . S
C309 C310 1.396 . S
C309 C316 1.403 . S
C310 C300 1.476 . S
C310 N305 1.318 . S
C310 C309 1.396 . S
H311 C306 0.929 . S
O312 Mn288 2.385 1_565 S
O312 C290 1.234 . S
O313 Mn288 2.209 1_565 S
O313 Mn289 2.215 . S
O313 C290 1.283 . S
O314 Mn288 2.094 . S
O314 C292 1.240 . S
O315 Mn289 2.117 1_545 S
O315 C292 1.264 . S
C316 C309 1.403 . S
C316 C317 1.399 . S
C316 H322 0.929 . S
C317 C297 1.449 . S
C317 C316 1.399 . S
C317 H323 0.930 . S
H318 C298 0.931 . S
H319 C299 0.930 . S
H320 C307 0.931 . S
H321 C308 0.929 . S
H322 C316 0.929 . S
H323 C317 0.930 . S
Mn324 O329 2.095 . S
Mn324 O339 2.162 . S
Mn324 O340 2.297 . S
Mn324 O348 2.385 . S
Mn324 O349 2.209 . S
Mn324 O350 2.094 . S
Mn325 O330 2.121 . S
Mn325 N332 2.257 . S
Mn325 N341 2.282 . S
Mn325 O349 2.215 . S
Mn325 O351 2.117 . S
C326 O348 1.234 . S
C326 O349 1.283 . S
C327 O339 1.281 . S
C327 O340 1.236 . S
C328 O350 1.240 . S
C328 O351 1.264 . S
O329 Mn324 2.095 . S
O329 C338 1.250 . S
O330 Mn325 2.121 . S
O330 C338 1.258 . S
C331 N332 1.326 . S
C331 C335 1.460 . S
C331 H337 0.929 . S
N332 Mn325 2.257 . S
N332 C331 1.326 . S
N332 C336 1.362 . S
C333 C334 1.258 . S
C333 C336 1.431 . S
C333 C353 1.449 . S
C334 C333 1.258 . S
C334 C335 1.477 . S
C334 H354 0.931 . S
C335 C331 1.460 . S
C335 C334 1.477 . S
C335 H355 0.930 . S
C336 N332 1.362 . S
C336 C333 1.431 . S
C336 C346 1.476 . S
H337 C331 0.929 . S
C338 O329 1.250 . S
C338 O330 1.258 . S
O339 Mn324 2.162 . S
O339 C327 1.281 . S
O340 Mn324 2.297 . S
O340 C327 1.236 . S
N341 Mn325 2.282 . S
N341 C342 1.328 . S
N341 C346 1.318 . S
C342 N341 1.328 . S
C342 C343 1.457 . S
C342 H347 0.929 . S
C343 C342 1.457 . S
C343 C344 1.291 . S
C343 H356 0.931 . S
C344 C343 1.291 . S
C344 C345 1.373 . S
C344 H357 0.929 . S
C345 C344 1.373 . S
C345 C346 1.396 . S
C345 C352 1.403 . S
C346 C336 1.476 . S
C346 N341 1.318 . S
C346 C345 1.396 . S
H347 C342 0.929 . S
O348 Mn324 2.385 . S
O348 C326 1.234 . S
O349 Mn324 2.209 . S
O349 Mn325 2.215 . S
O349 C326 1.283 . S
O350 Mn324 2.094 . S
O350 C328 1.240 . S
O351 Mn325 2.117 . S
O351 C328 1.264 . S
C352 C345 1.403 . S
C352 C353 1.399 . S
C352 H358 0.929 . S
C353 C333 1.449 . S
C353 C352 1.399 . S
C353 H359 0.930 . S
H354 C334 0.931 . S
H355 C335 0.930 . S
H356 C343 0.931 . S
H357 C344 0.929 . S
H358 C352 0.929 . S
H359 C353 0.930 . S
Mn360 O365 2.095 . S
Mn360 O375 2.162 . S
Mn360 O376 2.297 . S
Mn360 O384 2.385 . S
Mn360 O385 2.209 . S
Mn360 O386 2.094 . S
Mn361 O366 2.121 . S
Mn361 N368 2.257 . S
Mn361 N377 2.282 . S
Mn361 O385 2.215 . S
Mn361 O387 2.117 . S
C362 O384 1.234 . S
C362 O385 1.283 . S
C363 O375 1.281 . S
C363 O376 1.236 . S
C364 O386 1.240 . S
C364 O387 1.264 . S
O365 Mn360 2.095 . S
O365 C374 1.250 . S
O366 Mn361 2.121 . S
O366 C374 1.258 . S
C367 N368 1.326 . S
C367 C371 1.460 . S
C367 H373 0.929 . S
N368 Mn361 2.257 . S
N368 C367 1.326 . S
N368 C372 1.362 . S
C369 C370 1.258 . S
C369 C372 1.431 . S
C369 C389 1.449 . S
C370 C369 1.258 . S
C370 C371 1.477 . S
C370 H390 0.931 . S
C371 C367 1.460 . S
C371 C370 1.477 . S
C371 H391 0.930 . S
C372 N368 1.362 . S
C372 C369 1.431 . S
C372 C382 1.476 . S
H373 C367 0.929 . S
C374 O365 1.250 . S
C374 O366 1.258 . S
O375 Mn360 2.162 . S
O375 C363 1.281 . S
O376 Mn360 2.297 . S
O376 C363 1.236 . S
N377 Mn361 2.282 . S
N377 C378 1.328 . S
N377 C382 1.318 . S
C378 N377 1.328 . S
C378 C379 1.457 . S
C378 H383 0.929 . S
C379 C378 1.457 . S
C379 C380 1.291 . S
C379 H392 0.931 . S
C380 C379 1.291 . S
C380 C381 1.373 . S
C380 H393 0.929 . S
C381 C380 1.373 . S
C381 C382 1.396 . S
C381 C388 1.403 . S
C382 C372 1.476 . S
C382 N377 1.318 . S
C382 C381 1.396 . S
H383 C378 0.929 . S
O384 Mn360 2.385 . S
O384 C362 1.234 . S
O385 Mn360 2.209 . S
O385 Mn361 2.215 . S
O385 C362 1.283 . S
O386 Mn360 2.094 . S
O386 C364 1.240 . S
O387 Mn361 2.117 . S
O387 C364 1.264 . S
C388 C381 1.403 . S
C388 C389 1.399 . S
C388 H394 0.929 . S
C389 C369 1.449 . S
C389 C388 1.399 . S
C389 H395 0.930 . S
H390 C370 0.931 . S
H391 C371 0.930 . S
H392 C379 0.931 . S
H393 C380 0.929 . S
H394 C388 0.929 . S
H395 C389 0.930 . S
Mn396 O401 2.095 1_554 S
Mn396 O411 2.162 . S
Mn396 O412 2.297 . S
Mn396 O420 2.385 . S
Mn396 O421 2.209 . S
Mn396 O422 2.094 1_554 S
Mn397 O402 2.121 . S
Mn397 N404 2.257 1_565 S
Mn397 N413 2.282 . S
Mn397 O421 2.215 1_556 S
Mn397 O423 2.117 . S
C398 O420 1.234 . S
C398 O421 1.283 . S
C399 O411 1.281 . S
C399 O412 1.236 . S
C400 O422 1.240 . S
C400 O423 1.264 . S
O401 Mn396 2.095 1_556 S
O401 C410 1.250 . S
O402 Mn397 2.121 . S
O402 C410 1.258 . S
C403 N404 1.326 . S
C403 C407 1.460 . S
C403 H409 0.929 . S
N404 Mn397 2.257 1_545 S
N404 C403 1.326 . S
N404 C408 1.362 . S
C405 C406 1.258 . S
C405 C408 1.431 . S
C405 C425 1.449 . S
C406 C405 1.258 . S
C406 C407 1.477 . S
C406 H426 0.931 . S
C407 C403 1.460 . S
C407 C406 1.477 . S
C407 H427 0.930 1_556 S
C408 N404 1.362 . S
C408 C405 1.431 . S
C408 C418 1.476 . S
H409 C403 0.929 . S
C410 O401 1.250 . S
C410 O402 1.258 . S
O411 Mn396 2.162 . S
O411 C399 1.281 . S
O412 Mn396 2.297 . S
O412 C399 1.236 . S
N413 Mn397 2.282 . S
N413 C414 1.328 . S
N413 C418 1.318 1_565 S
C414 N413 1.328 . S
C414 C415 1.457 . S
C414 H419 0.929 . S
C415 C414 1.457 . S
C415 C416 1.291 1_565 S
C415 H428 0.931 . S
C416 C415 1.291 1_545 S
C416 C417 1.373 . S
C416 H429 0.929 . S
C417 C416 1.373 . S
C417 C418 1.396 . S
C417 C424 1.403 . S
C418 C408 1.476 . S
C418 N413 1.318 1_545 S
C418 C417 1.396 . S
H419 C414 0.929 . S
O420 Mn396 2.385 . S
O420 C398 1.234 . S
O421 Mn396 2.209 . S
O421 Mn397 2.215 1_554 S
O421 C398 1.283 . S
O422 Mn396 2.094 1_556 S
O422 C400 1.240 . S
O423 Mn397 2.117 . S
O423 C400 1.264 . S
C424 C417 1.403 . S
C424 C425 1.399 . S
C424 H430 0.929 . S
C425 C405 1.449 . S
C425 C424 1.399 . S
C425 H431 0.930 . S
H426 C406 0.931 . S
H427 C407 0.930 1_554 S
H428 C415 0.931 . S
H429 C416 0.929 . S
H430 C424 0.929 . S
H431 C425 0.930 . S
Mn432 O437 2.095 . S
Mn432 O447 2.162 . S
Mn432 O448 2.297 . S
Mn432 O456 2.385 . S
Mn432 O457 2.209 . S
Mn432 O458 2.094 . S
Mn433 O438 2.121 . S
Mn433 N440 2.257 . S
Mn433 N449 2.282 1_554 S
Mn433 O457 2.215 . S
Mn433 O459 2.117 1_554 S
C434 O456 1.234 . S
C434 O457 1.283 . S
C435 O447 1.281 . S
C435 O448 1.236 . S
C436 O458 1.240 1_556 S
C436 O459 1.264 . S
O437 Mn432 2.095 . S
O437 C446 1.250 . S
O438 Mn433 2.121 . S
O438 C446 1.258 . S
C439 N440 1.326 . S
C439 C443 1.460 . S
C439 H445 0.929 . S
N440 Mn433 2.257 . S
N440 C439 1.326 . S
N440 C444 1.362 . S
C441 C442 1.258 . S
C441 C444 1.431 . S
C441 C461 1.449 . S
C442 C441 1.258 . S
C442 C443 1.477 . S
C442 H462 0.931 . S
C443 C439 1.460 . S
C443 C442 1.477 . S
C443 H463 0.930 . S
C444 N440 1.362 . S
C444 C441 1.431 . S
C444 C454 1.476 1_554 S
H445 C439 0.929 . S
C446 O437 1.250 . S
C446 O438 1.258 . S
O447 Mn432 2.162 . S
O447 C435 1.281 . S
O448 Mn432 2.297 . S
O448 C435 1.236 . S
N449 Mn433 2.282 1_556 S
N449 C450 1.328 . S
N449 C454 1.318 . S
C450 N449 1.328 . S
C450 C451 1.457 . S
C450 H455 0.929 . S
C451 C450 1.457 . S
C451 C452 1.291 . S
C451 H464 0.931 . S
C452 C451 1.291 . S
C452 C453 1.373 . S
C452 H465 0.929 . S
C453 C452 1.373 . S
C453 C454 1.396 . S
C453 C460 1.403 . S
C454 C444 1.476 1_556 S
C454 N449 1.318 . S
C454 C453 1.396 . S
H455 C450 0.929 . S
O456 Mn432 2.385 . S
O456 C434 1.234 . S
O457 Mn432 2.209 . S
O457 Mn433 2.215 . S
O457 C434 1.283 . S
O458 Mn432 2.094 . S
O458 C436 1.240 1_554 S
O459 Mn433 2.117 1_556 S
O459 C436 1.264 . S
C460 C453 1.403 . S
C460 C461 1.399 1_556 S
C460 H466 0.929 . S
C461 C441 1.449 . S
C461 C460 1.399 1_554 S
C461 H467 0.930 . S
H462 C442 0.931 . S
H463 C443 0.930 . S
H464 C451 0.931 . S
H465 C452 0.929 . S
H466 C460 0.929 . S
H467 C461 0.930 . S
Mn468 O473 2.095 . S
Mn468 O483 2.162 . S
Mn468 O484 2.297 . S
Mn468 O492 2.385 . S
Mn468 O493 2.209 . S
Mn468 O494 2.094 . S
Mn469 O474 2.121 . S
Mn469 N476 2.257 . S
Mn469 N485 2.282 . S
Mn469 O493 2.215 . S
Mn469 O495 2.117 . S
C470 O492 1.234 . S
C470 O493 1.283 . S
C471 O483 1.281 . S
C471 O484 1.236 . S
C472 O494 1.240 . S
C472 O495 1.264 . S
O473 Mn468 2.095 . S
O473 C482 1.250 . S
O474 Mn469 2.121 . S
O474 C482 1.258 . S
C475 N476 1.326 . S
C475 C479 1.460 . S
C475 H481 0.929 . S
N476 Mn469 2.257 . S
N476 C475 1.326 . S
N476 C480 1.362 . S
C477 C478 1.258 . S
C477 C480 1.431 . S
C477 C497 1.448 1_554 S
C478 C477 1.258 . S
C478 C479 1.477 . S
C478 H498 0.931 1_545 S
C479 C475 1.460 . S
C479 C478 1.477 . S
C479 H499 0.930 . S
C480 N476 1.362 . S
C480 C477 1.431 . S
C480 C490 1.476 . S
H481 C475 0.929 . S
C482 O473 1.250 . S
C482 O474 1.258 . S
O483 Mn468 2.162 . S
O483 C471 1.281 . S
O484 Mn468 2.297 . S
O484 C471 1.236 . S
N485 Mn469 2.282 . S
N485 C486 1.318 1_554 S
N485 C490 1.318 . S
C486 N485 1.318 1_556 S
C486 C487 1.463 . S
C486 H491 0.932 1_556 S
C487 C486 1.463 . S
C487 C488 1.291 . S
C487 H500 0.931 . S
C488 C487 1.291 . S
C488 C489 1.373 . S
C488 H501 0.929 . S
C489 C488 1.373 . S
C489 C490 1.396 1_556 S
C489 C496 1.403 . S
C490 C480 1.476 . S
C490 N485 1.318 . S
C490 C489 1.396 1_554 S
H491 C486 0.932 1_554 S
O492 Mn468 2.385 . S
O492 C470 1.234 . S
O493 Mn468 2.209 . S
O493 Mn469 2.215 . S
O493 C470 1.283 . S
O494 Mn468 2.094 . S
O494 C472 1.240 . S
O495 Mn469 2.117 . S
O495 C472 1.264 . S
C496 C489 1.403 . S
C496 C497 1.401 . S
C496 H502 0.929 . S
C497 C477 1.448 1_556 S
C497 C496 1.401 . S
C497 H503 0.929 1_545 S
H498 C478 0.931 1_565 S
H499 C479 0.930 . S
H500 C487 0.931 . S
H501 C488 0.929 . S
H502 C496 0.929 . S
H503 C497 0.929 1_565 S
Mn504 O509 2.095 . S
Mn504 O519 2.162 . S
Mn504 O520 2.297 . S
Mn504 O528 2.385 . S
Mn504 O529 2.209 . S
Mn504 O530 2.094 . S
Mn505 O510 2.121 . S
Mn505 N512 2.257 . S
Mn505 N521 2.282 . S
Mn505 O529 2.215 . S
Mn505 O531 2.117 . S
C506 O528 1.234 . S
C506 O529 1.283 . S
C507 O519 1.281 . S
C507 O520 1.236 . S
C508 O530 1.240 . S
C508 O531 1.264 . S
O509 Mn504 2.095 . S
O509 C518 1.250 . S
O510 Mn505 2.121 . S
O510 C518 1.258 . S
C511 N512 1.326 . S
C511 C515 1.460 . S
C511 H517 0.929 . S
N512 Mn505 2.257 . S
N512 C511 1.326 . S
N512 C516 1.362 . S
C513 C514 1.258 . S
C513 C516 1.431 . S
C513 C533 1.449 . S
C514 C513 1.258 . S
C514 C515 1.477 . S
C514 H534 0.931 . S
C515 C511 1.460 . S
C515 C514 1.477 . S
C515 H535 0.930 . S
C516 N512 1.362 . S
C516 C513 1.431 . S
C516 C526 1.476 . S
H517 C511 0.929 . S
C518 O509 1.250 . S
C518 O510 1.258 . S
O519 Mn504 2.162 . S
O519 C507 1.281 . S
O520 Mn504 2.297 . S
O520 C507 1.236 . S
N521 Mn505 2.282 . S
N521 C522 1.328 . S
N521 C526 1.318 . S
C522 N521 1.328 . S
C522 C523 1.457 . S
C522 H527 0.929 . S
C523 C522 1.457 . S
C523 C524 1.291 . S
C523 H536 0.931 . S
C524 C523 1.291 . S
C524 C525 1.373 . S
C524 H537 0.929 . S
C525 C524 1.373 . S
C525 C526 1.396 . S
C525 C532 1.403 . S
C526 C516 1.476 . S
C526 N521 1.318 . S
C526 C525 1.396 . S
H527 C522 0.929 . S
O528 Mn504 2.385 . S
O528 C506 1.234 . S
O529 Mn504 2.209 . S
O529 Mn505 2.215 . S
O529 C506 1.283 . S
O530 Mn504 2.094 . S
O530 C508 1.240 . S
O531 Mn505 2.117 . S
O531 C508 1.264 . S
C532 C525 1.403 . S
C532 C533 1.399 . S
C532 H538 0.929 . S
C533 C513 1.449 . S
C533 C532 1.399 . S
C533 H539 0.930 . S
H534 C514 0.931 . S
H535 C515 0.930 . S
H536 C523 0.931 . S
H537 C524 0.929 . S
H538 C532 0.929 . S
H539 C533 0.930 . S
Mn540 O545 2.095 . S
Mn540 O555 2.162 . S
Mn540 O556 2.297 . S
Mn540 O564 2.385 . S
Mn540 O565 2.209 . S
Mn540 O566 2.094 . S
Mn541 O546 2.121 . S
Mn541 N548 2.257 . S
Mn541 N557 2.282 . S
Mn541 O565 2.215 . S
Mn541 O567 2.117 . S
C542 O564 1.234 . S
C542 O565 1.283 . S
C543 O555 1.281 . S
C543 O556 1.236 . S
C544 O566 1.240 . S
C544 O567 1.264 . S
O545 Mn540 2.095 . S
O545 C554 1.250 . S
O546 Mn541 2.121 . S
O546 C554 1.258 . S
C547 N548 1.326 1_545 S
C547 C551 1.460 . S
C547 H553 0.929 1_545 S
N548 Mn541 2.257 . S
N548 C547 1.326 1_565 S
N548 C552 1.362 . S
C549 C550 1.258 . S
C549 C552 1.431 1_545 S
C549 C569 1.449 . S
C550 C549 1.258 . S
C550 C551 1.477 . S
C550 H570 0.931 . S
C551 C547 1.460 . S
C551 C550 1.477 . S
C551 H571 0.930 . S
C552 N548 1.362 . S
C552 C549 1.431 1_565 S
C552 C562 1.476 . S
H553 C547 0.929 1_565 S
C554 O545 1.250 . S
C554 O546 1.258 . S
O555 Mn540 2.162 . S
O555 C543 1.281 . S
O556 Mn540 2.297 . S
O556 C543 1.236 . S
N557 Mn541 2.282 . S
N557 C558 1.328 . S
N557 C562 1.318 . S
C558 N557 1.328 . S
C558 C559 1.457 . S
C558 H563 0.929 . S
C559 C558 1.457 . S
C559 C560 1.291 . S
C559 H572 0.931 . S
C560 C559 1.291 . S
C560 C561 1.373 . S
C560 H573 0.929 . S
C561 C560 1.373 . S
C561 C562 1.396 . S
C561 C568 1.403 1_565 S
C562 C552 1.476 . S
C562 N557 1.318 . S
C562 C561 1.396 . S
H563 C558 0.929 . S
O564 Mn540 2.385 . S
O564 C542 1.234 . S
O565 Mn540 2.209 . S
O565 Mn541 2.215 . S
O565 C542 1.283 . S
O566 Mn540 2.094 . S
O566 C544 1.240 . S
O567 Mn541 2.117 . S
O567 C544 1.264 . S
C568 C561 1.403 1_545 S
C568 C569 1.399 . S
C568 H574 0.929 . S
C569 C549 1.449 . S
C569 C568 1.399 . S
C569 H575 0.930 . S
H570 C550 0.931 . S
H571 C551 0.930 . S
H572 C559 0.931 . S
H573 C560 0.929 . S
H574 C568 0.929 . S
H575 C569 0.930 . S
Mn576 O581 2.095 . S
Mn576 O591 2.162 . S
Mn576 O592 2.297 . S
Mn576 O600 2.385 1_545 S
Mn576 O601 2.214 . S
Mn576 O602 2.094 . S
Mn577 O582 2.121 . S
Mn577 N584 2.257 1_545 S
Mn577 N593 2.282 1_545 S
Mn577 O601 2.220 . S
Mn577 O603 2.117 . S
C578 O600 1.234 . S
C578 O601 1.269 1_565 S
C579 O591 1.281 . S
C579 O592 1.236 . S
C580 O602 1.240 . S
C580 O603 1.264 . S
O581 Mn576 2.095 . S
O581 C590 1.250 . S
O582 Mn577 2.121 . S
O582 C590 1.258 . S
C583 N584 1.326 1_545 S
C583 C587 1.460 1_545 S
C583 H589 0.929 . S
N584 Mn577 2.257 1_565 S
N584 C583 1.326 1_565 S
N584 C588 1.362 . S
C585 C586 1.258 . S
C585 C588 1.431 . S
C585 C605 1.449 . S
C586 C585 1.258 . S
C586 C587 1.477 . S
C586 H606 0.931 . S
C587 C583 1.460 1_565 S
C587 C586 1.477 . S
C587 H607 0.930 1_565 S
C588 N584 1.362 . S
C588 C585 1.431 . S
C588 C598 1.476 . S
H589 C583 0.929 . S
C590 O581 1.250 . S
C590 O582 1.258 . S
O591 Mn576 2.162 . S
O591 C579 1.281 . S
O592 Mn576 2.297 . S
O592 C579 1.236 . S
N593 Mn577 2.282 1_565 S
N593 C594 1.328 . S
N593 C598 1.318 . S
C594 N593 1.328 . S
C594 C595 1.457 . S
C594 H599 0.929 . S
C595 C594 1.457 . S
C595 C596 1.291 . S
C595 H608 0.931 . S
C596 C595 1.291 . S
C596 C597 1.373 . S
C596 H609 0.929 . S
C597 C596 1.373 . S
C597 C598 1.396 . S
C597 C604 1.403 . S
C598 C588 1.476 . S
C598 N593 1.318 . S
C598 C597 1.396 . S
H599 C594 0.929 . S
O600 Mn576 2.385 1_565 S
O600 C578 1.234 . S
O601 Mn576 2.214 . S
O601 Mn577 2.220 . S
O601 C578 1.269 1_545 S
O602 Mn576 2.094 . S
O602 C580 1.240 . S
O603 Mn577 2.117 . S
O603 C580 1.264 . S
C604 C597 1.403 . S
C604 C605 1.399 . S
C604 H610 0.929 . S
C605 C585 1.449 . S
C605 C604 1.399 . S
C605 H611 0.930 . S
H606 C586 0.931 . S
H607 C587 0.930 1_545 S
H608 C595 0.931 . S
H609 C596 0.929 . S
H610 C604 0.929 . S
H611 C605 0.930 . S
Mn612 O617 2.095 . S
Mn612 O627 2.162 . S
Mn612 O628 2.297 . S
Mn612 O636 2.385 . S
Mn612 O637 2.209 . S
Mn612 O638 2.094 . S
Mn613 O618 2.121 . S
Mn613 N620 2.257 . S
Mn613 N629 2.282 . S
Mn613 O637 2.215 . S
Mn613 O639 2.117 . S
C614 O636 1.234 . S
C614 O637 1.283 . S
C615 O627 1.281 . S
C615 O628 1.236 . S
C616 O638 1.240 . S
C616 O639 1.264 . S
O617 Mn612 2.095 . S
O617 C626 1.250 . S
O618 Mn613 2.121 . S
O618 C626 1.258 . S
C619 N620 1.326 . S
C619 C623 1.460 . S
C619 H625 0.929 . S
N620 Mn613 2.257 . S
N620 C619 1.326 . S
N620 C624 1.362 . S
C621 C622 1.258 . S
C621 C624 1.431 . S
C621 C641 1.449 . S
C622 C621 1.258 . S
C622 C623 1.477 . S
C622 H642 0.931 . S
C623 C619 1.460 . S
C623 C622 1.477 . S
C623 H643 0.930 . S
C624 N620 1.362 . S
C624 C621 1.431 . S
C624 C634 1.476 . S
H625 C619 0.929 . S
C626 O617 1.250 . S
C626 O618 1.258 . S
O627 Mn612 2.162 . S
O627 C615 1.281 . S
O628 Mn612 2.297 . S
O628 C615 1.236 . S
N629 Mn613 2.282 . S
N629 C630 1.328 . S
N629 C634 1.318 . S
C630 N629 1.328 . S
C630 C631 1.457 . S
C630 H635 0.929 . S
C631 C630 1.457 . S
C631 C632 1.291 . S
C631 H644 0.931 . S
C632 C631 1.291 . S
C632 C633 1.373 . S
C632 H645 0.929 . S
C633 C632 1.373 . S
C633 C634 1.396 . S
C633 C640 1.403 . S
C634 C624 1.476 . S
C634 N629 1.318 . S
C634 C633 1.396 . S
H635 C630 0.929 . S
O636 Mn612 2.385 . S
O636 C614 1.234 . S
O637 Mn612 2.209 . S
O637 Mn613 2.215 . S
O637 C614 1.283 . S
O638 Mn612 2.094 . S
O638 C616 1.240 . S
O639 Mn613 2.117 . S
O639 C616 1.264 . S
C640 C633 1.403 . S
C640 C641 1.399 . S
C640 H646 0.929 . S
C641 C621 1.449 . S
C641 C640 1.399 . S
C641 H647 0.930 . S
H642 C622 0.931 . S
H643 C623 0.930 . S
H644 C631 0.931 . S
H645 C632 0.929 . S
H646 C640 0.929 . S
H647 C641 0.930 . S
Mn648 O653 2.095 . S
Mn648 O663 2.162 . S
Mn648 O664 2.297 . S
Mn648 O672 2.385 . S
Mn648 O673 2.209 . S
Mn648 O674 2.094 . S
Mn649 O654 2.121 . S
Mn649 N656 2.257 . S
Mn649 N665 2.282 . S
Mn649 O673 2.215 . S
Mn649 O675 2.117 . S
C650 O672 1.234 . S
C650 O673 1.283 . S
C651 O663 1.281 . S
C651 O664 1.236 . S
C652 O674 1.240 . S
C652 O675 1.264 . S
O653 Mn648 2.095 . S
O653 C662 1.250 . S
O654 Mn649 2.121 . S
O654 C662 1.258 . S
C655 N656 1.326 . S
C655 C659 1.460 . S
C655 H661 0.929 . S
N656 Mn649 2.257 . S
N656 C655 1.326 . S
N656 C660 1.362 . S
C657 C658 1.258 . S
C657 C660 1.431 . S
C657 C677 1.449 . S
C658 C657 1.258 . S
C658 C659 1.477 . S
C658 H678 0.931 . S
C659 C655 1.460 . S
C659 C658 1.477 . S
C659 H679 0.930 . S
C660 N656 1.362 . S
C660 C657 1.431 . S
C660 C670 1.476 . S
H661 C655 0.929 . S
C662 O653 1.250 . S
C662 O654 1.258 . S
O663 Mn648 2.162 . S
O663 C651 1.281 . S
O664 Mn648 2.297 . S
O664 C651 1.236 . S
N665 Mn649 2.282 . S
N665 C666 1.328 . S
N665 C670 1.318 . S
C666 N665 1.328 . S
C666 C667 1.457 . S
C666 H671 0.929 . S
C667 C666 1.457 . S
C667 C668 1.291 . S
C667 H680 0.931 . S
C668 C667 1.291 . S
C668 C669 1.373 . S
C668 H681 0.929 . S
C669 C668 1.373 . S
C669 C670 1.396 . S
C669 C676 1.403 . S
C670 C660 1.476 . S
C670 N665 1.318 . S
C670 C669 1.396 . S
H671 C666 0.929 . S
O672 Mn648 2.385 . S
O672 C650 1.234 . S
O673 Mn648 2.209 . S
O673 Mn649 2.215 . S
O673 C650 1.283 . S
O674 Mn648 2.094 . S
O674 C652 1.240 . S
O675 Mn649 2.117 . S
O675 C652 1.264 . S
C676 C669 1.403 . S
C676 C677 1.399 . S
C676 H682 0.929 . S
C677 C657 1.449 . S
C677 C676 1.399 . S
C677 H683 0.930 . S
H678 C658 0.931 . S
H679 C659 0.930 . S
H680 C667 0.931 . S
H681 C668 0.929 . S
H682 C676 0.929 . S
H683 C677 0.930 . S
Mn684 O689 2.095 . S
Mn684 O699 2.162 . S
Mn684 O700 2.297 . S
Mn684 O708 2.385 . S
Mn684 O709 2.209 . S
Mn684 O710 2.094 . S
Mn685 O690 2.121 . S
Mn685 N692 2.257 . S
Mn685 N701 2.282 . S
Mn685 O709 2.215 . S
Mn685 O711 2.117 . S
C686 O708 1.234 . S
C686 O709 1.283 . S
C687 O699 1.281 . S
C687 O700 1.236 . S
C688 O710 1.240 . S
C688 O711 1.264 . S
O689 Mn684 2.095 . S
O689 C698 1.250 . S
O690 Mn685 2.121 . S
O690 C698 1.258 . S
C691 N692 1.326 . S
C691 C695 1.460 . S
C691 H697 0.929 . S
N692 Mn685 2.257 . S
N692 C691 1.326 . S
N692 C696 1.362 . S
C693 C694 1.258 . S
C693 C696 1.431 . S
C693 C713 1.449 . S
C694 C693 1.258 . S
C694 C695 1.477 . S
C694 H714 0.931 . S
C695 C691 1.460 . S
C695 C694 1.477 . S
C695 H715 0.930 . S
C696 N692 1.362 . S
C696 C693 1.431 . S
C696 C706 1.476 . S
H697 C691 0.929 . S
C698 O689 1.250 . S
C698 O690 1.258 . S
O699 Mn684 2.162 . S
O699 C687 1.281 . S
O700 Mn684 2.297 . S
O700 C687 1.236 . S
N701 Mn685 2.282 . S
N701 C702 1.328 . S
N701 C706 1.318 . S
C702 N701 1.328 . S
C702 C703 1.457 . S
C702 H707 0.929 . S
C703 C702 1.457 . S
C703 C704 1.291 . S
C703 H716 0.931 . S
C704 C703 1.291 . S
C704 C705 1.373 . S
C704 H717 0.929 . S
C705 C704 1.373 . S
C705 C706 1.396 . S
C705 C712 1.403 . S
C706 C696 1.476 . S
C706 N701 1.318 . S
C706 C705 1.396 . S
H707 C702 0.929 . S
O708 Mn684 2.385 . S
O708 C686 1.234 . S
O709 Mn684 2.209 . S
O709 Mn685 2.215 . S
O709 C686 1.283 . S
O710 Mn684 2.094 . S
O710 C688 1.240 . S
O711 Mn685 2.117 . S
O711 C688 1.264 . S
C712 C705 1.403 . S
C712 C713 1.399 . S
C712 H718 0.929 . S
C713 C693 1.449 . S
C713 C712 1.399 . S
C713 H719 0.930 . S
H714 C694 0.931 . S
H715 C695 0.930 . S
H716 C703 0.931 . S
H717 C704 0.929 . S
H718 C712 0.929 . S
H719 C713 0.930 . S
Mn720 O725 2.095 . S
Mn720 O735 2.162 . S
Mn720 O736 2.297 . S
Mn720 O744 2.385 . S
Mn720 O745 2.209 . S
Mn720 O746 2.094 . S
Mn721 O726 2.121 1_556 S
Mn721 N728 2.257 . S
Mn721 N737 2.282 . S
Mn721 O745 2.215 1_556 S
Mn721 O747 2.117 . S
C722 O744 1.234 . S
C722 O745 1.283 . S
C723 O735 1.281 . S
C723 O736 1.236 . S
C724 O746 1.240 1_556 S
C724 O747 1.264 . S
O725 Mn720 2.095 . S
O725 C734 1.250 . S
O726 Mn721 2.121 1_554 S
O726 C734 1.258 . S
C727 N728 1.326 . S
C727 C731 1.460 . S
C727 H733 0.929 1_556 S
N728 Mn721 2.257 . S
N728 C727 1.326 . S
N728 C732 1.362 . S
C729 C730 1.258 . S
C729 C732 1.431 . S
C729 C749 1.449 . S
C730 C729 1.258 . S
C730 C731 1.477 . S
C730 H750 0.931 . S
C731 C727 1.460 . S
C731 C730 1.477 . S
C731 H751 0.930 1_556 S
C732 N728 1.362 . S
C732 C729 1.431 . S
C732 C742 1.476 . S
H733 C727 0.929 1_554 S
C734 O725 1.250 . S
C734 O726 1.258 . S
O735 Mn720 2.162 . S
O735 C723 1.281 . S
O736 Mn720 2.297 . S
O736 C723 1.236 . S
N737 Mn721 2.282 . S
N737 C738 1.328 . S
N737 C742 1.318 . S
C738 N737 1.328 . S
C738 C739 1.457 . S
C738 H743 0.929 . S
C739 C738 1.457 . S
C739 C740 1.291 . S
C739 H752 0.931 . S
C740 C739 1.291 . S
C740 C741 1.373 . S
C740 H753 0.929 . S
C741 C740 1.373 . S
C741 C742 1.396 . S
C741 C748 1.403 . S
C742 C732 1.476 . S
C742 N737 1.318 . S
C742 C741 1.396 . S
H743 C738 0.929 . S
O744 Mn720 2.385 . S
O744 C722 1.234 . S
O745 Mn720 2.209 . S
O745 Mn721 2.215 1_554 S
O745 C722 1.283 . S
O746 Mn720 2.094 . S
O746 C724 1.240 1_554 S
O747 Mn721 2.117 . S
O747 C724 1.264 . S
C748 C741 1.403 . S
C748 C749 1.399 . S
C748 H754 0.929 . S
C749 C729 1.449 . S
C749 C748 1.399 . S
C749 H755 0.930 . S
H750 C730 0.931 . S
H751 C731 0.930 1_554 S
H752 C739 0.931 . S
H753 C740 0.929 . S
H754 C748 0.929 . S
H755 C749 0.930 . S
Mn756 O761 2.095 . S
Mn756 O771 2.162 . S
Mn756 O772 2.297 . S
Mn756 O780 2.385 . S
Mn756 O781 2.209 . S
Mn756 O782 2.094 . S
Mn757 O762 2.121 . S
Mn757 N764 2.257 . S
Mn757 N773 2.282 . S
Mn757 O781 2.215 . S
Mn757 O783 2.117 . S
C758 O780 1.234 . S
C758 O781 1.283 . S
C759 O771 1.281 . S
C759 O772 1.236 . S
C760 O782 1.240 . S
C760 O783 1.264 . S
O761 Mn756 2.095 . S
O761 C770 1.250 . S
O762 Mn757 2.121 . S
O762 C770 1.258 . S
C763 N764 1.326 . S
C763 C767 1.460 . S
C763 H769 0.929 . S
N764 Mn757 2.257 . S
N764 C763 1.326 . S
N764 C768 1.362 . S
C765 C766 1.258 . S
C765 C768 1.431 . S
C765 C785 1.449 . S
C766 C765 1.258 . S
C766 C767 1.477 . S
C766 H786 0.931 . S
C767 C763 1.460 . S
C767 C766 1.477 . S
C767 H787 0.930 . S
C768 N764 1.362 . S
C768 C765 1.431 . S
C768 C778 1.476 . S
H769 C763 0.929 . S
C770 O761 1.250 . S
C770 O762 1.258 . S
O771 Mn756 2.162 . S
O771 C759 1.281 . S
O772 Mn756 2.297 . S
O772 C759 1.236 . S
N773 Mn757 2.282 . S
N773 C774 1.328 . S
N773 C778 1.318 . S
C774 N773 1.328 . S
C774 C775 1.457 . S
C774 H779 0.929 . S
C775 C774 1.457 . S
C775 C776 1.291 . S
C775 H788 0.931 . S
C776 C775 1.291 . S
C776 C777 1.373 . S
C776 H789 0.929 . S
C777 C776 1.373 . S
C777 C778 1.396 . S
C777 C784 1.403 . S
C778 C768 1.476 . S
C778 N773 1.318 . S
C778 C777 1.396 . S
H779 C774 0.929 . S
O780 Mn756 2.385 . S
O780 C758 1.234 . S
O781 Mn756 2.209 . S
O781 Mn757 2.215 . S
O781 C758 1.283 . S
O782 Mn756 2.094 . S
O782 C760 1.240 . S
O783 Mn757 2.117 . S
O783 C760 1.264 . S
C784 C777 1.403 . S
C784 C785 1.399 . S
C784 H790 0.929 . S
C785 C765 1.449 . S
C785 C784 1.399 . S
C785 H791 0.930 . S
H786 C766 0.931 . S
H787 C767 0.930 . S
H788 C775 0.931 . S
H789 C776 0.929 . S
H790 C784 0.929 . S
H791 C785 0.930 . S
Mn792 O797 2.095 . S
Mn792 O807 2.162 . S
Mn792 O808 2.297 . S
Mn792 O816 2.385 . S
Mn792 O817 2.209 . S
Mn792 O818 2.094 . S
Mn793 O798 2.121 . S
Mn793 N800 2.257 . S
Mn793 N809 2.282 . S
Mn793 O817 2.215 . S
Mn793 O819 2.117 . S
C794 O816 1.234 . S
C794 O817 1.283 . S
C795 O807 1.281 . S
C795 O808 1.236 . S
C796 O818 1.240 . S
C796 O819 1.264 . S
O797 Mn792 2.095 . S
O797 C806 1.250 . S
O798 Mn793 2.121 . S
O798 C806 1.258 . S
C799 N800 1.326 . S
C799 C803 1.460 . S
C799 H805 0.929 . S
N800 Mn793 2.257 . S
N800 C799 1.326 . S
N800 C804 1.362 . S
C801 C802 1.258 . S
C801 C804 1.431 . S
C801 C821 1.449 . S
C802 C801 1.258 . S
C802 C803 1.477 . S
C802 H822 0.931 . S
C803 C799 1.460 . S
C803 C802 1.477 . S
C803 H823 0.930 . S
C804 N800 1.362 . S
C804 C801 1.431 . S
C804 C814 1.476 . S
H805 C799 0.929 . S
C806 O797 1.250 . S
C806 O798 1.258 . S
O807 Mn792 2.162 . S
O807 C795 1.281 . S
O808 Mn792 2.297 . S
O808 C795 1.236 . S
N809 Mn793 2.282 . S
N809 C810 1.328 . S
N809 C814 1.318 . S
C810 N809 1.328 . S
C810 C811 1.457 . S
C810 H815 0.929 . S
C811 C810 1.457 . S
C811 C812 1.291 . S
C811 H824 0.931 . S
C812 C811 1.291 . S
C812 C813 1.373 . S
C812 H825 0.929 . S
C813 C812 1.373 . S
C813 C814 1.396 . S
C813 C820 1.403 . S
C814 C804 1.476 . S
C814 N809 1.318 . S
C814 C813 1.396 . S
H815 C810 0.929 . S
O816 Mn792 2.385 . S
O816 C794 1.234 . S
O817 Mn792 2.209 . S
O817 Mn793 2.215 . S
O817 C794 1.283 . S
O818 Mn792 2.094 . S
O818 C796 1.240 . S
O819 Mn793 2.117 . S
O819 C796 1.264 . S
C820 C813 1.403 . S
C820 C821 1.399 . S
C820 H826 0.929 . S
C821 C801 1.449 . S
C821 C820 1.399 . S
C821 H827 0.930 . S
H822 C802 0.931 . S
H823 C803 0.930 . S
H824 C811 0.931 . S
H825 C812 0.929 . S
H826 C820 0.929 . S
H827 C821 0.930 . S
Mn828 O833 2.095 . S
Mn828 O843 2.162 . S
Mn828 O844 2.297 . S
Mn828 O852 2.385 . S
Mn828 O853 2.209 . S
Mn828 O854 2.094 . S
Mn829 O834 2.121 . S
Mn829 N836 2.257 . S
Mn829 N845 2.282 . S
Mn829 O853 2.215 . S
Mn829 O855 2.117 . S
C830 O852 1.234 . S
C830 O853 1.283 . S
C831 O843 1.281 . S
C831 O844 1.236 . S
C832 O854 1.240 . S
C832 O855 1.264 . S
O833 Mn828 2.095 . S
O833 C842 1.250 . S
O834 Mn829 2.121 . S
O834 C842 1.258 . S
C835 N836 1.326 . S
C835 C839 1.460 . S
C835 H841 0.929 . S
N836 Mn829 2.257 . S
N836 C835 1.326 . S
N836 C840 1.362 . S
C837 C838 1.258 . S
C837 C840 1.431 . S
C837 C857 1.449 . S
C838 C837 1.258 . S
C838 C839 1.477 . S
C838 H858 0.931 . S
C839 C835 1.460 . S
C839 C838 1.477 . S
C839 H859 0.930 . S
C840 N836 1.362 . S
C840 C837 1.431 . S
C840 C850 1.476 . S
H841 C835 0.929 . S
C842 O833 1.250 . S
C842 O834 1.258 . S
O843 Mn828 2.162 . S
O843 C831 1.281 . S
O844 Mn828 2.297 . S
O844 C831 1.236 . S
N845 Mn829 2.282 . S
N845 C846 1.328 . S
N845 C850 1.318 . S
C846 N845 1.328 . S
C846 C847 1.457 . S
C846 H851 0.929 . S
C847 C846 1.457 . S
C847 C848 1.291 . S
C847 H860 0.931 . S
C848 C847 1.291 . S
C848 C849 1.373 . S
C848 H861 0.929 . S
C849 C848 1.373 . S
C849 C850 1.396 . S
C849 C856 1.403 . S
C850 C840 1.476 . S
C850 N845 1.318 . S
C850 C849 1.396 . S
H851 C846 0.929 . S
O852 Mn828 2.385 . S
O852 C830 1.234 . S
O853 Mn828 2.209 . S
O853 Mn829 2.215 . S
O853 C830 1.283 . S
O854 Mn828 2.094 . S
O854 C832 1.240 . S
O855 Mn829 2.117 . S
O855 C832 1.264 . S
C856 C849 1.403 . S
C856 C857 1.399 . S
C856 H862 0.929 . S
C857 C837 1.449 . S
C857 C856 1.399 . S
C857 H863 0.930 . S
H858 C838 0.931 . S
H859 C839 0.930 . S
H860 C847 0.931 . S
H861 C848 0.929 . S
H862 C856 0.929 . S
H863 C857 0.930 . S
Dy864 O867 2.307 . S
Dy864 O869 2.395 . S
Dy864 O870 2.379 . S
Dy864 O872 2.339 . S
Dy864 O874 2.298 . S
Dy864 O878 2.275 . S
Dy864 C886 2.738 . S
Dy865 O868 2.298 1_655 S
Dy865 O871 2.275 1_655 S
Dy865 O873 2.307 1_645 S
Dy865 O875 2.395 . S
Dy865 O876 2.379 1_554 S
Dy865 O879 2.339 1_654 S
Dy865 C895 2.738 . S
C866 O878 1.254 1_556 S
C866 O879 1.257 . S
O867 Dy864 2.307 . S
O867 C877 1.266 . S
O868 Dy865 2.298 1_455 S
O868 C877 1.236 . S
O869 Dy864 2.395 . S
O869 C886 1.255 . S
O870 Dy864 2.379 . S
O870 C886 1.249 . S
O871 Dy865 2.275 1_455 S
O871 C887 1.254 . S
O872 Dy864 2.339 . S
O872 C887 1.257 . S
O873 Dy865 2.307 1_465 S
O873 C888 1.266 . S
O874 Dy864 2.298 . S
O874 C888 1.236 1_545 S
O875 Dy865 2.395 . S
O875 C895 1.255 . S
O876 Dy865 2.379 1_556 S
O876 C895 1.249 1_556 S
C877 O867 1.266 . S
C877 O868 1.236 . S
O878 Dy864 2.275 . S
O878 C866 1.254 1_554 S
O879 Dy865 2.339 1_456 S
O879 C866 1.257 . S
C880 C883 1.344 . S
C880 C884 1.328 . S
C880 C886 1.516 . S
C881 C882 1.304 . S
C881 C885 1.323 . S
C882 C881 1.304 . S
C882 C883 1.371 . S
C882 H896 0.938 . S
C883 C880 1.344 . S
C883 C882 1.371 . S
C883 H897 0.931 . S
C884 C880 1.328 . S
C884 C885 1.433 . S
C884 H898 0.931 . S
C885 C881 1.323 . S
C885 C884 1.433 . S
C885 H899 0.933 . S
C886 Dy864 2.738 . S
C886 O869 1.255 . S
C886 O870 1.249 . S
C886 C880 1.516 . S
C887 O871 1.254 . S
C887 O872 1.257 . S
C888 O873 1.266 . S
C888 O874 1.236 1_565 S
C889 C892 1.344 . S
C889 C893 1.328 1_554 S
C889 C895 1.516 . S
C890 C891 1.304 . S
C890 C894 1.323 1_554 S
C891 C890 1.304 . S
C891 C892 1.371 . S
C891 H900 0.930 . S
C892 C889 1.344 . S
C892 C891 1.371 . S
C892 H901 0.931 . S
C893 C889 1.328 1_556 S
C893 C894 1.433 . S
C893 H902 0.931 . S
C894 C890 1.323 1_556 S
C894 C893 1.433 . S
C894 H903 0.933 . S
C895 Dy865 2.738 . S
C895 O875 1.255 . S
C895 O876 1.249 1_554 S
C895 C889 1.516 . S
H896 C882 0.938 . S
H897 C883 0.931 . S
H898 C884 0.931 . S
H899 C885 0.933 . S
H900 C891 0.930 . S
H901 C892 0.931 . S
H902 C893 0.931 . S
H903 C894 0.933 . S
Dy904 O907 2.307 . S
Dy904 O909 2.395 . S
Dy904 O910 2.379 . S
Dy904 O912 2.339 . S
Dy904 O914 2.298 . S
Dy904 O918 2.275 . S
Dy904 C926 2.738 . S
Dy905 O908 2.298 . S
Dy905 O911 2.275 . S
Dy905 O913 2.307 . S
Dy905 O915 2.395 . S
Dy905 O916 2.379 . S
Dy905 O919 2.339 . S
Dy905 C935 2.738 . S
C906 O918 1.254 . S
C906 O919 1.257 . S
O907 Dy904 2.307 . S
O907 C917 1.266 . S
O908 Dy905 2.298 . S
O908 C917 1.236 . S
O909 Dy904 2.395 . S
O909 C926 1.255 . S
O910 Dy904 2.379 . S
O910 C926 1.249 . S
O911 Dy905 2.275 . S
O911 C927 1.254 . S
O912 Dy904 2.339 . S
O912 C927 1.257 . S
O913 Dy905 2.307 . S
O913 C928 1.266 . S
O914 Dy904 2.298 . S
O914 C928 1.236 . S
O915 Dy905 2.395 . S
O915 C935 1.255 . S
O916 Dy905 2.379 . S
O916 C935 1.249 . S
C917 O907 1.266 . S
C917 O908 1.236 . S
O918 Dy904 2.275 . S
O918 C906 1.254 . S
O919 Dy905 2.339 . S
O919 C906 1.257 . S
C920 C923 1.344 . S
C920 C924 1.328 . S
C920 C926 1.516 . S
C921 C922 1.304 . S
C921 C925 1.323 . S
C922 C921 1.304 . S
C922 C923 1.371 . S
C922 H936 0.930 . S
C923 C920 1.344 . S
C923 C922 1.371 . S
C923 H937 0.931 . S
C924 C920 1.328 . S
C924 C925 1.433 . S
C924 H938 0.931 . S
C925 C921 1.323 . S
C925 C924 1.433 . S
C925 H939 0.933 . S
C926 Dy904 2.738 . S
C926 O909 1.255 . S
C926 O910 1.249 . S
C926 C920 1.516 . S
C927 O911 1.254 . S
C927 O912 1.257 . S
C928 O913 1.266 . S
C928 O914 1.236 . S
C929 C932 1.344 . S
C929 C933 1.328 . S
C929 C935 1.516 . S
C930 C931 1.304 . S
C930 C934 1.323 . S
C931 C930 1.304 . S
C931 C932 1.371 . S
C931 H940 0.930 . S
C932 C929 1.344 . S
C932 C931 1.371 . S
C932 H941 0.931 . S
C933 C929 1.328 . S
C933 C934 1.433 . S
C933 H942 0.931 . S
C934 C930 1.323 . S
C934 C933 1.433 . S
C934 H943 0.933 . S
C935 Dy905 2.738 . S
C935 O915 1.255 . S
C935 O916 1.249 . S
C935 C929 1.516 . S
H936 C922 0.930 . S
H937 C923 0.931 . S
H938 C924 0.931 . S
H939 C925 0.933 . S
H940 C931 0.930 . S
H941 C932 0.931 . S
H942 C933 0.931 . S
H943 C934 0.933 . S
Dy944 O947 2.307 . S
Dy944 O949 2.395 . S
Dy944 O950 2.379 . S
Dy944 O952 2.339 . S
Dy944 O954 2.298 . S
Dy944 O958 2.275 . S
Dy944 C966 2.738 . S
Dy945 O948 2.298 . S
Dy945 O951 2.275 . S
Dy945 O953 2.307 . S
Dy945 O955 2.395 . S
Dy945 O956 2.379 . S
Dy945 O959 2.339 . S
Dy945 C975 2.738 . S
C946 O958 1.254 . S
C946 O959 1.257 . S
O947 Dy944 2.307 . S
O947 C957 1.255 1_545 S
O948 Dy945 2.298 . S
O948 C957 1.229 1_545 S
O949 Dy944 2.395 . S
O949 C966 1.255 . S
O950 Dy944 2.379 . S
O950 C966 1.249 . S
O951 Dy945 2.275 . S
O951 C967 1.254 . S
O952 Dy944 2.339 . S
O952 C967 1.257 . S
O953 Dy945 2.307 . S
O953 C968 1.266 . S
O954 Dy944 2.298 . S
O954 C968 1.236 . S
O955 Dy945 2.395 . S
O955 C975 1.255 . S
O956 Dy945 2.379 . S
O956 C975 1.249 . S
C957 O947 1.255 1_565 S
C957 O948 1.229 1_565 S
O958 Dy944 2.275 . S
O958 C946 1.254 . S
O959 Dy945 2.339 . S
O959 C946 1.257 . S
C960 C963 1.344 . S
C960 C964 1.328 . S
C960 C966 1.516 . S
C961 C962 1.304 . S
C961 C965 1.323 . S
C962 C961 1.304 . S
C962 C963 1.371 . S
C962 H976 0.930 . S
C963 C960 1.344 . S
C963 C962 1.371 . S
C963 H977 0.931 . S
C964 C960 1.328 . S
C964 C965 1.433 . S
C964 H978 0.931 . S
C965 C961 1.323 . S
C965 C964 1.433 . S
C965 H979 0.933 . S
C966 Dy944 2.738 . S
C966 O949 1.255 . S
C966 O950 1.249 . S
C966 C960 1.516 . S
C967 O951 1.254 . S
C967 O952 1.257 . S
C968 O953 1.266 . S
C968 O954 1.236 . S
C969 C972 1.344 . S
C969 C973 1.328 . S
C969 C975 1.516 . S
C970 C971 1.304 . S
C970 C974 1.323 . S
C971 C970 1.304 . S
C971 C972 1.371 1_565 S
C971 H980 0.930 . S
C972 C969 1.344 . S
C972 C971 1.371 1_545 S
C972 H981 0.931 . S
C973 C969 1.328 . S
C973 C974 1.433 1_545 S
C973 H982 0.931 . S
C974 C970 1.323 . S
C974 C973 1.433 1_565 S
C974 H983 0.933 . S
C975 Dy945 2.738 . S
C975 O955 1.255 . S
C975 O956 1.249 . S
C975 C969 1.516 . S
H976 C962 0.930 . S
H977 C963 0.931 . S
H978 C964 0.931 . S
H979 C965 0.933 . S
H980 C971 0.930 . S
H981 C972 0.931 . S
H982 C973 0.931 . S
H983 C974 0.933 . S
Dy984 O987 2.307 . S
Dy984 O989 2.395 . S
Dy984 O990 2.379 . S
Dy984 O992 2.339 . S
Dy984 O994 2.298 . S
Dy984 O998 2.275 . S
Dy984 C1006 2.738 . S
Dy985 O988 2.298 . S
Dy985 O991 2.275 . S
Dy985 O993 2.307 . S
Dy985 O995 2.395 . S
Dy985 O996 2.379 . S
Dy985 O999 2.339 . S
Dy985 C1015 2.738 . S
C986 O998 1.254 . S
C986 O999 1.257 . S
O987 Dy984 2.307 . S
O987 C997 1.266 . S
O988 Dy985 2.298 . S
O988 C997 1.236 . S
O989 Dy984 2.395 . S
O989 C1006 1.255 . S
O990 Dy984 2.379 . S
O990 C1006 1.249 . S
O991 Dy985 2.275 . S
O991 C1007 1.254 . S
O992 Dy984 2.339 . S
O992 C1007 1.257 . S
O993 Dy985 2.307 . S
O993 C1008 1.266 . S
O994 Dy984 2.298 . S
O994 C1008 1.236 . S
O995 Dy985 2.395 . S
O995 C1015 1.255 . S
O996 Dy985 2.379 . S
O996 C1015 1.249 . S
C997 O987 1.266 . S
C997 O988 1.236 . S
O998 Dy984 2.275 . S
O998 C986 1.254 . S
O999 Dy985 2.339 . S
O999 C986 1.257 . S
C1000 C1003 1.344 . S
C1000 C1004 1.328 . S
C1000 C1006 1.516 . S
C1001 C1002 1.304 . S
C1001 C1005 1.323 . S
C1002 C1001 1.304 . S
C1002 C1003 1.371 . S
C1002 H1016 0.930 . S
C1003 C1000 1.344 . S
C1003 C1002 1.371 . S
C1003 H1017 0.931 . S
C1004 C1000 1.328 . S
C1004 C1005 1.433 . S
C1004 H1018 0.931 . S
C1005 C1001 1.323 . S
C1005 C1004 1.433 . S
C1005 H1019 0.933 . S
C1006 Dy984 2.738 . S
C1006 O989 1.255 . S
C1006 O990 1.249 . S
C1006 C1000 1.516 . S
C1007 O991 1.254 . S
C1007 O992 1.257 . S
C1008 O993 1.266 . S
C1008 O994 1.236 . S
C1009 C1012 1.344 . S
C1009 C1013 1.328 . S
C1009 C1015 1.516 . S
C1010 C1011 1.304 . S
C1010 C1014 1.323 . S
C1011 C1010 1.304 . S
C1011 C1012 1.371 . S
C1011 H1020 0.930 . S
C1012 C1009 1.344 . S
C1012 C1011 1.371 . S
C1012 H1021 0.931 . S
C1013 C1009 1.328 . S
C1013 C1014 1.433 . S
C1013 H1022 0.931 . S
C1014 C1010 1.323 . S
C1014 C1013 1.433 . S
C1014 H1023 0.933 . S
C1015 Dy985 2.738 . S
C1015 O995 1.255 . S
C1015 O996 1.249 . S
C1015 C1009 1.516 . S
H1016 C1002 0.930 . S
H1017 C1003 0.931 . S
H1018 C1004 0.931 . S
H1019 C1005 0.933 . S
H1020 C1011 0.930 . S
H1021 C1012 0.931 . S
H1022 C1013 0.931 . S
H1023 C1014 0.933 . S
Dy1024 O1027 2.307 . S
Dy1024 O1029 2.395 1_545 S
Dy1024 O1030 2.379 1_545 S
Dy1024 O1032 2.339 . S
Dy1024 O1034 2.298 . S
Dy1024 O1038 2.275 . S
Dy1024 C1046 2.738 1_545 S
Dy1025 O1028 2.298 . S
Dy1025 O1031 2.275 . S
Dy1025 O1033 2.307 . S
Dy1025 O1035 2.395 . S
Dy1025 O1036 2.379 1_455 S
Dy1025 O1039 2.339 1_455 S
Dy1025 C1055 2.738 . S
C1026 O1038 1.254 1_655 S
C1026 O1039 1.257 . S
O1027 Dy1024 2.307 . S
O1027 C1037 1.266 . S
O1028 Dy1025 2.298 . S
O1028 C1037 1.236 . S
O1029 Dy1024 2.395 1_565 S
O1029 C1046 1.255 . S
O1030 Dy1024 2.379 1_565 S
O1030 C1046 1.249 . S
O1031 Dy1025 2.275 . S
O1031 C1047 1.254 . S
O1032 Dy1024 2.339 . S
O1032 C1047 1.257 . S
O1033 Dy1025 2.307 . S
O1033 C1048 1.266 . S
O1034 Dy1024 2.298 . S
O1034 C1048 1.236 . S
O1035 Dy1025 2.395 . S
O1035 C1055 1.255 . S
O1036 Dy1025 2.379 1_655 S
O1036 C1055 1.249 1_655 S
C1037 O1027 1.266 . S
C1037 O1028 1.236 . S
O1038 Dy1024 2.275 . S
O1038 C1026 1.254 1_455 S
O1039 Dy1025 2.339 1_655 S
O1039 C1026 1.257 . S
C1040 C1043 1.344 . S
C1040 C1044 1.328 . S
C1040 C1046 1.516 . S
C1041 C1042 1.304 . S
C1041 C1045 1.323 . S
C1042 C1041 1.304 . S
C1042 C1043 1.371 . S
C1042 H1056 0.930 . S
C1043 C1040 1.344 . S
C1043 C1042 1.371 . S
C1043 H1057 0.931 . S
C1044 C1040 1.328 . S
C1044 C1045 1.433 . S
C1044 H1058 0.931 . S
C1045 C1041 1.323 . S
C1045 C1044 1.433 . S
C1045 H1059 0.933 . S
C1046 Dy1024 2.738 1_565 S
C1046 O1029 1.255 . S
C1046 O1030 1.249 . S
C1046 C1040 1.516 . S
C1047 O1031 1.254 . S
C1047 O1032 1.257 . S
C1048 O1033 1.266 . S
C1048 O1034 1.236 . S
C1049 C1052 1.344 . S
C1049 C1053 1.328 1_455 S
C1049 C1055 1.516 . S
C1050 C1051 1.304 . S
C1050 C1054 1.323 1_455 S
C1051 C1050 1.304 . S
C1051 C1052 1.371 . S
C1051 H1060 0.930 . S
C1052 C1049 1.344 . S
C1052 C1051 1.371 . S
C1052 H1061 0.931 . S
C1053 C1049 1.328 1_655 S
C1053 C1054 1.433 . S
C1053 H1062 0.931 . S
C1054 C1050 1.323 1_655 S
C1054 C1053 1.433 . S
C1054 H1063 0.933 . S
C1055 Dy1025 2.738 . S
C1055 O1035 1.255 . S
C1055 O1036 1.249 1_455 S
C1055 C1049 1.516 . S
H1056 C1042 0.930 . S
H1057 C1043 0.931 . S
H1058 C1044 0.931 . S
H1059 C1045 0.933 . S
H1060 C1051 0.930 . S
H1061 C1052 0.931 . S
H1062 C1053 0.931 . S
H1063 C1054 0.933 . S
Dy1064 O1067 2.307 . S
Dy1064 O1069 2.395 . S
Dy1064 O1070 2.379 . S
Dy1064 O1072 2.339 . S
Dy1064 O1074 2.298 . S
Dy1064 O1078 2.275 . S
Dy1064 C1086 2.738 . S
Dy1065 O1068 2.298 . S
Dy1065 O1071 2.275 . S
Dy1065 O1073 2.307 . S
Dy1065 O1075 2.395 . S
Dy1065 O1076 2.379 . S
Dy1065 O1079 2.339 . S
Dy1065 C1095 2.738 . S
C1066 O1078 1.254 . S
C1066 O1079 1.257 . S
O1067 Dy1064 2.307 . S
O1067 C1077 1.266 . S
O1068 Dy1065 2.298 . S
O1068 C1077 1.236 . S
O1069 Dy1064 2.395 . S
O1069 C1086 1.255 . S
O1070 Dy1064 2.379 . S
O1070 C1086 1.249 . S
O1071 Dy1065 2.275 . S
O1071 C1087 1.254 . S
O1072 Dy1064 2.339 . S
O1072 C1087 1.257 . S
O1073 Dy1065 2.307 . S
O1073 C1088 1.266 . S
O1074 Dy1064 2.298 . S
O1074 C1088 1.236 . S
O1075 Dy1065 2.395 . S
O1075 C1095 1.255 . S
O1076 Dy1065 2.379 . S
O1076 C1095 1.249 . S
C1077 O1067 1.266 . S
C1077 O1068 1.236 . S
O1078 Dy1064 2.275 . S
O1078 C1066 1.254 . S
O1079 Dy1065 2.339 . S
O1079 C1066 1.257 . S
C1080 C1083 1.344 . S
C1080 C1084 1.328 . S
C1080 C1086 1.516 . S
C1081 C1082 1.304 . S
C1081 C1085 1.323 . S
C1082 C1081 1.304 . S
C1082 C1083 1.371 . S
C1082 H1096 0.930 . S
C1083 C1080 1.344 . S
C1083 C1082 1.371 . S
C1083 H1097 0.931 . S
C1084 C1080 1.328 . S
C1084 C1085 1.433 . S
C1084 H1098 0.931 . S
C1085 C1081 1.323 . S
C1085 C1084 1.433 . S
C1085 H1099 0.933 . S
C1086 Dy1064 2.738 . S
C1086 O1069 1.255 . S
C1086 O1070 1.249 . S
C1086 C1080 1.516 . S
C1087 O1071 1.254 . S
C1087 O1072 1.257 . S
C1088 O1073 1.266 . S
C1088 O1074 1.236 . S
C1089 C1092 1.344 . S
C1089 C1093 1.328 . S
C1089 C1095 1.516 . S
C1090 C1091 1.304 . S
C1090 C1094 1.323 . S
C1091 C1090 1.304 . S
C1091 C1092 1.371 . S
C1091 H1100 0.930 . S
C1092 C1089 1.344 . S
C1092 C1091 1.371 . S
C1092 H1101 0.931 . S
C1093 C1089 1.328 . S
C1093 C1094 1.433 . S
C1093 H1102 0.931 . S
C1094 C1090 1.323 . S
C1094 C1093 1.433 . S
C1094 H1103 0.933 . S
C1095 Dy1065 2.738 . S
C1095 O1075 1.255 . S
C1095 O1076 1.249 . S
C1095 C1089 1.516 . S
H1096 C1082 0.930 . S
H1097 C1083 0.931 . S
H1098 C1084 0.931 . S
H1099 C1085 0.933 . S
H1100 C1091 0.930 . S
H1101 C1092 0.931 . S
H1102 C1093 0.931 . S
H1103 C1094 0.933 . S
Dy1104 O1107 2.307 . S
Dy1104 O1109 2.395 1_554 S
Dy1104 O1110 2.379 1_554 S
Dy1104 O1112 2.339 . S
Dy1104 O1114 2.298 . S
Dy1104 O1118 2.275 . S
Dy1104 C1126 2.738 1_554 S
Dy1105 O1108 2.298 . S
Dy1105 O1111 2.275 . S
Dy1105 O1113 2.307 . S
Dy1105 O1115 2.395 . S
Dy1105 O1116 2.379 . S
Dy1105 O1119 2.342 . S
Dy1105 C1135 2.738 . S
C1106 O1118 1.254 . S
C1106 O1119 1.259 . S
O1107 Dy1104 2.307 . S
O1107 C1117 1.266 . S
O1108 Dy1105 2.298 . S
O1108 C1117 1.236 . S
O1109 Dy1104 2.395 1_556 S
O1109 C1126 1.255 . S
O1110 Dy1104 2.379 1_556 S
O1110 C1126 1.249 . S
O1111 Dy1105 2.275 . S
O1111 C1127 1.254 . S
O1112 Dy1104 2.339 . S
O1112 C1127 1.257 . S
O1113 Dy1105 2.307 . S
O1113 C1128 1.266 . S
O1114 Dy1104 2.298 . S
O1114 C1128 1.236 . S
O1115 Dy1105 2.395 . S
O1115 C1135 1.255 . S
O1116 Dy1105 2.379 . S
O1116 C1135 1.249 . S
C1117 O1107 1.266 . S
C1117 O1108 1.236 . S
O1118 Dy1104 2.275 . S
O1118 C1106 1.254 . S
O1119 Dy1105 2.342 . S
O1119 C1106 1.259 . S
C1120 C1123 1.344 . S
C1120 C1124 1.328 . S
C1120 C1126 1.516 . S
C1121 C1122 1.304 . S
C1121 C1125 1.323 . S
C1122 C1121 1.304 . S
C1122 C1123 1.371 . S
C1122 H1136 0.930 . S
C1123 C1120 1.344 . S
C1123 C1122 1.371 . S
C1123 H1137 0.931 . S
C1124 C1120 1.328 . S
C1124 C1125 1.433 . S
C1124 H1138 0.931 . S
C1125 C1121 1.323 . S
C1125 C1124 1.433 . S
C1125 H1139 0.933 . S
C1126 Dy1104 2.738 1_556 S
C1126 O1109 1.255 . S
C1126 O1110 1.249 . S
C1126 C1120 1.516 . S
C1127 O1111 1.254 . S
C1127 O1112 1.257 . S
C1128 O1113 1.266 . S
C1128 O1114 1.236 . S
C1129 C1132 1.344 . S
C1129 C1133 1.328 1_545 S
C1129 C1135 1.516 . S
C1130 C1131 1.304 1_565 S
C1130 C1134 1.323 . S
C1131 C1130 1.304 1_545 S
C1131 C1132 1.371 . S
C1131 H1140 0.930 . S
C1132 C1129 1.344 . S
C1132 C1131 1.371 . S
C1132 H1141 0.931 . S
C1133 C1129 1.328 1_565 S
C1133 C1134 1.433 . S
C1133 H1142 0.931 . S
C1134 C1130 1.323 . S
C1134 C1133 1.433 . S
C1134 H1143 0.933 . S
C1135 Dy1105 2.738 . S
C1135 O1115 1.255 . S
C1135 O1116 1.249 . S
C1135 C1129 1.516 . S
H1136 C1122 0.930 . S
H1137 C1123 0.931 . S
H1138 C1124 0.931 . S
H1139 C1125 0.933 . S
H1140 C1131 0.930 . S
H1141 C1132 0.931 . S
H1142 C1133 0.931 . S
H1143 C1134 0.933 . S
Dy1144 O1147 2.307 . S
Dy1144 O1149 2.395 . S
Dy1144 O1150 2.379 . S
Dy1144 O1152 2.339 . S
Dy1144 O1154 2.298 . S
Dy1144 O1158 2.275 . S
Dy1144 C1166 2.738 . S
Dy1145 O1148 2.298 . S
Dy1145 O1151 2.275 . S
Dy1145 O1153 2.307 . S
Dy1145 O1155 2.395 . S
Dy1145 O1156 2.379 . S
Dy1145 O1159 2.339 . S
Dy1145 C1175 2.738 . S
C1146 O1158 1.254 . S
C1146 O1159 1.257 . S
O1147 Dy1144 2.307 . S
O1147 C1157 1.266 . S
O1148 Dy1145 2.298 . S
O1148 C1157 1.236 . S
O1149 Dy1144 2.395 . S
O1149 C1166 1.255 . S
O1150 Dy1144 2.379 . S
O1150 C1166 1.249 . S
O1151 Dy1145 2.275 . S
O1151 C1167 1.254 . S
O1152 Dy1144 2.339 . S
O1152 C1167 1.257 . S
O1153 Dy1145 2.307 . S
O1153 C1168 1.266 . S
O1154 Dy1144 2.298 . S
O1154 C1168 1.236 . S
O1155 Dy1145 2.395 . S
O1155 C1175 1.255 . S
O1156 Dy1145 2.379 . S
O1156 C1175 1.249 . S
C1157 O1147 1.266 . S
C1157 O1148 1.236 . S
O1158 Dy1144 2.275 . S
O1158 C1146 1.254 . S
O1159 Dy1145 2.339 . S
O1159 C1146 1.257 . S
C1160 C1163 1.344 . S
C1160 C1164 1.328 . S
C1160 C1166 1.516 . S
C1161 C1162 1.304 . S
C1161 C1165 1.323 . S
C1162 C1161 1.304 . S
C1162 C1163 1.371 . S
C1162 H1176 0.930 . S
C1163 C1160 1.344 . S
C1163 C1162 1.371 . S
C1163 H1177 0.931 . S
C1164 C1160 1.328 . S
C1164 C1165 1.433 . S
C1164 H1178 0.931 . S
C1165 C1161 1.323 . S
C1165 C1164 1.433 . S
C1165 H1179 0.933 . S
C1166 Dy1144 2.738 . S
C1166 O1149 1.255 . S
C1166 O1150 1.249 . S
C1166 C1160 1.516 . S
C1167 O1151 1.254 . S
C1167 O1152 1.257 . S
C1168 O1153 1.266 . S
C1168 O1154 1.236 . S
C1169 C1172 1.344 . S
C1169 C1173 1.328 . S
C1169 C1175 1.516 . S
C1170 C1171 1.304 . S
C1170 C1174 1.323 . S
C1171 C1170 1.304 . S
C1171 C1172 1.371 . S
C1171 H1180 0.930 . S
C1172 C1169 1.344 . S
C1172 C1171 1.371 . S
C1172 H1181 0.931 . S
C1173 C1169 1.328 . S
C1173 C1174 1.433 . S
C1173 H1182 0.931 . S
C1174 C1170 1.323 . S
C1174 C1173 1.433 . S
C1174 H1183 0.933 . S
C1175 Dy1145 2.738 . S
C1175 O1155 1.255 . S
C1175 O1156 1.249 . S
C1175 C1169 1.516 . S
H1176 C1162 0.930 . S
H1177 C1163 0.931 . S
H1178 C1164 0.931 . S
H1179 C1165 0.933 . S
H1180 C1171 0.930 . S
H1181 C1172 0.931 . S
H1182 C1173 0.931 . S
H1183 C1174 0.933 . S
Dy1184 O1187 2.307 1_554 S
Dy1184 O1189 2.395 . S
Dy1184 O1190 2.379 . S
Dy1184 O1192 2.339 . S
Dy1184 O1194 2.298 . S
Dy1184 O1198 2.275 . S
Dy1184 C1206 2.738 . S
Dy1185 O1188 2.298 1_554 S
Dy1185 O1191 2.275 . S
Dy1185 O1193 2.307 . S
Dy1185 O1195 2.395 . S
Dy1185 O1196 2.379 . S
Dy1185 O1199 2.339 . S
Dy1185 C1215 2.738 . S
C1186 O1198 1.254 . S
C1186 O1199 1.257 . S
O1187 Dy1184 2.307 1_556 S
O1187 C1197 1.266 . S
O1188 Dy1185 2.298 1_556 S
O1188 C1197 1.236 . S
O1189 Dy1184 2.395 . S
O1189 C1206 1.255 . S
O1190 Dy1184 2.379 . S
O1190 C1206 1.249 . S
O1191 Dy1185 2.275 . S
O1191 C1207 1.254 . S
O1192 Dy1184 2.339 . S
O1192 C1207 1.257 . S
O1193 Dy1185 2.307 . S
O1193 C1208 1.266 . S
O1194 Dy1184 2.298 . S
O1194 C1208 1.236 . S
O1195 Dy1185 2.395 . S
O1195 C1215 1.255 . S
O1196 Dy1185 2.379 . S
O1196 C1215 1.249 . S
C1197 O1187 1.266 . S
C1197 O1188 1.236 . S
O1198 Dy1184 2.275 . S
O1198 C1186 1.254 . S
O1199 Dy1185 2.339 . S
O1199 C1186 1.257 . S
C1200 C1203 1.344 . S
C1200 C1204 1.328 . S
C1200 C1206 1.516 . S
C1201 C1202 1.304 . S
C1201 C1205 1.323 . S
C1202 C1201 1.304 . S
C1202 C1203 1.371 . S
C1202 H1216 0.930 . S
C1203 C1200 1.344 . S
C1203 C1202 1.371 . S
C1203 H1217 0.931 . S
C1204 C1200 1.328 . S
C1204 C1205 1.433 . S
C1204 H1218 0.931 . S
C1205 C1201 1.323 . S
C1205 C1204 1.433 . S
C1205 H1219 0.933 . S
C1206 Dy1184 2.738 . S
C1206 O1189 1.255 . S
C1206 O1190 1.249 . S
C1206 C1200 1.516 . S
C1207 O1191 1.254 . S
C1207 O1192 1.257 . S
C1208 O1193 1.266 . S
C1208 O1194 1.236 . S
C1209 C1212 1.344 . S
C1209 C1213 1.328 . S
C1209 C1215 1.516 1_556 S
C1210 C1211 1.304 . S
C1210 C1214 1.323 . S
C1211 C1210 1.304 . S
C1211 C1212 1.371 . S
C1211 H1220 0.930 . S
C1212 C1209 1.344 . S
C1212 C1211 1.371 . S
C1212 H1221 0.931 . S
C1213 C1209 1.328 . S
C1213 C1214 1.433 . S
C1213 H1222 0.931 1_556 S
C1214 C1210 1.323 . S
C1214 C1213 1.433 . S
C1214 H1223 0.933 . S
C1215 Dy1185 2.738 . S
C1215 O1195 1.255 . S
C1215 O1196 1.249 . S
C1215 C1209 1.516 1_554 S
H1216 C1202 0.930 . S
H1217 C1203 0.931 . S
H1218 C1204 0.931 . S
H1219 C1205 0.933 . S
H1220 C1211 0.930 . S
H1221 C1212 0.931 . S
H1222 C1213 0.931 1_554 S
H1223 C1214 0.933 . S
Dy1224 O1227 2.307 . S
Dy1224 O1229 2.395 . S
Dy1224 O1230 2.379 . S
Dy1224 O1232 2.339 . S
Dy1224 O1234 2.298 . S
Dy1224 O1238 2.275 . S
Dy1224 C1246 2.738 . S
Dy1225 O1228 2.298 . S
Dy1225 O1231 2.275 . S
Dy1225 O1233 2.307 . S
Dy1225 O1235 2.395 . S
Dy1225 O1236 2.379 . S
Dy1225 O1239 2.339 . S
Dy1225 C1255 2.738 . S
C1226 O1238 1.254 . S
C1226 O1239 1.257 . S
O1227 Dy1224 2.307 . S
O1227 C1237 1.266 . S
O1228 Dy1225 2.298 . S
O1228 C1237 1.236 . S
O1229 Dy1224 2.395 . S
O1229 C1246 1.255 . S
O1230 Dy1224 2.379 . S
O1230 C1246 1.249 . S
O1231 Dy1225 2.275 . S
O1231 C1247 1.254 . S
O1232 Dy1224 2.339 . S
O1232 C1247 1.257 . S
O1233 Dy1225 2.307 . S
O1233 C1248 1.266 . S
O1234 Dy1224 2.298 . S
O1234 C1248 1.236 . S
O1235 Dy1225 2.395 . S
O1235 C1255 1.255 . S
O1236 Dy1225 2.379 . S
O1236 C1255 1.249 . S
C1237 O1227 1.266 . S
C1237 O1228 1.236 . S
O1238 Dy1224 2.275 . S
O1238 C1226 1.254 . S
O1239 Dy1225 2.339 . S
O1239 C1226 1.257 . S
C1240 C1243 1.344 . S
C1240 C1244 1.328 . S
C1240 C1246 1.516 . S
C1241 C1242 1.304 . S
C1241 C1245 1.323 . S
C1242 C1241 1.304 . S
C1242 C1243 1.371 . S
C1242 H1256 0.930 . S
C1243 C1240 1.344 . S
C1243 C1242 1.371 . S
C1243 H1257 0.931 . S
C1244 C1240 1.328 . S
C1244 C1245 1.433 . S
C1244 H1258 0.931 . S
C1245 C1241 1.323 . S
C1245 C1244 1.433 . S
C1245 H1259 0.933 . S
C1246 Dy1224 2.738 . S
C1246 O1229 1.255 . S
C1246 O1230 1.249 . S
C1246 C1240 1.516 . S
C1247 O1231 1.254 . S
C1247 O1232 1.257 . S
C1248 O1233 1.266 . S
C1248 O1234 1.236 . S
C1249 C1252 1.344 . S
C1249 C1253 1.328 . S
C1249 C1255 1.516 . S
C1250 C1251 1.304 . S
C1250 C1254 1.323 . S
C1251 C1250 1.304 . S
C1251 C1252 1.371 . S
C1251 H1260 0.930 . S
C1252 C1249 1.344 . S
C1252 C1251 1.371 . S
C1252 H1261 0.931 . S
C1253 C1249 1.328 . S
C1253 C1254 1.433 . S
C1253 H1262 0.931 . S
C1254 C1250 1.323 . S
C1254 C1253 1.433 . S
C1254 H1263 0.933 . S
C1255 Dy1225 2.738 . S
C1255 O1235 1.255 . S
C1255 O1236 1.249 . S
C1255 C1249 1.516 . S
H1256 C1242 0.930 . S
H1257 C1243 0.931 . S
H1258 C1244 0.931 . S
H1259 C1245 0.933 . S
H1260 C1251 0.930 . S
H1261 C1252 0.931 . S
H1262 C1253 0.931 . S
H1263 C1254 0.933 . S
Dy1264 O1267 2.307 1_455 S
Dy1264 O1269 2.395 . S
Dy1264 O1270 2.379 . S
Dy1264 O1272 2.339 . S
Dy1264 O1274 2.298 . S
Dy1264 O1278 2.275 . S
Dy1264 C1286 2.738 . S
Dy1265 O1268 2.298 1_455 S
Dy1265 O1271 2.275 . S
Dy1265 O1273 2.307 . S
Dy1265 O1275 2.395 . S
Dy1265 O1276 2.379 . S
Dy1265 O1279 2.339 . S
Dy1265 C1295 2.738 . S
C1266 O1278 1.254 . S
C1266 O1279 1.257 . S
O1267 Dy1264 2.307 1_655 S
O1267 C1277 1.266 . S
O1268 Dy1265 2.298 1_655 S
O1268 C1277 1.236 . S
O1269 Dy1264 2.395 . S
O1269 C1286 1.255 . S
O1270 Dy1264 2.379 . S
O1270 C1286 1.249 . S
O1271 Dy1265 2.275 . S
O1271 C1287 1.254 . S
O1272 Dy1264 2.339 . S
O1272 C1287 1.257 . S
O1273 Dy1265 2.307 . S
O1273 C1288 1.266 . S
O1274 Dy1264 2.298 . S
O1274 C1288 1.236 . S
O1275 Dy1265 2.395 . S
O1275 C1295 1.255 . S
O1276 Dy1265 2.379 . S
O1276 C1295 1.249 . S
C1277 O1267 1.266 . S
C1277 O1268 1.236 . S
O1278 Dy1264 2.275 . S
O1278 C1266 1.254 . S
O1279 Dy1265 2.339 . S
O1279 C1266 1.257 . S
C1280 C1283 1.344 . S
C1280 C1284 1.328 . S
C1280 C1286 1.516 . S
C1281 C1282 1.304 . S
C1281 C1285 1.323 . S
C1282 C1281 1.304 . S
C1282 C1283 1.371 . S
C1282 H1296 0.930 . S
C1283 C1280 1.344 . S
C1283 C1282 1.371 . S
C1283 H1297 0.931 . S
C1284 C1280 1.328 . S
C1284 C1285 1.433 . S
C1284 H1298 0.931 . S
C1285 C1281 1.323 . S
C1285 C1284 1.433 . S
C1285 H1299 0.933 . S
C1286 Dy1264 2.738 . S
C1286 O1269 1.255 . S
C1286 O1270 1.249 . S
C1286 C1280 1.516 . S
C1287 O1271 1.254 . S
C1287 O1272 1.257 . S
C1288 O1273 1.266 . S
C1288 O1274 1.236 . S
C1289 C1292 1.344 . S
C1289 C1293 1.328 . S
C1289 C1295 1.516 1_655 S
C1290 C1291 1.304 . S
C1290 C1294 1.323 . S
C1291 C1290 1.304 . S
C1291 C1292 1.371 . S
C1291 H1300 0.930 . S
C1292 C1289 1.344 . S
C1292 C1291 1.371 . S
C1292 H1301 0.931 . S
C1293 C1289 1.328 . S
C1293 C1294 1.433 . S
C1293 H1302 0.931 . S
C1294 C1290 1.323 . S
C1294 C1293 1.433 . S
C1294 H1303 0.933 . S
C1295 Dy1265 2.738 . S
C1295 O1275 1.255 . S
C1295 O1276 1.249 . S
C1295 C1289 1.516 1_455 S
H1296 C1282 0.930 . S
H1297 C1283 0.931 . S
H1298 C1284 0.931 . S
H1299 C1285 0.933 . S
H1300 C1291 0.930 . S
H1301 C1292 0.931 . S
H1302 C1293 0.931 . S
H1303 C1294 0.933 . S
Dy1304 O1307 2.307 . S
Dy1304 O1309 2.395 . S
Dy1304 O1310 2.379 . S
Dy1304 O1312 2.339 . S
Dy1304 O1314 2.298 . S
Dy1304 O1318 2.275 . S
Dy1304 C1326 2.738 . S
Dy1305 O1308 2.298 . S
Dy1305 O1311 2.275 . S
Dy1305 O1313 2.307 . S
Dy1305 O1315 2.395 . S
Dy1305 O1316 2.379 . S
Dy1305 O1319 2.339 . S
Dy1305 C1335 2.738 . S
C1306 O1318 1.254 . S
C1306 O1319 1.257 . S
O1307 Dy1304 2.307 . S
O1307 C1317 1.266 . S
O1308 Dy1305 2.298 . S
O1308 C1317 1.236 . S
O1309 Dy1304 2.395 . S
O1309 C1326 1.255 . S
O1310 Dy1304 2.379 . S
O1310 C1326 1.249 . S
O1311 Dy1305 2.275 . S
O1311 C1327 1.254 . S
O1312 Dy1304 2.339 . S
O1312 C1327 1.257 . S
O1313 Dy1305 2.307 . S
O1313 C1328 1.266 . S
O1314 Dy1304 2.298 . S
O1314 C1328 1.236 . S
O1315 Dy1305 2.395 . S
O1315 C1335 1.255 . S
O1316 Dy1305 2.379 . S
O1316 C1335 1.249 . S
C1317 O1307 1.266 . S
C1317 O1308 1.236 . S
O1318 Dy1304 2.275 . S
O1318 C1306 1.254 . S
O1319 Dy1305 2.339 . S
O1319 C1306 1.257 . S
C1320 C1323 1.344 . S
C1320 C1324 1.328 . S
C1320 C1326 1.516 . S
C1321 C1322 1.304 . S
C1321 C1325 1.323 . S
C1322 C1321 1.304 . S
C1322 C1323 1.371 . S
C1322 H1336 0.930 . S
C1323 C1320 1.344 . S
C1323 C1322 1.371 . S
C1323 H1337 0.931 . S
C1324 C1320 1.328 . S
C1324 C1325 1.433 . S
C1324 H1338 0.931 . S
C1325 C1321 1.323 . S
C1325 C1324 1.433 . S
C1325 H1339 0.933 . S
C1326 Dy1304 2.738 . S
C1326 O1309 1.255 . S
C1326 O1310 1.249 . S
C1326 C1320 1.516 . S
C1327 O1311 1.254 . S
C1327 O1312 1.257 . S
C1328 O1313 1.266 . S
C1328 O1314 1.236 . S
C1329 C1332 1.344 . S
C1329 C1333 1.328 . S
C1329 C1335 1.516 . S
C1330 C1331 1.304 . S
C1330 C1334 1.323 . S
C1331 C1330 1.304 . S
C1331 C1332 1.371 . S
C1331 H1340 0.930 . S
C1332 C1329 1.344 . S
C1332 C1331 1.371 . S
C1332 H1341 0.931 . S
C1333 C1329 1.328 . S
C1333 C1334 1.433 . S
C1333 H1342 0.931 . S
C1334 C1330 1.323 . S
C1334 C1333 1.433 . S
C1334 H1343 0.933 . S
C1335 Dy1305 2.738 . S
C1335 O1315 1.255 . S
C1335 O1316 1.249 . S
C1335 C1329 1.516 . S
H1336 C1322 0.930 . S
H1337 C1323 0.931 . S
H1338 C1324 0.931 . S
H1339 C1325 0.933 . S
H1340 C1331 0.930 . S
H1341 C1332 0.931 . S
H1342 C1333 0.931 . S
H1343 C1334 0.933 . S
Dy1344 O1347 2.307 . S
Dy1344 O1349 2.395 . S
Dy1344 O1350 2.379 . S
Dy1344 O1352 2.339 . S
Dy1344 O1354 2.298 . S
Dy1344 O1358 2.275 . S
Dy1344 C1366 2.738 . S
Dy1345 O1348 2.298 . S
Dy1345 O1351 2.275 . S
Dy1345 O1353 2.307 . S
Dy1345 O1355 2.395 . S
Dy1345 O1356 2.379 . S
Dy1345 O1359 2.339 . S
Dy1345 C1375 2.738 . S
C1346 O1358 1.254 . S
C1346 O1359 1.257 . S
O1347 Dy1344 2.307 . S
O1347 C1357 1.266 . S
O1348 Dy1345 2.298 . S
O1348 C1357 1.236 . S
O1349 Dy1344 2.395 . S
O1349 C1366 1.255 . S
O1350 Dy1344 2.379 . S
O1350 C1366 1.249 . S
O1351 Dy1345 2.275 . S
O1351 C1367 1.254 . S
O1352 Dy1344 2.339 . S
O1352 C1367 1.257 . S
O1353 Dy1345 2.307 . S
O1353 C1368 1.266 . S
O1354 Dy1344 2.298 . S
O1354 C1368 1.236 . S
O1355 Dy1345 2.395 . S
O1355 C1375 1.255 . S
O1356 Dy1345 2.379 . S
O1356 C1375 1.249 . S
C1357 O1347 1.266 . S
C1357 O1348 1.236 . S
O1358 Dy1344 2.275 . S
O1358 C1346 1.254 . S
O1359 Dy1345 2.339 . S
O1359 C1346 1.257 . S
C1360 C1363 1.344 . S
C1360 C1364 1.328 . S
C1360 C1366 1.516 . S
C1361 C1362 1.304 . S
C1361 C1365 1.323 . S
C1362 C1361 1.304 . S
C1362 C1363 1.371 . S
C1362 H1376 0.930 . S
C1363 C1360 1.344 . S
C1363 C1362 1.371 . S
C1363 H1377 0.931 . S
C1364 C1360 1.328 . S
C1364 C1365 1.433 . S
C1364 H1378 0.931 . S
C1365 C1361 1.323 . S
C1365 C1364 1.433 . S
C1365 H1379 0.933 . S
C1366 Dy1344 2.738 . S
C1366 O1349 1.255 . S
C1366 O1350 1.249 . S
C1366 C1360 1.516 . S
C1367 O1351 1.254 . S
C1367 O1352 1.257 . S
C1368 O1353 1.266 . S
C1368 O1354 1.236 . S
C1369 C1372 1.344 . S
C1369 C1373 1.328 . S
C1369 C1375 1.516 . S
C1370 C1371 1.304 . S
C1370 C1374 1.323 . S
C1371 C1370 1.304 . S
C1371 C1372 1.371 . S
C1371 H1380 0.930 . S
C1372 C1369 1.344 . S
C1372 C1371 1.371 . S
C1372 H1381 0.931 . S
C1373 C1369 1.328 . S
C1373 C1374 1.433 . S
C1373 H1382 0.931 . S
C1374 C1370 1.323 . S
C1374 C1373 1.433 . S
C1374 H1383 0.933 . S
C1375 Dy1345 2.738 . S
C1375 O1355 1.255 . S
C1375 O1356 1.249 . S
C1375 C1369 1.516 . S
H1376 C1362 0.930 . S
H1377 C1363 0.931 . S
H1378 C1364 0.931 . S
H1379 C1365 0.933 . S
H1380 C1371 0.930 . S
H1381 C1372 0.931 . S
H1382 C1373 0.931 . S
H1383 C1374 0.933 . S
Dy1384 O1387 2.307 . S
Dy1384 O1389 2.395 . S
Dy1384 O1390 2.379 . S
Dy1384 O1392 2.339 . S
Dy1384 O1394 2.298 . S
Dy1384 O1398 2.275 . S
Dy1384 C1406 2.738 . S
Dy1385 O1388 2.298 . S
Dy1385 O1391 2.275 . S
Dy1385 O1393 2.307 . S
Dy1385 O1395 2.395 . S
Dy1385 O1396 2.379 . S
Dy1385 O1399 2.339 . S
Dy1385 C1415 2.738 . S
C1386 O1398 1.254 . S
C1386 O1399 1.257 . S
O1387 Dy1384 2.307 . S
O1387 C1397 1.266 . S
O1388 Dy1385 2.298 . S
O1388 C1397 1.236 . S
O1389 Dy1384 2.395 . S
O1389 C1406 1.255 . S
O1390 Dy1384 2.379 . S
O1390 C1406 1.249 . S
O1391 Dy1385 2.275 . S
O1391 C1407 1.254 . S
O1392 Dy1384 2.339 . S
O1392 C1407 1.257 . S
O1393 Dy1385 2.307 . S
O1393 C1408 1.266 . S
O1394 Dy1384 2.298 . S
O1394 C1408 1.236 . S
O1395 Dy1385 2.395 . S
O1395 C1415 1.255 . S
O1396 Dy1385 2.379 . S
O1396 C1415 1.249 . S
C1397 O1387 1.266 . S
C1397 O1388 1.236 . S
O1398 Dy1384 2.275 . S
O1398 C1386 1.254 . S
O1399 Dy1385 2.339 . S
O1399 C1386 1.257 . S
C1400 C1403 1.344 . S
C1400 C1404 1.328 . S
C1400 C1406 1.516 . S
C1401 C1402 1.304 . S
C1401 C1405 1.323 . S
C1402 C1401 1.304 . S
C1402 C1403 1.371 . S
C1402 H1416 0.930 . S
C1403 C1400 1.344 . S
C1403 C1402 1.371 . S
C1403 H1417 0.931 . S
C1404 C1400 1.328 . S
C1404 C1405 1.433 . S
C1404 H1418 0.931 . S
C1405 C1401 1.323 . S
C1405 C1404 1.433 . S
C1405 H1419 0.933 . S
C1406 Dy1384 2.738 . S
C1406 O1389 1.255 . S
C1406 O1390 1.249 . S
C1406 C1400 1.516 . S
C1407 O1391 1.254 . S
C1407 O1392 1.257 . S
C1408 O1393 1.266 . S
C1408 O1394 1.236 . S
C1409 C1412 1.344 . S
C1409 C1413 1.328 . S
C1409 C1415 1.516 . S
C1410 C1411 1.304 . S
C1410 C1414 1.323 . S
C1411 C1410 1.304 . S
C1411 C1412 1.371 . S
C1411 H1420 0.930 . S
C1412 C1409 1.344 . S
C1412 C1411 1.371 . S
C1412 H1421 0.931 . S
C1413 C1409 1.328 . S
C1413 C1414 1.433 . S
C1413 H1422 0.931 . S
C1414 C1410 1.323 . S
C1414 C1413 1.433 . S
C1414 H1423 0.933 . S
C1415 Dy1385 2.738 . S
C1415 O1395 1.255 . S
C1415 O1396 1.249 . S
C1415 C1409 1.516 . S
H1416 C1402 0.930 . S
H1417 C1403 0.931 . S
H1418 C1404 0.931 . S
H1419 C1405 0.933 . S
H1420 C1411 0.930 . S
H1421 C1412 0.931 . S
H1422 C1413 0.931 . S
H1423 C1414 0.933 . S
Dy1424 O1427 2.307 . S
Dy1424 O1429 2.395 . S
Dy1424 O1430 2.379 . S
Dy1424 O1432 2.339 . S
Dy1424 O1434 2.298 . S
Dy1424 O1438 2.275 . S
Dy1424 C1446 2.738 . S
Dy1425 O1428 2.298 . S
Dy1425 O1431 2.275 . S
Dy1425 O1433 2.307 . S
Dy1425 O1435 2.395 . S
Dy1425 O1436 2.379 . S
Dy1425 O1439 2.339 . S
Dy1425 C1455 2.738 . S
C1426 O1438 1.254 . S
C1426 O1439 1.257 . S
O1427 Dy1424 2.307 . S
O1427 C1437 1.266 . S
O1428 Dy1425 2.298 . S
O1428 C1437 1.236 . S
O1429 Dy1424 2.395 . S
O1429 C1446 1.255 . S
O1430 Dy1424 2.379 . S
O1430 C1446 1.249 . S
O1431 Dy1425 2.275 . S
O1431 C1447 1.254 . S
O1432 Dy1424 2.339 . S
O1432 C1447 1.257 . S
O1433 Dy1425 2.307 . S
O1433 C1448 1.266 . S
O1434 Dy1424 2.298 . S
O1434 C1448 1.236 . S
O1435 Dy1425 2.395 . S
O1435 C1455 1.255 . S
O1436 Dy1425 2.379 . S
O1436 C1455 1.249 . S
C1437 O1427 1.266 . S
C1437 O1428 1.236 . S
O1438 Dy1424 2.275 . S
O1438 C1426 1.254 . S
O1439 Dy1425 2.339 . S
O1439 C1426 1.257 . S
C1440 C1443 1.344 . S
C1440 C1444 1.328 . S
C1440 C1446 1.516 . S
C1441 C1442 1.304 . S
C1441 C1445 1.323 . S
C1442 C1441 1.304 . S
C1442 C1443 1.371 . S
C1442 H1456 0.930 . S
C1443 C1440 1.344 . S
C1443 C1442 1.371 . S
C1443 H1457 0.931 . S
C1444 C1440 1.328 . S
C1444 C1445 1.433 . S
C1444 H1458 0.931 . S
C1445 C1441 1.323 . S
C1445 C1444 1.433 . S
C1445 H1459 0.933 . S
C1446 Dy1424 2.738 . S
C1446 O1429 1.255 . S
C1446 O1430 1.249 . S
C1446 C1440 1.516 . S
C1447 O1431 1.254 . S
C1447 O1432 1.257 . S
C1448 O1433 1.266 . S
C1448 O1434 1.236 . S
C1449 C1452 1.344 . S
C1449 C1453 1.328 . S
C1449 C1455 1.516 . S
C1450 C1451 1.304 . S
C1450 C1454 1.323 . S
C1451 C1450 1.304 . S
C1451 C1452 1.371 . S
C1451 H1460 0.930 . S
C1452 C1449 1.344 . S
C1452 C1451 1.371 . S
C1452 H1461 0.931 . S
C1453 C1449 1.328 . S
C1453 C1454 1.433 . S
C1453 H1462 0.931 . S
C1454 C1450 1.323 . S
C1454 C1453 1.433 . S
C1454 H1463 0.933 . S
C1455 Dy1425 2.738 . S
C1455 O1435 1.255 . S
C1455 O1436 1.249 . S
C1455 C1449 1.516 . S
H1456 C1442 0.930 . S
H1457 C1443 0.931 . S
H1458 C1444 0.931 . S
H1459 C1445 0.933 . S
H1460 C1451 0.930 . S
H1461 C1452 0.931 . S
H1462 C1453 0.931 . S
H1463 C1454 0.933 . S
Dy1464 O1467 2.307 . S
Dy1464 O1469 2.395 1_455 S
Dy1464 O1470 2.379 1_455 S
Dy1464 O1472 2.339 . S
Dy1464 O1474 2.298 . S
Dy1464 O1478 2.275 . S
Dy1464 C1486 2.738 1_455 S
Dy1465 O1468 2.298 . S
Dy1465 O1471 2.275 . S
Dy1465 O1473 2.307 . S
Dy1465 O1475 2.395 . S
Dy1465 O1476 2.379 1_554 S
Dy1465 O1479 2.339 1_554 S
Dy1465 C1495 2.738 . S
C1466 O1478 1.254 1_556 S
C1466 O1479 1.257 . S
O1467 Dy1464 2.307 . S
O1467 C1477 1.266 . S
O1468 Dy1465 2.298 . S
O1468 C1477 1.236 . S
O1469 Dy1464 2.395 1_655 S
O1469 C1486 1.255 . S
O1470 Dy1464 2.379 1_655 S
O1470 C1486 1.249 . S
O1471 Dy1465 2.275 . S
O1471 C1487 1.254 . S
O1472 Dy1464 2.339 . S
O1472 C1487 1.257 . S
O1473 Dy1465 2.307 . S
O1473 C1488 1.266 . S
O1474 Dy1464 2.298 . S
O1474 C1488 1.236 . S
O1475 Dy1465 2.395 . S
O1475 C1495 1.255 . S
O1476 Dy1465 2.379 1_556 S
O1476 C1495 1.249 1_556 S
C1477 O1467 1.266 . S
C1477 O1468 1.236 . S
O1478 Dy1464 2.275 . S
O1478 C1466 1.254 1_554 S
O1479 Dy1465 2.339 1_556 S
O1479 C1466 1.257 . S
C1480 C1483 1.344 . S
C1480 C1484 1.328 . S
C1480 C1486 1.516 . S
C1481 C1482 1.304 . S
C1481 C1485 1.323 . S
C1482 C1481 1.304 . S
C1482 C1483 1.371 . S
C1482 H1496 0.930 . S
C1483 C1480 1.344 . S
C1483 C1482 1.371 . S
C1483 H1497 0.931 . S
C1484 C1480 1.328 . S
C1484 C1485 1.433 . S
C1484 H1498 0.931 . S
C1485 C1481 1.323 . S
C1485 C1484 1.433 . S
C1485 H1499 0.933 . S
C1486 Dy1464 2.738 1_655 S
C1486 O1469 1.255 . S
C1486 O1470 1.249 . S
C1486 C1480 1.516 . S
C1487 O1471 1.254 . S
C1487 O1472 1.257 . S
C1488 O1473 1.266 . S
C1488 O1474 1.236 . S
C1489 C1492 1.344 . S
C1489 C1493 1.328 1_554 S
C1489 C1495 1.516 . S
C1490 C1491 1.304 . S
C1490 C1494 1.323 1_554 S
C1491 C1490 1.304 . S
C1491 C1492 1.371 . S
C1491 H1500 0.930 . S
C1492 C1489 1.344 . S
C1492 C1491 1.371 . S
C1492 H1501 0.931 . S
C1493 C1489 1.328 1_556 S
C1493 C1494 1.433 . S
C1493 H1502 0.931 . S
C1494 C1490 1.323 1_556 S
C1494 C1493 1.433 . S
C1494 H1503 0.933 . S
C1495 Dy1465 2.738 . S
C1495 O1475 1.255 . S
C1495 O1476 1.249 1_554 S
C1495 C1489 1.516 . S
H1496 C1482 0.930 . S
H1497 C1483 0.931 . S
H1498 C1484 0.931 . S
H1499 C1485 0.933 . S
H1500 C1491 0.930 . S
H1501 C1492 0.931 . S
H1502 C1493 0.931 . S
H1503 C1494 0.933 . S
C1504 C1505 1.369 1_655 S
C1504 C1506 1.419 . S
C1504 H1508 0.930 . S
C1505 C1504 1.369 1_455 S
C1505 C1514 1.429 . S
C1506 C1504 1.419 . S
C1506 C1507 1.363 1_655 S
C1506 H1509 0.929 . S
C1507 C1506 1.363 1_455 S
C1507 C1513 1.428 . S
H1508 C1504 0.930 . S
H1509 C1506 0.929 . S
S1510 N1511 1.613 . S
S1510 N1512 1.610 1_556 S
N1511 S1510 1.613 . S
N1511 C1514 1.350 1_556 S
N1512 S1510 1.610 1_554 S
N1512 C1513 1.351 . S
C1513 C1507 1.428 . S
C1513 N1512 1.351 . S
C1513 C1514 1.434 . S
C1514 C1505 1.429 . S
C1514 N1511 1.350 1_554 S
C1514 C1513 1.434 . S
C1515 C1516 1.369 . S
C1515 C1517 1.419 . S
C1515 H1519 0.930 . S
C1516 C1515 1.369 . S
C1516 C1525 1.429 . S
C1517 C1515 1.419 . S
C1517 C1518 1.363 . S
C1517 H1520 0.929 . S
C1518 C1517 1.363 . S
C1518 C1524 1.428 . S
H1519 C1515 0.930 . S
H1520 C1517 0.929 . S
S1521 N1522 1.613 . S
S1521 N1523 1.610 . S
N1522 S1521 1.613 . S
N1522 C1525 1.350 . S
N1523 S1521 1.610 . S
N1523 C1524 1.351 . S
C1524 C1518 1.428 . S
C1524 N1523 1.351 . S
C1524 C1525 1.434 . S
C1525 C1516 1.429 . S
C1525 N1522 1.350 . S
C1525 C1524 1.434 . S
C1526 C1527 1.369 . S
C1526 C1528 1.419 . S
C1526 H1530 0.930 . S
C1527 C1526 1.369 . S
C1527 C1536 1.429 . S
C1528 C1526 1.419 . S
C1528 C1529 1.363 . S
C1528 H1531 0.929 . S
C1529 C1528 1.363 . S
C1529 C1535 1.428 . S
H1530 C1526 0.930 . S
H1531 C1528 0.929 . S
S1532 N1533 1.613 . S
S1532 N1534 1.610 . S
N1533 S1532 1.613 . S
N1533 C1536 1.350 . S
N1534 S1532 1.610 . S
N1534 C1535 1.351 . S
C1535 C1529 1.428 . S
C1535 N1534 1.351 . S
C1535 C1536 1.434 . S
C1536 C1527 1.429 . S
C1536 N1533 1.350 . S
C1536 C1535 1.434 . S
C1537 C1538 1.369 . S
C1537 C1539 1.419 . S
C1537 H1541 0.930 . S
C1538 C1537 1.369 . S
C1538 C1547 1.429 . S
C1539 C1537 1.419 . S
C1539 C1540 1.363 . S
C1539 H1542 0.929 . S
C1540 C1539 1.363 . S
C1540 C1546 1.428 . S
H1541 C1537 0.930 . S
H1542 C1539 0.929 . S
S1543 N1544 1.613 . S
S1543 N1545 1.610 . S
N1544 S1543 1.613 . S
N1544 C1547 1.350 . S
N1545 S1543 1.610 . S
N1545 C1546 1.351 . S
C1546 C1540 1.428 . S
C1546 N1545 1.351 . S
C1546 C1547 1.434 . S
C1547 C1538 1.429 . S
C1547 N1544 1.350 . S
C1547 C1546 1.434 . S
C1548 C1549 1.369 . S
C1548 C1550 1.419 . S
C1548 H1552 0.930 . S
C1549 C1548 1.369 . S
C1549 C1558 1.429 . S
C1550 C1548 1.419 . S
C1550 C1551 1.363 . S
C1550 H1553 0.929 . S
C1551 C1550 1.363 . S
C1551 C1557 1.428 . S
H1552 C1548 0.930 . S
H1553 C1550 0.929 . S
S1554 N1555 1.613 . S
S1554 N1556 1.610 . S
N1555 S1554 1.613 . S
N1555 C1558 1.350 . S
N1556 S1554 1.610 . S
N1556 C1557 1.351 . S
C1557 C1551 1.428 . S
C1557 N1556 1.351 . S
C1557 C1558 1.434 . S
C1558 C1549 1.429 . S
C1558 N1555 1.350 . S
C1558 C1557 1.434 . S
C1559 C1560 1.369 . S
C1559 C1561 1.419 . S
C1559 H1563 0.930 . S
C1560 C1559 1.369 . S
C1560 C1569 1.429 . S
C1561 C1559 1.419 . S
C1561 C1562 1.363 . S
C1561 H1564 0.929 . S
C1562 C1561 1.363 . S
C1562 C1568 1.428 . S
H1563 C1559 0.930 . S
H1564 C1561 0.929 . S
S1565 N1566 1.613 . S
S1565 N1567 1.610 . S
N1566 S1565 1.613 . S
N1566 C1569 1.350 . S
N1567 S1565 1.610 . S
N1567 C1568 1.351 . S
C1568 C1562 1.428 . S
C1568 N1567 1.351 . S
C1568 C1569 1.434 . S
C1569 C1560 1.429 . S
C1569 N1566 1.350 . S
C1569 C1568 1.434 . S
C1570 C1571 1.369 . S
C1570 C1572 1.419 . S
C1570 H1574 0.930 . S
C1571 C1570 1.369 . S
C1571 C1580 1.429 . S
C1572 C1570 1.419 . S
C1572 C1573 1.363 . S
C1572 H1575 0.929 . S
C1573 C1572 1.363 . S
C1573 C1579 1.428 . S
H1574 C1570 0.930 . S
H1575 C1572 0.929 . S
S1576 N1577 1.613 . S
S1576 N1578 1.610 . S
N1577 S1576 1.613 . S
N1577 C1580 1.350 . S
N1578 S1576 1.610 . S
N1578 C1579 1.351 . S
C1579 C1573 1.428 . S
C1579 N1578 1.351 . S
C1579 C1580 1.434 . S
C1580 C1571 1.429 . S
C1580 N1577 1.350 . S
C1580 C1579 1.434 . S
C1581 C1582 1.369 . S
C1581 C1583 1.419 . S
C1581 H1585 0.930 . S
C1582 C1581 1.369 . S
C1582 C1591 1.429 . S
C1583 C1581 1.419 . S
C1583 C1584 1.363 . S
C1583 H1586 0.929 . S
C1584 C1583 1.363 . S
C1584 C1590 1.428 . S
H1585 C1581 0.930 . S
H1586 C1583 0.929 . S
S1587 N1588 1.613 . S
S1587 N1589 1.610 . S
N1588 S1587 1.613 . S
N1588 C1591 1.350 . S
N1589 S1587 1.610 . S
N1589 C1590 1.351 . S
C1590 C1584 1.428 . S
C1590 N1589 1.351 . S
C1590 C1591 1.434 . S
C1591 C1582 1.429 . S
C1591 N1588 1.350 . S
C1591 C1590 1.434 . S
C1592 C1593 1.369 . S
C1592 C1594 1.419 . S
C1592 H1596 0.930 1_545 S
C1593 C1592 1.369 . S
C1593 C1602 1.429 1_655 S
C1594 C1592 1.419 . S
C1594 C1595 1.363 1_655 S
C1594 H1597 0.929 . S
C1595 C1594 1.363 1_455 S
C1595 C1601 1.428 . S
H1596 C1592 0.930 1_565 S
H1597 C1594 0.929 . S
S1598 N1599 1.613 . S
S1598 N1600 1.610 . S
N1599 S1598 1.613 . S
N1599 C1602 1.350 . S
N1600 S1598 1.610 . S
N1600 C1601 1.351 . S
C1601 C1595 1.428 . S
C1601 N1600 1.351 . S
C1601 C1602 1.434 . S
C1602 C1593 1.429 1_455 S
C1602 N1599 1.350 . S
C1602 C1601 1.434 . S
C1603 C1604 1.369 . S
C1603 C1605 1.419 . S
C1603 H1607 0.930 . S
C1604 C1603 1.369 . S
C1604 C1613 1.429 . S
C1605 C1603 1.419 . S
C1605 C1606 1.363 . S
C1605 H1608 0.929 . S
C1606 C1605 1.363 . S
C1606 C1612 1.428 . S
H1607 C1603 0.930 . S
H1608 C1605 0.929 . S
S1609 N1610 1.613 . S
S1609 N1611 1.610 . S
N1610 S1609 1.613 . S
N1610 C1613 1.350 . S
N1611 S1609 1.610 . S
N1611 C1612 1.351 . S
C1612 C1606 1.428 . S
C1612 N1611 1.351 . S
C1612 C1613 1.434 . S
C1613 C1604 1.429 . S
C1613 N1610 1.350 . S
C1613 C1612 1.434 . S
C1614 C1615 1.369 . S
C1614 C1616 1.419 . S
C1614 H1618 0.930 . S
C1615 C1614 1.369 . S
C1615 C1624 1.429 . S
C1616 C1614 1.419 . S
C1616 C1617 1.363 . S
C1616 H1619 0.929 . S
C1617 C1616 1.363 . S
C1617 C1623 1.428 . S
H1618 C1614 0.930 . S
H1619 C1616 0.929 . S
S1620 N1621 1.613 . S
S1620 N1622 1.610 . S
N1621 S1620 1.613 . S
N1621 C1624 1.350 . S
N1622 S1620 1.610 . S
N1622 C1623 1.351 . S
C1623 C1617 1.428 . S
C1623 N1622 1.351 . S
C1623 C1624 1.434 . S
C1624 C1615 1.429 . S
C1624 N1621 1.350 . S
C1624 C1623 1.434 . S
C1625 C1626 1.369 . S
C1625 C1627 1.419 . S
C1625 H1629 0.930 . S
C1626 C1625 1.369 . S
C1626 C1635 1.429 . S
C1627 C1625 1.419 . S
C1627 C1628 1.363 . S
C1627 H1630 0.929 . S
C1628 C1627 1.363 . S
C1628 C1634 1.428 . S
H1629 C1625 0.930 . S
H1630 C1627 0.929 . S
S1631 N1632 1.613 . S
S1631 N1633 1.610 . S
N1632 S1631 1.613 . S
N1632 C1635 1.350 . S
N1633 S1631 1.610 . S
N1633 C1634 1.351 . S
C1634 C1628 1.428 . S
C1634 N1633 1.351 . S
C1634 C1635 1.434 . S
C1635 C1626 1.429 . S
C1635 N1632 1.350 . S
C1635 C1634 1.434 . S
C1636 C1637 1.369 1_455 S
C1636 C1638 1.419 . S
C1636 H1640 0.930 . S
C1637 C1636 1.369 1_655 S
C1637 C1646 1.429 . S
C1638 C1636 1.419 . S
C1638 C1639 1.363 . S
C1638 H1641 0.929 . S
C1639 C1638 1.363 . S
C1639 C1645 1.428 1_455 S
H1640 C1636 0.930 . S
H1641 C1638 0.929 . S
S1642 N1643 1.613 . S
S1642 N1644 1.610 . S
N1643 S1642 1.613 . S
N1643 C1646 1.350 . S
N1644 S1642 1.610 . S
N1644 C1645 1.351 . S
C1645 C1639 1.428 1_655 S
C1645 N1644 1.351 . S
C1645 C1646 1.434 . S
C1646 C1637 1.429 . S
C1646 N1643 1.350 . S
C1646 C1645 1.434 . S
C1647 C1648 1.369 . S
C1647 C1649 1.419 . S
C1647 H1651 0.930 . S
C1648 C1647 1.369 . S
C1648 C1657 1.429 . S
C1649 C1647 1.419 . S
C1649 C1650 1.363 . S
C1649 H1652 0.929 . S
C1650 C1649 1.363 . S
C1650 C1656 1.428 . S
H1651 C1647 0.930 . S
H1652 C1649 0.929 . S
S1653 N1654 1.613 . S
S1653 N1655 1.610 . S
N1654 S1653 1.613 . S
N1654 C1657 1.350 . S
N1655 S1653 1.610 . S
N1655 C1656 1.351 . S
C1656 C1650 1.428 . S
C1656 N1655 1.351 . S
C1656 C1657 1.434 . S
C1657 C1648 1.429 . S
C1657 N1654 1.350 . S
C1657 C1656 1.434 . S
C1658 C1659 1.369 . S
C1658 C1660 1.419 . S
C1658 H1662 0.930 . S
C1659 C1658 1.369 . S
C1659 C1668 1.429 . S
C1660 C1658 1.419 . S
C1660 C1661 1.363 . S
C1660 H1663 0.929 . S
C1661 C1660 1.363 . S
C1661 C1667 1.428 . S
H1662 C1658 0.930 . S
H1663 C1660 0.929 . S
S1664 N1665 1.613 . S
S1664 N1666 1.610 . S
N1665 S1664 1.613 . S
N1665 C1668 1.350 . S
N1666 S1664 1.610 . S
N1666 C1667 1.351 . S
C1667 C1661 1.428 . S
C1667 N1666 1.351 . S
C1667 C1668 1.434 . S
C1668 C1659 1.429 . S
C1668 N1665 1.350 . S
C1668 C1667 1.434 . S
C1669 C1670 1.369 . S
C1669 C1671 1.419 . S
C1669 H1673 0.930 . S
C1670 C1669 1.369 . S
C1670 C1679 1.429 . S
C1671 C1669 1.419 . S
C1671 C1672 1.363 . S
C1671 H1674 0.929 . S
C1672 C1671 1.363 . S
C1672 C1678 1.428 . S
H1673 C1669 0.930 . S
H1674 C1671 0.929 . S
S1675 N1676 1.613 . S
S1675 N1677 1.610 . S
N1676 S1675 1.613 . S
N1676 C1679 1.350 . S
N1677 S1675 1.610 . S
N1677 C1678 1.351 . S
C1678 C1672 1.428 . S
C1678 N1677 1.351 . S
C1678 C1679 1.434 . S
C1679 C1670 1.429 . S
C1679 N1676 1.350 . S
C1679 C1678 1.434 . S
C1680 C1681 1.369 . S
C1680 C1682 1.419 . S
C1680 H1684 0.930 1_554 S
C1681 C1680 1.369 . S
C1681 C1690 1.429 . S
C1682 C1680 1.419 . S
C1682 C1683 1.363 1_565 S
C1682 H1685 0.929 . S
C1683 C1682 1.363 1_545 S
C1683 C1689 1.428 . S
H1684 C1680 0.930 1_556 S
H1685 C1682 0.929 . S
S1686 N1687 1.613 1_545 S
S1686 N1688 1.610 . S
N1687 S1686 1.613 1_565 S
N1687 C1690 1.350 . S
N1688 S1686 1.610 . S
N1688 C1689 1.351 . S
C1689 C1683 1.428 . S
C1689 N1688 1.351 . S
C1689 C1690 1.434 1_545 S
C1690 C1681 1.429 . S
C1690 N1687 1.350 . S
C1690 C1689 1.434 1_565 S
C1691 C1692 1.369 . S
C1691 C1693 1.419 . S
C1691 H1695 0.930 . S
C1692 C1691 1.369 . S
C1692 C1701 1.429 . S
C1693 C1691 1.419 . S
C1693 C1694 1.363 . S
C1693 H1696 0.929 . S
C1694 C1693 1.363 . S
C1694 C1700 1.428 . S
H1695 C1691 0.930 . S
H1696 C1693 0.929 . S
S1697 N1698 1.613 . S
S1697 N1699 1.610 . S
N1698 S1697 1.613 . S
N1698 C1701 1.350 1_556 S
N1699 S1697 1.610 . S
N1699 C1700 1.351 1_556 S
C1700 C1694 1.428 . S
C1700 N1699 1.351 1_554 S
C1700 C1701 1.434 . S
C1701 C1692 1.429 . S
C1701 N1698 1.350 1_554 S
C1701 C1700 1.434 . S
C1702 C1703 1.369 . S
C1702 C1704 1.419 . S
C1702 H1706 0.930 . S
C1703 C1702 1.369 . S
C1703 C1712 1.429 . S
C1704 C1702 1.419 . S
C1704 C1705 1.363 . S
C1704 H1707 0.929 . S
C1705 C1704 1.363 . S
C1705 C1711 1.428 . S
H1706 C1702 0.930 . S
H1707 C1704 0.929 . S
S1708 N1709 1.613 . S
S1708 N1710 1.610 . S
N1709 S1708 1.613 . S
N1709 C1712 1.350 . S
N1710 S1708 1.610 . S
N1710 C1711 1.351 . S
C1711 C1705 1.428 . S
C1711 N1710 1.351 . S
C1711 C1712 1.434 . S
C1712 C1703 1.429 . S
C1712 N1709 1.350 . S
C1712 C1711 1.434 . S
C1713 C1714 1.369 . S
C1713 C1715 1.419 . S
C1713 H1717 0.930 . S
C1714 C1713 1.369 . S
C1714 C1723 1.429 . S
C1715 C1713 1.419 . S
C1715 C1716 1.363 . S
C1715 H1718 0.929 . S
C1716 C1715 1.363 . S
C1716 C1722 1.428 . S
H1717 C1713 0.930 . S
H1718 C1715 0.929 . S
S1719 N1720 1.613 . S
S1719 N1721 1.610 . S
N1720 S1719 1.613 . S
N1720 C1723 1.350 . S
N1721 S1719 1.610 . S
N1721 C1722 1.351 . S
C1722 C1716 1.428 . S
C1722 N1721 1.351 . S
C1722 C1723 1.434 . S
C1723 C1714 1.429 . S
C1723 N1720 1.350 . S
C1723 C1722 1.434 . S
C1724 C1725 1.369 . S
C1724 C1726 1.419 . S
C1724 H1728 0.930 . S
C1725 C1724 1.369 . S
C1725 C1734 1.429 . S
C1726 C1724 1.419 . S
C1726 C1727 1.363 . S
C1726 H1729 0.929 . S
C1727 C1726 1.363 . S
C1727 C1733 1.428 . S
H1728 C1724 0.930 . S
H1729 C1726 0.929 . S
S1730 N1731 1.613 . S
S1730 N1732 1.610 . S
N1731 S1730 1.613 . S
N1731 C1734 1.350 . S
N1732 S1730 1.610 . S
N1732 C1733 1.351 . S
C1733 C1727 1.428 . S
C1733 N1732 1.351 . S
C1733 C1734 1.434 . S
C1734 C1725 1.429 . S
C1734 N1731 1.350 . S
C1734 C1733 1.434 . S
C1735 C1736 1.369 . S
C1735 C1737 1.419 . S
C1735 H1739 0.930 . S
C1736 C1735 1.369 . S
C1736 C1745 1.429 . S
C1737 C1735 1.419 . S
C1737 C1738 1.363 . S
C1737 H1740 0.929 . S
C1738 C1737 1.363 . S
C1738 C1744 1.428 . S
H1739 C1735 0.930 . S
H1740 C1737 0.929 . S
S1741 N1742 1.613 . S
S1741 N1743 1.610 . S
N1742 S1741 1.613 . S
N1742 C1745 1.350 . S
N1743 S1741 1.610 . S
N1743 C1744 1.351 . S
C1744 C1738 1.428 . S
C1744 N1743 1.351 . S
C1744 C1745 1.434 . S
C1745 C1736 1.429 . S
C1745 N1742 1.350 . S
C1745 C1744 1.434 . S
C1746 C1747 1.369 . S
C1746 C1748 1.419 . S
C1746 H1750 0.930 . S
C1747 C1746 1.369 . S
C1747 C1756 1.429 . S
C1748 C1746 1.419 . S
C1748 C1749 1.363 . S
C1748 H1751 0.929 . S
C1749 C1748 1.363 . S
C1749 C1755 1.428 . S
H1750 C1746 0.930 . S
H1751 C1748 0.929 . S
S1752 N1753 1.613 . S
S1752 N1754 1.610 . S
N1753 S1752 1.613 . S
N1753 C1756 1.350 . S
N1754 S1752 1.610 . S
N1754 C1755 1.351 . S
C1755 C1749 1.428 . S
C1755 N1754 1.351 . S
C1755 C1756 1.434 . S
C1756 C1747 1.429 . S
C1756 N1753 1.350 . S
C1756 C1755 1.434 . S
C1757 C1758 1.369 . S
C1757 C1759 1.419 . S
C1757 H1761 0.930 . S
C1758 C1757 1.369 . S
C1758 C1767 1.429 . S
C1759 C1757 1.419 . S
C1759 C1760 1.363 . S
C1759 H1762 0.929 . S
C1760 C1759 1.363 . S
C1760 C1766 1.428 . S
H1761 C1757 0.930 . S
H1762 C1759 0.929 . S
S1763 N1764 1.613 . S
S1763 N1765 1.610 . S
N1764 S1763 1.613 . S
N1764 C1767 1.350 . S
N1765 S1763 1.610 . S
N1765 C1766 1.351 . S
C1766 C1760 1.428 . S
C1766 N1765 1.351 . S
C1766 C1767 1.434 . S
C1767 C1758 1.429 . S
C1767 N1764 1.350 . S
C1767 C1766 1.434 . S
C1768 C1769 1.369 . S
C1768 C1770 1.419 . S
C1768 H1772 0.930 . S
C1769 C1768 1.369 . S
C1769 C1778 1.429 . S
C1770 C1768 1.419 . S
C1770 C1771 1.363 . S
C1770 H1773 0.929 . S
C1771 C1770 1.363 . S
C1771 C1777 1.428 . S
H1772 C1768 0.930 . S
H1773 C1770 0.929 . S
S1774 N1775 1.613 1_655 S
S1774 N1776 1.610 1_655 S
N1775 S1774 1.613 1_455 S
N1775 C1778 1.350 . S
N1776 S1774 1.610 1_455 S
N1776 C1777 1.351 . S
C1777 C1771 1.428 . S
C1777 N1776 1.351 . S
C1777 C1778 1.434 . S
C1778 C1769 1.429 . S
C1778 N1775 1.350 . S
C1778 C1777 1.434 . S
C1779 C1780 1.369 . S
C1779 C1781 1.419 . S
C1779 H1783 0.930 . S
C1780 C1779 1.369 . S
C1780 C1789 1.429 . S
C1781 C1779 1.419 . S
C1781 C1782 1.363 . S
C1781 H1784 0.929 . S
C1782 C1781 1.363 . S
C1782 C1788 1.428 . S
H1783 C1779 0.930 . S
H1784 C1781 0.929 . S
S1785 N1786 1.613 . S
S1785 N1787 1.610 . S
N1786 S1785 1.613 . S
N1786 C1789 1.350 . S
N1787 S1785 1.610 . S
N1787 C1788 1.351 . S
C1788 C1782 1.428 . S
C1788 N1787 1.351 . S
C1788 C1789 1.434 . S
C1789 C1780 1.429 . S
C1789 N1786 1.350 . S
C1789 C1788 1.434 . S
C1790 C1791 1.369 . S
C1790 C1792 1.419 . S
C1790 H1794 0.930 . S
C1791 C1790 1.369 . S
C1791 C1800 1.429 . S
C1792 C1790 1.419 . S
C1792 C1793 1.363 . S
C1792 H1795 0.929 . S
C1793 C1792 1.363 . S
C1793 C1799 1.428 . S
H1794 C1790 0.930 . S
H1795 C1792 0.929 . S
S1796 N1797 1.613 . S
S1796 N1798 1.610 . S
N1797 S1796 1.613 . S
N1797 C1800 1.350 . S
N1798 S1796 1.610 . S
N1798 C1799 1.351 . S
C1799 C1793 1.428 . S
C1799 N1798 1.351 . S
C1799 C1800 1.434 . S
C1800 C1791 1.429 . S
C1800 N1797 1.350 . S
C1800 C1799 1.434 . S
C1801 C1802 1.369 . S
C1801 C1803 1.419 . S
C1801 H1805 0.930 . S
C1802 C1801 1.369 . S
C1802 C1811 1.429 . S
C1803 C1801 1.419 . S
C1803 C1804 1.363 . S
C1803 H1806 0.929 . S
C1804 C1803 1.363 . S
C1804 C1810 1.428 . S
H1805 C1801 0.930 . S
H1806 C1803 0.929 . S
S1807 N1808 1.613 . S
S1807 N1809 1.610 . S
N1808 S1807 1.613 . S
N1808 C1811 1.350 . S
N1809 S1807 1.610 . S
N1809 C1810 1.351 . S
C1810 C1804 1.428 . S
C1810 N1809 1.351 . S
C1810 C1811 1.434 . S
C1811 C1802 1.429 . S
C1811 N1808 1.350 . S
C1811 C1810 1.434 . S
C1812 C1813 1.369 . S
C1812 C1814 1.419 . S
C1812 H1816 0.930 . S
C1813 C1812 1.369 . S
C1813 C1822 1.429 . S
C1814 C1812 1.419 . S
C1814 C1815 1.363 . S
C1814 H1817 0.929 . S
C1815 C1814 1.363 . S
C1815 C1821 1.428 1_455 S
H1816 C1812 0.930 . S
H1817 C1814 0.929 . S
S1818 N1819 1.613 1_655 S
S1818 N1820 1.610 . S
N1819 S1818 1.613 1_455 S
N1819 C1822 1.350 . S
N1820 S1818 1.610 . S
N1820 C1821 1.351 . S
C1821 C1815 1.428 1_655 S
C1821 N1820 1.351 . S
C1821 C1822 1.434 1_655 S
C1822 C1813 1.429 . S
C1822 N1819 1.350 . S
C1822 C1821 1.434 1_455 S
C1823 C1824 1.369 . S
C1823 C1825 1.419 . S
C1823 H1827 0.930 . S
C1824 C1823 1.369 . S
C1824 C1833 1.429 . S
C1825 C1823 1.419 . S
C1825 C1826 1.363 . S
C1825 H1828 0.929 . S
C1826 C1825 1.363 . S
C1826 C1832 1.428 . S
H1827 C1823 0.930 . S
H1828 C1825 0.929 . S
S1829 N1830 1.613 . S
S1829 N1831 1.610 . S
N1830 S1829 1.613 . S
N1830 C1833 1.350 . S
N1831 S1829 1.610 . S
N1831 C1832 1.351 . S
C1832 C1826 1.428 . S
C1832 N1831 1.351 . S
C1832 C1833 1.434 . S
C1833 C1824 1.429 . S
C1833 N1830 1.350 . S
C1833 C1832 1.434 . S
C1834 C1835 1.369 . S
C1834 C1836 1.419 . S
C1834 H1838 0.930 . S
C1835 C1834 1.369 . S
C1835 C1844 1.429 . S
C1836 C1834 1.419 . S
C1836 C1837 1.363 . S
C1836 H1839 0.929 . S
C1837 C1836 1.363 . S
C1837 C1843 1.428 . S
H1838 C1834 0.930 . S
H1839 C1836 0.929 . S
S1840 N1841 1.613 1_545 S
S1840 N1842 1.610 . S
N1841 S1840 1.613 1_565 S
N1841 C1844 1.350 . S
N1842 S1840 1.610 . S
N1842 C1843 1.351 1_545 S
C1843 C1837 1.428 . S
C1843 N1842 1.351 1_565 S
C1843 C1844 1.434 . S
C1844 C1835 1.429 . S
C1844 N1841 1.350 . S
C1844 C1843 1.434 . S
C1845 C1846 1.369 . S
C1845 C1847 1.419 . S
C1845 H1849 0.930 . S
C1846 C1845 1.369 . S
C1846 C1855 1.429 . S
C1847 C1845 1.419 . S
C1847 C1848 1.363 . S
C1847 H1850 0.929 . S
C1848 C1847 1.363 . S
C1848 C1854 1.428 . S
H1849 C1845 0.930 . S
H1850 C1847 0.929 . S
S1851 N1852 1.613 . S
S1851 N1853 1.610 . S
N1852 S1851 1.613 . S
N1852 C1855 1.350 . S
N1853 S1851 1.610 . S
N1853 C1854 1.351 . S
C1854 C1848 1.428 . S
C1854 N1853 1.351 . S
C1854 C1855 1.434 . S
C1855 C1846 1.429 . S
C1855 N1852 1.350 . S
C1855 C1854 1.434 . S
C1856 C1857 1.369 . S
C1856 C1858 1.419 . S
C1856 H1860 0.930 . S
C1857 C1856 1.369 . S
C1857 C1866 1.429 . S
C1858 C1856 1.419 . S
C1858 C1859 1.363 . S
C1858 H1861 0.929 . S
C1859 C1858 1.363 . S
C1859 C1865 1.428 . S
H1860 C1856 0.930 . S
H1861 C1858 0.929 . S
S1862 N1863 1.613 . S
S1862 N1864 1.610 . S
N1863 S1862 1.613 . S
N1863 C1866 1.350 . S
N1864 S1862 1.610 . S
N1864 C1865 1.351 . S
C1865 C1859 1.428 . S
C1865 N1864 1.351 . S
C1865 C1866 1.434 . S
C1866 C1857 1.429 . S
C1866 N1863 1.350 . S
C1866 C1865 1.434 . S
C1867 C1868 1.369 . S
C1867 C1869 1.419 . S
C1867 H1871 0.930 . S
C1868 C1867 1.369 . S
C1868 C1877 1.429 . S
C1869 C1867 1.419 . S
C1869 C1870 1.363 . S
C1869 H1872 0.929 . S
C1870 C1869 1.363 . S
C1870 C1876 1.428 . S
H1871 C1867 0.930 . S
H1872 C1869 0.929 . S
S1873 N1874 1.613 . S
S1873 N1875 1.610 . S
N1874 S1873 1.613 . S
N1874 C1877 1.350 . S
N1875 S1873 1.610 . S
N1875 C1876 1.351 . S
C1876 C1870 1.428 . S
C1876 N1875 1.351 . S
C1876 C1877 1.434 . S
C1877 C1868 1.429 . S
C1877 N1874 1.350 . S
C1877 C1876 1.434 . S
C1878 C1879 1.369 . S
C1878 C1880 1.419 . S
C1878 H1882 0.930 . S
C1879 C1878 1.369 . S
C1879 C1888 1.429 . S
C1880 C1878 1.419 . S
C1880 C1881 1.363 . S
C1880 H1883 0.929 . S
C1881 C1880 1.363 . S
C1881 C1887 1.428 . S
H1882 C1878 0.930 . S
H1883 C1880 0.929 . S
S1884 N1885 1.610 . S
S1884 N1886 1.610 . S
N1885 S1884 1.610 . S
N1885 C1888 1.355 . S
N1886 S1884 1.610 . S
N1886 C1887 1.351 . S
C1887 C1881 1.428 . S
C1887 N1886 1.351 . S
C1887 C1888 1.434 . S
C1888 C1879 1.429 . S
C1888 N1885 1.355 . S
C1888 C1887 1.434 . S
C1889 C1890 1.369 . S
C1889 C1891 1.419 . S
C1889 H1893 0.930 . S
C1890 C1889 1.369 . S
C1890 C1899 1.429 . S
C1891 C1889 1.419 . S
C1891 C1892 1.363 . S
C1891 H1894 0.929 . S
C1892 C1891 1.363 . S
C1892 C1898 1.428 . S
H1893 C1889 0.930 . S
H1894 C1891 0.929 . S
S1895 N1896 1.613 . S
S1895 N1897 1.610 . S
N1896 S1895 1.613 . S
N1896 C1899 1.350 . S
N1897 S1895 1.610 . S
N1897 C1898 1.351 . S
C1898 C1892 1.428 . S
C1898 N1897 1.351 . S
C1898 C1899 1.434 . S
C1899 C1890 1.429 . S
C1899 N1896 1.350 . S
C1899 C1898 1.434 . S
C1900 C1901 1.369 . S
C1900 C1902 1.419 . S
C1900 H1904 0.930 . S
C1901 C1900 1.369 . S
C1901 C1910 1.429 . S
C1902 C1900 1.419 . S
C1902 C1903 1.363 . S
C1902 H1905 0.929 . S
C1903 C1902 1.363 . S
C1903 C1909 1.428 . S
H1904 C1900 0.930 . S
H1905 C1902 0.929 . S
S1906 N1907 1.613 1_565 S
S1906 N1908 1.610 1_565 S
N1907 S1906 1.613 1_545 S
N1907 C1910 1.350 . S
N1908 S1906 1.610 1_545 S
N1908 C1909 1.351 . S
C1909 C1903 1.428 . S
C1909 N1908 1.351 . S
C1909 C1910 1.434 . S
C1910 C1901 1.429 . S
C1910 N1907 1.350 . S
C1910 C1909 1.434 . S
C1911 C1912 1.369 . S
C1911 C1913 1.419 . S
C1911 H1915 0.930 . S
C1912 C1911 1.369 . S
C1912 C1921 1.429 . S
C1913 C1911 1.419 . S
C1913 C1914 1.363 . S
C1913 H1916 0.929 . S
C1914 C1913 1.363 . S
C1914 C1920 1.428 . S
H1915 C1911 0.930 . S
H1916 C1913 0.929 . S
S1917 N1918 1.613 . S
S1917 N1919 1.610 . S
N1918 S1917 1.613 . S
N1918 C1921 1.350 . S
N1919 S1917 1.610 . S
N1919 C1920 1.351 . S
C1920 C1914 1.428 . S
C1920 N1919 1.351 . S
C1920 C1921 1.434 . S
C1921 C1912 1.429 . S
C1921 N1918 1.350 . S
C1921 C1920 1.434 . S
C1922 C1923 1.369 . S
C1922 C1924 1.419 . S
C1922 H1926 0.930 . S
C1923 C1922 1.369 . S
C1923 C1932 1.429 . S
C1924 C1922 1.419 . S
C1924 C1925 1.363 . S
C1924 H1927 0.929 . S
C1925 C1924 1.363 . S
C1925 C1931 1.428 . S
H1926 C1922 0.930 . S
H1927 C1924 0.929 . S
S1928 N1929 1.613 . S
S1928 N1930 1.610 . S
N1929 S1928 1.613 . S
N1929 C1932 1.350 . S
N1930 S1928 1.610 . S
N1930 C1931 1.351 . S
C1931 C1925 1.428 . S
C1931 N1930 1.351 . S
C1931 C1932 1.434 . S
C1932 C1923 1.429 . S
C1932 N1929 1.350 . S
C1932 C1931 1.434 . S
C1933 C1934 1.369 . S
C1933 C1935 1.419 . S
C1933 H1937 0.930 . S
C1934 C1933 1.369 . S
C1934 C1943 1.429 . S
C1935 C1933 1.419 . S
C1935 C1936 1.363 . S
C1935 H1938 0.929 . S
C1936 C1935 1.363 . S
C1936 C1942 1.428 . S
H1937 C1933 0.930 . S
H1938 C1935 0.929 . S
S1939 N1940 1.613 . S
S1939 N1941 1.610 . S
N1940 S1939 1.613 . S
N1940 C1943 1.350 . S
N1941 S1939 1.610 . S
N1941 C1942 1.351 . S
C1942 C1936 1.428 . S
C1942 N1941 1.351 . S
C1942 C1943 1.434 . S
C1943 C1934 1.429 . S
C1943 N1940 1.350 . S
C1943 C1942 1.434 . S
C1944 C1945 1.369 . S
C1944 C1946 1.419 . S
C1944 H1948 0.930 . S
C1945 C1944 1.369 . S
C1945 C1954 1.429 . S
C1946 C1944 1.419 . S
C1946 C1947 1.363 . S
C1946 H1949 0.929 . S
C1947 C1946 1.363 . S
C1947 C1953 1.428 . S
H1948 C1944 0.930 . S
H1949 C1946 0.929 . S
S1950 N1951 1.613 . S
S1950 N1952 1.610 . S
N1951 S1950 1.613 . S
N1951 C1954 1.350 . S
N1952 S1950 1.610 . S
N1952 C1953 1.351 . S
C1953 C1947 1.428 . S
C1953 N1952 1.351 . S
C1953 C1954 1.434 . S
C1954 C1945 1.429 . S
C1954 N1951 1.350 . S
C1954 C1953 1.434 . S
C1955 C1956 1.369 . S
C1955 C1957 1.419 . S
C1955 H1959 0.930 . S
C1956 C1955 1.369 . S
C1956 C1965 1.429 . S
C1957 C1955 1.419 . S
C1957 C1958 1.363 . S
C1957 H1960 0.929 . S
C1958 C1957 1.363 . S
C1958 C1964 1.428 . S
H1959 C1955 0.930 . S
H1960 C1957 0.929 . S
S1961 N1962 1.613 . S
S1961 N1963 1.610 . S
N1962 S1961 1.613 . S
N1962 C1965 1.350 . S
N1963 S1961 1.610 . S
N1963 C1964 1.351 . S
C1964 C1958 1.428 . S
C1964 N1963 1.351 . S
C1964 C1965 1.434 . S
C1965 C1956 1.429 . S
C1965 N1962 1.350 . S
C1965 C1964 1.434 . S
C1966 C1967 1.369 . S
C1966 C1968 1.419 . S
C1966 H1970 0.930 . S
C1967 C1966 1.369 . S
C1967 C1976 1.429 . S
C1968 C1966 1.419 . S
C1968 C1969 1.363 . S
C1968 H1971 0.929 . S
C1969 C1968 1.363 . S
C1969 C1975 1.428 . S
H1970 C1966 0.930 . S
H1971 C1968 0.929 . S
S1972 N1973 1.613 . S
S1972 N1974 1.610 . S
N1973 S1972 1.613 . S
N1973 C1976 1.350 . S
N1974 S1972 1.610 . S
N1974 C1975 1.351 . S
C1975 C1969 1.428 . S
C1975 N1974 1.351 . S
C1975 C1976 1.434 . S
C1976 C1967 1.429 . S
C1976 N1973 1.350 . S
C1976 C1975 1.434 . S
C1977 C1978 1.369 . S
C1977 C1979 1.419 . S
C1977 H1981 0.930 . S
C1978 C1977 1.369 . S
C1978 C1987 1.429 . S
C1979 C1977 1.419 . S
C1979 C1980 1.363 . S
C1979 H1982 0.929 . S
C1980 C1979 1.363 . S
C1980 C1986 1.428 . S
H1981 C1977 0.930 . S
H1982 C1979 0.929 . S
S1983 N1984 1.613 . S
S1983 N1985 1.610 . S
N1984 S1983 1.613 . S
N1984 C1987 1.350 . S
N1985 S1983 1.610 . S
N1985 C1986 1.351 . S
C1986 C1980 1.428 . S
C1986 N1985 1.351 . S
C1986 C1987 1.434 . S
C1987 C1978 1.429 . S
C1987 N1984 1.350 . S
C1987 C1986 1.434 . S
C1988 C1989 1.369 . S
C1988 C1990 1.419 . S
C1988 H1992 0.930 . S
C1989 C1988 1.369 . S
C1989 C1998 1.429 . S
C1990 C1988 1.419 . S
C1990 C1991 1.363 . S
C1990 H1993 0.929 . S
C1991 C1990 1.363 . S
C1991 C1997 1.428 . S
H1992 C1988 0.930 . S
H1993 C1990 0.929 . S
S1994 N1995 1.613 1_565 S
S1994 N1996 1.610 . S
N1995 S1994 1.613 1_545 S
N1995 C1998 1.350 . S
N1996 S1994 1.610 . S
N1996 C1997 1.351 1_565 S
C1997 C1991 1.428 . S
C1997 N1996 1.351 1_545 S
C1997 C1998 1.434 . S
C1998 C1989 1.429 . S
C1998 N1995 1.350 . S
C1998 C1997 1.434 . S
C1999 C2000 1.369 . S
C1999 C2001 1.419 . S
C1999 H2003 0.930 . S
C2000 C1999 1.369 . S
C2000 C2009 1.429 . S
C2001 C1999 1.419 . S
C2001 C2002 1.363 . S
C2001 H2004 0.929 . S
C2002 C2001 1.363 . S
C2002 C2008 1.428 . S
H2003 C1999 0.930 . S
H2004 C2001 0.929 . S
S2005 N2006 1.613 . S
S2005 N2007 1.610 . S
N2006 S2005 1.613 . S
N2006 C2009 1.350 . S
N2007 S2005 1.610 . S
N2007 C2008 1.351 . S
C2008 C2002 1.428 . S
C2008 N2007 1.351 . S
C2008 C2009 1.434 . S
C2009 C2000 1.429 . S
C2009 N2006 1.350 . S
C2009 C2008 1.434 . S
C2010 C2011 1.369 . S
C2010 C2012 1.419 . S
C2010 H2014 0.930 . S
C2011 C2010 1.369 . S
C2011 C2020 1.429 . S
C2012 C2010 1.419 . S
C2012 C2013 1.363 . S
C2012 H2015 0.929 . S
C2013 C2012 1.363 . S
C2013 C2019 1.428 . S
H2014 C2010 0.930 . S
H2015 C2012 0.929 . S
S2016 N2017 1.613 . S
S2016 N2018 1.610 . S
N2017 S2016 1.613 . S
N2017 C2020 1.350 . S
N2018 S2016 1.610 . S
N2018 C2019 1.351 . S
C2019 C2013 1.428 . S
C2019 N2018 1.351 . S
C2019 C2020 1.434 . S
C2020 C2011 1.429 . S
C2020 N2017 1.350 . S
C2020 C2019 1.434 . S
C2021 C2022 1.369 . S
C2021 C2023 1.419 . S
C2021 H2025 0.930 . S
C2022 C2021 1.369 . S
C2022 C2031 1.429 . S
C2023 C2021 1.419 . S
C2023 C2024 1.363 . S
C2023 H2026 0.929 . S
C2024 C2023 1.363 . S
C2024 C2030 1.428 . S
H2025 C2021 0.930 . S
H2026 C2023 0.929 . S
S2027 N2028 1.613 . S
S2027 N2029 1.610 . S
N2028 S2027 1.613 . S
N2028 C2031 1.350 . S
N2029 S2027 1.610 . S
N2029 C2030 1.351 . S
C2030 C2024 1.428 . S
C2030 N2029 1.351 . S
C2030 C2031 1.434 . S
C2031 C2022 1.429 . S
C2031 N2028 1.350 . S
C2031 C2030 1.434 . S
C2032 C2033 1.369 . S
C2032 C2034 1.419 . S
C2032 H2036 0.930 . S
C2033 C2032 1.369 . S
C2033 C2042 1.429 . S
C2034 C2032 1.419 . S
C2034 C2035 1.363 . S
C2034 H2037 0.929 . S
C2035 C2034 1.363 . S
C2035 C2041 1.428 . S
H2036 C2032 0.930 . S
H2037 C2034 0.929 . S
S2038 N2039 1.613 . S
S2038 N2040 1.610 . S
N2039 S2038 1.613 . S
N2039 C2042 1.350 . S
N2040 S2038 1.610 . S
N2040 C2041 1.351 . S
C2041 C2035 1.428 . S
C2041 N2040 1.351 . S
C2041 C2042 1.434 . S
C2042 C2033 1.429 . S
C2042 N2039 1.350 . S
C2042 C2041 1.434 . S
C2043 C2044 1.369 . S
C2043 C2045 1.419 . S
C2043 H2047 0.930 . S
C2044 C2043 1.369 . S
C2044 C2053 1.429 . S
C2045 C2043 1.419 . S
C2045 C2046 1.363 . S
C2045 H2048 0.929 . S
C2046 C2045 1.363 . S
C2046 C2052 1.428 . S
H2047 C2043 0.930 . S
H2048 C2045 0.929 . S
S2049 N2050 1.613 . S
S2049 N2051 1.610 . S
N2050 S2049 1.613 . S
N2050 C2053 1.350 . S
N2051 S2049 1.610 . S
N2051 C2052 1.351 . S
C2052 C2046 1.428 . S
C2052 N2051 1.351 . S
C2052 C2053 1.434 . S
C2053 C2044 1.429 . S
C2053 N2050 1.350 . S
C2053 C2052 1.434 . S
C2054 C2055 1.369 . S
C2054 C2056 1.419 . S
C2054 H2058 0.930 . S
C2055 C2054 1.369 . S
C2055 C2064 1.429 . S
C2056 C2054 1.419 . S
C2056 C2057 1.363 . S
C2056 H2059 0.929 . S
C2057 C2056 1.363 . S
C2057 C2063 1.428 . S
H2058 C2054 0.930 . S
H2059 C2056 0.929 . S
S2060 N2061 1.613 . S
S2060 N2062 1.610 . S
N2061 S2060 1.613 . S
N2061 C2064 1.350 1_656 S
N2062 S2060 1.610 . S
N2062 C2063 1.351 1_656 S
C2063 C2057 1.428 . S
C2063 N2062 1.351 1_454 S
C2063 C2064 1.434 . S
C2064 C2055 1.429 . S
C2064 N2061 1.350 1_454 S
C2064 C2063 1.434 . S
C2065 C2066 1.369 . S
C2065 C2067 1.419 . S
C2065 H2069 0.930 1_655 S
C2066 C2065 1.369 . S
C2066 C2075 1.429 . S
C2067 C2065 1.419 . S
C2067 C2068 1.363 . S
C2067 H2070 0.929 . S
C2068 C2067 1.363 . S
C2068 C2074 1.428 . S
H2069 C2065 0.930 1_455 S
H2070 C2067 0.929 . S
S2071 N2072 1.613 . S
S2071 N2073 1.610 . S
N2072 S2071 1.613 . S
N2072 C2075 1.350 . S
N2073 S2071 1.610 . S
N2073 C2074 1.351 . S
C2074 C2068 1.428 . S
C2074 N2073 1.351 . S
C2074 C2075 1.434 . S
C2075 C2066 1.429 . S
C2075 N2072 1.350 . S
C2075 C2074 1.434 . S
C2076 C2077 1.369 . S
C2076 C2078 1.419 . S
C2076 H2080 0.930 . S
C2077 C2076 1.369 . S
C2077 C2086 1.429 . S
C2078 C2076 1.419 . S
C2078 C2079 1.363 . S
C2078 H2081 0.929 . S
C2079 C2078 1.363 . S
C2079 C2085 1.428 . S
H2080 C2076 0.930 . S
H2081 C2078 0.929 . S
S2082 N2083 1.613 . S
S2082 N2084 1.610 . S
N2083 S2082 1.613 . S
N2083 C2086 1.350 . S
N2084 S2082 1.610 . S
N2084 C2085 1.351 . S
C2085 C2079 1.428 . S
C2085 N2084 1.351 . S
C2085 C2086 1.434 . S
C2086 C2077 1.429 . S
C2086 N2083 1.350 . S
C2086 C2085 1.434 . S
C2087 C2088 1.369 . S
C2087 C2089 1.419 . S
C2087 H2091 0.930 . S
C2088 C2087 1.369 . S
C2088 C2097 1.429 . S
C2089 C2087 1.419 . S
C2089 C2090 1.363 . S
C2089 H2092 0.929 . S
C2090 C2089 1.363 . S
C2090 C2096 1.428 . S
H2091 C2087 0.930 . S
H2092 C2089 0.929 . S
S2093 N2094 1.613 . S
S2093 N2095 1.610 . S
N2094 S2093 1.613 . S
N2094 C2097 1.350 . S
N2095 S2093 1.610 . S
N2095 C2096 1.351 . S
C2096 C2090 1.428 . S
C2096 N2095 1.351 . S
C2096 C2097 1.434 . S
C2097 C2088 1.429 . S
C2097 N2094 1.350 . S
C2097 C2096 1.434 . S
C2098 C2099 1.369 . S
C2098 C2100 1.419 . S
C2098 H2102 0.930 . S
C2099 C2098 1.369 . S
C2099 C2108 1.429 1_455 S
C2100 C2098 1.419 . S
C2100 C2101 1.363 . S
C2100 H2103 0.929 . S
C2101 C2100 1.363 . S
C2101 C2107 1.428 1_455 S
H2102 C2098 0.930 . S
H2103 C2100 0.929 . S
S2104 N2105 1.613 . S
S2104 N2106 1.610 . S
N2105 S2104 1.613 . S
N2105 C2108 1.350 . S
N2106 S2104 1.610 . S
N2106 C2107 1.351 . S
C2107 C2101 1.428 1_655 S
C2107 N2106 1.351 . S
C2107 C2108 1.434 . S
C2108 C2099 1.429 1_655 S
C2108 N2105 1.350 . S
C2108 C2107 1.434 . S
C2109 C2110 1.369 . S
C2109 C2111 1.419 . S
C2109 H2113 0.930 . S
C2110 C2109 1.369 . S
C2110 C2119 1.429 . S
C2111 C2109 1.419 . S
C2111 C2112 1.363 . S
C2111 H2114 0.929 . S
C2112 C2111 1.363 . S
C2112 C2118 1.428 . S
H2113 C2109 0.930 . S
H2114 C2111 0.929 . S
S2115 N2116 1.613 . S
S2115 N2117 1.610 . S
N2116 S2115 1.613 . S
N2116 C2119 1.350 . S
N2117 S2115 1.610 . S
N2117 C2118 1.351 . S
C2118 C2112 1.428 . S
C2118 N2117 1.351 . S
C2118 C2119 1.434 . S
C2119 C2110 1.429 . S
C2119 N2116 1.350 . S
C2119 C2118 1.434 . S
C2120 C2121 1.369 . S
C2120 C2122 1.419 . S
C2120 H2124 0.930 . S
C2121 C2120 1.369 . S
C2121 C2130 1.429 . S
C2122 C2120 1.419 . S
C2122 C2123 1.363 . S
C2122 H2125 0.929 . S
C2123 C2122 1.363 . S
C2123 C2129 1.428 . S
H2124 C2120 0.930 . S
H2125 C2122 0.929 . S
S2126 N2127 1.613 . S
S2126 N2128 1.610 . S
N2127 S2126 1.613 . S
N2127 C2130 1.350 . S
N2128 S2126 1.610 . S
N2128 C2129 1.351 . S
C2129 C2123 1.428 . S
C2129 N2128 1.351 . S
C2129 C2130 1.434 . S
C2130 C2121 1.429 . S
C2130 N2127 1.350 . S
C2130 C2129 1.434 . S
C2131 C2132 1.369 . S
C2131 C2133 1.419 . S
C2131 H2135 0.930 . S
C2132 C2131 1.369 . S
C2132 C2141 1.429 1_554 S
C2133 C2131 1.419 . S
C2133 C2134 1.363 1_554 S
C2133 H2136 0.929 . S
C2134 C2133 1.363 1_556 S
C2134 C2140 1.428 . S
H2135 C2131 0.930 . S
H2136 C2133 0.929 . S
S2137 N2138 1.613 . S
S2137 N2139 1.610 . S
N2138 S2137 1.613 . S
N2138 C2141 1.350 . S
N2139 S2137 1.610 . S
N2139 C2140 1.351 . S
C2140 C2134 1.428 . S
C2140 N2139 1.351 . S
C2140 C2141 1.434 . S
C2141 C2132 1.429 1_556 S
C2141 N2138 1.350 . S
C2141 C2140 1.434 . S
C2142 C2143 1.369 . S
C2142 C2144 1.419 . S
C2142 H2146 0.930 . S
C2143 C2142 1.369 . S
C2143 C2152 1.429 . S
C2144 C2142 1.419 . S
C2144 C2145 1.363 . S
C2144 H2147 0.929 . S
C2145 C2144 1.363 . S
C2145 C2151 1.428 . S
H2146 C2142 0.930 . S
H2147 C2144 0.929 . S
S2148 N2149 1.613 . S
S2148 N2150 1.610 . S
N2149 S2148 1.613 . S
N2149 C2152 1.350 . S
N2150 S2148 1.610 . S
N2150 C2151 1.351 . S
C2151 C2145 1.428 . S
C2151 N2150 1.351 . S
C2151 C2152 1.434 . S
C2152 C2143 1.429 . S
C2152 N2149 1.350 . S
C2152 C2151 1.434 . S
C2153 C2154 1.369 . S
C2153 C2155 1.419 . S
C2153 H2157 0.930 . S
C2154 C2153 1.369 . S
C2154 C2163 1.429 . S
C2155 C2153 1.419 . S
C2155 C2156 1.363 . S
C2155 H2158 0.929 . S
C2156 C2155 1.363 . S
C2156 C2162 1.428 . S
H2157 C2153 0.930 . S
H2158 C2155 0.929 . S
S2159 N2160 1.613 . S
S2159 N2161 1.610 . S
N2160 S2159 1.613 . S
N2160 C2163 1.350 . S
N2161 S2159 1.610 . S
N2161 C2162 1.351 . S
C2162 C2156 1.428 . S
C2162 N2161 1.351 . S
C2162 C2163 1.434 . S
C2163 C2154 1.429 . S
C2163 N2160 1.350 . S
C2163 C2162 1.434 . S
C2164 C2165 1.369 . S
C2164 C2166 1.419 . S
C2164 H2168 0.930 . S
C2165 C2164 1.369 . S
C2165 C2174 1.429 . S
C2166 C2164 1.419 . S
C2166 C2167 1.363 . S
C2166 H2169 0.929 . S
C2167 C2166 1.363 . S
C2167 C2173 1.428 . S
H2168 C2164 0.930 . S
H2169 C2166 0.929 . S
S2170 N2171 1.613 . S
S2170 N2172 1.610 . S
N2171 S2170 1.613 . S
N2171 C2174 1.350 . S
N2172 S2170 1.610 . S
N2172 C2173 1.351 . S
C2173 C2167 1.428 . S
C2173 N2172 1.351 . S
C2173 C2174 1.434 . S
C2174 C2165 1.429 . S
C2174 N2171 1.350 . S
C2174 C2173 1.434 . S
C2175 C2176 1.369 . S
C2175 C2177 1.419 . S
C2175 H2179 0.930 . S
C2176 C2175 1.369 . S
C2176 C2185 1.429 . S
C2177 C2175 1.419 . S
C2177 C2178 1.363 . S
C2177 H2180 0.929 . S
C2178 C2177 1.363 . S
C2178 C2184 1.428 . S
H2179 C2175 0.930 . S
H2180 C2177 0.929 . S
S2181 N2182 1.613 . S
S2181 N2183 1.610 . S
N2182 S2181 1.613 . S
N2182 C2185 1.350 . S
N2183 S2181 1.610 . S
N2183 C2184 1.351 . S
C2184 C2178 1.428 . S
C2184 N2183 1.351 . S
C2184 C2185 1.434 . S
C2185 C2176 1.429 . S
C2185 N2182 1.350 . S
C2185 C2184 1.434 . S
C2186 C2187 1.369 . S
C2186 C2188 1.419 . S
C2186 H2190 0.930 . S
C2187 C2186 1.369 . S
C2187 C2196 1.429 . S
C2188 C2186 1.419 . S
C2188 C2189 1.363 . S
C2188 H2191 0.929 . S
C2189 C2188 1.363 . S
C2189 C2195 1.428 . S
H2190 C2186 0.930 . S
H2191 C2188 0.929 . S
S2192 N2193 1.613 . S
S2192 N2194 1.610 . S
N2193 S2192 1.613 . S
N2193 C2196 1.350 . S
N2194 S2192 1.610 . S
N2194 C2195 1.351 . S
C2195 C2189 1.428 . S
C2195 N2194 1.351 . S
C2195 C2196 1.434 . S
C2196 C2187 1.429 . S
C2196 N2193 1.350 . S
C2196 C2195 1.434 . S
C2197 C2198 1.369 . S
C2197 C2199 1.419 . S
C2197 H2201 0.930 . S
C2198 C2197 1.369 . S
C2198 C2207 1.429 . S
C2199 C2197 1.419 . S
C2199 C2200 1.363 . S
C2199 H2202 0.929 . S
C2200 C2199 1.363 . S
C2200 C2206 1.428 . S
H2201 C2197 0.930 . S
H2202 C2199 0.929 . S
S2203 N2204 1.613 . S
S2203 N2205 1.610 . S
N2204 S2203 1.613 . S
N2204 C2207 1.350 . S
N2205 S2203 1.610 . S
N2205 C2206 1.351 . S
C2206 C2200 1.428 . S
C2206 N2205 1.351 . S
C2206 C2207 1.434 . S
C2207 C2198 1.429 . S
C2207 N2204 1.350 . S
C2207 C2206 1.434 . S
C2208 C2209 1.369 . S
C2208 C2210 1.419 . S
C2208 H2212 0.930 . S
C2209 C2208 1.369 . S
C2209 C2218 1.429 . S
C2210 C2208 1.419 . S
C2210 C2211 1.363 . S
C2210 H2213 0.929 . S
C2211 C2210 1.363 . S
C2211 C2217 1.428 . S
H2212 C2208 0.930 . S
H2213 C2210 0.929 . S
S2214 N2215 1.613 . S
S2214 N2216 1.610 . S
N2215 S2214 1.613 . S
N2215 C2218 1.350 . S
N2216 S2214 1.610 . S
N2216 C2217 1.351 . S
C2217 C2211 1.428 . S
C2217 N2216 1.351 . S
C2217 C2218 1.434 . S
C2218 C2209 1.429 . S
C2218 N2215 1.350 . S
C2218 C2217 1.434 . S
C2219 C2220 1.369 . S
C2219 C2221 1.419 . S
C2219 H2223 0.930 . S
C2220 C2219 1.369 . S
C2220 C2229 1.429 . S
C2221 C2219 1.419 . S
C2221 C2222 1.363 . S
C2221 H2224 0.929 . S
C2222 C2221 1.363 . S
C2222 C2228 1.428 . S
H2223 C2219 0.930 . S
H2224 C2221 0.929 . S
S2225 N2226 1.613 . S
S2225 N2227 1.610 . S
N2226 S2225 1.613 . S
N2226 C2229 1.350 . S
N2227 S2225 1.610 . S
N2227 C2228 1.351 . S
C2228 C2222 1.428 . S
C2228 N2227 1.351 . S
C2228 C2229 1.434 . S
C2229 C2220 1.429 . S
C2229 N2226 1.350 . S
C2229 C2228 1.434 . S
C2230 C2231 1.369 1_565 S
C2230 C2232 1.419 . S
C2230 H2234 0.930 1_565 S
C2231 C2230 1.369 1_545 S
C2231 C2240 1.429 1_545 S
C2232 C2230 1.419 . S
C2232 C2233 1.363 . S
C2232 H2235 0.929 . S
C2233 C2232 1.363 . S
C2233 C2239 1.428 . S
H2234 C2230 0.930 1_545 S
H2235 C2232 0.929 . S
S2236 N2237 1.613 1_565 S
S2236 N2238 1.610 . S
N2237 S2236 1.613 1_545 S
N2237 C2240 1.350 1_545 S
N2238 S2236 1.610 . S
N2238 C2239 1.351 . S
C2239 C2233 1.428 . S
C2239 N2238 1.351 . S
C2239 C2240 1.434 . S
C2240 C2231 1.429 1_565 S
C2240 N2237 1.350 1_565 S
C2240 C2239 1.434 . S
C2241 C2242 1.369 . S
C2241 C2243 1.409 1_565 S
C2241 H2245 0.930 . S
C2242 C2241 1.369 . S
C2242 C2251 1.429 1_565 S
C2243 C2241 1.409 1_545 S
C2243 C2244 1.388 . S
C2243 H2246 0.914 1_545 S
C2244 C2243 1.388 . S
C2244 C2250 1.428 . S
H2245 C2241 0.930 . S
H2246 C2243 0.914 1_565 S
S2247 N2248 1.613 . S
S2247 N2249 1.592 1_556 S
N2248 S2247 1.613 . S
N2248 C2251 1.350 1_556 S
N2249 S2247 1.592 1_554 S
N2249 C2250 1.371 . S
C2250 C2244 1.428 . S
C2250 N2249 1.371 . S
C2250 C2251 1.434 . S
C2251 C2242 1.429 1_545 S
C2251 N2248 1.350 1_554 S
C2251 C2250 1.434 . S
C2252 C2253 1.369 . S
C2252 C2254 1.419 . S
C2252 H2256 0.930 . S
C2253 C2252 1.369 . S
C2253 C2262 1.429 . S
C2254 C2252 1.419 . S
C2254 C2255 1.363 . S
C2254 H2257 0.929 . S
C2255 C2254 1.363 . S
C2255 C2261 1.428 . S
H2256 C2252 0.930 . S
H2257 C2254 0.929 . S
S2258 N2259 1.613 . S
S2258 N2260 1.610 . S
N2259 S2258 1.613 . S
N2259 C2262 1.350 . S
N2260 S2258 1.610 . S
N2260 C2261 1.351 . S
C2261 C2255 1.428 . S
C2261 N2260 1.351 . S
C2261 C2262 1.434 . S
C2262 C2253 1.429 . S
C2262 N2259 1.350 . S
C2262 C2261 1.434 . S
C2263 C2264 1.369 . S
C2263 C2265 1.419 . S
C2263 H2267 0.930 . S
C2264 C2263 1.369 . S
C2264 C2273 1.429 . S
C2265 C2263 1.419 . S
C2265 C2266 1.363 . S
C2265 H2268 0.929 . S
C2266 C2265 1.363 . S
C2266 C2272 1.428 . S
H2267 C2263 0.930 . S
H2268 C2265 0.929 . S
S2269 N2270 1.613 1_556 S
S2269 N2271 1.610 1_556 S
N2270 S2269 1.613 1_554 S
N2270 C2273 1.350 . S
N2271 S2269 1.610 1_554 S
N2271 C2272 1.351 . S
C2272 C2266 1.428 . S
C2272 N2271 1.351 . S
C2272 C2273 1.434 . S
C2273 C2264 1.429 . S
C2273 N2270 1.350 . S
C2273 C2272 1.434 . S
C2274 C2275 1.369 . S
C2274 C2276 1.419 . S
C2274 H2278 0.930 . S
C2275 C2274 1.369 . S
C2275 C2284 1.429 . S
C2276 C2274 1.419 . S
C2276 C2277 1.363 . S
C2276 H2279 0.929 . S
C2277 C2276 1.363 . S
C2277 C2283 1.428 . S
H2278 C2274 0.930 . S
H2279 C2276 0.929 . S
S2280 N2281 1.613 . S
S2280 N2282 1.610 . S
N2281 S2280 1.613 . S
N2281 C2284 1.350 . S
N2282 S2280 1.610 . S
N2282 C2283 1.351 . S
C2283 C2277 1.428 . S
C2283 N2282 1.351 . S
C2283 C2284 1.434 . S
C2284 C2275 1.429 . S
C2284 N2281 1.350 . S
C2284 C2283 1.434 . S
C2285 C2286 1.369 . S
C2285 C2287 1.419 . S
C2285 H2289 0.930 . S
C2286 C2285 1.369 . S
C2286 C2295 1.429 . S
C2287 C2285 1.419 . S
C2287 C2288 1.363 . S
C2287 H2290 0.929 . S
C2288 C2287 1.363 . S
C2288 C2294 1.428 . S
H2289 C2285 0.930 . S
H2290 C2287 0.929 . S
S2291 N2292 1.613 . S
S2291 N2293 1.610 . S
N2292 S2291 1.613 . S
N2292 C2295 1.350 . S
N2293 S2291 1.610 . S
N2293 C2294 1.351 . S
C2294 C2288 1.428 . S
C2294 N2293 1.351 . S
C2294 C2295 1.434 . S
C2295 C2286 1.429 . S
C2295 N2292 1.350 . S
C2295 C2294 1.434 . S
C2296 C2297 1.369 . S
C2296 C2298 1.419 . S
C2296 H2300 0.930 . S
C2297 C2296 1.369 . S
C2297 C2306 1.429 . S
C2298 C2296 1.419 . S
C2298 C2299 1.363 . S
C2298 H2301 0.929 . S
C2299 C2298 1.363 . S
C2299 C2305 1.428 . S
H2300 C2296 0.930 . S
H2301 C2298 0.929 . S
S2302 N2303 1.613 . S
S2302 N2304 1.610 . S
N2303 S2302 1.613 . S
N2303 C2306 1.350 . S
N2304 S2302 1.610 . S
N2304 C2305 1.351 . S
C2305 C2299 1.428 . S
C2305 N2304 1.351 . S
C2305 C2306 1.434 . S
C2306 C2297 1.429 . S
C2306 N2303 1.350 . S
C2306 C2305 1.434 . S
C2307 C2308 1.369 . S
C2307 C2309 1.419 . S
C2307 H2311 0.930 . S
C2308 C2307 1.369 . S
C2308 C2317 1.429 . S
C2309 C2307 1.419 . S
C2309 C2310 1.363 . S
C2309 H2312 0.929 . S
C2310 C2309 1.363 . S
C2310 C2316 1.428 . S
H2311 C2307 0.930 . S
H2312 C2309 0.929 . S
S2313 N2314 1.613 . S
S2313 N2315 1.610 . S
N2314 S2313 1.613 . S
N2314 C2317 1.350 . S
N2315 S2313 1.610 . S
N2315 C2316 1.351 . S
C2316 C2310 1.428 . S
C2316 N2315 1.351 . S
C2316 C2317 1.434 . S
C2317 C2308 1.429 . S
C2317 N2314 1.350 . S
C2317 C2316 1.434 . S
C2318 C2319 1.369 . S
C2318 C2320 1.419 . S
C2318 H2322 0.930 . S
C2319 C2318 1.369 . S
C2319 C2328 1.429 . S
C2320 C2318 1.419 . S
C2320 C2321 1.363 . S
C2320 H2323 0.929 . S
C2321 C2320 1.363 . S
C2321 C2327 1.428 . S
H2322 C2318 0.930 . S
H2323 C2320 0.929 . S
S2324 N2325 1.613 . S
S2324 N2326 1.610 . S
N2325 S2324 1.613 . S
N2325 C2328 1.350 . S
N2326 S2324 1.610 . S
N2326 C2327 1.351 . S
C2327 C2321 1.428 . S
C2327 N2326 1.351 . S
C2327 C2328 1.434 . S
C2328 C2319 1.429 . S
C2328 N2325 1.350 . S
C2328 C2327 1.434 . S
C2329 C2330 1.369 . S
C2329 C2331 1.419 . S
C2329 H2333 0.930 . S
C2330 C2329 1.369 . S
C2330 C2339 1.429 . S
C2331 C2329 1.419 . S
C2331 C2332 1.363 . S
C2331 H2334 0.929 . S
C2332 C2331 1.363 . S
C2332 C2338 1.428 . S
H2333 C2329 0.930 . S
H2334 C2331 0.929 . S
S2335 N2336 1.613 . S
S2335 N2337 1.610 . S
N2336 S2335 1.613 . S
N2336 C2339 1.350 . S
N2337 S2335 1.610 . S
N2337 C2338 1.351 . S
C2338 C2332 1.428 . S
C2338 N2337 1.351 . S
C2338 C2339 1.434 . S
C2339 C2330 1.429 . S
C2339 N2336 1.350 . S
C2339 C2338 1.434 . S
C2340 C2341 1.369 . S
C2340 C2342 1.419 . S
C2340 H2344 0.930 . S
C2341 C2340 1.369 . S
C2341 C2350 1.429 . S
C2342 C2340 1.419 . S
C2342 C2343 1.363 . S
C2342 H2345 0.929 . S
C2343 C2342 1.363 . S
C2343 C2349 1.428 . S
H2344 C2340 0.930 . S
H2345 C2342 0.929 . S
S2346 N2347 1.613 . S
S2346 N2348 1.610 . S
N2347 S2346 1.613 . S
N2347 C2350 1.350 . S
N2348 S2346 1.610 . S
N2348 C2349 1.351 . S
C2349 C2343 1.428 . S
C2349 N2348 1.351 . S
C2349 C2350 1.434 . S
C2350 C2341 1.429 . S
C2350 N2347 1.350 . S
C2350 C2349 1.434 . S
C2351 C2352 1.369 . S
C2351 C2353 1.419 . S
C2351 H2355 0.930 . S
C2352 C2351 1.369 . S
C2352 C2361 1.429 . S
C2353 C2351 1.419 . S
C2353 C2354 1.363 . S
C2353 H2356 0.929 . S
C2354 C2353 1.363 . S
C2354 C2360 1.428 . S
H2355 C2351 0.930 . S
H2356 C2353 0.929 . S
S2357 N2358 1.613 . S
S2357 N2359 1.610 . S
N2358 S2357 1.613 . S
N2358 C2361 1.350 . S
N2359 S2357 1.610 . S
N2359 C2360 1.351 . S
C2360 C2354 1.428 . S
C2360 N2359 1.351 . S
C2360 C2361 1.434 . S
C2361 C2352 1.429 . S
C2361 N2358 1.350 . S
C2361 C2360 1.434 . S
C2362 C2363 1.369 . S
C2362 C2364 1.419 . S
C2362 H2366 0.930 . S
C2363 C2362 1.369 . S
C2363 C2372 1.429 . S
C2364 C2362 1.419 . S
C2364 C2365 1.363 . S
C2364 H2367 0.929 . S
C2365 C2364 1.363 . S
C2365 C2371 1.428 . S
H2366 C2362 0.930 . S
H2367 C2364 0.929 . S
S2368 N2369 1.613 . S
S2368 N2370 1.610 . S
N2369 S2368 1.613 . S
N2369 C2372 1.350 . S
N2370 S2368 1.610 . S
N2370 C2371 1.351 . S
C2371 C2365 1.428 . S
C2371 N2370 1.351 . S
C2371 C2372 1.434 . S
C2372 C2363 1.429 . S
C2372 N2369 1.350 . S
C2372 C2371 1.434 . S
C2373 C2374 1.369 . S
C2373 C2375 1.419 . S
C2373 H2377 0.930 . S
C2374 C2373 1.369 . S
C2374 C2383 1.429 . S
C2375 C2373 1.419 . S
C2375 C2376 1.363 . S
C2375 H2378 0.929 . S
C2376 C2375 1.363 . S
C2376 C2382 1.428 . S
H2377 C2373 0.930 . S
H2378 C2375 0.929 . S
S2379 N2380 1.613 . S
S2379 N2381 1.610 . S
N2380 S2379 1.613 . S
N2380 C2383 1.350 . S
N2381 S2379 1.610 . S
N2381 C2382 1.351 . S
C2382 C2376 1.428 . S
C2382 N2381 1.351 . S
C2382 C2383 1.434 . S
C2383 C2374 1.429 . S
C2383 N2380 1.350 . S
C2383 C2382 1.434 . S
C2384 C2385 1.369 . S
C2384 C2386 1.419 . S
C2384 H2388 0.930 . S
C2385 C2384 1.369 . S
C2385 C2394 1.429 . S
C2386 C2384 1.419 . S
C2386 C2387 1.363 . S
C2386 H2389 0.929 . S
C2387 C2386 1.363 . S
C2387 C2393 1.428 . S
H2388 C2384 0.930 . S
H2389 C2386 0.929 . S
S2390 N2391 1.613 . S
S2390 N2392 1.610 . S
N2391 S2390 1.613 . S
N2391 C2394 1.350 . S
N2392 S2390 1.610 . S
N2392 C2393 1.351 . S
C2393 C2387 1.428 . S
C2393 N2392 1.351 . S
C2393 C2394 1.434 . S
C2394 C2385 1.429 . S
C2394 N2391 1.350 . S
C2394 C2393 1.434 . S
C2395 C2396 1.369 . S
C2395 C2397 1.419 . S
C2395 H2399 0.930 . S
C2396 C2395 1.369 . S
C2396 C2405 1.429 . S
C2397 C2395 1.419 . S
C2397 C2398 1.363 . S
C2397 H2400 0.929 . S
C2398 C2397 1.363 . S
C2398 C2404 1.428 . S
H2399 C2395 0.930 . S
H2400 C2397 0.929 . S
S2401 N2402 1.613 . S
S2401 N2403 1.610 . S
N2402 S2401 1.613 . S
N2402 C2405 1.350 . S
N2403 S2401 1.610 . S
N2403 C2404 1.351 . S
C2404 C2398 1.428 . S
C2404 N2403 1.351 . S
C2404 C2405 1.434 . S
C2405 C2396 1.429 . S
C2405 N2402 1.350 . S
C2405 C2404 1.434 . S
C2406 C2407 1.369 . S
C2406 C2408 1.419 . S
C2406 H2410 0.930 . S
C2407 C2406 1.369 . S
C2407 C2416 1.429 . S
C2408 C2406 1.419 . S
C2408 C2409 1.363 . S
C2408 H2411 0.929 1_655 S
C2409 C2408 1.363 . S
C2409 C2415 1.428 . S
H2410 C2406 0.930 . S
H2411 C2408 0.929 1_455 S
S2412 N2413 1.613 . S
S2412 N2414 1.614 1_556 S
N2413 S2412 1.613 . S
N2413 C2416 1.350 . S
N2414 S2412 1.614 1_554 S
N2414 C2415 1.331 1_554 S
C2415 C2409 1.428 . S
C2415 N2414 1.331 1_556 S
C2415 C2416 1.434 . S
C2416 C2407 1.429 . S
C2416 N2413 1.350 . S
C2416 C2415 1.434 . S
C2417 C2418 1.369 . S
C2417 C2419 1.419 . S
C2417 H2421 0.930 . S
C2418 C2417 1.369 . S
C2418 C2427 1.429 . S
C2419 C2417 1.419 . S
C2419 C2420 1.363 . S
C2419 H2422 0.929 . S
C2420 C2419 1.363 . S
C2420 C2426 1.428 . S
H2421 C2417 0.930 . S
H2422 C2419 0.929 . S
S2423 N2424 1.613 . S
S2423 N2425 1.610 . S
N2424 S2423 1.613 . S
N2424 C2427 1.350 . S
N2425 S2423 1.610 . S
N2425 C2426 1.351 . S
C2426 C2420 1.428 . S
C2426 N2425 1.351 . S
C2426 C2427 1.434 . S
C2427 C2418 1.429 . S
C2427 N2424 1.350 . S
C2427 C2426 1.434 . S
C2428 C2429 1.369 . S
C2428 C2430 1.419 . S
C2428 H2432 0.930 . S
C2429 C2428 1.369 . S
C2429 C2438 1.429 . S
C2430 C2428 1.419 . S
C2430 C2431 1.363 . S
C2430 H2433 0.929 . S
C2431 C2430 1.363 . S
C2431 C2437 1.428 . S
H2432 C2428 0.930 . S
H2433 C2430 0.929 . S
S2434 N2435 1.613 . S
S2434 N2436 1.610 . S
N2435 S2434 1.613 . S
N2435 C2438 1.350 . S
N2436 S2434 1.610 . S
N2436 C2437 1.351 . S
C2437 C2431 1.428 . S
C2437 N2436 1.351 . S
C2437 C2438 1.434 . S
C2438 C2429 1.429 . S
C2438 N2435 1.350 . S
C2438 C2437 1.434 . S
C2439 C2440 1.369 . S
C2439 C2441 1.419 . S
C2439 H2443 0.930 . S
C2440 C2439 1.369 . S
C2440 C2449 1.429 . S
C2441 C2439 1.419 . S
C2441 C2442 1.363 . S
C2441 H2444 0.929 . S
C2442 C2441 1.363 . S
C2442 C2448 1.428 . S
H2443 C2439 0.930 . S
H2444 C2441 0.929 . S
S2445 N2446 1.613 . S
S2445 N2447 1.610 . S
N2446 S2445 1.613 . S
N2446 C2449 1.350 . S
N2447 S2445 1.610 . S
N2447 C2448 1.351 . S
C2448 C2442 1.428 . S
C2448 N2447 1.351 . S
C2448 C2449 1.434 . S
C2449 C2440 1.429 . S
C2449 N2446 1.350 . S
C2449 C2448 1.434 . S
C2450 C2451 1.369 . S
C2450 C2452 1.419 . S
C2450 H2454 0.930 . S
C2451 C2450 1.369 . S
C2451 C2460 1.429 . S
C2452 C2450 1.419 . S
C2452 C2453 1.363 . S
C2452 H2455 0.929 . S
C2453 C2452 1.363 . S
C2453 C2459 1.428 . S
H2454 C2450 0.930 . S
H2455 C2452 0.929 . S
S2456 N2457 1.613 . S
S2456 N2458 1.610 . S
N2457 S2456 1.613 . S
N2457 C2460 1.350 . S
N2458 S2456 1.610 . S
N2458 C2459 1.351 . S
C2459 C2453 1.428 . S
C2459 N2458 1.351 . S
C2459 C2460 1.434 . S
C2460 C2451 1.429 . S
C2460 N2457 1.350 . S
C2460 C2459 1.434 . S
C2461 C2462 1.369 . S
C2461 C2463 1.419 . S
C2461 H2465 0.930 . S
C2462 C2461 1.369 . S
C2462 C2471 1.429 . S
C2463 C2461 1.419 . S
C2463 C2464 1.363 . S
C2463 H2466 0.929 . S
C2464 C2463 1.363 . S
C2464 C2470 1.428 . S
H2465 C2461 0.930 . S
H2466 C2463 0.929 . S
S2467 N2468 1.613 . S
S2467 N2469 1.610 . S
N2468 S2467 1.613 . S
N2468 C2471 1.350 . S
N2469 S2467 1.610 . S
N2469 C2470 1.351 . S
C2470 C2464 1.428 . S
C2470 N2469 1.351 . S
C2470 C2471 1.434 . S
C2471 C2462 1.429 . S
C2471 N2468 1.350 . S
C2471 C2470 1.434 . S
C2472 C2473 1.369 . S
C2472 C2474 1.419 . S
C2472 H2476 0.930 . S
C2473 C2472 1.369 . S
C2473 C2482 1.429 . S
C2474 C2472 1.419 . S
C2474 C2475 1.363 . S
C2474 H2477 0.929 . S
C2475 C2474 1.363 . S
C2475 C2481 1.428 . S
H2476 C2472 0.930 . S
H2477 C2474 0.929 . S
S2478 N2479 1.613 . S
S2478 N2480 1.610 . S
N2479 S2478 1.613 . S
N2479 C2482 1.350 . S
N2480 S2478 1.610 . S
N2480 C2481 1.351 . S
C2481 C2475 1.428 . S
C2481 N2480 1.351 . S
C2481 C2482 1.434 . S
C2482 C2473 1.429 . S
C2482 N2479 1.350 . S
C2482 C2481 1.434 . S
C2483 C2484 1.369 . S
C2483 C2485 1.419 . S
C2483 H2487 0.930 . S
C2484 C2483 1.369 . S
C2484 C2493 1.429 . S
C2485 C2483 1.419 . S
C2485 C2486 1.363 . S
C2485 H2488 0.929 . S
C2486 C2485 1.363 . S
C2486 C2492 1.428 1_565 S
H2487 C2483 0.930 . S
H2488 C2485 0.929 . S
S2489 N2490 1.613 1_545 S
S2489 N2491 1.610 . S
N2490 S2489 1.613 1_565 S
N2490 C2493 1.350 . S
N2491 S2489 1.610 . S
N2491 C2492 1.351 . S
C2492 C2486 1.428 1_545 S
C2492 N2491 1.351 . S
C2492 C2493 1.434 1_545 S
C2493 C2484 1.429 . S
C2493 N2490 1.350 . S
C2493 C2492 1.434 1_565 S
C2494 C2495 1.369 . S
C2494 C2496 1.419 . S
C2494 H2498 0.930 . S
C2495 C2494 1.369 . S
C2495 C2504 1.429 . S
C2496 C2494 1.419 . S
C2496 C2497 1.363 . S
C2496 H2499 0.929 . S
C2497 C2496 1.363 . S
C2497 C2503 1.428 . S
H2498 C2494 0.930 . S
H2499 C2496 0.929 . S
S2500 N2501 1.613 . S
S2500 N2502 1.610 . S
N2501 S2500 1.613 . S
N2501 C2504 1.350 . S
N2502 S2500 1.610 . S
N2502 C2503 1.351 . S
C2503 C2497 1.428 . S
C2503 N2502 1.351 . S
C2503 C2504 1.434 . S
C2504 C2495 1.429 . S
C2504 N2501 1.350 . S
C2504 C2503 1.434 . S
C2505 C2506 1.369 . S
C2505 C2507 1.419 . S
C2505 H2509 0.930 . S
C2506 C2505 1.369 . S
C2506 C2515 1.429 . S
C2507 C2505 1.419 . S
C2507 C2508 1.363 . S
C2507 H2510 0.929 . S
C2508 C2507 1.363 . S
C2508 C2514 1.428 . S
H2509 C2505 0.930 . S
H2510 C2507 0.929 . S
S2511 N2512 1.613 . S
S2511 N2513 1.610 . S
N2512 S2511 1.613 . S
N2512 C2515 1.350 . S
N2513 S2511 1.610 . S
N2513 C2514 1.351 . S
C2514 C2508 1.428 . S
C2514 N2513 1.351 . S
C2514 C2515 1.434 . S
C2515 C2506 1.429 . S
C2515 N2512 1.350 . S
C2515 C2514 1.434 . S
C2516 C2517 1.369 . S
C2516 C2518 1.419 . S
C2516 H2520 0.930 . S
C2517 C2516 1.369 . S
C2517 C2526 1.429 . S
C2518 C2516 1.419 . S
C2518 C2519 1.363 . S
C2518 H2521 0.929 . S
C2519 C2518 1.363 . S
C2519 C2525 1.428 . S
H2520 C2516 0.930 . S
H2521 C2518 0.929 . S
S2522 N2523 1.613 . S
S2522 N2524 1.610 . S
N2523 S2522 1.613 . S
N2523 C2526 1.350 . S
N2524 S2522 1.610 . S
N2524 C2525 1.351 . S
C2525 C2519 1.428 . S
C2525 N2524 1.351 . S
C2525 C2526 1.434 . S
C2526 C2517 1.429 . S
C2526 N2523 1.350 . S
C2526 C2525 1.434 . S
C2527 C2528 1.369 . S
C2527 C2529 1.419 . S
C2527 H2531 0.930 . S
C2528 C2527 1.369 . S
C2528 C2537 1.429 . S
C2529 C2527 1.419 . S
C2529 C2530 1.363 . S
C2529 H2532 0.929 . S
C2530 C2529 1.363 . S
C2530 C2536 1.428 . S
H2531 C2527 0.930 . S
H2532 C2529 0.929 . S
S2533 N2534 1.613 . S
S2533 N2535 1.610 . S
N2534 S2533 1.613 . S
N2534 C2537 1.350 . S
N2535 S2533 1.610 . S
N2535 C2536 1.351 . S
C2536 C2530 1.428 . S
C2536 N2535 1.351 . S
C2536 C2537 1.434 . S
C2537 C2528 1.429 . S
C2537 N2534 1.350 . S
C2537 C2536 1.434 . S
C2538 C2539 1.369 . S
C2538 C2540 1.419 . S
C2538 H2542 0.930 . S
C2539 C2538 1.369 . S
C2539 C2548 1.429 . S
C2540 C2538 1.419 . S
C2540 C2541 1.363 . S
C2540 H2543 0.929 . S
C2541 C2540 1.363 . S
C2541 C2547 1.428 . S
H2542 C2538 0.930 . S
H2543 C2540 0.929 . S
S2544 N2545 1.613 . S
S2544 N2546 1.610 . S
N2545 S2544 1.613 . S
N2545 C2548 1.350 . S
N2546 S2544 1.610 . S
N2546 C2547 1.351 . S
C2547 C2541 1.428 . S
C2547 N2546 1.351 . S
C2547 C2548 1.434 . S
C2548 C2539 1.429 . S
C2548 N2545 1.350 . S
C2548 C2547 1.434 . S
C2549 C2550 1.369 . S
C2549 C2551 1.419 . S
C2549 H2553 0.930 . S
C2550 C2549 1.369 . S
C2550 C2559 1.429 . S
C2551 C2549 1.419 . S
C2551 C2552 1.363 . S
C2551 H2554 0.929 . S
C2552 C2551 1.363 . S
C2552 C2558 1.428 . S
H2553 C2549 0.930 . S
H2554 C2551 0.929 . S
S2555 N2556 1.613 . S
S2555 N2557 1.610 . S
N2556 S2555 1.613 . S
N2556 C2559 1.350 . S
N2557 S2555 1.610 . S
N2557 C2558 1.351 . S
C2558 C2552 1.428 . S
C2558 N2557 1.351 . S
C2558 C2559 1.434 . S
C2559 C2550 1.429 . S
C2559 N2556 1.350 . S
C2559 C2558 1.434 . S
C1505 C255 2.325 1_455 S
C1507 C877 2.336 . S
C1516 C147 2.102 . S
C1518 C928 2.146 . S
C1527 C184 1.694 . S
C1529 C957 1.745 . S
C1540 C1001 1.440 . S
C1538 C220 1.515 . S
C1549 C40 1.394 . S
C1551 C1041 1.318 . S
C1562 C1077 1.811 . S
C1560 C74 1.777 . S
C1573 C1127 2.035 . S
C1571 C110 2.012 . S
C1582 C14 2.487 . S
C1584 C1157 2.431 . S
C1595 C887 2.082 . S
C1593 C579 2.101 . S
C1604 C616 0.826 . S
C1606 C930 0.815 . S
C1617 C967 1.423 . S
C1615 C687 1.392 . S
C1628 C997 1.569 . S
C1626 C436 1.538 . S
C1637 C580 1.558 . S
C1639 C1037 1.578 . S
C1650 C1087 1.008 . S
C1648 C615 0.998 . S
C1661 C1121 1.013 . S
C1659 C688 1.076 . S
C1672 C1167 2.066 . S
C1670 C435 2.089 . S
C1683 C881 1.377 . S
C1681 C410 1.516 1_554 S
C1692 C722 1.817 . S
C1694 C1207 1.824 . S
C1705 C1241 1.528 . S
C1703 C842 1.612 . S
C1716 C1277 0.876 . S
C1714 C794 0.880 . S
C1725 C302 1.734 . S
C1727 C1161 1.570 . S
C1736 C338 1.655 . S
C1738 C961 1.549 . S
C1747 C830 1.747 . S
C1749 C1327 1.752 . S
C1760 C1346 0.453 . S
C1758 C758 0.490 . S
C1771 C888 2.346 . S
C1769 C158 2.201 . S
C1782 C1357 2.116 . S
C1780 C254 2.114 . S
C1791 C218 1.709 . S
C1793 C968 1.746 . S
C1802 C194 1.372 . S
C1804 C1330 1.431 . S
C1815 C1050 1.326 . S
C1813 C3 1.390 . S
C1824 C111 1.668 . S
C1826 C1248 1.648 . S
C1837 C1106 2.005 1_566 S
C1835 C76 1.959 . S
C1848 C1408 2.498 . S
C1846 C50 2.360 . S
C1859 C866 2.046 . S
C1857 C364 2.082 . S
C1870 C1361 0.851 . S
C1868 C795 0.855 . S
C1879 C292 1.398 . S
C1881 C946 1.390 . S
C1890 C723 1.506 . S
C1892 C1328 1.497 . S
C1901 C363 1.564 . S
C1903 C1048 1.551 . S
C1914 C1226 1.017 . S
C1912 C796 1.017 . S
C1923 C291 1.025 1_565 S
C1925 C1130 0.970 . S
C1934 C724 2.091 . S
C1936 C1386 2.059 . S
C1945 C482 1.333 . S
C1947 C890 1.425 . S
C1956 C434 1.764 . S
C1958 C1186 1.778 . S
C1967 C662 1.442 . S
C1969 C1090 1.527 . S
C1978 C614 0.889 . S
C1980 C1288 0.875 . S
C1991 C1410 1.551 1_545 S
C1989 C698 1.461 . S
C2000 C554 1.513 . S
C2002 C970 1.579 . S
C2013 C986 1.729 . S
C2011 C650 1.716 . S
C2024 C927 0.411 . S
C2022 C506 0.379 . S
C2033 C183 2.328 . S
C2035 C1437 2.342 . S
C2046 C1368 2.144 . S
C2044 C219 2.098 . S
C2055 C256 1.685 . S
C2057 C1477 1.720 . S
C2066 C148 1.517 1_655 S
C2068 C1321 1.438 . S
C2077 C122 1.412 . S
C2079 C1201 1.353 . S
C2090 C1237 1.746 . S
C2088 C2 1.715 . S
C2101 C1287 1.972 . S
C2099 C39 1.891 . S
C2112 C1397 2.485 . S
C2110 C86 2.542 . S
C2123 C1447 2.087 . S
C2121 C651 2.111 . S
C2132 C472 0.823 . S
C2134 C1370 0.795 . S
C2145 C1487 1.403 . S
C2143 C507 1.371 . S
C2156 C1317 1.570 . S
C2154 C544 1.543 . S
C2167 C1197 1.575 . S
C2165 C652 1.558 . S
C2176 C471 0.986 . S
C2178 C1247 0.999 . S
C2189 C1281 0.983 . S
C2187 C508 1.040 . S
C2198 C543 2.105 . S
C2200 C1407 2.080 . S
C2211 C1441 1.385 . S
C2209 C806 1.544 . S
C2220 C326 1.789 . S
C2222 C1047 1.796 . S
C2233 C1081 1.506 . S
C2231 C374 1.593 . S
C2244 C1117 0.890 . S
C2242 C398 0.908 . S
C2255 C1401 1.556 . S
C2253 C770 1.716 . S
C2264 C734 1.643 . S
C2266 C1481 1.539 . S
C2277 C1007 1.736 . S
C2275 C362 1.729 . S
C2288 C906 0.486 . S
C2286 C290 0.491 . S
C2297 C230 2.199 . S
C2299 C1448 2.343 . S
C2310 C917 2.121 . S
C2308 C182 2.125 . S
C2319 C146 1.712 . S
C2321 C1488 1.748 . S
C2330 C266 1.371 . S
C2332 C1010 1.436 . S
C2341 C75 1.419 . S
C2343 C1210 1.336 . S
C2354 C1088 1.799 . S
C2352 C38 1.766 . S
C2363 C4 1.905 . S
C2365 C1266 1.962 . S
C2374 C112 2.411 . S
C2376 C1168 2.389 . S
C2387 C1426 2.045 . S
C2385 C832 2.080 . S
C2396 C399 0.891 . S
C2398 C921 0.843 . S
C2409 C1466 1.392 1_655 S
C2407 C760 1.402 . S
C2418 C327 1.503 . S
C2420 C1008 1.495 . S
C2429 C831 1.584 . S
C2431 C1208 1.570 . S
C2442 C1066 1.021 . S
C2440 C400 1.033 . S
C2451 C759 1.071 . S
C2453 C1290 1.015 . S
C2464 C1146 2.059 . S
C2462 C328 2.091 . S
C2475 C1450 1.437 . S
C2473 C626 1.327 . S
C2486 C1026 1.793 1_565 S
C2484 C542 1.780 . S
C2495 C590 1.433 . S
C2497 C1250 1.497 . S
C2508 C1128 0.885 . S
C2506 C470 0.886 . S
C2517 C518 1.437 . S
C2519 C1170 1.529 . S
C2528 C446 1.500 . S
C2530 C1490 1.575 . S
C2541 C1306 1.745 . S
C2539 C578 1.734 . S
C2552 C1367 0.390 . S
C2550 C686 0.352 . S
