# Generated by pormake.
# Topology pts, (4,4)-cn, num edge types: 1
# Building blocks:
#     Node 0, Type 0, BuildingBlock: NAWXER_clean_sbu_0, # of connection points: 4
#     Node 1, Type 0, BuildingBlock: NAWXER_clean_sbu_0, # of connection points: 4
#     Node 2, Type 1, BuildingBlock: UXUYUI_clean_sbu_0, # of connection points: 4
#     Node 3, Type 1, BuildingBlock: UXUYUI_clean_sbu_0, # of connection points: 4
#     Edge 4, Type (0, 1), BuildingBlock: XUDNAN_clean_linker_2, # of connection points: 2
#     Edge 5, Type (0, 1), BuildingBlock: XUDNAN_clean_linker_2, # of connection points: 2
#     Edge 6, Type (0, 1), BuildingBlock: XUDNAN_clean_linker_2, # of connection points: 2
#     Edge 7, Type (0, 1), BuildingBlock: XUDNAN_clean_linker_2, # of connection points: 2
#     Edge 8, Type (0, 1), BuildingBlock: XUDNAN_clean_linker_2, # of connection points: 2
#     Edge 9, Type (0, 1), BuildingBlock: XUDNAN_clean_linker_2, # of connection points: 2
#     Edge 10, Type (0, 1), BuildingBlock: XUDNAN_clean_linker_2, # of connection points: 2
#     Edge 11, Type (0, 1), BuildingBlock: XUDNAN_clean_linker_2, # of connection points: 2
# Relax obj value: 0.015
# Max RMSD: 0.059
# Mean RMSD: 0.051
data_MOF--net-pts--node1-NAWXER_clean_sbu_0--node2-UXUYUI_clean_sbu_0--edge1-XUDNAN_clean_linker_2
_symmetry_space_group_name_H-M    P1
_symmetry_Int_Tables_number       1
_symmetry_cell_setting            triclinic
loop_
_symmetry_equiv_pos_as_xyz
'x, y, z'
_cell_length_a     28.736662
_cell_length_b     28.763381
_cell_length_c     45.452403
_cell_angle_alpha  90.035637
_cell_angle_beta   89.959421
_cell_angle_gamma 89.90282
loop_
_atom_site_label
_atom_site_type_symbol
_atom_site_fract_x
_atom_site_fract_y
_atom_site_fract_z
_atom_type_partial_charge
C0 C 0.45821 0.9624 0.97169 0.0
C1 C 0.57327 0.98836 0.04989 0.0
O2 O 0.48389 0.9314 0.9834 0.0
Zn3 Zn 0.51805 0.97247 1.00995 0.0
O4 O 0.46212 1.00482 0.97988 0.0
Zn5 Zn 0.50027 0.04598 1.01025 0.0
O6 O 0.53596 0.08764 0.98477 0.0
O7 O 0.55787 0.01434 0.98097 0.0
O8 O 0.55122 0.02472 0.04144 0.0
O9 O 0.56588 0.9496 0.03715 0.0
O10 O 0.4647 0.99268 0.03976 0.0
O11 O 0.45039 0.06795 0.03648 0.0
C12 C 0.56225 0.05692 0.97325 0.0
C13 C 0.44189 0.0286 0.04818 0.0
C14 C 0.05623 0.57887 0.48544 0.0
C15 C 0.05656 0.4469 0.55256 0.0
O16 O 0.01473 0.56558 0.49166 0.0
Zn17 Zn 0.98271 0.5125 0.51875 0.0
O18 O 0.09063 0.55776 0.49682 0.0
Zn19 Zn 0.056 0.5129 0.51904 0.0
O20 O 0.02493 0.47092 0.48512 0.0
O21 O 0.9486 0.47542 0.49065 0.0
O22 O 0.09085 0.4685 0.5415 0.0
O23 O 0.01497 0.45964 0.54603 0.0
O24 O 0.94751 0.54932 0.54658 0.0
O25 O 0.02363 0.55433 0.55279 0.0
C26 C 0.98378 0.45956 0.47702 0.0
C27 C 0.98218 0.56536 0.56055 0.0
Li28 Li 1.00264 0.05732 0.28802 0.0
Li29 Li 0.01287 0.97705 0.29087 0.0
Li30 Li 0.05093 0.0206 0.25074 0.0
Li31 Li 0.9612 1.00639 0.25305 0.0
C32 C 0.08692 0.05327 0.31118 0.0
N33 N 0.13494 0.11378 0.34732 0.0
C34 C 0.07686 0.05527 0.34125 0.0
C35 C 0.12175 0.08174 0.29955 0.0
C36 C 0.10139 0.0862 0.35913 0.0
C37 C 0.14557 0.11215 0.31817 0.0
C38 C 0.9322 0.9856 0.31739 0.0
C39 C 0.87818 0.92577 0.33199 0.0
N40 N 0.8909 0.93198 0.36053 0.0
C41 C 0.94447 0.99161 0.3469 0.0
C42 C 0.89862 0.95256 0.30986 0.0
C43 C 0.92333 0.96407 0.36837 0.0
C44 C 0.96105 0.12054 0.32885 0.0
N45 N 0.99606 0.11512 0.30899 0.0
C46 C 0.02201 0.19287 0.3176 0.0
C47 C 0.02611 0.15036 0.30308 0.0
C48 C 0.98631 0.19957 0.33832 0.0
C49 C 0.9556 0.16263 0.34393 0.0
H50 H 0.93704 0.09235 0.33281 0.0
H51 H 0.05329 0.14558 0.28695 0.0
C52 C 0.06172 0.92573 0.33395 0.0
N53 N 0.02356 0.9244 0.31631 0.0
C54 C 0.07231 0.88836 0.35236 0.0
C55 C 1.00444 0.84839 0.33402 0.0
C56 C 0.99511 0.88662 0.316 0.0
C57 C 0.04361 0.84886 0.35251 0.0
H58 H 0.0843 0.95566 0.33355 0.0
H59 H 0.96548 0.88573 0.30144 0.0
C60 C 0.98608 0.10917 0.23971 0.0
N61 N 0.96172 0.20132 0.23229 0.0
C62 C 0.94112 0.12417 0.24666 0.0
C63 C 0.01855 0.14085 0.22874 0.0
C64 C 0.92952 0.17097 0.24284 0.0
C65 C 1.00557 0.18735 0.2252 0.0
C66 C 0.02002 0.91509 0.2466 0.0
C67 C 0.0642 0.89655 0.25188 0.0
C68 C 0.9828 0.88541 0.24049 0.0
C69 C 0.0703 0.84836 0.25137 0.0
C70 C 0.99036 0.83742 0.24011 0.0
N71 N 0.03356 0.82005 0.24555 0.0
C72 C 0.14392 1.00645 0.23673 0.0
C73 C 0.10121 0.04098 0.19783 0.0
C74 C 0.18398 1.00527 0.21948 0.0
N75 N 0.10361 0.02379 0.22566 0.0
C76 C 0.14061 0.0403 0.17966 0.0
C77 C 0.18254 0.02154 0.19033 0.0
H78 H 0.14476 0.9931 0.25897 0.0
H79 H 0.06852 0.05434 0.18958 0.0
C80 C 0.86561 0.01152 0.24213 0.0
N81 N 0.90682 0.99898 0.22983 0.0
C82 C 0.82479 0.01015 0.22562 0.0
C83 C 0.8694 0.98279 0.18394 0.0
C84 C 0.90947 0.98427 0.20143 0.0
C85 C 0.82638 0.99665 0.19589 0.0
H86 H 0.86461 0.02352 0.26468 0.0
H87 H 0.94288 0.97489 0.19217 0.0
O88 O 0.06299 0.02342 0.29327 0.0
O89 O 0.95281 0.01203 0.29603 0.0
O90 O 0.99837 0.06374 0.24388 0.0
O91 O 0.01316 0.96208 0.24742 0.0
H92 H 0.0503 0.03327 0.35066 0.0
H93 H 0.12978 0.08105 0.27631 0.0
H94 H 0.09376 0.08826 0.3824 0.0
H95 H 0.17235 0.13463 0.30942 0.0
H96 H 0.85241 0.89984 0.32644 0.0
H97 H 0.97012 0.0172 0.35316 0.0
H98 H 0.8891 0.94693 0.28712 0.0
H99 H 0.93268 0.96821 0.39127 0.0
H100 H 0.0469 0.22005 0.31281 0.0
H101 H 0.9272 0.16643 0.35942 0.0
H102 H 0.10262 0.89055 0.36644 0.0
H103 H 0.98175 0.81843 0.33299 0.0
H104 H 0.91571 0.10007 0.25532 0.0
H105 H 0.05355 0.12974 0.22337 0.0
H106 H 0.89497 0.18318 0.24834 0.0
H107 H 0.03039 0.21235 0.2169 0.0
H108 H 0.0933 0.91912 0.2567 0.0
H109 H 0.94838 0.89931 0.23639 0.0
H110 H 0.10422 0.83347 0.25565 0.0
H111 H 0.96185 0.81398 0.23559 0.0
H112 H 0.2157 0.99124 0.22881 0.0
H113 H 0.13785 0.05281 0.15726 0.0
H114 H 0.79239 0.02036 0.23597 0.0
H115 H 0.87242 0.97264 0.16108 0.0
Li116 Li 0.96497 0.0225 0.78431 0.0
Li117 Li 0.05353 1.00124 0.78545 0.0
Li118 Li 0.01697 0.04747 0.74596 0.0
Li119 Li 1.00206 0.96766 0.74859 0.0
C120 C 0.03468 0.10815 0.78834 0.0
N121 N 0.06245 0.19991 0.78487 0.0
C122 C 0.08018 0.11911 0.78003 0.0
C123 C 1.00344 0.14383 0.79522 0.0
C124 C 0.0935 0.16571 0.77828 0.0
C125 C 0.01812 0.19001 0.79328 0.0
C126 C 0.97937 0.91824 0.79587 0.0
C127 C 0.98794 0.83706 0.80796 0.0
N128 N 0.94269 0.82984 0.80051 0.0
C129 C 0.93291 0.91007 0.78842 0.0
C130 C 1.00714 0.88152 0.80579 0.0
C131 C 0.91503 0.86511 0.79089 0.0
C132 C 0.90168 0.00959 0.83162 0.0
N133 N 0.91248 0.03738 0.80843 0.0
C134 C 0.84793 0.08727 0.81927 0.0
C135 C 0.88685 0.07591 0.80222 0.0
C136 C 0.83535 0.05879 0.84309 0.0
C137 C 0.8631 0.01964 0.84928 0.0
H138 H 0.92309 0.97963 0.83647 0.0
H139 H 0.89669 0.09796 0.78402 0.0
C140 C 0.14869 1.00586 0.80181 0.0
N141 N 0.10599 0.99063 0.81035 0.0
C142 C 0.188 0.99564 0.81871 0.0
C143 C 0.13876 0.95423 0.8529 0.0
C144 C 0.1003 0.96573 0.83552 0.0
C145 C 0.18336 0.96908 0.84447 0.0
H146 H 0.15241 0.02487 0.78144 0.0
H147 H 0.06591 0.95431 0.8419 0.0
C148 C 0.93838 0.03559 0.71596 0.0
N149 N 0.90621 0.07531 0.66446 0.0
C150 C 0.9603 0.02587 0.68921 0.0
C151 C 0.89944 0.06477 0.71642 0.0
C152 C 0.94373 0.04648 0.66344 0.0
C153 C 0.88387 0.08471 0.69018 0.0
C154 C 0.09079 0.96815 0.72635 0.0
C155 C 0.08988 0.97019 0.69561 0.0
C156 C 0.12029 0.93628 0.74024 0.0
C157 C 0.11771 0.93972 0.67933 0.0
C158 C 0.14761 0.90642 0.72319 0.0
N159 N 0.14573 0.9087 0.69333 0.0
C160 C 0.06761 0.10008 0.70415 0.0
C161 C 0.9974 0.13568 0.71975 0.0
C162 C 0.07763 0.13787 0.68598 0.0
N163 N 0.02799 0.09956 0.72048 0.0
C164 C 1.0061 0.17429 0.70194 0.0
C165 C 0.04679 0.17583 0.68478 0.0
H166 H 0.09178 0.07137 0.70551 0.0
H167 H 0.96655 0.13482 0.73337 0.0
C168 C 0.95694 0.90483 0.7083 0.0
N169 N 0.99267 0.91009 0.72765 0.0
C170 C 0.95056 0.86255 0.69356 0.0
C171 C 0.01733 0.83175 0.71926 0.0
C172 C 0.02225 0.87436 0.73349 0.0
C173 C 0.98105 0.82523 0.69899 0.0
H174 H 0.93305 0.93323 0.70451 0.0
H175 H 0.0495 0.87866 0.74955 0.0
O176 O 0.02066 0.06275 0.78937 0.0
O177 O 0.99772 0.96182 0.79283 0.0
O178 O 0.9548 0.01634 0.74148 0.0
O179 O 0.06402 0.99799 0.74272 0.0
H180 H 0.10463 0.09195 0.77437 0.0
H181 H 0.96821 0.13599 0.80189 0.0
H182 H 0.12847 0.1747 0.77156 0.0
H183 H 0.99425 0.21798 0.79841 0.0
H184 H 1.00909 0.80825 0.81542 0.0
H185 H 0.91109 0.93808 0.78048 0.0
H186 H 0.04333 0.88709 0.81127 0.0
H187 H 0.87921 0.85822 0.78505 0.0
H188 H 0.82754 0.11761 0.81352 0.0
H189 H 0.85541 0.99718 0.86776 0.0
H190 H 0.22183 1.00739 0.8113 0.0
H191 H 0.13363 0.93421 0.87281 0.0
H192 H 0.98975 1.0026 0.68842 0.0
H193 H 0.88135 0.07194 0.73675 0.0
H194 H 0.96065 0.03947 0.64264 0.0
H195 H 0.85396 0.1076 0.69026 0.0
H196 H 0.0683 0.99527 0.68435 0.0
H197 H 0.1213 0.93371 0.76394 0.0
H198 H 0.11717 0.94088 0.65554 0.0
H199 H 0.17017 0.88128 0.7337 0.0
H200 H 0.10917 0.13722 0.67294 0.0
H201 H 0.98172 0.20303 0.70214 0.0
H202 H 0.92167 0.85892 0.67846 0.0
H203 H 0.04208 0.80434 0.72398 0.0
H204 H 0.37121 0.0889 0.0662 0.0
H205 H 0.43334 0.95383 0.08384 0.0
H206 H 0.3747 0.939 0.12171 0.0
H207 H 0.34003 0.11471 0.14271 0.0
H208 H 0.28551 0.142 0.13334 0.0
H209 H 0.33346 0.14368 0.10779 0.0
H210 H 0.28133 0.10679 0.06764 0.0
H211 H 0.23331 0.10478 0.09311 0.0
H212 H 0.25254 0.05238 0.07501 0.0
H213 H 0.30943 0.93608 0.15611 0.0
H214 H 0.24008 0.94645 0.18704 0.0
H215 H 0.21804 0.08347 0.14926 0.0
C216 C 0.37259 0.05646 0.07824 0.0
C217 C 0.40692 0.02252 0.07186 0.0
C218 C 0.40735 0.98034 0.08803 0.0
C219 C 0.37419 0.97149 0.10973 0.0
C220 C 0.34056 1.00508 0.1152 0.0
C221 C 0.33933 0.04681 0.10015 0.0
C222 C 0.29843 0.07624 0.11044 0.0
C223 C 0.31539 0.12186 0.1244 0.0
C224 C 0.26439 0.08559 0.08503 0.0
C225 C 0.27706 0.04422 0.13336 0.0
C226 C 0.30223 1.00347 0.13564 0.0
C227 C 0.28959 0.96803 0.15482 0.0
C228 C 0.25025 0.9744 0.17244 0.0
C229 C 0.22389 0.01601 0.17094 0.0
C230 C 0.23742 0.05126 0.15091 0.0
H231 H 0.99163 0.38658 0.57519 0.0
H232 H 0.13943 0.41784 0.57599 0.0
H233 H 0.15278 0.35243 0.61008 0.0
H234 H 0.98182 0.35421 0.65135 0.0
H235 H 0.9411 0.30786 0.64451 0.0
H236 H 0.94298 0.35735 0.62028 0.0
H237 H 0.95628 0.30269 0.5757 0.0
H238 H 0.95432 0.25302 0.59978 0.0
H239 H 1.00412 0.26207 0.57634 0.0
H240 H 0.15005 0.28426 0.64447 0.0
H241 H 0.13176 0.21691 0.67593 0.0
H242 H 0.98608 0.22835 0.65154 0.0
C243 C 0.02681 0.37978 0.58257 0.0
C244 C 0.06449 0.40747 0.57294 0.0
C245 C 0.11001 0.39714 0.58301 0.0
C246 C 0.11795 0.36009 0.60243 0.0
C247 C 0.08006 0.33354 0.61148 0.0
C248 C 0.03542 0.34276 0.60182 0.0
C249 C 1.0009 0.30849 0.61461 0.0
C250 C 0.96456 0.33348 0.63383 0.0
C251 C 0.97754 0.27987 0.59015 0.0
C252 C 0.03311 0.27866 0.63306 0.0
C253 C 0.0786 0.29377 0.63098 0.0
C254 C 0.1146 0.27191 0.64613 0.0
C255 C 0.10387 0.23345 0.6638 0.0
C256 C 0.05752 0.21699 0.66613 0.0
C257 C 0.02178 0.2402 0.65052 0.0
H258 H 0.64752 0.93143 0.06588 0.0
H259 H 0.57213 0.05648 0.09084 0.0
H260 H 0.62688 0.06966 0.1313 0.0
H261 H 0.67808 0.89527 0.14121 0.0
H262 H 0.73531 0.87516 0.13102 0.0
H263 H 0.68852 0.87318 0.10466 0.0
H264 H 0.7379 0.92155 0.06816 0.0
H265 H 0.7847 0.9239 0.09445 0.0
H266 H 0.76086 0.97695 0.07966 0.0
H267 H 0.69056 0.07292 0.16696 0.0
H268 H 0.76063 0.06513 0.19739 0.0
H269 H 0.79668 0.93751 0.15138 0.0
C270 C 0.64232 0.96115 0.08015 0.0
C271 C 0.60554 0.99296 0.0751 0.0
C272 C 0.60017 0.03178 0.09405 0.0
C273 C 0.63101 0.03957 0.11723 0.0
C274 C 0.66728 1.00828 0.12132 0.0
C275 C 0.67325 0.96976 0.10351 0.0
C276 C 0.71655 0.94286 0.11247 0.0
C277 C 0.70384 0.8937 0.12297 0.0
C278 C 0.7521 0.94124 0.08717 0.0
C279 C 0.73393 0.97272 0.13778 0.0
C280 C 0.70466 0.0101 0.14244 0.0
C281 C 0.7135 0.04344 0.16387 0.0
C282 C 0.75333 0.03849 0.18121 0.0
C283 C 0.78397 1.00031 0.17722 0.0
C284 C 0.77403 0.96707 0.15505 0.0
H285 H 0.9544 0.65603 0.56026 0.0
H286 H 0.99823 0.54395 0.61751 0.0
H287 H 0.99504 0.59717 0.66035 0.0
H288 H 0.02409 0.74114 0.59327 0.0
H289 H 0.98315 0.78821 0.58905 0.0
H290 H 0.98225 0.74011 0.56374 0.0
H291 H 0.89528 0.72578 0.57569 0.0
H292 H 0.89588 0.774 0.60104 0.0
H293 H 0.87757 0.71735 0.61336 0.0
H294 H 0.99184 0.66307 0.69604 0.0
H295 H 0.99337 0.73808 0.72217 0.0
H296 H 0.95677 0.80921 0.64113 0.0
C297 C 0.96202 0.64267 0.58202 0.0
C298 C 0.97549 0.59595 0.58603 0.0
C299 C 0.98706 0.57961 0.61439 0.0
C300 C 0.98528 0.60951 0.63873 0.0
C301 C 0.9724 0.6557 0.63414 0.0
C302 C 0.96116 0.67234 0.60649 0.0
C303 C 0.95292 0.72443 0.60717 0.0
C304 C 0.98768 0.74996 0.58713 0.0
C305 C 0.9024 0.73606 0.59882 0.0
C306 C 0.96212 0.73456 0.63937 0.0
C307 C 0.97256 0.6943 0.65458 0.0
C308 C 0.98367 0.69484 0.68438 0.0
C309 C 0.98483 0.73773 0.69897 0.0
C310 C 0.97561 0.77975 0.68371 0.0
C311 C 0.96341 0.77781 0.65357 0.0
H312 H 0.41477 0.02187 0.93418 0.0
H313 H 0.41784 0.87712 0.96088 0.0
H314 H 0.34929 0.86161 0.92923 0.0
H315 H 0.2945 0.03586 0.93514 0.0
H316 H 0.29212 0.07347 0.90346 0.0
H317 H 0.34367 0.07186 0.92587 0.0
H318 H 0.39361 0.05138 0.88014 0.0
H319 H 0.34224 0.05339 0.85748 0.0
H320 H 0.37812 1.00193 0.85783 0.0
H321 H 0.27513 0.86464 0.89834 0.0
H322 H 0.20617 0.88426 0.8681 0.0
H323 H 0.25387 0.02683 0.86162 0.0
C324 C 0.40158 0.98666 0.93306 0.0
C325 C 0.42162 0.95065 0.95001 0.0
C326 C 0.40325 0.90512 0.9479 0.0
C327 C 0.36423 0.8961 0.93008 0.0
C328 C 0.34454 0.93285 0.91431 0.0
C329 C 0.36313 0.97708 0.91534 0.0
C330 C 0.33492 0.01107 0.89724 0.0
C331 C 0.31513 0.05036 0.91659 0.0
C332 C 0.36396 0.03058 0.87165 0.0
C333 C 0.29681 0.97939 0.88624 0.0
C334 C 0.30282 0.93439 0.89628 0.0
C335 C 0.27049 0.89963 0.89009 0.0
C336 C 0.23129 0.91115 0.87309 0.0
C337 C 0.22486 0.95699 0.86239 0.0
C338 C 0.25826 0.99133 0.86906 0.0
H339 H 0.96035 0.36785 0.47765 0.0
H340 H 0.99743 0.48157 0.41987 0.0
H341 H 0.99569 0.42812 0.37709 0.0
H342 H 0.03264 0.28513 0.44354 0.0
H343 H 0.99367 0.2367 0.44837 0.0
H344 H 0.99192 0.28472 0.47374 0.0
H345 H 0.90404 0.29611 0.4632 0.0
H346 H 0.90548 0.24794 0.43783 0.0
H347 H 0.8846 0.30392 0.42582 0.0
H348 H 0.9946 0.36188 0.34144 0.0
H349 H 0.99711 0.28688 0.3152 0.0
H350 H 0.9649 0.2149 0.39664 0.0
C351 C 0.96688 0.38144 0.45581 0.0
C352 C 0.97802 0.42869 0.45162 0.0
C353 C 0.98808 0.44545 0.42313 0.0
C354 C 0.98715 0.41542 0.39883 0.0
C355 C 0.97657 0.36873 0.4036 0.0
C356 C 0.96673 0.35172 0.43138 0.0
C357 C 0.96038 0.29942 0.4308 0.0
C358 C 0.99683 0.27508 0.45026 0.0
C359 C 0.91066 0.28607 0.43995 0.0
C360 C 0.96878 0.28961 0.39846 0.0
C361 C 0.97753 0.33015 0.38314 0.0
C362 C 0.98768 0.3299 0.35318 0.0
C363 C 0.98939 0.28706 0.33852 0.0
C364 C 0.98146 0.24488 0.35384 0.0
C365 C 0.9705 0.24647 0.38418 0.0
H366 H 0.61398 0.99672 0.94055 0.0
H367 H 0.59506 0.14395 0.95785 0.0
H368 H 0.66163 0.16146 0.92487 0.0
H369 H 0.73604 0.99638 0.94104 0.0
H370 H 0.7417 0.95403 0.912 0.0
H371 H 0.69096 0.95385 0.93522 0.0
H372 H 0.63777 0.96067 0.88937 0.0
H373 H 0.68837 0.96048 0.86595 0.0
H374 H 0.64692 1.00744 0.86363 0.0
H375 H 0.73409 0.16147 0.8919 0.0
H376 H 0.80345 0.14454 0.86144 0.0
H377 H 0.77216 0.99713 0.86592 0.0
C378 C 0.62338 0.0328 0.93728 0.0
C379 C 0.59927 0.06902 0.95184 0.0
C380 C 0.61287 0.11566 0.94684 0.0
C381 C 0.65069 0.12587 0.9282 0.0
C382 C 0.67418 0.08907 0.91464 0.0
C383 C 0.66067 0.0435 0.91885 0.0
C384 C 0.692 0.00992 0.90254 0.0
C385 C 0.71663 0.9766 0.92398 0.0
C386 C 0.66463 0.98306 0.87897 0.0
C387 C 0.72594 0.04355 0.88877 0.0
C388 C 0.71514 0.08907 0.89583 0.0
C389 C 0.74249 0.12596 0.88604 0.0
C390 C 0.78174 0.11598 0.86864 0.0
C391 C 0.79341 0.06946 0.86122 0.0
C392 C 0.76473 0.03302 0.87142 0.0
H393 H 0.9904 0.63623 0.46078 0.0
H394 H 0.13937 0.61112 0.46416 0.0
H395 H 0.15219 0.6769 0.43029 0.0
H396 H 0.98481 0.66775 0.38425 0.0
H397 H 0.94147 0.71228 0.3898 0.0
H398 H 0.94388 0.66298 0.41417 0.0
H399 H 0.95121 0.7183 0.45895 0.0
H400 H 0.94873 0.76777 0.43473 0.0
H401 H 0.99708 0.76096 0.45961 0.0
H402 H 0.14887 0.74515 0.39589 0.0
H403 H 0.12974 0.81174 0.36391 0.0
H404 H 0.9831 0.79368 0.38394 0.0
C405 C 0.02574 0.64446 0.45437 0.0
C406 C 0.06388 0.6184 0.46513 0.0
C407 C 0.10957 0.63053 0.45626 0.0
C408 C 0.11723 0.66782 0.43699 0.0
C409 C 0.07887 0.69275 0.42683 0.0
C410 C 0.03404 0.68167 0.43525 0.0
C411 C 0.99893 0.71436 0.4214 0.0
C412 C 0.96529 0.68774 0.4012 0.0
C413 C 0.97244 0.74198 0.44509 0.0
C414 C 0.03104 0.74551 0.40383 0.0
C415 C 0.07699 0.7324 0.40724 0.0
C416 C 0.11302 0.75589 0.39316 0.0
C417 C 0.1018 0.79389 0.37519 0.0
C418 C 0.05493 0.80823 0.37148 0.0
C419 C 0.01921 0.78342 0.38603 0.0
loop_
_geom_bond_atom_site_label_1
_geom_bond_atom_site_label_2
_geom_bond_distance
_geom_bond_site_symmetry_2
_ccdc_geom_bond_type
C0 O2 1.246 . S
C0 O4 1.259 1_565 S
C1 O8 1.251 . S
C1 O9 1.254 1_545 S
O2 C0 1.246 . S
O2 Zn3 2.028 1_556 S
Zn3 O2 2.028 1_554 S
Zn3 O7 2.035 1_554 S
Zn3 O9 2.035 . S
Zn3 O10 2.028 . S
O4 C0 1.259 1_545 S
O4 Zn5 2.035 1_556 S
Zn5 O4 2.035 1_554 S
Zn5 O6 2.028 1_554 S
Zn5 O8 2.028 . S
Zn5 O11 2.035 . S
O6 Zn5 2.028 1_556 S
O6 C12 1.251 . S
O7 Zn3 2.035 1_556 S
O7 C12 1.254 1_565 S
O8 C1 1.251 . S
O8 Zn5 2.028 . S
O9 C1 1.254 1_565 S
O9 Zn3 2.035 . S
O10 Zn3 2.028 . S
O10 C13 1.246 . S
O11 Zn5 2.035 . S
O11 C13 1.259 1_545 S
C12 O6 1.251 . S
C12 O7 1.254 1_545 S
C13 O10 1.246 . S
C13 O11 1.259 1_565 S
C14 O16 1.246 . S
C14 O18 1.259 1_655 S
C15 O22 1.251 . S
C15 O23 1.254 1_455 S
O16 C14 1.246 . S
O16 Zn17 2.028 . S
Zn17 O16 2.028 . S
Zn17 O21 2.035 . S
Zn17 O23 2.035 . S
Zn17 O24 2.028 . S
O18 C14 1.259 1_455 S
O18 Zn19 2.035 . S
Zn19 O18 2.035 . S
Zn19 O20 2.028 . S
Zn19 O22 2.028 . S
Zn19 O25 2.035 . S
O20 Zn19 2.028 . S
O20 C26 1.251 . S
O21 Zn17 2.035 . S
O21 C26 1.254 1_655 S
O22 C15 1.251 . S
O22 Zn19 2.028 . S
O23 C15 1.254 1_655 S
O23 Zn17 2.035 . S
O24 Zn17 2.028 . S
O24 C27 1.246 . S
O25 Zn19 2.035 . S
O25 C27 1.259 1_455 S
C26 O20 1.251 . S
C26 O21 1.254 1_455 S
C27 O24 1.246 . S
C27 O25 1.259 1_655 S
Li28 N45 1.990 . S
Li28 O88 1.956 1_545 S
Li28 O89 1.970 1_455 S
Li28 O90 1.961 1_455 S
Li29 N53 1.990 . S
Li29 O88 1.970 1_655 S
Li29 O89 1.956 1_565 S
Li29 O91 1.961 1_655 S
Li30 N75 1.990 . S
Li30 O88 1.961 1_545 S
Li30 O90 1.956 1_455 S
Li30 O91 1.970 1_545 S
Li31 N81 1.990 . S
Li31 O89 1.961 1_565 S
Li31 O90 1.970 1_565 S
Li31 O91 1.956 1_655 S
C32 C34 1.348 1_545 S
C32 C35 1.356 . S
C32 O88 1.325 1_545 S
N33 C36 1.314 1_545 S
N33 C37 1.279 . S
C34 C32 1.348 1_565 S
C34 C36 1.353 . S
C34 H92 0.929 . S
C35 C32 1.356 . S
C35 C37 1.358 . S
C35 H93 0.930 . S
C36 N33 1.314 1_565 S
C36 C34 1.353 . S
C36 H94 0.930 . S
C37 N33 1.279 . S
C37 C35 1.358 . S
C37 H95 0.930 . S
C38 C41 1.348 . S
C38 C42 1.356 1_545 S
C38 O89 1.325 . S
C39 N40 1.279 . S
C39 C42 1.358 . S
C39 H96 0.930 . S
N40 C39 1.279 . S
N40 C43 1.314 1_565 S
C41 C38 1.348 . S
C41 C43 1.353 . S
C41 H97 0.929 . S
C42 C38 1.356 1_565 S
C42 C39 1.358 . S
C42 H98 0.930 . S
C43 N40 1.314 1_545 S
C43 C41 1.353 . S
C43 H99 0.930 . S
C44 N45 1.314 1_655 S
C44 C49 1.353 . S
C44 H50 0.930 . S
N45 Li28 1.990 . S
N45 C44 1.314 1_455 S
N45 C47 1.279 . S
C46 C47 1.358 . S
C46 C48 1.356 . S
C46 H100 0.930 . S
C47 N45 1.279 . S
C47 C46 1.358 . S
C47 H51 0.930 . S
C48 C46 1.356 . S
C48 C49 1.348 1_455 S
C49 C44 1.353 . S
C49 C48 1.348 1_655 S
C49 H101 0.929 . S
H50 C44 0.930 . S
H51 C47 0.930 . S
C52 N53 1.314 1_455 S
C52 C54 1.353 . S
C52 H58 0.930 . S
N53 Li29 1.990 . S
N53 C52 1.314 1_655 S
N53 C56 1.279 . S
C54 C52 1.353 . S
C54 C57 1.348 . S
C54 H102 0.929 . S
C55 C56 1.358 . S
C55 C57 1.356 1_655 S
C55 H103 0.930 . S
C56 N53 1.279 . S
C56 C55 1.358 . S
C56 H59 0.930 . S
C57 C54 1.348 . S
C57 C55 1.356 1_455 S
H58 C52 0.930 . S
H59 C56 0.930 . S
C60 C62 1.348 1_455 S
C60 C63 1.356 . S
C60 O90 1.325 1_455 S
N61 C64 1.314 1_455 S
N61 C65 1.279 . S
C62 C60 1.348 1_655 S
C62 C64 1.353 . S
C62 H104 0.929 . S
C63 C60 1.356 . S
C63 C65 1.358 . S
C63 H105 0.930 . S
C64 N61 1.314 1_655 S
C64 C62 1.353 . S
C64 H106 0.930 . S
C65 N61 1.279 . S
C65 C63 1.358 . S
C65 H107 0.930 . S
C66 C67 1.348 . S
C66 C68 1.356 1_455 S
C66 O91 1.325 . S
C67 C66 1.348 . S
C67 C69 1.353 . S
C67 H108 0.929 . S
C68 C66 1.356 1_655 S
C68 C70 1.358 . S
C68 H109 0.930 . S
C69 C67 1.353 . S
C69 N71 1.314 1_455 S
C69 H110 0.930 . S
C70 C68 1.358 . S
C70 N71 1.279 . S
C70 H111 0.930 . S
N71 C69 1.314 1_655 S
N71 C70 1.279 . S
C72 C74 1.353 . S
C72 N75 1.314 1_565 S
C72 H78 0.930 . S
C73 N75 1.279 . S
C73 C76 1.358 . S
C73 H79 0.930 . S
C74 C72 1.353 . S
C74 C77 1.348 1_565 S
C74 H112 0.929 . S
N75 Li30 1.990 . S
N75 C72 1.314 1_545 S
N75 C73 1.279 . S
C76 C73 1.358 . S
C76 C77 1.356 . S
C76 H113 0.930 . S
C77 C74 1.348 1_545 S
C77 C76 1.356 . S
H78 C72 0.930 . S
H79 C73 0.930 . S
C80 N81 1.314 1_545 S
C80 C82 1.353 . S
C80 H86 0.930 . S
N81 Li31 1.990 . S
N81 C80 1.314 1_565 S
N81 C84 1.279 . S
C82 C80 1.353 . S
C82 C85 1.348 . S
C82 H114 0.929 . S
C83 C84 1.358 . S
C83 C85 1.356 1_565 S
C83 H115 0.930 . S
C84 N81 1.279 . S
C84 C83 1.358 . S
C84 H87 0.930 . S
C85 C82 1.348 . S
C85 C83 1.356 1_545 S
H86 C80 0.930 . S
H87 C84 0.930 . S
O88 Li28 1.956 1_565 S
O88 Li29 1.970 1_455 S
O88 Li30 1.961 1_565 S
O88 C32 1.325 1_565 S
O89 Li28 1.970 1_655 S
O89 Li29 1.956 1_545 S
O89 Li31 1.961 1_545 S
O89 C38 1.325 . S
O90 Li28 1.961 1_655 S
O90 Li30 1.956 1_655 S
O90 Li31 1.970 1_545 S
O90 C60 1.325 1_655 S
O91 Li29 1.961 1_455 S
O91 Li30 1.970 1_565 S
O91 Li31 1.956 1_455 S
O91 C66 1.325 . S
H92 C34 0.929 . S
H93 C35 0.930 . S
H94 C36 0.930 . S
H95 C37 0.930 . S
H96 C39 0.930 . S
H97 C41 0.929 . S
H98 C42 0.930 . S
H99 C43 0.930 . S
H100 C46 0.930 . S
H101 C49 0.929 . S
H102 C54 0.929 . S
H103 C55 0.930 . S
H104 C62 0.929 . S
H105 C63 0.930 . S
H106 C64 0.930 . S
H107 C65 0.930 . S
H108 C67 0.929 . S
H109 C68 0.930 . S
H110 C69 0.930 . S
H111 C70 0.930 . S
H112 C74 0.929 . S
H113 C76 0.930 . S
H114 C82 0.929 . S
H115 C83 0.930 . S
Li116 N133 1.990 . S
Li116 O176 1.956 1_655 S
Li116 O177 1.970 1_545 S
Li116 O178 1.961 1_545 S
Li117 N141 1.990 . S
Li117 O176 1.970 1_565 S
Li117 O177 1.956 1_455 S
Li117 O179 1.961 1_565 S
Li118 N163 1.990 . S
Li118 O176 1.961 1_655 S
Li118 O178 1.956 1_545 S
Li118 O179 1.970 1_655 S
Li119 N169 1.990 . S
Li119 O177 1.961 1_455 S
Li119 O178 1.970 1_455 S
Li119 O179 1.956 1_565 S
C120 C122 1.348 . S
C120 C123 1.356 1_455 S
C120 O176 1.325 . S
N121 C124 1.314 1_655 S
N121 C125 1.279 . S
C122 C120 1.348 . S
C122 C124 1.353 . S
C122 H180 0.929 . S
C123 C120 1.356 1_655 S
C123 C125 1.358 . S
C123 H181 0.930 . S
C124 N121 1.314 1_455 S
C124 C122 1.353 . S
C124 H182 0.930 . S
C125 N121 1.279 . S
C125 C123 1.358 . S
C125 H183 0.930 . S
C126 C129 1.348 1_455 S
C126 C130 1.356 . S
C126 O177 1.325 1_455 S
C127 N128 1.279 . S
C127 C130 1.358 . S
C127 H184 0.930 . S
N128 C127 1.279 . S
N128 C131 1.314 1_455 S
C129 C126 1.348 1_655 S
C129 C131 1.353 . S
C129 H185 0.929 . S
C130 C126 1.356 . S
C130 C127 1.358 . S
C130 H186 0.930 . S
C131 N128 1.314 1_655 S
C131 C129 1.353 . S
C131 H187 0.930 . S
C132 N133 1.314 1_565 S
C132 C137 1.353 . S
C132 H138 0.930 . S
N133 Li116 1.990 . S
N133 C132 1.314 1_545 S
N133 C135 1.279 . S
C134 C135 1.358 . S
C134 C136 1.356 . S
C134 H188 0.930 . S
C135 N133 1.279 . S
C135 C134 1.358 . S
C135 H139 0.930 . S
C136 C134 1.356 . S
C136 C137 1.348 1_545 S
C137 C132 1.353 . S
C137 C136 1.348 1_565 S
C137 H189 0.929 . S
H138 C132 0.930 . S
H139 C135 0.930 . S
C140 N141 1.314 1_545 S
C140 C142 1.353 . S
C140 H146 0.930 . S
N141 Li117 1.990 . S
N141 C140 1.314 1_565 S
N141 C144 1.279 . S
C142 C140 1.353 . S
C142 C145 1.348 . S
C142 H190 0.929 . S
C143 C144 1.358 . S
C143 C145 1.356 1_565 S
C143 H191 0.930 . S
C144 N141 1.279 . S
C144 C143 1.358 . S
C144 H147 0.930 . S
C145 C142 1.348 . S
C145 C143 1.356 1_545 S
H146 C140 0.930 . S
H147 C144 0.930 . S
C148 C150 1.348 1_545 S
C148 C151 1.356 . S
C148 O178 1.325 1_545 S
N149 C152 1.314 1_545 S
N149 C153 1.279 . S
C150 C148 1.348 1_565 S
C150 C152 1.353 . S
C150 H192 0.929 . S
C151 C148 1.356 . S
C151 C153 1.358 . S
C151 H193 0.930 . S
C152 N149 1.314 1_565 S
C152 C150 1.353 . S
C152 H194 0.930 . S
C153 N149 1.279 . S
C153 C151 1.358 . S
C153 H195 0.930 . S
C154 C155 1.348 . S
C154 C156 1.356 1_545 S
C154 O179 1.325 . S
C155 C154 1.348 . S
C155 C157 1.353 . S
C155 H196 0.929 . S
C156 C154 1.356 1_565 S
C156 C158 1.358 . S
C156 H197 0.930 . S
C157 C155 1.353 . S
C157 N159 1.314 1_545 S
C157 H198 0.930 . S
C158 C156 1.358 . S
C158 N159 1.279 . S
C158 H199 0.930 . S
N159 C157 1.314 1_565 S
N159 C158 1.279 . S
C160 C162 1.353 . S
C160 N163 1.314 1_455 S
C160 H166 0.930 . S
C161 N163 1.279 . S
C161 C164 1.358 . S
C161 H167 0.930 . S
C162 C160 1.353 . S
C162 C165 1.348 . S
C162 H200 0.929 . S
N163 Li118 1.990 . S
N163 C160 1.314 1_655 S
N163 C161 1.279 . S
C164 C161 1.358 . S
C164 C165 1.356 1_655 S
C164 H201 0.930 . S
C165 C162 1.348 . S
C165 C164 1.356 1_455 S
H166 C160 0.930 . S
H167 C161 0.930 . S
C168 N169 1.314 1_655 S
C168 C170 1.353 . S
C168 H174 0.930 . S
N169 Li119 1.990 . S
N169 C168 1.314 1_455 S
N169 C172 1.279 . S
C170 C168 1.353 . S
C170 C173 1.348 1_655 S
C170 H202 0.929 . S
C171 C172 1.358 . S
C171 C173 1.356 . S
C171 H203 0.930 . S
C172 N169 1.279 . S
C172 C171 1.358 . S
C172 H175 0.930 . S
C173 C170 1.348 1_455 S
C173 C171 1.356 . S
H174 C168 0.930 . S
H175 C172 0.930 . S
O176 Li116 1.956 1_455 S
O176 Li117 1.970 1_545 S
O176 Li118 1.961 1_455 S
O176 C120 1.325 . S
O177 Li116 1.970 1_565 S
O177 Li117 1.956 1_655 S
O177 Li119 1.961 1_655 S
O177 C126 1.325 1_655 S
O178 Li116 1.961 1_565 S
O178 Li118 1.956 1_565 S
O178 Li119 1.970 1_655 S
O178 C148 1.325 1_565 S
O179 Li117 1.961 1_545 S
O179 Li118 1.970 1_455 S
O179 Li119 1.956 1_545 S
O179 C154 1.325 . S
H180 C122 0.929 . S
H181 C123 0.930 . S
H182 C124 0.930 . S
H183 C125 0.930 . S
H184 C127 0.930 . S
H185 C129 0.929 . S
H186 C130 0.930 . S
H187 C131 0.930 . S
H188 C134 0.930 . S
H189 C137 0.929 . S
H190 C142 0.929 . S
H191 C143 0.930 . S
H192 C150 0.929 . S
H193 C151 0.930 . S
H194 C152 0.930 . S
H195 C153 0.930 . S
H196 C155 0.929 . S
H197 C156 0.930 . S
H198 C157 0.930 . S
H199 C158 0.930 . S
H200 C162 0.929 . S
H201 C164 0.930 . S
H202 C170 0.929 . S
H203 C171 0.930 . S
H204 C216 0.930 . S
H205 C218 0.930 . S
H206 C219 0.930 . S
H207 C223 0.959 . S
H208 C223 0.959 . S
H209 C223 0.961 . S
H210 C224 0.960 . S
H211 C224 0.961 . S
H212 C224 0.959 . S
H213 C227 0.929 . S
H214 C228 0.931 . S
H215 C230 0.930 . S
C216 H204 0.930 . S
C216 C217 1.399 1_545 S
C216 C221 1.399 . S
C217 C216 1.399 1_565 S
C217 C218 1.376 . S
C218 H205 0.930 . S
C218 C217 1.376 . S
C218 C219 1.388 . S
C219 H206 0.930 . S
C219 C218 1.388 . S
C219 C220 1.390 . S
C220 C219 1.390 . S
C220 C221 1.394 1_565 S
C220 C226 1.465 . S
C221 C216 1.399 . S
C221 C220 1.394 1_545 S
C221 C222 1.516 . S
C222 C221 1.516 . S
C222 C223 1.502 . S
C222 C224 1.561 . S
C222 C225 1.526 . S
C223 H207 0.959 . S
C223 H208 0.959 . S
C223 H209 0.961 . S
C223 C222 1.502 . S
C224 H210 0.960 . S
C224 H211 0.961 . S
C224 H212 0.959 . S
C224 C222 1.561 . S
C225 C222 1.526 . S
C225 C226 1.396 1_545 S
C225 C230 1.390 . S
C226 C220 1.465 . S
C226 C225 1.396 1_565 S
C226 C227 1.399 . S
C227 H213 0.929 . S
C227 C226 1.399 . S
C227 C228 1.385 . S
C228 H214 0.931 . S
C228 C227 1.385 . S
C228 C229 1.389 . S
C229 C228 1.389 . S
C229 C230 1.387 1_565 S
C230 H215 0.930 . S
C230 C225 1.390 . S
C230 C229 1.387 1_545 S
H231 C243 0.928 1_655 S
H232 C245 0.930 . S
H233 C246 0.930 . S
H234 C250 0.959 . S
H235 C250 0.959 . S
H236 C250 0.961 . S
H237 C251 0.960 . S
H238 C251 0.961 . S
H239 C251 0.959 . S
H240 C254 0.929 . S
H241 C255 0.931 . S
H242 C257 0.930 . S
C243 H231 0.928 1_455 S
C243 C244 1.400 . S
C243 C248 1.400 . S
C244 C243 1.400 . S
C244 C245 1.376 . S
C245 H232 0.930 . S
C245 C244 1.376 . S
C245 C246 1.388 . S
C246 H233 0.930 . S
C246 C245 1.388 . S
C246 C247 1.390 . S
C247 C246 1.390 . S
C247 C248 1.394 . S
C247 C253 1.465 . S
C248 C243 1.400 . S
C248 C247 1.394 . S
C248 C249 1.516 . S
C249 C248 1.516 . S
C249 C250 1.502 1_455 S
C249 C251 1.561 . S
C249 C252 1.526 . S
C250 H234 0.959 . S
C250 H235 0.959 . S
C250 H236 0.961 . S
C250 C249 1.502 1_655 S
C251 H237 0.960 . S
C251 H238 0.961 . S
C251 H239 0.959 . S
C251 C249 1.561 . S
C252 C249 1.526 . S
C252 C253 1.396 . S
C252 C257 1.390 . S
C253 C247 1.465 . S
C253 C252 1.396 . S
C253 C254 1.399 . S
C254 H240 0.929 . S
C254 C253 1.399 . S
C254 C255 1.385 . S
C255 H241 0.931 . S
C255 C254 1.385 . S
C255 C256 1.389 . S
C256 C255 1.389 . S
C256 C257 1.387 . S
C257 H242 0.930 . S
C257 C252 1.390 . S
C257 C256 1.387 . S
H258 C270 0.930 . S
H259 C272 0.930 . S
H260 C273 0.930 . S
H261 C277 0.959 . S
H262 C277 0.959 . S
H263 C277 0.961 . S
H264 C278 0.960 . S
H265 C278 0.961 . S
H266 C278 0.959 . S
H267 C281 0.929 . S
H268 C282 0.931 . S
H269 C284 0.930 . S
C270 H258 0.930 . S
C270 C271 1.399 1_565 S
C270 C275 1.399 . S
C271 C270 1.399 1_545 S
C271 C272 1.376 . S
C272 H259 0.930 . S
C272 C271 1.376 . S
C272 C273 1.388 . S
C273 H260 0.930 . S
C273 C272 1.388 . S
C273 C274 1.390 . S
C274 C273 1.390 . S
C274 C275 1.394 1_545 S
C274 C280 1.465 . S
C275 C270 1.399 . S
C275 C274 1.394 1_565 S
C275 C276 1.516 . S
C276 C275 1.516 . S
C276 C277 1.502 . S
C276 C278 1.561 . S
C276 C279 1.526 . S
C277 H261 0.959 . S
C277 H262 0.959 . S
C277 H263 0.961 . S
C277 C276 1.502 . S
C278 H264 0.960 . S
C278 H265 0.961 . S
C278 H266 0.959 . S
C278 C276 1.561 . S
C279 C276 1.526 . S
C279 C280 1.396 1_565 S
C279 C284 1.390 . S
C280 C274 1.465 . S
C280 C279 1.396 1_545 S
C280 C281 1.399 . S
C281 H267 0.929 . S
C281 C280 1.399 . S
C281 C282 1.385 . S
C282 H268 0.931 . S
C282 C281 1.385 . S
C282 C283 1.389 . S
C283 C282 1.389 . S
C283 C284 1.387 1_545 S
C284 H269 0.930 . S
C284 C279 1.390 . S
C284 C283 1.387 1_565 S
H285 C297 0.930 . S
H286 C299 0.930 . S
H287 C300 0.930 . S
H288 C304 0.959 . S
H289 C304 0.959 . S
H290 C304 0.961 . S
H291 C305 0.960 . S
H292 C305 0.961 . S
H293 C305 0.959 . S
H294 C308 0.929 . S
H295 C309 0.931 . S
H296 C311 0.930 . S
C297 H285 0.930 . S
C297 C298 1.399 1_655 S
C297 C302 1.399 . S
C298 C297 1.399 1_455 S
C298 C299 1.376 . S
C299 H286 0.930 . S
C299 C298 1.376 . S
C299 C300 1.388 . S
C300 H287 0.930 . S
C300 C299 1.388 . S
C300 C301 1.390 . S
C301 C300 1.390 . S
C301 C302 1.394 1_455 S
C301 C307 1.465 . S
C302 C297 1.399 . S
C302 C301 1.394 1_655 S
C302 C303 1.516 . S
C303 C302 1.516 . S
C303 C304 1.502 . S
C303 C305 1.561 . S
C303 C306 1.526 . S
C304 H288 0.959 . S
C304 H289 0.959 . S
C304 H290 0.961 . S
C304 C303 1.502 . S
C305 H291 0.960 . S
C305 H292 0.961 . S
C305 H293 0.959 . S
C305 C303 1.561 . S
C306 C303 1.526 . S
C306 C307 1.396 1_655 S
C306 C311 1.390 . S
C307 C301 1.465 . S
C307 C306 1.396 1_455 S
C307 C308 1.399 . S
C308 H294 0.929 . S
C308 C307 1.399 . S
C308 C309 1.385 . S
C309 H295 0.931 . S
C309 C308 1.385 . S
C309 C310 1.389 . S
C310 C309 1.389 . S
C310 C311 1.387 1_455 S
C311 H296 0.930 . S
C311 C306 1.390 . S
C311 C310 1.387 1_655 S
H312 C324 0.930 . S
H313 C326 0.930 . S
H314 C327 0.930 . S
H315 C331 0.959 . S
H316 C331 0.959 . S
H317 C331 0.961 . S
H318 C332 0.960 . S
H319 C332 0.961 . S
H320 C332 0.959 . S
H321 C335 0.929 . S
H322 C336 0.931 . S
H323 C338 0.930 . S
C324 H312 0.930 . S
C324 C325 1.399 1_545 S
C324 C329 1.399 . S
C325 C324 1.399 1_565 S
C325 C326 1.376 . S
C326 H313 0.930 . S
C326 C325 1.376 . S
C326 C327 1.388 . S
C327 H314 0.930 . S
C327 C326 1.388 . S
C327 C328 1.390 . S
C328 C327 1.390 . S
C328 C329 1.394 1_565 S
C328 C334 1.465 . S
C329 C324 1.399 . S
C329 C328 1.394 1_545 S
C329 C330 1.516 . S
C330 C329 1.516 . S
C330 C331 1.502 . S
C330 C332 1.561 . S
C330 C333 1.526 . S
C331 H315 0.959 . S
C331 H316 0.959 . S
C331 H317 0.961 . S
C331 C330 1.502 . S
C332 H318 0.960 . S
C332 H319 0.961 . S
C332 H320 0.959 . S
C332 C330 1.561 . S
C333 C330 1.526 . S
C333 C334 1.396 1_545 S
C333 C338 1.390 . S
C334 C328 1.465 . S
C334 C333 1.396 1_565 S
C334 C335 1.399 . S
C335 H321 0.929 . S
C335 C334 1.399 . S
C335 C336 1.385 . S
C336 H322 0.931 . S
C336 C335 1.385 . S
C336 C337 1.389 . S
C337 C336 1.389 . S
C337 C338 1.387 1_565 S
C338 H323 0.930 . S
C338 C333 1.390 . S
C338 C337 1.387 1_545 S
H339 C351 0.930 . S
H340 C353 0.930 . S
H341 C354 0.930 . S
H342 C358 0.959 . S
H343 C358 0.959 . S
H344 C358 0.961 . S
H345 C359 0.960 . S
H346 C359 0.961 . S
H347 C359 0.959 . S
H348 C362 0.929 . S
H349 C363 0.931 . S
H350 C365 0.930 . S
C351 H339 0.930 . S
C351 C352 1.399 1_655 S
C351 C356 1.399 . S
C352 C351 1.399 1_455 S
C352 C353 1.376 . S
C353 H340 0.930 . S
C353 C352 1.376 . S
C353 C354 1.388 . S
C354 H341 0.930 . S
C354 C353 1.388 . S
C354 C355 1.390 . S
C355 C354 1.390 . S
C355 C356 1.394 1_455 S
C355 C361 1.465 . S
C356 C351 1.399 . S
C356 C355 1.394 1_655 S
C356 C357 1.516 . S
C357 C356 1.516 . S
C357 C358 1.502 . S
C357 C359 1.561 . S
C357 C360 1.526 . S
C358 H342 0.959 . S
C358 H343 0.959 . S
C358 H344 0.961 . S
C358 C357 1.502 . S
C359 H345 0.960 . S
C359 H346 0.961 . S
C359 H347 0.959 . S
C359 C357 1.561 . S
C360 C357 1.526 . S
C360 C361 1.396 1_655 S
C360 C365 1.390 . S
C361 C355 1.465 . S
C361 C360 1.396 1_455 S
C361 C362 1.399 . S
C362 H348 0.929 . S
C362 C361 1.399 . S
C362 C363 1.385 . S
C363 H349 0.931 . S
C363 C362 1.385 . S
C363 C364 1.389 . S
C364 C363 1.389 . S
C364 C365 1.387 1_455 S
C365 H350 0.930 . S
C365 C360 1.390 . S
C365 C364 1.387 1_655 S
H366 C378 0.930 . S
H367 C380 0.930 . S
H368 C381 0.930 . S
H369 C385 0.959 . S
H370 C385 0.959 . S
H371 C385 0.961 . S
H372 C386 0.960 . S
H373 C386 0.961 . S
H374 C386 0.959 . S
H375 C389 0.929 . S
H376 C390 0.931 . S
H377 C392 0.930 . S
C378 H366 0.930 . S
C378 C379 1.399 1_545 S
C378 C383 1.399 . S
C379 C378 1.399 1_565 S
C379 C380 1.376 . S
C380 H367 0.930 . S
C380 C379 1.376 . S
C380 C381 1.388 . S
C381 H368 0.930 . S
C381 C380 1.388 . S
C381 C382 1.390 . S
C382 C381 1.390 . S
C382 C383 1.394 1_565 S
C382 C388 1.465 . S
C383 C378 1.399 . S
C383 C382 1.394 1_545 S
C383 C384 1.516 . S
C384 C383 1.516 . S
C384 C385 1.502 . S
C384 C386 1.561 . S
C384 C387 1.526 . S
C385 H369 0.959 . S
C385 H370 0.959 . S
C385 H371 0.961 . S
C385 C384 1.502 . S
C386 H372 0.960 . S
C386 H373 0.961 . S
C386 H374 0.959 . S
C386 C384 1.561 . S
C387 C384 1.526 . S
C387 C388 1.396 1_545 S
C387 C392 1.390 . S
C388 C382 1.465 . S
C388 C387 1.396 1_565 S
C388 C389 1.399 . S
C389 H375 0.929 . S
C389 C388 1.399 . S
C389 C390 1.385 . S
C390 H376 0.931 . S
C390 C389 1.385 . S
C390 C391 1.389 . S
C391 C390 1.389 . S
C391 C392 1.387 1_565 S
C392 H377 0.930 . S
C392 C387 1.390 . S
C392 C391 1.387 1_545 S
H393 C405 0.930 . S
H394 C407 0.930 . S
H395 C408 0.930 . S
H396 C412 0.959 . S
H397 C412 0.959 . S
H398 C412 0.961 . S
H399 C413 0.960 . S
H400 C413 0.961 . S
H401 C413 0.959 . S
H402 C416 0.929 . S
H403 C417 0.931 . S
H404 C419 0.930 . S
C405 H393 0.930 . S
C405 C406 1.399 1_655 S
C405 C410 1.399 . S
C406 C405 1.399 1_455 S
C406 C407 1.376 . S
C407 H394 0.930 . S
C407 C406 1.376 . S
C407 C408 1.388 . S
C408 H395 0.930 . S
C408 C407 1.388 . S
C408 C409 1.390 . S
C409 C408 1.390 . S
C409 C410 1.394 1_455 S
C409 C415 1.465 . S
C410 C405 1.399 . S
C410 C409 1.394 1_655 S
C410 C411 1.516 . S
C411 C410 1.516 . S
C411 C412 1.502 . S
C411 C413 1.561 1_655 S
C411 C414 1.526 . S
C412 H396 0.959 . S
C412 H397 0.959 . S
C412 H398 0.961 . S
C412 C411 1.502 . S
C413 H399 0.960 . S
C413 H400 0.961 . S
C413 H401 0.959 . S
C413 C411 1.561 1_455 S
C414 C411 1.526 . S
C414 C415 1.396 1_655 S
C414 C419 1.390 . S
C415 C409 1.465 . S
C415 C414 1.396 1_455 S
C415 C416 1.399 . S
C416 H402 0.929 . S
C416 C415 1.399 . S
C416 C417 1.385 . S
C417 H403 0.931 . S
C417 C416 1.385 . S
C417 C418 1.389 . S
C418 C417 1.389 . S
C418 C419 1.387 1_455 S
C419 H404 0.930 . S
C419 C414 1.390 . S
C419 C418 1.387 1_655 S
C229 C77 1.452 1_565 S
C217 C13 1.452 . S
C256 C165 1.459 . S
C244 C15 1.447 . S
C283 C85 1.452 . S
C271 C1 1.457 . S
C310 C173 1.450 . S
C298 C27 1.450 1_455 S
C337 C145 1.453 1_565 S
C325 C0 1.449 . S
C364 C48 1.452 . S
C352 C26 1.449 . S
C391 C136 1.450 1_565 S
C379 C12 1.463 1_565 S
C406 C14 1.449 1_455 S
C418 C57 1.460 . S
