# Generated by pormake.
# Topology myd, (4,6)-cn, num edge types: 1
# Building blocks:
#     Node 0, Type 0, BuildingBlock: NAWXER_clean_sbu_0, # of connection points: 4
#     Node 1, Type 0, BuildingBlock: NAWXER_clean_sbu_0, # of connection points: 4
#     Node 2, Type 0, BuildingBlock: NAWXER_clean_sbu_0, # of connection points: 4
#     Node 3, Type 0, BuildingBlock: NAWXER_clean_sbu_0, # of connection points: 4
#     Node 4, Type 0, BuildingBlock: NAWXER_clean_sbu_0, # of connection points: 4
#     Node 5, Type 0, BuildingBlock: NAWXER_clean_sbu_0, # of connection points: 4
#     Node 6, Type 0, BuildingBlock: NAWXER_clean_sbu_0, # of connection points: 4
#     Node 7, Type 0, BuildingBlock: NAWXER_clean_sbu_0, # of connection points: 4
#     Node 8, Type 0, BuildingBlock: NAWXER_clean_sbu_0, # of connection points: 4
#     Node 9, Type 0, BuildingBlock: NAWXER_clean_sbu_0, # of connection points: 4
#     Node 10, Type 0, BuildingBlock: NAWXER_clean_sbu_0, # of connection points: 4
#     Node 11, Type 0, BuildingBlock: NAWXER_clean_sbu_0, # of connection points: 4
#     Node 12, Type 1, BuildingBlock: FUNLAD_clean_sbu_0, # of connection points: 6
#     Node 13, Type 1, BuildingBlock: FUNLAD_clean_sbu_0, # of connection points: 6
#     Node 14, Type 1, BuildingBlock: FUNLAD_clean_sbu_0, # of connection points: 6
#     Node 15, Type 1, BuildingBlock: FUNLAD_clean_sbu_0, # of connection points: 6
#     Node 16, Type 1, BuildingBlock: FUNLAD_clean_sbu_0, # of connection points: 6
#     Node 17, Type 1, BuildingBlock: FUNLAD_clean_sbu_0, # of connection points: 6
#     Node 18, Type 1, BuildingBlock: FUNLAD_clean_sbu_0, # of connection points: 6
#     Node 19, Type 1, BuildingBlock: FUNLAD_clean_sbu_0, # of connection points: 6
#     Edge 20, Type (0, 1), BuildingBlock: EZIPEK_clean_linker_0, # of connection points: 2
#     Edge 21, Type (0, 1), BuildingBlock: EZIPEK_clean_linker_0, # of connection points: 2
#     Edge 22, Type (0, 1), BuildingBlock: EZIPEK_clean_linker_0, # of connection points: 2
#     Edge 23, Type (0, 1), BuildingBlock: EZIPEK_clean_linker_0, # of connection points: 2
#     Edge 24, Type (0, 1), BuildingBlock: EZIPEK_clean_linker_0, # of connection points: 2
#     Edge 25, Type (0, 1), BuildingBlock: EZIPEK_clean_linker_0, # of connection points: 2
#     Edge 26, Type (0, 1), BuildingBlock: EZIPEK_clean_linker_0, # of connection points: 2
#     Edge 27, Type (0, 1), BuildingBlock: EZIPEK_clean_linker_0, # of connection points: 2
#     Edge 28, Type (0, 1), BuildingBlock: EZIPEK_clean_linker_0, # of connection points: 2
#     Edge 29, Type (0, 1), BuildingBlock: EZIPEK_clean_linker_0, # of connection points: 2
#     Edge 30, Type (0, 1), BuildingBlock: EZIPEK_clean_linker_0, # of connection points: 2
#     Edge 31, Type (0, 1), BuildingBlock: EZIPEK_clean_linker_0, # of connection points: 2
#     Edge 32, Type (0, 1), BuildingBlock: EZIPEK_clean_linker_0, # of connection points: 2
#     Edge 33, Type (0, 1), BuildingBlock: EZIPEK_clean_linker_0, # of connection points: 2
#     Edge 34, Type (0, 1), BuildingBlock: EZIPEK_clean_linker_0, # of connection points: 2
#     Edge 35, Type (0, 1), BuildingBlock: EZIPEK_clean_linker_0, # of connection points: 2
#     Edge 36, Type (0, 1), BuildingBlock: EZIPEK_clean_linker_0, # of connection points: 2
#     Edge 37, Type (0, 1), BuildingBlock: EZIPEK_clean_linker_0, # of connection points: 2
#     Edge 38, Type (0, 1), BuildingBlock: EZIPEK_clean_linker_0, # of connection points: 2
#     Edge 39, Type (0, 1), BuildingBlock: EZIPEK_clean_linker_0, # of connection points: 2
#     Edge 40, Type (0, 1), BuildingBlock: EZIPEK_clean_linker_0, # of connection points: 2
#     Edge 41, Type (0, 1), BuildingBlock: EZIPEK_clean_linker_0, # of connection points: 2
#     Edge 42, Type (0, 1), BuildingBlock: EZIPEK_clean_linker_0, # of connection points: 2
#     Edge 43, Type (0, 1), BuildingBlock: EZIPEK_clean_linker_0, # of connection points: 2
#     Edge 44, Type (0, 1), BuildingBlock: EZIPEK_clean_linker_0, # of connection points: 2
#     Edge 45, Type (0, 1), BuildingBlock: EZIPEK_clean_linker_0, # of connection points: 2
#     Edge 46, Type (0, 1), BuildingBlock: EZIPEK_clean_linker_0, # of connection points: 2
#     Edge 47, Type (0, 1), BuildingBlock: EZIPEK_clean_linker_0, # of connection points: 2
#     Edge 48, Type (0, 1), BuildingBlock: EZIPEK_clean_linker_0, # of connection points: 2
#     Edge 49, Type (0, 1), BuildingBlock: EZIPEK_clean_linker_0, # of connection points: 2
#     Edge 50, Type (0, 1), BuildingBlock: EZIPEK_clean_linker_0, # of connection points: 2
#     Edge 51, Type (0, 1), BuildingBlock: EZIPEK_clean_linker_0, # of connection points: 2
#     Edge 52, Type (0, 1), BuildingBlock: EZIPEK_clean_linker_0, # of connection points: 2
#     Edge 53, Type (0, 1), BuildingBlock: EZIPEK_clean_linker_0, # of connection points: 2
#     Edge 54, Type (0, 1), BuildingBlock: EZIPEK_clean_linker_0, # of connection points: 2
#     Edge 55, Type (0, 1), BuildingBlock: EZIPEK_clean_linker_0, # of connection points: 2
#     Edge 56, Type (0, 1), BuildingBlock: EZIPEK_clean_linker_0, # of connection points: 2
#     Edge 57, Type (0, 1), BuildingBlock: EZIPEK_clean_linker_0, # of connection points: 2
#     Edge 58, Type (0, 1), BuildingBlock: EZIPEK_clean_linker_0, # of connection points: 2
#     Edge 59, Type (0, 1), BuildingBlock: EZIPEK_clean_linker_0, # of connection points: 2
#     Edge 60, Type (0, 1), BuildingBlock: EZIPEK_clean_linker_0, # of connection points: 2
#     Edge 61, Type (0, 1), BuildingBlock: EZIPEK_clean_linker_0, # of connection points: 2
#     Edge 62, Type (0, 1), BuildingBlock: EZIPEK_clean_linker_0, # of connection points: 2
#     Edge 63, Type (0, 1), BuildingBlock: EZIPEK_clean_linker_0, # of connection points: 2
#     Edge 64, Type (0, 1), BuildingBlock: EZIPEK_clean_linker_0, # of connection points: 2
#     Edge 65, Type (0, 1), BuildingBlock: EZIPEK_clean_linker_0, # of connection points: 2
#     Edge 66, Type (0, 1), BuildingBlock: EZIPEK_clean_linker_0, # of connection points: 2
#     Edge 67, Type (0, 1), BuildingBlock: EZIPEK_clean_linker_0, # of connection points: 2
# Relax obj value: 0.328
# Max RMSD: 0.255
# Mean RMSD: 0.153
data_MOF--net-myd--node1-NAWXER_clean_sbu_0--node2-FUNLAD_clean_sbu_0--edge1-EZIPEK_clean_linker_0
_symmetry_space_group_name_H-M    P1
_symmetry_Int_Tables_number       1
_symmetry_cell_setting            triclinic
loop_
_symmetry_equiv_pos_as_xyz
'x, y, z'
_cell_length_a     33.698358
_cell_length_b     33.459749
_cell_length_c     38.262379
_cell_angle_alpha  81.465973
_cell_angle_beta   80.817826
_cell_angle_gamma 87.898458
loop_
_atom_site_label
_atom_site_type_symbol
_atom_site_fract_x
_atom_site_fract_y
_atom_site_fract_z
_atom_type_partial_charge
C0 C 0.05333 0.22899 0.31428 0.0
C1 C 0.03712 0.32688 0.39736 0.0
O2 O 0.08182 0.248 0.32259 0.0
Zn3 Zn 0.04708 0.27331 0.35843 0.0
O4 O 0.01694 0.23322 0.32906 0.0
Zn5 Zn 0.98384 0.2649 0.36959 0.0
O6 O 0.94823 0.295 0.33984 0.0
O7 O 0.01262 0.30977 0.3227 0.0
O8 O 1.00343 0.31179 0.39492 0.0
O9 O 0.06962 0.31106 0.38372 0.0
O10 O 0.03005 0.21853 0.39261 0.0
O11 O 0.96395 0.21792 0.40427 0.0
C12 C 0.9759 0.31413 0.31774 0.0
C13 C 0.99752 0.19957 0.4057 0.0
C14 C 0.07218 0.76692 0.20866 0.0
C15 C 0.03716 0.68026 0.12761 0.0
O16 O 0.09675 0.74615 0.18945 0.0
Zn17 Zn 0.05496 0.72437 0.16921 0.0
O18 O 0.03423 0.7655 0.2089 0.0
Zn19 Zn 0.99309 0.73741 0.1825 0.0
O20 O 0.96151 0.70613 0.22449 0.0
O21 O 0.02522 0.68685 0.21725 0.0
O22 O 1.00569 0.69628 0.14396 0.0
O23 O 0.07148 0.68908 0.13349 0.0
O24 O 0.03564 0.78219 0.14268 0.0
O25 O 0.9702 0.78697 0.15831 0.0
C26 C 0.98965 0.68366 0.23537 0.0
C27 C 1.00306 0.80326 0.14255 0.0
C28 C 0.38054 0.9977 0.17023 0.0
C29 C 0.28325 0.98956 0.28529 0.0
O30 O 0.37448 0.96646 0.19382 0.0
Zn31 Zn 0.3345 0.99051 0.23026 0.0
O32 O 0.36327 0.03093 0.17705 0.0
Zn33 Zn 0.32196 0.05379 0.21753 0.0
O34 O 0.35344 0.09141 0.23758 0.0
O35 O 0.36767 0.02775 0.25522 0.0
O36 O 0.28598 0.02432 0.26576 0.0
O37 O 0.30588 0.96073 0.27489 0.0
O38 O 0.2855 1.00488 0.20061 0.0
O39 O 0.28073 0.0702 0.18715 0.0
C40 C 0.37175 0.06518 0.25713 0.0
C41 C 0.26849 0.03528 0.18447 0.0
C42 C 0.79827 0.52382 0.17151 0.0
C43 C 0.71666 0.54308 0.28594 0.0
O44 O 0.77333 0.49545 0.18441 0.0
Zn45 Zn 0.73023 0.47852 0.23065 0.0
O46 O 0.80067 0.55267 0.18925 0.0
Zn47 Zn 0.7576 0.53536 0.22891 0.0
O48 O 0.78289 0.48477 0.2597 0.0
O49 O 0.75159 0.42944 0.25474 0.0
O50 O 0.74095 0.56849 0.26628 0.0
O51 O 0.70976 0.50994 0.27513 0.0
O52 O 0.68341 0.4752 0.20954 0.0
O53 O 0.7051 0.53764 0.20361 0.0
C54 C 0.77739 0.44664 0.26808 0.0
C55 C 0.68058 0.5124 0.19708 0.0
C56 C 0.22232 0.3658 0.98308 0.0
C57 C 0.32233 0.25439 0.97798 0.0
O58 O 0.24031 0.35279 0.95508 0.0
Zn59 Zn 0.27602 0.31344 0.97798 0.0
O60 O 0.23283 0.3522 0.0135 0.0
Zn61 Zn 0.27537 0.30881 0.03444 0.0
O62 O 0.31853 0.33832 0.04899 0.0
O63 O 0.32207 0.34762 0.99055 0.0
O64 O 0.31057 0.26335 0.00934 0.0
O65 O 0.31003 0.2761 0.95139 0.0
O66 O 0.23388 0.27151 0.01136 0.0
O67 O 0.23826 0.27203 0.06834 0.0
C68 C 0.33677 0.35296 0.01826 0.0
C69 C 0.22222 0.25837 0.04452 0.0
C70 C 0.24734 0.77207 0.45819 0.0
C71 C 0.35405 0.676 0.49923 0.0
O72 O 0.27268 0.75467 0.43651 0.0
Zn73 Zn 0.30169 0.72427 0.4742 0.0
O74 O 0.25001 0.76603 0.49156 0.0
Zn75 Zn 0.28263 0.73209 0.52959 0.0
O76 O 0.30848 0.77472 0.54728 0.0
O77 O 0.32919 0.77368 0.48982 0.0
O78 O 0.32984 0.68943 0.52416 0.0
O79 O 0.34858 0.68659 0.46691 0.0
O80 O 0.25193 0.68834 0.50191 0.0
O81 O 0.23787 0.7011 0.55777 0.0
C82 C 0.33038 0.78925 0.5182 0.0
C83 C 0.22957 0.68343 0.53257 0.0
C84 C 0.70156 0.87842 0.48017 0.0
C85 C 0.79974 0.76329 0.46193 0.0
O86 O 0.71189 0.86425 0.4508 0.0
Zn87 Zn 0.75396 0.82405 0.46529 0.0
O88 O 0.72104 0.86607 0.50588 0.0
Zn89 Zn 0.76395 0.82048 0.52001 0.0
O90 O 0.81324 0.84797 0.5266 0.0
O91 O 0.80585 0.85727 0.46999 0.0
O92 O 0.79284 0.77429 0.49286 0.0
O93 O 0.78347 0.78367 0.43678 0.0
O94 O 0.71534 0.783 0.50285 0.0
O95 O 0.72858 0.78473 0.55725 0.0
C96 C 0.82693 0.86179 0.49417 0.0
C97 C 0.70806 0.77077 0.5365 0.0
C98 C 0.48686 0.81025 0.81783 0.0
C99 C 0.49736 0.69273 0.91015 0.0
O100 O 0.45681 0.79197 0.8376 0.0
Zn101 Zn 0.48684 0.75794 0.87149 0.0
O102 O 0.52202 0.80235 0.82544 0.0
Zn103 Zn 0.55241 0.76021 0.85883 0.0
O104 O 0.5791 0.73003 0.82011 0.0
O105 O 0.51367 0.72239 0.83378 0.0
O106 O 0.53083 0.70926 0.89579 0.0
O107 O 0.46463 0.71254 0.90753 0.0
O108 O 0.51234 0.80194 0.89556 0.0
O109 O 0.57852 0.79686 0.88331 0.0
C110 C 0.54691 0.71366 0.81556 0.0
C111 C 0.54722 0.81473 0.89727 0.0
C112 C 0.48782 0.18497 0.7354 0.0
C113 C 0.49796 0.30879 0.64437 0.0
O114 O 0.45857 0.20713 0.72614 0.0
Zn115 Zn 0.48847 0.24209 0.68501 0.0
O116 O 0.52303 0.19075 0.71713 0.0
Zn117 Zn 0.55164 0.23206 0.67173 0.0
O118 O 0.5905 0.25468 0.69559 0.0
O119 O 0.52659 0.26994 0.71392 0.0
O120 O 0.53091 0.28881 0.64615 0.0
O121 O 0.46531 0.29182 0.65994 0.0
O122 O 0.50316 0.20225 0.64585 0.0
O123 O 0.56913 0.19939 0.63365 0.0
C124 C 0.56397 0.27275 0.71556 0.0
C125 C 0.53512 0.1885 0.62838 0.0
C126 C 0.75569 0.54325 0.69605 0.0
C127 C 0.86629 0.54952 0.76833 0.0
O128 O 0.76754 0.57536 0.70538 0.0
Zn129 Zn 0.81075 0.55162 0.73085 0.0
O130 O 0.77117 0.50964 0.70798 0.0
Zn131 Zn 0.81944 0.48707 0.73487 0.0
O132 O 0.78996 0.4557 0.77932 0.0
O133 O 0.77452 0.52008 0.77558 0.0
O134 O 0.86091 0.51501 0.7594 0.0
O135 O 0.84557 0.57974 0.7565 0.0
O136 O 0.84918 0.53367 0.68558 0.0
O137 O 0.85277 0.46728 0.69241 0.0
C138 C 0.76994 0.4845 0.79275 0.0
C139 C 0.86084 0.50124 0.6727 0.0
C140 C 0.25891 0.02499 0.67905 0.0
C141 C 0.15483 0.04399 0.78159 0.0
O142 O 0.24162 0.99222 0.69499 0.0
Zn143 Zn 0.19917 0.97241 0.74254 0.0
O144 O 0.24955 0.05765 0.69185 0.0
Zn145 Zn 0.20759 0.0356 0.73052 0.0
O146 O 0.24175 1.00454 0.76929 0.0
O147 O 0.23023 0.93919 0.77378 0.0
O148 O 0.17395 0.07129 0.75924 0.0
O149 O 0.16274 1.00702 0.77791 0.0
O150 O 0.15919 0.94584 0.72529 0.0
O151 O 0.166 1.01029 0.70228 0.0
C152 C 0.24718 0.96799 0.7835 0.0
C153 C 0.15056 0.97557 0.70302 0.0
C154 C 0.77784 0.17767 0.96402 0.0
C155 C 0.86555 0.2846 0.9792 0.0
O156 O 0.77278 0.18627 0.99592 0.0
Zn157 Zn 0.7979 0.225 0.02582 0.0
O158 O 0.80704 0.1928 0.94118 0.0
Zn159 Zn 0.8255 0.22823 0.97113 0.0
O160 O 0.85671 0.18928 1.00723 0.0
O161 O 0.8229 0.18875 0.06162 0.0
O162 O 0.86601 0.26843 0.95107 0.0
O163 O 0.84179 0.27153 0.00792 0.0
O164 O 0.74915 0.25709 0.03817 0.0
O165 O 0.7726 0.2656 0.98095 0.0
C166 C 0.85295 0.17696 0.04085 0.0
C167 C 0.74611 0.27437 1.00663 0.0
C168 C 0.14543 0.02429 0.09792 0.0
N169 N 0.0896 0.04403 1.00368 0.0
C170 C 0.12759 0.04899 0.9852 0.0
C171 C 0.1348 0.04957 0.94811 0.0
C172 C 0.10242 0.04665 0.92972 0.0
C173 C 0.06366 0.04141 0.94935 0.0
C174 C 0.05805 0.03914 0.98651 0.0
Zn175 Zn 0.07813 0.0507 0.05707 0.0
C176 C 0.03925 0.97544 0.10299 0.0
N177 N 0.05548 0.06816 0.16595 0.0
C178 C 0.08986 0.07941 0.17629 0.0
C179 C 0.01883 0.07351 0.18571 0.0
C180 C 0.0158 0.094 0.21541 0.0
C181 C 0.05095 0.10826 0.22441 0.0
C182 C 0.08825 0.09891 0.20587 0.0
Zn183 Zn 0.0627 0.05668 0.11437 0.0
O184 O 0.13928 0.03021 0.06552 0.0
C185 C 0.10484 0.13017 0.06736 0.0
O186 O 0.11672 0.02908 0.12237 0.0
H187 H 0.99186 0.06503 0.17679 0.0
H188 H 0.15225 0.05372 0.99896 0.0
H189 H 0.11872 0.07732 0.15983 0.0
O190 O 0.10043 0.10945 0.04322 0.0
O191 O 0.09244 0.11503 0.09959 0.0
H192 H 0.02814 0.03457 1.0014 0.0
O193 O 1.00657 0.08506 0.10678 0.0
O194 O 0.01847 0.07426 0.05088 0.0
O195 O 0.03583 0.99768 0.12782 0.0
O196 O 0.0552 0.99034 0.07145 0.0
C197 C 0.99544 0.0878 0.07633 0.0
H198 H 0.16511 0.05373 0.93373 0.0
H199 H 0.038 0.03899 0.936 0.0
H200 H 0.98651 0.10137 0.22935 0.0
H201 H 0.11571 0.1102 0.21202 0.0
C202 C 0.91483 0.50338 0.05034 0.0
N203 N 0.98746 0.53111 0.94833 0.0
C204 C 0.9603 0.56202 0.94425 0.0
C205 C 0.9471 0.57356 0.91126 0.0
C206 C 0.96272 0.55377 0.8821 0.0
C207 C 0.99452 0.52594 0.88575 0.0
C208 C 1.00605 0.51449 0.91945 0.0
Zn209 Zn 0.99022 0.50008 0.99925 0.0
C210 C 0.01841 0.54803 0.04898 0.0
N211 N 0.99184 0.43142 0.10302 0.0
C212 C 1.00581 0.39301 0.1111 0.0
C213 C 0.97321 0.45221 0.12928 0.0
C214 C 0.96706 0.43443 0.16487 0.0
C215 C 0.9814 0.39522 0.17401 0.0
C216 C 1.00114 0.37428 0.1468 0.0
Zn217 Zn 0.99433 0.46113 0.05155 0.0
O218 O 0.92835 0.51994 0.01871 0.0
C219 C 0.96076 0.4152 1.00215 0.0
O220 O 0.93691 0.47849 0.06654 0.0
H221 H 0.96242 0.4827 0.12275 0.0
H222 H 0.94606 0.57531 0.96723 0.0
H223 H 0.0203 0.37688 0.08993 0.0
O224 O 0.96637 0.44931 0.98271 0.0
O225 O 0.97163 0.40965 0.03302 0.0
H226 H 0.02701 0.48956 0.92304 0.0
O227 O 0.05302 0.44295 0.03731 0.0
O228 O 0.05234 0.47661 0.98337 0.0
O229 O 0.01463 0.51355 0.06825 0.0
O230 O 0.0122 0.55181 0.01668 0.0
C231 C 0.07047 0.45285 1.00545 0.0
H232 H 0.92238 0.595 0.90943 0.0
H233 H 1.00683 0.50968 0.86392 0.0
H234 H 0.9516 0.4513 0.1852 0.0
H235 H 0.01246 0.34378 0.15313 0.0
C236 C 0.03999 0.02902 0.41545 0.0
N237 N 0.06651 0.9328 0.35107 0.0
C238 C 0.03237 0.92687 0.33779 0.0
C239 C 0.03427 0.90492 0.30907 0.0
C240 C 0.07167 0.88986 0.29432 0.0
C241 C 0.10639 0.89934 0.3064 0.0
C242 C 0.10309 0.92015 0.33526 0.0
Zn243 Zn 0.0674 0.94786 0.40075 0.0
C244 C 0.14911 0.97918 0.39915 0.0
N245 N 0.08118 0.96579 0.5045 0.0
C246 C 0.04828 0.97544 0.52755 0.0
C247 C 0.118 0.96031 0.51479 0.0
C248 C 0.12269 0.96383 0.54956 0.0
C249 C 0.08896 0.97165 0.5743 0.0
C250 C 0.05136 0.97767 0.56312 0.0
Zn251 Zn 0.07533 0.95484 0.455 0.0
O252 O 0.03968 1.0075 0.39046 0.0
C253 C 0.99303 0.92167 0.45321 0.0
O254 O 0.05359 0.01363 0.44356 0.0
H255 H 0.14361 0.95176 0.49649 0.0
H256 H 1.00353 0.93622 0.35112 0.0
H257 H 0.01936 0.98022 0.51875 0.0
O258 O 1.00907 0.92197 0.4207 0.0
O259 O 0.01369 0.93413 0.47449 0.0
H260 H 0.12985 0.92223 0.34683 0.0
O261 O 0.09683 0.8971 0.46791 0.0
O262 O 0.09859 0.88869 0.41278 0.0
O263 O 0.13901 0.97351 0.43308 0.0
O264 O 0.12284 0.97455 0.38022 0.0
C265 C 0.10723 0.87537 0.44369 0.0
H266 H 1.00688 0.89733 0.30024 0.0
H267 H 0.13545 0.88734 0.29585 0.0
H268 H 0.1521 0.95867 0.55758 0.0
H269 H 0.02475 0.98335 0.58179 0.0
C270 C 0.90283 0.61904 0.45357 0.0
N271 N 0.02449 0.59206 0.46981 0.0
C272 C 0.01646 0.61044 0.49969 0.0
C273 C 0.0477 0.62521 0.51398 0.0
C274 C 0.08747 0.62135 0.49715 0.0
C275 C 0.09496 0.60307 0.46599 0.0
C276 C 0.06283 0.58842 0.45274 0.0
Zn277 Zn 0.97826 0.56478 0.45369 0.0
C278 C 0.92686 0.51957 0.51953 0.0
N279 N 0.88078 0.50659 0.4244 0.0
C280 C 0.86474 0.52569 0.39586 0.0
C281 C 0.87602 0.46611 0.4353 0.0
C282 C 0.85689 0.44279 0.4156 0.0
C283 C 0.84321 0.46158 0.38444 0.0
C284 C 0.84639 0.50347 0.37507 0.0
Zn285 Zn 0.92457 0.53626 0.44116 0.0
O286 O 0.93973 0.61814 0.45793 0.0
C287 C 0.97456 0.58534 0.37634 0.0
O288 O 0.88715 0.58713 0.44785 0.0
H289 H 0.88965 0.45141 0.45768 0.0
H290 H 0.98583 0.61285 0.51297 0.0
H291 H 0.86903 0.55771 0.38742 0.0
O292 O 0.99773 0.58944 0.39877 0.0
O293 O 0.94364 0.56345 0.38661 0.0
H294 H 0.06858 0.57341 0.42924 0.0
O295 O 0.96165 0.48562 0.43364 0.0
O296 O 0.0149 0.51084 0.44801 0.0
O297 O 0.90585 0.51145 0.49658 0.0
O298 O 0.95791 0.54113 0.50883 0.0
C299 C 0.99792 0.48174 0.43849 0.0
H300 H 0.04097 0.63933 0.53799 0.0
H301 H 0.12538 0.59982 0.45233 0.0
H302 H 0.85479 0.41038 0.42337 0.0
H303 H 0.83674 0.51846 0.35074 0.0
C304 C 0.39341 0.01595 0.56616 0.0
N305 N 0.45376 0.0359 0.45698 0.0
C306 C 0.41617 0.03128 0.44933 0.0
C307 C 0.40726 0.04306 0.4148 0.0
C308 C 0.43708 0.06013 0.3874 0.0
C309 C 0.47523 0.06642 0.39609 0.0
C310 C 0.48309 0.05366 0.43117 0.0
Zn311 Zn 0.46374 1.00826 0.50787 0.0
C312 C 0.50075 0.06163 0.55084 0.0
N313 N 0.47751 0.94773 0.61228 0.0
C314 C 0.44678 0.92263 0.6282 0.0
C315 C 0.50672 0.95631 0.63074 0.0
C316 C 0.50587 0.93887 0.66642 0.0
C317 C 0.47478 0.91237 0.68291 0.0
C318 C 0.44495 0.90441 0.66352 0.0
Zn319 Zn 0.47378 0.97647 0.56166 0.0
O320 O 0.40322 0.02844 0.53275 0.0
C321 C 0.43238 0.92461 0.52074 0.0
O322 O 0.41853 0.99528 0.58253 0.0
H323 H 0.53068 0.97659 0.61784 0.0
H324 H 0.39316 0.0169 0.46975 0.0
H325 H 0.42333 0.91663 0.61364 0.0
O326 O 0.43642 0.95604 0.49761 0.0
O327 O 0.44747 0.92353 0.54927 0.0
H328 H 0.51289 0.05685 0.43744 0.0
O329 O 0.53118 0.9574 0.54136 0.0
O330 O 0.52435 0.98362 0.48653 0.0
O331 O 0.49741 0.02922 0.57301 0.0
O332 O 0.49071 0.06197 0.51993 0.0
C333 C 0.54542 0.96296 0.50821 0.0
H334 H 0.37747 0.03786 0.40929 0.0
H335 H 0.49899 0.07976 0.3757 0.0
H336 H 0.52988 0.94478 0.68062 0.0
H337 H 0.42108 0.88345 0.67532 0.0
C338 C 0.62674 0.53845 0.61149 0.0
N339 N 0.6058 0.54551 0.50241 0.0
C340 C 0.63035 0.51358 0.49509 0.0
C341 C 0.64961 0.51197 0.45997 0.0
C342 C 0.64321 0.54351 0.43274 0.0
C343 C 0.61786 0.57576 0.44106 0.0
C344 C 0.59948 0.57621 0.47612 0.0
Zn345 Zn 0.57703 0.55399 0.5521 0.0
C346 C 0.53153 0.48008 0.5931 0.0
N347 N 0.51757 0.57839 0.65218 0.0
C348 C 0.50763 0.61792 0.6531 0.0
C349 C 0.52464 0.55324 0.68204 0.0
C350 C 0.52723 0.56905 0.71334 0.0
C351 C 0.52287 0.61084 0.7131 0.0
C352 C 0.51083 0.63505 0.68333 0.0
Zn353 Zn 0.54368 0.56561 0.60402 0.0
O354 O 0.62997 0.53582 0.57811 0.0
C355 C 0.59577 0.63677 0.56451 0.0
O356 O 0.59282 0.54614 0.62838 0.0
H357 H 0.53285 0.52192 0.68046 0.0
H358 H 0.6352 0.48969 0.5164 0.0
H359 H 0.50199 0.63719 0.62904 0.0
O360 O 0.60173 0.6133 0.54109 0.0
O361 O 0.57046 0.62628 0.59253 0.0
H362 H 0.5804 0.60167 0.48231 0.0
O363 O 0.49258 0.58709 0.58041 0.0
O364 O 0.52366 0.57464 0.5283 0.0
O365 O 0.52106 0.50483 0.61536 0.0
O366 O 0.55379 0.49296 0.5636 0.0
C367 C 0.49253 0.58732 0.54719 0.0
H368 H 0.66925 0.48666 0.4541 0.0
H369 H 0.61255 0.60054 0.42058 0.0
H370 H 0.53533 0.54956 0.73644 0.0
H371 H 0.50616 0.66735 0.6828 0.0
C372 C 0.54018 0.5226 0.93178 0.0
N373 N 0.56129 0.41356 0.88253 0.0
C374 C 0.5279 0.41361 0.86661 0.0
C375 C 0.52845 0.39271 0.83726 0.0
C376 C 0.56375 0.37216 0.82456 0.0
C377 C 0.59767 0.37351 0.84086 0.0
C378 C 0.59564 0.39395 0.86999 0.0
Zn379 Zn 0.56602 0.43812 0.92792 0.0
C380 C 0.64825 0.47048 0.91691 0.0
N381 N 0.58751 0.47761 0.02269 0.0
C382 C 0.55792 0.49986 0.03978 0.0
C383 C 0.62282 0.46904 0.0352 0.0
C384 C 0.62932 0.48267 0.06633 0.0
C385 C 0.59938 0.5056 0.08442 0.0
C386 C 0.56343 0.51465 0.07087 0.0
Zn387 Zn 0.57899 0.45567 0.97817 0.0
O388 O 0.53935 0.49717 0.90996 0.0
C389 C 0.49655 0.42046 0.98552 0.0
O390 O 0.55493 0.51142 0.96012 0.0
H391 H 0.6459 0.45147 0.02108 0.0
H392 H 0.50077 0.42895 0.8771 0.0
H393 H 0.53003 0.50616 0.02929 0.0
O394 O 0.50961 0.41717 0.95304 0.0
O395 O 0.51903 0.43572 1.00379 0.0
H396 H 0.62169 0.39308 0.88308 0.0
O397 O 0.60288 0.40077 0.99785 0.0
O398 O 0.59472 0.38044 0.94823 0.0
O399 O 0.6407 0.47364 0.95023 0.0
O400 O 0.62086 0.45897 0.9021 0.0
C401 C 0.60726 0.37318 0.97831 0.0
H402 H 0.50166 0.3919 0.82509 0.0
H403 H 0.62519 0.35772 0.8318 0.0
H404 H 0.65757 0.47563 0.07617 0.0
H405 H 0.54008 0.53271 0.08421 0.0
C406 C 0.42826 0.11554 0.9578 0.0
N407 N 0.55157 0.07986 0.95423 0.0
C408 C 0.55736 0.10326 0.97916 0.0
C409 C 0.59586 0.11751 0.97973 0.0
C410 C 0.62828 0.10715 0.9546 0.0
C411 C 0.62156 0.08273 0.9296 0.0
C412 C 0.5828 0.06967 0.92968 0.0
Zn413 Zn 0.49676 0.05802 0.94961 0.0
C414 C 0.45061 0.01635 0.01872 0.0
N415 N 0.38845 1.00862 0.93202 0.0
C416 C 0.36438 0.03483 0.91397 0.0
C417 C 0.38259 0.96797 0.93678 0.0
C418 C 0.35478 0.95212 0.91924 0.0
C419 C 0.33281 0.97874 0.89752 0.0
C420 C 0.33588 0.0204 0.89672 0.0
Zn421 Zn 0.44058 0.03131 0.94076 0.0
O422 O 0.4661 0.11416 0.95803 0.0
C423 C 0.48222 0.07904 0.87258 0.0
O424 O 0.41063 0.08458 0.95277 0.0
H425 H 0.40188 0.94766 0.95142 0.0
H426 H 0.53216 0.11114 0.99831 0.0
H427 H 0.36974 0.06688 0.90984 0.0
O428 O 0.50836 0.08148 0.89278 0.0
O429 O 0.45114 0.05804 0.88512 0.0
H430 H 0.57769 0.05158 0.90971 0.0
O431 O 0.47104 0.97751 0.9287 0.0
O432 O 0.5262 1.00053 0.94139 0.0
O433 O 0.42923 1.00714 0.99646 0.0
O434 O 0.48233 0.03702 1.00688 0.0
C435 C 0.50766 0.97232 0.93227 0.0
H436 H 0.6003 0.13653 0.99931 0.0
H437 H 0.64597 0.07452 0.90977 0.0
H438 H 0.35297 0.91973 0.92009 0.0
H439 H 0.31934 0.04152 0.87989 0.0
C440 C 0.0329 0.13861 0.43194 0.0
C441 C 1.00098 0.15455 0.41392 0.0
C442 C 0.99066 0.08623 0.40013 0.0
C443 C 0.02691 0.07251 0.41266 0.0
N444 N 0.08823 0.09094 0.43148 0.0
N445 N 0.95528 0.14359 0.37306 0.0
C446 C 0.04958 0.10015 0.42622 0.0
C447 C 0.98111 0.12842 0.39602 0.0
N448 N 0.04777 0.16056 0.4542 0.0
N449 N 0.96459 0.05926 0.39308 0.0
H450 H 0.94779 0.17403 0.36768 0.0
H451 H 0.94413 0.12602 0.35656 0.0
H452 H 0.96961 0.02811 0.39684 0.0
H453 H 0.93605 0.06769 0.38715 0.0
H454 H 0.069 0.14892 0.4702 0.0
H455 H 0.03555 0.18859 0.45945 0.0
H456 H 0.10696 0.11161 0.43841 0.0
H457 H 0.10324 0.06482 0.42443 0.0
C458 C 0.0521 0.40147 0.38925 0.0
C459 C 0.03705 0.36576 0.4119 0.0
C460 C 1.00353 0.40684 0.4562 0.0
C461 C 0.01845 0.44245 0.43359 0.0
N462 N 0.06499 0.47332 0.38337 0.0
N463 N 1.00802 0.33378 0.4704 0.0
C464 C 0.04591 0.43952 0.40194 0.0
C465 C 0.01599 0.36831 0.44662 0.0
N466 N 0.06915 0.39976 0.35458 0.0
N467 N 0.97591 0.4099 0.48601 0.0
H468 H 0.01722 0.30525 0.46404 0.0
H469 H 0.99592 0.33368 0.49721 0.0
H470 H 0.96701 0.43756 0.49437 0.0
H471 H 0.96012 0.38541 0.5012 0.0
H472 H 0.07586 0.42531 0.33565 0.0
H473 H 0.07364 0.37302 0.34354 0.0
H474 H 0.08824 0.47253 0.36197 0.0
H475 H 0.06021 0.50174 0.39148 0.0
C476 C 0.03556 0.86128 0.09899 0.0
C477 C 1.00616 0.84794 0.12899 0.0
C478 C 0.99196 0.91952 0.13588 0.0
C479 C 0.02677 0.93174 0.11086 0.0
N480 N 0.08776 0.90978 0.07545 0.0
N481 N 0.96307 0.86663 0.18162 0.0
C482 C 0.05015 0.90148 0.09398 0.0
C483 C 0.98584 0.87761 0.14893 0.0
N484 N 0.04976 0.8356 0.07513 0.0
N485 N 0.96407 0.94757 0.14678 0.0
H486 H 0.95966 0.83696 0.19424 0.0
H487 H 0.95129 0.88769 0.19817 0.0
H488 H 0.96605 0.97817 0.13636 0.0
H489 H 0.93667 0.93958 0.16276 0.0
H490 H 0.06897 0.84495 0.05134 0.0
H491 H 0.03858 0.80654 0.07712 0.0
H492 H 0.10691 0.88752 0.06548 0.0
H493 H 0.10201 0.93717 0.07411 0.0
C494 C 1.00617 0.6156 0.12082 0.0
C495 C 0.03295 0.6475 0.10598 0.0
C496 C 0.05313 0.61325 0.05304 0.0
C497 C 0.02274 0.58415 0.06658 0.0
N498 N 0.96153 0.56734 0.10789 0.0
N499 N 0.0772 0.68042 0.05473 0.0
C500 C 0.99656 0.58829 0.09879 0.0
C501 C 0.0552 0.64746 0.07108 0.0
N502 N 0.99167 0.6096 0.15656 0.0
N503 N 0.08076 0.6076 0.0239 0.0
H504 H 0.07862 0.70621 0.06678 0.0
H505 H 0.09091 0.68363 0.02808 0.0
H506 H 0.08029 0.58282 0.01035 0.0
H507 H 0.10595 0.62565 0.01505 0.0
H508 H 0.97467 0.5845 0.16893 0.0
H509 H 1.00118 0.62654 0.17435 0.0
H510 H 0.94002 0.57206 0.12976 0.0
H511 H 0.95176 0.54924 0.09113 0.0
C512 C 0.3753 1.00757 0.10505 0.0
C513 C 0.39939 0.99556 0.13207 0.0
C514 C 0.45762 0.99113 0.08438 0.0
C515 C 0.43419 1.00915 0.0581 0.0
N516 N 0.37285 0.04527 0.04681 0.0
N517 N 0.465 0.97878 0.14755 0.0
C518 C 0.39361 0.0203 0.06938 0.0
C519 C 0.44108 0.98791 0.12178 0.0
N520 N 0.33448 1.00572 0.11327 0.0
N521 N 0.49506 0.97607 0.07368 0.0
H522 H 0.4535 0.97543 0.17479 0.0
H523 H 0.49623 0.97701 0.14192 0.0
H524 H 0.50762 0.97744 0.0468 0.0
H525 H 0.51214 0.95931 0.09123 0.0
H526 H 0.31541 0.01115 0.09408 0.0
H527 H 0.32042 0.99334 0.13853 0.0
H528 H 0.34445 0.05712 0.05514 0.0
H529 H 0.38574 0.05835 0.02131 0.0
C530 C 0.61343 0.50626 0.17982 0.0
C531 C 0.65147 0.52508 0.17222 0.0
C532 C 0.6385 0.5498 0.11165 0.0
C533 C 0.60781 0.52112 0.11654 0.0
N534 N 0.563 0.4736 0.15574 0.0
N535 N 0.70057 0.56622 0.12915 0.0
C536 C 0.59354 0.50053 0.15102 0.0
C537 C 0.6637 0.54851 0.13805 0.0
N538 N 0.59696 0.49342 0.21447 0.0
N539 N 0.64445 0.57692 0.08095 0.0
H540 H 0.72088 0.56723 0.14668 0.0
H541 H 0.71241 0.57824 0.10302 0.0
H542 H 0.62624 0.57765 0.06118 0.0
H543 H 0.66425 0.60096 0.07701 0.0
H544 H 0.56801 0.48199 0.22188 0.0
H545 H 0.61092 0.49832 0.23594 0.0
H546 H 0.55463 0.45413 0.17948 0.0
H547 H 0.54726 0.46947 0.13522 0.0
C548 C 0.43143 0.0531 0.28896 0.0
C549 C 0.39542 0.07546 0.28474 0.0
C550 C 0.39755 0.09929 0.34244 0.0
C551 C 0.42763 0.06981 0.34989 0.0
N552 N 0.4718 0.01624 0.33033 0.0
N553 N 0.34333 0.12019 0.30896 0.0
C554 C 0.44476 0.04653 0.32293 0.0
C555 C 0.37866 0.09943 0.3115 0.0
N556 N 0.45288 0.03805 0.26026 0.0
N557 N 0.38709 0.12724 0.36505 0.0
H558 H 0.32848 0.12226 0.28695 0.0
H559 H 0.32713 0.13336 0.32995 0.0
H560 H 0.4006 0.12794 0.38767 0.0
H561 H 0.36828 0.15198 0.35947 0.0
H562 H 0.48115 0.02445 0.26065 0.0
H563 H 0.44423 0.0433 0.23494 0.0
H564 H 0.4816 0.99532 0.31308 0.0
H565 H 0.48207 1.00983 0.35486 0.0
C566 C 0.72157 0.556 0.34853 0.0
C567 C 0.69769 0.54911 0.32253 0.0
C568 C 0.63961 0.53445 0.36965 0.0
C569 C 0.66272 0.54369 0.39519 0.0
N570 N 0.72273 0.57154 0.40833 0.0
N571 N 0.63192 0.54196 0.30716 0.0
C572 C 0.70281 0.55716 0.38441 0.0
C573 C 0.65603 0.54138 0.3328 0.0
N574 N 0.76237 0.55907 0.33969 0.0
N575 N 0.60229 0.51816 0.38071 0.0
H576 H 0.64275 0.54854 0.27985 0.0
H577 H 0.60071 0.54022 0.3129 0.0
H578 H 0.58924 0.51269 0.40756 0.0
H579 H 0.58579 0.50683 0.36364 0.0
H580 H 0.78126 0.5612 0.3583 0.0
H581 H 0.77802 0.55639 0.31438 0.0
H582 H 0.75009 0.58638 0.40107 0.0
H583 H 0.71038 0.57168 0.43511 0.0
C584 C 0.18233 0.43116 0.97283 0.0
C585 C 0.1834 0.38856 0.98253 0.0
C586 C 0.11003 0.38828 1.00056 0.0
C587 C 0.10914 0.43139 0.99407 0.0
N588 N 0.14433 0.49429 0.97602 0.0
N589 N 0.14887 0.32579 1.00323 0.0
C590 C 0.1452 0.45299 0.98013 0.0
C591 C 0.14729 0.367 0.99542 0.0
N592 N 0.21689 0.45055 0.95665 0.0
N593 N 0.07489 0.36746 0.01084 0.0
H594 H 0.17405 0.30888 0.99453 0.0
H595 H 0.12587 0.30813 0.01862 0.0
H596 H 0.04692 0.38128 0.01616 0.0
H597 H 0.07247 0.33638 0.01213 0.0
H598 H 0.21813 0.48099 0.94587 0.0
H599 H 0.24431 0.43526 0.95172 0.0
H600 H 0.16984 0.51211 0.9695 0.0
H601 H 0.11791 0.51105 0.98123 0.0
C602 C 0.18462 0.62436 0.53606 0.0
C603 C 0.18924 0.66656 0.53399 0.0
C604 C 0.12656 0.6792 0.50901 0.0
C605 C 0.12128 0.6369 0.51182 0.0
N606 N 0.14007 0.56917 0.53532 0.0
N607 N 0.16002 0.73366 0.52732 0.0
C608 C 0.1487 0.60941 0.52773 0.0
C609 C 0.15845 0.69375 0.52363 0.0
N610 N 0.21516 0.59878 0.54486 0.0
N611 N 0.10269 0.7055 0.49043 0.0
H612 H 0.18278 0.74534 0.53818 0.0
H613 H 0.1368 0.75432 0.52306 0.0
H614 H 0.07928 0.69615 0.47885 0.0
H615 H 0.10826 0.73631 0.4837 0.0
H616 H 0.21593 0.56809 0.54272 0.0
H617 H 0.24079 0.60892 0.55283 0.0
H618 H 0.15695 0.5481 0.54983 0.0
H619 H 0.11396 0.55732 0.52972 0.0
C620 C 0.88141 0.91185 0.49822 0.0
C621 C 0.86917 0.87844 0.48347 0.0
C622 C 0.93958 0.87009 0.45482 0.0
C623 C 0.9508 0.90616 0.46576 0.0
N624 N 0.92933 0.96596 0.49241 0.0
N625 N 0.887 0.8329 0.43908 0.0
C626 C 0.92096 0.92819 0.48626 0.0
C627 C 0.89823 0.8599 0.45906 0.0
N628 N 0.85505 0.9288 0.52301 0.0
N629 N 0.96861 0.84408 0.44186 0.0
H630 H 0.85785 0.82309 0.44078 0.0
H631 H 0.90654 0.82269 0.41817 0.0
H632 H 0.99929 0.84903 0.44013 0.0
H633 H 0.96224 0.81531 0.43704 0.0
H634 H 0.86359 0.94976 0.53791 0.0
H635 H 0.82507 0.92029 0.53017 0.0
H636 H 0.90771 0.9852 0.50385 0.0
H637 H 0.95689 0.97986 0.48286 0.0
C638 C 0.4177 0.671 0.52716 0.0
C639 C 0.39099 0.65297 0.50869 0.0
C640 C 0.43221 0.59021 0.51397 0.0
C641 C 0.45969 0.60974 0.53017 0.0
N642 N 0.4853 0.67234 0.54038 0.0
N643 N 0.37566 0.5964 0.4809 0.0
C644 C 0.45439 0.6512 0.53313 0.0
C645 C 0.39941 0.61296 0.5006 0.0
N646 N 0.40808 0.70655 0.54024 0.0
N647 N 0.4365 0.54967 0.51273 0.0
H648 H 0.35009 0.61097 0.47276 0.0
H649 H 0.38247 0.56924 0.47093 0.0
H650 H 0.46041 0.53268 0.52177 0.0
H651 H 0.41531 0.53244 0.50486 0.0
H652 H 0.42439 0.71769 0.5576 0.0
H653 H 0.38233 0.72357 0.53666 0.0
H654 H 0.48476 0.70369 0.53912 0.0
H655 H 0.51332 0.65911 0.5432 0.0
C656 C 0.53125 0.63412 0.94097 0.0
C657 C 0.49914 0.64814 0.92253 0.0
C658 C 0.48964 0.57779 0.91301 0.0
C659 C 0.52651 0.56597 0.92539 0.0
N660 N 0.58785 0.58822 0.94161 0.0
N661 N 0.45156 0.63267 0.88505 0.0
C662 C 0.54878 0.59565 0.93684 0.0
C663 C 0.47901 0.61982 0.90709 0.0
N664 N 0.54581 0.65817 0.96175 0.0
N665 N 0.46401 0.54927 0.90791 0.0
H666 H 0.44218 0.66258 0.87972 0.0
H667 H 0.44021 0.61367 0.86985 0.0
H668 H 0.46995 0.51835 0.9128 0.0
H669 H 0.4351 0.55634 0.90227 0.0
H670 H 0.56735 0.64814 0.97795 0.0
H671 H 0.53303 0.68641 0.96561 0.0
H672 H 0.60613 0.61017 0.94722 0.0
H673 H 0.60349 0.56214 0.93529 0.0
C674 C 0.56019 0.88955 0.88388 0.0
C675 C 0.54924 0.85475 0.90953 0.0
C676 C 0.51785 0.89833 0.95288 0.0
C677 C 0.52757 0.93284 0.92682 0.0
N678 N 0.56643 0.96263 0.87142 0.0
N679 N 0.52669 0.82596 0.97043 0.0
C680 C 0.5519 0.92882 0.89373 0.0
C681 C 0.5311 0.85927 0.9448 0.0
N682 N 0.57545 0.88527 0.84929 0.0
N683 N 0.49483 0.90292 0.9849 0.0
H684 H 0.53662 0.79728 0.96495 0.0
H685 H 0.5166 0.82705 0.99743 0.0
H686 H 0.48658 0.93121 0.99233 0.0
H687 H 0.48257 0.87894 1.00352 0.0
H688 H 0.57869 0.90923 0.82836 0.0
H689 H 0.58272 0.85742 0.84074 0.0
H690 H 0.58772 0.96179 0.8486 0.0
H691 H 0.5598 0.9918 0.87738 0.0
C692 C 0.47619 0.38403 0.64127 0.0
C693 C 0.50026 0.35252 0.62686 0.0
C694 C 0.54577 0.40448 0.59112 0.0
C695 C 0.51956 0.4361 0.60249 0.0
N696 N 0.45219 0.45302 0.62912 0.0
N697 N 0.54936 0.33597 0.57769 0.0
C698 C 0.48233 0.42498 0.6246 0.0
C699 C 0.53209 0.36387 0.59828 0.0
N700 N 0.44924 0.37609 0.67203 0.0
N701 N 0.58478 0.41201 0.57596 0.0
H702 H 0.53858 0.30661 0.58067 0.0
H703 H 0.57079 0.34363 0.555 0.0
H704 H 0.59826 0.43993 0.57385 0.0
H705 H 0.60532 0.38897 0.57002 0.0
H706 H 0.43434 0.39899 0.68493 0.0
H707 H 0.44474 0.34757 0.68689 0.0
H708 H 0.42353 0.44546 0.64279 0.0
H709 H 0.45414 0.48239 0.61537 0.0
C710 C 0.5036 0.16687 0.57875 0.0
C711 C 0.53165 0.15909 0.60312 0.0
C712 C 0.54868 0.09422 0.58124 0.0
C713 C 0.51506 0.09839 0.56281 0.0
N714 N 0.45699 0.13804 0.54774 0.0
N715 N 0.57685 0.11127 0.63124 0.0
C716 C 0.4918 0.13477 0.56208 0.0
C717 C 0.5536 0.12189 0.60506 0.0
N718 N 0.48869 0.20512 0.571 0.0
N719 N 0.57599 0.06365 0.57596 0.0
H720 H 0.57983 0.12919 0.65068 0.0
H721 H 0.58987 0.08264 0.63597 0.0
H722 H 0.57372 0.04352 0.55799 0.0
H723 H 0.60294 0.06118 0.58627 0.0
H724 H 0.47098 0.21326 0.55103 0.0
H725 H 0.49771 0.22962 0.58169 0.0
H726 H 0.43667 0.16202 0.5505 0.0
H727 H 0.44653 0.11542 0.53572 0.0
C728 C 0.85903 0.52993 0.60726 0.0
C729 C 0.87836 0.50448 0.6333 0.0
C730 C 0.92901 0.48593 0.58365 0.0
C731 C 0.91035 0.51297 0.55859 0.0
N732 N 0.86369 0.56807 0.5481 0.0
N733 N 0.93589 0.46323 0.64599 0.0
C734 C 0.87714 0.53689 0.57089 0.0
C735 C 0.91439 0.48352 0.62134 0.0
N736 N 0.82208 0.54655 0.61659 0.0
N737 N 0.96068 0.46248 0.57137 0.0
H738 H 0.92678 0.46178 0.67349 0.0
H739 H 0.96431 0.45063 0.63947 0.0
H740 H 0.97349 0.4655 0.54448 0.0
H741 H 0.9729 0.43875 0.58728 0.0
H742 H 0.80389 0.55939 0.59816 0.0
H743 H 0.80788 0.54458 0.64255 0.0
H744 H 0.84375 0.59046 0.55669 0.0
H745 H 0.87513 0.57413 0.52098 0.0
C746 C 0.09977 1.00179 0.66418 0.0
C747 C 0.12598 0.96996 0.67543 0.0
C748 C 0.10996 0.93353 0.62894 0.0
C749 C 0.09359 0.96951 0.61228 0.0
N750 N 0.07465 0.03981 0.61331 0.0
N751 N 0.16142 0.90745 0.66303 0.0
C752 C 0.08823 1.00414 0.6299 0.0
C753 C 0.13204 0.93575 0.65694 0.0
N754 N 0.0859 0.02952 0.68622 0.0
N755 N 0.10576 0.89766 0.617 0.0
H756 H 0.18196 0.90918 0.6803 0.0
H757 H 0.16868 0.88446 0.64737 0.0
H758 H 0.08937 0.89532 0.59643 0.0
H759 H 0.11473 0.87004 0.63011 0.0
H760 H 0.06437 0.05155 0.6802 0.0
H761 H 0.09246 0.02744 0.71219 0.0
H762 H 0.07447 0.06686 0.62379 0.0
H763 H 0.06657 0.04313 0.58786 0.0
C764 C 0.92148 0.58169 0.79322 0.0
C765 C 0.89171 0.55155 0.79705 0.0
C766 C 0.91153 0.52184 0.85493 0.0
C767 C 0.93898 0.5536 0.8523 0.0
N768 N 0.96725 0.61649 0.82149 0.0
N769 N 0.85377 0.4972 0.83595 0.0
C770 C 0.94304 0.58444 0.8222 0.0
C771 C 0.88575 0.52265 0.82895 0.0
N772 N 0.9306 0.60634 0.76129 0.0
N773 N 0.90993 0.49035 0.88246 0.0
H774 H 0.83409 0.49518 0.81826 0.0
H775 H 0.8442 0.4805 0.86091 0.0
H776 H 0.92469 0.48992 0.90445 0.0
H777 H 0.89583 0.46315 0.88248 0.0
H778 H 0.9546 0.62621 0.75541 0.0
H779 H 0.91628 0.6045 0.73937 0.0
H780 H 0.96838 0.64222 0.80238 0.0
H781 H 0.98434 0.6185 0.84162 0.0
C782 C 0.10528 0.02025 0.836 0.0
C783 C 0.128 0.05259 0.815 0.0
C784 C 0.12333 0.08652 0.86827 0.0
C785 C 0.10886 0.04992 0.88992 0.0
N786 N 0.0854 0.98149 0.89357 0.0
N787 N 0.14124 0.12367 0.80824 0.0
C788 C 0.09919 0.01695 0.87355 0.0
C789 C 0.13202 0.08813 0.83022 0.0
N790 N 0.08879 0.99203 0.82063 0.0
N791 N 0.12857 0.11953 0.8842 0.0
H792 H 0.14117 0.12669 0.78076 0.0
H793 H 0.14412 0.15122 0.817 0.0
H794 H 0.11887 0.12064 0.91132 0.0
H795 H 0.14298 0.14573 0.87102 0.0
H796 H 0.08912 0.99404 0.79308 0.0
H797 H 0.08912 0.99404 0.79308 0.0
H798 H 0.07846 0.95681 0.88195 0.0
H799 H 0.08308 0.97583 0.92134 0.0
C800 C 0.65337 0.93698 0.46193 0.0
C801 C 0.66328 0.90353 0.48709 0.0
C802 C 0.59362 0.90484 0.51771 0.0
C803 C 0.58493 0.94177 0.49667 0.0
N804 N 0.61093 0.99672 0.45133 0.0
N805 N 0.64338 0.86871 0.54816 0.0
C806 C 0.61592 0.95888 0.46918 0.0
C807 C 0.63392 0.89162 0.51786 0.0
N808 N 0.6801 0.94891 0.43175 0.0
N809 N 0.5633 0.88114 0.53716 0.0
H810 H 0.6719 0.85851 0.55221 0.0
H811 H 0.62246 0.86317 0.57153 0.0
H812 H 0.53304 0.88763 0.53598 0.0
H813 H 0.56856 0.85251 0.55076 0.0
H814 H 0.67279 0.96967 0.41055 0.0
H815 H 0.70911 0.9368 0.42733 0.0
H816 H 0.63394 0.01231 0.43375 0.0
H817 H 0.58498 0.01412 0.45638 0.0
C818 C 0.71899 0.17609 0.93139 0.0
C819 C 0.74533 0.15527 0.95375 0.0
C820 C 0.69579 0.10166 0.97514 0.0
C821 C 0.66922 0.12286 0.95339 0.0
N822 N 0.65803 0.17515 0.90523 0.0
N823 N 0.76367 0.09441 0.98954 0.0
C824 C 0.68178 0.15835 0.92956 0.0
C825 C 0.73516 0.11671 0.97328 0.0
N826 N 0.72821 0.21398 0.9137 0.0
N827 N 0.68297 0.06775 0.99821 0.0
H828 H 0.79296 0.10464 0.98747 0.0
H829 H 0.75974 0.06467 1.00197 0.0
H830 H 0.65483 0.05516 0.99939 0.0
H831 H 0.69911 0.05332 0.0176 0.0
H832 H 0.70801 0.23282 0.90094 0.0
H833 H 0.75551 0.22781 0.91311 0.0
H834 H 0.66747 0.19796 0.88424 0.0
H835 H 0.62961 0.16438 0.90433 0.0
C836 C 0.38514 0.40654 0.02655 0.0
C837 C 0.37813 0.37015 0.01344 0.0
C838 C 0.45083 0.36252 0.99505 0.0
C839 C 0.45708 0.40193 1.00173 0.0
N840 N 0.42956 0.46356 0.02185 0.0
N841 N 0.40581 0.3194 0.97639 0.0
C842 C 0.42417 0.42447 0.01747 0.0
C843 C 0.41133 0.34975 0.99526 0.0
N844 N 0.35446 0.42454 0.0467 0.0
N845 N 0.48289 0.33696 0.98852 0.0
H846 H 0.37793 0.30905 0.97413 0.0
H847 H 0.42918 0.3071 0.95978 0.0
H848 H 0.51236 0.34502 0.98924 0.0
H849 H 0.47963 0.30651 0.98665 0.0
H850 H 0.35861 0.44873 0.05995 0.0
H851 H 0.3252 0.41361 0.05201 0.0
H852 H 0.40596 0.48302 0.0294 0.0
H853 H 0.45753 0.47738 0.01569 0.0
C854 C 0.89014 0.1107 0.05227 0.0
C855 C 0.88632 0.15258 0.05499 0.0
C856 C 0.95414 0.15198 0.07109 0.0
C857 C 0.95739 0.10972 0.06981 0.0
N858 N 0.9266 0.04741 0.06487 0.0
N859 N 0.91144 0.21199 0.07237 0.0
C860 C 0.92481 0.08864 0.06198 0.0
C861 C 0.91727 0.17277 0.06632 0.0
N862 N 0.86087 0.09226 0.03972 0.0
N863 N 0.98711 0.17274 0.07478 0.0
H864 H 0.88539 0.22858 0.06811 0.0
H865 H 0.93086 0.22719 0.08429 0.0
H866 H 0.01479 0.15884 0.07779 0.0
H867 H 0.98827 0.20412 0.07183 0.0
H868 H 0.86374 0.06321 0.03287 0.0
H869 H 0.83415 0.10695 0.03452 0.0
H870 H 0.90246 0.0297 0.06306 0.0
H871 H 0.95151 0.03045 0.07181 0.0
C872 C 0.04889 0.21093 0.25485 0.0
C873 C 0.06048 0.19987 0.28897 0.0
C874 C 0.05926 0.12817 0.283 0.0
C875 C 0.04975 0.1393 0.2481 0.0
N876 N 0.04078 0.19072 0.19832 0.0
N877 N 0.0817 0.14966 0.33442 0.0
C878 C 0.04596 0.18056 0.23331 0.0
C879 C 0.06743 0.15891 0.30263 0.0
N880 N 0.03944 0.2504 0.24366 0.0
N881 N 0.05931 0.08827 0.29753 0.0
H882 H 0.08781 0.17171 0.34939 0.0
H883 H 0.09052 0.12074 0.3447 0.0
H884 H 0.0532 0.06519 0.28364 0.0
H885 H 0.06221 0.07806 0.32406 0.0
H886 H 0.02536 0.25979 0.22146 0.0
H887 H 0.04394 0.27384 0.25777 0.0
H888 H 0.04233 0.22018 0.18492 0.0
H889 H 0.03724 0.16947 0.18173 0.0
C890 C 0.98635 0.37673 0.27394 0.0
C891 C 0.96805 0.33842 0.28387 0.0
C892 C 0.95078 0.34223 0.22361 0.0
C893 C 0.97561 0.37649 0.21217 0.0
N894 N 0.02153 0.42369 0.22586 0.0
N895 N 0.93778 0.28149 0.26607 0.0
C896 C 0.99436 0.39334 0.23724 0.0
C897 C 0.95101 0.32042 0.25836 0.0
N898 N 0.99612 0.39713 0.29973 0.0
N899 N 0.92653 0.33083 0.20151 0.0
H900 H 0.93784 0.26364 0.29076 0.0
H901 H 0.9299 0.26565 0.24677 0.0
H902 H 0.92516 0.34641 0.176 0.0
H903 H 0.90493 0.30848 0.20991 0.0
H904 H 1.0063 0.42677 0.29448 0.0
H905 H 0.98974 0.38591 0.32696 0.0
H906 H 0.03904 0.43419 0.24261 0.0
H907 H 0.0295 0.43579 0.19903 0.0
C908 C 0.08712 0.83776 0.21169 0.0
C909 C 0.08581 0.79687 0.2281 0.0
C910 C 0.07535 0.81709 0.28741 0.0
C911 C 0.07497 0.85818 0.27116 0.0
N912 N 0.08814 0.9086 0.21888 0.0
N913 N 0.08975 0.74704 0.27925 0.0
C914 C 0.08341 0.86888 0.23351 0.0
C915 C 0.08375 0.78643 0.26535 0.0
N916 N 0.09021 0.84648 0.17532 0.0
N917 N 0.06648 0.80748 0.32381 0.0
H918 H 0.09607 0.72441 0.263 0.0
H919 H 0.09189 0.73731 0.30601 0.0
H920 H 0.06051 0.8291 0.34104 0.0
H921 H 0.06244 0.77808 0.33704 0.0
H922 H 0.08636 0.87529 0.16165 0.0
H923 H 0.09587 0.82418 0.15871 0.0
H924 H 0.0982 0.91829 0.1919 0.0
H925 H 0.084 0.93217 0.23421 0.0
C926 C 0.97454 0.61713 0.2759 0.0
C927 C 0.98339 0.65883 0.2717 0.0
C928 C 0.98244 0.65321 0.3367 0.0
C929 C 0.97975 0.61035 0.34002 0.0
N930 N 0.9788 0.55103 0.31121 0.0
N931 N 0.9991 0.71637 0.29796 0.0
C932 C 0.97734 0.59216 0.30912 0.0
C933 C 0.98851 0.67672 0.30206 0.0
N934 N 0.96152 0.60176 0.24871 0.0
N935 N 0.97638 0.672 0.36656 0.0
H936 H 1.00135 0.73537 0.27357 0.0
H937 H 1.00811 0.72972 0.31829 0.0
H938 H 0.9699 0.65662 0.39246 0.0
H939 H 0.97344 0.70322 0.36561 0.0
H940 H 0.95145 0.57228 0.25101 0.0
H941 H 0.95605 0.6202 0.22549 0.0
H942 H 0.98092 0.53617 0.28889 0.0
H943 H 0.98189 0.53184 0.33477 0.0
C944 C 0.21982 0.0641 0.14219 0.0
C945 C 0.238 0.02937 0.16012 0.0
C946 C 0.19846 0.98781 0.12954 0.0
C947 C 0.18595 0.02291 0.10869 0.0
N948 N 0.1964 0.09337 0.08741 0.0
N949 N 0.24826 0.95531 0.16264 0.0
C950 C 0.20156 0.06045 0.11192 0.0
C951 C 0.22874 0.99031 0.1514 0.0
N952 N 0.21582 0.09979 0.15578 0.0
N953 N 0.18037 0.95194 0.12946 0.0
H954 H 0.26953 0.95172 0.17957 0.0
H955 H 0.24535 0.92865 0.15226 0.0
H956 H 0.16004 0.9488 0.11213 0.0
H957 H 0.18378 0.92631 0.14795 0.0
H958 H 0.2007 0.12481 0.14416 0.0
H959 H 0.22071 0.10232 0.18155 0.0
H960 H 0.2091 0.12126 0.08775 0.0
H961 H 0.18358 0.09099 0.06473 0.0
C962 C 0.83413 0.55514 0.10999 0.0
C963 C 0.82485 0.52088 0.13676 0.0
C964 C 0.85711 0.47768 0.09416 0.0
C965 C 0.87496 0.51163 0.07129 0.0
N966 N 0.88096 0.58419 0.0583 0.0
N967 N 0.83862 0.45004 0.15593 0.0
C968 C 0.86322 0.55097 0.07908 0.0
C969 C 0.83895 0.48213 0.1292 0.0
N970 N 0.81456 0.59116 0.11329 0.0
N971 N 0.86037 0.44052 0.08328 0.0
H972 H 0.8305 0.45267 0.18295 0.0
H973 H 0.85182 0.42213 0.15167 0.0
H974 H 0.87487 0.43628 0.05792 0.0
H975 H 0.84548 0.41525 0.09817 0.0
H976 H 0.81783 0.61584 0.093 0.0
H977 H 0.79196 0.59509 0.13453 0.0
H978 H 0.87732 0.61308 0.06555 0.0
H979 H 0.90074 0.58257 0.03468 0.0
C980 C 0.24655 0.01748 0.34037 0.0
C981 C 0.25428 0.98452 0.32011 0.0
C982 C 0.20685 0.94484 0.36639 0.0
C983 C 0.19177 0.98019 0.38047 0.0
N984 N 0.19743 0.05147 0.38016 0.0
N985 N 0.23458 0.9175 0.3128 0.0
C986 C 0.21182 0.01697 0.36737 0.0
C987 C 0.23291 0.94805 0.33305 0.0
N988 N 0.27322 0.04832 0.33515 0.0
N989 N 0.19573 0.90806 0.38495 0.0
H990 H 0.25001 0.91938 0.28682 0.0
H991 H 0.21644 0.89211 0.32032 0.0
H992 H 0.17886 0.90587 0.41039 0.0
H993 H 0.20759 0.88086 0.37734 0.0
H994 H 0.27035 0.07148 0.35087 0.0
H995 H 0.3008 0.04778 0.31843 0.0
H996 H 0.20814 0.08007 0.36879 0.0
H997 H 0.17349 0.05118 0.40117 0.0
C998 C 0.76908 0.42446 0.3331 0.0
C999 C 0.79434 0.42657 0.29955 0.0
C1000 C 0.85332 0.4297 0.32876 0.0
C1001 C 0.82731 0.43831 0.3598 0.0
N1002 N 0.76086 0.44086 0.39356 0.0
N1003 N 0.86006 0.42322 0.26543 0.0
C1004 C 0.78528 0.43361 0.36297 0.0
C1005 C 0.83656 0.4256 0.29764 0.0
N1006 N 0.72945 0.41531 0.33582 0.0
N1007 N 0.89383 0.42717 0.32893 0.0
H1008 H 0.84755 0.41862 0.24308 0.0
H1009 H 0.89117 0.42601 0.26063 0.0
H1010 H 0.90642 0.4302 0.3516 0.0
H1011 H 0.91458 0.41943 0.30778 0.0
H1012 H 0.70984 0.41091 0.35996 0.0
H1013 H 0.71724 0.408 0.31425 0.0
H1014 H 0.72969 0.44334 0.39596 0.0
H1015 H 0.77218 0.44616 0.41628 0.0
C1016 C 0.15509 0.22911 0.07697 0.0
C1017 C 0.19173 0.22558 0.05333 0.0
C1018 C 0.16304 0.17067 0.03029 0.0
C1019 C 0.12987 0.16797 0.05868 0.0
N1020 N 0.09305 0.19782 0.10823 0.0
N1021 N 0.23375 0.18459 0.01503 0.0
C1022 C 0.1257 0.19799 0.08203 0.0
C1023 C 0.19666 0.19366 0.03247 0.0
N1024 N 0.14722 0.26308 0.09291 0.0
N1025 N 0.16233 0.15338 1.00023 0.0
H1026 H 0.25971 0.19913 0.01771 0.0
H1027 H 0.23914 0.15938 1.00177 0.0
H1028 H 0.13627 0.14275 0.99365 0.0
H1029 H 0.18575 0.15653 0.97866 0.0
H1030 H 0.11933 0.26952 0.10719 0.0
H1031 H 0.16752 0.28663 0.08941 0.0
H1032 H 0.09131 0.21489 0.12908 0.0
H1033 H 0.06783 0.18032 0.10925 0.0
C1034 C 0.18462 0.78867 0.42757 0.0
C1035 C 0.21384 0.79974 0.4475 0.0
C1036 C 0.16478 0.84603 0.47413 0.0
C1037 C 0.1384 0.84219 0.44933 0.0
N1038 N 0.12361 0.80734 0.40206 0.0
N1039 N 0.23448 0.85019 0.47957 0.0
C1040 C 0.14866 0.81301 0.42554 0.0
C1041 C 0.20486 0.83252 0.46694 0.0
N1042 N 0.18975 0.75405 0.41242 0.0
N1043 N 0.15156 0.8599 0.50582 0.0
H1044 H 0.26472 0.84196 0.47347 0.0
H1045 H 0.22909 0.87575 0.49239 0.0
H1046 H 0.12113 0.86246 0.51598 0.0
H1047 H 0.17044 0.86166 0.52465 0.0
H1048 H 0.16742 0.74215 0.4012 0.0
H1049 H 0.21532 0.73571 0.41318 0.0
H1050 H 0.13181 0.79051 0.38114 0.0
H1051 H 0.09474 0.81993 0.40341 0.0
C1052 C 0.82344 0.70025 0.43304 0.0
C1053 C 0.82823 0.72798 0.45687 0.0
C1054 C 0.87944 0.68184 0.48094 0.0
C1055 C 0.8782 0.65716 0.45417 0.0
N1056 N 0.85701 0.65105 0.39772 0.0
N1057 N 0.87186 0.74924 0.49569 0.0
C1058 C 0.85262 0.6688 0.42805 0.0
C1059 C 0.85955 0.72007 0.47844 0.0
N1060 N 0.79019 0.70197 0.41659 0.0
N1061 N 0.89807 0.66845 0.50981 0.0
H1062 H 0.86053 0.77861 0.49373 0.0
H1063 H 0.8971 0.74559 0.50852 0.0
H1064 H 0.91161 0.64001 0.51383 0.0
H1065 H 0.89599 0.68389 0.5318 0.0
H1066 H 0.78409 0.67992 0.40164 0.0
H1067 H 0.76641 0.7222 0.42123 0.0
H1068 H 0.84122 0.66091 0.37665 0.0
H1069 H 0.87983 0.63011 0.3917 0.0
C1070 C 0.33935 0.8621 0.52467 0.0
C1071 C 0.35671 0.82464 0.51642 0.0
C1072 C 0.42421 0.85353 0.50907 0.0
C1073 C 0.40671 0.89111 0.51623 0.0
N1074 N 0.34755 0.93436 0.51927 0.0
N1075 N 0.41551 0.78944 0.48963 0.0
C1076 C 0.36426 0.89643 0.52043 0.0
C1077 C 0.39909 0.82168 0.50524 0.0
N1078 N 0.29904 0.86522 0.53654 0.0
N1079 N 0.46498 0.84833 0.5055 0.0
H1080 H 0.39882 0.76588 0.48489 0.0
H1081 H 0.44552 0.78794 0.4779 0.0
H1082 H 0.48443 0.8721 0.50454 0.0
H1083 H 0.47922 0.82018 0.50527 0.0
H1084 H 0.28584 0.89027 0.54728 0.0
H1085 H 0.27893 0.84196 0.53776 0.0
H1086 H 0.31722 0.94033 0.51797 0.0
H1087 H 0.36436 0.96041 0.51672 0.0
C1088 C 0.57469 0.65795 0.77867 0.0
C1089 C 0.54436 0.6869 0.78812 0.0
C1090 C 0.49811 0.65349 0.75903 0.0
C1091 C 0.52998 0.63051 0.74359 0.0
N1092 N 0.60125 0.61485 0.73458 0.0
N1093 N 0.48117 0.71895 0.77451 0.0
C1094 C 0.56918 0.63366 0.75222 0.0
C1095 C 0.50712 0.68661 0.7747 0.0
N1096 N 0.60759 0.65208 0.79559 0.0
N1097 N 0.45921 0.64464 0.75755 0.0
H1098 H 0.48786 0.74631 0.78169 0.0
H1099 H 0.45543 0.72042 0.76239 0.0
H1100 H 0.45169 0.61987 0.74634 0.0
H1101 H 0.43479 0.65929 0.7709 0.0
H1102 H 0.62836 0.62871 0.79151 0.0
H1103 H 0.61207 0.66753 0.81628 0.0
H1104 H 0.63087 0.61985 0.73737 0.0
H1105 H 0.59854 0.59676 0.71516 0.0
C1106 C 0.51042 0.83156 0.75146 0.0
C1107 C 0.48309 0.83683 0.78337 0.0
C1108 C 0.45032 0.8933 0.74909 0.0
C1109 C 0.47742 0.88727 0.71782 0.0
N1110 N 0.52528 0.84413 0.68699 0.0
N1111 N 0.43203 0.87762 0.81363 0.0
C1112 C 0.50542 0.85488 0.71847 0.0
C1113 C 0.45392 0.86871 0.78237 0.0
N1114 N 0.5422 0.80499 0.75204 0.0
N1115 N 0.42044 0.92184 0.74664 0.0
H1116 H 0.43532 0.862 0.83868 0.0
H1117 H 0.41292 0.90256 0.8154 0.0
H1118 H 0.41856 0.94204 0.72339 0.0
H1119 H 0.39593 0.92372 0.76665 0.0
H1120 H 0.56695 0.80663 0.73173 0.0
H1121 H 0.54556 0.78218 0.77272 0.0
H1122 H 0.54127 0.81705 0.68534 0.0
H1123 H 0.52272 0.85992 0.66182 0.0
C1124 C 0.57201 0.34078 0.73197 0.0
C1125 C 0.57442 0.29816 0.74088 0.0
C1126 C 0.56725 0.30419 0.80442 0.0
C1127 C 0.56566 0.34695 0.7956 0.0
N1128 N 0.57441 0.40645 0.75116 0.0
N1129 N 0.58318 0.2395 0.78356 0.0
C1130 C 0.57041 0.36546 0.75937 0.0
C1131 C 0.57519 0.27999 0.77654 0.0
N1132 N 0.56992 0.35743 0.69744 0.0
N1133 N 0.55946 0.28675 0.83945 0.0
H1134 H 0.58882 0.22121 0.76341 0.0
H1135 H 0.58764 0.22473 0.80858 0.0
H1136 H 0.55268 0.30348 0.86062 0.0
H1137 H 0.55638 0.25577 0.84753 0.0
H1138 H 0.56269 0.38766 0.68984 0.0
H1139 H 0.57388 0.34034 0.67641 0.0
H1140 H 0.58218 0.42134 0.72518 0.0
H1141 H 0.57274 0.42553 0.77059 0.0
C1142 C 0.48183 0.11497 0.772 0.0
C1143 C 0.48357 0.15758 0.77056 0.0
C1144 C 0.48337 0.14868 0.83576 0.0
C1145 C 0.48441 0.10582 0.83701 0.0
N1146 N 0.48849 0.04798 0.80593 0.0
N1147 N 0.49032 0.21512 0.80019 0.0
C1148 C 0.48443 0.08892 0.80498 0.0
C1149 C 0.48544 0.17438 0.80224 0.0
N1150 N 0.47694 0.09955 0.74184 0.0
N1151 N 0.47848 0.16513 0.86685 0.0
H1152 H 0.48974 0.23537 0.7768 0.0
H1153 H 0.49752 0.22883 0.82102 0.0
H1154 H 0.47764 0.14808 0.89195 0.0
H1155 H 0.4718 0.19551 0.86832 0.0
H1156 H 0.47153 0.06925 0.74132 0.0
H1157 H 0.47544 0.11782 0.71747 0.0
H1158 H 0.49247 0.03353 0.78333 0.0
H1159 H 0.49084 0.02833 0.8294 0.0
C1160 C 0.70635 0.57926 0.65745 0.0
C1161 C 0.72754 0.54362 0.66869 0.0
C1162 C 0.68732 0.50561 0.63586 0.0
C1163 C 0.6624 0.54005 0.62998 0.0
N1164 N 0.64415 0.60812 0.64273 0.0
N1165 N 0.75066 0.47851 0.6511 0.0
C1166 C 0.67063 0.57627 0.64305 0.0
C1167 C 0.72155 0.50806 0.65319 0.0
N1168 N 0.72231 0.61647 0.65641 0.0
N1169 N 0.67704 0.46981 0.62673 0.0
H1170 H 0.77913 0.4811 0.65758 0.0
H1171 H 0.74944 0.45403 0.63743 0.0
H1172 H 0.65266 0.46707 0.61357 0.0
H1173 H 0.69032 0.44214 0.63494 0.0
H1174 H 0.7091 0.64323 0.64573 0.0
H1175 H 0.75196 0.62055 0.65943 0.0
H1176 H 0.6468 0.63264 0.65611 0.0
H1177 H 0.61775 0.60886 0.63218 0.0
C1178 C 0.29735 0.05685 0.61834 0.0
C1179 C 0.29055 0.02359 0.64672 0.0
C1180 C 0.33832 0.98372 0.61066 0.0
C1181 C 0.35228 0.01891 0.58711 0.0
N1182 N 0.346 0.0909 0.57033 0.0
N1183 N 0.3157 0.95826 0.67206 0.0
C1184 C 0.33191 0.05615 0.59119 0.0
C1185 C 0.31378 0.98763 0.64341 0.0
N1186 N 0.27031 0.08815 0.61614 0.0
N1187 N 0.34992 0.94627 0.60255 0.0
H1188 H 0.30266 0.96108 0.69808 0.0
H1189 H 0.33524 0.93342 0.67081 0.0
H1190 H 0.36905 0.94208 0.57919 0.0
H1191 H 0.33761 0.91975 0.61756 0.0
H1192 H 0.27266 0.11133 0.5945 0.0
H1193 H 0.2431 0.08842 0.63339 0.0
H1194 H 0.33484 0.11942 0.57498 0.0
H1195 H 0.37045 0.09125 0.54983 0.0
C1196 C 0.7384 0.5121 0.85029 0.0
C1197 C 0.74429 0.47918 0.82944 0.0
C1198 C 0.70298 0.438 0.87952 0.0
C1199 C 0.6891 0.47283 0.89493 0.0
N1200 N 0.69304 0.54428 0.89418 0.0
N1201 N 0.72356 0.41183 0.82404 0.0
C1202 C 0.70686 0.51025 0.88024 0.0
C1203 C 0.72474 0.44209 0.8442 0.0
N1204 N 0.76356 0.54442 0.84295 0.0
N1205 N 0.69416 0.40083 0.8985 0.0
H1206 H 0.73483 0.4145 0.79688 0.0
H1207 H 0.70649 0.38593 0.83324 0.0
H1208 H 0.67888 0.39749 0.9247 0.0
H1209 H 0.70561 0.37424 0.88947 0.0
H1210 H 0.76209 0.5668 0.85939 0.0
H1211 H 0.78901 0.54681 0.82355 0.0
H1212 H 0.7011 0.57332 0.88169 0.0
H1213 H 0.67198 0.54317 0.91744 0.0
C1214 C 0.25189 0.94904 0.84847 0.0
C1215 C 0.2714 0.96052 0.81272 0.0
C1216 C 0.33444 0.97021 0.83418 0.0
C1217 C 0.31344 0.96462 0.86971 0.0
N1218 N 0.25337 0.94866 0.91188 0.0
N1219 N 0.33046 0.98254 0.77083 0.0
C1220 C 0.27266 0.95315 0.87729 0.0
C1221 C 0.31266 0.97075 0.80536 0.0
N1222 N 0.21324 0.93547 0.85482 0.0
N1223 N 0.37516 0.97571 0.82828 0.0
H1224 H 0.31593 0.98136 0.74898 0.0
H1225 H 0.35881 0.99531 0.76366 0.0
H1226 H 0.39203 0.975 0.84898 0.0
H1227 H 0.393 0.97798 0.80328 0.0
H1228 H 0.19868 0.92298 0.8799 0.0
H1229 H 0.19605 0.93435 0.83466 0.0
H1230 H 0.22247 0.94526 0.91927 0.0
H1231 H 0.26836 0.95009 0.93351 0.0
C1232 C 0.69206 0.69772 0.55914 0.0
C1233 C 0.67816 0.73768 0.54946 0.0
C1234 C 0.60895 0.71214 0.55798 0.0
C1235 C 0.6236 0.67173 0.56182 0.0
N1236 N 0.68155 0.6265 0.56099 0.0
N1237 N 0.62394 0.7811 0.53142 0.0
C1238 C 0.66584 0.66466 0.5611 0.0
C1239 C 0.63671 0.74444 0.54668 0.0
N1240 N 0.73064 0.691 0.5657 0.0
N1241 N 0.56867 0.71995 0.56482 0.0
H1242 H 0.64352 0.80472 0.52104 0.0
H1243 H 0.59491 0.78644 0.5255 0.0
H1244 H 0.54767 0.69721 0.57393 0.0
H1245 H 0.5567 0.74908 0.56525 0.0
H1246 H 0.74102 0.66304 0.57689 0.0
H1247 H 0.75151 0.71394 0.5628 0.0
H1248 H 0.66405 0.60113 0.56353 0.0
H1249 H 0.71225 0.62019 0.55583 0.0
C1250 C 0.68494 0.31699 0.02723 0.0
C1251 C 0.70999 0.30074 0.99893 0.0
C1252 C 0.6572 0.31833 0.96097 0.0
C1253 C 0.63442 0.3378 0.98796 0.0
N1254 N 0.61787 0.33862 0.05121 0.0
N1255 N 0.72406 0.30223 0.93419 0.0
C1256 C 0.64566 0.33175 0.02254 0.0
C1257 C 0.69728 0.30547 0.96447 0.0
N1258 N 0.70012 0.32264 0.05716 0.0
N1259 N 0.64032 0.31105 0.93244 0.0
H1260 H 0.75501 0.30359 0.93297 0.0
H1261 H 0.71601 0.30598 0.90873 0.0
H1262 H 0.60988 0.31647 0.93113 0.0
H1263 H 0.65462 0.29407 0.91323 0.0
H1264 H 0.68438 0.33754 0.07725 0.0
H1265 H 0.73041 0.31809 0.05947 0.0
H1266 H 0.62275 0.3314 0.07763 0.0
H1267 H 0.58814 0.34662 0.04854 0.0
C1268 C 0.38065 0.20853 0.99555 0.0
C1269 C 0.35033 0.21904 0.97323 0.0
C1270 C 0.37748 0.16654 0.93736 0.0
C1271 C 0.40403 0.15294 0.96208 0.0
N1272 N 0.42371 0.15537 0.01959 0.0
N1273 N 0.31294 0.1973 0.93047 0.0
C1274 C 0.40372 0.17237 0.99252 0.0
C1275 C 0.34683 0.19514 0.94615 0.0
N1276 N 0.38881 0.23307 0.01901 0.0
N1277 N 0.38171 0.15265 0.90513 0.0
H1278 H 0.28763 0.21444 0.93863 0.0
H1279 H 0.30786 0.17778 0.91284 0.0
H1280 H 0.40438 0.13238 0.89713 0.0
H1281 H 0.36538 0.16462 0.88495 0.0
H1282 H 0.41393 0.22877 0.03195 0.0
H1283 H 0.3735 0.25974 0.02348 0.0
H1284 H 0.42042 0.16574 0.04429 0.0
H1285 H 0.44033 0.12852 0.01893 0.0
C1286 C 0.87445 0.35868 0.97795 0.0
C1287 C 0.89155 0.31924 0.97931 0.0
C1288 C 0.95652 0.34617 0.98448 0.0
C1289 C 0.93787 0.38373 0.99019 0.0
N1290 N 0.87886 0.42719 0.99043 0.0
N1291 N 0.9482 0.27426 0.98657 0.0
C1292 C 0.89684 0.39063 0.98589 0.0
C1293 C 0.93247 0.31261 0.98322 0.0
N1294 N 0.83703 0.36556 0.96856 0.0
N1295 N 0.99737 0.34354 0.97738 0.0
H1296 H 0.93173 0.24895 0.985 0.0
H1297 H 0.97663 0.26743 0.99347 0.0
H1298 H 0.01489 0.36936 0.97283 0.0
H1299 H 0.01296 0.31759 0.97065 0.0
H1300 H 0.82429 0.39422 0.9634 0.0
H1301 H 0.81987 0.34269 0.96287 0.0
H1302 H 0.84804 0.43251 0.99211 0.0
H1303 H 0.89425 0.45196 0.99476 0.0
loop_
_geom_bond_atom_site_label_1
_geom_bond_atom_site_label_2
_geom_bond_distance
_geom_bond_site_symmetry_2
_ccdc_geom_bond_type
C0 O2 1.247 . S
C0 O4 1.258 1_455 S
C1 O8 1.247 . S
C1 O9 1.258 1_655 S
O2 C0 1.247 . S
O2 Zn3 2.028 . S
Zn3 O2 2.028 . S
Zn3 O7 2.035 . S
Zn3 O9 2.035 . S
Zn3 O10 2.028 . S
O4 C0 1.258 1_655 S
O4 Zn5 2.035 . S
Zn5 O4 2.035 . S
Zn5 O6 2.028 . S
Zn5 O8 2.028 . S
Zn5 O11 2.035 . S
O6 Zn5 2.028 . S
O6 C12 1.247 . S
O7 Zn3 2.035 . S
O7 C12 1.258 1_455 S
O8 C1 1.247 . S
O8 Zn5 2.028 . S
O9 C1 1.258 1_455 S
O9 Zn3 2.035 . S
O10 Zn3 2.028 . S
O10 C13 1.247 . S
O11 Zn5 2.035 . S
O11 C13 1.258 1_655 S
C12 O6 1.247 . S
C12 O7 1.258 1_655 S
C13 O10 1.247 . S
C13 O11 1.258 1_455 S
C14 O16 1.247 . S
C14 O18 1.258 1_455 S
C15 O22 1.247 . S
C15 O23 1.258 1_655 S
O16 C14 1.247 . S
O16 Zn17 2.028 . S
Zn17 O16 2.028 . S
Zn17 O21 2.035 . S
Zn17 O23 2.035 . S
Zn17 O24 2.028 . S
O18 C14 1.258 1_655 S
O18 Zn19 2.035 . S
Zn19 O18 2.035 . S
Zn19 O20 2.028 . S
Zn19 O22 2.028 . S
Zn19 O25 2.035 . S
O20 Zn19 2.028 . S
O20 C26 1.247 . S
O21 Zn17 2.035 . S
O21 C26 1.258 1_455 S
O22 C15 1.247 . S
O22 Zn19 2.028 . S
O23 C15 1.258 1_455 S
O23 Zn17 2.035 . S
O24 Zn17 2.028 . S
O24 C27 1.247 . S
O25 Zn19 2.035 . S
O25 C27 1.258 1_655 S
C26 O20 1.247 . S
C26 O21 1.258 1_655 S
C27 O24 1.247 . S
C27 O25 1.258 1_455 S
C28 O30 1.247 1_545 S
C28 O32 1.258 . S
C29 O36 1.258 . S
C29 O37 1.248 1_545 S
O30 C28 1.247 1_565 S
O30 Zn31 2.028 . S
Zn31 O30 2.028 . S
Zn31 O35 2.035 . S
Zn31 O37 2.035 . S
Zn31 O38 2.028 . S
O32 C28 1.258 . S
O32 Zn33 2.035 . S
Zn33 O32 2.035 . S
Zn33 O34 2.028 . S
Zn33 O36 2.028 . S
Zn33 O39 2.035 . S
O34 Zn33 2.028 . S
O34 C40 1.247 . S
O35 Zn31 2.035 . S
O35 C40 1.258 1_565 S
O36 C29 1.258 . S
O36 Zn33 2.028 . S
O37 C29 1.248 1_565 S
O37 Zn31 2.035 . S
O38 Zn31 2.028 . S
O38 C41 1.247 1_565 S
O39 Zn33 2.035 . S
O39 C41 1.258 . S
C40 O34 1.247 . S
C40 O35 1.258 1_545 S
C41 O38 1.247 1_545 S
C41 O39 1.258 . S
C42 O44 1.247 . S
C42 O46 1.258 . S
C43 O50 1.247 . S
C43 O51 1.258 . S
O44 C42 1.247 . S
O44 Zn45 2.028 . S
Zn45 O44 2.028 . S
Zn45 O49 2.035 . S
Zn45 O51 2.035 . S
Zn45 O52 2.028 . S
O46 C42 1.258 . S
O46 Zn47 2.035 . S
Zn47 O46 2.035 . S
Zn47 O48 2.028 . S
Zn47 O50 2.028 . S
Zn47 O53 2.035 . S
O48 Zn47 2.028 . S
O48 C54 1.247 . S
O49 Zn45 2.035 . S
O49 C54 1.258 . S
O50 C43 1.247 . S
O50 Zn47 2.028 . S
O51 C43 1.258 . S
O51 Zn45 2.035 . S
O52 Zn45 2.028 . S
O52 C55 1.247 . S
O53 Zn47 2.035 . S
O53 C55 1.258 . S
C54 O48 1.247 . S
C54 O49 1.258 . S
C55 O52 1.247 . S
C55 O53 1.258 . S
C56 O58 1.247 1_554 S
C56 O60 1.258 . S
C57 O64 1.247 1_556 S
C57 O65 1.258 . S
O58 C56 1.247 1_556 S
O58 Zn59 2.028 . S
Zn59 O58 2.028 . S
Zn59 O63 2.035 . S
Zn59 O65 2.035 . S
Zn59 O66 2.028 . S
O60 C56 1.258 . S
O60 Zn61 2.035 . S
Zn61 O60 2.035 . S
Zn61 O62 2.028 . S
Zn61 O64 2.028 . S
Zn61 O67 2.035 . S
O62 Zn61 2.028 . S
O62 C68 1.247 1_554 S
O63 Zn59 2.035 . S
O63 C68 1.258 . S
O64 C57 1.247 1_554 S
O64 Zn61 2.028 . S
O65 C57 1.258 . S
O65 Zn59 2.035 . S
O66 Zn59 2.028 . S
O66 C69 1.247 1_556 S
O67 Zn61 2.035 . S
O67 C69 1.258 . S
C68 O62 1.247 1_556 S
C68 O63 1.258 . S
C69 O66 1.247 1_554 S
C69 O67 1.258 . S
C70 O72 1.247 . S
C70 O74 1.258 . S
C71 O78 1.247 . S
C71 O79 1.258 . S
O72 C70 1.247 . S
O72 Zn73 2.028 . S
Zn73 O72 2.028 . S
Zn73 O77 2.035 . S
Zn73 O79 2.035 . S
Zn73 O80 2.028 . S
O74 C70 1.258 . S
O74 Zn75 2.035 . S
Zn75 O74 2.035 . S
Zn75 O76 2.028 . S
Zn75 O78 2.028 . S
Zn75 O81 2.035 . S
O76 Zn75 2.028 . S
O76 C82 1.247 . S
O77 Zn73 2.035 . S
O77 C82 1.258 . S
O78 C71 1.247 . S
O78 Zn75 2.028 . S
O79 C71 1.258 . S
O79 Zn73 2.035 . S
O80 Zn73 2.028 . S
O80 C83 1.247 . S
O81 Zn75 2.035 . S
O81 C83 1.258 . S
C82 O76 1.247 . S
C82 O77 1.258 . S
C83 O80 1.247 . S
C83 O81 1.258 . S
C84 O86 1.247 . S
C84 O88 1.258 . S
C85 O92 1.247 . S
C85 O93 1.258 . S
O86 C84 1.247 . S
O86 Zn87 2.028 . S
Zn87 O86 2.028 . S
Zn87 O91 2.035 . S
Zn87 O93 2.035 . S
Zn87 O94 2.028 . S
O88 C84 1.258 . S
O88 Zn89 2.035 . S
Zn89 O88 2.035 . S
Zn89 O90 2.028 . S
Zn89 O92 2.028 . S
Zn89 O95 2.035 . S
O90 Zn89 2.028 . S
O90 C96 1.247 . S
O91 Zn87 2.035 . S
O91 C96 1.258 . S
O92 C85 1.247 . S
O92 Zn89 2.028 . S
O93 C85 1.258 . S
O93 Zn87 2.035 . S
O94 Zn87 2.028 . S
O94 C97 1.247 . S
O95 Zn89 2.035 . S
O95 C97 1.258 . S
C96 O90 1.247 . S
C96 O91 1.258 . S
C97 O94 1.247 . S
C97 O95 1.258 . S
C98 O100 1.247 . S
C98 O102 1.258 . S
C99 O106 1.247 . S
C99 O107 1.258 . S
O100 C98 1.247 . S
O100 Zn101 2.028 . S
Zn101 O100 2.028 . S
Zn101 O105 2.035 . S
Zn101 O107 2.035 . S
Zn101 O108 2.028 . S
O102 C98 1.258 . S
O102 Zn103 2.035 . S
Zn103 O102 2.035 . S
Zn103 O104 2.028 . S
Zn103 O106 2.028 . S
Zn103 O109 2.035 . S
O104 Zn103 2.028 . S
O104 C110 1.247 . S
O105 Zn101 2.035 . S
O105 C110 1.258 . S
O106 C99 1.247 . S
O106 Zn103 2.028 . S
O107 C99 1.258 . S
O107 Zn101 2.035 . S
O108 Zn101 2.028 . S
O108 C111 1.247 . S
O109 Zn103 2.035 . S
O109 C111 1.258 . S
C110 O104 1.247 . S
C110 O105 1.258 . S
C111 O108 1.247 . S
C111 O109 1.258 . S
C112 O114 1.247 . S
C112 O116 1.258 . S
C113 O120 1.247 . S
C113 O121 1.258 . S
O114 C112 1.247 . S
O114 Zn115 2.028 . S
Zn115 O114 2.028 . S
Zn115 O119 2.035 . S
Zn115 O121 2.035 . S
Zn115 O122 2.028 . S
O116 C112 1.258 . S
O116 Zn117 2.035 . S
Zn117 O116 2.035 . S
Zn117 O118 2.028 . S
Zn117 O120 2.028 . S
Zn117 O123 2.035 . S
O118 Zn117 2.028 . S
O118 C124 1.247 . S
O119 Zn115 2.035 . S
O119 C124 1.258 . S
O120 C113 1.247 . S
O120 Zn117 2.028 . S
O121 C113 1.258 . S
O121 Zn115 2.035 . S
O122 Zn115 2.028 . S
O122 C125 1.247 . S
O123 Zn117 2.035 . S
O123 C125 1.258 . S
C124 O118 1.247 . S
C124 O119 1.258 . S
C125 O122 1.247 . S
C125 O123 1.258 . S
C126 O128 1.247 . S
C126 O130 1.258 . S
C127 O134 1.247 . S
C127 O135 1.258 . S
O128 C126 1.247 . S
O128 Zn129 2.028 . S
Zn129 O128 2.028 . S
Zn129 O133 2.035 . S
Zn129 O135 2.035 . S
Zn129 O136 2.028 . S
O130 C126 1.258 . S
O130 Zn131 2.035 . S
Zn131 O130 2.035 . S
Zn131 O132 2.028 . S
Zn131 O134 2.028 . S
Zn131 O137 2.035 . S
O132 Zn131 2.028 . S
O132 C138 1.247 . S
O133 Zn129 2.035 . S
O133 C138 1.258 . S
O134 C127 1.247 . S
O134 Zn131 2.028 . S
O135 C127 1.258 . S
O135 Zn129 2.035 . S
O136 Zn129 2.028 . S
O136 C139 1.247 . S
O137 Zn131 2.035 . S
O137 C139 1.258 . S
C138 O132 1.247 . S
C138 O133 1.258 . S
C139 O136 1.247 . S
C139 O137 1.258 . S
C140 O142 1.247 . S
C140 O144 1.258 1_565 S
C141 O148 1.247 . S
C141 O149 1.258 1_545 S
O142 C140 1.247 . S
O142 Zn143 2.028 . S
Zn143 O142 2.028 . S
Zn143 O147 2.035 . S
Zn143 O149 2.035 . S
Zn143 O150 2.028 . S
O144 C140 1.258 1_545 S
O144 Zn145 2.035 . S
Zn145 O144 2.035 . S
Zn145 O146 2.028 . S
Zn145 O148 2.028 . S
Zn145 O151 2.035 . S
O146 Zn145 2.028 . S
O146 C152 1.247 . S
O147 Zn143 2.035 . S
O147 C152 1.258 1_565 S
O148 C141 1.247 . S
O148 Zn145 2.028 . S
O149 C141 1.258 1_565 S
O149 Zn143 2.035 . S
O150 Zn143 2.028 . S
O150 C153 1.247 . S
O151 Zn145 2.035 . S
O151 C153 1.258 1_545 S
C152 O146 1.247 . S
C152 O147 1.258 1_545 S
C153 O150 1.247 . S
C153 O151 1.258 1_565 S
C154 O156 1.247 . S
C154 O158 1.258 1_554 S
C155 O162 1.247 1_554 S
C155 O163 1.258 . S
O156 C154 1.247 . S
O156 Zn157 2.028 . S
Zn157 O156 2.028 . S
Zn157 O161 2.035 . S
Zn157 O163 2.035 . S
Zn157 O164 2.028 . S
O158 C154 1.258 1_556 S
O158 Zn159 2.035 . S
Zn159 O158 2.035 . S
Zn159 O160 2.028 . S
Zn159 O162 2.028 . S
Zn159 O165 2.035 . S
O160 Zn159 2.028 . S
O160 C166 1.247 1_556 S
O161 Zn157 2.035 . S
O161 C166 1.258 . S
O162 C155 1.247 1_556 S
O162 Zn159 2.028 . S
O163 C155 1.258 . S
O163 Zn157 2.035 . S
O164 Zn157 2.028 . S
O164 C167 1.247 1_554 S
O165 Zn159 2.035 . S
O165 C167 1.258 . S
C166 O160 1.247 1_554 S
C166 O161 1.258 . S
C167 O164 1.247 1_556 S
C167 O165 1.258 . S
C168 O184 1.251 . S
C168 O186 1.254 . S
N169 C170 1.333 . S
N169 C174 1.307 . S
N169 Zn175 2.020 1_556 S
C170 N169 1.333 . S
C170 C171 1.379 1_545 S
C170 H188 0.952 . S
C171 C170 1.379 1_565 S
C171 C172 1.390 . S
C171 H198 0.949 . S
C172 C171 1.390 . S
C172 C173 1.357 . S
C173 C172 1.357 . S
C173 C174 1.370 1_565 S
C173 H199 0.950 . S
C174 N169 1.307 . S
C174 C173 1.370 1_545 S
C174 H192 0.948 . S
Zn175 N169 2.020 1_554 S
Zn175 O184 2.039 . S
Zn175 O190 2.034 . S
Zn175 O194 2.025 . S
Zn175 O196 2.024 1_545 S
C176 O195 1.246 1_565 S
C176 O196 1.249 . S
N177 C178 1.307 . S
N177 C179 1.333 1_455 S
N177 Zn183 2.020 . S
C178 N177 1.307 . S
C178 C182 1.370 . S
C178 H189 0.948 . S
C179 N177 1.333 1_655 S
C179 C180 1.379 . S
C179 H187 0.952 . S
C180 C179 1.379 . S
C180 C181 1.390 . S
C180 H200 0.949 . S
C181 C180 1.390 . S
C181 C182 1.357 1_655 S
C182 C178 1.370 . S
C182 C181 1.357 1_455 S
C182 H201 0.950 . S
Zn183 N177 2.020 . S
Zn183 O186 2.025 . S
Zn183 O191 2.024 . S
Zn183 O193 2.039 1_455 S
Zn183 O195 2.034 . S
O184 C168 1.251 . S
O184 Zn175 2.039 . S
C185 O190 1.246 . S
C185 O191 1.249 . S
O186 C168 1.254 . S
O186 Zn183 2.025 . S
H187 C179 0.952 . S
H188 C170 0.952 . S
H189 C178 0.948 . S
O190 Zn175 2.034 . S
O190 C185 1.246 . S
O191 Zn183 2.024 . S
O191 C185 1.249 . S
H192 C174 0.948 . S
O193 Zn183 2.039 1_655 S
O193 C197 1.251 . S
O194 Zn175 2.025 . S
O194 C197 1.254 1_455 S
O195 C176 1.246 1_545 S
O195 Zn183 2.034 . S
O196 Zn175 2.024 1_565 S
O196 C176 1.249 . S
C197 O193 1.251 . S
C197 O194 1.254 1_655 S
H198 C171 0.949 . S
H199 C173 0.950 . S
H200 C180 0.949 . S
H201 C182 0.950 . S
C202 O218 1.251 . S
C202 O220 1.254 . S
N203 C204 1.333 . S
N203 C208 1.307 . S
N203 Zn209 2.020 1_556 S
C204 N203 1.333 . S
C204 C205 1.379 . S
C204 H222 0.952 . S
C205 C204 1.379 . S
C205 C206 1.390 . S
C205 H232 0.949 . S
C206 C205 1.390 . S
C206 C207 1.357 . S
C207 C206 1.357 . S
C207 C208 1.370 . S
C207 H233 0.950 . S
C208 N203 1.307 . S
C208 C207 1.370 . S
C208 H226 0.948 1_655 S
Zn209 N203 2.020 1_554 S
Zn209 O218 2.039 . S
Zn209 O224 2.034 . S
Zn209 O228 2.025 1_654 S
Zn209 O230 2.024 . S
C210 O229 1.246 . S
C210 O230 1.249 1_455 S
N211 C212 1.307 . S
N211 C213 1.333 1_655 S
N211 Zn217 2.020 . S
C212 N211 1.307 . S
C212 C216 1.370 . S
C212 H223 0.948 . S
C213 N211 1.333 1_455 S
C213 C214 1.379 . S
C213 H221 0.952 . S
C214 C213 1.379 . S
C214 C215 1.390 . S
C214 H234 0.949 . S
C215 C214 1.390 . S
C215 C216 1.357 1_455 S
C216 C212 1.370 . S
C216 C215 1.357 1_655 S
C216 H235 0.950 . S
Zn217 N211 2.020 . S
Zn217 O220 2.025 . S
Zn217 O225 2.024 . S
Zn217 O227 2.039 1_655 S
Zn217 O229 2.034 1_655 S
O218 C202 1.251 . S
O218 Zn209 2.039 . S
C219 O224 1.246 . S
C219 O225 1.249 . S
O220 C202 1.254 . S
O220 Zn217 2.025 . S
H221 C213 0.952 . S
H222 C204 0.952 . S
H223 C212 0.948 . S
O224 Zn209 2.034 . S
O224 C219 1.246 . S
O225 Zn217 2.024 . S
O225 C219 1.249 . S
H226 C208 0.948 1_455 S
O227 Zn217 2.039 1_455 S
O227 C231 1.251 . S
O228 Zn209 2.025 1_456 S
O228 C231 1.254 1_556 S
O229 C210 1.246 . S
O229 Zn217 2.034 1_455 S
O230 Zn209 2.024 . S
O230 C210 1.249 1_655 S
C231 O227 1.251 . S
C231 O228 1.254 1_554 S
H232 C205 0.949 . S
H233 C207 0.950 . S
H234 C214 0.949 . S
H235 C216 0.950 . S
C236 O252 1.251 1_545 S
C236 O254 1.254 . S
N237 C238 1.333 . S
N237 C242 1.307 . S
N237 Zn243 2.020 . S
C238 N237 1.333 . S
C238 C239 1.379 1_455 S
C238 H256 0.952 1_455 S
C239 C238 1.379 1_655 S
C239 C240 1.390 1_655 S
C239 H266 0.949 . S
C240 C239 1.390 1_455 S
C240 C241 1.357 . S
C241 C240 1.357 . S
C241 C242 1.370 . S
C241 H267 0.950 . S
C242 N237 1.307 . S
C242 C241 1.370 . S
C242 H260 0.948 . S
Zn243 N237 2.020 . S
Zn243 O252 2.039 . S
Zn243 O258 2.034 . S
Zn243 O262 2.025 . S
Zn243 O264 2.024 . S
C244 O263 1.246 . S
C244 O264 1.249 . S
N245 C246 1.307 1_565 S
N245 C247 1.333 . S
N245 Zn251 2.020 . S
C246 N245 1.307 1_545 S
C246 C250 1.370 . S
C246 H257 0.948 . S
C247 N245 1.333 . S
C247 C248 1.379 . S
C247 H255 0.952 . S
C248 C247 1.379 . S
C248 C249 1.390 1_565 S
C248 H268 0.949 . S
C249 C248 1.390 1_545 S
C249 C250 1.357 . S
C250 C246 1.370 . S
C250 C249 1.357 . S
C250 H269 0.950 . S
Zn251 N245 2.020 . S
Zn251 O254 2.025 1_565 S
Zn251 O259 2.024 . S
Zn251 O261 2.039 . S
Zn251 O263 2.034 . S
O252 C236 1.251 1_565 S
O252 Zn243 2.039 . S
C253 O258 1.246 1_655 S
C253 O259 1.249 1_655 S
O254 C236 1.254 . S
O254 Zn251 2.025 1_545 S
H255 C247 0.952 . S
H256 C238 0.952 1_655 S
H257 C246 0.948 . S
O258 Zn243 2.034 . S
O258 C253 1.246 1_455 S
O259 Zn251 2.024 . S
O259 C253 1.249 1_455 S
H260 C242 0.948 . S
O261 Zn251 2.039 . S
O261 C265 1.251 . S
O262 Zn243 2.025 . S
O262 C265 1.254 . S
O263 C244 1.246 . S
O263 Zn251 2.034 . S
O264 Zn243 2.024 . S
O264 C244 1.249 . S
C265 O261 1.251 . S
C265 O262 1.254 . S
H266 C239 0.949 . S
H267 C241 0.950 . S
H268 C248 0.949 . S
H269 C250 0.950 . S
C270 O286 1.251 . S
C270 O288 1.254 . S
N271 C272 1.333 . S
N271 C276 1.307 . S
N271 Zn277 2.020 1_455 S
C272 N271 1.333 . S
C272 C273 1.379 . S
C272 H290 0.952 . S
C273 C272 1.379 . S
C273 C274 1.390 . S
C273 H300 0.949 . S
C274 C273 1.390 . S
C274 C275 1.357 . S
C275 C274 1.357 . S
C275 C276 1.370 . S
C275 H301 0.950 . S
C276 N271 1.307 . S
C276 C275 1.370 . S
C276 H294 0.948 . S
Zn277 N271 2.020 1_655 S
Zn277 O286 2.039 . S
Zn277 O292 2.034 1_655 S
Zn277 O296 2.025 1_655 S
Zn277 O298 2.024 . S
C278 O297 1.246 . S
C278 O298 1.249 . S
N279 C280 1.307 . S
N279 C281 1.333 . S
N279 Zn285 2.020 . S
C280 N279 1.307 . S
C280 C284 1.370 . S
C280 H291 0.948 . S
C281 N279 1.333 . S
C281 C282 1.379 . S
C281 H289 0.952 . S
C282 C281 1.379 . S
C282 C283 1.390 . S
C282 H302 0.949 . S
C283 C282 1.390 . S
C283 C284 1.357 . S
C284 C280 1.370 . S
C284 C283 1.357 . S
C284 H303 0.950 . S
Zn285 N279 2.020 . S
Zn285 O288 2.025 . S
Zn285 O293 2.024 . S
Zn285 O295 2.039 . S
Zn285 O297 2.034 . S
O286 C270 1.251 . S
O286 Zn277 2.039 . S
C287 O292 1.246 1_655 S
C287 O293 1.249 . S
O288 C270 1.254 . S
O288 Zn285 2.025 . S
H289 C281 0.952 . S
H290 C272 0.952 . S
H291 C280 0.948 . S
O292 Zn277 2.034 1_455 S
O292 C287 1.246 1_455 S
O293 Zn285 2.024 . S
O293 C287 1.249 . S
H294 C276 0.948 . S
O295 Zn285 2.039 . S
O295 C299 1.251 . S
O296 Zn277 2.025 1_455 S
O296 C299 1.254 1_455 S
O297 C278 1.246 . S
O297 Zn285 2.034 . S
O298 Zn277 2.024 . S
O298 C278 1.249 . S
C299 O295 1.251 . S
C299 O296 1.254 1_655 S
H300 C273 0.949 . S
H301 C275 0.950 . S
H302 C282 0.949 . S
H303 C284 0.950 . S
C304 O320 1.251 1_565 S
C304 O322 1.254 . S
N305 C306 1.333 . S
N305 C310 1.307 . S
N305 Zn311 2.020 1_545 S
C306 N305 1.333 . S
C306 C307 1.379 . S
C306 H324 0.952 . S
C307 C306 1.379 . S
C307 C308 1.390 . S
C307 H334 0.949 . S
C308 C307 1.390 . S
C308 C309 1.357 . S
C309 C308 1.357 . S
C309 C310 1.370 . S
C309 H335 0.950 . S
C310 N305 1.307 . S
C310 C309 1.370 . S
C310 H328 0.948 . S
Zn311 N305 2.020 1_565 S
Zn311 O320 2.039 1_565 S
Zn311 O326 2.034 . S
Zn311 O330 2.025 . S
Zn311 O332 2.024 1_565 S
C312 O331 1.246 . S
C312 O332 1.249 . S
N313 C314 1.307 . S
N313 C315 1.333 . S
N313 Zn319 2.020 . S
C314 N313 1.307 . S
C314 C318 1.370 . S
C314 H325 0.948 . S
C315 N313 1.333 . S
C315 C316 1.379 . S
C315 H323 0.952 . S
C316 C315 1.379 . S
C316 C317 1.390 . S
C316 H336 0.949 . S
C317 C316 1.390 . S
C317 C318 1.357 . S
C318 C314 1.370 . S
C318 C317 1.357 . S
C318 H337 0.950 . S
Zn319 N313 2.020 . S
Zn319 O322 2.025 . S
Zn319 O327 2.024 . S
Zn319 O329 2.039 . S
Zn319 O331 2.034 1_565 S
O320 C304 1.251 1_545 S
O320 Zn311 2.039 1_545 S
C321 O326 1.246 . S
C321 O327 1.249 . S
O322 C304 1.254 . S
O322 Zn319 2.025 . S
H323 C315 0.952 . S
H324 C306 0.952 . S
H325 C314 0.948 . S
O326 Zn311 2.034 . S
O326 C321 1.246 . S
O327 Zn319 2.024 . S
O327 C321 1.249 . S
H328 C310 0.948 . S
O329 Zn319 2.039 . S
O329 C333 1.251 . S
O330 Zn311 2.025 . S
O330 C333 1.254 . S
O331 C312 1.246 . S
O331 Zn319 2.034 1_545 S
O332 Zn311 2.024 1_545 S
O332 C312 1.249 . S
C333 O329 1.251 . S
C333 O330 1.254 . S
H334 C307 0.949 . S
H335 C309 0.950 . S
H336 C316 0.949 . S
H337 C318 0.950 . S
C338 O354 1.251 . S
C338 O356 1.254 . S
N339 C340 1.333 . S
N339 C344 1.307 . S
N339 Zn345 2.020 . S
C340 N339 1.333 . S
C340 C341 1.379 . S
C340 H358 0.952 . S
C341 C340 1.379 . S
C341 C342 1.390 . S
C341 H368 0.949 . S
C342 C341 1.390 . S
C342 C343 1.357 . S
C343 C342 1.357 . S
C343 C344 1.370 . S
C343 H369 0.950 . S
C344 N339 1.307 . S
C344 C343 1.370 . S
C344 H362 0.948 . S
Zn345 N339 2.020 . S
Zn345 O354 2.039 . S
Zn345 O360 2.034 . S
Zn345 O364 2.025 . S
Zn345 O366 2.024 . S
C346 O365 1.246 . S
C346 O366 1.249 . S
N347 C348 1.307 . S
N347 C349 1.333 . S
N347 Zn353 2.020 . S
C348 N347 1.307 . S
C348 C352 1.370 . S
C348 H359 0.948 . S
C349 N347 1.333 . S
C349 C350 1.379 . S
C349 H357 0.952 . S
C350 C349 1.379 . S
C350 C351 1.390 . S
C350 H370 0.949 . S
C351 C350 1.390 . S
C351 C352 1.357 . S
C352 C348 1.370 . S
C352 C351 1.357 . S
C352 H371 0.950 . S
Zn353 N347 2.020 . S
Zn353 O356 2.025 . S
Zn353 O361 2.024 . S
Zn353 O363 2.039 . S
Zn353 O365 2.034 . S
O354 C338 1.251 . S
O354 Zn345 2.039 . S
C355 O360 1.246 . S
C355 O361 1.249 . S
O356 C338 1.254 . S
O356 Zn353 2.025 . S
H357 C349 0.952 . S
H358 C340 0.952 . S
H359 C348 0.948 . S
O360 Zn345 2.034 . S
O360 C355 1.246 . S
O361 Zn353 2.024 . S
O361 C355 1.249 . S
H362 C344 0.948 . S
O363 Zn353 2.039 . S
O363 C367 1.251 . S
O364 Zn345 2.025 . S
O364 C367 1.254 . S
O365 C346 1.246 . S
O365 Zn353 2.034 . S
O366 Zn345 2.024 . S
O366 C346 1.249 . S
C367 O363 1.251 . S
C367 O364 1.254 . S
H368 C341 0.949 . S
H369 C343 0.950 . S
H370 C350 0.949 . S
H371 C352 0.950 . S
C372 O388 1.251 . S
C372 O390 1.254 . S
N373 C374 1.333 . S
N373 C378 1.307 . S
N373 Zn379 2.020 . S
C374 N373 1.333 . S
C374 C375 1.379 . S
C374 H392 0.952 . S
C375 C374 1.379 . S
C375 C376 1.390 . S
C375 H402 0.949 . S
C376 C375 1.390 . S
C376 C377 1.357 . S
C377 C376 1.357 . S
C377 C378 1.370 . S
C377 H403 0.950 . S
C378 N373 1.307 . S
C378 C377 1.370 . S
C378 H396 0.948 . S
Zn379 N373 2.020 . S
Zn379 O388 2.039 . S
Zn379 O394 2.034 . S
Zn379 O398 2.025 . S
Zn379 O400 2.024 . S
C380 O399 1.246 . S
C380 O400 1.249 . S
N381 C382 1.307 . S
N381 C383 1.333 . S
N381 Zn387 2.020 1_554 S
C382 N381 1.307 . S
C382 C386 1.370 . S
C382 H393 0.948 . S
C383 N381 1.333 . S
C383 C384 1.379 . S
C383 H391 0.952 . S
C384 C383 1.379 . S
C384 C385 1.390 . S
C384 H404 0.949 . S
C385 C384 1.390 . S
C385 C386 1.357 . S
C386 C382 1.370 . S
C386 C385 1.357 . S
C386 H405 0.950 . S
Zn387 N381 2.020 1_556 S
Zn387 O390 2.025 . S
Zn387 O395 2.024 . S
Zn387 O397 2.039 . S
Zn387 O399 2.034 . S
O388 C372 1.251 . S
O388 Zn379 2.039 . S
C389 O394 1.246 . S
C389 O395 1.249 . S
O390 C372 1.254 . S
O390 Zn387 2.025 . S
H391 C383 0.952 . S
H392 C374 0.952 . S
H393 C382 0.948 . S
O394 Zn379 2.034 . S
O394 C389 1.246 . S
O395 Zn387 2.024 . S
O395 C389 1.249 . S
H396 C378 0.948 . S
O397 Zn387 2.039 . S
O397 C401 1.251 . S
O398 Zn379 2.025 . S
O398 C401 1.254 . S
O399 C380 1.246 . S
O399 Zn387 2.034 . S
O400 Zn379 2.024 . S
O400 C380 1.249 . S
C401 O397 1.251 . S
C401 O398 1.254 . S
H402 C375 0.949 . S
H403 C377 0.950 . S
H404 C384 0.949 . S
H405 C386 0.950 . S
C406 O422 1.251 . S
C406 O424 1.254 . S
N407 C408 1.333 . S
N407 C412 1.307 . S
N407 Zn413 2.020 . S
C408 N407 1.333 . S
C408 C409 1.379 . S
C408 H426 0.952 . S
C409 C408 1.379 . S
C409 C410 1.390 . S
C409 H436 0.949 . S
C410 C409 1.390 . S
C410 C411 1.357 . S
C411 C410 1.357 . S
C411 C412 1.370 . S
C411 H437 0.950 1_556 S
C412 N407 1.307 . S
C412 C411 1.370 . S
C412 H430 0.948 . S
Zn413 N407 2.020 . S
Zn413 O422 2.039 . S
Zn413 O428 2.034 . S
Zn413 O432 2.025 1_545 S
Zn413 O434 2.024 . S
C414 O433 1.246 . S
C414 O434 1.249 . S
N415 C416 1.307 . S
N415 C417 1.333 1_545 S
N415 Zn421 2.020 . S
C416 N415 1.307 . S
C416 C420 1.370 . S
C416 H427 0.948 . S
C417 N415 1.333 1_565 S
C417 C418 1.379 . S
C417 H425 0.952 . S
C418 C417 1.379 . S
C418 C419 1.390 . S
C418 H438 0.949 . S
C419 C418 1.390 . S
C419 C420 1.357 1_565 S
C420 C416 1.370 . S
C420 C419 1.357 1_545 S
C420 H439 0.950 . S
Zn421 N415 2.020 . S
Zn421 O424 2.025 . S
Zn421 O429 2.024 . S
Zn421 O431 2.039 1_545 S
Zn421 O433 2.034 . S
O422 C406 1.251 . S
O422 Zn413 2.039 . S
C423 O428 1.246 . S
C423 O429 1.249 . S
O424 C406 1.254 . S
O424 Zn421 2.025 . S
H425 C417 0.952 . S
H426 C408 0.952 . S
H427 C416 0.948 . S
O428 Zn413 2.034 . S
O428 C423 1.246 . S
O429 Zn421 2.024 . S
O429 C423 1.249 . S
H430 C412 0.948 . S
O431 Zn421 2.039 1_565 S
O431 C435 1.251 . S
O432 Zn413 2.025 1_565 S
O432 C435 1.254 . S
O433 C414 1.246 . S
O433 Zn421 2.034 . S
O434 Zn413 2.024 . S
O434 C414 1.249 . S
C435 O431 1.251 . S
C435 O432 1.254 . S
H436 C409 0.949 . S
H437 C411 0.950 1_554 S
H438 C418 0.949 . S
H439 C420 0.950 . S
C440 C441 1.363 . S
C440 C446 1.379 . S
C440 N448 1.356 . S
C441 C440 1.363 . S
C441 C447 1.363 1_455 S
C442 C443 1.363 1_655 S
C442 C447 1.379 . S
C442 N449 1.356 . S
C443 C442 1.363 1_455 S
C443 C446 1.363 . S
N444 C446 1.356 . S
N444 H456 0.984 . S
N444 H457 0.985 . S
N445 C447 1.356 . S
N445 H450 0.984 . S
N445 H451 0.985 . S
C446 C440 1.379 . S
C446 C443 1.363 . S
C446 N444 1.356 . S
C447 C441 1.363 1_655 S
C447 C442 1.379 . S
C447 N445 1.356 . S
N448 C440 1.356 . S
N448 H454 0.984 . S
N448 H455 0.984 . S
N449 C442 1.356 . S
N449 H452 0.984 . S
N449 H453 0.985 . S
H450 N445 0.984 . S
H451 N445 0.985 . S
H452 N449 0.984 . S
H453 N449 0.985 . S
H454 N448 0.984 . S
H455 N448 0.984 . S
H456 N444 0.984 . S
H457 N444 0.985 . S
C458 C459 1.363 1_455 S
C458 C464 1.379 . S
C458 N466 1.356 . S
C459 C458 1.363 1_655 S
C459 C465 1.363 . S
C460 C461 1.354 1_655 S
C460 C465 1.379 . S
C460 N467 1.356 . S
C461 C460 1.354 1_455 S
C461 C464 1.370 . S
N462 C464 1.356 . S
N462 H474 0.984 . S
N462 H475 0.985 . S
N463 C465 1.356 . S
N463 H468 0.984 . S
N463 H469 0.985 . S
C464 C458 1.379 . S
C464 C461 1.370 . S
C464 N462 1.356 . S
C465 C459 1.363 . S
C465 C460 1.379 . S
C465 N463 1.356 . S
N466 C458 1.356 . S
N466 H472 0.984 . S
N466 H473 0.984 . S
N467 C460 1.356 . S
N467 H470 0.984 . S
N467 H471 0.985 . S
H468 N463 0.984 . S
H469 N463 0.985 . S
H470 N467 0.984 . S
H471 N467 0.985 . S
H472 N466 0.984 . S
H473 N466 0.984 . S
H474 N462 0.984 . S
H475 N462 0.985 . S
C476 C477 1.363 . S
C476 C482 1.379 . S
C476 N484 1.356 . S
C477 C476 1.363 . S
C477 C483 1.363 1_455 S
C478 C479 1.363 1_655 S
C478 C483 1.379 . S
C478 N485 1.356 . S
C479 C478 1.363 1_455 S
C479 C482 1.363 . S
N480 C482 1.356 . S
N480 H492 0.984 . S
N480 H493 0.985 . S
N481 C483 1.356 . S
N481 H486 0.984 . S
N481 H487 0.985 . S
C482 C476 1.379 . S
C482 C479 1.363 . S
C482 N480 1.356 . S
C483 C477 1.363 1_655 S
C483 C478 1.379 . S
C483 N481 1.356 . S
N484 C476 1.356 . S
N484 H490 0.984 . S
N484 H491 0.984 . S
N485 C478 1.356 . S
N485 H488 0.984 . S
N485 H489 0.985 . S
H486 N481 0.984 . S
H487 N481 0.985 . S
H488 N485 0.984 . S
H489 N485 0.985 . S
H490 N484 0.984 . S
H491 N484 0.984 . S
H492 N480 0.984 . S
H493 N480 0.985 . S
C494 C495 1.363 . S
C494 C500 1.379 . S
C494 N502 1.356 . S
C495 C494 1.363 . S
C495 C501 1.363 1_655 S
C496 C497 1.363 . S
C496 C501 1.379 . S
C496 N503 1.356 . S
C497 C496 1.363 . S
C497 C500 1.363 1_455 S
N498 C500 1.356 . S
N498 H510 0.984 . S
N498 H511 0.985 . S
N499 C501 1.356 . S
N499 H504 0.984 . S
N499 H505 0.985 . S
C500 C494 1.379 . S
C500 C497 1.363 1_655 S
C500 N498 1.356 . S
C501 C495 1.363 1_455 S
C501 C496 1.379 . S
C501 N499 1.356 . S
N502 C494 1.356 . S
N502 H508 0.984 . S
N502 H509 0.984 . S
N503 C496 1.356 . S
N503 H506 0.984 . S
N503 H507 0.985 . S
H504 N499 0.984 . S
H505 N499 0.985 . S
H506 N503 0.984 . S
H507 N503 0.985 . S
H508 N502 0.984 . S
H509 N502 0.984 . S
H510 N498 0.984 . S
H511 N498 0.985 . S
C512 C513 1.363 . S
C512 C518 1.379 . S
C512 N520 1.356 . S
C513 C512 1.363 . S
C513 C519 1.363 1_545 S
C514 C515 1.363 1_565 S
C514 C519 1.379 . S
C514 N521 1.356 . S
C515 C514 1.363 1_545 S
C515 C518 1.363 . S
N516 C518 1.356 . S
N516 H528 0.984 . S
N516 H529 0.985 1_554 S
N517 C519 1.356 . S
N517 H522 0.984 . S
N517 H523 0.985 . S
C518 C512 1.379 . S
C518 C515 1.363 . S
C518 N516 1.356 . S
C519 C513 1.363 1_565 S
C519 C514 1.379 . S
C519 N517 1.356 . S
N520 C512 1.356 . S
N520 H526 0.984 . S
N520 H527 0.984 . S
N521 C514 1.356 . S
N521 H524 0.984 . S
N521 H525 0.985 . S
H522 N517 0.984 . S
H523 N517 0.985 . S
H524 N521 0.984 . S
H525 N521 0.985 . S
H526 N520 0.984 . S
H527 N520 0.984 . S
H528 N516 0.984 . S
H529 N516 0.985 1_556 S
C530 C531 1.363 . S
C530 C536 1.379 . S
C530 N538 1.356 . S
C531 C530 1.363 . S
C531 C537 1.363 . S
C532 C533 1.363 . S
C532 C537 1.379 . S
C532 N539 1.356 . S
C533 C532 1.363 . S
C533 C536 1.363 . S
N534 C536 1.356 . S
N534 H546 0.984 . S
N534 H547 0.985 . S
N535 C537 1.356 . S
N535 H540 0.984 . S
N535 H541 0.985 . S
C536 C530 1.379 . S
C536 C533 1.363 . S
C536 N534 1.356 . S
C537 C531 1.363 . S
C537 C532 1.379 . S
C537 N535 1.356 . S
N538 C530 1.356 . S
N538 H544 0.984 . S
N538 H545 0.984 . S
N539 C532 1.356 . S
N539 H542 0.984 . S
N539 H543 0.985 . S
H540 N535 0.984 . S
H541 N535 0.985 . S
H542 N539 0.984 . S
H543 N539 0.985 . S
H544 N538 0.984 . S
H545 N538 0.984 . S
H546 N534 0.984 . S
H547 N534 0.985 . S
C548 C549 1.363 1_565 S
C548 C554 1.379 1_565 S
C548 N556 1.356 . S
C549 C548 1.363 1_545 S
C549 C555 1.363 . S
C550 C551 1.363 . S
C550 C555 1.379 . S
C550 N557 1.356 . S
C551 C550 1.363 . S
C551 C554 1.363 . S
N552 C554 1.356 1_565 S
N552 H564 0.984 . S
N552 H565 0.985 1_565 S
N553 C555 1.356 . S
N553 H558 0.984 . S
N553 H559 0.985 . S
C554 C548 1.379 1_545 S
C554 C551 1.363 . S
C554 N552 1.356 1_545 S
C555 C549 1.363 . S
C555 C550 1.379 . S
C555 N553 1.356 . S
N556 C548 1.356 . S
N556 H562 0.984 . S
N556 H563 0.984 . S
N557 C550 1.356 . S
N557 H560 0.984 . S
N557 H561 0.985 . S
H558 N553 0.984 . S
H559 N553 0.985 . S
H560 N557 0.984 . S
H561 N557 0.985 . S
H562 N556 0.984 . S
H563 N556 0.984 . S
H564 N552 0.984 . S
H565 N552 0.985 1_545 S
C566 C567 1.363 . S
C566 C572 1.379 . S
C566 N574 1.356 . S
C567 C566 1.363 . S
C567 C573 1.363 . S
C568 C569 1.363 . S
C568 C573 1.379 . S
C568 N575 1.356 . S
C569 C568 1.363 . S
C569 C572 1.363 . S
N570 C572 1.356 . S
N570 H582 0.984 . S
N570 H583 0.985 . S
N571 C573 1.356 . S
N571 H576 0.984 . S
N571 H577 0.985 . S
C572 C566 1.379 . S
C572 C569 1.363 . S
C572 N570 1.356 . S
C573 C567 1.363 . S
C573 C568 1.379 . S
C573 N571 1.356 . S
N574 C566 1.356 . S
N574 H580 0.984 . S
N574 H581 0.984 . S
N575 C568 1.356 . S
N575 H578 0.984 . S
N575 H579 0.985 . S
H576 N571 0.984 . S
H577 N571 0.985 . S
H578 N575 0.984 . S
H579 N575 0.985 . S
H580 N574 0.984 . S
H581 N574 0.984 . S
H582 N570 0.984 . S
H583 N570 0.985 . S
C584 C585 1.363 1_556 S
C584 C590 1.379 . S
C584 N592 1.356 . S
C585 C584 1.363 1_554 S
C585 C591 1.363 . S
C586 C587 1.363 . S
C586 C591 1.379 . S
C586 N593 1.356 . S
C587 C586 1.363 . S
C587 C590 1.363 1_554 S
N588 C590 1.356 . S
N588 H600 0.984 . S
N588 H601 0.985 . S
N589 C591 1.356 . S
N589 H594 0.984 . S
N589 H595 0.985 . S
C590 C584 1.379 . S
C590 C587 1.363 1_556 S
C590 N588 1.356 . S
C591 C585 1.363 . S
C591 C586 1.379 . S
C591 N589 1.356 . S
N592 C584 1.356 . S
N592 H598 0.984 . S
N592 H599 0.984 . S
N593 C586 1.356 . S
N593 H596 0.984 . S
N593 H597 0.985 . S
H594 N589 0.984 . S
H595 N589 0.985 . S
H596 N593 0.984 . S
H597 N593 0.985 . S
H598 N592 0.984 . S
H599 N592 0.984 . S
H600 N588 0.984 . S
H601 N588 0.985 . S
C602 C603 1.363 . S
C602 C608 1.379 . S
C602 N610 1.356 . S
C603 C602 1.363 . S
C603 C609 1.363 . S
C604 C605 1.363 . S
C604 C609 1.379 . S
C604 N611 1.356 . S
C605 C604 1.363 . S
C605 C608 1.363 . S
N606 C608 1.356 . S
N606 H618 0.984 . S
N606 H619 0.985 . S
N607 C609 1.356 . S
N607 H612 0.984 . S
N607 H613 0.985 . S
C608 C602 1.379 . S
C608 C605 1.363 . S
C608 N606 1.356 . S
C609 C603 1.363 . S
C609 C604 1.379 . S
C609 N607 1.356 . S
N610 C602 1.356 . S
N610 H616 0.984 . S
N610 H617 0.984 . S
N611 C604 1.356 . S
N611 H614 0.984 . S
N611 H615 0.985 . S
H612 N607 0.984 . S
H613 N607 0.985 . S
H614 N611 0.984 . S
H615 N611 0.985 . S
H616 N610 0.984 . S
H617 N610 0.984 . S
H618 N606 0.984 . S
H619 N606 0.985 . S
C620 C621 1.363 . S
C620 C626 1.379 . S
C620 N628 1.356 . S
C621 C620 1.363 . S
C621 C627 1.363 . S
C622 C623 1.363 . S
C622 C627 1.379 . S
C622 N629 1.356 . S
C623 C622 1.363 . S
C623 C626 1.363 . S
N624 C626 1.356 . S
N624 H636 0.984 . S
N624 H637 0.985 . S
N625 C627 1.356 . S
N625 H630 0.984 . S
N625 H631 0.985 . S
C626 C620 1.379 . S
C626 C623 1.363 . S
C626 N624 1.356 . S
C627 C621 1.363 . S
C627 C622 1.379 . S
C627 N625 1.356 . S
N628 C620 1.356 . S
N628 H634 0.984 . S
N628 H635 0.984 . S
N629 C622 1.356 . S
N629 H632 0.984 . S
N629 H633 0.985 . S
H630 N625 0.984 . S
H631 N625 0.985 . S
H632 N629 0.984 . S
H633 N629 0.985 . S
H634 N628 0.984 . S
H635 N628 0.984 . S
H636 N624 0.984 . S
H637 N624 0.985 . S
C638 C639 1.363 . S
C638 C644 1.379 . S
C638 N646 1.356 . S
C639 C638 1.363 . S
C639 C645 1.363 . S
C640 C641 1.363 . S
C640 C645 1.379 . S
C640 N647 1.356 . S
C641 C640 1.363 . S
C641 C644 1.363 . S
N642 C644 1.356 . S
N642 H654 0.984 . S
N642 H655 0.985 . S
N643 C645 1.356 . S
N643 H648 0.984 . S
N643 H649 0.985 . S
C644 C638 1.379 . S
C644 C641 1.363 . S
C644 N642 1.356 . S
C645 C639 1.363 . S
C645 C640 1.379 . S
C645 N643 1.356 . S
N646 C638 1.356 . S
N646 H652 0.984 . S
N646 H653 0.984 . S
N647 C640 1.356 . S
N647 H650 0.984 . S
N647 H651 0.985 . S
H648 N643 0.984 . S
H649 N643 0.985 . S
H650 N647 0.984 . S
H651 N647 0.985 . S
H652 N646 0.984 . S
H653 N646 0.984 . S
H654 N642 0.984 . S
H655 N642 0.985 . S
C656 C657 1.363 . S
C656 C662 1.379 . S
C656 N664 1.356 . S
C657 C656 1.363 . S
C657 C663 1.363 . S
C658 C659 1.363 . S
C658 C663 1.379 . S
C658 N665 1.356 . S
C659 C658 1.363 . S
C659 C662 1.363 . S
N660 C662 1.356 . S
N660 H672 0.984 . S
N660 H673 0.985 . S
N661 C663 1.356 . S
N661 H666 0.984 . S
N661 H667 0.985 . S
C662 C656 1.379 . S
C662 C659 1.363 . S
C662 N660 1.356 . S
C663 C657 1.363 . S
C663 C658 1.379 . S
C663 N661 1.356 . S
N664 C656 1.356 . S
N664 H670 0.984 . S
N664 H671 0.984 . S
N665 C658 1.356 . S
N665 H668 0.984 . S
N665 H669 0.985 . S
H666 N661 0.984 . S
H667 N661 0.985 . S
H668 N665 0.984 . S
H669 N665 0.985 . S
H670 N664 0.984 . S
H671 N664 0.984 . S
H672 N660 0.984 . S
H673 N660 0.985 . S
C674 C675 1.363 . S
C674 C680 1.379 . S
C674 N682 1.356 . S
C675 C674 1.363 . S
C675 C681 1.363 . S
C676 C677 1.363 . S
C676 C681 1.379 . S
C676 N683 1.356 . S
C677 C676 1.363 . S
C677 C680 1.363 . S
N678 C680 1.356 . S
N678 H690 0.984 . S
N678 H691 0.985 . S
N679 C681 1.356 . S
N679 H684 0.984 . S
N679 H685 0.985 . S
C680 C674 1.379 . S
C680 C677 1.363 . S
C680 N678 1.356 . S
C681 C675 1.363 . S
C681 C676 1.379 . S
C681 N679 1.356 . S
N682 C674 1.356 . S
N682 H688 0.984 . S
N682 H689 0.984 . S
N683 C676 1.356 . S
N683 H686 0.984 . S
N683 H687 0.985 . S
H684 N679 0.984 . S
H685 N679 0.985 . S
H686 N683 0.984 . S
H687 N683 0.985 . S
H688 N682 0.984 . S
H689 N682 0.984 . S
H690 N678 0.984 . S
H691 N678 0.985 . S
C692 C693 1.363 . S
C692 C698 1.379 . S
C692 N700 1.356 . S
C693 C692 1.363 . S
C693 C699 1.363 . S
C694 C695 1.363 . S
C694 C699 1.379 . S
C694 N701 1.356 . S
C695 C694 1.363 . S
C695 C698 1.363 . S
N696 C698 1.356 . S
N696 H708 0.984 . S
N696 H709 0.985 . S
N697 C699 1.356 . S
N697 H702 0.984 . S
N697 H703 0.985 . S
C698 C692 1.379 . S
C698 C695 1.363 . S
C698 N696 1.356 . S
C699 C693 1.363 . S
C699 C694 1.379 . S
C699 N697 1.356 . S
N700 C692 1.356 . S
N700 H706 0.984 . S
N700 H707 0.984 . S
N701 C694 1.356 . S
N701 H704 0.984 . S
N701 H705 0.985 . S
H702 N697 0.984 . S
H703 N697 0.985 . S
H704 N701 0.984 . S
H705 N701 0.985 . S
H706 N700 0.984 . S
H707 N700 0.984 . S
H708 N696 0.984 . S
H709 N696 0.985 . S
C710 C711 1.363 . S
C710 C716 1.379 . S
C710 N718 1.356 . S
C711 C710 1.363 . S
C711 C717 1.363 . S
C712 C713 1.363 . S
C712 C717 1.379 . S
C712 N719 1.356 . S
C713 C712 1.363 . S
C713 C716 1.363 . S
N714 C716 1.356 . S
N714 H726 0.984 . S
N714 H727 0.985 . S
N715 C717 1.356 . S
N715 H720 0.984 . S
N715 H721 0.985 . S
C716 C710 1.379 . S
C716 C713 1.363 . S
C716 N714 1.356 . S
C717 C711 1.363 . S
C717 C712 1.379 . S
C717 N715 1.356 . S
N718 C710 1.356 . S
N718 H724 0.984 . S
N718 H725 0.984 . S
N719 C712 1.356 . S
N719 H722 0.984 . S
N719 H723 0.985 . S
H720 N715 0.984 . S
H721 N715 0.985 . S
H722 N719 0.984 . S
H723 N719 0.985 . S
H724 N718 0.984 . S
H725 N718 0.984 . S
H726 N714 0.984 . S
H727 N714 0.985 . S
C728 C729 1.363 . S
C728 C734 1.379 . S
C728 N736 1.356 . S
C729 C728 1.363 . S
C729 C735 1.363 . S
C730 C731 1.363 . S
C730 C735 1.379 . S
C730 N737 1.356 . S
C731 C730 1.363 . S
C731 C734 1.363 . S
N732 C734 1.356 . S
N732 H744 0.984 . S
N732 H745 0.985 . S
N733 C735 1.356 . S
N733 H738 0.984 . S
N733 H739 0.985 . S
C734 C728 1.379 . S
C734 C731 1.363 . S
C734 N732 1.356 . S
C735 C729 1.363 . S
C735 C730 1.379 . S
C735 N733 1.356 . S
N736 C728 1.356 . S
N736 H742 0.984 . S
N736 H743 0.984 . S
N737 C730 1.356 . S
N737 H740 0.984 . S
N737 H741 0.985 . S
H738 N733 0.984 . S
H739 N733 0.985 . S
H740 N737 0.984 . S
H741 N737 0.985 . S
H742 N736 0.984 . S
H743 N736 0.984 . S
H744 N732 0.984 . S
H745 N732 0.985 . S
C746 C747 1.363 1_545 S
C746 C752 1.379 . S
C746 N754 1.356 . S
C747 C746 1.363 1_565 S
C747 C753 1.363 . S
C748 C749 1.363 1_565 S
C748 C753 1.379 . S
C748 N755 1.356 . S
C749 C748 1.363 1_545 S
C749 C752 1.363 . S
N750 C752 1.356 . S
N750 H762 0.984 . S
N750 H763 0.985 . S
N751 C753 1.356 . S
N751 H756 0.984 . S
N751 H757 0.985 . S
C752 C746 1.379 . S
C752 C749 1.363 . S
C752 N750 1.356 . S
C753 C747 1.363 . S
C753 C748 1.379 . S
C753 N751 1.356 . S
N754 C746 1.356 . S
N754 H760 0.984 . S
N754 H761 0.984 . S
N755 C748 1.356 . S
N755 H758 0.984 . S
N755 H759 0.985 . S
H756 N751 0.984 . S
H757 N751 0.985 . S
H758 N755 0.984 . S
H759 N755 0.985 . S
H760 N754 0.984 . S
H761 N754 0.984 . S
H762 N750 0.984 . S
H763 N750 0.985 . S
C764 C765 1.363 . S
C764 C770 1.379 . S
C764 N772 1.356 . S
C765 C764 1.363 . S
C765 C771 1.363 . S
C766 C767 1.363 . S
C766 C771 1.379 . S
C766 N773 1.356 . S
C767 C766 1.363 . S
C767 C770 1.363 . S
N768 C770 1.356 . S
N768 H780 0.984 . S
N768 H781 0.985 . S
N769 C771 1.356 . S
N769 H774 0.984 . S
N769 H775 0.985 . S
C770 C764 1.379 . S
C770 C767 1.363 . S
C770 N768 1.356 . S
C771 C765 1.363 . S
C771 C766 1.379 . S
C771 N769 1.356 . S
N772 C764 1.356 . S
N772 H778 0.984 . S
N772 H779 0.984 . S
N773 C766 1.356 . S
N773 H776 0.984 . S
N773 H777 0.985 . S
H774 N769 0.984 . S
H775 N769 0.985 . S
H776 N773 0.984 . S
H777 N773 0.985 . S
H778 N772 0.984 . S
H779 N772 0.984 . S
H780 N768 0.984 . S
H781 N768 0.985 . S
C782 C783 1.363 1_565 S
C782 C788 1.379 . S
C782 N790 1.356 . S
C783 C782 1.363 1_545 S
C783 C789 1.363 . S
C784 C785 1.363 1_545 S
C784 C789 1.379 . S
C784 N791 1.356 . S
C785 C784 1.363 1_565 S
C785 C788 1.363 . S
N786 C788 1.356 . S
N786 H798 0.984 . S
N786 H799 0.985 . S
N787 C789 1.356 . S
N787 H792 0.984 . S
N787 H793 0.985 . S
C788 C782 1.379 . S
C788 C785 1.363 . S
C788 N786 1.356 . S
C789 C783 1.363 . S
C789 C784 1.379 . S
C789 N787 1.356 . S
N790 C782 1.356 . S
N790 H796 0.984 . S
N790 H797 0.984 . S
N791 C784 1.356 . S
N791 H794 0.984 . S
N791 H795 0.985 . S
H792 N787 0.984 . S
H793 N787 0.985 . S
H794 N791 0.984 . S
H795 N791 0.985 . S
H796 N790 0.984 . S
H797 N790 0.984 . S
H798 N786 0.984 . S
H799 N786 0.985 . S
C800 C801 1.363 . S
C800 C806 1.379 . S
C800 N808 1.356 . S
C801 C800 1.363 . S
C801 C807 1.363 . S
C802 C803 1.363 . S
C802 C807 1.379 . S
C802 N809 1.356 . S
C803 C802 1.363 . S
C803 C806 1.363 . S
N804 C806 1.356 . S
N804 H816 0.984 . S
N804 H817 0.985 . S
N805 C807 1.356 . S
N805 H810 0.984 . S
N805 H811 0.985 . S
C806 C800 1.379 . S
C806 C803 1.363 . S
C806 N804 1.356 . S
C807 C801 1.363 . S
C807 C802 1.379 . S
C807 N805 1.356 . S
N808 C800 1.356 . S
N808 H814 0.984 . S
N808 H815 0.984 . S
N809 C802 1.356 . S
N809 H812 0.984 . S
N809 H813 0.985 . S
H810 N805 0.984 . S
H811 N805 0.985 . S
H812 N809 0.984 . S
H813 N809 0.985 . S
H814 N808 0.984 . S
H815 N808 0.984 . S
H816 N804 0.984 . S
H817 N804 0.985 . S
C818 C819 1.374 . S
C818 C824 1.379 . S
C818 N826 1.356 . S
C819 C818 1.374 . S
C819 C825 1.354 1_556 S
C820 C821 1.363 . S
C820 C825 1.379 . S
C820 N827 1.356 . S
C821 C820 1.363 . S
C821 C824 1.363 1_554 S
N822 C824 1.356 . S
N822 H834 0.984 . S
N822 H835 0.985 . S
N823 C825 1.356 . S
N823 H828 0.984 . S
N823 H829 0.985 . S
C824 C818 1.379 . S
C824 C821 1.363 1_556 S
C824 N822 1.356 . S
C825 C819 1.354 1_554 S
C825 C820 1.379 . S
C825 N823 1.356 . S
N826 C818 1.356 . S
N826 H832 0.984 . S
N826 H833 0.984 . S
N827 C820 1.356 . S
N827 H830 0.984 . S
N827 H831 0.985 . S
H828 N823 0.984 . S
H829 N823 0.985 . S
H830 N827 0.984 . S
H831 N827 0.985 . S
H832 N826 0.984 . S
H833 N826 0.984 . S
H834 N822 0.984 . S
H835 N822 0.985 . S
C836 C837 1.363 1_554 S
C836 C842 1.379 . S
C836 N844 1.356 . S
C837 C836 1.363 1_556 S
C837 C843 1.363 . S
C838 C839 1.363 . S
C838 C843 1.379 . S
C838 N845 1.356 . S
C839 C838 1.363 . S
C839 C842 1.363 1_556 S
N840 C842 1.356 . S
N840 H852 0.984 . S
N840 H853 0.985 . S
N841 C843 1.356 . S
N841 H846 0.984 . S
N841 H847 0.985 . S
C842 C836 1.379 . S
C842 C839 1.363 1_554 S
C842 N840 1.356 . S
C843 C837 1.363 . S
C843 C838 1.379 . S
C843 N841 1.356 . S
N844 C836 1.356 . S
N844 H850 0.984 . S
N844 H851 0.984 . S
N845 C838 1.356 . S
N845 H848 0.984 . S
N845 H849 0.985 . S
H846 N841 0.984 . S
H847 N841 0.985 . S
H848 N845 0.984 . S
H849 N845 0.985 . S
H850 N844 0.984 . S
H851 N844 0.984 . S
H852 N840 0.984 . S
H853 N840 0.985 . S
C854 C855 1.363 . S
C854 C860 1.379 . S
C854 N862 1.356 1_554 S
C855 C854 1.363 . S
C855 C861 1.363 . S
C856 C857 1.363 . S
C856 C861 1.379 . S
C856 N863 1.356 . S
C857 C856 1.363 . S
C857 C860 1.363 . S
N858 C860 1.356 1_556 S
N858 H870 0.984 . S
N858 H871 0.985 . S
N859 C861 1.356 . S
N859 H864 0.984 . S
N859 H865 0.985 . S
C860 C854 1.379 . S
C860 C857 1.363 . S
C860 N858 1.356 1_554 S
C861 C855 1.363 . S
C861 C856 1.379 . S
C861 N859 1.356 . S
N862 C854 1.356 1_556 S
N862 H868 0.984 . S
N862 H869 0.984 . S
N863 C856 1.356 . S
N863 H866 0.984 . S
N863 H867 0.985 . S
H864 N859 0.984 . S
H865 N859 0.985 . S
H866 N863 0.984 . S
H867 N863 0.985 . S
H868 N862 0.984 . S
H869 N862 0.984 . S
H870 N858 0.984 . S
H871 N858 0.985 . S
C872 C873 1.363 1_655 S
C872 C878 1.379 . S
C872 N880 1.356 . S
C873 C872 1.363 1_455 S
C873 C879 1.363 . S
C874 C875 1.363 1_455 S
C874 C879 1.379 . S
C874 N881 1.356 . S
C875 C874 1.363 1_655 S
C875 C878 1.363 . S
N876 C878 1.356 . S
N876 H888 0.984 . S
N876 H889 0.985 . S
N877 C879 1.356 . S
N877 H882 0.984 . S
N877 H883 0.985 . S
C878 C872 1.379 . S
C878 C875 1.363 . S
C878 N876 1.356 . S
C879 C873 1.363 . S
C879 C874 1.379 . S
C879 N877 1.356 . S
N880 C872 1.356 . S
N880 H886 0.984 . S
N880 H887 0.984 . S
N881 C874 1.356 . S
N881 H884 0.984 . S
N881 H885 0.985 . S
H882 N877 0.984 . S
H883 N877 0.985 . S
H884 N881 0.984 . S
H885 N881 0.985 . S
H886 N880 0.984 . S
H887 N880 0.984 . S
H888 N876 0.984 . S
H889 N876 0.985 . S
C890 C891 1.363 1_455 S
C890 C896 1.379 . S
C890 N898 1.356 . S
C891 C890 1.363 1_655 S
C891 C897 1.363 . S
C892 C893 1.363 1_655 S
C892 C897 1.379 . S
C892 N899 1.356 . S
C893 C892 1.363 1_455 S
C893 C896 1.363 . S
N894 C896 1.356 . S
N894 H906 0.984 . S
N894 H907 0.985 . S
N895 C897 1.356 . S
N895 H900 0.984 . S
N895 H901 0.985 . S
C896 C890 1.379 . S
C896 C893 1.363 . S
C896 N894 1.356 . S
C897 C891 1.363 . S
C897 C892 1.379 . S
C897 N895 1.356 . S
N898 C890 1.356 . S
N898 H904 0.984 . S
N898 H905 0.984 . S
N899 C892 1.356 . S
N899 H902 0.984 . S
N899 H903 0.985 . S
H900 N895 0.984 . S
H901 N895 0.985 . S
H902 N899 0.984 . S
H903 N899 0.985 . S
H904 N898 0.984 . S
H905 N898 0.984 . S
H906 N894 0.984 . S
H907 N894 0.985 . S
C908 C909 1.363 . S
C908 C914 1.379 . S
C908 N916 1.356 . S
C909 C908 1.363 . S
C909 C915 1.355 1_455 S
C910 C911 1.363 1_655 S
C910 C915 1.380 . S
C910 N917 1.356 . S
C911 C910 1.363 1_455 S
C911 C914 1.363 . S
N912 C914 1.356 . S
N912 H924 0.984 . S
N912 H925 0.985 . S
N913 C915 1.362 . S
N913 H918 0.987 . S
N913 H919 0.985 . S
C914 C908 1.379 . S
C914 C911 1.363 . S
C914 N912 1.356 . S
C915 C909 1.355 1_655 S
C915 C910 1.380 . S
C915 N913 1.362 . S
N916 C908 1.356 . S
N916 H922 0.984 . S
N916 H923 0.984 . S
N917 C910 1.356 . S
N917 H920 0.984 . S
N917 H921 0.985 . S
H918 N913 0.987 . S
H919 N913 0.985 . S
H920 N917 0.984 . S
H921 N917 0.985 . S
H922 N916 0.984 . S
H923 N916 0.984 . S
H924 N912 0.984 . S
H925 N912 0.985 . S
C926 C927 1.363 . S
C926 C932 1.379 . S
C926 N934 1.356 . S
C927 C926 1.363 . S
C927 C933 1.363 1_655 S
C928 C929 1.355 1_455 S
C928 C933 1.379 . S
C928 N935 1.356 . S
C929 C928 1.355 1_655 S
C929 C932 1.374 . S
N930 C932 1.356 . S
N930 H942 0.984 . S
N930 H943 0.985 . S
N931 C933 1.356 . S
N931 H936 0.984 . S
N931 H937 0.985 . S
C932 C926 1.379 . S
C932 C929 1.374 . S
C932 N930 1.356 . S
C933 C927 1.363 1_455 S
C933 C928 1.379 . S
C933 N931 1.356 . S
N934 C926 1.356 . S
N934 H940 0.984 . S
N934 H941 0.984 . S
N935 C928 1.356 . S
N935 H938 0.984 . S
N935 H939 0.985 . S
H936 N931 0.984 . S
H937 N931 0.985 . S
H938 N935 0.984 . S
H939 N935 0.985 . S
H940 N934 0.984 . S
H941 N934 0.984 . S
H942 N930 0.984 . S
H943 N930 0.985 . S
C944 C945 1.363 . S
C944 C950 1.379 . S
C944 N952 1.356 . S
C945 C944 1.363 . S
C945 C951 1.363 1_545 S
C946 C947 1.363 1_565 S
C946 C951 1.379 . S
C946 N953 1.356 . S
C947 C946 1.363 1_545 S
C947 C950 1.363 . S
N948 C950 1.356 . S
N948 H960 0.984 . S
N948 H961 0.985 . S
N949 C951 1.356 . S
N949 H954 0.984 . S
N949 H955 0.985 . S
C950 C944 1.379 . S
C950 C947 1.363 . S
C950 N948 1.356 . S
C951 C945 1.363 1_565 S
C951 C946 1.379 . S
C951 N949 1.356 . S
N952 C944 1.356 . S
N952 H958 0.984 . S
N952 H959 0.984 . S
N953 C946 1.356 . S
N953 H956 0.984 . S
N953 H957 0.985 . S
H954 N949 0.984 . S
H955 N949 0.985 . S
H956 N953 0.984 . S
H957 N953 0.985 . S
H958 N952 0.984 . S
H959 N952 0.984 . S
H960 N948 0.984 . S
H961 N948 0.985 . S
C962 C963 1.363 . S
C962 C968 1.379 . S
C962 N970 1.356 . S
C963 C962 1.363 . S
C963 C969 1.363 . S
C964 C965 1.363 . S
C964 C969 1.379 . S
C964 N971 1.356 . S
C965 C964 1.363 . S
C965 C968 1.363 . S
N966 C968 1.356 . S
N966 H978 0.984 . S
N966 H979 0.985 . S
N967 C969 1.356 . S
N967 H972 0.984 . S
N967 H973 0.985 . S
C968 C962 1.379 . S
C968 C965 1.363 . S
C968 N966 1.356 . S
C969 C963 1.363 . S
C969 C964 1.379 . S
C969 N967 1.356 . S
N970 C962 1.356 . S
N970 H976 0.984 . S
N970 H977 0.984 . S
N971 C964 1.356 . S
N971 H974 0.984 . S
N971 H975 0.985 . S
H972 N967 0.984 . S
H973 N967 0.985 . S
H974 N971 0.984 . S
H975 N971 0.985 . S
H976 N970 0.984 . S
H977 N970 0.984 . S
H978 N966 0.984 . S
H979 N966 0.985 . S
C980 C981 1.363 1_545 S
C980 C986 1.379 . S
C980 N988 1.356 . S
C981 C980 1.363 1_565 S
C981 C987 1.363 . S
C982 C983 1.363 . S
C982 C987 1.379 . S
C982 N989 1.356 . S
C983 C982 1.363 . S
C983 C986 1.363 1_565 S
N984 C986 1.356 . S
N984 H996 0.984 . S
N984 H997 0.985 . S
N985 C987 1.356 . S
N985 H990 0.984 . S
N985 H991 0.985 . S
C986 C980 1.379 . S
C986 C983 1.363 1_545 S
C986 N984 1.356 . S
C987 C981 1.363 . S
C987 C982 1.379 . S
C987 N985 1.356 . S
N988 C980 1.356 . S
N988 H994 0.984 . S
N988 H995 0.984 . S
N989 C982 1.356 . S
N989 H992 0.984 . S
N989 H993 0.985 . S
H990 N985 0.984 . S
H991 N985 0.985 . S
H992 N989 0.984 . S
H993 N989 0.985 . S
H994 N988 0.984 . S
H995 N988 0.984 . S
H996 N984 0.984 . S
H997 N984 0.985 . S
C998 C999 1.363 . S
C998 C1004 1.379 . S
C998 N1006 1.356 . S
C999 C998 1.363 . S
C999 C1005 1.363 . S
C1000 C1001 1.363 . S
C1000 C1005 1.379 . S
C1000 N1007 1.356 . S
C1001 C1000 1.363 . S
C1001 C1004 1.363 . S
N1002 C1004 1.356 . S
N1002 H1014 0.984 . S
N1002 H1015 0.985 . S
N1003 C1005 1.356 . S
N1003 H1008 0.984 . S
N1003 H1009 0.985 . S
C1004 C998 1.379 . S
C1004 C1001 1.363 . S
C1004 N1002 1.356 . S
C1005 C999 1.363 . S
C1005 C1000 1.379 . S
C1005 N1003 1.356 . S
N1006 C998 1.356 . S
N1006 H1012 0.984 . S
N1006 H1013 0.984 . S
N1007 C1000 1.356 . S
N1007 H1010 0.984 . S
N1007 H1011 0.985 . S
H1008 N1003 0.984 . S
H1009 N1003 0.985 . S
H1010 N1007 0.984 . S
H1011 N1007 0.985 . S
H1012 N1006 0.984 . S
H1013 N1006 0.984 . S
H1014 N1002 0.984 . S
H1015 N1002 0.985 . S
C1016 C1017 1.363 1_556 S
C1016 C1022 1.381 1_556 S
C1016 N1024 1.356 . S
C1017 C1016 1.363 1_554 S
C1017 C1023 1.363 . S
C1018 C1019 1.363 . S
C1018 C1023 1.379 . S
C1018 N1025 1.356 . S
C1019 C1018 1.363 . S
C1019 C1022 1.378 . S
N1020 C1022 1.342 1_556 S
N1020 H1032 0.984 . S
N1020 H1033 0.985 . S
N1021 C1023 1.356 . S
N1021 H1026 0.984 . S
N1021 H1027 0.985 . S
C1022 C1016 1.381 1_554 S
C1022 C1019 1.378 . S
C1022 N1020 1.342 1_554 S
C1023 C1017 1.363 . S
C1023 C1018 1.379 . S
C1023 N1021 1.356 . S
N1024 C1016 1.356 . S
N1024 H1030 0.984 . S
N1024 H1031 0.984 . S
N1025 C1018 1.356 . S
N1025 H1028 0.984 . S
N1025 H1029 0.985 . S
H1026 N1021 0.984 . S
H1027 N1021 0.985 . S
H1028 N1025 0.984 . S
H1029 N1025 0.985 . S
H1030 N1024 0.984 . S
H1031 N1024 0.984 . S
H1032 N1020 0.984 . S
H1033 N1020 0.985 . S
C1034 C1035 1.363 . S
C1034 C1040 1.379 . S
C1034 N1042 1.356 . S
C1035 C1034 1.363 . S
C1035 C1041 1.363 . S
C1036 C1037 1.363 . S
C1036 C1041 1.379 . S
C1036 N1043 1.356 . S
C1037 C1036 1.363 . S
C1037 C1040 1.363 . S
N1038 C1040 1.356 . S
N1038 H1050 0.984 . S
N1038 H1051 0.985 . S
N1039 C1041 1.356 . S
N1039 H1044 0.984 . S
N1039 H1045 0.985 . S
C1040 C1034 1.379 . S
C1040 C1037 1.363 . S
C1040 N1038 1.356 . S
C1041 C1035 1.363 . S
C1041 C1036 1.379 . S
C1041 N1039 1.356 . S
N1042 C1034 1.356 . S
N1042 H1048 0.984 . S
N1042 H1049 0.984 . S
N1043 C1036 1.356 . S
N1043 H1046 0.984 . S
N1043 H1047 0.985 . S
H1044 N1039 0.984 . S
H1045 N1039 0.985 . S
H1046 N1043 0.984 . S
H1047 N1043 0.985 . S
H1048 N1042 0.984 . S
H1049 N1042 0.984 . S
H1050 N1038 0.984 . S
H1051 N1038 0.985 . S
C1052 C1053 1.363 . S
C1052 C1058 1.379 . S
C1052 N1060 1.356 . S
C1053 C1052 1.363 . S
C1053 C1059 1.363 . S
C1054 C1055 1.363 . S
C1054 C1059 1.379 . S
C1054 N1061 1.356 . S
C1055 C1054 1.363 . S
C1055 C1058 1.363 . S
N1056 C1058 1.356 . S
N1056 H1068 0.984 . S
N1056 H1069 0.985 . S
N1057 C1059 1.356 . S
N1057 H1062 0.984 . S
N1057 H1063 0.985 . S
C1058 C1052 1.379 . S
C1058 C1055 1.363 . S
C1058 N1056 1.356 . S
C1059 C1053 1.363 . S
C1059 C1054 1.379 . S
C1059 N1057 1.356 . S
N1060 C1052 1.356 . S
N1060 H1066 0.984 . S
N1060 H1067 0.984 . S
N1061 C1054 1.356 . S
N1061 H1064 0.984 . S
N1061 H1065 0.985 . S
H1062 N1057 0.984 . S
H1063 N1057 0.985 . S
H1064 N1061 0.984 . S
H1065 N1061 0.985 . S
H1066 N1060 0.984 . S
H1067 N1060 0.984 . S
H1068 N1056 0.984 . S
H1069 N1056 0.985 . S
C1070 C1071 1.363 . S
C1070 C1076 1.379 . S
C1070 N1078 1.356 . S
C1071 C1070 1.363 . S
C1071 C1077 1.363 . S
C1072 C1073 1.363 . S
C1072 C1077 1.379 . S
C1072 N1079 1.356 . S
C1073 C1072 1.363 . S
C1073 C1076 1.363 . S
N1074 C1076 1.356 . S
N1074 H1086 0.984 . S
N1074 H1087 0.985 . S
N1075 C1077 1.356 . S
N1075 H1080 0.984 . S
N1075 H1081 0.985 . S
C1076 C1070 1.379 . S
C1076 C1073 1.363 . S
C1076 N1074 1.356 . S
C1077 C1071 1.363 . S
C1077 C1072 1.379 . S
C1077 N1075 1.356 . S
N1078 C1070 1.356 . S
N1078 H1084 0.984 . S
N1078 H1085 0.984 . S
N1079 C1072 1.356 . S
N1079 H1082 0.984 . S
N1079 H1083 0.985 . S
H1080 N1075 0.984 . S
H1081 N1075 0.985 . S
H1082 N1079 0.984 . S
H1083 N1079 0.985 . S
H1084 N1078 0.984 . S
H1085 N1078 0.984 . S
H1086 N1074 0.984 . S
H1087 N1074 0.985 . S
C1088 C1089 1.363 . S
C1088 C1094 1.379 . S
C1088 N1096 1.356 . S
C1089 C1088 1.363 . S
C1089 C1095 1.363 . S
C1090 C1091 1.363 . S
C1090 C1095 1.379 . S
C1090 N1097 1.356 . S
C1091 C1090 1.363 . S
C1091 C1094 1.363 . S
N1092 C1094 1.356 . S
N1092 H1104 0.984 . S
N1092 H1105 0.985 . S
N1093 C1095 1.356 . S
N1093 H1098 0.984 . S
N1093 H1099 0.985 . S
C1094 C1088 1.379 . S
C1094 C1091 1.363 . S
C1094 N1092 1.356 . S
C1095 C1089 1.363 . S
C1095 C1090 1.379 . S
C1095 N1093 1.356 . S
N1096 C1088 1.356 . S
N1096 H1102 0.984 . S
N1096 H1103 0.984 . S
N1097 C1090 1.356 . S
N1097 H1100 0.984 . S
N1097 H1101 0.985 . S
H1098 N1093 0.984 . S
H1099 N1093 0.985 . S
H1100 N1097 0.984 . S
H1101 N1097 0.985 . S
H1102 N1096 0.984 . S
H1103 N1096 0.984 . S
H1104 N1092 0.984 . S
H1105 N1092 0.985 . S
C1106 C1107 1.363 . S
C1106 C1112 1.379 . S
C1106 N1114 1.356 . S
C1107 C1106 1.363 . S
C1107 C1113 1.363 . S
C1108 C1109 1.363 . S
C1108 C1113 1.379 . S
C1108 N1115 1.356 . S
C1109 C1108 1.363 . S
C1109 C1112 1.363 . S
N1110 C1112 1.356 . S
N1110 H1122 0.984 . S
N1110 H1123 0.985 . S
N1111 C1113 1.356 . S
N1111 H1116 0.984 . S
N1111 H1117 0.985 . S
C1112 C1106 1.379 . S
C1112 C1109 1.363 . S
C1112 N1110 1.356 . S
C1113 C1107 1.363 . S
C1113 C1108 1.379 . S
C1113 N1111 1.356 . S
N1114 C1106 1.356 . S
N1114 H1120 0.984 . S
N1114 H1121 0.984 . S
N1115 C1108 1.356 . S
N1115 H1118 0.984 . S
N1115 H1119 0.985 . S
H1116 N1111 0.984 . S
H1117 N1111 0.985 . S
H1118 N1115 0.984 . S
H1119 N1115 0.985 . S
H1120 N1114 0.984 . S
H1121 N1114 0.984 . S
H1122 N1110 0.984 . S
H1123 N1110 0.985 . S
C1124 C1125 1.363 . S
C1124 C1130 1.379 . S
C1124 N1132 1.356 . S
C1125 C1124 1.363 . S
C1125 C1131 1.363 . S
C1126 C1127 1.363 . S
C1126 C1131 1.379 . S
C1126 N1133 1.356 . S
C1127 C1126 1.363 . S
C1127 C1130 1.363 . S
N1128 C1130 1.356 . S
N1128 H1140 0.984 . S
N1128 H1141 0.985 . S
N1129 C1131 1.356 . S
N1129 H1134 0.984 . S
N1129 H1135 0.985 . S
C1130 C1124 1.379 . S
C1130 C1127 1.363 . S
C1130 N1128 1.356 . S
C1131 C1125 1.363 . S
C1131 C1126 1.379 . S
C1131 N1129 1.356 . S
N1132 C1124 1.356 . S
N1132 H1138 0.984 . S
N1132 H1139 0.984 . S
N1133 C1126 1.356 . S
N1133 H1136 0.984 . S
N1133 H1137 0.985 . S
H1134 N1129 0.984 . S
H1135 N1129 0.985 . S
H1136 N1133 0.984 . S
H1137 N1133 0.985 . S
H1138 N1132 0.984 . S
H1139 N1132 0.984 . S
H1140 N1128 0.984 . S
H1141 N1128 0.985 . S
C1142 C1143 1.363 . S
C1142 C1148 1.379 . S
C1142 N1150 1.356 . S
C1143 C1142 1.363 . S
C1143 C1149 1.363 . S
C1144 C1145 1.363 . S
C1144 C1149 1.379 . S
C1144 N1151 1.356 . S
C1145 C1144 1.363 . S
C1145 C1148 1.363 . S
N1146 C1148 1.356 . S
N1146 H1158 0.984 . S
N1146 H1159 0.985 . S
N1147 C1149 1.356 . S
N1147 H1152 0.984 . S
N1147 H1153 0.985 . S
C1148 C1142 1.379 . S
C1148 C1145 1.363 . S
C1148 N1146 1.356 . S
C1149 C1143 1.363 . S
C1149 C1144 1.379 . S
C1149 N1147 1.356 . S
N1150 C1142 1.356 . S
N1150 H1156 0.984 . S
N1150 H1157 0.984 . S
N1151 C1144 1.356 . S
N1151 H1154 0.984 . S
N1151 H1155 0.985 . S
H1152 N1147 0.984 . S
H1153 N1147 0.985 . S
H1154 N1151 0.984 . S
H1155 N1151 0.985 . S
H1156 N1150 0.984 . S
H1157 N1150 0.984 . S
H1158 N1146 0.984 . S
H1159 N1146 0.985 . S
C1160 C1161 1.363 . S
C1160 C1166 1.379 . S
C1160 N1168 1.356 . S
C1161 C1160 1.363 . S
C1161 C1167 1.363 . S
C1162 C1163 1.363 . S
C1162 C1167 1.379 . S
C1162 N1169 1.356 . S
C1163 C1162 1.363 . S
C1163 C1166 1.363 . S
N1164 C1166 1.356 . S
N1164 H1176 0.984 . S
N1164 H1177 0.985 . S
N1165 C1167 1.356 . S
N1165 H1170 0.984 . S
N1165 H1171 0.985 . S
C1166 C1160 1.379 . S
C1166 C1163 1.363 . S
C1166 N1164 1.356 . S
C1167 C1161 1.363 . S
C1167 C1162 1.379 . S
C1167 N1165 1.356 . S
N1168 C1160 1.356 . S
N1168 H1174 0.984 . S
N1168 H1175 0.984 . S
N1169 C1162 1.356 . S
N1169 H1172 0.984 . S
N1169 H1173 0.985 . S
H1170 N1165 0.984 . S
H1171 N1165 0.985 . S
H1172 N1169 0.984 . S
H1173 N1169 0.985 . S
H1174 N1168 0.984 . S
H1175 N1168 0.984 . S
H1176 N1164 0.984 . S
H1177 N1164 0.985 . S
C1178 C1179 1.363 1_545 S
C1178 C1184 1.379 . S
C1178 N1186 1.356 . S
C1179 C1178 1.363 1_565 S
C1179 C1185 1.363 . S
C1180 C1181 1.357 1_565 S
C1180 C1185 1.379 . S
C1180 N1187 1.356 . S
C1181 C1180 1.357 1_545 S
C1181 C1184 1.369 . S
N1182 C1184 1.356 . S
N1182 H1194 0.984 . S
N1182 H1195 0.985 . S
N1183 C1185 1.356 . S
N1183 H1188 0.984 . S
N1183 H1189 0.985 . S
C1184 C1178 1.379 . S
C1184 C1181 1.369 . S
C1184 N1182 1.356 . S
C1185 C1179 1.363 . S
C1185 C1180 1.379 . S
C1185 N1183 1.356 . S
N1186 C1178 1.356 . S
N1186 H1192 0.984 . S
N1186 H1193 0.984 . S
N1187 C1180 1.356 . S
N1187 H1190 0.984 . S
N1187 H1191 0.985 . S
H1188 N1183 0.984 . S
H1189 N1183 0.985 . S
H1190 N1187 0.984 . S
H1191 N1187 0.985 . S
H1192 N1186 0.984 . S
H1193 N1186 0.984 . S
H1194 N1182 0.984 . S
H1195 N1182 0.985 . S
C1196 C1197 1.363 . S
C1196 C1202 1.379 . S
C1196 N1204 1.356 . S
C1197 C1196 1.363 . S
C1197 C1203 1.363 . S
C1198 C1199 1.363 . S
C1198 C1203 1.379 . S
C1198 N1205 1.356 . S
C1199 C1198 1.363 . S
C1199 C1202 1.363 . S
N1200 C1202 1.356 . S
N1200 H1212 0.984 . S
N1200 H1213 0.985 . S
N1201 C1203 1.356 . S
N1201 H1206 0.984 . S
N1201 H1207 0.985 . S
C1202 C1196 1.379 . S
C1202 C1199 1.363 . S
C1202 N1200 1.356 . S
C1203 C1197 1.363 . S
C1203 C1198 1.379 . S
C1203 N1201 1.356 . S
N1204 C1196 1.356 . S
N1204 H1210 0.984 . S
N1204 H1211 0.984 . S
N1205 C1198 1.356 . S
N1205 H1208 0.984 . S
N1205 H1209 0.985 . S
H1206 N1201 0.984 . S
H1207 N1201 0.985 . S
H1208 N1205 0.984 . S
H1209 N1205 0.985 . S
H1210 N1204 0.984 . S
H1211 N1204 0.984 . S
H1212 N1200 0.984 . S
H1213 N1200 0.985 . S
C1214 C1215 1.363 1_565 S
C1214 C1220 1.379 . S
C1214 N1222 1.356 . S
C1215 C1214 1.363 1_545 S
C1215 C1221 1.363 . S
C1216 C1217 1.363 1_545 S
C1216 C1221 1.379 . S
C1216 N1223 1.356 . S
C1217 C1216 1.363 1_565 S
C1217 C1220 1.363 . S
N1218 C1220 1.356 . S
N1218 H1230 0.984 . S
N1218 H1231 0.985 . S
N1219 C1221 1.356 . S
N1219 H1224 0.984 . S
N1219 H1225 0.985 . S
C1220 C1214 1.379 . S
C1220 C1217 1.363 . S
C1220 N1218 1.356 . S
C1221 C1215 1.363 . S
C1221 C1216 1.379 . S
C1221 N1219 1.356 . S
N1222 C1214 1.356 . S
N1222 H1228 0.984 . S
N1222 H1229 0.984 . S
N1223 C1216 1.356 . S
N1223 H1226 0.984 1_545 S
N1223 H1227 0.985 . S
H1224 N1219 0.984 . S
H1225 N1219 0.985 . S
H1226 N1223 0.984 1_565 S
H1227 N1223 0.985 . S
H1228 N1222 0.984 . S
H1229 N1222 0.984 . S
H1230 N1218 0.984 . S
H1231 N1218 0.985 . S
C1232 C1233 1.363 . S
C1232 C1238 1.379 . S
C1232 N1240 1.356 . S
C1233 C1232 1.363 . S
C1233 C1239 1.363 . S
C1234 C1235 1.363 . S
C1234 C1239 1.379 . S
C1234 N1241 1.356 . S
C1235 C1234 1.363 . S
C1235 C1238 1.363 . S
N1236 C1238 1.356 . S
N1236 H1248 0.984 . S
N1236 H1249 0.985 . S
N1237 C1239 1.356 . S
N1237 H1242 0.984 . S
N1237 H1243 0.985 . S
C1238 C1232 1.379 . S
C1238 C1235 1.363 . S
C1238 N1236 1.356 . S
C1239 C1233 1.363 . S
C1239 C1234 1.379 . S
C1239 N1237 1.356 . S
N1240 C1232 1.356 . S
N1240 H1246 0.984 . S
N1240 H1247 0.984 . S
N1241 C1234 1.356 . S
N1241 H1244 0.984 . S
N1241 H1245 0.985 . S
H1242 N1237 0.984 . S
H1243 N1237 0.985 . S
H1244 N1241 0.984 . S
H1245 N1241 0.985 . S
H1246 N1240 0.984 . S
H1247 N1240 0.984 . S
H1248 N1236 0.984 . S
H1249 N1236 0.985 . S
C1250 C1251 1.363 1_554 S
C1250 C1256 1.388 . S
C1250 N1258 1.356 . S
C1251 C1250 1.363 1_556 S
C1251 C1257 1.363 . S
C1252 C1253 1.363 . S
C1252 C1257 1.379 . S
C1252 N1259 1.356 . S
C1253 C1252 1.363 . S
C1253 C1256 1.334 1_556 S
N1254 C1256 1.369 . S
N1254 H1266 0.984 . S
N1254 H1267 0.985 . S
N1255 C1257 1.356 . S
N1255 H1260 0.984 . S
N1255 H1261 0.985 . S
C1256 C1250 1.388 . S
C1256 C1253 1.334 1_554 S
C1256 N1254 1.369 . S
C1257 C1251 1.363 . S
C1257 C1252 1.379 . S
C1257 N1255 1.356 . S
N1258 C1250 1.356 . S
N1258 H1264 0.984 . S
N1258 H1265 0.984 . S
N1259 C1252 1.356 . S
N1259 H1262 0.984 . S
N1259 H1263 0.985 . S
H1260 N1255 0.984 . S
H1261 N1255 0.985 . S
H1262 N1259 0.984 . S
H1263 N1259 0.985 . S
H1264 N1258 0.984 . S
H1265 N1258 0.984 . S
H1266 N1254 0.984 . S
H1267 N1254 0.985 . S
C1268 C1269 1.363 1_554 S
C1268 C1274 1.379 1_554 S
C1268 N1276 1.356 . S
C1269 C1268 1.363 1_556 S
C1269 C1275 1.363 . S
C1270 C1271 1.363 . S
C1270 C1275 1.379 . S
C1270 N1277 1.356 . S
C1271 C1270 1.363 . S
C1271 C1274 1.363 . S
N1272 C1274 1.356 1_554 S
N1272 H1284 0.984 . S
N1272 H1285 0.985 1_554 S
N1273 C1275 1.356 . S
N1273 H1278 0.984 . S
N1273 H1279 0.985 . S
C1274 C1268 1.379 1_556 S
C1274 C1271 1.363 . S
C1274 N1272 1.356 1_556 S
C1275 C1269 1.363 . S
C1275 C1270 1.379 . S
C1275 N1273 1.356 . S
N1276 C1268 1.356 . S
N1276 H1282 0.984 . S
N1276 H1283 0.984 . S
N1277 C1270 1.356 . S
N1277 H1280 0.984 . S
N1277 H1281 0.985 . S
H1278 N1273 0.984 . S
H1279 N1273 0.985 . S
H1280 N1277 0.984 . S
H1281 N1277 0.985 . S
H1282 N1276 0.984 . S
H1283 N1276 0.984 . S
H1284 N1272 0.984 . S
H1285 N1272 0.985 1_556 S
C1286 C1287 1.363 . S
C1286 C1292 1.379 . S
C1286 N1294 1.356 . S
C1287 C1286 1.363 . S
C1287 C1293 1.363 1_554 S
C1288 C1289 1.363 1_556 S
C1288 C1293 1.379 . S
C1288 N1295 1.356 . S
C1289 C1288 1.363 1_554 S
C1289 C1292 1.363 . S
N1290 C1292 1.356 . S
N1290 H1302 0.984 . S
N1290 H1303 0.985 . S
N1291 C1293 1.356 . S
N1291 H1296 0.984 . S
N1291 H1297 0.985 . S
C1292 C1286 1.379 . S
C1292 C1289 1.363 . S
C1292 N1290 1.356 . S
C1293 C1287 1.363 1_556 S
C1293 C1288 1.379 . S
C1293 N1291 1.356 . S
N1294 C1286 1.356 . S
N1294 H1300 0.984 . S
N1294 H1301 0.984 . S
N1295 C1288 1.356 . S
N1295 H1298 0.984 . S
N1295 H1299 0.985 . S
H1296 N1291 0.984 . S
H1297 N1291 0.985 . S
H1298 N1295 0.984 . S
H1299 N1295 0.985 . S
H1300 N1294 0.984 . S
H1301 N1294 0.984 . S
H1302 N1290 0.984 . S
H1303 N1290 0.985 . S
C441 C13 1.626 . S
C443 C236 1.647 . S
C461 C299 1.821 1_455 S
C459 C1 1.837 . S
C479 C176 1.852 . S
C477 C27 1.839 . S
C495 C15 1.736 . S
C497 C210 1.718 . S
C513 C28 1.819 . S
C515 C414 1.803 1_554 S
C531 C55 1.156 . S
C533 C385 1.139 . S
C551 C308 2.025 . S
C549 C40 2.146 . S
C567 C43 1.427 . S
C569 C342 1.403 . S
C587 C231 1.934 . S
C585 C56 1.967 . S
C605 C274 1.364 . S
C603 C83 1.390 . S
C621 C96 1.958 . S
C623 C253 1.898 . S
C639 C71 1.577 . S
C641 C367 1.560 . S
C659 C372 1.648 . S
C657 C99 1.626 . S
C677 C435 1.821 . S
C675 C111 1.837 . S
C693 C113 1.839 . S
C695 C346 1.852 . S
C713 C312 1.718 . S
C711 C125 1.736 . S
C729 C139 1.821 . S
C731 C278 1.802 . S
C747 C153 1.156 . S
C749 C249 1.139 . S
C767 C206 2.025 . S
C765 C127 2.149 . S
C783 C141 1.427 . S
C785 C172 1.403 . S
C803 C333 1.934 . S
C801 C84 1.967 . S
C821 C410 1.364 1_554 S
C819 C154 1.385 1_556 S
C837 C68 1.958 . S
C839 C389 1.898 . S
C855 C166 1.576 . S
C857 C197 1.560 . S
C875 C181 1.206 . S
C873 C0 1.257 . S
C891 C12 1.192 . S
C893 C215 1.183 . S
C911 C240 1.067 . S
C909 C14 1.108 . S
C929 C287 1.929 . S
C927 C26 1.931 . S
C945 C41 1.624 . S
C947 C168 1.573 . S
C963 C42 1.474 . S
C965 C202 1.450 . S
C983 C244 1.608 . S
C981 C29 1.668 1_565 S
C999 C54 1.253 . S
C1001 C283 1.148 . S
C1017 C69 1.749 . S
C1019 C185 1.687 . S
C1037 C265 1.754 . S
C1035 C70 1.814 . S
C1053 C85 1.630 . S
C1055 C270 1.628 . S
C1071 C82 1.569 . S
C1073 C321 1.534 . S
C1091 C351 1.206 . S
C1089 C110 1.256 . S
C1107 C98 1.193 . S
C1109 C317 1.183 . S
C1125 C124 1.108 . S
C1127 C376 1.067 . S
C1143 C112 1.931 . S
C1145 C423 1.928 . S
C1161 C126 1.625 . S
C1163 C338 1.573 . S
C1181 C304 1.448 1_545 S
C1179 C140 1.474 . S
C1197 C138 1.669 . S
C1199 C380 1.608 . S
C1217 C419 1.147 . S
C1215 C152 1.252 . S
C1235 C355 1.687 . S
C1233 C97 1.749 . S
C1253 C401 1.754 . S
C1251 C167 1.814 . S
C1271 C406 1.628 . S
C1269 C57 1.630 . S
C1287 C155 1.568 . S
C1289 C219 1.535 . S
