# Generated by pormake.
# Topology tsx, (6,3)-cn, num edge types: 1
# Building blocks:
#     Node 0, Type 0, BuildingBlock: CIFDUS_clean_sbu_1, # of connection points: 6
#     Node 1, Type 0, BuildingBlock: CIFDUS_clean_sbu_1, # of connection points: 6
#     Node 2, Type 1, BuildingBlock: OLANEW_clean_sbu_2, # of connection points: 3
#     Node 3, Type 1, BuildingBlock: OLANEW_clean_sbu_2, # of connection points: 3
#     Node 4, Type 1, BuildingBlock: OLANEW_clean_sbu_2, # of connection points: 3
#     Node 5, Type 1, BuildingBlock: OLANEW_clean_sbu_2, # of connection points: 3
#     Edge 6, Type (0, 1), BuildingBlock: CIFDUS_clean_linker_0, # of connection points: 2
#     Edge 7, Type (0, 1), BuildingBlock: CIFDUS_clean_linker_0, # of connection points: 2
#     Edge 8, Type (0, 1), BuildingBlock: CIFDUS_clean_linker_0, # of connection points: 2
#     Edge 9, Type (0, 1), BuildingBlock: CIFDUS_clean_linker_0, # of connection points: 2
#     Edge 10, Type (0, 1), BuildingBlock: CIFDUS_clean_linker_0, # of connection points: 2
#     Edge 11, Type (0, 1), BuildingBlock: CIFDUS_clean_linker_0, # of connection points: 2
#     Edge 12, Type (0, 1), BuildingBlock: CIFDUS_clean_linker_0, # of connection points: 2
#     Edge 13, Type (0, 1), BuildingBlock: CIFDUS_clean_linker_0, # of connection points: 2
#     Edge 14, Type (0, 1), BuildingBlock: CIFDUS_clean_linker_0, # of connection points: 2
#     Edge 15, Type (0, 1), BuildingBlock: CIFDUS_clean_linker_0, # of connection points: 2
#     Edge 16, Type (0, 1), BuildingBlock: CIFDUS_clean_linker_0, # of connection points: 2
#     Edge 17, Type (0, 1), BuildingBlock: CIFDUS_clean_linker_0, # of connection points: 2
# Relax obj value: 0.039
# Max RMSD: 0.094
# Mean RMSD: 0.050
data_MOF--net-tsx--node1-CIFDUS_clean_sbu_1--node2-OLANEW_clean_sbu_2--edge1-CIFDUS_clean_linker_0
_symmetry_space_group_name_H-M    P1
_symmetry_Int_Tables_number       1
_symmetry_cell_setting            triclinic
loop_
_symmetry_equiv_pos_as_xyz
'x, y, z'
_cell_length_a     18.169288
_cell_length_b     22.008782
_cell_length_c     30.712385
_cell_angle_alpha  102.67911
_cell_angle_beta   92.212738
_cell_angle_gamma 90.896691
loop_
_atom_site_label
_atom_site_type_symbol
_atom_site_fract_x
_atom_site_fract_y
_atom_site_fract_z
_atom_type_partial_charge
O0 O 0.9667 0.08673 0.00621 0.0
Mn1 Mn 0.03359 0.00915 0.9982 0.0
O2 O 0.87604 0.0581 0.9528 0.0
Mn3 Mn 0.90445 0.97713 0.92983 0.0
O4 O 0.10057 0.93092 0.98905 0.0
O5 O 0.12027 0.06618 0.02084 0.0
Mn6 Mn 0.17254 0.03813 0.06116 0.0
O7 O 0.0109 -0.00124 0.06326 0.0
O8 O 0.2034 0.96087 0.03232 0.0
O9 O 0.05846 0.02036 0.93385 0.0
O10 O 0.97261 0.96654 0.8862 0.0
O11 O 0.22043 0.11011 0.05513 0.0
O12 O 0.11123 0.03609 0.10704 0.0
C13 C 0.89137 0.91211 0.97091 0.0
C14 C 0.90757 0.09761 0.98515 0.0
C15 C 0.165 0.92024 0.00422 0.0
C16 C 0.16805 0.11136 0.02562 0.0
C17 C 0.04598 0.01308 0.10157 0.0
C18 C 0.03385 -0.00389 0.89391 0.0
O19 O 0.94526 0.95257 0.97571 0.0
O20 O 0.84594 0.9122 0.93739 0.0
O21 O 0.44578 0.58384 0.5117 0.0
Mn22 Mn 0.52423 0.51169 0.50848 0.0
O23 O 0.33922 0.53365 0.49568 0.0
Mn24 Mn 0.38733 0.47426 0.45708 0.0
O25 O 0.60525 0.44452 0.50657 0.0
O26 O 0.6004 0.58145 0.52819 0.0
Mn27 Mn 0.65189 0.56501 0.57391 0.0
O28 O 0.5024 0.50664 0.57491 0.0
O29 O 0.69911 0.4912 0.55236 0.0
O30 O 0.54461 0.51295 0.44191 0.0
O31 O 0.43077 0.49794 0.41019 0.0
O32 O 0.69212 0.63773 0.56574 0.0
O33 O 0.58935 0.56507 0.61943 0.0
C34 C 0.40521 0.38997 0.47291 0.0
C35 C 0.37498 0.58395 0.51004 0.0
C36 C 0.67042 0.44441 0.52452 0.0
C37 C 0.6443 0.62966 0.53246 0.0
C38 C 0.53034 0.53215 0.61396 0.0
C39 C 0.4995 0.50742 0.40794 0.0
O40 O 0.45152 0.43726 0.48677 0.0
O41 O 0.3496 0.39687 0.44681 0.0
O42 O 0.11168 0.97275 0.37077 0.0
Cd43 Cd 0.12822 -0.00136 0.45282 0.0
O44 O 0.99913 0.00829 0.37148 0.0
Cd45 Cd 0.99661 0.04317 0.44331 0.0
O46 O 0.93444 0.12099 0.47832 0.0
C47 C 0.86476 0.1151 0.47325 0.0
O48 O 0.83569 0.06107 0.45223 0.0
C49 C 0.05276 0.98272 0.34987 0.0
C50 C 0.20597 0.90743 0.48479 0.0
O51 O 0.13613 0.90263 0.47665 0.0
O52 O 0.23971 0.95606 0.47832 0.0
O53 O 0.03731 0.12206 0.65896 0.0
Cd54 Cd 0.02041 0.15803 0.59056 0.0
O55 O 0.04048 0.03053 0.61489 0.0
Cd56 Cd 0.03875 0.93137 0.58399 0.0
O57 O 0.97714 0.85501 0.53956 0.0
C58 C 0.91463 0.86818 0.52441 0.0
O59 O 0.89264 0.92593 0.53534 0.0
C60 C 0.04565 0.064 0.65441 0.0
C61 C 0.15964 0.19726 0.57404 0.0
O62 O 0.11756 0.23224 0.60078 0.0
O63 O 0.13469 0.14359 0.55302 0.0
O64 O 0.51122 0.42429 0.86263 0.0
Cd65 Cd 0.51738 0.42862 0.9436 0.0
O66 O 0.56553 0.5114 0.89504 0.0
Cd67 Cd 0.6055 0.60722 0.91438 0.0
O68 O 0.52964 0.6754 0.94691 0.0
C69 C 0.4621 0.66487 0.93466 0.0
O70 O 0.44348 0.61661 0.9024 0.0
C71 C 0.53645 0.47714 0.8595 0.0
C72 C 0.61249 0.34751 0.97351 0.0
O73 O 0.54415 0.33345 0.96393 0.0
O74 O 0.63693 0.40023 0.96816 0.0
O75 O 0.63059 0.53702 0.13928 0.0
Cd76 Cd 0.62914 0.53173 0.05976 0.0
O77 O 0.53427 0.47336 0.13354 0.0
Cd78 Cd 0.5067 0.45454 0.06174 0.0
O79 O 0.41651 0.4005 0.02092 0.0
C80 C 0.35163 0.41719 0.0313 0.0
O81 O 0.34375 0.4691 0.0613 0.0
C82 C 0.58456 0.50749 0.15732 0.0
C83 C 0.68646 0.64551 0.0504 0.0
O84 O 0.61689 0.63672 0.05256 0.0
O85 O 0.72866 0.59963 0.05121 0.0
H86 H 0.10887 0.22431 0.04736 0.0
H87 H 0.23858 0.10818 0.94948 0.0
H88 H 0.30296 0.20006 0.93572 0.0
H89 H 0.34469 0.30858 0.96758 0.0
H90 H 0.21713 0.42369 0.06817 0.0
H91 H 0.12937 0.33788 0.06449 0.0
C92 C 0.1481 0.21962 0.02112 0.0
C93 C 0.16955 0.15992 0.9997 0.0
C94 C 0.18748 0.27252 0.01525 0.0
C95 C 0.22096 0.15393 0.96614 0.0
C96 C 0.2589 0.20646 0.95899 0.0
C97 C 0.29649 0.31542 0.98771 0.0
C98 C 0.28892 0.37185 0.01915 0.0
C99 C 0.24642 0.26539 0.9859 0.0
C100 C 0.22528 0.38043 0.04427 0.0
C101 C 0.17493 0.33122 0.0423 0.0
H102 H 0.2716 0.87069 0.04725 0.0
H103 H 0.1365 0.83358 0.92525 0.0
H104 H 0.21308 0.74465 0.89445 0.0
H105 H 0.32889 0.68771 0.89894 0.0
H106 H 0.46815 0.73419 0.01923 0.0
H107 H 0.37947 0.80977 0.05406 0.0
C108 C 0.25838 0.84298 0.01396 0.0
C109 C 0.19971 0.8596 0.9881 0.0
C110 C 0.30408 0.79426 0.99606 0.0
C111 C 0.18187 0.82203 0.94565 0.0
C112 C 0.22599 0.77159 0.92796 0.0
C113 C 0.33919 0.71404 0.93293 0.0
C114 C 0.40535 0.70645 0.95634 0.0
C115 C 0.28894 0.7589 0.95226 0.0
C116 C 0.41825 0.74034 0.00036 0.0
C117 C 0.36749 0.78326 0.02032 0.0
H118 H 0.76024 0.90194 0.00383 0.0
H119 H 0.98099 0.83408 0.00655 0.0
H120 H 0.93651 0.74653 0.0372 0.0
H121 H 0.83112 0.68061 0.04978 0.0
H122 H 0.60995 0.74793 0.04193 0.0
H123 H 0.65817 0.84449 0.02646 0.0
C124 C 0.7989 0.86884 0.01238 0.0
C125 C 0.87337 0.87355 0.00265 0.0
C126 C 0.77241 0.81785 0.02787 0.0
C127 C 0.92343 0.83121 0.01405 0.0
C128 C 0.89771 0.7808 0.03088 0.0
C129 C 0.79359 0.7167 0.04514 0.0
C130 C 0.7169 0.70644 0.04594 0.0
C131 C 0.82173 0.77205 0.03567 0.0
C132 C 0.66904 0.75412 0.04076 0.0
C133 C 0.69658 0.80947 0.03203 0.0
H134 H 0.76954 0.11198 0.00997 0.0
H135 H 0.9624 0.2151 0.9876 0.0
H136 H 0.88754 0.30724 0.98738 0.0
H137 H 0.7634 0.35104 0.98099 0.0
H138 H 0.57157 0.24297 0.00017 0.0
H139 H 0.64977 0.16036 0.01463 0.0
C140 C 0.79534 0.15537 0.00643 0.0
C141 C 0.87068 0.15723 0.99862 0.0
C142 C 0.75183 0.20671 0.00488 0.0
C143 C 0.90427 0.21317 0.994 0.0
C144 C 0.86131 0.2654 0.99331 0.0
C145 C 0.73893 0.30983 0.98905 0.0
C146 C 0.66165 0.3025 0.98845 0.0
C147 C 0.7844 0.26167 0.99668 0.0
C148 C 0.63074 0.24922 0.99947 0.0
C149 C 0.67539 0.20196 0.00789 0.0
H150 H 0.74395 0.61581 0.47045 0.0
H151 H 0.56939 0.7339 0.52609 0.0
H152 H 0.64061 0.82599 0.51876 0.0
H153 H 0.76539 0.87155 0.52013 0.0
H154 H 0.94706 0.75143 0.47887 0.0
H155 H 0.86195 0.66185 0.45748 0.0
C156 C 0.71991 0.66159 0.47834 0.0
C157 C 0.65258 0.66845 0.49974 0.0
C158 C 0.76488 0.71424 0.47904 0.0
C159 C 0.62137 0.72753 0.50972 0.0
C160 C 0.66317 0.78036 0.50676 0.0
C161 C 0.78606 0.82608 0.50521 0.0
C162 C 0.86249 0.81774 0.50198 0.0
C163 C 0.73724 0.77429 0.49529 0.0
C164 C 0.88856 0.75868 0.48248 0.0
C165 C 0.83987 0.7075 0.47016 0.0
H166 H 0.62342 0.32251 0.50394 0.0
H167 H 0.81879 0.44074 0.52054 0.0
H168 H 0.89621 0.34962 0.50791 0.0
H169 H 0.90903 0.2367 0.49344 0.0
H170 H 0.71489 0.11708 0.47699 0.0
H171 H 0.63664 0.20816 0.48915 0.0
C172 C 0.68289 0.32809 0.50437 0.0
C173 C 0.71537 0.38819 0.51324 0.0
C174 C 0.72741 0.27532 0.49784 0.0
C175 C 0.79253 0.39491 0.51411 0.0
C176 C 0.8369 0.34287 0.50697 0.0
C177 C 0.84963 0.23049 0.49293 0.0
C178 C 0.81787 0.17021 0.48451 0.0
C179 C 0.80503 0.28292 0.49932 0.0
C180 C 0.74075 0.16305 0.48348 0.0
C181 C 0.69592 0.2151 0.49024 0.0
H182 H 0.41328 0.37751 0.55738 0.0
H183 H 0.39484 0.27302 0.42165 0.0
H184 H 0.3238 0.19098 0.44423 0.0
H185 H 0.23711 0.16749 0.49853 0.0
H186 H 0.24699 0.27932 0.63292 0.0
H187 H 0.35222 0.33869 0.61581 0.0
C188 C 0.39818 0.33473 0.53353 0.0
C189 C 0.40797 0.33146 0.4882 0.0
C190 C 0.35295 0.2901 0.54644 0.0
C191 C 0.38726 0.2764 0.45693 0.0
C192 C 0.3453 0.23007 0.46971 0.0
C193 C 0.26395 0.20355 0.52434 0.0
C194 C 0.23324 0.22066 0.56641 0.0
C195 C 0.32272 0.2392 0.51374 0.0
C196 C 0.26864 0.26683 0.59984 0.0
C197 C 0.32891 0.30067 0.59014 0.0
H198 H 0.42413 0.70777 0.53414 0.0
H199 H 0.22947 0.59136 0.49003 0.0
H200 H 0.16147 0.68039 0.47968 0.0
H201 H 0.15669 0.78962 0.47815 0.0
H202 H 0.34642 0.91046 0.52243 0.0
H203 H 0.41522 0.82245 0.53902 0.0
C204 C 0.36651 0.70221 0.52317 0.0
C205 C 0.3329 0.64222 0.51267 0.0
C206 C 0.32615 0.7546 0.51731 0.0
C207 C 0.25777 0.63635 0.49849 0.0
C208 C 0.21824 0.68747 0.49229 0.0
C209 C 0.21287 0.79706 0.49189 0.0
C210 C 0.24655 0.85631 0.49858 0.0
C211 C 0.252 0.74648 0.50083 0.0
C212 C 0.31947 0.86496 0.51639 0.0
C213 C 0.35882 0.81463 0.52591 0.0
H214 H 0.10355 0.93136 0.14424 0.0
H215 H 0.92714 0.06065 0.1491 0.0
H216 H 0.90766 0.05626 0.22715 0.0
H217 H 0.95517 0.02873 0.29653 0.0
H218 H 0.1401 0.90691 0.29202 0.0
H219 H 0.14199 0.89492 0.21111 0.0
C220 C 0.05916 0.95686 0.16207 0.0
C221 C 0.0164 -0.0041 0.14124 0.0
C222 C 0.05118 0.95643 0.20717 0.0
C223 C 0.95971 0.02952 0.16441 0.0
C224 C 0.94952 0.02768 0.20916 0.0
C225 C 0.99509 -0.00133 0.27776 0.0
C226 C 0.04806 0.96927 0.30039 0.0
C227 C 0.99713 -0.00661 0.23136 0.0
C228 C 0.09942 0.93062 0.27555 0.0
C229 C 0.1004 0.92366 0.22928 0.0
H230 H 0.05288 0.92306 0.8123 0.0
H231 H 0.08076 0.11176 0.88879 0.0
H232 H 0.0916 0.14918 0.81995 0.0
H233 H 0.07532 0.12953 0.73863 0.0
H234 H 0.04594 0.94087 0.66164 0.0
H235 H 0.0552 0.90193 0.73008 0.0
C236 C 0.06401 0.97207 0.81379 0.0
C237 C 0.06599 0.01466 0.85535 0.0
C238 C 0.06864 -0.00672 0.77406 0.0
C239 C 0.08013 0.07808 0.85718 0.0
C240 C 0.08516 0.09954 0.81779 0.0
C241 C 0.0714 0.07974 0.73659 0.0
C242 C 0.05817 0.03832 0.69484 0.0
C243 C 0.07642 0.05778 0.7761 0.0
C244 C 0.055 0.974 0.69303 0.0
C245 C 0.06034 0.95166 0.7323 0.0
H246 H 0.5307 0.607 0.6957 0.0
H247 H 0.47404 0.42001 0.62436 0.0
H248 H 0.46565 0.3868 0.69509 0.0
H249 H 0.49244 0.40846 0.77692 0.0
H250 H 0.55683 0.59558 0.84566 0.0
H251 H 0.54623 0.63049 0.77672 0.0
C252 C 0.51459 0.55929 0.69567 0.0
C253 C 0.5025 0.51615 0.65481 0.0
C254 C 0.51394 0.54 0.73619 0.0
C255 C 0.48178 0.4545 0.65525 0.0
C256 C 0.47863 0.43524 0.69578 0.0
C257 C 0.50384 0.45695 0.77689 0.0
C258 C 0.5274 0.49877 0.81695 0.0
C259 C 0.49761 0.47712 0.7364 0.0
C260 C 0.54096 0.5615 0.81596 0.0
C261 C 0.534 0.58196 0.77623 0.0
H262 H 0.59147 0.5801 0.36893 0.0
H263 H 0.4637 0.40804 0.34455 0.0
H264 H 0.48147 0.39147 0.2651 0.0
H265 H 0.5231 0.42911 0.20198 0.0
H266 H 0.65268 0.59951 0.22235 0.0
H267 H 0.64558 0.61307 0.30358 0.0
C268 C 0.56931 0.5385 0.34613 0.0
C269 C 0.52577 0.49563 0.36228 0.0
C270 C 0.57933 0.52917 0.29975 0.0
C271 C 0.49688 0.4419 0.33261 0.0
C272 C 0.50676 0.43237 0.28716 0.0
C273 C 0.55026 0.46909 0.22411 0.0
C274 C 0.58737 0.5136 0.20624 0.0
C275 C 0.54607 0.47639 0.27027 0.0
C276 C 0.62336 0.56462 0.23541 0.0
C277 C 0.61917 0.57248 0.28184 0.0
loop_
_geom_bond_atom_site_label_1
_geom_bond_atom_site_label_2
_geom_bond_distance
_geom_bond_site_symmetry_2
_ccdc_geom_bond_type
O0 Mn1 2.163 1_654 S
O0 C14 1.244 1_554 S
Mn1 O0 2.163 1_456 S
Mn1 O4 2.160 1_545 S
Mn1 O5 2.221 1_556 S
Mn1 O7 2.163 1_556 S
Mn1 O9 2.160 . S
Mn1 O19 2.221 1_445 S
O2 Mn3 2.087 1_545 S
O2 C14 1.256 . S
Mn3 O2 2.087 1_565 S
Mn3 O10 2.089 1_565 S
Mn3 O19 2.290 . S
Mn3 O20 2.251 . S
O4 Mn1 2.160 1_565 S
O4 C15 1.239 1_556 S
O5 Mn1 2.221 1_554 S
O5 Mn6 2.290 . S
O5 C16 1.278 . S
Mn6 O5 2.290 . S
Mn6 O8 2.089 1_545 S
Mn6 O11 2.251 . S
Mn6 O12 2.087 . S
O7 Mn1 2.163 1_554 S
O7 C17 1.244 . S
O8 Mn6 2.089 1_565 S
O8 C15 1.256 . S
O9 Mn1 2.160 . S
O9 C18 1.239 . S
O10 Mn3 2.089 1_545 S
O10 C18 1.256 1_655 S
O11 Mn6 2.251 . S
O11 C16 1.241 . S
O12 Mn6 2.087 . S
O12 C17 1.256 . S
C13 O19 1.278 . S
C13 O20 1.241 . S
C14 O0 1.244 1_556 S
C14 O2 1.256 . S
C15 O4 1.239 1_554 S
C15 O8 1.256 . S
C16 O5 1.278 . S
C16 O11 1.241 . S
C17 O7 1.244 . S
C17 O12 1.256 . S
C18 O9 1.239 . S
C18 O10 1.256 1_455 S
O19 Mn1 2.221 1_665 S
O19 Mn3 2.290 . S
O19 C13 1.278 . S
O20 Mn3 2.251 . S
O20 C13 1.241 . S
O21 Mn22 2.163 . S
O21 C35 1.244 . S
Mn22 O21 2.163 . S
Mn22 O25 2.160 . S
Mn22 O26 2.221 . S
Mn22 O28 2.163 . S
Mn22 O30 2.160 . S
Mn22 O40 2.221 . S
O23 Mn24 2.087 . S
O23 C35 1.256 . S
Mn24 O23 2.087 . S
Mn24 O31 2.089 . S
Mn24 O40 2.290 . S
Mn24 O41 2.251 . S
O25 Mn22 2.160 . S
O25 C36 1.239 . S
O26 Mn22 2.221 . S
O26 Mn27 2.290 . S
O26 C37 1.278 . S
Mn27 O26 2.290 . S
Mn27 O29 2.089 . S
Mn27 O32 2.251 . S
Mn27 O33 2.087 . S
O28 Mn22 2.163 . S
O28 C38 1.244 . S
O29 Mn27 2.089 . S
O29 C36 1.256 . S
O30 Mn22 2.160 . S
O30 C39 1.239 . S
O31 Mn24 2.089 . S
O31 C39 1.256 . S
O32 Mn27 2.251 . S
O32 C37 1.241 . S
O33 Mn27 2.087 . S
O33 C38 1.256 . S
C34 O40 1.278 . S
C34 O41 1.241 . S
C35 O21 1.244 . S
C35 O23 1.256 . S
C36 O25 1.239 . S
C36 O29 1.256 . S
C37 O26 1.278 . S
C37 O32 1.241 . S
C38 O28 1.244 . S
C38 O33 1.256 . S
C39 O30 1.239 . S
C39 O31 1.256 . S
O40 Mn22 2.221 . S
O40 Mn24 2.290 . S
O40 C34 1.278 . S
O41 Mn24 2.251 . S
O41 C34 1.241 . S
O42 Cd43 2.300 . S
O42 C49 1.275 1_565 S
Cd43 O42 2.300 . S
Cd43 O51 2.381 . S
Cd43 O52 2.378 . S
O44 Cd45 2.385 . S
O44 C49 1.255 . S
Cd45 O44 2.385 . S
Cd45 O46 2.317 1_455 S
O46 Cd45 2.317 1_655 S
O46 C47 1.232 . S
C47 O46 1.232 . S
C47 O48 1.218 . S
O48 C47 1.218 . S
C49 O42 1.275 1_545 S
C49 O44 1.255 . S
C50 O51 1.258 . S
C50 O52 1.256 . S
O51 Cd43 2.381 . S
O51 C50 1.258 . S
O52 Cd43 2.378 . S
O52 C50 1.256 . S
O53 Cd54 2.300 . S
O53 C60 1.275 . S
Cd54 O53 2.300 . S
Cd54 O62 2.381 . S
Cd54 O63 2.378 . S
O55 Cd56 2.385 . S
O55 C60 1.255 1_565 S
Cd56 O55 2.385 . S
Cd56 O57 2.317 1_455 S
O57 Cd56 2.317 1_655 S
O57 C58 1.232 . S
C58 O57 1.232 . S
C58 O59 1.218 . S
O59 C58 1.218 . S
C60 O53 1.275 . S
C60 O55 1.255 1_545 S
C61 O62 1.258 . S
C61 O63 1.256 . S
O62 Cd54 2.381 . S
O62 C61 1.258 . S
O63 Cd54 2.378 . S
O63 C61 1.256 . S
O64 Cd65 2.300 . S
O64 C71 1.275 . S
Cd65 O64 2.300 . S
Cd65 O73 2.381 . S
Cd65 O74 2.378 . S
O66 Cd67 2.385 . S
O66 C71 1.255 . S
Cd67 O66 2.385 . S
Cd67 O68 2.317 . S
O68 Cd67 2.317 . S
O68 C69 1.232 . S
C69 O68 1.232 . S
C69 O70 1.218 . S
O70 C69 1.218 . S
C71 O64 1.275 . S
C71 O66 1.255 . S
C72 O73 1.258 . S
C72 O74 1.256 . S
O73 Cd65 2.381 . S
O73 C72 1.258 . S
O74 Cd65 2.378 . S
O74 C72 1.256 . S
O75 Cd76 2.300 . S
O75 C82 1.275 . S
Cd76 O75 2.300 . S
Cd76 O84 2.381 . S
Cd76 O85 2.378 . S
O77 Cd78 2.385 . S
O77 C82 1.255 . S
Cd78 O77 2.385 . S
Cd78 O79 2.317 . S
O79 Cd78 2.317 . S
O79 C80 1.232 . S
C80 O79 1.232 . S
C80 O81 1.218 . S
O81 C80 1.218 . S
C82 O75 1.275 . S
C82 O77 1.255 . S
C83 O84 1.258 . S
C83 O85 1.256 . S
O84 Cd76 2.381 . S
O84 C83 1.258 . S
O85 Cd76 2.378 . S
O85 C83 1.256 . S
H86 C92 0.930 . S
H87 C95 0.930 . S
H88 C96 0.930 . S
H89 C97 0.930 1_556 S
H90 C100 0.930 . S
H91 C101 0.930 . S
C92 H86 0.930 . S
C92 C93 1.355 . S
C92 C94 1.415 . S
C93 C92 1.355 . S
C93 C95 1.419 1_554 S
C94 C92 1.415 . S
C94 C99 1.425 . S
C94 C101 1.409 . S
C95 H87 0.930 . S
C95 C93 1.419 1_556 S
C95 C96 1.362 . S
C96 H88 0.930 . S
C96 C95 1.362 . S
C96 C99 1.409 1_556 S
C97 H89 0.930 1_554 S
C97 C98 1.355 . S
C97 C99 1.415 . S
C98 C97 1.355 . S
C98 C100 1.419 . S
C99 C94 1.425 . S
C99 C96 1.409 1_554 S
C99 C97 1.415 . S
C100 H90 0.930 . S
C100 C98 1.419 . S
C100 C101 1.362 . S
C101 H91 0.930 . S
C101 C94 1.409 . S
C101 C100 1.362 . S
H102 C108 0.930 . S
H103 C111 0.930 . S
H104 C112 0.930 . S
H105 C113 0.930 . S
H106 C116 0.930 . S
H107 C117 0.930 . S
C108 H102 0.930 . S
C108 C109 1.355 1_554 S
C108 C110 1.415 . S
C109 C108 1.355 1_556 S
C109 C111 1.419 . S
C110 C108 1.415 . S
C110 C115 1.425 1_554 S
C110 C117 1.409 . S
C111 H103 0.930 . S
C111 C109 1.419 . S
C111 C112 1.362 . S
C112 H104 0.930 . S
C112 C111 1.362 . S
C112 C115 1.409 . S
C113 H105 0.930 . S
C113 C114 1.355 . S
C113 C115 1.415 . S
C114 C113 1.355 . S
C114 C116 1.419 1_556 S
C115 C110 1.425 1_556 S
C115 C112 1.409 . S
C115 C113 1.415 . S
C116 H106 0.930 . S
C116 C114 1.419 1_554 S
C116 C117 1.362 . S
C117 H107 0.930 . S
C117 C110 1.409 . S
C117 C116 1.362 . S
H118 C124 0.930 1_556 S
H119 C127 0.930 . S
H120 C128 0.930 . S
H121 C129 0.930 . S
H122 C132 0.930 1_556 S
H123 C133 0.930 . S
C124 H118 0.930 1_554 S
C124 C125 1.355 . S
C124 C126 1.415 . S
C125 C124 1.355 . S
C125 C127 1.419 . S
C126 C124 1.415 . S
C126 C131 1.425 . S
C126 C133 1.409 1_554 S
C127 H119 0.930 . S
C127 C125 1.419 . S
C127 C128 1.362 . S
C128 H120 0.930 . S
C128 C127 1.362 . S
C128 C131 1.409 . S
C129 H121 0.930 . S
C129 C130 1.355 . S
C129 C131 1.415 . S
C130 C129 1.355 . S
C130 C132 1.419 . S
C131 C126 1.425 . S
C131 C128 1.409 . S
C131 C129 1.415 . S
C132 H122 0.930 1_554 S
C132 C130 1.419 . S
C132 C133 1.362 1_554 S
C133 H123 0.930 . S
C133 C126 1.409 1_556 S
C133 C132 1.362 1_556 S
H134 C140 0.930 . S
H135 C143 0.929 1_554 S
H136 C144 0.930 . S
H137 C145 0.930 . S
H138 C148 0.930 . S
H139 C149 0.930 . S
C140 H134 0.930 . S
C140 C141 1.355 . S
C140 C142 1.415 . S
C141 C140 1.355 . S
C141 C143 1.418 . S
C142 C140 1.415 . S
C142 C147 1.425 . S
C142 C149 1.409 . S
C143 H135 0.929 1_556 S
C143 C141 1.418 . S
C143 C144 1.364 . S
C144 H136 0.930 . S
C144 C143 1.364 . S
C144 C147 1.409 . S
C145 H137 0.930 . S
C145 C146 1.355 . S
C145 C147 1.415 . S
C146 C145 1.355 . S
C146 C148 1.419 . S
C147 C142 1.425 . S
C147 C144 1.409 . S
C147 C145 1.415 . S
C148 H138 0.930 . S
C148 C146 1.419 . S
C148 C149 1.362 . S
C149 H139 0.930 . S
C149 C142 1.409 . S
C149 C148 1.362 . S
H150 C156 0.930 . S
H151 C159 0.930 . S
H152 C160 0.930 . S
H153 C161 0.930 . S
H154 C164 0.930 . S
H155 C165 0.930 . S
C156 H150 0.930 . S
C156 C157 1.355 . S
C156 C158 1.415 . S
C157 C156 1.355 . S
C157 C159 1.419 . S
C158 C156 1.415 . S
C158 C163 1.425 . S
C158 C165 1.409 . S
C159 H151 0.930 . S
C159 C157 1.419 . S
C159 C160 1.362 . S
C160 H152 0.930 . S
C160 C159 1.362 . S
C160 C163 1.409 . S
C161 H153 0.930 . S
C161 C162 1.355 . S
C161 C163 1.415 . S
C162 C161 1.355 . S
C162 C164 1.419 . S
C163 C158 1.425 . S
C163 C160 1.409 . S
C163 C161 1.415 . S
C164 H154 0.930 . S
C164 C162 1.419 . S
C164 C165 1.362 . S
C165 H155 0.930 . S
C165 C158 1.409 . S
C165 C164 1.362 . S
H166 C172 0.930 . S
H167 C175 0.930 . S
H168 C176 0.930 . S
H169 C177 0.930 . S
H170 C180 0.930 . S
H171 C181 0.930 . S
C172 H166 0.930 . S
C172 C173 1.355 . S
C172 C174 1.415 . S
C173 C172 1.355 . S
C173 C175 1.419 . S
C174 C172 1.415 . S
C174 C179 1.425 . S
C174 C181 1.409 . S
C175 H167 0.930 . S
C175 C173 1.419 . S
C175 C176 1.362 . S
C176 H168 0.930 . S
C176 C175 1.362 . S
C176 C179 1.409 . S
C177 H169 0.930 . S
C177 C178 1.355 . S
C177 C179 1.415 . S
C178 C177 1.355 . S
C178 C180 1.419 . S
C179 C174 1.425 . S
C179 C176 1.409 . S
C179 C177 1.415 . S
C180 H170 0.930 . S
C180 C178 1.419 . S
C180 C181 1.362 . S
C181 H171 0.930 . S
C181 C174 1.409 . S
C181 C180 1.362 . S
H182 C188 0.930 . S
H183 C191 0.930 . S
H184 C192 0.930 . S
H185 C193 0.930 . S
H186 C196 0.930 . S
H187 C197 0.930 . S
C188 H182 0.930 . S
C188 C189 1.355 . S
C188 C190 1.415 . S
C189 C188 1.355 . S
C189 C191 1.419 . S
C190 C188 1.415 . S
C190 C195 1.425 . S
C190 C197 1.409 . S
C191 H183 0.930 . S
C191 C189 1.419 . S
C191 C192 1.362 . S
C192 H184 0.930 . S
C192 C191 1.362 . S
C192 C195 1.409 . S
C193 H185 0.930 . S
C193 C194 1.355 . S
C193 C195 1.415 . S
C194 C193 1.355 . S
C194 C196 1.419 . S
C195 C190 1.425 . S
C195 C192 1.409 . S
C195 C193 1.415 . S
C196 H186 0.930 . S
C196 C194 1.419 . S
C196 C197 1.362 . S
C197 H187 0.930 . S
C197 C190 1.409 . S
C197 C196 1.362 . S
H198 C204 0.930 . S
H199 C207 0.930 . S
H200 C208 0.930 . S
H201 C209 0.930 . S
H202 C212 0.930 . S
H203 C213 0.930 . S
C204 H198 0.930 . S
C204 C205 1.355 . S
C204 C206 1.415 . S
C205 C204 1.355 . S
C205 C207 1.419 . S
C206 C204 1.415 . S
C206 C211 1.425 . S
C206 C213 1.409 . S
C207 H199 0.930 . S
C207 C205 1.419 . S
C207 C208 1.362 . S
C208 H200 0.930 . S
C208 C207 1.362 . S
C208 C211 1.409 . S
C209 H201 0.930 . S
C209 C210 1.355 . S
C209 C211 1.415 . S
C210 C209 1.355 . S
C210 C212 1.419 . S
C211 C206 1.425 . S
C211 C208 1.409 . S
C211 C209 1.415 . S
C212 H202 0.930 . S
C212 C210 1.419 . S
C212 C213 1.362 . S
C213 H203 0.930 . S
C213 C206 1.409 . S
C213 C212 1.362 . S
H214 C220 0.930 . S
H215 C223 0.930 . S
H216 C224 0.930 . S
H217 C225 0.930 . S
H218 C228 0.930 . S
H219 C229 0.930 . S
C220 H214 0.930 . S
C220 C221 1.355 1_565 S
C220 C222 1.415 . S
C221 C220 1.355 1_545 S
C221 C223 1.419 1_455 S
C222 C220 1.415 . S
C222 C227 1.425 1_565 S
C222 C229 1.409 . S
C223 H215 0.930 . S
C223 C221 1.419 1_655 S
C223 C224 1.362 . S
C224 H216 0.930 . S
C224 C223 1.362 . S
C224 C227 1.409 1_655 S
C225 H217 0.930 . S
C225 C226 1.355 1_655 S
C225 C227 1.415 1_655 S
C226 C225 1.355 1_455 S
C226 C228 1.419 1_545 S
C227 C222 1.425 1_545 S
C227 C224 1.409 1_455 S
C227 C225 1.415 1_455 S
C228 H218 0.930 . S
C228 C226 1.419 1_565 S
C228 C229 1.362 . S
C229 H219 0.930 . S
C229 C222 1.409 . S
C229 C228 1.362 . S
H230 C236 0.930 . S
H231 C239 0.930 . S
H232 C240 0.930 . S
H233 C241 0.930 . S
H234 C244 0.930 . S
H235 C245 0.930 . S
C236 H230 0.930 . S
C236 C237 1.355 . S
C236 C238 1.415 . S
C237 C236 1.355 . S
C237 C239 1.419 1_455 S
C238 C236 1.415 . S
C238 C243 1.425 1_455 S
C238 C245 1.409 . S
C239 H231 0.930 . S
C239 C237 1.419 1_655 S
C239 C240 1.362 . S
C240 H232 0.930 . S
C240 C239 1.362 . S
C240 C243 1.409 . S
C241 H233 0.930 . S
C241 C242 1.355 1_655 S
C241 C243 1.415 . S
C242 C241 1.355 1_455 S
C242 C244 1.419 . S
C243 C238 1.425 1_655 S
C243 C240 1.409 . S
C243 C241 1.415 . S
C244 H234 0.930 . S
C244 C242 1.419 . S
C244 C245 1.362 . S
C245 H235 0.930 . S
C245 C238 1.409 . S
C245 C244 1.362 . S
H246 C252 0.930 . S
H247 C255 0.930 . S
H248 C256 0.930 . S
H249 C257 0.930 . S
H250 C260 0.930 . S
H251 C261 0.930 . S
C252 H246 0.930 . S
C252 C253 1.355 . S
C252 C254 1.415 . S
C253 C252 1.355 . S
C253 C255 1.419 . S
C254 C252 1.415 . S
C254 C259 1.425 . S
C254 C261 1.409 . S
C255 H247 0.930 . S
C255 C253 1.419 . S
C255 C256 1.362 . S
C256 H248 0.930 . S
C256 C255 1.362 . S
C256 C259 1.409 . S
C257 H249 0.930 . S
C257 C258 1.355 . S
C257 C259 1.415 . S
C258 C257 1.355 . S
C258 C260 1.419 . S
C259 C254 1.425 . S
C259 C256 1.409 . S
C259 C257 1.415 . S
C260 H250 0.930 . S
C260 C258 1.419 . S
C260 C261 1.362 . S
C261 H251 0.930 . S
C261 C254 1.409 . S
C261 C260 1.362 . S
H262 C268 0.930 . S
H263 C271 0.930 . S
H264 C272 0.930 . S
H265 C273 0.930 . S
H266 C276 0.930 . S
H267 C277 0.930 . S
C268 H262 0.930 . S
C268 C269 1.355 . S
C268 C270 1.415 . S
C269 C268 1.355 . S
C269 C271 1.419 . S
C270 C268 1.415 . S
C270 C275 1.425 . S
C270 C277 1.409 . S
C271 H263 0.930 . S
C271 C269 1.419 . S
C271 C272 1.362 . S
C272 H264 0.930 . S
C272 C271 1.362 . S
C272 C275 1.409 . S
C273 H265 0.930 . S
C273 C274 1.355 . S
C273 C275 1.415 . S
C274 C273 1.355 . S
C274 C276 1.419 . S
C275 C270 1.425 . S
C275 C272 1.409 . S
C275 C273 1.415 . S
C276 H266 0.930 . S
C276 C274 1.419 . S
C276 C277 1.362 . S
C277 H267 0.930 . S
C277 C270 1.409 . S
C277 C276 1.362 . S
C98 C80 1.208 . S
C93 C16 1.305 . S
C109 C15 1.503 1_556 S
C114 C69 1.249 . S
C125 C13 1.351 1_554 S
C130 C83 1.467 . S
C141 C14 1.401 . S
C146 C72 1.423 . S
C157 C37 1.338 . S
C162 C58 1.117 . S
C173 C36 1.448 . S
C178 C47 1.320 . S
C194 C61 1.404 . S
C189 C34 1.216 . S
C210 C50 1.385 . S
C205 C35 1.336 . S
C221 C17 1.533 . S
C226 C49 1.473 . S
C237 C18 1.347 . S
C242 C60 1.338 . S
C258 C71 1.519 . S
C253 C38 1.522 . S
C269 C39 1.344 . S
C274 C82 1.338 . S
