# Generated by pormake.
# Topology gar, (4,6)-cn, num edge types: 1
# Building blocks:
#     Node 0, Type 0, BuildingBlock: GALJAG_clean_sbu_0, # of connection points: 4
#     Node 1, Type 0, BuildingBlock: GALJAG_clean_sbu_0, # of connection points: 4
#     Node 2, Type 0, BuildingBlock: GALJAG_clean_sbu_0, # of connection points: 4
#     Node 3, Type 0, BuildingBlock: GALJAG_clean_sbu_0, # of connection points: 4
#     Node 4, Type 0, BuildingBlock: GALJAG_clean_sbu_0, # of connection points: 4
#     Node 5, Type 0, BuildingBlock: GALJAG_clean_sbu_0, # of connection points: 4
#     Node 6, Type 0, BuildingBlock: GALJAG_clean_sbu_0, # of connection points: 4
#     Node 7, Type 0, BuildingBlock: GALJAG_clean_sbu_0, # of connection points: 4
#     Node 8, Type 0, BuildingBlock: GALJAG_clean_sbu_0, # of connection points: 4
#     Node 9, Type 0, BuildingBlock: GALJAG_clean_sbu_0, # of connection points: 4
#     Node 10, Type 0, BuildingBlock: GALJAG_clean_sbu_0, # of connection points: 4
#     Node 11, Type 0, BuildingBlock: GALJAG_clean_sbu_0, # of connection points: 4
#     Node 12, Type 0, BuildingBlock: GALJAG_clean_sbu_0, # of connection points: 4
#     Node 13, Type 0, BuildingBlock: GALJAG_clean_sbu_0, # of connection points: 4
#     Node 14, Type 0, BuildingBlock: GALJAG_clean_sbu_0, # of connection points: 4
#     Node 15, Type 0, BuildingBlock: GALJAG_clean_sbu_0, # of connection points: 4
#     Node 16, Type 0, BuildingBlock: GALJAG_clean_sbu_0, # of connection points: 4
#     Node 17, Type 0, BuildingBlock: GALJAG_clean_sbu_0, # of connection points: 4
#     Node 18, Type 0, BuildingBlock: GALJAG_clean_sbu_0, # of connection points: 4
#     Node 19, Type 0, BuildingBlock: GALJAG_clean_sbu_0, # of connection points: 4
#     Node 20, Type 0, BuildingBlock: GALJAG_clean_sbu_0, # of connection points: 4
#     Node 21, Type 0, BuildingBlock: GALJAG_clean_sbu_0, # of connection points: 4
#     Node 22, Type 0, BuildingBlock: GALJAG_clean_sbu_0, # of connection points: 4
#     Node 23, Type 0, BuildingBlock: GALJAG_clean_sbu_0, # of connection points: 4
#     Node 24, Type 1, BuildingBlock: HISSIN_clean_sbu_0, # of connection points: 6
#     Node 25, Type 1, BuildingBlock: HISSIN_clean_sbu_0, # of connection points: 6
#     Node 26, Type 1, BuildingBlock: HISSIN_clean_sbu_0, # of connection points: 6
#     Node 27, Type 1, BuildingBlock: HISSIN_clean_sbu_0, # of connection points: 6
#     Node 28, Type 1, BuildingBlock: HISSIN_clean_sbu_0, # of connection points: 6
#     Node 29, Type 1, BuildingBlock: HISSIN_clean_sbu_0, # of connection points: 6
#     Node 30, Type 1, BuildingBlock: HISSIN_clean_sbu_0, # of connection points: 6
#     Node 31, Type 1, BuildingBlock: HISSIN_clean_sbu_0, # of connection points: 6
#     Node 32, Type 1, BuildingBlock: HISSIN_clean_sbu_0, # of connection points: 6
#     Node 33, Type 1, BuildingBlock: HISSIN_clean_sbu_0, # of connection points: 6
#     Node 34, Type 1, BuildingBlock: HISSIN_clean_sbu_0, # of connection points: 6
#     Node 35, Type 1, BuildingBlock: HISSIN_clean_sbu_0, # of connection points: 6
#     Node 36, Type 1, BuildingBlock: HISSIN_clean_sbu_0, # of connection points: 6
#     Node 37, Type 1, BuildingBlock: HISSIN_clean_sbu_0, # of connection points: 6
#     Node 38, Type 1, BuildingBlock: HISSIN_clean_sbu_0, # of connection points: 6
#     Node 39, Type 1, BuildingBlock: HISSIN_clean_sbu_0, # of connection points: 6
#     Edge 40, Type (0, 1), BuildingBlock: KIFKEQ_clean_linker_1, # of connection points: 2
#     Edge 41, Type (0, 1), BuildingBlock: KIFKEQ_clean_linker_1, # of connection points: 2
#     Edge 42, Type (0, 1), BuildingBlock: KIFKEQ_clean_linker_1, # of connection points: 2
#     Edge 43, Type (0, 1), BuildingBlock: KIFKEQ_clean_linker_1, # of connection points: 2
#     Edge 44, Type (0, 1), BuildingBlock: KIFKEQ_clean_linker_1, # of connection points: 2
#     Edge 45, Type (0, 1), BuildingBlock: KIFKEQ_clean_linker_1, # of connection points: 2
#     Edge 46, Type (0, 1), BuildingBlock: KIFKEQ_clean_linker_1, # of connection points: 2
#     Edge 47, Type (0, 1), BuildingBlock: KIFKEQ_clean_linker_1, # of connection points: 2
#     Edge 48, Type (0, 1), BuildingBlock: KIFKEQ_clean_linker_1, # of connection points: 2
#     Edge 49, Type (0, 1), BuildingBlock: KIFKEQ_clean_linker_1, # of connection points: 2
#     Edge 50, Type (0, 1), BuildingBlock: KIFKEQ_clean_linker_1, # of connection points: 2
#     Edge 51, Type (0, 1), BuildingBlock: KIFKEQ_clean_linker_1, # of connection points: 2
#     Edge 52, Type (0, 1), BuildingBlock: KIFKEQ_clean_linker_1, # of connection points: 2
#     Edge 53, Type (0, 1), BuildingBlock: KIFKEQ_clean_linker_1, # of connection points: 2
#     Edge 54, Type (0, 1), BuildingBlock: KIFKEQ_clean_linker_1, # of connection points: 2
#     Edge 55, Type (0, 1), BuildingBlock: KIFKEQ_clean_linker_1, # of connection points: 2
#     Edge 56, Type (0, 1), BuildingBlock: KIFKEQ_clean_linker_1, # of connection points: 2
#     Edge 57, Type (0, 1), BuildingBlock: KIFKEQ_clean_linker_1, # of connection points: 2
#     Edge 58, Type (0, 1), BuildingBlock: KIFKEQ_clean_linker_1, # of connection points: 2
#     Edge 59, Type (0, 1), BuildingBlock: KIFKEQ_clean_linker_1, # of connection points: 2
#     Edge 60, Type (0, 1), BuildingBlock: KIFKEQ_clean_linker_1, # of connection points: 2
#     Edge 61, Type (0, 1), BuildingBlock: KIFKEQ_clean_linker_1, # of connection points: 2
#     Edge 62, Type (0, 1), BuildingBlock: KIFKEQ_clean_linker_1, # of connection points: 2
#     Edge 63, Type (0, 1), BuildingBlock: KIFKEQ_clean_linker_1, # of connection points: 2
#     Edge 64, Type (0, 1), BuildingBlock: KIFKEQ_clean_linker_1, # of connection points: 2
#     Edge 65, Type (0, 1), BuildingBlock: KIFKEQ_clean_linker_1, # of connection points: 2
#     Edge 66, Type (0, 1), BuildingBlock: KIFKEQ_clean_linker_1, # of connection points: 2
#     Edge 67, Type (0, 1), BuildingBlock: KIFKEQ_clean_linker_1, # of connection points: 2
#     Edge 68, Type (0, 1), BuildingBlock: KIFKEQ_clean_linker_1, # of connection points: 2
#     Edge 69, Type (0, 1), BuildingBlock: KIFKEQ_clean_linker_1, # of connection points: 2
#     Edge 70, Type (0, 1), BuildingBlock: KIFKEQ_clean_linker_1, # of connection points: 2
#     Edge 71, Type (0, 1), BuildingBlock: KIFKEQ_clean_linker_1, # of connection points: 2
#     Edge 72, Type (0, 1), BuildingBlock: KIFKEQ_clean_linker_1, # of connection points: 2
#     Edge 73, Type (0, 1), BuildingBlock: KIFKEQ_clean_linker_1, # of connection points: 2
#     Edge 74, Type (0, 1), BuildingBlock: KIFKEQ_clean_linker_1, # of connection points: 2
#     Edge 75, Type (0, 1), BuildingBlock: KIFKEQ_clean_linker_1, # of connection points: 2
#     Edge 76, Type (0, 1), BuildingBlock: KIFKEQ_clean_linker_1, # of connection points: 2
#     Edge 77, Type (0, 1), BuildingBlock: KIFKEQ_clean_linker_1, # of connection points: 2
#     Edge 78, Type (0, 1), BuildingBlock: KIFKEQ_clean_linker_1, # of connection points: 2
#     Edge 79, Type (0, 1), BuildingBlock: KIFKEQ_clean_linker_1, # of connection points: 2
#     Edge 80, Type (0, 1), BuildingBlock: KIFKEQ_clean_linker_1, # of connection points: 2
#     Edge 81, Type (0, 1), BuildingBlock: KIFKEQ_clean_linker_1, # of connection points: 2
#     Edge 82, Type (0, 1), BuildingBlock: KIFKEQ_clean_linker_1, # of connection points: 2
#     Edge 83, Type (0, 1), BuildingBlock: KIFKEQ_clean_linker_1, # of connection points: 2
#     Edge 84, Type (0, 1), BuildingBlock: KIFKEQ_clean_linker_1, # of connection points: 2
#     Edge 85, Type (0, 1), BuildingBlock: KIFKEQ_clean_linker_1, # of connection points: 2
#     Edge 86, Type (0, 1), BuildingBlock: KIFKEQ_clean_linker_1, # of connection points: 2
#     Edge 87, Type (0, 1), BuildingBlock: KIFKEQ_clean_linker_1, # of connection points: 2
#     Edge 88, Type (0, 1), BuildingBlock: KIFKEQ_clean_linker_1, # of connection points: 2
#     Edge 89, Type (0, 1), BuildingBlock: KIFKEQ_clean_linker_1, # of connection points: 2
#     Edge 90, Type (0, 1), BuildingBlock: KIFKEQ_clean_linker_1, # of connection points: 2
#     Edge 91, Type (0, 1), BuildingBlock: KIFKEQ_clean_linker_1, # of connection points: 2
#     Edge 92, Type (0, 1), BuildingBlock: KIFKEQ_clean_linker_1, # of connection points: 2
#     Edge 93, Type (0, 1), BuildingBlock: KIFKEQ_clean_linker_1, # of connection points: 2
#     Edge 94, Type (0, 1), BuildingBlock: KIFKEQ_clean_linker_1, # of connection points: 2
#     Edge 95, Type (0, 1), BuildingBlock: KIFKEQ_clean_linker_1, # of connection points: 2
#     Edge 96, Type (0, 1), BuildingBlock: KIFKEQ_clean_linker_1, # of connection points: 2
#     Edge 97, Type (0, 1), BuildingBlock: KIFKEQ_clean_linker_1, # of connection points: 2
#     Edge 98, Type (0, 1), BuildingBlock: KIFKEQ_clean_linker_1, # of connection points: 2
#     Edge 99, Type (0, 1), BuildingBlock: KIFKEQ_clean_linker_1, # of connection points: 2
#     Edge 100, Type (0, 1), BuildingBlock: KIFKEQ_clean_linker_1, # of connection points: 2
#     Edge 101, Type (0, 1), BuildingBlock: KIFKEQ_clean_linker_1, # of connection points: 2
#     Edge 102, Type (0, 1), BuildingBlock: KIFKEQ_clean_linker_1, # of connection points: 2
#     Edge 103, Type (0, 1), BuildingBlock: KIFKEQ_clean_linker_1, # of connection points: 2
#     Edge 104, Type (0, 1), BuildingBlock: KIFKEQ_clean_linker_1, # of connection points: 2
#     Edge 105, Type (0, 1), BuildingBlock: KIFKEQ_clean_linker_1, # of connection points: 2
#     Edge 106, Type (0, 1), BuildingBlock: KIFKEQ_clean_linker_1, # of connection points: 2
#     Edge 107, Type (0, 1), BuildingBlock: KIFKEQ_clean_linker_1, # of connection points: 2
#     Edge 108, Type (0, 1), BuildingBlock: KIFKEQ_clean_linker_1, # of connection points: 2
#     Edge 109, Type (0, 1), BuildingBlock: KIFKEQ_clean_linker_1, # of connection points: 2
#     Edge 110, Type (0, 1), BuildingBlock: KIFKEQ_clean_linker_1, # of connection points: 2
#     Edge 111, Type (0, 1), BuildingBlock: KIFKEQ_clean_linker_1, # of connection points: 2
#     Edge 112, Type (0, 1), BuildingBlock: KIFKEQ_clean_linker_1, # of connection points: 2
#     Edge 113, Type (0, 1), BuildingBlock: KIFKEQ_clean_linker_1, # of connection points: 2
#     Edge 114, Type (0, 1), BuildingBlock: KIFKEQ_clean_linker_1, # of connection points: 2
#     Edge 115, Type (0, 1), BuildingBlock: KIFKEQ_clean_linker_1, # of connection points: 2
#     Edge 116, Type (0, 1), BuildingBlock: KIFKEQ_clean_linker_1, # of connection points: 2
#     Edge 117, Type (0, 1), BuildingBlock: KIFKEQ_clean_linker_1, # of connection points: 2
#     Edge 118, Type (0, 1), BuildingBlock: KIFKEQ_clean_linker_1, # of connection points: 2
#     Edge 119, Type (0, 1), BuildingBlock: KIFKEQ_clean_linker_1, # of connection points: 2
#     Edge 120, Type (0, 1), BuildingBlock: KIFKEQ_clean_linker_1, # of connection points: 2
#     Edge 121, Type (0, 1), BuildingBlock: KIFKEQ_clean_linker_1, # of connection points: 2
#     Edge 122, Type (0, 1), BuildingBlock: KIFKEQ_clean_linker_1, # of connection points: 2
#     Edge 123, Type (0, 1), BuildingBlock: KIFKEQ_clean_linker_1, # of connection points: 2
#     Edge 124, Type (0, 1), BuildingBlock: KIFKEQ_clean_linker_1, # of connection points: 2
#     Edge 125, Type (0, 1), BuildingBlock: KIFKEQ_clean_linker_1, # of connection points: 2
#     Edge 126, Type (0, 1), BuildingBlock: KIFKEQ_clean_linker_1, # of connection points: 2
#     Edge 127, Type (0, 1), BuildingBlock: KIFKEQ_clean_linker_1, # of connection points: 2
#     Edge 128, Type (0, 1), BuildingBlock: KIFKEQ_clean_linker_1, # of connection points: 2
#     Edge 129, Type (0, 1), BuildingBlock: KIFKEQ_clean_linker_1, # of connection points: 2
#     Edge 130, Type (0, 1), BuildingBlock: KIFKEQ_clean_linker_1, # of connection points: 2
#     Edge 131, Type (0, 1), BuildingBlock: KIFKEQ_clean_linker_1, # of connection points: 2
#     Edge 132, Type (0, 1), BuildingBlock: KIFKEQ_clean_linker_1, # of connection points: 2
#     Edge 133, Type (0, 1), BuildingBlock: KIFKEQ_clean_linker_1, # of connection points: 2
#     Edge 134, Type (0, 1), BuildingBlock: KIFKEQ_clean_linker_1, # of connection points: 2
#     Edge 135, Type (0, 1), BuildingBlock: KIFKEQ_clean_linker_1, # of connection points: 2
# Relax obj value: 0.189
# Max RMSD: 0.286
# Mean RMSD: 0.159
data_MOF--net-gar--node1-GALJAG_clean_sbu_0--node2-HISSIN_clean_sbu_0--edge1-KIFKEQ_clean_linker_1
_symmetry_space_group_name_H-M    P1
_symmetry_Int_Tables_number       1
_symmetry_cell_setting            triclinic
loop_
_symmetry_equiv_pos_as_xyz
'x, y, z'
_cell_length_a     60.75181
_cell_length_b     60.192659
_cell_length_c     58.730606
_cell_angle_alpha  99.330709
_cell_angle_beta   92.840533
_cell_angle_gamma 99.787271
loop_
_atom_site_label
_atom_site_type_symbol
_atom_site_fract_x
_atom_site_fract_y
_atom_site_fract_z
_atom_type_partial_charge
In0 In 0.11126 0.33375 0.41098 0.0
O1 O 0.12358 0.32537 0.37565 0.0
O2 O 0.14824 0.33685 0.40408 0.0
C3 C 0.0693 0.32522 0.39091 0.0
C4 C 0.10807 0.30387 0.44091 0.0
C5 C 0.12014 0.37931 0.42466 0.0
O6 O 0.08485 0.31625 0.38199 0.0
O7 O 0.07473 0.33781 0.4104 0.0
O8 O 0.12613 0.36579 0.43712 0.0
O9 O 0.11016 0.36977 0.40536 0.0
C10 C 0.14407 0.33077 0.38245 0.0
O11 O 0.10405 0.32383 0.44609 0.0
O12 O 0.11442 0.29919 0.42086 0.0
In13 In 0.01977 0.78209 0.66463 0.0
O14 O 0.0382 0.79603 0.63569 0.0
O15 O 1.01327 0.81361 0.65007 0.0
C16 C 0.02246 0.74014 0.64246 0.0
C17 C 0.04948 0.79105 0.70184 0.0
C18 C 0.98087 0.78035 0.68439 0.0
O19 O 1.00862 0.75154 0.63557 0.0
O20 O 0.03496 0.74999 0.66023 0.0
O21 O 0.99818 0.79485 0.6921 0.0
O22 O 0.98245 0.76772 0.66541 0.0
C23 C 0.02764 0.81227 0.63535 0.0
O24 O 0.03285 0.77495 0.69871 0.0
O25 O 0.05161 0.80276 0.68578 0.0
In26 In 0.60618 0.82983 0.90514 0.0
O27 O 0.63654 0.84721 0.8899 0.0
O28 O 0.63225 0.81117 0.88766 0.0
C29 C 0.57289 0.82057 0.87154 0.0
C30 C 0.59936 0.79873 0.93355 0.0
C31 C 0.6026 0.87177 0.92694 0.0
O32 O 0.59285 0.828 0.86786 0.0
O33 O 0.56985 0.81788 0.89209 0.0
O34 O 0.58821 0.85991 0.91165 0.0
O35 O 0.61862 0.86213 0.9321 0.0
C36 C 0.64343 0.82904 0.88247 0.0
O37 O 0.61116 0.81832 0.94035 0.0
O38 O 0.59205 0.79487 0.9126 0.0
In39 In 0.52685 0.28992 0.17027 0.0
O40 O 0.51875 0.25889 0.14171 0.0
O41 O 0.5476 0.26158 0.16484 0.0
C42 C 0.5333 0.32028 0.14094 0.0
C43 C 0.48547 0.28581 0.1853 0.0
C44 C 0.55443 0.2997 0.20923 0.0
O45 O 0.52869 0.29897 0.13413 0.0
O46 O 0.53449 0.3264 0.16261 0.0
O47 O 0.53469 0.28876 0.20807 0.0
O48 O 0.56048 0.30581 0.19056 0.0
C49 C 0.5351 0.25011 0.14764 0.0
O50 O 0.4945 0.26889 0.17836 0.0
O51 O 0.49683 0.30494 0.18349 0.0
In52 In 0.09419 0.7957 0.12182 0.0
O53 O 0.07907 0.76601 0.0936 0.0
O54 O 0.1123 0.76706 0.10793 0.0
C55 C 0.10379 0.82679 0.09404 0.0
C56 C 0.05382 0.78723 0.13903 0.0
C57 C 0.12265 0.80845 0.16015 0.0
O58 O 0.11045 0.80789 0.09084 0.0
O59 O 0.09269 0.83019 0.11148 0.0
O60 O 0.11711 0.78803 0.14999 0.0
O61 O 0.11456 0.82282 0.15047 0.0
C62 C 0.09602 0.75642 0.09394 0.0
O63 O 0.07029 0.77865 0.14476 0.0
O64 O 0.05751 0.80024 0.12431 0.0
In65 In 0.50639 0.80058 0.4222 0.0
O66 O 0.52707 0.80732 0.39188 0.0
O67 O 0.54233 0.79396 0.41853 0.0
C68 C 0.47196 0.7969 0.39057 0.0
C69 C 0.49612 0.76819 0.44849 0.0
C70 C 0.51094 0.83984 0.45273 0.0
O71 O 0.48584 0.81515 0.3974 0.0
O72 O 0.47556 0.77997 0.39949 0.0
O73 O 0.52635 0.82819 0.45047 0.0
O74 O 0.49354 0.8319 0.43938 0.0
C75 C 0.5442 0.80084 0.39945 0.0
O76 O 0.49291 0.78841 0.45414 0.0
O77 O 0.50371 0.76389 0.42891 0.0
In78 In 0.59527 0.29567 0.61972 0.0
O79 O 0.58229 0.26434 0.59252 0.0
O80 O 0.61591 0.26873 0.60704 0.0
C81 C 0.59158 0.32316 0.58847 0.0
C82 C 0.55876 0.29031 0.64371 0.0
C83 C 0.62737 0.30799 0.65478 0.0
O84 O 0.60815 0.31323 0.58988 0.0
O85 O 0.57777 0.32007 0.60343 0.0
O86 O 0.61497 0.28856 0.65037 0.0
O87 O 0.62398 0.32144 0.64107 0.0
C88 C 0.60034 0.25663 0.5931 0.0
O89 O 0.57226 0.30904 0.64577 0.0
O90 O 0.56348 0.27424 0.62924 0.0
In91 In 1.01027 0.29981 0.91984 0.0
O92 O 0.99896 0.28581 0.9519 0.0
O93 O 0.01967 0.26784 0.93044 0.0
C94 C 1.01084 0.33816 0.95056 0.0
C95 C 0.04831 0.30324 0.89795 0.0
C96 C 0.97601 0.29057 0.88687 0.0
O97 O 0.99517 0.33068 0.93485 0.0
O98 O 0.02643 0.32671 0.95023 0.0
O99 O 0.99311 0.3056 0.88673 0.0
O100 O 0.97619 0.27988 0.90361 0.0
C101 C 1.00969 0.26955 0.94881 0.0
O102 O 0.03689 0.28424 0.90013 0.0
O103 O 0.04059 0.32053 0.90691 0.0
In104 In 0.41634 0.04596 0.32249 0.0
O105 O 0.43581 0.05387 0.29219 0.0
O106 O 0.42866 0.019 0.29668 0.0
C107 C 0.44563 0.06507 0.3592 0.0
C108 C 0.38945 0.0691 0.30212 0.0
C109 C 0.38977 1.01263 0.33857 0.0
O110 O 0.45128 0.05471 0.34068 0.0
O111 O 0.42523 0.06672 0.35896 0.0
O112 O 0.38493 0.0322 0.33877 0.0
O113 O 0.40818 1.00993 0.33047 0.0
C114 C 0.43741 0.03338 0.28479 0.0
O115 O 0.38575 0.04757 0.29983 0.0
O116 O 0.40662 0.07918 0.31521 0.0
In117 In 0.28984 0.20303 0.51322 0.0
O118 O 0.29581 0.23645 0.54086 0.0
O119 O 0.28607 0.20474 0.55196 0.0
C120 C 0.29471 0.21993 0.47259 0.0
C121 C 0.32634 0.18341 0.5185 0.0
C122 C 0.2481 0.17665 0.50707 0.0
O123 O 0.28812 0.23097 0.49036 0.0
O124 O 0.29906 0.2008 0.47545 0.0
O125 O 0.26586 0.16865 0.50862 0.0
O126 O 0.25124 0.19811 0.5083 0.0
C127 C 0.29154 0.22614 0.55771 0.0
O128 O 0.30728 0.17218 0.51063 0.0
O129 O 0.3273 0.20483 0.52311 0.0
In130 In 0.18436 0.03719 0.78164 0.0
O131 O 0.15227 0.02634 0.75221 0.0
O132 O 0.1804 0.04633 0.74295 0.0
C133 C 0.16109 0.04012 0.82514 0.0
C134 C 0.20683 0.99569 0.77897 0.0
C135 C 0.20864 0.0841 0.78455 0.0
O136 O 0.15176 0.03223 0.80493 0.0
O137 O 0.18192 0.04639 0.82366 0.0
O138 O 0.2176 0.06632 0.78077 0.0
O139 O 0.18809 0.07841 0.78767 0.0
C140 C 0.16044 0.03664 0.73644 0.0
O141 O 0.21651 1.01648 0.78496 0.0
O142 O 0.18623 0.99565 0.77403 0.0
In143 In 0.29819 0.97774 1.00484 0.0
O144 O 0.29062 0.94693 0.02303 0.0
O145 O 0.29774 0.97996 0.04403 0.0
C146 C 0.30004 0.94712 0.96515 0.0
C147 C 0.25866 0.99618 1.00594 0.0
C148 C 0.3434 0.99779 0.01154 0.0
O149 O 0.2954 0.94145 0.98435 0.0
O150 O 0.30298 0.96853 0.96545 0.0
O151 O 0.32952 1.00513 0.99906 0.0
O152 O 0.33434 0.98145 0.02077 0.0
C153 C 0.29296 0.95857 0.04319 0.0
O154 O 0.27743 1.00731 0.01513 0.0
O155 O 0.26021 0.97683 0.99479 0.0
In156 In 0.33063 0.39143 0.04546 0.0
O157 O 0.3315 0.36157 0.06612 0.0
O158 O 0.3258 0.39318 0.0841 0.0
C159 C 0.32818 0.36948 1.00047 0.0
C160 C 0.29377 0.41111 0.04316 0.0
C161 C 0.37166 0.41893 0.05054 0.0
O162 O 0.31843 0.36024 0.01599 0.0
O163 O 0.33965 0.38904 1.00784 0.0
O164 O 0.35345 0.42613 0.04853 0.0
O165 O 0.36935 0.39759 0.0504 0.0
C166 C 0.32765 0.37285 0.08515 0.0
O167 O 0.31309 0.42237 0.04979 0.0
O168 O 0.29292 0.38981 0.03783 0.0
In169 In 0.82662 0.14057 0.04824 0.0
O170 O 0.84699 0.11181 0.03334 0.0
O171 O 0.86367 0.13833 0.05918 0.0
C172 C 0.78138 0.12103 0.04428 0.0
C173 C 0.82642 0.16821 0.09003 0.0
C174 C 0.82832 0.16433 0.01259 0.0
O175 O 0.79638 0.11092 0.05151 0.0
O176 O 0.78932 0.13995 0.03872 0.0
O177 O 0.83444 0.1735 0.03329 0.0
O178 O 0.82214 0.14288 1.00958 0.0
C179 C 0.8653 0.12062 0.04512 0.0
O180 O 0.83488 0.17521 0.07272 0.0
O181 O 0.81904 0.14687 0.08678 0.0
In182 In 0.21518 0.57569 0.25165 0.0
O183 O 0.24416 0.55636 0.24746 0.0
O184 O 0.21702 0.54299 0.26572 0.0
C185 C 0.24352 0.61127 0.24104 0.0
C186 C 0.18132 0.55566 0.21966 0.0
C187 C 0.20012 0.59702 0.29015 0.0
O188 O 0.24751 0.60155 0.25786 0.0
O189 O 0.22524 0.60278 0.22922 0.0
O190 O 0.1956 0.6013 0.27031 0.0
O191 O 0.21241 0.58217 0.29058 0.0
C192 C 0.236 0.54116 0.25866 0.0
O193 O 0.17833 0.56211 0.24059 0.0
O194 O 0.20151 0.55892 0.21488 0.0
In195 In 0.83152 0.89544 0.54635 0.0
O196 O 0.83037 0.86543 0.56703 0.0
O197 O 0.83063 0.89863 0.5857 0.0
C198 C 0.82829 0.87262 0.5016 0.0
C199 C 0.79555 0.91627 0.54278 0.0
C200 C 0.87305 0.92158 0.55283 0.0
O201 O 0.81841 0.86394 0.51738 0.0
O202 O 0.84019 0.89203 0.5086 0.0
O203 O 0.85539 0.92956 0.55659 0.0
O204 O 0.86992 0.9001 0.54626 0.0
C205 C 0.82994 0.87776 0.58656 0.0
O206 O 0.81536 0.92614 0.54158 0.0
O207 O 0.79378 0.89587 0.54599 0.0
In208 In 0.93227 0.07095 0.27654 0.0
O209 O 0.96471 0.06713 0.25348 0.0
O210 O 0.93633 0.07134 0.23507 0.0
C211 C 0.95614 0.07177 0.32188 0.0
C212 C 0.90973 0.11245 0.27923 0.0
C213 C 0.90702 0.02413 0.27242 0.0
O214 O 0.96391 0.08304 0.3066 0.0
O215 O 0.93662 0.0611 0.31482 0.0
O216 O 0.89943 0.04213 0.27999 0.0
O217 O 0.9264 0.02963 0.26577 0.0
C218 C 0.95647 0.06847 0.23354 0.0
O219 O 0.9001 0.09161 0.27336 0.0
O220 O 0.93041 0.11259 0.28408 0.0
In221 In 0.32398 0.63917 0.54955 0.0
O222 O 0.34589 0.60986 0.54934 0.0
O223 O 0.36193 0.64241 0.54466 0.0
C224 C 0.27866 0.62051 0.54658 0.0
C225 C 0.32631 0.66876 0.59069 0.0
C226 C 0.32203 0.65608 0.50978 0.0
O227 O 0.29363 0.60812 0.54684 0.0
O228 O 0.28666 0.64146 0.54806 0.0
O229 O 0.3305 0.66794 0.52886 0.0
O230 O 0.31505 0.63519 0.51042 0.0
C231 C 0.36407 0.62216 0.5457 0.0
O232 O 0.32869 0.6749 0.57135 0.0
O233 O 0.32388 0.64731 0.5898 0.0
In234 In 0.43249 0.57154 0.77585 0.0
O235 O 0.40015 0.59228 0.77431 0.0
O236 O 0.431 0.61323 0.78065 0.0
C237 C 0.40879 0.52422 0.77352 0.0
C238 C 0.45588 0.56958 0.7324 0.0
C239 C 0.45658 0.57302 0.82115 0.0
O240 O 0.3991 0.54126 0.77264 0.0
O241 O 0.42979 0.53082 0.77499 0.0
O242 O 0.46526 0.57146 0.80187 0.0
O243 O 0.43628 0.57514 0.81803 0.0
C244 C 0.41006 0.61312 0.77794 0.0
O245 O 0.46436 0.58004 0.75228 0.0
O246 O 0.43573 0.56045 0.73413 0.0
In247 In 0.71191 0.07285 0.7562 0.0
O248 O 0.74038 0.06583 0.77894 0.0
O249 O 0.72191 0.03797 0.75471 0.0
C250 C 0.73502 0.10857 0.74018 0.0
C251 C 0.68114 0.05314 0.7212 0.0
C252 C 0.69125 0.08632 0.79408 0.0
O253 O 0.7445 0.09406 0.74811 0.0
O254 O 0.71396 0.10462 0.73974 0.0
O255 O 0.68836 0.06582 0.7839 0.0
O256 O 0.70501 0.10012 0.78546 0.0
C257 C 0.73752 0.04481 0.77058 0.0
O258 O 0.67623 0.06285 0.74044 0.0
O259 O 0.70179 0.05299 0.71958 0.0
In260 In 0.78777 0.70645 0.01366 0.0
O261 O 0.80327 0.67427 1.00982 0.0
O262 O 0.82549 0.70603 0.01968 0.0
C263 C 0.74551 0.68133 1.01003 0.0
C264 C 0.79046 0.72879 0.05855 0.0
C265 C 0.79318 0.72448 0.97365 0.0
O266 O 0.76296 0.67268 1.00872 0.0
O267 O 0.74916 0.70295 0.01302 0.0
O268 O 0.7976 0.73663 0.99354 0.0
O269 O 0.78599 0.70368 0.97407 0.0
C270 C 0.82315 0.68445 0.01555 0.0
O271 O 0.78575 0.73821 0.04162 0.0
O272 O 0.79358 0.70856 0.05273 0.0
In273 In 0.9247 0.55234 0.82158 0.0
O274 O 0.90417 0.58045 0.83089 0.0
O275 O 0.91729 0.57665 0.79788 0.0
C276 C 0.89077 0.51899 0.82738 0.0
C277 C 0.94848 0.54026 0.7858 0.0
C278 C 0.95442 0.56324 0.85873 0.0
O279 O 0.88969 0.53138 0.8122 0.0
O280 O 0.9092 0.52302 0.83942 0.0
O281 O 0.9547 0.54676 0.8426 0.0
O282 O 0.93905 0.57456 0.85618 0.0
C283 C 0.90542 0.58686 0.81149 0.0
O284 O 0.95347 0.55925 0.79931 0.0
O285 O 0.93135 0.5271 0.79036 0.0
In286 In 0.79651 0.47831 0.50246 0.0
O287 O 0.79412 0.44719 0.52 0.0
O288 O 0.79717 0.47963 0.54181 0.0
C289 C 0.79803 0.44723 0.46302 0.0
C290 C 0.75607 0.49506 0.50481 0.0
C291 C 0.84114 0.50016 0.50757 0.0
O292 O 0.79374 0.4419 0.4824 0.0
O293 O 0.8006 0.46853 0.46292 0.0
O294 O 0.82719 0.50394 0.49251 0.0
O295 O 0.83227 0.48695 0.52042 0.0
C296 C 0.79557 0.4582 0.54039 0.0
O297 O 0.77506 0.50804 0.50899 0.0
O298 O 0.75765 0.47446 0.49824 0.0
In299 In 0.6843 0.53652 0.28081 0.0
O300 O 0.71618 0.51549 0.2838 0.0
O301 O 0.68542 0.49477 0.27501 0.0
C302 C 0.70834 0.58361 0.28324 0.0
C303 C 0.65989 0.53516 0.23579 0.0
C304 C 0.66135 0.53912 0.32432 0.0
O305 O 0.71766 0.56606 0.28101 0.0
O306 O 0.68757 0.57761 0.28484 0.0
O307 O 0.65238 0.52929 0.30442 0.0
O308 O 0.68178 0.54723 0.32259 0.0
C309 C 0.70618 0.4947 0.27899 0.0
O310 O 0.65103 0.53507 0.25491 0.0
O311 O 0.68061 0.53478 0.23893 0.0
Eu312 Eu 0.07264 0.08042 0.03785 0.0
Eu313 Eu 0.04864 0.02853 0.02318 0.0
C314 C 0.07928 0.053 0.98424 0.0
C315 C 0.08281 0.14362 0.06066 0.0
C316 C 0.05961 0.14289 0.05931 0.0
C317 C 0.08884 0.18498 0.06753 0.0
C318 C 0.05112 0.16305 0.06002 0.0
C319 C 0.09736 0.1647 0.06625 0.0
C320 C 0.06579 0.18423 0.06234 0.0
C321 C 0.09155 0.12299 0.05183 0.0
O322 O 0.08546 0.02508 0.02722 0.0
O323 O 0.10174 0.06175 0.04304 0.0
C324 C 0.10347 0.04042 0.0351 0.0
O325 O 0.05155 0.07492 0.06956 0.0
O326 O 0.02903 1.00067 0.99783 0.0
O327 O 0.03945 0.99467 0.03186 0.0
O328 O 0.04056 0.03616 0.06225 0.0
C329 C 0.04101 0.05609 0.07616 0.0
O330 O 0.03699 0.08452 0.02715 0.0
O331 O 0.01904 0.04717 0.02149 0.0
O332 O 0.06446 0.03555 0.98872 0.0
O333 O 0.09063 0.10747 0.06509 0.0
O334 O 0.08478 0.11423 0.03029 0.0
O335 O 0.08457 0.07165 1.0005 0.0
C336 C 0.04085 0.96582 1.00098 0.0
C337 C 0.03064 0.9438 1.00344 0.0
C338 C 0.07511 0.95185 0.99188 0.0
C339 C 0.04296 0.92611 1.00128 0.0
C340 C 0.06273 0.9695 0.99393 0.0
C341 C 0.06574 0.93035 0.99689 0.0
C342 C 0.03102 0.98541 0.01092 0.0
C343 C 0.01833 0.06916 0.02378 0.0
H344 H 0.04816 0.12665 0.05535 0.0
H345 H 0.10054 0.20107 0.07026 0.0
H346 H 0.03328 0.16159 0.05608 0.0
H347 H 0.11533 0.1655 0.06772 0.0
H348 H 1.01383 0.94076 1.00907 0.0
H349 H 0.09255 0.95554 0.98828 0.0
H350 H 0.03528 0.90981 1.00545 0.0
H351 H 0.0709 0.98649 0.99204 0.0
Eu352 Eu 0.29968 0.82882 0.27115 0.0
Eu353 Eu 0.27548 0.81205 0.31696 0.0
C354 C 0.24703 0.82729 0.27684 0.0
C355 C 0.31175 0.85622 0.21713 0.0
C356 C 0.3109 0.87968 0.22261 0.0
C357 C 0.30317 0.85744 0.17652 0.0
C358 C 0.30637 0.89192 0.20512 0.0
C359 C 0.30786 0.84528 0.19393 0.0
C360 C 0.30246 0.88091 0.18189 0.0
C361 C 0.31703 0.84283 0.23501 0.0
O362 O 0.2695 0.78179 0.28817 0.0
O363 O 0.29924 0.79102 0.26672 0.0
C364 C 0.28359 0.77597 0.27305 0.0
O365 O 0.32768 0.82722 0.29701 0.0
O366 O 0.25105 0.78898 0.33235 0.0
O367 O 0.27385 0.8164 0.35437 0.0
O368 O 0.30898 0.80106 0.31709 0.0
C369 C 0.32763 0.81212 0.31087 0.0
O370 O 0.29045 0.85961 0.29291 0.0
O371 O 0.29451 0.84795 0.32768 0.0
O372 O 0.24952 0.8274 0.29922 0.0
O373 O 0.32249 0.85368 0.25621 0.0
O374 O 0.30402 0.82305 0.23419 0.0
O375 O 0.26263 0.82324 0.26284 0.0
C376 C 0.26589 0.78089 0.3677 0.0
C377 C 0.28418 0.78741 0.38447 0.0
C378 C 0.26067 0.74237 0.37689 0.0
C379 C 0.29078 0.77157 0.3971 0.0
C380 C 0.25405 0.75825 0.36424 0.0
C381 C 0.27924 0.74881 0.39335 0.0
C382 C 0.25959 0.79738 0.35343 0.0
C383 C 0.29449 0.86431 0.31545 0.0
H384 H 0.3138 0.8886 0.24035 0.0
H385 H 0.30059 0.84856 0.15876 0.0
H386 H 0.30581 0.90997 0.20977 0.0
H387 H 0.3086 0.82727 0.18923 0.0
H388 H 0.29358 0.80474 0.3878 0.0
H389 H 0.25147 0.72496 0.3735 0.0
H390 H 0.30484 0.77726 0.41 0.0
H391 H 0.23982 0.75272 0.35152 0.0
Eu392 Eu 0.57679 0.03996 0.52556 0.0
Eu393 Eu 0.53364 0.04943 0.55599 0.0
C394 C 0.57846 0.04079 0.58081 0.0
C395 C 0.62909 0.01766 0.50708 0.0
C396 C 0.62475 0.99698 0.51565 0.0
C397 C 0.6686 1.01523 0.50767 0.0
C398 C 0.64223 0.98546 0.52007 0.0
C399 C 0.65111 0.02662 0.50306 0.0
C400 C 0.66437 0.99456 0.51629 0.0
C401 C 0.61112 0.03061 0.50331 0.0
O402 O 0.55981 0.08162 0.56225 0.0
O403 O 0.57584 0.07721 0.52767 0.0
C404 C 0.57178 0.09011 0.54661 0.0
O405 O 0.54728 0.03761 0.50001 0.0
O406 O 0.51834 0.0686 0.58395 0.0
O407 O 0.49773 0.04143 0.55952 0.0
O408 O 0.52894 0.06202 0.52253 0.0
C409 C 0.53292 0.05169 0.50217 0.0
O410 O 0.56354 1.00769 0.53823 0.0
O411 O 0.52707 1.01221 0.53891 0.0
O412 O 0.55644 0.03674 0.58038 0.0
O413 O 0.59084 0.01882 0.49832 0.0
O414 O 0.61168 0.04938 0.51816 0.0
O415 O 0.58903 0.04702 0.56321 0.0
C416 C 0.48211 0.07392 0.57216 0.0
C417 C 0.4846 0.08663 0.55413 0.0
C418 C 0.44779 0.0882 0.58068 0.0
C419 C 0.46866 0.0998 0.54919 0.0
C420 C 0.46373 0.07495 0.58554 0.0
C421 C 0.44989 0.10059 0.56224 0.0
C422 C 0.49797 0.05869 0.57616 0.0
C423 C 0.54223 0.99899 0.53735 0.0
H424 H 0.60792 0.98986 0.51918 0.0
H425 H 0.68546 0.02253 0.50437 0.0
H426 H 0.6385 0.96969 0.52692 0.0
H427 H 0.65481 0.04259 0.49655 0.0
H428 H 0.49866 0.08601 0.54356 0.0
H429 H 0.43378 0.08866 0.59134 0.0
H430 H 0.47073 0.10882 0.53469 0.0
H431 H 0.46154 0.06527 0.59954 0.0
Eu432 Eu 0.28557 0.31093 0.7763 0.0
Eu433 Eu 0.33379 0.29609 0.78013 0.0
C434 C 0.2874 0.25661 0.78156 0.0
C435 C 0.22589 0.32065 0.78591 0.0
C436 C 0.21826 0.30015 0.79388 0.0
C437 C 0.19478 0.33645 0.80209 0.0
C438 C 0.19889 0.2978 0.8058 0.0
C439 C 0.214 0.33872 0.79 0.0
C440 C 0.18708 0.31601 0.81018 0.0
C441 C 0.24672 0.32398 0.7743 0.0
O442 O 0.32457 0.28754 0.74177 0.0
O443 O 0.29395 0.30479 0.73878 0.0
C444 C 0.30888 0.29358 0.72923 0.0
O445 O 0.31012 0.34562 0.77811 0.0
O446 O 0.35395 0.26926 0.77576 0.0
O447 O 0.36949 0.30368 0.79129 0.0
O448 O 0.34348 0.33351 0.77269 0.0
C449 C 0.3318 0.35048 0.77497 0.0
O450 O 0.29117 0.3098 0.81464 0.0
O451 O 0.32898 0.31079 0.81677 0.0
O452 O 0.30946 0.26322 0.78585 0.0
O453 O 0.26422 0.33575 0.7872 0.0
O454 O 0.25136 0.30623 0.76079 0.0
O455 O 0.27526 0.27176 0.77633 0.0
C456 C 0.39128 0.28132 0.76888 0.0
C457 C 0.39017 0.28681 0.7466 0.0
C458 C 0.42822 0.27228 0.76345 0.0
C459 C 0.40807 0.28513 0.73282 0.0
C460 C 0.41028 0.27394 0.7772 0.0
C461 C 0.42734 0.27797 0.74116 0.0
C462 C 0.37264 0.28306 0.78345 0.0
C463 C 0.31048 0.31262 0.82683 0.0
H464 H 0.2274 0.28609 0.79112 0.0
H465 H 0.18587 0.35067 0.80505 0.0
H466 H 0.19342 0.28194 0.81205 0.0
H467 H 0.21975 0.35468 0.78405 0.0
H468 H 0.37552 0.29252 0.73997 0.0
H469 H 0.44275 0.2665 0.77022 0.0
H470 H 0.40705 0.28992 0.71585 0.0
H471 H 0.41126 0.26951 0.79434 0.0
Eu472 Eu 0.0497 0.07649 0.54079 0.0
Eu473 Eu 0.06544 0.02989 0.51764 0.0
C474 C 0.09713 0.0788 0.5164 0.0
C475 C 0.0439 0.13684 0.54696 0.0
C476 C 0.05358 0.13564 0.52572 0.0
C477 C 0.04597 0.17774 0.54874 0.0
C478 C 0.05929 0.15517 0.51599 0.0
C479 C 0.04014 0.15797 0.55852 0.0
C480 C 0.0555 0.17643 0.52728 0.0
C481 C 0.03892 0.11589 0.5569 0.0
O482 O 0.08085 0.0347 0.55578 0.0
O483 O 0.06615 0.06527 0.57309 0.0
C484 C 0.0784 0.04913 0.57479 0.0
O485 O 0.01946 0.04925 0.54206 0.0
O486 O 0.08989 1.00716 0.51214 0.0
O487 O 0.05634 0.99637 0.49561 0.0
O488 O 0.03677 0.01822 0.53822 0.0
C489 C 0.01923 0.02757 0.5428 0.0
O490 O 0.04074 0.07533 0.50135 0.0
O491 O 0.0437 0.03839 0.48708 0.0
O492 O 0.09292 0.05665 0.50865 0.0
O493 O 0.02504 0.09913 0.54406 0.0
O494 O 0.05651 0.10901 0.56486 0.0
O495 O 0.08355 0.089 0.5293 0.0
C496 C 0.07182 0.96961 0.51262 0.0
C497 C 0.06381 0.97138 0.53471 0.0
C498 C 0.07037 0.92889 0.51164 0.0
C499 C 0.05857 0.95207 0.54494 0.0
C500 C 0.07527 0.94832 0.50115 0.0
C501 C 0.06157 0.93063 0.53343 0.0
C502 C 0.07493 0.98995 0.50152 0.0
C503 C 0.03737 0.05784 0.4838 0.0
H504 H 0.05697 0.11956 0.51673 0.0
H505 H 0.04289 0.19394 0.5578 0.0
H506 H 0.06706 0.15367 0.49973 0.0
H507 H 0.03287 0.15919 0.57504 0.0
H508 H 0.06123 0.98769 0.54394 0.0
H509 H 0.07285 0.91247 0.50252 0.0
H510 H 0.05215 0.95389 0.56191 0.0
H511 H 0.08139 0.94667 0.48405 0.0
Eu512 Eu 0.32967 0.81829 0.77131 0.0
Eu513 Eu 0.28483 0.78946 0.7839 0.0
C514 C 0.31429 0.82836 0.82399 0.0
C515 C 0.3906 0.83618 0.76665 0.0
C516 C 0.39348 0.82235 0.78317 0.0
C517 C 0.43086 0.8453 0.76515 0.0
C518 C 0.41484 0.82029 0.79094 0.0
C519 C 0.40928 0.84741 0.75736 0.0
C520 C 0.43369 0.83209 0.78236 0.0
C521 C 0.36793 0.83887 0.75986 0.0
O522 O 0.27334 0.82394 0.77683 0.0
O523 O 0.30638 0.84569 0.7706 0.0
C524 C 0.28461 0.84423 0.7736 0.0
O525 O 0.31058 0.8024 0.73688 0.0
O526 O 0.26278 0.77269 0.80686 0.0
O527 O 0.25148 0.77155 0.77089 0.0
O528 O 0.29308 0.7712 0.74965 0.0
C529 C 0.30145 0.78068 0.73277 0.0
O530 O 0.34122 0.78346 0.77702 0.0
O531 O 0.30928 0.7634 0.78807 0.0
O532 O 0.29606 0.813 0.81776 0.0
O533 O 0.35573 0.82094 0.74707 0.0
O534 O 0.35718 0.8475 0.77674 0.0
O535 O 0.33042 0.83123 0.81001 0.0
C536 C 0.22491 0.77474 0.79797 0.0
C537 C 0.22101 0.79634 0.79473 0.0
C538 C 0.18623 0.7645 0.80632 0.0
C539 C 0.19953 0.80144 0.79574 0.0
C540 C 0.20771 0.75923 0.8048 0.0
C541 C 0.18159 0.78511 0.80039 0.0
C542 C 0.24582 0.76748 0.79121 0.0
C543 C 0.33056 0.76405 0.7829 0.0
H544 H 0.37919 0.81351 0.79045 0.0
H545 H 0.44526 0.85453 0.75838 0.0
H546 H 0.41665 0.80976 0.80399 0.0
H547 H 0.40719 0.85806 0.74449 0.0
H548 H 0.23417 0.80865 0.78969 0.0
H549 H 0.173 0.7518 0.81071 0.0
H550 H 0.19683 0.81744 0.79093 0.0
H551 H 0.21056 0.74258 0.80769 0.0
Eu552 Eu 0.56441 0.04649 0.05616 0.0
Eu553 Eu 0.56012 0.07214 0.01194 0.0
C554 C 0.55492 0.09675 0.0627 0.0
C555 C 0.55146 0.02148 0.11011 0.0
C556 C 0.53546 0.0354 0.11523 0.0
C557 C 0.53864 0.99973 0.13974 0.0
C558 C 0.52123 0.03162 0.13262 0.0
C559 C 0.55298 1.00361 0.12234 0.0
C560 C 0.5226 1.0137 0.14503 0.0
C561 C 0.56576 0.02489 0.09125 0.0
O562 O 0.59699 0.08278 0.0256 0.0
O563 O 0.60056 0.0547 0.04702 0.0
C564 C 0.60966 0.07158 0.03678 0.0
O565 O 0.56375 0.01997 0.02467 0.0
O566 O 0.56338 0.10496 1.00029 0.0
O567 O 0.55015 0.07365 0.97615 0.0
O568 O 0.57577 0.04197 0.99779 0.0
C569 C 0.57279 0.02238 1.00526 0.0
O570 O 0.52685 0.04675 0.04993 0.0
O571 O 0.52608 0.04939 0.01147 0.0
O572 O 0.54525 0.09117 0.04171 0.0
O573 O 0.5567 1.01526 0.07071 0.0
O574 O 0.5763 0.04573 0.09164 0.0
O575 O 0.56781 0.08394 0.07053 0.0
C576 C 0.57185 0.10354 0.96177 0.0
C577 C 0.59393 0.09963 0.96228 0.0
C578 C 0.57745 0.12026 0.92723 0.0
C579 C 0.60761 0.10562 0.94507 0.0
C580 C 0.56378 0.11427 0.9445 0.0
C581 C 0.59934 0.11554 0.92709 0.0
C582 C 0.55702 0.09576 0.9788 0.0
C583 C 0.51549 0.04492 0.0297 0.0
H584 H 0.53398 0.04917 0.10575 0.0
H585 H 0.53997 0.9857 0.14886 0.0
H586 H 0.50937 0.04298 0.13657 0.0
H587 H 0.56512 0.99257 0.11833 0.0
H588 H 0.60035 0.09134 0.97559 0.0
H589 H 0.57073 0.12801 0.91366 0.0
H590 H 0.62425 0.10142 0.94522 0.0
H591 H 0.54676 0.11749 0.94405 0.0
Eu592 Eu 0.32151 0.31909 0.29128 0.0
Eu593 Eu 0.29362 0.26979 0.26307 0.0
C594 C 0.30828 0.31168 0.23618 0.0
C595 C 0.33717 0.38167 0.30539 0.0
C596 C 0.32762 0.38187 0.28319 0.0
C597 C 0.33084 0.42037 0.31778 0.0
C598 C 0.31924 0.40087 0.27847 0.0
C599 C 0.33922 0.40119 0.32255 0.0
C600 C 0.32011 0.41998 0.29591 0.0
C601 C 0.34123 0.35989 0.31124 0.0
O602 O 0.3297 0.27119 0.25625 0.0
O603 O 0.34642 0.2954 0.2889 0.0
C604 C 0.34747 0.28035 0.27035 0.0
O605 O 0.30999 0.29901 0.31904 0.0
O606 O 0.28355 0.24638 0.23042 0.0
O607 O 0.27179 0.23678 0.26217 0.0
O608 O 0.30519 0.26259 0.29827 0.0
C609 C 0.3072 0.27677 0.31822 0.0
O610 O 0.2865 0.32467 0.28306 0.0
O611 O 0.26805 0.28773 0.28021 0.0
O612 O 0.2919 0.295 0.23844 0.0
O613 O 0.32417 0.34825 0.3193 0.0
O614 O 0.35019 0.34711 0.29552 0.0
O615 O 0.32363 0.32056 0.25325 0.0
C616 C 0.28278 0.2085 0.23536 0.0
C617 C 0.30602 0.2095 0.23665 0.0
C618 C 0.27731 0.1671 0.23043 0.0
C619 C 0.31489 0.18957 0.23535 0.0
C620 C 0.26842 0.18722 0.23174 0.0
C621 C 0.30066 0.16816 0.23283 0.0
C622 C 0.27401 0.22981 0.24035 0.0
C623 C 0.2682 0.30979 0.28382 0.0
H624 H 0.32555 0.36685 0.26979 0.0
H625 H 0.33158 0.43492 0.33151 0.0
H626 H 0.31127 0.40027 0.26141 0.0
H627 H 0.34624 0.40116 0.33986 0.0
H628 H 0.31738 0.2258 0.23975 0.0
H629 H 0.26595 0.15084 0.22838 0.0
H630 H 0.33291 0.19114 0.2378 0.0
H631 H 0.25041 0.18621 0.23084 0.0
Eu632 Eu 0.54799 0.57498 0.04161 0.0
Eu633 Eu 0.56652 0.53119 0.01636 0.0
C634 C 0.59561 0.58053 0.01818 0.0
C635 C 0.54482 0.63607 0.04898 0.0
C636 C 0.56145 0.63668 0.03328 0.0
C637 C 0.54128 0.6749 0.045 0.0
C638 C 0.56797 0.65604 0.02352 0.0
C639 C 0.53489 0.65537 0.05506 0.0
C640 C 0.55759 0.67518 0.02876 0.0
C641 C 0.53755 0.61462 0.05759 0.0
O642 O 0.58298 0.53783 0.05449 0.0
O643 O 0.56157 0.56143 0.07359 0.0
C644 C 0.57724 0.54853 0.07439 0.0
O645 O 0.51988 0.54711 0.04668 0.0
O646 O 0.59394 0.51216 0.01084 0.0
O647 O 0.56065 0.49702 0.99533 0.0
O648 O 0.53439 0.51598 0.03029 0.0
C649 C 0.5185 0.52491 0.04075 0.0
O650 O 0.53614 0.57276 1.00239 0.0
O651 O 0.54741 0.54026 0.98465 0.0
O652 O 0.58954 0.5603 1.0053 0.0
O653 O 0.52436 0.59876 0.04297 0.0
O654 O 0.5536 0.60654 0.06708 0.0
O655 O 0.58407 0.58717 0.03544 0.0
C656 C 0.58026 0.4736 0.01321 0.0
C657 C 0.58242 0.47731 0.03751 0.0
C658 C 0.5697 0.43272 0.0129 0.0
C659 C 0.57771 0.45907 0.04937 0.0
C660 C 0.57433 0.45114 1.00095 0.0
C661 C 0.57067 0.4367 0.03723 0.0
C662 C 0.58048 0.49331 1.00127 0.0
C663 C 0.53687 0.55768 0.98324 0.0
H664 H 0.56912 0.62192 0.02809 0.0
H665 H 0.53292 0.68938 0.04926 0.0
H666 H 0.58088 0.65582 0.01144 0.0
H667 H 0.52192 0.65515 0.06707 0.0
H668 H 0.58678 0.49444 0.04744 0.0
H669 H 0.56428 0.41559 1.00318 0.0
H670 H 0.57893 0.46256 0.06813 0.0
H671 H 0.57226 0.44796 0.98221 0.0
Eu672 Eu 0.82966 0.31742 0.27226 0.0
Eu673 Eu 0.78446 0.28854 0.28436 0.0
C674 C 0.81434 0.32701 0.32455 0.0
C675 C 0.89074 0.34246 0.27443 0.0
C676 C 0.89437 0.35023 0.29844 0.0
C677 C 0.92864 0.3347 0.27381 0.0
C678 C 0.91483 0.34988 0.31006 0.0
C679 C 0.9082 0.33525 0.26213 0.0
C680 C 0.93192 0.34156 0.29795 0.0
C681 C 0.86819 0.33908 0.26269 0.0
O682 O 0.77276 0.3227 0.27672 0.0
O683 O 0.80603 0.34465 0.27156 0.0
C684 C 0.78414 0.3431 0.27398 0.0
O685 O 0.81166 0.30088 0.23732 0.0
O686 O 0.76308 0.27144 0.30757 0.0
O687 O 0.75079 0.27096 0.27201 0.0
O688 O 0.79309 0.27022 0.25036 0.0
C689 C 0.80217 0.27923 0.23351 0.0
O690 O 0.84117 0.28271 0.27826 0.0
O691 O 0.80893 0.2625 0.28856 0.0
O692 O 0.79536 0.31307 0.3176 0.0
O693 O 0.85975 0.31807 0.25331 0.0
O694 O 0.85357 0.34917 0.27376 0.0
O695 O 0.83113 0.32853 0.31125 0.0
C696 C 0.72523 0.27422 0.3002 0.0
C697 C 0.7219 0.29632 0.29827 0.0
C698 C 0.68696 0.26491 0.31026 0.0
C699 C 0.70087 0.30222 0.30083 0.0
C700 C 0.70798 0.25885 0.30717 0.0
C701 C 0.68279 0.28622 0.3058 0.0
C702 C 0.7457 0.26663 0.29243 0.0
C703 C 0.83033 0.26322 0.2838 0.0
H704 H 0.88113 0.35565 0.30846 0.0
H705 H 0.94167 0.32841 0.26408 0.0
H706 H 0.91686 0.35504 0.3287 0.0
H707 H 0.90569 0.32911 0.24363 0.0
H708 H 0.73513 0.30854 0.2932 0.0
H709 H 0.67367 0.25238 0.31483 0.0
H710 H 0.69856 0.31872 0.29704 0.0
H711 H 0.71042 0.24181 0.30909 0.0
Eu712 Eu 0.06128 0.54281 0.54447 0.0
Eu713 Eu 0.05881 0.57065 0.50156 0.0
C714 C 0.05012 0.59289 0.5525 0.0
C715 C 0.04862 0.51832 0.59852 0.0
C716 C 0.0303 0.52961 0.60097 0.0
C717 C 0.04307 0.50637 0.63559 0.0
C718 C 0.01855 0.52949 0.62074 0.0
C719 C 0.05483 0.50649 0.61573 0.0
C720 C 0.02504 0.51817 0.63842 0.0
C721 C 0.0616 0.51954 0.57832 0.0
O722 O 0.09467 0.58217 0.51836 0.0
O723 O 0.09764 0.55165 0.53639 0.0
C724 C 0.10708 0.56999 0.52853 0.0
O725 O 0.05942 0.51775 0.51151 0.0
O726 O 0.0629 0.6034 0.48967 0.0
O727 O 0.05087 0.57197 0.46526 0.0
O728 O 0.07641 0.54164 0.48878 0.0
C729 C 0.07139 0.5212 0.4941 0.0
O730 O 0.02435 0.54475 0.53856 0.0
O731 O 0.02405 0.54851 0.50038 0.0
O732 O 0.04299 0.58937 0.53062 0.0
O733 O 0.05032 0.51169 0.55836 0.0
O734 O 0.07484 0.53903 0.57844 0.0
O735 O 0.06211 0.57945 0.56076 0.0
C736 C 0.07421 0.60166 0.45205 0.0
C737 C 0.09556 0.59584 0.45305 0.0
C738 C 0.08383 0.62147 0.42016 0.0
C739 C 0.1109 0.60255 0.43748 0.0
C740 C 0.06848 0.61472 0.43576 0.0
C741 C 0.10512 0.61523 0.42068 0.0
C742 C 0.05794 0.59406 0.46797 0.0
C743 C 1.01321 0.54382 0.51847 0.0
H744 H 0.02529 0.53879 0.58773 0.0
H745 H 0.04855 0.4977 0.64903 0.0
H746 H 1.00453 0.53846 0.62231 0.0
H747 H 0.06899 0.49772 0.61401 0.0
H748 H 0.10021 0.58578 0.46564 0.0
H749 H 0.07899 0.6314 0.40756 0.0
H750 H 0.127 0.59713 0.43811 0.0
H751 H 0.05207 0.61947 0.43495 0.0
Eu752 Eu 0.78296 0.81153 0.2782 0.0
Eu753 Eu 0.83159 0.79693 0.28083 0.0
C754 C 0.78553 0.75703 0.28239 0.0
C755 C 0.72353 0.82009 0.29005 0.0
C756 C 0.7236 0.80988 0.30989 0.0
C757 C 0.68465 0.82345 0.294 0.0
C758 C 0.7043 0.8066 0.32183 0.0
C759 C 0.70398 0.82679 0.28215 0.0
C760 C 0.68461 0.81337 0.31401 0.0
C761 C 0.74378 0.82407 0.27765 0.0
O762 O 0.82255 0.79066 0.24244 0.0
O763 O 0.78971 0.8045 0.24029 0.0
C764 C 0.80569 0.79525 0.23033 0.0
O765 O 0.80723 0.84617 0.27813 0.0
O766 O 0.85167 0.77015 0.27445 0.0
O767 O 0.86737 0.80406 0.29151 0.0
O768 O 0.84114 0.83467 0.27463 0.0
C769 C 0.82909 0.85128 0.27584 0.0
O770 O 0.78976 0.81095 0.31648 0.0
O771 O 0.82742 0.81076 0.31794 0.0
O772 O 0.80764 0.76361 0.28593 0.0
O773 O 0.76157 0.836 0.28996 0.0
O774 O 0.74823 0.80641 0.26389 0.0
O775 O 0.77312 0.7723 0.27815 0.0
C776 C 0.88841 0.78312 0.26647 0.0
C777 C 0.88878 0.79477 0.24762 0.0
C778 C 0.92152 0.76849 0.25449 0.0
C779 C 0.90559 0.79343 0.23236 0.0
C780 C 0.90476 0.76992 0.26979 0.0
C781 C 0.92218 0.78031 0.23566 0.0
C782 C 0.87045 0.78381 0.28209 0.0
C783 C 0.80918 0.81319 0.32832 0.0
H784 H 0.7386 0.80453 0.31616 0.0
H785 H 0.66985 0.82912 0.28773 0.0
H786 H 0.70471 0.79857 0.33703 0.0
H787 H 0.70371 0.83475 0.26688 0.0
H788 H 0.87607 0.80487 0.24474 0.0
H789 H 0.93385 0.75795 0.25729 0.0
H790 H 0.90577 0.80294 0.21819 0.0
H791 H 0.90447 0.76059 0.28411 0.0
Eu792 Eu 0.80816 0.32334 0.76144 0.0
Eu793 Eu 0.78617 0.31459 0.81098 0.0
C794 C 0.75775 0.32836 0.76935 0.0
C795 C 0.82253 0.3459 0.70558 0.0
C796 C 0.81738 0.36774 0.71255 0.0
C797 C 0.82338 0.35275 0.66605 0.0
C798 C 0.81534 0.38208 0.69629 0.0
C799 C 0.82553 0.33855 0.68228 0.0
C800 C 0.81829 0.37472 0.6728 0.0
C801 C 0.82377 0.33003 0.72195 0.0
O802 O 0.7934 0.28113 0.79264 0.0
O803 O 0.7881 0.28776 0.75583 0.0
C804 C 0.78908 0.27359 0.77039 0.0
O805 O 0.83293 0.30762 0.78037 0.0
O806 O 0.76239 0.29355 0.82898 0.0
O807 O 0.78552 0.32249 0.84851 0.0
O808 O 0.82353 0.31945 0.81716 0.0
C809 C 0.83734 0.3113 0.80291 0.0
O810 O 0.81675 0.35666 0.78604 0.0
O811 O 0.78999 0.35263 0.81241 0.0
O812 O 0.75743 0.31528 0.78531 0.0
O813 O 0.83487 0.33829 0.742 0.0
O814 O 0.80511 0.31633 0.72373 0.0
O815 O 0.77655 0.33767 0.76198 0.0
C816 C 0.77763 0.28943 0.8654 0.0
C817 C 0.79636 0.27888 0.86165 0.0
C818 C 0.77181 0.27215 0.89974 0.0
C819 C 0.80284 0.26513 0.8769 0.0
C820 C 0.76537 0.28593 0.88447 0.0
C821 C 0.79067 0.26162 0.8962 0.0
C822 C 0.77097 0.3041 0.84949 0.0
C823 C 0.80521 0.36527 0.80253 0.0
H824 H 0.81479 0.37361 0.73049 0.0
H825 H 0.82526 0.34626 0.64808 0.0
H826 H 0.81156 0.39892 0.70214 0.0
H827 H 0.82922 0.32163 0.67656 0.0
H828 H 0.80605 0.28141 0.84697 0.0
H829 H 0.76185 0.26957 0.9142 0.0
H830 H 0.81759 0.25755 0.87377 0.0
H831 H 0.75081 0.29385 0.88757 0.0
Eu832 Eu 0.82439 0.82515 0.79379 0.0
Eu833 Eu 0.79526 0.77661 0.76544 0.0
C834 C 0.8121 0.81834 0.73898 0.0
C835 C 0.83566 0.88683 0.81685 0.0
C836 C 0.81383 0.88595 0.80745 0.0
C837 C 0.83983 0.92802 0.82792 0.0
C838 C 0.80499 0.90584 0.80833 0.0
C839 C 0.84868 0.90789 0.82716 0.0
C840 C 0.81784 0.92709 0.81855 0.0
C841 C 0.84431 0.86545 0.81517 0.0
O842 O 0.82986 0.76903 0.77189 0.0
O843 O 0.84943 0.80595 0.77746 0.0
C844 C 0.84862 0.78378 0.7728 0.0
O845 O 0.82615 0.80007 0.81844 0.0
O846 O 0.78967 0.74893 0.73571 0.0
O847 O 0.76594 0.74933 0.76193 0.0
O848 O 0.79453 0.7742 0.80356 0.0
C849 C 0.80998 0.78315 0.8206 0.0
O850 O 0.78862 0.82452 0.80097 0.0
O851 O 0.77155 0.80161 0.76781 0.0
O852 O 0.80973 0.79618 0.73837 0.0
O853 O 0.83302 0.85017 0.82557 0.0
O854 O 0.84836 0.85671 0.79433 0.0
O855 O 0.81253 0.83235 0.75876 0.0
C856 C 0.77619 0.71392 0.74691 0.0
C857 C 0.77586 0.70728 0.76879 0.0
C858 C 0.7937 0.6816 0.73259 0.0
C859 C 0.78536 0.68863 0.77278 0.0
C860 C 0.784 0.70015 0.72854 0.0
C861 C 0.79547 0.67645 0.75503 0.0
C862 C 0.77308 0.73714 0.74432 0.0
C863 C 0.77099 0.81678 0.78638 0.0
H864 H 0.80366 0.86983 0.79914 0.0
H865 H 0.85008 0.94423 0.83581 0.0
H866 H 0.78823 0.90461 0.80043 0.0
H867 H 0.86562 0.90878 0.8344 0.0
H868 H 0.76994 0.71752 0.78333 0.0
H869 H 0.80113 0.67222 0.71856 0.0
H870 H 0.78656 0.68507 0.79025 0.0
H871 H 0.78434 0.70489 0.71151 0.0
Eu872 Eu 0.57192 0.58169 0.53652 0.0
Eu873 Eu 0.54644 0.53038 0.52016 0.0
C874 C 0.5782 0.5542 0.48237 0.0
C875 C 0.57774 0.64443 0.55498 0.0
C876 C 0.58627 0.66572 0.54921 0.0
C877 C 0.54193 0.6563 0.56088 0.0
C878 C 0.57234 0.68178 0.54811 0.0
C879 C 0.5559 0.6403 0.56208 0.0
C880 C 0.54965 0.67657 0.55255 0.0
C881 C 0.58892 0.62504 0.54767 0.0
O882 O 0.58345 0.52708 0.52449 0.0
O883 O 0.60064 0.56291 0.54232 0.0
C884 C 0.60175 0.54166 0.53338 0.0
O885 O 0.55494 0.5751 0.57037 0.0
O886 O 0.52692 0.50252 0.49469 0.0
O887 O 0.53714 0.49659 0.52888 0.0
O888 O 0.53496 0.53906 0.5579 0.0
C889 C 0.53999 0.55758 0.5744 0.0
O890 O 0.53542 0.58574 0.52966 0.0
O891 O 0.51746 0.54907 0.51589 0.0
O892 O 0.5622 0.53741 0.48595 0.0
O893 O 0.58971 0.61061 0.56196 0.0
O894 O 0.58258 0.61475 0.52648 0.0
O895 O 0.58435 0.57217 0.49933 0.0
C896 C 0.53737 0.46701 0.4977 0.0
C897 C 0.55993 0.46582 0.50241 0.0
C898 C 0.53027 0.42701 0.47981 0.0
C899 C 0.56722 0.445 0.49746 0.0
C900 C 0.52285 0.44786 0.48528 0.0
C901 C 0.55212 0.42495 0.48738 0.0
C902 C 0.52865 0.48733 0.50792 0.0
C903 C 0.51685 0.57087 0.52249 0.0
H904 H 0.60299 0.66906 0.54342 0.0
H905 H 0.52459 0.65202 0.56464 0.0
H906 H 0.57872 0.6972 0.54148 0.0
H907 H 0.54897 0.62386 0.56645 0.0
H908 H 0.57154 0.48058 0.51162 0.0
H909 H 0.51838 0.4122 0.47119 0.0
H910 H 0.58416 0.44447 0.50367 0.0
H911 H 0.50548 0.44866 0.48101 0.0
Eu912 Eu 0.07416 0.53898 0.03642 0.0
Eu913 Eu 0.02547 0.54444 0.05912 0.0
C914 C 0.06674 0.5327 0.08817 0.0
C915 C 0.12866 0.5179 0.02149 0.0
C916 C 0.13043 0.50639 0.0403 0.0
C917 C 0.15937 0.50148 1.00498 0.0
C918 C 0.14691 0.49289 0.04166 0.0
C919 C 0.14296 0.51503 1.00369 0.0
C920 C 0.16185 0.4906 0.02421 0.0
C921 C 0.11278 0.53374 0.02067 0.0
O922 O 0.04118 0.57884 0.05201 0.0
O923 O 0.07792 0.57498 0.05565 0.0
C924 C 0.06255 0.58779 0.05524 0.0
O925 O 0.0553 0.55413 0.01081 0.0
O926 O 1.00725 0.56325 0.0845 0.0
O927 O 0.98924 0.53464 0.05961 0.0
O928 O 0.01963 0.54177 0.02061 0.0
C929 C 0.03346 0.55021 1.00636 0.0
O930 O 0.05069 0.50565 0.02532 0.0
O931 O 0.02588 0.50658 0.05378 0.0
O932 O 0.05117 0.54546 0.08863 0.0
O933 O 0.09364 0.52565 1.00865 0.0
O934 O 0.11058 0.54667 0.04022 0.0
O935 O 0.07356 0.52356 0.06862 0.0
C936 C 0.97165 0.56655 0.06909 0.0
C937 C 0.97426 0.57729 0.04963 0.0
C938 C 0.93844 0.58319 0.0767 0.0
C939 C 0.95897 0.59075 0.04364 0.0
C940 C 0.95373 0.56967 0.08264 0.0
C941 C 0.94078 0.59382 0.05704 0.0
C942 C 0.98765 0.55222 0.07527 0.0
C943 C 0.03549 0.4954 0.03713 0.0
H944 H 0.11945 0.50831 0.05419 0.0
H945 H 0.17028 0.49973 0.99102 0.0
H946 H 0.14843 0.48492 0.05678 0.0
H947 H 0.14173 0.52364 0.98896 0.0
H948 H 0.98808 0.57513 0.03899 0.0
H949 H 0.92488 0.58544 0.08764 0.0
H950 H 0.96119 0.59841 0.02826 0.0
H951 H 0.95154 0.56166 0.09781 0.0
H952 H 0.03224 0.23412 0.94597 0.0
H953 H 0.99653 0.27542 0.99291 0.0
H954 H 0.04521 0.21719 0.97787 0.0
H955 H 1.0098 0.25846 0.02505 0.0
H956 H 0.02474 0.19814 0.06593 0.0
H957 H 1.00851 0.21966 0.03953 0.0
H958 H 0.07282 0.23565 0.01217 0.0
H959 H 0.08875 0.21353 0.03722 0.0
C960 C 0.02687 0.23931 0.96304 0.0
C961 C 1.01359 0.25622 0.96703 0.0
C962 C 0.03447 0.22981 0.98133 0.0
C963 C 0.02898 0.23705 1.00397 0.0
C964 C 1.0144 0.25278 1.00777 0.0
C965 C 1.00678 0.26237 0.98939 0.0
C966 C 0.03552 0.20662 0.0546 0.0
C967 C 0.05793 0.20348 0.05335 0.0
C968 C 0.02622 0.219 0.03958 0.0
C969 C 0.03929 0.22853 0.02333 0.0
C970 C 0.06226 0.22784 0.02413 0.0
C971 C 0.07148 0.21543 0.0389 0.0
H972 H 0.14293 0.85127 0.18167 0.0
H973 H 0.1348 0.77977 0.18762 0.0
H974 H 0.16958 0.86094 0.21602 0.0
H975 H 0.16122 0.7894 0.22177 0.0
H976 H 0.2044 0.81168 0.28715 0.0
H977 H 0.1699 0.81113 0.26325 0.0
H978 H 0.20831 0.85077 0.21883 0.0
H979 H 0.24245 0.8511 0.2424 0.0
C980 C 0.1466 0.83771 0.19051 0.0
C981 C 0.13719 0.81476 0.18182 0.0
C982 C 0.16171 0.84324 0.21016 0.0
C983 C 0.16736 0.82592 0.22154 0.0
C984 C 0.15692 0.80313 0.21355 0.0
C985 C 0.14206 0.79759 0.19381 0.0
C986 C 0.20523 0.82084 0.27269 0.0
C987 C 0.22594 0.83114 0.2663 0.0
C988 C 0.1856 0.82047 0.25902 0.0
C989 C 0.18653 0.83079 0.23915 0.0
C990 C 0.20706 0.84285 0.23413 0.0
C991 C 0.22661 0.84287 0.24749 0.0
H992 H 0.5398 0.85386 0.4913 0.0
H993 H 0.48633 0.8734 0.45223 0.0
H994 H 0.54435 0.89006 0.51814 0.0
H995 H 0.49164 0.91009 0.47808 0.0
H996 H 0.49975 0.97334 0.52988 0.0
H997 H 0.48967 0.93241 0.51458 0.0
H998 H 0.55997 0.92764 0.51599 0.0
H999 H 0.56982 0.96775 0.53219 0.0
C1000 C 0.52908 0.86598 0.48847 0.0
C1001 C 0.51298 0.8611 0.46957 0.0
C1002 C 0.53167 0.88671 0.50379 0.0
C1003 C 0.51855 0.90317 0.50015 0.0
C1004 C 0.50183 0.89777 0.48168 0.0
C1005 C 0.49895 0.87685 0.46667 0.0
C1006 C 0.51296 0.96336 0.5274 0.0
C1007 C 0.53557 0.97387 0.53183 0.0
C1008 C 0.50721 0.93996 0.51848 0.0
C1009 C 0.524 0.92675 0.51368 0.0
C1010 C 0.54652 0.93708 0.51964 0.0
C1011 C 0.55221 0.96028 0.52874 0.0
H1012 H 0.54774 0.32156 0.67801 0.0
H1013 H 0.52607 0.25248 0.64096 0.0
H1014 H 0.51605 0.31683 0.70167 0.0
H1015 H 0.49432 0.24768 0.66488 0.0
H1016 H 0.4271 0.26155 0.69489 0.0
H1017 H 0.45907 0.26341 0.67115 0.0
H1018 H 0.50339 0.29445 0.73194 0.0
H1019 H 0.47146 0.29321 0.75552 0.0
C1020 C 0.5362 0.30535 0.67494 0.0
C1021 C 0.53933 0.28739 0.65765 0.0
C1022 C 0.51815 0.30259 0.6886 0.0
C1023 C 0.50283 0.28184 0.6852 0.0
C1024 C 0.50584 0.2639 0.66777 0.0
C1025 C 0.524 0.26662 0.65415 0.0
C1026 C 0.44369 0.26877 0.70314 0.0
C1027 C 0.44679 0.27737 0.72701 0.0
C1028 C 0.46198 0.26962 0.6896 0.0
C1029 C 0.48366 0.27921 0.6997 0.0
C1030 C 0.48681 0.28722 0.72367 0.0
C1031 C 0.46857 0.2863 0.73719 0.0
H1032 H 0.05136 0.80777 0.59721 0.0
H1033 H 1.0131 0.85277 0.63621 0.0
H1034 H 0.05809 0.8341 0.56979 0.0
H1035 H 0.0206 0.87962 0.6095 0.0
H1036 H 0.0214 0.91597 0.54914 0.0
H1037 H 1.01201 0.88556 0.57171 0.0
H1038 H 0.07883 0.87028 0.56648 0.0
H1039 H 0.08771 0.90016 0.543 0.0
C1040 C 0.04451 0.8234 0.59998 0.0
C1041 C 0.03173 0.82828 0.61884 0.0
C1042 C 0.04845 0.83854 0.58433 0.0
C1043 C 0.0399 0.85902 0.58735 0.0
C1044 C 0.02709 0.86382 0.60629 0.0
C1045 C 0.02292 0.84854 0.62176 0.0
C1046 C 0.03391 0.90582 0.55259 0.0
C1047 C 0.05528 0.91037 0.54451 0.0
C1048 C 0.02864 0.88855 0.56568 0.0
C1049 C 0.04477 0.87568 0.5713 0.0
C1050 C 0.06591 0.87968 0.56235 0.0
C1051 C 0.07106 0.89679 0.54894 0.0
H1052 H 0.57296 0.83643 0.83054 0.0
H1053 H 0.53046 0.79869 0.87343 0.0
H1054 H 0.53992 0.83837 0.80579 0.0
H1055 H 0.49771 0.8002 0.84854 0.0
H1056 H 0.44714 0.8413 0.82774 0.0
H1057 H 0.48204 0.83577 0.84611 0.0
H1058 H 0.5056 0.81567 0.77894 0.0
H1059 H 0.47024 0.8214 0.76036 0.0
C1060 C 0.55664 0.82805 0.83428 0.0
C1061 C 0.55408 0.81781 0.85409 0.0
C1062 C 0.53781 0.82912 0.82012 0.0
C1063 C 0.51635 0.81988 0.82564 0.0
C1064 C 0.5141 0.80793 0.84429 0.0
C1065 C 0.5328 0.807 0.85846 0.0
C1066 C 0.45981 0.83578 0.8169 0.0
C1067 C 0.45602 0.8314 0.79273 0.0
C1068 C 0.47968 0.83249 0.82737 0.0
C1069 C 0.49616 0.8247 0.81389 0.0
C1070 C 0.49298 0.8215 0.78964 0.0
C1071 C 0.47292 0.82483 0.77907 0.0
H1072 H 0.5585 0.22081 0.16469 0.0
H1073 H 0.51978 0.2291 0.104 0.0
H1074 H 0.56248 0.18268 0.14579 0.0
H1075 H 0.52486 0.19174 0.08446 0.0
H1076 H 0.51811 0.11652 0.06161 0.0
H1077 H 0.51311 0.15297 0.08348 0.0
H1078 H 0.57983 0.16203 0.11715 0.0
H1079 H 0.58406 0.12474 0.09623 0.0
C1080 C 0.55114 0.21455 0.14715 0.0
C1081 C 0.53877 0.22775 0.13578 0.0
C1082 C 0.55349 0.19275 0.13626 0.0
C1083 C 0.54387 0.18395 0.1136 0.0
C1084 C 0.53198 0.19758 0.10212 0.0
C1085 C 0.52924 0.21912 0.1132 0.0
C1086 C 0.53158 0.12626 0.07388 0.0
C1087 C 0.55149 0.11797 0.07722 0.0
C1088 C 0.52884 0.14727 0.08628 0.0
C1089 C 0.54621 0.16074 0.10185 0.0
C1090 C 0.56597 0.15208 0.10554 0.0
C1091 C 0.56848 0.13076 0.0935 0.0
H1092 H 0.13804 0.31975 0.33562 0.0
H1093 H 0.1894 0.34252 0.39215 0.0
H1094 H 0.1667 0.31958 0.30807 0.0
H1095 H 0.21816 0.34195 0.36452 0.0
H1096 H 0.26558 0.35104 0.30992 0.0
H1097 H 0.2341 0.35986 0.33195 0.0
H1098 H 0.19443 0.29478 0.29969 0.0
H1099 H 0.22559 0.28612 0.27762 0.0
C1100 C 0.15547 0.32472 0.34215 0.0
C1101 C 0.16156 0.33087 0.36602 0.0
C1102 C 0.17184 0.32469 0.32637 0.0
C1103 C 0.19461 0.33079 0.33416 0.0
C1104 C 0.2007 0.33751 0.35801 0.0
C1105 C 0.18429 0.33755 0.37383 0.0
C1106 C 0.24988 0.33898 0.30702 0.0
C1107 C 0.24806 0.31776 0.29234 0.0
C1108 C 0.23198 0.34393 0.31978 0.0
C1109 C 0.212 0.32784 0.31778 0.0
C1110 C 0.2096 0.30754 0.30154 0.0
C1111 C 0.22748 0.30254 0.28897 0.0
H1112 H 0.94839 0.08464 0.19173 0.0
H1113 H 0.99399 0.04797 0.22145 0.0
H1114 H 0.96811 0.08209 0.156 0.0
H1115 H 1.01314 0.04451 0.18534 0.0
H1116 H 0.03009 0.02346 0.1059 0.0
H1117 H 1.01125 0.02644 0.14225 0.0
H1118 H 1.0037 0.0951 0.13667 0.0
H1119 H 0.02336 0.09245 0.10096 0.0
C1120 C 0.96256 0.07587 0.19088 0.0
C1121 C 0.96909 0.06666 0.21051 0.0
C1122 C 0.97417 0.07442 0.16996 0.0
C1123 C 0.99279 0.06297 0.16667 0.0
C1124 C 0.99909 0.05343 0.1862 0.0
C1125 C 0.98792 0.05552 0.20741 0.0
C1126 C 0.02464 0.03937 0.11229 0.0
C1127 C 0.02892 0.05768 0.09954 0.0
C1128 C 1.01364 0.04115 0.13362 0.0
C1129 C 1.00533 0.06109 0.14347 0.0
C1130 C 1.00932 0.07924 0.13046 0.0
C1131 C 0.02094 0.07772 0.10957 0.0
H1132 H 0.29435 0.63804 0.47054 0.0
H1133 H 0.34147 0.69827 0.5029 0.0
H1134 H 0.28498 0.65802 0.43918 0.0
H1135 H 0.33212 0.71815 0.47183 0.0
H1136 H 0.32207 0.74368 0.40496 0.0
H1137 H 0.33408 0.71869 0.43002 0.0
H1138 H 0.26494 0.69082 0.4372 0.0
H1139 H 0.25287 0.71599 0.41234 0.0
C1140 C 0.30299 0.65537 0.47072 0.0
C1141 C 0.31858 0.66664 0.48917 0.0
C1142 C 0.2975 0.66685 0.45289 0.0
C1143 C 0.30774 0.68968 0.45309 0.0
C1144 C 0.32409 0.7005 0.47103 0.0
C1145 C 0.32938 0.68914 0.4889 0.0
C1146 C 0.30941 0.73223 0.41189 0.0
C1147 C 0.28649 0.73207 0.40688 0.0
C1148 C 0.31631 0.71785 0.42616 0.0
C1149 C 0.30047 0.70288 0.43569 0.0
C1150 C 0.27756 0.70198 0.42991 0.0
C1151 C 0.27064 0.71644 0.41568 0.0
H1152 H 0.63745 0.0579 0.71952 0.0
H1153 H 0.68663 0.03002 0.67846 0.0
H1154 H 0.61117 0.05047 0.68545 0.0
H1155 H 0.65996 0.02171 0.64439 0.0
H1156 H 0.62392 0.049 0.58731 0.0
H1157 H 0.64695 0.04675 0.62126 0.0
H1158 H 0.58762 0.02413 0.65501 0.0
H1159 H 0.56422 0.02703 0.62088 0.0
C1160 C 0.64244 0.04965 0.70329 0.0
C1161 C 0.6642 0.0449 0.70149 0.0
C1162 C 0.62729 0.04523 0.68378 0.0
C1163 C 0.63358 0.0358 0.66213 0.0
C1164 C 0.6548 0.02947 0.66074 0.0
C1165 C 0.67004 0.03411 0.68024 0.0
C1166 C 0.61566 0.04344 0.60187 0.0
C1167 C 0.59217 0.03841 0.60145 0.0
C1168 C 0.62895 0.04187 0.6213 0.0
C1169 C 0.61916 0.0351 0.64081 0.0
C1170 C 0.59565 0.02956 0.64028 0.0
C1171 C 0.58226 0.03121 0.62076 0.0
H1172 H 0.29824 0.33168 0.97804 0.0
H1173 H 0.35178 0.38452 0.96604 0.0
H1174 H 0.29295 0.31666 0.93627 0.0
H1175 H 0.34654 0.36966 0.92468 0.0
H1176 H 0.34843 0.32348 0.85621 0.0
H1177 H 0.35211 0.33545 0.89789 0.0
H1178 H 0.28025 0.32821 0.89844 0.0
H1179 H 0.27642 0.31604 0.85621 0.0
C1180 C 0.30898 0.33997 0.96655 0.0
C1181 C 0.32553 0.35922 0.97543 0.0
C1182 C 0.30582 0.33149 0.94261 0.0
C1183 C 0.31935 0.3419 0.92707 0.0
C1184 C 0.33599 0.36102 0.93609 0.0
C1185 C 0.33896 0.36959 0.95987 0.0
C1186 C 0.33329 0.32428 0.86506 0.0
C1187 C 0.31209 0.31885 0.85264 0.0
C1188 C 0.33546 0.3313 0.88907 0.0
C1189 C 0.31651 0.333 0.90158 0.0
C1190 C 0.2952 0.32699 0.88936 0.0
C1191 C 0.29301 0.32011 0.86514 0.0
H1192 H 0.99457 0.10011 0.34761 0.0
H1193 H 0.94658 0.03981 0.35148 0.0
H1194 H 1.01334 0.09726 0.38497 0.0
H1195 H 0.96559 0.03653 0.38833 0.0
H1196 H 0.01647 0.02383 0.44647 0.0
H1197 H 0.99788 0.02729 0.40941 0.0
H1198 H 1.01338 0.10067 0.42784 0.0
H1199 H 0.03143 0.09714 0.46521 0.0
C1200 C 0.98787 0.0861 0.3562 0.0
C1201 C 0.96856 0.07028 0.34562 0.0
C1202 C 0.99878 0.08446 0.37809 0.0
C1203 C 0.99154 0.06653 0.3907 0.0
C1204 C 0.97238 0.05061 0.37989 0.0
C1205 C 0.96118 0.05258 0.35835 0.0
C1206 C 0.01603 0.04083 0.44288 0.0
C1207 C 0.02593 0.0601 0.4598 0.0
C1208 C 1.00505 0.04288 0.42122 0.0
C1209 C 1.0036 0.06437 0.41456 0.0
C1210 C 1.01382 0.08365 0.43138 0.0
C1211 C 0.02433 0.08159 0.45329 0.0
H1212 H 0.32853 0.71485 0.59442 0.0
H1213 H 0.31925 0.66071 0.63492 0.0
H1214 H 0.32199 0.74212 0.6276 0.0
H1215 H 0.3134 0.68823 0.66859 0.0
H1216 H 0.3285 0.79014 0.69792 0.0
H1217 H 0.33582 0.76341 0.66436 0.0
H1218 H 0.28695 0.71013 0.68369 0.0
H1219 H 0.2802 0.73661 0.71743 0.0
C1220 C 0.32541 0.7088 0.61056 0.0
C1221 C 0.32442 0.6855 0.61193 0.0
C1222 C 0.32173 0.72455 0.62972 0.0
C1223 C 0.31701 0.71757 0.65097 0.0
C1224 C 0.31655 0.6943 0.65248 0.0
C1225 C 0.32014 0.67849 0.63322 0.0
C1226 C 0.31909 0.77282 0.69481 0.0
C1227 C 0.30371 0.76564 0.71043 0.0
C1228 C 0.32331 0.75739 0.67552 0.0
C1229 C 0.31219 0.73435 0.67124 0.0
C1230 C 0.2963 0.72747 0.68655 0.0
C1231 C 0.29219 0.74282 0.70584 0.0
H1232 H 0.69707 0.12836 0.82189 0.0
H1233 H 0.65632 0.06069 0.81012 0.0
H1234 H 0.67443 0.14032 0.85356 0.0
H1235 H 0.63386 0.07263 0.84141 0.0
H1236 H 0.58434 0.10395 0.88163 0.0
H1237 H 0.60691 0.10075 0.84857 0.0
H1238 H 0.66688 0.12857 0.89373 0.0
H1239 H 0.6442 0.13232 0.92698 0.0
C1240 C 0.68333 0.1161 0.82608 0.0
C1241 C 0.67841 0.09361 0.81363 0.0
C1242 C 0.67043 0.12293 0.84412 0.0
C1243 C 0.65228 0.10746 0.84961 0.0
C1244 C 0.64751 0.085 0.83719 0.0
C1245 C 0.6605 0.07812 0.81944 0.0
C1246 C 0.60225 0.11013 0.88446 0.0
C1247 C 0.61256 0.11815 0.90691 0.0
C1248 C 0.61516 0.10808 0.86557 0.0
C1249 C 0.63859 0.11406 0.86875 0.0
C1250 C 0.64882 0.12383 0.89088 0.0
C1251 C 0.63588 0.1258 0.90987 0.0
H1252 H 0.32471 0.32803 0.0915 0.0
H1253 H 0.32406 0.39605 0.12828 0.0
H1254 H 0.3193 0.31286 0.12761 0.0
H1255 H 0.31867 0.38101 0.16409 0.0
H1256 H 0.3351 0.35047 0.22805 0.0
H1257 H 0.33972 0.36439 0.19162 0.0
H1258 H 0.29083 0.30681 0.15674 0.0
H1259 H 0.28617 0.29272 0.19344 0.0
C1260 C 0.32348 0.33974 0.10727 0.0
C1261 C 0.32493 0.36328 0.10697 0.0
C1262 C 0.32021 0.33104 0.12794 0.0
C1263 C 0.31858 0.3457 0.14885 0.0
C1264 C 0.3201 0.36922 0.14845 0.0
C1265 C 0.32313 0.37785 0.12784 0.0
C1266 C 0.32521 0.34074 0.21269 0.0
C1267 C 0.31017 0.32046 0.21383 0.0
C1268 C 0.32782 0.34881 0.19174 0.0
C1269 C 0.31565 0.33677 0.17114 0.0
C1270 C 0.30063 0.31643 0.17219 0.0
C1271 C 0.29781 0.30846 0.19329 0.0
H1272 H 0.2168 0.97589 0.98515 0.0
H1273 H 0.24937 0.03356 0.03576 0.0
H1274 H 0.1805 0.98643 0.99256 0.0
H1275 H 0.21297 0.04379 0.04403 0.0
H1276 H 0.14524 0.0685 0.04233 0.0
H1277 H 0.18186 0.05875 0.03496 0.0
H1278 H 0.15116 0.98749 0.01557 0.0
H1279 H 0.1145 0.99752 0.02208 0.0
C1280 C 0.21628 0.99091 0.9979 0.0
C1281 C 0.23635 1.00387 1.00966 0.0
C1282 C 0.1952 0.9969 1.00245 0.0
C1283 C 0.19311 1.01604 0.01919 0.0
C1284 C 0.21334 0.02913 0.03079 0.0
C1285 C 0.23447 0.02321 0.02608 0.0
C1286 C 0.14624 0.05068 0.03672 0.0
C1287 C 0.12652 0.0339 0.03302 0.0
C1288 C 0.16752 0.04498 0.03247 0.0
C1289 C 0.17014 0.02217 0.02442 0.0
C1290 C 0.15035 1.00534 0.02121 0.0
C1291 C 0.12907 1.01108 0.02528 0.0
H1292 H 0.73484 0.63482 1.00411 0.0
H1293 H 0.70491 0.69545 0.01329 0.0
H1294 H 0.69815 0.61108 1.00407 0.0
H1295 H 0.66793 0.67161 0.01274 0.0
H1296 H 0.61188 0.62405 0.04089 0.0
H1297 H 0.64713 0.64852 0.03698 0.0
H1298 H 0.66223 0.59689 0.98286 0.0
H1299 H 0.62695 0.57204 0.98711 0.0
C1300 C 0.72036 0.64308 1.00589 0.0
C1301 C 0.72283 0.66706 1.00881 0.0
C1302 C 0.69924 0.62943 1.00569 0.0
C1303 C 0.67997 0.63935 1.0084 0.0
C1304 C 0.68241 0.66336 0.0109 0.0
C1305 C 0.70359 0.67705 0.0111 0.0
C1306 C 0.6226 0.61787 0.02803 0.0
C1307 C 0.61656 0.59591 0.01442 0.0
C1308 C 0.64283 0.63206 0.02567 0.0
C1309 C 0.65767 0.62474 1.00965 0.0
C1310 C 0.65139 0.60299 0.99563 0.0
C1311 C 0.63108 0.58877 0.99796 0.0
H1312 H 0.75208 0.48975 0.2849 0.0
H1313 H 0.68714 0.44701 0.27106 0.0
H1314 H 0.76948 0.45569 0.28365 0.0
H1315 H 0.70436 0.41282 0.2697 0.0
H1316 H 0.73824 0.34871 0.27711 0.0
H1317 H 0.72065 0.38267 0.27826 0.0
H1318 H 0.78487 0.4235 0.27265 0.0
H1319 H 0.80226 0.38954 0.27158 0.0
C1320 C 0.74118 0.47317 0.28152 0.0
C1321 C 0.71758 0.47239 0.27812 0.0
C1322 C 0.75145 0.45294 0.28068 0.0
C1323 C 0.73911 0.42992 0.27649 0.0
C1324 C 0.71544 0.42926 0.27318 0.0
C1325 C 0.7052 0.44949 0.27389 0.0
C1326 C 0.74889 0.36478 0.27598 0.0
C1327 C 0.77231 0.36507 0.27406 0.0
C1328 C 0.7385 0.38494 0.27663 0.0
C1329 C 0.75056 0.4074 0.27561 0.0
C1330 C 0.77402 0.40756 0.27373 0.0
C1331 C 0.78435 0.38741 0.27295 0.0
H1332 H 0.86672 0.52769 0.48114 0.0
H1333 H 0.87264 0.491 0.53772 0.0
H1334 H 0.90768 0.53903 0.48361 0.0
H1335 H 0.91312 0.50144 0.53974 0.0
H1336 H 0.98507 0.53808 0.55319 0.0
H1337 H 0.94437 0.52961 0.5507 0.0
H1338 H 0.94257 0.52765 0.47679 0.0
H1339 H 0.98351 0.53698 0.47951 0.0
C1340 C 0.87669 0.52211 0.49417 0.0
C1341 C 0.86613 0.50854 0.50934 0.0
C1342 C 0.90033 0.52842 0.49548 0.0
C1343 C 0.91421 0.52133 0.51197 0.0
C1344 C 0.90343 0.50782 0.5271 0.0
C1345 C 0.87996 0.50165 0.52585 0.0
C1346 C 0.97609 0.53584 0.53634 0.0
C1347 C 0.98791 0.53816 0.51655 0.0
C1348 C 0.9525 0.53079 0.53485 0.0
C1349 C 0.93965 0.52764 0.51347 0.0
C1350 C 0.95152 0.53014 0.49366 0.0
C1351 C 0.97518 0.53534 0.49519 0.0
H1352 H 0.34811 0.05222 0.28005 0.0
H1353 H 0.39911 0.11323 0.2953 0.0
H1354 H 0.32486 0.07225 0.25822 0.0
H1355 H 0.37598 0.13308 0.27326 0.0
H1356 H 0.33894 0.15587 0.21604 0.0
H1357 H 0.35998 0.12908 0.23022 0.0
H1358 H 0.30559 0.10759 0.27089 0.0
H1359 H 0.28484 0.13487 0.25748 0.0
C1360 C 0.35434 0.06988 0.27867 0.0
C1361 C 0.37531 0.08129 0.28944 0.0
C1362 C 0.34109 0.08124 0.26617 0.0
C1363 C 0.3488 0.10403 0.26391 0.0
C1364 C 0.36986 0.11536 0.27448 0.0
C1365 C 0.38295 0.10412 0.28728 0.0
C1366 C 0.33131 0.14517 0.22771 0.0
C1367 C 0.31042 0.14782 0.236 0.0
C1368 C 0.34334 0.12986 0.23577 0.0
C1369 C 0.33449 0.11666 0.2519 0.0
C1370 C 0.31272 0.11761 0.25842 0.0
C1371 C 0.30079 0.13315 0.25061 0.0
H1372 H 0.36773 0.20305 0.54016 0.0
H1373 H 0.32808 0.138 0.50804 0.0
H1374 H 0.3979 0.18361 0.55088 0.0
H1375 H 0.3583 0.11865 0.51818 0.0
H1376 H 0.40436 0.08827 0.56256 0.0
H1377 H 0.37544 0.10892 0.5519 0.0
H1378 H 0.42621 0.16254 0.5361 0.0
H1379 H 0.45528 0.14234 0.54784 0.0
C1380 C 0.36558 0.18464 0.53513 0.0
C1381 C 0.34548 0.17207 0.52333 0.0
C1382 C 0.3829 0.17348 0.54121 0.0
C1383 C 0.3805 0.1495 0.5356 0.0
C1384 C 0.36059 0.13707 0.52324 0.0
C1385 C 0.3433 0.14819 0.51723 0.0
C1386 C 0.40943 0.10462 0.55716 0.0
C1387 C 0.43223 0.1136 0.55613 0.0
C1388 C 0.39278 0.11634 0.5507 0.0
C1389 C 0.39842 0.13735 0.54293 0.0
C1390 C 0.42122 0.14649 0.54213 0.0
C1391 C 0.43791 0.13476 0.54863 0.0
H1392 H 0.69036 0.62385 0.28819 0.0
H1393 H 0.7537 0.60239 0.27879 0.0
H1394 H 0.70797 0.66349 0.28845 0.0
H1395 H 0.77153 0.64208 0.27852 0.0
H1396 H 0.80487 0.71932 0.2907 0.0
H1397 H 0.78754 0.67965 0.29125 0.0
H1398 H 0.7227 0.69575 0.27517 0.0
H1399 H 0.74014 0.73544 0.27517 0.0
C1400 C 0.70815 0.62739 0.28609 0.0
C1401 C 0.72017 0.60896 0.28352 0.0
C1402 C 0.71852 0.65067 0.28607 0.0
C1403 C 0.74178 0.65738 0.28342 0.0
C1404 C 0.75382 0.63881 0.28091 0.0
C1405 C 0.74339 0.61547 0.28095 0.0
C1406 C 0.78686 0.71461 0.28733 0.0
C1407 C 0.77434 0.73162 0.28297 0.0
C1408 C 0.77665 0.69126 0.28749 0.0
C1409 C 0.75311 0.6831 0.28328 0.0
C1410 C 0.74065 0.70026 0.27891 0.0
C1411 C 0.75087 0.72359 0.27877 0.0
H1412 H 0.89124 0.48633 0.85454 0.0
H1413 H 0.84894 0.50955 0.80544 0.0
H1414 H 0.86341 0.4516 0.85276 0.0
H1415 H 0.82093 0.47503 0.804 0.0
H1416 H 0.81191 0.39622 0.7743 0.0
H1417 H 0.82663 0.43685 0.7851 0.0
H1418 H 0.82425 0.4313 0.85744 0.0
H1419 H 0.80917 0.39012 0.84637 0.0
C1420 C 0.87574 0.48427 0.84385 0.0
C1421 C 0.87245 0.50026 0.82966 0.0
C1422 C 0.85969 0.46451 0.84303 0.0
C1423 C 0.84014 0.46053 0.82803 0.0
C1424 C 0.836 0.47757 0.81548 0.0
C1425 C 0.85206 0.49725 0.81623 0.0
C1426 C 0.81401 0.40381 0.7925 0.0
C1427 C 0.80974 0.39019 0.80955 0.0
C1428 C 0.82223 0.42712 0.7987 0.0
C1429 C 0.82664 0.43723 0.82213 0.0
C1430 C 0.82103 0.42386 0.83926 0.0
C1431 C 0.81238 0.40043 0.83298 0.0
H1432 H 0.11246 0.81738 0.04872 0.0
H1433 H 0.10124 0.87189 0.10198 0.0
H1434 H 0.11092 0.84235 0.01979 0.0
H1435 H 0.10014 0.89682 0.07331 0.0
H1436 H 0.10558 0.94146 0.02285 0.0
H1437 H 0.12281 0.91609 0.04347 0.0
H1438 H 0.0756 0.85811 1.00661 0.0
H1439 H 0.05838 0.88349 0.98565 0.0
C1440 C 0.11029 0.83488 0.05431 0.0
C1441 C 0.10677 0.84274 0.07748 0.0
C1442 C 0.10939 0.84908 0.03779 0.0
C1443 C 0.10551 0.87147 0.04437 0.0
C1444 C 0.10348 0.87973 0.06783 0.0
C1445 C 0.10393 0.86543 0.0842 0.0
C1446 C 0.09951 0.92319 0.01827 0.0
C1447 C 0.08036 0.91447 1.00288 0.0
C1448 C 0.10931 0.90871 0.03024 0.0
C1449 C 0.10026 0.88528 0.02689 0.0
C1450 C 0.0829 0.87615 1.00948 0.0
C1451 C 0.07296 0.89067 0.99759 0.0
H1452 H 0.93484 0.2644 0.88761 0.0
H1453 H 0.97297 0.31068 0.84889 0.0
H1454 H 0.90078 0.26531 0.86413 0.0
H1455 H 0.93894 0.31175 0.82564 0.0
H1456 H 0.87343 0.3 0.78046 0.0
H1457 H 0.90712 0.28981 0.79753 0.0
H1458 H 0.88049 0.29807 0.86463 0.0
H1459 H 0.84704 0.30806 0.84779 0.0
C1460 C 0.936 0.27438 0.87379 0.0
C1461 C 0.95641 0.28775 0.87026 0.0
C1462 C 0.91654 0.27497 0.86044 0.0
C1463 C 0.91724 0.28883 0.84331 0.0
C1464 C 0.93795 0.30084 0.83866 0.0
C1465 C 0.95738 0.30034 0.85207 0.0
C1466 C 0.87478 0.29953 0.79882 0.0
C1467 C 0.8577 0.30504 0.81281 0.0
C1468 C 0.894 0.29368 0.80855 0.0
C1469 C 0.89628 0.29299 0.83233 0.0
C1470 C 0.87901 0.29808 0.84617 0.0
C1471 C 0.85996 0.3041 0.83654 0.0
H1472 H 0.57252 0.23089 0.55726 0.0
H1473 H 0.63177 0.23105 0.60121 0.0
H1474 H 0.57082 0.19031 0.54216 0.0
H1475 H 0.6298 0.19034 0.58631 0.0
H1476 H 0.58295 0.11812 0.58798 0.0
H1477 H 0.59571 0.15946 0.59494 0.0
H1478 H 0.59341 0.15902 0.52126 0.0
H1479 H 0.58101 0.11733 0.51419 0.0
C1480 C 0.58547 0.22237 0.56323 0.0
C1481 C 0.60206 0.23389 0.58061 0.0
C1482 C 0.58459 0.19926 0.55449 0.0
C1483 C 0.6001 0.18737 0.56327 0.0
C1484 C 0.61766 0.19928 0.57939 0.0
C1485 C 0.61876 0.22249 0.58786 0.0
C1486 C 0.58544 0.12681 0.57328 0.0
C1487 C 0.58087 0.1147 0.55058 0.0
C1488 C 0.59296 0.15036 0.57725 0.0
C1489 C 0.59565 0.16221 0.55859 0.0
C1490 C 0.59156 0.15009 0.53585 0.0
C1491 C 0.58448 0.12638 0.53186 0.0
H1492 H 0.55156 0.81614 0.35892 0.0
H1493 H 0.58333 0.78765 0.41202 0.0
H1494 H 0.58561 0.81847 0.3386 0.0
H1495 H 0.61739 0.78951 0.39138 0.0
H1496 H 0.68155 0.82164 0.36085 0.0
H1497 H 0.64768 0.81775 0.38164 0.0
H1498 H 0.60758 0.79388 0.31667 0.0
H1499 H 0.6414 0.7979 0.29593 0.0
C1500 C 0.5658 0.81022 0.36617 0.0
C1501 C 0.56479 0.80169 0.38704 0.0
C1502 C 0.58528 0.81143 0.35445 0.0
C1503 C 0.6042 0.80409 0.36331 0.0
C1504 C 0.60318 0.79552 0.38422 0.0
C1505 C 0.58365 0.79432 0.39597 0.0
C1506 C 0.66551 0.81532 0.35105 0.0
C1507 C 0.66413 0.81018 0.32675 0.0
C1508 C 0.64611 0.81308 0.36295 0.0
C1509 C 0.62492 0.8056 0.3508 0.0
C1510 C 0.6236 0.80008 0.32652 0.0
C1511 C 0.64298 0.80237 0.31463 0.0
H1512 H 0.11274 0.25919 0.43201 0.0
H1513 H 0.09225 0.30958 0.4838 0.0
H1514 H 0.10021 0.22951 0.45462 0.0
H1515 H 0.07947 0.27974 0.50635 0.0
H1516 H 0.07792 0.21899 0.5479 0.0
H1517 H 0.09234 0.25109 0.52861 0.0
H1518 H 0.06213 0.21182 0.46305 0.0
H1519 H 0.04769 0.18005 0.48219 0.0
C1520 C 0.1058 0.26396 0.44836 0.0
C1521 C 0.1033 0.28664 0.45606 0.0
C1522 C 0.09848 0.24696 0.46122 0.0
C1523 C 0.08854 0.25229 0.48205 0.0
C1524 C 0.08708 0.27517 0.49037 0.0
C1525 C 0.09436 0.29221 0.47744 0.0
C1526 C 0.07408 0.21744 0.52944 0.0
C1527 C 0.06194 0.19694 0.51648 0.0
C1528 C 0.0824 0.23573 0.51841 0.0
C1529 C 0.07873 0.23373 0.49428 0.0
C1530 C 0.06574 0.21361 0.48157 0.0
C1531 C 0.05741 0.19546 0.49255 0.0
H1532 H 0.59627 0.32587 0.21794 0.0
H1533 H 0.54715 0.28062 0.24771 0.0
H1534 H 0.62365 0.32604 0.24993 0.0
H1535 H 0.57467 0.28056 0.27944 0.0
H1536 H 0.64531 0.25461 0.28852 0.0
H1537 H 0.61056 0.26213 0.27235 0.0
H1538 H 0.63257 0.33457 0.29602 0.0
H1539 H 0.66714 0.32713 0.31388 0.0
C1540 C 0.5912 0.31639 0.23157 0.0
C1541 C 0.56976 0.30296 0.2302 0.0
C1542 C 0.60677 0.31666 0.24997 0.0
C1543 C 0.60117 0.30328 0.26706 0.0
C1544 C 0.5793 0.29102 0.26646 0.0
C1545 C 0.56364 0.29102 0.24826 0.0
C1546 C 0.64252 0.2721 0.29148 0.0
C1547 C 0.65947 0.2903 0.30212 0.0
C1548 C 0.62251 0.27639 0.28202 0.0
C1549 C 0.61914 0.29894 0.28266 0.0
C1550 C 0.635 0.31704 0.29511 0.0
C1551 C 0.65484 0.31272 0.30513 0.0
H1552 H 0.62936 0.90011 0.96245 0.0
H1553 H 0.57246 0.8968 0.91405 0.0
H1554 H 0.62571 0.93901 0.97975 0.0
H1555 H 0.56883 0.93551 0.93133 0.0
H1556 H 0.57829 1.01238 0.95875 0.0
H1557 H 0.58885 0.97729 0.93813 0.0
H1558 H 0.59537 0.95279 1.00288 0.0
H1559 H 0.5849 0.98735 0.02323 0.0
C1560 C 0.61618 0.90773 0.95547 0.0
C1561 C 0.60102 0.89539 0.93715 0.0
C1562 C 0.61413 0.92995 0.96529 0.0
C1563 C 0.59702 0.94021 0.9568 0.0
C1564 C 0.58234 0.92811 0.93799 0.0
C1565 C 0.58427 0.90587 0.92831 0.0
C1566 C 0.5822 0.99954 0.96848 0.0
C1567 C 0.58046 1.00237 0.99247 0.0
C1568 C 0.58819 0.97953 0.95675 0.0
C1569 C 0.59294 0.96242 0.96898 0.0
C1570 C 0.59205 0.96579 0.99306 0.0
C1571 C 0.58578 0.98548 1.00465 0.0
H1572 H 0.98271 0.78678 0.73084 0.0
H1573 H 0.93678 0.76348 0.66987 0.0
H1574 H 0.95212 0.78002 0.75531 0.0
H1575 H 0.90553 0.7582 0.69444 0.0
H1576 H 0.85239 0.74525 0.74231 0.0
H1577 H 0.88579 0.73906 0.72221 0.0
H1578 H 0.92371 0.8 0.76543 0.0
H1579 H 0.89101 0.8054 0.78577 0.0
C1580 C 0.96591 0.78049 0.72271 0.0
C1581 C 0.96188 0.77623 0.69855 0.0
C1582 C 0.94839 0.77654 0.73672 0.0
C1583 C 0.92628 0.76894 0.72691 0.0
C1584 C 0.92237 0.76384 0.70261 0.0
C1585 C 0.94013 0.76719 0.68852 0.0
C1586 C 0.86816 0.7567 0.74801 0.0
C1587 C 0.86915 0.77598 0.76533 0.0
C1588 C 0.88718 0.75338 0.73631 0.0
C1589 C 0.90735 0.76926 0.74189 0.0
C1590 C 0.90862 0.78727 0.76069 0.0
C1591 C 0.88978 0.7905 0.77233 0.0
H1592 H 0.17716 0.06192 0.87073 0.0
H1593 H 0.11648 0.02269 0.83391 0.0
H1594 H 0.15839 0.06503 0.90688 0.0
H1595 H 0.0976 0.02558 0.87006 0.0
H1596 H 0.07018 0.01961 0.9432 0.0
H1597 H 0.08865 0.01664 0.90685 0.0
H1598 H 0.13431 0.07936 0.93379 0.0
H1599 H 0.11568 0.0823 0.97 0.0
C1600 C 0.15975 0.05384 0.87006 0.0
C1601 C 0.14887 0.04198 0.84838 0.0
C1602 C 0.14865 0.05574 0.89128 0.0
C1603 C 0.12582 0.04567 0.89265 0.0
C1604 C 0.11501 0.03365 0.8709 0.0
C1605 C 0.12605 0.03202 0.84962 0.0
C1606 C 0.08407 0.033 0.94158 0.0
C1607 C 0.09079 0.05137 0.96054 0.0
C1608 C 0.09491 0.03131 0.92019 0.0
C1609 C 0.11363 0.04766 0.91612 0.0
C1610 C 0.12039 0.06596 0.93522 0.0
C1611 C 0.10935 0.0678 0.95647 0.0
H1612 H 0.79642 0.47702 0.58634 0.0
H1613 H 0.79876 0.41378 0.54047 0.0
H1614 H 0.80198 0.45832 0.61983 0.0
H1615 H 0.80443 0.39534 0.5737 0.0
H1616 H 0.84317 0.3799 0.63582 0.0
H1617 H 0.83676 0.40089 0.60475 0.0
H1618 H 0.78169 0.42478 0.63879 0.0
H1619 H 0.7876 0.40314 0.66974 0.0
C1620 C 0.79796 0.45914 0.58342 0.0
C1621 C 0.79724 0.44688 0.5608 0.0
C1622 C 0.80109 0.44845 0.60255 0.0
C1623 C 0.80387 0.42547 0.59931 0.0
C1624 C 0.80266 0.41317 0.57669 0.0
C1625 C 0.79928 0.42371 0.55767 0.0
C1626 C 0.82958 0.38947 0.63669 0.0
C1627 C 0.81569 0.38949 0.65515 0.0
C1628 C 0.82598 0.40157 0.61891 0.0
C1629 C 0.80857 0.41423 0.61925 0.0
C1630 C 0.79528 0.41519 0.63816 0.0
C1631 C 0.79873 0.40285 0.6559 0.0
H1632 H 0.43461 0.07621 0.40347 0.0
H1633 H 0.49058 0.06613 0.36284 0.0
H1634 H 0.45763 0.07622 0.4386 0.0
H1635 H 0.51388 0.06687 0.39804 0.0
H1636 H 0.53297 0.03062 0.45735 0.0
H1637 H 0.51389 0.03897 0.42319 0.0
H1638 H 0.48926 0.09368 0.46568 0.0
H1639 H 0.50782 0.08493 0.49995 0.0
C1640 C 0.45205 0.07475 0.40215 0.0
C1641 C 0.46075 0.07084 0.38047 0.0
C1642 C 0.46527 0.07478 0.42228 0.0
C1643 C 0.48746 0.07109 0.42103 0.0
C1644 C 0.49667 0.06916 0.39948 0.0
C1645 C 0.4834 0.06895 0.37936 0.0
C1646 C 0.52356 0.04447 0.45939 0.0
C1647 C 0.52177 0.05698 0.48135 0.0
C1648 C 0.5128 0.04943 0.43979 0.0
C1649 C 0.50016 0.06709 0.44172 0.0
C1650 C 0.49869 0.07983 0.46365 0.0
C1651 C 0.50934 0.0748 0.48328 0.0
H1652 H 0.80413 0.71192 0.09602 0.0
H1653 H 0.78158 0.77126 0.0773 0.0
H1654 H 0.80801 0.72964 0.13659 0.0
H1655 H 0.78561 0.78925 0.11833 0.0
H1656 H 0.77278 0.79962 0.19795 0.0
H1657 H 0.76926 0.78516 0.15621 0.0
H1658 H 0.83191 0.76111 0.16258 0.0
H1659 H 0.83539 0.7753 0.204 0.0
C1660 C 0.80003 0.72883 0.10055 0.0
C1661 C 0.79259 0.74016 0.0833 0.0
C1662 C 0.8024 0.73908 0.1239 0.0
C1663 C 0.79731 0.761 0.13085 0.0
C1664 C 0.78959 0.77231 0.11365 0.0
C1665 C 0.78738 0.76206 0.09012 0.0
C1666 C 0.78591 0.79144 0.19042 0.0
C1667 C 0.80428 0.78851 0.20455 0.0
C1668 C 0.78392 0.78321 0.16643 0.0
C1669 C 0.80016 0.77169 0.15598 0.0
C1670 C 0.81885 0.76948 0.17002 0.0
C1671 C 0.82089 0.77777 0.19387 0.0
H1672 H 0.12344 1.00692 0.7099 0.0
H1673 H 0.16838 0.0698 0.70784 0.0
H1674 H 0.10458 1.0094 0.67243 0.0
H1675 H 0.14895 0.07286 0.67103 0.0
H1676 H 0.09303 0.08268 0.61462 0.0
H1677 H 0.11211 0.07968 0.6517 0.0
H1678 H 0.10898 1.00766 0.62826 0.0
H1679 H 0.09082 1.01088 0.59079 0.0
C1680 C 0.1294 0.02144 0.70172 0.0
C1681 C 0.14793 0.03807 0.71277 0.0
C1682 C 0.11843 0.02287 0.67981 0.0
C1683 C 0.12472 0.04144 0.66777 0.0
C1684 C 0.14302 0.05823 0.67907 0.0
C1685 C 0.15442 0.0564 0.70056 0.0
C1686 C 0.09635 0.06609 0.61711 0.0
C1687 C 0.08994 0.04711 0.59878 0.0
C1688 C 0.10757 0.06434 0.63875 0.0
C1689 C 0.11254 0.04334 0.64396 0.0
C1690 C 0.10572 0.02427 0.62577 0.0
C1691 C 0.09517 0.02616 0.60384 0.0
H1692 H 0.81054 0.45359 0.41956 0.0
H1693 H 0.79301 0.40107 0.46088 0.0
H1694 H 0.81655 0.42436 0.38729 0.0
H1695 H 0.79938 0.37213 0.42912 0.0
H1696 H 0.78615 0.32388 0.35916 0.0
H1697 H 0.78291 0.35294 0.39205 0.0
H1698 H 0.84066 0.39692 0.3736 0.0
H1699 H 0.84368 0.36771 0.34012 0.0
C1700 C 0.80792 0.43584 0.42176 0.0
C1701 C 0.80107 0.42973 0.4428 0.0
C1702 C 0.8116 0.41906 0.40333 0.0
C1703 C 0.80845 0.39572 0.40544 0.0
C1704 C 0.80168 0.38977 0.42657 0.0
C1705 C 0.79805 0.40646 0.4449 0.0
C1706 C 0.79845 0.33956 0.36224 0.0
C1707 C 0.81526 0.34327 0.3469 0.0
C1708 C 0.79659 0.35632 0.38124 0.0
C1709 C 0.81143 0.37749 0.38562 0.0
C1710 C 0.82872 0.381 0.37069 0.0
C1711 C 0.83067 0.36408 0.35164 0.0
H1712 H 0.44609 0.05866 0.25117 0.0
H1713 H 0.45299 0.99373 0.27043 0.0
H1714 H 0.46444 0.04891 0.21595 0.0
H1715 H 0.47188 0.98411 0.23503 0.0
H1716 H 0.53353 1.00354 0.18749 0.0
H1717 H 0.51054 1.00387 0.22049 0.0
H1718 H 0.4556 0.01735 0.17856 0.0
H1719 H 0.47819 1.01634 0.14534 0.0
C1720 C 0.45153 0.04228 0.24783 0.0
C1721 C 0.44822 0.02695 0.26348 0.0
C1722 C 0.46185 0.03664 0.22761 0.0
C1723 C 0.46935 1.01572 0.22281 0.0
C1724 C 0.46613 1.00032 0.23843 0.0
C1725 C 0.45536 1.0058 0.25856 0.0
C1726 C 0.51633 1.00588 0.1851 0.0
C1727 C 0.50779 1.01035 0.16394 0.0
C1728 C 0.50322 1.00606 0.20399 0.0
C1729 C 0.48149 1.01088 0.202 0.0
C1730 C 0.47245 1.01387 0.1805 0.0
C1731 C 0.48543 1.01345 0.1616 0.0
H1732 H 0.78609 0.70027 0.92962 0.0
H1733 H 0.8073 0.76898 0.96738 0.0
H1734 H 0.79105 0.71423 0.89324 0.0
H1735 H 0.81177 0.7832 0.93078 0.0
H1736 H 0.8373 0.79802 0.86108 0.0
H1737 H 0.83381 0.78422 0.89788 0.0
H1738 H 0.77504 0.73516 0.86808 0.0
H1739 H 0.77885 0.7485 0.83133 0.0
C1740 C 0.79171 0.71844 0.93017 0.0
C1741 C 0.79623 0.73348 0.95152 0.0
C1742 C 0.79444 0.72651 0.90921 0.0
C1743 C 0.80172 0.74995 0.90883 0.0
C1744 C 0.80638 0.76501 0.93024 0.0
C1745 C 0.80367 0.75689 0.95129 0.0
C1746 C 0.82371 0.78419 0.86232 0.0
C1747 C 0.80843 0.77439 0.84305 0.0
C1748 C 0.82158 0.77637 0.88357 0.0
C1749 C 0.80413 0.75848 0.88618 0.0
C1750 C 0.78893 0.74868 0.86683 0.0
C1751 C 0.79105 0.75647 0.84564 0.0
H1752 H 0.90679 0.13888 0.06777 0.0
H1753 H 0.87427 0.08339 0.01466 0.0
H1754 H 0.94273 0.1268 0.06173 0.0
H1755 H 0.91037 0.07137 1.00825 0.0
H1756 H 0.97587 0.04252 0.01717 0.0
H1757 H 0.93964 0.05426 0.02209 0.0
H1758 H 0.97255 0.12498 0.03752 0.0
H1759 H 1.00884 0.11315 0.03293 0.0
C1760 C 0.90723 0.12401 0.05478 0.0
C1761 C 0.88729 0.11215 0.04183 0.0
C1762 C 0.92808 0.11714 0.0511 0.0
C1763 C 0.93 0.09802 0.03432 0.0
C1764 C 0.90994 0.086 0.02152 0.0
C1765 C 0.88905 0.09296 0.02516 0.0
C1766 C 0.97548 0.06064 0.02138 0.0
C1767 C 0.99569 0.07676 0.02451 0.0
C1768 C 0.95447 0.06745 0.02418 0.0
C1769 C 0.95265 0.09072 0.03039 0.0
C1770 C 0.97287 0.10688 0.03314 0.0
C1771 C 0.9939 0.10006 0.03024 0.0
H1772 H 0.41383 0.40855 0.05578 0.0
H1773 H 0.3795 0.46428 0.0477 0.0
H1774 H 0.44987 0.43399 0.05608 0.0
H1775 H 0.41521 0.48942 0.0472 0.0
H1776 H 0.48253 0.53559 0.06417 0.0
H1777 H 0.44808 0.51 0.06907 0.0
H1778 H 0.47307 0.45297 0.03118 0.0
H1779 H 0.50773 0.47835 0.027 0.0
C1780 C 0.41398 0.42623 0.0541 0.0
C1781 C 0.39376 0.43435 0.05172 0.0
C1782 C 0.43465 0.44083 0.05411 0.0
C1783 C 0.43563 0.46389 0.05164 0.0
C1784 C 0.41532 0.47197 0.04956 0.0
C1785 C 0.39473 0.45745 0.04967 0.0
C1786 C 0.48077 0.51756 0.05705 0.0
C1787 C 0.49796 0.50916 0.04508 0.0
C1788 C 0.46089 0.50285 0.05972 0.0
C1789 C 0.45754 0.47931 0.05036 0.0
C1790 C 0.475 0.47086 0.0389 0.0
C1791 C 0.49492 0.48553 0.03635 0.0
H1792 H 0.42872 0.66078 0.78264 0.0
H1793 H 0.36385 0.6179 0.77537 0.0
H1794 H 0.41113 0.69474 0.784 0.0
H1795 H 0.34608 0.65176 0.77672 0.0
H1796 H 0.31354 0.71835 0.78946 0.0
H1797 H 0.33125 0.68453 0.78839 0.0
H1798 H 0.3936 0.72402 0.77479 0.0
H1799 H 0.37572 0.75779 0.77589 0.0
C1800 C 0.4106 0.65821 0.78129 0.0
C1801 C 0.39838 0.63532 0.77885 0.0
C1802 C 0.40013 0.67831 0.78201 0.0
C1803 C 0.37636 0.67756 0.78054 0.0
C1804 C 0.36418 0.65457 0.77819 0.0
C1805 C 0.37467 0.63446 0.77729 0.0
C1806 C 0.3311 0.72022 0.78631 0.0
C1807 C 0.34254 0.74214 0.78295 0.0
C1808 C 0.34161 0.70014 0.78552 0.0
C1809 C 0.36468 0.69997 0.78144 0.0
C1810 C 0.37612 0.72203 0.7782 0.0
C1811 C 0.36554 0.74206 0.77881 0.0
H1812 H 0.25471 0.57585 0.54092 0.0
H1813 H 0.24554 0.64597 0.5468 0.0
H1814 H 0.21385 0.56318 0.53609 0.0
H1815 H 0.20517 0.63359 0.54254 0.0
H1816 H 0.13353 0.60545 0.51264 0.0
H1817 H 0.17425 0.61636 0.51639 0.0
H1818 H 0.17913 0.56112 0.55389 0.0
H1819 H 0.13836 0.54992 0.54964 0.0
C1820 C 0.24405 0.58859 0.54131 0.0
C1821 C 0.25367 0.61198 0.54422 0.0
C1822 C 0.22049 0.58134 0.53863 0.0
C1823 C 0.20577 0.59725 0.53871 0.0
C1824 C 0.21558 0.62061 0.54184 0.0
C1825 C 0.23897 0.62779 0.5445 0.0
C1826 C 0.14321 0.59559 0.52173 0.0
C1827 C 0.13232 0.57681 0.53092 0.0
C1828 C 0.16676 0.60195 0.52402 0.0
C1829 C 0.18043 0.58982 0.53564 0.0
C1830 C 0.16951 0.57087 0.54461 0.0
C1831 C 0.14593 0.5645 0.54231 0.0
H1832 H 0.7289 0.99836 0.7617 0.0
H1833 H 0.77579 0.05627 0.7995 0.0
H1834 H 0.74974 0.97242 0.77762 0.0
H1835 H 0.79685 0.03011 0.81527 0.0
H1836 H 0.83797 0.96725 0.80645 0.0
H1837 H 0.81937 0.99818 0.79742 0.0
H1838 H 0.7575 0.96448 0.81931 0.0
H1839 H 0.77606 0.9339 0.82878 0.0
C1840 C 0.74371 1.00552 0.77333 0.0
C1841 C 0.75074 0.02927 0.77942 0.0
C1842 C 0.75552 0.99071 0.78256 0.0
C1843 C 0.7747 0.99937 0.79783 0.0
C1844 C 0.78206 0.02311 0.80356 0.0
C1845 C 0.77003 0.03799 0.79457 0.0
C1846 C 0.82061 0.96687 0.81003 0.0
C1847 C 0.80833 0.94803 0.81793 0.0
C1848 C 0.80998 0.98448 0.80479 0.0
C1849 C 0.78697 0.98335 0.80728 0.0
C1850 C 0.77517 0.96544 0.81686 0.0
C1851 C 0.78579 0.948 0.82226 0.0
H1852 H 0.79565 0.95875 0.53242 0.0
H1853 H 0.75146 0.89941 0.54695 0.0
H1854 H 0.76366 0.97723 0.52674 0.0
H1855 H 0.71935 0.9182 0.54197 0.0
H1856 H 0.66589 0.94893 0.50521 0.0
H1857 H 0.69727 0.92985 0.51251 0.0
H1858 H 0.73621 0.99447 0.5471 0.0
H1859 H 0.70502 1.01351 0.53932 0.0
C1860 C 0.77908 0.94974 0.53461 0.0
C1861 C 0.77606 0.92763 0.54011 0.0
C1862 C 0.76072 0.96039 0.5315 0.0
C1863 C 0.73888 0.94926 0.53397 0.0
C1864 C 0.73589 0.92716 0.53965 0.0
C1865 C 0.75429 0.91644 0.54265 0.0
C1866 C 0.68112 0.95898 0.51452 0.0
C1867 C 0.68307 0.98274 0.52153 0.0
C1868 C 0.69909 0.94806 0.51877 0.0
C1869 C 0.71936 0.96063 0.53029 0.0
C1870 C 0.72106 0.98432 0.53775 0.0
C1871 C 0.70317 0.99524 0.53334 0.0
H1872 H 0.36277 0.50371 0.76953 0.0
H1873 H 0.42774 0.48548 0.77717 0.0
H1874 H 0.3451 0.46393 0.76933 0.0
H1875 H 0.41039 0.4459 0.77757 0.0
H1876 H 0.37636 0.36935 0.76755 0.0
H1877 H 0.39377 0.40892 0.76669 0.0
H1878 H 0.33095 0.43053 0.78066 0.0
H1879 H 0.31365 0.3909 0.78091 0.0
C1880 C 0.37351 0.49135 0.77124 0.0
C1881 C 0.39711 0.49879 0.7733 0.0
C1882 C 0.36319 0.46796 0.77128 0.0
C1883 C 0.37569 0.45021 0.77345 0.0
C1884 C 0.39936 0.45788 0.77551 0.0
C1885 C 0.40963 0.4812 0.77541 0.0
C1886 C 0.36607 0.38241 0.7704 0.0
C1887 C 0.34314 0.37587 0.77426 0.0
C1888 C 0.37629 0.40575 0.77006 0.0
C1889 C 0.36441 0.42442 0.77363 0.0
C1890 C 0.34141 0.4177 0.77747 0.0
C1891 C 0.33121 0.39437 0.77775 0.0
H1892 H 0.23493 0.6393 0.21075 0.0
H1893 H 0.28279 0.63266 0.26508 0.0
H1894 H 0.2513 0.67984 0.21439 0.0
H1895 H 0.29897 0.67312 0.26867 0.0
H1896 H 0.29253 0.75504 0.23035 0.0
H1897 H 0.28945 0.71354 0.21697 0.0
H1898 H 0.27085 0.70118 0.28444 0.0
H1899 H 0.27325 0.74202 0.29746 0.0
C1900 C 0.24947 0.64627 0.22281 0.0
C1901 C 0.25723 0.63308 0.23809 0.0
C1902 C 0.2589 0.6694 0.22477 0.0
C1903 C 0.27611 0.67947 0.24203 0.0
C1904 C 0.28559 0.66563 0.25534 0.0
C1905 C 0.27626 0.64255 0.25333 0.0
C1906 C 0.28793 0.74333 0.24223 0.0
C1907 C 0.28285 0.75151 0.26479 0.0
C1908 C 0.28626 0.71977 0.23463 0.0
C1909 C 0.28024 0.7044 0.24983 0.0
C1910 C 0.27589 0.71278 0.27255 0.0
C1911 C 0.27699 0.73608 0.2799 0.0
H1912 H 0.48804 0.77712 0.49392 0.0
H1913 H 0.50136 0.72351 0.4408 0.0
H1914 H 0.49392 0.75386 0.5233 0.0
H1915 H 0.50701 0.70021 0.47019 0.0
H1916 H 0.5109 0.65941 0.52568 0.0
H1917 H 0.49009 0.68019 0.50243 0.0
H1918 H 0.53188 0.74385 0.53516 0.0
H1919 H 0.55273 0.72307 0.55848 0.0
C1920 C 0.49159 0.7601 0.48843 0.0
C1921 C 0.49456 0.7522 0.46511 0.0
C1922 C 0.49498 0.74686 0.50528 0.0
C1923 C 0.50106 0.72537 0.49902 0.0
C1924 C 0.50215 0.71667 0.47547 0.0
C1925 C 0.49904 0.73003 0.45864 0.0
C1926 C 0.51508 0.67793 0.5286 0.0
C1927 C 0.53355 0.68967 0.54377 0.0
C1928 C 0.50327 0.68976 0.51513 0.0
C1929 C 0.50955 0.71353 0.51685 0.0
C1930 C 0.52662 0.72551 0.53359 0.0
C1931 C 0.53862 0.71365 0.54686 0.0
H1932 H 0.63933 0.27994 0.68303 0.0
H1933 H 0.65366 0.34975 0.6712 0.0
H1934 H 0.66856 0.28888 0.71444 0.0
H1935 H 0.68264 0.35905 0.70341 0.0
H1936 H 0.75274 0.35224 0.73437 0.0
H1937 H 0.71913 0.3504 0.70973 0.0
H1938 H 0.68081 0.30885 0.7527 0.0
H1939 H 0.71484 0.30996 0.77703 0.0
C1940 C 0.64857 0.29734 0.68738 0.0
C1941 C 0.64443 0.31412 0.67452 0.0
C1942 C 0.66516 0.30253 0.70561 0.0
C1943 C 0.67791 0.32471 0.71153 0.0
C1944 C 0.67327 0.34172 0.69911 0.0
C1945 C 0.6567 0.33646 0.68069 0.0
C1946 C 0.73712 0.34298 0.73885 0.0
C1947 C 0.73656 0.33081 0.75739 0.0
C1948 C 0.71774 0.3421 0.72477 0.0
C1949 C 0.69733 0.32919 0.72902 0.0
C1950 C 0.69641 0.31852 0.74867 0.0
C1951 C 0.71588 0.31926 0.76269 0.0
H1952 H 0.98345 0.36978 0.95104 0.0
H1953 H 0.03853 0.35247 0.9898 0.0
H1954 H 0.98681 0.40587 0.97804 0.0
H1955 H 0.04149 0.38814 0.01707 0.0
H1956 H 0.06427 0.467 0.02575 0.0
H1957 H 0.05547 0.42656 1.00961 0.0
H1958 H 0.98528 0.42664 0.01862 0.0
H1959 H 0.99432 0.46774 0.03495 0.0
C1960 C 0.99598 0.37352 0.96557 0.0
C1961 C 1.01108 0.35867 0.96807 0.0
C1962 C 0.99773 0.39403 0.98116 0.0
C1963 C 0.01454 0.39987 0.99952 0.0
C1964 C 0.0286 0.38421 1.00286 0.0
C1965 C 0.02696 0.36386 0.98721 0.0
C1966 C 0.047 0.45829 0.02468 0.0
C1967 C 0.02991 0.47038 0.03129 0.0
C1968 C 0.04197 0.43507 0.01564 0.0
C1969 C 0.01967 0.42344 0.01282 0.0
C1970 C 1.0026 0.43528 0.02053 0.0
C1971 C 1.00773 0.45864 0.02996 0.0
H1972 H 0.01702 0.80713 0.13359 0.0
H1973 H 0.0427 0.75832 0.16923 0.0
H1974 H 0.9837 0.80342 0.15546 0.0
H1975 H 1.00944 0.75442 0.19073 0.0
H1976 H 0.9665 0.78192 0.24723 0.0
H1977 H 0.9967 0.78113 0.22164 0.0
H1978 H 0.94957 0.77628 0.16273 0.0
H1979 H 0.9191 0.77676 0.1884 0.0
C1980 C 0.01537 0.79537 0.14581 0.0
C1981 C 0.03253 0.78324 0.14996 0.0
C1982 C 0.99629 0.79318 0.15824 0.0
C1983 C 0.99416 0.77885 0.17498 0.0
C1984 C 1.01085 0.76591 0.17824 0.0
C1985 C 0.02984 0.76809 0.16586 0.0
C1986 C 0.96248 0.78031 0.22879 0.0
C1987 C 0.9404 0.77934 0.21985 0.0
C1988 C 0.97978 0.77987 0.21413 0.0
C1989 C 0.97544 0.77853 0.19018 0.0
C1990 C 0.95339 0.77751 0.18115 0.0
C1991 C 0.936 0.77784 0.19585 0.0
H1992 H 0.54245 0.36683 0.15151 0.0
H1993 H 0.53366 0.31061 0.09394 0.0
H1994 H 0.55029 0.39387 0.12498 0.0
H1995 H 0.54114 0.33772 0.06728 0.0
H1996 H 0.58251 0.39434 0.03283 0.0
H1997 H 0.57231 0.36525 0.0571 0.0
H1998 H 0.53112 0.40811 0.09466 0.0
H1999 H 0.54158 0.4371 0.07075 0.0
C2000 C 0.54205 0.36027 0.13316 0.0
C2001 C 0.53744 0.33665 0.12479 0.0
C2002 C 0.54642 0.37575 0.11793 0.0
C2003 C 0.54625 0.36793 0.094 0.0
C2004 C 0.54159 0.34426 0.08563 0.0
C2005 C 0.53718 0.32876 0.10088 0.0
C2006 C 0.57111 0.39733 0.04614 0.0
C2007 C 0.56312 0.41805 0.05022 0.0
C2008 C 0.56523 0.38071 0.05999 0.0
C2009 C 0.55116 0.38455 0.07802 0.0
C2010 C 0.54243 0.40488 0.08131 0.0
C2011 C 0.54837 0.42145 0.0676 0.0
H2012 H 0.03283 0.34149 0.40705 0.0
H2013 H 0.05692 0.30619 0.34588 0.0
H2014 H 0.99888 0.34405 0.38445 0.0
H2015 H 0.02338 0.3094 0.32311 0.0
H2016 H 0.95156 0.30385 0.29288 0.0
H2017 H 0.9835 0.29741 0.31616 0.0
H2018 H 0.99011 0.36585 0.35534 0.0
H2019 H 0.95789 0.37203 0.33233 0.0
C2020 C 0.03074 0.33407 0.38883 0.0
C2021 C 0.0475 0.32374 0.37817 0.0
C2022 C 1.01143 0.33574 0.37584 0.0
C2023 C 1.00862 0.32726 0.35192 0.0
C2024 C 0.02496 0.31598 0.34152 0.0
C2025 C 0.0442 0.31417 0.35455 0.0
C2026 C 0.96006 0.31758 0.3063 0.0
C2027 C 0.95236 0.33846 0.31081 0.0
C2028 C 0.97828 0.31388 0.31966 0.0
C2029 C 0.98922 0.33105 0.33772 0.0
C2030 C 0.98173 0.35209 0.34191 0.0
C2031 C 0.96342 0.35572 0.32865 0.0
H2032 H 0.0404 0.70788 0.6605 0.0
H2033 H 1.00861 0.7209 0.59783 0.0
H2034 H 0.04472 0.67028 0.64065 0.0
H2035 H 1.01411 0.68395 0.57745 0.0
H2036 H 1.01226 0.61055 0.54889 0.0
H2037 H 1.00325 0.64443 0.57248 0.0
H2038 H 0.06639 0.65359 0.61345 0.0
H2039 H 0.07458 0.61881 0.59062 0.0
C2040 C 0.03444 0.70266 0.6424 0.0
C2041 C 0.02425 0.7172 0.6306 0.0
C2042 C 0.03704 0.6812 0.63098 0.0
C2043 C 0.02992 0.67406 0.60738 0.0
C2044 C 0.01943 0.68862 0.59572 0.0
C2045 C 0.01641 0.70989 0.6073 0.0
C2046 C 0.02406 0.61975 0.56312 0.0
C2047 C 0.04418 0.61231 0.56791 0.0
C2048 C 0.01899 0.63924 0.57654 0.0
C2049 C 0.03422 0.65201 0.59469 0.0
C2050 C 0.0541 0.64407 0.59984 0.0
C2051 C 0.05891 0.62424 0.58671 0.0
H2052 H 0.66556 0.86482 0.86498 0.0
H2053 H 0.6609 0.79212 0.86337 0.0
H2054 H 0.69318 0.86383 0.83635 0.0
H2055 H 0.68904 0.79124 0.83516 0.0
H2056 H 0.72915 0.79124 0.77439 0.0
H2057 H 0.69575 0.79562 0.79501 0.0
H2058 H 0.7317 0.85856 0.83632 0.0
H2059 H 0.76466 0.85446 0.81548 0.0
C2060 C 0.67062 0.84867 0.85866 0.0
C2061 C 0.6613 0.82857 0.86653 0.0
C2062 C 0.68634 0.8481 0.8422 0.0
C2063 C 0.69313 0.82744 0.83339 0.0
C2064 C 0.68378 0.80733 0.84128 0.0
C2065 C 0.66795 0.80788 0.85768 0.0
C2066 C 0.72959 0.8064 0.7873 0.0
C2067 C 0.74951 0.82234 0.79364 0.0
C2068 C 0.7106 0.80875 0.79929 0.0
C2069 C 0.71131 0.82715 0.8176 0.0
C2070 C 0.7306 0.8442 0.82231 0.0
C2071 C 0.74953 0.84181 0.81042 0.0
H2072 H 0.49923 0.59072 0.72323 0.0
H2073 H 0.44174 0.54444 0.68748 0.0
H2074 H 0.5186 0.58791 0.68745 0.0
H2075 H 0.46093 0.54155 0.65163 0.0
H2076 H 0.50456 0.52706 0.58886 0.0
H2077 H 0.48547 0.52975 0.62476 0.0
H2078 H 0.5282 0.59457 0.65077 0.0
H2079 H 0.54722 0.59172 0.61483 0.0
C2080 C 0.49045 0.57987 0.70782 0.0
C2081 C 0.46836 0.56791 0.70928 0.0
C2082 C 0.50178 0.57827 0.68671 0.0
C2083 C 0.49204 0.56438 0.66532 0.0
C2084 C 0.46992 0.55236 0.66692 0.0
C2085 C 0.45854 0.55414 0.68798 0.0
C2086 C 0.51015 0.54197 0.60213 0.0
C2087 C 0.5281 0.55901 0.59791 0.0
C2088 C 0.49882 0.54367 0.62322 0.0
C2089 C 0.50458 0.56249 0.642 0.0
C2090 C 0.52267 0.57946 0.63775 0.0
C2091 C 0.53386 0.57785 0.61656 0.0
H2092 H 0.8413 0.2104 0.01549 0.0
H2093 H 0.80998 0.14943 0.96802 0.0
H2094 H 0.83394 0.23376 0.98675 0.0
H2095 H 0.80213 0.17287 0.93936 0.0
H2096 H 0.80637 0.22117 0.8863 0.0
H2097 H 0.81795 0.19779 0.9134 0.0
H2098 H 0.80166 0.24563 0.97043 0.0
H2099 H 0.79099 0.26941 0.9435 0.0
C2100 C 0.833 0.20196 0.99882 0.0
C2101 C 0.82616 0.17806 0.99406 0.0
C2102 C 0.8286 0.21538 0.98239 0.0
C2103 C 0.81717 0.20527 0.9608 0.0
C2104 C 0.8111 0.18125 0.95572 0.0
C2105 C 0.81555 0.1678 0.97217 0.0
C2106 C 0.80551 0.22684 0.90465 0.0
C2107 C 0.79771 0.24721 0.91268 0.0
C2108 C 0.81194 0.2133 0.92018 0.0
C2109 C 0.8108 0.2198 0.94414 0.0
C2110 C 0.80307 0.24021 0.95214 0.0
C2111 C 0.79664 0.25372 0.93664 0.0
H2112 H 0.18362 0.5414 0.1736 0.0
H2113 H 0.13661 0.55048 0.22568 0.0
H2114 H 0.15284 0.53145 0.14356 0.0
H2115 H 0.10564 0.54013 0.19555 0.0
H2116 H 0.06693 0.5581 0.13132 0.0
H2117 H 0.09274 0.55925 0.16482 0.0
H2118 H 0.11978 0.50337 0.12745 0.0
H2119 H 0.09435 0.50249 0.09387 0.0
C2120 C 0.16668 0.54085 0.17863 0.0
C2121 C 0.16252 0.54687 0.2019 0.0
C2122 C 0.14899 0.53501 0.16146 0.0
C2123 C 0.12679 0.53505 0.16721 0.0
C2124 C 0.12257 0.54018 0.19061 0.0
C2125 C 0.1403 0.54598 0.2078 0.0
C2126 C 0.07803 0.54573 0.13045 0.0
C2127 C 0.07889 0.53049 0.10984 0.0
C2128 C 0.09278 0.54633 0.14967 0.0
C2129 C 0.10853 0.53163 0.14861 0.0
C2130 C 0.10815 0.51523 0.12859 0.0
C2131 C 0.09352 0.51469 0.10939 0.0
H2132 H 0.85218 0.88636 0.46678 0.0
H2133 H 0.79771 0.835 0.47977 0.0
H2134 H 0.84677 0.87073 0.42558 0.0
H2135 H 0.79224 0.81921 0.43817 0.0
H2136 H 0.77556 0.81752 0.35802 0.0
H2137 H 0.77981 0.83021 0.40014 0.0
H2138 H 0.85152 0.83606 0.39906 0.0
H2139 H 0.84742 0.82354 0.3574 0.0
C2140 C 0.83912 0.87159 0.46086 0.0
C2141 C 0.82547 0.86188 0.47666 0.0
C2142 C 0.83605 0.86256 0.43718 0.0
C2143 C 0.81909 0.84364 0.42847 0.0
C2144 C 0.80536 0.83388 0.44424 0.0
C2145 C 0.80861 0.8428 0.4681 0.0
C2146 C 0.79222 0.82137 0.3668 0.0
C2147 C 0.81113 0.81956 0.35414 0.0
C2148 C 0.79464 0.82854 0.39098 0.0
C2149 C 0.81604 0.83434 0.40303 0.0
C2150 C 0.83482 0.83208 0.39038 0.0
C2151 C 0.83241 0.82475 0.36638 0.0
H2152 H 0.49841 0.56082 0.83135 0.0
H2153 H 0.4429 0.58131 0.86658 0.0
H2154 H 0.51692 0.55734 0.86843 0.0
H2155 H 0.46142 0.57811 0.90376 0.0
H2156 H 0.50721 0.58692 0.97304 0.0
H2157 H 0.48886 0.59068 0.93601 0.0
H2158 H 0.52144 0.53843 0.90069 0.0
H2159 H 0.53956 0.53458 0.93778 0.0
C2160 C 0.48998 0.56474 0.84692 0.0
C2161 C 0.46873 0.57151 0.84503 0.0
C2162 C 0.50074 0.56257 0.86866 0.0
C2163 C 0.49124 0.56734 0.89026 0.0
C2164 C 0.47004 0.57435 0.88831 0.0
C2165 C 0.45913 0.57616 0.86652 0.0
C2166 C 0.51062 0.5761 0.9575 0.0
C2167 C 0.52536 0.56035 0.9594 0.0
C2168 C 0.49977 0.5782 0.93578 0.0
C2169 C 0.50309 0.56497 0.91419 0.0
C2170 C 0.51804 0.54938 0.91614 0.0
C2171 C 0.52861 0.54703 0.9379 0.0
H2172 H 0.84802 0.21246 0.10443 0.0
H2173 H 0.79799 0.16044 0.12373 0.0
H2174 H 0.84208 0.23938 0.13836 0.0
H2175 H 0.79092 0.18753 0.15684 0.0
H2176 H 0.79651 0.23279 0.22661 0.0
H2177 H 0.8032 0.20668 0.19303 0.0
H2178 H 0.81975 0.26337 0.15642 0.0
H2179 H 0.81426 0.2899 0.19108 0.0
C2180 C 0.83571 0.20678 0.11596 0.0
C2181 C 0.82367 0.18419 0.11149 0.0
C2182 C 0.83206 0.22235 0.13536 0.0
C2183 C 0.81594 0.21594 0.15068 0.0
C2184 C 0.80386 0.19324 0.146 0.0
C2185 C 0.80783 0.17758 0.12686 0.0
C2186 C 0.80138 0.23981 0.21137 0.0
C2187 C 0.80463 0.26358 0.21162 0.0
C2188 C 0.80514 0.22465 0.19185 0.0
C2189 C 0.8119 0.23257 0.17156 0.0
C2190 C 0.8149 0.25642 0.17168 0.0
C2191 C 0.81151 0.27173 0.19151 0.0
H2192 H 0.16999 0.62602 0.29267 0.0
H2193 H 0.20733 0.59002 0.33432 0.0
H2194 H 0.14907 0.63736 0.32575 0.0
H2195 H 0.18626 0.60101 0.36718 0.0
H2196 H 0.15068 0.62947 0.42627 0.0
H2197 H 0.17653 0.63159 0.3958 0.0
H2198 H 0.12036 0.6141 0.34416 0.0
H2199 H 0.09466 0.61189 0.37443 0.0
C2200 C 0.17398 0.62087 0.30899 0.0
C2201 C 0.19004 0.60687 0.31087 0.0
C2202 C 0.16197 0.6273 0.32789 0.0
C2203 C 0.16587 0.6199 0.34898 0.0
C2204 C 0.18299 0.60718 0.35123 0.0
C2205 C 0.19495 0.60071 0.33235 0.0
C2206 C 0.14389 0.62635 0.4084 0.0
C2207 C 0.12065 0.62024 0.40273 0.0
C2208 C 0.15867 0.62762 0.391 0.0
C2209 C 0.15048 0.62284 0.3676 0.0
C2210 C 0.12721 0.61817 0.36203 0.0
C2211 C 0.11245 0.61687 0.37941 0.0
H2212 H 0.83808 0.90205 0.63049 0.0
H2213 H 0.81735 0.83326 0.59292 0.0
H2214 H 0.83434 0.88808 0.66697 0.0
H2215 H 0.81231 0.81921 0.62935 0.0
H2216 H 0.82389 0.7965 0.69817 0.0
H2217 H 0.82895 0.81067 0.66205 0.0
H2218 H 0.8104 0.87446 0.69284 0.0
H2219 H 0.80656 0.86052 0.72949 0.0
C2220 C 0.83257 0.88389 0.63003 0.0
C2221 C 0.8281 0.86877 0.60874 0.0
C2222 C 0.83018 0.87583 0.65105 0.0
C2223 C 0.82286 0.8524 0.65149 0.0
C2224 C 0.81839 0.83729 0.63004 0.0
C2225 C 0.82115 0.84534 0.609 0.0
C2226 C 0.82087 0.81358 0.69727 0.0
C2227 C 0.81477 0.82734 0.71683 0.0
C2228 C 0.82363 0.82171 0.67635 0.0
C2229 C 0.82002 0.8438 0.6741 0.0
C2230 C 0.81378 0.85753 0.69374 0.0
C2231 C 0.81139 0.84949 0.71484 0.0
H2232 H 0.71469 0.46799 0.50313 0.0
H2233 H 0.74632 0.53899 0.51614 0.0
H2234 H 0.67877 0.47871 0.51129 0.0
H2235 H 0.70996 0.5501 0.52331 0.0
H2236 H 0.64391 0.56477 0.55241 0.0
H2237 H 0.68047 0.55411 0.54602 0.0
H2238 H 0.64796 0.49216 0.50062 0.0
H2239 H 0.61169 0.5024 0.50792 0.0
C2240 C 0.71397 0.48603 0.50742 0.0
C2241 C 0.73371 0.50252 0.50878 0.0
C2242 C 0.69307 0.49231 0.51202 0.0
C2243 C 0.69074 0.51548 0.51796 0.0
C2244 C 0.71059 0.53205 0.5192 0.0
C2245 C 0.73164 0.52569 0.51482 0.0
C2246 C 0.64452 0.54869 0.54132 0.0
C2247 C 0.62444 0.53441 0.53102 0.0
C2248 C 0.66573 0.54261 0.53735 0.0
C2249 C 0.66785 0.52208 0.52267 0.0
C2250 C 0.64763 0.50785 0.51246 0.0
C2251 C 0.62649 0.5138 0.51663 0.0
H2252 H 0.20715 0.18918 0.5012 0.0
H2253 H 0.23808 0.13104 0.5087 0.0
H2254 H 0.17017 0.16537 0.50005 0.0
H2255 H 0.20129 0.10742 0.50838 0.0
H2256 H 0.13155 0.0652 0.4919 0.0
H2257 H 0.16729 0.08864 0.48657 0.0
H2258 H 0.14676 0.14793 0.52552 0.0
H2259 H 0.11104 0.12488 0.53011 0.0
C2260 C 0.20604 0.1713 0.50257 0.0
C2261 C 0.22555 0.16204 0.50513 0.0
C2262 C 0.18483 0.15764 0.50205 0.0
C2263 C 0.1826 0.1344 0.50426 0.0
C2264 C 0.20221 0.12509 0.5063 0.0
C2265 C 0.22338 0.13871 0.50666 0.0
C2266 C 0.13458 0.08329 0.49909 0.0
C2267 C 0.11837 0.09303 0.51154 0.0
C2268 C 0.15517 0.09674 0.49619 0.0
C2269 C 0.16009 0.12026 0.50571 0.0
C2270 C 0.14359 0.13003 0.51763 0.0
C2271 C 0.12305 0.11666 0.52044 0.0
H2272 H 0.18796 0.94805 0.76939 0.0
H2273 H 0.25262 0.99085 0.78634 0.0
H2274 H 0.20517 0.91384 0.76799 0.0
H2275 H 0.27001 0.95675 0.785 0.0
H2276 H 0.3028 0.89061 0.77128 0.0
H2277 H 0.28545 0.92463 0.77245 0.0
H2278 H 0.22119 0.88384 0.778 0.0
H2279 H 0.23873 0.84983 0.7768 0.0
C2280 C 0.20596 0.95053 0.77288 0.0
C2281 C 0.21828 0.97344 0.778 0.0
C2282 C 0.21617 0.93031 0.77216 0.0
C2283 C 0.23975 0.93101 0.77631 0.0
C2284 C 0.25205 0.95403 0.78135 0.0
C2285 C 0.24179 0.97426 0.78225 0.0
C2286 C 0.28489 0.88851 0.77268 0.0
C2287 C 0.27281 0.86619 0.77377 0.0
C2288 C 0.2746 0.90867 0.77352 0.0
C2289 C 0.25115 0.90851 0.77539 0.0
C2290 C 0.23904 0.88606 0.77637 0.0
C2291 C 0.24939 0.8659 0.77571 0.0
H2292 H 0.36972 0.03024 0.99074 0.0
H2293 H 0.37424 0.98447 0.03944 0.0
H2294 H 0.41063 0.04226 0.99543 0.0
H2295 H 0.41477 0.99598 0.04382 0.0
H2296 H 0.4866 0.03443 0.06305 0.0
H2297 H 0.44572 0.02476 0.05918 0.0
H2298 H 0.44564 0.03097 0.98699 0.0
H2299 H 0.48644 0.04105 0.99101 0.0
C2300 C 0.37936 0.02278 1.00251 0.0
C2301 C 0.36841 1.00638 0.01473 0.0
C2302 C 0.40298 0.02954 1.00511 0.0
C2303 C 0.41647 0.02021 0.02009 0.0
C2304 C 0.40532 1.00399 0.03241 0.0
C2305 C 0.38186 0.99722 0.02976 0.0
C2306 C 0.47793 0.03373 0.04632 0.0
C2307 C 0.49018 0.03852 0.02737 0.0
C2308 C 0.45429 0.02804 0.04402 0.0
C2309 C 0.4419 0.02694 0.0227 0.0
C2310 C 0.45422 0.03186 1.00381 0.0
C2311 C 0.47784 0.0375 1.00609 0.0
H2312 H 0.87636 0.609 0.83638 0.0
H2313 H 0.90257 0.59913 0.76912 0.0
H2314 H 0.84959 0.63034 0.82175 0.0
H2315 H 0.87544 0.6197 0.75433 0.0
H2316 H 0.83786 0.67698 0.74255 0.0
H2317 H 0.86558 0.65672 0.75673 0.0
H2318 H 0.81598 0.6222 0.7956 0.0
H2319 H 0.78829 0.643 0.78168 0.0
C2320 C 0.87654 0.61161 0.81856 0.0
C2321 C 0.8915 0.60243 0.80387 0.0
C2322 C 0.86105 0.62355 0.8101 0.0
C2323 C 0.8602 0.62642 0.7868 0.0
C2324 C 0.87575 0.61792 0.77239 0.0
C2325 C 0.89129 0.60612 0.78087 0.0
C2326 C 0.83274 0.66466 0.75369 0.0
C2327 C 0.8109 0.66138 0.7609 0.0
C2328 C 0.84866 0.65314 0.76192 0.0
C2329 C 0.84303 0.638 0.77744 0.0
C2330 C 0.82094 0.63414 0.78404 0.0
C2331 C 0.80504 0.64581 0.77591 0.0
H2332 H 0.86622 0.70182 0.03395 0.0
H2333 H 0.82169 0.63844 1.00553 0.0
H2334 H 0.89515 0.68032 0.04346 0.0
H2335 H 0.85062 0.61702 0.01447 0.0
H2336 H 0.89522 0.58498 0.05901 0.0
H2337 H 0.86792 0.60742 0.04822 0.0
H2338 H 0.92093 0.65607 0.02798 0.0
H2339 H 0.94845 0.63408 0.03979 0.0
C2340 C 0.86274 0.68333 0.02942 0.0
C2341 C 0.84163 0.67183 0.0191 0.0
C2342 C 0.87934 0.67098 0.03481 0.0
C2343 C 0.87517 0.64688 0.02998 0.0
C2344 C 0.85429 0.63552 0.01891 0.0
C2345 C 0.83774 0.64782 0.0136 0.0
C2346 C 0.90115 0.6006 0.05253 0.0
C2347 C 0.92411 0.60768 0.05034 0.0
C2348 C 0.88542 0.61334 0.04602 0.0
C2349 C 0.89215 0.63351 0.03704 0.0
C2350 C 0.91513 0.64071 0.03495 0.0
C2351 C 0.9309 0.62795 0.04149 0.0
H2352 H 0.1914 0.12488 0.79093 0.0
H2353 H 0.25365 0.10214 0.77808 0.0
H2354 H 0.2094 0.16436 0.79062 0.0
H2355 H 0.27183 0.14165 0.77738 0.0
H2356 H 0.30631 0.21871 0.79012 0.0
H2357 H 0.28857 0.17922 0.79113 0.0
H2358 H 0.22396 0.19603 0.77549 0.0
H2359 H 0.24181 0.23552 0.77488 0.0
C2360 C 0.20902 0.1281 0.78799 0.0
C2361 C 0.22064 0.10937 0.78461 0.0
C2362 C 0.2196 0.15126 0.78763 0.0
C2363 C 0.24267 0.15753 0.7839 0.0
C2364 C 0.2543 0.13868 0.78061 0.0
C2365 C 0.24366 0.11546 0.78091 0.0
C2366 C 0.28827 0.2142 0.78693 0.0
C2367 C 0.27595 0.23133 0.78247 0.0
C2368 C 0.27783 0.19098 0.78735 0.0
C2369 C 0.25423 0.18309 0.78342 0.0
C2370 C 0.24196 0.20037 0.77901 0.0
C2371 C 0.25242 0.22356 0.77851 0.0
H2372 H 0.39851 0.9716 0.34643 0.0
H2373 H 0.34528 1.01069 0.34389 0.0
H2374 H 0.37106 0.93758 0.34868 0.0
H2375 H 0.31774 0.97646 0.34586 0.0
H2376 H 0.28902 0.90274 0.29862 0.0
H2377 H 0.30936 0.94145 0.31262 0.0
H2378 H 0.33924 0.91862 0.37087 0.0
H2379 H 0.31871 0.87981 0.35703 0.0
C2380 C 0.381 0.97302 0.34695 0.0
C2381 C 0.37393 0.9936 0.34464 0.0
C2382 C 0.36531 0.95363 0.34844 0.0
C2383 C 0.34232 0.95447 0.34733 0.0
C2384 C 0.33539 0.97545 0.3467 0.0
C2385 C 0.35113 0.99496 0.34557 0.0
C2386 C 0.29943 0.9061 0.31476 0.0
C2387 C 0.30262 0.88824 0.32651 0.0
C2388 C 0.31091 0.92829 0.32288 0.0
C2389 C 0.32595 0.93288 0.34271 0.0
C2390 C 0.32777 0.91541 0.35549 0.0
C2391 C 0.31602 0.89325 0.34755 0.0
H2392 H 0.61383 0.32558 0.54914 0.0
H2393 H 0.55917 0.34834 0.58511 0.0
H2394 H 0.60381 0.34371 0.51649 0.0
H2395 H 0.54954 0.36661 0.55317 0.0
H2396 H 0.52343 0.38673 0.49471 0.0
H2397 H 0.53372 0.35691 0.51355 0.0
H2398 H 0.60365 0.38221 0.50742 0.0
H2399 H 0.59335 0.41102 0.48634 0.0
C2400 C 0.59983 0.33461 0.55013 0.0
C2401 C 0.58724 0.33559 0.5696 0.0
C2402 C 0.59403 0.34483 0.53143 0.0
C2403 C 0.57555 0.35608 0.53199 0.0
C2404 C 0.56339 0.35739 0.55178 0.0
C2405 C 0.56911 0.34721 0.57028 0.0
C2406 C 0.54097 0.38544 0.49611 0.0
C2407 C 0.55764 0.40222 0.48996 0.0
C2408 C 0.54688 0.36841 0.50735 0.0
C2409 C 0.56951 0.36807 0.5131 0.0
C2410 C 0.58605 0.3824 0.50374 0.0
C2411 C 0.58011 0.39914 0.49191 0.0
H2412 H 0.43713 0.76126 0.37595 0.0
H2413 H 0.46219 0.83148 0.36982 0.0
H2414 H 0.40255 0.76227 0.35325 0.0
H2415 H 0.42769 0.83271 0.34786 0.0
H2416 H 0.36918 0.82582 0.29676 0.0
H2417 H 0.40486 0.81894 0.3122 0.0
H2418 H 0.37051 0.78094 0.36046 0.0
H2419 H 0.33478 0.78724 0.34461 0.0
C2420 C 0.43534 0.77675 0.36955 0.0
C2421 C 0.45222 0.7963 0.37476 0.0
C2422 C 0.41554 0.77743 0.35669 0.0
C2423 C 0.41234 0.79763 0.34887 0.0
C2424 C 0.42969 0.81681 0.35333 0.0
C2425 C 0.44941 0.81611 0.36609 0.0
C2426 C 0.36922 0.81589 0.31058 0.0
C2427 C 0.34918 0.80728 0.31963 0.0
C2428 C 0.38967 0.81196 0.31942 0.0
C2429 C 0.39052 0.79949 0.33762 0.0
C2430 C 0.37041 0.79034 0.34622 0.0
C2431 C 0.34994 0.79414 0.33727 0.0
H2432 H 0.12444 0.72758 0.10149 0.0
H2433 H 0.06617 0.73263 0.05875 0.0
H2434 H 0.1182 0.6865 0.08783 0.0
H2435 H 0.06041 0.6916 0.04425 0.0
H2436 H 0.03558 0.61969 0.05986 0.0
H2437 H 0.0465 0.66082 0.06375 0.0
H2438 H 0.11571 0.6536 0.05798 0.0
H2439 H 0.10481 0.61221 0.05478 0.0
C2440 C 0.11074 0.71999 0.08857 0.0
C2441 C 0.0955 0.7331 0.08151 0.0
C2442 C 0.1072 0.69644 0.08066 0.0
C2443 C 0.08851 0.68573 0.06534 0.0
C2444 C 0.0746 0.6993 0.05656 0.0
C2445 C 0.07796 0.72278 0.06472 0.0
C2446 C 0.05312 0.62682 0.05933 0.0
C2447 C 0.06936 0.61274 0.05725 0.0
C2448 C 0.05937 0.65042 0.06127 0.0
C2449 C 0.08197 0.66049 0.06097 0.0
C2450 C 0.09819 0.64636 0.05843 0.0
C2451 C 0.09194 0.62268 0.05665 0.0
H2452 H 0.07123 0.26921 0.88288 0.0
H2453 H 0.07176 0.34138 0.88516 0.0
H2454 H 0.10521 0.27218 0.86233 0.0
H2455 H 0.10522 0.34425 0.86384 0.0
H2456 H 0.17733 0.34667 0.84599 0.0
H2457 H 0.14419 0.34342 0.8678 0.0
H2458 H 0.11808 0.27746 0.82559 0.0
H2459 H 0.1516 0.28055 0.80425 0.0
C2460 C 0.07857 0.28569 0.87885 0.0
C2461 C 0.0689 0.30507 0.88562 0.0
C2462 C 0.09795 0.28737 0.86695 0.0
C2463 C 0.10795 0.30845 0.86137 0.0
C2464 C 0.0982 0.32783 0.86817 0.0
C2465 C 0.07894 0.32618 0.88027 0.0
C2466 C 0.16444 0.33153 0.84136 0.0
C2467 C 0.16697 0.31388 0.82342 0.0
C2468 C 0.14542 0.32968 0.8538 0.0
C2469 C 0.1284 0.31021 0.84841 0.0
C2470 C 0.131 0.29252 0.83045 0.0
C2471 C 0.15015 0.2943 0.81817 0.0
H2472 H 0.61615 0.79945 0.9781 0.0
H2473 H 0.56809 0.76017 0.9235 0.0
H2474 H 0.60548 0.77047 1.0025 0.0
H2475 H 0.557 0.732 0.94783 0.0
H2476 H 0.5627 0.67228 0.98283 0.0
H2477 H 0.57352 0.70298 0.96144 0.0
H2478 H 0.57454 0.75275 0.02362 0.0
H2479 H 0.56465 0.72152 0.04555 0.0
C2480 C 0.60329 0.78471 0.97139 0.0
C2481 C 0.59321 0.78185 0.94881 0.0
C2482 C 0.59705 0.76826 0.98538 0.0
C2483 C 0.58056 0.74881 0.97699 0.0
C2484 C 0.57012 0.74647 0.95464 0.0
C2485 C 0.57646 0.76267 0.94069 0.0
C2486 C 0.56545 0.68973 0.99208 0.0
C2487 C 0.56302 0.69446 0.01595 0.0
C2488 C 0.57139 0.70739 0.97973 0.0
C2489 C 0.57476 0.73034 0.99078 0.0
C2490 C 0.57222 0.73521 0.01466 0.0
C2491 C 0.56631 0.71739 0.02715 0.0
H2492 H 0.04585 0.76912 0.73868 0.0
H2493 H 0.08934 0.82117 0.71107 0.0
H2494 H 0.0745 0.77072 0.7697 0.0
H2495 H 0.11814 0.82265 0.74221 0.0
H2496 H 0.16384 0.82485 0.80572 0.0
H2497 H 0.12883 0.82989 0.78656 0.0
H2498 H 0.11115 0.75684 0.76374 0.0
H2499 H 0.14616 0.75175 0.78152 0.0
C2500 C 0.06141 0.78118 0.73946 0.0
C2501 C 0.0656 0.79472 0.72223 0.0
C2502 C 0.07773 0.78213 0.75726 0.0
C2503 C 0.09852 0.79667 0.75822 0.0
C2504 C 0.10214 0.81143 0.74197 0.0
C2505 C 0.08577 0.81044 0.72405 0.0
C2506 C 0.15237 0.80982 0.79685 0.0
C2507 C 0.15815 0.78792 0.79488 0.0
C2508 C 0.13231 0.81276 0.786 0.0
C2509 C 0.11745 0.79379 0.77355 0.0
C2510 C 0.12222 0.77177 0.77343 0.0
C2511 C 0.14236 0.76886 0.78384 0.0
H2512 H 0.13388 0.40272 0.46815 0.0
H2513 H 0.10855 0.4111 0.40058 0.0
H2514 H 0.12653 0.44045 0.48448 0.0
H2515 H 0.10101 0.44867 0.41698 0.0
H2516 H 0.09674 0.5206 0.45661 0.0
H2517 H 0.1151 0.48938 0.43926 0.0
H2518 H 0.08714 0.44824 0.48824 0.0
H2519 H 0.06891 0.47893 0.50539 0.0
C2520 C 0.12736 0.41288 0.45669 0.0
C2521 C 0.1213 0.40385 0.43324 0.0
C2522 C 0.12308 0.4344 0.46603 0.0
C2523 C 0.11279 0.44716 0.45203 0.0
C2524 C 0.10893 0.43914 0.42813 0.0
C2525 C 0.11314 0.4176 0.4188 0.0
C2526 C 0.09448 0.50483 0.46356 0.0
C2527 C 0.0813 0.50219 0.48229 0.0
C2528 C 0.10507 0.48709 0.45373 0.0
C2529 C 0.10287 0.46666 0.46275 0.0
C2530 C 0.08959 0.46405 0.48133 0.0
C2531 C 0.07887 0.48155 0.49094 0.0
H2532 H 0.46428 0.31985 0.20461 0.0
H2533 H 0.46073 0.24655 0.19422 0.0
H2534 H 0.43236 0.31618 0.22822 0.0
H2535 H 0.42917 0.24293 0.21824 0.0
H2536 H 0.35602 0.24718 0.23638 0.0
H2537 H 0.39014 0.24739 0.21654 0.0
H2538 H 0.42295 0.30624 0.2661 0.0
H2539 H 0.38852 0.30638 0.28577 0.0
C2540 C 0.45659 0.30297 0.20727 0.0
C2541 C 0.46487 0.28349 0.19751 0.0
C2542 C 0.43855 0.30088 0.22105 0.0
C2543 C 0.4285 0.27929 0.22533 0.0
C2544 C 0.43655 0.25977 0.21519 0.0
C2545 C 0.45456 0.26186 0.2014 0.0
C2546 C 0.37064 0.25987 0.24339 0.0
C2547 C 0.36948 0.27697 0.26243 0.0
C2548 C 0.39023 0.25995 0.23202 0.0
C2549 C 0.40904 0.27712 0.2395 0.0
C2550 C 0.40848 0.29312 0.25967 0.0
C2551 C 0.38887 0.29301 0.2711 0.0
H2552 H 0.67679 0.56279 0.36944 0.0
H2553 H 0.61719 0.52057 0.33329 0.0
H2554 H 0.65783 0.56642 0.40541 0.0
H2555 H 0.59802 0.52418 0.36915 0.0
H2556 H 0.56906 0.52093 0.44145 0.0
H2557 H 0.58795 0.51737 0.40548 0.0
H2558 H 0.63427 0.57964 0.43257 0.0
H2559 H 0.61533 0.583 0.46856 0.0
C2560 C 0.65957 0.55416 0.36889 0.0
C2561 C 0.64907 0.54126 0.34747 0.0
C2562 C 0.64834 0.55638 0.39 0.0
C2563 C 0.6257 0.54573 0.39148 0.0
C2564 C 0.61527 0.53273 0.36996 0.0
C2565 C 0.62647 0.53067 0.34881 0.0
C2566 C 0.5832 0.53409 0.43994 0.0
C2567 C 0.59002 0.55243 0.45889 0.0
C2568 C 0.5943 0.53206 0.41875 0.0
C2569 C 0.61331 0.5481 0.41481 0.0
C2570 C 0.62014 0.56643 0.43389 0.0
C2571 C 0.60892 0.56854 0.45501 0.0
H2572 H 0.28601 0.91308 0.04537 0.0
H2573 H 0.29697 0.97996 0.08836 0.0
H2574 H 0.28642 0.89538 0.07978 0.0
H2575 H 0.29679 0.96223 0.12295 0.0
H2576 H 0.32486 0.92275 0.176 0.0
H2577 H 0.32046 0.94224 0.1432 0.0
H2578 H 0.26621 0.88776 0.11253 0.0
H2579 H 0.2709 0.86815 0.14519 0.0
C2580 C 0.28821 0.92398 0.0622 0.0
C2581 C 0.29154 0.9479 0.06416 0.0
C2582 C 0.2883 0.91384 0.08197 0.0
C2583 C 0.29165 0.92737 0.10418 0.0
C2584 C 0.29447 0.95131 0.10612 0.0
C2585 C 0.29444 0.96147 0.08631 0.0
C2586 C 0.31178 0.91514 0.16242 0.0
C2587 C 0.29836 0.89383 0.16307 0.0
C2588 C 0.30921 0.92631 0.14361 0.0
C2589 C 0.29309 0.91649 0.1251 0.0
C2590 C 0.27911 0.89559 0.12624 0.0
C2591 C 0.28175 0.88437 0.14497 0.0
H2592 H 0.99136 0.54457 0.86502 0.0
H2593 H 0.95163 0.59075 0.8999 0.0
H2594 H 1.01294 0.54588 0.90137 0.0
H2595 H 0.97346 0.59219 0.93644 0.0
H2596 H 0.98993 0.55269 0.99565 0.0
H2597 H 0.97374 0.56119 0.96011 0.0
H2598 H 0.03909 0.5702 0.93348 0.0
H2599 H 0.05545 0.56149 0.96913 0.0
C2600 C 0.98756 0.55537 0.8804 0.0
C2601 C 0.96966 0.56732 0.87979 0.0
C2602 C 1.00002 0.55625 0.90117 0.0
C2603 C 0.99472 0.56898 0.92171 0.0
C2604 C 0.97769 0.58205 0.92084 0.0
C2605 C 0.96529 0.58131 0.89998 0.0
C2606 C 1.00091 0.55656 0.98229 0.0
C2607 C 0.02393 0.55613 0.98506 0.0
C2608 C 0.99165 0.56172 0.96206 0.0
C2609 C 1.00519 0.56643 0.94413 0.0
C2610 C 0.0283 0.56654 0.94706 0.0
C2611 C 0.03762 0.56154 0.96742 0.0
H2612 H 0.29141 0.20584 0.59583 0.0
H2613 H 0.29678 0.2723 0.57572 0.0
H2614 H 0.29614 0.22374 0.63646 0.0
H2615 H 0.30125 0.29034 0.61682 0.0
H2616 H 0.28235 0.30612 0.69557 0.0
H2617 H 0.27845 0.29144 0.65378 0.0
H2618 H 0.32791 0.24937 0.66298 0.0
H2619 H 0.33205 0.26405 0.70438 0.0
C2620 C 0.29349 0.22431 0.60007 0.0
C2621 C 0.29375 0.23761 0.58244 0.0
C2622 C 0.29633 0.23459 0.62342 0.0
C2623 C 0.29921 0.25849 0.62995 0.0
C2624 C 0.299 0.27187 0.61237 0.0
C2625 C 0.29653 0.26156 0.58885 0.0
C2626 C 0.29256 0.29391 0.68866 0.0
C2627 C 0.30744 0.28625 0.70352 0.0
C2628 C 0.29037 0.28556 0.66467 0.0
C2629 C 0.30273 0.26907 0.65504 0.0
C2630 C 0.31794 0.26185 0.66983 0.0
C2631 C 0.32037 0.27039 0.69364 0.0
H2632 H 0.67529 0.53267 0.19108 0.0
H2633 H 0.61558 0.54107 0.22523 0.0
H2634 H 0.65631 0.53561 0.15414 0.0
H2635 H 0.59643 0.54399 0.18833 0.0
H2636 H 0.56898 0.56544 0.12044 0.0
H2637 H 0.58773 0.56218 0.15739 0.0
H2638 H 0.6319 0.52286 0.12064 0.0
H2639 H 0.61312 0.52623 0.08379 0.0
C2640 C 0.65802 0.53505 0.19093 0.0
C2641 C 0.64743 0.53647 0.21205 0.0
C2642 C 0.64682 0.53668 0.16926 0.0
C2643 C 0.62421 0.54013 0.16705 0.0
C2644 C 0.61368 0.54162 0.18829 0.0
C2645 C 0.62483 0.53975 0.20993 0.0
C2646 C 0.58266 0.55601 0.11999 0.0
C2647 C 0.58904 0.5462 0.09816 0.0
C2648 C 0.59362 0.55398 0.14167 0.0
C2649 C 0.61197 0.54217 0.1432 0.0
C2650 C 0.61832 0.53241 0.12127 0.0
C2651 C 0.60723 0.53426 0.09962 0.0
H2652 H 0.29442 0.90073 0.96195 0.0
H2653 H 0.3123 0.95415 0.92178 0.0
H2654 H 0.29995 0.87216 0.92941 0.0
H2655 H 0.31745 0.92534 0.88877 0.0
H2656 H 0.3433 0.86927 0.83971 0.0
H2657 H 0.34068 0.89795 0.87372 0.0
H2658 H 0.28339 0.85346 0.89233 0.0
H2659 H 0.28626 0.82485 0.85888 0.0
C2660 C 0.29938 0.90641 0.94607 0.0
C2661 C 0.30276 0.92983 0.94455 0.0
C2662 C 0.3025 0.88992 0.92728 0.0
C2663 C 0.30911 0.89623 0.90621 0.0
C2664 C 0.31261 0.91972 0.9047 0.0
C2665 C 0.30945 0.93629 0.92359 0.0
C2666 C 0.33043 0.86541 0.85132 0.0
C2667 C 0.31511 0.84453 0.84646 0.0
C2668 C 0.32872 0.88205 0.87071 0.0
C2669 C 0.31172 0.87826 0.88591 0.0
C2670 C 0.29688 0.85707 0.88135 0.0
C2671 C 0.29852 0.84055 0.862 0.0
H2672 H 0.98674 0.56513 0.7747 0.0
H2673 H 0.93864 0.50291 0.75116 0.0
H2674 H 1.00594 0.55815 0.73958 0.0
H2675 H 0.95777 0.4961 0.71563 0.0
H2676 H 1.0115 0.48417 0.66334 0.0
H2677 H 0.99395 0.48786 0.70013 0.0
H2678 H 0.9955 0.5597 0.699 0.0
H2679 H 1.0135 0.5562 0.66289 0.0
C2680 C 0.98034 0.54988 0.76205 0.0
C2681 C 0.96107 0.53467 0.76551 0.0
C2682 C 0.99128 0.54595 0.74191 0.0
C2683 C 0.98315 0.52676 0.72476 0.0
C2684 C 0.96443 0.51099 0.72863 0.0
C2685 C 0.95345 0.51492 0.74887 0.0
C2686 C 1.00816 0.50074 0.67109 0.0
C2687 C 1.01382 0.51989 0.66026 0.0
C2688 C 0.99799 0.5028 0.69199 0.0
C2689 C 0.99353 0.5241 0.70246 0.0
C2690 C 0.99905 0.54315 0.6915 0.0
C2691 C 1.0091 0.54108 0.67067 0.0
H2692 H 0.28348 0.25916 0.46073 0.0
H2693 H 0.31051 0.19948 0.43316 0.0
H2694 H 0.2862 0.27217 0.42351 0.0
H2695 H 0.31387 0.21271 0.39615 0.0
H2696 H 0.2972 0.23195 0.32533 0.0
H2697 H 0.29389 0.21819 0.3622 0.0
H2698 H 0.31178 0.2878 0.39882 0.0
H2699 H 0.31447 0.30146 0.36221 0.0
C2700 C 0.29017 0.24889 0.44678 0.0
C2701 C 0.2968 0.22829 0.45004 0.0
C2702 C 0.29186 0.2564 0.42537 0.0
C2703 C 0.30033 0.24359 0.40657 0.0
C2704 C 0.30696 0.22295 0.40994 0.0
C2705 C 0.30519 0.21542 0.43131 0.0
C2706 C 0.30048 0.2443 0.34125 0.0
C2707 C 0.30606 0.26786 0.34061 0.0
C2708 C 0.29867 0.23641 0.3625 0.0
C2709 C 0.30243 0.25182 0.38375 0.0
C2710 C 0.30828 0.27533 0.38299 0.0
C2711 C 0.31001 0.2832 0.36184 0.0
H2712 H 0.37529 0.57942 0.54787 0.0
H2713 H 0.40347 0.64656 0.53523 0.0
H2714 H 0.41144 0.56728 0.54185 0.0
H2715 H 0.43913 0.63448 0.52852 0.0
H2716 H 0.50786 0.61414 0.53775 0.0
H2717 H 0.47182 0.62584 0.54373 0.0
H2718 H 0.438 0.55686 0.51643 0.0
H2719 H 0.47421 0.54511 0.51117 0.0
C2720 C 0.38913 0.59161 0.54375 0.0
C2721 C 0.38619 0.61407 0.5422 0.0
C2722 C 0.41001 0.5846 0.54007 0.0
C2723 C 0.42878 0.59976 0.53464 0.0
C2724 C 0.42562 0.62218 0.53305 0.0
C2725 C 0.40488 0.62916 0.53679 0.0
C2726 C 0.49279 0.60144 0.53282 0.0
C2727 C 0.49434 0.5786 0.52383 0.0
C2728 C 0.47184 0.6082 0.5362 0.0
C2729 C 0.45141 0.59244 0.5307 0.0
C2730 C 0.45301 0.56964 0.52136 0.0
C2731 C 0.47399 0.56288 0.51803 0.0
H2732 H 0.9121 0.91065 0.53676 0.0
H2733 H 0.88424 0.96669 0.57235 0.0
H2734 H 0.94762 0.93645 0.53622 0.0
H2735 H 0.91992 0.99236 0.57274 0.0
H2736 H 0.97673 0.03723 0.54375 0.0
H2737 H 0.94218 1.01152 0.54785 0.0
H2738 H 0.98004 0.95863 0.55747 0.0
H2739 H 1.01445 0.98408 0.55247 0.0
C2740 C 0.9137 0.92841 0.54483 0.0
C2741 C 0.89533 0.93663 0.5545 0.0
C2742 C 0.93413 0.94325 0.54464 0.0
C2743 C 0.93677 0.96667 0.55432 0.0
C2744 C 0.9185 0.97463 0.56466 0.0
C2745 C 0.89804 0.95984 0.56462 0.0
C2746 C 0.97771 0.0202 0.54696 0.0
C2747 C 0.9984 1.01276 0.54769 0.0
C2748 C 0.95785 1.0054 0.54943 0.0
C2749 C 0.95814 0.98282 0.55292 0.0
C2750 C 0.97898 0.97567 0.55435 0.0
C2751 C 0.9988 0.99038 0.55166 0.0
H2752 H 0.92825 0.16031 0.28746 0.0
H2753 H 0.86366 0.11695 0.2731 0.0
H2754 H 0.91063 0.19427 0.2887 0.0
H2755 H 0.84587 0.15082 0.2744 0.0
H2756 H 0.81281 0.21712 0.28863 0.0
H2757 H 0.83051 0.18327 0.28762 0.0
H2758 H 0.89372 0.22359 0.27771 0.0
H2759 H 0.87585 0.25736 0.27864 0.0
C2760 C 0.91019 0.15763 0.28453 0.0
C2761 C 0.89805 0.13463 0.28015 0.0
C2762 C 0.89973 0.17772 0.28516 0.0
C2763 C 0.87602 0.17681 0.28172 0.0
C2764 C 0.8639 0.1537 0.27746 0.0
C2765 C 0.87441 0.13361 0.27659 0.0
C2766 C 0.83056 0.21917 0.28631 0.0
C2767 C 0.84224 0.2413 0.28392 0.0
C2768 C 0.84105 0.19909 0.28556 0.0
C2769 C 0.86435 0.19918 0.28254 0.0
C2770 C 0.87604 0.22143 0.28029 0.0
C2771 C 0.86547 0.24146 0.2808 0.0
H2772 H 0.75769 0.07922 0.05176 0.0
H2773 H 0.74801 0.14384 0.03415 0.0
H2774 H 0.71691 0.06658 0.0494 0.0
H2775 H 0.70774 0.1319 0.03273 0.0
H2776 H 0.63516 0.10014 0.01195 0.0
H2777 H 0.67573 0.11043 0.01297 0.0
H2778 H 0.6826 0.06864 0.06525 0.0
H2779 H 0.64188 0.05763 0.06342 0.0
C2780 C 0.74692 0.09078 0.04746 0.0
C2781 C 0.7564 0.11255 0.04301 0.0
C2782 C 0.72336 0.08361 0.04625 0.0
C2783 C 0.70845 0.09802 0.0407 0.0
C2784 C 0.71817 0.11985 0.03648 0.0
C2785 C 0.74155 0.12687 0.03749 0.0
C2786 C 0.64525 0.09311 0.02371 0.0
C2787 C 0.6349 0.07806 0.03767 0.0
C2788 C 0.66878 0.09917 0.02445 0.0
C2789 C 0.68305 0.09068 0.03939 0.0
C2790 C 0.67261 0.07548 0.05325 0.0
C2791 C 0.64904 0.06923 0.05233 0.0
H2792 H 0.22093 0.5056 0.28052 0.0
H2793 H 0.27884 0.537 0.24978 0.0
H2794 H 0.24173 0.47695 0.29102 0.0
H2795 H 0.29959 0.50824 0.26022 0.0
H2796 H 0.33537 0.46626 0.30483 0.0
H2797 H 0.31494 0.49626 0.29652 0.0
H2798 H 0.2572 0.4446 0.26915 0.0
H2799 H 0.27741 0.41488 0.27763 0.0
C2800 C 0.23807 0.5063 0.27593 0.0
C2801 C 0.24826 0.5234 0.26423 0.0
C2802 C 0.24994 0.48993 0.28193 0.0
C2803 C 0.27225 0.49047 0.27646 0.0
C2804 C 0.28248 0.50764 0.26486 0.0
C2805 C 0.27055 0.52393 0.25871 0.0
C2806 C 0.31828 0.46146 0.29717 0.0
C2807 C 0.30799 0.43835 0.29165 0.0
C2808 C 0.30667 0.47852 0.29229 0.0
C2809 C 0.28454 0.47268 0.28216 0.0
C2810 C 0.27418 0.44958 0.2771 0.0
C2811 C 0.28581 0.43259 0.28175 0.0
H2812 H 0.25054 0.39054 0.02856 0.0
H2813 H 0.2922 0.45656 0.05334 0.0
H2814 H 0.2182 0.40912 0.02386 0.0
H2815 H 0.25992 0.47505 0.04907 0.0
H2816 H 0.20504 0.50257 0.01353 0.0
H2817 H 0.23615 0.48264 0.01798 0.0
H2818 H 0.19291 0.43063 0.0458 0.0
H2819 H 0.16138 0.45016 0.04045 0.0
C2820 C 0.25275 0.409 0.03315 0.0
C2821 C 0.27392 0.42211 0.04122 0.0
C2822 C 0.23421 0.41963 0.03057 0.0
C2823 C 0.23649 0.44359 0.03594 0.0
C2824 C 0.25764 0.4566 0.04438 0.0
C2825 C 0.27613 0.44599 0.04697 0.0
C2826 C 0.20202 0.4867 0.02027 0.0
C2827 C 0.18065 0.47795 0.02655 0.0
C2828 C 0.21997 0.47543 0.02313 0.0
C2829 C 0.21709 0.45512 0.03242 0.0
C2830 C 0.19567 0.44616 0.03847 0.0
C2831 C 0.17766 0.45748 0.03561 0.0
H2832 H 0.8651 1.00673 0.28774 0.0
H2833 H 0.92131 0.98262 0.25715 0.0
H2834 H 0.84724 0.96721 0.28862 0.0
H2835 H 0.9035 0.94309 0.2575 0.0
H2836 H 0.87428 0.87037 0.27164 0.0
H2837 H 0.89198 0.90988 0.2709 0.0
H2838 H 0.82778 0.93078 0.27677 0.0
H2839 H 0.81034 0.8913 0.27796 0.0
C2840 C 0.87377 0.9931 0.28096 0.0
C2841 C 0.89504 0.99883 0.27229 0.0
C2842 C 0.8633 0.96985 0.28137 0.0
C2843 C 0.87332 0.95055 0.27316 0.0
C2844 C 0.89463 0.95648 0.26442 0.0
C2845 C 0.90506 0.97969 0.26402 0.0
C2846 C 0.86373 0.88325 0.27276 0.0
C2847 C 0.84042 0.8766 0.27486 0.0
C2848 C 0.87408 0.90648 0.27221 0.0
C2849 C 0.86192 0.92492 0.27372 0.0
C2850 C 0.83854 0.91813 0.2758 0.0
C2851 C 0.82822 0.8949 0.27634 0.0
H2852 H 0.71833 0.14065 0.72043 0.0
H2853 H 0.77941 0.12612 0.7508 0.0
H2854 H 0.73593 0.18051 0.72299 0.0
H2855 H 0.79712 0.16612 0.75325 0.0
H2856 H 0.77456 0.25138 0.72648 0.0
H2857 H 0.7662 0.2101 0.71275 0.0
H2858 H 0.7871 0.19871 0.78064 0.0
H2859 H 0.79558 0.2398 0.79436 0.0
C2860 C 0.73575 0.14584 0.72696 0.0
C2861 C 0.7474 0.13048 0.73583 0.0
C2862 C 0.74588 0.16865 0.72832 0.0
C2863 C 0.76775 0.17643 0.73868 0.0
C2864 C 0.78011 0.16056 0.7455 0.0
C2865 C 0.77002 0.13769 0.74398 0.0
C2866 C 0.77762 0.24006 0.73839 0.0
C2867 C 0.78543 0.2488 0.76159 0.0
C2868 C 0.77288 0.21647 0.7305 0.0
C2869 C 0.77608 0.20126 0.7456 0.0
C2870 C 0.78481 0.21005 0.76851 0.0
C2871 C 0.78939 0.23359 0.77644 0.0
loop_
_geom_bond_atom_site_label_1
_geom_bond_atom_site_label_2
_geom_bond_distance
_geom_bond_site_symmetry_2
_ccdc_geom_bond_type
In0 O1 2.294 . S
In0 O2 2.326 . S
In0 O6 2.266 . S
In0 O7 2.326 . S
In0 O8 2.266 . S
In0 O9 2.326 . S
In0 O11 2.294 . S
In0 O12 2.326 . S
O1 In0 2.294 . S
O1 C10 1.240 . S
O2 In0 2.326 . S
O2 C10 1.252 . S
C3 O6 1.252 . S
C3 O7 1.260 . S
C4 O11 1.240 . S
C4 O12 1.252 . S
C5 O8 1.252 . S
C5 O9 1.260 . S
O6 In0 2.266 . S
O6 C3 1.252 . S
O7 In0 2.326 . S
O7 C3 1.260 . S
O8 In0 2.266 . S
O8 C5 1.252 . S
O9 In0 2.326 . S
O9 C5 1.260 . S
C10 O1 1.240 . S
C10 O2 1.252 . S
O11 In0 2.294 . S
O11 C4 1.240 . S
O12 In0 2.326 . S
O12 C4 1.252 . S
In13 O14 2.294 . S
In13 O15 2.326 . S
In13 O19 2.266 1_455 S
In13 O20 2.326 1_455 S
In13 O21 2.264 1_455 S
In13 O22 2.322 1_455 S
In13 O24 2.296 . S
In13 O25 2.330 . S
O14 In13 2.294 . S
O14 C23 1.240 . S
O15 In13 2.326 . S
O15 C23 1.252 . S
C16 O19 1.252 . S
C16 O20 1.260 . S
C17 O24 1.240 . S
C17 O25 1.252 . S
C18 O21 1.252 . S
C18 O22 1.260 . S
O19 In13 2.266 1_655 S
O19 C16 1.252 . S
O20 In13 2.326 1_655 S
O20 C16 1.260 . S
O21 In13 2.264 1_655 S
O21 C18 1.252 . S
O22 In13 2.322 1_655 S
O22 C18 1.260 . S
C23 O14 1.240 . S
C23 O15 1.252 . S
O24 In13 2.296 . S
O24 C17 1.240 . S
O25 In13 2.330 . S
O25 C17 1.252 . S
In26 O27 2.294 . S
In26 O28 2.326 . S
In26 O32 2.266 . S
In26 O33 2.326 . S
In26 O34 2.266 . S
In26 O35 2.326 . S
In26 O37 2.294 . S
In26 O38 2.326 . S
O27 In26 2.294 . S
O27 C36 1.240 . S
O28 In26 2.326 . S
O28 C36 1.252 . S
C29 O32 1.252 . S
C29 O33 1.260 . S
C30 O37 1.240 . S
C30 O38 1.252 . S
C31 O34 1.252 . S
C31 O35 1.260 . S
O32 In26 2.266 . S
O32 C29 1.252 . S
O33 In26 2.326 . S
O33 C29 1.260 . S
O34 In26 2.266 . S
O34 C31 1.252 . S
O35 In26 2.326 . S
O35 C31 1.260 . S
C36 O27 1.240 . S
C36 O28 1.252 . S
O37 In26 2.294 . S
O37 C30 1.240 . S
O38 In26 2.326 . S
O38 C30 1.252 . S
In39 O40 2.294 . S
In39 O41 2.326 . S
In39 O45 2.266 . S
In39 O46 2.326 . S
In39 O47 2.266 . S
In39 O48 2.326 . S
In39 O50 2.294 . S
In39 O51 2.326 . S
O40 In39 2.294 . S
O40 C49 1.240 . S
O41 In39 2.326 . S
O41 C49 1.252 . S
C42 O45 1.252 . S
C42 O46 1.260 . S
C43 O50 1.240 . S
C43 O51 1.252 . S
C44 O47 1.252 . S
C44 O48 1.260 . S
O45 In39 2.266 . S
O45 C42 1.252 . S
O46 In39 2.326 . S
O46 C42 1.260 . S
O47 In39 2.266 . S
O47 C44 1.252 . S
O48 In39 2.326 . S
O48 C44 1.260 . S
C49 O40 1.240 . S
C49 O41 1.252 . S
O50 In39 2.294 . S
O50 C43 1.240 . S
O51 In39 2.326 . S
O51 C43 1.252 . S
In52 O53 2.294 . S
In52 O54 2.326 . S
In52 O58 2.266 . S
In52 O59 2.326 . S
In52 O60 2.266 . S
In52 O61 2.326 . S
In52 O63 2.294 . S
In52 O64 2.326 . S
O53 In52 2.294 . S
O53 C62 1.240 . S
O54 In52 2.326 . S
O54 C62 1.252 . S
C55 O58 1.252 . S
C55 O59 1.260 . S
C56 O63 1.240 . S
C56 O64 1.252 . S
C57 O60 1.252 . S
C57 O61 1.260 . S
O58 In52 2.266 . S
O58 C55 1.252 . S
O59 In52 2.326 . S
O59 C55 1.260 . S
O60 In52 2.266 . S
O60 C57 1.252 . S
O61 In52 2.326 . S
O61 C57 1.260 . S
C62 O53 1.240 . S
C62 O54 1.252 . S
O63 In52 2.294 . S
O63 C56 1.240 . S
O64 In52 2.326 . S
O64 C56 1.252 . S
In65 O66 2.294 . S
In65 O67 2.326 . S
In65 O71 2.266 . S
In65 O72 2.326 . S
In65 O73 2.266 . S
In65 O74 2.326 . S
In65 O76 2.294 . S
In65 O77 2.326 . S
O66 In65 2.294 . S
O66 C75 1.240 . S
O67 In65 2.326 . S
O67 C75 1.252 . S
C68 O71 1.252 . S
C68 O72 1.260 . S
C69 O76 1.240 . S
C69 O77 1.252 . S
C70 O73 1.252 . S
C70 O74 1.260 . S
O71 In65 2.266 . S
O71 C68 1.252 . S
O72 In65 2.326 . S
O72 C68 1.260 . S
O73 In65 2.266 . S
O73 C70 1.252 . S
O74 In65 2.326 . S
O74 C70 1.260 . S
C75 O66 1.240 . S
C75 O67 1.252 . S
O76 In65 2.294 . S
O76 C69 1.240 . S
O77 In65 2.326 . S
O77 C69 1.252 . S
In78 O79 2.294 . S
In78 O80 2.326 . S
In78 O84 2.266 . S
In78 O85 2.326 . S
In78 O86 2.266 . S
In78 O87 2.326 . S
In78 O89 2.294 . S
In78 O90 2.326 . S
O79 In78 2.294 . S
O79 C88 1.240 . S
O80 In78 2.326 . S
O80 C88 1.252 . S
C81 O84 1.252 . S
C81 O85 1.260 . S
C82 O89 1.240 . S
C82 O90 1.252 . S
C83 O86 1.252 . S
C83 O87 1.260 . S
O84 In78 2.266 . S
O84 C81 1.252 . S
O85 In78 2.326 . S
O85 C81 1.260 . S
O86 In78 2.266 . S
O86 C83 1.252 . S
O87 In78 2.326 . S
O87 C83 1.260 . S
C88 O79 1.240 . S
C88 O80 1.252 . S
O89 In78 2.294 . S
O89 C82 1.240 . S
O90 In78 2.326 . S
O90 C82 1.252 . S
In91 O92 2.294 . S
In91 O93 2.326 . S
In91 O97 2.266 . S
In91 O98 2.326 . S
In91 O99 2.266 1_455 S
In91 O100 2.326 1_455 S
In91 O102 2.294 . S
In91 O103 2.326 . S
O92 In91 2.294 . S
O92 C101 1.240 . S
O93 In91 2.326 . S
O93 C101 1.252 . S
C94 O97 1.252 . S
C94 O98 1.260 . S
C95 O102 1.240 . S
C95 O103 1.252 . S
C96 O99 1.252 . S
C96 O100 1.260 . S
O97 In91 2.266 . S
O97 C94 1.252 . S
O98 In91 2.326 . S
O98 C94 1.260 . S
O99 In91 2.266 1_655 S
O99 C96 1.252 . S
O100 In91 2.326 1_655 S
O100 C96 1.260 . S
C101 O92 1.240 . S
C101 O93 1.252 . S
O102 In91 2.294 . S
O102 C95 1.240 . S
O103 In91 2.326 . S
O103 C95 1.252 . S
In104 O105 2.294 . S
In104 O106 2.326 . S
In104 O110 2.266 . S
In104 O111 2.326 . S
In104 O112 2.266 1_545 S
In104 O113 2.326 1_545 S
In104 O115 2.294 . S
In104 O116 2.326 . S
O105 In104 2.294 . S
O105 C114 1.240 . S
O106 In104 2.326 . S
O106 C114 1.252 . S
C107 O110 1.252 . S
C107 O111 1.260 . S
C108 O115 1.240 . S
C108 O116 1.252 . S
C109 O112 1.252 . S
C109 O113 1.260 . S
O110 In104 2.266 . S
O110 C107 1.252 . S
O111 In104 2.326 . S
O111 C107 1.260 . S
O112 In104 2.266 1_565 S
O112 C109 1.252 . S
O113 In104 2.326 1_565 S
O113 C109 1.260 . S
C114 O105 1.240 . S
C114 O106 1.252 . S
O115 In104 2.294 . S
O115 C108 1.240 . S
O116 In104 2.326 . S
O116 C108 1.252 . S
In117 O118 2.294 . S
In117 O119 2.326 . S
In117 O123 2.266 . S
In117 O124 2.326 . S
In117 O125 2.266 . S
In117 O126 2.326 . S
In117 O128 2.294 . S
In117 O129 2.326 . S
O118 In117 2.294 . S
O118 C127 1.240 . S
O119 In117 2.326 . S
O119 C127 1.252 . S
C120 O123 1.252 . S
C120 O124 1.260 . S
C121 O128 1.240 . S
C121 O129 1.252 . S
C122 O125 1.252 . S
C122 O126 1.260 . S
O123 In117 2.266 . S
O123 C120 1.252 . S
O124 In117 2.326 . S
O124 C120 1.260 . S
O125 In117 2.266 . S
O125 C122 1.252 . S
O126 In117 2.326 . S
O126 C122 1.260 . S
C127 O118 1.240 . S
C127 O119 1.252 . S
O128 In117 2.294 . S
O128 C121 1.240 . S
O129 In117 2.326 . S
O129 C121 1.252 . S
In130 O131 2.294 . S
In130 O132 2.326 . S
In130 O136 2.266 . S
In130 O137 2.326 . S
In130 O138 2.266 . S
In130 O139 2.326 . S
In130 O141 2.294 1_545 S
In130 O142 2.326 1_545 S
O131 In130 2.294 . S
O131 C140 1.240 . S
O132 In130 2.326 . S
O132 C140 1.252 . S
C133 O136 1.252 . S
C133 O137 1.260 . S
C134 O141 1.240 . S
C134 O142 1.252 . S
C135 O138 1.252 . S
C135 O139 1.260 . S
O136 In130 2.266 . S
O136 C133 1.252 . S
O137 In130 2.326 . S
O137 C133 1.260 . S
O138 In130 2.266 . S
O138 C135 1.252 . S
O139 In130 2.326 . S
O139 C135 1.260 . S
C140 O131 1.240 . S
C140 O132 1.252 . S
O141 In130 2.294 1_565 S
O141 C134 1.240 . S
O142 In130 2.326 1_565 S
O142 C134 1.252 . S
In143 O144 2.294 . S
In143 O145 2.326 . S
In143 O149 2.266 1_554 S
In143 O150 2.326 1_554 S
In143 O151 2.266 . S
In143 O152 2.326 . S
In143 O154 2.294 . S
In143 O155 2.326 . S
O144 In143 2.294 . S
O144 C153 1.240 . S
O145 In143 2.326 . S
O145 C153 1.252 . S
C146 O149 1.252 . S
C146 O150 1.260 . S
C147 O154 1.240 . S
C147 O155 1.252 . S
C148 O151 1.252 . S
C148 O152 1.260 . S
O149 In143 2.266 1_556 S
O149 C146 1.252 . S
O150 In143 2.326 1_556 S
O150 C146 1.260 . S
O151 In143 2.266 . S
O151 C148 1.252 . S
O152 In143 2.326 . S
O152 C148 1.260 . S
C153 O144 1.240 . S
C153 O145 1.252 . S
O154 In143 2.294 . S
O154 C147 1.240 . S
O155 In143 2.326 . S
O155 C147 1.252 . S
In156 O157 2.294 . S
In156 O158 2.326 . S
In156 O162 2.266 1_554 S
In156 O163 2.326 1_554 S
In156 O164 2.266 . S
In156 O165 2.326 . S
In156 O167 2.294 . S
In156 O168 2.326 . S
O157 In156 2.294 . S
O157 C166 1.240 . S
O158 In156 2.326 . S
O158 C166 1.252 . S
C159 O162 1.252 . S
C159 O163 1.260 . S
C160 O167 1.240 . S
C160 O168 1.252 . S
C161 O164 1.252 . S
C161 O165 1.260 . S
O162 In156 2.266 1_556 S
O162 C159 1.252 . S
O163 In156 2.326 1_556 S
O163 C159 1.260 . S
O164 In156 2.266 . S
O164 C161 1.252 . S
O165 In156 2.326 . S
O165 C161 1.260 . S
C166 O157 1.240 . S
C166 O158 1.252 . S
O167 In156 2.294 . S
O167 C160 1.240 . S
O168 In156 2.326 . S
O168 C160 1.252 . S
In169 O170 2.294 . S
In169 O171 2.326 . S
In169 O175 2.266 . S
In169 O176 2.326 . S
In169 O177 2.266 . S
In169 O178 2.326 1_554 S
In169 O180 2.294 . S
In169 O181 2.326 . S
O170 In169 2.294 . S
O170 C179 1.240 . S
O171 In169 2.326 . S
O171 C179 1.252 . S
C172 O175 1.252 . S
C172 O176 1.260 . S
C173 O180 1.240 . S
C173 O181 1.252 . S
C174 O177 1.252 1_556 S
C174 O178 1.260 . S
O175 In169 2.266 . S
O175 C172 1.252 . S
O176 In169 2.326 . S
O176 C172 1.260 . S
O177 In169 2.266 . S
O177 C174 1.252 1_554 S
O178 In169 2.326 1_556 S
O178 C174 1.260 . S
C179 O170 1.240 . S
C179 O171 1.252 . S
O180 In169 2.294 . S
O180 C173 1.240 . S
O181 In169 2.326 . S
O181 C173 1.252 . S
In182 O183 2.294 . S
In182 O184 2.326 . S
In182 O188 2.266 . S
In182 O189 2.326 . S
In182 O190 2.266 . S
In182 O191 2.326 . S
In182 O193 2.294 . S
In182 O194 2.326 . S
O183 In182 2.294 . S
O183 C192 1.240 . S
O184 In182 2.326 . S
O184 C192 1.252 . S
C185 O188 1.252 . S
C185 O189 1.260 . S
C186 O193 1.240 . S
C186 O194 1.252 . S
C187 O190 1.252 . S
C187 O191 1.260 . S
O188 In182 2.266 . S
O188 C185 1.252 . S
O189 In182 2.326 . S
O189 C185 1.260 . S
O190 In182 2.266 . S
O190 C187 1.252 . S
O191 In182 2.326 . S
O191 C187 1.260 . S
C192 O183 1.240 . S
C192 O184 1.252 . S
O193 In182 2.294 . S
O193 C186 1.240 . S
O194 In182 2.326 . S
O194 C186 1.252 . S
In195 O196 2.294 . S
In195 O197 2.326 . S
In195 O201 2.266 . S
In195 O202 2.326 . S
In195 O203 2.266 . S
In195 O204 2.326 . S
In195 O206 2.294 . S
In195 O207 2.326 . S
O196 In195 2.294 . S
O196 C205 1.240 . S
O197 In195 2.326 . S
O197 C205 1.252 . S
C198 O201 1.252 . S
C198 O202 1.260 . S
C199 O206 1.240 . S
C199 O207 1.252 . S
C200 O203 1.252 . S
C200 O204 1.260 . S
O201 In195 2.266 . S
O201 C198 1.252 . S
O202 In195 2.326 . S
O202 C198 1.260 . S
O203 In195 2.266 . S
O203 C200 1.252 . S
O204 In195 2.326 . S
O204 C200 1.260 . S
C205 O196 1.240 . S
C205 O197 1.252 . S
O206 In195 2.294 . S
O206 C199 1.240 . S
O207 In195 2.326 . S
O207 C199 1.252 . S
In208 O209 2.294 . S
In208 O210 2.326 . S
In208 O214 2.266 . S
In208 O215 2.326 . S
In208 O216 2.266 . S
In208 O217 2.326 . S
In208 O219 2.294 . S
In208 O220 2.326 . S
O209 In208 2.294 . S
O209 C218 1.240 . S
O210 In208 2.326 . S
O210 C218 1.252 . S
C211 O214 1.252 . S
C211 O215 1.260 . S
C212 O219 1.240 . S
C212 O220 1.252 . S
C213 O216 1.252 . S
C213 O217 1.260 . S
O214 In208 2.266 . S
O214 C211 1.252 . S
O215 In208 2.326 . S
O215 C211 1.260 . S
O216 In208 2.266 . S
O216 C213 1.252 . S
O217 In208 2.326 . S
O217 C213 1.260 . S
C218 O209 1.240 . S
C218 O210 1.252 . S
O219 In208 2.294 . S
O219 C212 1.240 . S
O220 In208 2.326 . S
O220 C212 1.252 . S
In221 O222 2.294 . S
In221 O223 2.326 . S
In221 O227 2.266 . S
In221 O228 2.326 . S
In221 O229 2.266 . S
In221 O230 2.326 . S
In221 O232 2.294 . S
In221 O233 2.326 . S
O222 In221 2.294 . S
O222 C231 1.240 . S
O223 In221 2.326 . S
O223 C231 1.252 . S
C224 O227 1.252 . S
C224 O228 1.260 . S
C225 O232 1.240 . S
C225 O233 1.252 . S
C226 O229 1.252 . S
C226 O230 1.260 . S
O227 In221 2.266 . S
O227 C224 1.252 . S
O228 In221 2.326 . S
O228 C224 1.260 . S
O229 In221 2.266 . S
O229 C226 1.252 . S
O230 In221 2.326 . S
O230 C226 1.260 . S
C231 O222 1.240 . S
C231 O223 1.252 . S
O232 In221 2.294 . S
O232 C225 1.240 . S
O233 In221 2.326 . S
O233 C225 1.252 . S
In234 O235 2.294 . S
In234 O236 2.326 . S
In234 O240 2.266 . S
In234 O241 2.326 . S
In234 O242 2.266 . S
In234 O243 2.326 . S
In234 O245 2.294 . S
In234 O246 2.326 . S
O235 In234 2.294 . S
O235 C244 1.240 . S
O236 In234 2.326 . S
O236 C244 1.252 . S
C237 O240 1.252 . S
C237 O241 1.260 . S
C238 O245 1.240 . S
C238 O246 1.252 . S
C239 O242 1.252 . S
C239 O243 1.260 . S
O240 In234 2.266 . S
O240 C237 1.252 . S
O241 In234 2.326 . S
O241 C237 1.260 . S
O242 In234 2.266 . S
O242 C239 1.252 . S
O243 In234 2.326 . S
O243 C239 1.260 . S
C244 O235 1.240 . S
C244 O236 1.252 . S
O245 In234 2.294 . S
O245 C238 1.240 . S
O246 In234 2.326 . S
O246 C238 1.252 . S
In247 O248 2.294 . S
In247 O249 2.326 . S
In247 O253 2.266 . S
In247 O254 2.326 . S
In247 O255 2.266 . S
In247 O256 2.326 . S
In247 O258 2.294 . S
In247 O259 2.326 . S
O248 In247 2.294 . S
O248 C257 1.240 . S
O249 In247 2.326 . S
O249 C257 1.252 . S
C250 O253 1.252 . S
C250 O254 1.260 . S
C251 O258 1.240 . S
C251 O259 1.252 . S
C252 O255 1.252 . S
C252 O256 1.260 . S
O253 In247 2.266 . S
O253 C250 1.252 . S
O254 In247 2.326 . S
O254 C250 1.260 . S
O255 In247 2.266 . S
O255 C252 1.252 . S
O256 In247 2.326 . S
O256 C252 1.260 . S
C257 O248 1.240 . S
C257 O249 1.252 . S
O258 In247 2.294 . S
O258 C251 1.240 . S
O259 In247 2.326 . S
O259 C251 1.252 . S
In260 O261 2.294 . S
In260 O262 2.326 . S
In260 O266 2.266 . S
In260 O267 2.326 . S
In260 O268 2.266 1_554 S
In260 O269 2.326 1_554 S
In260 O271 2.294 . S
In260 O272 2.326 . S
O261 In260 2.294 . S
O261 C270 1.240 . S
O262 In260 2.326 . S
O262 C270 1.252 . S
C263 O266 1.252 . S
C263 O267 1.260 . S
C264 O271 1.240 . S
C264 O272 1.252 . S
C265 O268 1.252 . S
C265 O269 1.260 . S
O266 In260 2.266 . S
O266 C263 1.252 . S
O267 In260 2.326 . S
O267 C263 1.260 . S
O268 In260 2.266 1_556 S
O268 C265 1.252 . S
O269 In260 2.326 1_556 S
O269 C265 1.260 . S
C270 O261 1.240 . S
C270 O262 1.252 . S
O271 In260 2.294 . S
O271 C264 1.240 . S
O272 In260 2.326 . S
O272 C264 1.252 . S
In273 O274 2.294 . S
In273 O275 2.326 . S
In273 O279 2.266 . S
In273 O280 2.326 . S
In273 O281 2.266 . S
In273 O282 2.326 . S
In273 O284 2.294 . S
In273 O285 2.326 . S
O274 In273 2.294 . S
O274 C283 1.240 . S
O275 In273 2.326 . S
O275 C283 1.252 . S
C276 O279 1.252 . S
C276 O280 1.260 . S
C277 O284 1.240 . S
C277 O285 1.252 . S
C278 O281 1.252 . S
C278 O282 1.260 . S
O279 In273 2.266 . S
O279 C276 1.252 . S
O280 In273 2.326 . S
O280 C276 1.260 . S
O281 In273 2.266 . S
O281 C278 1.252 . S
O282 In273 2.326 . S
O282 C278 1.260 . S
C283 O274 1.240 . S
C283 O275 1.252 . S
O284 In273 2.294 . S
O284 C277 1.240 . S
O285 In273 2.326 . S
O285 C277 1.252 . S
In286 O287 2.294 . S
In286 O288 2.326 . S
In286 O292 2.266 . S
In286 O293 2.326 . S
In286 O294 2.266 . S
In286 O295 2.326 . S
In286 O297 2.294 . S
In286 O298 2.326 . S
O287 In286 2.294 . S
O287 C296 1.240 . S
O288 In286 2.326 . S
O288 C296 1.252 . S
C289 O292 1.252 . S
C289 O293 1.260 . S
C290 O297 1.240 . S
C290 O298 1.252 . S
C291 O294 1.252 . S
C291 O295 1.260 . S
O292 In286 2.266 . S
O292 C289 1.252 . S
O293 In286 2.326 . S
O293 C289 1.260 . S
O294 In286 2.266 . S
O294 C291 1.252 . S
O295 In286 2.326 . S
O295 C291 1.260 . S
C296 O287 1.240 . S
C296 O288 1.252 . S
O297 In286 2.294 . S
O297 C290 1.240 . S
O298 In286 2.326 . S
O298 C290 1.252 . S
In299 O300 2.294 . S
In299 O301 2.326 . S
In299 O305 2.266 . S
In299 O306 2.326 . S
In299 O307 2.266 . S
In299 O308 2.326 . S
In299 O310 2.294 . S
In299 O311 2.326 . S
O300 In299 2.294 . S
O300 C309 1.240 . S
O301 In299 2.326 . S
O301 C309 1.252 . S
C302 O305 1.252 . S
C302 O306 1.260 . S
C303 O310 1.240 . S
C303 O311 1.252 . S
C304 O307 1.252 . S
C304 O308 1.260 . S
O305 In299 2.266 . S
O305 C302 1.252 . S
O306 In299 2.326 . S
O306 C302 1.260 . S
O307 In299 2.266 . S
O307 C304 1.252 . S
O308 In299 2.326 . S
O308 C304 1.260 . S
C309 O300 1.240 . S
C309 O301 1.252 . S
O310 In299 2.294 . S
O310 C303 1.240 . S
O311 In299 2.326 . S
O311 C303 1.252 . S
Eu312 C321 2.828 . S
Eu312 O323 2.392 . S
Eu312 O325 2.418 . S
Eu312 O330 2.373 . S
Eu312 O333 2.488 . S
Eu312 O334 2.471 . S
Eu312 O335 2.349 . S
Eu313 O322 2.373 . S
Eu313 O326 2.488 1_545 S
Eu313 O327 2.471 1_545 S
Eu313 O328 2.349 . S
Eu313 O331 2.392 . S
Eu313 O332 2.418 1_554 S
Eu313 C342 2.828 1_545 S
C314 O332 1.244 . S
C314 O335 1.265 1_556 S
C315 C316 1.379 1_554 S
C315 C319 1.373 . S
C315 C321 1.505 . S
C316 C315 1.379 1_556 S
C316 C318 1.369 . S
C316 H344 0.930 . S
C317 C319 1.383 . S
C317 C320 1.382 . S
C317 H345 0.930 . S
C318 C316 1.369 . S
C318 C320 1.392 1_556 S
C318 H346 0.930 . S
C319 C315 1.373 . S
C319 C317 1.383 . S
C319 H347 0.931 . S
C320 C317 1.382 . S
C320 C318 1.392 1_554 S
C321 Eu312 2.828 . S
C321 C315 1.505 . S
C321 O333 1.249 . S
C321 O334 1.244 . S
O322 Eu313 2.373 . S
O322 C324 1.258 . S
O323 Eu312 2.392 . S
O323 C324 1.242 . S
C324 O322 1.258 . S
C324 O323 1.242 . S
O325 Eu312 2.418 . S
O325 C329 1.244 . S
O326 Eu313 2.488 1_565 S
O326 C342 1.249 . S
O327 Eu313 2.471 1_565 S
O327 C342 1.244 . S
O328 Eu313 2.349 . S
O328 C329 1.265 . S
C329 O325 1.244 . S
C329 O328 1.265 . S
O330 Eu312 2.373 . S
O330 C343 1.258 . S
O331 Eu313 2.392 . S
O331 C343 1.242 . S
O332 Eu313 2.418 1_556 S
O332 C314 1.244 . S
O333 Eu312 2.488 . S
O333 C321 1.249 . S
O334 Eu312 2.471 . S
O334 C321 1.244 . S
O335 Eu312 2.349 . S
O335 C314 1.265 1_554 S
C336 C337 1.379 . S
C336 C340 1.373 . S
C336 C342 1.505 . S
C337 C336 1.379 . S
C337 C339 1.369 . S
C337 H348 0.930 . S
C338 C340 1.383 . S
C338 C341 1.382 . S
C338 H349 0.930 . S
C339 C337 1.369 . S
C339 C341 1.392 . S
C339 H350 0.930 . S
C340 C336 1.373 . S
C340 C338 1.383 . S
C340 H351 0.931 . S
C341 C338 1.382 . S
C341 C339 1.392 . S
C342 Eu313 2.828 1_565 S
C342 O326 1.249 . S
C342 O327 1.244 . S
C342 C336 1.505 . S
C343 O330 1.258 . S
C343 O331 1.242 . S
H344 C316 0.930 . S
H345 C317 0.930 . S
H346 C318 0.930 . S
H347 C319 0.931 . S
H348 C337 0.930 . S
H349 C338 0.930 . S
H350 C339 0.930 . S
H351 C340 0.931 . S
Eu352 C361 2.828 . S
Eu352 O363 2.392 . S
Eu352 O365 2.418 . S
Eu352 O370 2.373 . S
Eu352 O373 2.488 . S
Eu352 O374 2.471 . S
Eu352 O375 2.349 . S
Eu353 O362 2.373 . S
Eu353 O366 2.488 . S
Eu353 O367 2.471 . S
Eu353 O368 2.349 . S
Eu353 O371 2.392 . S
Eu353 O372 2.418 . S
Eu353 C382 2.828 . S
C354 O372 1.244 . S
C354 O375 1.265 . S
C355 C356 1.379 . S
C355 C359 1.373 . S
C355 C361 1.505 . S
C356 C355 1.379 . S
C356 C358 1.369 . S
C356 H384 0.930 . S
C357 C359 1.383 . S
C357 C360 1.382 . S
C357 H385 0.930 . S
C358 C356 1.369 . S
C358 C360 1.392 . S
C358 H386 0.930 . S
C359 C355 1.373 . S
C359 C357 1.383 . S
C359 H387 0.931 . S
C360 C357 1.382 . S
C360 C358 1.392 . S
C361 Eu352 2.828 . S
C361 C355 1.505 . S
C361 O373 1.249 . S
C361 O374 1.244 . S
O362 Eu353 2.373 . S
O362 C364 1.258 . S
O363 Eu352 2.392 . S
O363 C364 1.242 . S
C364 O362 1.258 . S
C364 O363 1.242 . S
O365 Eu352 2.418 . S
O365 C369 1.244 . S
O366 Eu353 2.488 . S
O366 C382 1.249 . S
O367 Eu353 2.471 . S
O367 C382 1.244 . S
O368 Eu353 2.349 . S
O368 C369 1.265 . S
C369 O365 1.244 . S
C369 O368 1.265 . S
O370 Eu352 2.373 . S
O370 C383 1.258 . S
O371 Eu353 2.392 . S
O371 C383 1.242 . S
O372 Eu353 2.418 . S
O372 C354 1.244 . S
O373 Eu352 2.488 . S
O373 C361 1.249 . S
O374 Eu352 2.471 . S
O374 C361 1.244 . S
O375 Eu352 2.349 . S
O375 C354 1.265 . S
C376 C377 1.379 . S
C376 C380 1.373 . S
C376 C382 1.505 . S
C377 C376 1.379 . S
C377 C379 1.369 . S
C377 H388 0.930 . S
C378 C380 1.383 . S
C378 C381 1.382 . S
C378 H389 0.930 . S
C379 C377 1.369 . S
C379 C381 1.392 . S
C379 H390 0.930 . S
C380 C376 1.373 . S
C380 C378 1.383 . S
C380 H391 0.931 . S
C381 C378 1.382 . S
C381 C379 1.392 . S
C382 Eu353 2.828 . S
C382 O366 1.249 . S
C382 O367 1.244 . S
C382 C376 1.505 . S
C383 O370 1.258 . S
C383 O371 1.242 . S
H384 C356 0.930 . S
H385 C357 0.930 . S
H386 C358 0.930 . S
H387 C359 0.931 . S
H388 C377 0.930 . S
H389 C378 0.930 . S
H390 C379 0.930 . S
H391 C380 0.931 . S
Eu392 C401 2.828 . S
Eu392 O403 2.392 . S
Eu392 O405 2.418 . S
Eu392 O410 2.373 1_545 S
Eu392 O413 2.488 . S
Eu392 O414 2.471 . S
Eu392 O415 2.349 . S
Eu393 O402 2.373 . S
Eu393 O406 2.488 . S
Eu393 O407 2.471 . S
Eu393 O408 2.349 . S
Eu393 O411 2.392 1_545 S
Eu393 O412 2.418 . S
Eu393 C422 2.828 . S
C394 O412 1.244 . S
C394 O415 1.265 . S
C395 C396 1.379 . S
C395 C399 1.373 . S
C395 C401 1.505 1_565 S
C396 C395 1.379 . S
C396 C398 1.369 . S
C396 H424 0.930 . S
C397 C399 1.383 . S
C397 C400 1.382 . S
C397 H425 0.930 . S
C398 C396 1.369 . S
C398 C400 1.392 . S
C398 H426 0.930 . S
C399 C395 1.373 . S
C399 C397 1.383 . S
C399 H427 0.931 . S
C400 C397 1.382 . S
C400 C398 1.392 . S
C401 Eu392 2.828 . S
C401 C395 1.505 1_545 S
C401 O413 1.249 . S
C401 O414 1.244 . S
O402 Eu393 2.373 . S
O402 C404 1.258 . S
O403 Eu392 2.392 . S
O403 C404 1.242 . S
C404 O402 1.258 . S
C404 O403 1.242 . S
O405 Eu392 2.418 . S
O405 C409 1.244 . S
O406 Eu393 2.488 . S
O406 C422 1.249 . S
O407 Eu393 2.471 . S
O407 C422 1.244 . S
O408 Eu393 2.349 . S
O408 C409 1.265 . S
C409 O405 1.244 . S
C409 O408 1.265 . S
O410 Eu392 2.373 1_565 S
O410 C423 1.258 . S
O411 Eu393 2.392 1_565 S
O411 C423 1.242 . S
O412 Eu393 2.418 . S
O412 C394 1.244 . S
O413 Eu392 2.488 . S
O413 C401 1.249 . S
O414 Eu392 2.471 . S
O414 C401 1.244 . S
O415 Eu392 2.349 . S
O415 C394 1.265 . S
C416 C417 1.379 . S
C416 C420 1.373 . S
C416 C422 1.505 . S
C417 C416 1.379 . S
C417 C419 1.369 . S
C417 H428 0.930 . S
C418 C420 1.383 . S
C418 C421 1.382 . S
C418 H429 0.930 . S
C419 C417 1.369 . S
C419 C421 1.392 . S
C419 H430 0.930 . S
C420 C416 1.373 . S
C420 C418 1.383 . S
C420 H431 0.931 . S
C421 C418 1.382 . S
C421 C419 1.392 . S
C422 Eu393 2.828 . S
C422 O406 1.249 . S
C422 O407 1.244 . S
C422 C416 1.505 . S
C423 O410 1.258 . S
C423 O411 1.242 . S
H424 C396 0.930 . S
H425 C397 0.930 . S
H426 C398 0.930 . S
H427 C399 0.931 . S
H428 C417 0.930 . S
H429 C418 0.930 . S
H430 C419 0.930 . S
H431 C420 0.931 . S
Eu432 C441 2.828 . S
Eu432 O443 2.392 . S
Eu432 O445 2.418 . S
Eu432 O450 2.373 . S
Eu432 O453 2.488 . S
Eu432 O454 2.471 . S
Eu432 O455 2.349 . S
Eu433 O442 2.373 . S
Eu433 O446 2.488 . S
Eu433 O447 2.471 . S
Eu433 O448 2.349 . S
Eu433 O451 2.392 . S
Eu433 O452 2.418 . S
Eu433 C462 2.828 . S
C434 O452 1.244 . S
C434 O455 1.265 . S
C435 C436 1.379 . S
C435 C439 1.373 . S
C435 C441 1.505 . S
C436 C435 1.379 . S
C436 C438 1.369 . S
C436 H464 0.930 . S
C437 C439 1.383 . S
C437 C440 1.382 . S
C437 H465 0.930 . S
C438 C436 1.369 . S
C438 C440 1.392 . S
C438 H466 0.930 . S
C439 C435 1.373 . S
C439 C437 1.383 . S
C439 H467 0.931 . S
C440 C437 1.382 . S
C440 C438 1.392 . S
C441 Eu432 2.828 . S
C441 C435 1.505 . S
C441 O453 1.249 . S
C441 O454 1.244 . S
O442 Eu433 2.373 . S
O442 C444 1.258 . S
O443 Eu432 2.392 . S
O443 C444 1.242 . S
C444 O442 1.258 . S
C444 O443 1.242 . S
O445 Eu432 2.418 . S
O445 C449 1.244 . S
O446 Eu433 2.488 . S
O446 C462 1.249 . S
O447 Eu433 2.471 . S
O447 C462 1.244 . S
O448 Eu433 2.349 . S
O448 C449 1.265 . S
C449 O445 1.244 . S
C449 O448 1.265 . S
O450 Eu432 2.373 . S
O450 C463 1.258 . S
O451 Eu433 2.392 . S
O451 C463 1.242 . S
O452 Eu433 2.418 . S
O452 C434 1.244 . S
O453 Eu432 2.488 . S
O453 C441 1.249 . S
O454 Eu432 2.471 . S
O454 C441 1.244 . S
O455 Eu432 2.349 . S
O455 C434 1.265 . S
C456 C457 1.379 . S
C456 C460 1.373 . S
C456 C462 1.505 . S
C457 C456 1.379 . S
C457 C459 1.369 . S
C457 H468 0.930 . S
C458 C460 1.383 . S
C458 C461 1.382 . S
C458 H469 0.930 . S
C459 C457 1.369 . S
C459 C461 1.392 . S
C459 H470 0.930 . S
C460 C456 1.373 . S
C460 C458 1.383 . S
C460 H471 0.931 . S
C461 C458 1.382 . S
C461 C459 1.392 . S
C462 Eu433 2.828 . S
C462 O446 1.249 . S
C462 O447 1.244 . S
C462 C456 1.505 . S
C463 O450 1.258 . S
C463 O451 1.242 . S
H464 C436 0.930 . S
H465 C437 0.930 . S
H466 C438 0.930 . S
H467 C439 0.931 . S
H468 C457 0.930 . S
H469 C458 0.930 . S
H470 C459 0.930 . S
H471 C460 0.931 . S
Eu472 C481 2.828 . S
Eu472 O483 2.392 . S
Eu472 O485 2.418 . S
Eu472 O490 2.373 . S
Eu472 O493 2.488 . S
Eu472 O494 2.471 . S
Eu472 O495 2.349 . S
Eu473 O482 2.368 1_565 S
Eu473 O486 2.524 . S
Eu473 O487 2.507 . S
Eu473 O488 2.330 1_565 S
Eu473 O491 2.365 1_565 S
Eu473 O492 2.402 1_565 S
Eu473 C502 2.867 . S
C474 O492 1.244 . S
C474 O495 1.265 . S
C475 C476 1.379 . S
C475 C479 1.373 . S
C475 C481 1.505 . S
C476 C475 1.379 . S
C476 C478 1.369 . S
C476 H504 0.930 . S
C477 C479 1.383 . S
C477 C480 1.382 . S
C477 H505 0.930 . S
C478 C476 1.369 . S
C478 C480 1.392 . S
C478 H506 0.930 . S
C479 C475 1.373 . S
C479 C477 1.383 . S
C479 H507 0.931 . S
C480 C477 1.382 . S
C480 C478 1.392 . S
C481 Eu472 2.828 . S
C481 C475 1.505 . S
C481 O493 1.249 . S
C481 O494 1.244 . S
O482 Eu473 2.368 1_545 S
O482 C484 1.258 . S
O483 Eu472 2.392 . S
O483 C484 1.242 . S
C484 O482 1.258 . S
C484 O483 1.242 . S
O485 Eu472 2.418 . S
O485 C489 1.244 . S
O486 Eu473 2.524 . S
O486 C502 1.249 . S
O487 Eu473 2.507 . S
O487 C502 1.244 . S
O488 Eu473 2.330 1_545 S
O488 C489 1.265 . S
C489 O485 1.244 . S
C489 O488 1.265 . S
O490 Eu472 2.373 . S
O490 C503 1.258 . S
O491 Eu473 2.365 1_545 S
O491 C503 1.242 . S
O492 Eu473 2.402 1_545 S
O492 C474 1.244 . S
O493 Eu472 2.488 . S
O493 C481 1.249 . S
O494 Eu472 2.471 . S
O494 C481 1.244 . S
O495 Eu472 2.349 . S
O495 C474 1.265 . S
C496 C497 1.379 . S
C496 C500 1.373 . S
C496 C502 1.505 . S
C497 C496 1.379 . S
C497 C499 1.369 . S
C497 H508 0.930 . S
C498 C500 1.383 . S
C498 C501 1.382 . S
C498 H509 0.930 . S
C499 C497 1.369 . S
C499 C501 1.392 . S
C499 H510 0.930 . S
C500 C496 1.373 . S
C500 C498 1.383 . S
C500 H511 0.931 . S
C501 C498 1.382 . S
C501 C499 1.392 . S
C502 Eu473 2.867 . S
C502 O486 1.249 . S
C502 O487 1.244 . S
C502 C496 1.505 . S
C503 O490 1.258 . S
C503 O491 1.242 . S
H504 C476 0.930 . S
H505 C477 0.930 . S
H506 C478 0.930 . S
H507 C479 0.931 . S
H508 C497 0.930 . S
H509 C498 0.930 . S
H510 C499 0.930 . S
H511 C500 0.931 . S
Eu512 C521 2.828 . S
Eu512 O523 2.392 . S
Eu512 O525 2.418 . S
Eu512 O530 2.373 . S
Eu512 O533 2.488 . S
Eu512 O534 2.471 . S
Eu512 O535 2.349 . S
Eu513 O522 2.373 . S
Eu513 O526 2.488 . S
Eu513 O527 2.471 . S
Eu513 O528 2.349 . S
Eu513 O531 2.392 . S
Eu513 O532 2.418 . S
Eu513 C542 2.828 . S
C514 O532 1.244 . S
C514 O535 1.265 . S
C515 C516 1.379 . S
C515 C519 1.373 . S
C515 C521 1.505 . S
C516 C515 1.379 . S
C516 C518 1.369 . S
C516 H544 0.930 . S
C517 C519 1.383 . S
C517 C520 1.382 . S
C517 H545 0.930 . S
C518 C516 1.369 . S
C518 C520 1.392 . S
C518 H546 0.930 . S
C519 C515 1.373 . S
C519 C517 1.383 . S
C519 H547 0.931 . S
C520 C517 1.382 . S
C520 C518 1.392 . S
C521 Eu512 2.828 . S
C521 C515 1.505 . S
C521 O533 1.249 . S
C521 O534 1.244 . S
O522 Eu513 2.373 . S
O522 C524 1.258 . S
O523 Eu512 2.392 . S
O523 C524 1.242 . S
C524 O522 1.258 . S
C524 O523 1.242 . S
O525 Eu512 2.418 . S
O525 C529 1.244 . S
O526 Eu513 2.488 . S
O526 C542 1.249 . S
O527 Eu513 2.471 . S
O527 C542 1.244 . S
O528 Eu513 2.349 . S
O528 C529 1.265 . S
C529 O525 1.244 . S
C529 O528 1.265 . S
O530 Eu512 2.373 . S
O530 C543 1.258 . S
O531 Eu513 2.392 . S
O531 C543 1.242 . S
O532 Eu513 2.418 . S
O532 C514 1.244 . S
O533 Eu512 2.488 . S
O533 C521 1.249 . S
O534 Eu512 2.471 . S
O534 C521 1.244 . S
O535 Eu512 2.349 . S
O535 C514 1.265 . S
C536 C537 1.379 . S
C536 C540 1.373 . S
C536 C542 1.505 . S
C537 C536 1.379 . S
C537 C539 1.369 . S
C537 H548 0.930 . S
C538 C540 1.383 . S
C538 C541 1.382 . S
C538 H549 0.930 . S
C539 C537 1.369 . S
C539 C541 1.392 . S
C539 H550 0.930 . S
C540 C536 1.373 . S
C540 C538 1.383 . S
C540 H551 0.931 . S
C541 C538 1.382 . S
C541 C539 1.392 . S
C542 Eu513 2.828 . S
C542 O526 1.249 . S
C542 O527 1.244 . S
C542 C536 1.505 . S
C543 O530 1.258 . S
C543 O531 1.242 . S
H544 C516 0.930 . S
H545 C517 0.930 . S
H546 C518 0.930 . S
H547 C519 0.931 . S
H548 C537 0.930 . S
H549 C538 0.930 . S
H550 C539 0.930 . S
H551 C540 0.931 . S
Eu552 C561 2.828 . S
Eu552 O563 2.392 . S
Eu552 O565 2.418 . S
Eu552 O570 2.373 . S
Eu552 O573 2.488 . S
Eu552 O574 2.471 . S
Eu552 O575 2.349 . S
Eu553 O562 2.379 . S
Eu553 O566 2.488 . S
Eu553 O567 2.471 . S
Eu553 O568 2.349 . S
Eu553 O571 2.392 . S
Eu553 O572 2.418 1_556 S
Eu553 C582 2.828 . S
C554 O572 1.244 . S
C554 O575 1.265 . S
C555 C556 1.379 . S
C555 C559 1.373 . S
C555 C561 1.505 . S
C556 C555 1.379 . S
C556 C558 1.369 . S
C556 H584 0.930 . S
C557 C559 1.393 . S
C557 C560 1.409 . S
C557 H585 0.894 1_545 S
C558 C556 1.369 . S
C558 C560 1.392 . S
C558 H586 0.930 . S
C559 C555 1.373 . S
C559 C557 1.393 . S
C559 H587 0.931 1_545 S
C560 C557 1.409 . S
C560 C558 1.392 . S
C561 Eu552 2.828 . S
C561 C555 1.505 . S
C561 O573 1.249 . S
C561 O574 1.244 . S
O562 Eu553 2.379 . S
O562 C564 1.243 1_556 S
O563 Eu552 2.392 . S
O563 C564 1.242 . S
C564 O562 1.243 1_554 S
C564 O563 1.242 . S
O565 Eu552 2.418 . S
O565 C569 1.271 . S
O566 Eu553 2.488 . S
O566 C582 1.249 . S
O567 Eu553 2.471 . S
O567 C582 1.244 . S
O568 Eu553 2.349 . S
O568 C569 1.255 1_556 S
C569 O565 1.271 . S
C569 O568 1.255 1_554 S
O570 Eu552 2.373 . S
O570 C583 1.258 . S
O571 Eu553 2.392 . S
O571 C583 1.242 1_556 S
O572 Eu553 2.418 1_554 S
O572 C554 1.244 . S
O573 Eu552 2.488 . S
O573 C561 1.249 . S
O574 Eu552 2.471 . S
O574 C561 1.244 . S
O575 Eu552 2.349 . S
O575 C554 1.265 . S
C576 C577 1.379 . S
C576 C580 1.373 . S
C576 C582 1.505 . S
C577 C576 1.379 . S
C577 C579 1.369 . S
C577 H588 0.930 . S
C578 C580 1.383 . S
C578 C581 1.382 . S
C578 H589 0.930 . S
C579 C577 1.369 . S
C579 C581 1.392 . S
C579 H590 0.930 . S
C580 C576 1.373 . S
C580 C578 1.383 . S
C580 H591 0.931 . S
C581 C578 1.382 . S
C581 C579 1.392 . S
C582 Eu553 2.828 . S
C582 O566 1.249 . S
C582 O567 1.244 . S
C582 C576 1.505 . S
C583 O570 1.258 . S
C583 O571 1.242 1_554 S
H584 C556 0.930 . S
H585 C557 0.894 1_565 S
H586 C558 0.930 . S
H587 C559 0.931 1_565 S
H588 C577 0.930 . S
H589 C578 0.930 . S
H590 C579 0.930 . S
H591 C580 0.931 . S
Eu592 C601 2.828 . S
Eu592 O603 2.392 . S
Eu592 O605 2.418 . S
Eu592 O610 2.373 . S
Eu592 O613 2.488 . S
Eu592 O614 2.471 . S
Eu592 O615 2.349 . S
Eu593 O602 2.373 . S
Eu593 O606 2.488 . S
Eu593 O607 2.471 . S
Eu593 O608 2.349 . S
Eu593 O611 2.392 . S
Eu593 O612 2.418 . S
Eu593 C622 2.828 . S
C594 O612 1.244 . S
C594 O615 1.265 . S
C595 C596 1.379 . S
C595 C599 1.373 . S
C595 C601 1.505 . S
C596 C595 1.379 . S
C596 C598 1.369 . S
C596 H624 0.930 . S
C597 C599 1.383 . S
C597 C600 1.382 . S
C597 H625 0.930 . S
C598 C596 1.369 . S
C598 C600 1.392 . S
C598 H626 0.930 . S
C599 C595 1.373 . S
C599 C597 1.383 . S
C599 H627 0.931 . S
C600 C597 1.382 . S
C600 C598 1.392 . S
C601 Eu592 2.828 . S
C601 C595 1.505 . S
C601 O613 1.249 . S
C601 O614 1.244 . S
O602 Eu593 2.373 . S
O602 C604 1.258 . S
O603 Eu592 2.392 . S
O603 C604 1.242 . S
C604 O602 1.258 . S
C604 O603 1.242 . S
O605 Eu592 2.418 . S
O605 C609 1.244 . S
O606 Eu593 2.488 . S
O606 C622 1.249 . S
O607 Eu593 2.471 . S
O607 C622 1.244 . S
O608 Eu593 2.349 . S
O608 C609 1.265 . S
C609 O605 1.244 . S
C609 O608 1.265 . S
O610 Eu592 2.373 . S
O610 C623 1.258 . S
O611 Eu593 2.392 . S
O611 C623 1.242 . S
O612 Eu593 2.418 . S
O612 C594 1.244 . S
O613 Eu592 2.488 . S
O613 C601 1.249 . S
O614 Eu592 2.471 . S
O614 C601 1.244 . S
O615 Eu592 2.349 . S
O615 C594 1.265 . S
C616 C617 1.379 . S
C616 C620 1.373 . S
C616 C622 1.505 . S
C617 C616 1.379 . S
C617 C619 1.369 . S
C617 H628 0.930 . S
C618 C620 1.383 . S
C618 C621 1.382 . S
C618 H629 0.930 . S
C619 C617 1.369 . S
C619 C621 1.392 . S
C619 H630 0.930 . S
C620 C616 1.373 . S
C620 C618 1.383 . S
C620 H631 0.931 . S
C621 C618 1.382 . S
C621 C619 1.392 . S
C622 Eu593 2.828 . S
C622 O606 1.249 . S
C622 O607 1.244 . S
C622 C616 1.505 . S
C623 O610 1.258 . S
C623 O611 1.242 . S
H624 C596 0.930 . S
H625 C597 0.930 . S
H626 C598 0.930 . S
H627 C599 0.931 . S
H628 C617 0.930 . S
H629 C618 0.930 . S
H630 C619 0.930 . S
H631 C620 0.931 . S
Eu632 C641 2.828 . S
Eu632 O643 2.392 . S
Eu632 O645 2.418 . S
Eu632 O650 2.373 1_554 S
Eu632 O653 2.488 . S
Eu632 O654 2.471 . S
Eu632 O655 2.349 . S
Eu633 O642 2.373 1_556 S
Eu633 O646 2.488 1_556 S
Eu633 O647 2.471 1_556 S
Eu633 O648 2.349 1_556 S
Eu633 O651 2.392 . S
Eu633 O652 2.418 1_556 S
Eu633 C662 2.828 1_556 S
C634 O652 1.243 . S
C634 O655 1.265 . S
C635 C636 1.379 . S
C635 C639 1.373 . S
C635 C641 1.505 1_556 S
C636 C635 1.379 . S
C636 C638 1.369 . S
C636 H664 0.930 . S
C637 C639 1.383 . S
C637 C640 1.382 . S
C637 H665 0.930 . S
C638 C636 1.369 . S
C638 C640 1.392 . S
C638 H666 0.930 . S
C639 C635 1.373 . S
C639 C637 1.383 . S
C639 H667 0.931 1_556 S
C640 C637 1.382 . S
C640 C638 1.392 . S
C641 Eu632 2.828 . S
C641 C635 1.505 1_554 S
C641 O653 1.249 . S
C641 O654 1.244 . S
O642 Eu633 2.373 1_554 S
O642 C644 1.258 . S
O643 Eu632 2.392 . S
O643 C644 1.242 . S
C644 O642 1.258 . S
C644 O643 1.242 . S
O645 Eu632 2.418 . S
O645 C649 1.244 . S
O646 Eu633 2.488 1_554 S
O646 C662 1.249 . S
O647 Eu633 2.471 1_554 S
O647 C662 1.244 . S
O648 Eu633 2.349 1_554 S
O648 C649 1.265 . S
C649 O645 1.244 . S
C649 O648 1.265 . S
O650 Eu632 2.373 1_556 S
O650 C663 1.258 . S
O651 Eu633 2.392 . S
O651 C663 1.242 . S
O652 Eu633 2.418 1_554 S
O652 C634 1.243 . S
O653 Eu632 2.488 . S
O653 C641 1.249 . S
O654 Eu632 2.471 . S
O654 C641 1.244 . S
O655 Eu632 2.349 . S
O655 C634 1.265 . S
C656 C657 1.379 . S
C656 C660 1.373 . S
C656 C662 1.505 . S
C657 C656 1.379 . S
C657 C659 1.369 . S
C657 H668 0.930 . S
C658 C660 1.383 . S
C658 C661 1.382 . S
C658 H669 0.930 . S
C659 C657 1.369 . S
C659 C661 1.392 . S
C659 H670 0.930 . S
C660 C656 1.373 . S
C660 C658 1.383 . S
C660 H671 0.931 . S
C661 C658 1.382 . S
C661 C659 1.392 . S
C662 Eu633 2.828 1_554 S
C662 O646 1.249 . S
C662 O647 1.244 . S
C662 C656 1.505 . S
C663 O650 1.258 . S
C663 O651 1.242 . S
H664 C636 0.930 . S
H665 C637 0.930 . S
H666 C638 0.930 . S
H667 C639 0.931 1_554 S
H668 C657 0.930 . S
H669 C658 0.930 . S
H670 C659 0.930 . S
H671 C660 0.931 . S
Eu672 C681 2.828 . S
Eu672 O683 2.392 . S
Eu672 O685 2.418 . S
Eu672 O690 2.373 . S
Eu672 O693 2.488 . S
Eu672 O694 2.471 . S
Eu672 O695 2.349 . S
Eu673 O682 2.373 . S
Eu673 O686 2.488 . S
Eu673 O687 2.471 . S
Eu673 O688 2.349 . S
Eu673 O691 2.392 . S
Eu673 O692 2.418 . S
Eu673 C702 2.828 . S
C674 O692 1.244 . S
C674 O695 1.265 . S
C675 C676 1.379 . S
C675 C679 1.373 . S
C675 C681 1.505 . S
C676 C675 1.379 . S
C676 C678 1.369 . S
C676 H704 0.930 . S
C677 C679 1.383 . S
C677 C680 1.382 . S
C677 H705 0.930 . S
C678 C676 1.369 . S
C678 C680 1.392 . S
C678 H706 0.930 . S
C679 C675 1.373 . S
C679 C677 1.383 . S
C679 H707 0.931 . S
C680 C677 1.382 . S
C680 C678 1.392 . S
C681 Eu672 2.828 . S
C681 C675 1.505 . S
C681 O693 1.249 . S
C681 O694 1.244 . S
O682 Eu673 2.373 . S
O682 C684 1.258 . S
O683 Eu672 2.392 . S
O683 C684 1.242 . S
C684 O682 1.258 . S
C684 O683 1.242 . S
O685 Eu672 2.418 . S
O685 C689 1.244 . S
O686 Eu673 2.488 . S
O686 C702 1.249 . S
O687 Eu673 2.471 . S
O687 C702 1.244 . S
O688 Eu673 2.349 . S
O688 C689 1.265 . S
C689 O685 1.244 . S
C689 O688 1.265 . S
O690 Eu672 2.373 . S
O690 C703 1.258 . S
O691 Eu673 2.392 . S
O691 C703 1.242 . S
O692 Eu673 2.418 . S
O692 C674 1.244 . S
O693 Eu672 2.488 . S
O693 C681 1.249 . S
O694 Eu672 2.471 . S
O694 C681 1.244 . S
O695 Eu672 2.349 . S
O695 C674 1.265 . S
C696 C697 1.379 . S
C696 C700 1.373 . S
C696 C702 1.505 . S
C697 C696 1.379 . S
C697 C699 1.369 . S
C697 H708 0.930 . S
C698 C700 1.383 . S
C698 C701 1.382 . S
C698 H709 0.930 . S
C699 C697 1.369 . S
C699 C701 1.392 . S
C699 H710 0.930 . S
C700 C696 1.373 . S
C700 C698 1.383 . S
C700 H711 0.931 . S
C701 C698 1.382 . S
C701 C699 1.392 . S
C702 Eu673 2.828 . S
C702 O686 1.249 . S
C702 O687 1.244 . S
C702 C696 1.505 . S
C703 O690 1.258 . S
C703 O691 1.242 . S
H704 C676 0.930 . S
H705 C677 0.930 . S
H706 C678 0.930 . S
H707 C679 0.931 . S
H708 C697 0.930 . S
H709 C698 0.930 . S
H710 C699 0.930 . S
H711 C700 0.931 . S
Eu712 C721 2.828 . S
Eu712 O723 2.392 . S
Eu712 O725 2.418 . S
Eu712 O730 2.373 . S
Eu712 O733 2.488 . S
Eu712 O734 2.471 . S
Eu712 O735 2.349 . S
Eu713 O722 2.373 . S
Eu713 O726 2.488 . S
Eu713 O727 2.471 . S
Eu713 O728 2.349 . S
Eu713 O731 2.392 1_455 S
Eu713 O732 2.418 . S
Eu713 C742 2.828 . S
C714 O732 1.244 . S
C714 O735 1.265 . S
C715 C716 1.379 1_455 S
C715 C719 1.373 . S
C715 C721 1.505 . S
C716 C715 1.379 1_655 S
C716 C718 1.369 . S
C716 H744 0.930 . S
C717 C719 1.383 1_655 S
C717 C720 1.382 . S
C717 H745 0.930 . S
C718 C716 1.369 . S
C718 C720 1.392 . S
C718 H746 0.930 . S
C719 C715 1.373 . S
C719 C717 1.383 1_455 S
C719 H747 0.931 . S
C720 C717 1.382 . S
C720 C718 1.392 . S
C721 Eu712 2.828 . S
C721 C715 1.505 . S
C721 O733 1.249 . S
C721 O734 1.244 . S
O722 Eu713 2.373 . S
O722 C724 1.258 . S
O723 Eu712 2.392 . S
O723 C724 1.242 . S
C724 O722 1.258 . S
C724 O723 1.242 . S
O725 Eu712 2.418 . S
O725 C729 1.244 . S
O726 Eu713 2.488 . S
O726 C742 1.249 . S
O727 Eu713 2.471 . S
O727 C742 1.244 . S
O728 Eu713 2.349 . S
O728 C729 1.265 . S
C729 O725 1.244 . S
C729 O728 1.265 . S
O730 Eu712 2.373 . S
O730 C743 1.258 1_455 S
O731 Eu713 2.392 1_655 S
O731 C743 1.242 . S
O732 Eu713 2.418 . S
O732 C714 1.244 . S
O733 Eu712 2.488 . S
O733 C721 1.249 . S
O734 Eu712 2.471 . S
O734 C721 1.244 . S
O735 Eu712 2.349 . S
O735 C714 1.265 . S
C736 C737 1.379 . S
C736 C740 1.373 . S
C736 C742 1.505 . S
C737 C736 1.379 . S
C737 C739 1.369 . S
C737 H748 0.930 . S
C738 C740 1.383 . S
C738 C741 1.382 . S
C738 H749 0.930 . S
C739 C737 1.369 . S
C739 C741 1.392 . S
C739 H750 0.930 . S
C740 C736 1.373 . S
C740 C738 1.383 . S
C740 H751 0.931 . S
C741 C738 1.382 . S
C741 C739 1.392 . S
C742 Eu713 2.828 . S
C742 O726 1.249 . S
C742 O727 1.244 . S
C742 C736 1.505 . S
C743 O730 1.258 1_655 S
C743 O731 1.242 . S
H744 C716 0.930 . S
H745 C717 0.930 . S
H746 C718 0.930 . S
H747 C719 0.931 . S
H748 C737 0.930 . S
H749 C738 0.930 . S
H750 C739 0.930 . S
H751 C740 0.931 . S
Eu752 C761 2.828 . S
Eu752 O763 2.392 . S
Eu752 O765 2.418 . S
Eu752 O770 2.373 . S
Eu752 O773 2.488 . S
Eu752 O774 2.471 . S
Eu752 O775 2.349 . S
Eu753 O762 2.373 . S
Eu753 O766 2.488 . S
Eu753 O767 2.471 . S
Eu753 O768 2.349 . S
Eu753 O771 2.392 . S
Eu753 O772 2.418 . S
Eu753 C782 2.828 . S
C754 O772 1.244 . S
C754 O775 1.265 . S
C755 C756 1.379 . S
C755 C759 1.373 . S
C755 C761 1.505 . S
C756 C755 1.379 . S
C756 C758 1.369 . S
C756 H784 0.930 . S
C757 C759 1.383 . S
C757 C760 1.382 . S
C757 H785 0.930 . S
C758 C756 1.369 . S
C758 C760 1.392 . S
C758 H786 0.930 . S
C759 C755 1.373 . S
C759 C757 1.383 . S
C759 H787 0.931 . S
C760 C757 1.382 . S
C760 C758 1.392 . S
C761 Eu752 2.828 . S
C761 C755 1.505 . S
C761 O773 1.249 . S
C761 O774 1.244 . S
O762 Eu753 2.373 . S
O762 C764 1.258 . S
O763 Eu752 2.392 . S
O763 C764 1.242 . S
C764 O762 1.258 . S
C764 O763 1.242 . S
O765 Eu752 2.418 . S
O765 C769 1.244 . S
O766 Eu753 2.488 . S
O766 C782 1.249 . S
O767 Eu753 2.471 . S
O767 C782 1.244 . S
O768 Eu753 2.349 . S
O768 C769 1.265 . S
C769 O765 1.244 . S
C769 O768 1.265 . S
O770 Eu752 2.373 . S
O770 C783 1.258 . S
O771 Eu753 2.392 . S
O771 C783 1.242 . S
O772 Eu753 2.418 . S
O772 C754 1.244 . S
O773 Eu752 2.488 . S
O773 C761 1.249 . S
O774 Eu752 2.471 . S
O774 C761 1.244 . S
O775 Eu752 2.349 . S
O775 C754 1.265 . S
C776 C777 1.379 . S
C776 C780 1.373 . S
C776 C782 1.505 . S
C777 C776 1.379 . S
C777 C779 1.369 . S
C777 H788 0.930 . S
C778 C780 1.383 . S
C778 C781 1.382 . S
C778 H789 0.930 . S
C779 C777 1.369 . S
C779 C781 1.392 . S
C779 H790 0.930 . S
C780 C776 1.373 . S
C780 C778 1.383 . S
C780 H791 0.931 . S
C781 C778 1.382 . S
C781 C779 1.392 . S
C782 Eu753 2.828 . S
C782 O766 1.249 . S
C782 O767 1.244 . S
C782 C776 1.505 . S
C783 O770 1.258 . S
C783 O771 1.242 . S
H784 C756 0.930 . S
H785 C757 0.930 . S
H786 C758 0.930 . S
H787 C759 0.931 . S
H788 C777 0.930 . S
H789 C778 0.930 . S
H790 C779 0.930 . S
H791 C780 0.931 . S
Eu792 C801 2.828 . S
Eu792 O803 2.392 . S
Eu792 O805 2.418 . S
Eu792 O810 2.373 . S
Eu792 O813 2.488 . S
Eu792 O814 2.471 . S
Eu792 O815 2.349 . S
Eu793 O802 2.373 . S
Eu793 O806 2.488 . S
Eu793 O807 2.471 . S
Eu793 O808 2.349 . S
Eu793 O811 2.392 . S
Eu793 O812 2.418 . S
Eu793 C822 2.828 . S
C794 O812 1.244 . S
C794 O815 1.265 . S
C795 C796 1.379 . S
C795 C799 1.373 . S
C795 C801 1.505 . S
C796 C795 1.379 . S
C796 C798 1.369 . S
C796 H824 0.930 . S
C797 C799 1.383 . S
C797 C800 1.382 . S
C797 H825 0.930 . S
C798 C796 1.369 . S
C798 C800 1.392 . S
C798 H826 0.930 . S
C799 C795 1.373 . S
C799 C797 1.383 . S
C799 H827 0.931 . S
C800 C797 1.382 . S
C800 C798 1.392 . S
C801 Eu792 2.828 . S
C801 C795 1.505 . S
C801 O813 1.249 . S
C801 O814 1.244 . S
O802 Eu793 2.373 . S
O802 C804 1.258 . S
O803 Eu792 2.392 . S
O803 C804 1.242 . S
C804 O802 1.258 . S
C804 O803 1.242 . S
O805 Eu792 2.418 . S
O805 C809 1.244 . S
O806 Eu793 2.488 . S
O806 C822 1.249 . S
O807 Eu793 2.471 . S
O807 C822 1.244 . S
O808 Eu793 2.349 . S
O808 C809 1.265 . S
C809 O805 1.244 . S
C809 O808 1.265 . S
O810 Eu792 2.373 . S
O810 C823 1.258 . S
O811 Eu793 2.392 . S
O811 C823 1.242 . S
O812 Eu793 2.418 . S
O812 C794 1.244 . S
O813 Eu792 2.488 . S
O813 C801 1.249 . S
O814 Eu792 2.471 . S
O814 C801 1.244 . S
O815 Eu792 2.349 . S
O815 C794 1.265 . S
C816 C817 1.379 . S
C816 C820 1.373 . S
C816 C822 1.505 . S
C817 C816 1.379 . S
C817 C819 1.369 . S
C817 H828 0.930 . S
C818 C820 1.383 . S
C818 C821 1.382 . S
C818 H829 0.930 . S
C819 C817 1.369 . S
C819 C821 1.392 . S
C819 H830 0.930 . S
C820 C816 1.373 . S
C820 C818 1.383 . S
C820 H831 0.931 . S
C821 C818 1.382 . S
C821 C819 1.392 . S
C822 Eu793 2.828 . S
C822 O806 1.249 . S
C822 O807 1.244 . S
C822 C816 1.505 . S
C823 O810 1.258 . S
C823 O811 1.242 . S
H824 C796 0.930 . S
H825 C797 0.930 . S
H826 C798 0.930 . S
H827 C799 0.931 . S
H828 C817 0.930 . S
H829 C818 0.930 . S
H830 C819 0.930 . S
H831 C820 0.931 . S
Eu832 C841 2.828 . S
Eu832 O843 2.392 . S
Eu832 O845 2.418 . S
Eu832 O850 2.373 . S
Eu832 O853 2.488 . S
Eu832 O854 2.471 . S
Eu832 O855 2.349 . S
Eu833 O842 2.373 . S
Eu833 O846 2.488 . S
Eu833 O847 2.471 . S
Eu833 O848 2.349 . S
Eu833 O851 2.392 . S
Eu833 O852 2.418 . S
Eu833 C862 2.828 . S
C834 O852 1.244 . S
C834 O855 1.265 . S
C835 C836 1.379 . S
C835 C839 1.373 . S
C835 C841 1.505 . S
C836 C835 1.379 . S
C836 C838 1.369 . S
C836 H864 0.930 . S
C837 C839 1.383 . S
C837 C840 1.382 . S
C837 H865 0.930 . S
C838 C836 1.369 . S
C838 C840 1.392 . S
C838 H866 0.930 . S
C839 C835 1.373 . S
C839 C837 1.383 . S
C839 H867 0.931 . S
C840 C837 1.382 . S
C840 C838 1.392 . S
C841 Eu832 2.828 . S
C841 C835 1.505 . S
C841 O853 1.249 . S
C841 O854 1.244 . S
O842 Eu833 2.373 . S
O842 C844 1.258 . S
O843 Eu832 2.392 . S
O843 C844 1.242 . S
C844 O842 1.258 . S
C844 O843 1.242 . S
O845 Eu832 2.418 . S
O845 C849 1.244 . S
O846 Eu833 2.488 . S
O846 C862 1.249 . S
O847 Eu833 2.471 . S
O847 C862 1.244 . S
O848 Eu833 2.349 . S
O848 C849 1.265 . S
C849 O845 1.244 . S
C849 O848 1.265 . S
O850 Eu832 2.373 . S
O850 C863 1.258 . S
O851 Eu833 2.392 . S
O851 C863 1.242 . S
O852 Eu833 2.418 . S
O852 C834 1.244 . S
O853 Eu832 2.488 . S
O853 C841 1.249 . S
O854 Eu832 2.471 . S
O854 C841 1.244 . S
O855 Eu832 2.349 . S
O855 C834 1.265 . S
C856 C857 1.379 . S
C856 C860 1.373 . S
C856 C862 1.505 . S
C857 C856 1.379 . S
C857 C859 1.369 . S
C857 H868 0.930 . S
C858 C860 1.383 . S
C858 C861 1.382 . S
C858 H869 0.930 . S
C859 C857 1.369 . S
C859 C861 1.392 . S
C859 H870 0.930 . S
C860 C856 1.373 . S
C860 C858 1.383 . S
C860 H871 0.931 . S
C861 C858 1.382 . S
C861 C859 1.392 . S
C862 Eu833 2.828 . S
C862 O846 1.249 . S
C862 O847 1.244 . S
C862 C856 1.505 . S
C863 O850 1.258 . S
C863 O851 1.242 . S
H864 C836 0.930 . S
H865 C837 0.930 . S
H866 C838 0.930 . S
H867 C839 0.931 . S
H868 C857 0.930 . S
H869 C858 0.930 . S
H870 C859 0.930 . S
H871 C860 0.931 . S
Eu872 C881 2.828 . S
Eu872 O883 2.392 . S
Eu872 O885 2.418 . S
Eu872 O890 2.373 . S
Eu872 O893 2.488 . S
Eu872 O894 2.471 . S
Eu872 O895 2.349 . S
Eu873 O882 2.373 . S
Eu873 O886 2.488 . S
Eu873 O887 2.471 . S
Eu873 O888 2.349 . S
Eu873 O891 2.392 . S
Eu873 O892 2.418 . S
Eu873 C902 2.828 . S
C874 O892 1.244 . S
C874 O895 1.265 . S
C875 C876 1.379 . S
C875 C879 1.373 . S
C875 C881 1.505 . S
C876 C875 1.379 . S
C876 C878 1.369 . S
C876 H904 0.930 . S
C877 C879 1.383 . S
C877 C880 1.382 . S
C877 H905 0.930 . S
C878 C876 1.369 . S
C878 C880 1.392 . S
C878 H906 0.930 . S
C879 C875 1.373 . S
C879 C877 1.383 . S
C879 H907 0.931 . S
C880 C877 1.382 . S
C880 C878 1.392 . S
C881 Eu872 2.828 . S
C881 C875 1.505 . S
C881 O893 1.249 . S
C881 O894 1.244 . S
O882 Eu873 2.373 . S
O882 C884 1.258 . S
O883 Eu872 2.392 . S
O883 C884 1.242 . S
C884 O882 1.258 . S
C884 O883 1.242 . S
O885 Eu872 2.418 . S
O885 C889 1.244 . S
O886 Eu873 2.488 . S
O886 C902 1.249 . S
O887 Eu873 2.471 . S
O887 C902 1.244 . S
O888 Eu873 2.349 . S
O888 C889 1.265 . S
C889 O885 1.244 . S
C889 O888 1.265 . S
O890 Eu872 2.373 . S
O890 C903 1.258 . S
O891 Eu873 2.392 . S
O891 C903 1.242 . S
O892 Eu873 2.418 . S
O892 C874 1.244 . S
O893 Eu872 2.488 . S
O893 C881 1.249 . S
O894 Eu872 2.471 . S
O894 C881 1.244 . S
O895 Eu872 2.349 . S
O895 C874 1.265 . S
C896 C897 1.379 . S
C896 C900 1.373 . S
C896 C902 1.505 . S
C897 C896 1.379 . S
C897 C899 1.369 . S
C897 H908 0.930 . S
C898 C900 1.383 . S
C898 C901 1.382 . S
C898 H909 0.930 . S
C899 C897 1.369 . S
C899 C901 1.392 . S
C899 H910 0.930 . S
C900 C896 1.373 . S
C900 C898 1.383 . S
C900 H911 0.931 . S
C901 C898 1.382 . S
C901 C899 1.392 . S
C902 Eu873 2.828 . S
C902 O886 1.249 . S
C902 O887 1.244 . S
C902 C896 1.505 . S
C903 O890 1.258 . S
C903 O891 1.242 . S
H904 C876 0.930 . S
H905 C877 0.930 . S
H906 C878 0.930 . S
H907 C879 0.931 . S
H908 C897 0.930 . S
H909 C898 0.930 . S
H910 C899 0.930 . S
H911 C900 0.931 . S
Eu912 C921 2.828 . S
Eu912 O923 2.392 . S
Eu912 O925 2.418 1_554 S
Eu912 O930 2.373 . S
Eu912 O933 2.488 1_554 S
Eu912 O934 2.471 . S
Eu912 O935 2.349 . S
Eu913 O922 2.379 . S
Eu913 O926 2.474 1_455 S
Eu913 O927 2.456 1_455 S
Eu913 O928 2.357 . S
Eu913 O931 2.402 . S
Eu913 O932 2.427 . S
Eu913 C942 2.812 1_455 S
C914 O932 1.244 . S
C914 O935 1.265 . S
C915 C916 1.379 . S
C915 C919 1.373 1_554 S
C915 C921 1.505 . S
C916 C915 1.379 . S
C916 C918 1.369 . S
C916 H944 0.930 . S
C917 C919 1.383 . S
C917 C920 1.382 1_556 S
C917 H945 0.930 . S
C918 C916 1.369 . S
C918 C920 1.392 . S
C918 H946 0.930 . S
C919 C915 1.373 1_556 S
C919 C917 1.383 . S
C919 H947 0.931 . S
C920 C917 1.382 1_554 S
C920 C918 1.392 . S
C921 Eu912 2.828 . S
C921 C915 1.505 . S
C921 O933 1.249 1_554 S
C921 O934 1.244 . S
O922 Eu913 2.379 . S
O922 C924 1.258 . S
O923 Eu912 2.392 . S
O923 C924 1.242 . S
C924 O922 1.258 . S
C924 O923 1.242 . S
O925 Eu912 2.418 1_556 S
O925 C929 1.244 . S
O926 Eu913 2.474 1_655 S
O926 C942 1.249 . S
O927 Eu913 2.456 1_655 S
O927 C942 1.244 . S
O928 Eu913 2.357 . S
O928 C929 1.265 1_554 S
C929 O925 1.244 . S
C929 O928 1.265 1_556 S
O930 Eu912 2.373 . S
O930 C943 1.258 . S
O931 Eu913 2.402 . S
O931 C943 1.242 . S
O932 Eu913 2.427 . S
O932 C914 1.244 . S
O933 Eu912 2.488 1_556 S
O933 C921 1.249 1_556 S
O934 Eu912 2.471 . S
O934 C921 1.244 . S
O935 Eu912 2.349 . S
O935 C914 1.265 . S
C936 C937 1.379 . S
C936 C940 1.373 . S
C936 C942 1.505 . S
C937 C936 1.379 . S
C937 C939 1.369 . S
C937 H948 0.930 . S
C938 C940 1.383 . S
C938 C941 1.382 . S
C938 H949 0.930 . S
C939 C937 1.369 . S
C939 C941 1.392 . S
C939 H950 0.930 . S
C940 C936 1.373 . S
C940 C938 1.383 . S
C940 H951 0.931 . S
C941 C938 1.382 . S
C941 C939 1.392 . S
C942 Eu913 2.812 1_655 S
C942 O926 1.249 . S
C942 O927 1.244 . S
C942 C936 1.505 . S
C943 O930 1.258 . S
C943 O931 1.242 . S
H944 C916 0.930 . S
H945 C917 0.930 . S
H946 C918 0.930 . S
H947 C919 0.931 . S
H948 C937 0.930 . S
H949 C938 0.930 . S
H950 C939 0.930 . S
H951 C940 0.931 . S
H952 C960 0.950 . S
H953 C965 0.950 1_655 S
H954 C962 0.950 . S
H955 C964 0.950 . S
H956 C966 0.950 . S
H957 C968 0.950 . S
H958 C970 0.950 . S
H959 C971 0.950 . S
C960 H952 0.950 . S
C960 C961 1.386 . S
C960 C962 1.391 . S
C961 C960 1.386 . S
C961 C965 1.393 . S
C962 H954 0.950 . S
C962 C960 1.391 . S
C962 C963 1.400 . S
C963 C962 1.400 . S
C963 C964 1.398 . S
C963 C969 1.491 . S
C964 H955 0.950 . S
C964 C963 1.398 . S
C964 C965 1.391 . S
C965 H953 0.950 1_455 S
C965 C961 1.393 . S
C965 C964 1.391 . S
C966 H956 0.950 . S
C966 C967 1.386 1_554 S
C966 C968 1.391 1_554 S
C967 C966 1.386 1_556 S
C967 C971 1.393 . S
C968 H957 0.950 . S
C968 C966 1.391 1_556 S
C968 C969 1.400 . S
C969 C963 1.491 . S
C969 C968 1.400 . S
C969 C970 1.398 . S
C970 H958 0.950 . S
C970 C969 1.398 . S
C970 C971 1.391 . S
C971 H959 0.950 . S
C971 C967 1.393 . S
C971 C970 1.391 . S
H972 C980 0.950 . S
H973 C985 0.950 . S
H974 C982 0.950 . S
H975 C984 0.950 . S
H976 C986 0.950 . S
H977 C988 0.950 . S
H978 C990 0.950 . S
H979 C991 0.950 . S
C980 H972 0.950 . S
C980 C981 1.386 . S
C980 C982 1.391 . S
C981 C980 1.386 . S
C981 C985 1.393 . S
C982 H974 0.950 . S
C982 C980 1.391 . S
C982 C983 1.400 . S
C983 C982 1.400 . S
C983 C984 1.398 . S
C983 C989 1.491 . S
C984 H975 0.950 . S
C984 C983 1.398 . S
C984 C985 1.391 . S
C985 H973 0.950 . S
C985 C981 1.393 . S
C985 C984 1.391 . S
C986 H976 0.950 . S
C986 C987 1.386 . S
C986 C988 1.391 . S
C987 C986 1.386 . S
C987 C991 1.393 . S
C988 H977 0.950 . S
C988 C986 1.391 . S
C988 C989 1.400 . S
C989 C983 1.491 . S
C989 C988 1.400 . S
C989 C990 1.398 . S
C990 H978 0.950 . S
C990 C989 1.398 . S
C990 C991 1.391 . S
C991 H979 0.950 . S
C991 C987 1.393 . S
C991 C990 1.391 . S
H992 C1000 0.950 . S
H993 C1005 0.950 . S
H994 C1002 0.950 . S
H995 C1004 0.950 . S
H996 C1006 0.950 . S
H997 C1008 0.950 . S
H998 C1010 0.950 . S
H999 C1011 0.950 . S
C1000 H992 0.950 . S
C1000 C1001 1.386 . S
C1000 C1002 1.391 . S
C1001 C1000 1.386 . S
C1001 C1005 1.393 . S
C1002 H994 0.950 . S
C1002 C1000 1.391 . S
C1002 C1003 1.400 . S
C1003 C1002 1.400 . S
C1003 C1004 1.398 . S
C1003 C1009 1.491 . S
C1004 H995 0.950 . S
C1004 C1003 1.398 . S
C1004 C1005 1.391 . S
C1005 H993 0.950 . S
C1005 C1001 1.393 . S
C1005 C1004 1.391 . S
C1006 H996 0.950 . S
C1006 C1007 1.386 . S
C1006 C1008 1.391 . S
C1007 C1006 1.386 . S
C1007 C1011 1.393 . S
C1008 H997 0.950 . S
C1008 C1006 1.391 . S
C1008 C1009 1.400 . S
C1009 C1003 1.491 . S
C1009 C1008 1.400 . S
C1009 C1010 1.398 . S
C1010 H998 0.950 . S
C1010 C1009 1.398 . S
C1010 C1011 1.391 . S
C1011 H999 0.950 . S
C1011 C1007 1.393 . S
C1011 C1010 1.391 . S
H1012 C1020 0.950 . S
H1013 C1025 0.950 . S
H1014 C1022 0.950 . S
H1015 C1024 0.950 . S
H1016 C1026 0.950 . S
H1017 C1028 0.950 . S
H1018 C1030 0.950 . S
H1019 C1031 0.950 . S
C1020 H1012 0.950 . S
C1020 C1021 1.386 . S
C1020 C1022 1.391 . S
C1021 C1020 1.386 . S
C1021 C1025 1.393 . S
C1022 H1014 0.950 . S
C1022 C1020 1.391 . S
C1022 C1023 1.400 . S
C1023 C1022 1.400 . S
C1023 C1024 1.398 . S
C1023 C1029 1.491 . S
C1024 H1015 0.950 . S
C1024 C1023 1.398 . S
C1024 C1025 1.391 . S
C1025 H1013 0.950 . S
C1025 C1021 1.393 . S
C1025 C1024 1.391 . S
C1026 H1016 0.950 . S
C1026 C1027 1.386 . S
C1026 C1028 1.391 . S
C1027 C1026 1.386 . S
C1027 C1031 1.393 . S
C1028 H1017 0.950 . S
C1028 C1026 1.391 . S
C1028 C1029 1.400 . S
C1029 C1023 1.491 . S
C1029 C1028 1.400 . S
C1029 C1030 1.398 . S
C1030 H1018 0.950 . S
C1030 C1029 1.398 . S
C1030 C1031 1.391 . S
C1031 H1019 0.950 . S
C1031 C1027 1.393 . S
C1031 C1030 1.391 . S
H1032 C1040 0.950 . S
H1033 C1045 0.950 1_655 S
H1034 C1042 0.950 . S
H1035 C1044 0.950 . S
H1036 C1046 0.950 . S
H1037 C1048 0.950 . S
H1038 C1050 0.950 . S
H1039 C1051 0.950 . S
C1040 H1032 0.950 . S
C1040 C1041 1.386 . S
C1040 C1042 1.391 . S
C1041 C1040 1.386 . S
C1041 C1045 1.393 . S
C1042 H1034 0.950 . S
C1042 C1040 1.391 . S
C1042 C1043 1.400 . S
C1043 C1042 1.400 . S
C1043 C1044 1.398 . S
C1043 C1049 1.491 . S
C1044 H1035 0.950 . S
C1044 C1043 1.398 . S
C1044 C1045 1.391 . S
C1045 H1033 0.950 1_455 S
C1045 C1041 1.393 . S
C1045 C1044 1.391 . S
C1046 H1036 0.950 . S
C1046 C1047 1.386 . S
C1046 C1048 1.391 . S
C1047 C1046 1.386 . S
C1047 C1051 1.393 . S
C1048 H1037 0.950 . S
C1048 C1046 1.391 . S
C1048 C1049 1.400 . S
C1049 C1043 1.491 . S
C1049 C1048 1.400 . S
C1049 C1050 1.398 . S
C1050 H1038 0.950 . S
C1050 C1049 1.398 . S
C1050 C1051 1.391 . S
C1051 H1039 0.950 . S
C1051 C1047 1.393 . S
C1051 C1050 1.391 . S
H1052 C1060 0.950 . S
H1053 C1065 0.950 . S
H1054 C1062 0.950 . S
H1055 C1064 0.950 . S
H1056 C1066 0.950 . S
H1057 C1068 0.950 . S
H1058 C1070 0.950 . S
H1059 C1071 0.950 . S
C1060 H1052 0.950 . S
C1060 C1061 1.386 . S
C1060 C1062 1.391 . S
C1061 C1060 1.386 . S
C1061 C1065 1.393 . S
C1062 H1054 0.950 . S
C1062 C1060 1.391 . S
C1062 C1063 1.400 . S
C1063 C1062 1.400 . S
C1063 C1064 1.398 . S
C1063 C1069 1.491 . S
C1064 H1055 0.950 . S
C1064 C1063 1.398 . S
C1064 C1065 1.391 . S
C1065 H1053 0.950 . S
C1065 C1061 1.393 . S
C1065 C1064 1.391 . S
C1066 H1056 0.950 . S
C1066 C1067 1.386 . S
C1066 C1068 1.391 . S
C1067 C1066 1.386 . S
C1067 C1071 1.393 . S
C1068 H1057 0.950 . S
C1068 C1066 1.391 . S
C1068 C1069 1.400 . S
C1069 C1063 1.491 . S
C1069 C1068 1.400 . S
C1069 C1070 1.398 . S
C1070 H1058 0.950 . S
C1070 C1069 1.398 . S
C1070 C1071 1.391 . S
C1071 H1059 0.950 . S
C1071 C1067 1.393 . S
C1071 C1070 1.391 . S
H1072 C1080 0.950 . S
H1073 C1085 0.950 . S
H1074 C1082 0.950 . S
H1075 C1084 0.950 . S
H1076 C1086 0.950 . S
H1077 C1088 0.950 . S
H1078 C1090 0.950 . S
H1079 C1091 0.950 . S
C1080 H1072 0.950 . S
C1080 C1081 1.386 . S
C1080 C1082 1.391 . S
C1081 C1080 1.386 . S
C1081 C1085 1.393 . S
C1082 H1074 0.950 . S
C1082 C1080 1.391 . S
C1082 C1083 1.400 . S
C1083 C1082 1.400 . S
C1083 C1084 1.398 . S
C1083 C1089 1.491 . S
C1084 H1075 0.950 . S
C1084 C1083 1.398 . S
C1084 C1085 1.391 . S
C1085 H1073 0.950 . S
C1085 C1081 1.393 . S
C1085 C1084 1.391 . S
C1086 H1076 0.950 . S
C1086 C1087 1.386 . S
C1086 C1088 1.391 . S
C1087 C1086 1.386 . S
C1087 C1091 1.393 . S
C1088 H1077 0.950 . S
C1088 C1086 1.391 . S
C1088 C1089 1.400 . S
C1089 C1083 1.491 . S
C1089 C1088 1.400 . S
C1089 C1090 1.398 . S
C1090 H1078 0.950 . S
C1090 C1089 1.398 . S
C1090 C1091 1.391 . S
C1091 H1079 0.950 . S
C1091 C1087 1.393 . S
C1091 C1090 1.391 . S
H1092 C1100 0.950 . S
H1093 C1105 0.950 . S
H1094 C1102 0.950 . S
H1095 C1104 0.950 . S
H1096 C1106 0.950 . S
H1097 C1108 0.950 . S
H1098 C1110 0.950 . S
H1099 C1111 0.950 . S
C1100 H1092 0.950 . S
C1100 C1101 1.386 . S
C1100 C1102 1.391 . S
C1101 C1100 1.386 . S
C1101 C1105 1.393 . S
C1102 H1094 0.950 . S
C1102 C1100 1.391 . S
C1102 C1103 1.400 . S
C1103 C1102 1.400 . S
C1103 C1104 1.398 . S
C1103 C1109 1.491 . S
C1104 H1095 0.950 . S
C1104 C1103 1.398 . S
C1104 C1105 1.391 . S
C1105 H1093 0.950 . S
C1105 C1101 1.393 . S
C1105 C1104 1.391 . S
C1106 H1096 0.950 . S
C1106 C1107 1.386 . S
C1106 C1108 1.391 . S
C1107 C1106 1.386 . S
C1107 C1111 1.393 . S
C1108 H1097 0.950 . S
C1108 C1106 1.391 . S
C1108 C1109 1.400 . S
C1109 C1103 1.491 . S
C1109 C1108 1.400 . S
C1109 C1110 1.398 . S
C1110 H1098 0.950 . S
C1110 C1109 1.398 . S
C1110 C1111 1.391 . S
C1111 H1099 0.950 . S
C1111 C1107 1.393 . S
C1111 C1110 1.391 . S
H1112 C1120 0.950 . S
H1113 C1125 0.950 . S
H1114 C1122 0.950 . S
H1115 C1124 0.950 1_455 S
H1116 C1126 0.950 . S
H1117 C1128 0.950 . S
H1118 C1130 0.950 1_655 S
H1119 C1131 0.950 . S
C1120 H1112 0.950 . S
C1120 C1121 1.386 . S
C1120 C1122 1.391 . S
C1121 C1120 1.386 . S
C1121 C1125 1.393 . S
C1122 H1114 0.950 . S
C1122 C1120 1.391 . S
C1122 C1123 1.400 . S
C1123 C1122 1.400 . S
C1123 C1124 1.398 . S
C1123 C1129 1.491 1_655 S
C1124 H1115 0.950 1_655 S
C1124 C1123 1.398 . S
C1124 C1125 1.391 . S
C1125 H1113 0.950 . S
C1125 C1121 1.393 . S
C1125 C1124 1.391 . S
C1126 H1116 0.950 . S
C1126 C1127 1.386 . S
C1126 C1128 1.391 . S
C1127 C1126 1.386 . S
C1127 C1131 1.393 . S
C1128 H1117 0.950 . S
C1128 C1126 1.391 . S
C1128 C1129 1.400 . S
C1129 C1123 1.491 1_455 S
C1129 C1128 1.400 . S
C1129 C1130 1.398 . S
C1130 H1118 0.950 1_455 S
C1130 C1129 1.398 . S
C1130 C1131 1.391 . S
C1131 H1119 0.950 . S
C1131 C1127 1.393 . S
C1131 C1130 1.391 . S
H1132 C1140 0.950 . S
H1133 C1145 0.950 . S
H1134 C1142 0.950 . S
H1135 C1144 0.950 . S
H1136 C1146 0.950 . S
H1137 C1148 0.950 . S
H1138 C1150 0.950 . S
H1139 C1151 0.950 . S
C1140 H1132 0.950 . S
C1140 C1141 1.386 . S
C1140 C1142 1.391 . S
C1141 C1140 1.386 . S
C1141 C1145 1.393 . S
C1142 H1134 0.950 . S
C1142 C1140 1.391 . S
C1142 C1143 1.400 . S
C1143 C1142 1.400 . S
C1143 C1144 1.398 . S
C1143 C1149 1.491 . S
C1144 H1135 0.950 . S
C1144 C1143 1.398 . S
C1144 C1145 1.391 . S
C1145 H1133 0.950 . S
C1145 C1141 1.393 . S
C1145 C1144 1.391 . S
C1146 H1136 0.950 . S
C1146 C1147 1.386 . S
C1146 C1148 1.391 . S
C1147 C1146 1.386 . S
C1147 C1151 1.393 . S
C1148 H1137 0.950 . S
C1148 C1146 1.391 . S
C1148 C1149 1.400 . S
C1149 C1143 1.491 . S
C1149 C1148 1.400 . S
C1149 C1150 1.398 . S
C1150 H1138 0.950 . S
C1150 C1149 1.398 . S
C1150 C1151 1.391 . S
C1151 H1139 0.950 . S
C1151 C1147 1.393 . S
C1151 C1150 1.391 . S
H1152 C1160 0.950 . S
H1153 C1165 0.950 . S
H1154 C1162 0.950 . S
H1155 C1164 0.950 . S
H1156 C1166 0.950 . S
H1157 C1168 0.950 . S
H1158 C1170 0.950 . S
H1159 C1171 0.950 . S
C1160 H1152 0.950 . S
C1160 C1161 1.386 . S
C1160 C1162 1.391 . S
C1161 C1160 1.386 . S
C1161 C1165 1.393 . S
C1162 H1154 0.950 . S
C1162 C1160 1.391 . S
C1162 C1163 1.400 . S
C1163 C1162 1.400 . S
C1163 C1164 1.398 . S
C1163 C1169 1.491 . S
C1164 H1155 0.950 . S
C1164 C1163 1.398 . S
C1164 C1165 1.391 . S
C1165 H1153 0.950 . S
C1165 C1161 1.393 . S
C1165 C1164 1.391 . S
C1166 H1156 0.950 . S
C1166 C1167 1.386 . S
C1166 C1168 1.391 . S
C1167 C1166 1.386 . S
C1167 C1171 1.393 . S
C1168 H1157 0.950 . S
C1168 C1166 1.391 . S
C1168 C1169 1.400 . S
C1169 C1163 1.491 . S
C1169 C1168 1.400 . S
C1169 C1170 1.398 . S
C1170 H1158 0.950 . S
C1170 C1169 1.398 . S
C1170 C1171 1.391 . S
C1171 H1159 0.950 . S
C1171 C1167 1.393 . S
C1171 C1170 1.391 . S
H1172 C1180 0.950 . S
H1173 C1185 0.950 . S
H1174 C1182 0.950 . S
H1175 C1184 0.950 . S
H1176 C1186 0.950 . S
H1177 C1188 0.950 . S
H1178 C1190 0.950 . S
H1179 C1191 0.950 . S
C1180 H1172 0.950 . S
C1180 C1181 1.386 . S
C1180 C1182 1.391 . S
C1181 C1180 1.386 . S
C1181 C1185 1.393 . S
C1182 H1174 0.950 . S
C1182 C1180 1.391 . S
C1182 C1183 1.400 . S
C1183 C1182 1.400 . S
C1183 C1184 1.398 . S
C1183 C1189 1.491 . S
C1184 H1175 0.950 . S
C1184 C1183 1.398 . S
C1184 C1185 1.391 . S
C1185 H1173 0.950 . S
C1185 C1181 1.393 . S
C1185 C1184 1.391 . S
C1186 H1176 0.950 . S
C1186 C1187 1.386 . S
C1186 C1188 1.391 . S
C1187 C1186 1.386 . S
C1187 C1191 1.393 . S
C1188 H1177 0.950 . S
C1188 C1186 1.391 . S
C1188 C1189 1.400 . S
C1189 C1183 1.491 . S
C1189 C1188 1.400 . S
C1189 C1190 1.398 . S
C1190 H1178 0.950 . S
C1190 C1189 1.398 . S
C1190 C1191 1.391 . S
C1191 H1179 0.950 . S
C1191 C1187 1.393 . S
C1191 C1190 1.391 . S
H1192 C1200 0.950 . S
H1193 C1205 0.950 . S
H1194 C1202 0.950 1_455 S
H1195 C1204 0.950 . S
H1196 C1206 0.950 . S
H1197 C1208 0.950 . S
H1198 C1210 0.950 . S
H1199 C1211 0.950 . S
C1200 H1192 0.950 . S
C1200 C1201 1.386 . S
C1200 C1202 1.391 . S
C1201 C1200 1.386 . S
C1201 C1205 1.393 . S
C1202 H1194 0.950 1_655 S
C1202 C1200 1.391 . S
C1202 C1203 1.400 . S
C1203 C1202 1.400 . S
C1203 C1204 1.398 . S
C1203 C1209 1.491 1_655 S
C1204 H1195 0.950 . S
C1204 C1203 1.398 . S
C1204 C1205 1.391 . S
C1205 H1193 0.950 . S
C1205 C1201 1.393 . S
C1205 C1204 1.391 . S
C1206 H1196 0.950 . S
C1206 C1207 1.386 . S
C1206 C1208 1.391 1_455 S
C1207 C1206 1.386 . S
C1207 C1211 1.393 . S
C1208 H1197 0.950 . S
C1208 C1206 1.391 1_655 S
C1208 C1209 1.400 1_655 S
C1209 C1203 1.491 1_455 S
C1209 C1208 1.400 1_455 S
C1209 C1210 1.398 . S
C1210 H1198 0.950 . S
C1210 C1209 1.398 . S
C1210 C1211 1.391 . S
C1211 H1199 0.950 . S
C1211 C1207 1.393 . S
C1211 C1210 1.391 . S
H1212 C1220 0.950 . S
H1213 C1225 0.950 . S
H1214 C1222 0.950 . S
H1215 C1224 0.950 . S
H1216 C1226 0.950 . S
H1217 C1228 0.950 . S
H1218 C1230 0.950 . S
H1219 C1231 0.950 . S
C1220 H1212 0.950 . S
C1220 C1221 1.386 . S
C1220 C1222 1.391 . S
C1221 C1220 1.386 . S
C1221 C1225 1.393 . S
C1222 H1214 0.950 . S
C1222 C1220 1.391 . S
C1222 C1223 1.400 . S
C1223 C1222 1.400 . S
C1223 C1224 1.398 . S
C1223 C1229 1.491 . S
C1224 H1215 0.950 . S
C1224 C1223 1.398 . S
C1224 C1225 1.391 . S
C1225 H1213 0.950 . S
C1225 C1221 1.393 . S
C1225 C1224 1.391 . S
C1226 H1216 0.950 . S
C1226 C1227 1.386 . S
C1226 C1228 1.391 . S
C1227 C1226 1.386 . S
C1227 C1231 1.393 . S
C1228 H1217 0.950 . S
C1228 C1226 1.391 . S
C1228 C1229 1.400 . S
C1229 C1223 1.491 . S
C1229 C1228 1.400 . S
C1229 C1230 1.398 . S
C1230 H1218 0.950 . S
C1230 C1229 1.398 . S
C1230 C1231 1.391 . S
C1231 H1219 0.950 . S
C1231 C1227 1.393 . S
C1231 C1230 1.391 . S
H1232 C1240 0.950 . S
H1233 C1245 0.950 . S
H1234 C1242 0.950 . S
H1235 C1244 0.950 . S
H1236 C1246 0.950 . S
H1237 C1248 0.950 . S
H1238 C1250 0.950 . S
H1239 C1251 0.950 . S
C1240 H1232 0.950 . S
C1240 C1241 1.386 . S
C1240 C1242 1.391 . S
C1241 C1240 1.386 . S
C1241 C1245 1.393 . S
C1242 H1234 0.950 . S
C1242 C1240 1.391 . S
C1242 C1243 1.400 . S
C1243 C1242 1.400 . S
C1243 C1244 1.398 . S
C1243 C1249 1.491 . S
C1244 H1235 0.950 . S
C1244 C1243 1.398 . S
C1244 C1245 1.391 . S
C1245 H1233 0.950 . S
C1245 C1241 1.393 . S
C1245 C1244 1.391 . S
C1246 H1236 0.950 . S
C1246 C1247 1.386 . S
C1246 C1248 1.391 . S
C1247 C1246 1.386 . S
C1247 C1251 1.393 . S
C1248 H1237 0.950 . S
C1248 C1246 1.391 . S
C1248 C1249 1.400 . S
C1249 C1243 1.491 . S
C1249 C1248 1.400 . S
C1249 C1250 1.398 . S
C1250 H1238 0.950 . S
C1250 C1249 1.398 . S
C1250 C1251 1.391 . S
C1251 H1239 0.950 . S
C1251 C1247 1.393 . S
C1251 C1250 1.391 . S
H1252 C1260 0.950 . S
H1253 C1265 0.950 . S
H1254 C1262 0.950 . S
H1255 C1264 0.950 . S
H1256 C1266 0.950 . S
H1257 C1268 0.950 . S
H1258 C1270 0.950 . S
H1259 C1271 0.950 . S
C1260 H1252 0.950 . S
C1260 C1261 1.386 . S
C1260 C1262 1.391 . S
C1261 C1260 1.386 . S
C1261 C1265 1.393 . S
C1262 H1254 0.950 . S
C1262 C1260 1.391 . S
C1262 C1263 1.400 . S
C1263 C1262 1.400 . S
C1263 C1264 1.398 . S
C1263 C1269 1.491 . S
C1264 H1255 0.950 . S
C1264 C1263 1.398 . S
C1264 C1265 1.391 . S
C1265 H1253 0.950 . S
C1265 C1261 1.393 . S
C1265 C1264 1.391 . S
C1266 H1256 0.950 . S
C1266 C1267 1.386 . S
C1266 C1268 1.391 . S
C1267 C1266 1.386 . S
C1267 C1271 1.393 . S
C1268 H1257 0.950 . S
C1268 C1266 1.391 . S
C1268 C1269 1.400 . S
C1269 C1263 1.491 . S
C1269 C1268 1.400 . S
C1269 C1270 1.398 . S
C1270 H1258 0.950 . S
C1270 C1269 1.398 . S
C1270 C1271 1.391 . S
C1271 H1259 0.950 . S
C1271 C1267 1.393 . S
C1271 C1270 1.391 . S
H1272 C1280 0.950 . S
H1273 C1285 0.950 1_545 S
H1274 C1282 0.950 . S
H1275 C1284 0.950 . S
H1276 C1286 0.950 . S
H1277 C1288 0.950 . S
H1278 C1290 0.950 . S
H1279 C1291 0.950 . S
C1280 H1272 0.950 . S
C1280 C1281 1.386 . S
C1280 C1282 1.391 . S
C1281 C1280 1.386 . S
C1281 C1285 1.393 . S
C1282 H1274 0.950 . S
C1282 C1280 1.391 . S
C1282 C1283 1.400 . S
C1283 C1282 1.400 . S
C1283 C1284 1.398 1_565 S
C1283 C1289 1.491 1_565 S
C1284 H1275 0.950 . S
C1284 C1283 1.398 1_545 S
C1284 C1285 1.391 1_545 S
C1285 H1273 0.950 1_565 S
C1285 C1281 1.393 . S
C1285 C1284 1.391 1_565 S
C1286 H1276 0.950 . S
C1286 C1287 1.386 . S
C1286 C1288 1.391 . S
C1287 C1286 1.386 . S
C1287 C1291 1.393 1_545 S
C1288 H1277 0.950 . S
C1288 C1286 1.391 . S
C1288 C1289 1.400 . S
C1289 C1283 1.491 1_545 S
C1289 C1288 1.400 . S
C1289 C1290 1.398 1_545 S
C1290 H1278 0.950 . S
C1290 C1289 1.398 1_565 S
C1290 C1291 1.391 . S
C1291 H1279 0.950 . S
C1291 C1287 1.393 1_565 S
C1291 C1290 1.391 . S
H1292 C1300 0.950 . S
H1293 C1305 0.950 . S
H1294 C1302 0.950 . S
H1295 C1304 0.950 . S
H1296 C1306 0.950 . S
H1297 C1308 0.950 . S
H1298 C1310 0.950 . S
H1299 C1311 0.950 . S
C1300 H1292 0.950 . S
C1300 C1301 1.386 1_556 S
C1300 C1302 1.391 . S
C1301 C1300 1.386 1_554 S
C1301 C1305 1.393 . S
C1302 H1294 0.950 . S
C1302 C1300 1.391 . S
C1302 C1303 1.400 1_556 S
C1303 C1302 1.400 1_554 S
C1303 C1304 1.398 . S
C1303 C1309 1.491 . S
C1304 H1295 0.950 . S
C1304 C1303 1.398 . S
C1304 C1305 1.391 . S
C1305 H1293 0.950 . S
C1305 C1301 1.393 . S
C1305 C1304 1.391 . S
C1306 H1296 0.950 . S
C1306 C1307 1.386 . S
C1306 C1308 1.391 . S
C1307 C1306 1.386 . S
C1307 C1311 1.393 1_554 S
C1308 H1297 0.950 . S
C1308 C1306 1.391 . S
C1308 C1309 1.400 . S
C1309 C1303 1.491 . S
C1309 C1308 1.400 . S
C1309 C1310 1.398 1_554 S
C1310 H1298 0.950 . S
C1310 C1309 1.398 1_556 S
C1310 C1311 1.391 . S
C1311 H1299 0.950 . S
C1311 C1307 1.393 1_556 S
C1311 C1310 1.391 . S
H1312 C1320 0.950 . S
H1313 C1325 0.950 . S
H1314 C1322 0.950 . S
H1315 C1324 0.950 . S
H1316 C1326 0.950 . S
H1317 C1328 0.950 . S
H1318 C1330 0.950 . S
H1319 C1331 0.950 . S
C1320 H1312 0.950 . S
C1320 C1321 1.386 . S
C1320 C1322 1.391 . S
C1321 C1320 1.386 . S
C1321 C1325 1.393 . S
C1322 H1314 0.950 . S
C1322 C1320 1.391 . S
C1322 C1323 1.400 . S
C1323 C1322 1.400 . S
C1323 C1324 1.398 . S
C1323 C1329 1.491 . S
C1324 H1315 0.950 . S
C1324 C1323 1.398 . S
C1324 C1325 1.391 . S
C1325 H1313 0.950 . S
C1325 C1321 1.393 . S
C1325 C1324 1.391 . S
C1326 H1316 0.950 . S
C1326 C1327 1.386 . S
C1326 C1328 1.391 . S
C1327 C1326 1.386 . S
C1327 C1331 1.393 . S
C1328 H1317 0.950 . S
C1328 C1326 1.391 . S
C1328 C1329 1.400 . S
C1329 C1323 1.491 . S
C1329 C1328 1.400 . S
C1329 C1330 1.398 . S
C1330 H1318 0.950 . S
C1330 C1329 1.398 . S
C1330 C1331 1.391 . S
C1331 H1319 0.950 . S
C1331 C1327 1.393 . S
C1331 C1330 1.391 . S
H1332 C1340 0.950 . S
H1333 C1345 0.950 . S
H1334 C1342 0.950 . S
H1335 C1344 0.950 . S
H1336 C1346 0.950 . S
H1337 C1348 0.950 . S
H1338 C1350 0.950 . S
H1339 C1351 0.950 . S
C1340 H1332 0.950 . S
C1340 C1341 1.386 . S
C1340 C1342 1.391 . S
C1341 C1340 1.386 . S
C1341 C1345 1.393 . S
C1342 H1334 0.950 . S
C1342 C1340 1.391 . S
C1342 C1343 1.400 . S
C1343 C1342 1.400 . S
C1343 C1344 1.398 . S
C1343 C1349 1.491 . S
C1344 H1335 0.950 . S
C1344 C1343 1.398 . S
C1344 C1345 1.391 . S
C1345 H1333 0.950 . S
C1345 C1341 1.393 . S
C1345 C1344 1.391 . S
C1346 H1336 0.950 . S
C1346 C1347 1.386 . S
C1346 C1348 1.391 . S
C1347 C1346 1.386 . S
C1347 C1351 1.393 . S
C1348 H1337 0.950 . S
C1348 C1346 1.391 . S
C1348 C1349 1.400 . S
C1349 C1343 1.491 . S
C1349 C1348 1.400 . S
C1349 C1350 1.398 . S
C1350 H1338 0.950 . S
C1350 C1349 1.398 . S
C1350 C1351 1.391 . S
C1351 H1339 0.950 . S
C1351 C1347 1.393 . S
C1351 C1350 1.391 . S
H1352 C1360 0.950 . S
H1353 C1365 0.950 . S
H1354 C1362 0.950 . S
H1355 C1364 0.950 . S
H1356 C1366 0.950 . S
H1357 C1368 0.950 . S
H1358 C1370 0.950 . S
H1359 C1371 0.950 . S
C1360 H1352 0.950 . S
C1360 C1361 1.386 . S
C1360 C1362 1.391 . S
C1361 C1360 1.386 . S
C1361 C1365 1.393 . S
C1362 H1354 0.950 . S
C1362 C1360 1.391 . S
C1362 C1363 1.400 . S
C1363 C1362 1.400 . S
C1363 C1364 1.398 . S
C1363 C1369 1.491 . S
C1364 H1355 0.950 . S
C1364 C1363 1.398 . S
C1364 C1365 1.391 . S
C1365 H1353 0.950 . S
C1365 C1361 1.393 . S
C1365 C1364 1.391 . S
C1366 H1356 0.950 . S
C1366 C1367 1.386 . S
C1366 C1368 1.391 . S
C1367 C1366 1.386 . S
C1367 C1371 1.393 . S
C1368 H1357 0.950 . S
C1368 C1366 1.391 . S
C1368 C1369 1.400 . S
C1369 C1363 1.491 . S
C1369 C1368 1.400 . S
C1369 C1370 1.398 . S
C1370 H1358 0.950 . S
C1370 C1369 1.398 . S
C1370 C1371 1.391 . S
C1371 H1359 0.950 . S
C1371 C1367 1.393 . S
C1371 C1370 1.391 . S
H1372 C1380 0.950 . S
H1373 C1385 0.950 . S
H1374 C1382 0.950 . S
H1375 C1384 0.950 . S
H1376 C1386 0.950 . S
H1377 C1388 0.950 . S
H1378 C1390 0.950 . S
H1379 C1391 0.950 . S
C1380 H1372 0.950 . S
C1380 C1381 1.386 . S
C1380 C1382 1.391 . S
C1381 C1380 1.386 . S
C1381 C1385 1.393 . S
C1382 H1374 0.950 . S
C1382 C1380 1.391 . S
C1382 C1383 1.400 . S
C1383 C1382 1.400 . S
C1383 C1384 1.398 . S
C1383 C1389 1.491 . S
C1384 H1375 0.950 . S
C1384 C1383 1.398 . S
C1384 C1385 1.391 . S
C1385 H1373 0.950 . S
C1385 C1381 1.393 . S
C1385 C1384 1.391 . S
C1386 H1376 0.950 . S
C1386 C1387 1.386 . S
C1386 C1388 1.391 . S
C1387 C1386 1.386 . S
C1387 C1391 1.393 . S
C1388 H1377 0.950 . S
C1388 C1386 1.391 . S
C1388 C1389 1.400 . S
C1389 C1383 1.491 . S
C1389 C1388 1.400 . S
C1389 C1390 1.398 . S
C1390 H1378 0.950 . S
C1390 C1389 1.398 . S
C1390 C1391 1.391 . S
C1391 H1379 0.950 . S
C1391 C1387 1.393 . S
C1391 C1390 1.391 . S
H1392 C1400 0.950 . S
H1393 C1405 0.950 . S
H1394 C1402 0.950 . S
H1395 C1404 0.950 . S
H1396 C1406 0.950 . S
H1397 C1408 0.950 . S
H1398 C1410 0.950 . S
H1399 C1411 0.950 . S
C1400 H1392 0.950 . S
C1400 C1401 1.386 . S
C1400 C1402 1.391 . S
C1401 C1400 1.386 . S
C1401 C1405 1.393 . S
C1402 H1394 0.950 . S
C1402 C1400 1.391 . S
C1402 C1403 1.400 . S
C1403 C1402 1.400 . S
C1403 C1404 1.398 . S
C1403 C1409 1.491 . S
C1404 H1395 0.950 . S
C1404 C1403 1.398 . S
C1404 C1405 1.391 . S
C1405 H1393 0.950 . S
C1405 C1401 1.393 . S
C1405 C1404 1.391 . S
C1406 H1396 0.950 . S
C1406 C1407 1.386 . S
C1406 C1408 1.391 . S
C1407 C1406 1.386 . S
C1407 C1411 1.393 . S
C1408 H1397 0.950 . S
C1408 C1406 1.391 . S
C1408 C1409 1.400 . S
C1409 C1403 1.491 . S
C1409 C1408 1.400 . S
C1409 C1410 1.398 . S
C1410 H1398 0.950 . S
C1410 C1409 1.398 . S
C1410 C1411 1.391 . S
C1411 H1399 0.950 . S
C1411 C1407 1.393 . S
C1411 C1410 1.391 . S
H1412 C1420 0.950 . S
H1413 C1425 0.950 . S
H1414 C1422 0.950 . S
H1415 C1424 0.950 . S
H1416 C1426 0.950 . S
H1417 C1428 0.950 . S
H1418 C1430 0.950 . S
H1419 C1431 0.950 . S
C1420 H1412 0.950 . S
C1420 C1421 1.386 . S
C1420 C1422 1.391 . S
C1421 C1420 1.386 . S
C1421 C1425 1.393 . S
C1422 H1414 0.950 . S
C1422 C1420 1.391 . S
C1422 C1423 1.400 . S
C1423 C1422 1.400 . S
C1423 C1424 1.398 . S
C1423 C1429 1.491 . S
C1424 H1415 0.950 . S
C1424 C1423 1.398 . S
C1424 C1425 1.391 . S
C1425 H1413 0.950 . S
C1425 C1421 1.393 . S
C1425 C1424 1.391 . S
C1426 H1416 0.950 . S
C1426 C1427 1.386 . S
C1426 C1428 1.391 . S
C1427 C1426 1.386 . S
C1427 C1431 1.393 . S
C1428 H1417 0.950 . S
C1428 C1426 1.391 . S
C1428 C1429 1.400 . S
C1429 C1423 1.491 . S
C1429 C1428 1.400 . S
C1429 C1430 1.398 . S
C1430 H1418 0.950 . S
C1430 C1429 1.398 . S
C1430 C1431 1.391 . S
C1431 H1419 0.950 . S
C1431 C1427 1.393 . S
C1431 C1430 1.391 . S
H1432 C1440 0.950 . S
H1433 C1445 0.950 . S
H1434 C1442 0.950 . S
H1435 C1444 0.950 . S
H1436 C1446 0.950 . S
H1437 C1448 0.950 . S
H1438 C1450 0.950 . S
H1439 C1451 0.950 . S
C1440 H1432 0.950 . S
C1440 C1441 1.386 . S
C1440 C1442 1.391 . S
C1441 C1440 1.386 . S
C1441 C1445 1.393 . S
C1442 H1434 0.950 . S
C1442 C1440 1.391 . S
C1442 C1443 1.400 . S
C1443 C1442 1.400 . S
C1443 C1444 1.398 . S
C1443 C1449 1.491 . S
C1444 H1435 0.950 . S
C1444 C1443 1.398 . S
C1444 C1445 1.391 . S
C1445 H1433 0.950 . S
C1445 C1441 1.393 . S
C1445 C1444 1.391 . S
C1446 H1436 0.950 . S
C1446 C1447 1.386 . S
C1446 C1448 1.391 . S
C1447 C1446 1.386 . S
C1447 C1451 1.393 . S
C1448 H1437 0.950 . S
C1448 C1446 1.391 . S
C1448 C1449 1.400 . S
C1449 C1443 1.491 . S
C1449 C1448 1.400 . S
C1449 C1450 1.398 . S
C1450 H1438 0.950 . S
C1450 C1449 1.398 . S
C1450 C1451 1.391 . S
C1451 H1439 0.950 . S
C1451 C1447 1.393 . S
C1451 C1450 1.391 . S
H1452 C1460 0.950 . S
H1453 C1465 0.950 . S
H1454 C1462 0.950 . S
H1455 C1464 0.950 . S
H1456 C1466 0.950 . S
H1457 C1468 0.950 . S
H1458 C1470 0.950 . S
H1459 C1471 0.950 . S
C1460 H1452 0.950 . S
C1460 C1461 1.386 . S
C1460 C1462 1.391 . S
C1461 C1460 1.386 . S
C1461 C1465 1.393 . S
C1462 H1454 0.950 . S
C1462 C1460 1.391 . S
C1462 C1463 1.400 . S
C1463 C1462 1.400 . S
C1463 C1464 1.398 . S
C1463 C1469 1.491 . S
C1464 H1455 0.950 . S
C1464 C1463 1.398 . S
C1464 C1465 1.391 . S
C1465 H1453 0.950 . S
C1465 C1461 1.393 . S
C1465 C1464 1.391 . S
C1466 H1456 0.950 . S
C1466 C1467 1.386 . S
C1466 C1468 1.391 . S
C1467 C1466 1.386 . S
C1467 C1471 1.393 . S
C1468 H1457 0.950 . S
C1468 C1466 1.391 . S
C1468 C1469 1.400 . S
C1469 C1463 1.491 . S
C1469 C1468 1.400 . S
C1469 C1470 1.398 . S
C1470 H1458 0.950 . S
C1470 C1469 1.398 . S
C1470 C1471 1.391 . S
C1471 H1459 0.950 . S
C1471 C1467 1.393 . S
C1471 C1470 1.391 . S
H1472 C1480 0.950 . S
H1473 C1485 0.950 . S
H1474 C1482 0.950 . S
H1475 C1484 0.950 . S
H1476 C1486 0.950 . S
H1477 C1488 0.950 . S
H1478 C1490 0.950 . S
H1479 C1491 0.950 . S
C1480 H1472 0.950 . S
C1480 C1481 1.386 . S
C1480 C1482 1.391 . S
C1481 C1480 1.386 . S
C1481 C1485 1.393 . S
C1482 H1474 0.950 . S
C1482 C1480 1.391 . S
C1482 C1483 1.400 . S
C1483 C1482 1.400 . S
C1483 C1484 1.398 . S
C1483 C1489 1.491 . S
C1484 H1475 0.950 . S
C1484 C1483 1.398 . S
C1484 C1485 1.391 . S
C1485 H1473 0.950 . S
C1485 C1481 1.393 . S
C1485 C1484 1.391 . S
C1486 H1476 0.950 . S
C1486 C1487 1.386 . S
C1486 C1488 1.391 . S
C1487 C1486 1.386 . S
C1487 C1491 1.393 . S
C1488 H1477 0.950 . S
C1488 C1486 1.391 . S
C1488 C1489 1.400 . S
C1489 C1483 1.491 . S
C1489 C1488 1.400 . S
C1489 C1490 1.398 . S
C1490 H1478 0.950 . S
C1490 C1489 1.398 . S
C1490 C1491 1.391 . S
C1491 H1479 0.950 . S
C1491 C1487 1.393 . S
C1491 C1490 1.391 . S
H1492 C1500 0.950 . S
H1493 C1505 0.950 . S
H1494 C1502 0.950 . S
H1495 C1504 0.950 . S
H1496 C1506 0.950 . S
H1497 C1508 0.950 . S
H1498 C1510 0.950 . S
H1499 C1511 0.950 . S
C1500 H1492 0.950 . S
C1500 C1501 1.386 . S
C1500 C1502 1.391 . S
C1501 C1500 1.386 . S
C1501 C1505 1.393 . S
C1502 H1494 0.950 . S
C1502 C1500 1.391 . S
C1502 C1503 1.400 . S
C1503 C1502 1.400 . S
C1503 C1504 1.398 . S
C1503 C1509 1.491 . S
C1504 H1495 0.950 . S
C1504 C1503 1.398 . S
C1504 C1505 1.391 . S
C1505 H1493 0.950 . S
C1505 C1501 1.393 . S
C1505 C1504 1.391 . S
C1506 H1496 0.950 . S
C1506 C1507 1.386 . S
C1506 C1508 1.391 . S
C1507 C1506 1.386 . S
C1507 C1511 1.393 . S
C1508 H1497 0.950 . S
C1508 C1506 1.391 . S
C1508 C1509 1.400 . S
C1509 C1503 1.491 . S
C1509 C1508 1.400 . S
C1509 C1510 1.398 . S
C1510 H1498 0.950 . S
C1510 C1509 1.398 . S
C1510 C1511 1.391 . S
C1511 H1499 0.950 . S
C1511 C1507 1.393 . S
C1511 C1510 1.391 . S
H1512 C1520 0.950 . S
H1513 C1525 0.950 . S
H1514 C1522 0.950 . S
H1515 C1524 0.950 . S
H1516 C1526 0.950 . S
H1517 C1528 0.950 . S
H1518 C1530 0.950 . S
H1519 C1531 0.950 . S
C1520 H1512 0.950 . S
C1520 C1521 1.386 . S
C1520 C1522 1.391 . S
C1521 C1520 1.386 . S
C1521 C1525 1.393 . S
C1522 H1514 0.950 . S
C1522 C1520 1.391 . S
C1522 C1523 1.400 . S
C1523 C1522 1.400 . S
C1523 C1524 1.398 . S
C1523 C1529 1.491 . S
C1524 H1515 0.950 . S
C1524 C1523 1.398 . S
C1524 C1525 1.391 . S
C1525 H1513 0.950 . S
C1525 C1521 1.393 . S
C1525 C1524 1.391 . S
C1526 H1516 0.950 . S
C1526 C1527 1.386 . S
C1526 C1528 1.391 . S
C1527 C1526 1.386 . S
C1527 C1531 1.393 . S
C1528 H1517 0.950 . S
C1528 C1526 1.391 . S
C1528 C1529 1.400 . S
C1529 C1523 1.491 . S
C1529 C1528 1.400 . S
C1529 C1530 1.398 . S
C1530 H1518 0.950 . S
C1530 C1529 1.398 . S
C1530 C1531 1.391 . S
C1531 H1519 0.950 . S
C1531 C1527 1.393 . S
C1531 C1530 1.391 . S
H1532 C1540 0.950 . S
H1533 C1545 0.950 . S
H1534 C1542 0.950 . S
H1535 C1544 0.950 . S
H1536 C1546 0.950 . S
H1537 C1548 0.950 . S
H1538 C1550 0.950 . S
H1539 C1551 0.950 . S
C1540 H1532 0.950 . S
C1540 C1541 1.386 . S
C1540 C1542 1.391 . S
C1541 C1540 1.386 . S
C1541 C1545 1.393 . S
C1542 H1534 0.950 . S
C1542 C1540 1.391 . S
C1542 C1543 1.400 . S
C1543 C1542 1.400 . S
C1543 C1544 1.398 . S
C1543 C1549 1.491 . S
C1544 H1535 0.950 . S
C1544 C1543 1.398 . S
C1544 C1545 1.391 . S
C1545 H1533 0.950 . S
C1545 C1541 1.393 . S
C1545 C1544 1.391 . S
C1546 H1536 0.950 . S
C1546 C1547 1.386 . S
C1546 C1548 1.391 . S
C1547 C1546 1.386 . S
C1547 C1551 1.393 . S
C1548 H1537 0.950 . S
C1548 C1546 1.391 . S
C1548 C1549 1.400 . S
C1549 C1543 1.491 . S
C1549 C1548 1.400 . S
C1549 C1550 1.398 . S
C1550 H1538 0.950 . S
C1550 C1549 1.398 . S
C1550 C1551 1.391 . S
C1551 H1539 0.950 . S
C1551 C1547 1.393 . S
C1551 C1550 1.391 . S
H1552 C1560 0.950 . S
H1553 C1565 0.950 . S
H1554 C1562 0.950 . S
H1555 C1564 0.950 . S
H1556 C1566 0.950 . S
H1557 C1568 0.950 . S
H1558 C1570 0.950 . S
H1559 C1571 0.950 1_545 S
C1560 H1552 0.950 . S
C1560 C1561 1.386 . S
C1560 C1562 1.391 . S
C1561 C1560 1.386 . S
C1561 C1565 1.393 . S
C1562 H1554 0.950 . S
C1562 C1560 1.391 . S
C1562 C1563 1.400 . S
C1563 C1562 1.400 . S
C1563 C1564 1.398 . S
C1563 C1569 1.491 . S
C1564 H1555 0.950 . S
C1564 C1563 1.398 . S
C1564 C1565 1.391 . S
C1565 H1553 0.950 . S
C1565 C1561 1.393 . S
C1565 C1564 1.391 . S
C1566 H1556 0.950 . S
C1566 C1567 1.386 . S
C1566 C1568 1.391 . S
C1567 C1566 1.386 . S
C1567 C1571 1.393 . S
C1568 H1557 0.950 . S
C1568 C1566 1.391 . S
C1568 C1569 1.400 . S
C1569 C1563 1.491 . S
C1569 C1568 1.400 . S
C1569 C1570 1.398 . S
C1570 H1558 0.950 . S
C1570 C1569 1.398 . S
C1570 C1571 1.391 . S
C1571 H1559 0.950 1_565 S
C1571 C1567 1.393 . S
C1571 C1570 1.391 . S
H1572 C1580 0.950 . S
H1573 C1585 0.950 . S
H1574 C1582 0.950 . S
H1575 C1584 0.950 . S
H1576 C1586 0.950 . S
H1577 C1588 0.950 . S
H1578 C1590 0.950 . S
H1579 C1591 0.950 . S
C1580 H1572 0.950 . S
C1580 C1581 1.386 . S
C1580 C1582 1.391 . S
C1581 C1580 1.386 . S
C1581 C1585 1.393 . S
C1582 H1574 0.950 . S
C1582 C1580 1.391 . S
C1582 C1583 1.400 . S
C1583 C1582 1.400 . S
C1583 C1584 1.398 . S
C1583 C1589 1.491 . S
C1584 H1575 0.950 . S
C1584 C1583 1.398 . S
C1584 C1585 1.391 . S
C1585 H1573 0.950 . S
C1585 C1581 1.393 . S
C1585 C1584 1.391 . S
C1586 H1576 0.950 . S
C1586 C1587 1.386 . S
C1586 C1588 1.391 . S
C1587 C1586 1.386 . S
C1587 C1591 1.393 . S
C1588 H1577 0.950 . S
C1588 C1586 1.391 . S
C1588 C1589 1.400 . S
C1589 C1583 1.491 . S
C1589 C1588 1.400 . S
C1589 C1590 1.398 . S
C1590 H1578 0.950 . S
C1590 C1589 1.398 . S
C1590 C1591 1.391 . S
C1591 H1579 0.950 . S
C1591 C1587 1.393 . S
C1591 C1590 1.391 . S
H1592 C1600 0.950 . S
H1593 C1605 0.950 1_565 S
H1594 C1602 0.950 . S
H1595 C1604 0.950 1_565 S
H1596 C1606 0.950 . S
H1597 C1608 0.947 . S
H1598 C1610 0.950 . S
H1599 C1611 0.950 . S
C1600 H1592 0.950 . S
C1600 C1601 1.386 . S
C1600 C1602 1.391 . S
C1601 C1600 1.386 . S
C1601 C1605 1.393 . S
C1602 H1594 0.950 . S
C1602 C1600 1.391 . S
C1602 C1603 1.400 . S
C1603 C1602 1.400 . S
C1603 C1604 1.398 . S
C1603 C1609 1.491 . S
C1604 H1595 0.950 1_545 S
C1604 C1603 1.398 . S
C1604 C1605 1.391 . S
C1605 H1593 0.950 1_545 S
C1605 C1601 1.393 . S
C1605 C1604 1.391 . S
C1606 H1596 0.950 . S
C1606 C1607 1.386 . S
C1606 C1608 1.391 . S
C1607 C1606 1.386 . S
C1607 C1611 1.393 . S
C1608 H1597 0.947 . S
C1608 C1606 1.391 . S
C1608 C1609 1.400 . S
C1609 C1603 1.491 . S
C1609 C1608 1.400 . S
C1609 C1610 1.398 . S
C1610 H1598 0.950 . S
C1610 C1609 1.398 . S
C1610 C1611 1.391 . S
C1611 H1599 0.950 . S
C1611 C1607 1.393 . S
C1611 C1610 1.391 . S
H1612 C1620 0.950 . S
H1613 C1625 0.950 . S
H1614 C1622 0.950 . S
H1615 C1624 0.950 . S
H1616 C1626 0.950 . S
H1617 C1628 0.950 . S
H1618 C1630 0.950 . S
H1619 C1631 0.950 . S
C1620 H1612 0.950 . S
C1620 C1621 1.386 . S
C1620 C1622 1.391 . S
C1621 C1620 1.386 . S
C1621 C1625 1.393 . S
C1622 H1614 0.950 . S
C1622 C1620 1.391 . S
C1622 C1623 1.400 . S
C1623 C1622 1.400 . S
C1623 C1624 1.398 . S
C1623 C1629 1.491 . S
C1624 H1615 0.950 . S
C1624 C1623 1.398 . S
C1624 C1625 1.391 . S
C1625 H1613 0.950 . S
C1625 C1621 1.393 . S
C1625 C1624 1.391 . S
C1626 H1616 0.950 . S
C1626 C1627 1.386 . S
C1626 C1628 1.391 . S
C1627 C1626 1.386 . S
C1627 C1631 1.393 . S
C1628 H1617 0.950 . S
C1628 C1626 1.391 . S
C1628 C1629 1.400 . S
C1629 C1623 1.491 . S
C1629 C1628 1.400 . S
C1629 C1630 1.398 . S
C1630 H1618 0.950 . S
C1630 C1629 1.398 . S
C1630 C1631 1.391 . S
C1631 H1619 0.950 . S
C1631 C1627 1.393 . S
C1631 C1630 1.391 . S
H1632 C1640 0.950 . S
H1633 C1645 0.950 . S
H1634 C1642 0.950 . S
H1635 C1644 0.950 . S
H1636 C1646 0.939 1_565 S
H1637 C1648 0.950 1_565 S
H1638 C1650 0.950 . S
H1639 C1651 0.950 . S
C1640 H1632 0.950 . S
C1640 C1641 1.386 . S
C1640 C1642 1.391 . S
C1641 C1640 1.386 . S
C1641 C1645 1.393 1_545 S
C1642 H1634 0.950 . S
C1642 C1640 1.391 . S
C1642 C1643 1.400 . S
C1643 C1642 1.400 . S
C1643 C1644 1.398 1_545 S
C1643 C1649 1.491 . S
C1644 H1635 0.950 . S
C1644 C1643 1.398 1_565 S
C1644 C1645 1.391 . S
C1645 H1633 0.950 . S
C1645 C1641 1.393 1_565 S
C1645 C1644 1.391 . S
C1646 H1636 0.939 1_545 S
C1646 C1647 1.386 . S
C1646 C1648 1.391 . S
C1647 C1646 1.386 . S
C1647 C1651 1.393 . S
C1648 H1637 0.950 1_545 S
C1648 C1646 1.391 . S
C1648 C1649 1.400 . S
C1649 C1643 1.491 . S
C1649 C1648 1.400 . S
C1649 C1650 1.398 . S
C1650 H1638 0.950 . S
C1650 C1649 1.398 . S
C1650 C1651 1.391 . S
C1651 H1639 0.950 . S
C1651 C1647 1.393 . S
C1651 C1650 1.391 . S
H1652 C1660 0.950 . S
H1653 C1665 0.950 . S
H1654 C1662 0.950 . S
H1655 C1664 0.950 . S
H1656 C1666 0.950 . S
H1657 C1668 0.950 . S
H1658 C1670 0.950 . S
H1659 C1671 0.950 . S
C1660 H1652 0.950 . S
C1660 C1661 1.386 . S
C1660 C1662 1.391 . S
C1661 C1660 1.386 . S
C1661 C1665 1.393 . S
C1662 H1654 0.950 . S
C1662 C1660 1.391 . S
C1662 C1663 1.400 . S
C1663 C1662 1.400 . S
C1663 C1664 1.398 . S
C1663 C1669 1.491 . S
C1664 H1655 0.950 . S
C1664 C1663 1.398 . S
C1664 C1665 1.391 . S
C1665 H1653 0.950 . S
C1665 C1661 1.393 . S
C1665 C1664 1.391 . S
C1666 H1656 0.950 . S
C1666 C1667 1.386 . S
C1666 C1668 1.391 . S
C1667 C1666 1.386 . S
C1667 C1671 1.393 . S
C1668 H1657 0.950 . S
C1668 C1666 1.391 . S
C1668 C1669 1.400 . S
C1669 C1663 1.491 . S
C1669 C1668 1.400 . S
C1669 C1670 1.398 . S
C1670 H1658 0.950 . S
C1670 C1669 1.398 . S
C1670 C1671 1.391 . S
C1671 H1659 0.950 . S
C1671 C1667 1.393 . S
C1671 C1670 1.391 . S
H1672 C1680 0.950 . S
H1673 C1685 0.950 . S
H1674 C1682 0.950 . S
H1675 C1684 0.950 . S
H1676 C1686 0.950 . S
H1677 C1688 0.950 . S
H1678 C1690 0.950 1_565 S
H1679 C1691 0.950 1_565 S
C1680 H1672 0.950 . S
C1680 C1681 1.386 1_565 S
C1680 C1682 1.391 . S
C1681 C1680 1.386 1_545 S
C1681 C1685 1.393 . S
C1682 H1674 0.950 . S
C1682 C1680 1.391 . S
C1682 C1683 1.400 1_565 S
C1683 C1682 1.400 1_545 S
C1683 C1684 1.398 . S
C1683 C1689 1.491 . S
C1684 H1675 0.950 . S
C1684 C1683 1.398 . S
C1684 C1685 1.391 . S
C1685 H1673 0.950 . S
C1685 C1681 1.393 . S
C1685 C1684 1.391 . S
C1686 H1676 0.950 . S
C1686 C1687 1.386 . S
C1686 C1688 1.391 . S
C1687 C1686 1.386 . S
C1687 C1691 1.393 . S
C1688 H1677 0.950 . S
C1688 C1686 1.391 . S
C1688 C1689 1.400 . S
C1689 C1683 1.491 . S
C1689 C1688 1.400 . S
C1689 C1690 1.398 . S
C1690 H1678 0.950 1_545 S
C1690 C1689 1.398 . S
C1690 C1691 1.391 . S
C1691 H1679 0.950 1_545 S
C1691 C1687 1.393 . S
C1691 C1690 1.391 . S
H1692 C1700 0.950 . S
H1693 C1705 0.950 . S
H1694 C1702 0.950 . S
H1695 C1704 0.950 . S
H1696 C1706 0.950 . S
H1697 C1708 0.950 . S
H1698 C1710 0.950 . S
H1699 C1711 0.950 . S
C1700 H1692 0.950 . S
C1700 C1701 1.386 . S
C1700 C1702 1.391 . S
C1701 C1700 1.386 . S
C1701 C1705 1.393 . S
C1702 H1694 0.950 . S
C1702 C1700 1.391 . S
C1702 C1703 1.400 . S
C1703 C1702 1.400 . S
C1703 C1704 1.398 . S
C1703 C1709 1.491 . S
C1704 H1695 0.950 . S
C1704 C1703 1.398 . S
C1704 C1705 1.391 . S
C1705 H1693 0.950 . S
C1705 C1701 1.393 . S
C1705 C1704 1.391 . S
C1706 H1696 0.950 . S
C1706 C1707 1.386 . S
C1706 C1708 1.391 . S
C1707 C1706 1.386 . S
C1707 C1711 1.393 . S
C1708 H1697 0.950 . S
C1708 C1706 1.391 . S
C1708 C1709 1.400 . S
C1709 C1703 1.491 . S
C1709 C1708 1.400 . S
C1709 C1710 1.398 . S
C1710 H1698 0.950 . S
C1710 C1709 1.398 . S
C1710 C1711 1.391 . S
C1711 H1699 0.950 . S
C1711 C1707 1.393 . S
C1711 C1710 1.391 . S
H1712 C1720 0.950 . S
H1713 C1725 0.950 . S
H1714 C1722 0.950 . S
H1715 C1724 0.951 . S
H1716 C1726 0.933 1_565 S
H1717 C1728 0.953 1_565 S
H1718 C1730 0.950 . S
H1719 C1731 0.950 . S
C1720 H1712 0.950 . S
C1720 C1721 1.386 . S
C1720 C1722 1.391 . S
C1721 C1720 1.386 . S
C1721 C1725 1.393 1_545 S
C1722 H1714 0.950 . S
C1722 C1720 1.391 . S
C1722 C1723 1.400 . S
C1723 C1722 1.400 . S
C1723 C1724 1.397 1_545 S
C1723 C1729 1.491 . S
C1724 H1715 0.951 . S
C1724 C1723 1.397 1_565 S
C1724 C1725 1.391 . S
C1725 H1713 0.950 . S
C1725 C1721 1.393 1_565 S
C1725 C1724 1.391 . S
C1726 H1716 0.933 1_545 S
C1726 C1727 1.407 . S
C1726 C1728 1.387 . S
C1727 C1726 1.407 . S
C1727 C1731 1.393 . S
C1728 H1717 0.953 1_545 S
C1728 C1726 1.387 . S
C1728 C1729 1.398 . S
C1729 C1723 1.491 . S
C1729 C1728 1.398 . S
C1729 C1730 1.398 . S
C1730 H1718 0.950 . S
C1730 C1729 1.398 . S
C1730 C1731 1.391 . S
C1731 H1719 0.950 . S
C1731 C1727 1.393 . S
C1731 C1730 1.391 . S
H1732 C1740 0.950 . S
H1733 C1745 0.950 . S
H1734 C1742 0.950 . S
H1735 C1744 0.950 . S
H1736 C1746 0.950 . S
H1737 C1748 0.950 . S
H1738 C1750 0.950 . S
H1739 C1751 0.950 . S
C1740 H1732 0.950 . S
C1740 C1741 1.386 . S
C1740 C1742 1.391 . S
C1741 C1740 1.386 . S
C1741 C1745 1.393 . S
C1742 H1734 0.950 . S
C1742 C1740 1.391 . S
C1742 C1743 1.400 . S
C1743 C1742 1.400 . S
C1743 C1744 1.398 . S
C1743 C1749 1.491 . S
C1744 H1735 0.950 . S
C1744 C1743 1.398 . S
C1744 C1745 1.391 . S
C1745 H1733 0.950 . S
C1745 C1741 1.393 . S
C1745 C1744 1.391 . S
C1746 H1736 0.950 . S
C1746 C1747 1.386 . S
C1746 C1748 1.391 . S
C1747 C1746 1.386 . S
C1747 C1751 1.393 . S
C1748 H1737 0.950 . S
C1748 C1746 1.391 . S
C1748 C1749 1.400 . S
C1749 C1743 1.491 . S
C1749 C1748 1.400 . S
C1749 C1750 1.398 . S
C1750 H1738 0.950 . S
C1750 C1749 1.398 . S
C1750 C1751 1.391 . S
C1751 H1739 0.950 . S
C1751 C1747 1.393 . S
C1751 C1750 1.391 . S
H1752 C1760 0.950 . S
H1753 C1765 0.950 . S
H1754 C1762 0.950 . S
H1755 C1764 0.950 . S
H1756 C1766 0.950 . S
H1757 C1768 0.950 . S
H1758 C1770 0.950 . S
H1759 C1771 0.950 . S
C1760 H1752 0.950 . S
C1760 C1761 1.386 . S
C1760 C1762 1.391 . S
C1761 C1760 1.386 . S
C1761 C1765 1.393 . S
C1762 H1754 0.950 . S
C1762 C1760 1.391 . S
C1762 C1763 1.400 . S
C1763 C1762 1.400 . S
C1763 C1764 1.398 . S
C1763 C1769 1.491 . S
C1764 H1755 0.950 . S
C1764 C1763 1.398 . S
C1764 C1765 1.391 . S
C1765 H1753 0.950 . S
C1765 C1761 1.393 . S
C1765 C1764 1.391 . S
C1766 H1756 0.950 . S
C1766 C1767 1.386 . S
C1766 C1768 1.391 . S
C1767 C1766 1.386 . S
C1767 C1771 1.393 . S
C1768 H1757 0.950 . S
C1768 C1766 1.391 . S
C1768 C1769 1.400 . S
C1769 C1763 1.491 . S
C1769 C1768 1.400 . S
C1769 C1770 1.398 . S
C1770 H1758 0.950 . S
C1770 C1769 1.398 . S
C1770 C1771 1.391 . S
C1771 H1759 0.950 . S
C1771 C1767 1.393 . S
C1771 C1770 1.391 . S
H1772 C1780 0.950 . S
H1773 C1785 0.950 . S
H1774 C1782 0.950 . S
H1775 C1784 0.937 1_556 S
H1776 C1786 0.950 1_556 S
H1777 C1788 0.945 1_556 S
H1778 C1790 0.950 . S
H1779 C1791 0.950 . S
C1780 H1772 0.950 . S
C1780 C1781 1.386 . S
C1780 C1782 1.391 . S
C1781 C1780 1.386 . S
C1781 C1785 1.393 . S
C1782 H1774 0.950 . S
C1782 C1780 1.391 . S
C1782 C1783 1.400 . S
C1783 C1782 1.400 . S
C1783 C1784 1.398 . S
C1783 C1789 1.491 . S
C1784 H1775 0.937 1_554 S
C1784 C1783 1.398 . S
C1784 C1785 1.391 . S
C1785 H1773 0.950 . S
C1785 C1781 1.393 . S
C1785 C1784 1.391 . S
C1786 H1776 0.950 1_554 S
C1786 C1787 1.386 . S
C1786 C1788 1.391 . S
C1787 C1786 1.386 . S
C1787 C1791 1.393 . S
C1788 H1777 0.945 1_554 S
C1788 C1786 1.391 . S
C1788 C1789 1.400 . S
C1789 C1783 1.491 . S
C1789 C1788 1.400 . S
C1789 C1790 1.398 . S
C1790 H1778 0.950 . S
C1790 C1789 1.398 . S
C1790 C1791 1.391 . S
C1791 H1779 0.950 . S
C1791 C1787 1.393 . S
C1791 C1790 1.391 . S
H1792 C1800 0.950 . S
H1793 C1805 0.950 . S
H1794 C1802 0.950 . S
H1795 C1804 0.950 . S
H1796 C1806 0.950 . S
H1797 C1808 0.950 . S
H1798 C1810 0.950 . S
H1799 C1811 0.950 . S
C1800 H1792 0.950 . S
C1800 C1801 1.386 . S
C1800 C1802 1.391 . S
C1801 C1800 1.386 . S
C1801 C1805 1.393 . S
C1802 H1794 0.950 . S
C1802 C1800 1.391 . S
C1802 C1803 1.400 . S
C1803 C1802 1.400 . S
C1803 C1804 1.398 . S
C1803 C1809 1.491 . S
C1804 H1795 0.950 . S
C1804 C1803 1.398 . S
C1804 C1805 1.391 . S
C1805 H1793 0.950 . S
C1805 C1801 1.393 . S
C1805 C1804 1.391 . S
C1806 H1796 0.950 . S
C1806 C1807 1.386 . S
C1806 C1808 1.391 . S
C1807 C1806 1.386 . S
C1807 C1811 1.393 . S
C1808 H1797 0.950 . S
C1808 C1806 1.391 . S
C1808 C1809 1.400 . S
C1809 C1803 1.491 . S
C1809 C1808 1.400 . S
C1809 C1810 1.398 . S
C1810 H1798 0.950 . S
C1810 C1809 1.398 . S
C1810 C1811 1.391 . S
C1811 H1799 0.950 . S
C1811 C1807 1.393 . S
C1811 C1810 1.391 . S
H1812 C1820 0.950 . S
H1813 C1825 0.950 . S
H1814 C1822 0.950 . S
H1815 C1824 0.950 . S
H1816 C1826 0.950 . S
H1817 C1828 0.950 . S
H1818 C1830 0.950 . S
H1819 C1831 0.950 . S
C1820 H1812 0.950 . S
C1820 C1821 1.386 . S
C1820 C1822 1.391 . S
C1821 C1820 1.386 . S
C1821 C1825 1.393 . S
C1822 H1814 0.950 . S
C1822 C1820 1.391 . S
C1822 C1823 1.400 . S
C1823 C1822 1.400 . S
C1823 C1824 1.398 . S
C1823 C1829 1.491 . S
C1824 H1815 0.950 . S
C1824 C1823 1.398 . S
C1824 C1825 1.391 . S
C1825 H1813 0.950 . S
C1825 C1821 1.393 . S
C1825 C1824 1.391 . S
C1826 H1816 0.950 . S
C1826 C1827 1.386 . S
C1826 C1828 1.391 . S
C1827 C1826 1.386 . S
C1827 C1831 1.393 . S
C1828 H1817 0.950 . S
C1828 C1826 1.391 . S
C1828 C1829 1.400 . S
C1829 C1823 1.491 . S
C1829 C1828 1.400 . S
C1829 C1830 1.398 . S
C1830 H1818 0.950 . S
C1830 C1829 1.398 . S
C1830 C1831 1.391 . S
C1831 H1819 0.950 . S
C1831 C1827 1.393 . S
C1831 C1830 1.391 . S
H1832 C1840 0.950 . S
H1833 C1845 0.950 . S
H1834 C1842 0.950 . S
H1835 C1844 0.953 1_545 S
H1836 C1846 0.950 . S
H1837 C1848 0.950 . S
H1838 C1850 0.950 . S
H1839 C1851 0.950 . S
C1840 H1832 0.950 . S
C1840 C1841 1.386 1_565 S
C1840 C1842 1.391 . S
C1841 C1840 1.386 1_545 S
C1841 C1845 1.393 . S
C1842 H1834 0.950 . S
C1842 C1840 1.391 . S
C1842 C1843 1.400 . S
C1843 C1842 1.400 . S
C1843 C1844 1.398 . S
C1843 C1849 1.491 . S
C1844 H1835 0.953 1_565 S
C1844 C1843 1.398 . S
C1844 C1845 1.391 1_565 S
C1845 H1833 0.950 . S
C1845 C1841 1.393 . S
C1845 C1844 1.391 1_545 S
C1846 H1836 0.950 . S
C1846 C1847 1.386 . S
C1846 C1848 1.391 . S
C1847 C1846 1.386 . S
C1847 C1851 1.393 . S
C1848 H1837 0.950 . S
C1848 C1846 1.391 . S
C1848 C1849 1.400 . S
C1849 C1843 1.491 . S
C1849 C1848 1.400 . S
C1849 C1850 1.398 . S
C1850 H1838 0.950 . S
C1850 C1849 1.398 . S
C1850 C1851 1.391 . S
C1851 H1839 0.950 . S
C1851 C1847 1.393 . S
C1851 C1850 1.391 . S
H1852 C1860 0.950 . S
H1853 C1865 0.950 . S
H1854 C1862 0.950 . S
H1855 C1864 0.950 . S
H1856 C1866 0.950 . S
H1857 C1868 0.950 . S
H1858 C1870 0.950 . S
H1859 C1871 0.950 . S
C1860 H1852 0.950 . S
C1860 C1861 1.386 . S
C1860 C1862 1.391 . S
C1861 C1860 1.386 . S
C1861 C1865 1.393 . S
C1862 H1854 0.950 . S
C1862 C1860 1.391 . S
C1862 C1863 1.400 . S
C1863 C1862 1.400 . S
C1863 C1864 1.398 . S
C1863 C1869 1.491 . S
C1864 H1855 0.950 . S
C1864 C1863 1.398 . S
C1864 C1865 1.391 . S
C1865 H1853 0.950 . S
C1865 C1861 1.393 . S
C1865 C1864 1.391 . S
C1866 H1856 0.950 . S
C1866 C1867 1.386 . S
C1866 C1868 1.391 . S
C1867 C1866 1.386 . S
C1867 C1871 1.393 . S
C1868 H1857 0.950 . S
C1868 C1866 1.391 . S
C1868 C1869 1.400 . S
C1869 C1863 1.491 . S
C1869 C1868 1.400 . S
C1869 C1870 1.398 . S
C1870 H1858 0.950 . S
C1870 C1869 1.398 . S
C1870 C1871 1.391 . S
C1871 H1859 0.950 . S
C1871 C1867 1.393 . S
C1871 C1870 1.391 . S
H1872 C1880 0.950 . S
H1873 C1885 0.950 . S
H1874 C1882 0.950 . S
H1875 C1884 0.950 . S
H1876 C1886 0.950 . S
H1877 C1888 0.950 . S
H1878 C1890 0.950 . S
H1879 C1891 0.950 . S
C1880 H1872 0.950 . S
C1880 C1881 1.386 . S
C1880 C1882 1.391 . S
C1881 C1880 1.386 . S
C1881 C1885 1.393 . S
C1882 H1874 0.950 . S
C1882 C1880 1.391 . S
C1882 C1883 1.400 . S
C1883 C1882 1.400 . S
C1883 C1884 1.398 . S
C1883 C1889 1.491 . S
C1884 H1875 0.950 . S
C1884 C1883 1.398 . S
C1884 C1885 1.391 . S
C1885 H1873 0.950 . S
C1885 C1881 1.393 . S
C1885 C1884 1.391 . S
C1886 H1876 0.950 . S
C1886 C1887 1.386 . S
C1886 C1888 1.391 . S
C1887 C1886 1.386 . S
C1887 C1891 1.393 . S
C1888 H1877 0.950 . S
C1888 C1886 1.391 . S
C1888 C1889 1.400 . S
C1889 C1883 1.491 . S
C1889 C1888 1.400 . S
C1889 C1890 1.398 . S
C1890 H1878 0.950 . S
C1890 C1889 1.398 . S
C1890 C1891 1.391 . S
C1891 H1879 0.950 . S
C1891 C1887 1.393 . S
C1891 C1890 1.391 . S
H1892 C1900 0.950 . S
H1893 C1905 0.950 . S
H1894 C1902 0.950 . S
H1895 C1904 0.950 . S
H1896 C1906 0.950 . S
H1897 C1908 0.950 . S
H1898 C1910 0.950 . S
H1899 C1911 0.950 . S
C1900 H1892 0.950 . S
C1900 C1901 1.386 . S
C1900 C1902 1.391 . S
C1901 C1900 1.386 . S
C1901 C1905 1.393 . S
C1902 H1894 0.950 . S
C1902 C1900 1.391 . S
C1902 C1903 1.400 . S
C1903 C1902 1.400 . S
C1903 C1904 1.398 . S
C1903 C1909 1.491 . S
C1904 H1895 0.950 . S
C1904 C1903 1.398 . S
C1904 C1905 1.391 . S
C1905 H1893 0.950 . S
C1905 C1901 1.393 . S
C1905 C1904 1.391 . S
C1906 H1896 0.950 . S
C1906 C1907 1.386 . S
C1906 C1908 1.391 . S
C1907 C1906 1.386 . S
C1907 C1911 1.393 . S
C1908 H1897 0.950 . S
C1908 C1906 1.391 . S
C1908 C1909 1.400 . S
C1909 C1903 1.491 . S
C1909 C1908 1.400 . S
C1909 C1910 1.398 . S
C1910 H1898 0.950 . S
C1910 C1909 1.398 . S
C1910 C1911 1.391 . S
C1911 H1899 0.950 . S
C1911 C1907 1.393 . S
C1911 C1910 1.391 . S
H1912 C1920 0.950 . S
H1913 C1925 0.950 . S
H1914 C1922 0.950 . S
H1915 C1924 0.950 . S
H1916 C1926 0.950 . S
H1917 C1928 0.950 . S
H1918 C1930 0.950 . S
H1919 C1931 0.950 . S
C1920 H1912 0.950 . S
C1920 C1921 1.386 . S
C1920 C1922 1.391 . S
C1921 C1920 1.386 . S
C1921 C1925 1.393 . S
C1922 H1914 0.950 . S
C1922 C1920 1.391 . S
C1922 C1923 1.400 . S
C1923 C1922 1.400 . S
C1923 C1924 1.398 . S
C1923 C1929 1.491 . S
C1924 H1915 0.950 . S
C1924 C1923 1.398 . S
C1924 C1925 1.391 . S
C1925 H1913 0.950 . S
C1925 C1921 1.393 . S
C1925 C1924 1.391 . S
C1926 H1916 0.950 . S
C1926 C1927 1.386 . S
C1926 C1928 1.391 . S
C1927 C1926 1.386 . S
C1927 C1931 1.393 . S
C1928 H1917 0.950 . S
C1928 C1926 1.391 . S
C1928 C1929 1.400 . S
C1929 C1923 1.491 . S
C1929 C1928 1.400 . S
C1929 C1930 1.398 . S
C1930 H1918 0.950 . S
C1930 C1929 1.398 . S
C1930 C1931 1.391 . S
C1931 H1919 0.950 . S
C1931 C1927 1.393 . S
C1931 C1930 1.391 . S
H1932 C1940 0.950 . S
H1933 C1945 0.950 . S
H1934 C1942 0.950 . S
H1935 C1944 0.950 . S
H1936 C1946 0.950 . S
H1937 C1948 0.950 . S
H1938 C1950 0.950 . S
H1939 C1951 0.950 . S
C1940 H1932 0.950 . S
C1940 C1941 1.386 . S
C1940 C1942 1.391 . S
C1941 C1940 1.386 . S
C1941 C1945 1.393 . S
C1942 H1934 0.950 . S
C1942 C1940 1.391 . S
C1942 C1943 1.400 . S
C1943 C1942 1.400 . S
C1943 C1944 1.398 . S
C1943 C1949 1.491 . S
C1944 H1935 0.950 . S
C1944 C1943 1.398 . S
C1944 C1945 1.391 . S
C1945 H1933 0.950 . S
C1945 C1941 1.393 . S
C1945 C1944 1.391 . S
C1946 H1936 0.950 . S
C1946 C1947 1.386 . S
C1946 C1948 1.391 . S
C1947 C1946 1.386 . S
C1947 C1951 1.393 . S
C1948 H1937 0.950 . S
C1948 C1946 1.391 . S
C1948 C1949 1.400 . S
C1949 C1943 1.491 . S
C1949 C1948 1.400 . S
C1949 C1950 1.398 . S
C1950 H1938 0.950 . S
C1950 C1949 1.398 . S
C1950 C1951 1.391 . S
C1951 H1939 0.950 . S
C1951 C1947 1.393 . S
C1951 C1950 1.391 . S
H1952 C1960 0.950 . S
H1953 C1965 0.950 . S
H1954 C1962 0.917 1_655 S
H1955 C1964 0.950 . S
H1956 C1966 0.950 . S
H1957 C1968 0.950 . S
H1958 C1970 0.950 1_655 S
H1959 C1971 0.917 1_655 S
C1960 H1952 0.950 . S
C1960 C1961 1.386 1_655 S
C1960 C1962 1.397 1_655 S
C1961 C1960 1.386 1_455 S
C1961 C1965 1.393 . S
C1962 H1954 0.917 1_455 S
C1962 C1960 1.397 1_455 S
C1962 C1963 1.429 . S
C1963 C1962 1.429 . S
C1963 C1964 1.398 . S
C1963 C1969 1.491 . S
C1964 H1955 0.950 . S
C1964 C1963 1.398 . S
C1964 C1965 1.391 . S
C1965 H1953 0.950 . S
C1965 C1961 1.393 . S
C1965 C1964 1.391 . S
C1966 H1956 0.950 . S
C1966 C1967 1.386 . S
C1966 C1968 1.391 1_554 S
C1967 C1966 1.386 . S
C1967 C1971 1.393 . S
C1968 H1957 0.950 . S
C1968 C1966 1.391 1_556 S
C1968 C1969 1.400 . S
C1969 C1963 1.491 . S
C1969 C1968 1.400 . S
C1969 C1970 1.398 1_556 S
C1970 H1958 0.950 1_455 S
C1970 C1969 1.398 1_554 S
C1970 C1971 1.391 . S
C1971 H1959 0.917 1_455 S
C1971 C1967 1.393 . S
C1971 C1970 1.391 . S
H1972 C1980 0.950 . S
H1973 C1985 0.950 . S
H1974 C1982 0.950 . S
H1975 C1984 0.950 . S
H1976 C1986 0.950 . S
H1977 C1988 0.950 . S
H1978 C1990 0.950 . S
H1979 C1991 0.950 . S
C1980 H1972 0.950 . S
C1980 C1981 1.386 . S
C1980 C1982 1.391 1_455 S
C1981 C1980 1.386 . S
C1981 C1985 1.393 . S
C1982 H1974 0.950 . S
C1982 C1980 1.391 1_655 S
C1982 C1983 1.400 . S
C1983 C1982 1.400 . S
C1983 C1984 1.398 . S
C1983 C1989 1.491 . S
C1984 H1975 0.950 . S
C1984 C1983 1.398 . S
C1984 C1985 1.391 1_655 S
C1985 H1973 0.950 . S
C1985 C1981 1.393 . S
C1985 C1984 1.391 1_455 S
C1986 H1976 0.950 . S
C1986 C1987 1.386 . S
C1986 C1988 1.391 . S
C1987 C1986 1.386 . S
C1987 C1991 1.393 . S
C1988 H1977 0.950 . S
C1988 C1986 1.391 . S
C1988 C1989 1.400 . S
C1989 C1983 1.491 . S
C1989 C1988 1.400 . S
C1989 C1990 1.398 . S
C1990 H1978 0.950 . S
C1990 C1989 1.398 . S
C1990 C1991 1.391 . S
C1991 H1979 0.950 . S
C1991 C1987 1.393 . S
C1991 C1990 1.391 . S
H1992 C2000 0.950 . S
H1993 C2005 0.950 . S
H1994 C2002 0.950 . S
H1995 C2004 0.950 . S
H1996 C2006 0.950 . S
H1997 C2008 0.950 . S
H1998 C2010 0.950 . S
H1999 C2011 0.950 . S
C2000 H1992 0.950 . S
C2000 C2001 1.386 . S
C2000 C2002 1.391 . S
C2001 C2000 1.386 . S
C2001 C2005 1.393 . S
C2002 H1994 0.950 . S
C2002 C2000 1.391 . S
C2002 C2003 1.400 . S
C2003 C2002 1.400 . S
C2003 C2004 1.398 . S
C2003 C2009 1.491 . S
C2004 H1995 0.950 . S
C2004 C2003 1.398 . S
C2004 C2005 1.391 . S
C2005 H1993 0.950 . S
C2005 C2001 1.393 . S
C2005 C2004 1.391 . S
C2006 H1996 0.950 . S
C2006 C2007 1.386 . S
C2006 C2008 1.391 . S
C2007 C2006 1.386 . S
C2007 C2011 1.393 . S
C2008 H1997 0.950 . S
C2008 C2006 1.391 . S
C2008 C2009 1.400 . S
C2009 C2003 1.491 . S
C2009 C2008 1.400 . S
C2009 C2010 1.398 . S
C2010 H1998 0.950 . S
C2010 C2009 1.398 . S
C2010 C2011 1.391 . S
C2011 H1999 0.950 . S
C2011 C2007 1.393 . S
C2011 C2010 1.391 . S
H2012 C2020 0.950 . S
H2013 C2025 0.950 . S
H2014 C2022 0.950 1_655 S
H2015 C2024 0.950 . S
H2016 C2026 0.950 . S
H2017 C2028 0.950 . S
H2018 C2030 0.950 . S
H2019 C2031 0.950 . S
C2020 H2012 0.950 . S
C2020 C2021 1.386 . S
C2020 C2022 1.391 . S
C2021 C2020 1.386 . S
C2021 C2025 1.393 . S
C2022 H2014 0.950 1_455 S
C2022 C2020 1.391 . S
C2022 C2023 1.400 . S
C2023 C2022 1.400 . S
C2023 C2024 1.398 . S
C2023 C2029 1.491 1_455 S
C2024 H2015 0.950 . S
C2024 C2023 1.398 . S
C2024 C2025 1.391 . S
C2025 H2013 0.950 . S
C2025 C2021 1.393 . S
C2025 C2024 1.391 . S
C2026 H2016 0.950 . S
C2026 C2027 1.386 . S
C2026 C2028 1.391 . S
C2027 C2026 1.386 . S
C2027 C2031 1.393 . S
C2028 H2017 0.950 . S
C2028 C2026 1.391 . S
C2028 C2029 1.400 . S
C2029 C2023 1.491 1_655 S
C2029 C2028 1.400 . S
C2029 C2030 1.398 . S
C2030 H2018 0.950 . S
C2030 C2029 1.398 . S
C2030 C2031 1.391 . S
C2031 H2019 0.950 . S
C2031 C2027 1.393 . S
C2031 C2030 1.391 . S
H2032 C2040 0.950 . S
H2033 C2045 0.950 . S
H2034 C2042 0.950 . S
H2035 C2044 0.950 . S
H2036 C2046 0.950 1_655 S
H2037 C2048 0.950 . S
H2038 C2050 0.950 . S
H2039 C2051 0.950 . S
C2040 H2032 0.950 . S
C2040 C2041 1.386 1_455 S
C2040 C2042 1.391 . S
C2041 C2040 1.386 1_655 S
C2041 C2045 1.393 . S
C2042 H2034 0.950 . S
C2042 C2040 1.391 . S
C2042 C2043 1.400 . S
C2043 C2042 1.400 . S
C2043 C2044 1.398 1_455 S
C2043 C2049 1.491 . S
C2044 H2035 0.950 . S
C2044 C2043 1.398 1_655 S
C2044 C2045 1.391 . S
C2045 H2033 0.950 . S
C2045 C2041 1.393 . S
C2045 C2044 1.391 . S
C2046 H2036 0.950 1_455 S
C2046 C2047 1.386 . S
C2046 C2048 1.391 1_455 S
C2047 C2046 1.386 . S
C2047 C2051 1.393 . S
C2048 H2037 0.950 . S
C2048 C2046 1.391 1_655 S
C2048 C2049 1.400 1_655 S
C2049 C2043 1.491 . S
C2049 C2048 1.400 1_455 S
C2049 C2050 1.398 . S
C2050 H2038 0.950 . S
C2050 C2049 1.398 . S
C2050 C2051 1.391 . S
C2051 H2039 0.950 . S
C2051 C2047 1.393 . S
C2051 C2050 1.391 . S
H2052 C2060 0.950 . S
H2053 C2065 0.950 . S
H2054 C2062 0.950 . S
H2055 C2064 0.950 . S
H2056 C2066 0.950 . S
H2057 C2068 0.950 . S
H2058 C2070 0.950 . S
H2059 C2071 0.950 . S
C2060 H2052 0.950 . S
C2060 C2061 1.386 . S
C2060 C2062 1.391 . S
C2061 C2060 1.386 . S
C2061 C2065 1.393 . S
C2062 H2054 0.950 . S
C2062 C2060 1.391 . S
C2062 C2063 1.400 . S
C2063 C2062 1.400 . S
C2063 C2064 1.398 . S
C2063 C2069 1.491 . S
C2064 H2055 0.950 . S
C2064 C2063 1.398 . S
C2064 C2065 1.391 . S
C2065 H2053 0.950 . S
C2065 C2061 1.393 . S
C2065 C2064 1.391 . S
C2066 H2056 0.950 . S
C2066 C2067 1.386 . S
C2066 C2068 1.391 . S
C2067 C2066 1.386 . S
C2067 C2071 1.393 . S
C2068 H2057 0.950 . S
C2068 C2066 1.391 . S
C2068 C2069 1.400 . S
C2069 C2063 1.491 . S
C2069 C2068 1.400 . S
C2069 C2070 1.398 . S
C2070 H2058 0.950 . S
C2070 C2069 1.398 . S
C2070 C2071 1.391 . S
C2071 H2059 0.950 . S
C2071 C2067 1.393 . S
C2071 C2070 1.391 . S
H2072 C2080 0.950 . S
H2073 C2085 0.950 . S
H2074 C2082 0.950 . S
H2075 C2084 0.950 . S
H2076 C2086 0.950 . S
H2077 C2088 0.950 . S
H2078 C2090 0.950 . S
H2079 C2091 0.950 . S
C2080 H2072 0.950 . S
C2080 C2081 1.386 . S
C2080 C2082 1.391 . S
C2081 C2080 1.386 . S
C2081 C2085 1.393 . S
C2082 H2074 0.950 . S
C2082 C2080 1.391 . S
C2082 C2083 1.400 . S
C2083 C2082 1.400 . S
C2083 C2084 1.398 . S
C2083 C2089 1.491 . S
C2084 H2075 0.950 . S
C2084 C2083 1.398 . S
C2084 C2085 1.391 . S
C2085 H2073 0.950 . S
C2085 C2081 1.393 . S
C2085 C2084 1.391 . S
C2086 H2076 0.950 . S
C2086 C2087 1.386 . S
C2086 C2088 1.391 . S
C2087 C2086 1.386 . S
C2087 C2091 1.393 . S
C2088 H2077 0.950 . S
C2088 C2086 1.391 . S
C2088 C2089 1.400 . S
C2089 C2083 1.491 . S
C2089 C2088 1.400 . S
C2089 C2090 1.398 . S
C2090 H2078 0.950 . S
C2090 C2089 1.398 . S
C2090 C2091 1.391 . S
C2091 H2079 0.950 . S
C2091 C2087 1.393 . S
C2091 C2090 1.391 . S
H2092 C2100 0.950 . S
H2093 C2105 0.950 . S
H2094 C2102 0.950 . S
H2095 C2104 0.950 . S
H2096 C2106 0.950 . S
H2097 C2108 0.950 . S
H2098 C2110 0.950 . S
H2099 C2111 0.950 . S
C2100 H2092 0.950 . S
C2100 C2101 1.386 . S
C2100 C2102 1.391 . S
C2101 C2100 1.386 . S
C2101 C2105 1.393 . S
C2102 H2094 0.950 . S
C2102 C2100 1.391 . S
C2102 C2103 1.400 . S
C2103 C2102 1.400 . S
C2103 C2104 1.398 . S
C2103 C2109 1.491 . S
C2104 H2095 0.950 . S
C2104 C2103 1.398 . S
C2104 C2105 1.391 . S
C2105 H2093 0.950 . S
C2105 C2101 1.393 . S
C2105 C2104 1.391 . S
C2106 H2096 0.950 . S
C2106 C2107 1.386 . S
C2106 C2108 1.391 . S
C2107 C2106 1.386 . S
C2107 C2111 1.393 . S
C2108 H2097 0.950 . S
C2108 C2106 1.391 . S
C2108 C2109 1.400 . S
C2109 C2103 1.491 . S
C2109 C2108 1.400 . S
C2109 C2110 1.398 . S
C2110 H2098 0.950 . S
C2110 C2109 1.398 . S
C2110 C2111 1.391 . S
C2111 H2099 0.950 . S
C2111 C2107 1.393 . S
C2111 C2110 1.391 . S
H2112 C2120 0.950 . S
H2113 C2125 0.950 . S
H2114 C2122 0.950 . S
H2115 C2124 0.950 . S
H2116 C2126 0.950 . S
H2117 C2128 0.950 . S
H2118 C2130 0.950 . S
H2119 C2131 0.950 . S
C2120 H2112 0.950 . S
C2120 C2121 1.386 . S
C2120 C2122 1.391 . S
C2121 C2120 1.386 . S
C2121 C2125 1.393 . S
C2122 H2114 0.950 . S
C2122 C2120 1.391 . S
C2122 C2123 1.400 . S
C2123 C2122 1.400 . S
C2123 C2124 1.398 . S
C2123 C2129 1.491 . S
C2124 H2115 0.950 . S
C2124 C2123 1.398 . S
C2124 C2125 1.391 . S
C2125 H2113 0.950 . S
C2125 C2121 1.393 . S
C2125 C2124 1.391 . S
C2126 H2116 0.950 . S
C2126 C2127 1.386 . S
C2126 C2128 1.391 . S
C2127 C2126 1.386 . S
C2127 C2131 1.393 . S
C2128 H2117 0.950 . S
C2128 C2126 1.391 . S
C2128 C2129 1.400 . S
C2129 C2123 1.491 . S
C2129 C2128 1.400 . S
C2129 C2130 1.398 . S
C2130 H2118 0.950 . S
C2130 C2129 1.398 . S
C2130 C2131 1.391 . S
C2131 H2119 0.950 . S
C2131 C2127 1.393 . S
C2131 C2130 1.391 . S
H2132 C2140 0.950 . S
H2133 C2145 0.950 . S
H2134 C2142 0.950 . S
H2135 C2144 0.950 . S
H2136 C2146 0.950 . S
H2137 C2148 0.950 . S
H2138 C2150 0.950 . S
H2139 C2151 0.950 . S
C2140 H2132 0.950 . S
C2140 C2141 1.386 . S
C2140 C2142 1.391 . S
C2141 C2140 1.386 . S
C2141 C2145 1.393 . S
C2142 H2134 0.950 . S
C2142 C2140 1.391 . S
C2142 C2143 1.400 . S
C2143 C2142 1.400 . S
C2143 C2144 1.398 . S
C2143 C2149 1.491 . S
C2144 H2135 0.950 . S
C2144 C2143 1.398 . S
C2144 C2145 1.391 . S
C2145 H2133 0.950 . S
C2145 C2141 1.393 . S
C2145 C2144 1.391 . S
C2146 H2136 0.950 . S
C2146 C2147 1.386 . S
C2146 C2148 1.391 . S
C2147 C2146 1.386 . S
C2147 C2151 1.393 . S
C2148 H2137 0.950 . S
C2148 C2146 1.391 . S
C2148 C2149 1.400 . S
C2149 C2143 1.491 . S
C2149 C2148 1.400 . S
C2149 C2150 1.398 . S
C2150 H2138 0.950 . S
C2150 C2149 1.398 . S
C2150 C2151 1.391 . S
C2151 H2139 0.950 . S
C2151 C2147 1.393 . S
C2151 C2150 1.391 . S
H2152 C2160 0.950 . S
H2153 C2165 0.950 . S
H2154 C2162 0.950 . S
H2155 C2164 0.950 . S
H2156 C2166 0.950 . S
H2157 C2168 0.950 . S
H2158 C2170 0.950 . S
H2159 C2171 0.950 . S
C2160 H2152 0.950 . S
C2160 C2161 1.386 . S
C2160 C2162 1.391 . S
C2161 C2160 1.386 . S
C2161 C2165 1.393 . S
C2162 H2154 0.950 . S
C2162 C2160 1.391 . S
C2162 C2163 1.400 . S
C2163 C2162 1.400 . S
C2163 C2164 1.398 . S
C2163 C2169 1.491 . S
C2164 H2155 0.950 . S
C2164 C2163 1.398 . S
C2164 C2165 1.391 . S
C2165 H2153 0.950 . S
C2165 C2161 1.393 . S
C2165 C2164 1.391 . S
C2166 H2156 0.950 . S
C2166 C2167 1.386 . S
C2166 C2168 1.391 . S
C2167 C2166 1.386 . S
C2167 C2171 1.393 . S
C2168 H2157 0.950 . S
C2168 C2166 1.391 . S
C2168 C2169 1.400 . S
C2169 C2163 1.491 . S
C2169 C2168 1.400 . S
C2169 C2170 1.398 . S
C2170 H2158 0.950 . S
C2170 C2169 1.398 . S
C2170 C2171 1.391 . S
C2171 H2159 0.950 . S
C2171 C2167 1.393 . S
C2171 C2170 1.391 . S
H2172 C2180 0.950 . S
H2173 C2185 0.950 . S
H2174 C2182 0.950 . S
H2175 C2184 0.950 . S
H2176 C2186 0.950 . S
H2177 C2188 0.950 . S
H2178 C2190 0.950 . S
H2179 C2191 0.950 . S
C2180 H2172 0.950 . S
C2180 C2181 1.386 . S
C2180 C2182 1.391 . S
C2181 C2180 1.386 . S
C2181 C2185 1.393 . S
C2182 H2174 0.950 . S
C2182 C2180 1.391 . S
C2182 C2183 1.400 . S
C2183 C2182 1.400 . S
C2183 C2184 1.398 . S
C2183 C2189 1.491 . S
C2184 H2175 0.950 . S
C2184 C2183 1.398 . S
C2184 C2185 1.391 . S
C2185 H2173 0.950 . S
C2185 C2181 1.393 . S
C2185 C2184 1.391 . S
C2186 H2176 0.950 . S
C2186 C2187 1.386 . S
C2186 C2188 1.391 . S
C2187 C2186 1.386 . S
C2187 C2191 1.393 . S
C2188 H2177 0.950 . S
C2188 C2186 1.391 . S
C2188 C2189 1.400 . S
C2189 C2183 1.491 . S
C2189 C2188 1.400 . S
C2189 C2190 1.398 . S
C2190 H2178 0.950 . S
C2190 C2189 1.398 . S
C2190 C2191 1.391 . S
C2191 H2179 0.950 . S
C2191 C2187 1.393 . S
C2191 C2190 1.391 . S
H2192 C2200 0.950 . S
H2193 C2205 0.950 . S
H2194 C2202 0.950 . S
H2195 C2204 0.950 . S
H2196 C2206 0.950 . S
H2197 C2208 0.950 . S
H2198 C2210 0.950 . S
H2199 C2211 0.950 . S
C2200 H2192 0.950 . S
C2200 C2201 1.386 . S
C2200 C2202 1.391 . S
C2201 C2200 1.386 . S
C2201 C2205 1.393 . S
C2202 H2194 0.950 . S
C2202 C2200 1.391 . S
C2202 C2203 1.400 . S
C2203 C2202 1.400 . S
C2203 C2204 1.398 . S
C2203 C2209 1.491 . S
C2204 H2195 0.950 . S
C2204 C2203 1.398 . S
C2204 C2205 1.391 . S
C2205 H2193 0.950 . S
C2205 C2201 1.393 . S
C2205 C2204 1.391 . S
C2206 H2196 0.950 . S
C2206 C2207 1.386 . S
C2206 C2208 1.391 . S
C2207 C2206 1.386 . S
C2207 C2211 1.393 . S
C2208 H2197 0.950 . S
C2208 C2206 1.391 . S
C2208 C2209 1.400 . S
C2209 C2203 1.491 . S
C2209 C2208 1.400 . S
C2209 C2210 1.398 . S
C2210 H2198 0.950 . S
C2210 C2209 1.398 . S
C2210 C2211 1.391 . S
C2211 H2199 0.950 . S
C2211 C2207 1.393 . S
C2211 C2210 1.391 . S
H2212 C2220 0.950 . S
H2213 C2225 0.950 . S
H2214 C2222 0.950 . S
H2215 C2224 0.950 . S
H2216 C2226 0.950 . S
H2217 C2228 0.950 . S
H2218 C2230 0.950 . S
H2219 C2231 0.950 . S
C2220 H2212 0.950 . S
C2220 C2221 1.386 . S
C2220 C2222 1.391 . S
C2221 C2220 1.386 . S
C2221 C2225 1.393 . S
C2222 H2214 0.950 . S
C2222 C2220 1.391 . S
C2222 C2223 1.400 . S
C2223 C2222 1.400 . S
C2223 C2224 1.398 . S
C2223 C2229 1.491 . S
C2224 H2215 0.950 . S
C2224 C2223 1.398 . S
C2224 C2225 1.391 . S
C2225 H2213 0.950 . S
C2225 C2221 1.393 . S
C2225 C2224 1.391 . S
C2226 H2216 0.950 . S
C2226 C2227 1.386 . S
C2226 C2228 1.391 . S
C2227 C2226 1.386 . S
C2227 C2231 1.393 . S
C2228 H2217 0.950 . S
C2228 C2226 1.391 . S
C2228 C2229 1.400 . S
C2229 C2223 1.491 . S
C2229 C2228 1.400 . S
C2229 C2230 1.398 . S
C2230 H2218 0.950 . S
C2230 C2229 1.398 . S
C2230 C2231 1.391 . S
C2231 H2219 0.950 . S
C2231 C2227 1.393 . S
C2231 C2230 1.391 . S
H2232 C2240 0.950 . S
H2233 C2245 0.950 . S
H2234 C2242 0.950 . S
H2235 C2244 0.950 . S
H2236 C2246 0.950 . S
H2237 C2248 0.950 . S
H2238 C2250 0.950 . S
H2239 C2251 0.950 . S
C2240 H2232 0.950 . S
C2240 C2241 1.386 . S
C2240 C2242 1.391 . S
C2241 C2240 1.386 . S
C2241 C2245 1.393 . S
C2242 H2234 0.950 . S
C2242 C2240 1.391 . S
C2242 C2243 1.400 . S
C2243 C2242 1.400 . S
C2243 C2244 1.398 . S
C2243 C2249 1.491 . S
C2244 H2235 0.950 . S
C2244 C2243 1.398 . S
C2244 C2245 1.391 . S
C2245 H2233 0.950 . S
C2245 C2241 1.393 . S
C2245 C2244 1.391 . S
C2246 H2236 0.950 . S
C2246 C2247 1.386 . S
C2246 C2248 1.391 . S
C2247 C2246 1.386 . S
C2247 C2251 1.393 . S
C2248 H2237 0.950 . S
C2248 C2246 1.391 . S
C2248 C2249 1.400 . S
C2249 C2243 1.491 . S
C2249 C2248 1.400 . S
C2249 C2250 1.398 . S
C2250 H2238 0.950 . S
C2250 C2249 1.398 . S
C2250 C2251 1.391 . S
C2251 H2239 0.950 . S
C2251 C2247 1.393 . S
C2251 C2250 1.391 . S
H2252 C2260 0.950 . S
H2253 C2265 0.950 . S
H2254 C2262 0.950 . S
H2255 C2264 0.950 . S
H2256 C2266 0.950 . S
H2257 C2268 0.950 . S
H2258 C2270 0.950 . S
H2259 C2271 0.950 . S
C2260 H2252 0.950 . S
C2260 C2261 1.386 . S
C2260 C2262 1.391 . S
C2261 C2260 1.386 . S
C2261 C2265 1.393 . S
C2262 H2254 0.950 . S
C2262 C2260 1.391 . S
C2262 C2263 1.400 . S
C2263 C2262 1.400 . S
C2263 C2264 1.398 . S
C2263 C2269 1.491 . S
C2264 H2255 0.950 . S
C2264 C2263 1.398 . S
C2264 C2265 1.391 . S
C2265 H2253 0.950 . S
C2265 C2261 1.393 . S
C2265 C2264 1.391 . S
C2266 H2256 0.950 . S
C2266 C2267 1.386 . S
C2266 C2268 1.391 . S
C2267 C2266 1.386 . S
C2267 C2271 1.393 . S
C2268 H2257 0.950 . S
C2268 C2266 1.391 . S
C2268 C2269 1.400 . S
C2269 C2263 1.491 . S
C2269 C2268 1.400 . S
C2269 C2270 1.398 . S
C2270 H2258 0.950 . S
C2270 C2269 1.398 . S
C2270 C2271 1.391 . S
C2271 H2259 0.950 . S
C2271 C2267 1.393 . S
C2271 C2270 1.391 . S
H2272 C2280 0.950 . S
H2273 C2285 0.950 . S
H2274 C2282 0.950 . S
H2275 C2284 0.950 . S
H2276 C2286 0.950 . S
H2277 C2288 0.950 . S
H2278 C2290 0.950 . S
H2279 C2291 0.950 . S
C2280 H2272 0.950 . S
C2280 C2281 1.386 . S
C2280 C2282 1.391 . S
C2281 C2280 1.386 . S
C2281 C2285 1.393 . S
C2282 H2274 0.950 . S
C2282 C2280 1.391 . S
C2282 C2283 1.400 . S
C2283 C2282 1.400 . S
C2283 C2284 1.398 . S
C2283 C2289 1.491 . S
C2284 H2275 0.950 . S
C2284 C2283 1.398 . S
C2284 C2285 1.391 . S
C2285 H2273 0.950 . S
C2285 C2281 1.393 . S
C2285 C2284 1.391 . S
C2286 H2276 0.950 . S
C2286 C2287 1.386 . S
C2286 C2288 1.391 . S
C2287 C2286 1.386 . S
C2287 C2291 1.393 . S
C2288 H2277 0.950 . S
C2288 C2286 1.391 . S
C2288 C2289 1.400 . S
C2289 C2283 1.491 . S
C2289 C2288 1.400 . S
C2289 C2290 1.398 . S
C2290 H2278 0.950 . S
C2290 C2289 1.398 . S
C2290 C2291 1.391 . S
C2291 H2279 0.950 . S
C2291 C2287 1.393 . S
C2291 C2290 1.391 . S
H2292 C2300 0.950 1_556 S
H2293 C2305 0.950 . S
H2294 C2302 0.956 1_556 S
H2295 C2304 0.950 . S
H2296 C2306 0.950 1_565 S
H2297 C2308 0.950 . S
H2298 C2310 0.924 1_556 S
H2299 C2311 0.950 1_556 S
C2300 H2292 0.950 1_554 S
C2300 C2301 1.386 . S
C2300 C2302 1.390 1_565 S
C2301 C2300 1.386 . S
C2301 C2305 1.393 . S
C2302 H2294 0.956 1_554 S
C2302 C2300 1.390 1_545 S
C2302 C2303 1.396 1_545 S
C2303 C2302 1.396 1_565 S
C2303 C2304 1.398 . S
C2303 C2309 1.491 1_565 S
C2304 H2295 0.950 . S
C2304 C2303 1.398 . S
C2304 C2305 1.391 . S
C2305 H2293 0.950 . S
C2305 C2301 1.393 . S
C2305 C2304 1.391 . S
C2306 H2296 0.950 1_545 S
C2306 C2307 1.386 . S
C2306 C2308 1.391 1_545 S
C2307 C2306 1.386 . S
C2307 C2311 1.393 . S
C2308 H2297 0.950 . S
C2308 C2306 1.391 1_565 S
C2308 C2309 1.400 1_565 S
C2309 C2303 1.491 1_545 S
C2309 C2308 1.400 1_545 S
C2309 C2310 1.431 . S
C2310 H2298 0.924 1_554 S
C2310 C2309 1.431 . S
C2310 C2311 1.385 . S
C2311 H2299 0.950 1_554 S
C2311 C2307 1.393 . S
C2311 C2310 1.385 . S
H2312 C2320 0.950 . S
H2313 C2325 0.950 . S
H2314 C2322 0.950 . S
H2315 C2324 0.950 . S
H2316 C2326 0.950 . S
H2317 C2328 0.950 . S
H2318 C2330 0.950 . S
H2319 C2331 0.950 . S
C2320 H2312 0.950 . S
C2320 C2321 1.386 . S
C2320 C2322 1.391 . S
C2321 C2320 1.386 . S
C2321 C2325 1.393 . S
C2322 H2314 0.950 . S
C2322 C2320 1.391 . S
C2322 C2323 1.400 . S
C2323 C2322 1.400 . S
C2323 C2324 1.398 . S
C2323 C2329 1.491 . S
C2324 H2315 0.950 . S
C2324 C2323 1.398 . S
C2324 C2325 1.391 . S
C2325 H2313 0.950 . S
C2325 C2321 1.393 . S
C2325 C2324 1.391 . S
C2326 H2316 0.950 . S
C2326 C2327 1.386 . S
C2326 C2328 1.391 . S
C2327 C2326 1.386 . S
C2327 C2331 1.393 . S
C2328 H2317 0.950 . S
C2328 C2326 1.391 . S
C2328 C2329 1.400 . S
C2329 C2323 1.491 . S
C2329 C2328 1.400 . S
C2329 C2330 1.398 . S
C2330 H2318 0.950 . S
C2330 C2329 1.398 . S
C2330 C2331 1.391 . S
C2331 H2319 0.950 . S
C2331 C2327 1.393 . S
C2331 C2330 1.391 . S
H2332 C2340 0.950 . S
H2333 C2345 0.950 . S
H2334 C2342 0.950 . S
H2335 C2344 0.950 . S
H2336 C2346 0.950 . S
H2337 C2348 0.950 . S
H2338 C2350 0.950 . S
H2339 C2351 0.950 . S
C2340 H2332 0.950 . S
C2340 C2341 1.386 . S
C2340 C2342 1.391 . S
C2341 C2340 1.386 . S
C2341 C2345 1.393 . S
C2342 H2334 0.950 . S
C2342 C2340 1.391 . S
C2342 C2343 1.400 . S
C2343 C2342 1.400 . S
C2343 C2344 1.398 . S
C2343 C2349 1.491 . S
C2344 H2335 0.950 . S
C2344 C2343 1.398 . S
C2344 C2345 1.391 . S
C2345 H2333 0.950 . S
C2345 C2341 1.393 . S
C2345 C2344 1.391 . S
C2346 H2336 0.950 . S
C2346 C2347 1.386 . S
C2346 C2348 1.391 . S
C2347 C2346 1.386 . S
C2347 C2351 1.393 . S
C2348 H2337 0.950 . S
C2348 C2346 1.391 . S
C2348 C2349 1.400 . S
C2349 C2343 1.491 . S
C2349 C2348 1.400 . S
C2349 C2350 1.398 . S
C2350 H2338 0.950 . S
C2350 C2349 1.398 . S
C2350 C2351 1.391 . S
C2351 H2339 0.950 . S
C2351 C2347 1.393 . S
C2351 C2350 1.391 . S
H2352 C2360 0.950 . S
H2353 C2365 0.950 . S
H2354 C2362 0.950 . S
H2355 C2364 0.950 . S
H2356 C2366 0.950 . S
H2357 C2368 0.950 . S
H2358 C2370 0.950 . S
H2359 C2371 0.950 . S
C2360 H2352 0.950 . S
C2360 C2361 1.386 . S
C2360 C2362 1.391 . S
C2361 C2360 1.386 . S
C2361 C2365 1.393 . S
C2362 H2354 0.950 . S
C2362 C2360 1.391 . S
C2362 C2363 1.400 . S
C2363 C2362 1.400 . S
C2363 C2364 1.398 . S
C2363 C2369 1.491 . S
C2364 H2355 0.950 . S
C2364 C2363 1.398 . S
C2364 C2365 1.391 . S
C2365 H2353 0.950 . S
C2365 C2361 1.393 . S
C2365 C2364 1.391 . S
C2366 H2356 0.950 . S
C2366 C2367 1.386 . S
C2366 C2368 1.391 . S
C2367 C2366 1.386 . S
C2367 C2371 1.393 . S
C2368 H2357 0.950 . S
C2368 C2366 1.391 . S
C2368 C2369 1.400 . S
C2369 C2363 1.491 . S
C2369 C2368 1.400 . S
C2369 C2370 1.398 . S
C2370 H2358 0.950 . S
C2370 C2369 1.398 . S
C2370 C2371 1.391 . S
C2371 H2359 0.950 . S
C2371 C2367 1.393 . S
C2371 C2370 1.391 . S
H2372 C2380 0.950 . S
H2373 C2385 0.950 . S
H2374 C2382 0.950 . S
H2375 C2384 0.950 . S
H2376 C2386 0.950 . S
H2377 C2388 0.950 . S
H2378 C2390 0.950 . S
H2379 C2391 0.950 . S
C2380 H2372 0.950 . S
C2380 C2381 1.386 . S
C2380 C2382 1.391 . S
C2381 C2380 1.386 . S
C2381 C2385 1.393 . S
C2382 H2374 0.950 . S
C2382 C2380 1.391 . S
C2382 C2383 1.400 . S
C2383 C2382 1.400 . S
C2383 C2384 1.398 . S
C2383 C2389 1.491 . S
C2384 H2375 0.950 . S
C2384 C2383 1.398 . S
C2384 C2385 1.391 . S
C2385 H2373 0.950 . S
C2385 C2381 1.393 . S
C2385 C2384 1.391 . S
C2386 H2376 0.950 . S
C2386 C2387 1.386 . S
C2386 C2388 1.391 . S
C2387 C2386 1.386 . S
C2387 C2391 1.393 . S
C2388 H2377 0.950 . S
C2388 C2386 1.391 . S
C2388 C2389 1.400 . S
C2389 C2383 1.491 . S
C2389 C2388 1.400 . S
C2389 C2390 1.398 . S
C2390 H2378 0.950 . S
C2390 C2389 1.398 . S
C2390 C2391 1.391 . S
C2391 H2379 0.950 . S
C2391 C2387 1.393 . S
C2391 C2390 1.391 . S
H2392 C2400 0.950 . S
H2393 C2405 0.950 . S
H2394 C2402 0.950 . S
H2395 C2404 0.950 . S
H2396 C2406 0.950 . S
H2397 C2408 0.950 . S
H2398 C2410 0.950 . S
H2399 C2411 0.950 . S
C2400 H2392 0.950 . S
C2400 C2401 1.386 . S
C2400 C2402 1.391 . S
C2401 C2400 1.386 . S
C2401 C2405 1.393 . S
C2402 H2394 0.950 . S
C2402 C2400 1.391 . S
C2402 C2403 1.400 . S
C2403 C2402 1.400 . S
C2403 C2404 1.398 . S
C2403 C2409 1.491 . S
C2404 H2395 0.950 . S
C2404 C2403 1.398 . S
C2404 C2405 1.391 . S
C2405 H2393 0.950 . S
C2405 C2401 1.393 . S
C2405 C2404 1.391 . S
C2406 H2396 0.950 . S
C2406 C2407 1.386 . S
C2406 C2408 1.391 . S
C2407 C2406 1.386 . S
C2407 C2411 1.393 . S
C2408 H2397 0.950 . S
C2408 C2406 1.391 . S
C2408 C2409 1.400 . S
C2409 C2403 1.491 . S
C2409 C2408 1.400 . S
C2409 C2410 1.398 . S
C2410 H2398 0.950 . S
C2410 C2409 1.398 . S
C2410 C2411 1.391 . S
C2411 H2399 0.950 . S
C2411 C2407 1.393 . S
C2411 C2410 1.391 . S
H2412 C2420 0.950 . S
H2413 C2425 0.950 . S
H2414 C2422 0.950 . S
H2415 C2424 0.950 . S
H2416 C2426 0.950 . S
H2417 C2428 0.950 . S
H2418 C2430 0.950 . S
H2419 C2431 0.950 . S
C2420 H2412 0.950 . S
C2420 C2421 1.386 . S
C2420 C2422 1.391 . S
C2421 C2420 1.386 . S
C2421 C2425 1.393 . S
C2422 H2414 0.950 . S
C2422 C2420 1.391 . S
C2422 C2423 1.400 . S
C2423 C2422 1.400 . S
C2423 C2424 1.398 . S
C2423 C2429 1.491 . S
C2424 H2415 0.950 . S
C2424 C2423 1.398 . S
C2424 C2425 1.391 . S
C2425 H2413 0.950 . S
C2425 C2421 1.393 . S
C2425 C2424 1.391 . S
C2426 H2416 0.950 . S
C2426 C2427 1.386 . S
C2426 C2428 1.391 . S
C2427 C2426 1.386 . S
C2427 C2431 1.393 . S
C2428 H2417 0.950 . S
C2428 C2426 1.391 . S
C2428 C2429 1.400 . S
C2429 C2423 1.491 . S
C2429 C2428 1.400 . S
C2429 C2430 1.398 . S
C2430 H2418 0.950 . S
C2430 C2429 1.398 . S
C2430 C2431 1.391 . S
C2431 H2419 0.950 . S
C2431 C2427 1.393 . S
C2431 C2430 1.391 . S
H2432 C2440 0.950 . S
H2433 C2445 0.950 . S
H2434 C2442 0.950 . S
H2435 C2444 0.950 . S
H2436 C2446 0.950 . S
H2437 C2448 0.950 . S
H2438 C2450 0.950 . S
H2439 C2451 0.950 . S
C2440 H2432 0.950 . S
C2440 C2441 1.386 . S
C2440 C2442 1.391 . S
C2441 C2440 1.386 . S
C2441 C2445 1.393 . S
C2442 H2434 0.950 . S
C2442 C2440 1.391 . S
C2442 C2443 1.400 . S
C2443 C2442 1.400 . S
C2443 C2444 1.398 . S
C2443 C2449 1.491 . S
C2444 H2435 0.950 . S
C2444 C2443 1.398 . S
C2444 C2445 1.391 . S
C2445 H2433 0.950 . S
C2445 C2441 1.393 . S
C2445 C2444 1.391 . S
C2446 H2436 0.950 . S
C2446 C2447 1.386 . S
C2446 C2448 1.391 . S
C2447 C2446 1.386 . S
C2447 C2451 1.393 . S
C2448 H2437 0.950 . S
C2448 C2446 1.391 . S
C2448 C2449 1.400 . S
C2449 C2443 1.491 . S
C2449 C2448 1.400 . S
C2449 C2450 1.398 . S
C2450 H2438 0.950 . S
C2450 C2449 1.398 . S
C2450 C2451 1.391 . S
C2451 H2439 0.950 . S
C2451 C2447 1.393 . S
C2451 C2450 1.391 . S
H2452 C2460 0.950 . S
H2453 C2465 0.950 . S
H2454 C2462 0.950 . S
H2455 C2464 0.950 . S
H2456 C2466 0.950 . S
H2457 C2468 0.950 . S
H2458 C2470 0.950 . S
H2459 C2471 0.950 . S
C2460 H2452 0.950 . S
C2460 C2461 1.386 . S
C2460 C2462 1.391 . S
C2461 C2460 1.386 . S
C2461 C2465 1.393 . S
C2462 H2454 0.950 . S
C2462 C2460 1.391 . S
C2462 C2463 1.400 . S
C2463 C2462 1.400 . S
C2463 C2464 1.398 . S
C2463 C2469 1.491 . S
C2464 H2455 0.950 . S
C2464 C2463 1.398 . S
C2464 C2465 1.391 . S
C2465 H2453 0.950 . S
C2465 C2461 1.393 . S
C2465 C2464 1.391 . S
C2466 H2456 0.950 . S
C2466 C2467 1.386 . S
C2466 C2468 1.391 . S
C2467 C2466 1.386 . S
C2467 C2471 1.393 . S
C2468 H2457 0.950 . S
C2468 C2466 1.391 . S
C2468 C2469 1.400 . S
C2469 C2463 1.491 . S
C2469 C2468 1.400 . S
C2469 C2470 1.398 . S
C2470 H2458 0.950 . S
C2470 C2469 1.398 . S
C2470 C2471 1.391 . S
C2471 H2459 0.950 . S
C2471 C2467 1.393 . S
C2471 C2470 1.391 . S
H2472 C2480 0.950 . S
H2473 C2485 0.950 . S
H2474 C2482 0.950 . S
H2475 C2484 0.950 . S
H2476 C2486 0.950 . S
H2477 C2488 0.950 . S
H2478 C2490 0.950 . S
H2479 C2491 0.950 . S
C2480 H2472 0.950 . S
C2480 C2481 1.386 . S
C2480 C2482 1.391 . S
C2481 C2480 1.386 . S
C2481 C2485 1.393 . S
C2482 H2474 0.950 . S
C2482 C2480 1.391 . S
C2482 C2483 1.400 . S
C2483 C2482 1.400 . S
C2483 C2484 1.398 . S
C2483 C2489 1.491 . S
C2484 H2475 0.950 . S
C2484 C2483 1.398 . S
C2484 C2485 1.391 . S
C2485 H2473 0.950 . S
C2485 C2481 1.393 . S
C2485 C2484 1.391 . S
C2486 H2476 0.950 . S
C2486 C2487 1.386 . S
C2486 C2488 1.391 . S
C2487 C2486 1.386 . S
C2487 C2491 1.393 . S
C2488 H2477 0.950 . S
C2488 C2486 1.391 . S
C2488 C2489 1.400 . S
C2489 C2483 1.491 . S
C2489 C2488 1.400 . S
C2489 C2490 1.398 . S
C2490 H2478 0.950 . S
C2490 C2489 1.398 . S
C2490 C2491 1.391 . S
C2491 H2479 0.950 . S
C2491 C2487 1.393 . S
C2491 C2490 1.391 . S
H2492 C2500 0.950 . S
H2493 C2505 0.950 . S
H2494 C2502 0.950 . S
H2495 C2504 0.950 . S
H2496 C2506 0.950 . S
H2497 C2508 0.950 . S
H2498 C2510 0.950 . S
H2499 C2511 0.950 . S
C2500 H2492 0.950 . S
C2500 C2501 1.386 . S
C2500 C2502 1.391 . S
C2501 C2500 1.386 . S
C2501 C2505 1.393 . S
C2502 H2494 0.950 . S
C2502 C2500 1.391 . S
C2502 C2503 1.400 . S
C2503 C2502 1.400 . S
C2503 C2504 1.398 . S
C2503 C2509 1.491 . S
C2504 H2495 0.950 . S
C2504 C2503 1.398 . S
C2504 C2505 1.391 . S
C2505 H2493 0.950 . S
C2505 C2501 1.393 . S
C2505 C2504 1.391 . S
C2506 H2496 0.950 . S
C2506 C2507 1.386 . S
C2506 C2508 1.391 . S
C2507 C2506 1.386 . S
C2507 C2511 1.393 . S
C2508 H2497 0.950 . S
C2508 C2506 1.391 . S
C2508 C2509 1.400 . S
C2509 C2503 1.491 . S
C2509 C2508 1.400 . S
C2509 C2510 1.398 . S
C2510 H2498 0.950 . S
C2510 C2509 1.398 . S
C2510 C2511 1.391 . S
C2511 H2499 0.950 . S
C2511 C2507 1.393 . S
C2511 C2510 1.391 . S
H2512 C2520 0.950 . S
H2513 C2525 0.950 . S
H2514 C2522 0.950 . S
H2515 C2524 0.950 . S
H2516 C2526 0.950 . S
H2517 C2528 0.950 . S
H2518 C2530 0.950 . S
H2519 C2531 0.950 . S
C2520 H2512 0.950 . S
C2520 C2521 1.386 . S
C2520 C2522 1.391 . S
C2521 C2520 1.386 . S
C2521 C2525 1.393 . S
C2522 H2514 0.950 . S
C2522 C2520 1.391 . S
C2522 C2523 1.400 . S
C2523 C2522 1.400 . S
C2523 C2524 1.398 . S
C2523 C2529 1.491 . S
C2524 H2515 0.950 . S
C2524 C2523 1.398 . S
C2524 C2525 1.391 . S
C2525 H2513 0.950 . S
C2525 C2521 1.393 . S
C2525 C2524 1.391 . S
C2526 H2516 0.950 . S
C2526 C2527 1.386 . S
C2526 C2528 1.391 . S
C2527 C2526 1.386 . S
C2527 C2531 1.393 . S
C2528 H2517 0.950 . S
C2528 C2526 1.391 . S
C2528 C2529 1.400 . S
C2529 C2523 1.491 . S
C2529 C2528 1.400 . S
C2529 C2530 1.398 . S
C2530 H2518 0.950 . S
C2530 C2529 1.398 . S
C2530 C2531 1.391 . S
C2531 H2519 0.950 . S
C2531 C2527 1.393 . S
C2531 C2530 1.391 . S
H2532 C2540 0.950 . S
H2533 C2545 0.950 . S
H2534 C2542 0.950 . S
H2535 C2544 0.950 . S
H2536 C2546 0.950 . S
H2537 C2548 0.950 . S
H2538 C2550 0.950 . S
H2539 C2551 0.950 . S
C2540 H2532 0.950 . S
C2540 C2541 1.386 . S
C2540 C2542 1.391 . S
C2541 C2540 1.386 . S
C2541 C2545 1.393 . S
C2542 H2534 0.950 . S
C2542 C2540 1.391 . S
C2542 C2543 1.400 . S
C2543 C2542 1.400 . S
C2543 C2544 1.398 . S
C2543 C2549 1.491 . S
C2544 H2535 0.950 . S
C2544 C2543 1.398 . S
C2544 C2545 1.391 . S
C2545 H2533 0.950 . S
C2545 C2541 1.393 . S
C2545 C2544 1.391 . S
C2546 H2536 0.950 . S
C2546 C2547 1.386 . S
C2546 C2548 1.391 . S
C2547 C2546 1.386 . S
C2547 C2551 1.393 . S
C2548 H2537 0.950 . S
C2548 C2546 1.391 . S
C2548 C2549 1.400 . S
C2549 C2543 1.491 . S
C2549 C2548 1.400 . S
C2549 C2550 1.398 . S
C2550 H2538 0.950 . S
C2550 C2549 1.398 . S
C2550 C2551 1.391 . S
C2551 H2539 0.950 . S
C2551 C2547 1.393 . S
C2551 C2550 1.391 . S
H2552 C2560 0.950 . S
H2553 C2565 0.950 . S
H2554 C2562 0.950 . S
H2555 C2564 0.950 . S
H2556 C2566 0.950 . S
H2557 C2568 0.950 . S
H2558 C2570 0.950 . S
H2559 C2571 0.950 . S
C2560 H2552 0.950 . S
C2560 C2561 1.386 . S
C2560 C2562 1.391 . S
C2561 C2560 1.386 . S
C2561 C2565 1.393 . S
C2562 H2554 0.950 . S
C2562 C2560 1.391 . S
C2562 C2563 1.400 . S
C2563 C2562 1.400 . S
C2563 C2564 1.398 . S
C2563 C2569 1.491 . S
C2564 H2555 0.950 . S
C2564 C2563 1.398 . S
C2564 C2565 1.391 . S
C2565 H2553 0.950 . S
C2565 C2561 1.393 . S
C2565 C2564 1.391 . S
C2566 H2556 0.950 . S
C2566 C2567 1.386 . S
C2566 C2568 1.391 . S
C2567 C2566 1.386 . S
C2567 C2571 1.393 . S
C2568 H2557 0.950 . S
C2568 C2566 1.391 . S
C2568 C2569 1.400 . S
C2569 C2563 1.491 . S
C2569 C2568 1.400 . S
C2569 C2570 1.398 . S
C2570 H2558 0.950 . S
C2570 C2569 1.398 . S
C2570 C2571 1.391 . S
C2571 H2559 0.950 . S
C2571 C2567 1.393 . S
C2571 C2570 1.391 . S
H2572 C2580 0.950 . S
H2573 C2585 0.950 . S
H2574 C2582 0.950 . S
H2575 C2584 0.950 . S
H2576 C2586 0.950 . S
H2577 C2588 0.950 . S
H2578 C2590 0.950 . S
H2579 C2591 0.950 . S
C2580 H2572 0.950 . S
C2580 C2581 1.386 . S
C2580 C2582 1.391 . S
C2581 C2580 1.386 . S
C2581 C2585 1.393 . S
C2582 H2574 0.950 . S
C2582 C2580 1.391 . S
C2582 C2583 1.400 . S
C2583 C2582 1.400 . S
C2583 C2584 1.398 . S
C2583 C2589 1.491 . S
C2584 H2575 0.950 . S
C2584 C2583 1.398 . S
C2584 C2585 1.391 . S
C2585 H2573 0.950 . S
C2585 C2581 1.393 . S
C2585 C2584 1.391 . S
C2586 H2576 0.950 . S
C2586 C2587 1.386 . S
C2586 C2588 1.391 . S
C2587 C2586 1.386 . S
C2587 C2591 1.393 . S
C2588 H2577 0.950 . S
C2588 C2586 1.391 . S
C2588 C2589 1.400 . S
C2589 C2583 1.491 . S
C2589 C2588 1.400 . S
C2589 C2590 1.398 . S
C2590 H2578 0.950 . S
C2590 C2589 1.398 . S
C2590 C2591 1.391 . S
C2591 H2579 0.950 . S
C2591 C2587 1.393 . S
C2591 C2590 1.391 . S
H2592 C2600 0.950 . S
H2593 C2605 0.950 . S
H2594 C2602 0.950 . S
H2595 C2604 0.950 . S
H2596 C2606 0.950 . S
H2597 C2608 0.950 . S
H2598 C2610 0.950 1_455 S
H2599 C2611 0.950 . S
C2600 H2592 0.950 . S
C2600 C2601 1.386 . S
C2600 C2602 1.391 . S
C2601 C2600 1.386 . S
C2601 C2605 1.393 . S
C2602 H2594 0.950 . S
C2602 C2600 1.391 . S
C2602 C2603 1.400 . S
C2603 C2602 1.400 . S
C2603 C2604 1.398 . S
C2603 C2609 1.491 . S
C2604 H2595 0.950 . S
C2604 C2603 1.398 . S
C2604 C2605 1.391 . S
C2605 H2593 0.950 . S
C2605 C2601 1.393 . S
C2605 C2604 1.391 . S
C2606 H2596 0.950 . S
C2606 C2607 1.386 1_655 S
C2606 C2608 1.391 . S
C2607 C2606 1.386 1_455 S
C2607 C2611 1.393 . S
C2608 H2597 0.950 . S
C2608 C2606 1.391 . S
C2608 C2609 1.400 . S
C2609 C2603 1.491 . S
C2609 C2608 1.400 . S
C2609 C2610 1.398 . S
C2610 H2598 0.950 1_655 S
C2610 C2609 1.398 . S
C2610 C2611 1.391 1_655 S
C2611 H2599 0.950 . S
C2611 C2607 1.393 . S
C2611 C2610 1.391 1_455 S
H2612 C2620 0.950 . S
H2613 C2625 0.950 . S
H2614 C2622 0.950 . S
H2615 C2624 0.950 . S
H2616 C2626 0.950 . S
H2617 C2628 0.950 . S
H2618 C2630 0.950 . S
H2619 C2631 0.950 . S
C2620 H2612 0.950 . S
C2620 C2621 1.386 . S
C2620 C2622 1.391 . S
C2621 C2620 1.386 . S
C2621 C2625 1.393 . S
C2622 H2614 0.950 . S
C2622 C2620 1.391 . S
C2622 C2623 1.400 . S
C2623 C2622 1.400 . S
C2623 C2624 1.398 . S
C2623 C2629 1.491 . S
C2624 H2615 0.950 . S
C2624 C2623 1.398 . S
C2624 C2625 1.391 . S
C2625 H2613 0.950 . S
C2625 C2621 1.393 . S
C2625 C2624 1.391 . S
C2626 H2616 0.950 . S
C2626 C2627 1.386 . S
C2626 C2628 1.391 . S
C2627 C2626 1.386 . S
C2627 C2631 1.393 . S
C2628 H2617 0.950 . S
C2628 C2626 1.391 . S
C2628 C2629 1.400 . S
C2629 C2623 1.491 . S
C2629 C2628 1.400 . S
C2629 C2630 1.398 . S
C2630 H2618 0.950 . S
C2630 C2629 1.398 . S
C2630 C2631 1.391 . S
C2631 H2619 0.950 . S
C2631 C2627 1.393 . S
C2631 C2630 1.391 . S
H2632 C2640 0.950 . S
H2633 C2645 0.950 . S
H2634 C2642 0.950 . S
H2635 C2644 0.950 . S
H2636 C2646 0.950 . S
H2637 C2648 0.950 . S
H2638 C2650 0.950 . S
H2639 C2651 0.950 . S
C2640 H2632 0.950 . S
C2640 C2641 1.386 . S
C2640 C2642 1.391 . S
C2641 C2640 1.386 . S
C2641 C2645 1.393 . S
C2642 H2634 0.950 . S
C2642 C2640 1.391 . S
C2642 C2643 1.400 . S
C2643 C2642 1.400 . S
C2643 C2644 1.398 . S
C2643 C2649 1.491 . S
C2644 H2635 0.950 . S
C2644 C2643 1.398 . S
C2644 C2645 1.391 . S
C2645 H2633 0.950 . S
C2645 C2641 1.393 . S
C2645 C2644 1.391 . S
C2646 H2636 0.950 . S
C2646 C2647 1.386 . S
C2646 C2648 1.391 . S
C2647 C2646 1.386 . S
C2647 C2651 1.393 . S
C2648 H2637 0.950 . S
C2648 C2646 1.391 . S
C2648 C2649 1.400 . S
C2649 C2643 1.491 . S
C2649 C2648 1.400 . S
C2649 C2650 1.398 . S
C2650 H2638 0.950 . S
C2650 C2649 1.398 . S
C2650 C2651 1.391 . S
C2651 H2639 0.950 . S
C2651 C2647 1.393 . S
C2651 C2650 1.391 . S
H2652 C2660 0.950 . S
H2653 C2665 0.950 . S
H2654 C2662 0.950 . S
H2655 C2664 0.950 . S
H2656 C2666 0.950 . S
H2657 C2668 0.950 . S
H2658 C2670 0.950 . S
H2659 C2671 0.950 . S
C2660 H2652 0.950 . S
C2660 C2661 1.386 . S
C2660 C2662 1.391 . S
C2661 C2660 1.386 . S
C2661 C2665 1.393 . S
C2662 H2654 0.950 . S
C2662 C2660 1.391 . S
C2662 C2663 1.400 . S
C2663 C2662 1.400 . S
C2663 C2664 1.398 . S
C2663 C2669 1.491 . S
C2664 H2655 0.950 . S
C2664 C2663 1.398 . S
C2664 C2665 1.391 . S
C2665 H2653 0.950 . S
C2665 C2661 1.393 . S
C2665 C2664 1.391 . S
C2666 H2656 0.950 . S
C2666 C2667 1.386 . S
C2666 C2668 1.391 . S
C2667 C2666 1.386 . S
C2667 C2671 1.393 . S
C2668 H2657 0.950 . S
C2668 C2666 1.391 . S
C2668 C2669 1.400 . S
C2669 C2663 1.491 . S
C2669 C2668 1.400 . S
C2669 C2670 1.398 . S
C2670 H2658 0.950 . S
C2670 C2669 1.398 . S
C2670 C2671 1.391 . S
C2671 H2659 0.950 . S
C2671 C2667 1.393 . S
C2671 C2670 1.391 . S
H2672 C2680 0.950 . S
H2673 C2685 0.950 . S
H2674 C2682 0.950 . S
H2675 C2684 0.950 . S
H2676 C2686 0.950 . S
H2677 C2688 0.950 . S
H2678 C2690 0.950 . S
H2679 C2691 0.950 . S
C2680 H2672 0.950 . S
C2680 C2681 1.386 . S
C2680 C2682 1.391 . S
C2681 C2680 1.386 . S
C2681 C2685 1.393 . S
C2682 H2674 0.950 . S
C2682 C2680 1.391 . S
C2682 C2683 1.400 . S
C2683 C2682 1.400 . S
C2683 C2684 1.398 . S
C2683 C2689 1.491 . S
C2684 H2675 0.950 . S
C2684 C2683 1.398 . S
C2684 C2685 1.391 . S
C2685 H2673 0.950 . S
C2685 C2681 1.393 . S
C2685 C2684 1.391 . S
C2686 H2676 0.950 . S
C2686 C2687 1.386 . S
C2686 C2688 1.391 . S
C2687 C2686 1.386 . S
C2687 C2691 1.393 . S
C2688 H2677 0.950 . S
C2688 C2686 1.391 . S
C2688 C2689 1.400 . S
C2689 C2683 1.491 . S
C2689 C2688 1.400 . S
C2689 C2690 1.398 . S
C2690 H2678 0.950 . S
C2690 C2689 1.398 . S
C2690 C2691 1.391 . S
C2691 H2679 0.950 . S
C2691 C2687 1.393 . S
C2691 C2690 1.391 . S
H2692 C2700 0.950 . S
H2693 C2705 0.950 . S
H2694 C2702 0.950 . S
H2695 C2704 0.950 . S
H2696 C2706 0.950 . S
H2697 C2708 0.950 . S
H2698 C2710 0.950 . S
H2699 C2711 0.950 . S
C2700 H2692 0.950 . S
C2700 C2701 1.386 . S
C2700 C2702 1.391 . S
C2701 C2700 1.386 . S
C2701 C2705 1.393 . S
C2702 H2694 0.950 . S
C2702 C2700 1.391 . S
C2702 C2703 1.400 . S
C2703 C2702 1.400 . S
C2703 C2704 1.398 . S
C2703 C2709 1.491 . S
C2704 H2695 0.950 . S
C2704 C2703 1.398 . S
C2704 C2705 1.391 . S
C2705 H2693 0.950 . S
C2705 C2701 1.393 . S
C2705 C2704 1.391 . S
C2706 H2696 0.950 . S
C2706 C2707 1.386 . S
C2706 C2708 1.391 . S
C2707 C2706 1.386 . S
C2707 C2711 1.393 . S
C2708 H2697 0.950 . S
C2708 C2706 1.391 . S
C2708 C2709 1.400 . S
C2709 C2703 1.491 . S
C2709 C2708 1.400 . S
C2709 C2710 1.398 . S
C2710 H2698 0.950 . S
C2710 C2709 1.398 . S
C2710 C2711 1.391 . S
C2711 H2699 0.950 . S
C2711 C2707 1.393 . S
C2711 C2710 1.391 . S
H2712 C2720 0.950 . S
H2713 C2725 0.950 . S
H2714 C2722 0.950 . S
H2715 C2724 0.950 . S
H2716 C2726 0.950 . S
H2717 C2728 0.950 . S
H2718 C2730 0.950 . S
H2719 C2731 0.950 . S
C2720 H2712 0.950 . S
C2720 C2721 1.386 . S
C2720 C2722 1.391 . S
C2721 C2720 1.386 . S
C2721 C2725 1.393 . S
C2722 H2714 0.950 . S
C2722 C2720 1.391 . S
C2722 C2723 1.400 . S
C2723 C2722 1.400 . S
C2723 C2724 1.398 . S
C2723 C2729 1.491 . S
C2724 H2715 0.950 . S
C2724 C2723 1.398 . S
C2724 C2725 1.391 . S
C2725 H2713 0.950 . S
C2725 C2721 1.393 . S
C2725 C2724 1.391 . S
C2726 H2716 0.950 . S
C2726 C2727 1.386 . S
C2726 C2728 1.391 . S
C2727 C2726 1.386 . S
C2727 C2731 1.393 . S
C2728 H2717 0.950 . S
C2728 C2726 1.391 . S
C2728 C2729 1.400 . S
C2729 C2723 1.491 . S
C2729 C2728 1.400 . S
C2729 C2730 1.398 . S
C2730 H2718 0.950 . S
C2730 C2729 1.398 . S
C2730 C2731 1.391 . S
C2731 H2719 0.950 . S
C2731 C2727 1.393 . S
C2731 C2730 1.391 . S
H2732 C2740 0.950 . S
H2733 C2745 0.950 . S
H2734 C2742 0.950 . S
H2735 C2744 0.950 . S
H2736 C2746 0.950 1_545 S
H2737 C2748 0.950 . S
H2738 C2750 0.950 . S
H2739 C2751 0.950 . S
C2740 H2732 0.950 . S
C2740 C2741 1.386 . S
C2740 C2742 1.391 . S
C2741 C2740 1.386 . S
C2741 C2745 1.393 . S
C2742 H2734 0.950 . S
C2742 C2740 1.391 . S
C2742 C2743 1.400 . S
C2743 C2742 1.400 . S
C2743 C2744 1.398 . S
C2743 C2749 1.491 . S
C2744 H2735 0.950 . S
C2744 C2743 1.398 . S
C2744 C2745 1.391 . S
C2745 H2733 0.950 . S
C2745 C2741 1.393 . S
C2745 C2744 1.391 . S
C2746 H2736 0.950 1_565 S
C2746 C2747 1.386 . S
C2746 C2748 1.391 . S
C2747 C2746 1.386 . S
C2747 C2751 1.393 . S
C2748 H2737 0.950 . S
C2748 C2746 1.391 . S
C2748 C2749 1.400 . S
C2749 C2743 1.491 . S
C2749 C2748 1.400 . S
C2749 C2750 1.398 . S
C2750 H2738 0.950 . S
C2750 C2749 1.398 . S
C2750 C2751 1.391 . S
C2751 H2739 0.950 . S
C2751 C2747 1.393 . S
C2751 C2750 1.391 . S
H2752 C2760 0.950 . S
H2753 C2765 0.950 . S
H2754 C2762 0.950 . S
H2755 C2764 0.950 . S
H2756 C2766 0.950 . S
H2757 C2768 0.950 . S
H2758 C2770 0.950 . S
H2759 C2771 0.950 . S
C2760 H2752 0.950 . S
C2760 C2761 1.386 . S
C2760 C2762 1.391 . S
C2761 C2760 1.386 . S
C2761 C2765 1.393 . S
C2762 H2754 0.950 . S
C2762 C2760 1.391 . S
C2762 C2763 1.400 . S
C2763 C2762 1.400 . S
C2763 C2764 1.398 . S
C2763 C2769 1.491 . S
C2764 H2755 0.950 . S
C2764 C2763 1.398 . S
C2764 C2765 1.391 . S
C2765 H2753 0.950 . S
C2765 C2761 1.393 . S
C2765 C2764 1.391 . S
C2766 H2756 0.950 . S
C2766 C2767 1.386 . S
C2766 C2768 1.391 . S
C2767 C2766 1.386 . S
C2767 C2771 1.393 . S
C2768 H2757 0.950 . S
C2768 C2766 1.391 . S
C2768 C2769 1.400 . S
C2769 C2763 1.491 . S
C2769 C2768 1.400 . S
C2769 C2770 1.398 . S
C2770 H2758 0.950 . S
C2770 C2769 1.398 . S
C2770 C2771 1.391 . S
C2771 H2759 0.950 . S
C2771 C2767 1.393 . S
C2771 C2770 1.391 . S
H2772 C2780 0.950 . S
H2773 C2785 0.950 1_556 S
H2774 C2782 0.950 . S
H2775 C2784 0.950 1_556 S
H2776 C2786 0.950 . S
H2777 C2788 0.950 . S
H2778 C2790 0.950 . S
H2779 C2791 0.950 . S
C2780 H2772 0.950 . S
C2780 C2781 1.386 . S
C2780 C2782 1.391 . S
C2781 C2780 1.386 . S
C2781 C2785 1.393 . S
C2782 H2774 0.950 . S
C2782 C2780 1.391 . S
C2782 C2783 1.400 . S
C2783 C2782 1.400 . S
C2783 C2784 1.398 . S
C2783 C2789 1.491 . S
C2784 H2775 0.950 1_554 S
C2784 C2783 1.398 . S
C2784 C2785 1.391 . S
C2785 H2773 0.950 1_554 S
C2785 C2781 1.393 . S
C2785 C2784 1.391 . S
C2786 H2776 0.950 . S
C2786 C2787 1.386 1_556 S
C2786 C2788 1.391 . S
C2787 C2786 1.386 1_554 S
C2787 C2791 1.393 . S
C2788 H2777 0.950 . S
C2788 C2786 1.391 . S
C2788 C2789 1.400 1_556 S
C2789 C2783 1.491 . S
C2789 C2788 1.400 1_554 S
C2789 C2790 1.398 . S
C2790 H2778 0.950 . S
C2790 C2789 1.398 . S
C2790 C2791 1.391 . S
C2791 H2779 0.950 . S
C2791 C2787 1.393 . S
C2791 C2790 1.391 . S
H2792 C2800 0.950 . S
H2793 C2805 0.950 . S
H2794 C2802 0.950 . S
H2795 C2804 0.950 . S
H2796 C2806 0.950 . S
H2797 C2808 0.950 . S
H2798 C2810 0.950 . S
H2799 C2811 0.950 . S
C2800 H2792 0.950 . S
C2800 C2801 1.386 . S
C2800 C2802 1.391 . S
C2801 C2800 1.386 . S
C2801 C2805 1.393 . S
C2802 H2794 0.950 . S
C2802 C2800 1.391 . S
C2802 C2803 1.400 . S
C2803 C2802 1.400 . S
C2803 C2804 1.398 . S
C2803 C2809 1.491 . S
C2804 H2795 0.950 . S
C2804 C2803 1.398 . S
C2804 C2805 1.391 . S
C2805 H2793 0.950 . S
C2805 C2801 1.393 . S
C2805 C2804 1.391 . S
C2806 H2796 0.950 . S
C2806 C2807 1.386 . S
C2806 C2808 1.391 . S
C2807 C2806 1.386 . S
C2807 C2811 1.393 . S
C2808 H2797 0.950 . S
C2808 C2806 1.391 . S
C2808 C2809 1.400 . S
C2809 C2803 1.491 . S
C2809 C2808 1.400 . S
C2809 C2810 1.398 . S
C2810 H2798 0.950 . S
C2810 C2809 1.398 . S
C2810 C2811 1.391 . S
C2811 H2799 0.950 . S
C2811 C2807 1.393 . S
C2811 C2810 1.391 . S
H2812 C2820 0.950 . S
H2813 C2825 0.950 . S
H2814 C2822 0.950 . S
H2815 C2824 0.950 . S
H2816 C2826 0.950 . S
H2817 C2828 0.950 . S
H2818 C2830 0.949 1_556 S
H2819 C2831 0.950 . S
C2820 H2812 0.950 . S
C2820 C2821 1.386 . S
C2820 C2822 1.391 . S
C2821 C2820 1.386 . S
C2821 C2825 1.393 . S
C2822 H2814 0.950 . S
C2822 C2820 1.391 . S
C2822 C2823 1.400 . S
C2823 C2822 1.400 . S
C2823 C2824 1.398 . S
C2823 C2829 1.491 . S
C2824 H2815 0.950 . S
C2824 C2823 1.398 . S
C2824 C2825 1.391 . S
C2825 H2813 0.950 . S
C2825 C2821 1.393 . S
C2825 C2824 1.391 . S
C2826 H2816 0.950 . S
C2826 C2827 1.386 . S
C2826 C2828 1.391 . S
C2827 C2826 1.386 . S
C2827 C2831 1.393 1_554 S
C2828 H2817 0.950 . S
C2828 C2826 1.391 . S
C2828 C2829 1.400 . S
C2829 C2823 1.491 . S
C2829 C2828 1.400 . S
C2829 C2830 1.398 . S
C2830 H2818 0.949 1_554 S
C2830 C2829 1.398 . S
C2830 C2831 1.391 1_554 S
C2831 H2819 0.950 . S
C2831 C2827 1.393 1_556 S
C2831 C2830 1.391 1_556 S
H2832 C2840 0.950 . S
H2833 C2845 0.950 . S
H2834 C2842 0.950 . S
H2835 C2844 0.950 . S
H2836 C2846 0.950 . S
H2837 C2848 0.950 . S
H2838 C2850 0.950 . S
H2839 C2851 0.950 . S
C2840 H2832 0.950 . S
C2840 C2841 1.386 . S
C2840 C2842 1.391 . S
C2841 C2840 1.386 . S
C2841 C2845 1.393 . S
C2842 H2834 0.950 . S
C2842 C2840 1.391 . S
C2842 C2843 1.400 . S
C2843 C2842 1.400 . S
C2843 C2844 1.398 . S
C2843 C2849 1.491 . S
C2844 H2835 0.950 . S
C2844 C2843 1.398 . S
C2844 C2845 1.391 . S
C2845 H2833 0.950 . S
C2845 C2841 1.393 . S
C2845 C2844 1.391 . S
C2846 H2836 0.950 . S
C2846 C2847 1.386 . S
C2846 C2848 1.391 . S
C2847 C2846 1.386 . S
C2847 C2851 1.393 . S
C2848 H2837 0.950 . S
C2848 C2846 1.391 . S
C2848 C2849 1.400 . S
C2849 C2843 1.491 . S
C2849 C2848 1.400 . S
C2849 C2850 1.398 . S
C2850 H2838 0.950 . S
C2850 C2849 1.398 . S
C2850 C2851 1.391 . S
C2851 H2839 0.950 . S
C2851 C2847 1.393 . S
C2851 C2850 1.391 . S
H2852 C2860 0.950 . S
H2853 C2865 0.950 . S
H2854 C2862 0.950 . S
H2855 C2864 0.950 . S
H2856 C2866 0.950 . S
H2857 C2868 0.950 . S
H2858 C2870 0.950 . S
H2859 C2871 0.950 . S
C2860 H2852 0.950 . S
C2860 C2861 1.386 . S
C2860 C2862 1.391 . S
C2861 C2860 1.386 . S
C2861 C2865 1.393 . S
C2862 H2854 0.950 . S
C2862 C2860 1.391 . S
C2862 C2863 1.400 . S
C2863 C2862 1.400 . S
C2863 C2864 1.398 . S
C2863 C2869 1.491 . S
C2864 H2855 0.950 . S
C2864 C2863 1.398 . S
C2864 C2865 1.391 . S
C2865 H2853 0.950 . S
C2865 C2861 1.393 . S
C2865 C2864 1.391 . S
C2866 H2856 0.950 . S
C2866 C2867 1.386 . S
C2866 C2868 1.391 . S
C2867 C2866 1.386 . S
C2867 C2871 1.393 . S
C2868 H2857 0.950 . S
C2868 C2866 1.391 . S
C2868 C2869 1.400 . S
C2869 C2863 1.491 . S
C2869 C2868 1.400 . S
C2869 C2870 1.398 . S
C2870 H2858 0.950 . S
C2870 C2869 1.398 . S
C2870 C2871 1.391 . S
C2871 H2859 0.950 . S
C2871 C2867 1.393 . S
C2871 C2870 1.391 . S
C961 C101 1.063 . S
C967 C320 1.074 1_556 S
C981 C57 1.445 . S
C987 C354 1.469 . S
C1001 C70 0.534 . S
C1007 C423 0.569 . S
C1027 C461 0.836 . S
C1021 C82 0.840 . S
C1041 C23 1.514 . S
C1047 C501 1.489 . S
C1067 C520 0.330 . S
C1061 C29 0.323 . S
C1087 C554 1.114 . S
C1081 C49 1.099 . S
C1101 C10 1.738 . S
C1107 C623 1.708 . S
C1127 C329 2.437 . S
C1121 C218 2.469 . S
C1141 C226 1.181 . S
C1147 C381 1.177 . S
C1167 C394 1.394 . S
C1161 C251 1.384 . S
C1187 C463 1.248 . S
C1181 C159 1.247 . S
C1201 C211 1.905 . S
C1207 C503 1.903 . S
C1227 C529 1.860 . S
C1221 C225 1.870 . S
C1247 C581 0.290 . S
C1241 C252 0.204 . S
C1267 C594 2.193 . S
C1261 C166 2.199 . S
C1287 C324 2.354 . S
C1281 C147 2.391 . S
C1301 C263 1.895 . S
C1307 C634 1.951 . S
C1327 C684 2.648 . S
C1321 C309 2.658 . S
C1347 C743 1.372 . S
C1341 C291 1.374 . S
C1361 C108 1.571 . S
C1367 C621 1.557 . S
C1381 C121 1.489 . S
C1387 C421 1.488 . S
C1401 C302 2.362 . S
C1407 C754 2.353 . S
C1427 C823 0.808 . S
C1421 C276 0.821 . S
C1447 C341 1.181 . S
C1441 C55 1.163 . S
C1467 C809 1.619 . S
C1461 C96 1.621 . S
C1481 C88 0.850 . S
C1487 C404 0.842 . S
C1501 C75 1.119 . S
C1507 C760 1.099 . S
C1527 C480 1.501 . S
C1521 C4 1.521 . S
C1541 C44 0.504 . S
C1547 C701 0.499 . S
C1567 C569 1.527 1_566 S
C1561 C31 1.548 . S
C1587 C844 1.780 . S
C1581 C18 1.788 . S
C1607 C314 2.540 . S
C1601 C133 2.583 . S
C1627 C800 1.112 . S
C1621 C296 1.110 . S
C1641 C107 1.622 . S
C1647 C409 1.604 . S
C1661 C264 1.595 . S
C1667 C764 1.593 . S
C1681 C140 2.101 . S
C1687 C484 2.125 . S
C1707 C674 1.972 . S
C1701 C289 2.014 . S
C1721 C114 0.501 . S
C1727 C560 0.544 . S
C1741 C265 2.399 . S
C1747 C849 2.386 . S
C1761 C179 2.686 . S
C1767 C343 2.659 1_655 S
C1781 C161 2.185 . S
C1787 C649 2.193 . S
C1801 C244 2.966 . S
C1807 C543 2.952 . S
C1821 C224 1.858 . S
C1827 C724 1.869 . S
C1847 C840 1.521 . S
C1841 C257 1.530 . S
C1861 C199 1.552 . S
C1867 C400 1.530 . S
C1887 C449 2.699 . S
C1881 C237 2.740 . S
C1907 C364 1.085 . S
C1901 C185 1.102 . S
C1921 C69 1.083 . S
C1927 C880 1.078 . S
C1947 C794 1.479 . S
C1941 C83 1.455 . S
C1961 C94 0.518 . S
C1967 C943 0.541 . S
C1981 C56 0.846 . S
C1987 C781 0.830 . S
C2001 C42 1.532 . S
C2007 C661 1.488 . S
C2027 C680 0.322 . S
C2021 C3 0.301 . S
C2047 C714 1.119 . S
C2041 C16 1.092 . S
C2067 C863 1.721 . S
C2061 C36 1.751 . S
C2087 C889 2.435 . S
C2081 C238 2.471 . S
C2101 C174 1.197 . S
C2107 C821 1.185 . S
C2127 C914 1.386 . S
C2121 C186 1.373 . S
C2147 C783 1.243 . S
C2141 C198 1.251 . S
C2167 C663 1.902 . S
C2161 C239 1.908 . S
C2181 C173 1.861 . S
C2187 C689 1.850 . S
C2207 C741 0.323 . S
C2201 C187 0.226 . S
C2221 C205 2.196 . S
C2227 C834 2.189 . S
C2247 C884 2.355 . S
C2241 C290 2.390 . S
C2261 C122 1.913 . S
C2267 C474 1.955 . S
C2287 C524 2.647 . S
C2281 C134 2.660 . S
C2307 C583 1.372 . S
C2301 C148 1.374 . S
C2327 C861 1.560 . S
C2321 C283 1.579 . S
C2341 C270 1.491 . S
C2347 C941 1.482 . S
C2367 C434 2.353 . S
C2361 C135 2.359 . S
C2387 C383 0.836 . S
C2381 C109 0.840 . S
C2401 C81 1.164 . S
C2407 C901 1.176 . S
C2427 C369 1.613 . S
C2421 C68 1.622 . S
C2441 C62 0.846 . S
C2447 C924 0.841 . S
C2461 C95 1.121 . S
C2467 C440 1.118 . S
C2481 C30 1.505 . S
C2487 C640 1.479 . S
C2507 C541 0.512 . S
C2501 C17 0.486 . S
C2521 C5 1.559 . S
C2527 C729 1.556 . S
C2541 C43 1.779 . S
C2547 C604 1.770 . S
C2567 C874 2.540 . S
C2561 C304 2.583 . S
C2581 C153 1.113 . S
C2587 C360 1.095 . S
C2607 C929 1.601 . S
C2601 C278 1.622 . S
C2621 C127 1.595 . S
C2627 C444 1.594 . S
C2641 C303 2.105 . S
C2647 C644 2.120 . S
C2667 C514 1.984 . S
C2661 C146 2.017 . S
C2681 C277 0.504 . S
C2687 C720 0.539 . S
C2707 C609 2.375 . S
C2701 C120 2.394 . S
C2727 C903 2.649 . S
C2721 C231 2.682 . S
C2747 C489 2.196 1_665 S
C2741 C200 2.179 . S
C2761 C212 2.969 . S
C2767 C703 2.955 . S
C2787 C564 1.867 . S
C2781 C172 1.857 . S
C2801 C192 1.533 . S
C2807 C600 1.523 . S
C2821 C160 1.559 . S
C2827 C920 1.546 . S
C2847 C769 2.703 . S
C2841 C213 2.741 1_565 S
C2867 C804 1.087 . S
C2861 C250 1.104 . S
