# Generated by pormake.
# Topology ocu, (6,8)-cn, num edge types: 1
# Building blocks:
#     Node 0, Type 0, BuildingBlock: HISSIN_clean_sbu_0, # of connection points: 6
#     Node 1, Type 0, BuildingBlock: HISSIN_clean_sbu_0, # of connection points: 6
#     Node 2, Type 0, BuildingBlock: HISSIN_clean_sbu_0, # of connection points: 6
#     Node 3, Type 0, BuildingBlock: HISSIN_clean_sbu_0, # of connection points: 6
#     Node 4, Type 0, BuildingBlock: HISSIN_clean_sbu_0, # of connection points: 6
#     Node 5, Type 0, BuildingBlock: HISSIN_clean_sbu_0, # of connection points: 6
#     Node 6, Type 0, BuildingBlock: HISSIN_clean_sbu_0, # of connection points: 6
#     Node 7, Type 0, BuildingBlock: HISSIN_clean_sbu_0, # of connection points: 6
#     Node 8, Type 1, BuildingBlock: GIZVER_clean_sbu_0, # of connection points: 8
#     Node 9, Type 1, BuildingBlock: GIZVER_clean_sbu_0, # of connection points: 8
#     Node 10, Type 1, BuildingBlock: GIZVER_clean_sbu_0, # of connection points: 8
#     Node 11, Type 1, BuildingBlock: GIZVER_clean_sbu_0, # of connection points: 8
#     Node 12, Type 1, BuildingBlock: GIZVER_clean_sbu_0, # of connection points: 8
#     Node 13, Type 1, BuildingBlock: GIZVER_clean_sbu_0, # of connection points: 8
#     Edge 14, Type (0, 1), BuildingBlock: MIFKUJ_clean_linker_0, # of connection points: 2
#     Edge 15, Type (0, 1), BuildingBlock: MIFKUJ_clean_linker_0, # of connection points: 2
#     Edge 16, Type (0, 1), BuildingBlock: MIFKUJ_clean_linker_0, # of connection points: 2
#     Edge 17, Type (0, 1), BuildingBlock: MIFKUJ_clean_linker_0, # of connection points: 2
#     Edge 18, Type (0, 1), BuildingBlock: MIFKUJ_clean_linker_0, # of connection points: 2
#     Edge 19, Type (0, 1), BuildingBlock: MIFKUJ_clean_linker_0, # of connection points: 2
#     Edge 20, Type (0, 1), BuildingBlock: MIFKUJ_clean_linker_0, # of connection points: 2
#     Edge 21, Type (0, 1), BuildingBlock: MIFKUJ_clean_linker_0, # of connection points: 2
#     Edge 22, Type (0, 1), BuildingBlock: MIFKUJ_clean_linker_0, # of connection points: 2
#     Edge 23, Type (0, 1), BuildingBlock: MIFKUJ_clean_linker_0, # of connection points: 2
#     Edge 24, Type (0, 1), BuildingBlock: MIFKUJ_clean_linker_0, # of connection points: 2
#     Edge 25, Type (0, 1), BuildingBlock: MIFKUJ_clean_linker_0, # of connection points: 2
#     Edge 26, Type (0, 1), BuildingBlock: MIFKUJ_clean_linker_0, # of connection points: 2
#     Edge 27, Type (0, 1), BuildingBlock: MIFKUJ_clean_linker_0, # of connection points: 2
#     Edge 28, Type (0, 1), BuildingBlock: MIFKUJ_clean_linker_0, # of connection points: 2
#     Edge 29, Type (0, 1), BuildingBlock: MIFKUJ_clean_linker_0, # of connection points: 2
#     Edge 30, Type (0, 1), BuildingBlock: MIFKUJ_clean_linker_0, # of connection points: 2
#     Edge 31, Type (0, 1), BuildingBlock: MIFKUJ_clean_linker_0, # of connection points: 2
#     Edge 32, Type (0, 1), BuildingBlock: MIFKUJ_clean_linker_0, # of connection points: 2
#     Edge 33, Type (0, 1), BuildingBlock: MIFKUJ_clean_linker_0, # of connection points: 2
#     Edge 34, Type (0, 1), BuildingBlock: MIFKUJ_clean_linker_0, # of connection points: 2
#     Edge 35, Type (0, 1), BuildingBlock: MIFKUJ_clean_linker_0, # of connection points: 2
#     Edge 36, Type (0, 1), BuildingBlock: MIFKUJ_clean_linker_0, # of connection points: 2
#     Edge 37, Type (0, 1), BuildingBlock: MIFKUJ_clean_linker_0, # of connection points: 2
#     Edge 38, Type (0, 1), BuildingBlock: MIFKUJ_clean_linker_0, # of connection points: 2
#     Edge 39, Type (0, 1), BuildingBlock: MIFKUJ_clean_linker_0, # of connection points: 2
#     Edge 40, Type (0, 1), BuildingBlock: MIFKUJ_clean_linker_0, # of connection points: 2
#     Edge 41, Type (0, 1), BuildingBlock: MIFKUJ_clean_linker_0, # of connection points: 2
#     Edge 42, Type (0, 1), BuildingBlock: MIFKUJ_clean_linker_0, # of connection points: 2
#     Edge 43, Type (0, 1), BuildingBlock: MIFKUJ_clean_linker_0, # of connection points: 2
#     Edge 44, Type (0, 1), BuildingBlock: MIFKUJ_clean_linker_0, # of connection points: 2
#     Edge 45, Type (0, 1), BuildingBlock: MIFKUJ_clean_linker_0, # of connection points: 2
#     Edge 46, Type (0, 1), BuildingBlock: MIFKUJ_clean_linker_0, # of connection points: 2
#     Edge 47, Type (0, 1), BuildingBlock: MIFKUJ_clean_linker_0, # of connection points: 2
#     Edge 48, Type (0, 1), BuildingBlock: MIFKUJ_clean_linker_0, # of connection points: 2
#     Edge 49, Type (0, 1), BuildingBlock: MIFKUJ_clean_linker_0, # of connection points: 2
#     Edge 50, Type (0, 1), BuildingBlock: MIFKUJ_clean_linker_0, # of connection points: 2
#     Edge 51, Type (0, 1), BuildingBlock: MIFKUJ_clean_linker_0, # of connection points: 2
#     Edge 52, Type (0, 1), BuildingBlock: MIFKUJ_clean_linker_0, # of connection points: 2
#     Edge 53, Type (0, 1), BuildingBlock: MIFKUJ_clean_linker_0, # of connection points: 2
#     Edge 54, Type (0, 1), BuildingBlock: MIFKUJ_clean_linker_0, # of connection points: 2
#     Edge 55, Type (0, 1), BuildingBlock: MIFKUJ_clean_linker_0, # of connection points: 2
#     Edge 56, Type (0, 1), BuildingBlock: MIFKUJ_clean_linker_0, # of connection points: 2
#     Edge 57, Type (0, 1), BuildingBlock: MIFKUJ_clean_linker_0, # of connection points: 2
#     Edge 58, Type (0, 1), BuildingBlock: MIFKUJ_clean_linker_0, # of connection points: 2
#     Edge 59, Type (0, 1), BuildingBlock: MIFKUJ_clean_linker_0, # of connection points: 2
#     Edge 60, Type (0, 1), BuildingBlock: MIFKUJ_clean_linker_0, # of connection points: 2
#     Edge 61, Type (0, 1), BuildingBlock: MIFKUJ_clean_linker_0, # of connection points: 2
# Relax obj value: 0.147
# Max RMSD: 0.252
# Mean RMSD: 0.166
data_MOF--net-ocu--node1-HISSIN_clean_sbu_0--node2-GIZVER_clean_sbu_0--edge1-MIFKUJ_clean_linker_0
_symmetry_space_group_name_H-M    P1
_symmetry_Int_Tables_number       1
_symmetry_cell_setting            triclinic
loop_
_symmetry_equiv_pos_as_xyz
'x, y, z'
_cell_length_a     55.749125
_cell_length_b     58.099413
_cell_length_c     41.132984
_cell_angle_alpha  99.330537
_cell_angle_beta   82.970305
_cell_angle_gamma 108.81819
loop_
_atom_site_label
_atom_site_type_symbol
_atom_site_fract_x
_atom_site_fract_y
_atom_site_fract_z
_atom_type_partial_charge
Eu0 Eu 0.29101 0.2642 0.27968 0.0
Eu1 Eu 0.25448 0.25033 0.21756 0.0
C2 C 0.24096 0.21578 0.27621 0.0
C3 C 0.33213 0.25578 0.34153 0.0
C4 C 0.32304 0.23007 0.33516 0.0
C5 C 0.36515 0.25245 0.37245 0.0
C6 C 0.33484 0.21566 0.34747 0.0
C7 C 0.35326 0.26683 0.36024 0.0
C8 C 0.35612 0.22666 0.36622 0.0
C9 C 0.32019 0.27116 0.32806 0.0
O10 O 0.24176 0.28089 0.25089 0.0
O11 O 0.26181 0.28531 0.29822 0.0
C12 C 0.24535 0.29052 0.28206 0.0
O13 O 0.30617 0.2978 0.25336 0.0
O14 O 0.21681 0.2387 0.19883 0.0
O15 O 0.25008 0.24761 0.16478 0.0
O16 O 0.28781 0.28248 0.20411 0.0
C17 C 0.30401 0.29963 0.22251 0.0
O18 O 0.31017 0.24206 0.23906 0.0
O19 O 0.27804 0.2231 0.20462 0.0
O20 O 0.23264 0.22346 0.2528 0.0
O21 O 0.32877 0.27666 0.29845 0.0
O22 O 0.29545 0.2651 0.33196 0.0
O23 O 0.26385 0.22657 0.28626 0.0
C24 C 0.21471 0.25865 0.15436 0.0
C25 C 0.22079 0.28381 0.16589 0.0
C26 C 0.1864 0.26331 0.11708 0.0
C27 C 0.20971 0.29861 0.15316 0.0
C28 C 0.19752 0.24854 0.12982 0.0
C29 C 0.19225 0.28854 0.12867 0.0
C30 C 0.22547 0.24281 0.16877 0.0
C31 C 0.30073 0.22533 0.2141 0.0
H32 H 0.3069 0.22114 0.32047 0.0
H33 H 0.38129 0.26154 0.38706 0.0
H34 H 0.32757 0.1959 0.34179 0.0
H35 H 0.36061 0.28663 0.36536 0.0
H36 H 0.23391 0.29195 0.18502 0.0
H37 H 0.17333 0.25497 0.09797 0.0
H38 H 0.21442 0.31785 0.16304 0.0
H39 H 0.19256 0.22915 0.12065 0.0
Eu40 Eu 0.79146 0.24431 0.24756 0.0
Eu41 Eu 0.75214 0.27774 0.26363 0.0
C42 C 0.79664 0.28459 0.31161 0.0
C43 C 0.83817 0.20942 0.25475 0.0
C44 C 0.83442 0.21064 0.28928 0.0
C45 C 0.87149 0.19104 0.25524 0.0
C46 C 0.84903 0.2019 0.30669 0.0
C47 C 0.85684 0.19968 0.23791 0.0
C48 C 0.86773 0.19195 0.28983 0.0
C49 C 0.82274 0.21801 0.23586 0.0
O50 O 0.77879 0.29219 0.22034 0.0
O51 O 0.81244 0.2818 0.23279 0.0
C52 C 0.80331 0.29536 0.21826 0.0
O53 O 0.77147 0.23767 0.2007 0.0
O54 O 0.74572 0.31337 0.27337 0.0
O55 O 0.71355 0.28022 0.27221 0.0
O56 O 0.73579 0.24726 0.22402 0.0
C57 C 0.74764 0.23658 0.19974 0.0
O58 O 0.75442 0.2207 0.26982 0.0
O59 O 0.73933 0.25039 0.30034 0.0
O60 O 0.78287 0.29478 0.2986 0.0
O61 O 0.79819 0.20879 0.2407 0.0
O62 O 0.82972 0.24149 0.23449 0.0
O63 O 0.79848 0.26277 0.29964 0.0
C64 C 0.70833 0.31405 0.25264 0.0
C65 C 0.71918 0.32004 0.22124 0.0
C66 C 0.67254 0.32717 0.24484 0.0
C67 C 0.70691 0.32989 0.20196 0.0
C68 C 0.68489 0.3175 0.26418 0.0
C69 C 0.6835 0.33364 0.21363 0.0
C70 C 0.72107 0.30401 0.2735 0.0
C71 C 0.73878 0.22736 0.2932 0.0
H72 H 0.82014 0.21826 0.30271 0.0
H73 H 0.88545 0.18318 0.24145 0.0
H74 H 0.84583 0.20309 0.33333 0.0
H75 H 0.85995 0.19858 0.21125 0.0
H76 H 0.73716 0.31723 0.21174 0.0
H77 H 0.65469 0.33015 0.25468 0.0
H78 H 0.71569 0.33451 0.17791 0.0
H79 H 0.67622 0.31289 0.28829 0.0
Eu80 Eu 0.77964 0.77683 0.21963 0.0
Eu81 Eu 0.77219 0.74777 0.28436 0.0
C82 C 0.72832 0.73131 0.23263 0.0
C83 C 0.76908 0.81169 0.15389 0.0
C84 C 0.75503 0.79872 0.12684 0.0
C85 C 0.75258 0.84558 0.15232 0.0
C86 C 0.73973 0.80895 0.11293 0.0
C87 C 0.76786 0.83537 0.16621 0.0
C88 C 0.73817 0.83246 0.12563 0.0
C89 C 0.78501 0.80063 0.16892 0.0
O90 O 0.79315 0.72596 0.24622 0.0
O91 O 0.80302 0.74937 0.20343 0.0
C92 C 0.80466 0.73054 0.21676 0.0
O93 O 0.80769 0.80056 0.25592 0.0
O94 O 0.76117 0.71601 0.31143 0.0
O95 O 0.77874 0.7524 0.33656 0.0
O96 O 0.81331 0.76912 0.27681 0.0
C97 C 0.82109 0.79209 0.27209 0.0
O98 O 0.74981 0.79116 0.25284 0.0
O99 O 0.75326 0.77864 0.3018 0.0
O100 O 0.7367 0.72675 0.25862 0.0
O101 O 0.79306 0.81104 0.19781 0.0
O102 O 0.77783 0.77676 0.16677 0.0
O103 O 0.74102 0.74932 0.2157 0.0
C104 C 0.78937 0.71931 0.35191 0.0
C105 C 0.81509 0.7331 0.35502 0.0
C106 C 0.79703 0.68593 0.37354 0.0
C107 C 0.83158 0.72334 0.36729 0.0
C108 C 0.78052 0.69574 0.36154 0.0
C109 C 0.8228 0.69953 0.37638 0.0
C110 C 0.7717 0.72883 0.338 0.0
C111 C 0.74438 0.7916 0.28513 0.0
H112 H 0.7557 0.78054 0.11653 0.0
H113 H 0.75225 0.8639 0.16237 0.0
H114 H 0.72876 0.79822 0.09259 0.0
H115 H 0.77867 0.84607 0.1867 0.0
H116 H 0.82256 0.75131 0.34764 0.0
H117 H 0.78959 0.66766 0.38071 0.0
H118 H 0.85135 0.73421 0.36894 0.0
H119 H 0.7608 0.68479 0.35949 0.0
Eu120 Eu 0.29257 0.74573 0.23725 0.0
Eu121 Eu 0.2523 0.77668 0.24147 0.0
C122 C 0.25384 0.73396 0.18252 0.0
C123 C 0.33433 0.71254 0.19211 0.0
C124 C 0.35023 0.73025 0.17271 0.0
C125 C 0.32969 0.6819 0.14361 0.0
C126 C 0.35544 0.72387 0.13899 0.0
C127 C 0.32473 0.68818 0.17737 0.0
C128 C 0.34462 0.69979 0.12401 0.0
C129 C 0.32368 0.72004 0.22527 0.0
O130 O 0.23645 0.75162 0.28082 0.0
O131 O 0.25523 0.72226 0.25893 0.0
C132 C 0.23755 0.72915 0.27832 0.0
O133 O 0.29586 0.76664 0.2885 0.0
O134 O 0.21591 0.7773 0.22806 0.0
O135 O 0.24088 0.80975 0.25432 0.0
O136 O 0.27982 0.79684 0.27997 0.0
C137 C 0.29281 0.78839 0.2971 0.0
O138 O 0.31489 0.78152 0.21878 0.0
O139 O 0.28282 0.79317 0.2033 0.0
O140 O 0.23948 0.74315 0.20485 0.0
O141 O 0.33102 0.74343 0.23616 0.0
O142 O 0.29919 0.71023 0.2304 0.0
O143 O 0.2777 0.73765 0.18678 0.0
C144 C 0.19775 0.7999 0.27036 0.0
C145 C 0.18834 0.78115 0.29058 0.0
C146 C 0.17661 0.82497 0.30782 0.0
C147 C 0.17411 0.78475 0.32008 0.0
C148 C 0.19098 0.8214 0.27837 0.0
C149 C 0.1692 0.80717 0.32966 0.0
C150 C 0.21805 0.79881 0.24477 0.0
C151 C 0.30701 0.79547 0.20332 0.0
H152 H 0.3578 0.74926 0.18316 0.0
H153 H 0.32172 0.66303 0.13278 0.0
H154 H 0.36726 0.73791 0.12442 0.0
H155 H 0.31236 0.67421 0.19165 0.0
H156 H 0.1934 0.76438 0.28468 0.0
H157 H 0.17253 0.84222 0.31442 0.0
H158 H 0.16865 0.77076 0.33644 0.0
H159 H 0.19813 0.83601 0.26298 0.0
Eu160 Eu 0.29485 0.74296 0.74558 0.0
Eu161 Eu 0.25517 0.77663 0.76028 0.0
C162 C 0.30167 0.78771 0.805 0.0
C163 C 0.33737 0.70595 0.75892 0.0
C164 C 0.33843 0.71453 0.79284 0.0
C165 C 0.35776 0.67616 0.76587 0.0
C166 C 0.34918 0.70396 0.81317 0.0
C167 C 0.34714 0.68678 0.7456 0.0
C168 C 0.3588 0.68452 0.79992 0.0
C169 C 0.3256 0.71632 0.73729 0.0
O170 O 0.29035 0.79865 0.7325 0.0
O171 O 0.30703 0.76844 0.70648 0.0
C172 C 0.30632 0.79115 0.7104 0.0
O173 O 0.26324 0.72451 0.71241 0.0
O174 O 0.2481 0.81208 0.77351 0.0
O175 O 0.21661 0.77886 0.7646 0.0
O176 O 0.24818 0.75641 0.70893 0.0
C177 C 0.24974 0.73432 0.6983 0.0
O178 O 0.26975 0.73019 0.79066 0.0
O179 O 0.23543 0.74169 0.78273 0.0
O180 O 0.27754 0.78611 0.80559 0.0
O181 O 0.30102 0.70714 0.73658 0.0
O182 O 0.33328 0.74013 0.7387 0.0
O183 O 0.31254 0.7758 0.78112 0.0
C184 C 0.21204 0.81562 0.75188 0.0
C185 C 0.20286 0.80541 0.7207 0.0
C186 C 0.19693 0.85027 0.75044 0.0
C187 C 0.1905 0.81744 0.70472 0.0
C188 C 0.20912 0.83819 0.76645 0.0
C189 C 0.18728 0.83997 0.7195 0.0
C190 C 0.22376 0.80274 0.77032 0.0
C191 C 0.24549 0.72819 0.79602 0.0
H192 H 0.33081 0.72926 0.80357 0.0
H193 H 0.36539 0.66152 0.75477 0.0
H194 H 0.34956 0.7107 0.83931 0.0
H195 H 0.34647 0.67996 0.71949 0.0
H196 H 0.205 0.78805 0.70883 0.0
H197 H 0.1945 0.86742 0.76272 0.0
H198 H 0.18354 0.80915 0.68076 0.0
H199 H 0.21595 0.84633 0.79053 0.0
Eu200 Eu 0.28545 0.27362 0.71833 0.0
Eu201 Eu 0.27125 0.24063 0.77919 0.0
C202 C 0.23432 0.2285 0.722 0.0
C203 C 0.27336 0.30987 0.65644 0.0
C204 C 0.25202 0.29454 0.63998 0.0
C205 C 0.26063 0.34522 0.64994 0.0
C206 C 0.23521 0.30446 0.62871 0.0
C207 C 0.27755 0.33533 0.66097 0.0
C208 C 0.23916 0.32991 0.63378 0.0
C209 C 0.29078 0.29965 0.67 0.0
O210 O 0.29088 0.2196 0.7374 0.0
O211 O 0.31362 0.25073 0.70742 0.0
C212 C 0.30942 0.22824 0.71488 0.0
O213 O 0.31252 0.29542 0.7565 0.0
O214 O 0.25637 0.20513 0.79764 0.0
O215 O 0.27235 0.23793 0.83136 0.0
O216 O 0.31182 0.26384 0.78356 0.0
C217 C 0.32185 0.28654 0.77755 0.0
O218 O 0.25369 0.28619 0.7501 0.0
O219 O 0.25426 0.2723 0.79902 0.0
O220 O 0.23495 0.23045 0.75405 0.0
O221 O 0.29762 0.30914 0.69965 0.0
O222 O 0.28585 0.27589 0.66566 0.0
O223 O 0.25439 0.23908 0.7035 0.0
C224 C 0.28018 0.20181 0.84008 0.0
C225 C 0.28416 0.20641 0.87388 0.0
C226 C 0.30749 0.17565 0.8319 0.0
C227 C 0.29979 0.1959 0.88657 0.0
C228 C 0.29205 0.18633 0.81917 0.0
C229 C 0.31168 0.1804 0.86574 0.0
C230 C 0.26445 0.214 0.827 0.0
C231 C 0.24698 0.28624 0.78214 0.0
H232 H 0.24807 0.27482 0.63612 0.0
H233 H 0.26448 0.36492 0.65387 0.0
H234 H 0.21881 0.29211 0.61661 0.0
H235 H 0.29384 0.34764 0.67341 0.0
H236 H 0.27529 0.21831 0.8905 0.0
H237 H 0.31653 0.164 0.81512 0.0
H238 H 0.30237 0.19973 0.9128 0.0
H239 H 0.28962 0.18264 0.7929 0.0
Eu240 Eu 0.80407 0.2428 0.74214 0.0
Eu241 Eu 0.76268 0.27236 0.74899 0.0
C242 C 0.75964 0.2276 0.69292 0.0
C243 C 0.86476 0.23198 0.71191 0.0
C244 C 0.86374 0.23829 0.68072 0.0
C245 C 0.91052 0.24162 0.70209 0.0
C246 C 0.88566 0.2451 0.65983 0.0
C247 C 0.88838 0.23453 0.72298 0.0
C248 C 0.90927 0.24593 0.66966 0.0
C249 C 0.84132 0.2243 0.73337 0.0
O250 O 0.74276 0.23769 0.77155 0.0
O251 O 0.77597 0.2255 0.7824 0.0
C252 C 0.75173 0.22388 0.78587 0.0
O253 O 0.81764 0.27732 0.77737 0.0
O254 O 0.72347 0.27215 0.74878 0.0
O255 O 0.75355 0.30666 0.75622 0.0
O256 O 0.77936 0.28155 0.79832 0.0
C257 C 0.80364 0.28598 0.80095 0.0
O258 O 0.81686 0.26778 0.70242 0.0
O259 O 0.79907 0.29709 0.72726 0.0
O260 O 0.75939 0.25042 0.69845 0.0
O261 O 0.83887 0.24031 0.75861 0.0
O262 O 0.82041 0.21439 0.7183 0.0
O263 O 0.77204 0.2195 0.71129 0.0
C264 C 0.71571 0.30188 0.79092 0.0
C265 C 0.72941 0.31587 0.81777 0.0
C266 C 0.6768 0.29479 0.8268 0.0
C267 C 0.71695 0.31923 0.8488 0.0
C268 C 0.68929 0.29151 0.79566 0.0
C269 C 0.69055 0.30861 0.85371 0.0
C270 C 0.72914 0.29553 0.75935 0.0
C271 C 0.81603 0.29037 0.70628 0.0
H272 H 0.84583 0.23724 0.67191 0.0
H273 H 0.92842 0.24266 0.71086 0.0
H274 H 0.88359 0.24804 0.63516 0.0
H275 H 0.88963 0.23057 0.74745 0.0
H276 H 0.74985 0.32394 0.81506 0.0
H277 H 0.65643 0.28628 0.82991 0.0
H278 H 0.72799 0.3304 0.86884 0.0
H279 H 0.67839 0.28036 0.77546 0.0
Eu280 Eu 0.79606 0.76215 0.77943 0.0
Eu281 Eu 0.75995 0.74768 0.71618 0.0
C282 C 0.74491 0.71472 0.776 0.0
C283 C 0.83492 0.7526 0.8442 0.0
C284 C 0.82951 0.75048 0.87804 0.0
C285 C 0.86085 0.72541 0.84053 0.0
C286 C 0.83955 0.73591 0.89299 0.0
C287 C 0.85069 0.73986 0.82558 0.0
C288 C 0.8554 0.72316 0.87446 0.0
C289 C 0.82406 0.76813 0.82888 0.0
O290 O 0.74313 0.77352 0.75416 0.0
O291 O 0.77267 0.78931 0.79297 0.0
C292 C 0.75156 0.78899 0.78076 0.0
O293 O 0.81496 0.79348 0.7498 0.0
O294 O 0.72173 0.73475 0.6988 0.0
O295 O 0.75424 0.74628 0.66409 0.0
O296 O 0.79048 0.78259 0.70517 0.0
C297 C 0.80978 0.79741 0.72126 0.0
O298 O 0.81105 0.73372 0.7438 0.0
O299 O 0.78787 0.72522 0.69826 0.0
O300 O 0.74462 0.71478 0.74413 0.0
O301 O 0.83329 0.7733 0.7993 0.0
O302 O 0.79944 0.76315 0.83223 0.0
O303 O 0.76048 0.73269 0.79407 0.0
C304 C 0.71645 0.75501 0.65551 0.0
C305 C 0.7297 0.77299 0.63503 0.0
C306 C 0.67765 0.76477 0.6508 0.0
C307 C 0.7171 0.78675 0.62275 0.0
C308 C 0.69023 0.75096 0.66297 0.0
C309 C 0.69089 0.78294 0.63057 0.0
C310 C 0.72954 0.74034 0.66904 0.0
C311 C 0.80617 0.72231 0.71353 0.0
H312 H 0.81737 0.76005 0.89296 0.0
H313 H 0.87326 0.71624 0.82548 0.0
H314 H 0.83458 0.7344 0.91901 0.0
H315 H 0.85526 0.74105 0.79942 0.0
H316 H 0.74986 0.7765 0.62846 0.0
H317 H 0.65758 0.76145 0.65779 0.0
H318 H 0.72792 0.80025 0.60684 0.0
H319 H 0.67941 0.73718 0.67851 0.0
Co320 Co 0.04444 0.96449 0.51852 0.0
Co321 Co 0.04298 1.00064 0.56621 0.0
Co322 Co 1.02286 0.01083 0.50596 0.0
O323 O 0.04914 0.999 0.51997 0.0
H324 H 0.06629 1.00858 0.51365 0.0
O325 O 0.99601 0.02228 0.4925 0.0
Co326 Co 0.99805 0.0561 0.50151 0.0
Co327 Co 1.00062 0.02572 0.44811 0.0
H328 H 0.97912 0.01154 0.49758 0.0
O329 O 0.06749 1.00099 0.59231 0.0
O330 O 0.03837 0.96783 0.56802 0.0
O331 O 1.01225 1.00654 0.58726 0.0
O332 O 0.99543 0.99375 0.53927 0.0
O333 O 0.03419 0.04045 0.53849 0.0
O334 O 0.99702 0.08607 0.51058 0.0
O335 O 0.96415 0.05133 0.50141 0.0
O336 O 0.03355 0.06602 0.50467 0.0
O337 O 0.0504 0.02811 0.47218 0.0
O338 O 0.03176 0.02267 0.42548 0.0
O339 O 1.00297 0.05881 0.45343 0.0
O340 O 0.97511 0.02754 0.42447 0.0
C341 C 0.06674 0.94359 0.52177 0.0
C342 C 1.00294 0.95988 0.48385 0.0
C343 C 0.99307 0.99577 0.57082 0.0
C344 C 0.05672 0.9774 0.58792 0.0
C345 C 0.97279 0.07503 0.50965 0.0
C346 C 0.0416 0.06182 0.52998 0.0
C347 C 0.05166 0.02941 0.44106 0.0
C348 C 0.98502 0.05094 0.43309 0.0
O349 O 0.04266 0.93388 0.51787 0.0
O350 O 0.07732 0.96731 0.52284 0.0
O351 O 1.01177 0.98093 0.47407 0.0
O352 O 1.00932 0.95598 0.51077 0.0
Co353 Co 0.56358 0.96531 0.96067 0.0
Co354 Co 0.56181 0.98154 0.02243 0.0
Co355 Co 0.5291 0.0106 0.99479 0.0
O356 O 0.56039 0.99726 0.98749 0.0
H357 H 0.57609 0.01046 0.98507 0.0
O358 O 0.49801 0.02385 0.00167 0.0
Co359 Co 0.49497 0.05636 0.02609 0.0
Co360 Co 0.49648 0.03753 0.96444 0.0
H361 H 0.48234 0.01082 0.0051 0.0
O362 O 0.592 0.98328 0.03615 0.0
O363 O 0.56712 0.95267 0.00177 0.0
O364 O 0.53255 0.97271 0.0518 0.0
O365 O 0.50853 0.98873 0.02885 0.0
O366 O 0.54581 0.03747 0.02922 0.0
O367 O 0.49002 0.08509 0.0485 0.0
O368 O 0.45901 0.05034 0.0368 0.0
O369 O 0.53181 0.06841 0.02114 0.0
O370 O 0.54965 0.03241 0.96093 0.0
O371 O 0.52571 0.0457 0.93388 0.0
O372 O 0.49083 0.06654 0.98347 0.0
O373 O 0.46579 0.03463 0.95112 0.0
C374 C 0.59267 0.94879 0.9354 0.0
C375 C 0.50918 0.96118 0.96003 0.0
C376 C 0.51136 0.97555 0.04925 0.0
C377 C 0.58631 0.96107 0.02061 0.0
C378 C 0.46573 0.07355 0.04999 0.0
C379 C 0.5491 0.06036 0.02876 0.0
C380 C 0.54709 0.04409 0.93849 0.0
C381 C 0.4708 0.05693 0.96623 0.0
O382 O 0.56838 0.93744 0.93589 0.0
O383 O 0.59951 0.9715 0.95057 0.0
O384 O 0.51212 0.98402 0.96035 0.0
O385 O 0.52704 0.953 0.96503 0.0
Co386 Co 0.05604 0.45925 0.9663 0.0
Co387 Co 0.05471 0.47516 0.02916 0.0
Co388 Co 0.02496 0.50685 1.00056 0.0
O389 O 0.05456 0.49137 0.9937 0.0
H390 H 0.07078 0.50389 0.99131 0.0
O391 O 0.99531 0.5223 0.0071 0.0
Co392 Co 0.99324 0.55427 0.03449 0.0
Co393 Co 0.99628 0.53909 0.97172 0.0
H394 H 0.97906 0.50971 0.00878 0.0
O395 O 0.08442 0.47209 0.04068 0.0
O396 O 0.05608 0.44494 0.00723 0.0
O397 O 0.02528 0.46928 0.0598 0.0
O398 O 1.00252 0.48441 0.03305 0.0
O399 O 0.04215 0.53165 0.03672 0.0
O400 O 0.98906 0.58239 0.05954 0.0
O401 O 0.95741 0.54975 0.04188 0.0
O402 O 0.02984 0.5645 0.03305 0.0
O403 O 0.04776 0.52946 0.96849 0.0
O404 O 0.02615 0.54593 0.9421 0.0
O405 O 0.99341 0.56879 0.99352 0.0
O406 O 0.96726 0.54105 0.95781 0.0
C407 C 0.08436 0.44138 0.94223 0.0
C408 C 1.00291 0.45879 0.9633 0.0
C409 C 1.00438 0.47217 0.05539 0.0
C410 C 0.076 0.45038 0.0242 0.0
C411 C 0.96466 0.57214 0.05795 0.0
C412 C 0.04646 0.55487 0.03862 0.0
C413 C 0.0467 0.54254 0.9468 0.0
C414 C 0.97448 0.5628 0.97457 0.0
O415 O 0.05993 0.43104 0.94119 0.0
O416 O 0.09176 0.46376 0.95825 0.0
O417 O 1.00764 0.48201 0.9644 0.0
O418 O 1.01952 0.44909 0.96858 0.0
Co419 Co 0.54809 0.46557 0.01666 0.0
Co420 Co 0.54419 0.49973 0.06627 0.0
Co421 Co 0.52421 0.51055 0.00629 0.0
O422 O 0.55112 0.4999 0.02068 0.0
H423 H 0.56811 0.51032 0.01535 0.0
O424 O 0.49723 0.52067 0.99145 0.0
Co425 Co 0.49578 0.55347 0.99964 0.0
Co426 Co 0.50424 0.52421 0.9467 0.0
H427 H 0.48069 0.50878 0.99474 0.0
O428 O 0.56875 0.50012 0.09243 0.0
O429 O 0.54102 0.467 0.06573 0.0
O430 O 0.51247 0.50355 0.08642 0.0
O431 O 0.49628 0.49144 0.03782 0.0
O432 O 0.53245 0.53925 0.04059 0.0
O433 O 0.49063 0.5824 0.00653 0.0
O434 O 0.4628 0.54514 0.99224 0.0
O435 O 0.53065 0.56684 0.01036 0.0
O436 O 0.55222 0.53019 0.97524 0.0
O437 O 0.53621 0.52152 0.92638 0.0
O438 O 0.50548 0.55699 0.95178 0.0
O439 O 0.48047 0.52543 0.91977 0.0
C440 C 0.57184 0.44569 0.01839 0.0
C441 C 0.50727 0.46008 0.98108 0.0
C442 C 0.4936 0.49276 0.06939 0.0
C443 C 0.55893 0.47649 0.08618 0.0
C444 C 0.4679 0.56886 0.99898 0.0
C445 C 0.53947 0.56117 0.03406 0.0
C446 C 0.55509 0.53022 0.94382 0.0
C447 C 0.48918 0.54886 0.92916 0.0
O448 O 0.54794 0.4351 0.01392 0.0
O449 O 0.58122 0.46959 0.0213 0.0
O450 O 0.51593 0.48147 0.97241 0.0
O451 O 0.51302 0.45599 0.00827 0.0
Co452 Co 0.07462 0.48003 0.50336 0.0
Co453 Co 0.06581 0.47902 0.4457 0.0
Co454 Co 0.02947 0.51003 0.49649 0.0
O455 O 0.04422 0.48072 0.48401 0.0
H456 H 0.03083 0.46532 0.48473 0.0
O457 O 1.01484 0.53938 0.50941 0.0
Co458 Co 0.98429 0.54033 0.49135 0.0
Co459 Co 0.99439 0.54173 0.54896 0.0
H460 H 0.02826 0.55469 0.50806 0.0
O461 O 0.06738 0.44924 0.42014 0.0
O462 O 0.09377 0.47145 0.45871 0.0
O463 O 0.07539 0.50923 0.42688 0.0
O464 O 0.05035 0.52886 0.45901 0.0
O465 O 1.00111 0.49183 0.46762 0.0
O466 O 0.95875 0.54322 0.47245 0.0
O467 O 0.99462 0.5729 0.48728 0.0
O468 O 0.96968 0.50593 0.4923 0.0
O469 O 1.00866 0.49134 0.53372 0.0
O470 O 0.98543 0.51173 0.56819 0.0
O471 O 0.96542 0.54798 0.53651 0.0
O472 O 0.99198 0.57179 0.57372 0.0
C473 C 0.08574 0.45474 0.52253 0.0
C474 C 0.08117 0.5315 0.51737 0.0
C475 C 0.06738 0.52776 0.43506 0.0
C476 C 0.08791 0.45283 0.43479 0.0
C477 C 0.97268 0.56608 0.47441 0.0
C478 C 0.97752 0.48876 0.47591 0.0
C479 C 0.99261 0.4928 0.55872 0.0
C480 C 0.97099 0.56713 0.55963 0.0
O481 O 0.09985 0.47748 0.52359 0.0
O482 O 0.06413 0.44758 0.50875 0.0
O483 O 0.05754 0.52803 0.52548 0.0
O484 O 0.0895 0.51446 0.50158 0.0
Co485 Co 0.56632 0.97358 0.50838 0.0
Co486 Co 0.5588 0.97401 0.45031 0.0
Co487 Co 0.52359 1.00659 0.50092 0.0
O488 O 0.53704 0.97637 0.48874 0.0
H489 H 0.52301 0.96129 0.48902 0.0
O490 O 0.51021 0.03671 0.51261 0.0
Co491 Co 0.47933 0.03797 0.49558 0.0
Co492 Co 0.49157 0.0413 0.55306 0.0
H493 H 0.524 0.05166 0.50988 0.0
O494 O 0.56072 0.94415 0.42448 0.0
O495 O 0.58612 0.96586 0.46414 0.0
O496 O 0.56988 1.00443 0.43181 0.0
O497 O 0.54496 0.02456 0.46313 0.0
O498 O 0.4947 0.98885 0.47238 0.0
O499 O 0.45332 0.04132 0.47795 0.0
O500 O 0.49051 0.07014 0.48937 0.0
O501 O 0.46398 1.0037 0.49805 0.0
O502 O 0.50239 0.98905 0.5391 0.0
O503 O 0.48228 0.01212 0.57428 0.0
O504 O 0.46227 0.04735 0.5414 0.0
O505 O 0.49058 0.07265 0.57547 0.0
C506 C 0.57574 0.94635 0.5257 0.0
C507 C 0.57562 0.02575 0.52356 0.0
C508 C 0.56228 0.02322 0.4397 0.0
C509 C 0.58088 0.94757 0.43982 0.0
C510 C 0.46803 0.06384 0.47807 0.0
C511 C 0.47113 0.9867 0.47988 0.0
C512 C 0.48766 0.99218 0.56504 0.0
C513 C 0.46898 0.0675 0.5627 0.0
O514 O 0.59054 0.96893 0.52824 0.0
O515 O 0.55418 0.94082 0.51216 0.0
O516 O 0.55218 0.02437 0.52963 0.0
O517 O 0.5827 1.00781 0.50824 0.0
H518 H 0.24874 0.19806 0.33074 0.0
H519 H 0.21957 0.16489 0.35913 0.0
H520 H 0.16505 0.15199 0.28704 0.0
H521 H 0.19384 0.18562 0.25906 0.0
H522 H 0.14134 0.15106 0.34491 0.0
H523 H 0.20182 0.11284 0.28937 0.0
H524 H 0.2445 0.10885 0.27295 0.0
H525 H 0.25558 0.10824 0.37425 0.0
H526 H 0.21308 0.11257 0.39134 0.0
H527 H 0.06052 0.03492 0.37551 0.0
H528 H 0.09569 0.06477 0.34913 0.0
H529 H 0.13283 0.08686 0.44008 0.0
H530 H 0.09716 0.05716 0.46729 0.0
H531 H 0.16627 0.0833 0.37579 0.0
H532 H 0.10258 0.11964 0.42904 0.0
H533 H 0.05906 0.12212 0.44164 0.0
H534 H 0.05336 0.12472 0.33923 0.0
H535 H 0.09656 0.12139 0.3258 0.0
C536 C 0.23062 0.18809 0.32073 0.0
C537 C 0.22374 0.19461 0.29248 0.0
C538 C 0.21393 0.16897 0.33698 0.0
C539 C 0.19007 0.15559 0.32517 0.0
C540 C 0.18327 0.16196 0.29681 0.0
C541 C 0.19985 0.1812 0.2807 0.0
C542 C 0.17184 0.13553 0.34283 0.0
C543 C 0.14683 0.13614 0.35125 0.0
C544 C 0.17891 0.11617 0.35187 0.0
C545 C 0.20436 0.11329 0.34167 0.0
C546 C 0.21343 0.11202 0.30817 0.0
C547 C 0.23757 0.10968 0.29874 0.0
C548 C 0.25277 0.10837 0.32255 0.0
C549 C 0.2438 0.1093 0.35584 0.0
C550 C 0.21967 0.11168 0.36541 0.0
C551 C 0.07631 0.04572 0.38997 0.0
C552 C 0.07575 0.04366 0.42377 0.0
C553 C 0.09646 0.06285 0.37472 0.0
C554 C 0.11677 0.07825 0.39267 0.0
C555 C 0.11733 0.07514 0.42575 0.0
C556 C 0.09693 0.05809 0.44125 0.0
C557 C 0.13594 0.0989 0.37744 0.0
C558 C 0.16099 0.09836 0.3695 0.0
C559 C 0.12885 0.11816 0.36831 0.0
C560 C 0.10276 0.12001 0.37636 0.0
C561 C 0.09194 0.1204 0.40912 0.0
C562 C 0.06732 0.12199 0.41642 0.0
C563 C 0.05346 0.12359 0.39123 0.0
C564 C 0.06411 0.12343 0.35868 0.0
C565 C 0.08865 0.12165 0.35121 0.0
H566 H 0.03454 0.1251 0.39689 0.0
H567 H 0.27147 0.10658 0.3152 0.0
H568 H 0.85121 0.16367 0.34027 0.0
H569 H 0.87576 0.14503 0.36718 0.0
H570 H 0.94306 0.17891 0.30707 0.0
H571 H 0.91866 0.19763 0.28013 0.0
H572 H 0.93739 0.13196 0.30589 0.0
H573 H 0.93438 0.19865 0.38918 0.0
H574 H 0.91408 0.22491 0.4283 0.0
H575 H 0.87497 0.16426 0.48194 0.0
H576 H 0.89445 0.1374 0.44262 0.0
H577 H 1.00279 0.10113 0.44336 0.0
H578 H 0.98786 0.13004 0.42031 0.0
H579 H 0.93222 0.06953 0.36923 0.0
H580 H 0.94707 0.04059 0.39172 0.0
H581 H 0.93991 0.13631 0.42679 0.0
H582 H 0.92957 0.08463 0.29313 0.0
H583 H 0.95077 0.05901 0.25411 0.0
H584 H 1.01973 0.09229 0.3032 0.0
H585 H 0.99913 0.11843 0.34214 0.0
C586 C 0.87133 0.1675 0.33319 0.0
C587 C 0.88295 0.18205 0.30794 0.0
C588 C 0.88535 0.15682 0.34858 0.0
C589 C 0.91131 0.16067 0.33928 0.0
C590 C 0.92305 0.17561 0.31458 0.0
C591 C 0.90905 0.18622 0.29913 0.0
C592 C 0.92586 0.14797 0.35385 0.0
C593 C 0.93786 0.13292 0.33238 0.0
C594 C 0.92701 0.1496 0.38842 0.0
C595 C 0.9156 0.16587 0.41252 0.0
C596 C 0.92124 0.1908 0.40907 0.0
C597 C 0.90987 0.20581 0.43131 0.0
C598 C 0.89305 0.19619 0.45736 0.0
C599 C 0.88783 0.17162 0.46155 0.0
C600 C 0.89903 0.15649 0.43927 0.0
C601 C 0.98741 0.094 0.42717 0.0
C602 C 0.97616 0.06856 0.41933 0.0
C603 C 0.97881 0.11054 0.41427 0.0
C604 C 0.959 0.10193 0.3931 0.0
C605 C 0.94771 0.07656 0.3853 0.0
C606 C 0.95622 0.06004 0.39822 0.0
C607 C 0.94989 0.11926 0.37899 0.0
C608 C 0.93917 0.13529 0.40044 0.0
C609 C 0.94996 0.11864 0.3445 0.0
C610 C 0.9627 0.10335 0.32072 0.0
C611 C 0.9493 0.0866 0.29547 0.0
C612 C 0.96122 0.07197 0.27339 0.0
C613 C 0.98656 0.07399 0.27623 0.0
C614 C 1.00008 0.09071 0.30109 0.0
C615 C 0.98828 0.10542 0.32319 0.0
H616 H 0.99573 0.06262 0.25914 0.0
H617 H 0.88406 0.20778 0.47429 0.0
H618 H 0.85775 0.77961 0.29674 0.0
H619 H 0.89153 0.8064 0.33063 0.0
H620 H 0.86816 0.86864 0.32027 0.0
H621 H 0.83485 0.84205 0.28537 0.0
H622 H 0.91836 0.88094 0.31797 0.0
H623 H 0.84824 0.83603 0.38883 0.0
H624 H 0.81805 0.79797 0.40675 0.0
H625 H 0.88017 0.77482 0.42585 0.0
H626 H 0.91075 0.81262 0.40765 0.0
H627 H 0.96673 0.96623 0.45118 0.0
H628 H 0.9372 0.93542 0.41513 0.0
H629 H 0.96673 0.87973 0.43631 0.0
H630 H 0.99562 0.91054 0.47392 0.0
H631 H 0.91684 0.86155 0.43155 0.0
H632 H 0.98696 0.90698 0.3649 0.0
H633 H 1.01787 0.94437 0.3462 0.0
H634 H 0.95714 0.96551 0.31789 0.0
H635 H 0.92582 0.9284 0.33683 0.0
C636 C 0.86004 0.79908 0.30127 0.0
C637 C 0.84352 0.80874 0.28864 0.0
C638 C 0.87926 0.81433 0.32082 0.0
C639 C 0.88195 0.83941 0.32868 0.0
C640 C 0.86632 0.84929 0.31468 0.0
C641 C 0.8473 0.8341 0.29472 0.0
C642 C 0.90026 0.85524 0.35254 0.0
C643 C 0.91789 0.87681 0.34288 0.0
C644 C 0.90019 0.84941 0.38472 0.0
C645 C 0.88178 0.82706 0.39663 0.0
C646 C 0.85546 0.82279 0.39677 0.0
C647 C 0.83828 0.80127 0.40698 0.0
C648 C 0.84719 0.784 0.41744 0.0
C649 C 0.8733 0.78824 0.41779 0.0
C650 C 0.89056 0.80971 0.40755 0.0
C651 C 0.96672 0.94736 0.44841 0.0
C652 C 0.98356 0.94071 0.46495 0.0
C653 C 0.94995 0.92979 0.4277 0.0
C654 C 0.95027 0.90541 0.42227 0.0
C655 C 0.96631 0.89849 0.43994 0.0
C656 C 0.98276 0.91604 0.46136 0.0
C657 C 0.9345 0.88756 0.39719 0.0
C658 C 0.91745 0.86559 0.40657 0.0
C659 C 0.9352 0.8929 0.36461 0.0
C660 C 0.95404 0.91497 0.35247 0.0
C661 C 0.98019 0.91965 0.3548 0.0
C662 C 0.99778 0.94079 0.34416 0.0
C663 C 0.98947 0.95732 0.33092 0.0
C664 C 0.96355 0.95269 0.32816 0.0
C665 C 0.94587 0.93158 0.33879 0.0
H666 H 1.00311 0.97371 0.32275 0.0
H667 H 0.83387 0.76734 0.42527 0.0
H668 H 0.18722 0.84947 0.37009 0.0
H669 H 0.17074 0.86095 0.42545 0.0
H670 H 0.11398 0.7897 0.42316 0.0
H671 H 0.12998 0.77835 0.36653 0.0
H672 H 0.09319 0.82429 0.43798 0.0
H673 H 0.15869 0.80853 0.48035 0.0
H674 H 0.20143 0.80662 0.48592 0.0
H675 H 0.2293 0.88512 0.50606 0.0
H676 H 0.18691 0.88766 0.49996 0.0
H677 H 0.04808 0.90107 0.54795 0.0
H678 H 0.068 0.86916 0.54407 0.0
H679 H 0.13655 0.91601 0.49923 0.0
H680 H 0.11727 0.94906 0.50569 0.0
H681 H 0.14498 0.87804 0.5273 0.0
H682 H 0.08723 0.88814 0.45102 0.0
H683 H 0.04616 0.89285 0.44198 0.0
H684 H 1.00639 0.82592 0.48246 0.0
H685 H 0.04729 0.82104 0.49211 0.0
C686 C 0.17119 0.83623 0.38129 0.0
C687 C 0.15944 0.81326 0.3638 0.0
C688 C 0.16219 0.84257 0.41332 0.0
C689 C 0.14148 0.82597 0.42874 0.0
C690 C 0.13024 0.80261 0.41181 0.0
C691 C 0.13924 0.79624 0.37951 0.0
C692 C 0.12915 0.83514 0.45963 0.0
C693 C 0.10419 0.83515 0.45831 0.0
C694 C 0.14359 0.84946 0.48602 0.0
C695 C 0.16939 0.84825 0.48977 0.0
C696 C 0.17393 0.82544 0.4857 0.0
C697 C 0.19814 0.82424 0.48901 0.0
C698 C 0.21806 0.84573 0.49638 0.0
C699 C 0.21381 0.86847 0.50046 0.0
C700 C 0.18964 0.86979 0.49718 0.0
C701 C 0.06783 0.90505 0.53869 0.0
C702 C 0.08105 0.92728 0.52633 0.0
C703 C 0.07921 0.88681 0.53674 0.0
C704 C 0.10335 0.89 0.52044 0.0
C705 C 0.11778 0.91322 0.51181 0.0
C706 C 0.10669 0.93196 0.51504 0.0
C707 C 0.11013 0.86831 0.5037 0.0
C708 C 0.13377 0.86602 0.50789 0.0
C709 C 0.09472 0.85198 0.47947 0.0
C710 C 0.0702 0.85434 0.47251 0.0
C711 C 0.06969 0.87444 0.45793 0.0
C712 C 0.04648 0.87717 0.45278 0.0
C713 C 1.02368 0.85973 0.46171 0.0
C714 C 1.02407 0.83944 0.47563 0.0
C715 C 0.04725 0.83668 0.48095 0.0
H716 H 1.00572 0.86191 0.45781 0.0
H717 H 0.23679 0.84476 0.49892 0.0
H718 H 0.14306 0.81948 0.68828 0.0
H719 H 0.11894 0.84061 0.665 0.0
H720 H 0.17593 0.90988 0.69085 0.0
H721 H 0.19996 0.8889 0.71437 0.0
H722 H 0.13052 0.91371 0.70953 0.0
H723 H 0.16909 0.87987 0.60996 0.0
H724 H 0.1791 0.84641 0.57146 0.0
H725 H 0.09976 0.81159 0.55799 0.0
H726 H 0.08921 0.84462 0.59681 0.0
H727 H 0.10316 0.99017 0.61203 0.0
H728 H 0.12218 0.96434 0.63437 0.0
H729 H 0.05398 0.90312 0.62046 0.0
H730 H 0.0345 0.92915 0.59812 0.0
H731 H 0.10143 0.8928 0.5962 0.0
H732 H 0.06306 0.92699 0.69448 0.0
H733 H 0.05296 0.96022 0.73332 0.0
H734 H 0.13223 0.99469 0.74771 0.0
H735 H 0.14285 0.96184 0.70853 0.0
C736 C 0.15063 0.83918 0.68857 0.0
C737 C 0.17342 0.85251 0.70329 0.0
C738 C 0.13681 0.85125 0.67524 0.0
C739 C 0.14564 0.87687 0.67596 0.0
C740 C 0.16862 0.89013 0.69012 0.0
C741 C 0.18234 0.87812 0.70362 0.0
C742 C 0.13056 0.8901 0.66332 0.0
C743 C 0.12442 0.90924 0.68459 0.0
C744 C 0.12188 0.88389 0.63108 0.0
C745 C 0.12832 0.86446 0.60688 0.0
C746 C 0.15375 0.86496 0.59905 0.0
C747 C 0.15952 0.84606 0.57718 0.0
C748 C 0.14003 0.8267 0.56274 0.0
C749 C 0.11479 0.82645 0.56955 0.0
C750 C 0.10891 0.84526 0.59146 0.0
C751 C 0.09201 0.97128 0.61398 0.0
C752 C 0.06731 0.96166 0.60314 0.0
C753 C 0.10299 0.95652 0.62668 0.0
C754 C 0.08953 0.93182 0.62903 0.0
C755 C 0.06471 0.92215 0.61874 0.0
C756 C 0.0536 0.93702 0.60608 0.0
C757 C 0.10174 0.9164 0.64225 0.0
C758 C 0.10739 0.89701 0.62113 0.0
C759 C 0.11007 0.92236 0.67454 0.0
C760 C 0.10376 0.94205 0.69835 0.0
C761 C 0.07836 0.94176 0.70572 0.0
C762 C 0.07254 0.96051 0.72783 0.0
C763 C 0.09195 0.97958 0.74291 0.0
C764 C 0.11722 0.97991 0.73598 0.0
C765 C 0.12315 0.96121 0.71385 0.0
H766 H 0.0874 0.99409 0.76002 0.0
H767 H 0.14447 0.81195 0.5461 0.0
H768 H 0.22961 0.21443 0.65621 0.0
H769 H 0.19158 0.19049 0.62871 0.0
H770 H 0.14772 0.18614 0.72284 0.0
H771 H 0.18624 0.2097 0.75092 0.0
H772 H 0.13544 0.14368 0.68842 0.0
H773 H 0.14062 0.22194 0.66694 0.0
H774 H 0.15905 0.26353 0.65086 0.0
H775 H 0.17672 0.2331 0.55205 0.0
H776 H 0.15879 0.19134 0.5676 0.0
H777 H 0.04197 0.10929 0.54577 0.0
H778 H 0.06917 0.14105 0.58392 0.0
H779 H 0.10987 0.09108 0.59457 0.0
H780 H 0.08145 0.05892 0.55868 0.0
H781 H 0.11474 0.16549 0.5858 0.0
H782 H 0.13196 0.0988 0.6662 0.0
H783 H 0.10853 0.05887 0.68521 0.0
H784 H 0.03765 0.07016 0.67448 0.0
H785 H 0.06063 0.11032 0.65585 0.0
C786 C 0.2119 0.20851 0.67119 0.0
C787 C 0.21094 0.21394 0.7058 0.0
C788 C 0.19007 0.19499 0.65534 0.0
C789 C 0.16666 0.18696 0.67362 0.0
C790 C 0.16557 0.19231 0.70824 0.0
C791 C 0.18757 0.2057 0.72423 0.0
C792 C 0.14394 0.17158 0.65632 0.0
C793 C 0.13069 0.14855 0.66621 0.0
C794 C 0.13712 0.17829 0.62799 0.0
C795 C 0.14839 0.20344 0.61851 0.0
C796 C 0.14863 0.2241 0.64184 0.0
C797 C 0.15896 0.24772 0.63281 0.0
C798 C 0.16901 0.25094 0.60045 0.0
C799 C 0.16887 0.23057 0.5771 0.0
C800 C 0.15859 0.20691 0.586 0.0
C801 C 0.05675 0.10521 0.55639 0.0
C802 C 0.05953 0.0817 0.54982 0.0
C803 C 0.07227 0.12332 0.57815 0.0
C804 C 0.09111 0.11827 0.593 0.0
C805 C 0.0948 0.09515 0.58464 0.0
C806 C 0.07878 0.07686 0.56385 0.0
C807 C 0.10719 0.13709 0.61695 0.0
C808 C 0.11911 0.16078 0.60836 0.0
C809 C 0.11206 0.13135 0.64721 0.0
C810 C 0.09806 0.10755 0.65948 0.0
C811 C 0.11138 0.09288 0.66818 0.0
C812 C 0.09817 0.07017 0.6788 0.0
C813 C 0.07162 0.06197 0.68099 0.0
C814 C 0.05821 0.07651 0.6727 0.0
C815 C 0.07132 0.09925 0.6621 0.0
H816 H 0.06144 0.04435 0.68912 0.0
H817 H 0.17682 0.26923 0.59344 0.0
H818 H 0.92322 0.27025 0.61427 0.0
H819 H 0.9413 0.25313 0.56247 0.0
H820 H 0.96231 0.205 0.61507 0.0
H821 H 0.94362 0.22084 0.666 0.0
H822 H 0.99143 0.21579 0.54999 0.0
H823 H 0.89346 0.173 0.59778 0.0
H824 H 0.85394 0.18276 0.6188 0.0
H825 H 0.86745 0.23203 0.54643 0.0
H826 H 0.90715 0.22265 0.5253 0.0
H827 H 0.96857 0.10208 0.56751 0.0
H828 H 0.9585 0.14041 0.57429 0.0
H829 H 0.93161 0.12273 0.4767 0.0
H830 H 0.94128 0.08364 0.46999 0.0
H831 H 0.90727 0.15396 0.53039 0.0
H832 H 0.98801 0.15772 0.47088 0.0
H833 H 0.02669 0.14499 0.45835 0.0
H834 H 0.04706 0.17115 0.55805 0.0
H835 H 1.00867 0.18432 0.57099 0.0
C836 C 0.93247 0.25658 0.61498 0.0
C837 C 0.9305 0.24583 0.644 0.0
C838 C 0.94299 0.24701 0.58534 0.0
C839 C 0.95204 0.22711 0.58491 0.0
C840 C 0.95499 0.22015 0.61488 0.0
C841 C 0.94419 0.22936 0.64428 0.0
C842 C 0.95094 0.20869 0.55545 0.0
C843 C 0.97315 0.20269 0.54411 0.0
C844 C 0.92701 0.19165 0.54762 0.0
C845 C 0.90301 0.19697 0.55979 0.0
C846 C 0.88783 0.18575 0.58624 0.0
C847 C 0.86548 0.19128 0.59824 0.0
C848 C 0.8581 0.20789 0.58383 0.0
C849 C 0.87311 0.21908 0.55747 0.0
C850 C 0.89552 0.21366 0.54547 0.0
C851 C 0.95932 0.10578 0.54813 0.0
C852 C 0.95616 0.09037 0.51801 0.0
C853 C 0.95385 0.12777 0.55184 0.0
C854 C 0.94556 0.13476 0.52525 0.0
C855 C 0.9389 0.11787 0.49686 0.0
C856 C 0.94417 0.09554 0.49324 0.0
C857 C 0.94772 0.16084 0.52644 0.0
C858 C 0.92567 0.16778 0.53306 0.0
C859 C 0.97181 0.17882 0.52963 0.0
C860 C 0.99557 0.17207 0.52176 0.0
C861 C 1.00081 0.16078 0.49004 0.0
C862 C 1.02265 0.15347 0.4829 0.0
C863 C 0.03926 0.15713 0.50742 0.0
C864 C 0.03421 0.16837 0.53905 0.0
C865 C 1.01251 0.17594 0.54623 0.0
H866 H 0.05605 0.15128 0.5019 0.0
H867 H 0.84083 0.2122 0.59322 0.0
H868 H 0.85139 0.83328 0.7464 0.0
H869 H 0.87941 0.86852 0.72079 0.0
H870 H 0.83454 0.84661 0.63633 0.0
H871 H 0.80652 0.8112 0.66155 0.0
H872 H 0.88491 0.85908 0.61749 0.0
H873 H 0.83024 0.895 0.6939 0.0
H874 H 0.80908 0.90422 0.74845 0.0
H875 H 0.88171 0.94018 0.78788 0.0
H876 H 0.90331 0.93088 0.73367 0.0
H877 H 0.94886 0.96648 0.54373 0.0
H878 H 0.91449 0.93497 0.56915 0.0
H879 H 0.95117 0.95622 0.66062 0.0
H880 H 0.985 0.98822 0.63587 0.0
H881 H 0.90263 0.94423 0.67454 0.0
H882 H 0.95772 0.90679 0.60175 0.0
H883 H 0.98055 0.89624 0.54908 0.0
H884 H 0.90963 0.86234 0.5046 0.0
H885 H 0.88637 0.873 0.55691 0.0
C886 C 0.84736 0.83595 0.72243 0.0
C887 C 0.82657 0.8193 0.70616 0.0
C888 C 0.8634 0.85621 0.70784 0.0
C889 C 0.859 0.86043 0.6767 0.0
C890 C 0.83835 0.84381 0.66035 0.0
C891 C 0.82227 0.82357 0.67493 0.0
C892 C 0.87616 0.88191 0.661 0.0
C893 C 0.88846 0.87774 0.62972 0.0
C894 C 0.88135 0.90625 0.67725 0.0
C895 C 0.86838 0.91207 0.70978 0.0
C896 C 0.8417 0.90473 0.71426 0.0
C897 C 0.82963 0.90999 0.74511 0.0
C898 C 0.84404 0.92273 0.77163 0.0
C899 C 0.87056 0.9303 0.76733 0.0
C900 C 0.88273 0.92506 0.73653 0.0
C901 C 0.94934 0.96484 0.56949 0.0
C902 C 0.96987 0.97988 0.58762 0.0
C903 C 0.92977 0.94659 0.58392 0.0
C904 C 0.93048 0.9427 0.61663 0.0
C905 C 0.95016 0.95867 0.63532 0.0
C906 C 0.96956 0.97705 0.62106 0.0
C907 C 0.91157 0.92143 0.63105 0.0
C908 C 0.89895 0.9256 0.66212 0.0
C909 C 0.90635 0.89704 0.61478 0.0
C910 C 0.92031 0.89088 0.58318 0.0
C911 C 0.947 0.89727 0.58066 0.0
C912 C 0.96001 0.89124 0.5509 0.0
C913 C 0.94653 0.87859 0.52356 0.0
C914 C 0.92003 0.8721 0.52583 0.0
C915 C 0.90692 0.87813 0.55553 0.0
H916 H 0.95661 0.87368 0.50068 0.0
H917 H 0.83466 0.92678 0.7955 0.0
H918 H 0.28513 0.17901 0.17604 0.0
H919 H 0.31078 0.15269 0.14912 0.0
H920 H 0.37849 0.20757 0.18351 0.0
H921 H 0.3529 0.23346 0.21137 0.0
H922 H 0.38584 0.18822 0.11571 0.0
H923 H 0.35497 0.15613 0.21852 0.0
H924 H 0.32207 0.13844 0.26116 0.0
H925 H 0.28894 0.07643 0.19064 0.0
H926 H 0.32143 0.09395 0.14739 0.0
H927 H 0.47615 0.12278 0.07386 0.0
H928 H 0.44816 0.14629 0.09954 0.0
H929 H 0.3836 0.08125 0.08864 0.0
H930 H 0.41201 0.05729 0.06275 0.0
H931 H 0.37267 0.10486 0.14327 0.0
H932 H 0.3951 0.1376 0.03985 0.0
H933 H 0.42198 0.15601 0.99267 0.0
H934 H 0.46643 0.2147 0.05905 0.0
H935 H 0.4392 0.19707 0.10665 0.0
C936 C 0.30547 0.18561 0.17803 0.0
C937 C 0.31652 0.2088 0.19632 0.0
C938 C 0.32032 0.17031 0.16252 0.0
C939 C 0.34708 0.17763 0.16382 0.0
C940 C 0.35813 0.20096 0.18162 0.0
C941 C 0.34325 0.21594 0.19782 0.0
C942 C 0.36349 0.16139 0.1467 0.0
C943 C 0.38303 0.17014 0.12229 0.0
C944 C 0.35991 0.13715 0.15362 0.0
C945 C 0.34048 0.12649 0.1796 0.0
C946 C 0.34054 0.13883 0.21201 0.0
C947 C 0.32199 0.12881 0.23632 0.0
C948 C 0.30338 0.10636 0.22859 0.0
C949 C 0.30334 0.09384 0.19657 0.0
C950 C 0.32183 0.1038 0.17215 0.0
C951 C 0.45599 0.11319 0.07656 0.0
C952 C 0.44691 0.08765 0.0657 0.0
C953 C 0.43961 0.12702 0.09121 0.0
C954 C 0.41296 0.11632 0.0959 0.0
C955 C 0.40377 0.09066 0.08546 0.0
C956 C 0.42025 0.07673 0.07045 0.0
C957 C 0.3953 0.13175 0.11222 0.0
C958 C 0.37554 0.12291 0.13659 0.0
C959 C 0.39825 0.15578 0.10483 0.0
C960 C 0.41546 0.1658 0.07672 0.0
C961 C 0.41082 0.15426 0.04435 0.0
C962 C 0.42599 0.16462 0.01755 0.0
C963 C 0.44613 0.18629 0.02283 0.0
C964 C 0.45092 0.19784 0.05499 0.0
C965 C 0.43551 0.18778 0.08188 0.0
H966 H 0.45789 0.19422 0.00201 0.0
H967 H 0.28903 0.09864 0.24744 0.0
H968 H 0.79296 0.32268 0.17598 0.0
H969 H 0.82343 0.3558 0.14799 0.0
H970 H 0.88473 0.34649 0.19364 0.0
H971 H 0.8547 0.31352 0.2213 0.0
H972 H 0.88704 0.39497 0.19839 0.0
H973 H 0.87422 0.32397 0.11497 0.0
H974 H 0.84873 0.28927 0.07806 0.0
H975 H 0.82624 0.33897 0.03086 0.0
H976 H 0.85116 0.37399 0.06803 0.0
H977 H 1.00147 0.44846 0.10868 0.0
H978 H 0.96377 0.42224 0.13606 0.0
H979 H 0.91636 0.43809 0.07294 0.0
H980 H 0.9543 0.46421 0.04476 0.0
H981 H 0.90204 0.39008 0.07644 0.0
H982 H 0.91749 0.46138 0.15548 0.0
H983 H 0.94217 0.49655 0.19248 0.0
H984 H 0.95875 0.44747 0.2476 0.0
H985 H 0.93448 0.41199 0.21062 0.0
C986 C 0.81294 0.32766 0.17995 0.0
C987 C 0.82137 0.31529 0.20074 0.0
C988 C 0.83033 0.34656 0.16389 0.0
C989 C 0.85641 0.35358 0.16859 0.0
C990 C 0.86474 0.34142 0.1896 0.0
C991 C 0.8475 0.32243 0.20528 0.0
C992 C 0.8753 0.37361 0.15195 0.0
C993 C 0.89042 0.39384 0.17172 0.0
C994 C 0.87911 0.37262 0.11711 0.0
C995 C 0.86419 0.35157 0.09471 0.0
C996 C 0.86359 0.3275 0.09701 0.0
C997 C 0.84928 0.30777 0.076 0.0
C998 C 0.83572 0.31191 0.05233 0.0
C999 C 0.83662 0.3358 0.04938 0.0
C1000 C 0.85081 0.35559 0.07043 0.0
C1001 C 0.98305 0.4467 0.10078 0.0
C1002 C 0.98103 0.45862 0.07452 0.0
C1003 C 0.96141 0.43171 0.11664 0.0
C1004 C 0.93708 0.42832 0.10691 0.0
C1005 C 0.93488 0.44046 0.08102 0.0
C1006 C 0.95661 0.45555 0.06509 0.0
C1007 C 0.9143 0.41116 0.12293 0.0
C1008 C 0.89844 0.39147 0.1031 0.0
C1009 C 0.90964 0.41271 0.15774 0.0
C1010 C 0.9243 0.43401 0.18009 0.0
C1011 C 0.92656 0.45808 0.17532 0.0
C1012 C 0.94045 0.47808 0.19632 0.0
C1013 C 0.95206 0.47425 0.22233 0.0
C1014 C 0.94976 0.45041 0.22743 0.0
C1015 C 0.93591 0.43034 0.20647 0.0
H1016 H 0.96281 0.48976 0.23857 0.0
H1017 H 0.82452 0.29659 0.03627 0.0
H1018 H 0.70815 0.85917 0.15887 0.0
H1019 H 0.68125 0.87737 0.13597 0.0
H1020 H 0.70235 0.84779 0.03756 0.0
H1021 H 0.73013 0.83019 0.06029 0.0
H1022 H 0.70316 0.89434 0.03904 0.0
H1023 H 0.6434 0.82206 0.0759 0.0
H1024 H 0.62264 0.79246 0.11528 0.0
H1025 H 0.60032 0.84841 0.18146 0.0
H1026 H 0.62124 0.87844 0.14267 0.0
H1027 H 0.59143 0.91832 0.98376 0.0
H1028 H 0.61684 0.89343 0.99579 0.0
H1029 H 0.63656 0.94124 0.08665 0.0
H1030 H 0.6128 0.96686 0.07403 0.0
H1031 H 0.61319 0.88101 0.08183 0.0
H1032 H 0.67935 0.95419 0.0493 0.0
H1033 H 0.70069 0.98417 0.0107 0.0
H1034 H 0.71168 0.92632 0.93715 0.0
H1035 H 0.68956 0.89579 0.97515 0.0
C1036 C 0.70728 0.85666 0.13232 0.0
C1037 C 0.72138 0.84319 0.11147 0.0
C1038 C 0.69162 0.86686 0.11926 0.0
C1039 C 0.6894 0.86365 0.08504 0.0
C1040 C 0.70358 0.85038 0.06406 0.0
C1041 C 0.71931 0.84017 0.07713 0.0
C1042 C 0.67269 0.87466 0.07137 0.0
C1043 C 0.68337 0.89103 0.04799 0.0
C1044 C 0.64687 0.87061 0.08318 0.0
C1045 C 0.63403 0.85254 0.10644 0.0
C1046 C 0.63419 0.82809 0.09893 0.0
C1047 C 0.62238 0.81123 0.12114 0.0
C1048 C 0.6102 0.81856 0.15087 0.0
C1049 C 0.60976 0.84276 0.15842 0.0
C1050 C 0.62155 0.8597 0.1363 0.0
C1051 C 0.6015 0.92372 0.006 0.0
C1052 C 0.60051 0.94491 0.02752 0.0
C1053 C 0.61589 0.90943 0.01292 0.0
C1054 C 0.62875 0.91571 0.04196 0.0
C1055 C 0.62699 0.93626 0.06396 0.0
C1056 C 0.61341 0.95091 0.05659 0.0
C1057 C 0.64386 0.90087 0.05015 0.0
C1058 C 0.63286 0.88387 0.07252 0.0
C1059 C 0.66937 0.90441 0.03759 0.0
C1060 C 0.68222 0.92265 0.01468 0.0
C1061 C 0.68578 0.94777 0.02465 0.0
C1062 C 0.69813 0.96487 0.00296 0.0
C1063 C 0.7074 0.9571 0.97141 0.0
C1064 C 0.70442 0.93223 0.96158 0.0
C1065 C 0.69187 0.91503 0.98309 0.0
H1066 H 0.71699 0.97036 0.95464 0.0
H1067 H 0.60108 0.80548 0.16804 0.0
H1068 H 0.26294 0.69133 0.15335 0.0
H1069 H 0.23322 0.65746 0.12013 0.0
H1070 H 0.18647 0.7035 0.11771 0.0
H1071 H 0.21566 0.73698 0.15091 0.0
H1072 H 0.16403 0.66096 0.15115 0.0
H1073 H 0.21259 0.68503 0.04808 0.0
H1074 H 0.25169 0.69292 0.01072 0.0
H1075 H 0.25209 0.61907 0.01009 0.0
H1076 H 0.2131 0.61082 0.04773 0.0
H1077 H 0.05865 0.60355 0.06232 0.0
H1078 H 0.0991 0.63052 0.08158 0.0
H1079 H 0.1314 0.5711 0.05753 0.0
H1080 H 0.09063 0.54368 0.03845 0.0
H1081 H 0.1649 0.61383 0.03933 0.0
H1082 H 0.11571 0.58727 0.13582 0.0
H1083 H 0.07918 0.57767 0.17713 0.0
H1084 H 0.08238 0.65344 0.19495 0.0
H1085 H 0.1187 0.66347 0.15337 0.0
C1086 C 0.24684 0.69443 0.14454 0.0
C1087 C 0.2413 0.71657 0.15494 0.0
C1088 C 0.2299 0.6751 0.12567 0.0
C1089 C 0.20757 0.67799 0.11687 0.0
C1090 C 0.20354 0.70092 0.12446 0.0
C1091 C 0.22022 0.72002 0.14339 0.0
C1092 C 0.18621 0.65662 0.10525 0.0
C1093 C 0.16411 0.65078 0.12657 0.0
C1094 C 0.18696 0.64251 0.07399 0.0
C1095 C 0.21014 0.64741 0.05103 0.0
C1096 C 0.22114 0.67054 0.04019 0.0
C1097 C 0.24324 0.67506 0.0189 0.0
C1098 C 0.25443 0.65654 0.00815 0.0
C1099 C 0.24344 0.63341 0.01849 0.0
C1100 C 0.22132 0.62879 0.03975 0.0
C1101 C 0.07432 0.59616 0.06099 0.0
C1102 C 0.07132 0.57139 0.04922 0.0
C1103 C 0.09746 0.61161 0.07203 0.0
C1104 C 0.1182 0.60276 0.07119 0.0
C1105 C 0.1156 0.57826 0.05845 0.0
C1106 C 0.09227 0.56262 0.04778 0.0
C1107 C 0.14221 0.61922 0.0846 0.0
C1108 C 0.16485 0.62386 0.06399 0.0
C1109 C 0.14221 0.63209 0.11687 0.0
C1110 C 0.1198 0.62607 0.14118 0.0
C1111 C 0.10842 0.60184 0.14821 0.0
C1112 C 0.0878 0.59634 0.17177 0.0
C1113 C 0.07842 0.61492 0.18859 0.0
C1114 C 0.08964 0.63906 0.18186 0.0
C1115 C 0.11026 0.64466 0.15831 0.0
H1116 H 0.0625 0.61063 0.20688 0.0
H1117 H 0.27157 0.66009 0.99174 0.0
H1118 H 0.35216 0.79589 0.80781 0.0
H1119 H 0.3806 0.82509 0.84565 0.0
H1120 H 0.31797 0.84715 0.89793 0.0
H1121 H 0.28889 0.81797 0.85884 0.0
H1122 H 0.35957 0.88646 0.88589 0.0
H1123 H 0.34495 0.81296 0.93344 0.0
H1124 H 0.34002 0.76895 0.93056 0.0
H1125 H 0.41749 0.78177 0.89123 0.0
H1126 H 0.42281 0.82577 0.89335 0.0
H1127 H 0.46232 0.96609 0.97848 0.0
H1128 H 0.42122 0.93669 0.96492 0.0
H1129 H 0.45939 0.8873 0.9087 0.0
H1130 H 0.50029 0.91612 0.924 0.0
H1131 H 0.42121 0.86153 0.93834 0.0
H1132 H 0.43196 0.93038 0.87608 0.0
H1133 H 0.43763 0.97392 0.87294 0.0
H1134 H 0.3691 0.96948 0.93543 0.0
H1135 H 0.36315 0.92595 0.93908 0.0
C1136 C 0.34414 0.80668 0.82743 0.0
C1137 C 0.31809 0.80444 0.83029 0.0
C1138 C 0.36054 0.82335 0.84927 0.0
C1139 C 0.35137 0.83795 0.87509 0.0
C1140 C 0.32538 0.83585 0.87832 0.0
C1141 C 0.3088 0.81914 0.85609 0.0
C1142 C 0.36967 0.85604 0.89727 0.0
C1143 C 0.37273 0.88104 0.89805 0.0
C1144 C 0.38693 0.84895 0.91293 0.0
C1145 C 0.38425 0.82271 0.91352 0.0
C1146 C 0.36095 0.80641 0.92421 0.0
C1147 C 0.35808 0.78145 0.92265 0.0
C1148 C 0.3784 0.77258 0.91061 0.0
C1149 C 0.40176 0.78868 0.90053 0.0
C1150 C 0.40473 0.81365 0.90199 0.0
C1151 C 0.46181 0.9489 0.96328 0.0
C1152 C 0.48439 0.94339 0.95202 0.0
C1153 C 0.43829 0.93207 0.95543 0.0
C1154 C 0.43698 0.90975 0.93529 0.0
C1155 C 0.45969 0.90426 0.92441 0.0
C1156 C 0.48312 0.92077 0.933 0.0
C1157 C 0.41233 0.89203 0.92481 0.0
C1158 C 0.40784 0.86704 0.92673 0.0
C1159 C 0.39402 0.89914 0.91118 0.0
C1160 C 0.39727 0.92505 0.90814 0.0
C1161 C 0.41815 0.93873 0.88918 0.0
C1162 C 0.42141 0.96339 0.88733 0.0
C1163 C 0.40378 0.97448 0.90407 0.0
C1164 C 0.38277 0.96088 0.92253 0.0
C1165 C 0.37942 0.93622 0.92448 0.0
H1166 H 0.40638 0.99359 0.90267 0.0
H1167 H 0.37604 0.75323 0.90894 0.0
H1168 H 0.23125 0.32016 0.75654 0.0
H1169 H 0.20618 0.34662 0.78338 0.0
H1170 H 0.19919 0.31586 0.87385 0.0
H1171 H 0.22507 0.28996 0.84726 0.0
H1172 H 0.16232 0.34445 0.80632 0.0
H1173 H 0.18328 0.35244 0.94251 0.0
H1174 H 0.21748 0.35166 0.97475 0.0
H1175 H 0.27275 0.37567 0.89499 0.0
H1176 H 0.23894 0.37693 0.86246 0.0
H1177 H 0.07268 0.39516 0.90641 0.0
H1178 H 0.10004 0.37093 0.88089 0.0
H1179 H 0.16568 0.42925 0.91476 0.0
H1180 H 0.13788 0.45364 0.94121 0.0
H1181 H 0.17538 0.38946 0.91908 0.0
H1182 H 0.14637 0.41138 0.8272 0.0
H1183 H 0.11472 0.41513 0.79308 0.0
H1184 H 0.08085 0.33689 0.78013 0.0
H1185 H 0.11206 0.33269 0.8146 0.0
C1186 C 0.22457 0.31896 0.78225 0.0
C1187 C 0.23076 0.30254 0.79931 0.0
C1188 C 0.2099 0.3343 0.79783 0.0
C1189 C 0.20051 0.33421 0.83144 0.0
C1190 C 0.20634 0.31746 0.84838 0.0
C1191 C 0.22121 0.30221 0.83284 0.0
C1192 C 0.18457 0.35118 0.84806 0.0
C1193 C 0.16538 0.35413 0.83105 0.0
C1194 C 0.18801 0.36474 0.88036 0.0
C1195 C 0.20853 0.36449 0.89991 0.0
C1196 C 0.20275 0.35764 0.93191 0.0
C1197 C 0.22206 0.3571 0.95022 0.0
C1198 C 0.24726 0.3635 0.93687 0.0
C1199 C 0.25322 0.37062 0.90525 0.0
C1200 C 0.23399 0.37124 0.88686 0.0
C1201 C 0.09295 0.40318 0.90845 0.0
C1202 C 0.10261 0.42694 0.92598 0.0
C1203 C 0.10891 0.38911 0.89328 0.0
C1204 C 0.13565 0.3979 0.8945 0.0
C1205 C 0.1454 0.42151 0.91264 0.0
C1206 C 0.12931 0.43572 0.92786 0.0
C1207 C 0.15292 0.38236 0.87748 0.0
C1208 C 0.17234 0.37971 0.89438 0.0
C1209 C 0.14995 0.36931 0.84486 0.0
C1210 C 0.13138 0.37175 0.82379 0.0
C1211 C 0.13207 0.39499 0.81725 0.0
C1212 C 0.11419 0.39719 0.79788 0.0
C1213 C 0.09566 0.37628 0.78468 0.0
C1214 C 0.09512 0.35309 0.79056 0.0
C1215 C 0.11291 0.35078 0.80998 0.0
H1216 H 0.08185 0.37802 0.76967 0.0
H1217 H 0.26217 0.363 0.95103 0.0
H1218 H 0.70019 0.21277 0.79188 0.0
H1219 H 0.6693 0.18156 0.821 0.0
H1220 H 0.72971 0.16122 0.85287 0.0
H1221 H 0.76117 0.19237 0.82268 0.0
H1222 H 0.69229 0.12126 0.833 0.0
H1223 H 0.69617 0.19345 0.90784 0.0
H1224 H 0.69688 0.23625 0.92584 0.0
H1225 H 0.62161 0.21925 0.89488 0.0
H1226 H 0.62056 0.1764 0.87626 0.0
H1227 H 0.59705 0.04843 0.94424 0.0
H1228 H 0.6349 0.07773 0.92078 0.0
H1229 H 0.58747 0.10364 0.86988 0.0
H1230 H 0.54963 0.07449 0.89296 0.0
H1231 H 0.62235 0.14116 0.90674 0.0
H1232 H 0.6215 0.06919 0.82761 0.0
H1233 H 0.6217 0.02648 0.81141 0.0
H1234 H 0.69275 0.04364 0.85459 0.0
H1235 H 0.6928 0.08641 0.87143 0.0
C1236 C 0.70711 0.20186 0.80519 0.0
C1237 C 0.73329 0.20525 0.80502 0.0
C1238 C 0.68931 0.18401 0.82205 0.0
C1239 C 0.69711 0.1693 0.83972 0.0
C1240 C 0.72322 0.17246 0.83957 0.0
C1241 C 0.74118 0.19031 0.82239 0.0
C1242 C 0.67767 0.15027 0.85736 0.0
C1243 C 0.67729 0.12569 0.84968 0.0
C1244 C 0.65795 0.15595 0.879 0.0
C1245 C 0.65837 0.1817 0.89043 0.0
C1246 C 0.67983 0.19886 0.90466 0.0
C1247 C 0.68028 0.22313 0.915 0.0
C1248 C 0.65933 0.23048 0.91142 0.0
C1249 C 0.63783 0.21353 0.8976 0.0
C1250 C 0.63728 0.18923 0.8872 0.0
C1251 C 0.59465 0.06003 0.92756 0.0
C1252 C 0.57019 0.05905 0.92056 0.0
C1253 C 0.61634 0.07681 0.91423 0.0
C1254 C 0.61399 0.09294 0.8937 0.0
C1255 C 0.58971 0.09145 0.88582 0.0
C1256 C 0.56807 0.07463 0.89892 0.0
C1257 C 0.63659 0.11219 0.88151 0.0
C1258 C 0.63755 0.13683 0.89039 0.0
C1259 C 0.65697 0.10657 0.86142 0.0
C1260 C 0.657 0.08092 0.8511 0.0
C1261 C 0.63705 0.06381 0.83389 0.0
C1262 C 0.63714 0.0396 0.82454 0.0
C1263 C 0.65718 0.03233 0.83206 0.0
C1264 C 0.67722 0.04929 0.84884 0.0
C1265 C 0.67721 0.07352 0.85826 0.0
H1266 H 0.65721 0.01358 0.82481 0.0
H1267 H 0.65973 0.24929 0.9194 0.0
H1268 H 0.8725 0.73152 0.93682 0.0
H1269 H 0.89019 0.70585 0.96212 0.0
H1270 H 0.8813 0.65418 0.87305 0.0
H1271 H 0.86246 0.67901 0.84824 0.0
H1272 H 0.86671 0.63077 0.92646 0.0
H1273 H 0.94093 0.69949 0.89473 0.0
H1274 H 0.96488 0.74362 0.89831 0.0
H1275 H 0.96422 0.74792 0.00363 0.0
H1276 H 0.94014 0.70386 1.00065 0.0
H1277 H 0.94538 0.56005 0.92487 0.0
H1278 H 0.92447 0.58885 0.91581 0.0
H1279 H 0.95272 0.63524 0.00485 0.0
H1280 H 0.97586 0.60723 0.01239 0.0
H1281 H 0.95415 0.66328 0.96357 0.0
H1282 H 0.8873 0.59663 0.9985 0.0
H1283 H 0.8616 0.55352 1.00125 0.0
H1284 H 0.84404 0.54613 0.90056 0.0
H1285 H 0.86992 0.58911 0.89703 0.0
C1286 C 0.874 0.71455 0.9227 0.0
C1287 C 0.86614 0.70752 0.89028 0.0
C1288 C 0.88443 0.7 0.93713 0.0
C1289 C 0.88752 0.6782 0.91937 0.0
C1290 C 0.87929 0.67096 0.88727 0.0
C1291 C 0.86874 0.68537 0.87293 0.0
C1292 C 0.89933 0.66278 0.93373 0.0
C1293 C 0.88591 0.63782 0.93433 0.0
C1294 C 0.9238 0.67217 0.94593 0.0
C1295 C 0.93865 0.69848 0.94748 0.0
C1296 C 0.94587 0.70989 0.91863 0.0
C1297 C 0.95946 0.73487 0.92056 0.0
C1298 C 0.96604 0.74857 0.95118 0.0
C1299 C 0.95913 0.73729 0.97993 0.0
C1300 C 0.94556 0.71232 0.97813 0.0
C1301 C 0.94717 0.57632 0.94271 0.0
C1302 C 0.96185 0.58093 0.9699 0.0
C1303 C 0.93491 0.59276 0.93763 0.0
C1304 C 0.93604 0.61392 0.96026 0.0
C1305 C 0.95115 0.61893 0.98718 0.0
C1306 C 0.9642 0.60275 0.99169 0.0
C1307 C 0.92199 0.63086 0.95476 0.0
C1308 C 0.93485 0.65613 0.95608 0.0
C1309 C 0.89662 0.62189 0.94536 0.0
C1310 C 0.88066 0.5961 0.94746 0.0
C1311 C 0.87804 0.58579 0.97689 0.0
C1312 C 0.86344 0.56137 0.97859 0.0
C1313 C 0.85122 0.54709 0.95108 0.0
C1314 C 0.85351 0.55722 0.92185 0.0
C1315 C 0.86811 0.58163 0.92 0.0
H1316 H 0.83995 0.52817 0.95244 0.0
H1317 H 0.97653 0.76791 0.95262 0.0
H1318 H 0.21398 0.33567 0.11393 0.0
H1319 H 0.19367 0.36151 0.09358 0.0
H1320 H 0.12253 0.30296 0.09318 0.0
H1321 H 0.14268 0.27702 0.11369 0.0
H1322 H 0.13041 0.32399 0.03818 0.0
H1323 H 0.13311 0.35232 0.15378 0.0
H1324 H 0.15285 0.36779 0.20677 0.0
H1325 H 0.20188 0.43192 0.16643 0.0
H1326 H 0.1827 0.41666 0.11302 0.0
H1327 H 0.05468 0.40037 0.02035 0.0
H1328 H 0.07384 0.37107 0.03418 0.0
H1329 H 0.14494 0.42899 0.04675 0.0
H1330 H 0.12541 0.45838 0.03471 0.0
H1331 H 0.1352 0.40673 0.09684 0.0
H1332 H 0.13797 0.37236 0.97773 0.0
H1333 H 0.11972 0.35369 0.92432 0.0
H1334 H 0.05901 0.30139 0.97297 0.0
H1335 H 0.0775 0.31894 0.02651 0.0
C1336 C 0.19395 0.32832 0.10981 0.0
C1337 C 0.17999 0.30423 0.11563 0.0
C1338 C 0.18235 0.34314 0.0981 0.0
C1339 C 0.15644 0.33434 0.09219 0.0
C1340 C 0.14253 0.3102 0.0975 0.0
C1341 C 0.15413 0.29534 0.10915 0.0
C1342 C 0.14392 0.3503 0.0804 0.0
C1343 C 0.13125 0.342 0.05122 0.0
C1344 C 0.14514 0.37392 0.0971 0.0
C1345 C 0.15663 0.38322 0.12927 0.0
C1346 C 0.14824 0.36962 0.15612 0.0
C1347 C 0.15932 0.37836 0.18624 0.0
C1348 C 0.17867 0.40077 0.18992 0.0
C1349 C 0.18692 0.41454 0.16352 0.0
C1350 C 0.17594 0.40586 0.13332 0.0
C1351 C 0.07452 0.4067 0.02547 0.0
C1352 C 0.08845 0.43173 0.02678 0.0
C1353 C 0.08559 0.38987 0.03318 0.0
C1354 C 0.11103 0.39762 0.04148 0.0
C1355 C 0.12526 0.42243 0.04081 0.0
C1356 C 0.11409 0.43927 0.03383 0.0
C1357 C 0.12225 0.38077 0.05394 0.0
C1358 C 0.1345 0.38882 0.08357 0.0
C1359 C 0.12054 0.35689 0.03778 0.0
C1360 C 0.10884 0.34717 0.00605 0.0
C1361 C 0.12059 0.35704 0.97703 0.0
C1362 C 0.11029 0.34661 0.94675 0.0
C1363 C 0.08802 0.32671 0.9453 0.0
C1364 C 0.07617 0.3169 0.97412 0.0
C1365 C 0.08666 0.32692 0.00439 0.0
H1366 H 0.08008 0.31877 0.9218 0.0
H1367 H 0.18722 0.40751 0.21326 0.0
H1368 H 0.25343 0.68638 0.80862 0.0
H1369 H 0.22332 0.65286 0.83606 0.0
H1370 H 0.16919 0.69312 0.85531 0.0
H1371 H 0.19888 0.72643 0.82736 0.0
H1372 H 0.17455 0.66984 0.91039 0.0
H1373 H 0.16055 0.65213 0.79351 0.0
H1374 H 0.17425 0.64533 0.73438 0.0
H1375 H 0.19791 0.58517 0.75143 0.0
H1376 H 0.18466 0.59186 0.8108 0.0
H1377 H 0.05185 0.56241 0.88959 0.0
H1378 H 0.08953 0.59169 0.86623 0.0
H1379 H 0.13324 0.58596 0.94241 0.0
H1380 H 0.09544 0.55648 0.96602 0.0
H1381 H 0.13658 0.59083 0.84124 0.0
H1382 H 0.17638 0.64794 0.96236 0.0
H1383 H 0.16286 0.65873 0.02059 0.0
H1384 H 0.08605 0.64164 0.99521 0.0
H1385 H 0.09926 0.6317 0.93659 0.0
C1386 C 0.23525 0.68825 0.81908 0.0
C1387 C 0.22854 0.70909 0.81573 0.0
C1388 C 0.21804 0.66903 0.83465 0.0
C1389 C 0.19399 0.67046 0.84764 0.0
C1390 C 0.18766 0.69166 0.84552 0.0
C1391 C 0.20464 0.71065 0.82944 0.0
C1392 C 0.1748 0.64944 0.86191 0.0
C1393 C 0.16643 0.65243 0.89544 0.0
C1394 C 0.16413 0.62682 0.84231 0.0
C1395 C 0.1719 0.62267 0.80662 0.0
C1396 C 0.16888 0.63759 0.78469 0.0
C1397 C 0.17652 0.63373 0.75113 0.0
C1398 C 0.18702 0.61488 0.73917 0.0
C1399 C 0.18982 0.5998 0.76074 0.0
C1400 C 0.18224 0.60361 0.79434 0.0
C1401 C 0.06956 0.56702 0.90109 0.0
C1402 C 0.07056 0.55705 0.92969 0.0
C1403 C 0.09114 0.58378 0.88767 0.0
C1404 C 0.11421 0.59129 0.90271 0.0
C1405 C 0.11562 0.58063 0.9305 0.0
C1406 C 0.09403 0.56361 0.9438 0.0
C1407 C 0.13614 0.61113 0.88996 0.0
C1408 C 0.14504 0.60797 0.85656 0.0
C1409 C 0.14728 0.63363 0.90978 0.0
C1410 C 0.13877 0.63868 0.94509 0.0
C1411 C 0.15659 0.64642 0.96919 0.0
C1412 C 0.149 0.65247 0.00226 0.0
C1413 C 0.1236 0.65074 0.0116 0.0
C1414 C 0.10571 0.64289 0.98792 0.0
C1415 C 0.11325 0.63707 0.95474 0.0
H1416 H 0.11785 0.65573 0.03714 0.0
H1417 H 0.19292 0.61192 0.71318 0.0
H1418 H 0.34762 0.20229 0.91058 0.0
H1419 H 0.37481 0.18379 0.93288 0.0
H1420 H 0.34095 0.11496 0.87362 0.0
H1421 H 0.31355 0.13324 0.85148 0.0
H1422 H 0.34473 0.10949 0.93841 0.0
H1423 H 0.39838 0.15081 0.85035 0.0
H1424 H 0.42029 0.18651 0.82089 0.0
H1425 H 0.46079 0.22371 0.90631 0.0
H1426 H 0.43881 0.18834 0.93647 0.0
H1427 H 0.4284 0.04136 0.93207 0.0
H1428 H 0.4022 0.06494 0.92099 0.0
H1429 H 0.44875 0.12912 0.97836 0.0
H1430 H 0.47562 0.10551 0.98927 0.0
H1431 H 0.43875 0.14038 0.92168 0.0
H1432 H 0.38877 0.09619 0.00753 0.0
H1433 H 0.36708 0.05986 0.03584 0.0
H1434 H 0.31947 0.02791 0.95548 0.0
H1435 H 0.34111 0.06376 0.92627 0.0
C1436 C 0.34584 0.18317 0.90246 0.0
C1437 C 0.32837 0.16925 0.87924 0.0
C1438 C 0.36152 0.17267 0.91507 0.0
C1439 C 0.36001 0.14801 0.90484 0.0
C1440 C 0.34246 0.13402 0.88189 0.0
C1441 C 0.32693 0.14455 0.86906 0.0
C1442 C 0.37667 0.13667 0.91791 0.0
C1443 C 0.36529 0.11614 0.93461 0.0
C1444 C 0.40352 0.14583 0.91389 0.0
C1445 C 0.41673 0.16707 0.89579 0.0
C1446 C 0.41178 0.1667 0.86295 0.0
C1447 C 0.42425 0.18685 0.84611 0.0
C1448 C 0.44186 0.20739 0.86175 0.0
C1449 C 0.4471 0.2078 0.89425 0.0
C1450 C 0.43465 0.18771 0.91123 0.0
C1451 C 0.4331 0.06046 0.94265 0.0
C1452 C 0.4542 0.07151 0.96165 0.0
C1453 C 0.4179 0.07392 0.93639 0.0
C1454 C 0.42309 0.09875 0.94931 0.0
C1455 C 0.44413 0.10994 0.96838 0.0
C1456 C 0.45949 0.09641 0.97465 0.0
C1457 C 0.40681 0.11284 0.94172 0.0
C1458 C 0.41822 0.13388 0.92597 0.0
C1459 C 0.37994 0.1042 0.9468 0.0
C1460 C 0.36665 0.08273 0.96463 0.0
C1461 C 0.37374 0.08142 0.9958 0.0
C1462 C 0.36146 0.0609 0.01202 0.0
C1463 C 0.34193 0.04164 0.9975 0.0
C1464 C 0.33459 0.04286 0.96672 0.0
C1465 C 0.34684 0.06329 0.95032 0.0
H1466 H 0.33247 0.02578 0.01012 0.0
H1467 H 0.45151 0.22297 0.84866 0.0
H1468 H 0.84668 0.28638 0.82551 0.0
H1469 H 0.87134 0.31704 0.86665 0.0
H1470 H 0.81476 0.35454 0.88058 0.0
H1471 H 0.78959 0.32343 0.83946 0.0
H1472 H 0.86423 0.38438 0.86494 0.0
H1473 H 0.8226 0.3313 0.94416 0.0
H1474 H 0.80486 0.29214 0.96724 0.0
H1475 H 0.87953 0.28498 0.96242 0.0
H1476 H 0.89771 0.32388 0.93877 0.0
H1477 H 0.95911 0.47076 0.96379 0.0
H1478 H 0.91725 0.44328 0.94902 0.0
H1479 H 0.94742 0.38229 0.9283 0.0
H1480 H 0.98894 0.40938 0.94387 0.0
H1481 H 0.9017 0.36848 0.95912 0.0
H1482 H 0.94013 0.41478 0.8665 0.0
H1483 H 0.95843 0.45293 0.84095 0.0
H1484 H 0.8898 0.47186 0.86998 0.0
H1485 H 0.87121 0.43391 0.89598 0.0
C1486 C 0.83921 0.30088 0.83778 0.0
C1487 C 0.81631 0.30263 0.82918 0.0
C1488 C 0.85325 0.3183 0.86145 0.0
C1489 C 0.84481 0.33798 0.8768 0.0
C1490 C 0.82149 0.33938 0.86913 0.0
C1491 C 0.80714 0.32161 0.84575 0.0
C1492 C 0.86207 0.35826 0.89769 0.0
C1493 C 0.87193 0.38117 0.88618 0.0
C1494 C 0.8723 0.35391 0.92508 0.0
C1495 C 0.86151 0.33049 0.93946 0.0
C1496 C 0.83523 0.32128 0.94774 0.0
C1497 C 0.82509 0.29912 0.96093 0.0
C1498 C 0.84104 0.28602 0.96612 0.0
C1499 C 0.86719 0.29512 0.9583 0.0
C1500 C 0.87743 0.31726 0.94505 0.0
C1501 C 0.95681 0.45149 0.95609 0.0
C1502 C 0.97746 0.44231 0.95463 0.0
C1503 C 0.93285 0.4358 0.94771 0.0
C1504 C 0.92924 0.41075 0.93718 0.0
C1505 C 0.9497 0.40152 0.93644 0.0
C1506 C 0.97351 0.41709 0.94517 0.0
C1507 C 0.90468 0.39411 0.92527 0.0
C1508 C 0.89348 0.37193 0.93853 0.0
C1509 C 0.8933 0.39904 0.89931 0.0
C1510 C 0.90442 0.42171 0.88351 0.0
C1511 C 0.92902 0.42717 0.86759 0.0
C1512 C 0.93943 0.44873 0.85301 0.0
C1513 C 0.92532 0.46485 0.85394 0.0
C1514 C 0.90073 0.45939 0.86934 0.0
C1515 C 0.89024 0.43786 0.88399 0.0
H1516 H 0.93341 0.48153 0.84265 0.0
H1517 H 0.83315 0.26888 0.97638 0.0
H1518 H 0.76367 0.82788 0.83248 0.0
H1519 H 0.73958 0.8557 0.85775 0.0
H1520 H 0.67985 0.81771 0.79311 0.0
H1521 H 0.7044 0.7906 0.767 0.0
H1522 H 0.67935 0.86025 0.79836 0.0
H1523 H 0.67729 0.81624 0.88818 0.0
H1524 H 0.69378 0.79951 0.92901 0.0
H1525 H 0.73923 0.87214 0.96529 0.0
H1526 H 0.72345 0.88917 0.92414 0.0
H1527 H 0.58221 0.90527 0.89326 0.0
H1528 H 0.60974 0.88086 0.86825 0.0
H1529 H 0.67339 0.9346 0.91405 0.0
H1530 H 0.64562 0.9593 0.93972 0.0
H1531 H 0.67267 0.8856 0.91916 0.0
H1532 H 0.66962 0.92865 0.82945 0.0
H1533 H 0.64811 0.94263 0.79114 0.0
H1534 H 0.60753 0.86789 0.75667 0.0
H1535 H 0.62886 0.85346 0.79472 0.0
C1536 C 0.74537 0.82527 0.82355 0.0
C1537 C 0.73638 0.80643 0.79733 0.0
C1538 C 0.7312 0.8413 0.83848 0.0
C1539 C 0.70698 0.83918 0.82847 0.0
C1540 C 0.69816 0.82043 0.80206 0.0
C1541 C 0.71242 0.80457 0.78695 0.0
C1542 C 0.69119 0.85642 0.84465 0.0
C1543 C 0.67793 0.86539 0.82489 0.0
C1544 C 0.68882 0.86422 0.87939 0.0
C1545 C 0.6992 0.85398 0.90314 0.0
C1546 C 0.69097 0.8286 0.9047 0.0
C1547 C 0.70019 0.81906 0.92788 0.0
C1548 C 0.71753 0.83475 0.94975 0.0
C1549 C 0.7258 0.86 0.94835 0.0
C1550 C 0.71672 0.86961 0.92511 0.0
C1551 C 0.6021 0.91222 0.89815 0.0
C1552 C 0.61125 0.93481 0.91874 0.0
C1553 C 0.61807 0.89799 0.88353 0.0
C1554 C 0.64419 0.90533 0.8888 0.0
C1555 C 0.65349 0.92789 0.90946 0.0
C1556 C 0.63747 0.94235 0.92398 0.0
C1557 C 0.66126 0.88943 0.87287 0.0
C1558 C 0.67454 0.88062 0.89266 0.0
C1559 C 0.66328 0.88141 0.83827 0.0
C1560 C 0.65068 0.89 0.8151 0.0
C1561 C 0.65603 0.91521 0.81378 0.0
C1562 C 0.64392 0.92321 0.79206 0.0
C1563 C 0.62642 0.90616 0.77153 0.0
C1564 C 0.62106 0.88107 0.77262 0.0
C1565 C 0.63325 0.87297 0.79414 0.0
H1566 H 0.61707 0.91238 0.75472 0.0
H1567 H 0.72456 0.82735 0.96778 0.0
H1568 H 0.82376 0.72546 0.15032 0.0
H1569 H 0.84804 0.69853 0.12211 0.0
H1570 H 0.84718 0.67128 0.21374 0.0
H1571 H 0.82178 0.69716 0.24138 0.0
H1572 H 0.84547 0.63506 0.17354 0.0
H1573 H 0.8942 0.68681 0.063 0.0
H1574 H 0.90972 0.72875 0.0477 0.0
H1575 H 0.91802 0.75851 0.1498 0.0
H1576 H 0.90292 0.71672 0.16565 0.0
H1577 H 0.91082 0.55876 0.06274 0.0
H1578 H 0.88322 0.58389 0.08698 0.0
H1579 H 0.94932 0.64503 0.11157 0.0
H1580 H 0.97663 0.62024 0.08758 0.0
H1581 H 0.9184 0.66381 0.09263 0.0
H1582 H 0.9061 0.60762 0.17086 0.0
H1583 H 0.89476 0.56713 0.19013 0.0
H1584 H 0.81931 0.54908 0.15923 0.0
H1585 H 0.83031 0.58937 0.1394 0.0
C1586 C 0.82871 0.71381 0.16466 0.0
C1587 C 0.82044 0.71404 0.19865 0.0
C1588 C 0.84308 0.69828 0.14833 0.0
C1589 C 0.85064 0.68254 0.16523 0.0
C1590 C 0.84215 0.68275 0.19919 0.0
C1591 C 0.82744 0.69792 0.21534 0.0
C1592 C 0.86688 0.66588 0.14812 0.0
C1593 C 0.86129 0.64165 0.15577 0.0
C1594 C 0.88815 0.67346 0.12467 0.0
C1595 C 0.89708 0.69866 0.11554 0.0
C1596 C 0.89934 0.70231 0.08218 0.0
C1597 C 0.90809 0.72605 0.0734 0.0
C1598 C 0.91472 0.74628 0.09778 0.0
C1599 C 0.91275 0.74282 0.13096 0.0
C1600 C 0.9041 0.71911 0.13986 0.0
C1601 C 0.91958 0.5775 0.07345 0.0
C1602 C 0.94643 0.58693 0.07311 0.0
C1603 C 0.90359 0.59208 0.08761 0.0
C1604 C 0.91361 0.61688 0.10201 0.0
C1605 C 0.94041 0.62627 0.10105 0.0
C1606 C 0.95628 0.61174 0.08723 0.0
C1607 C 0.89679 0.63313 0.11792 0.0
C1608 C 0.90236 0.65726 0.11015 0.0
C1609 C 0.87577 0.6256 0.14153 0.0
C1610 C 0.86911 0.60138 0.15331 0.0
C1611 C 0.88715 0.59493 0.16794 0.0
C1612 C 0.88078 0.57204 0.17901 0.0
C1613 C 0.85635 0.55551 0.17581 0.0
C1614 C 0.83823 0.56188 0.16162 0.0
C1615 C 0.84452 0.58474 0.15048 0.0
H1616 H 0.85145 0.5378 0.18441 0.0
H1617 H 0.92147 0.76465 0.09095 0.0
H1618 H 0.35399 0.79556 0.1759 0.0
H1619 H 0.38682 0.82887 0.15199 0.0
H1620 H 0.33711 0.87392 0.1726 0.0
H1621 H 0.30363 0.84 0.19495 0.0
H1622 H 0.36047 0.87978 0.11474 0.0
H1623 H 0.39284 0.88413 0.22235 0.0
H1624 H 0.40619 0.86701 0.26591 0.0
H1625 H 0.45798 0.8411 0.19521 0.0
H1626 H 0.44517 0.85819 0.15145 0.0
H1627 H 0.46536 0.98366 0.06987 0.0
H1628 H 0.4284 0.95632 0.0984 0.0
H1629 H 0.46902 0.90369 0.09304 0.0
H1630 H 0.506 0.93131 0.06696 0.0
H1631 H 0.44838 0.90646 0.14951 0.0
H1632 H 0.40971 0.88937 0.04156 0.0
H1633 H 0.39578 0.90085 0.99359 0.0
H1634 H 0.35905 0.94722 0.05829 0.0
H1635 H 0.37175 0.93498 0.10677 0.0
C1636 C 0.35004 0.81254 0.17519 0.0
C1637 C 0.32627 0.8152 0.18724 0.0
C1638 C 0.36894 0.83172 0.16189 0.0
C1639 C 0.36481 0.85427 0.16134 0.0
C1640 C 0.34087 0.8568 0.17292 0.0
C1641 C 0.32172 0.83738 0.18557 0.0
C1642 C 0.38516 0.87486 0.1477 0.0
C1643 C 0.37959 0.8859 0.1228 0.0
C1644 C 0.41034 0.88259 0.15743 0.0
C1645 C 0.41782 0.87217 0.18369 0.0
C1646 C 0.40689 0.87457 0.21616 0.0
C1647 C 0.41439 0.86495 0.24084 0.0
C1648 C 0.43271 0.85282 0.23327 0.0
C1649 C 0.44374 0.85044 0.20104 0.0
C1650 C 0.43646 0.86018 0.17634 0.0
C1651 C 0.46632 0.96631 0.07513 0.0
C1652 C 0.48875 0.95987 0.06682 0.0
C1653 C 0.44507 0.95052 0.091 0.0
C1654 C 0.4457 0.92771 0.09777 0.0
C1655 C 0.46799 0.92122 0.08862 0.0
C1656 C 0.48925 0.93714 0.07373 0.0
C1657 C 0.42397 0.91075 0.11562 0.0
C1658 C 0.4292 0.90057 0.14164 0.0
C1659 C 0.39871 0.90339 0.10635 0.0
C1660 C 0.39199 0.91162 0.07758 0.0
C1661 C 0.39883 0.90215 0.04547 0.0
C1662 C 0.39105 0.90869 0.01822 0.0
C1663 C 0.37691 0.92508 0.02281 0.0
C1664 C 0.37014 0.93464 0.05474 0.0
C1665 C 0.3774 0.92774 0.08212 0.0
H1666 H 0.37105 0.93023 0.00164 0.0
H1667 H 0.43843 0.84536 0.25243 0.0
H1668 H 0.76151 0.20539 0.14823 0.0
H1669 H 0.73332 0.17565 0.10869 0.0
H1670 H 0.67132 0.20253 0.15118 0.0
H1671 H 0.69898 0.23235 0.18989 0.0
H1672 H 0.67164 0.1458 0.14856 0.0
H1673 H 0.67939 0.21665 0.0913 0.0
H1674 H 0.70395 0.2509 0.06045 0.0
H1675 H 0.73062 0.20112 0.98752 0.0
H1676 H 0.70656 0.16663 0.01837 0.0
H1677 H 0.5626 0.11057 0.03625 0.0
H1678 H 0.60191 0.13992 0.05622 0.0
H1679 H 0.63075 0.08044 0.06287 0.0
H1680 H 0.59141 0.05088 0.0433 0.0
H1681 H 0.65238 0.15121 0.03593 0.0
H1682 H 0.66247 0.09444 0.13198 0.0
H1683 H 0.63637 0.06191 0.16489 0.0
H1684 H 0.57144 0.08598 0.16299 0.0
H1685 H 0.5972 0.11872 0.13023 0.0
C1686 C 0.74204 0.20535 0.14858 0.0
C1687 C 0.73248 0.22112 0.17246 0.0
C1688 C 0.72602 0.1884 0.12599 0.0
C1689 C 0.70038 0.18711 0.12706 0.0
C1690 C 0.69115 0.20346 0.14987 0.0
C1691 C 0.70704 0.22043 0.17209 0.0
C1692 C 0.68205 0.1669 0.10774 0.0
C1693 C 0.6677 0.14671 0.12369 0.0
C1694 C 0.67682 0.1684 0.07557 0.0
C1695 C 0.69161 0.18918 0.05748 0.0
C1696 C 0.69085 0.21308 0.06902 0.0
C1697 C 0.70458 0.23252 0.05145 0.0
C1698 C 0.71896 0.22821 0.02214 0.0
C1699 C 0.71958 0.20445 0.01031 0.0
C1700 C 0.70592 0.18497 0.02784 0.0
C1701 C 0.57733 0.10367 0.04174 0.0
C1702 C 0.57361 0.07831 0.03868 0.0
C1703 C 0.59988 0.12051 0.05296 0.0
C1704 C 0.61913 0.11235 0.06137 0.0
C1705 C 0.61598 0.08712 0.05694 0.0
C1706 C 0.59343 0.07025 0.0458 0.0
C1707 C 0.64159 0.1302 0.07701 0.0
C1708 C 0.65671 0.14991 0.06045 0.0
C1709 C 0.64738 0.12847 0.10891 0.0
C1710 C 0.63167 0.10878 0.12835 0.0
C1711 C 0.64261 0.09273 0.13855 0.0
C1712 C 0.62788 0.07427 0.15716 0.0
C1713 C 0.60225 0.07183 0.16593 0.0
C1714 C 0.59127 0.08784 0.15609 0.0
C1715 C 0.60591 0.10631 0.13743 0.0
H1716 H 0.5909 0.05757 0.18042 0.0
H1717 H 0.72952 0.24327 0.00852 0.0
H1718 H 0.73905 0.71 0.84189 0.0
H1719 H 0.70899 0.67742 0.87009 0.0
H1720 H 0.67937 0.64014 0.77712 0.0
H1721 H 0.70926 0.67313 0.74856 0.0
H1722 H 0.64125 0.63974 0.82415 0.0
H1723 H 0.7196 0.62036 0.81638 0.0
H1724 H 0.76514 0.62909 0.82332 0.0
H1725 H 0.75154 0.64523 0.92827 0.0
H1726 H 0.70596 0.63691 0.92193 0.0
H1727 H 0.57016 0.52795 0.87807 0.0
H1728 H 0.60493 0.55755 0.85051 0.0
H1729 H 0.62935 0.59673 0.94505 0.0
H1730 H 0.59447 0.5669 0.97304 0.0
H1731 H 0.6703 0.59602 0.89797 0.0
H1732 H 0.59313 0.61671 0.90677 0.0
H1733 H 0.54715 0.60673 0.9017 0.0
H1734 H 0.55838 0.58868 0.79672 0.0
H1735 H 0.60443 0.5982 0.80122 0.0
C1736 C 0.72626 0.69488 0.82724 0.0
C1737 C 0.72678 0.69425 0.79277 0.0
C1738 C 0.70907 0.67613 0.84351 0.0
C1739 C 0.69205 0.65603 0.8258 0.0
C1740 C 0.69233 0.65538 0.7914 0.0
C1741 C 0.70952 0.67424 0.77505 0.0
C1742 C 0.67387 0.63593 0.84333 0.0
C1743 C 0.64771 0.62997 0.83985 0.0
C1744 C 0.68205 0.62354 0.86473 0.0
C1745 C 0.7094 0.62821 0.86864 0.0
C1746 C 0.72634 0.62591 0.84092 0.0
C1747 C 0.75216 0.63077 0.84475 0.0
C1748 C 0.76124 0.63778 0.87621 0.0
C1749 C 0.74449 0.63984 0.90392 0.0
C1750 C 0.71866 0.63502 0.90022 0.0
C1751 C 0.58319 0.54255 0.89312 0.0
C1752 C 0.57932 0.54512 0.92783 0.0
C1753 C 0.60306 0.55955 0.87727 0.0
C1754 C 0.61947 0.5797 0.89564 0.0
C1755 C 0.61686 0.5814 0.93032 0.0
C1756 C 0.59694 0.56427 0.94631 0.0
C1757 C 0.63788 0.59979 0.87849 0.0
C1758 C 0.66396 0.60579 0.88215 0.0
C1759 C 0.62965 0.61237 0.85747 0.0
C1760 C 0.6022 0.60794 0.85437 0.0
C1761 C 0.58579 0.61056 0.8826 0.0
C1762 C 0.55972 0.60495 0.87985 0.0
C1763 C 0.54984 0.5969 0.84895 0.0
C1764 C 0.56607 0.59481 0.82066 0.0
C1765 C 0.59217 0.60035 0.82329 0.0
H1766 H 0.52961 0.59231 0.84694 0.0
H1767 H 0.78124 0.64156 0.87912 0.0
H1768 H 0.35162 0.63571 0.79895 0.0
H1769 H 0.37314 0.61656 0.82946 0.0
H1770 H 0.41236 0.68744 0.88019 0.0
H1771 H 0.39123 0.7069 0.84896 0.0
H1772 H 0.44482 0.66383 0.85697 0.0
H1773 H 0.36677 0.64493 0.91769 0.0
H1774 H 0.3214 0.63044 0.93579 0.0
H1775 H 0.31907 0.55632 0.89903 0.0
H1776 H 0.36451 0.57038 0.88058 0.0
H1777 H 0.50238 0.59912 0.94286 0.0
H1778 H 0.48026 0.62572 0.92828 0.0
H1779 H 0.43013 0.56351 0.87176 0.0
H1780 H 0.45117 0.53675 0.88766 0.0
H1781 H 0.40343 0.58779 0.90814 0.0
H1782 H 0.48028 0.61229 0.83412 0.0
H1783 H 0.52659 0.62835 0.821 0.0
H1784 H 0.52992 0.6931 0.88989 0.0
H1785 H 0.48353 0.6776 0.90294 0.0
C1786 C 0.36476 0.64725 0.81667 0.0
C1787 C 0.36996 0.67285 0.8212 0.0
C1788 C 0.37683 0.63624 0.83443 0.0
C1789 C 0.39426 0.65053 0.85732 0.0
C1790 C 0.39892 0.67606 0.86272 0.0
C1791 C 0.38676 0.68712 0.84497 0.0
C1792 C 0.40906 0.63883 0.87319 0.0
C1793 C 0.4357 0.64752 0.86893 0.0
C1794 C 0.39722 0.6174 0.88854 0.0
C1795 C 0.36933 0.60885 0.89773 0.0
C1796 C 0.35666 0.62558 0.9132 0.0
C1797 C 0.33086 0.61741 0.92362 0.0
C1798 C 0.31734 0.59246 0.91855 0.0
C1799 C 0.32959 0.57566 0.90297 0.0
C1800 C 0.35543 0.58374 0.89263 0.0
C1801 C 0.48678 0.59116 0.92709 0.0
C1802 C 0.47835 0.56573 0.9168 0.0
C1803 C 0.47424 0.60644 0.91856 0.0
C1804 C 0.45353 0.59669 0.89874 0.0
C1805 C 0.4459 0.57149 0.88729 0.0
C1806 C 0.45811 0.55619 0.89623 0.0
C1807 C 0.43895 0.61225 0.89082 0.0
C1808 C 0.41238 0.60428 0.89664 0.0
C1809 C 0.45077 0.63447 0.87741 0.0
C1810 C 0.47857 0.6437 0.86972 0.0
C1811 C 0.49094 0.6299 0.84656 0.0
C1812 C 0.51717 0.63891 0.8391 0.0
C1813 C 0.53122 0.66161 0.85484 0.0
C1814 C 0.51903 0.67548 0.8778 0.0
C1815 C 0.49276 0.66666 0.8851 0.0
H1816 H 0.55154 0.66849 0.84913 0.0
H1817 H 0.29737 0.58615 0.92671 0.0
H1818 H 0.34045 0.27664 0.83028 0.0
H1819 H 0.37304 0.30461 0.86494 0.0
H1820 H 0.384 0.36108 0.80327 0.0
H1821 H 0.35127 0.33324 0.76835 0.0
H1822 H 0.42946 0.35704 0.82031 0.0
H1823 H 0.34961 0.36349 0.87286 0.0
H1824 H 0.30574 0.34836 0.89758 0.0
H1825 H 0.33192 0.3192 0.97094 0.0
H1826 H 0.37592 0.33385 0.94636 0.0
H1827 H 0.4907 0.46362 0.92302 0.0
H1828 H 0.46046 0.43195 0.88903 0.0
H1829 H 0.4515 0.38113 0.95864 0.0
H1830 H 0.48176 0.41294 0.99326 0.0
H1831 H 0.40587 0.38005 0.93859 0.0
H1832 H 0.48629 0.37564 0.88753 0.0
H1833 H 0.53015 0.39185 0.86335 0.0
H1834 H 0.50296 0.41765 0.78744 0.0
H1835 H 0.45894 0.40191 0.81145 0.0
C1836 C 0.34993 0.29492 0.82381 0.0
C1837 C 0.34319 0.30276 0.79659 0.0
C1838 C 0.36846 0.3109 0.84378 0.0
C1839 C 0.38065 0.33493 0.83683 0.0
C1840 C 0.37469 0.34258 0.80903 0.0
C1841 C 0.35598 0.32667 0.78916 0.0
C1842 C 0.39925 0.35228 0.85901 0.0
C1843 C 0.42429 0.36227 0.84609 0.0
C1844 C 0.39252 0.35852 0.89283 0.0
C1845 C 0.36603 0.34949 0.90748 0.0
C1846 C 0.34598 0.35361 0.89403 0.0
C1847 C 0.3211 0.34518 0.90807 0.0
C1848 C 0.31604 0.33275 0.93574 0.0
C1849 C 0.33586 0.32878 0.94946 0.0
C1850 C 0.36078 0.33715 0.93549 0.0
C1851 C 0.48236 0.44572 0.9312 0.0
C1852 C 0.48874 0.44076 0.96081 0.0
C1853 C 0.46514 0.42762 0.91163 0.0
C1854 C 0.45405 0.40413 0.9211 0.0
C1855 C 0.46 0.39915 0.95087 0.0
C1856 C 0.47731 0.4173 0.97054 0.0
C1857 C 0.43607 0.38498 0.89983 0.0
C1858 C 0.41113 0.37464 0.9129 0.0
C1859 C 0.44288 0.37841 0.86614 0.0
C1860 C 0.46932 0.38776 0.85146 0.0
C1861 C 0.48967 0.38493 0.86582 0.0
C1862 C 0.51456 0.39401 0.85212 0.0
C1863 C 0.51934 0.40582 0.82392 0.0
C1864 C 0.49923 0.40851 0.8093 0.0
C1865 C 0.4743 0.39949 0.82293 0.0
H1866 H 0.53863 0.41284 0.81335 0.0
H1867 H 0.29677 0.32628 0.9466 0.0
H1868 H 0.70524 0.30902 0.91529 0.0
H1869 H 0.68589 0.32263 0.96874 0.0
H1870 H 0.62723 0.33291 0.91847 0.0
H1871 H 0.64632 0.31966 0.86571 0.0
H1872 H 0.68142 0.36589 0.98996 0.0
H1873 H 0.57332 0.32282 0.95822 0.0
H1874 H 0.5453 0.28189 0.93826 0.0
H1875 H 0.59667 0.24859 0.9666 0.0
H1876 H 0.62481 0.28927 0.98746 0.0
H1877 H 0.62187 0.45172 0.99826 0.0
H1878 H 0.64391 0.42143 0.99629 0.0
H1879 H 0.57838 0.3752 0.0481 0.0
H1880 H 0.5559 0.40439 0.0472 0.0
H1881 H 0.58806 0.34756 0.00806 0.0
H1882 H 0.64451 0.40121 0.07668 0.0
H1883 H 0.6729 0.43871 0.10535 0.0
H1884 H 0.72523 0.44643 0.0191 0.0
H1885 H 0.69689 0.40915 0.98974 0.0
C1886 C 0.688 0.31391 0.91585 0.0
C1887 C 0.67731 0.31337 0.88631 0.0
C1888 C 0.67695 0.32153 0.94635 0.0
C1889 C 0.65494 0.32846 0.94768 0.0
C1890 C 0.6438 0.32699 0.91825 0.0
C1891 C 0.65477 0.31944 0.88796 0.0
C1892 C 0.64492 0.34027 0.97856 0.0
C1893 C 0.66103 0.36192 0.99455 0.0
C1894 C 0.6185 0.33386 0.98682 0.0
C1895 C 0.6012 0.30925 0.97469 0.0
C1896 C 0.57854 0.30681 0.96071 0.0
C1897 C 0.56264 0.28361 0.94908 0.0
C1898 C 0.56916 0.26265 0.95122 0.0
C1899 C 0.59161 0.26484 0.96498 0.0
C1900 C 0.60756 0.28798 0.97668 0.0
C1901 C 0.61255 0.4353 0.00983 0.0
C1902 C 0.58721 0.43019 0.02251 0.0
C1903 C 0.62526 0.41803 0.00926 0.0
C1904 C 0.61318 0.39587 0.02268 0.0
C1905 C 0.58841 0.39192 0.03759 0.0
C1906 C 0.57547 0.40867 0.03703 0.0
C1907 C 0.62443 0.37532 0.01569 0.0
C1908 C 0.60849 0.35169 0.00484 0.0
C1909 C 0.65103 0.37947 0.01383 0.0
C1910 C 0.66848 0.4021 0.03109 0.0
C1911 C 0.66201 0.41086 0.06381 0.0
C1912 C 0.67812 0.43214 0.08019 0.0
C1913 C 0.70092 0.44493 0.0641 0.0
C1914 C 0.7076 0.43644 0.03159 0.0
C1915 C 0.69152 0.41514 0.01511 0.0
H1916 H 0.71338 0.46144 0.07679 0.0
H1917 H 0.55684 0.24472 0.94215 0.0
H1918 H 0.63316 0.32001 0.2024 0.0
H1919 H 0.61187 0.34222 0.17623 0.0
H1920 H 0.68416 0.39566 0.15468 0.0
H1921 H 0.70552 0.37373 0.1813 0.0
H1922 H 0.65089 0.4172 0.18629 0.0
H1923 H 0.65218 0.35991 0.09156 0.0
H1924 H 0.64678 0.32058 0.05556 0.0
H1925 H 0.56631 0.29947 0.08073 0.0
H1926 H 0.57122 0.33865 0.11708 0.0
H1927 H 0.6088 0.48534 0.09286 0.0
H1928 H 0.62891 0.45908 0.1123 0.0
H1929 H 0.55532 0.40607 0.12916 0.0
H1930 H 0.53522 0.4319 0.10764 0.0
H1931 H 0.58741 0.38349 0.10267 0.0
H1932 H 0.58984 0.44599 0.19399 0.0
H1933 H 0.59847 0.48825 0.22254 0.0
H1934 H 0.67816 0.50268 0.19432 0.0
H1935 H 0.66998 0.46061 0.16526 0.0
C1936 C 0.64453 0.33637 0.19179 0.0
C1937 C 0.67097 0.34526 0.19416 0.0
C1938 C 0.63238 0.3489 0.17656 0.0
C1939 C 0.64644 0.37058 0.16349 0.0
C1940 C 0.67297 0.37895 0.16463 0.0
C1941 C 0.68515 0.36634 0.17968 0.0
C1942 C 0.63321 0.3858 0.15193 0.0
C1943 C 0.6375 0.41003 0.16731 0.0
C1944 C 0.61512 0.37619 0.12801 0.0
C1945 C 0.61214 0.35203 0.10762 0.0
C1946 C 0.63337 0.34671 0.08991 0.0
C1947 C 0.63039 0.3245 0.06928 0.0
C1948 C 0.60625 0.30744 0.06612 0.0
C1949 C 0.58502 0.31264 0.08338 0.0
C1950 C 0.58789 0.33486 0.10398 0.0
C1951 C 0.5969 0.46817 0.101 0.0
C1952 C 0.57047 0.4607 0.09919 0.0
C1953 C 0.60839 0.45322 0.11225 0.0
C1954 C 0.59359 0.4309 0.12316 0.0
C1955 C 0.5671 0.42334 0.12124 0.0
C1956 C 0.55563 0.43806 0.10907 0.0
C1957 C 0.60604 0.41528 0.13553 0.0
C1958 C 0.60117 0.39081 0.12102 0.0
C1959 C 0.62424 0.42493 0.15939 0.0
C1960 C 0.62925 0.45018 0.17721 0.0
C1961 C 0.60918 0.45822 0.1937 0.0
C1962 C 0.614 0.48214 0.21 0.0
C1963 C 0.63884 0.49816 0.21018 0.0
C1964 C 0.65892 0.49026 0.19414 0.0
C1965 C 0.65421 0.46637 0.17778 0.0
H1966 H 0.64252 0.51667 0.22279 0.0
H1967 H 0.60396 0.29023 0.0502 0.0
H1968 H 0.70794 0.68213 0.23535 0.0
H1969 H 0.67275 0.65374 0.20453 0.0
H1970 H 0.65972 0.71472 0.17026 0.0
H1971 H 0.69509 0.74312 0.20043 0.0
H1972 H 0.61375 0.67469 0.18729 0.0
H1973 H 0.69393 0.6911 0.12171 0.0
H1974 H 0.73935 0.69446 0.11113 0.0
H1975 H 0.72201 0.6181 0.12022 0.0
H1976 H 0.67648 0.61441 0.13146 0.0
H1977 H 0.55031 0.61121 0.04197 0.0
H1978 H 0.58064 0.64136 0.07846 0.0
H1979 H 0.60224 0.5831 0.10739 0.0
H1980 H 0.57213 0.55305 0.07141 0.0
H1981 H 0.64349 0.6228 0.09329 0.0
H1982 H 0.56334 0.60582 0.15763 0.0
H1983 H 0.51796 0.60229 0.16952 0.0
H1984 H 0.53486 0.67906 0.16345 0.0
H1985 H 0.58035 0.68297 0.15101 0.0
C1986 C 0.69713 0.68949 0.22196 0.0
C1987 C 0.70432 0.71473 0.21996 0.0
C1988 C 0.67713 0.6733 0.20433 0.0
C1989 C 0.66388 0.68223 0.185 0.0
C1990 C 0.66976 0.70755 0.18508 0.0
C1991 C 0.69001 0.72369 0.20217 0.0
C1992 C 0.646 0.66515 0.16178 0.0
C1993 C 0.6202 0.66349 0.16653 0.0
C1994 C 0.65455 0.65048 0.13497 0.0
C1995 C 0.68185 0.65256 0.12782 0.0
C1996 C 0.69983 0.67509 0.12176 0.0
C1997 C 0.72559 0.67704 0.1156 0.0
C1998 C 0.73357 0.65653 0.11511 0.0
C1999 C 0.7158 0.63399 0.12067 0.0
C2000 C 0.69001 0.63195 0.12694 0.0
C2001 C 0.56169 0.60491 0.05594 0.0
C2002 C 0.55875 0.57979 0.05401 0.0
C2003 C 0.57887 0.62209 0.07685 0.0
C2004 C 0.59346 0.61436 0.09577 0.0
C2005 C 0.5911 0.5894 0.09304 0.0
C2006 C 0.5738 0.57226 0.07255 0.0
C2007 C 0.61108 0.63211 0.11884 0.0
C2008 C 0.63694 0.63397 0.114 0.0
C2009 C 0.60252 0.6469 0.14555 0.0
C2010 C 0.5752 0.64462 0.15297 0.0
C2011 C 0.55735 0.6219 0.15849 0.0
C2012 C 0.53162 0.61983 0.1654 0.0
C2013 C 0.52352 0.64042 0.16713 0.0
C2014 C 0.54116 0.66312 0.16203 0.0
C2015 C 0.56692 0.66527 0.15506 0.0
H2016 H 0.50359 0.63879 0.17251 0.0
H2017 H 0.75353 0.65808 0.11033 0.0
H2018 H 0.39054 0.71027 0.08916 0.0
H2019 H 0.40071 0.68979 0.03564 0.0
H2020 H 0.32077 0.65312 0.02421 0.0
H2021 H 0.31065 0.67329 0.07876 0.0
H2022 H 0.34068 0.621 0.02374 0.0
H2023 H 0.36162 0.68186 0.95997 0.0
H2024 H 0.37632 0.72151 0.93864 0.0
H2025 H 0.45384 0.72637 0.94707 0.0
H2026 H 0.4397 0.68701 0.96941 0.0
H2027 H 0.42271 0.54807 0.97018 0.0
H2028 H 0.39288 0.56886 0.96053 0.0
H2029 H 0.44136 0.63724 0.00721 0.0
H2030 H 0.47121 0.61681 0.01634 0.0
H2031 H 0.4219 0.64509 0.955 0.0
H2032 H 0.38715 0.59553 0.05039 0.0
H2033 H 0.36991 0.55542 0.07137 0.0
H2034 H 0.31581 0.53035 0.99739 0.0
H2035 H 0.33289 0.57031 0.97595 0.0
C2036 C 0.37509 0.69859 0.07469 0.0
C2037 C 0.34992 0.69275 0.08838 0.0
C2038 C 0.38086 0.68702 0.04372 0.0
C2039 C 0.36151 0.66958 0.02578 0.0
C2040 C 0.33605 0.66626 0.03767 0.0
C2041 C 0.3303 0.6776 0.06893 0.0
C2042 C 0.36844 0.65065 1.00113 0.0
C2043 C 0.35788 0.62623 0.00754 0.0
C2044 C 0.39038 0.65693 0.97903 0.0
C2045 C 0.39946 0.68118 0.9664 0.0
C2046 C 0.38182 0.69142 0.95767 0.0
C2047 C 0.39009 0.71392 0.9453 0.0
C2048 C 0.41602 0.72649 0.94141 0.0
C2049 C 0.43374 0.71658 0.95 0.0
C2050 C 0.42558 0.69408 0.96247 0.0
C2051 C 0.42686 0.56752 0.97853 0.0
C2052 C 0.44904 0.58075 0.99459 0.0
C2053 C 0.40996 0.57941 0.97267 0.0
C2054 C 0.41489 0.60463 0.98309 0.0
C2055 C 0.43727 0.61783 0.99855 0.0
C2056 C 0.45416 0.60605 0.00424 0.0
C2057 C 0.3959 0.61727 0.98193 0.0
C2058 C 0.40403 0.64005 0.9699 0.0
C2059 C 0.37155 0.60955 0.9986 0.0
C2060 C 0.36143 0.58565 0.01139 0.0
C2061 C 0.37164 0.58138 0.03859 0.0
C2062 C 0.36191 0.55871 0.05054 0.0
C2063 C 0.34183 0.54032 0.03565 0.0
C2064 C 0.3314 0.54458 0.00883 0.0
C2065 C 0.3411 0.56721 0.99676 0.0
H2066 H 0.33431 0.52278 0.04495 0.0
H2067 H 0.42236 0.7439 0.93174 0.0
H2068 H 0.29859 0.31517 0.16515 0.0
H2069 H 0.32687 0.35006 0.13915 0.0
H2070 H 0.3762 0.36815 0.21875 0.0
H2071 H 0.34751 0.3337 0.24545 0.0
H2072 H 0.37208 0.4085 0.20322 0.0
H2073 H 0.38809 0.33648 0.1391 0.0
H2074 H 0.37642 0.29619 0.10456 0.0
H2075 H 0.34994 0.32656 0.0328 0.0
H2076 H 0.36112 0.36694 0.06715 0.0
H2077 H 0.48688 0.48169 0.13257 0.0
H2078 H 0.45167 0.45134 0.15746 0.0
H2079 H 0.41142 0.43724 0.06955 0.0
H2080 H 0.44762 0.46696 0.04352 0.0
H2081 H 0.40724 0.39611 0.08734 0.0
H2082 H 0.39367 0.46861 0.14835 0.0
H2083 H 0.40516 0.50923 0.18203 0.0
H2084 H 0.42595 0.47882 0.25871 0.0
H2085 H 0.4149 0.43807 0.22532 0.0
C2086 C 0.31544 0.32658 0.1772 0.0
C2087 C 0.32082 0.32147 0.20735 0.0
C2088 C 0.33171 0.34652 0.16217 0.0
C2089 C 0.35406 0.36159 0.17653 0.0
C2090 C 0.35917 0.35683 0.20701 0.0
C2091 C 0.34273 0.33706 0.22228 0.0
C2092 C 0.37222 0.38221 0.15989 0.0
C2093 C 0.37995 0.40572 0.17798 0.0
C2094 C 0.38187 0.37895 0.12649 0.0
C2095 C 0.37518 0.35466 0.10588 0.0
C2096 C 0.3796 0.33451 0.11608 0.0
C2097 C 0.37309 0.31166 0.09652 0.0
C2098 C 0.36237 0.30879 0.06656 0.0
C2099 C 0.35819 0.32878 0.05605 0.0
C2100 C 0.36461 0.35165 0.07554 0.0
C2101 C 0.47041 0.47253 0.11856 0.0
C2102 C 0.47014 0.47701 0.08598 0.0
C2103 C 0.45007 0.45514 0.13304 0.0
C2104 C 0.42844 0.44213 0.11582 0.0
C2105 C 0.42777 0.44701 0.08354 0.0
C2106 C 0.44843 0.46417 0.06872 0.0
C2107 C 0.40748 0.42241 0.13084 0.0
C2108 C 0.3992 0.39904 0.11247 0.0
C2109 C 0.39717 0.42585 0.16391 0.0
C2110 C 0.40359 0.4503 0.18421 0.0
C2111 C 0.40082 0.47061 0.17232 0.0
C2112 C 0.40724 0.49365 0.19137 0.0
C2113 C 0.41631 0.49661 0.22246 0.0
C2114 C 0.41892 0.4765 0.23462 0.0
C2115 C 0.41254 0.45342 0.21566 0.0
H2116 H 0.42129 0.51447 0.23716 0.0
H2117 H 0.35736 0.2911 0.05145 0.0
H2118 H 0.79902 0.68902 0.655 0.0
H2119 H 0.82495 0.66315 0.62794 0.0
H2120 H 0.87676 0.69191 0.70469 0.0
H2121 H 0.85079 0.71754 0.73194 0.0
H2122 H 0.90458 0.68863 0.64675 0.0
H2123 H 0.83208 0.63103 0.69647 0.0
H2124 H 0.78649 0.60923 0.70696 0.0
H2125 H 0.78103 0.58239 0.60366 0.0
H2126 H 0.82654 0.60431 0.59249 0.0
H2127 H 0.97647 0.60441 0.61209 0.0
H2128 H 0.94886 0.62898 0.63524 0.0
H2129 H 0.89609 0.59112 0.56177 0.0
H2130 H 0.9238 0.56576 0.53848 0.0
H2131 H 0.86796 0.59905 0.61499 0.0
H2132 H 0.93805 0.65472 0.56321 0.0
H2133 H 0.98294 0.67689 0.54892 0.0
H2134 H 0.99226 0.70838 0.65029 0.0
H2135 H 0.94747 0.6861 0.6653 0.0
C2136 C 0.81586 0.68991 0.66639 0.0
C2137 C 0.82226 0.70579 0.69623 0.0
C2138 C 0.83087 0.67479 0.65074 0.0
C2139 C 0.85331 0.67484 0.66383 0.0
C2140 C 0.85986 0.69096 0.69339 0.0
C2141 C 0.84469 0.7058 0.70927 0.0
C2142 C 0.86989 0.65852 0.64703 0.0
C2143 C 0.8964 0.66899 0.64037 0.0
C2144 C 0.85995 0.63273 0.63694 0.0
C2145 C 0.83264 0.61953 0.6436 0.0
C2146 C 0.82111 0.62064 0.67596 0.0
C2147 C 0.79529 0.60823 0.68203 0.0
C2148 C 0.78085 0.5945 0.65598 0.0
C2149 C 0.79222 0.59308 0.62381 0.0
C2150 C 0.81803 0.60548 0.61759 0.0
C2151 C 0.95907 0.60109 0.60041 0.0
C2152 C 0.95294 0.5826 0.57292 0.0
C2153 C 0.94305 0.61558 0.61383 0.0
C2154 C 0.91992 0.6128 0.60044 0.0
C2155 C 0.91355 0.59417 0.57307 0.0
C2156 C 0.92965 0.57951 0.55954 0.0
C2157 C 0.90277 0.62911 0.61514 0.0
C2158 C 0.87619 0.61868 0.62137 0.0
C2159 C 0.91255 0.65505 0.62428 0.0
C2160 C 0.93946 0.66855 0.61545 0.0
C2161 C 0.94971 0.66624 0.58251 0.0
C2162 C 0.97514 0.67884 0.57427 0.0
C2163 C 0.99046 0.69399 0.5987 0.0
C2164 C 0.98037 0.69661 0.63141 0.0
C2165 C 0.95496 0.68401 0.6398 0.0
H2166 H 1.01015 0.70374 0.59227 0.0
H2167 H 0.76087 0.5849 0.66073 0.0
H2168 H 0.34861 0.78629 0.67127 0.0
H2169 H 0.38184 0.81827 0.64483 0.0
H2170 H 0.34065 0.86981 0.68082 0.0
H2171 H 0.30737 0.83807 0.70691 0.0
H2172 H 0.35942 0.875 0.6188 0.0
H2173 H 0.39093 0.86919 0.71962 0.0
H2174 H 0.40296 0.84823 0.75958 0.0
H2175 H 0.45847 0.82953 0.68742 0.0
H2176 H 0.44646 0.85007 0.64682 0.0
H2177 H 0.45069 0.98997 0.61581 0.0
H2178 H 0.42338 0.95383 0.63956 0.0
H2179 H 0.4656 0.90967 0.58003 0.0
H2180 H 0.49309 0.94589 0.55545 0.0
H2181 H 0.44833 0.89812 0.6494 0.0
H2182 H 0.41959 0.91188 0.55212 0.0
H2183 H 0.40681 0.93426 0.5156 0.0
H2184 H 0.34447 0.9407 0.58494 0.0
H2185 H 0.35729 0.91859 0.62266 0.0
C2186 C 0.34645 0.80435 0.67321 0.0
C2187 C 0.3253 0.80957 0.69137 0.0
C2188 C 0.36559 0.82267 0.65826 0.0
C2189 C 0.36396 0.84659 0.66117 0.0
C2190 C 0.34241 0.85155 0.67825 0.0
C2191 C 0.32338 0.83333 0.69325 0.0
C2192 C 0.38482 0.86672 0.64723 0.0
C2193 C 0.3788 0.88018 0.62575 0.0
C2194 C 0.41027 0.87319 0.6557 0.0
C2195 C 0.41758 0.86089 0.68005 0.0
C2196 C 0.40554 0.86041 0.71217 0.0
C2197 C 0.41238 0.84865 0.73496 0.0
C2198 C 0.43141 0.83749 0.72601 0.0
C2199 C 0.44369 0.83814 0.69428 0.0
C2200 C 0.43688 0.84984 0.67138 0.0
C2201 C 0.45462 0.97275 0.60804 0.0
C2202 C 0.47401 0.97091 0.58329 0.0
C2203 C 0.43893 0.95206 0.62178 0.0
C2204 C 0.4423 0.92903 0.61136 0.0
C2205 C 0.46271 0.9273 0.58844 0.0
C2206 C 0.47832 0.94803 0.57431 0.0
C2207 C 0.42271 0.90665 0.62166 0.0
C2208 C 0.42898 0.8928 0.64232 0.0
C2209 C 0.39731 0.9001 0.61296 0.0
C2210 C 0.38962 0.9137 0.5905 0.0
C2211 C 0.40341 0.91838 0.56002 0.0
C2212 C 0.39608 0.931 0.53894 0.0
C2213 C 0.37486 0.93905 0.54784 0.0
C2214 C 0.36093 0.93446 0.57801 0.0
C2215 C 0.36822 0.92183 0.59928 0.0
H2216 H 0.36919 0.94877 0.53135 0.0
H2217 H 0.43669 0.8284 0.74368 0.0
H2218 H 0.22049 0.36616 0.66705 0.0
H2219 H 0.19131 0.38409 0.64825 0.0
H2220 H 0.1871 0.3356 0.55647 0.0
H2221 H 0.21648 0.31766 0.57503 0.0
H2222 H 0.19553 0.38499 0.54846 0.0
H2223 H 0.13784 0.32452 0.61386 0.0
H2224 H 0.12389 0.30505 0.66486 0.0
H2225 H 0.11932 0.37345 0.71884 0.0
H2226 H 0.1334 0.39333 0.66829 0.0
H2227 H 0.09103 0.41093 0.49185 0.0
H2228 H 0.11498 0.38711 0.51056 0.0
H2229 H 0.12645 0.43631 0.60178 0.0
H2230 H 0.10375 0.46071 0.58248 0.0
H2231 H 0.11301 0.38484 0.60945 0.0
H2232 H 0.1712 0.44662 0.55282 0.0
H2233 H 0.19216 0.47229 0.50908 0.0
H2234 H 0.20286 0.40938 0.446 0.0
H2235 H 0.18094 0.38302 0.48913 0.0
C2236 C 0.21345 0.35934 0.6428 0.0
C2237 C 0.22092 0.34049 0.62253 0.0
C2238 C 0.19658 0.36949 0.6322 0.0
C2239 C 0.18681 0.36108 0.60104 0.0
C2240 C 0.19429 0.34232 0.58066 0.0
C2241 C 0.21099 0.332 0.59139 0.0
C2242 C 0.16934 0.37231 0.58943 0.0
C2243 C 0.1772 0.38444 0.56129 0.0
C2244 C 0.14596 0.37261 0.60713 0.0
C2245 C 0.13679 0.36043 0.63731 0.0
C2246 C 0.13392 0.33541 0.63664 0.0
C2247 C 0.12595 0.32429 0.66548 0.0
C2248 C 0.1207 0.33799 0.69511 0.0
C2249 C 0.1233 0.36281 0.69591 0.0
C2250 C 0.13122 0.374 0.66715 0.0
C2251 C 0.09825 0.41629 0.51613 0.0
C2252 C 0.09543 0.43752 0.53586 0.0
C2253 C 0.11205 0.40282 0.52671 0.0
C2254 C 0.12258 0.40998 0.55756 0.0
C2255 C 0.11848 0.4304 0.57797 0.0
C2256 C 0.10546 0.44428 0.56697 0.0
C2257 C 0.13898 0.39709 0.56799 0.0
C2258 C 0.13104 0.38487 0.59609 0.0
C2259 C 0.16269 0.39736 0.55085 0.0
C2260 C 0.17398 0.41272 0.52395 0.0
C2261 C 0.1774 0.43809 0.52935 0.0
C2262 C 0.18961 0.4528 0.50476 0.0
C2263 C 0.1989 0.44245 0.47484 0.0
C2264 C 0.19573 0.41731 0.46929 0.0
C2265 C 0.18324 0.40246 0.49367 0.0
H2266 H 0.20846 0.45388 0.45587 0.0
H2267 H 0.11461 0.32939 0.71744 0.0
H2268 H 0.76277 0.18263 0.66504 0.0
H2269 H 0.73248 0.15119 0.63033 0.0
H2270 H 0.68879 0.20056 0.63153 0.0
H2271 H 0.71918 0.23226 0.66602 0.0
H2272 H 0.66034 0.15448 0.65082 0.0
H2273 H 0.71886 0.18687 0.56186 0.0
H2274 H 0.7609 0.20065 0.53165 0.0
H2275 H 0.76784 0.12845 0.52403 0.0
H2276 H 0.72598 0.11431 0.55463 0.0
H2277 H 0.57036 0.07096 0.54614 0.0
H2278 H 0.6023 0.10746 0.57017 0.0
H2279 H 0.65702 0.06779 0.55597 0.0
H2280 H 0.62542 0.03147 0.531 0.0
H2281 H 0.67963 0.11137 0.54135 0.0
H2282 H 0.62434 0.07943 0.6335 0.0
H2283 H 0.58339 0.06468 0.66588 0.0
H2284 H 0.57154 0.13459 0.67004 0.0
H2285 H 0.6123 0.14966 0.6373 0.0
C2286 C 0.74696 0.18695 0.65746 0.0
C2287 C 0.74334 0.20991 0.66833 0.0
C2288 C 0.7297 0.16899 0.63755 0.0
C2289 C 0.70841 0.17357 0.62836 0.0
C2290 C 0.70513 0.1967 0.63834 0.0
C2291 C 0.72258 0.21482 0.6579 0.0
C2292 C 0.68867 0.15356 0.6105 0.0
C2293 C 0.66436 0.14533 0.62658 0.0
C2294 C 0.69424 0.14119 0.57939 0.0
C2295 C 0.71937 0.1496 0.56081 0.0
C2296 C 0.72944 0.17398 0.55399 0.0
C2297 C 0.75322 0.18185 0.53674 0.0
C2298 C 0.76707 0.16546 0.526 0.0
C2299 C 0.75711 0.14114 0.53239 0.0
C2300 C 0.73334 0.13318 0.54966 0.0
C2301 C 0.58919 0.07001 0.54811 0.0
C2302 C 0.59524 0.04822 0.53693 0.0
C2303 C 0.60744 0.09087 0.56204 0.0
C2304 C 0.63199 0.09029 0.56557 0.0
C2305 C 0.63823 0.06872 0.55365 0.0
C2306 C 0.62009 0.04794 0.53939 0.0
C2307 C 0.6512 0.11207 0.58175 0.0
C2308 C 0.67545 0.12061 0.56544 0.0
C2309 C 0.64569 0.12456 0.6129 0.0
C2310 C 0.62123 0.11558 0.63267 0.0
C2311 C 0.61291 0.0916 0.64112 0.0
C2312 C 0.58976 0.08319 0.65957 0.0
C2313 C 0.57484 0.09867 0.66993 0.0
C2314 C 0.5831 0.12261 0.66195 0.0
C2315 C 0.60623 0.1311 0.64347 0.0
H2316 H 0.55692 0.09212 0.68421 0.0
H2317 H 0.78549 0.17159 0.51267 0.0
H2318 H 0.78808 0.32217 0.35492 0.0
H2319 H 0.81872 0.35319 0.38932 0.0
H2320 H 0.873 0.31348 0.36124 0.0
H2321 H 0.84209 0.28192 0.32705 0.0
H2322 H 0.87616 0.33721 0.42684 0.0
H2323 H 0.87589 0.35704 0.31807 0.0
H2324 H 0.85608 0.36217 0.27041 0.0
H2325 H 0.82801 0.41703 0.33052 0.0
H2326 H 0.84737 0.41199 0.37868 0.0
H2327 H 0.98576 0.44507 0.45038 0.0
H2328 H 0.9544 0.40687 0.42885 0.0
H2329 H 0.89514 0.44085 0.454 0.0
H2330 H 0.92618 0.47898 0.47567 0.0
H2331 H 0.89622 0.41875 0.38908 0.0
H2332 H 0.89547 0.39831 0.49787 0.0
H2333 H 0.91371 0.39228 0.54616 0.0
H2334 H 0.94421 0.33909 0.48609 0.0
H2335 H 0.92612 0.34486 0.43724 0.0
C2336 C 0.80631 0.31969 0.35668 0.0
C2337 C 0.81283 0.29981 0.33794 0.0
C2338 C 0.8238 0.33746 0.37631 0.0
C2339 C 0.84832 0.33592 0.37717 0.0
C2340 C 0.85421 0.31505 0.36075 0.0
C2341 C 0.83653 0.29703 0.34127 0.0
C2342 C 0.86834 0.35739 0.39207 0.0
C2343 C 0.88085 0.35497 0.41833 0.0
C2344 C 0.87423 0.38062 0.38112 0.0
C2345 C 0.86292 0.384 0.35205 0.0
C2346 C 0.86537 0.3701 0.32118 0.0
C2347 C 0.85424 0.37299 0.29406 0.0
C2348 C 0.84075 0.38987 0.29745 0.0
C2349 C 0.83845 0.40395 0.32794 0.0
C2350 C 0.84952 0.4011 0.35515 0.0
C2351 C 0.96602 0.44437 0.45151 0.0
C2352 C 0.95852 0.46517 0.46448 0.0
C2353 C 0.94812 0.42248 0.4394 0.0
C2354 C 0.92246 0.42105 0.43988 0.0
C2355 C 0.91486 0.4416 0.45339 0.0
C2356 C 0.93265 0.46337 0.4658 0.0
C2357 C 0.90376 0.39875 0.4243 0.0
C2358 C 0.89163 0.401 0.39761 0.0
C2359 C 0.89839 0.37545 0.43477 0.0
C2360 C 0.90968 0.37222 0.46385 0.0
C2361 C 0.90627 0.3855 0.49487 0.0
C2362 C 0.91651 0.38206 0.52238 0.0
C2363 C 0.9302 0.36537 0.51923 0.0
C2364 C 0.93363 0.35204 0.4885 0.0
C2365 C 0.92333 0.35534 0.4609 0.0
H2366 H 0.93807 0.36273 0.54059 0.0
H2367 H 0.83213 0.39208 0.27644 0.0
H2368 H 0.73852 0.80922 0.35243 0.0
H2369 H 0.7135 0.83561 0.37992 0.0
H2370 H 0.68597 0.83587 0.28657 0.0
H2371 H 0.7123 0.81091 0.25899 0.0
H2372 H 0.68751 0.87595 0.31285 0.0
H2373 H 0.65107 0.80333 0.36414 0.0
H2374 H 0.6473 0.76967 0.39597 0.0
H2375 H 0.67394 0.82187 0.48052 0.0
H2376 H 0.67838 0.85587 0.449 0.0
H2377 H 0.58156 0.91823 0.37979 0.0
H2378 H 0.60936 0.89366 0.35673 0.0
H2379 H 0.64937 0.91578 0.44526 0.0
H2380 H 0.62152 0.94096 0.46849 0.0
H2381 H 0.64343 0.8668 0.42413 0.0
H2382 H 0.67587 0.93858 0.36998 0.0
H2383 H 0.67406 0.97015 0.33768 0.0
H2384 H 0.6472 0.9147 0.25632 0.0
H2385 H 0.6485 0.88275 0.28831 0.0
C2386 C 0.7271 0.81477 0.33761 0.0
C2387 C 0.72782 0.8074 0.30302 0.0
C2388 C 0.71227 0.82994 0.35365 0.0
C2389 C 0.69663 0.83804 0.33622 0.0
C2390 C 0.69742 0.83054 0.30159 0.0
C2391 C 0.71266 0.81586 0.2855 0.0
C2392 C 0.68017 0.85455 0.35325 0.0
C2393 C 0.67751 0.87322 0.33691 0.0
C2394 C 0.66704 0.85251 0.3854 0.0
C2395 C 0.6655 0.83217 0.40397 0.0
C2396 C 0.6565 0.80765 0.38936 0.0
C2397 C 0.65418 0.7885 0.40738 0.0
C2398 C 0.66051 0.79363 0.44018 0.0
C2399 C 0.66918 0.81792 0.45505 0.0
C2400 C 0.67166 0.83714 0.43709 0.0
C2401 C 0.59628 0.91814 0.39464 0.0
C2402 C 0.59891 0.9322 0.42634 0.0
C2403 C 0.61251 0.90392 0.3811 0.0
C2404 C 0.6323 0.90261 0.39849 0.0
C2405 C 0.6347 0.91618 0.43058 0.0
C2406 C 0.61861 0.93083 0.44402 0.0
C2407 C 0.64998 0.88713 0.38309 0.0
C2408 C 0.65307 0.86898 0.39984 0.0
C2409 C 0.66283 0.88908 0.35097 0.0
C2410 C 0.66206 0.90825 0.33167 0.0
C2411 C 0.66939 0.93309 0.3453 0.0
C2412 C 0.66849 0.95106 0.32703 0.0
C2413 C 0.66046 0.94443 0.295 0.0
C2414 C 0.65338 0.91981 0.28114 0.0
C2415 C 0.65422 0.90177 0.29933 0.0
H2416 H 0.65978 0.95837 0.28089 0.0
H2417 H 0.6586 0.77877 0.45413 0.0
H2418 H 0.23213 0.68037 0.27469 0.0
H2419 H 0.19853 0.64902 0.30082 0.0
H2420 H 0.16356 0.70344 0.34765 0.0
H2421 H 0.19752 0.73526 0.32175 0.0
H2422 H 0.16449 0.67222 0.3903 0.0
H2423 H 0.13774 0.66369 0.28172 0.0
H2424 H 0.14318 0.6597 0.22085 0.0
H2425 H 0.15903 0.5918 0.2179 0.0
H2426 H 0.15407 0.59553 0.27874 0.0
H2427 H 0.06057 0.57357 0.44746 0.0
H2428 H 0.08418 0.60999 0.42076 0.0
H2429 H 0.12681 0.56808 0.3569 0.0
H2430 H 0.10304 0.53176 0.38255 0.0
H2431 H 0.11614 0.59655 0.32244 0.0
H2432 H 0.14966 0.60793 0.42915 0.0
H2433 H 0.1483 0.61274 0.48982 0.0
H2434 H 0.12194 0.67523 0.49616 0.0
H2435 H 0.12283 0.67055 0.43534 0.0
C2436 C 0.2174 0.68584 0.2906 0.0
C2437 C 0.21756 0.71045 0.2959 0.0
C2438 C 0.19803 0.66776 0.30538 0.0
C2439 C 0.17818 0.67371 0.32573 0.0
C2440 C 0.17854 0.69834 0.33183 0.0
C2441 C 0.19798 0.71652 0.31695 0.0
C2442 C 0.15745 0.65409 0.34089 0.0
C2443 C 0.1535 0.65589 0.37545 0.0
C2444 C 0.14334 0.63259 0.32157 0.0
C2445 C 0.14571 0.63 0.28487 0.0
C2446 C 0.1425 0.64796 0.26811 0.0
C2447 C 0.14549 0.64574 0.2336 0.0
C2448 C 0.15155 0.62556 0.21556 0.0
C2449 C 0.15439 0.60744 0.23194 0.0
C2450 C 0.15145 0.60958 0.26643 0.0
C2451 C 0.07473 0.57203 0.42744 0.0
C2452 C 0.07985 0.5496 0.41733 0.0
C2453 C 0.0884 0.59296 0.41233 0.0
C2454 C 0.10762 0.59199 0.38701 0.0
C2455 C 0.11213 0.56945 0.3763 0.0
C2456 C 0.09848 0.5486 0.39118 0.0
C2457 C 0.12371 0.6143 0.37198 0.0
C2458 C 0.12675 0.61304 0.33735 0.0
C2459 C 0.13711 0.63624 0.39123 0.0
C2460 C 0.13599 0.63869 0.42775 0.0
C2461 C 0.14331 0.62253 0.44349 0.0
C2462 C 0.14268 0.62529 0.47794 0.0
C2463 C 0.135 0.64428 0.4969 0.0
C2464 C 0.12785 0.66051 0.48144 0.0
C2465 C 0.1284 0.65781 0.44699 0.0
H2466 H 0.13465 0.64653 0.52355 0.0
H2467 H 0.15411 0.62396 0.1889 0.0
H2468 H 0.334 0.18391 0.39353 0.0
H2469 H 0.355 0.15848 0.41354 0.0
H2470 H 0.42818 0.20927 0.38854 0.0
H2471 H 0.40729 0.23452 0.36775 0.0
H2472 H 0.42861 0.16356 0.3689 0.0
H2473 H 0.40467 0.20679 0.46876 0.0
H2474 H 0.37744 0.22326 0.51173 0.0
H2475 H 0.33104 0.15009 0.52578 0.0
H2476 H 0.35774 0.13316 0.48248 0.0
H2477 H 0.49513 0.1089 0.45865 0.0
H2478 H 0.47806 0.138 0.43936 0.0
H2479 H 0.40198 0.08892 0.45353 0.0
H2480 H 0.41877 0.05987 0.47235 0.0
H2481 H 0.40531 0.1358 0.47955 0.0
H2482 H 0.43043 0.09379 0.37698 0.0
H2483 H 0.46029 0.07883 0.33655 0.0
H2484 H 0.50816 0.15287 0.33106 0.0
H2485 H 0.47873 0.16826 0.37185 0.0
C2486 C 0.35457 0.18964 0.39212 0.0
C2487 C 0.36892 0.21132 0.37902 0.0
C2488 C 0.36658 0.17518 0.4039 0.0
C2489 C 0.39323 0.18204 0.40293 0.0
C2490 C 0.40761 0.2036 0.3897 0.0
C2491 C 0.39562 0.21813 0.37804 0.0
C2492 C 0.406 0.16637 0.41492 0.0
C2493 C 0.42388 0.15792 0.39338 0.0
C2494 C 0.39966 0.15863 0.44668 0.0
C2495 C 0.38303 0.16871 0.47202 0.0
C2496 C 0.38845 0.1942 0.48068 0.0
C2497 C 0.37316 0.20363 0.50518 0.0
C2498 C 0.35247 0.18774 0.5214 0.0
C2499 C 0.34703 0.16238 0.51314 0.0
C2500 C 0.36224 0.15286 0.48861 0.0
C2501 C 0.47479 0.10434 0.45756 0.0
C2502 C 0.45834 0.08199 0.46681 0.0
C2503 C 0.46506 0.12088 0.44632 0.0
C2504 C 0.43872 0.11553 0.44465 0.0
C2505 C 0.42234 0.09343 0.45444 0.0
C2506 C 0.43202 0.07679 0.46512 0.0
C2507 C 0.42793 0.13311 0.43364 0.0
C2508 C 0.41031 0.14178 0.45529 0.0
C2509 C 0.43486 0.14137 0.40228 0.0
C2510 C 0.45254 0.13216 0.37775 0.0
C2511 C 0.44744 0.10687 0.36738 0.0
C2512 C 0.46426 0.09831 0.34435 0.0
C2513 C 0.48615 0.11488 0.33132 0.0
C2514 C 0.49122 0.14005 0.34123 0.0
C2515 C 0.47447 0.1487 0.36428 0.0
H2516 H 0.49914 0.10822 0.31349 0.0
H2517 H 0.3407 0.19507 0.54043 0.0
H2518 H 0.70891 0.83196 0.62327 0.0
H2519 H 0.68681 0.85685 0.60451 0.0
H2520 H 0.62007 0.79378 0.59227 0.0
H2521 H 0.64246 0.76841 0.60963 0.0
H2522 H 0.62669 0.82005 0.54269 0.0
H2523 H 0.62477 0.83738 0.65998 0.0
H2524 H 0.64255 0.84879 0.71443 0.0
H2525 H 0.6871 0.91943 0.68778 0.0
H2526 H 0.67008 0.90822 0.6328 0.0
H2527 H 0.54954 0.89741 0.53028 0.0
H2528 H 0.56547 0.86705 0.54847 0.0
H2529 H 0.63801 0.92223 0.56312 0.0
H2530 H 0.62224 0.95241 0.54601 0.0
H2531 H 0.624 0.89693 0.61362 0.0
H2532 H 0.62263 0.8775 0.49425 0.0
H2533 H 0.60045 0.86465 0.4429 0.0
H2534 H 0.5587 0.79525 0.4754 0.0
H2535 H 0.5792 0.80822 0.52797 0.0
C2536 C 0.68967 0.8232 0.61613 0.0
C2537 C 0.67752 0.79808 0.61822 0.0
C2538 C 0.67692 0.83758 0.6057 0.0
C2539 C 0.65155 0.82736 0.59745 0.0
C2540 C 0.63956 0.80219 0.59865 0.0
C2541 C 0.65235 0.78774 0.60896 0.0
C2542 C 0.63748 0.84313 0.58842 0.0
C2543 C 0.62581 0.83671 0.55839 0.0
C2544 C 0.63626 0.86491 0.60885 0.0
C2545 C 0.64633 0.87185 0.64209 0.0
C2546 C 0.63852 0.85527 0.6656 0.0
C2547 C 0.64848 0.8617 0.69656 0.0
C2548 C 0.66601 0.88479 0.70451 0.0
C2549 C 0.67357 0.90152 0.68154 0.0
C2550 C 0.66379 0.89514 0.65046 0.0
C2551 C 0.56884 0.90303 0.5375 0.0
C2552 C 0.58452 0.92742 0.53675 0.0
C2553 C 0.57797 0.88564 0.54779 0.0
C2554 C 0.60308 0.89225 0.55702 0.0
C2555 C 0.61858 0.9166 0.55632 0.0
C2556 C 0.60947 0.9339 0.5464 0.0
C2557 C 0.61371 0.87424 0.56747 0.0
C2558 C 0.62474 0.88023 0.59792 0.0
C2559 C 0.61395 0.85192 0.54758 0.0
C2560 C 0.60224 0.844 0.5154 0.0
C2561 C 0.6085 0.85961 0.49071 0.0
C2562 C 0.5962 0.85232 0.46137 0.0
C2563 C 0.57836 0.82912 0.4558 0.0
C2564 C 0.57254 0.81323 0.47973 0.0
C2565 C 0.58433 0.82062 0.50944 0.0
H2566 H 0.56901 0.82348 0.43296 0.0
H2567 H 0.67366 0.88974 0.72852 0.0
H2568 H 0.73125 0.1779 0.28294 0.0
H2569 H 0.69747 0.14576 0.30755 0.0
H2570 H 0.66713 0.20023 0.3656 0.0
H2571 H 0.70116 0.23274 0.34115 0.0
H2572 H 0.66729 0.16597 0.40225 0.0
H2573 H 0.63779 0.16536 0.29862 0.0
H2574 H 0.6395 0.16449 0.23827 0.0
H2575 H 0.65103 0.09384 0.22349 0.0
H2576 H 0.64975 0.09441 0.28375 0.0
H2577 H 0.55839 0.07002 0.45462 0.0
H2578 H 0.58421 0.10673 0.43003 0.0
H2579 H 0.62325 0.06322 0.36271 0.0
H2580 H 0.59736 0.02658 0.38649 0.0
H2581 H 0.61415 0.09519 0.33117 0.0
H2582 H 0.64799 0.09893 0.43607 0.0
H2583 H 0.6474 0.10156 0.49653 0.0
H2584 H 0.62695 0.16784 0.50877 0.0
H2585 H 0.62708 0.16539 0.44831 0.0
C2586 C 0.7175 0.18318 0.30102 0.0
C2587 C 0.71898 0.20802 0.30994 0.0
C2588 C 0.69802 0.16468 0.31493 0.0
C2589 C 0.67941 0.17047 0.33803 0.0
C2590 C 0.68115 0.19527 0.34768 0.0
C2591 C 0.70066 0.21385 0.33368 0.0
C2592 C 0.6585 0.15053 0.35231 0.0
C2593 C 0.65533 0.15072 0.38672 0.0
C2594 C 0.643 0.13046 0.33211 0.0
C2595 C 0.64387 0.13003 0.29577 0.0
C2596 C 0.6409 0.14972 0.28252 0.0
C2597 C 0.64174 0.14926 0.24831 0.0
C2598 C 0.64538 0.12913 0.22706 0.0
C2599 C 0.64818 0.10941 0.23997 0.0
C2600 C 0.64738 0.10979 0.27417 0.0
C2601 C 0.57221 0.06819 0.43427 0.0
C2602 C 0.57576 0.04522 0.4227 0.0
C2603 C 0.58715 0.08928 0.42038 0.0
C2604 C 0.60604 0.08791 0.39478 0.0
C2605 C 0.6089 0.06487 0.38244 0.0
C2606 C 0.59403 0.04386 0.39621 0.0
C2607 C 0.6234 0.11028 0.38111 0.0
C2608 C 0.62589 0.11057 0.34673 0.0
C2609 C 0.63815 0.13087 0.40137 0.0
C2610 C 0.63725 0.13182 0.4377 0.0
C2611 C 0.64307 0.1139 0.45167 0.0
C2612 C 0.64289 0.11541 0.48596 0.0
C2613 C 0.63713 0.13487 0.5065 0.0
C2614 C 0.63139 0.15278 0.49282 0.0
C2615 C 0.6315 0.15133 0.45856 0.0
H2616 H 0.63722 0.13622 0.53301 0.0
H2617 H 0.64599 0.12882 0.20062 0.0
H2618 H 0.8592 0.72081 0.42094 0.0
H2619 H 0.88719 0.70192 0.44084 0.0
H2620 H 0.85455 0.63482 0.3773 0.0
H2621 H 0.82636 0.65341 0.35793 0.0
H2622 H 0.8576 0.62433 0.435 0.0
H2623 H 0.91546 0.67686 0.3608 0.0
H2624 H 0.93795 0.71626 0.3398 0.0
H2625 H 0.97123 0.7453 0.43245 0.0
H2626 H 0.94866 0.70615 0.45416 0.0
H2627 H 0.94191 0.55755 0.425 0.0
H2628 H 0.9195 0.58409 0.41151 0.0
H2629 H 0.95598 0.64083 0.4873 0.0
H2630 H 0.97925 0.6143 0.5003 0.0
H2631 H 0.95148 0.65978 0.43159 0.0
H2632 H 0.89606 0.6031 0.50207 0.0
H2633 H 0.87396 0.56217 0.5192 0.0
H2634 H 0.83598 0.53967 0.42943 0.0
H2635 H 0.85815 0.58013 0.41133 0.0
C2636 C 0.85815 0.70208 0.41109 0.0
C2637 C 0.84045 0.68856 0.38798 0.0
C2638 C 0.8742 0.6913 0.42244 0.0
C2639 C 0.87317 0.66693 0.41047 0.0
C2640 C 0.85566 0.65357 0.38714 0.0
C2641 C 0.83949 0.66421 0.37609 0.0
C2642 C 0.88971 0.65486 0.42254 0.0
C2643 C 0.87815 0.63204 0.43396 0.0
C2644 C 0.91651 0.66519 0.42228 0.0
C2645 C 0.93014 0.68868 0.40923 0.0
C2646 C 0.92742 0.69171 0.37678 0.0
C2647 C 0.9402 0.71399 0.36474 0.0
C2648 C 0.95594 0.7333 0.38482 0.0
C2649 C 0.95899 0.73034 0.41695 0.0
C2650 C 0.94622 0.70811 0.42913 0.0
C2651 C 0.94548 0.57582 0.43848 0.0
C2652 C 0.9623 0.58385 0.46371 0.0
C2653 C 0.93254 0.59094 0.43087 0.0
C2654 C 0.93556 0.61426 0.44888 0.0
C2655 C 0.95325 0.62286 0.47316 0.0
C2656 C 0.9666 0.60776 0.48048 0.0
C2657 C 0.91935 0.62891 0.44287 0.0
C2658 C 0.93092 0.65223 0.4329 0.0
C2659 C 0.8925 0.61892 0.44406 0.0
C2660 C 0.87889 0.59466 0.45527 0.0
C2661 C 0.8831 0.58939 0.48589 0.0
C2662 C 0.87057 0.56629 0.49578 0.0
C2663 C 0.85361 0.54841 0.47546 0.0
C2664 C 0.84911 0.55356 0.44517 0.0
C2665 C 0.86165 0.57656 0.43508 0.0
H2666 H 0.84395 0.53056 0.48319 0.0
H2667 H 0.96582 0.75053 0.37545 0.0
H2668 H 0.28513 0.83084 0.32877 0.0
H2669 H 0.3129 0.86232 0.36627 0.0
H2670 H 0.36042 0.81632 0.36405 0.0
H2671 H 0.33244 0.78447 0.32698 0.0
H2672 H 0.35689 0.84277 0.42516 0.0
H2673 H 0.37026 0.85661 0.31147 0.0
H2674 H 0.35611 0.862 0.2596 0.0
H2675 H 0.34246 0.92877 0.30607 0.0
H2676 H 0.35501 0.92299 0.35888 0.0
H2677 H 0.47755 0.94329 0.44914 0.0
H2678 H 0.44557 0.90747 0.42337 0.0
H2679 H 0.38838 0.94358 0.45212 0.0
H2680 H 0.4203 0.97979 0.47732 0.0
H2681 H 0.39688 0.92144 0.37924 0.0
H2682 H 0.3526 0.87506 0.48867 0.0
H2683 H 0.35985 0.8637 0.54111 0.0
H2684 H 0.43406 0.86127 0.50157 0.0
H2685 H 0.42676 0.87158 0.44853 0.0
C2686 C 0.30121 0.82718 0.33675 0.0
C2687 C 0.30679 0.80527 0.32446 0.0
C2688 C 0.31707 0.84523 0.3582 0.0
C2689 C 0.33906 0.84191 0.36734 0.0
C2690 C 0.34363 0.81933 0.35715 0.0
C2691 C 0.32762 0.80114 0.3359 0.0
C2692 C 0.35849 0.8627 0.38476 0.0
C2693 C 0.36573 0.85991 0.41498 0.0
C2694 C 0.3699 0.88518 0.37157 0.0
C2695 C 0.36334 0.8892 0.33937 0.0
C2696 C 0.36399 0.87233 0.31081 0.0
C2697 C 0.35618 0.87541 0.28122 0.0
C2698 C 0.34852 0.89578 0.27948 0.0
C2699 C 0.34843 0.913 0.30744 0.0
C2700 C 0.35573 0.90973 0.33729 0.0
C2701 C 0.45812 0.94357 0.45032 0.0
C2702 C 0.45151 0.96442 0.46558 0.0
C2703 C 0.43978 0.92291 0.43594 0.0
C2704 C 0.4144 0.9225 0.43689 0.0
C2705 C 0.40776 0.94332 0.45173 0.0
C2706 C 0.42607 0.96403 0.46611 0.0
C2707 C 0.39534 0.90141 0.41951 0.0
C2708 C 0.38805 0.90425 0.38929 0.0
C2709 C 0.38391 0.87898 0.43258 0.0
C2710 C 0.38948 0.8749 0.46505 0.0
C2711 C 0.37055 0.87232 0.49132 0.0
C2712 C 0.3745 0.8657 0.52096 0.0
C2713 C 0.39741 0.86178 0.52467 0.0
C2714 C 0.41639 0.86445 0.49873 0.0
C2715 C 0.41237 0.87073 0.46887 0.0
H2716 H 0.4005 0.85681 0.54771 0.0
H2717 H 0.34264 0.8982 0.25647 0.0
H2718 H 0.24794 0.31759 0.34544 0.0
H2719 H 0.22364 0.34497 0.37183 0.0
H2720 H 0.18243 0.32999 0.28486 0.0
H2721 H 0.20735 0.30338 0.25808 0.0
H2722 H 0.18667 0.3738 0.3043 0.0
H2723 H 0.15385 0.30755 0.37062 0.0
H2724 H 0.15667 0.27755 0.40503 0.0
H2725 H 0.20039 0.33615 0.47239 0.0
H2726 H 0.19832 0.36632 0.43779 0.0
H2727 H 0.08497 0.42017 0.37727 0.0
H2728 H 0.11151 0.39443 0.35407 0.0
H2729 H 0.15732 0.42179 0.43699 0.0
H2730 H 0.13084 0.44815 0.46046 0.0
H2731 H 0.15224 0.3732 0.4212 0.0
H2732 H 0.17831 0.43936 0.35536 0.0
H2733 H 0.17253 0.46732 0.31995 0.0
H2734 H 0.13858 0.40591 0.24908 0.0
H2735 H 0.14412 0.37755 0.28409 0.0
C2736 C 0.23369 0.31997 0.33177 0.0
C2737 C 0.23001 0.3077 0.2992 0.0
C2738 C 0.21932 0.3357 0.34725 0.0
C2739 C 0.20014 0.33982 0.33128 0.0
C2740 C 0.1967 0.3277 0.29859 0.0
C2741 C 0.21116 0.31213 0.28305 0.0
C2742 C 0.18418 0.35682 0.34791 0.0
C2743 C 0.17895 0.37316 0.32976 0.0
C2744 C 0.17395 0.35724 0.38153 0.0
C2745 C 0.17571 0.33919 0.40192 0.0
C2746 C 0.1641 0.31398 0.39274 0.0
C2747 C 0.16562 0.29694 0.4122 0.0
C2748 C 0.17863 0.30493 0.44094 0.0
C2749 C 0.19023 0.32997 0.4502 0.0
C2750 C 0.18881 0.34705 0.43075 0.0
C2751 C 0.10075 0.42104 0.39085 0.0
C2752 C 0.10537 0.4369 0.42109 0.0
C2753 C 0.11627 0.40611 0.3772 0.0
C2754 C 0.13735 0.40591 0.39297 0.0
C2755 C 0.14169 0.4213 0.42361 0.0
C2756 C 0.12634 0.43664 0.43715 0.0
C2757 C 0.15449 0.38986 0.37738 0.0
C2758 C 0.15996 0.37376 0.39573 0.0
C2759 C 0.16462 0.38936 0.34372 0.0
C2760 C 0.16141 0.40633 0.3225 0.0
C2761 C 0.1695 0.43182 0.33229 0.0
C2762 C 0.16633 0.44773 0.31225 0.0
C2763 C 0.1552 0.43839 0.28228 0.0
C2764 C 0.14726 0.41311 0.27226 0.0
C2765 C 0.15046 0.39711 0.29216 0.0
H2766 H 0.15273 0.45074 0.26681 0.0
H2767 H 0.17977 0.29173 0.456 0.0
H2768 H 0.29707 0.17738 0.70593 0.0
H2769 H 0.3219 0.15093 0.67894 0.0
H2770 H 0.38485 0.2147 0.6594 0.0
H2771 H 0.35897 0.2411 0.68411 0.0
H2772 H 0.39249 0.18623 0.61437 0.0
H2773 H 0.37752 0.16841 0.7237 0.0
H2774 H 0.35427 0.15737 0.77675 0.0
H2775 H 0.31141 0.08757 0.72815 0.0
H2776 H 0.33438 0.09825 0.67471 0.0
H2777 H 0.48235 0.1154 0.59376 0.0
H2778 H 0.4559 0.14151 0.61689 0.0
H2779 H 0.38919 0.08353 0.58595 0.0
H2780 H 0.41587 0.0574 0.56168 0.0
H2781 H 0.38418 0.10847 0.65602 0.0
H2782 H 0.41371 0.13197 0.54591 0.0
H2783 H 0.44775 0.14802 0.50369 0.0
H2784 H 0.47505 0.21539 0.56768 0.0
H2785 H 0.44212 0.19938 0.61117 0.0
C2786 C 0.3162 0.18596 0.69589 0.0
C2787 C 0.32558 0.21184 0.69773 0.0
C2788 C 0.33088 0.17054 0.68056 0.0
C2789 C 0.35634 0.18002 0.66731 0.0
C2790 C 0.36562 0.20601 0.66896 0.0
C2791 C 0.35062 0.22144 0.68346 0.0
C2792 C 0.37281 0.16315 0.65155 0.0
C2793 C 0.39058 0.16945 0.62414 0.0
C2794 C 0.3715 0.14081 0.66326 0.0
C2795 C 0.35744 0.13426 0.69515 0.0
C2796 C 0.363 0.15077 0.72429 0.0
C2797 C 0.3499 0.14457 0.75444 0.0
C2798 C 0.33126 0.12184 0.7558 0.0
C2799 C 0.3258 0.1052 0.72703 0.0
C2800 C 0.33889 0.1113 0.69681 0.0
C2801 C 0.46206 0.10802 0.59148 0.0
C2802 C 0.45172 0.08383 0.57536 0.0
C2803 C 0.44674 0.12323 0.60497 0.0
C2804 C 0.42003 0.11503 0.60376 0.0
C2805 C 0.40953 0.09082 0.58775 0.0
C2806 C 0.425 0.07572 0.57352 0.0
C2807 C 0.40344 0.13162 0.61904 0.0
C2808 C 0.38576 0.12523 0.64636 0.0
C2809 C 0.40609 0.15466 0.60861 0.0
C2810 C 0.42551 0.16434 0.58201 0.0
C2811 C 0.42711 0.1501 0.5512 0.0
C2812 C 0.44621 0.1592 0.52699 0.0
C2813 C 0.46341 0.18271 0.53285 0.0
C2814 C 0.46169 0.19717 0.56311 0.0
C2815 C 0.44288 0.18805 0.58764 0.0
H2816 H 0.4781 0.1897 0.51394 0.0
H2817 H 0.32113 0.11708 0.77917 0.0
H2818 H 0.82688 0.33994 0.7193 0.0
H2819 H 0.85934 0.37124 0.69185 0.0
H2820 H 0.88187 0.3152 0.62505 0.0
H2821 H 0.84978 0.28348 0.65357 0.0
H2822 H 0.92273 0.35134 0.64179 0.0
H2823 H 0.8458 0.34777 0.6 0.0
H2824 H 0.80104 0.34661 0.60186 0.0
H2825 H 0.81879 0.418 0.65879 0.0
H2826 H 0.8636 0.41946 0.65766 0.0
H2827 H 0.9921 0.44522 0.53759 0.0
H2828 H 0.96521 0.4083 0.56067 0.0
H2829 H 0.93641 0.45307 0.63977 0.0
H2830 H 0.96304 0.48993 0.61695 0.0
H2831 H 0.89864 0.419 0.60928 0.0
H2832 H 0.97714 0.42058 0.65043 0.0
H2833 H 1.02171 0.42061 0.64421 0.0
H2834 H 1.00067 0.35125 0.58241 0.0
H2835 H 0.95602 0.35094 0.58792 0.0
C2836 C 0.83856 0.33415 0.69864 0.0
C2837 C 0.83543 0.30914 0.68837 0.0
C2838 C 0.85716 0.35214 0.68284 0.0
C2839 C 0.87274 0.34568 0.65577 0.0
C2840 C 0.86999 0.3207 0.6457 0.0
C2841 C 0.85154 0.30258 0.66191 0.0
C2842 C 0.89176 0.36524 0.63839 0.0
C2843 C 0.9174 0.36593 0.63418 0.0
C2844 C 0.88494 0.38435 0.62836 0.0
C2845 C 0.85803 0.38364 0.62892 0.0
C2846 C 0.84013 0.36316 0.61308 0.0
C2847 C 0.81475 0.36246 0.61399 0.0
C2848 C 0.80707 0.3822 0.63048 0.0
C2849 C 0.82477 0.40272 0.64603 0.0
C2850 C 0.85016 0.40351 0.64523 0.0
C2851 C 0.98045 0.44725 0.56031 0.0
C2852 C 0.97966 0.47062 0.57528 0.0
C2853 C 0.96502 0.42606 0.57345 0.0
C2854 C 0.94861 0.42784 0.60189 0.0
C2855 C 0.94875 0.45119 0.61768 0.0
C2856 C 0.96407 0.4723 0.6046 0.0
C2857 C 0.92972 0.40567 0.61395 0.0
C2858 C 0.90399 0.40439 0.61684 0.0
C2859 C 0.93648 0.38589 0.62204 0.0
C2860 C 0.96327 0.38591 0.61921 0.0
C2861 C 0.98204 0.40543 0.63529 0.0
C2862 C 1.00732 0.40548 0.63193 0.0
C2863 C 1.01404 0.386 0.61281 0.0
C2864 C 0.99546 0.36637 0.59714 0.0
C2865 C 0.97016 0.36624 0.60038 0.0
H2866 H 0.03363 0.38609 0.61021 0.0
H2867 H 0.78742 0.38161 0.63117 0.0
H2868 H 0.25645 0.69335 0.66126 0.0
H2869 H 0.22822 0.66439 0.6223 0.0
H2870 H 0.18017 0.71087 0.63469 0.0
H2871 H 0.20845 0.74011 0.67429 0.0
H2872 H 0.15363 0.66413 0.64399 0.0
H2873 H 0.21269 0.70256 0.56081 0.0
H2874 H 0.2547 0.72017 0.53231 0.0
H2875 H 0.26726 0.64997 0.5181 0.0
H2876 H 0.22548 0.632 0.54693 0.0
H2877 H 0.07167 0.57516 0.53511 0.0
H2878 H 0.10061 0.61408 0.55828 0.0
H2879 H 0.16047 0.5809 0.54998 0.0
H2880 H 0.13176 0.54202 0.52572 0.0
H2881 H 0.17929 0.62554 0.5344 0.0
H2882 H 0.12346 0.58928 0.62487 0.0
H2883 H 0.0818 0.5715 0.65418 0.0
H2884 H 0.06359 0.63801 0.65498 0.0
H2885 H 0.10506 0.65608 0.62534 0.0
C2886 C 0.24012 0.69769 0.65536 0.0
C2887 C 0.2346 0.71896 0.67105 0.0
C2888 C 0.22408 0.68116 0.63284 0.0
C2889 C 0.20218 0.68553 0.62539 0.0
C2890 C 0.19705 0.70722 0.64002 0.0
C2891 C 0.21326 0.72393 0.66251 0.0
C2892 C 0.18355 0.66612 0.60508 0.0
C2893 C 0.15902 0.65609 0.61963 0.0
C2894 C 0.1908 0.65526 0.57368 0.0
C2895 C 0.21597 0.66597 0.55624 0.0
C2896 C 0.22448 0.69091 0.55183 0.0
C2897 C 0.24825 0.70095 0.53557 0.0
C2898 C 0.26366 0.68621 0.52345 0.0
C2899 C 0.25531 0.66137 0.52751 0.0
C2900 C 0.23156 0.65124 0.54376 0.0
C2901 C 0.09103 0.57617 0.53809 0.0
C2902 C 0.09935 0.55544 0.52904 0.0
C2903 C 0.10754 0.59842 0.55148 0.0
C2904 C 0.13255 0.60028 0.55669 0.0
C2905 C 0.1412 0.57987 0.54641 0.0
C2906 C 0.12478 0.55766 0.53257 0.0
C2907 C 0.14953 0.62327 0.57358 0.0
C2908 C 0.17374 0.63389 0.55844 0.0
C2909 C 0.14202 0.63468 0.60449 0.0
C2910 C 0.11723 0.62392 0.62262 0.0
C2911 C 0.1105 0.60005 0.63114 0.0
C2912 C 0.08694 0.58993 0.64783 0.0
C2913 C 0.07003 0.60359 0.65636 0.0
C2914 C 0.07669 0.62744 0.64832 0.0
C2915 C 0.10023 0.63763 0.63161 0.0
H2916 H 0.05179 0.59572 0.66926 0.0
H2917 H 0.28205 0.69402 0.51087 0.0
loop_
_geom_bond_atom_site_label_1
_geom_bond_atom_site_label_2
_geom_bond_distance
_geom_bond_site_symmetry_2
_ccdc_geom_bond_type
Eu0 C9 2.828 . S
Eu0 O11 2.392 . S
Eu0 O13 2.418 . S
Eu0 O18 2.373 . S
Eu0 O21 2.488 . S
Eu0 O22 2.471 . S
Eu0 O23 2.349 . S
Eu1 O10 2.373 . S
Eu1 O14 2.488 . S
Eu1 O15 2.471 . S
Eu1 O16 2.349 . S
Eu1 O19 2.392 . S
Eu1 O20 2.418 . S
Eu1 C30 2.828 . S
C2 O20 1.244 . S
C2 O23 1.265 . S
C3 C4 1.379 . S
C3 C7 1.373 . S
C3 C9 1.505 . S
C4 C3 1.379 . S
C4 C6 1.369 . S
C4 H32 0.930 . S
C5 C7 1.383 . S
C5 C8 1.382 . S
C5 H33 0.930 . S
C6 C4 1.369 . S
C6 C8 1.392 . S
C6 H34 0.930 . S
C7 C3 1.373 . S
C7 C5 1.383 . S
C7 H35 0.931 . S
C8 C5 1.382 . S
C8 C6 1.392 . S
C9 Eu0 2.828 . S
C9 C3 1.505 . S
C9 O21 1.249 . S
C9 O22 1.244 . S
O10 Eu1 2.373 . S
O10 C12 1.258 . S
O11 Eu0 2.392 . S
O11 C12 1.242 . S
C12 O10 1.258 . S
C12 O11 1.242 . S
O13 Eu0 2.418 . S
O13 C17 1.244 . S
O14 Eu1 2.488 . S
O14 C30 1.249 . S
O15 Eu1 2.471 . S
O15 C30 1.244 . S
O16 Eu1 2.349 . S
O16 C17 1.265 . S
C17 O13 1.244 . S
C17 O16 1.265 . S
O18 Eu0 2.373 . S
O18 C31 1.258 . S
O19 Eu1 2.392 . S
O19 C31 1.242 . S
O20 Eu1 2.418 . S
O20 C2 1.244 . S
O21 Eu0 2.488 . S
O21 C9 1.249 . S
O22 Eu0 2.471 . S
O22 C9 1.244 . S
O23 Eu0 2.349 . S
O23 C2 1.265 . S
C24 C25 1.379 . S
C24 C28 1.373 . S
C24 C30 1.505 . S
C25 C24 1.379 . S
C25 C27 1.369 . S
C25 H36 0.930 . S
C26 C28 1.383 . S
C26 C29 1.382 . S
C26 H37 0.930 . S
C27 C25 1.369 . S
C27 C29 1.392 . S
C27 H38 0.930 . S
C28 C24 1.373 . S
C28 C26 1.383 . S
C28 H39 0.931 . S
C29 C26 1.382 . S
C29 C27 1.392 . S
C30 Eu1 2.828 . S
C30 O14 1.249 . S
C30 O15 1.244 . S
C30 C24 1.505 . S
C31 O18 1.258 . S
C31 O19 1.242 . S
H32 C4 0.930 . S
H33 C5 0.930 . S
H34 C6 0.930 . S
H35 C7 0.931 . S
H36 C25 0.930 . S
H37 C26 0.930 . S
H38 C27 0.930 . S
H39 C28 0.931 . S
Eu40 C49 2.828 . S
Eu40 O51 2.392 . S
Eu40 O53 2.418 . S
Eu40 O58 2.373 . S
Eu40 O61 2.488 . S
Eu40 O62 2.471 . S
Eu40 O63 2.349 . S
Eu41 O50 2.373 . S
Eu41 O54 2.488 . S
Eu41 O55 2.471 . S
Eu41 O56 2.349 . S
Eu41 O59 2.392 . S
Eu41 O60 2.418 . S
Eu41 C70 2.828 . S
C42 O60 1.244 . S
C42 O63 1.265 . S
C43 C44 1.379 . S
C43 C47 1.373 . S
C43 C49 1.505 . S
C44 C43 1.379 . S
C44 C46 1.369 . S
C44 H72 0.930 . S
C45 C47 1.383 . S
C45 C48 1.382 . S
C45 H73 0.930 . S
C46 C44 1.369 . S
C46 C48 1.392 . S
C46 H74 0.930 . S
C47 C43 1.373 . S
C47 C45 1.383 . S
C47 H75 0.931 . S
C48 C45 1.382 . S
C48 C46 1.392 . S
C49 Eu40 2.828 . S
C49 C43 1.505 . S
C49 O61 1.249 . S
C49 O62 1.244 . S
O50 Eu41 2.373 . S
O50 C52 1.258 . S
O51 Eu40 2.392 . S
O51 C52 1.242 . S
C52 O50 1.258 . S
C52 O51 1.242 . S
O53 Eu40 2.418 . S
O53 C57 1.244 . S
O54 Eu41 2.488 . S
O54 C70 1.249 . S
O55 Eu41 2.471 . S
O55 C70 1.244 . S
O56 Eu41 2.349 . S
O56 C57 1.265 . S
C57 O53 1.244 . S
C57 O56 1.265 . S
O58 Eu40 2.373 . S
O58 C71 1.258 . S
O59 Eu41 2.392 . S
O59 C71 1.242 . S
O60 Eu41 2.418 . S
O60 C42 1.244 . S
O61 Eu40 2.488 . S
O61 C49 1.249 . S
O62 Eu40 2.471 . S
O62 C49 1.244 . S
O63 Eu40 2.349 . S
O63 C42 1.265 . S
C64 C65 1.379 . S
C64 C68 1.373 . S
C64 C70 1.505 . S
C65 C64 1.379 . S
C65 C67 1.369 . S
C65 H76 0.930 . S
C66 C68 1.383 . S
C66 C69 1.382 . S
C66 H77 0.930 . S
C67 C65 1.369 . S
C67 C69 1.392 . S
C67 H78 0.930 . S
C68 C64 1.373 . S
C68 C66 1.383 . S
C68 H79 0.931 . S
C69 C66 1.382 . S
C69 C67 1.392 . S
C70 Eu41 2.828 . S
C70 O54 1.249 . S
C70 O55 1.244 . S
C70 C64 1.505 . S
C71 O58 1.258 . S
C71 O59 1.242 . S
H72 C44 0.930 . S
H73 C45 0.930 . S
H74 C46 0.930 . S
H75 C47 0.931 . S
H76 C65 0.930 . S
H77 C66 0.930 . S
H78 C67 0.930 . S
H79 C68 0.931 . S
Eu80 C89 2.828 . S
Eu80 O91 2.392 . S
Eu80 O93 2.418 . S
Eu80 O98 2.373 . S
Eu80 O101 2.488 . S
Eu80 O102 2.471 . S
Eu80 O103 2.349 . S
Eu81 O90 2.373 . S
Eu81 O94 2.488 . S
Eu81 O95 2.471 . S
Eu81 O96 2.349 . S
Eu81 O99 2.392 . S
Eu81 O100 2.418 . S
Eu81 C110 2.828 . S
C82 O100 1.244 . S
C82 O103 1.265 . S
C83 C84 1.379 . S
C83 C87 1.373 . S
C83 C89 1.505 . S
C84 C83 1.379 . S
C84 C86 1.369 . S
C84 H112 0.930 . S
C85 C87 1.383 . S
C85 C88 1.382 . S
C85 H113 0.930 . S
C86 C84 1.369 . S
C86 C88 1.392 . S
C86 H114 0.930 . S
C87 C83 1.373 . S
C87 C85 1.383 . S
C87 H115 0.931 . S
C88 C85 1.382 . S
C88 C86 1.392 . S
C89 Eu80 2.828 . S
C89 C83 1.505 . S
C89 O101 1.249 . S
C89 O102 1.244 . S
O90 Eu81 2.373 . S
O90 C92 1.258 . S
O91 Eu80 2.392 . S
O91 C92 1.242 . S
C92 O90 1.258 . S
C92 O91 1.242 . S
O93 Eu80 2.418 . S
O93 C97 1.244 . S
O94 Eu81 2.488 . S
O94 C110 1.249 . S
O95 Eu81 2.471 . S
O95 C110 1.244 . S
O96 Eu81 2.349 . S
O96 C97 1.265 . S
C97 O93 1.244 . S
C97 O96 1.265 . S
O98 Eu80 2.373 . S
O98 C111 1.258 . S
O99 Eu81 2.392 . S
O99 C111 1.242 . S
O100 Eu81 2.418 . S
O100 C82 1.244 . S
O101 Eu80 2.488 . S
O101 C89 1.249 . S
O102 Eu80 2.471 . S
O102 C89 1.244 . S
O103 Eu80 2.349 . S
O103 C82 1.265 . S
C104 C105 1.379 . S
C104 C108 1.373 . S
C104 C110 1.505 . S
C105 C104 1.379 . S
C105 C107 1.369 . S
C105 H116 0.930 . S
C106 C108 1.383 . S
C106 C109 1.382 . S
C106 H117 0.930 . S
C107 C105 1.369 . S
C107 C109 1.392 . S
C107 H118 0.930 . S
C108 C104 1.373 . S
C108 C106 1.383 . S
C108 H119 0.931 . S
C109 C106 1.382 . S
C109 C107 1.392 . S
C110 Eu81 2.828 . S
C110 O94 1.249 . S
C110 O95 1.244 . S
C110 C104 1.505 . S
C111 O98 1.258 . S
C111 O99 1.242 . S
H112 C84 0.930 . S
H113 C85 0.930 . S
H114 C86 0.930 . S
H115 C87 0.931 . S
H116 C105 0.930 . S
H117 C106 0.930 . S
H118 C107 0.930 . S
H119 C108 0.931 . S
Eu120 C129 2.828 . S
Eu120 O131 2.392 . S
Eu120 O133 2.418 . S
Eu120 O138 2.373 . S
Eu120 O141 2.488 . S
Eu120 O142 2.471 . S
Eu120 O143 2.349 . S
Eu121 O130 2.373 . S
Eu121 O134 2.488 . S
Eu121 O135 2.471 . S
Eu121 O136 2.349 . S
Eu121 O139 2.392 . S
Eu121 O140 2.418 . S
Eu121 C150 2.828 . S
C122 O140 1.244 . S
C122 O143 1.265 . S
C123 C124 1.379 . S
C123 C127 1.373 . S
C123 C129 1.505 . S
C124 C123 1.379 . S
C124 C126 1.369 . S
C124 H152 0.930 . S
C125 C127 1.383 . S
C125 C128 1.382 . S
C125 H153 0.930 . S
C126 C124 1.369 . S
C126 C128 1.392 . S
C126 H154 0.930 . S
C127 C123 1.373 . S
C127 C125 1.383 . S
C127 H155 0.931 . S
C128 C125 1.382 . S
C128 C126 1.392 . S
C129 Eu120 2.828 . S
C129 C123 1.505 . S
C129 O141 1.249 . S
C129 O142 1.244 . S
O130 Eu121 2.373 . S
O130 C132 1.258 . S
O131 Eu120 2.392 . S
O131 C132 1.242 . S
C132 O130 1.258 . S
C132 O131 1.242 . S
O133 Eu120 2.418 . S
O133 C137 1.244 . S
O134 Eu121 2.488 . S
O134 C150 1.249 . S
O135 Eu121 2.471 . S
O135 C150 1.244 . S
O136 Eu121 2.349 . S
O136 C137 1.265 . S
C137 O133 1.244 . S
C137 O136 1.265 . S
O138 Eu120 2.373 . S
O138 C151 1.258 . S
O139 Eu121 2.392 . S
O139 C151 1.242 . S
O140 Eu121 2.418 . S
O140 C122 1.244 . S
O141 Eu120 2.488 . S
O141 C129 1.249 . S
O142 Eu120 2.471 . S
O142 C129 1.244 . S
O143 Eu120 2.349 . S
O143 C122 1.265 . S
C144 C145 1.379 . S
C144 C148 1.373 . S
C144 C150 1.505 . S
C145 C144 1.379 . S
C145 C147 1.369 . S
C145 H156 0.930 . S
C146 C148 1.383 . S
C146 C149 1.382 . S
C146 H157 0.930 . S
C147 C145 1.369 . S
C147 C149 1.392 . S
C147 H158 0.930 . S
C148 C144 1.373 . S
C148 C146 1.383 . S
C148 H159 0.931 . S
C149 C146 1.382 . S
C149 C147 1.392 . S
C150 Eu121 2.828 . S
C150 O134 1.249 . S
C150 O135 1.244 . S
C150 C144 1.505 . S
C151 O138 1.258 . S
C151 O139 1.242 . S
H152 C124 0.930 . S
H153 C125 0.930 . S
H154 C126 0.930 . S
H155 C127 0.931 . S
H156 C145 0.930 . S
H157 C146 0.930 . S
H158 C147 0.930 . S
H159 C148 0.931 . S
Eu160 C169 2.828 . S
Eu160 O171 2.392 . S
Eu160 O173 2.418 . S
Eu160 O178 2.373 . S
Eu160 O181 2.488 . S
Eu160 O182 2.471 . S
Eu160 O183 2.349 . S
Eu161 O170 2.373 . S
Eu161 O174 2.488 . S
Eu161 O175 2.471 . S
Eu161 O176 2.349 . S
Eu161 O179 2.392 . S
Eu161 O180 2.418 . S
Eu161 C190 2.828 . S
C162 O180 1.244 . S
C162 O183 1.265 . S
C163 C164 1.379 . S
C163 C167 1.373 . S
C163 C169 1.505 . S
C164 C163 1.379 . S
C164 C166 1.369 . S
C164 H192 0.930 . S
C165 C167 1.383 . S
C165 C168 1.382 . S
C165 H193 0.930 . S
C166 C164 1.369 . S
C166 C168 1.392 . S
C166 H194 0.930 . S
C167 C163 1.373 . S
C167 C165 1.383 . S
C167 H195 0.931 . S
C168 C165 1.382 . S
C168 C166 1.392 . S
C169 Eu160 2.828 . S
C169 C163 1.505 . S
C169 O181 1.249 . S
C169 O182 1.244 . S
O170 Eu161 2.373 . S
O170 C172 1.258 . S
O171 Eu160 2.392 . S
O171 C172 1.242 . S
C172 O170 1.258 . S
C172 O171 1.242 . S
O173 Eu160 2.418 . S
O173 C177 1.244 . S
O174 Eu161 2.488 . S
O174 C190 1.249 . S
O175 Eu161 2.471 . S
O175 C190 1.244 . S
O176 Eu161 2.349 . S
O176 C177 1.265 . S
C177 O173 1.244 . S
C177 O176 1.265 . S
O178 Eu160 2.373 . S
O178 C191 1.258 . S
O179 Eu161 2.392 . S
O179 C191 1.242 . S
O180 Eu161 2.418 . S
O180 C162 1.244 . S
O181 Eu160 2.488 . S
O181 C169 1.249 . S
O182 Eu160 2.471 . S
O182 C169 1.244 . S
O183 Eu160 2.349 . S
O183 C162 1.265 . S
C184 C185 1.379 . S
C184 C188 1.373 . S
C184 C190 1.505 . S
C185 C184 1.379 . S
C185 C187 1.369 . S
C185 H196 0.930 . S
C186 C188 1.383 . S
C186 C189 1.382 . S
C186 H197 0.930 . S
C187 C185 1.369 . S
C187 C189 1.392 . S
C187 H198 0.930 . S
C188 C184 1.373 . S
C188 C186 1.383 . S
C188 H199 0.931 . S
C189 C186 1.382 . S
C189 C187 1.392 . S
C190 Eu161 2.828 . S
C190 O174 1.249 . S
C190 O175 1.244 . S
C190 C184 1.505 . S
C191 O178 1.258 . S
C191 O179 1.242 . S
H192 C164 0.930 . S
H193 C165 0.930 . S
H194 C166 0.930 . S
H195 C167 0.931 . S
H196 C185 0.930 . S
H197 C186 0.930 . S
H198 C187 0.930 . S
H199 C188 0.931 . S
Eu200 C209 2.828 . S
Eu200 O211 2.392 . S
Eu200 O213 2.418 . S
Eu200 O218 2.373 . S
Eu200 O221 2.488 . S
Eu200 O222 2.471 . S
Eu200 O223 2.349 . S
Eu201 O210 2.373 . S
Eu201 O214 2.488 . S
Eu201 O215 2.471 . S
Eu201 O216 2.349 . S
Eu201 O219 2.392 . S
Eu201 O220 2.418 . S
Eu201 C230 2.828 . S
C202 O220 1.244 . S
C202 O223 1.265 . S
C203 C204 1.379 . S
C203 C207 1.373 . S
C203 C209 1.505 . S
C204 C203 1.379 . S
C204 C206 1.369 . S
C204 H232 0.930 . S
C205 C207 1.383 . S
C205 C208 1.382 . S
C205 H233 0.930 . S
C206 C204 1.369 . S
C206 C208 1.392 . S
C206 H234 0.930 . S
C207 C203 1.373 . S
C207 C205 1.383 . S
C207 H235 0.931 . S
C208 C205 1.382 . S
C208 C206 1.392 . S
C209 Eu200 2.828 . S
C209 C203 1.505 . S
C209 O221 1.249 . S
C209 O222 1.244 . S
O210 Eu201 2.373 . S
O210 C212 1.258 . S
O211 Eu200 2.392 . S
O211 C212 1.242 . S
C212 O210 1.258 . S
C212 O211 1.242 . S
O213 Eu200 2.418 . S
O213 C217 1.244 . S
O214 Eu201 2.488 . S
O214 C230 1.249 . S
O215 Eu201 2.471 . S
O215 C230 1.244 . S
O216 Eu201 2.349 . S
O216 C217 1.265 . S
C217 O213 1.244 . S
C217 O216 1.265 . S
O218 Eu200 2.373 . S
O218 C231 1.258 . S
O219 Eu201 2.392 . S
O219 C231 1.242 . S
O220 Eu201 2.418 . S
O220 C202 1.244 . S
O221 Eu200 2.488 . S
O221 C209 1.249 . S
O222 Eu200 2.471 . S
O222 C209 1.244 . S
O223 Eu200 2.349 . S
O223 C202 1.265 . S
C224 C225 1.379 . S
C224 C228 1.373 . S
C224 C230 1.505 . S
C225 C224 1.379 . S
C225 C227 1.369 . S
C225 H236 0.930 . S
C226 C228 1.383 . S
C226 C229 1.382 . S
C226 H237 0.930 . S
C227 C225 1.369 . S
C227 C229 1.392 . S
C227 H238 0.930 . S
C228 C224 1.373 . S
C228 C226 1.383 . S
C228 H239 0.931 . S
C229 C226 1.382 . S
C229 C227 1.392 . S
C230 Eu201 2.828 . S
C230 O214 1.249 . S
C230 O215 1.244 . S
C230 C224 1.505 . S
C231 O218 1.258 . S
C231 O219 1.242 . S
H232 C204 0.930 . S
H233 C205 0.930 . S
H234 C206 0.930 . S
H235 C207 0.931 . S
H236 C225 0.930 . S
H237 C226 0.930 . S
H238 C227 0.930 . S
H239 C228 0.931 . S
Eu240 C249 2.828 . S
Eu240 O251 2.392 . S
Eu240 O253 2.418 . S
Eu240 O258 2.373 . S
Eu240 O261 2.488 . S
Eu240 O262 2.471 . S
Eu240 O263 2.349 . S
Eu241 O250 2.373 . S
Eu241 O254 2.488 . S
Eu241 O255 2.471 . S
Eu241 O256 2.349 . S
Eu241 O259 2.392 . S
Eu241 O260 2.418 . S
Eu241 C270 2.828 . S
C242 O260 1.244 . S
C242 O263 1.265 . S
C243 C244 1.379 . S
C243 C247 1.373 . S
C243 C249 1.505 . S
C244 C243 1.379 . S
C244 C246 1.369 . S
C244 H272 0.930 . S
C245 C247 1.383 . S
C245 C248 1.382 . S
C245 H273 0.930 . S
C246 C244 1.369 . S
C246 C248 1.392 . S
C246 H274 0.930 . S
C247 C243 1.373 . S
C247 C245 1.383 . S
C247 H275 0.931 . S
C248 C245 1.382 . S
C248 C246 1.392 . S
C249 Eu240 2.828 . S
C249 C243 1.505 . S
C249 O261 1.249 . S
C249 O262 1.244 . S
O250 Eu241 2.373 . S
O250 C252 1.258 . S
O251 Eu240 2.392 . S
O251 C252 1.242 . S
C252 O250 1.258 . S
C252 O251 1.242 . S
O253 Eu240 2.418 . S
O253 C257 1.244 . S
O254 Eu241 2.488 . S
O254 C270 1.249 . S
O255 Eu241 2.471 . S
O255 C270 1.244 . S
O256 Eu241 2.349 . S
O256 C257 1.265 . S
C257 O253 1.244 . S
C257 O256 1.265 . S
O258 Eu240 2.373 . S
O258 C271 1.258 . S
O259 Eu241 2.392 . S
O259 C271 1.242 . S
O260 Eu241 2.418 . S
O260 C242 1.244 . S
O261 Eu240 2.488 . S
O261 C249 1.249 . S
O262 Eu240 2.471 . S
O262 C249 1.244 . S
O263 Eu240 2.349 . S
O263 C242 1.265 . S
C264 C265 1.379 . S
C264 C268 1.373 . S
C264 C270 1.505 . S
C265 C264 1.379 . S
C265 C267 1.369 . S
C265 H276 0.930 . S
C266 C268 1.383 . S
C266 C269 1.382 . S
C266 H277 0.930 . S
C267 C265 1.369 . S
C267 C269 1.392 . S
C267 H278 0.930 . S
C268 C264 1.373 . S
C268 C266 1.383 . S
C268 H279 0.931 . S
C269 C266 1.382 . S
C269 C267 1.392 . S
C270 Eu241 2.828 . S
C270 O254 1.249 . S
C270 O255 1.244 . S
C270 C264 1.505 . S
C271 O258 1.258 . S
C271 O259 1.242 . S
H272 C244 0.930 . S
H273 C245 0.930 . S
H274 C246 0.930 . S
H275 C247 0.931 . S
H276 C265 0.930 . S
H277 C266 0.930 . S
H278 C267 0.930 . S
H279 C268 0.931 . S
Eu280 C289 2.828 . S
Eu280 O291 2.392 . S
Eu280 O293 2.418 . S
Eu280 O298 2.373 . S
Eu280 O301 2.488 . S
Eu280 O302 2.471 . S
Eu280 O303 2.349 . S
Eu281 O290 2.373 . S
Eu281 O294 2.488 . S
Eu281 O295 2.471 . S
Eu281 O296 2.349 . S
Eu281 O299 2.392 . S
Eu281 O300 2.418 . S
Eu281 C310 2.828 . S
C282 O300 1.244 . S
C282 O303 1.265 . S
C283 C284 1.379 . S
C283 C287 1.373 . S
C283 C289 1.505 . S
C284 C283 1.379 . S
C284 C286 1.369 . S
C284 H312 0.930 . S
C285 C287 1.383 . S
C285 C288 1.382 . S
C285 H313 0.930 . S
C286 C284 1.369 . S
C286 C288 1.392 . S
C286 H314 0.930 . S
C287 C283 1.373 . S
C287 C285 1.383 . S
C287 H315 0.931 . S
C288 C285 1.382 . S
C288 C286 1.392 . S
C289 Eu280 2.828 . S
C289 C283 1.505 . S
C289 O301 1.249 . S
C289 O302 1.244 . S
O290 Eu281 2.373 . S
O290 C292 1.258 . S
O291 Eu280 2.392 . S
O291 C292 1.242 . S
C292 O290 1.258 . S
C292 O291 1.242 . S
O293 Eu280 2.418 . S
O293 C297 1.244 . S
O294 Eu281 2.488 . S
O294 C310 1.249 . S
O295 Eu281 2.471 . S
O295 C310 1.244 . S
O296 Eu281 2.349 . S
O296 C297 1.265 . S
C297 O293 1.244 . S
C297 O296 1.265 . S
O298 Eu280 2.373 . S
O298 C311 1.258 . S
O299 Eu281 2.392 . S
O299 C311 1.242 . S
O300 Eu281 2.418 . S
O300 C282 1.244 . S
O301 Eu280 2.488 . S
O301 C289 1.249 . S
O302 Eu280 2.471 . S
O302 C289 1.244 . S
O303 Eu280 2.349 . S
O303 C282 1.265 . S
C304 C305 1.379 . S
C304 C308 1.373 . S
C304 C310 1.505 . S
C305 C304 1.379 . S
C305 C307 1.369 . S
C305 H316 0.930 . S
C306 C308 1.383 . S
C306 C309 1.382 . S
C306 H317 0.930 . S
C307 C305 1.369 . S
C307 C309 1.392 . S
C307 H318 0.930 . S
C308 C304 1.373 . S
C308 C306 1.383 . S
C308 H319 0.931 . S
C309 C306 1.382 . S
C309 C307 1.392 . S
C310 Eu281 2.828 . S
C310 O294 1.249 . S
C310 O295 1.244 . S
C310 C304 1.505 . S
C311 O298 1.258 . S
C311 O299 1.242 . S
H312 C284 0.930 . S
H313 C285 0.930 . S
H314 C286 0.930 . S
H315 C287 0.931 . S
H316 C305 0.930 . S
H317 C306 0.930 . S
H318 C307 0.930 . S
H319 C308 0.931 . S
Co320 O323 2.042 . S
Co320 O330 2.264 . S
Co320 O349 2.286 . S
Co320 O350 2.069 . S
Co320 O352 2.015 1_455 S
Co321 O323 2.122 . S
Co321 O329 2.073 . S
Co321 O330 2.327 . S
Co321 O331 1.976 1_455 S
Co322 O323 2.087 1_545 S
Co322 O325 2.087 1_455 S
Co322 O332 2.100 1_445 S
Co322 O333 2.156 . S
Co322 O337 2.123 . S
Co322 O351 2.131 1_445 S
O323 Co320 2.042 . S
O323 Co321 2.122 . S
O323 Co322 2.087 1_565 S
O323 H324 0.980 . S
H324 O323 0.980 . S
O325 Co322 2.087 1_655 S
O325 Co326 2.042 . S
O325 Co327 2.122 . S
O325 H328 0.980 . S
Co326 O325 2.042 . S
Co326 O334 2.286 . S
Co326 O335 2.069 . S
Co326 O336 2.015 1_655 S
Co326 O339 2.264 . S
Co327 O325 2.122 . S
Co327 O338 1.976 1_655 S
Co327 O339 2.327 . S
Co327 O340 2.073 . S
H328 O325 0.980 . S
O329 Co321 2.073 . S
O329 C344 1.245 . S
O330 Co320 2.264 . S
O330 Co321 2.327 . S
O330 C344 1.257 . S
O331 Co321 1.976 1_655 S
O331 C343 1.251 . S
O332 Co322 2.100 1_665 S
O332 C343 1.274 . S
O333 Co322 2.156 . S
O333 C346 1.246 . S
O334 Co326 2.286 . S
O334 C345 1.259 . S
O335 Co326 2.069 . S
O335 C345 1.289 . S
O336 Co326 2.015 1_455 S
O336 C346 1.257 . S
O337 Co322 2.123 . S
O337 C347 1.274 . S
O338 Co327 1.976 1_455 S
O338 C347 1.251 . S
O339 Co326 2.264 . S
O339 Co327 2.327 . S
O339 C348 1.257 . S
O340 Co327 2.073 . S
O340 C348 1.245 . S
C341 O349 1.259 . S
C341 O350 1.289 . S
C342 O351 1.246 . S
C342 O352 1.257 . S
C343 O331 1.251 . S
C343 O332 1.274 . S
C344 O329 1.245 . S
C344 O330 1.257 . S
C345 O334 1.259 . S
C345 O335 1.289 . S
C346 O333 1.246 . S
C346 O336 1.257 . S
C347 O337 1.274 . S
C347 O338 1.251 . S
C348 O339 1.257 . S
C348 O340 1.245 . S
O349 Co320 2.286 . S
O349 C341 1.259 . S
O350 Co320 2.069 . S
O350 C341 1.289 . S
O351 Co322 2.131 1_665 S
O351 C342 1.246 . S
O352 Co320 2.015 1_655 S
O352 C342 1.257 . S
Co353 O356 2.042 1_556 S
Co353 O363 2.264 1_556 S
Co353 O382 2.286 . S
Co353 O383 2.069 . S
Co353 O385 2.015 . S
Co354 O356 2.122 . S
Co354 O362 2.073 . S
Co354 O363 2.327 . S
Co354 O364 1.976 . S
Co355 O356 2.075 1_545 S
Co355 O358 2.099 1_554 S
Co355 O365 2.107 1_545 S
Co355 O366 2.151 . S
Co355 O370 2.115 1_554 S
Co355 O384 2.136 1_544 S
O356 Co353 2.042 1_554 S
O356 Co354 2.122 . S
O356 Co355 2.075 1_565 S
O356 H357 0.980 . S
H357 O356 0.980 . S
O358 Co355 2.099 1_556 S
O358 Co359 2.042 1_556 S
O358 Co360 2.122 . S
O358 H361 0.980 . S
Co359 O358 2.042 1_554 S
Co359 O367 2.286 . S
Co359 O368 2.069 . S
Co359 O369 2.015 . S
Co359 O372 2.264 1_554 S
Co360 O358 2.122 . S
Co360 O371 1.976 . S
Co360 O372 2.327 . S
Co360 O373 2.073 . S
H361 O358 0.980 . S
O362 Co354 2.073 . S
O362 C377 1.245 . S
O363 Co353 2.264 1_554 S
O363 Co354 2.327 . S
O363 C377 1.257 . S
O364 Co354 1.976 . S
O364 C376 1.251 . S
O365 Co355 2.107 1_565 S
O365 C376 1.274 . S
O366 Co355 2.151 . S
O366 C379 1.246 . S
O367 Co359 2.286 . S
O367 C378 1.259 . S
O368 Co359 2.069 . S
O368 C378 1.289 . S
O369 Co359 2.015 . S
O369 C379 1.257 . S
O370 Co355 2.115 1_556 S
O370 C380 1.274 . S
O371 Co360 1.976 . S
O371 C380 1.251 . S
O372 Co359 2.264 1_556 S
O372 Co360 2.327 . S
O372 C381 1.257 . S
O373 Co360 2.073 . S
O373 C381 1.245 . S
C374 O382 1.259 . S
C374 O383 1.289 . S
C375 O384 1.246 . S
C375 O385 1.257 . S
C376 O364 1.251 . S
C376 O365 1.274 . S
C377 O362 1.245 . S
C377 O363 1.257 . S
C378 O367 1.259 . S
C378 O368 1.289 . S
C379 O366 1.246 . S
C379 O369 1.257 . S
C380 O370 1.274 . S
C380 O371 1.251 . S
C381 O372 1.257 . S
C381 O373 1.245 . S
O382 Co353 2.286 . S
O382 C374 1.259 . S
O383 Co353 2.069 . S
O383 C374 1.289 . S
O384 Co355 2.136 1_566 S
O384 C375 1.246 . S
O385 Co353 2.015 . S
O385 C375 1.257 . S
Co386 O389 2.042 1_556 S
Co386 O396 2.264 1_556 S
Co386 O415 2.286 . S
Co386 O416 2.069 . S
Co386 O418 2.015 1_455 S
Co387 O389 2.122 . S
Co387 O395 2.073 . S
Co387 O396 2.327 . S
Co387 O397 1.976 1_455 S
Co388 O389 2.099 . S
Co388 O391 2.075 1_454 S
Co388 O398 2.104 1_455 S
Co388 O399 2.149 . S
Co388 O403 2.119 1_554 S
Co388 O417 2.138 1_454 S
O389 Co386 2.042 1_554 S
O389 Co387 2.122 . S
O389 Co388 2.099 . S
O389 H390 0.980 . S
H390 O389 0.980 . S
O391 Co388 2.075 1_656 S
O391 Co392 2.042 1_556 S
O391 Co393 2.122 . S
O391 H394 0.980 . S
Co392 O391 2.042 1_554 S
Co392 O400 2.286 . S
Co392 O401 2.069 . S
Co392 O402 2.015 1_655 S
Co392 O405 2.264 1_554 S
Co393 O391 2.122 . S
Co393 O404 1.976 1_655 S
Co393 O405 2.327 . S
Co393 O406 2.073 . S
H394 O391 0.980 . S
O395 Co387 2.073 . S
O395 C410 1.245 . S
O396 Co386 2.264 1_554 S
O396 Co387 2.327 . S
O396 C410 1.257 . S
O397 Co387 1.976 1_655 S
O397 C409 1.251 . S
O398 Co388 2.104 1_655 S
O398 C409 1.274 . S
O399 Co388 2.149 . S
O399 C412 1.246 . S
O400 Co392 2.286 . S
O400 C411 1.259 . S
O401 Co392 2.069 . S
O401 C411 1.289 . S
O402 Co392 2.015 1_455 S
O402 C412 1.257 . S
O403 Co388 2.119 1_556 S
O403 C413 1.274 . S
O404 Co393 1.976 1_455 S
O404 C413 1.251 . S
O405 Co392 2.264 1_556 S
O405 Co393 2.327 . S
O405 C414 1.257 . S
O406 Co393 2.073 . S
O406 C414 1.245 . S
C407 O415 1.259 . S
C407 O416 1.289 . S
C408 O417 1.246 . S
C408 O418 1.257 . S
C409 O397 1.251 . S
C409 O398 1.274 . S
C410 O395 1.245 . S
C410 O396 1.257 . S
C411 O400 1.259 . S
C411 O401 1.289 . S
C412 O399 1.246 . S
C412 O402 1.257 . S
C413 O403 1.274 . S
C413 O404 1.251 . S
C414 O405 1.257 . S
C414 O406 1.245 . S
O415 Co386 2.286 . S
O415 C407 1.259 . S
O416 Co386 2.069 . S
O416 C407 1.289 . S
O417 Co388 2.138 1_656 S
O417 C408 1.246 . S
O418 Co386 2.015 1_655 S
O418 C408 1.257 . S
Co419 O422 2.042 1_556 S
Co419 O429 2.264 1_556 S
Co419 O448 2.286 . S
Co419 O449 2.069 . S
Co419 O451 2.015 . S
Co420 O422 2.122 . S
Co420 O428 2.073 . S
Co420 O429 2.327 . S
Co420 O430 1.976 . S
Co421 O422 2.087 . S
Co421 O424 2.087 1_554 S
Co421 O431 2.111 . S
Co421 O432 2.143 . S
Co421 O436 2.111 1_554 S
Co421 O450 2.143 1_554 S
O422 Co419 2.042 1_554 S
O422 Co420 2.122 . S
O422 Co421 2.087 . S
O422 H423 0.980 . S
H423 O422 0.980 . S
O424 Co421 2.087 1_556 S
O424 Co425 2.042 1_556 S
O424 Co426 2.122 . S
O424 H427 0.980 . S
Co425 O424 2.042 1_554 S
Co425 O433 2.286 . S
Co425 O434 2.069 . S
Co425 O435 2.015 . S
Co425 O438 2.264 1_554 S
Co426 O424 2.122 . S
Co426 O437 1.976 . S
Co426 O438 2.327 . S
Co426 O439 2.073 . S
H427 O424 0.980 . S
O428 Co420 2.073 . S
O428 C443 1.245 . S
O429 Co419 2.264 1_554 S
O429 Co420 2.327 . S
O429 C443 1.257 . S
O430 Co420 1.976 . S
O430 C442 1.251 . S
O431 Co421 2.111 . S
O431 C442 1.274 . S
O432 Co421 2.143 . S
O432 C445 1.246 . S
O433 Co425 2.286 . S
O433 C444 1.259 . S
O434 Co425 2.069 . S
O434 C444 1.289 . S
O435 Co425 2.015 . S
O435 C445 1.257 . S
O436 Co421 2.111 1_556 S
O436 C446 1.274 . S
O437 Co426 1.976 . S
O437 C446 1.251 . S
O438 Co425 2.264 1_556 S
O438 Co426 2.327 . S
O438 C447 1.257 . S
O439 Co426 2.073 . S
O439 C447 1.245 . S
C440 O448 1.259 . S
C440 O449 1.289 . S
C441 O450 1.246 . S
C441 O451 1.257 . S
C442 O430 1.251 . S
C442 O431 1.274 . S
C443 O428 1.245 . S
C443 O429 1.257 . S
C444 O433 1.259 . S
C444 O434 1.289 . S
C445 O432 1.246 . S
C445 O435 1.257 . S
C446 O436 1.274 . S
C446 O437 1.251 . S
C447 O438 1.257 . S
C447 O439 1.245 . S
O448 Co419 2.286 . S
O448 C440 1.259 . S
O449 Co419 2.069 . S
O449 C440 1.289 . S
O450 Co421 2.143 1_556 S
O450 C441 1.246 . S
O451 Co419 2.015 . S
O451 C441 1.257 . S
Co452 O455 2.042 . S
Co452 O462 2.264 . S
Co452 O481 2.286 . S
Co452 O482 2.069 . S
Co452 O484 2.015 . S
Co453 O455 2.122 . S
Co453 O461 2.073 . S
Co453 O462 2.327 . S
Co453 O463 1.976 . S
Co454 O455 2.099 . S
Co454 O457 2.075 1_455 S
Co454 O464 2.114 . S
Co454 O465 2.136 1_455 S
Co454 O469 2.108 1_455 S
Co454 O483 2.151 . S
O455 Co452 2.042 . S
O455 Co453 2.122 . S
O455 Co454 2.099 . S
O455 H456 0.980 . S
H456 O455 0.980 . S
O457 Co454 2.075 1_655 S
O457 Co458 2.042 . S
O457 Co459 2.122 . S
O457 H460 0.980 . S
Co458 O457 2.042 . S
Co458 O466 2.286 . S
Co458 O467 2.069 . S
Co458 O468 2.015 . S
Co458 O471 2.264 . S
Co459 O457 2.122 . S
Co459 O470 1.976 . S
Co459 O471 2.327 . S
Co459 O472 2.073 . S
H460 O457 0.980 . S
O461 Co453 2.073 . S
O461 C476 1.245 . S
O462 Co452 2.264 . S
O462 Co453 2.327 . S
O462 C476 1.257 . S
O463 Co453 1.976 . S
O463 C475 1.251 . S
O464 Co454 2.114 . S
O464 C475 1.274 . S
O465 Co454 2.136 1_655 S
O465 C478 1.246 . S
O466 Co458 2.286 . S
O466 C477 1.259 . S
O467 Co458 2.069 . S
O467 C477 1.289 . S
O468 Co458 2.015 . S
O468 C478 1.257 . S
O469 Co454 2.108 1_655 S
O469 C479 1.274 . S
O470 Co459 1.976 . S
O470 C479 1.251 . S
O471 Co458 2.264 . S
O471 Co459 2.327 . S
O471 C480 1.257 . S
O472 Co459 2.073 . S
O472 C480 1.245 . S
C473 O481 1.259 . S
C473 O482 1.289 . S
C474 O483 1.246 . S
C474 O484 1.257 . S
C475 O463 1.251 . S
C475 O464 1.274 . S
C476 O461 1.245 . S
C476 O462 1.257 . S
C477 O466 1.259 . S
C477 O467 1.289 . S
C478 O465 1.246 . S
C478 O468 1.257 . S
C479 O469 1.274 . S
C479 O470 1.251 . S
C480 O471 1.257 . S
C480 O472 1.245 . S
O481 Co452 2.286 . S
O481 C473 1.259 . S
O482 Co452 2.069 . S
O482 C473 1.289 . S
O483 Co454 2.151 . S
O483 C474 1.246 . S
O484 Co452 2.015 . S
O484 C474 1.257 . S
Co485 O488 2.042 . S
Co485 O495 2.264 . S
Co485 O514 2.286 . S
Co485 O515 2.069 . S
Co485 O517 2.015 1_565 S
Co486 O488 2.122 . S
Co486 O494 2.073 . S
Co486 O495 2.327 . S
Co486 O496 1.976 1_565 S
Co487 O488 2.075 1_545 S
Co487 O490 2.099 . S
Co487 O497 2.120 . S
Co487 O498 2.139 1_545 S
Co487 O502 2.103 1_545 S
Co487 O516 2.148 . S
O488 Co485 2.042 . S
O488 Co486 2.122 . S
O488 Co487 2.075 1_565 S
O488 H489 0.980 . S
H489 O488 0.980 . S
O490 Co487 2.099 . S
O490 Co491 2.042 . S
O490 Co492 2.122 . S
O490 H493 0.980 . S
Co491 O490 2.042 . S
Co491 O499 2.286 . S
Co491 O500 2.069 . S
Co491 O501 2.015 1_545 S
Co491 O504 2.264 . S
Co492 O490 2.122 . S
Co492 O503 1.976 1_545 S
Co492 O504 2.327 . S
Co492 O505 2.073 . S
H493 O490 0.980 . S
O494 Co486 2.073 . S
O494 C509 1.245 . S
O495 Co485 2.264 . S
O495 Co486 2.327 . S
O495 C509 1.257 . S
O496 Co486 1.976 1_545 S
O496 C508 1.251 . S
O497 Co487 2.120 . S
O497 C508 1.274 . S
O498 Co487 2.139 1_565 S
O498 C511 1.246 . S
O499 Co491 2.286 . S
O499 C510 1.259 . S
O500 Co491 2.069 . S
O500 C510 1.289 . S
O501 Co491 2.015 1_565 S
O501 C511 1.257 . S
O502 Co487 2.103 1_565 S
O502 C512 1.274 . S
O503 Co492 1.976 1_565 S
O503 C512 1.251 . S
O504 Co491 2.264 . S
O504 Co492 2.327 . S
O504 C513 1.257 . S
O505 Co492 2.073 . S
O505 C513 1.245 . S
C506 O514 1.259 . S
C506 O515 1.289 . S
C507 O516 1.246 . S
C507 O517 1.257 . S
C508 O496 1.251 . S
C508 O497 1.274 . S
C509 O494 1.245 . S
C509 O495 1.257 . S
C510 O499 1.259 . S
C510 O500 1.289 . S
C511 O498 1.246 . S
C511 O501 1.257 . S
C512 O502 1.274 . S
C512 O503 1.251 . S
C513 O504 1.257 . S
C513 O505 1.245 . S
O514 Co485 2.286 . S
O514 C506 1.259 . S
O515 Co485 2.069 . S
O515 C506 1.289 . S
O516 Co487 2.148 . S
O516 C507 1.246 . S
O517 Co485 2.015 1_545 S
O517 C507 1.257 . S
H518 C536 0.951 . S
H519 C538 0.951 . S
H520 C540 0.950 . S
H521 C541 0.950 . S
H522 C543 0.950 . S
H523 C546 0.950 . S
H524 C547 0.950 . S
H525 C549 0.950 . S
H526 C550 0.950 . S
H527 C551 0.951 . S
H528 C553 0.951 . S
H529 C555 0.950 . S
H530 C556 0.950 . S
H531 C558 0.950 . S
H532 C561 0.950 . S
H533 C562 0.950 . S
H534 C564 0.950 . S
H535 C565 0.950 . S
C536 H518 0.951 . S
C536 C537 1.366 . S
C536 C538 1.388 . S
C537 C536 1.366 . S
C537 C541 1.385 . S
C538 H519 0.951 . S
C538 C536 1.388 . S
C538 C539 1.366 . S
C539 C538 1.366 . S
C539 C540 1.414 . S
C539 C542 1.499 . S
C540 H520 0.950 . S
C540 C539 1.414 . S
C540 C541 1.374 . S
C541 H521 0.950 . S
C541 C537 1.385 . S
C541 C540 1.374 . S
C542 C539 1.499 . S
C542 C543 1.373 . S
C542 C544 1.389 . S
C543 H522 0.950 . S
C543 C542 1.373 . S
C543 C559 1.377 . S
C544 C542 1.389 . S
C544 C545 1.524 . S
C544 C558 1.377 . S
C545 C544 1.524 . S
C545 C546 1.397 . S
C545 C550 1.363 . S
C546 H523 0.950 . S
C546 C545 1.397 . S
C546 C547 1.334 . S
C547 H524 0.950 . S
C547 C546 1.334 . S
C547 C548 1.287 . S
C548 C547 1.287 . S
C548 C549 1.524 . S
C548 H567 0.913 . S
C549 H525 0.950 . S
C549 C548 1.524 . S
C549 C550 1.415 . S
C550 H526 0.950 . S
C550 C545 1.363 . S
C550 C549 1.415 . S
C551 H527 0.951 . S
C551 C552 1.366 . S
C551 C553 1.388 . S
C552 C551 1.366 . S
C552 C556 1.385 . S
C553 H528 0.951 . S
C553 C551 1.388 . S
C553 C554 1.366 . S
C554 C553 1.366 . S
C554 C555 1.414 . S
C554 C557 1.499 . S
C555 H529 0.950 . S
C555 C554 1.414 . S
C555 C556 1.374 . S
C556 H530 0.950 . S
C556 C552 1.385 . S
C556 C555 1.374 . S
C557 C554 1.499 . S
C557 C558 1.373 . S
C557 C559 1.389 . S
C558 H531 0.950 . S
C558 C544 1.377 . S
C558 C557 1.373 . S
C559 C543 1.377 . S
C559 C557 1.389 . S
C559 C560 1.524 . S
C560 C559 1.524 . S
C560 C561 1.397 . S
C560 C565 1.363 . S
C561 H532 0.950 . S
C561 C560 1.397 . S
C561 C562 1.334 . S
C562 H533 0.950 . S
C562 C561 1.334 . S
C562 C563 1.287 . S
C563 C562 1.287 . S
C563 C564 1.524 . S
C563 H566 0.999 . S
C564 H534 0.950 . S
C564 C563 1.524 . S
C564 C565 1.415 . S
C565 H535 0.950 . S
C565 C560 1.363 . S
C565 C564 1.415 . S
H566 C563 0.999 . S
H567 C548 0.913 . S
H568 C586 0.951 . S
H569 C588 0.951 . S
H570 C590 0.950 . S
H571 C591 0.950 . S
H572 C593 0.950 . S
H573 C596 0.950 . S
H574 C597 0.950 . S
H575 C599 0.950 . S
H576 C600 0.950 . S
H577 C601 0.951 . S
H578 C603 0.951 . S
H579 C605 0.950 . S
H580 C606 0.950 . S
H581 C608 0.950 . S
H582 C611 0.950 . S
H583 C612 0.950 . S
H584 C614 0.950 . S
H585 C615 0.950 . S
C586 H568 0.951 . S
C586 C587 1.366 . S
C586 C588 1.388 . S
C587 C586 1.366 . S
C587 C591 1.385 . S
C588 H569 0.951 . S
C588 C586 1.388 . S
C588 C589 1.366 . S
C589 C588 1.366 . S
C589 C590 1.414 . S
C589 C592 1.499 . S
C590 H570 0.950 . S
C590 C589 1.414 . S
C590 C591 1.374 . S
C591 H571 0.950 . S
C591 C587 1.385 . S
C591 C590 1.374 . S
C592 C589 1.499 . S
C592 C593 1.373 . S
C592 C594 1.389 . S
C593 H572 0.950 . S
C593 C592 1.373 . S
C593 C609 1.377 . S
C594 C592 1.389 . S
C594 C595 1.524 . S
C594 C608 1.377 . S
C595 C594 1.524 . S
C595 C596 1.397 . S
C595 C600 1.363 . S
C596 H573 0.950 . S
C596 C595 1.397 . S
C596 C597 1.334 . S
C597 H574 0.950 . S
C597 C596 1.334 . S
C597 C598 1.287 . S
C598 C597 1.287 . S
C598 C599 1.524 . S
C598 H617 0.913 . S
C599 H575 0.950 . S
C599 C598 1.524 . S
C599 C600 1.415 . S
C600 H576 0.950 . S
C600 C595 1.363 . S
C600 C599 1.415 . S
C601 H577 0.951 . S
C601 C602 1.366 . S
C601 C603 1.388 . S
C602 C601 1.366 . S
C602 C606 1.385 . S
C603 H578 0.951 . S
C603 C601 1.388 . S
C603 C604 1.366 . S
C604 C603 1.366 . S
C604 C605 1.414 . S
C604 C607 1.499 . S
C605 H579 0.950 . S
C605 C604 1.414 . S
C605 C606 1.374 . S
C606 H580 0.950 . S
C606 C602 1.385 . S
C606 C605 1.374 . S
C607 C604 1.499 . S
C607 C608 1.373 . S
C607 C609 1.389 . S
C608 H581 0.950 . S
C608 C594 1.377 . S
C608 C607 1.373 . S
C609 C593 1.377 . S
C609 C607 1.389 . S
C609 C610 1.524 . S
C610 C609 1.524 . S
C610 C611 1.397 . S
C610 C615 1.363 . S
C611 H582 0.950 . S
C611 C610 1.397 . S
C611 C612 1.334 . S
C612 H583 0.950 . S
C612 C611 1.334 . S
C612 C613 1.287 . S
C613 C612 1.287 . S
C613 C614 1.524 . S
C613 H616 0.999 . S
C614 H584 0.950 . S
C614 C613 1.524 . S
C614 C615 1.415 . S
C615 H585 0.950 . S
C615 C610 1.363 . S
C615 C614 1.415 . S
H616 C613 0.999 . S
H617 C598 0.913 . S
H618 C636 0.951 . S
H619 C638 0.951 . S
H620 C640 0.950 . S
H621 C641 0.950 . S
H622 C643 0.950 . S
H623 C646 0.950 . S
H624 C647 0.950 . S
H625 C649 0.950 . S
H626 C650 0.950 . S
H627 C651 0.951 . S
H628 C653 0.951 . S
H629 C655 0.950 . S
H630 C656 0.950 . S
H631 C658 0.950 . S
H632 C661 0.950 . S
H633 C662 0.950 . S
H634 C664 0.950 . S
H635 C665 0.950 . S
C636 H618 0.951 . S
C636 C637 1.366 . S
C636 C638 1.388 . S
C637 C636 1.366 . S
C637 C641 1.385 . S
C638 H619 0.951 . S
C638 C636 1.388 . S
C638 C639 1.366 . S
C639 C638 1.366 . S
C639 C640 1.414 . S
C639 C642 1.499 . S
C640 H620 0.950 . S
C640 C639 1.414 . S
C640 C641 1.374 . S
C641 H621 0.950 . S
C641 C637 1.385 . S
C641 C640 1.374 . S
C642 C639 1.499 . S
C642 C643 1.373 . S
C642 C644 1.389 . S
C643 H622 0.950 . S
C643 C642 1.373 . S
C643 C659 1.377 . S
C644 C642 1.389 . S
C644 C645 1.524 . S
C644 C658 1.377 . S
C645 C644 1.524 . S
C645 C646 1.397 . S
C645 C650 1.363 . S
C646 H623 0.950 . S
C646 C645 1.397 . S
C646 C647 1.334 . S
C647 H624 0.950 . S
C647 C646 1.334 . S
C647 C648 1.287 . S
C648 C647 1.287 . S
C648 C649 1.524 . S
C648 H667 0.913 . S
C649 H625 0.950 . S
C649 C648 1.524 . S
C649 C650 1.415 . S
C650 H626 0.950 . S
C650 C645 1.363 . S
C650 C649 1.415 . S
C651 H627 0.951 . S
C651 C652 1.366 . S
C651 C653 1.388 . S
C652 C651 1.366 . S
C652 C656 1.385 . S
C653 H628 0.951 . S
C653 C651 1.388 . S
C653 C654 1.366 . S
C654 C653 1.366 . S
C654 C655 1.414 . S
C654 C657 1.499 . S
C655 H629 0.950 . S
C655 C654 1.414 . S
C655 C656 1.374 . S
C656 H630 0.950 . S
C656 C652 1.385 . S
C656 C655 1.374 . S
C657 C654 1.499 . S
C657 C658 1.373 . S
C657 C659 1.389 . S
C658 H631 0.950 . S
C658 C644 1.377 . S
C658 C657 1.373 . S
C659 C643 1.377 . S
C659 C657 1.389 . S
C659 C660 1.524 . S
C660 C659 1.524 . S
C660 C661 1.397 . S
C660 C665 1.363 . S
C661 H632 0.950 . S
C661 C660 1.397 . S
C661 C662 1.334 . S
C662 H633 0.950 . S
C662 C661 1.334 . S
C662 C663 1.287 . S
C663 C662 1.287 . S
C663 C664 1.524 . S
C663 H666 0.999 . S
C664 H634 0.950 . S
C664 C663 1.524 . S
C664 C665 1.415 . S
C665 H635 0.950 . S
C665 C660 1.363 . S
C665 C664 1.415 . S
H666 C663 0.999 . S
H667 C648 0.913 . S
H668 C686 0.951 . S
H669 C688 0.951 . S
H670 C690 0.950 . S
H671 C691 0.950 . S
H672 C693 0.950 . S
H673 C696 0.950 . S
H674 C697 0.950 . S
H675 C699 0.950 . S
H676 C700 0.950 . S
H677 C701 0.951 . S
H678 C703 0.951 . S
H679 C705 0.950 . S
H680 C706 0.950 . S
H681 C708 0.950 . S
H682 C711 0.950 . S
H683 C712 0.950 . S
H684 C714 0.950 1_655 S
H685 C715 0.950 . S
C686 H668 0.951 . S
C686 C687 1.366 . S
C686 C688 1.388 . S
C687 C686 1.366 . S
C687 C691 1.385 . S
C688 H669 0.951 . S
C688 C686 1.388 . S
C688 C689 1.366 . S
C689 C688 1.366 . S
C689 C690 1.414 . S
C689 C692 1.499 . S
C690 H670 0.950 . S
C690 C689 1.414 . S
C690 C691 1.374 . S
C691 H671 0.950 . S
C691 C687 1.385 . S
C691 C690 1.374 . S
C692 C689 1.499 . S
C692 C693 1.373 . S
C692 C694 1.389 . S
C693 H672 0.950 . S
C693 C692 1.373 . S
C693 C709 1.377 . S
C694 C692 1.389 . S
C694 C695 1.524 . S
C694 C708 1.377 . S
C695 C694 1.524 . S
C695 C696 1.397 . S
C695 C700 1.363 . S
C696 H673 0.950 . S
C696 C695 1.397 . S
C696 C697 1.334 . S
C697 H674 0.950 . S
C697 C696 1.334 . S
C697 C698 1.287 . S
C698 C697 1.287 . S
C698 C699 1.524 . S
C698 H717 0.913 . S
C699 H675 0.950 . S
C699 C698 1.524 . S
C699 C700 1.415 . S
C700 H676 0.950 . S
C700 C695 1.363 . S
C700 C699 1.415 . S
C701 H677 0.951 . S
C701 C702 1.366 . S
C701 C703 1.388 . S
C702 C701 1.366 . S
C702 C706 1.385 . S
C703 H678 0.951 . S
C703 C701 1.388 . S
C703 C704 1.366 . S
C704 C703 1.366 . S
C704 C705 1.414 . S
C704 C707 1.499 . S
C705 H679 0.950 . S
C705 C704 1.414 . S
C705 C706 1.374 . S
C706 H680 0.950 . S
C706 C702 1.385 . S
C706 C705 1.374 . S
C707 C704 1.499 . S
C707 C708 1.373 . S
C707 C709 1.389 . S
C708 H681 0.950 . S
C708 C694 1.377 . S
C708 C707 1.373 . S
C709 C693 1.377 . S
C709 C707 1.389 . S
C709 C710 1.524 . S
C710 C709 1.524 . S
C710 C711 1.397 . S
C710 C715 1.363 . S
C711 H682 0.950 . S
C711 C710 1.397 . S
C711 C712 1.334 . S
C712 H683 0.950 . S
C712 C711 1.334 . S
C712 C713 1.287 . S
C713 C712 1.287 . S
C713 C714 1.524 . S
C713 H716 0.999 1_455 S
C714 H684 0.950 1_455 S
C714 C713 1.524 . S
C714 C715 1.415 . S
C715 H685 0.950 . S
C715 C710 1.363 . S
C715 C714 1.415 . S
H716 C713 0.999 1_655 S
H717 C698 0.913 . S
H718 C736 0.951 . S
H719 C738 0.951 . S
H720 C740 0.950 . S
H721 C741 0.950 . S
H722 C743 0.950 . S
H723 C746 0.950 . S
H724 C747 0.950 . S
H725 C749 0.950 . S
H726 C750 0.950 . S
H727 C751 0.951 . S
H728 C753 0.951 . S
H729 C755 0.950 . S
H730 C756 0.950 . S
H731 C758 0.950 . S
H732 C761 0.950 . S
H733 C762 0.950 . S
H734 C764 0.950 . S
H735 C765 0.950 . S
C736 H718 0.951 . S
C736 C737 1.366 . S
C736 C738 1.388 . S
C737 C736 1.366 . S
C737 C741 1.385 . S
C738 H719 0.951 . S
C738 C736 1.388 . S
C738 C739 1.366 . S
C739 C738 1.366 . S
C739 C740 1.414 . S
C739 C742 1.499 . S
C740 H720 0.950 . S
C740 C739 1.414 . S
C740 C741 1.374 . S
C741 H721 0.950 . S
C741 C737 1.385 . S
C741 C740 1.374 . S
C742 C739 1.499 . S
C742 C743 1.373 . S
C742 C744 1.389 . S
C743 H722 0.950 . S
C743 C742 1.373 . S
C743 C759 1.377 . S
C744 C742 1.389 . S
C744 C745 1.524 . S
C744 C758 1.377 . S
C745 C744 1.524 . S
C745 C746 1.397 . S
C745 C750 1.363 . S
C746 H723 0.950 . S
C746 C745 1.397 . S
C746 C747 1.334 . S
C747 H724 0.950 . S
C747 C746 1.334 . S
C747 C748 1.287 . S
C748 C747 1.287 . S
C748 C749 1.524 . S
C748 H767 0.913 . S
C749 H725 0.950 . S
C749 C748 1.524 . S
C749 C750 1.415 . S
C750 H726 0.950 . S
C750 C745 1.363 . S
C750 C749 1.415 . S
C751 H727 0.951 . S
C751 C752 1.366 . S
C751 C753 1.388 . S
C752 C751 1.366 . S
C752 C756 1.385 . S
C753 H728 0.951 . S
C753 C751 1.388 . S
C753 C754 1.366 . S
C754 C753 1.366 . S
C754 C755 1.414 . S
C754 C757 1.499 . S
C755 H729 0.950 . S
C755 C754 1.414 . S
C755 C756 1.374 . S
C756 H730 0.950 . S
C756 C752 1.385 . S
C756 C755 1.374 . S
C757 C754 1.499 . S
C757 C758 1.373 . S
C757 C759 1.389 . S
C758 H731 0.950 . S
C758 C744 1.377 . S
C758 C757 1.373 . S
C759 C743 1.377 . S
C759 C757 1.389 . S
C759 C760 1.524 . S
C760 C759 1.524 . S
C760 C761 1.397 . S
C760 C765 1.363 . S
C761 H732 0.950 . S
C761 C760 1.397 . S
C761 C762 1.334 . S
C762 H733 0.950 . S
C762 C761 1.334 . S
C762 C763 1.287 . S
C763 C762 1.287 . S
C763 C764 1.524 . S
C763 H766 0.999 . S
C764 H734 0.950 . S
C764 C763 1.524 . S
C764 C765 1.415 . S
C765 H735 0.950 . S
C765 C760 1.363 . S
C765 C764 1.415 . S
H766 C763 0.999 . S
H767 C748 0.913 . S
H768 C786 0.951 . S
H769 C788 0.951 . S
H770 C790 0.950 . S
H771 C791 0.950 . S
H772 C793 0.950 . S
H773 C796 0.950 . S
H774 C797 0.950 . S
H775 C799 0.950 . S
H776 C800 0.950 . S
H777 C801 0.951 . S
H778 C803 0.951 . S
H779 C805 0.950 . S
H780 C806 0.950 . S
H781 C808 0.950 . S
H782 C811 0.950 . S
H783 C812 0.950 . S
H784 C814 0.950 . S
H785 C815 0.950 . S
C786 H768 0.951 . S
C786 C787 1.366 . S
C786 C788 1.388 . S
C787 C786 1.366 . S
C787 C791 1.385 . S
C788 H769 0.951 . S
C788 C786 1.388 . S
C788 C789 1.366 . S
C789 C788 1.366 . S
C789 C790 1.414 . S
C789 C792 1.499 . S
C790 H770 0.950 . S
C790 C789 1.414 . S
C790 C791 1.374 . S
C791 H771 0.950 . S
C791 C787 1.385 . S
C791 C790 1.374 . S
C792 C789 1.499 . S
C792 C793 1.373 . S
C792 C794 1.389 . S
C793 H772 0.950 . S
C793 C792 1.373 . S
C793 C809 1.377 . S
C794 C792 1.389 . S
C794 C795 1.524 . S
C794 C808 1.377 . S
C795 C794 1.524 . S
C795 C796 1.397 . S
C795 C800 1.363 . S
C796 H773 0.950 . S
C796 C795 1.397 . S
C796 C797 1.334 . S
C797 H774 0.950 . S
C797 C796 1.334 . S
C797 C798 1.287 . S
C798 C797 1.287 . S
C798 C799 1.524 . S
C798 H817 0.913 . S
C799 H775 0.950 . S
C799 C798 1.524 . S
C799 C800 1.415 . S
C800 H776 0.950 . S
C800 C795 1.363 . S
C800 C799 1.415 . S
C801 H777 0.951 . S
C801 C802 1.366 . S
C801 C803 1.388 . S
C802 C801 1.366 . S
C802 C806 1.385 . S
C803 H778 0.951 . S
C803 C801 1.388 . S
C803 C804 1.366 . S
C804 C803 1.366 . S
C804 C805 1.414 . S
C804 C807 1.499 . S
C805 H779 0.950 . S
C805 C804 1.414 . S
C805 C806 1.374 . S
C806 H780 0.950 . S
C806 C802 1.385 . S
C806 C805 1.374 . S
C807 C804 1.499 . S
C807 C808 1.373 . S
C807 C809 1.389 . S
C808 H781 0.950 . S
C808 C794 1.377 . S
C808 C807 1.373 . S
C809 C793 1.377 . S
C809 C807 1.389 . S
C809 C810 1.524 . S
C810 C809 1.524 . S
C810 C811 1.397 . S
C810 C815 1.363 . S
C811 H782 0.950 . S
C811 C810 1.397 . S
C811 C812 1.334 . S
C812 H783 0.950 . S
C812 C811 1.334 . S
C812 C813 1.287 . S
C813 C812 1.287 . S
C813 C814 1.524 . S
C813 H816 0.999 . S
C814 H784 0.950 . S
C814 C813 1.524 . S
C814 C815 1.415 . S
C815 H785 0.950 . S
C815 C810 1.363 . S
C815 C814 1.415 . S
H816 C813 0.999 . S
H817 C798 0.913 . S
H818 C836 0.951 . S
H819 C838 0.951 . S
H820 C840 0.950 . S
H821 C841 0.950 . S
H822 C843 0.950 . S
H823 C846 0.950 . S
H824 C847 0.950 . S
H825 C849 0.950 . S
H826 C850 0.950 . S
H827 C851 0.951 . S
H828 C853 0.951 . S
H829 C855 0.950 . S
H830 C856 0.950 . S
H831 C858 0.950 . S
H832 C861 0.950 . S
H833 C862 0.976 . S
H834 C864 0.950 . S
H835 C865 0.950 . S
C836 H818 0.951 . S
C836 C837 1.366 . S
C836 C838 1.388 . S
C837 C836 1.366 . S
C837 C841 1.385 . S
C838 H819 0.951 . S
C838 C836 1.388 . S
C838 C839 1.366 . S
C839 C838 1.366 . S
C839 C840 1.414 . S
C839 C842 1.499 . S
C840 H820 0.950 . S
C840 C839 1.414 . S
C840 C841 1.374 . S
C841 H821 0.950 . S
C841 C837 1.385 . S
C841 C840 1.374 . S
C842 C839 1.499 . S
C842 C843 1.373 . S
C842 C844 1.389 . S
C843 H822 0.950 . S
C843 C842 1.373 . S
C843 C859 1.377 . S
C844 C842 1.389 . S
C844 C845 1.524 . S
C844 C858 1.377 . S
C845 C844 1.524 . S
C845 C846 1.397 . S
C845 C850 1.363 . S
C846 H823 0.950 . S
C846 C845 1.397 . S
C846 C847 1.334 . S
C847 H824 0.950 . S
C847 C846 1.334 . S
C847 C848 1.287 . S
C848 C847 1.287 . S
C848 C849 1.524 . S
C848 H867 0.913 . S
C849 H825 0.950 . S
C849 C848 1.524 . S
C849 C850 1.415 . S
C850 H826 0.950 . S
C850 C845 1.363 . S
C850 C849 1.415 . S
C851 H827 0.951 . S
C851 C852 1.366 . S
C851 C853 1.388 . S
C852 C851 1.366 . S
C852 C856 1.385 . S
C853 H828 0.951 . S
C853 C851 1.388 . S
C853 C854 1.366 . S
C854 C853 1.366 . S
C854 C855 1.414 . S
C854 C857 1.499 . S
C855 H829 0.950 . S
C855 C854 1.414 . S
C855 C856 1.374 . S
C856 H830 0.950 . S
C856 C852 1.385 . S
C856 C855 1.374 . S
C857 C854 1.499 . S
C857 C858 1.373 . S
C857 C859 1.389 . S
C858 H831 0.950 . S
C858 C844 1.377 . S
C858 C857 1.373 . S
C859 C843 1.377 . S
C859 C857 1.389 . S
C859 C860 1.524 . S
C860 C859 1.524 . S
C860 C861 1.397 . S
C860 C865 1.363 . S
C861 H832 0.950 . S
C861 C860 1.397 . S
C861 C862 1.296 1_655 S
C862 H833 0.976 . S
C862 C861 1.296 1_455 S
C862 C863 1.299 . S
C863 C862 1.299 . S
C863 C864 1.524 1_455 S
C863 H866 0.999 . S
C864 H834 0.950 . S
C864 C863 1.524 1_655 S
C864 C865 1.415 . S
C865 H835 0.950 . S
C865 C860 1.363 . S
C865 C864 1.415 . S
H866 C863 0.999 . S
H867 C848 0.913 . S
H868 C886 0.951 . S
H869 C888 0.951 . S
H870 C890 0.950 . S
H871 C891 0.950 . S
H872 C893 0.950 . S
H873 C896 0.950 . S
H874 C897 0.950 . S
H875 C899 0.950 . S
H876 C900 0.950 . S
H877 C901 0.951 . S
H878 C903 0.951 . S
H879 C905 0.950 . S
H880 C906 0.950 . S
H881 C908 0.950 . S
H882 C911 0.950 . S
H883 C912 0.950 . S
H884 C914 0.950 . S
H885 C915 0.950 . S
C886 H868 0.951 . S
C886 C887 1.366 . S
C886 C888 1.388 . S
C887 C886 1.366 . S
C887 C891 1.385 . S
C888 H869 0.951 . S
C888 C886 1.388 . S
C888 C889 1.366 . S
C889 C888 1.366 . S
C889 C890 1.414 . S
C889 C892 1.499 . S
C890 H870 0.950 . S
C890 C889 1.414 . S
C890 C891 1.374 . S
C891 H871 0.950 . S
C891 C887 1.385 . S
C891 C890 1.374 . S
C892 C889 1.499 . S
C892 C893 1.373 . S
C892 C894 1.389 . S
C893 H872 0.950 . S
C893 C892 1.373 . S
C893 C909 1.377 . S
C894 C892 1.389 . S
C894 C895 1.524 . S
C894 C908 1.377 . S
C895 C894 1.524 . S
C895 C896 1.397 . S
C895 C900 1.363 . S
C896 H873 0.950 . S
C896 C895 1.397 . S
C896 C897 1.334 . S
C897 H874 0.950 . S
C897 C896 1.334 . S
C897 C898 1.287 . S
C898 C897 1.287 . S
C898 C899 1.524 . S
C898 H917 0.913 . S
C899 H875 0.950 . S
C899 C898 1.524 . S
C899 C900 1.415 . S
C900 H876 0.950 . S
C900 C895 1.363 . S
C900 C899 1.415 . S
C901 H877 0.951 . S
C901 C902 1.366 . S
C901 C903 1.388 . S
C902 C901 1.366 . S
C902 C906 1.385 . S
C903 H878 0.951 . S
C903 C901 1.388 . S
C903 C904 1.366 . S
C904 C903 1.366 . S
C904 C905 1.414 . S
C904 C907 1.499 . S
C905 H879 0.950 . S
C905 C904 1.414 . S
C905 C906 1.374 . S
C906 H880 0.950 . S
C906 C902 1.385 . S
C906 C905 1.374 . S
C907 C904 1.499 . S
C907 C908 1.373 . S
C907 C909 1.389 . S
C908 H881 0.950 . S
C908 C894 1.377 . S
C908 C907 1.373 . S
C909 C893 1.377 . S
C909 C907 1.389 . S
C909 C910 1.524 . S
C910 C909 1.524 . S
C910 C911 1.397 . S
C910 C915 1.363 . S
C911 H882 0.950 . S
C911 C910 1.397 . S
C911 C912 1.334 . S
C912 H883 0.950 . S
C912 C911 1.334 . S
C912 C913 1.287 . S
C913 C912 1.287 . S
C913 C914 1.524 . S
C913 H916 0.999 . S
C914 H884 0.950 . S
C914 C913 1.524 . S
C914 C915 1.415 . S
C915 H885 0.950 . S
C915 C910 1.363 . S
C915 C914 1.415 . S
H916 C913 0.999 . S
H917 C898 0.913 . S
H918 C936 0.951 . S
H919 C938 0.951 . S
H920 C940 0.950 . S
H921 C941 0.950 . S
H922 C943 0.950 . S
H923 C946 0.950 . S
H924 C947 0.950 . S
H925 C949 0.950 . S
H926 C950 0.950 . S
H927 C951 0.951 . S
H928 C953 0.951 . S
H929 C955 0.950 . S
H930 C956 0.950 . S
H931 C958 0.950 . S
H932 C961 0.950 . S
H933 C962 0.950 1_556 S
H934 C964 0.950 . S
H935 C965 0.950 . S
C936 H918 0.951 . S
C936 C937 1.366 . S
C936 C938 1.388 . S
C937 C936 1.366 . S
C937 C941 1.385 . S
C938 H919 0.951 . S
C938 C936 1.388 . S
C938 C939 1.366 . S
C939 C938 1.366 . S
C939 C940 1.414 . S
C939 C942 1.499 . S
C940 H920 0.950 . S
C940 C939 1.414 . S
C940 C941 1.374 . S
C941 H921 0.950 . S
C941 C937 1.385 . S
C941 C940 1.374 . S
C942 C939 1.499 . S
C942 C943 1.373 . S
C942 C944 1.389 . S
C943 H922 0.950 . S
C943 C942 1.373 . S
C943 C959 1.377 . S
C944 C942 1.389 . S
C944 C945 1.524 . S
C944 C958 1.377 . S
C945 C944 1.524 . S
C945 C946 1.397 . S
C945 C950 1.363 . S
C946 H923 0.950 . S
C946 C945 1.397 . S
C946 C947 1.334 . S
C947 H924 0.950 . S
C947 C946 1.334 . S
C947 C948 1.287 . S
C948 C947 1.287 . S
C948 C949 1.524 . S
C948 H967 0.913 . S
C949 H925 0.950 . S
C949 C948 1.524 . S
C949 C950 1.415 . S
C950 H926 0.950 . S
C950 C945 1.363 . S
C950 C949 1.415 . S
C951 H927 0.951 . S
C951 C952 1.366 . S
C951 C953 1.388 . S
C952 C951 1.366 . S
C952 C956 1.385 . S
C953 H928 0.951 . S
C953 C951 1.388 . S
C953 C954 1.366 . S
C954 C953 1.366 . S
C954 C955 1.414 . S
C954 C957 1.499 . S
C955 H929 0.950 . S
C955 C954 1.414 . S
C955 C956 1.374 . S
C956 H930 0.950 . S
C956 C952 1.385 . S
C956 C955 1.374 . S
C957 C954 1.499 . S
C957 C958 1.373 . S
C957 C959 1.389 . S
C958 H931 0.950 . S
C958 C944 1.377 . S
C958 C957 1.373 . S
C959 C943 1.377 . S
C959 C957 1.389 . S
C959 C960 1.524 . S
C960 C959 1.524 . S
C960 C961 1.397 . S
C960 C965 1.363 . S
C961 H932 0.950 . S
C961 C960 1.397 . S
C961 C962 1.334 . S
C962 H933 0.950 1_554 S
C962 C961 1.334 . S
C962 C963 1.287 . S
C963 C962 1.287 . S
C963 C964 1.524 . S
C963 H966 0.999 1_554 S
C964 H934 0.950 . S
C964 C963 1.524 . S
C964 C965 1.415 . S
C965 H935 0.950 . S
C965 C960 1.363 . S
C965 C964 1.415 . S
H966 C963 0.999 1_556 S
H967 C948 0.913 . S
H968 C986 0.951 . S
H969 C988 0.951 . S
H970 C990 0.950 . S
H971 C991 0.950 . S
H972 C993 0.950 . S
H973 C996 0.950 . S
H974 C997 0.950 . S
H975 C999 0.950 . S
H976 C1000 0.950 . S
H977 C1001 0.951 . S
H978 C1003 0.951 . S
H979 C1005 0.950 . S
H980 C1006 0.950 . S
H981 C1008 0.950 . S
H982 C1011 0.950 . S
H983 C1012 0.950 . S
H984 C1014 0.950 . S
H985 C1015 0.950 . S
C986 H968 0.951 . S
C986 C987 1.366 . S
C986 C988 1.388 . S
C987 C986 1.366 . S
C987 C991 1.385 . S
C988 H969 0.951 . S
C988 C986 1.388 . S
C988 C989 1.366 . S
C989 C988 1.366 . S
C989 C990 1.414 . S
C989 C992 1.499 . S
C990 H970 0.950 . S
C990 C989 1.414 . S
C990 C991 1.374 . S
C991 H971 0.950 . S
C991 C987 1.385 . S
C991 C990 1.374 . S
C992 C989 1.499 . S
C992 C993 1.373 . S
C992 C994 1.389 . S
C993 H972 0.950 . S
C993 C992 1.373 . S
C993 C1009 1.377 . S
C994 C992 1.389 . S
C994 C995 1.524 . S
C994 C1008 1.377 . S
C995 C994 1.524 . S
C995 C996 1.397 . S
C995 C1000 1.363 . S
C996 H973 0.950 . S
C996 C995 1.397 . S
C996 C997 1.334 . S
C997 H974 0.950 . S
C997 C996 1.334 . S
C997 C998 1.287 . S
C998 C997 1.287 . S
C998 C999 1.524 . S
C998 H1017 0.913 . S
C999 H975 0.950 . S
C999 C998 1.524 . S
C999 C1000 1.415 . S
C1000 H976 0.950 . S
C1000 C995 1.363 . S
C1000 C999 1.415 . S
C1001 H977 0.951 . S
C1001 C1002 1.366 . S
C1001 C1003 1.388 . S
C1002 C1001 1.366 . S
C1002 C1006 1.385 . S
C1003 H978 0.951 . S
C1003 C1001 1.388 . S
C1003 C1004 1.366 . S
C1004 C1003 1.366 . S
C1004 C1005 1.414 . S
C1004 C1007 1.499 . S
C1005 H979 0.950 . S
C1005 C1004 1.414 . S
C1005 C1006 1.374 . S
C1006 H980 0.950 . S
C1006 C1002 1.385 . S
C1006 C1005 1.374 . S
C1007 C1004 1.499 . S
C1007 C1008 1.373 . S
C1007 C1009 1.389 . S
C1008 H981 0.950 . S
C1008 C994 1.377 . S
C1008 C1007 1.373 . S
C1009 C993 1.377 . S
C1009 C1007 1.389 . S
C1009 C1010 1.524 . S
C1010 C1009 1.524 . S
C1010 C1011 1.397 . S
C1010 C1015 1.363 . S
C1011 H982 0.950 . S
C1011 C1010 1.397 . S
C1011 C1012 1.334 . S
C1012 H983 0.950 . S
C1012 C1011 1.334 . S
C1012 C1013 1.287 . S
C1013 C1012 1.287 . S
C1013 C1014 1.524 . S
C1013 H1016 0.999 . S
C1014 H984 0.950 . S
C1014 C1013 1.524 . S
C1014 C1015 1.415 . S
C1015 H985 0.950 . S
C1015 C1010 1.363 . S
C1015 C1014 1.415 . S
H1016 C1013 0.999 . S
H1017 C998 0.913 . S
H1018 C1036 0.951 . S
H1019 C1038 0.951 . S
H1020 C1040 0.950 . S
H1021 C1041 0.950 . S
H1022 C1043 0.950 . S
H1023 C1046 0.950 . S
H1024 C1047 0.950 . S
H1025 C1049 0.950 . S
H1026 C1050 0.950 . S
H1027 C1051 0.951 . S
H1028 C1053 0.951 . S
H1029 C1055 0.950 . S
H1030 C1056 0.950 . S
H1031 C1058 0.950 . S
H1032 C1061 0.950 . S
H1033 C1062 0.950 . S
H1034 C1064 0.950 . S
H1035 C1065 0.943 1_554 S
C1036 H1018 0.951 . S
C1036 C1037 1.366 . S
C1036 C1038 1.388 . S
C1037 C1036 1.366 . S
C1037 C1041 1.385 . S
C1038 H1019 0.951 . S
C1038 C1036 1.388 . S
C1038 C1039 1.366 . S
C1039 C1038 1.366 . S
C1039 C1040 1.414 . S
C1039 C1042 1.499 . S
C1040 H1020 0.950 . S
C1040 C1039 1.414 . S
C1040 C1041 1.374 . S
C1041 H1021 0.950 . S
C1041 C1037 1.385 . S
C1041 C1040 1.374 . S
C1042 C1039 1.499 . S
C1042 C1043 1.373 . S
C1042 C1044 1.389 . S
C1043 H1022 0.950 . S
C1043 C1042 1.373 . S
C1043 C1059 1.377 . S
C1044 C1042 1.389 . S
C1044 C1045 1.524 . S
C1044 C1058 1.377 . S
C1045 C1044 1.524 . S
C1045 C1046 1.397 . S
C1045 C1050 1.363 . S
C1046 H1023 0.950 . S
C1046 C1045 1.397 . S
C1046 C1047 1.334 . S
C1047 H1024 0.950 . S
C1047 C1046 1.334 . S
C1047 C1048 1.287 . S
C1048 C1047 1.287 . S
C1048 C1049 1.524 . S
C1048 H1067 0.913 . S
C1049 H1025 0.950 . S
C1049 C1048 1.524 . S
C1049 C1050 1.415 . S
C1050 H1026 0.950 . S
C1050 C1045 1.363 . S
C1050 C1049 1.415 . S
C1051 H1027 0.951 . S
C1051 C1052 1.366 . S
C1051 C1053 1.388 . S
C1052 C1051 1.366 . S
C1052 C1056 1.385 . S
C1053 H1028 0.951 . S
C1053 C1051 1.388 . S
C1053 C1054 1.366 . S
C1054 C1053 1.366 . S
C1054 C1055 1.414 . S
C1054 C1057 1.499 . S
C1055 H1029 0.950 . S
C1055 C1054 1.414 . S
C1055 C1056 1.374 . S
C1056 H1030 0.950 . S
C1056 C1052 1.385 . S
C1056 C1055 1.374 . S
C1057 C1054 1.499 . S
C1057 C1058 1.373 . S
C1057 C1059 1.389 . S
C1058 H1031 0.950 . S
C1058 C1044 1.377 . S
C1058 C1057 1.373 . S
C1059 C1043 1.377 . S
C1059 C1057 1.389 . S
C1059 C1060 1.524 . S
C1060 C1059 1.524 . S
C1060 C1061 1.397 . S
C1060 C1065 1.346 1_554 S
C1061 H1032 0.950 . S
C1061 C1060 1.397 . S
C1061 C1062 1.334 1_554 S
C1062 H1033 0.950 . S
C1062 C1061 1.334 1_556 S
C1062 C1063 1.287 . S
C1063 C1062 1.287 . S
C1063 C1064 1.524 . S
C1063 H1066 0.999 . S
C1064 H1034 0.950 . S
C1064 C1063 1.524 . S
C1064 C1065 1.439 . S
C1065 H1035 0.943 1_556 S
C1065 C1060 1.346 1_556 S
C1065 C1064 1.439 . S
H1066 C1063 0.999 . S
H1067 C1048 0.913 . S
H1068 C1086 0.951 . S
H1069 C1088 0.951 . S
H1070 C1090 0.950 . S
H1071 C1091 0.950 . S
H1072 C1093 0.950 . S
H1073 C1096 0.950 . S
H1074 C1097 0.950 . S
H1075 C1099 0.950 . S
H1076 C1100 0.950 . S
H1077 C1101 0.951 . S
H1078 C1103 0.951 . S
H1079 C1105 0.950 . S
H1080 C1106 0.950 . S
H1081 C1108 0.950 . S
H1082 C1111 0.950 . S
H1083 C1112 0.950 . S
H1084 C1114 0.950 . S
H1085 C1115 0.950 . S
C1086 H1068 0.951 . S
C1086 C1087 1.366 . S
C1086 C1088 1.388 . S
C1087 C1086 1.366 . S
C1087 C1091 1.385 . S
C1088 H1069 0.951 . S
C1088 C1086 1.388 . S
C1088 C1089 1.366 . S
C1089 C1088 1.366 . S
C1089 C1090 1.414 . S
C1089 C1092 1.499 . S
C1090 H1070 0.950 . S
C1090 C1089 1.414 . S
C1090 C1091 1.374 . S
C1091 H1071 0.950 . S
C1091 C1087 1.385 . S
C1091 C1090 1.374 . S
C1092 C1089 1.499 . S
C1092 C1093 1.373 . S
C1092 C1094 1.389 . S
C1093 H1072 0.950 . S
C1093 C1092 1.373 . S
C1093 C1109 1.377 . S
C1094 C1092 1.389 . S
C1094 C1095 1.524 . S
C1094 C1108 1.377 . S
C1095 C1094 1.524 . S
C1095 C1096 1.397 . S
C1095 C1100 1.363 . S
C1096 H1073 0.950 . S
C1096 C1095 1.397 . S
C1096 C1097 1.334 . S
C1097 H1074 0.950 . S
C1097 C1096 1.334 . S
C1097 C1098 1.287 . S
C1098 C1097 1.287 . S
C1098 C1099 1.524 . S
C1098 H1117 0.913 . S
C1099 H1075 0.950 . S
C1099 C1098 1.524 . S
C1099 C1100 1.415 . S
C1100 H1076 0.950 . S
C1100 C1095 1.363 . S
C1100 C1099 1.415 . S
C1101 H1077 0.951 . S
C1101 C1102 1.366 . S
C1101 C1103 1.388 . S
C1102 C1101 1.366 . S
C1102 C1106 1.385 . S
C1103 H1078 0.951 . S
C1103 C1101 1.388 . S
C1103 C1104 1.366 . S
C1104 C1103 1.366 . S
C1104 C1105 1.414 . S
C1104 C1107 1.499 . S
C1105 H1079 0.950 . S
C1105 C1104 1.414 . S
C1105 C1106 1.374 . S
C1106 H1080 0.950 . S
C1106 C1102 1.385 . S
C1106 C1105 1.374 . S
C1107 C1104 1.499 . S
C1107 C1108 1.373 . S
C1107 C1109 1.389 . S
C1108 H1081 0.950 . S
C1108 C1094 1.377 . S
C1108 C1107 1.373 . S
C1109 C1093 1.377 . S
C1109 C1107 1.389 . S
C1109 C1110 1.524 . S
C1110 C1109 1.524 . S
C1110 C1111 1.397 . S
C1110 C1115 1.363 . S
C1111 H1082 0.950 . S
C1111 C1110 1.397 . S
C1111 C1112 1.334 . S
C1112 H1083 0.950 . S
C1112 C1111 1.334 . S
C1112 C1113 1.287 . S
C1113 C1112 1.287 . S
C1113 C1114 1.524 . S
C1113 H1116 0.999 . S
C1114 H1084 0.950 . S
C1114 C1113 1.524 . S
C1114 C1115 1.415 . S
C1115 H1085 0.950 . S
C1115 C1110 1.363 . S
C1115 C1114 1.415 . S
H1116 C1113 0.999 . S
H1117 C1098 0.913 . S
H1118 C1136 0.951 . S
H1119 C1138 0.951 . S
H1120 C1140 0.950 . S
H1121 C1141 0.950 . S
H1122 C1143 0.950 . S
H1123 C1146 0.950 . S
H1124 C1147 0.950 . S
H1125 C1149 0.950 . S
H1126 C1150 0.950 . S
H1127 C1151 0.951 . S
H1128 C1153 0.951 . S
H1129 C1155 0.950 . S
H1130 C1156 0.950 . S
H1131 C1158 0.950 . S
H1132 C1161 0.950 . S
H1133 C1162 0.950 . S
H1134 C1164 0.950 . S
H1135 C1165 0.950 . S
C1136 H1118 0.951 . S
C1136 C1137 1.366 . S
C1136 C1138 1.388 . S
C1137 C1136 1.366 . S
C1137 C1141 1.385 . S
C1138 H1119 0.951 . S
C1138 C1136 1.388 . S
C1138 C1139 1.366 . S
C1139 C1138 1.366 . S
C1139 C1140 1.414 . S
C1139 C1142 1.499 . S
C1140 H1120 0.950 . S
C1140 C1139 1.414 . S
C1140 C1141 1.374 . S
C1141 H1121 0.950 . S
C1141 C1137 1.385 . S
C1141 C1140 1.374 . S
C1142 C1139 1.499 . S
C1142 C1143 1.373 . S
C1142 C1144 1.389 . S
C1143 H1122 0.950 . S
C1143 C1142 1.373 . S
C1143 C1159 1.377 . S
C1144 C1142 1.389 . S
C1144 C1145 1.524 . S
C1144 C1158 1.377 . S
C1145 C1144 1.524 . S
C1145 C1146 1.397 . S
C1145 C1150 1.363 . S
C1146 H1123 0.950 . S
C1146 C1145 1.397 . S
C1146 C1147 1.334 . S
C1147 H1124 0.950 . S
C1147 C1146 1.334 . S
C1147 C1148 1.287 . S
C1148 C1147 1.287 . S
C1148 C1149 1.524 . S
C1148 H1167 0.913 . S
C1149 H1125 0.950 . S
C1149 C1148 1.524 . S
C1149 C1150 1.415 . S
C1150 H1126 0.950 . S
C1150 C1145 1.363 . S
C1150 C1149 1.415 . S
C1151 H1127 0.951 . S
C1151 C1152 1.366 . S
C1151 C1153 1.388 . S
C1152 C1151 1.366 . S
C1152 C1156 1.385 . S
C1153 H1128 0.951 . S
C1153 C1151 1.388 . S
C1153 C1154 1.366 . S
C1154 C1153 1.366 . S
C1154 C1155 1.414 . S
C1154 C1157 1.499 . S
C1155 H1129 0.950 . S
C1155 C1154 1.414 . S
C1155 C1156 1.374 . S
C1156 H1130 0.950 . S
C1156 C1152 1.385 . S
C1156 C1155 1.374 . S
C1157 C1154 1.499 . S
C1157 C1158 1.373 . S
C1157 C1159 1.389 . S
C1158 H1131 0.950 . S
C1158 C1144 1.377 . S
C1158 C1157 1.373 . S
C1159 C1143 1.377 . S
C1159 C1157 1.389 . S
C1159 C1160 1.524 . S
C1160 C1159 1.524 . S
C1160 C1161 1.397 . S
C1160 C1165 1.363 . S
C1161 H1132 0.950 . S
C1161 C1160 1.397 . S
C1161 C1162 1.334 . S
C1162 H1133 0.950 . S
C1162 C1161 1.334 . S
C1162 C1163 1.287 . S
C1163 C1162 1.287 . S
C1163 C1164 1.524 . S
C1163 H1166 0.999 . S
C1164 H1134 0.950 . S
C1164 C1163 1.524 . S
C1164 C1165 1.415 . S
C1165 H1135 0.950 . S
C1165 C1160 1.363 . S
C1165 C1164 1.415 . S
H1166 C1163 0.999 . S
H1167 C1148 0.913 . S
H1168 C1186 0.951 . S
H1169 C1188 0.951 . S
H1170 C1190 0.950 . S
H1171 C1191 0.950 . S
H1172 C1193 0.950 . S
H1173 C1196 0.950 . S
H1174 C1197 0.950 . S
H1175 C1199 0.950 . S
H1176 C1200 0.950 . S
H1177 C1201 0.951 . S
H1178 C1203 0.951 . S
H1179 C1205 0.950 . S
H1180 C1206 0.950 . S
H1181 C1208 0.950 . S
H1182 C1211 0.950 . S
H1183 C1212 0.950 . S
H1184 C1214 0.950 . S
H1185 C1215 0.950 . S
C1186 H1168 0.951 . S
C1186 C1187 1.366 . S
C1186 C1188 1.388 . S
C1187 C1186 1.366 . S
C1187 C1191 1.385 . S
C1188 H1169 0.951 . S
C1188 C1186 1.388 . S
C1188 C1189 1.366 . S
C1189 C1188 1.366 . S
C1189 C1190 1.414 . S
C1189 C1192 1.499 . S
C1190 H1170 0.950 . S
C1190 C1189 1.414 . S
C1190 C1191 1.374 . S
C1191 H1171 0.950 . S
C1191 C1187 1.385 . S
C1191 C1190 1.374 . S
C1192 C1189 1.499 . S
C1192 C1193 1.373 . S
C1192 C1194 1.389 . S
C1193 H1172 0.950 . S
C1193 C1192 1.373 . S
C1193 C1209 1.377 . S
C1194 C1192 1.389 . S
C1194 C1195 1.524 . S
C1194 C1208 1.377 . S
C1195 C1194 1.524 . S
C1195 C1196 1.397 . S
C1195 C1200 1.363 . S
C1196 H1173 0.950 . S
C1196 C1195 1.397 . S
C1196 C1197 1.334 . S
C1197 H1174 0.950 . S
C1197 C1196 1.334 . S
C1197 C1198 1.287 . S
C1198 C1197 1.287 . S
C1198 C1199 1.524 . S
C1198 H1217 0.913 . S
C1199 H1175 0.950 . S
C1199 C1198 1.524 . S
C1199 C1200 1.415 . S
C1200 H1176 0.950 . S
C1200 C1195 1.363 . S
C1200 C1199 1.415 . S
C1201 H1177 0.951 . S
C1201 C1202 1.366 . S
C1201 C1203 1.388 . S
C1202 C1201 1.366 . S
C1202 C1206 1.385 . S
C1203 H1178 0.951 . S
C1203 C1201 1.388 . S
C1203 C1204 1.366 . S
C1204 C1203 1.366 . S
C1204 C1205 1.414 . S
C1204 C1207 1.499 . S
C1205 H1179 0.950 . S
C1205 C1204 1.414 . S
C1205 C1206 1.374 . S
C1206 H1180 0.950 . S
C1206 C1202 1.385 . S
C1206 C1205 1.374 . S
C1207 C1204 1.499 . S
C1207 C1208 1.373 . S
C1207 C1209 1.389 . S
C1208 H1181 0.950 . S
C1208 C1194 1.377 . S
C1208 C1207 1.373 . S
C1209 C1193 1.377 . S
C1209 C1207 1.389 . S
C1209 C1210 1.524 . S
C1210 C1209 1.524 . S
C1210 C1211 1.397 . S
C1210 C1215 1.363 . S
C1211 H1182 0.950 . S
C1211 C1210 1.397 . S
C1211 C1212 1.334 . S
C1212 H1183 0.950 . S
C1212 C1211 1.334 . S
C1212 C1213 1.287 . S
C1213 C1212 1.287 . S
C1213 C1214 1.524 . S
C1213 H1216 0.999 . S
C1214 H1184 0.950 . S
C1214 C1213 1.524 . S
C1214 C1215 1.415 . S
C1215 H1185 0.950 . S
C1215 C1210 1.363 . S
C1215 C1214 1.415 . S
H1216 C1213 0.999 . S
H1217 C1198 0.913 . S
H1218 C1236 0.951 . S
H1219 C1238 0.951 . S
H1220 C1240 0.950 . S
H1221 C1241 0.950 . S
H1222 C1243 0.950 . S
H1223 C1246 0.950 . S
H1224 C1247 0.950 . S
H1225 C1249 0.950 . S
H1226 C1250 0.950 . S
H1227 C1251 0.951 . S
H1228 C1253 0.951 . S
H1229 C1255 0.950 . S
H1230 C1256 0.950 . S
H1231 C1258 0.950 . S
H1232 C1261 0.950 . S
H1233 C1262 0.950 . S
H1234 C1264 0.950 . S
H1235 C1265 0.950 . S
C1236 H1218 0.951 . S
C1236 C1237 1.366 . S
C1236 C1238 1.388 . S
C1237 C1236 1.366 . S
C1237 C1241 1.385 . S
C1238 H1219 0.951 . S
C1238 C1236 1.388 . S
C1238 C1239 1.366 . S
C1239 C1238 1.366 . S
C1239 C1240 1.414 . S
C1239 C1242 1.499 . S
C1240 H1220 0.950 . S
C1240 C1239 1.414 . S
C1240 C1241 1.374 . S
C1241 H1221 0.950 . S
C1241 C1237 1.385 . S
C1241 C1240 1.374 . S
C1242 C1239 1.499 . S
C1242 C1243 1.373 . S
C1242 C1244 1.389 . S
C1243 H1222 0.950 . S
C1243 C1242 1.373 . S
C1243 C1259 1.377 . S
C1244 C1242 1.389 . S
C1244 C1245 1.524 . S
C1244 C1258 1.377 . S
C1245 C1244 1.524 . S
C1245 C1246 1.397 . S
C1245 C1250 1.363 . S
C1246 H1223 0.950 . S
C1246 C1245 1.397 . S
C1246 C1247 1.334 . S
C1247 H1224 0.950 . S
C1247 C1246 1.334 . S
C1247 C1248 1.287 . S
C1248 C1247 1.287 . S
C1248 C1249 1.524 . S
C1248 H1267 0.913 . S
C1249 H1225 0.950 . S
C1249 C1248 1.524 . S
C1249 C1250 1.415 . S
C1250 H1226 0.950 . S
C1250 C1245 1.363 . S
C1250 C1249 1.415 . S
C1251 H1227 0.951 . S
C1251 C1252 1.366 . S
C1251 C1253 1.388 . S
C1252 C1251 1.366 . S
C1252 C1256 1.385 . S
C1253 H1228 0.951 . S
C1253 C1251 1.388 . S
C1253 C1254 1.366 . S
C1254 C1253 1.366 . S
C1254 C1255 1.414 . S
C1254 C1257 1.499 . S
C1255 H1229 0.950 . S
C1255 C1254 1.414 . S
C1255 C1256 1.374 . S
C1256 H1230 0.950 . S
C1256 C1252 1.385 . S
C1256 C1255 1.374 . S
C1257 C1254 1.499 . S
C1257 C1258 1.373 . S
C1257 C1259 1.389 . S
C1258 H1231 0.950 . S
C1258 C1244 1.377 . S
C1258 C1257 1.373 . S
C1259 C1243 1.377 . S
C1259 C1257 1.389 . S
C1259 C1260 1.524 . S
C1260 C1259 1.524 . S
C1260 C1261 1.397 . S
C1260 C1265 1.363 . S
C1261 H1232 0.950 . S
C1261 C1260 1.397 . S
C1261 C1262 1.334 . S
C1262 H1233 0.950 . S
C1262 C1261 1.334 . S
C1262 C1263 1.287 . S
C1263 C1262 1.287 . S
C1263 C1264 1.524 . S
C1263 H1266 0.999 . S
C1264 H1234 0.950 . S
C1264 C1263 1.524 . S
C1264 C1265 1.415 . S
C1265 H1235 0.950 . S
C1265 C1260 1.363 . S
C1265 C1264 1.415 . S
H1266 C1263 0.999 . S
H1267 C1248 0.913 . S
H1268 C1286 0.951 . S
H1269 C1288 0.951 . S
H1270 C1290 0.950 . S
H1271 C1291 0.950 . S
H1272 C1293 0.950 . S
H1273 C1296 0.950 . S
H1274 C1297 0.950 . S
H1275 C1299 0.950 . S
H1276 C1300 0.950 . S
H1277 C1301 0.951 . S
H1278 C1303 0.951 . S
H1279 C1305 0.950 . S
H1280 C1306 0.950 1_554 S
H1281 C1308 0.950 . S
H1282 C1311 0.950 . S
H1283 C1312 0.950 . S
H1284 C1314 0.950 . S
H1285 C1315 0.950 . S
C1286 H1268 0.951 . S
C1286 C1287 1.366 . S
C1286 C1288 1.388 . S
C1287 C1286 1.366 . S
C1287 C1291 1.385 . S
C1288 H1269 0.951 . S
C1288 C1286 1.388 . S
C1288 C1289 1.366 . S
C1289 C1288 1.366 . S
C1289 C1290 1.414 . S
C1289 C1292 1.499 . S
C1290 H1270 0.950 . S
C1290 C1289 1.414 . S
C1290 C1291 1.374 . S
C1291 H1271 0.950 . S
C1291 C1287 1.385 . S
C1291 C1290 1.374 . S
C1292 C1289 1.499 . S
C1292 C1293 1.373 . S
C1292 C1294 1.389 . S
C1293 H1272 0.950 . S
C1293 C1292 1.373 . S
C1293 C1309 1.377 . S
C1294 C1292 1.389 . S
C1294 C1295 1.524 . S
C1294 C1308 1.377 . S
C1295 C1294 1.524 . S
C1295 C1296 1.397 . S
C1295 C1300 1.363 . S
C1296 H1273 0.950 . S
C1296 C1295 1.397 . S
C1296 C1297 1.334 . S
C1297 H1274 0.950 . S
C1297 C1296 1.334 . S
C1297 C1298 1.287 . S
C1298 C1297 1.287 . S
C1298 C1299 1.524 1_556 S
C1298 H1317 0.913 . S
C1299 H1275 0.950 . S
C1299 C1298 1.524 1_554 S
C1299 C1300 1.415 1_554 S
C1300 H1276 0.950 . S
C1300 C1295 1.363 . S
C1300 C1299 1.415 1_556 S
C1301 H1277 0.951 . S
C1301 C1302 1.366 . S
C1301 C1303 1.388 . S
C1302 C1301 1.366 . S
C1302 C1306 1.385 . S
C1303 H1278 0.951 . S
C1303 C1301 1.388 . S
C1303 C1304 1.366 . S
C1304 C1303 1.366 . S
C1304 C1305 1.414 . S
C1304 C1307 1.499 . S
C1305 H1279 0.950 . S
C1305 C1304 1.414 . S
C1305 C1306 1.374 . S
C1306 H1280 0.950 1_556 S
C1306 C1302 1.385 . S
C1306 C1305 1.374 . S
C1307 C1304 1.499 . S
C1307 C1308 1.373 . S
C1307 C1309 1.389 . S
C1308 H1281 0.950 . S
C1308 C1294 1.377 . S
C1308 C1307 1.373 . S
C1309 C1293 1.377 . S
C1309 C1307 1.389 . S
C1309 C1310 1.524 . S
C1310 C1309 1.524 . S
C1310 C1311 1.397 . S
C1310 C1315 1.363 . S
C1311 H1282 0.950 . S
C1311 C1310 1.397 . S
C1311 C1312 1.334 . S
C1312 H1283 0.950 . S
C1312 C1311 1.334 . S
C1312 C1313 1.287 . S
C1313 C1312 1.287 . S
C1313 C1314 1.524 . S
C1313 H1316 0.999 . S
C1314 H1284 0.950 . S
C1314 C1313 1.524 . S
C1314 C1315 1.415 . S
C1315 H1285 0.950 . S
C1315 C1310 1.363 . S
C1315 C1314 1.415 . S
H1316 C1313 0.999 . S
H1317 C1298 0.913 . S
H1318 C1336 0.951 . S
H1319 C1338 0.951 . S
H1320 C1340 0.950 . S
H1321 C1341 0.950 . S
H1322 C1343 0.950 . S
H1323 C1346 0.950 . S
H1324 C1347 0.950 . S
H1325 C1349 0.950 . S
H1326 C1350 0.950 . S
H1327 C1351 0.951 . S
H1328 C1353 0.951 . S
H1329 C1355 0.950 . S
H1330 C1356 0.950 . S
H1331 C1358 0.950 . S
H1332 C1361 0.950 . S
H1333 C1362 0.950 . S
H1334 C1364 0.950 1_655 S
H1335 C1365 0.950 . S
C1336 H1318 0.951 . S
C1336 C1337 1.366 . S
C1336 C1338 1.388 . S
C1337 C1336 1.366 . S
C1337 C1341 1.385 . S
C1338 H1319 0.951 . S
C1338 C1336 1.388 . S
C1338 C1339 1.366 . S
C1339 C1338 1.366 . S
C1339 C1340 1.414 . S
C1339 C1342 1.499 . S
C1340 H1320 0.950 . S
C1340 C1339 1.414 . S
C1340 C1341 1.374 . S
C1341 H1321 0.950 . S
C1341 C1337 1.385 . S
C1341 C1340 1.374 . S
C1342 C1339 1.499 . S
C1342 C1343 1.373 . S
C1342 C1344 1.389 . S
C1343 H1322 0.950 . S
C1343 C1342 1.373 . S
C1343 C1359 1.377 . S
C1344 C1342 1.389 . S
C1344 C1345 1.524 . S
C1344 C1358 1.377 . S
C1345 C1344 1.524 . S
C1345 C1346 1.397 . S
C1345 C1350 1.363 . S
C1346 H1323 0.950 . S
C1346 C1345 1.397 . S
C1346 C1347 1.334 . S
C1347 H1324 0.950 . S
C1347 C1346 1.334 . S
C1347 C1348 1.287 . S
C1348 C1347 1.287 . S
C1348 C1349 1.524 . S
C1348 H1367 0.913 . S
C1349 H1325 0.950 . S
C1349 C1348 1.524 . S
C1349 C1350 1.415 . S
C1350 H1326 0.950 . S
C1350 C1345 1.363 . S
C1350 C1349 1.415 . S
C1351 H1327 0.951 . S
C1351 C1352 1.366 . S
C1351 C1353 1.388 . S
C1352 C1351 1.366 . S
C1352 C1356 1.385 . S
C1353 H1328 0.951 . S
C1353 C1351 1.388 . S
C1353 C1354 1.366 . S
C1354 C1353 1.366 . S
C1354 C1355 1.414 . S
C1354 C1357 1.499 . S
C1355 H1329 0.950 . S
C1355 C1354 1.414 . S
C1355 C1356 1.374 . S
C1356 H1330 0.950 . S
C1356 C1352 1.385 . S
C1356 C1355 1.374 . S
C1357 C1354 1.499 . S
C1357 C1358 1.373 . S
C1357 C1359 1.389 . S
C1358 H1331 0.950 . S
C1358 C1344 1.377 . S
C1358 C1357 1.373 . S
C1359 C1343 1.377 . S
C1359 C1357 1.389 . S
C1359 C1360 1.524 . S
C1360 C1359 1.524 . S
C1360 C1361 1.397 . S
C1360 C1365 1.363 . S
C1361 H1332 0.950 . S
C1361 C1360 1.397 . S
C1361 C1362 1.334 1_554 S
C1362 H1333 0.950 . S
C1362 C1361 1.334 1_556 S
C1362 C1363 1.287 1_556 S
C1363 C1362 1.287 1_554 S
C1363 C1364 1.524 . S
C1363 H1366 0.999 1_554 S
C1364 H1334 0.950 1_455 S
C1364 C1363 1.524 . S
C1364 C1365 1.415 . S
C1365 H1335 0.950 . S
C1365 C1360 1.363 . S
C1365 C1364 1.415 . S
H1366 C1363 0.999 1_556 S
H1367 C1348 0.913 . S
H1368 C1386 0.951 . S
H1369 C1388 0.951 . S
H1370 C1390 0.950 . S
H1371 C1391 0.950 . S
H1372 C1393 0.950 . S
H1373 C1396 0.950 . S
H1374 C1397 0.950 . S
H1375 C1399 0.950 . S
H1376 C1400 0.950 . S
H1377 C1401 0.951 . S
H1378 C1403 0.951 . S
H1379 C1405 0.950 . S
H1380 C1406 0.950 . S
H1381 C1408 0.950 . S
H1382 C1411 0.950 . S
H1383 C1412 0.950 1_554 S
H1384 C1414 0.950 . S
H1385 C1415 0.950 . S
C1386 H1368 0.951 . S
C1386 C1387 1.366 . S
C1386 C1388 1.388 . S
C1387 C1386 1.366 . S
C1387 C1391 1.385 . S
C1388 H1369 0.951 . S
C1388 C1386 1.388 . S
C1388 C1389 1.366 . S
C1389 C1388 1.366 . S
C1389 C1390 1.414 . S
C1389 C1392 1.499 . S
C1390 H1370 0.950 . S
C1390 C1389 1.414 . S
C1390 C1391 1.374 . S
C1391 H1371 0.950 . S
C1391 C1387 1.385 . S
C1391 C1390 1.374 . S
C1392 C1389 1.499 . S
C1392 C1393 1.373 . S
C1392 C1394 1.389 . S
C1393 H1372 0.950 . S
C1393 C1392 1.373 . S
C1393 C1409 1.377 . S
C1394 C1392 1.389 . S
C1394 C1395 1.524 . S
C1394 C1408 1.377 . S
C1395 C1394 1.524 . S
C1395 C1396 1.397 . S
C1395 C1400 1.363 . S
C1396 H1373 0.950 . S
C1396 C1395 1.397 . S
C1396 C1397 1.334 . S
C1397 H1374 0.950 . S
C1397 C1396 1.334 . S
C1397 C1398 1.287 . S
C1398 C1397 1.287 . S
C1398 C1399 1.524 . S
C1398 H1417 0.913 . S
C1399 H1375 0.950 . S
C1399 C1398 1.524 . S
C1399 C1400 1.415 . S
C1400 H1376 0.950 . S
C1400 C1395 1.363 . S
C1400 C1399 1.415 . S
C1401 H1377 0.951 . S
C1401 C1402 1.366 . S
C1401 C1403 1.388 . S
C1402 C1401 1.366 . S
C1402 C1406 1.385 . S
C1403 H1378 0.951 . S
C1403 C1401 1.388 . S
C1403 C1404 1.366 . S
C1404 C1403 1.366 . S
C1404 C1405 1.414 . S
C1404 C1407 1.499 . S
C1405 H1379 0.950 . S
C1405 C1404 1.414 . S
C1405 C1406 1.374 . S
C1406 H1380 0.950 . S
C1406 C1402 1.385 . S
C1406 C1405 1.374 . S
C1407 C1404 1.499 . S
C1407 C1408 1.373 . S
C1407 C1409 1.389 . S
C1408 H1381 0.950 . S
C1408 C1394 1.377 . S
C1408 C1407 1.373 . S
C1409 C1393 1.377 . S
C1409 C1407 1.389 . S
C1409 C1410 1.524 . S
C1410 C1409 1.524 . S
C1410 C1411 1.397 . S
C1410 C1415 1.363 . S
C1411 H1382 0.950 . S
C1411 C1410 1.397 . S
C1411 C1412 1.334 . S
C1412 H1383 0.950 1_556 S
C1412 C1411 1.334 . S
C1412 C1413 1.287 1_556 S
C1413 C1412 1.287 1_554 S
C1413 C1414 1.524 1_554 S
C1413 H1416 0.999 . S
C1414 H1384 0.950 . S
C1414 C1413 1.524 1_556 S
C1414 C1415 1.415 . S
C1415 H1385 0.950 . S
C1415 C1410 1.363 . S
C1415 C1414 1.415 . S
H1416 C1413 0.999 . S
H1417 C1398 0.913 . S
H1418 C1436 0.951 . S
H1419 C1438 0.951 . S
H1420 C1440 0.950 . S
H1421 C1441 0.950 . S
H1422 C1443 0.950 . S
H1423 C1446 0.950 . S
H1424 C1447 0.950 . S
H1425 C1449 0.950 . S
H1426 C1450 0.950 . S
H1427 C1451 0.951 . S
H1428 C1453 0.951 . S
H1429 C1455 0.950 . S
H1430 C1456 0.950 . S
H1431 C1458 0.950 . S
H1432 C1461 0.950 . S
H1433 C1462 0.950 . S
H1434 C1464 0.950 . S
H1435 C1465 0.950 . S
C1436 H1418 0.951 . S
C1436 C1437 1.366 . S
C1436 C1438 1.388 . S
C1437 C1436 1.366 . S
C1437 C1441 1.385 . S
C1438 H1419 0.951 . S
C1438 C1436 1.388 . S
C1438 C1439 1.366 . S
C1439 C1438 1.366 . S
C1439 C1440 1.414 . S
C1439 C1442 1.499 . S
C1440 H1420 0.950 . S
C1440 C1439 1.414 . S
C1440 C1441 1.374 . S
C1441 H1421 0.950 . S
C1441 C1437 1.385 . S
C1441 C1440 1.374 . S
C1442 C1439 1.499 . S
C1442 C1443 1.373 . S
C1442 C1444 1.389 . S
C1443 H1422 0.950 . S
C1443 C1442 1.373 . S
C1443 C1459 1.377 . S
C1444 C1442 1.389 . S
C1444 C1445 1.524 . S
C1444 C1458 1.377 . S
C1445 C1444 1.524 . S
C1445 C1446 1.397 . S
C1445 C1450 1.363 . S
C1446 H1423 0.950 . S
C1446 C1445 1.397 . S
C1446 C1447 1.334 . S
C1447 H1424 0.950 . S
C1447 C1446 1.334 . S
C1447 C1448 1.287 . S
C1448 C1447 1.287 . S
C1448 C1449 1.524 . S
C1448 H1467 0.913 . S
C1449 H1425 0.950 . S
C1449 C1448 1.524 . S
C1449 C1450 1.415 . S
C1450 H1426 0.950 . S
C1450 C1445 1.363 . S
C1450 C1449 1.415 . S
C1451 H1427 0.951 . S
C1451 C1452 1.366 . S
C1451 C1453 1.388 . S
C1452 C1451 1.366 . S
C1452 C1456 1.385 . S
C1453 H1428 0.951 . S
C1453 C1451 1.388 . S
C1453 C1454 1.366 . S
C1454 C1453 1.366 . S
C1454 C1455 1.414 . S
C1454 C1457 1.499 . S
C1455 H1429 0.950 . S
C1455 C1454 1.414 . S
C1455 C1456 1.374 . S
C1456 H1430 0.950 . S
C1456 C1452 1.385 . S
C1456 C1455 1.374 . S
C1457 C1454 1.499 . S
C1457 C1458 1.373 . S
C1457 C1459 1.389 . S
C1458 H1431 0.950 . S
C1458 C1444 1.377 . S
C1458 C1457 1.373 . S
C1459 C1443 1.377 . S
C1459 C1457 1.389 . S
C1459 C1460 1.524 . S
C1460 C1459 1.524 . S
C1460 C1461 1.397 . S
C1460 C1465 1.363 . S
C1461 H1432 0.950 . S
C1461 C1460 1.397 . S
C1461 C1462 1.334 1_556 S
C1462 H1433 0.950 . S
C1462 C1461 1.334 1_554 S
C1462 C1463 1.287 . S
C1463 C1462 1.287 . S
C1463 C1464 1.524 . S
C1463 H1466 0.999 . S
C1464 H1434 0.950 . S
C1464 C1463 1.524 . S
C1464 C1465 1.415 1_554 S
C1465 H1435 0.950 . S
C1465 C1460 1.363 . S
C1465 C1464 1.415 1_556 S
H1466 C1463 0.999 . S
H1467 C1448 0.913 . S
H1468 C1486 0.951 . S
H1469 C1488 0.951 . S
H1470 C1490 0.950 . S
H1471 C1491 0.950 . S
H1472 C1493 0.950 . S
H1473 C1496 0.950 . S
H1474 C1497 0.950 . S
H1475 C1499 0.950 . S
H1476 C1500 0.950 . S
H1477 C1501 0.951 . S
H1478 C1503 0.951 . S
H1479 C1505 0.950 . S
H1480 C1506 0.950 . S
H1481 C1508 0.950 . S
H1482 C1511 0.950 . S
H1483 C1512 0.950 . S
H1484 C1514 0.950 . S
H1485 C1515 0.950 . S
C1486 H1468 0.951 . S
C1486 C1487 1.366 . S
C1486 C1488 1.388 . S
C1487 C1486 1.366 . S
C1487 C1491 1.385 . S
C1488 H1469 0.951 . S
C1488 C1486 1.388 . S
C1488 C1489 1.366 . S
C1489 C1488 1.366 . S
C1489 C1490 1.414 . S
C1489 C1492 1.499 . S
C1490 H1470 0.950 . S
C1490 C1489 1.414 . S
C1490 C1491 1.374 . S
C1491 H1471 0.950 . S
C1491 C1487 1.385 . S
C1491 C1490 1.374 . S
C1492 C1489 1.499 . S
C1492 C1493 1.373 . S
C1492 C1494 1.389 . S
C1493 H1472 0.950 . S
C1493 C1492 1.373 . S
C1493 C1509 1.377 . S
C1494 C1492 1.389 . S
C1494 C1495 1.524 . S
C1494 C1508 1.377 . S
C1495 C1494 1.524 . S
C1495 C1496 1.397 . S
C1495 C1500 1.363 . S
C1496 H1473 0.950 . S
C1496 C1495 1.397 . S
C1496 C1497 1.334 . S
C1497 H1474 0.950 . S
C1497 C1496 1.334 . S
C1497 C1498 1.287 . S
C1498 C1497 1.287 . S
C1498 C1499 1.524 . S
C1498 H1517 0.913 . S
C1499 H1475 0.950 . S
C1499 C1498 1.524 . S
C1499 C1500 1.415 . S
C1500 H1476 0.950 . S
C1500 C1495 1.363 . S
C1500 C1499 1.415 . S
C1501 H1477 0.951 . S
C1501 C1502 1.366 . S
C1501 C1503 1.388 . S
C1502 C1501 1.366 . S
C1502 C1506 1.385 . S
C1503 H1478 0.951 . S
C1503 C1501 1.388 . S
C1503 C1504 1.366 . S
C1504 C1503 1.366 . S
C1504 C1505 1.414 . S
C1504 C1507 1.499 . S
C1505 H1479 0.950 . S
C1505 C1504 1.414 . S
C1505 C1506 1.374 . S
C1506 H1480 0.950 . S
C1506 C1502 1.385 . S
C1506 C1505 1.374 . S
C1507 C1504 1.499 . S
C1507 C1508 1.373 . S
C1507 C1509 1.389 . S
C1508 H1481 0.950 . S
C1508 C1494 1.377 . S
C1508 C1507 1.373 . S
C1509 C1493 1.377 . S
C1509 C1507 1.389 . S
C1509 C1510 1.524 . S
C1510 C1509 1.524 . S
C1510 C1511 1.397 . S
C1510 C1515 1.363 . S
C1511 H1482 0.950 . S
C1511 C1510 1.397 . S
C1511 C1512 1.334 . S
C1512 H1483 0.950 . S
C1512 C1511 1.334 . S
C1512 C1513 1.287 . S
C1513 C1512 1.287 . S
C1513 C1514 1.524 . S
C1513 H1516 0.999 . S
C1514 H1484 0.950 . S
C1514 C1513 1.524 . S
C1514 C1515 1.415 . S
C1515 H1485 0.950 . S
C1515 C1510 1.363 . S
C1515 C1514 1.415 . S
H1516 C1513 0.999 . S
H1517 C1498 0.913 . S
H1518 C1536 0.951 . S
H1519 C1538 0.951 . S
H1520 C1540 0.950 . S
H1521 C1541 0.950 . S
H1522 C1543 0.950 . S
H1523 C1546 0.950 . S
H1524 C1547 0.950 . S
H1525 C1549 0.950 . S
H1526 C1550 0.950 . S
H1527 C1551 0.951 . S
H1528 C1553 0.951 . S
H1529 C1555 0.950 . S
H1530 C1556 0.950 . S
H1531 C1558 0.950 . S
H1532 C1561 0.950 . S
H1533 C1562 0.950 . S
H1534 C1564 0.950 . S
H1535 C1565 0.950 . S
C1536 H1518 0.951 . S
C1536 C1537 1.366 . S
C1536 C1538 1.388 . S
C1537 C1536 1.366 . S
C1537 C1541 1.385 . S
C1538 H1519 0.951 . S
C1538 C1536 1.388 . S
C1538 C1539 1.366 . S
C1539 C1538 1.366 . S
C1539 C1540 1.414 . S
C1539 C1542 1.499 . S
C1540 H1520 0.950 . S
C1540 C1539 1.414 . S
C1540 C1541 1.374 . S
C1541 H1521 0.950 . S
C1541 C1537 1.385 . S
C1541 C1540 1.374 . S
C1542 C1539 1.499 . S
C1542 C1543 1.373 . S
C1542 C1544 1.389 . S
C1543 H1522 0.950 . S
C1543 C1542 1.373 . S
C1543 C1559 1.377 . S
C1544 C1542 1.389 . S
C1544 C1545 1.524 . S
C1544 C1558 1.377 . S
C1545 C1544 1.524 . S
C1545 C1546 1.397 . S
C1545 C1550 1.363 . S
C1546 H1523 0.950 . S
C1546 C1545 1.397 . S
C1546 C1547 1.334 . S
C1547 H1524 0.950 . S
C1547 C1546 1.334 . S
C1547 C1548 1.287 . S
C1548 C1547 1.287 . S
C1548 C1549 1.524 . S
C1548 H1567 0.913 . S
C1549 H1525 0.950 . S
C1549 C1548 1.524 . S
C1549 C1550 1.415 . S
C1550 H1526 0.950 . S
C1550 C1545 1.363 . S
C1550 C1549 1.415 . S
C1551 H1527 0.951 . S
C1551 C1552 1.366 . S
C1551 C1553 1.388 . S
C1552 C1551 1.366 . S
C1552 C1556 1.385 . S
C1553 H1528 0.951 . S
C1553 C1551 1.388 . S
C1553 C1554 1.366 . S
C1554 C1553 1.366 . S
C1554 C1555 1.414 . S
C1554 C1557 1.499 . S
C1555 H1529 0.950 . S
C1555 C1554 1.414 . S
C1555 C1556 1.374 . S
C1556 H1530 0.950 . S
C1556 C1552 1.385 . S
C1556 C1555 1.374 . S
C1557 C1554 1.499 . S
C1557 C1558 1.373 . S
C1557 C1559 1.389 . S
C1558 H1531 0.950 . S
C1558 C1544 1.377 . S
C1558 C1557 1.373 . S
C1559 C1543 1.377 . S
C1559 C1557 1.389 . S
C1559 C1560 1.524 . S
C1560 C1559 1.524 . S
C1560 C1561 1.397 . S
C1560 C1565 1.363 . S
C1561 H1532 0.950 . S
C1561 C1560 1.397 . S
C1561 C1562 1.334 . S
C1562 H1533 0.950 . S
C1562 C1561 1.334 . S
C1562 C1563 1.287 . S
C1563 C1562 1.287 . S
C1563 C1564 1.524 . S
C1563 H1566 0.999 . S
C1564 H1534 0.950 . S
C1564 C1563 1.524 . S
C1564 C1565 1.415 . S
C1565 H1535 0.950 . S
C1565 C1560 1.363 . S
C1565 C1564 1.415 . S
H1566 C1563 0.999 . S
H1567 C1548 0.913 . S
H1568 C1586 0.951 . S
H1569 C1588 0.951 . S
H1570 C1590 0.950 . S
H1571 C1591 0.950 . S
H1572 C1593 0.950 . S
H1573 C1596 0.950 . S
H1574 C1597 0.950 . S
H1575 C1599 0.950 . S
H1576 C1600 0.950 . S
H1577 C1601 0.951 . S
H1578 C1603 0.951 . S
H1579 C1605 0.950 . S
H1580 C1606 0.950 . S
H1581 C1608 0.950 . S
H1582 C1611 0.950 . S
H1583 C1612 0.950 . S
H1584 C1614 0.950 . S
H1585 C1615 0.950 . S
C1586 H1568 0.951 . S
C1586 C1587 1.366 . S
C1586 C1588 1.388 . S
C1587 C1586 1.366 . S
C1587 C1591 1.385 . S
C1588 H1569 0.951 . S
C1588 C1586 1.388 . S
C1588 C1589 1.366 . S
C1589 C1588 1.366 . S
C1589 C1590 1.414 . S
C1589 C1592 1.499 . S
C1590 H1570 0.950 . S
C1590 C1589 1.414 . S
C1590 C1591 1.374 . S
C1591 H1571 0.950 . S
C1591 C1587 1.385 . S
C1591 C1590 1.374 . S
C1592 C1589 1.499 . S
C1592 C1593 1.373 . S
C1592 C1594 1.389 . S
C1593 H1572 0.950 . S
C1593 C1592 1.373 . S
C1593 C1609 1.377 . S
C1594 C1592 1.389 . S
C1594 C1595 1.524 . S
C1594 C1608 1.377 . S
C1595 C1594 1.524 . S
C1595 C1596 1.397 . S
C1595 C1600 1.363 . S
C1596 H1573 0.950 . S
C1596 C1595 1.397 . S
C1596 C1597 1.334 . S
C1597 H1574 0.950 . S
C1597 C1596 1.334 . S
C1597 C1598 1.287 . S
C1598 C1597 1.287 . S
C1598 C1599 1.524 . S
C1598 H1617 0.913 . S
C1599 H1575 0.950 . S
C1599 C1598 1.524 . S
C1599 C1600 1.415 . S
C1600 H1576 0.950 . S
C1600 C1595 1.363 . S
C1600 C1599 1.415 . S
C1601 H1577 0.951 . S
C1601 C1602 1.366 . S
C1601 C1603 1.388 . S
C1602 C1601 1.366 . S
C1602 C1606 1.385 . S
C1603 H1578 0.951 . S
C1603 C1601 1.388 . S
C1603 C1604 1.366 . S
C1604 C1603 1.366 . S
C1604 C1605 1.414 . S
C1604 C1607 1.499 . S
C1605 H1579 0.950 . S
C1605 C1604 1.414 . S
C1605 C1606 1.374 . S
C1606 H1580 0.950 . S
C1606 C1602 1.385 . S
C1606 C1605 1.374 . S
C1607 C1604 1.499 . S
C1607 C1608 1.373 . S
C1607 C1609 1.389 . S
C1608 H1581 0.950 . S
C1608 C1594 1.377 . S
C1608 C1607 1.373 . S
C1609 C1593 1.377 . S
C1609 C1607 1.389 . S
C1609 C1610 1.524 . S
C1610 C1609 1.524 . S
C1610 C1611 1.397 . S
C1610 C1615 1.363 . S
C1611 H1582 0.950 . S
C1611 C1610 1.397 . S
C1611 C1612 1.334 . S
C1612 H1583 0.950 . S
C1612 C1611 1.334 . S
C1612 C1613 1.287 . S
C1613 C1612 1.287 . S
C1613 C1614 1.524 . S
C1613 H1616 0.999 . S
C1614 H1584 0.950 . S
C1614 C1613 1.524 . S
C1614 C1615 1.415 . S
C1615 H1585 0.950 . S
C1615 C1610 1.363 . S
C1615 C1614 1.415 . S
H1616 C1613 0.999 . S
H1617 C1598 0.913 . S
H1618 C1636 0.951 . S
H1619 C1638 0.951 . S
H1620 C1640 0.950 . S
H1621 C1641 0.950 . S
H1622 C1643 0.950 . S
H1623 C1646 0.950 . S
H1624 C1647 0.950 . S
H1625 C1649 0.950 . S
H1626 C1650 0.950 . S
H1627 C1651 0.951 . S
H1628 C1653 0.951 . S
H1629 C1655 0.950 . S
H1630 C1656 0.950 . S
H1631 C1658 0.950 . S
H1632 C1661 0.950 . S
H1633 C1662 0.950 1_556 S
H1634 C1664 0.950 . S
H1635 C1665 0.950 . S
C1636 H1618 0.951 . S
C1636 C1637 1.366 . S
C1636 C1638 1.388 . S
C1637 C1636 1.366 . S
C1637 C1641 1.385 . S
C1638 H1619 0.951 . S
C1638 C1636 1.388 . S
C1638 C1639 1.366 . S
C1639 C1638 1.366 . S
C1639 C1640 1.414 . S
C1639 C1642 1.499 . S
C1640 H1620 0.950 . S
C1640 C1639 1.414 . S
C1640 C1641 1.374 . S
C1641 H1621 0.950 . S
C1641 C1637 1.385 . S
C1641 C1640 1.374 . S
C1642 C1639 1.499 . S
C1642 C1643 1.373 . S
C1642 C1644 1.389 . S
C1643 H1622 0.950 . S
C1643 C1642 1.373 . S
C1643 C1659 1.377 . S
C1644 C1642 1.389 . S
C1644 C1645 1.524 . S
C1644 C1658 1.377 . S
C1645 C1644 1.524 . S
C1645 C1646 1.397 . S
C1645 C1650 1.363 . S
C1646 H1623 0.950 . S
C1646 C1645 1.397 . S
C1646 C1647 1.334 . S
C1647 H1624 0.950 . S
C1647 C1646 1.334 . S
C1647 C1648 1.287 . S
C1648 C1647 1.287 . S
C1648 C1649 1.524 . S
C1648 H1667 0.913 . S
C1649 H1625 0.950 . S
C1649 C1648 1.524 . S
C1649 C1650 1.415 . S
C1650 H1626 0.950 . S
C1650 C1645 1.363 . S
C1650 C1649 1.415 . S
C1651 H1627 0.951 . S
C1651 C1652 1.366 . S
C1651 C1653 1.388 . S
C1652 C1651 1.366 . S
C1652 C1656 1.385 . S
C1653 H1628 0.951 . S
C1653 C1651 1.388 . S
C1653 C1654 1.366 . S
C1654 C1653 1.366 . S
C1654 C1655 1.414 . S
C1654 C1657 1.499 . S
C1655 H1629 0.950 . S
C1655 C1654 1.414 . S
C1655 C1656 1.374 . S
C1656 H1630 0.950 . S
C1656 C1652 1.385 . S
C1656 C1655 1.374 . S
C1657 C1654 1.499 . S
C1657 C1658 1.373 . S
C1657 C1659 1.389 . S
C1658 H1631 0.950 . S
C1658 C1644 1.377 . S
C1658 C1657 1.373 . S
C1659 C1643 1.377 . S
C1659 C1657 1.389 . S
C1659 C1660 1.524 . S
C1660 C1659 1.524 . S
C1660 C1661 1.397 . S
C1660 C1665 1.363 . S
C1661 H1632 0.950 . S
C1661 C1660 1.397 . S
C1661 C1662 1.334 . S
C1662 H1633 0.950 1_554 S
C1662 C1661 1.334 . S
C1662 C1663 1.287 . S
C1663 C1662 1.287 . S
C1663 C1664 1.524 . S
C1663 H1666 0.999 . S
C1664 H1634 0.950 . S
C1664 C1663 1.524 . S
C1664 C1665 1.415 . S
C1665 H1635 0.950 . S
C1665 C1660 1.363 . S
C1665 C1664 1.415 . S
H1666 C1663 0.999 . S
H1667 C1648 0.913 . S
H1668 C1686 0.951 . S
H1669 C1688 0.951 . S
H1670 C1690 0.950 . S
H1671 C1691 0.950 . S
H1672 C1693 0.950 . S
H1673 C1696 0.950 . S
H1674 C1697 0.950 . S
H1675 C1699 0.950 . S
H1676 C1700 0.950 . S
H1677 C1701 0.951 . S
H1678 C1703 0.951 . S
H1679 C1705 0.950 . S
H1680 C1706 0.950 . S
H1681 C1708 0.950 . S
H1682 C1711 0.950 . S
H1683 C1712 0.950 . S
H1684 C1714 0.950 . S
H1685 C1715 0.950 . S
C1686 H1668 0.951 . S
C1686 C1687 1.366 . S
C1686 C1688 1.388 . S
C1687 C1686 1.366 . S
C1687 C1691 1.385 . S
C1688 H1669 0.951 . S
C1688 C1686 1.388 . S
C1688 C1689 1.366 . S
C1689 C1688 1.366 . S
C1689 C1690 1.414 . S
C1689 C1692 1.499 . S
C1690 H1670 0.950 . S
C1690 C1689 1.414 . S
C1690 C1691 1.374 . S
C1691 H1671 0.950 . S
C1691 C1687 1.385 . S
C1691 C1690 1.374 . S
C1692 C1689 1.499 . S
C1692 C1693 1.373 . S
C1692 C1694 1.389 . S
C1693 H1672 0.950 . S
C1693 C1692 1.373 . S
C1693 C1709 1.377 . S
C1694 C1692 1.389 . S
C1694 C1695 1.524 . S
C1694 C1708 1.377 . S
C1695 C1694 1.524 . S
C1695 C1696 1.397 . S
C1695 C1700 1.363 . S
C1696 H1673 0.950 . S
C1696 C1695 1.397 . S
C1696 C1697 1.334 . S
C1697 H1674 0.950 . S
C1697 C1696 1.334 . S
C1697 C1698 1.287 . S
C1698 C1697 1.287 . S
C1698 C1699 1.524 . S
C1698 H1717 0.913 . S
C1699 H1675 0.950 . S
C1699 C1698 1.524 . S
C1699 C1700 1.415 . S
C1700 H1676 0.950 . S
C1700 C1695 1.363 . S
C1700 C1699 1.415 . S
C1701 H1677 0.951 . S
C1701 C1702 1.366 . S
C1701 C1703 1.388 . S
C1702 C1701 1.366 . S
C1702 C1706 1.385 . S
C1703 H1678 0.951 . S
C1703 C1701 1.388 . S
C1703 C1704 1.366 . S
C1704 C1703 1.366 . S
C1704 C1705 1.414 . S
C1704 C1707 1.499 . S
C1705 H1679 0.950 . S
C1705 C1704 1.414 . S
C1705 C1706 1.374 . S
C1706 H1680 0.950 . S
C1706 C1702 1.385 . S
C1706 C1705 1.374 . S
C1707 C1704 1.499 . S
C1707 C1708 1.373 . S
C1707 C1709 1.389 . S
C1708 H1681 0.950 . S
C1708 C1694 1.377 . S
C1708 C1707 1.373 . S
C1709 C1693 1.377 . S
C1709 C1707 1.389 . S
C1709 C1710 1.524 . S
C1710 C1709 1.524 . S
C1710 C1711 1.397 . S
C1710 C1715 1.363 . S
C1711 H1682 0.950 . S
C1711 C1710 1.397 . S
C1711 C1712 1.334 . S
C1712 H1683 0.950 . S
C1712 C1711 1.334 . S
C1712 C1713 1.287 . S
C1713 C1712 1.287 . S
C1713 C1714 1.524 . S
C1713 H1716 0.999 . S
C1714 H1684 0.950 . S
C1714 C1713 1.524 . S
C1714 C1715 1.415 . S
C1715 H1685 0.950 . S
C1715 C1710 1.363 . S
C1715 C1714 1.415 . S
H1716 C1713 0.999 . S
H1717 C1698 0.913 . S
H1718 C1736 0.951 . S
H1719 C1738 0.951 . S
H1720 C1740 0.950 . S
H1721 C1741 0.950 . S
H1722 C1743 0.950 . S
H1723 C1746 0.950 . S
H1724 C1747 0.950 . S
H1725 C1749 0.950 . S
H1726 C1750 0.950 . S
H1727 C1751 0.951 . S
H1728 C1753 0.951 . S
H1729 C1755 0.950 . S
H1730 C1756 0.950 . S
H1731 C1758 0.950 . S
H1732 C1761 0.950 . S
H1733 C1762 0.950 . S
H1734 C1764 0.950 . S
H1735 C1765 0.950 . S
C1736 H1718 0.951 . S
C1736 C1737 1.366 . S
C1736 C1738 1.388 . S
C1737 C1736 1.366 . S
C1737 C1741 1.385 . S
C1738 H1719 0.951 . S
C1738 C1736 1.388 . S
C1738 C1739 1.366 . S
C1739 C1738 1.366 . S
C1739 C1740 1.414 . S
C1739 C1742 1.499 . S
C1740 H1720 0.950 . S
C1740 C1739 1.414 . S
C1740 C1741 1.374 . S
C1741 H1721 0.950 . S
C1741 C1737 1.385 . S
C1741 C1740 1.374 . S
C1742 C1739 1.499 . S
C1742 C1743 1.373 . S
C1742 C1744 1.389 . S
C1743 H1722 0.950 . S
C1743 C1742 1.373 . S
C1743 C1759 1.377 . S
C1744 C1742 1.389 . S
C1744 C1745 1.524 . S
C1744 C1758 1.377 . S
C1745 C1744 1.524 . S
C1745 C1746 1.397 . S
C1745 C1750 1.363 . S
C1746 H1723 0.950 . S
C1746 C1745 1.397 . S
C1746 C1747 1.334 . S
C1747 H1724 0.950 . S
C1747 C1746 1.334 . S
C1747 C1748 1.287 . S
C1748 C1747 1.287 . S
C1748 C1749 1.524 . S
C1748 H1767 0.913 . S
C1749 H1725 0.950 . S
C1749 C1748 1.524 . S
C1749 C1750 1.415 . S
C1750 H1726 0.950 . S
C1750 C1745 1.363 . S
C1750 C1749 1.415 . S
C1751 H1727 0.951 . S
C1751 C1752 1.366 . S
C1751 C1753 1.388 . S
C1752 C1751 1.366 . S
C1752 C1756 1.385 . S
C1753 H1728 0.951 . S
C1753 C1751 1.388 . S
C1753 C1754 1.366 . S
C1754 C1753 1.366 . S
C1754 C1755 1.414 . S
C1754 C1757 1.499 . S
C1755 H1729 0.950 . S
C1755 C1754 1.414 . S
C1755 C1756 1.374 . S
C1756 H1730 0.950 . S
C1756 C1752 1.385 . S
C1756 C1755 1.374 . S
C1757 C1754 1.499 . S
C1757 C1758 1.373 . S
C1757 C1759 1.389 . S
C1758 H1731 0.950 . S
C1758 C1744 1.377 . S
C1758 C1757 1.373 . S
C1759 C1743 1.377 . S
C1759 C1757 1.389 . S
C1759 C1760 1.524 . S
C1760 C1759 1.524 . S
C1760 C1761 1.397 . S
C1760 C1765 1.363 . S
C1761 H1732 0.950 . S
C1761 C1760 1.397 . S
C1761 C1762 1.334 . S
C1762 H1733 0.950 . S
C1762 C1761 1.334 . S
C1762 C1763 1.287 . S
C1763 C1762 1.287 . S
C1763 C1764 1.524 . S
C1763 H1766 0.999 . S
C1764 H1734 0.950 . S
C1764 C1763 1.524 . S
C1764 C1765 1.415 . S
C1765 H1735 0.950 . S
C1765 C1760 1.363 . S
C1765 C1764 1.415 . S
H1766 C1763 0.999 . S
H1767 C1748 0.913 . S
H1768 C1786 0.951 . S
H1769 C1788 0.951 . S
H1770 C1790 0.950 . S
H1771 C1791 0.950 . S
H1772 C1793 0.950 . S
H1773 C1796 0.950 . S
H1774 C1797 0.950 . S
H1775 C1799 0.950 . S
H1776 C1800 0.950 . S
H1777 C1801 0.951 . S
H1778 C1803 0.951 . S
H1779 C1805 0.950 . S
H1780 C1806 0.950 . S
H1781 C1808 0.950 . S
H1782 C1811 0.950 . S
H1783 C1812 0.950 . S
H1784 C1814 0.950 . S
H1785 C1815 0.950 . S
C1786 H1768 0.951 . S
C1786 C1787 1.366 . S
C1786 C1788 1.388 . S
C1787 C1786 1.366 . S
C1787 C1791 1.385 . S
C1788 H1769 0.951 . S
C1788 C1786 1.388 . S
C1788 C1789 1.366 . S
C1789 C1788 1.366 . S
C1789 C1790 1.414 . S
C1789 C1792 1.499 . S
C1790 H1770 0.950 . S
C1790 C1789 1.414 . S
C1790 C1791 1.374 . S
C1791 H1771 0.950 . S
C1791 C1787 1.385 . S
C1791 C1790 1.374 . S
C1792 C1789 1.499 . S
C1792 C1793 1.373 . S
C1792 C1794 1.389 . S
C1793 H1772 0.950 . S
C1793 C1792 1.373 . S
C1793 C1809 1.377 . S
C1794 C1792 1.389 . S
C1794 C1795 1.524 . S
C1794 C1808 1.377 . S
C1795 C1794 1.524 . S
C1795 C1796 1.397 . S
C1795 C1800 1.363 . S
C1796 H1773 0.950 . S
C1796 C1795 1.397 . S
C1796 C1797 1.334 . S
C1797 H1774 0.950 . S
C1797 C1796 1.334 . S
C1797 C1798 1.287 . S
C1798 C1797 1.287 . S
C1798 C1799 1.524 . S
C1798 H1817 0.913 . S
C1799 H1775 0.950 . S
C1799 C1798 1.524 . S
C1799 C1800 1.415 . S
C1800 H1776 0.950 . S
C1800 C1795 1.363 . S
C1800 C1799 1.415 . S
C1801 H1777 0.951 . S
C1801 C1802 1.366 . S
C1801 C1803 1.388 . S
C1802 C1801 1.366 . S
C1802 C1806 1.385 . S
C1803 H1778 0.951 . S
C1803 C1801 1.388 . S
C1803 C1804 1.366 . S
C1804 C1803 1.366 . S
C1804 C1805 1.414 . S
C1804 C1807 1.499 . S
C1805 H1779 0.950 . S
C1805 C1804 1.414 . S
C1805 C1806 1.374 . S
C1806 H1780 0.950 . S
C1806 C1802 1.385 . S
C1806 C1805 1.374 . S
C1807 C1804 1.499 . S
C1807 C1808 1.373 . S
C1807 C1809 1.389 . S
C1808 H1781 0.950 . S
C1808 C1794 1.377 . S
C1808 C1807 1.373 . S
C1809 C1793 1.377 . S
C1809 C1807 1.389 . S
C1809 C1810 1.524 . S
C1810 C1809 1.524 . S
C1810 C1811 1.397 . S
C1810 C1815 1.363 . S
C1811 H1782 0.950 . S
C1811 C1810 1.397 . S
C1811 C1812 1.334 . S
C1812 H1783 0.950 . S
C1812 C1811 1.334 . S
C1812 C1813 1.287 . S
C1813 C1812 1.287 . S
C1813 C1814 1.524 . S
C1813 H1816 0.999 . S
C1814 H1784 0.950 . S
C1814 C1813 1.524 . S
C1814 C1815 1.415 . S
C1815 H1785 0.950 . S
C1815 C1810 1.363 . S
C1815 C1814 1.415 . S
H1816 C1813 0.999 . S
H1817 C1798 0.913 . S
H1818 C1836 0.951 . S
H1819 C1838 0.951 . S
H1820 C1840 0.950 . S
H1821 C1841 0.950 . S
H1822 C1843 0.950 . S
H1823 C1846 0.950 . S
H1824 C1847 0.950 . S
H1825 C1849 0.950 . S
H1826 C1850 0.950 . S
H1827 C1851 0.951 . S
H1828 C1853 0.951 . S
H1829 C1855 0.950 . S
H1830 C1856 0.950 . S
H1831 C1858 0.950 . S
H1832 C1861 0.950 . S
H1833 C1862 0.950 . S
H1834 C1864 0.950 . S
H1835 C1865 0.950 . S
C1836 H1818 0.951 . S
C1836 C1837 1.366 . S
C1836 C1838 1.388 . S
C1837 C1836 1.366 . S
C1837 C1841 1.385 . S
C1838 H1819 0.951 . S
C1838 C1836 1.388 . S
C1838 C1839 1.366 . S
C1839 C1838 1.366 . S
C1839 C1840 1.414 . S
C1839 C1842 1.499 . S
C1840 H1820 0.950 . S
C1840 C1839 1.414 . S
C1840 C1841 1.374 . S
C1841 H1821 0.950 . S
C1841 C1837 1.385 . S
C1841 C1840 1.374 . S
C1842 C1839 1.499 . S
C1842 C1843 1.373 . S
C1842 C1844 1.389 . S
C1843 H1822 0.950 . S
C1843 C1842 1.373 . S
C1843 C1859 1.377 . S
C1844 C1842 1.389 . S
C1844 C1845 1.524 . S
C1844 C1858 1.377 . S
C1845 C1844 1.524 . S
C1845 C1846 1.397 . S
C1845 C1850 1.363 . S
C1846 H1823 0.950 . S
C1846 C1845 1.397 . S
C1846 C1847 1.334 . S
C1847 H1824 0.950 . S
C1847 C1846 1.334 . S
C1847 C1848 1.287 . S
C1848 C1847 1.287 . S
C1848 C1849 1.524 . S
C1848 H1867 0.913 . S
C1849 H1825 0.950 . S
C1849 C1848 1.524 . S
C1849 C1850 1.415 . S
C1850 H1826 0.950 . S
C1850 C1845 1.363 . S
C1850 C1849 1.415 . S
C1851 H1827 0.951 . S
C1851 C1852 1.366 . S
C1851 C1853 1.388 . S
C1852 C1851 1.366 . S
C1852 C1856 1.385 . S
C1853 H1828 0.951 . S
C1853 C1851 1.388 . S
C1853 C1854 1.366 . S
C1854 C1853 1.366 . S
C1854 C1855 1.414 . S
C1854 C1857 1.499 . S
C1855 H1829 0.950 . S
C1855 C1854 1.414 . S
C1855 C1856 1.374 . S
C1856 H1830 0.950 . S
C1856 C1852 1.385 . S
C1856 C1855 1.374 . S
C1857 C1854 1.499 . S
C1857 C1858 1.373 . S
C1857 C1859 1.389 . S
C1858 H1831 0.950 . S
C1858 C1844 1.377 . S
C1858 C1857 1.373 . S
C1859 C1843 1.377 . S
C1859 C1857 1.389 . S
C1859 C1860 1.524 . S
C1860 C1859 1.524 . S
C1860 C1861 1.397 . S
C1860 C1865 1.363 . S
C1861 H1832 0.950 . S
C1861 C1860 1.397 . S
C1861 C1862 1.334 . S
C1862 H1833 0.950 . S
C1862 C1861 1.334 . S
C1862 C1863 1.287 . S
C1863 C1862 1.287 . S
C1863 C1864 1.524 . S
C1863 H1866 0.999 . S
C1864 H1834 0.950 . S
C1864 C1863 1.524 . S
C1864 C1865 1.415 . S
C1865 H1835 0.950 . S
C1865 C1860 1.363 . S
C1865 C1864 1.415 . S
H1866 C1863 0.999 . S
H1867 C1848 0.913 . S
H1868 C1886 0.951 . S
H1869 C1888 0.951 . S
H1870 C1890 0.950 . S
H1871 C1891 0.950 . S
H1872 C1893 0.950 . S
H1873 C1896 0.950 . S
H1874 C1897 0.950 . S
H1875 C1899 0.949 1_554 S
H1876 C1900 0.950 . S
H1877 C1901 0.951 . S
H1878 C1903 0.951 . S
H1879 C1905 0.950 . S
H1880 C1906 0.950 . S
H1881 C1908 0.950 . S
H1882 C1911 0.950 . S
H1883 C1912 0.950 . S
H1884 C1914 0.950 . S
H1885 C1915 0.950 . S
C1886 H1868 0.951 . S
C1886 C1887 1.366 . S
C1886 C1888 1.388 . S
C1887 C1886 1.366 . S
C1887 C1891 1.385 . S
C1888 H1869 0.951 . S
C1888 C1886 1.388 . S
C1888 C1889 1.366 . S
C1889 C1888 1.366 . S
C1889 C1890 1.414 . S
C1889 C1892 1.499 . S
C1890 H1870 0.950 . S
C1890 C1889 1.414 . S
C1890 C1891 1.374 . S
C1891 H1871 0.950 . S
C1891 C1887 1.385 . S
C1891 C1890 1.374 . S
C1892 C1889 1.499 . S
C1892 C1893 1.373 . S
C1892 C1894 1.389 . S
C1893 H1872 0.950 . S
C1893 C1892 1.373 . S
C1893 C1909 1.377 . S
C1894 C1892 1.389 . S
C1894 C1895 1.524 . S
C1894 C1908 1.377 . S
C1895 C1894 1.524 . S
C1895 C1896 1.397 . S
C1895 C1900 1.363 . S
C1896 H1873 0.950 . S
C1896 C1895 1.397 . S
C1896 C1897 1.334 . S
C1897 H1874 0.950 . S
C1897 C1896 1.334 . S
C1897 C1898 1.287 . S
C1898 C1897 1.287 . S
C1898 C1899 1.524 . S
C1898 H1917 0.913 . S
C1899 H1875 0.949 1_556 S
C1899 C1898 1.524 . S
C1899 C1900 1.415 . S
C1900 H1876 0.950 . S
C1900 C1895 1.363 . S
C1900 C1899 1.415 . S
C1901 H1877 0.951 . S
C1901 C1902 1.366 . S
C1901 C1903 1.388 . S
C1902 C1901 1.366 . S
C1902 C1906 1.385 . S
C1903 H1878 0.951 . S
C1903 C1901 1.388 . S
C1903 C1904 1.366 . S
C1904 C1903 1.366 . S
C1904 C1905 1.414 . S
C1904 C1907 1.499 . S
C1905 H1879 0.950 . S
C1905 C1904 1.414 . S
C1905 C1906 1.374 . S
C1906 H1880 0.950 . S
C1906 C1902 1.385 . S
C1906 C1905 1.374 . S
C1907 C1904 1.499 . S
C1907 C1908 1.373 . S
C1907 C1909 1.389 . S
C1908 H1881 0.950 . S
C1908 C1894 1.377 . S
C1908 C1907 1.373 . S
C1909 C1893 1.377 . S
C1909 C1907 1.389 . S
C1909 C1910 1.524 . S
C1910 C1909 1.524 . S
C1910 C1911 1.397 . S
C1910 C1915 1.363 . S
C1911 H1882 0.950 . S
C1911 C1910 1.397 . S
C1911 C1912 1.334 . S
C1912 H1883 0.950 . S
C1912 C1911 1.334 . S
C1912 C1913 1.287 . S
C1913 C1912 1.287 . S
C1913 C1914 1.524 . S
C1913 H1916 0.999 . S
C1914 H1884 0.950 . S
C1914 C1913 1.524 . S
C1914 C1915 1.415 . S
C1915 H1885 0.950 . S
C1915 C1910 1.363 . S
C1915 C1914 1.415 . S
H1916 C1913 0.999 . S
H1917 C1898 0.913 . S
H1918 C1936 0.951 . S
H1919 C1938 0.951 . S
H1920 C1940 0.950 . S
H1921 C1941 0.950 . S
H1922 C1943 0.950 . S
H1923 C1946 0.950 . S
H1924 C1947 0.950 . S
H1925 C1949 0.950 . S
H1926 C1950 0.950 . S
H1927 C1951 0.951 . S
H1928 C1953 0.951 . S
H1929 C1955 0.950 . S
H1930 C1956 0.950 . S
H1931 C1958 0.950 . S
H1932 C1961 0.950 . S
H1933 C1962 0.950 . S
H1934 C1964 0.950 . S
H1935 C1965 0.950 . S
C1936 H1918 0.951 . S
C1936 C1937 1.366 . S
C1936 C1938 1.388 . S
C1937 C1936 1.366 . S
C1937 C1941 1.385 . S
C1938 H1919 0.951 . S
C1938 C1936 1.388 . S
C1938 C1939 1.366 . S
C1939 C1938 1.366 . S
C1939 C1940 1.414 . S
C1939 C1942 1.499 . S
C1940 H1920 0.950 . S
C1940 C1939 1.414 . S
C1940 C1941 1.374 . S
C1941 H1921 0.950 . S
C1941 C1937 1.385 . S
C1941 C1940 1.374 . S
C1942 C1939 1.499 . S
C1942 C1943 1.373 . S
C1942 C1944 1.389 . S
C1943 H1922 0.950 . S
C1943 C1942 1.373 . S
C1943 C1959 1.377 . S
C1944 C1942 1.389 . S
C1944 C1945 1.524 . S
C1944 C1958 1.377 . S
C1945 C1944 1.524 . S
C1945 C1946 1.397 . S
C1945 C1950 1.363 . S
C1946 H1923 0.950 . S
C1946 C1945 1.397 . S
C1946 C1947 1.334 . S
C1947 H1924 0.950 . S
C1947 C1946 1.334 . S
C1947 C1948 1.287 . S
C1948 C1947 1.287 . S
C1948 C1949 1.524 . S
C1948 H1967 0.913 . S
C1949 H1925 0.950 . S
C1949 C1948 1.524 . S
C1949 C1950 1.415 . S
C1950 H1926 0.950 . S
C1950 C1945 1.363 . S
C1950 C1949 1.415 . S
C1951 H1927 0.951 . S
C1951 C1952 1.366 . S
C1951 C1953 1.388 . S
C1952 C1951 1.366 . S
C1952 C1956 1.385 . S
C1953 H1928 0.951 . S
C1953 C1951 1.388 . S
C1953 C1954 1.366 . S
C1954 C1953 1.366 . S
C1954 C1955 1.414 . S
C1954 C1957 1.499 . S
C1955 H1929 0.950 . S
C1955 C1954 1.414 . S
C1955 C1956 1.374 . S
C1956 H1930 0.950 . S
C1956 C1952 1.385 . S
C1956 C1955 1.374 . S
C1957 C1954 1.499 . S
C1957 C1958 1.373 . S
C1957 C1959 1.389 . S
C1958 H1931 0.950 . S
C1958 C1944 1.377 . S
C1958 C1957 1.373 . S
C1959 C1943 1.377 . S
C1959 C1957 1.389 . S
C1959 C1960 1.524 . S
C1960 C1959 1.524 . S
C1960 C1961 1.397 . S
C1960 C1965 1.363 . S
C1961 H1932 0.950 . S
C1961 C1960 1.397 . S
C1961 C1962 1.334 . S
C1962 H1933 0.950 . S
C1962 C1961 1.334 . S
C1962 C1963 1.287 . S
C1963 C1962 1.287 . S
C1963 C1964 1.524 . S
C1963 H1966 0.999 . S
C1964 H1934 0.950 . S
C1964 C1963 1.524 . S
C1964 C1965 1.415 . S
C1965 H1935 0.950 . S
C1965 C1960 1.363 . S
C1965 C1964 1.415 . S
H1966 C1963 0.999 . S
H1967 C1948 0.913 . S
H1968 C1986 0.951 . S
H1969 C1988 0.951 . S
H1970 C1990 0.950 . S
H1971 C1991 0.950 . S
H1972 C1993 0.950 . S
H1973 C1996 0.950 . S
H1974 C1997 0.950 . S
H1975 C1999 0.950 . S
H1976 C2000 0.950 . S
H1977 C2001 0.951 . S
H1978 C2003 0.951 . S
H1979 C2005 0.950 . S
H1980 C2006 0.950 . S
H1981 C2008 0.950 . S
H1982 C2011 0.950 . S
H1983 C2012 0.950 . S
H1984 C2014 0.950 . S
H1985 C2015 0.950 . S
C1986 H1968 0.951 . S
C1986 C1987 1.366 . S
C1986 C1988 1.388 . S
C1987 C1986 1.366 . S
C1987 C1991 1.385 . S
C1988 H1969 0.951 . S
C1988 C1986 1.388 . S
C1988 C1989 1.366 . S
C1989 C1988 1.366 . S
C1989 C1990 1.414 . S
C1989 C1992 1.499 . S
C1990 H1970 0.950 . S
C1990 C1989 1.414 . S
C1990 C1991 1.374 . S
C1991 H1971 0.950 . S
C1991 C1987 1.385 . S
C1991 C1990 1.374 . S
C1992 C1989 1.499 . S
C1992 C1993 1.373 . S
C1992 C1994 1.389 . S
C1993 H1972 0.950 . S
C1993 C1992 1.373 . S
C1993 C2009 1.377 . S
C1994 C1992 1.389 . S
C1994 C1995 1.524 . S
C1994 C2008 1.377 . S
C1995 C1994 1.524 . S
C1995 C1996 1.397 . S
C1995 C2000 1.363 . S
C1996 H1973 0.950 . S
C1996 C1995 1.397 . S
C1996 C1997 1.334 . S
C1997 H1974 0.950 . S
C1997 C1996 1.334 . S
C1997 C1998 1.287 . S
C1998 C1997 1.287 . S
C1998 C1999 1.524 . S
C1998 H2017 0.913 . S
C1999 H1975 0.950 . S
C1999 C1998 1.524 . S
C1999 C2000 1.415 . S
C2000 H1976 0.950 . S
C2000 C1995 1.363 . S
C2000 C1999 1.415 . S
C2001 H1977 0.951 . S
C2001 C2002 1.366 . S
C2001 C2003 1.388 . S
C2002 C2001 1.366 . S
C2002 C2006 1.385 . S
C2003 H1978 0.951 . S
C2003 C2001 1.388 . S
C2003 C2004 1.366 . S
C2004 C2003 1.366 . S
C2004 C2005 1.414 . S
C2004 C2007 1.499 . S
C2005 H1979 0.950 . S
C2005 C2004 1.414 . S
C2005 C2006 1.374 . S
C2006 H1980 0.950 . S
C2006 C2002 1.385 . S
C2006 C2005 1.374 . S
C2007 C2004 1.499 . S
C2007 C2008 1.373 . S
C2007 C2009 1.389 . S
C2008 H1981 0.950 . S
C2008 C1994 1.377 . S
C2008 C2007 1.373 . S
C2009 C1993 1.377 . S
C2009 C2007 1.389 . S
C2009 C2010 1.524 . S
C2010 C2009 1.524 . S
C2010 C2011 1.397 . S
C2010 C2015 1.363 . S
C2011 H1982 0.950 . S
C2011 C2010 1.397 . S
C2011 C2012 1.334 . S
C2012 H1983 0.950 . S
C2012 C2011 1.334 . S
C2012 C2013 1.287 . S
C2013 C2012 1.287 . S
C2013 C2014 1.524 . S
C2013 H2016 0.999 . S
C2014 H1984 0.950 . S
C2014 C2013 1.524 . S
C2014 C2015 1.415 . S
C2015 H1985 0.950 . S
C2015 C2010 1.363 . S
C2015 C2014 1.415 . S
H2016 C2013 0.999 . S
H2017 C1998 0.913 . S
H2018 C2036 0.951 . S
H2019 C2038 0.951 . S
H2020 C2040 0.950 . S
H2021 C2041 0.950 . S
H2022 C2043 0.950 . S
H2023 C2046 0.950 . S
H2024 C2047 0.950 . S
H2025 C2049 0.950 . S
H2026 C2050 0.950 . S
H2027 C2051 0.951 . S
H2028 C2053 0.951 . S
H2029 C2055 0.950 . S
H2030 C2056 0.950 . S
H2031 C2058 0.950 . S
H2032 C2061 0.950 . S
H2033 C2062 0.950 . S
H2034 C2064 0.950 . S
H2035 C2065 0.950 . S
C2036 H2018 0.951 . S
C2036 C2037 1.366 . S
C2036 C2038 1.388 . S
C2037 C2036 1.366 . S
C2037 C2041 1.385 . S
C2038 H2019 0.951 . S
C2038 C2036 1.388 . S
C2038 C2039 1.366 . S
C2039 C2038 1.366 . S
C2039 C2040 1.414 . S
C2039 C2042 1.499 . S
C2040 H2020 0.950 . S
C2040 C2039 1.414 . S
C2040 C2041 1.374 . S
C2041 H2021 0.950 . S
C2041 C2037 1.385 . S
C2041 C2040 1.374 . S
C2042 C2039 1.499 . S
C2042 C2043 1.373 . S
C2042 C2044 1.389 . S
C2043 H2022 0.950 . S
C2043 C2042 1.373 . S
C2043 C2059 1.377 . S
C2044 C2042 1.389 . S
C2044 C2045 1.524 . S
C2044 C2058 1.377 . S
C2045 C2044 1.524 . S
C2045 C2046 1.397 . S
C2045 C2050 1.363 . S
C2046 H2023 0.950 . S
C2046 C2045 1.397 . S
C2046 C2047 1.334 . S
C2047 H2024 0.950 . S
C2047 C2046 1.334 . S
C2047 C2048 1.287 . S
C2048 C2047 1.287 . S
C2048 C2049 1.524 . S
C2048 H2067 0.913 . S
C2049 H2025 0.950 . S
C2049 C2048 1.524 . S
C2049 C2050 1.415 . S
C2050 H2026 0.950 . S
C2050 C2045 1.363 . S
C2050 C2049 1.415 . S
C2051 H2027 0.951 . S
C2051 C2052 1.366 . S
C2051 C2053 1.388 . S
C2052 C2051 1.366 . S
C2052 C2056 1.385 . S
C2053 H2028 0.951 . S
C2053 C2051 1.388 . S
C2053 C2054 1.366 . S
C2054 C2053 1.366 . S
C2054 C2055 1.414 . S
C2054 C2057 1.499 . S
C2055 H2029 0.950 . S
C2055 C2054 1.414 . S
C2055 C2056 1.374 . S
C2056 H2030 0.950 . S
C2056 C2052 1.385 . S
C2056 C2055 1.374 . S
C2057 C2054 1.499 . S
C2057 C2058 1.373 . S
C2057 C2059 1.389 . S
C2058 H2031 0.950 . S
C2058 C2044 1.377 . S
C2058 C2057 1.373 . S
C2059 C2043 1.377 . S
C2059 C2057 1.389 . S
C2059 C2060 1.524 . S
C2060 C2059 1.524 . S
C2060 C2061 1.397 . S
C2060 C2065 1.363 . S
C2061 H2032 0.950 . S
C2061 C2060 1.397 . S
C2061 C2062 1.334 . S
C2062 H2033 0.950 . S
C2062 C2061 1.334 . S
C2062 C2063 1.287 . S
C2063 C2062 1.287 . S
C2063 C2064 1.524 . S
C2063 H2066 0.999 . S
C2064 H2034 0.950 . S
C2064 C2063 1.524 . S
C2064 C2065 1.415 . S
C2065 H2035 0.950 . S
C2065 C2060 1.363 . S
C2065 C2064 1.415 . S
H2066 C2063 0.999 . S
H2067 C2048 0.913 . S
H2068 C2086 0.951 . S
H2069 C2088 0.951 . S
H2070 C2090 0.950 . S
H2071 C2091 0.950 . S
H2072 C2093 0.950 . S
H2073 C2096 0.950 . S
H2074 C2097 0.950 . S
H2075 C2099 0.950 . S
H2076 C2100 0.950 . S
H2077 C2101 0.951 . S
H2078 C2103 0.951 . S
H2079 C2105 0.950 . S
H2080 C2106 0.950 . S
H2081 C2108 0.950 . S
H2082 C2111 0.950 . S
H2083 C2112 0.950 . S
H2084 C2114 0.950 . S
H2085 C2115 0.950 . S
C2086 H2068 0.951 . S
C2086 C2087 1.366 . S
C2086 C2088 1.388 . S
C2087 C2086 1.366 . S
C2087 C2091 1.385 . S
C2088 H2069 0.951 . S
C2088 C2086 1.388 . S
C2088 C2089 1.366 . S
C2089 C2088 1.366 . S
C2089 C2090 1.414 . S
C2089 C2092 1.499 . S
C2090 H2070 0.950 . S
C2090 C2089 1.414 . S
C2090 C2091 1.374 . S
C2091 H2071 0.950 . S
C2091 C2087 1.385 . S
C2091 C2090 1.374 . S
C2092 C2089 1.499 . S
C2092 C2093 1.373 . S
C2092 C2094 1.389 . S
C2093 H2072 0.950 . S
C2093 C2092 1.373 . S
C2093 C2109 1.377 . S
C2094 C2092 1.389 . S
C2094 C2095 1.524 . S
C2094 C2108 1.377 . S
C2095 C2094 1.524 . S
C2095 C2096 1.397 . S
C2095 C2100 1.363 . S
C2096 H2073 0.950 . S
C2096 C2095 1.397 . S
C2096 C2097 1.334 . S
C2097 H2074 0.950 . S
C2097 C2096 1.334 . S
C2097 C2098 1.287 . S
C2098 C2097 1.287 . S
C2098 C2099 1.524 . S
C2098 H2117 0.913 . S
C2099 H2075 0.950 . S
C2099 C2098 1.524 . S
C2099 C2100 1.415 . S
C2100 H2076 0.950 . S
C2100 C2095 1.363 . S
C2100 C2099 1.415 . S
C2101 H2077 0.951 . S
C2101 C2102 1.366 . S
C2101 C2103 1.388 . S
C2102 C2101 1.366 . S
C2102 C2106 1.385 . S
C2103 H2078 0.951 . S
C2103 C2101 1.388 . S
C2103 C2104 1.366 . S
C2104 C2103 1.366 . S
C2104 C2105 1.414 . S
C2104 C2107 1.499 . S
C2105 H2079 0.950 . S
C2105 C2104 1.414 . S
C2105 C2106 1.374 . S
C2106 H2080 0.950 . S
C2106 C2102 1.385 . S
C2106 C2105 1.374 . S
C2107 C2104 1.499 . S
C2107 C2108 1.373 . S
C2107 C2109 1.389 . S
C2108 H2081 0.950 . S
C2108 C2094 1.377 . S
C2108 C2107 1.373 . S
C2109 C2093 1.377 . S
C2109 C2107 1.389 . S
C2109 C2110 1.524 . S
C2110 C2109 1.524 . S
C2110 C2111 1.397 . S
C2110 C2115 1.363 . S
C2111 H2082 0.950 . S
C2111 C2110 1.397 . S
C2111 C2112 1.334 . S
C2112 H2083 0.950 . S
C2112 C2111 1.334 . S
C2112 C2113 1.287 . S
C2113 C2112 1.287 . S
C2113 C2114 1.524 . S
C2113 H2116 0.999 . S
C2114 H2084 0.950 . S
C2114 C2113 1.524 . S
C2114 C2115 1.415 . S
C2115 H2085 0.950 . S
C2115 C2110 1.363 . S
C2115 C2114 1.415 . S
H2116 C2113 0.999 . S
H2117 C2098 0.913 . S
H2118 C2136 0.951 . S
H2119 C2138 0.951 . S
H2120 C2140 0.950 . S
H2121 C2141 0.950 . S
H2122 C2143 0.950 . S
H2123 C2146 0.950 . S
H2124 C2147 0.950 . S
H2125 C2149 0.950 . S
H2126 C2150 0.950 . S
H2127 C2151 0.951 . S
H2128 C2153 0.951 . S
H2129 C2155 0.950 . S
H2130 C2156 0.950 . S
H2131 C2158 0.950 . S
H2132 C2161 0.950 . S
H2133 C2162 0.950 . S
H2134 C2164 0.950 . S
H2135 C2165 0.950 . S
C2136 H2118 0.951 . S
C2136 C2137 1.366 . S
C2136 C2138 1.388 . S
C2137 C2136 1.366 . S
C2137 C2141 1.385 . S
C2138 H2119 0.951 . S
C2138 C2136 1.388 . S
C2138 C2139 1.366 . S
C2139 C2138 1.366 . S
C2139 C2140 1.414 . S
C2139 C2142 1.499 . S
C2140 H2120 0.950 . S
C2140 C2139 1.414 . S
C2140 C2141 1.374 . S
C2141 H2121 0.950 . S
C2141 C2137 1.385 . S
C2141 C2140 1.374 . S
C2142 C2139 1.499 . S
C2142 C2143 1.373 . S
C2142 C2144 1.389 . S
C2143 H2122 0.950 . S
C2143 C2142 1.373 . S
C2143 C2159 1.377 . S
C2144 C2142 1.389 . S
C2144 C2145 1.524 . S
C2144 C2158 1.377 . S
C2145 C2144 1.524 . S
C2145 C2146 1.397 . S
C2145 C2150 1.363 . S
C2146 H2123 0.950 . S
C2146 C2145 1.397 . S
C2146 C2147 1.334 . S
C2147 H2124 0.950 . S
C2147 C2146 1.334 . S
C2147 C2148 1.287 . S
C2148 C2147 1.287 . S
C2148 C2149 1.524 . S
C2148 H2167 0.913 . S
C2149 H2125 0.950 . S
C2149 C2148 1.524 . S
C2149 C2150 1.415 . S
C2150 H2126 0.950 . S
C2150 C2145 1.363 . S
C2150 C2149 1.415 . S
C2151 H2127 0.951 . S
C2151 C2152 1.366 . S
C2151 C2153 1.388 . S
C2152 C2151 1.366 . S
C2152 C2156 1.385 . S
C2153 H2128 0.951 . S
C2153 C2151 1.388 . S
C2153 C2154 1.366 . S
C2154 C2153 1.366 . S
C2154 C2155 1.414 . S
C2154 C2157 1.499 . S
C2155 H2129 0.950 . S
C2155 C2154 1.414 . S
C2155 C2156 1.374 . S
C2156 H2130 0.950 . S
C2156 C2152 1.385 . S
C2156 C2155 1.374 . S
C2157 C2154 1.499 . S
C2157 C2158 1.373 . S
C2157 C2159 1.389 . S
C2158 H2131 0.950 . S
C2158 C2144 1.377 . S
C2158 C2157 1.373 . S
C2159 C2143 1.377 . S
C2159 C2157 1.389 . S
C2159 C2160 1.524 . S
C2160 C2159 1.524 . S
C2160 C2161 1.397 . S
C2160 C2165 1.363 . S
C2161 H2132 0.950 . S
C2161 C2160 1.397 . S
C2161 C2162 1.334 . S
C2162 H2133 0.950 . S
C2162 C2161 1.334 . S
C2162 C2163 1.287 . S
C2163 C2162 1.287 . S
C2163 C2164 1.524 . S
C2163 H2166 0.999 . S
C2164 H2134 0.950 . S
C2164 C2163 1.524 . S
C2164 C2165 1.415 . S
C2165 H2135 0.950 . S
C2165 C2160 1.363 . S
C2165 C2164 1.415 . S
H2166 C2163 0.999 . S
H2167 C2148 0.913 . S
H2168 C2186 0.951 . S
H2169 C2188 0.951 . S
H2170 C2190 0.950 . S
H2171 C2191 0.950 . S
H2172 C2193 0.950 . S
H2173 C2196 0.950 . S
H2174 C2197 0.950 . S
H2175 C2199 0.950 . S
H2176 C2200 0.950 . S
H2177 C2201 0.951 . S
H2178 C2203 0.951 . S
H2179 C2205 0.950 . S
H2180 C2206 0.950 . S
H2181 C2208 0.950 . S
H2182 C2211 0.950 . S
H2183 C2212 0.950 . S
H2184 C2214 0.950 . S
H2185 C2215 0.950 . S
C2186 H2168 0.951 . S
C2186 C2187 1.366 . S
C2186 C2188 1.388 . S
C2187 C2186 1.366 . S
C2187 C2191 1.385 . S
C2188 H2169 0.951 . S
C2188 C2186 1.388 . S
C2188 C2189 1.366 . S
C2189 C2188 1.366 . S
C2189 C2190 1.414 . S
C2189 C2192 1.499 . S
C2190 H2170 0.950 . S
C2190 C2189 1.414 . S
C2190 C2191 1.374 . S
C2191 H2171 0.950 . S
C2191 C2187 1.385 . S
C2191 C2190 1.374 . S
C2192 C2189 1.499 . S
C2192 C2193 1.373 . S
C2192 C2194 1.389 . S
C2193 H2172 0.950 . S
C2193 C2192 1.373 . S
C2193 C2209 1.377 . S
C2194 C2192 1.389 . S
C2194 C2195 1.524 . S
C2194 C2208 1.377 . S
C2195 C2194 1.524 . S
C2195 C2196 1.397 . S
C2195 C2200 1.363 . S
C2196 H2173 0.950 . S
C2196 C2195 1.397 . S
C2196 C2197 1.334 . S
C2197 H2174 0.950 . S
C2197 C2196 1.334 . S
C2197 C2198 1.287 . S
C2198 C2197 1.287 . S
C2198 C2199 1.524 . S
C2198 H2217 0.913 . S
C2199 H2175 0.950 . S
C2199 C2198 1.524 . S
C2199 C2200 1.415 . S
C2200 H2176 0.950 . S
C2200 C2195 1.363 . S
C2200 C2199 1.415 . S
C2201 H2177 0.951 . S
C2201 C2202 1.366 . S
C2201 C2203 1.388 . S
C2202 C2201 1.366 . S
C2202 C2206 1.385 . S
C2203 H2178 0.951 . S
C2203 C2201 1.388 . S
C2203 C2204 1.366 . S
C2204 C2203 1.366 . S
C2204 C2205 1.414 . S
C2204 C2207 1.499 . S
C2205 H2179 0.950 . S
C2205 C2204 1.414 . S
C2205 C2206 1.374 . S
C2206 H2180 0.950 . S
C2206 C2202 1.385 . S
C2206 C2205 1.374 . S
C2207 C2204 1.499 . S
C2207 C2208 1.373 . S
C2207 C2209 1.389 . S
C2208 H2181 0.950 . S
C2208 C2194 1.377 . S
C2208 C2207 1.373 . S
C2209 C2193 1.377 . S
C2209 C2207 1.389 . S
C2209 C2210 1.524 . S
C2210 C2209 1.524 . S
C2210 C2211 1.397 . S
C2210 C2215 1.363 . S
C2211 H2182 0.950 . S
C2211 C2210 1.397 . S
C2211 C2212 1.334 . S
C2212 H2183 0.950 . S
C2212 C2211 1.334 . S
C2212 C2213 1.287 . S
C2213 C2212 1.287 . S
C2213 C2214 1.524 . S
C2213 H2216 0.999 . S
C2214 H2184 0.950 . S
C2214 C2213 1.524 . S
C2214 C2215 1.415 . S
C2215 H2185 0.950 . S
C2215 C2210 1.363 . S
C2215 C2214 1.415 . S
H2216 C2213 0.999 . S
H2217 C2198 0.913 . S
H2218 C2236 0.951 . S
H2219 C2238 0.951 . S
H2220 C2240 0.950 . S
H2221 C2241 0.950 . S
H2222 C2243 0.950 . S
H2223 C2246 0.950 . S
H2224 C2247 0.950 . S
H2225 C2249 0.950 . S
H2226 C2250 0.950 . S
H2227 C2251 0.951 . S
H2228 C2253 0.951 . S
H2229 C2255 0.950 . S
H2230 C2256 0.950 . S
H2231 C2258 0.950 . S
H2232 C2261 0.950 . S
H2233 C2262 0.950 . S
H2234 C2264 0.950 . S
H2235 C2265 0.950 . S
C2236 H2218 0.951 . S
C2236 C2237 1.366 . S
C2236 C2238 1.388 . S
C2237 C2236 1.366 . S
C2237 C2241 1.385 . S
C2238 H2219 0.951 . S
C2238 C2236 1.388 . S
C2238 C2239 1.366 . S
C2239 C2238 1.366 . S
C2239 C2240 1.414 . S
C2239 C2242 1.499 . S
C2240 H2220 0.950 . S
C2240 C2239 1.414 . S
C2240 C2241 1.374 . S
C2241 H2221 0.950 . S
C2241 C2237 1.385 . S
C2241 C2240 1.374 . S
C2242 C2239 1.499 . S
C2242 C2243 1.373 . S
C2242 C2244 1.389 . S
C2243 H2222 0.950 . S
C2243 C2242 1.373 . S
C2243 C2259 1.377 . S
C2244 C2242 1.389 . S
C2244 C2245 1.524 . S
C2244 C2258 1.377 . S
C2245 C2244 1.524 . S
C2245 C2246 1.397 . S
C2245 C2250 1.363 . S
C2246 H2223 0.950 . S
C2246 C2245 1.397 . S
C2246 C2247 1.334 . S
C2247 H2224 0.950 . S
C2247 C2246 1.334 . S
C2247 C2248 1.287 . S
C2248 C2247 1.287 . S
C2248 C2249 1.524 . S
C2248 H2267 0.913 . S
C2249 H2225 0.950 . S
C2249 C2248 1.524 . S
C2249 C2250 1.415 . S
C2250 H2226 0.950 . S
C2250 C2245 1.363 . S
C2250 C2249 1.415 . S
C2251 H2227 0.951 . S
C2251 C2252 1.366 . S
C2251 C2253 1.388 . S
C2252 C2251 1.366 . S
C2252 C2256 1.385 . S
C2253 H2228 0.951 . S
C2253 C2251 1.388 . S
C2253 C2254 1.366 . S
C2254 C2253 1.366 . S
C2254 C2255 1.414 . S
C2254 C2257 1.499 . S
C2255 H2229 0.950 . S
C2255 C2254 1.414 . S
C2255 C2256 1.374 . S
C2256 H2230 0.950 . S
C2256 C2252 1.385 . S
C2256 C2255 1.374 . S
C2257 C2254 1.499 . S
C2257 C2258 1.373 . S
C2257 C2259 1.389 . S
C2258 H2231 0.950 . S
C2258 C2244 1.377 . S
C2258 C2257 1.373 . S
C2259 C2243 1.377 . S
C2259 C2257 1.389 . S
C2259 C2260 1.524 . S
C2260 C2259 1.524 . S
C2260 C2261 1.397 . S
C2260 C2265 1.363 . S
C2261 H2232 0.950 . S
C2261 C2260 1.397 . S
C2261 C2262 1.334 . S
C2262 H2233 0.950 . S
C2262 C2261 1.334 . S
C2262 C2263 1.287 . S
C2263 C2262 1.287 . S
C2263 C2264 1.524 . S
C2263 H2266 0.999 . S
C2264 H2234 0.950 . S
C2264 C2263 1.524 . S
C2264 C2265 1.415 . S
C2265 H2235 0.950 . S
C2265 C2260 1.363 . S
C2265 C2264 1.415 . S
H2266 C2263 0.999 . S
H2267 C2248 0.913 . S
H2268 C2286 0.951 . S
H2269 C2288 0.951 . S
H2270 C2290 0.950 . S
H2271 C2291 0.950 . S
H2272 C2293 0.950 . S
H2273 C2296 0.950 . S
H2274 C2297 0.950 . S
H2275 C2299 0.950 . S
H2276 C2300 0.950 . S
H2277 C2301 0.951 . S
H2278 C2303 0.951 . S
H2279 C2305 0.950 . S
H2280 C2306 0.950 . S
H2281 C2308 0.950 . S
H2282 C2311 0.950 . S
H2283 C2312 0.950 . S
H2284 C2314 0.950 . S
H2285 C2315 0.950 . S
C2286 H2268 0.951 . S
C2286 C2287 1.366 . S
C2286 C2288 1.388 . S
C2287 C2286 1.366 . S
C2287 C2291 1.385 . S
C2288 H2269 0.951 . S
C2288 C2286 1.388 . S
C2288 C2289 1.366 . S
C2289 C2288 1.366 . S
C2289 C2290 1.414 . S
C2289 C2292 1.499 . S
C2290 H2270 0.950 . S
C2290 C2289 1.414 . S
C2290 C2291 1.374 . S
C2291 H2271 0.950 . S
C2291 C2287 1.385 . S
C2291 C2290 1.374 . S
C2292 C2289 1.499 . S
C2292 C2293 1.373 . S
C2292 C2294 1.389 . S
C2293 H2272 0.950 . S
C2293 C2292 1.373 . S
C2293 C2309 1.377 . S
C2294 C2292 1.389 . S
C2294 C2295 1.524 . S
C2294 C2308 1.377 . S
C2295 C2294 1.524 . S
C2295 C2296 1.397 . S
C2295 C2300 1.363 . S
C2296 H2273 0.950 . S
C2296 C2295 1.397 . S
C2296 C2297 1.334 . S
C2297 H2274 0.950 . S
C2297 C2296 1.334 . S
C2297 C2298 1.287 . S
C2298 C2297 1.287 . S
C2298 C2299 1.524 . S
C2298 H2317 0.913 . S
C2299 H2275 0.950 . S
C2299 C2298 1.524 . S
C2299 C2300 1.415 . S
C2300 H2276 0.950 . S
C2300 C2295 1.363 . S
C2300 C2299 1.415 . S
C2301 H2277 0.951 . S
C2301 C2302 1.366 . S
C2301 C2303 1.388 . S
C2302 C2301 1.366 . S
C2302 C2306 1.385 . S
C2303 H2278 0.951 . S
C2303 C2301 1.388 . S
C2303 C2304 1.366 . S
C2304 C2303 1.366 . S
C2304 C2305 1.414 . S
C2304 C2307 1.499 . S
C2305 H2279 0.950 . S
C2305 C2304 1.414 . S
C2305 C2306 1.374 . S
C2306 H2280 0.950 . S
C2306 C2302 1.385 . S
C2306 C2305 1.374 . S
C2307 C2304 1.499 . S
C2307 C2308 1.373 . S
C2307 C2309 1.389 . S
C2308 H2281 0.950 . S
C2308 C2294 1.377 . S
C2308 C2307 1.373 . S
C2309 C2293 1.377 . S
C2309 C2307 1.389 . S
C2309 C2310 1.524 . S
C2310 C2309 1.524 . S
C2310 C2311 1.397 . S
C2310 C2315 1.363 . S
C2311 H2282 0.950 . S
C2311 C2310 1.397 . S
C2311 C2312 1.334 . S
C2312 H2283 0.950 . S
C2312 C2311 1.334 . S
C2312 C2313 1.287 . S
C2313 C2312 1.287 . S
C2313 C2314 1.524 . S
C2313 H2316 0.999 . S
C2314 H2284 0.950 . S
C2314 C2313 1.524 . S
C2314 C2315 1.415 . S
C2315 H2285 0.950 . S
C2315 C2310 1.363 . S
C2315 C2314 1.415 . S
H2316 C2313 0.999 . S
H2317 C2298 0.913 . S
H2318 C2336 0.951 . S
H2319 C2338 0.951 . S
H2320 C2340 0.950 . S
H2321 C2341 0.950 . S
H2322 C2343 0.950 . S
H2323 C2346 0.950 . S
H2324 C2347 0.950 . S
H2325 C2349 0.950 . S
H2326 C2350 0.950 . S
H2327 C2351 0.951 . S
H2328 C2353 0.951 . S
H2329 C2355 0.950 . S
H2330 C2356 0.950 . S
H2331 C2358 0.950 . S
H2332 C2361 0.950 . S
H2333 C2362 0.950 . S
H2334 C2364 0.950 . S
H2335 C2365 0.950 . S
C2336 H2318 0.951 . S
C2336 C2337 1.366 . S
C2336 C2338 1.388 . S
C2337 C2336 1.366 . S
C2337 C2341 1.385 . S
C2338 H2319 0.951 . S
C2338 C2336 1.388 . S
C2338 C2339 1.366 . S
C2339 C2338 1.366 . S
C2339 C2340 1.414 . S
C2339 C2342 1.499 . S
C2340 H2320 0.950 . S
C2340 C2339 1.414 . S
C2340 C2341 1.374 . S
C2341 H2321 0.950 . S
C2341 C2337 1.385 . S
C2341 C2340 1.374 . S
C2342 C2339 1.499 . S
C2342 C2343 1.373 . S
C2342 C2344 1.389 . S
C2343 H2322 0.950 . S
C2343 C2342 1.373 . S
C2343 C2359 1.377 . S
C2344 C2342 1.389 . S
C2344 C2345 1.524 . S
C2344 C2358 1.377 . S
C2345 C2344 1.524 . S
C2345 C2346 1.397 . S
C2345 C2350 1.363 . S
C2346 H2323 0.950 . S
C2346 C2345 1.397 . S
C2346 C2347 1.334 . S
C2347 H2324 0.950 . S
C2347 C2346 1.334 . S
C2347 C2348 1.287 . S
C2348 C2347 1.287 . S
C2348 C2349 1.524 . S
C2348 H2367 0.913 . S
C2349 H2325 0.950 . S
C2349 C2348 1.524 . S
C2349 C2350 1.415 . S
C2350 H2326 0.950 . S
C2350 C2345 1.363 . S
C2350 C2349 1.415 . S
C2351 H2327 0.951 . S
C2351 C2352 1.366 . S
C2351 C2353 1.388 . S
C2352 C2351 1.366 . S
C2352 C2356 1.385 . S
C2353 H2328 0.951 . S
C2353 C2351 1.388 . S
C2353 C2354 1.366 . S
C2354 C2353 1.366 . S
C2354 C2355 1.414 . S
C2354 C2357 1.499 . S
C2355 H2329 0.950 . S
C2355 C2354 1.414 . S
C2355 C2356 1.374 . S
C2356 H2330 0.950 . S
C2356 C2352 1.385 . S
C2356 C2355 1.374 . S
C2357 C2354 1.499 . S
C2357 C2358 1.373 . S
C2357 C2359 1.389 . S
C2358 H2331 0.950 . S
C2358 C2344 1.377 . S
C2358 C2357 1.373 . S
C2359 C2343 1.377 . S
C2359 C2357 1.389 . S
C2359 C2360 1.524 . S
C2360 C2359 1.524 . S
C2360 C2361 1.397 . S
C2360 C2365 1.363 . S
C2361 H2332 0.950 . S
C2361 C2360 1.397 . S
C2361 C2362 1.334 . S
C2362 H2333 0.950 . S
C2362 C2361 1.334 . S
C2362 C2363 1.287 . S
C2363 C2362 1.287 . S
C2363 C2364 1.524 . S
C2363 H2366 0.999 . S
C2364 H2334 0.950 . S
C2364 C2363 1.524 . S
C2364 C2365 1.415 . S
C2365 H2335 0.950 . S
C2365 C2360 1.363 . S
C2365 C2364 1.415 . S
H2366 C2363 0.999 . S
H2367 C2348 0.913 . S
H2368 C2386 0.951 . S
H2369 C2388 0.951 . S
H2370 C2390 0.950 . S
H2371 C2391 0.950 . S
H2372 C2393 0.950 . S
H2373 C2396 0.950 . S
H2374 C2397 0.950 . S
H2375 C2399 0.950 . S
H2376 C2400 0.950 . S
H2377 C2401 0.951 . S
H2378 C2403 0.951 . S
H2379 C2405 0.950 . S
H2380 C2406 0.950 . S
H2381 C2408 0.950 . S
H2382 C2411 0.950 . S
H2383 C2412 0.950 . S
H2384 C2414 0.950 . S
H2385 C2415 0.950 . S
C2386 H2368 0.951 . S
C2386 C2387 1.366 . S
C2386 C2388 1.388 . S
C2387 C2386 1.366 . S
C2387 C2391 1.385 . S
C2388 H2369 0.951 . S
C2388 C2386 1.388 . S
C2388 C2389 1.366 . S
C2389 C2388 1.366 . S
C2389 C2390 1.414 . S
C2389 C2392 1.499 . S
C2390 H2370 0.950 . S
C2390 C2389 1.414 . S
C2390 C2391 1.374 . S
C2391 H2371 0.950 . S
C2391 C2387 1.385 . S
C2391 C2390 1.374 . S
C2392 C2389 1.499 . S
C2392 C2393 1.373 . S
C2392 C2394 1.389 . S
C2393 H2372 0.950 . S
C2393 C2392 1.373 . S
C2393 C2409 1.377 . S
C2394 C2392 1.389 . S
C2394 C2395 1.524 . S
C2394 C2408 1.377 . S
C2395 C2394 1.524 . S
C2395 C2396 1.397 . S
C2395 C2400 1.363 . S
C2396 H2373 0.950 . S
C2396 C2395 1.397 . S
C2396 C2397 1.334 . S
C2397 H2374 0.950 . S
C2397 C2396 1.334 . S
C2397 C2398 1.287 . S
C2398 C2397 1.287 . S
C2398 C2399 1.524 . S
C2398 H2417 0.913 . S
C2399 H2375 0.950 . S
C2399 C2398 1.524 . S
C2399 C2400 1.415 . S
C2400 H2376 0.950 . S
C2400 C2395 1.363 . S
C2400 C2399 1.415 . S
C2401 H2377 0.951 . S
C2401 C2402 1.366 . S
C2401 C2403 1.388 . S
C2402 C2401 1.366 . S
C2402 C2406 1.385 . S
C2403 H2378 0.951 . S
C2403 C2401 1.388 . S
C2403 C2404 1.366 . S
C2404 C2403 1.366 . S
C2404 C2405 1.414 . S
C2404 C2407 1.499 . S
C2405 H2379 0.950 . S
C2405 C2404 1.414 . S
C2405 C2406 1.374 . S
C2406 H2380 0.950 . S
C2406 C2402 1.385 . S
C2406 C2405 1.374 . S
C2407 C2404 1.499 . S
C2407 C2408 1.373 . S
C2407 C2409 1.389 . S
C2408 H2381 0.950 . S
C2408 C2394 1.377 . S
C2408 C2407 1.373 . S
C2409 C2393 1.377 . S
C2409 C2407 1.389 . S
C2409 C2410 1.524 . S
C2410 C2409 1.524 . S
C2410 C2411 1.397 . S
C2410 C2415 1.363 . S
C2411 H2382 0.950 . S
C2411 C2410 1.397 . S
C2411 C2412 1.334 . S
C2412 H2383 0.950 . S
C2412 C2411 1.334 . S
C2412 C2413 1.287 . S
C2413 C2412 1.287 . S
C2413 C2414 1.524 . S
C2413 H2416 0.999 . S
C2414 H2384 0.950 . S
C2414 C2413 1.524 . S
C2414 C2415 1.415 . S
C2415 H2385 0.950 . S
C2415 C2410 1.363 . S
C2415 C2414 1.415 . S
H2416 C2413 0.999 . S
H2417 C2398 0.913 . S
H2418 C2436 0.951 . S
H2419 C2438 0.951 . S
H2420 C2440 0.950 . S
H2421 C2441 0.950 . S
H2422 C2443 0.950 . S
H2423 C2446 0.950 . S
H2424 C2447 0.950 . S
H2425 C2449 0.950 . S
H2426 C2450 0.950 . S
H2427 C2451 0.951 . S
H2428 C2453 0.951 . S
H2429 C2455 0.950 . S
H2430 C2456 0.950 . S
H2431 C2458 0.950 . S
H2432 C2461 0.950 . S
H2433 C2462 0.950 . S
H2434 C2464 0.950 . S
H2435 C2465 0.950 . S
C2436 H2418 0.951 . S
C2436 C2437 1.366 . S
C2436 C2438 1.388 . S
C2437 C2436 1.366 . S
C2437 C2441 1.385 . S
C2438 H2419 0.951 . S
C2438 C2436 1.388 . S
C2438 C2439 1.366 . S
C2439 C2438 1.366 . S
C2439 C2440 1.414 . S
C2439 C2442 1.499 . S
C2440 H2420 0.950 . S
C2440 C2439 1.414 . S
C2440 C2441 1.374 . S
C2441 H2421 0.950 . S
C2441 C2437 1.385 . S
C2441 C2440 1.374 . S
C2442 C2439 1.499 . S
C2442 C2443 1.373 . S
C2442 C2444 1.389 . S
C2443 H2422 0.950 . S
C2443 C2442 1.373 . S
C2443 C2459 1.377 . S
C2444 C2442 1.389 . S
C2444 C2445 1.524 . S
C2444 C2458 1.377 . S
C2445 C2444 1.524 . S
C2445 C2446 1.397 . S
C2445 C2450 1.363 . S
C2446 H2423 0.950 . S
C2446 C2445 1.397 . S
C2446 C2447 1.334 . S
C2447 H2424 0.950 . S
C2447 C2446 1.334 . S
C2447 C2448 1.287 . S
C2448 C2447 1.287 . S
C2448 C2449 1.524 . S
C2448 H2467 0.913 . S
C2449 H2425 0.950 . S
C2449 C2448 1.524 . S
C2449 C2450 1.415 . S
C2450 H2426 0.950 . S
C2450 C2445 1.363 . S
C2450 C2449 1.415 . S
C2451 H2427 0.951 . S
C2451 C2452 1.366 . S
C2451 C2453 1.388 . S
C2452 C2451 1.366 . S
C2452 C2456 1.385 . S
C2453 H2428 0.951 . S
C2453 C2451 1.388 . S
C2453 C2454 1.366 . S
C2454 C2453 1.366 . S
C2454 C2455 1.414 . S
C2454 C2457 1.499 . S
C2455 H2429 0.950 . S
C2455 C2454 1.414 . S
C2455 C2456 1.374 . S
C2456 H2430 0.950 . S
C2456 C2452 1.385 . S
C2456 C2455 1.374 . S
C2457 C2454 1.499 . S
C2457 C2458 1.373 . S
C2457 C2459 1.389 . S
C2458 H2431 0.950 . S
C2458 C2444 1.377 . S
C2458 C2457 1.373 . S
C2459 C2443 1.377 . S
C2459 C2457 1.389 . S
C2459 C2460 1.524 . S
C2460 C2459 1.524 . S
C2460 C2461 1.397 . S
C2460 C2465 1.363 . S
C2461 H2432 0.950 . S
C2461 C2460 1.397 . S
C2461 C2462 1.334 . S
C2462 H2433 0.950 . S
C2462 C2461 1.334 . S
C2462 C2463 1.287 . S
C2463 C2462 1.287 . S
C2463 C2464 1.524 . S
C2463 H2466 0.999 . S
C2464 H2434 0.950 . S
C2464 C2463 1.524 . S
C2464 C2465 1.415 . S
C2465 H2435 0.950 . S
C2465 C2460 1.363 . S
C2465 C2464 1.415 . S
H2466 C2463 0.999 . S
H2467 C2448 0.913 . S
H2468 C2486 0.951 . S
H2469 C2488 0.951 . S
H2470 C2490 0.950 . S
H2471 C2491 0.950 . S
H2472 C2493 0.950 . S
H2473 C2496 0.950 . S
H2474 C2497 0.950 . S
H2475 C2499 0.950 . S
H2476 C2500 0.950 . S
H2477 C2501 0.951 . S
H2478 C2503 0.951 . S
H2479 C2505 0.950 . S
H2480 C2506 0.950 . S
H2481 C2508 0.950 . S
H2482 C2511 0.950 . S
H2483 C2512 0.950 . S
H2484 C2514 0.950 . S
H2485 C2515 0.950 . S
C2486 H2468 0.951 . S
C2486 C2487 1.366 . S
C2486 C2488 1.388 . S
C2487 C2486 1.366 . S
C2487 C2491 1.385 . S
C2488 H2469 0.951 . S
C2488 C2486 1.388 . S
C2488 C2489 1.366 . S
C2489 C2488 1.366 . S
C2489 C2490 1.414 . S
C2489 C2492 1.499 . S
C2490 H2470 0.950 . S
C2490 C2489 1.414 . S
C2490 C2491 1.374 . S
C2491 H2471 0.950 . S
C2491 C2487 1.385 . S
C2491 C2490 1.374 . S
C2492 C2489 1.499 . S
C2492 C2493 1.373 . S
C2492 C2494 1.389 . S
C2493 H2472 0.950 . S
C2493 C2492 1.373 . S
C2493 C2509 1.377 . S
C2494 C2492 1.389 . S
C2494 C2495 1.524 . S
C2494 C2508 1.377 . S
C2495 C2494 1.524 . S
C2495 C2496 1.397 . S
C2495 C2500 1.363 . S
C2496 H2473 0.950 . S
C2496 C2495 1.397 . S
C2496 C2497 1.334 . S
C2497 H2474 0.950 . S
C2497 C2496 1.334 . S
C2497 C2498 1.287 . S
C2498 C2497 1.287 . S
C2498 C2499 1.524 . S
C2498 H2517 0.913 . S
C2499 H2475 0.950 . S
C2499 C2498 1.524 . S
C2499 C2500 1.415 . S
C2500 H2476 0.950 . S
C2500 C2495 1.363 . S
C2500 C2499 1.415 . S
C2501 H2477 0.951 . S
C2501 C2502 1.366 . S
C2501 C2503 1.388 . S
C2502 C2501 1.366 . S
C2502 C2506 1.385 . S
C2503 H2478 0.951 . S
C2503 C2501 1.388 . S
C2503 C2504 1.366 . S
C2504 C2503 1.366 . S
C2504 C2505 1.414 . S
C2504 C2507 1.499 . S
C2505 H2479 0.950 . S
C2505 C2504 1.414 . S
C2505 C2506 1.374 . S
C2506 H2480 0.950 . S
C2506 C2502 1.385 . S
C2506 C2505 1.374 . S
C2507 C2504 1.499 . S
C2507 C2508 1.373 . S
C2507 C2509 1.389 . S
C2508 H2481 0.950 . S
C2508 C2494 1.377 . S
C2508 C2507 1.373 . S
C2509 C2493 1.377 . S
C2509 C2507 1.389 . S
C2509 C2510 1.524 . S
C2510 C2509 1.524 . S
C2510 C2511 1.397 . S
C2510 C2515 1.363 . S
C2511 H2482 0.950 . S
C2511 C2510 1.397 . S
C2511 C2512 1.334 . S
C2512 H2483 0.950 . S
C2512 C2511 1.334 . S
C2512 C2513 1.287 . S
C2513 C2512 1.287 . S
C2513 C2514 1.524 . S
C2513 H2516 0.999 . S
C2514 H2484 0.950 . S
C2514 C2513 1.524 . S
C2514 C2515 1.415 . S
C2515 H2485 0.950 . S
C2515 C2510 1.363 . S
C2515 C2514 1.415 . S
H2516 C2513 0.999 . S
H2517 C2498 0.913 . S
H2518 C2536 0.951 . S
H2519 C2538 0.951 . S
H2520 C2540 0.950 . S
H2521 C2541 0.950 . S
H2522 C2543 0.950 . S
H2523 C2546 0.950 . S
H2524 C2547 0.950 . S
H2525 C2549 0.950 . S
H2526 C2550 0.950 . S
H2527 C2551 0.951 . S
H2528 C2553 0.951 . S
H2529 C2555 0.950 . S
H2530 C2556 0.950 . S
H2531 C2558 0.950 . S
H2532 C2561 0.950 . S
H2533 C2562 0.950 . S
H2534 C2564 0.950 . S
H2535 C2565 0.950 . S
C2536 H2518 0.951 . S
C2536 C2537 1.366 . S
C2536 C2538 1.388 . S
C2537 C2536 1.366 . S
C2537 C2541 1.385 . S
C2538 H2519 0.951 . S
C2538 C2536 1.388 . S
C2538 C2539 1.366 . S
C2539 C2538 1.366 . S
C2539 C2540 1.414 . S
C2539 C2542 1.499 . S
C2540 H2520 0.950 . S
C2540 C2539 1.414 . S
C2540 C2541 1.374 . S
C2541 H2521 0.950 . S
C2541 C2537 1.385 . S
C2541 C2540 1.374 . S
C2542 C2539 1.499 . S
C2542 C2543 1.373 . S
C2542 C2544 1.389 . S
C2543 H2522 0.950 . S
C2543 C2542 1.373 . S
C2543 C2559 1.377 . S
C2544 C2542 1.389 . S
C2544 C2545 1.524 . S
C2544 C2558 1.377 . S
C2545 C2544 1.524 . S
C2545 C2546 1.397 . S
C2545 C2550 1.363 . S
C2546 H2523 0.950 . S
C2546 C2545 1.397 . S
C2546 C2547 1.334 . S
C2547 H2524 0.950 . S
C2547 C2546 1.334 . S
C2547 C2548 1.287 . S
C2548 C2547 1.287 . S
C2548 C2549 1.524 . S
C2548 H2567 0.913 . S
C2549 H2525 0.950 . S
C2549 C2548 1.524 . S
C2549 C2550 1.415 . S
C2550 H2526 0.950 . S
C2550 C2545 1.363 . S
C2550 C2549 1.415 . S
C2551 H2527 0.951 . S
C2551 C2552 1.366 . S
C2551 C2553 1.388 . S
C2552 C2551 1.366 . S
C2552 C2556 1.385 . S
C2553 H2528 0.951 . S
C2553 C2551 1.388 . S
C2553 C2554 1.366 . S
C2554 C2553 1.366 . S
C2554 C2555 1.414 . S
C2554 C2557 1.499 . S
C2555 H2529 0.950 . S
C2555 C2554 1.414 . S
C2555 C2556 1.374 . S
C2556 H2530 0.950 . S
C2556 C2552 1.385 . S
C2556 C2555 1.374 . S
C2557 C2554 1.499 . S
C2557 C2558 1.373 . S
C2557 C2559 1.389 . S
C2558 H2531 0.950 . S
C2558 C2544 1.377 . S
C2558 C2557 1.373 . S
C2559 C2543 1.377 . S
C2559 C2557 1.389 . S
C2559 C2560 1.524 . S
C2560 C2559 1.524 . S
C2560 C2561 1.397 . S
C2560 C2565 1.363 . S
C2561 H2532 0.950 . S
C2561 C2560 1.397 . S
C2561 C2562 1.334 . S
C2562 H2533 0.950 . S
C2562 C2561 1.334 . S
C2562 C2563 1.287 . S
C2563 C2562 1.287 . S
C2563 C2564 1.524 . S
C2563 H2566 0.999 . S
C2564 H2534 0.950 . S
C2564 C2563 1.524 . S
C2564 C2565 1.415 . S
C2565 H2535 0.950 . S
C2565 C2560 1.363 . S
C2565 C2564 1.415 . S
H2566 C2563 0.999 . S
H2567 C2548 0.913 . S
H2568 C2586 0.951 . S
H2569 C2588 0.951 . S
H2570 C2590 0.950 . S
H2571 C2591 0.950 . S
H2572 C2593 0.950 . S
H2573 C2596 0.950 . S
H2574 C2597 0.950 . S
H2575 C2599 0.950 . S
H2576 C2600 0.950 . S
H2577 C2601 0.951 . S
H2578 C2603 0.951 . S
H2579 C2605 0.950 . S
H2580 C2606 0.950 . S
H2581 C2608 0.950 . S
H2582 C2611 0.950 . S
H2583 C2612 0.950 . S
H2584 C2614 0.950 . S
H2585 C2615 0.950 . S
C2586 H2568 0.951 . S
C2586 C2587 1.366 . S
C2586 C2588 1.388 . S
C2587 C2586 1.366 . S
C2587 C2591 1.385 . S
C2588 H2569 0.951 . S
C2588 C2586 1.388 . S
C2588 C2589 1.366 . S
C2589 C2588 1.366 . S
C2589 C2590 1.414 . S
C2589 C2592 1.499 . S
C2590 H2570 0.950 . S
C2590 C2589 1.414 . S
C2590 C2591 1.374 . S
C2591 H2571 0.950 . S
C2591 C2587 1.385 . S
C2591 C2590 1.374 . S
C2592 C2589 1.499 . S
C2592 C2593 1.373 . S
C2592 C2594 1.389 . S
C2593 H2572 0.950 . S
C2593 C2592 1.373 . S
C2593 C2609 1.377 . S
C2594 C2592 1.389 . S
C2594 C2595 1.524 . S
C2594 C2608 1.377 . S
C2595 C2594 1.524 . S
C2595 C2596 1.397 . S
C2595 C2600 1.363 . S
C2596 H2573 0.950 . S
C2596 C2595 1.397 . S
C2596 C2597 1.334 . S
C2597 H2574 0.950 . S
C2597 C2596 1.334 . S
C2597 C2598 1.287 . S
C2598 C2597 1.287 . S
C2598 C2599 1.524 . S
C2598 H2617 0.913 . S
C2599 H2575 0.950 . S
C2599 C2598 1.524 . S
C2599 C2600 1.415 . S
C2600 H2576 0.950 . S
C2600 C2595 1.363 . S
C2600 C2599 1.415 . S
C2601 H2577 0.951 . S
C2601 C2602 1.366 . S
C2601 C2603 1.388 . S
C2602 C2601 1.366 . S
C2602 C2606 1.385 . S
C2603 H2578 0.951 . S
C2603 C2601 1.388 . S
C2603 C2604 1.366 . S
C2604 C2603 1.366 . S
C2604 C2605 1.414 . S
C2604 C2607 1.499 . S
C2605 H2579 0.950 . S
C2605 C2604 1.414 . S
C2605 C2606 1.374 . S
C2606 H2580 0.950 . S
C2606 C2602 1.385 . S
C2606 C2605 1.374 . S
C2607 C2604 1.499 . S
C2607 C2608 1.373 . S
C2607 C2609 1.389 . S
C2608 H2581 0.950 . S
C2608 C2594 1.377 . S
C2608 C2607 1.373 . S
C2609 C2593 1.377 . S
C2609 C2607 1.389 . S
C2609 C2610 1.524 . S
C2610 C2609 1.524 . S
C2610 C2611 1.397 . S
C2610 C2615 1.363 . S
C2611 H2582 0.950 . S
C2611 C2610 1.397 . S
C2611 C2612 1.334 . S
C2612 H2583 0.950 . S
C2612 C2611 1.334 . S
C2612 C2613 1.287 . S
C2613 C2612 1.287 . S
C2613 C2614 1.524 . S
C2613 H2616 0.999 . S
C2614 H2584 0.950 . S
C2614 C2613 1.524 . S
C2614 C2615 1.415 . S
C2615 H2585 0.950 . S
C2615 C2610 1.363 . S
C2615 C2614 1.415 . S
H2616 C2613 0.999 . S
H2617 C2598 0.913 . S
H2618 C2636 0.951 . S
H2619 C2638 0.951 . S
H2620 C2640 0.950 . S
H2621 C2641 0.950 . S
H2622 C2643 0.950 . S
H2623 C2646 0.950 . S
H2624 C2647 0.950 . S
H2625 C2649 0.950 . S
H2626 C2650 0.950 . S
H2627 C2651 0.951 . S
H2628 C2653 0.951 . S
H2629 C2655 0.950 . S
H2630 C2656 0.950 . S
H2631 C2658 0.950 . S
H2632 C2661 0.950 . S
H2633 C2662 0.950 . S
H2634 C2664 0.950 . S
H2635 C2665 0.950 . S
C2636 H2618 0.951 . S
C2636 C2637 1.366 . S
C2636 C2638 1.388 . S
C2637 C2636 1.366 . S
C2637 C2641 1.385 . S
C2638 H2619 0.951 . S
C2638 C2636 1.388 . S
C2638 C2639 1.366 . S
C2639 C2638 1.366 . S
C2639 C2640 1.414 . S
C2639 C2642 1.499 . S
C2640 H2620 0.950 . S
C2640 C2639 1.414 . S
C2640 C2641 1.374 . S
C2641 H2621 0.950 . S
C2641 C2637 1.385 . S
C2641 C2640 1.374 . S
C2642 C2639 1.499 . S
C2642 C2643 1.373 . S
C2642 C2644 1.389 . S
C2643 H2622 0.950 . S
C2643 C2642 1.373 . S
C2643 C2659 1.377 . S
C2644 C2642 1.389 . S
C2644 C2645 1.524 . S
C2644 C2658 1.377 . S
C2645 C2644 1.524 . S
C2645 C2646 1.397 . S
C2645 C2650 1.363 . S
C2646 H2623 0.950 . S
C2646 C2645 1.397 . S
C2646 C2647 1.334 . S
C2647 H2624 0.950 . S
C2647 C2646 1.334 . S
C2647 C2648 1.287 . S
C2648 C2647 1.287 . S
C2648 C2649 1.524 . S
C2648 H2667 0.913 . S
C2649 H2625 0.950 . S
C2649 C2648 1.524 . S
C2649 C2650 1.415 . S
C2650 H2626 0.950 . S
C2650 C2645 1.363 . S
C2650 C2649 1.415 . S
C2651 H2627 0.951 . S
C2651 C2652 1.366 . S
C2651 C2653 1.388 . S
C2652 C2651 1.366 . S
C2652 C2656 1.385 . S
C2653 H2628 0.951 . S
C2653 C2651 1.388 . S
C2653 C2654 1.366 . S
C2654 C2653 1.366 . S
C2654 C2655 1.414 . S
C2654 C2657 1.499 . S
C2655 H2629 0.950 . S
C2655 C2654 1.414 . S
C2655 C2656 1.374 . S
C2656 H2630 0.950 . S
C2656 C2652 1.385 . S
C2656 C2655 1.374 . S
C2657 C2654 1.499 . S
C2657 C2658 1.373 . S
C2657 C2659 1.389 . S
C2658 H2631 0.950 . S
C2658 C2644 1.377 . S
C2658 C2657 1.373 . S
C2659 C2643 1.377 . S
C2659 C2657 1.389 . S
C2659 C2660 1.524 . S
C2660 C2659 1.524 . S
C2660 C2661 1.397 . S
C2660 C2665 1.363 . S
C2661 H2632 0.950 . S
C2661 C2660 1.397 . S
C2661 C2662 1.334 . S
C2662 H2633 0.950 . S
C2662 C2661 1.334 . S
C2662 C2663 1.287 . S
C2663 C2662 1.287 . S
C2663 C2664 1.524 . S
C2663 H2666 0.999 . S
C2664 H2634 0.950 . S
C2664 C2663 1.524 . S
C2664 C2665 1.415 . S
C2665 H2635 0.950 . S
C2665 C2660 1.363 . S
C2665 C2664 1.415 . S
H2666 C2663 0.999 . S
H2667 C2648 0.913 . S
H2668 C2686 0.951 . S
H2669 C2688 0.951 . S
H2670 C2690 0.950 . S
H2671 C2691 0.950 . S
H2672 C2693 0.950 . S
H2673 C2696 0.950 . S
H2674 C2697 0.950 . S
H2675 C2699 0.950 . S
H2676 C2700 0.950 . S
H2677 C2701 0.951 . S
H2678 C2703 0.951 . S
H2679 C2705 0.950 . S
H2680 C2706 0.950 . S
H2681 C2708 0.950 . S
H2682 C2711 0.950 . S
H2683 C2712 0.950 . S
H2684 C2714 0.950 . S
H2685 C2715 0.950 . S
C2686 H2668 0.951 . S
C2686 C2687 1.366 . S
C2686 C2688 1.388 . S
C2687 C2686 1.366 . S
C2687 C2691 1.385 . S
C2688 H2669 0.951 . S
C2688 C2686 1.388 . S
C2688 C2689 1.366 . S
C2689 C2688 1.366 . S
C2689 C2690 1.414 . S
C2689 C2692 1.499 . S
C2690 H2670 0.950 . S
C2690 C2689 1.414 . S
C2690 C2691 1.374 . S
C2691 H2671 0.950 . S
C2691 C2687 1.385 . S
C2691 C2690 1.374 . S
C2692 C2689 1.499 . S
C2692 C2693 1.373 . S
C2692 C2694 1.389 . S
C2693 H2672 0.950 . S
C2693 C2692 1.373 . S
C2693 C2709 1.377 . S
C2694 C2692 1.389 . S
C2694 C2695 1.524 . S
C2694 C2708 1.377 . S
C2695 C2694 1.524 . S
C2695 C2696 1.397 . S
C2695 C2700 1.363 . S
C2696 H2673 0.950 . S
C2696 C2695 1.397 . S
C2696 C2697 1.334 . S
C2697 H2674 0.950 . S
C2697 C2696 1.334 . S
C2697 C2698 1.287 . S
C2698 C2697 1.287 . S
C2698 C2699 1.524 . S
C2698 H2717 0.913 . S
C2699 H2675 0.950 . S
C2699 C2698 1.524 . S
C2699 C2700 1.415 . S
C2700 H2676 0.950 . S
C2700 C2695 1.363 . S
C2700 C2699 1.415 . S
C2701 H2677 0.951 . S
C2701 C2702 1.366 . S
C2701 C2703 1.388 . S
C2702 C2701 1.366 . S
C2702 C2706 1.385 . S
C2703 H2678 0.951 . S
C2703 C2701 1.388 . S
C2703 C2704 1.366 . S
C2704 C2703 1.366 . S
C2704 C2705 1.414 . S
C2704 C2707 1.499 . S
C2705 H2679 0.950 . S
C2705 C2704 1.414 . S
C2705 C2706 1.374 . S
C2706 H2680 0.950 . S
C2706 C2702 1.385 . S
C2706 C2705 1.374 . S
C2707 C2704 1.499 . S
C2707 C2708 1.373 . S
C2707 C2709 1.389 . S
C2708 H2681 0.950 . S
C2708 C2694 1.377 . S
C2708 C2707 1.373 . S
C2709 C2693 1.377 . S
C2709 C2707 1.389 . S
C2709 C2710 1.524 . S
C2710 C2709 1.524 . S
C2710 C2711 1.397 . S
C2710 C2715 1.363 . S
C2711 H2682 0.950 . S
C2711 C2710 1.397 . S
C2711 C2712 1.334 . S
C2712 H2683 0.950 . S
C2712 C2711 1.334 . S
C2712 C2713 1.287 . S
C2713 C2712 1.287 . S
C2713 C2714 1.524 . S
C2713 H2716 0.999 . S
C2714 H2684 0.950 . S
C2714 C2713 1.524 . S
C2714 C2715 1.415 . S
C2715 H2685 0.950 . S
C2715 C2710 1.363 . S
C2715 C2714 1.415 . S
H2716 C2713 0.999 . S
H2717 C2698 0.913 . S
H2718 C2736 0.951 . S
H2719 C2738 0.951 . S
H2720 C2740 0.950 . S
H2721 C2741 0.950 . S
H2722 C2743 0.950 . S
H2723 C2746 0.950 . S
H2724 C2747 0.950 . S
H2725 C2749 0.950 . S
H2726 C2750 0.950 . S
H2727 C2751 0.951 . S
H2728 C2753 0.951 . S
H2729 C2755 0.950 . S
H2730 C2756 0.950 . S
H2731 C2758 0.950 . S
H2732 C2761 0.950 . S
H2733 C2762 0.950 . S
H2734 C2764 0.950 . S
H2735 C2765 0.950 . S
C2736 H2718 0.951 . S
C2736 C2737 1.366 . S
C2736 C2738 1.388 . S
C2737 C2736 1.366 . S
C2737 C2741 1.385 . S
C2738 H2719 0.951 . S
C2738 C2736 1.388 . S
C2738 C2739 1.366 . S
C2739 C2738 1.366 . S
C2739 C2740 1.414 . S
C2739 C2742 1.499 . S
C2740 H2720 0.950 . S
C2740 C2739 1.414 . S
C2740 C2741 1.374 . S
C2741 H2721 0.950 . S
C2741 C2737 1.385 . S
C2741 C2740 1.374 . S
C2742 C2739 1.499 . S
C2742 C2743 1.373 . S
C2742 C2744 1.389 . S
C2743 H2722 0.950 . S
C2743 C2742 1.373 . S
C2743 C2759 1.377 . S
C2744 C2742 1.389 . S
C2744 C2745 1.524 . S
C2744 C2758 1.377 . S
C2745 C2744 1.524 . S
C2745 C2746 1.397 . S
C2745 C2750 1.363 . S
C2746 H2723 0.950 . S
C2746 C2745 1.397 . S
C2746 C2747 1.334 . S
C2747 H2724 0.950 . S
C2747 C2746 1.334 . S
C2747 C2748 1.287 . S
C2748 C2747 1.287 . S
C2748 C2749 1.524 . S
C2748 H2767 0.913 . S
C2749 H2725 0.950 . S
C2749 C2748 1.524 . S
C2749 C2750 1.415 . S
C2750 H2726 0.950 . S
C2750 C2745 1.363 . S
C2750 C2749 1.415 . S
C2751 H2727 0.951 . S
C2751 C2752 1.366 . S
C2751 C2753 1.388 . S
C2752 C2751 1.366 . S
C2752 C2756 1.385 . S
C2753 H2728 0.951 . S
C2753 C2751 1.388 . S
C2753 C2754 1.366 . S
C2754 C2753 1.366 . S
C2754 C2755 1.414 . S
C2754 C2757 1.499 . S
C2755 H2729 0.950 . S
C2755 C2754 1.414 . S
C2755 C2756 1.374 . S
C2756 H2730 0.950 . S
C2756 C2752 1.385 . S
C2756 C2755 1.374 . S
C2757 C2754 1.499 . S
C2757 C2758 1.373 . S
C2757 C2759 1.389 . S
C2758 H2731 0.950 . S
C2758 C2744 1.377 . S
C2758 C2757 1.373 . S
C2759 C2743 1.377 . S
C2759 C2757 1.389 . S
C2759 C2760 1.524 . S
C2760 C2759 1.524 . S
C2760 C2761 1.397 . S
C2760 C2765 1.363 . S
C2761 H2732 0.950 . S
C2761 C2760 1.397 . S
C2761 C2762 1.334 . S
C2762 H2733 0.950 . S
C2762 C2761 1.334 . S
C2762 C2763 1.287 . S
C2763 C2762 1.287 . S
C2763 C2764 1.524 . S
C2763 H2766 0.999 . S
C2764 H2734 0.950 . S
C2764 C2763 1.524 . S
C2764 C2765 1.415 . S
C2765 H2735 0.950 . S
C2765 C2760 1.363 . S
C2765 C2764 1.415 . S
H2766 C2763 0.999 . S
H2767 C2748 0.913 . S
H2768 C2786 0.951 . S
H2769 C2788 0.951 . S
H2770 C2790 0.950 . S
H2771 C2791 0.950 . S
H2772 C2793 0.950 . S
H2773 C2796 0.950 . S
H2774 C2797 0.950 . S
H2775 C2799 0.950 . S
H2776 C2800 0.950 . S
H2777 C2801 0.951 . S
H2778 C2803 0.951 . S
H2779 C2805 0.950 . S
H2780 C2806 0.950 . S
H2781 C2808 0.950 . S
H2782 C2811 0.950 . S
H2783 C2812 0.950 . S
H2784 C2814 0.950 . S
H2785 C2815 0.950 . S
C2786 H2768 0.951 . S
C2786 C2787 1.366 . S
C2786 C2788 1.388 . S
C2787 C2786 1.366 . S
C2787 C2791 1.385 . S
C2788 H2769 0.951 . S
C2788 C2786 1.388 . S
C2788 C2789 1.366 . S
C2789 C2788 1.366 . S
C2789 C2790 1.414 . S
C2789 C2792 1.499 . S
C2790 H2770 0.950 . S
C2790 C2789 1.414 . S
C2790 C2791 1.374 . S
C2791 H2771 0.950 . S
C2791 C2787 1.385 . S
C2791 C2790 1.374 . S
C2792 C2789 1.499 . S
C2792 C2793 1.373 . S
C2792 C2794 1.389 . S
C2793 H2772 0.950 . S
C2793 C2792 1.373 . S
C2793 C2809 1.377 . S
C2794 C2792 1.389 . S
C2794 C2795 1.524 . S
C2794 C2808 1.377 . S
C2795 C2794 1.524 . S
C2795 C2796 1.397 . S
C2795 C2800 1.363 . S
C2796 H2773 0.950 . S
C2796 C2795 1.397 . S
C2796 C2797 1.334 . S
C2797 H2774 0.950 . S
C2797 C2796 1.334 . S
C2797 C2798 1.287 . S
C2798 C2797 1.287 . S
C2798 C2799 1.524 . S
C2798 H2817 0.913 . S
C2799 H2775 0.950 . S
C2799 C2798 1.524 . S
C2799 C2800 1.415 . S
C2800 H2776 0.950 . S
C2800 C2795 1.363 . S
C2800 C2799 1.415 . S
C2801 H2777 0.951 . S
C2801 C2802 1.366 . S
C2801 C2803 1.388 . S
C2802 C2801 1.366 . S
C2802 C2806 1.385 . S
C2803 H2778 0.951 . S
C2803 C2801 1.388 . S
C2803 C2804 1.366 . S
C2804 C2803 1.366 . S
C2804 C2805 1.414 . S
C2804 C2807 1.499 . S
C2805 H2779 0.950 . S
C2805 C2804 1.414 . S
C2805 C2806 1.374 . S
C2806 H2780 0.950 . S
C2806 C2802 1.385 . S
C2806 C2805 1.374 . S
C2807 C2804 1.499 . S
C2807 C2808 1.373 . S
C2807 C2809 1.389 . S
C2808 H2781 0.950 . S
C2808 C2794 1.377 . S
C2808 C2807 1.373 . S
C2809 C2793 1.377 . S
C2809 C2807 1.389 . S
C2809 C2810 1.524 . S
C2810 C2809 1.524 . S
C2810 C2811 1.397 . S
C2810 C2815 1.363 . S
C2811 H2782 0.950 . S
C2811 C2810 1.397 . S
C2811 C2812 1.334 . S
C2812 H2783 0.950 . S
C2812 C2811 1.334 . S
C2812 C2813 1.287 . S
C2813 C2812 1.287 . S
C2813 C2814 1.524 . S
C2813 H2816 0.999 . S
C2814 H2784 0.950 . S
C2814 C2813 1.524 . S
C2814 C2815 1.415 . S
C2815 H2785 0.950 . S
C2815 C2810 1.363 . S
C2815 C2814 1.415 . S
H2816 C2813 0.999 . S
H2817 C2798 0.913 . S
H2818 C2836 0.951 . S
H2819 C2838 0.951 . S
H2820 C2840 0.950 . S
H2821 C2841 0.950 . S
H2822 C2843 0.950 . S
H2823 C2846 0.950 . S
H2824 C2847 0.950 . S
H2825 C2849 0.950 . S
H2826 C2850 0.950 . S
H2827 C2851 0.951 . S
H2828 C2853 0.951 . S
H2829 C2855 0.950 . S
H2830 C2856 0.950 . S
H2831 C2858 0.950 . S
H2832 C2861 0.950 . S
H2833 C2862 0.950 . S
H2834 C2864 0.950 . S
H2835 C2865 0.950 . S
C2836 H2818 0.951 . S
C2836 C2837 1.366 . S
C2836 C2838 1.388 . S
C2837 C2836 1.366 . S
C2837 C2841 1.385 . S
C2838 H2819 0.951 . S
C2838 C2836 1.388 . S
C2838 C2839 1.366 . S
C2839 C2838 1.366 . S
C2839 C2840 1.414 . S
C2839 C2842 1.499 . S
C2840 H2820 0.950 . S
C2840 C2839 1.414 . S
C2840 C2841 1.374 . S
C2841 H2821 0.950 . S
C2841 C2837 1.385 . S
C2841 C2840 1.374 . S
C2842 C2839 1.499 . S
C2842 C2843 1.373 . S
C2842 C2844 1.389 . S
C2843 H2822 0.950 . S
C2843 C2842 1.373 . S
C2843 C2859 1.377 . S
C2844 C2842 1.389 . S
C2844 C2845 1.524 . S
C2844 C2858 1.377 . S
C2845 C2844 1.524 . S
C2845 C2846 1.397 . S
C2845 C2850 1.363 . S
C2846 H2823 0.950 . S
C2846 C2845 1.397 . S
C2846 C2847 1.334 . S
C2847 H2824 0.950 . S
C2847 C2846 1.334 . S
C2847 C2848 1.287 . S
C2848 C2847 1.287 . S
C2848 C2849 1.524 . S
C2848 H2867 0.913 . S
C2849 H2825 0.950 . S
C2849 C2848 1.524 . S
C2849 C2850 1.415 . S
C2850 H2826 0.950 . S
C2850 C2845 1.363 . S
C2850 C2849 1.415 . S
C2851 H2827 0.951 . S
C2851 C2852 1.366 . S
C2851 C2853 1.388 . S
C2852 C2851 1.366 . S
C2852 C2856 1.385 . S
C2853 H2828 0.951 . S
C2853 C2851 1.388 . S
C2853 C2854 1.366 . S
C2854 C2853 1.366 . S
C2854 C2855 1.414 . S
C2854 C2857 1.499 . S
C2855 H2829 0.950 . S
C2855 C2854 1.414 . S
C2855 C2856 1.374 . S
C2856 H2830 0.950 . S
C2856 C2852 1.385 . S
C2856 C2855 1.374 . S
C2857 C2854 1.499 . S
C2857 C2858 1.373 . S
C2857 C2859 1.389 . S
C2858 H2831 0.950 . S
C2858 C2844 1.377 . S
C2858 C2857 1.373 . S
C2859 C2843 1.377 . S
C2859 C2857 1.389 . S
C2859 C2860 1.524 . S
C2860 C2859 1.524 . S
C2860 C2861 1.397 . S
C2860 C2865 1.363 . S
C2861 H2832 0.950 . S
C2861 C2860 1.397 . S
C2861 C2862 1.334 . S
C2862 H2833 0.950 . S
C2862 C2861 1.334 . S
C2862 C2863 1.287 . S
C2863 C2862 1.287 . S
C2863 C2864 1.524 . S
C2863 H2866 0.999 . S
C2864 H2834 0.950 . S
C2864 C2863 1.524 . S
C2864 C2865 1.415 . S
C2865 H2835 0.950 . S
C2865 C2860 1.363 . S
C2865 C2864 1.415 . S
H2866 C2863 0.999 . S
H2867 C2848 0.913 . S
H2868 C2886 0.951 . S
H2869 C2888 0.951 . S
H2870 C2890 0.950 . S
H2871 C2891 0.950 . S
H2872 C2893 0.950 . S
H2873 C2896 0.950 . S
H2874 C2897 0.950 . S
H2875 C2899 0.950 . S
H2876 C2900 0.950 . S
H2877 C2901 0.951 . S
H2878 C2903 0.951 . S
H2879 C2905 0.950 . S
H2880 C2906 0.950 . S
H2881 C2908 0.950 . S
H2882 C2911 0.950 . S
H2883 C2912 0.950 . S
H2884 C2914 0.950 . S
H2885 C2915 0.950 . S
C2886 H2868 0.951 . S
C2886 C2887 1.366 . S
C2886 C2888 1.388 . S
C2887 C2886 1.366 . S
C2887 C2891 1.385 . S
C2888 H2869 0.951 . S
C2888 C2886 1.388 . S
C2888 C2889 1.366 . S
C2889 C2888 1.366 . S
C2889 C2890 1.414 . S
C2889 C2892 1.499 . S
C2890 H2870 0.950 . S
C2890 C2889 1.414 . S
C2890 C2891 1.374 . S
C2891 H2871 0.950 . S
C2891 C2887 1.385 . S
C2891 C2890 1.374 . S
C2892 C2889 1.499 . S
C2892 C2893 1.373 . S
C2892 C2894 1.389 . S
C2893 H2872 0.950 . S
C2893 C2892 1.373 . S
C2893 C2909 1.377 . S
C2894 C2892 1.389 . S
C2894 C2895 1.524 . S
C2894 C2908 1.377 . S
C2895 C2894 1.524 . S
C2895 C2896 1.397 . S
C2895 C2900 1.363 . S
C2896 H2873 0.950 . S
C2896 C2895 1.397 . S
C2896 C2897 1.334 . S
C2897 H2874 0.950 . S
C2897 C2896 1.334 . S
C2897 C2898 1.287 . S
C2898 C2897 1.287 . S
C2898 C2899 1.524 . S
C2898 H2917 0.913 . S
C2899 H2875 0.950 . S
C2899 C2898 1.524 . S
C2899 C2900 1.415 . S
C2900 H2876 0.950 . S
C2900 C2895 1.363 . S
C2900 C2899 1.415 . S
C2901 H2877 0.951 . S
C2901 C2902 1.366 . S
C2901 C2903 1.388 . S
C2902 C2901 1.366 . S
C2902 C2906 1.385 . S
C2903 H2878 0.951 . S
C2903 C2901 1.388 . S
C2903 C2904 1.366 . S
C2904 C2903 1.366 . S
C2904 C2905 1.414 . S
C2904 C2907 1.499 . S
C2905 H2879 0.950 . S
C2905 C2904 1.414 . S
C2905 C2906 1.374 . S
C2906 H2880 0.950 . S
C2906 C2902 1.385 . S
C2906 C2905 1.374 . S
C2907 C2904 1.499 . S
C2907 C2908 1.373 . S
C2907 C2909 1.389 . S
C2908 H2881 0.950 . S
C2908 C2894 1.377 . S
C2908 C2907 1.373 . S
C2909 C2893 1.377 . S
C2909 C2907 1.389 . S
C2909 C2910 1.524 . S
C2910 C2909 1.524 . S
C2910 C2911 1.397 . S
C2910 C2915 1.363 . S
C2911 H2882 0.950 . S
C2911 C2910 1.397 . S
C2911 C2912 1.334 . S
C2912 H2883 0.950 . S
C2912 C2911 1.334 . S
C2912 C2913 1.287 . S
C2913 C2912 1.287 . S
C2913 C2914 1.524 . S
C2913 H2916 0.999 . S
C2914 H2884 0.950 . S
C2914 C2913 1.524 . S
C2914 C2915 1.415 . S
C2915 H2885 0.950 . S
C2915 C2910 1.363 . S
C2915 C2914 1.415 . S
H2916 C2913 0.999 . S
H2917 C2898 0.913 . S
C552 C347 1.415 . S
C537 C2 1.536 . S
C602 C348 1.663 . S
C587 C48 1.704 . S
C652 C342 1.198 . S
C637 C97 1.214 . S
C687 C149 0.489 . S
C702 C341 0.387 . S
C737 C189 1.703 . S
C752 C344 1.663 . S
C802 C346 1.198 . S
C787 C202 1.214 . S
C837 C248 0.490 . S
C852 C345 0.388 . S
C887 C297 1.536 . S
C902 C343 1.414 . S
C952 C378 2.916 . S
C937 C31 2.913 . S
C987 C52 1.678 . S
C1002 C409 1.598 . S
C1052 C377 1.241 . S
C1037 C88 1.288 . S
C1102 C412 0.919 . S
C1087 C122 0.916 . S
C1137 C162 1.291 . S
C1152 C375 1.288 . S
C1202 C407 2.929 . S
C1187 C231 2.937 . S
C1237 C252 1.343 . S
C1252 C380 1.281 . S
C1287 C288 1.294 . S
C1302 C414 1.239 . S
C1337 C29 1.294 . S
C1352 C410 1.237 . S
C1387 C191 1.678 . S
C1402 C413 1.598 . S
C1452 C381 1.242 . S
C1437 C229 1.290 . S
C1502 C408 0.918 . S
C1487 C257 0.920 . S
C1537 C292 2.913 . S
C1552 C374 2.917 . S
C1587 C92 2.937 . S
C1602 C411 2.928 . S
C1652 C376 1.280 . S
C1637 C151 1.342 . S
C1687 C57 1.291 . S
C1702 C379 1.286 . S
C1737 C282 1.605 . S
C1752 C446 1.491 . S
C1787 C168 1.247 . S
C1802 C447 1.205 . S
C1852 C441 1.002 . S
C1837 C217 1.012 . S
C1902 C440 0.369 . S
C1887 C269 0.455 . S
C1937 C69 1.248 . S
C1952 C443 1.203 . S
C2002 C445 1.002 . S
C1987 C82 1.009 . S
C2037 C128 0.453 . S
C2052 C444 0.369 . S
C2087 C17 1.605 . S
C2102 C442 1.490 . S
C2137 C311 3.101 . S
C2152 C480 3.017 . S
C2202 C512 1.332 . S
C2187 C172 1.380 . S
C2237 C208 1.174 . S
C2252 C473 1.168 . S
C2287 C242 1.305 . S
C2302 C507 1.297 . S
C2352 C478 0.939 . S
C2337 C42 0.948 . S
C2387 C111 3.093 . S
C2402 C509 3.022 . S
C2452 C475 1.728 . S
C2437 C132 1.766 . S
C2502 C510 1.275 . S
C2487 C8 1.272 . S
C2552 C506 1.274 . S
C2537 C309 1.272 . S
C2587 C71 1.380 . S
C2602 C508 1.332 . S
C2637 C109 1.175 . S
C2652 C477 1.168 . S
C2702 C511 1.297 . S
C2687 C137 1.306 . S
C2737 C12 3.101 . S
C2752 C476 3.017 . S
C2787 C212 3.093 . S
C2802 C513 3.022 . S
C2852 C479 1.728 . S
C2837 C271 1.766 . S
C2902 C474 0.940 . S
C2887 C177 0.947 . S
