# Generated by pormake.
# Topology cor, (4,6)-cn, num edge types: 1
# Building blocks:
#     Node 0, Type 0, BuildingBlock: GALJAG_clean_sbu_0, # of connection points: 4
#     Node 1, Type 0, BuildingBlock: GALJAG_clean_sbu_0, # of connection points: 4
#     Node 2, Type 0, BuildingBlock: GALJAG_clean_sbu_0, # of connection points: 4
#     Node 3, Type 0, BuildingBlock: GALJAG_clean_sbu_0, # of connection points: 4
#     Node 4, Type 0, BuildingBlock: GALJAG_clean_sbu_0, # of connection points: 4
#     Node 5, Type 0, BuildingBlock: GALJAG_clean_sbu_0, # of connection points: 4
#     Node 6, Type 0, BuildingBlock: GALJAG_clean_sbu_0, # of connection points: 4
#     Node 7, Type 0, BuildingBlock: GALJAG_clean_sbu_0, # of connection points: 4
#     Node 8, Type 0, BuildingBlock: GALJAG_clean_sbu_0, # of connection points: 4
#     Node 9, Type 0, BuildingBlock: GALJAG_clean_sbu_0, # of connection points: 4
#     Node 10, Type 0, BuildingBlock: GALJAG_clean_sbu_0, # of connection points: 4
#     Node 11, Type 0, BuildingBlock: GALJAG_clean_sbu_0, # of connection points: 4
#     Node 12, Type 0, BuildingBlock: GALJAG_clean_sbu_0, # of connection points: 4
#     Node 13, Type 0, BuildingBlock: GALJAG_clean_sbu_0, # of connection points: 4
#     Node 14, Type 0, BuildingBlock: GALJAG_clean_sbu_0, # of connection points: 4
#     Node 15, Type 0, BuildingBlock: GALJAG_clean_sbu_0, # of connection points: 4
#     Node 16, Type 0, BuildingBlock: GALJAG_clean_sbu_0, # of connection points: 4
#     Node 17, Type 0, BuildingBlock: GALJAG_clean_sbu_0, # of connection points: 4
#     Node 18, Type 1, BuildingBlock: MIDCAF_clean_sbu_0, # of connection points: 6
#     Node 19, Type 1, BuildingBlock: MIDCAF_clean_sbu_0, # of connection points: 6
#     Node 20, Type 1, BuildingBlock: MIDCAF_clean_sbu_0, # of connection points: 6
#     Node 21, Type 1, BuildingBlock: MIDCAF_clean_sbu_0, # of connection points: 6
#     Node 22, Type 1, BuildingBlock: MIDCAF_clean_sbu_0, # of connection points: 6
#     Node 23, Type 1, BuildingBlock: MIDCAF_clean_sbu_0, # of connection points: 6
#     Node 24, Type 1, BuildingBlock: MIDCAF_clean_sbu_0, # of connection points: 6
#     Node 25, Type 1, BuildingBlock: MIDCAF_clean_sbu_0, # of connection points: 6
#     Node 26, Type 1, BuildingBlock: MIDCAF_clean_sbu_0, # of connection points: 6
#     Node 27, Type 1, BuildingBlock: MIDCAF_clean_sbu_0, # of connection points: 6
#     Node 28, Type 1, BuildingBlock: MIDCAF_clean_sbu_0, # of connection points: 6
#     Node 29, Type 1, BuildingBlock: MIDCAF_clean_sbu_0, # of connection points: 6
#     Edge 30, Type (0, 1), BuildingBlock: AJUNOK_clean_linker_0, # of connection points: 2
#     Edge 31, Type (0, 1), BuildingBlock: AJUNOK_clean_linker_0, # of connection points: 2
#     Edge 32, Type (0, 1), BuildingBlock: AJUNOK_clean_linker_0, # of connection points: 2
#     Edge 33, Type (0, 1), BuildingBlock: AJUNOK_clean_linker_0, # of connection points: 2
#     Edge 34, Type (0, 1), BuildingBlock: AJUNOK_clean_linker_0, # of connection points: 2
#     Edge 35, Type (0, 1), BuildingBlock: AJUNOK_clean_linker_0, # of connection points: 2
#     Edge 36, Type (0, 1), BuildingBlock: AJUNOK_clean_linker_0, # of connection points: 2
#     Edge 37, Type (0, 1), BuildingBlock: AJUNOK_clean_linker_0, # of connection points: 2
#     Edge 38, Type (0, 1), BuildingBlock: AJUNOK_clean_linker_0, # of connection points: 2
#     Edge 39, Type (0, 1), BuildingBlock: AJUNOK_clean_linker_0, # of connection points: 2
#     Edge 40, Type (0, 1), BuildingBlock: AJUNOK_clean_linker_0, # of connection points: 2
#     Edge 41, Type (0, 1), BuildingBlock: AJUNOK_clean_linker_0, # of connection points: 2
#     Edge 42, Type (0, 1), BuildingBlock: AJUNOK_clean_linker_0, # of connection points: 2
#     Edge 43, Type (0, 1), BuildingBlock: AJUNOK_clean_linker_0, # of connection points: 2
#     Edge 44, Type (0, 1), BuildingBlock: AJUNOK_clean_linker_0, # of connection points: 2
#     Edge 45, Type (0, 1), BuildingBlock: AJUNOK_clean_linker_0, # of connection points: 2
#     Edge 46, Type (0, 1), BuildingBlock: AJUNOK_clean_linker_0, # of connection points: 2
#     Edge 47, Type (0, 1), BuildingBlock: AJUNOK_clean_linker_0, # of connection points: 2
#     Edge 48, Type (0, 1), BuildingBlock: AJUNOK_clean_linker_0, # of connection points: 2
#     Edge 49, Type (0, 1), BuildingBlock: AJUNOK_clean_linker_0, # of connection points: 2
#     Edge 50, Type (0, 1), BuildingBlock: AJUNOK_clean_linker_0, # of connection points: 2
#     Edge 51, Type (0, 1), BuildingBlock: AJUNOK_clean_linker_0, # of connection points: 2
#     Edge 52, Type (0, 1), BuildingBlock: AJUNOK_clean_linker_0, # of connection points: 2
#     Edge 53, Type (0, 1), BuildingBlock: AJUNOK_clean_linker_0, # of connection points: 2
#     Edge 54, Type (0, 1), BuildingBlock: AJUNOK_clean_linker_0, # of connection points: 2
#     Edge 55, Type (0, 1), BuildingBlock: AJUNOK_clean_linker_0, # of connection points: 2
#     Edge 56, Type (0, 1), BuildingBlock: AJUNOK_clean_linker_0, # of connection points: 2
#     Edge 57, Type (0, 1), BuildingBlock: AJUNOK_clean_linker_0, # of connection points: 2
#     Edge 58, Type (0, 1), BuildingBlock: AJUNOK_clean_linker_0, # of connection points: 2
#     Edge 59, Type (0, 1), BuildingBlock: AJUNOK_clean_linker_0, # of connection points: 2
#     Edge 60, Type (0, 1), BuildingBlock: AJUNOK_clean_linker_0, # of connection points: 2
#     Edge 61, Type (0, 1), BuildingBlock: AJUNOK_clean_linker_0, # of connection points: 2
#     Edge 62, Type (0, 1), BuildingBlock: AJUNOK_clean_linker_0, # of connection points: 2
#     Edge 63, Type (0, 1), BuildingBlock: AJUNOK_clean_linker_0, # of connection points: 2
#     Edge 64, Type (0, 1), BuildingBlock: AJUNOK_clean_linker_0, # of connection points: 2
#     Edge 65, Type (0, 1), BuildingBlock: AJUNOK_clean_linker_0, # of connection points: 2
#     Edge 66, Type (0, 1), BuildingBlock: AJUNOK_clean_linker_0, # of connection points: 2
#     Edge 67, Type (0, 1), BuildingBlock: AJUNOK_clean_linker_0, # of connection points: 2
#     Edge 68, Type (0, 1), BuildingBlock: AJUNOK_clean_linker_0, # of connection points: 2
#     Edge 69, Type (0, 1), BuildingBlock: AJUNOK_clean_linker_0, # of connection points: 2
#     Edge 70, Type (0, 1), BuildingBlock: AJUNOK_clean_linker_0, # of connection points: 2
#     Edge 71, Type (0, 1), BuildingBlock: AJUNOK_clean_linker_0, # of connection points: 2
#     Edge 72, Type (0, 1), BuildingBlock: AJUNOK_clean_linker_0, # of connection points: 2
#     Edge 73, Type (0, 1), BuildingBlock: AJUNOK_clean_linker_0, # of connection points: 2
#     Edge 74, Type (0, 1), BuildingBlock: AJUNOK_clean_linker_0, # of connection points: 2
#     Edge 75, Type (0, 1), BuildingBlock: AJUNOK_clean_linker_0, # of connection points: 2
#     Edge 76, Type (0, 1), BuildingBlock: AJUNOK_clean_linker_0, # of connection points: 2
#     Edge 77, Type (0, 1), BuildingBlock: AJUNOK_clean_linker_0, # of connection points: 2
#     Edge 78, Type (0, 1), BuildingBlock: AJUNOK_clean_linker_0, # of connection points: 2
#     Edge 79, Type (0, 1), BuildingBlock: AJUNOK_clean_linker_0, # of connection points: 2
#     Edge 80, Type (0, 1), BuildingBlock: AJUNOK_clean_linker_0, # of connection points: 2
#     Edge 81, Type (0, 1), BuildingBlock: AJUNOK_clean_linker_0, # of connection points: 2
#     Edge 82, Type (0, 1), BuildingBlock: AJUNOK_clean_linker_0, # of connection points: 2
#     Edge 83, Type (0, 1), BuildingBlock: AJUNOK_clean_linker_0, # of connection points: 2
#     Edge 84, Type (0, 1), BuildingBlock: AJUNOK_clean_linker_0, # of connection points: 2
#     Edge 85, Type (0, 1), BuildingBlock: AJUNOK_clean_linker_0, # of connection points: 2
#     Edge 86, Type (0, 1), BuildingBlock: AJUNOK_clean_linker_0, # of connection points: 2
#     Edge 87, Type (0, 1), BuildingBlock: AJUNOK_clean_linker_0, # of connection points: 2
#     Edge 88, Type (0, 1), BuildingBlock: AJUNOK_clean_linker_0, # of connection points: 2
#     Edge 89, Type (0, 1), BuildingBlock: AJUNOK_clean_linker_0, # of connection points: 2
#     Edge 90, Type (0, 1), BuildingBlock: AJUNOK_clean_linker_0, # of connection points: 2
#     Edge 91, Type (0, 1), BuildingBlock: AJUNOK_clean_linker_0, # of connection points: 2
#     Edge 92, Type (0, 1), BuildingBlock: AJUNOK_clean_linker_0, # of connection points: 2
#     Edge 93, Type (0, 1), BuildingBlock: AJUNOK_clean_linker_0, # of connection points: 2
#     Edge 94, Type (0, 1), BuildingBlock: AJUNOK_clean_linker_0, # of connection points: 2
#     Edge 95, Type (0, 1), BuildingBlock: AJUNOK_clean_linker_0, # of connection points: 2
#     Edge 96, Type (0, 1), BuildingBlock: AJUNOK_clean_linker_0, # of connection points: 2
#     Edge 97, Type (0, 1), BuildingBlock: AJUNOK_clean_linker_0, # of connection points: 2
#     Edge 98, Type (0, 1), BuildingBlock: AJUNOK_clean_linker_0, # of connection points: 2
#     Edge 99, Type (0, 1), BuildingBlock: AJUNOK_clean_linker_0, # of connection points: 2
#     Edge 100, Type (0, 1), BuildingBlock: AJUNOK_clean_linker_0, # of connection points: 2
#     Edge 101, Type (0, 1), BuildingBlock: AJUNOK_clean_linker_0, # of connection points: 2
# Relax obj value: 0.119
# Max RMSD: 0.171
# Mean RMSD: 0.112
data_MOF--net-cor--node1-GALJAG_clean_sbu_0--node2-MIDCAF_clean_sbu_0--edge1-AJUNOK_clean_linker_0
_symmetry_space_group_name_H-M    P1
_symmetry_Int_Tables_number       1
_symmetry_cell_setting            triclinic
loop_
_symmetry_equiv_pos_as_xyz
'x, y, z'
_cell_length_a     28.217357
_cell_length_b     28.178014
_cell_length_c     77.627359
_cell_angle_alpha  89.849371
_cell_angle_beta   89.980153
_cell_angle_gamma 120.21856
loop_
_atom_site_label
_atom_site_type_symbol
_atom_site_fract_x
_atom_site_fract_y
_atom_site_fract_z
_atom_type_partial_charge
In0 In 0.72461 0.01424 0.26812 0.0
O1 O 0.75185 0.10507 0.26753 0.0
O2 O 0.69355 0.05197 0.2489 0.0
C3 C 0.76447 0.98969 0.29574 0.0
C4 C 0.79599 0.02364 0.24356 0.0
C5 C 0.6223 0.94767 0.27967 0.0
O6 O 0.76431 0.03457 0.29454 0.0
O7 O 0.74754 0.95934 0.28255 0.0
O8 O 0.6411 0.93632 0.2664 0.0
O9 O 0.65386 -0.00596 0.28628 0.0
C10 C 0.72481 0.10058 0.25398 0.0
O11 O 0.74581 0.98619 0.24286 0.0
O12 O 0.80958 0.05209 0.25713 0.0
In13 In 0.01808 0.73385 0.26703 0.0
O14 O 0.10409 0.74655 0.27051 0.0
O15 O 0.03691 0.67413 0.28119 0.0
C16 C 0.0107 0.79348 0.24128 0.0
C17 C 0.02488 0.79224 0.29514 0.0
C18 C 0.93503 0.64421 0.25315 0.0
O19 O 0.05014 0.78392 0.24185 0.0
O20 O 0.97933 0.77721 0.25423 0.0
O21 O 0.93292 0.66023 0.26824 0.0
O22 O 0.98066 0.67114 0.2455 0.0
C23 C 0.08823 0.70412 0.2798 0.0
O24 O 0.98195 0.74723 0.29167 0.0
O25 O 0.06261 0.80835 0.28405 0.0
In26 In 0.29732 0.30146 0.266 0.0
O27 O 0.29367 0.3805 0.26605 0.0
O28 O 0.35073 0.3762 0.28296 0.0
C29 C 0.22672 0.24356 0.24016 0.0
C30 C 0.24768 0.25313 0.29568 0.0
C31 C 0.3816 0.29537 0.25213 0.0
O32 O 0.26458 0.29268 0.23819 0.0
O33 O 0.22162 0.22594 0.25537 0.0
O34 O 0.35284 0.26442 0.26432 0.0
O35 O 0.3707 0.33217 0.24805 0.0
C36 C 0.32897 0.40336 0.27785 0.0
O37 O 0.28682 0.24841 0.28961 0.0
O38 O 0.23276 0.28033 0.28648 0.0
In39 In 0.28781 0.01634 0.76797 0.0
O40 O 0.27971 0.04525 0.79498 0.0
O41 O 0.21108 0.97557 0.78366 0.0
C42 C 0.38178 0.09433 0.75367 0.0
C43 C 0.30056 0.93426 0.77944 0.0
C44 C 0.22964 0.02562 0.74235 0.0
O45 O 0.35877 0.10488 0.76592 0.0
O46 O 0.35952 0.0441 0.74973 0.0
O47 O 0.24053 0.98712 0.74258 0.0
O48 O 0.24539 0.05638 0.75541 0.0
C49 C 0.23099 0.0055 0.79676 0.0
O50 O 0.26257 0.92627 0.76911 0.0
O51 O 0.33527 0.98393 0.78253 0.0
In52 In 0.00848 0.29322 0.76848 0.0
O53 O 0.03535 0.27426 0.74259 0.0
O54 O 0.9634 0.21211 0.75521 0.0
C55 C 0.09014 0.38602 0.7822 0.0
C56 C 0.93184 0.30989 0.75396 0.0
C57 C 0.01374 0.23289 0.79419 0.0
O58 O 0.09871 0.36077 0.77021 0.0
O59 O 0.04036 0.36727 0.78616 0.0
O60 O 0.98009 0.25027 0.79494 0.0
O61 O 0.04232 0.24519 0.78065 0.0
C62 C -0.00587 0.22581 0.74213 0.0
O63 O 0.92062 0.27599 0.76621 0.0
O64 O 0.98233 0.33944 0.75046 0.0
In65 In 0.73655 0.73818 0.76732 0.0
O66 O 0.7507 0.79126 0.74304 0.0
O67 O 0.81306 0.77457 0.75131 0.0
C68 C 0.64255 0.72269 0.78106 0.0
C69 C 0.72085 0.64252 0.75443 0.0
C70 C 0.79177 0.80172 0.79396 0.0
O71 O 0.65856 0.74239 0.76607 0.0
O72 O 0.67151 0.70628 0.78853 0.0
O73 O 0.78395 0.75349 0.79245 0.0
O74 O 0.77493 0.81829 0.78154 0.0
C75 C 0.79708 0.79597 0.74017 0.0
O76 O 0.75954 0.67136 0.7647 0.0
O77 O 0.68713 0.65898 0.75213 0.0
In78 In 0.39957 0.34782 0.59973 0.0
O79 O 0.42276 0.32246 0.57438 0.0
O80 O 0.48253 0.39471 0.58725 0.0
C81 C 0.30691 0.26549 0.61278 0.0
C82 C 0.37326 0.42134 0.58777 0.0
C83 C 0.45156 0.34184 0.62787 0.0
O84 O 0.3324 0.25784 0.60063 0.0
O85 O 0.32538 0.31505 0.61688 0.0
O86 O 0.44704 0.38365 0.62488 0.0
O87 O 0.43325 0.30589 0.61621 0.0
C88 C 0.47074 0.36403 0.57425 0.0
O89 O 0.40274 0.42927 0.60096 0.0
O90 O 0.35458 0.37456 0.58096 0.0
In91 In 0.68206 0.06767 0.59919 0.0
O92 O 0.6457 0.07106 0.62562 0.0
O93 O 0.70525 0.14537 0.61342 0.0
C94 C 0.60865 0.97243 0.5844 0.0
C95 C 0.76329 0.0587 0.61363 0.0
C96 C 0.6769 0.12505 0.57245 0.0
O97 O 0.59731 0.99331 0.59707 0.0
O98 O 0.65854 -0.00222 0.57991 0.0
O99 O 0.71819 0.11909 0.57459 0.0
O100 O 0.6402 0.10384 0.58388 0.0
C101 C 0.67551 0.12279 0.62641 0.0
O102 O 0.77271 0.09811 0.60367 0.0
O103 O 0.71356 0.02186 0.615 0.0
In104 In 0.95786 0.6302 0.60026 0.0
O105 O 0.92966 0.69268 0.60201 0.0
O106 O 0.00496 0.71091 0.61426 0.0
C107 C 0.90396 0.56019 0.57451 0.0
C108 C 0.90295 0.58028 0.62913 0.0
C109 C 0.05556 0.65621 0.58697 0.0
O110 O 0.9111 0.60833 0.57477 0.0
O111 O 0.92087 0.54698 0.58771 0.0
O112 O 0.03656 0.62773 0.60059 0.0
O113 O 0.0265 0.67444 0.58068 0.0
C114 C 0.96917 0.72445 0.61163 0.0
O115 O 0.94958 0.58576 0.62598 0.0
O116 O 0.88372 0.59645 0.61732 0.0
In117 In 0.9601 0.34616 0.10112 0.0
O118 O 0.93634 0.2563 0.10312 0.0
O119 O 0.00937 0.31578 0.11578 0.0
C120 C 0.89916 0.35509 0.07625 0.0
C121 C 0.90782 0.33837 0.13046 0.0
C122 C 0.04984 0.42858 0.08667 0.0
O123 O 0.91429 0.31973 0.07529 0.0
O124 O 0.91121 0.38163 0.09018 0.0
O125 O 0.02902 0.43471 0.10035 0.0
O126 O 0.02877 0.37957 0.08146 0.0
C127 C 0.97452 0.26559 0.11357 0.0
O128 O 0.95509 0.37926 0.12755 0.0
O129 O 0.88622 0.30552 0.11806 0.0
In130 In 0.68264 0.62876 0.09915 0.0
O131 O 0.71792 0.61712 0.07366 0.0
O132 O 0.64825 0.54869 0.08511 0.0
C133 C 0.76249 0.72189 0.11333 0.0
C134 C 0.60145 0.63836 0.08472 0.0
C135 C 0.68135 0.57518 0.12772 0.0
O136 O 0.7721 0.69597 0.10185 0.0
O137 O 0.71215 0.70434 0.11609 0.0
O138 O 0.64218 0.58328 0.12422 0.0
O139 O 0.7183 0.59071 0.11639 0.0
C140 C 0.68052 0.56726 0.07244 0.0
O141 O 0.59325 0.60453 0.09668 0.0
O142 O 0.65139 0.67194 0.08144 0.0
In143 In 0.39562 0.06507 0.10103 0.0
O144 O 0.4083 0.99201 0.10292 0.0
O145 O 0.36255 -0.00459 0.08156 0.0
C146 C 0.44602 0.12436 0.12907 0.0
C147 C 0.46285 0.12675 0.07563 0.0
C148 C 0.29778 0.05023 0.11096 0.0
O149 O 0.43762 0.07616 0.12714 0.0
O150 O 0.43276 0.1432 0.11638 0.0
O151 O 0.32031 0.07324 0.09689 0.0
O152 O 0.32183 0.02964 0.11909 0.0
C153 C 0.38521 0.97162 0.0887 0.0
O154 O 0.41803 0.1251 0.07868 0.0
O155 O 0.47496 0.09966 0.08585 0.0
In156 In 0.06691 0.67753 0.93405 0.0
O157 O 0.09091 0.7679 0.93221 0.0
O158 O 0.02111 0.70939 0.91811 0.0
C159 C 0.1135 0.66956 0.963 0.0
C160 C 0.13693 0.68718 0.90877 0.0
C161 C 0.97315 0.59071 0.94575 0.0
O162 O 0.10664 0.7102 0.96043 0.0
O163 O 0.10054 0.63638 0.95062 0.0
O164 O -0.00067 0.58764 0.93293 0.0
O165 O -0.00904 0.63891 0.95133 0.0
C166 C 0.05445 0.7594 0.92122 0.0
O167 O 0.0857 0.65526 0.90721 0.0
O168 O 0.15164 0.7103 0.92323 0.0
In169 In 0.34415 0.39826 0.93444 0.0
O170 O 0.4326 0.41865 0.9321 0.0
O171 O 0.38595 0.36931 0.95347 0.0
C172 C 0.32893 0.44623 0.90665 0.0
C173 C 0.34577 0.45961 0.96072 0.0
C174 C 0.26652 0.30142 0.92235 0.0
O175 O 0.37273 0.44448 0.90852 0.0
O176 O 0.29619 0.42766 0.91923 0.0
O177 O 0.25631 0.32761 0.93353 0.0
O178 O 0.3167 0.32087 0.91893 0.0
C179 C 0.43184 0.3943 0.94594 0.0
O180 O 0.31827 0.40775 0.96161 0.0
O181 O 0.36968 0.47946 0.94655 0.0
In182 In 0.62508 0.9599 0.93475 0.0
O183 O 0.60742 0.92101 0.9617 0.0
O184 O 0.54397 0.92595 0.94826 0.0
C185 C 0.71888 0.97076 0.92243 0.0
C186 C 0.63996 0.05675 0.94545 0.0
C187 C 0.5711 0.89028 0.90891 0.0
O188 O 0.69426 0.94009 0.93523 0.0
O189 O 0.69964 0.00037 0.91742 0.0
O190 O 0.58176 0.93972 0.90853 0.0
O191 O 0.58378 0.87599 0.92279 0.0
C192 C 0.5593 0.91398 0.96208 0.0
O193 O 0.61358 0.0339 0.93183 0.0
O194 O 0.66372 0.03377 0.95245 0.0
In195 In 0.61969 0.67936 0.43317 0.0
O196 O 0.62731 0.71783 0.45998 0.0
O197 O 0.55254 0.68658 0.44604 0.0
C198 C 0.70372 0.76733 0.41723 0.0
C199 C 0.62825 0.59911 0.44958 0.0
C200 C 0.55357 0.64492 0.40534 0.0
O201 O 0.67138 0.77155 0.4275 0.0
O202 O 0.696 0.71935 0.41597 0.0
O203 O 0.59578 0.64041 0.40625 0.0
O204 O 0.54386 0.66434 0.41858 0.0
C205 C 0.5785 0.70843 0.4597 0.0
O206 O 0.58366 0.59162 0.44348 0.0
O207 O 0.66906 0.64597 0.4466 0.0
In208 In 0.33953 0.95725 0.43386 0.0
O209 O 0.38603 0.95846 0.40956 0.0
O210 O 0.3149 0.88348 0.41695 0.0
C211 C 0.4217 0.05036 0.44741 0.0
C212 C 0.25919 0.97039 0.42001 0.0
C213 C 0.32154 0.89489 0.4623 0.0
O214 O 0.42796 0.01167 0.44221 0.0
O215 O 0.37478 0.04414 0.44469 0.0
O216 O 0.28465 0.90294 0.45623 0.0
O217 O 0.36471 0.9147 0.45342 0.0
C218 C 0.3523 0.90906 0.40593 0.0
O219 O 0.25749 0.95387 0.4353 0.0
O220 O 0.3029 0.98344 0.41194 0.0
In221 In 0.06762 0.39933 0.43544 0.0
O222 O 0.06421 0.44767 0.41194 0.0
O223 O 0.13705 0.44465 0.41674 0.0
C224 C 0.98024 0.40096 0.44899 0.0
C225 C 0.05976 0.30719 0.4218 0.0
C226 C 0.13147 0.43936 0.46365 0.0
O227 O 0.01758 0.44087 0.44069 0.0
O228 O 0.98488 0.35861 0.44944 0.0
O229 O 0.08739 0.3939 0.4636 0.0
O230 O 0.14415 0.46451 0.44941 0.0
C231 C 0.11181 0.46029 0.40698 0.0
O232 O 0.09172 0.33379 0.43393 0.0
O233 O 0.02764 0.3241 0.41746 0.0
Zn234 Zn -0.00161 0.01371 0.13753 0.0
Zn235 Zn 0.03751 -0.00207 0.21297 0.0
Zn236 Zn 0.01692 0.01809 0.16699 0.0
C237 C 0.96654 0.918 0.19217 0.0
C238 C 0.12103 0.06945 0.18953 0.0
O239 O 0.97932 0.07086 0.16301 0.0
O240 O 0.97421 0.06592 0.13466 0.0
C241 C 0.9387 0.90845 0.1449 0.0
O242 O 0.98519 0.93443 0.17689 0.0
O243 O 0.96279 0.95132 0.20209 0.0
O244 O 0.1 0.0222 0.19626 0.0
O245 O 0.10325 0.07276 0.17462 0.0
O246 O 0.9444 0.93934 0.13242 0.0
O247 O 0.96503 0.929 0.15905 0.0
O248 O 0.10072 0.05591 0.15604 0.0
O249 O 0.0716 0.03557 0.12938 0.0
C250 C 0.11058 0.0538 0.13997 0.0
O251 O 0.97269 0.05059 0.18104 0.0
O252 O 0.98462 0.02727 0.20765 0.0
C253 C 0.96904 0.08606 0.14847 0.0
C254 C 0.96329 0.04669 0.19739 0.0
Zn255 Zn 0.00963 0.02654 0.33635 0.0
Zn256 Zn -0.00472 0.00728 0.39664 0.0
Zn257 Zn 0.00958 0.01484 0.36655 0.0
C258 C 0.04991 0.11846 0.39066 0.0
C259 C 0.89284 0.94937 0.38837 0.0
O260 O 0.0403 0.96125 0.35823 0.0
O261 O 0.03796 0.97784 0.33055 0.0
C262 C 0.08425 0.12579 0.34303 0.0
O263 O 0.04845 0.10168 0.37516 0.0
O264 O 0.03003 0.08427 0.4028 0.0
O265 O 0.91865 0.96613 0.40227 0.0
O266 O 0.91898 0.96415 0.37384 0.0
O267 O 0.05406 0.10239 0.33031 0.0
O268 O 0.07213 0.10135 0.35784 0.0
O269 O 0.92282 0.97987 0.35665 0.0
O270 O 0.93651 -0.00192 0.32882 0.0
C271 C 0.90422 0.97865 0.34136 0.0
O272 O 0.06062 0.97921 0.37621 0.0
O273 O 0.03628 0.97238 0.40333 0.0
C274 C 0.04571 0.95184 0.34238 0.0
C275 C 0.06728 0.97038 0.39209 0.0
Zn276 Zn 0.00893 0.01296 0.89947 0.0
Zn277 Zn 0.01978 0.01245 0.84186 0.0
Zn278 Zn 0.01363 0.01421 0.87051 0.0
C279 C 0.06574 0.11369 0.84465 0.0
C280 C 0.91441 0.96179 0.84476 0.0
O281 O 0.05532 0.97011 0.87984 0.0
O282 O -7e-05 0.93941 0.90217 0.0
C283 C 0.08932 0.11389 0.89103 0.0
O284 O 0.03866 0.09627 0.85882 0.0
O285 O 0.08609 0.08654 0.83861 0.0
O286 O 0.94658 -0.00041 0.8347 0.0
O287 O 0.93159 0.95872 0.85984 0.0
O288 O 0.08213 0.07775 0.90196 0.0
O289 O 0.05721 0.10086 0.87801 0.0
O290 O 0.92575 0.97043 0.8784 0.0
O291 O 0.94377 0.02011 0.90192 0.0
C292 C 0.90941 0.98774 0.89115 0.0
O293 O 0.07217 0.98697 0.86155 0.0
O294 O 0.03384 0.9525 0.8366 0.0
C295 C 0.03327 0.93556 0.8923 0.0
C296 C 0.07161 0.96337 0.84725 0.0
Zn297 Zn 0.02163 0.98974 0.71293 0.0
Zn298 Zn 0.01359 0.02401 0.63553 0.0
Zn299 Zn 0.01169 0.01412 0.66599 0.0
C300 C 0.9761 0.91469 0.64076 0.0
C301 C 0.12034 0.08586 0.64353 0.0
O302 O 0.97517 0.05666 0.67859 0.0
O303 O -0.00743 0.04204 0.70559 0.0
C304 C 0.96346 0.90545 0.68893 0.0
O305 O 0.97766 0.92981 0.65641 0.0
O306 O 0.98854 0.94885 0.62868 0.0
O307 O 0.08988 0.07437 0.63056 0.0
O308 O 0.09962 0.066 0.65841 0.0
O309 O 0.00788 0.92689 0.69727 0.0
O310 O 0.96108 0.92946 0.67514 0.0
O311 O 0.09415 0.05028 0.67632 0.0
O312 O 0.066 0.0637 0.70097 0.0
C313 C 0.10409 0.06501 0.69212 0.0
O314 O 0.95826 0.04924 0.66063 0.0
O315 O 0.96347 0.05094 0.63225 0.0
C316 C 0.97497 0.06414 0.69493 0.0
C317 C 0.94328 0.05774 0.64583 0.0
Zn318 Zn 0.64461 0.32727 0.54647 0.0
Zn319 Zn 0.68316 0.34795 0.46908 0.0
Zn320 Zn 0.67732 0.34498 0.49931 0.0
C321 C 0.78921 0.38873 0.47822 0.0
C322 C 0.6093 0.2415 0.475 0.0
O323 O 0.63248 0.38287 0.50969 0.0
O324 O 0.67589 0.40081 0.53419 0.0
C325 C 0.76541 0.39633 0.52767 0.0
O326 O 0.76723 0.383 0.49323 0.0
O327 O 0.75966 0.37432 0.46497 0.0
O328 O 0.63206 0.2733 0.46244 0.0
O329 O 0.6238 0.2591 0.49045 0.0
O330 O 0.72582 0.37662 0.53842 0.0
O331 O 0.75721 0.38707 0.51141 0.0
O332 O 0.64193 0.26023 0.50899 0.0
O333 O 0.5958 0.26376 0.5311 0.0
C334 C 0.61782 0.24015 0.52345 0.0
O335 O 0.6431 0.39831 0.49161 0.0
O336 O 0.66129 0.40171 0.46392 0.0
C337 C 0.63886 0.40102 0.52515 0.0
C338 C 0.64507 0.41797 0.47648 0.0
Zn339 Zn 0.6775 0.34476 0.73082 0.0
Zn340 Zn 0.68327 0.35773 0.67347 0.0
Zn341 Zn 0.67949 0.34855 0.70227 0.0
C342 C 0.57656 0.3086 0.67791 0.0
C343 C 0.74377 0.45934 0.67953 0.0
O344 O 0.72438 0.3057 0.70948 0.0
O345 O 0.75435 0.36096 0.73172 0.0
C346 C 0.57917 0.26632 0.72286 0.0
O347 O 0.59573 0.32497 0.69315 0.0
O348 O 0.60695 0.30537 0.6667 0.0
O349 O 0.70686 0.43483 0.66843 0.0
O350 O 0.74099 0.43449 0.69381 0.0
O351 O 0.61608 0.26809 0.73245 0.0
O352 O 0.59245 0.30319 0.71109 0.0
O353 O 0.72112 0.43456 0.71194 0.0
O354 O 0.66162 0.40545 0.73315 0.0
C355 C 0.69588 0.44468 0.72392 0.0
O356 O 0.70042 0.2886 0.69053 0.0
O357 O 0.73971 0.33801 0.66771 0.0
C358 C 0.75993 0.32937 0.72151 0.0
C359 C 0.72199 0.29312 0.67557 0.0
Zn360 Zn 0.67226 0.3373 0.23119 0.0
Zn361 Zn 0.68608 0.34821 0.17114 0.0
Zn362 Zn 0.68144 0.349 0.20147 0.0
C363 C 0.71947 0.4533 0.17718 0.0
C364 C 0.57848 0.28315 0.17639 0.0
O365 O 0.72546 0.30572 0.20968 0.0
O366 O 0.69087 0.28163 0.23586 0.0
C367 C 0.74672 0.44801 0.22603 0.0
O368 O 0.70467 0.4326 0.19239 0.0
O369 O 0.72667 0.4263 0.16564 0.0
O370 O 0.60973 0.31025 0.16416 0.0
O371 O 0.59707 0.29119 0.19192 0.0
O372 O 0.72921 0.40989 0.23697 0.0
O373 O 0.7278 0.43661 0.21055 0.0
O374 O 0.59188 0.30411 0.2093 0.0
O375 O 0.59904 0.31814 0.23736 0.0
C376 C 0.56962 0.3008 0.22413 0.0
O377 O 0.74163 0.32378 0.19244 0.0
O378 O 0.72315 0.30889 0.16474 0.0
C379 C 0.71913 0.27901 0.22379 0.0
C380 C 0.75088 0.30987 0.17752 0.0
Zn381 Zn 0.65269 0.37152 0.05042 0.0
Zn382 Zn 0.68417 0.35086 0.97073 0.0
Zn383 Zn 0.6783 0.34752 0.99897 0.0
C384 C 0.63183 0.24172 0.97561 0.0
C385 C 0.79066 0.4025 0.97816 0.0
O386 O 0.64607 0.40285 1.00632 0.0
O387 O 0.60336 0.36069 0.02971 0.0
C388 C 0.62298 0.27493 0.02564 0.0
O389 O 0.64452 0.2592 0.99123 0.0
O390 O 0.63523 0.27499 0.96417 0.0
O391 O 0.76024 0.37518 0.96587 0.0
O392 O 0.76865 0.39912 0.99303 0.0
O393 O 0.64964 0.32505 0.02982 0.0
O394 O 0.63044 0.26448 1.01022 0.0
O395 O 0.75638 0.38226 1.01223 0.0
O396 O 0.72387 0.38121 0.03857 0.0
C397 C 0.76244 0.38651 0.0287 0.0
O398 O 0.62658 0.38058 0.98823 0.0
O399 O 0.66098 0.40099 0.9623 0.0
C400 C 0.62307 0.40332 0.02053 0.0
C401 C 0.62604 0.39799 0.97294 0.0
Zn402 Zn 0.32384 0.67602 0.88422 0.0
Zn403 Zn 0.34148 0.68208 0.80445 0.0
Zn404 Zn 0.34574 0.68397 0.83379 0.0
C405 C 0.4497 0.71976 0.80922 0.0
C406 C 0.27501 0.57444 0.81293 0.0
O407 O 0.30249 0.72716 0.84187 0.0
O408 O 0.34435 0.72691 0.86468 0.0
C409 C 0.43683 0.73376 0.85927 0.0
O410 O 0.43312 0.71262 0.82502 0.0
O411 O 0.41666 0.71456 0.79754 0.0
O412 O 0.29977 0.60382 0.80008 0.0
O413 O 0.28682 0.59573 0.82808 0.0
O414 O 0.39423 0.71203 0.86875 0.0
O415 O 0.43072 0.72702 0.84293 0.0
O416 O 0.30969 0.60523 0.84868 0.0
O417 O 0.2784 0.59801 0.87593 0.0
C418 C 0.28717 0.57715 0.86258 0.0
O419 O 0.31485 0.7399 0.82458 0.0
O420 O 0.30822 0.72439 0.79665 0.0
C421 C 0.30649 0.73195 0.85816 0.0
C422 C 0.30418 0.74994 0.80928 0.0
Zn423 Zn 0.34617 0.67028 0.06543 0.0
Zn424 Zn 0.3442 0.68693 1.00664 0.0
Zn425 Zn 0.34724 0.68283 0.03568 0.0
C426 C 0.24074 0.63475 1.01147 0.0
C427 C 0.39743 0.79062 1.01218 0.0
O428 O 0.3952 0.64118 0.04162 0.0
O429 O 0.40795 0.65963 0.06935 0.0
C430 C 0.24089 0.60686 0.05769 0.0
O431 O 0.26255 0.65536 0.02618 0.0
O432 O 0.26927 0.62818 1.00028 0.0
O433 O 0.35856 0.76164 1.00209 0.0
O434 O 0.40167 0.76893 0.02633 0.0
O435 O 0.27314 0.60811 0.0691 0.0
O436 O 0.25989 0.63737 0.04418 0.0
O437 O 0.38894 0.76835 0.04532 0.0
O438 O 0.35667 0.74185 0.07152 0.0
C439 C 0.3802 0.77987 0.06059 0.0
O440 O 0.3735 0.62775 0.02363 0.0
O441 O 0.40634 0.67659 1.00023 0.0
C442 C 0.41942 0.64293 0.05585 0.0
C443 C 0.39424 0.6334 1.00847 0.0
Zn444 Zn 0.34709 0.68563 0.56103 0.0
Zn445 Zn 0.33517 0.67059 0.50689 0.0
Zn446 Zn 0.34237 0.67997 0.53429 0.0
C447 C 0.32792 0.75823 0.51328 0.0
C448 C 0.25626 0.57975 0.51739 0.0
O449 O 0.32454 0.59785 0.54431 0.0
O450 O 0.39055 0.6486 0.56204 0.0
C451 C 0.42752 0.78153 0.55196 0.0
O452 O 0.30071 0.7247 0.52561 0.0
O453 O 0.3604 0.74957 0.5045 0.0
O454 O 0.2544 0.61907 0.51038 0.0
O455 O 0.29772 0.59151 0.52709 0.0
O456 O 0.38433 0.76603 0.56061 0.0
O457 O 0.42759 0.74782 0.54076 0.0
O458 O 0.27777 0.69918 0.54235 0.0
O459 O 0.26684 0.6432 0.56347 0.0
C460 C 0.24858 0.66886 0.55503 0.0
O461 O 0.42602 0.72205 0.52364 0.0
O462 O 0.39163 0.64667 0.50866 0.0
C463 C 0.35915 0.60176 0.55584 0.0
C464 C 0.43355 0.6904 0.51351 0.0
Zn465 Zn 0.33812 0.68031 0.30774 0.0
Zn466 Zn 0.35722 0.67968 0.36205 0.0
Zn467 Zn 0.3455 0.68049 0.33457 0.0
C468 C 0.43486 0.66859 0.35141 0.0
C469 C 0.25802 0.59511 0.35551 0.0
O470 O 0.25836 0.65588 0.32832 0.0
O471 O 0.29442 0.71712 0.30764 0.0
C472 C 0.43241 0.76865 0.31257 0.0
O473 O 0.39327 0.63987 0.34164 0.0
O474 O 0.43823 0.71057 0.3583 0.0
O475 O 0.30123 0.59945 0.36191 0.0
O476 O 0.26233 0.63238 0.34496 0.0
O477 O 0.41811 0.72504 0.30431 0.0
O478 O 0.40367 0.76627 0.32581 0.0
O479 O 0.36951 0.62186 0.32394 0.0
O480 O 0.30135 0.59934 0.30622 0.0
C481 C 0.33665 0.58918 0.31238 0.0
O482 O 0.38119 0.76719 0.34263 0.0
O483 O 0.32878 0.72932 0.36527 0.0
C484 C 0.25384 0.68727 0.31711 0.0
C485 C 0.35429 0.77042 0.35556 0.0
C486 C 0.14547 0.15934 0.22898 0.0
C487 C 0.19661 0.20598 0.2257 0.0
C488 C 0.12047 0.11694 0.21692 0.0
C489 C 0.14545 0.11869 0.20101 0.0
H490 H 0.12527 0.15459 0.24127 0.0
H491 H 0.08168 0.08237 0.2205 0.0
S492 S 0.27902 0.23327 0.18581 0.0
N493 N 0.27098 0.25304 0.20508 0.0
N494 N 0.22368 0.17288 0.18234 0.0
C495 C 0.19551 0.16648 0.19718 0.0
C496 C 0.22114 0.21013 0.20952 0.0
C497 C 0.89218 0.07477 0.23266 0.0
C498 C 0.83676 0.03551 0.22965 0.0
C499 C 0.93307 0.0841 0.2207 0.0
C500 C 0.92037 0.05501 0.20512 0.0
H501 H 0.90474 0.09665 0.24478 0.0
H502 H 0.97554 0.11105 0.22428 0.0
S503 S 0.7811 0.95456 0.1896 0.0
N504 N 0.77062 0.97255 0.20885 0.0
N505 N 0.8481 0.98995 0.18637 0.0
C506 C 0.86484 0.01931 0.2012 0.0
C507 C 0.82289 0.00943 0.21348 0.0
C508 C 0.04079 0.8579 0.21587 0.0
C509 C -0.00137 0.81823 0.22629 0.0
C510 C 0.02938 0.88649 0.20316 0.0
C511 C 0.9756 0.8763 0.20059 0.0
H512 H 0.083 0.86903 0.21816 0.0
H513 H 0.06326 0.91911 0.19614 0.0
S514 S 0.84973 0.7678 0.22165 0.0
N515 N 0.90001 0.76342 0.23096 0.0
N516 N 0.87937 0.81843 0.20752 0.0
C517 C 0.93287 0.83349 0.20983 0.0
C518 C 0.9442 0.80414 0.2226 0.0
C519 C 0.19371 0.24989 0.32158 0.0
C520 C 0.2185 0.22621 0.31177 0.0
C521 C 0.15527 0.21983 0.33453 0.0
C522 C 0.14104 0.16547 0.33817 0.0
H523 H 0.20109 0.29051 0.31838 0.0
H524 H 0.13255 0.23714 0.34043 0.0
S525 S 0.19625 0.08572 0.31679 0.0
N526 N 0.22818 0.14633 0.3072 0.0
N527 N 0.15738 0.0905 0.33179 0.0
C528 C 0.16986 0.14351 0.32964 0.0
C529 C 0.2081 0.17362 0.31627 0.0
C530 C 0.80319 0.00982 0.32556 0.0
C531 C 0.78505 0.97477 0.31118 0.0
C532 C 0.83342 0.00298 0.33869 0.0
C533 C 0.84714 0.96158 0.3376 0.0
H534 H 0.79792 0.04531 0.32604 0.0
H535 H 0.85286 0.035 0.34828 0.0
S536 S 0.79775 0.85094 0.30518 0.0
N537 N 0.77335 0.8903 0.29864 0.0
N538 N 0.83078 0.87852 0.32328 0.0
C539 C 0.82181 0.92142 0.32486 0.0
C540 C 0.79127 0.92823 0.31145 0.0
C541 C 0.08338 0.86851 0.31525 0.0
C542 C 0.03102 0.82506 0.31071 0.0
C543 C 0.08983 0.90639 0.32802 0.0
C544 C 0.04426 0.90155 0.33685 0.0
H545 H 0.11939 0.8754 0.30815 0.0
H546 H 0.1299 0.94241 0.32984 0.0
S547 S 0.89903 0.79318 0.33083 0.0
N548 N 0.9333 0.77738 0.31696 0.0
N549 N 0.94566 0.84834 0.34108 0.0
C550 C -0.00763 0.85564 0.33351 0.0
C551 C 0.98562 0.81744 0.32037 0.0
C552 C 0.80425 0.87768 0.81319 0.0
C553 C 0.81631 0.83605 0.80933 0.0
C554 C 0.83173 0.91545 0.82641 0.0
C555 C 0.87131 0.9121 0.8364 0.0
H556 H 0.77509 0.88265 0.80545 0.0
H557 H 0.82467 0.94957 0.82806 0.0
S558 S 0.91641 0.80968 0.8319 0.0
N559 N 0.86912 0.79264 0.8169 0.0
N560 N 0.91973 0.86267 0.84208 0.0
C561 C 0.88094 0.86836 0.83346 0.0
C562 C 0.85367 0.83049 0.81981 0.0
C563 C 0.153 0.93914 0.81488 0.0
C564 C 0.19871 0.99227 0.81287 0.0
C565 C 0.11534 0.92684 0.82825 0.0
C566 C 0.12179 0.96721 0.84009 0.0
H567 H 0.14427 0.90752 0.80545 0.0
H568 H 0.07802 0.88712 0.82825 0.0
S569 S 0.23961 0.10979 0.8423 0.0
N570 N 0.25271 0.08319 0.82527 0.0
N571 N 0.18141 0.06028 0.85043 0.0
C572 C 0.17057 0.01863 0.83942 0.0
C573 C 0.20909 0.03123 0.82572 0.0
C574 C 0.02437 0.21265 0.82517 0.0
C575 C 0.01995 0.19924 0.80756 0.0
C576 C 0.03966 0.18539 0.83733 0.0
C577 C 0.05152 0.14459 0.83211 0.0
H578 H 0.01794 0.24554 0.82946 0.0
H579 H 0.04317 0.19692 0.85077 0.0
S580 S 0.03639 0.08911 0.78762 0.0
N581 N 0.02212 0.13887 0.78581 0.0
N582 N 0.05063 0.08796 0.80815 0.0
C583 C 0.04434 0.12942 0.81454 0.0
C584 C 0.02861 0.15668 0.8024 0.0
C585 C 0.8492 0.87582 0.72031 0.0
C586 C 0.82968 0.82056 0.72449 0.0
C587 C 0.89009 0.90225 0.70769 0.0
C588 C 0.91247 0.87416 0.69897 0.0
H589 H 0.83545 0.89953 0.72754 0.0
H590 H 0.9063 0.94557 0.70541 0.0
S591 S 0.86732 0.72655 0.70321 0.0
N592 N 0.82982 0.73675 0.71744 0.0
N593 N 0.907 0.78668 0.69387 0.0
C594 C 0.89014 0.81798 0.70217 0.0
C595 C 0.84857 0.79111 0.71492 0.0
C596 C 0.20234 0.08629 0.72751 0.0
C597 C 0.20281 0.03658 0.72776 0.0
C598 C 0.17411 0.09717 0.71479 0.0
C599 C 0.1459 0.05924 0.70167 0.0
H600 H 0.22247 0.11654 0.73756 0.0
H601 H 0.17205 0.13447 0.71572 0.0
S602 S 0.13781 0.92484 0.69556 0.0
N603 N 0.1751 0.95023 0.71314 0.0
N604 N 0.12287 0.97151 0.68887 0.0
C605 C 0.14877 0.01085 0.70104 0.0
C606 C 0.17702 -0.00071 0.7142 0.0
C607 C 0.01787 0.20135 0.71349 0.0
C608 C 0.98215 0.18685 0.72769 0.0
C609 C 0.01042 0.16229 0.70092 0.0
C610 C 0.967 0.10766 0.70216 0.0
H611 H 0.0535 0.24214 0.71257 0.0
H612 H 0.04172 0.17357 0.69112 0.0
S613 S 0.85835 0.05018 0.73545 0.0
N614 N 0.89809 0.11497 0.74106 0.0
N615 N 0.88549 0.04225 0.71763 0.0
C616 C 0.92878 0.09392 0.71546 0.0
C617 C 0.93605 0.13332 0.72821 0.0
C618 C 0.86972 0.46801 0.56128 0.0
C619 C 0.8782 0.5216 0.55996 0.0
C620 C 0.83953 0.42822 0.54884 0.0
C621 C 0.81725 0.44063 0.53454 0.0
H622 H 0.88361 0.45557 0.57251 0.0
H623 H 0.82916 0.38616 0.55127 0.0
S624 S 0.834 0.57641 0.52376 0.0
N625 N 0.86712 0.58653 0.54215 0.0
N626 N 0.81018 0.5113 0.51879 0.0
C627 C 0.82975 0.49518 0.53221 0.0
C628 C 0.86008 0.53576 0.54497 0.0
C629 C 0.50106 0.33758 0.54725 0.0
C630 C 0.51065 0.37673 0.56006 0.0
C631 C 0.54102 0.34757 0.5347 0.0
C632 C 0.59174 0.39696 0.53462 0.0
H633 H 0.46348 0.29814 0.54735 0.0
H634 H 0.53355 0.31514 0.52573 0.0
S635 S 0.63422 0.51563 0.5636 0.0
N636 N 0.57253 0.46941 0.57048 0.0
N637 N 0.64745 0.48704 0.54716 0.0
C638 C 0.60039 0.4375 0.54662 0.0
C639 C 0.5599 0.4277 0.55928 0.0
C640 C 0.69249 0.21157 0.55903 0.0
C641 C 0.67069 0.15476 0.55787 0.0
C642 C 0.67678 0.23911 0.54735 0.0
C643 C 0.6387 0.21089 0.53412 0.0
H644 H 0.71969 0.23441 0.56954 0.0
H645 H 0.69352 0.28253 0.54911 0.0
S646 S 0.57308 0.06201 0.52503 0.0
N647 N 0.61155 0.07116 0.54215 0.0
N648 N 0.58254 0.12324 0.51995 0.0
C649 C 0.61882 0.1544 0.53233 0.0
C650 C 0.63457 0.12622 0.54433 0.0
C651 C 0.83466 0.57415 0.65057 0.0
C652 C 0.87236 0.55804 0.6454 0.0
C653 C 0.79724 0.54698 0.66395 0.0
C654 C 0.79653 0.5031 0.67275 0.0
H655 H 0.83176 0.60584 0.64353 0.0
H656 H 0.76541 0.55696 0.66633 0.0
S657 S 0.89016 0.44851 0.6653 0.0
N658 N 0.90978 0.49859 0.65103 0.0
N659 N 0.83983 0.4478 0.67639 0.0
C660 C 0.83749 0.49012 0.66882 0.0
C661 C 0.87531 0.51747 0.65504 0.0
C662 C 0.46145 0.2801 0.64873 0.0
C663 C 0.47528 0.33377 0.64383 0.0
C664 C 0.48941 0.27084 0.66204 0.0
C665 C 0.53156 0.31486 0.67107 0.0
H666 H 0.4309 0.24502 0.64158 0.0
H667 H 0.48131 0.22942 0.66424 0.0
S668 S 0.58098 0.46284 0.66412 0.0
N669 N 0.53149 0.43124 0.64982 0.0
N670 N 0.58366 0.41377 0.67498 0.0
C671 C 0.54254 0.36838 0.6673 0.0
C672 C 0.51453 0.37791 0.6536 0.0
C673 C 0.69643 0.15635 0.657 0.0
C674 C 0.67484 0.15678 0.64064 0.0
C675 C 0.70992 0.19928 0.66889 0.0
C676 C 0.70309 0.24396 0.66447 0.0
H677 H 0.70593 0.1246 0.66018 0.0
H678 H 0.72826 0.19895 0.68111 0.0
S679 S 0.64093 0.25912 0.62399 0.0
N680 N 0.64181 0.20149 0.62147 0.0
N681 N 0.66758 0.28203 0.64318 0.0
C682 C 0.67827 0.24233 0.64849 0.0
C683 C 0.66412 0.19879 0.63672 0.0
C684 C 0.46258 0.20291 0.14766 0.0
C685 C 0.46871 0.15691 0.1449 0.0
C686 C 0.49169 0.24072 0.16068 0.0
C687 C 0.52777 0.23369 0.17137 0.0
H688 H 0.43796 0.21182 0.13899 0.0
H689 H 0.49072 0.27866 0.16111 0.0
S690 S 0.55162 0.11583 0.17128 0.0
N691 N 0.50773 0.10262 0.15541 0.0
N692 N 0.56262 0.17403 0.17993 0.0
C693 C 0.52912 0.18462 0.1701 0.0
C694 C 0.49976 0.14619 0.15675 0.0
C695 C 0.88505 0.37304 0.15696 0.0
C696 C 0.87851 0.32877 0.14695 0.0
C697 C 0.84756 0.36465 0.17014 0.0
C698 C 0.80247 0.31198 0.17346 0.0
H699 H 0.91582 0.4147 0.15356 0.0
H700 H 0.84956 0.40041 0.17607 0.0
S701 S 0.77753 0.18144 0.15428 0.0
N702 N 0.83191 0.22936 0.14395 0.0
N703 N 0.76046 0.21427 0.16833 0.0
C704 C 0.80045 0.26693 0.16522 0.0
C705 C 0.83864 0.27523 0.15193 0.0
C706 C 0.73617 0.57371 0.15239 0.0
C707 C 0.68538 0.55031 0.14386 0.0
C708 C 0.7457 0.54496 0.1654 0.0
C709 C 0.70433 0.49255 0.17051 0.0
H710 H 0.76998 0.61284 0.14812 0.0
H711 H 0.78696 0.56152 0.17021 0.0
S712 S 0.5644 0.41347 0.152 0.0
N713 N 0.59328 0.4724 0.1414 0.0
N714 N 0.61038 0.41877 0.16621 0.0
C715 C 0.65207 0.47055 0.16288 0.0
C716 C 0.64271 0.4994 0.14944 0.0
C717 C 0.51973 0.21775 0.06248 0.0
C718 C 0.50072 0.16162 0.06212 0.0
C719 C 0.55918 0.25313 0.05074 0.0
C720 C 0.58032 0.23405 0.03765 0.0
H721 H 0.50525 0.23482 0.07227 0.0
H722 H 0.57238 0.29577 0.05227 0.0
S723 S 0.53896 0.08787 0.03077 0.0
N724 N 0.50321 0.08657 0.0478 0.0
N725 N 0.57566 0.15306 0.02489 0.0
C726 C 0.55965 0.17701 0.03687 0.0
C727 C 0.5204 0.14088 0.04931 0.0
C728 C 0.85836 0.40885 0.06476 0.0
C729 C 0.87138 0.3673 0.06218 0.0
C730 C 0.8283 0.41934 0.05263 0.0
C731 C 0.8101 0.38899 0.03733 0.0
H732 H 0.86943 0.43219 0.07662 0.0
H733 H 0.81591 0.44897 0.05581 0.0
S734 S 0.83984 0.28108 0.02309 0.0
N735 N 0.86927 0.29986 0.04219 0.0
N736 N 0.81175 0.31933 0.01933 0.0
C737 C 0.82646 0.35034 0.03385 0.0
C738 C 0.85721 0.33943 0.04632 0.0
C739 C 0.61473 0.50017 0.05161 0.0
C740 C 0.66955 0.5339 0.05674 0.0
C741 C 0.60073 0.46162 0.03843 0.0
C742 C 0.64098 0.45545 0.02978 0.0
H743 H 0.58202 0.50204 0.05833 0.0
H744 H 0.55769 0.43408 0.03569 0.0
S745 S 0.79094 0.53634 0.03766 0.0
N746 N 0.76473 0.56115 0.05161 0.0
N747 N 0.73854 0.48862 0.02662 0.0
C748 C 0.69641 0.49143 0.03401 0.0
C749 C 0.71069 0.53079 0.04755 0.0
C750 C 0.53245 0.86858 0.8789 0.0
C751 C 0.54663 0.85181 0.89422 0.0
C752 C 0.50348 0.83072 0.86574 0.0
C753 C 0.4879 0.77503 0.86749 0.0
H754 H 0.54102 0.91042 0.87746 0.0
H755 H 0.48849 0.84396 0.85497 0.0
S756 S 0.52259 0.71192 0.90354 0.0
N757 N 0.54913 0.77688 0.90916 0.0
N758 N 0.49416 0.70638 0.88452 0.0
C759 C 0.50635 0.75907 0.88191 0.0
C760 C 0.53569 0.79725 0.89529 0.0
C761 C 0.2337 0.72844 0.89924 0.0
C762 C 0.17779 0.69933 0.89491 0.0
C763 C 0.27436 0.74144 0.88688 0.0
C764 C 0.26133 0.72562 0.86957 0.0
H765 H 0.24652 0.74076 0.91242 0.0
H766 H 0.31671 0.76278 0.8911 0.0
S767 S 0.12127 0.65516 0.85094 0.0
N768 N 0.11128 0.65987 0.8717 0.0
N769 N 0.1883 0.68363 0.84833 0.0
C770 C 0.20568 0.69895 0.86476 0.0
C771 C 0.1638 0.68569 0.87748 0.0
C772 C 0.26181 0.45902 0.88938 0.0
C773 C 0.31553 0.46839 0.89121 0.0
C774 C 0.24937 0.48773 0.87716 0.0
C775 C 0.29029 0.52742 0.86642 0.0
H776 H 0.22976 0.43211 0.89826 0.0
H777 H 0.20914 0.48378 0.87759 0.0
S778 S 0.43399 0.55718 0.86314 0.0
N779 N 0.40725 0.51186 0.87896 0.0
N780 N 0.38409 0.56663 0.85608 0.0
C781 C 0.34214 0.53134 0.86644 0.0
C782 C 0.35489 0.50197 0.87894 0.0
C783 C 0.53447 0.86795 0.99111 0.0
C784 C 0.52307 0.89358 0.97745 0.0
C785 C 0.49606 0.84098 1.00437 0.0
C786 C 0.44507 0.8388 1.00435 0.0
H787 H 0.57154 0.86545 0.99096 0.0
H788 H 0.50399 0.81691 1.01361 0.0
S789 S 0.40083 0.91005 0.9738 0.0
N790 N 0.46132 0.92345 0.96651 0.0
N791 N 0.38931 0.87212 0.99124 0.0
C792 C 0.43615 0.86963 0.9919 0.0
C793 C 0.47497 0.89694 0.97843 0.0
C794 C 0.17929 0.70487 0.98759 0.0
C795 C 0.1358 0.6606 0.97905 0.0
C796 C 0.20896 0.69552 1.00033 0.0
C797 C 0.196 0.64177 1.00481 0.0
H798 H 0.19332 0.74664 0.98346 0.0
H799 H 0.24565 0.73053 1.00541 0.0
S800 S 0.07739 0.51278 0.98917 0.0
N801 N 0.07447 0.56164 0.97824 0.0
N802 N 0.13161 0.54439 1.00182 0.0
C803 C 0.14917 0.59755 0.99764 0.0
C804 C 0.11866 0.60696 0.98482 0.0
C805 C 0.33839 0.53772 0.97073 0.0
C806 C 0.34957 0.496 0.97471 0.0
C807 C 0.35216 0.58068 0.9821 0.0
C808 C 0.37846 0.58424 0.99788 0.0
H809 H 0.32049 0.53815 0.95841 0.0
H810 H 0.34294 0.61216 0.97826 0.0
S811 S 0.41303 0.48238 1.01482 0.0
N812 N 0.38528 0.45798 0.99577 0.0
N813 N 0.41138 0.53977 1.0175 0.0
C814 C 0.38715 0.54102 1.00254 0.0
C815 C 0.37277 0.49663 0.99081 0.0
C816 C 0.22046 0.49125 0.47915 0.0
C817 C 0.16297 0.46382 0.4795 0.0
C818 C 0.25129 0.52175 0.49337 0.0
C819 C 0.22568 0.52755 0.50814 0.0
H820 H 0.24176 0.4912 0.46754 0.0
H821 H 0.29549 0.54601 0.49202 0.0
S822 S 0.07593 0.46296 0.51535 0.0
N823 N 0.0813 0.44142 0.49607 0.0
N824 N 0.13941 0.50208 0.52234 0.0
C825 C 0.16812 0.49818 0.5089 0.0
C826 C 0.13669 0.46559 0.49465 0.0
C827 C 0.5029 0.71961 0.47097 0.0
C828 C 0.55081 0.71779 0.47436 0.0
C829 C 0.46863 0.71721 0.48427 0.0
C830 C 0.48024 0.71202 0.50154 0.0
H831 H 0.49008 0.71999 0.45783 0.0
H832 H 0.43028 0.71501 0.48089 0.0
S833 S 0.60357 0.71168 0.51759 0.0
N834 N 0.61137 0.71631 0.49642 0.0
N835 N 0.54508 0.70983 0.5216 0.0
C836 C 0.52973 0.71386 0.50534 0.0
C837 C 0.56554 0.71727 0.49168 0.0
C838 C 0.36497 0.88321 0.48844 0.0
C839 C 0.31703 0.86681 0.47882 0.0
C840 C 0.36546 0.85159 0.50226 0.0
C841 C 0.31839 0.80164 0.50669 0.0
H842 H 0.40329 0.91903 0.48462 0.0
H843 H 0.40453 0.86301 0.50821 0.0
S844 S 0.1807 0.74502 0.48722 0.0
N845 N 0.21942 0.80221 0.47628 0.0
N846 N 0.22124 0.74066 0.50171 0.0
C847 C 0.26897 0.78775 0.49834 0.0
C848 C 0.26814 0.82079 0.48444 0.0
C849 C 0.16751 0.47114 0.38122 0.0
C850 C 0.1363 0.4883 0.39059 0.0
C851 C 0.20134 0.50287 0.3677 0.0
C852 C 0.20591 0.55341 0.36327 0.0
H853 H 0.16836 0.43453 0.38503 0.0
H854 H 0.2282 0.49041 0.36181 0.0
S855 S 0.12683 0.61272 0.38232 0.0
N856 N 0.1063 0.55504 0.39319 0.0
N857 N 0.17164 0.61606 0.36794 0.0
C858 C 0.1708 0.56836 0.37137 0.0
C859 C 0.13561 0.53546 0.3851 0.0
C860 C 0.46479 0.61403 0.39064 0.0
C861 C 0.52164 0.63576 0.38943 0.0
C862 C 0.43492 0.61697 0.3767 0.0
C863 C 0.46113 0.64349 0.36125 0.0
H864 H 0.44381 0.59774 0.40279 0.0
H865 H 0.39204 0.60388 0.37871 0.0
S866 S 0.609 0.70492 0.3514 0.0
N867 N 0.60261 0.68085 0.37122 0.0
N868 N 0.54674 0.68958 0.34531 0.0
C869 C 0.51744 0.66268 0.35955 0.0
C870 C 0.54768 0.65804 0.3736 0.0
C871 C 0.40359 0.89532 0.3819 0.0
C872 C 0.35359 0.88373 0.38951 0.0
C873 C 0.40451 0.86358 0.36806 0.0
C874 C 0.35539 0.82043 0.36138 0.0
H875 H 0.44209 0.9257 0.38757 0.0
H876 H 0.44352 0.8687 0.36396 0.0
S877 S 0.21411 0.7827 0.37431 0.0
N878 N 0.25414 0.83263 0.38758 0.0
N879 N 0.25586 0.77457 0.36134 0.0
C880 C 0.30545 0.81404 0.36739 0.0
C881 C 0.30448 0.84495 0.38167 0.0
C882 C 0.24195 0.04888 0.13636 0.0
C883 C 0.25128 0.05366 0.1184 0.0
C884 C 0.19907 0.05388 0.14372 0.0
C885 C 0.16406 0.06366 0.13333 0.0
H886 H 0.26772 0.04084 0.14479 0.0
H887 H 0.19168 0.04729 0.15745 0.0
S888 S 0.17358 0.08311 0.08578 0.0
N889 N 0.22348 0.07104 0.09062 0.0
N890 N 0.14432 0.08193 0.10429 0.0
C891 C 0.17493 0.07122 0.11547 0.0
C892 C 0.21799 0.06563 0.10804 0.0
C893 C 0.9223 0.17492 0.12865 0.0
C894 C 0.97293 0.22209 0.12474 0.0
C895 C 0.91953 0.13285 0.13913 0.0
C896 C 0.96716 0.13675 0.14622 0.0
H897 H 0.88464 0.16971 0.1232 0.0
H898 H 0.8805 0.09518 0.14055 0.0
S899 S 0.10935 0.2521 0.14034 0.0
N900 N 0.0714 0.27095 0.12934 0.0
N901 N 0.06601 0.192 0.14903 0.0
C902 C 0.01744 0.18519 0.1433 0.0
C903 C 0.02043 0.22774 0.1325 0.0
C904 C 0.86048 0.77425 0.12305 0.0
C905 C 0.80671 0.76535 0.12402 0.0
C906 C 0.90366 0.81671 0.13233 0.0
C907 C 0.89453 0.85128 0.1431 0.0
H908 H 0.86984 0.74969 0.11452 0.0
H909 H 0.94514 0.82542 0.12995 0.0
S910 S 0.76128 0.84282 0.15147 0.0
N911 N 0.74646 0.79257 0.13773 0.0
N912 N 0.82774 0.87187 0.15517 0.0
C913 C 0.8405 0.8402 0.14523 0.0
C914 C 0.79657 0.7975 0.13565 0.0
C915 C 0.03606 0.24259 0.39674 0.0
C916 C 0.06328 0.26291 0.41257 0.0
C917 C 0.03785 0.19964 0.38811 0.0
C918 C 0.06681 0.17558 0.39507 0.0
H919 H 0.01184 0.25882 0.39123 0.0
H920 H 0.01291 0.18232 0.37671 0.0
S921 S 0.14912 0.21669 0.43515 0.0
N922 N 0.12366 0.25806 0.43403 0.0
N923 N 0.12658 0.17763 0.41784 0.0
C924 C 0.09699 0.19789 0.41023 0.0
C925 C 0.09519 0.24131 0.41902 0.0
C926 C 0.78098 0.8063 0.39585 0.0
C927 C 0.74637 0.81426 0.4071 0.0
C928 C 0.82483 0.85077 0.38733 0.0
C929 C 0.83569 0.90469 0.38984 0.0
H930 H 0.77592 0.76582 0.39424 0.0
H931 H 0.85339 0.84347 0.38009 0.0
S932 S 0.75286 0.94701 0.41558 0.0
N933 N 0.72211 0.87982 0.41837 0.0
N934 N 0.80527 0.96312 0.40262 0.0
C935 C 0.7989 0.91265 0.39983 0.0
C936 C 0.75414 0.86753 0.40845 0.0
C937 C 0.19629 0.9574 0.39506 0.0
C938 C 0.21284 0.97328 0.41227 0.0
C939 C 0.149 0.95591 0.3883 0.0
C940 C 0.11707 0.97031 0.39859 0.0
H941 H 0.21918 0.94474 0.38696 0.0
H942 H 0.13711 0.94288 0.37511 0.0
S943 S 0.14999 0.02421 0.44354 0.0
N944 N 0.19771 0.00911 0.43867 0.0
N945 N 0.11085 0.00808 0.42631 0.0
C946 C 0.13556 0.9889 0.41558 0.0
C947 C 0.18284 0.98987 0.42234 0.0
C948 C 0.78998 0.00607 0.89916 0.0
C949 C 0.76335 0.96882 0.9128 0.0
C950 C 0.8337 0.00709 0.89023 0.0
C951 C 0.85181 0.97039 0.89444 0.0
H952 H 0.77862 0.03636 0.8958 0.0
H953 H 0.85613 0.03949 0.88089 0.0
S954 S 0.79154 0.85963 0.92716 0.0
N955 N 0.75471 0.89012 0.92865 0.0
N956 N 0.83714 0.89258 0.91181 0.0
C957 C 0.82305 0.93028 0.90705 0.0
C958 C 0.77879 0.92938 0.91628 0.0
C959 C 0.00141 0.79503 0.90578 0.0
C960 C 0.05202 0.80416 0.912 0.0
C961 C -0.00304 0.83722 0.89784 0.0
C962 C 0.04306 0.88974 0.89546 0.0
H963 H 0.96448 0.75571 0.90775 0.0
H964 H 0.95652 0.8295 0.89431 0.0
S965 S 0.18647 0.93218 0.90661 0.0
N966 N 0.15051 0.86782 0.91335 0.0
N967 N 0.1418 0.94706 0.89809 0.0
C968 C 0.09462 0.89836 0.90032 0.0
C969 C 0.09915 0.85556 0.90873 0.0
C970 C 0.17158 0.25283 0.91031 0.0
C971 C 0.22293 0.25631 0.91226 0.0
C972 C 0.12899 0.20954 0.90113 0.0
C973 C 0.13668 0.16866 0.89365 0.0
H974 H 0.16379 0.28293 0.9163 0.0
H975 H 0.08884 0.20578 0.90101 0.0
S976 S 0.26422 0.16155 0.89361 0.0
N977 N 0.28004 0.21756 0.90469 0.0
N978 N 0.19978 0.13605 0.88762 0.0
C979 C 0.18873 0.17378 0.8945 0.0
C980 C 0.23198 0.21766 0.90378 0.0
C981 C 0.92646 0.76671 0.62947 0.0
C982 C 0.9719 0.77206 0.6202 0.0
C983 C 0.9286 0.81233 0.6376 0.0
C984 C 0.97611 0.86414 0.63643 0.0
H985 H 0.88905 0.72722 0.63028 0.0
H986 H 0.89243 0.80764 0.64405 0.0
S987 S 0.10639 0.89855 0.61445 0.0
N988 N 0.066 0.83209 0.61113 0.0
N989 N 0.07009 0.91775 0.62614 0.0
C990 C 0.02232 0.86913 0.62784 0.0
C991 C 0.02023 0.82302 0.61976 0.0
C992 C 0.25353 0.16623 0.62103 0.0
C993 C 0.26285 0.21996 0.62281 0.0
C994 C 0.21086 0.12219 0.62999 0.0
C995 C 0.17673 0.13056 0.64122 0.0
H996 H 0.27809 0.15777 0.6122 0.0
H997 H 0.20191 0.08085 0.62716 0.0
S998 S 0.18569 0.26312 0.65131 0.0
N999 N 0.236 0.27919 0.63746 0.0
N1000 N 0.15627 0.19615 0.65434 0.0
C1001 C 0.18787 0.18431 0.64402 0.0
C1002 C 0.23075 0.22911 0.63476 0.0
C1003 C 0.85008 0.1068 0.63064 0.0
C1004 C 0.80629 0.05767 0.62408 0.0
C1005 C 0.89247 0.10668 0.6401 0.0
C1006 C 0.89173 0.05734 0.6434 0.0
H1007 H 0.85235 0.14569 0.62803 0.0
H1008 H 0.92769 0.1455 0.64379 0.0
S1009 S 0.78663 0.91814 0.62901 0.0
N1010 N 0.76455 0.95872 0.62175 0.0
N1011 N 0.84375 0.95843 0.63959 0.0
C1012 C 0.84669 0.00785 0.63768 0.0
C1013 C 0.80405 0.008 0.62796 0.0
C1014 C 0.91033 0.37064 0.47268 0.0
C1015 C 0.9364 0.40474 0.45832 0.0
C1016 C 0.86654 0.37129 0.48113 0.0
C1017 C 0.84715 0.4057 0.47537 0.0
H1018 H 0.92267 0.34195 0.47708 0.0
H1019 H 0.84475 0.34132 0.49118 0.0
S1020 S 0.90355 0.50565 0.4393 0.0
N1021 N 0.94188 0.47666 0.4396 0.0
N1022 N 0.85949 0.47733 0.45533 0.0
C1023 C 0.87527 0.44253 0.46182 0.0
C1024 C 0.91978 0.44205 0.45327 0.0
C1025 C 0.68169 0.55441 0.45749 0.0
C1026 C 0.63294 0.55586 0.45887 0.0
C1027 C 0.6858 0.51105 0.46455 0.0
C1028 C 0.64168 0.46779 0.47347 0.0
H1029 H 0.71607 0.58556 0.45017 0.0
H1030 H 0.72323 0.51006 0.46232 0.0
S1031 S 0.50871 0.45782 0.48343 0.0
N1032 N 0.5419 0.51433 0.47169 0.0
N1033 N 0.55017 0.4325 0.48521 0.0
C1034 C 0.59416 0.47078 0.47618 0.0
C1035 C 0.58962 0.51489 0.46874 0.0
C1036 C 0.50345 0.09275 0.46686 0.0
C1037 C 0.46587 0.09841 0.45627 0.0
C1038 C 0.54844 0.13885 0.47435 0.0
C1039 C 0.55697 0.19161 0.47123 0.0
H1040 H 0.49866 0.05257 0.46906 0.0
H1041 H 0.578 0.13352 0.48174 0.0
S1042 S 0.46953 0.228 0.44516 0.0
N1043 N 0.43923 0.1605 0.44377 0.0
N1044 N 0.52323 0.24683 0.45772 0.0
C1045 C 0.51822 0.19725 0.46136 0.0
C1046 C 0.47272 0.15069 0.45388 0.0
C1047 C 0.66477 0.55145 0.74037 0.0
C1048 C 0.71662 0.5949 0.745 0.0
C1049 C 0.65913 0.50466 0.73219 0.0
C1050 C 0.70512 0.49996 0.72792 0.0
H1051 H 0.62807 0.55255 0.74373 0.0
H1052 H 0.61812 0.47071 0.72982 0.0
S1053 S 0.85045 0.60656 0.73443 0.0
N1054 N 0.81538 0.63335 0.74287 0.0
N1055 N 0.80448 0.54542 0.72707 0.0
C1056 C 0.75743 0.54489 0.73118 0.0
C1057 C 0.76324 0.59231 0.73989 0.0
C1058 C 0.44129 0.19262 0.74438 0.0
C1059 C 0.42921 0.13761 0.74391 0.0
C1060 C 0.4872 0.23442 0.73568 0.0
C1061 C 0.5225 0.22252 0.7263 0.0
H1062 H 0.41589 0.20369 0.75186 0.0
H1063 H 0.49715 0.27664 0.73727 0.0
S1064 S 0.5075 0.08537 0.72 0.0
N1065 N 0.45477 0.07351 0.73225 0.0
N1066 N 0.54121 0.15217 0.71628 0.0
C1067 C 0.50942 0.16758 0.72503 0.0
C1068 C 0.46271 0.12507 0.73374 0.0
C1069 C 0.89876 0.36311 0.73717 0.0
C1070 C 0.8892 0.3124 0.74355 0.0
C1071 C 0.85783 0.36714 0.7282 0.0
C1072 C 0.80634 0.32049 0.72488 0.0
H1073 H 0.93708 0.40035 0.73988 0.0
H1074 H 0.86533 0.40764 0.72472 0.0
S1075 S 0.76519 0.17675 0.73567 0.0
N1076 N 0.82755 0.21341 0.74377 0.0
N1077 N 0.75079 0.2212 0.72664 0.0
C1078 C 0.79809 0.26893 0.72977 0.0
C1079 C 0.83946 0.26485 0.73923 0.0
C1080 C 0.44974 0.32063 0.22815 0.0
C1081 C 0.42337 0.28814 0.24279 0.0
C1082 C 0.49317 0.31852 0.22006 0.0
C1083 C 0.51161 0.28395 0.2264 0.0
H1084 H 0.43861 0.34988 0.2234 0.0
H1085 H 0.51569 0.3478 0.20991 0.0
S1086 S 0.45125 0.18442 0.26238 0.0
N1087 N 0.4146 0.2152 0.26175 0.0
N1088 N 0.49645 0.21189 0.2466 0.0
C1089 C 0.48238 0.24774 0.23992 0.0
C1090 C 0.43831 0.24979 0.24817 0.0
C1091 C 0.69542 0.13978 0.23024 0.0
C1092 C 0.73147 0.14826 0.24396 0.0
C1093 C 0.6978 0.18415 0.22131 0.0
C1094 C 0.73624 0.23836 0.22581 0.0
H1095 H 0.66316 0.09873 0.22695 0.0
H1096 H 0.66585 0.17609 0.21205 0.0
S1097 S 0.84676 0.28275 0.25814 0.0
N1098 N 0.81253 0.21504 0.25963 0.0
N1099 N 0.81579 0.29838 0.24297 0.0
C1100 C 0.7758 0.24732 0.23826 0.0
C1101 C 0.77358 0.20225 0.24738 0.0
C1102 C 0.85535 0.55127 0.25583 0.0
C1103 C 0.88744 0.59658 0.24537 0.0
C1104 C 0.80926 0.50536 0.24933 0.0
C1105 C 0.79257 0.50214 0.23195 0.0
H1106 H 0.86642 0.55083 0.26918 0.0
H1107 H 0.78721 0.47149 0.25821 0.0
S1108 S 0.86033 0.6145 0.1998 0.0
N1109 N 0.89839 0.63911 0.21727 0.0
N1110 N 0.81081 0.5517 0.20475 0.0
C1111 C 0.82361 0.54841 0.22139 0.0
C1112 C 0.87133 0.59575 0.22815 0.0
C1113 C 0.62607 0.1372 0.94374 0.0
C1114 C 0.63715 0.10258 0.95375 0.0
C1115 C 0.6206 0.17919 0.95129 0.0
C1116 C 0.62654 0.18921 0.96926 0.0
H1117 H 0.6222 0.13229 0.92988 0.0
H1118 H 0.61346 0.20527 0.94269 0.0
S1119 S 0.65084 0.106 1.00135 0.0
N1120 N 0.64905 0.07714 0.9827 0.0
N1121 N 0.64201 0.15837 0.99684 0.0
C1122 C 0.63632 0.15377 0.97948 0.0
C1123 C 0.64105 0.11014 0.97175 0.0
C1124 C 0.90778 0.5467 0.97071 0.0
C1125 C 0.92969 0.5413 0.95495 0.0
C1126 C 0.86676 0.50052 0.97962 0.0
C1127 C 0.84632 0.44714 0.97315 0.0
H1128 H 0.92133 0.58705 0.97601 0.0
H1129 H 0.84832 0.50705 0.99095 0.0
S1130 S 0.89358 0.40988 0.93343 0.0
N1131 N 0.93015 0.47754 0.93401 0.0
N1132 N 0.85469 0.39135 0.95084 0.0
C1133 C 0.87066 0.44112 0.95805 0.0
C1134 C 0.91161 0.48792 0.94889 0.0
C1135 C 0.49007 0.39662 0.97086 0.0
C1136 C 0.48144 0.39618 0.95295 0.0
C1137 C 0.53816 0.39988 0.97748 0.0
C1138 C 0.57907 0.40281 0.96637 0.0
H1139 H 0.45962 0.3947 0.97979 0.0
H1140 H 0.54279 0.39915 0.99132 0.0
S1141 S 0.57241 0.3973 0.91842 0.0
N1142 N 0.51545 0.39544 0.9244 0.0
N1143 N 0.60521 0.40176 0.93643 0.0
C1144 C 0.57013 0.402 0.94841 0.0
C1145 C 0.52149 0.39858 0.94181 0.0
C1146 C 0.55188 0.71514 0.77873 0.0
C1147 C 0.59458 0.72125 0.78929 0.0
C1148 C 0.50699 0.71654 0.78553 0.0
C1149 C 0.50217 0.72426 0.80332 0.0
H1150 H 0.55286 0.70881 0.765 0.0
H1151 H 0.47518 0.71042 0.77649 0.0
S1152 S 0.60613 0.7468 0.83645 0.0
N1153 N 0.63192 0.73831 0.81836 0.0
N1154 N 0.54637 0.74057 0.83133 0.0
C1155 C 0.54519 0.73119 0.81414 0.0
C1156 C 0.59155 0.72968 0.80709 0.0
C1157 C 0.35 0.88722 0.78938 0.0
C1158 C 0.30138 0.88907 0.78863 0.0
C1159 C 0.35096 0.84327 0.79742 0.0
C1160 C 0.30377 0.80056 0.80532 0.0
H1161 H 0.38683 0.91868 0.78309 0.0
H1162 H 0.38835 0.84135 0.7968 0.0
S1163 S 0.16921 0.79209 0.80969 0.0
N1164 N 0.20675 0.84859 0.79829 0.0
N1165 N 0.20903 0.76591 0.81365 0.0
C1166 C 0.25594 0.80385 0.80574 0.0
C1167 C 0.25467 0.84829 0.79731 0.0
C1168 C 0.16974 0.42615 0.80278 0.0
C1169 C 0.13485 0.43324 0.79134 0.0
C1170 C 0.21312 0.47139 0.81134 0.0
C1171 C 0.2223 0.52474 0.80871 0.0
H1172 H 0.16401 0.38555 0.80485 0.0
H1173 H 0.24097 0.465 0.81929 0.0
S1174 S 0.14238 0.56442 0.78006 0.0
N1175 N 0.11221 0.49706 0.77804 0.0
N1176 N 0.19245 0.58158 0.79404 0.0
C1177 C 0.18623 0.53152 0.79774 0.0
C1178 C 0.14282 0.48593 0.78906 0.0
C1179 C 0.39782 0.89089 0.091 0.0
C1180 C 0.38822 0.92586 0.0806 0.0
C1181 C 0.4 0.84657 0.08394 0.0
C1182 C 0.39269 0.83517 0.06615 0.0
H1183 H 0.40208 0.89674 0.10483 0.0
H1184 H 0.40507 0.81941 0.09269 0.0
S1185 S 0.37598 0.9204 0.03293 0.0
N1186 N 0.37857 0.95101 0.05132 0.0
N1187 N 0.38174 0.86653 0.03801 0.0
C1188 C 0.38689 0.87208 0.05538 0.0
C1189 C 0.38455 0.91752 0.06264 0.0
C1190 C 0.11413 0.52936 0.08337 0.0
C1191 C 0.09317 0.47586 0.07693 0.0
C1192 C 0.1582 0.57443 0.07529 0.0
C1193 C 0.18253 0.56777 0.06041 0.0
H1194 H 0.09829 0.53629 0.09523 0.0
H1195 H 0.17638 0.61411 0.08156 0.0
S1196 S 0.13737 0.43836 0.03663 0.0
N1197 N 0.09554 0.42008 0.05336 0.0
N1198 N 0.17882 0.50537 0.03832 0.0
C1199 C 0.15882 0.51563 0.05289 0.0
C1200 C 0.11409 0.46944 0.06116 0.0
C1201 C 0.5631 0.68267 0.06566 0.0
C1202 C 0.55603 0.63584 0.07443 0.0
C1203 C 0.51903 0.68221 0.05712 0.0
C1204 C 0.46673 0.63478 0.05687 0.0
H1205 H 0.60197 0.7208 0.06624 0.0
H1206 H 0.52471 0.72056 0.052 0.0
S1207 S 0.4298 0.49846 0.0746 0.0
N1208 N 0.49489 0.53828 0.07991 0.0
N1209 N 0.4122 0.53811 0.06397 0.0
C1210 C 0.46051 0.58647 0.06415 0.0
C1211 C 0.50514 0.58685 0.07294 0.0
C1212 C 0.13234 0.6376 0.58573 0.0
C1213 C 0.1055 0.663 0.57835 0.0
C1214 C 0.1773 0.63935 0.57773 0.0
C1215 C 0.19851 0.66714 0.56194 0.0
H1216 H 0.11827 0.61544 0.59781 0.0
H1217 H 0.19576 0.61868 0.58428 0.0
S1218 S 0.14246 0.74013 0.53696 0.0
N1219 N 0.10224 0.71629 0.55408 0.0
N1220 N 0.18845 0.72062 0.53913 0.0
C1221 C 0.17222 0.69303 0.55432 0.0
C1222 C 0.12545 0.69076 0.56249 0.0
C1223 C 0.33908 0.45854 0.56412 0.0
C1224 C 0.36544 0.46542 0.58016 0.0
C1225 C 0.33599 0.50211 0.55621 0.0
C1226 C 0.35964 0.55409 0.56403 0.0
H1227 H 0.32163 0.41958 0.55747 0.0
H1228 H 0.31609 0.4954 0.5438 0.0
S1229 S 0.42925 0.59181 0.60676 0.0
N1230 N 0.41247 0.5273 0.60394 0.0
N1231 N 0.407 0.60828 0.58943 0.0
C1232 C 0.38455 0.56058 0.58034 0.0
C1233 C 0.38738 0.51655 0.58831 0.0
C1234 C 0.5105 0.91045 0.57783 0.0
C1235 C 0.56513 0.92527 0.57469 0.0
C1236 C 0.46744 0.86665 0.56927 0.0
C1237 C 0.47635 0.83407 0.55739 0.0
H1238 H 0.50048 0.93277 0.5871 0.0
H1239 H 0.4263 0.85722 0.5726 0.0
S1240 S 0.61244 0.85958 0.54289 0.0
N1241 N 0.62683 0.90778 0.55741 0.0
N1242 N 0.5448 0.82306 0.54172 0.0
C1243 C 0.53096 0.84986 0.55338 0.0
C1244 C 0.57551 0.89582 0.56198 0.0
C1245 C 0.35351 0.46504 0.30382 0.0
C1246 C 0.33943 0.45507 0.28619 0.0
C1247 C 0.35554 0.51016 0.31242 0.0
C1248 C 0.34377 0.54656 0.30356 0.0
H1249 H 0.36035 0.43635 0.3112 0.0
H1250 H 0.36374 0.51502 0.32613 0.0
S1251 S 0.31388 0.54355 0.2568 0.0
N1252 N 0.31943 0.48864 0.25999 0.0
N1253 N 0.32477 0.57355 0.27575 0.0
C1254 C 0.3335 0.53887 0.28571 0.0
C1255 C 0.33082 0.49306 0.27712 0.0
C1256 C 0.5641 0.90573 0.30611 0.0
C1257 C 0.57 0.90728 0.28799 0.0
C1258 C 0.51775 0.8626 0.31437 0.0
C1259 C 0.47591 0.82025 0.30467 0.0
H1260 H 0.59681 0.93637 0.314 0.0
H1261 H 0.51612 0.86088 0.32831 0.0
S1262 S 0.46766 0.81068 0.25689 0.0
N1263 N 0.5275 0.86598 0.26075 0.0
N1264 N 0.44004 0.78674 0.27597 0.0
C1265 C 0.47975 0.82399 0.28653 0.0
C1266 C 0.52693 0.86694 0.27825 0.0
C1267 C 0.16766 0.74177 0.29979 0.0
C1268 C 0.12616 0.69628 0.29101 0.0
C1269 C 0.2048 0.73652 0.31046 0.0
C1270 C 0.20234 0.68573 0.31265 0.0
H1271 H 0.17209 0.78202 0.29816 0.0
H1272 H 0.23826 0.77337 0.31608 0.0
S1273 S 0.09986 0.55363 0.29311 0.0
N1274 N 0.08231 0.59806 0.28605 0.0
N1275 N 0.15385 0.5887 0.30563 0.0
C1276 C 0.1593 0.63935 0.30468 0.0
C1277 C 0.12083 0.64454 0.29395 0.0
loop_
_geom_bond_atom_site_label_1
_geom_bond_atom_site_label_2
_geom_bond_distance
_geom_bond_site_symmetry_2
_ccdc_geom_bond_type
In0 O1 2.294 . S
In0 O2 2.326 . S
In0 O6 2.266 . S
In0 O7 2.326 1_545 S
In0 O8 2.266 1_545 S
In0 O9 2.326 1_545 S
In0 O11 2.294 1_545 S
In0 O12 2.326 . S
O1 In0 2.294 . S
O1 C10 1.240 . S
O2 In0 2.326 . S
O2 C10 1.252 . S
C3 O6 1.252 . S
C3 O7 1.260 1_545 S
C4 O11 1.240 1_545 S
C4 O12 1.252 . S
C5 O8 1.252 . S
C5 O9 1.260 . S
O6 In0 2.266 . S
O6 C3 1.252 . S
O7 In0 2.326 1_565 S
O7 C3 1.260 1_565 S
O8 In0 2.266 1_565 S
O8 C5 1.252 . S
O9 In0 2.326 1_565 S
O9 C5 1.260 . S
C10 O1 1.240 . S
C10 O2 1.252 . S
O11 In0 2.294 1_565 S
O11 C4 1.240 1_565 S
O12 In0 2.326 . S
O12 C4 1.252 . S
In13 O14 2.294 . S
In13 O15 2.326 . S
In13 O19 2.266 . S
In13 O20 2.326 1_455 S
In13 O21 2.266 1_455 S
In13 O22 2.326 1_455 S
In13 O24 2.294 1_455 S
In13 O25 2.326 . S
O14 In13 2.294 . S
O14 C23 1.240 . S
O15 In13 2.326 . S
O15 C23 1.252 . S
C16 O19 1.252 . S
C16 O20 1.260 1_455 S
C17 O24 1.240 1_455 S
C17 O25 1.252 . S
C18 O21 1.252 . S
C18 O22 1.260 . S
O19 In13 2.266 . S
O19 C16 1.252 . S
O20 In13 2.326 1_655 S
O20 C16 1.260 1_655 S
O21 In13 2.266 1_655 S
O21 C18 1.252 . S
O22 In13 2.326 1_655 S
O22 C18 1.260 . S
C23 O14 1.240 . S
C23 O15 1.252 . S
O24 In13 2.294 1_655 S
O24 C17 1.240 1_655 S
O25 In13 2.326 . S
O25 C17 1.252 . S
In26 O27 2.294 . S
In26 O28 2.326 . S
In26 O32 2.266 . S
In26 O33 2.326 . S
In26 O34 2.266 . S
In26 O35 2.326 . S
In26 O37 2.294 . S
In26 O38 2.326 . S
O27 In26 2.294 . S
O27 C36 1.240 . S
O28 In26 2.326 . S
O28 C36 1.252 . S
C29 O32 1.252 . S
C29 O33 1.260 . S
C30 O37 1.240 . S
C30 O38 1.252 . S
C31 O34 1.252 . S
C31 O35 1.260 . S
O32 In26 2.266 . S
O32 C29 1.252 . S
O33 In26 2.326 . S
O33 C29 1.260 . S
O34 In26 2.266 . S
O34 C31 1.252 . S
O35 In26 2.326 . S
O35 C31 1.260 . S
C36 O27 1.240 . S
C36 O28 1.252 . S
O37 In26 2.294 . S
O37 C30 1.240 . S
O38 In26 2.326 . S
O38 C30 1.252 . S
In39 O40 2.294 . S
In39 O41 2.326 1_545 S
In39 O45 2.266 . S
In39 O46 2.326 . S
In39 O47 2.266 1_545 S
In39 O48 2.326 . S
In39 O50 2.294 1_545 S
In39 O51 2.326 1_545 S
O40 In39 2.294 . S
O40 C49 1.240 . S
O41 In39 2.326 1_565 S
O41 C49 1.252 1_565 S
C42 O45 1.252 . S
C42 O46 1.260 . S
C43 O50 1.240 . S
C43 O51 1.252 . S
C44 O47 1.252 1_545 S
C44 O48 1.260 . S
O45 In39 2.266 . S
O45 C42 1.252 . S
O46 In39 2.326 . S
O46 C42 1.260 . S
O47 In39 2.266 1_565 S
O47 C44 1.252 1_565 S
O48 In39 2.326 . S
O48 C44 1.260 . S
C49 O40 1.240 . S
C49 O41 1.252 1_545 S
O50 In39 2.294 1_565 S
O50 C43 1.240 . S
O51 In39 2.326 1_565 S
O51 C43 1.252 . S
In52 O53 2.294 . S
In52 O54 2.326 1_455 S
In52 O58 2.266 . S
In52 O59 2.326 . S
In52 O60 2.266 1_455 S
In52 O61 2.326 . S
In52 O63 2.294 1_455 S
In52 O64 2.326 1_455 S
O53 In52 2.294 . S
O53 C62 1.240 . S
O54 In52 2.326 1_655 S
O54 C62 1.252 1_655 S
C55 O58 1.252 . S
C55 O59 1.260 . S
C56 O63 1.240 . S
C56 O64 1.252 . S
C57 O60 1.252 1_455 S
C57 O61 1.260 . S
O58 In52 2.266 . S
O58 C55 1.252 . S
O59 In52 2.326 . S
O59 C55 1.260 . S
O60 In52 2.266 1_655 S
O60 C57 1.252 1_655 S
O61 In52 2.326 . S
O61 C57 1.260 . S
C62 O53 1.240 . S
C62 O54 1.252 1_455 S
O63 In52 2.294 1_655 S
O63 C56 1.240 . S
O64 In52 2.326 1_655 S
O64 C56 1.252 . S
In65 O66 2.294 . S
In65 O67 2.326 . S
In65 O71 2.266 . S
In65 O72 2.326 . S
In65 O73 2.266 . S
In65 O74 2.326 . S
In65 O76 2.294 . S
In65 O77 2.326 . S
O66 In65 2.294 . S
O66 C75 1.240 . S
O67 In65 2.326 . S
O67 C75 1.252 . S
C68 O71 1.252 . S
C68 O72 1.260 . S
C69 O76 1.240 . S
C69 O77 1.252 . S
C70 O73 1.252 . S
C70 O74 1.260 . S
O71 In65 2.266 . S
O71 C68 1.252 . S
O72 In65 2.326 . S
O72 C68 1.260 . S
O73 In65 2.266 . S
O73 C70 1.252 . S
O74 In65 2.326 . S
O74 C70 1.260 . S
C75 O66 1.240 . S
C75 O67 1.252 . S
O76 In65 2.294 . S
O76 C69 1.240 . S
O77 In65 2.326 . S
O77 C69 1.252 . S
In78 O79 2.294 . S
In78 O80 2.326 . S
In78 O84 2.266 . S
In78 O85 2.326 . S
In78 O86 2.266 . S
In78 O87 2.326 . S
In78 O89 2.294 . S
In78 O90 2.326 . S
O79 In78 2.294 . S
O79 C88 1.240 . S
O80 In78 2.326 . S
O80 C88 1.252 . S
C81 O84 1.252 . S
C81 O85 1.260 . S
C82 O89 1.240 . S
C82 O90 1.252 . S
C83 O86 1.252 . S
C83 O87 1.260 . S
O84 In78 2.266 . S
O84 C81 1.252 . S
O85 In78 2.326 . S
O85 C81 1.260 . S
O86 In78 2.266 . S
O86 C83 1.252 . S
O87 In78 2.326 . S
O87 C83 1.260 . S
C88 O79 1.240 . S
C88 O80 1.252 . S
O89 In78 2.294 . S
O89 C82 1.240 . S
O90 In78 2.326 . S
O90 C82 1.252 . S
In91 O92 2.294 . S
In91 O93 2.326 . S
In91 O97 2.275 . S
In91 O98 2.326 . S
In91 O99 2.266 . S
In91 O100 2.326 . S
In91 O102 2.294 . S
In91 O103 2.326 . S
O92 In91 2.294 . S
O92 C101 1.240 . S
O93 In91 2.326 . S
O93 C101 1.252 . S
C94 O97 1.238 1_565 S
C94 O98 1.260 1_565 S
C95 O102 1.240 . S
C95 O103 1.252 . S
C96 O99 1.252 . S
C96 O100 1.260 . S
O97 In91 2.275 . S
O97 C94 1.238 1_545 S
O98 In91 2.326 . S
O98 C94 1.260 1_545 S
O99 In91 2.266 . S
O99 C96 1.252 . S
O100 In91 2.326 . S
O100 C96 1.260 . S
C101 O92 1.240 . S
C101 O93 1.252 . S
O102 In91 2.294 . S
O102 C95 1.240 . S
O103 In91 2.326 . S
O103 C95 1.252 . S
In104 O105 2.294 . S
In104 O106 2.326 1_655 S
In104 O110 2.266 . S
In104 O111 2.326 . S
In104 O112 2.266 1_655 S
In104 O113 2.326 1_655 S
In104 O115 2.294 . S
In104 O116 2.326 . S
O105 In104 2.294 . S
O105 C114 1.240 . S
O106 In104 2.326 1_455 S
O106 C114 1.252 1_455 S
C107 O110 1.252 . S
C107 O111 1.260 . S
C108 O115 1.240 . S
C108 O116 1.252 . S
C109 O112 1.252 . S
C109 O113 1.260 . S
O110 In104 2.266 . S
O110 C107 1.252 . S
O111 In104 2.326 . S
O111 C107 1.260 . S
O112 In104 2.266 1_455 S
O112 C109 1.252 . S
O113 In104 2.326 1_455 S
O113 C109 1.260 . S
C114 O105 1.240 . S
C114 O106 1.252 1_655 S
O115 In104 2.294 . S
O115 C108 1.240 . S
O116 In104 2.326 . S
O116 C108 1.252 . S
In117 O118 2.294 . S
In117 O119 2.326 1_655 S
In117 O123 2.266 . S
In117 O124 2.326 . S
In117 O125 2.266 1_655 S
In117 O126 2.326 1_655 S
In117 O128 2.294 . S
In117 O129 2.326 . S
O118 In117 2.294 . S
O118 C127 1.240 . S
O119 In117 2.326 1_455 S
O119 C127 1.252 1_455 S
C120 O123 1.252 . S
C120 O124 1.260 . S
C121 O128 1.240 . S
C121 O129 1.252 . S
C122 O125 1.252 . S
C122 O126 1.260 . S
O123 In117 2.266 . S
O123 C120 1.252 . S
O124 In117 2.326 . S
O124 C120 1.260 . S
O125 In117 2.266 1_455 S
O125 C122 1.252 . S
O126 In117 2.326 1_455 S
O126 C122 1.260 . S
C127 O118 1.240 . S
C127 O119 1.252 1_655 S
O128 In117 2.294 . S
O128 C121 1.240 . S
O129 In117 2.326 . S
O129 C121 1.252 . S
In130 O131 2.294 . S
In130 O132 2.326 . S
In130 O136 2.266 . S
In130 O137 2.326 . S
In130 O138 2.266 . S
In130 O139 2.326 . S
In130 O141 2.294 . S
In130 O142 2.326 . S
O131 In130 2.294 . S
O131 C140 1.240 . S
O132 In130 2.326 . S
O132 C140 1.252 . S
C133 O136 1.252 . S
C133 O137 1.260 . S
C134 O141 1.240 . S
C134 O142 1.252 . S
C135 O138 1.252 . S
C135 O139 1.260 . S
O136 In130 2.266 . S
O136 C133 1.252 . S
O137 In130 2.326 . S
O137 C133 1.260 . S
O138 In130 2.266 . S
O138 C135 1.252 . S
O139 In130 2.326 . S
O139 C135 1.260 . S
C140 O131 1.240 . S
C140 O132 1.252 . S
O141 In130 2.294 . S
O141 C134 1.240 . S
O142 In130 2.326 . S
O142 C134 1.252 . S
In143 O144 2.294 1_545 S
In143 O145 2.326 . S
In143 O149 2.266 . S
In143 O150 2.326 . S
In143 O151 2.266 . S
In143 O152 2.326 . S
In143 O154 2.294 . S
In143 O155 2.326 . S
O144 In143 2.294 1_565 S
O144 C153 1.240 . S
O145 In143 2.326 . S
O145 C153 1.252 1_545 S
C146 O149 1.252 . S
C146 O150 1.260 . S
C147 O154 1.240 . S
C147 O155 1.252 . S
C148 O151 1.252 . S
C148 O152 1.260 . S
O149 In143 2.266 . S
O149 C146 1.252 . S
O150 In143 2.326 . S
O150 C146 1.260 . S
O151 In143 2.266 . S
O151 C148 1.252 . S
O152 In143 2.326 . S
O152 C148 1.260 . S
C153 O144 1.240 . S
C153 O145 1.252 1_565 S
O154 In143 2.294 . S
O154 C147 1.240 . S
O155 In143 2.326 . S
O155 C147 1.252 . S
In156 O157 2.294 . S
In156 O158 2.326 . S
In156 O162 2.266 . S
In156 O163 2.326 . S
In156 O164 2.266 . S
In156 O165 2.326 . S
In156 O167 2.294 . S
In156 O168 2.326 . S
O157 In156 2.294 . S
O157 C166 1.240 . S
O158 In156 2.326 . S
O158 C166 1.252 . S
C159 O162 1.252 . S
C159 O163 1.260 . S
C160 O167 1.240 . S
C160 O168 1.252 . S
C161 O164 1.252 1_655 S
C161 O165 1.260 1_655 S
O162 In156 2.266 . S
O162 C159 1.252 . S
O163 In156 2.326 . S
O163 C159 1.260 . S
O164 In156 2.266 . S
O164 C161 1.252 1_455 S
O165 In156 2.326 . S
O165 C161 1.260 1_455 S
C166 O157 1.240 . S
C166 O158 1.252 . S
O167 In156 2.294 . S
O167 C160 1.240 . S
O168 In156 2.326 . S
O168 C160 1.252 . S
In169 O170 2.294 . S
In169 O171 2.326 . S
In169 O175 2.266 . S
In169 O176 2.326 . S
In169 O177 2.266 . S
In169 O178 2.326 . S
In169 O180 2.294 . S
In169 O181 2.326 . S
O170 In169 2.294 . S
O170 C179 1.240 . S
O171 In169 2.326 . S
O171 C179 1.252 . S
C172 O175 1.252 . S
C172 O176 1.260 . S
C173 O180 1.240 . S
C173 O181 1.252 . S
C174 O177 1.252 . S
C174 O178 1.260 . S
O175 In169 2.266 . S
O175 C172 1.252 . S
O176 In169 2.326 . S
O176 C172 1.260 . S
O177 In169 2.266 . S
O177 C174 1.252 . S
O178 In169 2.326 . S
O178 C174 1.260 . S
C179 O170 1.240 . S
C179 O171 1.252 . S
O180 In169 2.294 . S
O180 C173 1.240 . S
O181 In169 2.326 . S
O181 C173 1.252 . S
In182 O183 2.294 . S
In182 O184 2.326 . S
In182 O188 2.266 . S
In182 O189 2.326 1_565 S
In182 O190 2.266 . S
In182 O191 2.326 . S
In182 O193 2.294 1_565 S
In182 O194 2.326 1_565 S
O183 In182 2.294 . S
O183 C192 1.240 . S
O184 In182 2.326 . S
O184 C192 1.252 . S
C185 O188 1.252 . S
C185 O189 1.260 1_565 S
C186 O193 1.240 . S
C186 O194 1.252 . S
C187 O190 1.252 . S
C187 O191 1.260 . S
O188 In182 2.266 . S
O188 C185 1.252 . S
O189 In182 2.326 1_545 S
O189 C185 1.260 1_545 S
O190 In182 2.266 . S
O190 C187 1.252 . S
O191 In182 2.326 . S
O191 C187 1.260 . S
C192 O183 1.240 . S
C192 O184 1.252 . S
O193 In182 2.294 1_545 S
O193 C186 1.240 . S
O194 In182 2.326 1_545 S
O194 C186 1.252 . S
In195 O196 2.294 . S
In195 O197 2.326 . S
In195 O201 2.266 . S
In195 O202 2.326 . S
In195 O203 2.266 . S
In195 O204 2.326 . S
In195 O206 2.294 . S
In195 O207 2.326 . S
O196 In195 2.294 . S
O196 C205 1.240 . S
O197 In195 2.326 . S
O197 C205 1.252 . S
C198 O201 1.252 . S
C198 O202 1.260 . S
C199 O206 1.240 . S
C199 O207 1.252 . S
C200 O203 1.252 . S
C200 O204 1.260 . S
O201 In195 2.266 . S
O201 C198 1.252 . S
O202 In195 2.326 . S
O202 C198 1.260 . S
O203 In195 2.266 . S
O203 C200 1.252 . S
O204 In195 2.326 . S
O204 C200 1.260 . S
C205 O196 1.240 . S
C205 O197 1.252 . S
O206 In195 2.294 . S
O206 C199 1.240 . S
O207 In195 2.326 . S
O207 C199 1.252 . S
In208 O209 2.294 . S
In208 O210 2.326 . S
In208 O214 2.266 1_565 S
In208 O215 2.326 1_565 S
In208 O216 2.266 . S
In208 O217 2.326 . S
In208 O219 2.294 . S
In208 O220 2.326 1_565 S
O209 In208 2.294 . S
O209 C218 1.240 . S
O210 In208 2.326 . S
O210 C218 1.252 . S
C211 O214 1.252 . S
C211 O215 1.260 . S
C212 O219 1.240 . S
C212 O220 1.252 1_565 S
C213 O216 1.252 . S
C213 O217 1.260 . S
O214 In208 2.266 1_545 S
O214 C211 1.252 . S
O215 In208 2.326 1_545 S
O215 C211 1.260 . S
O216 In208 2.266 . S
O216 C213 1.252 . S
O217 In208 2.326 . S
O217 C213 1.260 . S
C218 O209 1.240 . S
C218 O210 1.252 . S
O219 In208 2.294 . S
O219 C212 1.240 . S
O220 In208 2.326 1_545 S
O220 C212 1.252 1_545 S
In221 O222 2.294 . S
In221 O223 2.326 . S
In221 O227 2.266 1_455 S
In221 O228 2.326 . S
In221 O229 2.266 . S
In221 O230 2.326 . S
In221 O232 2.294 . S
In221 O233 2.326 . S
O222 In221 2.294 . S
O222 C231 1.240 . S
O223 In221 2.326 . S
O223 C231 1.252 . S
C224 O227 1.252 . S
C224 O228 1.260 1_655 S
C225 O232 1.240 . S
C225 O233 1.252 . S
C226 O229 1.252 . S
C226 O230 1.260 . S
O227 In221 2.266 1_655 S
O227 C224 1.252 . S
O228 In221 2.326 . S
O228 C224 1.260 1_455 S
O229 In221 2.266 . S
O229 C226 1.252 . S
O230 In221 2.326 . S
O230 C226 1.260 . S
C231 O222 1.240 . S
C231 O223 1.252 . S
O232 In221 2.294 . S
O232 C225 1.240 . S
O233 In221 2.326 . S
O233 C225 1.252 . S
Zn234 O240 1.920 1_455 S
Zn234 O246 1.898 1_445 S
Zn234 O249 1.905 . S
Zn235 O243 1.906 1_445 S
Zn235 O244 1.898 . S
Zn235 O252 1.920 1_455 S
Zn236 O239 2.080 . S
Zn236 O242 2.114 1_545 S
Zn236 O245 2.120 . S
Zn236 O247 2.120 1_445 S
Zn236 O248 2.114 . S
Zn236 O251 2.080 1_455 S
C237 O242 1.166 . S
C237 O243 1.182 1_455 S
C238 O244 1.167 . S
C238 O245 1.299 . S
O239 Zn236 2.080 . S
O239 C253 1.305 1_455 S
O240 Zn234 1.920 1_655 S
O240 C253 1.234 . S
C241 O246 1.167 . S
C241 O247 1.299 . S
O242 Zn236 2.114 1_565 S
O242 C237 1.166 . S
O243 Zn235 1.906 1_665 S
O243 C237 1.182 1_655 S
O244 Zn235 1.898 . S
O244 C238 1.167 . S
O245 Zn236 2.120 . S
O245 C238 1.299 . S
O246 Zn234 1.898 1_665 S
O246 C241 1.167 . S
O247 Zn236 2.120 1_665 S
O247 C241 1.299 . S
O248 Zn236 2.114 . S
O248 C250 1.166 . S
O249 Zn234 1.905 . S
O249 C250 1.182 . S
C250 O248 1.166 . S
C250 O249 1.182 . S
O251 Zn236 2.080 1_655 S
O251 C254 1.305 . S
O252 Zn235 1.920 1_655 S
O252 C254 1.234 . S
C253 O239 1.305 1_655 S
C253 O240 1.234 . S
C254 O251 1.305 . S
C254 O252 1.234 . S
Zn255 O261 1.920 1_545 S
Zn255 O267 1.898 . S
Zn255 O270 1.905 1_445 S
Zn256 O264 1.905 . S
Zn256 O265 1.898 1_445 S
Zn256 O273 1.920 1_545 S
Zn257 O260 2.080 1_545 S
Zn257 O263 2.114 . S
Zn257 O266 2.120 1_445 S
Zn257 O268 2.120 . S
Zn257 O269 2.114 1_455 S
Zn257 O272 2.080 . S
C258 O263 1.166 . S
C258 O264 1.182 . S
C259 O265 1.167 . S
C259 O266 1.299 . S
O260 Zn257 2.080 1_565 S
O260 C274 1.305 . S
O261 Zn255 1.920 1_565 S
O261 C274 1.234 . S
C262 O267 1.167 . S
C262 O268 1.299 . S
O263 Zn257 2.114 . S
O263 C258 1.166 . S
O264 Zn256 1.905 . S
O264 C258 1.182 . S
O265 Zn256 1.898 1_665 S
O265 C259 1.167 . S
O266 Zn257 2.120 1_665 S
O266 C259 1.299 . S
O267 Zn255 1.898 . S
O267 C262 1.167 . S
O268 Zn257 2.120 . S
O268 C262 1.299 . S
O269 Zn257 2.114 1_655 S
O269 C271 1.166 . S
O270 Zn255 1.905 1_665 S
O270 C271 1.182 1_565 S
C271 O269 1.166 . S
C271 O270 1.182 1_545 S
O272 Zn257 2.080 . S
O272 C275 1.305 1_545 S
O273 Zn256 1.920 1_565 S
O273 C275 1.234 . S
C274 O260 1.305 . S
C274 O261 1.234 . S
C275 O272 1.305 1_565 S
C275 O273 1.234 . S
Zn276 O282 1.920 1_545 S
Zn276 O288 1.898 . S
Zn276 O291 1.905 1_445 S
Zn277 O285 1.905 . S
Zn277 O286 1.898 1_445 S
Zn277 O294 1.920 1_545 S
Zn278 O281 2.080 1_545 S
Zn278 O284 2.114 . S
Zn278 O287 2.120 1_445 S
Zn278 O289 2.120 . S
Zn278 O290 2.114 1_455 S
Zn278 O293 2.080 . S
C279 O284 1.166 . S
C279 O285 1.182 . S
C280 O286 1.167 . S
C280 O287 1.299 . S
O281 Zn278 2.080 1_565 S
O281 C295 1.305 . S
O282 Zn276 1.920 1_565 S
O282 C295 1.234 . S
C283 O288 1.167 . S
C283 O289 1.299 . S
O284 Zn278 2.114 . S
O284 C279 1.166 . S
O285 Zn277 1.905 . S
O285 C279 1.182 . S
O286 Zn277 1.898 1_665 S
O286 C280 1.167 . S
O287 Zn278 2.120 1_665 S
O287 C280 1.299 . S
O288 Zn276 1.898 . S
O288 C283 1.167 . S
O289 Zn278 2.120 . S
O289 C283 1.299 . S
O290 Zn278 2.114 1_655 S
O290 C292 1.166 1_545 S
O291 Zn276 1.905 1_665 S
O291 C292 1.182 . S
C292 O290 1.166 1_565 S
C292 O291 1.182 . S
O293 Zn278 2.080 . S
O293 C296 1.305 . S
O294 Zn277 1.920 1_565 S
O294 C296 1.234 1_565 S
C295 O281 1.305 . S
C295 O282 1.234 . S
C296 O293 1.305 . S
C296 O294 1.234 1_545 S
Zn297 O303 1.920 1_455 S
Zn297 O309 1.898 1_445 S
Zn297 O312 1.905 . S
Zn298 O306 1.905 1_445 S
Zn298 O307 1.898 . S
Zn298 O315 1.920 1_455 S
Zn299 O302 2.080 . S
Zn299 O305 2.114 1_545 S
Zn299 O308 2.120 . S
Zn299 O310 2.120 1_445 S
Zn299 O311 2.114 . S
Zn299 O314 2.080 1_455 S
C300 O305 1.166 1_655 S
C300 O306 1.182 . S
C301 O307 1.167 . S
C301 O308 1.299 . S
O302 Zn299 2.080 . S
O302 C316 1.305 . S
O303 Zn297 1.920 1_655 S
O303 C316 1.234 1_655 S
C304 O309 1.167 . S
C304 O310 1.299 . S
O305 Zn299 2.114 1_565 S
O305 C300 1.166 1_455 S
O306 Zn298 1.905 1_665 S
O306 C300 1.182 . S
O307 Zn298 1.898 . S
O307 C301 1.167 . S
O308 Zn299 2.120 . S
O308 C301 1.299 . S
O309 Zn297 1.898 1_665 S
O309 C304 1.167 . S
O310 Zn299 2.120 1_665 S
O310 C304 1.299 . S
O311 Zn299 2.114 . S
O311 C313 1.166 . S
O312 Zn297 1.905 . S
O312 C313 1.182 . S
C313 O311 1.166 . S
C313 O312 1.182 . S
O314 Zn299 2.080 1_655 S
O314 C317 1.305 . S
O315 Zn298 1.920 1_655 S
O315 C317 1.234 . S
C316 O302 1.305 . S
C316 O303 1.234 1_455 S
C317 O314 1.305 . S
C317 O315 1.234 . S
Zn318 O324 1.920 . S
Zn318 O330 1.898 . S
Zn318 O333 1.905 . S
Zn319 O327 1.905 . S
Zn319 O328 1.898 . S
Zn319 O336 1.920 . S
Zn320 O323 2.080 . S
Zn320 O326 2.114 . S
Zn320 O329 2.120 . S
Zn320 O331 2.120 . S
Zn320 O332 2.114 . S
Zn320 O335 2.080 . S
C321 O326 1.166 . S
C321 O327 1.182 . S
C322 O328 1.167 . S
C322 O329 1.299 . S
O323 Zn320 2.080 . S
O323 C337 1.305 . S
O324 Zn318 1.920 . S
O324 C337 1.234 . S
C325 O330 1.167 . S
C325 O331 1.299 . S
O326 Zn320 2.114 . S
O326 C321 1.166 . S
O327 Zn319 1.905 . S
O327 C321 1.182 . S
O328 Zn319 1.898 . S
O328 C322 1.167 . S
O329 Zn320 2.120 . S
O329 C322 1.299 . S
O330 Zn318 1.898 . S
O330 C325 1.167 . S
O331 Zn320 2.120 . S
O331 C325 1.299 . S
O332 Zn320 2.114 . S
O332 C334 1.166 . S
O333 Zn318 1.905 . S
O333 C334 1.182 . S
C334 O332 1.166 . S
C334 O333 1.182 . S
O335 Zn320 2.080 . S
O335 C338 1.305 . S
O336 Zn319 1.920 . S
O336 C338 1.234 . S
C337 O323 1.305 . S
C337 O324 1.234 . S
C338 O335 1.305 . S
C338 O336 1.234 . S
Zn339 O345 1.920 . S
Zn339 O351 1.898 . S
Zn339 O354 1.905 . S
Zn340 O348 1.905 . S
Zn340 O349 1.898 . S
Zn340 O357 1.920 . S
Zn341 O344 2.080 . S
Zn341 O347 2.114 . S
Zn341 O350 2.120 . S
Zn341 O352 2.120 . S
Zn341 O353 2.114 . S
Zn341 O356 2.080 . S
C342 O347 1.166 . S
C342 O348 1.182 . S
C343 O349 1.167 . S
C343 O350 1.299 . S
O344 Zn341 2.080 . S
O344 C358 1.305 . S
O345 Zn339 1.920 . S
O345 C358 1.234 . S
C346 O351 1.167 . S
C346 O352 1.299 . S
O347 Zn341 2.114 . S
O347 C342 1.166 . S
O348 Zn340 1.905 . S
O348 C342 1.182 . S
O349 Zn340 1.898 . S
O349 C343 1.167 . S
O350 Zn341 2.120 . S
O350 C343 1.299 . S
O351 Zn339 1.898 . S
O351 C346 1.167 . S
O352 Zn341 2.120 . S
O352 C346 1.299 . S
O353 Zn341 2.114 . S
O353 C355 1.166 . S
O354 Zn339 1.905 . S
O354 C355 1.182 . S
C355 O353 1.166 . S
C355 O354 1.182 . S
O356 Zn341 2.080 . S
O356 C359 1.305 . S
O357 Zn340 1.920 . S
O357 C359 1.234 . S
C358 O344 1.305 . S
C358 O345 1.234 . S
C359 O356 1.305 . S
C359 O357 1.234 . S
Zn360 O366 1.920 . S
Zn360 O372 1.898 . S
Zn360 O375 1.905 . S
Zn361 O369 1.905 . S
Zn361 O370 1.898 . S
Zn361 O378 1.920 . S
Zn362 O365 2.080 . S
Zn362 O368 2.114 . S
Zn362 O371 2.120 . S
Zn362 O373 2.120 . S
Zn362 O374 2.114 . S
Zn362 O377 2.080 . S
C363 O368 1.166 . S
C363 O369 1.182 . S
C364 O370 1.167 . S
C364 O371 1.299 . S
O365 Zn362 2.080 . S
O365 C379 1.305 . S
O366 Zn360 1.920 . S
O366 C379 1.234 . S
C367 O372 1.167 . S
C367 O373 1.299 . S
O368 Zn362 2.114 . S
O368 C363 1.166 . S
O369 Zn361 1.905 . S
O369 C363 1.182 . S
O370 Zn361 1.898 . S
O370 C364 1.167 . S
O371 Zn362 2.120 . S
O371 C364 1.299 . S
O372 Zn360 1.898 . S
O372 C367 1.167 . S
O373 Zn362 2.120 . S
O373 C367 1.299 . S
O374 Zn362 2.114 . S
O374 C376 1.166 . S
O375 Zn360 1.905 . S
O375 C376 1.182 . S
C376 O374 1.166 . S
C376 O375 1.182 . S
O377 Zn362 2.080 . S
O377 C380 1.305 . S
O378 Zn361 1.920 . S
O378 C380 1.234 . S
C379 O365 1.305 . S
C379 O366 1.234 . S
C380 O377 1.305 . S
C380 O378 1.234 . S
Zn381 O387 1.920 . S
Zn381 O393 1.898 . S
Zn381 O396 1.905 . S
Zn382 O390 1.905 . S
Zn382 O391 1.898 . S
Zn382 O399 1.920 . S
Zn383 O386 2.046 1_556 S
Zn383 O389 2.114 . S
Zn383 O392 2.120 . S
Zn383 O394 2.084 1_556 S
Zn383 O395 2.114 1_556 S
Zn383 O398 2.080 . S
C384 O389 1.166 . S
C384 O390 1.182 . S
C385 O391 1.167 . S
C385 O392 1.299 . S
O386 Zn383 2.046 1_554 S
O386 C400 1.352 . S
O387 Zn381 1.920 . S
O387 C400 1.234 . S
C388 O393 1.167 . S
C388 O394 1.350 . S
O389 Zn383 2.114 . S
O389 C384 1.166 . S
O390 Zn382 1.905 . S
O390 C384 1.182 . S
O391 Zn382 1.898 . S
O391 C385 1.167 . S
O392 Zn383 2.120 . S
O392 C385 1.299 . S
O393 Zn381 1.898 . S
O393 C388 1.167 . S
O394 Zn383 2.084 1_554 S
O394 C388 1.350 . S
O395 Zn383 2.114 1_554 S
O395 C397 1.166 . S
O396 Zn381 1.905 . S
O396 C397 1.182 . S
C397 O395 1.166 . S
C397 O396 1.182 . S
O398 Zn383 2.080 . S
O398 C401 1.305 . S
O399 Zn382 1.920 . S
O399 C401 1.234 . S
C400 O386 1.352 . S
C400 O387 1.234 . S
C401 O398 1.305 . S
C401 O399 1.234 . S
Zn402 O408 1.920 . S
Zn402 O414 1.898 . S
Zn402 O417 1.905 . S
Zn403 O411 1.905 . S
Zn403 O412 1.898 . S
Zn403 O420 1.920 . S
Zn404 O407 2.080 . S
Zn404 O410 2.114 . S
Zn404 O413 2.120 . S
Zn404 O415 2.120 . S
Zn404 O416 2.114 . S
Zn404 O419 2.080 . S
C405 O410 1.166 . S
C405 O411 1.182 . S
C406 O412 1.167 . S
C406 O413 1.299 . S
O407 Zn404 2.080 . S
O407 C421 1.305 . S
O408 Zn402 1.920 . S
O408 C421 1.234 . S
C409 O414 1.167 . S
C409 O415 1.299 . S
O410 Zn404 2.114 . S
O410 C405 1.166 . S
O411 Zn403 1.905 . S
O411 C405 1.182 . S
O412 Zn403 1.898 . S
O412 C406 1.167 . S
O413 Zn404 2.120 . S
O413 C406 1.299 . S
O414 Zn402 1.898 . S
O414 C409 1.167 . S
O415 Zn404 2.120 . S
O415 C409 1.299 . S
O416 Zn404 2.114 . S
O416 C418 1.166 . S
O417 Zn402 1.905 . S
O417 C418 1.182 . S
C418 O416 1.166 . S
C418 O417 1.182 . S
O419 Zn404 2.080 . S
O419 C422 1.305 . S
O420 Zn403 1.920 . S
O420 C422 1.234 . S
C421 O407 1.305 . S
C421 O408 1.234 . S
C422 O419 1.305 . S
C422 O420 1.234 . S
Zn423 O429 1.920 . S
Zn423 O435 1.898 . S
Zn423 O438 1.905 . S
Zn424 O432 1.905 . S
Zn424 O433 1.898 . S
Zn424 O441 1.920 . S
Zn425 O428 2.080 . S
Zn425 O431 2.114 1_554 S
Zn425 O434 2.084 1_554 S
Zn425 O436 2.120 . S
Zn425 O437 2.114 . S
Zn425 O440 2.046 1_554 S
C426 O431 1.166 . S
C426 O432 1.182 . S
C427 O433 1.167 . S
C427 O434 1.350 . S
O428 Zn425 2.080 . S
O428 C442 1.305 . S
O429 Zn423 1.920 . S
O429 C442 1.234 . S
C430 O435 1.167 . S
C430 O436 1.299 . S
O431 Zn425 2.114 1_556 S
O431 C426 1.166 . S
O432 Zn424 1.905 . S
O432 C426 1.182 . S
O433 Zn424 1.898 . S
O433 C427 1.167 . S
O434 Zn425 2.084 1_556 S
O434 C427 1.350 . S
O435 Zn423 1.898 . S
O435 C430 1.167 . S
O436 Zn425 2.120 . S
O436 C430 1.299 . S
O437 Zn425 2.114 . S
O437 C439 1.166 . S
O438 Zn423 1.905 . S
O438 C439 1.182 . S
C439 O437 1.166 . S
C439 O438 1.182 . S
O440 Zn425 2.046 1_556 S
O440 C443 1.352 . S
O441 Zn424 1.920 . S
O441 C443 1.234 . S
C442 O428 1.305 . S
C442 O429 1.234 . S
C443 O440 1.352 . S
C443 O441 1.234 . S
Zn444 O450 1.920 . S
Zn444 O456 1.898 . S
Zn444 O459 1.905 . S
Zn445 O453 1.905 . S
Zn445 O454 1.898 . S
Zn445 O462 1.920 . S
Zn446 O449 2.080 . S
Zn446 O452 2.114 . S
Zn446 O455 2.120 . S
Zn446 O457 2.120 . S
Zn446 O458 2.114 . S
Zn446 O461 2.080 . S
C447 O452 1.166 . S
C447 O453 1.182 . S
C448 O454 1.167 . S
C448 O455 1.299 . S
O449 Zn446 2.080 . S
O449 C463 1.305 . S
O450 Zn444 1.920 . S
O450 C463 1.234 . S
C451 O456 1.167 . S
C451 O457 1.299 . S
O452 Zn446 2.114 . S
O452 C447 1.166 . S
O453 Zn445 1.905 . S
O453 C447 1.182 . S
O454 Zn445 1.898 . S
O454 C448 1.167 . S
O455 Zn446 2.120 . S
O455 C448 1.299 . S
O456 Zn444 1.898 . S
O456 C451 1.167 . S
O457 Zn446 2.120 . S
O457 C451 1.299 . S
O458 Zn446 2.114 . S
O458 C460 1.166 . S
O459 Zn444 1.905 . S
O459 C460 1.182 . S
C460 O458 1.166 . S
C460 O459 1.182 . S
O461 Zn446 2.080 . S
O461 C464 1.305 . S
O462 Zn445 1.920 . S
O462 C464 1.234 . S
C463 O449 1.305 . S
C463 O450 1.234 . S
C464 O461 1.305 . S
C464 O462 1.234 . S
Zn465 O471 1.920 . S
Zn465 O477 1.898 . S
Zn465 O480 1.905 . S
Zn466 O474 1.905 . S
Zn466 O475 1.898 . S
Zn466 O483 1.920 . S
Zn467 O470 2.080 . S
Zn467 O473 2.114 . S
Zn467 O476 2.120 . S
Zn467 O478 2.120 . S
Zn467 O479 2.114 . S
Zn467 O482 2.080 . S
C468 O473 1.166 . S
C468 O474 1.182 . S
C469 O475 1.167 . S
C469 O476 1.299 . S
O470 Zn467 2.080 . S
O470 C484 1.305 . S
O471 Zn465 1.920 . S
O471 C484 1.234 . S
C472 O477 1.167 . S
C472 O478 1.299 . S
O473 Zn467 2.114 . S
O473 C468 1.166 . S
O474 Zn466 1.905 . S
O474 C468 1.182 . S
O475 Zn466 1.898 . S
O475 C469 1.167 . S
O476 Zn467 2.120 . S
O476 C469 1.299 . S
O477 Zn465 1.898 . S
O477 C472 1.167 . S
O478 Zn467 2.120 . S
O478 C472 1.299 . S
O479 Zn467 2.114 . S
O479 C481 1.166 . S
O480 Zn465 1.905 . S
O480 C481 1.182 . S
C481 O479 1.166 . S
C481 O480 1.182 . S
O482 Zn467 2.080 . S
O482 C485 1.305 . S
O483 Zn466 1.920 . S
O483 C485 1.234 . S
C484 O470 1.305 . S
C484 O471 1.234 . S
C485 O482 1.305 . S
C485 O483 1.234 . S
C486 C487 1.369 . S
C486 C488 1.419 . S
C486 H490 0.930 . S
C487 C486 1.369 . S
C487 C496 1.429 . S
C488 C486 1.419 . S
C488 C489 1.363 . S
C488 H491 0.929 . S
C489 C488 1.363 . S
C489 C495 1.428 . S
H490 C486 0.930 . S
H491 C488 0.929 . S
S492 N493 1.613 . S
S492 N494 1.610 . S
N493 S492 1.613 . S
N493 C496 1.350 . S
N494 S492 1.610 . S
N494 C495 1.351 . S
C495 C489 1.428 . S
C495 N494 1.351 . S
C495 C496 1.434 . S
C496 C487 1.429 . S
C496 N493 1.350 . S
C496 C495 1.434 . S
C497 C498 1.369 . S
C497 C499 1.419 . S
C497 H501 0.930 . S
C498 C497 1.369 . S
C498 C507 1.429 . S
C499 C497 1.419 . S
C499 C500 1.363 . S
C499 H502 0.929 . S
C500 C499 1.363 . S
C500 C506 1.428 . S
H501 C497 0.930 . S
H502 C499 0.929 . S
S503 N504 1.613 . S
S503 N505 1.609 . S
N504 S503 1.613 . S
N504 C507 1.350 1_565 S
N505 S503 1.609 . S
N505 C506 1.350 1_565 S
C506 C500 1.428 . S
C506 N505 1.350 1_545 S
C506 C507 1.434 . S
C507 C498 1.429 . S
C507 N504 1.350 1_545 S
C507 C506 1.434 . S
C508 C509 1.369 . S
C508 C510 1.419 . S
C508 H512 0.930 . S
C509 C508 1.369 . S
C509 C518 1.429 1_455 S
C510 C508 1.419 . S
C510 C511 1.363 . S
C510 H513 0.929 . S
C511 C510 1.363 . S
C511 C517 1.428 1_455 S
H512 C508 0.930 . S
H513 C510 0.929 . S
S514 N515 1.613 . S
S514 N516 1.610 . S
N515 S514 1.613 . S
N515 C518 1.350 . S
N516 S514 1.610 . S
N516 C517 1.351 . S
C517 C511 1.428 1_655 S
C517 N516 1.351 . S
C517 C518 1.434 . S
C518 C509 1.429 1_655 S
C518 N515 1.350 . S
C518 C517 1.434 . S
C519 C520 1.369 . S
C519 C521 1.419 . S
C519 H523 0.930 . S
C520 C519 1.369 . S
C520 C529 1.429 . S
C521 C519 1.419 . S
C521 C522 1.363 . S
C521 H524 0.929 . S
C522 C521 1.363 . S
C522 C528 1.428 . S
H523 C519 0.930 . S
H524 C521 0.929 . S
S525 N526 1.613 . S
S525 N527 1.610 . S
N526 S525 1.613 . S
N526 C529 1.350 . S
N527 S525 1.610 . S
N527 C528 1.351 . S
C528 C522 1.428 . S
C528 N527 1.351 . S
C528 C529 1.434 . S
C529 C520 1.429 . S
C529 N526 1.350 . S
C529 C528 1.434 . S
C530 C531 1.369 . S
C530 C532 1.419 . S
C530 H534 0.930 . S
C531 C530 1.369 . S
C531 C540 1.429 1_545 S
C532 C530 1.419 . S
C532 C533 1.363 . S
C532 H535 0.929 . S
C533 C532 1.363 . S
C533 C539 1.428 1_545 S
H534 C530 0.930 . S
H535 C532 0.929 . S
S536 N537 1.613 . S
S536 N538 1.610 . S
N537 S536 1.613 . S
N537 C540 1.350 . S
N538 S536 1.610 . S
N538 C539 1.351 . S
C539 C533 1.428 1_565 S
C539 N538 1.351 . S
C539 C540 1.434 . S
C540 C531 1.429 1_565 S
C540 N537 1.350 . S
C540 C539 1.434 . S
C541 C542 1.369 . S
C541 C543 1.419 . S
C541 H545 0.930 . S
C542 C541 1.369 . S
C542 C551 1.429 1_455 S
C543 C541 1.419 . S
C543 C544 1.363 . S
C543 H546 0.929 . S
C544 C543 1.363 . S
C544 C550 1.428 1_455 S
H545 C541 0.930 . S
H546 C543 0.929 . S
S547 N548 1.613 . S
S547 N549 1.610 . S
N548 S547 1.613 . S
N548 C551 1.350 . S
N549 S547 1.610 . S
N549 C550 1.351 . S
C550 C544 1.428 1_655 S
C550 N549 1.351 . S
C550 C551 1.434 . S
C551 C542 1.429 1_655 S
C551 N548 1.350 . S
C551 C550 1.434 . S
C552 C553 1.369 . S
C552 C554 1.419 . S
C552 H556 0.930 . S
C553 C552 1.369 . S
C553 C562 1.429 . S
C554 C552 1.419 . S
C554 C555 1.363 . S
C554 H557 0.929 . S
C555 C554 1.363 . S
C555 C561 1.428 . S
H556 C552 0.930 . S
H557 C554 0.929 . S
S558 N559 1.613 . S
S558 N560 1.610 . S
N559 S558 1.613 . S
N559 C562 1.350 . S
N560 S558 1.610 . S
N560 C561 1.351 . S
C561 C555 1.428 . S
C561 N560 1.351 . S
C561 C562 1.434 . S
C562 C553 1.429 . S
C562 N559 1.350 . S
C562 C561 1.434 . S
C563 C564 1.369 1_565 S
C563 C565 1.419 . S
C563 H567 0.930 . S
C564 C563 1.369 1_545 S
C564 C573 1.429 . S
C565 C563 1.419 . S
C565 C566 1.363 1_565 S
C565 H568 0.929 . S
C566 C565 1.363 1_545 S
C566 C572 1.428 . S
H567 C563 0.930 . S
H568 C565 0.929 . S
S569 N570 1.613 . S
S569 N571 1.610 . S
N570 S569 1.613 . S
N570 C573 1.350 . S
N571 S569 1.610 . S
N571 C572 1.351 . S
C572 C566 1.428 . S
C572 N571 1.351 . S
C572 C573 1.434 . S
C573 C564 1.429 . S
C573 N570 1.350 . S
C573 C572 1.434 . S
C574 C575 1.369 . S
C574 C576 1.419 . S
C574 H578 0.930 . S
C575 C574 1.369 . S
C575 C584 1.429 . S
C576 C574 1.419 . S
C576 C577 1.363 . S
C576 H579 0.929 . S
C577 C576 1.363 . S
C577 C583 1.428 . S
H578 C574 0.930 . S
H579 C576 0.929 . S
S580 N581 1.613 . S
S580 N582 1.610 . S
N581 S580 1.613 . S
N581 C584 1.350 . S
N582 S580 1.610 . S
N582 C583 1.351 . S
C583 C577 1.428 . S
C583 N582 1.351 . S
C583 C584 1.434 . S
C584 C575 1.429 . S
C584 N581 1.350 . S
C584 C583 1.434 . S
C585 C586 1.369 . S
C585 C587 1.419 . S
C585 H589 0.930 . S
C586 C585 1.369 . S
C586 C595 1.429 . S
C587 C585 1.419 . S
C587 C588 1.363 . S
C587 H590 0.929 . S
C588 C587 1.363 . S
C588 C594 1.428 . S
H589 C585 0.930 . S
H590 C587 0.929 . S
S591 N592 1.613 . S
S591 N593 1.610 . S
N592 S591 1.613 . S
N592 C595 1.350 . S
N593 S591 1.610 . S
N593 C594 1.351 . S
C594 C588 1.428 . S
C594 N593 1.351 . S
C594 C595 1.434 . S
C595 C586 1.429 . S
C595 N592 1.350 . S
C595 C594 1.434 . S
C596 C597 1.369 . S
C596 C598 1.419 . S
C596 H600 0.930 . S
C597 C596 1.369 . S
C597 C606 1.429 1_545 S
C598 C596 1.419 . S
C598 C599 1.363 . S
C598 H601 0.929 . S
C599 C598 1.363 . S
C599 C605 1.428 1_545 S
H600 C596 0.930 . S
H601 C598 0.929 . S
S602 N603 1.613 . S
S602 N604 1.610 . S
N603 S602 1.613 . S
N603 C606 1.350 . S
N604 S602 1.610 . S
N604 C605 1.351 . S
C605 C599 1.428 1_565 S
C605 N604 1.351 . S
C605 C606 1.434 . S
C606 C597 1.429 1_565 S
C606 N603 1.350 . S
C606 C605 1.434 . S
C607 C608 1.369 . S
C607 C609 1.419 . S
C607 H611 0.930 . S
C608 C607 1.369 . S
C608 C617 1.429 1_455 S
C609 C607 1.419 . S
C609 C610 1.363 . S
C609 H612 0.929 . S
C610 C609 1.363 . S
C610 C616 1.428 1_455 S
H611 C607 0.930 . S
H612 C609 0.929 . S
S613 N614 1.613 . S
S613 N615 1.610 . S
N614 S613 1.613 . S
N614 C617 1.350 . S
N615 S613 1.610 . S
N615 C616 1.351 . S
C616 C610 1.428 1_655 S
C616 N615 1.351 . S
C616 C617 1.434 . S
C617 C608 1.429 1_655 S
C617 N614 1.350 . S
C617 C616 1.434 . S
C618 C619 1.369 . S
C618 C620 1.419 . S
C618 H622 0.930 . S
C619 C618 1.369 . S
C619 C628 1.429 . S
C620 C618 1.419 . S
C620 C621 1.363 . S
C620 H623 0.929 . S
C621 C620 1.363 . S
C621 C627 1.428 . S
H622 C618 0.930 . S
H623 C620 0.929 . S
S624 N625 1.613 . S
S624 N626 1.610 . S
N625 S624 1.613 . S
N625 C628 1.350 . S
N626 S624 1.610 . S
N626 C627 1.351 . S
C627 C621 1.428 . S
C627 N626 1.351 . S
C627 C628 1.434 . S
C628 C619 1.429 . S
C628 N625 1.350 . S
C628 C627 1.434 . S
C629 C630 1.369 . S
C629 C631 1.419 . S
C629 H633 0.930 . S
C630 C629 1.369 . S
C630 C639 1.429 . S
C631 C629 1.419 . S
C631 C632 1.363 . S
C631 H634 0.929 . S
C632 C631 1.363 . S
C632 C638 1.428 . S
H633 C629 0.930 . S
H634 C631 0.929 . S
S635 N636 1.613 . S
S635 N637 1.610 . S
N636 S635 1.613 . S
N636 C639 1.350 . S
N637 S635 1.610 . S
N637 C638 1.351 . S
C638 C632 1.428 . S
C638 N637 1.351 . S
C638 C639 1.434 . S
C639 C630 1.429 . S
C639 N636 1.350 . S
C639 C638 1.434 . S
C640 C641 1.369 . S
C640 C642 1.419 . S
C640 H644 0.930 . S
C641 C640 1.369 . S
C641 C650 1.429 . S
C642 C640 1.419 . S
C642 C643 1.363 . S
C642 H645 0.929 . S
C643 C642 1.363 . S
C643 C649 1.428 . S
H644 C640 0.930 . S
H645 C642 0.929 . S
S646 N647 1.613 . S
S646 N648 1.610 . S
N647 S646 1.613 . S
N647 C650 1.350 . S
N648 S646 1.610 . S
N648 C649 1.351 . S
C649 C643 1.428 . S
C649 N648 1.351 . S
C649 C650 1.434 . S
C650 C641 1.429 . S
C650 N647 1.350 . S
C650 C649 1.434 . S
C651 C652 1.369 . S
C651 C653 1.419 . S
C651 H655 0.930 . S
C652 C651 1.369 . S
C652 C661 1.429 . S
C653 C651 1.419 . S
C653 C654 1.363 . S
C653 H656 0.929 . S
C654 C653 1.363 . S
C654 C660 1.428 . S
H655 C651 0.930 . S
H656 C653 0.929 . S
S657 N658 1.613 . S
S657 N659 1.610 . S
N658 S657 1.613 . S
N658 C661 1.350 . S
N659 S657 1.610 . S
N659 C660 1.351 . S
C660 C654 1.428 . S
C660 N659 1.351 . S
C660 C661 1.434 . S
C661 C652 1.429 . S
C661 N658 1.350 . S
C661 C660 1.434 . S
C662 C663 1.369 . S
C662 C664 1.419 . S
C662 H666 0.930 . S
C663 C662 1.369 . S
C663 C672 1.429 . S
C664 C662 1.419 . S
C664 C665 1.363 . S
C664 H667 0.929 . S
C665 C664 1.363 . S
C665 C671 1.428 . S
H666 C662 0.930 . S
H667 C664 0.929 . S
S668 N669 1.613 . S
S668 N670 1.610 . S
N669 S668 1.613 . S
N669 C672 1.350 . S
N670 S668 1.610 . S
N670 C671 1.351 . S
C671 C665 1.428 . S
C671 N670 1.351 . S
C671 C672 1.434 . S
C672 C663 1.429 . S
C672 N669 1.350 . S
C672 C671 1.434 . S
C673 C674 1.369 . S
C673 C675 1.419 . S
C673 H677 0.930 . S
C674 C673 1.369 . S
C674 C683 1.429 . S
C675 C673 1.419 . S
C675 C676 1.363 . S
C675 H678 0.929 . S
C676 C675 1.363 . S
C676 C682 1.428 . S
H677 C673 0.930 . S
H678 C675 0.929 . S
S679 N680 1.613 . S
S679 N681 1.610 . S
N680 S679 1.613 . S
N680 C683 1.350 . S
N681 S679 1.610 . S
N681 C682 1.351 . S
C682 C676 1.428 . S
C682 N681 1.351 . S
C682 C683 1.434 . S
C683 C674 1.429 . S
C683 N680 1.350 . S
C683 C682 1.434 . S
C684 C685 1.369 . S
C684 C686 1.419 . S
C684 H688 0.930 . S
C685 C684 1.369 . S
C685 C694 1.429 . S
C686 C684 1.419 . S
C686 C687 1.363 . S
C686 H689 0.929 . S
C687 C686 1.363 . S
C687 C693 1.428 . S
H688 C684 0.930 . S
H689 C686 0.929 . S
S690 N691 1.613 . S
S690 N692 1.610 . S
N691 S690 1.613 . S
N691 C694 1.350 . S
N692 S690 1.610 . S
N692 C693 1.351 . S
C693 C687 1.428 . S
C693 N692 1.351 . S
C693 C694 1.434 . S
C694 C685 1.429 . S
C694 N691 1.350 . S
C694 C693 1.434 . S
C695 C696 1.369 . S
C695 C697 1.419 . S
C695 H699 0.930 . S
C696 C695 1.369 . S
C696 C705 1.429 . S
C697 C695 1.419 . S
C697 C698 1.363 . S
C697 H700 0.929 . S
C698 C697 1.363 . S
C698 C704 1.428 . S
H699 C695 0.930 . S
H700 C697 0.929 . S
S701 N702 1.613 . S
S701 N703 1.610 . S
N702 S701 1.613 . S
N702 C705 1.350 . S
N703 S701 1.610 . S
N703 C704 1.351 . S
C704 C698 1.428 . S
C704 N703 1.351 . S
C704 C705 1.434 . S
C705 C696 1.429 . S
C705 N702 1.350 . S
C705 C704 1.434 . S
C706 C707 1.369 . S
C706 C708 1.419 . S
C706 H710 0.930 . S
C707 C706 1.369 . S
C707 C716 1.429 . S
C708 C706 1.419 . S
C708 C709 1.363 . S
C708 H711 0.929 . S
C709 C708 1.363 . S
C709 C715 1.428 . S
H710 C706 0.930 . S
H711 C708 0.929 . S
S712 N713 1.613 . S
S712 N714 1.610 . S
N713 S712 1.613 . S
N713 C716 1.350 . S
N714 S712 1.610 . S
N714 C715 1.351 . S
C715 C709 1.428 . S
C715 N714 1.351 . S
C715 C716 1.434 . S
C716 C707 1.429 . S
C716 N713 1.350 . S
C716 C715 1.434 . S
C717 C718 1.369 . S
C717 C719 1.419 . S
C717 H721 0.930 . S
C718 C717 1.369 . S
C718 C727 1.429 . S
C719 C717 1.419 . S
C719 C720 1.363 . S
C719 H722 0.929 . S
C720 C719 1.363 . S
C720 C726 1.428 . S
H721 C717 0.930 . S
H722 C719 0.929 . S
S723 N724 1.613 . S
S723 N725 1.610 . S
N724 S723 1.613 . S
N724 C727 1.350 . S
N725 S723 1.610 . S
N725 C726 1.351 . S
C726 C720 1.428 . S
C726 N725 1.351 . S
C726 C727 1.434 . S
C727 C718 1.429 . S
C727 N724 1.350 . S
C727 C726 1.434 . S
C728 C729 1.369 . S
C728 C730 1.419 . S
C728 H732 0.930 . S
C729 C728 1.369 . S
C729 C738 1.429 . S
C730 C728 1.419 . S
C730 C731 1.363 . S
C730 H733 0.929 . S
C731 C730 1.363 . S
C731 C737 1.428 . S
H732 C728 0.930 . S
H733 C730 0.929 . S
S734 N735 1.613 . S
S734 N736 1.610 1_554 S
N735 S734 1.613 . S
N735 C738 1.350 . S
N736 S734 1.610 1_556 S
N736 C737 1.351 1_556 S
C737 C731 1.428 . S
C737 N736 1.351 1_554 S
C737 C738 1.434 . S
C738 C729 1.429 . S
C738 N735 1.350 . S
C738 C737 1.434 . S
C739 C740 1.369 . S
C739 C741 1.419 . S
C739 H743 0.930 . S
C740 C739 1.369 . S
C740 C749 1.429 . S
C741 C739 1.419 . S
C741 C742 1.363 . S
C741 H744 0.929 . S
C742 C741 1.363 . S
C742 C748 1.428 . S
H743 C739 0.930 . S
H744 C741 0.929 . S
S745 N746 1.613 . S
S745 N747 1.610 . S
N746 S745 1.613 . S
N746 C749 1.350 . S
N747 S745 1.610 . S
N747 C748 1.351 . S
C748 C742 1.428 . S
C748 N747 1.351 . S
C748 C749 1.434 . S
C749 C740 1.429 . S
C749 N746 1.350 . S
C749 C748 1.434 . S
C750 C751 1.369 . S
C750 C752 1.419 . S
C750 H754 0.930 . S
C751 C750 1.369 . S
C751 C760 1.429 . S
C752 C750 1.419 . S
C752 C753 1.363 . S
C752 H755 0.929 . S
C753 C752 1.363 . S
C753 C759 1.428 . S
H754 C750 0.930 . S
H755 C752 0.929 . S
S756 N757 1.613 . S
S756 N758 1.610 . S
N757 S756 1.613 . S
N757 C760 1.350 . S
N758 S756 1.610 . S
N758 C759 1.351 . S
C759 C753 1.428 . S
C759 N758 1.351 . S
C759 C760 1.434 . S
C760 C751 1.429 . S
C760 N757 1.350 . S
C760 C759 1.434 . S
C761 C762 1.369 . S
C761 C763 1.419 . S
C761 H765 0.930 . S
C762 C761 1.369 . S
C762 C771 1.429 . S
C763 C761 1.419 . S
C763 C764 1.363 . S
C763 H766 0.929 . S
C764 C763 1.363 . S
C764 C770 1.428 . S
H765 C761 0.930 . S
H766 C763 0.929 . S
S767 N768 1.613 . S
S767 N769 1.610 . S
N768 S767 1.613 . S
N768 C771 1.350 . S
N769 S767 1.610 . S
N769 C770 1.351 . S
C770 C764 1.428 . S
C770 N769 1.351 . S
C770 C771 1.434 . S
C771 C762 1.429 . S
C771 N768 1.350 . S
C771 C770 1.434 . S
C772 C773 1.369 . S
C772 C774 1.419 . S
C772 H776 0.930 . S
C773 C772 1.369 . S
C773 C782 1.429 . S
C774 C772 1.419 . S
C774 C775 1.363 . S
C774 H777 0.929 . S
C775 C774 1.363 . S
C775 C781 1.428 . S
H776 C772 0.930 . S
H777 C774 0.929 . S
S778 N779 1.613 . S
S778 N780 1.610 . S
N779 S778 1.613 . S
N779 C782 1.350 . S
N780 S778 1.610 . S
N780 C781 1.351 . S
C781 C775 1.428 . S
C781 N780 1.351 . S
C781 C782 1.434 . S
C782 C773 1.429 . S
C782 N779 1.350 . S
C782 C781 1.434 . S
C783 C784 1.369 . S
C783 C785 1.419 . S
C783 H787 0.930 . S
C784 C783 1.369 . S
C784 C793 1.429 . S
C785 C783 1.419 . S
C785 C786 1.363 . S
C785 H788 0.929 . S
C786 C785 1.363 . S
C786 C792 1.428 . S
H787 C783 0.930 . S
H788 C785 0.929 . S
S789 N790 1.613 . S
S789 N791 1.610 . S
N790 S789 1.613 . S
N790 C793 1.350 . S
N791 S789 1.610 . S
N791 C792 1.351 . S
C792 C786 1.428 . S
C792 N791 1.351 . S
C792 C793 1.434 . S
C793 C784 1.429 . S
C793 N790 1.350 . S
C793 C792 1.434 . S
C794 C795 1.369 . S
C794 C796 1.419 . S
C794 H798 0.930 . S
C795 C794 1.369 . S
C795 C804 1.429 . S
C796 C794 1.419 . S
C796 C797 1.363 . S
C796 H799 0.929 . S
C797 C796 1.363 . S
C797 C803 1.428 . S
H798 C794 0.930 . S
H799 C796 0.929 . S
S800 N801 1.613 . S
S800 N802 1.610 . S
N801 S800 1.613 . S
N801 C804 1.350 . S
N802 S800 1.610 . S
N802 C803 1.351 . S
C803 C797 1.428 . S
C803 N802 1.351 . S
C803 C804 1.434 . S
C804 C795 1.429 . S
C804 N801 1.350 . S
C804 C803 1.434 . S
C805 C806 1.369 . S
C805 C807 1.419 . S
C805 H809 0.930 . S
C806 C805 1.369 . S
C806 C815 1.429 . S
C807 C805 1.419 . S
C807 C808 1.363 . S
C807 H810 0.929 . S
C808 C807 1.363 . S
C808 C814 1.428 . S
H809 C805 0.930 . S
H810 C807 0.929 . S
S811 N812 1.613 . S
S811 N813 1.605 1_556 S
N812 S811 1.613 . S
N812 C815 1.350 . S
N813 S811 1.605 1_554 S
N813 C814 1.322 1_554 S
C814 C808 1.428 . S
C814 N813 1.322 1_556 S
C814 C815 1.434 . S
C815 C806 1.429 . S
C815 N812 1.350 . S
C815 C814 1.434 . S
C816 C817 1.369 . S
C816 C818 1.419 . S
C816 H820 0.930 . S
C817 C816 1.369 . S
C817 C826 1.429 . S
C818 C816 1.419 . S
C818 C819 1.363 . S
C818 H821 0.929 . S
C819 C818 1.363 . S
C819 C825 1.428 . S
H820 C816 0.930 . S
H821 C818 0.929 . S
S822 N823 1.613 . S
S822 N824 1.610 . S
N823 S822 1.613 . S
N823 C826 1.350 . S
N824 S822 1.610 . S
N824 C825 1.351 . S
C825 C819 1.428 . S
C825 N824 1.351 . S
C825 C826 1.434 . S
C826 C817 1.429 . S
C826 N823 1.350 . S
C826 C825 1.434 . S
C827 C828 1.369 . S
C827 C829 1.419 . S
C827 H831 0.930 . S
C828 C827 1.369 . S
C828 C837 1.429 . S
C829 C827 1.419 . S
C829 C830 1.363 . S
C829 H832 0.929 . S
C830 C829 1.363 . S
C830 C836 1.428 . S
H831 C827 0.930 . S
H832 C829 0.929 . S
S833 N834 1.613 . S
S833 N835 1.610 . S
N834 S833 1.613 . S
N834 C837 1.350 . S
N835 S833 1.610 . S
N835 C836 1.351 . S
C836 C830 1.428 . S
C836 N835 1.351 . S
C836 C837 1.434 . S
C837 C828 1.429 . S
C837 N834 1.350 . S
C837 C836 1.434 . S
C838 C839 1.369 . S
C838 C840 1.419 . S
C838 H842 0.930 . S
C839 C838 1.369 . S
C839 C848 1.429 . S
C840 C838 1.419 . S
C840 C841 1.363 . S
C840 H843 0.929 . S
C841 C840 1.363 . S
C841 C847 1.428 . S
H842 C838 0.930 . S
H843 C840 0.929 . S
S844 N845 1.613 . S
S844 N846 1.610 . S
N845 S844 1.613 . S
N845 C848 1.350 . S
N846 S844 1.610 . S
N846 C847 1.351 . S
C847 C841 1.428 . S
C847 N846 1.351 . S
C847 C848 1.434 . S
C848 C839 1.429 . S
C848 N845 1.350 . S
C848 C847 1.434 . S
C849 C850 1.369 . S
C849 C851 1.419 . S
C849 H853 0.930 . S
C850 C849 1.369 . S
C850 C859 1.429 . S
C851 C849 1.419 . S
C851 C852 1.363 . S
C851 H854 0.929 . S
C852 C851 1.363 . S
C852 C858 1.428 . S
H853 C849 0.930 . S
H854 C851 0.929 . S
S855 N856 1.613 . S
S855 N857 1.610 . S
N856 S855 1.613 . S
N856 C859 1.350 . S
N857 S855 1.610 . S
N857 C858 1.351 . S
C858 C852 1.428 . S
C858 N857 1.351 . S
C858 C859 1.434 . S
C859 C850 1.429 . S
C859 N856 1.350 . S
C859 C858 1.434 . S
C860 C861 1.369 . S
C860 C862 1.419 . S
C860 H864 0.930 . S
C861 C860 1.369 . S
C861 C870 1.429 . S
C862 C860 1.419 . S
C862 C863 1.363 . S
C862 H865 0.929 . S
C863 C862 1.363 . S
C863 C869 1.428 . S
H864 C860 0.930 . S
H865 C862 0.929 . S
S866 N867 1.613 . S
S866 N868 1.610 . S
N867 S866 1.613 . S
N867 C870 1.350 . S
N868 S866 1.610 . S
N868 C869 1.351 . S
C869 C863 1.428 . S
C869 N868 1.351 . S
C869 C870 1.434 . S
C870 C861 1.429 . S
C870 N867 1.350 . S
C870 C869 1.434 . S
C871 C872 1.369 . S
C871 C873 1.419 . S
C871 H875 0.930 . S
C872 C871 1.369 . S
C872 C881 1.429 . S
C873 C871 1.419 . S
C873 C874 1.363 . S
C873 H876 0.929 . S
C874 C873 1.363 . S
C874 C880 1.428 . S
H875 C871 0.930 . S
H876 C873 0.929 . S
S877 N878 1.613 . S
S877 N879 1.610 . S
N878 S877 1.613 . S
N878 C881 1.350 . S
N879 S877 1.610 . S
N879 C880 1.351 . S
C880 C874 1.428 . S
C880 N879 1.351 . S
C880 C881 1.434 . S
C881 C872 1.429 . S
C881 N878 1.350 . S
C881 C880 1.434 . S
C882 C883 1.369 . S
C882 C884 1.419 . S
C882 H886 0.930 . S
C883 C882 1.369 . S
C883 C892 1.429 . S
C884 C882 1.419 . S
C884 C885 1.363 . S
C884 H887 0.929 . S
C885 C884 1.363 . S
C885 C891 1.428 . S
H886 C882 0.930 . S
H887 C884 0.929 . S
S888 N889 1.613 . S
S888 N890 1.610 . S
N889 S888 1.613 . S
N889 C892 1.350 . S
N890 S888 1.610 . S
N890 C891 1.351 . S
C891 C885 1.428 . S
C891 N890 1.351 . S
C891 C892 1.434 . S
C892 C883 1.429 . S
C892 N889 1.350 . S
C892 C891 1.434 . S
C893 C894 1.369 . S
C893 C895 1.419 . S
C893 H897 0.930 . S
C894 C893 1.369 . S
C894 C903 1.429 1_655 S
C895 C893 1.419 . S
C895 C896 1.363 . S
C895 H898 0.929 . S
C896 C895 1.363 . S
C896 C902 1.428 1_655 S
H897 C893 0.930 . S
H898 C895 0.929 . S
S899 N900 1.613 . S
S899 N901 1.610 . S
N900 S899 1.613 . S
N900 C903 1.350 . S
N901 S899 1.610 . S
N901 C902 1.351 . S
C902 C896 1.428 1_455 S
C902 N901 1.351 . S
C902 C903 1.434 . S
C903 C894 1.429 1_455 S
C903 N900 1.350 . S
C903 C902 1.434 . S
C904 C905 1.369 . S
C904 C906 1.419 . S
C904 H908 0.930 . S
C905 C904 1.369 . S
C905 C914 1.429 . S
C906 C904 1.419 . S
C906 C907 1.363 . S
C906 H909 0.929 . S
C907 C906 1.363 . S
C907 C913 1.428 . S
H908 C904 0.930 . S
H909 C906 0.929 . S
S910 N911 1.613 . S
S910 N912 1.610 . S
N911 S910 1.613 . S
N911 C914 1.350 . S
N912 S910 1.610 . S
N912 C913 1.351 . S
C913 C907 1.428 . S
C913 N912 1.351 . S
C913 C914 1.434 . S
C914 C905 1.429 . S
C914 N911 1.350 . S
C914 C913 1.434 . S
C915 C916 1.369 . S
C915 C917 1.419 . S
C915 H919 0.930 . S
C916 C915 1.369 . S
C916 C925 1.429 . S
C917 C915 1.419 . S
C917 C918 1.363 . S
C917 H920 0.929 . S
C918 C917 1.363 . S
C918 C924 1.428 . S
H919 C915 0.930 . S
H920 C917 0.929 . S
S921 N922 1.613 . S
S921 N923 1.610 . S
N922 S921 1.613 . S
N922 C925 1.350 . S
N923 S921 1.610 . S
N923 C924 1.351 . S
C924 C918 1.428 . S
C924 N923 1.351 . S
C924 C925 1.434 . S
C925 C916 1.429 . S
C925 N922 1.350 . S
C925 C924 1.434 . S
C926 C927 1.369 . S
C926 C928 1.419 . S
C926 H930 0.930 . S
C927 C926 1.369 . S
C927 C936 1.429 . S
C928 C926 1.419 . S
C928 C929 1.363 . S
C928 H931 0.929 . S
C929 C928 1.363 . S
C929 C935 1.428 . S
H930 C926 0.930 . S
H931 C928 0.929 . S
S932 N933 1.613 . S
S932 N934 1.610 . S
N933 S932 1.613 . S
N933 C936 1.350 . S
N934 S932 1.610 . S
N934 C935 1.351 . S
C935 C929 1.428 . S
C935 N934 1.351 . S
C935 C936 1.434 . S
C936 C927 1.429 . S
C936 N933 1.350 . S
C936 C935 1.434 . S
C937 C938 1.369 . S
C937 C939 1.419 . S
C937 H941 0.930 . S
C938 C937 1.369 . S
C938 C947 1.429 1_565 S
C939 C937 1.419 . S
C939 C940 1.363 . S
C939 H942 0.929 . S
C940 C939 1.363 . S
C940 C946 1.428 1_565 S
H941 C937 0.930 . S
H942 C939 0.929 . S
S943 N944 1.613 . S
S943 N945 1.610 . S
N944 S943 1.613 . S
N944 C947 1.350 . S
N945 S943 1.610 . S
N945 C946 1.351 . S
C946 C940 1.428 1_545 S
C946 N945 1.351 . S
C946 C947 1.434 . S
C947 C938 1.429 1_545 S
C947 N944 1.350 . S
C947 C946 1.434 . S
C948 C949 1.369 1_545 S
C948 C950 1.419 . S
C948 H952 0.930 . S
C949 C948 1.369 1_565 S
C949 C958 1.429 . S
C950 C948 1.419 . S
C950 C951 1.363 1_545 S
C950 H953 0.929 . S
C951 C950 1.363 1_565 S
C951 C957 1.428 . S
H952 C948 0.930 . S
H953 C950 0.929 . S
S954 N955 1.613 . S
S954 N956 1.610 . S
N955 S954 1.613 . S
N955 C958 1.350 . S
N956 S954 1.610 . S
N956 C957 1.351 . S
C957 C951 1.428 . S
C957 N956 1.351 . S
C957 C958 1.434 . S
C958 C949 1.429 . S
C958 N955 1.350 . S
C958 C957 1.434 . S
C959 C960 1.369 . S
C959 C961 1.419 . S
C959 H963 0.930 1_455 S
C960 C959 1.369 . S
C960 C969 1.429 . S
C961 C959 1.419 . S
C961 C962 1.363 . S
C961 H964 0.929 1_455 S
C962 C961 1.363 . S
C962 C968 1.428 . S
H963 C959 0.930 1_655 S
H964 C961 0.929 1_655 S
S965 N966 1.613 . S
S965 N967 1.610 . S
N966 S965 1.613 . S
N966 C969 1.350 . S
N967 S965 1.610 . S
N967 C968 1.351 . S
C968 C962 1.428 . S
C968 N967 1.351 . S
C968 C969 1.434 . S
C969 C960 1.429 . S
C969 N966 1.350 . S
C969 C968 1.434 . S
C970 C971 1.369 . S
C970 C972 1.419 . S
C970 H974 0.930 . S
C971 C970 1.369 . S
C971 C980 1.429 . S
C972 C970 1.419 . S
C972 C973 1.363 . S
C972 H975 0.929 . S
C973 C972 1.363 . S
C973 C979 1.428 . S
H974 C970 0.930 . S
H975 C972 0.929 . S
S976 N977 1.613 . S
S976 N978 1.610 . S
N977 S976 1.613 . S
N977 C980 1.350 . S
N978 S976 1.610 . S
N978 C979 1.351 . S
C979 C973 1.428 . S
C979 N978 1.351 . S
C979 C980 1.434 . S
C980 C971 1.429 . S
C980 N977 1.350 . S
C980 C979 1.434 . S
C981 C982 1.369 . S
C981 C983 1.419 . S
C981 H985 0.930 . S
C982 C981 1.369 . S
C982 C991 1.429 1_655 S
C983 C981 1.419 . S
C983 C984 1.363 . S
C983 H986 0.929 . S
C984 C983 1.363 . S
C984 C990 1.428 1_655 S
H985 C981 0.930 . S
H986 C983 0.929 . S
S987 N988 1.613 . S
S987 N989 1.610 . S
N988 S987 1.613 . S
N988 C991 1.350 . S
N989 S987 1.610 . S
N989 C990 1.351 . S
C990 C984 1.428 1_455 S
C990 N989 1.351 . S
C990 C991 1.434 . S
C991 C982 1.429 1_455 S
C991 N988 1.350 . S
C991 C990 1.434 . S
C992 C993 1.369 . S
C992 C994 1.419 . S
C992 H996 0.930 . S
C993 C992 1.369 . S
C993 C1002 1.429 . S
C994 C992 1.419 . S
C994 C995 1.363 . S
C994 H997 0.929 . S
C995 C994 1.363 . S
C995 C1001 1.428 . S
H996 C992 0.930 . S
H997 C994 0.929 . S
S998 N999 1.613 . S
S998 N1000 1.610 . S
N999 S998 1.613 . S
N999 C1002 1.350 . S
N1000 S998 1.610 . S
N1000 C1001 1.351 . S
C1001 C995 1.428 . S
C1001 N1000 1.351 . S
C1001 C1002 1.434 . S
C1002 C993 1.429 . S
C1002 N999 1.350 . S
C1002 C1001 1.434 . S
C1003 C1004 1.369 . S
C1003 C1005 1.419 . S
C1003 H1007 0.930 . S
C1004 C1003 1.369 . S
C1004 C1013 1.429 . S
C1005 C1003 1.419 . S
C1005 C1006 1.363 . S
C1005 H1008 0.929 . S
C1006 C1005 1.363 . S
C1006 C1012 1.428 . S
H1007 C1003 0.930 . S
H1008 C1005 0.929 . S
S1009 N1010 1.613 . S
S1009 N1011 1.610 . S
N1010 S1009 1.613 . S
N1010 C1013 1.350 1_565 S
N1011 S1009 1.610 . S
N1011 C1012 1.351 1_565 S
C1012 C1006 1.428 . S
C1012 N1011 1.351 1_545 S
C1012 C1013 1.434 . S
C1013 C1004 1.429 . S
C1013 N1010 1.350 1_545 S
C1013 C1012 1.434 . S
C1014 C1015 1.369 . S
C1014 C1016 1.419 . S
C1014 H1018 0.930 . S
C1015 C1014 1.369 . S
C1015 C1024 1.429 . S
C1016 C1014 1.419 . S
C1016 C1017 1.363 . S
C1016 H1019 0.929 . S
C1017 C1016 1.363 . S
C1017 C1023 1.428 . S
H1018 C1014 0.930 . S
H1019 C1016 0.929 . S
S1020 N1021 1.613 . S
S1020 N1022 1.610 . S
N1021 S1020 1.613 . S
N1021 C1024 1.350 . S
N1022 S1020 1.610 . S
N1022 C1023 1.351 . S
C1023 C1017 1.428 . S
C1023 N1022 1.351 . S
C1023 C1024 1.434 . S
C1024 C1015 1.429 . S
C1024 N1021 1.350 . S
C1024 C1023 1.434 . S
C1025 C1026 1.369 . S
C1025 C1027 1.419 . S
C1025 H1029 0.930 . S
C1026 C1025 1.369 . S
C1026 C1035 1.429 . S
C1027 C1025 1.419 . S
C1027 C1028 1.363 . S
C1027 H1030 0.929 . S
C1028 C1027 1.363 . S
C1028 C1034 1.428 . S
H1029 C1025 0.930 . S
H1030 C1027 0.929 . S
S1031 N1032 1.613 . S
S1031 N1033 1.610 . S
N1032 S1031 1.613 . S
N1032 C1035 1.350 . S
N1033 S1031 1.610 . S
N1033 C1034 1.351 . S
C1034 C1028 1.428 . S
C1034 N1033 1.351 . S
C1034 C1035 1.434 . S
C1035 C1026 1.429 . S
C1035 N1032 1.350 . S
C1035 C1034 1.434 . S
C1036 C1037 1.369 . S
C1036 C1038 1.419 . S
C1036 H1040 0.930 . S
C1037 C1036 1.369 . S
C1037 C1046 1.429 . S
C1038 C1036 1.419 . S
C1038 C1039 1.363 . S
C1038 H1041 0.929 . S
C1039 C1038 1.363 . S
C1039 C1045 1.428 . S
H1040 C1036 0.930 . S
H1041 C1038 0.929 . S
S1042 N1043 1.613 . S
S1042 N1044 1.610 . S
N1043 S1042 1.613 . S
N1043 C1046 1.350 . S
N1044 S1042 1.610 . S
N1044 C1045 1.351 . S
C1045 C1039 1.428 . S
C1045 N1044 1.351 . S
C1045 C1046 1.434 . S
C1046 C1037 1.429 . S
C1046 N1043 1.350 . S
C1046 C1045 1.434 . S
C1047 C1048 1.369 . S
C1047 C1049 1.419 . S
C1047 H1051 0.930 . S
C1048 C1047 1.369 . S
C1048 C1057 1.429 . S
C1049 C1047 1.419 . S
C1049 C1050 1.363 . S
C1049 H1052 0.929 . S
C1050 C1049 1.363 . S
C1050 C1056 1.428 . S
H1051 C1047 0.930 . S
H1052 C1049 0.929 . S
S1053 N1054 1.613 . S
S1053 N1055 1.610 . S
N1054 S1053 1.613 . S
N1054 C1057 1.350 . S
N1055 S1053 1.610 . S
N1055 C1056 1.351 . S
C1056 C1050 1.428 . S
C1056 N1055 1.351 . S
C1056 C1057 1.434 . S
C1057 C1048 1.429 . S
C1057 N1054 1.350 . S
C1057 C1056 1.434 . S
C1058 C1059 1.369 . S
C1058 C1060 1.419 . S
C1058 H1062 0.930 . S
C1059 C1058 1.369 . S
C1059 C1068 1.429 . S
C1060 C1058 1.419 . S
C1060 C1061 1.363 . S
C1060 H1063 0.929 . S
C1061 C1060 1.363 . S
C1061 C1067 1.428 . S
H1062 C1058 0.930 . S
H1063 C1060 0.929 . S
S1064 N1065 1.613 . S
S1064 N1066 1.610 . S
N1065 S1064 1.613 . S
N1065 C1068 1.350 . S
N1066 S1064 1.610 . S
N1066 C1067 1.351 . S
C1067 C1061 1.428 . S
C1067 N1066 1.351 . S
C1067 C1068 1.434 . S
C1068 C1059 1.429 . S
C1068 N1065 1.350 . S
C1068 C1067 1.434 . S
C1069 C1070 1.369 . S
C1069 C1071 1.419 . S
C1069 H1073 0.930 . S
C1070 C1069 1.369 . S
C1070 C1079 1.429 . S
C1071 C1069 1.419 . S
C1071 C1072 1.363 . S
C1071 H1074 0.929 . S
C1072 C1071 1.363 . S
C1072 C1078 1.428 . S
H1073 C1069 0.930 . S
H1074 C1071 0.929 . S
S1075 N1076 1.613 . S
S1075 N1077 1.610 . S
N1076 S1075 1.613 . S
N1076 C1079 1.350 . S
N1077 S1075 1.610 . S
N1077 C1078 1.351 . S
C1078 C1072 1.428 . S
C1078 N1077 1.351 . S
C1078 C1079 1.434 . S
C1079 C1070 1.429 . S
C1079 N1076 1.350 . S
C1079 C1078 1.434 . S
C1080 C1081 1.369 . S
C1080 C1082 1.419 . S
C1080 H1084 0.930 . S
C1081 C1080 1.369 . S
C1081 C1090 1.429 . S
C1082 C1080 1.419 . S
C1082 C1083 1.363 . S
C1082 H1085 0.929 . S
C1083 C1082 1.363 . S
C1083 C1089 1.428 . S
H1084 C1080 0.930 . S
H1085 C1082 0.929 . S
S1086 N1087 1.613 . S
S1086 N1088 1.610 . S
N1087 S1086 1.613 . S
N1087 C1090 1.350 . S
N1088 S1086 1.610 . S
N1088 C1089 1.351 . S
C1089 C1083 1.428 . S
C1089 N1088 1.351 . S
C1089 C1090 1.434 . S
C1090 C1081 1.429 . S
C1090 N1087 1.350 . S
C1090 C1089 1.434 . S
C1091 C1092 1.369 . S
C1091 C1093 1.419 . S
C1091 H1095 0.930 . S
C1092 C1091 1.369 . S
C1092 C1101 1.429 . S
C1093 C1091 1.419 . S
C1093 C1094 1.363 . S
C1093 H1096 0.929 . S
C1094 C1093 1.363 . S
C1094 C1100 1.428 . S
H1095 C1091 0.930 . S
H1096 C1093 0.929 . S
S1097 N1098 1.613 . S
S1097 N1099 1.610 . S
N1098 S1097 1.613 . S
N1098 C1101 1.350 . S
N1099 S1097 1.610 . S
N1099 C1100 1.351 . S
C1100 C1094 1.428 . S
C1100 N1099 1.351 . S
C1100 C1101 1.434 . S
C1101 C1092 1.429 . S
C1101 N1098 1.350 . S
C1101 C1100 1.434 . S
C1102 C1103 1.369 . S
C1102 C1104 1.419 . S
C1102 H1106 0.930 . S
C1103 C1102 1.369 . S
C1103 C1112 1.429 . S
C1104 C1102 1.419 . S
C1104 C1105 1.363 . S
C1104 H1107 0.929 . S
C1105 C1104 1.363 . S
C1105 C1111 1.428 . S
H1106 C1102 0.930 . S
H1107 C1104 0.929 . S
S1108 N1109 1.613 . S
S1108 N1110 1.610 . S
N1109 S1108 1.613 . S
N1109 C1112 1.350 . S
N1110 S1108 1.610 . S
N1110 C1111 1.351 . S
C1111 C1105 1.428 . S
C1111 N1110 1.351 . S
C1111 C1112 1.434 . S
C1112 C1103 1.429 . S
C1112 N1109 1.350 . S
C1112 C1111 1.434 . S
C1113 C1114 1.369 . S
C1113 C1115 1.419 . S
C1113 H1117 0.930 . S
C1114 C1113 1.369 . S
C1114 C1123 1.429 . S
C1115 C1113 1.419 . S
C1115 C1116 1.363 . S
C1115 H1118 0.929 . S
C1116 C1115 1.363 . S
C1116 C1122 1.428 . S
H1117 C1113 0.930 . S
H1118 C1115 0.929 . S
S1119 N1120 1.613 . S
S1119 N1121 1.610 . S
N1120 S1119 1.613 . S
N1120 C1123 1.350 . S
N1121 S1119 1.610 . S
N1121 C1122 1.351 . S
C1122 C1116 1.428 . S
C1122 N1121 1.351 . S
C1122 C1123 1.434 . S
C1123 C1114 1.429 . S
C1123 N1120 1.350 . S
C1123 C1122 1.434 . S
C1124 C1125 1.369 . S
C1124 C1126 1.419 . S
C1124 H1128 0.930 . S
C1125 C1124 1.369 . S
C1125 C1134 1.429 . S
C1126 C1124 1.419 . S
C1126 C1127 1.363 . S
C1126 H1129 0.929 . S
C1127 C1126 1.363 . S
C1127 C1133 1.428 . S
H1128 C1124 0.930 . S
H1129 C1126 0.929 . S
S1130 N1131 1.613 . S
S1130 N1132 1.610 . S
N1131 S1130 1.613 . S
N1131 C1134 1.350 . S
N1132 S1130 1.610 . S
N1132 C1133 1.351 . S
C1133 C1127 1.428 . S
C1133 N1132 1.351 . S
C1133 C1134 1.434 . S
C1134 C1125 1.429 . S
C1134 N1131 1.350 . S
C1134 C1133 1.434 . S
C1135 C1136 1.369 . S
C1135 C1137 1.419 . S
C1135 H1139 0.930 . S
C1136 C1135 1.369 . S
C1136 C1145 1.429 . S
C1137 C1135 1.419 . S
C1137 C1138 1.363 . S
C1137 H1140 0.929 . S
C1138 C1137 1.363 . S
C1138 C1144 1.428 . S
H1139 C1135 0.930 . S
H1140 C1137 0.929 . S
S1141 N1142 1.613 . S
S1141 N1143 1.610 . S
N1142 S1141 1.613 . S
N1142 C1145 1.350 . S
N1143 S1141 1.610 . S
N1143 C1144 1.351 . S
C1144 C1138 1.428 . S
C1144 N1143 1.351 . S
C1144 C1145 1.434 . S
C1145 C1136 1.429 . S
C1145 N1142 1.350 . S
C1145 C1144 1.434 . S
C1146 C1147 1.369 . S
C1146 C1148 1.419 . S
C1146 H1150 0.930 . S
C1147 C1146 1.369 . S
C1147 C1156 1.429 . S
C1148 C1146 1.419 . S
C1148 C1149 1.363 . S
C1148 H1151 0.929 . S
C1149 C1148 1.363 . S
C1149 C1155 1.428 . S
H1150 C1146 0.930 . S
H1151 C1148 0.929 . S
S1152 N1153 1.613 . S
S1152 N1154 1.610 . S
N1153 S1152 1.613 . S
N1153 C1156 1.350 . S
N1154 S1152 1.610 . S
N1154 C1155 1.351 . S
C1155 C1149 1.428 . S
C1155 N1154 1.351 . S
C1155 C1156 1.434 . S
C1156 C1147 1.429 . S
C1156 N1153 1.350 . S
C1156 C1155 1.434 . S
C1157 C1158 1.369 . S
C1157 C1159 1.419 . S
C1157 H1161 0.930 . S
C1158 C1157 1.369 . S
C1158 C1167 1.429 . S
C1159 C1157 1.419 . S
C1159 C1160 1.363 . S
C1159 H1162 0.929 . S
C1160 C1159 1.363 . S
C1160 C1166 1.428 . S
H1161 C1157 0.930 . S
H1162 C1159 0.929 . S
S1163 N1164 1.613 . S
S1163 N1165 1.610 . S
N1164 S1163 1.613 . S
N1164 C1167 1.350 . S
N1165 S1163 1.610 . S
N1165 C1166 1.351 . S
C1166 C1160 1.428 . S
C1166 N1165 1.351 . S
C1166 C1167 1.434 . S
C1167 C1158 1.429 . S
C1167 N1164 1.350 . S
C1167 C1166 1.434 . S
C1168 C1169 1.369 . S
C1168 C1170 1.419 . S
C1168 H1172 0.930 . S
C1169 C1168 1.369 . S
C1169 C1178 1.429 . S
C1170 C1168 1.419 . S
C1170 C1171 1.363 . S
C1170 H1173 0.929 . S
C1171 C1170 1.363 . S
C1171 C1177 1.428 . S
H1172 C1168 0.930 . S
H1173 C1170 0.929 . S
S1174 N1175 1.613 . S
S1174 N1176 1.610 . S
N1175 S1174 1.613 . S
N1175 C1178 1.350 . S
N1176 S1174 1.610 . S
N1176 C1177 1.351 . S
C1177 C1171 1.428 . S
C1177 N1176 1.351 . S
C1177 C1178 1.434 . S
C1178 C1169 1.429 . S
C1178 N1175 1.350 . S
C1178 C1177 1.434 . S
C1179 C1180 1.369 . S
C1179 C1181 1.419 . S
C1179 H1183 0.930 . S
C1180 C1179 1.369 . S
C1180 C1189 1.429 . S
C1181 C1179 1.419 . S
C1181 C1182 1.363 . S
C1181 H1184 0.929 . S
C1182 C1181 1.363 . S
C1182 C1188 1.428 . S
H1183 C1179 0.930 . S
H1184 C1181 0.929 . S
S1185 N1186 1.613 . S
S1185 N1187 1.610 . S
N1186 S1185 1.613 . S
N1186 C1189 1.350 . S
N1187 S1185 1.610 . S
N1187 C1188 1.351 . S
C1188 C1182 1.428 . S
C1188 N1187 1.351 . S
C1188 C1189 1.434 . S
C1189 C1180 1.429 . S
C1189 N1186 1.350 . S
C1189 C1188 1.434 . S
C1190 C1191 1.369 . S
C1190 C1192 1.419 . S
C1190 H1194 0.930 . S
C1191 C1190 1.369 . S
C1191 C1200 1.429 . S
C1192 C1190 1.419 . S
C1192 C1193 1.363 . S
C1192 H1195 0.929 . S
C1193 C1192 1.363 . S
C1193 C1199 1.428 . S
H1194 C1190 0.930 . S
H1195 C1192 0.929 . S
S1196 N1197 1.613 . S
S1196 N1198 1.610 . S
N1197 S1196 1.613 . S
N1197 C1200 1.350 . S
N1198 S1196 1.610 . S
N1198 C1199 1.351 . S
C1199 C1193 1.428 . S
C1199 N1198 1.351 . S
C1199 C1200 1.434 . S
C1200 C1191 1.429 . S
C1200 N1197 1.350 . S
C1200 C1199 1.434 . S
C1201 C1202 1.369 . S
C1201 C1203 1.419 . S
C1201 H1205 0.930 . S
C1202 C1201 1.369 . S
C1202 C1211 1.429 . S
C1203 C1201 1.419 . S
C1203 C1204 1.363 . S
C1203 H1206 0.929 . S
C1204 C1203 1.363 . S
C1204 C1210 1.428 . S
H1205 C1201 0.930 . S
H1206 C1203 0.929 . S
S1207 N1208 1.613 . S
S1207 N1209 1.610 . S
N1208 S1207 1.613 . S
N1208 C1211 1.350 . S
N1209 S1207 1.610 . S
N1209 C1210 1.351 . S
C1210 C1204 1.428 . S
C1210 N1209 1.351 . S
C1210 C1211 1.434 . S
C1211 C1202 1.429 . S
C1211 N1208 1.350 . S
C1211 C1210 1.434 . S
C1212 C1213 1.369 . S
C1212 C1214 1.419 . S
C1212 H1216 0.930 . S
C1213 C1212 1.369 . S
C1213 C1222 1.429 . S
C1214 C1212 1.419 . S
C1214 C1215 1.363 . S
C1214 H1217 0.929 . S
C1215 C1214 1.363 . S
C1215 C1221 1.428 . S
H1216 C1212 0.930 . S
H1217 C1214 0.929 . S
S1218 N1219 1.613 . S
S1218 N1220 1.610 . S
N1219 S1218 1.613 . S
N1219 C1222 1.350 . S
N1220 S1218 1.610 . S
N1220 C1221 1.351 . S
C1221 C1215 1.428 . S
C1221 N1220 1.351 . S
C1221 C1222 1.434 . S
C1222 C1213 1.429 . S
C1222 N1219 1.350 . S
C1222 C1221 1.434 . S
C1223 C1224 1.369 . S
C1223 C1225 1.419 . S
C1223 H1227 0.930 . S
C1224 C1223 1.369 . S
C1224 C1233 1.429 . S
C1225 C1223 1.419 . S
C1225 C1226 1.363 . S
C1225 H1228 0.929 . S
C1226 C1225 1.363 . S
C1226 C1232 1.428 . S
H1227 C1223 0.930 . S
H1228 C1225 0.929 . S
S1229 N1230 1.613 . S
S1229 N1231 1.610 . S
N1230 S1229 1.613 . S
N1230 C1233 1.350 . S
N1231 S1229 1.610 . S
N1231 C1232 1.351 . S
C1232 C1226 1.428 . S
C1232 N1231 1.351 . S
C1232 C1233 1.434 . S
C1233 C1224 1.429 . S
C1233 N1230 1.350 . S
C1233 C1232 1.434 . S
C1234 C1235 1.369 . S
C1234 C1236 1.419 . S
C1234 H1238 0.930 . S
C1235 C1234 1.369 . S
C1235 C1244 1.429 . S
C1236 C1234 1.419 . S
C1236 C1237 1.363 . S
C1236 H1239 0.929 . S
C1237 C1236 1.363 . S
C1237 C1243 1.428 . S
H1238 C1234 0.930 . S
H1239 C1236 0.929 . S
S1240 N1241 1.613 . S
S1240 N1242 1.610 . S
N1241 S1240 1.613 . S
N1241 C1244 1.350 . S
N1242 S1240 1.610 . S
N1242 C1243 1.351 . S
C1243 C1237 1.428 . S
C1243 N1242 1.351 . S
C1243 C1244 1.434 . S
C1244 C1235 1.429 . S
C1244 N1241 1.350 . S
C1244 C1243 1.434 . S
C1245 C1246 1.369 . S
C1245 C1247 1.419 . S
C1245 H1249 0.930 . S
C1246 C1245 1.369 . S
C1246 C1255 1.429 . S
C1247 C1245 1.419 . S
C1247 C1248 1.363 . S
C1247 H1250 0.929 . S
C1248 C1247 1.363 . S
C1248 C1254 1.428 . S
H1249 C1245 0.930 . S
H1250 C1247 0.929 . S
S1251 N1252 1.613 . S
S1251 N1253 1.610 . S
N1252 S1251 1.613 . S
N1252 C1255 1.350 . S
N1253 S1251 1.610 . S
N1253 C1254 1.351 . S
C1254 C1248 1.428 . S
C1254 N1253 1.351 . S
C1254 C1255 1.434 . S
C1255 C1246 1.429 . S
C1255 N1252 1.350 . S
C1255 C1254 1.434 . S
C1256 C1257 1.369 . S
C1256 C1258 1.419 . S
C1256 H1260 0.930 . S
C1257 C1256 1.369 . S
C1257 C1266 1.429 . S
C1258 C1256 1.419 . S
C1258 C1259 1.363 . S
C1258 H1261 0.929 . S
C1259 C1258 1.363 . S
C1259 C1265 1.428 . S
H1260 C1256 0.930 . S
H1261 C1258 0.929 . S
S1262 N1263 1.613 . S
S1262 N1264 1.610 . S
N1263 S1262 1.613 . S
N1263 C1266 1.350 . S
N1264 S1262 1.610 . S
N1264 C1265 1.351 . S
C1265 C1259 1.428 . S
C1265 N1264 1.351 . S
C1265 C1266 1.434 . S
C1266 C1257 1.429 . S
C1266 N1263 1.350 . S
C1266 C1265 1.434 . S
C1267 C1268 1.369 . S
C1267 C1269 1.419 . S
C1267 H1271 0.930 . S
C1268 C1267 1.369 . S
C1268 C1277 1.429 . S
C1269 C1267 1.419 . S
C1269 C1270 1.363 . S
C1269 H1272 0.929 . S
C1270 C1269 1.363 . S
C1270 C1276 1.428 . S
H1271 C1267 0.930 . S
H1272 C1269 0.929 . S
S1273 N1274 1.613 . S
S1273 N1275 1.610 . S
N1274 S1273 1.613 . S
N1274 C1277 1.350 . S
N1275 S1273 1.610 . S
N1275 C1276 1.351 . S
C1276 C1270 1.428 . S
C1276 N1275 1.351 . S
C1276 C1277 1.434 . S
C1277 C1268 1.429 . S
C1277 N1274 1.350 . S
C1277 C1276 1.434 . S
C487 C29 1.418 . S
C489 C238 1.205 . S
C498 C4 1.397 . S
C500 C254 1.189 . S
C511 C237 1.225 . S
C509 C16 1.421 . S
C522 C262 1.185 . S
C520 C30 1.413 . S
C531 C3 1.419 . S
C533 C271 1.215 . S
C544 C274 1.178 . S
C542 C17 1.396 . S
C553 C70 1.418 . S
C555 C280 1.194 . S
C566 C296 1.189 . S
C564 C49 1.397 . S
C577 C279 1.211 . S
C575 C57 1.420 . S
C586 C75 1.412 . S
C588 C304 1.197 . S
C599 C313 1.220 . S
C597 C44 1.422 . S
C610 C316 1.178 . S
C608 C62 1.394 . S
C621 C325 1.200 . S
C619 C107 1.419 . S
C632 C337 1.186 . S
C630 C88 1.394 . S
C643 C334 1.226 . S
C641 C96 1.422 . S
C652 C108 1.414 . S
C654 C343 1.186 . S
C665 C342 1.211 . S
C663 C83 1.421 . S
C674 C101 1.394 . S
C676 C359 1.176 . S
C687 C364 1.200 . S
C685 C146 1.419 . S
C698 C380 1.186 . S
C696 C121 1.394 . S
C707 C135 1.422 . S
C709 C363 1.213 . S
C720 C388 1.199 . S
C718 C147 1.412 . S
C731 C397 1.223 . S
C729 C120 1.422 . S
C740 C140 1.396 . S
C742 C400 1.180 . S
C751 C187 1.415 . S
C753 C409 1.194 . S
C764 C421 1.191 . S
C762 C160 1.397 . S
C775 C418 1.219 . S
C773 C172 1.423 . S
C784 C192 1.411 . S
C786 C427 1.193 . S
C797 C426 1.223 . S
C795 C159 1.420 . S
C806 C173 1.395 . S
C808 C443 1.191 . S
C819 C448 1.205 . S
C817 C226 1.416 . S
C830 C464 1.192 . S
C828 C205 1.396 . S
C839 C213 1.423 . S
C841 C447 1.217 . S
C852 C469 1.190 . S
C850 C231 1.415 . S
C863 C468 1.224 . S
C861 C200 1.421 . S
C874 C485 1.181 . S
C872 C218 1.393 . S
C885 C250 1.490 . S
C883 C148 1.608 . S
C894 C127 1.588 . S
C896 C253 1.471 . S
C907 C241 1.463 . S
C905 C133 1.591 . S
C916 C225 1.600 . S
C918 C258 1.490 . S
C927 C198 1.583 . S
C929 C259 1.464 . S
C940 C275 1.468 . S
C938 C212 1.583 . S
C951 C292 1.491 . S
C949 C185 1.608 . S
C962 C295 1.477 . S
C960 C166 1.584 . S
C971 C174 1.591 . S
C973 C283 1.464 . S
C984 C300 1.487 . S
C982 C114 1.604 . S
C993 C81 1.587 . S
C995 C301 1.462 . S
C1004 C95 1.586 . S
C1006 C317 1.469 . S
C1015 C224 1.607 . S
C1017 C321 1.493 . S
C1026 C199 1.585 . S
C1028 C338 1.480 . S
C1039 C322 1.461 . S
C1037 C211 1.590 . S
C1050 C355 1.495 . S
C1048 C69 1.600 . S
C1061 C346 1.459 . S
C1059 C42 1.587 . S
C1070 C56 1.582 . S
C1072 C358 1.477 . S
C1083 C376 1.490 . S
C1081 C31 1.608 . S
C1094 C379 1.474 . S
C1092 C10 1.585 . S
C1103 C18 1.587 . S
C1105 C367 1.470 . S
C1116 C384 1.495 . S
C1114 C186 1.600 . S
C1127 C385 1.458 . S
C1125 C161 1.585 . S
C1138 C401 1.468 . S
C1136 C179 1.584 . S
C1149 C405 1.498 . S
C1147 C68 1.609 . S
C1160 C422 1.480 . S
C1158 C43 1.585 . S
C1169 C55 1.590 . S
C1171 C406 1.461 . S
C1180 C153 1.602 . S
C1182 C439 1.495 . S
C1191 C122 1.587 . S
C1193 C430 1.462 . S
C1204 C442 1.476 . S
C1202 C134 1.581 . S
C1213 C109 1.608 . S
C1215 C460 1.497 . S
C1224 C82 1.586 . S
C1226 C463 1.471 . S
C1237 C451 1.469 . S
C1235 C94 1.590 . S
C1248 C481 1.486 . S
C1246 C36 1.602 . S
C1259 C472 1.456 . S
C1257 C5 1.586 . S
C1268 C23 1.585 . S
C1270 C484 1.470 . S
