# Generated by pormake.
# Topology pyr, (3,6)-cn, num edge types: 1
# Building blocks:
#     Node 0, Type 0, BuildingBlock: OLANEW_clean_sbu_2, # of connection points: 3
#     Node 1, Type 0, BuildingBlock: OLANEW_clean_sbu_2, # of connection points: 3
#     Node 2, Type 0, BuildingBlock: OLANEW_clean_sbu_2, # of connection points: 3
#     Node 3, Type 0, BuildingBlock: OLANEW_clean_sbu_2, # of connection points: 3
#     Node 4, Type 0, BuildingBlock: OLANEW_clean_sbu_2, # of connection points: 3
#     Node 5, Type 0, BuildingBlock: OLANEW_clean_sbu_2, # of connection points: 3
#     Node 6, Type 0, BuildingBlock: OLANEW_clean_sbu_2, # of connection points: 3
#     Node 7, Type 0, BuildingBlock: OLANEW_clean_sbu_2, # of connection points: 3
#     Node 8, Type 1, BuildingBlock: GEDQOX_clean_sbu_0, # of connection points: 6
#     Node 9, Type 1, BuildingBlock: GEDQOX_clean_sbu_0, # of connection points: 6
#     Node 10, Type 1, BuildingBlock: GEDQOX_clean_sbu_0, # of connection points: 6
#     Node 11, Type 1, BuildingBlock: GEDQOX_clean_sbu_0, # of connection points: 6
#     Edge 12, Type (0, 1), BuildingBlock: EZIPEK_clean_linker_0, # of connection points: 2
#     Edge 13, Type (0, 1), BuildingBlock: EZIPEK_clean_linker_0, # of connection points: 2
#     Edge 14, Type (0, 1), BuildingBlock: EZIPEK_clean_linker_0, # of connection points: 2
#     Edge 15, Type (0, 1), BuildingBlock: EZIPEK_clean_linker_0, # of connection points: 2
#     Edge 16, Type (0, 1), BuildingBlock: EZIPEK_clean_linker_0, # of connection points: 2
#     Edge 17, Type (0, 1), BuildingBlock: EZIPEK_clean_linker_0, # of connection points: 2
#     Edge 18, Type (0, 1), BuildingBlock: EZIPEK_clean_linker_0, # of connection points: 2
#     Edge 19, Type (0, 1), BuildingBlock: EZIPEK_clean_linker_0, # of connection points: 2
#     Edge 20, Type (0, 1), BuildingBlock: EZIPEK_clean_linker_0, # of connection points: 2
#     Edge 21, Type (0, 1), BuildingBlock: EZIPEK_clean_linker_0, # of connection points: 2
#     Edge 22, Type (0, 1), BuildingBlock: EZIPEK_clean_linker_0, # of connection points: 2
#     Edge 23, Type (0, 1), BuildingBlock: EZIPEK_clean_linker_0, # of connection points: 2
#     Edge 24, Type (0, 1), BuildingBlock: EZIPEK_clean_linker_0, # of connection points: 2
#     Edge 25, Type (0, 1), BuildingBlock: EZIPEK_clean_linker_0, # of connection points: 2
#     Edge 26, Type (0, 1), BuildingBlock: EZIPEK_clean_linker_0, # of connection points: 2
#     Edge 27, Type (0, 1), BuildingBlock: EZIPEK_clean_linker_0, # of connection points: 2
#     Edge 28, Type (0, 1), BuildingBlock: EZIPEK_clean_linker_0, # of connection points: 2
#     Edge 29, Type (0, 1), BuildingBlock: EZIPEK_clean_linker_0, # of connection points: 2
#     Edge 30, Type (0, 1), BuildingBlock: EZIPEK_clean_linker_0, # of connection points: 2
#     Edge 31, Type (0, 1), BuildingBlock: EZIPEK_clean_linker_0, # of connection points: 2
#     Edge 32, Type (0, 1), BuildingBlock: EZIPEK_clean_linker_0, # of connection points: 2
#     Edge 33, Type (0, 1), BuildingBlock: EZIPEK_clean_linker_0, # of connection points: 2
#     Edge 34, Type (0, 1), BuildingBlock: EZIPEK_clean_linker_0, # of connection points: 2
#     Edge 35, Type (0, 1), BuildingBlock: EZIPEK_clean_linker_0, # of connection points: 2
# Relax obj value: 0.238
# Max RMSD: 0.185
# Mean RMSD: 0.133
data_MOF--net-pyr--node1-OLANEW_clean_sbu_2--node2-GEDQOX_clean_sbu_0--edge1-EZIPEK_clean_linker_0
_symmetry_space_group_name_H-M    P1
_symmetry_Int_Tables_number       1
_symmetry_cell_setting            triclinic
loop_
_symmetry_equiv_pos_as_xyz
'x, y, z'
_cell_length_a     33.195321
_cell_length_b     33.002037
_cell_length_c     28.766896
_cell_angle_alpha  96.032361
_cell_angle_beta   95.443506
_cell_angle_gamma 93.993625
loop_
_atom_site_label
_atom_site_type_symbol
_atom_site_fract_x
_atom_site_fract_y
_atom_site_fract_z
_atom_type_partial_charge
O0 O 0.26947 0.16827 0.13809 0.0
Cd1 Cd 0.21053 0.22175 0.13347 0.0
O2 O 0.26755 0.11957 0.18843 0.0
Cd3 Cd 0.21897 0.10494 0.24443 0.0
O4 O 0.17315 0.0891 0.30299 0.0
C5 C 0.16909 0.0578 0.32671 0.0
O6 O 0.19299 0.02823 0.31918 0.0
C7 C 0.28506 0.13731 0.15592 0.0
C8 C 0.1757 0.28974 0.08517 0.0
O9 O 0.20585 0.29611 0.1173 0.0
O10 O 0.1635 0.25194 0.07292 0.0
O11 O 0.40276 0.82435 0.85813 0.0
Cd12 Cd 0.37375 0.75901 0.8152 0.0
O13 O 0.35259 0.82784 0.90313 0.0
Cd14 Cd 0.3169 0.77497 0.86436 0.0
O15 O 0.26817 0.76154 0.80758 0.0
C16 C 0.24159 0.78736 0.8091 0.0
O17 O 0.2449 0.81654 0.84433 0.0
C18 C 0.38614 0.84267 0.89162 0.0
C19 C 0.42589 0.71449 0.76278 0.0
O20 O 0.42472 0.71135 0.80668 0.0
O21 O 0.40338 0.73956 0.74383 0.0
O22 O 0.84698 0.52797 0.89365 0.0
Cd23 Cd 0.78654 0.56608 0.89812 0.0
O24 O 0.80999 0.47015 0.8919 0.0
Cd25 Cd 0.79263 0.40445 0.88747 0.0
O26 O 0.74723 0.35194 0.88193 0.0
C27 C 0.72237 0.35177 0.91296 0.0
O28 O 0.72576 0.38189 0.94715 0.0
C29 C 0.84469 0.4893 0.89258 0.0
C30 C 0.72881 0.55231 0.82009 0.0
O31 O 0.72752 0.53004 0.8539 0.0
O32 O 0.75775 0.58046 0.82238 0.0
O33 O 0.8403 0.83319 0.34965 0.0
Cd34 Cd 0.79385 0.7812 0.30156 0.0
O35 O 0.86369 0.78755 0.3935 0.0
Cd36 Cd 0.90356 0.77266 0.45325 0.0
O37 O 0.95027 0.75914 0.50702 0.0
C38 C 0.94196 0.73951 0.54107 0.0
O39 O 0.97146 0.73172 0.57181 0.0
C40 C 0.86351 0.82434 0.3842 0.0
C41 C 0.8333 0.72442 0.24805 0.0
O42 O 0.82286 0.75724 0.23174 0.0
O43 O 0.82552 0.71856 0.28974 0.0
O44 O 0.89618 0.87314 0.82016 0.0
Cd45 Cd 0.94601 0.81171 0.83458 0.0
O46 O 0.85697 0.92553 0.8096 0.0
Cd47 Cd 0.8007 0.94051 0.85654 0.0
O48 O 0.74353 0.95883 0.90069 0.0
C49 C 0.72302 0.99116 0.90307 0.0
O50 O 0.73354 0.02045 0.87797 0.0
C51 C 0.88736 0.90444 0.79791 0.0
C52 C 0.96762 0.73277 0.87094 0.0
O53 O 0.96983 0.73962 0.82806 0.0
O54 O 0.9534 0.76152 0.89685 0.0
O55 O 0.69577 0.25795 0.23688 0.0
Cd56 Cd 0.73554 0.30111 0.3024 0.0
O57 O 0.63929 0.26158 0.27104 0.0
Cd58 Cd 0.66381 0.30798 0.32902 0.0
O59 O 0.66649 0.35609 0.38833 0.0
C60 C 0.64885 0.38843 0.38235 0.0
O61 O 0.632 0.39329 0.34032 0.0
C62 C 0.65823 0.24729 0.23731 0.0
C63 C 0.78942 0.25795 0.35536 0.0
O64 O 0.75239 0.25954 0.36415 0.0
O65 O 0.80109 0.27649 0.32141 0.0
O66 O 0.4024 0.71415 0.26986 0.0
Cd67 Cd 0.37171 0.65176 0.29594 0.0
O68 O 0.35895 0.71768 0.20737 0.0
Cd69 Cd 0.31881 0.66308 0.20918 0.0
O70 O 0.26531 0.62654 0.1736 0.0
C71 C 0.25701 0.62956 0.13007 0.0
O72 O 0.28143 0.65264 0.10861 0.0
C73 C 0.39014 0.73203 0.23468 0.0
C74 C 0.42169 0.62722 0.36992 0.0
O75 O 0.42421 0.61243 0.3274 0.0
O76 O 0.39539 0.65307 0.37776 0.0
O77 O 0.33803 0.25512 0.8984 0.0
Cd78 Cd 0.39741 0.21722 0.8876 0.0
O79 O 0.29649 0.20634 0.85834 0.0
Cd80 Cd 0.23949 0.18066 0.81803 0.0
O81 O 0.19563 0.13691 0.77362 0.0
C82 C 0.17333 0.14714 0.73909 0.0
O83 O 0.17521 0.18544 0.73025 0.0
C84 C 0.30292 0.24264 0.87861 0.0
C85 C 0.43181 0.25865 0.82026 0.0
O86 O 0.40793 0.22633 0.80803 0.0
O87 O 0.44177 0.26966 0.86412 0.0
Nd88 Nd 0.04239 0.95242 0.55501 0.0
Nd89 Nd 0.99478 0.02455 0.55813 0.0
C90 C 0.06603 0.87732 0.55006 0.0
C91 C 0.08202 0.85147 0.58483 0.0
C92 C 0.0738 0.85848 0.63187 0.0
C93 C 0.09628 0.84068 0.66673 0.0
C94 C 0.1273 0.81598 0.65487 0.0
C95 C 0.13356 0.80666 0.60753 0.0
C96 C 0.11098 0.82435 0.57264 0.0
C97 C 0.08213 0.01806 0.61131 0.0
C98 C 0.9778 0.96159 0.6391 0.0
C99 C 0.96751 0.09829 0.56082 0.0
C100 C 0.94482 0.1217 0.52751 0.0
C101 C 0.95351 0.1641 0.52936 0.0
C102 C 0.93029 0.18693 0.50007 0.0
C103 C 0.89779 0.16767 0.46883 0.0
C104 C 0.88973 0.12513 0.46621 0.0
C105 C 0.91318 0.10229 0.49507 0.0
C106 C 0.95517 0.95899 0.50214 0.0
C107 C 0.06234 0.01507 0.4762 0.0
O108 O 0.02795 0.88527 0.55043 0.0
O109 O 0.08999 0.90953 0.54585 0.0
O110 O 0.10024 0.99128 0.58644 0.0
O111 O 0.04456 0.00796 0.60949 0.0
O112 O 1.00305 0.93866 0.6169 0.0
O113 O 0.97219 0.99836 0.62547 0.0
O114 O 1.00486 0.09153 0.55343 0.0
O115 O 0.94747 0.06643 0.57327 0.0
O116 O 0.93696 0.986 0.52634 0.0
O117 O 0.99267 0.96924 0.50389 0.0
O118 O 0.03742 0.0386 0.49849 0.0
O119 O 0.06669 0.97801 0.48913 0.0
H120 H 0.05189 0.87966 0.64207 0.0
H121 H 0.09143 0.84844 0.70321 0.0
H122 H 0.15771 0.78795 0.59801 0.0
H123 H 0.11796 0.81897 0.53658 0.0
H124 H 0.9778 0.17964 0.55403 0.0
H125 H 0.93705 0.21972 0.50244 0.0
H126 H 0.8649 0.10972 0.44223 0.0
H127 H 0.90605 0.06955 0.49264 0.0
Nd128 Nd 0.51698 0.04103 0.08057 0.0
Nd129 Nd 0.50653 0.08124 0.01032 0.0
C130 C 0.52951 0.98575 0.14015 0.0
C131 C 0.50838 0.95098 0.15784 0.0
C132 C 0.53133 0.92071 0.17511 0.0
C133 C 0.51207 0.88599 0.18966 0.0
C134 C 0.46962 0.88123 0.18711 0.0
C135 C 0.44654 0.91176 0.17048 0.0
C136 C 0.46586 0.94655 0.15583 0.0
C137 C 0.44599 0.08398 0.09287 0.0
C138 C 0.46225 0.9946 0.99058 0.0
C139 C 0.50059 0.13849 0.95223 0.0
C140 C 0.53157 0.16936 0.94155 0.0
C141 C 0.52537 0.19078 0.90217 0.0
C142 C 0.55548 0.21979 0.89246 0.0
C143 C 0.59183 0.22799 0.92244 0.0
C144 C 0.59797 0.20622 0.9615 0.0
C145 C 0.56828 0.17698 0.97074 0.0
C146 C 0.57428 0.03554 0.99541 0.0
C147 C 0.56456 0.12512 0.10203 0.0
O148 O 0.53635 0.98053 0.09619 0.0
O149 O 0.51819 0.022 0.15246 0.0
O150 O 0.4776 0.08458 0.12309 0.0
O151 O 0.45425 0.06419 0.05462 0.0
O152 O 0.49017 0.98953 0.02419 0.0
O153 O 0.45581 0.03189 0.9818 0.0
O154 O 0.49018 0.14292 0.99495 0.0
O155 O 0.50652 0.10069 0.93857 0.0
O156 O 0.54274 0.03656 0.96571 0.0
O157 O 0.56818 0.05635 0.03405 0.0
O158 O 0.53758 0.13166 0.06777 0.0
O159 O 0.56826 0.0876 0.11065 0.0
H160 H 0.56416 0.92365 0.17665 0.0
H161 H 0.53019 0.86254 0.20223 0.0
H162 H 0.41369 0.90828 0.1681 0.0
H163 H 0.44772 0.9696 0.14236 0.0
H164 H 0.49737 0.18509 0.87904 0.0
H165 H 0.5503 0.23616 0.86199 0.0
H166 H 0.62584 0.2119 0.98487 0.0
H167 H 0.57404 0.16034 1.00081 0.0
Nd168 Nd 0.53638 0.52452 0.59623 0.0
Nd169 Nd 0.59882 0.59179 0.58862 0.0
C170 C 0.48401 0.45933 0.59003 0.0
C171 C 0.47928 0.42575 0.61923 0.0
C172 C 0.44282 0.40086 0.61438 0.0
C173 C 0.43692 0.37125 0.645 0.0
C174 C 0.46741 0.36635 0.68083 0.0
C175 C 0.50433 0.39046 0.68481 0.0
C176 C 0.51024 0.41999 0.65416 0.0
C177 C 0.59858 0.53369 0.6682 0.0
C178 C 0.52066 0.61089 0.64723 0.0
C179 C 0.6574 0.65184 0.60318 0.0
C180 C 0.69916 0.6616 0.59226 0.0
C181 C 0.71172 0.64906 0.54805 0.0
C182 C 0.75106 0.66057 0.53798 0.0
C183 C 0.77832 0.6844 0.57212 0.0
C184 C 0.76597 0.69623 0.61651 0.0
C185 C 0.72664 0.68496 0.62645 0.0
C186 C 0.53771 0.58327 0.51554 0.0
C187 C 0.60661 0.50821 0.5265 0.0
O188 O 0.47702 0.49528 0.60966 0.0
O189 O 0.51642 0.46046 0.56768 0.0
O190 O 0.56115 0.52408 0.67388 0.0
O191 O 0.60251 0.53561 0.62548 0.0
O192 O 0.50163 0.57771 0.6234 0.0
O193 O 0.55972 0.61994 0.64456 0.0
O194 O 0.65233 0.62465 0.63246 0.0
O195 O 0.62869 0.64836 0.5683 0.0
O196 O 0.57581 0.59184 0.51104 0.0
O197 O 0.53243 0.58076 0.5581 0.0
O198 O 0.62905 0.53902 0.55129 0.0
O199 O 0.56771 0.50178 0.53159 0.0
H200 H 0.4186 0.40505 0.58775 0.0
H201 H 0.40815 0.35302 0.64175 0.0
H202 H 0.528 0.38723 0.71248 0.0
H203 H 0.53856 0.43905 0.65845 0.0
H204 H 0.69105 0.63081 0.5212 0.0
H205 H 0.76017 0.65118 0.50356 0.0
H206 H 0.78667 0.7146 0.64321 0.0
H207 H 0.71749 0.69488 0.66073 0.0
Nd208 Nd 0.03159 0.5049 0.01238 0.0
Nd209 Nd 0.08629 0.50287 0.93551 0.0
C210 C 0.96765 0.50746 0.06077 0.0
C211 C 0.9477 0.53981 0.08637 0.0
C212 C 0.96338 0.58073 0.08938 0.0
C213 C 0.94488 0.61135 0.11488 0.0
C214 C 0.91055 0.6013 0.13758 0.0
C215 C 0.89467 0.56043 0.13414 0.0
C216 C 0.91319 0.52982 0.10862 0.0
C217 C 0.10594 0.54509 0.04148 0.0
C218 C 0.02975 0.58045 0.94036 0.0
C219 C 0.14884 0.4929 0.88707 0.0
C220 C 0.17202 0.45634 0.87945 0.0
C221 C 0.20583 0.45089 0.91095 0.0
C222 C 0.22431 0.41407 0.90782 0.0
C223 C 0.20956 0.3822 0.87297 0.0
C224 C 0.17666 0.38777 0.84062 0.0
C225 C 0.15812 0.42458 0.8437 0.0
C226 C 1.01009 0.46411 0.9085 0.0
C227 C 0.0934 0.42998 0.00893 0.0
O228 O 0.96534 0.50761 0.0152 0.0
O229 O 1.0039 0.50112 0.07901 0.0
O230 O 0.0834 0.52748 0.06907 0.0
O231 O 0.08667 0.54574 1.00153 0.0
O232 O 1.01223 0.56128 0.97275 0.0
O233 O 0.06217 0.56603 0.92265 0.0
O234 O 0.1524 0.5114 0.93004 0.0
O235 O 0.11138 0.48971 0.86734 0.0
O236 O 0.03014 0.48655 0.88266 0.0
O237 O 0.03134 0.46189 0.94696 0.0
O238 O 0.10831 0.44841 0.97479 0.0
O239 O 0.06053 0.44354 0.02672 0.0
H240 H 0.99005 0.58888 0.07229 0.0
H241 H 0.95738 0.64279 0.11716 0.0
H242 H 0.86815 0.5523 0.15145 0.0
H243 H 0.90076 0.49836 0.1065 0.0
H244 H 0.21733 0.47463 0.93888 0.0
H245 H 0.24985 0.41024 0.93292 0.0
H246 H 0.1651 0.36346 0.81336 0.0
H247 H 0.13221 0.42768 0.81883 0.0
C248 C 0.13591 0.0781 0.40399 0.0
C249 C 0.13663 0.0517 0.36153 0.0
C250 C 0.08695 1.00295 0.39248 0.0
C251 C 0.08552 0.02959 0.43503 0.0
N252 N 0.1027 0.09837 0.47368 0.0
N253 N 0.10436 0.99334 0.31162 0.0
C254 C 0.10796 0.06895 0.43822 0.0
C255 C 0.10974 0.01537 0.35504 0.0
N256 N 0.16368 0.11118 0.41323 0.0
N257 N 0.06606 0.96533 0.38709 0.0
H258 H 0.11925 1.00192 0.2834 0.0
H259 H 0.08223 0.96924 0.30195 0.0
H260 H 0.04484 0.95667 0.40928 0.0
H261 H 0.07076 0.94199 0.36137 0.0
H262 H 0.16907 0.12867 0.44583 0.0
H263 H 0.18365 0.11931 0.38928 0.0
H264 H 0.11394 0.12873 0.47466 0.0
H265 H 0.08435 0.0938 0.50023 0.0
C266 C 0.41521 0.91514 0.89054 0.0
C267 C 0.40487 0.8822 0.91644 0.0
C268 C 0.42284 0.92726 0.98976 0.0
C269 C 0.43895 0.958 0.96416 0.0
N270 N 0.45687 0.97811 0.88983 0.0
N271 N 0.40635 0.85496 0.99131 0.0
C272 C 0.43678 0.95127 0.91439 0.0
C273 C 0.41066 0.88772 0.96629 0.0
N274 N 0.40307 0.91276 0.84351 0.0
N275 N 0.41805 0.93616 0.03631 0.0
H276 H 0.39906 0.82512 0.97547 0.0
H277 H 0.41423 0.85678 0.02745 0.0
H278 H 0.42479 0.96539 0.05416 0.0
H279 H 0.4032 0.91587 0.05568 0.0
H280 H 0.40631 0.93754 0.82414 0.0
H281 H 0.38595 0.88753 0.82484 0.0
H282 H 0.45993 0.97207 0.8541 0.0
H283 H 0.47368 1.00463 0.90564 0.0
C284 C 0.70187 0.52654 0.73692 0.0
C285 C 0.69591 0.54759 0.78095 0.0
C286 C 0.62825 0.56322 0.74939 0.0
C287 C 0.63245 0.53866 0.70669 0.0
N288 N 0.67039 0.49013 0.66359 0.0
N289 N 0.65173 0.58129 0.83178 0.0
C290 C 0.66861 0.51865 0.70125 0.0
C291 C 0.65851 0.56435 0.78802 0.0
N292 N 0.7393 0.51404 0.72916 0.0
N293 N 0.5965 0.58731 0.75239 0.0
H294 H 0.67377 0.58463 0.86057 0.0
H295 H 0.62334 0.5893 0.8404 0.0
H296 H 0.57417 0.58848 0.72477 0.0
H297 H 0.59434 0.60925 0.78064 0.0
H298 H 0.74678 0.50279 0.69615 0.0
H299 H 0.76388 0.51776 0.7551 0.0
H300 H 0.69434 0.47162 0.66025 0.0
H301 H 0.64613 0.48171 0.63793 0.0
C302 C 0.89241 0.68252 0.23587 0.0
C303 C 0.85354 0.69367 0.21923 0.0
C304 C 0.85453 0.64782 0.14658 0.0
C305 C 0.89129 0.63362 0.1654 0.0
N306 N 0.9425 0.63265 0.23055 0.0
N307 N 0.79428 0.68198 0.16251 0.0
C308 C 0.90952 0.64964 0.21081 0.0
C309 C 0.83371 0.67511 0.17547 0.0
N310 N 0.91371 0.70445 0.27453 0.0
N311 N 0.83999 0.63591 0.10075 0.0
H312 H 0.77758 0.70109 0.18306 0.0
H313 H 0.77687 0.66586 0.13353 0.0
H314 H 0.85427 0.61568 0.0786 0.0
H315 H 0.81581 0.64873 0.08353 0.0
H316 H 0.94388 0.70054 0.28538 0.0
H317 H 0.90256 0.72927 0.29335 0.0
H318 H 0.9543 0.63993 0.26552 0.0
H319 H 0.95614 0.60875 0.21313 0.0
C320 C 0.33372 0.1198 0.09024 0.0
C321 C 0.32568 0.12207 0.1387 0.0
C322 C 0.39193 0.09085 0.15344 0.0
C323 C 0.40308 0.09491 0.10703 0.0
N324 N 0.38375 0.12012 0.03318 0.0
N325 N 0.35557 0.11782 0.21777 0.0
C326 C 0.37359 0.11127 0.07606 0.0
C327 C 0.35721 0.10978 0.1705 0.0
N328 N 0.30268 0.12366 0.05672 0.0
N329 N 0.41296 0.06667 0.18112 0.0
H330 H 0.33287 0.13372 0.23223 0.0
H331 H 0.37946 0.11318 0.24238 0.0
H332 H 0.43536 0.04885 0.16916 0.0
H333 H 0.40412 0.05974 0.21339 0.0
H334 H 0.30529 0.11841 0.02082 0.0
H335 H 0.27303 0.12722 0.06451 0.0
H336 H 0.36571 0.13623 0.01116 0.0
H337 H 0.41185 0.11472 0.02149 0.0
C338 C 0.22314 0.8232 0.73935 0.0
C339 C 0.21391 0.79125 0.76685 0.0
C340 C 0.15044 0.77132 0.71626 0.0
C341 C 0.15762 0.80614 0.69231 0.0
N342 N 0.19809 0.86824 0.68407 0.0
N343 N 0.16858 0.73601 0.78436 0.0
C344 C 0.19333 0.83283 0.70453 0.0
C345 C 0.17761 0.76533 0.75591 0.0
N346 N 0.26091 0.84363 0.74575 0.0
N347 N 0.11799 0.7439 0.70064 0.0
H348 H 0.18841 0.73026 0.81286 0.0
H349 H 0.14071 0.71895 0.78152 0.0
H350 H 0.09728 0.74797 0.6722 0.0
H351 H 0.11306 0.71586 0.71353 0.0
H352 H 0.271 0.86415 0.72341 0.0
H353 H 0.28372 0.83733 0.77088 0.0
H354 H 0.22091 0.89131 0.69574 0.0
H355 H 0.17745 0.87626 0.6576 0.0
C356 C 0.90001 0.45233 0.93171 0.0
C357 C 0.88252 0.46799 0.89095 0.0
C358 C 0.94558 0.46005 0.85422 0.0
C359 C 0.96522 0.45332 0.89835 0.0
N360 N 0.95715 0.42074 0.96814 0.0
N361 N 0.88633 0.48257 0.81113 0.0
C362 C 0.94118 0.44228 0.93385 0.0
C363 C 0.90444 0.46981 0.85113 0.0
N364 N 0.87827 0.44976 0.96946 0.0
N365 N 0.9658 0.45489 0.8151 0.0
H366 H 0.8555 0.48732 0.80683 0.0
H367 H 0.90196 0.48983 0.78302 0.0
H368 H 0.99449 0.44372 0.81619 0.0
H369 H 0.95264 0.45665 0.78114 0.0
H370 H 0.89091 0.4437 1.00229 0.0
H371 H 0.84779 0.45572 0.96857 0.0
H372 H 0.94051 0.40943 0.99354 0.0
H373 H 0.98571 0.40965 0.96727 0.0
C374 C 0.87023 0.75391 0.55341 0.0
C375 C 0.89948 0.72516 0.54618 0.0
C376 C 0.84974 0.66955 0.55781 0.0
C377 C 0.81969 0.69794 0.56131 0.0
N378 N 0.79901 0.76565 0.55285 0.0
N379 N 0.91523 0.65493 0.53223 0.0
C380 C 0.82926 0.73971 0.55622 0.0
C381 C 0.88871 0.68272 0.54571 0.0
N382 N 0.88185 0.79481 0.56011 0.0
N383 N 0.84158 0.63039 0.56775 0.0
H384 H 0.94381 0.66341 0.52245 0.0
H385 H 0.90751 0.62355 0.52648 0.0
H386 H 0.8134 0.61956 0.57673 0.0
H387 H 0.86364 0.60963 0.57094 0.0
H388 H 0.86288 0.81656 0.57216 0.0
H389 H 0.91147 0.80673 0.55804 0.0
H390 H 0.80366 0.79537 0.54421 0.0
H391 H 0.76853 0.75633 0.5544 0.0
C392 C 0.17726 0.35704 0.04608 0.0
C393 C 0.1546 0.32506 0.06424 0.0
C394 C 0.09182 0.35838 0.03965 0.0
C395 C 0.11468 0.39335 0.02736 0.0
N396 N 0.18216 0.42686 0.02678 0.0
N397 N 0.08952 0.30084 0.08592 0.0
C398 C 0.15821 0.39276 0.03258 0.0
C399 C 0.11168 0.32735 0.063 0.0
N400 N 0.21706 0.35272 0.03965 0.0
N401 N 0.051 0.35313 0.02664 0.0
H402 H 0.10242 0.27855 0.10428 0.0
H403 H 0.05912 0.30378 0.09085 0.0
H404 H 0.03563 0.37303 0.00695 0.0
H405 H 0.03338 0.32647 0.03023 0.0
H406 H 0.23404 0.37209 0.0212 0.0
H407 H 0.23184 0.32718 0.04802 0.0
H408 H 0.21346 0.4299 0.03577 0.0
H409 H 0.17105 0.45388 0.01759 0.0
C410 C 0.64808 0.33108 0.91184 0.0
C411 C 0.68832 0.31946 0.90963 0.0
C412 C 0.66259 0.24738 0.90367 0.0
C413 C 0.62385 0.25947 0.9138 0.0
N414 N 0.58118 0.31364 0.93427 0.0
N415 N 0.73482 0.26627 0.90965 0.0
C416 C 0.61685 0.30156 0.91944 0.0
C417 C 0.69587 0.27747 0.90674 0.0
N418 N 0.63936 0.37005 0.90517 0.0
N419 N 0.66742 0.20715 0.89046 0.0
H420 H 0.76019 0.28724 0.91314 0.0
H421 H 0.74211 0.23644 0.91295 0.0
H422 H 0.64354 0.18441 0.88723 0.0
H423 H 0.69394 0.197 0.87825 0.0
H424 H 0.60986 0.37908 0.90185 0.0
H425 H 0.66109 0.39218 0.89774 0.0
H426 H 0.57641 0.3441 0.94398 0.0
H427 H 0.55763 0.29319 0.94096 0.0
C428 C 0.87883 0.86778 0.46143 0.0
C429 C 0.88852 0.8573 0.41497 0.0
C430 C 0.93963 0.9156 0.42397 0.0
C431 C 0.93307 0.92351 0.47203 0.0
N432 N 0.90001 0.90369 0.53848 0.0
N433 N 0.93265 0.86642 0.35437 0.0
C434 C 0.90365 0.8986 0.49132 0.0
C435 C 0.92036 0.87973 0.39697 0.0
N436 N 0.84488 0.84951 0.47641 0.0
N437 N 0.96174 0.9437 0.40305 0.0
H438 H 0.91914 0.84029 0.3336 0.0
H439 H 0.95851 0.8791 0.34174 0.0
H440 H 0.9741 0.97167 0.42063 0.0
H441 H 0.9641 0.94133 0.36703 0.0
H442 H 0.83324 0.85963 0.50754 0.0
H443 H 0.82612 0.82637 0.45593 0.0
H444 H 0.88179 0.88415 0.55527 0.0
H445 H 0.91772 0.92549 0.56196 0.0
C446 C 0.44739 0.64529 0.73468 0.0
C447 C 0.45121 0.68836 0.73414 0.0
C448 C 0.49824 0.68047 0.67347 0.0
C449 C 0.49774 0.63797 0.67788 0.0
N450 N 0.47891 0.58188 0.72124 0.0
N451 N 0.48692 0.74765 0.7101 0.0
C452 C 0.47438 0.62093 0.711 0.0
C453 C 0.47856 0.7062 0.70554 0.0
N454 N 0.41668 0.62721 0.75572 0.0
N455 N 0.51575 0.6961 0.63737 0.0
H456 H 0.47401 0.76748 0.73406 0.0
H457 H 0.50969 0.76195 0.69358 0.0
H458 H 0.52935 0.67821 0.61221 0.0
H459 H 0.51319 0.72602 0.62965 0.0
H460 H 0.41006 0.59566 0.75273 0.0
H461 H 0.39504 0.64355 0.77186 0.0
H462 H 0.46578 0.56959 0.74868 0.0
H463 H 0.49913 0.56319 0.70579 0.0
C464 C 0.91532 0.89164 0.71627 0.0
C465 C 0.91285 0.91802 0.75845 0.0
C466 C 0.95413 0.97206 0.72366 0.0
C467 C 0.95589 0.94602 0.68073 0.0
N468 N 0.94285 0.87707 0.6414 0.0
N469 N 0.92808 0.98522 0.80009 0.0
C470 C 0.93795 0.90474 0.67883 0.0
C471 C 0.93175 0.95869 0.7612 0.0
N472 N 0.89311 0.85463 0.71007 0.0
N473 N 0.97688 0.00875 0.73057 0.0
H474 H 0.91646 0.97603 0.83008 0.0
H475 H 0.93471 0.01667 0.80215 0.0
H476 H 0.99467 0.01931 0.70581 0.0
H477 H 0.98159 0.02733 0.76242 0.0
H478 H 0.88812 0.83599 0.67824 0.0
H479 H 0.87647 0.8438 0.73579 0.0
H480 H 0.93738 0.84563 0.64136 0.0
H481 H 0.95453 0.88472 0.61099 0.0
C482 C 0.65243 0.18083 0.18352 0.0
C483 C 0.63607 0.21802 0.19875 0.0
C484 C 0.57202 0.19457 0.15052 0.0
C485 C 0.5897 0.1591 0.132 0.0
N486 N 0.65106 0.12534 0.12138 0.0
N487 N 0.58453 0.26486 0.18518 0.0
C488 C 0.63129 0.15442 0.14547 0.0
C489 C 0.59719 0.22635 0.17859 0.0
N490 N 0.68677 0.16921 0.2069 0.0
N491 N 0.531 0.19717 0.14425 0.0
H492 H 0.60275 0.28944 0.20371 0.0
H493 H 0.55798 0.27326 0.16767 0.0
H494 H 0.51072 0.17384 0.12664 0.0
H495 H 0.51664 0.22076 0.16118 0.0
H496 H 0.69733 0.14041 0.19984 0.0
H497 H 0.70224 0.18621 0.23661 0.0
H498 H 0.68232 0.12336 0.12706 0.0
H499 H 0.6372 0.10629 0.09226 0.0
C500 C 0.44673 0.5759 0.42233 0.0
C501 C 0.44979 0.61612 0.40893 0.0
C502 C 0.50514 0.63607 0.47158 0.0
C503 C 0.50544 0.59477 0.4812 0.0
N504 N 0.47779 0.52471 0.46555 0.0
N505 N 0.48498 0.68333 0.41641 0.0
C506 C 0.47639 0.56449 0.45671 0.0
C507 C 0.47968 0.64598 0.43255 0.0
N508 N 0.41472 0.5491 0.40323 0.0
N509 N 0.52815 0.6661 0.50081 0.0
H510 H 0.46701 0.69191 0.38791 0.0
H511 H 0.50934 0.70458 0.42866 0.0
H512 H 0.54665 0.6602 0.5303 0.0
H513 H 0.52589 0.69717 0.49868 0.0
H514 H 0.4082 0.52077 0.41482 0.0
H515 H 0.39258 0.55646 0.37795 0.0
H516 H 0.46088 0.5003 0.44517 0.0
H517 H 0.49761 0.51575 0.49216 0.0
C518 C 0.24596 0.28159 0.90695 0.0
C519 C 0.27276 0.27296 0.87238 0.0
C520 C 0.25612 0.33442 0.83611 0.0
C521 C 0.22897 0.34297 0.87042 0.0
N522 N 0.19067 0.32048 0.93141 0.0
N523 N 0.29639 0.28482 0.79792 0.0
C524 C 0.22154 0.31514 0.90367 0.0
C525 C 0.2754 0.29731 0.83482 0.0
N526 N 0.24494 0.25856 0.94368 0.0
N527 N 0.26506 0.3627 0.80631 0.0
H528 H 0.31128 0.25797 0.79613 0.0
H529 H 0.29617 0.29904 0.76727 0.0
H530 H 0.25135 0.39016 0.80587 0.0
H531 H 0.2882 0.36044 0.78438 0.0
H532 H 0.22972 0.26614 0.97303 0.0
H533 H 0.26124 0.23278 0.94586 0.0
H534 H 0.18101 0.29907 0.95295 0.0
H535 H 0.1724 0.3449 0.93002 0.0
C536 C 0.65157 0.9712 0.93018 0.0
C537 C 0.68753 0.99836 0.93414 0.0
C538 C 0.65022 0.04986 0.98042 0.0
C539 C 0.6151 0.02198 0.97886 0.0
N540 N 0.58633 0.95273 0.95849 0.0
N541 N 0.72287 0.06019 0.97454 0.0
C542 C 0.6172 0.98167 0.95562 0.0
C543 C 0.68719 0.03657 0.96283 0.0
N544 N 0.64906 0.93613 0.89998 0.0
N545 N 0.6478 0.0901 0.99579 0.0
H546 H 0.75042 0.05121 0.96394 0.0
H547 H 0.7259 0.08618 0.9989 0.0
H548 H 0.62155 0.10143 0.00738 0.0
H549 H 0.67044 0.11288 0.99274 0.0
H550 H 0.62234 0.9174 0.89066 0.0
H551 H 0.67304 0.92724 0.88141 0.0
H552 H 0.58736 0.92186 0.94701 0.0
H553 H 0.56118 0.95895 0.97643 0.0
C554 C 0.84109 0.20573 0.36231 0.0
C555 C 0.81813 0.23565 0.38425 0.0
C556 C 0.84528 0.21887 0.46165 0.0
C557 C 0.87123 0.19203 0.43977 0.0
N558 N 0.89974 0.16615 0.36956 0.0
N559 N 0.80581 0.27728 0.45495 0.0
C560 C 0.87092 0.18734 0.39012 0.0
C561 C 0.82229 0.24409 0.43401 0.0
N562 N 0.83307 0.19324 0.3153 0.0
N563 N 0.84134 0.21925 0.50856 0.0
H564 H 0.79004 0.29751 0.43603 0.0
H565 H 0.81147 0.28719 0.49073 0.0
H566 H 0.85712 0.20085 0.53005 0.0
H567 H 0.81956 0.23495 0.5252 0.0
H568 H 0.84596 0.16854 0.29852 0.0
H569 H 0.8105 0.20473 0.29386 0.0
H570 H 0.90357 0.16533 0.33395 0.0
H571 H 0.92233 0.15263 0.38882 0.0
C572 C 0.21332 0.56478 0.10383 0.0
C573 C 0.21991 0.60757 0.10382 0.0
C574 C 0.15652 0.60764 0.05233 0.0
C575 C 0.14682 0.5659 0.05841 0.0
N576 N 0.16518 0.50574 0.09486 0.0
N577 N 0.19458 0.67122 0.08473 0.0
C578 C 0.17496 0.54482 0.08563 0.0
C579 C 0.19087 0.62941 0.07949 0.0
N580 N 0.24432 0.54278 0.11939 0.0
N581 N 0.13308 0.62703 0.02137 0.0
H582 H 0.21848 0.68854 0.10543 0.0
H583 H 0.17187 0.68887 0.0725 0.0
H584 H 0.10684 0.61359 1.00174 0.0
H585 H 0.14174 0.65573 0.0119 0.0
H586 H 0.24267 0.51094 0.1153 0.0
H587 H 0.27323 0.55614 0.13192 0.0
H588 H 0.18201 0.49145 0.11992 0.0
H589 H 0.1394 0.48792 0.07928 0.0
C590 C 0.47016 0.27535 0.75255 0.0
C591 C 0.44216 0.28617 0.78508 0.0
C592 C 0.43413 0.35098 0.75215 0.0
C593 C 0.45923 0.33863 0.71687 0.0
N594 N 0.49753 0.28743 0.6794 0.0
N595 N 0.39182 0.33052 0.81099 0.0
C596 C 0.47637 0.30034 0.71595 0.0
C597 C 0.42261 0.323 0.78362 0.0
N598 N 0.49155 0.24187 0.7575 0.0
N599 N 0.42228 0.38997 0.75653 0.0
H600 H 0.38239 0.31098 0.83478 0.0
H601 H 0.37315 0.35431 0.80722 0.0
H602 H 0.43 0.41152 0.73415 0.0
H603 H 0.40784 0.40215 0.7848 0.0
H604 H 0.51547 0.23462 0.73805 0.0
H605 H 0.48739 0.2229 0.78377 0.0
H606 H 0.5072 0.25813 0.67398 0.0
H607 H 0.50291 0.30514 0.65231 0.0
C608 C 0.97308 0.6541 0.86296 0.0
C609 C 0.98209 0.69327 0.88985 0.0
C610 C 1.01675 0.65715 0.95281 0.0
C611 C 1.01241 0.61918 0.92339 0.0
N612 N 0.98885 0.58314 0.8475 0.0
N613 N 1.02087 0.73134 0.95783 0.0
C614 C 0.99151 0.61837 0.87752 0.0
C615 C 1.00595 0.69445 0.93426 0.0
N616 N 0.94478 0.65023 0.82472 0.0
N617 N 0.03108 0.65786 0.99901 0.0
H618 H 1.01604 0.75913 0.94497 0.0
H619 H 0.04185 0.73425 0.98753 0.0
H620 H 0.03974 0.63186 0.01374 0.0
H621 H 0.03076 0.68336 0.02358 0.0
H622 H 0.93359 0.62219 0.80641 0.0
H623 H 0.92897 0.67451 0.81437 0.0
H624 H 0.97864 0.58155 0.81194 0.0
H625 H 0.99944 0.55599 0.85744 0.0
C626 C 0.42877 0.77021 0.18034 0.0
C627 C 0.41259 0.76979 0.22424 0.0
C628 C 0.43709 0.8418 0.24559 0.0
C629 C 0.44945 0.84312 0.19989 0.0
N630 N 0.45199 0.81078 0.12115 0.0
N631 N 0.39582 0.80632 0.29615 0.0
C632 C 0.44383 0.80792 0.16647 0.0
C633 C 0.41544 0.80584 0.25641 0.0
N634 N 0.4312 0.73428 0.15272 0.0
N635 N 0.44664 0.87468 0.27884 0.0
H636 H 0.37943 0.78073 0.30523 0.0
H637 H 0.39296 0.83284 0.31821 0.0
H638 H 0.46156 0.9019 0.27178 0.0
H639 H 0.44256 0.87398 0.3142 0.0
H640 H 0.44649 0.73216 0.12269 0.0
H641 H 0.42133 0.70588 0.16219 0.0
H642 H 0.44411 0.78736 0.09394 0.0
H643 H 0.46363 0.83778 0.10976 0.0
C644 C 0.15811 0.10808 0.65895 0.0
C645 C 0.14885 0.11514 0.70613 0.0
C646 C 0.09882 0.05573 0.69265 0.0
C647 C 0.10459 0.05166 0.64414 0.0
N648 N 0.13628 0.07737 0.57972 0.0
N649 N 0.10575 0.1001 0.76607 0.0
C650 C 0.13327 0.07883 0.62691 0.0
C651 C 0.11779 0.09026 0.72245 0.0
N652 N 0.1919 0.12776 0.64524 0.0
N653 N 0.0776 0.02532 0.71105 0.0
H654 H 0.11885 0.12526 0.78884 0.0
H655 H 0.08036 0.08561 0.77784 0.0
H656 H 0.06524 0.99837 0.69109 0.0
H657 H 0.07595 0.02482 0.74697 0.0
H658 H 0.20283 0.12033 0.61292 0.0
H659 H 0.21141 0.1489 0.6677 0.0
H660 H 0.15309 0.09945 0.5647 0.0
H661 H 0.11935 0.05599 0.55498 0.0
C662 C 0.62369 0.4066 0.46117 0.0
C663 C 0.64377 0.41884 0.42286 0.0
C664 C 0.64328 0.49089 0.45468 0.0
C665 C 0.62459 0.47838 0.49379 0.0
N666 N 0.60794 0.42443 0.54082 0.0
N667 N 0.68144 0.47148 0.38906 0.0
C668 C 0.6184 0.43622 0.49911 0.0
C669 C 0.65634 0.46069 0.42151 0.0
N670 N 0.60716 0.36734 0.46011 0.0
N671 N 0.64662 0.53125 0.44768 0.0
H672 H 0.69201 0.45006 0.36475 0.0
H673 H 0.69489 0.50097 0.38921 0.0
H674 H 0.63769 0.55436 0.47109 0.0
H675 H 0.65549 0.54157 0.41692 0.0
H676 H 0.58821 0.35817 0.48459 0.0
H677 H 0.60893 0.34468 0.43247 0.0
H678 H 0.60698 0.3942 0.54834 0.0
H679 H 0.60437 0.44529 0.5697 0.0
loop_
_geom_bond_atom_site_label_1
_geom_bond_atom_site_label_2
_geom_bond_distance
_geom_bond_site_symmetry_2
_ccdc_geom_bond_type
O0 Cd1 2.300 . S
O0 C7 1.275 . S
Cd1 O0 2.300 . S
Cd1 O9 2.381 . S
Cd1 O10 2.378 . S
O2 Cd3 2.385 . S
O2 C7 1.255 . S
Cd3 O2 2.385 . S
Cd3 O4 2.317 . S
O4 Cd3 2.317 . S
O4 C5 1.232 . S
C5 O4 1.232 . S
C5 O6 1.218 . S
O6 C5 1.218 . S
C7 O0 1.275 . S
C7 O2 1.255 . S
C8 O9 1.258 . S
C8 O10 1.256 . S
O9 Cd1 2.381 . S
O9 C8 1.258 . S
O10 Cd1 2.378 . S
O10 C8 1.256 . S
O11 Cd12 2.300 . S
O11 C18 1.275 . S
Cd12 O11 2.300 . S
Cd12 O20 2.381 . S
Cd12 O21 2.378 . S
O13 Cd14 2.385 . S
O13 C18 1.255 . S
Cd14 O13 2.385 . S
Cd14 O15 2.317 . S
O15 Cd14 2.317 . S
O15 C16 1.232 . S
C16 O15 1.232 . S
C16 O17 1.218 . S
O17 C16 1.218 . S
C18 O11 1.275 . S
C18 O13 1.255 . S
C19 O20 1.258 . S
C19 O21 1.256 . S
O20 Cd12 2.381 . S
O20 C19 1.258 . S
O21 Cd12 2.378 . S
O21 C19 1.256 . S
O22 Cd23 2.300 . S
O22 C29 1.275 . S
Cd23 O22 2.300 . S
Cd23 O31 2.381 . S
Cd23 O32 2.378 . S
O24 Cd25 2.385 . S
O24 C29 1.255 . S
Cd25 O24 2.385 . S
Cd25 O26 2.317 . S
O26 Cd25 2.317 . S
O26 C27 1.232 . S
C27 O26 1.232 . S
C27 O28 1.218 . S
O28 C27 1.218 . S
C29 O22 1.275 . S
C29 O24 1.255 . S
C30 O31 1.258 . S
C30 O32 1.256 . S
O31 Cd23 2.381 . S
O31 C30 1.258 . S
O32 Cd23 2.378 . S
O32 C30 1.256 . S
O33 Cd34 2.300 . S
O33 C40 1.275 . S
Cd34 O33 2.300 . S
Cd34 O42 2.381 . S
Cd34 O43 2.378 . S
O35 Cd36 2.385 . S
O35 C40 1.255 . S
Cd36 O35 2.385 . S
Cd36 O37 2.317 . S
O37 Cd36 2.317 . S
O37 C38 1.232 . S
C38 O37 1.232 . S
C38 O39 1.218 . S
O39 C38 1.218 . S
C40 O33 1.275 . S
C40 O35 1.255 . S
C41 O42 1.258 . S
C41 O43 1.256 . S
O42 Cd34 2.381 . S
O42 C41 1.258 . S
O43 Cd34 2.378 . S
O43 C41 1.256 . S
O44 Cd45 2.300 . S
O44 C51 1.275 . S
Cd45 O44 2.300 . S
Cd45 O53 2.381 . S
Cd45 O54 2.378 . S
O46 Cd47 2.385 . S
O46 C51 1.255 . S
Cd47 O46 2.385 . S
Cd47 O48 2.317 . S
O48 Cd47 2.317 . S
O48 C49 1.232 . S
C49 O48 1.232 . S
C49 O50 1.218 . S
O50 C49 1.218 . S
C51 O44 1.275 . S
C51 O46 1.255 . S
C52 O53 1.258 . S
C52 O54 1.256 . S
O53 Cd45 2.381 . S
O53 C52 1.258 . S
O54 Cd45 2.378 . S
O54 C52 1.256 . S
O55 Cd56 2.300 . S
O55 C62 1.275 . S
Cd56 O55 2.300 . S
Cd56 O64 2.381 . S
Cd56 O65 2.378 . S
O57 Cd58 2.385 . S
O57 C62 1.255 . S
Cd58 O57 2.385 . S
Cd58 O59 2.317 . S
O59 Cd58 2.317 . S
O59 C60 1.232 . S
C60 O59 1.232 . S
C60 O61 1.218 . S
O61 C60 1.218 . S
C62 O55 1.275 . S
C62 O57 1.255 . S
C63 O64 1.258 . S
C63 O65 1.256 . S
O64 Cd56 2.381 . S
O64 C63 1.258 . S
O65 Cd56 2.378 . S
O65 C63 1.256 . S
O66 Cd67 2.300 . S
O66 C73 1.275 . S
Cd67 O66 2.300 . S
Cd67 O75 2.381 . S
Cd67 O76 2.378 . S
O68 Cd69 2.385 . S
O68 C73 1.255 . S
Cd69 O68 2.385 . S
Cd69 O70 2.317 . S
O70 Cd69 2.317 . S
O70 C71 1.232 . S
C71 O70 1.232 . S
C71 O72 1.218 . S
O72 C71 1.218 . S
C73 O66 1.275 . S
C73 O68 1.255 . S
C74 O75 1.258 . S
C74 O76 1.256 . S
O75 Cd67 2.381 . S
O75 C74 1.258 . S
O76 Cd67 2.378 . S
O76 C74 1.256 . S
O77 Cd78 2.300 . S
O77 C84 1.275 . S
Cd78 O77 2.300 . S
Cd78 O86 2.381 . S
Cd78 O87 2.378 . S
O79 Cd80 2.385 . S
O79 C84 1.255 . S
Cd80 O79 2.385 . S
Cd80 O81 2.317 . S
O81 Cd80 2.317 . S
O81 C82 1.232 . S
C82 O81 1.232 . S
C82 O83 1.218 . S
O83 C82 1.218 . S
C84 O77 1.275 . S
C84 O79 1.255 . S
C85 O86 1.258 . S
C85 O87 1.256 . S
O86 Cd78 2.381 . S
O86 C85 1.258 . S
O87 Cd78 2.378 . S
O87 C85 1.256 . S
Nd88 C90 2.836 . S
Nd88 O108 2.500 . S
Nd88 O109 2.492 . S
Nd88 O110 2.487 1_565 S
Nd88 O111 2.682 1_565 S
Nd88 O112 2.410 . S
Nd88 O117 2.414 1_455 S
Nd88 O119 2.424 1_565 S
Nd89 C99 2.836 . S
Nd89 O111 2.414 1_655 S
Nd89 O113 2.424 1_545 S
Nd89 O114 2.500 . S
Nd89 O115 2.492 . S
Nd89 O116 2.487 1_545 S
Nd89 O117 2.682 1_545 S
Nd89 O118 2.410 . S
C90 Nd88 2.836 . S
C90 C91 1.498 . S
C90 O108 1.258 . S
C90 O109 1.239 . S
C91 C90 1.498 . S
C91 C92 1.366 . S
C91 C96 1.407 . S
C92 C91 1.366 . S
C92 C93 1.392 . S
C92 H120 0.930 . S
C93 C92 1.392 . S
C93 C94 1.398 . S
C93 H121 0.929 . S
C94 C93 1.398 . S
C94 C95 1.352 . S
C95 C94 1.352 . S
C95 C96 1.384 . S
C95 H122 0.930 . S
C96 C91 1.407 . S
C96 C95 1.384 . S
C96 H123 0.929 . S
C97 O110 1.241 . S
C97 O111 1.273 . S
C98 O112 1.251 1_655 S
C98 O113 1.268 . S
C99 Nd89 2.836 . S
C99 C100 1.498 . S
C99 O114 1.258 . S
C99 O115 1.239 . S
C100 C99 1.498 . S
C100 C101 1.366 . S
C100 C105 1.407 . S
C101 C100 1.366 . S
C101 C102 1.392 . S
C101 H124 0.930 . S
C102 C101 1.392 . S
C102 C103 1.398 . S
C102 H125 0.929 . S
C103 C102 1.398 . S
C103 C104 1.352 . S
C104 C103 1.352 . S
C104 C105 1.384 . S
C104 H126 0.930 . S
C105 C100 1.407 . S
C105 C104 1.384 . S
C105 H127 0.929 . S
C106 O116 1.241 . S
C106 O117 1.273 . S
C107 O118 1.251 1_455 S
C107 O119 1.268 . S
O108 Nd88 2.500 . S
O108 C90 1.258 . S
O109 Nd88 2.492 . S
O109 C90 1.239 . S
O110 Nd88 2.487 1_545 S
O110 C97 1.241 . S
O111 Nd88 2.682 1_545 S
O111 Nd89 2.414 1_455 S
O111 C97 1.273 . S
O112 Nd88 2.410 . S
O112 C98 1.251 1_455 S
O113 Nd89 2.424 1_565 S
O113 C98 1.268 . S
O114 Nd89 2.500 . S
O114 C99 1.258 . S
O115 Nd89 2.492 . S
O115 C99 1.239 . S
O116 Nd89 2.487 1_565 S
O116 C106 1.241 . S
O117 Nd88 2.414 1_655 S
O117 Nd89 2.682 1_565 S
O117 C106 1.273 . S
O118 Nd89 2.410 . S
O118 C107 1.251 1_655 S
O119 Nd88 2.424 1_545 S
O119 C107 1.268 . S
H120 C92 0.930 . S
H121 C93 0.929 . S
H122 C95 0.930 . S
H123 C96 0.929 . S
H124 C101 0.930 . S
H125 C102 0.929 . S
H126 C104 0.930 . S
H127 C105 0.929 . S
Nd128 C130 2.836 . S
Nd128 O148 2.500 . S
Nd128 O149 2.492 . S
Nd128 O150 2.487 1_565 S
Nd128 O151 2.682 1_565 S
Nd128 O152 2.410 . S
Nd128 O157 2.414 . S
Nd128 O159 2.424 1_565 S
Nd129 C139 2.836 1_554 S
Nd129 O151 2.414 . S
Nd129 O153 2.424 1_544 S
Nd129 O154 2.500 . S
Nd129 O155 2.492 1_554 S
Nd129 O156 2.488 . S
Nd129 O157 2.682 1_545 S
Nd129 O158 2.410 . S
C130 Nd128 2.836 . S
C130 C131 1.498 . S
C130 O148 1.258 . S
C130 O149 1.239 . S
C131 C130 1.498 . S
C131 C132 1.366 . S
C131 C136 1.407 . S
C132 C131 1.366 . S
C132 C133 1.392 . S
C132 H160 0.930 . S
C133 C132 1.392 . S
C133 C134 1.398 . S
C133 H161 0.929 . S
C134 C133 1.398 . S
C134 C135 1.352 . S
C135 C134 1.352 . S
C135 C136 1.384 . S
C135 H162 0.930 . S
C136 C131 1.407 . S
C136 C135 1.384 . S
C136 H163 0.929 . S
C137 O150 1.241 . S
C137 O151 1.273 . S
C138 O152 1.251 . S
C138 O153 1.268 1_554 S
C139 Nd129 2.836 1_556 S
C139 C140 1.498 . S
C139 O154 1.258 1_556 S
C139 O155 1.239 . S
C140 C139 1.498 . S
C140 C141 1.366 1_556 S
C140 C145 1.407 . S
C141 C140 1.366 1_554 S
C141 C142 1.392 1_554 S
C141 H164 0.930 . S
C142 C141 1.392 1_556 S
C142 C143 1.398 . S
C142 H165 0.929 1_556 S
C143 C142 1.398 . S
C143 C144 1.352 . S
C144 C143 1.352 . S
C144 C145 1.384 . S
C144 H166 0.930 . S
C145 C140 1.407 . S
C145 C144 1.384 . S
C145 H167 0.929 . S
C146 O156 1.252 1_565 S
C146 O157 1.273 . S
C147 O158 1.251 . S
C147 O159 1.268 . S
O148 Nd128 2.500 . S
O148 C130 1.258 . S
O149 Nd128 2.492 . S
O149 C130 1.239 . S
O150 Nd128 2.487 1_545 S
O150 C137 1.241 . S
O151 Nd128 2.682 1_545 S
O151 Nd129 2.414 . S
O151 C137 1.273 . S
O152 Nd128 2.410 . S
O152 C138 1.251 . S
O153 Nd129 2.424 1_566 S
O153 C138 1.268 1_556 S
O154 Nd129 2.500 . S
O154 C139 1.258 1_554 S
O155 Nd129 2.492 1_556 S
O155 C139 1.239 . S
O156 Nd129 2.488 . S
O156 C146 1.252 1_545 S
O157 Nd128 2.414 . S
O157 Nd129 2.682 1_565 S
O157 C146 1.273 . S
O158 Nd129 2.410 . S
O158 C147 1.251 . S
O159 Nd128 2.424 1_545 S
O159 C147 1.268 . S
H160 C132 0.930 . S
H161 C133 0.929 . S
H162 C135 0.930 . S
H163 C136 0.929 . S
H164 C141 0.930 . S
H165 C142 0.929 1_554 S
H166 C144 0.930 . S
H167 C145 0.929 . S
Nd168 C170 2.836 . S
Nd168 O188 2.500 . S
Nd168 O189 2.492 . S
Nd168 O190 2.487 . S
Nd168 O191 2.682 . S
Nd168 O192 2.410 . S
Nd168 O197 2.414 . S
Nd168 O199 2.424 . S
Nd169 C179 2.836 . S
Nd169 O191 2.414 . S
Nd169 O193 2.424 . S
Nd169 O194 2.500 . S
Nd169 O195 2.492 . S
Nd169 O196 2.487 . S
Nd169 O197 2.682 . S
Nd169 O198 2.410 . S
C170 Nd168 2.836 . S
C170 C171 1.498 . S
C170 O188 1.258 . S
C170 O189 1.239 . S
C171 C170 1.498 . S
C171 C172 1.366 . S
C171 C176 1.407 . S
C172 C171 1.366 . S
C172 C173 1.392 . S
C172 H200 0.930 . S
C173 C172 1.392 . S
C173 C174 1.398 . S
C173 H201 0.929 . S
C174 C173 1.398 . S
C174 C175 1.352 . S
C175 C174 1.352 . S
C175 C176 1.384 . S
C175 H202 0.930 . S
C176 C171 1.407 . S
C176 C175 1.384 . S
C176 H203 0.929 . S
C177 O190 1.241 . S
C177 O191 1.273 . S
C178 O192 1.251 . S
C178 O193 1.268 . S
C179 Nd169 2.836 . S
C179 C180 1.498 . S
C179 O194 1.258 . S
C179 O195 1.239 . S
C180 C179 1.498 . S
C180 C181 1.366 . S
C180 C185 1.407 . S
C181 C180 1.366 . S
C181 C182 1.392 . S
C181 H204 0.930 . S
C182 C181 1.392 . S
C182 C183 1.398 . S
C182 H205 0.929 . S
C183 C182 1.398 . S
C183 C184 1.352 . S
C184 C183 1.352 . S
C184 C185 1.384 . S
C184 H206 0.930 . S
C185 C180 1.407 . S
C185 C184 1.384 . S
C185 H207 0.929 . S
C186 O196 1.241 . S
C186 O197 1.273 . S
C187 O198 1.251 . S
C187 O199 1.268 . S
O188 Nd168 2.500 . S
O188 C170 1.258 . S
O189 Nd168 2.492 . S
O189 C170 1.239 . S
O190 Nd168 2.487 . S
O190 C177 1.241 . S
O191 Nd168 2.682 . S
O191 Nd169 2.414 . S
O191 C177 1.273 . S
O192 Nd168 2.410 . S
O192 C178 1.251 . S
O193 Nd169 2.424 . S
O193 C178 1.268 . S
O194 Nd169 2.500 . S
O194 C179 1.258 . S
O195 Nd169 2.492 . S
O195 C179 1.239 . S
O196 Nd169 2.487 . S
O196 C186 1.241 . S
O197 Nd168 2.414 . S
O197 Nd169 2.682 . S
O197 C186 1.273 . S
O198 Nd169 2.410 . S
O198 C187 1.251 . S
O199 Nd168 2.424 . S
O199 C187 1.268 . S
H200 C172 0.930 . S
H201 C173 0.929 . S
H202 C175 0.930 . S
H203 C176 0.929 . S
H204 C181 0.930 . S
H205 C182 0.929 . S
H206 C184 0.930 . S
H207 C185 0.929 . S
Nd208 C210 2.836 1_455 S
Nd208 O228 2.500 1_455 S
Nd208 O229 2.492 . S
Nd208 O230 2.487 . S
Nd208 O231 2.682 . S
Nd208 O232 2.410 . S
Nd208 O237 2.414 1_454 S
Nd208 O239 2.424 . S
Nd209 C219 2.836 . S
Nd209 O231 2.414 1_556 S
Nd209 O233 2.424 . S
Nd209 O234 2.500 . S
Nd209 O235 2.492 . S
Nd209 O236 2.487 1_455 S
Nd209 O237 2.682 1_455 S
Nd209 O238 2.410 . S
C210 Nd208 2.836 1_655 S
C210 C211 1.498 . S
C210 O228 1.258 . S
C210 O229 1.239 1_655 S
C211 C210 1.498 . S
C211 C212 1.366 . S
C211 C216 1.407 . S
C212 C211 1.366 . S
C212 C213 1.392 . S
C212 H240 0.930 . S
C213 C212 1.392 . S
C213 C214 1.398 . S
C213 H241 0.929 . S
C214 C213 1.398 . S
C214 C215 1.352 . S
C215 C214 1.352 . S
C215 C216 1.384 . S
C215 H242 0.930 . S
C216 C211 1.407 . S
C216 C215 1.384 . S
C216 H243 0.929 1_655 S
C217 O230 1.241 . S
C217 O231 1.273 . S
C218 O232 1.251 1_556 S
C218 O233 1.268 . S
C219 Nd209 2.836 . S
C219 C220 1.498 . S
C219 O234 1.258 . S
C219 O235 1.239 . S
C220 C219 1.498 . S
C220 C221 1.366 . S
C220 C225 1.407 . S
C221 C220 1.366 . S
C221 C222 1.392 . S
C221 H244 0.930 . S
C222 C221 1.392 . S
C222 C223 1.398 . S
C222 H245 0.929 . S
C223 C222 1.398 . S
C223 C224 1.352 . S
C224 C223 1.352 . S
C224 C225 1.384 . S
C224 H246 0.930 . S
C225 C220 1.407 . S
C225 C224 1.384 . S
C225 H247 0.929 . S
C226 O236 1.241 . S
C226 O237 1.273 . S
C227 O238 1.251 1_554 S
C227 O239 1.268 . S
O228 Nd208 2.500 1_655 S
O228 C210 1.258 . S
O229 Nd208 2.492 . S
O229 C210 1.239 1_455 S
O230 Nd208 2.487 . S
O230 C217 1.241 . S
O231 Nd208 2.682 . S
O231 Nd209 2.414 1_554 S
O231 C217 1.273 . S
O232 Nd208 2.410 . S
O232 C218 1.251 1_554 S
O233 Nd209 2.424 . S
O233 C218 1.268 . S
O234 Nd209 2.500 . S
O234 C219 1.258 . S
O235 Nd209 2.492 . S
O235 C219 1.239 . S
O236 Nd209 2.487 1_655 S
O236 C226 1.241 . S
O237 Nd208 2.414 1_656 S
O237 Nd209 2.682 1_655 S
O237 C226 1.273 . S
O238 Nd209 2.410 . S
O238 C227 1.251 1_556 S
O239 Nd208 2.424 . S
O239 C227 1.268 . S
H240 C212 0.930 . S
H241 C213 0.929 . S
H242 C215 0.930 . S
H243 C216 0.929 1_455 S
H244 C221 0.930 . S
H245 C222 0.929 . S
H246 C224 0.930 . S
H247 C225 0.929 . S
C248 C249 1.363 . S
C248 C254 1.379 . S
C248 N256 1.356 . S
C249 C248 1.363 . S
C249 C255 1.363 . S
C250 C251 1.363 . S
C250 C255 1.379 . S
C250 N257 1.356 . S
C251 C250 1.363 . S
C251 C254 1.363 . S
N252 C254 1.356 . S
N252 H264 0.984 . S
N252 H265 0.985 . S
N253 C255 1.356 . S
N253 H258 0.984 . S
N253 H259 0.985 1_545 S
C254 C248 1.379 . S
C254 C251 1.363 . S
C254 N252 1.356 . S
C255 C249 1.363 . S
C255 C250 1.379 . S
C255 N253 1.356 . S
N256 C248 1.356 . S
N256 H262 0.984 . S
N256 H263 0.984 . S
N257 C250 1.356 . S
N257 H260 0.984 . S
N257 H261 0.985 1_545 S
H258 N253 0.984 . S
H259 N253 0.985 1_565 S
H260 N257 0.984 . S
H261 N257 0.985 1_565 S
H262 N256 0.984 . S
H263 N256 0.984 . S
H264 N252 0.984 . S
H265 N252 0.985 . S
C266 C267 1.363 . S
C266 C272 1.379 . S
C266 N274 1.356 . S
C267 C266 1.363 . S
C267 C273 1.363 . S
C268 C269 1.377 . S
C268 C273 1.382 . S
C268 N275 1.342 1_556 S
C269 C268 1.377 . S
C269 C272 1.363 . S
N270 C272 1.356 . S
N270 H282 0.984 . S
N270 H283 0.985 . S
N271 C273 1.361 . S
N271 H276 0.989 . S
N271 H277 0.976 1_556 S
C272 C266 1.379 . S
C272 C269 1.363 . S
C272 N270 1.356 . S
C273 C267 1.363 . S
C273 C268 1.382 . S
C273 N271 1.361 . S
N274 C266 1.356 . S
N274 H280 0.984 . S
N274 H281 0.984 . S
N275 C268 1.342 1_554 S
N275 H278 0.984 . S
N275 H279 0.985 . S
H276 N271 0.989 . S
H277 N271 0.976 1_554 S
H278 N275 0.984 . S
H279 N275 0.985 . S
H280 N274 0.984 . S
H281 N274 0.984 . S
H282 N270 0.984 . S
H283 N270 0.985 . S
C284 C285 1.363 . S
C284 C290 1.379 . S
C284 N292 1.356 . S
C285 C284 1.363 . S
C285 C291 1.363 . S
C286 C287 1.363 . S
C286 C291 1.379 . S
C286 N293 1.356 . S
C287 C286 1.363 . S
C287 C290 1.363 . S
N288 C290 1.356 . S
N288 H300 0.984 . S
N288 H301 0.985 . S
N289 C291 1.356 . S
N289 H294 0.984 . S
N289 H295 0.985 . S
C290 C284 1.379 . S
C290 C287 1.363 . S
C290 N288 1.356 . S
C291 C285 1.363 . S
C291 C286 1.379 . S
C291 N289 1.356 . S
N292 C284 1.356 . S
N292 H298 0.984 . S
N292 H299 0.984 . S
N293 C286 1.356 . S
N293 H296 0.984 . S
N293 H297 0.985 . S
H294 N289 0.984 . S
H295 N289 0.985 . S
H296 N293 0.984 . S
H297 N293 0.985 . S
H298 N292 0.984 . S
H299 N292 0.984 . S
H300 N288 0.984 . S
H301 N288 0.985 . S
C302 C303 1.363 . S
C302 C308 1.379 . S
C302 N310 1.356 1_655 S
C303 C302 1.363 . S
C303 C309 1.363 . S
C304 C305 1.363 . S
C304 C309 1.379 . S
C304 N311 1.356 . S
C305 C304 1.363 . S
C305 C308 1.363 . S
N306 C308 1.356 . S
N306 H318 0.984 1_655 S
N306 H319 0.985 . S
N307 C309 1.356 . S
N307 H312 0.984 . S
N307 H313 0.985 . S
C308 C302 1.379 . S
C308 C305 1.363 . S
C308 N306 1.356 . S
C309 C303 1.363 . S
C309 C304 1.379 . S
C309 N307 1.356 . S
N310 C302 1.356 1_455 S
N310 H316 0.984 . S
N310 H317 0.984 . S
N311 C304 1.356 . S
N311 H314 0.984 . S
N311 H315 0.985 . S
H312 N307 0.984 . S
H313 N307 0.985 . S
H314 N311 0.984 . S
H315 N311 0.985 . S
H316 N310 0.984 . S
H317 N310 0.984 . S
H318 N306 0.984 1_455 S
H319 N306 0.985 . S
C320 C321 1.363 . S
C320 C326 1.379 . S
C320 N328 1.356 . S
C321 C320 1.363 . S
C321 C327 1.363 . S
C322 C323 1.363 . S
C322 C327 1.379 . S
C322 N329 1.356 . S
C323 C322 1.363 . S
C323 C326 1.363 . S
N324 C326 1.356 . S
N324 H336 0.984 . S
N324 H337 0.985 . S
N325 C327 1.356 . S
N325 H330 0.984 . S
N325 H331 0.985 . S
C326 C320 1.379 . S
C326 C323 1.363 . S
C326 N324 1.356 . S
C327 C321 1.363 . S
C327 C322 1.379 . S
C327 N325 1.356 . S
N328 C320 1.356 . S
N328 H334 0.984 . S
N328 H335 0.984 . S
N329 C322 1.356 . S
N329 H332 0.984 . S
N329 H333 0.985 . S
H330 N325 0.984 . S
H331 N325 0.985 . S
H332 N329 0.984 . S
H333 N329 0.985 . S
H334 N328 0.984 . S
H335 N328 0.984 . S
H336 N324 0.984 . S
H337 N324 0.985 . S
C338 C339 1.363 . S
C338 C344 1.379 . S
C338 N346 1.356 . S
C339 C338 1.363 . S
C339 C345 1.363 . S
C340 C341 1.363 . S
C340 C345 1.379 . S
C340 N347 1.356 . S
C341 C340 1.363 . S
C341 C344 1.363 . S
N342 C344 1.356 . S
N342 H354 0.984 . S
N342 H355 0.985 . S
N343 C345 1.356 . S
N343 H348 0.984 . S
N343 H349 0.985 . S
C344 C338 1.379 . S
C344 C341 1.363 . S
C344 N342 1.356 . S
C345 C339 1.363 . S
C345 C340 1.379 . S
C345 N343 1.356 . S
N346 C338 1.356 . S
N346 H352 0.984 . S
N346 H353 0.984 . S
N347 C340 1.356 . S
N347 H350 0.984 . S
N347 H351 0.985 . S
H348 N343 0.984 . S
H349 N343 0.985 . S
H350 N347 0.984 . S
H351 N347 0.985 . S
H352 N346 0.984 . S
H353 N346 0.984 . S
H354 N342 0.984 . S
H355 N342 0.985 . S
C356 C357 1.363 . S
C356 C362 1.379 . S
C356 N364 1.356 . S
C357 C356 1.363 . S
C357 C363 1.363 . S
C358 C359 1.363 . S
C358 C363 1.379 . S
C358 N365 1.356 . S
C359 C358 1.363 . S
C359 C362 1.363 . S
N360 C362 1.356 . S
N360 H372 0.984 . S
N360 H373 0.985 . S
N361 C363 1.356 . S
N361 H366 0.984 . S
N361 H367 0.985 . S
C362 C356 1.379 . S
C362 C359 1.363 . S
C362 N360 1.356 . S
C363 C357 1.363 . S
C363 C358 1.379 . S
C363 N361 1.356 . S
N364 C356 1.356 . S
N364 H370 0.984 . S
N364 H371 0.984 . S
N365 C358 1.356 . S
N365 H368 0.984 . S
N365 H369 0.985 . S
H366 N361 0.984 . S
H367 N361 0.985 . S
H368 N365 0.984 . S
H369 N365 0.985 . S
H370 N364 0.984 . S
H371 N364 0.984 . S
H372 N360 0.984 . S
H373 N360 0.985 . S
C374 C375 1.363 . S
C374 C380 1.379 . S
C374 N382 1.356 . S
C375 C374 1.363 . S
C375 C381 1.363 . S
C376 C377 1.363 . S
C376 C381 1.379 . S
C376 N383 1.356 . S
C377 C376 1.363 . S
C377 C380 1.363 . S
N378 C380 1.356 . S
N378 H390 0.984 . S
N378 H391 0.985 . S
N379 C381 1.356 . S
N379 H384 0.984 . S
N379 H385 0.985 . S
C380 C374 1.379 . S
C380 C377 1.363 . S
C380 N378 1.356 . S
C381 C375 1.363 . S
C381 C376 1.379 . S
C381 N379 1.356 . S
N382 C374 1.356 . S
N382 H388 0.984 . S
N382 H389 0.984 . S
N383 C376 1.356 . S
N383 H386 0.984 . S
N383 H387 0.985 . S
H384 N379 0.984 . S
H385 N379 0.985 . S
H386 N383 0.984 . S
H387 N383 0.985 . S
H388 N382 0.984 . S
H389 N382 0.984 . S
H390 N378 0.984 . S
H391 N378 0.985 . S
C392 C393 1.363 . S
C392 C398 1.379 . S
C392 N400 1.356 . S
C393 C392 1.363 . S
C393 C399 1.363 . S
C394 C395 1.363 . S
C394 C399 1.379 . S
C394 N401 1.356 . S
C395 C394 1.363 . S
C395 C398 1.363 . S
N396 C398 1.345 1_556 S
N396 H408 0.994 . S
N396 H409 0.986 . S
N397 C399 1.356 . S
N397 H402 0.984 . S
N397 H403 0.985 . S
C398 C392 1.379 . S
C398 C395 1.363 . S
C398 N396 1.345 1_554 S
C399 C393 1.363 . S
C399 C394 1.379 . S
C399 N397 1.356 . S
N400 C392 1.356 . S
N400 H406 0.984 . S
N400 H407 0.984 . S
N401 C394 1.356 . S
N401 H404 0.984 . S
N401 H405 0.985 . S
H402 N397 0.984 . S
H403 N397 0.985 . S
H404 N401 0.984 . S
H405 N401 0.985 . S
H406 N400 0.984 . S
H407 N400 0.984 . S
H408 N396 0.994 . S
H409 N396 0.986 . S
C410 C411 1.363 . S
C410 C416 1.379 . S
C410 N418 1.356 . S
C411 C410 1.363 . S
C411 C417 1.363 . S
C412 C413 1.363 . S
C412 C417 1.379 . S
C412 N419 1.356 . S
C413 C412 1.363 . S
C413 C416 1.363 . S
N414 C416 1.356 1_554 S
N414 H426 0.984 . S
N414 H427 0.985 . S
N415 C417 1.356 . S
N415 H420 0.984 . S
N415 H421 0.985 . S
C416 C410 1.379 . S
C416 C413 1.363 . S
C416 N414 1.356 1_556 S
C417 C411 1.363 . S
C417 C412 1.379 . S
C417 N415 1.356 . S
N418 C410 1.356 . S
N418 H424 0.984 1_556 S
N418 H425 0.984 . S
N419 C412 1.356 . S
N419 H422 0.984 . S
N419 H423 0.985 . S
H420 N415 0.984 . S
H421 N415 0.985 . S
H422 N419 0.984 . S
H423 N419 0.985 . S
H424 N418 0.984 1_554 S
H425 N418 0.984 . S
H426 N414 0.984 . S
H427 N414 0.985 . S
C428 C429 1.363 . S
C428 C434 1.379 . S
C428 N436 1.356 . S
C429 C428 1.363 . S
C429 C435 1.363 . S
C430 C431 1.363 . S
C430 C435 1.379 . S
C430 N437 1.356 . S
C431 C430 1.363 . S
C431 C434 1.363 . S
N432 C434 1.356 . S
N432 H444 0.984 . S
N432 H445 0.985 . S
N433 C435 1.356 . S
N433 H438 0.984 . S
N433 H439 0.985 . S
C434 C428 1.379 . S
C434 C431 1.363 . S
C434 N432 1.356 . S
C435 C429 1.363 . S
C435 C430 1.379 . S
C435 N433 1.356 . S
N436 C428 1.356 . S
N436 H442 0.984 . S
N436 H443 0.984 . S
N437 C430 1.356 . S
N437 H440 0.984 1_655 S
N437 H441 0.983 1_565 S
H438 N433 0.984 . S
H439 N433 0.985 . S
H440 N437 0.984 1_455 S
H441 N437 0.983 1_545 S
H442 N436 0.984 . S
H443 N436 0.984 . S
H444 N432 0.984 . S
H445 N432 0.985 . S
C446 C447 1.363 . S
C446 C452 1.379 . S
C446 N454 1.356 . S
C447 C446 1.363 . S
C447 C453 1.363 . S
C448 C449 1.363 . S
C448 C453 1.379 . S
C448 N455 1.356 . S
C449 C448 1.363 . S
C449 C452 1.363 . S
N450 C452 1.356 . S
N450 H462 0.984 . S
N450 H463 0.985 . S
N451 C453 1.356 . S
N451 H456 0.984 . S
N451 H457 0.985 . S
C452 C446 1.379 . S
C452 C449 1.363 . S
C452 N450 1.356 . S
C453 C447 1.363 . S
C453 C448 1.379 . S
C453 N451 1.356 . S
N454 C446 1.356 . S
N454 H460 0.984 . S
N454 H461 0.984 . S
N455 C448 1.356 . S
N455 H458 0.984 . S
N455 H459 0.985 . S
H456 N451 0.984 . S
H457 N451 0.985 . S
H458 N455 0.984 . S
H459 N455 0.985 . S
H460 N454 0.984 . S
H461 N454 0.984 . S
H462 N450 0.984 . S
H463 N450 0.985 . S
C464 C465 1.363 . S
C464 C470 1.379 . S
C464 N472 1.356 . S
C465 C464 1.363 . S
C465 C471 1.363 . S
C466 C467 1.363 . S
C466 C471 1.379 . S
C466 N473 1.356 1_565 S
C467 C466 1.363 . S
C467 C470 1.363 . S
N468 C470 1.356 . S
N468 H480 0.984 . S
N468 H481 0.985 . S
N469 C471 1.356 . S
N469 H474 0.984 . S
N469 H475 0.985 1_565 S
C470 C464 1.379 . S
C470 C467 1.363 . S
C470 N468 1.356 . S
C471 C465 1.363 . S
C471 C466 1.379 . S
C471 N469 1.356 . S
N472 C464 1.356 . S
N472 H478 0.984 . S
N472 H479 0.984 . S
N473 C466 1.356 1_545 S
N473 H476 0.984 . S
N473 H477 0.985 . S
H474 N469 0.984 . S
H475 N469 0.985 1_545 S
H476 N473 0.984 . S
H477 N473 0.985 . S
H478 N472 0.984 . S
H479 N472 0.984 . S
H480 N468 0.984 . S
H481 N468 0.985 . S
C482 C483 1.363 . S
C482 C488 1.379 . S
C482 N490 1.356 . S
C483 C482 1.363 . S
C483 C489 1.363 . S
C484 C485 1.363 . S
C484 C489 1.379 . S
C484 N491 1.356 . S
C485 C484 1.363 . S
C485 C488 1.363 . S
N486 C488 1.356 . S
N486 H498 0.984 . S
N486 H499 0.985 . S
N487 C489 1.356 . S
N487 H492 0.984 . S
N487 H493 0.985 . S
C488 C482 1.379 . S
C488 C485 1.363 . S
C488 N486 1.356 . S
C489 C483 1.363 . S
C489 C484 1.379 . S
C489 N487 1.356 . S
N490 C482 1.356 . S
N490 H496 0.984 . S
N490 H497 0.984 . S
N491 C484 1.356 . S
N491 H494 0.984 . S
N491 H495 0.985 . S
H492 N487 0.984 . S
H493 N487 0.985 . S
H494 N491 0.984 . S
H495 N491 0.985 . S
H496 N490 0.984 . S
H497 N490 0.984 . S
H498 N486 0.984 . S
H499 N486 0.985 . S
C500 C501 1.363 . S
C500 C506 1.379 . S
C500 N508 1.356 . S
C501 C500 1.363 . S
C501 C507 1.363 . S
C502 C503 1.363 . S
C502 C507 1.379 . S
C502 N509 1.356 . S
C503 C502 1.363 . S
C503 C506 1.363 . S
N504 C506 1.356 . S
N504 H516 0.984 . S
N504 H517 0.985 . S
N505 C507 1.356 . S
N505 H510 0.984 . S
N505 H511 0.985 . S
C506 C500 1.379 . S
C506 C503 1.363 . S
C506 N504 1.356 . S
C507 C501 1.363 . S
C507 C502 1.379 . S
C507 N505 1.356 . S
N508 C500 1.356 . S
N508 H514 0.984 . S
N508 H515 0.984 . S
N509 C502 1.356 . S
N509 H512 0.984 . S
N509 H513 0.985 . S
H510 N505 0.984 . S
H511 N505 0.985 . S
H512 N509 0.984 . S
H513 N509 0.985 . S
H514 N508 0.984 . S
H515 N508 0.984 . S
H516 N504 0.984 . S
H517 N504 0.985 . S
C518 C519 1.363 . S
C518 C524 1.379 . S
C518 N526 1.356 . S
C519 C518 1.363 . S
C519 C525 1.363 . S
C520 C521 1.363 . S
C520 C525 1.379 . S
C520 N527 1.356 . S
C521 C520 1.363 . S
C521 C524 1.363 . S
N522 C524 1.356 . S
N522 H534 0.984 . S
N522 H535 0.985 . S
N523 C525 1.356 . S
N523 H528 0.984 . S
N523 H529 0.985 . S
C524 C518 1.379 . S
C524 C521 1.363 . S
C524 N522 1.356 . S
C525 C519 1.363 . S
C525 C520 1.379 . S
C525 N523 1.356 . S
N526 C518 1.356 . S
N526 H532 0.984 . S
N526 H533 0.984 . S
N527 C520 1.356 . S
N527 H530 0.984 . S
N527 H531 0.985 . S
H528 N523 0.984 . S
H529 N523 0.985 . S
H530 N527 0.984 . S
H531 N527 0.985 . S
H532 N526 0.984 . S
H533 N526 0.984 . S
H534 N522 0.984 . S
H535 N522 0.985 . S
C536 C537 1.363 . S
C536 C542 1.379 . S
C536 N544 1.356 . S
C537 C536 1.363 . S
C537 C543 1.363 1_556 S
C538 C539 1.363 . S
C538 C543 1.379 . S
C538 N545 1.356 . S
C539 C538 1.363 . S
C539 C542 1.363 1_554 S
N540 C542 1.356 . S
N540 H552 0.984 . S
N540 H553 0.985 . S
N541 C543 1.356 . S
N541 H546 0.984 . S
N541 H547 0.985 . S
C542 C536 1.379 . S
C542 C539 1.363 1_556 S
C542 N540 1.356 . S
C543 C537 1.363 1_554 S
C543 C538 1.379 . S
C543 N541 1.356 . S
N544 C536 1.356 . S
N544 H550 0.984 . S
N544 H551 0.984 . S
N545 C538 1.356 . S
N545 H548 0.984 . S
N545 H549 0.985 1_565 S
H546 N541 0.984 . S
H547 N541 0.985 . S
H548 N545 0.984 . S
H549 N545 0.985 1_545 S
H550 N544 0.984 . S
H551 N544 0.984 . S
H552 N540 0.984 . S
H553 N540 0.985 . S
C554 C555 1.363 . S
C554 C560 1.379 . S
C554 N562 1.356 . S
C555 C554 1.363 . S
C555 C561 1.363 . S
C556 C557 1.363 . S
C556 C561 1.379 . S
C556 N563 1.356 . S
C557 C556 1.363 . S
C557 C560 1.363 . S
N558 C560 1.356 . S
N558 H570 0.984 . S
N558 H571 0.985 . S
N559 C561 1.356 . S
N559 H564 0.984 . S
N559 H565 0.985 . S
C560 C554 1.379 . S
C560 C557 1.363 . S
C560 N558 1.356 . S
C561 C555 1.363 . S
C561 C556 1.379 . S
C561 N559 1.356 . S
N562 C554 1.356 . S
N562 H568 0.984 . S
N562 H569 0.984 . S
N563 C556 1.356 . S
N563 H566 0.984 . S
N563 H567 0.985 . S
H564 N559 0.984 . S
H565 N559 0.985 . S
H566 N563 0.984 . S
H567 N563 0.985 . S
H568 N562 0.984 . S
H569 N562 0.984 . S
H570 N558 0.984 . S
H571 N558 0.985 . S
C572 C573 1.363 . S
C572 C578 1.379 . S
C572 N580 1.356 . S
C573 C572 1.363 . S
C573 C579 1.363 . S
C574 C575 1.363 . S
C574 C579 1.379 . S
C574 N581 1.356 . S
C575 C574 1.363 . S
C575 C578 1.363 . S
N576 C578 1.356 . S
N576 H588 0.984 . S
N576 H589 0.985 . S
N577 C579 1.356 . S
N577 H582 0.984 . S
N577 H583 0.985 . S
C578 C572 1.379 . S
C578 C575 1.363 . S
C578 N576 1.356 . S
C579 C573 1.363 . S
C579 C574 1.379 . S
C579 N577 1.356 . S
N580 C572 1.356 . S
N580 H586 0.984 . S
N580 H587 0.984 . S
N581 C574 1.356 . S
N581 H584 0.984 . S
N581 H585 0.985 . S
H582 N577 0.984 . S
H583 N577 0.985 . S
H584 N581 0.984 . S
H585 N581 0.985 . S
H586 N580 0.984 . S
H587 N580 0.984 . S
H588 N576 0.984 . S
H589 N576 0.985 . S
C590 C591 1.363 . S
C590 C596 1.379 . S
C590 N598 1.356 . S
C591 C590 1.363 . S
C591 C597 1.363 . S
C592 C593 1.363 . S
C592 C597 1.379 . S
C592 N599 1.356 . S
C593 C592 1.363 . S
C593 C596 1.363 . S
N594 C596 1.356 . S
N594 H606 0.984 . S
N594 H607 0.985 . S
N595 C597 1.356 . S
N595 H600 0.984 . S
N595 H601 0.985 . S
C596 C590 1.379 . S
C596 C593 1.363 . S
C596 N594 1.356 . S
C597 C591 1.363 . S
C597 C592 1.379 . S
C597 N595 1.356 . S
N598 C590 1.356 . S
N598 H604 0.984 . S
N598 H605 0.984 . S
N599 C592 1.356 . S
N599 H602 0.984 . S
N599 H603 0.985 . S
H600 N595 0.984 . S
H601 N595 0.985 . S
H602 N599 0.984 . S
H603 N599 0.985 . S
H604 N598 0.984 . S
H605 N598 0.984 . S
H606 N594 0.984 . S
H607 N594 0.985 . S
C608 C609 1.363 . S
C608 C614 1.379 . S
C608 N616 1.356 . S
C609 C608 1.363 . S
C609 C615 1.363 1_556 S
C610 C611 1.363 1_554 S
C610 C615 1.379 . S
C610 N617 1.356 1_655 S
C611 C610 1.363 1_556 S
C611 C614 1.363 . S
N612 C614 1.356 . S
N612 H624 0.984 . S
N612 H625 0.985 . S
N613 C615 1.356 . S
N613 H618 0.984 . S
N613 H619 0.985 . S
C614 C608 1.379 . S
C614 C611 1.363 . S
C614 N612 1.356 . S
C615 C609 1.363 1_554 S
C615 C610 1.379 . S
C615 N613 1.356 . S
N616 C608 1.356 . S
N616 H622 0.984 . S
N616 H623 0.984 . S
N617 C610 1.356 1_455 S
N617 H620 0.984 . S
N617 H621 0.985 . S
H618 N613 0.984 . S
H619 N613 0.985 . S
H620 N617 0.984 . S
H621 N617 0.985 . S
H622 N616 0.984 . S
H623 N616 0.984 . S
H624 N612 0.984 . S
H625 N612 0.985 . S
C626 C627 1.363 . S
C626 C632 1.379 . S
C626 N634 1.356 . S
C627 C626 1.363 . S
C627 C633 1.363 . S
C628 C629 1.363 . S
C628 C633 1.379 . S
C628 N635 1.356 . S
C629 C628 1.363 . S
C629 C632 1.363 . S
N630 C632 1.356 . S
N630 H642 0.984 . S
N630 H643 0.985 . S
N631 C633 1.356 . S
N631 H636 0.984 . S
N631 H637 0.985 . S
C632 C626 1.379 . S
C632 C629 1.363 . S
C632 N630 1.356 . S
C633 C627 1.363 . S
C633 C628 1.379 . S
C633 N631 1.356 . S
N634 C626 1.356 . S
N634 H640 0.984 . S
N634 H641 0.984 . S
N635 C628 1.356 . S
N635 H638 0.984 . S
N635 H639 0.985 . S
H636 N631 0.984 . S
H637 N631 0.985 . S
H638 N635 0.984 . S
H639 N635 0.985 . S
H640 N634 0.984 . S
H641 N634 0.984 . S
H642 N630 0.984 . S
H643 N630 0.985 . S
C644 C645 1.363 . S
C644 C650 1.379 . S
C644 N652 1.356 . S
C645 C644 1.363 . S
C645 C651 1.363 . S
C646 C647 1.363 . S
C646 C651 1.379 . S
C646 N653 1.356 . S
C647 C646 1.363 . S
C647 C650 1.363 . S
N648 C650 1.356 . S
N648 H660 0.984 . S
N648 H661 0.985 . S
N649 C651 1.356 . S
N649 H654 0.984 . S
N649 H655 0.985 . S
C650 C644 1.379 . S
C650 C647 1.363 . S
C650 N648 1.356 . S
C651 C645 1.363 . S
C651 C646 1.379 . S
C651 N649 1.356 . S
N652 C644 1.356 . S
N652 H658 0.984 . S
N652 H659 0.984 . S
N653 C646 1.356 . S
N653 H656 0.984 . S
N653 H657 0.985 . S
H654 N649 0.984 . S
H655 N649 0.985 . S
H656 N653 0.984 . S
H657 N653 0.985 . S
H658 N652 0.984 . S
H659 N652 0.984 . S
H660 N648 0.984 . S
H661 N648 0.985 . S
C662 C663 1.363 . S
C662 C668 1.379 . S
C662 N670 1.356 . S
C663 C662 1.363 . S
C663 C669 1.363 . S
C664 C665 1.363 . S
C664 C669 1.379 . S
C664 N671 1.356 . S
C665 C664 1.363 . S
C665 C668 1.363 . S
N666 C668 1.356 . S
N666 H678 0.984 . S
N666 H679 0.985 . S
N667 C669 1.356 . S
N667 H672 0.984 . S
N667 H673 0.985 . S
C668 C662 1.379 . S
C668 C665 1.363 . S
C668 N666 1.356 . S
C669 C663 1.363 . S
C669 C664 1.379 . S
C669 N667 1.356 . S
N670 C662 1.356 . S
N670 H676 0.984 . S
N670 H677 0.984 . S
N671 C664 1.356 . S
N671 H674 0.984 . S
N671 H675 0.985 . S
H672 N667 0.984 . S
H673 N667 0.985 . S
H674 N671 0.984 . S
H675 N671 0.985 . S
H676 N670 0.984 . S
H677 N670 0.984 . S
H678 N666 0.984 . S
H679 N666 0.985 . S
C249 C5 2.999 . S
C251 C107 3.157 . S
C267 C18 2.266 . S
C269 C138 2.289 1_556 S
C287 C177 1.205 . S
C285 C30 1.196 . S
C303 C41 0.847 . S
C305 C214 0.849 . S
C323 C137 3.126 . S
C321 C7 3.174 . S
C341 C94 1.485 . S
C339 C16 1.394 . S
C359 C226 1.582 . S
C357 C29 1.558 . S
C377 C183 1.187 . S
C375 C38 1.013 . S
C393 C8 2.474 . S
C395 C227 2.480 . S
C413 C143 1.560 . S
C411 C27 1.486 . S
C429 C40 0.629 . S
C431 C106 0.610 . S
C447 C19 2.061 . S
C449 C178 2.077 . S
C467 C98 3.002 . S
C465 C51 2.911 . S
C483 C62 2.313 . S
C485 C147 2.481 . S
C501 C74 1.330 . S
C503 C186 1.338 . S
C519 C84 0.730 . S
C521 C223 0.710 . S
C537 C49 2.935 . S
C539 C146 3.021 . S
C557 C103 1.271 . S
C555 C63 1.267 . S
C575 C217 1.355 . S
C573 C71 1.198 . S
C593 C174 1.184 . S
C591 C85 1.228 . S
C609 C52 2.335 . S
C611 C218 2.356 1_655 S
C629 C134 1.427 . S
C627 C73 1.338 . S
C647 C97 0.742 . S
C645 C82 0.520 . S
C663 C60 2.395 . S
C665 C187 2.365 . S
