# Generated by pormake.
# Topology pts, (4,4)-cn, num edge types: 1
# Building blocks:
#     Node 0, Type 0, BuildingBlock: NAWXER_clean_sbu_0, # of connection points: 4
#     Node 1, Type 0, BuildingBlock: NAWXER_clean_sbu_0, # of connection points: 4
#     Node 2, Type 1, BuildingBlock: QUQFOY_clean_sbu_1, # of connection points: 4
#     Node 3, Type 1, BuildingBlock: QUQFOY_clean_sbu_1, # of connection points: 4
#     Edge 4, Type (0, 1), BuildingBlock: XUDNAN_clean_linker_2, # of connection points: 2
#     Edge 5, Type (0, 1), BuildingBlock: XUDNAN_clean_linker_2, # of connection points: 2
#     Edge 6, Type (0, 1), BuildingBlock: XUDNAN_clean_linker_2, # of connection points: 2
#     Edge 7, Type (0, 1), BuildingBlock: XUDNAN_clean_linker_2, # of connection points: 2
#     Edge 8, Type (0, 1), BuildingBlock: XUDNAN_clean_linker_2, # of connection points: 2
#     Edge 9, Type (0, 1), BuildingBlock: XUDNAN_clean_linker_2, # of connection points: 2
#     Edge 10, Type (0, 1), BuildingBlock: XUDNAN_clean_linker_2, # of connection points: 2
#     Edge 11, Type (0, 1), BuildingBlock: XUDNAN_clean_linker_2, # of connection points: 2
# Relax obj value: 0.106
# Max RMSD: 0.243
# Mean RMSD: 0.140
data_MOF--net-pts--node1-NAWXER_clean_sbu_0--node2-QUQFOY_clean_sbu_1--edge1-XUDNAN_clean_linker_2
_symmetry_space_group_name_H-M    P1
_symmetry_Int_Tables_number       1
_symmetry_cell_setting            triclinic
loop_
_symmetry_equiv_pos_as_xyz
'x, y, z'
_cell_length_a     21.929375
_cell_length_b     24.005788
_cell_length_c     38.949914
_cell_angle_alpha  89.94045
_cell_angle_beta   90.195187
_cell_angle_gamma 89.925497
loop_
_atom_site_label
_atom_site_type_symbol
_atom_site_fract_x
_atom_site_fract_y
_atom_site_fract_z
_atom_type_partial_charge
C0 C 0.41374 0.96941 0.97519 0.0
C1 C 0.59283 0.96852 0.04994 0.0
O2 O 0.44128 0.92733 0.98768 0.0
Zn3 Zn 0.50317 0.96749 1.01269 0.0
O4 O 0.43159 0.01858 0.98322 0.0
Zn5 Zn 0.50163 0.05662 0.01404 0.0
O6 O 0.54727 0.09894 0.97992 0.0
O7 O 0.55057 1.00774 0.97209 0.0
O8 O 0.57316 0.01779 0.04346 0.0
O9 O 0.5666 0.92678 0.03632 0.0
O10 O 0.4545 1.00285 0.05451 0.0
O11 O 0.45469 0.09459 0.04948 0.0
C12 C 0.56415 0.0571 0.96232 0.0
C13 C 0.4393 0.05094 0.06581 0.0
C14 C 0.9473 0.59164 0.47051 0.0
C15 C 0.94375 0.43514 0.55132 0.0
O16 O 0.90048 0.56673 0.48202 0.0
Zn17 Zn 0.94293 0.51249 0.51042 0.0
O18 O 0.00059 0.57574 0.47995 0.0
Zn19 Zn 0.04029 0.51575 0.51391 0.0
O20 O 0.08892 0.46863 0.48416 0.0
O21 O 0.98999 0.4606 0.47462 0.0
O22 O -0.00266 0.45409 0.54549 0.0
O23 O 0.89793 0.4564 0.53599 0.0
O24 O 0.9784 0.56391 0.5506 0.0
O25 O 0.07918 0.56364 0.54776 0.0
C26 C 0.04498 0.44664 0.46766 0.0
C27 C 0.03025 0.58048 0.5618 0.0
O28 O 0.95525 0.96263 0.23357 0.0
Cd29 Cd 0.02124 0.97147 0.27101 0.0
Cd30 Cd -0.00123 0.07813 0.25837 0.0
O31 O 0.92084 0.04888 0.23445 0.0
O32 O 0.03154 0.89467 0.29 0.0
O33 O 0.99236 0.96421 0.31992 0.0
C34 C 0.00645 0.91207 0.31786 0.0
C35 C 0.00305 0.13757 0.30523 0.0
C36 C 0.91632 0.99881 0.22409 0.0
C37 C 0.11898 0.03748 0.23634 0.0
O38 O 0.07814 0.07392 0.23065 0.0
O39 O 0.10759 0.99592 0.2556 0.0
O40 O 0.98835 0.15604 0.27514 0.0
O41 O 0.01129 0.08456 0.30906 0.0
O42 O 0.92597 0.07823 0.79698 0.0
Cd43 Cd 0.00382 0.07914 0.76782 0.0
Cd44 Cd 0.97862 0.96822 0.75876 0.0
O45 O 0.89501 0.998 0.77557 0.0
O46 O 0.01315 0.15493 0.74773 0.0
O47 O 0.9893 0.0801 0.71704 0.0
C48 C -0.0024 0.1334 0.7186 0.0
C49 C 0.97866 0.88849 0.7237 0.0
C50 C 0.88478 0.04162 0.7932 0.0
C51 C 0.08955 1.00258 0.8015 0.0
O52 O 0.05093 0.96578 0.79281 0.0
O53 O 0.08312 0.05263 0.79143 0.0
O54 O 0.96214 0.88688 0.75531 0.0
O55 O 0.99287 0.93643 0.71103 0.0
H56 H 0.34023 0.11601 0.08221 0.0
H57 H 0.46248 0.98942 0.1222 0.0
H58 H 0.40001 0.98172 0.17447 0.0
H59 H 0.29742 0.1798 0.16739 0.0
H60 H 0.21921 0.18923 0.15421 0.0
H61 H 0.27945 0.1928 0.1229 0.0
H62 H 0.22588 0.11619 0.08704 0.0
H63 H 0.16586 0.1121 0.11827 0.0
H64 H 0.20807 0.05036 0.10694 0.0
H65 H 0.31854 0.97758 0.21789 0.0
H66 H 0.22217 0.97744 0.25027 0.0
H67 H 0.15019 0.10558 0.18251 0.0
C68 C 0.35475 0.08828 0.10261 0.0
C69 C 0.40635 0.05379 0.09859 0.0
C70 C 0.42314 0.01636 0.12508 0.0
C71 C 0.38814 1.01187 0.15488 0.0
C72 C 0.33631 0.04498 0.15774 0.0
C73 C 0.3196 0.08268 0.13247 0.0
C74 C 0.25796 0.10834 0.14026 0.0
C75 C 0.26389 0.17129 0.14657 0.0
C76 C 0.21174 0.09598 0.11142 0.0
C77 C 0.24191 0.07766 0.17307 0.0
C78 C 0.28822 0.042 0.18293 0.0
C79 C 0.28231 1.00608 0.21084 0.0
C80 C 0.22728 1.0061 0.22898 0.0
C81 C 0.17876 0.04167 0.21906 0.0
C82 C 0.18679 0.07855 0.19108 0.0
H83 H 0.01051 0.41348 0.60871 0.0
H84 H 0.8641 0.34768 0.54572 0.0
H85 H 0.86414 0.26109 0.58059 0.0
H86 H 0.09231 0.28843 0.62127 0.0
H87 H 0.11189 0.30235 0.66542 0.0
H88 H 0.09935 0.35927 0.63608 0.0
H89 H 0.01673 0.40022 0.67626 0.0
H90 H 0.02975 0.34397 0.70603 0.0
H91 H 0.95406 0.35691 0.68967 0.0
H92 H 0.88727 0.17852 0.61967 0.0
H93 H 0.91909 0.11295 0.66547 0.0
H94 H 0.04498 0.23651 0.70514 0.0
C95 C 0.97798 0.38104 0.60253 0.0
C96 C 0.93735 0.38694 0.57456 0.0
C97 C 0.89519 0.34396 0.56727 0.0
C98 C 0.89531 0.29457 0.58673 0.0
C99 C 0.93709 0.28952 0.6137 0.0
C100 C 0.97661 0.33222 0.62208 0.0
C101 C 0.01583 0.31728 0.65281 0.0
C102 C 0.08387 0.3168 0.64331 0.0
C103 C 0.00332 0.35694 0.68298 0.0
C104 C 0.99289 0.25911 0.66022 0.0
C105 C 0.94813 0.24344 0.63709 0.0
C106 C 0.92176 0.19064 0.63813 0.0
C107 C 0.94048 0.15352 0.66403 0.0
C108 C 0.98436 0.16976 0.68883 0.0
C109 C 0.01114 0.22308 0.6866 0.0
H110 H 0.65092 0.04936 0.08707 0.0
H111 H 0.64863 0.87076 0.06945 0.0
H112 H 0.72988 0.85886 0.11305 0.0
H113 H 0.8128 0.06289 0.09935 0.0
H114 H 0.80545 0.11499 0.13238 0.0
H115 H 0.74788 0.10905 0.09952 0.0
H116 H 0.66512 0.09743 0.14633 0.0
H117 H 0.72248 0.10293 0.17935 0.0
H118 H 0.67313 0.04298 0.17794 0.0
H119 H 0.8111 0.86679 0.15877 0.0
H120 H 0.88779 0.89372 0.20211 0.0
H121 H 0.83534 0.06721 0.19015 0.0
C122 C 0.66765 1.00768 0.09215 0.0
C123 C 0.6435 0.96095 0.07473 0.0
C124 C 0.66653 0.90718 0.08238 0.0
C125 C 0.71256 0.90001 0.10715 0.0
C126 C 0.73485 0.947 0.12405 0.0
C127 C 0.71325 0.99978 0.1168 0.0
C128 C 0.74457 0.04344 0.13864 0.0
C129 C 0.77977 0.08503 0.11612 0.0
C130 C 0.69857 0.07345 0.16194 0.0
C131 C 0.78746 1.00701 0.1593 0.0
C132 C 0.78111 0.95152 0.15053 0.0
C133 C 0.81642 0.9101 0.16585 0.0
C134 C 0.85985 0.92587 0.19047 0.0
C135 C 0.8676 0.98262 0.19962 0.0
C136 C 0.83036 0.02349 0.18394 0.0
H137 H 0.0602 0.69107 0.56386 0.0
H138 H -0.00301 0.55314 0.62602 0.0
H139 H 0.9804 0.61713 0.67483 0.0
H140 H 0.13525 0.77121 0.63391 0.0
H141 H 0.11034 0.8373 0.61687 0.0
H142 H 0.12436 0.77971 0.5883 0.0
H143 H 0.01493 0.7899 0.56386 0.0
H144 H 0.00021 0.84689 0.59269 0.0
H145 H 0.95083 0.78692 0.59265 0.0
H146 H 0.96276 0.69561 0.71471 0.0
H147 H 0.94907 0.78422 0.74529 0.0
H148 H 0.02113 0.87389 0.6574 0.0
C149 C 0.04489 0.67442 0.5882 0.0
C150 C 0.03131 0.61725 0.59182 0.0
C151 C 0.00879 0.59675 0.62331 0.0
C152 C -0.00098 0.63276 0.651 0.0
C153 C 0.01139 0.68922 0.64653 0.0
C154 C 0.03418 0.71009 0.61607 0.0
C155 C 0.03951 0.77313 0.6175 0.0
C156 C 0.10635 0.7914 0.61395 0.0
C157 C -0.00105 0.80082 0.59004 0.0
C158 C 0.01561 0.78431 0.65337 0.0
C159 C -0.00013 0.73516 0.66956 0.0
C160 C 0.97539 0.73437 0.70244 0.0
C161 C 0.96755 0.78508 0.71954 0.0
C162 C 0.984 0.83614 0.7038 0.0
C163 C 0.00805 0.83562 0.67012 0.0
H164 H 0.35233 0.05154 0.94049 0.0
H165 H 0.36299 0.8718 0.95202 0.0
H166 H 0.28338 0.86093 0.90746 0.0
H167 H 0.19013 0.05977 0.92758 0.0
H168 H 0.19522 0.11515 0.89644 0.0
H169 H 0.25261 0.10844 0.92936 0.0
H170 H 0.33645 0.10463 0.88268 0.0
H171 H 0.27927 0.11086 0.84958 0.0
H172 H 0.33169 0.05296 0.84923 0.0
H173 H 0.20294 0.86979 0.86176 0.0
H174 H 0.12478 0.89731 0.81943 0.0
H175 H 0.16761 0.07155 0.8372 0.0
C176 C 0.33778 1.00981 0.93386 0.0
C177 C 0.36384 0.96246 0.94986 0.0
C178 C 0.34361 0.90867 0.94021 0.0
C179 C 0.29856 0.90209 0.91486 0.0
C180 C 0.27438 0.94968 0.89939 0.0
C181 C 0.29311 1.00249 0.90859 0.0
C182 C 0.2598 0.04682 0.88808 0.0
C183 C 0.2222 0.08477 0.91178 0.0
C184 C 0.30448 0.08081 0.86609 0.0
C185 C 0.21907 1.01069 0.86595 0.0
C186 C 0.22834 0.9548 0.87285 0.0
C187 C 0.19534 0.91341 0.85612 0.0
C188 C 0.15103 0.92955 0.83209 0.0
C189 C 0.14004 0.98665 0.82491 0.0
C190 C 0.1752 0.0276 0.84186 0.0
H191 H 0.97877 0.42216 0.41022 0.0
H192 H 0.13222 0.36555 0.47152 0.0
H193 H 0.13706 0.27894 0.43711 0.0
H194 H 0.90563 0.29383 0.40003 0.0
H195 H 0.88297 0.30474 0.35601 0.0
H196 H 0.8934 0.3635 0.38409 0.0
H197 H 0.97137 0.40663 0.34192 0.0
H198 H 0.96026 0.34855 0.31333 0.0
H199 H 0.03586 0.36582 0.32815 0.0
H200 H 0.11655 0.19396 0.40042 0.0
H201 H 0.08541 0.12417 0.3571 0.0
H202 H 0.95117 0.23985 0.31657 0.0
C203 C 0.01418 0.39198 0.41589 0.0
C204 C 0.05526 0.40039 0.44341 0.0
C205 C 0.10086 0.36009 0.45024 0.0
C206 C 0.10354 0.31062 0.43106 0.0
C207 C 0.06109 0.30282 0.40474 0.0
C208 C 0.01838 0.3431 0.39651 0.0
C209 C 0.97855 0.32492 0.36671 0.0
C210 C 0.91116 0.32155 0.37737 0.0
C211 C 0.98705 0.36378 0.33569 0.0
C212 C 0.00465 0.2676 0.35986 0.0
C213 C 0.05161 0.25527 0.38241 0.0
C214 C 0.08054 0.20353 0.38227 0.0
C215 C 0.06216 0.16399 0.35782 0.0
C216 C 0.01609 0.17679 0.3335 0.0
C217 C 0.98681 0.22916 0.33475 0.0
H218 H 0.66705 0.11865 0.94899 0.0
H219 H 0.53592 1.006 0.90306 0.0
H220 H 0.59829 1.00074 0.85065 0.0
H221 H 0.71658 0.18953 0.86641 0.0
H222 H 0.79496 0.19199 0.8804 0.0
H223 H 0.73432 0.19644 0.91143 0.0
H224 H 0.78071 0.11268 0.94442 0.0
H225 H 0.84098 0.10759 0.91341 0.0
H226 H 0.79352 0.04799 0.92207 0.0
H227 H 0.68056 0.99468 0.80812 0.0
H228 H 0.77779 0.99035 0.77668 0.0
H229 H 0.858 0.10655 0.84918 0.0
C230 C 0.65058 0.09487 0.92725 0.0
C231 C 0.59647 0.06341 0.92958 0.0
C232 C 0.5771 0.03076 0.9014 0.0
C233 C 0.61208 0.02766 0.87154 0.0
C234 C 0.66646 0.05737 0.87033 0.0
C235 C 0.6856 0.09075 0.89724 0.0
C236 C 0.7494 0.11276 0.89085 0.0
C237 C 0.74875 0.17647 0.88704 0.0
C238 C 0.79374 0.09411 0.91938 0.0
C239 C 0.76381 0.08462 0.85696 0.0
C240 C 0.71491 0.05355 0.84542 0.0
C241 C 0.71879 0.0198 0.81643 0.0
C242 C 0.7743 0.01733 0.79887 0.0
C243 C 0.82523 0.04842 0.81033 0.0
C244 C 0.81944 0.08321 0.83943 0.0
H245 H 0.02576 0.62519 0.42056 0.0
H246 H 0.85726 0.6708 0.47126 0.0
H247 H 0.85582 0.76015 0.43925 0.0
H248 H 0.09386 0.75857 0.4187 0.0
H249 H 0.12628 0.75072 0.37652 0.0
H250 H 0.11354 0.6903 0.40296 0.0
H251 H 0.04797 0.64548 0.35491 0.0
H252 H 0.06134 0.70534 0.32808 0.0
H253 H 0.9844 0.6837 0.33719 0.0
H254 H 0.87823 0.84796 0.40481 0.0
H255 H 0.91295 0.92024 0.36389 0.0
H256 H 0.06237 0.8132 0.33291 0.0
C257 C 0.98821 0.65377 0.42463 0.0
C258 C 0.94164 0.64135 0.44836 0.0
C259 C 0.89307 0.67947 0.45293 0.0
C260 C 0.8922 0.73043 0.4351 0.0
C261 C 0.93966 0.74197 0.4124 0.0
C262 C 0.98597 0.70407 0.40654 0.0
C263 C 0.03055 0.72552 0.38006 0.0
C264 C 0.09485 0.73164 0.3955 0.0
C265 C 0.03106 0.68778 0.34817 0.0
C266 C 0.00259 0.78176 0.37216 0.0
C267 C 0.95072 0.79094 0.39144 0.0
C268 C 0.91838 0.84091 0.38933 0.0
C269 C 0.93869 0.88188 0.36625 0.0
C270 C 0.99017 0.87215 0.34523 0.0
C271 C 0.02267 0.82162 0.34856 0.0
loop_
_geom_bond_atom_site_label_1
_geom_bond_atom_site_label_2
_geom_bond_distance
_geom_bond_site_symmetry_2
_ccdc_geom_bond_type
C0 O2 1.245 . S
C0 O4 1.260 1_565 S
C1 O8 1.253 . S
C1 O9 1.252 1_545 S
O2 C0 1.245 . S
O2 Zn3 2.028 1_556 S
Zn3 O2 2.028 1_554 S
Zn3 O7 2.035 1_554 S
Zn3 O9 2.035 . S
Zn3 O10 2.028 . S
O4 C0 1.260 1_545 S
O4 Zn5 2.035 1_556 S
Zn5 O4 2.035 1_554 S
Zn5 O6 2.028 1_554 S
Zn5 O8 2.028 . S
Zn5 O11 2.035 . S
O6 Zn5 2.028 1_556 S
O6 C12 1.253 . S
O7 Zn3 2.035 1_556 S
O7 C12 1.252 1_565 S
O8 C1 1.253 . S
O8 Zn5 2.028 . S
O9 C1 1.252 1_565 S
O9 Zn3 2.035 . S
O10 Zn3 2.028 . S
O10 C13 1.245 . S
O11 Zn5 2.035 . S
O11 C13 1.260 1_545 S
C12 O6 1.253 . S
C12 O7 1.252 1_545 S
C13 O10 1.245 . S
C13 O11 1.260 1_565 S
C14 O16 1.247 . S
C14 O18 1.258 1_655 S
C15 O22 1.251 . S
C15 O23 1.254 1_455 S
O16 C14 1.247 . S
O16 Zn17 2.028 . S
Zn17 O16 2.028 . S
Zn17 O21 2.035 . S
Zn17 O23 2.035 . S
Zn17 O24 2.028 . S
O18 C14 1.258 1_455 S
O18 Zn19 2.035 . S
Zn19 O18 2.035 . S
Zn19 O20 2.028 . S
Zn19 O22 2.028 . S
Zn19 O25 2.035 . S
O20 Zn19 2.028 . S
O20 C26 1.251 . S
O21 Zn17 2.035 . S
O21 C26 1.254 1_655 S
O22 C15 1.251 . S
O22 Zn19 2.028 . S
O23 C15 1.254 1_655 S
O23 Zn17 2.035 . S
O24 Zn17 2.028 . S
O24 C27 1.247 . S
O25 Zn19 2.035 . S
O25 C27 1.258 1_455 S
C26 O20 1.251 . S
C26 O21 1.254 1_455 S
C27 O24 1.247 . S
C27 O25 1.258 1_655 S
O28 Cd29 2.223 1_655 S
O28 C36 1.315 . S
Cd29 O28 2.223 1_455 S
Cd29 O32 2.297 1_455 S
Cd29 O33 2.439 1_455 S
Cd29 O39 2.240 1_565 S
Cd30 O31 2.240 1_545 S
Cd30 O38 2.223 1_655 S
Cd30 O40 2.297 1_655 S
Cd30 O41 2.439 1_655 S
O31 Cd30 2.240 1_565 S
O31 C36 1.279 . S
O32 Cd29 2.297 1_655 S
O32 C34 1.247 . S
O33 Cd29 2.439 1_655 S
O33 C34 1.208 . S
C34 O32 1.247 . S
C34 O33 1.208 . S
C35 O40 1.247 . S
C35 O41 1.208 . S
C36 O28 1.315 . S
C36 O31 1.279 . S
C37 O38 1.315 . S
C37 O39 1.279 . S
O38 Cd30 2.223 1_455 S
O38 C37 1.315 . S
O39 Cd29 2.240 1_545 S
O39 C37 1.279 . S
O40 Cd30 2.297 1_455 S
O40 C35 1.247 . S
O41 Cd30 2.439 1_455 S
O41 C35 1.208 . S
O42 Cd43 2.223 1_655 S
O42 C50 1.315 . S
Cd43 O42 2.223 1_455 S
Cd43 O46 2.297 1_455 S
Cd43 O47 2.439 1_455 S
Cd43 O53 2.240 1_545 S
Cd44 O45 2.240 1_565 S
Cd44 O52 2.223 1_655 S
Cd44 O54 2.297 1_655 S
Cd44 O55 2.439 1_655 S
O45 Cd44 2.240 1_545 S
O45 C50 1.279 . S
O46 Cd43 2.297 1_655 S
O46 C48 1.247 . S
O47 Cd43 2.439 1_655 S
O47 C48 1.208 . S
C48 O46 1.247 . S
C48 O47 1.208 . S
C49 O54 1.247 . S
C49 O55 1.208 . S
C50 O42 1.315 . S
C50 O45 1.279 . S
C51 O52 1.315 . S
C51 O53 1.279 . S
O52 Cd44 2.223 1_455 S
O52 C51 1.315 . S
O53 Cd43 2.240 1_565 S
O53 C51 1.279 . S
O54 Cd44 2.297 1_455 S
O54 C49 1.247 . S
O55 Cd44 2.439 1_455 S
O55 C49 1.208 . S
H56 C68 0.930 . S
H57 C70 0.930 . S
H58 C71 0.930 . S
H59 C75 0.959 . S
H60 C75 0.959 . S
H61 C75 0.961 . S
H62 C76 0.960 . S
H63 C76 0.961 . S
H64 C76 0.959 . S
H65 C79 0.929 . S
H66 C80 0.931 . S
H67 C82 0.930 . S
C68 H56 0.930 . S
C68 C69 1.399 1_545 S
C68 C73 1.399 . S
C69 C68 1.399 1_565 S
C69 C70 1.376 . S
C70 H57 0.930 . S
C70 C69 1.376 . S
C70 C71 1.388 . S
C71 H58 0.930 . S
C71 C70 1.388 . S
C71 C72 1.390 . S
C72 C71 1.390 . S
C72 C73 1.394 1_565 S
C72 C78 1.465 . S
C73 C68 1.399 . S
C73 C72 1.394 1_545 S
C73 C74 1.516 . S
C74 C73 1.516 . S
C74 C75 1.502 . S
C74 C76 1.561 . S
C74 C77 1.526 . S
C75 H59 0.959 . S
C75 H60 0.959 . S
C75 H61 0.961 . S
C75 C74 1.502 . S
C76 H62 0.960 . S
C76 H63 0.961 . S
C76 H64 0.959 . S
C76 C74 1.561 . S
C77 C74 1.526 . S
C77 C78 1.396 1_545 S
C77 C82 1.390 . S
C78 C72 1.465 . S
C78 C77 1.396 1_565 S
C78 C79 1.399 . S
C79 H65 0.929 . S
C79 C78 1.399 . S
C79 C80 1.385 . S
C80 H66 0.931 . S
C80 C79 1.385 . S
C80 C81 1.389 1_565 S
C81 C80 1.389 1_545 S
C81 C82 1.387 . S
C82 H67 0.930 . S
C82 C77 1.390 . S
C82 C81 1.387 . S
H83 C95 0.930 . S
H84 C97 0.930 . S
H85 C98 0.930 . S
H86 C102 0.959 . S
H87 C102 0.959 . S
H88 C102 0.961 . S
H89 C103 0.960 . S
H90 C103 0.961 . S
H91 C103 0.959 . S
H92 C106 0.929 . S
H93 C107 0.931 . S
H94 C109 0.930 1_455 S
C95 H83 0.930 . S
C95 C96 1.399 1_455 S
C95 C100 1.399 1_455 S
C96 C95 1.399 1_655 S
C96 C97 1.376 . S
C97 H84 0.930 . S
C97 C96 1.376 . S
C97 C98 1.388 . S
C98 H85 0.930 . S
C98 C97 1.388 . S
C98 C99 1.390 . S
C99 C98 1.390 . S
C99 C100 1.394 . S
C99 C105 1.465 . S
C100 C95 1.399 1_655 S
C100 C99 1.394 . S
C100 C101 1.516 1_655 S
C101 C100 1.516 1_455 S
C101 C102 1.502 . S
C101 C103 1.561 1_455 S
C101 C104 1.526 1_455 S
C102 H86 0.959 . S
C102 H87 0.959 . S
C102 H88 0.961 . S
C102 C101 1.502 . S
C103 H89 0.960 . S
C103 H90 0.961 . S
C103 H91 0.959 . S
C103 C101 1.561 1_655 S
C104 C101 1.526 1_655 S
C104 C105 1.396 . S
C104 C109 1.390 . S
C105 C99 1.465 . S
C105 C104 1.396 . S
C105 C106 1.399 . S
C106 H92 0.929 . S
C106 C105 1.399 . S
C106 C107 1.385 . S
C107 H93 0.931 . S
C107 C106 1.385 . S
C107 C108 1.389 . S
C108 C107 1.389 . S
C108 C109 1.387 . S
C109 H94 0.930 1_655 S
C109 C104 1.390 . S
C109 C108 1.387 . S
H110 C122 0.930 . S
H111 C124 0.930 . S
H112 C125 0.930 . S
H113 C129 0.959 . S
H114 C129 0.959 . S
H115 C129 0.961 . S
H116 C130 0.960 . S
H117 C130 0.961 . S
H118 C130 0.959 . S
H119 C133 0.929 . S
H120 C134 0.931 . S
H121 C136 0.930 . S
C122 H110 0.930 . S
C122 C123 1.399 1_545 S
C122 C127 1.399 . S
C123 C122 1.399 1_565 S
C123 C124 1.376 . S
C124 H111 0.930 . S
C124 C123 1.376 . S
C124 C125 1.388 . S
C125 H112 0.930 . S
C125 C124 1.388 . S
C125 C126 1.390 . S
C126 C125 1.390 . S
C126 C127 1.394 1_565 S
C126 C132 1.465 . S
C127 C122 1.399 . S
C127 C126 1.394 1_545 S
C127 C128 1.516 . S
C128 C127 1.516 . S
C128 C129 1.502 . S
C128 C130 1.561 . S
C128 C131 1.526 . S
C129 H113 0.959 . S
C129 H114 0.959 . S
C129 H115 0.961 . S
C129 C128 1.502 . S
C130 H116 0.960 . S
C130 H117 0.961 . S
C130 H118 0.959 . S
C130 C128 1.561 . S
C131 C128 1.526 . S
C131 C132 1.396 1_545 S
C131 C136 1.390 . S
C132 C126 1.465 . S
C132 C131 1.396 1_565 S
C132 C133 1.399 . S
C133 H119 0.929 . S
C133 C132 1.399 . S
C133 C134 1.385 . S
C134 H120 0.931 . S
C134 C133 1.385 . S
C134 C135 1.389 . S
C135 C134 1.389 . S
C135 C136 1.387 1_565 S
C136 H121 0.930 . S
C136 C131 1.390 . S
C136 C135 1.387 1_545 S
H137 C149 0.930 . S
H138 C151 0.930 . S
H139 C152 0.930 . S
H140 C156 0.959 . S
H141 C156 0.959 . S
H142 C156 0.961 . S
H143 C157 0.960 . S
H144 C157 0.961 . S
H145 C157 0.959 1_655 S
H146 C160 0.929 . S
H147 C161 0.931 . S
H148 C163 0.930 . S
C149 H137 0.930 . S
C149 C150 1.399 1_455 S
C149 C154 1.399 . S
C150 C149 1.399 1_655 S
C150 C151 1.376 . S
C151 H138 0.930 . S
C151 C150 1.376 . S
C151 C152 1.388 . S
C152 H139 0.930 . S
C152 C151 1.388 . S
C152 C153 1.390 . S
C153 C152 1.390 . S
C153 C154 1.394 1_655 S
C153 C159 1.467 . S
C154 C149 1.399 . S
C154 C153 1.394 1_455 S
C154 C155 1.516 . S
C155 C154 1.516 . S
C155 C156 1.502 . S
C155 C157 1.561 . S
C155 C158 1.526 . S
C156 H140 0.959 . S
C156 H141 0.959 . S
C156 H142 0.961 . S
C156 C155 1.502 . S
C157 H143 0.960 . S
C157 H144 0.961 . S
C157 H145 0.959 1_455 S
C157 C155 1.561 . S
C158 C155 1.526 . S
C158 C159 1.384 1_455 S
C158 C163 1.390 . S
C159 C153 1.467 . S
C159 C158 1.384 1_655 S
C159 C160 1.407 . S
C160 H146 0.929 . S
C160 C159 1.407 . S
C160 C161 1.385 . S
C161 H147 0.931 . S
C161 C160 1.385 . S
C161 C162 1.389 1_655 S
C162 C161 1.389 1_455 S
C162 C163 1.387 . S
C163 H148 0.930 . S
C163 C158 1.390 . S
C163 C162 1.387 . S
H164 C176 0.930 . S
H165 C178 0.930 . S
H166 C179 0.930 . S
H167 C183 0.959 . S
H168 C183 0.959 . S
H169 C183 0.961 . S
H170 C184 0.960 . S
H171 C184 0.961 . S
H172 C184 0.959 . S
H173 C187 0.929 . S
H174 C188 0.931 . S
H175 C190 0.930 . S
C176 H164 0.930 . S
C176 C177 1.399 1_545 S
C176 C181 1.399 . S
C177 C176 1.399 1_565 S
C177 C178 1.376 . S
C178 H165 0.930 . S
C178 C177 1.376 . S
C178 C179 1.388 . S
C179 H166 0.930 . S
C179 C178 1.388 . S
C179 C180 1.390 . S
C180 C179 1.390 . S
C180 C181 1.394 1_565 S
C180 C186 1.465 . S
C181 C176 1.399 . S
C181 C180 1.394 1_545 S
C181 C182 1.516 . S
C182 C181 1.516 . S
C182 C183 1.502 . S
C182 C184 1.561 . S
C182 C185 1.526 . S
C183 H167 0.959 . S
C183 H168 0.959 . S
C183 H169 0.961 . S
C183 C182 1.502 . S
C184 H170 0.960 . S
C184 H171 0.961 . S
C184 H172 0.959 . S
C184 C182 1.561 . S
C185 C182 1.526 . S
C185 C186 1.396 1_545 S
C185 C190 1.390 . S
C186 C180 1.465 . S
C186 C185 1.396 1_565 S
C186 C187 1.399 . S
C187 H173 0.929 . S
C187 C186 1.399 . S
C187 C188 1.385 . S
C188 H174 0.931 . S
C188 C187 1.385 . S
C188 C189 1.389 . S
C189 C188 1.389 . S
C189 C190 1.387 1_565 S
C190 H175 0.930 . S
C190 C185 1.390 . S
C190 C189 1.387 1_545 S
H191 C203 0.930 . S
H192 C205 0.930 . S
H193 C206 0.930 . S
H194 C210 0.959 . S
H195 C210 0.959 . S
H196 C210 0.961 . S
H197 C211 0.960 . S
H198 C211 0.961 . S
H199 C211 0.959 . S
H200 C214 0.929 . S
H201 C215 0.931 . S
H202 C217 0.930 . S
C203 H191 0.930 . S
C203 C204 1.393 1_455 S
C203 C208 1.399 . S
C204 C203 1.393 1_655 S
C204 C205 1.383 . S
C205 H192 0.930 . S
C205 C204 1.383 . S
C205 C206 1.388 . S
C206 H193 0.930 . S
C206 C205 1.388 . S
C206 C207 1.390 . S
C207 C206 1.390 . S
C207 C208 1.394 1_655 S
C207 C213 1.465 . S
C208 C203 1.399 . S
C208 C207 1.394 1_455 S
C208 C209 1.516 . S
C209 C208 1.516 . S
C209 C210 1.502 . S
C209 C211 1.561 . S
C209 C212 1.526 . S
C210 H194 0.959 . S
C210 H195 0.959 . S
C210 H196 0.961 . S
C210 C209 1.502 . S
C211 H197 0.960 . S
C211 H198 0.961 . S
C211 H199 0.959 . S
C211 C209 1.561 . S
C212 C209 1.526 . S
C212 C213 1.396 1_455 S
C212 C217 1.390 . S
C213 C207 1.465 . S
C213 C212 1.396 1_655 S
C213 C214 1.399 . S
C214 H200 0.929 . S
C214 C213 1.399 . S
C214 C215 1.385 . S
C215 H201 0.931 . S
C215 C214 1.385 . S
C215 C216 1.389 1_655 S
C216 C215 1.389 1_455 S
C216 C217 1.387 . S
C217 H202 0.930 . S
C217 C212 1.390 . S
C217 C216 1.387 . S
H218 C230 0.930 . S
H219 C232 0.930 . S
H220 C233 0.930 . S
H221 C237 0.959 . S
H222 C237 0.959 . S
H223 C237 0.961 . S
H224 C238 0.960 . S
H225 C238 0.961 . S
H226 C238 0.959 . S
H227 C241 0.929 . S
H228 C242 0.931 . S
H229 C244 0.930 . S
C230 H218 0.930 . S
C230 C231 1.399 1_545 S
C230 C235 1.399 . S
C231 C230 1.399 1_565 S
C231 C232 1.376 . S
C232 H219 0.930 . S
C232 C231 1.376 . S
C232 C233 1.388 . S
C233 H220 0.930 . S
C233 C232 1.388 . S
C233 C234 1.390 . S
C234 C233 1.390 . S
C234 C235 1.394 1_565 S
C234 C240 1.465 . S
C235 C230 1.399 . S
C235 C234 1.394 1_545 S
C235 C236 1.516 . S
C236 C235 1.516 . S
C236 C237 1.502 . S
C236 C238 1.561 . S
C236 C239 1.526 . S
C237 H221 0.959 . S
C237 H222 0.959 . S
C237 H223 0.961 . S
C237 C236 1.502 . S
C238 H224 0.960 . S
C238 H225 0.961 . S
C238 H226 0.959 . S
C238 C236 1.561 . S
C239 C236 1.526 . S
C239 C240 1.396 1_545 S
C239 C244 1.390 . S
C240 C234 1.465 . S
C240 C239 1.396 1_565 S
C240 C241 1.399 . S
C241 H227 0.929 . S
C241 C240 1.399 . S
C241 C242 1.385 . S
C242 H228 0.931 . S
C242 C241 1.385 . S
C242 C243 1.389 1_565 S
C243 C242 1.389 1_545 S
C243 C244 1.387 . S
C244 H229 0.930 . S
C244 C239 1.390 . S
C244 C243 1.387 . S
H245 C257 0.930 . S
H246 C259 0.930 . S
H247 C260 0.930 . S
H248 C264 0.959 . S
H249 C264 0.959 . S
H250 C264 0.961 . S
H251 C265 0.960 . S
H252 C265 0.961 . S
H253 C265 0.959 . S
H254 C268 0.929 . S
H255 C269 0.931 . S
H256 C271 0.930 . S
C257 H245 0.930 . S
C257 C258 1.399 1_455 S
C257 C262 1.399 . S
C258 C257 1.399 1_655 S
C258 C259 1.376 . S
C259 H246 0.930 . S
C259 C258 1.376 . S
C259 C260 1.388 . S
C260 H247 0.930 . S
C260 C259 1.388 . S
C260 C261 1.390 . S
C261 C260 1.390 . S
C261 C262 1.394 1_655 S
C261 C267 1.465 . S
C262 C257 1.399 . S
C262 C261 1.394 1_455 S
C262 C263 1.516 . S
C263 C262 1.516 . S
C263 C264 1.502 . S
C263 C265 1.561 . S
C263 C266 1.526 . S
C264 H248 0.959 . S
C264 H249 0.959 . S
C264 H250 0.961 . S
C264 C263 1.502 . S
C265 H251 0.960 . S
C265 H252 0.961 . S
C265 H253 0.959 . S
C265 C263 1.561 . S
C266 C263 1.526 . S
C266 C267 1.396 1_455 S
C266 C271 1.390 . S
C267 C261 1.465 . S
C267 C266 1.396 1_655 S
C267 C268 1.399 . S
C268 H254 0.929 . S
C268 C267 1.399 . S
C268 C269 1.385 . S
C269 H255 0.931 . S
C269 C268 1.385 . S
C269 C270 1.389 . S
C270 C269 1.389 . S
C270 C271 1.387 1_655 S
C271 H256 0.930 . S
C271 C266 1.390 . S
C271 C270 1.387 1_455 S
C81 C37 1.550 . S
C69 C13 1.548 . S
C108 C48 1.534 . S
C96 C15 1.554 1_655 S
C135 C36 1.544 . S
C123 C1 1.534 1_565 S
C162 C49 1.462 . S
C150 C27 1.563 . S
C189 C51 1.543 . S
C177 C0 1.536 . S
C216 C35 1.479 . S
C204 C26 1.566 1_655 S
C243 C50 1.550 . S
C231 C12 1.556 1_565 S
C258 C14 1.549 . S
C270 C34 1.523 . S
