# Generated by pormake.
# Topology ocu, (6,8)-cn, num edge types: 1
# Building blocks:
#     Node 0, Type 0, BuildingBlock: KUMBUR_clean_sbu_0, # of connection points: 6
#     Node 1, Type 0, BuildingBlock: KUMBUR_clean_sbu_0, # of connection points: 6
#     Node 2, Type 0, BuildingBlock: KUMBUR_clean_sbu_0, # of connection points: 6
#     Node 3, Type 0, BuildingBlock: KUMBUR_clean_sbu_0, # of connection points: 6
#     Node 4, Type 0, BuildingBlock: KUMBUR_clean_sbu_0, # of connection points: 6
#     Node 5, Type 0, BuildingBlock: KUMBUR_clean_sbu_0, # of connection points: 6
#     Node 6, Type 0, BuildingBlock: KUMBUR_clean_sbu_0, # of connection points: 6
#     Node 7, Type 0, BuildingBlock: KUMBUR_clean_sbu_0, # of connection points: 6
#     Node 8, Type 1, BuildingBlock: GIZVER_clean_sbu_0, # of connection points: 8
#     Node 9, Type 1, BuildingBlock: GIZVER_clean_sbu_0, # of connection points: 8
#     Node 10, Type 1, BuildingBlock: GIZVER_clean_sbu_0, # of connection points: 8
#     Node 11, Type 1, BuildingBlock: GIZVER_clean_sbu_0, # of connection points: 8
#     Node 12, Type 1, BuildingBlock: GIZVER_clean_sbu_0, # of connection points: 8
#     Node 13, Type 1, BuildingBlock: GIZVER_clean_sbu_0, # of connection points: 8
#     Edge 14, Type (0, 1), BuildingBlock: EZIPEK_clean_linker_0, # of connection points: 2
#     Edge 15, Type (0, 1), BuildingBlock: EZIPEK_clean_linker_0, # of connection points: 2
#     Edge 16, Type (0, 1), BuildingBlock: EZIPEK_clean_linker_0, # of connection points: 2
#     Edge 17, Type (0, 1), BuildingBlock: EZIPEK_clean_linker_0, # of connection points: 2
#     Edge 18, Type (0, 1), BuildingBlock: EZIPEK_clean_linker_0, # of connection points: 2
#     Edge 19, Type (0, 1), BuildingBlock: EZIPEK_clean_linker_0, # of connection points: 2
#     Edge 20, Type (0, 1), BuildingBlock: EZIPEK_clean_linker_0, # of connection points: 2
#     Edge 21, Type (0, 1), BuildingBlock: EZIPEK_clean_linker_0, # of connection points: 2
#     Edge 22, Type (0, 1), BuildingBlock: EZIPEK_clean_linker_0, # of connection points: 2
#     Edge 23, Type (0, 1), BuildingBlock: EZIPEK_clean_linker_0, # of connection points: 2
#     Edge 24, Type (0, 1), BuildingBlock: EZIPEK_clean_linker_0, # of connection points: 2
#     Edge 25, Type (0, 1), BuildingBlock: EZIPEK_clean_linker_0, # of connection points: 2
#     Edge 26, Type (0, 1), BuildingBlock: EZIPEK_clean_linker_0, # of connection points: 2
#     Edge 27, Type (0, 1), BuildingBlock: EZIPEK_clean_linker_0, # of connection points: 2
#     Edge 28, Type (0, 1), BuildingBlock: EZIPEK_clean_linker_0, # of connection points: 2
#     Edge 29, Type (0, 1), BuildingBlock: EZIPEK_clean_linker_0, # of connection points: 2
#     Edge 30, Type (0, 1), BuildingBlock: EZIPEK_clean_linker_0, # of connection points: 2
#     Edge 31, Type (0, 1), BuildingBlock: EZIPEK_clean_linker_0, # of connection points: 2
#     Edge 32, Type (0, 1), BuildingBlock: EZIPEK_clean_linker_0, # of connection points: 2
#     Edge 33, Type (0, 1), BuildingBlock: EZIPEK_clean_linker_0, # of connection points: 2
#     Edge 34, Type (0, 1), BuildingBlock: EZIPEK_clean_linker_0, # of connection points: 2
#     Edge 35, Type (0, 1), BuildingBlock: EZIPEK_clean_linker_0, # of connection points: 2
#     Edge 36, Type (0, 1), BuildingBlock: EZIPEK_clean_linker_0, # of connection points: 2
#     Edge 37, Type (0, 1), BuildingBlock: EZIPEK_clean_linker_0, # of connection points: 2
#     Edge 38, Type (0, 1), BuildingBlock: EZIPEK_clean_linker_0, # of connection points: 2
#     Edge 39, Type (0, 1), BuildingBlock: EZIPEK_clean_linker_0, # of connection points: 2
#     Edge 40, Type (0, 1), BuildingBlock: EZIPEK_clean_linker_0, # of connection points: 2
#     Edge 41, Type (0, 1), BuildingBlock: EZIPEK_clean_linker_0, # of connection points: 2
#     Edge 42, Type (0, 1), BuildingBlock: EZIPEK_clean_linker_0, # of connection points: 2
#     Edge 43, Type (0, 1), BuildingBlock: EZIPEK_clean_linker_0, # of connection points: 2
#     Edge 44, Type (0, 1), BuildingBlock: EZIPEK_clean_linker_0, # of connection points: 2
#     Edge 45, Type (0, 1), BuildingBlock: EZIPEK_clean_linker_0, # of connection points: 2
#     Edge 46, Type (0, 1), BuildingBlock: EZIPEK_clean_linker_0, # of connection points: 2
#     Edge 47, Type (0, 1), BuildingBlock: EZIPEK_clean_linker_0, # of connection points: 2
#     Edge 48, Type (0, 1), BuildingBlock: EZIPEK_clean_linker_0, # of connection points: 2
#     Edge 49, Type (0, 1), BuildingBlock: EZIPEK_clean_linker_0, # of connection points: 2
#     Edge 50, Type (0, 1), BuildingBlock: EZIPEK_clean_linker_0, # of connection points: 2
#     Edge 51, Type (0, 1), BuildingBlock: EZIPEK_clean_linker_0, # of connection points: 2
#     Edge 52, Type (0, 1), BuildingBlock: EZIPEK_clean_linker_0, # of connection points: 2
#     Edge 53, Type (0, 1), BuildingBlock: EZIPEK_clean_linker_0, # of connection points: 2
#     Edge 54, Type (0, 1), BuildingBlock: EZIPEK_clean_linker_0, # of connection points: 2
#     Edge 55, Type (0, 1), BuildingBlock: EZIPEK_clean_linker_0, # of connection points: 2
#     Edge 56, Type (0, 1), BuildingBlock: EZIPEK_clean_linker_0, # of connection points: 2
#     Edge 57, Type (0, 1), BuildingBlock: EZIPEK_clean_linker_0, # of connection points: 2
#     Edge 58, Type (0, 1), BuildingBlock: EZIPEK_clean_linker_0, # of connection points: 2
#     Edge 59, Type (0, 1), BuildingBlock: EZIPEK_clean_linker_0, # of connection points: 2
#     Edge 60, Type (0, 1), BuildingBlock: EZIPEK_clean_linker_0, # of connection points: 2
#     Edge 61, Type (0, 1), BuildingBlock: EZIPEK_clean_linker_0, # of connection points: 2
# Relax obj value: 0.183
# Max RMSD: 0.290
# Mean RMSD: 0.215
data_MOF--net-ocu--node1-KUMBUR_clean_sbu_0--node2-GIZVER_clean_sbu_0--edge1-EZIPEK_clean_linker_0
_symmetry_space_group_name_H-M    P1
_symmetry_Int_Tables_number       1
_symmetry_cell_setting            triclinic
loop_
_symmetry_equiv_pos_as_xyz
'x, y, z'
_cell_length_a     33.747235
_cell_length_b     35.309963
_cell_length_c     27.310207
_cell_angle_alpha  75.784292
_cell_angle_beta   103.64304
_cell_angle_gamma 118.335
loop_
_atom_site_label
_atom_site_type_symbol
_atom_site_fract_x
_atom_site_fract_y
_atom_site_fract_z
_atom_type_partial_charge
Tb0 Tb 0.26046 0.22838 0.19471 0.0
C1 C 0.40565 0.35756 0.32436 0.0
C2 C 0.43313 0.31152 0.38817 0.0
C3 C 0.48456 0.38753 0.36384 0.0
C4 C 0.39793 0.31741 0.35274 0.0
C5 C 0.44855 0.39358 0.33074 0.0
C6 C 0.47691 0.3464 0.39237 0.0
C7 C 0.41533 0.43923 0.27634 0.0
N8 N 0.36998 0.3617 0.29247 0.0
C9 C 0.37353 0.40233 0.27097 0.0
C10 C 0.45331 0.43472 0.30531 0.0
Tb11 Tb 0.30294 0.29911 0.2854 0.0
N12 N 0.35491 0.28502 0.34844 0.0
C13 C 0.34371 0.2477 0.38328 0.0
C14 C 0.42278 0.27132 0.41964 0.0
C15 C 0.37759 0.23979 0.41838 0.0
H16 H 0.34443 0.40638 0.24862 0.0
H17 H 0.36895 0.20915 0.4437 0.0
H18 H 0.50453 0.34235 0.41901 0.0
H19 H 0.41825 0.47118 0.25843 0.0
H20 H 0.30875 0.22324 0.38289 0.0
H21 H 0.24896 0.34584 0.02792 0.0
H22 H 0.44913 0.26506 0.44627 0.0
H23 H 0.19082 0.12317 0.22602 0.0
H24 H 0.2878 0.31929 0.10454 0.0
H25 H 0.11507 0.07038 0.19259 0.0
H26 H 0.51798 0.41465 0.36884 0.0
H27 H 0.16856 0.30083 0.99912 0.0
H28 H 0.09819 0.23063 0.00958 0.0
H29 H 0.4856 0.46335 0.30941 0.0
H30 H 0.06186 0.15554 0.05356 0.0
N31 N 0.22922 0.25942 0.12251 0.0
C32 C 0.25247 0.29879 0.09394 0.0
C33 C 0.18489 0.28903 0.03375 0.0
C34 C 0.16166 0.24788 0.06108 0.0
C35 C 0.23052 0.31435 0.04978 0.0
C36 C 0.18503 0.23354 0.10574 0.0
H37 H 0.06863 0.09505 0.12018 0.0
N38 N 0.18857 0.17724 0.17177 0.0
C39 C 0.12847 0.1042 0.17486 0.0
C40 C 0.16422 0.19109 0.13078 0.0
C41 C 0.17171 0.13418 0.19336 0.0
C42 C 0.10225 0.11833 0.13421 0.0
C43 C 0.1201 0.16209 0.1114 0.0
O44 O 0.31377 0.21748 0.18387 0.0
O45 O 0.3083 0.24366 0.26583 0.0
O46 O 0.35651 0.32657 0.23641 0.0
O47 O 0.32159 0.2858 0.16949 0.0
O48 O 0.26564 0.18038 0.2613 0.0
O49 O 0.24968 0.19046 0.13894 0.0
O50 O 0.28111 0.34117 0.30117 0.0
O51 O 0.25786 0.28469 0.21233 0.0
O52 O 0.20492 0.20503 0.23993 0.0
O53 O 0.24473 0.23802 0.31108 0.0
O54 O 0.27155 0.34004 0.23401 0.0
O55 O 0.28704 0.28961 0.3591 0.0
C56 C 0.30102 0.20452 0.28952 0.0
C57 C 0.29303 0.15042 0.159 0.0
C58 C 0.32278 0.10492 0.14049 0.0
C59 C 0.31814 0.14403 0.12968 0.0
C60 C 0.30209 0.07251 0.18011 0.0
C61 C 0.27297 0.11732 0.1986 0.0
C62 C 0.27747 0.07885 0.20887 0.0
C63 C 0.35632 0.31754 0.19201 0.0
C64 C 0.28987 0.19215 0.15019 0.0
C65 C 0.09598 0.17716 0.06863 0.0
C66 C 0.11668 0.21999 0.0436 0.0
C67 C 0.2461 0.31672 0.19924 0.0
C68 C 0.29392 0.3522 0.38646 0.0
C69 C 0.26588 0.3701 0.3916 0.0
C70 C 0.27752 0.39483 0.43071 0.0
C71 C 0.31955 0.40376 0.46223 0.0
C72 C 0.33524 0.36114 0.41877 0.0
C73 C 0.34811 0.38721 0.45613 0.0
C74 C 0.20617 0.21238 0.28561 0.0
C75 C 0.27791 0.32296 0.34841 0.0
H76 H 0.3348 0.16954 0.09964 0.0
H77 H 0.30573 0.04255 0.18932 0.0
H78 H 0.25432 0.12107 0.22235 0.0
H79 H 0.26249 0.05415 0.23985 0.0
H80 H 0.23398 0.36328 0.36639 0.0
H81 H 0.33059 0.42387 0.49145 0.0
H82 H 0.35737 0.34787 0.41531 0.0
H83 H 0.38017 0.39426 0.4809 0.0
Tb84 Tb 0.82053 0.23926 0.26485 0.0
C85 C 0.70497 0.31915 0.29322 0.0
C86 C 0.63192 0.25807 0.30572 0.0
C87 C 0.65629 0.32271 0.34322 0.0
C88 C 0.67357 0.27762 0.28609 0.0
C89 C 0.69659 0.34266 0.32122 0.0
C90 C 0.62383 0.28051 0.33521 0.0
C91 C 0.76571 0.40519 0.2986 0.0
N92 N 0.74284 0.33727 0.27045 0.0
C93 C 0.77185 0.38075 0.27031 0.0
C94 C 0.72822 0.38587 0.32481 0.0
Tb95 Tb 0.75103 0.29408 0.22597 0.0
N96 N 0.68325 0.25687 0.25836 0.0
C97 C 0.6509 0.21754 0.24552 0.0
C98 C 0.59962 0.21682 0.29462 0.0
C99 C 0.60904 0.19662 0.26395 0.0
H100 H 0.80091 0.39622 0.25008 0.0
H101 H 0.58387 0.16523 0.25389 0.0
H102 H 0.59236 0.26583 0.35126 0.0
H103 H 0.78979 0.43897 0.29993 0.0
H104 H 0.65656 0.20285 0.21959 0.0
H105 H 0.99123 0.31903 0.36739 0.0
H106 H 0.56714 0.20069 0.30878 0.0
H107 H 0.79296 0.19212 0.15808 0.0
H108 H 0.90837 0.27773 0.35877 0.0
H109 H 0.8295 0.1982 0.08883 0.0
H110 H 0.64937 0.34004 0.36525 0.0
H111 H 1.03108 0.34203 0.29255 0.0
H112 H 1.02776 0.33624 0.2024 0.0
H113 H 0.72326 0.40497 0.34629 0.0
H114 H 0.98379 0.30113 0.12727 0.0
N115 N 0.89934 0.27917 0.2779 0.0
C116 C 0.92473 0.28759 0.32509 0.0
C117 C 0.99434 0.32407 0.28822 0.0
C118 C 0.96932 0.31079 0.24183 0.0
C119 C 0.97205 0.31101 0.33052 0.0
C120 C 0.92137 0.2872 0.23813 0.0
H121 H 0.91068 0.24832 0.08583 0.0
N122 N 0.85099 0.24224 0.19519 0.0
C123 C 0.84871 0.21846 0.11822 0.0
C124 C 0.89659 0.26741 0.1959 0.0
C125 C 0.82767 0.21609 0.15798 0.0
C126 C 0.8945 0.24659 0.11675 0.0
C127 C 0.91928 0.27084 0.15628 0.0
O128 O 0.81452 0.17676 0.26322 0.0
O129 O 0.75364 0.23358 0.27023 0.0
O130 O 0.79238 0.31478 0.29852 0.0
O131 O 0.85152 0.29808 0.30213 0.0
O132 O 0.79037 0.22041 0.33559 0.0
O133 O 0.84905 0.20969 0.32797 0.0
O134 O 0.69738 0.2865 0.16515 0.0
O135 O 0.81024 0.29071 0.20999 0.0
O136 O 0.75882 0.19978 0.21393 0.0
O137 O 0.72435 0.2451 0.17576 0.0
O138 O 0.81272 0.35023 0.20416 0.0
O139 O 0.7548 0.34876 0.17112 0.0
C140 C 0.7509 0.21913 0.31802 0.0
C141 C 0.81555 0.13381 0.34587 0.0
C142 C 0.80784 0.09866 0.43467 0.0
C143 C 0.81643 0.13573 0.39705 0.0
C144 C 0.7915 0.05821 0.41798 0.0
C145 C 0.80078 0.09355 0.33088 0.0
C146 C 0.78756 0.05576 0.36664 0.0
C147 C 0.83506 0.32134 0.31447 0.0
C148 C 0.83498 0.17421 0.30986 0.0
C149 C 0.96623 0.29733 0.15795 0.0
C150 C 0.9912 0.31752 0.20056 0.0
C151 C 0.83625 0.33177 0.20016 0.0
C152 C 0.7258 0.32882 0.08909 0.0
C153 C 0.68942 0.32294 0.05024 0.0
C154 C 0.69485 0.32714 0.99908 0.0
C155 C 0.73549 0.33087 0.98886 0.0
C156 C 0.76787 0.33832 0.07685 0.0
C157 C 0.77218 0.3372 0.02767 0.0
C158 C 0.72839 0.20927 0.17915 0.0
C159 C 0.71935 0.32567 0.14175 0.0
H160 H 0.82774 0.16692 0.40843 0.0
H161 H 0.78428 0.02857 0.44493 0.0
H162 H 0.80001 0.09142 0.29173 0.0
H163 H 0.77634 0.0247 0.35489 0.0
H164 H 0.65814 0.31897 0.05977 0.0
H165 H 0.73999 0.33204 0.95053 0.0
H166 H 0.79735 0.34716 0.10512 0.0
H167 H 0.8045 0.34306 0.01915 0.0
Tb168 Tb 0.74261 0.73785 0.30093 0.0
C169 C 0.89478 0.87923 0.18425 0.0
C170 C 0.85727 0.92118 0.12927 0.0
C171 C 0.93876 0.95664 0.15612 0.0
C172 C 0.85552 0.88168 0.1587 0.0
C173 C 0.93716 0.91636 0.18188 0.0
C174 C 0.8988 0.95904 0.12975 0.0
C175 C 0.97333 0.86987 0.22332 0.0
N176 N 0.89158 0.83951 0.20801 0.0
C177 C 0.93048 0.83399 0.22397 0.0
C178 C 0.97667 0.91147 0.20343 0.0
Tb179 Tb 0.81853 0.78438 0.21338 0.0
N180 N 0.81634 0.84423 0.15857 0.0
C181 C 0.77955 0.84287 0.12382 0.0
C182 C 0.81779 0.92081 0.09813 0.0
C183 C 0.77922 0.88115 0.09405 0.0
H184 H 0.92925 0.80204 0.2368 0.0
H185 H 0.74902 0.8801 0.06862 0.0
H186 H 0.9007 0.98985 0.10805 0.0
H187 H 1.00381 0.8653 0.23746 0.0
H188 H 0.75006 0.81252 0.11971 0.0
H189 H 0.84358 0.68904 0.46755 0.0
H190 H 0.81747 0.95039 0.07497 0.0
H191 H 0.63077 0.68343 0.2584 0.0
H192 H 0.82324 0.74154 0.40515 0.0
H193 H 0.57226 0.60763 0.26649 0.0
H194 H 0.9709 0.98568 0.15453 0.0
H195 H 0.79529 0.61026 0.46816 0.0
H196 H 0.72176 0.55031 0.43705 0.0
H197 H 1.0099 0.93914 0.20249 0.0
H198 H 0.64705 0.52813 0.38363 0.0
N199 N 0.76394 0.69356 0.36733 0.0
C200 C 0.80117 0.70758 0.40393 0.0
C201 C 0.78566 0.63325 0.44063 0.0
C202 C 0.74512 0.61906 0.407 0.0
C203 C 0.81304 0.67771 0.44021 0.0
C204 C 0.73473 0.65039 0.37077 0.0
H205 H 0.5906 0.54937 0.32121 0.0
N206 N 0.68284 0.66915 0.30829 0.0
C207 C 0.60601 0.61565 0.28751 0.0
C208 C 0.69265 0.63783 0.34074 0.0
C209 C 0.63939 0.65887 0.2835 0.0
C210 C 0.61654 0.58285 0.31827 0.0
C211 C 0.66001 0.59377 0.34603 0.0
O212 O 0.74007 0.78937 0.32394 0.0
O213 O 0.76083 0.78961 0.23403 0.0
O214 O 0.84457 0.83175 0.26593 0.0
O215 O 0.80878 0.78533 0.33385 0.0
O216 O 0.69394 0.75339 0.24093 0.0
O217 O 0.70366 0.7239 0.35912 0.0
O218 O 0.82895 0.7339 0.19843 0.0
O219 O 0.7984 0.73162 0.27935 0.0
O220 O 0.71563 0.69461 0.24333 0.0
O221 O 0.75231 0.74181 0.17628 0.0
O222 O 0.86531 0.76889 0.27671 0.0
O223 O 0.82699 0.78561 0.13892 0.0
C224 C 0.72047 0.78651 0.21257 0.0
C225 C 0.67314 0.77343 0.35424 0.0
C226 C 0.64027 0.81189 0.38244 0.0
C227 C 0.67591 0.80042 0.38673 0.0
C228 C 0.60166 0.79529 0.34618 0.0
C229 C 0.63411 0.7573 0.31847 0.0
C230 C 0.59858 0.76806 0.31464 0.0
C231 C 0.83747 0.82429 0.31379 0.0
C232 C 0.71198 0.76419 0.35631 0.0
C233 C 0.6714 0.56221 0.37967 0.0
C234 C 0.71395 0.57482 0.41001 0.0
C235 C 0.83805 0.73489 0.30301 0.0
C236 C 0.87052 0.75084 0.13056 0.0
C237 C 0.87123 0.71103 0.13064 0.0
C238 C 0.90328 0.71025 0.10612 0.0
C239 C 0.93554 0.74988 0.08342 0.0
C240 C 0.90323 0.78985 0.10739 0.0
C241 C 0.93557 0.78926 0.08422 0.0
C242 C 0.72185 0.70345 0.19515 0.0
C243 C 0.83346 0.75073 0.15108 0.0
H244 H 0.70597 0.81325 0.41439 0.0
H245 H 0.57391 0.80365 0.34215 0.0
H246 H 0.6311 0.73669 0.29315 0.0
H247 H 0.56869 0.75555 0.28676 0.0
H248 H 0.84638 0.68075 0.14869 0.0
H249 H 0.96092 0.75028 0.06506 0.0
H250 H 0.90358 0.82083 0.10663 0.0
H251 H 0.96058 0.81946 0.06635 0.0
Tb252 Tb 0.31838 0.74383 0.26867 0.0
C253 C 0.20524 0.82872 0.10841 0.0
C254 C 0.25241 0.90506 0.08171 0.0
C255 C 0.18147 0.86706 0.02907 0.0
C256 C 0.24445 0.86601 0.11655 0.0
C257 C 0.17222 0.82938 0.06574 0.0
C258 C 0.22163 0.90491 0.03702 0.0
C259 C 0.12038 0.75837 0.10277 0.0
N260 N 0.1966 0.79384 0.14608 0.0
C261 C 0.1543 0.75888 0.14374 0.0
C262 C 0.12954 0.79352 0.0632 0.0
Tb263 Tb 0.25053 0.80068 0.21798 0.0
N264 N 0.27256 0.86514 0.1611 0.0
C265 C 0.30784 0.90347 0.17393 0.0
C266 C 0.28964 0.94361 0.09411 0.0
C267 C 0.31709 0.9429 0.14081 0.0
H268 H 0.14612 0.73083 0.17316 0.0
H269 H 0.34526 0.9728 0.15158 0.0
H270 H 0.2275 0.93441 0.00965 0.0
H271 H 0.08721 0.7306 0.10156 0.0
H272 H 0.32854 0.90468 0.21018 0.0
H273 H 0.2043 0.57813 0.33733 0.0
H274 H 0.29668 0.97414 0.06859 0.0
H275 H 0.42366 0.80552 0.32019 0.0
H276 H 0.23428 0.64335 0.2737 0.0
H277 H 0.47013 0.80949 0.405 0.0
H278 H 0.15679 0.86792 0.99578 0.0
H279 H 0.23984 0.57923 0.42729 0.0
H280 H 0.30361 0.61887 0.49265 0.0
H281 H 0.10306 0.79305 0.03155 0.0
H282 H 0.37604 0.68275 0.51148 0.0
N283 N 0.28661 0.68201 0.32638 0.0
C284 C 0.25093 0.64446 0.31236 0.0
C285 C 0.25372 0.60788 0.3993 0.0
C286 C 0.29211 0.64528 0.413 0.0
C287 C 0.23358 0.60717 0.34855 0.0
C288 C 0.30822 0.682 0.375 0.0
H289 H 0.43898 0.75376 0.4787 0.0
N290 N 0.36546 0.74926 0.34586 0.0
C291 C 0.436 0.78347 0.40008 0.0
C292 C 0.34907 0.7172 0.38527 0.0
C293 C 0.40957 0.78096 0.352 0.0
C294 C 0.41823 0.75208 0.44163 0.0
C295 C 0.37476 0.71768 0.43424 0.0
O296 O 0.37866 0.74607 0.25466 0.0
O297 O 0.30733 0.7916 0.20518 0.0
O298 O 0.23866 0.76114 0.16049 0.0
O299 O 0.25924 0.70867 0.21184 0.0
O300 O 0.37158 0.8052 0.23714 0.0
O301 O 0.31412 0.69289 0.23813 0.0
O302 O 0.19359 0.79528 0.24311 0.0
O303 O 0.2595 0.74966 0.2768 0.0
O304 O 0.33405 0.78917 0.32139 0.0
O305 O 0.31358 0.8399 0.26604 0.0
O306 O 0.19516 0.74116 0.24954 0.0
O307 O 0.25949 0.84884 0.2578 0.0
C308 C 0.34839 0.81953 0.1999 0.0
C309 C 0.37735 0.67774 0.25712 0.0
C310 C 0.40987 0.63496 0.23834 0.0
C311 C 0.39236 0.66578 0.22208 0.0
C312 C 0.41209 0.6161 0.28992 0.0
C313 C 0.37999 0.65871 0.30853 0.0
C314 C 0.39725 0.628 0.32477 0.0
C315 C 0.23762 0.72195 0.16876 0.0
C316 C 0.35747 0.70871 0.23861 0.0
C317 C 0.35714 0.6828 0.47343 0.0
C318 C 0.31592 0.64646 0.46273 0.0
C319 C 0.21784 0.72286 0.28086 0.0
C320 C 0.19561 0.86223 0.24517 0.0
C321 C 0.18886 0.87809 0.2829 0.0
C322 C 0.16552 0.9038 0.26947 0.0
C323 C 0.15174 0.91628 0.21806 0.0
C324 C 0.17995 0.87335 0.19394 0.0
C325 C 0.15916 0.9011 0.1803 0.0
C326 C 0.33667 0.82893 0.30894 0.0
C327 C 0.21631 0.83209 0.26055 0.0
H328 H 0.39032 0.68027 0.18221 0.0
H329 H 0.42554 0.59237 0.30318 0.0
H330 H 0.36856 0.66734 0.336 0.0
H331 H 0.39909 0.61335 0.3645 0.0
H332 H 0.19934 0.8685 0.3228 0.0
H333 H 0.13363 0.93617 0.20746 0.0
H334 H 0.18231 0.85973 0.16464 0.0
H335 H 0.14735 0.90952 0.14062 0.0
Tb336 Tb 0.32493 0.71656 0.78504 0.0
C337 C 0.17336 0.76127 0.73966 0.0
C338 C 0.12254 0.74249 0.66126 0.0
C339 C 0.09244 0.7378 0.73621 0.0
C340 C 0.16648 0.75655 0.68944 0.0
C341 C 0.1366 0.75309 0.7634 0.0
C342 C 0.08539 0.73233 0.68521 0.0
C343 C 0.19031 0.77895 0.83738 0.0
N344 N 0.21642 0.77525 0.76469 0.0
C345 C 0.22553 0.78609 0.8123 0.0
C346 C 0.14551 0.76148 0.81326 0.0
Tb347 Tb 0.27127 0.78311 0.72088 0.0
N348 N 0.20327 0.76697 0.6678 0.0
C349 C 0.19903 0.76865 0.61629 0.0
C350 C 0.11745 0.73947 0.60984 0.0
C351 C 0.15598 0.75281 0.58722 0.0
H352 H 0.25963 0.79918 0.8322 0.0
H353 H 0.15254 0.75078 0.54745 0.0
H354 H 0.05129 0.72113 0.66437 0.0
H355 H 0.19775 0.78647 0.87559 0.0
H356 H 0.22877 0.77977 0.59834 0.0
H357 H 0.4517 0.75027 0.95308 0.0
H358 H 0.08419 0.72793 0.58705 0.0
H359 H 0.33312 0.70292 0.66713 0.0
H360 H 0.37356 0.71928 0.90713 0.0
H361 H 0.39357 0.72071 0.61998 0.0
H362 H 0.06368 0.73085 0.75395 0.0
H363 H 0.51736 0.77707 0.90729 0.0
H364 H 0.5463 0.78763 0.82607 0.0
H365 H 0.11828 0.75564 0.83293 0.0
H366 H 0.53032 0.77949 0.73571 0.0
N367 N 0.39507 0.73495 0.83435 0.0
C368 C 0.40217 0.73242 0.8865 0.0
C369 C 0.4832 0.76465 0.88665 0.0
C370 C 0.47554 0.76274 0.83448 0.0
C371 C 0.44625 0.74907 0.91281 0.0
C372 C 0.43045 0.74724 0.80908 0.0
H373 H 0.47378 0.7542 0.65911 0.0
N374 N 0.37714 0.72629 0.73525 0.0
C375 C 0.40187 0.72718 0.65879 0.0
C376 C 0.42123 0.7426 0.75808 0.0
C377 C 0.36724 0.71683 0.68661 0.0
C378 C 0.44708 0.74618 0.68091 0.0
C379 C 0.45727 0.75349 0.73133 0.0
O380 O 0.27717 0.65106 0.78994 0.0
O381 O 0.26372 0.725 0.77553 0.0
O382 O 0.31804 0.81312 0.78829 0.0
O383 O 0.35818 0.77265 0.82538 0.0
O384 O 0.28935 0.70905 0.84772 0.0
O385 O 0.34359 0.66793 0.82993 0.0
O386 O 0.2786 0.84577 0.72547 0.0
O387 O 0.33466 0.77736 0.73288 0.0
O388 O 0.28124 0.68736 0.71732 0.0
O389 O 0.23527 0.7233 0.68489 0.0
O390 O 0.30313 0.7832 0.66077 0.0
O391 O 0.2983 0.83467 0.66329 0.0
C392 C 0.25461 0.71415 0.82108 0.0
C393 C 0.28294 0.61635 0.875 0.0
C394 C 0.29769 0.59856 0.96731 0.0
C395 C 0.3124 0.61309 0.9193 0.0
C396 C 0.25251 0.58687 0.97115 0.0
C397 C 0.23712 0.60289 0.87889 0.0
C398 C 0.2222 0.58867 0.92679 0.0
C399 C 0.35078 0.80668 0.82184 0.0
C400 C 0.30197 0.63797 0.82651 0.0
C401 C 0.50233 0.77057 0.7559 0.0
C402 C 0.51144 0.77523 0.80734 0.0
C403 C 0.3415 0.78584 0.68642 0.0
C404 C 0.2903 0.89848 0.64841 0.0
C405 C 0.26756 0.89213 0.59878 0.0
C406 C 0.26785 0.92748 0.56111 0.0
C407 C 0.29345 0.96991 0.57436 0.0
C408 C 0.3139 0.94056 0.66083 0.0
C409 C 0.3155 0.97609 0.62386 0.0
C410 C 0.24569 0.69094 0.68706 0.0
C411 C 0.2976 0.86329 0.6841 0.0
H412 H 0.34735 0.62184 0.91647 0.0
H413 H 0.24052 0.57513 0.00794 0.0
H414 H 0.2131 0.60413 0.84522 0.0
H415 H 0.18703 0.57882 0.92948 0.0
H416 H 0.25002 0.85951 0.58955 0.0
H417 H 0.29543 0.99862 0.54735 0.0
H418 H 0.33261 0.94608 0.69859 0.0
H419 H 0.33395 1.00861 0.63355 0.0
Tb420 Tb 0.25487 0.2347 0.80211 0.0
C421 C 0.38396 0.37856 0.67631 0.0
C422 C 0.33338 0.40287 0.61401 0.0
C423 C 0.40882 0.45577 0.64427 0.0
C424 C 0.34193 0.36925 0.64713 0.0
C425 C 0.41844 0.42173 0.67395 0.0
C426 C 0.36623 0.44636 0.61442 0.0
C427 C 0.47028 0.39379 0.72618 0.0
N428 N 0.39161 0.34468 0.70504 0.0
C429 C 0.43495 0.35147 0.72728 0.0
C430 C 0.46176 0.42916 0.70037 0.0
Tb431 Tb 0.32817 0.27812 0.70991 0.0
N432 N 0.31158 0.32677 0.6467 0.0
C433 C 0.27744 0.31569 0.6067 0.0
C434 C 0.29359 0.39144 0.57894 0.0
C435 C 0.26721 0.34778 0.573 0.0
H436 H 0.44233 0.32469 0.7474 0.0
H437 H 0.23866 0.33871 0.54298 0.0
H438 H 0.35995 0.47268 0.58977 0.0
H439 H 0.50406 0.39911 0.74535 0.0
H440 H 0.25766 0.28234 0.60055 0.0
H441 H 0.35023 0.1941 0.97843 0.0
H442 H 0.2851 0.41615 0.55346 0.0
H443 H 0.14049 0.17567 0.78155 0.0
H444 H 0.31931 0.24061 0.91647 0.0
H445 H 0.08649 0.09775 0.78468 0.0
H446 H 0.43459 0.48928 0.64264 0.0
H447 H 0.31614 0.116 0.97301 0.0
H448 H 0.24952 0.05129 0.93578 0.0
H449 H 0.4892 0.46188 0.69965 0.0
H450 H 0.17553 0.02436 0.88175 0.0
N451 N 0.27748 0.19237 0.86942 0.0
C452 C 0.30849 0.20808 0.9104 0.0
C453 C 0.30463 0.13678 0.94407 0.0
C454 C 0.26707 0.11957 0.90723 0.0
C455 C 0.32423 0.18108 0.94704 0.0
C456 C 0.25389 0.14874 0.87051 0.0
H457 H 0.11311 0.04157 0.82604 0.0
N458 N 0.19834 0.16387 0.81367 0.0
C459 C 0.12201 0.10732 0.79976 0.0
C460 C 0.21217 0.13369 0.84108 0.0
C461 C 0.15284 0.15147 0.79711 0.0
C462 C 0.13718 0.07572 0.82299 0.0
C463 C 0.18234 0.08883 0.84622 0.0
O464 O 0.26252 0.28517 0.83764 0.0
O465 O 0.27441 0.28572 0.73418 0.0
O466 O 0.35747 0.32404 0.76442 0.0
O467 O 0.32089 0.28215 0.8343 0.0
O468 O 0.20872 0.25444 0.74216 0.0
O469 O 0.20585 0.22329 0.84702 0.0
O470 O 0.36124 0.2922 0.64728 0.0
O471 O 0.31029 0.22804 0.77889 0.0
O472 O 0.2229 0.19069 0.74477 0.0
O473 O 0.26085 0.23335 0.67575 0.0
O474 O 0.3762 0.26006 0.76787 0.0
O475 O 0.33193 0.22598 0.68704 0.0
C476 C 0.23559 0.28548 0.71271 0.0
C477 C 0.19312 0.28544 0.83961 0.0
C478 C 0.17172 0.33929 0.85226 0.0
C479 C 0.19905 0.31693 0.86758 0.0
C480 C 0.14056 0.3319 0.80735 0.0
C481 C 0.15837 0.27576 0.79766 0.0
C482 C 0.13363 0.29995 0.78058 0.0
C483 C 0.35169 0.31854 0.81211 0.0
C484 C 0.22341 0.26346 0.85375 0.0
C485 C 0.19754 0.05907 0.8779 0.0
C486 C 0.23992 0.07448 0.90864 0.0
C487 C 0.35038 0.22998 0.79944 0.0
C488 C 0.37187 0.24049 0.61389 0.0
C489 C 0.36322 0.19705 0.61357 0.0
C490 C 0.38391 0.1885 0.58062 0.0
C491 C 0.41281 0.22344 0.54872 0.0
C492 C 0.40012 0.27437 0.58014 0.0
C493 C 0.42045 0.26588 0.54811 0.0
C494 C 0.22766 0.19812 0.69631 0.0
C495 C 0.35454 0.25243 0.65029 0.0
H496 H 0.22333 0.32269 0.90215 0.0
H497 H 0.1191 0.34853 0.79526 0.0
H498 H 0.14955 0.24919 0.77811 0.0
H499 H 0.1078 0.29279 0.7475 0.0
H500 H 0.34183 0.17046 0.63941 0.0
H501 H 0.42998 0.21769 0.52451 0.0
H502 H 0.40754 0.30793 0.5792 0.0
H503 H 0.44289 0.29252 0.52327 0.0
Tb504 Tb 0.82007 0.22065 0.78152 0.0
C505 C 0.75532 0.32986 0.60699 0.0
C506 C 0.82122 0.39815 0.59232 0.0
C507 C 0.76426 0.36942 0.52078 0.0
C508 C 0.7966 0.36032 0.62519 0.0
C509 C 0.73734 0.33495 0.55497 0.0
C510 C 0.8062 0.40129 0.53964 0.0
C511 C 0.66425 0.28017 0.57737 0.0
N512 N 0.72966 0.29959 0.64209 0.0
C513 C 0.68367 0.27778 0.62867 0.0
C514 C 0.69162 0.30793 0.54 0.0
Tb515 Tb 0.76496 0.29144 0.72456 0.0
N516 N 0.80843 0.35632 0.67645 0.0
C517 C 0.84148 0.39197 0.69748 0.0
C518 C 0.85765 0.43303 0.61378 0.0
C519 C 0.86699 0.43035 0.66666 0.0
H520 H 0.66195 0.25789 0.65752 0.0
H521 H 0.8937 0.45792 0.68381 0.0
H522 H 0.82519 0.42954 0.51374 0.0
H523 H 0.62813 0.26122 0.56686 0.0
H524 H 0.8488 0.39168 0.73807 0.0
H525 H 0.68543 0.06532 0.84916 0.0
H526 H 0.8768 0.46308 0.59008 0.0
H527 H 0.92822 0.25124 0.8356 0.0
H528 H 0.72845 0.12348 0.78481 0.0
H529 H 0.97068 0.2534 0.92262 0.0
H530 H 0.75149 0.37356 0.48051 0.0
H531 H 0.71246 0.06964 0.9411 0.0
H532 H 0.77545 0.1068 0.00882 0.0
H533 H 0.67642 0.31066 0.50044 0.0
H534 H 0.85498 0.16013 0.02951 0.0
N535 N 0.77885 0.16238 0.83892 0.0
C536 C 0.74104 0.12624 0.8245 0.0
C537 C 0.7316 0.09541 0.91282 0.0
C538 C 0.77293 0.1299 0.92738 0.0
C539 C 0.71639 0.0928 0.86105 0.0
C540 C 0.79628 0.16264 0.88893 0.0
H541 H 0.92917 0.21453 0.99714 0.0
N542 N 0.8631 0.2172 0.86057 0.0
C543 C 0.93389 0.23664 0.9171 0.0
C544 C 0.84054 0.19171 0.90038 0.0
C545 C 0.90965 0.23601 0.86779 0.0
C546 C 0.91037 0.21476 0.95904 0.0
C547 C 0.86318 0.1901 0.95077 0.0
O548 O 0.8736 0.21493 0.76209 0.0
O549 O 0.81851 0.27533 0.72383 0.0
O550 O 0.74347 0.24297 0.67111 0.0
O551 O 0.76256 0.18921 0.72389 0.0
O552 O 0.8787 0.2731 0.74355 0.0
O553 O 0.80524 0.16374 0.75533 0.0
O554 O 0.707 0.29574 0.73428 0.0
O555 O 0.76498 0.23648 0.78281 0.0
O556 O 0.84702 0.26821 0.83395 0.0
O557 O 0.82469 0.32095 0.78429 0.0
O558 O 0.70348 0.23492 0.74839 0.0
O559 O 0.77289 0.33731 0.76764 0.0
C560 C 0.85947 0.29602 0.71433 0.0
C561 C 0.86426 0.14317 0.77182 0.0
C562 C 0.89708 0.10054 0.75497 0.0
C563 C 0.88105 0.13214 0.73828 0.0
C564 C 0.89585 0.07943 0.80573 0.0
C565 C 0.8629 0.12212 0.82261 0.0
C566 C 0.87867 0.09023 0.83942 0.0
C567 C 0.74235 0.20325 0.68067 0.0
C568 C 0.84733 0.17585 0.75161 0.0
C569 C 0.83854 0.16127 0.99033 0.0
C570 C 0.79329 0.13095 0.97856 0.0
C571 C 0.7219 0.21378 0.78275 0.0
C572 C 0.719 0.36565 0.74229 0.0
C573 C 0.69944 0.37607 0.77419 0.0
C574 C 0.6872 0.41079 0.75742 0.0
C575 C 0.69548 0.43521 0.70871 0.0
C576 C 0.727 0.39066 0.6939 0.0
C577 C 0.71554 0.42536 0.67742 0.0
C578 C 0.84915 0.3077 0.82467 0.0
C579 C 0.73012 0.32826 0.75934 0.0
H580 H 0.88174 0.14822 0.6989 0.0
H581 H 0.90815 0.05485 0.81909 0.0
H582 H 0.84955 0.1301 0.84891 0.0
H583 H 0.87757 0.0739 0.87855 0.0
H584 H 0.69286 0.35672 0.81151 0.0
H585 H 0.68611 0.46177 0.69481 0.0
H586 H 0.74173 0.38316 0.66867 0.0
H587 H 0.72176 0.44441 0.63996 0.0
Tb588 Tb 0.77832 0.72949 0.70567 0.0
C589 C 0.90897 0.8292 0.86488 0.0
C590 C 0.91307 0.76978 0.92881 0.0
C591 C 0.97939 0.84009 0.92201 0.0
C592 C 0.88883 0.78652 0.88748 0.0
C593 C 0.9538 0.85719 0.88339 0.0
C594 C 0.95907 0.79628 0.94456 0.0
C595 C 0.94144 0.91754 0.83109 0.0
N596 N 0.88269 0.84435 0.82848 0.0
C597 C 0.897 0.88831 0.81459 0.0
C598 C 0.97046 0.90178 0.86463 0.0
Tb599 Tb 0.81178 0.79349 0.79997 0.0
N600 N 0.84418 0.76254 0.87168 0.0
C601 C 0.82051 0.72293 0.89942 0.0
C602 C 0.88986 0.72756 0.95406 0.0
C603 C 0.84312 0.7045 0.93994 0.0
H604 H 0.87428 0.90092 0.79038 0.0
H605 H 0.82436 0.67208 0.95915 0.0
H606 H 0.97861 0.7838 0.9755 0.0
H607 H 0.95307 0.9522 0.81843 0.0
H608 H 0.78452 0.70414 0.88896 0.0
H609 H 0.7493 0.83677 0.53559 0.0
H610 H 0.90737 0.71307 0.98521 0.0
H611 H 0.72621 0.62076 0.73137 0.0
H612 H 0.7949 0.81604 0.61033 0.0
H613 H 0.65575 0.56143 0.69902 0.0
H614 H 1.0142 0.86084 0.93617 0.0
H615 H 0.67004 0.78513 0.51086 0.0
H616 H 0.60718 0.70941 0.5237 0.0
H617 H 1.00468 0.92448 0.87789 0.0
H618 H 0.58218 0.63382 0.56698 0.0
N619 N 0.74086 0.75404 0.63307 0.0
C620 C 0.75997 0.79321 0.60223 0.0
C621 C 0.68937 0.776 0.54512 0.0
C622 C 0.67129 0.7343 0.57352 0.0
C623 C 0.73424 0.80517 0.55884 0.0
C624 C 0.69827 0.72394 0.61763 0.0
H625 H 0.60106 0.57808 0.6305 0.0
N626 N 0.71226 0.67144 0.68196 0.0
C627 C 0.66306 0.59493 0.68297 0.0
C628 C 0.68385 0.68113 0.64224 0.0
C629 C 0.70319 0.62889 0.70124 0.0
C630 C 0.6322 0.60449 0.64444 0.0
C631 C 0.64264 0.6479 0.62308 0.0
O632 O 0.83477 0.72148 0.69942 0.0
O633 O 0.82457 0.74416 0.77769 0.0
O634 O 0.86988 0.82348 0.75785 0.0
O635 O 0.83361 0.794 0.68294 0.0
O636 O 0.78523 0.68089 0.77102 0.0
O637 O 0.77754 0.70356 0.64249 0.0
O638 O 0.79635 0.84241 0.80901 0.0
O639 O 0.76504 0.77878 0.72751 0.0
O640 O 0.71883 0.69795 0.74712 0.0
O641 O 0.74846 0.73522 0.81607 0.0
O642 O 0.79912 0.84171 0.73792 0.0
O643 O 0.78237 0.78439 0.86446 0.0
C644 C 0.8193 0.70537 0.80012 0.0
C645 C 0.81905 0.66159 0.66143 0.0
C646 C 0.83901 0.61672 0.62529 0.0
C647 C 0.83294 0.65454 0.62084 0.0
C648 C 0.82917 0.58548 0.66944 0.0
C649 C 0.8106 0.62996 0.70553 0.0
C650 C 0.81495 0.59205 0.70913 0.0
C651 C 0.869 0.82202 0.70968 0.0
C652 C 0.81641 0.70289 0.65924 0.0
C653 C 0.61429 0.6588 0.58167 0.0
C654 C 0.62851 0.70194 0.55707 0.0
C655 C 0.76848 0.81744 0.70611 0.0
C656 C 0.79483 0.84797 0.89269 0.0
C657 C 0.76496 0.86301 0.89924 0.0
C658 C 0.77548 0.88635 0.93911 0.0
C659 C 0.81699 0.89581 0.97143 0.0
C660 C 0.83597 0.8572 0.92559 0.0
C661 C 0.8471 0.88137 0.96455 0.0
C662 C 0.71459 0.70549 0.79038 0.0
C663 C 0.78123 0.82187 0.85204 0.0
H664 H 0.84064 0.6789 0.58694 0.0
H665 H 0.83351 0.55628 0.67363 0.0
H666 H 0.80146 0.63449 0.73797 0.0
H667 H 0.80826 0.56809 0.7434 0.0
H668 H 0.73277 0.85533 0.87439 0.0
H669 H 0.8259 0.91406 0.00204 0.0
H670 H 0.8592 0.84551 0.92148 0.0
H671 H 0.87889 0.88848 0.98988 0.0
Co672 Co 0.06365 0.95622 0.45453 0.0
Co673 Co 0.09251 0.96388 0.5495 0.0
Co674 Co 1.03546 0.01764 0.49762 0.0
O675 O 0.08145 1.00042 0.49341 0.0
H676 H 0.10967 0.0253 0.48563 0.0
O677 O 0.98805 0.03404 0.50138 0.0
Co678 Co 1.00323 0.0694 0.55061 0.0
Co679 Co 0.98394 0.07982 0.45529 0.0
H680 H 0.9586 1.00917 0.50305 0.0
O681 O 0.14904 0.96731 0.56553 0.0
O682 O 0.08885 0.92482 0.51366 0.0
O683 O 0.05091 0.93718 0.59734 0.0
O684 O 1.00552 0.96759 0.55319 0.0
O685 O 0.08128 0.05324 0.55119 0.0
O686 O 1.01364 0.09916 0.59977 0.0
O687 O 0.95094 0.04117 0.57619 0.0
O688 O 0.05899 0.10374 0.52834 0.0
O689 O 0.06557 0.06784 0.44175 0.0
O690 O 1.03288 0.11316 0.4144 0.0
O691 O 0.98083 0.10806 0.50111 0.0
O692 O 0.92675 0.07689 0.43716 0.0
C693 C 0.09252 0.94504 0.40699 0.0
C694 C 0.9798 0.94157 0.44799 0.0
C695 C 1.0143 0.94078 0.58983 0.0
C696 C 0.13178 0.94002 0.53316 0.0
C697 C 0.97164 0.07151 0.60477 0.0
C698 C 0.0903 0.0929 0.54869 0.0
C699 C 0.06355 0.10209 0.41378 0.0
C700 C 0.93947 0.09567 0.47736 0.0
O701 O 0.05135 0.91796 0.41568 0.0
O702 O 0.11487 0.97974 0.4287 0.0
O703 O 0.99088 0.98194 0.44432 0.0
O704 O 1.00625 0.92624 0.47573 0.0
Co705 Co 0.59116 0.94148 0.9945 0.0
Co706 Co 0.58971 0.94801 0.08492 0.0
Co707 Co 0.53964 1.00972 0.99861 0.0
O708 O 0.58997 0.98749 0.0223 0.0
H709 H 0.61955 0.01232 0.02276 0.0
O710 O 0.48888 0.0315 0.97596 0.0
Co711 Co 0.4873 0.0722 0.01265 0.0
Co712 Co 0.49223 0.0787 0.92247 0.0
H713 H 0.45928 1.00704 0.9715 0.0
O714 O 0.64186 0.94134 0.12748 0.0
O715 O 0.59698 0.90238 0.06613 0.0
O716 O 0.53219 0.92587 0.11048 0.0
O717 O 0.49802 0.96151 0.05003 0.0
O718 O 0.57311 0.05179 0.04957 0.0
O719 O 0.48163 0.10405 0.04894 0.0
O720 O 0.42744 0.04378 0.01801 0.0
O721 O 0.55182 0.10518 0.01676 0.0
O722 O 0.58065 0.05714 0.94593 0.0
O723 O 0.55326 0.10549 0.90225 0.0
O724 O 0.47506 0.11488 0.94758 0.0
O725 O 0.44067 0.08521 0.87703 0.0
C726 C 0.64035 0.93009 0.97695 0.0
C727 C 0.49896 0.92818 0.95146 0.0
C728 C 0.4972 0.93208 0.08975 0.0
C729 C 0.63097 0.90874 0.10477 0.0
C730 C 0.43953 0.07475 0.04446 0.0
C731 C 0.57984 0.09144 0.04547 0.0
C732 C 0.58436 0.09238 0.91404 0.0
C733 C 0.44465 0.11164 0.90567 0.0
O734 O 0.59739 0.90458 0.96598 0.0
O735 O 0.65237 0.96402 0.99834 0.0
O736 O 0.50675 0.96814 0.9471 0.0
O737 O 0.52471 0.91261 0.98274 0.0
Co738 Co 0.07964 0.44181 0.98891 0.0
Co739 Co 0.08523 0.44753 0.07942 0.0
Co740 Co 0.03837 0.51626 0.99959 0.0
O741 O 0.08722 0.49093 0.01983 0.0
H742 H 0.11759 0.51395 0.01726 0.0
O743 O 0.98865 0.53979 0.97914 0.0
Co744 Co 0.99475 0.58694 0.0113 0.0
Co745 Co 0.99176 0.58408 0.92113 0.0
H746 H 0.95834 0.51607 0.97874 0.0
O747 O 0.13767 0.43984 0.12003 0.0
O748 O 0.09104 0.40244 0.05811 0.0
O749 O 1.02732 0.42491 0.10406 0.0
O750 O 0.99818 0.46995 0.05355 0.0
O751 O 0.07398 0.55918 0.05036 0.0
O752 O 0.99798 0.62592 0.04425 0.0
O753 O 0.9361 0.56539 0.02397 0.0
O754 O 0.0586 0.61382 0.00771 0.0
O755 O 0.07993 0.56356 0.94607 0.0
O756 O 0.0517 0.60996 0.89812 0.0
O757 O 0.97868 0.62482 0.94268 0.0
O758 O 0.939 0.58791 0.87781 0.0
C759 C 0.11925 0.42457 0.96047 0.0
C760 C 0.99024 0.43303 0.9565 0.0
C761 C 0.99573 0.43713 0.08925 0.0
C762 C 0.12622 0.40834 0.09515 0.0
C763 C 0.95502 0.60051 0.0455 0.0
C764 C 0.08482 0.60033 0.04088 0.0
C765 C 0.08344 0.5978 0.91201 0.0
C766 C 0.9452 0.61728 0.9034 0.0
O767 O 0.0755 0.40213 0.95757 0.0
O768 O 0.13916 0.45993 0.98168 0.0
O769 O 1.00178 0.47413 0.94863 0.0
O770 O 1.01513 0.41707 0.98844 0.0
Co771 Co 0.56388 0.45826 0.93244 0.0
Co772 Co 0.58614 0.447 0.03146 0.0
Co773 Co 0.53934 0.51452 0.99548 0.0
O774 O 0.58251 0.49414 0.9843 0.0
H775 H 0.61262 0.51783 0.98192 0.0
O776 O 0.49593 0.53328 0.00792 0.0
Co777 Co 0.51333 0.57266 0.05525 0.0
Co778 Co 0.49061 0.5775 0.95767 0.0
H779 H 0.4668 0.50864 0.01212 0.0
O780 O 0.6358 0.43415 0.04046 0.0
O781 O 0.57281 0.41251 0.9832 0.0
O782 O 0.54142 0.4183 0.07807 0.0
O783 O 0.50624 0.4608 0.04551 0.0
O784 O 0.58608 0.54446 0.05227 0.0
O785 O 0.52672 0.6074 0.10058 0.0
O786 O 0.46078 0.55034 0.08215 0.0
O787 O 0.57063 0.60112 0.03395 0.0
O788 O 0.57254 0.56762 0.94481 0.0
O789 O 0.53605 0.60897 0.91275 0.0
O790 O 0.48976 0.60875 0.00096 0.0
O791 O 0.43431 0.57465 0.93924 0.0
C792 C 0.59507 0.44998 0.88141 0.0
C793 C 0.47939 0.44869 0.93051 0.0
C794 C 0.50887 0.4276 0.07552 0.0
C795 C 0.61132 0.41223 0.00347 0.0
C796 C 0.48433 0.58363 0.10676 0.0
C797 C 0.59682 0.58368 0.05639 0.0
C798 C 0.56875 0.60015 0.91458 0.0
C799 C 0.44729 0.59411 0.97893 0.0
O800 O 0.55145 0.42824 0.88212 0.0
O801 O 0.61882 0.47857 0.91246 0.0
O802 O 0.49149 0.48703 0.93793 0.0
O803 O 0.50558 0.431 0.94755 0.0
Co804 Co 0.12392 0.46089 0.56339 0.0
Co805 Co 0.11571 0.48725 0.46922 0.0
Co806 Co 0.03902 0.50875 0.49758 0.0
O807 O 0.06999 0.46622 0.50986 0.0
H808 H 0.04734 0.43763 0.50284 0.0
O809 O 1.00776 0.55095 0.48624 0.0
Co810 Co 0.95591 0.56131 0.4323 0.0
Co811 Co 0.95728 0.52122 0.52046 0.0
H812 H 1.02863 0.57739 0.50006 0.0
O813 O 0.11915 0.45123 0.4346 0.0
O814 O 0.1614 0.47459 0.50854 0.0
O815 O 0.13814 0.54616 0.43835 0.0
O816 O 0.07773 0.5557 0.44106 0.0
O817 O 0.98906 0.47453 0.44534 0.0
O818 O 0.91085 0.5743 0.38452 0.0
O819 O 0.96369 0.61922 0.43499 0.0
O820 O 0.93766 0.50281 0.41819 0.0
O821 O 1.00173 0.4623 0.55464 0.0
O822 O 0.93291 0.45953 0.54003 0.0
O823 O 0.91486 0.53917 0.4851 0.0
O824 O 0.95473 0.55097 0.56395 0.0
C825 C 0.15085 0.41085 0.60467 0.0
C826 C 0.12899 0.54911 0.5676 0.0
C827 C 0.11693 0.56918 0.42622 0.0
C828 C 0.15345 0.45444 0.47007 0.0
C829 C 0.92717 0.61153 0.40039 0.0
C830 C 0.95024 0.47279 0.42183 0.0
C831 C 0.95924 0.44233 0.56122 0.0
C832 C 0.9236 0.55487 0.52749 0.0
O833 O 0.17092 0.45148 0.61154 0.0
O834 O 0.11258 0.40053 0.5725 0.0
O835 O 0.08763 0.54257 0.55044 0.0
O836 O 0.14525 0.52268 0.56694 0.0
Co837 Co 0.62337 0.96453 0.55885 0.0
Co838 Co 0.58715 0.97372 0.46155 0.0
Co839 Co 0.53767 0.01103 0.50533 0.0
O840 O 0.56393 0.96597 0.51997 0.0
H841 H 0.5398 0.93665 0.52405 0.0
O842 O 0.50723 0.05439 0.4906 0.0
Co843 Co 0.44953 0.05672 0.44108 0.0
Co844 Co 0.46755 0.03713 0.53761 0.0
H845 H 0.52989 0.0839 0.4929 0.0
O846 O 0.57458 0.92583 0.43832 0.0
O847 O 0.638 0.96429 0.49064 0.0
O848 O 0.59995 0.02656 0.41194 0.0
O849 O 0.5844 0.05947 0.45834 0.0
O850 O 0.49251 0.98137 0.4468 0.0
O851 O 0.4 0.06286 0.39516 0.0
O852 O 0.45515 0.11724 0.42997 0.0
O853 O 0.43078 0.99438 0.43705 0.0
O854 O 0.49404 0.96261 0.55464 0.0
O855 O 0.44926 0.98111 0.58124 0.0
O856 O 0.41701 0.044 0.50242 0.0
O857 O 0.47118 0.08005 0.564 0.0
C858 C 0.65498 0.91625 0.59668 0.0
C859 C 0.62961 0.05239 0.56786 0.0
C860 C 0.60503 0.06158 0.42288 0.0
C861 C 0.61446 0.93196 0.46352 0.0
C862 C 0.41601 0.10361 0.39921 0.0
C863 C 0.44992 0.97144 0.432 0.0
C864 C 0.4633 0.95359 0.58175 0.0
C865 C 0.43045 0.06847 0.53855 0.0
O866 O 0.67742 0.9585 0.59441 0.0
O867 O 0.61205 0.90287 0.57598 0.0
O868 O 0.58599 0.04031 0.56281 0.0
O869 O 0.64592 0.03015 0.55402 0.0
C870 C 0.12524 0.15036 0.29649 0.0
C871 C 0.1642 0.1874 0.31286 0.0
C872 C 0.1331 0.17175 0.39233 0.0
C873 C 0.09899 0.13072 0.37979 0.0
N874 N 0.06424 0.07954 0.32021 0.0
N875 N 0.18318 0.24493 0.35843 0.0
C876 C 0.09576 0.11948 0.3321 0.0
C877 C 0.16253 0.20149 0.35631 0.0
N878 N 0.11117 0.14891 0.24578 0.0
N879 N 0.1381 0.18221 0.43899 0.0
H880 H 0.19522 0.26741 0.32625 0.0
H881 H 0.18079 0.2583 0.38703 0.0
H882 H 0.11704 0.16139 0.46615 0.0
H883 H 0.16541 0.20976 0.45203 0.0
H884 H 0.08036 0.12488 0.23153 0.0
H885 H 0.12566 0.17586 0.21854 0.0
H886 H 0.06387 0.06824 0.28815 0.0
H887 H 0.04081 0.0567 0.34429 0.0
C888 C 0.82934 0.06724 0.52063 0.0
C889 C 0.82548 0.10381 0.49027 0.0
C890 C 0.90715 0.14134 0.49526 0.0
C891 C 0.90539 0.09973 0.49795 0.0
N892 N 0.86306 0.0208 0.5195 0.0
N893 N 0.86372 0.17846 0.50258 0.0
C894 C 0.86674 0.06158 0.51509 0.0
C895 C 0.86588 0.14219 0.49748 0.0
N896 N 0.79492 0.03626 0.54633 0.0
N897 N 0.94576 0.17876 0.48671 0.0
H898 H 0.83232 0.17779 0.50205 0.0
H899 H 0.89249 0.20721 0.50992 0.0
H900 H 0.97625 0.17863 0.48505 0.0
H901 H 0.94682 0.20955 0.47998 0.0
H902 H 0.79762 1.00949 0.57063 0.0
H903 H 0.766 0.04025 0.54563 0.0
H904 H 0.83365 0.99286 0.52852 0.0
H905 H 0.88767 0.01506 0.51003 0.0
C906 C 0.90009 0.90014 0.32787 0.0
C907 C 0.86801 0.85838 0.34839 0.0
C908 C 0.90491 0.87581 0.43511 0.0
C909 C 0.9405 0.91397 0.41378 0.0
N910 N 0.97605 0.95837 0.33934 0.0
N911 N 0.82841 0.81937 0.4221 0.0
C912 C 0.9391 0.92519 0.36005 0.0
C913 C 0.86722 0.84934 0.40238 0.0
N914 N 0.89102 0.91822 0.27892 0.0
N915 N 0.90701 0.86482 0.48698 0.0
H916 H 0.79737 0.80607 0.39959 0.0
H917 H 0.82456 0.81307 0.46039 0.0
H918 H 0.93082 0.88579 0.51202 0.0
H919 H 0.8868 0.83416 0.50541 0.0
H920 H 0.91161 0.94997 0.26337 0.0
H921 H 0.85943 0.90443 0.2569 0.0
H922 H 0.97851 0.96457 0.30056 0.0
H923 H 1.00607 0.97664 0.36135 0.0
C924 C 0.16893 0.95734 0.31671 0.0
C925 C 0.15096 0.91378 0.30924 0.0
C926 C 0.10407 0.89049 0.37593 0.0
C927 C 0.11449 0.9347 0.37503 0.0
N928 N 0.15067 1.01016 0.33441 0.0
N929 N 0.09507 0.83869 0.32601 0.0
C930 C 0.1456 0.96839 0.34303 0.0
C931 C 0.11671 0.88013 0.33723 0.0
N932 N 0.20845 0.98803 0.29931 0.0
N933 N 0.08398 0.85858 0.4145 0.0
H934 H 0.10255 0.82961 0.29706 0.0
H935 H 0.06668 0.81437 0.34239 0.0
H936 H 0.07702 0.86474 0.44607 0.0
H937 H 0.07966 0.82677 0.41834 0.0
H938 H 0.22513 0.01913 0.30938 0.0
H939 H 0.22675 0.98057 0.28037 0.0
H940 H 0.17074 0.03452 0.30809 0.0
H941 H 0.1307 0.01938 0.34803 0.0
C942 C 0.19523 0.88243 0.51348 0.0
C943 C 0.23727 0.9195 0.5109 0.0
C944 C 0.19999 0.9656 0.49027 0.0
C945 C 0.16292 0.93069 0.51432 0.0
N946 N 0.12153 0.85258 0.5405 0.0
N947 N 0.2632 0.98235 0.44765 0.0
C948 C 0.15835 0.88753 0.52199 0.0
C949 C 0.23336 0.95604 0.4809 0.0
N950 N 0.19083 0.84396 0.50604 0.0
N951 N 0.20547 1.00749 0.48019 0.0
H952 H 0.28882 0.97521 0.44339 0.0
H953 H 0.25915 1.00807 0.42246 0.0
H954 H 0.18279 0.0165 0.48845 0.0
H955 H 0.2344 0.03357 0.46661 0.0
H956 H 0.15913 0.81743 0.5007 0.0
H957 H 0.21883 0.84117 0.50028 0.0
H958 H 0.11952 0.82133 0.55011 0.0
H959 H 0.09416 0.85528 0.54799 0.0
C960 C 0.15004 0.16927 0.64405 0.0
C961 C 0.19205 0.16731 0.66172 0.0
C962 C 0.17007 0.1166 0.60101 0.0
C963 C 0.13043 0.12319 0.58067 0.0
N964 N 0.10015 0.17573 0.56793 0.0
N965 N 0.24272 0.13856 0.65692 0.0
C966 C 0.12557 0.15549 0.59751 0.0
C967 C 0.20236 0.1408 0.63997 0.0
N968 N 0.13322 0.18492 0.67062 0.0
N969 N 0.17757 0.08855 0.5821 0.0
H970 H 0.2643 0.152 0.68871 0.0
H971 H 0.25511 0.12405 0.63947 0.0
H972 H 0.15917 0.07634 0.54848 0.0
H973 H 0.20221 0.07779 0.5991 0.0
H974 H 0.10022 0.18216 0.66149 0.0
H975 H 0.15109 0.19777 0.70335 0.0
H976 H 0.09433 0.19808 0.58026 0.0
H977 H 0.09116 0.17593 0.52872 0.0
C978 C 0.8896 0.05218 0.69609 0.0
C979 C 0.91552 0.0907 0.71821 0.0
C980 C 0.96646 0.11945 0.65453 0.0
C981 C 0.94781 0.07754 0.64009 0.0
N982 N 0.88915 1.002 0.65001 0.0
N983 N 0.98337 0.15869 0.72336 0.0
C984 C 0.90843 0.04324 0.66126 0.0
C985 C 0.9557 0.1234 0.69927 0.0
N986 N 0.84645 0.02482 0.70704 0.0
N987 N 0.9911 0.15622 0.62334 0.0
H988 H 0.97671 0.16267 0.75672 0.0
H989 H 1.01502 0.18155 0.71277 0.0
H990 H 0.99366 0.1559 0.58616 0.0
H991 H 1.00265 0.18749 0.63129 0.0
H992 H 0.82359 0.99949 0.68684 0.0
H993 H 0.8319 0.02986 0.73306 0.0
H994 H 0.86334 0.97593 0.66868 0.0
H995 H 0.90072 0.99172 0.62633 0.0
C996 C 0.93154 0.83717 0.66194 0.0
C997 C 0.90949 0.85345 0.6834 0.0
C998 C 0.96412 0.92814 0.65291 0.0
C999 C 0.97939 0.91102 0.62339 0.0
N1000 N 0.9734 0.84843 0.59511 0.0
N1001 N 0.90491 0.91507 0.69955 0.0
C1002 C 0.96196 0.8653 0.62659 0.0
C1003 C 0.92617 0.89927 0.67937 0.0
N1004 N 0.92644 0.79564 0.67857 0.0
N1005 N 0.98579 0.97183 0.65522 0.0
H1006 H 0.8732 0.89543 0.71109 0.0
H1007 H 0.91752 0.94735 0.70366 0.0
H1008 H 1.01376 0.99351 0.6365 0.0
H1009 H 0.97869 0.98659 0.67836 0.0
H1010 H 0.9444 0.7829 0.66705 0.0
H1011 H 0.90999 0.7767 0.70989 0.0
H1012 H 0.95757 0.81533 0.59249 0.0
H1013 H 0.99524 0.86761 0.56802 0.0
C1014 C 0.33227 0.07374 0.07258 0.0
C1015 C 0.35188 0.09793 0.11377 0.0
C1016 C 0.42291 0.094 0.11731 0.0
C1017 C 0.40672 0.07789 0.07001 0.0
N1018 N 0.34542 0.05468 0.0004 0.0
N1019 N 0.41765 0.13483 0.17276 0.0
C1020 C 0.361 0.06785 0.04717 0.0
C1021 C 0.39786 0.10945 0.13508 0.0
N1022 N 0.28632 0.05665 0.0577 0.0
N1023 N 0.4606 0.09164 0.14726 0.0
H1024 H 0.40016 0.14599 0.18784 0.0
H1025 H 0.45241 0.14782 0.18586 0.0
H1026 H 0.47726 0.07631 0.1383 0.0
H1027 H 0.47155 0.09946 0.18404 0.0
H1028 H 0.26908 0.03439 0.03224 0.0
H1029 H 0.26482 0.06246 0.07353 0.0
H1030 H 0.31252 0.04672 0.98193 0.0
H1031 H 0.36605 0.05513 0.97726 0.0
C1032 C 0.90936 0.40186 0.18107 0.0
C1033 C 0.87795 0.35809 0.17197 0.0
C1034 C 0.92014 0.37044 0.10207 0.0
C1035 C 0.95392 0.41138 0.11539 0.0
N1036 N 0.98342 0.46356 0.17257 0.0
N1037 N 0.84705 0.30975 0.10928 0.0
C1038 C 0.94901 0.42642 0.15598 0.0
C1039 C 0.88172 0.34516 0.12845 0.0
N1040 N 0.90054 0.42184 0.21132 0.0
N1041 N 0.92362 0.35374 0.06427 0.0
H1042 H 0.81752 0.29082 0.12568 0.0
H1043 H 0.84698 0.30072 0.07561 0.0
H1044 H 0.95084 0.36882 0.04346 0.0
H1045 H 0.95084 0.36882 0.04346 0.0
H1046 H 0.91758 0.45531 0.21171 0.0
H1047 H 0.8754 0.40618 0.23482 0.0
H1048 H 0.98515 0.47294 0.20663 0.0
H1049 H 1.01222 0.48326 0.15446 0.0
C1050 C 0.65525 0.80373 0.15346 0.0
C1051 C 0.70112 0.82005 0.18024 0.0
C1052 C 0.70285 0.8945 0.14908 0.0
C1053 C 0.6553 0.87761 0.12801 0.0
N1054 N 0.58516 0.81189 0.12408 0.0
N1055 N 0.76329 0.8836 0.21141 0.0
C1056 C 0.63147 0.83106 0.13409 0.0
C1057 C 0.72316 0.86619 0.18036 0.0
N1058 N 0.63367 0.76151 0.14512 0.0
N1059 N 0.72997 0.93799 0.13743 0.0
H1060 H 0.7787 0.86471 0.23454 0.0
H1061 H 0.77895 0.91589 0.21744 0.0
H1062 H 0.71801 0.95916 0.11274 0.0
H1063 H 0.7652 0.95192 0.14716 0.0
H1064 H 0.60327 0.74931 0.12059 0.0
H1065 H 0.64819 0.73996 0.15799 0.0
H1066 H 0.56545 0.77857 0.13349 0.0
H1067 H 0.56619 0.8295 0.11176 0.0
C1068 C 0.18593 0.70723 0.08386 0.0
C1069 C 0.20674 0.69102 0.12997 0.0
C1070 C 0.15994 0.61855 0.10279 0.0
C1071 C 0.1286 0.63285 0.06901 0.0
N1072 N 0.11469 0.69689 0.03137 0.0
N1073 N 0.21526 0.62677 0.17777 0.0
C1074 C 0.14219 0.67896 0.06082 0.0
C1075 C 0.19374 0.64526 0.13847 0.0
N1076 N 0.20878 0.74893 0.06046 0.0
N1077 N 0.16205 0.58228 0.0969 0.0
H1078 H 0.24826 0.64403 0.19404 0.0
H1079 H 0.20115 0.59326 0.19063 0.0
H1080 H 0.1467 0.56795 0.0642 0.0
H1081 H 0.18591 0.57187 0.11877 0.0
H1082 H 0.19666 0.76137 0.02468 0.0
H1083 H 0.24273 0.76855 0.07312 0.0
H1084 H 0.12552 0.73029 0.0214 0.0
H1085 H 0.07989 0.67995 0.02178 0.0
C1086 C 0.41309 0.88336 0.83371 0.0
C1087 C 0.38395 0.84042 0.85559 0.0
C1088 C 0.42513 0.85915 0.94079 0.0
C1089 C 0.45841 0.89886 0.91834 0.0
N1090 N 0.48721 0.94569 0.84146 0.0
N1091 N 0.3663 0.78659 0.93163 0.0
C1092 C 0.45293 0.91038 0.86426 0.0
C1093 C 0.39127 0.82816 0.90959 0.0
N1094 N 0.40351 0.89854 0.78352 0.0
N1095 N 0.42441 0.8518 0.99207 0.0
H1096 H 0.34014 0.76332 0.91109 0.0
H1097 H 0.37399 0.77425 0.9695 0.0
H1098 H 0.44736 0.87468 0.01528 0.0
H1099 H 0.39829 0.82575 0.01037 0.0
H1100 H 0.42019 0.93106 0.76733 0.0
H1101 H 0.37703 0.87961 0.75856 0.0
H1102 H 0.48772 0.95278 0.8022 0.0
H1103 H 0.51741 0.96554 0.86187 0.0
C1104 C 0.19219 0.40811 0.88595 0.0
C1105 C 0.16704 0.36228 0.8879 0.0
C1106 C 0.12628 0.35961 0.95234 0.0
C1107 C 0.14409 0.40575 0.94306 0.0
N1108 N 0.1942 0.47473 0.89896 0.0
N1109 N 0.10497 0.29492 0.91797 0.0
C1110 C 0.17787 0.43049 0.90999 0.0
C1111 C 0.13262 0.33825 0.9196 0.0
N1112 N 0.22919 0.43007 0.86065 0.0
N1113 N 0.10378 0.33595 0.99331 0.0
H1114 H 0.10982 0.27667 0.89719 0.0
H1115 H 0.0754 0.27775 0.93504 0.0
H1116 H 0.10021 0.35048 0.01971 0.0
H1117 H 0.09344 0.30257 0.00425 0.0
H1118 H 0.25142 0.46287 0.86139 0.0
H1119 H 0.23977 0.41427 0.84258 0.0
H1120 H 0.21494 0.49389 0.87089 0.0
H1121 H 0.18498 0.49231 0.91572 0.0
C1122 C 0.65205 0.14287 0.80068 0.0
C1123 C 0.69303 0.17691 0.82061 0.0
C1124 C 0.66787 0.14571 0.90595 0.0
C1125 C 0.62404 0.11717 0.88389 0.0
N1126 N 0.57416 0.08942 0.80875 0.0
N1127 N 0.73714 0.21287 0.89331 0.0
C1128 C 0.6162 0.11612 0.83081 0.0
C1129 C 0.70035 0.17877 0.87372 0.0
N1130 N 0.64847 0.13427 0.75345 0.0
N1131 N 0.67896 0.14062 0.95768 0.0
H1132 H 0.76178 0.23699 0.8715 0.0
H1133 H 0.74162 0.21855 0.93035 0.0
H1134 H 0.65651 0.11614 0.98176 0.0
H1135 H 0.71156 0.15766 0.97614 0.0
H1136 H 0.62179 0.1076 0.7381 0.0
H1137 H 0.67551 0.15049 0.73268 0.0
H1138 H 0.56423 0.09166 0.76943 0.0
H1139 H 0.54822 0.0664 0.82976 0.0
C1140 C 0.83699 0.64198 0.85694 0.0
C1141 C 0.85443 0.68694 0.83315 0.0
C1142 C 0.93267 0.6891 0.86691 0.0
C1143 C 0.91461 0.64281 0.88377 0.0
N1144 N 0.84608 0.57524 0.88783 0.0
N1145 N 0.92285 0.75203 0.81461 0.0
C1146 C 0.86585 0.61963 0.87629 0.0
C1147 C 0.90343 0.71006 0.8384 0.0
N1148 N 0.79228 0.62041 0.86409 0.0
N1149 N 0.97835 0.7137 0.87798 0.0
H1150 H 0.90406 0.76901 0.79643 0.0
H1151 H 0.95716 0.76928 0.81046 0.0
H1152 H 1.00052 0.70005 0.89591 0.0
H1153 H 0.99374 0.74759 0.87322 0.0
H1154 H 0.77811 0.58961 0.88574 0.0
H1155 H 0.77056 0.63526 0.8541 0.0
H1156 H 0.81182 0.55578 0.87666 0.0
H1157 H 0.86426 0.55754 0.90642 0.0
C1158 C 0.2296 0.37633 0.13204 0.0
C1159 C 0.21179 0.33239 0.15881 0.0
C1160 C 0.13469 0.33413 0.13273 0.0
C1161 C 0.15404 0.3799 0.11194 0.0
N1162 N 0.22365 0.4443 0.09728 0.0
N1163 N 0.14464 0.27109 0.18609 0.0
C1164 C 0.20246 0.40046 0.11326 0.0
C1165 C 0.16334 0.31175 0.15874 0.0
N1166 N 0.27329 0.39509 0.12238 0.0
N1167 N 0.08849 0.31177 0.1285 0.0
H1168 H 0.16399 0.25433 0.20329 0.0
H1169 H 0.11122 0.25504 0.19372 0.0
H1170 H 0.06739 0.32692 0.11212 0.0
H1171 H 0.0711 0.27808 0.13765 0.0
H1172 H 0.28825 0.42484 0.09903 0.0
H1173 H 0.29236 0.37771 0.13245 0.0
H1174 H 0.25858 0.46297 0.10555 0.0
H1175 H 0.20608 0.46255 0.07852 0.0
C1176 C 0.20447 0.68955 0.8912 0.0
C1177 C 0.20771 0.68819 0.8406 0.0
C1178 C 0.13138 0.62388 0.83993 0.0
C1179 C 0.12746 0.62706 0.88904 0.0
N1180 N 0.1544 0.67555 0.95028 0.0
N1181 N 0.16165 0.66369 0.76193 0.0
C1182 C 0.16257 0.66321 0.91183 0.0
C1183 C 0.16765 0.658 0.8135 0.0
N1184 N 0.24061 0.71808 0.91912 0.0
N1185 N 0.10015 0.58847 0.81772 0.0
H1186 H 0.18505 0.68997 0.74166 0.0
H1187 H 0.1314 0.64574 0.73996 0.0
H1188 H 0.07297 0.56336 0.8355 0.0
H1189 H 0.10385 0.58243 0.78395 0.0
H1190 H 0.2428 0.71613 0.95832 0.0
H1191 H 0.26813 0.74357 0.90273 0.0
H1192 H 0.17661 0.70426 0.96491 0.0
H1193 H 0.12249 0.66056 0.96156 0.0
C1194 C 0.34875 0.15118 0.83303 0.0
C1195 C 0.36926 0.19702 0.83504 0.0
C1196 C 0.43795 0.18669 0.88824 0.0
C1197 C 0.41779 0.14106 0.88534 0.0
N1198 N 0.3468 0.07929 0.8652 0.0
N1199 N 0.43976 0.25842 0.85919 0.0
C1200 C 0.37126 0.12352 0.86034 0.0
C1201 C 0.41524 0.21421 0.86197 0.0
N1202 N 0.3087 0.13395 0.80162 0.0
N1203 N 0.47943 0.20477 0.91696 0.0
H1204 H 0.42615 0.28039 0.84339 0.0
H1205 H 0.47488 0.27419 0.86893 0.0
H1206 H 0.50023 0.18924 0.93136 0.0
H1207 H 0.49202 0.23446 0.92952 0.0
H1208 H 0.2946 0.10294 0.79194 0.0
H1209 H 0.29099 0.15187 0.78224 0.0
H1210 H 0.3118 0.06361 0.85441 0.0
H1211 H 0.36042 0.058 0.88542 0.0
C1212 C 0.93214 0.35467 0.8597 0.0
C1213 C 0.88466 0.3407 0.85877 0.0
C1214 C 0.90598 0.38932 0.92258 0.0
C1215 C 0.95295 0.40431 0.92036 0.0
N1216 N 1.00849 0.41217 0.87285 0.0
N1217 N 0.82662 0.34739 0.88807 0.0
C1218 C 0.96528 0.38992 0.88512 0.0
C1219 C 0.8717 0.35921 0.88961 0.0
N1220 N 0.94639 0.3348 0.83572 0.0
N1221 N 0.89429 0.40324 0.95697 0.0
H1222 H 0.80097 0.32317 0.86794 0.0
H1223 H 0.81446 0.36241 0.90503 0.0
H1224 H 0.91843 0.42582 0.98017 0.0
H1225 H 0.86124 0.39141 0.96425 0.0
H1226 H 0.97979 0.33892 0.84176 0.0
H1227 H 0.92446 0.31336 0.81086 0.0
H1228 H 1.01845 0.40625 0.84327 0.0
H1229 H 1.03289 0.44004 0.88804 0.0
C1230 C 0.7465 0.94133 0.93479 0.0
C1231 C 0.74132 0.89794 0.94912 0.0
C1232 C 0.67165 0.87616 0.98435 0.0
C1233 C 0.6751 0.91901 0.96708 0.0
N1234 N 0.71007 0.98919 0.91551 0.0
N1235 N 0.6965 0.82258 0.98201 0.0
C1236 C 0.71119 0.95088 0.9398 0.0
C1237 C 0.70294 0.8649 0.97186 0.0
N1238 N 0.78507 0.97346 0.91609 0.0
N1239 N 0.63994 0.84662 0.01503 0.0
H1240 H 0.72057 0.81326 0.97833 0.0
H1241 H 0.66609 0.79618 0.99122 0.0
H1242 H 0.6163 0.85289 0.02569 0.0
H1243 H 0.63931 0.81693 0.03383 0.0
H1244 H 0.79339 1.00648 0.91078 0.0
H1245 H 0.81042 0.96739 0.90902 0.0
H1246 H 0.73271 0.01185 0.89061 0.0
H1247 H 0.68354 0.99635 0.91585 0.0
C1248 C 0.94378 0.66255 0.13101 0.0
C1249 C 0.90554 0.66913 0.1043 0.0
C1250 C 0.88907 0.61658 0.0488 0.0
C1251 C 0.93011 0.61353 0.07208 0.0
N1252 N 0.98469 0.61865 0.148 0.0
N1253 N 0.83222 0.63875 0.05353 0.0
C1254 C 0.95345 0.63158 0.11758 0.0
C1255 C 0.87484 0.64139 0.0686 0.0
N1256 N 0.97168 0.68702 0.16808 0.0
N1257 N 0.86518 0.59857 0.00591 0.0
H1258 H 0.82136 0.65762 0.06561 0.0
H1259 H 0.80652 0.61509 0.03274 0.0
H1260 H 0.87285 0.57865 0.99137 0.0
H1261 H 0.83867 0.60482 0.98358 0.0
H1262 H 1.00326 0.68802 0.18448 0.0
H1263 H 0.9637 0.70771 0.18103 0.0
H1264 H 1.00059 0.62793 0.18361 0.0
H1265 H 0.99095 0.59477 0.13977 0.0
C1266 C 0.39853 0.82395 0.14101 0.0
C1267 C 0.3701 0.83954 0.15087 0.0
C1268 C 0.41867 0.91266 0.11107 0.0
C1269 C 0.45221 0.89964 0.10895 0.0
N1270 N 0.46836 0.83836 0.11361 0.0
N1271 N 0.33791 0.88295 0.09445 0.0
C1272 C 0.44043 0.85379 0.12138 0.0
C1273 C 0.37523 0.88044 0.12361 0.0
N1274 N 0.38202 0.78005 0.14473 0.0
N1275 N 0.42709 0.95536 0.10086 0.0
H1276 H 0.30707 0.85487 0.09242 0.0
H1277 H 0.34012 0.90993 0.06674 0.0
H1278 H 0.4589 0.98085 0.09459 0.0
H1279 H 0.40272 0.96484 0.1033 0.0
H1280 H 0.39816 0.76469 0.13494 0.0
H1281 H 0.3487 0.75947 0.15205 0.0
H1282 H 0.4655 0.80729 0.12913 0.0
H1283 H 0.49423 0.8562 0.09094 0.0
C1284 C 0.68929 0.18906 0.09117 0.0
C1285 C 0.69302 0.17679 0.14509 0.0
C1286 C 0.62427 0.10724 0.13334 0.0
C1287 C 0.61877 0.12109 0.07957 0.0
N1288 N 0.64218 0.18009 0.00894 0.0
N1289 N 0.65653 0.12823 0.2169 0.0
C1290 C 0.65001 0.16348 0.05905 0.0
C1291 C 0.65884 0.13661 0.16597 0.0
N1292 N 0.72433 0.22461 0.07017 0.0
N1293 N 0.59505 0.06666 0.15409 0.0
H1294 H 0.67849 0.15069 0.24073 0.0
H1295 H 0.6299 0.10216 0.23437 0.0
H1296 H 0.56463 0.04667 0.13422 0.0
H1297 H 0.60178 0.05219 0.19117 0.0
H1298 H 0.7265 0.23262 0.03124 0.0
H1299 H 0.75351 0.24355 0.09233 0.0
H1300 H 0.66002 0.21274 0.99391 0.0
H1301 H 0.61637 0.16214 0.9826 0.0
C1302 C 0.66059 0.70003 0.8459 0.0
C1303 C 0.67039 0.68052 0.81339 0.0
C1304 C 0.60839 0.60989 0.84159 0.0
C1305 C 0.60335 0.62807 0.87942 0.0
N1306 N 0.62535 0.6909 0.91845 0.0
N1307 N 0.63117 0.62584 0.75902 0.0
C1308 C 0.62925 0.67341 0.8814 0.0
C1309 C 0.63851 0.63757 0.8053 0.0
N1310 N 0.67736 0.74432 0.83865 0.0
N1311 N 0.58353 0.56639 0.83907 0.0
H1312 H 0.64255 0.64953 0.72776 0.0
H1313 H 0.60631 0.59591 0.74915 0.0
H1314 H 0.55832 0.54529 0.86183 0.0
H1315 H 0.58969 0.5508 0.81596 0.0
H1316 H 0.66859 0.76088 0.85762 0.0
H1317 H 0.69509 0.76421 0.80832 0.0
H1318 H 0.64724 0.72242 0.92583 0.0
H1319 H 0.60279 0.67283 0.94505 0.0
C1320 C 0.37076 0.62824 0.02072 0.0
C1321 C 0.3299 0.59096 0.01081 0.0
C1322 C 0.37204 0.55123 0.01136 0.0
C1323 C 0.41094 0.59212 0.00282 0.0
N1324 N 0.45053 0.66868 0.00974 0.0
N1325 N 0.29061 0.51391 0.01462 0.0
C1326 C 0.41194 0.63031 0.01257 0.0
C1327 C 0.33077 0.55091 0.01512 0.0
N1328 N 0.36817 0.66295 0.03058 0.0
N1329 N 0.37436 0.51315 0.01438 0.0
H1330 H 0.26046 0.51422 0.01736 0.0
H1331 H 0.28668 0.48374 0.01055 0.0
H1332 H 0.40356 0.51225 0.00988 0.0
H1333 H 0.34869 0.48243 0.02495 0.0
H1334 H 0.39613 0.69199 0.03841 0.0
H1335 H 0.33683 0.66083 0.03355 0.0
H1336 H 0.454 0.6971 0.01875 0.0
H1337 H 0.47972 0.6722 0.99866 0.0
C1338 C 0.3928 0.39959 0.82026 0.0
C1339 C 0.38063 0.35502 0.84251 0.0
C1340 C 0.41287 0.37873 0.92567 0.0
C1341 C 0.43512 0.42222 0.90237 0.0
N1342 N 0.44792 0.47465 0.82522 0.0
N1343 N 0.39447 0.30647 0.91661 0.0
C1344 C 0.42519 0.4331 0.84897 0.0
C1345 C 0.39416 0.34549 0.89556 0.0
N1346 N 0.37272 0.41031 0.77301 0.0
N1347 N 0.41299 0.36916 0.97716 0.0
H1348 H 0.38732 0.2833 0.89455 0.0
H1349 H 0.40758 0.29978 0.95457 0.0
H1350 H 0.42681 0.39372 0.99967 0.0
H1351 H 0.39516 0.33759 0.99563 0.0
H1352 H 0.37795 0.44215 0.75761 0.0
H1353 H 0.34735 0.38732 0.75141 0.0
H1354 H 0.44609 0.48292 0.78565 0.0
H1355 H 0.47022 0.50025 0.84526 0.0
C1356 C 0.68357 0.4622 0.80486 0.0
C1357 C 0.66376 0.42064 0.78946 0.0
C1358 C 0.60076 0.39683 0.83743 0.0
C1359 C 0.61772 0.44008 0.84801 0.0
N1360 N 0.66934 0.51637 0.82708 0.0
N1361 N 0.59675 0.35271 0.77959 0.0
C1362 C 0.65751 0.47352 0.82759 0.0
C1363 C 0.62033 0.38929 0.80224 0.0
N1364 N 0.72765 0.49069 0.79886 0.0
N1365 N 0.56779 0.36204 0.86262 0.0
H1366 H 0.60916 0.34625 0.75265 0.0
H1367 H 0.56286 0.33126 0.7834 0.0
H1368 H 0.55374 0.36392 0.89137 0.0
H1369 H 0.55845 0.32992 0.85962 0.0
H1370 H 0.74494 0.51987 0.81358 0.0
H1371 H 0.74826 0.4832 0.78372 0.0
H1372 H 0.69571 0.54186 0.80854 0.0
H1373 H 0.64947 0.52661 0.83918 0.0
C1374 C 0.68288 0.38564 0.94265 0.0
C1375 C 0.66403 0.34027 0.95823 0.0
C1376 C 0.60015 0.34193 0.98189 0.0
C1377 C 0.62718 0.38757 0.98327 0.0
N1378 N 0.69359 0.45395 0.95818 0.0
N1379 N 0.59588 0.27471 0.96883 0.0
C1380 C 0.66823 0.40991 0.96134 0.0
C1381 C 0.61836 0.31874 0.96635 0.0
N1382 N 0.7174 0.40643 0.91404 0.0
N1383 N 0.55882 0.31901 0.99852 0.0
H1384 H 0.61065 0.25753 0.9599 0.0
H1385 H 0.56358 0.25638 0.97987 0.0
H1386 H 0.54334 0.33243 0.01327 0.0
H1387 H 0.54334 0.33243 0.01327 0.0
H1388 H 0.7287 0.38982 0.89826 0.0
H1389 H 0.7287 0.38982 0.89826 0.0
H1390 H 0.72368 0.47048 0.94195 0.0
H1391 H 0.68542 0.4736 0.97273 0.0
C1392 C 0.67122 0.62427 0.17887 0.0
C1393 C 0.69191 0.6701 0.16007 0.0
C1394 C 0.66504 0.65178 0.07341 0.0
C1395 C 0.63616 0.6086 0.09233 0.0
N1396 N 0.60769 0.55468 0.16537 0.0
N1397 N 0.69361 0.72539 0.08591 0.0
C1398 C 0.63811 0.59493 0.14573 0.0
C1399 C 0.68533 0.68345 0.10621 0.0
N1400 N 0.6842 0.60778 0.22708 0.0
N1401 N 0.67172 0.6629 0.02354 0.0
H1402 H 0.69892 0.74775 0.10812 0.0
H1403 H 0.68689 0.73543 0.04693 0.0
H1404 H 0.65754 0.63972 0.99907 0.0
H1405 H 0.69519 0.69368 0.00881 0.0
H1406 H 0.67258 0.57444 0.24003 0.0
H1407 H 0.71039 0.62651 0.25207 0.0
H1408 H 0.60419 0.54562 0.20403 0.0
H1409 H 0.58408 0.53152 0.1428 0.0
C1410 C 0.40246 0.5808 0.18731 0.0
C1411 C 0.42678 0.62274 0.20175 0.0
C1412 C 0.48212 0.64151 0.14536 0.0
C1413 C 0.46315 0.59696 0.13853 0.0
N1414 N 0.40849 0.52266 0.16362 0.0
N1415 N 0.495 0.69068 0.20158 0.0
C1416 C 0.42381 0.56617 0.16195 0.0
C1417 C 0.46818 0.65235 0.18298 0.0
N1418 N 0.35908 0.5548 0.19802 0.0
N1419 N 0.51106 0.67441 0.11401 0.0
H1420 H 0.48606 0.70021 0.22893 0.0
H1421 H 0.52802 0.71086 0.19325 0.0
H1422 H 0.51976 0.67008 0.08247 0.0
H1423 H 0.52086 0.70706 0.11464 0.0
H1424 H 0.33799 0.52574 0.18363 0.0
H1425 H 0.34268 0.56446 0.21691 0.0
H1426 H 0.38115 0.49885 0.182 0.0
H1427 H 0.42712 0.5103 0.15333 0.0
C1428 C 0.41989 0.32674 0.14807 0.0
C1429 C 0.39724 0.34556 0.16465 0.0
C1430 C 0.45418 0.41779 0.13204 0.0
C1431 C 0.47177 0.39886 0.10788 0.0
N1432 N 0.46265 0.33298 0.08441 0.0
N1433 N 0.38783 0.40984 0.15963 0.0
C1434 C 0.45227 0.35261 0.1135 0.0
C1435 C 0.41313 0.39131 0.15325 0.0
N1436 N 0.41242 0.28483 0.16716 0.0
N1437 N 0.47751 0.46075 0.13726 0.0
H1438 H 0.35777 0.39192 0.17519 0.0
H1439 H 0.39435 0.44182 0.14384 0.0
H1440 H 0.50871 0.48134 0.12439 0.0
H1441 H 0.46844 0.47407 0.16032 0.0
H1442 H 0.43071 0.2706 0.15937 0.0
H1443 H 0.39262 0.26665 0.19613 0.0
H1444 H 0.44592 0.29948 0.08408 0.0
H1445 H 0.48372 0.35021 0.05624 0.0
C1446 C 0.9051 0.63245 0.5826 0.0
C1447 C 0.85787 0.60926 0.58608 0.0
C1448 C 0.85082 0.55514 0.53807 0.0
C1449 C 0.8985 0.57732 0.53665 0.0
N1450 N 0.96826 0.64334 0.54416 0.0
N1451 N 0.78397 0.5554 0.557 0.0
C1452 C 0.92452 0.61823 0.55419 0.0
C1453 C 0.83017 0.57292 0.56013 0.0
N1454 N 0.93223 0.66593 0.6098 0.0
N1455 N 0.82571 0.51579 0.52147 0.0
H1456 H 0.76824 0.56822 0.57239 0.0
H1457 H 0.76124 0.53132 0.5351 0.0
H1458 H 0.83886 0.50274 0.50294 0.0
H1459 H 0.79234 0.49505 0.52794 0.0
H1460 H 0.9676 0.6802 0.61446 0.0
H1461 H 0.9197 0.6778 0.63081 0.0
H1462 H 0.98735 0.67548 0.55061 0.0
H1463 H 0.98424 0.63336 0.52518 0.0
C1464 C 0.37629 0.8336 0.60822 0.0
C1465 C 0.38278 0.82331 0.66239 0.0
C1466 C 0.45204 0.89479 0.66161 0.0
C1467 C 0.43826 0.90773 0.60931 0.0
N1468 N 0.37936 0.89056 0.53692 0.0
N1469 N 0.43201 0.84444 0.74068 0.0
C1470 C 0.39826 0.87738 0.58375 0.0
C1471 C 0.42249 0.85391 0.68921 0.0
N1472 N 0.34854 0.80124 0.57983 0.0
N1473 N 0.49317 0.92179 0.68489 0.0
H1474 H 0.41297 0.81463 0.76099 0.0
H1475 H 0.45795 0.86615 0.76346 0.0
H1476 H 0.51448 0.95174 0.66588 0.0
H1477 H 0.50773 0.91348 0.72136 0.0
H1478 H 0.34387 0.80664 0.54014 0.0
H1479 H 0.33462 0.76848 0.59625 0.0
H1480 H 0.34756 0.87056 0.51922 0.0
H1481 H 0.39372 0.9224 0.51768 0.0
C1482 C 0.18807 0.31403 0.63612 0.0
C1483 C 0.22041 0.32199 0.68172 0.0
C1484 C 0.20072 0.38303 0.68168 0.0
C1485 C 0.17297 0.37845 0.63232 0.0
N1486 N 0.14677 0.33956 0.56099 0.0
N1487 N 0.25748 0.36766 0.74657 0.0
C1488 C 0.16851 0.3438 0.60956 0.0
C1489 C 0.22694 0.35796 0.70347 0.0
N1490 N 0.17533 0.277 0.61731 0.0
N1491 N 0.19901 0.40865 0.71058 0.0
H1492 H 0.27419 0.34866 0.76502 0.0
H1493 H 0.26875 0.39599 0.76169 0.0
H1494 H 0.17728 0.42345 0.69951 0.0
H1495 H 0.21437 0.41077 0.74824 0.0
H1496 H 0.14801 0.26547 0.58894 0.0
H1497 H 0.19146 0.25702 0.63158 0.0
H1498 H 0.1474 0.31939 0.53944 0.0
H1499 H 0.13119 0.35876 0.54016 0.0
C1500 C 0.67027 0.15931 0.62042 0.0
C1501 C 0.71588 0.16986 0.64361 0.0
C1502 C 0.70608 0.1023 0.61892 0.0
C1503 C 0.66206 0.09455 0.59079 0.0
N1504 N 0.61539 0.13128 0.54817 0.0
N1505 N 0.78093 0.15815 0.64477 0.0
C1506 C 0.64811 0.12782 0.58646 0.0
C1507 C 0.73495 0.14347 0.63644 0.0
N1508 N 0.64631 0.17652 0.63307 0.0
N1509 N 0.72018 0.07032 0.63206 0.0
H1510 H 0.80291 0.18932 0.65343 0.0
H1511 H 0.79678 0.14166 0.63669 0.0
H1512 H 0.69947 0.03846 0.62549 0.0
H1513 H 0.75068 0.07423 0.65559 0.0
H1514 H 0.61198 0.1675 0.6192 0.0
H1515 H 0.65902 0.19433 0.66292 0.0
H1516 H 0.60584 0.15636 0.54221 0.0
H1517 H 0.60402 0.11373 0.51814 0.0
C1518 C 0.91207 0.38779 0.33476 0.0
C1519 C 0.86631 0.35882 0.34448 0.0
C1520 C 0.8744 0.40686 0.40261 0.0
C1521 C 0.92001 0.4349 0.39344 0.0
N1522 N 0.97752 0.45816 0.34039 0.0
N1523 N 0.81076 0.33524 0.40053 0.0
C1524 C 0.93776 0.42654 0.35736 0.0
C1525 C 0.8492 0.36722 0.38151 0.0
N1526 N 0.93181 0.37903 0.30365 0.0
N1527 N 0.85457 0.41805 0.43119 0.0
H1528 H 0.79472 0.30411 0.39081 0.0
H1529 H 0.79834 0.33736 0.43071 0.0
H1530 H 0.87224 0.44443 0.45094 0.0
H1531 H 0.81966 0.40288 0.43216 0.0
H1532 H 0.96679 0.39319 0.30351 0.0
H1533 H 0.91368 0.35797 0.27738 0.0
H1534 H 0.98967 0.45746 0.30912 0.0
H1535 H 0.99625 0.48794 0.35369 0.0
C1536 C 0.61053 0.82557 0.44931 0.0
C1537 C 0.64244 0.8418 0.41467 0.0
C1538 C 0.66853 0.91589 0.43178 0.0
C1539 C 0.63126 0.90081 0.45859 0.0
N1540 N 0.56528 0.84028 0.49209 0.0
N1541 N 0.69975 0.90327 0.36929 0.0
C1542 C 0.60233 0.8552 0.46793 0.0
C1543 C 0.67159 0.88711 0.40572 0.0
N1544 N 0.5877 0.78161 0.46399 0.0
N1545 N 0.7007 0.958 0.43005 0.0
H1546 H 0.70314 0.88363 0.34924 0.0
H1547 H 0.71708 0.93636 0.35579 0.0
H1548 H 0.69949 0.98051 0.44744 0.0
H1549 H 0.73097 0.96869 0.41616 0.0
H1550 H 0.56751 0.76758 0.49312 0.0
H1551 H 0.59255 0.75919 0.45037 0.0
H1552 H 0.5395 0.80852 0.49385 0.0
H1553 H 0.55864 0.86037 0.50786 0.0
C1554 C 0.2063 0.68341 0.37336 0.0
C1555 C 0.19379 0.68357 0.31989 0.0
C1556 C 0.12337 0.6154 0.33795 0.0
C1557 C 0.13946 0.61191 0.39104 0.0
N1558 N 0.20291 0.6395 0.45717 0.0
N1559 N 0.14215 0.64464 0.2518 0.0
C1560 C 0.1828 0.64513 0.40812 0.0
C1561 C 0.15252 0.64825 0.30246 0.0
N1562 N 0.23958 0.72018 0.39136 0.0
N1563 N 0.08024 0.58692 0.32105 0.0
H1564 H 0.16298 0.66662 0.22485 0.0
H1565 H 0.11556 0.61751 0.23723 0.0
H1566 H 0.0585 0.5622 0.34558 0.0
H1567 H 0.0646 0.59033 0.28358 0.0
H1568 H 0.24736 0.72332 0.42986 0.0
H1569 H 0.25602 0.74892 0.36718 0.0
H1570 H 0.23593 0.66073 0.47048 0.0
H1571 H 0.18821 0.61164 0.4834 0.0
C1572 C 0.314 0.13851 0.34439 0.0
C1573 C 0.33413 0.18335 0.32163 0.0
C1574 C 0.40953 0.17851 0.35354 0.0
C1575 C 0.38831 0.13183 0.37069 0.0
N1576 N 0.31268 0.069 0.36314 0.0
N1577 N 0.40471 0.24372 0.30013 0.0
C1578 C 0.339 0.11266 0.36017 0.0
C1579 C 0.38298 0.20256 0.32518 0.0
N1580 N 0.2692 0.11892 0.35096 0.0
N1581 N 0.45569 0.2007 0.36316 0.0
H1582 H 0.3878 0.2625 0.28164 0.0
H1583 H 0.43875 0.25819 0.29498 0.0
H1584 H 0.47677 0.18539 0.37727 0.0
H1585 H 0.47295 0.23455 0.35918 0.0
H1586 H 0.25259 0.08633 0.36726 0.0
H1587 H 0.25002 0.13611 0.34486 0.0
H1588 H 0.32418 0.04534 0.37036 0.0
H1589 H 0.32418 0.04534 0.37036 0.0
C1590 C 0.68758 0.81966 0.67716 0.0
C1591 C 0.73411 0.8354 0.67026 0.0
C1592 C 0.72286 0.89649 0.60625 0.0
C1593 C 0.6798 0.88548 0.61992 0.0
N1594 N 0.62284 0.83483 0.6732 0.0
N1595 N 0.79571 0.89369 0.62756 0.0
C1596 C 0.66255 0.8462 0.65632 0.0
C1597 C 0.75125 0.87523 0.6347 0.0
N1598 N 0.66652 0.77872 0.70301 0.0
N1599 N 0.73599 0.92585 0.56326 0.0
H1600 H 0.81674 0.87849 0.64337 0.0
H1601 H 0.81208 0.92489 0.6076 0.0
H1602 H 0.71654 0.94124 0.54086 0.0
H1603 H 0.76313 0.93084 0.54651 0.0
H1604 H 0.63197 0.76302 0.70608 0.0
H1605 H 0.68286 0.75876 0.71648 0.0
H1606 H 0.61049 0.81003 0.70346 0.0
H1607 H 0.60407 0.85261 0.65953 0.0
C1608 C 0.7035 0.1365 0.34533 0.0
C1609 C 0.70988 0.17999 0.34199 0.0
C1610 C 0.64524 0.14719 0.39308 0.0
C1611 C 0.64206 0.10447 0.39871 0.0
N1612 N 0.68808 0.06834 0.40108 0.0
N1613 N 0.69632 0.22487 0.3833 0.0
C1614 C 0.67693 0.10202 0.38084 0.0
C1615 C 0.68349 0.18486 0.37201 0.0
N1616 N 0.72322 0.12722 0.31509 0.0
N1617 N 0.61215 0.15248 0.40691 0.0
H1618 H 0.72415 0.25229 0.36966 0.0
H1619 H 0.68158 0.22982 0.40919 0.0
H1620 H 0.58292 0.1264 0.41954 0.0
H1621 H 0.61195 0.18267 0.40131 0.0
H1622 H 0.71465 0.0954 0.31145 0.0
H1623 H 0.74309 0.15106 0.28916 0.0
H1624 H 0.71345 0.06535 0.38936 0.0
H1625 H 0.6772 0.04745 0.43462 0.0
C1626 C 0.83524 0.65526 0.32991 0.0
C1627 C 0.85666 0.70064 0.33352 0.0
C1628 C 0.9261 0.68929 0.37821 0.0
C1629 C 0.90288 0.64285 0.37968 0.0
N1630 N 0.82727 0.58303 0.37068 0.0
N1631 N 0.9211 0.75644 0.37596 0.0
C1632 C 0.85513 0.62638 0.3595 0.0
C1633 C 0.90153 0.71598 0.36235 0.0
N1634 N 0.79673 0.6393 0.29629 0.0
N1635 N 0.97235 0.70921 0.38918 0.0
H1636 H 0.90446 0.77623 0.36735 0.0
H1637 H 0.95139 0.76805 0.40085 0.0
H1638 H 0.99218 0.69255 0.39774 0.0
H1639 H 0.99138 0.74296 0.38377 0.0
H1640 H 0.78148 0.60745 0.2887 0.0
H1641 H 0.78368 0.65958 0.27189 0.0
H1642 H 0.79207 0.56998 0.36058 0.0
H1643 H 0.8382 0.56147 0.39614 0.0
C1644 C 0.39276 0.90818 0.31807 0.0
C1645 C 0.36917 0.86426 0.34176 0.0
C1646 C 0.40995 0.89005 0.42421 0.0
C1647 C 0.42277 0.93431 0.4011 0.0
N1648 N 0.42394 0.98485 0.32309 0.0
N1649 N 0.35433 0.81501 0.42187 0.0
C1650 C 0.41281 0.94309 0.3472 0.0
C1651 C 0.37772 0.85553 0.39615 0.0
N1652 N 0.40079 0.91649 0.269 0.0
N1653 N 0.42945 0.88059 0.47236 0.0
H1654 H 0.32877 0.7893 0.40427 0.0
H1655 H 0.35744 0.80799 0.46146 0.0
H1656 H 0.4533 0.90464 0.49374 0.0
H1657 H 0.42506 0.84917 0.48897 0.0
H1658 H 0.42107 0.94748 0.2512 0.0
H1659 H 0.39217 0.89164 0.24865 0.0
H1660 H 0.41347 0.99219 0.28433 0.0
H1661 H 0.44087 0.01166 0.34232 0.0
C1662 C 0.26099 0.45442 0.4446 0.0
C1663 C 0.24537 0.41017 0.43993 0.0
C1664 C 0.16853 0.39623 0.44946 0.0
C1665 C 0.1858 0.43861 0.4626 0.0
N1666 N 0.25219 0.50634 0.47898 0.0
N1667 N 0.18508 0.33666 0.44932 0.0
C1668 C 0.2332 0.46696 0.4627 0.0
C1669 C 0.19926 0.38048 0.44516 0.0
N1670 N 0.30125 0.48531 0.42849 0.0
N1671 N 0.12275 0.37011 0.44215 0.0
H1672 H 0.20702 0.32303 0.45166 0.0
H1673 H 0.1526 0.31327 0.45652 0.0
H1674 H 0.09864 0.37645 0.45176 0.0
H1675 H 0.10859 0.34227 0.42506 0.0
H1676 H 0.31213 0.51864 0.42596 0.0
H1677 H 0.3211 0.47809 0.41173 0.0
H1678 H 0.28723 0.52537 0.48539 0.0
H1679 H 0.23387 0.51896 0.48967 0.0
C1680 C 0.40523 0.12646 0.61655 0.0
C1681 C 0.37885 0.14418 0.57933 0.0
C1682 C 0.36763 0.0947 0.52213 0.0
C1683 C 0.40068 0.08297 0.55543 0.0
N1684 N 0.42772 0.06788 0.64442 0.0
N1685 N 0.32467 0.13638 0.5027 0.0
C1686 C 0.41194 0.0925 0.60608 0.0
C1687 C 0.35641 0.12501 0.53445 0.0
N1688 N 0.4264 0.14382 0.66044 0.0
N1689 N 0.3449 0.07662 0.47944 0.0
H1690 H 0.31467 0.15752 0.5114 0.0
H1691 H 0.30799 0.12389 0.46873 0.0
H1692 H 0.34794 0.05144 0.46984 0.0
H1693 H 0.34794 0.05144 0.46984 0.0
H1694 H 0.45069 0.13591 0.68586 0.0
H1695 H 0.42143 0.16788 0.67012 0.0
H1696 H 0.43314 0.07078 0.68277 0.0
H1697 H 0.42964 0.04082 0.63813 0.0
C1698 C 0.87304 0.32947 0.62072 0.0
C1699 C 0.88324 0.33409 0.67323 0.0
C1700 C 0.95295 0.40244 0.65252 0.0
C1701 C 0.9393 0.40107 0.59956 0.0
N1702 N 0.88583 0.36246 0.53281 0.0
N1703 N 0.92895 0.38139 0.73534 0.0
C1704 C 0.89912 0.36419 0.58374 0.0
C1705 C 0.92278 0.37189 0.68807 0.0
N1706 N 0.8392 0.29136 0.60618 0.0
N1707 N 0.99446 0.43362 0.66935 0.0
H1708 H 0.90374 0.36362 0.75842 0.0
H1709 H 0.95411 0.41014 0.74791 0.0
H1710 H 1.01698 0.45734 0.64497 0.0
H1711 H 1.0085 0.43328 0.70768 0.0
H1712 H 0.83275 0.28358 0.56985 0.0
H1713 H 0.81913 0.26613 0.63169 0.0
H1714 H 0.85411 0.34045 0.51749 0.0
H1715 H 0.90664 0.38436 0.50572 0.0
C1716 C 0.2036 0.66404 0.60229 0.0
C1717 C 0.21439 0.65494 0.65598 0.0
C1718 C 0.17131 0.57635 0.65083 0.0
C1719 C 0.15756 0.58576 0.59781 0.0
N1720 N 0.14894 0.64001 0.52795 0.0
N1721 N 0.19283 0.60163 0.73145 0.0
C1722 C 0.16985 0.63001 0.57502 0.0
C1723 C 0.1943 0.61081 0.68033 0.0
N1724 N 0.2271 0.70451 0.5766 0.0
N1725 N 0.1606 0.53435 0.67405 0.0
H1726 H 0.20316 0.626 0.75278 0.0
H1727 H 0.17514 0.5705 0.75083 0.0
H1728 H 0.13891 0.50726 0.65617 0.0
H1729 H 0.17518 0.52663 0.71088 0.0
H1730 H 0.22332 0.71173 0.53688 0.0
H1731 H 0.25379 0.72934 0.59489 0.0
H1732 H 0.15369 0.6717 0.5123 0.0
H1733 H 0.12438 0.6165 0.50629 0.0
loop_
_geom_bond_atom_site_label_1
_geom_bond_atom_site_label_2
_geom_bond_distance
_geom_bond_site_symmetry_2
_ccdc_geom_bond_type
Tb0 N31 2.660 . S
Tb0 N38 2.600 . S
Tb0 O44 2.546 . S
Tb0 O45 2.610 . S
Tb0 O47 2.320 . S
Tb0 O48 2.552 . S
Tb0 O49 2.413 . S
Tb0 O51 2.362 . S
Tb0 O52 2.421 . S
Tb0 C64 2.833 . S
C1 C4 1.432 . S
C1 C5 1.414 . S
C1 N8 1.359 . S
C2 C4 1.417 . S
C2 C6 1.432 . S
C2 C14 1.410 . S
C3 C5 1.444 . S
C3 C6 1.317 . S
C3 H26 0.929 . S
C4 C1 1.432 . S
C4 C2 1.417 . S
C4 N12 1.360 . S
C5 C1 1.414 . S
C5 C3 1.444 . S
C5 C10 1.385 . S
C6 C2 1.432 . S
C6 C3 1.317 . S
C6 H18 0.930 . S
C7 C9 1.392 . S
C7 C10 1.370 . S
C7 H19 0.931 . S
N8 C1 1.359 . S
N8 C9 1.327 . S
N8 Tb11 2.600 . S
C9 C7 1.392 . S
C9 N8 1.327 . S
C9 H16 0.930 . S
C10 C5 1.385 . S
C10 C7 1.370 . S
C10 H29 0.930 . S
Tb11 N8 2.600 . S
Tb11 N12 2.660 . S
Tb11 O45 2.362 . S
Tb11 O46 2.421 . S
Tb11 O50 2.546 . S
Tb11 O51 2.610 . S
Tb11 O53 2.320 . S
Tb11 O54 2.552 . S
Tb11 O55 2.413 . S
Tb11 C75 2.833 . S
N12 C4 1.360 . S
N12 Tb11 2.660 . S
N12 C13 1.305 . S
C13 N12 1.305 . S
C13 C15 1.407 . S
C13 H20 0.930 . S
C14 C2 1.410 . S
C14 C15 1.345 . S
C14 H22 0.930 . S
C15 C13 1.407 . S
C15 C14 1.345 . S
C15 H17 0.930 . S
H16 C9 0.930 . S
H17 C15 0.930 . S
H18 C6 0.930 . S
H19 C7 0.931 . S
H20 C13 0.930 . S
H21 C35 0.930 . S
H22 C14 0.930 . S
H23 C41 0.930 . S
H24 C32 0.930 . S
H25 C39 0.931 . S
H26 C3 0.929 . S
H27 C33 0.930 1_556 S
H28 C66 0.930 1_556 S
H29 C10 0.930 . S
H30 C65 0.929 . S
N31 Tb0 2.660 . S
N31 C32 1.305 . S
N31 C36 1.360 . S
C32 H24 0.930 . S
C32 N31 1.305 . S
C32 C35 1.407 . S
C33 H27 0.930 1_554 S
C33 C34 1.410 . S
C33 C35 1.345 . S
C34 C33 1.410 . S
C34 C36 1.417 . S
C34 C66 1.432 . S
C35 H21 0.930 . S
C35 C32 1.407 . S
C35 C33 1.345 . S
C36 N31 1.360 . S
C36 C34 1.417 . S
C36 C40 1.432 . S
H37 C42 0.930 . S
N38 Tb0 2.600 . S
N38 C40 1.359 . S
N38 C41 1.327 . S
C39 H25 0.931 . S
C39 C41 1.392 . S
C39 C42 1.370 . S
C40 C36 1.432 . S
C40 N38 1.359 . S
C40 C43 1.414 . S
C41 H23 0.930 . S
C41 N38 1.327 . S
C41 C39 1.392 . S
C42 H37 0.930 . S
C42 C39 1.370 . S
C42 C43 1.385 . S
C43 C40 1.414 . S
C43 C42 1.385 . S
C43 C65 1.444 . S
O44 Tb0 2.546 . S
O44 C64 1.251 . S
O45 Tb0 2.610 . S
O45 Tb11 2.362 . S
O45 C56 1.283 . S
O46 Tb11 2.421 . S
O46 C63 1.262 . S
O47 Tb0 2.320 . S
O47 C63 1.260 . S
O48 Tb0 2.552 . S
O48 C56 1.243 . S
O49 Tb0 2.413 . S
O49 C64 1.256 . S
O50 Tb11 2.546 . S
O50 C75 1.251 . S
O51 Tb0 2.362 . S
O51 Tb11 2.610 . S
O51 C67 1.283 . S
O52 Tb0 2.421 . S
O52 C74 1.262 . S
O53 Tb11 2.320 . S
O53 C74 1.260 . S
O54 Tb11 2.552 . S
O54 C67 1.243 . S
O55 Tb11 2.413 . S
O55 C75 1.256 . S
C56 O45 1.283 . S
C56 O48 1.243 . S
C57 C59 1.382 . S
C57 C61 1.393 . S
C57 C64 1.500 . S
C58 C59 1.400 . S
C58 C60 1.384 . S
C59 C57 1.382 . S
C59 C58 1.400 . S
C59 H76 0.930 . S
C60 C58 1.384 . S
C60 C62 1.392 . S
C60 H77 0.931 . S
C61 C57 1.393 . S
C61 C62 1.401 . S
C61 H78 0.930 . S
C62 C60 1.392 . S
C62 C61 1.401 . S
C62 H79 0.930 . S
C63 O46 1.262 . S
C63 O47 1.260 . S
C64 Tb0 2.833 . S
C64 O44 1.251 . S
C64 O49 1.256 . S
C64 C57 1.500 . S
C65 H30 0.929 . S
C65 C43 1.444 . S
C65 C66 1.317 . S
C66 H28 0.930 1_554 S
C66 C34 1.432 . S
C66 C65 1.317 . S
C67 O51 1.283 . S
C67 O54 1.243 . S
C68 C69 1.382 . S
C68 C72 1.393 . S
C68 C75 1.500 . S
C69 C68 1.382 . S
C69 C70 1.400 . S
C69 H80 0.930 . S
C70 C69 1.400 . S
C70 C71 1.384 . S
C71 C70 1.384 . S
C71 C73 1.392 . S
C71 H81 0.931 . S
C72 C68 1.393 . S
C72 C73 1.401 . S
C72 H82 0.930 . S
C73 C71 1.392 . S
C73 C72 1.401 . S
C73 H83 0.930 . S
C74 O52 1.262 . S
C74 O53 1.260 . S
C75 Tb11 2.833 . S
C75 O50 1.251 . S
C75 O55 1.256 . S
C75 C68 1.500 . S
H76 C59 0.930 . S
H77 C60 0.931 . S
H78 C61 0.930 . S
H79 C62 0.930 . S
H80 C69 0.930 . S
H81 C71 0.931 . S
H82 C72 0.930 . S
H83 C73 0.930 . S
Tb84 N115 2.660 . S
Tb84 N122 2.600 . S
Tb84 O128 2.546 . S
Tb84 O129 2.610 . S
Tb84 O131 2.320 . S
Tb84 O132 2.552 . S
Tb84 O133 2.413 . S
Tb84 O135 2.362 . S
Tb84 O136 2.421 . S
Tb84 C148 2.833 . S
C85 C88 1.432 . S
C85 C89 1.414 . S
C85 N92 1.359 . S
C86 C88 1.417 . S
C86 C90 1.432 . S
C86 C98 1.410 . S
C87 C89 1.444 . S
C87 C90 1.317 . S
C87 H110 0.929 . S
C88 C85 1.432 . S
C88 C86 1.417 . S
C88 N96 1.360 . S
C89 C85 1.414 . S
C89 C87 1.444 . S
C89 C94 1.385 . S
C90 C86 1.432 . S
C90 C87 1.317 . S
C90 H102 0.930 . S
C91 C93 1.392 . S
C91 C94 1.370 . S
C91 H103 0.931 . S
N92 C85 1.359 . S
N92 C93 1.327 . S
N92 Tb95 2.600 . S
C93 C91 1.392 . S
C93 N92 1.327 . S
C93 H100 0.930 . S
C94 C89 1.385 . S
C94 C91 1.370 . S
C94 H113 0.930 . S
Tb95 N92 2.600 . S
Tb95 N96 2.660 . S
Tb95 O129 2.362 . S
Tb95 O130 2.421 . S
Tb95 O134 2.546 . S
Tb95 O135 2.610 . S
Tb95 O137 2.320 . S
Tb95 O138 2.552 . S
Tb95 O139 2.413 . S
Tb95 C159 2.833 . S
N96 C88 1.360 . S
N96 Tb95 2.660 . S
N96 C97 1.305 . S
C97 N96 1.305 . S
C97 C99 1.407 . S
C97 H104 0.930 . S
C98 C86 1.410 . S
C98 C99 1.345 . S
C98 H106 0.930 . S
C99 C97 1.407 . S
C99 C98 1.345 . S
C99 H101 0.930 . S
H100 C93 0.930 . S
H101 C99 0.930 . S
H102 C90 0.930 . S
H103 C91 0.931 . S
H104 C97 0.930 . S
H105 C119 0.930 . S
H106 C98 0.930 . S
H107 C125 0.930 . S
H108 C116 0.930 . S
H109 C123 0.931 . S
H110 C87 0.929 . S
H111 C117 0.930 . S
H112 C150 0.930 . S
H113 C94 0.930 . S
H114 C149 0.929 . S
N115 Tb84 2.660 . S
N115 C116 1.305 . S
N115 C120 1.360 . S
C116 H108 0.930 . S
C116 N115 1.305 . S
C116 C119 1.407 . S
C117 H111 0.930 . S
C117 C118 1.410 . S
C117 C119 1.345 . S
C118 C117 1.410 . S
C118 C120 1.417 . S
C118 C150 1.432 . S
C119 H105 0.930 . S
C119 C116 1.407 . S
C119 C117 1.345 . S
C120 N115 1.360 . S
C120 C118 1.417 . S
C120 C124 1.432 . S
H121 C126 0.930 . S
N122 Tb84 2.600 . S
N122 C124 1.359 . S
N122 C125 1.327 . S
C123 H109 0.931 . S
C123 C125 1.392 . S
C123 C126 1.370 . S
C124 C120 1.432 . S
C124 N122 1.359 . S
C124 C127 1.414 . S
C125 H107 0.930 . S
C125 N122 1.327 . S
C125 C123 1.392 . S
C126 H121 0.930 . S
C126 C123 1.370 . S
C126 C127 1.385 . S
C127 C124 1.414 . S
C127 C126 1.385 . S
C127 C149 1.444 . S
O128 Tb84 2.546 . S
O128 C148 1.251 . S
O129 Tb84 2.610 . S
O129 Tb95 2.362 . S
O129 C140 1.283 . S
O130 Tb95 2.421 . S
O130 C147 1.262 . S
O131 Tb84 2.320 . S
O131 C147 1.260 . S
O132 Tb84 2.552 . S
O132 C140 1.243 . S
O133 Tb84 2.413 . S
O133 C148 1.256 . S
O134 Tb95 2.546 . S
O134 C159 1.251 . S
O135 Tb84 2.362 . S
O135 Tb95 2.610 . S
O135 C151 1.283 . S
O136 Tb84 2.421 . S
O136 C158 1.262 . S
O137 Tb95 2.320 . S
O137 C158 1.260 . S
O138 Tb95 2.552 . S
O138 C151 1.243 . S
O139 Tb95 2.413 . S
O139 C159 1.256 . S
C140 O129 1.283 . S
C140 O132 1.243 . S
C141 C143 1.382 . S
C141 C145 1.393 . S
C141 C148 1.500 . S
C142 C143 1.400 . S
C142 C144 1.384 . S
C143 C141 1.382 . S
C143 C142 1.400 . S
C143 H160 0.930 . S
C144 C142 1.384 . S
C144 C146 1.392 . S
C144 H161 0.931 . S
C145 C141 1.393 . S
C145 C146 1.401 . S
C145 H162 0.930 . S
C146 C144 1.392 . S
C146 C145 1.401 . S
C146 H163 0.930 . S
C147 O130 1.262 . S
C147 O131 1.260 . S
C148 Tb84 2.833 . S
C148 O128 1.251 . S
C148 O133 1.256 . S
C148 C141 1.500 . S
C149 H114 0.929 . S
C149 C127 1.444 . S
C149 C150 1.317 . S
C150 H112 0.930 . S
C150 C118 1.432 . S
C150 C149 1.317 . S
C151 O135 1.283 . S
C151 O138 1.243 . S
C152 C153 1.382 . S
C152 C156 1.393 . S
C152 C159 1.500 . S
C153 C152 1.382 . S
C153 C154 1.400 . S
C153 H164 0.930 . S
C154 C153 1.400 . S
C154 C155 1.384 . S
C155 C154 1.384 . S
C155 C157 1.392 . S
C155 H165 0.931 . S
C156 C152 1.393 . S
C156 C157 1.401 . S
C156 H166 0.930 . S
C157 C155 1.392 . S
C157 C156 1.401 . S
C157 H167 0.930 . S
C158 O136 1.262 . S
C158 O137 1.260 . S
C159 Tb95 2.833 . S
C159 O134 1.251 . S
C159 O139 1.256 . S
C159 C152 1.500 . S
H160 C143 0.930 . S
H161 C144 0.931 . S
H162 C145 0.930 . S
H163 C146 0.930 . S
H164 C153 0.930 . S
H165 C155 0.931 . S
H166 C156 0.930 . S
H167 C157 0.930 . S
Tb168 N199 2.660 . S
Tb168 N206 2.600 . S
Tb168 O212 2.546 . S
Tb168 O213 2.610 . S
Tb168 O215 2.320 . S
Tb168 O216 2.552 . S
Tb168 O217 2.413 . S
Tb168 O219 2.362 . S
Tb168 O220 2.421 . S
Tb168 C232 2.833 . S
C169 C172 1.432 . S
C169 C173 1.414 . S
C169 N176 1.359 . S
C170 C172 1.417 . S
C170 C174 1.432 . S
C170 C182 1.410 . S
C171 C173 1.444 . S
C171 C174 1.317 . S
C171 H194 0.929 . S
C172 C169 1.432 . S
C172 C170 1.417 . S
C172 N180 1.360 . S
C173 C169 1.414 . S
C173 C171 1.444 . S
C173 C178 1.385 . S
C174 C170 1.432 . S
C174 C171 1.317 . S
C174 H186 0.930 1_554 S
C175 C177 1.392 . S
C175 C178 1.370 . S
C175 H187 0.931 . S
N176 C169 1.359 . S
N176 C177 1.327 . S
N176 Tb179 2.600 . S
C177 C175 1.392 . S
C177 N176 1.327 . S
C177 H184 0.930 . S
C178 C173 1.385 . S
C178 C175 1.370 . S
C178 H197 0.930 . S
Tb179 N176 2.600 . S
Tb179 N180 2.660 . S
Tb179 O213 2.362 . S
Tb179 O214 2.421 . S
Tb179 O218 2.546 . S
Tb179 O219 2.610 . S
Tb179 O221 2.320 . S
Tb179 O222 2.552 . S
Tb179 O223 2.413 . S
Tb179 C243 2.833 . S
N180 C172 1.360 . S
N180 Tb179 2.660 . S
N180 C181 1.305 . S
C181 N180 1.305 . S
C181 C183 1.407 . S
C181 H188 0.930 . S
C182 C170 1.410 . S
C182 C183 1.345 . S
C182 H190 0.930 1_554 S
C183 C181 1.407 . S
C183 C182 1.345 . S
C183 H185 0.930 . S
H184 C177 0.930 . S
H185 C183 0.930 . S
H186 C174 0.930 1_556 S
H187 C175 0.931 . S
H188 C181 0.930 . S
H189 C203 0.930 . S
H190 C182 0.930 1_556 S
H191 C209 0.930 . S
H192 C200 0.930 . S
H193 C207 0.931 . S
H194 C171 0.929 . S
H195 C201 0.930 . S
H196 C234 0.930 . S
H197 C178 0.930 . S
H198 C233 0.929 . S
N199 Tb168 2.660 . S
N199 C200 1.305 . S
N199 C204 1.360 . S
C200 H192 0.930 . S
C200 N199 1.305 . S
C200 C203 1.407 . S
C201 H195 0.930 . S
C201 C202 1.410 . S
C201 C203 1.345 . S
C202 C201 1.410 . S
C202 C204 1.417 . S
C202 C234 1.432 . S
C203 H189 0.930 . S
C203 C200 1.407 . S
C203 C201 1.345 . S
C204 N199 1.360 . S
C204 C202 1.417 . S
C204 C208 1.432 . S
H205 C210 0.930 . S
N206 Tb168 2.600 . S
N206 C208 1.359 . S
N206 C209 1.327 . S
C207 H193 0.931 . S
C207 C209 1.392 . S
C207 C210 1.370 . S
C208 C204 1.432 . S
C208 N206 1.359 . S
C208 C211 1.414 . S
C209 H191 0.930 . S
C209 N206 1.327 . S
C209 C207 1.392 . S
C210 H205 0.930 . S
C210 C207 1.370 . S
C210 C211 1.385 . S
C211 C208 1.414 . S
C211 C210 1.385 . S
C211 C233 1.444 . S
O212 Tb168 2.546 . S
O212 C232 1.251 . S
O213 Tb168 2.610 . S
O213 Tb179 2.362 . S
O213 C224 1.283 . S
O214 Tb179 2.421 . S
O214 C231 1.262 . S
O215 Tb168 2.320 . S
O215 C231 1.260 . S
O216 Tb168 2.552 . S
O216 C224 1.243 . S
O217 Tb168 2.413 . S
O217 C232 1.256 . S
O218 Tb179 2.546 . S
O218 C243 1.251 . S
O219 Tb168 2.362 . S
O219 Tb179 2.610 . S
O219 C235 1.283 . S
O220 Tb168 2.421 . S
O220 C242 1.262 . S
O221 Tb179 2.320 . S
O221 C242 1.260 . S
O222 Tb179 2.552 . S
O222 C235 1.243 . S
O223 Tb179 2.413 . S
O223 C243 1.256 . S
C224 O213 1.283 . S
C224 O216 1.243 . S
C225 C227 1.382 . S
C225 C229 1.393 . S
C225 C232 1.500 . S
C226 C227 1.400 . S
C226 C228 1.384 . S
C227 C225 1.382 . S
C227 C226 1.400 . S
C227 H244 0.930 . S
C228 C226 1.384 . S
C228 C230 1.392 . S
C228 H245 0.931 . S
C229 C225 1.393 . S
C229 C230 1.401 . S
C229 H246 0.930 . S
C230 C228 1.392 . S
C230 C229 1.401 . S
C230 H247 0.930 . S
C231 O214 1.262 . S
C231 O215 1.260 . S
C232 Tb168 2.833 . S
C232 O212 1.251 . S
C232 O217 1.256 . S
C232 C225 1.500 . S
C233 H198 0.929 . S
C233 C211 1.444 . S
C233 C234 1.317 . S
C234 H196 0.930 . S
C234 C202 1.432 . S
C234 C233 1.317 . S
C235 O219 1.283 . S
C235 O222 1.243 . S
C236 C237 1.382 . S
C236 C240 1.393 . S
C236 C243 1.500 . S
C237 C236 1.382 . S
C237 C238 1.400 . S
C237 H248 0.930 . S
C238 C237 1.400 . S
C238 C239 1.384 . S
C239 C238 1.384 . S
C239 C241 1.392 . S
C239 H249 0.931 . S
C240 C236 1.393 . S
C240 C241 1.401 . S
C240 H250 0.930 . S
C241 C239 1.392 . S
C241 C240 1.401 . S
C241 H251 0.930 . S
C242 O220 1.262 . S
C242 O221 1.260 . S
C243 Tb179 2.833 . S
C243 O218 1.251 . S
C243 O223 1.256 . S
C243 C236 1.500 . S
H244 C227 0.930 . S
H245 C228 0.931 . S
H246 C229 0.930 . S
H247 C230 0.930 . S
H248 C237 0.930 . S
H249 C239 0.931 . S
H250 C240 0.930 . S
H251 C241 0.930 . S
Tb252 N283 2.660 . S
Tb252 N290 2.600 . S
Tb252 O296 2.546 . S
Tb252 O297 2.610 . S
Tb252 O299 2.320 . S
Tb252 O300 2.552 . S
Tb252 O301 2.413 . S
Tb252 O303 2.362 . S
Tb252 O304 2.421 . S
Tb252 C316 2.833 . S
C253 C256 1.432 . S
C253 C257 1.414 . S
C253 N260 1.359 . S
C254 C256 1.417 . S
C254 C258 1.432 . S
C254 C266 1.410 . S
C255 C257 1.444 . S
C255 C258 1.317 . S
C255 H278 0.929 1_554 S
C256 C253 1.432 . S
C256 C254 1.417 . S
C256 N264 1.360 . S
C257 C253 1.414 . S
C257 C255 1.444 . S
C257 C262 1.385 . S
C258 C254 1.432 . S
C258 C255 1.317 . S
C258 H270 0.930 . S
C259 C261 1.392 . S
C259 C262 1.370 . S
C259 H271 0.931 . S
N260 C253 1.359 . S
N260 C261 1.327 . S
N260 Tb263 2.600 . S
C261 C259 1.392 . S
C261 N260 1.327 . S
C261 H268 0.930 . S
C262 C257 1.385 . S
C262 C259 1.370 . S
C262 H281 0.930 1_554 S
Tb263 N260 2.600 . S
Tb263 N264 2.660 . S
Tb263 O297 2.362 . S
Tb263 O298 2.421 . S
Tb263 O302 2.546 . S
Tb263 O303 2.610 . S
Tb263 O305 2.320 . S
Tb263 O306 2.552 . S
Tb263 O307 2.413 . S
Tb263 C327 2.833 . S
N264 C256 1.360 . S
N264 Tb263 2.660 . S
N264 C265 1.305 . S
C265 N264 1.305 . S
C265 C267 1.407 . S
C265 H272 0.930 . S
C266 C254 1.410 . S
C266 C267 1.345 . S
C266 H274 0.930 . S
C267 C265 1.407 . S
C267 C266 1.345 . S
C267 H269 0.930 . S
H268 C261 0.930 . S
H269 C267 0.930 . S
H270 C258 0.930 . S
H271 C259 0.931 . S
H272 C265 0.930 . S
H273 C287 0.930 . S
H274 C266 0.930 . S
H275 C293 0.930 . S
H276 C284 0.930 . S
H277 C291 0.931 . S
H278 C255 0.929 1_556 S
H279 C285 0.930 . S
H280 C318 0.930 . S
H281 C262 0.930 1_556 S
H282 C317 0.929 . S
N283 Tb252 2.660 . S
N283 C284 1.305 . S
N283 C288 1.360 . S
C284 H276 0.930 . S
C284 N283 1.305 . S
C284 C287 1.407 . S
C285 H279 0.930 . S
C285 C286 1.410 . S
C285 C287 1.345 . S
C286 C285 1.410 . S
C286 C288 1.417 . S
C286 C318 1.432 . S
C287 H273 0.930 . S
C287 C284 1.407 . S
C287 C285 1.345 . S
C288 N283 1.360 . S
C288 C286 1.417 . S
C288 C292 1.432 . S
H289 C294 0.930 . S
N290 Tb252 2.600 . S
N290 C292 1.359 . S
N290 C293 1.327 . S
C291 H277 0.931 . S
C291 C293 1.392 . S
C291 C294 1.370 . S
C292 C288 1.432 . S
C292 N290 1.359 . S
C292 C295 1.414 . S
C293 H275 0.930 . S
C293 N290 1.327 . S
C293 C291 1.392 . S
C294 H289 0.930 . S
C294 C291 1.370 . S
C294 C295 1.385 . S
C295 C292 1.414 . S
C295 C294 1.385 . S
C295 C317 1.444 . S
O296 Tb252 2.546 . S
O296 C316 1.251 . S
O297 Tb252 2.610 . S
O297 Tb263 2.362 . S
O297 C308 1.283 . S
O298 Tb263 2.421 . S
O298 C315 1.262 . S
O299 Tb252 2.320 . S
O299 C315 1.260 . S
O300 Tb252 2.552 . S
O300 C308 1.243 . S
O301 Tb252 2.413 . S
O301 C316 1.256 . S
O302 Tb263 2.546 . S
O302 C327 1.251 . S
O303 Tb252 2.362 . S
O303 Tb263 2.610 . S
O303 C319 1.283 . S
O304 Tb252 2.421 . S
O304 C326 1.262 . S
O305 Tb263 2.320 . S
O305 C326 1.260 . S
O306 Tb263 2.552 . S
O306 C319 1.243 . S
O307 Tb263 2.413 . S
O307 C327 1.256 . S
C308 O297 1.283 . S
C308 O300 1.243 . S
C309 C311 1.382 . S
C309 C313 1.393 . S
C309 C316 1.500 . S
C310 C311 1.400 . S
C310 C312 1.384 . S
C311 C309 1.382 . S
C311 C310 1.400 . S
C311 H328 0.930 . S
C312 C310 1.384 . S
C312 C314 1.392 . S
C312 H329 0.931 . S
C313 C309 1.393 . S
C313 C314 1.401 . S
C313 H330 0.930 . S
C314 C312 1.392 . S
C314 C313 1.401 . S
C314 H331 0.930 . S
C315 O298 1.262 . S
C315 O299 1.260 . S
C316 Tb252 2.833 . S
C316 O296 1.251 . S
C316 O301 1.256 . S
C316 C309 1.500 . S
C317 H282 0.929 . S
C317 C295 1.444 . S
C317 C318 1.317 . S
C318 H280 0.930 . S
C318 C286 1.432 . S
C318 C317 1.317 . S
C319 O303 1.283 . S
C319 O306 1.243 . S
C320 C321 1.382 . S
C320 C324 1.393 . S
C320 C327 1.500 . S
C321 C320 1.382 . S
C321 C322 1.400 . S
C321 H332 0.930 . S
C322 C321 1.400 . S
C322 C323 1.384 . S
C323 C322 1.384 . S
C323 C325 1.392 . S
C323 H333 0.931 . S
C324 C320 1.393 . S
C324 C325 1.401 . S
C324 H334 0.930 . S
C325 C323 1.392 . S
C325 C324 1.401 . S
C325 H335 0.930 . S
C326 O304 1.262 . S
C326 O305 1.260 . S
C327 Tb263 2.833 . S
C327 O302 1.251 . S
C327 O307 1.256 . S
C327 C320 1.500 . S
H328 C311 0.930 . S
H329 C312 0.931 . S
H330 C313 0.930 . S
H331 C314 0.930 . S
H332 C321 0.930 . S
H333 C323 0.931 . S
H334 C324 0.930 . S
H335 C325 0.930 . S
Tb336 N367 2.660 . S
Tb336 N374 2.600 . S
Tb336 O380 2.546 . S
Tb336 O381 2.610 . S
Tb336 O383 2.320 . S
Tb336 O384 2.552 . S
Tb336 O385 2.413 . S
Tb336 O387 2.362 . S
Tb336 O388 2.421 . S
Tb336 C400 2.833 . S
C337 C340 1.432 . S
C337 C341 1.414 . S
C337 N344 1.359 . S
C338 C340 1.417 . S
C338 C342 1.432 . S
C338 C350 1.410 . S
C339 C341 1.444 . S
C339 C342 1.317 . S
C339 H362 0.929 . S
C340 C337 1.432 . S
C340 C338 1.417 . S
C340 N348 1.360 . S
C341 C337 1.414 . S
C341 C339 1.444 . S
C341 C346 1.385 . S
C342 C338 1.432 . S
C342 C339 1.317 . S
C342 H354 0.930 . S
C343 C345 1.392 . S
C343 C346 1.370 . S
C343 H355 0.931 . S
N344 C337 1.359 . S
N344 C345 1.327 . S
N344 Tb347 2.600 . S
C345 C343 1.392 . S
C345 N344 1.327 . S
C345 H352 0.930 . S
C346 C341 1.385 . S
C346 C343 1.370 . S
C346 H365 0.930 . S
Tb347 N344 2.600 . S
Tb347 N348 2.660 . S
Tb347 O381 2.362 . S
Tb347 O382 2.421 . S
Tb347 O386 2.546 . S
Tb347 O387 2.610 . S
Tb347 O389 2.320 . S
Tb347 O390 2.552 . S
Tb347 O391 2.413 . S
Tb347 C411 2.833 . S
N348 C340 1.360 . S
N348 Tb347 2.660 . S
N348 C349 1.305 . S
C349 N348 1.305 . S
C349 C351 1.407 . S
C349 H356 0.930 . S
C350 C338 1.410 . S
C350 C351 1.345 . S
C350 H358 0.930 . S
C351 C349 1.407 . S
C351 C350 1.345 . S
C351 H353 0.930 . S
H352 C345 0.930 . S
H353 C351 0.930 . S
H354 C342 0.930 . S
H355 C343 0.931 . S
H356 C349 0.930 . S
H357 C371 0.930 . S
H358 C350 0.930 . S
H359 C377 0.930 . S
H360 C368 0.930 . S
H361 C375 0.931 . S
H362 C339 0.929 . S
H363 C369 0.930 . S
H364 C402 0.930 . S
H365 C346 0.930 . S
H366 C401 0.929 . S
N367 Tb336 2.660 . S
N367 C368 1.305 . S
N367 C372 1.360 . S
C368 H360 0.930 . S
C368 N367 1.305 . S
C368 C371 1.407 . S
C369 H363 0.930 . S
C369 C370 1.410 . S
C369 C371 1.345 . S
C370 C369 1.410 . S
C370 C372 1.417 . S
C370 C402 1.432 . S
C371 H357 0.930 . S
C371 C368 1.407 . S
C371 C369 1.345 . S
C372 N367 1.360 . S
C372 C370 1.417 . S
C372 C376 1.432 . S
H373 C378 0.930 . S
N374 Tb336 2.600 . S
N374 C376 1.359 . S
N374 C377 1.327 . S
C375 H361 0.931 . S
C375 C377 1.392 . S
C375 C378 1.370 . S
C376 C372 1.432 . S
C376 N374 1.359 . S
C376 C379 1.414 . S
C377 H359 0.930 . S
C377 N374 1.327 . S
C377 C375 1.392 . S
C378 H373 0.930 . S
C378 C375 1.370 . S
C378 C379 1.385 . S
C379 C376 1.414 . S
C379 C378 1.385 . S
C379 C401 1.444 . S
O380 Tb336 2.546 . S
O380 C400 1.251 . S
O381 Tb336 2.610 . S
O381 Tb347 2.362 . S
O381 C392 1.283 . S
O382 Tb347 2.421 . S
O382 C399 1.262 . S
O383 Tb336 2.320 . S
O383 C399 1.260 . S
O384 Tb336 2.552 . S
O384 C392 1.243 . S
O385 Tb336 2.413 . S
O385 C400 1.256 . S
O386 Tb347 2.546 . S
O386 C411 1.251 . S
O387 Tb336 2.362 . S
O387 Tb347 2.610 . S
O387 C403 1.283 . S
O388 Tb336 2.421 . S
O388 C410 1.262 . S
O389 Tb347 2.320 . S
O389 C410 1.260 . S
O390 Tb347 2.552 . S
O390 C403 1.243 . S
O391 Tb347 2.413 . S
O391 C411 1.256 . S
C392 O381 1.283 . S
C392 O384 1.243 . S
C393 C395 1.382 . S
C393 C397 1.393 . S
C393 C400 1.500 . S
C394 C395 1.400 . S
C394 C396 1.384 . S
C395 C393 1.382 . S
C395 C394 1.400 . S
C395 H412 0.930 . S
C396 C394 1.384 . S
C396 C398 1.392 . S
C396 H413 0.931 . S
C397 C393 1.393 . S
C397 C398 1.401 . S
C397 H414 0.930 . S
C398 C396 1.392 . S
C398 C397 1.401 . S
C398 H415 0.930 . S
C399 O382 1.262 . S
C399 O383 1.260 . S
C400 Tb336 2.833 . S
C400 O380 1.251 . S
C400 O385 1.256 . S
C400 C393 1.500 . S
C401 H366 0.929 . S
C401 C379 1.444 . S
C401 C402 1.317 . S
C402 H364 0.930 . S
C402 C370 1.432 . S
C402 C401 1.317 . S
C403 O387 1.283 . S
C403 O390 1.243 . S
C404 C405 1.382 . S
C404 C408 1.393 . S
C404 C411 1.500 . S
C405 C404 1.382 . S
C405 C406 1.400 . S
C405 H416 0.930 . S
C406 C405 1.400 . S
C406 C407 1.384 . S
C407 C406 1.384 . S
C407 C409 1.392 . S
C407 H417 0.931 . S
C408 C404 1.393 . S
C408 C409 1.401 . S
C408 H418 0.930 . S
C409 C407 1.392 . S
C409 C408 1.401 . S
C409 H419 0.930 . S
C410 O388 1.262 . S
C410 O389 1.260 . S
C411 Tb347 2.833 . S
C411 O386 1.251 . S
C411 O391 1.256 . S
C411 C404 1.500 . S
H412 C395 0.930 . S
H413 C396 0.931 . S
H414 C397 0.930 . S
H415 C398 0.930 . S
H416 C405 0.930 . S
H417 C407 0.931 . S
H418 C408 0.930 . S
H419 C409 0.930 . S
Tb420 N451 2.660 . S
Tb420 N458 2.600 . S
Tb420 O464 2.546 . S
Tb420 O465 2.610 . S
Tb420 O467 2.320 . S
Tb420 O468 2.552 . S
Tb420 O469 2.413 . S
Tb420 O471 2.362 . S
Tb420 O472 2.421 . S
Tb420 C484 2.833 . S
C421 C424 1.432 . S
C421 C425 1.414 . S
C421 N428 1.359 . S
C422 C424 1.417 . S
C422 C426 1.432 . S
C422 C434 1.410 . S
C423 C425 1.444 . S
C423 C426 1.317 . S
C423 H446 0.929 . S
C424 C421 1.432 . S
C424 C422 1.417 . S
C424 N432 1.360 . S
C425 C421 1.414 . S
C425 C423 1.444 . S
C425 C430 1.385 . S
C426 C422 1.432 . S
C426 C423 1.317 . S
C426 H438 0.930 . S
C427 C429 1.392 . S
C427 C430 1.370 . S
C427 H439 0.931 . S
N428 C421 1.359 . S
N428 C429 1.327 . S
N428 Tb431 2.600 . S
C429 C427 1.392 . S
C429 N428 1.327 . S
C429 H436 0.930 . S
C430 C425 1.385 . S
C430 C427 1.370 . S
C430 H449 0.930 . S
Tb431 N428 2.600 . S
Tb431 N432 2.660 . S
Tb431 O465 2.362 . S
Tb431 O466 2.421 . S
Tb431 O470 2.546 . S
Tb431 O471 2.610 . S
Tb431 O473 2.320 . S
Tb431 O474 2.552 . S
Tb431 O475 2.413 . S
Tb431 C495 2.833 . S
N432 C424 1.360 . S
N432 Tb431 2.660 . S
N432 C433 1.305 . S
C433 N432 1.305 . S
C433 C435 1.407 . S
C433 H440 0.930 . S
C434 C422 1.410 . S
C434 C435 1.345 . S
C434 H442 0.930 . S
C435 C433 1.407 . S
C435 C434 1.345 . S
C435 H437 0.930 . S
H436 C429 0.930 . S
H437 C435 0.930 . S
H438 C426 0.930 . S
H439 C427 0.931 . S
H440 C433 0.930 . S
H441 C455 0.930 . S
H442 C434 0.930 . S
H443 C461 0.930 . S
H444 C452 0.930 . S
H445 C459 0.931 . S
H446 C423 0.929 . S
H447 C453 0.930 1_554 S
H448 C486 0.930 1_554 S
H449 C430 0.930 . S
H450 C485 0.929 . S
N451 Tb420 2.660 . S
N451 C452 1.305 . S
N451 C456 1.360 . S
C452 H444 0.930 . S
C452 N451 1.305 . S
C452 C455 1.407 . S
C453 H447 0.930 1_556 S
C453 C454 1.410 . S
C453 C455 1.345 . S
C454 C453 1.410 . S
C454 C456 1.417 . S
C454 C486 1.432 . S
C455 H441 0.930 . S
C455 C452 1.407 . S
C455 C453 1.345 . S
C456 N451 1.360 . S
C456 C454 1.417 . S
C456 C460 1.432 . S
H457 C462 0.930 . S
N458 Tb420 2.600 . S
N458 C460 1.359 . S
N458 C461 1.327 . S
C459 H445 0.931 . S
C459 C461 1.392 . S
C459 C462 1.370 . S
C460 C456 1.432 . S
C460 N458 1.359 . S
C460 C463 1.414 . S
C461 H443 0.930 . S
C461 N458 1.327 . S
C461 C459 1.392 . S
C462 H457 0.930 . S
C462 C459 1.370 . S
C462 C463 1.385 . S
C463 C460 1.414 . S
C463 C462 1.385 . S
C463 C485 1.444 . S
O464 Tb420 2.546 . S
O464 C484 1.251 . S
O465 Tb420 2.610 . S
O465 Tb431 2.362 . S
O465 C476 1.283 . S
O466 Tb431 2.421 . S
O466 C483 1.262 . S
O467 Tb420 2.320 . S
O467 C483 1.260 . S
O468 Tb420 2.552 . S
O468 C476 1.243 . S
O469 Tb420 2.413 . S
O469 C484 1.256 . S
O470 Tb431 2.546 . S
O470 C495 1.251 . S
O471 Tb420 2.362 . S
O471 Tb431 2.610 . S
O471 C487 1.283 . S
O472 Tb420 2.421 . S
O472 C494 1.262 . S
O473 Tb431 2.320 . S
O473 C494 1.260 . S
O474 Tb431 2.552 . S
O474 C487 1.243 . S
O475 Tb431 2.413 . S
O475 C495 1.256 . S
C476 O465 1.283 . S
C476 O468 1.243 . S
C477 C479 1.382 . S
C477 C481 1.393 . S
C477 C484 1.500 . S
C478 C479 1.400 . S
C478 C480 1.384 . S
C479 C477 1.382 . S
C479 C478 1.400 . S
C479 H496 0.930 . S
C480 C478 1.384 . S
C480 C482 1.392 . S
C480 H497 0.931 . S
C481 C477 1.393 . S
C481 C482 1.401 . S
C481 H498 0.930 . S
C482 C480 1.392 . S
C482 C481 1.401 . S
C482 H499 0.930 . S
C483 O466 1.262 . S
C483 O467 1.260 . S
C484 Tb420 2.833 . S
C484 O464 1.251 . S
C484 O469 1.256 . S
C484 C477 1.500 . S
C485 H450 0.929 . S
C485 C463 1.444 . S
C485 C486 1.317 . S
C486 H448 0.930 1_556 S
C486 C454 1.432 . S
C486 C485 1.317 . S
C487 O471 1.283 . S
C487 O474 1.243 . S
C488 C489 1.382 . S
C488 C492 1.393 . S
C488 C495 1.500 . S
C489 C488 1.382 . S
C489 C490 1.400 . S
C489 H500 0.930 . S
C490 C489 1.400 . S
C490 C491 1.384 . S
C491 C490 1.384 . S
C491 C493 1.392 . S
C491 H501 0.931 . S
C492 C488 1.393 . S
C492 C493 1.401 . S
C492 H502 0.930 . S
C493 C491 1.392 . S
C493 C492 1.401 . S
C493 H503 0.930 . S
C494 O472 1.262 . S
C494 O473 1.260 . S
C495 Tb431 2.833 . S
C495 O470 1.251 . S
C495 O475 1.256 . S
C495 C488 1.500 . S
H496 C479 0.930 . S
H497 C480 0.931 . S
H498 C481 0.930 . S
H499 C482 0.930 . S
H500 C489 0.930 . S
H501 C491 0.931 . S
H502 C492 0.930 . S
H503 C493 0.930 . S
Tb504 N535 2.660 . S
Tb504 N542 2.600 . S
Tb504 O548 2.546 . S
Tb504 O549 2.610 . S
Tb504 O551 2.320 . S
Tb504 O552 2.552 . S
Tb504 O553 2.413 . S
Tb504 O555 2.362 . S
Tb504 O556 2.421 . S
Tb504 C568 2.833 . S
C505 C508 1.432 . S
C505 C509 1.414 . S
C505 N512 1.359 . S
C506 C508 1.417 . S
C506 C510 1.432 . S
C506 C518 1.410 . S
C507 C509 1.444 . S
C507 C510 1.317 . S
C507 H530 0.929 . S
C508 C505 1.432 . S
C508 C506 1.417 . S
C508 N516 1.360 . S
C509 C505 1.414 . S
C509 C507 1.444 . S
C509 C514 1.385 . S
C510 C506 1.432 . S
C510 C507 1.317 . S
C510 H522 0.930 . S
C511 C513 1.392 . S
C511 C514 1.370 . S
C511 H523 0.931 . S
N512 C505 1.359 . S
N512 C513 1.327 . S
N512 Tb515 2.600 . S
C513 C511 1.392 . S
C513 N512 1.327 . S
C513 H520 0.930 . S
C514 C509 1.385 . S
C514 C511 1.370 . S
C514 H533 0.930 . S
Tb515 N512 2.600 . S
Tb515 N516 2.660 . S
Tb515 O549 2.362 . S
Tb515 O550 2.421 . S
Tb515 O554 2.546 . S
Tb515 O555 2.610 . S
Tb515 O557 2.320 . S
Tb515 O558 2.552 . S
Tb515 O559 2.413 . S
Tb515 C579 2.833 . S
N516 C508 1.360 . S
N516 Tb515 2.660 . S
N516 C517 1.305 . S
C517 N516 1.305 . S
C517 C519 1.407 . S
C517 H524 0.930 . S
C518 C506 1.410 . S
C518 C519 1.345 . S
C518 H526 0.930 . S
C519 C517 1.407 . S
C519 C518 1.345 . S
C519 H521 0.930 . S
H520 C513 0.930 . S
H521 C519 0.930 . S
H522 C510 0.930 . S
H523 C511 0.931 . S
H524 C517 0.930 . S
H525 C539 0.930 . S
H526 C518 0.930 . S
H527 C545 0.930 . S
H528 C536 0.930 . S
H529 C543 0.931 . S
H530 C507 0.929 . S
H531 C537 0.930 . S
H532 C570 0.930 . S
H533 C514 0.930 . S
H534 C569 0.929 1_554 S
N535 Tb504 2.660 . S
N535 C536 1.305 . S
N535 C540 1.360 . S
C536 H528 0.930 . S
C536 N535 1.305 . S
C536 C539 1.407 . S
C537 H531 0.930 . S
C537 C538 1.410 . S
C537 C539 1.345 . S
C538 C537 1.410 . S
C538 C540 1.417 . S
C538 C570 1.432 . S
C539 H525 0.930 . S
C539 C536 1.407 . S
C539 C537 1.345 . S
C540 N535 1.360 . S
C540 C538 1.417 . S
C540 C544 1.432 . S
H541 C546 0.930 1_554 S
N542 Tb504 2.600 . S
N542 C544 1.359 . S
N542 C545 1.327 . S
C543 H529 0.931 . S
C543 C545 1.392 . S
C543 C546 1.370 . S
C544 C540 1.432 . S
C544 N542 1.359 . S
C544 C547 1.414 . S
C545 H527 0.930 . S
C545 N542 1.327 . S
C545 C543 1.392 . S
C546 H541 0.930 1_556 S
C546 C543 1.370 . S
C546 C547 1.385 . S
C547 C544 1.414 . S
C547 C546 1.385 . S
C547 C569 1.444 . S
O548 Tb504 2.546 . S
O548 C568 1.251 . S
O549 Tb504 2.610 . S
O549 Tb515 2.362 . S
O549 C560 1.283 . S
O550 Tb515 2.421 . S
O550 C567 1.262 . S
O551 Tb504 2.320 . S
O551 C567 1.260 . S
O552 Tb504 2.552 . S
O552 C560 1.243 . S
O553 Tb504 2.413 . S
O553 C568 1.256 . S
O554 Tb515 2.546 . S
O554 C579 1.251 . S
O555 Tb504 2.362 . S
O555 Tb515 2.610 . S
O555 C571 1.283 . S
O556 Tb504 2.421 . S
O556 C578 1.262 . S
O557 Tb515 2.320 . S
O557 C578 1.260 . S
O558 Tb515 2.552 . S
O558 C571 1.243 . S
O559 Tb515 2.413 . S
O559 C579 1.256 . S
C560 O549 1.283 . S
C560 O552 1.243 . S
C561 C563 1.382 . S
C561 C565 1.393 . S
C561 C568 1.500 . S
C562 C563 1.400 . S
C562 C564 1.384 . S
C563 C561 1.382 . S
C563 C562 1.400 . S
C563 H580 0.930 . S
C564 C562 1.384 . S
C564 C566 1.392 . S
C564 H581 0.931 . S
C565 C561 1.393 . S
C565 C566 1.401 . S
C565 H582 0.930 . S
C566 C564 1.392 . S
C566 C565 1.401 . S
C566 H583 0.930 . S
C567 O550 1.262 . S
C567 O551 1.260 . S
C568 Tb504 2.833 . S
C568 O548 1.251 . S
C568 O553 1.256 . S
C568 C561 1.500 . S
C569 H534 0.929 1_556 S
C569 C547 1.444 . S
C569 C570 1.317 . S
C570 H532 0.930 . S
C570 C538 1.432 . S
C570 C569 1.317 . S
C571 O555 1.283 . S
C571 O558 1.243 . S
C572 C573 1.382 . S
C572 C576 1.393 . S
C572 C579 1.500 . S
C573 C572 1.382 . S
C573 C574 1.400 . S
C573 H584 0.930 . S
C574 C573 1.400 . S
C574 C575 1.384 . S
C575 C574 1.384 . S
C575 C577 1.392 . S
C575 H585 0.931 . S
C576 C572 1.393 . S
C576 C577 1.401 . S
C576 H586 0.930 . S
C577 C575 1.392 . S
C577 C576 1.401 . S
C577 H587 0.930 . S
C578 O556 1.262 . S
C578 O557 1.260 . S
C579 Tb515 2.833 . S
C579 O554 1.251 . S
C579 O559 1.256 . S
C579 C572 1.500 . S
H580 C563 0.930 . S
H581 C564 0.931 . S
H582 C565 0.930 . S
H583 C566 0.930 . S
H584 C573 0.930 . S
H585 C575 0.931 . S
H586 C576 0.930 . S
H587 C577 0.930 . S
Tb588 N619 2.660 . S
Tb588 N626 2.600 . S
Tb588 O632 2.546 . S
Tb588 O633 2.610 . S
Tb588 O635 2.320 . S
Tb588 O636 2.552 . S
Tb588 O637 2.413 . S
Tb588 O639 2.362 . S
Tb588 O640 2.421 . S
Tb588 C652 2.833 . S
C589 C592 1.432 . S
C589 C593 1.414 . S
C589 N596 1.359 . S
C590 C592 1.417 . S
C590 C594 1.432 . S
C590 C602 1.410 . S
C591 C593 1.444 . S
C591 C594 1.317 . S
C591 H614 0.929 . S
C592 C589 1.432 . S
C592 C590 1.417 . S
C592 N600 1.360 . S
C593 C589 1.414 . S
C593 C591 1.444 . S
C593 C598 1.385 . S
C594 C590 1.432 . S
C594 C591 1.317 . S
C594 H606 0.930 1_556 S
C595 C597 1.392 . S
C595 C598 1.370 . S
C595 H607 0.931 . S
N596 C589 1.359 . S
N596 C597 1.327 . S
N596 Tb599 2.600 . S
C597 C595 1.392 . S
C597 N596 1.327 . S
C597 H604 0.930 . S
C598 C593 1.385 . S
C598 C595 1.370 . S
C598 H617 0.930 . S
Tb599 N596 2.600 . S
Tb599 N600 2.660 . S
Tb599 O633 2.362 . S
Tb599 O634 2.421 . S
Tb599 O638 2.546 . S
Tb599 O639 2.610 . S
Tb599 O641 2.320 . S
Tb599 O642 2.552 . S
Tb599 O643 2.413 . S
Tb599 C663 2.833 . S
N600 C592 1.360 . S
N600 Tb599 2.660 . S
N600 C601 1.305 . S
C601 N600 1.305 . S
C601 C603 1.407 . S
C601 H608 0.930 . S
C602 C590 1.410 . S
C602 C603 1.345 . S
C602 H610 0.930 1_556 S
C603 C601 1.407 . S
C603 C602 1.345 . S
C603 H605 0.930 . S
H604 C597 0.930 . S
H605 C603 0.930 . S
H606 C594 0.930 1_554 S
H607 C595 0.931 . S
H608 C601 0.930 . S
H609 C623 0.930 . S
H610 C602 0.930 1_554 S
H611 C629 0.930 . S
H612 C620 0.930 . S
H613 C627 0.931 . S
H614 C591 0.929 . S
H615 C621 0.930 . S
H616 C654 0.930 . S
H617 C598 0.930 . S
H618 C653 0.929 . S
N619 Tb588 2.660 . S
N619 C620 1.305 . S
N619 C624 1.360 . S
C620 H612 0.930 . S
C620 N619 1.305 . S
C620 C623 1.407 . S
C621 H615 0.930 . S
C621 C622 1.410 . S
C621 C623 1.345 . S
C622 C621 1.410 . S
C622 C624 1.417 . S
C622 C654 1.432 . S
C623 H609 0.930 . S
C623 C620 1.407 . S
C623 C621 1.345 . S
C624 N619 1.360 . S
C624 C622 1.417 . S
C624 C628 1.432 . S
H625 C630 0.930 . S
N626 Tb588 2.600 . S
N626 C628 1.359 . S
N626 C629 1.327 . S
C627 H613 0.931 . S
C627 C629 1.392 . S
C627 C630 1.370 . S
C628 C624 1.432 . S
C628 N626 1.359 . S
C628 C631 1.414 . S
C629 H611 0.930 . S
C629 N626 1.327 . S
C629 C627 1.392 . S
C630 H625 0.930 . S
C630 C627 1.370 . S
C630 C631 1.385 . S
C631 C628 1.414 . S
C631 C630 1.385 . S
C631 C653 1.444 . S
O632 Tb588 2.546 . S
O632 C652 1.251 . S
O633 Tb588 2.610 . S
O633 Tb599 2.362 . S
O633 C644 1.283 . S
O634 Tb599 2.421 . S
O634 C651 1.262 . S
O635 Tb588 2.320 . S
O635 C651 1.260 . S
O636 Tb588 2.552 . S
O636 C644 1.243 . S
O637 Tb588 2.413 . S
O637 C652 1.256 . S
O638 Tb599 2.546 . S
O638 C663 1.251 . S
O639 Tb588 2.362 . S
O639 Tb599 2.610 . S
O639 C655 1.283 . S
O640 Tb588 2.421 . S
O640 C662 1.262 . S
O641 Tb599 2.320 . S
O641 C662 1.260 . S
O642 Tb599 2.552 . S
O642 C655 1.243 . S
O643 Tb599 2.413 . S
O643 C663 1.256 . S
C644 O633 1.283 . S
C644 O636 1.243 . S
C645 C647 1.382 . S
C645 C649 1.393 . S
C645 C652 1.500 . S
C646 C647 1.400 . S
C646 C648 1.384 . S
C647 C645 1.382 . S
C647 C646 1.400 . S
C647 H664 0.930 . S
C648 C646 1.384 . S
C648 C650 1.392 . S
C648 H665 0.931 . S
C649 C645 1.393 . S
C649 C650 1.401 . S
C649 H666 0.930 . S
C650 C648 1.392 . S
C650 C649 1.401 . S
C650 H667 0.930 . S
C651 O634 1.262 . S
C651 O635 1.260 . S
C652 Tb588 2.833 . S
C652 O632 1.251 . S
C652 O637 1.256 . S
C652 C645 1.500 . S
C653 H618 0.929 . S
C653 C631 1.444 . S
C653 C654 1.317 . S
C654 H616 0.930 . S
C654 C622 1.432 . S
C654 C653 1.317 . S
C655 O639 1.283 . S
C655 O642 1.243 . S
C656 C657 1.382 . S
C656 C660 1.393 . S
C656 C663 1.500 . S
C657 C656 1.382 . S
C657 C658 1.400 . S
C657 H668 0.930 . S
C658 C657 1.400 . S
C658 C659 1.384 . S
C659 C658 1.384 . S
C659 C661 1.392 . S
C659 H669 0.931 . S
C660 C656 1.393 . S
C660 C661 1.401 . S
C660 H670 0.930 . S
C661 C659 1.392 . S
C661 C660 1.401 . S
C661 H671 0.930 . S
C662 O640 1.262 . S
C662 O641 1.260 . S
C663 Tb599 2.833 . S
C663 O638 1.251 . S
C663 O643 1.256 . S
C663 C656 1.500 . S
H664 C647 0.930 . S
H665 C648 0.931 . S
H666 C649 0.930 . S
H667 C650 0.930 . S
H668 C657 0.930 . S
H669 C659 0.931 . S
H670 C660 0.930 . S
H671 C661 0.930 . S
Co672 O675 2.042 . S
Co672 O682 2.264 . S
Co672 O701 2.286 . S
Co672 O702 2.069 . S
Co672 O704 2.015 1_455 S
Co673 O675 2.122 . S
Co673 O681 2.073 . S
Co673 O682 2.327 . S
Co673 O683 1.976 1_455 S
Co674 O675 2.091 1_545 S
Co674 O677 2.083 1_455 S
Co674 O684 2.109 1_445 S
Co674 O685 2.145 . S
Co674 O689 2.114 . S
Co674 O703 2.142 1_445 S
O675 Co672 2.042 . S
O675 Co673 2.122 . S
O675 Co674 2.091 1_565 S
O675 H676 0.980 . S
H676 O675 0.980 . S
O677 Co674 2.083 1_655 S
O677 Co678 2.042 . S
O677 Co679 2.122 . S
O677 H680 0.980 . S
Co678 O677 2.042 . S
Co678 O686 2.286 . S
Co678 O687 2.069 . S
Co678 O688 2.015 1_655 S
Co678 O691 2.264 . S
Co679 O677 2.122 . S
Co679 O690 1.976 1_655 S
Co679 O691 2.327 . S
Co679 O692 2.073 . S
H680 O677 0.980 . S
O681 Co673 2.073 . S
O681 C696 1.245 . S
O682 Co672 2.264 . S
O682 Co673 2.327 . S
O682 C696 1.257 . S
O683 Co673 1.976 1_655 S
O683 C695 1.251 . S
O684 Co674 2.109 1_665 S
O684 C695 1.274 . S
O685 Co674 2.145 . S
O685 C698 1.246 . S
O686 Co678 2.286 . S
O686 C697 1.259 . S
O687 Co678 2.069 . S
O687 C697 1.289 . S
O688 Co678 2.015 1_455 S
O688 C698 1.257 . S
O689 Co674 2.114 . S
O689 C699 1.274 . S
O690 Co679 1.976 1_455 S
O690 C699 1.251 . S
O691 Co678 2.264 . S
O691 Co679 2.327 . S
O691 C700 1.257 . S
O692 Co679 2.073 . S
O692 C700 1.245 . S
C693 O701 1.259 . S
C693 O702 1.289 . S
C694 O703 1.246 . S
C694 O704 1.257 . S
C695 O683 1.251 . S
C695 O684 1.274 . S
C696 O681 1.245 . S
C696 O682 1.257 . S
C697 O686 1.259 . S
C697 O687 1.289 . S
C698 O685 1.246 . S
C698 O688 1.257 . S
C699 O689 1.274 . S
C699 O690 1.251 . S
C700 O691 1.257 . S
C700 O692 1.245 . S
O701 Co672 2.286 . S
O701 C693 1.259 . S
O702 Co672 2.069 . S
O702 C693 1.289 . S
O703 Co674 2.142 1_665 S
O703 C694 1.246 . S
O704 Co672 2.015 1_655 S
O704 C694 1.257 . S
Co705 O708 2.042 1_556 S
Co705 O715 2.264 1_556 S
Co705 O734 2.286 . S
Co705 O735 2.069 . S
Co705 O737 2.015 . S
Co706 O708 2.122 . S
Co706 O714 2.073 . S
Co706 O715 2.327 . S
Co706 O716 1.976 . S
Co707 O708 2.087 1_545 S
Co707 O710 2.087 1_554 S
Co707 O717 2.111 1_545 S
Co707 O718 2.143 . S
Co707 O722 2.111 1_554 S
Co707 O736 2.143 1_544 S
O708 Co705 2.042 1_554 S
O708 Co706 2.122 . S
O708 Co707 2.087 1_565 S
O708 H709 0.980 . S
H709 O708 0.980 . S
O710 Co707 2.087 1_556 S
O710 Co711 2.042 1_556 S
O710 Co712 2.122 . S
O710 H713 0.980 . S
Co711 O710 2.042 1_554 S
Co711 O719 2.286 . S
Co711 O720 2.069 . S
Co711 O721 2.015 . S
Co711 O724 2.264 1_554 S
Co712 O710 2.122 . S
Co712 O723 1.976 . S
Co712 O724 2.327 . S
Co712 O725 2.073 . S
H713 O710 0.980 . S
O714 Co706 2.073 . S
O714 C729 1.245 . S
O715 Co705 2.264 1_554 S
O715 Co706 2.327 . S
O715 C729 1.257 . S
O716 Co706 1.976 . S
O716 C728 1.251 . S
O717 Co707 2.111 1_565 S
O717 C728 1.274 . S
O718 Co707 2.143 . S
O718 C731 1.246 . S
O719 Co711 2.286 . S
O719 C730 1.259 . S
O720 Co711 2.069 . S
O720 C730 1.289 . S
O721 Co711 2.015 . S
O721 C731 1.257 . S
O722 Co707 2.111 1_556 S
O722 C732 1.274 . S
O723 Co712 1.976 . S
O723 C732 1.251 . S
O724 Co711 2.264 1_556 S
O724 Co712 2.327 . S
O724 C733 1.257 . S
O725 Co712 2.073 . S
O725 C733 1.245 . S
C726 O734 1.259 . S
C726 O735 1.289 . S
C727 O736 1.246 . S
C727 O737 1.257 . S
C728 O716 1.251 . S
C728 O717 1.274 . S
C729 O714 1.245 . S
C729 O715 1.257 . S
C730 O719 1.259 . S
C730 O720 1.289 . S
C731 O718 1.246 . S
C731 O721 1.257 . S
C732 O722 1.274 . S
C732 O723 1.251 . S
C733 O724 1.257 . S
C733 O725 1.245 . S
O734 Co705 2.286 . S
O734 C726 1.259 . S
O735 Co705 2.069 . S
O735 C726 1.289 . S
O736 Co707 2.143 1_566 S
O736 C727 1.246 . S
O737 Co705 2.015 . S
O737 C727 1.257 . S
Co738 O741 2.042 1_556 S
Co738 O748 2.264 1_556 S
Co738 O767 2.286 . S
Co738 O768 2.069 . S
Co738 O770 2.015 1_455 S
Co739 O741 2.122 . S
Co739 O747 2.073 . S
Co739 O748 2.327 . S
Co739 O749 1.976 1_455 S
Co740 O741 2.091 . S
Co740 O743 2.083 1_454 S
Co740 O750 2.109 1_455 S
Co740 O751 2.145 . S
Co740 O755 2.114 1_554 S
Co740 O769 2.142 1_454 S
O741 Co738 2.042 1_554 S
O741 Co739 2.122 . S
O741 Co740 2.091 . S
O741 H742 0.980 . S
H742 O741 0.980 . S
O743 Co740 2.083 1_656 S
O743 Co744 2.042 1_556 S
O743 Co745 2.122 . S
O743 H746 0.980 . S
Co744 O743 2.042 1_554 S
Co744 O752 2.286 . S
Co744 O753 2.069 . S
Co744 O754 2.015 1_655 S
Co744 O757 2.264 1_554 S
Co745 O743 2.122 . S
Co745 O756 1.976 1_655 S
Co745 O757 2.327 . S
Co745 O758 2.073 . S
H746 O743 0.980 . S
O747 Co739 2.073 . S
O747 C762 1.245 . S
O748 Co738 2.264 1_554 S
O748 Co739 2.327 . S
O748 C762 1.257 . S
O749 Co739 1.976 1_655 S
O749 C761 1.251 . S
O750 Co740 2.109 1_655 S
O750 C761 1.274 . S
O751 Co740 2.145 . S
O751 C764 1.246 . S
O752 Co744 2.286 . S
O752 C763 1.259 . S
O753 Co744 2.069 . S
O753 C763 1.289 . S
O754 Co744 2.015 1_455 S
O754 C764 1.257 . S
O755 Co740 2.114 1_556 S
O755 C765 1.274 . S
O756 Co745 1.976 1_455 S
O756 C765 1.251 . S
O757 Co744 2.264 1_556 S
O757 Co745 2.327 . S
O757 C766 1.257 . S
O758 Co745 2.073 . S
O758 C766 1.245 . S
C759 O767 1.259 . S
C759 O768 1.289 . S
C760 O769 1.246 . S
C760 O770 1.257 . S
C761 O749 1.251 . S
C761 O750 1.274 . S
C762 O747 1.245 . S
C762 O748 1.257 . S
C763 O752 1.259 . S
C763 O753 1.289 . S
C764 O751 1.246 . S
C764 O754 1.257 . S
C765 O755 1.274 . S
C765 O756 1.251 . S
C766 O757 1.257 . S
C766 O758 1.245 . S
O767 Co738 2.286 . S
O767 C759 1.259 . S
O768 Co738 2.069 . S
O768 C759 1.289 . S
O769 Co740 2.142 1_656 S
O769 C760 1.246 . S
O770 Co738 2.015 1_655 S
O770 C760 1.257 . S
Co771 O774 2.042 1_556 S
Co771 O781 2.264 1_556 S
Co771 O800 2.286 . S
Co771 O801 2.069 . S
Co771 O803 2.015 . S
Co772 O774 2.122 . S
Co772 O780 2.073 . S
Co772 O781 2.327 . S
Co772 O782 1.976 . S
Co773 O774 2.087 . S
Co773 O776 2.087 1_554 S
Co773 O783 2.111 . S
Co773 O784 2.143 . S
Co773 O788 2.111 1_554 S
Co773 O802 2.143 1_554 S
O774 Co771 2.042 1_554 S
O774 Co772 2.122 . S
O774 Co773 2.087 . S
O774 H775 0.980 . S
H775 O774 0.980 . S
O776 Co773 2.087 1_556 S
O776 Co777 2.042 1_556 S
O776 Co778 2.122 . S
O776 H779 0.980 . S
Co777 O776 2.042 1_554 S
Co777 O785 2.286 . S
Co777 O786 2.069 . S
Co777 O787 2.015 . S
Co777 O790 2.264 1_554 S
Co778 O776 2.122 . S
Co778 O789 1.976 . S
Co778 O790 2.327 . S
Co778 O791 2.073 . S
H779 O776 0.980 . S
O780 Co772 2.073 . S
O780 C795 1.245 . S
O781 Co771 2.264 1_554 S
O781 Co772 2.327 . S
O781 C795 1.257 . S
O782 Co772 1.976 . S
O782 C794 1.251 . S
O783 Co773 2.111 . S
O783 C794 1.274 . S
O784 Co773 2.143 . S
O784 C797 1.246 . S
O785 Co777 2.286 . S
O785 C796 1.259 . S
O786 Co777 2.069 . S
O786 C796 1.289 . S
O787 Co777 2.015 . S
O787 C797 1.257 . S
O788 Co773 2.111 1_556 S
O788 C798 1.274 . S
O789 Co778 1.976 . S
O789 C798 1.251 . S
O790 Co777 2.264 1_556 S
O790 Co778 2.327 . S
O790 C799 1.257 . S
O791 Co778 2.073 . S
O791 C799 1.245 . S
C792 O800 1.259 . S
C792 O801 1.289 . S
C793 O802 1.246 . S
C793 O803 1.257 . S
C794 O782 1.251 . S
C794 O783 1.274 . S
C795 O780 1.245 . S
C795 O781 1.257 . S
C796 O785 1.259 . S
C796 O786 1.289 . S
C797 O784 1.246 . S
C797 O787 1.257 . S
C798 O788 1.274 . S
C798 O789 1.251 . S
C799 O790 1.257 . S
C799 O791 1.245 . S
O800 Co771 2.286 . S
O800 C792 1.259 . S
O801 Co771 2.069 . S
O801 C792 1.289 . S
O802 Co773 2.143 1_556 S
O802 C793 1.246 . S
O803 Co771 2.015 . S
O803 C793 1.257 . S
Co804 O807 2.042 . S
Co804 O814 2.264 . S
Co804 O833 2.286 . S
Co804 O834 2.069 . S
Co804 O836 2.015 . S
Co805 O807 2.122 . S
Co805 O813 2.073 . S
Co805 O814 2.327 . S
Co805 O815 1.976 . S
Co806 O807 2.091 . S
Co806 O809 2.083 1_455 S
Co806 O816 2.112 . S
Co806 O817 2.142 1_455 S
Co806 O821 2.110 1_455 S
Co806 O835 2.145 . S
O807 Co804 2.042 . S
O807 Co805 2.122 . S
O807 Co806 2.091 . S
O807 H808 0.980 . S
H808 O807 0.980 . S
O809 Co806 2.083 1_655 S
O809 Co810 2.042 . S
O809 Co811 2.122 . S
O809 H812 0.980 . S
Co810 O809 2.042 . S
Co810 O818 2.286 . S
Co810 O819 2.069 . S
Co810 O820 2.015 . S
Co810 O823 2.264 . S
Co811 O809 2.122 . S
Co811 O822 1.976 . S
Co811 O823 2.327 . S
Co811 O824 2.073 . S
H812 O809 0.980 . S
O813 Co805 2.073 . S
O813 C828 1.245 . S
O814 Co804 2.264 . S
O814 Co805 2.327 . S
O814 C828 1.257 . S
O815 Co805 1.976 . S
O815 C827 1.251 . S
O816 Co806 2.112 . S
O816 C827 1.274 . S
O817 Co806 2.142 1_655 S
O817 C830 1.246 . S
O818 Co810 2.286 . S
O818 C829 1.259 . S
O819 Co810 2.069 . S
O819 C829 1.289 . S
O820 Co810 2.015 . S
O820 C830 1.257 . S
O821 Co806 2.110 1_655 S
O821 C831 1.274 . S
O822 Co811 1.976 . S
O822 C831 1.251 . S
O823 Co810 2.264 . S
O823 Co811 2.327 . S
O823 C832 1.257 . S
O824 Co811 2.073 . S
O824 C832 1.245 . S
C825 O833 1.259 . S
C825 O834 1.289 . S
C826 O835 1.246 . S
C826 O836 1.257 . S
C827 O815 1.251 . S
C827 O816 1.274 . S
C828 O813 1.245 . S
C828 O814 1.257 . S
C829 O818 1.259 . S
C829 O819 1.289 . S
C830 O817 1.246 . S
C830 O820 1.257 . S
C831 O821 1.274 . S
C831 O822 1.251 . S
C832 O823 1.257 . S
C832 O824 1.245 . S
O833 Co804 2.286 . S
O833 C825 1.259 . S
O834 Co804 2.069 . S
O834 C825 1.289 . S
O835 Co806 2.145 . S
O835 C826 1.246 . S
O836 Co804 2.015 . S
O836 C826 1.257 . S
Co837 O840 2.042 . S
Co837 O847 2.264 . S
Co837 O866 2.286 . S
Co837 O867 2.069 . S
Co837 O869 2.015 1_565 S
Co838 O840 2.122 . S
Co838 O846 2.073 . S
Co838 O847 2.327 . S
Co838 O848 1.976 1_565 S
Co839 O840 2.087 1_545 S
Co839 O842 2.087 . S
Co839 O849 2.111 . S
Co839 O850 2.143 1_545 S
Co839 O854 2.111 1_545 S
Co839 O868 2.143 . S
O840 Co837 2.042 . S
O840 Co838 2.122 . S
O840 Co839 2.087 1_565 S
O840 H841 0.980 . S
H841 O840 0.980 . S
O842 Co839 2.087 . S
O842 Co843 2.042 . S
O842 Co844 2.122 . S
O842 H845 0.980 . S
Co843 O842 2.042 . S
Co843 O851 2.286 . S
Co843 O852 2.069 . S
Co843 O853 2.015 1_545 S
Co843 O856 2.264 . S
Co844 O842 2.122 . S
Co844 O855 1.976 1_545 S
Co844 O856 2.327 . S
Co844 O857 2.073 . S
H845 O842 0.980 . S
O846 Co838 2.073 . S
O846 C861 1.245 . S
O847 Co837 2.264 . S
O847 Co838 2.327 . S
O847 C861 1.257 . S
O848 Co838 1.976 1_545 S
O848 C860 1.251 . S
O849 Co839 2.111 . S
O849 C860 1.274 . S
O850 Co839 2.143 1_565 S
O850 C863 1.246 . S
O851 Co843 2.286 . S
O851 C862 1.259 . S
O852 Co843 2.069 . S
O852 C862 1.289 . S
O853 Co843 2.015 1_565 S
O853 C863 1.257 . S
O854 Co839 2.111 1_565 S
O854 C864 1.274 . S
O855 Co844 1.976 1_565 S
O855 C864 1.251 . S
O856 Co843 2.264 . S
O856 Co844 2.327 . S
O856 C865 1.257 . S
O857 Co844 2.073 . S
O857 C865 1.245 . S
C858 O866 1.259 . S
C858 O867 1.289 . S
C859 O868 1.246 . S
C859 O869 1.257 . S
C860 O848 1.251 . S
C860 O849 1.274 . S
C861 O846 1.245 . S
C861 O847 1.257 . S
C862 O851 1.259 . S
C862 O852 1.289 . S
C863 O850 1.246 . S
C863 O853 1.257 . S
C864 O854 1.274 . S
C864 O855 1.251 . S
C865 O856 1.257 . S
C865 O857 1.245 . S
O866 Co837 2.286 . S
O866 C858 1.259 . S
O867 Co837 2.069 . S
O867 C858 1.289 . S
O868 Co839 2.143 . S
O868 C859 1.246 . S
O869 Co837 2.015 1_545 S
O869 C859 1.257 . S
C870 C871 1.363 . S
C870 C876 1.379 . S
C870 N878 1.356 . S
C871 C870 1.363 . S
C871 C877 1.363 . S
C872 C873 1.363 . S
C872 C877 1.379 . S
C872 N879 1.356 . S
C873 C872 1.363 . S
C873 C876 1.363 . S
N874 C876 1.356 . S
N874 H886 0.984 . S
N874 H887 0.985 . S
N875 C877 1.356 . S
N875 H880 0.984 . S
N875 H881 0.985 . S
C876 C870 1.379 . S
C876 C873 1.363 . S
C876 N874 1.356 . S
C877 C871 1.363 . S
C877 C872 1.379 . S
C877 N875 1.356 . S
N878 C870 1.356 . S
N878 H884 0.984 . S
N878 H885 0.984 . S
N879 C872 1.356 . S
N879 H882 0.984 . S
N879 H883 0.985 . S
H880 N875 0.984 . S
H881 N875 0.985 . S
H882 N879 0.984 . S
H883 N879 0.985 . S
H884 N878 0.984 . S
H885 N878 0.984 . S
H886 N874 0.984 . S
H887 N874 0.985 . S
C888 C889 1.363 . S
C888 C894 1.379 . S
C888 N896 1.356 . S
C889 C888 1.363 . S
C889 C895 1.363 . S
C890 C891 1.363 . S
C890 C895 1.379 . S
C890 N897 1.356 . S
C891 C890 1.363 . S
C891 C894 1.363 . S
N892 C894 1.356 . S
N892 H904 0.984 . S
N892 H905 0.985 . S
N893 C895 1.356 . S
N893 H898 0.984 . S
N893 H899 0.985 . S
C894 C888 1.379 . S
C894 C891 1.363 . S
C894 N892 1.356 . S
C895 C889 1.363 . S
C895 C890 1.379 . S
C895 N893 1.356 . S
N896 C888 1.356 . S
N896 H902 0.984 . S
N896 H903 0.984 . S
N897 C890 1.356 . S
N897 H900 0.984 . S
N897 H901 0.985 . S
H898 N893 0.984 . S
H899 N893 0.985 . S
H900 N897 0.984 . S
H901 N897 0.985 . S
H902 N896 0.984 . S
H903 N896 0.984 . S
H904 N892 0.984 . S
H905 N892 0.985 . S
C906 C907 1.363 . S
C906 C912 1.379 . S
C906 N914 1.356 . S
C907 C906 1.363 . S
C907 C913 1.363 . S
C908 C909 1.363 . S
C908 C913 1.379 . S
C908 N915 1.356 . S
C909 C908 1.363 . S
C909 C912 1.363 . S
N910 C912 1.356 . S
N910 H922 0.984 . S
N910 H923 0.985 . S
N911 C913 1.356 . S
N911 H916 0.984 . S
N911 H917 0.985 . S
C912 C906 1.379 . S
C912 C909 1.363 . S
C912 N910 1.356 . S
C913 C907 1.363 . S
C913 C908 1.379 . S
C913 N911 1.356 . S
N914 C906 1.356 . S
N914 H920 0.984 . S
N914 H921 0.984 . S
N915 C908 1.356 . S
N915 H918 0.984 . S
N915 H919 0.985 . S
H916 N911 0.984 . S
H917 N911 0.985 . S
H918 N915 0.984 . S
H919 N915 0.985 . S
H920 N914 0.984 . S
H921 N914 0.984 . S
H922 N910 0.984 . S
H923 N910 0.985 . S
C924 C925 1.363 . S
C924 C930 1.379 . S
C924 N932 1.356 . S
C925 C924 1.363 . S
C925 C931 1.363 . S
C926 C927 1.363 . S
C926 C931 1.379 . S
C926 N933 1.356 . S
C927 C926 1.363 . S
C927 C930 1.363 . S
N928 C930 1.356 . S
N928 H940 0.984 . S
N928 H941 0.985 . S
N929 C931 1.356 . S
N929 H934 0.984 . S
N929 H935 0.985 . S
C930 C924 1.379 . S
C930 C927 1.363 . S
C930 N928 1.356 . S
C931 C925 1.363 . S
C931 C926 1.379 . S
C931 N929 1.356 . S
N932 C924 1.356 . S
N932 H938 0.984 . S
N932 H939 0.984 . S
N933 C926 1.356 . S
N933 H936 0.984 . S
N933 H937 0.985 1_455 S
H934 N929 0.984 . S
H935 N929 0.985 . S
H936 N933 0.984 . S
H937 N933 0.985 1_655 S
H938 N932 0.984 . S
H939 N932 0.984 . S
H940 N928 0.984 . S
H941 N928 0.985 . S
C942 C943 1.363 . S
C942 C948 1.379 . S
C942 N950 1.356 . S
C943 C942 1.363 . S
C943 C949 1.363 . S
C944 C945 1.363 . S
C944 C949 1.379 . S
C944 N951 1.356 . S
C945 C944 1.363 . S
C945 C948 1.363 . S
N946 C948 1.356 . S
N946 H958 0.983 1_455 S
N946 H959 0.985 . S
N947 C949 1.356 . S
N947 H952 0.984 . S
N947 H953 0.985 . S
C948 C942 1.379 . S
C948 C945 1.363 . S
C948 N946 1.356 . S
C949 C943 1.363 . S
C949 C944 1.379 . S
C949 N947 1.356 . S
N950 C942 1.356 . S
N950 H956 0.984 . S
N950 H957 0.984 . S
N951 C944 1.356 . S
N951 H954 0.984 . S
N951 H955 0.985 . S
H952 N947 0.984 . S
H953 N947 0.985 . S
H954 N951 0.984 . S
H955 N951 0.985 . S
H956 N950 0.984 . S
H957 N950 0.984 . S
H958 N946 0.983 1_655 S
H959 N946 0.985 . S
C960 C961 1.363 . S
C960 C966 1.379 . S
C960 N968 1.356 . S
C961 C960 1.363 . S
C961 C967 1.363 . S
C962 C963 1.363 . S
C962 C967 1.379 . S
C962 N969 1.356 . S
C963 C962 1.363 . S
C963 C966 1.363 . S
N964 C966 1.356 . S
N964 H976 0.984 . S
N964 H977 0.985 . S
N965 C967 1.356 . S
N965 H970 0.984 . S
N965 H971 0.985 . S
C966 C960 1.379 . S
C966 C963 1.363 . S
C966 N964 1.356 . S
C967 C961 1.363 . S
C967 C962 1.379 . S
C967 N965 1.356 . S
N968 C960 1.356 . S
N968 H974 0.984 . S
N968 H975 0.984 . S
N969 C962 1.356 . S
N969 H972 0.984 . S
N969 H973 0.985 . S
H970 N965 0.984 . S
H971 N965 0.985 . S
H972 N969 0.984 . S
H973 N969 0.985 . S
H974 N968 0.984 . S
H975 N968 0.984 . S
H976 N964 0.984 . S
H977 N964 0.985 . S
C978 C979 1.363 . S
C978 C984 1.379 . S
C978 N986 1.356 . S
C979 C978 1.363 . S
C979 C985 1.363 . S
C980 C981 1.363 . S
C980 C985 1.379 . S
C980 N987 1.356 . S
C981 C980 1.363 . S
C981 C984 1.363 . S
N982 C984 1.356 . S
N982 H994 0.984 . S
N982 H995 0.985 . S
N983 C985 1.356 . S
N983 H988 0.984 . S
N983 H989 0.985 . S
C984 C978 1.379 . S
C984 C981 1.363 . S
C984 N982 1.356 . S
C985 C979 1.363 . S
C985 C980 1.379 . S
C985 N983 1.356 . S
N986 C978 1.356 . S
N986 H992 0.984 . S
N986 H993 0.984 . S
N987 C980 1.356 . S
N987 H990 0.984 . S
N987 H991 0.985 . S
H988 N983 0.984 . S
H989 N983 0.985 . S
H990 N987 0.984 . S
H991 N987 0.985 . S
H992 N986 0.984 . S
H993 N986 0.984 . S
H994 N982 0.984 . S
H995 N982 0.985 . S
C996 C997 1.363 . S
C996 C1002 1.379 . S
C996 N1004 1.356 . S
C997 C996 1.363 . S
C997 C1003 1.363 . S
C998 C999 1.363 . S
C998 C1003 1.379 . S
C998 N1005 1.356 . S
C999 C998 1.363 . S
C999 C1002 1.363 . S
N1000 C1002 1.356 . S
N1000 H1012 0.984 . S
N1000 H1013 0.985 . S
N1001 C1003 1.356 . S
N1001 H1006 0.984 . S
N1001 H1007 0.985 . S
C1002 C996 1.379 . S
C1002 C999 1.363 . S
C1002 N1000 1.356 . S
C1003 C997 1.363 . S
C1003 C998 1.379 . S
C1003 N1001 1.356 . S
N1004 C996 1.356 . S
N1004 H1010 0.984 . S
N1004 H1011 0.984 . S
N1005 C998 1.356 . S
N1005 H1008 0.984 . S
N1005 H1009 0.985 . S
H1006 N1001 0.984 . S
H1007 N1001 0.985 . S
H1008 N1005 0.984 . S
H1009 N1005 0.985 . S
H1010 N1004 0.984 . S
H1011 N1004 0.984 . S
H1012 N1000 0.984 . S
H1013 N1000 0.985 . S
C1014 C1015 1.363 . S
C1014 C1020 1.379 . S
C1014 N1022 1.356 . S
C1015 C1014 1.363 . S
C1015 C1021 1.363 . S
C1016 C1017 1.363 . S
C1016 C1021 1.379 . S
C1016 N1023 1.356 . S
C1017 C1016 1.363 . S
C1017 C1020 1.363 . S
N1018 C1020 1.356 1_556 S
N1018 H1030 0.984 . S
N1018 H1031 0.985 . S
N1019 C1021 1.356 . S
N1019 H1024 0.984 . S
N1019 H1025 0.985 . S
C1020 C1014 1.379 . S
C1020 C1017 1.363 . S
C1020 N1018 1.356 1_554 S
C1021 C1015 1.363 . S
C1021 C1016 1.379 . S
C1021 N1019 1.356 . S
N1022 C1014 1.356 . S
N1022 H1028 0.984 1_554 S
N1022 H1029 0.984 . S
N1023 C1016 1.356 . S
N1023 H1026 0.984 . S
N1023 H1027 0.985 . S
H1024 N1019 0.984 . S
H1025 N1019 0.985 . S
H1026 N1023 0.984 . S
H1027 N1023 0.985 . S
H1028 N1022 0.984 1_556 S
H1029 N1022 0.984 . S
H1030 N1018 0.984 . S
H1031 N1018 0.985 . S
C1032 C1033 1.363 . S
C1032 C1038 1.379 . S
C1032 N1040 1.356 . S
C1033 C1032 1.363 . S
C1033 C1039 1.363 . S
C1034 C1035 1.363 . S
C1034 C1039 1.379 . S
C1034 N1041 1.356 . S
C1035 C1034 1.363 . S
C1035 C1038 1.363 . S
N1036 C1038 1.356 . S
N1036 H1048 0.984 . S
N1036 H1049 0.985 . S
N1037 C1039 1.356 . S
N1037 H1042 0.984 . S
N1037 H1043 0.985 . S
C1038 C1032 1.379 . S
C1038 C1035 1.363 . S
C1038 N1036 1.356 . S
C1039 C1033 1.363 . S
C1039 C1034 1.379 . S
C1039 N1037 1.356 . S
N1040 C1032 1.356 . S
N1040 H1046 0.984 . S
N1040 H1047 0.984 . S
N1041 C1034 1.356 . S
N1041 H1044 0.984 . S
N1041 H1045 0.985 . S
H1042 N1037 0.984 . S
H1043 N1037 0.985 . S
H1044 N1041 0.984 . S
H1045 N1041 0.985 . S
H1046 N1040 0.984 . S
H1047 N1040 0.984 . S
H1048 N1036 0.984 . S
H1049 N1036 0.985 . S
C1050 C1051 1.363 . S
C1050 C1056 1.379 . S
C1050 N1058 1.356 . S
C1051 C1050 1.363 . S
C1051 C1057 1.363 . S
C1052 C1053 1.363 . S
C1052 C1057 1.379 . S
C1052 N1059 1.356 . S
C1053 C1052 1.363 . S
C1053 C1056 1.363 . S
N1054 C1056 1.356 . S
N1054 H1066 0.984 . S
N1054 H1067 0.985 . S
N1055 C1057 1.356 . S
N1055 H1060 0.984 . S
N1055 H1061 0.985 . S
C1056 C1050 1.379 . S
C1056 C1053 1.363 . S
C1056 N1054 1.356 . S
C1057 C1051 1.363 . S
C1057 C1052 1.379 . S
C1057 N1055 1.356 . S
N1058 C1050 1.356 . S
N1058 H1064 0.984 . S
N1058 H1065 0.984 . S
N1059 C1052 1.356 . S
N1059 H1062 0.984 . S
N1059 H1063 0.985 . S
H1060 N1055 0.984 . S
H1061 N1055 0.985 . S
H1062 N1059 0.984 . S
H1063 N1059 0.985 . S
H1064 N1058 0.984 . S
H1065 N1058 0.984 . S
H1066 N1054 0.984 . S
H1067 N1054 0.985 . S
C1068 C1069 1.363 . S
C1068 C1074 1.379 . S
C1068 N1076 1.356 . S
C1069 C1068 1.363 . S
C1069 C1075 1.363 . S
C1070 C1071 1.363 . S
C1070 C1075 1.379 . S
C1070 N1077 1.356 . S
C1071 C1070 1.363 . S
C1071 C1074 1.363 . S
N1072 C1074 1.356 . S
N1072 H1084 0.984 . S
N1072 H1085 0.985 . S
N1073 C1075 1.356 . S
N1073 H1078 0.984 . S
N1073 H1079 0.985 . S
C1074 C1068 1.379 . S
C1074 C1071 1.363 . S
C1074 N1072 1.356 . S
C1075 C1069 1.363 . S
C1075 C1070 1.379 . S
C1075 N1073 1.356 . S
N1076 C1068 1.356 . S
N1076 H1082 0.984 . S
N1076 H1083 0.984 . S
N1077 C1070 1.356 . S
N1077 H1080 0.984 . S
N1077 H1081 0.985 . S
H1078 N1073 0.984 . S
H1079 N1073 0.985 . S
H1080 N1077 0.984 . S
H1081 N1077 0.985 . S
H1082 N1076 0.984 . S
H1083 N1076 0.984 . S
H1084 N1072 0.984 . S
H1085 N1072 0.985 . S
C1086 C1087 1.363 . S
C1086 C1092 1.379 . S
C1086 N1094 1.356 . S
C1087 C1086 1.363 . S
C1087 C1093 1.363 . S
C1088 C1089 1.363 . S
C1088 C1093 1.379 . S
C1088 N1095 1.356 . S
C1089 C1088 1.363 . S
C1089 C1092 1.363 . S
N1090 C1092 1.356 . S
N1090 H1102 0.984 . S
N1090 H1103 0.985 . S
N1091 C1093 1.356 . S
N1091 H1096 0.984 . S
N1091 H1097 0.985 . S
C1092 C1086 1.379 . S
C1092 C1089 1.363 . S
C1092 N1090 1.356 . S
C1093 C1087 1.363 . S
C1093 C1088 1.379 . S
C1093 N1091 1.356 . S
N1094 C1086 1.356 . S
N1094 H1100 0.984 . S
N1094 H1101 0.984 . S
N1095 C1088 1.356 . S
N1095 H1098 0.984 . S
N1095 H1099 0.985 1_556 S
H1096 N1091 0.984 . S
H1097 N1091 0.985 . S
H1098 N1095 0.984 . S
H1099 N1095 0.985 1_554 S
H1100 N1094 0.984 . S
H1101 N1094 0.984 . S
H1102 N1090 0.984 . S
H1103 N1090 0.985 . S
C1104 C1105 1.363 . S
C1104 C1110 1.379 . S
C1104 N1112 1.356 . S
C1105 C1104 1.363 . S
C1105 C1111 1.363 . S
C1106 C1107 1.363 . S
C1106 C1111 1.379 . S
C1106 N1113 1.356 1_556 S
C1107 C1106 1.363 . S
C1107 C1110 1.363 . S
N1108 C1110 1.356 . S
N1108 H1120 0.984 . S
N1108 H1121 0.985 . S
N1109 C1111 1.356 . S
N1109 H1114 0.984 . S
N1109 H1115 0.985 1_556 S
C1110 C1104 1.379 . S
C1110 C1107 1.363 . S
C1110 N1108 1.356 . S
C1111 C1105 1.363 . S
C1111 C1106 1.379 . S
C1111 N1109 1.356 . S
N1112 C1104 1.356 . S
N1112 H1118 0.984 . S
N1112 H1119 0.984 . S
N1113 C1106 1.356 1_554 S
N1113 H1116 0.984 . S
N1113 H1117 0.985 . S
H1114 N1109 0.984 . S
H1115 N1109 0.985 1_554 S
H1116 N1113 0.984 . S
H1117 N1113 0.985 . S
H1118 N1112 0.984 . S
H1119 N1112 0.984 . S
H1120 N1108 0.984 . S
H1121 N1108 0.985 . S
C1122 C1123 1.363 . S
C1122 C1128 1.379 . S
C1122 N1130 1.356 . S
C1123 C1122 1.363 . S
C1123 C1129 1.363 . S
C1124 C1125 1.363 . S
C1124 C1129 1.379 . S
C1124 N1131 1.356 1_556 S
C1125 C1124 1.363 . S
C1125 C1128 1.363 . S
N1126 C1128 1.356 . S
N1126 H1138 0.984 . S
N1126 H1139 0.985 . S
N1127 C1129 1.356 . S
N1127 H1132 0.984 . S
N1127 H1133 0.985 . S
C1128 C1122 1.379 . S
C1128 C1125 1.363 . S
C1128 N1126 1.356 . S
C1129 C1123 1.363 . S
C1129 C1124 1.379 . S
C1129 N1127 1.356 . S
N1130 C1122 1.356 . S
N1130 H1136 0.984 . S
N1130 H1137 0.984 . S
N1131 C1124 1.356 1_554 S
N1131 H1134 0.984 . S
N1131 H1135 0.985 . S
H1132 N1127 0.984 . S
H1133 N1127 0.985 . S
H1134 N1131 0.984 . S
H1135 N1131 0.985 . S
H1136 N1130 0.984 . S
H1137 N1130 0.984 . S
H1138 N1126 0.984 . S
H1139 N1126 0.985 . S
C1140 C1141 1.363 . S
C1140 C1146 1.379 . S
C1140 N1148 1.356 . S
C1141 C1140 1.363 . S
C1141 C1147 1.363 . S
C1142 C1143 1.363 . S
C1142 C1147 1.379 . S
C1142 N1149 1.356 . S
C1143 C1142 1.363 . S
C1143 C1146 1.363 . S
N1144 C1146 1.356 . S
N1144 H1156 0.984 . S
N1144 H1157 0.985 . S
N1145 C1147 1.356 . S
N1145 H1150 0.984 . S
N1145 H1151 0.985 . S
C1146 C1140 1.379 . S
C1146 C1143 1.363 . S
C1146 N1144 1.356 . S
C1147 C1141 1.363 . S
C1147 C1142 1.379 . S
C1147 N1145 1.356 . S
N1148 C1140 1.356 . S
N1148 H1154 0.984 . S
N1148 H1155 0.984 . S
N1149 C1142 1.356 . S
N1149 H1152 0.984 . S
N1149 H1153 0.985 . S
H1150 N1145 0.984 . S
H1151 N1145 0.985 . S
H1152 N1149 0.984 . S
H1153 N1149 0.985 . S
H1154 N1148 0.984 . S
H1155 N1148 0.984 . S
H1156 N1144 0.984 . S
H1157 N1144 0.985 . S
C1158 C1159 1.363 . S
C1158 C1164 1.379 . S
C1158 N1166 1.356 . S
C1159 C1158 1.363 . S
C1159 C1165 1.363 . S
C1160 C1161 1.363 . S
C1160 C1165 1.379 . S
C1160 N1167 1.356 . S
C1161 C1160 1.363 . S
C1161 C1164 1.363 . S
N1162 C1164 1.356 . S
N1162 H1174 0.984 . S
N1162 H1175 0.985 . S
N1163 C1165 1.356 . S
N1163 H1168 0.984 . S
N1163 H1169 0.985 . S
C1164 C1158 1.379 . S
C1164 C1161 1.363 . S
C1164 N1162 1.356 . S
C1165 C1159 1.363 . S
C1165 C1160 1.379 . S
C1165 N1163 1.356 . S
N1166 C1158 1.356 . S
N1166 H1172 0.984 . S
N1166 H1173 0.984 . S
N1167 C1160 1.356 . S
N1167 H1170 0.984 . S
N1167 H1171 0.985 . S
H1168 N1163 0.984 . S
H1169 N1163 0.985 . S
H1170 N1167 0.984 . S
H1171 N1167 0.985 . S
H1172 N1166 0.984 . S
H1173 N1166 0.984 . S
H1174 N1162 0.984 . S
H1175 N1162 0.985 . S
C1176 C1177 1.363 . S
C1176 C1182 1.379 . S
C1176 N1184 1.356 . S
C1177 C1176 1.363 . S
C1177 C1183 1.363 . S
C1178 C1179 1.363 . S
C1178 C1183 1.379 . S
C1178 N1185 1.356 . S
C1179 C1178 1.363 . S
C1179 C1182 1.363 . S
N1180 C1182 1.356 . S
N1180 H1192 0.984 1_556 S
N1180 H1193 0.985 . S
N1181 C1183 1.356 . S
N1181 H1186 0.984 . S
N1181 H1187 0.985 . S
C1182 C1176 1.379 . S
C1182 C1179 1.363 . S
C1182 N1180 1.356 . S
C1183 C1177 1.363 . S
C1183 C1178 1.379 . S
C1183 N1181 1.356 . S
N1184 C1176 1.356 . S
N1184 H1190 0.984 . S
N1184 H1191 0.984 . S
N1185 C1178 1.356 . S
N1185 H1188 0.984 . S
N1185 H1189 0.985 . S
H1186 N1181 0.984 . S
H1187 N1181 0.985 . S
H1188 N1185 0.984 . S
H1189 N1185 0.985 . S
H1190 N1184 0.984 . S
H1191 N1184 0.984 . S
H1192 N1180 0.984 1_554 S
H1193 N1180 0.985 . S
C1194 C1195 1.363 . S
C1194 C1200 1.379 . S
C1194 N1202 1.356 . S
C1195 C1194 1.363 . S
C1195 C1201 1.363 . S
C1196 C1197 1.363 . S
C1196 C1201 1.379 . S
C1196 N1203 1.356 . S
C1197 C1196 1.363 . S
C1197 C1200 1.363 . S
N1198 C1200 1.356 . S
N1198 H1210 0.984 . S
N1198 H1211 0.985 . S
N1199 C1201 1.356 . S
N1199 H1204 0.984 . S
N1199 H1205 0.985 . S
C1200 C1194 1.379 . S
C1200 C1197 1.363 . S
C1200 N1198 1.356 . S
C1201 C1195 1.363 . S
C1201 C1196 1.379 . S
C1201 N1199 1.356 . S
N1202 C1194 1.356 . S
N1202 H1208 0.984 . S
N1202 H1209 0.984 . S
N1203 C1196 1.356 . S
N1203 H1206 0.984 . S
N1203 H1207 0.985 . S
H1204 N1199 0.984 . S
H1205 N1199 0.985 . S
H1206 N1203 0.984 . S
H1207 N1203 0.985 . S
H1208 N1202 0.984 . S
H1209 N1202 0.984 . S
H1210 N1198 0.984 . S
H1211 N1198 0.985 . S
C1212 C1213 1.363 . S
C1212 C1218 1.379 . S
C1212 N1220 1.356 . S
C1213 C1212 1.363 . S
C1213 C1219 1.363 . S
C1214 C1215 1.363 . S
C1214 C1219 1.379 . S
C1214 N1221 1.344 1_556 S
C1215 C1214 1.363 . S
C1215 C1218 1.363 . S
N1216 C1218 1.356 . S
N1216 H1228 0.984 . S
N1216 H1229 0.985 . S
N1217 C1219 1.356 . S
N1217 H1222 0.984 . S
N1217 H1223 0.985 . S
C1218 C1212 1.379 . S
C1218 C1215 1.363 . S
C1218 N1216 1.356 . S
C1219 C1213 1.363 . S
C1219 C1214 1.379 . S
C1219 N1217 1.356 . S
N1220 C1212 1.356 . S
N1220 H1226 0.984 . S
N1220 H1227 0.984 . S
N1221 C1214 1.344 1_554 S
N1221 H1224 0.988 . S
N1221 H1225 0.994 . S
H1222 N1217 0.984 . S
H1223 N1217 0.985 . S
H1224 N1221 0.988 . S
H1225 N1221 0.994 . S
H1226 N1220 0.984 . S
H1227 N1220 0.984 . S
H1228 N1216 0.984 . S
H1229 N1216 0.985 . S
C1230 C1231 1.363 . S
C1230 C1236 1.379 . S
C1230 N1238 1.356 . S
C1231 C1230 1.363 . S
C1231 C1237 1.363 . S
C1232 C1233 1.363 . S
C1232 C1237 1.379 . S
C1232 N1239 1.356 . S
C1233 C1232 1.363 . S
C1233 C1236 1.363 . S
N1234 C1236 1.356 . S
N1234 H1246 0.984 . S
N1234 H1247 0.985 . S
N1235 C1237 1.356 . S
N1235 H1240 0.984 . S
N1235 H1241 0.985 . S
C1236 C1230 1.379 . S
C1236 C1233 1.363 . S
C1236 N1234 1.356 . S
C1237 C1231 1.363 . S
C1237 C1232 1.379 . S
C1237 N1235 1.356 . S
N1238 C1230 1.356 . S
N1238 H1244 0.984 . S
N1238 H1245 0.984 . S
N1239 C1232 1.356 . S
N1239 H1242 0.984 . S
N1239 H1243 0.985 1_556 S
H1240 N1235 0.984 . S
H1241 N1235 0.985 . S
H1242 N1239 0.984 . S
H1243 N1239 0.985 1_554 S
H1244 N1238 0.984 . S
H1245 N1238 0.984 . S
H1246 N1234 0.984 . S
H1247 N1234 0.985 . S
C1248 C1249 1.363 . S
C1248 C1254 1.379 . S
C1248 N1256 1.356 . S
C1249 C1248 1.363 . S
C1249 C1255 1.363 . S
C1250 C1251 1.363 . S
C1250 C1255 1.379 . S
C1250 N1257 1.356 . S
C1251 C1250 1.363 . S
C1251 C1254 1.363 . S
N1252 C1254 1.356 . S
N1252 H1264 0.984 . S
N1252 H1265 0.985 . S
N1253 C1255 1.356 . S
N1253 H1258 0.984 . S
N1253 H1259 0.985 . S
C1254 C1248 1.379 . S
C1254 C1251 1.363 . S
C1254 N1252 1.356 . S
C1255 C1249 1.363 . S
C1255 C1250 1.379 . S
C1255 N1253 1.356 . S
N1256 C1248 1.356 . S
N1256 H1262 0.984 . S
N1256 H1263 0.984 . S
N1257 C1250 1.356 . S
N1257 H1260 0.984 . S
N1257 H1261 0.985 1_554 S
H1258 N1253 0.984 . S
H1259 N1253 0.985 . S
H1260 N1257 0.984 . S
H1261 N1257 0.985 1_556 S
H1262 N1256 0.984 . S
H1263 N1256 0.984 . S
H1264 N1252 0.984 . S
H1265 N1252 0.985 . S
C1266 C1267 1.363 . S
C1266 C1272 1.379 . S
C1266 N1274 1.356 . S
C1267 C1266 1.363 . S
C1267 C1273 1.363 . S
C1268 C1269 1.363 . S
C1268 C1273 1.379 . S
C1268 N1275 1.356 . S
C1269 C1268 1.363 . S
C1269 C1272 1.363 . S
N1270 C1272 1.356 . S
N1270 H1282 0.984 . S
N1270 H1283 0.985 . S
N1271 C1273 1.356 . S
N1271 H1276 0.984 . S
N1271 H1277 0.985 . S
C1272 C1266 1.379 . S
C1272 C1269 1.363 . S
C1272 N1270 1.356 . S
C1273 C1267 1.363 . S
C1273 C1268 1.379 . S
C1273 N1271 1.356 . S
N1274 C1266 1.356 . S
N1274 H1280 0.984 . S
N1274 H1281 0.984 . S
N1275 C1268 1.356 . S
N1275 H1278 0.984 . S
N1275 H1279 0.985 . S
H1276 N1271 0.984 . S
H1277 N1271 0.985 . S
H1278 N1275 0.984 . S
H1279 N1275 0.985 . S
H1280 N1274 0.984 . S
H1281 N1274 0.984 . S
H1282 N1270 0.984 . S
H1283 N1270 0.985 . S
C1284 C1285 1.363 . S
C1284 C1290 1.379 . S
C1284 N1292 1.356 . S
C1285 C1284 1.363 . S
C1285 C1291 1.363 . S
C1286 C1287 1.363 . S
C1286 C1291 1.379 . S
C1286 N1293 1.356 . S
C1287 C1286 1.363 . S
C1287 C1290 1.363 . S
N1288 C1290 1.356 . S
N1288 H1300 0.984 1_554 S
N1288 H1301 0.985 . S
N1289 C1291 1.356 . S
N1289 H1294 0.984 . S
N1289 H1295 0.985 . S
C1290 C1284 1.379 . S
C1290 C1287 1.363 . S
C1290 N1288 1.356 . S
C1291 C1285 1.363 . S
C1291 C1286 1.379 . S
C1291 N1289 1.356 . S
N1292 C1284 1.356 . S
N1292 H1298 0.984 . S
N1292 H1299 0.984 . S
N1293 C1286 1.356 . S
N1293 H1296 0.984 . S
N1293 H1297 0.985 . S
H1294 N1289 0.984 . S
H1295 N1289 0.985 . S
H1296 N1293 0.984 . S
H1297 N1293 0.985 . S
H1298 N1292 0.984 . S
H1299 N1292 0.984 . S
H1300 N1288 0.984 1_556 S
H1301 N1288 0.985 . S
C1302 C1303 1.363 . S
C1302 C1308 1.379 . S
C1302 N1310 1.356 . S
C1303 C1302 1.363 . S
C1303 C1309 1.363 . S
C1304 C1305 1.363 . S
C1304 C1309 1.379 . S
C1304 N1311 1.356 . S
C1305 C1304 1.363 . S
C1305 C1308 1.363 . S
N1306 C1308 1.356 . S
N1306 H1318 0.984 . S
N1306 H1319 0.985 . S
N1307 C1309 1.356 . S
N1307 H1312 0.984 . S
N1307 H1313 0.985 . S
C1308 C1302 1.379 . S
C1308 C1305 1.363 . S
C1308 N1306 1.356 . S
C1309 C1303 1.363 . S
C1309 C1304 1.379 . S
C1309 N1307 1.356 . S
N1310 C1302 1.356 . S
N1310 H1316 0.984 . S
N1310 H1317 0.984 . S
N1311 C1304 1.356 . S
N1311 H1314 0.984 . S
N1311 H1315 0.985 . S
H1312 N1307 0.984 . S
H1313 N1307 0.985 . S
H1314 N1311 0.984 . S
H1315 N1311 0.985 . S
H1316 N1310 0.984 . S
H1317 N1310 0.984 . S
H1318 N1306 0.984 . S
H1319 N1306 0.985 . S
C1320 C1321 1.363 . S
C1320 C1326 1.379 . S
C1320 N1328 1.356 . S
C1321 C1320 1.363 . S
C1321 C1327 1.363 . S
C1322 C1323 1.363 . S
C1322 C1327 1.379 . S
C1322 N1329 1.356 . S
C1323 C1322 1.363 . S
C1323 C1326 1.363 . S
N1324 C1326 1.356 . S
N1324 H1336 0.984 . S
N1324 H1337 0.985 . S
N1325 C1327 1.356 1_554 S
N1325 H1330 0.984 . S
N1325 H1331 0.985 . S
C1326 C1320 1.379 . S
C1326 C1323 1.363 . S
C1326 N1324 1.356 . S
C1327 C1321 1.363 . S
C1327 C1322 1.379 . S
C1327 N1325 1.356 1_556 S
N1328 C1320 1.356 . S
N1328 H1334 0.984 . S
N1328 H1335 0.984 . S
N1329 C1322 1.356 . S
N1329 H1332 0.984 . S
N1329 H1333 0.985 1_556 S
H1330 N1325 0.984 . S
H1331 N1325 0.985 . S
H1332 N1329 0.984 . S
H1333 N1329 0.985 1_554 S
H1334 N1328 0.984 . S
H1335 N1328 0.984 . S
H1336 N1324 0.984 . S
H1337 N1324 0.985 . S
C1338 C1339 1.363 . S
C1338 C1344 1.379 . S
C1338 N1346 1.356 . S
C1339 C1338 1.363 . S
C1339 C1345 1.363 . S
C1340 C1341 1.363 . S
C1340 C1345 1.379 . S
C1340 N1347 1.356 . S
C1341 C1340 1.363 . S
C1341 C1344 1.363 . S
N1342 C1344 1.356 . S
N1342 H1354 0.984 . S
N1342 H1355 0.985 . S
N1343 C1345 1.356 . S
N1343 H1348 0.984 . S
N1343 H1349 0.985 . S
C1344 C1338 1.379 . S
C1344 C1341 1.363 . S
C1344 N1342 1.356 . S
C1345 C1339 1.363 . S
C1345 C1340 1.379 . S
C1345 N1343 1.356 . S
N1346 C1338 1.356 . S
N1346 H1352 0.984 . S
N1346 H1353 0.984 . S
N1347 C1340 1.356 . S
N1347 H1350 0.984 . S
N1347 H1351 0.985 . S
H1348 N1343 0.984 . S
H1349 N1343 0.985 . S
H1350 N1347 0.984 . S
H1351 N1347 0.985 . S
H1352 N1346 0.984 . S
H1353 N1346 0.984 . S
H1354 N1342 0.984 . S
H1355 N1342 0.985 . S
C1356 C1357 1.363 . S
C1356 C1362 1.379 . S
C1356 N1364 1.356 . S
C1357 C1356 1.363 . S
C1357 C1363 1.363 . S
C1358 C1359 1.363 . S
C1358 C1363 1.379 . S
C1358 N1365 1.356 . S
C1359 C1358 1.363 . S
C1359 C1362 1.363 . S
N1360 C1362 1.356 . S
N1360 H1372 0.984 . S
N1360 H1373 0.985 . S
N1361 C1363 1.356 . S
N1361 H1366 0.984 . S
N1361 H1367 0.985 . S
C1362 C1356 1.379 . S
C1362 C1359 1.363 . S
C1362 N1360 1.356 . S
C1363 C1357 1.363 . S
C1363 C1358 1.379 . S
C1363 N1361 1.356 . S
N1364 C1356 1.356 . S
N1364 H1370 0.984 . S
N1364 H1371 0.984 . S
N1365 C1358 1.356 . S
N1365 H1368 0.984 . S
N1365 H1369 0.985 . S
H1366 N1361 0.984 . S
H1367 N1361 0.985 . S
H1368 N1365 0.984 . S
H1369 N1365 0.985 . S
H1370 N1364 0.984 . S
H1371 N1364 0.984 . S
H1372 N1360 0.984 . S
H1373 N1360 0.985 . S
C1374 C1375 1.363 . S
C1374 C1380 1.379 . S
C1374 N1382 1.356 . S
C1375 C1374 1.363 . S
C1375 C1381 1.363 . S
C1376 C1377 1.363 . S
C1376 C1381 1.379 . S
C1376 N1383 1.356 . S
C1377 C1376 1.363 . S
C1377 C1380 1.363 . S
N1378 C1380 1.356 . S
N1378 H1390 0.984 . S
N1378 H1391 0.985 . S
N1379 C1381 1.356 . S
N1379 H1384 0.984 . S
N1379 H1385 0.985 1_554 S
C1380 C1374 1.379 . S
C1380 C1377 1.363 . S
C1380 N1378 1.356 . S
C1381 C1375 1.363 . S
C1381 C1376 1.379 . S
C1381 N1379 1.356 . S
N1382 C1374 1.356 . S
N1382 H1388 0.984 . S
N1382 H1389 0.984 . S
N1383 C1376 1.356 . S
N1383 H1386 0.984 . S
N1383 H1387 0.985 . S
H1384 N1379 0.984 . S
H1385 N1379 0.985 1_556 S
H1386 N1383 0.984 . S
H1387 N1383 0.985 . S
H1388 N1382 0.984 . S
H1389 N1382 0.984 . S
H1390 N1378 0.984 . S
H1391 N1378 0.985 . S
C1392 C1393 1.363 . S
C1392 C1398 1.379 . S
C1392 N1400 1.356 . S
C1393 C1392 1.363 . S
C1393 C1399 1.363 . S
C1394 C1395 1.363 . S
C1394 C1399 1.379 . S
C1394 N1401 1.356 . S
C1395 C1394 1.363 . S
C1395 C1398 1.363 . S
N1396 C1398 1.356 . S
N1396 H1408 0.984 . S
N1396 H1409 0.985 . S
N1397 C1399 1.356 . S
N1397 H1402 0.984 . S
N1397 H1403 0.985 . S
C1398 C1392 1.379 . S
C1398 C1395 1.363 . S
C1398 N1396 1.356 . S
C1399 C1393 1.363 . S
C1399 C1394 1.379 . S
C1399 N1397 1.356 . S
N1400 C1392 1.356 . S
N1400 H1406 0.984 . S
N1400 H1407 0.984 . S
N1401 C1394 1.356 . S
N1401 H1404 0.984 . S
N1401 H1405 0.985 . S
H1402 N1397 0.984 . S
H1403 N1397 0.985 . S
H1404 N1401 0.984 . S
H1405 N1401 0.985 . S
H1406 N1400 0.984 . S
H1407 N1400 0.984 . S
H1408 N1396 0.984 . S
H1409 N1396 0.985 . S
C1410 C1411 1.363 . S
C1410 C1416 1.379 . S
C1410 N1418 1.356 . S
C1411 C1410 1.363 . S
C1411 C1417 1.363 . S
C1412 C1413 1.363 . S
C1412 C1417 1.379 . S
C1412 N1419 1.356 1_554 S
C1413 C1412 1.363 . S
C1413 C1416 1.363 . S
N1414 C1416 1.356 . S
N1414 H1426 0.984 . S
N1414 H1427 0.985 . S
N1415 C1417 1.356 . S
N1415 H1420 0.984 . S
N1415 H1421 0.985 . S
C1416 C1410 1.379 . S
C1416 C1413 1.363 . S
C1416 N1414 1.356 . S
C1417 C1411 1.363 . S
C1417 C1412 1.379 . S
C1417 N1415 1.356 . S
N1418 C1410 1.356 . S
N1418 H1424 0.984 . S
N1418 H1425 0.984 . S
N1419 C1412 1.356 1_556 S
N1419 H1422 0.984 . S
N1419 H1423 0.985 . S
H1420 N1415 0.984 . S
H1421 N1415 0.985 . S
H1422 N1419 0.984 . S
H1423 N1419 0.985 . S
H1424 N1418 0.984 . S
H1425 N1418 0.984 . S
H1426 N1414 0.984 . S
H1427 N1414 0.985 . S
C1428 C1429 1.363 . S
C1428 C1434 1.379 . S
C1428 N1436 1.356 . S
C1429 C1428 1.363 . S
C1429 C1435 1.363 . S
C1430 C1431 1.363 . S
C1430 C1435 1.379 . S
C1430 N1437 1.356 . S
C1431 C1430 1.363 . S
C1431 C1434 1.363 . S
N1432 C1434 1.356 . S
N1432 H1444 0.984 . S
N1432 H1445 0.985 . S
N1433 C1435 1.356 . S
N1433 H1438 0.984 . S
N1433 H1439 0.985 . S
C1434 C1428 1.379 . S
C1434 C1431 1.363 . S
C1434 N1432 1.356 . S
C1435 C1429 1.363 . S
C1435 C1430 1.379 . S
C1435 N1433 1.356 . S
N1436 C1428 1.356 . S
N1436 H1442 0.984 . S
N1436 H1443 0.984 . S
N1437 C1430 1.356 . S
N1437 H1440 0.984 . S
N1437 H1441 0.985 . S
H1438 N1433 0.984 . S
H1439 N1433 0.985 . S
H1440 N1437 0.984 . S
H1441 N1437 0.985 . S
H1442 N1436 0.984 . S
H1443 N1436 0.984 . S
H1444 N1432 0.984 . S
H1445 N1432 0.985 . S
C1446 C1447 1.363 . S
C1446 C1452 1.379 . S
C1446 N1454 1.356 . S
C1447 C1446 1.363 . S
C1447 C1453 1.363 . S
C1448 C1449 1.363 . S
C1448 C1453 1.379 . S
C1448 N1455 1.356 . S
C1449 C1448 1.363 . S
C1449 C1452 1.363 . S
N1450 C1452 1.356 . S
N1450 H1462 0.984 . S
N1450 H1463 0.985 . S
N1451 C1453 1.356 . S
N1451 H1456 0.984 . S
N1451 H1457 0.985 . S
C1452 C1446 1.379 . S
C1452 C1449 1.363 . S
C1452 N1450 1.356 . S
C1453 C1447 1.363 . S
C1453 C1448 1.379 . S
C1453 N1451 1.356 . S
N1454 C1446 1.356 . S
N1454 H1460 0.984 . S
N1454 H1461 0.984 . S
N1455 C1448 1.356 . S
N1455 H1458 0.984 . S
N1455 H1459 0.985 . S
H1456 N1451 0.984 . S
H1457 N1451 0.985 . S
H1458 N1455 0.984 . S
H1459 N1455 0.985 . S
H1460 N1454 0.984 . S
H1461 N1454 0.984 . S
H1462 N1450 0.984 . S
H1463 N1450 0.985 . S
C1464 C1465 1.363 . S
C1464 C1470 1.379 . S
C1464 N1472 1.356 . S
C1465 C1464 1.363 . S
C1465 C1471 1.363 . S
C1466 C1467 1.363 . S
C1466 C1471 1.379 . S
C1466 N1473 1.356 . S
C1467 C1466 1.363 . S
C1467 C1470 1.363 . S
N1468 C1470 1.356 . S
N1468 H1480 0.984 . S
N1468 H1481 0.985 . S
N1469 C1471 1.356 . S
N1469 H1474 0.984 . S
N1469 H1475 0.985 . S
C1470 C1464 1.379 . S
C1470 C1467 1.363 . S
C1470 N1468 1.356 . S
C1471 C1465 1.363 . S
C1471 C1466 1.379 . S
C1471 N1469 1.356 . S
N1472 C1464 1.356 . S
N1472 H1478 0.984 . S
N1472 H1479 0.984 . S
N1473 C1466 1.356 . S
N1473 H1476 0.984 . S
N1473 H1477 0.985 . S
H1474 N1469 0.984 . S
H1475 N1469 0.985 . S
H1476 N1473 0.984 . S
H1477 N1473 0.985 . S
H1478 N1472 0.984 . S
H1479 N1472 0.984 . S
H1480 N1468 0.984 . S
H1481 N1468 0.985 . S
C1482 C1483 1.363 . S
C1482 C1488 1.379 . S
C1482 N1490 1.356 . S
C1483 C1482 1.363 . S
C1483 C1489 1.363 . S
C1484 C1485 1.363 . S
C1484 C1489 1.379 . S
C1484 N1491 1.356 . S
C1485 C1484 1.363 . S
C1485 C1488 1.363 . S
N1486 C1488 1.356 . S
N1486 H1498 0.984 . S
N1486 H1499 0.985 . S
N1487 C1489 1.356 . S
N1487 H1492 0.984 . S
N1487 H1493 0.985 . S
C1488 C1482 1.379 . S
C1488 C1485 1.363 . S
C1488 N1486 1.356 . S
C1489 C1483 1.363 . S
C1489 C1484 1.379 . S
C1489 N1487 1.356 . S
N1490 C1482 1.356 . S
N1490 H1496 0.984 . S
N1490 H1497 0.984 . S
N1491 C1484 1.356 . S
N1491 H1494 0.984 . S
N1491 H1495 0.985 . S
H1492 N1487 0.984 . S
H1493 N1487 0.985 . S
H1494 N1491 0.984 . S
H1495 N1491 0.985 . S
H1496 N1490 0.984 . S
H1497 N1490 0.984 . S
H1498 N1486 0.984 . S
H1499 N1486 0.985 . S
C1500 C1501 1.363 . S
C1500 C1506 1.379 . S
C1500 N1508 1.356 . S
C1501 C1500 1.363 . S
C1501 C1507 1.363 . S
C1502 C1503 1.363 . S
C1502 C1507 1.379 . S
C1502 N1509 1.356 . S
C1503 C1502 1.363 . S
C1503 C1506 1.363 . S
N1504 C1506 1.356 . S
N1504 H1516 0.984 . S
N1504 H1517 0.985 . S
N1505 C1507 1.356 . S
N1505 H1510 0.984 . S
N1505 H1511 0.985 . S
C1506 C1500 1.379 . S
C1506 C1503 1.363 . S
C1506 N1504 1.356 . S
C1507 C1501 1.363 . S
C1507 C1502 1.379 . S
C1507 N1505 1.356 . S
N1508 C1500 1.356 . S
N1508 H1514 0.984 . S
N1508 H1515 0.984 . S
N1509 C1502 1.356 . S
N1509 H1512 0.984 . S
N1509 H1513 0.985 . S
H1510 N1505 0.984 . S
H1511 N1505 0.985 . S
H1512 N1509 0.984 . S
H1513 N1509 0.985 . S
H1514 N1508 0.984 . S
H1515 N1508 0.984 . S
H1516 N1504 0.984 . S
H1517 N1504 0.985 . S
C1518 C1519 1.363 . S
C1518 C1524 1.379 . S
C1518 N1526 1.356 . S
C1519 C1518 1.363 . S
C1519 C1525 1.363 . S
C1520 C1521 1.363 . S
C1520 C1525 1.379 . S
C1520 N1527 1.356 . S
C1521 C1520 1.363 . S
C1521 C1524 1.363 . S
N1522 C1524 1.356 . S
N1522 H1534 0.984 . S
N1522 H1535 0.985 . S
N1523 C1525 1.356 . S
N1523 H1528 0.984 . S
N1523 H1529 0.985 . S
C1524 C1518 1.379 . S
C1524 C1521 1.363 . S
C1524 N1522 1.356 . S
C1525 C1519 1.363 . S
C1525 C1520 1.379 . S
C1525 N1523 1.356 . S
N1526 C1518 1.356 . S
N1526 H1532 0.984 . S
N1526 H1533 0.984 . S
N1527 C1520 1.356 . S
N1527 H1530 0.984 . S
N1527 H1531 0.985 . S
H1528 N1523 0.984 . S
H1529 N1523 0.985 . S
H1530 N1527 0.984 . S
H1531 N1527 0.985 . S
H1532 N1526 0.984 . S
H1533 N1526 0.984 . S
H1534 N1522 0.984 . S
H1535 N1522 0.985 . S
C1536 C1537 1.363 . S
C1536 C1542 1.379 . S
C1536 N1544 1.356 . S
C1537 C1536 1.363 . S
C1537 C1543 1.363 . S
C1538 C1539 1.363 . S
C1538 C1543 1.379 . S
C1538 N1545 1.356 . S
C1539 C1538 1.363 . S
C1539 C1542 1.363 . S
N1540 C1542 1.356 . S
N1540 H1552 0.984 . S
N1540 H1553 0.985 . S
N1541 C1543 1.356 . S
N1541 H1546 0.984 . S
N1541 H1547 0.985 . S
C1542 C1536 1.379 . S
C1542 C1539 1.363 . S
C1542 N1540 1.356 . S
C1543 C1537 1.363 . S
C1543 C1538 1.379 . S
C1543 N1541 1.356 . S
N1544 C1536 1.356 . S
N1544 H1550 0.984 . S
N1544 H1551 0.984 . S
N1545 C1538 1.356 . S
N1545 H1548 0.984 . S
N1545 H1549 0.985 . S
H1546 N1541 0.984 . S
H1547 N1541 0.985 . S
H1548 N1545 0.984 . S
H1549 N1545 0.985 . S
H1550 N1544 0.984 . S
H1551 N1544 0.984 . S
H1552 N1540 0.984 . S
H1553 N1540 0.985 . S
C1554 C1555 1.363 . S
C1554 C1560 1.379 . S
C1554 N1562 1.356 . S
C1555 C1554 1.363 . S
C1555 C1561 1.363 . S
C1556 C1557 1.363 . S
C1556 C1561 1.379 . S
C1556 N1563 1.356 . S
C1557 C1556 1.363 . S
C1557 C1560 1.363 . S
N1558 C1560 1.356 . S
N1558 H1570 0.984 . S
N1558 H1571 0.985 . S
N1559 C1561 1.356 . S
N1559 H1564 0.984 . S
N1559 H1565 0.985 . S
C1560 C1554 1.379 . S
C1560 C1557 1.363 . S
C1560 N1558 1.356 . S
C1561 C1555 1.363 . S
C1561 C1556 1.379 . S
C1561 N1559 1.356 . S
N1562 C1554 1.356 . S
N1562 H1568 0.984 . S
N1562 H1569 0.984 . S
N1563 C1556 1.356 . S
N1563 H1566 0.984 . S
N1563 H1567 0.985 . S
H1564 N1559 0.984 . S
H1565 N1559 0.985 . S
H1566 N1563 0.984 . S
H1567 N1563 0.985 . S
H1568 N1562 0.984 . S
H1569 N1562 0.984 . S
H1570 N1558 0.984 . S
H1571 N1558 0.985 . S
C1572 C1573 1.363 . S
C1572 C1578 1.379 . S
C1572 N1580 1.356 . S
C1573 C1572 1.363 . S
C1573 C1579 1.363 . S
C1574 C1575 1.363 . S
C1574 C1579 1.379 . S
C1574 N1581 1.356 . S
C1575 C1574 1.363 . S
C1575 C1578 1.363 . S
N1576 C1578 1.356 . S
N1576 H1588 0.984 . S
N1576 H1589 0.985 . S
N1577 C1579 1.356 . S
N1577 H1582 0.984 . S
N1577 H1583 0.985 . S
C1578 C1572 1.379 . S
C1578 C1575 1.363 . S
C1578 N1576 1.356 . S
C1579 C1573 1.363 . S
C1579 C1574 1.379 . S
C1579 N1577 1.356 . S
N1580 C1572 1.356 . S
N1580 H1586 0.984 . S
N1580 H1587 0.984 . S
N1581 C1574 1.356 . S
N1581 H1584 0.984 . S
N1581 H1585 0.985 . S
H1582 N1577 0.984 . S
H1583 N1577 0.985 . S
H1584 N1581 0.984 . S
H1585 N1581 0.985 . S
H1586 N1580 0.984 . S
H1587 N1580 0.984 . S
H1588 N1576 0.984 . S
H1589 N1576 0.985 . S
C1590 C1591 1.363 . S
C1590 C1596 1.379 . S
C1590 N1598 1.356 . S
C1591 C1590 1.363 . S
C1591 C1597 1.363 . S
C1592 C1593 1.363 . S
C1592 C1597 1.379 . S
C1592 N1599 1.356 . S
C1593 C1592 1.363 . S
C1593 C1596 1.363 . S
N1594 C1596 1.356 . S
N1594 H1606 0.984 . S
N1594 H1607 0.985 . S
N1595 C1597 1.356 . S
N1595 H1600 0.984 . S
N1595 H1601 0.985 . S
C1596 C1590 1.379 . S
C1596 C1593 1.363 . S
C1596 N1594 1.356 . S
C1597 C1591 1.363 . S
C1597 C1592 1.379 . S
C1597 N1595 1.356 . S
N1598 C1590 1.356 . S
N1598 H1604 0.984 . S
N1598 H1605 0.984 . S
N1599 C1592 1.356 . S
N1599 H1602 0.984 . S
N1599 H1603 0.985 . S
H1600 N1595 0.984 . S
H1601 N1595 0.985 . S
H1602 N1599 0.984 . S
H1603 N1599 0.985 . S
H1604 N1598 0.984 . S
H1605 N1598 0.984 . S
H1606 N1594 0.984 . S
H1607 N1594 0.985 . S
C1608 C1609 1.363 . S
C1608 C1614 1.379 . S
C1608 N1616 1.356 . S
C1609 C1608 1.363 . S
C1609 C1615 1.363 . S
C1610 C1611 1.363 . S
C1610 C1615 1.379 . S
C1610 N1617 1.356 . S
C1611 C1610 1.363 . S
C1611 C1614 1.363 . S
N1612 C1614 1.356 . S
N1612 H1624 0.984 . S
N1612 H1625 0.985 . S
N1613 C1615 1.356 . S
N1613 H1618 0.984 . S
N1613 H1619 0.985 . S
C1614 C1608 1.379 . S
C1614 C1611 1.363 . S
C1614 N1612 1.356 . S
C1615 C1609 1.363 . S
C1615 C1610 1.379 . S
C1615 N1613 1.356 . S
N1616 C1608 1.356 . S
N1616 H1622 0.984 . S
N1616 H1623 0.984 . S
N1617 C1610 1.356 . S
N1617 H1620 0.984 . S
N1617 H1621 0.985 . S
H1618 N1613 0.984 . S
H1619 N1613 0.985 . S
H1620 N1617 0.984 . S
H1621 N1617 0.985 . S
H1622 N1616 0.984 . S
H1623 N1616 0.984 . S
H1624 N1612 0.984 . S
H1625 N1612 0.985 . S
C1626 C1627 1.363 . S
C1626 C1632 1.379 . S
C1626 N1634 1.356 . S
C1627 C1626 1.363 . S
C1627 C1633 1.363 . S
C1628 C1629 1.363 . S
C1628 C1633 1.379 . S
C1628 N1635 1.356 . S
C1629 C1628 1.363 . S
C1629 C1632 1.363 . S
N1630 C1632 1.356 . S
N1630 H1642 0.984 . S
N1630 H1643 0.985 . S
N1631 C1633 1.356 . S
N1631 H1636 0.984 . S
N1631 H1637 0.985 . S
C1632 C1626 1.379 . S
C1632 C1629 1.363 . S
C1632 N1630 1.356 . S
C1633 C1627 1.363 . S
C1633 C1628 1.379 . S
C1633 N1631 1.356 . S
N1634 C1626 1.356 . S
N1634 H1640 0.984 . S
N1634 H1641 0.984 . S
N1635 C1628 1.356 . S
N1635 H1638 0.984 . S
N1635 H1639 0.985 . S
H1636 N1631 0.984 . S
H1637 N1631 0.985 . S
H1638 N1635 0.984 . S
H1639 N1635 0.985 . S
H1640 N1634 0.984 . S
H1641 N1634 0.984 . S
H1642 N1630 0.984 . S
H1643 N1630 0.985 . S
C1644 C1645 1.363 . S
C1644 C1650 1.379 . S
C1644 N1652 1.356 . S
C1645 C1644 1.363 . S
C1645 C1651 1.363 . S
C1646 C1647 1.363 . S
C1646 C1651 1.379 . S
C1646 N1653 1.356 . S
C1647 C1646 1.363 . S
C1647 C1650 1.363 . S
N1648 C1650 1.356 . S
N1648 H1660 0.984 . S
N1648 H1661 0.985 . S
N1649 C1651 1.356 . S
N1649 H1654 0.984 . S
N1649 H1655 0.985 . S
C1650 C1644 1.379 . S
C1650 C1647 1.363 . S
C1650 N1648 1.356 . S
C1651 C1645 1.363 . S
C1651 C1646 1.379 . S
C1651 N1649 1.356 . S
N1652 C1644 1.356 . S
N1652 H1658 0.984 . S
N1652 H1659 0.984 . S
N1653 C1646 1.356 . S
N1653 H1656 0.984 . S
N1653 H1657 0.985 . S
H1654 N1649 0.984 . S
H1655 N1649 0.985 . S
H1656 N1653 0.984 . S
H1657 N1653 0.985 . S
H1658 N1652 0.984 . S
H1659 N1652 0.984 . S
H1660 N1648 0.984 . S
H1661 N1648 0.985 . S
C1662 C1663 1.363 . S
C1662 C1668 1.379 . S
C1662 N1670 1.356 . S
C1663 C1662 1.363 . S
C1663 C1669 1.363 . S
C1664 C1665 1.363 . S
C1664 C1669 1.379 . S
C1664 N1671 1.356 . S
C1665 C1664 1.363 . S
C1665 C1668 1.363 . S
N1666 C1668 1.356 . S
N1666 H1678 0.984 . S
N1666 H1679 0.985 . S
N1667 C1669 1.356 . S
N1667 H1672 0.984 . S
N1667 H1673 0.985 . S
C1668 C1662 1.379 . S
C1668 C1665 1.363 . S
C1668 N1666 1.356 . S
C1669 C1663 1.363 . S
C1669 C1664 1.379 . S
C1669 N1667 1.356 . S
N1670 C1662 1.356 . S
N1670 H1676 0.984 . S
N1670 H1677 0.984 . S
N1671 C1664 1.356 . S
N1671 H1674 0.984 . S
N1671 H1675 0.985 . S
H1672 N1667 0.984 . S
H1673 N1667 0.985 . S
H1674 N1671 0.984 . S
H1675 N1671 0.985 . S
H1676 N1670 0.984 . S
H1677 N1670 0.984 . S
H1678 N1666 0.984 . S
H1679 N1666 0.985 . S
C1680 C1681 1.363 . S
C1680 C1686 1.379 . S
C1680 N1688 1.356 . S
C1681 C1680 1.363 . S
C1681 C1687 1.363 . S
C1682 C1683 1.363 . S
C1682 C1687 1.379 . S
C1682 N1689 1.356 . S
C1683 C1682 1.363 . S
C1683 C1686 1.363 . S
N1684 C1686 1.356 . S
N1684 H1696 0.984 . S
N1684 H1697 0.985 . S
N1685 C1687 1.356 . S
N1685 H1690 0.984 . S
N1685 H1691 0.985 . S
C1686 C1680 1.379 . S
C1686 C1683 1.363 . S
C1686 N1684 1.356 . S
C1687 C1681 1.363 . S
C1687 C1682 1.379 . S
C1687 N1685 1.356 . S
N1688 C1680 1.356 . S
N1688 H1694 0.984 . S
N1688 H1695 0.984 . S
N1689 C1682 1.356 . S
N1689 H1692 0.984 . S
N1689 H1693 0.985 . S
H1690 N1685 0.984 . S
H1691 N1685 0.985 . S
H1692 N1689 0.984 . S
H1693 N1689 0.985 . S
H1694 N1688 0.984 . S
H1695 N1688 0.984 . S
H1696 N1684 0.984 . S
H1697 N1684 0.985 . S
C1698 C1699 1.363 . S
C1698 C1704 1.379 . S
C1698 N1706 1.356 . S
C1699 C1698 1.363 . S
C1699 C1705 1.363 . S
C1700 C1701 1.363 . S
C1700 C1705 1.379 . S
C1700 N1707 1.356 . S
C1701 C1700 1.363 . S
C1701 C1704 1.363 . S
N1702 C1704 1.356 . S
N1702 H1714 0.984 . S
N1702 H1715 0.985 . S
N1703 C1705 1.356 . S
N1703 H1708 0.984 . S
N1703 H1709 0.985 . S
C1704 C1698 1.379 . S
C1704 C1701 1.363 . S
C1704 N1702 1.356 . S
C1705 C1699 1.363 . S
C1705 C1700 1.379 . S
C1705 N1703 1.356 . S
N1706 C1698 1.356 . S
N1706 H1712 0.984 . S
N1706 H1713 0.984 . S
N1707 C1700 1.356 . S
N1707 H1710 0.984 . S
N1707 H1711 0.985 . S
H1708 N1703 0.984 . S
H1709 N1703 0.985 . S
H1710 N1707 0.984 . S
H1711 N1707 0.985 . S
H1712 N1706 0.984 . S
H1713 N1706 0.984 . S
H1714 N1702 0.984 . S
H1715 N1702 0.985 . S
C1716 C1717 1.363 . S
C1716 C1722 1.379 . S
C1716 N1724 1.356 . S
C1717 C1716 1.363 . S
C1717 C1723 1.363 . S
C1718 C1719 1.363 . S
C1718 C1723 1.379 . S
C1718 N1725 1.356 . S
C1719 C1718 1.363 . S
C1719 C1722 1.363 . S
N1720 C1722 1.356 . S
N1720 H1732 0.984 . S
N1720 H1733 0.985 . S
N1721 C1723 1.356 . S
N1721 H1726 0.984 . S
N1721 H1727 0.985 . S
C1722 C1716 1.379 . S
C1722 C1719 1.363 . S
C1722 N1720 1.356 . S
C1723 C1717 1.363 . S
C1723 C1718 1.379 . S
C1723 N1721 1.356 . S
N1724 C1716 1.356 . S
N1724 H1730 0.984 . S
N1724 H1731 0.984 . S
N1725 C1718 1.356 . S
N1725 H1728 0.984 . S
N1725 H1729 0.985 . S
H1726 N1721 0.984 . S
H1727 N1721 0.985 . S
H1728 N1725 0.984 . S
H1729 N1725 0.985 . S
H1730 N1724 0.984 . S
H1731 N1724 0.984 . S
H1732 N1720 0.984 . S
H1733 N1720 0.985 . S
C873 C699 1.386 . S
C871 C74 1.444 . S
C891 C700 0.605 . S
C889 C142 0.800 . S
C909 C694 1.417 . S
C907 C231 1.347 . S
C925 C322 1.126 . S
C927 C693 1.155 . S
C943 C406 0.800 . S
C945 C696 0.606 . S
C963 C698 1.417 . S
C961 C494 1.346 . S
C979 C562 1.126 . S
C981 C697 1.154 . S
C997 C651 1.444 . S
C999 C695 1.386 . S
C1017 C730 1.536 . S
C1015 C58 1.443 . S
C1033 C151 1.812 . S
C1035 C761 1.761 . S
C1053 C729 2.603 . S
C1051 C224 2.451 . S
C1071 C764 1.336 . S
C1069 C315 1.305 . S
C1087 C399 1.578 . S
C1089 C727 1.588 . S
C1107 C759 1.470 . S
C1105 C478 1.398 . S
C1123 C571 1.393 . S
C1125 C732 1.465 . S
C1141 C644 2.485 . S
C1143 C766 2.562 . S
C1159 C67 2.485 . S
C1161 C762 2.562 . S
C1177 C392 1.812 . S
C1179 C765 1.763 . S
C1197 C733 2.603 . S
C1195 C487 2.451 . S
C1215 C760 1.336 . S
C1213 C578 1.308 . S
C1231 C658 1.445 . S
C1233 C726 1.537 . S
C1249 C238 1.397 . S
C1251 C763 1.469 . S
C1269 C728 1.465 . S
C1267 C308 1.391 . S
C1285 C158 1.578 . S
C1287 C731 1.586 . S
C1303 C662 1.421 . S
C1305 C798 1.341 . S
C1321 C394 1.044 . S
C1323 C799 0.166 . S
C1341 C793 1.562 . S
C1339 C483 1.523 . S
C1359 C792 1.377 . S
C1357 C574 1.252 . S
C1375 C154 1.044 . S
C1377 C795 0.165 . S
C1395 C797 1.562 . S
C1393 C242 1.521 . S
C1411 C310 1.250 . S
C1413 C796 1.376 . S
C1429 C63 1.420 . S
C1431 C794 1.339 . S
C1447 C646 1.463 . S
C1449 C832 1.545 . S
C1467 C864 1.350 . S
C1465 C403 1.401 . S
C1483 C476 2.339 . S
C1485 C825 2.486 . S
C1501 C567 1.643 . S
C1503 C859 1.704 . S
C1521 C830 1.559 . S
C1519 C147 1.396 . S
C1537 C226 1.635 . S
C1539 C861 1.648 . S
C1557 C827 1.606 . S
C1555 C319 1.660 . S
C1575 C862 2.559 . S
C1573 C56 2.281 . S
C1593 C858 2.560 . S
C1591 C655 2.282 . S
C1609 C140 1.401 . S
C1611 C860 1.349 . S
C1627 C235 2.339 . S
C1629 C829 2.486 . S
C1647 C863 1.705 . S
C1645 C326 1.643 . S
C1663 C70 1.463 . S
C1665 C828 1.545 . S
C1681 C490 1.635 . S
C1683 C865 1.646 . S
C1701 C831 1.606 . S
C1699 C560 1.660 . S
C1719 C826 1.559 . S
C1717 C410 1.396 . S
