# Generated by pormake.
# Topology pth, (4,4)-cn, num edge types: 1
# Building blocks:
#     Node 0, Type 0, BuildingBlock: KUFVIS_clean_sbu_0, # of connection points: 4
#     Node 1, Type 0, BuildingBlock: KUFVIS_clean_sbu_0, # of connection points: 4
#     Node 2, Type 0, BuildingBlock: KUFVIS_clean_sbu_0, # of connection points: 4
#     Node 3, Type 1, BuildingBlock: MUDLON_clean_sbu_0, # of connection points: 4
#     Node 4, Type 1, BuildingBlock: MUDLON_clean_sbu_0, # of connection points: 4
#     Node 5, Type 1, BuildingBlock: MUDLON_clean_sbu_0, # of connection points: 4
#     Edge 6, Type (0, 1), BuildingBlock: TEMPAE_clean_linker_10, # of connection points: 2
#     Edge 7, Type (0, 1), BuildingBlock: TEMPAE_clean_linker_10, # of connection points: 2
#     Edge 8, Type (0, 1), BuildingBlock: TEMPAE_clean_linker_10, # of connection points: 2
#     Edge 9, Type (0, 1), BuildingBlock: TEMPAE_clean_linker_10, # of connection points: 2
#     Edge 10, Type (0, 1), BuildingBlock: TEMPAE_clean_linker_10, # of connection points: 2
#     Edge 11, Type (0, 1), BuildingBlock: TEMPAE_clean_linker_10, # of connection points: 2
#     Edge 12, Type (0, 1), BuildingBlock: TEMPAE_clean_linker_10, # of connection points: 2
#     Edge 13, Type (0, 1), BuildingBlock: TEMPAE_clean_linker_10, # of connection points: 2
#     Edge 14, Type (0, 1), BuildingBlock: TEMPAE_clean_linker_10, # of connection points: 2
#     Edge 15, Type (0, 1), BuildingBlock: TEMPAE_clean_linker_10, # of connection points: 2
#     Edge 16, Type (0, 1), BuildingBlock: TEMPAE_clean_linker_10, # of connection points: 2
#     Edge 17, Type (0, 1), BuildingBlock: TEMPAE_clean_linker_10, # of connection points: 2
# Relax obj value: 0.022
# Max RMSD: 0.096
# Mean RMSD: 0.069
data_MOF--net-pth--node1-KUFVIS_clean_sbu_0--node2-MUDLON_clean_sbu_0--edge1-TEMPAE_clean_linker_10
_symmetry_space_group_name_H-M    P1
_symmetry_Int_Tables_number       1
_symmetry_cell_setting            triclinic
loop_
_symmetry_equiv_pos_as_xyz
'x, y, z'
_cell_length_a     22.69775
_cell_length_b     22.737476
_cell_length_c     61.457509
_cell_angle_alpha  90.419014
_cell_angle_beta   91.979921
_cell_angle_gamma 120.04079
loop_
_atom_site_label
_atom_site_type_symbol
_atom_site_fract_x
_atom_site_fract_y
_atom_site_fract_z
_atom_type_partial_charge
Mn0 Mn 0.07226 0.13849 0.08214 0.0
Mn1 Mn 0.01803 0.22617 0.05146 0.0
C2 C 0.99917 0.08627 0.05199 0.0
C3 C 0.05805 0.06917 0.11196 0.0
C4 C 0.15829 0.2416 0.048 0.0
O5 O 0.09506 0.22041 0.10192 0.0
O6 O 0.05451 0.27291 0.08039 0.0
C7 C 0.90229 0.20434 0.07778 0.0
N8 N 0.92661 0.19923 0.05833 0.0
C9 C 0.81527 0.15102 0.04066 0.0
C10 C 0.78907 0.15613 0.06047 0.0
C11 C 0.83276 0.1827 0.07912 0.0
C12 C 0.88495 0.17323 0.04033 0.0
H13 H 0.93568 0.22473 0.09216 0.0
C14 C 0.0829 0.26862 0.09823 0.0
O15 O 0.11705 0.10517 0.1035 0.0
O16 O 1.00829 0.07513 0.10349 0.0
N17 N 0.98069 0.18714 0.02312 0.0
C18 C 0.01342 0.18284 1.00552 0.0
C19 C 0.97656 0.15579 0.98566 0.0
C20 C 0.90677 0.13443 0.984 0.0
C21 C 0.87436 0.14003 1.00227 0.0
C22 C 0.9137 0.16736 0.02163 0.0
H23 H 0.06716 0.19961 1.00666 0.0
O24 O 0.03628 0.06238 0.06003 0.0
O25 O 1.00501 0.1396 0.06207 0.0
O26 O 0.15169 0.19878 0.0625 0.0
O27 O 0.11161 0.25557 0.04297 0.0
C28 C 0.80448 0.11911 1.00208 0.0
C29 C 0.77486 0.12418 0.02129 0.0
H30 H 0.73545 0.13944 0.06158 0.0
H31 H 0.81288 0.18654 0.0945 0.0
H32 H 1.00191 0.15159 0.97163 0.0
H33 H 0.87858 0.11378 0.96864 0.0
H34 H 0.77286 0.09852 0.98729 0.0
H35 H 0.72087 0.10692 0.02101 0.0
Mn36 Mn 0.05839 0.14013 0.41518 0.0
Mn37 Mn 0.11325 0.28617 0.44426 0.0
C38 C 0.13072 0.16426 0.44575 0.0
C39 C 0.07234 0.08004 0.38647 0.0
C40 C 0.97103 0.16375 0.44719 0.0
O41 O 0.03714 0.19771 0.39439 0.0
O42 O 0.08221 0.29509 0.41443 0.0
C43 C 0.23433 0.37625 0.4195 0.0
N44 N 0.20635 0.34844 0.43869 0.0
C45 C 0.31488 0.41153 0.45814 0.0
C46 C 0.34483 0.44116 0.4386 0.0
C47 C 0.3044 0.42324 0.41919 0.0
C48 C 0.24484 0.36494 0.45743 0.0
H49 H 0.20341 0.36266 0.40455 0.0
C50 C 0.05296 0.25987 0.39693 0.0
O51 O 0.01321 0.05942 0.39457 0.0
O52 O 0.12248 0.1366 0.3945 0.0
N53 N 0.14552 0.28515 0.47336 0.0
C54 C 0.1096 0.24877 0.49051 0.0
C55 C 0.14306 0.25893 0.51101 0.0
C56 C 0.21278 0.30693 0.51372 0.0
C57 C 0.24857 0.34401 0.49586 0.0
C58 C 0.21255 0.33168 0.47582 0.0
H59 H 0.05591 0.21212 0.48855 0.0
O60 O 0.09324 0.10234 0.43826 0.0
O61 O 0.12542 0.21051 0.43495 0.0
O62 O 0.97861 0.12421 0.43414 0.0
O63 O 0.01757 0.22513 0.45151 0.0
C64 C 0.31869 0.39229 0.49709 0.0
C65 C 0.35191 0.42574 0.47822 0.0
H66 H 0.39887 0.47734 0.4383 0.0
H67 H 0.32719 0.44566 0.40404 0.0
H68 H 0.11513 0.23 0.52471 0.0
H69 H 0.23835 0.31473 0.52958 0.0
H70 H 0.3477 0.40371 0.51242 0.0
H71 H 0.40608 0.46186 0.47931 0.0
Mn72 Mn 0.07413 0.1196 0.74944 0.0
Mn73 Mn 0.01094 0.20372 0.77714 0.0
C74 C 0.13821 0.19479 0.77816 0.0
C75 C 0.13066 0.10594 0.72017 0.0
C76 C 0.96941 0.05669 0.78497 0.0
O77 O 0.99605 0.1091 0.72894 0.0
O78 O 0.96131 0.16885 0.74863 0.0
C79 C 0.05336 0.3191 0.74756 0.0
N80 N 0.0522 0.29545 0.76793 0.0
C81 C 0.10749 0.40862 0.7837 0.0
C82 C 0.10919 0.43428 0.76291 0.0
C83 C 0.08243 0.38933 0.74474 0.0
C84 C 0.07919 0.33832 0.78543 0.0
H85 H 0.03201 0.2846 0.73361 0.0
C86 C 0.95761 0.13448 0.73157 0.0
O87 O 0.08687 0.05481 0.73096 0.0
O88 O 0.14154 0.1656 0.72625 0.0
N89 N 0.05283 0.24173 0.80512 0.0
C90 C 0.04882 0.20885 0.82394 0.0
C91 C 0.07182 0.24619 0.84372 0.0
C92 C 0.09755 0.31666 0.84398 0.0
C93 C 0.1023 0.34962 0.82438 0.0
C94 C 0.07832 0.30971 0.8052 0.0
H95 H 0.02724 0.15441 0.82391 0.0
O96 O 0.15062 0.14768 0.77173 0.0
O97 O 0.0897 0.19798 0.7673 0.0
O98 O 1.00667 0.05228 0.77074 0.0
O99 O 0.9663 0.11054 0.7883 0.0
C100 C 0.129 0.42033 0.82315 0.0
C101 C 0.13248 0.44993 0.80279 0.0
H102 H 0.13091 0.48836 0.7607 0.0
H103 H 0.08361 0.40873 0.72864 0.0
H104 H 0.06846 0.22054 0.85878 0.0
H105 H 0.11337 0.34494 0.85936 0.0
H106 H 0.14754 0.45254 0.83774 0.0
H107 H 0.15413 0.50445 0.80202 0.0
Mg108 Mg 0.06479 0.65906 0.2478 0.0
C109 C 0.0575 0.55094 0.27433 0.0
O110 O 0.11885 0.5836 0.26669 0.0
C111 C 1.00353 0.74218 0.23072 0.0
O112 O 0.01988 0.76708 0.25076 0.0
C113 C 0.06617 0.57051 0.2149 0.0
O114 O 1.00295 0.54873 0.22009 0.0
O115 O 0.11299 0.62475 0.22442 0.0
O116 O 0.01576 0.57107 0.26899 0.0
O117 O 0.12363 0.7499 0.26906 0.0
C118 C 0.11316 0.74487 0.28939 0.0
O119 O 0.07895 0.68402 0.29745 0.0
O120 O 1.00674 0.68925 0.22594 0.0
Mg121 Mg 0.5329 0.10737 0.58014 0.0
C122 C 0.4836 0.14388 0.54086 0.0
O123 O 0.481 0.0863 0.53596 0.0
C124 C 0.61105 0.09825 0.61612 0.0
O125 O 0.56142 0.03669 0.61069 0.0
C126 C 0.39134 0.06249 0.59671 0.0
O127 O 0.38635 0.09039 0.57863 0.0
O128 O 0.4426 0.05435 0.59995 0.0
O129 O 0.51032 0.17239 0.55935 0.0
O130 O 0.56702 0.05516 0.55761 0.0
C131 C 0.63164 0.08356 0.55669 0.0
O132 O 0.67004 0.13569 0.56985 0.0
O133 O 0.61386 0.14801 0.60579 0.0
Mg134 Mg 0.59377 0.60989 0.92018 0.0
C135 C 0.51065 0.53354 0.88126 0.0
O136 O 0.56792 0.53293 0.87967 0.0
C137 C 0.65667 0.70382 0.95706 0.0
O138 O 0.67005 0.65449 0.96007 0.0
C139 C 0.52082 0.46972 0.94063 0.0
O140 O 0.49342 0.45112 0.92083 0.0
O141 O 0.57061 0.52992 0.94398 0.0
O142 O 0.50483 0.56569 0.89738 0.0
O143 O 0.68069 0.65351 0.89894 0.0
C144 C 0.67091 0.68918 0.8849 0.0
O145 O 0.61476 0.69236 0.8855 0.0
O146 O 0.61875 0.69934 0.9406 0.0
C147 C 0.11107 0.31006 0.13745 0.0
C148 C 0.09851 0.32077 0.11572 0.0
C149 C 0.11687 0.35513 0.15433 0.0
C150 C 0.11024 0.41241 0.14938 0.0
C151 C 0.10207 0.42577 0.12736 0.0
C152 C 0.09614 0.37986 0.11086 0.0
C153 C 0.12568 0.339 0.17758 0.0
C154 C 0.09506 0.48629 0.12127 0.0
C155 C 0.02516 0.47045 0.18948 0.0
C156 C 0.08002 0.53061 0.19864 0.0
C157 C 0.03487 0.43123 0.17389 0.0
C158 C 0.1013 0.45228 0.1671 0.0
C159 C 0.15735 0.51236 0.17646 0.0
C160 C 0.14607 0.55094 0.19215 0.0
C161 C 0.9735 0.36767 0.16438 0.0
C162 C 0.22893 0.5363 0.16966 0.0
H163 H 0.11328 0.26482 0.14142 0.0
H164 H 0.08745 0.38937 0.09413 0.0
H165 H 0.16511 0.38523 0.18663 0.0
H166 H 0.07713 0.32083 0.18588 0.0
H167 H 0.14014 0.29905 0.17855 0.0
H168 H 0.09778 0.49442 0.10345 0.0
H169 H 0.0453 0.47831 0.12647 0.0
H170 H 0.13551 0.53313 0.12978 0.0
H171 H 0.97387 0.45383 0.19438 0.0
H172 H 0.18878 0.59712 0.19919 0.0
H173 H 0.98048 0.32314 0.16664 0.0
H174 H 0.96786 0.37289 0.14661 0.0
H175 H 0.92553 0.35709 0.17195 0.0
H176 H 0.24122 0.49508 0.17153 0.0
H177 H 0.26737 0.58174 0.17933 0.0
H178 H 0.23306 0.54908 0.15219 0.0
C179 C 0.88926 0.18346 0.46784 0.0
C180 C 0.90694 0.13751 0.45907 0.0
C181 C 0.83462 0.16196 0.48164 0.0
C182 C 0.79661 0.09264 0.48709 0.0
C183 C 0.81165 0.04521 0.47736 0.0
C184 C 0.86652 0.06816 0.46338 0.0
C185 C 0.82013 0.2144 0.49136 0.0
C186 C 0.77245 0.97093 0.48269 0.0
C187 C 0.73129 0.0785 0.54371 0.0
C188 C 0.6653 0.06711 0.53935 0.0
C189 C 0.77247 0.08095 0.52685 0.0
C190 C 0.74748 0.07269 0.50495 0.0
C191 C 0.67883 0.0556 0.50053 0.0
C192 C 0.6383 0.05272 0.51785 0.0
C193 C 0.84482 0.09827 0.53245 0.0
C194 C 0.64998 0.04602 0.47747 0.0
H195 H 0.91953 0.23701 0.4644 0.0
H196 H 0.87978 0.03224 0.45672 0.0
H197 H 0.76513 0.19748 0.48927 0.0
H198 H 0.83327 0.22053 0.50911 0.0
H199 H 0.84978 0.26479 0.48388 0.0
H200 H 0.78256 0.9392 0.47128 0.0
H201 H 0.78741 0.96418 0.49945 0.0
H202 H 0.7169 0.95214 0.48222 0.0
H203 H 0.7522 0.08929 0.56035 0.0
H204 H 0.5875 0.04445 0.51438 0.0
H205 H 0.88045 0.15108 0.52765 0.0
H206 H 0.85756 0.06413 0.52333 0.0
H207 H 0.85354 0.09435 0.55015 0.0
H208 H 0.67037 0.09639 0.46995 0.0
H209 H 0.59349 0.0207 0.47684 0.0
H210 H 0.66543 0.01554 0.4675 0.0
C211 C 0.89675 1.00445 0.81699 0.0
C212 C 0.92983 0.99762 0.79906 0.0
C213 C 0.86017 0.95005 0.83075 0.0
C214 C 0.85575 0.88662 0.82649 0.0
C215 C 0.88956 0.87936 0.80861 0.0
C216 C 0.92633 0.93493 0.79515 0.0
C217 C 0.8251 0.96021 0.84966 0.0
C218 C 0.88567 0.81249 0.80342 0.0
C219 C 0.79103 0.76422 0.8735 0.0
C220 C 0.72078 0.72933 0.86849 0.0
C221 C 0.8366 0.81342 0.85939 0.0
C222 C 0.81108 0.82704 0.83981 0.0
C223 C 0.74069 0.78807 0.83405 0.0
C224 C 0.69651 0.74019 0.84851 0.0
C225 C 0.91126 0.85392 0.86614 0.0
C226 C 0.71119 0.79997 0.81325 0.0
H227 H 0.89939 0.05258 0.82037 0.0
H228 H 0.95182 0.92895 0.78144 0.0
H229 H 0.7691 0.9272 0.84722 0.0
H230 H 0.8405 0.94523 0.86503 0.0
H231 H 0.83702 0.01373 0.85159 0.0
H232 H 0.91838 0.81626 0.78986 0.0
H233 H 0.90134 0.79435 0.81801 0.0
H234 H 0.83227 0.77351 0.79885 0.0
H235 H 0.80985 0.75629 0.889 0.0
H236 H 0.64219 0.71282 0.84452 0.0
H237 H 0.9246 0.90649 0.87088 0.0
H238 H 0.94304 0.85745 0.85235 0.0
H239 H 0.92438 0.83137 0.88014 0.0
H240 H 0.71433 0.8502 0.8144 0.0
H241 H 0.65702 0.76038 0.80999 0.0
H242 H 0.74085 0.80081 0.79917 0.0
C243 C 0.10097 0.01625 0.13938 0.0
C244 C 0.04666 0.02103 0.12974 0.0
C245 C 0.08997 0.96914 0.15571 0.0
C246 C 0.02298 0.92538 0.16251 0.0
C247 C 0.96801 0.93009 0.15286 0.0
C248 C 0.98051 0.9779 0.13668 0.0
C249 C 0.1501 0.96614 0.16569 0.0
C250 C 0.89586 0.88432 0.15953 0.0
C251 C 0.99269 0.76477 0.19115 0.0
C252 C 0.9981 0.78434 0.21318 0.0
C253 C 0.99872 0.80938 0.17447 0.0
C254 C 0.01071 0.87529 0.17991 0.0
C255 C 0.01334 0.89422 0.20208 0.0
C256 C 1.00677 0.84856 0.21839 0.0
C257 C 0.99479 0.78685 0.15104 0.0
C258 C 0.02589 0.96384 0.20864 0.0
H259 H 0.15218 0.04925 0.13412 0.0
H260 H 0.9381 0.98092 0.12928 0.0
H261 H 0.1538 0.97587 0.18354 0.0
H262 H 0.1429 0.91457 0.16307 0.0
H263 H 0.19895 1.00378 0.15871 0.0
H264 H 0.85866 0.894 0.15036 0.0
H265 H 0.88124 0.83032 0.1568 0.0
H266 H 0.89215 0.89177 0.17719 0.0
H267 H 0.98608 0.71541 0.1869 0.0
H268 H 0.0111 0.86443 0.23533 0.0
H269 H 0.04485 0.81836 0.14373 0.0
H270 H 0.95688 0.7944 0.14145 0.0
H271 H 0.98064 0.73259 0.14943 0.0
H272 H 0.077 1.0032 0.20362 0.0
H273 H 0.02324 0.96958 0.22649 0.0
H274 H 0.98797 0.97391 0.20019 0.0
C275 C 0.25338 0.22717 0.45814 0.0
C276 C 0.18567 0.17977 0.4623 0.0
C277 C 0.30733 0.23493 0.47212 0.0
C278 C 0.29326 0.1924 0.49023 0.0
C279 C 0.2246 0.146 0.49486 0.0
C280 C 0.1717 0.14001 0.48076 0.0
C281 C 0.37952 0.28598 0.46685 0.0
C282 C 0.2071 0.0994 0.5139 0.0
C283 C 0.41673 0.13235 0.50652 0.0
C284 C 0.44406 0.16586 0.52675 0.0
C285 C 0.36952 0.14247 0.49425 0.0
C286 C 0.34942 0.18811 0.50217 0.0
C287 C 0.37956 0.22503 0.52201 0.0
C288 C 0.42664 0.21352 0.53409 0.0
C289 C 0.33848 0.10141 0.47331 0.0
C290 C 0.36114 0.27564 0.53067 0.0
H291 H 0.26435 0.25631 0.44345 0.0
H292 H 0.11933 0.10259 0.48376 0.0
H293 H 0.40746 0.31783 0.48152 0.0
H294 H 0.40652 0.2591 0.46181 0.0
H295 H 0.38159 0.31968 0.45354 0.0
H296 H 0.15151 0.07109 0.5165 0.0
H297 H 0.22414 0.06211 0.51096 0.0
H298 H 0.23414 0.12883 0.52904 0.0
H299 H 0.43021 0.09582 0.50057 0.0
H300 H 0.44767 0.23983 0.54966 0.0
H301 H 0.3452 0.13552 0.45965 0.0
H302 H 0.2829 0.06733 0.47488 0.0
H303 H 0.36134 0.06982 0.46903 0.0
H304 H 0.37995 0.31908 0.51962 0.0
H305 H 0.38377 0.29528 0.54729 0.0
H306 H 0.30505 0.25243 0.53105 0.0
C307 C 0.20565 0.22731 0.8135 0.0
C308 C 0.18424 0.24676 0.79464 0.0
C309 C 0.25434 0.27618 0.82838 0.0
C310 C 0.28291 0.34628 0.82415 0.0
C311 C 0.26031 0.36605 0.80527 0.0
C312 C 0.21205 0.316 0.79057 0.0
C313 C 0.27721 0.2527 0.84817 0.0
C314 C 0.28884 0.44001 0.80019 0.0
C315 C 0.38603 0.47395 0.87044 0.0
C316 C 0.45257 0.49083 0.86584 0.0
C317 C 0.33031 0.42764 0.85694 0.0
C318 C 0.34132 0.3982 0.83821 0.0
C319 C 0.40875 0.41672 0.8332 0.0
C320 C 0.46338 0.46262 0.84705 0.0
C321 C 0.25972 0.40965 0.86292 0.0
C322 C 0.4232 0.38659 0.8135 0.0
H323 H 0.18482 0.17368 0.81647 0.0
H324 H 0.19723 0.33101 0.7756 0.0
H325 H 0.33146 0.26719 0.84694 0.0
H326 H 0.27346 0.278 0.86313 0.0
H327 H 0.24657 0.19678 0.84996 0.0
H328 H 0.26228 0.44699 0.78578 0.0
H329 H 0.28448 0.46781 0.81438 0.0
H330 H 0.34377 0.46349 0.79698 0.0
H331 H 0.37725 0.49536 0.88495 0.0
H332 H 0.51475 0.47558 0.8433 0.0
H333 H 0.22741 0.35376 0.86404 0.0
H334 H 0.23717 0.42674 0.84996 0.0
H335 H 0.25923 0.43379 0.87864 0.0
H336 H 0.39856 0.33064 0.81489 0.0
H337 H 0.47862 0.40753 0.8116 0.0
H338 H 0.4013 0.39654 0.79852 0.0
C339 C 0.91133 0.10766 0.69259 0.0
C340 C 0.90759 0.12738 0.71395 0.0
C341 C 0.86629 0.10544 0.6758 0.0
C342 C 0.81605 0.1228 0.68053 0.0
C343 C 0.81187 0.14229 0.70206 0.0
C344 C 0.85755 0.14444 0.71842 0.0
C345 C 0.87237 0.08452 0.653 0.0
C346 C 0.75861 0.16033 0.70792 0.0
C347 C 0.72557 0.16808 0.63584 0.0
C348 C 0.66391 0.10663 0.63277 0.0
C349 C 0.77643 0.17384 0.65098 0.0
C350 C 0.76506 0.11697 0.66338 0.0
C351 C 0.70286 0.05502 0.66033 0.0
C352 C 0.65331 0.05062 0.64509 0.0
C353 C 0.84221 0.24074 0.65377 0.0
C354 C 0.68817 0.99338 0.67336 0.0
H355 H 0.9501 0.095 0.6889 0.0
H356 H 0.85382 0.15959 0.73485 0.0
H357 H 0.82466 0.03763 0.64769 0.0
H358 H 0.87946 0.12471 0.6415 0.0
H359 H 0.91561 0.07497 0.6518 0.0
H360 H 0.76325 0.17613 0.72533 0.0
H361 H 0.76294 0.20227 0.69773 0.0
H362 H 0.70695 0.11598 0.70455 0.0
H363 H 0.7344 0.21138 0.62627 0.0
H364 H 0.60585 1.00286 0.6429 0.0
H365 H 0.88611 0.23315 0.65116 0.0
H366 H 0.84812 0.26105 0.67067 0.0
H367 H 0.84438 0.27925 0.6423 0.0
H368 H 0.72846 0.98007 0.67117 0.0
H369 H 0.63807 0.94838 0.66857 0.0
H370 H 0.68858 1.00487 0.69096 0.0
C371 C 0.87672 0.02445 0.03939 0.0
C372 C 0.94472 0.04527 0.03544 0.0
C373 C 0.82334 0.9764 0.02551 0.0
C374 C 0.83843 0.94711 0.00766 0.0
C375 C 0.9074 0.9702 1.00318 0.0
C376 C 0.95962 0.01851 0.01725 0.0
C377 C 0.75077 0.95405 0.03073 0.0
C378 C 0.92605 0.94044 0.9844 0.0
C379 C 0.72113 0.76179 0.9915 0.0
C380 C 0.69305 0.76585 0.97127 0.0
C381 C 0.76586 0.82036 1.0039 0.0
C382 C 0.78327 0.88509 0.99592 0.0
C383 C 0.75213 0.88951 0.97607 0.0
C384 C 0.70712 0.82969 0.96395 0.0
C385 C 0.79741 0.81288 0.025 0.0
C386 C 0.76889 0.95739 0.96711 0.0
H387 H 0.86513 0.04362 0.05386 0.0
H388 H 0.01226 0.03396 0.01443 0.0
H389 H 0.72566 0.90129 0.03661 0.0
H390 H 0.74784 0.98737 0.04344 0.0
H391 H 0.72161 0.95408 0.01587 0.0
H392 H 0.98151 0.96931 0.98161 0.0
H393 H 0.91139 0.88707 0.98781 0.0
H394 H 0.89784 0.93976 0.96921 0.0
H395 H 0.70998 0.71256 0.99736 0.0
H396 H 0.68579 0.8332 0.94829 0.0
H397 H 0.7902 0.84114 0.03845 0.0
H398 H 0.85307 0.83493 0.02343 0.0
H399 H 0.77533 0.75892 0.02957 0.0
H400 H 0.76423 0.98921 0.97989 0.0
H401 H 0.73511 0.95227 0.95283 0.0
H402 H 0.82241 0.98446 0.96209 0.0
C403 C 0.02831 0.98133 0.35978 0.0
C404 C 0.08354 0.03873 0.37002 0.0
C405 C 0.03865 0.93895 0.34551 0.0
C406 C 0.10585 0.95368 0.34159 0.0
C407 C 0.16181 0.01249 0.35148 0.0
C408 C 0.15 0.05447 0.36544 0.0
C409 C 0.97752 0.87729 0.33508 0.0
C410 C 0.23417 0.02968 0.34798 0.0
C411 C 0.12027 0.79959 0.32554 0.0
C412 C 0.12404 0.80442 0.30283 0.0
C413 C 0.11735 0.84935 0.33839 0.0
C414 C 0.11714 0.90507 0.3283 0.0
C415 C 0.12414 0.91197 0.30548 0.0
C416 C 0.12823 0.86194 0.29305 0.0
C417 C 0.11138 0.84058 0.3627 0.0
C418 C 0.12362 0.97023 0.29404 0.0
H419 H 0.97684 0.96891 0.36315 0.0
H420 H 0.19306 0.09858 0.37333 0.0
H421 H 0.98233 0.8767 0.31718 0.0
H422 H 0.97499 0.83043 0.3413 0.0
H423 H 0.92898 0.87572 0.33844 0.0
H424 H 0.27211 0.07941 0.3557 0.0
H425 H 0.24287 0.98963 0.35494 0.0
H426 H 0.24318 0.03104 0.33032 0.0
H427 H 0.11733 0.75552 0.33326 0.0
H428 H 0.13092 0.8661 0.27551 0.0
H429 H 0.06052 0.83075 0.36737 0.0
H430 H 0.15004 0.88781 0.37149 0.0
H431 H 0.11804 0.79777 0.36823 0.0
H432 H 0.07301 0.96598 0.29541 0.0
H433 H 0.13425 0.97101 0.2765 0.0
H434 H 0.16194 0.01941 0.30191 0.0
C435 C 0.14759 0.03003 0.69444 0.0
C436 C 0.16665 0.09594 0.70196 0.0
C437 C 0.18126 0.01915 0.67742 0.0
C438 C 0.23589 0.07548 0.66773 0.0
C439 C 0.25554 0.14218 0.6753 0.0
C440 C 0.22052 0.15161 0.69223 0.0
C441 C 0.15812 0.94731 0.66975 0.0
C442 C 0.31375 0.20367 0.66553 0.0
C443 C 0.36584 0.0524 0.63647 0.0
C444 C 0.34623 0.05523 0.61476 0.0
C445 C 0.32964 0.0575 0.65387 0.0
C446 C 0.27194 0.06485 0.64949 0.0
C447 C 0.25001 0.06434 0.62759 0.0
C448 C 0.28751 0.05988 0.61055 0.0
C449 C 0.35491 0.05798 0.67695 0.0
C450 C 0.18822 0.07093 0.62214 0.0
H451 H 0.10593 0.98662 0.7018 0.0
H452 H 0.23578 0.20266 0.69797 0.0
H453 H 0.14239 0.94076 0.65219 0.0
H454 H 0.20087 0.93697 0.67154 0.0
H455 H 0.11477 0.90898 0.67894 0.0
H456 H 0.32361 0.25199 0.67346 0.0
H457 H 0.3609 0.20044 0.66707 0.0
H458 H 0.30245 0.20503 0.64789 0.0
H459 H 0.41137 0.04936 0.63995 0.0
H460 H 0.27178 0.06197 0.59385 0.0
H461 H 0.31317 0.01901 0.68646 0.0
H462 H 0.37168 0.10809 0.68498 0.0
H463 H 0.39823 0.04819 0.67766 0.0
H464 H 0.1436 0.03213 0.63071 0.0
H465 H 0.17512 0.06506 0.60437 0.0
H466 H 0.19779 0.12153 0.6278 0.0
C467 C 0.23099 0.32641 0.02084 0.0
C468 C 0.22156 0.27537 0.03543 0.0
C469 C 0.28684 0.3556 0.0074 0.0
C470 C 0.33523 0.33365 0.00844 0.0
C471 C 0.32756 0.28379 0.02359 0.0
C472 C 0.27081 0.25519 0.0369 0.0
C473 C 0.29283 0.40872 0.99158 0.0
C474 C 0.37819 0.25928 0.02528 0.0
C475 C 0.42485 0.36372 0.95525 0.0
C476 C 0.48279 0.42794 0.95925 0.0
C477 C 0.37894 0.32989 0.97165 0.0
C478 C 0.39114 0.36078 0.99268 0.0
C479 C 0.45249 0.42278 0.99734 0.0
C480 C 0.4976 0.45564 0.98058 0.0
C481 C 0.31453 0.2637 0.96592 0.0
C482 C 0.46801 0.45718 0.01956 0.0
H483 H 0.19386 0.34304 0.01956 0.0
H484 H 0.26427 0.21589 0.04806 0.0
H485 H 0.3432 0.45557 0.994 0.0
H486 H 0.28923 0.38969 0.97463 0.0
H487 H 0.25247 0.42222 0.9934 0.0
H488 H 0.36893 0.22542 0.03925 0.0
H489 H 0.3749 0.23094 0.01009 0.0
H490 H 0.43087 0.30308 0.02708 0.0
H491 H 0.41313 0.34141 0.93891 0.0
H492 H 0.5423 0.50505 0.98395 0.0
H493 H 0.27054 0.27237 0.9652 0.0
H494 H 0.30487 0.22582 0.97861 0.0
H495 H 0.31675 0.24195 0.94993 0.0
H496 H 0.43508 0.47977 0.02177 0.0
H497 H 0.52204 0.49831 0.02167 0.0
H498 H 0.45682 0.41987 0.03256 0.0
C499 C 0.06704 0.36574 0.37989 0.0
C500 C 0.03975 0.29498 0.3786 0.0
C501 C 0.0597 0.4012 0.36241 0.0
C502 C 0.02357 0.3653 0.34304 0.0
C503 C 0.99327 0.29357 0.34188 0.0
C504 C 1.00208 0.25928 0.35961 0.0
C505 C 0.09359 0.47772 0.36433 0.0
C506 C 0.95361 0.25332 0.32164 0.0
C507 C 0.98525 0.47132 0.30323 0.0
C508 C 0.04165 0.49607 0.29005 0.0
C509 C 0.97622 0.42543 0.31987 0.0
C510 C 0.02482 0.40421 0.3234 0.0
C511 C 0.07965 0.42634 0.30935 0.0
C512 C 0.08719 0.47163 0.29289 0.0
C513 C 0.91653 0.40221 0.3343 0.0
C514 C 0.1328 0.40529 0.31244 0.0
H515 H 0.0962 0.39419 0.39441 0.0
H516 H 0.98023 0.20463 0.35844 0.0
H517 H 0.13494 0.50105 0.35264 0.0
H518 H 0.05641 0.4944 0.3601 0.0
H519 H 0.11581 0.49759 0.38097 0.0
H520 H 0.92578 0.19773 0.32431 0.0
H521 H 0.91649 0.2689 0.31612 0.0
H522 H 0.98897 0.26382 0.3083 0.0
H523 H 0.94966 0.48966 0.3011 0.0
H524 H 0.13046 0.4896 0.28262 0.0
H525 H 0.93488 0.42695 0.35068 0.0
H526 H 0.89117 0.34648 0.33643 0.0
H527 H 0.87839 0.41509 0.32763 0.0
H528 H 0.1618 0.4269 0.32815 0.0
H529 H 0.16938 0.42286 0.29916 0.0
H530 H 0.10818 0.34921 0.31315 0.0
loop_
_geom_bond_atom_site_label_1
_geom_bond_atom_site_label_2
_geom_bond_distance
_geom_bond_site_symmetry_2
_ccdc_geom_bond_type
Mn0 O5 2.095 . S
Mn0 O15 2.162 . S
Mn0 O16 2.297 . S
Mn0 O24 2.385 . S
Mn0 O25 2.209 1_455 S
Mn0 O26 2.094 . S
Mn1 O6 2.121 . S
Mn1 N8 2.257 1_455 S
Mn1 N17 2.282 1_455 S
Mn1 O25 2.215 1_455 S
Mn1 O27 2.117 . S
C2 O24 1.234 1_655 S
C2 O25 1.283 . S
C3 O15 1.281 . S
C3 O16 1.236 . S
C4 O26 1.240 . S
C4 O27 1.264 . S
O5 Mn0 2.095 . S
O5 C14 1.250 . S
O6 Mn1 2.121 . S
O6 C14 1.258 . S
C7 N8 1.326 . S
C7 C11 1.460 . S
C7 H13 0.929 . S
N8 Mn1 2.257 1_655 S
N8 C7 1.326 . S
N8 C12 1.362 . S
C9 C10 1.258 . S
C9 C12 1.431 . S
C9 C29 1.425 1_554 S
C10 C9 1.258 . S
C10 C11 1.477 . S
C10 H30 0.931 . S
C11 C7 1.460 . S
C11 C10 1.477 . S
C11 H31 0.930 . S
C12 N8 1.362 . S
C12 C9 1.431 . S
C12 C22 1.476 . S
H13 C7 0.929 . S
C14 O5 1.250 . S
C14 O6 1.258 . S
O15 Mn0 2.162 . S
O15 C3 1.281 . S
O16 Mn0 2.297 . S
O16 C3 1.236 . S
N17 Mn1 2.282 1_655 S
N17 C18 1.328 1_655 S
N17 C22 1.318 . S
C18 N17 1.328 1_455 S
C18 C19 1.457 1_454 S
C18 H23 0.929 . S
C19 C18 1.457 1_656 S
C19 C20 1.291 . S
C19 H32 0.931 1_655 S
C20 C19 1.291 . S
C20 C21 1.373 . S
C20 H33 0.929 . S
C21 C20 1.373 . S
C21 C22 1.396 1_556 S
C21 C28 1.403 . S
C22 C12 1.476 . S
C22 N17 1.318 . S
C22 C21 1.396 1_554 S
H23 C18 0.929 . S
O24 Mn0 2.385 . S
O24 C2 1.234 1_455 S
O25 Mn0 2.209 1_655 S
O25 Mn1 2.215 1_655 S
O25 C2 1.283 . S
O26 Mn0 2.094 . S
O26 C4 1.240 . S
O27 Mn1 2.117 . S
O27 C4 1.264 . S
C28 C21 1.403 . S
C28 C29 1.418 . S
C28 H34 0.929 . S
C29 C9 1.425 1_556 S
C29 C28 1.418 . S
C29 H35 0.936 . S
H30 C10 0.931 . S
H31 C11 0.930 . S
H32 C19 0.931 1_455 S
H33 C20 0.929 . S
H34 C28 0.929 . S
H35 C29 0.936 . S
Mn36 O41 2.095 . S
Mn36 O51 2.162 1_445 S
Mn36 O52 2.297 . S
Mn36 O60 2.385 . S
Mn36 O61 2.209 . S
Mn36 O62 2.094 1_455 S
Mn37 O42 2.121 . S
Mn37 N44 2.257 . S
Mn37 N53 2.282 . S
Mn37 O61 2.215 . S
Mn37 O63 2.117 1_455 S
C38 O60 1.234 . S
C38 O61 1.283 . S
C39 O51 1.281 1_445 S
C39 O52 1.236 . S
C40 O62 1.240 . S
C40 O63 1.264 . S
O41 Mn36 2.095 . S
O41 C50 1.250 . S
O42 Mn37 2.121 . S
O42 C50 1.258 . S
C43 N44 1.326 . S
C43 C47 1.460 . S
C43 H49 0.929 . S
N44 Mn37 2.257 . S
N44 C43 1.326 . S
N44 C48 1.362 . S
C45 C46 1.258 . S
C45 C48 1.431 . S
C45 C65 1.449 . S
C46 C45 1.258 . S
C46 C47 1.477 . S
C46 H66 0.931 . S
C47 C43 1.460 . S
C47 C46 1.477 . S
C47 H67 0.930 . S
C48 N44 1.362 . S
C48 C45 1.431 . S
C48 C58 1.476 . S
H49 C43 0.929 . S
C50 O41 1.250 . S
C50 O42 1.258 . S
O51 Mn36 2.162 1_665 S
O51 C39 1.281 1_665 S
O52 Mn36 2.297 . S
O52 C39 1.236 . S
N53 Mn37 2.282 . S
N53 C54 1.328 . S
N53 C58 1.318 . S
C54 N53 1.328 . S
C54 C55 1.457 . S
C54 H59 0.929 . S
C55 C54 1.457 . S
C55 C56 1.291 . S
C55 H68 0.931 . S
C56 C55 1.291 . S
C56 C57 1.373 . S
C56 H69 0.929 . S
C57 C56 1.373 . S
C57 C58 1.396 . S
C57 C64 1.403 . S
C58 C48 1.476 . S
C58 N53 1.318 . S
C58 C57 1.396 . S
H59 C54 0.929 . S
O60 Mn36 2.385 . S
O60 C38 1.234 . S
O61 Mn36 2.209 . S
O61 Mn37 2.215 . S
O61 C38 1.283 . S
O62 Mn36 2.094 1_655 S
O62 C40 1.240 . S
O63 Mn37 2.117 1_655 S
O63 C40 1.264 . S
C64 C57 1.403 . S
C64 C65 1.399 . S
C64 H70 0.929 . S
C65 C45 1.449 . S
C65 C64 1.399 . S
C65 H71 0.930 . S
H66 C46 0.931 . S
H67 C47 0.930 . S
H68 C55 0.931 . S
H69 C56 0.929 . S
H70 C64 0.929 . S
H71 C65 0.930 . S
Mn72 O77 2.095 1_455 S
Mn72 O87 2.162 . S
Mn72 O88 2.297 . S
Mn72 O96 2.385 . S
Mn72 O97 2.209 . S
Mn72 O98 2.094 1_455 S
Mn73 O78 2.121 . S
Mn73 N80 2.257 1_655 S
Mn73 N89 2.282 1_655 S
Mn73 O97 2.215 1_655 S
Mn73 O99 2.117 . S
C74 O96 1.234 . S
C74 O97 1.283 . S
C75 O87 1.281 . S
C75 O88 1.236 . S
C76 O98 1.240 . S
C76 O99 1.264 . S
O77 Mn72 2.095 1_655 S
O77 C86 1.250 . S
O78 Mn73 2.121 . S
O78 C86 1.258 . S
C79 N80 1.326 . S
C79 C83 1.460 . S
C79 H85 0.929 1_455 S
N80 Mn73 2.257 1_455 S
N80 C79 1.326 . S
N80 C84 1.362 . S
C81 C82 1.258 . S
C81 C84 1.431 . S
C81 C101 1.449 . S
C82 C81 1.258 . S
C82 C83 1.477 . S
C82 H102 0.931 . S
C83 C79 1.460 . S
C83 C82 1.477 . S
C83 H103 0.930 . S
C84 N80 1.362 . S
C84 C81 1.431 . S
C84 C94 1.476 . S
H85 C79 0.929 1_655 S
C86 O77 1.250 . S
C86 O78 1.258 . S
O87 Mn72 2.162 . S
O87 C75 1.281 . S
O88 Mn72 2.297 . S
O88 C75 1.236 . S
N89 Mn73 2.282 1_455 S
N89 C90 1.328 . S
N89 C94 1.318 . S
C90 N89 1.328 . S
C90 C91 1.457 . S
C90 H95 0.929 . S
C91 C90 1.457 . S
C91 C92 1.291 . S
C91 H104 0.931 . S
C92 C91 1.291 . S
C92 C93 1.373 . S
C92 H105 0.929 . S
C93 C92 1.373 . S
C93 C94 1.396 . S
C93 C100 1.403 . S
C94 C84 1.476 . S
C94 N89 1.318 . S
C94 C93 1.396 . S
H95 C90 0.929 . S
O96 Mn72 2.385 . S
O96 C74 1.234 . S
O97 Mn72 2.209 . S
O97 Mn73 2.215 1_455 S
O97 C74 1.283 . S
O98 Mn72 2.094 1_655 S
O98 C76 1.240 . S
O99 Mn73 2.117 . S
O99 C76 1.264 . S
C100 C93 1.403 . S
C100 C101 1.399 . S
C100 H106 0.929 . S
C101 C81 1.449 . S
C101 C100 1.399 . S
C101 H107 0.930 . S
H102 C82 0.931 . S
H103 C83 0.930 . S
H104 C91 0.931 . S
H105 C92 0.929 . S
H106 C100 0.929 . S
H107 C101 0.930 . S
Mg108 O115 2.141 . S
Mg108 O116 2.048 . S
Mg108 O117 2.048 . S
Mg108 O120 2.141 . S
C109 O110 1.313 1_455 S
C109 O116 1.195 . S
O110 C109 1.313 1_655 S
C111 O112 1.245 1_455 S
C111 O120 1.289 . S
O112 C111 1.245 1_655 S
C113 O114 1.245 1_455 S
C113 O115 1.289 . S
O114 C113 1.245 1_655 S
O115 Mg108 2.141 . S
O115 C113 1.289 . S
O116 Mg108 2.048 . S
O116 C109 1.195 . S
O117 Mg108 2.048 . S
O117 C118 1.195 . S
C118 O117 1.195 . S
C118 O119 1.313 1_455 S
O119 C118 1.313 1_655 S
O120 Mg108 2.141 . S
O120 C111 1.289 . S
Mg121 O128 2.141 . S
Mg121 O129 2.048 . S
Mg121 O130 2.048 . S
Mg121 O133 2.141 . S
C122 O123 1.313 . S
C122 O129 1.195 . S
O123 C122 1.313 . S
C124 O125 1.245 . S
C124 O133 1.289 . S
O125 C124 1.245 . S
C126 O127 1.245 . S
C126 O128 1.289 . S
O127 C126 1.245 . S
O128 Mg121 2.141 . S
O128 C126 1.289 . S
O129 Mg121 2.048 . S
O129 C122 1.195 . S
O130 Mg121 2.048 . S
O130 C131 1.195 . S
C131 O130 1.195 . S
C131 O132 1.313 . S
O132 C131 1.313 . S
O133 Mg121 2.141 . S
O133 C124 1.289 . S
Mg134 O141 2.141 . S
Mg134 O142 2.048 . S
Mg134 O143 2.048 . S
Mg134 O146 2.141 . S
C135 O136 1.313 . S
C135 O142 1.195 . S
O136 C135 1.313 . S
C137 O138 1.245 . S
C137 O146 1.289 . S
O138 C137 1.245 . S
C139 O140 1.245 . S
C139 O141 1.289 . S
O140 C139 1.245 . S
O141 Mg134 2.141 . S
O141 C139 1.289 . S
O142 Mg134 2.048 . S
O142 C135 1.195 . S
O143 Mg134 2.048 . S
O143 C144 1.195 . S
C144 O143 1.195 . S
C144 O145 1.313 . S
O145 C144 1.313 . S
O146 Mg134 2.141 . S
O146 C137 1.289 . S
C147 C148 1.391 . S
C147 C149 1.394 . S
C147 H163 0.931 1_455 S
C148 C147 1.391 . S
C148 C152 1.376 . S
C149 C147 1.394 . S
C149 C150 1.369 . S
C149 C153 1.531 1_455 S
C150 C149 1.369 . S
C150 C151 1.410 . S
C150 C158 1.503 . S
C151 C150 1.410 . S
C151 C152 1.392 . S
C151 C154 1.511 . S
C152 C148 1.376 . S
C152 C151 1.392 . S
C152 H164 0.929 . S
C153 C149 1.531 1_655 S
C153 H165 0.960 . S
C153 H166 0.962 . S
C153 H167 0.960 . S
C154 C151 1.511 . S
C154 H168 0.961 . S
C154 H169 0.961 . S
C154 H170 0.961 . S
C155 C156 1.370 . S
C155 C157 1.363 . S
C155 H171 0.931 . S
C156 C155 1.370 . S
C156 C160 1.408 . S
C157 C155 1.363 . S
C157 C158 1.370 . S
C157 C161 1.524 . S
C158 C150 1.503 . S
C158 C157 1.370 . S
C158 C159 1.403 . S
C159 C158 1.403 . S
C159 C160 1.404 . S
C159 C162 1.539 . S
C160 C156 1.408 . S
C160 C159 1.404 . S
C160 H172 0.930 . S
C161 C157 1.524 . S
C161 H173 0.956 1_455 S
C161 H174 0.961 . S
C161 H175 0.961 1_455 S
C162 C159 1.539 . S
C162 H176 0.958 . S
C162 H177 0.961 . S
C162 H178 0.960 . S
H163 C147 0.931 1_655 S
H164 C152 0.929 . S
H165 C153 0.960 . S
H166 C153 0.962 . S
H167 C153 0.960 . S
H168 C154 0.961 . S
H169 C154 0.961 . S
H170 C154 0.961 . S
H171 C155 0.931 . S
H172 C160 0.930 . S
H173 C161 0.956 1_655 S
H174 C161 0.961 . S
H175 C161 0.961 1_655 S
H176 C162 0.958 . S
H177 C162 0.961 . S
H178 C162 0.960 . S
C179 C180 1.391 . S
C179 C181 1.394 . S
C179 H195 0.931 . S
C180 C179 1.391 . S
C180 C184 1.376 . S
C181 C179 1.394 . S
C181 C182 1.369 . S
C181 C185 1.531 . S
C182 C181 1.369 . S
C182 C183 1.410 . S
C182 C190 1.503 . S
C183 C182 1.410 . S
C183 C184 1.392 . S
C183 C186 1.511 . S
C184 C180 1.376 . S
C184 C183 1.392 . S
C184 H196 0.929 . S
C185 C181 1.531 . S
C185 H197 0.960 . S
C185 H198 0.962 . S
C185 H199 0.960 . S
C186 C183 1.511 . S
C186 H200 0.961 1_545 S
C186 H201 0.961 . S
C186 H202 0.961 . S
C187 C188 1.370 . S
C187 C189 1.363 . S
C187 H203 0.931 . S
C188 C187 1.370 . S
C188 C192 1.408 . S
C189 C187 1.363 . S
C189 C190 1.370 . S
C189 C193 1.524 . S
C190 C182 1.503 . S
C190 C189 1.370 . S
C190 C191 1.403 . S
C191 C190 1.403 . S
C191 C192 1.404 . S
C191 C194 1.539 . S
C192 C188 1.408 . S
C192 C191 1.404 . S
C192 H204 0.930 . S
C193 C189 1.524 . S
C193 H205 0.956 . S
C193 H206 0.961 . S
C193 H207 0.961 . S
C194 C191 1.539 . S
C194 H208 0.958 . S
C194 H209 0.961 . S
C194 H210 0.960 . S
H195 C179 0.931 . S
H196 C184 0.929 . S
H197 C185 0.960 . S
H198 C185 0.962 . S
H199 C185 0.960 . S
H200 C186 0.961 1_565 S
H201 C186 0.961 . S
H202 C186 0.961 . S
H203 C187 0.931 . S
H204 C192 0.930 . S
H205 C193 0.956 . S
H206 C193 0.961 . S
H207 C193 0.961 . S
H208 C194 0.958 . S
H209 C194 0.961 . S
H210 C194 0.960 . S
C211 C212 1.391 . S
C211 C213 1.394 . S
C211 H227 0.931 . S
C212 C211 1.391 . S
C212 C216 1.376 . S
C213 C211 1.394 . S
C213 C214 1.369 . S
C213 C217 1.531 . S
C214 C213 1.369 . S
C214 C215 1.410 . S
C214 C222 1.503 . S
C215 C214 1.410 . S
C215 C216 1.392 . S
C215 C218 1.511 . S
C216 C212 1.376 . S
C216 C215 1.392 . S
C216 H228 0.929 . S
C217 C213 1.531 . S
C217 H229 0.960 . S
C217 H230 0.962 . S
C217 H231 0.960 . S
C218 C215 1.511 . S
C218 H232 0.961 . S
C218 H233 0.961 . S
C218 H234 0.961 . S
C219 C220 1.370 . S
C219 C221 1.363 . S
C219 H235 0.931 . S
C220 C219 1.370 . S
C220 C224 1.408 . S
C221 C219 1.363 . S
C221 C222 1.370 . S
C221 C225 1.524 . S
C222 C214 1.503 . S
C222 C221 1.370 . S
C222 C223 1.403 . S
C223 C222 1.403 . S
C223 C224 1.404 . S
C223 C226 1.539 . S
C224 C220 1.408 . S
C224 C223 1.404 . S
C224 H236 0.930 . S
C225 C221 1.524 . S
C225 H237 0.956 . S
C225 H238 0.961 . S
C225 H239 0.961 . S
C226 C223 1.539 . S
C226 H240 0.958 . S
C226 H241 0.961 . S
C226 H242 0.960 . S
H227 C211 0.931 . S
H228 C216 0.929 . S
H229 C217 0.960 . S
H230 C217 0.962 . S
H231 C217 0.960 . S
H232 C218 0.961 . S
H233 C218 0.961 . S
H234 C218 0.961 . S
H235 C219 0.931 . S
H236 C224 0.930 . S
H237 C225 0.956 . S
H238 C225 0.961 . S
H239 C225 0.961 . S
H240 C226 0.958 . S
H241 C226 0.961 . S
H242 C226 0.960 . S
C243 C244 1.391 1_545 S
C243 C245 1.394 1_545 S
C243 H259 0.931 . S
C244 C243 1.391 1_565 S
C244 C248 1.376 . S
C245 C243 1.394 1_565 S
C245 C246 1.369 . S
C245 C249 1.531 . S
C246 C245 1.369 . S
C246 C247 1.410 . S
C246 C254 1.503 . S
C247 C246 1.410 . S
C247 C248 1.392 . S
C247 C250 1.511 1_455 S
C248 C244 1.376 . S
C248 C247 1.392 . S
C248 H260 0.929 . S
C249 C245 1.531 . S
C249 H261 0.960 . S
C249 H262 0.962 . S
C249 H263 0.960 1_565 S
C250 C247 1.511 1_655 S
C250 H264 0.961 . S
C250 H265 0.961 . S
C250 H266 0.961 . S
C251 C252 1.370 . S
C251 C253 1.363 . S
C251 H267 0.931 . S
C252 C251 1.370 . S
C252 C256 1.408 . S
C253 C251 1.363 . S
C253 C254 1.370 . S
C253 C257 1.524 . S
C254 C246 1.503 . S
C254 C253 1.370 . S
C254 C255 1.403 . S
C255 C254 1.403 . S
C255 C256 1.404 . S
C255 C258 1.539 1_455 S
C256 C252 1.408 . S
C256 C255 1.404 . S
C256 H268 0.930 1_455 S
C257 C253 1.524 . S
C257 H269 0.956 . S
C257 H270 0.961 . S
C257 H271 0.961 . S
C258 C255 1.539 1_655 S
C258 H272 0.958 . S
C258 H273 0.961 . S
C258 H274 0.960 . S
H259 C243 0.931 . S
H260 C248 0.929 . S
H261 C249 0.960 . S
H262 C249 0.962 . S
H263 C249 0.960 1_545 S
H264 C250 0.961 . S
H265 C250 0.961 . S
H266 C250 0.961 . S
H267 C251 0.931 . S
H268 C256 0.930 1_655 S
H269 C257 0.956 . S
H270 C257 0.961 . S
H271 C257 0.961 . S
H272 C258 0.958 . S
H273 C258 0.961 . S
H274 C258 0.960 . S
C275 C276 1.391 . S
C275 C277 1.394 . S
C275 H291 0.931 . S
C276 C275 1.391 . S
C276 C280 1.376 . S
C277 C275 1.394 . S
C277 C278 1.369 . S
C277 C281 1.531 . S
C278 C277 1.369 . S
C278 C279 1.410 . S
C278 C286 1.503 . S
C279 C278 1.410 . S
C279 C280 1.392 . S
C279 C282 1.511 . S
C280 C276 1.376 . S
C280 C279 1.392 . S
C280 H292 0.929 . S
C281 C277 1.531 . S
C281 H293 0.960 . S
C281 H294 0.962 . S
C281 H295 0.960 . S
C282 C279 1.511 . S
C282 H296 0.961 1_545 S
C282 H297 0.961 . S
C282 H298 0.961 . S
C283 C284 1.370 . S
C283 C285 1.363 . S
C283 H299 0.931 . S
C284 C283 1.370 . S
C284 C288 1.408 . S
C285 C283 1.363 . S
C285 C286 1.370 . S
C285 C289 1.524 . S
C286 C278 1.503 . S
C286 C285 1.370 . S
C286 C287 1.403 . S
C287 C286 1.403 . S
C287 C288 1.404 . S
C287 C290 1.539 . S
C288 C284 1.408 . S
C288 C287 1.404 . S
C288 H300 0.930 . S
C289 C285 1.524 . S
C289 H301 0.956 . S
C289 H302 0.961 . S
C289 H303 0.961 . S
C290 C287 1.539 . S
C290 H304 0.958 . S
C290 H305 0.961 . S
C290 H306 0.960 . S
H291 C275 0.931 . S
H292 C280 0.929 . S
H293 C281 0.960 . S
H294 C281 0.962 . S
H295 C281 0.960 . S
H296 C282 0.961 1_565 S
H297 C282 0.961 . S
H298 C282 0.961 . S
H299 C283 0.931 . S
H300 C288 0.930 . S
H301 C289 0.956 . S
H302 C289 0.961 . S
H303 C289 0.961 . S
H304 C290 0.958 . S
H305 C290 0.961 . S
H306 C290 0.960 . S
C307 C308 1.391 . S
C307 C309 1.394 . S
C307 H323 0.931 . S
C308 C307 1.391 . S
C308 C312 1.376 . S
C309 C307 1.394 . S
C309 C310 1.369 . S
C309 C313 1.531 . S
C310 C309 1.369 . S
C310 C311 1.410 . S
C310 C318 1.503 . S
C311 C310 1.410 . S
C311 C312 1.392 . S
C311 C314 1.511 . S
C312 C308 1.376 . S
C312 C311 1.392 . S
C312 H324 0.929 . S
C313 C309 1.531 . S
C313 H325 0.960 . S
C313 H326 0.962 . S
C313 H327 0.960 . S
C314 C311 1.511 . S
C314 H328 0.961 . S
C314 H329 0.961 . S
C314 H330 0.961 . S
C315 C316 1.370 . S
C315 C317 1.363 . S
C315 H331 0.931 . S
C316 C315 1.370 . S
C316 C320 1.408 . S
C317 C315 1.363 . S
C317 C318 1.370 . S
C317 C321 1.524 . S
C318 C310 1.503 . S
C318 C317 1.370 . S
C318 C319 1.403 . S
C319 C318 1.403 . S
C319 C320 1.404 . S
C319 C322 1.539 . S
C320 C316 1.408 . S
C320 C319 1.404 . S
C320 H332 0.930 . S
C321 C317 1.524 . S
C321 H333 0.956 . S
C321 H334 0.961 . S
C321 H335 0.961 . S
C322 C319 1.539 . S
C322 H336 0.958 . S
C322 H337 0.961 . S
C322 H338 0.960 . S
H323 C307 0.931 . S
H324 C312 0.929 . S
H325 C313 0.960 . S
H326 C313 0.962 . S
H327 C313 0.960 . S
H328 C314 0.961 . S
H329 C314 0.961 . S
H330 C314 0.961 . S
H331 C315 0.931 . S
H332 C320 0.930 . S
H333 C321 0.956 . S
H334 C321 0.961 . S
H335 C321 0.961 . S
H336 C322 0.958 . S
H337 C322 0.961 . S
H338 C322 0.960 . S
C339 C340 1.391 . S
C339 C341 1.394 . S
C339 H355 0.931 . S
C340 C339 1.391 . S
C340 C344 1.376 . S
C341 C339 1.394 . S
C341 C342 1.369 . S
C341 C345 1.531 . S
C342 C341 1.369 . S
C342 C343 1.410 . S
C342 C350 1.503 . S
C343 C342 1.410 . S
C343 C344 1.392 . S
C343 C346 1.511 . S
C344 C340 1.376 . S
C344 C343 1.392 . S
C344 H356 0.929 . S
C345 C341 1.531 . S
C345 H357 0.960 . S
C345 H358 0.962 . S
C345 H359 0.960 . S
C346 C343 1.511 . S
C346 H360 0.961 . S
C346 H361 0.961 . S
C346 H362 0.961 . S
C347 C348 1.370 . S
C347 C349 1.363 . S
C347 H363 0.931 . S
C348 C347 1.370 . S
C348 C352 1.408 . S
C349 C347 1.363 . S
C349 C350 1.370 . S
C349 C353 1.524 . S
C350 C342 1.503 . S
C350 C349 1.370 . S
C350 C351 1.403 . S
C351 C350 1.403 . S
C351 C352 1.404 . S
C351 C354 1.539 . S
C352 C348 1.408 . S
C352 C351 1.404 . S
C352 H364 0.930 . S
C353 C349 1.524 . S
C353 H365 0.956 . S
C353 H366 0.961 . S
C353 H367 0.961 . S
C354 C351 1.539 . S
C354 H368 0.958 1_545 S
C354 H369 0.961 1_545 S
C354 H370 0.960 . S
H355 C339 0.931 . S
H356 C344 0.929 . S
H357 C345 0.960 . S
H358 C345 0.962 . S
H359 C345 0.960 . S
H360 C346 0.961 . S
H361 C346 0.961 . S
H362 C346 0.961 . S
H363 C347 0.931 . S
H364 C352 0.930 . S
H365 C353 0.956 . S
H366 C353 0.961 . S
H367 C353 0.961 . S
H368 C354 0.958 1_565 S
H369 C354 0.961 1_565 S
H370 C354 0.960 . S
C371 C372 1.391 . S
C371 C373 1.394 1_545 S
C371 H387 0.931 . S
C372 C371 1.391 . S
C372 C376 1.376 1_545 S
C373 C371 1.394 1_565 S
C373 C374 1.369 . S
C373 C377 1.531 1_564 S
C374 C373 1.369 . S
C374 C375 1.410 . S
C374 C382 1.503 1_554 S
C375 C374 1.410 . S
C375 C376 1.392 . S
C375 C378 1.511 . S
C376 C372 1.376 1_565 S
C376 C375 1.392 . S
C376 H388 0.929 . S
C377 C373 1.531 1_546 S
C377 H389 0.960 1_545 S
C377 H390 0.962 . S
C377 H391 0.960 . S
C378 C375 1.511 . S
C378 H392 0.961 . S
C378 H393 0.961 . S
C378 H394 0.961 . S
C379 C380 1.370 . S
C379 C381 1.363 . S
C379 H395 0.931 . S
C380 C379 1.370 . S
C380 C384 1.408 . S
C381 C379 1.363 . S
C381 C382 1.370 . S
C381 C385 1.524 1_556 S
C382 C374 1.503 1_556 S
C382 C381 1.370 . S
C382 C383 1.403 . S
C383 C382 1.403 . S
C383 C384 1.404 . S
C383 C386 1.539 . S
C384 C380 1.408 . S
C384 C383 1.404 . S
C384 H396 0.930 . S
C385 C381 1.524 1_554 S
C385 H397 0.956 . S
C385 H398 0.961 . S
C385 H399 0.961 . S
C386 C383 1.539 . S
C386 H400 0.958 . S
C386 H401 0.961 . S
C386 H402 0.960 . S
H387 C371 0.931 . S
H388 C376 0.929 . S
H389 C377 0.960 1_565 S
H390 C377 0.962 . S
H391 C377 0.960 . S
H392 C378 0.961 . S
H393 C378 0.961 . S
H394 C378 0.961 . S
H395 C379 0.931 . S
H396 C384 0.930 . S
H397 C385 0.956 . S
H398 C385 0.961 . S
H399 C385 0.961 . S
H400 C386 0.958 . S
H401 C386 0.961 . S
H402 C386 0.960 . S
C403 C404 1.391 . S
C403 C405 1.394 . S
C403 H419 0.931 1_565 S
C404 C403 1.391 . S
C404 C408 1.376 . S
C405 C403 1.394 . S
C405 C406 1.369 . S
C405 C409 1.531 . S
C406 C405 1.369 . S
C406 C407 1.410 . S
C406 C414 1.503 . S
C407 C406 1.410 . S
C407 C408 1.392 . S
C407 C410 1.511 . S
C408 C404 1.376 . S
C408 C407 1.392 . S
C408 H420 0.929 . S
C409 C405 1.531 . S
C409 H421 0.960 . S
C409 H422 0.962 1_455 S
C409 H423 0.960 . S
C410 C407 1.511 . S
C410 H424 0.961 . S
C410 H425 0.961 . S
C410 H426 0.961 . S
C411 C412 1.370 1_655 S
C411 C413 1.363 . S
C411 H427 0.931 . S
C412 C411 1.370 1_455 S
C412 C416 1.408 . S
C413 C411 1.363 . S
C413 C414 1.370 1_655 S
C413 C417 1.524 . S
C414 C406 1.503 . S
C414 C413 1.370 1_455 S
C414 C415 1.403 . S
C415 C414 1.403 . S
C415 C416 1.404 . S
C415 C418 1.539 . S
C416 C412 1.408 . S
C416 C415 1.404 . S
C416 H428 0.930 . S
C417 C413 1.524 . S
C417 H429 0.956 . S
C417 H430 0.961 . S
C417 H431 0.961 . S
C418 C415 1.539 . S
C418 H432 0.958 . S
C418 H433 0.961 . S
C418 H434 0.960 . S
H419 C403 0.931 1_545 S
H420 C408 0.929 . S
H421 C409 0.960 . S
H422 C409 0.962 1_655 S
H423 C409 0.960 . S
H424 C410 0.961 . S
H425 C410 0.961 . S
H426 C410 0.961 . S
H427 C411 0.931 . S
H428 C416 0.930 . S
H429 C417 0.956 . S
H430 C417 0.961 . S
H431 C417 0.961 . S
H432 C418 0.958 . S
H433 C418 0.961 . S
H434 C418 0.960 . S
C435 C436 1.391 . S
C435 C437 1.394 . S
C435 H451 0.931 . S
C436 C435 1.391 . S
C436 C440 1.376 . S
C437 C435 1.394 . S
C437 C438 1.369 . S
C437 C441 1.531 . S
C438 C437 1.369 . S
C438 C439 1.410 . S
C438 C446 1.503 . S
C439 C438 1.410 . S
C439 C440 1.392 . S
C439 C442 1.511 . S
C440 C436 1.376 . S
C440 C439 1.392 . S
C440 H452 0.929 . S
C441 C437 1.531 . S
C441 H453 0.960 . S
C441 H454 0.962 . S
C441 H455 0.972 . S
C442 C439 1.511 . S
C442 H456 0.961 . S
C442 H457 0.961 . S
C442 H458 0.961 . S
C443 C444 1.370 . S
C443 C445 1.363 . S
C443 H459 0.931 . S
C444 C443 1.370 . S
C444 C448 1.408 . S
C445 C443 1.363 . S
C445 C446 1.370 . S
C445 C449 1.524 . S
C446 C438 1.503 . S
C446 C445 1.370 . S
C446 C447 1.403 . S
C447 C446 1.403 . S
C447 C448 1.404 . S
C447 C450 1.539 . S
C448 C444 1.408 . S
C448 C447 1.404 . S
C448 H460 0.930 . S
C449 C445 1.524 . S
C449 H461 0.956 . S
C449 H462 0.961 . S
C449 H463 0.961 . S
C450 C447 1.539 . S
C450 H464 0.958 1_545 S
C450 H465 0.961 . S
C450 H466 0.960 . S
H451 C435 0.931 . S
H452 C440 0.929 . S
H453 C441 0.960 . S
H454 C441 0.962 . S
H455 C441 0.972 . S
H456 C442 0.961 . S
H457 C442 0.961 . S
H458 C442 0.961 . S
H459 C443 0.931 . S
H460 C448 0.930 . S
H461 C449 0.956 . S
H462 C449 0.961 . S
H463 C449 0.961 . S
H464 C450 0.958 1_565 S
H465 C450 0.961 . S
H466 C450 0.960 . S
C467 C468 1.391 . S
C467 C469 1.394 . S
C467 H483 0.931 . S
C468 C467 1.391 . S
C468 C472 1.376 . S
C469 C467 1.394 . S
C469 C470 1.369 . S
C469 C473 1.531 . S
C470 C469 1.369 . S
C470 C471 1.410 . S
C470 C478 1.503 1_554 S
C471 C470 1.410 . S
C471 C472 1.392 . S
C471 C474 1.511 . S
C472 C468 1.376 . S
C472 C471 1.392 . S
C472 H484 0.929 . S
C473 C469 1.531 . S
C473 H485 0.960 . S
C473 H486 0.962 1_554 S
C473 H487 0.960 . S
C474 C471 1.511 . S
C474 H488 0.961 . S
C474 H489 0.961 1_554 S
C474 H490 0.961 . S
C475 C476 1.370 . S
C475 C477 1.363 . S
C475 H491 0.931 . S
C476 C475 1.370 . S
C476 C480 1.408 . S
C477 C475 1.363 . S
C477 C478 1.370 . S
C477 C481 1.524 . S
C478 C470 1.503 1_556 S
C478 C477 1.370 . S
C478 C479 1.403 . S
C479 C478 1.403 . S
C479 C480 1.404 . S
C479 C482 1.539 1_556 S
C480 C476 1.408 . S
C480 C479 1.404 . S
C480 H492 0.930 . S
C481 C477 1.524 . S
C481 H493 0.956 . S
C481 H494 0.961 . S
C481 H495 0.961 . S
C482 C479 1.539 1_554 S
C482 H496 0.958 . S
C482 H497 0.961 . S
C482 H498 0.960 . S
H483 C467 0.931 . S
H484 C472 0.929 . S
H485 C473 0.960 . S
H486 C473 0.962 1_556 S
H487 C473 0.960 . S
H488 C474 0.961 . S
H489 C474 0.961 1_556 S
H490 C474 0.961 . S
H491 C475 0.931 . S
H492 C480 0.930 . S
H493 C481 0.956 . S
H494 C481 0.961 . S
H495 C481 0.961 . S
H496 C482 0.958 . S
H497 C482 0.961 . S
H498 C482 0.960 . S
C499 C500 1.391 . S
C499 C501 1.394 . S
C499 H515 0.931 . S
C500 C499 1.391 . S
C500 C504 1.376 1_455 S
C501 C499 1.394 . S
C501 C502 1.369 . S
C501 C505 1.531 . S
C502 C501 1.369 . S
C502 C503 1.410 1_455 S
C502 C510 1.503 . S
C503 C502 1.410 1_655 S
C503 C504 1.392 . S
C503 C506 1.511 . S
C504 C500 1.376 1_655 S
C504 C503 1.392 . S
C504 H516 0.929 . S
C505 C501 1.531 . S
C505 H517 0.960 . S
C505 H518 0.962 . S
C505 H519 0.960 . S
C506 C503 1.511 . S
C506 H520 0.961 . S
C506 H521 0.961 . S
C506 H522 0.961 . S
C507 C508 1.370 . S
C507 C509 1.363 . S
C507 H523 0.931 . S
C508 C507 1.370 . S
C508 C512 1.408 . S
C509 C507 1.363 . S
C509 C510 1.370 . S
C509 C513 1.524 . S
C510 C502 1.503 . S
C510 C509 1.370 . S
C510 C511 1.403 . S
C511 C510 1.403 . S
C511 C512 1.404 . S
C511 C514 1.539 1_455 S
C512 C508 1.408 . S
C512 C511 1.404 . S
C512 H524 0.930 . S
C513 C509 1.524 . S
C513 H525 0.956 . S
C513 H526 0.961 . S
C513 H527 0.961 . S
C514 C511 1.539 1_655 S
C514 H528 0.958 1_655 S
C514 H529 0.961 . S
C514 H530 0.960 . S
H515 C499 0.931 . S
H516 C504 0.929 . S
H517 C505 0.960 . S
H518 C505 0.962 . S
H519 C505 0.960 . S
H520 C506 0.961 . S
H521 C506 0.961 . S
H522 C506 0.961 . S
H523 C507 0.931 . S
H524 C512 0.930 . S
H525 C513 0.956 . S
H526 C513 0.961 . S
H527 C513 0.961 . S
H528 C514 0.958 1_455 S
H529 C514 0.961 . S
H530 C514 0.960 . S
C156 C113 1.422 . S
C148 C14 1.416 . S
C180 C40 1.471 . S
C188 C131 1.480 . S
C212 C76 1.474 1_565 S
C220 C144 1.465 . S
C244 C3 1.374 1_565 S
C252 C111 1.378 . S
C284 C122 1.493 . S
C276 C38 1.478 . S
C308 C74 1.468 . S
C316 C135 1.476 . S
C348 C124 1.367 . S
C340 C86 1.343 . S
C372 C2 1.377 . S
C380 C137 1.402 . S
C412 C118 1.450 . S
C404 C39 1.442 1_565 S
C444 C126 1.378 . S
C436 C75 1.391 . S
C476 C139 1.399 . S
C468 C4 1.403 . S
C500 C50 1.478 . S
C508 C109 1.488 . S
