# Generated by pormake.
# Topology ocu, (6,8)-cn, num edge types: 1
# Building blocks:
#     Node 0, Type 0, BuildingBlock: PAMTOO_clean_sbu_0, # of connection points: 6
#     Node 1, Type 0, BuildingBlock: PAMTOO_clean_sbu_0, # of connection points: 6
#     Node 2, Type 0, BuildingBlock: PAMTOO_clean_sbu_0, # of connection points: 6
#     Node 3, Type 0, BuildingBlock: PAMTOO_clean_sbu_0, # of connection points: 6
#     Node 4, Type 0, BuildingBlock: PAMTOO_clean_sbu_0, # of connection points: 6
#     Node 5, Type 0, BuildingBlock: PAMTOO_clean_sbu_0, # of connection points: 6
#     Node 6, Type 0, BuildingBlock: PAMTOO_clean_sbu_0, # of connection points: 6
#     Node 7, Type 0, BuildingBlock: PAMTOO_clean_sbu_0, # of connection points: 6
#     Node 8, Type 1, BuildingBlock: GIZVER_clean_sbu_0, # of connection points: 8
#     Node 9, Type 1, BuildingBlock: GIZVER_clean_sbu_0, # of connection points: 8
#     Node 10, Type 1, BuildingBlock: GIZVER_clean_sbu_0, # of connection points: 8
#     Node 11, Type 1, BuildingBlock: GIZVER_clean_sbu_0, # of connection points: 8
#     Node 12, Type 1, BuildingBlock: GIZVER_clean_sbu_0, # of connection points: 8
#     Node 13, Type 1, BuildingBlock: GIZVER_clean_sbu_0, # of connection points: 8
#     Edge 14, Type (0, 1), BuildingBlock: TEMPAE_clean_linker_10, # of connection points: 2
#     Edge 15, Type (0, 1), BuildingBlock: TEMPAE_clean_linker_10, # of connection points: 2
#     Edge 16, Type (0, 1), BuildingBlock: TEMPAE_clean_linker_10, # of connection points: 2
#     Edge 17, Type (0, 1), BuildingBlock: TEMPAE_clean_linker_10, # of connection points: 2
#     Edge 18, Type (0, 1), BuildingBlock: TEMPAE_clean_linker_10, # of connection points: 2
#     Edge 19, Type (0, 1), BuildingBlock: TEMPAE_clean_linker_10, # of connection points: 2
#     Edge 20, Type (0, 1), BuildingBlock: TEMPAE_clean_linker_10, # of connection points: 2
#     Edge 21, Type (0, 1), BuildingBlock: TEMPAE_clean_linker_10, # of connection points: 2
#     Edge 22, Type (0, 1), BuildingBlock: TEMPAE_clean_linker_10, # of connection points: 2
#     Edge 23, Type (0, 1), BuildingBlock: TEMPAE_clean_linker_10, # of connection points: 2
#     Edge 24, Type (0, 1), BuildingBlock: TEMPAE_clean_linker_10, # of connection points: 2
#     Edge 25, Type (0, 1), BuildingBlock: TEMPAE_clean_linker_10, # of connection points: 2
#     Edge 26, Type (0, 1), BuildingBlock: TEMPAE_clean_linker_10, # of connection points: 2
#     Edge 27, Type (0, 1), BuildingBlock: TEMPAE_clean_linker_10, # of connection points: 2
#     Edge 28, Type (0, 1), BuildingBlock: TEMPAE_clean_linker_10, # of connection points: 2
#     Edge 29, Type (0, 1), BuildingBlock: TEMPAE_clean_linker_10, # of connection points: 2
#     Edge 30, Type (0, 1), BuildingBlock: TEMPAE_clean_linker_10, # of connection points: 2
#     Edge 31, Type (0, 1), BuildingBlock: TEMPAE_clean_linker_10, # of connection points: 2
#     Edge 32, Type (0, 1), BuildingBlock: TEMPAE_clean_linker_10, # of connection points: 2
#     Edge 33, Type (0, 1), BuildingBlock: TEMPAE_clean_linker_10, # of connection points: 2
#     Edge 34, Type (0, 1), BuildingBlock: TEMPAE_clean_linker_10, # of connection points: 2
#     Edge 35, Type (0, 1), BuildingBlock: TEMPAE_clean_linker_10, # of connection points: 2
#     Edge 36, Type (0, 1), BuildingBlock: TEMPAE_clean_linker_10, # of connection points: 2
#     Edge 37, Type (0, 1), BuildingBlock: TEMPAE_clean_linker_10, # of connection points: 2
#     Edge 38, Type (0, 1), BuildingBlock: TEMPAE_clean_linker_10, # of connection points: 2
#     Edge 39, Type (0, 1), BuildingBlock: TEMPAE_clean_linker_10, # of connection points: 2
#     Edge 40, Type (0, 1), BuildingBlock: TEMPAE_clean_linker_10, # of connection points: 2
#     Edge 41, Type (0, 1), BuildingBlock: TEMPAE_clean_linker_10, # of connection points: 2
#     Edge 42, Type (0, 1), BuildingBlock: TEMPAE_clean_linker_10, # of connection points: 2
#     Edge 43, Type (0, 1), BuildingBlock: TEMPAE_clean_linker_10, # of connection points: 2
#     Edge 44, Type (0, 1), BuildingBlock: TEMPAE_clean_linker_10, # of connection points: 2
#     Edge 45, Type (0, 1), BuildingBlock: TEMPAE_clean_linker_10, # of connection points: 2
#     Edge 46, Type (0, 1), BuildingBlock: TEMPAE_clean_linker_10, # of connection points: 2
#     Edge 47, Type (0, 1), BuildingBlock: TEMPAE_clean_linker_10, # of connection points: 2
#     Edge 48, Type (0, 1), BuildingBlock: TEMPAE_clean_linker_10, # of connection points: 2
#     Edge 49, Type (0, 1), BuildingBlock: TEMPAE_clean_linker_10, # of connection points: 2
#     Edge 50, Type (0, 1), BuildingBlock: TEMPAE_clean_linker_10, # of connection points: 2
#     Edge 51, Type (0, 1), BuildingBlock: TEMPAE_clean_linker_10, # of connection points: 2
#     Edge 52, Type (0, 1), BuildingBlock: TEMPAE_clean_linker_10, # of connection points: 2
#     Edge 53, Type (0, 1), BuildingBlock: TEMPAE_clean_linker_10, # of connection points: 2
#     Edge 54, Type (0, 1), BuildingBlock: TEMPAE_clean_linker_10, # of connection points: 2
#     Edge 55, Type (0, 1), BuildingBlock: TEMPAE_clean_linker_10, # of connection points: 2
#     Edge 56, Type (0, 1), BuildingBlock: TEMPAE_clean_linker_10, # of connection points: 2
#     Edge 57, Type (0, 1), BuildingBlock: TEMPAE_clean_linker_10, # of connection points: 2
#     Edge 58, Type (0, 1), BuildingBlock: TEMPAE_clean_linker_10, # of connection points: 2
#     Edge 59, Type (0, 1), BuildingBlock: TEMPAE_clean_linker_10, # of connection points: 2
#     Edge 60, Type (0, 1), BuildingBlock: TEMPAE_clean_linker_10, # of connection points: 2
#     Edge 61, Type (0, 1), BuildingBlock: TEMPAE_clean_linker_10, # of connection points: 2
# Relax obj value: 0.274
# Max RMSD: 0.311
# Mean RMSD: 0.196
data_MOF--net-ocu--node1-PAMTOO_clean_sbu_0--node2-GIZVER_clean_sbu_0--edge1-TEMPAE_clean_linker_10
_symmetry_space_group_name_H-M    P1
_symmetry_Int_Tables_number       1
_symmetry_cell_setting            triclinic
loop_
_symmetry_equiv_pos_as_xyz
'x, y, z'
_cell_length_a     41.941622
_cell_length_b     45.405786
_cell_length_c     33.227086
_cell_angle_alpha  91.290557
_cell_angle_beta   94.173221
_cell_angle_gamma 105.56197
loop_
_atom_site_label
_atom_site_type_symbol
_atom_site_fract_x
_atom_site_fract_y
_atom_site_fract_z
_atom_type_partial_charge
Dy0 Dy 0.35148 0.32437 0.32685 0.0
Dy1 Dy 0.29603 0.3101 0.25392 0.0
C2 C 0.35667 0.27586 0.25419 0.0
O3 O 0.37243 0.35938 0.28166 0.0
O4 O 0.32969 0.35356 0.23279 0.0
O5 O 0.40311 0.33378 0.34843 0.0
O6 O 0.36727 0.34125 0.38822 0.0
O7 O 0.2799 0.34702 0.28984 0.0
O8 O 0.31504 0.35038 0.34668 0.0
O9 O 0.2759 0.2738 0.29779 0.0
O10 O 0.31655 0.2823 0.34989 0.0
O11 O 0.24446 0.29474 0.23188 0.0
O12 O 0.28273 0.29903 0.19044 0.0
C13 C 0.36014 0.3675 0.24744 0.0
O14 O 0.36561 0.28573 0.29229 0.0
O15 O 0.33235 0.28421 0.23442 0.0
C16 C 0.41031 0.3221 0.41553 0.0
C17 C 0.43587 0.28094 0.45974 0.0
C18 C 0.40145 0.27646 0.454 0.0
C19 C 0.38869 0.29684 0.43176 0.0
C20 C 0.44469 0.32775 0.42362 0.0
C21 C 0.45748 0.30714 0.44554 0.0
C22 C 0.39754 0.33969 0.38534 0.0
C23 C 0.28954 0.35753 0.32763 0.0
C24 C 0.28706 0.26699 0.33344 0.0
C25 C 0.2346 0.31255 0.16886 0.0
C26 C 0.19842 0.35231 0.14165 0.0
C27 C 0.23302 0.36288 0.14864 0.0
C28 C 0.25106 0.34309 0.16243 0.0
C29 C 0.20055 0.30123 0.15802 0.0
C30 C 0.18243 0.32112 0.14443 0.0
C31 C 0.25116 0.29464 0.19425 0.0
H32 H 0.38444 0.2561 0.46423 0.0
H33 H 0.36204 0.29184 0.42533 0.0
H34 H 0.46159 0.34706 0.41095 0.0
H35 H 0.48414 0.31083 0.44975 0.0
H36 H 0.24571 0.38695 0.14712 0.0
H37 H 0.27734 0.35227 0.17114 0.0
H38 H 0.18763 0.27772 0.16317 0.0
H39 H 0.15569 0.31269 0.13895 0.0
Dy40 Dy 0.84552 0.32075 0.25289 0.0
Dy41 Dy 0.80263 0.31935 0.32679 0.0
C42 C 0.86855 0.369 0.32344 0.0
O43 O 0.8637 0.2858 0.28977 0.0
O44 O 0.8365 0.28819 0.34672 0.0
O45 O 0.88684 0.34519 0.22137 0.0
O46 O 0.85611 0.30144 0.1967 0.0
O47 O 0.77301 0.27577 0.29405 0.0
O48 O 0.7977 0.28562 0.23454 0.0
O49 O 0.77311 0.33919 0.27943 0.0
O50 O 0.81399 0.35471 0.23675 0.0
O51 O 0.76052 0.32437 0.35632 0.0
O52 O 0.80718 0.32836 0.39153 0.0
C53 C 0.85826 0.27771 0.32723 0.0
O54 O 0.87864 0.34801 0.30482 0.0
O55 O 0.8368 0.36586 0.32166 0.0
C56 C 0.87257 0.34201 0.15275 0.0
C57 C 0.86286 0.39627 0.12442 0.0
C58 C 0.83533 0.3712 0.12765 0.0
C59 C 0.84015 0.34401 0.1422 0.0
C60 C 0.89952 0.36427 0.13978 0.0
C61 C 0.89467 0.39157 0.12574 0.0
C62 C 0.87848 0.32651 0.18963 0.0
C63 C 0.77414 0.26944 0.25537 0.0
C64 C 0.78427 0.35514 0.24821 0.0
C65 C 0.75725 0.31311 0.42373 0.0
C66 C 0.70568 0.27546 0.46208 0.0
C67 C 0.73319 0.26502 0.45308 0.0
C68 C 0.75877 0.28371 0.4335 0.0
C69 C 0.73233 0.32499 0.43778 0.0
C70 C 0.70644 0.30615 0.45682 0.0
C71 C 0.7763 0.32898 0.3921 0.0
H72 H 0.81048 0.37402 0.12474 0.0
H73 H 0.8188 0.3268 0.15116 0.0
H74 H 0.9247 0.36299 0.14722 0.0
H75 H 0.91629 0.41058 0.12275 0.0
H76 H 0.73302 0.2413 0.45655 0.0
H77 H 0.77784 0.27424 0.42265 0.0
H78 H 0.73105 0.3478 0.43035 0.0
H79 H 0.68549 0.31456 0.46361 0.0
Dy80 Dy 0.79451 0.80352 0.3349 0.0
Dy81 Dy 0.81605 0.83881 0.25182 0.0
C82 C 0.86487 0.85439 0.33234 0.0
O83 O 0.76286 0.83477 0.32402 0.0
O84 O 0.80203 0.8705 0.29432 0.0
O85 O 0.78728 0.80586 0.39853 0.0
O86 O 0.77705 0.76197 0.3661 0.0
O87 O 0.76271 0.8122 0.23693 0.0
O88 O 0.75682 0.77733 0.287 0.0
O89 O 0.81705 0.79067 0.24471 0.0
O90 O 0.83315 0.78469 0.31012 0.0
O91 O 0.84213 0.84336 0.19741 0.0
O92 O 0.81463 0.87564 0.21269 0.0
C93 C 0.77536 0.86293 0.31398 0.0
O94 O 0.83938 0.84231 0.35312 0.0
O95 O 0.86299 0.85066 0.29275 0.0
C96 C 0.80611 0.76651 0.42962 0.0
C97 C 0.86084 0.7479 0.46259 0.0
C98 C 0.86064 0.77874 0.46622 0.0
C99 C 0.83357 0.78802 0.44968 0.0
C100 C 0.80488 0.73536 0.42984 0.0
C101 C 0.83212 0.72616 0.44569 0.0
C102 C 0.78269 0.7764 0.40142 0.0
C103 C 0.74659 0.7864 0.25228 0.0
C104 C 0.83105 0.77669 0.27176 0.0
C105 C 0.80969 0.85915 0.14558 0.0
C106 C 0.75627 0.85403 0.08784 0.0
C107 C 0.75903 0.82848 0.10911 0.0
C108 C 0.78573 0.83095 0.13775 0.0
C109 C 0.8088 0.88376 0.12125 0.0
C110 C 0.78223 0.88116 0.09228 0.0
C111 C 0.82927 0.865 0.18466 0.0
H112 H 0.88205 0.79592 0.48001 0.0
H113 H 0.8352 0.81225 0.45032 0.0
H114 H 0.78401 0.71834 0.41459 0.0
H115 H 0.8314 0.70224 0.44195 0.0
H116 H 0.73911 0.80756 0.10603 0.0
H117 H 0.78588 0.81174 0.15645 0.0
H118 H 0.8268 0.90579 0.12728 0.0
H119 H 0.78019 0.90128 0.07647 0.0
Dy120 Dy 0.2902 0.82602 0.28326 0.0
Dy121 Dy 0.33928 0.78466 0.27921 0.0
C122 C 0.35772 0.8386 0.34509 0.0
O123 O 0.32406 0.85434 0.24007 0.0
O124 O 0.36084 0.8252 0.23966 0.0
O125 O 0.2773 0.86874 0.28902 0.0
O126 O 0.23992 0.82599 0.2937 0.0
O127 O 0.29046 0.76162 0.24484 0.0
O128 O 0.27468 0.80261 0.22296 0.0
O129 O 0.31272 0.76411 0.33334 0.0
O130 O 0.26827 0.7829 0.3182 0.0
O131 O 0.34645 0.73955 0.27187 0.0
O132 O 0.3866 0.77944 0.26331 0.0
C133 C 0.35208 0.85006 0.22889 0.0
O134 O 0.33221 0.8472 0.32936 0.0
O135 O 0.36353 0.81285 0.33378 0.0
C136 C 0.24608 0.8639 0.3441 0.0
C137 C 0.25227 0.88863 0.42288 0.0
C138 C 0.2697 0.86749 0.41358 0.0
C139 C 0.26608 0.85472 0.37451 0.0
C140 C 0.22749 0.88395 0.35371 0.0
C141 C 0.23024 0.89596 0.39318 0.0
C142 C 0.24878 0.85531 0.30225 0.0
C143 C 0.27208 0.77341 0.22006 0.0
C144 C 0.28157 0.76354 0.33809 0.0
C145 C 0.37367 0.74065 0.21328 0.0
C146 C 0.3695 0.72161 0.13189 0.0
C147 C 0.34651 0.73604 0.14538 0.0
C148 C 0.34896 0.74594 0.18566 0.0
C149 C 0.39728 0.72705 0.19979 0.0
C150 C 0.39534 0.71773 0.15918 0.0
C151 C 0.37433 0.75022 0.25562 0.0
H152 H 0.28673 0.86162 0.4361 0.0
H153 H 0.28018 0.83877 0.36754 0.0
H154 H 0.21207 0.89125 0.33055 0.0
H155 H 0.21655 0.91232 0.39996 0.0
H156 H 0.32649 0.73925 0.12495 0.0
H157 H 0.33122 0.75742 0.19536 0.0
H158 H 0.41677 0.72327 0.22059 0.0
H159 H 0.41328 0.70635 0.14948 0.0
Dy160 Dy 0.3411 0.81346 0.73867 0.0
Dy161 Dy 0.29972 0.81067 0.81524 0.0
C162 C 0.36301 0.86309 0.80683 0.0
O163 O 0.35998 0.77892 0.77719 0.0
O164 O 0.34035 0.78789 0.8373 0.0
O165 O 0.37329 0.83883 0.69627 0.0
O166 O 0.35606 0.78829 0.69085 0.0
O167 O 0.28298 0.76498 0.78266 0.0
O168 O 0.29 0.78592 0.72216 0.0
O169 O 0.2712 0.83414 0.77033 0.0
O170 O 0.3099 0.8474 0.72379 0.0
O171 O 0.25382 0.80039 0.84382 0.0
O172 O 0.30078 0.81978 0.87936 0.0
C173 C 0.35898 0.77467 0.81652 0.0
O174 O 0.37372 0.8431 0.78711 0.0
O175 O 0.33168 0.85801 0.81253 0.0
C176 C 0.39243 0.81375 0.64124 0.0
C177 C 0.44386 0.82216 0.58958 0.0
C178 C 0.42638 0.8445 0.59385 0.0
C179 C 0.40098 0.8403 0.61948 0.0
C180 C 0.40656 0.78972 0.6332 0.0
C181 C 0.43216 0.79388 0.6074 0.0
C182 C 0.37373 0.8136 0.67676 0.0
C183 C 0.27674 0.76288 0.74347 0.0
C184 C 0.28161 0.84943 0.73798 0.0
C185 C 0.26202 0.77922 0.90515 0.0
C186 C 0.23479 0.72222 0.93639 0.0
C187 C 0.26066 0.72582 0.91102 0.0
C188 C 0.2741 0.75418 0.89533 0.0
C189 C 0.23887 0.77656 0.93391 0.0
C190 C 0.2254 0.74814 0.94973 0.0
C191 C 0.2693 0.80565 0.87994 0.0
H192 H 0.43441 0.86674 0.58105 0.0
H193 H 0.39001 0.85896 0.62487 0.0
H194 H 0.39995 0.76883 0.64951 0.0
H195 H 0.4445 0.77596 0.60408 0.0
H196 H 0.26824 0.7062 0.90038 0.0
H197 H 0.29175 0.75582 0.8728 0.0
H198 H 0.22928 0.79569 0.94157 0.0
H199 H 0.20519 0.74587 0.96899 0.0
Dy200 Dy 0.33976 0.30852 0.76078 0.0
Dy201 Dy 0.29393 0.30634 0.83494 0.0
C202 C 0.26851 0.26172 0.75716 0.0
O203 O 0.30282 0.33273 0.73731 0.0
O204 O 0.28196 0.34319 0.7963 0.0
O205 O 0.34492 0.30057 0.69762 0.0
O206 O 0.38839 0.32037 0.7385 0.0
O207 O 0.34505 0.33389 0.85598 0.0
O208 O 0.36036 0.35311 0.79575 0.0
O209 O 0.31904 0.26911 0.84901 0.0
O210 O 0.36202 0.28355 0.80843 0.0
O211 O 0.28665 0.32753 0.89056 0.0
O212 O 0.25153 0.28501 0.86776 0.0
C213 C 0.28432 0.34628 0.75708 0.0
O214 O 0.29986 0.26414 0.752 0.0
O215 O 0.26054 0.27974 0.78367 0.0
C216 C 0.3923 0.28265 0.69156 0.0
C217 C 0.42077 0.23356 0.68523 0.0
C218 C 0.38655 0.22892 0.67594 0.0
C219 C 0.37238 0.25322 0.67921 0.0
C220 C 0.42673 0.2876 0.69865 0.0
C221 C 0.44084 0.26324 0.69579 0.0
C222 C 0.37717 0.3069 0.70327 0.0
C223 C 0.36432 0.35452 0.83529 0.0
C224 C 0.34852 0.26798 0.83876 0.0
C225 C 0.23059 0.3225 0.89825 0.0
C226 C 0.18196 0.35244 0.91371 0.0
C227 C 0.20764 0.36581 0.8895 0.0
C228 C 0.23158 0.35085 0.88157 0.0
C229 C 0.20421 0.30836 0.92072 0.0
C230 C 0.17989 0.32311 0.92815 0.0
C231 C 0.25767 0.30835 0.89354 0.0
H232 H 0.37063 0.2064 0.66682 0.0
H233 H 0.3457 0.24861 0.67359 0.0
H234 H 0.44251 0.31005 0.70846 0.0
H235 H 0.46727 0.26747 0.70339 0.0
H236 H 0.21024 0.38845 0.8782 0.0
H237 H 0.25157 0.36203 0.86362 0.0
H238 H 0.20287 0.28629 0.93331 0.0
H239 H 0.15995 0.31189 0.94611 0.0
Dy240 Dy 0.78646 0.3269 0.77041 0.0
Dy241 Dy 0.84115 0.29414 0.80407 0.0
C242 C 0.83689 0.35585 0.84738 0.0
O243 O 0.83535 0.35728 0.75459 0.0
O244 O 0.86423 0.32142 0.75206 0.0
O245 O 0.76746 0.35141 0.72363 0.0
O246 O 0.74218 0.34115 0.77842 0.0
O247 O 0.8129 0.26131 0.75426 0.0
O248 O 0.78534 0.29214 0.72084 0.0
O249 O 0.7981 0.28127 0.84343 0.0
O250 O 0.75771 0.28267 0.79503 0.0
O251 O 0.85249 0.25942 0.84139 0.0
O252 O 0.89177 0.29196 0.81478 0.0
C253 C 0.86094 0.34869 0.74313 0.0
O254 O 0.8062 0.35075 0.83129 0.0
O255 O 0.85599 0.33919 0.83647 0.0
C256 C 0.74925 0.39015 0.75503 0.0
C257 C 0.75689 0.44758 0.79367 0.0
C258 C 0.72498 0.4281 0.78242 0.0
C259 C 0.72124 0.3996 0.76325 0.0
C260 C 0.78102 0.4105 0.76308 0.0
C261 C 0.78481 0.43908 0.78207 0.0
C262 C 0.74591 0.35763 0.74653 0.0
C263 C 0.79419 0.26648 0.72315 0.0
C264 C 0.76686 0.27173 0.82888 0.0
C265 C 0.89307 0.24078 0.81226 0.0
C266 C 0.89993 0.20026 0.75112 0.0
C267 C 0.8738 0.19153 0.7761 0.0
C268 C 0.87046 0.2116 0.8067 0.0
C269 C 0.92159 0.24772 0.79081 0.0
C270 C 0.92488 0.22766 0.76013 0.0
C271 C 0.88313 0.26582 0.83197 0.0
H272 H 0.7029 0.43359 0.7915 0.0
H273 H 0.69661 0.38402 0.75779 0.0
H274 H 0.80308 0.40351 0.75736 0.0
H275 H 0.80963 0.45362 0.79001 0.0
H276 H 0.8548 0.17008 0.77026 0.0
H277 H 0.84857 0.20527 0.8234 0.0
H278 H 0.93962 0.2699 0.79494 0.0
H279 H 0.94542 0.23481 0.74137 0.0
Dy280 Dy 0.85228 0.81939 0.81885 0.0
Dy281 Dy 0.7983 0.79794 0.74627 0.0
C282 C 0.86469 0.76851 0.7504 0.0
O283 O 0.87811 0.84637 0.76921 0.0
O284 O 0.8338 0.84009 0.72281 0.0
O285 O 0.88541 0.81118 0.86734 0.0
O286 O 0.88147 0.85714 0.85799 0.0
O287 O 0.77215 0.8257 0.78715 0.0
O288 O 0.81757 0.85117 0.82784 0.0
O289 O 0.7757 0.76451 0.79139 0.0
O290 O 0.81248 0.78247 0.84638 0.0
O291 O 0.76013 0.80587 0.70425 0.0
O292 O 0.77452 0.7638 0.69917 0.0
C293 C 0.86503 0.85359 0.73503 0.0
O294 O 0.87613 0.78634 0.78374 0.0
O295 O 0.83547 0.76942 0.73261 0.0
C296 C 0.88458 0.84129 0.92451 0.0
C297 C 0.86538 0.81968 0.99941 0.0
C298 C 0.89933 0.83041 0.99305 0.0
C299 C 0.90885 0.84072 0.95536 0.0
C300 C 0.85137 0.83638 0.93341 0.0
C301 C 0.84184 0.82602 0.97108 0.0
C302 C 0.89209 0.83916 0.88241 0.0
C303 C 0.7858 0.84761 0.81559 0.0
C304 C 0.78489 0.76331 0.82975 0.0
C305 C 0.76746 0.78932 0.64011 0.0
C306 C 0.78453 0.82795 0.57657 0.0
C307 C 0.75122 0.81169 0.57943 0.0
C308 C 0.74263 0.79263 0.61153 0.0
C309 C 0.80103 0.80142 0.63314 0.0
C310 C 0.80956 0.82091 0.60154 0.0
C311 C 0.75922 0.78195 0.68133 0.0
H312 H 0.91812 0.82602 0.01442 0.0
H313 H 0.9346 0.84465 0.949 0.0
H314 H 0.83227 0.83689 0.90986 0.0
H315 H 0.81559 0.81815 0.97539 0.0
H316 H 0.73159 0.81726 0.56065 0.0
H317 H 0.71666 0.78358 0.61664 0.0
H318 H 0.82056 0.79909 0.65502 0.0
H319 H 0.8353 0.83358 0.60006 0.0
Co320 Co 0.1286 1.0216 0.52682 0.0
Co321 Co 0.10527 1.01703 0.59232 0.0
Co322 Co 0.07017 0.06296 0.53036 0.0
O323 O 0.10898 0.04817 0.55591 0.0
H324 H 0.12599 0.06577 0.5674 0.0
O325 O 1.03161 0.07826 0.50511 0.0
Co326 Co 1.01643 0.10947 0.53169 0.0
Co327 Co 1.03563 0.10642 0.46363 0.0
H328 H 1.01311 0.06077 0.49706 0.0
O329 O 0.139 1.01332 0.63299 0.0
O330 O 0.12828 0.9898 0.57176 0.0
O331 O 0.05909 0.9993 0.5973 0.0
O332 O 1.03513 1.0309 0.56133 0.0
O333 O 0.07793 0.09303 0.57707 0.0
O334 O 0.9978 0.13419 0.5564 0.0
O335 O 0.97354 0.09116 0.51787 0.0
O336 O 0.06152 0.13181 0.55114 0.0
O337 O 0.1054 0.09467 0.49952 0.0
O338 O 0.08185 0.12251 0.45655 0.0
O339 O 1.01747 0.13767 0.48327 0.0
O340 O 0.99991 0.11075 0.42539 0.0
C341 C 0.17581 1.02237 0.51886 0.0
C342 C 0.06251 1.00501 0.4842 0.0
C343 C 1.03357 1.00754 0.58423 0.0
C344 C 0.14381 0.99261 0.60829 0.0
C345 C 0.97131 0.11441 0.53979 0.0
C346 C 0.08127 0.12167 0.57475 0.0
C347 C 0.1073 0.11588 0.47317 0.0
C348 C 0.99846 0.1334 0.4491 0.0
O349 O 0.15135 1.00199 0.49921 0.0
O350 O 0.17007 0.04205 0.54431 0.0
O351 O 0.06192 1.03291 0.48353 0.0
O352 O 0.08569 0.99708 0.50447 0.0
Co353 Co 0.60639 1.01486 0.96994 0.0
Co354 Co 0.57476 1.00228 0.03246 0.0
Co355 Co 0.55894 0.06632 0.02704 0.0
O356 O 0.59634 0.04246 0.01991 0.0
H357 H 0.61574 0.05073 0.03839 0.0
O358 O 0.52043 0.08769 0.03252 0.0
Co359 Co 0.52009 0.12603 0.06466 0.0
Co360 Co 0.5194 0.1141 0.99107 0.0
H361 H 0.49915 0.07265 0.03214 0.0
O362 O 0.60031 0.98412 0.06433 0.0
O363 O 0.58666 0.97737 0.99676 0.0
O364 O 0.52801 0.9897 0.04014 0.0
O365 O 0.53139 1.03537 0.06751 0.0
O366 O 0.58517 0.09474 0.07319 0.0
O367 O 0.51822 0.16019 0.09521 0.0
O368 O 0.47492 0.12049 0.07736 0.0
O369 O 0.56746 0.13692 0.05995 0.0
O370 O 0.58691 0.0971 0.98899 0.0
O371 O 0.55913 0.1294 0.96521 0.0
O372 O 0.50864 0.14752 0.01342 0.0
O373 O 0.48005 0.11277 0.96441 0.0
C374 C 0.64472 0.99015 0.94594 0.0
C375 C 0.53707 1.02453 0.95143 0.0
C376 C 0.5169 1.0061 0.06363 0.0
C377 C 0.60055 0.96993 0.02997 0.0
C378 C 0.48654 0.14755 0.0962 0.0
C379 C 0.58765 0.12375 0.07851 0.0
C380 C 0.58522 0.12044 0.96828 0.0
C381 C 0.48435 0.13875 0.98426 0.0
O382 O 0.61648 0.99012 0.92699 0.0
O383 O 0.65108 1.00674 0.98033 0.0
O384 O 0.53241 0.04148 0.9804 0.0
O385 O 0.56341 1.01581 0.94838 0.0
Co386 Co 1.0351 0.51548 0.06189 0.0
Co387 Co 0.05709 0.55028 0.12779 0.0
Co388 Co 1.01165 0.5791 0.0731 0.0
O389 O 1.04591 0.55752 0.07513 0.0
H390 H 0.06565 0.56887 0.06325 0.0
O391 O 0.97753 0.6005 0.07112 0.0
Co392 Co 0.98559 0.6394 0.09618 0.0
Co393 Co 0.96813 0.61629 0.02312 0.0
H394 H 0.95693 0.58703 0.0785 0.0
O395 O 0.09694 0.54327 0.14224 0.0
O396 O 1.04908 0.50865 0.11868 0.0
O397 O 1.03135 0.55973 0.16954 0.0
O398 O 0.99141 0.56171 0.12305 0.0
O399 O 1.04458 0.61207 0.10638 0.0
O400 O 0.98799 0.67454 0.12205 0.0
O401 O 0.94529 0.63179 0.11322 0.0
O402 O 1.03031 0.65199 0.08256 0.0
O403 O 1.03117 0.59612 0.02302 0.0
O404 O 0.99864 0.61666 0.98256 0.0
O405 O 0.97144 0.65447 0.04453 0.0
O406 O 0.92615 0.62129 1.0122 0.0
C407 C 0.05926 0.48813 0.03624 0.0
C408 C 0.97211 0.51795 0.04843 0.0
C409 C 1.00189 0.56063 0.15982 0.0
C410 C 0.07987 0.51511 0.13369 0.0
C411 C 0.95818 0.6591 0.12948 0.0
C412 C 0.05208 0.64022 0.09868 0.0
C413 C 1.02443 0.60744 0.98975 0.0
C414 C 0.94055 0.64769 0.03029 0.0
O415 O 1.0292 0.47681 0.0466 0.0
O416 O 0.07497 0.51657 0.0458 0.0
O417 O 0.97976 0.54581 0.03922 0.0
O418 O 0.99059 0.50921 0.07491 0.0
Co419 Co 0.622 0.51653 0.03222 0.0
Co420 Co 0.60781 0.52244 0.10123 0.0
Co421 Co 0.57105 0.56463 0.03514 0.0
O422 O 0.61062 0.55001 0.05957 0.0
H423 H 0.62984 0.56728 0.06543 0.0
O424 O 0.53133 0.57824 1.00959 0.0
Co425 Co 0.508 0.60271 0.03626 0.0
Co426 Co 0.53397 0.60864 0.9723 0.0
H427 H 0.51525 0.56017 0.99778 0.0
O428 O 0.64369 0.51996 0.13934 0.0
O429 O 0.62635 0.49102 0.08257 0.0
O430 O 0.56207 0.50695 0.11111 0.0
O431 O 0.53717 0.5349 0.06994 0.0
O432 O 0.5815 0.59734 0.07903 0.0
O433 O 0.48192 0.62031 0.06103 0.0
O434 O 0.46821 0.58139 0.01383 0.0
O435 O 0.54847 0.62771 0.06388 0.0
O436 O 0.60484 0.59484 1.00076 0.0
O437 O 0.57979 0.62644 0.96668 0.0
O438 O 0.51028 0.63558 0.99194 0.0
O439 O 0.50022 0.61168 0.93101 0.0
C440 C 0.66434 0.51056 0.01336 0.0
C441 C 0.55661 0.50379 0.99669 0.0
C442 C 0.53623 0.51399 0.09656 0.0
C443 C 0.64512 0.49655 0.11702 0.0
C444 C 0.45957 0.59989 0.03846 0.0
C445 C 0.57442 0.62293 0.08212 0.0
C446 C 0.60571 0.6183 0.97832 0.0
C447 C 0.49517 0.63264 0.9551 0.0
O448 O 0.63627 0.48989 1.00487 0.0
O449 O 0.66574 0.53432 0.03679 0.0
O450 O 0.56118 0.53222 0.991 0.0
O451 O 0.57611 0.49452 0.02152 0.0
Co452 Co 0.14368 0.51145 0.56616 0.0
Co453 Co 0.12652 0.51812 0.49475 0.0
Co454 Co 0.08247 0.55223 0.55537 0.0
O455 O 0.10066 0.51512 0.53918 0.0
H456 H 0.08352 0.49596 0.53805 0.0
O457 O 0.06498 0.58884 0.57478 0.0
Co458 Co 1.02865 0.59812 0.5434 0.0
Co459 Co 1.03381 0.58712 0.61419 0.0
H460 H 0.0833 0.60699 0.57978 0.0
O461 O 0.12655 0.48364 0.4618 0.0
O462 O 0.16498 0.50531 0.5122 0.0
O463 O 0.13855 0.55928 0.47539 0.0
O464 O 0.11405 0.58373 0.51845 0.0
O465 O 1.04717 0.54092 0.50976 0.0
O466 O 1.00005 0.60976 0.51094 0.0
O467 O 1.04743 0.63835 0.54461 0.0
O468 O 1.00542 0.55483 0.53565 0.0
O469 O 1.05064 0.52189 0.59125 0.0
O470 O 1.01914 0.54458 0.62785 0.0
O471 O 0.99983 0.60579 0.59223 0.0
O472 O 1.03018 0.61986 0.65091 0.0
C473 C 0.16327 0.47785 0.59276 0.0
C474 C 0.14827 0.57027 0.59278 0.0
C475 C 0.13323 0.58392 0.48888 0.0
C476 C 0.15526 0.48548 0.48083 0.0
C477 C 1.02158 0.63607 0.51938 0.0
C478 C 1.01612 0.53728 0.51239 0.0
C479 C 1.02794 0.52099 0.61647 0.0
C480 C 1.00537 0.62266 0.62688 0.0
O481 O 0.17985 0.50642 0.59309 0.0
O482 O 0.13366 0.4695 0.57315 0.0
O483 O 0.11776 0.56254 0.59985 0.0
O484 O 0.15978 0.55489 0.56749 0.0
Co485 Co 0.67315 1.02703 0.50557 0.0
Co486 Co 0.62995 1.02702 0.44865 0.0
Co487 Co 0.60103 0.04033 0.53111 0.0
O488 O 0.62661 1.01909 0.5009 0.0
H489 H 0.61662 0.99733 0.50182 0.0
O490 O 0.57582 0.06197 0.56256 0.0
Co491 Co 0.53283 0.06436 0.54471 0.0
Co492 Co 0.55734 0.04456 0.60616 0.0
H493 H 0.58961 0.08215 0.57099 0.0
O494 O 0.62813 0.99635 0.41415 0.0
O495 O 0.67382 1.03069 0.44538 0.0
O496 O 0.61433 0.05896 0.4291 0.0
O497 O 0.5968 0.07015 0.48797 0.0
O498 O 0.56115 1.00962 0.50475 0.0
O499 O 0.49467 0.07175 0.52853 0.0
O500 O 0.54157 0.10369 0.55865 0.0
O501 O 0.51814 1.0229 0.52697 0.0
O502 O 0.60492 1.01054 0.57426 0.0
O503 O 0.56182 1.00455 0.61228 0.0
O504 O 0.51653 0.05171 0.59811 0.0
O505 O 0.55576 0.06913 0.64995 0.0
C506 C 0.70368 0.99911 0.50668 0.0
C507 C 0.66879 0.08367 0.54237 0.0
C508 C 0.6011 0.07489 0.4506 0.0
C509 C 0.66017 1.0082 0.4188 0.0
C510 C 0.51179 0.09919 0.54114 0.0
C511 C 0.53024 1.00419 0.50861 0.0
C512 C 0.58556 0.99553 0.59928 0.0
C513 C 0.52653 0.06742 0.63226 0.0
O514 O 0.71665 1.02868 0.51025 0.0
O515 O 0.67171 0.98808 0.50052 0.0
O516 O 0.64153 0.07034 0.55674 0.0
O517 O 0.68018 0.07088 0.5141 0.0
C518 C 0.27356 0.23446 0.39523 0.0
C519 C 0.2644 0.24213 0.35601 0.0
C520 C 0.25123 0.21267 0.41718 0.0
C521 C 0.21861 0.19793 0.39996 0.0
C522 C 0.2095 0.20522 0.36018 0.0
C523 C 0.23225 0.22693 0.33893 0.0
C524 C 0.26233 0.20591 0.45933 0.0
C525 C 0.17518 0.19063 0.34023 0.0
C526 C 0.16227 0.12434 0.44102 0.0
C527 C 0.14001 0.1359 0.46202 0.0
C528 C 0.18868 0.14416 0.42204 0.0
C529 C 0.19324 0.17644 0.42403 0.0
C530 C 0.17168 0.18809 0.44693 0.0
C531 C 0.1455 0.16785 0.46519 0.0
C532 C 0.21064 0.13039 0.39799 0.0
C533 C 0.17505 0.22201 0.45044 0.0
H534 H 0.29807 0.24588 0.40916 0.0
H535 H 0.22443 0.23239 0.30887 0.0
H536 H 0.24694 0.21317 0.48134 0.0
H537 H 0.25864 0.18092 0.46189 0.0
H538 H 0.28885 0.21781 0.46786 0.0
H539 H 0.17224 0.19755 0.30862 0.0
H540 H 0.16979 0.16534 0.34017 0.0
H541 H 0.15637 0.19721 0.35762 0.0
H542 H 0.15792 0.09976 0.43743 0.0
H543 H 0.12825 0.17708 0.48083 0.0
H544 H 0.23717 0.14225 0.40625 0.0
H545 H 0.20552 0.13352 0.36536 0.0
H546 H 0.20651 0.10555 0.40274 0.0
H547 H 0.20109 0.23476 0.45995 0.0
H548 H 0.15862 0.22772 0.4724 0.0
H549 H 0.16855 0.23015 0.42051 0.0
C550 C 0.8689 0.24037 0.38266 0.0
C551 C 0.87827 0.25686 0.34775 0.0
C552 C 0.88736 0.22077 0.40074 0.0
C553 C 0.91721 0.21753 0.38504 0.0
C554 C 0.92713 0.23473 0.35045 0.0
C555 C 0.90774 0.25338 0.33232 0.0
C556 C 0.87461 0.20331 0.43695 0.0
C557 C 0.9588 0.2337 0.33242 0.0
C558 C 0.98165 0.18505 0.4513 0.0
C559 C 0.97702 0.15503 0.43482 0.0
C560 C 0.96274 0.20523 0.43599 0.0
C561 C 0.93738 0.19573 0.40342 0.0
C562 C 0.93211 0.16517 0.38754 0.0
C563 C 0.95181 0.14582 0.40273 0.0
C564 C 0.97026 0.23709 0.4548 0.0
C565 C 0.90529 0.15262 0.35407 0.0
H566 H 0.84658 0.24233 0.3957 0.0
H567 H 0.91619 0.26577 0.3059 0.0
H568 H 0.87458 0.17895 0.43304 0.0
H569 H 0.8913 0.21306 0.4642 0.0
H570 H 0.84911 0.20439 0.44233 0.0
H571 H 0.96512 0.2502 0.30815 0.0
H572 H 0.97972 0.23887 0.35627 0.0
H573 H 0.95631 0.21035 0.3196 0.0
H574 H 1.00063 0.19315 0.47593 0.0
H575 H 0.94718 0.12296 0.38925 0.0
H576 H 0.94946 0.23895 0.47258 0.0
H577 H 0.97264 0.25418 0.43105 0.0
H578 H 0.99344 0.24292 0.47523 0.0
H579 H 0.88135 0.15608 0.36243 0.0
H580 H 0.90182 0.12786 0.34719 0.0
H581 H 0.91167 0.16517 0.32623 0.0
C582 C 0.8975 0.87946 0.39631 0.0
C583 C 0.89585 0.87403 0.35429 0.0
C584 C 0.92563 0.89942 0.41731 0.0
C585 C 0.95305 0.91433 0.39596 0.0
C586 C 0.95195 0.90837 0.35374 0.0
C587 C 0.9234 0.88837 0.33343 0.0
C588 C 0.92558 0.90524 0.46226 0.0
C589 C 0.98064 0.9237 0.32982 0.0
C590 C 1.00833 0.99019 0.44152 0.0
C591 C 1.03542 0.98164 0.46036 0.0
C592 C 0.98167 0.96861 0.42032 0.0
C593 C 0.98194 0.93753 0.41744 0.0
C594 C 1.00932 0.92869 0.43589 0.0
C595 C 1.03564 0.95079 0.45728 0.0
C596 C 0.95292 0.97909 0.4015 0.0
C597 C 1.01064 0.89582 0.43332 0.0
H598 H 0.87649 0.86854 0.4129 0.0
H599 H 0.92253 0.88436 0.30104 0.0
H600 H 0.94776 0.90068 0.47837 0.0
H601 H 0.92692 0.92964 0.46872 0.0
H602 H 0.90299 0.89083 0.47475 0.0
H603 H 0.97685 0.91523 0.29773 0.0
H604 H 0.98389 0.94879 0.33075 0.0
H605 H 1.00402 0.9198 0.34347 0.0
H606 H 1.00762 1.01385 0.44377 0.0
H607 H 0.05631 0.94384 0.47172 0.0
H608 H 0.92969 0.96707 0.41482 0.0
H609 H 0.94932 0.97316 0.36861 0.0
H610 H 0.95669 1.00414 0.40599 0.0
H611 H 0.98955 0.88114 0.44813 0.0
H612 H 1.03417 0.89279 0.44793 0.0
H613 H 1.00807 0.88758 0.40124 0.0
C614 C 0.23302 0.90698 0.48419 0.0
C615 C 0.25945 0.90616 0.46156 0.0
C616 C 0.23463 0.93276 0.50869 0.0
C617 C 0.26336 0.95802 0.50983 0.0
C618 C 0.29252 0.95403 0.4945 0.0
C619 C 0.29014 0.92803 0.46961 0.0
C620 C 0.20335 0.93501 0.52666 0.0
C621 C 0.32464 0.97903 0.49908 0.0
C622 C 0.21901 1.01325 0.4783 0.0
C623 C 0.20955 1.02011 0.51592 0.0
C624 C 0.24385 0.99829 0.47563 0.0
C625 C 0.25787 0.9889 0.51169 0.0
C626 C 0.25348 1.00189 0.54926 0.0
C627 C 0.22891 1.01746 0.55106 0.0
C628 C 0.24977 0.98737 0.43431 0.0
C629 C 0.27046 0.99547 0.58819 0.0
H630 H 0.20968 0.88941 0.4786 0.0
H631 H 0.311 0.92679 0.45281 0.0
H632 H 0.20941 0.94649 0.55703 0.0
H633 H 0.1907 0.94873 0.50726 0.0
H634 H 0.18571 0.91213 0.52904 0.0
H635 H 0.34619 0.96912 0.50031 0.0
H636 H 0.32638 0.99364 0.47259 0.0
H637 H 0.32624 0.9937 0.52673 0.0
H638 H 0.20457 1.0165 0.45114 0.0
H639 H 0.22212 1.02382 0.58025 0.0
H640 H 0.23495 0.96329 0.42846 0.0
H641 H 0.27628 0.98845 0.43229 0.0
H642 H 0.24213 1.00122 0.41016 0.0
H643 H 0.28966 0.98335 0.58327 0.0
H644 H 0.25161 0.98166 0.60695 0.0
H645 H 0.28227 1.01734 0.60554 0.0
C646 C 0.27137 0.88687 0.68342 0.0
C647 C 0.26091 0.86946 0.71717 0.0
C648 C 0.25266 0.90562 0.6641 0.0
C649 C 0.22206 0.90812 0.67833 0.0
C650 C 0.21115 0.89025 0.7121 0.0
C651 C 0.23031 0.87157 0.73075 0.0
C652 C 0.2667 0.9235 0.62887 0.0
C653 C 0.1789 0.89087 0.7289 0.0
C654 C 0.18909 0.98027 0.65691 0.0
C655 C 0.16453 0.97088 0.62416 0.0
C656 C 0.20779 0.96068 0.67393 0.0
C657 C 0.20219 0.92982 0.65916 0.0
C658 C 0.17721 0.92003 0.62629 0.0
C659 C 0.15919 0.94035 0.60927 0.0
C660 C 0.23394 0.97328 0.70807 0.0
C661 C 0.1695 0.88776 0.60882 0.0
H662 H 0.29466 0.88607 0.6719 0.0
H663 H 0.22113 0.85854 0.75641 0.0
H664 H 0.24682 0.92522 0.6059 0.0
H665 H 0.2806 0.94692 0.64019 0.0
H666 H 0.28423 0.91309 0.6141 0.0
H667 H 0.17265 0.87494 0.75382 0.0
H668 H 0.18045 0.91438 0.74042 0.0
H669 H 0.15835 0.88464 0.70462 0.0
H670 H 0.194 1.00345 0.66942 0.0
H671 H 0.14042 0.93202 0.58447 0.0
H672 H 0.25847 0.97171 0.69923 0.0
H673 H 0.22829 0.95939 0.73501 0.0
H674 H 0.23577 0.99752 0.71655 0.0
H675 H 0.1921 0.88376 0.59688 0.0
H676 H 0.14925 0.88293 0.58411 0.0
H677 H 0.16214 0.87127 0.63284 0.0
C678 C 0.20817 0.23558 0.73925 0.0
C679 C 0.24148 0.24018 0.73089 0.0
C680 C 0.182 0.21698 0.71358 0.0
C681 C 0.18909 0.20264 0.67831 0.0
C682 C 0.22266 0.20706 0.66971 0.0
C683 C 0.24842 0.22564 0.69614 0.0
C684 C 0.1467 0.21263 0.7243 0.0
C685 C 0.23136 0.19229 0.63242 0.0
C686 C 0.12448 0.13142 0.63335 0.0
C687 C 0.10826 0.14299 0.60139 0.0
C688 C 0.15066 0.15052 0.6584 0.0
C689 C 0.16141 0.18214 0.65133 0.0
C690 C 0.1453 0.19405 0.61906 0.0
C691 C 0.11882 0.17439 0.59462 0.0
C692 C 0.16675 0.13679 0.69262 0.0
C693 C 0.15615 0.22757 0.61027 0.0
H694 H 0.20241 0.24665 0.76596 0.0
H695 H 0.27398 0.2292 0.68914 0.0
H696 H 0.13209 0.22032 0.69951 0.0
H697 H 0.13475 0.18799 0.72789 0.0
H698 H 0.1453 0.22548 0.75267 0.0
H699 H 0.25855 0.1985 0.62949 0.0
H700 H 0.22216 0.16703 0.63326 0.0
H701 H 0.21894 0.19929 0.60506 0.0
H702 H 0.11661 0.10723 0.63906 0.0
H703 H 0.10675 0.18355 0.56984 0.0
H704 H 0.16426 0.14795 0.72184 0.0
H705 H 0.19369 0.14097 0.68916 0.0
H706 H 0.15559 0.11175 0.69402 0.0
H707 H 0.15316 0.24158 0.6368 0.0
H708 H 0.14171 0.23318 0.58355 0.0
H709 H 0.18287 0.23429 0.6048 0.0
C710 C 0.86988 0.17399 0.68743 0.0
C711 C 0.89918 0.18282 0.71315 0.0
C712 C 0.86932 0.1595 0.6497 0.0
C713 C 0.89877 0.1538 0.63778 0.0
C714 C 0.92854 0.16289 0.66368 0.0
C715 C 0.92824 0.17717 0.70118 0.0
C716 C 0.83719 0.15046 0.62322 0.0
C717 C 0.96095 0.15798 0.65181 0.0
C718 C 0.91938 0.0973 0.57204 0.0
C719 C 0.93908 0.11819 0.54767 0.0
C720 C 0.89922 0.10734 0.59786 0.0
C721 C 0.8996 0.13857 0.59846 0.0
C722 C 0.91291 0.1571 0.56687 0.0
C723 C 0.93337 0.14677 0.54196 0.0
C724 C 0.88317 0.08646 0.62962 0.0
C725 C 0.91121 0.18977 0.56454 0.0
H726 H 0.84759 0.17921 0.69632 0.0
H727 H 0.95084 0.18415 0.72112 0.0
H728 H 0.84081 0.14725 0.59086 0.0
H729 H 0.82146 0.12862 0.63345 0.0
H730 H 0.8235 0.16807 0.62618 0.0
H731 H 0.95822 0.13323 0.64611 0.0
H732 H 0.968 0.16979 0.62361 0.0
H733 H 0.98167 0.1668 0.67549 0.0
H734 H 0.92351 0.07487 0.57552 0.0
H735 H 0.94814 0.16243 0.52199 0.0
H736 H 0.85953 0.09119 0.63682 0.0
H737 H 0.90009 0.09059 0.6577 0.0
H738 H 0.87822 0.06201 0.6197 0.0
H739 H 0.9154 0.19826 0.53373 0.0
H740 H 0.93081 0.20452 0.58605 0.0
H741 H 0.8868 0.19198 0.57291 0.0
C742 C 0.91982 0.89193 0.72362 0.0
C743 C 0.88646 0.87766 0.71014 0.0
C744 C 0.9407 0.91421 0.70106 0.0
C745 C 0.92846 0.92299 0.66352 0.0
C746 C 0.8948 0.9088 0.64966 0.0
C747 C 0.87428 0.88664 0.67305 0.0
C748 C 0.97631 0.92802 0.71725 0.0
C749 C 0.8803 0.91709 0.61004 0.0
C750 C 0.98144 0.99825 0.62243 0.0
C751 C 1.00129 0.98745 0.59656 0.0
C752 C 0.95667 0.97771 0.64301 0.0
C753 C 0.95157 0.94547 0.63801 0.0
C754 C 0.97038 0.93466 0.61015 0.0
C755 C 0.99483 0.95557 0.59018 0.0
C756 C 0.93709 0.99056 0.67171 0.0
C757 C 0.96592 0.90081 0.60289 0.0
H758 H 0.92991 0.88554 0.75202 0.0
H759 H 0.84867 0.87621 0.66204 0.0
H760 H 0.99325 0.92243 0.69595 0.0
H761 H 0.98173 0.95331 0.71978 0.0
H762 H 0.98198 0.91959 0.74734 0.0
H763 H 0.85726 0.89958 0.59893 0.0
H764 H 0.87447 0.93935 0.61415 0.0
H765 H 0.89812 0.91958 0.58643 0.0
H766 H 0.98659 1.0227 0.62852 0.0
H767 H 1.01023 0.94686 0.57075 0.0
H768 H 0.94462 0.98609 0.7032 0.0
H769 H 0.91018 0.97905 0.66587 0.0
H770 H 0.94107 1.01562 0.66914 0.0
H771 H 0.97418 0.89107 0.63084 0.0
H772 H 0.98031 0.89593 0.57799 0.0
H773 H 0.9393 0.88885 0.59541 0.0
C774 C 0.36946 0.25063 0.18905 0.0
C775 C 0.37447 0.25544 0.23158 0.0
C776 C 0.38602 0.23264 0.16676 0.0
C777 C 0.40836 0.21785 0.18667 0.0
C778 C 0.41314 0.22216 0.22969 0.0
C779 C 0.3967 0.24082 0.25123 0.0
C780 C 0.37989 0.22994 0.12135 0.0
C781 C 0.43592 0.20698 0.25324 0.0
C782 C 0.43295 0.15091 0.12966 0.0
C783 C 0.46515 0.16488 0.11812 0.0
C784 C 0.41449 0.16743 0.15174 0.0
C785 C 0.42767 0.19931 0.16261 0.0
C786 C 0.45974 0.21357 0.15001 0.0
C787 C 0.47781 0.19647 0.12877 0.0
C788 C 0.38074 0.15052 0.16388 0.0
C789 C 0.47519 0.24732 0.1589 0.0
H790 H 0.35275 0.2615 0.17266 0.0
H791 H 0.4012 0.24379 0.28378 0.0
H792 H 0.40367 0.23869 0.10738 0.0
H793 H 0.36976 0.20555 0.11121 0.0
H794 H 0.36226 0.24282 0.10992 0.0
H795 H 0.43557 0.21045 0.28638 0.0
H796 H 0.42864 0.18204 0.24543 0.0
H797 H 0.46173 0.21632 0.24492 0.0
H798 H 0.42228 0.12677 0.12208 0.0
H799 H 0.50226 0.20823 0.12017 0.0
H800 H 0.36157 0.16053 0.14955 0.0
H801 H 0.38002 0.15311 0.19707 0.0
H802 H 0.37417 0.12576 0.15501 0.0
H803 H 0.4583 0.26055 0.1464 0.0
H804 H 0.49954 0.25562 0.14599 0.0
H805 H 0.47881 0.2522 0.19202 0.0
C806 C 0.87251 0.45159 0.11234 0.0
C807 C 0.86105 0.42704 0.1367 0.0
C808 C 0.88442 0.48132 0.1297 0.0
C809 C 0.88495 0.48599 0.17227 0.0
C810 C 0.86653 0.46237 0.19478 0.0
C811 C 0.8566 0.4327 0.17738 0.0
C812 C 0.90054 0.50669 0.10325 0.0
C813 C 0.8614 0.46728 0.23862 0.0
C814 C 0.97417 0.52015 0.2019 0.0
C815 C 0.97636 0.54919 0.18759 0.0
C816 C 0.94307 0.49929 0.2035 0.0
C817 C 0.91402 0.50892 0.19292 0.0
C818 C 0.91683 0.54051 0.18996 0.0
C819 C 0.94826 0.5604 0.18591 0.0
C820 C 0.942 0.46614 0.20961 0.0
C821 C 0.88684 0.55286 0.18599 0.0
H822 H 0.87548 0.44716 0.08083 0.0
H823 H 0.84927 0.4138 0.19705 0.0
H824 H 0.89164 0.52713 0.10887 0.0
H825 H 0.92784 0.51314 0.11034 0.0
H826 H 0.89483 0.49989 0.07068 0.0
H827 H 0.83456 0.45852 0.24308 0.0
H828 H 0.87451 0.45386 0.25793 0.0
H829 H 0.86989 0.49179 0.24884 0.0
H830 H 0.99626 0.51198 0.20454 0.0
H831 H 0.95026 0.58353 0.17658 0.0
H832 H 0.9316 0.45218 0.18149 0.0
H833 H 0.92606 0.45712 0.2341 0.0
H834 H 0.96699 0.46298 0.21784 0.0
H835 H 0.88565 0.56396 0.1567 0.0
H836 H 0.88945 0.57097 0.20999 0.0
H837 H 0.86328 0.53493 0.18871 0.0
C838 C 0.71887 0.86088 0.02913 0.0
C839 C 0.72367 0.85543 0.07001 0.0
C840 C 0.69153 0.87109 0.01496 0.0
C841 C 0.67005 0.87739 0.04287 0.0
C842 C 0.67226 0.86762 0.08281 0.0
C843 C 0.69922 0.85671 0.09603 0.0
C844 C 0.68622 0.87575 0.9706 0.0
C845 C 0.64829 0.87184 0.11277 0.0
C846 C 0.65118 0.95391 0.04674 0.0
C847 C 0.61881 0.94676 0.02873 0.0
C848 C 0.66873 0.93182 0.04898 0.0
C849 C 0.65274 0.90137 0.03464 0.0
C850 C 0.62014 0.89423 0.01546 0.0
C851 C 0.60375 0.91738 1.01186 0.0
C852 C 0.70384 0.94109 0.06865 0.0
C853 C 0.60232 0.86224 0.99961 0.0
H854 H 0.7373 0.8587 1.00884 0.0
H855 H 0.70279 0.85194 0.12764 0.0
H856 H 0.66741 0.85526 0.95694 0.0
H857 H 0.67653 0.89581 0.96486 0.0
H858 H 0.70928 0.87804 0.95512 0.0
H859 H 0.64786 0.85637 0.13828 0.0
H860 H 0.65602 0.89578 0.12535 0.0
H861 H 0.62279 0.86753 0.0979 0.0
H862 H 0.66278 0.97689 0.05926 0.0
H863 H 0.57863 0.91219 0.99772 0.0
H864 H 0.7199 0.92875 0.05442 0.0
H865 H 0.70343 0.93554 0.10098 0.0
H866 H 0.71533 0.96608 0.06706 0.0
H867 H 0.61189 0.85782 0.97047 0.0
H868 H 0.57513 0.85906 0.99424 0.0
H869 H 0.60676 0.84499 0.02089 0.0
C870 C 0.23222 0.75631 0.15869 0.0
C871 C 0.24194 0.75272 0.19903 0.0
C872 C 0.2026 0.73701 0.13974 0.0
C873 C 0.18165 0.71471 0.16236 0.0
C874 C 0.19153 0.71119 0.20325 0.0
C875 C 0.22185 0.72984 0.22078 0.0
C876 C 0.19362 0.74056 0.09565 0.0
C877 C 0.16957 0.68857 0.22903 0.0
C878 C 0.08948 0.68969 0.1279 0.0
C879 C 0.08552 0.65985 0.1125 0.0
C880 C 0.12061 0.70769 0.14436 0.0
C881 C 0.14871 0.69599 0.14397 0.0
C882 C 0.14497 0.66609 0.12747 0.0
C883 C 0.11329 0.64818 0.11256 0.0
C884 C 0.12315 0.73877 0.1636 0.0
C885 C 0.17423 0.65273 0.12617 0.0
H886 H 0.24791 0.77395 0.14193 0.0
H887 H 0.22927 0.72736 0.25222 0.0
H888 H 0.18815 0.71811 0.07893 0.0
H889 H 0.17084 0.74856 0.09225 0.0
H890 H 0.2138 0.7571 0.0815 0.0
H891 H 0.18046 0.68949 0.2607 0.0
H892 H 0.14495 0.69327 0.22934 0.0
H893 H 0.16532 0.66499 0.21616 0.0
H894 H 0.06794 0.69853 0.12858 0.0
H895 H 0.11026 0.62506 0.1007 0.0
H896 H 0.14077 0.75678 0.14814 0.0
H897 H 0.13303 0.73974 0.19566 0.0
H898 H 0.09879 0.74416 0.16248 0.0
H899 H 0.18139 0.64644 0.15689 0.0
H900 H 0.19605 0.66976 0.1158 0.0
H901 H 0.16842 0.63186 0.1059 0.0
C902 C 0.38161 0.91926 0.81558 0.0
C903 C 0.3864 0.8907 0.8241 0.0
C904 C 0.40454 0.946 0.83166 0.0
C905 C 0.4317 0.94351 0.85782 0.0
C906 C 0.43609 0.91445 0.867 0.0
C907 C 0.41357 0.88828 0.84921 0.0
C908 C 0.39997 0.97673 0.82046 0.0
C909 C 0.46425 0.91096 0.89595 0.0
C910 C 0.5128 1.00157 0.88401 0.0
C911 C 0.50837 1.01028 0.92337 0.0
C912 C 0.48641 0.98227 0.85999 0.0
C913 C 0.4556 0.97096 0.87659 0.0
C914 C 0.45026 0.98187 0.91501 0.0
C915 C 0.47679 1.00187 0.93785 0.0
C916 C 0.49247 0.97164 0.81856 0.0
C917 C 0.41796 0.96965 0.9341 0.0
H918 H 0.3604 0.92062 0.79571 0.0
H919 H 0.41668 0.86584 0.85567 0.0
H920 H 0.39786 0.99015 0.84797 0.0
H921 H 0.42207 0.99 0.80598 0.0
H922 H 0.37754 0.97456 0.79943 0.0
H923 H 0.46295 0.8866 0.90117 0.0
H924 H 0.48842 0.92182 0.88392 0.0
H925 H 0.46381 0.92272 0.92547 0.0
H926 H 0.53723 1.0086 0.87277 0.0
H927 H 0.47346 1.00866 0.96843 0.0
H928 H 0.47072 0.97015 0.79675 0.0
H929 H 0.49633 0.94844 0.82009 0.0
H930 H 0.51483 0.98716 0.80697 0.0
H931 H 0.39634 0.96803 0.91207 0.0
H932 H 0.41599 0.98414 0.9607 0.0
H933 H 0.41646 0.94623 0.9443 0.0
C934 C 0.14857 0.39013 0.90096 0.0
C935 C 0.15956 0.37032 0.92703 0.0
C936 C 0.13039 0.40951 0.91496 0.0
C937 C 0.12294 0.40882 0.9558 0.0
C938 C 0.13278 0.388 0.98174 0.0
C939 C 0.15113 0.36917 0.96711 0.0
C940 C 0.11952 0.43094 0.88628 0.0
C941 C 0.12408 0.38542 0.02505 0.0
C942 C 0.10958 0.47826 1.00947 0.0
C943 C 0.07546 0.46857 0.01403 0.0
C944 C 0.12526 0.45952 0.98897 0.0
C945 C 0.10615 0.43063 0.97233 0.0
C946 C 0.07147 0.42138 0.97527 0.0
C947 C 0.05655 0.44039 0.9964 0.0
C948 C 0.16222 0.4708 0.98535 0.0
C949 C 1.05021 0.39111 0.95696 0.0
H950 H 0.15449 0.39073 0.86972 0.0
H951 H 0.15982 0.35425 0.98765 0.0
H952 H 0.09248 0.42828 0.88699 0.0
H953 H 0.13251 0.45497 0.89592 0.0
H954 H 0.12493 0.42687 0.8547 0.0
H955 H 0.14042 0.3744 0.0435 0.0
H956 H 0.12561 0.40809 0.03924 0.0
H957 H 0.09816 0.37114 0.02581 0.0
H958 H 0.12418 0.50028 0.02249 0.0
H959 H 1.03001 0.43307 0.99917 0.0
H960 H 0.16658 0.47997 0.95498 0.0
H961 H 0.17449 0.45209 0.98871 0.0
H962 H 0.17438 0.48946 1.00816 0.0
H963 H 0.05691 0.38722 0.92596 0.0
H964 H 1.02331 0.38981 0.95566 0.0
H965 H 0.05455 0.37229 0.97537 0.0
C966 C 0.70971 0.23493 0.8319 0.0
C967 C 0.74189 0.24818 0.8502 0.0
C968 C 0.68599 0.21261 0.85109 0.0
C969 C 0.6941 0.20311 0.89005 0.0
C970 C 0.72662 0.21622 0.90861 0.0
C971 C 0.75002 0.23831 0.88851 0.0
C972 C 0.65192 0.19945 0.82973 0.0
C973 C 0.73655 0.20738 0.95021 0.0
C974 C 0.62044 0.17254 0.95378 0.0
C975 C 0.61513 0.14057 0.95062 0.0
C976 C 0.64647 0.19284 0.93554 0.0
C977 C 0.66783 0.18127 0.91232 0.0
C978 C 0.66303 0.14898 0.90946 0.0
C979 C 0.63708 0.12907 0.92901 0.0
C980 C 0.65069 0.22684 0.94064 0.0
C981 C 0.68469 0.13539 0.88466 0.0
H982 H 0.70294 0.24197 0.80226 0.0
H983 H 0.77467 0.24812 0.90314 0.0
H984 H 0.64563 0.17408 0.82837 0.0
H985 H 0.63305 0.20614 0.8469 0.0
H986 H 0.65007 0.20744 0.79851 0.0
H987 H 0.76306 0.21846 0.95991 0.0
H988 H 0.72096 0.21407 0.97244 0.0
H989 H 0.73215 0.18221 0.95093 0.0
H990 H 0.60395 0.18183 0.97072 0.0
H991 H 0.63322 0.10452 0.92609 0.0
H992 H 0.64601 0.23626 0.91095 0.0
H993 H 0.67657 0.23867 0.95218 0.0
H994 H 0.63353 0.23235 0.96175 0.0
H995 H 0.68121 0.14088 0.85254 0.0
H996 H 0.67892 0.11014 0.88663 0.0
H997 H 0.71125 0.14561 0.89483 0.0
C998 C 0.87194 0.79067 0.06086 0.0
C999 C 0.85564 0.79194 0.02296 0.0
C1000 C 0.87822 0.76325 0.07306 0.0
C1001 C 0.86782 0.7369 0.04643 0.0
C1002 C 0.84641 0.73709 1.01153 0.0
C1003 C 0.84005 0.76462 1.0008 0.0
C1004 C 0.90031 0.76442 0.11131 0.0
C1005 C 0.8349 0.70992 0.98167 0.0
C1006 C 0.93686 0.70061 0.02936 0.0
C1007 C 0.92194 0.67005 0.03606 0.0
C1008 C 0.91952 0.72259 0.03336 0.0
C1009 C 0.88709 0.71393 0.04711 0.0
C1010 C 0.87242 0.68289 0.0554 0.0
C1011 C 0.89003 0.66121 0.04924 0.0
C1012 C 0.93558 0.75462 0.02058 0.0
C1013 C 0.8379 0.67158 0.06911 0.0
H1014 H 0.88359 0.81177 0.07835 0.0
H1015 H 0.82758 0.76557 0.97139 0.0
H1016 H 0.90621 0.74247 0.11715 0.0
H1017 H 0.92392 0.78258 0.1099 0.0
H1018 H 0.88806 0.77095 0.13729 0.0
H1019 H 0.82243 0.71544 0.95331 0.0
H1020 H 0.85612 0.70139 0.97344 0.0
H1021 H 0.81703 0.69106 0.99539 0.0
H1022 H 0.96172 0.70711 0.01923 0.0
H1023 H 0.87893 0.63738 0.05507 0.0
H1024 H 0.94488 0.76998 0.04773 0.0
H1025 H 0.91759 0.76386 1.00224 0.0
H1026 H 0.95704 0.75539 1.0025 0.0
H1027 H 0.83891 0.65913 0.09737 0.0
H1028 H 0.82218 0.65464 0.04622 0.0
H1029 H 0.82578 0.69008 0.07418 0.0
C1030 C 0.18698 0.39874 0.11312 0.0
C1031 C 0.17902 0.37465 0.13923 0.0
C1032 C 0.17099 0.42199 0.11394 0.0
C1033 C 0.14708 0.42111 0.14219 0.0
C1034 C 0.1396 0.39718 0.16933 0.0
C1035 C 0.15539 0.3739 0.16712 0.0
C1036 C 0.18034 0.44746 0.08494 0.0
C1037 C 0.11522 0.39634 0.20088 0.0
C1038 C 0.12779 0.49647 0.15899 0.0
C1039 C 0.09598 0.49045 0.13909 0.0
C1040 C 0.14419 0.47352 0.16191 0.0
C1041 C 0.12897 0.44458 0.14257 0.0
C1042 C 0.09647 0.43816 0.1234 0.0
C1043 C 0.08002 0.461 0.12306 0.0
C1044 C 0.17776 0.48047 0.18541 0.0
C1045 C 0.07843 0.40764 0.10264 0.0
H1046 H 0.2058 0.39941 0.09217 0.0
H1047 H 0.1502 0.3557 0.18827 0.0
H1048 H 0.15938 0.45722 0.07628 0.0
H1049 H 0.20116 0.46604 0.09933 0.0
H1050 H 0.18909 0.43928 0.05714 0.0
H1051 H 0.11631 0.37902 0.22366 0.0
H1052 H 0.12013 0.4191 0.21672 0.0
H1053 H 0.08963 0.39063 0.18602 0.0
H1054 H 0.1399 0.51907 0.17236 0.0
H1055 H 0.05491 0.45581 0.10908 0.0
H1056 H 0.19753 0.48601 0.16421 0.0
H1057 H 0.18062 0.46048 0.20252 0.0
H1058 H 0.18171 0.50042 0.20697 0.0
H1059 H 0.07049 0.41119 0.07094 0.0
H1060 H 0.05546 0.39759 0.11774 0.0
H1061 H 0.09325 0.39081 0.10239 0.0
C1062 C 0.1979 0.67414 0.90491 0.0
C1063 C 0.21198 0.69175 0.94027 0.0
C1064 C 0.1675 0.65189 0.90475 0.0
C1065 C 0.15132 0.64743 0.94076 0.0
C1066 C 0.16785 0.66194 0.97761 0.0
C1067 C 0.19822 0.68407 0.97689 0.0
C1068 C 0.15091 0.63626 0.86516 0.0
C1069 C 0.15163 0.65722 0.01692 0.0
C1070 C 0.06123 0.64215 0.94642 0.0
C1071 C 1.0506 0.61321 0.96198 0.0
C1072 C 0.09365 0.65265 0.93503 0.0
C1073 C 0.11521 0.63337 0.93906 0.0
C1074 C 0.10286 0.60261 0.94913 0.0
C1075 C 0.07044 0.59282 0.96054 0.0
C1076 C 0.10598 0.68563 0.92394 0.0
C1077 C 0.12486 0.58125 0.95304 0.0
H1078 H 0.20856 0.68002 0.87642 0.0
H1079 H 0.20951 0.69746 1.00423 0.0
H1080 H 0.13689 0.61223 0.86939 0.0
H1081 H 0.13294 0.64842 0.85274 0.0
H1082 H 0.16925 0.63651 0.84258 0.0
H1083 H 0.1698 0.66642 0.0431 0.0
H1084 H 0.13181 0.66924 0.01683 0.0
H1085 H 0.14001 0.6326 0.02094 0.0
H1086 H 1.04576 0.65779 0.94765 0.0
H1087 H 0.06178 0.57019 0.97226 0.0
H1088 H 0.12072 0.68747 0.89729 0.0
H1089 H 0.12244 0.69903 0.94949 0.0
H1090 H 0.08526 0.69618 0.9172 0.0
H1091 H 0.1429 0.58509 0.9296 0.0
H1092 H 0.11003 0.5569 0.95078 0.0
H1093 H 0.1392 0.58554 0.98299 0.0
C1094 C 0.39937 0.24828 0.852 0.0
C1095 C 0.36812 0.25001 0.8631 0.0
C1096 C 0.41863 0.23231 0.87482 0.0
C1097 C 0.40677 0.21742 0.91009 0.0
C1098 C 0.37549 0.21947 0.92186 0.0
C1099 C 0.35666 0.23557 0.89838 0.0
C1100 C 0.45156 0.23087 0.86057 0.0
C1101 C 0.36159 0.20417 0.95905 0.0
C1102 C 0.43779 0.14772 0.93788 0.0
C1103 C 0.4633 0.15921 0.96887 0.0
C1104 C 0.41917 0.16616 0.91945 0.0
C1105 C 0.42554 0.19734 0.93202 0.0
C1106 C 0.45048 0.20907 0.96417 0.0
C1107 C 0.46904 0.18999 0.98212 0.0
C1108 C 0.39307 0.15225 0.88555 0.0
C1109 C 0.45803 0.24202 0.97905 0.0
H1110 H 0.40889 0.25936 0.82512 0.0
H1111 H 0.33285 0.23684 0.9078 0.0
H1112 H 0.47147 0.2385 0.88543 0.0
H1113 H 0.45043 0.20687 0.85176 0.0
H1114 H 0.45847 0.24527 0.8343 0.0
H1115 H 0.33813 0.20947 0.96585 0.0
H1116 H 0.35668 0.179 0.95479 0.0
H1117 H 0.37995 0.21151 0.98557 0.0
H1118 H 0.43254 0.12407 0.92716 0.0
H1119 H 0.48843 0.19936 1.00592 0.0
H1120 H 0.39973 0.16407 0.85724 0.0
H1121 H 0.3687 0.1554 0.89256 0.0
H1122 H 0.39024 0.12743 0.88004 0.0
H1123 H 0.46742 0.25727 0.95441 0.0
H1124 H 0.47682 0.24744 1.00541 0.0
H1125 H 0.43501 0.24722 0.98774 0.0
C1126 C 0.83312 0.39288 0.9038 0.0
C1127 C 0.85196 0.38139 0.87743 0.0
C1128 C 0.84877 0.41545 0.93418 0.0
C1129 C 0.88392 0.4269 0.93776 0.0
C1130 C 0.90278 0.41582 0.91046 0.0
C1131 C 0.88664 0.39332 0.88086 0.0
C1132 C 0.82771 0.42608 0.96317 0.0
C1133 C 0.94024 0.42737 0.91289 0.0
C1134 C 0.93185 0.50378 0.98708 0.0
C1135 C 0.94597 0.49507 0.02295 0.0
C1136 C 0.91 0.48205 0.96014 0.0
C1137 C 0.90165 0.45073 0.96938 0.0
C1138 C 0.91432 0.442 1.00661 0.0
C1139 C 0.93639 0.46424 0.0329 0.0
C1140 C 0.8982 0.49269 0.92044 0.0
C1141 C 0.90554 0.40897 0.01797 0.0
H1142 H 0.80636 0.38363 0.90152 0.0
H1143 H 0.90144 0.38489 0.86029 0.0
H1144 H 0.82721 0.41289 0.99093 0.0
H1145 H 0.83805 0.45067 0.97218 0.0
H1146 H 0.80173 0.42222 0.94998 0.0
H1147 H 0.95124 0.41632 0.88938 0.0
H1148 H 0.9478 0.45247 0.90931 0.0
H1149 H 0.9509 0.42298 0.94299 0.0
H1150 H 0.93896 0.52752 0.97898 0.0
H1151 H 0.94669 0.45736 0.06088 0.0
H1152 H 0.87443 0.47717 0.90726 0.0
H1153 H 0.91717 0.49345 0.89858 0.0
H1154 H 0.89516 0.51615 0.92406 0.0
H1155 H 0.87853 0.40098 0.02161 0.0
H1156 H 0.91938 0.40562 0.04648 0.0
H1157 H 0.91104 0.39434 0.99366 0.0
C1158 C 0.73132 0.85847 0.84182 0.0
C1159 C 0.7654 0.86892 0.83441 0.0
C1160 C 0.71289 0.8774 0.8604 0.0
C1161 C 0.7273 0.90949 0.8716 0.0
C1162 C 0.76155 0.92032 0.86256 0.0
C1163 C 0.77974 0.90034 0.84599 0.0
C1164 C 0.67748 0.86167 0.86784 0.0
C1165 C 0.77987 0.9537 0.86905 0.0
C1166 C 0.65921 0.9558 0.88869 0.0
C1167 C 0.66731 0.97063 0.92778 0.0
C1168 C 0.67822 0.93743 0.87041 0.0
C1169 C 0.70697 0.93123 0.89115 0.0
C1170 C 0.7156 0.94657 0.93076 0.0
C1171 C 0.69634 0.9655 0.94788 0.0
C1172 C 0.6669 0.92523 0.82768 0.0
C1173 C 0.74528 0.9432 0.95671 0.0
H1174 H 0.71874 0.83469 0.83396 0.0
H1175 H 0.80562 0.91001 0.84088 0.0
H1176 H 0.66582 0.87572 0.88652 0.0
H1177 H 0.66256 0.85554 0.83838 0.0
H1178 H 0.67638 0.83989 0.88299 0.0
H1179 H 0.7959 0.96135 0.844 0.0
H1180 H 0.76297 0.96863 0.87108 0.0
H1181 H 0.79649 0.95686 0.89727 0.0
H1182 H 0.63749 0.9588 0.87133 0.0
H1183 H 0.70415 0.97606 0.97782 0.0
H1184 H 0.64549 0.90467 0.82815 0.0
H1185 H 0.68675 0.91911 0.81182 0.0
H1186 H 0.65808 0.94237 0.80992 0.0
H1187 H 0.73916 0.94005 0.98852 0.0
H1188 H 0.7656 0.96465 0.95641 0.0
H1189 H 0.75444 0.92376 0.94661 0.0
C1190 C 0.86807 0.74216 0.28225 0.0
C1191 C 0.84506 0.75242 0.25768 0.0
C1192 C 0.88458 0.72208 0.26619 0.0
C1193 C 0.87823 0.71294 0.22472 0.0
C1194 C 0.8529 0.72125 0.20098 0.0
C1195 C 0.83647 0.74069 0.21791 0.0
C1196 C 0.90949 0.71151 0.29313 0.0
C1197 C 0.84304 0.7104 0.15748 0.0
C1198 C 0.94947 0.70359 0.16755 0.0
C1199 C 0.93871 0.67252 0.15579 0.0
C1200 C 0.93057 0.71686 0.19151 0.0
C1201 C 0.90063 0.69828 0.20475 0.0
C1202 C 0.89039 0.6666 0.19436 0.0
C1203 C 0.90939 0.65414 0.16952 0.0
C1204 C 0.94258 0.75088 0.20171 0.0
C1205 C 0.85876 0.64599 0.2079 0.0
H1206 H 0.8741 0.75063 0.31341 0.0
H1207 H 0.81757 0.74753 0.19928 0.0
H1208 H 0.90759 0.68702 0.28626 0.0
H1209 H 0.93496 0.72496 0.28776 0.0
H1210 H 0.9059 0.71459 0.32561 0.0
H1211 H 0.83467 0.72785 0.13984 0.0
H1212 H 0.86339 0.70465 0.14248 0.0
H1213 H 0.82173 0.68965 0.1564 0.0
H1214 H 0.97229 0.71778 0.15724 0.0
H1215 H 0.90115 0.62996 0.16081 0.0
H1216 H 0.95554 0.75468 0.23244 0.0
H1217 H 0.92176 0.76164 0.2014 0.0
H1218 H 0.96041 0.76286 0.18035 0.0
H1219 H 0.85357 0.65338 0.23823 0.0
H1220 H 0.85988 0.62183 0.20871 0.0
H1221 H 0.83769 0.64676 0.18612 0.0
C1222 C 0.36573 0.90008 0.18995 0.0
C1223 C 0.37517 0.87444 0.20477 0.0
C1224 C 0.38729 0.92327 0.16854 0.0
C1225 C 0.41998 0.92179 0.16148 0.0
C1226 C 0.42978 0.89613 0.17673 0.0
C1227 C 0.4076 0.8731 0.19766 0.0
C1228 C 0.37482 0.94944 0.15305 0.0
C1229 C 0.46403 0.89292 0.1709 0.0
C1230 C 0.46576 0.962 0.07122 0.0
C1231 C 0.48913 0.9885 0.08878 0.0
C1232 C 0.44302 0.94114 0.09394 0.0
C1233 C 0.44307 0.94581 0.13643 0.0
C1234 C 0.46595 0.973 0.15441 0.0
C1235 C 0.48836 0.99385 0.13067 0.0
C1236 C 0.41944 0.91335 0.07225 0.0
C1237 C 0.46767 0.97955 0.19928 0.0
H1238 H 0.34114 0.90208 0.19494 0.0
H1239 H 0.41596 0.85398 0.20886 0.0
H1240 H 0.39151 0.97151 0.16562 0.0
H1241 H 0.37514 0.94975 0.11969 0.0
H1242 H 0.34918 0.94788 0.16107 0.0
H1243 H 0.46881 0.8727 0.18581 0.0
H1244 H 0.46711 0.89073 0.13819 0.0
H1245 H 0.48307 0.91376 0.18327 0.0
H1246 H 0.46574 0.95704 0.03914 0.0
H1247 H 0.50635 1.01357 0.14537 0.0
H1248 H 0.39361 0.91148 0.07962 0.0
H1249 H 0.4258 0.8924 0.08252 0.0
H1250 H 0.42032 0.91399 0.03893 0.0
H1251 H 0.44262 0.97866 0.20876 0.0
H1252 H 0.4848 1.00227 0.20871 0.0
H1253 H 0.47634 0.96167 0.21551 0.0
C1254 C 0.71848 0.22936 0.25053 0.0
C1255 C 0.74738 0.24479 0.23282 0.0
C1256 C 0.69228 0.20798 0.22772 0.0
C1257 C 0.69495 0.20185 0.18617 0.0
C1258 C 0.72439 0.21678 0.16851 0.0
C1259 C 0.75009 0.23786 0.19192 0.0
C1260 C 0.66133 0.19259 0.24777 0.0
C1261 C 0.72843 0.2112 0.1244 0.0
C1262 C 0.63845 0.13108 0.12775 0.0
C1263 C 0.61508 0.14332 0.10659 0.0
C1264 C 0.66406 0.14962 0.15447 0.0
C1265 C 0.6665 0.18122 0.16032 0.0
C1266 C 0.64283 0.19362 0.13935 0.0
C1267 C 0.61756 0.17464 0.11289 0.0
C1268 C 0.68884 0.13547 0.17602 0.0
C1269 C 0.64447 0.22716 0.14432 0.0
H1270 H 0.71596 0.23448 0.28197 0.0
H1271 H 0.77221 0.24941 0.17767 0.0
H1272 H 0.64005 0.20021 0.23432 0.0
H1273 H 0.65518 0.16741 0.24242 0.0
H1274 H 0.66403 0.19789 0.28086 0.0
H1275 H 0.75352 0.22333 0.11573 0.0
H1276 H 0.72403 0.18636 0.11737 0.0
H1277 H 0.70972 0.21906 0.10538 0.0
H1278 H 0.63686 0.10699 0.12337 0.0
H1279 H 0.59973 0.18455 0.09701 0.0
H1280 H 0.68991 0.14011 0.20908 0.0
H1281 H 0.714 0.14599 0.16631 0.0
H1282 H 0.68266 0.11034 0.16989 0.0
H1283 H 0.64449 0.23365 0.17671 0.0
H1284 H 0.62334 0.23301 0.12733 0.0
H1285 H 0.66795 0.24123 0.13351 0.0
C1286 C 0.73407 0.71875 0.83564 0.0
C1287 C 0.76248 0.73994 0.85452 0.0
C1288 C 0.71155 0.6976 0.85778 0.0
C1289 C 0.7171 0.69705 0.90036 0.0
C1290 C 0.7458 0.71813 0.91973 0.0
C1291 C 0.76816 0.73904 0.89674 0.0
C1292 C 0.68089 0.6766 0.83558 0.0
C1293 C 0.75258 0.71883 0.96501 0.0
C1294 C 0.63941 0.66932 0.95801 0.0
C1295 C 0.6375 0.6383 0.96426 0.0
C1296 C 0.66534 0.68848 0.93845 0.0
C1297 C 0.69096 0.67691 0.92464 0.0
C1298 C 0.69037 0.64605 0.93269 0.0
C1299 C 0.66369 0.6271 0.9523 0.0
C1300 C 0.66456 0.72105 0.93133 0.0
C1301 C 0.71747 0.63281 0.91957 0.0
H1302 H 0.72895 0.71892 0.80323 0.0
H1303 H 0.78973 0.75514 0.91199 0.0
H1304 H 0.67904 0.65247 0.84267 0.0
H1305 H 0.65843 0.68208 0.84574 0.0
H1306 H 0.68076 0.67865 0.80232 0.0
H1307 H 0.77175 0.73977 0.97652 0.0
H1308 H 0.72979 0.71776 0.98051 0.0
H1309 H 0.76094 0.69846 0.97347 0.0
H1310 H 0.61975 0.6786 0.96752 0.0
H1311 H 0.66267 0.60329 0.95669 0.0
H1312 H 0.66251 0.72457 0.8984 0.0
H1313 H 0.68798 0.73728 0.94433 0.0
H1314 H 0.64345 0.72689 0.94484 0.0
H1315 H 0.71701 0.63213 0.88612 0.0
H1316 H 0.71476 0.60928 0.93008 0.0
H1317 H 0.74209 0.64764 0.93148 0.0
C1318 C 0.37039 0.74065 0.87501 0.0
C1319 C 0.37919 0.75448 0.83817 0.0
C1320 C 0.38838 0.72163 0.89523 0.0
C1321 C 0.41719 0.71591 0.87954 0.0
C1322 C 0.4266 0.73044 0.84277 0.0
C1323 C 0.40759 0.7487 0.82262 0.0
C1324 C 0.37522 0.70682 0.93295 0.0
C1325 C 0.45734 0.72697 0.82456 0.0
C1326 C 0.48022 0.68517 0.95102 0.0
C1327 C 0.4743 0.65407 0.93824 0.0
C1328 C 0.46238 0.70518 0.93254 0.0
C1329 C 0.43679 0.69449 0.90044 0.0
C1330 C 0.43035 0.66297 0.88817 0.0
C1331 C 0.4491 0.64377 0.90632 0.0
C1332 C 0.47125 0.73819 0.94732 0.0
C1333 C 0.40287 0.64907 0.85598 0.0
H1334 H 0.34866 0.74414 0.888 0.0
H1335 H 0.41549 0.75899 0.79464 0.0
H1336 H 0.35819 0.68392 0.92444 0.0
H1337 H 0.39539 0.70383 0.95446 0.0
H1338 H 0.36091 0.72037 0.94849 0.0
H1339 H 0.46372 0.74192 0.79869 0.0
H1340 H 0.47874 0.73258 0.84777 0.0
H1341 H 0.45355 0.70287 0.81387 0.0
H1342 H 0.49948 0.69425 0.97506 0.0
H1343 H 0.44359 0.62011 0.89552 0.0
H1344 H 0.44913 0.74367 0.95855 0.0
H1345 H 0.47902 0.75322 0.92189 0.0
H1346 H 0.49157 0.74356 0.97195 0.0
H1347 H 0.37932 0.65342 0.8643 0.0
H1348 H 0.39893 0.624 0.85143 0.0
H1349 H 0.40874 0.65997 0.82691 0.0
C1350 C 0.42091 0.39186 0.83844 0.0
C1351 C 0.39221 0.37781 0.85734 0.0
C1352 C 0.44849 0.41192 0.86044 0.0
C1353 C 0.44706 0.41848 0.9021 0.0
C1354 C 0.41784 0.40484 0.92104 0.0
C1355 C 0.39095 0.38452 0.89855 0.0
C1356 C 0.47934 0.42573 0.83929 0.0
C1357 C 0.41496 0.41172 0.96512 0.0
C1358 C 0.52631 0.45012 0.97123 0.0
C1359 C 0.52879 0.48158 0.97265 0.0
C1360 C 0.50021 0.42935 0.94777 0.0
C1361 C 0.4757 0.44022 0.9258 0.0
C1362 C 0.47798 0.47187 0.9274 0.0
C1363 C 0.50455 0.49211 0.95045 0.0
C1364 C 0.49883 0.39578 0.94648 0.0
C1365 C 0.45209 0.48439 0.90514 0.0
H1366 H 0.42219 0.38652 0.80674 0.0
H1367 H 0.3688 0.37383 0.91333 0.0
H1368 H 0.48496 0.45105 0.84097 0.0
H1369 H 0.50092 0.41961 0.85467 0.0
H1370 H 0.47676 0.41785 0.80702 0.0
H1371 H 0.39037 0.39952 0.97519 0.0
H1372 H 0.43453 0.40502 0.98408 0.0
H1373 H 0.41886 0.43667 0.97064 0.0
H1374 H 0.54494 0.44175 0.9881 0.0
H1375 H 0.50611 0.51631 0.95124 0.0
H1376 H 0.49809 0.38734 0.91473 0.0
H1377 H 0.47578 0.38244 0.95899 0.0
H1378 H 0.52046 0.39114 0.96391 0.0
H1379 H 0.45071 0.47865 0.87232 0.0
H1380 H 0.45742 0.50962 0.90959 0.0
H1381 H 0.42728 0.47365 0.91566 0.0
C1382 C 0.78323 0.47654 0.85786 0.0
C1383 C 0.76056 0.47323 0.82363 0.0
C1384 C 0.77891 0.49221 0.89299 0.0
C1385 C 0.75085 0.50364 0.89397 0.0
C1386 C 0.73136 0.50478 0.85771 0.0
C1387 C 0.73682 0.48984 0.82264 0.0
C1388 C 0.80144 0.49275 0.93064 0.0
C1389 C 0.70151 0.51741 0.85724 0.0
C1390 C 0.69348 0.47979 0.97578 0.0
C1391 C 0.69333 0.50819 0.99271 0.0
C1392 C 0.71439 0.47785 0.94565 0.0
C1393 C 0.73597 0.50507 0.93273 0.0
C1394 C 0.73894 0.53336 0.95343 0.0
C1395 C 0.7173 0.53464 0.98329 0.0
C1396 C 0.71088 0.44693 0.92509 0.0
C1397 C 0.76278 0.56261 0.94192 0.0
H1398 H 0.80214 0.46427 0.85891 0.0
H1399 H 0.72014 0.48838 0.79571 0.0
H1400 H 0.80651 0.51501 0.94774 0.0
H1401 H 0.78916 0.47466 0.95065 0.0
H1402 H 0.82533 0.48874 0.92337 0.0
H1403 H 0.69229 0.52096 0.82602 0.0
H1404 H 0.68118 0.50107 0.87137 0.0
H1405 H 0.70748 0.53946 0.87492 0.0
H1406 H 0.67543 0.45927 0.98389 0.0
H1407 H 0.7174 0.55666 0.99673 0.0
H1408 H 0.73536 0.44195 0.92546 0.0
H1409 H 0.70135 0.44694 0.89304 0.0
H1410 H 0.69362 0.42806 0.9398 0.0
H1411 H 0.78576 0.55842 0.93144 0.0
H1412 H 0.76955 0.57972 0.9677 0.0
H1413 H 0.75085 0.57266 0.91689 0.0
C1414 C 0.73137 0.37493 0.239 0.0
C1415 C 0.76295 0.37449 0.22684 0.0
C1416 C 0.71173 0.39312 0.22008 0.0
C1417 C 0.72348 0.41269 0.18811 0.0
C1418 C 0.75512 0.41204 0.17546 0.0
C1419 C 0.77363 0.39295 0.19421 0.0
C1420 C 0.67802 0.39126 0.23448 0.0
C1421 C 0.77046 0.43239 0.14279 0.0
C1422 C 0.66307 0.44556 0.11623 0.0
C1423 C 0.66558 0.47488 0.13375 0.0
C1424 C 0.6812 0.42538 0.13331 0.0
C1425 C 0.70336 0.43412 0.16903 0.0
C1426 C 0.70638 0.46388 0.18627 0.0
C1427 C 0.68765 0.48333 0.16903 0.0
C1428 C 0.67654 0.39438 0.11293 0.0
C1429 C 0.72993 0.47551 0.22319 0.0
H1430 H 0.72168 0.36084 0.26357 0.0
H1431 H 0.79679 0.39248 0.18311 0.0
H1432 H 0.67781 0.41375 0.24801 0.0
H1433 H 0.6589 0.3858 0.20851 0.0
H1434 H 0.671 0.37364 0.25728 0.0
H1435 H 0.78884 0.42322 0.12788 0.0
H1436 H 0.75149 0.43537 0.11937 0.0
H1437 H 0.78358 0.45533 0.15662 0.0
H1438 H 0.64649 0.43806 0.08922 0.0
H1439 H 0.69056 0.50563 0.18347 0.0
H1440 H 0.66818 0.37624 0.13469 0.0
H1441 H 0.70061 0.39234 0.10307 0.0
H1442 H 0.65813 0.39021 0.08622 0.0
H1443 H 0.72253 0.46041 0.24861 0.0
H1444 H 0.73053 0.49926 0.23278 0.0
H1445 H 0.7554 0.4749 0.21695 0.0
C1446 C 0.69737 0.74012 0.24649 0.0
C1447 C 0.71764 0.76527 0.22839 0.0
C1448 C 0.67225 0.71798 0.22361 0.0
C1449 C 0.66753 0.72057 0.18132 0.0
C1450 C 0.68728 0.74638 0.163 0.0
C1451 C 0.71172 0.76853 0.18685 0.0
C1452 C 0.65132 0.69132 0.24463 0.0
C1453 C 0.68381 0.75082 0.11814 0.0
C1454 C 0.63047 0.64664 0.11804 0.0
C1455 C 0.59773 0.6479 0.10806 0.0
C1456 C 0.65334 0.67016 0.14155 0.0
C1457 C 0.64323 0.69546 0.15629 0.0
C1458 C 0.61026 0.69692 0.14642 0.0
C1459 C 0.58797 0.67326 0.12221 0.0
C1460 C 0.68863 0.66831 0.14979 0.0
C1461 C 0.59873 0.72372 0.16104 0.0
H1462 H 0.70143 0.73741 0.27862 0.0
H1463 H 0.72699 0.78787 0.17252 0.0
H1464 H 0.62456 0.68891 0.23664 0.0
H1465 H 0.65657 0.66981 0.23434 0.0
H1466 H 0.65617 0.69392 0.27801 0.0
H1467 H 0.70833 0.75402 0.10574 0.0
H1468 H 0.66575 0.73157 0.10083 0.0
H1469 H 0.67603 0.77205 0.11296 0.0
H1470 H 0.63854 0.62746 0.10677 0.0
H1471 H 0.56282 0.67456 0.11458 0.0
H1472 H 0.69513 0.66889 0.18282 0.0
H1473 H 0.70594 0.68847 0.13758 0.0
H1474 H 0.69263 0.64719 0.13603 0.0
H1475 H 0.60322 0.72676 0.19441 0.0
H1476 H 0.57193 0.72085 0.15249 0.0
H1477 H 0.61332 0.74496 0.14803 0.0
C1478 C 0.39245 0.70955 0.06931 0.0
C1479 C 0.36474 0.70701 0.09113 0.0
C1480 C 0.39373 0.68561 0.043 0.0
C1481 C 0.36628 0.65909 0.03863 0.0
C1482 C 0.33556 0.66049 0.05214 0.0
C1483 C 0.3352 0.68444 0.07934 0.0
C1484 C 0.42689 0.68621 0.02767 0.0
C1485 C 0.30473 0.63431 0.04397 0.0
C1486 C 0.40785 0.6036 1.00086 0.0
C1487 C 0.42507 0.60071 0.03762 0.0
C1488 C 0.38193 0.61774 1.0003 0.0
C1489 C 0.37427 0.62927 0.03717 0.0
C1490 C 0.38654 0.61971 0.07421 0.0
C1491 C 0.41251 0.60597 0.07391 0.0
C1492 C 0.36699 0.62465 0.96027 0.0
C1493 C 0.3772 0.62903 0.11467 0.0
H1494 H 0.41476 0.72793 0.07731 0.0
H1495 H 0.31315 0.68314 0.09511 0.0
H1496 H 0.44045 0.67437 0.04887 0.0
H1497 H 0.42372 0.67437 0.99763 0.0
H1498 H 0.4425 0.71003 0.02547 0.0
H1499 H 0.28238 0.64302 0.04063 0.0
H1500 H 0.30586 0.62057 0.01632 0.0
H1501 H 0.3019 0.61908 0.06987 0.0
H1502 H 0.41714 0.59851 0.97264 0.0
H1503 H 0.42535 0.6025 0.10221 0.0
H1504 H 0.34334 0.63077 0.9632 0.0
H1505 H 0.36257 0.60471 0.93861 0.0
H1506 H 0.38474 0.64405 0.94741 0.0
H1507 H 0.38977 0.65355 0.12173 0.0
H1508 H 0.38487 0.61567 0.13939 0.0
H1509 H 0.35006 0.62574 0.11436 0.0
C1510 C 0.41503 0.40698 0.23986 0.0
C1511 C 0.38245 0.392 0.22404 0.0
C1512 C 0.4374 0.42817 0.2175 0.0
C1513 C 0.42745 0.43504 0.17781 0.0
C1514 C 0.3944 0.4205 0.16189 0.0
C1515 C 0.37245 0.39935 0.185 0.0
C1516 C 0.47217 0.44264 0.23614 0.0
C1517 C 0.38246 0.42669 0.11983 0.0
C1518 C 0.4829 0.50707 0.13215 0.0
C1519 C 0.50411 0.49468 0.11039 0.0
C1520 C 0.45723 0.48804 0.15311 0.0
C1521 C 0.45233 0.45571 0.15234 0.0
C1522 C 0.47284 0.44319 0.12881 0.0
C1523 C 0.49831 0.46265 0.1086 0.0
C1524 C 0.43639 0.5027 0.1778 0.0
C1525 C 0.46904 0.40917 0.12651 0.0
H1526 H 0.42346 0.40175 0.26978 0.0
H1527 H 0.34759 0.38806 0.172 0.0
H1528 H 0.49034 0.43532 0.21839 0.0
H1529 H 0.47797 0.46793 0.23531 0.0
H1530 H 0.47571 0.43633 0.26794 0.0
H1531 H 0.35572 0.41505 0.11238 0.0
H1532 H 0.3865 0.45166 0.11657 0.0
H1533 H 0.39705 0.41869 0.09747 0.0
H1534 H 0.48752 0.53172 0.13468 0.0
H1535 H 0.51474 0.45278 0.09236 0.0
H1536 H 0.44232 0.50001 0.21038 0.0
H1537 H 0.40963 0.49113 0.17072 0.0
H1538 H 0.44081 0.52747 0.17243 0.0
H1539 H 0.47606 0.40161 0.1566 0.0
H1540 H 0.48482 0.4027 0.10428 0.0
H1541 H 0.44278 0.39652 0.11804 0.0
C1542 C 0.86932 0.71908 0.70915 0.0
C1543 C 0.88489 0.74676 0.73208 0.0
C1544 C 0.88709 0.69867 0.69272 0.0
C1545 C 0.92286 0.70553 0.69622 0.0
C1546 C 0.93872 0.73401 0.71852 0.0
C1547 C 0.92013 0.75313 0.73641 0.0
C1548 C 0.86639 0.66921 0.67189 0.0
C1549 C 0.97603 0.74542 0.72362 0.0
C1550 C 0.98172 0.64905 0.68506 0.0
C1551 C 0.98245 0.64282 0.64291 0.0
C1552 C 0.9625 0.66779 0.70212 0.0
C1553 C 0.94317 0.68347 0.67752 0.0
C1554 C 0.94396 0.67754 0.63473 0.0
C1555 C 0.96249 0.65752 0.61848 0.0
C1556 C 0.9632 0.67011 0.74751 0.0
C1557 C 0.9253 0.69259 0.60496 0.0
H1558 H 0.84245 0.71262 0.70464 0.0
H1559 H 0.93378 0.77397 0.75322 0.0
H1560 H 0.85769 0.67402 0.64102 0.0
H1561 H 0.88019 0.65162 0.6697 0.0
H1562 H 0.84392 0.65963 0.68817 0.0
H1563 H 0.98482 0.74028 0.75428 0.0
H1564 H 0.98825 0.73492 0.70092 0.0
H1565 H 0.98411 0.77067 0.72132 0.0
H1566 H 0.99623 0.63864 0.70574 0.0
H1567 H 0.96196 0.65415 0.58606 0.0
H1568 H 0.9417 0.67707 0.75808 0.0
H1569 H 0.98645 0.68706 0.75955 0.0
H1570 H 0.96344 0.64784 0.76053 0.0
H1571 H 0.90118 0.67614 0.59477 0.0
H1572 H 0.93926 0.69875 0.57803 0.0
H1573 H 0.92057 0.71361 0.61784 0.0
C1574 C 0.50429 0.82456 0.5981 0.0
C1575 C 0.47785 0.83173 0.57555 0.0
C1576 C 0.53637 0.84457 0.60003 0.0
C1577 C 0.54118 0.87258 0.58068 0.0
C1578 C 0.51635 0.87662 0.5517 0.0
C1579 C 0.48522 0.85526 0.54836 0.0
C1580 C 0.56358 0.8378 0.62734 0.0
C1581 C 0.52053 0.90583 0.52927 0.0
C1582 C 0.56602 0.94786 0.63533 0.0
C1583 C 0.58702 0.96419 0.60789 0.0
C1584 C 0.55432 0.91605 0.63105 0.0
C1585 C 0.56515 0.90049 0.59942 0.0
C1586 C 0.59205 0.91636 0.57809 0.0
C1587 C 0.60258 0.9484 0.58221 0.0
C1588 C 0.52602 0.90028 0.65544 0.0
C1589 C 0.60655 0.90033 0.54689 0.0
H1590 H 0.49953 0.80567 0.61817 0.0
H1591 H 0.46524 0.85986 0.52925 0.0
H1592 H 0.58854 0.85072 0.61915 0.0
H1593 H 0.56094 0.84418 0.65909 0.0
H1594 H 0.5617 0.81292 0.62577 0.0
H1595 H 0.49768 0.90612 0.51071 0.0
H1596 H 0.52662 0.92604 0.55065 0.0
H1597 H 0.54104 0.9085 0.50925 0.0
H1598 H 0.55525 0.96008 0.65664 0.0
H1599 H 0.62014 0.96087 0.56208 0.0
H1600 H 0.53051 0.8794 0.66844 0.0
H1601 H 0.50255 0.89338 0.63559 0.0
H1602 H 0.52247 0.91533 0.6806 0.0
H1603 H 0.63398 0.90959 0.54907 0.0
H1604 H 0.59713 0.90485 0.51622 0.0
H1605 H 0.60024 0.87522 0.55047 0.0
C1606 C 0.24257 0.37801 0.75138 0.0
C1607 C 0.26489 0.36457 0.7334 0.0
C1608 C 0.22385 0.39451 0.72852 0.0
C1609 C 0.22733 0.39782 0.68648 0.0
C1610 C 0.24954 0.38401 0.66818 0.0
C1611 C 0.26788 0.36771 0.69165 0.0
C1612 C 0.20066 0.40884 0.74955 0.0
C1613 C 0.25447 0.38691 0.62371 0.0
C1614 C 0.16309 0.42492 0.61808 0.0
C1615 C 0.1789 0.45623 0.61557 0.0
C1616 C 0.17831 0.4056 0.64106 0.0
C1617 C 0.21005 0.41777 0.6623 0.0
C1618 C 0.22603 0.44927 0.6596 0.0
C1619 C 0.21046 0.46787 0.63647 0.0
C1620 C 0.16045 0.37212 0.64259 0.0
C1621 C 0.25985 0.46351 0.6812 0.0
H1622 H 0.23968 0.37567 0.78339 0.0
H1623 H 0.28478 0.35744 0.67701 0.0
H1624 H 0.20927 0.43411 0.74828 0.0
H1625 H 0.17537 0.4014 0.73383 0.0
H1626 H 0.19915 0.40278 0.7817 0.0
H1627 H 0.27111 0.37341 0.61344 0.0
H1628 H 0.23022 0.37912 0.60559 0.0
H1629 H 0.26537 0.41127 0.61732 0.0
H1630 H 0.13882 0.41551 0.60225 0.0
H1631 H 0.22325 0.49192 0.63507 0.0
H1632 H 0.15684 0.36595 0.67438 0.0
H1633 H 0.17576 0.35803 0.63043 0.0
H1634 H 0.13586 0.3661 0.625 0.0
H1635 H 0.25901 0.45996 0.71408 0.0
H1636 H 0.26882 0.48845 0.67666 0.0
H1637 H 0.2782 0.45224 0.67022 0.0
C1638 C 0.76313 0.2473 0.65565 0.0
C1639 C 0.78056 0.24171 0.69112 0.0
C1640 C 0.74713 0.22343 0.62725 0.0
C1641 C 0.74816 0.19306 0.63443 0.0
C1642 C 0.76672 0.18743 0.66945 0.0
C1643 C 0.78283 0.21176 0.69711 0.0
C1644 C 0.72802 0.2305 0.59023 0.0
C1645 C 0.76785 0.15539 0.67924 0.0
C1646 C 0.67629 0.12533 0.59589 0.0
C1647 C 0.68863 0.11335 0.56279 0.0
C1648 C 0.69503 0.15161 0.61834 0.0
C1649 C 0.72723 0.16679 0.60776 0.0
C1650 C 0.73931 0.15588 0.57308 0.0
C1651 C 0.71993 0.12926 0.55114 0.0
C1652 C 0.68035 0.16293 0.65386 0.0
C1653 C 0.7724 0.17199 0.55825 0.0
H1654 H 0.76133 0.27029 0.65041 0.0
H1655 H 0.7961 0.20698 0.72433 0.0
H1656 H 0.70129 0.21843 0.5908 0.0
H1657 H 0.73059 0.2554 0.58799 0.0
H1658 H 0.73689 0.22203 0.56273 0.0
H1659 H 0.78926 0.15546 0.70098 0.0
H1660 H 0.74483 0.14368 0.69319 0.0
H1661 H 0.76908 0.14173 0.65158 0.0
H1662 H 0.65195 0.11379 0.60503 0.0
H1663 H 0.72958 0.12077 0.52519 0.0
H1664 H 0.68096 0.18735 0.6507 0.0
H1665 H 0.69534 0.16139 0.68224 0.0
H1666 H 0.65428 0.14959 0.65678 0.0
H1667 H 0.768 0.18326 0.52986 0.0
H1668 H 0.78617 0.15508 0.55084 0.0
H1669 H 0.78821 0.18964 0.5801 0.0
C1670 C 0.88403 0.42239 0.35344 0.0
C1671 C 0.89131 0.39412 0.34936 0.0
C1672 C 0.90362 0.44587 0.38015 0.0
C1673 C 0.93058 0.44069 0.40455 0.0
C1674 C 0.93788 0.41202 0.40075 0.0
C1675 C 0.91849 0.38927 0.37274 0.0
C1676 C 0.89553 0.4763 0.38207 0.0
C1677 C 0.96587 0.40521 0.42673 0.0
C1678 C 1.00112 0.50904 0.4455 0.0
C1679 C 0.99278 0.51363 0.48487 0.0
C1680 C 0.9809 0.48578 0.41908 0.0
C1681 C 0.95199 0.46576 0.43261 0.0
C1682 C 0.94355 0.47007 0.47258 0.0
C1683 C 0.96376 0.49429 0.49803 0.0
C1684 C 0.99054 0.48267 0.37659 0.0
C1685 C 0.91356 0.44872 0.48871 0.0
H1686 H 0.863 0.42622 0.33543 0.0
H1687 H 0.92384 0.36726 0.37018 0.0
H1688 H 0.88935 0.48118 0.41298 0.0
H1689 H 0.91752 0.49488 0.37543 0.0
H1690 H 0.87434 0.47695 0.36034 0.0
H1691 H 0.96726 0.38134 0.42168 0.0
H1692 H 0.9899 0.42107 0.42025 0.0
H1693 H 0.96259 0.40897 0.45912 0.0
H1694 H 1.02355 0.52393 0.43517 0.0
H1695 H 0.95752 0.49743 0.52863 0.0
H1696 H 0.96984 0.48384 0.35445 0.0
H1697 H 0.99534 0.46006 0.37159 0.0
H1698 H 1.01309 0.50079 0.37027 0.0
H1699 H 0.89071 0.4496 0.47033 0.0
H1700 H 0.91098 0.45448 0.52078 0.0
H1701 H 0.91539 0.42481 0.48631 0.0
C1702 C 0.74041 0.88229 0.35907 0.0
C1703 C 0.76033 0.88675 0.32658 0.0
C1704 C 0.72659 0.90523 0.372 0.0
C1705 C 0.73246 0.9328 0.35128 0.0
C1706 C 0.75228 0.93731 0.31822 0.0
C1707 C 0.76634 0.91422 0.30645 0.0
C1708 C 0.70571 0.89999 0.40771 0.0
C1709 C 0.75779 0.96606 0.29465 0.0
C1710 C 0.66579 0.97197 0.36489 0.0
C1711 C 0.68093 0.99367 0.39599 0.0
C1712 C 0.68318 0.95326 0.34801 0.0
C1713 C 0.71625 0.95618 0.36312 0.0
C1714 C 0.73254 0.97959 0.39219 0.0
C1715 C 0.71473 0.9986 0.40782 0.0
C1716 C 0.66541 0.92899 0.3161 0.0
C1717 C 0.76785 0.98302 0.40892 0.0
H1718 H 0.736 0.86105 0.37475 0.0
H1719 H 0.78153 0.91744 0.28102 0.0
H1720 H 0.71621 0.91845 0.43118 0.0
H1721 H 0.68007 0.90092 0.39847 0.0
H1722 H 0.70435 0.87755 0.42116 0.0
H1723 H 0.77504 0.96644 0.27071 0.0
H1724 H 0.73369 0.96785 0.28029 0.0
H1725 H 0.76796 0.98658 0.31514 0.0
H1726 H 0.63984 0.96862 0.35483 0.0
H1727 H 0.72678 1.016 0.43095 0.0
H1728 H 0.66 0.90615 0.32939 0.0
H1729 H 0.68128 0.92853 0.29093 0.0
H1730 H 0.64156 0.9327 0.30361 0.0
H1731 H 0.76858 0.96321 0.4275 0.0
H1732 H 0.77805 1.00437 0.42798 0.0
H1733 H 0.78423 0.98294 0.38423 0.0
C1734 C 0.22511 0.73513 0.36296 0.0
C1735 C 0.25983 0.7394 0.36377 0.0
C1736 C 0.20404 0.71194 0.38478 0.0
C1737 C 0.21727 0.69187 0.40912 0.0
C1738 C 0.25238 0.69637 0.41065 0.0
C1739 C 0.27289 0.71959 0.38816 0.0
C1740 C 0.16717 0.70849 0.38095 0.0
C1741 C 0.26841 0.67618 0.43575 0.0
C1742 C 0.16379 0.64222 0.48885 0.0
C1743 C 0.15176 0.61318 0.46875 0.0
C1744 C 0.18478 0.66779 0.47025 0.0
C1745 C 0.19431 0.66497 0.43012 0.0
C1746 C 0.18158 0.63587 0.40967 0.0
C1747 C 0.16104 0.61088 0.42891 0.0
C1748 C 0.19753 0.69777 0.49415 0.0
C1749 C 0.19009 0.63081 0.36716 0.0
H1750 H 0.21404 0.74969 0.34441 0.0
H1751 H 0.29937 0.72208 0.38956 0.0
H1752 H 0.15396 0.68571 0.36676 0.0
H1753 H 0.15808 0.70966 0.41132 0.0
H1754 H 0.16051 0.72638 0.36247 0.0
H1755 H 0.29592 0.68341 0.43617 0.0
H1756 H 0.26132 0.67649 0.46726 0.0
H1757 H 0.25934 0.65218 0.42357 0.0
H1758 H 0.1578 0.64478 0.51969 0.0
H1759 H 0.1524 0.58897 0.41241 0.0
H1760 H 0.19211 0.71659 0.47656 0.0
H1761 H 0.22491 0.70307 0.49999 0.0
H1762 H 0.18644 0.69734 0.52356 0.0
H1763 H 0.18263 0.64738 0.34702 0.0
H1764 H 0.17775 0.60727 0.35466 0.0
H1765 H 0.21734 0.63483 0.36664 0.0
C1766 C 0.43814 0.24239 0.51088 0.0
C1767 C 0.44872 0.25607 0.47517 0.0
C1768 C 0.44751 0.21652 0.52332 0.0
C1769 C 0.4673 0.20396 0.49893 0.0
C1770 C 0.47799 0.21778 0.46272 0.0
C1771 C 0.46887 0.24399 0.45157 0.0
C1772 C 0.43589 0.20235 0.56217 0.0
C1773 C 0.49925 0.20553 0.43555 0.0
C1774 C 0.51652 0.15465 0.54881 0.0
C1775 C 0.49802 0.12535 0.53459 0.0
C1776 C 0.50703 0.18054 0.53679 0.0
C1777 C 0.47733 0.17678 0.512 0.0
C1778 C 0.45751 0.14719 0.49931 0.0
C1779 C 0.46827 0.12171 0.51052 0.0
C1780 C 0.52993 0.2119 0.54815 0.0
C1781 C 0.42594 0.14263 0.47221 0.0
H1782 H 0.42233 0.25183 0.5288 0.0
H1783 H 0.47652 0.25444 0.42353 0.0
H1784 H 0.41867 0.17926 0.55539 0.0
H1785 H 0.45735 0.19946 0.58164 0.0
H1786 H 0.42297 0.21636 0.57928 0.0
H1787 H 0.49334 0.2097 0.40339 0.0
H1788 H 0.52563 0.21802 0.44346 0.0
H1789 H 0.4963 0.18069 0.43836 0.0
H1790 H 0.53963 0.15757 0.5673 0.0
H1791 H 0.45388 0.09907 0.49941 0.0
H1792 H 0.54015 0.22273 0.52054 0.0
H1793 H 0.55105 0.21096 0.56981 0.0
H1794 H 0.51604 0.22685 0.56147 0.0
H1795 H 0.40914 0.15452 0.48581 0.0
H1796 H 0.41253 0.11806 0.46663 0.0
H1797 H 0.43194 0.15289 0.44274 0.0
C1798 C 0.79047 0.86387 0.52006 0.0
C1799 C 0.79067 0.85878 0.56131 0.0
C1800 C 0.7866 0.89168 0.50585 0.0
C1801 C 0.78147 0.91384 0.53365 0.0
C1802 C 0.78564 0.90991 0.57565 0.0
C1803 C 0.79015 0.8823 0.58892 0.0
C1804 C 0.78438 0.89539 0.46091 0.0
C1805 C 0.78038 0.9327 0.60659 0.0
C1806 C 0.75926 0.98775 0.51127 0.0
C1807 C 0.7245 0.97762 0.50943 0.0
C1808 C 0.77854 0.96685 0.51597 0.0
C1809 C 0.76254 0.93554 0.52019 0.0
C1810 C 0.72744 0.92522 0.51704 0.0
C1811 C 0.70895 0.94632 0.51124 0.0
C1812 C 0.81585 0.97816 0.51692 0.0
C1813 C 0.70921 0.89201 0.52159 0.0
H1814 H 0.7911 0.84554 0.49889 0.0
H1815 H 0.79034 0.87804 0.62094 0.0
H1816 H 0.76161 0.87873 0.44707 0.0
H1817 H 0.78399 0.91881 0.45265 0.0
H1818 H 0.80579 0.88981 0.44782 0.0
H1819 H 0.78989 0.92871 0.63751 0.0
H1820 H 0.79278 0.95647 0.59909 0.0
H1821 H 0.75339 0.93059 0.60678 0.0
H1822 H 0.77137 1.01189 0.50917 0.0
H1823 H 0.6821 0.93823 0.50948 0.0
H1824 H 0.82534 0.96363 0.49611 0.0
H1825 H 0.82712 0.97639 0.54771 0.0
H1826 H 0.8242 1.00233 0.50821 0.0
H1827 H 0.71728 0.87718 0.49977 0.0
H1828 H 0.68184 0.88768 0.51656 0.0
H1829 H 0.71515 0.88503 0.55243 0.0
C1830 C 0.64799 0.2509 0.43533 0.0
C1831 C 0.67391 0.25251 0.46524 0.0
C1832 C 0.62383 0.22327 0.42578 0.0
C1833 C 0.62613 0.19713 0.44667 0.0
C1834 C 0.6494 0.19987 0.48073 0.0
C1835 C 0.67301 0.22779 0.48969 0.0
C1836 C 0.5984 0.22156 0.39063 0.0
C1837 C 0.65205 0.17261 0.50486 0.0
C1838 C 0.57534 0.11797 0.45176 0.0
C1839 C 0.59666 0.10334 0.43436 0.0
C1840 C 0.58067 0.14954 0.44899 0.0
C1841 C 0.60846 0.16624 0.43012 0.0
C1842 C 0.62562 0.15075 0.40575 0.0
C1843 C 0.61919 0.11905 0.40784 0.0
C1844 C 0.5604 0.16536 0.47235 0.0
C1845 C 0.65464 0.16783 0.3835 0.0
H1846 H 0.64863 0.27014 0.41636 0.0
H1847 H 0.69295 0.22939 0.5129 0.0
H1848 H 0.6087 0.21634 0.36234 0.0
H1849 H 0.57515 0.2034 0.39395 0.0
H1850 H 0.59235 0.24381 0.38739 0.0
H1851 H 0.67012 0.17928 0.53181 0.0
H1852 H 0.62755 0.16061 0.51516 0.0
H1853 H 0.66018 0.15613 0.48564 0.0
H1854 H 0.55686 0.10549 0.47085 0.0
H1855 H 0.63501 0.1075 0.39314 0.0
H1856 H 0.53402 0.15181 0.46918 0.0
H1857 H 0.56222 0.18874 0.46215 0.0
H1858 H 0.56983 0.16719 0.50459 0.0
H1859 H 0.66102 0.15284 0.36027 0.0
H1860 H 0.67669 0.17653 0.40538 0.0
H1861 H 0.64923 0.18776 0.36864 0.0
C1862 C 0.88996 0.70986 0.48773 0.0
C1863 C 0.89171 0.73867 0.47238 0.0
C1864 C 0.91794 0.69875 0.49143 0.0
C1865 C 0.94887 0.71749 0.48108 0.0
C1866 C 0.9512 0.74698 0.46684 0.0
C1867 C 0.92249 0.7572 0.46241 0.0
C1868 C 0.91345 0.66614 0.50402 0.0
C1869 C 0.9837 0.76712 0.45493 0.0
C1870 C 1.01666 0.68845 0.53036 0.0
C1871 C 1.01391 0.66336 0.50397 0.0
C1872 C 0.99848 0.7095 0.52121 0.0
C1873 C 0.97817 0.70532 0.48437 0.0
C1874 C 0.98047 0.68325 0.4548 0.0
C1875 C 0.99777 0.66189 0.46538 0.0
C1876 C 0.99957 0.73447 0.55251 0.0
C1877 C 0.96156 0.67985 0.41378 0.0
H1878 H 0.8664 0.6955 0.49582 0.0
H1879 H 0.92398 0.77922 0.4496 0.0
H1880 H 0.90869 0.65073 0.47659 0.0
H1881 H 0.93576 0.66305 0.52147 0.0
H1882 H 0.89178 0.65851 0.52226 0.0
H1883 H 0.98102 0.78889 0.44239 0.0
H1884 H 1.00204 0.77262 0.48166 0.0
H1885 H 0.99396 0.75479 0.43208 0.0
H1886 H 1.02999 0.68983 0.55988 0.0
H1887 H 0.99665 0.6428 0.44459 0.0
H1888 H 0.97815 0.74438 0.54869 0.0
H1889 H 1.02259 0.75315 0.55027 0.0
H1890 H 1.00076 0.72585 0.58347 0.0
H1891 H 0.9359 0.66529 0.41574 0.0
H1892 H 0.97338 0.6687 0.39124 0.0
H1893 H 0.96002 0.70239 0.40287 0.0
C1894 C 0.38265 0.89155 0.37474 0.0
C1895 C 0.38267 0.86064 0.37274 0.0
C1896 C 0.40826 0.91363 0.39673 0.0
C1897 C 0.43409 0.90456 0.41857 0.0
C1898 C 0.43432 0.87334 0.41643 0.0
C1899 C 0.40856 0.85183 0.3937 0.0
C1900 C 0.40834 0.94691 0.39514 0.0
C1901 C 0.46155 0.8618 0.43701 0.0
C1902 C 0.51436 0.96582 0.45042 0.0
C1903 C 0.50714 0.97678 0.48754 0.0
C1904 C 0.49103 0.94204 0.4278 0.0
C1905 C 0.46032 0.92802 0.44348 0.0
C1906 C 0.4537 0.93798 0.48196 0.0
C1907 C 0.47685 0.96269 0.50309 0.0
C1908 C 0.49885 0.93254 0.38664 0.0
C1909 C 0.42235 0.92225 0.50105 0.0
H1910 H 0.36321 0.89882 0.35783 0.0
H1911 H 0.40909 0.82809 0.3919 0.0
H1912 H 0.40487 0.95573 0.42542 0.0
H1913 H 0.43265 0.96081 0.3862 0.0
H1914 H 0.38841 0.95045 0.37344 0.0
H1915 H 0.45112 0.84634 0.46098 0.0
H1916 H 0.47073 0.84785 0.41503 0.0
H1917 H 0.48298 0.88018 0.45015 0.0
H1918 H 0.53767 0.97678 0.43816 0.0
H1919 H 0.47138 0.97085 0.53202 0.0
H1920 H 0.47883 0.93388 0.36357 0.0
H1921 H 0.50001 0.90842 0.38657 0.0
H1922 H 0.52288 0.94705 0.37768 0.0
H1923 H 0.40045 0.92629 0.48365 0.0
H1924 H 0.42262 0.93051 0.53284 0.0
H1925 H 0.41915 0.89715 0.50041 0.0
C1926 C 0.27303 0.37923 0.39339 0.0
C1927 C 0.2711 0.37732 0.35064 0.0
C1928 C 0.2556 0.39642 0.4158 0.0
C1929 C 0.23609 0.4141 0.39593 0.0
C1930 C 0.23494 0.41302 0.35264 0.0
C1931 C 0.25147 0.39446 0.33099 0.0
C1932 C 0.25834 0.39516 0.46121 0.0
C1933 C 0.21638 0.43161 0.32811 0.0
C1934 C 0.16222 0.43911 0.43989 0.0
C1935 C 0.17717 0.46668 0.46274 0.0
C1936 C 0.18075 0.42179 0.4198 0.0
C1937 C 0.21606 0.4323 0.4199 0.0
C1938 C 0.23148 0.46019 0.44318 0.0
C1939 C 0.21223 0.47642 0.46453 0.0
C1940 C 0.16175 0.39196 0.3983 0.0
C1941 C 0.26858 0.47371 0.44575 0.0
H1942 H 0.28779 0.36647 0.40984 0.0
H1943 H 0.24944 0.39394 0.29827 0.0
H1944 H 0.28027 0.41349 0.47375 0.0
H1945 H 0.23601 0.39842 0.47465 0.0
H1946 H 0.26216 0.37297 0.47075 0.0
H1947 H 0.23006 0.44075 0.30169 0.0
H1948 H 0.19192 0.41656 0.31614 0.0
H1949 H 0.21236 0.45107 0.34593 0.0
H1950 H 0.13538 0.43065 0.43777 0.0
H1951 H 0.22481 0.49751 0.48148 0.0
H1952 H 0.17672 0.37519 0.39771 0.0
H1953 H 0.15445 0.39638 0.36674 0.0
H1954 H 0.13861 0.38147 0.41288 0.0
H1955 H 0.27957 0.46722 0.47446 0.0
H1956 H 0.27487 0.4991 0.44634 0.0
H1957 H 0.28026 0.46572 0.42027 0.0
C1958 C 0.46598 0.21065 0.66815 0.0
C1959 C 0.43546 0.20745 0.68437 0.0
C1960 C 0.47978 0.18596 0.66576 0.0
C1961 C 0.46246 0.15732 0.67968 0.0
C1962 C 0.43246 0.15429 0.69801 0.0
C1963 C 0.41915 0.17943 0.69997 0.0
C1964 C 0.51281 0.19067 0.64813 0.0
C1965 C 0.41449 0.12453 0.7154 0.0
C1966 C 0.47774 0.08896 0.62609 0.0
C1967 C 0.50604 0.08587 0.64882 0.0
C1968 C 0.46267 0.11175 0.63638 0.0
C1969 C 0.47463 0.13019 0.67207 0.0
C1970 C 0.50058 0.12464 0.69777 0.0
C1971 C 0.51656 0.10299 0.68533 0.0
C1972 C 0.43605 0.11785 0.60717 0.0
C1973 C 0.51287 0.14264 0.73721 0.0
H1974 H 0.47871 0.23229 0.65619 0.0
H1975 H 0.39606 0.17719 0.71383 0.0
H1976 H 0.5123 0.17156 0.62667 0.0
H1977 H 0.52004 0.2126 0.63268 0.0
H1978 H 0.53234 0.19118 0.67264 0.0
H1979 H 0.39331 0.12685 0.73226 0.0
H1980 H 0.40488 0.10676 0.6908 0.0
H1981 H 0.43195 0.11627 0.73603 0.0
H1982 H 0.4686 0.07495 0.59872 0.0
H1983 H 0.53793 0.10023 0.70368 0.0
H1984 H 0.44583 0.14036 0.59383 0.0
H1985 H 0.41402 0.11902 0.62295 0.0
H1986 H 0.42799 0.10008 0.58223 0.0
H1987 H 0.53203 0.16394 0.73162 0.0
H1988 H 0.52449 0.12941 0.75872 0.0
H1989 H 0.49247 0.14905 0.75157 0.0
C1990 C 0.91797 0.36635 0.71549 0.0
C1991 C 0.88674 0.37103 0.72122 0.0
C1992 C 0.94273 0.38836 0.697 0.0
C1993 C 0.93633 0.41583 0.68324 0.0
C1994 C 0.90457 0.42027 0.68813 0.0
C1995 C 0.88049 0.39813 0.70706 0.0
C1996 C 0.97614 0.38256 0.69311 0.0
C1997 C 0.89608 0.44881 0.67392 0.0
C1998 C 1.00584 0.48999 0.67506 0.0
C1999 C 1.00948 0.49137 0.63335 0.0
C2000 C 0.98354 0.46501 0.69164 0.0
C2001 C 0.96318 0.44075 0.66599 0.0
C2002 C 0.96727 0.44165 0.6238 0.0
C2003 C 0.99052 0.46668 0.60811 0.0
C2004 C 0.98079 0.46529 0.73669 0.0
C2005 C 0.94577 0.41701 0.59486 0.0
H2006 H 0.9234 0.34574 0.72629 0.0
H2007 H 0.85659 0.40225 0.71096 0.0
H2008 H 0.98212 0.38387 0.66111 0.0
H2009 H 0.99569 0.40055 0.71074 0.0
H2010 H 0.97712 0.35984 0.70402 0.0
H2011 H 0.86979 0.44816 0.67768 0.0
H2012 H 0.91233 0.46917 0.69121 0.0
H2013 H 0.90063 0.45183 0.6416 0.0
H2014 H 1.01996 0.50909 0.69483 0.0
H2015 H 0.99242 0.46778 0.57579 0.0
H2016 H 0.98249 0.44316 0.74886 0.0
H2017 H 0.95623 0.46824 0.74324 0.0
H2018 H 1.00044 0.48405 0.75295 0.0
H2019 H 0.94635 0.39406 0.60508 0.0
H2020 H 0.95367 0.41946 0.56362 0.0
H2021 H 0.91963 0.41813 0.59428 0.0
C2022 C 0.25218 0.7334 0.68006 0.0
C2023 C 0.25877 0.73396 0.72212 0.0
C2024 C 0.23712 0.70603 0.65824 0.0
C2025 C 0.22833 0.67867 0.67912 0.0
C2026 C 0.2351 0.67892 0.72151 0.0
C2027 C 0.25026 0.70674 0.74267 0.0
C2028 C 0.22965 0.70658 0.61307 0.0
C2029 C 0.22569 0.64994 0.74448 0.0
C2030 C 0.15458 0.61829 0.63264 0.0
C2031 C 0.16957 0.59818 0.61367 0.0
C2032 C 0.17357 0.64453 0.65405 0.0
C2033 C 0.20846 0.65056 0.65712 0.0
C2034 C 0.22398 0.63052 0.6381 0.0
C2035 C 0.20422 0.60447 0.61615 0.0
C2036 C 0.15622 0.66587 0.67317 0.0
C2037 C 0.26128 0.63658 0.64109 0.0
H2038 H 0.25874 0.75442 0.664 0.0
H2039 H 0.25564 0.70714 0.77512 0.0
H2040 H 0.2394 0.68954 0.59712 0.0
H2041 H 0.20237 0.70024 0.60565 0.0
H2042 H 0.24048 0.72946 0.60112 0.0
H2043 H 0.23514 0.65369 0.77683 0.0
H2044 H 0.19826 0.64095 0.74272 0.0
H2045 H 0.23557 0.63208 0.73066 0.0
H2046 H 0.12779 0.61359 0.63085 0.0
H2047 H 0.21578 0.58882 0.60167 0.0
H2048 H 0.16456 0.68897 0.66093 0.0
H2049 H 0.16278 0.66832 0.70625 0.0
H2050 H 0.12876 0.65769 0.6677 0.0
H2051 H 0.27269 0.65878 0.62784 0.0
H2052 H 0.26937 0.61833 0.62529 0.0
H2053 H 0.27098 0.63834 0.67329 0.0
loop_
_geom_bond_atom_site_label_1
_geom_bond_atom_site_label_2
_geom_bond_distance
_geom_bond_site_symmetry_2
_ccdc_geom_bond_type
Dy0 O3 2.307 . S
Dy0 O5 2.395 . S
Dy0 O6 2.379 . S
Dy0 O8 2.339 . S
Dy0 O10 2.298 . S
Dy0 O14 2.275 . S
Dy0 C22 2.738 . S
Dy1 O4 2.298 . S
Dy1 O7 2.275 . S
Dy1 O9 2.307 . S
Dy1 O11 2.395 . S
Dy1 O12 2.379 . S
Dy1 O15 2.339 . S
Dy1 C31 2.738 . S
C2 O14 1.254 . S
C2 O15 1.257 . S
O3 Dy0 2.307 . S
O3 C13 1.266 . S
O4 Dy1 2.298 . S
O4 C13 1.236 . S
O5 Dy0 2.395 . S
O5 C22 1.255 . S
O6 Dy0 2.379 . S
O6 C22 1.249 . S
O7 Dy1 2.275 . S
O7 C23 1.254 . S
O8 Dy0 2.339 . S
O8 C23 1.257 . S
O9 Dy1 2.307 . S
O9 C24 1.266 . S
O10 Dy0 2.298 . S
O10 C24 1.236 . S
O11 Dy1 2.395 . S
O11 C31 1.255 . S
O12 Dy1 2.379 . S
O12 C31 1.249 . S
C13 O3 1.266 . S
C13 O4 1.236 . S
O14 Dy0 2.275 . S
O14 C2 1.254 . S
O15 Dy1 2.339 . S
O15 C2 1.257 . S
C16 C19 1.344 . S
C16 C20 1.328 . S
C16 C22 1.516 . S
C17 C18 1.304 . S
C17 C21 1.323 . S
C18 C17 1.304 . S
C18 C19 1.371 . S
C18 H32 0.930 . S
C19 C16 1.344 . S
C19 C18 1.371 . S
C19 H33 0.931 . S
C20 C16 1.328 . S
C20 C21 1.433 . S
C20 H34 0.931 . S
C21 C17 1.323 . S
C21 C20 1.433 . S
C21 H35 0.933 . S
C22 Dy0 2.738 . S
C22 O5 1.255 . S
C22 O6 1.249 . S
C22 C16 1.516 . S
C23 O7 1.254 . S
C23 O8 1.257 . S
C24 O9 1.266 . S
C24 O10 1.236 . S
C25 C28 1.344 . S
C25 C29 1.328 . S
C25 C31 1.516 . S
C26 C27 1.304 . S
C26 C30 1.323 . S
C27 C26 1.304 . S
C27 C28 1.371 . S
C27 H36 0.930 . S
C28 C25 1.344 . S
C28 C27 1.371 . S
C28 H37 0.931 . S
C29 C25 1.328 . S
C29 C30 1.433 . S
C29 H38 0.931 . S
C30 C26 1.323 . S
C30 C29 1.433 . S
C30 H39 0.933 . S
C31 Dy1 2.738 . S
C31 O11 1.255 . S
C31 O12 1.249 . S
C31 C25 1.516 . S
H32 C18 0.930 . S
H33 C19 0.931 . S
H34 C20 0.931 . S
H35 C21 0.933 . S
H36 C27 0.930 . S
H37 C28 0.931 . S
H38 C29 0.931 . S
H39 C30 0.933 . S
Dy40 O43 2.307 . S
Dy40 O45 2.395 . S
Dy40 O46 2.379 . S
Dy40 O48 2.339 . S
Dy40 O50 2.298 . S
Dy40 O54 2.275 . S
Dy40 C62 2.738 . S
Dy41 O44 2.298 . S
Dy41 O47 2.275 . S
Dy41 O49 2.307 . S
Dy41 O51 2.395 . S
Dy41 O52 2.379 . S
Dy41 O55 2.339 . S
Dy41 C71 2.738 . S
C42 O54 1.254 . S
C42 O55 1.257 . S
O43 Dy40 2.307 . S
O43 C53 1.266 . S
O44 Dy41 2.298 . S
O44 C53 1.236 . S
O45 Dy40 2.395 . S
O45 C62 1.255 . S
O46 Dy40 2.379 . S
O46 C62 1.249 . S
O47 Dy41 2.275 . S
O47 C63 1.254 . S
O48 Dy40 2.339 . S
O48 C63 1.257 . S
O49 Dy41 2.307 . S
O49 C64 1.266 . S
O50 Dy40 2.298 . S
O50 C64 1.236 . S
O51 Dy41 2.395 . S
O51 C71 1.255 . S
O52 Dy41 2.379 . S
O52 C71 1.249 . S
C53 O43 1.266 . S
C53 O44 1.236 . S
O54 Dy40 2.275 . S
O54 C42 1.254 . S
O55 Dy41 2.339 . S
O55 C42 1.257 . S
C56 C59 1.344 . S
C56 C60 1.328 . S
C56 C62 1.516 . S
C57 C58 1.304 . S
C57 C61 1.323 . S
C58 C57 1.304 . S
C58 C59 1.371 . S
C58 H72 0.930 . S
C59 C56 1.344 . S
C59 C58 1.371 . S
C59 H73 0.931 . S
C60 C56 1.328 . S
C60 C61 1.433 . S
C60 H74 0.931 . S
C61 C57 1.323 . S
C61 C60 1.433 . S
C61 H75 0.933 . S
C62 Dy40 2.738 . S
C62 O45 1.255 . S
C62 O46 1.249 . S
C62 C56 1.516 . S
C63 O47 1.254 . S
C63 O48 1.257 . S
C64 O49 1.266 . S
C64 O50 1.236 . S
C65 C68 1.344 . S
C65 C69 1.328 . S
C65 C71 1.516 . S
C66 C67 1.304 . S
C66 C70 1.323 . S
C67 C66 1.304 . S
C67 C68 1.371 . S
C67 H76 0.930 . S
C68 C65 1.344 . S
C68 C67 1.371 . S
C68 H77 0.931 . S
C69 C65 1.328 . S
C69 C70 1.433 . S
C69 H78 0.931 . S
C70 C66 1.323 . S
C70 C69 1.433 . S
C70 H79 0.933 . S
C71 Dy41 2.738 . S
C71 O51 1.255 . S
C71 O52 1.249 . S
C71 C65 1.516 . S
H72 C58 0.930 . S
H73 C59 0.931 . S
H74 C60 0.931 . S
H75 C61 0.933 . S
H76 C67 0.930 . S
H77 C68 0.931 . S
H78 C69 0.931 . S
H79 C70 0.933 . S
Dy80 O83 2.307 . S
Dy80 O85 2.395 . S
Dy80 O86 2.379 . S
Dy80 O88 2.339 . S
Dy80 O90 2.298 . S
Dy80 O94 2.275 . S
Dy80 C102 2.738 . S
Dy81 O84 2.298 . S
Dy81 O87 2.275 . S
Dy81 O89 2.307 . S
Dy81 O91 2.395 . S
Dy81 O92 2.379 . S
Dy81 O95 2.339 . S
Dy81 C111 2.738 . S
C82 O94 1.254 . S
C82 O95 1.257 . S
O83 Dy80 2.307 . S
O83 C93 1.266 . S
O84 Dy81 2.298 . S
O84 C93 1.236 . S
O85 Dy80 2.395 . S
O85 C102 1.255 . S
O86 Dy80 2.379 . S
O86 C102 1.249 . S
O87 Dy81 2.275 . S
O87 C103 1.254 . S
O88 Dy80 2.339 . S
O88 C103 1.257 . S
O89 Dy81 2.307 . S
O89 C104 1.266 . S
O90 Dy80 2.298 . S
O90 C104 1.236 . S
O91 Dy81 2.395 . S
O91 C111 1.255 . S
O92 Dy81 2.379 . S
O92 C111 1.249 . S
C93 O83 1.266 . S
C93 O84 1.236 . S
O94 Dy80 2.275 . S
O94 C82 1.254 . S
O95 Dy81 2.339 . S
O95 C82 1.257 . S
C96 C99 1.344 . S
C96 C100 1.328 . S
C96 C102 1.516 . S
C97 C98 1.304 . S
C97 C101 1.323 . S
C98 C97 1.304 . S
C98 C99 1.371 . S
C98 H112 0.930 . S
C99 C96 1.344 . S
C99 C98 1.371 . S
C99 H113 0.931 . S
C100 C96 1.328 . S
C100 C101 1.433 . S
C100 H114 0.931 . S
C101 C97 1.323 . S
C101 C100 1.433 . S
C101 H115 0.933 . S
C102 Dy80 2.738 . S
C102 O85 1.255 . S
C102 O86 1.249 . S
C102 C96 1.516 . S
C103 O87 1.254 . S
C103 O88 1.257 . S
C104 O89 1.266 . S
C104 O90 1.236 . S
C105 C108 1.344 . S
C105 C109 1.328 . S
C105 C111 1.516 . S
C106 C107 1.304 . S
C106 C110 1.323 . S
C107 C106 1.304 . S
C107 C108 1.371 . S
C107 H116 0.930 . S
C108 C105 1.344 . S
C108 C107 1.371 . S
C108 H117 0.931 . S
C109 C105 1.328 . S
C109 C110 1.433 . S
C109 H118 0.931 . S
C110 C106 1.323 . S
C110 C109 1.433 . S
C110 H119 0.933 . S
C111 Dy81 2.738 . S
C111 O91 1.255 . S
C111 O92 1.249 . S
C111 C105 1.516 . S
H112 C98 0.930 . S
H113 C99 0.931 . S
H114 C100 0.931 . S
H115 C101 0.933 . S
H116 C107 0.930 . S
H117 C108 0.931 . S
H118 C109 0.931 . S
H119 C110 0.933 . S
Dy120 O123 2.307 . S
Dy120 O125 2.395 . S
Dy120 O126 2.379 . S
Dy120 O128 2.339 . S
Dy120 O130 2.298 . S
Dy120 O134 2.275 . S
Dy120 C142 2.738 . S
Dy121 O124 2.298 . S
Dy121 O127 2.275 . S
Dy121 O129 2.307 . S
Dy121 O131 2.395 . S
Dy121 O132 2.379 . S
Dy121 O135 2.339 . S
Dy121 C151 2.738 . S
C122 O134 1.254 . S
C122 O135 1.257 . S
O123 Dy120 2.307 . S
O123 C133 1.266 . S
O124 Dy121 2.298 . S
O124 C133 1.236 . S
O125 Dy120 2.395 . S
O125 C142 1.255 . S
O126 Dy120 2.379 . S
O126 C142 1.249 . S
O127 Dy121 2.275 . S
O127 C143 1.254 . S
O128 Dy120 2.339 . S
O128 C143 1.257 . S
O129 Dy121 2.307 . S
O129 C144 1.266 . S
O130 Dy120 2.298 . S
O130 C144 1.236 . S
O131 Dy121 2.395 . S
O131 C151 1.255 . S
O132 Dy121 2.379 . S
O132 C151 1.249 . S
C133 O123 1.266 . S
C133 O124 1.236 . S
O134 Dy120 2.275 . S
O134 C122 1.254 . S
O135 Dy121 2.339 . S
O135 C122 1.257 . S
C136 C139 1.344 . S
C136 C140 1.328 . S
C136 C142 1.516 . S
C137 C138 1.304 . S
C137 C141 1.323 . S
C138 C137 1.304 . S
C138 C139 1.371 . S
C138 H152 0.930 . S
C139 C136 1.344 . S
C139 C138 1.371 . S
C139 H153 0.931 . S
C140 C136 1.328 . S
C140 C141 1.433 . S
C140 H154 0.931 . S
C141 C137 1.323 . S
C141 C140 1.433 . S
C141 H155 0.933 . S
C142 Dy120 2.738 . S
C142 O125 1.255 . S
C142 O126 1.249 . S
C142 C136 1.516 . S
C143 O127 1.254 . S
C143 O128 1.257 . S
C144 O129 1.266 . S
C144 O130 1.236 . S
C145 C148 1.344 . S
C145 C149 1.328 . S
C145 C151 1.516 . S
C146 C147 1.304 . S
C146 C150 1.323 . S
C147 C146 1.304 . S
C147 C148 1.371 . S
C147 H156 0.930 . S
C148 C145 1.344 . S
C148 C147 1.371 . S
C148 H157 0.931 . S
C149 C145 1.328 . S
C149 C150 1.433 . S
C149 H158 0.931 . S
C150 C146 1.323 . S
C150 C149 1.433 . S
C150 H159 0.933 . S
C151 Dy121 2.738 . S
C151 O131 1.255 . S
C151 O132 1.249 . S
C151 C145 1.516 . S
H152 C138 0.930 . S
H153 C139 0.931 . S
H154 C140 0.931 . S
H155 C141 0.933 . S
H156 C147 0.930 . S
H157 C148 0.931 . S
H158 C149 0.931 . S
H159 C150 0.933 . S
Dy160 O163 2.307 . S
Dy160 O165 2.395 . S
Dy160 O166 2.379 . S
Dy160 O168 2.339 . S
Dy160 O170 2.298 . S
Dy160 O174 2.275 . S
Dy160 C182 2.738 . S
Dy161 O164 2.298 . S
Dy161 O167 2.275 . S
Dy161 O169 2.307 . S
Dy161 O171 2.395 . S
Dy161 O172 2.379 . S
Dy161 O175 2.339 . S
Dy161 C191 2.738 . S
C162 O174 1.254 . S
C162 O175 1.257 . S
O163 Dy160 2.307 . S
O163 C173 1.266 . S
O164 Dy161 2.298 . S
O164 C173 1.236 . S
O165 Dy160 2.395 . S
O165 C182 1.255 . S
O166 Dy160 2.379 . S
O166 C182 1.249 . S
O167 Dy161 2.275 . S
O167 C183 1.254 . S
O168 Dy160 2.339 . S
O168 C183 1.257 . S
O169 Dy161 2.307 . S
O169 C184 1.266 . S
O170 Dy160 2.298 . S
O170 C184 1.236 . S
O171 Dy161 2.395 . S
O171 C191 1.255 . S
O172 Dy161 2.379 . S
O172 C191 1.249 . S
C173 O163 1.266 . S
C173 O164 1.236 . S
O174 Dy160 2.275 . S
O174 C162 1.254 . S
O175 Dy161 2.339 . S
O175 C162 1.257 . S
C176 C179 1.344 . S
C176 C180 1.328 . S
C176 C182 1.516 . S
C177 C178 1.304 . S
C177 C181 1.323 . S
C178 C177 1.304 . S
C178 C179 1.371 . S
C178 H192 0.930 . S
C179 C176 1.344 . S
C179 C178 1.371 . S
C179 H193 0.931 . S
C180 C176 1.328 . S
C180 C181 1.433 . S
C180 H194 0.931 . S
C181 C177 1.323 . S
C181 C180 1.433 . S
C181 H195 0.933 . S
C182 Dy160 2.738 . S
C182 O165 1.255 . S
C182 O166 1.249 . S
C182 C176 1.516 . S
C183 O167 1.254 . S
C183 O168 1.257 . S
C184 O169 1.266 . S
C184 O170 1.236 . S
C185 C188 1.344 . S
C185 C189 1.328 . S
C185 C191 1.516 . S
C186 C187 1.304 . S
C186 C190 1.323 . S
C187 C186 1.304 . S
C187 C188 1.371 . S
C187 H196 0.930 . S
C188 C185 1.344 . S
C188 C187 1.371 . S
C188 H197 0.931 . S
C189 C185 1.328 . S
C189 C190 1.433 . S
C189 H198 0.931 . S
C190 C186 1.323 . S
C190 C189 1.433 . S
C190 H199 0.933 . S
C191 Dy161 2.738 . S
C191 O171 1.255 . S
C191 O172 1.249 . S
C191 C185 1.516 . S
H192 C178 0.930 . S
H193 C179 0.931 . S
H194 C180 0.931 . S
H195 C181 0.933 . S
H196 C187 0.930 . S
H197 C188 0.931 . S
H198 C189 0.931 . S
H199 C190 0.933 . S
Dy200 O203 2.307 . S
Dy200 O205 2.395 . S
Dy200 O206 2.379 . S
Dy200 O208 2.339 . S
Dy200 O210 2.298 . S
Dy200 O214 2.275 . S
Dy200 C222 2.738 . S
Dy201 O204 2.298 . S
Dy201 O207 2.275 . S
Dy201 O209 2.307 . S
Dy201 O211 2.395 . S
Dy201 O212 2.379 . S
Dy201 O215 2.339 . S
Dy201 C231 2.738 . S
C202 O214 1.254 . S
C202 O215 1.257 . S
O203 Dy200 2.307 . S
O203 C213 1.266 . S
O204 Dy201 2.298 . S
O204 C213 1.236 . S
O205 Dy200 2.395 . S
O205 C222 1.255 . S
O206 Dy200 2.379 . S
O206 C222 1.249 . S
O207 Dy201 2.275 . S
O207 C223 1.254 . S
O208 Dy200 2.339 . S
O208 C223 1.257 . S
O209 Dy201 2.307 . S
O209 C224 1.266 . S
O210 Dy200 2.298 . S
O210 C224 1.236 . S
O211 Dy201 2.395 . S
O211 C231 1.255 . S
O212 Dy201 2.379 . S
O212 C231 1.249 . S
C213 O203 1.266 . S
C213 O204 1.236 . S
O214 Dy200 2.275 . S
O214 C202 1.254 . S
O215 Dy201 2.339 . S
O215 C202 1.257 . S
C216 C219 1.344 . S
C216 C220 1.328 . S
C216 C222 1.516 . S
C217 C218 1.304 . S
C217 C221 1.323 . S
C218 C217 1.304 . S
C218 C219 1.371 . S
C218 H232 0.930 . S
C219 C216 1.344 . S
C219 C218 1.371 . S
C219 H233 0.931 . S
C220 C216 1.328 . S
C220 C221 1.433 . S
C220 H234 0.931 . S
C221 C217 1.323 . S
C221 C220 1.433 . S
C221 H235 0.933 . S
C222 Dy200 2.738 . S
C222 O205 1.255 . S
C222 O206 1.249 . S
C222 C216 1.516 . S
C223 O207 1.254 . S
C223 O208 1.257 . S
C224 O209 1.266 . S
C224 O210 1.236 . S
C225 C228 1.344 . S
C225 C229 1.328 . S
C225 C231 1.516 . S
C226 C227 1.304 . S
C226 C230 1.323 . S
C227 C226 1.304 . S
C227 C228 1.371 . S
C227 H236 0.930 . S
C228 C225 1.344 . S
C228 C227 1.371 . S
C228 H237 0.931 . S
C229 C225 1.328 . S
C229 C230 1.433 . S
C229 H238 0.931 . S
C230 C226 1.323 . S
C230 C229 1.433 . S
C230 H239 0.933 . S
C231 Dy201 2.738 . S
C231 O211 1.255 . S
C231 O212 1.249 . S
C231 C225 1.516 . S
H232 C218 0.930 . S
H233 C219 0.931 . S
H234 C220 0.931 . S
H235 C221 0.933 . S
H236 C227 0.930 . S
H237 C228 0.931 . S
H238 C229 0.931 . S
H239 C230 0.933 . S
Dy240 O243 2.307 . S
Dy240 O245 2.395 . S
Dy240 O246 2.379 . S
Dy240 O248 2.339 . S
Dy240 O250 2.298 . S
Dy240 O254 2.275 . S
Dy240 C262 2.738 . S
Dy241 O244 2.298 . S
Dy241 O247 2.275 . S
Dy241 O249 2.307 . S
Dy241 O251 2.395 . S
Dy241 O252 2.379 . S
Dy241 O255 2.339 . S
Dy241 C271 2.738 . S
C242 O254 1.254 . S
C242 O255 1.257 . S
O243 Dy240 2.307 . S
O243 C253 1.266 . S
O244 Dy241 2.298 . S
O244 C253 1.236 . S
O245 Dy240 2.395 . S
O245 C262 1.255 . S
O246 Dy240 2.379 . S
O246 C262 1.249 . S
O247 Dy241 2.275 . S
O247 C263 1.254 . S
O248 Dy240 2.339 . S
O248 C263 1.257 . S
O249 Dy241 2.307 . S
O249 C264 1.266 . S
O250 Dy240 2.298 . S
O250 C264 1.236 . S
O251 Dy241 2.395 . S
O251 C271 1.255 . S
O252 Dy241 2.379 . S
O252 C271 1.249 . S
C253 O243 1.266 . S
C253 O244 1.236 . S
O254 Dy240 2.275 . S
O254 C242 1.254 . S
O255 Dy241 2.339 . S
O255 C242 1.257 . S
C256 C259 1.344 . S
C256 C260 1.328 . S
C256 C262 1.516 . S
C257 C258 1.304 . S
C257 C261 1.323 . S
C258 C257 1.304 . S
C258 C259 1.371 . S
C258 H272 0.930 . S
C259 C256 1.344 . S
C259 C258 1.371 . S
C259 H273 0.931 . S
C260 C256 1.328 . S
C260 C261 1.433 . S
C260 H274 0.931 . S
C261 C257 1.323 . S
C261 C260 1.433 . S
C261 H275 0.933 . S
C262 Dy240 2.738 . S
C262 O245 1.255 . S
C262 O246 1.249 . S
C262 C256 1.516 . S
C263 O247 1.254 . S
C263 O248 1.257 . S
C264 O249 1.266 . S
C264 O250 1.236 . S
C265 C268 1.344 . S
C265 C269 1.328 . S
C265 C271 1.516 . S
C266 C267 1.304 . S
C266 C270 1.323 . S
C267 C266 1.304 . S
C267 C268 1.371 . S
C267 H276 0.930 . S
C268 C265 1.344 . S
C268 C267 1.371 . S
C268 H277 0.931 . S
C269 C265 1.328 . S
C269 C270 1.433 . S
C269 H278 0.931 . S
C270 C266 1.323 . S
C270 C269 1.433 . S
C270 H279 0.933 . S
C271 Dy241 2.738 . S
C271 O251 1.255 . S
C271 O252 1.249 . S
C271 C265 1.516 . S
H272 C258 0.930 . S
H273 C259 0.931 . S
H274 C260 0.931 . S
H275 C261 0.933 . S
H276 C267 0.930 . S
H277 C268 0.931 . S
H278 C269 0.931 . S
H279 C270 0.933 . S
Dy280 O283 2.307 . S
Dy280 O285 2.395 . S
Dy280 O286 2.379 . S
Dy280 O288 2.339 . S
Dy280 O290 2.298 . S
Dy280 O294 2.275 . S
Dy280 C302 2.738 . S
Dy281 O284 2.298 . S
Dy281 O287 2.275 . S
Dy281 O289 2.307 . S
Dy281 O291 2.395 . S
Dy281 O292 2.379 . S
Dy281 O295 2.339 . S
Dy281 C311 2.738 . S
C282 O294 1.254 . S
C282 O295 1.257 . S
O283 Dy280 2.307 . S
O283 C293 1.266 . S
O284 Dy281 2.298 . S
O284 C293 1.236 . S
O285 Dy280 2.395 . S
O285 C302 1.255 . S
O286 Dy280 2.379 . S
O286 C302 1.249 . S
O287 Dy281 2.275 . S
O287 C303 1.254 . S
O288 Dy280 2.339 . S
O288 C303 1.257 . S
O289 Dy281 2.307 . S
O289 C304 1.266 . S
O290 Dy280 2.298 . S
O290 C304 1.236 . S
O291 Dy281 2.395 . S
O291 C311 1.255 . S
O292 Dy281 2.379 . S
O292 C311 1.249 . S
C293 O283 1.266 . S
C293 O284 1.236 . S
O294 Dy280 2.275 . S
O294 C282 1.254 . S
O295 Dy281 2.339 . S
O295 C282 1.257 . S
C296 C299 1.344 . S
C296 C300 1.328 . S
C296 C302 1.516 . S
C297 C298 1.304 . S
C297 C301 1.323 . S
C298 C297 1.304 . S
C298 C299 1.371 . S
C298 H312 0.930 . S
C299 C296 1.344 . S
C299 C298 1.371 . S
C299 H313 0.931 . S
C300 C296 1.328 . S
C300 C301 1.433 . S
C300 H314 0.931 . S
C301 C297 1.323 . S
C301 C300 1.433 . S
C301 H315 0.933 1_556 S
C302 Dy280 2.738 . S
C302 O285 1.255 . S
C302 O286 1.249 . S
C302 C296 1.516 . S
C303 O287 1.254 . S
C303 O288 1.257 . S
C304 O289 1.266 . S
C304 O290 1.236 . S
C305 C308 1.344 . S
C305 C309 1.328 . S
C305 C311 1.516 . S
C306 C307 1.304 . S
C306 C310 1.323 . S
C307 C306 1.304 . S
C307 C308 1.371 . S
C307 H316 0.930 . S
C308 C305 1.344 . S
C308 C307 1.371 . S
C308 H317 0.931 . S
C309 C305 1.328 . S
C309 C310 1.433 . S
C309 H318 0.931 . S
C310 C306 1.323 . S
C310 C309 1.433 . S
C310 H319 0.933 . S
C311 Dy281 2.738 . S
C311 O291 1.255 . S
C311 O292 1.249 . S
C311 C305 1.516 . S
H312 C298 0.930 . S
H313 C299 0.931 . S
H314 C300 0.931 . S
H315 C301 0.933 1_554 S
H316 C307 0.930 . S
H317 C308 0.931 . S
H318 C309 0.931 . S
H319 C310 0.933 . S
Co320 O323 2.042 . S
Co320 O330 2.264 . S
Co320 O349 2.286 . S
Co320 O350 2.069 . S
Co320 O352 2.015 1_455 S
Co321 O323 2.122 . S
Co321 O329 2.073 . S
Co321 O330 2.327 . S
Co321 O331 1.939 1_455 S
Co322 O323 2.087 1_545 S
Co322 O325 2.087 1_455 S
Co322 O332 2.111 1_455 S
Co322 O333 2.143 . S
Co322 O337 2.111 . S
Co322 O351 2.143 1_445 S
O323 Co320 2.042 . S
O323 Co321 2.122 . S
O323 Co322 2.087 1_565 S
O323 H324 0.980 1_565 S
H324 O323 0.980 1_545 S
O325 Co322 2.087 1_655 S
O325 Co326 2.042 . S
O325 Co327 2.122 . S
O325 H328 0.980 . S
Co326 O325 2.042 . S
Co326 O334 2.286 . S
Co326 O335 2.069 . S
Co326 O336 2.015 1_655 S
Co326 O339 2.264 . S
Co327 O325 2.122 . S
Co327 O338 1.976 1_655 S
Co327 O339 2.327 . S
Co327 O340 2.073 . S
H328 O325 0.980 . S
O329 Co321 2.073 . S
O329 C344 1.245 . S
O330 Co320 2.264 . S
O330 Co321 2.327 . S
O330 C344 1.257 . S
O331 Co321 1.939 1_655 S
O331 C343 1.284 . S
O332 Co322 2.111 1_655 S
O332 C343 1.274 1_545 S
O333 Co322 2.143 . S
O333 C346 1.246 . S
O334 Co326 2.286 . S
O334 C345 1.259 . S
O335 Co326 2.069 . S
O335 C345 1.289 . S
O336 Co326 2.015 1_455 S
O336 C346 1.257 . S
O337 Co322 2.111 . S
O337 C347 1.274 . S
O338 Co327 1.976 1_455 S
O338 C347 1.251 . S
O339 Co326 2.264 . S
O339 Co327 2.327 . S
O339 C348 1.257 . S
O340 Co327 2.073 . S
O340 C348 1.245 . S
C341 O349 1.259 . S
C341 O350 1.289 . S
C342 O351 1.246 . S
C342 O352 1.257 . S
C343 O331 1.284 . S
C343 O332 1.274 1_565 S
C344 O329 1.245 . S
C344 O330 1.257 . S
C345 O334 1.259 . S
C345 O335 1.289 . S
C346 O333 1.246 . S
C346 O336 1.257 . S
C347 O337 1.274 . S
C347 O338 1.251 . S
C348 O339 1.257 . S
C348 O340 1.245 . S
O349 Co320 2.286 . S
O349 C341 1.259 . S
O350 Co320 2.069 . S
O350 C341 1.289 . S
O351 Co322 2.143 1_665 S
O351 C342 1.246 . S
O352 Co320 2.015 1_655 S
O352 C342 1.257 . S
Co353 O356 2.042 1_566 S
Co353 O363 2.264 1_556 S
Co353 O382 2.286 . S
Co353 O383 2.069 . S
Co353 O385 2.015 . S
Co354 O356 2.122 1_565 S
Co354 O362 2.073 . S
Co354 O363 2.327 . S
Co354 O364 1.976 . S
Co355 O356 2.087 . S
Co355 O358 2.087 1_554 S
Co355 O365 2.111 . S
Co355 O366 2.143 . S
Co355 O370 2.111 1_554 S
Co355 O384 2.149 1_554 S
O356 Co353 2.042 1_544 S
O356 Co354 2.122 1_545 S
O356 Co355 2.087 . S
O356 H357 0.980 . S
H357 O356 0.980 . S
O358 Co355 2.087 1_556 S
O358 Co359 2.042 1_556 S
O358 Co360 2.122 . S
O358 H361 0.980 . S
Co359 O358 2.042 1_554 S
Co359 O367 2.286 . S
Co359 O368 2.069 . S
Co359 O369 2.015 . S
Co359 O372 2.264 1_554 S
Co360 O358 2.122 . S
Co360 O371 1.976 . S
Co360 O372 2.327 . S
Co360 O373 2.073 . S
H361 O358 0.980 . S
O362 Co354 2.073 . S
O362 C377 1.245 . S
O363 Co353 2.264 1_554 S
O363 Co354 2.327 . S
O363 C377 1.257 . S
O364 Co354 1.976 . S
O364 C376 1.251 . S
O365 Co355 2.111 . S
O365 C376 1.274 1_545 S
O366 Co355 2.143 . S
O366 C379 1.246 . S
O367 Co359 2.286 . S
O367 C378 1.259 . S
O368 Co359 2.069 . S
O368 C378 1.289 . S
O369 Co359 2.015 . S
O369 C379 1.257 . S
O370 Co355 2.111 1_556 S
O370 C380 1.274 . S
O371 Co360 1.976 . S
O371 C380 1.251 . S
O372 Co359 2.264 1_556 S
O372 Co360 2.327 . S
O372 C381 1.257 . S
O373 Co360 2.073 . S
O373 C381 1.245 . S
C374 O382 1.259 . S
C374 O383 1.289 . S
C375 O384 1.236 1_565 S
C375 O385 1.257 . S
C376 O364 1.251 . S
C376 O365 1.274 1_565 S
C377 O362 1.245 . S
C377 O363 1.257 . S
C378 O367 1.259 . S
C378 O368 1.289 . S
C379 O366 1.246 . S
C379 O369 1.257 . S
C380 O370 1.274 . S
C380 O371 1.251 . S
C381 O372 1.257 . S
C381 O373 1.245 . S
O382 Co353 2.286 . S
O382 C374 1.259 . S
O383 Co353 2.069 . S
O383 C374 1.289 . S
O384 Co355 2.149 1_556 S
O384 C375 1.236 1_545 S
O385 Co353 2.015 . S
O385 C375 1.257 . S
Co386 O389 2.042 . S
Co386 O396 2.264 . S
Co386 O415 2.286 1_554 S
Co386 O416 2.069 . S
Co386 O418 2.015 1_455 S
Co387 O389 2.122 . S
Co387 O395 2.073 . S
Co387 O396 2.327 . S
Co387 O397 1.976 1_455 S
Co388 O389 2.087 . S
Co388 O391 2.087 1_455 S
Co388 O398 2.111 1_455 S
Co388 O399 2.143 . S
Co388 O403 2.111 . S
Co388 O417 2.143 1_455 S
O389 Co386 2.042 . S
O389 Co387 2.122 . S
O389 Co388 2.087 . S
O389 H390 0.980 . S
H390 O389 0.980 . S
O391 Co388 2.087 1_655 S
O391 Co392 2.042 . S
O391 Co393 2.122 1_554 S
O391 H394 0.980 . S
Co392 O391 2.042 . S
Co392 O400 2.286 . S
Co392 O401 2.069 . S
Co392 O402 2.015 1_655 S
Co392 O405 2.264 . S
Co393 O391 2.122 1_556 S
Co393 O404 1.976 1_656 S
Co393 O405 2.327 1_556 S
Co393 O406 2.073 . S
H394 O391 0.980 . S
O395 Co387 2.073 . S
O395 C410 1.245 . S
O396 Co386 2.264 . S
O396 Co387 2.327 . S
O396 C410 1.257 . S
O397 Co387 1.976 1_655 S
O397 C409 1.251 . S
O398 Co388 2.111 1_655 S
O398 C409 1.274 . S
O399 Co388 2.143 . S
O399 C412 1.246 . S
O400 Co392 2.286 . S
O400 C411 1.259 . S
O401 Co392 2.069 . S
O401 C411 1.289 . S
O402 Co392 2.015 1_455 S
O402 C412 1.257 . S
O403 Co388 2.111 . S
O403 C413 1.274 . S
O404 Co393 1.976 1_454 S
O404 C413 1.250 . S
O405 Co392 2.264 . S
O405 Co393 2.327 1_554 S
O405 C414 1.257 . S
O406 Co393 2.073 . S
O406 C414 1.245 1_556 S
C407 O415 1.259 1_554 S
C407 O416 1.289 . S
C408 O417 1.246 . S
C408 O418 1.257 . S
C409 O397 1.251 . S
C409 O398 1.274 . S
C410 O395 1.245 . S
C410 O396 1.257 . S
C411 O400 1.259 . S
C411 O401 1.289 . S
C412 O399 1.246 . S
C412 O402 1.257 . S
C413 O403 1.274 . S
C413 O404 1.250 . S
C414 O405 1.257 . S
C414 O406 1.245 1_554 S
O415 Co386 2.286 1_556 S
O415 C407 1.259 1_556 S
O416 Co386 2.069 . S
O416 C407 1.289 . S
O417 Co388 2.143 1_655 S
O417 C408 1.246 . S
O418 Co386 2.015 1_655 S
O418 C408 1.257 . S
Co419 O422 2.042 1_556 S
Co419 O429 2.264 1_556 S
Co419 O448 2.286 . S
Co419 O449 2.069 . S
Co419 O451 2.015 . S
Co420 O422 2.122 . S
Co420 O428 2.073 . S
Co420 O429 2.327 . S
Co420 O430 1.976 . S
Co421 O422 2.087 . S
Co421 O424 2.087 . S
Co421 O431 2.111 . S
Co421 O432 2.143 . S
Co421 O436 2.111 1_554 S
Co421 O450 2.143 1_554 S
O422 Co419 2.042 1_554 S
O422 Co420 2.122 . S
O422 Co421 2.087 . S
O422 H423 0.980 . S
H423 O422 0.980 . S
O424 Co421 2.087 . S
O424 Co425 2.042 . S
O424 Co426 2.122 1_554 S
O424 H427 0.980 . S
Co425 O424 2.042 . S
Co425 O433 2.286 . S
Co425 O434 2.069 . S
Co425 O435 2.015 . S
Co425 O438 2.264 1_554 S
Co426 O424 2.122 1_556 S
Co426 O437 1.976 . S
Co426 O438 2.327 . S
Co426 O439 2.073 . S
H427 O424 0.980 . S
O428 Co420 2.073 . S
O428 C443 1.245 . S
O429 Co419 2.264 1_554 S
O429 Co420 2.327 . S
O429 C443 1.257 . S
O430 Co420 1.976 . S
O430 C442 1.251 . S
O431 Co421 2.111 . S
O431 C442 1.274 . S
O432 Co421 2.143 . S
O432 C445 1.246 . S
O433 Co425 2.286 . S
O433 C444 1.259 . S
O434 Co425 2.069 . S
O434 C444 1.289 . S
O435 Co425 2.015 . S
O435 C445 1.257 . S
O436 Co421 2.111 1_556 S
O436 C446 1.274 . S
O437 Co426 1.976 . S
O437 C446 1.251 . S
O438 Co425 2.264 1_556 S
O438 Co426 2.327 . S
O438 C447 1.257 . S
O439 Co426 2.073 . S
O439 C447 1.245 . S
C440 O448 1.259 . S
C440 O449 1.289 . S
C441 O450 1.246 . S
C441 O451 1.257 . S
C442 O430 1.251 . S
C442 O431 1.274 . S
C443 O428 1.245 . S
C443 O429 1.257 . S
C444 O433 1.259 . S
C444 O434 1.289 . S
C445 O432 1.246 . S
C445 O435 1.257 . S
C446 O436 1.274 . S
C446 O437 1.251 . S
C447 O438 1.257 . S
C447 O439 1.245 . S
O448 Co419 2.286 . S
O448 C440 1.259 . S
O449 Co419 2.069 . S
O449 C440 1.289 . S
O450 Co421 2.143 1_556 S
O450 C441 1.246 . S
O451 Co419 2.015 . S
O451 C441 1.257 . S
Co452 O455 2.042 . S
Co452 O462 2.264 . S
Co452 O481 2.286 . S
Co452 O482 2.069 . S
Co452 O484 2.015 . S
Co453 O455 2.122 . S
Co453 O461 2.073 . S
Co453 O462 2.327 . S
Co453 O463 1.976 . S
Co454 O455 2.087 . S
Co454 O457 2.087 . S
Co454 O464 2.111 . S
Co454 O465 2.138 1_455 S
Co454 O469 2.111 . S
Co454 O483 2.143 . S
O455 Co452 2.042 . S
O455 Co453 2.122 . S
O455 Co454 2.087 . S
O455 H456 0.980 . S
H456 O455 0.980 . S
O457 Co454 2.087 . S
O457 Co458 2.042 1_455 S
O457 Co459 2.122 1_455 S
O457 H460 0.980 . S
Co458 O457 2.042 1_655 S
Co458 O466 2.286 . S
Co458 O467 2.069 . S
Co458 O468 2.015 . S
Co458 O471 2.264 . S
Co459 O457 2.122 1_655 S
Co459 O470 1.976 . S
Co459 O471 2.327 . S
Co459 O472 2.073 . S
H460 O457 0.980 . S
O461 Co453 2.073 . S
O461 C476 1.245 . S
O462 Co452 2.264 . S
O462 Co453 2.327 . S
O462 C476 1.257 . S
O463 Co453 1.976 . S
O463 C475 1.251 . S
O464 Co454 2.111 . S
O464 C475 1.274 . S
O465 Co454 2.138 1_655 S
O465 C478 1.256 . S
O466 Co458 2.286 . S
O466 C477 1.259 . S
O467 Co458 2.069 . S
O467 C477 1.289 . S
O468 Co458 2.015 . S
O468 C478 1.257 . S
O469 Co454 2.111 . S
O469 C479 1.274 1_455 S
O470 Co459 1.976 . S
O470 C479 1.251 . S
O471 Co458 2.264 . S
O471 Co459 2.327 . S
O471 C480 1.257 . S
O472 Co459 2.073 . S
O472 C480 1.245 . S
C473 O481 1.259 . S
C473 O482 1.289 . S
C474 O483 1.246 . S
C474 O484 1.257 . S
C475 O463 1.251 . S
C475 O464 1.274 . S
C476 O461 1.245 . S
C476 O462 1.257 . S
C477 O466 1.259 . S
C477 O467 1.289 . S
C478 O465 1.256 . S
C478 O468 1.257 . S
C479 O469 1.274 1_655 S
C479 O470 1.251 . S
C480 O471 1.257 . S
C480 O472 1.245 . S
O481 Co452 2.286 . S
O481 C473 1.259 . S
O482 Co452 2.069 . S
O482 C473 1.289 . S
O483 Co454 2.143 . S
O483 C474 1.246 . S
O484 Co452 2.015 . S
O484 C474 1.257 . S
Co485 O488 2.042 . S
Co485 O495 2.264 . S
Co485 O514 2.286 . S
Co485 O515 2.069 . S
Co485 O517 2.015 1_565 S
Co486 O488 2.122 . S
Co486 O494 2.073 . S
Co486 O495 2.327 . S
Co486 O496 1.976 1_565 S
Co487 O488 2.087 1_545 S
Co487 O490 2.087 . S
Co487 O497 2.111 . S
Co487 O498 2.143 1_545 S
Co487 O502 2.111 1_545 S
Co487 O516 2.143 . S
O488 Co485 2.042 . S
O488 Co486 2.122 . S
O488 Co487 2.087 1_565 S
O488 H489 0.980 . S
H489 O488 0.980 . S
O490 Co487 2.087 . S
O490 Co491 2.042 . S
O490 Co492 2.122 . S
O490 H493 0.980 . S
Co491 O490 2.042 . S
Co491 O499 2.286 . S
Co491 O500 2.069 . S
Co491 O501 2.015 1_545 S
Co491 O504 2.264 . S
Co492 O490 2.122 . S
Co492 O503 1.976 1_545 S
Co492 O504 2.327 . S
Co492 O505 2.073 . S
H493 O490 0.980 . S
O494 Co486 2.073 . S
O494 C509 1.245 . S
O495 Co485 2.264 . S
O495 Co486 2.327 . S
O495 C509 1.257 . S
O496 Co486 1.976 1_545 S
O496 C508 1.251 . S
O497 Co487 2.111 . S
O497 C508 1.274 . S
O498 Co487 2.143 1_565 S
O498 C511 1.246 . S
O499 Co491 2.286 . S
O499 C510 1.259 . S
O500 Co491 2.069 . S
O500 C510 1.289 . S
O501 Co491 2.015 1_565 S
O501 C511 1.257 . S
O502 Co487 2.111 1_565 S
O502 C512 1.274 . S
O503 Co492 1.976 1_565 S
O503 C512 1.251 . S
O504 Co491 2.264 . S
O504 Co492 2.327 . S
O504 C513 1.257 . S
O505 Co492 2.073 . S
O505 C513 1.245 . S
C506 O514 1.259 . S
C506 O515 1.289 . S
C507 O516 1.246 . S
C507 O517 1.257 . S
C508 O496 1.251 . S
C508 O497 1.274 . S
C509 O494 1.245 . S
C509 O495 1.257 . S
C510 O499 1.259 . S
C510 O500 1.289 . S
C511 O498 1.246 . S
C511 O501 1.257 . S
C512 O502 1.274 . S
C512 O503 1.251 . S
C513 O504 1.257 . S
C513 O505 1.245 . S
O514 Co485 2.286 . S
O514 C506 1.259 . S
O515 Co485 2.069 . S
O515 C506 1.289 . S
O516 Co487 2.143 . S
O516 C507 1.246 . S
O517 Co485 2.015 1_545 S
O517 C507 1.257 . S
C518 C519 1.391 . S
C518 C520 1.394 . S
C518 H534 0.931 . S
C519 C518 1.391 . S
C519 C523 1.376 . S
C520 C518 1.394 . S
C520 C521 1.369 . S
C520 C524 1.531 . S
C521 C520 1.369 . S
C521 C522 1.410 . S
C521 C529 1.503 . S
C522 C521 1.410 . S
C522 C523 1.392 . S
C522 C525 1.511 . S
C523 C519 1.376 . S
C523 C522 1.392 . S
C523 H535 0.929 . S
C524 C520 1.531 . S
C524 H536 0.960 . S
C524 H537 0.962 . S
C524 H538 0.960 . S
C525 C522 1.511 . S
C525 H539 0.961 . S
C525 H540 0.961 . S
C525 H541 0.961 . S
C526 C527 1.370 . S
C526 C528 1.363 . S
C526 H542 0.931 . S
C527 C526 1.370 . S
C527 C531 1.408 . S
C528 C526 1.363 . S
C528 C529 1.370 . S
C528 C532 1.524 . S
C529 C521 1.503 . S
C529 C528 1.370 . S
C529 C530 1.403 . S
C530 C529 1.403 . S
C530 C531 1.404 . S
C530 C533 1.539 . S
C531 C527 1.408 . S
C531 C530 1.404 . S
C531 H543 0.930 . S
C532 C528 1.524 . S
C532 H544 0.956 . S
C532 H545 0.961 . S
C532 H546 0.961 . S
C533 C530 1.539 . S
C533 H547 0.958 . S
C533 H548 0.961 . S
C533 H549 0.960 . S
H534 C518 0.931 . S
H535 C523 0.929 . S
H536 C524 0.960 . S
H537 C524 0.962 . S
H538 C524 0.960 . S
H539 C525 0.961 . S
H540 C525 0.961 . S
H541 C525 0.961 . S
H542 C526 0.931 . S
H543 C531 0.930 . S
H544 C532 0.956 . S
H545 C532 0.961 . S
H546 C532 0.961 . S
H547 C533 0.958 . S
H548 C533 0.961 . S
H549 C533 0.960 . S
C550 C551 1.391 . S
C550 C552 1.394 . S
C550 H566 0.931 . S
C551 C550 1.391 . S
C551 C555 1.376 . S
C552 C550 1.394 . S
C552 C553 1.369 . S
C552 C556 1.531 . S
C553 C552 1.369 . S
C553 C554 1.410 . S
C553 C561 1.503 . S
C554 C553 1.410 . S
C554 C555 1.392 . S
C554 C557 1.511 . S
C555 C551 1.376 . S
C555 C554 1.392 . S
C555 H567 0.929 . S
C556 C552 1.531 . S
C556 H568 0.960 . S
C556 H569 0.962 . S
C556 H570 0.960 . S
C557 C554 1.511 . S
C557 H571 0.961 . S
C557 H572 0.961 . S
C557 H573 0.961 . S
C558 C559 1.370 . S
C558 C560 1.363 . S
C558 H574 0.931 . S
C559 C558 1.370 . S
C559 C563 1.408 . S
C560 C558 1.363 . S
C560 C561 1.370 . S
C560 C564 1.524 . S
C561 C553 1.503 . S
C561 C560 1.370 . S
C561 C562 1.403 . S
C562 C561 1.403 . S
C562 C563 1.404 . S
C562 C565 1.539 . S
C563 C559 1.408 . S
C563 C562 1.404 . S
C563 H575 0.930 . S
C564 C560 1.524 . S
C564 H576 0.956 . S
C564 H577 0.961 . S
C564 H578 0.961 . S
C565 C562 1.539 . S
C565 H579 0.958 . S
C565 H580 0.961 . S
C565 H581 0.960 . S
H566 C550 0.931 . S
H567 C555 0.929 . S
H568 C556 0.960 . S
H569 C556 0.962 . S
H570 C556 0.960 . S
H571 C557 0.961 . S
H572 C557 0.961 . S
H573 C557 0.961 . S
H574 C558 0.931 . S
H575 C563 0.930 . S
H576 C564 0.956 . S
H577 C564 0.961 . S
H578 C564 0.961 . S
H579 C565 0.958 . S
H580 C565 0.961 . S
H581 C565 0.960 . S
C582 C583 1.391 . S
C582 C584 1.394 . S
C582 H598 0.931 . S
C583 C582 1.391 . S
C583 C587 1.376 . S
C584 C582 1.394 . S
C584 C585 1.369 . S
C584 C588 1.531 . S
C585 C584 1.369 . S
C585 C586 1.410 . S
C585 C593 1.503 . S
C586 C585 1.410 . S
C586 C587 1.392 . S
C586 C589 1.511 . S
C587 C583 1.376 . S
C587 C586 1.392 . S
C587 H599 0.929 . S
C588 C584 1.531 . S
C588 H600 0.960 . S
C588 H601 0.962 . S
C588 H602 0.960 . S
C589 C586 1.511 . S
C589 H603 0.961 . S
C589 H604 0.961 . S
C589 H605 0.961 . S
C590 C591 1.370 . S
C590 C592 1.363 . S
C590 H606 0.931 . S
C591 C590 1.370 . S
C591 C595 1.408 . S
C592 C590 1.363 . S
C592 C593 1.370 . S
C592 C596 1.524 . S
C593 C585 1.503 . S
C593 C592 1.370 . S
C593 C594 1.403 . S
C594 C593 1.403 . S
C594 C595 1.404 . S
C594 C597 1.539 . S
C595 C591 1.408 . S
C595 C594 1.404 . S
C595 H607 0.930 . S
C596 C592 1.524 . S
C596 H608 0.956 . S
C596 H609 0.961 . S
C596 H610 0.961 . S
C597 C594 1.539 . S
C597 H611 0.958 . S
C597 H612 0.961 . S
C597 H613 0.960 . S
H598 C582 0.931 . S
H599 C587 0.929 . S
H600 C588 0.960 . S
H601 C588 0.962 . S
H602 C588 0.960 . S
H603 C589 0.961 . S
H604 C589 0.961 . S
H605 C589 0.961 . S
H606 C590 0.931 . S
H607 C595 0.930 . S
H608 C596 0.956 . S
H609 C596 0.961 . S
H610 C596 0.961 . S
H611 C597 0.958 . S
H612 C597 0.961 . S
H613 C597 0.960 . S
C614 C615 1.391 . S
C614 C616 1.394 . S
C614 H630 0.931 . S
C615 C614 1.391 . S
C615 C619 1.376 . S
C616 C614 1.394 . S
C616 C617 1.369 . S
C616 C620 1.531 . S
C617 C616 1.369 . S
C617 C618 1.410 . S
C617 C625 1.503 . S
C618 C617 1.410 . S
C618 C619 1.392 . S
C618 C621 1.511 . S
C619 C615 1.376 . S
C619 C618 1.392 . S
C619 H631 0.929 . S
C620 C616 1.531 . S
C620 H632 0.960 . S
C620 H633 0.962 . S
C620 H634 0.960 . S
C621 C618 1.511 . S
C621 H635 0.961 . S
C621 H636 0.961 . S
C621 H637 0.961 . S
C622 C623 1.370 . S
C622 C624 1.363 . S
C622 H638 0.931 . S
C623 C622 1.370 . S
C623 C627 1.408 . S
C624 C622 1.363 . S
C624 C625 1.370 . S
C624 C628 1.524 . S
C625 C617 1.503 . S
C625 C624 1.370 . S
C625 C626 1.403 . S
C626 C625 1.403 . S
C626 C627 1.404 . S
C626 C629 1.539 . S
C627 C623 1.408 . S
C627 C626 1.404 . S
C627 H639 0.930 . S
C628 C624 1.524 . S
C628 H640 0.956 . S
C628 H641 0.961 . S
C628 H642 0.961 . S
C629 C626 1.539 . S
C629 H643 0.958 . S
C629 H644 0.961 . S
C629 H645 0.960 . S
H630 C614 0.931 . S
H631 C619 0.929 . S
H632 C620 0.960 . S
H633 C620 0.962 . S
H634 C620 0.960 . S
H635 C621 0.961 . S
H636 C621 0.961 . S
H637 C621 0.961 . S
H638 C622 0.931 . S
H639 C627 0.930 . S
H640 C628 0.956 . S
H641 C628 0.961 . S
H642 C628 0.961 . S
H643 C629 0.958 . S
H644 C629 0.961 . S
H645 C629 0.960 . S
C646 C647 1.391 . S
C646 C648 1.394 . S
C646 H662 0.931 . S
C647 C646 1.391 . S
C647 C651 1.376 . S
C648 C646 1.394 . S
C648 C649 1.369 . S
C648 C652 1.531 . S
C649 C648 1.369 . S
C649 C650 1.410 . S
C649 C657 1.503 . S
C650 C649 1.410 . S
C650 C651 1.392 . S
C650 C653 1.511 . S
C651 C647 1.376 . S
C651 C650 1.392 . S
C651 H663 0.929 . S
C652 C648 1.531 . S
C652 H664 0.960 . S
C652 H665 0.962 . S
C652 H666 0.960 . S
C653 C650 1.511 . S
C653 H667 0.961 . S
C653 H668 0.961 . S
C653 H669 0.961 . S
C654 C655 1.370 . S
C654 C656 1.363 . S
C654 H670 0.931 . S
C655 C654 1.370 . S
C655 C659 1.408 . S
C656 C654 1.363 . S
C656 C657 1.370 . S
C656 C660 1.524 . S
C657 C649 1.503 . S
C657 C656 1.370 . S
C657 C658 1.403 . S
C658 C657 1.403 . S
C658 C659 1.404 . S
C658 C661 1.539 . S
C659 C655 1.408 . S
C659 C658 1.404 . S
C659 H671 0.930 . S
C660 C656 1.524 . S
C660 H672 0.956 . S
C660 H673 0.961 . S
C660 H674 0.961 . S
C661 C658 1.539 . S
C661 H675 0.958 . S
C661 H676 0.961 . S
C661 H677 0.960 . S
H662 C646 0.931 . S
H663 C651 0.929 . S
H664 C652 0.960 . S
H665 C652 0.962 . S
H666 C652 0.960 . S
H667 C653 0.961 . S
H668 C653 0.961 . S
H669 C653 0.961 . S
H670 C654 0.931 . S
H671 C659 0.930 . S
H672 C660 0.956 . S
H673 C660 0.961 . S
H674 C660 0.961 . S
H675 C661 0.958 . S
H676 C661 0.961 . S
H677 C661 0.960 . S
C678 C679 1.391 . S
C678 C680 1.394 . S
C678 H694 0.931 . S
C679 C678 1.391 . S
C679 C683 1.376 . S
C680 C678 1.394 . S
C680 C681 1.369 . S
C680 C684 1.531 . S
C681 C680 1.369 . S
C681 C682 1.410 . S
C681 C689 1.503 . S
C682 C681 1.410 . S
C682 C683 1.392 . S
C682 C685 1.511 . S
C683 C679 1.376 . S
C683 C682 1.392 . S
C683 H695 0.929 . S
C684 C680 1.531 . S
C684 H696 0.960 . S
C684 H697 0.962 . S
C684 H698 0.960 . S
C685 C682 1.511 . S
C685 H699 0.961 . S
C685 H700 0.961 . S
C685 H701 0.961 . S
C686 C687 1.370 . S
C686 C688 1.363 . S
C686 H702 0.931 . S
C687 C686 1.370 . S
C687 C691 1.408 . S
C688 C686 1.363 . S
C688 C689 1.370 . S
C688 C692 1.524 . S
C689 C681 1.503 . S
C689 C688 1.370 . S
C689 C690 1.403 . S
C690 C689 1.403 . S
C690 C691 1.404 . S
C690 C693 1.539 . S
C691 C687 1.408 . S
C691 C690 1.404 . S
C691 H703 0.930 . S
C692 C688 1.524 . S
C692 H704 0.956 . S
C692 H705 0.961 . S
C692 H706 0.961 . S
C693 C690 1.539 . S
C693 H707 0.958 . S
C693 H708 0.961 . S
C693 H709 0.960 . S
H694 C678 0.931 . S
H695 C683 0.929 . S
H696 C684 0.960 . S
H697 C684 0.962 . S
H698 C684 0.960 . S
H699 C685 0.961 . S
H700 C685 0.961 . S
H701 C685 0.961 . S
H702 C686 0.931 . S
H703 C691 0.930 . S
H704 C692 0.956 . S
H705 C692 0.961 . S
H706 C692 0.961 . S
H707 C693 0.958 . S
H708 C693 0.961 . S
H709 C693 0.960 . S
C710 C711 1.391 . S
C710 C712 1.394 . S
C710 H726 0.931 . S
C711 C710 1.391 . S
C711 C715 1.376 . S
C712 C710 1.394 . S
C712 C713 1.369 . S
C712 C716 1.531 . S
C713 C712 1.369 . S
C713 C714 1.410 . S
C713 C721 1.503 . S
C714 C713 1.410 . S
C714 C715 1.392 . S
C714 C717 1.511 . S
C715 C711 1.376 . S
C715 C714 1.392 . S
C715 H727 0.929 . S
C716 C712 1.531 . S
C716 H728 0.960 . S
C716 H729 0.962 . S
C716 H730 0.960 . S
C717 C714 1.511 . S
C717 H731 0.961 . S
C717 H732 0.961 . S
C717 H733 0.961 . S
C718 C719 1.370 . S
C718 C720 1.363 . S
C718 H734 0.931 . S
C719 C718 1.370 . S
C719 C723 1.408 . S
C720 C718 1.363 . S
C720 C721 1.370 . S
C720 C724 1.524 . S
C721 C713 1.503 . S
C721 C720 1.370 . S
C721 C722 1.403 . S
C722 C721 1.403 . S
C722 C723 1.404 . S
C722 C725 1.539 . S
C723 C719 1.408 . S
C723 C722 1.404 . S
C723 H735 0.930 . S
C724 C720 1.524 . S
C724 H736 0.956 . S
C724 H737 0.961 . S
C724 H738 0.961 . S
C725 C722 1.539 . S
C725 H739 0.958 . S
C725 H740 0.961 1_655 S
C725 H741 0.960 . S
H726 C710 0.931 . S
H727 C715 0.929 . S
H728 C716 0.960 . S
H729 C716 0.962 . S
H730 C716 0.960 . S
H731 C717 0.961 . S
H732 C717 0.961 . S
H733 C717 0.961 . S
H734 C718 0.931 . S
H735 C723 0.930 . S
H736 C724 0.956 . S
H737 C724 0.961 . S
H738 C724 0.961 . S
H739 C725 0.958 . S
H740 C725 0.961 1_455 S
H741 C725 0.960 . S
C742 C743 1.391 . S
C742 C744 1.394 . S
C742 H758 0.931 . S
C743 C742 1.391 . S
C743 C747 1.376 . S
C744 C742 1.394 . S
C744 C745 1.369 . S
C744 C748 1.531 . S
C745 C744 1.369 . S
C745 C746 1.410 . S
C745 C753 1.503 . S
C746 C745 1.410 . S
C746 C747 1.392 . S
C746 C749 1.511 . S
C747 C743 1.376 . S
C747 C746 1.392 . S
C747 H759 0.929 . S
C748 C744 1.531 . S
C748 H760 0.960 . S
C748 H761 0.962 . S
C748 H762 0.960 . S
C749 C746 1.511 . S
C749 H763 0.961 . S
C749 H764 0.961 . S
C749 H765 0.961 . S
C750 C751 1.370 . S
C750 C752 1.363 . S
C750 H766 0.931 . S
C751 C750 1.370 . S
C751 C755 1.408 . S
C752 C750 1.363 . S
C752 C753 1.370 . S
C752 C756 1.524 . S
C753 C745 1.503 . S
C753 C752 1.370 . S
C753 C754 1.403 . S
C754 C753 1.403 . S
C754 C755 1.404 . S
C754 C757 1.539 . S
C755 C751 1.408 . S
C755 C754 1.404 . S
C755 H767 0.930 . S
C756 C752 1.524 . S
C756 H768 0.956 . S
C756 H769 0.961 . S
C756 H770 0.961 . S
C757 C754 1.539 . S
C757 H771 0.958 . S
C757 H772 0.961 . S
C757 H773 0.960 . S
H758 C742 0.931 . S
H759 C747 0.929 . S
H760 C748 0.960 . S
H761 C748 0.962 . S
H762 C748 0.960 . S
H763 C749 0.961 . S
H764 C749 0.961 . S
H765 C749 0.961 . S
H766 C750 0.931 . S
H767 C755 0.930 . S
H768 C756 0.956 . S
H769 C756 0.961 . S
H770 C756 0.961 . S
H771 C757 0.958 . S
H772 C757 0.961 . S
H773 C757 0.960 . S
C774 C775 1.391 . S
C774 C776 1.394 . S
C774 H790 0.931 . S
C775 C774 1.391 . S
C775 C779 1.376 . S
C776 C774 1.394 . S
C776 C777 1.369 . S
C776 C780 1.531 . S
C777 C776 1.369 . S
C777 C778 1.410 . S
C777 C785 1.503 . S
C778 C777 1.410 . S
C778 C779 1.392 . S
C778 C781 1.511 . S
C779 C775 1.376 . S
C779 C778 1.392 . S
C779 H791 0.929 . S
C780 C776 1.531 . S
C780 H792 0.960 . S
C780 H793 0.962 . S
C780 H794 0.960 . S
C781 C778 1.511 . S
C781 H795 0.961 . S
C781 H796 0.961 . S
C781 H797 0.961 . S
C782 C783 1.370 . S
C782 C784 1.363 . S
C782 H798 0.931 . S
C783 C782 1.370 . S
C783 C787 1.408 . S
C784 C782 1.363 . S
C784 C785 1.370 . S
C784 C788 1.524 . S
C785 C777 1.503 . S
C785 C784 1.370 . S
C785 C786 1.403 . S
C786 C785 1.403 . S
C786 C787 1.404 . S
C786 C789 1.539 . S
C787 C783 1.408 . S
C787 C786 1.404 . S
C787 H799 0.930 . S
C788 C784 1.524 . S
C788 H800 0.956 . S
C788 H801 0.961 . S
C788 H802 0.961 . S
C789 C786 1.539 . S
C789 H803 0.958 . S
C789 H804 0.961 . S
C789 H805 0.960 . S
H790 C774 0.931 . S
H791 C779 0.929 . S
H792 C780 0.960 . S
H793 C780 0.962 . S
H794 C780 0.960 . S
H795 C781 0.961 . S
H796 C781 0.961 . S
H797 C781 0.961 . S
H798 C782 0.931 . S
H799 C787 0.930 . S
H800 C788 0.956 . S
H801 C788 0.961 . S
H802 C788 0.961 . S
H803 C789 0.958 . S
H804 C789 0.961 . S
H805 C789 0.960 . S
C806 C807 1.391 . S
C806 C808 1.394 . S
C806 H822 0.931 . S
C807 C806 1.391 . S
C807 C811 1.376 . S
C808 C806 1.394 . S
C808 C809 1.369 . S
C808 C812 1.531 . S
C809 C808 1.369 . S
C809 C810 1.410 . S
C809 C817 1.503 . S
C810 C809 1.410 . S
C810 C811 1.392 . S
C810 C813 1.511 . S
C811 C807 1.376 . S
C811 C810 1.392 . S
C811 H823 0.929 . S
C812 C808 1.531 . S
C812 H824 0.960 . S
C812 H825 0.962 . S
C812 H826 0.960 . S
C813 C810 1.511 . S
C813 H827 0.961 . S
C813 H828 0.961 . S
C813 H829 0.961 . S
C814 C815 1.370 . S
C814 C816 1.363 . S
C814 H830 0.931 . S
C815 C814 1.370 . S
C815 C819 1.408 . S
C816 C814 1.363 . S
C816 C817 1.370 . S
C816 C820 1.524 . S
C817 C809 1.503 . S
C817 C816 1.370 . S
C817 C818 1.403 . S
C818 C817 1.403 . S
C818 C819 1.404 . S
C818 C821 1.539 . S
C819 C815 1.408 . S
C819 C818 1.404 . S
C819 H831 0.930 . S
C820 C816 1.524 . S
C820 H832 0.956 . S
C820 H833 0.961 . S
C820 H834 0.961 . S
C821 C818 1.539 . S
C821 H835 0.958 . S
C821 H836 0.961 . S
C821 H837 0.960 . S
H822 C806 0.931 . S
H823 C811 0.929 . S
H824 C812 0.960 . S
H825 C812 0.962 . S
H826 C812 0.960 . S
H827 C813 0.961 . S
H828 C813 0.961 . S
H829 C813 0.961 . S
H830 C814 0.931 . S
H831 C819 0.930 . S
H832 C820 0.956 . S
H833 C820 0.961 . S
H834 C820 0.961 . S
H835 C821 0.958 . S
H836 C821 0.961 . S
H837 C821 0.960 . S
C838 C839 1.391 . S
C838 C840 1.394 . S
C838 H854 0.931 . S
C839 C838 1.391 . S
C839 C843 1.376 . S
C840 C838 1.394 . S
C840 C841 1.369 . S
C840 C844 1.531 . S
C841 C840 1.369 . S
C841 C842 1.410 . S
C841 C849 1.503 . S
C842 C841 1.410 . S
C842 C843 1.392 . S
C842 C845 1.511 . S
C843 C839 1.376 . S
C843 C842 1.392 . S
C843 H855 0.929 . S
C844 C840 1.531 . S
C844 H856 0.960 . S
C844 H857 0.962 . S
C844 H858 0.960 . S
C845 C842 1.511 . S
C845 H859 0.961 . S
C845 H860 0.961 . S
C845 H861 0.961 . S
C846 C847 1.370 . S
C846 C848 1.363 . S
C846 H862 0.931 . S
C847 C846 1.370 . S
C847 C851 1.408 . S
C848 C846 1.363 . S
C848 C849 1.370 . S
C848 C852 1.524 . S
C849 C841 1.503 . S
C849 C848 1.370 . S
C849 C850 1.403 . S
C850 C849 1.403 . S
C850 C851 1.404 . S
C850 C853 1.539 . S
C851 C847 1.408 . S
C851 C850 1.404 . S
C851 H863 0.930 . S
C852 C848 1.524 . S
C852 H864 0.956 . S
C852 H865 0.961 . S
C852 H866 0.961 . S
C853 C850 1.539 . S
C853 H867 0.958 . S
C853 H868 0.961 . S
C853 H869 0.960 . S
H854 C838 0.931 . S
H855 C843 0.929 . S
H856 C844 0.960 . S
H857 C844 0.962 . S
H858 C844 0.960 . S
H859 C845 0.961 . S
H860 C845 0.961 . S
H861 C845 0.961 . S
H862 C846 0.931 . S
H863 C851 0.930 . S
H864 C852 0.956 . S
H865 C852 0.961 . S
H866 C852 0.961 . S
H867 C853 0.958 . S
H868 C853 0.961 . S
H869 C853 0.960 . S
C870 C871 1.391 . S
C870 C872 1.394 . S
C870 H886 0.931 . S
C871 C870 1.391 . S
C871 C875 1.376 . S
C872 C870 1.394 . S
C872 C873 1.369 . S
C872 C876 1.531 . S
C873 C872 1.369 . S
C873 C874 1.410 . S
C873 C881 1.503 . S
C874 C873 1.410 . S
C874 C875 1.392 . S
C874 C877 1.511 . S
C875 C871 1.376 . S
C875 C874 1.392 . S
C875 H887 0.929 . S
C876 C872 1.531 . S
C876 H888 0.960 . S
C876 H889 0.962 . S
C876 H890 0.960 . S
C877 C874 1.511 . S
C877 H891 0.961 . S
C877 H892 0.961 . S
C877 H893 0.961 . S
C878 C879 1.370 . S
C878 C880 1.363 . S
C878 H894 0.931 . S
C879 C878 1.370 . S
C879 C883 1.408 . S
C880 C878 1.363 . S
C880 C881 1.370 . S
C880 C884 1.524 . S
C881 C873 1.503 . S
C881 C880 1.370 . S
C881 C882 1.403 . S
C882 C881 1.403 . S
C882 C883 1.404 . S
C882 C885 1.539 . S
C883 C879 1.408 . S
C883 C882 1.404 . S
C883 H895 0.930 . S
C884 C880 1.524 . S
C884 H896 0.956 . S
C884 H897 0.961 . S
C884 H898 0.961 . S
C885 C882 1.539 . S
C885 H899 0.958 . S
C885 H900 0.961 . S
C885 H901 0.960 . S
H886 C870 0.931 . S
H887 C875 0.929 . S
H888 C876 0.960 . S
H889 C876 0.962 . S
H890 C876 0.960 . S
H891 C877 0.961 . S
H892 C877 0.961 . S
H893 C877 0.961 . S
H894 C878 0.931 . S
H895 C883 0.930 . S
H896 C884 0.956 . S
H897 C884 0.961 . S
H898 C884 0.961 . S
H899 C885 0.958 . S
H900 C885 0.961 . S
H901 C885 0.960 . S
C902 C903 1.391 . S
C902 C904 1.394 . S
C902 H918 0.931 . S
C903 C902 1.391 . S
C903 C907 1.376 . S
C904 C902 1.394 . S
C904 C905 1.369 . S
C904 C908 1.531 . S
C905 C904 1.369 . S
C905 C906 1.410 . S
C905 C913 1.503 . S
C906 C905 1.410 . S
C906 C907 1.392 . S
C906 C909 1.511 . S
C907 C903 1.376 . S
C907 C906 1.392 . S
C907 H919 0.929 . S
C908 C904 1.531 . S
C908 H920 0.960 . S
C908 H921 0.962 . S
C908 H922 0.960 . S
C909 C906 1.511 . S
C909 H923 0.961 . S
C909 H924 0.961 . S
C909 H925 0.961 . S
C910 C911 1.370 . S
C910 C912 1.363 . S
C910 H926 0.931 . S
C911 C910 1.370 . S
C911 C915 1.408 . S
C912 C910 1.363 . S
C912 C913 1.370 . S
C912 C916 1.524 . S
C913 C905 1.503 . S
C913 C912 1.370 . S
C913 C914 1.403 . S
C914 C913 1.403 . S
C914 C915 1.404 . S
C914 C917 1.539 . S
C915 C911 1.408 . S
C915 C914 1.404 . S
C915 H927 0.930 . S
C916 C912 1.524 . S
C916 H928 0.956 . S
C916 H929 0.961 . S
C916 H930 0.961 . S
C917 C914 1.539 . S
C917 H931 0.958 . S
C917 H932 0.961 . S
C917 H933 0.960 . S
H918 C902 0.931 . S
H919 C907 0.929 . S
H920 C908 0.960 . S
H921 C908 0.962 . S
H922 C908 0.960 . S
H923 C909 0.961 . S
H924 C909 0.961 . S
H925 C909 0.961 . S
H926 C910 0.931 . S
H927 C915 0.930 . S
H928 C916 0.956 . S
H929 C916 0.961 . S
H930 C916 0.961 . S
H931 C917 0.958 . S
H932 C917 0.961 . S
H933 C917 0.960 . S
C934 C935 1.391 . S
C934 C936 1.394 . S
C934 H950 0.931 . S
C935 C934 1.391 . S
C935 C939 1.376 . S
C936 C934 1.394 . S
C936 C937 1.369 . S
C936 C940 1.531 . S
C937 C936 1.369 . S
C937 C938 1.410 . S
C937 C945 1.503 . S
C938 C937 1.410 . S
C938 C939 1.392 . S
C938 C941 1.511 1_556 S
C939 C935 1.376 . S
C939 C938 1.392 . S
C939 H951 0.929 . S
C940 C936 1.531 . S
C940 H952 0.960 . S
C940 H953 0.962 . S
C940 H954 0.960 . S
C941 C938 1.511 1_554 S
C941 H955 0.961 . S
C941 H956 0.961 . S
C941 H957 0.959 . S
C942 C943 1.370 . S
C942 C944 1.363 . S
C942 H958 0.931 1_556 S
C943 C942 1.370 . S
C943 C947 1.408 . S
C944 C942 1.363 . S
C944 C945 1.370 . S
C944 C948 1.524 . S
C945 C937 1.503 . S
C945 C944 1.370 . S
C945 C946 1.403 . S
C946 C945 1.403 . S
C946 C947 1.404 . S
C946 C949 1.539 . S
C947 C943 1.408 . S
C947 C946 1.404 . S
C947 H959 0.930 . S
C948 C944 1.524 . S
C948 H960 0.956 . S
C948 H961 0.961 . S
C948 H962 0.961 . S
C949 C946 1.539 . S
C949 H963 0.958 . S
C949 H964 0.961 . S
C949 H965 0.960 . S
H950 C934 0.931 . S
H951 C939 0.929 . S
H952 C940 0.960 . S
H953 C940 0.962 . S
H954 C940 0.960 . S
H955 C941 0.961 . S
H956 C941 0.961 . S
H957 C941 0.959 . S
H958 C942 0.931 1_554 S
H959 C947 0.930 . S
H960 C948 0.956 . S
H961 C948 0.961 . S
H962 C948 0.961 . S
H963 C949 0.958 . S
H964 C949 0.961 . S
H965 C949 0.960 . S
C966 C967 1.391 . S
C966 C968 1.394 . S
C966 H982 0.931 . S
C967 C966 1.391 . S
C967 C971 1.376 . S
C968 C966 1.394 . S
C968 C969 1.369 . S
C968 C972 1.531 . S
C969 C968 1.369 . S
C969 C970 1.410 . S
C969 C977 1.503 . S
C970 C969 1.410 . S
C970 C971 1.392 . S
C970 C973 1.511 . S
C971 C967 1.376 . S
C971 C970 1.392 . S
C971 H983 0.929 . S
C972 C968 1.531 . S
C972 H984 0.960 . S
C972 H985 0.962 . S
C972 H986 0.960 . S
C973 C970 1.511 . S
C973 H987 0.961 . S
C973 H988 0.961 . S
C973 H989 0.961 . S
C974 C975 1.370 . S
C974 C976 1.363 . S
C974 H990 0.931 . S
C975 C974 1.370 . S
C975 C979 1.408 . S
C976 C974 1.363 . S
C976 C977 1.370 . S
C976 C980 1.524 . S
C977 C969 1.503 . S
C977 C976 1.370 . S
C977 C978 1.403 . S
C978 C977 1.403 . S
C978 C979 1.404 . S
C978 C981 1.539 . S
C979 C975 1.408 . S
C979 C978 1.404 . S
C979 H991 0.930 . S
C980 C976 1.524 . S
C980 H992 0.956 . S
C980 H993 0.961 . S
C980 H994 0.961 . S
C981 C978 1.539 . S
C981 H995 0.958 . S
C981 H996 0.961 . S
C981 H997 0.960 . S
H982 C966 0.931 . S
H983 C971 0.929 . S
H984 C972 0.960 . S
H985 C972 0.962 . S
H986 C972 0.960 . S
H987 C973 0.961 . S
H988 C973 0.961 . S
H989 C973 0.961 . S
H990 C974 0.931 . S
H991 C979 0.930 . S
H992 C980 0.956 . S
H993 C980 0.961 . S
H994 C980 0.961 . S
H995 C981 0.958 . S
H996 C981 0.961 . S
H997 C981 0.960 . S
C998 C999 1.391 1_554 S
C998 C1000 1.394 . S
C998 H1014 0.931 . S
C999 C998 1.391 1_556 S
C999 C1003 1.376 . S
C1000 C998 1.394 . S
C1000 C1001 1.369 . S
C1000 C1004 1.531 . S
C1001 C1000 1.369 . S
C1001 C1002 1.410 1_554 S
C1001 C1009 1.503 . S
C1002 C1001 1.410 1_556 S
C1002 C1003 1.392 . S
C1002 C1005 1.511 . S
C1003 C999 1.376 . S
C1003 C1002 1.392 . S
C1003 H1015 0.929 . S
C1004 C1000 1.531 . S
C1004 H1016 0.960 . S
C1004 H1017 0.962 . S
C1004 H1018 0.960 . S
C1005 C1002 1.511 . S
C1005 H1019 0.961 . S
C1005 H1020 0.961 . S
C1005 H1021 0.961 . S
C1006 C1007 1.370 1_556 S
C1006 C1008 1.363 . S
C1006 H1022 0.931 . S
C1007 C1006 1.370 1_554 S
C1007 C1011 1.408 . S
C1008 C1006 1.363 . S
C1008 C1009 1.370 1_556 S
C1008 C1012 1.524 . S
C1009 C1001 1.503 . S
C1009 C1008 1.370 1_554 S
C1009 C1010 1.403 . S
C1010 C1009 1.403 . S
C1010 C1011 1.404 . S
C1010 C1013 1.539 . S
C1011 C1007 1.408 . S
C1011 C1010 1.404 . S
C1011 H1023 0.930 . S
C1012 C1008 1.524 . S
C1012 H1024 0.956 . S
C1012 H1025 0.961 . S
C1012 H1026 0.961 . S
C1013 C1010 1.539 . S
C1013 H1027 0.958 . S
C1013 H1028 0.961 . S
C1013 H1029 0.960 . S
H1014 C998 0.931 . S
H1015 C1003 0.929 . S
H1016 C1004 0.960 . S
H1017 C1004 0.962 . S
H1018 C1004 0.960 . S
H1019 C1005 0.961 . S
H1020 C1005 0.961 . S
H1021 C1005 0.961 . S
H1022 C1006 0.931 . S
H1023 C1011 0.930 . S
H1024 C1012 0.956 . S
H1025 C1012 0.961 . S
H1026 C1012 0.961 . S
H1027 C1013 0.958 . S
H1028 C1013 0.961 . S
H1029 C1013 0.960 . S
C1030 C1031 1.391 . S
C1030 C1032 1.394 . S
C1030 H1046 0.931 . S
C1031 C1030 1.391 . S
C1031 C1035 1.376 . S
C1032 C1030 1.394 . S
C1032 C1033 1.369 . S
C1032 C1036 1.531 . S
C1033 C1032 1.369 . S
C1033 C1034 1.410 . S
C1033 C1041 1.503 . S
C1034 C1033 1.410 . S
C1034 C1035 1.392 . S
C1034 C1037 1.511 . S
C1035 C1031 1.376 . S
C1035 C1034 1.392 . S
C1035 H1047 0.929 . S
C1036 C1032 1.531 . S
C1036 H1048 0.960 . S
C1036 H1049 0.962 . S
C1036 H1050 0.960 . S
C1037 C1034 1.511 . S
C1037 H1051 0.961 . S
C1037 H1052 0.961 . S
C1037 H1053 0.961 . S
C1038 C1039 1.370 . S
C1038 C1040 1.363 . S
C1038 H1054 0.931 . S
C1039 C1038 1.370 . S
C1039 C1043 1.408 . S
C1040 C1038 1.363 . S
C1040 C1041 1.370 . S
C1040 C1044 1.524 . S
C1041 C1033 1.503 . S
C1041 C1040 1.370 . S
C1041 C1042 1.403 . S
C1042 C1041 1.403 . S
C1042 C1043 1.404 . S
C1042 C1045 1.539 . S
C1043 C1039 1.408 . S
C1043 C1042 1.404 . S
C1043 H1055 0.930 . S
C1044 C1040 1.524 . S
C1044 H1056 0.956 . S
C1044 H1057 0.961 . S
C1044 H1058 0.961 . S
C1045 C1042 1.539 . S
C1045 H1059 0.958 . S
C1045 H1060 0.961 . S
C1045 H1061 0.960 . S
H1046 C1030 0.931 . S
H1047 C1035 0.929 . S
H1048 C1036 0.960 . S
H1049 C1036 0.962 . S
H1050 C1036 0.960 . S
H1051 C1037 0.961 . S
H1052 C1037 0.961 . S
H1053 C1037 0.961 . S
H1054 C1038 0.931 . S
H1055 C1043 0.930 . S
H1056 C1044 0.956 . S
H1057 C1044 0.961 . S
H1058 C1044 0.961 . S
H1059 C1045 0.958 . S
H1060 C1045 0.961 . S
H1061 C1045 0.960 . S
C1062 C1063 1.391 . S
C1062 C1064 1.394 . S
C1062 H1078 0.931 . S
C1063 C1062 1.391 . S
C1063 C1067 1.376 . S
C1064 C1062 1.394 . S
C1064 C1065 1.369 . S
C1064 C1068 1.531 . S
C1065 C1064 1.369 . S
C1065 C1066 1.410 . S
C1065 C1073 1.503 . S
C1066 C1065 1.410 . S
C1066 C1067 1.392 . S
C1066 C1069 1.511 1_556 S
C1067 C1063 1.376 . S
C1067 C1066 1.392 . S
C1067 H1079 0.929 . S
C1068 C1064 1.531 . S
C1068 H1080 0.960 . S
C1068 H1081 0.962 . S
C1068 H1082 0.960 . S
C1069 C1066 1.511 1_554 S
C1069 H1083 0.961 . S
C1069 H1084 0.961 . S
C1069 H1085 0.961 . S
C1070 C1071 1.370 . S
C1070 C1072 1.363 . S
C1070 H1086 0.931 . S
C1071 C1070 1.370 . S
C1071 C1075 1.408 1_554 S
C1072 C1070 1.363 . S
C1072 C1073 1.370 1_554 S
C1072 C1076 1.524 . S
C1073 C1065 1.503 . S
C1073 C1072 1.370 1_556 S
C1073 C1074 1.403 . S
C1074 C1073 1.403 . S
C1074 C1075 1.404 . S
C1074 C1077 1.539 . S
C1075 C1071 1.408 1_556 S
C1075 C1074 1.404 . S
C1075 H1087 0.930 . S
C1076 C1072 1.524 . S
C1076 H1088 0.956 1_554 S
C1076 H1089 0.961 . S
C1076 H1090 0.961 . S
C1077 C1074 1.539 . S
C1077 H1091 0.958 . S
C1077 H1092 0.961 . S
C1077 H1093 0.960 . S
H1078 C1062 0.931 . S
H1079 C1067 0.929 . S
H1080 C1068 0.960 . S
H1081 C1068 0.962 . S
H1082 C1068 0.960 . S
H1083 C1069 0.961 . S
H1084 C1069 0.961 . S
H1085 C1069 0.961 . S
H1086 C1070 0.931 . S
H1087 C1075 0.930 . S
H1088 C1076 0.956 1_556 S
H1089 C1076 0.961 . S
H1090 C1076 0.961 . S
H1091 C1077 0.958 . S
H1092 C1077 0.961 . S
H1093 C1077 0.960 . S
C1094 C1095 1.391 . S
C1094 C1096 1.394 . S
C1094 H1110 0.931 . S
C1095 C1094 1.391 . S
C1095 C1099 1.376 . S
C1096 C1094 1.394 . S
C1096 C1097 1.369 . S
C1096 C1100 1.531 . S
C1097 C1096 1.369 . S
C1097 C1098 1.410 . S
C1097 C1105 1.503 . S
C1098 C1097 1.410 . S
C1098 C1099 1.392 . S
C1098 C1101 1.511 . S
C1099 C1095 1.376 . S
C1099 C1098 1.392 . S
C1099 H1111 0.929 . S
C1100 C1096 1.531 . S
C1100 H1112 0.960 . S
C1100 H1113 0.962 . S
C1100 H1114 0.960 . S
C1101 C1098 1.511 . S
C1101 H1115 0.961 . S
C1101 H1116 0.961 . S
C1101 H1117 0.961 . S
C1102 C1103 1.370 . S
C1102 C1104 1.363 . S
C1102 H1118 0.931 . S
C1103 C1102 1.370 . S
C1103 C1107 1.408 . S
C1104 C1102 1.363 . S
C1104 C1105 1.370 . S
C1104 C1108 1.524 . S
C1105 C1097 1.503 . S
C1105 C1104 1.370 . S
C1105 C1106 1.403 . S
C1106 C1105 1.403 . S
C1106 C1107 1.404 . S
C1106 C1109 1.539 . S
C1107 C1103 1.408 . S
C1107 C1106 1.404 . S
C1107 H1119 0.930 . S
C1108 C1104 1.524 . S
C1108 H1120 0.956 . S
C1108 H1121 0.961 . S
C1108 H1122 0.961 . S
C1109 C1106 1.539 . S
C1109 H1123 0.958 . S
C1109 H1124 0.961 . S
C1109 H1125 0.960 . S
H1110 C1094 0.931 . S
H1111 C1099 0.929 . S
H1112 C1100 0.960 . S
H1113 C1100 0.962 . S
H1114 C1100 0.960 . S
H1115 C1101 0.961 . S
H1116 C1101 0.961 . S
H1117 C1101 0.961 . S
H1118 C1102 0.931 . S
H1119 C1107 0.930 . S
H1120 C1108 0.956 . S
H1121 C1108 0.961 . S
H1122 C1108 0.961 . S
H1123 C1109 0.958 . S
H1124 C1109 0.961 . S
H1125 C1109 0.960 . S
C1126 C1127 1.391 . S
C1126 C1128 1.394 . S
C1126 H1142 0.931 . S
C1127 C1126 1.391 . S
C1127 C1131 1.376 . S
C1128 C1126 1.394 . S
C1128 C1129 1.369 . S
C1128 C1132 1.531 . S
C1129 C1128 1.369 . S
C1129 C1130 1.410 . S
C1129 C1137 1.503 . S
C1130 C1129 1.410 . S
C1130 C1131 1.392 . S
C1130 C1133 1.511 . S
C1131 C1127 1.376 . S
C1131 C1130 1.392 . S
C1131 H1143 0.929 . S
C1132 C1128 1.531 . S
C1132 H1144 0.960 . S
C1132 H1145 0.962 . S
C1132 H1146 0.960 . S
C1133 C1130 1.511 . S
C1133 H1147 0.961 . S
C1133 H1148 0.961 . S
C1133 H1149 0.961 . S
C1134 C1135 1.370 . S
C1134 C1136 1.363 . S
C1134 H1150 0.931 . S
C1135 C1134 1.370 . S
C1135 C1139 1.408 1_556 S
C1136 C1134 1.363 . S
C1136 C1137 1.370 . S
C1136 C1140 1.524 . S
C1137 C1129 1.503 . S
C1137 C1136 1.370 . S
C1137 C1138 1.403 . S
C1138 C1137 1.403 . S
C1138 C1139 1.404 1_556 S
C1138 C1141 1.539 1_556 S
C1139 C1135 1.408 1_554 S
C1139 C1138 1.404 1_554 S
C1139 H1151 0.930 . S
C1140 C1136 1.524 . S
C1140 H1152 0.956 . S
C1140 H1153 0.961 . S
C1140 H1154 0.961 . S
C1141 C1138 1.539 1_554 S
C1141 H1155 0.958 . S
C1141 H1156 0.961 . S
C1141 H1157 0.960 . S
H1142 C1126 0.931 . S
H1143 C1131 0.929 . S
H1144 C1132 0.960 . S
H1145 C1132 0.962 . S
H1146 C1132 0.960 . S
H1147 C1133 0.961 . S
H1148 C1133 0.961 . S
H1149 C1133 0.961 . S
H1150 C1134 0.931 . S
H1151 C1139 0.930 . S
H1152 C1140 0.956 . S
H1153 C1140 0.961 . S
H1154 C1140 0.961 . S
H1155 C1141 0.958 . S
H1156 C1141 0.961 . S
H1157 C1141 0.960 . S
C1158 C1159 1.391 . S
C1158 C1160 1.394 . S
C1158 H1174 0.931 . S
C1159 C1158 1.391 . S
C1159 C1163 1.376 . S
C1160 C1158 1.394 . S
C1160 C1161 1.369 . S
C1160 C1164 1.531 . S
C1161 C1160 1.369 . S
C1161 C1162 1.410 . S
C1161 C1169 1.503 . S
C1162 C1161 1.410 . S
C1162 C1163 1.392 . S
C1162 C1165 1.511 . S
C1163 C1159 1.376 . S
C1163 C1162 1.392 . S
C1163 H1175 0.929 . S
C1164 C1160 1.531 . S
C1164 H1176 0.960 . S
C1164 H1177 0.962 . S
C1164 H1178 0.960 . S
C1165 C1162 1.511 . S
C1165 H1179 0.961 . S
C1165 H1180 0.961 . S
C1165 H1181 0.961 . S
C1166 C1167 1.370 . S
C1166 C1168 1.363 . S
C1166 H1182 0.931 . S
C1167 C1166 1.370 . S
C1167 C1171 1.408 . S
C1168 C1166 1.363 . S
C1168 C1169 1.370 . S
C1168 C1172 1.524 . S
C1169 C1161 1.503 . S
C1169 C1168 1.370 . S
C1169 C1170 1.403 . S
C1170 C1169 1.403 . S
C1170 C1171 1.404 . S
C1170 C1173 1.539 . S
C1171 C1167 1.408 . S
C1171 C1170 1.404 . S
C1171 H1183 0.930 . S
C1172 C1168 1.524 . S
C1172 H1184 0.956 . S
C1172 H1185 0.961 . S
C1172 H1186 0.961 . S
C1173 C1170 1.539 . S
C1173 H1187 0.958 . S
C1173 H1188 0.961 . S
C1173 H1189 0.960 . S
H1174 C1158 0.931 . S
H1175 C1163 0.929 . S
H1176 C1164 0.960 . S
H1177 C1164 0.962 . S
H1178 C1164 0.960 . S
H1179 C1165 0.961 . S
H1180 C1165 0.961 . S
H1181 C1165 0.961 . S
H1182 C1166 0.931 . S
H1183 C1171 0.930 . S
H1184 C1172 0.956 . S
H1185 C1172 0.961 . S
H1186 C1172 0.961 . S
H1187 C1173 0.958 . S
H1188 C1173 0.961 . S
H1189 C1173 0.960 . S
C1190 C1191 1.391 . S
C1190 C1192 1.394 . S
C1190 H1206 0.931 . S
C1191 C1190 1.391 . S
C1191 C1195 1.376 . S
C1192 C1190 1.394 . S
C1192 C1193 1.369 . S
C1192 C1196 1.531 . S
C1193 C1192 1.369 . S
C1193 C1194 1.410 . S
C1193 C1201 1.503 . S
C1194 C1193 1.410 . S
C1194 C1195 1.392 . S
C1194 C1197 1.511 . S
C1195 C1191 1.376 . S
C1195 C1194 1.392 . S
C1195 H1207 0.929 . S
C1196 C1192 1.531 . S
C1196 H1208 0.960 . S
C1196 H1209 0.962 . S
C1196 H1210 0.960 . S
C1197 C1194 1.511 . S
C1197 H1211 0.961 . S
C1197 H1212 0.961 . S
C1197 H1213 0.961 . S
C1198 C1199 1.370 . S
C1198 C1200 1.363 . S
C1198 H1214 0.931 . S
C1199 C1198 1.370 . S
C1199 C1203 1.408 . S
C1200 C1198 1.363 . S
C1200 C1201 1.370 . S
C1200 C1204 1.524 . S
C1201 C1193 1.503 . S
C1201 C1200 1.370 . S
C1201 C1202 1.403 . S
C1202 C1201 1.403 . S
C1202 C1203 1.404 . S
C1202 C1205 1.539 . S
C1203 C1199 1.408 . S
C1203 C1202 1.404 . S
C1203 H1215 0.930 . S
C1204 C1200 1.524 . S
C1204 H1216 0.956 . S
C1204 H1217 0.961 . S
C1204 H1218 0.961 . S
C1205 C1202 1.539 . S
C1205 H1219 0.958 . S
C1205 H1220 0.961 . S
C1205 H1221 0.960 . S
H1206 C1190 0.931 . S
H1207 C1195 0.929 . S
H1208 C1196 0.960 . S
H1209 C1196 0.962 . S
H1210 C1196 0.960 . S
H1211 C1197 0.961 . S
H1212 C1197 0.961 . S
H1213 C1197 0.961 . S
H1214 C1198 0.931 . S
H1215 C1203 0.930 . S
H1216 C1204 0.956 . S
H1217 C1204 0.961 . S
H1218 C1204 0.961 . S
H1219 C1205 0.958 . S
H1220 C1205 0.961 . S
H1221 C1205 0.960 . S
C1222 C1223 1.391 . S
C1222 C1224 1.394 . S
C1222 H1238 0.931 . S
C1223 C1222 1.391 . S
C1223 C1227 1.376 . S
C1224 C1222 1.394 . S
C1224 C1225 1.369 . S
C1224 C1228 1.531 . S
C1225 C1224 1.369 . S
C1225 C1226 1.410 . S
C1225 C1233 1.503 . S
C1226 C1225 1.410 . S
C1226 C1227 1.392 . S
C1226 C1229 1.511 . S
C1227 C1223 1.376 . S
C1227 C1226 1.392 . S
C1227 H1239 0.929 . S
C1228 C1224 1.531 . S
C1228 H1240 0.960 . S
C1228 H1241 0.962 . S
C1228 H1242 0.960 . S
C1229 C1226 1.511 . S
C1229 H1243 0.961 . S
C1229 H1244 0.961 . S
C1229 H1245 0.961 . S
C1230 C1231 1.370 . S
C1230 C1232 1.363 . S
C1230 H1246 0.931 . S
C1231 C1230 1.370 . S
C1231 C1235 1.408 . S
C1232 C1230 1.363 . S
C1232 C1233 1.370 . S
C1232 C1236 1.524 . S
C1233 C1225 1.503 . S
C1233 C1232 1.370 . S
C1233 C1234 1.403 . S
C1234 C1233 1.403 . S
C1234 C1235 1.404 . S
C1234 C1237 1.539 . S
C1235 C1231 1.408 . S
C1235 C1234 1.404 . S
C1235 H1247 0.930 . S
C1236 C1232 1.524 . S
C1236 H1248 0.956 . S
C1236 H1249 0.961 . S
C1236 H1250 0.961 . S
C1237 C1234 1.539 . S
C1237 H1251 0.958 . S
C1237 H1252 0.961 . S
C1237 H1253 0.960 . S
H1238 C1222 0.931 . S
H1239 C1227 0.929 . S
H1240 C1228 0.960 . S
H1241 C1228 0.962 . S
H1242 C1228 0.960 . S
H1243 C1229 0.961 . S
H1244 C1229 0.961 . S
H1245 C1229 0.961 . S
H1246 C1230 0.931 . S
H1247 C1235 0.930 . S
H1248 C1236 0.956 . S
H1249 C1236 0.961 . S
H1250 C1236 0.961 . S
H1251 C1237 0.958 . S
H1252 C1237 0.961 . S
H1253 C1237 0.960 . S
C1254 C1255 1.391 . S
C1254 C1256 1.394 . S
C1254 H1270 0.931 . S
C1255 C1254 1.391 . S
C1255 C1259 1.376 . S
C1256 C1254 1.394 . S
C1256 C1257 1.369 . S
C1256 C1260 1.531 . S
C1257 C1256 1.369 . S
C1257 C1258 1.410 . S
C1257 C1265 1.503 . S
C1258 C1257 1.410 . S
C1258 C1259 1.392 . S
C1258 C1261 1.511 . S
C1259 C1255 1.376 . S
C1259 C1258 1.392 . S
C1259 H1271 0.929 . S
C1260 C1256 1.531 . S
C1260 H1272 0.960 . S
C1260 H1273 0.962 . S
C1260 H1274 0.960 . S
C1261 C1258 1.511 . S
C1261 H1275 0.961 . S
C1261 H1276 0.961 . S
C1261 H1277 0.961 . S
C1262 C1263 1.370 . S
C1262 C1264 1.363 . S
C1262 H1278 0.931 . S
C1263 C1262 1.370 . S
C1263 C1267 1.408 . S
C1264 C1262 1.363 . S
C1264 C1265 1.370 . S
C1264 C1268 1.524 . S
C1265 C1257 1.503 . S
C1265 C1264 1.370 . S
C1265 C1266 1.403 . S
C1266 C1265 1.403 . S
C1266 C1267 1.404 . S
C1266 C1269 1.539 . S
C1267 C1263 1.408 . S
C1267 C1266 1.404 . S
C1267 H1279 0.930 . S
C1268 C1264 1.524 . S
C1268 H1280 0.956 . S
C1268 H1281 0.961 . S
C1268 H1282 0.961 . S
C1269 C1266 1.539 . S
C1269 H1283 0.958 . S
C1269 H1284 0.961 . S
C1269 H1285 0.960 . S
H1270 C1254 0.931 . S
H1271 C1259 0.929 . S
H1272 C1260 0.960 . S
H1273 C1260 0.962 . S
H1274 C1260 0.960 . S
H1275 C1261 0.961 . S
H1276 C1261 0.961 . S
H1277 C1261 0.961 . S
H1278 C1262 0.931 . S
H1279 C1267 0.930 . S
H1280 C1268 0.956 . S
H1281 C1268 0.961 . S
H1282 C1268 0.961 . S
H1283 C1269 0.958 . S
H1284 C1269 0.961 . S
H1285 C1269 0.960 . S
C1286 C1287 1.391 . S
C1286 C1288 1.394 . S
C1286 H1302 0.931 . S
C1287 C1286 1.391 . S
C1287 C1291 1.376 . S
C1288 C1286 1.394 . S
C1288 C1289 1.369 . S
C1288 C1292 1.531 . S
C1289 C1288 1.369 . S
C1289 C1290 1.410 . S
C1289 C1297 1.503 . S
C1290 C1289 1.410 . S
C1290 C1291 1.392 . S
C1290 C1293 1.511 . S
C1291 C1287 1.376 . S
C1291 C1290 1.392 . S
C1291 H1303 0.929 . S
C1292 C1288 1.531 . S
C1292 H1304 0.960 . S
C1292 H1305 0.962 . S
C1292 H1306 0.960 . S
C1293 C1290 1.511 . S
C1293 H1307 0.961 . S
C1293 H1308 0.961 . S
C1293 H1309 0.961 . S
C1294 C1295 1.370 . S
C1294 C1296 1.363 . S
C1294 H1310 0.931 . S
C1295 C1294 1.370 . S
C1295 C1299 1.408 . S
C1296 C1294 1.363 . S
C1296 C1297 1.370 . S
C1296 C1300 1.524 . S
C1297 C1289 1.503 . S
C1297 C1296 1.370 . S
C1297 C1298 1.403 . S
C1298 C1297 1.403 . S
C1298 C1299 1.404 . S
C1298 C1301 1.539 . S
C1299 C1295 1.408 . S
C1299 C1298 1.404 . S
C1299 H1311 0.930 . S
C1300 C1296 1.524 . S
C1300 H1312 0.956 . S
C1300 H1313 0.961 . S
C1300 H1314 0.961 . S
C1301 C1298 1.539 . S
C1301 H1315 0.958 . S
C1301 H1316 0.961 . S
C1301 H1317 0.960 . S
H1302 C1286 0.931 . S
H1303 C1291 0.929 . S
H1304 C1292 0.960 . S
H1305 C1292 0.962 . S
H1306 C1292 0.960 . S
H1307 C1293 0.961 . S
H1308 C1293 0.961 . S
H1309 C1293 0.961 . S
H1310 C1294 0.931 . S
H1311 C1299 0.930 . S
H1312 C1300 0.956 . S
H1313 C1300 0.961 . S
H1314 C1300 0.961 . S
H1315 C1301 0.958 . S
H1316 C1301 0.961 . S
H1317 C1301 0.960 . S
C1318 C1319 1.391 . S
C1318 C1320 1.394 . S
C1318 H1334 0.931 . S
C1319 C1318 1.391 . S
C1319 C1323 1.376 . S
C1320 C1318 1.394 . S
C1320 C1321 1.369 . S
C1320 C1324 1.531 . S
C1321 C1320 1.369 . S
C1321 C1322 1.410 . S
C1321 C1329 1.503 . S
C1322 C1321 1.410 . S
C1322 C1323 1.392 . S
C1322 C1325 1.511 . S
C1323 C1319 1.376 . S
C1323 C1322 1.392 . S
C1323 H1335 0.929 . S
C1324 C1320 1.531 . S
C1324 H1336 0.960 . S
C1324 H1337 0.962 . S
C1324 H1338 0.960 . S
C1325 C1322 1.511 . S
C1325 H1339 0.961 . S
C1325 H1340 0.961 . S
C1325 H1341 0.961 . S
C1326 C1327 1.370 . S
C1326 C1328 1.363 . S
C1326 H1342 0.931 . S
C1327 C1326 1.370 . S
C1327 C1331 1.408 . S
C1328 C1326 1.363 . S
C1328 C1329 1.370 . S
C1328 C1332 1.524 . S
C1329 C1321 1.503 . S
C1329 C1328 1.370 . S
C1329 C1330 1.403 . S
C1330 C1329 1.403 . S
C1330 C1331 1.404 . S
C1330 C1333 1.539 . S
C1331 C1327 1.408 . S
C1331 C1330 1.404 . S
C1331 H1343 0.930 . S
C1332 C1328 1.524 . S
C1332 H1344 0.956 . S
C1332 H1345 0.961 . S
C1332 H1346 0.961 . S
C1333 C1330 1.539 . S
C1333 H1347 0.958 . S
C1333 H1348 0.961 . S
C1333 H1349 0.960 . S
H1334 C1318 0.931 . S
H1335 C1323 0.929 . S
H1336 C1324 0.960 . S
H1337 C1324 0.962 . S
H1338 C1324 0.960 . S
H1339 C1325 0.961 . S
H1340 C1325 0.961 . S
H1341 C1325 0.961 . S
H1342 C1326 0.931 . S
H1343 C1331 0.930 . S
H1344 C1332 0.956 . S
H1345 C1332 0.961 . S
H1346 C1332 0.961 . S
H1347 C1333 0.958 . S
H1348 C1333 0.961 . S
H1349 C1333 0.960 . S
C1350 C1351 1.391 . S
C1350 C1352 1.394 . S
C1350 H1366 0.931 . S
C1351 C1350 1.391 . S
C1351 C1355 1.376 . S
C1352 C1350 1.394 . S
C1352 C1353 1.369 . S
C1352 C1356 1.531 . S
C1353 C1352 1.369 . S
C1353 C1354 1.410 . S
C1353 C1361 1.503 . S
C1354 C1353 1.410 . S
C1354 C1355 1.392 . S
C1354 C1357 1.511 . S
C1355 C1351 1.376 . S
C1355 C1354 1.392 . S
C1355 H1367 0.929 . S
C1356 C1352 1.531 . S
C1356 H1368 0.960 . S
C1356 H1369 0.962 . S
C1356 H1370 0.960 . S
C1357 C1354 1.511 . S
C1357 H1371 0.961 . S
C1357 H1372 0.961 . S
C1357 H1373 0.961 . S
C1358 C1359 1.370 . S
C1358 C1360 1.363 . S
C1358 H1374 0.931 . S
C1359 C1358 1.370 . S
C1359 C1363 1.408 . S
C1360 C1358 1.363 . S
C1360 C1361 1.370 . S
C1360 C1364 1.524 . S
C1361 C1353 1.503 . S
C1361 C1360 1.370 . S
C1361 C1362 1.403 . S
C1362 C1361 1.403 . S
C1362 C1363 1.404 . S
C1362 C1365 1.539 . S
C1363 C1359 1.408 . S
C1363 C1362 1.404 . S
C1363 H1375 0.930 . S
C1364 C1360 1.524 . S
C1364 H1376 0.956 . S
C1364 H1377 0.961 . S
C1364 H1378 0.961 . S
C1365 C1362 1.539 . S
C1365 H1379 0.958 . S
C1365 H1380 0.961 . S
C1365 H1381 0.960 . S
H1366 C1350 0.931 . S
H1367 C1355 0.929 . S
H1368 C1356 0.960 . S
H1369 C1356 0.962 . S
H1370 C1356 0.960 . S
H1371 C1357 0.961 . S
H1372 C1357 0.961 . S
H1373 C1357 0.961 . S
H1374 C1358 0.931 . S
H1375 C1363 0.930 . S
H1376 C1364 0.956 . S
H1377 C1364 0.961 . S
H1378 C1364 0.961 . S
H1379 C1365 0.958 . S
H1380 C1365 0.961 . S
H1381 C1365 0.960 . S
C1382 C1383 1.391 . S
C1382 C1384 1.394 . S
C1382 H1398 0.931 . S
C1383 C1382 1.391 . S
C1383 C1387 1.376 . S
C1384 C1382 1.394 . S
C1384 C1385 1.369 . S
C1384 C1388 1.531 . S
C1385 C1384 1.369 . S
C1385 C1386 1.410 . S
C1385 C1393 1.503 . S
C1386 C1385 1.410 . S
C1386 C1387 1.392 . S
C1386 C1389 1.511 . S
C1387 C1383 1.376 . S
C1387 C1386 1.392 . S
C1387 H1399 0.929 . S
C1388 C1384 1.531 . S
C1388 H1400 0.960 . S
C1388 H1401 0.962 . S
C1388 H1402 0.960 . S
C1389 C1386 1.511 . S
C1389 H1403 0.961 . S
C1389 H1404 0.961 . S
C1389 H1405 0.961 . S
C1390 C1391 1.370 . S
C1390 C1392 1.363 . S
C1390 H1406 0.931 1_556 S
C1391 C1390 1.370 . S
C1391 C1395 1.408 . S
C1392 C1390 1.363 . S
C1392 C1393 1.370 . S
C1392 C1396 1.524 . S
C1393 C1385 1.503 . S
C1393 C1392 1.370 . S
C1393 C1394 1.403 . S
C1394 C1393 1.403 . S
C1394 C1395 1.404 . S
C1394 C1397 1.539 . S
C1395 C1391 1.408 . S
C1395 C1394 1.404 . S
C1395 H1407 0.930 . S
C1396 C1392 1.524 . S
C1396 H1408 0.956 . S
C1396 H1409 0.961 . S
C1396 H1410 0.961 1_556 S
C1397 C1394 1.539 . S
C1397 H1411 0.958 . S
C1397 H1412 0.961 . S
C1397 H1413 0.960 . S
H1398 C1382 0.931 . S
H1399 C1387 0.929 . S
H1400 C1388 0.960 . S
H1401 C1388 0.962 . S
H1402 C1388 0.960 . S
H1403 C1389 0.961 . S
H1404 C1389 0.961 . S
H1405 C1389 0.961 . S
H1406 C1390 0.931 1_554 S
H1407 C1395 0.930 . S
H1408 C1396 0.956 . S
H1409 C1396 0.961 . S
H1410 C1396 0.961 1_554 S
H1411 C1397 0.958 . S
H1412 C1397 0.961 . S
H1413 C1397 0.960 . S
C1414 C1415 1.391 . S
C1414 C1416 1.394 . S
C1414 H1430 0.931 . S
C1415 C1414 1.391 . S
C1415 C1419 1.376 . S
C1416 C1414 1.394 . S
C1416 C1417 1.369 . S
C1416 C1420 1.531 . S
C1417 C1416 1.369 . S
C1417 C1418 1.410 . S
C1417 C1425 1.503 . S
C1418 C1417 1.410 . S
C1418 C1419 1.392 . S
C1418 C1421 1.511 . S
C1419 C1415 1.376 . S
C1419 C1418 1.392 . S
C1419 H1431 0.929 . S
C1420 C1416 1.531 . S
C1420 H1432 0.960 . S
C1420 H1433 0.962 . S
C1420 H1434 0.960 . S
C1421 C1418 1.511 . S
C1421 H1435 0.961 . S
C1421 H1436 0.961 . S
C1421 H1437 0.961 . S
C1422 C1423 1.370 . S
C1422 C1424 1.363 . S
C1422 H1438 0.931 . S
C1423 C1422 1.370 . S
C1423 C1427 1.408 . S
C1424 C1422 1.363 . S
C1424 C1425 1.370 . S
C1424 C1428 1.524 . S
C1425 C1417 1.503 . S
C1425 C1424 1.370 . S
C1425 C1426 1.403 . S
C1426 C1425 1.403 . S
C1426 C1427 1.404 . S
C1426 C1429 1.539 . S
C1427 C1423 1.408 . S
C1427 C1426 1.404 . S
C1427 H1439 0.930 . S
C1428 C1424 1.524 . S
C1428 H1440 0.956 . S
C1428 H1441 0.961 . S
C1428 H1442 0.961 . S
C1429 C1426 1.539 . S
C1429 H1443 0.958 . S
C1429 H1444 0.961 . S
C1429 H1445 0.960 . S
H1430 C1414 0.931 . S
H1431 C1419 0.929 . S
H1432 C1420 0.960 . S
H1433 C1420 0.962 . S
H1434 C1420 0.960 . S
H1435 C1421 0.961 . S
H1436 C1421 0.961 . S
H1437 C1421 0.961 . S
H1438 C1422 0.931 . S
H1439 C1427 0.930 . S
H1440 C1428 0.956 . S
H1441 C1428 0.961 . S
H1442 C1428 0.961 . S
H1443 C1429 0.958 . S
H1444 C1429 0.961 . S
H1445 C1429 0.960 . S
C1446 C1447 1.391 . S
C1446 C1448 1.394 . S
C1446 H1462 0.931 . S
C1447 C1446 1.391 . S
C1447 C1451 1.376 . S
C1448 C1446 1.394 . S
C1448 C1449 1.369 . S
C1448 C1452 1.531 . S
C1449 C1448 1.369 . S
C1449 C1450 1.410 . S
C1449 C1457 1.503 . S
C1450 C1449 1.410 . S
C1450 C1451 1.392 . S
C1450 C1453 1.511 . S
C1451 C1447 1.376 . S
C1451 C1450 1.392 . S
C1451 H1463 0.929 . S
C1452 C1448 1.531 . S
C1452 H1464 0.960 . S
C1452 H1465 0.962 . S
C1452 H1466 0.960 . S
C1453 C1450 1.511 . S
C1453 H1467 0.961 . S
C1453 H1468 0.961 . S
C1453 H1469 0.961 . S
C1454 C1455 1.370 . S
C1454 C1456 1.363 . S
C1454 H1470 0.931 . S
C1455 C1454 1.370 . S
C1455 C1459 1.408 . S
C1456 C1454 1.363 . S
C1456 C1457 1.370 . S
C1456 C1460 1.524 . S
C1457 C1449 1.503 . S
C1457 C1456 1.370 . S
C1457 C1458 1.403 . S
C1458 C1457 1.403 . S
C1458 C1459 1.404 . S
C1458 C1461 1.539 . S
C1459 C1455 1.408 . S
C1459 C1458 1.404 . S
C1459 H1471 0.930 . S
C1460 C1456 1.524 . S
C1460 H1472 0.956 . S
C1460 H1473 0.961 . S
C1460 H1474 0.961 . S
C1461 C1458 1.539 . S
C1461 H1475 0.958 . S
C1461 H1476 0.961 . S
C1461 H1477 0.960 . S
H1462 C1446 0.931 . S
H1463 C1451 0.929 . S
H1464 C1452 0.960 . S
H1465 C1452 0.962 . S
H1466 C1452 0.960 . S
H1467 C1453 0.961 . S
H1468 C1453 0.961 . S
H1469 C1453 0.961 . S
H1470 C1454 0.931 . S
H1471 C1459 0.930 . S
H1472 C1460 0.956 . S
H1473 C1460 0.961 . S
H1474 C1460 0.961 . S
H1475 C1461 0.958 . S
H1476 C1461 0.961 . S
H1477 C1461 0.960 . S
C1478 C1479 1.391 . S
C1478 C1480 1.394 . S
C1478 H1494 0.931 . S
C1479 C1478 1.391 . S
C1479 C1483 1.376 . S
C1480 C1478 1.394 . S
C1480 C1481 1.369 . S
C1480 C1484 1.531 . S
C1481 C1480 1.369 . S
C1481 C1482 1.410 . S
C1481 C1489 1.503 . S
C1482 C1481 1.410 . S
C1482 C1483 1.392 . S
C1482 C1485 1.511 . S
C1483 C1479 1.376 . S
C1483 C1482 1.392 . S
C1483 H1495 0.929 . S
C1484 C1480 1.531 . S
C1484 H1496 0.960 . S
C1484 H1497 0.962 . S
C1484 H1498 0.960 . S
C1485 C1482 1.511 . S
C1485 H1499 0.961 . S
C1485 H1500 0.961 . S
C1485 H1501 0.961 . S
C1486 C1487 1.370 . S
C1486 C1488 1.363 . S
C1486 H1502 0.931 . S
C1487 C1486 1.370 . S
C1487 C1491 1.408 . S
C1488 C1486 1.363 . S
C1488 C1489 1.370 . S
C1488 C1492 1.524 . S
C1489 C1481 1.503 . S
C1489 C1488 1.370 . S
C1489 C1490 1.403 . S
C1490 C1489 1.403 . S
C1490 C1491 1.404 . S
C1490 C1493 1.539 . S
C1491 C1487 1.408 . S
C1491 C1490 1.404 . S
C1491 H1503 0.930 . S
C1492 C1488 1.524 . S
C1492 H1504 0.956 . S
C1492 H1505 0.961 . S
C1492 H1506 0.961 . S
C1493 C1490 1.539 . S
C1493 H1507 0.958 . S
C1493 H1508 0.961 . S
C1493 H1509 0.960 . S
H1494 C1478 0.931 . S
H1495 C1483 0.929 . S
H1496 C1484 0.960 . S
H1497 C1484 0.962 . S
H1498 C1484 0.960 . S
H1499 C1485 0.961 . S
H1500 C1485 0.961 . S
H1501 C1485 0.961 . S
H1502 C1486 0.931 . S
H1503 C1491 0.930 . S
H1504 C1492 0.956 . S
H1505 C1492 0.961 . S
H1506 C1492 0.961 . S
H1507 C1493 0.958 . S
H1508 C1493 0.961 . S
H1509 C1493 0.960 . S
C1510 C1511 1.391 . S
C1510 C1512 1.394 . S
C1510 H1526 0.931 . S
C1511 C1510 1.391 . S
C1511 C1515 1.376 . S
C1512 C1510 1.394 . S
C1512 C1513 1.369 . S
C1512 C1516 1.531 . S
C1513 C1512 1.369 . S
C1513 C1514 1.410 . S
C1513 C1521 1.503 . S
C1514 C1513 1.410 . S
C1514 C1515 1.392 . S
C1514 C1517 1.511 . S
C1515 C1511 1.376 . S
C1515 C1514 1.392 . S
C1515 H1527 0.929 . S
C1516 C1512 1.531 . S
C1516 H1528 0.960 . S
C1516 H1529 0.962 . S
C1516 H1530 0.960 . S
C1517 C1514 1.511 . S
C1517 H1531 0.961 . S
C1517 H1532 0.961 . S
C1517 H1533 0.961 . S
C1518 C1519 1.370 . S
C1518 C1520 1.363 . S
C1518 H1534 0.931 . S
C1519 C1518 1.370 . S
C1519 C1523 1.408 . S
C1520 C1518 1.363 . S
C1520 C1521 1.370 . S
C1520 C1524 1.524 . S
C1521 C1513 1.503 . S
C1521 C1520 1.370 . S
C1521 C1522 1.403 . S
C1522 C1521 1.403 . S
C1522 C1523 1.404 . S
C1522 C1525 1.539 . S
C1523 C1519 1.408 . S
C1523 C1522 1.404 . S
C1523 H1535 0.930 . S
C1524 C1520 1.524 . S
C1524 H1536 0.956 . S
C1524 H1537 0.961 . S
C1524 H1538 0.961 . S
C1525 C1522 1.539 . S
C1525 H1539 0.958 . S
C1525 H1540 0.961 . S
C1525 H1541 0.960 . S
H1526 C1510 0.931 . S
H1527 C1515 0.929 . S
H1528 C1516 0.960 . S
H1529 C1516 0.962 . S
H1530 C1516 0.960 . S
H1531 C1517 0.961 . S
H1532 C1517 0.961 . S
H1533 C1517 0.961 . S
H1534 C1518 0.931 . S
H1535 C1523 0.930 . S
H1536 C1524 0.956 . S
H1537 C1524 0.961 . S
H1538 C1524 0.961 . S
H1539 C1525 0.958 . S
H1540 C1525 0.961 . S
H1541 C1525 0.960 . S
C1542 C1543 1.391 . S
C1542 C1544 1.394 . S
C1542 H1558 0.931 . S
C1543 C1542 1.391 . S
C1543 C1547 1.376 . S
C1544 C1542 1.394 . S
C1544 C1545 1.369 . S
C1544 C1548 1.531 . S
C1545 C1544 1.369 . S
C1545 C1546 1.410 . S
C1545 C1553 1.503 . S
C1546 C1545 1.410 . S
C1546 C1547 1.392 . S
C1546 C1549 1.511 . S
C1547 C1543 1.376 . S
C1547 C1546 1.392 . S
C1547 H1559 0.929 . S
C1548 C1544 1.531 . S
C1548 H1560 0.960 . S
C1548 H1561 0.962 . S
C1548 H1562 0.960 . S
C1549 C1546 1.511 . S
C1549 H1563 0.961 . S
C1549 H1564 0.961 . S
C1549 H1565 0.961 . S
C1550 C1551 1.370 . S
C1550 C1552 1.363 . S
C1550 H1566 0.931 . S
C1551 C1550 1.370 . S
C1551 C1555 1.408 . S
C1552 C1550 1.363 . S
C1552 C1553 1.370 . S
C1552 C1556 1.524 . S
C1553 C1545 1.503 . S
C1553 C1552 1.370 . S
C1553 C1554 1.403 . S
C1554 C1553 1.403 . S
C1554 C1555 1.404 . S
C1554 C1557 1.539 . S
C1555 C1551 1.408 . S
C1555 C1554 1.404 . S
C1555 H1567 0.930 . S
C1556 C1552 1.524 . S
C1556 H1568 0.956 . S
C1556 H1569 0.961 . S
C1556 H1570 0.961 . S
C1557 C1554 1.539 . S
C1557 H1571 0.958 . S
C1557 H1572 0.961 . S
C1557 H1573 0.960 . S
H1558 C1542 0.931 . S
H1559 C1547 0.929 . S
H1560 C1548 0.960 . S
H1561 C1548 0.962 . S
H1562 C1548 0.960 . S
H1563 C1549 0.961 . S
H1564 C1549 0.961 . S
H1565 C1549 0.961 . S
H1566 C1550 0.931 . S
H1567 C1555 0.930 . S
H1568 C1556 0.956 . S
H1569 C1556 0.961 . S
H1570 C1556 0.961 . S
H1571 C1557 0.958 . S
H1572 C1557 0.961 . S
H1573 C1557 0.960 . S
C1574 C1575 1.391 . S
C1574 C1576 1.394 . S
C1574 H1590 0.931 . S
C1575 C1574 1.391 . S
C1575 C1579 1.376 . S
C1576 C1574 1.394 . S
C1576 C1577 1.369 . S
C1576 C1580 1.531 . S
C1577 C1576 1.369 . S
C1577 C1578 1.410 . S
C1577 C1585 1.503 . S
C1578 C1577 1.410 . S
C1578 C1579 1.392 . S
C1578 C1581 1.511 . S
C1579 C1575 1.376 . S
C1579 C1578 1.392 . S
C1579 H1591 0.929 . S
C1580 C1576 1.531 . S
C1580 H1592 0.960 . S
C1580 H1593 0.962 . S
C1580 H1594 0.960 . S
C1581 C1578 1.511 . S
C1581 H1595 0.961 . S
C1581 H1596 0.961 . S
C1581 H1597 0.961 . S
C1582 C1583 1.370 . S
C1582 C1584 1.363 . S
C1582 H1598 0.931 . S
C1583 C1582 1.370 . S
C1583 C1587 1.408 . S
C1584 C1582 1.363 . S
C1584 C1585 1.370 . S
C1584 C1588 1.524 . S
C1585 C1577 1.503 . S
C1585 C1584 1.370 . S
C1585 C1586 1.403 . S
C1586 C1585 1.403 . S
C1586 C1587 1.404 . S
C1586 C1589 1.539 . S
C1587 C1583 1.408 . S
C1587 C1586 1.404 . S
C1587 H1599 0.930 . S
C1588 C1584 1.524 . S
C1588 H1600 0.956 . S
C1588 H1601 0.961 . S
C1588 H1602 0.961 . S
C1589 C1586 1.539 . S
C1589 H1603 0.958 . S
C1589 H1604 0.961 . S
C1589 H1605 0.960 . S
H1590 C1574 0.931 . S
H1591 C1579 0.929 . S
H1592 C1580 0.960 . S
H1593 C1580 0.962 . S
H1594 C1580 0.960 . S
H1595 C1581 0.961 . S
H1596 C1581 0.961 . S
H1597 C1581 0.961 . S
H1598 C1582 0.931 . S
H1599 C1587 0.930 . S
H1600 C1588 0.956 . S
H1601 C1588 0.961 . S
H1602 C1588 0.961 . S
H1603 C1589 0.958 . S
H1604 C1589 0.961 . S
H1605 C1589 0.960 . S
C1606 C1607 1.391 . S
C1606 C1608 1.394 . S
C1606 H1622 0.931 . S
C1607 C1606 1.391 . S
C1607 C1611 1.376 . S
C1608 C1606 1.394 . S
C1608 C1609 1.369 . S
C1608 C1612 1.531 . S
C1609 C1608 1.369 . S
C1609 C1610 1.410 . S
C1609 C1617 1.503 . S
C1610 C1609 1.410 . S
C1610 C1611 1.392 . S
C1610 C1613 1.511 . S
C1611 C1607 1.376 . S
C1611 C1610 1.392 . S
C1611 H1623 0.929 . S
C1612 C1608 1.531 . S
C1612 H1624 0.960 . S
C1612 H1625 0.962 . S
C1612 H1626 0.960 . S
C1613 C1610 1.511 . S
C1613 H1627 0.961 . S
C1613 H1628 0.961 . S
C1613 H1629 0.961 . S
C1614 C1615 1.370 . S
C1614 C1616 1.363 . S
C1614 H1630 0.931 . S
C1615 C1614 1.370 . S
C1615 C1619 1.408 . S
C1616 C1614 1.363 . S
C1616 C1617 1.370 . S
C1616 C1620 1.524 . S
C1617 C1609 1.503 . S
C1617 C1616 1.370 . S
C1617 C1618 1.403 . S
C1618 C1617 1.403 . S
C1618 C1619 1.404 . S
C1618 C1621 1.539 . S
C1619 C1615 1.408 . S
C1619 C1618 1.404 . S
C1619 H1631 0.930 . S
C1620 C1616 1.524 . S
C1620 H1632 0.956 . S
C1620 H1633 0.961 . S
C1620 H1634 0.961 . S
C1621 C1618 1.539 . S
C1621 H1635 0.958 . S
C1621 H1636 0.961 . S
C1621 H1637 0.960 . S
H1622 C1606 0.931 . S
H1623 C1611 0.929 . S
H1624 C1612 0.960 . S
H1625 C1612 0.962 . S
H1626 C1612 0.960 . S
H1627 C1613 0.961 . S
H1628 C1613 0.961 . S
H1629 C1613 0.961 . S
H1630 C1614 0.931 . S
H1631 C1619 0.930 . S
H1632 C1620 0.956 . S
H1633 C1620 0.961 . S
H1634 C1620 0.961 . S
H1635 C1621 0.958 . S
H1636 C1621 0.961 . S
H1637 C1621 0.960 . S
C1638 C1639 1.391 . S
C1638 C1640 1.394 . S
C1638 H1654 0.931 . S
C1639 C1638 1.391 . S
C1639 C1643 1.376 . S
C1640 C1638 1.394 . S
C1640 C1641 1.369 . S
C1640 C1644 1.531 . S
C1641 C1640 1.369 . S
C1641 C1642 1.410 . S
C1641 C1649 1.503 . S
C1642 C1641 1.410 . S
C1642 C1643 1.392 . S
C1642 C1645 1.511 . S
C1643 C1639 1.376 . S
C1643 C1642 1.392 . S
C1643 H1655 0.929 . S
C1644 C1640 1.531 . S
C1644 H1656 0.960 . S
C1644 H1657 0.962 . S
C1644 H1658 0.960 . S
C1645 C1642 1.511 . S
C1645 H1659 0.961 . S
C1645 H1660 0.961 . S
C1645 H1661 0.961 . S
C1646 C1647 1.370 . S
C1646 C1648 1.363 . S
C1646 H1662 0.931 . S
C1647 C1646 1.370 . S
C1647 C1651 1.408 . S
C1648 C1646 1.363 . S
C1648 C1649 1.370 . S
C1648 C1652 1.524 . S
C1649 C1641 1.503 . S
C1649 C1648 1.370 . S
C1649 C1650 1.403 . S
C1650 C1649 1.403 . S
C1650 C1651 1.404 . S
C1650 C1653 1.539 . S
C1651 C1647 1.408 . S
C1651 C1650 1.404 . S
C1651 H1663 0.930 . S
C1652 C1648 1.524 . S
C1652 H1664 0.956 . S
C1652 H1665 0.961 . S
C1652 H1666 0.961 . S
C1653 C1650 1.539 . S
C1653 H1667 0.958 . S
C1653 H1668 0.961 . S
C1653 H1669 0.960 . S
H1654 C1638 0.931 . S
H1655 C1643 0.929 . S
H1656 C1644 0.960 . S
H1657 C1644 0.962 . S
H1658 C1644 0.960 . S
H1659 C1645 0.961 . S
H1660 C1645 0.961 . S
H1661 C1645 0.961 . S
H1662 C1646 0.931 . S
H1663 C1651 0.930 . S
H1664 C1652 0.956 . S
H1665 C1652 0.961 . S
H1666 C1652 0.961 . S
H1667 C1653 0.958 . S
H1668 C1653 0.961 . S
H1669 C1653 0.960 . S
C1670 C1671 1.391 . S
C1670 C1672 1.394 . S
C1670 H1686 0.931 . S
C1671 C1670 1.391 . S
C1671 C1675 1.376 . S
C1672 C1670 1.394 . S
C1672 C1673 1.369 . S
C1672 C1676 1.531 . S
C1673 C1672 1.369 . S
C1673 C1674 1.410 . S
C1673 C1681 1.503 . S
C1674 C1673 1.410 . S
C1674 C1675 1.392 . S
C1674 C1677 1.511 . S
C1675 C1671 1.376 . S
C1675 C1674 1.392 . S
C1675 H1687 0.929 . S
C1676 C1672 1.531 . S
C1676 H1688 0.960 . S
C1676 H1689 0.962 . S
C1676 H1690 0.960 . S
C1677 C1674 1.511 . S
C1677 H1691 0.961 . S
C1677 H1692 0.961 . S
C1677 H1693 0.961 . S
C1678 C1679 1.370 . S
C1678 C1680 1.363 . S
C1678 H1694 0.931 . S
C1679 C1678 1.370 . S
C1679 C1683 1.408 . S
C1680 C1678 1.363 . S
C1680 C1681 1.370 . S
C1680 C1684 1.524 . S
C1681 C1673 1.503 . S
C1681 C1680 1.370 . S
C1681 C1682 1.403 . S
C1682 C1681 1.403 . S
C1682 C1683 1.404 . S
C1682 C1685 1.539 . S
C1683 C1679 1.408 . S
C1683 C1682 1.404 . S
C1683 H1695 0.930 . S
C1684 C1680 1.524 . S
C1684 H1696 0.956 . S
C1684 H1697 0.961 . S
C1684 H1698 0.961 . S
C1685 C1682 1.539 . S
C1685 H1699 0.958 . S
C1685 H1700 0.961 . S
C1685 H1701 0.960 . S
H1686 C1670 0.931 . S
H1687 C1675 0.929 . S
H1688 C1676 0.960 . S
H1689 C1676 0.962 . S
H1690 C1676 0.960 . S
H1691 C1677 0.961 . S
H1692 C1677 0.961 . S
H1693 C1677 0.961 . S
H1694 C1678 0.931 . S
H1695 C1683 0.930 . S
H1696 C1684 0.956 . S
H1697 C1684 0.961 . S
H1698 C1684 0.961 . S
H1699 C1685 0.958 . S
H1700 C1685 0.961 . S
H1701 C1685 0.960 . S
C1702 C1703 1.391 . S
C1702 C1704 1.394 . S
C1702 H1718 0.931 . S
C1703 C1702 1.391 . S
C1703 C1707 1.376 . S
C1704 C1702 1.394 . S
C1704 C1705 1.369 . S
C1704 C1708 1.531 . S
C1705 C1704 1.369 . S
C1705 C1706 1.410 . S
C1705 C1713 1.503 . S
C1706 C1705 1.410 . S
C1706 C1707 1.392 . S
C1706 C1709 1.511 . S
C1707 C1703 1.376 . S
C1707 C1706 1.392 . S
C1707 H1719 0.929 . S
C1708 C1704 1.531 . S
C1708 H1720 0.960 . S
C1708 H1721 0.962 . S
C1708 H1722 0.960 . S
C1709 C1706 1.511 . S
C1709 H1723 0.961 . S
C1709 H1724 0.961 . S
C1709 H1725 0.961 . S
C1710 C1711 1.370 . S
C1710 C1712 1.363 . S
C1710 H1726 0.931 . S
C1711 C1710 1.370 . S
C1711 C1715 1.408 . S
C1712 C1710 1.363 . S
C1712 C1713 1.370 . S
C1712 C1716 1.524 . S
C1713 C1705 1.503 . S
C1713 C1712 1.370 . S
C1713 C1714 1.403 . S
C1714 C1713 1.403 . S
C1714 C1715 1.404 . S
C1714 C1717 1.539 . S
C1715 C1711 1.408 . S
C1715 C1714 1.404 . S
C1715 H1727 0.930 . S
C1716 C1712 1.524 . S
C1716 H1728 0.956 . S
C1716 H1729 0.961 . S
C1716 H1730 0.961 . S
C1717 C1714 1.539 . S
C1717 H1731 0.958 . S
C1717 H1732 0.961 . S
C1717 H1733 0.960 . S
H1718 C1702 0.931 . S
H1719 C1707 0.929 . S
H1720 C1708 0.960 . S
H1721 C1708 0.962 . S
H1722 C1708 0.960 . S
H1723 C1709 0.961 . S
H1724 C1709 0.961 . S
H1725 C1709 0.961 . S
H1726 C1710 0.931 . S
H1727 C1715 0.930 . S
H1728 C1716 0.956 . S
H1729 C1716 0.961 . S
H1730 C1716 0.961 . S
H1731 C1717 0.958 . S
H1732 C1717 0.961 . S
H1733 C1717 0.960 . S
C1734 C1735 1.391 . S
C1734 C1736 1.394 . S
C1734 H1750 0.931 . S
C1735 C1734 1.391 . S
C1735 C1739 1.376 . S
C1736 C1734 1.394 . S
C1736 C1737 1.369 . S
C1736 C1740 1.531 . S
C1737 C1736 1.369 . S
C1737 C1738 1.410 . S
C1737 C1745 1.503 . S
C1738 C1737 1.410 . S
C1738 C1739 1.392 . S
C1738 C1741 1.511 . S
C1739 C1735 1.376 . S
C1739 C1738 1.392 . S
C1739 H1751 0.929 . S
C1740 C1736 1.531 . S
C1740 H1752 0.960 . S
C1740 H1753 0.962 . S
C1740 H1754 0.960 . S
C1741 C1738 1.511 . S
C1741 H1755 0.961 . S
C1741 H1756 0.961 . S
C1741 H1757 0.961 . S
C1742 C1743 1.370 . S
C1742 C1744 1.363 . S
C1742 H1758 0.931 . S
C1743 C1742 1.370 . S
C1743 C1747 1.408 . S
C1744 C1742 1.363 . S
C1744 C1745 1.370 . S
C1744 C1748 1.524 . S
C1745 C1737 1.503 . S
C1745 C1744 1.370 . S
C1745 C1746 1.403 . S
C1746 C1745 1.403 . S
C1746 C1747 1.404 . S
C1746 C1749 1.539 . S
C1747 C1743 1.408 . S
C1747 C1746 1.404 . S
C1747 H1759 0.930 . S
C1748 C1744 1.524 . S
C1748 H1760 0.956 . S
C1748 H1761 0.961 . S
C1748 H1762 0.961 . S
C1749 C1746 1.539 . S
C1749 H1763 0.958 . S
C1749 H1764 0.961 . S
C1749 H1765 0.960 . S
H1750 C1734 0.931 . S
H1751 C1739 0.929 . S
H1752 C1740 0.960 . S
H1753 C1740 0.962 . S
H1754 C1740 0.960 . S
H1755 C1741 0.961 . S
H1756 C1741 0.961 . S
H1757 C1741 0.961 . S
H1758 C1742 0.931 . S
H1759 C1747 0.930 . S
H1760 C1748 0.956 . S
H1761 C1748 0.961 . S
H1762 C1748 0.961 . S
H1763 C1749 0.958 . S
H1764 C1749 0.961 . S
H1765 C1749 0.960 . S
C1766 C1767 1.391 . S
C1766 C1768 1.394 . S
C1766 H1782 0.931 . S
C1767 C1766 1.391 . S
C1767 C1771 1.376 . S
C1768 C1766 1.394 . S
C1768 C1769 1.369 . S
C1768 C1772 1.531 . S
C1769 C1768 1.369 . S
C1769 C1770 1.410 . S
C1769 C1777 1.503 . S
C1770 C1769 1.410 . S
C1770 C1771 1.392 . S
C1770 C1773 1.511 . S
C1771 C1767 1.376 . S
C1771 C1770 1.392 . S
C1771 H1783 0.929 . S
C1772 C1768 1.531 . S
C1772 H1784 0.960 . S
C1772 H1785 0.962 . S
C1772 H1786 0.960 . S
C1773 C1770 1.511 . S
C1773 H1787 0.961 . S
C1773 H1788 0.961 . S
C1773 H1789 0.961 . S
C1774 C1775 1.370 . S
C1774 C1776 1.363 . S
C1774 H1790 0.931 . S
C1775 C1774 1.370 . S
C1775 C1779 1.408 . S
C1776 C1774 1.363 . S
C1776 C1777 1.370 . S
C1776 C1780 1.524 . S
C1777 C1769 1.503 . S
C1777 C1776 1.370 . S
C1777 C1778 1.403 . S
C1778 C1777 1.403 . S
C1778 C1779 1.404 . S
C1778 C1781 1.539 . S
C1779 C1775 1.408 . S
C1779 C1778 1.404 . S
C1779 H1791 0.930 . S
C1780 C1776 1.524 . S
C1780 H1792 0.956 . S
C1780 H1793 0.961 . S
C1780 H1794 0.961 . S
C1781 C1778 1.539 . S
C1781 H1795 0.958 . S
C1781 H1796 0.961 . S
C1781 H1797 0.960 . S
H1782 C1766 0.931 . S
H1783 C1771 0.929 . S
H1784 C1772 0.960 . S
H1785 C1772 0.962 . S
H1786 C1772 0.960 . S
H1787 C1773 0.961 . S
H1788 C1773 0.961 . S
H1789 C1773 0.961 . S
H1790 C1774 0.931 . S
H1791 C1779 0.930 . S
H1792 C1780 0.956 . S
H1793 C1780 0.961 . S
H1794 C1780 0.961 . S
H1795 C1781 0.958 . S
H1796 C1781 0.961 . S
H1797 C1781 0.960 . S
C1798 C1799 1.391 . S
C1798 C1800 1.394 . S
C1798 H1814 0.931 . S
C1799 C1798 1.391 . S
C1799 C1803 1.376 . S
C1800 C1798 1.394 . S
C1800 C1801 1.369 . S
C1800 C1804 1.531 . S
C1801 C1800 1.369 . S
C1801 C1802 1.410 . S
C1801 C1809 1.503 . S
C1802 C1801 1.410 . S
C1802 C1803 1.392 . S
C1802 C1805 1.511 . S
C1803 C1799 1.376 . S
C1803 C1802 1.392 . S
C1803 H1815 0.929 . S
C1804 C1800 1.531 . S
C1804 H1816 0.960 . S
C1804 H1817 0.962 . S
C1804 H1818 0.960 . S
C1805 C1802 1.511 . S
C1805 H1819 0.961 . S
C1805 H1820 0.961 . S
C1805 H1821 0.961 . S
C1806 C1807 1.370 . S
C1806 C1808 1.363 . S
C1806 H1822 0.931 . S
C1807 C1806 1.370 . S
C1807 C1811 1.408 . S
C1808 C1806 1.363 . S
C1808 C1809 1.370 . S
C1808 C1812 1.524 . S
C1809 C1801 1.503 . S
C1809 C1808 1.370 . S
C1809 C1810 1.403 . S
C1810 C1809 1.403 . S
C1810 C1811 1.404 . S
C1810 C1813 1.539 . S
C1811 C1807 1.408 . S
C1811 C1810 1.404 . S
C1811 H1823 0.930 . S
C1812 C1808 1.524 . S
C1812 H1824 0.956 . S
C1812 H1825 0.961 . S
C1812 H1826 0.961 . S
C1813 C1810 1.539 . S
C1813 H1827 0.958 . S
C1813 H1828 0.961 . S
C1813 H1829 0.960 . S
H1814 C1798 0.931 . S
H1815 C1803 0.929 . S
H1816 C1804 0.960 . S
H1817 C1804 0.962 . S
H1818 C1804 0.960 . S
H1819 C1805 0.961 . S
H1820 C1805 0.961 . S
H1821 C1805 0.961 . S
H1822 C1806 0.931 . S
H1823 C1811 0.930 . S
H1824 C1812 0.956 . S
H1825 C1812 0.961 . S
H1826 C1812 0.961 . S
H1827 C1813 0.958 . S
H1828 C1813 0.961 . S
H1829 C1813 0.960 . S
C1830 C1831 1.391 . S
C1830 C1832 1.394 . S
C1830 H1846 0.931 . S
C1831 C1830 1.391 . S
C1831 C1835 1.376 . S
C1832 C1830 1.394 . S
C1832 C1833 1.369 . S
C1832 C1836 1.531 . S
C1833 C1832 1.369 . S
C1833 C1834 1.410 . S
C1833 C1841 1.503 . S
C1834 C1833 1.410 . S
C1834 C1835 1.392 . S
C1834 C1837 1.511 . S
C1835 C1831 1.376 . S
C1835 C1834 1.392 . S
C1835 H1847 0.929 . S
C1836 C1832 1.531 . S
C1836 H1848 0.960 . S
C1836 H1849 0.962 . S
C1836 H1850 0.960 . S
C1837 C1834 1.511 . S
C1837 H1851 0.961 . S
C1837 H1852 0.961 . S
C1837 H1853 0.961 . S
C1838 C1839 1.370 . S
C1838 C1840 1.363 . S
C1838 H1854 0.931 . S
C1839 C1838 1.370 . S
C1839 C1843 1.408 . S
C1840 C1838 1.363 . S
C1840 C1841 1.370 . S
C1840 C1844 1.524 . S
C1841 C1833 1.503 . S
C1841 C1840 1.370 . S
C1841 C1842 1.403 . S
C1842 C1841 1.403 . S
C1842 C1843 1.404 . S
C1842 C1845 1.539 . S
C1843 C1839 1.408 . S
C1843 C1842 1.404 . S
C1843 H1855 0.930 . S
C1844 C1840 1.524 . S
C1844 H1856 0.956 . S
C1844 H1857 0.961 . S
C1844 H1858 0.961 . S
C1845 C1842 1.539 . S
C1845 H1859 0.958 . S
C1845 H1860 0.961 . S
C1845 H1861 0.960 . S
H1846 C1830 0.931 . S
H1847 C1835 0.929 . S
H1848 C1836 0.960 . S
H1849 C1836 0.962 . S
H1850 C1836 0.960 . S
H1851 C1837 0.961 . S
H1852 C1837 0.961 . S
H1853 C1837 0.961 . S
H1854 C1838 0.931 . S
H1855 C1843 0.930 . S
H1856 C1844 0.956 . S
H1857 C1844 0.961 . S
H1858 C1844 0.961 . S
H1859 C1845 0.958 . S
H1860 C1845 0.961 . S
H1861 C1845 0.960 . S
C1862 C1863 1.391 . S
C1862 C1864 1.394 . S
C1862 H1878 0.931 . S
C1863 C1862 1.391 . S
C1863 C1867 1.376 . S
C1864 C1862 1.394 . S
C1864 C1865 1.369 . S
C1864 C1868 1.531 . S
C1865 C1864 1.369 . S
C1865 C1866 1.410 . S
C1865 C1873 1.503 . S
C1866 C1865 1.410 . S
C1866 C1867 1.392 . S
C1866 C1869 1.511 . S
C1867 C1863 1.376 . S
C1867 C1866 1.392 . S
C1867 H1879 0.929 . S
C1868 C1864 1.531 . S
C1868 H1880 0.960 . S
C1868 H1881 0.962 . S
C1868 H1882 0.960 . S
C1869 C1866 1.511 . S
C1869 H1883 0.961 . S
C1869 H1884 0.961 . S
C1869 H1885 0.961 . S
C1870 C1871 1.370 . S
C1870 C1872 1.363 . S
C1870 H1886 0.931 . S
C1871 C1870 1.370 . S
C1871 C1875 1.408 . S
C1872 C1870 1.363 . S
C1872 C1873 1.370 . S
C1872 C1876 1.524 . S
C1873 C1865 1.503 . S
C1873 C1872 1.370 . S
C1873 C1874 1.403 . S
C1874 C1873 1.403 . S
C1874 C1875 1.404 . S
C1874 C1877 1.539 . S
C1875 C1871 1.408 . S
C1875 C1874 1.404 . S
C1875 H1887 0.930 . S
C1876 C1872 1.524 . S
C1876 H1888 0.956 . S
C1876 H1889 0.961 . S
C1876 H1890 0.961 . S
C1877 C1874 1.539 . S
C1877 H1891 0.958 . S
C1877 H1892 0.961 . S
C1877 H1893 0.960 . S
H1878 C1862 0.931 . S
H1879 C1867 0.929 . S
H1880 C1868 0.960 . S
H1881 C1868 0.962 . S
H1882 C1868 0.960 . S
H1883 C1869 0.961 . S
H1884 C1869 0.961 . S
H1885 C1869 0.961 . S
H1886 C1870 0.931 . S
H1887 C1875 0.930 . S
H1888 C1876 0.956 . S
H1889 C1876 0.961 . S
H1890 C1876 0.961 . S
H1891 C1877 0.958 . S
H1892 C1877 0.961 . S
H1893 C1877 0.960 . S
C1894 C1895 1.391 . S
C1894 C1896 1.394 . S
C1894 H1910 0.931 . S
C1895 C1894 1.391 . S
C1895 C1899 1.376 . S
C1896 C1894 1.394 . S
C1896 C1897 1.369 . S
C1896 C1900 1.531 . S
C1897 C1896 1.369 . S
C1897 C1898 1.410 . S
C1897 C1905 1.503 . S
C1898 C1897 1.410 . S
C1898 C1899 1.392 . S
C1898 C1901 1.511 . S
C1899 C1895 1.376 . S
C1899 C1898 1.392 . S
C1899 H1911 0.929 . S
C1900 C1896 1.531 . S
C1900 H1912 0.960 . S
C1900 H1913 0.962 . S
C1900 H1914 0.960 . S
C1901 C1898 1.511 . S
C1901 H1915 0.961 . S
C1901 H1916 0.961 . S
C1901 H1917 0.961 . S
C1902 C1903 1.370 . S
C1902 C1904 1.363 . S
C1902 H1918 0.931 . S
C1903 C1902 1.370 . S
C1903 C1907 1.408 . S
C1904 C1902 1.363 . S
C1904 C1905 1.370 . S
C1904 C1908 1.524 . S
C1905 C1897 1.503 . S
C1905 C1904 1.370 . S
C1905 C1906 1.403 . S
C1906 C1905 1.403 . S
C1906 C1907 1.404 . S
C1906 C1909 1.539 . S
C1907 C1903 1.408 . S
C1907 C1906 1.404 . S
C1907 H1919 0.930 . S
C1908 C1904 1.524 . S
C1908 H1920 0.956 . S
C1908 H1921 0.961 . S
C1908 H1922 0.961 . S
C1909 C1906 1.539 . S
C1909 H1923 0.958 . S
C1909 H1924 0.961 . S
C1909 H1925 0.960 . S
H1910 C1894 0.931 . S
H1911 C1899 0.929 . S
H1912 C1900 0.960 . S
H1913 C1900 0.962 . S
H1914 C1900 0.960 . S
H1915 C1901 0.961 . S
H1916 C1901 0.961 . S
H1917 C1901 0.961 . S
H1918 C1902 0.931 . S
H1919 C1907 0.930 . S
H1920 C1908 0.956 . S
H1921 C1908 0.961 . S
H1922 C1908 0.961 . S
H1923 C1909 0.958 . S
H1924 C1909 0.961 . S
H1925 C1909 0.960 . S
C1926 C1927 1.391 . S
C1926 C1928 1.394 . S
C1926 H1942 0.931 . S
C1927 C1926 1.391 . S
C1927 C1931 1.376 . S
C1928 C1926 1.394 . S
C1928 C1929 1.369 . S
C1928 C1932 1.531 . S
C1929 C1928 1.369 . S
C1929 C1930 1.410 . S
C1929 C1937 1.503 . S
C1930 C1929 1.410 . S
C1930 C1931 1.392 . S
C1930 C1933 1.511 . S
C1931 C1927 1.376 . S
C1931 C1930 1.392 . S
C1931 H1943 0.929 . S
C1932 C1928 1.531 . S
C1932 H1944 0.960 . S
C1932 H1945 0.962 . S
C1932 H1946 0.960 . S
C1933 C1930 1.511 . S
C1933 H1947 0.961 . S
C1933 H1948 0.961 . S
C1933 H1949 0.961 . S
C1934 C1935 1.370 . S
C1934 C1936 1.363 . S
C1934 H1950 0.931 . S
C1935 C1934 1.370 . S
C1935 C1939 1.408 . S
C1936 C1934 1.363 . S
C1936 C1937 1.370 . S
C1936 C1940 1.524 . S
C1937 C1929 1.503 . S
C1937 C1936 1.370 . S
C1937 C1938 1.403 . S
C1938 C1937 1.403 . S
C1938 C1939 1.404 . S
C1938 C1941 1.539 . S
C1939 C1935 1.408 . S
C1939 C1938 1.404 . S
C1939 H1951 0.930 . S
C1940 C1936 1.524 . S
C1940 H1952 0.956 . S
C1940 H1953 0.961 . S
C1940 H1954 0.961 . S
C1941 C1938 1.539 . S
C1941 H1955 0.958 . S
C1941 H1956 0.961 . S
C1941 H1957 0.960 . S
H1942 C1926 0.931 . S
H1943 C1931 0.929 . S
H1944 C1932 0.960 . S
H1945 C1932 0.962 . S
H1946 C1932 0.960 . S
H1947 C1933 0.961 . S
H1948 C1933 0.961 . S
H1949 C1933 0.961 . S
H1950 C1934 0.931 . S
H1951 C1939 0.930 . S
H1952 C1940 0.956 . S
H1953 C1940 0.961 . S
H1954 C1940 0.961 . S
H1955 C1941 0.958 . S
H1956 C1941 0.961 . S
H1957 C1941 0.960 . S
C1958 C1959 1.391 . S
C1958 C1960 1.394 . S
C1958 H1974 0.931 . S
C1959 C1958 1.391 . S
C1959 C1963 1.376 . S
C1960 C1958 1.394 . S
C1960 C1961 1.369 . S
C1960 C1964 1.531 . S
C1961 C1960 1.369 . S
C1961 C1962 1.410 . S
C1961 C1969 1.503 . S
C1962 C1961 1.410 . S
C1962 C1963 1.392 . S
C1962 C1965 1.511 . S
C1963 C1959 1.376 . S
C1963 C1962 1.392 . S
C1963 H1975 0.929 . S
C1964 C1960 1.531 . S
C1964 H1976 0.960 . S
C1964 H1977 0.962 . S
C1964 H1978 0.960 . S
C1965 C1962 1.511 . S
C1965 H1979 0.961 . S
C1965 H1980 0.961 . S
C1965 H1981 0.961 . S
C1966 C1967 1.370 . S
C1966 C1968 1.363 . S
C1966 H1982 0.931 . S
C1967 C1966 1.370 . S
C1967 C1971 1.408 . S
C1968 C1966 1.363 . S
C1968 C1969 1.370 . S
C1968 C1972 1.524 . S
C1969 C1961 1.503 . S
C1969 C1968 1.370 . S
C1969 C1970 1.403 . S
C1970 C1969 1.403 . S
C1970 C1971 1.404 . S
C1970 C1973 1.539 . S
C1971 C1967 1.408 . S
C1971 C1970 1.404 . S
C1971 H1983 0.930 . S
C1972 C1968 1.524 . S
C1972 H1984 0.956 . S
C1972 H1985 0.961 . S
C1972 H1986 0.961 . S
C1973 C1970 1.539 . S
C1973 H1987 0.958 . S
C1973 H1988 0.961 . S
C1973 H1989 0.960 . S
H1974 C1958 0.931 . S
H1975 C1963 0.929 . S
H1976 C1964 0.960 . S
H1977 C1964 0.962 . S
H1978 C1964 0.960 . S
H1979 C1965 0.961 . S
H1980 C1965 0.961 . S
H1981 C1965 0.961 . S
H1982 C1966 0.931 . S
H1983 C1971 0.930 . S
H1984 C1972 0.956 . S
H1985 C1972 0.961 . S
H1986 C1972 0.961 . S
H1987 C1973 0.958 . S
H1988 C1973 0.961 . S
H1989 C1973 0.960 . S
C1990 C1991 1.391 . S
C1990 C1992 1.394 . S
C1990 H2006 0.931 . S
C1991 C1990 1.391 . S
C1991 C1995 1.376 . S
C1992 C1990 1.394 . S
C1992 C1993 1.369 . S
C1992 C1996 1.531 . S
C1993 C1992 1.369 . S
C1993 C1994 1.410 . S
C1993 C2001 1.503 . S
C1994 C1993 1.410 . S
C1994 C1995 1.392 . S
C1994 C1997 1.511 . S
C1995 C1991 1.376 . S
C1995 C1994 1.392 . S
C1995 H2007 0.929 . S
C1996 C1992 1.531 . S
C1996 H2008 0.960 . S
C1996 H2009 0.962 . S
C1996 H2010 0.960 . S
C1997 C1994 1.511 . S
C1997 H2011 0.961 . S
C1997 H2012 0.961 . S
C1997 H2013 0.961 . S
C1998 C1999 1.370 . S
C1998 C2000 1.363 . S
C1998 H2014 0.931 . S
C1999 C1998 1.370 . S
C1999 C2003 1.408 . S
C2000 C1998 1.363 . S
C2000 C2001 1.370 . S
C2000 C2004 1.524 . S
C2001 C1993 1.503 . S
C2001 C2000 1.370 . S
C2001 C2002 1.403 . S
C2002 C2001 1.403 . S
C2002 C2003 1.404 . S
C2002 C2005 1.539 . S
C2003 C1999 1.408 . S
C2003 C2002 1.404 . S
C2003 H2015 0.930 . S
C2004 C2000 1.524 . S
C2004 H2016 0.956 . S
C2004 H2017 0.961 . S
C2004 H2018 0.961 . S
C2005 C2002 1.539 . S
C2005 H2019 0.958 . S
C2005 H2020 0.961 . S
C2005 H2021 0.960 . S
H2006 C1990 0.931 . S
H2007 C1995 0.929 . S
H2008 C1996 0.960 . S
H2009 C1996 0.962 . S
H2010 C1996 0.960 . S
H2011 C1997 0.961 . S
H2012 C1997 0.961 . S
H2013 C1997 0.961 . S
H2014 C1998 0.931 . S
H2015 C2003 0.930 . S
H2016 C2004 0.956 . S
H2017 C2004 0.961 . S
H2018 C2004 0.961 . S
H2019 C2005 0.958 . S
H2020 C2005 0.961 . S
H2021 C2005 0.960 . S
C2022 C2023 1.391 . S
C2022 C2024 1.394 . S
C2022 H2038 0.931 . S
C2023 C2022 1.391 . S
C2023 C2027 1.376 . S
C2024 C2022 1.394 . S
C2024 C2025 1.369 . S
C2024 C2028 1.531 . S
C2025 C2024 1.369 . S
C2025 C2026 1.410 . S
C2025 C2033 1.503 . S
C2026 C2025 1.410 . S
C2026 C2027 1.392 . S
C2026 C2029 1.511 . S
C2027 C2023 1.376 . S
C2027 C2026 1.392 . S
C2027 H2039 0.929 . S
C2028 C2024 1.531 . S
C2028 H2040 0.960 . S
C2028 H2041 0.962 . S
C2028 H2042 0.960 . S
C2029 C2026 1.511 . S
C2029 H2043 0.961 . S
C2029 H2044 0.961 . S
C2029 H2045 0.961 . S
C2030 C2031 1.370 . S
C2030 C2032 1.363 . S
C2030 H2046 0.931 . S
C2031 C2030 1.370 . S
C2031 C2035 1.408 . S
C2032 C2030 1.363 . S
C2032 C2033 1.370 . S
C2032 C2036 1.524 . S
C2033 C2025 1.503 . S
C2033 C2032 1.370 . S
C2033 C2034 1.403 . S
C2034 C2033 1.403 . S
C2034 C2035 1.404 . S
C2034 C2037 1.539 . S
C2035 C2031 1.408 . S
C2035 C2034 1.404 . S
C2035 H2047 0.930 . S
C2036 C2032 1.524 . S
C2036 H2048 0.956 . S
C2036 H2049 0.961 . S
C2036 H2050 0.961 . S
C2037 C2034 1.539 . S
C2037 H2051 0.958 . S
C2037 H2052 0.961 . S
C2037 H2053 0.960 . S
H2038 C2022 0.931 . S
H2039 C2027 0.929 . S
H2040 C2028 0.960 . S
H2041 C2028 0.962 . S
H2042 C2028 0.960 . S
H2043 C2029 0.961 . S
H2044 C2029 0.961 . S
H2045 C2029 0.961 . S
H2046 C2030 0.931 . S
H2047 C2035 0.930 . S
H2048 C2036 0.956 . S
H2049 C2036 0.961 . S
H2050 C2036 0.961 . S
H2051 C2037 0.958 . S
H2052 C2037 0.961 . S
H2053 C2037 0.960 . S
C527 C347 2.336 . S
C519 C24 2.454 . S
C559 C348 3.366 . S
C551 C53 3.447 . S
C591 C342 1.342 . S
C583 C82 1.379 . S
C615 C137 0.563 . S
C623 C341 0.556 . S
C647 C184 3.239 . S
C655 C344 3.146 . S
C687 C346 1.161 . S
C679 C202 1.157 . S
C711 C266 0.538 . S
C719 C345 0.397 . S
C743 C293 2.438 . S
C751 C343 2.346 . S
C783 C378 2.830 . S
C775 C2 2.805 . S
C807 C57 0.602 . S
C815 C409 0.608 . S
C847 C377 0.738 . S
C839 C106 0.717 . S
C879 C412 0.890 . S
C871 C143 0.925 . S
C903 C162 1.172 . S
C911 C375 1.167 . S
C943 C407 0.865 1_556 S
C935 C226 0.909 . S
C967 C264 2.275 . S
C975 C380 2.290 . S
C999 C297 0.604 . S
C1007 C414 0.380 . S
C1031 C26 0.974 . S
C1039 C410 0.959 . S
C1063 C186 0.342 . S
C1071 C413 0.386 . S
C1103 C381 2.335 . S
C1095 C224 2.395 . S
C1135 C408 1.550 1_556 S
C1127 C242 1.624 . S
C1159 C303 3.456 . S
C1167 C374 3.486 . S
C1191 C104 2.187 . S
C1199 C411 2.217 . S
C1231 C376 2.521 . S
C1223 C133 2.589 . S
C1255 C63 1.690 . S
C1263 C379 1.702 . S
C1287 C304 2.574 . S
C1295 C446 2.478 . S
C1319 C173 2.923 . S
C1327 C447 2.838 . S
C1359 C441 1.328 . S
C1351 C223 1.348 . S
C1391 C440 0.336 . S
C1383 C257 0.467 . S
C1415 C64 3.178 . S
C1423 C443 3.088 . S
C1455 C445 1.193 . S
C1447 C103 1.246 . S
C1479 C146 0.232 . S
C1487 C444 0.239 . S
C1511 C13 2.519 . S
C1519 C442 2.429 . S
C1543 C282 3.612 . S
C1551 C480 3.560 . S
C1583 C512 0.591 . S
C1575 C177 0.561 . S
C1607 C213 2.349 . S
C1615 C473 2.349 . S
C1639 C263 1.933 . S
C1647 C507 1.932 . S
C1679 C478 1.471 . S
C1671 C42 1.480 . S
C1703 C93 2.350 . S
C1711 C509 2.329 . S
C1743 C475 2.855 . S
C1735 C144 2.877 . S
C1775 C510 0.994 . S
C1767 C17 0.856 . S
C1807 C506 0.205 . S
C1799 C306 0.531 . S
C1831 C66 0.769 . S
C1839 C508 0.428 . S
C1863 C97 0.712 . S
C1871 C477 0.683 . S
C1903 C511 1.180 . S
C1895 C122 1.203 . S
C1927 C23 3.008 . S
C1935 C476 2.896 . S
C1959 C217 1.045 . S
C1967 C513 0.993 . S
C1999 C479 2.492 . S
C1991 C253 2.522 . S
C2031 C474 0.963 . S
C2023 C183 0.970 . S
