# Generated by pormake.
# Topology cor, (4,6)-cn, num edge types: 1
# Building blocks:
#     Node 0, Type 0, BuildingBlock: KUFVIS_clean_sbu_0, # of connection points: 4
#     Node 1, Type 0, BuildingBlock: KUFVIS_clean_sbu_0, # of connection points: 4
#     Node 2, Type 0, BuildingBlock: KUFVIS_clean_sbu_0, # of connection points: 4
#     Node 3, Type 0, BuildingBlock: KUFVIS_clean_sbu_0, # of connection points: 4
#     Node 4, Type 0, BuildingBlock: KUFVIS_clean_sbu_0, # of connection points: 4
#     Node 5, Type 0, BuildingBlock: KUFVIS_clean_sbu_0, # of connection points: 4
#     Node 6, Type 0, BuildingBlock: KUFVIS_clean_sbu_0, # of connection points: 4
#     Node 7, Type 0, BuildingBlock: KUFVIS_clean_sbu_0, # of connection points: 4
#     Node 8, Type 0, BuildingBlock: KUFVIS_clean_sbu_0, # of connection points: 4
#     Node 9, Type 0, BuildingBlock: KUFVIS_clean_sbu_0, # of connection points: 4
#     Node 10, Type 0, BuildingBlock: KUFVIS_clean_sbu_0, # of connection points: 4
#     Node 11, Type 0, BuildingBlock: KUFVIS_clean_sbu_0, # of connection points: 4
#     Node 12, Type 0, BuildingBlock: KUFVIS_clean_sbu_0, # of connection points: 4
#     Node 13, Type 0, BuildingBlock: KUFVIS_clean_sbu_0, # of connection points: 4
#     Node 14, Type 0, BuildingBlock: KUFVIS_clean_sbu_0, # of connection points: 4
#     Node 15, Type 0, BuildingBlock: KUFVIS_clean_sbu_0, # of connection points: 4
#     Node 16, Type 0, BuildingBlock: KUFVIS_clean_sbu_0, # of connection points: 4
#     Node 17, Type 0, BuildingBlock: KUFVIS_clean_sbu_0, # of connection points: 4
#     Node 18, Type 1, BuildingBlock: MIDCAF_clean_sbu_0, # of connection points: 6
#     Node 19, Type 1, BuildingBlock: MIDCAF_clean_sbu_0, # of connection points: 6
#     Node 20, Type 1, BuildingBlock: MIDCAF_clean_sbu_0, # of connection points: 6
#     Node 21, Type 1, BuildingBlock: MIDCAF_clean_sbu_0, # of connection points: 6
#     Node 22, Type 1, BuildingBlock: MIDCAF_clean_sbu_0, # of connection points: 6
#     Node 23, Type 1, BuildingBlock: MIDCAF_clean_sbu_0, # of connection points: 6
#     Node 24, Type 1, BuildingBlock: MIDCAF_clean_sbu_0, # of connection points: 6
#     Node 25, Type 1, BuildingBlock: MIDCAF_clean_sbu_0, # of connection points: 6
#     Node 26, Type 1, BuildingBlock: MIDCAF_clean_sbu_0, # of connection points: 6
#     Node 27, Type 1, BuildingBlock: MIDCAF_clean_sbu_0, # of connection points: 6
#     Node 28, Type 1, BuildingBlock: MIDCAF_clean_sbu_0, # of connection points: 6
#     Node 29, Type 1, BuildingBlock: MIDCAF_clean_sbu_0, # of connection points: 6
#     Edge 30, Type (0, 1), BuildingBlock: EZIPEK_clean_linker_0, # of connection points: 2
#     Edge 31, Type (0, 1), BuildingBlock: EZIPEK_clean_linker_0, # of connection points: 2
#     Edge 32, Type (0, 1), BuildingBlock: EZIPEK_clean_linker_0, # of connection points: 2
#     Edge 33, Type (0, 1), BuildingBlock: EZIPEK_clean_linker_0, # of connection points: 2
#     Edge 34, Type (0, 1), BuildingBlock: EZIPEK_clean_linker_0, # of connection points: 2
#     Edge 35, Type (0, 1), BuildingBlock: EZIPEK_clean_linker_0, # of connection points: 2
#     Edge 36, Type (0, 1), BuildingBlock: EZIPEK_clean_linker_0, # of connection points: 2
#     Edge 37, Type (0, 1), BuildingBlock: EZIPEK_clean_linker_0, # of connection points: 2
#     Edge 38, Type (0, 1), BuildingBlock: EZIPEK_clean_linker_0, # of connection points: 2
#     Edge 39, Type (0, 1), BuildingBlock: EZIPEK_clean_linker_0, # of connection points: 2
#     Edge 40, Type (0, 1), BuildingBlock: EZIPEK_clean_linker_0, # of connection points: 2
#     Edge 41, Type (0, 1), BuildingBlock: EZIPEK_clean_linker_0, # of connection points: 2
#     Edge 42, Type (0, 1), BuildingBlock: EZIPEK_clean_linker_0, # of connection points: 2
#     Edge 43, Type (0, 1), BuildingBlock: EZIPEK_clean_linker_0, # of connection points: 2
#     Edge 44, Type (0, 1), BuildingBlock: EZIPEK_clean_linker_0, # of connection points: 2
#     Edge 45, Type (0, 1), BuildingBlock: EZIPEK_clean_linker_0, # of connection points: 2
#     Edge 46, Type (0, 1), BuildingBlock: EZIPEK_clean_linker_0, # of connection points: 2
#     Edge 47, Type (0, 1), BuildingBlock: EZIPEK_clean_linker_0, # of connection points: 2
#     Edge 48, Type (0, 1), BuildingBlock: EZIPEK_clean_linker_0, # of connection points: 2
#     Edge 49, Type (0, 1), BuildingBlock: EZIPEK_clean_linker_0, # of connection points: 2
#     Edge 50, Type (0, 1), BuildingBlock: EZIPEK_clean_linker_0, # of connection points: 2
#     Edge 51, Type (0, 1), BuildingBlock: EZIPEK_clean_linker_0, # of connection points: 2
#     Edge 52, Type (0, 1), BuildingBlock: EZIPEK_clean_linker_0, # of connection points: 2
#     Edge 53, Type (0, 1), BuildingBlock: EZIPEK_clean_linker_0, # of connection points: 2
#     Edge 54, Type (0, 1), BuildingBlock: EZIPEK_clean_linker_0, # of connection points: 2
#     Edge 55, Type (0, 1), BuildingBlock: EZIPEK_clean_linker_0, # of connection points: 2
#     Edge 56, Type (0, 1), BuildingBlock: EZIPEK_clean_linker_0, # of connection points: 2
#     Edge 57, Type (0, 1), BuildingBlock: EZIPEK_clean_linker_0, # of connection points: 2
#     Edge 58, Type (0, 1), BuildingBlock: EZIPEK_clean_linker_0, # of connection points: 2
#     Edge 59, Type (0, 1), BuildingBlock: EZIPEK_clean_linker_0, # of connection points: 2
#     Edge 60, Type (0, 1), BuildingBlock: EZIPEK_clean_linker_0, # of connection points: 2
#     Edge 61, Type (0, 1), BuildingBlock: EZIPEK_clean_linker_0, # of connection points: 2
#     Edge 62, Type (0, 1), BuildingBlock: EZIPEK_clean_linker_0, # of connection points: 2
#     Edge 63, Type (0, 1), BuildingBlock: EZIPEK_clean_linker_0, # of connection points: 2
#     Edge 64, Type (0, 1), BuildingBlock: EZIPEK_clean_linker_0, # of connection points: 2
#     Edge 65, Type (0, 1), BuildingBlock: EZIPEK_clean_linker_0, # of connection points: 2
#     Edge 66, Type (0, 1), BuildingBlock: EZIPEK_clean_linker_0, # of connection points: 2
#     Edge 67, Type (0, 1), BuildingBlock: EZIPEK_clean_linker_0, # of connection points: 2
#     Edge 68, Type (0, 1), BuildingBlock: EZIPEK_clean_linker_0, # of connection points: 2
#     Edge 69, Type (0, 1), BuildingBlock: EZIPEK_clean_linker_0, # of connection points: 2
#     Edge 70, Type (0, 1), BuildingBlock: EZIPEK_clean_linker_0, # of connection points: 2
#     Edge 71, Type (0, 1), BuildingBlock: EZIPEK_clean_linker_0, # of connection points: 2
#     Edge 72, Type (0, 1), BuildingBlock: EZIPEK_clean_linker_0, # of connection points: 2
#     Edge 73, Type (0, 1), BuildingBlock: EZIPEK_clean_linker_0, # of connection points: 2
#     Edge 74, Type (0, 1), BuildingBlock: EZIPEK_clean_linker_0, # of connection points: 2
#     Edge 75, Type (0, 1), BuildingBlock: EZIPEK_clean_linker_0, # of connection points: 2
#     Edge 76, Type (0, 1), BuildingBlock: EZIPEK_clean_linker_0, # of connection points: 2
#     Edge 77, Type (0, 1), BuildingBlock: EZIPEK_clean_linker_0, # of connection points: 2
#     Edge 78, Type (0, 1), BuildingBlock: EZIPEK_clean_linker_0, # of connection points: 2
#     Edge 79, Type (0, 1), BuildingBlock: EZIPEK_clean_linker_0, # of connection points: 2
#     Edge 80, Type (0, 1), BuildingBlock: EZIPEK_clean_linker_0, # of connection points: 2
#     Edge 81, Type (0, 1), BuildingBlock: EZIPEK_clean_linker_0, # of connection points: 2
#     Edge 82, Type (0, 1), BuildingBlock: EZIPEK_clean_linker_0, # of connection points: 2
#     Edge 83, Type (0, 1), BuildingBlock: EZIPEK_clean_linker_0, # of connection points: 2
#     Edge 84, Type (0, 1), BuildingBlock: EZIPEK_clean_linker_0, # of connection points: 2
#     Edge 85, Type (0, 1), BuildingBlock: EZIPEK_clean_linker_0, # of connection points: 2
#     Edge 86, Type (0, 1), BuildingBlock: EZIPEK_clean_linker_0, # of connection points: 2
#     Edge 87, Type (0, 1), BuildingBlock: EZIPEK_clean_linker_0, # of connection points: 2
#     Edge 88, Type (0, 1), BuildingBlock: EZIPEK_clean_linker_0, # of connection points: 2
#     Edge 89, Type (0, 1), BuildingBlock: EZIPEK_clean_linker_0, # of connection points: 2
#     Edge 90, Type (0, 1), BuildingBlock: EZIPEK_clean_linker_0, # of connection points: 2
#     Edge 91, Type (0, 1), BuildingBlock: EZIPEK_clean_linker_0, # of connection points: 2
#     Edge 92, Type (0, 1), BuildingBlock: EZIPEK_clean_linker_0, # of connection points: 2
#     Edge 93, Type (0, 1), BuildingBlock: EZIPEK_clean_linker_0, # of connection points: 2
#     Edge 94, Type (0, 1), BuildingBlock: EZIPEK_clean_linker_0, # of connection points: 2
#     Edge 95, Type (0, 1), BuildingBlock: EZIPEK_clean_linker_0, # of connection points: 2
#     Edge 96, Type (0, 1), BuildingBlock: EZIPEK_clean_linker_0, # of connection points: 2
#     Edge 97, Type (0, 1), BuildingBlock: EZIPEK_clean_linker_0, # of connection points: 2
#     Edge 98, Type (0, 1), BuildingBlock: EZIPEK_clean_linker_0, # of connection points: 2
#     Edge 99, Type (0, 1), BuildingBlock: EZIPEK_clean_linker_0, # of connection points: 2
#     Edge 100, Type (0, 1), BuildingBlock: EZIPEK_clean_linker_0, # of connection points: 2
#     Edge 101, Type (0, 1), BuildingBlock: EZIPEK_clean_linker_0, # of connection points: 2
# Relax obj value: 0.121
# Max RMSD: 0.161
# Mean RMSD: 0.124
data_MOF--net-cor--node1-KUFVIS_clean_sbu_0--node2-MIDCAF_clean_sbu_0--edge1-EZIPEK_clean_linker_0
_symmetry_space_group_name_H-M    P1
_symmetry_Int_Tables_number       1
_symmetry_cell_setting            triclinic
loop_
_symmetry_equiv_pos_as_xyz
'x, y, z'
_cell_length_a     28.480142
_cell_length_b     28.408311
_cell_length_c     73.777294
_cell_angle_alpha  89.59464
_cell_angle_beta   90.809283
_cell_angle_gamma 119.97629
loop_
_atom_site_label
_atom_site_type_symbol
_atom_site_fract_x
_atom_site_fract_y
_atom_site_fract_z
_atom_type_partial_charge
Mn0 Mn 0.71068 0.99489 0.25714 0.0
Mn1 Mn 0.83004 0.10929 0.26178 0.0
C2 C 0.77749 0.99642 0.27594 0.0
C3 C 0.62438 0.93304 0.26741 0.0
C4 C 0.8033 0.03852 0.22934 0.0
O5 O 0.69065 0.05051 0.24829 0.0
O6 O 0.77561 0.12208 0.24865 0.0
C7 C 0.79347 0.16643 0.28626 0.0
N8 N 0.82687 0.14617 0.28284 0.0
C9 C 0.87634 0.18313 0.31068 0.0
C10 C 0.84258 0.20451 0.31449 0.0
C11 C 0.80086 0.19597 0.30224 0.0
C12 C 0.86694 0.15391 0.29456 0.0
H13 H 0.76169 0.16052 0.27682 0.0
C14 C 0.7249 0.10001 0.2448 0.0
O15 O 0.63772 0.93198 0.25069 0.0
O16 O 0.65921 0.97202 0.27759 0.0
N17 N 0.88596 0.10355 0.27424 0.0
C18 C 0.91463 0.07996 0.2685 0.0
C19 C 0.95753 0.08426 0.27924 0.0
C20 C 0.97077 0.11332 0.29557 0.0
C21 C 0.94069 0.13724 0.30123 0.0
C22 C 0.89834 0.13151 0.28997 0.0
H23 H 0.90476 0.05796 0.25585 0.0
O24 O 0.74135 0.95205 0.2682 0.0
O25 O 0.77515 0.0399 0.2717 0.0
O26 O 0.75338 0.00726 0.2333 0.0
O27 O 0.83746 0.07389 0.24026 0.0
C28 C 0.95071 0.16628 0.3176 0.0
C29 C 0.91885 0.18953 0.32225 0.0
H30 H 0.84831 0.22752 0.32678 0.0
H31 H 0.77467 0.21241 0.30505 0.0
H32 H 0.98054 0.06552 0.27492 0.0
H33 H 0.00401 0.1165 0.30362 0.0
H34 H 0.98212 0.17041 0.32689 0.0
H35 H 0.92701 0.21171 0.33487 0.0
Mn36 Mn 0.01808 0.72942 0.25053 0.0
Mn37 Mn 0.12685 0.85247 0.25149 0.0
C38 C 0.01782 0.799 0.23338 0.0
C39 C 0.95781 0.64547 0.23738 0.0
C40 C 0.04927 0.81218 0.28159 0.0
O41 O 0.07544 0.71035 0.25886 0.0
O42 O 0.1383 0.79693 0.26382 0.0
C43 C 0.18496 0.82192 0.22498 0.0
N44 N 0.17118 0.85796 0.23152 0.0
C45 C 0.23294 0.92821 0.2116 0.0
C46 C 0.24995 0.89284 0.20518 0.0
C47 C 0.22489 0.83899 0.2116 0.0
C48 C 0.19122 0.90781 0.22423 0.0
H49 H 0.16599 0.78084 0.23013 0.0
C50 C 0.12049 0.74624 0.26588 0.0
O51 O 0.95623 0.65411 0.25457 0.0
O52 O -0.00236 0.68313 0.22834 0.0
N53 N 0.12601 0.91336 0.24119 0.0
C54 C 0.10245 0.94066 0.24814 0.0
C55 C 0.12454 0.99595 0.24421 0.0
C56 C 0.17168 0.02271 0.23379 0.0
C57 C 0.19231 0.99287 0.22551 0.0
C58 C 0.16871 0.938 0.22994 0.0
H59 H 0.06897 0.92108 0.2574 0.0
O60 O 0.97474 0.7609 0.24079 0.0
O61 O 0.06229 0.79906 0.23805 0.0
O62 O 0.02402 0.7633 0.27583 0.0
O63 O 0.08421 0.85143 0.27218 0.0
C64 C 0.23663 0.01578 0.2136 0.0
C65 C 0.25592 0.98296 0.20621 0.0
H66 H 0.28173 0.90638 0.19523 0.0
H67 H 0.237 0.81108 0.20648 0.0
H68 H 0.10634 0.01812 0.2497 0.0
H69 H 0.19191 0.06616 0.23205 0.0
H70 H 0.25562 0.05829 0.20987 0.0
H71 H 0.28904 0.00049 0.19671 0.0
Mn72 Mn 0.29902 0.30087 0.26235 0.0
Mn73 Mn 0.28582 0.17685 0.26247 0.0
C74 C 0.23746 0.23523 0.28144 0.0
C75 C 0.33125 0.38671 0.27478 0.0
C76 C 0.23701 0.21327 0.23304 0.0
O77 O 0.36942 0.31645 0.25066 0.0
O78 O 0.3505 0.22952 0.24823 0.0
C79 C 0.38598 0.20034 0.28249 0.0
N80 N 0.33085 0.17352 0.28136 0.0
C81 C 0.32416 0.12034 0.30773 0.0
C82 C 0.38076 0.14888 0.30951 0.0
C83 C 0.41185 0.1889 0.29675 0.0
C84 C 0.30068 0.13375 0.29324 0.0
H85 H 0.4101 0.22916 0.27233 0.0
C86 C 0.38002 0.28051 0.24497 0.0
O87 O 0.31217 0.37595 0.25828 0.0
O88 O 0.3371 0.34992 0.28324 0.0
N89 N 0.22646 0.12274 0.27621 0.0
C90 C 0.17228 0.10126 0.27338 0.0
C91 C 0.13549 0.06004 0.28488 0.0
C92 C 0.15488 0.04128 0.29917 0.0
C93 C 0.2108 0.06572 0.30235 0.0
C94 C 0.24542 0.10671 0.29048 0.0
H95 H 0.15748 0.11617 0.26262 0.0
O96 O 0.23089 0.27437 0.27537 0.0
O97 O 0.27975 0.23384 0.2753 0.0
O98 O 0.25772 0.26206 0.23879 0.0
O99 O 0.23896 0.17595 0.24231 0.0
C100 C 0.2336 0.05186 0.31707 0.0
C101 C 0.29018 0.07892 0.31972 0.0
H102 H 0.40078 0.13986 0.32046 0.0
H103 H 0.45565 0.21031 0.29772 0.0
H104 H 0.0923 0.04261 0.28269 0.0
H105 H 0.12646 0.00883 0.30781 0.0
H106 H 0.20822 0.02144 0.32671 0.0
H107 H 0.30707 0.06788 0.33113 0.0
Mn108 Mn 0.30117 0.02736 0.74924 0.0
Mn109 Mn 0.18129 0.90856 0.74801 0.0
C110 C 0.22891 0.01925 0.73208 0.0
C111 C 0.38575 0.08993 0.73726 0.0
C112 C 0.21851 0.98525 0.78012 0.0
O113 O 0.32308 0.97333 0.75869 0.0
O114 O 0.24092 0.89637 0.7568 0.0
C115 C 0.20357 0.85174 0.71875 0.0
N116 N 0.17367 0.87286 0.72533 0.0
C117 C 0.11369 0.84068 0.69932 0.0
C118 C 0.14443 0.81928 0.6922 0.0
C119 C 0.1896 0.82484 0.70197 0.0
C120 C 0.13004 0.86761 0.71603 0.0
H121 H 0.23733 0.85496 0.72637 0.0
C122 C 0.2916 0.92224 0.76105 0.0
O123 O 0.37417 0.09228 0.75407 0.0
O124 O 0.35023 0.04883 0.72785 0.0
N125 N 0.12047 0.91483 0.73992 0.0
C126 C 0.09353 0.93548 0.74902 0.0
C127 C 0.04763 0.93348 0.741 0.0
C128 C 0.02757 0.90705 0.72434 0.0
C129 C 0.05498 0.8847 0.71547 0.0
C130 C 0.10164 0.88946 0.72382 0.0
H131 H 0.10779 0.95473 0.76207 0.0
O132 O 0.26645 0.06631 0.73783 0.0
O133 O 0.23351 0.97779 0.73703 0.0
O134 O 0.26413 0.02031 0.77363 0.0
O135 O 0.18432 0.94283 0.77145 0.0
C136 C 0.03766 0.85768 0.69871 0.0
C137 C 0.06714 0.83584 0.6906 0.0
H138 H 0.13348 0.79813 0.67932 0.0
H139 H 0.21328 0.80798 0.69666 0.0
H140 H 0.0285 0.95322 0.74746 0.0
H141 H 0.991 0.90386 0.71853 0.0
H142 H 0.00162 0.85336 0.69202 0.0
H143 H 0.05357 0.81509 0.6777 0.0
Mn144 Mn 0.00964 0.29923 0.75407 0.0
Mn145 Mn 0.12881 0.3017 0.75444 0.0
C146 C 0.01727 0.23704 0.7358 0.0
C147 C 0.94544 0.31819 0.74113 0.0
C148 C 0.04968 0.25641 0.7851 0.0
O149 O 0.05986 0.37596 0.76327 0.0
O150 O 0.13622 0.37072 0.7636 0.0
C151 C 0.18895 0.38718 0.72715 0.0
N152 N 0.17187 0.33646 0.73372 0.0
C153 C 0.23396 0.32575 0.7148 0.0
C154 C 0.25203 0.37786 0.70771 0.0
C155 C 0.22893 0.40848 0.71376 0.0
C156 C 0.19226 0.30586 0.72749 0.0
H157 H 0.17217 0.41087 0.73216 0.0
C158 C 0.11006 0.39538 0.76694 0.0
O159 O 0.94304 0.30453 0.75807 0.0
O160 O 0.98725 0.32522 0.73221 0.0
N161 N 0.13095 0.23881 0.74681 0.0
C162 C 0.11243 0.1915 0.75626 0.0
C163 C 0.13698 0.15981 0.75391 0.0
C164 C 0.17972 0.17658 0.74165 0.0
C165 C 0.19603 0.22354 0.73133 0.0
C166 C 0.17149 0.2546 0.73475 0.0
H167 H 0.08157 0.17978 0.7664 0.0
O168 O 0.97305 0.22566 0.74399 0.0
O169 O 0.06029 0.28295 0.74079 0.0
O170 O 0.01561 0.26897 0.77882 0.0
O171 O 0.09161 0.2652 0.77662 0.0
C172 C 0.23854 0.24279 0.71878 0.0
C173 C 0.25675 0.29342 0.71022 0.0
H174 H 0.28398 0.39497 0.69777 0.0
H175 H 0.2428 0.44886 0.70844 0.0
H176 H 0.12437 0.12376 0.76208 0.0
H177 H 0.20071 0.15393 0.74044 0.0
H178 H 0.25803 0.21934 0.71582 0.0
H179 H 0.28951 0.30792 0.70061 0.0
Mn180 Mn 0.71955 0.73566 0.75933 0.0
Mn181 Mn 0.84728 0.75818 0.76092 0.0
C182 C 0.78436 0.80653 0.77672 0.0
C183 C 0.63448 0.70185 0.77261 0.0
C184 C 0.80161 0.78873 0.72874 0.0
O185 O 0.70949 0.66349 0.74985 0.0
O186 O 0.79663 0.68209 0.75208 0.0
C187 C 0.84185 0.68301 0.78989 0.0
N188 N 0.86221 0.73442 0.78347 0.0
C189 C 0.92275 0.7712 0.80916 0.0
C190 C 0.90147 0.71862 0.81624 0.0
C191 C 0.86093 0.67427 0.80651 0.0
C192 C 0.90211 0.77725 0.79252 0.0
H193 H 0.81203 0.64911 0.78224 0.0
C194 C 0.74651 0.65109 0.74745 0.0
O195 O 0.64178 0.71542 0.75558 0.0
O196 O 0.67422 0.70161 0.78119 0.0
N197 N 0.8981 0.8298 0.76896 0.0
C198 C 0.91076 0.87816 0.76105 0.0
C199 C 0.94919 0.92669 0.7694 0.0
C200 C 0.97571 0.92485 0.78531 0.0
C201 C 0.96042 0.87474 0.79355 0.0
C202 C 0.92104 0.82775 0.78483 0.0
H203 H 0.89117 0.87974 0.74861 0.0
O204 O 0.74253 0.80741 0.77018 0.0
O205 O 0.78867 0.76453 0.77205 0.0
O206 O 0.75399 0.77177 0.73487 0.0
O207 O 0.83863 0.78553 0.73749 0.0
C208 C 0.98143 0.86968 0.81033 0.0
C209 C 0.96308 0.81794 0.81808 0.0
H210 H 0.91607 0.71182 0.82907 0.0
H211 H 0.8447 0.63342 0.81173 0.0
H212 H 0.95941 0.96539 0.76332 0.0
H213 H 0.00726 0.96225 0.79119 0.0
H214 H 0.01044 0.9055 0.8176 0.0
H215 H 0.97916 0.81463 0.83112 0.0
Mn216 Mn 0.38486 0.33028 0.59269 0.0
Mn217 Mn 0.50932 0.43998 0.59466 0.0
C218 C 0.45129 0.32624 0.61022 0.0
C219 C 0.29937 0.27076 0.60397 0.0
C220 C 0.46554 0.36946 0.56153 0.0
O221 O 0.36782 0.38934 0.58597 0.0
O222 O 0.4541 0.4595 0.58603 0.0
C223 C 0.49752 0.50624 0.62305 0.0
N224 N 0.52311 0.4804 0.61659 0.0
C225 C 0.59652 0.52669 0.63805 0.0
C226 C 0.5704 0.55316 0.64509 0.0
C227 C 0.52038 0.5425 0.63764 0.0
C228 C 0.57075 0.48961 0.62389 0.0
H229 H 0.46058 0.49979 0.61688 0.0
C230 C 0.40295 0.43898 0.58311 0.0
O231 O 0.30982 0.27119 0.58688 0.0
O232 O 0.33701 0.30741 0.61422 0.0
N233 N 0.56626 0.42751 0.60262 0.0
C234 C 0.58515 0.39734 0.59457 0.0
C235 C 0.63433 0.40222 0.60064 0.0
C236 C 0.66404 0.43909 0.61456 0.0
C237 C 0.64353 0.46933 0.62275 0.0
C238 C 0.59356 0.46146 0.6165 0.0
H239 H 0.56335 0.37066 0.58336 0.0
O240 O 0.41471 0.28471 0.60133 0.0
O241 O 0.4533 0.37233 0.60631 0.0
O242 O 0.41824 0.3388 0.56757 0.0
O243 O 0.50378 0.40538 0.57117 0.0
C244 C 0.67126 0.508 0.63652 0.0
C245 C 0.6476 0.53638 0.64426 0.0
H246 H 0.58856 0.58203 0.6561 0.0
H247 H 0.50013 0.56315 0.64285 0.0
H248 H 0.65006 0.37878 0.59429 0.0
H249 H 0.7027 0.44414 0.61876 0.0
H250 H 0.71098 0.51665 0.64119 0.0
H251 H 0.66917 0.56581 0.65487 0.0
Mn252 Mn 0.67467 0.05491 0.58696 0.0
Mn253 Mn 0.7916 0.1712 0.58085 0.0
C254 C 0.67516 0.12064 0.5682 0.0
C255 C 0.61272 0.96499 0.57957 0.0
C256 C 0.72623 0.14897 0.61465 0.0
O257 O 0.7303 0.03559 0.59663 0.0
O258 O 0.80395 0.11643 0.59326 0.0
C259 C 0.82351 0.11948 0.55263 0.0
N260 N 0.81649 0.16125 0.55806 0.0
C261 C 0.83788 0.20145 0.52837 0.0
C262 C 0.84811 0.16044 0.52273 0.0
C263 C 0.84018 0.11884 0.53485 0.0
C264 C 0.82075 0.19951 0.54619 0.0
H265 H 0.8152 0.08627 0.56166 0.0
C266 C 0.78073 0.06766 0.59912 0.0
O267 O 0.61478 0.98465 0.59554 0.0
O268 O 0.64828 -0.00222 0.56805 0.0
N269 N 0.78945 0.23063 0.56958 0.0
C270 C 0.78565 0.27106 0.57801 0.0
C271 C 0.79466 0.31711 0.5681 0.0
C272 C 0.80771 0.32114 0.54967 0.0
C273 C 0.81517 0.28083 0.54163 0.0
C274 C 0.80738 0.23685 0.55239 0.0
H275 H 0.77609 0.26818 0.59222 0.0
O276 O 0.63046 0.08348 0.57526 0.0
O277 O 0.71853 0.11809 0.57231 0.0
O278 O 0.68933 0.10202 0.60947 0.0
O279 O 0.76483 0.18164 0.60429 0.0
C280 C 0.83239 0.28367 0.52364 0.0
C281 C 0.84361 0.24394 0.517 0.0
H282 H 0.86111 0.15997 0.50903 0.0
H283 H 0.84641 0.08612 0.53046 0.0
H284 H 0.791 0.34914 0.5746 0.0
H285 H 0.81326 0.35604 0.54202 0.0
H286 H 0.83762 0.31632 0.51481 0.0
H287 H 0.85736 0.24684 0.50322 0.0
Mn288 Mn 0.97247 0.64276 0.59275 0.0
Mn289 Mn 0.98476 0.5319 0.59697 0.0
C290 C 0.91665 0.57566 0.61274 0.0
C291 C 0.99568 0.72942 0.60187 0.0
C292 C 0.92478 0.54674 0.56579 0.0
O293 O 0.04382 0.66672 0.57976 0.0
O294 O 0.0439 0.58808 0.58193 0.0
C295 C 0.08312 0.58839 0.62014 0.0
N296 N 0.03112 0.54733 0.61771 0.0
C297 C 0.02816 0.51521 0.64816 0.0
C298 C 0.08174 0.55706 0.65098 0.0
C299 C 0.1093 0.59385 0.63691 0.0
C300 C 0.00392 0.51243 0.63126 0.0
H301 H 0.10437 0.6169 0.60939 0.0
C302 C 0.06341 0.63641 0.57583 0.0
O303 O 0.97392 0.71143 0.58597 0.0
O304 O 0.00757 0.69887 0.61172 0.0
N305 N 0.93183 0.47257 0.61072 0.0
C306 C 0.8863 0.42826 0.60428 0.0
C307 C 0.85596 0.38444 0.61591 0.0
C308 C 0.87325 0.38641 0.63393 0.0
C309 C 0.92258 0.43037 0.63982 0.0
C310 C 0.95163 0.47224 0.62745 0.0
H311 H 0.87353 0.42649 0.59032 0.0
O312 O 0.90418 0.61071 0.60662 0.0
O313 O 0.96267 0.58136 0.60713 0.0
O314 O 0.9341 0.59347 0.57101 0.0
O315 O 0.93574 0.51612 0.57573 0.0
C316 C 0.94558 0.43269 0.65705 0.0
C317 C -0.00183 0.47549 0.66131 0.0
H318 H 0.10225 0.56108 0.66384 0.0
H319 H 0.15065 0.62627 0.63897 0.0
H320 H 0.8192 0.34937 0.61108 0.0
H321 H 0.84935 0.35299 0.64284 0.0
H322 H 0.92383 0.40095 0.66693 0.0
H323 H 0.01577 0.47654 0.67452 0.0
Mn324 Mn 0.9596 0.36562 0.08514 0.0
Mn325 Mn 0.84324 0.24526 0.08133 0.0
C326 C 0.8923 0.35615 0.06509 0.0
C327 C 0.04629 0.427 0.07473 0.0
C328 C 0.86935 0.32394 0.11288 0.0
O329 O 0.97786 0.3126 0.09833 0.0
O330 O 0.90126 0.2345 0.09175 0.0
C331 C 0.87939 0.19594 0.05356 0.0
N332 N 0.84388 0.21174 0.05904 0.0
C333 C 0.79106 0.17778 0.0316 0.0
C334 C 0.82689 0.16093 0.02568 0.0
C335 C 0.87142 0.17032 0.03668 0.0
C336 C 0.80161 0.20391 0.04842 0.0
H337 H 0.91354 0.20285 0.062 0.0
C338 C 0.94796 0.26074 0.09929 0.0
O339 O 0.03131 0.43127 0.09091 0.0
O340 O 0.01359 0.38377 0.06562 0.0
N341 N 0.78271 0.24833 0.07113 0.0
C342 C 0.75065 0.26514 0.07901 0.0
C343 C 0.70546 0.26018 0.06939 0.0
C344 C 0.69084 0.23368 0.05261 0.0
C345 C 0.72295 0.21451 0.04517 0.0
C346 C 0.76894 0.22276 0.0549 0.0
H347 H 0.7604 0.28369 0.09228 0.0
O348 O 0.92901 0.40377 0.07063 0.0
O349 O 0.89597 0.31538 0.07141 0.0
O350 O 0.91493 0.36142 0.10713 0.0
O351 O 0.83982 0.27879 0.10456 0.0
C352 C 0.71065 0.18707 0.02851 0.0
C353 C 0.745 0.16925 0.02156 0.0
H354 H 0.82058 0.14072 0.01274 0.0
H355 H 0.89934 0.15754 0.0322 0.0
H356 H 0.68225 0.2773 0.07467 0.0
H357 H 0.65481 0.22812 0.04556 0.0
H358 H 0.67445 0.17925 0.02117 0.0
H359 H 0.73536 0.14857 0.00861 0.0
Mn360 Mn 0.68206 0.64007 0.08429 0.0
Mn361 Mn 0.79491 0.63159 0.08326 0.0
C362 C 0.68098 0.57028 0.06712 0.0
C363 C 0.61597 0.65891 0.0728 0.0
C364 C 0.72336 0.59826 0.11558 0.0
O365 O 0.73907 0.71872 0.09088 0.0
O366 O 0.80774 0.70195 0.09288 0.0
C367 C 0.84489 0.71056 0.05312 0.0
N368 N 0.83366 0.66343 0.06155 0.0
C369 C 0.89134 0.64958 0.0415 0.0
C370 C 0.9059 0.69944 0.03313 0.0
C371 C 0.88154 0.72945 0.03869 0.0
C372 C 0.85279 0.63194 0.05522 0.0
H373 H 0.82544 0.73294 0.05733 0.0
C374 C 0.78773 0.73265 0.09562 0.0
O375 O 0.61965 0.65091 0.08996 0.0
O376 O 0.65382 0.66147 0.06257 0.0
N377 N 0.7938 0.56712 0.07562 0.0
C378 C 0.77752 0.5216 0.08589 0.0
C379 C 0.80298 0.49062 0.08392 0.0
C380 C 0.84397 0.50583 0.07104 0.0
C381 C 0.85776 0.55064 0.05985 0.0
C382 C 0.83307 0.58165 0.06311 0.0
H383 H 0.74821 0.51124 0.09651 0.0
O384 O 0.63951 0.56359 0.07613 0.0
O385 O 0.72599 0.61565 0.07077 0.0
O386 O 0.69314 0.61608 0.10962 0.0
O387 O 0.75985 0.59763 0.10609 0.0
C388 C 0.8982 0.56821 0.04656 0.0
C389 C 0.91396 0.61702 0.03703 0.0
H390 H 0.9352 0.71473 0.02232 0.0
H391 H 0.89148 0.76729 0.03201 0.0
H392 H 0.79237 0.45635 0.09279 0.0
H393 H 0.86549 0.48364 0.07001 0.0
H394 H 0.91769 0.54472 0.04367 0.0
H395 H 0.94461 0.6299 0.02669 0.0
Mn396 Mn 0.39405 0.07134 0.09228 0.0
Mn397 Mn 0.52026 0.08882 0.09487 0.0
C398 C 0.46027 0.1414 0.10963 0.0
C399 C 0.3078 0.04031 0.1044 0.0
C400 C 0.47911 0.12279 0.06232 0.0
O401 O 0.38141 -0.00222 0.08318 0.0
O402 O 0.46786 0.01436 0.08515 0.0
C403 C 0.50705 0.00869 0.1231 0.0
N404 N 0.53026 0.0611 0.11742 0.0
C405 C 0.58696 0.09219 0.14418 0.0
C406 C 0.56243 0.03857 0.15052 0.0
C407 C 0.52243 0.99655 0.13987 0.0
C408 C 0.5698 0.10166 0.12735 0.0
H409 H 0.47801 0.97653 0.11471 0.0
C410 C 0.41752 0.98413 0.08072 0.0
O411 O 0.31753 0.05391 0.08743 0.0
O412 O 0.34595 0.03897 0.11371 0.0
N413 N 0.57332 0.15857 0.10396 0.0
C414 C 0.59126 0.20842 0.09635 0.0
C415 C 0.63036 0.25499 0.10559 0.0
C416 C 0.65206 0.2496 0.12211 0.0
C417 C 0.63242 0.19803 0.12977 0.0
C418 C 0.5926 0.15323 0.12021 0.0
H419 H 0.57508 0.2127 0.08351 0.0
O420 O 0.41946 0.14409 0.10298 0.0
O421 O 0.46241 0.09793 0.10535 0.0
O422 O 0.43106 0.1059 0.06802 0.0
O423 O 0.51568 0.11969 0.07149 0.0
C424 C 0.64968 0.18954 0.14679 0.0
C425 C 0.62756 0.13667 0.15394 0.0
H426 H 0.57433 0.02917 0.16344 0.0
H427 H 0.50388 0.95487 0.14447 0.0
H428 H 0.64405 0.29496 0.09993 0.0
H429 H 0.68346 0.28529 0.12887 0.0
H430 H 0.67879 0.22363 0.15466 0.0
H431 H 0.64129 0.13084 0.16709 0.0
Mn432 Mn 0.05146 0.66605 0.92221 0.0
Mn433 Mn 0.16766 0.7842 0.92787 0.0
C434 C 0.11954 0.67025 0.94108 0.0
C435 C 0.96475 0.60113 0.93177 0.0
C436 C 0.14557 0.71714 0.89465 0.0
O437 O 0.02871 0.71965 0.91301 0.0
O438 O 0.11134 0.79445 0.91481 0.0
C439 C 0.12335 0.83073 0.95379 0.0
N440 N 0.16046 0.81568 0.94968 0.0
C441 C 0.2064 0.84854 0.97834 0.0
C442 C 0.16871 0.86446 0.9829 0.0
C443 C 0.12683 0.85523 0.9706 0.0
C444 C 0.20012 0.8232 0.96157 0.0
H445 H 0.09146 0.82422 0.9443 0.0
C446 C 0.06123 0.76997 0.90996 0.0
O447 O 0.97995 0.60137 0.91522 0.0
O448 O -0.00188 0.64015 0.94226 0.0
N449 N 0.22616 0.78192 0.9399 0.0
C450 C 0.26171 0.76833 0.93278 0.0
C451 C 0.3073 0.7772 0.94297 0.0
C452 C 0.31673 0.80146 0.96012 0.0
C453 C 0.28017 0.81602 0.967 0.0
C454 C 0.23531 0.80598 0.95628 0.0
H455 H 0.25564 0.75129 0.91934 0.0
O456 O 0.08422 0.62514 0.93353 0.0
O457 O 0.11507 0.71256 0.93699 0.0
O458 O 0.09646 0.68206 0.89863 0.0
O459 O 0.17815 0.75299 0.90578 0.0
C460 C 0.28781 0.84215 0.98377 0.0
C461 C 0.25058 0.85777 0.9896 0.0
H462 H 0.17172 0.88406 0.99574 0.0
H463 H 0.09762 0.86745 0.974 0.0
H464 H 0.33554 0.7663 0.93746 0.0
H465 H 0.35294 0.8103 0.96768 0.0
H466 H 0.32286 0.8511 0.99203 0.0
H467 H 0.25693 0.87788 1.00256 0.0
Mn468 Mn 0.35107 0.4012 0.92018 0.0
Mn469 Mn 0.4614 0.52232 0.91465 0.0
C470 C 0.34544 0.4669 0.90327 0.0
C471 C 0.28946 0.31369 0.91062 0.0
C472 C 0.39602 0.49583 0.94787 0.0
O473 O 0.41089 0.38493 0.92776 0.0
O474 O 0.47651 0.47179 0.92879 0.0
C475 C 0.50112 0.47179 0.88851 0.0
N476 N 0.48981 0.51173 0.89264 0.0
C477 C 0.50499 0.54373 0.8618 0.0
C478 C 0.51965 0.50485 0.85751 0.0
C479 C 0.51727 0.46843 0.87091 0.0
C480 C 0.48971 0.5454 0.87964 0.0
H481 H 0.49641 0.44169 0.89839 0.0
C482 C 0.4579 0.42202 0.93296 0.0
O483 O 0.29224 0.32765 0.92751 0.0
O484 O 0.32573 0.3485 0.89979 0.0
N485 N 0.45511 0.57722 0.90175 0.0
C486 C 0.44508 0.61559 0.90865 0.0
C487 C 0.44798 0.65666 0.89726 0.0
C488 C 0.46052 0.65719 0.8789 0.0
C489 C 0.47308 0.61876 0.87232 0.0
C490 C 0.47215 0.58061 0.88456 0.0
H491 H 0.43499 0.61466 0.92274 0.0
O492 O 0.30289 0.42819 0.91083 0.0
O493 O 0.39046 0.46633 0.906 0.0
O494 O 0.36646 0.44541 0.9438 0.0
O495 O 0.42985 0.53193 0.93698 0.0
C496 C 0.48764 0.61746 0.85423 0.0
C497 C 0.50352 0.57991 0.84896 0.0
H498 H 0.53157 0.50179 0.84389 0.0
H499 H 0.52686 0.43715 0.86759 0.0
H500 H 0.43994 0.68736 0.90253 0.0
H501 H 0.46179 0.68805 0.87009 0.0
H502 H 0.48641 0.64476 0.84423 0.0
H503 H 0.51446 0.57919 0.835 0.0
Mn504 Mn 0.64063 0.96669 0.92866 0.0
Mn505 Mn 0.6311 0.84564 0.93445 0.0
C506 C 0.57279 0.90229 0.94671 0.0
C507 C 0.66945 0.05547 0.93725 0.0
C508 C 0.58468 0.86998 0.90195 0.0
O509 O 0.71462 0.98198 0.91979 0.0
O510 O 0.69371 0.89522 0.91949 0.0
C511 C 0.7257 0.8987 0.95951 0.0
N512 N 0.67435 0.85772 0.95589 0.0
C513 C 0.66505 0.82431 0.98646 0.0
C514 C 0.71881 0.86427 0.99017 0.0
C515 C 0.74907 0.90205 0.97667 0.0
C516 C 0.64391 0.82332 0.96912 0.0
H517 H 0.74831 0.92943 0.94953 0.0
C518 C 0.72391 0.94453 0.91479 0.0
O519 O 0.65359 0.0393 0.92071 0.0
O520 O 0.67334 0.02167 0.94819 0.0
N521 N 0.57305 0.79055 0.94803 0.0
C522 C 0.52496 0.75 0.94139 0.0
C523 C 0.49086 0.70698 0.95279 0.0
C524 C 0.5068 0.70605 0.97079 0.0
C525 C 0.55765 0.74642 0.97702 0.0
C526 C 0.59064 0.78711 0.96484 0.0
H527 H 0.5132 0.75025 0.92742 0.0
O528 O 0.56801 0.94119 0.93943 0.0
O529 O 0.61758 0.90226 0.94332 0.0
O530 O 0.60632 0.92061 0.90571 0.0
O531 O 0.5855 0.83467 0.91272 0.0
C532 C 0.57794 0.74633 0.99454 0.0
C533 C 0.63145 0.7857 0.99934 0.0
H534 H 0.73693 0.86692 1.0034 0.0
H535 H 0.79008 0.93407 0.97956 0.0
H536 H 0.45235 0.67469 0.94778 0.0
H537 H 0.4808 0.67301 0.97949 0.0
H538 H 0.553 0.71596 1.00437 0.0
H539 H 0.64659 0.78539 0.01287 0.0
Mn540 Mn 0.63231 0.69938 0.42008 0.0
Mn541 Mn 0.5101 0.58772 0.41632 0.0
C542 C 0.57218 0.69652 0.39803 0.0
C543 C 0.71964 0.75502 0.40995 0.0
C544 C 0.54527 0.66451 0.44871 0.0
O545 O 0.64336 0.6411 0.43266 0.0
O546 O 0.56226 0.56603 0.42615 0.0
C547 C 0.51846 0.5159 0.38931 0.0
N548 N 0.49699 0.547 0.39448 0.0
C549 C 0.42907 0.50929 0.37079 0.0
C550 C 0.45161 0.47814 0.3649 0.0
C551 C 0.49656 0.48152 0.3742 0.0
C552 C 0.45305 0.54318 0.38582 0.0
H553 H 0.55118 0.5165 0.39689 0.0
C554 C 0.61042 0.58965 0.4331 0.0
O555 O 0.70613 0.76042 0.42625 0.0
O556 O 0.6854 0.71233 0.40094 0.0
N557 N 0.45886 0.60638 0.40678 0.0
C558 C 0.44944 0.64686 0.41185 0.0
C559 C 0.40642 0.65035 0.40377 0.0
C560 C 0.37546 0.61384 0.38997 0.0
C561 C 0.38983 0.5763 0.38371 0.0
C562 C 0.43297 0.57481 0.39234 0.0
H563 H 0.47535 0.67679 0.42173 0.0
O564 O 0.60935 0.7421 0.40485 0.0
O565 O 0.56906 0.65324 0.40547 0.0
O566 O 0.58968 0.70174 0.44219 0.0
O567 O 0.5144 0.62153 0.43985 0.0
C568 C 0.36425 0.54162 0.36889 0.0
C569 C 0.3838 0.50814 0.36236 0.0
H570 H 0.43456 0.45132 0.35333 0.0
H571 H 0.51366 0.45694 0.36995 0.0
H572 H 0.39713 0.68095 0.40814 0.0
H573 H 0.34205 0.61632 0.3839 0.0
H574 H 0.33095 0.54226 0.36205 0.0
H575 H 0.36435 0.48244 0.35068 0.0
Mn576 Mn 0.33936 0.96346 0.41994 0.0
Mn577 Mn 0.45825 0.96511 0.42083 0.0
C578 C 0.34916 0.9007 0.40318 0.0
C579 C 0.27722 0.9841 0.40697 0.0
C580 C 0.37807 0.91674 0.45068 0.0
O581 O 0.38993 0.03919 0.42984 0.0
O582 O 0.46457 0.03096 0.4327 0.0
C583 C 0.52111 0.05991 0.39701 0.0
N584 N 0.49829 0.00568 0.40023 0.0
C585 C 0.53165 0.99229 0.37213 0.0
C586 C 0.55425 0.04781 0.36828 0.0
C587 C 0.54934 0.08188 0.38088 0.0
C588 C 0.50444 0.97294 0.38854 0.0
H589 H 0.51852 0.08624 0.40681 0.0
C590 C 0.43849 0.05622 0.43533 0.0
O591 O 0.27353 0.96942 0.42385 0.0
O592 O 0.31922 0.99121 0.39813 0.0
N593 N 0.4575 0.90445 0.40963 0.0
C594 C 0.43667 0.85285 0.41602 0.0
C595 C 0.43834 0.81349 0.40513 0.0
C596 C 0.46195 0.82784 0.38794 0.0
C597 C 0.48573 0.88192 0.38206 0.0
C598 C 0.48278 0.91931 0.3935 0.0
H599 H 0.4177 0.84155 0.42912 0.0
O600 O 0.30217 0.89057 0.4087 0.0
O601 O 0.39036 0.94744 0.40816 0.0
O602 O 0.34605 0.93245 0.4445 0.0
O603 O 0.41925 0.9224 0.44215 0.0
C604 C 0.51116 0.90005 0.36518 0.0
C605 C 0.53479 0.95531 0.36032 0.0
H606 H 0.57589 0.06478 0.3558 0.0
H607 H 0.56741 0.12495 0.37819 0.0
H608 H 0.42065 0.77211 0.40986 0.0
H609 H 0.46186 0.797 0.37943 0.0
H610 H 0.51194 0.87182 0.35567 0.0
H611 H 0.55467 0.96879 0.34737 0.0
Mn612 Mn 0.04375 0.39498 0.42719 0.0
Mn613 Mn 0.15903 0.39095 0.4268 0.0
C614 C 0.11632 0.4563 0.4454 0.0
C615 C 0.96125 0.3777 0.43967 0.0
C616 C 0.12949 0.44242 0.39732 0.0
O617 O 0.01509 0.31813 0.41766 0.0
O618 O 0.09779 0.3285 0.41392 0.0
C619 C 0.12083 0.29264 0.44966 0.0
N620 N 0.15868 0.34496 0.44583 0.0
C621 C 0.22332 0.34151 0.4663 0.0
C622 C 0.18498 0.28767 0.47058 0.0
C623 C 0.13329 0.26332 0.46237 0.0
C624 C 0.20775 0.36934 0.45412 0.0
H625 H 0.0818 0.27325 0.4429 0.0
C626 C 0.04641 0.30225 0.41142 0.0
O627 O 0.97261 0.39206 0.42282 0.0
O628 O 0.9957 0.36961 0.4488 0.0
N629 N 0.2238 0.44658 0.43793 0.0
C630 C 0.25687 0.49792 0.43166 0.0
C631 C 0.31149 0.52611 0.43717 0.0
C632 C 0.33153 0.50099 0.44894 0.0
C633 C 0.29651 0.44919 0.45575 0.0
C634 C 0.2427 0.42276 0.4496 0.0
H635 H 0.24241 0.51613 0.42178 0.0
O636 O 0.08252 0.46821 0.4378 0.0
O637 O 0.11081 0.40942 0.44043 0.0
O638 O 0.08077 0.42404 0.40244 0.0
O639 O 0.16492 0.43905 0.40695 0.0
C640 C 0.31365 0.42172 0.46772 0.0
C641 C 0.27676 0.36822 0.47327 0.0
H642 H 0.19496 0.26448 0.48001 0.0
H643 H 0.1036 0.22166 0.46551 0.0
H644 H 0.33851 0.56614 0.4318 0.0
H645 H 0.37421 0.52072 0.45226 0.0
H646 H 0.35512 0.44133 0.47271 0.0
H647 H 0.29027 0.34757 0.48255 0.0
Zn648 Zn 0.01685 0.02603 0.12298 0.0
Zn649 Zn 0.03619 0.05537 0.18257 0.0
Zn650 Zn 0.02096 0.02786 0.15359 0.0
C651 C 0.02237 0.95277 0.18123 0.0
C652 C 0.1232 0.12807 0.16828 0.0
O653 O 0.98831 0.08054 0.14573 0.0
O654 O 0.02954 0.10079 0.11942 0.0
C655 C 0.93367 0.92833 0.13457 0.0
O656 O 0.99295 0.95115 0.16758 0.0
O657 O 0.05563 -0.00193 0.18819 0.0
O658 O 0.08592 0.13377 0.17492 0.0
O659 O 0.10848 0.0831 0.15981 0.0
O660 O 0.94077 0.9639 0.12289 0.0
O661 O 0.96784 0.94117 0.14782 0.0
O662 O 0.10422 0.0526 0.14425 0.0
O663 O 0.07649 0.01067 0.11802 0.0
C664 C 0.11345 0.03296 0.12989 0.0
O665 O 0.96276 0.05544 0.16186 0.0
O666 O 0.96409 0.03387 0.19051 0.0
C667 C 0.00474 0.11073 0.13147 0.0
C668 C 0.94058 0.04323 0.17764 0.0
Zn669 Zn 0.01492 0.00934 0.32806 0.0
Zn670 Zn 0.00882 0.00505 0.38876 0.0
Zn671 Zn 0.00877 0.0113 0.35697 0.0
C672 C 0.0233 0.10823 0.38075 0.0
C673 C 0.90537 0.9291 0.37777 0.0
O674 O 0.04227 0.95709 0.34875 0.0
O675 O 0.99122 0.93233 0.32421 0.0
C676 C 0.09946 0.10283 0.3364 0.0
O677 O 0.03355 0.0966 0.36492 0.0
O678 O 0.01136 0.0741 0.39339 0.0
O679 O 0.9378 0.93793 0.39083 0.0
O680 O 0.92216 0.95747 0.36316 0.0
O681 O 0.09363 0.06146 0.3283 0.0
O682 O 0.06204 0.09684 0.34746 0.0
O683 O 0.92575 0.97606 0.34475 0.0
O684 O 0.96254 0.03348 0.32237 0.0
C685 C 0.92064 0.00092 0.33084 0.0
O686 O 0.06646 0.98303 0.36514 0.0
O687 O 0.07459 0.00295 0.39434 0.0
C688 C 0.02036 0.92395 0.33527 0.0
C689 C 0.09072 0.98935 0.38061 0.0
Zn690 Zn 0.00926 0.02296 0.88966 0.0
Zn691 Zn 0.02901 0.04371 0.80933 0.0
Zn692 Zn 0.01943 0.02485 0.8582 0.0
C693 C 0.04838 0.11899 0.84018 0.0
C694 C 0.92288 0.96455 0.8259 0.0
O695 O 0.04613 0.96714 0.86575 0.0
O696 O 0.00331 0.95091 0.89161 0.0
C697 C 0.09614 0.11689 0.88842 0.0
O698 O 0.05156 0.11416 0.85717 0.0
O699 O 0.04245 0.07922 0.83146 0.0
O700 O 0.95349 0.98686 0.81246 0.0
O701 O 0.93931 0.97757 0.84262 0.0
O702 O 0.07524 0.08196 0.90077 0.0
O703 O 0.07487 0.10599 0.87231 0.0
O704 O 0.93175 0.98752 0.8617 0.0
O705 O 0.94272 0.02883 0.88788 0.0
C706 C 0.91234 0.00222 0.87475 0.0
O707 O 0.07321 -0.00222 0.84628 0.0
O708 O 0.08054 0.01811 0.81641 0.0
C709 C 0.02667 0.93748 0.88 0.0
C710 C 0.09407 0.00128 0.8305 0.0
Zn711 Zn -0.0024 0.98302 0.70704 0.0
Zn712 Zn -0.00327 0.01597 0.62218 0.0
Zn713 Zn 0.00814 0.00853 0.65276 0.0
C714 C 0.00193 0.92296 0.62738 0.0
C715 C 0.099 0.09512 0.63102 0.0
O716 O 0.9937 0.06132 0.67259 0.0
O717 O 0.99295 0.0512 0.70338 0.0
C718 C 0.93678 0.91701 0.67308 0.0
O719 O 0.9789 0.92634 0.6418 0.0
O720 O 0.01482 0.95952 0.61558 0.0
O721 O 0.05967 0.09238 0.62193 0.0
O722 O 0.08991 0.05866 0.64302 0.0
O723 O 0.9771 0.95225 0.68202 0.0
O724 O 0.94314 0.92135 0.65593 0.0
O725 O 0.09013 0.03079 0.66042 0.0
O726 O 0.0344 0.9933 0.68239 0.0
C727 C 0.08234 0.01315 0.67663 0.0
O728 O 0.96196 0.04945 0.6525 0.0
O729 O 0.9215 0.9969 0.62911 0.0
C730 C 0.99162 0.07641 0.68907 0.0
C731 C 0.92132 0.0271 0.64156 0.0
Zn732 Zn 0.65391 0.36005 0.51989 0.0
Zn733 Zn 0.6754 0.35389 0.46045 0.0
Zn734 Zn 0.67038 0.35134 0.48996 0.0
C735 C 0.76851 0.36455 0.46848 0.0
C736 C 0.59184 0.2575 0.46905 0.0
O737 O 0.60387 0.3739 0.49418 0.0
O738 O 0.61059 0.39338 0.52334 0.0
C739 C 0.76604 0.42418 0.51534 0.0
O740 O 0.75678 0.38768 0.48127 0.0
O741 O 0.73139 0.33267 0.45779 0.0
O742 O 0.59675 0.29783 0.4602 0.0
O743 O 0.62658 0.26586 0.48173 0.0
O744 O 0.73011 0.40764 0.5273 0.0
O745 O 0.75328 0.40737 0.49893 0.0
O746 O 0.65229 0.27332 0.50314 0.0
O747 O 0.61463 0.28239 0.52739 0.0
C748 C 0.63371 0.25717 0.51915 0.0
O749 O 0.63472 0.39909 0.47803 0.0
O750 O 0.69731 0.43155 0.45716 0.0
C751 C 0.58638 0.38675 0.50841 0.0
C752 C 0.66108 0.43483 0.46572 0.0
Zn753 Zn 0.685 0.34831 0.72091 0.0
Zn754 Zn 0.66958 0.35972 0.64129 0.0
Zn755 Zn 0.68707 0.35429 0.69016 0.0
C756 C 0.58803 0.30447 0.66364 0.0
C757 C 0.74713 0.45005 0.66386 0.0
O758 O 0.73552 0.31573 0.69693 0.0
O759 O 0.75734 0.35501 0.72377 0.0
C760 C 0.58531 0.27103 0.71211 0.0
O761 O 0.6042 0.32397 0.67962 0.0
O762 O 0.61775 0.29298 0.65435 0.0
O763 O 0.70137 0.42932 0.65594 0.0
O764 O 0.74772 0.4358 0.68035 0.0
O765 O 0.62001 0.27571 0.72382 0.0
O766 O 0.60019 0.30483 0.69874 0.0
O767 O 0.72661 0.44019 0.69953 0.0
O768 O 0.67847 0.41398 0.72438 0.0
C769 C 0.70838 0.45175 0.71368 0.0
O770 O 0.71499 0.30319 0.67849 0.0
O771 O 0.68172 0.29506 0.65009 0.0
C772 C 0.76597 0.33048 0.71123 0.0
C773 C 0.70305 0.28054 0.66274 0.0
Zn774 Zn 0.68717 0.36602 0.2223 0.0
Zn775 Zn 0.71438 0.37414 0.13908 0.0
Zn776 Zn 0.68247 0.35226 0.19183 0.0
C777 C 0.72781 0.46423 0.16262 0.0
C778 C 0.6012 0.29571 0.16267 0.0
O779 O 0.71108 0.29877 0.20346 0.0
O780 O 0.6781 0.29499 0.23053 0.0
C781 C 0.77092 0.45797 0.20992 0.0
O782 O 0.71278 0.43326 0.17697 0.0
O783 O 0.73256 0.44821 0.14697 0.0
O784 O 0.64392 0.32529 0.15371 0.0
O785 O 0.60231 0.30289 0.17983 0.0
O786 O 0.76065 0.42874 0.22384 0.0
O787 O 0.73892 0.43987 0.19603 0.0
O788 O 0.59705 0.31681 0.19965 0.0
O789 O 0.62349 0.37769 0.22126 0.0
C790 C 0.58532 0.34066 0.21205 0.0
O791 O 0.73224 0.31531 0.18649 0.0
O792 O 0.7069 0.33699 0.16204 0.0
C793 C 0.69663 0.27579 0.2191 0.0
C794 C 0.739 0.32464 0.1696 0.0
Zn795 Zn 0.66593 0.3144 0.03826 0.0
Zn796 Zn 0.66115 0.34154 0.95291 0.0
Zn797 Zn 0.67635 0.33982 0.98389 0.0
C798 C 0.66846 0.24957 0.95893 0.0
C799 C 0.76556 0.42394 0.96007 0.0
O800 O 0.65868 0.39061 1.00436 0.0
O801 O 0.65501 0.37884 0.03508 0.0
C802 C 0.60692 0.24811 1.00465 0.0
O803 O 0.64988 0.25655 0.97385 0.0
O804 O 0.67589 0.2821 0.94613 0.0
O805 O 0.72542 0.41643 0.95035 0.0
O806 O 0.75805 0.39154 0.97339 0.0
O807 O 0.647 0.28457 0.0133 0.0
O808 O 0.61256 0.25172 0.98747 0.0
O809 O 0.75906 0.36559 0.99148 0.0
O810 O 0.7031 0.32646 0.01336 0.0
C811 C 0.75135 0.34809 0.00772 0.0
O812 O 0.62995 0.37984 0.9835 0.0
O813 O 0.58797 0.33086 0.95946 0.0
C814 C 0.6537 0.4042 0.02082 0.0
C815 C 0.59015 0.36146 0.97221 0.0
Zn816 Zn 0.33231 0.69759 0.85065 0.0
Zn817 Zn 0.35099 0.68732 0.79181 0.0
Zn818 Zn 0.34741 0.68752 0.82136 0.0
C819 C 0.44207 0.69204 0.8001 0.0
C820 C 0.26572 0.59299 0.80149 0.0
O821 O 0.28607 0.71609 0.82603 0.0
O822 O 0.30501 0.74691 0.85403 0.0
C823 C 0.44434 0.75287 0.84683 0.0
O824 O 0.43267 0.71693 0.8129 0.0
O825 O 0.40439 0.66351 0.78905 0.0
O826 O 0.27193 0.63269 0.79194 0.0
O827 O 0.30048 0.60162 0.81417 0.0
O828 O 0.40837 0.73142 0.85877 0.0
O829 O 0.43126 0.74221 0.83002 0.0
O830 O 0.32472 0.6116 0.83651 0.0
O831 O 0.27809 0.62119 0.85775 0.0
C832 C 0.29991 0.59566 0.85165 0.0
O833 O 0.31375 0.73619 0.80876 0.0
O834 O 0.37567 0.76502 0.78769 0.0
C835 C 0.2754 0.73595 0.84012 0.0
C836 C 0.34038 0.7703 0.79608 0.0
Zn837 Zn 0.34136 0.67901 0.05652 0.0
Zn838 Zn 0.33456 0.66032 0.99618 0.0
Zn839 Zn 0.34474 0.67995 0.02545 0.0
C840 C 0.24176 0.62941 0.99715 0.0
C841 C 0.39681 0.76691 0.99587 0.0
O842 O 0.39012 0.64079 0.03611 0.0
O843 O 0.41368 0.6864 0.06172 0.0
C844 C 0.24091 0.60357 0.04584 0.0
O845 O 0.2646 0.66034 0.01107 0.0
O846 O 0.25792 0.59711 0.99296 0.0
O847 O 0.3513 0.73603 0.9886 0.0
O848 O 0.40402 0.75576 0.01219 0.0
O849 O 0.27432 0.60723 0.05793 0.0
O850 O 0.2576 0.63682 0.03237 0.0
O851 O 0.38855 0.76695 0.03381 0.0
O852 O 0.33583 0.74572 0.0575 0.0
C853 C 0.36969 0.78165 0.04705 0.0
O854 O 0.37189 0.6194 0.0186 0.0
O855 O 0.38767 0.63937 0.98971 0.0
C856 C 0.42158 0.6588 0.05014 0.0
C857 C 0.38826 0.61224 1.00315 0.0
Zn858 Zn 0.34228 0.67793 0.55458 0.0
Zn859 Zn 0.37642 0.69455 0.49635 0.0
Zn860 Zn 0.35338 0.68309 0.52506 0.0
C861 C 0.36524 0.77944 0.50328 0.0
C862 C 0.28011 0.60518 0.49565 0.0
O863 O 0.38252 0.62954 0.53714 0.0
O864 O 0.32417 0.60285 0.55943 0.0
C865 C 0.43059 0.77565 0.54963 0.0
O866 O 0.38155 0.76971 0.51851 0.0
O867 O 0.3513 0.74539 0.49063 0.0
O868 O 0.32555 0.61799 0.48892 0.0
O869 O 0.27829 0.6324 0.50932 0.0
O870 O 0.41596 0.73738 0.56089 0.0
O871 O 0.4039 0.7673 0.53463 0.0
O872 O 0.26519 0.65203 0.52728 0.0
O873 O 0.2836 0.69418 0.55347 0.0
C874 C 0.25109 0.67221 0.54034 0.0
O875 O 0.41069 0.65363 0.51997 0.0
O876 O 0.45493 0.7236 0.50229 0.0
C877 C 0.35814 0.59697 0.55043 0.0
C878 C 0.45383 0.68464 0.5109 0.0
Zn879 Zn 0.32777 0.66668 0.29252 0.0
Zn880 Zn 0.35975 0.66639 0.35141 0.0
Zn881 Zn 0.34502 0.67372 0.32293 0.0
C882 C 0.44611 0.67764 0.33827 0.0
C883 C 0.26392 0.58053 0.34584 0.0
O884 O 0.29078 0.70667 0.31887 0.0
O885 O 0.25314 0.65408 0.29512 0.0
C886 C 0.42883 0.75487 0.29679 0.0
O887 O 0.43359 0.70871 0.3291 0.0
O888 O 0.40814 0.63673 0.34575 0.0
O889 O 0.28473 0.61687 0.35776 0.0
O890 O 0.28879 0.58777 0.3307 0.0
O891 O 0.38804 0.74021 0.2865 0.0
O892 O 0.42405 0.72829 0.31149 0.0
O893 O 0.31668 0.58772 0.3155 0.0
O894 O 0.34016 0.6065 0.28687 0.0
C895 C 0.32812 0.57458 0.30013 0.0
O896 O 0.31762 0.72264 0.33776 0.0
O897 O 0.38653 0.74465 0.35631 0.0
C898 C 0.25236 0.68558 0.30693 0.0
C899 C 0.34992 0.75356 0.35036 0.0
C900 C 0.17622 0.14214 0.21101 0.0
C901 C 0.21208 0.19788 0.2143 0.0
C902 C 0.20243 0.21143 0.18166 0.0
C903 C 0.17418 0.15429 0.17907 0.0
N904 N 0.16233 0.07034 0.19068 0.0
N905 N 0.26837 0.28651 0.20003 0.0
C906 C 0.17319 0.12195 0.19353 0.0
C907 C 0.22847 0.23343 0.19883 0.0
N908 N 0.13896 0.11072 0.22351 0.0
N909 N 0.20294 0.2441 0.16798 0.0
H910 H 0.28991 0.30475 0.21184 0.0
H911 H 0.28347 0.31132 0.18864 0.0
H912 H 0.18586 0.22821 0.15528 0.0
H913 H 0.21797 0.28565 0.16962 0.0
H914 H 0.10875 0.07094 0.22055 0.0
H915 H 0.1343 0.12753 0.23538 0.0
H916 H 0.15604 0.04373 0.20127 0.0
H917 H 0.16331 0.05628 0.17773 0.0
C918 C 0.81763 0.98631 0.20436 0.0
C919 C 0.8241 0.03619 0.21108 0.0
C920 C 0.88729 0.0858 0.18625 0.0
C921 C 0.88783 0.03815 0.18191 0.0
N922 N 0.84374 0.94129 0.18194 0.0
N923 N 0.8649 0.13428 0.20799 0.0
C924 C 0.84849 0.98765 0.18914 0.0
C925 C 0.85768 0.08602 0.20156 0.0
N926 N 0.78744 0.93887 0.21369 0.0
N927 N 0.91673 0.13112 0.17595 0.0
H928 H 0.844 0.13741 0.2189 0.0
H929 H 0.89386 0.17217 0.20316 0.0
H930 H 0.93948 0.13096 0.16502 0.0
H931 H 0.91477 0.1666 0.17701 0.0
H932 H 0.78565 0.90237 0.21058 0.0
H933 H 0.7662 0.93575 0.22539 0.0
H934 H 0.81313 0.90219 0.18508 0.0
H935 H 0.86933 0.94277 0.17171 0.0
C936 C 0.05465 0.85151 0.20386 0.0
C937 C 0.01282 0.82869 0.21693 0.0
C938 C 0.9682 0.87365 0.20164 0.0
C939 C 0.01466 0.90352 0.19084 0.0
N940 N 0.10341 0.92245 0.18177 0.0
N941 N 0.91523 0.79273 0.21908 0.0
C942 C 0.05811 0.89261 0.1919 0.0
C943 C 0.96504 0.83213 0.21331 0.0
N944 N 0.08662 0.82903 0.20122 0.0
N945 N 0.9279 0.88654 0.2015 0.0
H946 H 0.9072 0.75523 0.22404 0.0
H947 H 0.87933 0.7921 0.21563 0.0
H948 H 0.92729 0.91518 0.19275 0.0
H949 H 0.8971 0.87176 0.21104 0.0
H950 H 0.11506 0.84112 0.19094 0.0
H951 H 0.07911 0.79296 0.20747 0.0
H952 H 0.1393 0.92172 0.18387 0.0
H953 H 0.10592 0.95013 0.17191 0.0
C954 C 0.22994 0.19643 0.3134 0.0
C955 C 0.20549 0.20548 0.29777 0.0
C956 C 0.12536 0.18053 0.31612 0.0
C957 C 0.14235 0.15542 0.32897 0.0
N958 N 0.21384 0.14161 0.34045 0.0
N959 N 0.12372 0.1978 0.28425 0.0
C960 C 0.19599 0.16457 0.32788 0.0
C961 C 0.15149 0.19564 0.29917 0.0
N962 N 0.28491 0.21979 0.31496 0.0
N963 N 0.08411 0.18956 0.32003 0.0
H964 H 0.13873 0.20273 0.27113 0.0
H965 H 0.08333 0.18821 0.28476 0.0
H966 H 0.0647 0.17824 0.33248 0.0
H967 H 0.07363 0.21267 0.31163 0.0
H968 H 0.3042 0.21716 0.32671 0.0
H969 H 0.31157 0.24656 0.3054 0.0
H970 H 0.25093 0.14287 0.33963 0.0
H971 H 0.18973 0.1193 0.35128 0.0
C972 C 0.81037 0.01788 0.3087 0.0
C973 C 0.8085 0.99247 0.29187 0.0
C974 C 0.8547 0.94897 0.30683 0.0
C975 C 0.86846 0.98499 0.32158 0.0
N976 N 0.85875 0.05318 0.33727 0.0
N977 N 0.83227 0.93472 0.2749 0.0
C978 C 0.84562 0.01898 0.32281 0.0
C979 C 0.83074 0.95736 0.29101 0.0
N980 N 0.77713 0.03885 0.31155 0.0
N981 N 0.86624 0.9078 0.30785 0.0
H982 H 0.81915 0.9429 0.26264 0.0
H983 H 0.85187 0.91239 0.27331 0.0
H984 H 0.88342 0.90123 0.3195 0.0
H985 H 0.85338 0.87716 0.29817 0.0
H986 H 0.77439 0.05438 0.32398 0.0
H987 H 0.74794 0.03551 0.30218 0.0
H988 H 0.84799 0.08314 0.33813 0.0
H989 H 0.88253 0.05263 0.34808 0.0
C990 C 0.98928 0.80794 0.30754 0.0
C991 C 0.04156 0.82525 0.30044 0.0
C992 C 0.08294 0.89087 0.32529 0.0
C993 C 0.03085 0.87918 0.33059 0.0
N994 N 0.939 0.80902 0.33368 0.0
N995 N 0.1383 0.86995 0.30645 0.0
C996 C 0.9856 0.8311 0.32407 0.0
C997 C 0.08828 0.86172 0.31078 0.0
N998 N 0.94335 0.77344 0.29804 0.0
N999 N 0.1283 0.93015 0.33359 0.0
H1000 H 0.1735 0.89766 0.31341 0.0
H1001 H 0.14377 0.84677 0.29669 0.0
H1002 H 0.1277 0.95305 0.34446 0.0
H1003 H 0.1277 0.95305 0.34446 0.0
H1004 H 0.90482 0.76475 0.30195 0.0
H1005 H 0.94348 0.75648 0.28561 0.0
H1006 H 0.90465 0.77213 0.33041 0.0
H1007 H 0.93872 0.82521 0.34629 0.0
C1008 C 0.82514 0.89911 0.79082 0.0
C1009 C 0.8147 0.84469 0.79199 0.0
C1010 C 0.85693 0.86498 0.82243 0.0
C1011 C 0.86841 0.9194 0.82064 0.0
N1012 N 0.84022 0.97854 0.80766 0.0
N1013 N 0.80062 0.77167 0.81245 0.0
C1014 C 0.8432 0.93232 0.80647 0.0
C1015 C 0.82414 0.82598 0.80893 0.0
N1016 N 0.82112 0.92043 0.7746 0.0
N1017 N 0.8791 0.85114 0.83652 0.0
H1018 H 0.77415 0.74191 0.80341 0.0
H1019 H 0.80306 0.75626 0.82505 0.0
H1020 H 0.90255 0.87882 0.84659 0.0
H1021 H 0.87591 0.81312 0.8378 0.0
H1022 H 0.83261 0.96126 0.77299 0.0
H1023 H 0.8125 0.89918 0.76242 0.0
H1024 H 0.8198 0.98924 0.79813 0.0
H1025 H 0.85298 0.00204 0.81944 0.0
C1026 C 0.17213 0.94519 0.80957 0.0
C1027 C 0.20309 0.99242 0.79877 0.0
C1028 C 0.18811 0.04483 0.82179 0.0
C1029 C 0.14294 0.99657 0.82798 0.0
N1030 N 0.09601 0.89951 0.82992 0.0
N1031 N 0.23914 0.08991 0.79517 0.0
C1032 C 0.13708 0.9462 0.8229 0.0
C1033 C 0.21252 0.04362 0.80529 0.0
N1034 N 0.17611 0.89978 0.80696 0.0
N1035 N 0.20299 0.0923 0.83064 0.0
H1036 H 0.2546 0.09164 0.78237 0.0
H1037 H 0.24141 0.12636 0.79884 0.0
H1038 H 0.18299 0.09297 0.84233 0.0
H1039 H 0.23764 0.12884 0.82743 0.0
H1040 H 0.15716 0.86558 0.81524 0.0
H1041 H 0.20329 0.89896 0.7978 0.0
H1042 H 0.08605 0.86092 0.8254 0.0
H1043 H 0.07033 0.90032 0.8397 0.0
C1044 C 0.9949 0.17792 0.80608 0.0
C1045 C 0.0415 0.22926 0.80295 0.0
C1046 C 0.08864 0.21483 0.82871 0.0
C1047 C 0.04307 0.16262 0.83108 0.0
N1048 N 0.94734 0.10317 0.82689 0.0
N1049 N 0.12551 0.30342 0.81446 0.0
C1050 C 0.99427 0.14743 0.82144 0.0
C1051 C 0.08586 0.25011 0.81548 0.0
N1052 N 0.95336 0.15567 0.79365 0.0
N1053 N 0.13539 0.22925 0.83821 0.0
H1054 H 0.12438 0.3299 0.80483 0.0
H1055 H 0.15655 0.32241 0.82405 0.0
H1056 H 0.13798 0.20436 0.84817 0.0
H1057 H 0.17205 0.2644 0.83567 0.0
H1058 H 0.92205 0.11542 0.79426 0.0
H1059 H 0.9518 0.17568 0.78199 0.0
H1060 H 0.90947 0.09464 0.82193 0.0
H1061 H 0.9462 0.07906 0.83779 0.0
C1062 C 0.83429 0.79169 0.69715 0.0
C1063 C 0.81769 0.81542 0.71076 0.0
C1064 C 0.86406 0.90263 0.69486 0.0
C1065 C 0.88479 0.87995 0.68238 0.0
N1066 N 0.86992 0.79964 0.6669 0.0
N1067 N 0.80622 0.88967 0.72061 0.0
C1068 C 0.86327 0.82324 0.68192 0.0
C1069 C 0.82848 0.86958 0.7088 0.0
N1070 N 0.82516 0.74001 0.69933 0.0
N1071 N 0.8795 0.95627 0.69338 0.0
H1072 H 0.7804 0.86644 0.73097 0.0
H1073 H 0.81019 0.92801 0.71964 0.0
H1074 H 0.90023 0.97884 0.68207 0.0
H1075 H 0.87212 0.9782 0.70302 0.0
H1076 H 0.84179 0.72279 0.691 0.0
H1077 H 0.80385 0.71561 0.71025 0.0
H1078 H 0.85211 0.75776 0.66523 0.0
H1079 H 0.8874 0.82192 0.65518 0.0
C1080 C 0.19301 0.99659 0.70001 0.0
C1081 C 0.19155 0.01661 0.71751 0.0
C1082 C 0.13083 0.04725 0.70584 0.0
C1083 C 0.12639 0.02107 0.68921 0.0
N1084 N 0.14665 0.96315 0.67113 0.0
N1085 N 0.15109 0.05184 0.7378 0.0
C1086 C 0.15586 0.99377 0.68638 0.0
C1087 C 0.15838 0.03959 0.72061 0.0
N1088 N 0.23073 0.98187 0.69617 0.0
N1089 N 0.10993 0.08098 0.70726 0.0
H1090 H 0.17211 0.04895 0.74905 0.0
H1091 H 0.11945 0.05855 0.74102 0.0
H1092 H 0.09482 0.0915 0.69599 0.0
H1093 H 0.11199 0.10209 0.71894 0.0
H1094 H 0.2367 0.97193 0.68317 0.0
H1095 H 0.2593 0.98397 0.70558 0.0
H1096 H 0.16195 0.93697 0.66945 0.0
H1097 H 0.12032 0.96069 0.66074 0.0
C1098 C 0.95692 0.17214 0.7109 0.0
C1099 C 0.01005 0.20901 0.7177 0.0
C1100 C 0.04724 0.1764 0.69461 0.0
C1101 C 0.99537 0.12928 0.69254 0.0
N1102 N 0.89899 0.08792 0.69485 0.0
N1103 N 0.09495 0.27039 0.70418 0.0
C1104 C 0.94943 0.12928 0.69932 0.0
C1105 C 0.05322 0.21884 0.70625 0.0
N1106 N 0.91559 0.18255 0.71342 0.0
N1107 N 0.09072 0.17997 0.68587 0.0
H1108 H 0.0939 0.30311 0.71005 0.0
H1109 H 0.12516 0.28106 0.69458 0.0
H1110 H 0.08643 0.15124 0.67628 0.0
H1111 H 0.13045 0.2105 0.68858 0.0
H1112 H 0.87679 0.15879 0.70797 0.0
H1113 H 0.92281 0.21999 0.71823 0.0
H1114 H 0.86382 0.08148 0.7012 0.0
H1115 H 0.89322 0.05968 0.68484 0.0
C1116 C 0.89838 0.48159 0.53875 0.0
C1117 C 0.89875 0.52668 0.54744 0.0
C1118 C 0.82546 0.51663 0.52741 0.0
C1119 C 0.82029 0.46779 0.52073 0.0
N1120 N 0.86596 0.41945 0.51316 0.0
N1121 N 0.88705 0.60407 0.54028 0.0
C1122 C 0.86165 0.4555 0.52408 0.0
C1123 C 0.87005 0.54998 0.53879 0.0
N1124 N 0.93214 0.46307 0.54437 0.0
N1125 N 0.78714 0.53054 0.52318 0.0
H1126 H 0.9253 0.63219 0.54528 0.0
H1127 H 0.86785 0.62233 0.53356 0.0
H1128 H 0.75588 0.50855 0.51385 0.0
H1129 H 0.78536 0.56226 0.52955 0.0
H1130 H 0.92687 0.42553 0.54048 0.0
H1131 H 0.96575 0.48503 0.55277 0.0
H1132 H 0.89919 0.41346 0.51349 0.0
H1133 H 0.83856 0.39967 0.50258 0.0
C1134 C 0.46971 0.32091 0.53331 0.0
C1135 C 0.47655 0.36867 0.5419 0.0
C1136 C 0.52766 0.42304 0.51573 0.0
C1137 C 0.53099 0.37813 0.50963 0.0
N1138 N 0.48466 0.28193 0.50612 0.0
N1139 N 0.49597 0.46143 0.53858 0.0
C1140 C 0.49327 0.32596 0.516 0.0
C1141 C 0.4998 0.41859 0.53206 0.0
N1142 N 0.44538 0.27224 0.54221 0.0
N1143 N 0.55486 0.47044 0.50635 0.0
H1144 H 0.47532 0.45889 0.55042 0.0
H1145 H 0.51047 0.49843 0.53194 0.0
H1146 H 0.57207 0.47095 0.49393 0.0
H1147 H 0.55941 0.5075 0.51039 0.0
H1148 H 0.44434 0.23746 0.53731 0.0
H1149 H 0.42852 0.26706 0.55501 0.0
H1150 H 0.45564 0.24213 0.5093 0.0
H1151 H 0.50408 0.28673 0.49376 0.0
C1152 C 0.668 0.14827 0.53612 0.0
C1153 C 0.67287 0.15929 0.55507 0.0
C1154 C 0.66415 0.23884 0.54923 0.0
C1155 C 0.64992 0.22347 0.53067 0.0
N1156 N 0.63177 0.15775 0.50712 0.0
N1157 N 0.66139 0.20746 0.57984 0.0
C1158 C 0.65059 0.17679 0.52417 0.0
C1159 C 0.66575 0.20171 0.56166 0.0
N1160 N 0.67892 0.1099 0.52962 0.0
N1161 N 0.68003 0.29043 0.55489 0.0
H1162 H 0.66531 0.1829 0.58962 0.0
H1163 H 0.65034 0.23451 0.58506 0.0
H1164 H 0.69058 0.32242 0.54589 0.0
H1165 H 0.69099 0.30345 0.56823 0.0
H1166 H 0.68076 0.10333 0.51584 0.0
H1167 H 0.69059 0.08779 0.53804 0.0
H1168 H 0.6262 0.1209 0.50231 0.0
H1169 H 0.61688 0.17624 0.49835 0.0
C1170 C 0.83136 0.49196 0.62149 0.0
C1171 C 0.88113 0.53715 0.62682 0.0
C1172 C 0.84608 0.52635 0.65801 0.0
C1173 C 0.79827 0.47795 0.65263 0.0
N1174 N 0.76597 0.40378 0.63181 0.0
N1175 N 0.94008 0.59247 0.65105 0.0
C1176 C 0.79657 0.45769 0.63502 0.0
C1177 C 0.89011 0.55242 0.64547 0.0
N1178 N 0.81712 0.48088 0.60363 0.0
N1179 N 0.84861 0.54904 0.67448 0.0
H1180 H 0.97238 0.61214 0.64213 0.0
H1181 H 0.95056 0.60252 0.66463 0.0
H1182 H 0.8171 0.5316 0.68374 0.0
H1183 H 0.88019 0.58707 0.67838 0.0
H1184 H 0.77897 0.44985 0.59948 0.0
H1185 H 0.84217 0.50436 0.59313 0.0
H1186 H 0.76104 0.3861 0.61908 0.0
H1187 H 0.75502 0.37774 0.64282 0.0
C1188 C 0.50042 0.35655 0.64103 0.0
C1189 C 0.47534 0.3164 0.62738 0.0
C1190 C 0.50594 0.26037 0.64359 0.0
C1191 C 0.54252 0.3063 0.65403 0.0
N1192 N 0.57344 0.39962 0.66293 0.0
N1193 N 0.42331 0.2179 0.62596 0.0
C1194 C 0.5389 0.35458 0.65311 0.0
C1195 C 0.46903 0.26428 0.63137 0.0
N1196 N 0.48228 0.39202 0.64406 0.0
N1197 N 0.50605 0.21251 0.64547 0.0
H1198 H 0.38829 0.21769 0.62166 0.0
H1199 H 0.41542 0.17892 0.62919 0.0
H1200 H 0.52681 0.20553 0.65595 0.0
H1201 H 0.48708 0.18053 0.63628 0.0
H1202 H 0.49524 0.41875 0.65501 0.0
H1203 H 0.44858 0.38908 0.63726 0.0
H1204 H 0.57472 0.43669 0.66144 0.0
H1205 H 0.60318 0.40172 0.67173 0.0
C1206 C 0.7693 0.21059 0.64192 0.0
C1207 C 0.72253 0.16801 0.63323 0.0
C1208 C 0.66411 0.18506 0.65257 0.0
C1209 C 0.7101 0.23371 0.65853 0.0
N1210 N 0.80511 0.27877 0.66583 0.0
N1211 N 0.63137 0.09583 0.63986 0.0
C1212 C 0.76253 0.24184 0.65557 0.0
C1213 C 0.67145 0.14879 0.64153 0.0
N1214 N 0.81968 0.22096 0.63707 0.0
N1215 N 0.61342 0.17449 0.65702 0.0
H1216 H 0.63821 0.06591 0.63459 0.0
H1217 H 0.5944 0.07985 0.64646 0.0
H1218 H 0.60728 0.19873 0.66614 0.0
H1219 H 0.57813 0.14332 0.65114 0.0
H1220 H 0.82537 0.19393 0.62916 0.0
H1221 H 0.85541 0.25564 0.64099 0.0
H1222 H 0.8437 0.28333 0.66557 0.0
H1223 H 0.80068 0.30255 0.67555 0.0
C1224 C 0.51275 0.2366 0.12199 0.0
C1225 C 0.49282 0.18001 0.12447 0.0
C1226 C 0.53215 0.19824 0.15529 0.0
C1227 C 0.55276 0.25464 0.15249 0.0
N1228 N 0.5466 0.32472 0.13618 0.0
N1229 N 0.46727 0.10641 0.14587 0.0
C1230 C 0.53734 0.27268 0.13682 0.0
C1231 C 0.49738 0.16051 0.14188 0.0
N1232 N 0.51133 0.25655 0.10521 0.0
N1233 N 0.54763 0.18074 0.17031 0.0
H1234 H 0.43985 0.07762 0.13678 0.0
H1235 H 0.4654 0.09071 0.15881 0.0
H1236 H 0.57183 0.20675 0.18062 0.0
H1237 H 0.53894 0.14079 0.17206 0.0
H1238 H 0.53028 0.2979 0.10226 0.0
H1239 H 0.49639 0.23207 0.09375 0.0
H1240 H 0.53196 0.33921 0.12583 0.0
H1241 H 0.56394 0.35146 0.1471 0.0
C1242 C 0.83542 0.29315 0.14429 0.0
C1243 C 0.84945 0.33239 0.13036 0.0
C1244 C 0.81592 0.37905 0.14919 0.0
C1245 C 0.78669 0.3312 0.15959 0.0
N1246 N 0.77154 0.24224 0.16782 0.0
N1247 N 0.85445 0.41596 0.12004 0.0
C1248 C 0.79786 0.28824 0.15763 0.0
C1249 C 0.84105 0.37699 0.13304 0.0
N1250 N 0.8605 0.26308 0.14528 0.0
N1251 N 0.82053 0.42658 0.15506 0.0
H1252 H 0.87382 0.4169 0.10808 0.0
H1253 H 0.84318 0.44561 0.12076 0.0
H1254 H 0.80479 0.42908 0.16747 0.0
H1255 H 0.84485 0.46383 0.14873 0.0
H1256 H 0.85431 0.23591 0.15578 0.0
H1257 H 0.89327 0.2719 0.13698 0.0
H1258 H 0.77468 0.20776 0.1655 0.0
H1259 H 0.74346 0.23722 0.17763 0.0
C1260 C 0.76827 0.59818 0.1447 0.0
C1261 C 0.71923 0.57932 0.13463 0.0
C1262 C 0.67367 0.5068 0.15686 0.0
C1263 C 0.72477 0.51447 0.16226 0.0
N1264 N 0.82073 0.57238 0.16447 0.0
N1265 N 0.62241 0.51753 0.13234 0.0
C1266 C 0.77207 0.56301 0.15766 0.0
C1267 C 0.67046 0.53531 0.14142 0.0
N1268 N 0.81116 0.64862 0.14129 0.0
N1269 N 0.62847 0.46889 0.16558 0.0
H1270 H 0.61805 0.53727 0.12106 0.0
H1271 H 0.58723 0.48152 0.13553 0.0
H1272 H 0.63119 0.44729 0.17668 0.0
H1273 H 0.58983 0.46297 0.16298 0.0
H1274 H 0.84711 0.66598 0.14883 0.0
H1275 H 0.8083 0.67489 0.13194 0.0
H1276 H 0.85795 0.60422 0.16029 0.0
H1277 H 0.82299 0.54621 0.174 0.0
C1278 C 0.51169 0.12395 0.03078 0.0
C1279 C 0.49523 0.14843 0.04418 0.0
C1280 C 0.53375 0.23204 0.0262 0.0
C1281 C 0.55641 0.20995 0.01438 0.0
N1282 N 0.54441 0.12922 1.0002 0.0
N1283 N 0.4866 0.22436 0.05417 0.0
C1284 C 0.53833 0.15393 0.015 0.0
C1285 C 0.50366 0.20159 0.04146 0.0
N1286 N 0.5045 0.0732 0.0336 0.0
N1287 N 0.53939 0.28148 0.02221 0.0
H1288 H 0.46142 0.20219 0.0648 0.0
H1289 H 0.49846 0.26543 0.05459 0.0
H1290 H 0.55983 0.30313 0.0107 0.0
H1291 H 0.51922 0.29792 0.02901 0.0
H1292 H 0.52126 0.05586 0.02539 0.0
H1293 H 0.48455 0.0497 0.04487 0.0
H1294 H 0.52878 0.08744 0.99922 0.0
H1295 H 0.55877 0.15015 0.98803 0.0
C1296 C 0.86152 0.33457 0.0326 0.0
C1297 C 0.85585 0.35194 0.05005 0.0
C1298 C 0.79531 0.38132 0.03739 0.0
C1299 C 0.79522 0.3579 0.0206 0.0
N1300 N 0.82152 0.30426 1.00271 0.0
N1301 N 0.80862 0.38118 0.06967 0.0
C1302 C 0.82676 0.33254 0.01823 0.0
C1303 C 0.82034 0.37243 0.05261 0.0
N1304 N 0.90077 0.32133 0.0296 0.0
N1305 N 0.772 0.41301 0.03858 0.0
H1306 H 0.82755 0.37681 0.08123 0.0
H1307 H 0.77544 0.38597 0.07233 0.0
H1308 H 0.75929 0.42508 0.02705 0.0
H1309 H 0.76892 0.43046 0.05048 0.0
H1310 H 0.91003 0.31361 0.01675 0.0
H1311 H 0.92688 0.32193 0.03975 0.0
H1312 H 0.83829 0.27926 1.00123 0.0
H1313 H 0.7972 0.30269 0.99177 0.0
C1314 C 0.71145 0.54786 0.03715 0.0
C1315 C 0.67041 0.53716 0.04981 0.0
C1316 C 0.6096 0.45396 0.03271 0.0
C1317 C 0.65529 0.45626 0.02463 0.0
N1318 N 0.74904 0.51047 0.01623 0.0
N1319 N 0.5735 0.50265 0.04864 0.0
C1320 C 0.70597 0.50512 0.02575 0.0
C1321 C 0.61672 0.49643 0.04458 0.0
N1322 N 0.75014 0.60009 0.03379 0.0
N1323 N 0.55953 0.41114 0.0288 0.0
H1324 H 0.57844 0.53973 0.0529 0.0
H1325 H 0.53372 0.47542 0.04475 0.0
H1326 H 0.55378 0.3848 0.01813 0.0
H1327 H 0.52475 0.40201 0.03597 0.0
H1328 H 0.77833 0.61091 0.02346 0.0
H1329 H 0.74779 0.63249 0.03931 0.0
H1330 H 0.78842 0.54257 0.01832 0.0
H1331 H 0.74504 0.48185 0.00664 0.0
C1332 C 0.51865 0.8642 0.87764 0.0
C1333 C 0.55857 0.85146 0.88389 0.0
C1334 C 0.53982 0.79192 0.85769 0.0
C1335 C 0.49606 0.79947 0.85294 0.0
N1336 N 0.45875 0.85838 0.85288 0.0
N1337 N 0.61662 0.81419 0.87707 0.0
C1338 C 0.49155 0.84191 0.86095 0.0
C1339 C 0.5725 0.8193 0.87293 0.0
N1340 N 0.50291 0.89311 0.88821 0.0
N1341 N 0.55075 0.75831 0.84791 0.0
H1342 H 0.62694 0.78988 0.86947 0.0
H1343 H 0.64399 0.83614 0.88746 0.0
H1344 H 0.52888 0.73852 0.83623 0.0
H1345 H 0.52888 0.73852 0.83623 0.0
H1346 H 0.4696 0.89764 0.88512 0.0
H1347 H 0.51991 0.9091 0.90083 0.0
H1348 H 0.45629 0.89195 0.85713 0.0
H1349 H 0.43832 0.84116 0.8407 0.0
C1350 C 0.15896 0.67147 0.86722 0.0
C1351 C 0.16617 0.71947 0.8759 0.0
C1352 C 0.21987 0.77345 0.84983 0.0
C1353 C 0.22089 0.72789 0.84337 0.0
N1354 N 0.17331 0.63153 0.84018 0.0
N1355 N 0.20603 0.81831 0.87496 0.0
C1356 C 0.18323 0.67607 0.85004 0.0
C1357 C 0.19642 0.77104 0.8669 0.0
N1358 N 0.13465 0.62277 0.87615 0.0
N1359 N 0.2422 0.81911 0.83939 0.0
H1360 H 0.18766 0.82036 0.88676 0.0
H1361 H 0.23418 0.85666 0.87018 0.0
H1362 H 0.25779 0.81897 0.8267 0.0
H1363 H 0.23955 0.85359 0.84219 0.0
H1364 H 0.13343 0.5879 0.87125 0.0
H1365 H 0.11999 0.61776 0.88927 0.0
H1366 H 0.14358 0.59204 0.84337 0.0
H1367 H 0.19167 0.63545 0.82767 0.0
C1368 C 0.32276 0.53945 0.89619 0.0
C1369 C 0.33843 0.50246 0.88999 0.0
C1370 C 0.31972 0.51903 0.8586 0.0
C1371 C 0.31193 0.56199 0.86469 0.0
N1372 N 0.32719 0.62425 0.88969 0.0
N1373 N 0.35812 0.46114 0.86491 0.0
C1374 C 0.31875 0.57517 0.88362 0.0
C1375 C 0.33939 0.49391 0.87105 0.0
N1376 N 0.31401 0.54251 0.9142 0.0
N1377 N 0.30536 0.49986 0.8413 0.0
H1378 H 0.37064 0.44019 0.87354 0.0
H1379 H 0.36546 0.45841 0.85128 0.0
H1380 H 0.28712 0.51433 0.83225 0.0
H1381 H 0.30564 0.46549 0.83663 0.0
H1382 H 0.29642 0.56448 0.91902 0.0
H1383 H 0.32101 0.52047 0.92417 0.0
H1384 H 0.3346 0.63587 0.90327 0.0
H1385 H 0.33673 0.65723 0.88126 0.0
C1386 C 0.53855 0.87334 0.9785 0.0
C1387 C 0.5306 0.86486 0.95948 0.0
C1388 C 0.44038 0.78867 0.96477 0.0
C1389 C 0.44388 0.80197 0.98363 0.0
N1390 N 0.49548 0.86662 0.00727 0.0
N1391 N 0.46811 0.82251 0.93447 0.0
C1392 C 0.49298 0.84687 0.99026 0.0
C1393 C 0.47922 0.82602 0.95264 0.0
N1394 N 0.58923 0.90734 0.98534 0.0
N1395 N 0.40379 0.73813 0.95851 0.0
H1396 H 0.49679 0.84653 0.92492 0.0
H1397 H 0.4293 0.79799 0.92909 0.0
H1398 H 0.38529 0.70489 0.96709 0.0
H1399 H 0.40049 0.72672 0.94495 0.0
H1400 H 0.59829 0.91081 0.99916 0.0
H1401 H 0.62303 0.92832 0.97711 0.0
H1402 H 0.52892 0.90195 0.01217 0.0
H1403 H 0.46193 0.85177 0.01565 0.0
C1404 C 0.14921 0.67599 0.97397 0.0
C1405 C 0.15643 0.66865 0.95534 0.0
C1406 C 0.2246 0.64399 0.96407 0.0
C1407 C 0.21208 0.64345 0.9829 0.0
N1408 N 0.15561 0.65181 1.00521 0.0
N1409 N 0.19475 0.63672 0.9329 0.0
C1410 C 0.17294 0.65819 0.98771 0.0
C1411 C 0.19178 0.64946 0.95055 0.0
N1412 N 0.11865 0.69871 0.97861 0.0
N1413 N 0.26999 0.64313 0.95877 0.0
H1414 H 0.17606 0.64528 0.92213 0.0
H1415 H 0.2136 0.61497 0.92909 0.0
H1416 H 0.29817 0.6422 0.96752 0.0
H1417 H 0.2837 0.65023 0.94546 0.0
H1418 H 0.11727 0.71111 0.99175 0.0
H1419 H 0.09812 0.70938 0.96915 0.0
H1420 H 0.12327 0.65645 0.00925 0.0
H1421 H 0.16978 0.63641 0.01542 0.0
C1422 C 0.34238 0.50016 0.97415 0.0
C1423 C 0.39307 0.51298 0.96655 0.0
C1424 C 0.44019 0.56955 0.99297 0.0
C1425 C 0.39063 0.56291 0.99891 0.0
N1426 N 0.29557 0.5025 1.00112 0.0
N1427 N 0.48948 0.54838 0.97146 0.0
C1428 C 0.34205 0.52056 0.9916 0.0
C1429 C 0.44164 0.54343 0.97693 0.0
N1430 N 0.29535 0.47297 0.96428 0.0
N1431 N 0.48676 0.60192 1.0023 0.0
H1432 H 0.49222 0.52744 0.96035 0.0
H1433 H 0.52574 0.57157 0.97864 0.0
H1434 H 0.48733 0.62135 0.01434 0.0
H1435 H 0.48733 0.62135 0.01434 0.0
H1436 H 0.25849 0.46793 0.96865 0.0
H1437 H 0.29355 0.45946 0.95107 0.0
H1438 H 0.2585 0.46947 0.99716 0.0
H1439 H 0.2968 0.51752 0.01408 0.0
C1440 C 0.15192 0.5397 0.46625 0.0
C1441 C 0.14917 0.48951 0.46167 0.0
C1442 C 0.22068 0.50929 0.48415 0.0
C1443 C 0.23069 0.56345 0.48592 0.0
N1444 N 0.20749 0.63159 0.47728 0.0
N1445 N 0.15384 0.41666 0.47665 0.0
C1446 C 0.19643 0.5789 0.47675 0.0
C1447 C 0.17572 0.47097 0.47359 0.0
N1448 N 0.10879 0.54724 0.46296 0.0
N1449 N 0.2551 0.49464 0.492 0.0
H1450 H 0.11657 0.38799 0.4711 0.0
H1451 H 0.16841 0.4009 0.48662 0.0
H1452 H 0.2895 0.52189 0.49923 0.0
H1453 H 0.25183 0.45684 0.49005 0.0
H1454 H 0.10778 0.58172 0.46708 0.0
H1455 H 0.07031 0.51545 0.45969 0.0
H1456 H 0.18793 0.64627 0.46889 0.0
H1457 H 0.23907 0.66181 0.48493 0.0
C1458 C 0.56459 0.69809 0.48214 0.0
C1459 C 0.52786 0.66787 0.46765 0.0
C1460 C 0.45821 0.62249 0.49041 0.0
C1461 C 0.48731 0.66391 0.50292 0.0
N1462 N 0.57218 0.74183 0.5112 0.0
N1463 N 0.43193 0.62053 0.45979 0.0
C1464 C 0.54237 0.70153 0.49907 0.0
C1465 C 0.47233 0.63428 0.4722 0.0
N1466 N 0.61936 0.72192 0.48026 0.0
N1467 N 0.41234 0.57645 0.49528 0.0
H1468 H 0.39164 0.60364 0.46376 0.0
H1469 H 0.4391 0.63393 0.44654 0.0
H1470 H 0.40215 0.56769 0.50887 0.0
H1471 H 0.38908 0.5458 0.48595 0.0
H1472 H 0.64634 0.74116 0.491 0.0
H1473 H 0.63768 0.71719 0.46887 0.0
H1474 H 0.61064 0.77424 0.50836 0.0
H1475 H 0.55643 0.7432 0.52377 0.0
C1476 C 0.31835 0.8472 0.47384 0.0
C1477 C 0.36916 0.89243 0.46904 0.0
C1478 C 0.41193 0.87771 0.49595 0.0
C1479 C 0.36299 0.82914 0.49916 0.0
N1480 N 0.26621 0.781 0.49701 0.0
N1481 N 0.45849 0.96182 0.47892 0.0
C1482 C 0.3148 0.81989 0.49035 0.0
C1483 C 0.41403 0.91163 0.48135 0.0
N1484 N 0.27531 0.82662 0.46199 0.0
N1485 N 0.45693 0.889 0.50599 0.0
H1486 H 0.4611 0.98751 0.46834 0.0
H1487 H 0.49058 0.97986 0.48817 0.0
H1488 H 0.45478 0.86615 0.51738 0.0
H1489 H 0.49587 0.91993 0.50292 0.0
H1490 H 0.23957 0.7901 0.46415 0.0
H1491 H 0.27636 0.84313 0.44927 0.0
H1492 H 0.22898 0.77444 0.49205 0.0
H1493 H 0.26413 0.75881 0.50862 0.0
C1494 C 0.14287 0.51218 0.37349 0.0
C1495 C 0.14704 0.46642 0.379 0.0
C1496 C 0.21071 0.48259 0.35432 0.0
C1497 C 0.21197 0.532 0.35061 0.0
N1498 N 0.16816 0.58528 0.35176 0.0
N1499 N 0.17349 0.39984 0.372 0.0
C1500 C 0.17289 0.5427 0.35828 0.0
C1501 C 0.17645 0.44844 0.36826 0.0
N1502 N 0.11541 0.53009 0.38383 0.0
N1503 N 0.24605 0.47113 0.34578 0.0
H1504 H 0.15269 0.37578 0.38303 0.0
H1505 H 0.18861 0.38128 0.36365 0.0
H1506 H 0.27222 0.4963 0.33585 0.0
H1507 H 0.25208 0.43886 0.34906 0.0
H1508 H 0.11683 0.56706 0.38178 0.0
H1509 H 0.09341 0.50985 0.39525 0.0
H1510 H 0.13725 0.59279 0.35531 0.0
H1511 H 0.19366 0.61102 0.34173 0.0
C1512 C 0.54447 0.65904 0.36599 0.0
C1513 C 0.54979 0.69704 0.37954 0.0
C1514 C 0.52631 0.74338 0.35587 0.0
C1515 C 0.50098 0.69504 0.34579 0.0
N1516 N 0.49541 0.61007 0.33894 0.0
N1517 N 0.55031 0.78112 0.38602 0.0
C1518 C 0.51389 0.65416 0.35001 0.0
C1519 C 0.54302 0.74163 0.374 0.0
N1520 N 0.57153 0.63085 0.36761 0.0
N1521 N 0.53399 0.79027 0.34814 0.0
H1522 H 0.55224 0.77698 0.4 0.0
H1523 H 0.54981 0.81617 0.38223 0.0
H1524 H 0.52217 0.79135 0.33476 0.0
H1525 H 0.55921 0.82809 0.354 0.0
H1526 H 0.57157 0.60566 0.35742 0.0
H1527 H 0.5994 0.63779 0.37798 0.0
H1528 H 0.49921 0.57629 0.34202 0.0
H1529 H 0.47476 0.60741 0.32685 0.0
C1530 C 0.37114 0.88446 0.37136 0.0
C1531 C 0.35051 0.86434 0.38897 0.0
C1532 C 0.31112 0.77113 0.37748 0.0
C1533 C 0.33961 0.79122 0.36111 0.0
N1534 N 0.39931 0.86672 0.34244 0.0
N1535 N 0.30589 0.78781 0.40929 0.0
C1536 C 0.3702 0.84791 0.35799 0.0
C1537 C 0.32147 0.80736 0.39211 0.0
N1538 N 0.38978 0.93777 0.36715 0.0
N1539 N 0.27387 0.71715 0.37898 0.0
H1540 H 0.31445 0.81301 0.42053 0.0
H1541 H 0.28977 0.74702 0.41271 0.0
H1542 H 0.26421 0.69032 0.36817 0.0
H1543 H 0.24833 0.70043 0.39003 0.0
H1544 H 0.40059 0.95336 0.35409 0.0
H1545 H 0.39046 0.96581 0.37631 0.0
H1546 H 0.42729 0.90752 0.34017 0.0
H1547 H 0.39734 0.84074 0.33214 0.0
C1548 C 0.20919 0.98705 0.11303 0.0
C1549 C 0.25949 0.03609 0.11353 0.0
C1550 C 0.21574 0.08321 0.127 0.0
C1551 C 0.16554 0.03385 0.12688 0.0
N1552 N 0.11896 0.93601 0.12549 0.0
N1553 N 0.31333 0.12525 0.12685 0.0
C1554 C 0.16366 0.98482 0.12162 0.0
C1555 C 0.26367 0.08239 0.12242 0.0
N1556 N 0.20469 0.94281 0.10423 0.0
N1557 N 0.21766 0.13136 0.13043 0.0
H1558 H 0.34911 0.12495 0.12465 0.0
H1559 H 0.31854 0.15786 0.13473 0.0
H1560 H 0.18353 0.13422 0.13338 0.0
H1561 H 0.25248 0.16902 0.12872 0.0
H1562 H 0.16767 0.90774 0.10175 0.0
H1563 H 0.23777 0.94259 0.09841 0.0
H1564 H 0.11679 0.89875 0.12338 0.0
H1565 H 0.08653 0.9332 0.13277 0.0
C1566 C 0.92411 0.18012 0.11971 0.0
C1567 C 0.96478 0.22721 0.11043 0.0
C1568 C 0.03273 0.20536 0.12209 0.0
C1569 C 0.99092 0.15351 0.12764 0.0
N1570 N 0.89513 0.08809 0.1289 0.0
N1571 N 0.05822 0.27825 0.10058 0.0
C1572 C 0.93616 0.14003 0.12588 0.0
C1573 C 0.01951 0.23877 0.11123 0.0
N1574 N 0.87389 0.17324 0.12294 0.0
N1575 N 0.08519 0.22225 0.127 0.0
H1576 H 0.05018 0.30067 0.0911 0.0
H1577 H 0.09733 0.28432 0.0996 0.0
H1578 H 0.09575 0.19862 0.13512 0.0
H1579 H 0.11688 0.26159 0.12467 0.0
H1580 H 0.84613 0.14288 0.13145 0.0
H1581 H 0.8614 0.2004 0.11895 0.0
H1582 H 0.85478 0.07504 0.12555 0.0
H1583 H 0.90131 0.05659 0.13318 0.0
C1584 C 0.80162 0.80398 0.11967 0.0
C1585 C 0.82301 0.78356 0.10644 0.0
C1586 C 0.91383 0.8435 0.11941 0.0
C1587 C 0.89396 0.87153 0.12951 0.0
N1588 N 0.8183 0.8841 0.13631 0.0
N1589 N 0.90436 0.79978 0.09092 0.0
C1590 C 0.83757 0.85347 0.1288 0.0
C1591 C 0.88059 0.80751 0.10561 0.0
N1592 N 0.74829 0.77575 0.12436 0.0
N1593 N 0.96547 0.85345 0.12218 0.0
H1594 H 0.88238 0.78081 0.07932 0.0
H1595 H 0.94623 0.8196 0.08919 0.0
H1596 H 0.99066 0.8794 0.13235 0.0
H1597 H 0.98052 0.83115 0.11579 0.0
H1598 H 0.73291 0.78799 0.13494 0.0
H1599 H 0.72103 0.73714 0.1195 0.0
H1600 H 0.77817 0.87495 0.13469 0.0
H1601 H 0.84359 0.92097 0.14275 0.0
C1602 C 0.99098 0.19996 0.40837 0.0
C1603 C 0.0247 0.25143 0.40061 0.0
C1604 C 0.0533 0.20992 0.3775 0.0
C1605 C 0.01931 0.1578 0.38507 0.0
N1606 N 0.93664 0.10421 0.40201 0.0
N1607 N 0.06276 0.29856 0.37277 0.0
C1608 C 0.98187 0.15304 0.39871 0.0
C1609 C 0.04756 0.25417 0.38346 0.0
N1610 N 0.96923 0.19535 0.42509 0.0
N1611 N 0.09387 0.21904 0.36595 0.0
H1612 H 0.05646 0.33022 0.37672 0.0
H1613 H 0.07596 0.30064 0.35951 0.0
H1614 H 0.10383 0.18951 0.36282 0.0
H1615 H 0.12134 0.25781 0.36121 0.0
H1616 H 0.94911 0.15842 0.43198 0.0
H1617 H 0.97432 0.22874 0.43249 0.0
H1618 H 0.90684 0.09973 0.41104 0.0
H1619 H 0.92561 0.0703 0.3939 0.0
C1620 C 0.77111 0.85398 0.40077 0.0
C1621 C 0.76502 0.8009 0.40024 0.0
C1622 C 0.83392 0.83267 0.37667 0.0
C1623 C 0.84839 0.88671 0.38049 0.0
N1624 N 0.82989 0.95039 0.39526 0.0
N1625 N 0.79437 0.74098 0.38816 0.0
C1626 C 0.81639 0.89776 0.39221 0.0
C1627 C 0.79705 0.79036 0.38813 0.0
N1628 N 0.7324 0.86236 0.40838 0.0
N1629 N 0.85512 0.82216 0.36186 0.0
H1630 H 0.77003 0.70974 0.39705 0.0
H1631 H 0.82035 0.73304 0.38065 0.0
H1632 H 0.87975 0.85329 0.35296 0.0
H1633 H 0.84284 0.78295 0.35736 0.0
H1634 H 0.73267 0.89909 0.40746 0.0
H1635 H 0.6968 0.83158 0.41392 0.0
H1636 H 0.81305 0.96215 0.40549 0.0
H1637 H 0.85959 0.98232 0.38771 0.0
C1638 C 0.23693 0.03601 0.39256 0.0
C1639 C 0.23191 0.98549 0.39746 0.0
C1640 C 0.13948 0.93744 0.38462 0.0
C1641 C 0.1416 0.98795 0.38262 0.0
N1642 N 0.19066 0.08573 0.38516 0.0
N1643 N 0.17962 0.88737 0.39796 0.0
C1644 C 0.19021 0.03745 0.38642 0.0
C1645 C 0.18369 0.93588 0.39323 0.0
N1646 N 0.28614 0.08257 0.39396 0.0
N1647 N 0.09496 0.89116 0.37845 0.0
H1648 H 0.21159 0.88436 0.4037 0.0
H1649 H 0.14386 0.85014 0.39713 0.0
H1650 H 0.06165 0.89136 0.37248 0.0
H1651 H 0.09268 0.8535 0.37778 0.0
H1652 H 0.29376 0.11982 0.38871 0.0
H1653 H 0.32074 0.08327 0.39915 0.0
H1654 H 0.22243 0.12254 0.38987 0.0
H1655 H 0.15772 0.08869 0.38022 0.0
C1656 C 0.79342 0.92322 0.90167 0.0
C1657 C 0.76841 0.95617 0.90176 0.0
C1658 C 0.83069 0.01247 0.87788 0.0
C1659 C 0.85372 0.97843 0.87771 0.0
N1660 N 0.84167 0.89017 0.88386 0.0
N1661 N 0.75006 0.01734 0.88374 0.0
C1662 C 0.82883 0.92938 0.88745 0.0
C1663 C 0.78286 0.99645 0.88797 0.0
N1664 N 0.78756 0.88919 0.91572 0.0
N1665 N 0.8552 0.06066 0.86878 0.0
H1666 H 0.71175 0.00268 0.88925 0.0
H1667 H 0.75773 0.04399 0.87294 0.0
H1668 H 0.88915 0.07215 0.8608 0.0
H1669 H 0.8434 0.08981 0.87002 0.0
H1670 H 0.80916 0.86852 0.91665 0.0
H1671 H 0.76731 0.88669 0.92756 0.0
H1672 H 0.82164 0.85166 0.88975 0.0
H1673 H 0.86785 0.89447 0.87344 0.0
C1674 C -0.00128 0.80891 0.90462 0.0
C1675 C 0.04259 0.80245 0.89925 0.0
C1676 C 0.07433 0.88118 0.87925 0.0
C1677 C 0.0294 0.88705 0.88392 0.0
N1678 N 0.93706 0.83946 0.89489 0.0
N1679 N 0.1003 0.81374 0.87422 0.0
C1680 C 0.98764 0.84537 0.89465 0.0
C1681 C 0.07366 0.83272 0.88426 0.0
N1682 N 0.96885 0.78232 0.91944 0.0
N1683 N 0.11933 0.92218 0.87136 0.0
H1684 H 0.09593 0.77556 0.87675 0.0
H1685 H 0.12022 0.83275 0.86229 0.0
H1686 H 0.12447 0.96049 0.86877 0.0
H1687 H 0.15374 0.91907 0.86899 0.0
H1688 H 0.93977 0.79026 0.92475 0.0
H1689 H 0.97601 0.75566 0.92718 0.0
H1690 H 0.90472 0.80766 0.90163 0.0
H1691 H 0.92601 0.86186 0.88638 0.0
C1692 C 0.23662 0.21215 0.90754 0.0
C1693 C 0.24239 0.26347 0.90342 0.0
C1694 C 0.15184 0.21914 0.88921 0.0
C1695 C 0.14742 0.16789 0.89238 0.0
N1696 N 0.19168 0.1165 0.89997 0.0
N1697 N 0.21125 0.316 0.88629 0.0
C1698 C 0.19161 0.16461 0.90024 0.0
C1699 C 0.202 0.26705 0.89287 0.0
N1700 N 0.27401 0.20873 0.91844 0.0
N1701 N 0.10743 0.22234 0.88378 0.0
H1702 H 0.24676 0.35243 0.88882 0.0
H1703 H 0.18571 0.31975 0.87687 0.0
H1704 H 0.06939 0.18824 0.88162 0.0
H1705 H 0.10697 0.25874 0.88308 0.0
H1706 H 0.26855 0.17213 0.92361 0.0
H1707 H 0.30896 0.24285 0.92328 0.0
H1708 H 0.22497 0.11288 0.90395 0.0
H1709 H 0.16073 0.08133 0.89394 0.0
C1710 C 0.978 0.77951 0.62619 0.0
C1711 C 0.00246 0.78053 0.60938 0.0
C1712 C 0.04305 0.87932 0.6083 0.0
C1713 C 0.0114 0.8766 0.62347 0.0
N1714 N 0.98289 0.83216 0.65234 0.0
N1715 N 0.05994 0.83148 0.5845 0.0
C1716 C 0.98847 0.82905 0.63415 0.0
C1717 C 0.0356 0.83051 0.60045 0.0
N1718 N 0.94253 0.73129 0.6342 0.0
N1719 N 0.08474 0.92847 0.60287 0.0
H1720 H 0.05939 0.7974 0.57909 0.0
H1721 H 0.07836 0.8655 0.57613 0.0
H1722 H 0.09714 0.96394 0.61028 0.0
H1723 H 0.11215 0.93319 0.59287 0.0
H1724 H 0.9196 0.7289 0.64542 0.0
H1725 H 0.93181 0.69355 0.62868 0.0
H1726 H 0.96999 0.79891 0.661 0.0
H1727 H -0.00066 0.86925 0.65907 0.0
C1728 C 0.24178 0.17254 0.61231 0.0
C1729 C 0.24949 0.22607 0.61201 0.0
C1730 C 0.16404 0.19455 0.62801 0.0
C1731 C 0.1543 0.14043 0.62714 0.0
N1732 N 0.18698 0.07821 0.62159 0.0
N1733 N 0.21735 0.28826 0.61801 0.0
C1734 C 0.19425 0.12952 0.62029 0.0
C1735 C 0.21079 0.23731 0.61967 0.0
N1736 N 0.27926 0.16267 0.60441 0.0
N1737 N 0.12923 0.20503 0.63744 0.0
H1738 H 0.25106 0.32051 0.61195 0.0
H1739 H 0.1879 0.29803 0.6214 0.0
H1740 H 0.09507 0.17468 0.64393 0.0
H1741 H 0.13632 0.24389 0.64026 0.0
H1742 H 0.27406 0.12425 0.60223 0.0
H1743 H 0.31565 0.19315 0.59916 0.0
H1744 H 0.21634 0.06802 0.61861 0.0
H1745 H 0.15231 0.04531 0.6268 0.0
C1746 C 0.87166 0.08867 0.61156 0.0
C1747 C 0.8144 0.05259 0.61129 0.0
C1748 C 0.82701 0.00736 0.63819 0.0
C1749 C 0.88279 0.0468 0.63864 0.0
N1750 N 0.95226 0.13603 0.63028 0.0
N1751 N 0.73721 0.97598 0.62596 0.0
C1752 C 0.90225 0.09203 0.62718 0.0
C1753 C 0.79162 0.0117 0.62518 0.0
N1754 N 0.89801 0.11613 0.59632 0.0
N1755 N 0.80898 0.96346 0.64943 0.0
H1756 H 0.71047 0.9664 0.6151 0.0
H1757 H 0.71854 0.95367 0.63757 0.0
H1758 H 0.83413 0.96115 0.65939 0.0
H1759 H 0.7707 0.92901 0.64845 0.0
H1760 H 0.94011 0.13994 0.59571 0.0
H1761 H 0.87874 0.10832 0.58372 0.0
H1762 H 0.96736 0.17148 0.62257 0.0
H1763 H 0.97535 0.13866 0.64175 0.0
C1764 C 0.87421 0.32748 0.45708 0.0
C1765 C 0.91414 0.3762 0.44879 0.0
C1766 C 0.86393 0.42222 0.45752 0.0
C1767 C 0.8238 0.37331 0.46552 0.0
N1768 N 0.79613 0.28392 0.47689 0.0
N1769 N 0.95415 0.47326 0.44501 0.0
C1770 C 0.83104 0.32746 0.46664 0.0
C1771 C 0.91115 0.42463 0.45019 0.0
N1772 N 0.87619 0.28067 0.45506 0.0
N1773 N 0.8556 0.4655 0.4561 0.0
H1774 H 0.98919 0.47685 0.43943 0.0
H1775 H 0.95712 0.51064 0.44759 0.0
H1776 H 0.8228 0.46597 0.46202 0.0
H1777 H 0.87954 0.49984 0.44833 0.0
H1778 H 0.84575 0.24261 0.45923 0.0
H1779 H 0.90666 0.27897 0.44793 0.0
H1780 H 0.80007 0.24992 0.47922 0.0
H1781 H 0.76534 0.28393 0.48441 0.0
C1782 C 0.6296 0.51346 0.43132 0.0
C1783 C 0.62832 0.55401 0.44189 0.0
C1784 C 0.65205 0.5186 0.46885 0.0
C1785 C 0.64417 0.47307 0.45862 0.0
N1786 N 0.6141 0.42192 0.4307 0.0
N1787 N 0.63181 0.59172 0.47146 0.0
C1788 C 0.62928 0.46886 0.44003 0.0
C1789 C 0.6379 0.55587 0.46091 0.0
N1790 N 0.63438 0.51919 0.41295 0.0
N1791 N 0.67442 0.52718 0.48585 0.0
H1792 H 0.62155 0.61953 0.46613 0.0
H1793 H 0.63292 0.59096 0.48558 0.0
H1794 H 0.6838 0.49988 0.49216 0.0
H1795 H 0.68629 0.56269 0.49317 0.0
H1796 H 0.63991 0.49277 0.40469 0.0
H1797 H 0.63954 0.55409 0.40637 0.0
H1798 H 0.59858 0.41554 0.4175 0.0
H1799 H 0.61158 0.38745 0.43677 0.0
C1800 C 0.50423 0.15437 0.4341 0.0
C1801 C 0.4688 0.1093 0.44459 0.0
C1802 C 0.51142 0.16185 0.47235 0.0
C1803 C 0.55264 0.20308 0.4616 0.0
N1804 N 0.59469 0.23051 0.43217 0.0
N1805 N 0.43735 0.06834 0.47385 0.0
C1806 C 0.55082 0.19698 0.44243 0.0
C1807 C 0.47198 0.11245 0.46382 0.0
N1808 N 0.493 0.15679 0.41618 0.0
N1809 N 0.50845 0.17068 0.49035 0.0
H1810 H 0.40578 0.03334 0.46792 0.0
H1811 H 0.4414 0.06568 0.48781 0.0
H1812 H 0.53624 0.20656 0.49685 0.0
H1813 H 0.47631 0.14428 0.49849 0.0
H1814 H 0.51546 0.19128 0.40825 0.0
H1815 H 0.45808 0.12622 0.40986 0.0
H1816 H 0.5964 0.22473 0.41831 0.0
H1817 H 0.63157 0.25975 0.43784 0.0
C1818 C 0.74257 0.56119 0.7476 0.0
C1819 C 0.73222 0.59864 0.73826 0.0
C1820 C 0.70901 0.54121 0.71085 0.0
C1821 C 0.72634 0.50812 0.71989 0.0
N1822 N 0.77268 0.49571 0.74545 0.0
N1823 N 0.70737 0.62599 0.71031 0.0
C1824 C 0.74777 0.52153 0.73776 0.0
C1825 C 0.71591 0.58919 0.71964 0.0
N1826 N 0.74257 0.56038 0.76607 0.0
N1827 N 0.68392 0.52559 0.6943 0.0
H1828 H 0.70921 0.65983 0.71644 0.0
H1829 H 0.70153 0.6247 0.69632 0.0
H1830 H 0.6803 0.49213 0.68731 0.0
H1831 H 0.66413 0.54385 0.68801 0.0
H1832 H 0.746 0.53116 0.77368 0.0
H1833 H 0.73116 0.58411 0.7735 0.0
H1834 H 0.79256 0.50697 0.75799 0.0
H1835 H 0.77835 0.46722 0.7384 0.0
C1836 C 0.47503 0.12696 0.72116 0.0
C1837 C 0.43427 0.13564 0.72855 0.0
C1838 C 0.48819 0.23322 0.72122 0.0
C1839 C 0.52919 0.22457 0.7141 0.0
N1840 N 0.55722 0.16276 0.70344 0.0
N1841 N 0.39552 0.19383 0.73149 0.0
C1842 C 0.52088 0.17107 0.71277 0.0
C1843 C 0.43889 0.18788 0.72732 0.0
N1844 N 0.4714 0.07732 0.72304 0.0
N1845 N 0.49747 0.28507 0.72293 0.0
H1846 H 0.35876 0.16177 0.73594 0.0
H1847 H 0.39416 0.22929 0.72907 0.0
H1848 H 0.532 0.31878 0.71786 0.0
H1849 H 0.4725 0.29504 0.73015 0.0
H1850 H 0.50244 0.06976 0.71976 0.0
H1851 H 0.43862 0.04421 0.72914 0.0
H1852 H 0.55124 0.12449 0.70027 0.0
H1853 H 0.59155 0.19455 0.69748 0.0
C1854 C 0.84743 0.27098 0.73111 0.0
C1855 C 0.89944 0.31895 0.73159 0.0
C1856 C 0.86484 0.36498 0.7118 0.0
C1857 C 0.81174 0.32043 0.7138 0.0
N1858 N 0.75095 0.23044 0.72459 0.0
N1859 N 0.95767 0.41263 0.72306 0.0
C1860 C 0.80275 0.27289 0.723 0.0
C1861 C 0.90842 0.36602 0.72184 0.0
N1862 N 0.84101 0.22325 0.73793 0.0
N1863 N 0.87301 0.40639 0.70035 0.0
H1864 H 0.99008 0.41544 0.73068 0.0
H1865 H 0.96545 0.44982 0.71773 0.0
H1866 H 0.84145 0.40569 0.69275 0.0
H1867 H 0.91106 0.43861 0.69711 0.0
H1868 H 0.80595 0.18581 0.73613 0.0
H1869 H 0.87215 0.21989 0.74423 0.0
H1870 H 0.74007 0.19725 0.73309 0.0
H1871 H 0.71812 0.22958 0.7178 0.0
C1872 C 0.43387 0.29407 0.21648 0.0
C1873 C 0.43193 0.29819 0.23564 0.0
C1874 C 0.52363 0.31352 0.23825 0.0
C1875 C 0.52958 0.31895 0.21915 0.0
N1876 N 0.49118 0.32025 0.18991 0.0
N1877 N 0.48085 0.32648 0.26414 0.0
C1878 C 0.48479 0.31051 0.2081 0.0
C1879 C 0.4787 0.31273 0.24632 0.0
N1880 N 0.38733 0.27439 0.20637 0.0
N1881 N 0.55977 0.30666 0.24871 0.0
H1882 H 0.44883 0.32717 0.27058 0.0
H1883 H 0.51627 0.34181 0.27195 0.0
H1884 H 0.59095 0.30241 0.24317 0.0
H1885 H 0.55441 0.29823 0.26255 0.0
H1886 H 0.38531 0.26565 0.19259 0.0
H1887 H 0.34993 0.26321 0.21211 0.0
H1888 H 0.46123 0.3197 0.18149 0.0
H1889 H 0.52797 0.33303 0.18348 0.0
C1890 C 0.66635 0.14425 0.24275 0.0
C1891 C 0.70716 0.13532 0.23561 0.0
C1892 C 0.7416 0.21824 0.21776 0.0
C1893 C 0.69873 0.22574 0.22373 0.0
N1894 N 0.60844 0.18209 0.23644 0.0
N1895 N 0.76349 0.14941 0.20988 0.0
C1896 C 0.65721 0.18446 0.23455 0.0
C1897 C 0.73836 0.16771 0.221 0.0
N1898 N 0.63784 0.11659 0.25766 0.0
N1899 N 0.78718 0.25967 0.21027 0.0
H1900 H 0.75679 0.10986 0.21107 0.0
H1901 H 0.78443 0.17072 0.19838 0.0
H1902 H 0.79435 0.29933 0.20936 0.0
H1903 H 0.82034 0.25544 0.20687 0.0
H1904 H 0.61157 0.12619 0.26427 0.0
H1905 H 0.64355 0.08729 0.26427 0.0
H1906 H 0.576 0.15032 0.24315 0.0
H1907 H 0.59808 0.20754 0.22933 0.0
C1908 C 0.91782 0.55874 0.21919 0.0
C1909 C 0.91126 0.59968 0.22774 0.0
C1910 C 0.81728 0.55684 0.21614 0.0
C1911 C 0.82114 0.5116 0.21054 0.0
N1912 N 0.8743 0.46887 0.20542 0.0
N1913 N 0.85441 0.63815 0.23452 0.0
C1914 C 0.87162 0.51293 0.21137 0.0
C1915 C 0.86101 0.59918 0.22609 0.0
N1916 N 0.96789 0.56325 0.21886 0.0
N1917 N 0.77142 0.55885 0.21195 0.0
H1918 H 0.88535 0.6706 0.2416 0.0
H1919 H 0.81728 0.63664 0.23554 0.0
H1920 H 0.73926 0.52804 0.20461 0.0
H1921 H 0.76733 0.59279 0.21407 0.0
H1922 H 0.97676 0.53782 0.21137 0.0
H1923 H 0.0018 0.59454 0.22536 0.0
H1924 H 0.90757 0.46355 0.20747 0.0
H1925 H 0.84176 0.43627 0.19881 0.0
C1926 C 0.70943 0.15709 0.93478 0.0
C1927 C 0.67619 0.10757 0.94407 0.0
C1928 C 0.65865 0.15782 0.96723 0.0
C1929 C 0.68001 0.20391 0.9559 0.0
N1930 N 0.75208 0.2555 0.93493 0.0
N1931 N 0.6121 0.06043 0.96822 0.0
C1932 C 0.71294 0.20607 0.94119 0.0
C1933 C 0.64923 0.10779 0.96013 0.0
N1934 N 0.73753 0.1573 0.91988 0.0
N1935 N 0.65373 0.16276 0.98531 0.0
H1936 H 0.60043 0.02204 0.9631 0.0
H1937 H 0.58835 0.05963 0.97898 0.0
H1938 H 0.66954 0.20054 0.99151 0.0
H1939 H 0.64228 0.13038 0.99427 0.0
H1940 H 0.75646 0.19003 0.91102 0.0
H1941 H 0.74053 0.12372 0.91594 0.0
H1942 H 0.78021 0.26077 0.92513 0.0
H1943 H 0.76141 0.29182 0.94132 0.0
C1944 C 0.91288 0.50673 0.94471 0.0
C1945 C 0.91418 0.55547 0.93925 0.0
C1946 C 0.8245 0.52224 0.9524 0.0
C1947 C 0.81983 0.47057 0.95547 0.0
N1948 N 0.8581 0.41179 0.95289 0.0
N1949 N 0.86939 0.60796 0.93617 0.0
C1950 C 0.86384 0.46239 0.95138 0.0
C1951 C 0.86947 0.56281 0.94266 0.0
N1952 N 0.9589 0.50313 0.94391 0.0
N1953 N 0.78671 0.53308 0.95941 0.0
H1954 H 0.90188 0.63864 0.92909 0.0
H1955 H 0.83551 0.61284 0.93644 0.0
H1956 H 0.7547 0.50516 0.96735 0.0
H1957 H 0.79021 0.57135 0.95904 0.0
H1958 H 0.96248 0.47168 0.94985 0.0
H1959 H 0.99499 0.53372 0.9385 0.0
H1960 H 0.88635 0.40206 0.94802 0.0
H1961 H 0.82338 0.37818 0.95781 0.0
C1962 C 0.54917 0.44274 0.94636 0.0
C1963 C 0.49133 0.40945 0.94591 0.0
C1964 C 0.49856 0.35197 0.96952 0.0
C1965 C 0.5555 0.38603 0.96989 0.0
N1966 N 0.63064 0.47551 0.96477 0.0
N1967 N 0.41269 0.34702 0.96348 0.0
C1968 C 0.57895 0.43594 0.96065 0.0
C1969 C 0.46619 0.36833 0.95944 0.0
N1970 N 0.57671 0.47786 0.93262 0.0
N1971 N 0.47555 0.30346 0.97844 0.0
H1972 H 0.38867 0.36185 0.95805 0.0
H1973 H 0.39426 0.31975 0.9741 0.0
H1974 H 0.49846 0.29189 0.98652 0.0
H1975 H 0.43469 0.27422 0.97703 0.0
H1976 H 0.6189 0.49895 0.93195 0.0
H1977 H 0.55851 0.48089 0.92074 0.0
H1978 H 0.64844 0.51431 0.95911 0.0
H1979 H 0.65275 0.47145 0.97545 0.0
C1980 C 0.53841 0.64739 0.78373 0.0
C1981 C 0.58754 0.69734 0.78273 0.0
C1982 C 0.54416 0.74452 0.7963 0.0
C1983 C 0.49495 0.6944 0.79753 0.0
N1984 N 0.45156 0.59657 0.79849 0.0
N1985 N 0.6416 0.78777 0.79509 0.0
C1986 C 0.49415 0.64523 0.79318 0.0
C1987 C 0.59192 0.74419 0.79124 0.0
N1988 N 0.53365 0.6023 0.77549 0.0
N1989 N 0.5454 0.79263 0.79904 0.0
H1990 H 0.67718 0.78685 0.79322 0.0
H1991 H 0.64695 0.82119 0.80254 0.0
H1992 H 0.51165 0.79532 0.80267 0.0
H1993 H 0.57932 0.83021 0.79627 0.0
H1994 H 0.49688 0.56612 0.77415 0.0
H1995 H 0.56596 0.60229 0.76899 0.0
H1996 H 0.45076 0.55973 0.79703 0.0
H1997 H 0.41991 0.59396 0.80623 0.0
C1998 C 0.31216 0.84726 0.7603 0.0
C1999 C 0.31274 0.88987 0.77014 0.0
C2000 C 0.33454 0.85601 0.79789 0.0
C2001 C 0.32464 0.80866 0.78836 0.0
N2002 N 0.29235 0.75428 0.76114 0.0
N2003 N 0.31917 0.93258 0.79899 0.0
C2004 C 0.30968 0.80274 0.76976 0.0
C2005 C 0.32264 0.89388 0.78917 0.0
N2006 N 0.31686 0.85078 0.74191 0.0
N2007 N 0.35698 0.8658 0.81488 0.0
H2008 H 0.31199 0.96182 0.79303 0.0
H2009 H 0.31999 0.93334 0.81312 0.0
H2010 H 0.36488 0.83821 0.82174 0.0
H2011 H 0.37038 0.90244 0.82169 0.0
H2012 H 0.32051 0.82237 0.7341 0.0
H2013 H 0.32408 0.88583 0.73493 0.0
H2014 H 0.27677 0.74691 0.74794 0.0
H2015 H 0.28814 0.71989 0.76782 0.0
C2016 C 0.13965 0.45304 0.79521 0.0
C2017 C 0.14144 0.44864 0.77606 0.0
C2018 C 0.22984 0.53023 0.77549 0.0
C2019 C 0.2267 0.5384 0.79429 0.0
N2020 N 0.17463 0.51175 0.8217 0.0
N2021 N 0.17799 0.49384 0.7479 0.0
C2022 C 0.18043 0.50088 0.80415 0.0
C2023 C 0.18347 0.49065 0.76618 0.0
N2024 N 0.09964 0.41135 0.80479 0.0
N2025 N 0.27758 0.5598 0.76654 0.0
H2026 H 0.14192 0.46737 0.7411 0.0
H2027 H 0.20616 0.5262 0.74011 0.0
H2028 H 0.31343 0.58747 0.77315 0.0
H2029 H 0.28263 0.55218 0.75311 0.0
H2030 H 0.0994 0.40939 0.81889 0.0
H2031 H 0.06792 0.37727 0.7985 0.0
H2032 H 0.13927 0.48888 0.82902 0.0
H2033 H 0.20429 0.54587 0.82857 0.0
C2034 C 0.38769 0.9236 0.05269 0.0
C2035 C 0.40196 0.9315 0.07145 0.0
C2036 C 0.41217 0.85102 0.07113 0.0
C2037 C 0.39191 0.839 0.0531 0.0
N2038 N 0.35294 0.86017 0.02746 0.0
N2039 N 0.40622 0.88985 0.09934 0.0
C2040 C 0.37803 0.87456 0.04398 0.0
C2041 C 0.40863 0.89182 0.08091 0.0
N2042 N 0.38353 0.96275 0.04315 0.0
N2043 N 0.4337 0.82239 0.07909 0.0
H2044 H 0.39552 0.91443 0.1066 0.0
H2045 H 0.40696 0.85918 0.10697 0.0
H2046 H 0.43775 0.79282 0.07209 0.0
H2047 H 0.45247 0.83221 0.09183 0.0
H2048 H 0.37949 0.96221 0.02909 0.0
H2049 H 0.38744 -0.0024 0.04921 0.0
H2050 H 0.33488 0.88045 0.0214 0.0
H2051 H 0.34719 0.82576 0.02052 0.0
C2052 C 0.10013 0.52608 0.06551 0.0
C2053 C 0.09398 0.473 0.06571 0.0
C2054 C 0.17144 0.50579 0.04529 0.0
C2055 C 0.18373 0.55994 0.04814 0.0
N2056 N 0.16089 0.62291 0.06125 0.0
N2057 N 0.12757 0.41366 0.0568 0.0
C2058 C 0.14807 0.57043 0.05821 0.0
C2059 C 0.13032 0.46302 0.05567 0.0
N2060 N 0.05927 0.5339 0.07143 0.0
N2061 N 0.19938 0.49566 0.03252 0.0
H2062 H 0.09971 0.38203 0.06489 0.0
H2063 H 0.15625 0.40583 0.05112 0.0
H2064 H 0.22783 0.52681 0.02441 0.0
H2065 H 0.18997 0.45671 0.02862 0.0
H2066 H 0.05957 0.57053 0.06993 0.0
H2067 H 0.02245 0.50253 0.0761 0.0
H2068 H 0.14033 0.6337 0.07039 0.0
H2069 H 0.194 0.65585 0.05517 0.0
C2070 C 0.51522 0.60814 0.0664 0.0
C2071 C 0.56646 0.65684 0.06486 0.0
C2072 C 0.52233 0.70101 0.04892 0.0
C2073 C 0.47111 0.65422 0.05203 0.0
N2074 N 0.41856 0.55938 0.05901 0.0
N2075 N 0.61963 0.74963 0.05483 0.0
C2076 C 0.46754 0.60647 0.0593 0.0
C2077 C 0.57039 0.703 0.05583 0.0
N2078 N 0.51195 0.564 0.07516 0.0
N2079 N 0.52458 0.74293 0.03898 0.0
H2080 H 0.65541 0.75255 0.05983 0.0
H2081 H 0.62526 0.78651 0.04997 0.0
H2082 H 0.49003 0.74164 0.03343 0.0
H2083 H 0.56025 0.777 0.03492 0.0
H2084 H 0.47576 0.52954 0.0786 0.0
H2085 H 0.54571 0.56222 0.07979 0.0
H2086 H 0.41307 0.52143 0.06248 0.0
H2087 H 0.38341 0.55749 0.0538 0.0
C2088 C 0.10118 0.61768 0.54797 0.0
C2089 C 0.10739 0.65426 0.56212 0.0
C2090 C 0.19914 0.71463 0.55144 0.0
C2091 C 0.19803 0.67058 0.54193 0.0
N2092 N 0.14418 0.57999 0.52966 0.0
N2093 N 0.16453 0.74033 0.577 0.0
C2094 C 0.14774 0.62227 0.53942 0.0
C2095 C 0.15657 0.70432 0.56351 0.0
N2096 N 0.05052 0.5801 0.54218 0.0
N2097 N 0.2421 0.76589 0.54933 0.0
H2098 H 0.13511 0.73393 0.58645 0.0
H2099 H 0.20199 0.77469 0.57965 0.0
H2100 H 0.27378 0.77413 0.54057 0.0
H2101 H 0.24329 0.80024 0.55478 0.0
H2102 H 0.04318 0.55499 0.53101 0.0
H2103 H 0.01633 0.57978 0.54713 0.0
H2104 H 0.10972 0.5415 0.52957 0.0
H2105 H 0.17591 0.58281 0.52205 0.0
C2106 C 0.37114 0.47028 0.55596 0.0
C2107 C 0.38502 0.47484 0.57468 0.0
C2108 C 0.39125 0.56336 0.57582 0.0
C2109 C 0.37344 0.55757 0.55751 0.0
N2110 N 0.33201 0.4985 0.53187 0.0
N2111 N 0.38526 0.51443 0.60333 0.0
C2112 C 0.35954 0.5091 0.54795 0.0
C2113 C 0.38863 0.51825 0.58492 0.0
N2114 N 0.36901 0.42919 0.54583 0.0
N2115 N 0.41067 0.61194 0.58456 0.0
H2116 H 0.37633 0.47848 0.61005 0.0
H2117 H 0.38368 0.54349 0.61144 0.0
H2118 H 0.41463 0.64659 0.57814 0.0
H2119 H 0.42789 0.61894 0.59752 0.0
H2120 H 0.36515 0.42768 0.53175 0.0
H2121 H 0.37453 0.39845 0.55141 0.0
H2122 H 0.31618 0.46159 0.52503 0.0
H2123 H 0.32109 0.52545 0.52631 0.0
C2124 C 0.5741 0.88719 0.55756 0.0
C2125 C 0.56763 0.91074 0.57358 0.0
C2126 C 0.46924 0.85166 0.57133 0.0
C2127 C 0.47557 0.82936 0.55512 0.0
N2128 N 0.53211 0.83123 0.53096 0.0
N2129 N 0.51064 0.89566 0.59958 0.0
C2130 C 0.52752 0.84878 0.54766 0.0
C2131 C 0.51566 0.88777 0.58163 0.0
N2132 N 0.62474 0.89785 0.55286 0.0
N2133 N 0.4184 0.8385 0.57673 0.0
H2134 H 0.54343 0.91273 0.60856 0.0
H2135 H 0.47372 0.87681 0.60628 0.0
H2136 H 0.38368 0.81267 0.56919 0.0
H2137 H 0.41121 0.85762 0.58747 0.0
H2138 H 0.63233 0.87878 0.54223 0.0
H2139 H 0.65873 0.92075 0.5611 0.0
H2140 H 0.56827 0.84748 0.52388 0.0
H2141 H 0.49839 0.80399 0.52338 0.0
C2142 C 0.29034 0.42685 0.2948 0.0
C2143 C 0.33547 0.43377 0.2847 0.0
C2144 C 0.38144 0.53111 0.29101 0.0
C2145 C 0.33198 0.52507 0.2976 0.0
N2146 N 0.23634 0.46715 0.30292 0.0
N2147 N 0.42464 0.49244 0.27301 0.0
C2148 C 0.28562 0.47289 0.29893 0.0
C2149 C 0.38151 0.48594 0.28285 0.0
N2150 N 0.25243 0.37658 0.30074 0.0
N2151 N 0.42825 0.57997 0.29268 0.0
H2152 H 0.42658 0.45966 0.26756 0.0
H2153 H 0.45692 0.53026 0.26945 0.0
H2154 H 0.42959 0.61353 0.29889 0.0
H2155 H 0.46633 0.58573 0.28959 0.0
H2156 H 0.22103 0.37027 0.30932 0.0
H2157 H 0.25668 0.34257 0.29916 0.0
H2158 H 0.20031 0.43002 0.3021 0.0
H2159 H 0.23097 0.50004 0.30578 0.0
C2160 C 0.57772 0.84609 0.28507 0.0
C2161 C 0.57479 0.88811 0.27544 0.0
C2162 C 0.48039 0.84932 0.28441 0.0
C2163 C 0.48085 0.80262 0.29132 0.0
N2164 N 0.52879 0.75282 0.29517 0.0
N2165 N 0.52183 0.92702 0.26425 0.0
C2166 C 0.52928 0.80003 0.291 0.0
C2167 C 0.52557 0.88885 0.27455 0.0
N2168 N 0.62672 0.85018 0.28877 0.0
N2169 N 0.43776 0.85709 0.28798 0.0
H2170 H 0.55465 0.95741 0.25721 0.0
H2171 H 0.48524 0.92583 0.26155 0.0
H2172 H 0.40553 0.83081 0.29616 0.0
H2173 H 0.43732 0.89253 0.2846 0.0
H2174 H 0.63138 0.82385 0.29755 0.0
H2175 H 0.6632 0.8827 0.2845 0.0
H2176 H 0.56207 0.74753 0.29331 0.0
H2177 H 0.49395 0.71699 0.2987 0.0
C2178 C 0.12652 0.68606 0.29058 0.0
C2179 C 0.15254 0.73102 0.27852 0.0
C2180 C 0.23789 0.75824 0.29502 0.0
C2181 C 0.21502 0.70648 0.30309 0.0
N2182 N 0.13643 0.61753 0.30692 0.0
N2183 N 0.23893 0.8038 0.26751 0.0
C2184 C 0.1588 0.66938 0.30052 0.0
C2185 C 0.2099 0.76593 0.28037 0.0
N2186 N 0.07194 0.66075 0.29333 0.0
N2187 N 0.28748 0.79918 0.30056 0.0
H2188 H 0.22196 0.80715 0.25543 0.0
H2189 H 0.28117 0.82649 0.26772 0.0
H2190 H 0.30841 0.79528 0.31162 0.0
H2191 H 0.30419 0.83876 0.29562 0.0
H2192 H 0.05272 0.63043 0.30305 0.0
H2193 H 0.04715 0.67458 0.28783 0.0
H2194 H 0.09672 0.5876 0.30386 0.0
H2195 H 0.15897 0.60372 0.31407 0.0
loop_
_geom_bond_atom_site_label_1
_geom_bond_atom_site_label_2
_geom_bond_distance
_geom_bond_site_symmetry_2
_ccdc_geom_bond_type
Mn0 O5 2.112 . S
Mn0 O15 2.152 1_545 S
Mn0 O16 2.301 1_545 S
Mn0 O24 2.374 1_545 S
Mn0 O25 2.216 . S
Mn0 O26 2.084 1_545 S
Mn1 O6 2.121 . S
Mn1 N8 2.257 . S
Mn1 N17 2.282 . S
Mn1 O25 2.215 . S
Mn1 O27 2.117 . S
C2 O24 1.234 1_545 S
C2 O25 1.283 . S
C3 O15 1.281 . S
C3 O16 1.236 . S
C4 O26 1.240 1_545 S
C4 O27 1.264 . S
O5 Mn0 2.112 . S
O5 C14 1.250 . S
O6 Mn1 2.121 . S
O6 C14 1.258 . S
C7 N8 1.326 . S
C7 C11 1.460 . S
C7 H13 0.929 . S
N8 Mn1 2.257 . S
N8 C7 1.326 . S
N8 C12 1.362 . S
C9 C10 1.258 . S
C9 C12 1.431 . S
C9 C29 1.449 1_655 S
C10 C9 1.258 . S
C10 C11 1.477 . S
C10 H30 0.931 . S
C11 C7 1.460 . S
C11 C10 1.477 . S
C11 H31 0.930 . S
C12 N8 1.362 . S
C12 C9 1.431 . S
C12 C22 1.476 . S
H13 C7 0.929 . S
C14 O5 1.250 . S
C14 O6 1.258 . S
O15 Mn0 2.152 1_565 S
O15 C3 1.281 . S
O16 Mn0 2.301 1_565 S
O16 C3 1.236 . S
N17 Mn1 2.282 . S
N17 C18 1.328 . S
N17 C22 1.318 . S
C18 N17 1.328 . S
C18 C19 1.457 . S
C18 H23 0.929 . S
C19 C18 1.457 . S
C19 C20 1.291 1_655 S
C19 H32 0.931 . S
C20 C19 1.291 1_455 S
C20 C21 1.373 1_455 S
C20 H33 0.929 . S
C21 C20 1.373 1_655 S
C21 C22 1.396 . S
C21 C28 1.403 1_655 S
C22 C12 1.476 . S
C22 N17 1.318 . S
C22 C21 1.396 . S
H23 C18 0.929 . S
O24 Mn0 2.374 1_565 S
O24 C2 1.234 1_565 S
O25 Mn0 2.216 . S
O25 Mn1 2.215 . S
O25 C2 1.283 . S
O26 Mn0 2.084 1_565 S
O26 C4 1.240 1_565 S
O27 Mn1 2.117 . S
O27 C4 1.264 . S
C28 C21 1.403 1_455 S
C28 C29 1.399 . S
C28 H34 0.929 . S
C29 C9 1.449 1_455 S
C29 C28 1.399 . S
C29 H35 0.930 . S
H30 C10 0.931 . S
H31 C11 0.930 . S
H32 C19 0.931 . S
H33 C20 0.929 . S
H34 C28 0.929 . S
H35 C29 0.930 . S
Mn36 O41 2.105 . S
Mn36 O51 2.156 1_455 S
Mn36 O52 2.299 1_455 S
Mn36 O60 2.379 1_455 S
Mn36 O61 2.213 . S
Mn36 O62 2.089 1_455 S
Mn37 O42 2.121 . S
Mn37 N44 2.257 . S
Mn37 N53 2.282 . S
Mn37 O61 2.215 . S
Mn37 O63 2.117 . S
C38 O60 1.234 1_455 S
C38 O61 1.283 . S
C39 O51 1.281 . S
C39 O52 1.236 . S
C40 O62 1.240 1_455 S
C40 O63 1.264 . S
O41 Mn36 2.105 . S
O41 C50 1.250 . S
O42 Mn37 2.121 . S
O42 C50 1.258 . S
C43 N44 1.326 . S
C43 C47 1.460 . S
C43 H49 0.929 . S
N44 Mn37 2.257 . S
N44 C43 1.326 . S
N44 C48 1.362 . S
C45 C46 1.258 . S
C45 C48 1.431 . S
C45 C65 1.449 1_565 S
C46 C45 1.258 . S
C46 C47 1.477 . S
C46 H66 0.931 . S
C47 C43 1.460 . S
C47 C46 1.477 . S
C47 H67 0.930 . S
C48 N44 1.362 . S
C48 C45 1.431 . S
C48 C58 1.476 . S
H49 C43 0.929 . S
C50 O41 1.250 . S
C50 O42 1.258 . S
O51 Mn36 2.156 1_655 S
O51 C39 1.281 . S
O52 Mn36 2.299 1_655 S
O52 C39 1.236 . S
N53 Mn37 2.282 . S
N53 C54 1.328 . S
N53 C58 1.318 . S
C54 N53 1.328 . S
C54 C55 1.457 . S
C54 H59 0.929 . S
C55 C54 1.457 . S
C55 C56 1.291 1_565 S
C55 H68 0.931 . S
C56 C55 1.291 1_545 S
C56 C57 1.373 1_545 S
C56 H69 0.929 . S
C57 C56 1.373 1_565 S
C57 C58 1.396 . S
C57 C64 1.403 1_565 S
C58 C48 1.476 . S
C58 N53 1.318 . S
C58 C57 1.396 . S
H59 C54 0.929 . S
O60 Mn36 2.379 1_655 S
O60 C38 1.234 1_655 S
O61 Mn36 2.213 . S
O61 Mn37 2.215 . S
O61 C38 1.283 . S
O62 Mn36 2.089 1_655 S
O62 C40 1.240 1_655 S
O63 Mn37 2.117 . S
O63 C40 1.264 . S
C64 C57 1.403 1_545 S
C64 C65 1.399 . S
C64 H70 0.929 . S
C65 C45 1.449 1_545 S
C65 C64 1.399 . S
C65 H71 0.930 . S
H66 C46 0.931 . S
H67 C47 0.930 . S
H68 C55 0.931 . S
H69 C56 0.929 . S
H70 C64 0.929 . S
H71 C65 0.930 . S
Mn72 O77 2.095 . S
Mn72 O87 2.162 . S
Mn72 O88 2.297 . S
Mn72 O96 2.385 . S
Mn72 O97 2.209 . S
Mn72 O98 2.094 . S
Mn73 O78 2.121 . S
Mn73 N80 2.257 . S
Mn73 N89 2.282 . S
Mn73 O97 2.215 . S
Mn73 O99 2.117 . S
C74 O96 1.234 . S
C74 O97 1.283 . S
C75 O87 1.281 . S
C75 O88 1.236 . S
C76 O98 1.240 . S
C76 O99 1.264 . S
O77 Mn72 2.095 . S
O77 C86 1.250 . S
O78 Mn73 2.121 . S
O78 C86 1.258 . S
C79 N80 1.326 . S
C79 C83 1.460 . S
C79 H85 0.929 . S
N80 Mn73 2.257 . S
N80 C79 1.326 . S
N80 C84 1.362 . S
C81 C82 1.258 . S
C81 C84 1.431 . S
C81 C101 1.449 . S
C82 C81 1.258 . S
C82 C83 1.477 . S
C82 H102 0.931 . S
C83 C79 1.460 . S
C83 C82 1.477 . S
C83 H103 0.930 . S
C84 N80 1.362 . S
C84 C81 1.431 . S
C84 C94 1.476 . S
H85 C79 0.929 . S
C86 O77 1.250 . S
C86 O78 1.258 . S
O87 Mn72 2.162 . S
O87 C75 1.281 . S
O88 Mn72 2.297 . S
O88 C75 1.236 . S
N89 Mn73 2.282 . S
N89 C90 1.328 . S
N89 C94 1.318 . S
C90 N89 1.328 . S
C90 C91 1.457 . S
C90 H95 0.929 . S
C91 C90 1.457 . S
C91 C92 1.291 . S
C91 H104 0.931 . S
C92 C91 1.291 . S
C92 C93 1.373 . S
C92 H105 0.929 . S
C93 C92 1.373 . S
C93 C94 1.396 . S
C93 C100 1.403 . S
C94 C84 1.476 . S
C94 N89 1.318 . S
C94 C93 1.396 . S
H95 C90 0.929 . S
O96 Mn72 2.385 . S
O96 C74 1.234 . S
O97 Mn72 2.209 . S
O97 Mn73 2.215 . S
O97 C74 1.283 . S
O98 Mn72 2.094 . S
O98 C76 1.240 . S
O99 Mn73 2.117 . S
O99 C76 1.264 . S
C100 C93 1.403 . S
C100 C101 1.399 . S
C100 H106 0.929 1_545 S
C101 C81 1.449 . S
C101 C100 1.399 . S
C101 H107 0.930 . S
H102 C82 0.931 . S
H103 C83 0.930 . S
H104 C91 0.931 . S
H105 C92 0.929 . S
H106 C100 0.929 1_565 S
H107 C101 0.930 . S
Mn108 O113 2.095 1_545 S
Mn108 O123 2.162 . S
Mn108 O124 2.297 . S
Mn108 O132 2.385 . S
Mn108 O133 2.209 1_545 S
Mn108 O134 2.094 . S
Mn109 O114 2.121 . S
Mn109 N116 2.257 . S
Mn109 N125 2.282 . S
Mn109 O133 2.215 . S
Mn109 O135 2.117 . S
C110 O132 1.234 . S
C110 O133 1.283 1_545 S
C111 O123 1.281 . S
C111 O124 1.236 . S
C112 O134 1.240 . S
C112 O135 1.264 1_545 S
O113 Mn108 2.095 1_565 S
O113 C122 1.250 . S
O114 Mn109 2.121 . S
O114 C122 1.258 . S
C115 N116 1.326 . S
C115 C119 1.460 . S
C115 H121 0.929 . S
N116 Mn109 2.257 . S
N116 C115 1.326 . S
N116 C120 1.362 . S
C117 C118 1.258 . S
C117 C120 1.431 . S
C117 C137 1.449 . S
C118 C117 1.258 . S
C118 C119 1.477 . S
C118 H138 0.931 . S
C119 C115 1.460 . S
C119 C118 1.477 . S
C119 H139 0.930 . S
C120 N116 1.362 . S
C120 C117 1.431 . S
C120 C130 1.476 . S
H121 C115 0.929 . S
C122 O113 1.250 . S
C122 O114 1.258 . S
O123 Mn108 2.162 . S
O123 C111 1.281 . S
O124 Mn108 2.297 . S
O124 C111 1.236 . S
N125 Mn109 2.282 . S
N125 C126 1.328 . S
N125 C130 1.318 . S
C126 N125 1.328 . S
C126 C127 1.457 . S
C126 H131 0.929 . S
C127 C126 1.457 . S
C127 C128 1.291 . S
C127 H140 0.931 . S
C128 C127 1.291 . S
C128 C129 1.373 . S
C128 H141 0.929 . S
C129 C128 1.373 . S
C129 C130 1.396 . S
C129 C136 1.403 . S
C130 C120 1.476 . S
C130 N125 1.318 . S
C130 C129 1.396 . S
H131 C126 0.929 . S
O132 Mn108 2.385 . S
O132 C110 1.234 . S
O133 Mn108 2.209 1_565 S
O133 Mn109 2.215 . S
O133 C110 1.283 1_565 S
O134 Mn108 2.094 . S
O134 C112 1.240 . S
O135 Mn109 2.117 . S
O135 C112 1.264 1_565 S
C136 C129 1.403 . S
C136 C137 1.399 . S
C136 H142 0.929 1_455 S
C137 C117 1.449 . S
C137 C136 1.399 . S
C137 H143 0.930 . S
H138 C118 0.931 . S
H139 C119 0.930 . S
H140 C127 0.931 . S
H141 C128 0.929 . S
H142 C136 0.929 1_655 S
H143 C137 0.930 . S
Mn144 O149 2.095 1_655 S
Mn144 O159 2.162 . S
Mn144 O160 2.297 . S
Mn144 O168 2.385 . S
Mn144 O169 2.209 1_655 S
Mn144 O170 2.094 . S
Mn145 O150 2.121 . S
Mn145 N152 2.257 . S
Mn145 N161 2.282 . S
Mn145 O169 2.215 . S
Mn145 O171 2.117 . S
C146 O168 1.234 1_455 S
C146 O169 1.283 . S
C147 O159 1.281 . S
C147 O160 1.236 . S
C148 O170 1.240 1_455 S
C148 O171 1.264 . S
O149 Mn144 2.095 1_455 S
O149 C158 1.250 . S
O150 Mn145 2.121 . S
O150 C158 1.258 . S
C151 N152 1.326 . S
C151 C155 1.460 . S
C151 H157 0.929 . S
N152 Mn145 2.257 . S
N152 C151 1.326 . S
N152 C156 1.362 . S
C153 C154 1.258 . S
C153 C156 1.431 . S
C153 C173 1.449 . S
C154 C153 1.258 . S
C154 C155 1.477 . S
C154 H174 0.931 . S
C155 C151 1.460 . S
C155 C154 1.477 . S
C155 H175 0.930 . S
C156 N152 1.362 . S
C156 C153 1.431 . S
C156 C166 1.476 . S
H157 C151 0.929 . S
C158 O149 1.250 . S
C158 O150 1.258 . S
O159 Mn144 2.162 . S
O159 C147 1.281 . S
O160 Mn144 2.297 . S
O160 C147 1.236 . S
N161 Mn145 2.282 . S
N161 C162 1.328 . S
N161 C166 1.318 . S
C162 N161 1.328 . S
C162 C163 1.457 . S
C162 H167 0.929 . S
C163 C162 1.457 . S
C163 C164 1.291 . S
C163 H176 0.931 . S
C164 C163 1.291 . S
C164 C165 1.373 . S
C164 H177 0.929 . S
C165 C164 1.373 . S
C165 C166 1.396 . S
C165 C172 1.403 . S
C166 C156 1.476 . S
C166 N161 1.318 . S
C166 C165 1.396 . S
H167 C162 0.929 . S
O168 Mn144 2.385 . S
O168 C146 1.234 1_655 S
O169 Mn144 2.209 1_455 S
O169 Mn145 2.215 . S
O169 C146 1.283 . S
O170 Mn144 2.094 . S
O170 C148 1.240 1_655 S
O171 Mn145 2.117 . S
O171 C148 1.264 . S
C172 C165 1.403 . S
C172 C173 1.399 . S
C172 H178 0.929 . S
C173 C153 1.449 . S
C173 C172 1.399 . S
C173 H179 0.930 . S
H174 C154 0.931 . S
H175 C155 0.930 . S
H176 C163 0.931 . S
H177 C164 0.929 . S
H178 C172 0.929 . S
H179 C173 0.930 . S
Mn180 O185 2.095 . S
Mn180 O195 2.162 . S
Mn180 O196 2.297 . S
Mn180 O204 2.385 . S
Mn180 O205 2.209 . S
Mn180 O206 2.094 . S
Mn181 O186 2.121 . S
Mn181 N188 2.257 . S
Mn181 N197 2.282 . S
Mn181 O205 2.215 . S
Mn181 O207 2.117 . S
C182 O204 1.234 . S
C182 O205 1.283 . S
C183 O195 1.281 . S
C183 O196 1.236 . S
C184 O206 1.240 . S
C184 O207 1.264 . S
O185 Mn180 2.095 . S
O185 C194 1.250 . S
O186 Mn181 2.121 . S
O186 C194 1.258 . S
C187 N188 1.326 . S
C187 C191 1.460 . S
C187 H193 0.929 . S
N188 Mn181 2.257 . S
N188 C187 1.326 . S
N188 C192 1.362 . S
C189 C190 1.258 . S
C189 C192 1.431 . S
C189 C209 1.449 1_655 S
C190 C189 1.258 . S
C190 C191 1.477 . S
C190 H210 0.931 . S
C191 C187 1.460 . S
C191 C190 1.477 . S
C191 H211 0.930 . S
C192 N188 1.362 . S
C192 C189 1.431 . S
C192 C202 1.476 . S
H193 C187 0.929 . S
C194 O185 1.250 . S
C194 O186 1.258 . S
O195 Mn180 2.162 . S
O195 C183 1.281 . S
O196 Mn180 2.297 . S
O196 C183 1.236 . S
N197 Mn181 2.282 . S
N197 C198 1.328 . S
N197 C202 1.318 . S
C198 N197 1.328 . S
C198 C199 1.457 . S
C198 H203 0.929 . S
C199 C198 1.457 . S
C199 C200 1.291 1_655 S
C199 H212 0.931 . S
C200 C199 1.291 1_455 S
C200 C201 1.373 1_455 S
C200 H213 0.929 . S
C201 C200 1.373 1_655 S
C201 C202 1.396 . S
C201 C208 1.403 1_655 S
C202 C192 1.476 . S
C202 N197 1.318 . S
C202 C201 1.396 . S
H203 C198 0.929 . S
O204 Mn180 2.385 . S
O204 C182 1.234 . S
O205 Mn180 2.209 . S
O205 Mn181 2.215 . S
O205 C182 1.283 . S
O206 Mn180 2.094 . S
O206 C184 1.240 . S
O207 Mn181 2.117 . S
O207 C184 1.264 . S
C208 C201 1.403 1_455 S
C208 C209 1.399 . S
C208 H214 0.929 . S
C209 C189 1.449 1_455 S
C209 C208 1.399 . S
C209 H215 0.930 . S
H210 C190 0.931 . S
H211 C191 0.930 . S
H212 C199 0.931 . S
H213 C200 0.929 . S
H214 C208 0.929 . S
H215 C209 0.930 . S
Mn216 O221 2.095 . S
Mn216 O231 2.162 . S
Mn216 O232 2.297 . S
Mn216 O240 2.385 . S
Mn216 O241 2.209 . S
Mn216 O242 2.094 . S
Mn217 O222 2.121 . S
Mn217 N224 2.257 . S
Mn217 N233 2.282 . S
Mn217 O241 2.215 . S
Mn217 O243 2.117 . S
C218 O240 1.234 . S
C218 O241 1.283 . S
C219 O231 1.281 . S
C219 O232 1.236 . S
C220 O242 1.240 . S
C220 O243 1.264 . S
O221 Mn216 2.095 . S
O221 C230 1.250 . S
O222 Mn217 2.121 . S
O222 C230 1.258 . S
C223 N224 1.326 . S
C223 C227 1.460 . S
C223 H229 0.929 . S
N224 Mn217 2.257 . S
N224 C223 1.326 . S
N224 C228 1.362 . S
C225 C226 1.258 . S
C225 C228 1.431 . S
C225 C245 1.449 . S
C226 C225 1.258 . S
C226 C227 1.477 . S
C226 H246 0.931 . S
C227 C223 1.460 . S
C227 C226 1.477 . S
C227 H247 0.930 . S
C228 N224 1.362 . S
C228 C225 1.431 . S
C228 C238 1.476 . S
H229 C223 0.929 . S
C230 O221 1.250 . S
C230 O222 1.258 . S
O231 Mn216 2.162 . S
O231 C219 1.281 . S
O232 Mn216 2.297 . S
O232 C219 1.236 . S
N233 Mn217 2.282 . S
N233 C234 1.328 . S
N233 C238 1.318 . S
C234 N233 1.328 . S
C234 C235 1.457 . S
C234 H239 0.929 . S
C235 C234 1.457 . S
C235 C236 1.291 . S
C235 H248 0.931 . S
C236 C235 1.291 . S
C236 C237 1.373 . S
C236 H249 0.929 . S
C237 C236 1.373 . S
C237 C238 1.396 . S
C237 C244 1.403 . S
C238 C228 1.476 . S
C238 N233 1.318 . S
C238 C237 1.396 . S
H239 C234 0.929 . S
O240 Mn216 2.385 . S
O240 C218 1.234 . S
O241 Mn216 2.209 . S
O241 Mn217 2.215 . S
O241 C218 1.283 . S
O242 Mn216 2.094 . S
O242 C220 1.240 . S
O243 Mn217 2.117 . S
O243 C220 1.264 . S
C244 C237 1.403 . S
C244 C245 1.399 . S
C244 H250 0.929 . S
C245 C225 1.449 . S
C245 C244 1.399 . S
C245 H251 0.930 . S
H246 C226 0.931 . S
H247 C227 0.930 . S
H248 C235 0.931 . S
H249 C236 0.929 . S
H250 C244 0.929 . S
H251 C245 0.930 . S
Mn252 O257 2.095 . S
Mn252 O267 2.162 1_545 S
Mn252 O268 2.297 1_545 S
Mn252 O276 2.385 . S
Mn252 O277 2.209 . S
Mn252 O278 2.094 . S
Mn253 O258 2.121 . S
Mn253 N260 2.257 . S
Mn253 N269 2.282 . S
Mn253 O277 2.215 . S
Mn253 O279 2.117 . S
C254 O276 1.234 . S
C254 O277 1.283 . S
C255 O267 1.281 . S
C255 O268 1.236 . S
C256 O278 1.240 . S
C256 O279 1.264 . S
O257 Mn252 2.095 . S
O257 C266 1.250 . S
O258 Mn253 2.121 . S
O258 C266 1.258 . S
C259 N260 1.326 . S
C259 C263 1.460 . S
C259 H265 0.929 . S
N260 Mn253 2.257 . S
N260 C259 1.326 . S
N260 C264 1.362 . S
C261 C262 1.258 . S
C261 C264 1.431 . S
C261 C281 1.449 . S
C262 C261 1.258 . S
C262 C263 1.477 . S
C262 H282 0.931 . S
C263 C259 1.460 . S
C263 C262 1.477 . S
C263 H283 0.930 . S
C264 N260 1.362 . S
C264 C261 1.431 . S
C264 C274 1.476 . S
H265 C259 0.929 . S
C266 O257 1.250 . S
C266 O258 1.258 . S
O267 Mn252 2.162 1_565 S
O267 C255 1.281 . S
O268 Mn252 2.297 1_565 S
O268 C255 1.236 . S
N269 Mn253 2.282 . S
N269 C270 1.328 . S
N269 C274 1.318 . S
C270 N269 1.328 . S
C270 C271 1.457 . S
C270 H275 0.929 . S
C271 C270 1.457 . S
C271 C272 1.291 . S
C271 H284 0.931 . S
C272 C271 1.291 . S
C272 C273 1.373 . S
C272 H285 0.929 . S
C273 C272 1.373 . S
C273 C274 1.396 . S
C273 C280 1.403 . S
C274 C264 1.476 . S
C274 N269 1.318 . S
C274 C273 1.396 . S
H275 C270 0.929 . S
O276 Mn252 2.385 . S
O276 C254 1.234 . S
O277 Mn252 2.209 . S
O277 Mn253 2.215 . S
O277 C254 1.283 . S
O278 Mn252 2.094 . S
O278 C256 1.240 . S
O279 Mn253 2.117 . S
O279 C256 1.264 . S
C280 C273 1.403 . S
C280 C281 1.399 . S
C280 H286 0.929 . S
C281 C261 1.449 . S
C281 C280 1.399 . S
C281 H287 0.930 . S
H282 C262 0.931 . S
H283 C263 0.930 . S
H284 C271 0.931 . S
H285 C272 0.929 . S
H286 C280 0.929 . S
H287 C281 0.930 . S
Mn288 O293 2.095 1_655 S
Mn288 O303 2.162 . S
Mn288 O304 2.297 1_655 S
Mn288 O312 2.385 . S
Mn288 O313 2.209 . S
Mn288 O314 2.094 . S
Mn289 O294 2.121 1_655 S
Mn289 N296 2.257 . S
Mn289 N305 2.282 . S
Mn289 O313 2.215 . S
Mn289 O315 2.117 . S
C290 O312 1.234 . S
C290 O313 1.283 . S
C291 O303 1.281 . S
C291 O304 1.236 1_655 S
C292 O314 1.240 . S
C292 O315 1.264 . S
O293 Mn288 2.095 1_455 S
O293 C302 1.250 . S
O294 Mn289 2.121 1_455 S
O294 C302 1.258 . S
C295 N296 1.326 1_455 S
C295 C299 1.460 . S
C295 H301 0.929 . S
N296 Mn289 2.257 . S
N296 C295 1.326 1_655 S
N296 C300 1.362 . S
C297 C298 1.258 1_655 S
C297 C300 1.431 . S
C297 C317 1.449 . S
C298 C297 1.258 1_455 S
C298 C299 1.477 . S
C298 H318 0.931 . S
C299 C295 1.460 . S
C299 C298 1.477 . S
C299 H319 0.930 . S
C300 N296 1.362 . S
C300 C297 1.431 . S
C300 C310 1.476 . S
H301 C295 0.929 . S
C302 O293 1.250 . S
C302 O294 1.258 . S
O303 Mn288 2.162 . S
O303 C291 1.281 . S
O304 Mn288 2.297 1_455 S
O304 C291 1.236 1_455 S
N305 Mn289 2.282 . S
N305 C306 1.328 . S
N305 C310 1.318 . S
C306 N305 1.328 . S
C306 C307 1.457 . S
C306 H311 0.929 . S
C307 C306 1.457 . S
C307 C308 1.291 . S
C307 H320 0.931 . S
C308 C307 1.291 . S
C308 C309 1.373 . S
C308 H321 0.929 . S
C309 C308 1.373 . S
C309 C310 1.396 . S
C309 C316 1.403 . S
C310 C300 1.476 . S
C310 N305 1.318 . S
C310 C309 1.396 . S
H311 C306 0.929 . S
O312 Mn288 2.385 . S
O312 C290 1.234 . S
O313 Mn288 2.209 . S
O313 Mn289 2.215 . S
O313 C290 1.283 . S
O314 Mn288 2.094 . S
O314 C292 1.240 . S
O315 Mn289 2.117 . S
O315 C292 1.264 . S
C316 C309 1.403 . S
C316 C317 1.399 . S
C316 H322 0.929 . S
C317 C297 1.449 . S
C317 C316 1.399 . S
C317 H323 0.930 . S
H318 C298 0.931 . S
H319 C299 0.930 . S
H320 C307 0.931 . S
H321 C308 0.929 . S
H322 C316 0.929 . S
H323 C317 0.930 . S
Mn324 O329 2.095 . S
Mn324 O339 2.162 1_655 S
Mn324 O340 2.297 1_655 S
Mn324 O348 2.385 . S
Mn324 O349 2.209 . S
Mn324 O350 2.094 . S
Mn325 O330 2.121 . S
Mn325 N332 2.257 . S
Mn325 N341 2.282 . S
Mn325 O349 2.215 . S
Mn325 O351 2.117 . S
C326 O348 1.234 . S
C326 O349 1.283 . S
C327 O339 1.281 . S
C327 O340 1.236 . S
C328 O350 1.240 . S
C328 O351 1.264 . S
O329 Mn324 2.095 . S
O329 C338 1.250 . S
O330 Mn325 2.121 . S
O330 C338 1.258 . S
C331 N332 1.326 . S
C331 C335 1.460 . S
C331 H337 0.929 . S
N332 Mn325 2.257 . S
N332 C331 1.326 . S
N332 C336 1.362 . S
C333 C334 1.258 . S
C333 C336 1.431 . S
C333 C353 1.449 . S
C334 C333 1.258 . S
C334 C335 1.477 . S
C334 H354 0.931 . S
C335 C331 1.460 . S
C335 C334 1.477 . S
C335 H355 0.930 . S
C336 N332 1.362 . S
C336 C333 1.431 . S
C336 C346 1.476 . S
H337 C331 0.929 . S
C338 O329 1.250 . S
C338 O330 1.258 . S
O339 Mn324 2.162 1_455 S
O339 C327 1.281 . S
O340 Mn324 2.297 1_455 S
O340 C327 1.236 . S
N341 Mn325 2.282 . S
N341 C342 1.328 . S
N341 C346 1.318 . S
C342 N341 1.328 . S
C342 C343 1.457 . S
C342 H347 0.929 . S
C343 C342 1.457 . S
C343 C344 1.291 . S
C343 H356 0.931 . S
C344 C343 1.291 . S
C344 C345 1.373 . S
C344 H357 0.929 . S
C345 C344 1.373 . S
C345 C346 1.396 . S
C345 C352 1.403 . S
C346 C336 1.476 . S
C346 N341 1.318 . S
C346 C345 1.396 . S
H347 C342 0.929 . S
O348 Mn324 2.385 . S
O348 C326 1.234 . S
O349 Mn324 2.209 . S
O349 Mn325 2.215 . S
O349 C326 1.283 . S
O350 Mn324 2.094 . S
O350 C328 1.240 . S
O351 Mn325 2.117 . S
O351 C328 1.264 . S
C352 C345 1.403 . S
C352 C353 1.399 . S
C352 H358 0.929 . S
C353 C333 1.449 . S
C353 C352 1.399 . S
C353 H359 0.930 . S
H354 C334 0.931 . S
H355 C335 0.930 . S
H356 C343 0.931 . S
H357 C344 0.929 . S
H358 C352 0.929 . S
H359 C353 0.930 . S
Mn360 O365 2.095 . S
Mn360 O375 2.162 . S
Mn360 O376 2.297 . S
Mn360 O384 2.385 . S
Mn360 O385 2.209 . S
Mn360 O386 2.094 . S
Mn361 O366 2.121 . S
Mn361 N368 2.257 . S
Mn361 N377 2.282 . S
Mn361 O385 2.215 . S
Mn361 O387 2.117 . S
C362 O384 1.234 . S
C362 O385 1.283 . S
C363 O375 1.281 . S
C363 O376 1.236 . S
C364 O386 1.240 . S
C364 O387 1.264 . S
O365 Mn360 2.095 . S
O365 C374 1.250 . S
O366 Mn361 2.121 . S
O366 C374 1.258 . S
C367 N368 1.326 . S
C367 C371 1.460 . S
C367 H373 0.929 . S
N368 Mn361 2.257 . S
N368 C367 1.326 . S
N368 C372 1.362 . S
C369 C370 1.258 . S
C369 C372 1.431 . S
C369 C389 1.449 . S
C370 C369 1.258 . S
C370 C371 1.477 . S
C370 H390 0.931 . S
C371 C367 1.460 . S
C371 C370 1.477 . S
C371 H391 0.930 . S
C372 N368 1.362 . S
C372 C369 1.431 . S
C372 C382 1.476 . S
H373 C367 0.929 . S
C374 O365 1.250 . S
C374 O366 1.258 . S
O375 Mn360 2.162 . S
O375 C363 1.281 . S
O376 Mn360 2.297 . S
O376 C363 1.236 . S
N377 Mn361 2.282 . S
N377 C378 1.328 . S
N377 C382 1.318 . S
C378 N377 1.328 . S
C378 C379 1.457 . S
C378 H383 0.929 . S
C379 C378 1.457 . S
C379 C380 1.291 . S
C379 H392 0.931 . S
C380 C379 1.291 . S
C380 C381 1.373 . S
C380 H393 0.929 . S
C381 C380 1.373 . S
C381 C382 1.396 . S
C381 C388 1.403 . S
C382 C372 1.476 . S
C382 N377 1.318 . S
C382 C381 1.396 . S
H383 C378 0.929 . S
O384 Mn360 2.385 . S
O384 C362 1.234 . S
O385 Mn360 2.209 . S
O385 Mn361 2.215 . S
O385 C362 1.283 . S
O386 Mn360 2.094 . S
O386 C364 1.240 . S
O387 Mn361 2.117 . S
O387 C364 1.264 . S
C388 C381 1.403 . S
C388 C389 1.399 . S
C388 H394 0.929 . S
C389 C369 1.449 . S
C389 C388 1.399 . S
C389 H395 0.930 . S
H390 C370 0.931 . S
H391 C371 0.930 . S
H392 C379 0.931 . S
H393 C380 0.929 . S
H394 C388 0.929 . S
H395 C389 0.930 . S
Mn396 O401 2.095 . S
Mn396 O411 2.162 . S
Mn396 O412 2.297 . S
Mn396 O420 2.385 . S
Mn396 O421 2.209 . S
Mn396 O422 2.094 . S
Mn397 O402 2.121 1_545 S
Mn397 N404 2.257 . S
Mn397 N413 2.282 . S
Mn397 O421 2.215 . S
Mn397 O423 2.117 . S
C398 O420 1.234 . S
C398 O421 1.283 . S
C399 O411 1.281 . S
C399 O412 1.236 . S
C400 O422 1.240 . S
C400 O423 1.264 . S
O401 Mn396 2.095 . S
O401 C410 1.250 1_545 S
O402 Mn397 2.121 1_565 S
O402 C410 1.258 . S
C403 N404 1.326 1_565 S
C403 C407 1.460 . S
C403 H409 0.929 . S
N404 Mn397 2.257 . S
N404 C403 1.326 1_545 S
N404 C408 1.362 . S
C405 C406 1.258 . S
C405 C408 1.431 . S
C405 C425 1.449 . S
C406 C405 1.258 . S
C406 C407 1.477 1_545 S
C406 H426 0.931 . S
C407 C403 1.460 . S
C407 C406 1.477 1_565 S
C407 H427 0.930 . S
C408 N404 1.362 . S
C408 C405 1.431 . S
C408 C418 1.476 . S
H409 C403 0.929 . S
C410 O401 1.250 1_565 S
C410 O402 1.258 . S
O411 Mn396 2.162 . S
O411 C399 1.281 . S
O412 Mn396 2.297 . S
O412 C399 1.236 . S
N413 Mn397 2.282 . S
N413 C414 1.328 . S
N413 C418 1.318 . S
C414 N413 1.328 . S
C414 C415 1.457 . S
C414 H419 0.929 . S
C415 C414 1.457 . S
C415 C416 1.291 . S
C415 H428 0.931 . S
C416 C415 1.291 . S
C416 C417 1.373 . S
C416 H429 0.929 . S
C417 C416 1.373 . S
C417 C418 1.396 . S
C417 C424 1.403 . S
C418 C408 1.476 . S
C418 N413 1.318 . S
C418 C417 1.396 . S
H419 C414 0.929 . S
O420 Mn396 2.385 . S
O420 C398 1.234 . S
O421 Mn396 2.209 . S
O421 Mn397 2.215 . S
O421 C398 1.283 . S
O422 Mn396 2.094 . S
O422 C400 1.240 . S
O423 Mn397 2.117 . S
O423 C400 1.264 . S
C424 C417 1.403 . S
C424 C425 1.399 . S
C424 H430 0.929 . S
C425 C405 1.449 . S
C425 C424 1.399 . S
C425 H431 0.930 . S
H426 C406 0.931 . S
H427 C407 0.930 . S
H428 C415 0.931 . S
H429 C416 0.929 . S
H430 C424 0.929 . S
H431 C425 0.930 . S
Mn432 O437 2.095 . S
Mn432 O447 2.162 1_455 S
Mn432 O448 2.281 1_455 S
Mn432 O456 2.385 . S
Mn432 O457 2.209 . S
Mn432 O458 2.094 . S
Mn433 O438 2.121 . S
Mn433 N440 2.257 . S
Mn433 N449 2.282 . S
Mn433 O457 2.215 . S
Mn433 O459 2.117 . S
C434 O456 1.234 . S
C434 O457 1.283 . S
C435 O447 1.281 . S
C435 O448 1.239 . S
C436 O458 1.240 . S
C436 O459 1.264 . S
O437 Mn432 2.095 . S
O437 C446 1.250 . S
O438 Mn433 2.121 . S
O438 C446 1.258 . S
C439 N440 1.326 . S
C439 C443 1.460 . S
C439 H445 0.929 . S
N440 Mn433 2.257 . S
N440 C439 1.326 . S
N440 C444 1.362 . S
C441 C442 1.258 . S
C441 C444 1.431 . S
C441 C461 1.449 . S
C442 C441 1.258 . S
C442 C443 1.477 . S
C442 H462 0.931 . S
C443 C439 1.460 . S
C443 C442 1.477 . S
C443 H463 0.930 . S
C444 N440 1.362 . S
C444 C441 1.431 . S
C444 C454 1.476 . S
H445 C439 0.929 . S
C446 O437 1.250 . S
C446 O438 1.258 . S
O447 Mn432 2.162 1_655 S
O447 C435 1.281 . S
O448 Mn432 2.281 1_655 S
O448 C435 1.239 . S
N449 Mn433 2.282 . S
N449 C450 1.328 . S
N449 C454 1.318 . S
C450 N449 1.328 . S
C450 C451 1.457 . S
C450 H455 0.929 . S
C451 C450 1.457 . S
C451 C452 1.291 . S
C451 H464 0.931 . S
C452 C451 1.291 . S
C452 C453 1.373 . S
C452 H465 0.929 . S
C453 C452 1.373 . S
C453 C454 1.396 . S
C453 C460 1.403 . S
C454 C444 1.476 . S
C454 N449 1.318 . S
C454 C453 1.396 . S
H455 C450 0.929 . S
O456 Mn432 2.385 . S
O456 C434 1.234 . S
O457 Mn432 2.209 . S
O457 Mn433 2.215 . S
O457 C434 1.283 . S
O458 Mn432 2.094 . S
O458 C436 1.240 . S
O459 Mn433 2.117 . S
O459 C436 1.264 . S
C460 C453 1.403 . S
C460 C461 1.399 . S
C460 H466 0.929 . S
C461 C441 1.449 . S
C461 C460 1.399 . S
C461 H467 0.930 . S
H462 C442 0.931 . S
H463 C443 0.930 . S
H464 C451 0.931 . S
H465 C452 0.929 . S
H466 C460 0.929 . S
H467 C461 0.930 . S
Mn468 O473 2.095 . S
Mn468 O483 2.162 . S
Mn468 O484 2.297 . S
Mn468 O492 2.385 . S
Mn468 O493 2.209 . S
Mn468 O494 2.094 . S
Mn469 O474 2.121 . S
Mn469 N476 2.257 . S
Mn469 N485 2.282 . S
Mn469 O493 2.215 . S
Mn469 O495 2.117 . S
C470 O492 1.234 . S
C470 O493 1.283 . S
C471 O483 1.281 . S
C471 O484 1.236 . S
C472 O494 1.240 . S
C472 O495 1.264 . S
O473 Mn468 2.095 . S
O473 C482 1.250 . S
O474 Mn469 2.121 . S
O474 C482 1.258 . S
C475 N476 1.326 . S
C475 C479 1.460 . S
C475 H481 0.929 . S
N476 Mn469 2.257 . S
N476 C475 1.326 . S
N476 C480 1.362 . S
C477 C478 1.258 . S
C477 C480 1.431 . S
C477 C497 1.449 . S
C478 C477 1.258 . S
C478 C479 1.477 . S
C478 H498 0.931 . S
C479 C475 1.460 . S
C479 C478 1.477 . S
C479 H499 0.930 . S
C480 N476 1.362 . S
C480 C477 1.431 . S
C480 C490 1.476 . S
H481 C475 0.929 . S
C482 O473 1.250 . S
C482 O474 1.258 . S
O483 Mn468 2.162 . S
O483 C471 1.281 . S
O484 Mn468 2.297 . S
O484 C471 1.236 . S
N485 Mn469 2.282 . S
N485 C486 1.328 . S
N485 C490 1.318 . S
C486 N485 1.328 . S
C486 C487 1.457 . S
C486 H491 0.929 . S
C487 C486 1.457 . S
C487 C488 1.291 . S
C487 H500 0.931 . S
C488 C487 1.291 . S
C488 C489 1.373 . S
C488 H501 0.929 . S
C489 C488 1.373 . S
C489 C490 1.396 . S
C489 C496 1.403 . S
C490 C480 1.476 . S
C490 N485 1.318 . S
C490 C489 1.396 . S
H491 C486 0.929 . S
O492 Mn468 2.385 . S
O492 C470 1.234 . S
O493 Mn468 2.209 . S
O493 Mn469 2.215 . S
O493 C470 1.283 . S
O494 Mn468 2.094 . S
O494 C472 1.240 . S
O495 Mn469 2.117 . S
O495 C472 1.264 . S
C496 C489 1.403 . S
C496 C497 1.399 . S
C496 H502 0.929 . S
C497 C477 1.449 . S
C497 C496 1.399 . S
C497 H503 0.930 . S
H498 C478 0.931 . S
H499 C479 0.930 . S
H500 C487 0.931 . S
H501 C488 0.929 . S
H502 C496 0.929 . S
H503 C497 0.930 . S
Mn504 O509 2.095 . S
Mn504 O519 2.162 1_565 S
Mn504 O520 2.297 1_565 S
Mn504 O528 2.385 . S
Mn504 O529 2.209 . S
Mn504 O530 2.094 . S
Mn505 O510 2.121 . S
Mn505 N512 2.257 . S
Mn505 N521 2.282 . S
Mn505 O529 2.215 . S
Mn505 O531 2.117 . S
C506 O528 1.234 . S
C506 O529 1.283 . S
C507 O519 1.281 . S
C507 O520 1.236 . S
C508 O530 1.240 . S
C508 O531 1.264 . S
O509 Mn504 2.095 . S
O509 C518 1.250 . S
O510 Mn505 2.121 . S
O510 C518 1.258 . S
C511 N512 1.326 . S
C511 C515 1.460 . S
C511 H517 0.929 . S
N512 Mn505 2.257 . S
N512 C511 1.326 . S
N512 C516 1.362 . S
C513 C514 1.258 . S
C513 C516 1.431 . S
C513 C533 1.449 . S
C514 C513 1.258 . S
C514 C515 1.477 . S
C514 H534 0.931 . S
C515 C511 1.460 . S
C515 C514 1.477 . S
C515 H535 0.930 . S
C516 N512 1.362 . S
C516 C513 1.431 . S
C516 C526 1.476 . S
H517 C511 0.929 . S
C518 O509 1.250 . S
C518 O510 1.258 . S
O519 Mn504 2.162 1_545 S
O519 C507 1.281 . S
O520 Mn504 2.297 1_545 S
O520 C507 1.236 . S
N521 Mn505 2.282 . S
N521 C522 1.328 . S
N521 C526 1.318 . S
C522 N521 1.328 . S
C522 C523 1.457 . S
C522 H527 0.929 . S
C523 C522 1.457 . S
C523 C524 1.291 . S
C523 H536 0.931 . S
C524 C523 1.291 . S
C524 C525 1.373 . S
C524 H537 0.929 . S
C525 C524 1.373 . S
C525 C526 1.396 . S
C525 C532 1.403 . S
C526 C516 1.476 . S
C526 N521 1.318 . S
C526 C525 1.396 . S
H527 C522 0.929 . S
O528 Mn504 2.385 . S
O528 C506 1.234 . S
O529 Mn504 2.209 . S
O529 Mn505 2.215 . S
O529 C506 1.283 . S
O530 Mn504 2.094 . S
O530 C508 1.240 . S
O531 Mn505 2.117 . S
O531 C508 1.264 . S
C532 C525 1.403 . S
C532 C533 1.399 . S
C532 H538 0.929 . S
C533 C513 1.449 . S
C533 C532 1.399 . S
C533 H539 0.930 . S
H534 C514 0.931 . S
H535 C515 0.930 . S
H536 C523 0.931 . S
H537 C524 0.929 . S
H538 C532 0.929 . S
H539 C533 0.930 . S
Mn540 O545 2.095 . S
Mn540 O555 2.162 . S
Mn540 O556 2.297 . S
Mn540 O564 2.385 . S
Mn540 O565 2.209 . S
Mn540 O566 2.094 . S
Mn541 O546 2.121 . S
Mn541 N548 2.257 . S
Mn541 N557 2.282 . S
Mn541 O565 2.215 . S
Mn541 O567 2.117 . S
C542 O564 1.234 . S
C542 O565 1.283 . S
C543 O555 1.281 . S
C543 O556 1.236 . S
C544 O566 1.240 . S
C544 O567 1.264 . S
O545 Mn540 2.095 . S
O545 C554 1.250 . S
O546 Mn541 2.121 . S
O546 C554 1.258 . S
C547 N548 1.326 . S
C547 C551 1.460 . S
C547 H553 0.929 . S
N548 Mn541 2.257 . S
N548 C547 1.326 . S
N548 C552 1.362 . S
C549 C550 1.258 . S
C549 C552 1.431 . S
C549 C569 1.449 . S
C550 C549 1.258 . S
C550 C551 1.477 . S
C550 H570 0.931 . S
C551 C547 1.460 . S
C551 C550 1.477 . S
C551 H571 0.930 . S
C552 N548 1.362 . S
C552 C549 1.431 . S
C552 C562 1.476 . S
H553 C547 0.929 . S
C554 O545 1.250 . S
C554 O546 1.258 . S
O555 Mn540 2.162 . S
O555 C543 1.281 . S
O556 Mn540 2.297 . S
O556 C543 1.236 . S
N557 Mn541 2.282 . S
N557 C558 1.328 . S
N557 C562 1.318 . S
C558 N557 1.328 . S
C558 C559 1.457 . S
C558 H563 0.929 . S
C559 C558 1.457 . S
C559 C560 1.291 . S
C559 H572 0.931 . S
C560 C559 1.291 . S
C560 C561 1.373 . S
C560 H573 0.929 . S
C561 C560 1.373 . S
C561 C562 1.396 . S
C561 C568 1.403 . S
C562 C552 1.476 . S
C562 N557 1.318 . S
C562 C561 1.396 . S
H563 C558 0.929 . S
O564 Mn540 2.385 . S
O564 C542 1.234 . S
O565 Mn540 2.209 . S
O565 Mn541 2.215 . S
O565 C542 1.283 . S
O566 Mn540 2.094 . S
O566 C544 1.240 . S
O567 Mn541 2.117 . S
O567 C544 1.264 . S
C568 C561 1.403 . S
C568 C569 1.399 . S
C568 H574 0.929 . S
C569 C549 1.449 . S
C569 C568 1.399 . S
C569 H575 0.930 . S
H570 C550 0.931 . S
H571 C551 0.930 . S
H572 C559 0.931 . S
H573 C560 0.929 . S
H574 C568 0.929 . S
H575 C569 0.930 . S
Mn576 O581 2.095 1_565 S
Mn576 O591 2.162 . S
Mn576 O592 2.297 1_565 S
Mn576 O600 2.385 . S
Mn576 O601 2.209 . S
Mn576 O602 2.094 . S
Mn577 O582 2.121 1_565 S
Mn577 N584 2.257 . S
Mn577 N593 2.282 . S
Mn577 O601 2.215 . S
Mn577 O603 2.117 . S
C578 O600 1.234 . S
C578 O601 1.283 . S
C579 O591 1.281 . S
C579 O592 1.236 1_565 S
C580 O602 1.240 . S
C580 O603 1.264 . S
O581 Mn576 2.095 1_545 S
O581 C590 1.250 . S
O582 Mn577 2.121 1_545 S
O582 C590 1.258 . S
C583 N584 1.326 1_545 S
C583 C587 1.460 . S
C583 H589 0.929 . S
N584 Mn577 2.257 . S
N584 C583 1.326 1_565 S
N584 C588 1.362 . S
C585 C586 1.258 1_565 S
C585 C588 1.431 . S
C585 C605 1.449 . S
C586 C585 1.258 1_545 S
C586 C587 1.477 . S
C586 H606 0.931 . S
C587 C583 1.460 . S
C587 C586 1.477 . S
C587 H607 0.930 . S
C588 N584 1.362 . S
C588 C585 1.431 . S
C588 C598 1.476 . S
H589 C583 0.929 . S
C590 O581 1.250 . S
C590 O582 1.258 . S
O591 Mn576 2.162 . S
O591 C579 1.281 . S
O592 Mn576 2.297 1_545 S
O592 C579 1.236 1_545 S
N593 Mn577 2.282 . S
N593 C594 1.328 . S
N593 C598 1.318 . S
C594 N593 1.328 . S
C594 C595 1.457 . S
C594 H599 0.929 . S
C595 C594 1.457 . S
C595 C596 1.291 . S
C595 H608 0.931 . S
C596 C595 1.291 . S
C596 C597 1.373 . S
C596 H609 0.929 . S
C597 C596 1.373 . S
C597 C598 1.396 . S
C597 C604 1.403 . S
C598 C588 1.476 . S
C598 N593 1.318 . S
C598 C597 1.396 . S
H599 C594 0.929 . S
O600 Mn576 2.385 . S
O600 C578 1.234 . S
O601 Mn576 2.209 . S
O601 Mn577 2.215 . S
O601 C578 1.283 . S
O602 Mn576 2.094 . S
O602 C580 1.240 . S
O603 Mn577 2.117 . S
O603 C580 1.264 . S
C604 C597 1.403 . S
C604 C605 1.399 . S
C604 H610 0.929 . S
C605 C585 1.449 . S
C605 C604 1.399 . S
C605 H611 0.930 . S
H606 C586 0.931 . S
H607 C587 0.930 . S
H608 C595 0.931 . S
H609 C596 0.929 . S
H610 C604 0.929 . S
H611 C605 0.930 . S
Mn612 O617 2.095 . S
Mn612 O627 2.162 1_455 S
Mn612 O628 2.297 1_455 S
Mn612 O636 2.385 . S
Mn612 O637 2.209 . S
Mn612 O638 2.094 . S
Mn613 O618 2.121 . S
Mn613 N620 2.257 . S
Mn613 N629 2.282 . S
Mn613 O637 2.215 . S
Mn613 O639 2.117 . S
C614 O636 1.234 . S
C614 O637 1.283 . S
C615 O627 1.281 . S
C615 O628 1.236 . S
C616 O638 1.240 . S
C616 O639 1.264 . S
O617 Mn612 2.095 . S
O617 C626 1.250 . S
O618 Mn613 2.121 . S
O618 C626 1.258 . S
C619 N620 1.326 . S
C619 C623 1.460 . S
C619 H625 0.929 . S
N620 Mn613 2.257 . S
N620 C619 1.326 . S
N620 C624 1.362 . S
C621 C622 1.258 . S
C621 C624 1.431 . S
C621 C641 1.449 . S
C622 C621 1.258 . S
C622 C623 1.477 . S
C622 H642 0.931 . S
C623 C619 1.460 . S
C623 C622 1.477 . S
C623 H643 0.930 . S
C624 N620 1.362 . S
C624 C621 1.431 . S
C624 C634 1.476 . S
H625 C619 0.929 . S
C626 O617 1.250 . S
C626 O618 1.258 . S
O627 Mn612 2.162 1_655 S
O627 C615 1.281 . S
O628 Mn612 2.297 1_655 S
O628 C615 1.236 . S
N629 Mn613 2.282 . S
N629 C630 1.328 . S
N629 C634 1.318 . S
C630 N629 1.328 . S
C630 C631 1.457 . S
C630 H635 0.929 . S
C631 C630 1.457 . S
C631 C632 1.291 . S
C631 H644 0.931 . S
C632 C631 1.291 . S
C632 C633 1.373 . S
C632 H645 0.929 . S
C633 C632 1.373 . S
C633 C634 1.396 . S
C633 C640 1.403 . S
C634 C624 1.476 . S
C634 N629 1.318 . S
C634 C633 1.396 . S
H635 C630 0.929 . S
O636 Mn612 2.385 . S
O636 C614 1.234 . S
O637 Mn612 2.209 . S
O637 Mn613 2.215 . S
O637 C614 1.283 . S
O638 Mn612 2.094 . S
O638 C616 1.240 . S
O639 Mn613 2.117 . S
O639 C616 1.264 . S
C640 C633 1.403 . S
C640 C641 1.399 . S
C640 H646 0.929 . S
C641 C621 1.449 . S
C641 C640 1.399 . S
C641 H647 0.930 . S
H642 C622 0.931 . S
H643 C623 0.930 . S
H644 C631 0.931 . S
H645 C632 0.929 . S
H646 C640 0.929 . S
H647 C641 0.930 . S
Zn648 O654 1.920 1_455 S
Zn648 O660 1.898 1_445 S
Zn648 O663 1.905 . S
Zn649 O657 1.905 1_445 S
Zn649 O658 1.898 . S
Zn649 O666 1.920 1_455 S
Zn650 O653 2.080 . S
Zn650 O656 2.114 1_545 S
Zn650 O659 2.120 . S
Zn650 O661 2.120 1_445 S
Zn650 O662 2.114 . S
Zn650 O665 2.080 1_455 S
C651 O656 1.166 . S
C651 O657 1.182 1_455 S
C652 O658 1.167 . S
C652 O659 1.299 . S
O653 Zn650 2.080 . S
O653 C667 1.305 1_455 S
O654 Zn648 1.920 1_655 S
O654 C667 1.234 . S
C655 O660 1.167 . S
C655 O661 1.299 . S
O656 Zn650 2.114 1_565 S
O656 C651 1.166 . S
O657 Zn649 1.905 1_665 S
O657 C651 1.182 1_655 S
O658 Zn649 1.898 . S
O658 C652 1.167 . S
O659 Zn650 2.120 . S
O659 C652 1.299 . S
O660 Zn648 1.898 1_665 S
O660 C655 1.167 . S
O661 Zn650 2.120 1_665 S
O661 C655 1.299 . S
O662 Zn650 2.114 . S
O662 C664 1.166 . S
O663 Zn648 1.905 . S
O663 C664 1.182 . S
C664 O662 1.166 . S
C664 O663 1.182 . S
O665 Zn650 2.080 1_655 S
O665 C668 1.305 . S
O666 Zn649 1.920 1_655 S
O666 C668 1.234 . S
C667 O653 1.305 1_655 S
C667 O654 1.234 . S
C668 O665 1.305 . S
C668 O666 1.234 . S
Zn669 O675 1.920 1_545 S
Zn669 O681 1.898 . S
Zn669 O684 1.905 1_455 S
Zn670 O678 1.905 . S
Zn670 O679 1.898 1_445 S
Zn670 O687 1.920 1_545 S
Zn671 O674 2.080 1_545 S
Zn671 O677 2.114 . S
Zn671 O680 2.120 1_445 S
Zn671 O682 2.120 . S
Zn671 O683 2.114 1_455 S
Zn671 O686 2.080 . S
C672 O677 1.166 . S
C672 O678 1.182 . S
C673 O679 1.167 . S
C673 O680 1.299 . S
O674 Zn671 2.080 1_565 S
O674 C688 1.305 . S
O675 Zn669 1.920 1_565 S
O675 C688 1.234 . S
C676 O681 1.167 . S
C676 O682 1.299 . S
O677 Zn671 2.114 . S
O677 C672 1.166 . S
O678 Zn670 1.905 . S
O678 C672 1.182 . S
O679 Zn670 1.898 1_665 S
O679 C673 1.167 . S
O680 Zn671 2.120 1_665 S
O680 C673 1.299 . S
O681 Zn669 1.898 . S
O681 C676 1.167 . S
O682 Zn671 2.120 . S
O682 C676 1.299 . S
O683 Zn671 2.114 1_655 S
O683 C685 1.166 . S
O684 Zn669 1.905 1_655 S
O684 C685 1.182 . S
C685 O683 1.166 . S
C685 O684 1.182 . S
O686 Zn671 2.080 . S
O686 C689 1.305 . S
O687 Zn670 1.920 1_565 S
O687 C689 1.234 1_565 S
C688 O674 1.305 . S
C688 O675 1.234 . S
C689 O686 1.305 . S
C689 O687 1.234 1_545 S
Zn690 O696 1.920 1_545 S
Zn690 O702 1.898 . S
Zn690 O705 1.905 1_445 S
Zn691 O699 1.905 . S
Zn691 O700 1.898 1_445 S
Zn691 O708 1.920 1_545 S
Zn692 O695 2.080 1_545 S
Zn692 O698 2.114 . S
Zn692 O701 2.120 1_445 S
Zn692 O703 2.120 . S
Zn692 O704 2.114 1_455 S
Zn692 O707 2.080 . S
C693 O698 1.166 . S
C693 O699 1.182 . S
C694 O700 1.167 . S
C694 O701 1.299 . S
O695 Zn692 2.080 1_565 S
O695 C709 1.305 . S
O696 Zn690 1.920 1_565 S
O696 C709 1.234 . S
C697 O702 1.167 . S
C697 O703 1.299 . S
O698 Zn692 2.114 . S
O698 C693 1.166 . S
O699 Zn691 1.905 . S
O699 C693 1.182 . S
O700 Zn691 1.898 1_665 S
O700 C694 1.167 . S
O701 Zn692 2.120 1_665 S
O701 C694 1.299 . S
O702 Zn690 1.898 . S
O702 C697 1.167 . S
O703 Zn692 2.120 . S
O703 C697 1.299 . S
O704 Zn692 2.114 1_655 S
O704 C706 1.166 1_545 S
O705 Zn690 1.905 1_665 S
O705 C706 1.182 . S
C706 O704 1.166 1_565 S
C706 O705 1.182 . S
O707 Zn692 2.080 . S
O707 C710 1.305 1_545 S
O708 Zn691 1.920 1_565 S
O708 C710 1.234 . S
C709 O695 1.305 . S
C709 O696 1.234 . S
C710 O707 1.305 1_565 S
C710 O708 1.234 . S
Zn711 O717 1.920 1_455 S
Zn711 O723 1.898 1_445 S
Zn711 O726 1.905 . S
Zn712 O720 1.905 1_445 S
Zn712 O721 1.898 . S
Zn712 O729 1.920 1_455 S
Zn713 O716 2.080 . S
Zn713 O719 2.114 1_545 S
Zn713 O722 2.120 . S
Zn713 O724 2.120 1_445 S
Zn713 O725 2.114 . S
Zn713 O728 2.080 1_455 S
C714 O719 1.166 1_655 S
C714 O720 1.182 . S
C715 O721 1.167 . S
C715 O722 1.299 . S
O716 Zn713 2.080 . S
O716 C730 1.305 . S
O717 Zn711 1.920 1_655 S
O717 C730 1.234 1_655 S
C718 O723 1.167 . S
C718 O724 1.299 . S
O719 Zn713 2.114 1_565 S
O719 C714 1.166 1_455 S
O720 Zn712 1.905 1_665 S
O720 C714 1.182 . S
O721 Zn712 1.898 . S
O721 C715 1.167 . S
O722 Zn713 2.120 . S
O722 C715 1.299 . S
O723 Zn711 1.898 1_665 S
O723 C718 1.167 . S
O724 Zn713 2.120 1_665 S
O724 C718 1.299 . S
O725 Zn713 2.114 . S
O725 C727 1.166 . S
O726 Zn711 1.905 . S
O726 C727 1.182 . S
C727 O725 1.166 . S
C727 O726 1.182 . S
O728 Zn713 2.080 1_655 S
O728 C731 1.305 . S
O729 Zn712 1.920 1_655 S
O729 C731 1.234 . S
C730 O716 1.305 . S
C730 O717 1.234 1_455 S
C731 O728 1.305 . S
C731 O729 1.234 . S
Zn732 O738 1.920 . S
Zn732 O744 1.898 . S
Zn732 O747 1.905 . S
Zn733 O741 1.905 . S
Zn733 O742 1.898 . S
Zn733 O750 1.920 . S
Zn734 O737 2.080 . S
Zn734 O740 2.114 . S
Zn734 O743 2.120 . S
Zn734 O745 2.120 . S
Zn734 O746 2.114 . S
Zn734 O749 2.080 . S
C735 O740 1.166 . S
C735 O741 1.182 . S
C736 O742 1.167 . S
C736 O743 1.299 . S
O737 Zn734 2.080 . S
O737 C751 1.305 . S
O738 Zn732 1.920 . S
O738 C751 1.234 . S
C739 O744 1.167 . S
C739 O745 1.299 . S
O740 Zn734 2.114 . S
O740 C735 1.166 . S
O741 Zn733 1.905 . S
O741 C735 1.182 . S
O742 Zn733 1.898 . S
O742 C736 1.167 . S
O743 Zn734 2.120 . S
O743 C736 1.299 . S
O744 Zn732 1.898 . S
O744 C739 1.167 . S
O745 Zn734 2.120 . S
O745 C739 1.299 . S
O746 Zn734 2.114 . S
O746 C748 1.166 . S
O747 Zn732 1.905 . S
O747 C748 1.182 . S
C748 O746 1.166 . S
C748 O747 1.182 . S
O749 Zn734 2.080 . S
O749 C752 1.305 . S
O750 Zn733 1.920 . S
O750 C752 1.234 . S
C751 O737 1.305 . S
C751 O738 1.234 . S
C752 O749 1.305 . S
C752 O750 1.234 . S
Zn753 O759 1.920 . S
Zn753 O765 1.898 . S
Zn753 O768 1.905 . S
Zn754 O762 1.905 . S
Zn754 O763 1.898 . S
Zn754 O771 1.920 . S
Zn755 O758 2.080 . S
Zn755 O761 2.114 . S
Zn755 O764 2.120 . S
Zn755 O766 2.120 . S
Zn755 O767 2.114 . S
Zn755 O770 2.080 . S
C756 O761 1.166 . S
C756 O762 1.182 . S
C757 O763 1.167 . S
C757 O764 1.299 . S
O758 Zn755 2.080 . S
O758 C772 1.305 . S
O759 Zn753 1.920 . S
O759 C772 1.234 . S
C760 O765 1.167 . S
C760 O766 1.299 . S
O761 Zn755 2.114 . S
O761 C756 1.166 . S
O762 Zn754 1.905 . S
O762 C756 1.182 . S
O763 Zn754 1.898 . S
O763 C757 1.167 . S
O764 Zn755 2.120 . S
O764 C757 1.299 . S
O765 Zn753 1.898 . S
O765 C760 1.167 . S
O766 Zn755 2.120 . S
O766 C760 1.299 . S
O767 Zn755 2.114 . S
O767 C769 1.166 . S
O768 Zn753 1.905 . S
O768 C769 1.182 . S
C769 O767 1.166 . S
C769 O768 1.182 . S
O770 Zn755 2.080 . S
O770 C773 1.305 . S
O771 Zn754 1.920 . S
O771 C773 1.234 . S
C772 O758 1.305 . S
C772 O759 1.234 . S
C773 O770 1.305 . S
C773 O771 1.234 . S
Zn774 O780 1.920 . S
Zn774 O786 1.898 . S
Zn774 O789 1.905 . S
Zn775 O783 1.905 . S
Zn775 O784 1.898 . S
Zn775 O792 1.920 . S
Zn776 O779 2.080 . S
Zn776 O782 2.114 . S
Zn776 O785 2.120 . S
Zn776 O787 2.120 . S
Zn776 O788 2.114 . S
Zn776 O791 2.080 . S
C777 O782 1.166 . S
C777 O783 1.182 . S
C778 O784 1.167 . S
C778 O785 1.299 . S
O779 Zn776 2.080 . S
O779 C793 1.305 . S
O780 Zn774 1.920 . S
O780 C793 1.234 . S
C781 O786 1.167 . S
C781 O787 1.299 . S
O782 Zn776 2.114 . S
O782 C777 1.166 . S
O783 Zn775 1.905 . S
O783 C777 1.182 . S
O784 Zn775 1.898 . S
O784 C778 1.167 . S
O785 Zn776 2.120 . S
O785 C778 1.299 . S
O786 Zn774 1.898 . S
O786 C781 1.167 . S
O787 Zn776 2.120 . S
O787 C781 1.299 . S
O788 Zn776 2.114 . S
O788 C790 1.166 . S
O789 Zn774 1.905 . S
O789 C790 1.182 . S
C790 O788 1.166 . S
C790 O789 1.182 . S
O791 Zn776 2.080 . S
O791 C794 1.305 . S
O792 Zn775 1.920 . S
O792 C794 1.234 . S
C793 O779 1.305 . S
C793 O780 1.234 . S
C794 O791 1.305 . S
C794 O792 1.234 . S
Zn795 O801 1.920 . S
Zn795 O807 1.898 . S
Zn795 O810 1.905 . S
Zn796 O804 1.905 . S
Zn796 O805 1.898 . S
Zn796 O813 1.920 . S
Zn797 O800 2.074 1_556 S
Zn797 O803 2.114 . S
Zn797 O806 2.120 . S
Zn797 O808 2.115 1_556 S
Zn797 O809 2.089 1_556 S
Zn797 O812 2.080 . S
C798 O803 1.166 . S
C798 O804 1.182 . S
C799 O805 1.167 . S
C799 O806 1.299 . S
O800 Zn797 2.074 1_554 S
O800 C814 1.313 . S
O801 Zn795 1.920 . S
O801 C814 1.234 . S
C802 O807 1.167 . S
C802 O808 1.306 . S
O803 Zn797 2.114 . S
O803 C798 1.166 . S
O804 Zn796 1.905 . S
O804 C798 1.182 . S
O805 Zn796 1.898 . S
O805 C799 1.167 . S
O806 Zn797 2.120 . S
O806 C799 1.299 . S
O807 Zn795 1.898 . S
O807 C802 1.167 . S
O808 Zn797 2.115 1_554 S
O808 C802 1.306 . S
O809 Zn797 2.089 1_554 S
O809 C811 1.203 . S
O810 Zn795 1.905 . S
O810 C811 1.182 . S
C811 O809 1.203 . S
C811 O810 1.182 . S
O812 Zn797 2.080 . S
O812 C815 1.305 . S
O813 Zn796 1.920 . S
O813 C815 1.234 . S
C814 O800 1.313 . S
C814 O801 1.234 . S
C815 O812 1.305 . S
C815 O813 1.234 . S
Zn816 O822 1.920 . S
Zn816 O828 1.898 . S
Zn816 O831 1.905 . S
Zn817 O825 1.905 . S
Zn817 O826 1.898 . S
Zn817 O834 1.920 . S
Zn818 O821 2.080 . S
Zn818 O824 2.114 . S
Zn818 O827 2.120 . S
Zn818 O829 2.120 . S
Zn818 O830 2.114 . S
Zn818 O833 2.080 . S
C819 O824 1.166 . S
C819 O825 1.182 . S
C820 O826 1.167 . S
C820 O827 1.299 . S
O821 Zn818 2.080 . S
O821 C835 1.305 . S
O822 Zn816 1.920 . S
O822 C835 1.234 . S
C823 O828 1.167 . S
C823 O829 1.299 . S
O824 Zn818 2.114 . S
O824 C819 1.166 . S
O825 Zn817 1.905 . S
O825 C819 1.182 . S
O826 Zn817 1.898 . S
O826 C820 1.167 . S
O827 Zn818 2.120 . S
O827 C820 1.299 . S
O828 Zn816 1.898 . S
O828 C823 1.167 . S
O829 Zn818 2.120 . S
O829 C823 1.299 . S
O830 Zn818 2.114 . S
O830 C832 1.166 . S
O831 Zn816 1.905 . S
O831 C832 1.182 . S
C832 O830 1.166 . S
C832 O831 1.182 . S
O833 Zn818 2.080 . S
O833 C836 1.305 . S
O834 Zn817 1.920 . S
O834 C836 1.234 . S
C835 O821 1.305 . S
C835 O822 1.234 . S
C836 O833 1.305 . S
C836 O834 1.234 . S
Zn837 O843 1.920 . S
Zn837 O849 1.898 . S
Zn837 O852 1.905 . S
Zn838 O846 1.905 . S
Zn838 O847 1.898 . S
Zn838 O855 1.920 . S
Zn839 O842 2.080 . S
Zn839 O845 2.087 1_554 S
Zn839 O848 2.113 1_554 S
Zn839 O850 2.120 . S
Zn839 O851 2.114 . S
Zn839 O854 2.068 1_554 S
C840 O845 1.206 . S
C840 O846 1.182 . S
C841 O847 1.167 . S
C841 O848 1.308 . S
O842 Zn839 2.080 . S
O842 C856 1.305 . S
O843 Zn837 1.920 . S
O843 C856 1.234 . S
C844 O849 1.167 . S
C844 O850 1.299 . S
O845 Zn839 2.087 1_556 S
O845 C840 1.206 . S
O846 Zn838 1.905 . S
O846 C840 1.182 . S
O847 Zn838 1.898 . S
O847 C841 1.167 . S
O848 Zn839 2.113 1_556 S
O848 C841 1.308 . S
O849 Zn837 1.898 . S
O849 C844 1.167 . S
O850 Zn839 2.120 . S
O850 C844 1.299 . S
O851 Zn839 2.114 . S
O851 C853 1.166 . S
O852 Zn837 1.905 . S
O852 C853 1.182 . S
C853 O851 1.166 . S
C853 O852 1.182 . S
O854 Zn839 2.068 1_556 S
O854 C857 1.321 . S
O855 Zn838 1.920 . S
O855 C857 1.234 . S
C856 O842 1.305 . S
C856 O843 1.234 . S
C857 O854 1.321 . S
C857 O855 1.234 . S
Zn858 O864 1.920 . S
Zn858 O870 1.898 . S
Zn858 O873 1.905 . S
Zn859 O867 1.905 . S
Zn859 O868 1.898 . S
Zn859 O876 1.920 . S
Zn860 O863 2.080 . S
Zn860 O866 2.114 . S
Zn860 O869 2.120 . S
Zn860 O871 2.120 . S
Zn860 O872 2.114 . S
Zn860 O875 2.080 . S
C861 O866 1.166 . S
C861 O867 1.182 . S
C862 O868 1.167 . S
C862 O869 1.299 . S
O863 Zn860 2.080 . S
O863 C877 1.305 . S
O864 Zn858 1.920 . S
O864 C877 1.234 . S
C865 O870 1.167 . S
C865 O871 1.299 . S
O866 Zn860 2.114 . S
O866 C861 1.166 . S
O867 Zn859 1.905 . S
O867 C861 1.182 . S
O868 Zn859 1.898 . S
O868 C862 1.167 . S
O869 Zn860 2.120 . S
O869 C862 1.299 . S
O870 Zn858 1.898 . S
O870 C865 1.167 . S
O871 Zn860 2.120 . S
O871 C865 1.299 . S
O872 Zn860 2.114 . S
O872 C874 1.166 . S
O873 Zn858 1.905 . S
O873 C874 1.182 . S
C874 O872 1.166 . S
C874 O873 1.182 . S
O875 Zn860 2.080 . S
O875 C878 1.305 . S
O876 Zn859 1.920 . S
O876 C878 1.234 . S
C877 O863 1.305 . S
C877 O864 1.234 . S
C878 O875 1.305 . S
C878 O876 1.234 . S
Zn879 O885 1.920 . S
Zn879 O891 1.898 . S
Zn879 O894 1.905 . S
Zn880 O888 1.905 . S
Zn880 O889 1.898 . S
Zn880 O897 1.920 . S
Zn881 O884 2.080 . S
Zn881 O887 2.114 . S
Zn881 O890 2.120 . S
Zn881 O892 2.120 . S
Zn881 O893 2.114 . S
Zn881 O896 2.080 . S
C882 O887 1.166 . S
C882 O888 1.182 . S
C883 O889 1.167 . S
C883 O890 1.299 . S
O884 Zn881 2.080 . S
O884 C898 1.305 . S
O885 Zn879 1.920 . S
O885 C898 1.234 . S
C886 O891 1.167 . S
C886 O892 1.299 . S
O887 Zn881 2.114 . S
O887 C882 1.166 . S
O888 Zn880 1.905 . S
O888 C882 1.182 . S
O889 Zn880 1.898 . S
O889 C883 1.167 . S
O890 Zn881 2.120 . S
O890 C883 1.299 . S
O891 Zn879 1.898 . S
O891 C886 1.167 . S
O892 Zn881 2.120 . S
O892 C886 1.299 . S
O893 Zn881 2.114 . S
O893 C895 1.166 . S
O894 Zn879 1.905 . S
O894 C895 1.182 . S
C895 O893 1.166 . S
C895 O894 1.182 . S
O896 Zn881 2.080 . S
O896 C899 1.305 . S
O897 Zn880 1.920 . S
O897 C899 1.234 . S
C898 O884 1.305 . S
C898 O885 1.234 . S
C899 O896 1.305 . S
C899 O897 1.234 . S
C900 C901 1.363 . S
C900 C906 1.379 . S
C900 N908 1.356 . S
C901 C900 1.363 . S
C901 C907 1.363 . S
C902 C903 1.363 . S
C902 C907 1.379 . S
C902 N909 1.356 . S
C903 C902 1.363 . S
C903 C906 1.363 . S
N904 C906 1.356 . S
N904 H916 0.984 . S
N904 H917 0.985 . S
N905 C907 1.356 . S
N905 H910 0.984 . S
N905 H911 0.985 . S
C906 C900 1.379 . S
C906 C903 1.363 . S
C906 N904 1.356 . S
C907 C901 1.363 . S
C907 C902 1.379 . S
C907 N905 1.356 . S
N908 C900 1.356 . S
N908 H914 0.984 . S
N908 H915 0.984 . S
N909 C902 1.356 . S
N909 H912 0.984 . S
N909 H913 0.985 . S
H910 N905 0.984 . S
H911 N905 0.985 . S
H912 N909 0.984 . S
H913 N909 0.985 . S
H914 N908 0.984 . S
H915 N908 0.984 . S
H916 N904 0.984 . S
H917 N904 0.985 . S
C918 C919 1.363 1_565 S
C918 C924 1.379 . S
C918 N926 1.356 . S
C919 C918 1.363 1_545 S
C919 C925 1.363 . S
C920 C921 1.363 . S
C920 C925 1.379 . S
C920 N927 1.356 . S
C921 C920 1.363 . S
C921 C924 1.363 1_545 S
N922 C924 1.356 . S
N922 H934 0.984 . S
N922 H935 0.985 . S
N923 C925 1.356 . S
N923 H928 0.984 . S
N923 H929 0.985 . S
C924 C918 1.379 . S
C924 C921 1.363 1_565 S
C924 N922 1.356 . S
C925 C919 1.363 . S
C925 C920 1.379 . S
C925 N923 1.356 . S
N926 C918 1.356 . S
N926 H932 0.984 . S
N926 H933 0.984 . S
N927 C920 1.356 . S
N927 H930 0.984 . S
N927 H931 0.985 . S
H928 N923 0.984 . S
H929 N923 0.985 . S
H930 N927 0.984 . S
H931 N927 0.985 . S
H932 N926 0.984 . S
H933 N926 0.984 . S
H934 N922 0.984 . S
H935 N922 0.985 . S
C936 C937 1.363 . S
C936 C942 1.379 . S
C936 N944 1.356 . S
C937 C936 1.363 . S
C937 C943 1.363 1_455 S
C938 C939 1.363 1_655 S
C938 C943 1.379 . S
C938 N945 1.356 . S
C939 C938 1.363 1_455 S
C939 C942 1.363 . S
N940 C942 1.356 . S
N940 H952 0.984 . S
N940 H953 0.985 . S
N941 C943 1.356 . S
N941 H946 0.984 . S
N941 H947 0.985 . S
C942 C936 1.379 . S
C942 C939 1.363 . S
C942 N940 1.356 . S
C943 C937 1.363 1_655 S
C943 C938 1.379 . S
C943 N941 1.356 . S
N944 C936 1.356 . S
N944 H950 0.984 . S
N944 H951 0.984 . S
N945 C938 1.356 . S
N945 H948 0.984 . S
N945 H949 0.985 . S
H946 N941 0.984 . S
H947 N941 0.985 . S
H948 N945 0.984 . S
H949 N945 0.985 . S
H950 N944 0.984 . S
H951 N944 0.984 . S
H952 N940 0.984 . S
H953 N940 0.985 . S
C954 C955 1.363 . S
C954 C960 1.379 . S
C954 N962 1.356 . S
C955 C954 1.363 . S
C955 C961 1.363 . S
C956 C957 1.363 . S
C956 C961 1.379 . S
C956 N963 1.356 . S
C957 C956 1.363 . S
C957 C960 1.363 . S
N958 C960 1.356 . S
N958 H970 0.984 . S
N958 H971 0.985 . S
N959 C961 1.356 . S
N959 H964 0.984 . S
N959 H965 0.985 . S
C960 C954 1.379 . S
C960 C957 1.363 . S
C960 N958 1.356 . S
C961 C955 1.363 . S
C961 C956 1.379 . S
C961 N959 1.356 . S
N962 C954 1.356 . S
N962 H968 0.984 . S
N962 H969 0.984 . S
N963 C956 1.356 . S
N963 H966 0.984 . S
N963 H967 0.985 . S
H964 N959 0.984 . S
H965 N959 0.985 . S
H966 N963 0.984 . S
H967 N963 0.985 . S
H968 N962 0.984 . S
H969 N962 0.984 . S
H970 N958 0.984 . S
H971 N958 0.985 . S
C972 C973 1.363 . S
C972 C978 1.379 . S
C972 N980 1.356 . S
C973 C972 1.363 . S
C973 C979 1.363 1_545 S
C974 C975 1.363 1_565 S
C974 C979 1.379 . S
C974 N981 1.356 . S
C975 C974 1.363 1_545 S
C975 C978 1.363 . S
N976 C978 1.356 . S
N976 H988 0.984 . S
N976 H989 0.985 . S
N977 C979 1.356 . S
N977 H982 0.984 . S
N977 H983 0.985 . S
C978 C972 1.379 . S
C978 C975 1.363 . S
C978 N976 1.356 . S
C979 C973 1.363 1_565 S
C979 C974 1.379 . S
C979 N977 1.356 . S
N980 C972 1.356 . S
N980 H986 0.984 . S
N980 H987 0.984 . S
N981 C974 1.356 . S
N981 H984 0.984 . S
N981 H985 0.985 . S
H982 N977 0.984 . S
H983 N977 0.985 . S
H984 N981 0.984 . S
H985 N981 0.985 . S
H986 N980 0.984 . S
H987 N980 0.984 . S
H988 N976 0.984 . S
H989 N976 0.985 . S
C990 C991 1.363 1_655 S
C990 C996 1.379 . S
C990 N998 1.356 . S
C991 C990 1.363 1_455 S
C991 C997 1.363 . S
C992 C993 1.363 . S
C992 C997 1.379 . S
C992 N999 1.356 . S
C993 C992 1.363 . S
C993 C996 1.363 1_455 S
N994 C996 1.356 . S
N994 H1006 0.984 . S
N994 H1007 0.985 . S
N995 C997 1.356 . S
N995 H1000 0.984 . S
N995 H1001 0.985 . S
C996 C990 1.379 . S
C996 C993 1.363 1_655 S
C996 N994 1.356 . S
C997 C991 1.363 . S
C997 C992 1.379 . S
C997 N995 1.356 . S
N998 C990 1.356 . S
N998 H1004 0.984 . S
N998 H1005 0.984 . S
N999 C992 1.356 . S
N999 H1002 0.989 . S
N999 H1003 0.984 . S
H1000 N995 0.984 . S
H1001 N995 0.985 . S
H1002 N999 0.989 . S
H1003 N999 0.984 . S
H1004 N998 0.984 . S
H1005 N998 0.984 . S
H1006 N994 0.984 . S
H1007 N994 0.985 . S
C1008 C1009 1.363 . S
C1008 C1014 1.379 . S
C1008 N1016 1.356 . S
C1009 C1008 1.363 . S
C1009 C1015 1.363 . S
C1010 C1011 1.363 . S
C1010 C1015 1.379 . S
C1010 N1017 1.356 . S
C1011 C1010 1.363 . S
C1011 C1014 1.363 . S
N1012 C1014 1.356 . S
N1012 H1024 0.984 . S
N1012 H1025 0.985 . S
N1013 C1015 1.356 . S
N1013 H1018 0.984 . S
N1013 H1019 0.985 . S
C1014 C1008 1.379 . S
C1014 C1011 1.363 . S
C1014 N1012 1.356 . S
C1015 C1009 1.363 . S
C1015 C1010 1.379 . S
C1015 N1013 1.356 . S
N1016 C1008 1.356 . S
N1016 H1022 0.984 . S
N1016 H1023 0.984 . S
N1017 C1010 1.356 . S
N1017 H1020 0.984 . S
N1017 H1021 0.985 . S
H1018 N1013 0.984 . S
H1019 N1013 0.985 . S
H1020 N1017 0.984 . S
H1021 N1017 0.985 . S
H1022 N1016 0.984 . S
H1023 N1016 0.984 . S
H1024 N1012 0.984 . S
H1025 N1012 0.985 . S
C1026 C1027 1.363 1_565 S
C1026 C1032 1.379 . S
C1026 N1034 1.356 . S
C1027 C1026 1.363 1_545 S
C1027 C1033 1.363 . S
C1028 C1029 1.363 1_545 S
C1028 C1033 1.379 . S
C1028 N1035 1.356 . S
C1029 C1028 1.363 1_565 S
C1029 C1032 1.363 . S
N1030 C1032 1.356 . S
N1030 H1042 0.984 . S
N1030 H1043 0.985 . S
N1031 C1033 1.356 . S
N1031 H1036 0.984 . S
N1031 H1037 0.985 . S
C1032 C1026 1.379 . S
C1032 C1029 1.363 . S
C1032 N1030 1.356 . S
C1033 C1027 1.363 . S
C1033 C1028 1.379 . S
C1033 N1031 1.356 . S
N1034 C1026 1.356 . S
N1034 H1040 0.984 . S
N1034 H1041 0.984 . S
N1035 C1028 1.356 . S
N1035 H1038 0.984 . S
N1035 H1039 0.985 . S
H1036 N1031 0.984 . S
H1037 N1031 0.985 . S
H1038 N1035 0.984 . S
H1039 N1035 0.985 . S
H1040 N1034 0.984 . S
H1041 N1034 0.984 . S
H1042 N1030 0.984 . S
H1043 N1030 0.985 . S
C1044 C1045 1.363 1_655 S
C1044 C1050 1.379 . S
C1044 N1052 1.356 . S
C1045 C1044 1.363 1_455 S
C1045 C1051 1.363 . S
C1046 C1047 1.363 . S
C1046 C1051 1.379 . S
C1046 N1053 1.356 . S
C1047 C1046 1.363 . S
C1047 C1050 1.363 1_455 S
N1048 C1050 1.356 . S
N1048 H1060 0.984 . S
N1048 H1061 0.985 . S
N1049 C1051 1.356 . S
N1049 H1054 0.984 . S
N1049 H1055 0.985 . S
C1050 C1044 1.379 . S
C1050 C1047 1.363 1_655 S
C1050 N1048 1.356 . S
C1051 C1045 1.363 . S
C1051 C1046 1.379 . S
C1051 N1049 1.356 . S
N1052 C1044 1.356 . S
N1052 H1058 0.984 . S
N1052 H1059 0.984 . S
N1053 C1046 1.356 . S
N1053 H1056 0.984 . S
N1053 H1057 0.985 . S
H1054 N1049 0.984 . S
H1055 N1049 0.985 . S
H1056 N1053 0.984 . S
H1057 N1053 0.985 . S
H1058 N1052 0.984 . S
H1059 N1052 0.984 . S
H1060 N1048 0.984 . S
H1061 N1048 0.985 . S
C1062 C1063 1.363 . S
C1062 C1068 1.379 . S
C1062 N1070 1.356 . S
C1063 C1062 1.363 . S
C1063 C1069 1.363 . S
C1064 C1065 1.363 . S
C1064 C1069 1.379 . S
C1064 N1071 1.356 . S
C1065 C1064 1.363 . S
C1065 C1068 1.363 . S
N1066 C1068 1.356 . S
N1066 H1078 0.984 . S
N1066 H1079 0.985 . S
N1067 C1069 1.356 . S
N1067 H1072 0.984 . S
N1067 H1073 0.985 . S
C1068 C1062 1.379 . S
C1068 C1065 1.363 . S
C1068 N1066 1.356 . S
C1069 C1063 1.363 . S
C1069 C1064 1.379 . S
C1069 N1067 1.356 . S
N1070 C1062 1.356 . S
N1070 H1076 0.984 . S
N1070 H1077 0.984 . S
N1071 C1064 1.356 . S
N1071 H1074 0.984 . S
N1071 H1075 0.985 . S
H1072 N1067 0.984 . S
H1073 N1067 0.985 . S
H1074 N1071 0.984 . S
H1075 N1071 0.985 . S
H1076 N1070 0.984 . S
H1077 N1070 0.984 . S
H1078 N1066 0.984 . S
H1079 N1066 0.985 . S
C1080 C1081 1.363 1_565 S
C1080 C1086 1.384 . S
C1080 N1088 1.356 . S
C1081 C1080 1.363 1_545 S
C1081 C1087 1.363 . S
C1082 C1083 1.363 . S
C1082 C1087 1.379 . S
C1082 N1089 1.356 . S
C1083 C1082 1.363 . S
C1083 C1086 1.354 1_545 S
N1084 C1086 1.358 . S
N1084 H1096 0.984 . S
N1084 H1097 0.984 . S
N1085 C1087 1.356 . S
N1085 H1090 0.984 . S
N1085 H1091 0.985 . S
C1086 C1080 1.384 . S
C1086 C1083 1.354 1_565 S
C1086 N1084 1.358 . S
C1087 C1081 1.363 . S
C1087 C1082 1.379 . S
C1087 N1085 1.356 . S
N1088 C1080 1.356 . S
N1088 H1094 0.984 . S
N1088 H1095 0.984 . S
N1089 C1082 1.356 . S
N1089 H1092 0.984 . S
N1089 H1093 0.985 . S
H1090 N1085 0.984 . S
H1091 N1085 0.985 . S
H1092 N1089 0.984 . S
H1093 N1089 0.985 . S
H1094 N1088 0.984 . S
H1095 N1088 0.984 . S
H1096 N1084 0.984 . S
H1097 N1084 0.984 . S
C1098 C1099 1.363 1_655 S
C1098 C1104 1.379 . S
C1098 N1106 1.356 . S
C1099 C1098 1.363 1_455 S
C1099 C1105 1.363 . S
C1100 C1101 1.363 . S
C1100 C1105 1.379 . S
C1100 N1107 1.356 . S
C1101 C1100 1.363 . S
C1101 C1104 1.363 1_455 S
N1102 C1104 1.356 . S
N1102 H1114 0.984 . S
N1102 H1115 0.985 . S
N1103 C1105 1.356 . S
N1103 H1108 0.984 . S
N1103 H1109 0.985 . S
C1104 C1098 1.379 . S
C1104 C1101 1.363 1_655 S
C1104 N1102 1.356 . S
C1105 C1099 1.363 . S
C1105 C1100 1.379 . S
C1105 N1103 1.356 . S
N1106 C1098 1.356 . S
N1106 H1112 0.984 . S
N1106 H1113 0.984 . S
N1107 C1100 1.356 . S
N1107 H1110 0.984 . S
N1107 H1111 0.985 . S
H1108 N1103 0.984 . S
H1109 N1103 0.985 . S
H1110 N1107 0.984 . S
H1111 N1107 0.985 . S
H1112 N1106 0.984 . S
H1113 N1106 0.984 . S
H1114 N1102 0.984 . S
H1115 N1102 0.985 . S
C1116 C1117 1.363 . S
C1116 C1122 1.379 . S
C1116 N1124 1.356 . S
C1117 C1116 1.363 . S
C1117 C1123 1.363 . S
C1118 C1119 1.363 . S
C1118 C1123 1.379 . S
C1118 N1125 1.356 . S
C1119 C1118 1.363 . S
C1119 C1122 1.363 . S
N1120 C1122 1.356 . S
N1120 H1132 0.984 . S
N1120 H1133 0.985 . S
N1121 C1123 1.356 . S
N1121 H1126 0.984 . S
N1121 H1127 0.985 . S
C1122 C1116 1.379 . S
C1122 C1119 1.363 . S
C1122 N1120 1.356 . S
C1123 C1117 1.363 . S
C1123 C1118 1.379 . S
C1123 N1121 1.356 . S
N1124 C1116 1.356 . S
N1124 H1130 0.984 . S
N1124 H1131 0.984 . S
N1125 C1118 1.356 . S
N1125 H1128 0.984 . S
N1125 H1129 0.985 . S
H1126 N1121 0.984 . S
H1127 N1121 0.985 . S
H1128 N1125 0.984 . S
H1129 N1125 0.985 . S
H1130 N1124 0.984 . S
H1131 N1124 0.984 . S
H1132 N1120 0.984 . S
H1133 N1120 0.985 . S
C1134 C1135 1.363 . S
C1134 C1140 1.379 . S
C1134 N1142 1.356 . S
C1135 C1134 1.363 . S
C1135 C1141 1.363 . S
C1136 C1137 1.363 . S
C1136 C1141 1.379 . S
C1136 N1143 1.356 . S
C1137 C1136 1.363 . S
C1137 C1140 1.363 . S
N1138 C1140 1.356 . S
N1138 H1150 0.984 . S
N1138 H1151 0.985 . S
N1139 C1141 1.356 . S
N1139 H1144 0.984 . S
N1139 H1145 0.985 . S
C1140 C1134 1.379 . S
C1140 C1137 1.363 . S
C1140 N1138 1.356 . S
C1141 C1135 1.363 . S
C1141 C1136 1.379 . S
C1141 N1139 1.356 . S
N1142 C1134 1.356 . S
N1142 H1148 0.984 . S
N1142 H1149 0.984 . S
N1143 C1136 1.356 . S
N1143 H1146 0.984 . S
N1143 H1147 0.985 . S
H1144 N1139 0.984 . S
H1145 N1139 0.985 . S
H1146 N1143 0.984 . S
H1147 N1143 0.985 . S
H1148 N1142 0.984 . S
H1149 N1142 0.984 . S
H1150 N1138 0.984 . S
H1151 N1138 0.985 . S
C1152 C1153 1.363 . S
C1152 C1158 1.379 . S
C1152 N1160 1.356 . S
C1153 C1152 1.363 . S
C1153 C1159 1.363 . S
C1154 C1155 1.363 . S
C1154 C1159 1.379 . S
C1154 N1161 1.356 . S
C1155 C1154 1.363 . S
C1155 C1158 1.363 . S
N1156 C1158 1.356 . S
N1156 H1168 0.984 . S
N1156 H1169 0.985 . S
N1157 C1159 1.356 . S
N1157 H1162 0.984 . S
N1157 H1163 0.985 . S
C1158 C1152 1.379 . S
C1158 C1155 1.363 . S
C1158 N1156 1.356 . S
C1159 C1153 1.363 . S
C1159 C1154 1.379 . S
C1159 N1157 1.356 . S
N1160 C1152 1.356 . S
N1160 H1166 0.984 . S
N1160 H1167 0.984 . S
N1161 C1154 1.356 . S
N1161 H1164 0.984 . S
N1161 H1165 0.985 . S
H1162 N1157 0.984 . S
H1163 N1157 0.985 . S
H1164 N1161 0.984 . S
H1165 N1161 0.985 . S
H1166 N1160 0.984 . S
H1167 N1160 0.984 . S
H1168 N1156 0.984 . S
H1169 N1156 0.985 . S
C1170 C1171 1.363 . S
C1170 C1176 1.379 . S
C1170 N1178 1.356 . S
C1171 C1170 1.363 . S
C1171 C1177 1.363 . S
C1172 C1173 1.363 . S
C1172 C1177 1.379 . S
C1172 N1179 1.356 . S
C1173 C1172 1.363 . S
C1173 C1176 1.363 . S
N1174 C1176 1.356 . S
N1174 H1186 0.984 . S
N1174 H1187 0.985 . S
N1175 C1177 1.356 . S
N1175 H1180 0.984 . S
N1175 H1181 0.985 . S
C1176 C1170 1.379 . S
C1176 C1173 1.363 . S
C1176 N1174 1.356 . S
C1177 C1171 1.363 . S
C1177 C1172 1.379 . S
C1177 N1175 1.356 . S
N1178 C1170 1.356 . S
N1178 H1184 0.984 . S
N1178 H1185 0.984 . S
N1179 C1172 1.356 . S
N1179 H1182 0.984 . S
N1179 H1183 0.985 . S
H1180 N1175 0.984 . S
H1181 N1175 0.985 . S
H1182 N1179 0.984 . S
H1183 N1179 0.985 . S
H1184 N1178 0.984 . S
H1185 N1178 0.984 . S
H1186 N1174 0.984 . S
H1187 N1174 0.985 . S
C1188 C1189 1.363 . S
C1188 C1194 1.379 . S
C1188 N1196 1.356 . S
C1189 C1188 1.363 . S
C1189 C1195 1.363 . S
C1190 C1191 1.363 . S
C1190 C1195 1.379 . S
C1190 N1197 1.356 . S
C1191 C1190 1.363 . S
C1191 C1194 1.363 . S
N1192 C1194 1.356 . S
N1192 H1204 0.984 . S
N1192 H1205 0.985 . S
N1193 C1195 1.356 . S
N1193 H1198 0.984 . S
N1193 H1199 0.985 . S
C1194 C1188 1.379 . S
C1194 C1191 1.363 . S
C1194 N1192 1.356 . S
C1195 C1189 1.363 . S
C1195 C1190 1.379 . S
C1195 N1193 1.356 . S
N1196 C1188 1.356 . S
N1196 H1202 0.984 . S
N1196 H1203 0.984 . S
N1197 C1190 1.356 . S
N1197 H1200 0.984 . S
N1197 H1201 0.985 . S
H1198 N1193 0.984 . S
H1199 N1193 0.985 . S
H1200 N1197 0.984 . S
H1201 N1197 0.985 . S
H1202 N1196 0.984 . S
H1203 N1196 0.984 . S
H1204 N1192 0.984 . S
H1205 N1192 0.985 . S
C1206 C1207 1.363 . S
C1206 C1212 1.379 . S
C1206 N1214 1.356 . S
C1207 C1206 1.363 . S
C1207 C1213 1.363 . S
C1208 C1209 1.363 . S
C1208 C1213 1.379 . S
C1208 N1215 1.356 . S
C1209 C1208 1.363 . S
C1209 C1212 1.363 . S
N1210 C1212 1.356 . S
N1210 H1222 0.984 . S
N1210 H1223 0.985 . S
N1211 C1213 1.356 . S
N1211 H1216 0.984 . S
N1211 H1217 0.985 . S
C1212 C1206 1.379 . S
C1212 C1209 1.363 . S
C1212 N1210 1.356 . S
C1213 C1207 1.363 . S
C1213 C1208 1.379 . S
C1213 N1211 1.356 . S
N1214 C1206 1.356 . S
N1214 H1220 0.984 . S
N1214 H1221 0.984 . S
N1215 C1208 1.356 . S
N1215 H1218 0.984 . S
N1215 H1219 0.985 . S
H1216 N1211 0.984 . S
H1217 N1211 0.985 . S
H1218 N1215 0.984 . S
H1219 N1215 0.985 . S
H1220 N1214 0.984 . S
H1221 N1214 0.984 . S
H1222 N1210 0.984 . S
H1223 N1210 0.985 . S
C1224 C1225 1.363 . S
C1224 C1230 1.379 . S
C1224 N1232 1.356 . S
C1225 C1224 1.363 . S
C1225 C1231 1.363 . S
C1226 C1227 1.363 . S
C1226 C1231 1.379 . S
C1226 N1233 1.356 . S
C1227 C1226 1.363 . S
C1227 C1230 1.363 . S
N1228 C1230 1.356 . S
N1228 H1240 0.984 . S
N1228 H1241 0.985 . S
N1229 C1231 1.356 . S
N1229 H1234 0.984 . S
N1229 H1235 0.985 . S
C1230 C1224 1.379 . S
C1230 C1227 1.363 . S
C1230 N1228 1.356 . S
C1231 C1225 1.363 . S
C1231 C1226 1.379 . S
C1231 N1229 1.356 . S
N1232 C1224 1.356 . S
N1232 H1238 0.984 . S
N1232 H1239 0.984 . S
N1233 C1226 1.356 . S
N1233 H1236 0.984 . S
N1233 H1237 0.985 . S
H1234 N1229 0.984 . S
H1235 N1229 0.985 . S
H1236 N1233 0.984 . S
H1237 N1233 0.985 . S
H1238 N1232 0.984 . S
H1239 N1232 0.984 . S
H1240 N1228 0.984 . S
H1241 N1228 0.985 . S
C1242 C1243 1.363 . S
C1242 C1248 1.379 . S
C1242 N1250 1.356 . S
C1243 C1242 1.363 . S
C1243 C1249 1.363 . S
C1244 C1245 1.363 . S
C1244 C1249 1.379 . S
C1244 N1251 1.356 . S
C1245 C1244 1.363 . S
C1245 C1248 1.363 . S
N1246 C1248 1.356 . S
N1246 H1258 0.984 . S
N1246 H1259 0.985 . S
N1247 C1249 1.356 . S
N1247 H1252 0.984 . S
N1247 H1253 0.985 . S
C1248 C1242 1.379 . S
C1248 C1245 1.363 . S
C1248 N1246 1.356 . S
C1249 C1243 1.363 . S
C1249 C1244 1.379 . S
C1249 N1247 1.356 . S
N1250 C1242 1.356 . S
N1250 H1256 0.984 . S
N1250 H1257 0.984 . S
N1251 C1244 1.356 . S
N1251 H1254 0.984 . S
N1251 H1255 0.985 . S
H1252 N1247 0.984 . S
H1253 N1247 0.985 . S
H1254 N1251 0.984 . S
H1255 N1251 0.985 . S
H1256 N1250 0.984 . S
H1257 N1250 0.984 . S
H1258 N1246 0.984 . S
H1259 N1246 0.985 . S
C1260 C1261 1.363 . S
C1260 C1266 1.379 . S
C1260 N1268 1.356 . S
C1261 C1260 1.363 . S
C1261 C1267 1.363 . S
C1262 C1263 1.363 . S
C1262 C1267 1.379 . S
C1262 N1269 1.356 . S
C1263 C1262 1.363 . S
C1263 C1266 1.363 . S
N1264 C1266 1.356 . S
N1264 H1276 0.984 . S
N1264 H1277 0.985 . S
N1265 C1267 1.356 . S
N1265 H1270 0.984 . S
N1265 H1271 0.985 . S
C1266 C1260 1.379 . S
C1266 C1263 1.363 . S
C1266 N1264 1.356 . S
C1267 C1261 1.363 . S
C1267 C1262 1.379 . S
C1267 N1265 1.356 . S
N1268 C1260 1.356 . S
N1268 H1274 0.984 . S
N1268 H1275 0.984 . S
N1269 C1262 1.356 . S
N1269 H1272 0.984 . S
N1269 H1273 0.985 . S
H1270 N1265 0.984 . S
H1271 N1265 0.985 . S
H1272 N1269 0.984 . S
H1273 N1269 0.985 . S
H1274 N1268 0.984 . S
H1275 N1268 0.984 . S
H1276 N1264 0.984 . S
H1277 N1264 0.985 . S
C1278 C1279 1.363 . S
C1278 C1284 1.379 . S
C1278 N1286 1.356 . S
C1279 C1278 1.363 . S
C1279 C1285 1.363 . S
C1280 C1281 1.363 . S
C1280 C1285 1.379 . S
C1280 N1287 1.356 . S
C1281 C1280 1.363 . S
C1281 C1284 1.363 . S
N1282 C1284 1.356 1_556 S
N1282 H1294 0.984 . S
N1282 H1295 0.985 . S
N1283 C1285 1.356 . S
N1283 H1288 0.984 . S
N1283 H1289 0.985 . S
C1284 C1278 1.379 . S
C1284 C1281 1.363 . S
C1284 N1282 1.356 1_554 S
C1285 C1279 1.363 . S
C1285 C1280 1.379 . S
C1285 N1283 1.356 . S
N1286 C1278 1.356 . S
N1286 H1292 0.984 . S
N1286 H1293 0.984 . S
N1287 C1280 1.356 . S
N1287 H1290 0.984 . S
N1287 H1291 0.985 . S
H1288 N1283 0.984 . S
H1289 N1283 0.985 . S
H1290 N1287 0.984 . S
H1291 N1287 0.985 . S
H1292 N1286 0.984 . S
H1293 N1286 0.984 . S
H1294 N1282 0.984 . S
H1295 N1282 0.985 . S
C1296 C1297 1.363 . S
C1296 C1302 1.379 . S
C1296 N1304 1.356 . S
C1297 C1296 1.363 . S
C1297 C1303 1.363 . S
C1298 C1299 1.363 . S
C1298 C1303 1.379 . S
C1298 N1305 1.356 . S
C1299 C1298 1.363 . S
C1299 C1302 1.363 . S
N1300 C1302 1.356 1_556 S
N1300 H1312 0.984 . S
N1300 H1313 0.985 . S
N1301 C1303 1.356 . S
N1301 H1306 0.984 . S
N1301 H1307 0.985 . S
C1302 C1296 1.379 . S
C1302 C1299 1.363 . S
C1302 N1300 1.356 1_554 S
C1303 C1297 1.363 . S
C1303 C1298 1.379 . S
C1303 N1301 1.356 . S
N1304 C1296 1.356 . S
N1304 H1310 0.984 . S
N1304 H1311 0.984 . S
N1305 C1298 1.356 . S
N1305 H1308 0.984 . S
N1305 H1309 0.985 . S
H1306 N1301 0.984 . S
H1307 N1301 0.985 . S
H1308 N1305 0.984 . S
H1309 N1305 0.985 . S
H1310 N1304 0.984 . S
H1311 N1304 0.984 . S
H1312 N1300 0.984 . S
H1313 N1300 0.985 . S
C1314 C1315 1.363 . S
C1314 C1320 1.379 . S
C1314 N1322 1.356 . S
C1315 C1314 1.363 . S
C1315 C1321 1.363 . S
C1316 C1317 1.363 . S
C1316 C1321 1.379 . S
C1316 N1323 1.356 . S
C1317 C1316 1.363 . S
C1317 C1320 1.363 . S
N1318 C1320 1.356 . S
N1318 H1330 0.984 . S
N1318 H1331 0.985 . S
N1319 C1321 1.356 . S
N1319 H1324 0.984 . S
N1319 H1325 0.985 . S
C1320 C1314 1.379 . S
C1320 C1317 1.363 . S
C1320 N1318 1.356 . S
C1321 C1315 1.363 . S
C1321 C1316 1.379 . S
C1321 N1319 1.356 . S
N1322 C1314 1.356 . S
N1322 H1328 0.984 . S
N1322 H1329 0.984 . S
N1323 C1316 1.356 . S
N1323 H1326 0.984 1_554 S
N1323 H1327 0.985 1_554 S
H1324 N1319 0.984 . S
H1325 N1319 0.985 . S
H1326 N1323 0.984 1_556 S
H1327 N1323 0.985 1_556 S
H1328 N1322 0.984 . S
H1329 N1322 0.984 . S
H1330 N1318 0.984 . S
H1331 N1318 0.985 . S
C1332 C1333 1.363 . S
C1332 C1338 1.379 . S
C1332 N1340 1.356 . S
C1333 C1332 1.363 . S
C1333 C1339 1.363 . S
C1334 C1335 1.363 . S
C1334 C1339 1.379 . S
C1334 N1341 1.356 . S
C1335 C1334 1.363 . S
C1335 C1338 1.363 . S
N1336 C1338 1.356 . S
N1336 H1348 0.984 . S
N1336 H1349 0.985 . S
N1337 C1339 1.356 . S
N1337 H1342 0.984 . S
N1337 H1343 0.985 . S
C1338 C1332 1.379 . S
C1338 C1335 1.363 . S
C1338 N1336 1.356 . S
C1339 C1333 1.363 . S
C1339 C1334 1.379 . S
C1339 N1337 1.356 . S
N1340 C1332 1.356 . S
N1340 H1346 0.984 . S
N1340 H1347 0.984 . S
N1341 C1334 1.356 . S
N1341 H1344 0.984 . S
N1341 H1345 0.985 . S
H1342 N1337 0.984 . S
H1343 N1337 0.985 . S
H1344 N1341 0.984 . S
H1345 N1341 0.985 . S
H1346 N1340 0.984 . S
H1347 N1340 0.984 . S
H1348 N1336 0.984 . S
H1349 N1336 0.985 . S
C1350 C1351 1.363 . S
C1350 C1356 1.379 . S
C1350 N1358 1.356 . S
C1351 C1350 1.363 . S
C1351 C1357 1.363 . S
C1352 C1353 1.363 . S
C1352 C1357 1.379 . S
C1352 N1359 1.356 . S
C1353 C1352 1.363 . S
C1353 C1356 1.363 . S
N1354 C1356 1.356 . S
N1354 H1366 0.984 . S
N1354 H1367 0.985 . S
N1355 C1357 1.356 . S
N1355 H1360 0.984 . S
N1355 H1361 0.985 . S
C1356 C1350 1.379 . S
C1356 C1353 1.363 . S
C1356 N1354 1.356 . S
C1357 C1351 1.363 . S
C1357 C1352 1.379 . S
C1357 N1355 1.356 . S
N1358 C1350 1.356 . S
N1358 H1364 0.984 . S
N1358 H1365 0.984 . S
N1359 C1352 1.356 . S
N1359 H1362 0.984 . S
N1359 H1363 0.985 . S
H1360 N1355 0.984 . S
H1361 N1355 0.985 . S
H1362 N1359 0.984 . S
H1363 N1359 0.985 . S
H1364 N1358 0.984 . S
H1365 N1358 0.984 . S
H1366 N1354 0.984 . S
H1367 N1354 0.985 . S
C1368 C1369 1.363 . S
C1368 C1374 1.379 . S
C1368 N1376 1.356 . S
C1369 C1368 1.363 . S
C1369 C1375 1.363 . S
C1370 C1371 1.363 . S
C1370 C1375 1.379 . S
C1370 N1377 1.356 . S
C1371 C1370 1.363 . S
C1371 C1374 1.363 . S
N1372 C1374 1.356 . S
N1372 H1384 0.984 . S
N1372 H1385 0.985 . S
N1373 C1375 1.356 . S
N1373 H1378 0.984 . S
N1373 H1379 0.985 . S
C1374 C1368 1.379 . S
C1374 C1371 1.363 . S
C1374 N1372 1.356 . S
C1375 C1369 1.363 . S
C1375 C1370 1.379 . S
C1375 N1373 1.356 . S
N1376 C1368 1.356 . S
N1376 H1382 0.984 . S
N1376 H1383 0.984 . S
N1377 C1370 1.356 . S
N1377 H1380 0.984 . S
N1377 H1381 0.985 . S
H1378 N1373 0.984 . S
H1379 N1373 0.985 . S
H1380 N1377 0.984 . S
H1381 N1377 0.985 . S
H1382 N1376 0.984 . S
H1383 N1376 0.984 . S
H1384 N1372 0.984 . S
H1385 N1372 0.985 . S
C1386 C1387 1.363 . S
C1386 C1392 1.379 . S
C1386 N1394 1.356 . S
C1387 C1386 1.363 . S
C1387 C1393 1.363 . S
C1388 C1389 1.363 . S
C1388 C1393 1.379 . S
C1388 N1395 1.356 . S
C1389 C1388 1.363 . S
C1389 C1392 1.363 . S
N1390 C1392 1.356 1_554 S
N1390 H1402 0.984 . S
N1390 H1403 0.985 . S
N1391 C1393 1.356 . S
N1391 H1396 0.984 . S
N1391 H1397 0.985 . S
C1392 C1386 1.379 . S
C1392 C1389 1.363 . S
C1392 N1390 1.356 1_556 S
C1393 C1387 1.363 . S
C1393 C1388 1.379 . S
C1393 N1391 1.356 . S
N1394 C1386 1.356 . S
N1394 H1400 0.984 . S
N1394 H1401 0.984 . S
N1395 C1388 1.356 . S
N1395 H1398 0.984 . S
N1395 H1399 0.985 . S
H1396 N1391 0.984 . S
H1397 N1391 0.985 . S
H1398 N1395 0.984 . S
H1399 N1395 0.985 . S
H1400 N1394 0.984 . S
H1401 N1394 0.984 . S
H1402 N1390 0.984 . S
H1403 N1390 0.985 . S
C1404 C1405 1.363 . S
C1404 C1410 1.379 . S
C1404 N1412 1.356 . S
C1405 C1404 1.363 . S
C1405 C1411 1.363 . S
C1406 C1407 1.363 . S
C1406 C1411 1.379 . S
C1406 N1413 1.356 . S
C1407 C1406 1.363 . S
C1407 C1410 1.363 . S
N1408 C1410 1.356 1_554 S
N1408 H1420 0.984 . S
N1408 H1421 0.985 . S
N1409 C1411 1.356 . S
N1409 H1414 0.984 . S
N1409 H1415 0.985 . S
C1410 C1404 1.379 . S
C1410 C1407 1.363 . S
C1410 N1408 1.356 1_556 S
C1411 C1405 1.363 . S
C1411 C1406 1.379 . S
C1411 N1409 1.356 . S
N1412 C1404 1.356 . S
N1412 H1418 0.984 . S
N1412 H1419 0.984 . S
N1413 C1406 1.356 . S
N1413 H1416 0.984 . S
N1413 H1417 0.985 . S
H1414 N1409 0.984 . S
H1415 N1409 0.985 . S
H1416 N1413 0.984 . S
H1417 N1413 0.985 . S
H1418 N1412 0.984 . S
H1419 N1412 0.984 . S
H1420 N1408 0.984 . S
H1421 N1408 0.985 . S
C1422 C1423 1.363 . S
C1422 C1428 1.379 . S
C1422 N1430 1.356 . S
C1423 C1422 1.363 . S
C1423 C1429 1.363 . S
C1424 C1425 1.363 . S
C1424 C1429 1.379 . S
C1424 N1431 1.356 . S
C1425 C1424 1.363 . S
C1425 C1428 1.363 . S
N1426 C1428 1.336 1_554 S
N1426 H1438 0.993 . S
N1426 H1439 0.997 . S
N1427 C1429 1.356 . S
N1427 H1432 0.984 . S
N1427 H1433 0.985 . S
C1428 C1422 1.379 . S
C1428 C1425 1.363 . S
C1428 N1426 1.336 1_556 S
C1429 C1423 1.363 . S
C1429 C1424 1.379 . S
C1429 N1427 1.356 . S
N1430 C1422 1.356 . S
N1430 H1436 0.984 . S
N1430 H1437 0.984 . S
N1431 C1424 1.356 . S
N1431 H1434 0.984 . S
N1431 H1435 0.985 . S
H1432 N1427 0.984 . S
H1433 N1427 0.985 . S
H1434 N1431 0.984 . S
H1435 N1431 0.985 . S
H1436 N1430 0.984 . S
H1437 N1430 0.984 . S
H1438 N1426 0.993 . S
H1439 N1426 0.997 . S
C1440 C1441 1.363 . S
C1440 C1446 1.379 . S
C1440 N1448 1.356 . S
C1441 C1440 1.363 . S
C1441 C1447 1.363 . S
C1442 C1443 1.363 . S
C1442 C1447 1.379 . S
C1442 N1449 1.356 . S
C1443 C1442 1.363 . S
C1443 C1446 1.363 . S
N1444 C1446 1.356 . S
N1444 H1456 0.984 . S
N1444 H1457 0.985 . S
N1445 C1447 1.356 . S
N1445 H1450 0.984 . S
N1445 H1451 0.985 . S
C1446 C1440 1.379 . S
C1446 C1443 1.363 . S
C1446 N1444 1.356 . S
C1447 C1441 1.363 . S
C1447 C1442 1.379 . S
C1447 N1445 1.356 . S
N1448 C1440 1.356 . S
N1448 H1454 0.984 . S
N1448 H1455 0.984 . S
N1449 C1442 1.356 . S
N1449 H1452 0.984 . S
N1449 H1453 0.985 . S
H1450 N1445 0.984 . S
H1451 N1445 0.985 . S
H1452 N1449 0.984 . S
H1453 N1449 0.985 . S
H1454 N1448 0.984 . S
H1455 N1448 0.984 . S
H1456 N1444 0.984 . S
H1457 N1444 0.985 . S
C1458 C1459 1.363 . S
C1458 C1464 1.379 . S
C1458 N1466 1.356 . S
C1459 C1458 1.363 . S
C1459 C1465 1.363 . S
C1460 C1461 1.363 . S
C1460 C1465 1.379 . S
C1460 N1467 1.356 . S
C1461 C1460 1.363 . S
C1461 C1464 1.363 . S
N1462 C1464 1.356 . S
N1462 H1474 0.984 . S
N1462 H1475 0.985 . S
N1463 C1465 1.356 . S
N1463 H1468 0.984 . S
N1463 H1469 0.985 . S
C1464 C1458 1.379 . S
C1464 C1461 1.363 . S
C1464 N1462 1.356 . S
C1465 C1459 1.363 . S
C1465 C1460 1.379 . S
C1465 N1463 1.356 . S
N1466 C1458 1.356 . S
N1466 H1472 0.984 . S
N1466 H1473 0.984 . S
N1467 C1460 1.356 . S
N1467 H1470 0.984 . S
N1467 H1471 0.985 . S
H1468 N1463 0.984 . S
H1469 N1463 0.985 . S
H1470 N1467 0.984 . S
H1471 N1467 0.985 . S
H1472 N1466 0.984 . S
H1473 N1466 0.984 . S
H1474 N1462 0.984 . S
H1475 N1462 0.985 . S
C1476 C1477 1.363 . S
C1476 C1482 1.379 . S
C1476 N1484 1.356 . S
C1477 C1476 1.363 . S
C1477 C1483 1.363 . S
C1478 C1479 1.363 . S
C1478 C1483 1.379 . S
C1478 N1485 1.356 . S
C1479 C1478 1.363 . S
C1479 C1482 1.363 . S
N1480 C1482 1.356 . S
N1480 H1492 0.984 . S
N1480 H1493 0.985 . S
N1481 C1483 1.356 . S
N1481 H1486 0.984 . S
N1481 H1487 0.985 . S
C1482 C1476 1.379 . S
C1482 C1479 1.363 . S
C1482 N1480 1.356 . S
C1483 C1477 1.363 . S
C1483 C1478 1.379 . S
C1483 N1481 1.356 . S
N1484 C1476 1.356 . S
N1484 H1490 0.984 . S
N1484 H1491 0.984 . S
N1485 C1478 1.356 . S
N1485 H1488 0.984 . S
N1485 H1489 0.985 . S
H1486 N1481 0.984 . S
H1487 N1481 0.985 . S
H1488 N1485 0.984 . S
H1489 N1485 0.985 . S
H1490 N1484 0.984 . S
H1491 N1484 0.984 . S
H1492 N1480 0.984 . S
H1493 N1480 0.985 . S
C1494 C1495 1.363 . S
C1494 C1500 1.379 . S
C1494 N1502 1.356 . S
C1495 C1494 1.363 . S
C1495 C1501 1.363 . S
C1496 C1497 1.363 . S
C1496 C1501 1.379 . S
C1496 N1503 1.356 . S
C1497 C1496 1.363 . S
C1497 C1500 1.363 . S
N1498 C1500 1.356 . S
N1498 H1510 0.984 . S
N1498 H1511 0.985 . S
N1499 C1501 1.356 . S
N1499 H1504 0.984 . S
N1499 H1505 0.985 . S
C1500 C1494 1.379 . S
C1500 C1497 1.363 . S
C1500 N1498 1.356 . S
C1501 C1495 1.363 . S
C1501 C1496 1.379 . S
C1501 N1499 1.356 . S
N1502 C1494 1.356 . S
N1502 H1508 0.984 . S
N1502 H1509 0.984 . S
N1503 C1496 1.356 . S
N1503 H1506 0.984 . S
N1503 H1507 0.985 . S
H1504 N1499 0.984 . S
H1505 N1499 0.985 . S
H1506 N1503 0.984 . S
H1507 N1503 0.985 . S
H1508 N1502 0.984 . S
H1509 N1502 0.984 . S
H1510 N1498 0.984 . S
H1511 N1498 0.985 . S
C1512 C1513 1.363 . S
C1512 C1518 1.379 . S
C1512 N1520 1.356 . S
C1513 C1512 1.363 . S
C1513 C1519 1.363 . S
C1514 C1515 1.363 . S
C1514 C1519 1.379 . S
C1514 N1521 1.356 . S
C1515 C1514 1.363 . S
C1515 C1518 1.363 . S
N1516 C1518 1.356 . S
N1516 H1528 0.984 . S
N1516 H1529 0.985 . S
N1517 C1519 1.356 . S
N1517 H1522 0.984 . S
N1517 H1523 0.985 . S
C1518 C1512 1.379 . S
C1518 C1515 1.363 . S
C1518 N1516 1.356 . S
C1519 C1513 1.363 . S
C1519 C1514 1.379 . S
C1519 N1517 1.356 . S
N1520 C1512 1.356 . S
N1520 H1526 0.984 . S
N1520 H1527 0.984 . S
N1521 C1514 1.356 . S
N1521 H1524 0.984 . S
N1521 H1525 0.985 . S
H1522 N1517 0.984 . S
H1523 N1517 0.985 . S
H1524 N1521 0.984 . S
H1525 N1521 0.985 . S
H1526 N1520 0.984 . S
H1527 N1520 0.984 . S
H1528 N1516 0.984 . S
H1529 N1516 0.985 . S
C1530 C1531 1.363 . S
C1530 C1536 1.379 . S
C1530 N1538 1.356 . S
C1531 C1530 1.363 . S
C1531 C1537 1.363 . S
C1532 C1533 1.363 . S
C1532 C1537 1.379 . S
C1532 N1539 1.356 . S
C1533 C1532 1.363 . S
C1533 C1536 1.363 . S
N1534 C1536 1.356 . S
N1534 H1546 0.984 . S
N1534 H1547 0.985 . S
N1535 C1537 1.356 . S
N1535 H1540 0.984 . S
N1535 H1541 0.985 . S
C1536 C1530 1.379 . S
C1536 C1533 1.363 . S
C1536 N1534 1.356 . S
C1537 C1531 1.363 . S
C1537 C1532 1.379 . S
C1537 N1535 1.356 . S
N1538 C1530 1.356 . S
N1538 H1544 0.984 . S
N1538 H1545 0.984 . S
N1539 C1532 1.356 . S
N1539 H1542 0.984 . S
N1539 H1543 0.985 . S
H1540 N1535 0.984 . S
H1541 N1535 0.985 . S
H1542 N1539 0.984 . S
H1543 N1539 0.985 . S
H1544 N1538 0.984 . S
H1545 N1538 0.984 . S
H1546 N1534 0.984 . S
H1547 N1534 0.985 . S
C1548 C1549 1.363 1_565 S
C1548 C1554 1.373 1_565 S
C1548 N1556 1.356 . S
C1549 C1548 1.363 1_545 S
C1549 C1555 1.363 . S
C1550 C1551 1.363 . S
C1550 C1555 1.379 . S
C1550 N1557 1.356 . S
C1551 C1550 1.363 . S
C1551 C1554 1.374 . S
N1552 C1554 1.355 1_565 S
N1552 H1564 0.984 . S
N1552 H1565 0.985 . S
N1553 C1555 1.356 . S
N1553 H1558 0.984 . S
N1553 H1559 0.985 . S
C1554 C1548 1.373 1_545 S
C1554 C1551 1.374 . S
C1554 N1552 1.355 1_545 S
C1555 C1549 1.363 . S
C1555 C1550 1.379 . S
C1555 N1553 1.356 . S
N1556 C1548 1.356 . S
N1556 H1562 0.984 . S
N1556 H1563 0.984 . S
N1557 C1550 1.356 . S
N1557 H1560 0.984 . S
N1557 H1561 0.985 . S
H1558 N1553 0.984 . S
H1559 N1553 0.985 . S
H1560 N1557 0.984 . S
H1561 N1557 0.985 . S
H1562 N1556 0.984 . S
H1563 N1556 0.984 . S
H1564 N1552 0.984 . S
H1565 N1552 0.985 . S
C1566 C1567 1.363 . S
C1566 C1572 1.379 . S
C1566 N1574 1.356 . S
C1567 C1566 1.363 . S
C1567 C1573 1.363 1_655 S
C1568 C1569 1.363 1_455 S
C1568 C1573 1.379 . S
C1568 N1575 1.356 . S
C1569 C1568 1.363 1_655 S
C1569 C1572 1.363 . S
N1570 C1572 1.356 . S
N1570 H1582 0.984 . S
N1570 H1583 0.985 . S
N1571 C1573 1.356 . S
N1571 H1576 0.984 . S
N1571 H1577 0.985 . S
C1572 C1566 1.379 . S
C1572 C1569 1.363 . S
C1572 N1570 1.356 . S
C1573 C1567 1.363 1_455 S
C1573 C1568 1.379 . S
C1573 N1571 1.356 . S
N1574 C1566 1.356 . S
N1574 H1580 0.984 . S
N1574 H1581 0.984 . S
N1575 C1568 1.356 . S
N1575 H1578 0.984 . S
N1575 H1579 0.985 . S
H1576 N1571 0.984 . S
H1577 N1571 0.985 . S
H1578 N1575 0.984 . S
H1579 N1575 0.985 . S
H1580 N1574 0.984 . S
H1581 N1574 0.984 . S
H1582 N1570 0.984 . S
H1583 N1570 0.985 . S
C1584 C1585 1.363 . S
C1584 C1590 1.379 . S
C1584 N1592 1.356 . S
C1585 C1584 1.363 . S
C1585 C1591 1.363 . S
C1586 C1587 1.363 . S
C1586 C1591 1.379 . S
C1586 N1593 1.356 . S
C1587 C1586 1.363 . S
C1587 C1590 1.363 . S
N1588 C1590 1.356 . S
N1588 H1600 0.984 . S
N1588 H1601 0.985 . S
N1589 C1591 1.356 . S
N1589 H1594 0.984 . S
N1589 H1595 0.985 . S
C1590 C1584 1.379 . S
C1590 C1587 1.363 . S
C1590 N1588 1.356 . S
C1591 C1585 1.363 . S
C1591 C1586 1.379 . S
C1591 N1589 1.356 . S
N1592 C1584 1.356 . S
N1592 H1598 0.984 . S
N1592 H1599 0.984 . S
N1593 C1586 1.356 . S
N1593 H1596 0.984 . S
N1593 H1597 0.985 . S
H1594 N1589 0.984 . S
H1595 N1589 0.985 . S
H1596 N1593 0.984 . S
H1597 N1593 0.985 . S
H1598 N1592 0.984 . S
H1599 N1592 0.984 . S
H1600 N1588 0.984 . S
H1601 N1588 0.985 . S
C1602 C1603 1.363 . S
C1602 C1608 1.379 . S
C1602 N1610 1.356 . S
C1603 C1602 1.363 . S
C1603 C1609 1.363 . S
C1604 C1605 1.363 . S
C1604 C1609 1.379 . S
C1604 N1611 1.356 . S
C1605 C1604 1.363 . S
C1605 C1608 1.363 . S
N1606 C1608 1.356 . S
N1606 H1618 0.984 . S
N1606 H1619 0.985 . S
N1607 C1609 1.356 . S
N1607 H1612 0.984 . S
N1607 H1613 0.985 . S
C1608 C1602 1.379 . S
C1608 C1605 1.363 . S
C1608 N1606 1.356 . S
C1609 C1603 1.363 . S
C1609 C1604 1.379 . S
C1609 N1607 1.356 . S
N1610 C1602 1.356 . S
N1610 H1616 0.984 . S
N1610 H1617 0.984 . S
N1611 C1604 1.356 . S
N1611 H1614 0.984 . S
N1611 H1615 0.985 . S
H1612 N1607 0.984 . S
H1613 N1607 0.985 . S
H1614 N1611 0.984 . S
H1615 N1611 0.985 . S
H1616 N1610 0.984 . S
H1617 N1610 0.984 . S
H1618 N1606 0.984 . S
H1619 N1606 0.985 . S
C1620 C1621 1.363 . S
C1620 C1626 1.379 . S
C1620 N1628 1.356 . S
C1621 C1620 1.363 . S
C1621 C1627 1.363 . S
C1622 C1623 1.363 . S
C1622 C1627 1.379 . S
C1622 N1629 1.356 . S
C1623 C1622 1.363 . S
C1623 C1626 1.363 . S
N1624 C1626 1.356 . S
N1624 H1636 0.984 . S
N1624 H1637 0.985 . S
N1625 C1627 1.356 . S
N1625 H1630 0.984 . S
N1625 H1631 0.985 . S
C1626 C1620 1.379 . S
C1626 C1623 1.363 . S
C1626 N1624 1.356 . S
C1627 C1621 1.363 . S
C1627 C1622 1.379 . S
C1627 N1625 1.356 . S
N1628 C1620 1.356 . S
N1628 H1634 0.984 . S
N1628 H1635 0.984 . S
N1629 C1622 1.356 . S
N1629 H1632 0.984 . S
N1629 H1633 0.985 . S
H1630 N1625 0.984 . S
H1631 N1625 0.985 . S
H1632 N1629 0.984 . S
H1633 N1629 0.985 . S
H1634 N1628 0.984 . S
H1635 N1628 0.984 . S
H1636 N1624 0.984 . S
H1637 N1624 0.985 . S
C1638 C1639 1.363 1_545 S
C1638 C1644 1.379 . S
C1638 N1646 1.356 . S
C1639 C1638 1.363 1_565 S
C1639 C1645 1.363 . S
C1640 C1641 1.363 . S
C1640 C1645 1.379 . S
C1640 N1647 1.356 . S
C1641 C1640 1.363 . S
C1641 C1644 1.363 1_565 S
N1642 C1644 1.356 . S
N1642 H1654 0.984 . S
N1642 H1655 0.985 . S
N1643 C1645 1.356 . S
N1643 H1648 0.984 . S
N1643 H1649 0.985 . S
C1644 C1638 1.379 . S
C1644 C1641 1.363 1_545 S
C1644 N1642 1.356 . S
C1645 C1639 1.363 . S
C1645 C1640 1.379 . S
C1645 N1643 1.356 . S
N1646 C1638 1.356 . S
N1646 H1652 0.984 . S
N1646 H1653 0.984 . S
N1647 C1640 1.356 . S
N1647 H1650 0.984 . S
N1647 H1651 0.985 . S
H1648 N1643 0.984 . S
H1649 N1643 0.985 . S
H1650 N1647 0.984 . S
H1651 N1647 0.985 . S
H1652 N1646 0.984 . S
H1653 N1646 0.984 . S
H1654 N1642 0.984 . S
H1655 N1642 0.985 . S
C1656 C1657 1.363 . S
C1656 C1662 1.379 . S
C1656 N1664 1.356 . S
C1657 C1656 1.363 . S
C1657 C1663 1.363 1_565 S
C1658 C1659 1.363 1_545 S
C1658 C1663 1.379 . S
C1658 N1665 1.356 . S
C1659 C1658 1.363 1_565 S
C1659 C1662 1.363 . S
N1660 C1662 1.356 . S
N1660 H1672 0.984 . S
N1660 H1673 0.985 . S
N1661 C1663 1.356 . S
N1661 H1666 0.984 . S
N1661 H1667 0.985 . S
C1662 C1656 1.379 . S
C1662 C1659 1.363 . S
C1662 N1660 1.356 . S
C1663 C1657 1.363 1_545 S
C1663 C1658 1.379 . S
C1663 N1661 1.356 . S
N1664 C1656 1.356 . S
N1664 H1670 0.984 . S
N1664 H1671 0.984 . S
N1665 C1658 1.356 . S
N1665 H1668 0.984 . S
N1665 H1669 0.985 . S
H1666 N1661 0.984 . S
H1667 N1661 0.985 . S
H1668 N1665 0.984 . S
H1669 N1665 0.985 . S
H1670 N1664 0.984 . S
H1671 N1664 0.984 . S
H1672 N1660 0.984 . S
H1673 N1660 0.985 . S
C1674 C1675 1.363 . S
C1674 C1680 1.379 . S
C1674 N1682 1.356 . S
C1675 C1674 1.363 . S
C1675 C1681 1.363 . S
C1676 C1677 1.363 . S
C1676 C1681 1.379 . S
C1676 N1683 1.356 . S
C1677 C1676 1.363 . S
C1677 C1680 1.363 . S
N1678 C1680 1.356 . S
N1678 H1690 0.984 . S
N1678 H1691 0.985 . S
N1679 C1681 1.356 . S
N1679 H1684 0.984 . S
N1679 H1685 0.985 . S
C1680 C1674 1.379 . S
C1680 C1677 1.363 . S
C1680 N1678 1.356 . S
C1681 C1675 1.363 . S
C1681 C1676 1.379 . S
C1681 N1679 1.356 . S
N1682 C1674 1.356 . S
N1682 H1688 0.984 . S
N1682 H1689 0.984 . S
N1683 C1676 1.356 . S
N1683 H1686 0.984 . S
N1683 H1687 0.985 . S
H1684 N1679 0.984 . S
H1685 N1679 0.985 . S
H1686 N1683 0.984 . S
H1687 N1683 0.985 . S
H1688 N1682 0.984 . S
H1689 N1682 0.984 . S
H1690 N1678 0.984 . S
H1691 N1678 0.985 . S
C1692 C1693 1.363 . S
C1692 C1698 1.379 . S
C1692 N1700 1.356 . S
C1693 C1692 1.363 . S
C1693 C1699 1.363 . S
C1694 C1695 1.363 . S
C1694 C1699 1.379 . S
C1694 N1701 1.356 . S
C1695 C1694 1.363 . S
C1695 C1698 1.363 . S
N1696 C1698 1.356 . S
N1696 H1708 0.984 . S
N1696 H1709 0.985 . S
N1697 C1699 1.356 . S
N1697 H1702 0.984 . S
N1697 H1703 0.985 . S
C1698 C1692 1.379 . S
C1698 C1695 1.363 . S
C1698 N1696 1.356 . S
C1699 C1693 1.363 . S
C1699 C1694 1.379 . S
C1699 N1697 1.356 . S
N1700 C1692 1.356 . S
N1700 H1706 0.984 . S
N1700 H1707 0.984 . S
N1701 C1694 1.356 . S
N1701 H1704 0.984 . S
N1701 H1705 0.985 . S
H1702 N1697 0.984 . S
H1703 N1697 0.985 . S
H1704 N1701 0.984 . S
H1705 N1701 0.985 . S
H1706 N1700 0.984 . S
H1707 N1700 0.984 . S
H1708 N1696 0.984 . S
H1709 N1696 0.985 . S
C1710 C1711 1.363 . S
C1710 C1716 1.379 . S
C1710 N1718 1.356 . S
C1711 C1710 1.363 . S
C1711 C1717 1.363 1_655 S
C1712 C1713 1.363 1_455 S
C1712 C1717 1.379 . S
C1712 N1719 1.356 . S
C1713 C1712 1.363 1_655 S
C1713 C1716 1.363 . S
N1714 C1716 1.356 . S
N1714 H1726 0.984 . S
N1714 H1727 0.985 . S
N1715 C1717 1.356 . S
N1715 H1720 0.984 . S
N1715 H1721 0.985 . S
C1716 C1710 1.379 . S
C1716 C1713 1.363 . S
C1716 N1714 1.356 . S
C1717 C1711 1.363 1_455 S
C1717 C1712 1.379 . S
C1717 N1715 1.356 . S
N1718 C1710 1.356 . S
N1718 H1724 0.984 . S
N1718 H1725 0.984 . S
N1719 C1712 1.356 . S
N1719 H1722 0.984 . S
N1719 H1723 0.985 . S
H1720 N1715 0.984 . S
H1721 N1715 0.985 . S
H1722 N1719 0.984 . S
H1723 N1719 0.985 . S
H1724 N1718 0.984 . S
H1725 N1718 0.984 . S
H1726 N1714 0.984 . S
H1727 N1714 0.985 . S
C1728 C1729 1.363 . S
C1728 C1734 1.379 . S
C1728 N1736 1.356 . S
C1729 C1728 1.363 . S
C1729 C1735 1.363 . S
C1730 C1731 1.363 . S
C1730 C1735 1.379 . S
C1730 N1737 1.356 . S
C1731 C1730 1.363 . S
C1731 C1734 1.363 . S
N1732 C1734 1.356 . S
N1732 H1744 0.984 . S
N1732 H1745 0.985 . S
N1733 C1735 1.356 . S
N1733 H1738 0.984 . S
N1733 H1739 0.985 . S
C1734 C1728 1.379 . S
C1734 C1731 1.363 . S
C1734 N1732 1.356 . S
C1735 C1729 1.363 . S
C1735 C1730 1.379 . S
C1735 N1733 1.356 . S
N1736 C1728 1.356 . S
N1736 H1742 0.984 . S
N1736 H1743 0.984 . S
N1737 C1730 1.356 . S
N1737 H1740 0.984 . S
N1737 H1741 0.985 . S
H1738 N1733 0.984 . S
H1739 N1733 0.985 . S
H1740 N1737 0.984 . S
H1741 N1737 0.985 . S
H1742 N1736 0.984 . S
H1743 N1736 0.984 . S
H1744 N1732 0.984 . S
H1745 N1732 0.985 . S
C1746 C1747 1.363 . S
C1746 C1752 1.379 . S
C1746 N1754 1.356 . S
C1747 C1746 1.363 . S
C1747 C1753 1.363 . S
C1748 C1749 1.363 . S
C1748 C1753 1.379 . S
C1748 N1755 1.356 1_545 S
C1749 C1748 1.363 . S
C1749 C1752 1.363 . S
N1750 C1752 1.356 . S
N1750 H1762 0.984 . S
N1750 H1763 0.985 . S
N1751 C1753 1.356 1_565 S
N1751 H1756 0.984 . S
N1751 H1757 0.985 . S
C1752 C1746 1.379 . S
C1752 C1749 1.363 . S
C1752 N1750 1.356 . S
C1753 C1747 1.363 . S
C1753 C1748 1.379 . S
C1753 N1751 1.356 1_545 S
N1754 C1746 1.356 . S
N1754 H1760 0.984 . S
N1754 H1761 0.984 . S
N1755 C1748 1.356 1_565 S
N1755 H1758 0.984 . S
N1755 H1759 0.985 . S
H1756 N1751 0.984 . S
H1757 N1751 0.985 . S
H1758 N1755 0.984 . S
H1759 N1755 0.985 . S
H1760 N1754 0.984 . S
H1761 N1754 0.984 . S
H1762 N1750 0.984 . S
H1763 N1750 0.985 . S
C1764 C1765 1.363 . S
C1764 C1770 1.379 . S
C1764 N1772 1.356 . S
C1765 C1764 1.363 . S
C1765 C1771 1.363 . S
C1766 C1767 1.363 . S
C1766 C1771 1.379 . S
C1766 N1773 1.356 . S
C1767 C1766 1.363 . S
C1767 C1770 1.363 . S
N1768 C1770 1.356 . S
N1768 H1780 0.984 . S
N1768 H1781 0.985 . S
N1769 C1771 1.356 . S
N1769 H1774 0.984 . S
N1769 H1775 0.985 . S
C1770 C1764 1.379 . S
C1770 C1767 1.363 . S
C1770 N1768 1.356 . S
C1771 C1765 1.363 . S
C1771 C1766 1.379 . S
C1771 N1769 1.356 . S
N1772 C1764 1.356 . S
N1772 H1778 0.984 . S
N1772 H1779 0.984 . S
N1773 C1766 1.356 . S
N1773 H1776 0.984 . S
N1773 H1777 0.985 . S
H1774 N1769 0.984 . S
H1775 N1769 0.985 . S
H1776 N1773 0.984 . S
H1777 N1773 0.985 . S
H1778 N1772 0.984 . S
H1779 N1772 0.984 . S
H1780 N1768 0.984 . S
H1781 N1768 0.985 . S
C1782 C1783 1.363 . S
C1782 C1788 1.379 . S
C1782 N1790 1.356 . S
C1783 C1782 1.363 . S
C1783 C1789 1.363 . S
C1784 C1785 1.363 . S
C1784 C1789 1.379 . S
C1784 N1791 1.356 . S
C1785 C1784 1.363 . S
C1785 C1788 1.363 . S
N1786 C1788 1.356 . S
N1786 H1798 0.984 . S
N1786 H1799 0.985 . S
N1787 C1789 1.356 . S
N1787 H1792 0.984 . S
N1787 H1793 0.985 . S
C1788 C1782 1.379 . S
C1788 C1785 1.363 . S
C1788 N1786 1.356 . S
C1789 C1783 1.363 . S
C1789 C1784 1.379 . S
C1789 N1787 1.356 . S
N1790 C1782 1.356 . S
N1790 H1796 0.984 . S
N1790 H1797 0.984 . S
N1791 C1784 1.356 . S
N1791 H1794 0.984 . S
N1791 H1795 0.985 . S
H1792 N1787 0.984 . S
H1793 N1787 0.985 . S
H1794 N1791 0.984 . S
H1795 N1791 0.985 . S
H1796 N1790 0.984 . S
H1797 N1790 0.984 . S
H1798 N1786 0.984 . S
H1799 N1786 0.985 . S
C1800 C1801 1.363 . S
C1800 C1806 1.379 . S
C1800 N1808 1.356 . S
C1801 C1800 1.363 . S
C1801 C1807 1.363 . S
C1802 C1803 1.363 . S
C1802 C1807 1.379 . S
C1802 N1809 1.356 . S
C1803 C1802 1.363 . S
C1803 C1806 1.363 . S
N1804 C1806 1.356 . S
N1804 H1816 0.984 . S
N1804 H1817 0.985 . S
N1805 C1807 1.356 . S
N1805 H1810 0.984 . S
N1805 H1811 0.985 . S
C1806 C1800 1.379 . S
C1806 C1803 1.363 . S
C1806 N1804 1.356 . S
C1807 C1801 1.363 . S
C1807 C1802 1.379 . S
C1807 N1805 1.356 . S
N1808 C1800 1.356 . S
N1808 H1814 0.984 . S
N1808 H1815 0.984 . S
N1809 C1802 1.356 . S
N1809 H1812 0.984 . S
N1809 H1813 0.985 . S
H1810 N1805 0.984 . S
H1811 N1805 0.985 . S
H1812 N1809 0.984 . S
H1813 N1809 0.985 . S
H1814 N1808 0.984 . S
H1815 N1808 0.984 . S
H1816 N1804 0.984 . S
H1817 N1804 0.985 . S
C1818 C1819 1.363 . S
C1818 C1824 1.379 . S
C1818 N1826 1.356 . S
C1819 C1818 1.363 . S
C1819 C1825 1.363 . S
C1820 C1821 1.363 . S
C1820 C1825 1.379 . S
C1820 N1827 1.356 . S
C1821 C1820 1.363 . S
C1821 C1824 1.363 . S
N1822 C1824 1.356 . S
N1822 H1834 0.984 . S
N1822 H1835 0.985 . S
N1823 C1825 1.356 . S
N1823 H1828 0.984 . S
N1823 H1829 0.985 . S
C1824 C1818 1.379 . S
C1824 C1821 1.363 . S
C1824 N1822 1.356 . S
C1825 C1819 1.363 . S
C1825 C1820 1.379 . S
C1825 N1823 1.356 . S
N1826 C1818 1.356 . S
N1826 H1832 0.984 . S
N1826 H1833 0.984 . S
N1827 C1820 1.356 . S
N1827 H1830 0.984 . S
N1827 H1831 0.985 . S
H1828 N1823 0.984 . S
H1829 N1823 0.985 . S
H1830 N1827 0.984 . S
H1831 N1827 0.985 . S
H1832 N1826 0.984 . S
H1833 N1826 0.984 . S
H1834 N1822 0.984 . S
H1835 N1822 0.985 . S
C1836 C1837 1.363 . S
C1836 C1842 1.379 . S
C1836 N1844 1.356 . S
C1837 C1836 1.363 . S
C1837 C1843 1.363 . S
C1838 C1839 1.363 . S
C1838 C1843 1.379 . S
C1838 N1845 1.356 . S
C1839 C1838 1.363 . S
C1839 C1842 1.363 . S
N1840 C1842 1.356 . S
N1840 H1852 0.984 . S
N1840 H1853 0.985 . S
N1841 C1843 1.356 . S
N1841 H1846 0.984 . S
N1841 H1847 0.985 . S
C1842 C1836 1.379 . S
C1842 C1839 1.363 . S
C1842 N1840 1.356 . S
C1843 C1837 1.363 . S
C1843 C1838 1.379 . S
C1843 N1841 1.356 . S
N1844 C1836 1.356 . S
N1844 H1850 0.984 . S
N1844 H1851 0.984 . S
N1845 C1838 1.356 . S
N1845 H1848 0.984 . S
N1845 H1849 0.985 . S
H1846 N1841 0.984 . S
H1847 N1841 0.985 . S
H1848 N1845 0.984 . S
H1849 N1845 0.985 . S
H1850 N1844 0.984 . S
H1851 N1844 0.984 . S
H1852 N1840 0.984 . S
H1853 N1840 0.985 . S
C1854 C1855 1.363 . S
C1854 C1860 1.379 . S
C1854 N1862 1.356 . S
C1855 C1854 1.363 . S
C1855 C1861 1.363 . S
C1856 C1857 1.363 . S
C1856 C1861 1.379 . S
C1856 N1863 1.356 . S
C1857 C1856 1.363 . S
C1857 C1860 1.363 . S
N1858 C1860 1.356 . S
N1858 H1870 0.984 . S
N1858 H1871 0.985 . S
N1859 C1861 1.356 . S
N1859 H1864 0.984 . S
N1859 H1865 0.985 . S
C1860 C1854 1.379 . S
C1860 C1857 1.363 . S
C1860 N1858 1.356 . S
C1861 C1855 1.363 . S
C1861 C1856 1.379 . S
C1861 N1859 1.356 . S
N1862 C1854 1.356 . S
N1862 H1868 0.984 . S
N1862 H1869 0.984 . S
N1863 C1856 1.356 . S
N1863 H1866 0.984 . S
N1863 H1867 0.985 . S
H1864 N1859 0.984 . S
H1865 N1859 0.985 . S
H1866 N1863 0.984 . S
H1867 N1863 0.985 . S
H1868 N1862 0.984 . S
H1869 N1862 0.984 . S
H1870 N1858 0.984 . S
H1871 N1858 0.985 . S
C1872 C1873 1.363 . S
C1872 C1878 1.379 . S
C1872 N1880 1.356 . S
C1873 C1872 1.363 . S
C1873 C1879 1.363 . S
C1874 C1875 1.363 . S
C1874 C1879 1.379 . S
C1874 N1881 1.356 . S
C1875 C1874 1.363 . S
C1875 C1878 1.363 . S
N1876 C1878 1.356 . S
N1876 H1888 0.984 . S
N1876 H1889 0.985 . S
N1877 C1879 1.356 . S
N1877 H1882 0.984 . S
N1877 H1883 0.985 . S
C1878 C1872 1.379 . S
C1878 C1875 1.363 . S
C1878 N1876 1.356 . S
C1879 C1873 1.363 . S
C1879 C1874 1.379 . S
C1879 N1877 1.356 . S
N1880 C1872 1.356 . S
N1880 H1886 0.984 . S
N1880 H1887 0.984 . S
N1881 C1874 1.356 . S
N1881 H1884 0.984 . S
N1881 H1885 0.985 . S
H1882 N1877 0.984 . S
H1883 N1877 0.985 . S
H1884 N1881 0.984 . S
H1885 N1881 0.985 . S
H1886 N1880 0.984 . S
H1887 N1880 0.984 . S
H1888 N1876 0.984 . S
H1889 N1876 0.985 . S
C1890 C1891 1.363 . S
C1890 C1896 1.379 . S
C1890 N1898 1.356 . S
C1891 C1890 1.363 . S
C1891 C1897 1.363 . S
C1892 C1893 1.363 . S
C1892 C1897 1.379 . S
C1892 N1899 1.356 . S
C1893 C1892 1.363 . S
C1893 C1896 1.363 . S
N1894 C1896 1.356 . S
N1894 H1906 0.984 . S
N1894 H1907 0.985 . S
N1895 C1897 1.356 . S
N1895 H1900 0.984 . S
N1895 H1901 0.985 . S
C1896 C1890 1.379 . S
C1896 C1893 1.363 . S
C1896 N1894 1.356 . S
C1897 C1891 1.363 . S
C1897 C1892 1.379 . S
C1897 N1895 1.356 . S
N1898 C1890 1.356 . S
N1898 H1904 0.984 . S
N1898 H1905 0.984 . S
N1899 C1892 1.356 . S
N1899 H1902 0.984 . S
N1899 H1903 0.985 . S
H1900 N1895 0.984 . S
H1901 N1895 0.985 . S
H1902 N1899 0.984 . S
H1903 N1899 0.985 . S
H1904 N1898 0.984 . S
H1905 N1898 0.984 . S
H1906 N1894 0.984 . S
H1907 N1894 0.985 . S
C1908 C1909 1.363 . S
C1908 C1914 1.379 . S
C1908 N1916 1.356 . S
C1909 C1908 1.363 . S
C1909 C1915 1.363 . S
C1910 C1911 1.363 . S
C1910 C1915 1.379 . S
C1910 N1917 1.356 . S
C1911 C1910 1.363 . S
C1911 C1914 1.363 . S
N1912 C1914 1.356 . S
N1912 H1924 0.984 . S
N1912 H1925 0.985 . S
N1913 C1915 1.356 . S
N1913 H1918 0.984 . S
N1913 H1919 0.985 . S
C1914 C1908 1.379 . S
C1914 C1911 1.363 . S
C1914 N1912 1.356 . S
C1915 C1909 1.363 . S
C1915 C1910 1.379 . S
C1915 N1913 1.356 . S
N1916 C1908 1.356 . S
N1916 H1922 0.984 . S
N1916 H1923 0.984 . S
N1917 C1910 1.356 . S
N1917 H1920 0.984 . S
N1917 H1921 0.985 . S
H1918 N1913 0.984 . S
H1919 N1913 0.985 . S
H1920 N1917 0.984 . S
H1921 N1917 0.985 . S
H1922 N1916 0.984 . S
H1923 N1916 0.984 . S
H1924 N1912 0.984 . S
H1925 N1912 0.985 . S
C1926 C1927 1.363 . S
C1926 C1932 1.379 . S
C1926 N1934 1.356 . S
C1927 C1926 1.363 . S
C1927 C1933 1.363 . S
C1928 C1929 1.363 . S
C1928 C1933 1.379 . S
C1928 N1935 1.356 . S
C1929 C1928 1.363 . S
C1929 C1932 1.363 . S
N1930 C1932 1.356 . S
N1930 H1942 0.984 . S
N1930 H1943 0.985 . S
N1931 C1933 1.356 . S
N1931 H1936 0.984 . S
N1931 H1937 0.985 . S
C1932 C1926 1.379 . S
C1932 C1929 1.363 . S
C1932 N1930 1.356 . S
C1933 C1927 1.363 . S
C1933 C1928 1.379 . S
C1933 N1931 1.356 . S
N1934 C1926 1.356 . S
N1934 H1940 0.984 . S
N1934 H1941 0.984 . S
N1935 C1928 1.356 . S
N1935 H1938 0.984 . S
N1935 H1939 0.985 . S
H1936 N1931 0.984 . S
H1937 N1931 0.985 . S
H1938 N1935 0.984 . S
H1939 N1935 0.985 . S
H1940 N1934 0.984 . S
H1941 N1934 0.984 . S
H1942 N1930 0.984 . S
H1943 N1930 0.985 . S
C1944 C1945 1.363 . S
C1944 C1950 1.379 . S
C1944 N1952 1.356 . S
C1945 C1944 1.363 . S
C1945 C1951 1.363 . S
C1946 C1947 1.363 . S
C1946 C1951 1.379 . S
C1946 N1953 1.356 . S
C1947 C1946 1.363 . S
C1947 C1950 1.363 . S
N1948 C1950 1.356 . S
N1948 H1960 0.984 . S
N1948 H1961 0.985 . S
N1949 C1951 1.356 . S
N1949 H1954 0.984 . S
N1949 H1955 0.985 . S
C1950 C1944 1.379 . S
C1950 C1947 1.363 . S
C1950 N1948 1.356 . S
C1951 C1945 1.363 . S
C1951 C1946 1.379 . S
C1951 N1949 1.356 . S
N1952 C1944 1.356 . S
N1952 H1958 0.986 1_655 S
N1952 H1959 0.984 1_655 S
N1953 C1946 1.356 . S
N1953 H1956 0.984 . S
N1953 H1957 0.985 . S
H1954 N1949 0.984 . S
H1955 N1949 0.985 . S
H1956 N1953 0.984 . S
H1957 N1953 0.985 . S
H1958 N1952 0.986 1_455 S
H1959 N1952 0.984 1_455 S
H1960 N1948 0.984 . S
H1961 N1948 0.985 . S
C1962 C1963 1.363 . S
C1962 C1968 1.379 . S
C1962 N1970 1.356 . S
C1963 C1962 1.363 . S
C1963 C1969 1.363 . S
C1964 C1965 1.363 . S
C1964 C1969 1.379 . S
C1964 N1971 1.356 . S
C1965 C1964 1.363 . S
C1965 C1968 1.363 . S
N1966 C1968 1.356 . S
N1966 H1978 0.984 . S
N1966 H1979 0.985 . S
N1967 C1969 1.356 . S
N1967 H1972 0.984 . S
N1967 H1973 0.985 . S
C1968 C1962 1.379 . S
C1968 C1965 1.363 . S
C1968 N1966 1.356 . S
C1969 C1963 1.363 . S
C1969 C1964 1.379 . S
C1969 N1967 1.356 . S
N1970 C1962 1.356 . S
N1970 H1976 0.984 . S
N1970 H1977 0.984 . S
N1971 C1964 1.356 . S
N1971 H1974 0.984 . S
N1971 H1975 0.985 . S
H1972 N1967 0.984 . S
H1973 N1967 0.985 . S
H1974 N1971 0.984 . S
H1975 N1971 0.985 . S
H1976 N1970 0.984 . S
H1977 N1970 0.984 . S
H1978 N1966 0.984 . S
H1979 N1966 0.985 . S
C1980 C1981 1.363 . S
C1980 C1986 1.379 . S
C1980 N1988 1.356 . S
C1981 C1980 1.363 . S
C1981 C1987 1.363 . S
C1982 C1983 1.363 . S
C1982 C1987 1.379 . S
C1982 N1989 1.356 . S
C1983 C1982 1.363 . S
C1983 C1986 1.363 . S
N1984 C1986 1.356 . S
N1984 H1996 0.984 . S
N1984 H1997 0.985 . S
N1985 C1987 1.356 . S
N1985 H1990 0.984 . S
N1985 H1991 0.985 . S
C1986 C1980 1.379 . S
C1986 C1983 1.363 . S
C1986 N1984 1.356 . S
C1987 C1981 1.363 . S
C1987 C1982 1.379 . S
C1987 N1985 1.356 . S
N1988 C1980 1.356 . S
N1988 H1994 0.984 . S
N1988 H1995 0.984 . S
N1989 C1982 1.356 . S
N1989 H1992 0.984 . S
N1989 H1993 0.985 . S
H1990 N1985 0.984 . S
H1991 N1985 0.985 . S
H1992 N1989 0.984 . S
H1993 N1989 0.985 . S
H1994 N1988 0.984 . S
H1995 N1988 0.984 . S
H1996 N1984 0.984 . S
H1997 N1984 0.985 . S
C1998 C1999 1.363 . S
C1998 C2004 1.379 . S
C1998 N2006 1.356 . S
C1999 C1998 1.363 . S
C1999 C2005 1.363 . S
C2000 C2001 1.363 . S
C2000 C2005 1.379 . S
C2000 N2007 1.356 . S
C2001 C2000 1.363 . S
C2001 C2004 1.363 . S
N2002 C2004 1.356 . S
N2002 H2014 0.984 . S
N2002 H2015 0.985 . S
N2003 C2005 1.356 . S
N2003 H2008 0.984 . S
N2003 H2009 0.985 . S
C2004 C1998 1.379 . S
C2004 C2001 1.363 . S
C2004 N2002 1.356 . S
C2005 C1999 1.363 . S
C2005 C2000 1.379 . S
C2005 N2003 1.356 . S
N2006 C1998 1.356 . S
N2006 H2012 0.984 . S
N2006 H2013 0.984 . S
N2007 C2000 1.356 . S
N2007 H2010 0.984 . S
N2007 H2011 0.985 . S
H2008 N2003 0.984 . S
H2009 N2003 0.985 . S
H2010 N2007 0.984 . S
H2011 N2007 0.985 . S
H2012 N2006 0.984 . S
H2013 N2006 0.984 . S
H2014 N2002 0.984 . S
H2015 N2002 0.985 . S
C2016 C2017 1.363 . S
C2016 C2022 1.379 . S
C2016 N2024 1.356 . S
C2017 C2016 1.363 . S
C2017 C2023 1.363 . S
C2018 C2019 1.363 . S
C2018 C2023 1.379 . S
C2018 N2025 1.356 . S
C2019 C2018 1.363 . S
C2019 C2022 1.363 . S
N2020 C2022 1.356 . S
N2020 H2032 0.984 . S
N2020 H2033 0.985 . S
N2021 C2023 1.356 . S
N2021 H2026 0.984 . S
N2021 H2027 0.985 . S
C2022 C2016 1.379 . S
C2022 C2019 1.363 . S
C2022 N2020 1.356 . S
C2023 C2017 1.363 . S
C2023 C2018 1.379 . S
C2023 N2021 1.356 . S
N2024 C2016 1.356 . S
N2024 H2030 0.984 . S
N2024 H2031 0.984 . S
N2025 C2018 1.356 . S
N2025 H2028 0.984 . S
N2025 H2029 0.985 . S
H2026 N2021 0.984 . S
H2027 N2021 0.985 . S
H2028 N2025 0.984 . S
H2029 N2025 0.985 . S
H2030 N2024 0.984 . S
H2031 N2024 0.984 . S
H2032 N2020 0.984 . S
H2033 N2020 0.985 . S
C2034 C2035 1.363 . S
C2034 C2040 1.379 . S
C2034 N2042 1.356 . S
C2035 C2034 1.363 . S
C2035 C2041 1.363 . S
C2036 C2037 1.363 . S
C2036 C2041 1.379 . S
C2036 N2043 1.356 . S
C2037 C2036 1.363 . S
C2037 C2040 1.363 . S
N2038 C2040 1.356 . S
N2038 H2050 0.984 . S
N2038 H2051 0.985 . S
N2039 C2041 1.356 . S
N2039 H2044 0.984 . S
N2039 H2045 0.985 . S
C2040 C2034 1.379 . S
C2040 C2037 1.363 . S
C2040 N2038 1.356 . S
C2041 C2035 1.363 . S
C2041 C2036 1.379 . S
C2041 N2039 1.356 . S
N2042 C2034 1.356 . S
N2042 H2048 0.984 . S
N2042 H2049 0.984 . S
N2043 C2036 1.356 . S
N2043 H2046 0.984 . S
N2043 H2047 0.985 . S
H2044 N2039 0.984 . S
H2045 N2039 0.985 . S
H2046 N2043 0.984 . S
H2047 N2043 0.985 . S
H2048 N2042 0.984 . S
H2049 N2042 0.984 . S
H2050 N2038 0.984 . S
H2051 N2038 0.985 . S
C2052 C2053 1.363 . S
C2052 C2058 1.379 . S
C2052 N2060 1.356 . S
C2053 C2052 1.363 . S
C2053 C2059 1.363 . S
C2054 C2055 1.363 . S
C2054 C2059 1.379 . S
C2054 N2061 1.356 . S
C2055 C2054 1.363 . S
C2055 C2058 1.363 . S
N2056 C2058 1.356 . S
N2056 H2068 0.984 . S
N2056 H2069 0.985 . S
N2057 C2059 1.356 . S
N2057 H2062 0.984 . S
N2057 H2063 0.985 . S
C2058 C2052 1.379 . S
C2058 C2055 1.363 . S
C2058 N2056 1.356 . S
C2059 C2053 1.363 . S
C2059 C2054 1.379 . S
C2059 N2057 1.356 . S
N2060 C2052 1.356 . S
N2060 H2066 0.984 . S
N2060 H2067 0.984 . S
N2061 C2054 1.356 . S
N2061 H2064 0.984 . S
N2061 H2065 0.985 . S
H2062 N2057 0.984 . S
H2063 N2057 0.985 . S
H2064 N2061 0.984 . S
H2065 N2061 0.985 . S
H2066 N2060 0.984 . S
H2067 N2060 0.984 . S
H2068 N2056 0.984 . S
H2069 N2056 0.985 . S
C2070 C2071 1.363 . S
C2070 C2076 1.379 . S
C2070 N2078 1.356 . S
C2071 C2070 1.363 . S
C2071 C2077 1.363 . S
C2072 C2073 1.363 . S
C2072 C2077 1.379 . S
C2072 N2079 1.356 . S
C2073 C2072 1.363 . S
C2073 C2076 1.363 . S
N2074 C2076 1.356 . S
N2074 H2086 0.984 . S
N2074 H2087 0.985 . S
N2075 C2077 1.356 . S
N2075 H2080 0.984 . S
N2075 H2081 0.985 . S
C2076 C2070 1.379 . S
C2076 C2073 1.363 . S
C2076 N2074 1.356 . S
C2077 C2071 1.363 . S
C2077 C2072 1.379 . S
C2077 N2075 1.356 . S
N2078 C2070 1.356 . S
N2078 H2084 0.984 . S
N2078 H2085 0.984 . S
N2079 C2072 1.356 . S
N2079 H2082 0.984 . S
N2079 H2083 0.985 . S
H2080 N2075 0.984 . S
H2081 N2075 0.985 . S
H2082 N2079 0.984 . S
H2083 N2079 0.985 . S
H2084 N2078 0.984 . S
H2085 N2078 0.984 . S
H2086 N2074 0.984 . S
H2087 N2074 0.985 . S
C2088 C2089 1.363 . S
C2088 C2094 1.379 . S
C2088 N2096 1.356 . S
C2089 C2088 1.363 . S
C2089 C2095 1.363 . S
C2090 C2091 1.363 . S
C2090 C2095 1.379 . S
C2090 N2097 1.356 . S
C2091 C2090 1.363 . S
C2091 C2094 1.363 . S
N2092 C2094 1.356 . S
N2092 H2104 0.984 . S
N2092 H2105 0.985 . S
N2093 C2095 1.356 . S
N2093 H2098 0.984 . S
N2093 H2099 0.985 . S
C2094 C2088 1.379 . S
C2094 C2091 1.363 . S
C2094 N2092 1.356 . S
C2095 C2089 1.363 . S
C2095 C2090 1.379 . S
C2095 N2093 1.356 . S
N2096 C2088 1.356 . S
N2096 H2102 0.984 . S
N2096 H2103 0.984 . S
N2097 C2090 1.356 . S
N2097 H2100 0.984 . S
N2097 H2101 0.985 . S
H2098 N2093 0.984 . S
H2099 N2093 0.985 . S
H2100 N2097 0.984 . S
H2101 N2097 0.985 . S
H2102 N2096 0.984 . S
H2103 N2096 0.984 . S
H2104 N2092 0.984 . S
H2105 N2092 0.985 . S
C2106 C2107 1.363 . S
C2106 C2112 1.379 . S
C2106 N2114 1.356 . S
C2107 C2106 1.363 . S
C2107 C2113 1.363 . S
C2108 C2109 1.363 . S
C2108 C2113 1.379 . S
C2108 N2115 1.356 . S
C2109 C2108 1.363 . S
C2109 C2112 1.363 . S
N2110 C2112 1.356 . S
N2110 H2122 0.984 . S
N2110 H2123 0.985 . S
N2111 C2113 1.356 . S
N2111 H2116 0.984 . S
N2111 H2117 0.985 . S
C2112 C2106 1.379 . S
C2112 C2109 1.363 . S
C2112 N2110 1.356 . S
C2113 C2107 1.363 . S
C2113 C2108 1.379 . S
C2113 N2111 1.356 . S
N2114 C2106 1.356 . S
N2114 H2120 0.984 . S
N2114 H2121 0.984 . S
N2115 C2108 1.356 . S
N2115 H2118 0.984 . S
N2115 H2119 0.985 . S
H2116 N2111 0.984 . S
H2117 N2111 0.985 . S
H2118 N2115 0.984 . S
H2119 N2115 0.985 . S
H2120 N2114 0.984 . S
H2121 N2114 0.984 . S
H2122 N2110 0.984 . S
H2123 N2110 0.985 . S
C2124 C2125 1.363 . S
C2124 C2130 1.379 . S
C2124 N2132 1.356 . S
C2125 C2124 1.363 . S
C2125 C2131 1.363 . S
C2126 C2127 1.363 . S
C2126 C2131 1.379 . S
C2126 N2133 1.356 . S
C2127 C2126 1.363 . S
C2127 C2130 1.363 . S
N2128 C2130 1.356 . S
N2128 H2140 0.984 . S
N2128 H2141 0.985 . S
N2129 C2131 1.356 . S
N2129 H2134 0.984 . S
N2129 H2135 0.985 . S
C2130 C2124 1.379 . S
C2130 C2127 1.363 . S
C2130 N2128 1.356 . S
C2131 C2125 1.363 . S
C2131 C2126 1.379 . S
C2131 N2129 1.356 . S
N2132 C2124 1.356 . S
N2132 H2138 0.984 . S
N2132 H2139 0.984 . S
N2133 C2126 1.356 . S
N2133 H2136 0.984 . S
N2133 H2137 0.985 . S
H2134 N2129 0.984 . S
H2135 N2129 0.985 . S
H2136 N2133 0.984 . S
H2137 N2133 0.985 . S
H2138 N2132 0.984 . S
H2139 N2132 0.984 . S
H2140 N2128 0.984 . S
H2141 N2128 0.985 . S
C2142 C2143 1.363 . S
C2142 C2148 1.379 . S
C2142 N2150 1.356 . S
C2143 C2142 1.363 . S
C2143 C2149 1.363 . S
C2144 C2145 1.363 . S
C2144 C2149 1.379 . S
C2144 N2151 1.356 . S
C2145 C2144 1.363 . S
C2145 C2148 1.363 . S
N2146 C2148 1.356 . S
N2146 H2158 0.984 . S
N2146 H2159 0.985 . S
N2147 C2149 1.356 . S
N2147 H2152 0.984 . S
N2147 H2153 0.985 . S
C2148 C2142 1.379 . S
C2148 C2145 1.363 . S
C2148 N2146 1.356 . S
C2149 C2143 1.363 . S
C2149 C2144 1.379 . S
C2149 N2147 1.356 . S
N2150 C2142 1.356 . S
N2150 H2156 0.984 . S
N2150 H2157 0.984 . S
N2151 C2144 1.356 . S
N2151 H2154 0.984 . S
N2151 H2155 0.985 . S
H2152 N2147 0.984 . S
H2153 N2147 0.985 . S
H2154 N2151 0.984 . S
H2155 N2151 0.985 . S
H2156 N2150 0.984 . S
H2157 N2150 0.984 . S
H2158 N2146 0.984 . S
H2159 N2146 0.985 . S
C2160 C2161 1.363 . S
C2160 C2166 1.379 . S
C2160 N2168 1.356 . S
C2161 C2160 1.363 . S
C2161 C2167 1.363 . S
C2162 C2163 1.363 . S
C2162 C2167 1.379 . S
C2162 N2169 1.356 . S
C2163 C2162 1.363 . S
C2163 C2166 1.363 . S
N2164 C2166 1.356 . S
N2164 H2176 0.984 . S
N2164 H2177 0.985 . S
N2165 C2167 1.356 . S
N2165 H2170 0.984 . S
N2165 H2171 0.985 . S
C2166 C2160 1.379 . S
C2166 C2163 1.363 . S
C2166 N2164 1.356 . S
C2167 C2161 1.363 . S
C2167 C2162 1.379 . S
C2167 N2165 1.356 . S
N2168 C2160 1.356 . S
N2168 H2174 0.984 . S
N2168 H2175 0.984 . S
N2169 C2162 1.356 . S
N2169 H2172 0.984 . S
N2169 H2173 0.985 . S
H2170 N2165 0.984 . S
H2171 N2165 0.985 . S
H2172 N2169 0.984 . S
H2173 N2169 0.985 . S
H2174 N2168 0.984 . S
H2175 N2168 0.984 . S
H2176 N2164 0.984 . S
H2177 N2164 0.985 . S
C2178 C2179 1.363 . S
C2178 C2184 1.379 . S
C2178 N2186 1.356 . S
C2179 C2178 1.363 . S
C2179 C2185 1.363 . S
C2180 C2181 1.363 . S
C2180 C2185 1.379 . S
C2180 N2187 1.356 . S
C2181 C2180 1.363 . S
C2181 C2184 1.363 . S
N2182 C2184 1.356 . S
N2182 H2194 0.984 . S
N2182 H2195 0.985 . S
N2183 C2185 1.356 . S
N2183 H2188 0.984 . S
N2183 H2189 0.985 . S
C2184 C2178 1.379 . S
C2184 C2181 1.363 . S
C2184 N2182 1.356 . S
C2185 C2179 1.363 . S
C2185 C2180 1.379 . S
C2185 N2183 1.356 . S
N2186 C2178 1.356 . S
N2186 H2192 0.984 . S
N2186 H2193 0.984 . S
N2187 C2180 1.356 . S
N2187 H2190 0.984 . S
N2187 H2191 0.985 . S
H2188 N2183 0.984 . S
H2189 N2183 0.985 . S
H2190 N2187 0.984 . S
H2191 N2187 0.985 . S
H2192 N2186 0.984 . S
H2193 N2186 0.984 . S
H2194 N2182 0.984 . S
H2195 N2182 0.985 . S
C901 C76 1.321 . S
C903 C652 1.143 . S
C919 C4 1.308 . S
C921 C668 1.133 . S
C939 C651 1.254 . S
C937 C38 1.425 . S
C957 C676 1.256 . S
C955 C74 1.437 . S
C973 C2 1.371 . S
C975 C685 1.217 . S
C993 C688 1.122 . S
C991 C40 1.281 . S
C1009 C182 1.425 . S
C1011 C694 1.237 . S
C1029 C710 1.159 . S
C1027 C112 1.338 . S
C1047 C693 1.135 . S
C1045 C148 1.292 . S
C1063 C184 1.302 . S
C1065 C718 1.133 . S
C1083 C727 1.243 . S
C1081 C110 1.399 . S
C1101 C730 1.215 . S
C1099 C146 1.385 . S
C1119 C739 1.143 . S
C1117 C292 1.321 . S
C1137 C751 1.133 . S
C1135 C220 1.308 . S
C1155 C748 1.254 . S
C1153 C254 1.425 . S
C1171 C290 1.437 . S
C1173 C757 1.256 . S
C1191 C756 1.217 . S
C1189 C218 1.371 . S
C1207 C256 1.281 . S
C1209 C773 1.122 . S
C1227 C778 1.237 . S
C1225 C398 1.425 . S
C1245 C794 1.158 . S
C1243 C328 1.338 . S
C1261 C364 1.292 . S
C1263 C777 1.135 . S
C1281 C802 1.133 . S
C1279 C400 1.302 . S
C1299 C811 1.243 . S
C1297 C326 1.399 . S
C1315 C362 1.385 . S
C1317 C814 1.215 . S
C1333 C508 1.321 . S
C1335 C823 1.143 . S
C1353 C835 1.133 . S
C1351 C436 1.308 . S
C1371 C832 1.254 . S
C1369 C470 1.425 . S
C1387 C506 1.437 . S
C1389 C841 1.256 . S
C1407 C840 1.218 . S
C1405 C434 1.371 . S
C1423 C472 1.281 . S
C1425 C857 1.122 . S
C1443 C862 1.237 . S
C1441 C614 1.425 . S
C1461 C878 1.159 . S
C1459 C544 1.338 . S
C1477 C580 1.293 . S
C1479 C861 1.135 . S
C1497 C883 1.133 . S
C1495 C616 1.302 . S
C1515 C882 1.243 . S
C1513 C542 1.399 . S
C1533 C899 1.215 . S
C1531 C578 1.385 . S
C1551 C664 1.452 . S
C1549 C399 1.541 . S
C1567 C338 1.527 . S
C1569 C667 1.521 . S
C1587 C655 1.448 . S
C1585 C374 1.466 . S
C1603 C626 1.480 . S
C1605 C672 1.461 . S
C1621 C543 1.631 . S
C1623 C673 1.515 . S
C1641 C689 1.411 1_565 S
C1639 C579 1.499 . S
C1659 C706 1.540 . S
C1657 C518 1.550 . S
C1677 C709 1.404 . S
C1675 C446 1.414 . S
C1693 C471 1.575 . S
C1695 C697 1.482 . S
C1713 C714 1.490 . S
C1711 C291 1.592 . S
C1729 C219 1.504 . S
C1731 C715 1.399 . S
C1747 C266 1.512 . S
C1749 C731 1.496 . S
C1765 C615 1.541 . S
C1767 C735 1.452 . S
C1783 C554 1.527 . S
C1785 C752 1.522 . S
C1803 C736 1.448 . S
C1801 C590 1.465 . S
C1821 C769 1.461 . S
C1819 C194 1.480 . S
C1839 C760 1.515 . S
C1837 C111 1.631 . S
C1855 C147 1.499 . S
C1857 C772 1.411 . S
C1875 C790 1.540 . S
C1873 C86 1.550 . S
C1893 C793 1.404 . S
C1891 C14 1.414 . S
C1909 C39 1.575 . S
C1911 C781 1.482 . S
C1929 C798 1.490 . S
C1927 C507 1.592 . S
C1947 C799 1.398 . S
C1945 C435 1.504 . S
C1965 C815 1.496 . S
C1963 C482 1.512 . S
C1983 C819 1.452 . S
C1981 C183 1.541 . S
C2001 C836 1.521 . S
C1999 C122 1.527 . S
C2017 C158 1.466 . S
C2019 C820 1.448 . S
C2035 C410 1.481 . S
C2037 C853 1.462 . S
C2053 C327 1.631 . S
C2055 C844 1.514 . S
C2073 C856 1.411 . S
C2071 C363 1.499 . S
C2089 C302 1.550 . S
C2091 C874 1.540 . S
C2107 C230 1.414 . S
C2109 C877 1.404 . S
C2127 C865 1.482 . S
C2125 C255 1.575 . S
C2145 C895 1.490 . S
C2143 C75 1.592 . S
C2163 C886 1.399 . S
C2161 C3 1.504 . S
C2179 C50 1.512 . S
C2181 C898 1.496 . S
