# Generated by pormake.
# Topology anh, (6,3)-cn, num edge types: 1
# Building blocks:
#     Node 0, Type 0, BuildingBlock: BETFEN_clean_sbu_0, # of connection points: 6
#     Node 1, Type 0, BuildingBlock: BETFEN_clean_sbu_0, # of connection points: 6
#     Node 2, Type 0, BuildingBlock: BETFEN_clean_sbu_0, # of connection points: 6
#     Node 3, Type 1, BuildingBlock: WUSLED_clean_sbu_0, # of connection points: 3
#     Node 4, Type 1, BuildingBlock: WUSLED_clean_sbu_0, # of connection points: 3
#     Node 5, Type 1, BuildingBlock: WUSLED_clean_sbu_0, # of connection points: 3
#     Node 6, Type 1, BuildingBlock: WUSLED_clean_sbu_0, # of connection points: 3
#     Node 7, Type 1, BuildingBlock: WUSLED_clean_sbu_0, # of connection points: 3
#     Node 8, Type 1, BuildingBlock: WUSLED_clean_sbu_0, # of connection points: 3
#     Edge 9, Type (0, 1), None
#     Edge 10, Type (0, 1), None
#     Edge 11, Type (0, 1), None
#     Edge 12, Type (0, 1), None
#     Edge 13, Type (0, 1), None
#     Edge 14, Type (0, 1), None
#     Edge 15, Type (0, 1), None
#     Edge 16, Type (0, 1), None
#     Edge 17, Type (0, 1), None
#     Edge 18, Type (0, 1), None
#     Edge 19, Type (0, 1), None
#     Edge 20, Type (0, 1), None
#     Edge 21, Type (0, 1), None
#     Edge 22, Type (0, 1), None
#     Edge 23, Type (0, 1), None
#     Edge 24, Type (0, 1), None
#     Edge 25, Type (0, 1), None
#     Edge 26, Type (0, 1), None
# Relax obj value: 0.250
# Max RMSD: 0.241
# Mean RMSD: 0.170
data_MOF--net-anh--node1-BETFEN_clean_sbu_0--node2-WUSLED_clean_sbu_0--edge1-none
_symmetry_space_group_name_H-M    P1
_symmetry_Int_Tables_number       1
_symmetry_cell_setting            triclinic
loop_
_symmetry_equiv_pos_as_xyz
'x, y, z'
_cell_length_a     21.804281
_cell_length_b     22.179509
_cell_length_c     39.883454
_cell_angle_alpha  91.943102
_cell_angle_beta   90.881209
_cell_angle_gamma 96.758112
loop_
_atom_site_label
_atom_site_type_symbol
_atom_site_fract_x
_atom_site_fract_y
_atom_site_fract_z
_atom_type_partial_charge
Pr0 Pr 1.0555 0.55273 0.16056 0.0
Pr1 Pr 0.08311 0.70733 0.16101 0.0
C2 C 1.02564 0.43789 0.17938 0.0
C3 C 0.96773 0.40077 0.1877 0.0
C4 C 0.95744 0.33994 0.17622 0.0
C5 C 0.90108 0.3051 0.18182 0.0
C6 C 0.85402 0.33046 0.19915 0.0
C7 C 0.86473 0.39132 0.21099 0.0
C8 C 0.92096 0.42628 0.20515 0.0
C9 C 1.04696 0.5996 0.09614 0.0
C10 C 0.93907 0.63912 0.16372 0.0
C11 C 0.11919 0.82387 0.14836 0.0
C12 C 0.16631 0.86762 0.16591 0.0
C13 C 0.17344 0.86685 0.20095 0.0
C14 C 0.22352 0.90114 0.21731 0.0
C15 C 0.26805 0.93679 0.19907 0.0
C16 C 0.25966 0.93949 0.16412 0.0
C17 C 0.2093 0.90492 0.14766 0.0
C18 C 0.08432 0.65912 0.22558 0.0
C19 C 0.19991 0.61945 0.15298 0.0
O20 O 1.04599 0.48247 0.20054 0.0
O21 O 1.03098 0.45245 0.14796 0.0
O22 O 0.0584 0.62873 0.12355 0.0
O23 O 1.03815 0.54183 0.10175 0.0
O24 O 0.97497 0.68777 0.15377 0.0
O25 O 0.96046 0.58769 0.17164 0.0
O26 O 0.14103 0.77878 0.13222 0.0
O27 O 0.06897 0.80674 0.16504 0.0
O28 O 0.07771 0.63203 0.19749 0.0
O29 O 0.09418 0.71706 0.22086 0.0
O30 O 0.16389 0.56847 0.15903 0.0
O31 O 0.17922 0.67315 0.15087 0.0
H32 H 0.99279 0.31959 0.16253 0.0
H33 H 0.89443 0.25817 0.17274 0.0
H34 H 0.82914 0.41228 0.22411 0.0
H35 H 0.92748 0.47344 0.21383 0.0
H36 H 0.14139 0.83819 0.2157 0.0
H37 H 0.22793 0.8989 0.24432 0.0
H38 H 0.29329 0.96633 0.14936 0.0
H39 H 0.20514 0.90563 0.12058 0.0
Pr40 Pr 0.63566 0.13226 0.53644 0.0
Pr41 Pr 0.49357 1.10657 0.52935 0.0
C42 C 0.75721 0.15633 0.52502 0.0
C43 C 0.79813 0.21236 0.51738 0.0
C44 C 0.80115 0.26482 0.53847 0.0
C45 C 0.83817 0.31805 0.53036 0.0
C46 C 0.87283 0.32044 0.50085 0.0
C47 C 0.86954 0.26799 0.4797 0.0
C48 C 0.83275 0.21455 0.48794 0.0
C49 C 0.57272 0.12558 0.59622 0.0
C50 C 0.55849 0.25141 0.54414 0.0
C51 C 0.36967 1.08212 0.52959 0.0
C52 C 0.32802 1.02559 0.5221 0.0
C53 C 0.27326 1.02747 0.50349 0.0
C54 C 0.23761 0.97358 0.49243 0.0
C55 C 0.25618 0.9166 0.49967 0.0
C56 C 0.31002 0.91502 0.51939 0.0
C57 C 0.3456 0.9689 0.53041 0.0
C58 C 0.5573 1.11078 0.46923 0.0
C59 C 0.57033 0.98578 0.53695 0.0
O60 O 0.71704 0.13502 0.50149 0.0
O61 O 0.73453 0.15304 0.55524 0.0
O62 O 0.56091 1.09099 0.57091 0.0
O63 O 0.62178 0.16407 0.59235 0.0
O64 O 0.5076 0.21226 0.54626 0.0
O65 O 0.61174 0.23241 0.53607 0.0
O66 O 0.40413 1.08382 0.55687 0.0
O67 O 0.39966 1.1051 0.50397 0.0
O68 O 0.56834 0.14781 0.49385 0.0
O69 O 0.51192 1.0695 0.47524 0.0
O70 O 0.62214 1.02305 0.53305 0.0
O71 O 0.51625 1.00725 0.53858 0.0
H72 H 0.77441 0.26511 0.56113 0.0
H73 H 0.83876 0.35777 0.54698 0.0
H74 H 0.89597 0.268 0.45693 0.0
H75 H 0.83103 0.17491 0.47115 0.0
H76 H 0.2592 1.07065 0.49648 0.0
H77 H 0.197 0.97668 0.4769 0.0
H78 H 0.32539 0.87209 0.52579 0.0
H79 H 0.38782 0.96616 0.54461 0.0
Pr80 Pr 0.56417 0.58584 0.8632 0.0
Pr81 Pr 0.57691 0.71632 0.86804 0.0
C82 C 0.57077 0.46665 0.85355 0.0
C83 C 0.61483 0.4237 0.86084 0.0
C84 C 0.59215 0.36684 0.87234 0.0
C85 C 0.62975 0.32042 0.87243 0.0
C86 C 0.6903 0.32992 0.85993 0.0
C87 C 0.71603 0.39012 0.85473 0.0
C88 C 0.67809 0.43671 0.85455 0.0
C89 C 0.54909 0.62999 0.9286 0.0
C90 C 0.70643 0.65624 0.8734 0.0
C91 C 0.58 0.83342 0.88728 0.0
C92 C 0.52964 0.87143 0.88903 0.0
C93 C 0.54014 0.93007 0.90324 0.0
C94 C 0.49249 0.96679 0.90401 0.0
C95 C 0.43318 0.94539 0.89059 0.0
C96 C 0.42202 0.88474 0.8785 0.0
C97 C 0.47001 0.84821 0.87754 0.0
C98 C 0.55586 0.67261 0.80121 0.0
C99 C 0.43891 0.64593 0.86162 0.0
O100 O 0.58532 0.50606 0.83049 0.0
O101 O 0.54444 0.48911 0.87942 0.0
O102 O 0.59113 0.64954 0.90905 0.0
O103 O 0.51129 0.58717 0.91412 0.0
O104 O 0.68252 0.70755 0.8697 0.0
O105 O 0.67106 0.60374 0.87334 0.0
O106 O 0.57538 0.78952 0.90839 0.0
O107 O 0.59573 0.81632 0.85717 0.0
O108 O 0.59299 0.65345 0.82186 0.0
O109 O 0.52709 0.71466 0.81511 0.0
O110 O 0.46541 0.60364 0.84541 0.0
O111 O 0.47312 0.68855 0.87934 0.0
H112 H 0.54388 0.35679 0.87856 0.0
H113 H 0.60785 0.27556 0.87784 0.0
H114 H 0.76325 0.39981 0.84666 0.0
H115 H 0.69711 0.48145 0.84705 0.0
H116 H 0.58567 0.94819 0.91273 0.0
H117 H 0.50388 1.01343 0.91299 0.0
H118 H 0.37717 0.86656 0.86814 0.0
H119 H 0.461 0.8024 0.86693 0.0
C120 C 0.68172 0.22059 0.21586 0.0
C121 C 0.71077 0.25821 0.24189 0.0
C122 C 0.79398 0.29346 0.20476 0.0
C123 C 0.76625 0.29462 0.23633 0.0
C124 C 0.76445 0.25594 0.17871 0.0
C125 C 0.70871 0.21988 0.18423 0.0
U126 U 0.57636 0.13621 0.2771 0.0
O127 O 0.4752 0.12114 0.28036 0.0
O128 O 0.52827 1.04303 0.27534 0.0
C129 C 0.47335 1.06179 0.27669 0.0
C130 C 0.6251 0.17988 0.22203 0.0
C131 C 0.42517 1.02996 0.25395 0.0
C132 C 0.34667 1.02888 0.20971 0.0
C133 C 0.39681 1.05944 0.22829 0.0
C134 C 0.35415 0.93888 0.24154 0.0
C135 C 0.32398 0.96862 0.21667 0.0
C136 C 0.40402 0.96926 0.25997 0.0
C137 C 0.61706 0.14925 0.36953 0.0
C138 C 0.55637 1.08496 0.40789 0.0
C139 C 0.62519 0.17185 0.42955 0.0
C140 C 0.64312 0.18536 0.39683 0.0
C141 C 0.58095 0.12201 0.43528 0.0
C142 C 0.57403 1.09866 0.37527 0.0
C143 C 0.63213 0.16606 0.33506 0.0
O144 O 0.63437 0.12644 0.23304 0.0
O145 O 0.58201 0.20481 0.23839 0.0
O146 O 0.59358 0.1993 0.32093 0.0
O147 O 0.6465 0.12154 0.3152 0.0
H148 H 0.69095 0.25883 0.26663 0.0
H149 H 0.7882 0.32255 0.25696 0.0
H150 H 0.78438 0.25462 0.15403 0.0
H151 H 0.68703 0.19094 0.16391 0.0
H152 H 0.32441 1.05301 0.19072 0.0
H153 H 0.41235 1.10634 0.22314 0.0
H154 H 0.33877 0.89209 0.24704 0.0
H155 H 0.42524 0.94562 0.27959 0.0
H156 H 0.52218 1.04631 0.41156 0.0
H157 H 0.64488 0.20112 0.45024 0.0
H158 H 0.67629 0.22468 0.3928 0.0
H159 H 0.55316 1.07045 0.35444 0.0
C160 C 0.57205 0.79173 0.55393 0.0
C161 C 0.51686 0.81893 0.5543 0.0
C162 C 0.57194 0.919 0.54253 0.0
C163 C 0.51684 0.88124 0.54882 0.0
C164 C 0.6274 0.89212 0.54258 0.0
C165 C 0.62738 0.82945 0.548 0.0
U166 U 0.56382 0.62455 0.59026 0.0
O167 O 0.51061 0.54151 0.56717 0.0
O168 O 0.6116 0.55028 0.56851 0.0
C169 C 0.56026 0.51575 0.55974 0.0
C170 C 0.57069 0.72363 0.55418 0.0
C171 C 0.55887 0.44776 0.56135 0.0
C172 C 0.61345 0.35779 0.55371 0.0
C173 C 0.61409 0.42094 0.55864 0.0
C174 C 0.50213 0.34501 0.55487 0.0
C175 C 0.55752 0.31863 0.55118 0.0
C176 C 0.50278 0.40862 0.5596 0.0
C177 C 0.55805 0.64203 0.69324 0.0
C178 C 0.60321 0.63166 0.74899 0.0
C179 C 0.50876 0.67799 0.74354 0.0
C180 C 0.50968 0.66875 0.70854 0.0
C181 C 0.55563 0.65984 0.76422 0.0
C182 C 0.60472 0.62341 0.71389 0.0
C183 C 0.56059 0.63548 0.65595 0.0
O184 O 0.6194 0.70031 0.56549 0.0
O185 O 0.51863 0.69107 0.5616 0.0
O186 O 0.51048 0.6303 0.63676 0.0
O187 O 0.6126 0.63419 0.63978 0.0
H188 H 0.47303 0.79177 0.55799 0.0
H189 H 0.47301 0.89959 0.54919 0.0
H190 H 0.67085 0.9193 0.53799 0.0
H191 H 0.6707 0.81018 0.54669 0.0
H192 H 0.65732 0.33982 0.55126 0.0
H193 H 0.65823 0.44907 0.55907 0.0
H194 H 0.4581 0.31677 0.5531 0.0
H195 H 0.45912 0.42729 0.56076 0.0
H196 H 0.6401 0.61723 0.76414 0.0
H197 H 0.4714 0.69971 0.75444 0.0
H198 H 0.47314 0.68378 0.69337 0.0
H199 H 0.64256 0.60259 0.70289 0.0
C200 C 0.90412 0.65769 0.88012 0.0
C201 C 0.86482 0.60324 0.88318 0.0
C202 C 0.77428 0.65724 0.87758 0.0
C203 C 0.80064 0.60306 0.88205 0.0
C204 C 0.81356 0.71202 0.87608 0.0
C205 C 0.87771 0.71218 0.8772 0.0
U206 U 0.08369 0.65664 0.89687 0.0
O207 O 0.14102 0.60476 0.86443 0.0
O208 O 0.15543 0.70443 0.86612 0.0
C209 C 0.17554 0.65375 0.85528 0.0
C210 C 0.97055 0.65657 0.87325 0.0
C211 C 0.24267 0.65132 0.85766 0.0
C212 C 0.33372 0.60849 0.83765 0.0
C213 C 0.26995 0.6111 0.8362 0.0
C214 C 0.34367 0.68651 0.88209 0.0
C215 C 0.37124 0.64651 0.86047 0.0
C216 C 0.27998 0.68867 0.88084 0.0
C217 C 0.07943 0.65108 0.99516 0.0
C218 C 0.09143 0.67551 0.05521 0.0
C219 C 1.02091 0.58875 0.03532 0.0
C220 C 1.0346 0.60253 1.00215 0.0
C221 C 1.05095 0.62365 0.06211 0.0
C222 C 0.10591 0.68885 0.02191 0.0
C223 C 0.10754 0.65574 0.96167 0.0
O224 O 1.00823 0.70651 0.87985 0.0
O225 O 0.99542 0.6066 0.8791 0.0
O226 O 0.09921 0.60664 0.94195 0.0
O227 O 0.10576 0.70631 0.94556 0.0
H228 H 0.88347 0.56028 0.8849 0.0
H229 H 0.77181 0.56006 0.8836 0.0
H230 H 0.79491 0.75464 0.87284 0.0
H231 H 0.90659 0.75477 0.87414 0.0
H232 H 0.35365 0.57737 0.82065 0.0
H233 H 0.24186 0.58184 0.81817 0.0
H234 H 0.37126 0.71629 0.90007 0.0
H235 H 0.26007 0.71975 0.89788 0.0
H236 H 0.11549 0.70282 0.07544 0.0
H237 H 0.9892 0.54867 0.04004 0.0
H238 H 1.01317 0.57268 0.98215 0.0
H239 H 0.14096 0.72627 1.01718 0.0
C240 C 0.98506 0.48694 0.47697 0.0
C241 C 0.95083 0.45194 0.45159 0.0
C242 C 0.91219 0.37746 0.49235 0.0
C243 C 0.91477 0.39764 0.4592 0.0
C244 C 0.94711 0.41266 0.51754 0.0
C245 C 0.98313 0.46673 0.5099 0.0
U246 U 0.06137 0.60523 0.41713 0.0
O247 O 0.06896 0.70506 0.42091 0.0
O248 O 0.15288 0.65922 0.42085 0.0
C249 C 0.12958 0.71119 0.42365 0.0
C250 C 1.0225 0.54481 0.46991 0.0
C251 C 0.15964 0.75764 0.44826 0.0
C252 C 0.15744 0.8523 0.48099 0.0
C253 C 0.1265 0.80206 0.46303 0.0
C254 C 0.25499 0.81366 0.47097 0.0
C255 C 0.22225 0.85954 0.48447 0.0
C256 C 0.2241 0.76354 0.45301 0.0
C257 C 1.04838 0.58538 0.32253 0.0
C258 C 0.10233 0.66143 0.28756 0.0
C259 C 1.03214 0.57943 0.262 0.0
C260 C 1.01963 0.55612 0.29371 0.0
C261 C 0.07391 0.632 0.25863 0.0
C262 C 0.08987 0.63819 0.31926 0.0
C263 C 1.03357 0.56199 0.35595 0.0
O264 O 0.07631 0.54032 0.45622 0.0
O265 O 0.99268 0.58645 0.45643 0.0
O266 O 0.997 0.59313 0.37369 0.0
O267 O 0.08083 0.54749 0.37352 0.0
H268 H 0.95168 0.46684 0.42599 0.0
H269 H 0.88802 0.37206 0.43925 0.0
H270 H 0.94703 0.39816 0.5432 0.0
H271 H 1.00944 0.49296 0.52981 0.0
H272 H 0.13067 0.88632 0.49143 0.0
H273 H 0.07688 0.79942 0.45963 0.0
H274 H 0.30494 0.81796 0.47269 0.0
H275 H 0.25118 0.73083 0.44146 0.0
H276 H 0.13398 0.70261 0.28567 0.0
H277 H 1.00723 0.55789 0.24033 0.0
H278 H 0.9867 0.5159 0.29579 0.0
H279 H 0.11207 0.66176 0.34127 0.0
C280 C 0.39894 1.09738 0.84839 0.0
C281 C 0.37116 1.04402 0.83175 0.0
C282 C 0.39032 0.99026 0.88191 0.0
C283 C 0.36814 0.98948 0.8485 0.0
C284 C 0.39422 1.0456 0.90059 0.0
C285 C 0.39948 1.09989 0.88353 0.0
U286 U 0.49984 0.13722 0.77287 0.0
O287 O 0.57301 0.21142 0.76399 0.0
O288 O 0.59588 0.11798 0.76728 0.0
C289 C 0.61705 0.17573 0.76585 0.0
C290 C 0.45388 0.12884 0.83301 0.0
C291 C 0.66674 0.19788 0.78982 0.0
C292 C 0.69079 0.21878 0.84877 0.0
C293 C 0.66429 0.17927 0.82312 0.0
C294 C 0.73157 0.28918 0.80764 0.0
C295 C 0.71391 0.27857 0.84101 0.0
C296 C 0.70652 0.24929 0.78192 0.0
C297 C 0.4651 1.1139 0.68475 0.0
C298 C 0.54608 0.16683 0.65182 0.0
C299 C 0.48685 1.0744 0.62947 0.0
C300 C 0.45237 1.07005 0.65875 0.0
C301 C 0.53464 0.12232 0.62618 0.0
C302 C 0.5117 0.16264 0.68084 0.0
C303 C 0.43786 1.10545 0.71788 0.0
O304 O 0.49027 1.09129 0.82009 0.0
O305 O 0.44759 0.1754 0.81425 0.0
O306 O 0.43226 0.15665 0.73454 0.0
O307 O 0.46234 1.0655 0.73598 0.0
H308 H 0.36681 1.04184 0.80461 0.0
H309 H 0.36076 0.94762 0.83346 0.0
H310 H 0.40656 1.04738 0.92706 0.0
H311 H 0.41717 0.14152 0.89722 0.0
H312 H 0.68107 0.2073 0.87449 0.0
H313 H 0.6354 0.13844 0.82975 0.0
H314 H 0.75352 0.33303 0.80045 0.0
H315 H 0.71075 0.26319 0.75618 0.0
H316 H 0.58232 0.20431 0.64975 0.0
H317 H 0.47727 1.03944 0.60984 0.0
H318 H 0.41746 1.03166 0.66155 0.0
H319 H 0.52319 0.19667 0.70075 0.0
C320 C 0.74204 0.64077 0.17148 0.0
C321 C 0.77744 0.68673 0.15429 0.0
C322 C 0.87146 0.64111 0.16658 0.0
C323 C 0.84169 0.68704 0.15201 0.0
C324 C 0.83567 0.59558 0.18386 0.0
C325 C 0.77193 0.59562 0.18637 0.0
U326 U 0.57825 0.63791 0.1337 0.0
O327 O 0.49446 0.57794 0.14665 0.0
O328 O 0.49839 0.67692 0.15466 0.0
C329 C 0.46512 0.62369 0.15661 0.0
C330 C 0.6742 0.63806 0.17436 0.0
C331 C 0.39786 0.61973 0.14918 0.0
C332 C 0.29524 0.56567 0.15719 0.0
C333 C 0.35964 0.56681 0.15721 0.0
C334 C 0.30583 0.66976 0.13977 0.0
C335 C 0.26758 0.61774 0.14941 0.0
C336 C 0.37015 0.67079 0.1397 0.0
C337 C 0.57717 0.65162 0.03506 0.0
C338 C 0.51805 0.60354 0.98711 0.0
C339 C 0.59805 0.68691 0.97889 0.0
C340 C 0.6096 0.69199 1.01345 0.0
C341 C 0.55362 0.64136 0.9653 0.0
C342 C 0.52997 0.60839 0.02181 0.0
C343 C 0.6011 0.64976 0.06971 0.0
O344 O 0.64887 0.68739 0.16776 0.0
O345 O 0.64242 0.58815 0.16187 0.0
O346 O 0.59416 0.59709 0.08422 0.0
O347 O 0.59578 0.69638 0.09028 0.0
H348 H 0.75557 0.72215 0.14248 0.0
H349 H 0.86781 0.72266 0.13847 0.0
H350 H 0.85681 0.55967 0.19566 0.0
H351 H 0.74577 0.55991 0.19987 0.0
H352 H 0.26742 0.52478 0.16463 0.0
H353 H 0.37972 0.52705 0.1651 0.0
H354 H 0.28631 0.71061 0.13324 0.0
H355 H 0.39811 0.71248 0.1336 0.0
H356 H 0.48333 0.56815 0.97727 0.0
H357 H 0.62589 0.7169 0.9627 0.0
H358 H 0.6465 0.72537 0.02312 0.0
H359 H 0.50446 0.57656 0.03798 0.0
loop_
_geom_bond_atom_site_label_1
_geom_bond_atom_site_label_2
_geom_bond_distance
_geom_bond_site_symmetry_2
_ccdc_geom_bond_type
Pr0 C2 2.880 . S
Pr0 O20 2.562 . S
Pr0 O21 2.490 . S
Pr0 O22 2.695 1_655 S
Pr0 O23 2.512 . S
Pr0 O25 2.437 . S
Pr0 O28 2.436 . S
Pr0 O30 2.438 1_655 S
Pr1 C11 2.880 . S
Pr1 O22 2.436 . S
Pr1 O24 2.438 1_455 S
Pr1 O26 2.562 . S
Pr1 O27 2.490 . S
Pr1 O28 2.695 1_455 S
Pr1 O29 2.512 . S
Pr1 O31 2.437 . S
C2 Pr0 2.880 . S
C2 C3 1.491 . S
C2 O20 1.254 . S
C2 O21 1.225 . S
C3 C2 1.491 . S
C3 C4 1.392 . S
C3 C8 1.356 . S
C4 C3 1.392 . S
C4 C5 1.368 . S
C4 H32 0.929 . S
C5 C4 1.368 . S
C5 C6 1.386 . S
C5 H33 0.929 . S
C6 C5 1.386 . S
C6 C7 1.373 . S
C7 C6 1.373 . S
C7 C8 1.409 . S
C7 H34 0.931 . S
C8 C3 1.356 . S
C8 C7 1.409 . S
C8 H35 0.930 . S
C9 O22 1.270 . S
C9 O23 1.248 1_455 S
C10 O24 1.267 . S
C10 O25 1.278 . S
C11 Pr1 2.880 . S
C11 C12 1.491 . S
C11 O26 1.254 . S
C11 O27 1.225 . S
C12 C11 1.491 . S
C12 C13 1.392 . S
C12 C17 1.356 . S
C13 C12 1.392 . S
C13 C14 1.368 . S
C13 H36 0.929 . S
C14 C13 1.368 . S
C14 C15 1.386 . S
C14 H37 0.929 . S
C15 C14 1.386 . S
C15 C16 1.373 . S
C16 C15 1.373 . S
C16 C17 1.409 . S
C16 H38 0.931 . S
C17 C12 1.356 . S
C17 C16 1.409 . S
C17 H39 0.930 . S
C18 O28 1.270 1_455 S
C18 O29 1.248 . S
C19 O30 1.267 . S
C19 O31 1.278 . S
O20 Pr0 2.562 . S
O20 C2 1.254 . S
O21 Pr0 2.490 . S
O21 C2 1.225 . S
O22 Pr0 2.695 1_455 S
O22 Pr1 2.436 . S
O22 C9 1.270 . S
O23 Pr0 2.512 . S
O23 C9 1.248 1_655 S
O24 Pr1 2.438 1_655 S
O24 C10 1.267 . S
O25 Pr0 2.437 . S
O25 C10 1.278 . S
O26 Pr1 2.562 . S
O26 C11 1.254 . S
O27 Pr1 2.490 . S
O27 C11 1.225 . S
O28 Pr0 2.436 . S
O28 Pr1 2.695 1_655 S
O28 C18 1.270 1_655 S
O29 Pr1 2.512 . S
O29 C18 1.248 . S
O30 Pr0 2.438 1_455 S
O30 C19 1.267 . S
O31 Pr1 2.437 . S
O31 C19 1.278 . S
H32 C4 0.929 . S
H33 C5 0.929 . S
H34 C7 0.931 . S
H35 C8 0.930 . S
H36 C13 0.929 . S
H37 C14 0.929 . S
H38 C16 0.931 . S
H39 C17 0.930 . S
Pr40 C42 2.880 . S
Pr40 O60 2.562 . S
Pr40 O61 2.490 . S
Pr40 O62 2.695 1_545 S
Pr40 O63 2.512 . S
Pr40 O65 2.437 . S
Pr40 O68 2.436 . S
Pr40 O70 2.438 1_545 S
Pr41 C51 2.880 . S
Pr41 O62 2.436 . S
Pr41 O64 2.438 1_565 S
Pr41 O66 2.562 . S
Pr41 O67 2.490 . S
Pr41 O68 2.695 1_565 S
Pr41 O69 2.512 . S
Pr41 O71 2.437 . S
C42 Pr40 2.880 . S
C42 C43 1.491 . S
C42 O60 1.254 . S
C42 O61 1.225 . S
C43 C42 1.491 . S
C43 C44 1.392 . S
C43 C48 1.356 . S
C44 C43 1.392 . S
C44 C45 1.368 . S
C44 H72 0.929 . S
C45 C44 1.368 . S
C45 C46 1.386 . S
C45 H73 0.929 . S
C46 C45 1.386 . S
C46 C47 1.373 . S
C47 C46 1.373 . S
C47 C48 1.409 . S
C47 H74 0.931 . S
C48 C43 1.356 . S
C48 C47 1.409 . S
C48 H75 0.930 . S
C49 O62 1.270 1_545 S
C49 O63 1.248 . S
C50 O64 1.267 . S
C50 O65 1.278 . S
C51 Pr41 2.880 . S
C51 C52 1.491 . S
C51 O66 1.254 . S
C51 O67 1.225 . S
C52 C51 1.491 . S
C52 C53 1.392 . S
C52 C57 1.356 . S
C53 C52 1.392 . S
C53 C54 1.368 . S
C53 H76 0.929 . S
C54 C53 1.368 . S
C54 C55 1.386 . S
C54 H77 0.929 . S
C55 C54 1.386 . S
C55 C56 1.373 . S
C56 C55 1.373 . S
C56 C57 1.409 . S
C56 H78 0.931 . S
C57 C52 1.356 . S
C57 C56 1.409 . S
C57 H79 0.930 . S
C58 O68 1.270 . S
C58 O69 1.248 1_545 S
C59 O70 1.267 . S
C59 O71 1.278 . S
O60 Pr40 2.562 . S
O60 C42 1.254 . S
O61 Pr40 2.490 . S
O61 C42 1.225 . S
O62 Pr40 2.695 1_565 S
O62 Pr41 2.436 . S
O62 C49 1.270 1_565 S
O63 Pr40 2.512 . S
O63 C49 1.248 . S
O64 Pr41 2.438 1_545 S
O64 C50 1.267 . S
O65 Pr40 2.437 . S
O65 C50 1.278 . S
O66 Pr41 2.562 . S
O66 C51 1.254 . S
O67 Pr41 2.490 . S
O67 C51 1.225 . S
O68 Pr40 2.436 . S
O68 Pr41 2.695 1_545 S
O68 C58 1.270 . S
O69 Pr41 2.512 . S
O69 C58 1.248 1_565 S
O70 Pr40 2.438 1_565 S
O70 C59 1.267 . S
O71 Pr41 2.437 . S
O71 C59 1.278 . S
H72 C44 0.929 . S
H73 C45 0.929 . S
H74 C47 0.931 . S
H75 C48 0.930 . S
H76 C53 0.929 . S
H77 C54 0.929 . S
H78 C56 0.931 . S
H79 C57 0.930 . S
Pr80 C82 2.880 . S
Pr80 O100 2.562 . S
Pr80 O101 2.490 . S
Pr80 O102 2.695 . S
Pr80 O103 2.512 . S
Pr80 O105 2.437 . S
Pr80 O108 2.436 . S
Pr80 O110 2.438 . S
Pr81 C91 2.880 . S
Pr81 O102 2.436 . S
Pr81 O104 2.438 . S
Pr81 O106 2.562 . S
Pr81 O107 2.490 . S
Pr81 O108 2.695 . S
Pr81 O109 2.512 . S
Pr81 O111 2.437 . S
C82 Pr80 2.880 . S
C82 C83 1.491 . S
C82 O100 1.254 . S
C82 O101 1.225 . S
C83 C82 1.491 . S
C83 C84 1.392 . S
C83 C88 1.356 . S
C84 C83 1.392 . S
C84 C85 1.368 . S
C84 H112 0.929 . S
C85 C84 1.368 . S
C85 C86 1.386 . S
C85 H113 0.929 . S
C86 C85 1.386 . S
C86 C87 1.373 . S
C87 C86 1.373 . S
C87 C88 1.409 . S
C87 H114 0.931 . S
C88 C83 1.356 . S
C88 C87 1.409 . S
C88 H115 0.930 . S
C89 O102 1.270 . S
C89 O103 1.248 . S
C90 O104 1.267 . S
C90 O105 1.278 . S
C91 Pr81 2.880 . S
C91 C92 1.491 . S
C91 O106 1.254 . S
C91 O107 1.225 . S
C92 C91 1.491 . S
C92 C93 1.392 . S
C92 C97 1.356 . S
C93 C92 1.392 . S
C93 C94 1.368 . S
C93 H116 0.929 . S
C94 C93 1.368 . S
C94 C95 1.386 . S
C94 H117 0.929 . S
C95 C94 1.386 . S
C95 C96 1.373 . S
C96 C95 1.373 . S
C96 C97 1.409 . S
C96 H118 0.931 . S
C97 C92 1.356 . S
C97 C96 1.409 . S
C97 H119 0.930 . S
C98 O108 1.270 . S
C98 O109 1.248 . S
C99 O110 1.267 . S
C99 O111 1.278 . S
O100 Pr80 2.562 . S
O100 C82 1.254 . S
O101 Pr80 2.490 . S
O101 C82 1.225 . S
O102 Pr80 2.695 . S
O102 Pr81 2.436 . S
O102 C89 1.270 . S
O103 Pr80 2.512 . S
O103 C89 1.248 . S
O104 Pr81 2.438 . S
O104 C90 1.267 . S
O105 Pr80 2.437 . S
O105 C90 1.278 . S
O106 Pr81 2.562 . S
O106 C91 1.254 . S
O107 Pr81 2.490 . S
O107 C91 1.225 . S
O108 Pr80 2.436 . S
O108 Pr81 2.695 . S
O108 C98 1.270 . S
O109 Pr81 2.512 . S
O109 C98 1.248 . S
O110 Pr80 2.438 . S
O110 C99 1.267 . S
O111 Pr81 2.437 . S
O111 C99 1.278 . S
H112 C84 0.929 . S
H113 C85 0.929 . S
H114 C87 0.931 . S
H115 C88 0.930 . S
H116 C93 0.929 . S
H117 C94 0.929 . S
H118 C96 0.931 . S
H119 C97 0.930 . S
C120 C121 1.264 . S
C120 C125 1.479 . S
C120 C130 1.465 . S
C121 C120 1.264 . S
C121 C123 1.339 . S
C121 H148 0.931 . S
C122 C123 1.395 . S
C122 C124 1.320 . S
C123 C121 1.339 . S
C123 C122 1.395 . S
C123 H149 0.929 . S
C124 C122 1.320 . S
C124 C125 1.405 . S
C124 H150 0.930 . S
C125 C120 1.479 . S
C125 C124 1.405 . S
C125 H151 0.931 . S
U126 O127 2.454 1_545 S
U126 O128 2.458 1_545 S
U126 C129 2.984 1_545 S
U126 C130 2.847 . S
U126 C143 2.882 . S
U126 O144 2.441 . S
U126 O145 2.420 . S
U126 O146 2.455 . S
U126 O147 2.449 . S
O127 U126 2.454 1_565 S
O127 C129 1.353 . S
O128 U126 2.458 1_565 S
O128 C129 1.286 . S
C129 U126 2.984 1_565 S
C129 O127 1.353 . S
C129 O128 1.286 . S
C129 C131 1.363 . S
C130 C120 1.465 . S
C130 U126 2.847 . S
C130 O144 1.249 . S
C130 O145 1.202 . S
C131 C129 1.363 . S
C131 C133 1.408 . S
C131 C136 1.342 . S
C132 C133 1.310 . S
C132 C135 1.461 . S
C132 H152 0.932 . S
C133 C131 1.408 . S
C133 C132 1.310 . S
C133 H153 0.930 . S
C134 C135 1.474 . S
C134 C136 1.285 . S
C134 H154 0.929 . S
C135 C132 1.461 . S
C135 C134 1.474 . S
C136 C131 1.342 . S
C136 C134 1.285 . S
C136 H155 0.930 . S
C137 C140 1.424 . S
C137 C142 1.245 1_545 S
C137 C143 1.428 . S
C138 C141 1.260 1_565 S
C138 C142 1.477 . S
C138 H156 0.932 . S
C139 C140 1.384 . S
C139 C141 1.479 . S
C139 H157 0.929 . S
C140 C137 1.424 . S
C140 C139 1.384 . S
C140 H158 0.928 . S
C141 C138 1.260 1_545 S
C141 C139 1.479 . S
C142 C137 1.245 1_565 S
C142 C138 1.477 . S
C142 H159 0.932 . S
C143 U126 2.882 . S
C143 C137 1.428 . S
C143 O146 1.301 . S
C143 O147 1.282 . S
O144 U126 2.441 . S
O144 C130 1.249 . S
O145 U126 2.420 . S
O145 C130 1.202 . S
O146 U126 2.455 . S
O146 C143 1.301 . S
O147 U126 2.449 . S
O147 C143 1.282 . S
H148 C121 0.931 . S
H149 C123 0.929 . S
H150 C124 0.930 . S
H151 C125 0.931 . S
H152 C132 0.932 . S
H153 C133 0.930 . S
H154 C134 0.929 . S
H155 C136 0.930 . S
H156 C138 0.932 . S
H157 C139 0.929 . S
H158 C140 0.928 . S
H159 C142 0.932 . S
C160 C161 1.264 . S
C160 C165 1.479 . S
C160 C170 1.465 . S
C161 C160 1.264 . S
C161 C163 1.339 . S
C161 H188 0.931 . S
C162 C163 1.395 . S
C162 C164 1.320 . S
C163 C161 1.339 . S
C163 C162 1.395 . S
C163 H189 0.929 . S
C164 C162 1.320 . S
C164 C165 1.405 . S
C164 H190 0.930 . S
C165 C160 1.479 . S
C165 C164 1.405 . S
C165 H191 0.931 . S
U166 O167 2.454 . S
U166 O168 2.458 . S
U166 C169 2.984 . S
U166 C170 2.847 . S
U166 C183 2.882 . S
U166 O184 2.441 . S
U166 O185 2.420 . S
U166 O186 2.455 . S
U166 O187 2.449 . S
O167 U166 2.454 . S
O167 C169 1.353 . S
O168 U166 2.458 . S
O168 C169 1.286 . S
C169 U166 2.984 . S
C169 O167 1.353 . S
C169 O168 1.286 . S
C169 C171 1.363 . S
C170 C160 1.465 . S
C170 U166 2.847 . S
C170 O184 1.249 . S
C170 O185 1.202 . S
C171 C169 1.363 . S
C171 C173 1.408 . S
C171 C176 1.342 . S
C172 C173 1.310 . S
C172 C175 1.461 . S
C172 H192 0.932 . S
C173 C171 1.408 . S
C173 C172 1.310 . S
C173 H193 0.930 . S
C174 C175 1.474 . S
C174 C176 1.285 . S
C174 H194 0.929 . S
C175 C172 1.461 . S
C175 C174 1.474 . S
C176 C171 1.342 . S
C176 C174 1.285 . S
C176 H195 0.930 . S
C177 C180 1.424 . S
C177 C182 1.245 . S
C177 C183 1.428 . S
C178 C181 1.260 . S
C178 C182 1.477 . S
C178 H196 0.932 . S
C179 C180 1.384 . S
C179 C181 1.479 . S
C179 H197 0.929 . S
C180 C177 1.424 . S
C180 C179 1.384 . S
C180 H198 0.928 . S
C181 C178 1.260 . S
C181 C179 1.479 . S
C182 C177 1.245 . S
C182 C178 1.477 . S
C182 H199 0.932 . S
C183 U166 2.882 . S
C183 C177 1.428 . S
C183 O186 1.301 . S
C183 O187 1.282 . S
O184 U166 2.441 . S
O184 C170 1.249 . S
O185 U166 2.420 . S
O185 C170 1.202 . S
O186 U166 2.455 . S
O186 C183 1.301 . S
O187 U166 2.449 . S
O187 C183 1.282 . S
H188 C161 0.931 . S
H189 C163 0.929 . S
H190 C164 0.930 . S
H191 C165 0.931 . S
H192 C172 0.932 . S
H193 C173 0.930 . S
H194 C174 0.929 . S
H195 C176 0.930 . S
H196 C178 0.932 . S
H197 C179 0.929 . S
H198 C180 0.928 . S
H199 C182 0.932 . S
C200 C201 1.264 . S
C200 C205 1.479 . S
C200 C210 1.465 . S
C201 C200 1.264 . S
C201 C203 1.339 . S
C201 H228 0.931 . S
C202 C203 1.395 . S
C202 C204 1.320 . S
C203 C201 1.339 . S
C203 C202 1.395 . S
C203 H229 0.929 . S
C204 C202 1.320 . S
C204 C205 1.405 . S
C204 H230 0.930 . S
C205 C200 1.479 . S
C205 C204 1.405 . S
C205 H231 0.931 . S
U206 O207 2.454 . S
U206 O208 2.458 . S
U206 C209 2.984 . S
U206 C210 2.847 1_455 S
U206 C223 2.882 . S
U206 O224 2.441 1_455 S
U206 O225 2.420 1_455 S
U206 O226 2.455 . S
U206 O227 2.449 1_455 S
O207 U206 2.454 . S
O207 C209 1.353 . S
O208 U206 2.458 . S
O208 C209 1.286 . S
C209 U206 2.984 . S
C209 O207 1.353 . S
C209 O208 1.286 . S
C209 C211 1.363 . S
C210 C200 1.465 . S
C210 U206 2.847 1_655 S
C210 O224 1.249 . S
C210 O225 1.202 . S
C211 C209 1.363 . S
C211 C213 1.408 . S
C211 C216 1.342 . S
C212 C213 1.310 . S
C212 C215 1.461 . S
C212 H232 0.932 . S
C213 C211 1.408 . S
C213 C212 1.310 . S
C213 H233 0.930 . S
C214 C215 1.474 . S
C214 C216 1.285 . S
C214 H234 0.929 . S
C215 C212 1.461 . S
C215 C214 1.474 . S
C216 C211 1.342 . S
C216 C214 1.285 . S
C216 H235 0.930 . S
C217 C220 1.424 1_456 S
C217 C222 1.245 1_556 S
C217 C223 1.428 . S
C218 C221 1.260 . S
C218 C222 1.477 . S
C218 H236 0.932 . S
C219 C220 1.384 . S
C219 C221 1.479 1_655 S
C219 H237 0.929 . S
C220 C217 1.424 1_654 S
C220 C219 1.384 . S
C220 H238 0.928 1_554 S
C221 C218 1.260 . S
C221 C219 1.479 1_455 S
C222 C217 1.245 1_554 S
C222 C218 1.477 . S
C222 H239 0.932 . S
C223 U206 2.882 . S
C223 C217 1.428 . S
C223 O226 1.301 . S
C223 O227 1.282 1_455 S
O224 U206 2.441 1_655 S
O224 C210 1.249 . S
O225 U206 2.420 1_655 S
O225 C210 1.202 . S
O226 U206 2.455 . S
O226 C223 1.301 . S
O227 U206 2.449 1_655 S
O227 C223 1.282 1_655 S
H228 C201 0.931 . S
H229 C203 0.929 . S
H230 C204 0.930 . S
H231 C205 0.931 . S
H232 C212 0.932 . S
H233 C213 0.930 . S
H234 C214 0.929 . S
H235 C216 0.930 . S
H236 C218 0.932 . S
H237 C219 0.929 . S
H238 C220 0.928 1_556 S
H239 C222 0.932 . S
C240 C241 1.264 . S
C240 C245 1.479 . S
C240 C250 1.465 . S
C241 C240 1.264 . S
C241 C243 1.339 . S
C241 H268 0.931 . S
C242 C243 1.395 . S
C242 C244 1.320 . S
C243 C241 1.339 . S
C243 C242 1.395 . S
C243 H269 0.929 . S
C244 C242 1.320 . S
C244 C245 1.405 . S
C244 H270 0.930 . S
C245 C240 1.479 . S
C245 C244 1.405 . S
C245 H271 0.931 . S
U246 O247 2.454 1_655 S
U246 O248 2.458 1_655 S
U246 C249 2.984 1_655 S
U246 C250 2.847 . S
U246 C263 2.882 . S
U246 O264 2.441 . S
U246 O265 2.420 . S
U246 O266 2.455 1_655 S
U246 O267 2.449 . S
O247 U246 2.454 1_455 S
O247 C249 1.353 . S
O248 U246 2.458 1_455 S
O248 C249 1.286 . S
C249 U246 2.984 1_455 S
C249 O247 1.353 . S
C249 O248 1.286 . S
C249 C251 1.363 . S
C250 C240 1.465 . S
C250 U246 2.847 . S
C250 O264 1.249 . S
C250 O265 1.202 . S
C251 C249 1.363 . S
C251 C253 1.408 . S
C251 C256 1.342 . S
C252 C253 1.310 . S
C252 C255 1.461 . S
C252 H272 0.932 . S
C253 C251 1.408 . S
C253 C252 1.310 . S
C253 H273 0.930 . S
C254 C255 1.474 . S
C254 C256 1.285 . S
C254 H274 0.929 . S
C255 C252 1.461 . S
C255 C254 1.474 . S
C256 C251 1.342 . S
C256 C254 1.285 . S
C256 H275 0.930 . S
C257 C260 1.424 . S
C257 C262 1.245 1_655 S
C257 C263 1.428 . S
C258 C261 1.260 1_455 S
C258 C262 1.477 . S
C258 H276 0.932 . S
C259 C260 1.384 . S
C259 C261 1.479 . S
C259 H277 0.929 . S
C260 C257 1.424 . S
C260 C259 1.384 . S
C260 H278 0.928 . S
C261 C258 1.260 1_655 S
C261 C259 1.479 . S
C262 C257 1.245 1_455 S
C262 C258 1.477 . S
C262 H279 0.932 . S
C263 U246 2.882 . S
C263 C257 1.428 . S
C263 O266 1.301 1_655 S
C263 O267 1.282 . S
O264 U246 2.441 . S
O264 C250 1.249 . S
O265 U246 2.420 . S
O265 C250 1.202 . S
O266 U246 2.455 1_455 S
O266 C263 1.301 1_455 S
O267 U246 2.449 . S
O267 C263 1.282 . S
H268 C241 0.931 . S
H269 C243 0.929 . S
H270 C244 0.930 . S
H271 C245 0.931 . S
H272 C252 0.932 . S
H273 C253 0.930 . S
H274 C254 0.929 . S
H275 C256 0.930 . S
H276 C258 0.932 . S
H277 C259 0.929 . S
H278 C260 0.928 . S
H279 C262 0.932 . S
C280 C281 1.264 . S
C280 C285 1.479 . S
C280 C290 1.465 . S
C281 C280 1.264 . S
C281 C283 1.339 . S
C281 H308 0.931 . S
C282 C283 1.395 . S
C282 C284 1.320 . S
C283 C281 1.339 . S
C283 C282 1.395 . S
C283 H309 0.929 . S
C284 C282 1.320 . S
C284 C285 1.405 . S
C284 H310 0.930 . S
C285 C280 1.479 . S
C285 C284 1.405 . S
C285 H311 0.931 . S
U286 O287 2.454 1_565 S
U286 O288 2.458 1_565 S
U286 C289 2.984 1_565 S
U286 C290 2.847 . S
U286 C303 2.882 . S
U286 O304 2.441 . S
U286 O305 2.420 . S
U286 O306 2.455 1_565 S
U286 O307 2.449 . S
O287 U286 2.454 1_545 S
O287 C289 1.353 . S
O288 U286 2.458 1_545 S
O288 C289 1.286 . S
C289 U286 2.984 1_545 S
C289 O287 1.353 . S
C289 O288 1.286 . S
C289 C291 1.363 . S
C290 C280 1.465 . S
C290 U286 2.847 . S
C290 O304 1.249 . S
C290 O305 1.202 . S
C291 C289 1.363 . S
C291 C293 1.408 . S
C291 C296 1.342 . S
C292 C293 1.310 . S
C292 C295 1.461 . S
C292 H312 0.932 . S
C293 C291 1.408 . S
C293 C292 1.310 . S
C293 H313 0.930 . S
C294 C295 1.474 . S
C294 C296 1.285 . S
C294 H314 0.929 . S
C295 C292 1.461 . S
C295 C294 1.474 . S
C296 C291 1.342 . S
C296 C294 1.285 . S
C296 H315 0.930 . S
C297 C300 1.424 . S
C297 C302 1.245 1_565 S
C297 C303 1.428 . S
C298 C301 1.260 1_545 S
C298 C302 1.477 . S
C298 H316 0.932 . S
C299 C300 1.384 . S
C299 C301 1.479 . S
C299 H317 0.929 . S
C300 C297 1.424 . S
C300 C299 1.384 . S
C300 H318 0.928 . S
C301 C298 1.260 1_565 S
C301 C299 1.479 . S
C302 C297 1.245 1_545 S
C302 C298 1.477 . S
C302 H319 0.932 . S
C303 U286 2.882 . S
C303 C297 1.428 . S
C303 O306 1.301 1_565 S
C303 O307 1.282 . S
O304 U286 2.441 . S
O304 C290 1.249 . S
O305 U286 2.420 . S
O305 C290 1.202 . S
O306 U286 2.455 1_545 S
O306 C303 1.301 1_545 S
O307 U286 2.449 . S
O307 C303 1.282 . S
H308 C281 0.931 . S
H309 C283 0.929 . S
H310 C284 0.930 . S
H311 C285 0.931 . S
H312 C292 0.932 . S
H313 C293 0.930 . S
H314 C294 0.929 . S
H315 C296 0.930 . S
H316 C298 0.932 . S
H317 C299 0.929 . S
H318 C300 0.928 . S
H319 C302 0.932 . S
C320 C321 1.264 . S
C320 C325 1.479 . S
C320 C330 1.465 . S
C321 C320 1.264 . S
C321 C323 1.339 . S
C321 H348 0.931 . S
C322 C323 1.395 . S
C322 C324 1.320 . S
C323 C321 1.339 . S
C323 C322 1.395 . S
C323 H349 0.929 . S
C324 C322 1.320 . S
C324 C325 1.405 . S
C324 H350 0.930 . S
C325 C320 1.479 . S
C325 C324 1.405 . S
C325 H351 0.931 . S
U326 O327 2.454 . S
U326 O328 2.458 . S
U326 C329 2.984 . S
U326 C330 2.847 . S
U326 C343 2.882 . S
U326 O344 2.441 . S
U326 O345 2.420 . S
U326 O346 2.455 . S
U326 O347 2.449 . S
O327 U326 2.454 . S
O327 C329 1.353 . S
O328 U326 2.458 . S
O328 C329 1.286 . S
C329 U326 2.984 . S
C329 O327 1.353 . S
C329 O328 1.286 . S
C329 C331 1.363 . S
C330 C320 1.465 . S
C330 U326 2.847 . S
C330 O344 1.249 . S
C330 O345 1.202 . S
C331 C329 1.363 . S
C331 C333 1.408 . S
C331 C336 1.342 . S
C332 C333 1.310 . S
C332 C335 1.461 . S
C332 H352 0.932 . S
C333 C331 1.408 . S
C333 C332 1.310 . S
C333 H353 0.930 . S
C334 C335 1.474 . S
C334 C336 1.285 . S
C334 H354 0.929 . S
C335 C332 1.461 . S
C335 C334 1.474 . S
C336 C331 1.342 . S
C336 C334 1.285 . S
C336 H355 0.930 . S
C337 C340 1.424 1_554 S
C337 C342 1.245 1_554 S
C337 C343 1.428 . S
C338 C341 1.260 . S
C338 C342 1.477 . S
C338 H356 0.932 . S
C339 C340 1.384 . S
C339 C341 1.479 . S
C339 H357 0.929 . S
C340 C337 1.424 1_556 S
C340 C339 1.384 . S
C340 H358 0.928 1_556 S
C341 C338 1.260 . S
C341 C339 1.479 . S
C342 C337 1.245 1_556 S
C342 C338 1.477 . S
C342 H359 0.917 1_556 S
C343 U326 2.882 . S
C343 C337 1.428 . S
C343 O346 1.301 . S
C343 O347 1.282 . S
O344 U326 2.441 . S
O344 C330 1.249 . S
O345 U326 2.420 . S
O345 C330 1.202 . S
O346 U326 2.455 . S
O346 C343 1.301 . S
O347 U326 2.449 . S
O347 C343 1.282 . S
H348 C321 0.931 . S
H349 C323 0.929 . S
H350 C324 0.930 . S
H351 C325 0.931 . S
H352 C332 0.932 . S
H353 C333 0.930 . S
H354 C334 0.929 . S
H355 C336 0.930 . S
H356 C338 0.932 . S
H357 C339 0.929 . S
H358 C340 0.928 1_554 S
H359 C342 0.917 1_554 S
C19 C335 3.086 . S
C46 C242 2.057 . S
C95 C282 1.228 . S
C10 C322 3.560 . S
C255 C55 1.388 . S
C295 C86 2.816 . S
C59 C162 5.228 . S
C90 C202 3.672 . S
C15 C135 1.439 . S
C175 C50 5.117 . S
C215 C99 3.119 . S
C6 C122 1.291 . S
C221 C9 1.128 . S
C58 C141 1.435 . S
C98 C181 2.009 . S
C301 C49 1.637 1_565 S
C341 C89 1.093 . S
C18 C261 1.520 1_455 S
