# Generated by pormake.
# Topology soc, (4,6)-cn, num edge types: 1
# Building blocks:
#     Node 0, Type 0, BuildingBlock: ESEHIV_clean_sbu_0, # of connection points: 4
#     Node 1, Type 0, BuildingBlock: ESEHIV_clean_sbu_0, # of connection points: 4
#     Node 2, Type 0, BuildingBlock: ESEHIV_clean_sbu_0, # of connection points: 4
#     Node 3, Type 0, BuildingBlock: ESEHIV_clean_sbu_0, # of connection points: 4
#     Node 4, Type 0, BuildingBlock: ESEHIV_clean_sbu_0, # of connection points: 4
#     Node 5, Type 0, BuildingBlock: ESEHIV_clean_sbu_0, # of connection points: 4
#     Node 6, Type 0, BuildingBlock: ESEHIV_clean_sbu_0, # of connection points: 4
#     Node 7, Type 0, BuildingBlock: ESEHIV_clean_sbu_0, # of connection points: 4
#     Node 8, Type 0, BuildingBlock: ESEHIV_clean_sbu_0, # of connection points: 4
#     Node 9, Type 0, BuildingBlock: ESEHIV_clean_sbu_0, # of connection points: 4
#     Node 10, Type 0, BuildingBlock: ESEHIV_clean_sbu_0, # of connection points: 4
#     Node 11, Type 0, BuildingBlock: ESEHIV_clean_sbu_0, # of connection points: 4
#     Node 12, Type 1, BuildingBlock: KUMJIN_clean_sbu_0, # of connection points: 6
#     Node 13, Type 1, BuildingBlock: KUMJIN_clean_sbu_0, # of connection points: 6
#     Node 14, Type 1, BuildingBlock: KUMJIN_clean_sbu_0, # of connection points: 6
#     Node 15, Type 1, BuildingBlock: KUMJIN_clean_sbu_0, # of connection points: 6
#     Node 16, Type 1, BuildingBlock: KUMJIN_clean_sbu_0, # of connection points: 6
#     Node 17, Type 1, BuildingBlock: KUMJIN_clean_sbu_0, # of connection points: 6
#     Node 18, Type 1, BuildingBlock: KUMJIN_clean_sbu_0, # of connection points: 6
#     Node 19, Type 1, BuildingBlock: KUMJIN_clean_sbu_0, # of connection points: 6
#     Edge 20, Type (0, 1), BuildingBlock: XIVTED_clean_linker_0, # of connection points: 2
#     Edge 21, Type (0, 1), BuildingBlock: XIVTED_clean_linker_0, # of connection points: 2
#     Edge 22, Type (0, 1), BuildingBlock: XIVTED_clean_linker_0, # of connection points: 2
#     Edge 23, Type (0, 1), BuildingBlock: XIVTED_clean_linker_0, # of connection points: 2
#     Edge 24, Type (0, 1), BuildingBlock: XIVTED_clean_linker_0, # of connection points: 2
#     Edge 25, Type (0, 1), BuildingBlock: XIVTED_clean_linker_0, # of connection points: 2
#     Edge 26, Type (0, 1), BuildingBlock: XIVTED_clean_linker_0, # of connection points: 2
#     Edge 27, Type (0, 1), BuildingBlock: XIVTED_clean_linker_0, # of connection points: 2
#     Edge 28, Type (0, 1), BuildingBlock: XIVTED_clean_linker_0, # of connection points: 2
#     Edge 29, Type (0, 1), BuildingBlock: XIVTED_clean_linker_0, # of connection points: 2
#     Edge 30, Type (0, 1), BuildingBlock: XIVTED_clean_linker_0, # of connection points: 2
#     Edge 31, Type (0, 1), BuildingBlock: XIVTED_clean_linker_0, # of connection points: 2
#     Edge 32, Type (0, 1), BuildingBlock: XIVTED_clean_linker_0, # of connection points: 2
#     Edge 33, Type (0, 1), BuildingBlock: XIVTED_clean_linker_0, # of connection points: 2
#     Edge 34, Type (0, 1), BuildingBlock: XIVTED_clean_linker_0, # of connection points: 2
#     Edge 35, Type (0, 1), BuildingBlock: XIVTED_clean_linker_0, # of connection points: 2
#     Edge 36, Type (0, 1), BuildingBlock: XIVTED_clean_linker_0, # of connection points: 2
#     Edge 37, Type (0, 1), BuildingBlock: XIVTED_clean_linker_0, # of connection points: 2
#     Edge 38, Type (0, 1), BuildingBlock: XIVTED_clean_linker_0, # of connection points: 2
#     Edge 39, Type (0, 1), BuildingBlock: XIVTED_clean_linker_0, # of connection points: 2
#     Edge 40, Type (0, 1), BuildingBlock: XIVTED_clean_linker_0, # of connection points: 2
#     Edge 41, Type (0, 1), BuildingBlock: XIVTED_clean_linker_0, # of connection points: 2
#     Edge 42, Type (0, 1), BuildingBlock: XIVTED_clean_linker_0, # of connection points: 2
#     Edge 43, Type (0, 1), BuildingBlock: XIVTED_clean_linker_0, # of connection points: 2
#     Edge 44, Type (0, 1), BuildingBlock: XIVTED_clean_linker_0, # of connection points: 2
#     Edge 45, Type (0, 1), BuildingBlock: XIVTED_clean_linker_0, # of connection points: 2
#     Edge 46, Type (0, 1), BuildingBlock: XIVTED_clean_linker_0, # of connection points: 2
#     Edge 47, Type (0, 1), BuildingBlock: XIVTED_clean_linker_0, # of connection points: 2
#     Edge 48, Type (0, 1), BuildingBlock: XIVTED_clean_linker_0, # of connection points: 2
#     Edge 49, Type (0, 1), BuildingBlock: XIVTED_clean_linker_0, # of connection points: 2
#     Edge 50, Type (0, 1), BuildingBlock: XIVTED_clean_linker_0, # of connection points: 2
#     Edge 51, Type (0, 1), BuildingBlock: XIVTED_clean_linker_0, # of connection points: 2
#     Edge 52, Type (0, 1), BuildingBlock: XIVTED_clean_linker_0, # of connection points: 2
#     Edge 53, Type (0, 1), BuildingBlock: XIVTED_clean_linker_0, # of connection points: 2
#     Edge 54, Type (0, 1), BuildingBlock: XIVTED_clean_linker_0, # of connection points: 2
#     Edge 55, Type (0, 1), BuildingBlock: XIVTED_clean_linker_0, # of connection points: 2
#     Edge 56, Type (0, 1), BuildingBlock: XIVTED_clean_linker_0, # of connection points: 2
#     Edge 57, Type (0, 1), BuildingBlock: XIVTED_clean_linker_0, # of connection points: 2
#     Edge 58, Type (0, 1), BuildingBlock: XIVTED_clean_linker_0, # of connection points: 2
#     Edge 59, Type (0, 1), BuildingBlock: XIVTED_clean_linker_0, # of connection points: 2
#     Edge 60, Type (0, 1), BuildingBlock: XIVTED_clean_linker_0, # of connection points: 2
#     Edge 61, Type (0, 1), BuildingBlock: XIVTED_clean_linker_0, # of connection points: 2
#     Edge 62, Type (0, 1), BuildingBlock: XIVTED_clean_linker_0, # of connection points: 2
#     Edge 63, Type (0, 1), BuildingBlock: XIVTED_clean_linker_0, # of connection points: 2
#     Edge 64, Type (0, 1), BuildingBlock: XIVTED_clean_linker_0, # of connection points: 2
#     Edge 65, Type (0, 1), BuildingBlock: XIVTED_clean_linker_0, # of connection points: 2
#     Edge 66, Type (0, 1), BuildingBlock: XIVTED_clean_linker_0, # of connection points: 2
#     Edge 67, Type (0, 1), BuildingBlock: XIVTED_clean_linker_0, # of connection points: 2
# Relax obj value: 0.068
# Max RMSD: 0.200
# Mean RMSD: 0.141
data_MOF--net-soc--node1-ESEHIV_clean_sbu_0--node2-KUMJIN_clean_sbu_0--edge1-XIVTED_clean_linker_0
_symmetry_space_group_name_H-M    P1
_symmetry_Int_Tables_number       1
_symmetry_cell_setting            triclinic
loop_
_symmetry_equiv_pos_as_xyz
'x, y, z'
_cell_length_a     51.93173
_cell_length_b     50.334729
_cell_length_c     41.708275
_cell_angle_alpha  83.269063
_cell_angle_beta   81.468497
_cell_angle_gamma 72.676538
loop_
_atom_site_label
_atom_site_type_symbol
_atom_site_fract_x
_atom_site_fract_y
_atom_site_fract_z
_atom_type_partial_charge
Cu0 Cu 0.03908 0.04717 0.35761 0.0
N1 N 0.05181 0.06768 0.38329 0.0
N2 N 0.07631 0.09308 0.398 0.0
C3 C 0.07425 0.07654 0.37578 0.0
C4 C 0.0542 0.09493 0.4201 0.0
C5 C 0.03899 0.07959 0.41076 0.0
O6 O 0.0705 0.02196 0.33405 0.0
C7 C 0.99363 0.07326 0.32007 0.0
O8 O 0.99066 0.04843 0.31896 0.0
H9 H 0.08848 0.07139 0.35412 0.0
H10 H 1.01927 0.07847 0.42233 0.0
N11 N 1.01982 0.02435 0.38291 0.0
N12 N 0.99558 0.99366 0.39358 0.0
C13 C 1.01016 0.00618 0.37062 0.0
C14 C 1.01197 0.02237 0.41517 0.0
C15 C 0.99692 1.00348 0.42182 0.0
C16 C 0.08771 0.00695 0.3525 0.0
O17 O 0.083 0.01023 0.38383 0.0
H18 H 1.01385 1.00212 0.3452 0.0
H19 H 1.0166 0.03385 0.43276 0.0
O20 O 1.01408 0.07564 0.33183 0.0
H21 H 0.0487 0.10763 0.44065 0.0
H22 H 0.9871 0.99802 0.44536 0.0
Cu23 Cu 0.04868 0.04529 0.75015 0.0
N24 N 0.03531 0.02603 0.7236 0.0
N25 N 1.01354 0.9981 0.70871 0.0
C26 C 1.01772 0.01085 0.73343 0.0
C27 C 0.02899 0.0057 0.68236 0.0
C28 C 0.04235 0.02288 0.69158 0.0
O29 O 1.01754 0.07267 0.77223 0.0
C30 C 0.09382 1.00219 0.75561 0.0
O31 O 0.09286 0.00858 0.72428 0.0
H32 H 1.00887 0.00852 0.75841 0.0
H33 H 0.05679 0.03178 0.67613 0.0
N34 N 0.06958 0.06655 0.72544 0.0
N35 N 0.10228 0.08779 0.71332 0.0
C36 C 0.0908 0.07182 0.73568 0.0
C37 C 0.0673 0.07988 0.69563 0.0
C38 C 0.08757 0.09291 0.688 0.0
C39 C 1.00094 0.08717 0.75264 0.0
O40 O 1.00579 0.08135 0.72206 0.0
H41 H 0.09774 0.06388 0.75911 0.0
H42 H 0.05184 0.08044 0.68063 0.0
O43 O 0.07465 0.01646 0.7751 0.0
H44 H 0.03065 0.99921 0.65812 0.0
H45 H 0.09075 0.10577 0.66595 0.0
Cu46 Cu 0.33576 0.05617 0.1068 0.0
N47 N 0.36173 0.0306 0.08126 0.0
N48 N 0.37448 0.99325 0.05212 0.0
C49 C 0.35898 0.00536 0.07831 0.0
C50 C 0.38797 0.01164 0.03811 0.0
C51 C 0.38003 0.03474 0.0562 0.0
O52 O 0.3144 0.03314 0.13342 0.0
C53 C 0.31214 0.08174 0.04867 0.0
O54 O 0.31486 0.05613 0.04195 0.0
H55 H 0.34338 0.9976 0.09284 0.0
H56 H 0.38522 0.05412 0.04979 0.0
N57 N 0.352 0.07296 0.13274 0.0
N58 N 0.35747 0.10371 0.16402 0.0
C59 C 0.34022 0.09696 0.14724 0.0
C60 C 0.3776 0.06426 0.14036 0.0
C61 C 0.38102 0.08309 0.15972 0.0
C62 C 0.31857 0.02382 0.16265 0.0
O63 O 0.33313 0.03445 0.17786 0.0
H64 H 0.31928 0.10896 0.14582 0.0
H65 H 0.39271 0.04556 0.13234 0.0
O66 O 0.3171 0.0859 0.07644 0.0
H67 H 0.40109 0.0095 1.01528 0.0
H68 H 0.39956 0.08183 0.16949 0.0
Cu69 Cu 0.06753 0.30455 0.10951 0.0
N70 N 0.09608 0.28126 0.08379 0.0
N71 N 0.1299 0.27114 0.04292 0.0
C72 C 0.10734 0.29036 0.05496 0.0
C73 C 0.13284 0.24896 0.06516 0.0
C74 C 0.11206 0.25531 0.09037 0.0
O75 O 0.08549 0.32477 0.13282 0.0
C76 C 0.03134 0.30834 0.06753 0.0
O77 O 0.04009 0.2815 0.07601 0.0
H78 H 0.09986 0.31134 0.04399 0.0
H79 H 0.10965 0.24235 0.11248 0.0
N80 N 0.0466 0.28632 0.14016 0.0
N81 N 1.00938 0.2808 0.17188 0.0
C82 C 1.02065 0.29863 0.15207 0.0
C83 C 0.05195 0.25966 0.15281 0.0
C84 C 0.02913 0.25626 0.17251 0.0
C85 C 0.0962 0.31143 0.1579 0.0
O86 O 0.09286 0.28678 0.16751 0.0
H87 H 1.01019 0.32027 0.14592 0.0
H88 H 0.07084 0.24364 0.14777 0.0
O89 O 0.04162 0.32492 0.07894 0.0
H90 H 0.14917 0.22971 0.0638 0.0
H91 H 0.02704 0.23694 0.18546 0.0
Cu92 Cu 0.7986 0.02049 1.0 0.0
N93 N 0.81594 0.04102 0.96877 0.0
N94 N 0.82318 0.07888 0.93971 0.0
C95 C 0.80713 0.06895 0.96353 0.0
C96 C 0.84284 0.05614 0.9294 0.0
C97 C 0.83831 0.03277 0.94741 0.0
O98 O 0.77667 0.04772 0.03077 0.0
C99 C 0.79658 0.97735 0.96553 0.0
O100 O 0.82269 0.97135 0.96764 0.0
H101 H 0.78896 0.08166 0.9767 0.0
H102 H 0.85043 0.01137 0.94505 0.0
N103 N 0.82282 0.99469 0.02524 0.0
N104 N 0.83581 0.96643 0.06875 0.0
C105 C 0.81475 0.98363 0.05448 0.0
C106 C 0.85006 0.98428 0.02077 0.0
C107 C 0.85813 0.96645 0.04757 0.0
C108 C 0.79132 0.05628 0.04704 0.0
O109 O 0.81788 0.04686 0.0412 0.0
H110 H 0.79368 0.98783 0.06483 0.0
H111 H 0.86308 0.98923 0.99964 0.0
O112 O 0.78066 0.9993 0.97803 0.0
H113 H 0.85947 0.05632 0.91046 0.0
H114 H 0.87872 0.9545 0.05123 0.0
Cu115 Cu 0.0401 0.75937 0.01829 0.0
N116 N 0.02527 0.74383 0.9891 0.0
N117 N 0.99611 0.73967 0.9567 0.0
C118 C 1.00315 0.75703 0.97392 0.0
C119 C 1.01464 0.71465 0.96105 0.0
C120 C 0.03265 0.7173 0.98088 0.0
O121 O 1.00986 0.7776 0.05122 0.0
C122 C 0.07501 0.77701 0.96371 0.0
O123 O 0.06266 0.76598 0.94587 0.0
H124 H 0.99185 0.77869 0.97648 0.0
H125 H 0.04965 0.70091 0.98912 0.0
N126 N 0.06284 0.73279 0.04428 0.0
N127 N 0.09251 0.71962 0.08085 0.0
C128 C 0.07984 0.74036 0.06023 0.0
C129 C 0.06464 0.7061 0.05515 0.0
C130 C 0.0833 0.69777 0.07757 0.0
C131 C 0.99274 0.76389 0.06253 0.0
O132 O 0.99502 0.74042 0.05005 0.0
H133 H 0.08244 0.76111 0.05709 0.0
H134 H 0.0526 0.69395 0.04831 0.0
O135 O 0.06609 0.77931 0.99399 0.0
H136 H 1.0151 0.69575 0.9507 0.0
H137 H 0.08882 0.67768 0.09126 0.0
Cu138 Cu 0.54126 0.54127 0.86275 0.0
N139 N 0.55386 0.56079 0.88933 0.0
N140 N 0.57442 0.58985 0.90415 0.0
C141 C 0.57256 0.57478 0.88027 0.0
C142 C 0.55626 0.58499 0.92917 0.0
C143 C 0.54355 0.56721 0.91991 0.0
O144 O 0.57344 0.51875 0.83735 0.0
C145 C 0.49777 0.56956 0.82103 0.0
O146 O 0.50082 0.54624 0.80775 0.0
H147 H 0.58346 0.57505 0.85607 0.0
H148 H 0.52714 0.56036 0.93401 0.0
N149 N 0.52491 0.51661 0.88892 0.0
N150 N 0.50165 0.4853 0.9039 0.0
C151 C 0.50651 0.50521 0.88107 0.0
C152 C 0.53185 0.50369 0.91776 0.0
C153 C 0.51745 0.48456 0.92718 0.0
C154 C 0.57458 0.49523 0.82777 0.0
O155 O 0.55192 0.4887 0.8278 0.0
H156 H 0.49812 0.51034 0.8582 0.0
H157 H 0.54711 0.50716 0.93048 0.0
O158 O 0.5137 0.57035 0.84114 0.0
H159 H 0.552 0.5941 0.95232 0.0
H160 H 0.5191 0.4708 0.94919 0.0
Cu161 Cu 0.55752 0.55037 0.2591 0.0
N162 N 0.54614 0.52644 0.23689 0.0
N163 N 0.52435 0.49686 0.22609 0.0
C164 C 0.52565 0.51496 0.24694 0.0
C165 C 0.54483 0.49711 0.20205 0.0
C166 C 0.55826 0.51522 0.20885 0.0
O167 O 0.52568 0.57731 0.28 0.0
C168 C 0.60773 0.51554 0.27287 0.0
O169 O 0.61329 0.52224 0.24178 0.0
H170 H 0.51254 0.51917 0.2696 0.0
H171 H 0.57599 0.51947 0.19468 0.0
N172 N 0.57527 0.57237 0.23016 0.0
N173 N 0.60015 0.60191 0.21282 0.0
C174 C 0.5915 0.58626 0.23838 0.0
C175 C 0.5733 0.57946 0.19835 0.0
C176 C 0.58863 0.59759 0.18758 0.0
C177 C 0.50851 0.59023 0.26043 0.0
O178 O 0.51284 0.58255 0.23059 0.0
H179 H 0.59652 0.58491 0.26287 0.0
H180 H 0.56102 0.57255 0.18418 0.0
O181 O 0.58381 0.52611 0.28695 0.0
H182 H 0.54989 0.48503 0.18101 0.0
H183 H 0.59035 0.60736 0.16316 0.0
Cu184 Cu 0.79746 0.57935 0.60355 0.0
N185 N 0.77434 0.60286 0.57577 0.0
N186 N 0.7652 0.63215 0.53186 0.0
C187 C 0.78113 0.62331 0.55596 0.0
C188 C 0.7471 0.61715 0.53738 0.0
C189 C 0.75278 0.59904 0.56464 0.0
O190 O 0.81292 0.60324 0.6241 0.0
C191 C 0.82317 0.54758 0.54828 0.0
O192 O 0.81354 0.5705 0.53008 0.0
H193 H 0.79958 0.62892 0.5568 0.0
H194 H 0.74358 0.58256 0.57379 0.0
N195 N 0.77803 0.5611 0.63476 0.0
N196 N 0.76801 0.52442 0.66333 0.0
C197 C 0.78617 0.53339 0.64173 0.0
C198 C 0.75384 0.57031 0.65271 0.0
C199 C 0.74763 0.5476 0.67061 0.0
C200 C 0.81837 0.59903 0.6534 0.0
O201 O 0.81748 0.57535 0.66987 0.0
H202 H 0.80518 0.52007 0.63104 0.0
H203 H 0.74142 0.5918 0.65228 0.0
O204 O 0.82225 0.54884 0.57888 0.0
H205 H 0.7322 0.61769 0.52153 0.0
H206 H 0.72927 0.54804 0.68692 0.0
Cu207 Cu 0.57268 0.8048 0.58924 0.0
N208 N 0.60372 0.78403 0.56279 0.0
N209 N 0.63985 0.77584 0.52376 0.0
C210 C 0.61636 0.79438 0.53539 0.0
C211 C 0.64189 0.75292 0.54482 0.0
C212 C 0.61987 0.75804 0.56871 0.0
O213 O 0.5881 0.82354 0.61716 0.0
C214 C 0.54372 0.81451 0.53846 0.0
O215 O 0.55587 0.78755 0.53923 0.0
H216 H 0.60895 0.81557 0.52496 0.0
H217 H 0.61645 0.74406 0.58955 0.0
N218 N 0.5499 0.78483 0.61547 0.0
N219 N 0.51311 0.77719 0.64751 0.0
C220 C 0.52449 0.79643 0.63038 0.0
C221 C 0.55459 0.75724 0.62321 0.0
C222 C 0.53221 0.75252 0.64288 0.0
C223 C 0.59304 0.81243 0.64559 0.0
O224 O 0.58436 0.79083 0.65715 0.0
H225 H 0.51468 0.81868 0.6289 0.0
H226 H 0.57295 0.74152 0.61512 0.0
O227 O 0.54867 0.82862 0.55909 0.0
H228 H 0.65832 0.73374 0.54341 0.0
H229 H 0.53009 0.73227 0.65254 0.0
Cu230 Cu 0.28636 0.5248 0.52056 0.0
N231 N 0.30559 0.54588 0.4917 0.0
N232 N 0.31303 0.58274 0.45972 0.0
C233 C 0.2958 0.57335 0.48273 0.0
C234 C 0.33456 0.5601 0.45416 0.0
C235 C 0.32988 0.53749 0.47373 0.0
O236 O 0.26067 0.55169 0.54834 0.0
C237 C 0.2864 0.48384 0.48234 0.0
O238 O 0.3122 0.4775 0.48632 0.0
H239 H 0.27593 0.58591 0.49223 0.0
H240 H 0.34302 0.51631 0.47415 0.0
N241 N 0.30787 0.49734 0.54813 0.0
N242 N 0.3181 0.46444 0.58909 0.0
C243 C 0.29808 0.48356 0.57464 0.0
C244 C 0.33508 0.48669 0.54596 0.0
C245 C 0.34141 0.46623 0.571 0.0
C246 C 0.27045 0.55831 0.57153 0.0
O247 O 0.29599 0.54611 0.57565 0.0
H248 H 0.27662 0.48708 0.58275 0.0
H249 H 0.34932 0.49304 0.52731 0.0
O250 O 0.26994 0.50529 0.49502 0.0
H251 H 0.35247 0.55969 0.43704 0.0
H252 H 0.3616 0.45367 0.57561 0.0
Cu253 Cu 0.52269 0.274 0.52626 0.0
N254 N 0.55163 0.25393 0.49794 0.0
N255 N 0.59167 0.24554 0.46644 0.0
C256 C 0.57722 0.25615 0.49407 0.0
C257 C 0.57461 0.23607 0.45249 0.0
C258 C 0.54999 0.2412 0.47199 0.0
O259 O 0.53844 0.29978 0.54322 0.0
C260 C 0.47759 0.27381 0.49686 0.0
O261 O 0.48417 0.24823 0.51056 0.0
H262 H 0.58435 0.26755 0.50959 0.0
H263 H 0.5316 0.23786 0.46628 0.0
N264 N 0.51243 0.25091 0.5616 0.0
N265 N 0.48852 0.23732 0.60659 0.0
C266 C 0.48902 0.25725 0.5819 0.0
C267 C 0.52719 0.22596 0.57355 0.0
C268 C 0.51255 0.21753 0.60124 0.0
C269 C 0.53538 0.30492 0.57303 0.0
O270 O 0.51536 0.29896 0.59277 0.0
H271 H 0.47323 0.27675 0.57927 0.0
H272 H 0.54743 0.21498 0.56326 0.0
O273 O 0.49156 0.29004 0.50076 0.0
H274 H 0.57916 0.22744 0.42903 0.0
H275 H 0.5193 0.19841 0.61637 0.0
Eu276 Eu 0.26774 0.29314 0.35098 0.0
C277 C 0.3124 0.31317 0.20708 0.0
C278 C 0.34974 0.2716 0.1967 0.0
C279 C 0.32395 0.29662 0.15284 0.0
C280 C 0.333 0.29105 0.21825 0.0
C281 C 0.30822 0.3167 0.17402 0.0
C282 C 0.34463 0.27407 0.16418 0.0
C283 C 0.27556 0.36131 0.18447 0.0
N284 N 0.29786 0.33245 0.22802 0.0
C285 C 0.28049 0.35693 0.21701 0.0
C286 C 0.28915 0.3409 0.16299 0.0
Eu287 Eu 0.30732 0.32335 0.28262 0.0
N288 N 0.33765 0.28943 0.2497 0.0
C289 C 0.35989 0.27018 0.26056 0.0
C290 C 0.37164 0.25075 0.20824 0.0
C291 C 0.37698 0.25032 0.24016 0.0
H292 H 0.2699 0.37263 0.23371 0.0
H293 H 0.39418 0.23463 0.24913 0.0
H294 H 0.3571 0.25915 0.14736 0.0
H295 H 0.26127 0.38038 0.176 0.0
H296 H 0.36412 0.26955 0.28524 0.0
H297 H 0.18594 0.38644 0.38459 0.0
H298 H 0.38493 0.23536 0.19249 0.0
H299 H 0.30104 0.24092 0.39985 0.0
H300 H 0.21399 0.35082 0.34838 0.0
H301 H 0.30807 0.23065 0.45792 0.0
H302 H 0.32083 0.29879 0.12744 0.0
H303 H 0.19408 0.38304 0.44207 0.0
H304 H 0.2193 0.35576 0.48793 0.0
H305 H 0.28539 0.34441 0.13775 0.0
H306 H 0.25249 0.31324 0.508 0.0
N307 N 0.23858 0.32764 0.38454 0.0
C308 C 0.21785 0.3489 0.37335 0.0
C309 C 0.20656 0.36731 0.42623 0.0
C310 C 0.22671 0.34456 0.43806 0.0
C311 C 0.20185 0.36924 0.39383 0.0
C312 C 0.24247 0.32474 0.41637 0.0
H313 H 0.28525 0.26619 0.49714 0.0
N314 N 0.27493 0.28188 0.40626 0.0
C315 C 0.29496 0.2506 0.4497 0.0
C316 C 0.26124 0.30105 0.42761 0.0
C317 C 0.2909 0.25644 0.41689 0.0
C318 C 0.28211 0.27075 0.47173 0.0
C319 C 0.26466 0.29619 0.4609 0.0
O320 O 0.25994 0.25229 0.36009 0.0
O321 O 0.29302 0.28651 0.3029 0.0
O322 O 0.27036 0.31823 0.26342 0.0
O323 O 0.24129 0.3171 0.31148 0.0
O324 O 0.30005 0.25323 0.33754 0.0
O325 O 0.22724 0.28903 0.34957 0.0
O326 O 0.31397 0.36437 0.26974 0.0
O327 O 0.28313 0.32921 0.33097 0.0
O328 O 0.30546 0.2952 0.37069 0.0
O329 O 0.33405 0.3026 0.3235 0.0
O330 O 0.2763 0.36373 0.29861 0.0
O331 O 0.34778 0.32874 0.28086 0.0
C332 C 0.30678 0.26144 0.30789 0.0
C333 C 0.21589 0.25294 0.3849 0.0
C334 C 0.18804 0.22182 0.40674 0.0
C335 C 0.20536 0.23086 0.38122 0.0
C336 C 0.18146 0.2354 0.43581 0.0
C337 C 0.209 0.266 0.41413 0.0
C338 C 0.19192 0.25724 0.43941 0.0
C339 C 0.24595 0.31965 0.27924 0.0
C340 C 0.23397 0.26235 0.35828 0.0
C341 C 0.24993 0.31643 0.48239 0.0
C342 C 0.23102 0.34062 0.47097 0.0
C343 C 0.27051 0.3548 0.3283 0.0
C344 C 0.35758 0.36445 0.24338 0.0
C345 C 0.37633 0.37822 0.24885 0.0
C346 C 0.39355 0.38641 0.2226 0.0
C347 C 0.3914 0.38098 0.19091 0.0
C348 C 0.35592 0.35931 0.21155 0.0
C349 C 0.37267 0.36759 0.1855 0.0
C350 C 0.32929 0.29715 0.35556 0.0
C351 C 0.34015 0.35517 0.27093 0.0
H352 H 0.21085 0.22065 0.3587 0.0
H353 H 0.16779 0.22949 0.45567 0.0
H354 H 0.21664 0.28312 0.41734 0.0
H355 H 0.1866 0.26755 0.46182 0.0
H356 H 0.37785 0.38207 0.27344 0.0
H357 H 0.40406 0.38736 0.17021 0.0
H358 H 0.34171 0.34892 0.20672 0.0
H359 H 0.37116 0.36357 0.16102 0.0
Eu360 Eu 0.80797 0.30447 0.35246 0.0
C361 C 0.71216 0.29645 0.28633 0.0
C362 C 0.69655 0.25834 0.31548 0.0
C363 C 0.66474 0.29752 0.2892 0.0
C364 C 0.71754 0.27093 0.30478 0.0
C365 C 0.68577 0.30975 0.27796 0.0
C366 C 0.67011 0.2719 0.30788 0.0
C367 C 0.70321 0.34526 0.24579 0.0
N368 N 0.73289 0.30781 0.27559 0.0
C369 C 0.72911 0.33123 0.25437 0.0
C370 C 0.68141 0.33463 0.25788 0.0
Eu371 Eu 0.77596 0.2814 0.29035 0.0
N372 N 0.74328 0.25823 0.31195 0.0
C373 C 0.74971 0.23245 0.32829 0.0
C374 C 0.7028 0.23233 0.33328 0.0
C375 C 0.72953 0.21925 0.33951 0.0
H376 H 0.74611 0.3392 0.24475 0.0
H377 H 0.73459 0.19904 0.35299 0.0
H378 H 0.65373 0.26259 0.31603 0.0
H379 H 0.70013 0.36414 0.22969 0.0
H380 H 0.77036 0.22222 0.33311 0.0
H381 H 0.856 0.37829 0.27989 0.0
H382 H 0.6872 0.22207 0.34206 0.0
H383 H 0.83332 0.25294 0.40835 0.0
H384 H 0.81816 0.35897 0.30274 0.0
H385 H 0.87721 0.22973 0.42948 0.0
H386 H 0.64431 0.3075 0.28313 0.0
H387 H 0.90227 0.35507 0.29466 0.0
H388 H 0.93294 0.31718 0.32768 0.0
H389 H 0.6614 0.34545 0.25097 0.0
H390 H 0.93863 0.27709 0.36853 0.0
N391 N 0.84287 0.32463 0.32945 0.0
C392 C 0.83824 0.34862 0.30939 0.0
C393 C 0.88573 0.34647 0.30477 0.0
C394 C 0.89003 0.32276 0.32672 0.0
C395 C 0.85964 0.35966 0.2964 0.0
C396 C 0.86784 0.3123 0.33905 0.0
H397 H 0.91795 0.24466 0.40688 0.0
N398 N 0.84921 0.28038 0.37379 0.0
C399 C 0.87581 0.24643 0.41037 0.0
C400 C 0.87109 0.28962 0.36196 0.0
C401 C 0.851 0.25962 0.39839 0.0
C402 C 0.89875 0.25493 0.39755 0.0
C403 C 0.89655 0.2769 0.37325 0.0
O404 O 0.78924 0.31338 0.40194 0.0
O405 O 0.7738 0.28965 0.34229 0.0
O406 O 0.7481 0.32112 0.31084 0.0
O407 O 0.77922 0.34104 0.32537 0.0
O408 O 0.78779 0.2758 0.38679 0.0
O409 O 0.80495 0.34424 0.372 0.0
O410 O 0.78287 0.27982 0.23756 0.0
O411 O 0.81076 0.29458 0.30097 0.0
O412 O 0.83466 0.26197 0.3398 0.0
O413 O 0.80835 0.24387 0.31172 0.0
O414 O 0.79876 0.30813 0.25594 0.0
O415 O 0.78249 0.24202 0.26805 0.0
C416 C 0.77011 0.27506 0.36839 0.0
C417 C 0.80993 0.33956 0.42842 0.0
C418 C 0.82359 0.36831 0.46283 0.0
C419 C 0.81008 0.36606 0.43654 0.0
C420 C 0.83773 0.34366 0.47974 0.0
C421 C 0.8234 0.31559 0.44685 0.0
C422 C 0.83749 0.31764 0.47189 0.0
C423 C 0.75473 0.34292 0.31805 0.0
C424 C 0.79559 0.33664 0.40125 0.0
C425 C 0.91887 0.28674 0.36034 0.0
C426 C 0.91563 0.30957 0.33708 0.0
C427 C 0.81677 0.30747 0.27454 0.0
C428 C 0.76385 0.24819 0.21774 0.0
C429 C 0.77012 0.22276 0.20283 0.0
C430 C 0.75189 0.21823 0.18317 0.0
C431 C 0.72695 0.23881 0.18038 0.0
C432 C 0.73951 0.26873 0.21232 0.0
C433 C 0.72101 0.26388 0.19455 0.0
C434 C 0.83038 0.24144 0.32605 0.0
C435 C 0.78248 0.25385 0.23841 0.0
H436 H 0.79919 0.38472 0.42304 0.0
H437 H 0.84903 0.34443 0.49929 0.0
H438 H 0.82292 0.29512 0.44219 0.0
H439 H 0.8481 0.29892 0.48551 0.0
H440 H 0.78927 0.20708 0.20577 0.0
H441 H 0.71196 0.23574 0.16682 0.0
H442 H 0.73469 0.28885 0.22143 0.0
H443 H 0.70208 0.27983 0.19138 0.0
Eu444 Eu 0.79697 0.76682 0.26169 0.0
C445 C 0.82221 0.7944 0.39026 0.0
C446 C 0.7792 0.82497 0.41263 0.0
C447 C 0.81082 0.79597 0.44888 0.0
C448 C 0.79744 0.81397 0.38559 0.0
C449 C 0.82945 0.78595 0.42196 0.0
C450 C 0.78573 0.81535 0.44423 0.0
C451 C 0.8741 0.76054 0.39815 0.0
N452 N 0.83986 0.78485 0.36384 0.0
C453 C 0.86594 0.76919 0.36722 0.0
C454 C 0.85561 0.7685 0.42566 0.0
Eu455 Eu 0.8246 0.80201 0.31281 0.0
N456 N 0.79167 0.82316 0.35473 0.0
C457 C 0.7689 0.84444 0.34927 0.0
C458 C 0.75519 0.84583 0.40713 0.0
C459 C 0.75023 0.85587 0.37534 0.0
H460 H 0.88026 0.7628 0.34608 0.0
H461 H 0.73191 0.8723 0.37088 0.0
H462 H 0.77181 0.82335 0.46524 0.0
H463 H 0.89457 0.74763 0.40076 0.0
H464 H 0.76454 0.85227 0.3249 0.0
H465 H 0.88762 0.67335 0.2643 0.0
H466 H 0.74065 0.85472 0.42726 0.0
H467 H 0.77374 0.8052 0.1953 0.0
H468 H 0.85533 0.71452 0.28542 0.0
H469 H 0.77794 0.80177 0.13645 0.0
H470 H 0.81591 0.78943 0.47341 0.0
H471 H 0.88913 0.66314 0.20761 0.0
H472 H 0.87299 0.67856 0.1534 0.0
H473 H 0.86197 0.7617 0.4496 0.0
H474 H 0.84424 0.71408 0.11824 0.0
N475 N 0.83396 0.72703 0.24326 0.0
C476 C 0.85337 0.71003 0.26158 0.0
C477 C 0.87374 0.68108 0.21722 0.0
C478 C 0.85596 0.6997 0.19741 0.0
C479 C 0.87284 0.68668 0.24922 0.0
C480 C 0.83628 0.72292 0.21109 0.0
H481 H 0.80951 0.76023 0.11154 0.0
N482 N 0.80325 0.76615 0.20422 0.0
C483 C 0.7901 0.78513 0.15145 0.0
C484 C 0.82051 0.7431 0.19106 0.0
C485 C 0.78795 0.787 0.18493 0.0
C486 C 0.80784 0.76163 0.13753 0.0
C487 C 0.82339 0.74032 0.15725 0.0
O488 O 0.75623 0.79089 0.25168 0.0
O489 O 0.78576 0.79514 0.30326 0.0
O490 O 0.82725 0.75813 0.337 0.0
O491 O 0.80989 0.7347 0.30337 0.0
O492 O 0.77052 0.76049 0.30836 0.0
O493 O 0.76992 0.74561 0.24629 0.0
O494 O 0.8529 0.8233 0.28485 0.0
O495 O 0.83122 0.78376 0.26487 0.0
O496 O 0.80258 0.80779 0.23782 0.0
O497 O 0.79745 0.83472 0.28045 0.0
O498 O 0.86368 0.77136 0.29129 0.0
O499 O 0.83535 0.83545 0.33248 0.0
C500 C 0.77053 0.7823 0.32185 0.0
C501 C 0.72383 0.7712 0.23393 0.0
C502 C 0.69078 0.74954 0.22078 0.0
C503 C 0.71564 0.7472 0.23215 0.0
C504 C 0.67415 0.77611 0.21148 0.0
C505 C 0.70675 0.79755 0.22472 0.0
C506 C 0.68207 0.79993 0.21359 0.0
C507 C 0.82044 0.73609 0.33015 0.0
C508 C 0.75044 0.76903 0.24412 0.0
C509 C 0.84191 0.71663 0.14405 0.0
C510 C 0.85818 0.69637 0.16409 0.0
C511 C 0.85606 0.77023 0.26345 0.0
C512 C 0.88117 0.83447 0.31735 0.0
C513 C 0.88647 0.85656 0.33046 0.0
C514 C 0.91209 0.85316 0.3405 0.0
C515 C 0.93225 0.82752 0.33727 0.0
C516 C 0.90192 0.80925 0.31376 0.0
C517 C 0.92718 0.80579 0.32383 0.0
C518 C 0.79786 0.83241 0.24917 0.0
C519 C 0.85389 0.83734 0.30855 0.0
H520 H 0.72871 0.72676 0.23907 0.0
H521 H 0.65482 0.77848 0.20294 0.0
H522 H 0.7126 0.81635 0.22571 0.0
H523 H 0.66908 0.82031 0.20645 0.0
H524 H 0.87067 0.87616 0.33316 0.0
H525 H 0.95221 0.82448 0.34443 0.0
H526 H 0.89872 0.79206 0.30326 0.0
H527 H 0.94295 0.78623 0.32106 0.0
Eu528 Eu 0.29188 0.7893 0.27582 0.0
C529 C 0.31641 0.88256 0.33865 0.0
C530 C 0.35375 0.89008 0.29979 0.0
C531 C 0.32475 0.92811 0.33087 0.0
C532 C 0.33846 0.87233 0.31569 0.0
C533 C 0.30984 0.91036 0.34707 0.0
C534 C 0.34655 0.91804 0.30719 0.0
C535 C 0.27551 0.90058 0.38867 0.0
N536 N 0.30182 0.86523 0.35341 0.0
C537 C 0.28256 0.87333 0.37929 0.0
C538 C 0.28889 0.91934 0.3721 0.0
Eu539 Eu 0.3166 0.81891 0.33792 0.0
N540 N 0.3449 0.8452 0.30874 0.0
C541 C 0.36699 0.83437 0.28699 0.0
C542 C 0.37588 0.87922 0.27689 0.0
C543 C 0.38261 0.85122 0.27062 0.0
H544 H 0.27222 0.85879 0.39219 0.0
H545 H 0.39977 0.84261 0.25302 0.0
H546 H 0.35795 0.93197 0.29503 0.0
H547 H 0.25977 0.90708 0.40864 0.0
H548 H 0.37238 0.81299 0.28123 0.0
H549 H 0.20447 0.77501 0.36112 0.0
H550 H 0.388 0.89223 0.26407 0.0
H551 H 0.33555 0.74314 0.22666 0.0
H552 H 0.23317 0.8015 0.32954 0.0
H553 H 0.34854 0.69273 0.21931 0.0
H554 H 0.3198 0.9496 0.33678 0.0
H555 H 0.21609 0.72403 0.35827 0.0
H556 H 0.24702 0.68069 0.33507 0.0
H557 H 0.28335 0.94048 0.37935 0.0
H558 H 0.28654 0.6582 0.29748 0.0
N559 N 0.26146 0.76628 0.30754 0.0
C560 C 0.2387 0.77947 0.32707 0.0
C561 C 0.22886 0.73564 0.34382 0.0
C562 C 0.25181 0.72219 0.32349 0.0
C563 C 0.22222 0.7644 0.34545 0.0
C564 C 0.2679 0.73823 0.30522 0.0
H565 H 0.32434 0.66244 0.25434 0.0
N566 N 0.30591 0.74104 0.26722 0.0
C567 C 0.33254 0.70148 0.23815 0.0
C568 C 0.29069 0.72533 0.2846 0.0
C569 C 0.32532 0.72994 0.24262 0.0
C570 C 0.31879 0.68451 0.25789 0.0
C571 C 0.2972 0.69643 0.28096 0.0
O572 O 0.295 0.79499 0.22314 0.0
O573 O 0.30323 0.82585 0.28833 0.0
O574 O 0.27352 0.84633 0.33279 0.0
O575 O 0.25736 0.8271 0.29398 0.0
O576 O 0.31654 0.81385 0.24173 0.0
O577 O 0.25692 0.79216 0.25022 0.0
O578 O 0.31522 0.81029 0.39033 0.0
O579 O 0.30598 0.78203 0.32508 0.0
O580 O 0.33611 0.76477 0.27746 0.0
O581 O 0.35188 0.78297 0.3174 0.0
O582 O 0.29017 0.79558 0.37078 0.0
O583 O 0.35309 0.81265 0.3619 0.0
C584 C 0.31524 0.83239 0.26129 0.0
C585 C 0.27028 0.77144 0.19926 0.0
C586 C 0.24555 0.74502 0.17634 0.0
C587 C 0.24603 0.76473 0.19757 0.0
C588 C 0.26967 0.73196 0.15714 0.0
C589 C 0.29383 0.7586 0.17888 0.0
C590 C 0.29355 0.73877 0.15842 0.0
C591 C 0.25426 0.84594 0.31526 0.0
C592 C 0.27115 0.79201 0.22159 0.0
C593 C 0.28159 0.68045 0.29969 0.0
C594 C 0.25903 0.69328 0.32098 0.0
C595 C 0.29303 0.77618 0.35172 0.0
C596 C 0.34366 0.82888 0.41529 0.0
C597 C 0.36968 0.83094 0.41809 0.0
C598 C 0.37366 0.84611 0.44251 0.0
C599 C 0.35089 0.85993 0.46333 0.0
C600 C 0.3215 0.84245 0.43702 0.0
C601 C 0.32508 0.8582 0.46041 0.0
C602 C 0.3554 0.76534 0.29467 0.0
C603 C 0.33992 0.81136 0.39105 0.0
H604 H 0.22762 0.77484 0.21263 0.0
H605 H 0.26991 0.71712 0.14019 0.0
H606 H 0.31265 0.76375 0.1787 0.0
H607 H 0.31187 0.72893 0.14309 0.0
H608 H 0.38682 0.82035 0.40156 0.0
H609 H 0.35303 0.87124 0.48284 0.0
H610 H 0.30133 0.8407 0.43635 0.0
H611 H 0.30784 0.86853 0.47696 0.0
Eu612 Eu 0.30648 0.79851 0.84139 0.0
C613 C 0.21674 0.77663 0.78824 0.0
C614 C 0.21461 0.73421 0.82143 0.0
C615 C 0.17323 0.76673 0.8045 0.0
C616 C 0.22987 0.75175 0.80467 0.0
C617 C 0.18832 0.78396 0.78747 0.0
C618 C 0.18632 0.74198 0.82153 0.0
C619 C 0.19164 0.82408 0.75128 0.0
N620 N 0.23158 0.79349 0.7727 0.0
C621 C 0.21961 0.81603 0.75273 0.0
C622 C 0.17582 0.80825 0.76918 0.0
Eu623 Eu 0.27927 0.77775 0.77606 0.0
N624 N 0.25731 0.74478 0.80468 0.0
C625 C 0.27054 0.71994 0.82006 0.0
C626 C 0.22814 0.70929 0.83778 0.0
C627 C 0.25623 0.70208 0.8369 0.0
H628 H 0.23163 0.82802 0.73769 0.0
H629 H 0.26695 0.68267 0.84922 0.0
H630 H 0.17439 0.72884 0.83448 0.0
H631 H 0.18236 0.84236 0.73605 0.0
H632 H 0.2921 0.71333 0.81994 0.0
H633 H 0.31987 0.89326 0.76826 0.0
H634 H 0.21712 0.69539 0.85095 0.0
H635 H 0.35195 0.75215 0.88526 0.0
H636 H 0.29422 0.86344 0.79869 0.0
H637 H 0.40132 0.73713 0.88808 0.0
H638 H 0.15141 0.77224 0.80443 0.0
H639 H 0.36985 0.87946 0.76546 0.0
H640 H 0.41245 0.84536 0.78187 0.0
H641 H 0.15411 0.8145 0.76798 0.0
H642 H 0.43472 0.80259 0.81362 0.0
N643 N 0.32885 0.83133 0.81308 0.0
C644 C 0.31583 0.85632 0.79787 0.0
C645 C 0.3586 0.86593 0.77903 0.0
C646 C 0.3719 0.84099 0.79555 0.0
C647 C 0.33043 0.87374 0.78051 0.0
C648 C 0.35632 0.824 0.81285 0.0
H649 H 0.43081 0.76227 0.85329 0.0
N650 N 0.35363 0.78386 0.8471 0.0
C651 C 0.39262 0.75446 0.87128 0.0
C652 C 0.36902 0.79957 0.83019 0.0
C653 C 0.36469 0.76286 0.86933 0.0
C654 C 0.40915 0.76871 0.85167 0.0
C655 C 0.39736 0.792 0.83143 0.0
O656 O 0.30601 0.78982 0.8934 0.0
O657 O 0.26951 0.79021 0.82755 0.0
O658 O 0.25915 0.82404 0.7798 0.0
O659 O 0.26927 0.8347 0.82857 0.0
O660 O 0.28188 0.77193 0.87178 0.0
O661 O 0.29989 0.8332 0.87279 0.0
O662 O 0.2814 0.78548 0.72353 0.0
O663 O 0.31603 0.78606 0.79006 0.0
O664 O 0.32932 0.75264 0.83569 0.0
O665 O 0.31642 0.74145 0.78876 0.0
O666 O 0.30504 0.80293 0.74494 0.0
O667 O 0.28203 0.74419 0.74519 0.0
C668 C 0.263 0.77629 0.85325 0.0
C669 C 0.29812 0.82384 0.93232 0.0
C670 C 0.30606 0.85119 0.97265 0.0
C671 C 0.30758 0.84551 0.93994 0.0
C672 C 0.2945 0.83503 0.99729 0.0
C673 C 0.2864 0.80838 0.95734 0.0
C674 C 0.28453 0.81406 0.9896 0.0
C675 C 0.25575 0.84121 0.80271 0.0
C676 C 0.30191 0.81579 0.89877 0.0
C677 C 0.41292 0.80832 0.81332 0.0
C678 C 0.40023 0.83273 0.79535 0.0
C679 C 0.32318 0.79948 0.7643 0.0
C680 C 0.25881 0.76065 0.69814 0.0
C681 C 0.25602 0.7352 0.69052 0.0
C682 C 0.23619 0.73487 0.67086 0.0
C683 C 0.21858 0.7604 0.65998 0.0
C684 C 0.24196 0.78579 0.68512 0.0
C685 C 0.22165 0.7856 0.66687 0.0
C686 C 0.33145 0.73512 0.81337 0.0
C687 C 0.27969 0.76099 0.71874 0.0
H688 H 0.31645 0.8575 0.92051 0.0
H689 H 0.29362 0.83812 0.02273 0.0
H690 H 0.27894 0.79164 0.95198 0.0
H691 H 0.27573 0.80183 1.00879 0.0
H692 H 0.26987 0.71581 0.69908 0.0
H693 H 0.2026 0.76097 0.64571 0.0
H694 H 0.24436 0.80575 0.68894 0.0
H695 H 0.20842 0.80512 0.65768 0.0
Eu696 Eu 0.28868 0.26121 0.79356 0.0
C697 C 0.28927 0.30081 0.92405 0.0
C698 C 0.247 0.33798 0.92544 0.0
C699 C 0.26078 0.31117 0.97548 0.0
C700 C 0.27072 0.32172 0.90794 0.0
C701 C 0.28502 0.29608 0.9582 0.0
C702 C 0.24177 0.33206 0.95911 0.0
C703 C 0.33056 0.26491 0.95619 0.0
N704 N 0.3126 0.28684 0.9067 0.0
C705 C 0.33384 0.27051 0.92244 0.0
C706 C 0.30579 0.27728 0.9741 0.0
Eu707 Eu 0.31619 0.29589 0.84917 0.0
N708 N 0.27646 0.32695 0.87537 0.0
C709 C 0.25991 0.34926 0.85922 0.0
C710 C 0.2295 0.36007 0.9087 0.0
C711 C 0.23618 0.36593 0.87553 0.0
H712 H 0.35311 0.26093 0.90867 0.0
H713 H 0.22295 0.38321 0.86243 0.0
H714 H 0.22346 0.34406 0.97284 0.0
H715 H 0.34714 0.25112 0.96834 0.0
H716 H 0.26431 0.35406 0.83355 0.0
H717 H 0.37608 0.16725 0.78381 0.0
H718 H 0.21107 0.373 0.92125 0.0
H719 H 0.25594 0.30286 0.73358 0.0
H720 H 0.33903 0.20162 0.81226 0.0
H721 H 0.26035 0.30774 0.67359 0.0
H722 H 0.25696 0.30751 1.00164 0.0
H723 H 0.38466 0.1715 0.72391 0.0
H724 H 0.37158 0.19714 0.67121 0.0
H725 H 0.30333 0.27308 1.00029 0.0
H726 H 0.34057 0.23531 0.64139 0.0
N727 N 0.32552 0.22599 0.76916 0.0
C728 C 0.34176 0.20405 0.78619 0.0
C729 C 0.36795 0.1868 0.73628 0.0
C730 C 0.35108 0.20886 0.71881 0.0
C731 C 0.36315 0.18431 0.77008 0.0
C732 C 0.32962 0.22838 0.73605 0.0
H733 H 0.29911 0.27624 0.64198 0.0
N734 N 0.29203 0.2691 0.73599 0.0
C735 C 0.27527 0.29167 0.68603 0.0
C736 C 0.31246 0.2504 0.7191 0.0
C737 C 0.27277 0.28872 0.71996 0.0
C738 C 0.29717 0.27387 0.66831 0.0
C739 C 0.3159 0.25274 0.68473 0.0
O740 O 0.2464 0.26446 0.7913 0.0
O741 O 0.28226 0.2797 0.84097 0.0
O742 O 0.32025 0.25169 0.87199 0.0
O743 O 0.30023 0.23102 0.83847 0.0
O744 O 0.24974 0.29215 0.81431 0.0
O745 O 0.27611 0.22392 0.78837 0.0
O746 O 0.35415 0.30019 0.86171 0.0
O747 O 0.32341 0.27544 0.80296 0.0
O748 O 0.29333 0.30163 0.76682 0.0
O749 O 0.30361 0.32645 0.80477 0.0
O750 O 0.35641 0.26661 0.82845 0.0
O751 O 0.32487 0.33618 0.84182 0.0
C752 C 0.2574 0.29284 0.84221 0.0
C753 C 0.2377 0.23346 0.75885 0.0
C754 C 0.2205 0.20289 0.73169 0.0
C755 C 0.2343 0.20706 0.75654 0.0
C756 C 0.21112 0.2251 0.70858 0.0
C757 C 0.22642 0.25567 0.7366 0.0
C758 C 0.214 0.2513 0.71116 0.0
C759 C 0.31233 0.23057 0.86469 0.0
C760 C 0.2509 0.23842 0.78584 0.0
C761 C 0.3375 0.23363 0.66773 0.0
C762 C 0.3551 0.21183 0.68472 0.0
C763 C 0.34829 0.26237 0.80221 0.0
C764 C 0.35033 0.34385 0.88032 0.0
C765 C 0.3722 0.35541 0.87697 0.0
C766 C 0.37512 0.37079 0.90167 0.0
C767 C 0.35602 0.37439 0.92962 0.0
C768 C 0.33115 0.34839 0.90804 0.0
C769 C 0.33409 0.36335 0.93264 0.0
C770 C 0.29741 0.32433 0.77556 0.0
C771 C 0.34745 0.32715 0.85503 0.0
H772 H 0.24162 0.19011 0.7745 0.0
H773 H 0.20009 0.22268 0.68953 0.0
H774 H 0.22637 0.27672 0.73923 0.0
H775 H 0.20567 0.26856 0.69408 0.0
H776 H 0.38694 0.35233 0.85542 0.0
H777 H 0.35769 0.38634 0.9488 0.0
H778 H 0.31379 0.34061 0.91062 0.0
H779 H 0.31919 0.3666 0.95398 0.0
Eu780 Eu 0.78082 0.28263 0.77901 0.0
C781 C 0.80953 0.38588 0.80216 0.0
C782 C 0.84174 0.38787 0.75415 0.0
C783 C 0.81295 0.43084 0.77622 0.0
C784 C 0.8296 0.37229 0.77899 0.0
C785 C 0.80185 0.4153 0.80174 0.0
C786 C 0.83286 0.41716 0.75247 0.0
C787 C 0.77647 0.41171 0.8546 0.0
N788 N 0.79956 0.37031 0.82695 0.0
C789 C 0.78494 0.38266 0.85408 0.0
C790 C 0.7844 0.42816 0.82792 0.0
Eu791 Eu 0.81484 0.32104 0.82448 0.0
N792 N 0.83777 0.34389 0.78119 0.0
C793 C 0.85862 0.32994 0.75975 0.0
C794 C 0.86262 0.3736 0.73182 0.0
C795 C 0.87119 0.34452 0.73478 0.0
H796 H 0.77907 0.37 0.87506 0.0
H797 H 0.88748 0.33327 0.71775 0.0
H798 H 0.84167 0.42941 0.73328 0.0
H799 H 0.76399 0.42136 0.87566 0.0
H800 H 0.86572 0.30756 0.76128 0.0
H801 H 0.71824 0.24452 0.88071 0.0
H802 H 0.87238 0.38481 0.71238 0.0
H803 H 0.81611 0.24862 0.71477 0.0
H804 H 0.73453 0.27979 0.84451 0.0
H805 H 0.83478 0.20004 0.69883 0.0
H806 H 0.80694 0.45344 0.77521 0.0
H807 H 0.73814 0.19441 0.87194 0.0
H808 H 0.7704 0.15744 0.83829 0.0
H809 H 0.77806 0.45066 0.8285 0.0
H810 H 0.80278 0.14521 0.78923 0.0
N811 N 0.7637 0.25016 0.81524 0.0
C812 C 0.74333 0.25811 0.84003 0.0
C813 C 0.7453 0.20986 0.85574 0.0
C814 C 0.76531 0.20191 0.8295 0.0
C815 C 0.734 0.23811 0.86074 0.0
C816 C 0.77399 0.22285 0.80917 0.0
H817 H 0.82659 0.16097 0.7368 0.0
N818 N 0.79905 0.23677 0.76183 0.0
C819 C 0.82318 0.20416 0.72241 0.0
C820 C 0.79252 0.21591 0.78188 0.0
C821 C 0.81262 0.23156 0.73147 0.0
C822 C 0.81857 0.18217 0.74395 0.0
C823 C 0.80246 0.18794 0.77374 0.0
O824 O 0.76737 0.28986 0.73059 0.0
O825 O 0.79356 0.32056 0.7817 0.0
O826 O 0.7694 0.34339 0.83135 0.0
O827 O 0.74902 0.315 0.80914 0.0
O828 O 0.79822 0.30656 0.73593 0.0
O829 O 0.73789 0.29053 0.77295 0.0
O830 O 0.82294 0.32639 0.87319 0.0
O831 O 0.80054 0.28396 0.82271 0.0
O832 O 0.8259 0.25988 0.77299 0.0
O833 O 0.8464 0.2822 0.80409 0.0
O834 O 0.79762 0.29706 0.8683 0.0
O835 O 0.85649 0.31214 0.83622 0.0
C836 C 0.8 0.32626 0.75194 0.0
C837 C 0.72862 0.27609 0.72476 0.0
C838 C 0.69527 0.27475 0.68948 0.0
C839 C 0.70679 0.29005 0.70672 0.0
C840 C 0.70563 0.24552 0.69089 0.0
C841 C 0.7381 0.24687 0.72616 0.0
C842 C 0.72672 0.23173 0.70929 0.0
C843 C 0.74778 0.33717 0.8244 0.0
C844 C 0.742 0.29193 0.74125 0.0
C845 C 0.79502 0.16686 0.79481 0.0
C846 C 0.77649 0.17383 0.82266 0.0
C847 C 0.79424 0.27801 0.85243 0.0
C848 C 0.86305 0.33965 0.87516 0.0
C849 C 0.88153 0.33146 0.89875 0.0
C850 C 0.89455 0.35049 0.90696 0.0
C851 C 0.88794 0.37782 0.89194 0.0
C852 C 0.8581 0.3667 0.85996 0.0
C853 C 0.87008 0.3857 0.86853 0.0
C854 C 0.84727 0.2625 0.7849 0.0
C855 C 0.84928 0.3202 0.86569 0.0
H856 H 0.69917 0.31262 0.7056 0.0
H857 H 0.69706 0.23328 0.67808 0.0
H858 H 0.75437 0.23568 0.74015 0.0
H859 H 0.73434 0.20919 0.71044 0.0
H860 H 0.88609 0.31036 0.91007 0.0
H861 H 0.89654 0.39335 0.8983 0.0
H862 H 0.84507 0.37325 0.84128 0.0
H863 H 0.86556 0.40666 0.85682 0.0
Eu864 Eu 0.7687 0.78626 0.83897 0.0
C865 C 0.80624 0.80839 0.69189 0.0
C866 C 0.83969 0.76515 0.67728 0.0
C867 C 0.81285 0.79468 0.63658 0.0
C868 C 0.82588 0.78427 0.70062 0.0
C869 C 0.80008 0.81426 0.65954 0.0
C870 C 0.83258 0.77013 0.64546 0.0
C871 C 0.77132 0.85967 0.67419 0.0
N872 N 0.79457 0.82708 0.7145 0.0
C873 C 0.77813 0.85292 0.70594 0.0
C874 C 0.78203 0.8401 0.65099 0.0
Eu875 Eu 0.80707 0.81413 0.76762 0.0
N876 N 0.83259 0.78029 0.73144 0.0
C877 C 0.85418 0.75868 0.73987 0.0
C878 C 0.86079 0.74203 0.68637 0.0
C879 C 0.8683 0.73901 0.71767 0.0
H880 H 0.76975 0.868 0.72392 0.0
H881 H 0.88494 0.7215 0.72474 0.0
H882 H 0.84277 0.75554 0.62729 0.0
H883 H 0.75781 0.87991 0.66764 0.0
H884 H 0.86013 0.75604 0.76401 0.0
H885 H 0.6913 0.88301 0.87163 0.0
H886 H 0.87182 0.72681 0.66919 0.0
H887 H 0.8008 0.73442 0.88923 0.0
H888 H 0.71616 0.84528 0.83664 0.0
H889 H 0.81112 0.72644 0.94627 0.0
H890 H 0.80818 0.79867 0.61169 0.0
H891 H 0.70302 0.88186 0.92722 0.0
H892 H 0.73042 0.85597 0.97193 0.0
H893 H 0.77682 0.84542 0.62637 0.0
H894 H 0.76325 0.81332 0.99229 0.0
N895 N 0.7424 0.82288 0.87161 0.0
C896 C 0.72154 0.84424 0.86082 0.0
C897 C 0.71407 0.86514 0.91193 0.0
C898 C 0.73435 0.8424 0.92353 0.0
C899 C 0.70734 0.86581 0.88062 0.0
C900 C 0.74817 0.82123 0.90259 0.0
H901 H 0.79308 0.76464 0.9831 0.0
N902 N 0.77823 0.77688 0.89364 0.0
C903 C 0.79879 0.74661 0.93744 0.0
C904 C 0.76682 0.79749 0.91393 0.0
C905 C 0.7929 0.75115 0.90526 0.0
C906 C 0.78866 0.76825 0.95811 0.0
C907 C 0.77193 0.7939 0.94666 0.0
O908 O 0.75921 0.74651 0.85161 0.0
O909 O 0.79058 0.77889 0.78914 0.0
O910 O 0.76805 0.81231 0.75101 0.0
O911 O 0.74095 0.8103 0.80061 0.0
O912 O 0.79741 0.74506 0.82312 0.0
O913 O 0.72699 0.78405 0.84234 0.0
O914 O 0.8168 0.85381 0.7565 0.0
O915 O 0.78633 0.82061 0.81785 0.0
O916 O 0.80979 0.78282 0.85422 0.0
O917 O 0.8358 0.78926 0.80444 0.0
O918 O 0.77901 0.85525 0.78553 0.0
O919 O 0.84918 0.81543 0.76213 0.0
C920 C 0.80278 0.75316 0.79303 0.0
C921 C 0.71595 0.74933 0.88026 0.0
C922 C 0.68407 0.72324 0.90451 0.0
C923 C 0.70072 0.73102 0.87738 0.0
C924 C 0.68338 0.73371 0.93459 0.0
C925 C 0.71459 0.75977 0.91036 0.0
C926 C 0.69851 0.75185 0.9374 0.0
C927 C 0.74418 0.81398 0.76834 0.0
C928 C 0.73311 0.75753 0.8518 0.0
C929 C 0.75933 0.81552 0.96718 0.0
C930 C 0.74059 0.83978 0.9556 0.0
C931 C 0.77478 0.8465 0.81562 0.0
C932 C 0.85947 0.85191 0.72648 0.0
C933 C 0.87663 0.8678 0.73091 0.0
C934 C 0.89258 0.87706 0.70407 0.0
C935 C 0.89074 0.87041 0.67278 0.0
C936 C 0.85825 0.84532 0.69513 0.0
C937 C 0.87372 0.85463 0.66844 0.0
C938 C 0.83322 0.78239 0.83628 0.0
C939 C 0.843 0.84232 0.75469 0.0
H940 H 0.70146 0.72332 0.85395 0.0
H941 H 0.67124 0.72773 0.95608 0.0
H942 H 0.72585 0.77408 0.91298 0.0
H943 H 0.69773 0.75986 0.96062 0.0
H944 H 0.87784 0.87254 0.75524 0.0
H945 H 0.90228 0.87765 0.65154 0.0
H946 H 0.84539 0.83301 0.69123 0.0
H947 H 0.8725 0.8496 0.64427 0.0
H948 H 0.10237 0.11516 0.34487 0.0
H949 H 0.18067 0.18016 0.45258 0.0
H950 H 0.09567 0.10506 0.44955 0.0
H951 H 0.1684 0.21072 0.35328 0.0
H952 H 0.15655 0.146 0.44912 0.0
H953 H 0.1334 0.14372 0.34499 0.0
C954 C 0.10772 0.11864 0.36782 0.0
C955 C 0.09631 0.10789 0.39728 0.0
C956 C 0.15923 0.16008 0.42801 0.0
C957 C 0.13171 0.14041 0.39761 0.0
C958 C 0.17294 0.17971 0.42999 0.0
C959 C 0.1762 0.19879 0.40337 0.0
C960 C 0.14873 0.15924 0.39914 0.0
C961 C 0.16641 0.19649 0.37443 0.0
C962 C 0.12527 0.13507 0.36789 0.0
C963 C 0.10373 0.11325 0.42635 0.0
N964 N 0.15293 0.17724 0.37315 0.0
N965 N 0.12091 0.12911 0.42578 0.0
H966 H 0.99161 0.12796 0.32252 0.0
H967 H 0.83203 0.18977 0.30695 0.0
H968 H 0.94294 0.07616 0.30501 0.0
H969 H 0.88228 0.23413 0.33813 0.0
H970 H 0.87221 0.14872 0.30093 0.0
H971 H 0.95177 0.16839 0.3215 0.0
C972 C 0.97263 0.1251 0.31802 0.0
C973 C 0.97068 0.0985 0.31411 0.0
C974 C 0.87422 0.16752 0.30923 0.0
C975 C 0.92453 0.14492 0.31342 0.0
C976 C 0.8513 0.1909 0.31278 0.0
C977 C 0.85347 0.21546 0.32363 0.0
C978 C 0.89948 0.16893 0.31621 0.0
C979 C 0.87913 0.21571 0.33045 0.0
C980 C 0.94975 0.14824 0.31765 0.0
C981 C 0.94541 0.09625 0.30827 0.0
N982 N 0.90093 0.19298 0.32659 0.0
N983 N 0.92326 0.1191 0.30838 0.0
H984 H 0.97055 0.99512 0.34072 0.0
H985 H 0.93567 0.8519 0.39524 0.0
H986 H 0.98505 0.95094 0.4343 0.0
H987 H 0.90419 0.90686 0.31389 0.0
H988 H 0.95284 0.88819 0.41101 0.0
H989 H 0.94581 0.96315 0.33083 0.0
C990 C 0.96859 0.97858 0.35915 0.0
C991 C 0.98017 0.97542 0.38821 0.0
C992 C 0.94187 0.89248 0.38997 0.0
C993 C 0.95165 0.93881 0.37717 0.0
C994 C 0.93211 0.87179 0.38095 0.0
C995 C 0.91868 0.87638 0.3531 0.0
C996 C 0.93855 0.91781 0.3707 0.0
C997 C 0.91437 0.90254 0.33558 0.0
C998 C 0.95423 0.9605 0.35364 0.0
C999 C 0.97645 0.95405 0.4116 0.0
N1000 N 0.92462 0.92215 0.34441 0.0
N1001 N 0.96275 0.93634 0.40543 0.0
H1002 H 0.13736 0.99837 0.37049 0.0
H1003 H 0.20343 0.85013 0.29844 0.0
H1004 H 0.09516 0.96774 0.30822 0.0
H1005 H 0.24867 0.89776 0.33343 0.0
H1006 H 0.16295 0.89108 0.30234 0.0
H1007 H 0.17793 0.96008 0.35791 0.0
C1008 C 0.13683 0.98369 0.35372 0.0
C1009 C 0.113 0.98627 0.34021 0.0
C1010 C 0.18182 0.8924 0.30916 0.0
C1011 C 0.15932 0.94164 0.32627 0.0
C1012 C 0.20488 0.86904 0.30708 0.0
C1013 C 0.22935 0.8701 0.31675 0.0
C1014 C 0.18339 0.91688 0.32096 0.0
C1015 C 0.23011 0.89533 0.32721 0.0
C1016 C 0.15999 0.96175 0.34656 0.0
C1017 C 0.11332 0.96659 0.31878 0.0
N1018 N 0.20756 0.91748 0.32923 0.0
N1019 N 0.13607 0.94477 0.31277 0.0
H1020 H 0.13331 0.96937 0.71609 0.0
H1021 H 0.21947 0.87073 0.85069 0.0
H1022 H 0.10892 0.98231 0.818 0.0
H1023 H 0.24268 0.87242 0.74705 0.0
H1024 H 0.1796 0.91133 0.84204 0.0
H1025 H 0.17295 0.93312 0.72957 0.0
C1026 C 0.13622 0.96467 0.74155 0.0
C1027 C 0.11751 0.97926 0.7659 0.0
C1028 C 0.19364 0.90294 0.82133 0.0
C1029 C 0.16401 0.93676 0.78179 0.0
C1030 C 0.21648 0.87998 0.82624 0.0
C1031 C 0.23431 0.86813 0.79948 0.0
C1032 C 0.18883 0.91397 0.78945 0.0
C1033 C 0.22935 0.88063 0.76835 0.0
C1034 C 0.15918 0.94375 0.74926 0.0
C1035 C 0.12275 0.97166 0.7984 0.0
N1036 N 0.20714 0.9026 0.76427 0.0
N1037 N 0.14558 0.95084 0.80546 0.0
H1038 H 0.13832 0.10146 0.66503 0.0
H1039 H 0.19842 0.17457 0.78312 0.0
H1040 H 0.11735 0.09813 0.76916 0.0
H1041 H 0.22334 0.17305 0.67983 0.0
H1042 H 0.17448 0.14005 0.7799 0.0
H1043 H 0.17407 0.12235 0.67086 0.0
C1044 C 0.14129 0.10506 0.68912 0.0
C1045 C 0.12461 0.09834 0.71659 0.0
C1046 C 0.18561 0.14684 0.75802 0.0
C1047 C 0.1656 0.1221 0.72356 0.0
C1048 C 0.19954 0.16634 0.75993 0.0
C1049 C 0.21252 0.17699 0.7316 0.0
C1050 C 0.18455 0.13813 0.72755 0.0
C1051 C 0.21312 0.16576 0.70214 0.0
C1052 C 0.16185 0.11678 0.6925 0.0
C1053 C 0.12975 0.1029 0.74731 0.0
N1054 N 0.19892 0.14731 0.70078 0.0
N1055 N 0.14957 0.11479 0.74993 0.0
H1056 H 0.95641 0.10879 0.72153 0.0
H1057 H 0.88614 0.24037 0.82672 0.0
H1058 H 0.9917 0.12122 0.80391 0.0
H1059 H 0.86604 0.23093 0.73291 0.0
H1060 H 0.92361 0.19684 0.82184 0.0
H1061 H 0.9207 0.15192 0.72982 0.0
C1062 C 0.95656 0.12054 0.74164 0.0
C1063 C 0.97732 0.11135 0.76189 0.0
C1064 C 0.91106 0.20444 0.80229 0.0
C1065 C 0.93611 0.16164 0.77138 0.0
C1066 C 0.88984 0.22941 0.80488 0.0
C1067 C 0.87267 0.23916 0.7803 0.0
C1068 C 0.91502 0.18915 0.77495 0.0
C1069 C 0.87824 0.22393 0.7528 0.0
C1070 C 0.93612 0.14539 0.74626 0.0
C1071 C 0.97608 0.12746 0.78776 0.0
N1072 N 0.89869 0.19974 0.751 0.0
N1073 N 0.95588 0.15199 0.79167 0.0
H1074 H 1.02198 0.95525 0.67112 0.0
H1075 H 0.88373 0.91945 0.74428 0.0
H1076 H 0.96764 0.99784 0.7497 0.0
H1077 H 0.94401 0.87218 0.67356 0.0
H1078 H 0.91403 0.94788 0.74797 0.0
H1079 H 0.99332 0.92458 0.67234 0.0
C1080 C 1.00392 0.95824 0.68857 0.0
C1081 C 0.99709 0.97933 0.71014 0.0
C1082 C 0.92063 0.9312 0.73177 0.0
C1083 C 0.9641 0.94401 0.7119 0.0
C1084 C 0.90341 0.91486 0.72977 0.0
C1085 C 0.91119 0.89354 0.70831 0.0
C1086 C 0.94579 0.9262 0.71215 0.0
C1087 C 0.93685 0.88874 0.68991 0.0
C1088 C 0.98762 0.94056 0.68943 0.0
C1089 C 0.97371 0.98179 0.73273 0.0
N1090 N 0.9531 0.90499 0.69214 0.0
N1091 N 0.95793 0.96446 0.73288 0.0
H1092 H 0.38287 0.10815 0.21484 0.0
H1093 H 0.28927 0.26317 0.2483 0.0
H1094 H 0.31923 0.15401 0.15686 0.0
H1095 H 0.34569 0.21199 0.31232 0.0
H1096 H 0.30319 0.22576 0.21099 0.0
H1097 H 0.37268 0.14811 0.24726 0.0
C1098 C 0.36688 0.12666 0.2087 0.0
C1099 C 0.35186 0.12753 0.18303 0.0
C1100 C 0.3127 0.22281 0.23305 0.0
C1101 C 0.33986 0.17359 0.22048 0.0
C1102 C 0.30493 0.24425 0.25419 0.0
C1103 C 0.31677 0.24081 0.2831 0.0
C1104 C 0.33223 0.19766 0.2411 0.0
C1105 C 0.33634 0.21555 0.29007 0.0
C1106 C 0.36095 0.1495 0.2274 0.0
C1107 C 0.3311 0.15215 0.17665 0.0
N1108 N 0.34348 0.195 0.26925 0.0
N1109 N 0.32571 0.17415 0.19523 0.0
H1110 H 0.99136 0.25424 0.22721 0.0
H1111 H 0.83403 0.33993 0.2231 0.0
H1112 H 0.96408 0.32015 0.15334 0.0
H1113 H 0.86439 0.27136 0.29234 0.0
H1114 H 0.88116 0.33548 0.19839 0.0
H1115 H 0.94464 0.26262 0.25297 0.0
C1116 C 0.97555 0.27043 0.2163 0.0
C1117 C 0.9818 0.28636 0.1879 0.0
C1118 C 0.87741 0.3216 0.21926 0.0
C1119 C 0.92783 0.29626 0.21748 0.0
C1120 C 0.85055 0.32416 0.23336 0.0
C1121 C 0.84514 0.30642 0.26048 0.0
C1122 C 0.89897 0.30086 0.23213 0.0
C1123 C 0.8673 0.286 0.27229 0.0
C1124 C 0.94879 0.27533 0.23113 0.0
C1125 C 0.96034 0.30747 0.17531 0.0
N1126 N 0.89306 0.28384 0.2582 0.0
N1127 N 0.93433 0.31171 0.19006 0.0
H1128 H 0.8659 0.91357 0.08239 0.0
H1129 H 0.79121 0.88788 0.25865 0.0
H1130 H 0.80096 0.98087 0.12316 0.0
H1131 H 0.8134 0.82931 0.18433 0.0
H1132 H 0.80283 0.92328 0.21735 0.0
H1133 H 0.85721 0.88274 0.13007 0.0
C1134 C 0.85024 0.92197 0.10173 0.0
C1135 C 0.83387 0.94958 0.09877 0.0
C1136 C 0.80496 0.90258 0.21047 0.0
C1137 C 0.82379 0.91464 0.15305 0.0
C1138 C 0.79822 0.8825 0.23383 0.0
C1139 C 0.80123 0.85553 0.22506 0.0
C1140 C 0.81542 0.89514 0.17869 0.0
C1141 C 0.81058 0.84966 0.19253 0.0
C1142 C 0.84514 0.9044 0.12873 0.0
C1143 C 0.81365 0.95948 0.12445 0.0
N1144 N 0.81761 0.86913 0.17076 0.0
N1145 N 0.80899 0.94194 0.15059 0.0
H1146 H 0.09195 0.76534 0.10952 0.0
H1147 H 0.23733 0.69448 0.17045 0.0
H1148 H 0.13551 0.67846 0.10133 0.0
H1149 H 0.19536 0.7824 0.17162 0.0
H1150 H 0.19732 0.68656 0.15341 0.0
H1151 H 0.12653 0.77019 0.14015 0.0
C1152 C 0.10882 0.74722 0.11424 0.0
C1153 C 0.11115 0.72156 0.10227 0.0
C1154 C 0.19672 0.70753 0.15779 0.0
C1155 C 0.1509 0.72694 0.13764 0.0
C1156 C 0.21957 0.71209 0.16748 0.0
C1157 C 0.21986 0.73923 0.17201 0.0
C1158 C 0.17396 0.73028 0.1525 0.0
C1159 C 0.19608 0.76114 0.16846 0.0
C1160 C 0.12851 0.74998 0.13191 0.0
C1161 C 0.13302 0.69862 0.10999 0.0
N1162 N 0.17424 0.75623 0.15853 0.0
N1163 N 0.15226 0.70192 0.12686 0.0
H1164 H 0.38223 0.98184 0.9882 0.0
H1165 H 0.28621 0.88551 0.02257 0.0
H1166 H 0.35851 0.95027 0.08537 0.0
H1167 H 0.35104 0.86748 0.94323 0.0
H1168 H 0.30702 0.9175 0.04088 0.0
H1169 H 0.36746 0.94616 0.9664 0.0
C1170 C 0.37445 0.96718 1.00497 0.0
C1171 C 0.37112 0.96947 0.03873 0.0
C1172 C 0.31665 0.90649 0.01946 0.0
C1173 C 0.35352 0.92949 1.0139 0.0
C1174 C 0.30487 0.88809 1.00899 0.0
C1175 C 0.31713 0.87312 0.98164 0.0
C1176 C 0.34056 0.91066 1.00212 0.0
C1177 C 0.34075 0.87851 0.96438 0.0
C1178 C 0.36588 0.94699 0.99247 0.0
C1179 C 0.36074 0.94988 0.05921 0.0
N1180 N 0.35172 0.89692 0.97488 0.0
N1181 N 0.35184 0.93113 0.04648 0.0
H1182 H 0.18369 0.2438 0.03059 0.0
H1183 H 0.20373 0.32294 0.85394 0.0
H1184 H 0.1184 0.30694 0.9891 0.0
H1185 H 0.2671 0.26032 0.89893 0.0
H1186 H 0.17202 0.31885 0.90319 0.0
H1187 H 0.21443 0.25055 0.98232 0.0
C1188 C 0.17569 0.25895 1.01127 0.0
C1189 C 0.14825 0.2747 1.01407 0.0
C1190 C 0.19295 0.30613 0.90225 0.0
C1191 C 0.1837 0.28283 0.95838 0.0
C1192 C 0.21101 0.30848 0.8742 0.0
C1193 C 0.23825 0.29223 0.8724 0.0
C1194 C 0.20215 0.28702 0.92846 0.0
C1195 C 0.24651 0.27351 0.89915 0.0
C1196 C 0.19337 0.26296 0.98368 0.0
C1197 C 0.13938 0.29445 0.98825 0.0
N1198 N 0.22864 0.27147 0.92593 0.0
N1199 N 0.157 0.2979 0.9615 0.0
H1200 H 0.84167 0.09871 0.88013 0.0
H1201 H 0.7713 0.2599 0.91138 0.0
H1202 H 0.79625 0.1252 0.97191 0.0
H1203 H 0.82757 0.2301 0.82786 0.0
H1204 H 0.77853 0.21115 0.93434 0.0
H1205 H 0.83485 0.14746 0.86018 0.0
C1206 C 0.83046 0.11473 0.89621 0.0
C1207 C 0.81959 0.1077 0.92778 0.0
C1208 C 0.78929 0.21544 0.91094 0.0
C1209 C 0.81148 0.16385 0.90499 0.0
C1210 C 0.78513 0.24317 0.89788 0.0
C1211 C 0.79819 0.24904 0.8671 0.0
C1212 C 0.80698 0.19366 0.8932 0.0
C1213 C 0.81651 0.22674 0.85106 0.0
C1214 C 0.82645 0.14264 0.88477 0.0
C1215 C 0.80474 0.12954 0.94727 0.0
N1216 N 0.82017 0.20015 0.86409 0.0
N1217 N 0.80111 0.15663 0.93557 0.0
H1218 H 0.97371 0.78826 0.92219 0.0
H1219 H 0.84779 0.74158 0.88519 0.0
H1220 H 0.96548 0.70577 0.9504 0.0
H1221 H 0.87505 0.80614 0.8255 0.0
H1222 H 0.88757 0.73127 0.91453 0.0
H1223 H 0.93433 0.79849 0.89177 0.0
C1224 C 0.96356 0.77236 0.92206 0.0
C1225 C 0.97295 0.74608 0.93875 0.0
C1226 C 0.88488 0.74767 0.89498 0.0
C1227 C 0.92781 0.75769 0.90428 0.0
C1228 C 0.86204 0.75371 0.87842 0.0
C1229 C 0.85797 0.77488 0.85306 0.0
C1230 C 0.90364 0.76323 0.88652 0.0
C1231 C 0.8775 0.78953 0.8448 0.0
C1232 C 0.94122 0.77814 0.90456 0.0
C1233 C 0.95912 0.72616 0.93759 0.0
N1234 N 0.89935 0.78363 0.86168 0.0
N1235 N 0.93717 0.73243 0.92089 0.0
H1236 H 0.09626 0.3094 0.22298 0.0
H1237 H 0.24649 0.32077 0.21269 0.0
H1238 H 0.13849 0.33336 0.13254 0.0
H1239 H 0.19206 0.32641 0.3021 0.0
H1240 H 0.20825 0.3249 0.18253 0.0
H1241 H 0.1314 0.31546 0.25207 0.0
C1242 C 0.11267 0.31661 0.20931 0.0
C1243 C 0.11422 0.32126 0.17533 0.0
C1244 C 0.20464 0.3256 0.20871 0.0
C1245 C 0.15537 0.32721 0.20848 0.0
C1246 C 0.2265 0.32335 0.22603 0.0
C1247 C 0.22267 0.32353 0.26014 0.0
C1248 C 0.17871 0.32748 0.22557 0.0
C1249 C 0.19623 0.32617 0.27592 0.0
C1250 C 0.13285 0.31992 0.22593 0.0
C1251 C 0.13624 0.33007 0.1588 0.0
N1252 N 0.17545 0.32778 0.2586 0.0
N1253 N 0.15619 0.33233 0.17547 0.0
H1254 H 0.12146 0.76887 0.99295 0.0
H1255 H 0.2141 0.81284 0.83706 0.0
H1256 H 0.09001 0.79458 0.90077 0.0
H1257 H 0.24676 0.74426 0.90533 0.0
H1258 H 0.16803 0.81501 0.86392 0.0
H1259 H 0.16694 0.76928 0.96595 0.0
C1260 C 0.12391 0.77528 0.96724 0.0
C1261 C 0.10165 0.78193 0.94925 0.0
C1262 C 0.18529 0.79941 0.87291 0.0
C1263 C 0.15389 0.78242 0.91808 0.0
C1264 C 0.21162 0.79794 0.85734 0.0
C1265 C 0.23445 0.77758 0.86806 0.0
C1266 C 0.18166 0.78128 0.90048 0.0
C1267 C 0.22984 0.75987 0.89569 0.0
C1268 C 0.14998 0.77517 0.95175 0.0
C1269 C 0.10643 0.78945 0.91572 0.0
N1270 N 0.20416 0.7622 0.91094 0.0
N1271 N 0.13183 0.78965 0.90134 0.0
H1272 H 0.2942 0.08328 0.98946 0.0
H1273 H 0.34374 0.21526 0.91496 0.0
H1274 H 0.32316 0.13198 0.04674 0.0
H1275 H 0.28479 0.19058 0.87173 0.0
H1276 H 0.34119 0.18057 0.96032 0.0
H1277 H 0.29422 0.11869 0.9436 0.0
C1278 C 0.30027 0.10153 0.99255 0.0
C1279 C 0.30863 0.10462 0.02213 0.0
C1280 C 0.32875 0.18276 0.94096 0.0
C1281 C 0.30937 0.14484 0.96941 0.0
C1282 C 0.3301 0.20273 0.91502 0.0
C1283 C 0.31394 0.20655 0.88973 0.0
C1284 C 0.31154 0.16582 0.94151 0.0
C1285 C 0.29759 0.18856 0.89066 0.0
C1286 C 0.30033 0.12169 0.96633 0.0
C1287 C 0.31639 0.12871 0.02458 0.0
N1288 N 0.29679 0.169 0.91612 0.0
N1289 N 0.31687 0.14765 0.99852 0.0
H1290 H 1.02077 0.3536 0.02172 0.0
H1291 H 0.89518 0.31654 0.96433 0.0
H1292 H 0.9921 0.28378 0.06436 0.0
H1293 H 0.9409 0.36683 0.9043 0.0
H1294 H 0.92718 0.30791 1.00476 0.0
H1295 H 0.98709 0.36384 0.98269 0.0
C1296 C 1.00717 0.34073 0.02317 0.0
C1297 C 1.00935 0.31774 0.04616 0.0
C1298 C 0.93012 0.32087 0.9827 0.0
C1299 C 0.97095 0.32917 1.00178 0.0
C1300 C 0.91197 0.3256 0.95946 0.0
C1301 C 0.91498 0.34274 0.93088 0.0
C1302 C 0.95138 0.3335 0.97753 0.0
C1303 C 0.93717 0.35409 0.92625 0.0
C1304 C 0.98813 0.34638 1.00077 0.0
C1305 C 0.99132 0.30158 0.04682 0.0
N1306 N 0.95429 0.34945 0.94933 0.0
N1307 N 0.97296 0.30757 0.02505 0.0
H1308 H 0.81715 0.92132 0.96735 0.0
H1309 H 0.74511 0.90136 0.81895 0.0
H1310 H 0.75551 0.98867 0.92564 0.0
H1311 H 0.8004 0.83477 0.87074 0.0
H1312 H 0.74555 0.9333 0.85918 0.0
H1313 H 0.80788 0.88908 0.93459 0.0
C1314 C 0.80135 0.92929 0.95149 0.0
C1315 C 0.78715 0.9578 0.94921 0.0
C1316 C 0.75725 0.9116 0.86199 0.0
C1317 C 0.77673 0.92077 0.91064 0.0
C1318 C 0.75702 0.89338 0.83905 0.0
C1319 C 0.77241 0.86522 0.84173 0.0
C1320 C 0.77342 0.90171 0.88751 0.0
C1321 C 0.78782 0.85609 0.86793 0.0
C1322 C 0.79608 0.91081 0.93267 0.0
C1323 C 0.76684 0.96684 0.92829 0.0
N1324 N 0.78799 0.87424 0.8896 0.0
N1325 N 0.76249 0.94845 0.90943 0.0
H1326 H 0.9987 0.77548 0.12373 0.0
H1327 H 0.84538 0.78442 0.19964 0.0
H1328 H 0.93915 0.76722 0.06687 0.0
H1329 H 0.91197 0.75451 0.25724 0.0
H1330 H 0.87764 0.78563 0.15091 0.0
H1331 H 0.96542 0.77694 0.1729 0.0
C1332 C 0.97838 0.77491 0.1214 0.0
C1333 C 0.97157 0.77174 0.09097 0.0
C1334 C 0.88527 0.77858 0.17416 0.0
C1335 C 0.93351 0.77285 0.14723 0.0
C1336 C 0.86673 0.7775 0.20211 0.0
C1337 C 0.87568 0.76857 0.2328 0.0
C1338 C 0.91323 0.77153 0.17674 0.0
C1339 C 0.90394 0.76113 0.23418 0.0
C1340 C 0.95953 0.77527 0.14955 0.0
C1341 C 0.94517 0.77009 0.0897 0.0
N1342 N 0.9216 0.76297 0.20675 0.0
N1343 N 0.92718 0.77076 0.11722 0.0
H1344 H 0.31256 0.98105 0.13141 0.0
H1345 H 0.28638 0.88223 0.28735 0.0
H1346 H 0.31167 0.00599 0.22714 0.0
H1347 H 0.34133 0.84906 0.20423 0.0
H1348 H 0.28485 0.92962 0.26404 0.0
H1349 H 0.31142 0.93449 0.15572 0.0
C1350 C 0.31163 0.97699 0.15754 0.0
C1351 C 0.31243 0.99753 0.17719 0.0
C1352 C 0.29731 0.91192 0.251 0.0
C1353 C 0.31068 0.94434 0.20515 0.0
C1354 C 0.29841 0.88482 0.26445 0.0
C1355 C 0.31481 0.86148 0.2484 0.0
C1356 C 0.31165 0.91583 0.2204 0.0
C1357 C 0.3289 0.86638 0.21785 0.0
C1358 C 0.31118 0.95032 0.17135 0.0
C1359 C 0.31117 0.99084 0.21101 0.0
N1360 N 0.32689 0.89295 0.20476 0.0
N1361 N 0.31024 0.96492 0.22393 0.0
H1362 H 0.74863 0.10426 0.04377 0.0
H1363 H 0.77813 0.16309 0.20157 0.0
H1364 H 0.8099 0.05693 0.10405 0.0
H1365 H 0.74021 0.2154 0.12194 0.0
H1366 H 0.78465 0.12203 0.17124 0.0
H1367 H 0.73802 0.14318 0.07881 0.0
C1368 C 0.75928 0.10181 0.06487 0.0
C1369 C 0.7801 0.07743 0.0711 0.0
C1370 C 0.77479 0.14257 0.16059 0.0
C1371 C 0.76852 0.12175 0.11087 0.0
C1372 C 0.77129 0.16603 0.17776 0.0
C1373 C 0.75824 0.19285 0.16463 0.0
C1374 C 0.76501 0.14592 0.1302 0.0
C1375 C 0.74968 0.19519 0.13362 0.0
C1376 C 0.75352 0.12408 0.08461 0.0
C1377 C 0.7937 0.07547 0.09841 0.0
N1378 N 0.75303 0.17215 0.11768 0.0
N1379 N 0.78777 0.09733 0.11721 0.0
H1380 H 0.62261 0.58784 0.86694 0.0
H1381 H 0.6318 0.72809 0.93173 0.0
H1382 H 0.56269 0.63627 0.93697 0.0
H1383 H 0.69756 0.67591 0.871 0.0
H1384 H 0.60504 0.69602 0.93024 0.0
H1385 H 0.64921 0.62113 0.86452 0.0
C1386 C 0.615 0.60548 0.88171 0.0
C1387 C 0.59044 0.60913 0.90236 0.0
C1388 C 0.62531 0.69152 0.91719 0.0
C1389 C 0.62073 0.64724 0.89972 0.0
C1390 C 0.64068 0.7098 0.91814 0.0
C1391 C 0.66714 0.70455 0.90181 0.0
C1392 C 0.63634 0.66767 0.89972 0.0
C1393 C 0.67723 0.68085 0.88389 0.0
C1394 C 0.63024 0.6244 0.88041 0.0
C1395 C 0.58168 0.63227 0.92114 0.0
N1396 N 0.66187 0.66319 0.88345 0.0
N1397 N 0.59676 0.65039 0.91933 0.0
H1398 H 0.46075 0.57954 0.77639 0.0
H1399 H 0.35841 0.70888 0.86507 0.0
H1400 H 0.47914 0.6154 0.85621 0.0
H1401 H 0.35555 0.7001 0.76414 0.0
H1402 H 0.39899 0.66925 0.86495 0.0
H1403 H 0.41913 0.61889 0.77342 0.0
C1404 C 0.4562 0.59569 0.79312 0.0
C1405 C 0.4736 0.59406 0.81658 0.0
C1406 C 0.38954 0.67596 0.84277 0.0
C1407 C 0.42581 0.63866 0.81374 0.0
C1408 C 0.36636 0.69877 0.84276 0.0
C1409 C 0.35385 0.7085 0.81434 0.0
C1410 C 0.40024 0.66214 0.81431 0.0
C1411 C 0.36458 0.6935 0.7866 0.0
C1412 C 0.43245 0.61809 0.7914 0.0
C1413 C 0.46654 0.61564 0.83764 0.0
N1414 N 0.38722 0.67108 0.78722 0.0
N1415 N 0.44319 0.63676 0.83591 0.0
H1416 H 0.50209 0.43651 0.94056 0.0
H1417 H 0.38996 0.40479 0.85074 0.0
H1418 H 0.46305 0.49175 0.86333 0.0
H1419 H 0.4102 0.36741 0.94554 0.0
H1420 H 0.42285 0.43145 0.84926 0.0
H1421 H 0.47388 0.4063 0.93754 0.0
C1422 C 0.48759 0.44253 0.92305 0.0
C1423 C 0.48502 0.46708 0.90233 0.0
C1424 C 0.42023 0.41722 0.87024 0.0
C1425 C 0.45289 0.43189 0.89838 0.0
C1426 C 0.40169 0.40187 0.87095 0.0
C1427 C 0.39736 0.38405 0.89837 0.0
C1428 C 0.43467 0.41442 0.89699 0.0
C1429 C 0.41283 0.38115 0.92409 0.0
C1430 C 0.47156 0.42504 0.92123 0.0
C1431 C 0.46608 0.47308 0.87969 0.0
N1432 N 0.43076 0.39624 0.92281 0.0
N1433 N 0.45076 0.45563 0.87834 0.0
H1434 H 0.62455 0.49639 0.84112 0.0
H1435 H 0.70016 0.33788 0.80233 0.0
H1436 H 0.58477 0.44303 0.80671 0.0
H1437 H 0.73304 0.38582 0.85598 0.0
H1438 H 0.65858 0.37648 0.80144 0.0
H1439 H 0.66597 0.45728 0.84213 0.0
C1440 C 0.62459 0.4766 0.8333 0.0
C1441 C 0.60102 0.47309 0.82382 0.0
C1442 C 0.67491 0.37853 0.81349 0.0
C1443 C 0.64843 0.42797 0.82539 0.0
C1444 C 0.69872 0.35634 0.81425 0.0
C1445 C 0.72072 0.35855 0.8288 0.0
C1446 C 0.67292 0.40335 0.82722 0.0
C1447 C 0.71723 0.38321 0.84375 0.0
C1448 C 0.64821 0.45416 0.83421 0.0
C1449 C 0.60238 0.44678 0.81422 0.0
N1450 N 0.694 0.40466 0.84232 0.0
N1451 N 0.6256 0.42529 0.81531 0.0
H1452 H 0.60114 0.47297 0.3181 0.0
H1453 H 0.7612 0.39571 0.30905 0.0
H1454 H 0.66215 0.50783 0.26317 0.0
H1455 H 0.69974 0.35219 0.32666 0.0
H1456 H 0.72516 0.44016 0.30492 0.0
H1457 H 0.63742 0.4318 0.33494 0.0
C1458 C 0.62216 0.4723 0.31037 0.0
C1459 C 0.62871 0.49372 0.28917 0.0
C1460 C 0.71964 0.42083 0.31 0.0
C1461 C 0.67012 0.4469 0.30808 0.0
C1462 C 0.74017 0.39552 0.31242 0.0
C1463 C 0.7335 0.3702 0.31785 0.0
C1464 C 0.69227 0.42082 0.31366 0.0
C1465 C 0.70586 0.37118 0.32206 0.0
C1466 C 0.64282 0.44874 0.31968 0.0
C1467 C 0.65627 0.49166 0.27943 0.0
N1468 N 0.6863 0.39601 0.31983 0.0
N1469 N 0.67595 0.46864 0.28883 0.0
H1470 H 0.6222 0.62941 0.16045 0.0
H1471 H 0.68928 0.70677 0.26748 0.0
H1472 H 0.61693 0.61726 0.26536 0.0
H1473 H 0.67172 0.73568 0.16942 0.0
H1474 H 0.67032 0.66792 0.26495 0.0
H1475 H 0.64758 0.66274 0.16153 0.0
C1476 C 0.6262 0.6336 0.18376 0.0
C1477 C 0.61676 0.6205 0.2129 0.0
C1478 C 0.6708 0.68268 0.24394 0.0
C1479 C 0.64648 0.65864 0.21407 0.0
C1480 C 0.68175 0.7047 0.2453 0.0
C1481 C 0.68183 0.72452 0.2187 0.0
C1482 C 0.66018 0.68035 0.21563 0.0
C1483 C 0.6717 0.72102 0.1906 0.0
C1484 C 0.64087 0.65266 0.18428 0.0
C1485 C 0.62347 0.62663 0.24217 0.0
N1486 N 0.66124 0.6994 0.18981 0.0
N1487 N 0.6378 0.64529 0.24199 0.0
H1488 H 0.46742 0.6165 0.22464 0.0
H1489 H 0.38958 0.73846 0.34059 0.0
H1490 H 0.49704 0.62133 0.31454 0.0
H1491 H 0.37952 0.73957 0.23965 0.0
H1492 H 0.42748 0.69535 0.33455 0.0
H1493 H 0.4323 0.65988 0.23366 0.0
C1494 C 0.46651 0.62662 0.24648 0.0
C1495 C 0.48547 0.61519 0.26873 0.0
C1496 C 0.41706 0.70522 0.31373 0.0
C1497 C 0.44487 0.66568 0.2792 0.0
C1498 C 0.3956 0.72992 0.31706 0.0
C1499 C 0.38109 0.74242 0.29065 0.0
C1500 C 0.42386 0.693 0.28383 0.0
C1501 C 0.38961 0.73033 0.26086 0.0
C1502 C 0.4464 0.65162 0.25154 0.0
C1503 C 0.48287 0.62936 0.29673 0.0
N1504 N 0.41016 0.7063 0.25837 0.0
N1505 N 0.46295 0.65397 0.30116 0.0
H1506 H 0.47353 0.50709 0.25964 0.0
H1507 H 0.44667 0.37452 0.19649 0.0
H1508 H 0.53269 0.44769 0.19974 0.0
H1509 H 0.38696 0.43027 0.25984 0.0
H1510 H 0.479 0.40024 0.20013 0.0
H1511 H 0.44214 0.47862 0.26271 0.0
C1512 C 0.48003 0.48802 0.24732 0.0
C1513 C 0.50579 0.47999 0.22913 0.0
C1514 C 0.45891 0.40687 0.21342 0.0
C1515 C 0.46987 0.44737 0.23241 0.0
C1516 C 0.44039 0.39219 0.21128 0.0
C1517 C 0.41398 0.40043 0.22761 0.0
C1518 C 0.45103 0.4302 0.23189 0.0
C1519 C 0.40714 0.42319 0.2469 0.0
C1520 C 0.46204 0.47182 0.249 0.0
C1521 C 0.51294 0.45512 0.21348 0.0
N1522 N 0.42547 0.43747 0.24827 0.0
N1523 N 0.4951 0.43984 0.21542 0.0
H1524 H 0.83815 0.59551 0.71156 0.0
H1525 H 0.78325 0.75872 0.73368 0.0
H1526 H 0.80495 0.65533 0.63467 0.0
H1527 H 0.83629 0.70041 0.79639 0.0
H1528 H 0.79117 0.72198 0.69642 0.0
H1529 H 0.83792 0.63394 0.7425 0.0
C1530 C 0.83108 0.61672 0.70099 0.0
C1531 C 0.82151 0.6221 0.67044 0.0
C1532 C 0.80138 0.71733 0.71809 0.0
C1533 C 0.82073 0.66648 0.70616 0.0
C1534 C 0.797 0.73837 0.73926 0.0
C1535 C 0.80956 0.73275 0.76788 0.0
C1536 C 0.81784 0.69026 0.72606 0.0
C1537 C 0.82643 0.7057 0.77443 0.0
C1538 C 0.83095 0.63872 0.71871 0.0
C1539 C 0.8126 0.65013 0.65806 0.0
N1540 N 0.82993 0.68549 0.75387 0.0
N1541 N 0.8121 0.67124 0.67611 0.0
H1542 H 0.49706 0.74321 0.69766 0.0
H1543 H 0.34024 0.83497 0.71711 0.0
H1544 H 0.46726 0.82121 0.64153 0.0
H1545 H 0.37162 0.76078 0.77851 0.0
H1546 H 0.38648 0.83104 0.69028 0.0
H1547 H 0.45179 0.74975 0.7279 0.0
C1548 C 0.48107 0.76171 0.69149 0.0
C1549 C 0.48634 0.78155 0.66655 0.0
C1550 C 0.38338 0.81571 0.7098 0.0
C1551 C 0.43374 0.78928 0.70175 0.0
C1552 C 0.35691 0.81798 0.72521 0.0
C1553 C 0.35189 0.79846 0.75055 0.0
C1554 C 0.40529 0.79333 0.71916 0.0
C1555 C 0.37439 0.77663 0.75956 0.0
C1556 C 0.4551 0.76551 0.70904 0.0
C1557 C 0.46451 0.80534 0.66047 0.0
N1558 N 0.39993 0.77463 0.7439 0.0
N1559 N 0.43932 0.8084 0.67769 0.0
H1560 H 0.34704 0.41031 0.5973 0.0
H1561 H 0.28783 0.38101 0.78063 0.0
H1562 H 0.28263 0.47447 0.64424 0.0
H1563 H 0.31113 0.31897 0.71048 0.0
H1564 H 0.29228 0.41673 0.73578 0.0
H1565 H 0.3414 0.37725 0.64399 0.0
C1566 C 0.33186 0.41746 0.6176 0.0
C1567 C 0.31522 0.4451 0.61689 0.0
C1568 C 0.29622 0.39524 0.73045 0.0
C1569 C 0.30885 0.4075 0.6706 0.0
C1570 C 0.29375 0.37488 0.75595 0.0
C1571 C 0.29882 0.34689 0.74941 0.0
C1572 C 0.30462 0.3873 0.69845 0.0
C1573 C 0.30656 0.34018 0.7169 0.0
C1574 C 0.32855 0.3986 0.64413 0.0
C1575 C 0.29567 0.45324 0.64379 0.0
N1576 N 0.30948 0.36007 0.69285 0.0
N1577 N 0.29312 0.43458 0.66973 0.0
H1578 H 0.5864 0.30479 0.54312 0.0
H1579 H 0.64455 0.3082 0.71013 0.0
H1580 H 0.53608 0.31713 0.63535 0.0
H1581 H 0.69355 0.27119 0.62515 0.0
H1582 H 0.60472 0.32289 0.67984 0.0
H1583 H 0.62557 0.30415 0.56967 0.0
C1584 C 0.5834 0.30792 0.5688 0.0
C1585 C 0.55785 0.3106 0.58705 0.0
C1586 C 0.6243 0.31197 0.66768 0.0
C1587 C 0.60284 0.30983 0.61768 0.0
C1588 C 0.64703 0.3038 0.68487 0.0
C1589 C 0.67231 0.28842 0.67011 0.0
C1590 C 0.62699 0.30497 0.6354 0.0
C1591 C 0.67437 0.28293 0.63743 0.0
C1592 C 0.60587 0.3074 0.584 0.0
C1593 C 0.55538 0.31472 0.6203 0.0
N1594 N 0.65204 0.29106 0.62126 0.0
N1595 N 0.57758 0.31394 0.63457 0.0
H1596 H 0.83146 0.49552 0.58094 0.0
H1597 H 0.82781 0.41659 0.42562 0.0
H1598 H 0.82568 0.53702 0.48456 0.0
H1599 H 0.81793 0.38294 0.52521 0.0
H1600 H 0.83041 0.45985 0.44528 0.0
H1601 H 0.83185 0.45236 0.5593 0.0
C1602 C 0.83073 0.49552 0.55513 0.0
C1603 C 0.82841 0.52012 0.53465 0.0
C1604 C 0.8277 0.44293 0.46276 0.0
C1605 C 0.82849 0.47057 0.50962 0.0
C1606 C 0.82599 0.41831 0.45155 0.0
C1607 C 0.82298 0.39583 0.47371 0.0
C1608 C 0.82643 0.44507 0.49636 0.0
C1609 C 0.82091 0.39932 0.50708 0.0
C1610 C 0.83071 0.47085 0.54279 0.0
C1611 C 0.82741 0.51865 0.50135 0.0
N1612 N 0.82281 0.42326 0.51729 0.0
N1613 N 0.82732 0.4944 0.48993 0.0
H1614 H 0.69396 0.74818 0.51369 0.0
H1615 H 0.71933 0.81818 0.33276 0.0
H1616 H 0.63122 0.81264 0.46966 0.0
H1617 H 0.78156 0.75926 0.38292 0.0
H1618 H 0.68731 0.81927 0.38289 0.0
H1619 H 0.72629 0.7537 0.46648 0.0
C1620 C 0.68681 0.76347 0.49411 0.0
C1621 C 0.65946 0.77977 0.49595 0.0
C1622 C 0.70814 0.80648 0.38314 0.0
C1623 C 0.69708 0.78645 0.44104 0.0
C1624 C 0.72655 0.80614 0.35459 0.0
C1625 C 0.75361 0.78924 0.35371 0.0
C1626 C 0.71657 0.78917 0.41098 0.0
C1627 C 0.76126 0.77295 0.38235 0.0
C1628 C 0.70549 0.76677 0.46706 0.0
C1629 C 0.65196 0.79963 0.46965 0.0
N1630 N 0.74301 0.77329 0.40956 0.0
N1631 N 0.67052 0.80225 0.44334 0.0
H1632 H 0.2774 0.63144 0.48025 0.0
H1633 H 0.32819 0.7269 0.33124 0.0
H1634 H 0.33907 0.5986 0.40204 0.0
H1635 H 0.26186 0.75949 0.40442 0.0
H1636 H 0.33188 0.67976 0.35633 0.0
H1637 H 0.27094 0.67815 0.45275 0.0
C1638 C 0.28952 0.63386 0.45726 0.0
C1639 C 0.30891 0.61068 0.44368 0.0
C1640 C 0.31636 0.69714 0.36686 0.0
C1641 C 0.3017 0.66465 0.41202 0.0
C1642 C 0.31414 0.72412 0.35237 0.0
C1643 C 0.29429 0.74719 0.36533 0.0
C1644 C 0.29898 0.69307 0.39505 0.0
C1645 C 0.27722 0.74227 0.39339 0.0
C1646 C 0.28586 0.6607 0.44158 0.0
C1647 C 0.32417 0.6156 0.4139 0.0
N1648 N 0.27994 0.71582 0.40729 0.0
N1649 N 0.32027 0.64191 0.39921 0.0
H1650 H 0.47173 0.30763 0.43925 0.0
H1651 H 0.32773 0.28654 0.42174 0.0
H1652 H 0.43149 0.25788 0.50831 0.0
H1653 H 0.38081 0.30381 0.3372 0.0
H1654 H 0.36272 0.28365 0.45574 0.0
H1655 H 0.43567 0.31463 0.40379 0.0
C1656 C 0.45508 0.29867 0.44723 0.0
C1657 C 0.45456 0.28221 0.47684 0.0
C1658 C 0.36685 0.28793 0.42973 0.0
C1659 C 0.41348 0.29003 0.43657 0.0
C1660 C 0.34683 0.28936 0.4101 0.0
C1661 C 0.3513 0.29472 0.3762 0.0
C1662 C 0.39165 0.29243 0.41575 0.0
C1663 C 0.37644 0.29919 0.36308 0.0
C1664 C 0.43471 0.30239 0.42686 0.0
C1665 C 0.43275 0.27069 0.48572 0.0
N1666 N 0.39563 0.29802 0.38285 0.0
N1667 N 0.41317 0.27487 0.46583 0.0
H1668 H 0.63441 0.83586 0.62157 0.0
H1669 H 0.69113 0.81881 0.79404 0.0
H1670 H 0.5956 0.80529 0.71093 0.0
H1671 H 0.74185 0.81932 0.70222 0.0
H1672 H 0.65246 0.82339 0.76458 0.0
H1673 H 0.67013 0.84018 0.65164 0.0
C1674 C 0.63304 0.83069 0.6476 0.0
C1675 C 0.61198 0.82017 0.66375 0.0
C1676 C 0.67202 0.82282 0.7509 0.0
C1677 C 0.65281 0.82489 0.69822 0.0
C1678 C 0.69418 0.82022 0.76771 0.0
C1679 C 0.71998 0.81884 0.75071 0.0
C1680 C 0.67547 0.82431 0.71674 0.0
C1681 C 0.72243 0.82072 0.71649 0.0
C1682 C 0.65357 0.83288 0.66469 0.0
C1683 C 0.61149 0.8134 0.69746 0.0
N1684 N 0.70054 0.82335 0.70069 0.0
N1685 N 0.63157 0.81581 0.71351 0.0
H1686 H 0.60565 0.26215 0.40388 0.0
H1687 H 0.76251 0.23425 0.41464 0.0
H1688 H 0.63685 0.23656 0.4962 0.0
H1689 H 0.71817 0.30525 0.3572 0.0
H1690 H 0.71905 0.22641 0.4397 0.0
H1691 H 0.64953 0.26933 0.3802 0.0
C1692 C 0.62189 0.25773 0.41902 0.0
C1693 C 0.61773 0.24866 0.452 0.0
C1694 C 0.71898 0.24354 0.42136 0.0
C1695 C 0.66795 0.25644 0.42499 0.0
C1696 C 0.74367 0.24795 0.40699 0.0
C1697 C 0.74403 0.26969 0.3827 0.0
C1698 C 0.6945 0.26096 0.41123 0.0
C1699 C 0.71901 0.28745 0.37455 0.0
C1700 C 0.64679 0.26199 0.40558 0.0
C1701 C 0.63931 0.2436 0.4707 0.0
N1702 N 0.6953 0.28244 0.38835 0.0
N1703 N 0.66363 0.24729 0.45687 0.0
H1704 H 0.78909 0.67363 0.5259 0.0
H1705 H 0.79577 0.69452 0.33304 0.0
H1706 H 0.75738 0.62597 0.4704 0.0
H1707 H 0.84126 0.72775 0.38851 0.0
H1708 H 0.78233 0.66822 0.38219 0.0
H1709 H 0.80685 0.69505 0.47526 0.0
C1710 C 0.7857 0.66785 0.50301 0.0
C1711 C 0.77183 0.64793 0.50238 0.0
C1712 C 0.79557 0.68101 0.38349 0.0
C1713 C 0.79231 0.67212 0.44428 0.0
C1714 C 0.80355 0.69586 0.35531 0.0
C1715 C 0.81926 0.71404 0.35669 0.0
C1716 C 0.80331 0.6844 0.41322 0.0
C1717 C 0.82874 0.71459 0.38631 0.0
C1718 C 0.79599 0.67992 0.47412 0.0
C1719 C 0.7677 0.64143 0.47206 0.0
N1720 N 0.82023 0.70045 0.41353 0.0
N1721 N 0.778 0.65343 0.44417 0.0
H1722 H 0.50009 0.86205 0.54366 0.0
H1723 H 0.42106 0.80338 0.43474 0.0
H1724 H 0.53818 0.79291 0.48432 0.0
H1725 H 0.39009 0.88768 0.46424 0.0
H1726 H 0.46477 0.80072 0.45099 0.0
H1727 H 0.46034 0.87397 0.51352 0.0
C1728 C 0.50037 0.84982 0.52384 0.0
C1729 C 0.52225 0.8262 0.51681 0.0
C1730 C 0.44852 0.81997 0.45357 0.0
C1731 C 0.47695 0.83933 0.48279 0.0
C1732 C 0.42346 0.8216 0.444 0.0
C1733 C 0.40149 0.8457 0.44834 0.0
C1734 C 0.45173 0.84236 0.4682 0.0
C1735 C 0.40609 0.86834 0.46122 0.0
C1736 C 0.47767 0.85653 0.50674 0.0
C1737 C 0.52155 0.811 0.49096 0.0
N1738 N 0.43054 0.86596 0.47118 0.0
N1739 N 0.49915 0.81756 0.47528 0.0
H1740 H 0.30614 0.4279 0.48415 0.0
H1741 H 0.24105 0.41 0.32955 0.0
H1742 H 0.24718 0.49657 0.44007 0.0
H1743 H 0.29074 0.34293 0.387 0.0
H1744 H 0.23935 0.44204 0.37074 0.0
H1745 H 0.29701 0.39632 0.45051 0.0
C1746 C 0.29101 0.43628 0.46748 0.0
C1747 C 0.27753 0.46489 0.46473 0.0
C1748 C 0.25017 0.42015 0.37452 0.0
C1749 C 0.26723 0.42875 0.42526 0.0
C1750 C 0.25115 0.40188 0.35106 0.0
C1751 C 0.26584 0.37355 0.3549 0.0
C1752 C 0.26435 0.41 0.40172 0.0
C1753 C 0.27887 0.36426 0.38296 0.0
C1754 C 0.28576 0.41821 0.4482 0.0
C1755 C 0.25796 0.47459 0.44292 0.0
N1756 N 0.2779 0.38236 0.40505 0.0
N1757 N 0.25368 0.45658 0.42354 0.0
H1758 H 0.4938 0.20862 0.66619 0.0
H1759 H 0.34247 0.28649 0.74052 0.0
H1760 H 0.43527 0.26807 0.6105 0.0
H1761 H 0.39881 0.22479 0.796 0.0
H1762 H 0.37542 0.2782 0.69207 0.0
H1763 H 0.45892 0.2122 0.71298 0.0
C1764 C 0.47362 0.22225 0.66356 0.0
C1765 C 0.4677 0.2382 0.63412 0.0
C1766 C 0.38062 0.26622 0.71469 0.0
C1767 C 0.42753 0.24263 0.68816 0.0
C1768 C 0.36161 0.27085 0.74237 0.0
C1769 C 0.36751 0.25583 0.77214 0.0
C1770 C 0.4062 0.24675 0.71684 0.0
C1771 C 0.39325 0.23651 0.77336 0.0
C1772 C 0.45368 0.22438 0.69048 0.0
C1773 C 0.44108 0.25571 0.63266 0.0
N1774 N 0.41164 0.23249 0.74613 0.0
N1775 N 0.4221 0.25752 0.65924 0.0
H1776 H 0.74531 0.50544 0.72101 0.0
H1777 H 0.82289 0.34508 0.69389 0.0
H1778 H 0.79577 0.47796 0.63231 0.0
H1779 H 0.7623 0.37254 0.7748 0.0
H1780 H 0.81327 0.39362 0.67032 0.0
H1781 H 0.75143 0.4566 0.74128 0.0
C1782 C 0.75745 0.48918 0.7057 0.0
C1783 C 0.77021 0.49585 0.67506 0.0
C1784 C 0.80207 0.38896 0.69325 0.0
C1785 C 0.77745 0.43995 0.69805 0.0
C1786 C 0.80762 0.36135 0.70666 0.0
C1787 C 0.7942 0.35508 0.73696 0.0
C1788 C 0.78266 0.41021 0.71016 0.0
C1789 C 0.77393 0.37662 0.75211 0.0
C1790 C 0.76103 0.4613 0.71728 0.0
C1791 C 0.786 0.47386 0.65636 0.0
N1792 N 0.769 0.40326 0.73877 0.0
N1793 N 0.78926 0.44693 0.6682 0.0
H1794 H 0.23313 0.60659 0.55213 0.0
H1795 H 0.24414 0.6833 0.70514 0.0
H1796 H 0.27527 0.56466 0.63371 0.0
H1797 H 0.22505 0.72549 0.61158 0.0
H1798 H 0.2451 0.63933 0.68472 0.0
H1799 H 0.21823 0.64994 0.58001 0.0
C1800 C 0.23851 0.60633 0.57631 0.0
C1801 C 0.2556 0.58222 0.59061 0.0
C1802 C 0.24037 0.65834 0.66887 0.0
C1803 C 0.23909 0.63146 0.62227 0.0
C1804 C 0.24004 0.68342 0.68041 0.0
C1805 C 0.23473 0.70823 0.66004 0.0
C1806 C 0.23524 0.65805 0.63679 0.0
C1807 C 0.22893 0.70708 0.62841 0.0
C1808 C 0.23028 0.63108 0.59205 0.0
C1809 C 0.2623 0.58298 0.62179 0.0
N1810 N 0.22951 0.68242 0.61774 0.0
N1811 N 0.25427 0.60728 0.63646 0.0
loop_
_geom_bond_atom_site_label_1
_geom_bond_atom_site_label_2
_geom_bond_distance
_geom_bond_site_symmetry_2
_ccdc_geom_bond_type
Cu0 N1 1.999 . S
Cu0 O6 1.974 . S
Cu0 N11 1.985 . S
Cu0 O20 1.959 1_455 S
N1 Cu0 1.999 . S
N1 C3 1.263 . S
N1 C5 1.389 . S
N2 C3 1.358 . S
N2 C4 1.400 . S
C3 N1 1.263 . S
C3 N2 1.358 . S
C3 H9 0.930 . S
C4 N2 1.400 . S
C4 C5 1.351 . S
C4 H21 0.930 . S
C5 N1 1.389 . S
C5 C4 1.351 . S
C5 H10 0.930 . S
O6 Cu0 1.974 . S
O6 C16 1.282 1_545 S
C7 O8 1.261 . S
C7 O20 1.251 . S
O8 C7 1.261 . S
H9 C3 0.930 . S
H10 C5 0.930 . S
N11 Cu0 1.985 . S
N11 C13 1.335 1_455 S
N11 C14 1.390 1_545 S
N12 C13 1.345 1_565 S
N12 C15 1.336 . S
C13 N11 1.335 1_655 S
C13 N12 1.345 1_545 S
C13 H18 0.930 . S
C14 N11 1.390 1_565 S
C14 C15 1.346 1_455 S
C14 H19 0.930 . S
C15 N12 1.336 . S
C15 C14 1.346 1_655 S
C15 H22 0.923 . S
C16 O6 1.282 1_565 S
C16 O17 1.216 1_565 S
O17 C16 1.216 1_545 S
H18 C13 0.930 . S
H19 C14 0.930 . S
O20 Cu0 1.959 1_655 S
O20 C7 1.251 . S
H21 C4 0.930 . S
H22 C15 0.923 . S
Cu23 N24 1.999 . S
Cu23 O29 1.974 1_455 S
Cu23 N34 1.985 . S
Cu23 O43 1.959 . S
N24 Cu23 1.999 . S
N24 C26 1.263 1_455 S
N24 C28 1.389 1_545 S
N25 C26 1.358 1_565 S
N25 C27 1.400 . S
C26 N24 1.263 1_655 S
C26 N25 1.358 1_545 S
C26 H32 0.930 . S
C27 N25 1.400 . S
C27 C28 1.351 1_655 S
C27 H44 0.930 . S
C28 N24 1.389 1_565 S
C28 C27 1.351 1_455 S
C28 H33 0.930 . S
O29 Cu23 1.974 1_655 S
O29 C39 1.282 . S
C30 O31 1.261 . S
C30 O43 1.251 . S
O31 C30 1.261 . S
H32 C26 0.930 . S
H33 C28 0.930 . S
N34 Cu23 1.985 . S
N34 C36 1.335 . S
N34 C37 1.390 . S
N35 C36 1.345 . S
N35 C38 1.336 . S
C36 N34 1.335 . S
C36 N35 1.345 . S
C36 H41 0.930 . S
C37 N34 1.390 . S
C37 C38 1.346 . S
C37 H42 0.930 . S
C38 N35 1.336 . S
C38 C37 1.346 . S
C38 H45 0.929 . S
C39 O29 1.282 . S
C39 O40 1.216 . S
O40 C39 1.216 . S
H41 C36 0.930 . S
H42 C37 0.930 . S
O43 Cu23 1.959 . S
O43 C30 1.251 . S
H44 C27 0.930 . S
H45 C38 0.929 . S
Cu46 N47 1.999 . S
Cu46 O52 1.974 . S
Cu46 N57 1.985 . S
Cu46 O66 1.959 . S
N47 Cu46 1.999 . S
N47 C49 1.263 . S
N47 C51 1.389 . S
N48 C49 1.358 . S
N48 C50 1.400 . S
C49 N47 1.263 . S
C49 N48 1.358 . S
C49 H55 0.930 . S
C50 N48 1.400 . S
C50 C51 1.351 . S
C50 H67 0.930 1_554 S
C51 N47 1.389 . S
C51 C50 1.351 . S
C51 H56 0.930 . S
O52 Cu46 1.974 . S
O52 C62 1.282 . S
C53 O54 1.261 . S
C53 O66 1.251 . S
O54 C53 1.261 . S
H55 C49 0.930 . S
H56 C51 0.930 . S
N57 Cu46 1.985 . S
N57 C59 1.335 . S
N57 C60 1.390 . S
N58 C59 1.345 . S
N58 C61 1.336 . S
C59 N57 1.335 . S
C59 N58 1.345 . S
C59 H64 0.930 . S
C60 N57 1.390 . S
C60 C61 1.346 . S
C60 H65 0.930 . S
C61 N58 1.336 . S
C61 C60 1.346 . S
C61 H68 0.929 . S
C62 O52 1.282 . S
C62 O63 1.216 . S
O63 C62 1.216 . S
H64 C59 0.930 . S
H65 C60 0.930 . S
O66 Cu46 1.959 . S
O66 C53 1.251 . S
H67 C50 0.930 1_556 S
H68 C61 0.929 . S
Cu69 N70 1.999 . S
Cu69 O75 1.974 . S
Cu69 N80 1.985 . S
Cu69 O89 1.959 . S
N70 Cu69 1.999 . S
N70 C72 1.263 . S
N70 C74 1.389 . S
N71 C72 1.358 . S
N71 C73 1.400 1_554 S
C72 N70 1.263 . S
C72 N71 1.358 . S
C72 H78 0.930 . S
C73 N71 1.400 1_556 S
C73 C74 1.351 1_556 S
C73 H90 0.930 . S
C74 N70 1.389 . S
C74 C73 1.351 1_554 S
C74 H79 0.930 . S
O75 Cu69 1.974 . S
O75 C85 1.282 . S
C76 O77 1.261 . S
C76 O89 1.251 . S
O77 C76 1.261 . S
H78 C72 0.930 . S
H79 C74 0.930 . S
N80 Cu69 1.985 . S
N80 C82 1.335 1_455 S
N80 C83 1.390 . S
N81 C82 1.345 . S
N81 C84 1.336 1_655 S
C82 N80 1.335 1_655 S
C82 N81 1.345 . S
C82 H87 0.930 . S
C83 N80 1.390 . S
C83 C84 1.346 . S
C83 H88 0.930 . S
C84 N81 1.336 1_455 S
C84 C83 1.346 . S
C84 H91 0.929 . S
C85 O75 1.282 . S
C85 O86 1.216 . S
O86 C85 1.216 . S
H87 C82 0.930 . S
H88 C83 0.930 . S
O89 Cu69 1.959 . S
O89 C76 1.251 . S
H90 C73 0.930 . S
H91 C84 0.929 . S
Cu92 N93 1.999 1_554 S
Cu92 O98 1.974 . S
Cu92 N103 1.985 1_545 S
Cu92 O112 1.959 1_544 S
N93 Cu92 1.999 1_556 S
N93 C95 1.263 . S
N93 C97 1.389 . S
N94 C95 1.358 . S
N94 C96 1.400 . S
C95 N93 1.263 . S
C95 N94 1.358 . S
C95 H101 0.930 . S
C96 N94 1.400 . S
C96 C97 1.351 . S
C96 H113 0.930 . S
C97 N93 1.389 . S
C97 C96 1.351 . S
C97 H102 0.930 . S
O98 Cu92 1.974 . S
O98 C108 1.282 . S
C99 O100 1.261 . S
C99 O112 1.251 . S
O100 C99 1.261 . S
H101 C95 0.930 . S
H102 C97 0.930 . S
N103 Cu92 1.985 1_565 S
N103 C105 1.335 . S
N103 C106 1.390 . S
N104 C105 1.345 . S
N104 C107 1.336 . S
C105 N103 1.335 . S
C105 N104 1.345 . S
C105 H110 0.930 . S
C106 N103 1.390 . S
C106 C107 1.346 . S
C106 H111 0.930 . S
C107 N104 1.336 . S
C107 C106 1.346 . S
C107 H114 0.929 . S
C108 O98 1.282 . S
C108 O109 1.216 . S
O109 C108 1.216 . S
H110 C105 0.930 . S
H111 C106 0.930 . S
O112 Cu92 1.959 1_566 S
O112 C99 1.251 . S
H113 C96 0.930 . S
H114 C107 0.929 . S
Cu115 N116 1.999 1_454 S
Cu115 O121 1.974 1_455 S
Cu115 N126 1.985 . S
Cu115 O135 1.959 1_554 S
N116 Cu115 1.999 1_656 S
N116 C118 1.263 . S
N116 C120 1.389 . S
N117 C118 1.358 . S
N117 C119 1.400 . S
C118 N116 1.263 . S
C118 N117 1.358 . S
C118 H124 0.930 . S
C119 N117 1.400 . S
C119 C120 1.351 . S
C119 H136 0.930 . S
C120 N116 1.389 . S
C120 C119 1.351 . S
C120 H125 0.930 1_655 S
O121 Cu115 1.974 1_655 S
O121 C131 1.282 . S
C122 O123 1.261 . S
C122 O135 1.251 . S
O123 C122 1.261 . S
H124 C118 0.930 . S
H125 C120 0.930 1_455 S
N126 Cu115 1.985 . S
N126 C128 1.335 . S
N126 C129 1.390 . S
N127 C128 1.345 . S
N127 C130 1.336 . S
C128 N126 1.335 . S
C128 N127 1.345 . S
C128 H133 0.930 . S
C129 N126 1.390 . S
C129 C130 1.346 . S
C129 H134 0.930 1_455 S
C130 N127 1.336 . S
C130 C129 1.346 . S
C130 H137 0.929 . S
C131 O121 1.282 . S
C131 O132 1.216 . S
O132 C131 1.216 . S
H133 C128 0.930 . S
H134 C129 0.930 1_655 S
O135 Cu115 1.959 1_556 S
O135 C122 1.251 . S
H136 C119 0.930 . S
H137 C130 0.929 . S
Cu138 N139 1.999 . S
Cu138 O144 1.974 . S
Cu138 N149 1.985 . S
Cu138 O158 1.959 . S
N139 Cu138 1.999 . S
N139 C141 1.263 . S
N139 C143 1.389 . S
N140 C141 1.358 . S
N140 C142 1.400 . S
C141 N139 1.263 . S
C141 N140 1.358 . S
C141 H147 0.930 . S
C142 N140 1.400 . S
C142 C143 1.351 . S
C142 H159 0.930 . S
C143 N139 1.389 . S
C143 C142 1.351 . S
C143 H148 0.930 . S
O144 Cu138 1.974 . S
O144 C154 1.282 . S
C145 O146 1.261 . S
C145 O158 1.251 . S
O146 C145 1.261 . S
H147 C141 0.930 . S
H148 C143 0.930 . S
N149 Cu138 1.985 . S
N149 C151 1.335 . S
N149 C152 1.390 . S
N150 C151 1.345 . S
N150 C153 1.336 . S
C151 N149 1.335 . S
C151 N150 1.345 . S
C151 H156 0.930 . S
C152 N149 1.390 . S
C152 C153 1.346 . S
C152 H157 0.930 . S
C153 N150 1.336 . S
C153 C152 1.346 . S
C153 H160 0.929 . S
C154 O144 1.282 . S
C154 O155 1.216 . S
O155 C154 1.216 . S
H156 C151 0.930 . S
H157 C152 0.930 . S
O158 Cu138 1.959 . S
O158 C145 1.251 . S
H159 C142 0.930 . S
H160 C153 0.929 . S
Cu161 N162 1.999 . S
Cu161 O167 1.974 . S
Cu161 N172 1.985 . S
Cu161 O181 1.959 . S
N162 Cu161 1.999 . S
N162 C164 1.263 . S
N162 C166 1.389 . S
N163 C164 1.358 . S
N163 C165 1.400 . S
C164 N162 1.263 . S
C164 N163 1.358 . S
C164 H170 0.930 . S
C165 N163 1.400 . S
C165 C166 1.351 . S
C165 H182 0.930 . S
C166 N162 1.389 . S
C166 C165 1.351 . S
C166 H171 0.930 . S
O167 Cu161 1.974 . S
O167 C177 1.282 . S
C168 O169 1.261 . S
C168 O181 1.251 . S
O169 C168 1.261 . S
H170 C164 0.930 . S
H171 C166 0.930 . S
N172 Cu161 1.985 . S
N172 C174 1.335 . S
N172 C175 1.390 . S
N173 C174 1.345 . S
N173 C176 1.336 . S
C174 N172 1.335 . S
C174 N173 1.345 . S
C174 H179 0.930 . S
C175 N172 1.390 . S
C175 C176 1.346 . S
C175 H180 0.930 . S
C176 N173 1.336 . S
C176 C175 1.346 . S
C176 H183 0.929 . S
C177 O167 1.282 . S
C177 O178 1.216 . S
O178 C177 1.216 . S
H179 C174 0.930 . S
H180 C175 0.930 . S
O181 Cu161 1.959 . S
O181 C168 1.251 . S
H182 C165 0.930 . S
H183 C176 0.929 . S
Cu184 N185 1.999 . S
Cu184 O190 1.974 . S
Cu184 N195 1.985 . S
Cu184 O204 1.959 . S
N185 Cu184 1.999 . S
N185 C187 1.263 . S
N185 C189 1.389 . S
N186 C187 1.358 . S
N186 C188 1.400 . S
C187 N185 1.263 . S
C187 N186 1.358 . S
C187 H193 0.930 . S
C188 N186 1.400 . S
C188 C189 1.351 . S
C188 H205 0.930 . S
C189 N185 1.389 . S
C189 C188 1.351 . S
C189 H194 0.930 . S
O190 Cu184 1.974 . S
O190 C200 1.282 . S
C191 O192 1.261 . S
C191 O204 1.251 . S
O192 C191 1.261 . S
H193 C187 0.930 . S
H194 C189 0.930 . S
N195 Cu184 1.985 . S
N195 C197 1.335 . S
N195 C198 1.390 . S
N196 C197 1.345 . S
N196 C199 1.336 . S
C197 N195 1.335 . S
C197 N196 1.345 . S
C197 H202 0.930 . S
C198 N195 1.390 . S
C198 C199 1.346 . S
C198 H203 0.930 . S
C199 N196 1.336 . S
C199 C198 1.346 . S
C199 H206 0.929 . S
C200 O190 1.282 . S
C200 O201 1.216 . S
O201 C200 1.216 . S
H202 C197 0.930 . S
H203 C198 0.930 . S
O204 Cu184 1.959 . S
O204 C191 1.251 . S
H205 C188 0.930 . S
H206 C199 0.929 . S
Cu207 N208 1.999 . S
Cu207 O213 1.974 . S
Cu207 N218 1.985 . S
Cu207 O227 1.959 . S
N208 Cu207 1.999 . S
N208 C210 1.263 . S
N208 C212 1.389 . S
N209 C210 1.358 . S
N209 C211 1.400 . S
C210 N208 1.263 . S
C210 N209 1.358 . S
C210 H216 0.930 . S
C211 N209 1.400 . S
C211 C212 1.351 . S
C211 H228 0.930 . S
C212 N208 1.389 . S
C212 C211 1.351 . S
C212 H217 0.930 . S
O213 Cu207 1.974 . S
O213 C223 1.282 . S
C214 O215 1.261 . S
C214 O227 1.251 . S
O215 C214 1.261 . S
H216 C210 0.930 . S
H217 C212 0.930 . S
N218 Cu207 1.985 . S
N218 C220 1.335 . S
N218 C221 1.390 . S
N219 C220 1.345 . S
N219 C222 1.336 . S
C220 N218 1.335 . S
C220 N219 1.345 . S
C220 H225 0.930 . S
C221 N218 1.390 . S
C221 C222 1.346 . S
C221 H226 0.930 . S
C222 N219 1.336 . S
C222 C221 1.346 . S
C222 H229 0.929 . S
C223 O213 1.282 . S
C223 O224 1.216 . S
O224 C223 1.216 . S
H225 C220 0.930 . S
H226 C221 0.930 . S
O227 Cu207 1.959 . S
O227 C214 1.251 . S
H228 C211 0.930 . S
H229 C222 0.929 . S
Cu230 N231 1.999 . S
Cu230 O236 1.974 . S
Cu230 N241 1.985 . S
Cu230 O250 1.959 . S
N231 Cu230 1.999 . S
N231 C233 1.263 . S
N231 C235 1.389 . S
N232 C233 1.358 . S
N232 C234 1.400 . S
C233 N231 1.263 . S
C233 N232 1.358 . S
C233 H239 0.930 . S
C234 N232 1.400 . S
C234 C235 1.351 . S
C234 H251 0.930 . S
C235 N231 1.389 . S
C235 C234 1.351 . S
C235 H240 0.930 . S
O236 Cu230 1.974 . S
O236 C246 1.282 . S
C237 O238 1.261 . S
C237 O250 1.251 . S
O238 C237 1.261 . S
H239 C233 0.930 . S
H240 C235 0.930 . S
N241 Cu230 1.985 . S
N241 C243 1.335 . S
N241 C244 1.390 . S
N242 C243 1.345 . S
N242 C245 1.336 . S
C243 N241 1.335 . S
C243 N242 1.345 . S
C243 H248 0.930 . S
C244 N241 1.390 . S
C244 C245 1.346 . S
C244 H249 0.930 . S
C245 N242 1.336 . S
C245 C244 1.346 . S
C245 H252 0.929 . S
C246 O236 1.282 . S
C246 O247 1.216 . S
O247 C246 1.216 . S
H248 C243 0.930 . S
H249 C244 0.930 . S
O250 Cu230 1.959 . S
O250 C237 1.251 . S
H251 C234 0.930 . S
H252 C245 0.929 . S
Cu253 N254 1.999 . S
Cu253 O259 1.974 . S
Cu253 N264 1.985 . S
Cu253 O273 1.959 . S
N254 Cu253 1.999 . S
N254 C256 1.263 . S
N254 C258 1.389 . S
N255 C256 1.358 . S
N255 C257 1.400 . S
C256 N254 1.263 . S
C256 N255 1.358 . S
C256 H262 0.930 . S
C257 N255 1.400 . S
C257 C258 1.351 . S
C257 H274 0.930 . S
C258 N254 1.389 . S
C258 C257 1.351 . S
C258 H263 0.930 . S
O259 Cu253 1.974 . S
O259 C269 1.282 . S
C260 O261 1.261 . S
C260 O273 1.251 . S
O261 C260 1.261 . S
H262 C256 0.930 . S
H263 C258 0.930 . S
N264 Cu253 1.985 . S
N264 C266 1.335 . S
N264 C267 1.390 . S
N265 C266 1.345 . S
N265 C268 1.336 . S
C266 N264 1.335 . S
C266 N265 1.345 . S
C266 H271 0.930 . S
C267 N264 1.390 . S
C267 C268 1.346 . S
C267 H272 0.930 . S
C268 N265 1.336 . S
C268 C267 1.346 . S
C268 H275 0.929 . S
C269 O259 1.282 . S
C269 O270 1.216 . S
O270 C269 1.216 . S
H271 C266 0.930 . S
H272 C267 0.930 . S
O273 Cu253 1.959 . S
O273 C260 1.251 . S
H274 C257 0.930 . S
H275 C268 0.929 . S
Eu276 N307 2.657 . S
Eu276 N314 2.609 . S
Eu276 O320 2.558 . S
Eu276 O321 2.612 . S
Eu276 O323 2.339 . S
Eu276 O324 2.563 . S
Eu276 O325 2.419 . S
Eu276 O327 2.380 . S
Eu276 O328 2.432 . S
Eu276 C340 2.848 . S
C277 C280 1.429 . S
C277 C281 1.411 . S
C277 N284 1.377 . S
C278 C280 1.420 . S
C278 C282 1.423 . S
C278 C290 1.392 . S
C279 C281 1.420 . S
C279 C282 1.351 . S
C279 H302 0.931 . S
C280 C277 1.429 . S
C280 C278 1.420 . S
C280 N288 1.362 . S
C281 C277 1.411 . S
C281 C279 1.420 . S
C281 C286 1.395 . S
C282 C278 1.423 . S
C282 C279 1.351 . S
C282 H294 0.930 . S
C283 C285 1.400 . S
C283 C286 1.386 . S
C283 H295 0.930 . S
N284 C277 1.377 . S
N284 C285 1.321 . S
N284 Eu287 2.609 . S
C285 C283 1.400 . S
C285 N284 1.321 . S
C285 H292 0.930 . S
C286 C281 1.395 . S
C286 C283 1.386 . S
C286 H305 0.930 . S
Eu287 N284 2.609 . S
Eu287 N288 2.657 . S
Eu287 O321 2.380 . S
Eu287 O322 2.432 . S
Eu287 O326 2.558 . S
Eu287 O327 2.612 . S
Eu287 O329 2.339 . S
Eu287 O330 2.563 . S
Eu287 O331 2.419 . S
Eu287 C351 2.848 . S
N288 C280 1.362 . S
N288 Eu287 2.657 . S
N288 C289 1.334 . S
C289 N288 1.334 . S
C289 C291 1.413 . S
C289 H296 0.929 . S
C290 C278 1.392 . S
C290 C291 1.367 . S
C290 H298 0.930 . S
C291 C289 1.413 . S
C291 C290 1.367 . S
C291 H293 0.930 . S
H292 C285 0.930 . S
H293 C291 0.930 . S
H294 C282 0.930 . S
H295 C283 0.930 . S
H296 C289 0.929 . S
H297 C311 0.930 . S
H298 C290 0.930 . S
H299 C317 0.930 . S
H300 C308 0.929 . S
H301 C315 0.930 . S
H302 C279 0.931 . S
H303 C309 0.930 . S
H304 C342 0.930 . S
H305 C286 0.930 . S
H306 C341 0.931 . S
N307 Eu276 2.657 . S
N307 C308 1.334 . S
N307 C312 1.362 . S
C308 H300 0.929 . S
C308 N307 1.334 . S
C308 C311 1.413 . S
C309 H303 0.930 . S
C309 C310 1.392 . S
C309 C311 1.367 . S
C310 C309 1.392 . S
C310 C312 1.420 . S
C310 C342 1.423 . S
C311 H297 0.930 . S
C311 C308 1.413 . S
C311 C309 1.367 . S
C312 N307 1.362 . S
C312 C310 1.420 . S
C312 C316 1.429 . S
H313 C318 0.930 . S
N314 Eu276 2.609 . S
N314 C316 1.377 . S
N314 C317 1.321 . S
C315 H301 0.930 . S
C315 C317 1.400 . S
C315 C318 1.386 . S
C316 C312 1.429 . S
C316 N314 1.377 . S
C316 C319 1.411 . S
C317 H299 0.930 . S
C317 N314 1.321 . S
C317 C315 1.400 . S
C318 H313 0.930 . S
C318 C315 1.386 . S
C318 C319 1.395 . S
C319 C316 1.411 . S
C319 C318 1.395 . S
C319 C341 1.420 . S
O320 Eu276 2.558 . S
O320 C340 1.257 . S
O321 Eu276 2.612 . S
O321 Eu287 2.380 . S
O321 C332 1.276 . S
O322 Eu287 2.432 . S
O322 C339 1.264 . S
O323 Eu276 2.339 . S
O323 C339 1.254 . S
O324 Eu276 2.563 . S
O324 C332 1.235 . S
O325 Eu276 2.419 . S
O325 C340 1.249 . S
O326 Eu287 2.558 . S
O326 C351 1.257 . S
O327 Eu276 2.380 . S
O327 Eu287 2.612 . S
O327 C343 1.276 . S
O328 Eu276 2.432 . S
O328 C350 1.264 . S
O329 Eu287 2.339 . S
O329 C350 1.254 . S
O330 Eu287 2.563 . S
O330 C343 1.235 . S
O331 Eu287 2.419 . S
O331 C351 1.249 . S
C332 O321 1.276 . S
C332 O324 1.235 . S
C333 C335 1.393 . S
C333 C337 1.395 . S
C333 C340 1.492 . S
C334 C335 1.392 . S
C334 C336 1.386 . S
C335 C333 1.393 . S
C335 C334 1.392 . S
C335 H352 0.930 . S
C336 C334 1.386 . S
C336 C338 1.395 . S
C336 H353 0.930 . S
C337 C333 1.395 . S
C337 C338 1.379 . S
C337 H354 0.930 . S
C338 C336 1.395 . S
C338 C337 1.379 . S
C338 H355 0.930 . S
C339 O322 1.264 . S
C339 O323 1.254 . S
C340 Eu276 2.848 . S
C340 O320 1.257 . S
C340 O325 1.249 . S
C340 C333 1.492 . S
C341 H306 0.931 . S
C341 C319 1.420 . S
C341 C342 1.351 . S
C342 H304 0.930 . S
C342 C310 1.423 . S
C342 C341 1.351 . S
C343 O327 1.276 . S
C343 O330 1.235 . S
C344 C345 1.393 . S
C344 C348 1.395 . S
C344 C351 1.492 . S
C345 C344 1.393 . S
C345 C346 1.392 . S
C345 H356 0.930 . S
C346 C345 1.392 . S
C346 C347 1.386 . S
C347 C346 1.386 . S
C347 C349 1.395 . S
C347 H357 0.930 . S
C348 C344 1.395 . S
C348 C349 1.379 . S
C348 H358 0.930 . S
C349 C347 1.395 . S
C349 C348 1.379 . S
C349 H359 0.930 . S
C350 O328 1.264 . S
C350 O329 1.254 . S
C351 Eu287 2.848 . S
C351 O326 1.257 . S
C351 O331 1.249 . S
C351 C344 1.492 . S
H352 C335 0.930 . S
H353 C336 0.930 . S
H354 C337 0.930 . S
H355 C338 0.930 . S
H356 C345 0.930 . S
H357 C347 0.930 . S
H358 C348 0.930 . S
H359 C349 0.930 . S
Eu360 N391 2.657 . S
Eu360 N398 2.609 . S
Eu360 O404 2.558 . S
Eu360 O405 2.612 . S
Eu360 O407 2.339 . S
Eu360 O408 2.563 . S
Eu360 O409 2.419 . S
Eu360 O411 2.380 . S
Eu360 O412 2.432 . S
Eu360 C424 2.848 . S
C361 C364 1.429 . S
C361 C365 1.411 . S
C361 N368 1.377 . S
C362 C364 1.420 . S
C362 C366 1.423 . S
C362 C374 1.392 . S
C363 C365 1.420 . S
C363 C366 1.351 . S
C363 H386 0.931 . S
C364 C361 1.429 . S
C364 C362 1.420 . S
C364 N372 1.362 . S
C365 C361 1.411 . S
C365 C363 1.420 . S
C365 C370 1.395 . S
C366 C362 1.423 . S
C366 C363 1.351 . S
C366 H378 0.930 . S
C367 C369 1.400 . S
C367 C370 1.386 . S
C367 H379 0.930 . S
N368 C361 1.377 . S
N368 C369 1.321 . S
N368 Eu371 2.609 . S
C369 C367 1.400 . S
C369 N368 1.321 . S
C369 H376 0.930 . S
C370 C365 1.395 . S
C370 C367 1.386 . S
C370 H389 0.930 . S
Eu371 N368 2.609 . S
Eu371 N372 2.657 . S
Eu371 O405 2.380 . S
Eu371 O406 2.432 . S
Eu371 O410 2.558 . S
Eu371 O411 2.612 . S
Eu371 O413 2.339 . S
Eu371 O414 2.563 . S
Eu371 O415 2.419 . S
Eu371 C435 2.848 . S
N372 C364 1.362 . S
N372 Eu371 2.657 . S
N372 C373 1.334 . S
C373 N372 1.334 . S
C373 C375 1.413 . S
C373 H380 0.929 . S
C374 C362 1.392 . S
C374 C375 1.367 . S
C374 H382 0.930 . S
C375 C373 1.413 . S
C375 C374 1.367 . S
C375 H377 0.930 . S
H376 C369 0.930 . S
H377 C375 0.930 . S
H378 C366 0.930 . S
H379 C367 0.930 . S
H380 C373 0.929 . S
H381 C395 0.930 . S
H382 C374 0.930 . S
H383 C401 0.930 . S
H384 C392 0.929 . S
H385 C399 0.930 . S
H386 C363 0.931 . S
H387 C393 0.930 . S
H388 C426 0.930 . S
H389 C370 0.930 . S
H390 C425 0.931 . S
N391 Eu360 2.657 . S
N391 C392 1.334 . S
N391 C396 1.362 . S
C392 H384 0.929 . S
C392 N391 1.334 . S
C392 C395 1.413 . S
C393 H387 0.930 . S
C393 C394 1.392 . S
C393 C395 1.367 . S
C394 C393 1.392 . S
C394 C396 1.420 . S
C394 C426 1.423 . S
C395 H381 0.930 . S
C395 C392 1.413 . S
C395 C393 1.367 . S
C396 N391 1.362 . S
C396 C394 1.420 . S
C396 C400 1.429 . S
H397 C402 0.930 . S
N398 Eu360 2.609 . S
N398 C400 1.377 . S
N398 C401 1.321 . S
C399 H385 0.930 . S
C399 C401 1.400 . S
C399 C402 1.386 . S
C400 C396 1.429 . S
C400 N398 1.377 . S
C400 C403 1.411 . S
C401 H383 0.930 . S
C401 N398 1.321 . S
C401 C399 1.400 . S
C402 H397 0.930 . S
C402 C399 1.386 . S
C402 C403 1.395 . S
C403 C400 1.411 . S
C403 C402 1.395 . S
C403 C425 1.420 . S
O404 Eu360 2.558 . S
O404 C424 1.257 . S
O405 Eu360 2.612 . S
O405 Eu371 2.380 . S
O405 C416 1.276 . S
O406 Eu371 2.432 . S
O406 C423 1.264 . S
O407 Eu360 2.339 . S
O407 C423 1.254 . S
O408 Eu360 2.563 . S
O408 C416 1.235 . S
O409 Eu360 2.419 . S
O409 C424 1.249 . S
O410 Eu371 2.558 . S
O410 C435 1.257 . S
O411 Eu360 2.380 . S
O411 Eu371 2.612 . S
O411 C427 1.276 . S
O412 Eu360 2.432 . S
O412 C434 1.264 . S
O413 Eu371 2.339 . S
O413 C434 1.254 . S
O414 Eu371 2.563 . S
O414 C427 1.235 . S
O415 Eu371 2.419 . S
O415 C435 1.249 . S
C416 O405 1.276 . S
C416 O408 1.235 . S
C417 C419 1.393 . S
C417 C421 1.395 . S
C417 C424 1.492 . S
C418 C419 1.392 . S
C418 C420 1.386 . S
C419 C417 1.393 . S
C419 C418 1.392 . S
C419 H436 0.930 . S
C420 C418 1.386 . S
C420 C422 1.395 . S
C420 H437 0.930 . S
C421 C417 1.395 . S
C421 C422 1.379 . S
C421 H438 0.930 . S
C422 C420 1.395 . S
C422 C421 1.379 . S
C422 H439 0.930 . S
C423 O406 1.264 . S
C423 O407 1.254 . S
C424 Eu360 2.848 . S
C424 O404 1.257 . S
C424 O409 1.249 . S
C424 C417 1.492 . S
C425 H390 0.931 . S
C425 C403 1.420 . S
C425 C426 1.351 . S
C426 H388 0.930 . S
C426 C394 1.423 . S
C426 C425 1.351 . S
C427 O411 1.276 . S
C427 O414 1.235 . S
C428 C429 1.393 . S
C428 C432 1.395 . S
C428 C435 1.492 . S
C429 C428 1.393 . S
C429 C430 1.392 . S
C429 H440 0.930 . S
C430 C429 1.392 . S
C430 C431 1.386 . S
C431 C430 1.386 . S
C431 C433 1.395 . S
C431 H441 0.930 . S
C432 C428 1.395 . S
C432 C433 1.379 . S
C432 H442 0.930 . S
C433 C431 1.395 . S
C433 C432 1.379 . S
C433 H443 0.930 . S
C434 O412 1.264 . S
C434 O413 1.254 . S
C435 Eu371 2.848 . S
C435 O410 1.257 . S
C435 O415 1.249 . S
C435 C428 1.492 . S
H436 C419 0.930 . S
H437 C420 0.930 . S
H438 C421 0.930 . S
H439 C422 0.930 . S
H440 C429 0.930 . S
H441 C431 0.930 . S
H442 C432 0.930 . S
H443 C433 0.930 . S
Eu444 N475 2.657 . S
Eu444 N482 2.609 . S
Eu444 O488 2.558 . S
Eu444 O489 2.612 . S
Eu444 O491 2.339 . S
Eu444 O492 2.563 . S
Eu444 O493 2.419 . S
Eu444 O495 2.380 . S
Eu444 O496 2.432 . S
Eu444 C508 2.848 . S
C445 C448 1.429 . S
C445 C449 1.411 . S
C445 N452 1.377 . S
C446 C448 1.420 . S
C446 C450 1.423 . S
C446 C458 1.392 . S
C447 C449 1.420 . S
C447 C450 1.351 . S
C447 H470 0.931 . S
C448 C445 1.429 . S
C448 C446 1.420 . S
C448 N456 1.362 . S
C449 C445 1.411 . S
C449 C447 1.420 . S
C449 C454 1.395 . S
C450 C446 1.423 . S
C450 C447 1.351 . S
C450 H462 0.930 . S
C451 C453 1.400 . S
C451 C454 1.386 . S
C451 H463 0.930 . S
N452 C445 1.377 . S
N452 C453 1.321 . S
N452 Eu455 2.609 . S
C453 C451 1.400 . S
C453 N452 1.321 . S
C453 H460 0.930 . S
C454 C449 1.395 . S
C454 C451 1.386 . S
C454 H473 0.930 . S
Eu455 N452 2.609 . S
Eu455 N456 2.657 . S
Eu455 O489 2.380 . S
Eu455 O490 2.432 . S
Eu455 O494 2.558 . S
Eu455 O495 2.612 . S
Eu455 O497 2.339 . S
Eu455 O498 2.563 . S
Eu455 O499 2.419 . S
Eu455 C519 2.848 . S
N456 C448 1.362 . S
N456 Eu455 2.657 . S
N456 C457 1.334 . S
C457 N456 1.334 . S
C457 C459 1.413 . S
C457 H464 0.929 . S
C458 C446 1.392 . S
C458 C459 1.367 . S
C458 H466 0.930 . S
C459 C457 1.413 . S
C459 C458 1.367 . S
C459 H461 0.930 . S
H460 C453 0.930 . S
H461 C459 0.930 . S
H462 C450 0.930 . S
H463 C451 0.930 . S
H464 C457 0.929 . S
H465 C479 0.930 . S
H466 C458 0.930 . S
H467 C485 0.930 . S
H468 C476 0.929 . S
H469 C483 0.930 . S
H470 C447 0.931 . S
H471 C477 0.930 . S
H472 C510 0.930 . S
H473 C454 0.930 . S
H474 C509 0.931 . S
N475 Eu444 2.657 . S
N475 C476 1.334 . S
N475 C480 1.362 . S
C476 H468 0.929 . S
C476 N475 1.334 . S
C476 C479 1.413 . S
C477 H471 0.930 . S
C477 C478 1.392 . S
C477 C479 1.367 . S
C478 C477 1.392 . S
C478 C480 1.420 . S
C478 C510 1.423 . S
C479 H465 0.930 . S
C479 C476 1.413 . S
C479 C477 1.367 . S
C480 N475 1.362 . S
C480 C478 1.420 . S
C480 C484 1.429 . S
H481 C486 0.930 . S
N482 Eu444 2.609 . S
N482 C484 1.377 . S
N482 C485 1.321 . S
C483 H469 0.930 . S
C483 C485 1.400 . S
C483 C486 1.386 . S
C484 C480 1.429 . S
C484 N482 1.377 . S
C484 C487 1.411 . S
C485 H467 0.930 . S
C485 N482 1.321 . S
C485 C483 1.400 . S
C486 H481 0.930 . S
C486 C483 1.386 . S
C486 C487 1.395 . S
C487 C484 1.411 . S
C487 C486 1.395 . S
C487 C509 1.420 . S
O488 Eu444 2.558 . S
O488 C508 1.257 . S
O489 Eu444 2.612 . S
O489 Eu455 2.380 . S
O489 C500 1.276 . S
O490 Eu455 2.432 . S
O490 C507 1.264 . S
O491 Eu444 2.339 . S
O491 C507 1.254 . S
O492 Eu444 2.563 . S
O492 C500 1.235 . S
O493 Eu444 2.419 . S
O493 C508 1.249 . S
O494 Eu455 2.558 . S
O494 C519 1.257 . S
O495 Eu444 2.380 . S
O495 Eu455 2.612 . S
O495 C511 1.276 . S
O496 Eu444 2.432 . S
O496 C518 1.264 . S
O497 Eu455 2.339 . S
O497 C518 1.254 . S
O498 Eu455 2.563 . S
O498 C511 1.235 . S
O499 Eu455 2.419 . S
O499 C519 1.249 . S
C500 O489 1.276 . S
C500 O492 1.235 . S
C501 C503 1.393 . S
C501 C505 1.395 . S
C501 C508 1.492 . S
C502 C503 1.392 . S
C502 C504 1.386 . S
C503 C501 1.393 . S
C503 C502 1.392 . S
C503 H520 0.930 . S
C504 C502 1.386 . S
C504 C506 1.395 . S
C504 H521 0.930 . S
C505 C501 1.395 . S
C505 C506 1.379 . S
C505 H522 0.930 . S
C506 C504 1.395 . S
C506 C505 1.379 . S
C506 H523 0.930 . S
C507 O490 1.264 . S
C507 O491 1.254 . S
C508 Eu444 2.848 . S
C508 O488 1.257 . S
C508 O493 1.249 . S
C508 C501 1.492 . S
C509 H474 0.931 . S
C509 C487 1.420 . S
C509 C510 1.351 . S
C510 H472 0.930 . S
C510 C478 1.423 . S
C510 C509 1.351 . S
C511 O495 1.276 . S
C511 O498 1.235 . S
C512 C513 1.393 . S
C512 C516 1.395 . S
C512 C519 1.492 . S
C513 C512 1.393 . S
C513 C514 1.392 . S
C513 H524 0.930 . S
C514 C513 1.392 . S
C514 C515 1.386 . S
C515 C514 1.386 . S
C515 C517 1.395 . S
C515 H525 0.930 . S
C516 C512 1.395 . S
C516 C517 1.379 . S
C516 H526 0.930 . S
C517 C515 1.395 . S
C517 C516 1.379 . S
C517 H527 0.930 . S
C518 O496 1.264 . S
C518 O497 1.254 . S
C519 Eu455 2.848 . S
C519 O494 1.257 . S
C519 O499 1.249 . S
C519 C512 1.492 . S
H520 C503 0.930 . S
H521 C504 0.930 . S
H522 C505 0.930 . S
H523 C506 0.930 . S
H524 C513 0.930 . S
H525 C515 0.930 . S
H526 C516 0.930 . S
H527 C517 0.930 . S
Eu528 N559 2.657 . S
Eu528 N566 2.609 . S
Eu528 O572 2.558 . S
Eu528 O573 2.612 . S
Eu528 O575 2.339 . S
Eu528 O576 2.563 . S
Eu528 O577 2.419 . S
Eu528 O579 2.380 . S
Eu528 O580 2.432 . S
Eu528 C592 2.848 . S
C529 C532 1.429 . S
C529 C533 1.411 . S
C529 N536 1.377 . S
C530 C532 1.420 . S
C530 C534 1.423 . S
C530 C542 1.392 . S
C531 C533 1.420 . S
C531 C534 1.351 . S
C531 H554 0.931 . S
C532 C529 1.429 . S
C532 C530 1.420 . S
C532 N540 1.362 . S
C533 C529 1.411 . S
C533 C531 1.420 . S
C533 C538 1.395 . S
C534 C530 1.423 . S
C534 C531 1.351 . S
C534 H546 0.930 . S
C535 C537 1.400 . S
C535 C538 1.386 . S
C535 H547 0.930 . S
N536 C529 1.377 . S
N536 C537 1.321 . S
N536 Eu539 2.609 . S
C537 C535 1.400 . S
C537 N536 1.321 . S
C537 H544 0.930 . S
C538 C533 1.395 . S
C538 C535 1.386 . S
C538 H557 0.930 . S
Eu539 N536 2.609 . S
Eu539 N540 2.657 . S
Eu539 O573 2.380 . S
Eu539 O574 2.432 . S
Eu539 O578 2.558 . S
Eu539 O579 2.612 . S
Eu539 O581 2.339 . S
Eu539 O582 2.563 . S
Eu539 O583 2.419 . S
Eu539 C603 2.848 . S
N540 C532 1.362 . S
N540 Eu539 2.657 . S
N540 C541 1.334 . S
C541 N540 1.334 . S
C541 C543 1.413 . S
C541 H548 0.929 . S
C542 C530 1.392 . S
C542 C543 1.367 . S
C542 H550 0.930 . S
C543 C541 1.413 . S
C543 C542 1.367 . S
C543 H545 0.930 . S
H544 C537 0.930 . S
H545 C543 0.930 . S
H546 C534 0.930 . S
H547 C535 0.930 . S
H548 C541 0.929 . S
H549 C563 0.930 . S
H550 C542 0.930 . S
H551 C569 0.930 . S
H552 C560 0.929 . S
H553 C567 0.930 . S
H554 C531 0.931 . S
H555 C561 0.930 . S
H556 C594 0.930 . S
H557 C538 0.930 . S
H558 C593 0.931 . S
N559 Eu528 2.657 . S
N559 C560 1.334 . S
N559 C564 1.362 . S
C560 H552 0.929 . S
C560 N559 1.334 . S
C560 C563 1.413 . S
C561 H555 0.930 . S
C561 C562 1.392 . S
C561 C563 1.367 . S
C562 C561 1.392 . S
C562 C564 1.420 . S
C562 C594 1.423 . S
C563 H549 0.930 . S
C563 C560 1.413 . S
C563 C561 1.367 . S
C564 N559 1.362 . S
C564 C562 1.420 . S
C564 C568 1.429 . S
H565 C570 0.930 . S
N566 Eu528 2.609 . S
N566 C568 1.377 . S
N566 C569 1.321 . S
C567 H553 0.930 . S
C567 C569 1.400 . S
C567 C570 1.386 . S
C568 C564 1.429 . S
C568 N566 1.377 . S
C568 C571 1.411 . S
C569 H551 0.930 . S
C569 N566 1.321 . S
C569 C567 1.400 . S
C570 H565 0.930 . S
C570 C567 1.386 . S
C570 C571 1.395 . S
C571 C568 1.411 . S
C571 C570 1.395 . S
C571 C593 1.420 . S
O572 Eu528 2.558 . S
O572 C592 1.257 . S
O573 Eu528 2.612 . S
O573 Eu539 2.380 . S
O573 C584 1.276 . S
O574 Eu539 2.432 . S
O574 C591 1.264 . S
O575 Eu528 2.339 . S
O575 C591 1.254 . S
O576 Eu528 2.563 . S
O576 C584 1.235 . S
O577 Eu528 2.419 . S
O577 C592 1.249 . S
O578 Eu539 2.558 . S
O578 C603 1.257 . S
O579 Eu528 2.380 . S
O579 Eu539 2.612 . S
O579 C595 1.276 . S
O580 Eu528 2.432 . S
O580 C602 1.264 . S
O581 Eu539 2.339 . S
O581 C602 1.254 . S
O582 Eu539 2.563 . S
O582 C595 1.235 . S
O583 Eu539 2.419 . S
O583 C603 1.249 . S
C584 O573 1.276 . S
C584 O576 1.235 . S
C585 C587 1.393 . S
C585 C589 1.395 . S
C585 C592 1.492 . S
C586 C587 1.392 . S
C586 C588 1.386 . S
C587 C585 1.393 . S
C587 C586 1.392 . S
C587 H604 0.930 . S
C588 C586 1.386 . S
C588 C590 1.395 . S
C588 H605 0.930 . S
C589 C585 1.395 . S
C589 C590 1.379 . S
C589 H606 0.930 . S
C590 C588 1.395 . S
C590 C589 1.379 . S
C590 H607 0.930 . S
C591 O574 1.264 . S
C591 O575 1.254 . S
C592 Eu528 2.848 . S
C592 O572 1.257 . S
C592 O577 1.249 . S
C592 C585 1.492 . S
C593 H558 0.931 . S
C593 C571 1.420 . S
C593 C594 1.351 . S
C594 H556 0.930 . S
C594 C562 1.423 . S
C594 C593 1.351 . S
C595 O579 1.276 . S
C595 O582 1.235 . S
C596 C597 1.393 . S
C596 C600 1.395 . S
C596 C603 1.492 . S
C597 C596 1.393 . S
C597 C598 1.392 . S
C597 H608 0.930 . S
C598 C597 1.392 . S
C598 C599 1.386 . S
C599 C598 1.386 . S
C599 C601 1.395 . S
C599 H609 0.930 . S
C600 C596 1.395 . S
C600 C601 1.379 . S
C600 H610 0.930 . S
C601 C599 1.395 . S
C601 C600 1.379 . S
C601 H611 0.930 . S
C602 O580 1.264 . S
C602 O581 1.254 . S
C603 Eu539 2.848 . S
C603 O578 1.257 . S
C603 O583 1.249 . S
C603 C596 1.492 . S
H604 C587 0.930 . S
H605 C588 0.930 . S
H606 C589 0.930 . S
H607 C590 0.930 . S
H608 C597 0.930 . S
H609 C599 0.930 . S
H610 C600 0.930 . S
H611 C601 0.930 . S
Eu612 N643 2.657 . S
Eu612 N650 2.609 . S
Eu612 O656 2.558 . S
Eu612 O657 2.612 . S
Eu612 O659 2.339 . S
Eu612 O660 2.563 . S
Eu612 O661 2.419 . S
Eu612 O663 2.380 . S
Eu612 O664 2.432 . S
Eu612 C676 2.848 . S
C613 C616 1.429 . S
C613 C617 1.411 . S
C613 N620 1.377 . S
C614 C616 1.420 . S
C614 C618 1.423 . S
C614 C626 1.392 . S
C615 C617 1.420 . S
C615 C618 1.351 . S
C615 H638 0.931 . S
C616 C613 1.429 . S
C616 C614 1.420 . S
C616 N624 1.362 . S
C617 C613 1.411 . S
C617 C615 1.420 . S
C617 C622 1.395 . S
C618 C614 1.423 . S
C618 C615 1.351 . S
C618 H630 0.930 . S
C619 C621 1.400 . S
C619 C622 1.386 . S
C619 H631 0.930 . S
N620 C613 1.377 . S
N620 C621 1.321 . S
N620 Eu623 2.609 . S
C621 C619 1.400 . S
C621 N620 1.321 . S
C621 H628 0.930 . S
C622 C617 1.395 . S
C622 C619 1.386 . S
C622 H641 0.930 . S
Eu623 N620 2.609 . S
Eu623 N624 2.657 . S
Eu623 O657 2.380 . S
Eu623 O658 2.432 . S
Eu623 O662 2.558 . S
Eu623 O663 2.612 . S
Eu623 O665 2.339 . S
Eu623 O666 2.563 . S
Eu623 O667 2.419 . S
Eu623 C687 2.848 . S
N624 C616 1.362 . S
N624 Eu623 2.657 . S
N624 C625 1.334 . S
C625 N624 1.334 . S
C625 C627 1.413 . S
C625 H632 0.929 . S
C626 C614 1.392 . S
C626 C627 1.367 . S
C626 H634 0.930 . S
C627 C625 1.413 . S
C627 C626 1.367 . S
C627 H629 0.930 . S
H628 C621 0.930 . S
H629 C627 0.930 . S
H630 C618 0.930 . S
H631 C619 0.930 . S
H632 C625 0.929 . S
H633 C647 0.930 . S
H634 C626 0.930 . S
H635 C653 0.930 . S
H636 C644 0.929 . S
H637 C651 0.930 . S
H638 C615 0.931 . S
H639 C645 0.930 . S
H640 C678 0.930 . S
H641 C622 0.930 . S
H642 C677 0.931 . S
N643 Eu612 2.657 . S
N643 C644 1.334 . S
N643 C648 1.362 . S
C644 H636 0.929 . S
C644 N643 1.334 . S
C644 C647 1.413 . S
C645 H639 0.930 . S
C645 C646 1.392 . S
C645 C647 1.367 . S
C646 C645 1.392 . S
C646 C648 1.420 . S
C646 C678 1.423 . S
C647 H633 0.930 . S
C647 C644 1.413 . S
C647 C645 1.367 . S
C648 N643 1.362 . S
C648 C646 1.420 . S
C648 C652 1.429 . S
H649 C654 0.930 . S
N650 Eu612 2.609 . S
N650 C652 1.377 . S
N650 C653 1.321 . S
C651 H637 0.930 . S
C651 C653 1.400 . S
C651 C654 1.386 . S
C652 C648 1.429 . S
C652 N650 1.377 . S
C652 C655 1.411 . S
C653 H635 0.930 . S
C653 N650 1.321 . S
C653 C651 1.400 . S
C654 H649 0.930 . S
C654 C651 1.386 . S
C654 C655 1.395 . S
C655 C652 1.411 . S
C655 C654 1.395 . S
C655 C677 1.420 . S
O656 Eu612 2.558 . S
O656 C676 1.257 . S
O657 Eu612 2.612 . S
O657 Eu623 2.380 . S
O657 C668 1.276 . S
O658 Eu623 2.432 . S
O658 C675 1.264 . S
O659 Eu612 2.339 . S
O659 C675 1.254 . S
O660 Eu612 2.563 . S
O660 C668 1.235 . S
O661 Eu612 2.419 . S
O661 C676 1.249 . S
O662 Eu623 2.558 . S
O662 C687 1.257 . S
O663 Eu612 2.380 . S
O663 Eu623 2.612 . S
O663 C679 1.276 . S
O664 Eu612 2.432 . S
O664 C686 1.264 . S
O665 Eu623 2.339 . S
O665 C686 1.254 . S
O666 Eu623 2.563 . S
O666 C679 1.235 . S
O667 Eu623 2.419 . S
O667 C687 1.249 . S
C668 O657 1.276 . S
C668 O660 1.235 . S
C669 C671 1.393 . S
C669 C673 1.395 . S
C669 C676 1.492 . S
C670 C671 1.392 . S
C670 C672 1.386 . S
C671 C669 1.393 . S
C671 C670 1.392 . S
C671 H688 0.930 . S
C672 C670 1.386 . S
C672 C674 1.395 . S
C672 H689 0.930 . S
C673 C669 1.395 . S
C673 C674 1.379 . S
C673 H690 0.930 . S
C674 C672 1.395 . S
C674 C673 1.379 . S
C674 H691 0.930 . S
C675 O658 1.264 . S
C675 O659 1.254 . S
C676 Eu612 2.848 . S
C676 O656 1.257 . S
C676 O661 1.249 . S
C676 C669 1.492 . S
C677 H642 0.931 . S
C677 C655 1.420 . S
C677 C678 1.351 . S
C678 H640 0.930 . S
C678 C646 1.423 . S
C678 C677 1.351 . S
C679 O663 1.276 . S
C679 O666 1.235 . S
C680 C681 1.393 . S
C680 C684 1.395 . S
C680 C687 1.492 . S
C681 C680 1.393 . S
C681 C682 1.392 . S
C681 H692 0.930 . S
C682 C681 1.392 . S
C682 C683 1.386 . S
C683 C682 1.386 . S
C683 C685 1.395 . S
C683 H693 0.930 . S
C684 C680 1.395 . S
C684 C685 1.379 . S
C684 H694 0.930 . S
C685 C683 1.395 . S
C685 C684 1.379 . S
C685 H695 0.930 . S
C686 O664 1.264 . S
C686 O665 1.254 . S
C687 Eu623 2.848 . S
C687 O662 1.257 . S
C687 O667 1.249 . S
C687 C680 1.492 . S
H688 C671 0.930 . S
H689 C672 0.930 . S
H690 C673 0.930 . S
H691 C674 0.930 . S
H692 C681 0.930 . S
H693 C683 0.930 . S
H694 C684 0.930 . S
H695 C685 0.930 . S
Eu696 N727 2.657 . S
Eu696 N734 2.609 . S
Eu696 O740 2.558 . S
Eu696 O741 2.612 . S
Eu696 O743 2.339 . S
Eu696 O744 2.563 . S
Eu696 O745 2.419 . S
Eu696 O747 2.380 . S
Eu696 O748 2.432 . S
Eu696 C760 2.848 . S
C697 C700 1.429 . S
C697 C701 1.411 . S
C697 N704 1.377 . S
C698 C700 1.420 . S
C698 C702 1.423 . S
C698 C710 1.392 . S
C699 C701 1.420 . S
C699 C702 1.351 . S
C699 H722 0.931 . S
C700 C697 1.429 . S
C700 C698 1.420 . S
C700 N708 1.362 . S
C701 C697 1.411 . S
C701 C699 1.420 . S
C701 C706 1.395 . S
C702 C698 1.423 . S
C702 C699 1.351 . S
C702 H714 0.930 . S
C703 C705 1.400 . S
C703 C706 1.386 . S
C703 H715 0.930 . S
N704 C697 1.377 . S
N704 C705 1.321 . S
N704 Eu707 2.609 . S
C705 C703 1.400 . S
C705 N704 1.321 . S
C705 H712 0.930 . S
C706 C701 1.395 . S
C706 C703 1.386 . S
C706 H725 0.930 . S
Eu707 N704 2.609 . S
Eu707 N708 2.657 . S
Eu707 O741 2.380 . S
Eu707 O742 2.432 . S
Eu707 O746 2.558 . S
Eu707 O747 2.612 . S
Eu707 O749 2.339 . S
Eu707 O750 2.563 . S
Eu707 O751 2.419 . S
Eu707 C771 2.848 . S
N708 C700 1.362 . S
N708 Eu707 2.657 . S
N708 C709 1.334 . S
C709 N708 1.334 . S
C709 C711 1.413 . S
C709 H716 0.929 . S
C710 C698 1.392 . S
C710 C711 1.367 . S
C710 H718 0.930 . S
C711 C709 1.413 . S
C711 C710 1.367 . S
C711 H713 0.930 . S
H712 C705 0.930 . S
H713 C711 0.930 . S
H714 C702 0.930 . S
H715 C703 0.930 . S
H716 C709 0.929 . S
H717 C731 0.930 . S
H718 C710 0.930 . S
H719 C737 0.930 . S
H720 C728 0.929 . S
H721 C735 0.930 . S
H722 C699 0.931 . S
H723 C729 0.930 . S
H724 C762 0.930 . S
H725 C706 0.930 . S
H726 C761 0.931 . S
N727 Eu696 2.657 . S
N727 C728 1.334 . S
N727 C732 1.362 . S
C728 H720 0.929 . S
C728 N727 1.334 . S
C728 C731 1.413 . S
C729 H723 0.930 . S
C729 C730 1.392 . S
C729 C731 1.367 . S
C730 C729 1.392 . S
C730 C732 1.420 . S
C730 C762 1.423 . S
C731 H717 0.930 . S
C731 C728 1.413 . S
C731 C729 1.367 . S
C732 N727 1.362 . S
C732 C730 1.420 . S
C732 C736 1.429 . S
H733 C738 0.930 . S
N734 Eu696 2.609 . S
N734 C736 1.377 . S
N734 C737 1.321 . S
C735 H721 0.930 . S
C735 C737 1.400 . S
C735 C738 1.386 . S
C736 C732 1.429 . S
C736 N734 1.377 . S
C736 C739 1.411 . S
C737 H719 0.930 . S
C737 N734 1.321 . S
C737 C735 1.400 . S
C738 H733 0.930 . S
C738 C735 1.386 . S
C738 C739 1.395 . S
C739 C736 1.411 . S
C739 C738 1.395 . S
C739 C761 1.420 . S
O740 Eu696 2.558 . S
O740 C760 1.257 . S
O741 Eu696 2.612 . S
O741 Eu707 2.380 . S
O741 C752 1.276 . S
O742 Eu707 2.432 . S
O742 C759 1.264 . S
O743 Eu696 2.339 . S
O743 C759 1.254 . S
O744 Eu696 2.563 . S
O744 C752 1.235 . S
O745 Eu696 2.419 . S
O745 C760 1.249 . S
O746 Eu707 2.558 . S
O746 C771 1.257 . S
O747 Eu696 2.380 . S
O747 Eu707 2.612 . S
O747 C763 1.276 . S
O748 Eu696 2.432 . S
O748 C770 1.264 . S
O749 Eu707 2.339 . S
O749 C770 1.254 . S
O750 Eu707 2.563 . S
O750 C763 1.235 . S
O751 Eu707 2.419 . S
O751 C771 1.249 . S
C752 O741 1.276 . S
C752 O744 1.235 . S
C753 C755 1.393 . S
C753 C757 1.395 . S
C753 C760 1.492 . S
C754 C755 1.392 . S
C754 C756 1.386 . S
C755 C753 1.393 . S
C755 C754 1.392 . S
C755 H772 0.930 . S
C756 C754 1.386 . S
C756 C758 1.395 . S
C756 H773 0.930 . S
C757 C753 1.395 . S
C757 C758 1.379 . S
C757 H774 0.930 . S
C758 C756 1.395 . S
C758 C757 1.379 . S
C758 H775 0.930 . S
C759 O742 1.264 . S
C759 O743 1.254 . S
C760 Eu696 2.848 . S
C760 O740 1.257 . S
C760 O745 1.249 . S
C760 C753 1.492 . S
C761 H726 0.931 . S
C761 C739 1.420 . S
C761 C762 1.351 . S
C762 H724 0.930 . S
C762 C730 1.423 . S
C762 C761 1.351 . S
C763 O747 1.276 . S
C763 O750 1.235 . S
C764 C765 1.393 . S
C764 C768 1.395 . S
C764 C771 1.492 . S
C765 C764 1.393 . S
C765 C766 1.392 . S
C765 H776 0.930 . S
C766 C765 1.392 . S
C766 C767 1.386 . S
C767 C766 1.386 . S
C767 C769 1.395 . S
C767 H777 0.930 . S
C768 C764 1.395 . S
C768 C769 1.379 . S
C768 H778 0.930 . S
C769 C767 1.395 . S
C769 C768 1.379 . S
C769 H779 0.930 . S
C770 O748 1.264 . S
C770 O749 1.254 . S
C771 Eu707 2.848 . S
C771 O746 1.257 . S
C771 O751 1.249 . S
C771 C764 1.492 . S
H772 C755 0.930 . S
H773 C756 0.930 . S
H774 C757 0.930 . S
H775 C758 0.930 . S
H776 C765 0.930 . S
H777 C767 0.930 . S
H778 C768 0.930 . S
H779 C769 0.930 . S
Eu780 N811 2.657 . S
Eu780 N818 2.609 . S
Eu780 O824 2.558 . S
Eu780 O825 2.612 . S
Eu780 O827 2.339 . S
Eu780 O828 2.563 . S
Eu780 O829 2.419 . S
Eu780 O831 2.380 . S
Eu780 O832 2.432 . S
Eu780 C844 2.848 . S
C781 C784 1.429 . S
C781 C785 1.411 . S
C781 N788 1.377 . S
C782 C784 1.420 . S
C782 C786 1.423 . S
C782 C794 1.392 . S
C783 C785 1.420 . S
C783 C786 1.351 . S
C783 H806 0.931 . S
C784 C781 1.429 . S
C784 C782 1.420 . S
C784 N792 1.362 . S
C785 C781 1.411 . S
C785 C783 1.420 . S
C785 C790 1.395 . S
C786 C782 1.423 . S
C786 C783 1.351 . S
C786 H798 0.930 . S
C787 C789 1.400 . S
C787 C790 1.386 . S
C787 H799 0.930 . S
N788 C781 1.377 . S
N788 C789 1.321 . S
N788 Eu791 2.609 . S
C789 C787 1.400 . S
C789 N788 1.321 . S
C789 H796 0.930 . S
C790 C785 1.395 . S
C790 C787 1.386 . S
C790 H809 0.930 . S
Eu791 N788 2.609 . S
Eu791 N792 2.657 . S
Eu791 O825 2.380 . S
Eu791 O826 2.432 . S
Eu791 O830 2.558 . S
Eu791 O831 2.612 . S
Eu791 O833 2.339 . S
Eu791 O834 2.563 . S
Eu791 O835 2.419 . S
Eu791 C855 2.848 . S
N792 C784 1.362 . S
N792 Eu791 2.657 . S
N792 C793 1.334 . S
C793 N792 1.334 . S
C793 C795 1.413 . S
C793 H800 0.929 . S
C794 C782 1.392 . S
C794 C795 1.367 . S
C794 H802 0.930 . S
C795 C793 1.413 . S
C795 C794 1.367 . S
C795 H797 0.930 . S
H796 C789 0.930 . S
H797 C795 0.930 . S
H798 C786 0.930 . S
H799 C787 0.930 . S
H800 C793 0.929 . S
H801 C815 0.930 . S
H802 C794 0.930 . S
H803 C821 0.930 . S
H804 C812 0.929 . S
H805 C819 0.930 . S
H806 C783 0.931 . S
H807 C813 0.930 . S
H808 C846 0.930 . S
H809 C790 0.930 . S
H810 C845 0.931 . S
N811 Eu780 2.657 . S
N811 C812 1.334 . S
N811 C816 1.362 . S
C812 H804 0.929 . S
C812 N811 1.334 . S
C812 C815 1.413 . S
C813 H807 0.930 . S
C813 C814 1.392 . S
C813 C815 1.367 . S
C814 C813 1.392 . S
C814 C816 1.420 . S
C814 C846 1.423 . S
C815 H801 0.930 . S
C815 C812 1.413 . S
C815 C813 1.367 . S
C816 N811 1.362 . S
C816 C814 1.420 . S
C816 C820 1.429 . S
H817 C822 0.930 . S
N818 Eu780 2.609 . S
N818 C820 1.377 . S
N818 C821 1.321 . S
C819 H805 0.930 . S
C819 C821 1.400 . S
C819 C822 1.386 . S
C820 C816 1.429 . S
C820 N818 1.377 . S
C820 C823 1.411 . S
C821 H803 0.930 . S
C821 N818 1.321 . S
C821 C819 1.400 . S
C822 H817 0.930 . S
C822 C819 1.386 . S
C822 C823 1.395 . S
C823 C820 1.411 . S
C823 C822 1.395 . S
C823 C845 1.420 . S
O824 Eu780 2.558 . S
O824 C844 1.257 . S
O825 Eu780 2.612 . S
O825 Eu791 2.380 . S
O825 C836 1.276 . S
O826 Eu791 2.432 . S
O826 C843 1.264 . S
O827 Eu780 2.339 . S
O827 C843 1.254 . S
O828 Eu780 2.563 . S
O828 C836 1.235 . S
O829 Eu780 2.419 . S
O829 C844 1.249 . S
O830 Eu791 2.558 . S
O830 C855 1.257 . S
O831 Eu780 2.380 . S
O831 Eu791 2.612 . S
O831 C847 1.276 . S
O832 Eu780 2.432 . S
O832 C854 1.264 . S
O833 Eu791 2.339 . S
O833 C854 1.254 . S
O834 Eu791 2.563 . S
O834 C847 1.235 . S
O835 Eu791 2.419 . S
O835 C855 1.249 . S
C836 O825 1.276 . S
C836 O828 1.235 . S
C837 C839 1.393 . S
C837 C841 1.395 . S
C837 C844 1.492 . S
C838 C839 1.392 . S
C838 C840 1.386 . S
C839 C837 1.393 . S
C839 C838 1.392 . S
C839 H856 0.930 . S
C840 C838 1.386 . S
C840 C842 1.395 . S
C840 H857 0.930 . S
C841 C837 1.395 . S
C841 C842 1.379 . S
C841 H858 0.930 . S
C842 C840 1.395 . S
C842 C841 1.379 . S
C842 H859 0.930 . S
C843 O826 1.264 . S
C843 O827 1.254 . S
C844 Eu780 2.848 . S
C844 O824 1.257 . S
C844 O829 1.249 . S
C844 C837 1.492 . S
C845 H810 0.931 . S
C845 C823 1.420 . S
C845 C846 1.351 . S
C846 H808 0.930 . S
C846 C814 1.423 . S
C846 C845 1.351 . S
C847 O831 1.276 . S
C847 O834 1.235 . S
C848 C849 1.393 . S
C848 C852 1.395 . S
C848 C855 1.492 . S
C849 C848 1.393 . S
C849 C850 1.392 . S
C849 H860 0.930 . S
C850 C849 1.392 . S
C850 C851 1.386 . S
C851 C850 1.386 . S
C851 C853 1.395 . S
C851 H861 0.930 . S
C852 C848 1.395 . S
C852 C853 1.379 . S
C852 H862 0.930 . S
C853 C851 1.395 . S
C853 C852 1.379 . S
C853 H863 0.930 . S
C854 O832 1.264 . S
C854 O833 1.254 . S
C855 Eu791 2.848 . S
C855 O830 1.257 . S
C855 O835 1.249 . S
C855 C848 1.492 . S
H856 C839 0.930 . S
H857 C840 0.930 . S
H858 C841 0.930 . S
H859 C842 0.930 . S
H860 C849 0.930 . S
H861 C851 0.930 . S
H862 C852 0.930 . S
H863 C853 0.930 . S
Eu864 N895 2.657 . S
Eu864 N902 2.609 . S
Eu864 O908 2.558 . S
Eu864 O909 2.612 . S
Eu864 O911 2.339 . S
Eu864 O912 2.563 . S
Eu864 O913 2.419 . S
Eu864 O915 2.380 . S
Eu864 O916 2.432 . S
Eu864 C928 2.848 . S
C865 C868 1.429 . S
C865 C869 1.411 . S
C865 N872 1.377 . S
C866 C868 1.420 . S
C866 C870 1.423 . S
C866 C878 1.392 . S
C867 C869 1.420 . S
C867 C870 1.351 . S
C867 H890 0.931 . S
C868 C865 1.429 . S
C868 C866 1.420 . S
C868 N876 1.362 . S
C869 C865 1.411 . S
C869 C867 1.420 . S
C869 C874 1.395 . S
C870 C866 1.423 . S
C870 C867 1.351 . S
C870 H882 0.930 . S
C871 C873 1.400 . S
C871 C874 1.386 . S
C871 H883 0.930 . S
N872 C865 1.377 . S
N872 C873 1.321 . S
N872 Eu875 2.609 . S
C873 C871 1.400 . S
C873 N872 1.321 . S
C873 H880 0.930 . S
C874 C869 1.395 . S
C874 C871 1.386 . S
C874 H893 0.930 . S
Eu875 N872 2.609 . S
Eu875 N876 2.657 . S
Eu875 O909 2.380 . S
Eu875 O910 2.432 . S
Eu875 O914 2.558 . S
Eu875 O915 2.612 . S
Eu875 O917 2.339 . S
Eu875 O918 2.563 . S
Eu875 O919 2.419 . S
Eu875 C939 2.848 . S
N876 C868 1.362 . S
N876 Eu875 2.657 . S
N876 C877 1.334 . S
C877 N876 1.334 . S
C877 C879 1.413 . S
C877 H884 0.929 . S
C878 C866 1.392 . S
C878 C879 1.367 . S
C878 H886 0.930 . S
C879 C877 1.413 . S
C879 C878 1.367 . S
C879 H881 0.930 . S
H880 C873 0.930 . S
H881 C879 0.930 . S
H882 C870 0.930 . S
H883 C871 0.930 . S
H884 C877 0.929 . S
H885 C899 0.930 . S
H886 C878 0.930 . S
H887 C905 0.930 . S
H888 C896 0.929 . S
H889 C903 0.930 . S
H890 C867 0.931 . S
H891 C897 0.930 . S
H892 C930 0.930 . S
H893 C874 0.930 . S
H894 C929 0.931 . S
N895 Eu864 2.657 . S
N895 C896 1.334 . S
N895 C900 1.362 . S
C896 H888 0.929 . S
C896 N895 1.334 . S
C896 C899 1.413 . S
C897 H891 0.930 . S
C897 C898 1.392 . S
C897 C899 1.367 . S
C898 C897 1.392 . S
C898 C900 1.420 . S
C898 C930 1.423 . S
C899 H885 0.930 . S
C899 C896 1.413 . S
C899 C897 1.367 . S
C900 N895 1.362 . S
C900 C898 1.420 . S
C900 C904 1.429 . S
H901 C906 0.930 . S
N902 Eu864 2.609 . S
N902 C904 1.377 . S
N902 C905 1.321 . S
C903 H889 0.930 . S
C903 C905 1.400 . S
C903 C906 1.386 . S
C904 C900 1.429 . S
C904 N902 1.377 . S
C904 C907 1.411 . S
C905 H887 0.930 . S
C905 N902 1.321 . S
C905 C903 1.400 . S
C906 H901 0.930 . S
C906 C903 1.386 . S
C906 C907 1.395 . S
C907 C904 1.411 . S
C907 C906 1.395 . S
C907 C929 1.420 . S
O908 Eu864 2.558 . S
O908 C928 1.257 . S
O909 Eu864 2.612 . S
O909 Eu875 2.380 . S
O909 C920 1.276 . S
O910 Eu875 2.432 . S
O910 C927 1.264 . S
O911 Eu864 2.339 . S
O911 C927 1.254 . S
O912 Eu864 2.563 . S
O912 C920 1.235 . S
O913 Eu864 2.419 . S
O913 C928 1.249 . S
O914 Eu875 2.558 . S
O914 C939 1.257 . S
O915 Eu864 2.380 . S
O915 Eu875 2.612 . S
O915 C931 1.276 . S
O916 Eu864 2.432 . S
O916 C938 1.264 . S
O917 Eu875 2.339 . S
O917 C938 1.254 . S
O918 Eu875 2.563 . S
O918 C931 1.235 . S
O919 Eu875 2.419 . S
O919 C939 1.249 . S
C920 O909 1.276 . S
C920 O912 1.235 . S
C921 C923 1.393 . S
C921 C925 1.395 . S
C921 C928 1.492 . S
C922 C923 1.392 . S
C922 C924 1.386 . S
C923 C921 1.393 . S
C923 C922 1.392 . S
C923 H940 0.930 . S
C924 C922 1.386 . S
C924 C926 1.395 . S
C924 H941 0.930 . S
C925 C921 1.395 . S
C925 C926 1.379 . S
C925 H942 0.930 . S
C926 C924 1.395 . S
C926 C925 1.379 . S
C926 H943 0.930 . S
C927 O910 1.264 . S
C927 O911 1.254 . S
C928 Eu864 2.848 . S
C928 O908 1.257 . S
C928 O913 1.249 . S
C928 C921 1.492 . S
C929 H894 0.931 . S
C929 C907 1.420 . S
C929 C930 1.351 . S
C930 H892 0.930 . S
C930 C898 1.423 . S
C930 C929 1.351 . S
C931 O915 1.276 . S
C931 O918 1.235 . S
C932 C933 1.393 . S
C932 C936 1.395 . S
C932 C939 1.492 . S
C933 C932 1.393 . S
C933 C934 1.392 . S
C933 H944 0.930 . S
C934 C933 1.392 . S
C934 C935 1.386 . S
C935 C934 1.386 . S
C935 C937 1.395 . S
C935 H945 0.930 . S
C936 C932 1.395 . S
C936 C937 1.379 . S
C936 H946 0.930 . S
C937 C935 1.395 . S
C937 C936 1.379 . S
C937 H947 0.930 . S
C938 O916 1.264 . S
C938 O917 1.254 . S
C939 Eu875 2.848 . S
C939 O914 1.257 . S
C939 O919 1.249 . S
C939 C932 1.492 . S
H940 C923 0.930 . S
H941 C924 0.930 . S
H942 C925 0.930 . S
H943 C926 0.930 . S
H944 C933 0.930 . S
H945 C935 0.930 . S
H946 C936 0.930 . S
H947 C937 0.930 . S
H948 C954 0.930 . S
H949 C958 0.930 . S
H950 C963 0.929 . S
H951 C961 0.929 . S
H952 C956 0.929 . S
H953 C962 0.929 . S
C954 H948 0.930 . S
C954 C955 1.367 . S
C954 C962 1.378 . S
C955 C954 1.367 . S
C955 C963 1.433 . S
C956 H952 0.929 . S
C956 C958 1.378 . S
C956 C960 1.350 . S
C957 C960 1.463 . S
C957 C962 1.350 . S
C957 N965 1.427 . S
C958 H949 0.930 . S
C958 C956 1.378 . S
C958 C959 1.367 . S
C959 C958 1.367 . S
C959 C961 1.433 . S
C960 C956 1.350 . S
C960 C957 1.463 . S
C960 N964 1.427 . S
C961 H951 0.929 . S
C961 C959 1.433 . S
C961 N964 1.384 . S
C962 H953 0.929 . S
C962 C954 1.378 . S
C962 C957 1.350 . S
C963 H950 0.929 . S
C963 C955 1.433 . S
C963 N965 1.384 . S
N964 C960 1.427 . S
N964 C961 1.384 . S
N965 C957 1.427 . S
N965 C963 1.384 . S
H966 C972 0.930 . S
H967 C976 0.930 . S
H968 C981 0.929 . S
H969 C979 0.929 . S
H970 C974 0.929 . S
H971 C980 0.929 . S
C972 H966 0.930 . S
C972 C973 1.367 . S
C972 C980 1.378 . S
C973 C972 1.367 . S
C973 C981 1.433 . S
C974 H970 0.929 . S
C974 C976 1.378 . S
C974 C978 1.350 . S
C975 C978 1.463 . S
C975 C980 1.350 . S
C975 N983 1.427 . S
C976 H967 0.930 . S
C976 C974 1.378 . S
C976 C977 1.367 . S
C977 C976 1.367 . S
C977 C979 1.433 . S
C978 C974 1.350 . S
C978 C975 1.463 . S
C978 N982 1.427 . S
C979 H969 0.929 . S
C979 C977 1.433 . S
C979 N982 1.384 . S
C980 H971 0.929 . S
C980 C972 1.378 . S
C980 C975 1.350 . S
C981 H968 0.929 . S
C981 C973 1.433 . S
C981 N983 1.384 . S
N982 C978 1.427 . S
N982 C979 1.384 . S
N983 C975 1.427 . S
N983 C981 1.384 . S
H984 C990 0.930 . S
H985 C994 0.930 . S
H986 C999 0.929 . S
H987 C997 0.929 . S
H988 C992 0.929 . S
H989 C998 0.929 . S
C990 H984 0.930 . S
C990 C991 1.367 . S
C990 C998 1.378 . S
C991 C990 1.367 . S
C991 C999 1.433 . S
C992 H988 0.929 . S
C992 C994 1.378 . S
C992 C996 1.350 . S
C993 C996 1.463 . S
C993 C998 1.350 . S
C993 N1001 1.427 . S
C994 H985 0.930 . S
C994 C992 1.378 . S
C994 C995 1.367 . S
C995 C994 1.367 . S
C995 C997 1.433 . S
C996 C992 1.350 . S
C996 C993 1.463 . S
C996 N1000 1.427 . S
C997 H987 0.929 . S
C997 C995 1.433 . S
C997 N1000 1.384 . S
C998 H989 0.929 . S
C998 C990 1.378 . S
C998 C993 1.350 . S
C999 H986 0.929 . S
C999 C991 1.433 . S
C999 N1001 1.384 . S
N1000 C996 1.427 . S
N1000 C997 1.384 . S
N1001 C993 1.427 . S
N1001 C999 1.384 . S
H1002 C1008 0.930 . S
H1003 C1012 0.930 . S
H1004 C1017 0.929 . S
H1005 C1015 0.929 . S
H1006 C1010 0.929 . S
H1007 C1016 0.929 . S
C1008 H1002 0.930 . S
C1008 C1009 1.367 . S
C1008 C1016 1.378 . S
C1009 C1008 1.367 . S
C1009 C1017 1.433 . S
C1010 H1006 0.929 . S
C1010 C1012 1.378 . S
C1010 C1014 1.350 . S
C1011 C1014 1.463 . S
C1011 C1016 1.350 . S
C1011 N1019 1.427 . S
C1012 H1003 0.930 . S
C1012 C1010 1.378 . S
C1012 C1013 1.367 . S
C1013 C1012 1.367 . S
C1013 C1015 1.433 . S
C1014 C1010 1.350 . S
C1014 C1011 1.463 . S
C1014 N1018 1.427 . S
C1015 H1005 0.929 . S
C1015 C1013 1.433 . S
C1015 N1018 1.384 . S
C1016 H1007 0.929 . S
C1016 C1008 1.378 . S
C1016 C1011 1.350 . S
C1017 H1004 0.929 . S
C1017 C1009 1.433 . S
C1017 N1019 1.384 . S
N1018 C1014 1.427 . S
N1018 C1015 1.384 . S
N1019 C1011 1.427 . S
N1019 C1017 1.384 . S
H1020 C1026 0.930 . S
H1021 C1030 0.930 . S
H1022 C1035 0.929 . S
H1023 C1033 0.929 . S
H1024 C1028 0.929 . S
H1025 C1034 0.929 . S
C1026 H1020 0.930 . S
C1026 C1027 1.367 . S
C1026 C1034 1.378 . S
C1027 C1026 1.367 . S
C1027 C1035 1.433 . S
C1028 H1024 0.929 . S
C1028 C1030 1.378 . S
C1028 C1032 1.350 . S
C1029 C1032 1.463 . S
C1029 C1034 1.350 . S
C1029 N1037 1.427 . S
C1030 H1021 0.930 . S
C1030 C1028 1.378 . S
C1030 C1031 1.367 . S
C1031 C1030 1.367 . S
C1031 C1033 1.433 . S
C1032 C1028 1.350 . S
C1032 C1029 1.463 . S
C1032 N1036 1.427 . S
C1033 H1023 0.929 . S
C1033 C1031 1.433 . S
C1033 N1036 1.384 . S
C1034 H1025 0.929 . S
C1034 C1026 1.378 . S
C1034 C1029 1.350 . S
C1035 H1022 0.929 . S
C1035 C1027 1.433 . S
C1035 N1037 1.384 . S
N1036 C1032 1.427 . S
N1036 C1033 1.384 . S
N1037 C1029 1.427 . S
N1037 C1035 1.384 . S
H1038 C1044 0.930 . S
H1039 C1048 0.930 . S
H1040 C1053 0.929 . S
H1041 C1051 0.929 . S
H1042 C1046 0.929 . S
H1043 C1052 0.929 . S
C1044 H1038 0.930 . S
C1044 C1045 1.367 . S
C1044 C1052 1.378 . S
C1045 C1044 1.367 . S
C1045 C1053 1.433 . S
C1046 H1042 0.929 . S
C1046 C1048 1.378 . S
C1046 C1050 1.350 . S
C1047 C1050 1.463 . S
C1047 C1052 1.350 . S
C1047 N1055 1.427 . S
C1048 H1039 0.930 . S
C1048 C1046 1.378 . S
C1048 C1049 1.367 . S
C1049 C1048 1.367 . S
C1049 C1051 1.433 . S
C1050 C1046 1.350 . S
C1050 C1047 1.463 . S
C1050 N1054 1.427 . S
C1051 H1041 0.929 . S
C1051 C1049 1.433 . S
C1051 N1054 1.384 . S
C1052 H1043 0.929 . S
C1052 C1044 1.378 . S
C1052 C1047 1.350 . S
C1053 H1040 0.929 . S
C1053 C1045 1.433 . S
C1053 N1055 1.384 . S
N1054 C1050 1.427 . S
N1054 C1051 1.384 . S
N1055 C1047 1.427 . S
N1055 C1053 1.384 . S
H1056 C1062 0.930 . S
H1057 C1066 0.930 . S
H1058 C1071 0.929 . S
H1059 C1069 0.929 . S
H1060 C1064 0.929 . S
H1061 C1070 0.929 . S
C1062 H1056 0.930 . S
C1062 C1063 1.367 . S
C1062 C1070 1.378 . S
C1063 C1062 1.367 . S
C1063 C1071 1.433 . S
C1064 H1060 0.929 . S
C1064 C1066 1.378 . S
C1064 C1068 1.350 . S
C1065 C1068 1.463 . S
C1065 C1070 1.350 . S
C1065 N1073 1.427 . S
C1066 H1057 0.930 . S
C1066 C1064 1.378 . S
C1066 C1067 1.367 . S
C1067 C1066 1.367 . S
C1067 C1069 1.433 . S
C1068 C1064 1.350 . S
C1068 C1065 1.463 . S
C1068 N1072 1.427 . S
C1069 H1059 0.929 . S
C1069 C1067 1.433 . S
C1069 N1072 1.384 . S
C1070 H1061 0.929 . S
C1070 C1062 1.378 . S
C1070 C1065 1.350 . S
C1071 H1058 0.929 . S
C1071 C1063 1.433 . S
C1071 N1073 1.384 . S
N1072 C1068 1.427 . S
N1072 C1069 1.384 . S
N1073 C1065 1.427 . S
N1073 C1071 1.384 . S
H1074 C1080 0.930 . S
H1075 C1084 0.930 . S
H1076 C1089 0.929 . S
H1077 C1087 0.929 . S
H1078 C1082 0.929 . S
H1079 C1088 0.929 . S
C1080 H1074 0.930 . S
C1080 C1081 1.367 . S
C1080 C1088 1.378 . S
C1081 C1080 1.367 . S
C1081 C1089 1.433 . S
C1082 H1078 0.929 . S
C1082 C1084 1.378 . S
C1082 C1086 1.350 . S
C1083 C1086 1.463 . S
C1083 C1088 1.350 . S
C1083 N1091 1.427 . S
C1084 H1075 0.930 . S
C1084 C1082 1.378 . S
C1084 C1085 1.367 . S
C1085 C1084 1.367 . S
C1085 C1087 1.433 . S
C1086 C1082 1.350 . S
C1086 C1083 1.463 . S
C1086 N1090 1.427 . S
C1087 H1077 0.929 . S
C1087 C1085 1.433 . S
C1087 N1090 1.384 . S
C1088 H1079 0.929 . S
C1088 C1080 1.378 . S
C1088 C1083 1.350 . S
C1089 H1076 0.929 . S
C1089 C1081 1.433 . S
C1089 N1091 1.384 . S
N1090 C1086 1.427 . S
N1090 C1087 1.384 . S
N1091 C1083 1.427 . S
N1091 C1089 1.384 . S
H1092 C1098 0.930 . S
H1093 C1102 0.930 . S
H1094 C1107 0.929 . S
H1095 C1105 0.929 . S
H1096 C1100 0.929 . S
H1097 C1106 0.929 . S
C1098 H1092 0.930 . S
C1098 C1099 1.367 . S
C1098 C1106 1.378 . S
C1099 C1098 1.367 . S
C1099 C1107 1.433 . S
C1100 H1096 0.929 . S
C1100 C1102 1.378 . S
C1100 C1104 1.350 . S
C1101 C1104 1.463 . S
C1101 C1106 1.350 . S
C1101 N1109 1.427 . S
C1102 H1093 0.930 . S
C1102 C1100 1.378 . S
C1102 C1103 1.367 . S
C1103 C1102 1.367 . S
C1103 C1105 1.433 . S
C1104 C1100 1.350 . S
C1104 C1101 1.463 . S
C1104 N1108 1.427 . S
C1105 H1095 0.929 . S
C1105 C1103 1.433 . S
C1105 N1108 1.384 . S
C1106 H1097 0.929 . S
C1106 C1098 1.378 . S
C1106 C1101 1.350 . S
C1107 H1094 0.929 . S
C1107 C1099 1.433 . S
C1107 N1109 1.384 . S
N1108 C1104 1.427 . S
N1108 C1105 1.384 . S
N1109 C1101 1.427 . S
N1109 C1107 1.384 . S
H1110 C1116 0.930 . S
H1111 C1120 0.930 . S
H1112 C1125 0.929 . S
H1113 C1123 0.929 . S
H1114 C1118 0.929 . S
H1115 C1124 0.929 . S
C1116 H1110 0.930 . S
C1116 C1117 1.367 . S
C1116 C1124 1.378 . S
C1117 C1116 1.367 . S
C1117 C1125 1.433 . S
C1118 H1114 0.929 . S
C1118 C1120 1.378 . S
C1118 C1122 1.350 . S
C1119 C1122 1.463 . S
C1119 C1124 1.350 . S
C1119 N1127 1.427 . S
C1120 H1111 0.930 . S
C1120 C1118 1.378 . S
C1120 C1121 1.367 . S
C1121 C1120 1.367 . S
C1121 C1123 1.433 . S
C1122 C1118 1.350 . S
C1122 C1119 1.463 . S
C1122 N1126 1.427 . S
C1123 H1113 0.929 . S
C1123 C1121 1.433 . S
C1123 N1126 1.384 . S
C1124 H1115 0.929 . S
C1124 C1116 1.378 . S
C1124 C1119 1.350 . S
C1125 H1112 0.929 . S
C1125 C1117 1.433 . S
C1125 N1127 1.384 . S
N1126 C1122 1.427 . S
N1126 C1123 1.384 . S
N1127 C1119 1.427 . S
N1127 C1125 1.384 . S
H1128 C1134 0.930 . S
H1129 C1138 0.930 . S
H1130 C1143 0.929 . S
H1131 C1141 0.929 . S
H1132 C1136 0.929 . S
H1133 C1142 0.929 . S
C1134 H1128 0.930 . S
C1134 C1135 1.367 . S
C1134 C1142 1.378 . S
C1135 C1134 1.367 . S
C1135 C1143 1.433 . S
C1136 H1132 0.929 . S
C1136 C1138 1.378 . S
C1136 C1140 1.350 . S
C1137 C1140 1.463 . S
C1137 C1142 1.350 . S
C1137 N1145 1.427 . S
C1138 H1129 0.930 . S
C1138 C1136 1.378 . S
C1138 C1139 1.367 . S
C1139 C1138 1.367 . S
C1139 C1141 1.433 . S
C1140 C1136 1.350 . S
C1140 C1137 1.463 . S
C1140 N1144 1.427 . S
C1141 H1131 0.929 . S
C1141 C1139 1.433 . S
C1141 N1144 1.384 . S
C1142 H1133 0.929 . S
C1142 C1134 1.378 . S
C1142 C1137 1.350 . S
C1143 H1130 0.929 . S
C1143 C1135 1.433 . S
C1143 N1145 1.384 . S
N1144 C1140 1.427 . S
N1144 C1141 1.384 . S
N1145 C1137 1.427 . S
N1145 C1143 1.384 . S
H1146 C1152 0.930 . S
H1147 C1156 0.930 . S
H1148 C1161 0.929 . S
H1149 C1159 0.929 . S
H1150 C1154 0.929 . S
H1151 C1160 0.929 . S
C1152 H1146 0.930 . S
C1152 C1153 1.367 . S
C1152 C1160 1.378 . S
C1153 C1152 1.367 . S
C1153 C1161 1.433 . S
C1154 H1150 0.929 . S
C1154 C1156 1.378 . S
C1154 C1158 1.350 . S
C1155 C1158 1.463 . S
C1155 C1160 1.350 . S
C1155 N1163 1.427 . S
C1156 H1147 0.930 . S
C1156 C1154 1.378 . S
C1156 C1157 1.367 . S
C1157 C1156 1.367 . S
C1157 C1159 1.433 . S
C1158 C1154 1.350 . S
C1158 C1155 1.463 . S
C1158 N1162 1.427 . S
C1159 H1149 0.929 . S
C1159 C1157 1.433 . S
C1159 N1162 1.384 . S
C1160 H1151 0.929 . S
C1160 C1152 1.378 . S
C1160 C1155 1.350 . S
C1161 H1148 0.929 . S
C1161 C1153 1.433 . S
C1161 N1163 1.384 . S
N1162 C1158 1.427 . S
N1162 C1159 1.384 . S
N1163 C1155 1.427 . S
N1163 C1161 1.384 . S
H1164 C1170 0.931 . S
H1165 C1174 0.930 . S
H1166 C1179 0.929 . S
H1167 C1177 0.929 . S
H1168 C1172 0.929 . S
H1169 C1178 0.929 . S
C1170 H1164 0.931 . S
C1170 C1171 1.362 1_556 S
C1170 C1178 1.382 1_545 S
C1171 C1170 1.362 1_554 S
C1171 C1179 1.433 1_545 S
C1172 H1168 0.929 . S
C1172 C1174 1.378 . S
C1172 C1176 1.350 . S
C1173 C1176 1.463 . S
C1173 C1178 1.350 . S
C1173 N1181 1.427 1_556 S
C1174 H1165 0.930 . S
C1174 C1172 1.378 . S
C1174 C1175 1.367 . S
C1175 C1174 1.367 . S
C1175 C1177 1.433 . S
C1176 C1172 1.350 . S
C1176 C1173 1.463 . S
C1176 N1180 1.427 . S
C1177 H1167 0.929 . S
C1177 C1175 1.433 . S
C1177 N1180 1.384 . S
C1178 H1169 0.929 . S
C1178 C1170 1.382 1_565 S
C1178 C1173 1.350 . S
C1179 H1166 0.929 . S
C1179 C1171 1.433 1_565 S
C1179 N1181 1.384 . S
N1180 C1176 1.427 . S
N1180 C1177 1.384 . S
N1181 C1173 1.427 1_554 S
N1181 C1179 1.384 . S
H1182 C1188 0.930 . S
H1183 C1192 0.930 . S
H1184 C1197 0.929 . S
H1185 C1195 0.929 . S
H1186 C1190 0.929 . S
H1187 C1196 0.929 . S
C1188 H1182 0.930 . S
C1188 C1189 1.367 . S
C1188 C1196 1.378 . S
C1189 C1188 1.367 . S
C1189 C1197 1.433 . S
C1190 H1186 0.929 . S
C1190 C1192 1.378 . S
C1190 C1194 1.350 . S
C1191 C1194 1.463 . S
C1191 C1196 1.350 . S
C1191 N1199 1.427 . S
C1192 H1183 0.930 . S
C1192 C1190 1.378 . S
C1192 C1193 1.367 . S
C1193 C1192 1.367 . S
C1193 C1195 1.433 . S
C1194 C1190 1.350 . S
C1194 C1191 1.463 . S
C1194 N1198 1.427 . S
C1195 H1185 0.929 . S
C1195 C1193 1.433 . S
C1195 N1198 1.384 . S
C1196 H1187 0.929 . S
C1196 C1188 1.378 . S
C1196 C1191 1.350 . S
C1197 H1184 0.929 . S
C1197 C1189 1.433 . S
C1197 N1199 1.384 . S
N1198 C1194 1.427 . S
N1198 C1195 1.384 . S
N1199 C1191 1.427 . S
N1199 C1197 1.384 . S
H1200 C1206 0.930 . S
H1201 C1210 0.930 . S
H1202 C1215 0.929 . S
H1203 C1213 0.929 . S
H1204 C1208 0.929 . S
H1205 C1214 0.929 . S
C1206 H1200 0.930 . S
C1206 C1207 1.367 . S
C1206 C1214 1.378 . S
C1207 C1206 1.367 . S
C1207 C1215 1.433 . S
C1208 H1204 0.929 . S
C1208 C1210 1.378 . S
C1208 C1212 1.350 . S
C1209 C1212 1.463 . S
C1209 C1214 1.350 . S
C1209 N1217 1.427 . S
C1210 H1201 0.930 . S
C1210 C1208 1.378 . S
C1210 C1211 1.367 . S
C1211 C1210 1.367 . S
C1211 C1213 1.433 . S
C1212 C1208 1.350 . S
C1212 C1209 1.463 . S
C1212 N1216 1.427 . S
C1213 H1203 0.929 . S
C1213 C1211 1.433 . S
C1213 N1216 1.384 . S
C1214 H1205 0.929 . S
C1214 C1206 1.378 . S
C1214 C1209 1.350 . S
C1215 H1202 0.929 . S
C1215 C1207 1.433 . S
C1215 N1217 1.384 . S
N1216 C1212 1.427 . S
N1216 C1213 1.384 . S
N1217 C1209 1.427 . S
N1217 C1215 1.384 . S
H1218 C1224 0.930 . S
H1219 C1228 0.930 . S
H1220 C1233 0.929 . S
H1221 C1231 0.929 . S
H1222 C1226 0.929 . S
H1223 C1232 0.929 . S
C1224 H1218 0.930 . S
C1224 C1225 1.367 . S
C1224 C1232 1.378 . S
C1225 C1224 1.367 . S
C1225 C1233 1.433 . S
C1226 H1222 0.929 . S
C1226 C1228 1.378 . S
C1226 C1230 1.350 . S
C1227 C1230 1.463 . S
C1227 C1232 1.350 . S
C1227 N1235 1.427 . S
C1228 H1219 0.930 . S
C1228 C1226 1.378 . S
C1228 C1229 1.367 . S
C1229 C1228 1.367 . S
C1229 C1231 1.433 . S
C1230 C1226 1.350 . S
C1230 C1227 1.463 . S
C1230 N1234 1.427 . S
C1231 H1221 0.929 . S
C1231 C1229 1.433 . S
C1231 N1234 1.384 . S
C1232 H1223 0.929 . S
C1232 C1224 1.378 . S
C1232 C1227 1.350 . S
C1233 H1220 0.929 . S
C1233 C1225 1.433 . S
C1233 N1235 1.384 . S
N1234 C1230 1.427 . S
N1234 C1231 1.384 . S
N1235 C1227 1.427 . S
N1235 C1233 1.384 . S
H1236 C1242 0.930 . S
H1237 C1246 0.930 . S
H1238 C1251 0.929 . S
H1239 C1249 0.929 . S
H1240 C1244 0.929 . S
H1241 C1250 0.929 . S
C1242 H1236 0.930 . S
C1242 C1243 1.367 . S
C1242 C1250 1.378 . S
C1243 C1242 1.367 . S
C1243 C1251 1.433 . S
C1244 H1240 0.929 . S
C1244 C1246 1.378 . S
C1244 C1248 1.350 . S
C1245 C1248 1.463 . S
C1245 C1250 1.350 . S
C1245 N1253 1.427 . S
C1246 H1237 0.930 . S
C1246 C1244 1.378 . S
C1246 C1247 1.367 . S
C1247 C1246 1.367 . S
C1247 C1249 1.433 . S
C1248 C1244 1.350 . S
C1248 C1245 1.463 . S
C1248 N1252 1.427 . S
C1249 H1239 0.929 . S
C1249 C1247 1.433 . S
C1249 N1252 1.384 . S
C1250 H1241 0.929 . S
C1250 C1242 1.378 . S
C1250 C1245 1.350 . S
C1251 H1238 0.929 . S
C1251 C1243 1.433 . S
C1251 N1253 1.384 . S
N1252 C1248 1.427 . S
N1252 C1249 1.384 . S
N1253 C1245 1.427 . S
N1253 C1251 1.384 . S
H1254 C1260 0.930 . S
H1255 C1264 0.930 . S
H1256 C1269 0.929 . S
H1257 C1267 0.929 . S
H1258 C1262 0.929 . S
H1259 C1268 0.929 . S
C1260 H1254 0.930 . S
C1260 C1261 1.367 . S
C1260 C1268 1.378 . S
C1261 C1260 1.367 . S
C1261 C1269 1.433 . S
C1262 H1258 0.929 . S
C1262 C1264 1.378 . S
C1262 C1266 1.350 . S
C1263 C1266 1.463 . S
C1263 C1268 1.350 . S
C1263 N1271 1.427 . S
C1264 H1255 0.930 . S
C1264 C1262 1.378 . S
C1264 C1265 1.367 . S
C1265 C1264 1.367 . S
C1265 C1267 1.433 . S
C1266 C1262 1.350 . S
C1266 C1263 1.463 . S
C1266 N1270 1.427 . S
C1267 H1257 0.929 . S
C1267 C1265 1.433 . S
C1267 N1270 1.384 . S
C1268 H1259 0.929 . S
C1268 C1260 1.378 . S
C1268 C1263 1.350 . S
C1269 H1256 0.929 . S
C1269 C1261 1.433 . S
C1269 N1271 1.384 . S
N1270 C1266 1.427 . S
N1270 C1267 1.384 . S
N1271 C1263 1.427 . S
N1271 C1269 1.384 . S
H1272 C1278 0.930 1_554 S
H1273 C1282 0.930 . S
H1274 C1287 0.929 . S
H1275 C1285 0.929 . S
H1276 C1280 0.929 . S
H1277 C1286 0.929 . S
C1278 H1272 0.930 1_556 S
C1278 C1279 1.367 1_556 S
C1278 C1286 1.378 . S
C1279 C1278 1.367 1_554 S
C1279 C1287 1.433 . S
C1280 H1276 0.929 . S
C1280 C1282 1.378 . S
C1280 C1284 1.350 . S
C1281 C1284 1.463 . S
C1281 C1286 1.350 . S
C1281 N1289 1.427 . S
C1282 H1273 0.930 . S
C1282 C1280 1.378 . S
C1282 C1283 1.367 . S
C1283 C1282 1.367 . S
C1283 C1285 1.433 . S
C1284 C1280 1.350 . S
C1284 C1281 1.463 . S
C1284 N1288 1.427 . S
C1285 H1275 0.929 . S
C1285 C1283 1.433 . S
C1285 N1288 1.384 . S
C1286 H1277 0.929 . S
C1286 C1278 1.378 . S
C1286 C1281 1.350 . S
C1287 H1274 0.929 . S
C1287 C1279 1.433 . S
C1287 N1289 1.384 1_554 S
N1288 C1284 1.427 . S
N1288 C1285 1.384 . S
N1289 C1281 1.427 . S
N1289 C1287 1.384 1_556 S
H1290 C1296 0.930 . S
H1291 C1300 0.930 . S
H1292 C1305 0.929 . S
H1293 C1303 0.929 . S
H1294 C1298 0.929 1_554 S
H1295 C1304 0.929 . S
C1296 H1290 0.930 . S
C1296 C1297 1.367 1_456 S
C1296 C1304 1.378 1_455 S
C1297 C1296 1.367 1_654 S
C1297 C1305 1.433 . S
C1298 H1294 0.929 1_556 S
C1298 C1300 1.378 . S
C1298 C1302 1.350 . S
C1299 C1302 1.463 . S
C1299 C1304 1.350 . S
C1299 N1307 1.427 1_556 S
C1300 H1291 0.930 . S
C1300 C1298 1.378 . S
C1300 C1301 1.367 . S
C1301 C1300 1.367 . S
C1301 C1303 1.433 . S
C1302 C1298 1.350 . S
C1302 C1299 1.463 . S
C1302 N1306 1.427 . S
C1303 H1293 0.929 . S
C1303 C1301 1.433 . S
C1303 N1306 1.384 . S
C1304 H1295 0.929 . S
C1304 C1296 1.378 1_655 S
C1304 C1299 1.350 . S
C1305 H1292 0.929 . S
C1305 C1297 1.433 . S
C1305 N1307 1.384 . S
N1306 C1302 1.427 . S
N1306 C1303 1.384 . S
N1307 C1299 1.427 1_554 S
N1307 C1305 1.384 . S
H1308 C1314 0.930 . S
H1309 C1318 0.930 . S
H1310 C1323 0.929 . S
H1311 C1321 0.929 . S
H1312 C1316 0.929 . S
H1313 C1322 0.929 . S
C1314 H1308 0.930 . S
C1314 C1315 1.367 . S
C1314 C1322 1.378 . S
C1315 C1314 1.367 . S
C1315 C1323 1.433 . S
C1316 H1312 0.929 . S
C1316 C1318 1.378 . S
C1316 C1320 1.350 . S
C1317 C1320 1.463 . S
C1317 C1322 1.350 . S
C1317 N1325 1.427 . S
C1318 H1309 0.930 . S
C1318 C1316 1.378 . S
C1318 C1319 1.367 . S
C1319 C1318 1.367 . S
C1319 C1321 1.433 . S
C1320 C1316 1.350 . S
C1320 C1317 1.463 . S
C1320 N1324 1.427 . S
C1321 H1311 0.929 . S
C1321 C1319 1.433 . S
C1321 N1324 1.384 . S
C1322 H1313 0.929 . S
C1322 C1314 1.378 . S
C1322 C1317 1.350 . S
C1323 H1310 0.929 . S
C1323 C1315 1.433 . S
C1323 N1325 1.384 . S
N1324 C1320 1.427 . S
N1324 C1321 1.384 . S
N1325 C1317 1.427 . S
N1325 C1323 1.384 . S
H1326 C1332 0.930 . S
H1327 C1336 0.930 . S
H1328 C1341 0.929 . S
H1329 C1339 0.929 . S
H1330 C1334 0.929 . S
H1331 C1340 0.929 . S
C1332 H1326 0.930 . S
C1332 C1333 1.367 . S
C1332 C1340 1.378 . S
C1333 C1332 1.367 . S
C1333 C1341 1.433 . S
C1334 H1330 0.929 . S
C1334 C1336 1.378 . S
C1334 C1338 1.350 . S
C1335 C1338 1.463 . S
C1335 C1340 1.350 . S
C1335 N1343 1.427 . S
C1336 H1327 0.930 . S
C1336 C1334 1.378 . S
C1336 C1337 1.367 . S
C1337 C1336 1.367 . S
C1337 C1339 1.433 . S
C1338 C1334 1.350 . S
C1338 C1335 1.463 . S
C1338 N1342 1.427 . S
C1339 H1329 0.929 . S
C1339 C1337 1.433 . S
C1339 N1342 1.384 . S
C1340 H1331 0.929 . S
C1340 C1332 1.378 . S
C1340 C1335 1.350 . S
C1341 H1328 0.929 . S
C1341 C1333 1.433 . S
C1341 N1343 1.384 . S
N1342 C1338 1.427 . S
N1342 C1339 1.384 . S
N1343 C1335 1.427 . S
N1343 C1341 1.384 . S
H1344 C1350 0.930 . S
H1345 C1354 0.930 . S
H1346 C1359 0.929 1_545 S
H1347 C1357 0.929 . S
H1348 C1352 0.929 . S
H1349 C1358 0.929 . S
C1350 H1344 0.930 . S
C1350 C1351 1.353 1_565 S
C1350 C1358 1.378 . S
C1351 C1350 1.353 1_545 S
C1351 C1359 1.433 1_545 S
C1352 H1348 0.929 . S
C1352 C1354 1.378 . S
C1352 C1356 1.350 . S
C1353 C1356 1.463 . S
C1353 C1358 1.350 . S
C1353 N1361 1.427 . S
C1354 H1345 0.930 . S
C1354 C1352 1.378 . S
C1354 C1355 1.367 . S
C1355 C1354 1.367 . S
C1355 C1357 1.433 . S
C1356 C1352 1.350 . S
C1356 C1353 1.463 . S
C1356 N1360 1.427 . S
C1357 H1347 0.929 . S
C1357 C1355 1.433 . S
C1357 N1360 1.384 . S
C1358 H1349 0.929 . S
C1358 C1350 1.378 . S
C1358 C1353 1.350 . S
C1359 H1346 0.929 1_565 S
C1359 C1351 1.433 1_565 S
C1359 N1361 1.384 . S
N1360 C1356 1.427 . S
N1360 C1357 1.384 . S
N1361 C1353 1.427 . S
N1361 C1359 1.384 . S
H1362 C1368 0.930 . S
H1363 C1372 0.930 . S
H1364 C1377 0.929 . S
H1365 C1375 0.929 . S
H1366 C1370 0.929 . S
H1367 C1376 0.929 . S
C1368 H1362 0.930 . S
C1368 C1369 1.367 . S
C1368 C1376 1.378 . S
C1369 C1368 1.367 . S
C1369 C1377 1.433 . S
C1370 H1366 0.929 . S
C1370 C1372 1.378 . S
C1370 C1374 1.350 . S
C1371 C1374 1.463 . S
C1371 C1376 1.350 . S
C1371 N1379 1.427 . S
C1372 H1363 0.930 . S
C1372 C1370 1.378 . S
C1372 C1373 1.367 . S
C1373 C1372 1.367 . S
C1373 C1375 1.433 . S
C1374 C1370 1.350 . S
C1374 C1371 1.463 . S
C1374 N1378 1.427 . S
C1375 H1365 0.929 . S
C1375 C1373 1.433 . S
C1375 N1378 1.384 . S
C1376 H1367 0.929 . S
C1376 C1368 1.378 . S
C1376 C1371 1.350 . S
C1377 H1364 0.929 . S
C1377 C1369 1.433 . S
C1377 N1379 1.384 . S
N1378 C1374 1.427 . S
N1378 C1375 1.384 . S
N1379 C1371 1.427 . S
N1379 C1377 1.384 . S
H1380 C1386 0.930 . S
H1381 C1390 0.930 . S
H1382 C1395 0.929 . S
H1383 C1393 0.929 . S
H1384 C1388 0.929 . S
H1385 C1394 0.929 . S
C1386 H1380 0.930 . S
C1386 C1387 1.367 . S
C1386 C1394 1.378 . S
C1387 C1386 1.367 . S
C1387 C1395 1.433 . S
C1388 H1384 0.929 . S
C1388 C1390 1.378 . S
C1388 C1392 1.350 . S
C1389 C1392 1.463 . S
C1389 C1394 1.350 . S
C1389 N1397 1.427 . S
C1390 H1381 0.930 . S
C1390 C1388 1.378 . S
C1390 C1391 1.367 . S
C1391 C1390 1.367 . S
C1391 C1393 1.433 . S
C1392 C1388 1.350 . S
C1392 C1389 1.463 . S
C1392 N1396 1.427 . S
C1393 H1383 0.929 . S
C1393 C1391 1.433 . S
C1393 N1396 1.384 . S
C1394 H1385 0.929 . S
C1394 C1386 1.378 . S
C1394 C1389 1.350 . S
C1395 H1382 0.929 . S
C1395 C1387 1.433 . S
C1395 N1397 1.384 . S
N1396 C1392 1.427 . S
N1396 C1393 1.384 . S
N1397 C1389 1.427 . S
N1397 C1395 1.384 . S
H1398 C1404 0.930 . S
H1399 C1408 0.930 . S
H1400 C1413 0.929 . S
H1401 C1411 0.929 . S
H1402 C1406 0.929 . S
H1403 C1412 0.929 . S
C1404 H1398 0.930 . S
C1404 C1405 1.367 . S
C1404 C1412 1.378 . S
C1405 C1404 1.367 . S
C1405 C1413 1.433 . S
C1406 H1402 0.929 . S
C1406 C1408 1.378 . S
C1406 C1410 1.350 . S
C1407 C1410 1.463 . S
C1407 C1412 1.350 . S
C1407 N1415 1.427 . S
C1408 H1399 0.930 . S
C1408 C1406 1.378 . S
C1408 C1409 1.367 . S
C1409 C1408 1.367 . S
C1409 C1411 1.433 . S
C1410 C1406 1.350 . S
C1410 C1407 1.463 . S
C1410 N1414 1.427 . S
C1411 H1401 0.929 . S
C1411 C1409 1.433 . S
C1411 N1414 1.384 . S
C1412 H1403 0.929 . S
C1412 C1404 1.378 . S
C1412 C1407 1.350 . S
C1413 H1400 0.929 . S
C1413 C1405 1.433 . S
C1413 N1415 1.384 . S
N1414 C1410 1.427 . S
N1414 C1411 1.384 . S
N1415 C1407 1.427 . S
N1415 C1413 1.384 . S
H1416 C1422 0.930 . S
H1417 C1426 0.930 . S
H1418 C1431 0.929 . S
H1419 C1429 0.929 . S
H1420 C1424 0.929 . S
H1421 C1430 0.929 . S
C1422 H1416 0.930 . S
C1422 C1423 1.367 . S
C1422 C1430 1.378 . S
C1423 C1422 1.367 . S
C1423 C1431 1.433 . S
C1424 H1420 0.929 . S
C1424 C1426 1.378 . S
C1424 C1428 1.350 . S
C1425 C1428 1.463 . S
C1425 C1430 1.350 . S
C1425 N1433 1.427 . S
C1426 H1417 0.930 . S
C1426 C1424 1.378 . S
C1426 C1427 1.367 . S
C1427 C1426 1.367 . S
C1427 C1429 1.433 . S
C1428 C1424 1.350 . S
C1428 C1425 1.463 . S
C1428 N1432 1.427 . S
C1429 H1419 0.929 . S
C1429 C1427 1.433 . S
C1429 N1432 1.384 . S
C1430 H1421 0.929 . S
C1430 C1422 1.378 . S
C1430 C1425 1.350 . S
C1431 H1418 0.929 . S
C1431 C1423 1.433 . S
C1431 N1433 1.384 . S
N1432 C1428 1.427 . S
N1432 C1429 1.384 . S
N1433 C1425 1.427 . S
N1433 C1431 1.384 . S
H1434 C1440 0.930 . S
H1435 C1444 0.930 . S
H1436 C1449 0.929 . S
H1437 C1447 0.929 . S
H1438 C1442 0.929 . S
H1439 C1448 0.929 . S
C1440 H1434 0.930 . S
C1440 C1441 1.367 . S
C1440 C1448 1.378 . S
C1441 C1440 1.367 . S
C1441 C1449 1.433 . S
C1442 H1438 0.929 . S
C1442 C1444 1.378 . S
C1442 C1446 1.350 . S
C1443 C1446 1.463 . S
C1443 C1448 1.350 . S
C1443 N1451 1.427 . S
C1444 H1435 0.930 . S
C1444 C1442 1.378 . S
C1444 C1445 1.367 . S
C1445 C1444 1.367 . S
C1445 C1447 1.433 . S
C1446 C1442 1.350 . S
C1446 C1443 1.463 . S
C1446 N1450 1.427 . S
C1447 H1437 0.929 . S
C1447 C1445 1.433 . S
C1447 N1450 1.384 . S
C1448 H1439 0.929 . S
C1448 C1440 1.378 . S
C1448 C1443 1.350 . S
C1449 H1436 0.929 . S
C1449 C1441 1.433 . S
C1449 N1451 1.384 . S
N1450 C1446 1.427 . S
N1450 C1447 1.384 . S
N1451 C1443 1.427 . S
N1451 C1449 1.384 . S
H1452 C1458 0.930 . S
H1453 C1462 0.930 . S
H1454 C1467 0.929 . S
H1455 C1465 0.929 . S
H1456 C1460 0.929 . S
H1457 C1466 0.929 . S
C1458 H1452 0.930 . S
C1458 C1459 1.367 . S
C1458 C1466 1.378 . S
C1459 C1458 1.367 . S
C1459 C1467 1.433 . S
C1460 H1456 0.929 . S
C1460 C1462 1.378 . S
C1460 C1464 1.350 . S
C1461 C1464 1.463 . S
C1461 C1466 1.350 . S
C1461 N1469 1.427 . S
C1462 H1453 0.930 . S
C1462 C1460 1.378 . S
C1462 C1463 1.367 . S
C1463 C1462 1.367 . S
C1463 C1465 1.433 . S
C1464 C1460 1.350 . S
C1464 C1461 1.463 . S
C1464 N1468 1.427 . S
C1465 H1455 0.929 . S
C1465 C1463 1.433 . S
C1465 N1468 1.384 . S
C1466 H1457 0.929 . S
C1466 C1458 1.378 . S
C1466 C1461 1.350 . S
C1467 H1454 0.929 . S
C1467 C1459 1.433 . S
C1467 N1469 1.384 . S
N1468 C1464 1.427 . S
N1468 C1465 1.384 . S
N1469 C1461 1.427 . S
N1469 C1467 1.384 . S
H1470 C1476 0.930 . S
H1471 C1480 0.930 . S
H1472 C1485 0.929 . S
H1473 C1483 0.929 . S
H1474 C1478 0.929 . S
H1475 C1484 0.929 . S
C1476 H1470 0.930 . S
C1476 C1477 1.367 . S
C1476 C1484 1.378 . S
C1477 C1476 1.367 . S
C1477 C1485 1.433 . S
C1478 H1474 0.929 . S
C1478 C1480 1.378 . S
C1478 C1482 1.350 . S
C1479 C1482 1.463 . S
C1479 C1484 1.350 . S
C1479 N1487 1.427 . S
C1480 H1471 0.930 . S
C1480 C1478 1.378 . S
C1480 C1481 1.367 . S
C1481 C1480 1.367 . S
C1481 C1483 1.433 . S
C1482 C1478 1.350 . S
C1482 C1479 1.463 . S
C1482 N1486 1.427 . S
C1483 H1473 0.929 . S
C1483 C1481 1.433 . S
C1483 N1486 1.384 . S
C1484 H1475 0.929 . S
C1484 C1476 1.378 . S
C1484 C1479 1.350 . S
C1485 H1472 0.929 . S
C1485 C1477 1.433 . S
C1485 N1487 1.384 . S
N1486 C1482 1.427 . S
N1486 C1483 1.384 . S
N1487 C1479 1.427 . S
N1487 C1485 1.384 . S
H1488 C1494 0.930 . S
H1489 C1498 0.930 . S
H1490 C1503 0.929 . S
H1491 C1501 0.929 . S
H1492 C1496 0.929 . S
H1493 C1502 0.929 . S
C1494 H1488 0.930 . S
C1494 C1495 1.367 . S
C1494 C1502 1.378 . S
C1495 C1494 1.367 . S
C1495 C1503 1.433 . S
C1496 H1492 0.929 . S
C1496 C1498 1.378 . S
C1496 C1500 1.350 . S
C1497 C1500 1.463 . S
C1497 C1502 1.350 . S
C1497 N1505 1.427 . S
C1498 H1489 0.930 . S
C1498 C1496 1.378 . S
C1498 C1499 1.367 . S
C1499 C1498 1.367 . S
C1499 C1501 1.433 . S
C1500 C1496 1.350 . S
C1500 C1497 1.463 . S
C1500 N1504 1.427 . S
C1501 H1491 0.929 . S
C1501 C1499 1.433 . S
C1501 N1504 1.384 . S
C1502 H1493 0.929 . S
C1502 C1494 1.378 . S
C1502 C1497 1.350 . S
C1503 H1490 0.929 . S
C1503 C1495 1.433 . S
C1503 N1505 1.384 . S
N1504 C1500 1.427 . S
N1504 C1501 1.384 . S
N1505 C1497 1.427 . S
N1505 C1503 1.384 . S
H1506 C1512 0.930 . S
H1507 C1516 0.930 . S
H1508 C1521 0.929 . S
H1509 C1519 0.929 . S
H1510 C1514 0.929 . S
H1511 C1520 0.929 . S
C1512 H1506 0.930 . S
C1512 C1513 1.367 . S
C1512 C1520 1.378 . S
C1513 C1512 1.367 . S
C1513 C1521 1.433 . S
C1514 H1510 0.929 . S
C1514 C1516 1.378 . S
C1514 C1518 1.350 . S
C1515 C1518 1.463 . S
C1515 C1520 1.350 . S
C1515 N1523 1.427 . S
C1516 H1507 0.930 . S
C1516 C1514 1.378 . S
C1516 C1517 1.367 . S
C1517 C1516 1.367 . S
C1517 C1519 1.433 . S
C1518 C1514 1.350 . S
C1518 C1515 1.463 . S
C1518 N1522 1.427 . S
C1519 H1509 0.929 . S
C1519 C1517 1.433 . S
C1519 N1522 1.384 . S
C1520 H1511 0.929 . S
C1520 C1512 1.378 . S
C1520 C1515 1.350 . S
C1521 H1508 0.929 . S
C1521 C1513 1.433 . S
C1521 N1523 1.384 . S
N1522 C1518 1.427 . S
N1522 C1519 1.384 . S
N1523 C1515 1.427 . S
N1523 C1521 1.384 . S
H1524 C1530 0.930 . S
H1525 C1534 0.930 . S
H1526 C1539 0.929 . S
H1527 C1537 0.929 . S
H1528 C1532 0.929 . S
H1529 C1538 0.929 . S
C1530 H1524 0.930 . S
C1530 C1531 1.367 . S
C1530 C1538 1.378 . S
C1531 C1530 1.367 . S
C1531 C1539 1.433 . S
C1532 H1528 0.929 . S
C1532 C1534 1.378 . S
C1532 C1536 1.350 . S
C1533 C1536 1.463 . S
C1533 C1538 1.350 . S
C1533 N1541 1.427 . S
C1534 H1525 0.930 . S
C1534 C1532 1.378 . S
C1534 C1535 1.367 . S
C1535 C1534 1.367 . S
C1535 C1537 1.433 . S
C1536 C1532 1.350 . S
C1536 C1533 1.463 . S
C1536 N1540 1.427 . S
C1537 H1527 0.929 . S
C1537 C1535 1.433 . S
C1537 N1540 1.384 . S
C1538 H1529 0.929 . S
C1538 C1530 1.378 . S
C1538 C1533 1.350 . S
C1539 H1526 0.929 . S
C1539 C1531 1.433 . S
C1539 N1541 1.384 . S
N1540 C1536 1.427 . S
N1540 C1537 1.384 . S
N1541 C1533 1.427 . S
N1541 C1539 1.384 . S
H1542 C1548 0.930 . S
H1543 C1552 0.930 . S
H1544 C1557 0.929 . S
H1545 C1555 0.929 . S
H1546 C1550 0.929 . S
H1547 C1556 0.929 . S
C1548 H1542 0.930 . S
C1548 C1549 1.367 . S
C1548 C1556 1.378 . S
C1549 C1548 1.367 . S
C1549 C1557 1.433 . S
C1550 H1546 0.929 . S
C1550 C1552 1.378 . S
C1550 C1554 1.350 . S
C1551 C1554 1.463 . S
C1551 C1556 1.350 . S
C1551 N1559 1.427 . S
C1552 H1543 0.930 . S
C1552 C1550 1.378 . S
C1552 C1553 1.367 . S
C1553 C1552 1.367 . S
C1553 C1555 1.433 . S
C1554 C1550 1.350 . S
C1554 C1551 1.463 . S
C1554 N1558 1.427 . S
C1555 H1545 0.929 . S
C1555 C1553 1.433 . S
C1555 N1558 1.384 . S
C1556 H1547 0.929 . S
C1556 C1548 1.378 . S
C1556 C1551 1.350 . S
C1557 H1544 0.929 . S
C1557 C1549 1.433 . S
C1557 N1559 1.384 . S
N1558 C1554 1.427 . S
N1558 C1555 1.384 . S
N1559 C1551 1.427 . S
N1559 C1557 1.384 . S
H1560 C1566 0.930 . S
H1561 C1570 0.930 . S
H1562 C1575 0.929 . S
H1563 C1573 0.929 . S
H1564 C1568 0.929 . S
H1565 C1574 0.929 . S
C1566 H1560 0.930 . S
C1566 C1567 1.367 . S
C1566 C1574 1.378 . S
C1567 C1566 1.367 . S
C1567 C1575 1.433 . S
C1568 H1564 0.929 . S
C1568 C1570 1.378 . S
C1568 C1572 1.350 . S
C1569 C1572 1.463 . S
C1569 C1574 1.350 . S
C1569 N1577 1.427 . S
C1570 H1561 0.930 . S
C1570 C1568 1.378 . S
C1570 C1571 1.367 . S
C1571 C1570 1.367 . S
C1571 C1573 1.433 . S
C1572 C1568 1.350 . S
C1572 C1569 1.463 . S
C1572 N1576 1.427 . S
C1573 H1563 0.929 . S
C1573 C1571 1.433 . S
C1573 N1576 1.384 . S
C1574 H1565 0.929 . S
C1574 C1566 1.378 . S
C1574 C1569 1.350 . S
C1575 H1562 0.929 . S
C1575 C1567 1.433 . S
C1575 N1577 1.384 . S
N1576 C1572 1.427 . S
N1576 C1573 1.384 . S
N1577 C1569 1.427 . S
N1577 C1575 1.384 . S
H1578 C1584 0.930 . S
H1579 C1588 0.930 . S
H1580 C1593 0.929 . S
H1581 C1591 0.929 . S
H1582 C1586 0.929 . S
H1583 C1592 0.929 . S
C1584 H1578 0.930 . S
C1584 C1585 1.367 . S
C1584 C1592 1.378 . S
C1585 C1584 1.367 . S
C1585 C1593 1.433 . S
C1586 H1582 0.929 . S
C1586 C1588 1.378 . S
C1586 C1590 1.350 . S
C1587 C1590 1.463 . S
C1587 C1592 1.350 . S
C1587 N1595 1.427 . S
C1588 H1579 0.930 . S
C1588 C1586 1.378 . S
C1588 C1589 1.367 . S
C1589 C1588 1.367 . S
C1589 C1591 1.433 . S
C1590 C1586 1.350 . S
C1590 C1587 1.463 . S
C1590 N1594 1.427 . S
C1591 H1581 0.929 . S
C1591 C1589 1.433 . S
C1591 N1594 1.384 . S
C1592 H1583 0.929 . S
C1592 C1584 1.378 . S
C1592 C1587 1.350 . S
C1593 H1580 0.929 . S
C1593 C1585 1.433 . S
C1593 N1595 1.384 . S
N1594 C1590 1.427 . S
N1594 C1591 1.384 . S
N1595 C1587 1.427 . S
N1595 C1593 1.384 . S
H1596 C1602 0.930 . S
H1597 C1606 0.930 . S
H1598 C1611 0.929 . S
H1599 C1609 0.929 . S
H1600 C1604 0.929 . S
H1601 C1610 0.929 . S
C1602 H1596 0.930 . S
C1602 C1603 1.367 . S
C1602 C1610 1.378 . S
C1603 C1602 1.367 . S
C1603 C1611 1.433 . S
C1604 H1600 0.929 . S
C1604 C1606 1.378 . S
C1604 C1608 1.350 . S
C1605 C1608 1.463 . S
C1605 C1610 1.350 . S
C1605 N1613 1.427 . S
C1606 H1597 0.930 . S
C1606 C1604 1.378 . S
C1606 C1607 1.367 . S
C1607 C1606 1.367 . S
C1607 C1609 1.433 . S
C1608 C1604 1.350 . S
C1608 C1605 1.463 . S
C1608 N1612 1.427 . S
C1609 H1599 0.929 . S
C1609 C1607 1.433 . S
C1609 N1612 1.384 . S
C1610 H1601 0.929 . S
C1610 C1602 1.378 . S
C1610 C1605 1.350 . S
C1611 H1598 0.929 . S
C1611 C1603 1.433 . S
C1611 N1613 1.384 . S
N1612 C1608 1.427 . S
N1612 C1609 1.384 . S
N1613 C1605 1.427 . S
N1613 C1611 1.384 . S
H1614 C1620 0.930 . S
H1615 C1624 0.930 . S
H1616 C1629 0.929 . S
H1617 C1627 0.929 . S
H1618 C1622 0.929 . S
H1619 C1628 0.929 . S
C1620 H1614 0.930 . S
C1620 C1621 1.367 . S
C1620 C1628 1.378 . S
C1621 C1620 1.367 . S
C1621 C1629 1.433 . S
C1622 H1618 0.929 . S
C1622 C1624 1.378 . S
C1622 C1626 1.350 . S
C1623 C1626 1.463 . S
C1623 C1628 1.350 . S
C1623 N1631 1.427 . S
C1624 H1615 0.930 . S
C1624 C1622 1.378 . S
C1624 C1625 1.367 . S
C1625 C1624 1.367 . S
C1625 C1627 1.433 . S
C1626 C1622 1.350 . S
C1626 C1623 1.463 . S
C1626 N1630 1.427 . S
C1627 H1617 0.929 . S
C1627 C1625 1.433 . S
C1627 N1630 1.384 . S
C1628 H1619 0.929 . S
C1628 C1620 1.378 . S
C1628 C1623 1.350 . S
C1629 H1616 0.929 . S
C1629 C1621 1.433 . S
C1629 N1631 1.384 . S
N1630 C1626 1.427 . S
N1630 C1627 1.384 . S
N1631 C1623 1.427 . S
N1631 C1629 1.384 . S
H1632 C1638 0.930 . S
H1633 C1642 0.930 . S
H1634 C1647 0.929 . S
H1635 C1645 0.929 . S
H1636 C1640 0.929 . S
H1637 C1646 0.929 . S
C1638 H1632 0.930 . S
C1638 C1639 1.367 . S
C1638 C1646 1.378 . S
C1639 C1638 1.367 . S
C1639 C1647 1.433 . S
C1640 H1636 0.929 . S
C1640 C1642 1.378 . S
C1640 C1644 1.350 . S
C1641 C1644 1.463 . S
C1641 C1646 1.350 . S
C1641 N1649 1.427 . S
C1642 H1633 0.930 . S
C1642 C1640 1.378 . S
C1642 C1643 1.367 . S
C1643 C1642 1.367 . S
C1643 C1645 1.433 . S
C1644 C1640 1.350 . S
C1644 C1641 1.463 . S
C1644 N1648 1.427 . S
C1645 H1635 0.929 . S
C1645 C1643 1.433 . S
C1645 N1648 1.384 . S
C1646 H1637 0.929 . S
C1646 C1638 1.378 . S
C1646 C1641 1.350 . S
C1647 H1634 0.929 . S
C1647 C1639 1.433 . S
C1647 N1649 1.384 . S
N1648 C1644 1.427 . S
N1648 C1645 1.384 . S
N1649 C1641 1.427 . S
N1649 C1647 1.384 . S
H1650 C1656 0.930 . S
H1651 C1660 0.930 . S
H1652 C1665 0.929 . S
H1653 C1663 0.929 . S
H1654 C1658 0.929 . S
H1655 C1664 0.929 . S
C1656 H1650 0.930 . S
C1656 C1657 1.367 . S
C1656 C1664 1.378 . S
C1657 C1656 1.367 . S
C1657 C1665 1.433 . S
C1658 H1654 0.929 . S
C1658 C1660 1.378 . S
C1658 C1662 1.350 . S
C1659 C1662 1.463 . S
C1659 C1664 1.350 . S
C1659 N1667 1.427 . S
C1660 H1651 0.930 . S
C1660 C1658 1.378 . S
C1660 C1661 1.367 . S
C1661 C1660 1.367 . S
C1661 C1663 1.433 . S
C1662 C1658 1.350 . S
C1662 C1659 1.463 . S
C1662 N1666 1.427 . S
C1663 H1653 0.929 . S
C1663 C1661 1.433 . S
C1663 N1666 1.384 . S
C1664 H1655 0.929 . S
C1664 C1656 1.378 . S
C1664 C1659 1.350 . S
C1665 H1652 0.929 . S
C1665 C1657 1.433 . S
C1665 N1667 1.384 . S
N1666 C1662 1.427 . S
N1666 C1663 1.384 . S
N1667 C1659 1.427 . S
N1667 C1665 1.384 . S
H1668 C1674 0.930 . S
H1669 C1678 0.930 . S
H1670 C1683 0.929 . S
H1671 C1681 0.929 . S
H1672 C1676 0.929 . S
H1673 C1682 0.929 . S
C1674 H1668 0.930 . S
C1674 C1675 1.367 . S
C1674 C1682 1.378 . S
C1675 C1674 1.367 . S
C1675 C1683 1.433 . S
C1676 H1672 0.929 . S
C1676 C1678 1.378 . S
C1676 C1680 1.350 . S
C1677 C1680 1.463 . S
C1677 C1682 1.350 . S
C1677 N1685 1.427 . S
C1678 H1669 0.930 . S
C1678 C1676 1.378 . S
C1678 C1679 1.367 . S
C1679 C1678 1.367 . S
C1679 C1681 1.433 . S
C1680 C1676 1.350 . S
C1680 C1677 1.463 . S
C1680 N1684 1.427 . S
C1681 H1671 0.929 . S
C1681 C1679 1.433 . S
C1681 N1684 1.384 . S
C1682 H1673 0.929 . S
C1682 C1674 1.378 . S
C1682 C1677 1.350 . S
C1683 H1670 0.929 . S
C1683 C1675 1.433 . S
C1683 N1685 1.384 . S
N1684 C1680 1.427 . S
N1684 C1681 1.384 . S
N1685 C1677 1.427 . S
N1685 C1683 1.384 . S
H1686 C1692 0.930 . S
H1687 C1696 0.930 . S
H1688 C1701 0.929 . S
H1689 C1699 0.929 . S
H1690 C1694 0.929 . S
H1691 C1700 0.929 . S
C1692 H1686 0.930 . S
C1692 C1693 1.367 . S
C1692 C1700 1.378 . S
C1693 C1692 1.367 . S
C1693 C1701 1.433 . S
C1694 H1690 0.929 . S
C1694 C1696 1.378 . S
C1694 C1698 1.350 . S
C1695 C1698 1.463 . S
C1695 C1700 1.350 . S
C1695 N1703 1.427 . S
C1696 H1687 0.930 . S
C1696 C1694 1.378 . S
C1696 C1697 1.367 . S
C1697 C1696 1.367 . S
C1697 C1699 1.433 . S
C1698 C1694 1.350 . S
C1698 C1695 1.463 . S
C1698 N1702 1.427 . S
C1699 H1689 0.929 . S
C1699 C1697 1.433 . S
C1699 N1702 1.384 . S
C1700 H1691 0.929 . S
C1700 C1692 1.378 . S
C1700 C1695 1.350 . S
C1701 H1688 0.929 . S
C1701 C1693 1.433 . S
C1701 N1703 1.384 . S
N1702 C1698 1.427 . S
N1702 C1699 1.384 . S
N1703 C1695 1.427 . S
N1703 C1701 1.384 . S
H1704 C1710 0.930 . S
H1705 C1714 0.930 . S
H1706 C1719 0.929 . S
H1707 C1717 0.929 . S
H1708 C1712 0.929 . S
H1709 C1718 0.929 . S
C1710 H1704 0.930 . S
C1710 C1711 1.367 . S
C1710 C1718 1.378 . S
C1711 C1710 1.367 . S
C1711 C1719 1.433 . S
C1712 H1708 0.929 . S
C1712 C1714 1.378 . S
C1712 C1716 1.350 . S
C1713 C1716 1.463 . S
C1713 C1718 1.350 . S
C1713 N1721 1.427 . S
C1714 H1705 0.930 . S
C1714 C1712 1.378 . S
C1714 C1715 1.367 . S
C1715 C1714 1.367 . S
C1715 C1717 1.433 . S
C1716 C1712 1.350 . S
C1716 C1713 1.463 . S
C1716 N1720 1.427 . S
C1717 H1707 0.929 . S
C1717 C1715 1.433 . S
C1717 N1720 1.384 . S
C1718 H1709 0.929 . S
C1718 C1710 1.378 . S
C1718 C1713 1.350 . S
C1719 H1706 0.929 . S
C1719 C1711 1.433 . S
C1719 N1721 1.384 . S
N1720 C1716 1.427 . S
N1720 C1717 1.384 . S
N1721 C1713 1.427 . S
N1721 C1719 1.384 . S
H1722 C1728 0.930 . S
H1723 C1732 0.930 . S
H1724 C1737 0.929 . S
H1725 C1735 0.929 . S
H1726 C1730 0.929 . S
H1727 C1736 0.929 . S
C1728 H1722 0.930 . S
C1728 C1729 1.367 . S
C1728 C1736 1.378 . S
C1729 C1728 1.367 . S
C1729 C1737 1.433 . S
C1730 H1726 0.929 . S
C1730 C1732 1.378 . S
C1730 C1734 1.350 . S
C1731 C1734 1.463 . S
C1731 C1736 1.350 . S
C1731 N1739 1.427 . S
C1732 H1723 0.930 . S
C1732 C1730 1.378 . S
C1732 C1733 1.367 . S
C1733 C1732 1.367 . S
C1733 C1735 1.433 . S
C1734 C1730 1.350 . S
C1734 C1731 1.463 . S
C1734 N1738 1.427 . S
C1735 H1725 0.929 . S
C1735 C1733 1.433 . S
C1735 N1738 1.384 . S
C1736 H1727 0.929 . S
C1736 C1728 1.378 . S
C1736 C1731 1.350 . S
C1737 H1724 0.929 . S
C1737 C1729 1.433 . S
C1737 N1739 1.384 . S
N1738 C1734 1.427 . S
N1738 C1735 1.384 . S
N1739 C1731 1.427 . S
N1739 C1737 1.384 . S
H1740 C1746 0.930 . S
H1741 C1750 0.930 . S
H1742 C1755 0.929 . S
H1743 C1753 0.929 . S
H1744 C1748 0.929 . S
H1745 C1754 0.929 . S
C1746 H1740 0.930 . S
C1746 C1747 1.367 . S
C1746 C1754 1.378 . S
C1747 C1746 1.367 . S
C1747 C1755 1.433 . S
C1748 H1744 0.929 . S
C1748 C1750 1.378 . S
C1748 C1752 1.350 . S
C1749 C1752 1.463 . S
C1749 C1754 1.350 . S
C1749 N1757 1.427 . S
C1750 H1741 0.930 . S
C1750 C1748 1.378 . S
C1750 C1751 1.367 . S
C1751 C1750 1.367 . S
C1751 C1753 1.433 . S
C1752 C1748 1.350 . S
C1752 C1749 1.463 . S
C1752 N1756 1.427 . S
C1753 H1743 0.929 . S
C1753 C1751 1.433 . S
C1753 N1756 1.384 . S
C1754 H1745 0.929 . S
C1754 C1746 1.378 . S
C1754 C1749 1.350 . S
C1755 H1742 0.929 . S
C1755 C1747 1.433 . S
C1755 N1757 1.384 . S
N1756 C1752 1.427 . S
N1756 C1753 1.384 . S
N1757 C1749 1.427 . S
N1757 C1755 1.384 . S
H1758 C1764 0.930 . S
H1759 C1768 0.930 . S
H1760 C1773 0.929 . S
H1761 C1771 0.929 . S
H1762 C1766 0.929 . S
H1763 C1772 0.929 . S
C1764 H1758 0.930 . S
C1764 C1765 1.367 . S
C1764 C1772 1.378 . S
C1765 C1764 1.367 . S
C1765 C1773 1.433 . S
C1766 H1762 0.929 . S
C1766 C1768 1.378 . S
C1766 C1770 1.350 . S
C1767 C1770 1.463 . S
C1767 C1772 1.350 . S
C1767 N1775 1.427 . S
C1768 H1759 0.930 . S
C1768 C1766 1.378 . S
C1768 C1769 1.367 . S
C1769 C1768 1.367 . S
C1769 C1771 1.433 . S
C1770 C1766 1.350 . S
C1770 C1767 1.463 . S
C1770 N1774 1.427 . S
C1771 H1761 0.929 . S
C1771 C1769 1.433 . S
C1771 N1774 1.384 . S
C1772 H1763 0.929 . S
C1772 C1764 1.378 . S
C1772 C1767 1.350 . S
C1773 H1760 0.929 . S
C1773 C1765 1.433 . S
C1773 N1775 1.384 . S
N1774 C1770 1.427 . S
N1774 C1771 1.384 . S
N1775 C1767 1.427 . S
N1775 C1773 1.384 . S
H1776 C1782 0.930 . S
H1777 C1786 0.930 . S
H1778 C1791 0.929 . S
H1779 C1789 0.929 . S
H1780 C1784 0.929 . S
H1781 C1790 0.929 . S
C1782 H1776 0.930 . S
C1782 C1783 1.367 . S
C1782 C1790 1.378 . S
C1783 C1782 1.367 . S
C1783 C1791 1.433 . S
C1784 H1780 0.929 . S
C1784 C1786 1.378 . S
C1784 C1788 1.350 . S
C1785 C1788 1.463 . S
C1785 C1790 1.350 . S
C1785 N1793 1.427 . S
C1786 H1777 0.930 . S
C1786 C1784 1.378 . S
C1786 C1787 1.367 . S
C1787 C1786 1.367 . S
C1787 C1789 1.433 . S
C1788 C1784 1.350 . S
C1788 C1785 1.463 . S
C1788 N1792 1.427 . S
C1789 H1779 0.929 . S
C1789 C1787 1.433 . S
C1789 N1792 1.384 . S
C1790 H1781 0.929 . S
C1790 C1782 1.378 . S
C1790 C1785 1.350 . S
C1791 H1778 0.929 . S
C1791 C1783 1.433 . S
C1791 N1793 1.384 . S
N1792 C1788 1.427 . S
N1792 C1789 1.384 . S
N1793 C1785 1.427 . S
N1793 C1791 1.384 . S
H1794 C1800 0.930 . S
H1795 C1804 0.930 . S
H1796 C1809 0.929 . S
H1797 C1807 0.929 . S
H1798 C1802 0.929 . S
H1799 C1808 0.929 . S
C1800 H1794 0.930 . S
C1800 C1801 1.367 . S
C1800 C1808 1.378 . S
C1801 C1800 1.367 . S
C1801 C1809 1.433 . S
C1802 H1798 0.929 . S
C1802 C1804 1.378 . S
C1802 C1806 1.350 . S
C1803 C1806 1.463 . S
C1803 C1808 1.350 . S
C1803 N1811 1.427 . S
C1804 H1795 0.930 . S
C1804 C1802 1.378 . S
C1804 C1805 1.367 . S
C1805 C1804 1.367 . S
C1805 C1807 1.433 . S
C1806 C1802 1.350 . S
C1806 C1803 1.463 . S
C1806 N1810 1.427 . S
C1807 H1797 0.929 . S
C1807 C1805 1.433 . S
C1807 N1810 1.384 . S
C1808 H1799 0.929 . S
C1808 C1800 1.378 . S
C1808 C1803 1.350 . S
C1809 H1796 0.929 . S
C1809 C1801 1.433 . S
C1809 N1811 1.384 . S
N1810 C1806 1.427 . S
N1810 C1807 1.384 . S
N1811 C1803 1.427 . S
N1811 C1809 1.384 . S
C959 C334 1.191 . S
C955 N2 1.329 . S
C977 C434 2.148 . S
C973 C7 2.154 . S
C995 C514 1.182 . S
C991 N12 1.379 . S
C1009 C16 1.928 . S
C1013 C591 1.958 . S
C1031 C675 2.187 . S
C1027 C30 2.197 1_565 S
C1049 C754 1.087 . S
C1045 N35 1.271 . S
C1063 C39 2.046 . S
C1067 C854 2.032 . S
C1085 C934 1.157 . S
C1081 N25 1.209 . S
C1103 C332 1.102 . S
C1099 N58 1.117 . S
C1117 N81 1.867 . S
C1121 C427 1.871 . S
C1139 C518 1.183 . S
C1135 N104 1.125 . S
C1153 N127 1.164 . S
C1157 C586 0.953 . S
C1175 C670 0.763 . S
C1171 N48 0.860 . S
C1193 C752 1.458 . S
C1189 N71 1.409 1_556 S
C1207 N94 1.421 . S
C1211 C847 1.435 . S
C1229 C938 1.539 . S
C1225 N117 1.513 . S
C1243 C85 2.120 . S
C1247 C339 2.126 . S
C1261 C122 2.381 . S
C1265 C668 2.346 . S
C1279 C53 1.768 . S
C1283 C759 1.814 . S
C1301 C850 1.228 . S
C1297 C76 1.489 1_655 S
C1319 C931 1.742 . S
C1315 C99 1.833 . S
C1337 C511 1.917 . S
C1333 C131 1.945 . S
C1355 C584 1.920 . S
C1351 C62 1.969 . S
C1369 C108 1.174 . S
C1373 C430 1.003 . S
C1391 C922 1.204 . S
C1387 N140 1.380 . S
C1405 C145 2.146 . S
C1409 C686 2.137 . S
C1427 C766 1.141 . S
C1423 N150 1.273 . S
C1441 C154 1.934 . S
C1445 C843 1.965 . S
C1463 C423 2.180 . S
C1459 C168 2.191 . S
C1477 N173 1.160 . S
C1481 C502 1.033 . S
C1499 C602 2.036 . S
C1495 C177 2.048 . S
C1517 C346 1.140 . S
C1513 N163 1.223 . S
C1535 C920 1.527 . S
C1531 C200 1.569 . S
C1553 C679 2.171 . S
C1549 N219 2.165 . S
C1567 N242 1.381 . S
C1571 C770 1.467 . S
C1589 C838 1.157 . S
C1585 C269 1.467 . S
C1607 C418 0.949 . S
C1603 C191 1.143 . S
C1621 N209 1.680 . S
C1625 C500 1.727 . S
C1639 N232 1.734 . S
C1643 C595 1.755 . S
C1657 C260 2.026 . S
C1661 C350 2.019 . S
C1675 C223 1.797 . S
C1679 C927 1.802 . S
C1693 N255 1.961 . S
C1697 C416 1.951 . S
C1711 N186 1.367 . S
C1715 C507 1.424 . S
C1733 C598 0.996 . S
C1729 C214 1.166 . S
C1751 C343 1.447 . S
C1747 C237 1.505 . S
C1769 C763 1.507 . S
C1765 N265 1.462 . S
C1787 C836 1.535 . S
C1783 N196 1.532 . S
C1805 C682 0.821 . S
C1801 C246 0.858 . S
