# Generated by pormake.
# Topology zzz, (3,6)-cn, num edge types: 1
# Building blocks:
#     Node 0, Type 0, BuildingBlock: OLANEW_clean_sbu_2, # of connection points: 3
#     Node 1, Type 0, BuildingBlock: OLANEW_clean_sbu_2, # of connection points: 3
#     Node 2, Type 0, BuildingBlock: OLANEW_clean_sbu_2, # of connection points: 3
#     Node 3, Type 0, BuildingBlock: OLANEW_clean_sbu_2, # of connection points: 3
#     Node 4, Type 0, BuildingBlock: OLANEW_clean_sbu_2, # of connection points: 3
#     Node 5, Type 0, BuildingBlock: OLANEW_clean_sbu_2, # of connection points: 3
#     Node 6, Type 0, BuildingBlock: OLANEW_clean_sbu_2, # of connection points: 3
#     Node 7, Type 0, BuildingBlock: OLANEW_clean_sbu_2, # of connection points: 3
#     Node 8, Type 1, BuildingBlock: BETDAH_clean_sbu_0, # of connection points: 6
#     Node 9, Type 1, BuildingBlock: BETDAH_clean_sbu_0, # of connection points: 6
#     Node 10, Type 1, BuildingBlock: BETDAH_clean_sbu_0, # of connection points: 6
#     Node 11, Type 1, BuildingBlock: BETDAH_clean_sbu_0, # of connection points: 6
#     Edge 12, Type (0, 1), BuildingBlock: MIFKUJ_clean_linker_0, # of connection points: 2
#     Edge 13, Type (0, 1), BuildingBlock: MIFKUJ_clean_linker_0, # of connection points: 2
#     Edge 14, Type (0, 1), BuildingBlock: MIFKUJ_clean_linker_0, # of connection points: 2
#     Edge 15, Type (0, 1), BuildingBlock: MIFKUJ_clean_linker_0, # of connection points: 2
#     Edge 16, Type (0, 1), BuildingBlock: MIFKUJ_clean_linker_0, # of connection points: 2
#     Edge 17, Type (0, 1), BuildingBlock: MIFKUJ_clean_linker_0, # of connection points: 2
#     Edge 18, Type (0, 1), BuildingBlock: MIFKUJ_clean_linker_0, # of connection points: 2
#     Edge 19, Type (0, 1), BuildingBlock: MIFKUJ_clean_linker_0, # of connection points: 2
#     Edge 20, Type (0, 1), BuildingBlock: MIFKUJ_clean_linker_0, # of connection points: 2
#     Edge 21, Type (0, 1), BuildingBlock: MIFKUJ_clean_linker_0, # of connection points: 2
#     Edge 22, Type (0, 1), BuildingBlock: MIFKUJ_clean_linker_0, # of connection points: 2
#     Edge 23, Type (0, 1), BuildingBlock: MIFKUJ_clean_linker_0, # of connection points: 2
#     Edge 24, Type (0, 1), BuildingBlock: MIFKUJ_clean_linker_0, # of connection points: 2
#     Edge 25, Type (0, 1), BuildingBlock: MIFKUJ_clean_linker_0, # of connection points: 2
#     Edge 26, Type (0, 1), BuildingBlock: MIFKUJ_clean_linker_0, # of connection points: 2
#     Edge 27, Type (0, 1), BuildingBlock: MIFKUJ_clean_linker_0, # of connection points: 2
#     Edge 28, Type (0, 1), BuildingBlock: MIFKUJ_clean_linker_0, # of connection points: 2
#     Edge 29, Type (0, 1), BuildingBlock: MIFKUJ_clean_linker_0, # of connection points: 2
#     Edge 30, Type (0, 1), BuildingBlock: MIFKUJ_clean_linker_0, # of connection points: 2
#     Edge 31, Type (0, 1), BuildingBlock: MIFKUJ_clean_linker_0, # of connection points: 2
#     Edge 32, Type (0, 1), BuildingBlock: MIFKUJ_clean_linker_0, # of connection points: 2
#     Edge 33, Type (0, 1), BuildingBlock: MIFKUJ_clean_linker_0, # of connection points: 2
#     Edge 34, Type (0, 1), BuildingBlock: MIFKUJ_clean_linker_0, # of connection points: 2
#     Edge 35, Type (0, 1), BuildingBlock: MIFKUJ_clean_linker_0, # of connection points: 2
# Relax obj value: 0.219
# Max RMSD: 0.179
# Mean RMSD: 0.170
data_MOF--net-zzz--node1-OLANEW_clean_sbu_2--node2-BETDAH_clean_sbu_0--edge1-MIFKUJ_clean_linker_0
_symmetry_space_group_name_H-M    P1
_symmetry_Int_Tables_number       1
_symmetry_cell_setting            triclinic
loop_
_symmetry_equiv_pos_as_xyz
'x, y, z'
_cell_length_a     71.938074
_cell_length_b     71.903476
_cell_length_c     19.131716
_cell_angle_alpha  90.111801
_cell_angle_beta   90.03805
_cell_angle_gamma 89.993929
loop_
_atom_site_label
_atom_site_type_symbol
_atom_site_fract_x
_atom_site_fract_y
_atom_site_fract_z
_atom_type_partial_charge
O0 O 0.73881 0.54698 0.23055 0.0
Cd1 Cd 0.70824 0.54759 0.28595 0.0
O2 O 0.73886 0.51743 0.25889 0.0
Cd3 Cd 0.75309 0.49059 0.2621 0.0
O4 O 0.77951 0.47761 0.28767 0.0
C5 C 0.78286 0.47531 0.35221 0.0
O6 O 0.76945 0.4784 0.39739 0.0
C7 C 0.74714 0.53143 0.23277 0.0
C8 C 0.68001 0.53751 0.19413 0.0
O9 O 0.68348 0.55467 0.20681 0.0
O10 O 0.68989 0.52514 0.22479 0.0
O11 O 0.96521 0.74007 0.18056 0.0
Cd12 Cd 0.95648 0.71083 0.23669 0.0
O13 O 0.98678 0.74272 0.26097 0.0
Cd14 Cd 0.00562 0.76067 0.31876 0.0
O15 O 0.01007 0.78653 0.3752 0.0
C16 C 0.99685 0.79817 0.37002 0.0
O17 O 0.98215 0.79367 0.33293 0.0
C18 C 0.97838 0.74929 0.20808 0.0
C19 C 0.96477 0.67929 0.15797 0.0
O20 O 0.9492 0.68776 0.15094 0.0
O21 O 0.97655 0.68589 0.20177 0.0
O22 O 0.76947 0.9704 0.19318 0.0
Cd23 Cd 0.79488 0.96005 0.26848 0.0
O24 O 0.76443 0.98586 0.28891 0.0
Cd25 Cd 0.75129 0.00233 0.37069 0.0
O26 O 0.72773 0.00057 0.44088 0.0
C27 C 0.72062 0.98442 0.44459 0.0
O28 O 0.7284 0.97075 0.40951 0.0
C29 C 0.75924 0.98157 0.22723 0.0
C30 C 0.82971 0.96603 0.2113 0.0
O31 O 0.82225 0.94985 0.20953 0.0
O32 O 0.82066 0.97938 0.23981 0.0
O33 O 0.48407 0.77491 0.21212 0.0
Cd34 Cd 0.47768 0.80321 0.27881 0.0
O35 O 0.48701 0.76326 0.31673 0.0
Cd36 Cd 0.49385 0.74197 0.39303 0.0
O37 O 0.50464 0.72174 0.46686 0.0
C38 C 0.52207 0.71918 0.47172 0.0
O39 O 0.53331 0.72915 0.43275 0.0
C40 C 0.48701 0.76092 0.25086 0.0
C41 C 0.48151 0.83538 0.20017 0.0
O42 O 0.4951 0.8292 0.23673 0.0
O43 O 0.46619 0.82628 0.20078 0.0
O44 O 0.27287 0.53228 0.08322 0.0
Cd45 Cd 0.30327 0.52803 0.0291 0.0
O46 O 0.26839 0.50333 0.05205 0.0
Cd47 Cd 0.25177 0.47806 0.04494 0.0
O48 O 0.2271 0.46351 0.00918 0.0
C49 C 0.22518 0.4619 0.94348 0.0
O50 O 0.23876 0.46748 0.90266 0.0
C51 C 0.26229 0.51818 0.08013 0.0
C52 C 0.33037 0.52077 0.12893 0.0
O53 O 0.32813 0.53721 0.10458 0.0
O54 O 0.31986 0.50775 0.10581 0.0
O55 O 0.98931 0.26902 0.01791 0.0
Cd56 Cd 0.99043 0.29988 0.96497 0.0
O57 O 0.01865 0.2652 0.99173 0.0
Cd58 Cd 0.04601 0.2519 0.98366 0.0
O59 O 0.07745 0.24774 0.98118 0.0
C60 C 0.08581 0.23325 0.95829 0.0
O61 O 0.07793 0.2483 0.98215 0.0
C62 C 0.00387 0.25903 0.01999 0.0
C63 C 0.99361 0.32732 0.06766 0.0
O64 O 0.97765 0.32175 0.04643 0.0
O65 O 0.00809 0.32 0.03992 0.0
O66 O 0.22435 0.96893 0.13221 0.0
Cd67 Cd 0.19457 0.96937 0.07121 0.0
O68 O 0.22867 0.99373 0.06885 0.0
Cd69 Cd 0.24276 0.0179 0.02438 0.0
O70 O 0.26645 0.03045 0.97182 0.0
C71 C 0.27558 0.01947 0.93266 0.0
O72 O 0.26947 0.00242 0.92338 0.0
C73 C 0.23485 0.98223 0.11391 0.0
C74 C 0.16824 0.98795 0.15127 0.0
O75 O 0.16898 0.97014 0.15034 0.0
O76 O 0.17982 0.99702 0.1136 0.0
O77 O 0.53888 0.23128 0.05106 0.0
Cd78 Cd 0.53739 0.20242 0.98406 0.0
O79 O 0.50855 0.22921 0.05574 0.0
Cd80 Cd 0.48102 0.24175 0.06638 0.0
O81 O 0.47181 0.26989 0.04425 0.0
C82 C 0.48347 0.27784 0.00447 0.0
O83 O 0.4976 0.26813 0.98074 0.0
C84 C 0.52341 0.23806 0.07042 0.0
C85 C 0.52577 0.17371 0.07034 0.0
O86 O 0.54308 0.17638 0.05807 0.0
O87 O 0.51393 0.18443 0.04069 0.0
Ho88 Ho 0.02093 0.00931 0.7889 0.0
Ho89 Ho 0.99929 0.02494 0.6615 0.0
C90 C 0.00587 0.9815 0.66658 0.0
C91 C 0.03109 0.98975 0.89531 0.0
C92 C 0.02629 0.97084 0.91848 0.0
C93 C 0.00871 0.96321 0.90392 0.0
C94 C 0.00448 0.94504 0.92419 0.0
C95 C 0.01782 0.93408 0.9586 0.0
C96 C 0.03543 0.94173 0.97272 0.0
C97 C 0.03959 0.95998 0.95298 0.0
C98 C 0.04182 0.023 0.68414 0.0
C99 C 0.01593 0.05285 0.78161 0.0
C100 C 0.98854 0.04202 0.54973 0.0
C101 C 0.99159 0.05953 0.51082 0.0
C102 C 0.00292 0.05948 0.45096 0.0
C103 C 0.00461 0.07541 0.40977 0.0
C104 C 0.99488 0.09171 0.42715 0.0
C105 C 0.98381 0.09188 0.48773 0.0
C106 C 0.98216 0.07596 0.5291 0.0
C107 C 0.97827 0.01 0.7633 0.0
O108 O 0.01054 0.98362 0.73307 0.0
O109 O 0.00255 0.99572 0.62498 0.0
O110 O 0.04079 0.99076 0.83766 0.0
O111 O 0.01766 0.00202 0.89762 0.0
O112 O 0.04669 0.02398 0.74948 0.0
O113 O 0.0271 0.01375 0.67836 0.0
O114 O 0.01072 0.05059 0.71552 0.0
O115 O 0.01869 0.03867 0.82425 0.0
O116 O 0.97956 0.0429 0.60925 0.0
O117 O 0.00243 0.03027 0.55127 0.0
O118 O 0.97379 0.00956 0.69763 0.0
O119 O 0.99268 0.01967 0.77182 0.0
H120 H 0.9983 0.97124 0.87632 0.0
H121 H 0.99093 0.93943 0.91171 0.0
H122 H 0.04593 0.93363 -0.00048 0.0
H123 H 0.05326 0.96557 0.96422 0.0
H124 H 0.01015 0.04696 0.43491 0.0
H125 H 0.01307 0.07475 0.363 0.0
H126 H 0.97632 0.10431 0.50294 0.0
H127 H 0.97322 0.07645 0.57459 0.0
Ho128 Ho 0.50595 0.02573 0.74841 0.0
Ho129 Ho 0.49097 0.01005 0.60863 0.0
C130 C 0.53371 0.00498 0.63824 0.0
C131 C 0.52331 0.03127 0.86518 0.0
C132 C 0.54268 0.02947 0.88949 0.0
C133 C 0.55454 0.01578 0.86191 0.0
C134 C 0.57279 0.01406 0.8863 0.0
C135 C 0.57961 0.02604 0.93868 0.0
C136 C 0.56772 0.03992 0.96537 0.0
C137 C 0.54945 0.04158 0.94104 0.0
C138 C 0.50338 0.04963 0.6409 0.0
C139 C 0.46294 0.02895 0.72357 0.0
C140 C 0.47417 0.0062 0.48986 0.0
C141 C 0.45469 0.00518 0.46443 0.0
C142 C 0.44578 0.02108 0.43779 0.0
C143 C 0.42764 0.01999 0.41155 0.0
C144 C 0.41801 0.00296 0.41103 0.0
C145 C 0.42692 0.98709 0.43781 0.0
C146 C 0.44504 0.98817 0.46395 0.0
C147 C 0.49362 0.9853 0.71306 0.0
O148 O 0.53021 0.00999 0.70345 0.0
O149 O 0.52123 0.00616 0.58775 0.0
O150 O 0.52009 0.04445 0.81978 0.0
O151 O 0.5147 0.01577 0.84964 0.0
O152 O 0.49937 0.0542 0.70481 0.0
O153 O 0.50897 0.03313 0.63796 0.0
O154 O 0.46618 0.02473 0.65718 0.0
O155 O 0.47584 0.02778 0.77245 0.0
O156 O 0.48016 0.99221 0.5273 0.0
O157 O 0.47996 0.02227 0.51383 0.0
O158 O 0.49572 0.98102 0.64766 0.0
O159 O 0.48852 0.00197 0.719 0.0
H160 H 0.54965 0.00624 0.82209 0.0
H161 H 0.5814 0.00306 0.86514 0.0
H162 H 0.57255 0.04957 0.0049 0.0
H163 H 0.54055 0.05231 0.9627 0.0
H164 H 0.45286 0.03437 0.43685 0.0
H165 H 0.42112 0.03252 0.39203 0.0
H166 H 0.42003 0.9737 0.43724 0.0
H167 H 0.45153 0.97558 0.48313 0.0
Ho168 Ho 0.49676 0.50363 0.75581 0.0
Ho169 Ho 0.50804 0.48862 0.61029 0.0
C170 C 0.51345 0.53184 0.63847 0.0
C171 C 0.49547 0.52126 0.87351 0.0
C172 C 0.49533 0.5411 0.8948 0.0
C173 C 0.51205 0.55077 0.90652 0.0
C174 C 0.51181 0.56941 0.92771 0.0
C175 C 0.49486 0.57876 0.93804 0.0
C176 C 0.47817 0.56911 0.92572 0.0
C177 C 0.4784 0.5505 0.90469 0.0
C178 C 0.46961 0.50188 0.65911 0.0
C179 C 0.49232 0.46054 0.73269 0.0
C180 C 0.50728 0.47278 0.48874 0.0
C181 C 0.50799 0.45387 0.45855 0.0
C182 C 0.49519 0.44888 0.4064 0.0
C183 C 0.49611 0.4314 0.37431 0.0
C184 C 0.50998 0.4186 0.39342 0.0
C185 C 0.52262 0.42351 0.44652 0.0
C186 C 0.52159 0.44093 0.47899 0.0
C187 C 0.53588 0.49094 0.7032 0.0
O188 O 0.51031 0.52824 0.7051 0.0
O189 O 0.51121 0.51917 0.58884 0.0
O190 O 0.48069 0.51512 0.84092 0.0
O191 O 0.51089 0.51483 0.84638 0.0
O192 O 0.46684 0.49869 0.72495 0.0
O193 O 0.48611 0.50683 0.64905 0.0
O194 O 0.49626 0.46322 0.66562 0.0
O195 O 0.4938 0.47374 0.78032 0.0
O196 O 0.52248 0.47908 0.51812 0.0
O197 O 0.49226 0.47714 0.52376 0.0
O198 O 0.53811 0.49294 0.63631 0.0
O199 O 0.51942 0.48605 0.71659 0.0
H200 H 0.52534 0.54392 0.90001 0.0
H201 H 0.52492 0.57633 0.93773 0.0
H202 H 0.46487 0.57595 0.93237 0.0
H203 H 0.46527 0.54346 0.89644 0.0
H204 H 0.48461 0.45865 0.38972 0.0
H205 H 0.48627 0.4281 0.33325 0.0
H206 H 0.53329 0.41384 0.46305 0.0
H207 H 0.53156 0.44434 0.5195 0.0
Ho208 Ho 0.99615 0.48447 0.73055 0.0
Ho209 Ho 0.0102 0.50411 0.59824 0.0
C210 C 0.96681 0.50031 0.61549 0.0
C211 C 0.97924 0.47648 0.84577 0.0
C212 C 0.96084 0.48073 0.87524 0.0
C213 C 0.95146 0.49716 0.85742 0.0
C214 C 0.93399 0.50101 0.88583 0.0
C215 C 0.92552 0.4885 0.93263 0.0
C216 C 0.93493 0.47191 0.94934 0.0
C217 C 0.95243 0.4681 0.92098 0.0
C218 C 0.00456 0.46186 0.62257 0.0
C219 C 0.03966 0.48577 0.70892 0.0
C220 C 0.02587 0.51434 0.48273 0.0
C221 C 0.0446 0.51464 0.45234 0.0
C222 C 0.06044 0.51259 0.49438 0.0
C223 C 0.07816 0.51272 0.46437 0.0
C224 C 0.08034 0.51506 0.39175 0.0
C225 C 0.06435 0.51722 0.35006 0.0
C226 C 0.04666 0.51695 0.38013 0.0
C227 C 0.00013 0.5263 0.70517 0.0
O228 O 0.97008 0.49667 0.68229 0.0
O229 O 0.98039 0.50148 0.56938 0.0
O230 O 0.97933 0.46547 0.7913 0.0
O231 O 0.99061 0.49058 0.83905 0.0
O232 O 0.00711 0.45735 0.68762 0.0
O233 O 0.99671 0.47745 0.6189 0.0
O234 O 0.03636 0.49174 0.64456 0.0
O235 O 0.02632 0.4837 0.7556 0.0
O236 O 0.02299 0.52553 0.53559 0.0
O237 O 0.01858 0.49787 0.49216 0.0
O238 O 0.99699 0.53026 0.64013 0.0
O239 O 0.00914 0.51136 0.70984 0.0
H240 H 0.95768 0.50709 0.82189 0.0
H241 H 0.92735 0.51402 0.87218 0.0
H242 H 0.92873 0.46175 0.98389 0.0
H243 H 0.9594 0.45526 0.93474 0.0
H244 H 0.05906 0.51092 0.55032 0.0
H245 H 0.09012 0.5108 0.49798 0.0
H246 H 0.06549 0.51937 0.29422 0.0
H247 H 0.03456 0.51863 0.34697 0.0
H248 H 0.13505 0.97496 0.19843 0.0
H249 H 0.11384 0.99016 0.2807 0.0
H250 H 0.15029 0.03767 0.29128 0.0
H251 H 0.17134 0.0228 0.20691 0.0
H252 H 0.13814 0.01481 0.42685 0.0
H253 H 0.1169 0.0506 0.23027 0.0
H254 H 0.10589 0.05497 0.10933 0.0
H255 H 0.05865 0.02022 0.15076 0.0
H256 H 0.06952 0.01541 0.2717 0.0
H257 H 0.07354 0.04405 0.68315 0.0
H258 H 0.09541 0.04763 0.5856 0.0
H259 H 0.0597 0.01389 0.4554 0.0
H260 H 0.03762 0.01113 0.55084 0.0
H261 H 0.07464 0.03828 0.37752 0.0
H262 H 0.09796 0.99592 0.55473 0.0
H263 H 0.10824 0.98727 0.67338 0.0
H264 H 0.15057 0.02934 0.66639 0.0
H265 H 0.14038 0.03835 0.5479 0.0
C266 C 0.13841 0.98875 0.2175 0.0
C267 C 0.15482 0.9977 0.19654 0.0
C268 C 0.12628 0.99743 0.26413 0.0
C269 C 0.13053 0.01502 0.29145 0.0
C270 C 0.14677 0.02414 0.27007 0.0
C271 C 0.15872 0.01565 0.22202 0.0
C272 C 0.1187 0.02287 0.34703 0.0
C273 C 0.12443 0.02046 0.41637 0.0
C274 C 0.10071 0.0297 0.33268 0.0
C275 C 0.09412 0.03253 0.25994 0.0
C276 C 0.10427 0.04374 0.21341 0.0
C277 C 0.09802 0.04633 0.14489 0.0
C278 C 0.0816 0.03785 0.12233 0.0
C279 C 0.07137 0.02678 0.1683 0.0
C280 C 0.07756 0.02414 0.23688 0.0
C281 C 0.0703 0.03771 0.6332 0.0
C282 C 0.05407 0.02711 0.62462 0.0
C283 C 0.08279 0.03969 0.57763 0.0
C284 C 0.07942 0.03068 0.51349 0.0
C285 C 0.06267 0.02098 0.50416 0.0
C286 C 0.05007 0.01932 0.559 0.0
C287 C 0.09381 0.02969 0.45795 0.0
C288 C 0.08855 0.03325 0.38845 0.0
C289 C 0.11211 0.02339 0.472 0.0
C290 C 0.11827 0.01796 0.54301 0.0
C291 C 0.10939 0.00339 0.57874 0.0
C292 C 0.1152 0.99842 0.64589 0.0
C293 C 0.13001 0.0078 0.6775 0.0
C294 C 0.13907 0.02213 0.64191 0.0
C295 C 0.13329 0.02717 0.57478 0.0
H296 H 0.13449 0.00393 0.72949 0.0
H297 H 0.07679 0.03989 0.06928 0.0
H298 H 0.54545 0.14356 0.11479 0.0
H299 H 0.53642 0.12114 0.20469 0.0
H300 H 0.48383 0.14914 0.22964 0.0
H301 H 0.49258 0.17144 0.13866 0.0
H302 H 0.50644 0.14385 0.35592 0.0
H303 H 0.4812 0.10949 0.16136 0.0
H304 H 0.48239 0.09494 0.04464 0.0
H305 H 0.52681 0.05936 0.11223 0.0
H306 H 0.52605 0.07386 0.22918 0.0
H307 H 0.4813 0.08014 0.62257 0.0
H308 H 0.47982 0.10016 0.519 0.0
H309 H 0.52256 0.06702 0.42049 0.0
H310 H 0.52304 0.04641 0.52143 0.0
H311 H 0.49997 0.07559 0.32699 0.0
H312 H 0.53035 0.11124 0.50741 0.0
H313 H 0.53353 0.12622 0.62291 0.0
H314 H 0.48528 0.15963 0.58179 0.0
H315 H 0.4817 0.14467 0.46631 0.0
C316 C 0.53186 0.14479 0.13875 0.0
C317 C 0.51973 0.15926 0.11995 0.0
C318 C 0.52671 0.13195 0.18979 0.0
C319 C 0.50946 0.13352 0.22337 0.0
C320 C 0.49717 0.14772 0.2039 0.0
C321 C 0.50217 0.16038 0.15194 0.0
C322 C 0.505 0.12118 0.28258 0.0
C323 C 0.50462 0.12895 0.34977 0.0
C324 C 0.50329 0.10174 0.2741 0.0
C325 C 0.50364 0.09287 0.20395 0.0
C326 C 0.49132 0.09866 0.15122 0.0
C327 C 0.49189 0.09039 0.08504 0.0
C328 C 0.50469 0.07625 0.07099 0.0
C329 C 0.5169 0.07031 0.12319 0.0
C330 C 0.51638 0.07853 0.18948 0.0
C331 C 0.49029 0.0772 0.57852 0.0
C332 C 0.5024 0.06193 0.57985 0.0
C333 C 0.48951 0.08865 0.51952 0.0
C334 C 0.50134 0.08536 0.4622 0.0
C335 C 0.51325 0.06988 0.46368 0.0
C336 C 0.51362 0.05818 0.52159 0.0
C337 C 0.50184 0.09816 0.40128 0.0
C338 C 0.50149 0.0905 0.33355 0.0
C339 C 0.50351 0.11769 0.40932 0.0
C340 C 0.50562 0.12668 0.47868 0.0
C341 C 0.52034 0.12168 0.52325 0.0
C342 C 0.52223 0.13018 0.58865 0.0
C343 C 0.50957 0.14382 0.60977 0.0
C344 C 0.49504 0.14903 0.56543 0.0
C345 C 0.49308 0.14056 0.5 0.0
H346 H 0.51106 0.15039 0.66042 0.0
H347 H 0.50513 0.06988 0.01971 0.0
H348 H 0.36145 0.54107 0.15779 0.0
H349 H 0.38495 0.5348 0.24752 0.0
H350 H 0.35466 0.48607 0.31222 0.0
H351 H 0.33133 0.49191 0.22122 0.0
H352 H 0.36687 0.5155 0.42237 0.0
H353 H 0.38839 0.47495 0.23685 0.0
H354 H 0.39764 0.46788 0.1156 0.0
H355 H 0.44097 0.50882 0.12775 0.0
H356 H 0.43179 0.51634 0.2488 0.0
H357 H 0.43534 0.48579 0.66487 0.0
H358 H 0.4113 0.48608 0.57403 0.0
H359 H 0.44727 0.51868 0.44148 0.0
H360 H 0.47155 0.51756 0.53055 0.0
H361 H 0.43092 0.49489 0.36509 0.0
H362 H 0.4099 0.53772 0.54075 0.0
H363 H 0.40099 0.54799 0.65914 0.0
H364 H 0.35738 0.50723 0.66357 0.0
H365 H 0.3662 0.49655 0.54548 0.0
C366 C 0.35983 0.52899 0.19099 0.0
C367 C 0.3446 0.51695 0.18259 0.0
C368 C 0.37325 0.52542 0.24196 0.0
C369 C 0.37147 0.50998 0.28605 0.0
C370 C 0.35621 0.49803 0.27838 0.0
C371 C 0.34298 0.50136 0.22638 0.0
C372 C 0.38546 0.50658 0.34095 0.0
C373 C 0.38081 0.51068 0.41036 0.0
C374 C 0.40371 0.50088 0.32433 0.0
C375 C 0.40926 0.49635 0.25162 0.0
C376 C 0.39976 0.48259 0.21343 0.0
C377 C 0.40502 0.47846 0.14479 0.0
C378 C 0.41985 0.48793 0.11392 0.0
C379 C 0.42947 0.50152 0.1517 0.0
C380 C 0.42426 0.5057 0.22034 0.0
C381 C 0.43806 0.49294 0.61615 0.0
C382 C 0.45518 0.50176 0.60466 0.0
C383 C 0.42432 0.49319 0.56445 0.0
C384 C 0.42732 0.5027 0.50127 0.0
C385 C 0.44459 0.51125 0.48964 0.0
C386 C 0.45843 0.51068 0.54067 0.0
C387 C 0.4125 0.50398 0.44735 0.0
C388 C 0.41697 0.49954 0.37779 0.0
C389 C 0.39418 0.5098 0.46367 0.0
C390 C 0.38884 0.5162 0.53464 0.0
C391 C 0.3985 0.53085 0.5672 0.0
C392 C 0.39345 0.53677 0.63421 0.0
C393 C 0.37867 0.52823 0.66895 0.0
C394 C 0.36886 0.5138 0.63666 0.0
C395 C 0.37386 0.50782 0.56968 0.0
H396 H 0.37478 0.53283 0.72081 0.0
H397 H 0.42391 0.48471 0.06079 0.0
H398 H 0.96552 0.34481 0.138 0.0
H399 H 0.96826 0.36831 0.22993 0.0
H400 H 0.02804 0.36554 0.2155 0.0
H401 H 0.02543 0.34218 0.12292 0.0
H402 H 0.98352 0.3667 0.35697 0.0
H403 H 0.04586 0.40881 0.24945 0.0
H404 H 0.05979 0.41715 0.13591 0.0
H405 H 0.00675 0.41064 0.03574 0.0
H406 H 0.99247 0.4025 0.14876 0.0
H407 H 0.01782 0.42628 0.6234 0.0
H408 H 0.01708 0.40378 0.52689 0.0
H409 H 0.99245 0.44522 0.39285 0.0
H410 H 0.99327 0.46773 0.48871 0.0
H411 H 0.0188 0.42535 0.32415 0.0
H412 H 0.96548 0.4134 0.46698 0.0
H413 H 0.94878 0.40676 0.57667 0.0
H414 H 0.97897 0.35558 0.59875 0.0
H415 H 0.99602 0.36206 0.48955 0.0
C416 C 0.97926 0.34924 0.15418 0.0
C417 C 0.99526 0.34166 0.12298 0.0
C418 C 0.9808 0.36262 0.20691 0.0
C419 C 0.99834 0.36877 0.22924 0.0
C420 C 0.01435 0.36118 0.19844 0.0
C421 C 0.01283 0.34778 0.14568 0.0
C422 C -0.00015 0.383 0.28526 0.0
C423 C 0.99129 0.37949 0.34981 0.0
C424 C 0.00974 0.39982 0.27563 0.0
C425 C 0.01816 0.40484 0.20746 0.0
C426 C 0.03717 0.40921 0.20321 0.0
C427 C 0.04513 0.41389 0.13894 0.0
C428 C 0.03418 0.41436 0.07861 0.0
C429 C 0.01524 0.4102 0.08245 0.0
C430 C 0.00721 0.40552 0.14658 0.0
C431 C 0.01243 0.43061 0.57312 0.0
C432 C 0.00558 0.4487 0.56348 0.0
C433 C 0.01196 0.41776 0.51817 0.0
C434 C 0.00457 0.4228 0.4529 0.0
C435 C 0.99827 0.44106 0.44268 0.0
C436 C 0.99873 0.45389 0.49752 0.0
C437 C 0.0027 0.4089 0.396 0.0
C438 C 0.01118 0.41247 0.33137 0.0
C439 C 0.99241 0.39231 0.40502 0.0
C440 C 0.98214 0.38831 0.4705 0.0
C441 C 0.96864 0.4008 0.49552 0.0
C442 C 0.9591 0.39706 0.55753 0.0
C443 C 0.96285 0.38078 0.59476 0.0
C444 C 0.97611 0.3682 0.56991 0.0
C445 C 0.9857 0.37189 0.50792 0.0
H446 H 0.95545 0.3779 0.64277 0.0
H447 H 0.04037 0.41798 0.02891 0.0
H448 H 0.85852 0.94163 0.20233 0.0
H449 H 0.88882 0.9468 0.14776 0.0
H450 H 0.87182 0.00239 0.0907 0.0
H451 H 0.84217 0.99765 0.14978 0.0
H452 H 0.89789 0.95084 0.02595 0.0
H453 H 0.90618 0.0314 0.06314 0.0
H454 H 0.90044 0.05498 0.15438 0.0
H455 H 0.90257 0.01269 0.31233 0.0
H456 H 0.90859 0.98889 0.2222 0.0
H457 H 0.9465 0.99001 0.74976 0.0
H458 H 0.92613 0.97902 0.84243 0.0
H459 H 0.9644 0.00023 0.99736 0.0
H460 H 0.98397 0.01267 0.90416 0.0
H461 H 0.93335 0.00989 0.03505 0.0
H462 H 0.95445 0.94866 0.9808 0.0
H463 H 0.96294 0.92085 0.91196 0.0
H464 H 0.90883 0.92032 0.81748 0.0
H465 H 0.89977 0.94772 0.88748 0.0
C466 C 0.86144 0.95503 0.17894 0.0
C467 C 0.84811 0.96927 0.18023 0.0
C468 C 0.87872 0.95798 0.14772 0.0
C469 C 0.88281 0.97508 0.11571 0.0
C470 C 0.86937 0.98928 0.11691 0.0
C471 C 0.85232 0.98652 0.15005 0.0
C472 C 0.90042 0.9776 0.07622 0.0
C473 C 0.90576 0.96369 0.02875 0.0
C474 C 0.9112 0.99404 0.08113 0.0
C475 C 0.90772 0.00833 0.13575 0.0
C476 C 0.90553 0.02714 0.11736 0.0
C477 C 0.9022 0.04054 0.1689 0.0
C478 C 0.9011 0.03533 0.23908 0.0
C479 C 0.90337 0.0167 0.25792 0.0
C480 C 0.90671 0.00324 0.20661 0.0
C481 C 0.95063 0.99219 0.80362 0.0
C482 C 0.96689 0.00206 0.81986 0.0
C483 C 0.93912 0.98562 0.85677 0.0
C484 C 0.94385 0.98837 0.92735 0.0
C485 C 0.96044 0.9978 0.94349 0.0
C486 C 0.97173 0.00477 0.8902 0.0
C487 C 0.93043 0.98336 0.98334 0.0
C488 C 0.92578 0.99686 0.03363 0.0
C489 C 0.92086 0.96617 0.98354 0.0
C490 C 0.92652 0.95033 0.93875 0.0
C491 C 0.94443 0.9427 0.94488 0.0
C492 C 0.9493 0.92696 0.90601 0.0
C493 C 0.93651 0.91898 0.85985 0.0
C494 C 0.91873 0.92656 0.85309 0.0
C495 C 0.91367 0.94209 0.89275 0.0
H496 H 0.94036 0.90691 0.8293 0.0
H497 H 0.89851 0.04573 0.27889 0.0
H498 H 0.4577 0.84836 0.10076 0.0
H499 H 0.46137 0.87588 0.02768 0.0
H500 H 0.5129 0.8889 0.13261 0.0
H501 H 0.50961 0.86098 0.20443 0.0
H502 H 0.4628 0.91147 0.05122 0.0
H503 H 0.54249 0.90958 0.01768 0.0
H504 H 0.56831 0.88698 0.01922 0.0
H505 H 0.53084 0.84337 0.95831 0.0
H506 H 0.50486 0.86575 0.95559 0.0
H507 H 0.48662 0.99125 0.85181 0.0
H508 H 0.48703 0.96809 0.9456 0.0
H509 H 0.50128 0.92547 0.7956 0.0
H510 H 0.5019 0.94868 0.70293 0.0
H511 H 0.51979 0.91968 0.90872 0.0
H512 H 0.45554 0.93348 0.85459 0.0
H513 H 0.42848 0.95423 0.8407 0.0
H514 H 0.43231 0.97001 0.05682 0.0
H515 H 0.45956 0.94952 0.07171 0.0
C516 C 0.46981 0.85709 0.10837 0.0
C517 C 0.48345 0.85243 0.15791 0.0
C518 C 0.47185 0.87287 0.06678 0.0
C519 C 0.48749 0.88437 0.07418 0.0
C520 C 0.50087 0.88006 0.12512 0.0
C521 C 0.49896 0.86412 0.1662 0.0
C522 C 0.48993 0.9005 0.02689 0.0
C523 C 0.47531 0.91332 0.02035 0.0
C524 C 0.50619 0.90287 0.98622 0.0
C525 C 0.52171 0.8893 0.98735 0.0
C526 C 0.53978 0.89517 0.00453 0.0
C527 C 0.55444 0.8824 0.00559 0.0
C528 C 0.5512 0.86373 0.98915 0.0
C529 C 0.53331 0.85781 0.97134 0.0
C530 C 0.51861 0.87053 0.97012 0.0
C531 C 0.49014 0.97699 0.8393 0.0
C532 C 0.49426 0.97171 0.77034 0.0
C533 C 0.49023 0.96375 0.89272 0.0
C534 C 0.49396 0.94499 0.8775 0.0
C535 C 0.49842 0.93985 0.80871 0.0
C536 C 0.49864 0.9531 0.75569 0.0
C537 C 0.49252 0.93043 0.93199 0.0
C538 C 0.50738 0.91797 0.94026 0.0
C539 C 0.47626 0.92806 0.97266 0.0
C540 C 0.45969 0.94013 0.96406 0.0
C541 C 0.45066 0.94145 0.89904 0.0
C542 C 0.4353 0.95316 0.89099 0.0
C543 C 0.42872 0.96348 0.94779 0.0
C544 C 0.43745 0.96204 0.01284 0.0
C545 C 0.45284 0.95038 0.02112 0.0
H546 H 0.41683 0.97256 0.94143 0.0
H547 H 0.56257 0.85387 0.99004 0.0
H548 H 0.67674 0.50505 0.12145 0.0
H549 H 0.65253 0.49651 0.03768 0.0
H550 H 0.62472 0.54875 0.07659 0.0
H551 H 0.64951 0.55774 0.15726 0.0
H552 H 0.61841 0.48979 0.04328 0.0
H553 H 0.60128 0.56366 0.93689 0.0
H554 H 0.61726 0.59346 0.91515 0.0
H555 H 0.66954 0.56492 0.89952 0.0
H556 H 0.65384 0.53495 0.92025 0.0
H557 H 0.53454 0.4857 0.84508 0.0
H558 H 0.55911 0.49275 0.93012 0.0
H559 H 0.59553 0.50908 0.76175 0.0
H560 H 0.57086 0.50285 0.67753 0.0
H561 H 0.5981 0.53334 0.85768 0.0
H562 H 0.60085 0.46766 0.85083 0.0
H563 H 0.591 0.43489 0.85813 0.0
H564 H 0.57584 0.44262 0.07324 0.0
H565 H 0.58529 0.47556 0.06693 0.0
C566 C 0.66548 0.51472 0.11185 0.0
C567 C 0.66507 0.53212 0.14527 0.0
C568 C 0.65161 0.50981 0.06417 0.0
C569 C 0.63689 0.52208 0.04986 0.0
C570 C 0.63617 0.53924 0.08511 0.0
C571 C 0.65029 0.54434 0.1315 0.0
C572 C 0.62236 0.51692 0.99799 0.0
C573 C 0.61395 0.49934 0.00278 0.0
C574 C 0.61685 0.52914 0.94381 0.0
C575 C 0.6264 0.5471 0.93093 0.0
C576 C 0.61617 0.56375 0.92862 0.0
C577 C 0.62519 0.58067 0.9165 0.0
C578 C 0.64441 0.58109 0.90622 0.0
C579 C 0.65466 0.56459 0.90779 0.0
C580 C 0.64571 0.54764 0.9198 0.0
C581 C 0.54777 0.49089 0.82653 0.0
C582 C 0.55075 0.49397 0.75497 0.0
C583 C 0.56186 0.49475 0.87498 0.0
C584 C 0.57922 0.50142 0.85235 0.0
C585 C 0.58224 0.50409 0.78061 0.0
C586 C 0.56815 0.50044 0.73246 0.0
C587 C 0.59412 0.50622 0.90307 0.0
C588 C 0.60251 0.5238 0.89833 0.0
C589 C 0.60023 0.49365 0.95507 0.0
C590 C 0.59359 0.47414 0.95817 0.0
C591 C 0.59515 0.46246 0.89941 0.0
C592 C 0.58971 0.44384 0.90343 0.0
C593 C 0.58284 0.43669 0.96613 0.0
C594 C 0.5812 0.44819 0.02474 0.0
C595 C 0.58656 0.46684 0.02094 0.0
H596 H 0.57888 0.42221 0.9694 0.0
H597 H 0.65136 0.5942 0.89688 0.0
H598 H 0.99561 0.65708 0.16627 0.0
H599 H 0.00187 0.62847 0.10095 0.0
H600 H 0.94956 0.63438 0.99274 0.0
H601 H 0.94306 0.66276 0.05858 0.0
H602 H 0.95453 0.59939 0.03558 0.0
H603 H 0.99116 0.64544 0.9146 0.0
H604 H 0.01483 0.67011 0.90482 0.0
H605 H 0.05672 0.63244 0.97899 0.0
H606 H 0.03323 0.6076 0.99007 0.0
H607 H 0.97268 0.55212 0.70904 0.0
H608 H 0.96597 0.57428 0.80327 0.0
H609 H 0.00984 0.55034 0.92762 0.0
H610 H 0.01615 0.52762 0.83437 0.0
H611 H 0.01096 0.59179 0.88963 0.0
H612 H 0.9748 0.54492 -0.00018 0.0
H613 H 0.95087 0.52109 0.02164 0.0
H614 H 0.908 0.56029 0.97049 0.0
H615 H 0.93167 0.58432 0.94732 0.0
C616 C 0.98546 0.65231 0.12844 0.0
C617 C 0.96885 0.66222 0.11748 0.0
C618 C 0.98908 0.63598 0.09103 0.0
C619 C 0.97625 0.62937 0.04156 0.0
C620 C 0.95965 0.63921 0.03074 0.0
C621 C 0.95599 0.65548 0.06824 0.0
C622 C 0.97996 0.61215 0.00104 0.0
C623 C 0.96676 0.59779 0.00298 0.0
C624 C 0.99628 0.60983 0.96066 0.0
C625 C 0.0104 0.62473 0.95394 0.0
C626 C 0.00539 0.64246 0.92938 0.0
C627 C 0.01877 0.65647 0.92349 0.0
C628 C 0.03725 0.65286 0.94148 0.0
C629 C 0.04239 0.63522 0.96521 0.0
C630 C 0.02905 0.62118 0.97126 0.0
C631 C 0.98065 0.55139 0.75701 0.0
C632 C 0.99502 0.53834 0.76446 0.0
C633 C 0.97673 0.56394 0.81084 0.0
C634 C 0.98737 0.56384 0.8723 0.0
C635 C 0.0014 0.55048 0.88069 0.0
C636 C 0.00501 0.53759 0.8275 0.0
C637 C 0.9853 0.57923 0.92297 0.0
C638 C 0.9988 0.59331 0.92267 0.0
C639 C 0.96921 0.58132 0.96455 0.0
C640 C 0.95506 0.5664 0.97115 0.0
C641 C 0.96031 0.54837 0.99172 0.0
C642 C 0.94678 0.53487 0.0049 0.0
C643 C 0.92795 0.53923 0.99776 0.0
C644 C 0.9226 0.55697 0.97613 0.0
C645 C 0.93607 0.57053 0.96296 0.0
H646 H 0.91748 0.52893 0.00942 0.0
H647 H 0.0476 0.66372 0.93688 0.0
H648 H 0.97342 0.23758 0.04479 0.0
H649 H 0.97193 0.20826 0.10927 0.0
H650 H 0.03125 0.20984 0.14018 0.0
H651 H 0.03263 0.23985 0.08129 0.0
H652 H 0.01457 0.1735 0.09279 0.0
H653 H 0.00955 0.22196 0.26804 0.0
H654 H 0.99599 0.25044 0.31874 0.0
H655 H 0.9425 0.22408 0.3283 0.0
H656 H 0.9557 0.19552 0.2766 0.0
H657 H 0.0255 0.10669 0.36332 0.0
H658 H 0.02673 0.13388 0.28673 0.0
H659 H 0.96747 0.14109 0.30914 0.0
H660 H 0.96619 0.11401 0.38582 0.0
H661 H 0.98392 0.17291 0.32498 0.0
H662 H 0.98731 0.12391 0.16131 0.0
H663 H 0.99859 0.09507 0.10625 0.0
H664 H 0.05089 0.12118 0.06144 0.0
H665 H 0.04018 0.15005 0.11835 0.0
C666 C 0.98618 0.23168 0.06512 0.0
C667 C 0.0033 0.24077 0.05551 0.0
C668 C 0.98529 0.21491 0.10165 0.0
C669 C 0.00152 0.20686 0.12853 0.0
C670 C 0.01864 0.21571 0.11843 0.0
C671 C 0.01947 0.23271 0.08344 0.0
C672 C 0.00047 0.18974 0.17074 0.0
C673 C 0.008 0.17326 0.14374 0.0
C674 C 0.99149 0.18956 0.23633 0.0
C675 C 0.98357 0.20669 0.26772 0.0
C676 C 0.99486 0.2223 0.28031 0.0
C677 C 0.98725 0.23845 0.30937 0.0
C678 C 0.96838 0.23909 0.32654 0.0
C679 C 0.9571 0.22357 0.31486 0.0
C680 C 0.96464 0.2074 0.28572 0.0
C681 C 0.01272 0.114 0.35145 0.0
C682 C 0.99576 0.10825 0.38086 0.0
C683 C 0.01343 0.1295 0.30754 0.0
C684 C 0.99716 0.13944 0.29162 0.0
C685 C 0.98021 0.13368 0.32081 0.0
C686 C 0.97951 0.11825 0.36492 0.0
C687 C 0.99788 0.15631 0.247 0.0
C688 C 0.99035 0.17288 0.27368 0.0
C689 C 0.00648 0.15639 0.18024 0.0
C690 C 0.01306 0.13906 0.14577 0.0
C691 C 0.00133 0.12345 0.14081 0.0
C692 C 0.00761 0.10709 0.10912 0.0
C693 C 0.02551 0.10623 0.08119 0.0
C694 C 0.03709 0.12182 0.08385 0.0
C695 C 0.03093 0.13818 0.11599 0.0
H696 H 0.03038 0.09345 0.0576 0.0
H697 H 0.96252 0.2516 0.34905 0.0
H698 H 0.26583 0.99792 0.05568 0.0
H699 H 0.29622 0.00239 0.10815 0.0
H700 H 0.27804 0.97262 0.2915 0.0
H701 H 0.2469 0.96967 0.24076 0.0
H702 H 0.29778 0.00102 0.33088 0.0
H703 H 0.30757 0.95233 0.16304 0.0
H704 H 0.3057 0.93753 0.04677 0.0
H705 H 0.33833 0.9817 0.95908 0.0
H706 H 0.34002 0.99687 0.0745 0.0
H707 H 0.38847 0.98328 0.46282 0.0
H708 H 0.35737 0.98026 0.41279 0.0
H709 H 0.37282 0.01679 0.24415 0.0
H710 H 0.40417 0.01955 0.29291 0.0
H711 H 0.35476 0.98487 0.19781 0.0
H712 H 0.34159 0.0347 0.36357 0.0
H713 H 0.34242 0.04985 0.47928 0.0
H714 H 0.31715 0.00175 0.5719 0.0
H715 H 0.31554 0.9866 0.45599 0.0
C716 C 0.26802 0.99297 0.10795 0.0
C717 C 0.25369 0.9841 0.14472 0.0
C718 C 0.28565 0.99505 0.13744 0.0
C719 C 0.28959 0.98764 0.20365 0.0
C720 C 0.27537 0.9785 0.24038 0.0
C721 C 0.2576 0.97672 0.21115 0.0
C722 C 0.30848 0.98963 0.23458 0.0
C723 C 0.31018 0.99716 0.30207 0.0
C724 C 0.32479 0.98502 0.19673 0.0
C725 C 0.32394 0.97576 0.12739 0.0
C726 C 0.31428 0.95891 0.11887 0.0
C727 C 0.31322 0.95046 0.0531 0.0
C728 C 0.32187 0.95868 0.99551 0.0
C729 C 0.33163 0.97534 0.00364 0.0
C730 C 0.33268 0.98385 0.06926 0.0
C731 C 0.38531 0.99061 0.4149 0.0
C732 C 0.39886 0.00163 0.38183 0.0
C733 C 0.36745 0.98901 0.38672 0.0
C734 C 0.36274 0.99837 0.32488 0.0
C735 C 0.37617 0.00943 0.29182 0.0
C736 C 0.39403 0.01111 0.32013 0.0
C737 C 0.34394 0.99616 0.29388 0.0
C738 C 0.34229 0.9886 0.22646 0.0
C739 C 0.32768 0.00053 0.33192 0.0
C740 C 0.32859 0.0095 0.40149 0.0
C741 C 0.33626 0.02736 0.40872 0.0
C742 C 0.33682 0.03595 0.47426 0.0
C743 C 0.33008 0.02668 0.53314 0.0
C744 C 0.32244 0.00889 0.52632 0.0
C745 C 0.32154 0.00036 0.46063 0.0
H746 H 0.33069 0.03331 0.58394 0.0
H747 H 0.32102 0.95213 0.94462 0.0
H748 H 0.54772 0.26683 0.05344 0.0
H749 H 0.54581 0.29811 0.10456 0.0
H750 H 0.49553 0.28275 0.21216 0.0
H751 H 0.49802 0.25115 0.16527 0.0
H752 H 0.49857 0.32056 0.11875 0.0
H753 H 0.52357 0.2837 0.31421 0.0
H754 H 0.54646 0.26187 0.364 0.0
H755 H 0.59088 0.29863 0.30603 0.0
H756 H 0.56822 0.32054 0.25494 0.0
H757 H 0.48203 0.39429 0.35955 0.0
H758 H 0.48475 0.36431 0.2995 0.0
H759 H 0.5441 0.37194 0.28376 0.0
H760 H 0.54146 0.40173 0.34472 0.0
H761 H 0.53757 0.33833 0.32222 0.0
H762 H 0.51341 0.37818 0.14878 0.0
H763 H 0.49208 0.40066 0.09494 0.0
H764 H 0.4486 0.35981 0.09302 0.0
H765 H 0.46927 0.33737 0.15148 0.0
C766 C 0.53633 0.27008 0.08841 0.0
C767 C 0.52269 0.25667 0.10366 0.0
C768 C 0.5352 0.28796 0.11703 0.0
C769 C 0.52036 0.29274 0.16103 0.0
C770 C 0.50688 0.27937 0.17719 0.0
C771 C 0.50822 0.26138 0.14978 0.0
C772 C 0.51925 0.31153 0.1923 0.0
C773 C 0.50685 0.32451 0.16383 0.0
C774 C 0.53068 0.31671 0.24901 0.0
C775 C 0.54425 0.30361 0.28 0.0
C776 C 0.53823 0.28702 0.31141 0.0
C777 C 0.55116 0.27466 0.34003 0.0
C778 C 0.57012 0.27883 0.33796 0.0
C779 C 0.57619 0.2954 0.30746 0.0
C780 C 0.56332 0.30779 0.27871 0.0
C781 C 0.49563 0.3896 0.3429 0.0
C782 C 0.51153 0.40036 0.35698 0.0
C783 C 0.49718 0.37248 0.30843 0.0
C784 C 0.51461 0.36591 0.28627 0.0
C785 C 0.53049 0.37665 0.3004 0.0
C786 C 0.52898 0.39367 0.33543 0.0
C787 C 0.51642 0.34761 0.2502 0.0
C788 C 0.52912 0.33464 0.2773 0.0
C789 C 0.50542 0.34263 0.19131 0.0
C790 C 0.49287 0.35613 0.15595 0.0
C791 C 0.49921 0.37404 0.13823 0.0
C792 C 0.48721 0.3868 0.10678 0.0
C793 C 0.469 0.38168 0.09036 0.0
C794 C 0.46269 0.3638 0.10602 0.0
C795 C 0.47452 0.35108 0.13887 0.0
H796 H 0.45981 0.39153 0.0652 0.0
H797 H 0.58011 0.26925 0.36016 0.0
H798 H 0.23033 0.50407 0.02409 0.0
H799 H 0.19918 0.50435 0.07589 0.0
H800 H 0.22029 0.53512 0.25282 0.0
H801 H 0.25151 0.53467 0.20136 0.0
H802 H 0.19893 0.50536 0.29248 0.0
H803 H 0.19563 0.55585 0.1327 0.0
H804 H 0.19691 0.57275 0.02097 0.0
H805 H 0.15308 0.53854 0.93904 0.0
H806 H 0.15211 0.52083 0.04912 0.0
H807 H 0.11213 0.53111 0.44332 0.0
H808 H 0.14295 0.53173 0.38969 0.0
H809 H 0.12201 0.50082 0.21305 0.0
H810 H 0.09123 0.49976 0.26689 0.0
H811 H 0.14319 0.53091 0.17384 0.0
H812 H 0.1481 0.47921 0.33146 0.0
H813 H 0.14559 0.46361 0.44574 0.0
H814 H 0.18526 0.50175 0.53319 0.0
H815 H 0.18783 0.51773 0.41953 0.0
C816 C 0.22834 0.51067 0.07443 0.0
C817 C 0.24336 0.51898 0.10961 0.0
C818 C 0.21051 0.51104 0.10353 0.0
C819 C 0.20743 0.51974 0.16828 0.0
C820 C 0.22239 0.52827 0.20295 0.0
C821 C 0.24017 0.52807 0.17348 0.0
C822 C 0.18873 0.51949 0.20092 0.0
C823 C 0.18679 0.51115 0.26683 0.0
C824 C 0.17282 0.52671 0.16673 0.0
C825 C 0.174 0.53679 0.09909 0.0
C826 C 0.18653 0.55164 0.09044 0.0
C827 C 0.18718 0.5614 0.02735 0.0
C828 C 0.17515 0.55666 0.97281 0.0
C829 C 0.16244 0.54215 0.98125 0.0
C830 C 0.16192 0.53217 0.04384 0.0
C831 C 0.1141 0.52422 0.39351 0.0
C832 C 0.09917 0.51535 0.35953 0.0
C833 C 0.13172 0.52466 0.3628 0.0
C834 C 0.13478 0.51623 0.29759 0.0
C835 C 0.11992 0.50747 0.26331 0.0
C836 C 0.10232 0.50694 0.29409 0.0
C837 C 0.15344 0.51667 0.26481 0.0
C838 C 0.15537 0.52506 0.19907 0.0
C839 C 0.16934 0.50952 0.29899 0.0
C840 C 0.16802 0.49977 0.36714 0.0
C841 C 0.15619 0.48435 0.37517 0.0
C842 C 0.15478 0.47542 0.43981 0.0
C843 C 0.16522 0.48172 0.49674 0.0
C844 C 0.17716 0.4969 0.48905 0.0
C845 C 0.17863 0.50588 0.42451 0.0
H846 H 0.16409 0.47481 0.54678 0.0
H847 H 0.17562 0.56427 0.92409 0.0
H848 H 0.01136 0.76129 0.15617 0.0
H849 H 0.01856 0.79203 0.10899 0.0
H850 H 0.96318 0.81061 0.16242 0.0
H851 H 0.95554 0.77922 0.20216 0.0
H852 H 0.96936 0.8241 0.04996 0.0
H853 H 0.01001 0.82486 0.2554 0.0
H854 H 0.03526 0.81416 0.33369 0.0
H855 H 0.07339 0.81391 0.16163 0.0
H856 H 0.04853 0.82473 0.08266 0.0
H857 H 0.98681 0.9213 0.02568 0.0
H858 H 0.98006 0.88937 0.06181 0.0
H859 H 0.03205 0.87114 0.97241 0.0
H860 H 0.03899 0.90311 0.93759 0.0
H861 H 0.02852 0.8572 0.09573 0.0
H862 H 0.98794 0.85866 0.89439 0.0
H863 H 0.96289 0.87016 0.81735 0.0
H864 H 0.92428 0.86793 0.98807 0.0
H865 H 0.94903 0.85624 0.06584 0.0
C866 C 0.00079 0.77202 0.15744 0.0
C867 C 0.98292 0.76801 0.18234 0.0
C868 C 0.00498 0.78973 0.13157 0.0
C869 C 0.99162 0.80405 0.13339 0.0
C870 C 0.9738 0.79995 0.15975 0.0
C871 C 0.9694 0.78203 0.18269 0.0
C872 C 0.99566 0.82294 0.10433 0.0
C873 C 0.98217 0.83144 0.06168 0.0
C874 C 0.01265 0.83247 0.11626 0.0
C875 C 0.02736 0.8253 0.16317 0.0
C876 C 0.02373 0.82229 0.23434 0.0
C877 C 0.03796 0.81631 0.27879 0.0
C878 C 0.05581 0.81321 0.25257 0.0
C879 C 0.05954 0.81623 0.18187 0.0
C880 C 0.04542 0.82235 0.13732 0.0
C881 C 0.9967 0.91042 0.01329 0.0
C882 C 0.01346 0.91468 0.97912 0.0
C883 C 0.99278 0.89215 0.03342 0.0
C884 C 0.00541 0.87774 0.0189 0.0
C885 C 0.02208 0.88199 0.9842 0.0
C886 C 0.02608 0.90026 0.96464 0.0
C887 C 0.00193 0.85851 0.04434 0.0
C888 C 0.01562 0.84989 0.08528 0.0
C889 C 0.98503 0.84904 0.03189 0.0
C890 C 0.97035 0.85673 0.98594 0.0
C891 C 0.97414 0.8608 0.91557 0.0
C892 C 0.95999 0.86726 0.87175 0.0
C893 C 0.94204 0.86982 0.89788 0.0
C894 C 0.93819 0.86594 0.9679 0.0
C895 C 0.95224 0.85932 0.01177 0.0
H896 H 0.93107 0.87471 0.86382 0.0
H897 H 0.06678 0.80857 0.28713 0.0
H898 H 0.72853 0.99614 0.29418 0.0
H899 H 0.69966 0.0067 0.24296 0.0
H900 H 0.71957 0.99131 0.03832 0.0
H901 H 0.74933 0.98186 0.08939 0.0
H902 H 0.70004 0.02362 0.03345 0.0
H903 H 0.68899 0.96173 0.12861 0.0
H904 H 0.69089 0.93872 0.22399 0.0
H905 H 0.6594 0.97498 0.35732 0.0
H906 H 0.65702 0.99801 0.26259 0.0
H907 H 0.61148 0.01708 0.86663 0.0
H908 H 0.64249 0.01153 0.91433 0.0
H909 H 0.62257 0.02475 0.12103 0.0
H910 H 0.59134 0.02945 0.07449 0.0
H911 H 0.64254 0.99435 0.12478 0.0
H912 H 0.64965 0.05447 0.02434 0.0
H913 H 0.64892 0.07857 0.93301 0.0
H914 H 0.68935 0.04821 0.81358 0.0
H915 H 0.69014 0.02377 0.90367 0.0
C916 C 0.72723 0.99557 0.23831 0.0
C917 C 0.74158 0.98847 0.19621 0.0
C918 C 0.71042 0.0013 0.20893 0.0
C919 C 0.70728 0.99955 0.13682 0.0
C920 C 0.72165 0.99279 0.09415 0.0
C921 C 0.73861 0.98728 0.12355 0.0
C922 C 0.68875 0.004 0.10672 0.0
C923 C 0.68746 0.01705 0.0525 0.0
C924 C 0.67231 0.99581 0.13298 0.0
C925 C 0.67282 0.98154 0.18864 0.0
C926 C 0.68236 0.9647 0.17821 0.0
C927 C 0.68348 0.95164 0.23213 0.0
C928 C 0.67515 0.95532 0.29664 0.0
C929 C 0.66562 0.97202 0.30723 0.0
C930 C 0.6643 0.98504 0.25334 0.0
C931 C 0.61364 0.01873 0.92232 0.0
C932 C 0.59883 0.02371 0.96667 0.0
C933 C 0.63148 0.01578 0.94936 0.0
C934 C 0.63496 0.01794 0.02116 0.0
C935 C 0.62026 0.02307 0.06541 0.0
C936 C 0.60241 0.02593 0.03854 0.0
C937 C 0.65369 0.01399 0.05079 0.0
C938 C 0.65504 0.00096 0.10513 0.0
C939 C 0.67014 0.02233 0.0246 0.0
C940 C 0.66969 0.03708 0.97031 0.0
C941 C 0.65823 0.0528 0.97824 0.0
C942 C 0.65784 0.06656 0.92675 0.0
C943 C 0.66901 0.06488 0.86737 0.0
C944 C 0.68067 0.04948 0.85953 0.0
C945 C 0.68111 0.03568 0.91087 0.0
H946 H 0.66868 0.07555 0.82755 0.0
H947 H 0.6761 0.94525 0.33845 0.0
H948 H 0.47185 0.72826 0.29308 0.0
H949 H 0.47412 0.69798 0.23587 0.0
H950 H 0.51145 0.72128 0.08239 0.0
H951 H 0.50783 0.75196 0.13667 0.0
H952 H 0.49108 0.69993 0.01737 0.0
H953 H 0.52484 0.6904 0.22879 0.0
H954 H 0.53117 0.68998 0.35497 0.0
H955 H 0.48575 0.65217 0.38674 0.0
H956 H 0.47896 0.65258 0.26036 0.0
H957 H 0.51753 0.60793 0.90086 0.0
H958 H 0.51768 0.63945 0.94989 0.0
H959 H 0.47141 0.6252 0.08251 0.0
H960 H 0.4716 0.5936 0.03612 0.0
H961 H 0.49898 0.64194 0.15391 0.0
H962 H 0.46679 0.65196 0.93414 0.0
H963 H 0.46426 0.65113 0.80564 0.0
H964 H 0.51151 0.68728 0.78822 0.0
H965 H 0.51457 0.68804 0.91664 0.0
C966 C 0.48069 0.72682 0.24758 0.0
C967 C 0.48985 0.74234 0.21971 0.0
C968 C 0.4821 0.70946 0.21496 0.0
C969 C 0.49336 0.70704 0.15545 0.0
C970 C 0.50268 0.72262 0.12811 0.0
C971 C 0.50073 0.74014 0.15936 0.0
C972 C 0.49492 0.68846 0.12063 0.0
C973 C 0.49312 0.68731 0.04741 0.0
C974 C 0.49742 0.67179 0.15911 0.0
C975 C 0.50127 0.67171 0.23523 0.0
C976 C 0.51609 0.68214 0.26275 0.0
C977 C 0.51975 0.68188 0.3344 0.0
C978 C 0.50878 0.67115 0.37905 0.0
C979 C 0.49417 0.66055 0.3521 0.0
C980 C 0.49041 0.66079 0.28046 0.0
C981 C 0.50742 0.61151 0.94061 0.0
C982 C 0.49453 0.59823 0.96451 0.0
C983 C 0.5074 0.62958 0.96794 0.0
C984 C 0.49444 0.63474 0.01926 0.0
C985 C 0.48149 0.62156 0.04268 0.0
C986 C 0.48152 0.60352 0.01565 0.0
C987 C 0.49479 0.65351 0.05162 0.0
C988 C 0.49702 0.65464 0.12424 0.0
C989 C 0.49313 0.67009 0.01234 0.0
C990 C 0.49103 0.66988 0.93511 0.0
C991 C 0.47674 0.65962 0.90295 0.0
C992 C 0.4752 0.65917 0.83009 0.0
C993 C 0.48776 0.66909 0.78879 0.0
C994 C 0.5018 0.67959 0.82029 0.0
C995 C 0.50344 0.68003 0.89311 0.0
H996 H 0.48658 0.66869 0.7324 0.0
H997 H 0.51159 0.67095 0.43446 0.0
H998 H 0.76085 0.54356 0.10817 0.0
H999 H 0.79198 0.53777 0.06017 0.0
H1000 H 0.80753 0.50965 0.25049 0.0
H1001 H 0.77657 0.51575 0.29872 0.0
H1002 H 0.83581 0.52912 0.20447 0.0
H1003 H 0.79366 0.48514 0.10512 0.0
H1004 H 0.76552 0.47452 0.04316 0.0
H1005 H 0.7825 0.50425 0.85951 0.0
H1006 H 0.81063 0.51527 0.92075 0.0
H1007 H 0.9135 0.48062 0.06573 0.0
H1008 H 0.88369 0.4883 0.11869 0.0
H1009 H 0.86658 0.51542 0.92823 0.0
H1010 H 0.89577 0.50651 0.87297 0.0
H1011 H 0.83915 0.49613 0.97682 0.0
H1012 H 0.88292 0.53925 0.08254 0.0
H1013 H 0.91123 0.5474 0.1486 0.0
H1014 H 0.8914 0.51644 0.3253 0.0
H1015 H 0.86304 0.50798 0.26007 0.0
C1016 C 0.77101 0.53628 0.13971 0.0
C1017 C 0.76625 0.52955 0.20608 0.0
C1018 C 0.78872 0.53288 0.11226 0.0
C1019 C 0.80193 0.52276 0.15095 0.0
C1020 C 0.79749 0.51713 0.21912 0.0
C1021 C 0.77979 0.52046 0.24636 0.0
C1022 C 0.82003 0.51736 0.11948 0.0
C1023 C 0.83655 0.5218 0.15491 0.0
C1024 C 0.82103 0.50781 0.0548 0.0
C1025 C 0.80415 0.50119 0.01777 0.0
C1026 C 0.79132 0.48953 0.0517 0.0
C1027 C 0.77539 0.48342 0.01669 0.0
C1028 C 0.7722 0.48875 0.94751 0.0
C1029 C 0.78497 0.50016 0.91314 0.0
C1030 C 0.80092 0.50634 0.94796 0.0
C1031 C 0.9033 0.4879 0.03447 0.0
C1032 C 0.90716 0.49292 0.96484 0.0
C1033 C 0.88633 0.4926 0.0654 0.0
C1034 C 0.87299 0.50283 0.0281 0.0
C1035 C 0.87669 0.50765 0.95838 0.0
C1036 C 0.89351 0.50268 0.92699 0.0
C1037 C 0.85502 0.50824 0.06091 0.0
C1038 C 0.83847 0.50365 0.02599 0.0
C1039 C 0.85403 0.51741 0.12653 0.0
C1040 C 0.87092 0.52286 0.16618 0.0
C1041 C 0.88463 0.53413 0.13537 0.0
C1042 C 0.90068 0.53881 0.17269 0.0
C1043 C 0.90313 0.53242 0.24104 0.0
C1044 C 0.88949 0.52139 0.27235 0.0
C1045 C 0.87341 0.51667 0.23526 0.0
H1046 H 0.91558 0.53604 0.26978 0.0
H1047 H 0.75986 0.48399 0.92047 0.0
H1048 H 0.09365 0.20863 0.85801 0.0
H1049 H 0.07869 0.17876 0.83483 0.0
H1050 H 0.04115 0.18814 0.00752 0.0
H1051 H 0.05568 0.21855 0.02827 0.0
H1052 H 0.07768 0.14952 0.90751 0.0
H1053 H 0.00065 0.16053 0.98028 0.0
H1054 H 0.97768 0.18584 0.98991 0.0
H1055 H 0.00735 0.21734 0.83562 0.0
H1056 H 0.03027 0.19203 0.82383 0.0
H1057 H 0.03289 0.06264 0.9041 0.0
H1058 H 0.04187 0.0937 0.94238 0.0
H1059 H 0.01696 0.11726 0.75773 0.0
H1060 H 0.00807 0.08611 0.71812 0.0
H1061 H 0.01016 0.13888 0.87319 0.0
H1062 H 0.06315 0.10931 0.76402 0.0
H1063 H 0.08581 0.08387 0.74858 0.0
H1064 H 0.10414 0.0908 0.96071 0.0
H1065 H 0.08141 0.11613 0.97764 0.0
C1066 C 0.08196 0.20443 0.89006 0.0
C1067 C 0.07548 0.21601 0.94358 0.0
C1068 C 0.0735 0.18732 0.87722 0.0
C1069 C 0.05866 0.18117 0.91898 0.0
C1070 C 0.05225 0.1927 0.97338 0.0
C1071 C 0.06048 0.2101 0.9851 0.0
C1072 C 0.05059 0.1624 0.90613 0.0
C1073 C 0.06289 0.14729 0.90019 0.0
C1074 C 0.03126 0.15929 0.89703 0.0
C1075 C 0.01738 0.1745 0.90217 0.0
C1076 C 0.00225 0.17284 0.94826 0.0
C1077 C 0.98922 0.18717 0.95403 0.0
C1078 C 0.99112 0.20324 0.91372 0.0
C1079 C 0.00596 0.20493 0.8671 0.0
C1080 C 0.01897 0.19058 0.86083 0.0
C1081 C 0.02907 0.07441 0.87189 0.0
C1082 C 0.01987 0.07185 0.80769 0.0
C1083 C 0.03416 0.09218 0.89416 0.0
C1084 C 0.03007 0.10779 0.85309 0.0
C1085 C 0.02019 0.1054 0.7904 0.0
C1086 C 0.01523 0.08757 0.76764 0.0
C1087 C 0.03734 0.12639 0.87281 0.0
C1088 C 0.02491 0.14128 0.88084 0.0
C1089 C 0.05657 0.12946 0.88272 0.0
C1090 C 0.07049 0.11449 0.87225 0.0
C1091 C 0.07197 0.10534 0.80744 0.0
C1092 C 0.08482 0.09095 0.79842 0.0
C1093 C 0.09639 0.08571 0.85367 0.0
C1094 C 0.09517 0.09488 0.91798 0.0
C1095 C 0.08231 0.10926 0.92731 0.0
H1096 H 0.10632 0.07455 0.8466 0.0
H1097 H 0.98104 0.21435 0.9184 0.0
H1098 H 0.30376 0.99651 0.89467 0.0
H1099 H 0.33499 0.00526 0.85688 0.0
H1100 H 0.32007 0.06323 0.86895 0.0
H1101 H 0.28879 0.05462 0.90933 0.0
H1102 H 0.3428 0.03752 0.73149 0.0
H1103 H 0.34186 0.06559 0.96869 0.0
H1104 H 0.33531 0.06438 0.0951 0.0
H1105 H 0.36974 0.01588 0.11448 0.0
H1106 H 0.3758 0.01633 0.98775 0.0
H1107 H 0.43889 0.05358 0.6647 0.0
H1108 H 0.40664 0.05949 0.69989 0.0
H1109 H 0.41174 0.01778 0.86125 0.0
H1110 H 0.44429 0.01322 0.83006 0.0
H1111 H 0.39245 0.04325 0.91037 0.0
H1112 H 0.38892 0.00976 0.68565 0.0
H1113 H 0.39708 0.00667 0.56079 0.0
H1114 H 0.37378 0.06053 0.51977 0.0
H1115 H 0.36519 0.06377 0.64413 0.0
C1116 C 0.30705 0.01113 0.88891 0.0
C1117 C 0.29389 0.02491 0.90505 0.0
C1118 C 0.32489 0.01608 0.86761 0.0
C1119 C 0.32977 0.03484 0.86123 0.0
C1120 C 0.31652 0.04868 0.8747 0.0
C1121 C 0.29873 0.04375 0.89751 0.0
C1122 C 0.34895 0.03961 0.8414 0.0
C1123 C 0.35367 0.03924 0.77034 0.0
C1124 C 0.36304 0.04129 0.89242 0.0
C1125 C 0.35895 0.04078 0.9684 0.0
C1126 C 0.34767 0.05442 -0.00041 0.0
C1127 C 0.3441 0.0539 0.07142 0.0
C1128 C 0.35201 0.04 0.11282 0.0
C1129 C 0.36357 0.02663 0.08247 0.0
C1130 C 0.36697 0.02693 0.01055 0.0
C1131 C 0.43304 0.0459 0.70811 0.0
C1132 C 0.44385 0.03299 0.7449 0.0
C1133 C 0.41461 0.04913 0.72782 0.0
C1134 C 0.40654 0.0388 0.7823 0.0
C1135 C 0.41758 0.02603 0.81932 0.0
C1136 C 0.43614 0.02335 0.8014 0.0
C1137 C 0.38654 0.04064 0.80023 0.0
C1138 C 0.38163 0.0421 0.87105 0.0
C1139 C 0.37232 0.03944 0.74914 0.0
C1140 C 0.37648 0.03702 0.67393 0.0
C1141 C 0.38541 0.02085 0.64975 0.0
C1142 C 0.39006 0.01906 0.5791 0.0
C1143 C 0.38584 0.03335 0.53229 0.0
C1144 C 0.37691 0.04942 0.556 0.0
C1145 C 0.37203 0.05119 0.6264 0.0
H1146 H 0.3895 0.03204 0.4777 0.0
H1147 H 0.34926 0.03963 0.16843 0.0
H1148 H 0.45347 0.30099 0.02296 0.0
H1149 H 0.45091 0.33361 0.98616 0.0
H1150 H 0.50725 0.33178 0.90924 0.0
H1151 H 0.50994 0.29953 0.94582 0.0
H1152 H 0.50057 0.36345 0.97891 0.0
H1153 H 0.47092 0.32631 0.79911 0.0
H1154 H 0.44789 0.30393 0.75361 0.0
H1155 H 0.40347 0.33943 0.82227 0.0
H1156 H 0.42627 0.36191 0.86901 0.0
H1157 H 0.50811 0.42746 0.69744 0.0
H1158 H 0.50217 0.3972 0.75276 0.0
H1159 H 0.45837 0.42167 0.8762 0.0
H1160 H 0.46486 0.4521 0.82363 0.0
H1161 H 0.45468 0.38081 0.79647 0.0
H1162 H 0.48564 0.41964 0.96714 0.0
H1163 H 0.50959 0.44145 0.00903 0.0
H1164 H 0.55219 0.40188 0.95767 0.0
H1165 H 0.52852 0.38012 0.91323 0.0
C1166 C 0.4653 0.30762 -0.00153 0.0
C1167 C 0.48179 0.29766 0.98616 0.0
C1168 C 0.46381 0.32619 0.97743 0.0
C1169 C 0.47883 0.33499 0.94433 0.0
C1170 C 0.49549 0.32523 0.93454 0.0
C1171 C 0.49694 0.30674 0.95501 0.0
C1172 C 0.47732 0.35415 0.91716 0.0
C1173 C 0.49049 0.36726 0.93922 0.0
C1174 C 0.46396 0.35916 0.86618 0.0
C1175 C 0.45028 0.34565 0.83834 0.0
C1176 C 0.45624 0.32925 0.80506 0.0
C1177 C 0.44323 0.31657 0.77894 0.0
C1178 C 0.42423 0.32022 0.78527 0.0
C1179 C 0.4182 0.3366 0.81757 0.0
C1180 C 0.43115 0.34931 0.84387 0.0
C1181 C 0.49704 0.42625 0.73553 0.0
C1182 C 0.487 0.44197 0.7569 0.0
C1183 C 0.49369 0.40906 0.76703 0.0
C1184 C 0.47994 0.40739 0.81866 0.0
C1185 C 0.46906 0.42281 0.83655 0.0
C1186 C 0.4728 0.4401 0.80675 0.0
C1187 C 0.47809 0.38987 0.85771 0.0
C1188 C 0.46442 0.3771 0.83747 0.0
C1189 C 0.49099 0.38512 0.9104 0.0
C1190 C 0.50531 0.39841 0.93535 0.0
C1191 C 0.50014 0.41579 0.96297 0.0
C1192 C 0.51367 0.42811 0.98765 0.0
C1193 C 0.53242 0.42313 0.98561 0.0
C1194 C 0.53768 0.40581 0.95888 0.0
C1195 C 0.52421 0.39348 0.93386 0.0
H1196 H 0.54283 0.43266 0.00519 0.0
H1197 H 0.41418 0.3104 0.76496 0.0
H1198 H 0.21506 0.4623 0.80596 0.0
H1199 H 0.18346 0.46147 0.75944 0.0
H1200 H 0.16205 0.45071 0.9659 0.0
H1201 H 0.19363 0.45153 0.01317 0.0
H1202 H 0.14201 0.43237 0.85466 0.0
H1203 H 0.16609 0.49237 0.92075 0.0
H1204 H 0.18993 0.51692 0.91766 0.0
H1205 H 0.18008 0.52483 0.69835 0.0
H1206 H 0.15692 0.49953 0.69919 0.0
H1207 H 0.05192 0.47234 0.83453 0.0
H1208 H 0.08374 0.46448 0.86758 0.0
H1209 H 0.10294 0.48043 0.66279 0.0
H1210 H 0.07116 0.48823 0.62896 0.0
H1211 H 0.12445 0.49504 0.76822 0.0
H1212 H 0.10015 0.43571 0.70129 0.0
H1213 H 0.07765 0.40985 0.70148 0.0
H1214 H 0.08742 0.40119 0.92045 0.0
H1215 H 0.10981 0.42719 0.92179 0.0
C1216 C 0.2037 0.45928 0.8413 0.0
C1217 C 0.2068 0.45735 0.91349 0.0
C1218 C 0.18566 0.45878 0.81454 0.0
C1219 C 0.17048 0.45632 0.85952 0.0
C1220 C 0.17363 0.45266 0.93049 0.0
C1221 C 0.19168 0.45325 0.95741 0.0
C1222 C 0.15143 0.46026 0.8347 0.0
C1223 C 0.13808 0.44607 0.83621 0.0
C1224 C 0.1465 0.47813 0.80986 0.0
C1225 C 0.15993 0.49385 0.80984 0.0
C1226 C 0.16916 0.49916 0.87163 0.0
C1227 C 0.18259 0.51319 0.87026 0.0
C1228 C 0.18647 0.52248 0.80791 0.0
C1229 C 0.17705 0.51763 0.74664 0.0
C1230 C 0.16385 0.50335 0.74743 0.0
C1231 C 0.06287 0.47418 0.79635 0.0
C1232 C 0.05896 0.48102 0.72909 0.0
C1233 C 0.08105 0.46959 0.81532 0.0
C1234 C 0.09565 0.47175 0.76744 0.0
C1235 C 0.09185 0.47867 0.70047 0.0
C1236 C 0.07366 0.48315 0.68129 0.0
C1237 C 0.11494 0.46713 0.78787 0.0
C1238 C 0.12836 0.48127 0.78605 0.0
C1239 C 0.1199 0.44923 0.81239 0.0
C1240 C 0.10653 0.43352 0.81177 0.0
C1241 C 0.09739 0.42839 0.74961 0.0
C1242 C 0.08468 0.41369 0.74942 0.0
C1243 C 0.08108 0.40391 0.81097 0.0
C1244 C 0.09022 0.40879 0.87282 0.0
C1245 C 0.10293 0.4235 0.87331 0.0
H1246 H 0.07123 0.39253 0.81072 0.0
H1247 H 0.19678 0.53345 0.80711 0.0
H1248 H 0.97518 0.82839 0.34348 0.0
H1249 H 0.97797 0.85953 0.39368 0.0
H1250 H 0.02443 0.84131 0.51871 0.0
H1251 H 0.02167 0.81002 0.4689 0.0
H1252 H 0.99881 0.86189 0.59376 0.0
H1253 H 0.03177 0.86629 0.37575 0.0
H1254 H 0.03654 0.86449 0.24828 0.0
H1255 H 0.99219 0.90348 0.21585 0.0
H1256 H 0.98691 0.90529 0.34306 0.0
H1257 H 0.02552 0.95128 0.70944 0.0
H1258 H 0.02577 0.92029 0.65695 0.0
H1259 H 0.98478 0.93793 0.50596 0.0
H1260 H 0.98534 0.96928 0.55587 0.0
H1261 H 0.00892 0.91721 0.4439 0.0
H1262 H 0.97485 0.91265 0.65714 0.0
H1263 H 0.97098 0.91739 0.78336 0.0
H1264 H 0.01495 0.87858 0.82468 0.0
H1265 H 0.0199 0.87442 0.69798 0.0
C1266 C 0.98593 0.83097 0.38197 0.0
C1267 C 0.99823 0.81678 0.40225 0.0
C1268 C 0.98758 0.84879 0.41018 0.0
C1269 C 0.00153 0.85273 0.45926 0.0
C1270 C 0.01362 0.83852 0.48067 0.0
C1271 C 0.01204 0.82069 0.45216 0.0
C1272 C 0.00334 0.87166 0.48882 0.0
C1273 C 0.00128 0.87398 0.56121 0.0
C1274 C 0.00606 0.88742 0.44584 0.0
C1275 C 0.00887 0.88584 0.3691 0.0
C1276 C 0.02288 0.87431 0.34148 0.0
C1277 C 0.0257 0.87332 0.26925 0.0
C1278 C 0.0147 0.88391 0.22414 0.0
C1279 C 0.00071 0.89532 0.25097 0.0
C1280 C 0.9978 0.89634 0.32311 0.0
C1281 C 0.01652 0.94851 0.66518 0.0
C1282 C 0.00527 0.96259 0.63702 0.0
C1283 C 0.01667 0.9308 0.63521 0.0
C1284 C 0.00505 0.92665 0.5782 0.0
C1285 C 0.99388 0.94078 0.54986 0.0
C1286 C 0.9941 0.95864 0.57867 0.0
C1287 C 0.00423 0.90753 0.5489 0.0
C1288 C 0.00647 0.90514 0.47656 0.0
C1289 C 0.00141 0.89172 0.59176 0.0
C1290 C 0.99788 0.89339 0.66796 0.0
C1291 C 0.98379 0.9052 0.69305 0.0
C1292 C 0.98144 0.90783 0.76477 0.0
C1293 C 0.99266 0.89826 0.81216 0.0
C1294 C 0.00632 0.88605 0.78787 0.0
C1295 C 0.00897 0.88362 0.71603 0.0
H1296 H 0.99061 0.90016 0.86763 0.0
H1297 H 0.0171 0.88342 0.16843 0.0
H1298 H 0.7016 0.00907 0.52655 0.0
H1299 H 0.67028 0.0054 0.57367 0.0
H1300 H 0.66775 0.94965 0.49052 0.0
H1301 H 0.69916 0.95313 0.44357 0.0
H1302 H 0.63878 0.97238 0.44769 0.0
H1303 H 0.66776 0.95493 0.66302 0.0
H1304 H 0.68959 0.95797 0.76186 0.0
H1305 H 0.66491 0.01027 0.81776 0.0
H1306 H 0.64312 0.00768 0.71928 0.0
H1307 H 0.54446 0.97531 0.55923 0.0
H1308 H 0.57642 0.96467 0.53869 0.0
H1309 H 0.59713 0.01147 0.65771 0.0
H1310 H 0.56535 0.02104 0.68277 0.0
H1311 H 0.61687 0.98463 0.68872 0.0
H1312 H 0.595 0.00792 0.46542 0.0
H1313 H 0.57473 0.00926 0.36147 0.0
H1314 H 0.58771 0.95236 0.31353 0.0
H1315 H 0.60791 0.95064 0.41769 0.0
C1316 C 0.69453 0.9959 0.51941 0.0
C1317 C 0.70277 0.98145 0.48082 0.0
C1318 C 0.67669 0.99378 0.54676 0.0
C1319 C 0.6668 0.9772 0.53591 0.0
C1320 C 0.67525 0.96249 0.49978 0.0
C1321 C 0.69316 0.96454 0.47293 0.0
C1322 C 0.64694 0.97626 0.55491 0.0
C1323 C 0.63396 0.97473 0.50054 0.0
C1324 C 0.64072 0.97961 0.62375 0.0
C1325 C 0.65383 0.98113 0.68345 0.0
C1326 C 0.66707 0.96714 0.69618 0.0
C1327 C 0.67943 0.96877 0.75232 0.0
C1328 C 0.67866 0.98431 0.79621 0.0
C1329 C 0.66551 0.99822 0.78405 0.0
C1330 C 0.65312 0.99666 0.72813 0.0
C1331 C 0.55595 0.98323 0.58065 0.0
C1332 C 0.55265 0.99901 0.6219 0.0
C1333 C 0.57416 0.97722 0.56885 0.0
C1334 C 0.58927 0.98742 0.59566 0.0
C1335 C 0.58579 0.00326 0.63675 0.0
C1336 C 0.56765 0.00883 0.65057 0.0
C1337 C 0.60878 0.98208 0.58047 0.0
C1338 C 0.62167 0.98213 0.63578 0.0
C1339 C 0.61505 0.97811 0.51188 0.0
C1340 C 0.60271 0.97907 0.44988 0.0
C1341 C 0.59338 0.99565 0.43305 0.0
C1342 C 0.58194 0.99649 0.37403 0.0
C1343 C 0.57987 0.98088 0.33109 0.0
C1344 C 0.58928 0.96442 0.34697 0.0
C1345 C 0.60072 0.9635 0.40598 0.0
H1346 H 0.57103 0.98156 0.28538 0.0
H1347 H 0.68823 0.98557 0.83963 0.0
H1348 H 0.505 0.7004 0.57741 0.0
H1349 H 0.5127 0.66913 0.6182 0.0
H1350 H 0.56197 0.6692 0.49005 0.0
H1351 H 0.55484 0.70082 0.45133 0.0
H1352 H 0.53109 0.64229 0.45742 0.0
H1353 H 0.57077 0.66316 0.64044 0.0
H1354 H 0.57997 0.6814 0.74394 0.0
H1355 H 0.5367 0.65568 0.86392 0.0
H1356 H 0.52675 0.63773 0.76065 0.0
H1357 H 0.53427 0.54452 0.52803 0.0
H1358 H 0.54341 0.57688 0.50522 0.0
H1359 H 0.51184 0.59475 0.68527 0.0
H1360 H 0.50357 0.56271 0.70979 0.0
H1361 H 0.54202 0.61236 0.68685 0.0
H1362 H 0.49673 0.59889 0.5084 0.0
H1363 H 0.4829 0.58287 0.40681 0.0
H1364 H 0.53065 0.59668 0.28274 0.0
H1365 H 0.54489 0.61256 0.384 0.0
C1366 C 0.51784 0.69404 0.55998 0.0
C1367 C 0.52911 0.70284 0.51001 0.0
C1368 C 0.52225 0.67622 0.58352 0.0
C1369 C 0.5378 0.66691 0.55653 0.0
C1370 C 0.54995 0.67627 0.51146 0.0
C1371 C 0.54583 0.69431 0.48943 0.0
C1372 C 0.53909 0.64658 0.56464 0.0
C1373 C 0.53388 0.63563 0.50717 0.0
C1374 C 0.54221 0.63816 0.63012 0.0
C1375 C 0.54791 0.64917 0.69234 0.0
C1376 C 0.56301 0.66157 0.68855 0.0
C1377 C 0.56837 0.67186 0.74728 0.0
C1378 C 0.55886 0.66975 0.8104 0.0
C1379 C 0.54399 0.65733 0.81494 0.0
C1380 C 0.53847 0.64712 0.75625 0.0
C1381 C 0.52929 0.55543 0.56233 0.0
C1382 C 0.51826 0.55115 0.62061 0.0
C1383 C 0.53449 0.57389 0.54936 0.0
C1384 C 0.52827 0.58831 0.59343 0.0
C1385 C 0.51703 0.58392 0.65095 0.0
C1386 C 0.51221 0.56557 0.66469 0.0
C1387 C 0.53309 0.60807 0.58031 0.0
C1388 C 0.5395 0.61892 0.63672 0.0
C1389 C 0.53032 0.61658 0.51445 0.0
C1390 C 0.52202 0.60661 0.45412 0.0
C1391 C 0.50439 0.5983 0.45972 0.0
C1392 C 0.49645 0.5893 0.40214 0.0
C1393 C 0.50593 0.58868 0.33846 0.0
C1394 C 0.52336 0.5971 0.33219 0.0
C1395 C 0.53138 0.60608 0.38966 0.0
H1396 H 0.49975 0.58175 0.2939 0.0
H1397 H 0.56305 0.67769 0.85586 0.0
H1398 H 0.79488 0.47083 0.48634 0.0
H1399 H 0.82664 0.47422 0.52929 0.0
H1400 H 0.84644 0.47991 0.31759 0.0
H1401 H 0.81475 0.47595 0.27394 0.0
H1402 H 0.87117 0.46136 0.39591 0.0
H1403 H 0.83724 0.51822 0.41412 0.0
H1404 H 0.81096 0.53837 0.44757 0.0
H1405 H 0.82106 0.52667 0.66433 0.0
H1406 H 0.84724 0.5062 0.63208 0.0
H1407 H 0.95491 0.50652 0.48208 0.0
H1408 H 0.92348 0.50264 0.43651 0.0
H1409 H 0.9034 0.49116 0.64436 0.0
H1410 H 0.93484 0.49515 0.6909 0.0
H1411 H 0.87921 0.51333 0.56463 0.0
H1412 H 0.91383 0.45595 0.54142 0.0
H1413 H 0.94101 0.43764 0.50374 0.0
H1414 H 0.93024 0.45219 0.28991 0.0
H1415 H 0.9032 0.47095 0.32657 0.0
C1416 C 0.80602 0.47241 0.44877 0.0
C1417 C 0.80225 0.4735 0.37683 0.0
C1418 C 0.82416 0.47446 0.47344 0.0
C1419 C 0.83879 0.47788 0.42671 0.0
C1420 C 0.8353 0.4775 0.35457 0.0
C1421 C 0.81717 0.47526 0.32976 0.0
C1422 C 0.85739 0.48314 0.45345 0.0
C1423 C 0.87295 0.47283 0.4322 0.0
C1424 C 0.85971 0.49811 0.50098 0.0
C1425 C 0.84408 0.51054 0.52065 0.0
C1426 C 0.83377 0.51984 0.46889 0.0
C1427 C 0.81891 0.53133 0.48764 0.0
C1428 C 0.81432 0.53377 0.55803 0.0
C1429 C 0.82462 0.52475 0.60983 0.0
C1430 C 0.83948 0.51321 0.59135 0.0
C1431 C 0.9438 0.50345 0.51844 0.0
C1432 C 0.94743 0.50088 0.59005 0.0
C1433 C 0.92586 0.50119 0.49217 0.0
C1434 C 0.91127 0.49625 0.53693 0.0
C1435 C 0.91456 0.49486 0.60901 0.0
C1436 C 0.93253 0.49712 0.63544 0.0
C1437 C 0.89286 0.49137 0.50793 0.0
C1438 C 0.87738 0.50183 0.52848 0.0
C1439 C 0.89067 0.4767 0.45914 0.0
C1440 C 0.90657 0.46496 0.4368 0.0
C1441 C 0.91731 0.45532 0.4864 0.0
C1442 C 0.9327 0.44486 0.46522 0.0
C1443 C 0.93737 0.44376 0.39446 0.0
C1444 C 0.92662 0.45306 0.34471 0.0
C1445 C 0.91125 0.46361 0.36565 0.0
H1446 H 0.94932 0.43569 0.37816 0.0
H1447 H 0.80281 0.54267 0.57244 0.0
loop_
_geom_bond_atom_site_label_1
_geom_bond_atom_site_label_2
_geom_bond_distance
_geom_bond_site_symmetry_2
_ccdc_geom_bond_type
O0 Cd1 2.300 . S
O0 C7 1.275 . S
Cd1 O0 2.300 . S
Cd1 O9 2.381 . S
Cd1 O10 2.378 . S
O2 Cd3 2.385 . S
O2 C7 1.255 . S
Cd3 O2 2.385 . S
Cd3 O4 2.317 . S
O4 Cd3 2.317 . S
O4 C5 1.232 . S
C5 O4 1.232 . S
C5 O6 1.218 . S
O6 C5 1.218 . S
C7 O0 1.275 . S
C7 O2 1.255 . S
C8 O9 1.258 . S
C8 O10 1.256 . S
O9 Cd1 2.381 . S
O9 C8 1.258 . S
O10 Cd1 2.378 . S
O10 C8 1.256 . S
O11 Cd12 2.300 1_655 S
O11 C18 1.275 1_655 S
Cd12 O11 2.300 1_455 S
Cd12 O20 2.381 1_455 S
Cd12 O21 2.378 . S
O13 Cd14 2.385 . S
O13 C18 1.255 . S
Cd14 O13 2.385 . S
Cd14 O15 2.317 . S
O15 Cd14 2.317 . S
O15 C16 1.232 . S
C16 O15 1.232 . S
C16 O17 1.218 . S
O17 C16 1.218 . S
C18 O11 1.275 1_455 S
C18 O13 1.255 . S
C19 O20 1.258 1_455 S
C19 O21 1.256 . S
O20 Cd12 2.381 1_655 S
O20 C19 1.258 1_655 S
O21 Cd12 2.378 . S
O21 C19 1.256 . S
O22 Cd23 2.300 1_565 S
O22 C29 1.275 1_565 S
Cd23 O22 2.300 1_545 S
Cd23 O31 2.381 1_545 S
Cd23 O32 2.378 . S
O24 Cd25 2.385 . S
O24 C29 1.255 . S
Cd25 O24 2.385 . S
Cd25 O26 2.317 . S
O26 Cd25 2.317 . S
O26 C27 1.232 . S
C27 O26 1.232 . S
C27 O28 1.218 . S
O28 C27 1.218 . S
C29 O22 1.275 1_545 S
C29 O24 1.255 . S
C30 O31 1.258 1_545 S
C30 O32 1.256 . S
O31 Cd23 2.381 1_565 S
O31 C30 1.258 1_565 S
O32 Cd23 2.378 . S
O32 C30 1.256 . S
O33 Cd34 2.300 . S
O33 C40 1.275 . S
Cd34 O33 2.300 . S
Cd34 O42 2.381 . S
Cd34 O43 2.378 . S
O35 Cd36 2.385 . S
O35 C40 1.255 . S
Cd36 O35 2.385 . S
Cd36 O37 2.317 . S
O37 Cd36 2.317 . S
O37 C38 1.232 . S
C38 O37 1.232 . S
C38 O39 1.218 . S
O39 C38 1.218 . S
C40 O33 1.275 . S
C40 O35 1.255 . S
C41 O42 1.258 . S
C41 O43 1.256 . S
O42 Cd34 2.381 . S
O42 C41 1.258 . S
O43 Cd34 2.378 . S
O43 C41 1.256 . S
O44 Cd45 2.300 . S
O44 C51 1.275 . S
Cd45 O44 2.300 . S
Cd45 O53 2.381 . S
Cd45 O54 2.378 . S
O46 Cd47 2.385 1_554 S
O46 C51 1.255 . S
Cd47 O46 2.385 1_556 S
Cd47 O48 2.317 . S
O48 Cd47 2.317 . S
O48 C49 1.232 . S
C49 O48 1.232 . S
C49 O50 1.218 . S
O50 C49 1.218 . S
C51 O44 1.275 . S
C51 O46 1.255 . S
C52 O53 1.258 . S
C52 O54 1.256 . S
O53 Cd45 2.381 . S
O53 C52 1.258 . S
O54 Cd45 2.378 . S
O54 C52 1.256 . S
O55 Cd56 2.300 . S
O55 C62 1.275 . S
Cd56 O55 2.300 . S
Cd56 O64 2.381 . S
Cd56 O65 2.378 . S
O57 Cd58 2.385 1_554 S
O57 C62 1.255 . S
Cd58 O57 2.385 1_556 S
Cd58 O59 2.317 . S
O59 Cd58 2.317 . S
O59 C60 1.232 . S
C60 O59 1.232 . S
C60 O61 1.218 . S
O61 C60 1.218 . S
C62 O55 1.275 . S
C62 O57 1.255 . S
C63 O64 1.258 . S
C63 O65 1.256 . S
O64 Cd56 2.381 . S
O64 C63 1.258 . S
O65 Cd56 2.378 . S
O65 C63 1.256 . S
O66 Cd67 2.300 . S
O66 C73 1.275 . S
Cd67 O66 2.300 . S
Cd67 O75 2.381 . S
Cd67 O76 2.378 . S
O68 Cd69 2.385 1_554 S
O68 C73 1.255 . S
Cd69 O68 2.385 1_556 S
Cd69 O70 2.317 . S
O70 Cd69 2.317 . S
O70 C71 1.232 . S
C71 O70 1.232 . S
C71 O72 1.218 . S
O72 C71 1.218 . S
C73 O66 1.275 . S
C73 O68 1.255 . S
C74 O75 1.258 . S
C74 O76 1.256 . S
O75 Cd67 2.381 . S
O75 C74 1.258 . S
O76 Cd67 2.378 . S
O76 C74 1.256 . S
O77 Cd78 2.300 . S
O77 C84 1.275 . S
Cd78 O77 2.300 . S
Cd78 O86 2.381 . S
Cd78 O87 2.378 . S
O79 Cd80 2.385 1_554 S
O79 C84 1.255 . S
Cd80 O79 2.385 1_556 S
Cd80 O81 2.317 . S
O81 Cd80 2.317 . S
O81 C82 1.232 . S
C82 O81 1.232 . S
C82 O83 1.218 . S
O83 C82 1.218 . S
C84 O77 1.275 . S
C84 O79 1.255 . S
C85 O86 1.258 . S
C85 O87 1.256 . S
O86 Cd78 2.381 . S
O86 C85 1.258 . S
O87 Cd78 2.378 . S
O87 C85 1.256 . S
Ho88 C91 2.811 . S
Ho88 O108 2.322 . S
Ho88 O110 2.378 . S
Ho88 O111 2.524 . S
Ho88 O112 2.381 . S
Ho88 O113 2.669 1_565 S
Ho88 O115 2.346 1_565 S
Ho88 O119 2.313 1_455 S
Ho89 C100 2.811 . S
Ho89 O109 2.346 1_545 S
Ho89 O113 2.305 1_655 S
Ho89 O114 2.322 . S
Ho89 O116 2.378 . S
Ho89 O117 2.524 1_655 S
Ho89 O118 2.381 . S
Ho89 O119 2.652 1_545 S
C90 O108 1.259 1_655 S
C90 O109 1.268 . S
C91 Ho88 2.811 . S
C91 C92 1.488 . S
C91 O110 1.215 . S
C91 O111 1.289 . S
C92 C91 1.488 . S
C92 C93 1.348 . S
C92 C97 1.413 . S
C93 C92 1.348 . S
C93 C94 1.442 . S
C93 H120 0.930 1_455 S
C94 C93 1.442 . S
C94 C95 1.381 . S
C94 H121 0.931 1_455 S
C95 C94 1.381 . S
C95 C96 1.321 . S
C96 C95 1.321 . S
C96 C97 1.403 . S
C96 H122 0.934 . S
C97 C92 1.413 . S
C97 C96 1.403 . S
C97 H123 0.930 . S
C98 O112 1.275 1_545 S
C98 O113 1.256 . S
C99 O114 1.259 1_455 S
C99 O115 1.268 . S
C100 Ho89 2.811 . S
C100 C101 1.488 . S
C100 O116 1.215 . S
C100 O117 1.289 1_655 S
C101 C100 1.488 . S
C101 C102 1.348 1_655 S
C101 C106 1.413 . S
C102 C101 1.348 1_455 S
C102 C103 1.446 . S
C102 H124 0.930 . S
C103 C102 1.446 . S
C103 C104 1.344 1_455 S
C103 H125 0.964 . S
C104 C103 1.344 1_655 S
C104 C105 1.321 . S
C105 C104 1.321 . S
C105 C106 1.403 . S
C105 H126 0.934 . S
C106 C101 1.413 . S
C106 C105 1.403 . S
C106 H127 0.930 . S
C107 O118 1.275 . S
C107 O119 1.244 1_545 S
O108 Ho88 2.322 . S
O108 C90 1.259 1_455 S
O109 Ho89 2.346 1_565 S
O109 C90 1.268 . S
O110 Ho88 2.378 . S
O110 C91 1.215 . S
O111 Ho88 2.524 . S
O111 C91 1.289 . S
O112 Ho88 2.381 . S
O112 C98 1.275 1_565 S
O113 Ho88 2.669 1_545 S
O113 Ho89 2.305 1_455 S
O113 C98 1.256 . S
O114 Ho89 2.322 . S
O114 C99 1.259 1_655 S
O115 Ho88 2.346 1_545 S
O115 C99 1.268 . S
O116 Ho89 2.378 . S
O116 C100 1.215 . S
O117 Ho89 2.524 1_455 S
O117 C100 1.289 1_455 S
O118 Ho89 2.381 . S
O118 C107 1.275 . S
O119 Ho88 2.313 1_655 S
O119 Ho89 2.652 1_565 S
O119 C107 1.244 1_565 S
H120 C93 0.930 1_655 S
H121 C94 0.931 1_655 S
H122 C96 0.934 . S
H123 C97 0.930 . S
H124 C102 0.930 . S
H125 C103 0.964 . S
H126 C105 0.934 . S
H127 C106 0.930 . S
Ho128 C131 2.811 . S
Ho128 O148 2.322 . S
Ho128 O150 2.378 . S
Ho128 O151 2.524 . S
Ho128 O152 2.381 . S
Ho128 O153 2.669 . S
Ho128 O155 2.346 . S
Ho128 O159 2.305 1_545 S
Ho129 C140 2.811 . S
Ho129 O149 2.346 . S
Ho129 O153 2.305 1_565 S
Ho129 O154 2.322 . S
Ho129 O156 2.378 . S
Ho129 O157 2.524 1_565 S
Ho129 O158 2.381 . S
Ho129 O159 2.669 . S
C130 O148 1.259 1_565 S
C130 O149 1.268 . S
C131 Ho128 2.811 . S
C131 C132 1.488 . S
C131 O150 1.215 . S
C131 O151 1.289 . S
C132 C131 1.488 . S
C132 C133 1.348 . S
C132 C137 1.413 . S
C133 C132 1.348 . S
C133 C134 1.442 . S
C133 H160 0.930 1_545 S
C134 C133 1.442 . S
C134 C135 1.381 . S
C134 H161 0.931 1_545 S
C135 C134 1.381 . S
C135 C136 1.321 . S
C136 C135 1.321 . S
C136 C137 1.403 . S
C136 H162 0.934 . S
C137 C132 1.413 . S
C137 C136 1.403 . S
C137 H163 0.930 . S
C138 O152 1.275 . S
C138 O153 1.256 . S
C139 O154 1.259 1_545 S
C139 O155 1.268 . S
C140 Ho129 2.811 . S
C140 C141 1.488 . S
C140 O156 1.215 . S
C140 O157 1.289 1_565 S
C141 C140 1.488 . S
C141 C142 1.348 1_565 S
C141 C146 1.413 . S
C142 C141 1.348 1_545 S
C142 C143 1.448 . S
C142 H164 0.930 . S
C143 C142 1.448 . S
C143 C144 1.330 1_545 S
C143 H165 0.975 . S
C144 C143 1.330 1_565 S
C144 C145 1.321 . S
C145 C144 1.321 . S
C145 C146 1.403 . S
C145 H166 0.934 . S
C146 C141 1.413 . S
C146 C145 1.403 . S
C146 H167 0.930 . S
C147 O158 1.275 . S
C147 O159 1.256 . S
O148 Ho128 2.322 . S
O148 C130 1.259 1_545 S
O149 Ho129 2.346 . S
O149 C130 1.268 . S
O150 Ho128 2.378 . S
O150 C131 1.215 . S
O151 Ho128 2.524 . S
O151 C131 1.289 . S
O152 Ho128 2.381 . S
O152 C138 1.275 . S
O153 Ho128 2.669 . S
O153 Ho129 2.305 1_545 S
O153 C138 1.256 . S
O154 Ho129 2.322 . S
O154 C139 1.259 1_565 S
O155 Ho128 2.346 . S
O155 C139 1.268 . S
O156 Ho129 2.378 . S
O156 C140 1.215 . S
O157 Ho129 2.524 1_545 S
O157 C140 1.289 1_545 S
O158 Ho129 2.381 . S
O158 C147 1.275 . S
O159 Ho128 2.305 1_565 S
O159 Ho129 2.669 . S
O159 C147 1.256 . S
H160 C133 0.930 1_565 S
H161 C134 0.931 1_565 S
H162 C136 0.934 . S
H163 C137 0.930 . S
H164 C142 0.930 . S
H165 C143 0.975 . S
H166 C145 0.934 . S
H167 C146 0.930 . S
Ho168 C171 2.811 . S
Ho168 O188 2.322 . S
Ho168 O190 2.378 . S
Ho168 O191 2.524 . S
Ho168 O192 2.381 . S
Ho168 O193 2.669 . S
Ho168 O195 2.346 . S
Ho168 O199 2.305 . S
Ho169 C180 2.811 . S
Ho169 O189 2.346 . S
Ho169 O193 2.305 . S
Ho169 O194 2.322 . S
Ho169 O196 2.378 . S
Ho169 O197 2.524 . S
Ho169 O198 2.381 . S
Ho169 O199 2.669 . S
C170 O188 1.259 . S
C170 O189 1.268 . S
C171 Ho168 2.811 . S
C171 C172 1.488 . S
C171 O190 1.215 . S
C171 O191 1.289 . S
C172 C171 1.488 . S
C172 C173 1.348 . S
C172 C177 1.413 . S
C173 C172 1.348 . S
C173 C174 1.442 . S
C173 H200 0.930 . S
C174 C173 1.442 . S
C174 C175 1.381 . S
C174 H201 0.931 . S
C175 C174 1.381 . S
C175 C176 1.321 . S
C176 C175 1.321 . S
C176 C177 1.403 . S
C176 H202 0.934 . S
C177 C172 1.413 . S
C177 C176 1.403 . S
C177 H203 0.930 . S
C178 O192 1.275 . S
C178 O193 1.256 . S
C179 O194 1.259 . S
C179 O195 1.268 . S
C180 Ho169 2.811 . S
C180 C181 1.488 . S
C180 O196 1.215 . S
C180 O197 1.289 . S
C181 C180 1.488 . S
C181 C182 1.348 . S
C181 C186 1.413 . S
C182 C181 1.348 . S
C182 C183 1.442 . S
C182 H204 0.930 . S
C183 C182 1.442 . S
C183 C184 1.381 . S
C183 H205 0.931 . S
C184 C183 1.381 . S
C184 C185 1.321 . S
C185 C184 1.321 . S
C185 C186 1.403 . S
C185 H206 0.934 . S
C186 C181 1.413 . S
C186 C185 1.403 . S
C186 H207 0.930 . S
C187 O198 1.275 . S
C187 O199 1.256 . S
O188 Ho168 2.322 . S
O188 C170 1.259 . S
O189 Ho169 2.346 . S
O189 C170 1.268 . S
O190 Ho168 2.378 . S
O190 C171 1.215 . S
O191 Ho168 2.524 . S
O191 C171 1.289 . S
O192 Ho168 2.381 . S
O192 C178 1.275 . S
O193 Ho168 2.669 . S
O193 Ho169 2.305 . S
O193 C178 1.256 . S
O194 Ho169 2.322 . S
O194 C179 1.259 . S
O195 Ho168 2.346 . S
O195 C179 1.268 . S
O196 Ho169 2.378 . S
O196 C180 1.215 . S
O197 Ho169 2.524 . S
O197 C180 1.289 . S
O198 Ho169 2.381 . S
O198 C187 1.275 . S
O199 Ho168 2.305 . S
O199 Ho169 2.669 . S
O199 C187 1.256 . S
H200 C173 0.930 . S
H201 C174 0.931 . S
H202 C176 0.934 . S
H203 C177 0.930 . S
H204 C182 0.930 . S
H205 C183 0.931 . S
H206 C185 0.934 . S
H207 C186 0.930 . S
Ho208 C211 2.811 . S
Ho208 O228 2.322 . S
Ho208 O230 2.378 . S
Ho208 O231 2.524 . S
Ho208 O232 2.381 . S
Ho208 O233 2.669 1_655 S
Ho208 O235 2.346 1_655 S
Ho208 O239 2.316 . S
Ho209 C220 2.811 . S
Ho209 O229 2.346 1_455 S
Ho209 O233 2.305 . S
Ho209 O234 2.322 . S
Ho209 O236 2.378 . S
Ho209 O237 2.524 . S
Ho209 O238 2.381 . S
Ho209 O239 2.648 1_455 S
C210 O228 1.259 . S
C210 O229 1.268 . S
C211 Ho208 2.811 . S
C211 C212 1.488 . S
C211 O230 1.215 . S
C211 O231 1.289 . S
C212 C211 1.488 . S
C212 C213 1.348 . S
C212 C217 1.413 . S
C213 C212 1.348 . S
C213 C214 1.442 . S
C213 H240 0.930 . S
C214 C213 1.442 . S
C214 C215 1.381 . S
C214 H241 0.931 . S
C215 C214 1.381 . S
C215 C216 1.321 . S
C216 C215 1.321 . S
C216 C217 1.403 . S
C216 H242 0.934 . S
C217 C212 1.413 . S
C217 C216 1.403 . S
C217 H243 0.930 . S
C218 O232 1.275 1_455 S
C218 O233 1.256 . S
C219 O234 1.259 . S
C219 O235 1.268 . S
C220 Ho209 2.811 . S
C220 C221 1.488 . S
C220 O236 1.215 . S
C220 O237 1.289 . S
C221 C220 1.488 . S
C221 C222 1.348 . S
C221 C226 1.413 . S
C222 C221 1.348 . S
C222 C223 1.442 . S
C222 H244 0.930 . S
C223 C222 1.442 . S
C223 C224 1.381 . S
C223 H245 0.931 . S
C224 C223 1.381 . S
C224 C225 1.321 . S
C225 C224 1.321 . S
C225 C226 1.403 . S
C225 H246 0.934 . S
C226 C221 1.413 . S
C226 C225 1.403 . S
C226 H247 0.930 . S
C227 O238 1.275 . S
C227 O239 1.241 1_455 S
O228 Ho208 2.322 . S
O228 C210 1.259 . S
O229 Ho209 2.346 1_655 S
O229 C210 1.268 . S
O230 Ho208 2.378 . S
O230 C211 1.215 . S
O231 Ho208 2.524 . S
O231 C211 1.289 . S
O232 Ho208 2.381 . S
O232 C218 1.275 1_655 S
O233 Ho208 2.669 1_455 S
O233 Ho209 2.305 . S
O233 C218 1.256 . S
O234 Ho209 2.322 . S
O234 C219 1.259 . S
O235 Ho208 2.346 1_455 S
O235 C219 1.268 . S
O236 Ho209 2.378 . S
O236 C220 1.215 . S
O237 Ho209 2.524 . S
O237 C220 1.289 . S
O238 Ho209 2.381 . S
O238 C227 1.275 . S
O239 Ho208 2.316 . S
O239 Ho209 2.648 1_655 S
O239 C227 1.241 1_655 S
H240 C213 0.930 . S
H241 C214 0.931 . S
H242 C216 0.934 . S
H243 C217 0.930 . S
H244 C222 0.930 . S
H245 C223 0.931 . S
H246 C225 0.934 . S
H247 C226 0.930 . S
H248 C266 0.951 . S
H249 C268 0.951 . S
H250 C270 0.950 . S
H251 C271 0.950 . S
H252 C273 0.950 . S
H253 C276 0.950 . S
H254 C277 0.950 . S
H255 C279 0.950 . S
H256 C280 0.950 . S
H257 C281 0.951 . S
H258 C283 0.951 . S
H259 C285 0.950 . S
H260 C286 0.950 . S
H261 C288 0.950 . S
H262 C291 0.950 . S
H263 C292 0.950 . S
H264 C294 0.950 . S
H265 C295 0.950 . S
C266 H248 0.951 . S
C266 C267 1.366 . S
C266 C268 1.388 . S
C267 C266 1.366 . S
C267 C271 1.385 . S
C268 H249 0.951 . S
C268 C266 1.388 . S
C268 C269 1.366 . S
C269 C268 1.366 . S
C269 C270 1.414 . S
C269 C272 1.499 . S
C270 H250 0.950 . S
C270 C269 1.414 . S
C270 C271 1.374 . S
C271 H251 0.950 . S
C271 C267 1.385 . S
C271 C270 1.374 . S
C272 C269 1.499 . S
C272 C273 1.373 1_545 S
C272 C274 1.389 . S
C273 H252 0.950 . S
C273 C272 1.373 1_565 S
C273 C289 1.377 . S
C274 C272 1.389 . S
C274 C275 1.524 . S
C274 C288 1.377 . S
C275 C274 1.524 . S
C275 C276 1.397 . S
C275 C280 1.363 . S
C276 H253 0.950 . S
C276 C275 1.397 . S
C276 C277 1.334 . S
C277 H254 0.950 . S
C277 C276 1.334 . S
C277 C278 1.287 . S
C278 C277 1.287 . S
C278 C279 1.524 . S
C278 H297 0.913 . S
C279 H255 0.950 . S
C279 C278 1.524 . S
C279 C280 1.415 . S
C280 H256 0.950 . S
C280 C275 1.363 . S
C280 C279 1.415 . S
C281 H257 0.951 . S
C281 C282 1.366 . S
C281 C283 1.388 . S
C282 C281 1.366 . S
C282 C286 1.385 . S
C283 H258 0.951 . S
C283 C281 1.388 . S
C283 C284 1.366 . S
C284 C283 1.366 . S
C284 C285 1.414 . S
C284 C287 1.499 . S
C285 H259 0.950 . S
C285 C284 1.414 . S
C285 C286 1.374 . S
C286 H260 0.950 . S
C286 C282 1.385 . S
C286 C285 1.374 . S
C287 C284 1.499 . S
C287 C288 1.373 . S
C287 C289 1.389 1_545 S
C288 H261 0.950 . S
C288 C274 1.377 . S
C288 C287 1.373 . S
C289 C273 1.377 . S
C289 C287 1.389 1_565 S
C289 C290 1.524 . S
C290 C289 1.524 . S
C290 C291 1.397 . S
C290 C295 1.363 . S
C291 H262 0.950 . S
C291 C290 1.397 . S
C291 C292 1.334 . S
C292 H263 0.950 . S
C292 C291 1.334 . S
C292 C293 1.287 . S
C293 C292 1.287 . S
C293 C294 1.524 . S
C293 H296 0.999 . S
C294 H264 0.950 . S
C294 C293 1.524 . S
C294 C295 1.415 . S
C295 H265 0.950 . S
C295 C290 1.363 . S
C295 C294 1.415 . S
H296 C293 0.999 . S
H297 C278 0.913 . S
H298 C316 0.951 . S
H299 C318 0.951 . S
H300 C320 0.950 . S
H301 C321 0.950 . S
H302 C323 0.950 . S
H303 C326 0.950 . S
H304 C327 0.950 . S
H305 C329 0.950 . S
H306 C330 0.950 . S
H307 C331 0.951 . S
H308 C333 0.951 . S
H309 C335 0.950 . S
H310 C336 0.950 . S
H311 C338 0.950 . S
H312 C341 0.950 . S
H313 C342 0.950 . S
H314 C344 0.950 . S
H315 C345 0.950 . S
C316 H298 0.951 . S
C316 C317 1.366 . S
C316 C318 1.388 . S
C317 C316 1.366 . S
C317 C321 1.385 . S
C318 H299 0.951 . S
C318 C316 1.388 . S
C318 C319 1.366 . S
C319 C318 1.366 . S
C319 C320 1.414 . S
C319 C322 1.499 . S
C320 H300 0.950 . S
C320 C319 1.414 . S
C320 C321 1.374 . S
C321 H301 0.950 . S
C321 C317 1.385 . S
C321 C320 1.374 . S
C322 C319 1.499 . S
C322 C323 1.373 . S
C322 C324 1.389 . S
C323 H302 0.950 . S
C323 C322 1.373 . S
C323 C339 1.377 . S
C324 C322 1.389 . S
C324 C325 1.524 . S
C324 C338 1.377 . S
C325 C324 1.524 . S
C325 C326 1.397 . S
C325 C330 1.363 . S
C326 H303 0.950 . S
C326 C325 1.397 . S
C326 C327 1.334 . S
C327 H304 0.950 . S
C327 C326 1.334 . S
C327 C328 1.287 . S
C328 C327 1.287 . S
C328 C329 1.524 . S
C328 H347 0.913 . S
C329 H305 0.950 . S
C329 C328 1.524 . S
C329 C330 1.415 . S
C330 H306 0.950 . S
C330 C325 1.363 . S
C330 C329 1.415 . S
C331 H307 0.951 . S
C331 C332 1.366 . S
C331 C333 1.388 . S
C332 C331 1.366 . S
C332 C336 1.385 . S
C333 H308 0.951 . S
C333 C331 1.388 . S
C333 C334 1.366 . S
C334 C333 1.366 . S
C334 C335 1.414 . S
C334 C337 1.499 . S
C335 H309 0.950 . S
C335 C334 1.414 . S
C335 C336 1.374 . S
C336 H310 0.950 . S
C336 C332 1.385 . S
C336 C335 1.374 . S
C337 C334 1.499 . S
C337 C338 1.373 . S
C337 C339 1.389 . S
C338 H311 0.950 . S
C338 C324 1.377 . S
C338 C337 1.373 . S
C339 C323 1.377 . S
C339 C337 1.389 . S
C339 C340 1.524 . S
C340 C339 1.524 . S
C340 C341 1.397 . S
C340 C345 1.363 . S
C341 H312 0.950 . S
C341 C340 1.397 . S
C341 C342 1.334 . S
C342 H313 0.950 . S
C342 C341 1.334 . S
C342 C343 1.287 . S
C343 C342 1.287 . S
C343 C344 1.524 . S
C343 H346 0.999 . S
C344 H314 0.950 . S
C344 C343 1.524 . S
C344 C345 1.415 . S
C345 H315 0.950 . S
C345 C340 1.363 . S
C345 C344 1.415 . S
H346 C343 0.999 . S
H347 C328 0.913 . S
H348 C366 0.951 . S
H349 C368 0.951 . S
H350 C370 0.950 . S
H351 C371 0.950 . S
H352 C373 0.950 . S
H353 C376 0.950 . S
H354 C377 0.950 . S
H355 C379 0.950 . S
H356 C380 0.950 . S
H357 C381 0.951 . S
H358 C383 0.951 . S
H359 C385 0.950 . S
H360 C386 0.950 . S
H361 C388 0.950 . S
H362 C391 0.950 . S
H363 C392 0.950 . S
H364 C394 0.950 . S
H365 C395 0.950 . S
C366 H348 0.951 . S
C366 C367 1.366 . S
C366 C368 1.388 . S
C367 C366 1.366 . S
C367 C371 1.385 . S
C368 H349 0.951 . S
C368 C366 1.388 . S
C368 C369 1.366 . S
C369 C368 1.366 . S
C369 C370 1.414 . S
C369 C372 1.499 . S
C370 H350 0.950 . S
C370 C369 1.414 . S
C370 C371 1.374 . S
C371 H351 0.950 . S
C371 C367 1.385 . S
C371 C370 1.374 . S
C372 C369 1.499 . S
C372 C373 1.373 . S
C372 C374 1.389 . S
C373 H352 0.950 . S
C373 C372 1.373 . S
C373 C389 1.377 . S
C374 C372 1.389 . S
C374 C375 1.524 . S
C374 C388 1.377 . S
C375 C374 1.524 . S
C375 C376 1.397 . S
C375 C380 1.363 . S
C376 H353 0.950 . S
C376 C375 1.397 . S
C376 C377 1.334 . S
C377 H354 0.950 . S
C377 C376 1.334 . S
C377 C378 1.287 . S
C378 C377 1.287 . S
C378 C379 1.524 . S
C378 H397 0.913 . S
C379 H355 0.950 . S
C379 C378 1.524 . S
C379 C380 1.415 . S
C380 H356 0.950 . S
C380 C375 1.363 . S
C380 C379 1.415 . S
C381 H357 0.951 . S
C381 C382 1.366 . S
C381 C383 1.388 . S
C382 C381 1.366 . S
C382 C386 1.385 . S
C383 H358 0.951 . S
C383 C381 1.388 . S
C383 C384 1.366 . S
C384 C383 1.366 . S
C384 C385 1.414 . S
C384 C387 1.499 . S
C385 H359 0.950 . S
C385 C384 1.414 . S
C385 C386 1.374 . S
C386 H360 0.950 . S
C386 C382 1.385 . S
C386 C385 1.374 . S
C387 C384 1.499 . S
C387 C388 1.373 . S
C387 C389 1.389 . S
C388 H361 0.950 . S
C388 C374 1.377 . S
C388 C387 1.373 . S
C389 C373 1.377 . S
C389 C387 1.389 . S
C389 C390 1.524 . S
C390 C389 1.524 . S
C390 C391 1.397 . S
C390 C395 1.363 . S
C391 H362 0.950 . S
C391 C390 1.397 . S
C391 C392 1.334 . S
C392 H363 0.950 . S
C392 C391 1.334 . S
C392 C393 1.287 . S
C393 C392 1.287 . S
C393 C394 1.524 . S
C393 H396 0.999 . S
C394 H364 0.950 . S
C394 C393 1.524 . S
C394 C395 1.415 . S
C395 H365 0.950 . S
C395 C390 1.363 . S
C395 C394 1.415 . S
H396 C393 0.999 . S
H397 C378 0.913 . S
H398 C416 0.951 . S
H399 C418 0.951 . S
H400 C420 0.950 . S
H401 C421 0.950 . S
H402 C423 0.950 . S
H403 C426 0.950 . S
H404 C427 0.950 . S
H405 C429 0.950 . S
H406 C430 0.950 . S
H407 C431 0.951 . S
H408 C433 0.951 . S
H409 C435 0.950 . S
H410 C436 0.950 . S
H411 C438 0.950 . S
H412 C441 0.950 . S
H413 C442 0.950 . S
H414 C444 0.950 . S
H415 C445 0.950 . S
C416 H398 0.951 . S
C416 C417 1.366 . S
C416 C418 1.388 . S
C417 C416 1.366 . S
C417 C421 1.385 . S
C418 H399 0.951 . S
C418 C416 1.388 . S
C418 C419 1.366 . S
C419 C418 1.366 . S
C419 C420 1.414 . S
C419 C422 1.499 . S
C420 H400 0.950 . S
C420 C419 1.414 . S
C420 C421 1.374 . S
C421 H401 0.950 . S
C421 C417 1.385 . S
C421 C420 1.374 . S
C422 C419 1.499 . S
C422 C423 1.373 1_455 S
C422 C424 1.389 . S
C423 H402 0.950 . S
C423 C422 1.373 1_655 S
C423 C439 1.377 . S
C424 C422 1.389 . S
C424 C425 1.524 . S
C424 C438 1.377 . S
C425 C424 1.524 . S
C425 C426 1.397 . S
C425 C430 1.363 . S
C426 H403 0.950 . S
C426 C425 1.397 . S
C426 C427 1.334 . S
C427 H404 0.950 . S
C427 C426 1.334 . S
C427 C428 1.287 . S
C428 C427 1.287 . S
C428 C429 1.524 . S
C428 H447 0.913 . S
C429 H405 0.950 . S
C429 C428 1.524 . S
C429 C430 1.415 . S
C430 H406 0.950 . S
C430 C425 1.363 . S
C430 C429 1.415 . S
C431 H407 0.951 . S
C431 C432 1.366 . S
C431 C433 1.388 . S
C432 C431 1.366 . S
C432 C436 1.385 . S
C433 H408 0.951 . S
C433 C431 1.388 . S
C433 C434 1.366 . S
C434 C433 1.366 . S
C434 C435 1.414 . S
C434 C437 1.499 . S
C435 H409 0.950 . S
C435 C434 1.414 . S
C435 C436 1.374 . S
C436 H410 0.950 . S
C436 C432 1.385 . S
C436 C435 1.374 . S
C437 C434 1.499 . S
C437 C438 1.373 . S
C437 C439 1.389 1_455 S
C438 H411 0.950 . S
C438 C424 1.377 . S
C438 C437 1.373 . S
C439 C423 1.377 . S
C439 C437 1.389 1_655 S
C439 C440 1.524 . S
C440 C439 1.524 . S
C440 C441 1.397 . S
C440 C445 1.363 . S
C441 H412 0.950 . S
C441 C440 1.397 . S
C441 C442 1.334 . S
C442 H413 0.950 . S
C442 C441 1.334 . S
C442 C443 1.287 . S
C443 C442 1.287 . S
C443 C444 1.524 . S
C443 H446 0.999 . S
C444 H414 0.950 . S
C444 C443 1.524 . S
C444 C445 1.415 . S
C445 H415 0.950 . S
C445 C440 1.363 . S
C445 C444 1.415 . S
H446 C443 0.999 . S
H447 C428 0.913 . S
H448 C466 0.951 . S
H449 C468 0.951 . S
H450 C470 0.950 . S
H451 C471 0.950 . S
H452 C473 0.950 . S
H453 C476 0.950 . S
H454 C477 0.950 . S
H455 C479 0.950 . S
H456 C480 0.950 . S
H457 C481 0.951 . S
H458 C483 0.951 . S
H459 C485 0.950 . S
H460 C486 0.960 . S
H461 C488 0.952 . S
H462 C491 0.950 . S
H463 C492 0.950 . S
H464 C494 0.950 . S
H465 C495 0.950 . S
C466 H448 0.951 . S
C466 C467 1.372 . S
C466 C468 1.388 . S
C467 C466 1.372 . S
C467 C471 1.378 1_565 S
C468 H449 0.951 . S
C468 C466 1.388 . S
C468 C469 1.356 1_565 S
C469 C468 1.356 1_545 S
C469 C470 1.422 . S
C469 C472 1.502 . S
C470 H450 0.950 . S
C470 C469 1.422 . S
C470 C471 1.374 . S
C471 H451 0.950 . S
C471 C467 1.378 1_545 S
C471 C470 1.374 . S
C472 C469 1.502 . S
C472 C473 1.373 1_544 S
C472 C474 1.389 . S
C473 H452 0.950 . S
C473 C472 1.373 1_566 S
C473 C489 1.377 . S
C474 C472 1.389 . S
C474 C475 1.524 . S
C474 C488 1.384 . S
C475 C474 1.524 . S
C475 C476 1.397 . S
C475 C480 1.363 . S
C476 H453 0.950 . S
C476 C475 1.397 . S
C476 C477 1.334 . S
C477 H454 0.950 . S
C477 C476 1.334 . S
C477 C478 1.287 . S
C478 C477 1.287 . S
C478 C479 1.524 . S
C478 H497 0.913 . S
C479 H455 0.950 . S
C479 C478 1.524 . S
C479 C480 1.415 . S
C480 H456 0.950 . S
C480 C475 1.363 . S
C480 C479 1.415 . S
C481 H457 0.951 . S
C481 C482 1.366 . S
C481 C483 1.388 . S
C482 C481 1.366 . S
C482 C486 1.376 1_545 S
C483 H458 0.951 . S
C483 C481 1.388 . S
C483 C484 1.369 . S
C484 C483 1.369 . S
C484 C485 1.412 1_545 S
C484 C487 1.498 1_545 S
C485 H459 0.950 . S
C485 C484 1.412 1_565 S
C485 C486 1.377 . S
C486 H460 0.960 . S
C486 C482 1.376 1_565 S
C486 C485 1.377 . S
C487 C484 1.498 1_565 S
C487 C488 1.362 1_566 S
C487 C489 1.391 . S
C488 H461 0.952 . S
C488 C474 1.384 . S
C488 C487 1.362 1_544 S
C489 C473 1.377 . S
C489 C487 1.391 . S
C489 C490 1.524 . S
C490 C489 1.524 . S
C490 C491 1.397 . S
C490 C495 1.363 . S
C491 H462 0.950 . S
C491 C490 1.397 . S
C491 C492 1.334 . S
C492 H463 0.950 . S
C492 C491 1.334 . S
C492 C493 1.287 . S
C493 C492 1.287 . S
C493 C494 1.524 . S
C493 H496 0.999 . S
C494 H464 0.950 . S
C494 C493 1.524 . S
C494 C495 1.415 . S
C495 H465 0.950 . S
C495 C490 1.363 . S
C495 C494 1.415 . S
H496 C493 0.999 . S
H497 C478 0.913 . S
H498 C516 0.951 . S
H499 C518 0.951 . S
H500 C520 0.950 . S
H501 C521 0.950 . S
H502 C523 0.950 . S
H503 C526 0.950 1_554 S
H504 C527 0.950 1_554 S
H505 C529 0.950 . S
H506 C530 0.950 . S
H507 C531 0.951 . S
H508 C533 0.951 . S
H509 C535 0.950 . S
H510 C536 0.950 . S
H511 C538 0.950 . S
H512 C541 0.950 . S
H513 C542 0.950 1_556 S
H514 C544 0.950 . S
H515 C545 0.950 . S
C516 H498 0.951 . S
C516 C517 1.366 . S
C516 C518 1.388 . S
C517 C516 1.366 . S
C517 C521 1.385 . S
C518 H499 0.951 . S
C518 C516 1.388 . S
C518 C519 1.366 . S
C519 C518 1.366 . S
C519 C520 1.414 . S
C519 C522 1.499 . S
C520 H500 0.950 . S
C520 C519 1.414 . S
C520 C521 1.374 . S
C521 H501 0.950 . S
C521 C517 1.385 . S
C521 C520 1.374 . S
C522 C519 1.499 . S
C522 C523 1.373 . S
C522 C524 1.389 1_554 S
C523 H502 0.950 . S
C523 C522 1.373 . S
C523 C539 1.377 . S
C524 C522 1.389 1_556 S
C524 C525 1.524 . S
C524 C538 1.377 . S
C525 C524 1.524 . S
C525 C526 1.397 . S
C525 C530 1.363 . S
C526 H503 0.950 1_556 S
C526 C525 1.397 . S
C526 C527 1.334 . S
C527 H504 0.950 1_556 S
C527 C526 1.334 . S
C527 C528 1.287 . S
C528 C527 1.287 . S
C528 C529 1.524 . S
C528 H547 0.913 . S
C529 H505 0.950 . S
C529 C528 1.524 . S
C529 C530 1.415 . S
C530 H506 0.950 . S
C530 C525 1.363 . S
C530 C529 1.415 . S
C531 H507 0.951 . S
C531 C532 1.366 . S
C531 C533 1.388 . S
C532 C531 1.366 . S
C532 C536 1.385 . S
C533 H508 0.951 . S
C533 C531 1.388 . S
C533 C534 1.366 . S
C534 C533 1.366 . S
C534 C535 1.414 . S
C534 C537 1.499 . S
C535 H509 0.950 . S
C535 C534 1.414 . S
C535 C536 1.374 . S
C536 H510 0.950 . S
C536 C532 1.385 . S
C536 C535 1.374 . S
C537 C534 1.499 . S
C537 C538 1.373 . S
C537 C539 1.389 1_556 S
C538 H511 0.950 . S
C538 C524 1.377 . S
C538 C537 1.373 . S
C539 C523 1.377 . S
C539 C537 1.389 1_554 S
C539 C540 1.524 . S
C540 C539 1.524 . S
C540 C541 1.397 1_554 S
C540 C545 1.363 . S
C541 H512 0.950 . S
C541 C540 1.397 1_556 S
C541 C542 1.334 1_556 S
C542 H513 0.950 1_554 S
C542 C541 1.334 1_554 S
C542 C543 1.287 . S
C543 C542 1.287 . S
C543 C544 1.524 . S
C543 H546 0.999 . S
C544 H514 0.950 . S
C544 C543 1.524 . S
C544 C545 1.415 . S
C545 H515 0.950 . S
C545 C540 1.363 . S
C545 C544 1.415 . S
H546 C543 0.999 . S
H547 C528 0.913 . S
H548 C566 0.951 . S
H549 C568 0.951 . S
H550 C570 0.950 . S
H551 C571 0.950 . S
H552 C573 0.950 . S
H553 C576 0.950 . S
H554 C577 0.950 . S
H555 C579 0.950 . S
H556 C580 0.950 . S
H557 C581 0.951 . S
H558 C583 0.951 . S
H559 C585 0.950 . S
H560 C586 0.950 . S
H561 C588 0.950 . S
H562 C591 0.950 . S
H563 C592 0.950 . S
H564 C594 0.950 . S
H565 C595 0.950 . S
C566 H548 0.951 . S
C566 C567 1.366 . S
C566 C568 1.388 . S
C567 C566 1.366 . S
C567 C571 1.385 . S
C568 H549 0.951 . S
C568 C566 1.388 . S
C568 C569 1.366 . S
C569 C568 1.366 . S
C569 C570 1.414 . S
C569 C572 1.499 . S
C570 H550 0.950 . S
C570 C569 1.414 . S
C570 C571 1.374 . S
C571 H551 0.950 . S
C571 C567 1.385 . S
C571 C570 1.374 . S
C572 C569 1.499 . S
C572 C573 1.373 . S
C572 C574 1.389 1_554 S
C573 H552 0.950 . S
C573 C572 1.373 . S
C573 C589 1.377 1_554 S
C574 C572 1.389 1_556 S
C574 C575 1.524 . S
C574 C588 1.377 . S
C575 C574 1.524 . S
C575 C576 1.397 1_556 S
C575 C580 1.363 . S
C576 H553 0.950 . S
C576 C575 1.397 1_554 S
C576 C577 1.334 . S
C577 H554 0.950 . S
C577 C576 1.334 . S
C577 C578 1.287 1_554 S
C578 C577 1.287 1_556 S
C578 C579 1.524 . S
C578 H597 0.913 . S
C579 H555 0.950 . S
C579 C578 1.524 . S
C579 C580 1.415 . S
C580 H556 0.950 . S
C580 C575 1.363 . S
C580 C579 1.415 . S
C581 H557 0.951 . S
C581 C582 1.366 . S
C581 C583 1.388 . S
C582 C581 1.366 . S
C582 C586 1.385 . S
C583 H558 0.951 . S
C583 C581 1.388 . S
C583 C584 1.366 . S
C584 C583 1.366 . S
C584 C585 1.414 . S
C584 C587 1.499 . S
C585 H559 0.950 . S
C585 C584 1.414 . S
C585 C586 1.374 . S
C586 H560 0.950 . S
C586 C582 1.385 . S
C586 C585 1.374 . S
C587 C584 1.499 . S
C587 C588 1.373 . S
C587 C589 1.389 . S
C588 H561 0.950 . S
C588 C574 1.377 . S
C588 C587 1.373 . S
C589 C573 1.377 1_556 S
C589 C587 1.389 . S
C589 C590 1.525 1_556 S
C590 C589 1.525 1_554 S
C590 C591 1.397 1_554 S
C590 C595 1.363 . S
C591 H562 0.950 . S
C591 C590 1.397 1_556 S
C591 C592 1.334 . S
C592 H563 0.950 . S
C592 C591 1.334 . S
C592 C593 1.287 1_556 S
C593 C592 1.287 1_554 S
C593 C594 1.524 . S
C593 H596 0.999 . S
C594 H564 0.950 . S
C594 C593 1.524 . S
C594 C595 1.415 . S
C595 H565 0.950 . S
C595 C590 1.363 . S
C595 C594 1.415 . S
H596 C593 0.999 . S
H597 C578 0.913 . S
H598 C616 0.951 . S
H599 C618 0.951 . S
H600 C620 0.950 . S
H601 C621 0.950 . S
H602 C623 0.950 . S
H603 C626 0.950 1_655 S
H604 C627 0.950 . S
H605 C629 0.950 . S
H606 C630 0.950 . S
H607 C631 0.951 . S
H608 C633 0.951 . S
H609 C635 0.950 . S
H610 C636 0.950 . S
H611 C638 0.950 . S
H612 C641 0.950 1_455 S
H613 C642 0.950 . S
H614 C644 0.950 . S
H615 C645 0.950 . S
C616 H598 0.951 . S
C616 C617 1.327 1_455 S
C616 C618 1.388 . S
C617 C616 1.327 1_655 S
C617 C621 1.423 . S
C618 H599 0.951 . S
C618 C616 1.388 . S
C618 C619 1.362 1_455 S
C619 C618 1.362 1_655 S
C619 C620 1.417 . S
C619 C622 1.499 . S
C620 H600 0.950 . S
C620 C619 1.417 . S
C620 C621 1.374 . S
C621 H601 0.950 . S
C621 C617 1.423 . S
C621 C620 1.374 . S
C622 C619 1.499 . S
C622 C623 1.384 . S
C622 C624 1.378 1_654 S
C623 H602 0.950 . S
C623 C622 1.384 . S
C623 C639 1.377 . S
C624 C622 1.378 1_456 S
C624 C625 1.524 . S
C624 C638 1.377 . S
C625 C624 1.524 . S
C625 C626 1.397 . S
C625 C630 1.363 . S
C626 H603 0.950 1_455 S
C626 C625 1.397 . S
C626 C627 1.334 . S
C627 H604 0.950 . S
C627 C626 1.334 . S
C627 C628 1.287 . S
C628 C627 1.287 . S
C628 C629 1.524 . S
C628 H647 0.913 . S
C629 H605 0.950 . S
C629 C628 1.524 . S
C629 C630 1.415 . S
C630 H606 0.950 . S
C630 C625 1.363 . S
C630 C629 1.415 . S
C631 H607 0.951 . S
C631 C632 1.366 1_655 S
C631 C633 1.388 . S
C632 C631 1.366 1_455 S
C632 C636 1.385 . S
C633 H608 0.951 . S
C633 C631 1.388 . S
C633 C634 1.366 1_655 S
C634 C633 1.366 1_455 S
C634 C635 1.414 . S
C634 C637 1.499 . S
C635 H609 0.950 . S
C635 C634 1.414 . S
C635 C636 1.374 . S
C636 H610 0.950 . S
C636 C632 1.385 . S
C636 C635 1.374 . S
C637 C634 1.499 . S
C637 C638 1.373 . S
C637 C639 1.389 1_456 S
C638 H611 0.950 . S
C638 C624 1.377 . S
C638 C637 1.373 . S
C639 C623 1.377 . S
C639 C637 1.389 1_654 S
C639 C640 1.524 . S
C640 C639 1.524 . S
C640 C641 1.397 . S
C640 C645 1.363 . S
C641 H612 0.950 1_655 S
C641 C640 1.397 . S
C641 C642 1.334 . S
C642 H613 0.950 . S
C642 C641 1.334 . S
C642 C643 1.287 . S
C643 C642 1.287 . S
C643 C644 1.524 . S
C643 H646 0.999 . S
C644 H614 0.950 . S
C644 C643 1.524 . S
C644 C645 1.415 . S
C645 H615 0.950 . S
C645 C640 1.363 . S
C645 C644 1.415 . S
H646 C643 0.999 . S
H647 C628 0.913 . S
H648 C666 0.951 . S
H649 C668 0.951 . S
H650 C670 0.950 . S
H651 C671 0.950 . S
H652 C673 0.950 . S
H653 C676 0.950 . S
H654 C677 0.950 . S
H655 C679 0.950 . S
H656 C680 0.950 . S
H657 C681 0.951 1_455 S
H658 C683 0.951 . S
H659 C685 0.950 . S
H660 C686 0.950 . S
H661 C688 0.950 . S
H662 C691 0.950 1_655 S
H663 C692 0.950 . S
H664 C694 0.950 . S
H665 C695 0.950 . S
C666 H648 0.951 . S
C666 C667 1.366 1_655 S
C666 C668 1.388 . S
C667 C666 1.366 1_455 S
C667 C671 1.385 . S
C668 H649 0.951 . S
C668 C666 1.388 . S
C668 C669 1.366 1_655 S
C669 C668 1.366 1_455 S
C669 C670 1.414 . S
C669 C672 1.499 1_455 S
C670 H650 0.950 . S
C670 C669 1.414 . S
C670 C671 1.374 . S
C671 H651 0.950 . S
C671 C667 1.385 . S
C671 C670 1.374 . S
C672 C669 1.499 1_655 S
C672 C673 1.373 1_655 S
C672 C674 1.389 . S
C673 H652 0.950 . S
C673 C672 1.373 1_455 S
C673 C689 1.377 . S
C674 C672 1.389 . S
C674 C675 1.524 . S
C674 C688 1.377 . S
C675 C674 1.524 . S
C675 C676 1.397 . S
C675 C680 1.363 . S
C676 H653 0.950 . S
C676 C675 1.397 . S
C676 C677 1.334 . S
C677 H654 0.950 . S
C677 C676 1.334 . S
C677 C678 1.287 . S
C678 C677 1.287 . S
C678 C679 1.524 . S
C678 H697 0.913 . S
C679 H655 0.950 . S
C679 C678 1.524 . S
C679 C680 1.415 . S
C680 H656 0.950 . S
C680 C675 1.363 . S
C680 C679 1.415 . S
C681 H657 0.951 1_655 S
C681 C682 1.366 . S
C681 C683 1.388 1_655 S
C682 C681 1.366 . S
C682 C686 1.385 . S
C683 H658 0.951 . S
C683 C681 1.388 1_455 S
C683 C684 1.366 1_455 S
C684 C683 1.366 1_655 S
C684 C685 1.414 . S
C684 C687 1.499 . S
C685 H659 0.950 . S
C685 C684 1.414 . S
C685 C686 1.374 . S
C686 H660 0.950 . S
C686 C682 1.385 . S
C686 C685 1.374 . S
C687 C684 1.499 . S
C687 C688 1.373 . S
C687 C689 1.389 1_655 S
C688 H661 0.950 . S
C688 C674 1.377 . S
C688 C687 1.373 . S
C689 C673 1.377 . S
C689 C687 1.389 1_455 S
C689 C690 1.524 . S
C690 C689 1.524 . S
C690 C691 1.397 . S
C690 C695 1.363 . S
C691 H662 0.950 1_455 S
C691 C690 1.397 . S
C691 C692 1.334 . S
C692 H663 0.950 . S
C692 C691 1.334 . S
C692 C693 1.287 . S
C693 C692 1.287 . S
C693 C694 1.524 . S
C693 H696 0.999 . S
C694 H664 0.950 . S
C694 C693 1.524 . S
C694 C695 1.415 . S
C695 H665 0.950 . S
C695 C690 1.363 . S
C695 C694 1.415 . S
H696 C693 0.999 . S
H697 C678 0.913 . S
H698 C716 0.951 . S
H699 C718 0.951 . S
H700 C720 0.950 . S
H701 C721 0.945 1_565 S
H702 C723 0.950 . S
H703 C726 0.950 . S
H704 C727 0.950 . S
H705 C729 0.950 1_556 S
H706 C730 0.950 . S
H707 C731 0.951 . S
H708 C733 0.951 . S
H709 C735 0.949 1_545 S
H710 C736 0.950 . S
H711 C738 0.950 . S
H712 C741 0.950 . S
H713 C742 0.950 . S
H714 C744 0.950 . S
H715 C745 0.950 1_565 S
C716 H698 0.951 . S
C716 C717 1.366 . S
C716 C718 1.388 . S
C717 C716 1.366 . S
C717 C721 1.393 . S
C718 H699 0.951 . S
C718 C716 1.388 . S
C718 C719 1.366 . S
C719 C718 1.366 . S
C719 C720 1.414 1_545 S
C719 C722 1.499 1_545 S
C720 H700 0.950 . S
C720 C719 1.414 1_565 S
C720 C721 1.370 1_565 S
C721 H701 0.945 1_545 S
C721 C717 1.393 . S
C721 C720 1.370 1_545 S
C722 C719 1.499 1_565 S
C722 C723 1.373 1_565 S
C722 C724 1.389 . S
C723 H702 0.950 . S
C723 C722 1.373 1_545 S
C723 C739 1.380 . S
C724 C722 1.389 . S
C724 C725 1.524 . S
C724 C738 1.377 . S
C725 C724 1.524 . S
C725 C726 1.397 . S
C725 C730 1.363 . S
C726 H703 0.950 . S
C726 C725 1.397 . S
C726 C727 1.334 . S
C727 H704 0.950 . S
C727 C726 1.334 . S
C727 C728 1.287 . S
C728 C727 1.287 . S
C728 C729 1.524 . S
C728 H747 0.913 1_554 S
C729 H705 0.950 1_554 S
C729 C728 1.524 . S
C729 C730 1.415 . S
C730 H706 0.950 . S
C730 C725 1.363 . S
C730 C729 1.415 . S
C731 H707 0.951 . S
C731 C732 1.366 . S
C731 C733 1.388 . S
C732 C731 1.366 . S
C732 C736 1.385 . S
C733 H708 0.951 . S
C733 C731 1.388 . S
C733 C734 1.366 . S
C734 C733 1.366 . S
C734 C735 1.414 . S
C734 C737 1.499 . S
C735 H709 0.949 1_565 S
C735 C734 1.414 . S
C735 C736 1.374 . S
C736 H710 0.950 . S
C736 C732 1.385 . S
C736 C735 1.374 . S
C737 C734 1.499 . S
C737 C738 1.373 . S
C737 C739 1.378 1_565 S
C738 H711 0.950 . S
C738 C724 1.377 . S
C738 C737 1.373 . S
C739 C723 1.380 . S
C739 C737 1.378 1_545 S
C739 C740 1.536 . S
C740 C739 1.536 . S
C740 C741 1.397 . S
C740 C745 1.363 . S
C741 H712 0.950 . S
C741 C740 1.397 . S
C741 C742 1.334 . S
C742 H713 0.950 . S
C742 C741 1.334 . S
C742 C743 1.287 . S
C743 C742 1.287 . S
C743 C744 1.524 . S
C743 H746 0.999 . S
C744 H714 0.950 . S
C744 C743 1.524 . S
C744 C745 1.415 . S
C745 H715 0.950 1_545 S
C745 C740 1.363 . S
C745 C744 1.415 . S
H746 C743 0.999 . S
H747 C728 0.913 1_556 S
H748 C766 0.951 . S
H749 C768 0.951 . S
H750 C770 0.950 . S
H751 C771 0.950 . S
H752 C773 0.950 . S
H753 C776 0.950 . S
H754 C777 0.950 . S
H755 C779 0.950 . S
H756 C780 0.950 . S
H757 C781 0.951 . S
H758 C783 0.951 . S
H759 C785 0.950 . S
H760 C786 0.950 . S
H761 C788 0.950 . S
H762 C791 0.950 . S
H763 C792 0.950 . S
H764 C794 0.950 . S
H765 C795 0.950 . S
C766 H748 0.951 . S
C766 C767 1.366 . S
C766 C768 1.388 . S
C767 C766 1.366 . S
C767 C771 1.385 . S
C768 H749 0.951 . S
C768 C766 1.388 . S
C768 C769 1.366 . S
C769 C768 1.366 . S
C769 C770 1.414 . S
C769 C772 1.499 . S
C770 H750 0.950 . S
C770 C769 1.414 . S
C770 C771 1.374 . S
C771 H751 0.950 . S
C771 C767 1.385 . S
C771 C770 1.374 . S
C772 C769 1.499 . S
C772 C773 1.373 . S
C772 C774 1.389 . S
C773 H752 0.950 . S
C773 C772 1.373 . S
C773 C789 1.377 . S
C774 C772 1.389 . S
C774 C775 1.524 . S
C774 C788 1.377 . S
C775 C774 1.524 . S
C775 C776 1.397 . S
C775 C780 1.363 . S
C776 H753 0.950 . S
C776 C775 1.397 . S
C776 C777 1.334 . S
C777 H754 0.950 . S
C777 C776 1.334 . S
C777 C778 1.287 . S
C778 C777 1.287 . S
C778 C779 1.524 . S
C778 H797 0.913 . S
C779 H755 0.950 . S
C779 C778 1.524 . S
C779 C780 1.415 . S
C780 H756 0.950 . S
C780 C775 1.363 . S
C780 C779 1.415 . S
C781 H757 0.951 . S
C781 C782 1.366 . S
C781 C783 1.388 . S
C782 C781 1.366 . S
C782 C786 1.385 . S
C783 H758 0.951 . S
C783 C781 1.388 . S
C783 C784 1.366 . S
C784 C783 1.366 . S
C784 C785 1.414 . S
C784 C787 1.499 . S
C785 H759 0.950 . S
C785 C784 1.414 . S
C785 C786 1.374 . S
C786 H760 0.950 . S
C786 C782 1.385 . S
C786 C785 1.374 . S
C787 C784 1.499 . S
C787 C788 1.373 . S
C787 C789 1.389 . S
C788 H761 0.950 . S
C788 C774 1.377 . S
C788 C787 1.373 . S
C789 C773 1.377 . S
C789 C787 1.389 . S
C789 C790 1.524 . S
C790 C789 1.524 . S
C790 C791 1.397 . S
C790 C795 1.363 . S
C791 H762 0.950 . S
C791 C790 1.397 . S
C791 C792 1.334 . S
C792 H763 0.950 . S
C792 C791 1.334 . S
C792 C793 1.287 . S
C793 C792 1.287 . S
C793 C794 1.524 . S
C793 H796 0.999 . S
C794 H764 0.950 . S
C794 C793 1.524 . S
C794 C795 1.415 . S
C795 H765 0.950 . S
C795 C790 1.363 . S
C795 C794 1.415 . S
H796 C793 0.999 . S
H797 C778 0.913 . S
H798 C816 0.951 . S
H799 C818 0.951 . S
H800 C820 0.950 . S
H801 C821 0.950 . S
H802 C823 0.950 . S
H803 C826 0.950 . S
H804 C827 0.950 . S
H805 C829 0.950 . S
H806 C830 0.950 . S
H807 C831 0.951 . S
H808 C833 0.951 . S
H809 C835 0.950 . S
H810 C836 0.950 . S
H811 C838 0.950 . S
H812 C841 0.950 . S
H813 C842 0.950 . S
H814 C844 0.950 . S
H815 C845 0.950 . S
C816 H798 0.951 . S
C816 C817 1.366 . S
C816 C818 1.388 . S
C817 C816 1.366 . S
C817 C821 1.385 . S
C818 H799 0.951 . S
C818 C816 1.388 . S
C818 C819 1.366 . S
C819 C818 1.366 . S
C819 C820 1.414 . S
C819 C822 1.499 . S
C820 H800 0.950 . S
C820 C819 1.414 . S
C820 C821 1.374 . S
C821 H801 0.950 . S
C821 C817 1.385 . S
C821 C820 1.374 . S
C822 C819 1.499 . S
C822 C823 1.373 . S
C822 C824 1.389 . S
C823 H802 0.950 . S
C823 C822 1.373 . S
C823 C839 1.377 . S
C824 C822 1.389 . S
C824 C825 1.524 . S
C824 C838 1.377 . S
C825 C824 1.524 . S
C825 C826 1.397 . S
C825 C830 1.363 . S
C826 H803 0.950 . S
C826 C825 1.397 . S
C826 C827 1.334 . S
C827 H804 0.950 . S
C827 C826 1.334 . S
C827 C828 1.287 . S
C828 C827 1.287 . S
C828 C829 1.524 . S
C828 H847 0.913 . S
C829 H805 0.950 . S
C829 C828 1.524 . S
C829 C830 1.415 . S
C830 H806 0.950 . S
C830 C825 1.363 . S
C830 C829 1.415 . S
C831 H807 0.951 . S
C831 C832 1.366 . S
C831 C833 1.388 . S
C832 C831 1.366 . S
C832 C836 1.385 . S
C833 H808 0.951 . S
C833 C831 1.388 . S
C833 C834 1.366 . S
C834 C833 1.366 . S
C834 C835 1.414 . S
C834 C837 1.499 . S
C835 H809 0.950 . S
C835 C834 1.414 . S
C835 C836 1.374 . S
C836 H810 0.950 . S
C836 C832 1.385 . S
C836 C835 1.374 . S
C837 C834 1.499 . S
C837 C838 1.373 . S
C837 C839 1.389 . S
C838 H811 0.950 . S
C838 C824 1.377 . S
C838 C837 1.373 . S
C839 C823 1.377 . S
C839 C837 1.389 . S
C839 C840 1.524 . S
C840 C839 1.524 . S
C840 C841 1.397 . S
C840 C845 1.363 . S
C841 H812 0.950 . S
C841 C840 1.397 . S
C841 C842 1.334 . S
C842 H813 0.950 . S
C842 C841 1.334 . S
C842 C843 1.287 . S
C843 C842 1.287 . S
C843 C844 1.524 . S
C843 H846 0.999 . S
C844 H814 0.950 . S
C844 C843 1.524 . S
C844 C845 1.415 . S
C845 H815 0.950 . S
C845 C840 1.363 . S
C845 C844 1.415 . S
H846 C843 0.999 . S
H847 C828 0.913 . S
H848 C866 0.951 . S
H849 C868 0.951 . S
H850 C870 0.950 . S
H851 C871 0.950 . S
H852 C873 0.950 . S
H853 C876 0.950 . S
H854 C877 0.950 . S
H855 C879 0.950 . S
H856 C880 0.950 . S
H857 C881 0.951 . S
H858 C883 0.951 1_654 S
H859 C885 0.950 . S
H860 C886 0.950 . S
H861 C888 0.950 . S
H862 C891 0.950 1_455 S
H863 C892 0.950 . S
H864 C894 0.950 . S
H865 C895 0.950 1_554 S
C866 H848 0.951 . S
C866 C867 1.366 1_455 S
C866 C868 1.388 . S
C867 C866 1.366 1_655 S
C867 C871 1.385 . S
C868 H849 0.951 . S
C868 C866 1.388 . S
C868 C869 1.366 . S
C869 C868 1.366 . S
C869 C870 1.414 1_455 S
C869 C872 1.499 . S
C870 H850 0.950 . S
C870 C869 1.414 1_655 S
C870 C871 1.374 . S
C871 H851 0.950 . S
C871 C867 1.385 . S
C871 C870 1.374 . S
C872 C869 1.499 . S
C872 C873 1.373 1_455 S
C872 C874 1.389 . S
C873 H852 0.950 . S
C873 C872 1.373 1_655 S
C873 C889 1.390 . S
C874 C872 1.389 . S
C874 C875 1.524 . S
C874 C888 1.377 . S
C875 C874 1.524 . S
C875 C876 1.397 . S
C875 C880 1.363 . S
C876 H853 0.950 . S
C876 C875 1.397 . S
C876 C877 1.334 . S
C877 H854 0.950 . S
C877 C876 1.334 . S
C877 C878 1.287 . S
C878 C877 1.287 . S
C878 C879 1.524 . S
C878 H897 0.913 . S
C879 H855 0.950 . S
C879 C878 1.524 . S
C879 C880 1.415 . S
C880 H856 0.950 . S
C880 C875 1.363 . S
C880 C879 1.415 . S
C881 H857 0.951 . S
C881 C882 1.366 . S
C881 C883 1.388 . S
C882 C881 1.366 . S
C882 C886 1.385 . S
C883 H858 0.951 1_456 S
C883 C881 1.388 . S
C883 C884 1.366 . S
C884 C883 1.366 . S
C884 C885 1.414 . S
C884 C887 1.499 1_556 S
C885 H859 0.950 . S
C885 C884 1.414 . S
C885 C886 1.374 . S
C886 H860 0.950 . S
C886 C882 1.385 . S
C886 C885 1.374 . S
C887 C884 1.499 1_554 S
C887 C888 1.373 . S
C887 C889 1.333 1_455 S
C888 H861 0.950 . S
C888 C874 1.377 . S
C888 C887 1.373 . S
C889 C873 1.390 . S
C889 C887 1.333 1_655 S
C889 C890 1.572 1_554 S
C890 C889 1.572 1_556 S
C890 C891 1.397 . S
C890 C895 1.363 . S
C891 H862 0.950 1_655 S
C891 C890 1.397 . S
C891 C892 1.334 . S
C892 H863 0.950 . S
C892 C891 1.334 . S
C892 C893 1.287 . S
C893 C892 1.287 . S
C893 C894 1.524 . S
C893 H896 0.999 . S
C894 H864 0.950 . S
C894 C893 1.524 . S
C894 C895 1.415 . S
C895 H865 0.950 1_556 S
C895 C890 1.363 . S
C895 C894 1.415 . S
H896 C893 0.999 . S
H897 C878 0.913 . S
H898 C916 0.951 . S
H899 C918 0.951 . S
H900 C920 0.950 . S
H901 C921 0.950 . S
H902 C923 0.950 . S
H903 C926 0.950 . S
H904 C927 0.950 . S
H905 C929 0.950 . S
H906 C930 0.997 . S
H907 C931 0.951 . S
H908 C933 0.951 . S
H909 C935 0.950 . S
H910 C936 0.950 1_554 S
H911 C938 0.950 . S
H912 C941 0.950 . S
H913 C942 0.950 . S
H914 C944 0.950 . S
H915 C945 0.950 . S
C916 H898 0.951 . S
C916 C917 1.366 1_545 S
C916 C918 1.388 . S
C917 C916 1.366 1_565 S
C917 C921 1.385 . S
C918 H899 0.951 . S
C918 C916 1.388 . S
C918 C919 1.366 . S
C919 C918 1.366 . S
C919 C920 1.414 1_545 S
C919 C922 1.499 . S
C920 H900 0.950 . S
C920 C919 1.414 1_565 S
C920 C921 1.374 . S
C921 H901 0.950 . S
C921 C917 1.385 . S
C921 C920 1.374 . S
C922 C919 1.499 . S
C922 C923 1.373 . S
C922 C924 1.389 . S
C923 H902 0.950 . S
C923 C922 1.373 . S
C923 C939 1.377 . S
C924 C922 1.389 . S
C924 C925 1.524 1_545 S
C924 C938 1.377 . S
C925 C924 1.524 1_565 S
C925 C926 1.397 . S
C925 C930 1.345 1_565 S
C926 H903 0.950 . S
C926 C925 1.397 . S
C926 C927 1.334 . S
C927 H904 0.950 . S
C927 C926 1.334 . S
C927 C928 1.287 . S
C928 C927 1.287 . S
C928 C929 1.524 . S
C928 H947 0.913 . S
C929 H905 0.950 . S
C929 C928 1.524 . S
C929 C930 1.389 1_565 S
C930 H906 0.997 . S
C930 C925 1.345 1_545 S
C930 C929 1.389 1_545 S
C931 H907 0.951 . S
C931 C932 1.366 . S
C931 C933 1.388 . S
C932 C931 1.366 . S
C932 C936 1.385 . S
C933 H908 0.951 . S
C933 C931 1.388 . S
C933 C934 1.366 . S
C934 C933 1.366 . S
C934 C935 1.414 1_556 S
C934 C937 1.499 1_556 S
C935 H909 0.950 . S
C935 C934 1.414 1_554 S
C935 C936 1.374 1_554 S
C936 H910 0.950 1_556 S
C936 C932 1.385 . S
C936 C935 1.374 1_556 S
C937 C934 1.499 1_554 S
C937 C938 1.373 . S
C937 C939 1.389 . S
C938 H911 0.950 . S
C938 C924 1.377 . S
C938 C937 1.373 . S
C939 C923 1.377 . S
C939 C937 1.389 . S
C939 C940 1.524 1_554 S
C940 C939 1.524 1_556 S
C940 C941 1.397 . S
C940 C945 1.363 . S
C941 H912 0.950 . S
C941 C940 1.397 . S
C941 C942 1.334 . S
C942 H913 0.950 . S
C942 C941 1.334 . S
C942 C943 1.287 . S
C943 C942 1.287 . S
C943 C944 1.524 . S
C943 H946 0.999 . S
C944 H914 0.950 . S
C944 C943 1.524 . S
C944 C945 1.415 . S
C945 H915 0.950 . S
C945 C940 1.363 . S
C945 C944 1.415 . S
H946 C943 0.999 . S
H947 C928 0.913 . S
H948 C966 0.951 . S
H949 C968 0.951 . S
H950 C970 0.950 . S
H951 C971 0.950 . S
H952 C973 0.950 . S
H953 C976 0.950 . S
H954 C977 0.950 . S
H955 C979 0.950 . S
H956 C980 0.950 . S
H957 C981 0.951 . S
H958 C983 0.951 . S
H959 C985 0.950 1_554 S
H960 C986 0.950 . S
H961 C988 0.950 . S
H962 C991 0.950 . S
H963 C992 0.950 . S
H964 C994 0.950 . S
H965 C995 0.950 . S
C966 H948 0.951 . S
C966 C967 1.366 . S
C966 C968 1.388 . S
C967 C966 1.366 . S
C967 C971 1.385 . S
C968 H949 0.951 . S
C968 C966 1.388 . S
C968 C969 1.366 . S
C969 C968 1.366 . S
C969 C970 1.414 . S
C969 C972 1.499 . S
C970 H950 0.950 . S
C970 C969 1.414 . S
C970 C971 1.374 . S
C971 H951 0.950 . S
C971 C967 1.385 . S
C971 C970 1.374 . S
C972 C969 1.499 . S
C972 C973 1.373 . S
C972 C974 1.389 . S
C973 H952 0.950 . S
C973 C972 1.373 . S
C973 C989 1.377 1_554 S
C974 C972 1.389 . S
C974 C975 1.524 . S
C974 C988 1.377 . S
C975 C974 1.524 . S
C975 C976 1.397 . S
C975 C980 1.363 . S
C976 H953 0.950 . S
C976 C975 1.397 . S
C976 C977 1.334 . S
C977 H954 0.950 . S
C977 C976 1.334 . S
C977 C978 1.287 . S
C978 C977 1.287 . S
C978 C979 1.524 . S
C978 H997 0.913 . S
C979 H955 0.950 . S
C979 C978 1.524 . S
C979 C980 1.415 . S
C980 H956 0.950 . S
C980 C975 1.363 . S
C980 C979 1.415 . S
C981 H957 0.951 . S
C981 C982 1.366 . S
C981 C983 1.388 . S
C982 C981 1.366 . S
C982 C986 1.385 . S
C983 H958 0.951 . S
C983 C981 1.388 . S
C983 C984 1.366 . S
C984 C983 1.366 . S
C984 C985 1.414 . S
C984 C987 1.499 1_556 S
C985 H959 0.950 1_556 S
C985 C984 1.414 . S
C985 C986 1.374 . S
C986 H960 0.950 . S
C986 C982 1.385 . S
C986 C985 1.374 . S
C987 C984 1.499 1_554 S
C987 C988 1.373 . S
C987 C989 1.389 1_554 S
C988 H961 0.950 . S
C988 C974 1.377 . S
C988 C987 1.373 . S
C989 C973 1.377 1_556 S
C989 C987 1.389 1_556 S
C989 C990 1.524 . S
C990 C989 1.524 . S
C990 C991 1.397 . S
C990 C995 1.363 . S
C991 H962 0.950 . S
C991 C990 1.397 . S
C991 C992 1.334 . S
C992 H963 0.950 . S
C992 C991 1.334 . S
C992 C993 1.287 . S
C993 C992 1.287 . S
C993 C994 1.524 . S
C993 H996 0.999 . S
C994 H964 0.950 . S
C994 C993 1.524 . S
C994 C995 1.415 . S
C995 H965 0.950 . S
C995 C990 1.363 . S
C995 C994 1.415 . S
H996 C993 0.999 . S
H997 C978 0.913 . S
H998 C1016 0.951 . S
H999 C1018 0.951 . S
H1000 C1020 0.950 . S
H1001 C1021 0.950 . S
H1002 C1023 0.950 . S
H1003 C1026 0.950 . S
H1004 C1027 0.950 . S
H1005 C1029 0.950 . S
H1006 C1030 0.950 . S
H1007 C1031 0.951 1_554 S
H1008 C1033 0.951 . S
H1009 C1035 0.950 . S
H1010 C1036 0.950 . S
H1011 C1038 0.950 1_556 S
H1012 C1041 0.950 . S
H1013 C1042 0.950 . S
H1014 C1044 0.950 . S
H1015 C1045 0.950 . S
C1016 H998 0.951 . S
C1016 C1017 1.366 . S
C1016 C1018 1.388 . S
C1017 C1016 1.366 . S
C1017 C1021 1.385 . S
C1018 H999 0.951 . S
C1018 C1016 1.388 . S
C1018 C1019 1.366 . S
C1019 C1018 1.366 . S
C1019 C1020 1.414 . S
C1019 C1022 1.499 . S
C1020 H1000 0.950 . S
C1020 C1019 1.414 . S
C1020 C1021 1.374 . S
C1021 H1001 0.950 . S
C1021 C1017 1.385 . S
C1021 C1020 1.374 . S
C1022 C1019 1.499 . S
C1022 C1023 1.373 . S
C1022 C1024 1.389 . S
C1023 H1002 0.950 . S
C1023 C1022 1.373 . S
C1023 C1039 1.377 . S
C1024 C1022 1.389 . S
C1024 C1025 1.524 . S
C1024 C1038 1.377 . S
C1025 C1024 1.524 . S
C1025 C1026 1.397 . S
C1025 C1030 1.363 1_554 S
C1026 H1003 0.950 . S
C1026 C1025 1.397 . S
C1026 C1027 1.334 . S
C1027 H1004 0.950 . S
C1027 C1026 1.334 . S
C1027 C1028 1.287 1_554 S
C1028 C1027 1.287 1_556 S
C1028 C1029 1.524 . S
C1028 H1047 0.913 . S
C1029 H1005 0.950 . S
C1029 C1028 1.524 . S
C1029 C1030 1.415 . S
C1030 H1006 0.950 . S
C1030 C1025 1.363 1_556 S
C1030 C1029 1.415 . S
C1031 H1007 0.951 1_556 S
C1031 C1032 1.366 . S
C1031 C1033 1.388 1_556 S
C1032 C1031 1.366 . S
C1032 C1036 1.385 . S
C1033 H1008 0.951 . S
C1033 C1031 1.388 1_554 S
C1033 C1034 1.366 1_554 S
C1034 C1033 1.366 1_556 S
C1034 C1035 1.414 . S
C1034 C1037 1.499 1_556 S
C1035 H1009 0.950 . S
C1035 C1034 1.414 . S
C1035 C1036 1.374 . S
C1036 H1010 0.950 . S
C1036 C1032 1.385 . S
C1036 C1035 1.374 . S
C1037 C1034 1.499 1_554 S
C1037 C1038 1.373 . S
C1037 C1039 1.389 . S
C1038 H1011 0.950 1_554 S
C1038 C1024 1.377 . S
C1038 C1037 1.373 . S
C1039 C1023 1.377 . S
C1039 C1037 1.389 . S
C1039 C1040 1.524 . S
C1040 C1039 1.524 . S
C1040 C1041 1.397 . S
C1040 C1045 1.363 . S
C1041 H1012 0.950 . S
C1041 C1040 1.397 . S
C1041 C1042 1.334 . S
C1042 H1013 0.950 . S
C1042 C1041 1.334 . S
C1042 C1043 1.287 . S
C1043 C1042 1.287 . S
C1043 C1044 1.524 . S
C1043 H1046 0.999 . S
C1044 H1014 0.950 . S
C1044 C1043 1.524 . S
C1044 C1045 1.415 . S
C1045 H1015 0.950 . S
C1045 C1040 1.363 . S
C1045 C1044 1.415 . S
H1046 C1043 0.999 . S
H1047 C1028 0.913 . S
H1048 C1066 0.951 . S
H1049 C1068 0.951 . S
H1050 C1070 0.950 . S
H1051 C1071 0.950 . S
H1052 C1073 0.950 . S
H1053 C1076 0.950 . S
H1054 C1077 0.950 1_554 S
H1055 C1079 0.950 . S
H1056 C1080 0.950 . S
H1057 C1081 0.951 . S
H1058 C1083 0.951 . S
H1059 C1085 0.950 . S
H1060 C1086 0.950 . S
H1061 C1088 0.950 . S
H1062 C1091 0.950 . S
H1063 C1092 0.950 . S
H1064 C1094 0.950 . S
H1065 C1095 0.950 . S
C1066 H1048 0.951 . S
C1066 C1067 1.366 1_655 S
C1066 C1068 1.388 . S
C1067 C1066 1.366 1_455 S
C1067 C1071 1.385 . S
C1068 H1049 0.951 . S
C1068 C1066 1.388 . S
C1068 C1069 1.366 1_655 S
C1069 C1068 1.366 1_455 S
C1069 C1070 1.414 . S
C1069 C1072 1.499 . S
C1070 H1050 0.950 . S
C1070 C1069 1.414 . S
C1070 C1071 1.374 . S
C1071 H1051 0.950 . S
C1071 C1067 1.385 . S
C1071 C1070 1.374 . S
C1072 C1069 1.499 . S
C1072 C1073 1.373 . S
C1072 C1074 1.389 1_455 S
C1073 H1052 0.950 . S
C1073 C1072 1.373 . S
C1073 C1089 1.377 . S
C1074 C1072 1.389 1_655 S
C1074 C1075 1.524 . S
C1074 C1088 1.377 . S
C1075 C1074 1.524 . S
C1075 C1076 1.397 . S
C1075 C1080 1.363 . S
C1076 H1053 0.950 . S
C1076 C1075 1.397 . S
C1076 C1077 1.334 . S
C1077 H1054 0.950 1_556 S
C1077 C1076 1.334 . S
C1077 C1078 1.287 . S
C1078 C1077 1.287 . S
C1078 C1079 1.524 . S
C1078 H1097 0.913 . S
C1079 H1055 0.950 . S
C1079 C1078 1.524 . S
C1079 C1080 1.415 . S
C1080 H1056 0.950 . S
C1080 C1075 1.363 . S
C1080 C1079 1.415 . S
C1081 H1057 0.951 . S
C1081 C1082 1.366 . S
C1081 C1083 1.388 . S
C1082 C1081 1.366 . S
C1082 C1086 1.385 1_455 S
C1083 H1058 0.951 . S
C1083 C1081 1.388 . S
C1083 C1084 1.366 . S
C1084 C1083 1.366 . S
C1084 C1085 1.414 1_455 S
C1084 C1087 1.499 . S
C1085 H1059 0.950 . S
C1085 C1084 1.414 1_655 S
C1085 C1086 1.374 . S
C1086 H1060 0.950 . S
C1086 C1082 1.385 1_655 S
C1086 C1085 1.374 . S
C1087 C1084 1.499 . S
C1087 C1088 1.373 1_455 S
C1087 C1089 1.389 . S
C1088 H1061 0.950 . S
C1088 C1074 1.377 . S
C1088 C1087 1.373 1_655 S
C1089 C1073 1.377 . S
C1089 C1087 1.389 . S
C1089 C1090 1.524 . S
C1090 C1089 1.524 . S
C1090 C1091 1.397 . S
C1090 C1095 1.363 . S
C1091 H1062 0.950 . S
C1091 C1090 1.397 . S
C1091 C1092 1.334 . S
C1092 H1063 0.950 . S
C1092 C1091 1.334 . S
C1092 C1093 1.287 . S
C1093 C1092 1.287 . S
C1093 C1094 1.524 . S
C1093 H1096 0.999 . S
C1094 H1064 0.950 . S
C1094 C1093 1.524 . S
C1094 C1095 1.415 . S
C1095 H1065 0.950 . S
C1095 C1090 1.363 . S
C1095 C1094 1.415 . S
H1096 C1093 0.999 . S
H1097 C1078 0.913 . S
H1098 C1116 0.951 . S
H1099 C1118 0.951 . S
H1100 C1120 0.950 . S
H1101 C1121 0.950 . S
H1102 C1123 0.950 . S
H1103 C1126 0.950 . S
H1104 C1127 0.950 . S
H1105 C1129 0.950 . S
H1106 C1130 0.950 . S
H1107 C1131 0.951 . S
H1108 C1133 0.951 . S
H1109 C1135 0.950 . S
H1110 C1136 0.950 . S
H1111 C1138 0.950 . S
H1112 C1141 0.950 1_565 S
H1113 C1142 0.950 1_565 S
H1114 C1144 0.950 . S
H1115 C1145 0.950 . S
C1116 H1098 0.951 . S
C1116 C1117 1.366 1_565 S
C1116 C1118 1.388 . S
C1117 C1116 1.366 1_545 S
C1117 C1121 1.385 . S
C1118 H1099 0.951 . S
C1118 C1116 1.388 . S
C1118 C1119 1.366 1_565 S
C1119 C1118 1.366 1_545 S
C1119 C1120 1.414 . S
C1119 C1122 1.499 . S
C1120 H1100 0.950 . S
C1120 C1119 1.414 . S
C1120 C1121 1.374 . S
C1121 H1101 0.950 . S
C1121 C1117 1.385 . S
C1121 C1120 1.374 . S
C1122 C1119 1.499 . S
C1122 C1123 1.373 . S
C1122 C1124 1.389 . S
C1123 H1102 0.950 . S
C1123 C1122 1.373 . S
C1123 C1139 1.377 . S
C1124 C1122 1.389 . S
C1124 C1125 1.524 . S
C1124 C1138 1.377 . S
C1125 C1124 1.524 . S
C1125 C1126 1.397 . S
C1125 C1130 1.363 1_545 S
C1126 H1103 0.950 . S
C1126 C1125 1.397 . S
C1126 C1127 1.334 1_556 S
C1127 H1104 0.950 . S
C1127 C1126 1.334 1_554 S
C1127 C1128 1.287 . S
C1128 C1127 1.287 . S
C1128 C1129 1.524 1_545 S
C1128 H1147 0.913 . S
C1129 H1105 0.950 . S
C1129 C1128 1.524 1_565 S
C1129 C1130 1.415 1_554 S
C1130 H1106 0.950 . S
C1130 C1125 1.363 1_565 S
C1130 C1129 1.415 1_556 S
C1131 H1107 0.951 . S
C1131 C1132 1.366 . S
C1131 C1133 1.388 . S
C1132 C1131 1.366 . S
C1132 C1136 1.385 1_545 S
C1133 H1108 0.951 . S
C1133 C1131 1.388 . S
C1133 C1134 1.366 . S
C1134 C1133 1.366 . S
C1134 C1135 1.414 1_545 S
C1134 C1137 1.499 . S
C1135 H1109 0.950 . S
C1135 C1134 1.414 1_565 S
C1135 C1136 1.374 . S
C1136 H1110 0.950 . S
C1136 C1132 1.385 1_565 S
C1136 C1135 1.374 . S
C1137 C1134 1.499 . S
C1137 C1138 1.373 . S
C1137 C1139 1.389 . S
C1138 H1111 0.950 . S
C1138 C1124 1.377 . S
C1138 C1137 1.373 . S
C1139 C1123 1.377 . S
C1139 C1137 1.389 . S
C1139 C1140 1.524 . S
C1140 C1139 1.524 . S
C1140 C1141 1.397 . S
C1140 C1145 1.363 . S
C1141 H1112 0.950 1_545 S
C1141 C1140 1.397 . S
C1141 C1142 1.334 . S
C1142 H1113 0.950 1_545 S
C1142 C1141 1.334 . S
C1142 C1143 1.287 . S
C1143 C1142 1.287 . S
C1143 C1144 1.524 . S
C1143 H1146 0.999 . S
C1144 H1114 0.950 . S
C1144 C1143 1.524 . S
C1144 C1145 1.415 . S
C1145 H1115 0.950 . S
C1145 C1140 1.363 . S
C1145 C1144 1.415 . S
H1146 C1143 0.999 . S
H1147 C1128 0.913 . S
H1148 C1166 0.951 . S
H1149 C1168 0.951 . S
H1150 C1170 0.950 . S
H1151 C1171 0.950 . S
H1152 C1173 0.950 . S
H1153 C1176 0.950 . S
H1154 C1177 0.950 . S
H1155 C1179 0.950 . S
H1156 C1180 0.950 . S
H1157 C1181 0.951 . S
H1158 C1183 0.951 . S
H1159 C1185 0.950 . S
H1160 C1186 0.950 . S
H1161 C1188 0.950 . S
H1162 C1191 0.950 . S
H1163 C1192 0.950 1_554 S
H1164 C1194 0.950 . S
H1165 C1195 0.950 . S
C1166 H1148 0.951 . S
C1166 C1167 1.366 . S
C1166 C1168 1.388 . S
C1167 C1166 1.366 . S
C1167 C1171 1.385 . S
C1168 H1149 0.951 . S
C1168 C1166 1.388 . S
C1168 C1169 1.366 . S
C1169 C1168 1.366 . S
C1169 C1170 1.414 . S
C1169 C1172 1.499 . S
C1170 H1150 0.950 . S
C1170 C1169 1.414 . S
C1170 C1171 1.374 . S
C1171 H1151 0.950 . S
C1171 C1167 1.385 . S
C1171 C1170 1.374 . S
C1172 C1169 1.499 . S
C1172 C1173 1.373 . S
C1172 C1174 1.389 . S
C1173 H1152 0.950 . S
C1173 C1172 1.373 . S
C1173 C1189 1.377 . S
C1174 C1172 1.389 . S
C1174 C1175 1.524 . S
C1174 C1188 1.377 . S
C1175 C1174 1.524 . S
C1175 C1176 1.397 . S
C1175 C1180 1.363 . S
C1176 H1153 0.950 . S
C1176 C1175 1.397 . S
C1176 C1177 1.334 . S
C1177 H1154 0.950 . S
C1177 C1176 1.334 . S
C1177 C1178 1.287 . S
C1178 C1177 1.287 . S
C1178 C1179 1.524 . S
C1178 H1197 0.913 . S
C1179 H1155 0.950 . S
C1179 C1178 1.524 . S
C1179 C1180 1.415 . S
C1180 H1156 0.950 . S
C1180 C1175 1.363 . S
C1180 C1179 1.415 . S
C1181 H1157 0.951 . S
C1181 C1182 1.366 . S
C1181 C1183 1.388 . S
C1182 C1181 1.366 . S
C1182 C1186 1.385 . S
C1183 H1158 0.951 . S
C1183 C1181 1.388 . S
C1183 C1184 1.366 . S
C1184 C1183 1.366 . S
C1184 C1185 1.414 . S
C1184 C1187 1.499 . S
C1185 H1159 0.950 . S
C1185 C1184 1.414 . S
C1185 C1186 1.374 . S
C1186 H1160 0.950 . S
C1186 C1182 1.385 . S
C1186 C1185 1.374 . S
C1187 C1184 1.499 . S
C1187 C1188 1.373 . S
C1187 C1189 1.389 . S
C1188 H1161 0.950 . S
C1188 C1174 1.377 . S
C1188 C1187 1.373 . S
C1189 C1173 1.377 . S
C1189 C1187 1.389 . S
C1189 C1190 1.524 . S
C1190 C1189 1.524 . S
C1190 C1191 1.397 . S
C1190 C1195 1.363 . S
C1191 H1162 0.950 . S
C1191 C1190 1.397 . S
C1191 C1192 1.334 . S
C1192 H1163 0.950 1_556 S
C1192 C1191 1.334 . S
C1192 C1193 1.287 1_556 S
C1193 C1192 1.287 1_554 S
C1193 C1194 1.524 1_554 S
C1193 H1196 0.999 . S
C1194 H1164 0.950 . S
C1194 C1193 1.524 1_556 S
C1194 C1195 1.415 . S
C1195 H1165 0.950 . S
C1195 C1190 1.363 . S
C1195 C1194 1.415 . S
H1196 C1193 0.999 . S
H1197 C1178 0.913 . S
H1198 C1216 0.951 . S
H1199 C1218 0.951 . S
H1200 C1220 0.950 . S
H1201 C1221 0.950 . S
H1202 C1223 0.950 . S
H1203 C1226 0.950 . S
H1204 C1227 0.950 . S
H1205 C1229 0.950 . S
H1206 C1230 0.950 . S
H1207 C1231 0.951 . S
H1208 C1233 0.951 . S
H1209 C1235 0.950 . S
H1210 C1236 0.950 . S
H1211 C1238 0.950 . S
H1212 C1241 0.950 . S
H1213 C1242 0.950 . S
H1214 C1244 0.950 . S
H1215 C1245 0.950 . S
C1216 H1198 0.951 . S
C1216 C1217 1.366 . S
C1216 C1218 1.388 . S
C1217 C1216 1.366 . S
C1217 C1221 1.385 . S
C1218 H1199 0.951 . S
C1218 C1216 1.388 . S
C1218 C1219 1.366 . S
C1219 C1218 1.366 . S
C1219 C1220 1.414 . S
C1219 C1222 1.499 . S
C1220 H1200 0.950 . S
C1220 C1219 1.414 . S
C1220 C1221 1.374 . S
C1221 H1201 0.950 . S
C1221 C1217 1.385 . S
C1221 C1220 1.374 . S
C1222 C1219 1.499 . S
C1222 C1223 1.373 . S
C1222 C1224 1.389 . S
C1223 H1202 0.950 . S
C1223 C1222 1.373 . S
C1223 C1239 1.377 . S
C1224 C1222 1.389 . S
C1224 C1225 1.524 . S
C1224 C1238 1.377 . S
C1225 C1224 1.524 . S
C1225 C1226 1.397 . S
C1225 C1230 1.363 . S
C1226 H1203 0.950 . S
C1226 C1225 1.397 . S
C1226 C1227 1.334 . S
C1227 H1204 0.950 . S
C1227 C1226 1.334 . S
C1227 C1228 1.287 . S
C1228 C1227 1.287 . S
C1228 C1229 1.524 . S
C1228 H1247 0.913 . S
C1229 H1205 0.950 . S
C1229 C1228 1.524 . S
C1229 C1230 1.415 . S
C1230 H1206 0.950 . S
C1230 C1225 1.363 . S
C1230 C1229 1.415 . S
C1231 H1207 0.951 . S
C1231 C1232 1.366 . S
C1231 C1233 1.388 . S
C1232 C1231 1.366 . S
C1232 C1236 1.385 . S
C1233 H1208 0.951 . S
C1233 C1231 1.388 . S
C1233 C1234 1.366 . S
C1234 C1233 1.366 . S
C1234 C1235 1.414 . S
C1234 C1237 1.499 . S
C1235 H1209 0.950 . S
C1235 C1234 1.414 . S
C1235 C1236 1.374 . S
C1236 H1210 0.950 . S
C1236 C1232 1.385 . S
C1236 C1235 1.374 . S
C1237 C1234 1.499 . S
C1237 C1238 1.373 . S
C1237 C1239 1.389 . S
C1238 H1211 0.950 . S
C1238 C1224 1.377 . S
C1238 C1237 1.373 . S
C1239 C1223 1.377 . S
C1239 C1237 1.389 . S
C1239 C1240 1.524 . S
C1240 C1239 1.524 . S
C1240 C1241 1.397 . S
C1240 C1245 1.363 . S
C1241 H1212 0.950 . S
C1241 C1240 1.397 . S
C1241 C1242 1.334 . S
C1242 H1213 0.950 . S
C1242 C1241 1.334 . S
C1242 C1243 1.287 . S
C1243 C1242 1.287 . S
C1243 C1244 1.524 . S
C1243 H1246 0.999 . S
C1244 H1214 0.950 . S
C1244 C1243 1.524 . S
C1244 C1245 1.415 . S
C1245 H1215 0.950 . S
C1245 C1240 1.363 . S
C1245 C1244 1.415 . S
H1246 C1243 0.999 . S
H1247 C1228 0.913 . S
H1248 C1266 0.951 . S
H1249 C1268 0.951 . S
H1250 C1270 0.950 . S
H1251 C1271 0.950 . S
H1252 C1273 0.950 . S
H1253 C1276 0.950 1_455 S
H1254 C1277 0.930 1_455 S
H1255 C1279 0.950 . S
H1256 C1280 0.950 . S
H1257 C1281 0.951 . S
H1258 C1283 0.951 . S
H1259 C1285 0.950 . S
H1260 C1286 0.950 . S
H1261 C1288 0.950 . S
H1262 C1291 0.950 . S
H1263 C1292 0.950 1_655 S
H1264 C1294 0.950 . S
H1265 C1295 0.950 . S
C1266 H1248 0.951 . S
C1266 C1267 1.366 . S
C1266 C1268 1.388 . S
C1267 C1266 1.366 . S
C1267 C1271 1.385 1_655 S
C1268 H1249 0.951 . S
C1268 C1266 1.388 . S
C1268 C1269 1.366 . S
C1269 C1268 1.366 . S
C1269 C1270 1.414 1_655 S
C1269 C1272 1.499 . S
C1270 H1250 0.950 . S
C1270 C1269 1.414 1_455 S
C1270 C1271 1.374 . S
C1271 H1251 0.950 . S
C1271 C1267 1.385 1_455 S
C1271 C1270 1.374 . S
C1272 C1269 1.499 . S
C1272 C1273 1.373 1_655 S
C1272 C1274 1.389 . S
C1273 H1252 0.950 . S
C1273 C1272 1.373 1_455 S
C1273 C1289 1.377 . S
C1274 C1272 1.389 . S
C1274 C1275 1.524 . S
C1274 C1288 1.377 . S
C1275 C1274 1.524 . S
C1275 C1276 1.397 . S
C1275 C1280 1.363 . S
C1276 H1253 0.950 1_655 S
C1276 C1275 1.397 . S
C1276 C1277 1.334 . S
C1277 H1254 0.930 1_655 S
C1277 C1276 1.334 . S
C1277 C1278 1.287 . S
C1278 C1277 1.287 . S
C1278 C1279 1.524 . S
C1278 H1297 0.913 . S
C1279 H1255 0.950 . S
C1279 C1278 1.524 . S
C1279 C1280 1.415 . S
C1280 H1256 0.950 . S
C1280 C1275 1.363 . S
C1280 C1279 1.415 . S
C1281 H1257 0.951 . S
C1281 C1282 1.366 1_455 S
C1281 C1283 1.388 . S
C1282 C1281 1.366 1_655 S
C1282 C1286 1.385 . S
C1283 H1258 0.951 . S
C1283 C1281 1.388 . S
C1283 C1284 1.366 1_455 S
C1284 C1283 1.366 1_655 S
C1284 C1285 1.414 . S
C1284 C1287 1.499 . S
C1285 H1259 0.950 . S
C1285 C1284 1.414 . S
C1285 C1286 1.374 . S
C1286 H1260 0.950 . S
C1286 C1282 1.385 . S
C1286 C1285 1.374 . S
C1287 C1284 1.499 . S
C1287 C1288 1.373 . S
C1287 C1289 1.389 1_655 S
C1288 H1261 0.950 . S
C1288 C1274 1.377 . S
C1288 C1287 1.373 . S
C1289 C1273 1.377 . S
C1289 C1287 1.389 1_455 S
C1289 C1290 1.524 . S
C1290 C1289 1.524 . S
C1290 C1291 1.397 1_455 S
C1290 C1295 1.363 . S
C1291 H1262 0.950 . S
C1291 C1290 1.397 1_655 S
C1291 C1292 1.334 1_655 S
C1292 H1263 0.950 1_455 S
C1292 C1291 1.334 1_455 S
C1292 C1293 1.287 . S
C1293 C1292 1.287 . S
C1293 C1294 1.524 . S
C1293 H1296 0.999 . S
C1294 H1264 0.950 . S
C1294 C1293 1.524 . S
C1294 C1295 1.415 . S
C1295 H1265 0.950 . S
C1295 C1290 1.363 . S
C1295 C1294 1.415 . S
H1296 C1293 0.999 . S
H1297 C1278 0.913 . S
H1298 C1316 0.951 . S
H1299 C1318 0.951 . S
H1300 C1320 0.950 . S
H1301 C1321 0.950 . S
H1302 C1323 0.950 . S
H1303 C1326 0.950 . S
H1304 C1327 0.919 1_565 S
H1305 C1329 0.950 . S
H1306 C1330 0.950 . S
H1307 C1331 0.951 . S
H1308 C1333 0.951 . S
H1309 C1335 0.950 . S
H1310 C1336 0.950 . S
H1311 C1338 0.950 . S
H1312 C1341 0.950 1_545 S
H1313 C1342 0.950 1_545 S
H1314 C1344 0.950 . S
H1315 C1345 0.950 . S
C1316 H1298 0.951 . S
C1316 C1317 1.366 1_545 S
C1316 C1318 1.388 . S
C1317 C1316 1.366 1_565 S
C1317 C1321 1.385 . S
C1318 H1299 0.951 . S
C1318 C1316 1.388 . S
C1318 C1319 1.366 1_545 S
C1319 C1318 1.366 1_565 S
C1319 C1320 1.414 . S
C1319 C1322 1.499 . S
C1320 H1300 0.950 . S
C1320 C1319 1.414 . S
C1320 C1321 1.374 . S
C1321 H1301 0.950 . S
C1321 C1317 1.385 . S
C1321 C1320 1.374 . S
C1322 C1319 1.499 . S
C1322 C1323 1.373 . S
C1322 C1324 1.389 1_565 S
C1323 H1302 0.950 . S
C1323 C1322 1.373 . S
C1323 C1339 1.377 . S
C1324 C1322 1.389 1_545 S
C1324 C1325 1.524 . S
C1324 C1338 1.377 . S
C1325 C1324 1.524 . S
C1325 C1326 1.397 1_545 S
C1325 C1330 1.363 . S
C1326 H1303 0.950 . S
C1326 C1325 1.397 1_565 S
C1326 C1327 1.324 1_565 S
C1327 H1304 0.919 1_545 S
C1327 C1326 1.324 1_545 S
C1327 C1328 1.331 . S
C1328 C1327 1.331 . S
C1328 C1329 1.524 . S
C1328 H1347 0.913 . S
C1329 H1305 0.950 . S
C1329 C1328 1.524 . S
C1329 C1330 1.415 . S
C1330 H1306 0.950 . S
C1330 C1325 1.363 . S
C1330 C1329 1.415 . S
C1331 H1307 0.951 . S
C1331 C1332 1.366 . S
C1331 C1333 1.388 . S
C1332 C1331 1.366 . S
C1332 C1336 1.385 1_565 S
C1333 H1308 0.951 . S
C1333 C1331 1.388 . S
C1333 C1334 1.366 . S
C1334 C1333 1.366 . S
C1334 C1335 1.414 1_565 S
C1334 C1337 1.499 . S
C1335 H1309 0.950 . S
C1335 C1334 1.414 1_545 S
C1335 C1336 1.374 . S
C1336 H1310 0.950 . S
C1336 C1332 1.385 1_545 S
C1336 C1335 1.374 . S
C1337 C1334 1.499 . S
C1337 C1338 1.373 1_565 S
C1337 C1339 1.389 . S
C1338 H1311 0.950 . S
C1338 C1324 1.377 . S
C1338 C1337 1.373 1_545 S
C1339 C1323 1.377 . S
C1339 C1337 1.389 . S
C1339 C1340 1.524 . S
C1340 C1339 1.524 . S
C1340 C1341 1.397 . S
C1340 C1345 1.363 . S
C1341 H1312 0.950 1_565 S
C1341 C1340 1.397 . S
C1341 C1342 1.334 . S
C1342 H1313 0.950 1_565 S
C1342 C1341 1.334 . S
C1342 C1343 1.287 . S
C1343 C1342 1.287 . S
C1343 C1344 1.524 . S
C1343 H1346 0.999 . S
C1344 H1314 0.950 . S
C1344 C1343 1.524 . S
C1344 C1345 1.415 . S
C1345 H1315 0.950 . S
C1345 C1340 1.363 . S
C1345 C1344 1.415 . S
H1346 C1343 0.999 . S
H1347 C1328 0.913 . S
H1348 C1366 0.951 . S
H1349 C1368 0.951 . S
H1350 C1370 0.950 . S
H1351 C1371 0.950 . S
H1352 C1373 0.950 . S
H1353 C1376 0.950 . S
H1354 C1377 0.950 . S
H1355 C1379 0.950 . S
H1356 C1380 0.950 . S
H1357 C1381 0.951 . S
H1358 C1383 0.951 . S
H1359 C1385 0.950 . S
H1360 C1386 0.950 . S
H1361 C1388 0.950 . S
H1362 C1391 0.950 . S
H1363 C1392 0.950 . S
H1364 C1394 0.950 . S
H1365 C1395 0.950 . S
C1366 H1348 0.951 . S
C1366 C1367 1.366 . S
C1366 C1368 1.388 . S
C1367 C1366 1.366 . S
C1367 C1371 1.385 . S
C1368 H1349 0.951 . S
C1368 C1366 1.388 . S
C1368 C1369 1.366 . S
C1369 C1368 1.366 . S
C1369 C1370 1.414 . S
C1369 C1372 1.499 . S
C1370 H1350 0.950 . S
C1370 C1369 1.414 . S
C1370 C1371 1.374 . S
C1371 H1351 0.950 . S
C1371 C1367 1.385 . S
C1371 C1370 1.374 . S
C1372 C1369 1.499 . S
C1372 C1373 1.373 . S
C1372 C1374 1.389 . S
C1373 H1352 0.950 . S
C1373 C1372 1.373 . S
C1373 C1389 1.377 . S
C1374 C1372 1.389 . S
C1374 C1375 1.524 . S
C1374 C1388 1.377 . S
C1375 C1374 1.524 . S
C1375 C1376 1.397 . S
C1375 C1380 1.363 . S
C1376 H1353 0.950 . S
C1376 C1375 1.397 . S
C1376 C1377 1.334 . S
C1377 H1354 0.950 . S
C1377 C1376 1.334 . S
C1377 C1378 1.287 . S
C1378 C1377 1.287 . S
C1378 C1379 1.524 . S
C1378 H1397 0.913 . S
C1379 H1355 0.950 . S
C1379 C1378 1.524 . S
C1379 C1380 1.415 . S
C1380 H1356 0.950 . S
C1380 C1375 1.363 . S
C1380 C1379 1.415 . S
C1381 H1357 0.951 . S
C1381 C1382 1.366 . S
C1381 C1383 1.388 . S
C1382 C1381 1.366 . S
C1382 C1386 1.385 . S
C1383 H1358 0.951 . S
C1383 C1381 1.388 . S
C1383 C1384 1.366 . S
C1384 C1383 1.366 . S
C1384 C1385 1.414 . S
C1384 C1387 1.499 . S
C1385 H1359 0.950 . S
C1385 C1384 1.414 . S
C1385 C1386 1.374 . S
C1386 H1360 0.950 . S
C1386 C1382 1.385 . S
C1386 C1385 1.374 . S
C1387 C1384 1.499 . S
C1387 C1388 1.373 . S
C1387 C1389 1.389 . S
C1388 H1361 0.950 . S
C1388 C1374 1.377 . S
C1388 C1387 1.373 . S
C1389 C1373 1.377 . S
C1389 C1387 1.389 . S
C1389 C1390 1.524 . S
C1390 C1389 1.524 . S
C1390 C1391 1.397 . S
C1390 C1395 1.363 . S
C1391 H1362 0.950 . S
C1391 C1390 1.397 . S
C1391 C1392 1.334 . S
C1392 H1363 0.950 . S
C1392 C1391 1.334 . S
C1392 C1393 1.287 . S
C1393 C1392 1.287 . S
C1393 C1394 1.524 . S
C1393 H1396 0.999 . S
C1394 H1364 0.950 . S
C1394 C1393 1.524 . S
C1394 C1395 1.415 . S
C1395 H1365 0.950 . S
C1395 C1390 1.363 . S
C1395 C1394 1.415 . S
H1396 C1393 0.999 . S
H1397 C1378 0.913 . S
H1398 C1416 0.951 . S
H1399 C1418 0.951 . S
H1400 C1420 0.950 . S
H1401 C1421 0.950 . S
H1402 C1423 0.950 . S
H1403 C1426 0.950 . S
H1404 C1427 0.950 . S
H1405 C1429 0.950 . S
H1406 C1430 0.950 . S
H1407 C1431 0.951 . S
H1408 C1433 0.951 . S
H1409 C1435 0.950 . S
H1410 C1436 0.950 . S
H1411 C1438 0.950 . S
H1412 C1441 0.950 . S
H1413 C1442 0.950 . S
H1414 C1444 0.950 . S
H1415 C1445 0.950 . S
C1416 H1398 0.951 . S
C1416 C1417 1.366 . S
C1416 C1418 1.388 . S
C1417 C1416 1.366 . S
C1417 C1421 1.385 . S
C1418 H1399 0.951 . S
C1418 C1416 1.388 . S
C1418 C1419 1.366 . S
C1419 C1418 1.366 . S
C1419 C1420 1.414 . S
C1419 C1422 1.499 . S
C1420 H1400 0.950 . S
C1420 C1419 1.414 . S
C1420 C1421 1.374 . S
C1421 H1401 0.950 . S
C1421 C1417 1.385 . S
C1421 C1420 1.374 . S
C1422 C1419 1.499 . S
C1422 C1423 1.373 . S
C1422 C1424 1.389 . S
C1423 H1402 0.950 . S
C1423 C1422 1.373 . S
C1423 C1439 1.377 . S
C1424 C1422 1.389 . S
C1424 C1425 1.524 . S
C1424 C1438 1.377 . S
C1425 C1424 1.524 . S
C1425 C1426 1.397 . S
C1425 C1430 1.363 . S
C1426 H1403 0.950 . S
C1426 C1425 1.397 . S
C1426 C1427 1.334 . S
C1427 H1404 0.950 . S
C1427 C1426 1.334 . S
C1427 C1428 1.287 . S
C1428 C1427 1.287 . S
C1428 C1429 1.524 . S
C1428 H1447 0.913 . S
C1429 H1405 0.950 . S
C1429 C1428 1.524 . S
C1429 C1430 1.415 . S
C1430 H1406 0.950 . S
C1430 C1425 1.363 . S
C1430 C1429 1.415 . S
C1431 H1407 0.951 . S
C1431 C1432 1.366 . S
C1431 C1433 1.388 . S
C1432 C1431 1.366 . S
C1432 C1436 1.385 . S
C1433 H1408 0.951 . S
C1433 C1431 1.388 . S
C1433 C1434 1.366 . S
C1434 C1433 1.366 . S
C1434 C1435 1.414 . S
C1434 C1437 1.499 . S
C1435 H1409 0.950 . S
C1435 C1434 1.414 . S
C1435 C1436 1.374 . S
C1436 H1410 0.950 . S
C1436 C1432 1.385 . S
C1436 C1435 1.374 . S
C1437 C1434 1.499 . S
C1437 C1438 1.373 . S
C1437 C1439 1.389 . S
C1438 H1411 0.950 . S
C1438 C1424 1.377 . S
C1438 C1437 1.373 . S
C1439 C1423 1.377 . S
C1439 C1437 1.389 . S
C1439 C1440 1.524 . S
C1440 C1439 1.524 . S
C1440 C1441 1.397 . S
C1440 C1445 1.363 . S
C1441 H1412 0.950 . S
C1441 C1440 1.397 . S
C1441 C1442 1.334 . S
C1442 H1413 0.950 . S
C1442 C1441 1.334 . S
C1442 C1443 1.287 . S
C1443 C1442 1.287 . S
C1443 C1444 1.524 . S
C1443 H1446 0.999 . S
C1444 H1414 0.950 . S
C1444 C1443 1.524 . S
C1444 C1445 1.415 . S
C1445 H1415 0.950 . S
C1445 C1440 1.363 . S
C1445 C1444 1.415 . S
H1446 C1443 0.999 . S
H1447 C1428 0.913 . S
C267 C74 1.663 . S
C282 C98 1.719 . S
C332 C138 1.720 . S
C317 C85 1.663 . S
C382 C178 1.720 . S
C367 C52 1.663 . S
C432 C218 1.719 . S
C417 C63 1.663 . S
C482 C107 1.719 . S
C467 C30 1.657 1_565 S
C517 C41 1.659 . S
C532 C147 1.719 . S
C567 C8 1.659 . S
C582 C187 1.719 . S
C617 C19 1.657 1_655 S
C632 C227 1.719 . S
C682 C104 0.430 . S
C667 C62 0.415 . S
C732 C144 0.430 . S
C717 C73 0.414 . S
C782 C184 0.430 . S
C767 C84 0.415 . S
C817 C51 0.414 . S
C832 C224 0.431 . S
C867 C18 0.485 1_655 S
C882 C95 0.430 . S
C932 C135 0.429 . S
C917 C29 0.482 1_565 S
C982 C175 0.429 . S
C967 C40 0.483 . S
C1017 C7 0.485 . S
C1032 C215 0.430 . S
C1067 C60 1.576 . S
C1082 C99 2.023 . S
C1117 C71 1.577 . S
C1132 C139 2.024 . S
C1182 C179 2.024 . S
C1167 C82 1.576 . S
C1232 C219 2.023 . S
C1217 C49 1.576 . S
C1267 C16 1.601 1_655 S
C1282 C90 2.024 . S
C1332 C130 2.024 . S
C1317 C27 1.600 1_565 S
C1382 C170 2.024 . S
C1367 C38 1.599 . S
C1417 C5 1.599 . S
C1432 C210 2.024 . S
