# Generated by pormake.
# Topology scu, (8,4)-cn, num edge types: 1
# Building blocks:
#     Node 0, Type 0, BuildingBlock: GIZVER_clean_sbu_0, # of connection points: 8
#     Node 1, Type 1, BuildingBlock: MUDLON_clean_sbu_0, # of connection points: 4
#     Node 2, Type 1, BuildingBlock: MUDLON_clean_sbu_0, # of connection points: 4
#     Edge 3, Type (0, 1), BuildingBlock: UVAHIK_clean_linker_0, # of connection points: 2
#     Edge 4, Type (0, 1), BuildingBlock: UVAHIK_clean_linker_0, # of connection points: 2
#     Edge 5, Type (0, 1), BuildingBlock: UVAHIK_clean_linker_0, # of connection points: 2
#     Edge 6, Type (0, 1), BuildingBlock: UVAHIK_clean_linker_0, # of connection points: 2
#     Edge 7, Type (0, 1), BuildingBlock: UVAHIK_clean_linker_0, # of connection points: 2
#     Edge 8, Type (0, 1), BuildingBlock: UVAHIK_clean_linker_0, # of connection points: 2
#     Edge 9, Type (0, 1), BuildingBlock: UVAHIK_clean_linker_0, # of connection points: 2
#     Edge 10, Type (0, 1), BuildingBlock: UVAHIK_clean_linker_0, # of connection points: 2
# Relax obj value: 0.012
# Max RMSD: 0.080
# Mean RMSD: 0.044
data_MOF--net-scu--node1-GIZVER_clean_sbu_0--node2-MUDLON_clean_sbu_0--edge1-UVAHIK_clean_linker_0
_symmetry_space_group_name_H-M    P1
_symmetry_Int_Tables_number       1
_symmetry_cell_setting            triclinic
loop_
_symmetry_equiv_pos_as_xyz
'x, y, z'
_cell_length_a     29.582708
_cell_length_b     29.932615
_cell_length_c     28.744453
_cell_angle_alpha  97.851985
_cell_angle_beta   83.272786
_cell_angle_gamma 116.25071
loop_
_atom_site_label
_atom_site_type_symbol
_atom_site_fract_x
_atom_site_fract_y
_atom_site_fract_z
_atom_type_partial_charge
Co0 Co 0.02756 0.98341 0.15457 0.0
Co1 Co 0.10164 0.05605 0.11414 0.0
Co2 Co 1.001 0.03241 0.06516 0.0
O3 O 0.04132 1.00458 0.09249 0.0
H4 H 0.04877 0.98136 0.06983 0.0
O5 O 0.96312 0.06229 0.03698 0.0
Co6 Co 0.98488 0.08397 0.97458 0.0
Co7 Co 0.90428 1.01627 1.01144 0.0
H8 H 0.95653 0.08666 0.05874 0.0
O9 O 0.15746 0.04476 0.11865 0.0
O10 O 0.09422 0.0364 0.17378 0.0
O11 O 0.10694 0.12281 0.12529 0.0
O12 O 0.02923 0.09932 0.10421 0.0
O13 O 0.05656 0.05534 1.01448 0.0
O14 O 0.00431 0.10775 0.91937 0.0
O15 O 0.97112 0.13864 0.98271 0.0
O16 O 0.00506 0.03193 0.9572 0.0
O17 O 0.97057 0.96465 0.02651 0.0
O18 O 0.89542 0.94847 1.00194 0.0
O19 O 0.91606 0.04078 0.95301 0.0
O20 O 0.85307 0.03443 1.00808 0.0
C21 C 0.03903 0.93324 0.1885 0.0
C22 C 0.9535 1.01677 0.15993 0.0
C23 C 0.06892 0.1314 0.12386 0.0
C24 C 0.13825 0.03687 0.1614 0.0
C25 C 0.99075 0.14192 0.93931 0.0
C26 C 0.04643 0.0379 0.97199 0.0
C27 C 0.93008 0.93539 1.00593 0.0
C28 C 0.87523 0.04668 0.96689 0.0
O29 O 0.01677 0.95986 0.21035 0.0
O30 O 0.05371 0.93797 0.14401 0.0
O31 O 0.94547 1.00837 0.1161 0.0
O32 O 0.99685 0.02715 0.17339 0.0
Mg33 Mg 0.00426 0.53861 0.56381 0.0
C34 C 0.96784 0.43237 0.51381 0.0
O35 O 0.97213 0.42131 0.55523 0.0
C36 C 0.95604 0.60577 0.60814 0.0
O37 O 0.98401 0.6323 0.57392 0.0
C38 C 0.06173 0.49189 0.61148 0.0
O39 O 0.07804 0.48133 0.56882 0.0
O40 O 0.03605 0.5171 0.61707 0.0
O41 O 0.97295 0.47613 0.50956 0.0
O42 O 0.05368 0.60287 0.52488 0.0
C43 C 0.06477 0.59637 0.48108 0.0
O44 O 0.05405 0.55072 0.46181 0.0
O45 O 0.95199 0.56171 0.60876 0.0
Mg46 Mg 0.50432 1.01788 0.57793 0.0
C47 C 0.44715 1.00657 0.4975 0.0
O48 O 0.45057 0.96411 0.49611 0.0
C49 C 0.56304 0.091 0.6567 0.0
O50 O 0.51713 0.07835 0.67618 0.0
C51 C 0.4001 0.96044 0.62641 0.0
O52 O 0.38614 0.95188 0.58314 0.0
O53 O 0.44696 0.98262 0.63348 0.0
O54 O 0.46868 0.04101 0.52972 0.0
O55 O 0.53711 0.97352 0.53278 0.0
C56 C 0.58041 0.97771 0.5402 0.0
O57 O 0.60007 1.00066 0.58029 0.0
O58 O 0.5684 0.07631 0.61367 0.0
C59 C 0.02767 0.1891 0.14905 0.0
C60 C 0.06587 0.17454 0.15402 0.0
C61 C 0.01792 0.2223 0.18338 0.0
C62 C 0.06755 0.30736 0.29323 0.0
H63 H 0.92644 0.27845 0.32218 0.0
C64 C 0.98735 0.36301 0.47292 0.0
C65 C 0.96932 0.39901 0.47102 0.0
C66 C 0.99707 0.33717 0.43165 0.0
C67 C 0.96597 0.28703 0.31418 0.0
H68 H 0.12504 0.18514 0.19827 0.0
H69 H 0.10723 0.24118 0.25843 0.0
H70 H 0.95036 0.23351 0.25378 0.0
H71 H 0.94488 0.4341 0.42442 0.0
H72 H 0.96003 0.38702 0.35221 0.0
H73 H 0.08227 0.35875 0.35559 0.0
C74 C 0.08542 0.22838 0.2276 0.0
C75 C 0.97993 0.26167 0.27474 0.0
C76 C 0.09573 0.19596 0.1929 0.0
C77 C 0.95864 0.40655 0.42706 0.0
C78 C 0.96735 0.37977 0.38579 0.0
C79 C 0.05339 0.33179 0.33314 0.0
C80 C 0.04552 0.24111 0.22403 0.0
C81 C 0.03097 0.27108 0.26387 0.0
C82 C 0.98789 0.34587 0.38774 0.0
C83 C 1.0025 0.32154 0.34414 0.0
H84 H 0.00404 0.17342 0.11943 0.0
H85 H 0.98782 0.23213 0.1785 0.0
H86 H 0.10728 0.31678 0.28572 0.0
H87 H 0.99637 0.35651 0.50607 0.0
H88 H 0.01274 0.31101 0.43391 0.0
C89 C 0.86219 0.9965 0.18449 0.0
C90 C 0.91227 1.01296 0.19632 0.0
C91 C 0.82349 0.99055 0.21982 0.0
C92 C 0.8028 0.02887 0.34601 0.0
H93 H 0.67417 0.91135 0.339 0.0
C94 C 0.6633 0.97949 0.50733 0.0
C95 C 0.61304 0.96845 0.50047 0.0
C96 C 0.69729 0.98057 0.46892 0.0
C97 C 0.70978 0.94451 0.34127 0.0
H98 H 0.96077 0.03659 0.25474 0.0
H99 H 0.89391 0.02587 0.31558 0.0
H100 H 0.73814 0.92467 0.27339 0.0
H101 H 0.55826 0.94642 0.44778 0.0
H102 H 0.61772 0.94815 0.38069 0.0
H103 H 0.77494 0.04861 0.41381 0.0
C104 C 0.88433 1.0181 0.2792 0.0
C105 C 0.74635 0.95228 0.30362 0.0
C106 C 0.92276 0.02398 0.24412 0.0
C107 C 0.59672 0.95513 0.45438 0.0
C108 C 0.6308 0.95611 0.41587 0.0
C109 C 0.7665 1.02101 0.38355 0.0
C110 C 0.83415 1.00118 0.26765 0.0
C111 C 0.79358 0.99428 0.30583 0.0
C112 C 0.68187 0.97052 0.42267 0.0
C113 C 0.71979 0.97846 0.38196 0.0
H114 H 0.85279 0.98765 0.14803 0.0
H115 H 0.7853 0.97788 0.2097 0.0
H116 H 0.83825 0.06221 0.34851 0.0
H117 H 0.67713 0.98955 0.54231 0.0
H118 H 0.73613 0.99069 0.47539 0.0
C119 C 0.04405 0.90488 0.26486 0.0
C120 C 0.0502 0.9007 0.21542 0.0
C121 C 0.0549 0.8752 0.29104 0.0
C122 C 0.062 0.75541 0.28387 0.0
H123 H 0.12934 0.81128 0.40027 0.0
C124 C 0.09007 0.62958 0.40183 0.0
C125 C 0.07934 0.63743 0.45042 0.0
C126 C 0.09549 0.66465 0.37143 0.0
C127 C 0.11015 0.79493 0.36806 0.0
H128 H 0.07315 0.86216 0.15478 0.0
H129 H 0.09123 0.80929 0.20073 0.0
H130 H 0.12131 0.86635 0.34984 0.0
H131 H 0.0684 0.68976 0.50533 0.0
H132 H 0.07709 0.75045 0.45246 0.0
H133 H 0.04921 0.68384 0.30263 0.0
C134 C 0.07803 0.83581 0.21908 0.0
C135 C 0.10567 0.82657 0.33908 0.0
C136 C 0.06775 0.86612 0.19278 0.0
C137 C 0.0768 0.68249 0.46815 0.0
C138 C 0.08194 0.71746 0.43771 0.0
C139 C 0.06619 0.7237 0.31298 0.0
C140 C 0.07174 0.84008 0.26856 0.0
C141 C 0.08082 0.80709 0.297 0.0
C142 C 0.09009 0.70845 0.38876 0.0
C143 C 0.08966 0.7429 0.35587 0.0
H144 H 0.031 0.93137 0.28359 0.0
H145 H 0.04905 0.87907 0.32901 0.0
H146 H 0.04215 0.73913 0.25198 0.0
H147 H 0.09262 0.59546 0.38693 0.0
H148 H 0.10287 0.65687 0.33415 0.0
C149 C 0.21669 0.03513 0.18358 0.0
C150 C 0.16812 0.03187 0.19661 0.0
C151 C 0.24601 0.0325 0.21682 0.0
C152 C 0.26055 0.04808 0.34491 0.0
H153 H 0.34412 0.97787 0.30808 0.0
C154 C 0.4117 0.05656 0.4629 0.0
C155 C 0.41581 1.01168 0.46385 0.0
C156 C 0.38111 0.05988 0.431 0.0
C157 C 0.32076 0.99734 0.31916 0.0
H158 H 0.11205 0.02268 0.25492 0.0
H159 H 0.16282 1.01667 0.3128 0.0
H160 H 0.28932 0.979 0.2521 0.0
H161 H 0.39033 0.93492 0.43256 0.0
H162 H 0.33691 0.94047 0.37815 0.0
H163 H 0.29122 0.06519 0.41255 0.0
C164 C 0.17858 0.0223 0.27695 0.0
C165 C 0.28971 0.99848 0.2868 0.0
C166 C 0.1493 0.02529 0.24367 0.0
C167 C 0.38853 0.97028 0.43258 0.0
C168 C 0.35797 0.97351 0.40106 0.0
C169 C 0.29158 0.04679 0.37744 0.0
C170 C 0.22744 0.02617 0.26395 0.0
C171 C 0.25931 0.02396 0.29916 0.0
C172 C 0.35404 1.01835 0.39958 0.0
C173 C 0.32198 0.02128 0.36496 0.0
H174 H 0.23252 0.04041 0.14771 0.0
H175 H 0.28372 0.03637 0.20565 0.0
H176 H 0.23803 0.06853 0.35543 0.0
H177 H 0.43219 0.08908 0.48661 0.0
H178 H 0.37924 0.09513 0.43051 0.0
C179 C 0.88253 0.85469 0.9574 0.0
C180 C 0.92751 0.88886 0.97796 0.0
C181 C 0.88249 0.817 0.92276 0.0
C182 C 0.88942 0.73029 0.85751 0.0
H183 H 1.00063 0.77939 0.76337 0.0
C184 C 0.92215 0.60787 0.6926 0.0
C185 C 0.94025 0.63114 0.65054 0.0
C186 C 0.91652 0.63527 0.73468 0.0
C187 C 0.96915 0.76514 0.78918 0.0
H188 H 0.00706 0.90781 0.98036 0.0
H189 H 0.0068 0.8418 0.92028 0.0
H190 H 1.00004 0.83226 0.83543 0.0
H191 H 0.9632 0.7006 0.6193 0.0
H192 H 0.95288 0.74792 0.69226 0.0
H193 H 0.85809 0.66347 0.81037 0.0
C194 C 0.97168 0.84464 0.93054 0.0
C195 C 0.96919 0.79519 0.83089 0.0
C196 C 0.97168 0.88218 0.9654 0.0
C197 C 0.94959 0.68151 0.65103 0.0
C198 C 0.9441 0.70883 0.69298 0.0
C199 C 0.88952 0.70002 0.81575 0.0
C200 C 0.92745 0.81268 0.90768 0.0
C201 C 0.9291 0.77842 0.8654 0.0
C202 C 0.92901 0.6865 0.73557 0.0
C203 C 0.92906 0.71745 0.7808 0.0
H204 H 0.84778 0.85862 0.96627 0.0
H205 H 0.8478 0.79324 0.90582 0.0
H206 H 0.85811 0.71613 0.8835 0.0
H207 H 0.91467 0.56915 0.69354 0.0
H208 H 0.90477 0.61695 0.76688 0.0
C209 C 0.13033 0.03506 0.95207 0.0
C210 C 0.08062 1.0211 0.94066 0.0
C211 C 0.1631 0.02128 0.92082 0.0
C212 C 0.18065 0.98449 0.79433 0.0
H213 H 0.28097 0.95024 0.83477 0.0
C214 C 0.31012 0.9302 0.65839 0.0
C215 C 0.36182 0.95359 0.66648 0.0
C216 C 0.27418 0.93118 0.69421 0.0
C217 C 0.2533 0.95996 0.82295 0.0
H218 H 0.02548 0.97919 0.88875 0.0
H219 H 0.08204 0.95452 0.83497 0.0
H220 H 0.22125 0.96609 0.8931 0.0
H221 H 0.41598 0.99378 0.71957 0.0
H222 H 0.35328 0.9959 0.78192 0.0
H223 H 0.21283 0.9792 0.72448 0.0
C224 C 0.09636 0.97738 0.8673 0.0
C225 C 0.21913 0.96913 0.85639 0.0
C226 C 0.06383 0.99144 0.89826 0.0
C227 C 0.37646 0.97535 0.71209 0.0
C228 C 0.34045 0.97648 0.74793 0.0
C229 C 0.21463 0.9753 0.76104 0.0
C230 C 0.14674 0.99296 0.87765 0.0
C231 C 0.18243 0.98165 0.84246 0.0
C232 C 0.289 0.95575 0.739 0.0
C233 C 0.25151 0.96303 0.77483 0.0
H234 H 0.14435 0.05774 0.98455 0.0
H235 H 0.20171 0.03421 0.92984 0.0
H236 H 0.15373 0.99511 0.78232 0.0
H237 H 0.29743 0.91267 0.62384 0.0
H238 H 0.23477 0.91382 0.68639 0.0
C239 C 0.02252 0.18561 0.86618 0.0
C240 C 0.9982 0.18336 0.91151 0.0
C241 C 0.03189 0.22451 0.83932 0.0
C242 C 0.99167 0.32013 0.8215 0.0
H243 H 0.12097 0.37502 0.75013 0.0
C244 C 0.04179 0.47402 0.69631 0.0
C245 C 0.064 0.46655 0.65164 0.0
C246 C 0.03742 0.44517 0.73252 0.0
C247 C 0.08458 0.35995 0.76956 0.0
H248 H 0.9635 0.22013 0.96357 0.0
H249 H 0.9798 0.28879 0.91598 0.0
H250 H 0.10499 0.3143 0.8057 0.0
H251 H 0.10075 0.42398 0.61084 0.0
H252 H 0.09317 0.37376 0.67384 0.0
H253 H 0.9709 0.36507 0.78448 0.0
C254 C 0.99173 0.26004 0.90163 0.0
C255 C 0.07541 0.32518 0.80153 0.0
C256 C 0.98253 0.22087 0.92893 0.0
C257 C 0.08364 0.43096 0.64477 0.0
C258 C 0.07936 0.40217 0.68103 0.0
C259 C 1.00084 0.35501 0.78941 0.0
C260 C 0.01718 0.26256 0.85671 0.0
C261 C 0.02847 0.30396 0.82714 0.0
C262 C 0.05531 0.40822 0.72512 0.0
C263 C 0.04709 0.37462 0.76233 0.0
H264 H 0.03491 0.15735 0.85119 0.0
H265 H 0.05046 0.22451 0.80452 0.0
H266 H 0.95501 0.30426 0.84038 0.0
H267 H 0.02634 0.5012 0.70302 0.0
H268 H 0.01946 0.45145 0.7662 0.0
C269 C 0.81334 0.07867 0.95348 0.0
C270 C 0.85231 0.06522 0.93544 0.0
C271 C 0.78895 0.09309 0.92397 0.0
C272 C 0.79449 0.13129 0.80462 0.0
H273 H 0.64897 0.07289 0.82832 0.0
C274 C 0.65197 0.10793 0.66955 0.0
C275 C 0.60622 0.10962 0.68707 0.0
C276 C 0.68801 0.11384 0.70031 0.0
C277 C 0.68961 0.0904 0.82161 0.0
H278 H 0.89805 0.05892 0.87248 0.0
H279 H 0.85436 0.08287 0.82041 0.0
H280 H 0.70018 0.06048 0.88045 0.0
H281 H 0.56496 0.12414 0.75016 0.0
H282 H 0.62813 0.13543 0.80355 0.0
H283 H 0.78314 0.15984 0.74458 0.0
C284 C 0.84301 0.08271 0.85762 0.0
C285 C 0.71912 0.08321 0.8516 0.0
C286 C 0.86782 0.06861 0.88738 0.0
C287 C 0.59943 0.12192 0.73551 0.0
C288 C 0.63551 0.12804 0.76618 0.0
C289 C 0.76477 0.13835 0.77433 0.0
C290 C 0.80244 0.09399 0.87543 0.0
C291 C 0.77193 0.10345 0.84358 0.0
C292 C 0.67914 0.12181 0.74919 0.0
C293 C 0.71191 0.11788 0.7825 0.0
H294 H 0.80109 0.07752 0.9905 0.0
H295 H 0.75888 0.10287 0.93921 0.0
H296 H 0.83509 0.14777 0.79762 0.0
H297 H 0.65861 0.09876 0.63239 0.0
H298 H 0.72117 0.10882 0.686 0.0
loop_
_geom_bond_atom_site_label_1
_geom_bond_atom_site_label_2
_geom_bond_distance
_geom_bond_site_symmetry_2
_ccdc_geom_bond_type
Co0 O3 2.042 . S
Co0 O10 2.264 1_565 S
Co0 O29 2.286 1_455 S
Co0 O30 2.069 . S
Co0 O32 2.015 1_455 S
Co1 O3 2.122 1_545 S
Co1 O9 2.073 . S
Co1 O10 2.327 . S
Co1 O11 1.976 . S
Co2 O3 2.087 1_545 S
Co2 O5 2.087 1_454 S
Co2 O12 2.111 . S
Co2 O13 2.143 1_554 S
Co2 O17 2.111 1_445 S
Co2 O31 2.143 1_445 S
O3 Co0 2.042 . S
O3 Co1 2.122 1_565 S
O3 Co2 2.087 1_565 S
O3 H4 0.980 . S
H4 O3 0.980 . S
O5 Co2 2.087 1_656 S
O5 Co6 2.042 1_655 S
O5 Co7 2.122 1_545 S
O5 H8 0.980 1_556 S
Co6 O5 2.042 1_455 S
Co6 O14 2.286 . S
Co6 O15 2.069 1_455 S
Co6 O16 2.015 . S
Co6 O19 2.264 1_455 S
Co7 O5 2.122 1_565 S
Co7 O18 1.976 . S
Co7 O19 2.327 1_565 S
Co7 O20 2.073 . S
H8 O5 0.980 1_554 S
O9 Co1 2.073 . S
O9 C24 1.245 . S
O10 Co0 2.264 1_545 S
O10 Co1 2.327 . S
O10 C24 1.257 . S
O11 Co1 1.976 . S
O11 C23 1.251 . S
O12 Co2 2.111 . S
O12 C23 1.274 . S
O13 Co2 2.143 1_556 S
O13 C26 1.246 . S
O14 Co6 2.286 . S
O14 C25 1.259 1_455 S
O15 Co6 2.069 1_655 S
O15 C25 1.289 . S
O16 Co6 2.015 . S
O16 C26 1.257 . S
O17 Co2 2.111 1_665 S
O17 C27 1.274 1_554 S
O18 Co7 1.976 . S
O18 C27 1.251 . S
O19 Co6 2.264 1_655 S
O19 Co7 2.327 1_545 S
O19 C28 1.257 . S
O20 Co7 2.073 . S
O20 C28 1.245 1_565 S
C21 O29 1.259 1_455 S
C21 O30 1.289 . S
C22 O31 1.246 . S
C22 O32 1.257 . S
C23 O11 1.251 . S
C23 O12 1.274 . S
C24 O9 1.245 . S
C24 O10 1.257 . S
C25 O14 1.259 1_655 S
C25 O15 1.289 . S
C26 O13 1.246 . S
C26 O16 1.257 . S
C27 O17 1.274 1_556 S
C27 O18 1.251 . S
C28 O19 1.257 . S
C28 O20 1.245 1_545 S
O29 Co0 2.286 1_655 S
O29 C21 1.259 1_655 S
O30 Co0 2.069 . S
O30 C21 1.289 . S
O31 Co2 2.143 1_665 S
O31 C22 1.246 . S
O32 Co0 2.015 1_655 S
O32 C22 1.257 . S
Mg33 O40 2.141 . S
Mg33 O41 2.048 . S
Mg33 O42 2.048 . S
Mg33 O45 2.141 . S
C34 O35 1.313 . S
C34 O41 1.195 1_455 S
O35 C34 1.313 . S
C36 O37 1.245 . S
C36 O45 1.289 1_455 S
O37 C36 1.245 . S
C38 O39 1.245 . S
C38 O40 1.289 1_455 S
O39 C38 1.245 . S
O40 Mg33 2.141 . S
O40 C38 1.289 1_655 S
O41 Mg33 2.048 . S
O41 C34 1.195 1_655 S
O42 Mg33 2.048 . S
O42 C43 1.195 1_655 S
C43 O42 1.195 1_455 S
C43 O44 1.313 . S
O44 C43 1.313 . S
O45 Mg33 2.141 . S
O45 C36 1.289 1_655 S
Mg46 O53 2.141 . S
Mg46 O54 2.048 . S
Mg46 O55 2.048 . S
Mg46 O58 2.141 . S
C47 O48 1.313 1_545 S
C47 O54 1.195 . S
O48 C47 1.313 1_565 S
C49 O50 1.245 1_545 S
C49 O58 1.289 . S
O50 C49 1.245 1_565 S
C51 O52 1.245 1_545 S
C51 O53 1.289 . S
O52 C51 1.245 1_565 S
O53 Mg46 2.141 . S
O53 C51 1.289 . S
O54 Mg46 2.048 . S
O54 C47 1.195 . S
O55 Mg46 2.048 . S
O55 C56 1.195 . S
C56 O55 1.195 . S
C56 O57 1.313 1_545 S
O57 C56 1.313 1_565 S
O58 Mg46 2.141 . S
O58 C49 1.289 . S
C59 C60 1.347 1_655 S
C59 C61 1.328 . S
C59 H84 0.951 . S
C60 C59 1.347 1_455 S
C60 C76 1.349 . S
C61 C59 1.328 . S
C61 C80 1.429 1_655 S
C61 H85 0.950 . S
C62 C79 1.574 . S
C62 C81 1.368 . S
C62 H86 0.949 . S
H63 C67 0.949 . S
C64 C65 1.349 . S
C64 C66 1.327 . S
C64 H87 0.950 . S
C65 C64 1.349 . S
C65 C77 1.349 1_455 S
C66 C64 1.327 . S
C66 C82 1.429 . S
C66 H88 0.950 . S
C67 H63 0.949 . S
C67 C75 1.574 . S
C67 C83 1.368 1_655 S
H68 C76 0.950 . S
H69 C74 0.950 . S
H70 C75 0.949 . S
H71 C77 0.950 . S
H72 C78 0.950 . S
H73 C79 0.949 . S
C74 H69 0.950 . S
C74 C76 1.327 . S
C74 C80 1.429 . S
C75 C67 1.574 . S
C75 H70 0.949 . S
C75 C81 1.368 1_655 S
C76 C60 1.349 . S
C76 H68 0.950 . S
C76 C74 1.327 . S
C77 C65 1.349 1_655 S
C77 H71 0.950 . S
C77 C78 1.327 . S
C78 H72 0.950 . S
C78 C77 1.327 . S
C78 C82 1.429 1_655 S
C79 C62 1.574 . S
C79 H73 0.949 . S
C79 C83 1.368 . S
C80 C61 1.429 1_455 S
C80 C74 1.429 . S
C80 C81 1.523 . S
C81 C62 1.368 . S
C81 C75 1.368 1_455 S
C81 C80 1.523 . S
C82 C66 1.429 . S
C82 C78 1.429 1_455 S
C82 C83 1.523 . S
C83 C67 1.368 1_455 S
C83 C79 1.368 . S
C83 C82 1.523 . S
H84 C59 0.951 . S
H85 C61 0.950 . S
H86 C62 0.949 . S
H87 C64 0.950 . S
H88 C66 0.950 . S
C89 C90 1.349 1_545 S
C89 C91 1.327 . S
C89 H114 0.950 . S
C90 C89 1.349 1_565 S
C90 C106 1.349 . S
C91 C89 1.327 . S
C91 C110 1.442 . S
C91 H115 0.950 . S
C92 C109 1.574 . S
C92 C111 1.368 1_565 S
C92 H116 0.949 . S
H93 C97 0.949 . S
C94 C95 1.349 1_565 S
C94 C96 1.327 . S
C94 H117 0.950 . S
C95 C94 1.349 1_545 S
C95 C107 1.349 . S
C96 C94 1.327 . S
C96 C112 1.429 1_565 S
C96 H118 0.950 . S
C97 H93 0.949 . S
C97 C105 1.574 . S
C97 C113 1.368 . S
H98 C106 0.950 . S
H99 C104 0.950 . S
H100 C105 0.949 . S
H101 C107 0.950 . S
H102 C108 0.950 . S
H103 C109 0.949 . S
C104 H99 0.950 . S
C104 C106 1.327 . S
C104 C110 1.409 1_565 S
C105 C97 1.574 . S
C105 H100 0.949 . S
C105 C111 1.368 . S
C106 C90 1.349 . S
C106 H98 0.950 . S
C106 C104 1.327 . S
C107 C95 1.349 . S
C107 H101 0.950 . S
C107 C108 1.327 . S
C108 H102 0.950 . S
C108 C107 1.327 . S
C108 C112 1.429 . S
C109 C92 1.574 . S
C109 H103 0.949 . S
C109 C113 1.368 1_565 S
C110 C91 1.442 . S
C110 C104 1.409 1_545 S
C110 C111 1.528 . S
C111 C92 1.368 1_545 S
C111 C105 1.368 . S
C111 C110 1.528 . S
C112 C96 1.429 1_545 S
C112 C108 1.429 . S
C112 C113 1.523 . S
C113 C97 1.368 . S
C113 C109 1.368 1_545 S
C113 C112 1.523 . S
H114 C89 0.950 . S
H115 C91 0.950 . S
H116 C92 0.949 . S
H117 C94 0.950 . S
H118 C96 0.950 . S
C119 C120 1.349 1_655 S
C119 C121 1.327 . S
C119 H144 0.950 . S
C120 C119 1.349 1_455 S
C120 C136 1.349 . S
C121 C119 1.327 . S
C121 C140 1.429 1_655 S
C121 H145 0.950 . S
C122 C139 1.574 . S
C122 C141 1.368 . S
C122 H146 0.949 . S
H123 C127 0.949 . S
C124 C125 1.349 . S
C124 C126 1.327 . S
C124 H147 0.950 . S
C125 C124 1.349 . S
C125 C137 1.349 1_455 S
C126 C124 1.327 . S
C126 C142 1.429 . S
C126 H148 0.950 . S
C127 H123 0.949 . S
C127 C135 1.574 . S
C127 C143 1.368 1_655 S
H128 C136 0.950 . S
H129 C134 0.950 . S
H130 C135 0.949 . S
H131 C137 0.950 . S
H132 C138 0.950 . S
H133 C139 0.949 . S
C134 H129 0.950 . S
C134 C136 1.327 . S
C134 C140 1.429 . S
C135 C127 1.574 . S
C135 H130 0.949 . S
C135 C141 1.368 1_655 S
C136 C120 1.349 . S
C136 H128 0.950 . S
C136 C134 1.327 . S
C137 C125 1.349 1_655 S
C137 H131 0.950 . S
C137 C138 1.327 . S
C138 H132 0.950 . S
C138 C137 1.327 . S
C138 C142 1.429 1_655 S
C139 C122 1.574 . S
C139 H133 0.949 . S
C139 C143 1.368 . S
C140 C121 1.429 1_455 S
C140 C134 1.429 . S
C140 C141 1.523 . S
C141 C122 1.368 . S
C141 C135 1.368 1_455 S
C141 C140 1.523 . S
C142 C126 1.429 . S
C142 C138 1.429 1_455 S
C142 C143 1.523 . S
C143 C127 1.368 1_455 S
C143 C139 1.368 . S
C143 C142 1.523 . S
H144 C119 0.950 . S
H145 C121 0.950 . S
H146 C122 0.949 . S
H147 C124 0.950 . S
H148 C126 0.950 . S
C149 C150 1.349 . S
C149 C151 1.327 . S
C149 H174 0.950 . S
C150 C149 1.349 . S
C150 C166 1.349 1_565 S
C151 C149 1.327 . S
C151 C170 1.429 . S
C151 H175 0.950 . S
C152 C169 1.574 . S
C152 C171 1.368 1_545 S
C152 H176 0.949 . S
H153 C157 0.949 . S
C154 C155 1.349 . S
C154 C156 1.327 . S
C154 H177 0.950 . S
C155 C154 1.349 . S
C155 C167 1.349 1_545 S
C156 C154 1.327 . S
C156 C172 1.429 . S
C156 H178 0.950 . S
C157 H153 0.949 . S
C157 C165 1.574 . S
C157 C173 1.368 1_565 S
H158 C166 0.950 . S
H159 C164 0.950 . S
H160 C165 0.949 . S
H161 C167 0.950 . S
H162 C168 0.950 . S
H163 C169 0.949 . S
C164 H159 0.950 . S
C164 C166 1.327 . S
C164 C170 1.429 1_545 S
C165 C157 1.574 . S
C165 H160 0.949 . S
C165 C171 1.368 . S
C166 C150 1.349 1_545 S
C166 H158 0.950 . S
C166 C164 1.327 . S
C167 C155 1.349 1_565 S
C167 H161 0.950 . S
C167 C168 1.327 . S
C168 H162 0.950 . S
C168 C167 1.327 . S
C168 C172 1.429 1_565 S
C169 C152 1.574 . S
C169 H163 0.949 . S
C169 C173 1.368 . S
C170 C151 1.429 . S
C170 C164 1.429 1_565 S
C170 C171 1.523 . S
C171 C152 1.368 1_565 S
C171 C165 1.368 . S
C171 C170 1.523 . S
C172 C156 1.429 . S
C172 C168 1.429 1_545 S
C172 C173 1.523 . S
C173 C157 1.368 1_545 S
C173 C169 1.368 . S
C173 C172 1.523 . S
H174 C149 0.950 . S
H175 C151 0.950 . S
H176 C152 0.949 . S
H177 C154 0.950 . S
H178 C156 0.950 . S
C179 C180 1.339 1_455 S
C179 C181 1.327 . S
C179 H204 0.950 . S
C180 C179 1.339 1_655 S
C180 C196 1.352 . S
C181 C179 1.327 . S
C181 C200 1.429 . S
C181 H205 0.950 . S
C182 C199 1.574 . S
C182 C201 1.364 1_655 S
C182 H206 0.949 . S
H183 C187 0.949 . S
C184 C185 1.349 1_655 S
C184 C186 1.327 . S
C184 H207 0.950 . S
C185 C184 1.349 1_455 S
C185 C197 1.349 . S
C186 C184 1.327 . S
C186 C202 1.429 1_655 S
C186 H208 0.950 . S
C187 H183 0.949 . S
C187 C195 1.574 . S
C187 C203 1.368 . S
H188 C196 0.950 . S
H189 C194 0.950 . S
H190 C195 0.949 . S
H191 C197 0.950 . S
H192 C198 0.950 . S
H193 C199 0.949 . S
C194 H189 0.950 . S
C194 C196 1.327 . S
C194 C200 1.427 1_655 S
C195 C187 1.574 . S
C195 H190 0.949 . S
C195 C201 1.378 . S
C196 C180 1.352 . S
C196 H188 0.950 . S
C196 C194 1.327 . S
C197 C185 1.349 . S
C197 H191 0.950 . S
C197 C198 1.327 . S
C198 H192 0.950 . S
C198 C197 1.327 . S
C198 C202 1.429 . S
C199 C182 1.574 . S
C199 H193 0.949 . S
C199 C203 1.368 1_655 S
C200 C181 1.429 . S
C200 C194 1.427 1_455 S
C200 C201 1.518 . S
C201 C182 1.364 1_455 S
C201 C195 1.378 . S
C201 C200 1.518 . S
C202 C186 1.429 1_455 S
C202 C198 1.429 . S
C202 C203 1.523 . S
C203 C187 1.368 . S
C203 C199 1.368 1_455 S
C203 C202 1.523 . S
H204 C179 0.950 . S
H205 C181 0.950 . S
H206 C182 0.949 . S
H207 C184 0.950 . S
H208 C186 0.950 . S
C209 C210 1.349 . S
C209 C211 1.327 . S
C209 H234 0.950 . S
C210 C209 1.349 . S
C210 C226 1.349 1_545 S
C211 C209 1.327 . S
C211 C230 1.429 . S
C211 H235 0.950 . S
C212 C229 1.574 . S
C212 C231 1.368 1_565 S
C212 H236 0.949 . S
H213 C217 0.949 . S
C214 C215 1.349 1_565 S
C214 C216 1.327 . S
C214 H237 0.950 . S
C215 C214 1.349 1_545 S
C215 C227 1.349 . S
C216 C214 1.327 . S
C216 C232 1.429 1_565 S
C216 H238 0.950 . S
C217 H213 0.949 . S
C217 C225 1.574 . S
C217 C233 1.368 . S
H218 C226 0.950 . S
H219 C224 0.950 . S
H220 C225 0.949 . S
H221 C227 0.950 . S
H222 C228 0.950 . S
H223 C229 0.949 . S
C224 H219 0.950 . S
C224 C226 1.327 . S
C224 C230 1.429 1_565 S
C225 C217 1.574 . S
C225 H220 0.949 . S
C225 C231 1.368 . S
C226 C210 1.349 1_565 S
C226 H218 0.950 . S
C226 C224 1.327 . S
C227 C215 1.349 . S
C227 H221 0.950 . S
C227 C228 1.327 . S
C228 H222 0.950 . S
C228 C227 1.327 . S
C228 C232 1.429 . S
C229 C212 1.574 . S
C229 H223 0.949 . S
C229 C233 1.368 1_565 S
C230 C211 1.429 . S
C230 C224 1.429 1_545 S
C230 C231 1.523 . S
C231 C212 1.368 1_545 S
C231 C225 1.368 . S
C231 C230 1.523 . S
C232 C216 1.429 1_545 S
C232 C228 1.429 . S
C232 C233 1.523 . S
C233 C217 1.368 . S
C233 C229 1.368 1_545 S
C233 C232 1.523 . S
H234 C209 0.950 . S
H235 C211 0.950 . S
H236 C212 0.949 . S
H237 C214 0.950 . S
H238 C216 0.950 . S
C239 C240 1.349 1_455 S
C239 C241 1.327 . S
C239 H264 0.950 . S
C240 C239 1.349 1_655 S
C240 C256 1.349 . S
C241 C239 1.327 . S
C241 C260 1.429 1_455 S
C241 H265 0.950 . S
C242 C259 1.574 . S
C242 C261 1.368 . S
C242 H266 0.949 . S
H243 C247 0.949 . S
C244 C245 1.349 1_655 S
C244 C246 1.327 . S
C244 H267 0.950 . S
C245 C244 1.349 1_455 S
C245 C257 1.349 . S
C246 C244 1.327 . S
C246 C262 1.429 1_655 S
C246 H268 0.950 . S
C247 H243 0.949 . S
C247 C255 1.574 . S
C247 C263 1.367 1_455 S
H248 C256 0.950 . S
H249 C254 0.950 . S
H250 C255 0.949 . S
H251 C257 0.950 . S
H252 C258 0.950 . S
H253 C259 0.949 . S
C254 H249 0.950 . S
C254 C256 1.327 . S
C254 C260 1.429 . S
C255 C247 1.574 . S
C255 H250 0.949 . S
C255 C261 1.368 1_455 S
C256 C240 1.349 . S
C256 H248 0.950 . S
C256 C254 1.327 . S
C257 C245 1.349 . S
C257 H251 0.950 . S
C257 C258 1.327 . S
C258 H252 0.950 . S
C258 C257 1.327 . S
C258 C262 1.429 . S
C259 C242 1.574 . S
C259 H253 0.949 . S
C259 C263 1.369 . S
C260 C241 1.429 1_655 S
C260 C254 1.429 . S
C260 C261 1.523 . S
C261 C242 1.368 . S
C261 C255 1.368 1_655 S
C261 C260 1.523 . S
C262 C246 1.429 1_455 S
C262 C258 1.429 . S
C262 C263 1.523 1_455 S
C263 C247 1.367 1_655 S
C263 C259 1.369 . S
C263 C262 1.523 1_655 S
H264 C239 0.950 . S
H265 C241 0.950 . S
H266 C242 0.949 . S
H267 C244 0.950 . S
H268 C246 0.950 . S
C269 C270 1.349 1_565 S
C269 C271 1.327 . S
C269 H294 0.950 . S
C270 C269 1.349 1_545 S
C270 C286 1.349 . S
C271 C269 1.327 . S
C271 C290 1.429 1_565 S
C271 H295 0.950 . S
C272 C289 1.574 . S
C272 C291 1.368 . S
C272 H296 0.949 . S
H273 C277 0.949 . S
C274 C275 1.349 . S
C274 C276 1.327 . S
C274 H297 0.950 . S
C275 C274 1.349 . S
C275 C287 1.349 1_545 S
C276 C274 1.327 . S
C276 C292 1.429 . S
C276 H298 0.950 . S
C277 H273 0.949 . S
C277 C285 1.574 . S
C277 C293 1.368 1_565 S
H278 C286 0.950 . S
H279 C284 0.950 . S
H280 C285 0.949 . S
H281 C287 0.950 . S
H282 C288 0.950 . S
H283 C289 0.949 . S
C284 H279 0.950 . S
C284 C286 1.327 . S
C284 C290 1.429 . S
C285 C277 1.574 . S
C285 H280 0.949 . S
C285 C291 1.368 1_565 S
C286 C270 1.349 . S
C286 H278 0.950 . S
C286 C284 1.327 . S
C287 C275 1.349 1_565 S
C287 H281 0.950 . S
C287 C288 1.327 . S
C288 H282 0.950 . S
C288 C287 1.327 . S
C288 C292 1.429 1_565 S
C289 C272 1.574 . S
C289 H283 0.949 . S
C289 C293 1.368 . S
C290 C271 1.429 1_545 S
C290 C284 1.429 . S
C290 C291 1.523 . S
C291 C272 1.368 . S
C291 C285 1.368 1_545 S
C291 C290 1.523 . S
C292 C276 1.429 . S
C292 C288 1.429 1_545 S
C292 C293 1.523 . S
C293 C277 1.368 1_545 S
C293 C289 1.368 . S
C293 C292 1.523 . S
H294 C269 0.950 . S
H295 C271 0.950 . S
H296 C272 0.949 . S
H297 C274 0.950 . S
H298 C276 0.950 . S
C60 C23 1.274 . S
C65 C34 1.345 . S
C90 C22 1.395 . S
C95 C56 1.438 . S
C120 C21 1.799 . S
C125 C43 1.808 . S
C150 C24 1.475 1_565 S
C155 C47 1.527 . S
C180 C27 1.220 . S
C185 C36 1.269 . S
C210 C26 1.326 . S
C215 C51 1.368 . S
C245 C38 1.738 . S
C240 C25 1.730 . S
C270 C28 1.412 . S
C275 C49 1.463 . S
