# Generated by pormake.
# Topology gar, (4,6)-cn, num edge types: 1
# Building blocks:
#     Node 0, Type 0, BuildingBlock: QUQFOY_clean_sbu_3, # of connection points: 4
#     Node 1, Type 0, BuildingBlock: QUQFOY_clean_sbu_3, # of connection points: 4
#     Node 2, Type 0, BuildingBlock: QUQFOY_clean_sbu_3, # of connection points: 4
#     Node 3, Type 0, BuildingBlock: QUQFOY_clean_sbu_3, # of connection points: 4
#     Node 4, Type 0, BuildingBlock: QUQFOY_clean_sbu_3, # of connection points: 4
#     Node 5, Type 0, BuildingBlock: QUQFOY_clean_sbu_3, # of connection points: 4
#     Node 6, Type 0, BuildingBlock: QUQFOY_clean_sbu_3, # of connection points: 4
#     Node 7, Type 0, BuildingBlock: QUQFOY_clean_sbu_3, # of connection points: 4
#     Node 8, Type 0, BuildingBlock: QUQFOY_clean_sbu_3, # of connection points: 4
#     Node 9, Type 0, BuildingBlock: QUQFOY_clean_sbu_3, # of connection points: 4
#     Node 10, Type 0, BuildingBlock: QUQFOY_clean_sbu_3, # of connection points: 4
#     Node 11, Type 0, BuildingBlock: QUQFOY_clean_sbu_3, # of connection points: 4
#     Node 12, Type 0, BuildingBlock: QUQFOY_clean_sbu_3, # of connection points: 4
#     Node 13, Type 0, BuildingBlock: QUQFOY_clean_sbu_3, # of connection points: 4
#     Node 14, Type 0, BuildingBlock: QUQFOY_clean_sbu_3, # of connection points: 4
#     Node 15, Type 0, BuildingBlock: QUQFOY_clean_sbu_3, # of connection points: 4
#     Node 16, Type 0, BuildingBlock: QUQFOY_clean_sbu_3, # of connection points: 4
#     Node 17, Type 0, BuildingBlock: QUQFOY_clean_sbu_3, # of connection points: 4
#     Node 18, Type 0, BuildingBlock: QUQFOY_clean_sbu_3, # of connection points: 4
#     Node 19, Type 0, BuildingBlock: QUQFOY_clean_sbu_3, # of connection points: 4
#     Node 20, Type 0, BuildingBlock: QUQFOY_clean_sbu_3, # of connection points: 4
#     Node 21, Type 0, BuildingBlock: QUQFOY_clean_sbu_3, # of connection points: 4
#     Node 22, Type 0, BuildingBlock: QUQFOY_clean_sbu_3, # of connection points: 4
#     Node 23, Type 0, BuildingBlock: QUQFOY_clean_sbu_3, # of connection points: 4
#     Node 24, Type 1, BuildingBlock: CUKXOW_clean_sbu_0, # of connection points: 6
#     Node 25, Type 1, BuildingBlock: CUKXOW_clean_sbu_0, # of connection points: 6
#     Node 26, Type 1, BuildingBlock: CUKXOW_clean_sbu_0, # of connection points: 6
#     Node 27, Type 1, BuildingBlock: CUKXOW_clean_sbu_0, # of connection points: 6
#     Node 28, Type 1, BuildingBlock: CUKXOW_clean_sbu_0, # of connection points: 6
#     Node 29, Type 1, BuildingBlock: CUKXOW_clean_sbu_0, # of connection points: 6
#     Node 30, Type 1, BuildingBlock: CUKXOW_clean_sbu_0, # of connection points: 6
#     Node 31, Type 1, BuildingBlock: CUKXOW_clean_sbu_0, # of connection points: 6
#     Node 32, Type 1, BuildingBlock: CUKXOW_clean_sbu_0, # of connection points: 6
#     Node 33, Type 1, BuildingBlock: CUKXOW_clean_sbu_0, # of connection points: 6
#     Node 34, Type 1, BuildingBlock: CUKXOW_clean_sbu_0, # of connection points: 6
#     Node 35, Type 1, BuildingBlock: CUKXOW_clean_sbu_0, # of connection points: 6
#     Node 36, Type 1, BuildingBlock: CUKXOW_clean_sbu_0, # of connection points: 6
#     Node 37, Type 1, BuildingBlock: CUKXOW_clean_sbu_0, # of connection points: 6
#     Node 38, Type 1, BuildingBlock: CUKXOW_clean_sbu_0, # of connection points: 6
#     Node 39, Type 1, BuildingBlock: CUKXOW_clean_sbu_0, # of connection points: 6
#     Edge 40, Type (0, 1), BuildingBlock: TEMPAE_clean_linker_10, # of connection points: 2
#     Edge 41, Type (0, 1), BuildingBlock: TEMPAE_clean_linker_10, # of connection points: 2
#     Edge 42, Type (0, 1), BuildingBlock: TEMPAE_clean_linker_10, # of connection points: 2
#     Edge 43, Type (0, 1), BuildingBlock: TEMPAE_clean_linker_10, # of connection points: 2
#     Edge 44, Type (0, 1), BuildingBlock: TEMPAE_clean_linker_10, # of connection points: 2
#     Edge 45, Type (0, 1), BuildingBlock: TEMPAE_clean_linker_10, # of connection points: 2
#     Edge 46, Type (0, 1), BuildingBlock: TEMPAE_clean_linker_10, # of connection points: 2
#     Edge 47, Type (0, 1), BuildingBlock: TEMPAE_clean_linker_10, # of connection points: 2
#     Edge 48, Type (0, 1), BuildingBlock: TEMPAE_clean_linker_10, # of connection points: 2
#     Edge 49, Type (0, 1), BuildingBlock: TEMPAE_clean_linker_10, # of connection points: 2
#     Edge 50, Type (0, 1), BuildingBlock: TEMPAE_clean_linker_10, # of connection points: 2
#     Edge 51, Type (0, 1), BuildingBlock: TEMPAE_clean_linker_10, # of connection points: 2
#     Edge 52, Type (0, 1), BuildingBlock: TEMPAE_clean_linker_10, # of connection points: 2
#     Edge 53, Type (0, 1), BuildingBlock: TEMPAE_clean_linker_10, # of connection points: 2
#     Edge 54, Type (0, 1), BuildingBlock: TEMPAE_clean_linker_10, # of connection points: 2
#     Edge 55, Type (0, 1), BuildingBlock: TEMPAE_clean_linker_10, # of connection points: 2
#     Edge 56, Type (0, 1), BuildingBlock: TEMPAE_clean_linker_10, # of connection points: 2
#     Edge 57, Type (0, 1), BuildingBlock: TEMPAE_clean_linker_10, # of connection points: 2
#     Edge 58, Type (0, 1), BuildingBlock: TEMPAE_clean_linker_10, # of connection points: 2
#     Edge 59, Type (0, 1), BuildingBlock: TEMPAE_clean_linker_10, # of connection points: 2
#     Edge 60, Type (0, 1), BuildingBlock: TEMPAE_clean_linker_10, # of connection points: 2
#     Edge 61, Type (0, 1), BuildingBlock: TEMPAE_clean_linker_10, # of connection points: 2
#     Edge 62, Type (0, 1), BuildingBlock: TEMPAE_clean_linker_10, # of connection points: 2
#     Edge 63, Type (0, 1), BuildingBlock: TEMPAE_clean_linker_10, # of connection points: 2
#     Edge 64, Type (0, 1), BuildingBlock: TEMPAE_clean_linker_10, # of connection points: 2
#     Edge 65, Type (0, 1), BuildingBlock: TEMPAE_clean_linker_10, # of connection points: 2
#     Edge 66, Type (0, 1), BuildingBlock: TEMPAE_clean_linker_10, # of connection points: 2
#     Edge 67, Type (0, 1), BuildingBlock: TEMPAE_clean_linker_10, # of connection points: 2
#     Edge 68, Type (0, 1), BuildingBlock: TEMPAE_clean_linker_10, # of connection points: 2
#     Edge 69, Type (0, 1), BuildingBlock: TEMPAE_clean_linker_10, # of connection points: 2
#     Edge 70, Type (0, 1), BuildingBlock: TEMPAE_clean_linker_10, # of connection points: 2
#     Edge 71, Type (0, 1), BuildingBlock: TEMPAE_clean_linker_10, # of connection points: 2
#     Edge 72, Type (0, 1), BuildingBlock: TEMPAE_clean_linker_10, # of connection points: 2
#     Edge 73, Type (0, 1), BuildingBlock: TEMPAE_clean_linker_10, # of connection points: 2
#     Edge 74, Type (0, 1), BuildingBlock: TEMPAE_clean_linker_10, # of connection points: 2
#     Edge 75, Type (0, 1), BuildingBlock: TEMPAE_clean_linker_10, # of connection points: 2
#     Edge 76, Type (0, 1), BuildingBlock: TEMPAE_clean_linker_10, # of connection points: 2
#     Edge 77, Type (0, 1), BuildingBlock: TEMPAE_clean_linker_10, # of connection points: 2
#     Edge 78, Type (0, 1), BuildingBlock: TEMPAE_clean_linker_10, # of connection points: 2
#     Edge 79, Type (0, 1), BuildingBlock: TEMPAE_clean_linker_10, # of connection points: 2
#     Edge 80, Type (0, 1), BuildingBlock: TEMPAE_clean_linker_10, # of connection points: 2
#     Edge 81, Type (0, 1), BuildingBlock: TEMPAE_clean_linker_10, # of connection points: 2
#     Edge 82, Type (0, 1), BuildingBlock: TEMPAE_clean_linker_10, # of connection points: 2
#     Edge 83, Type (0, 1), BuildingBlock: TEMPAE_clean_linker_10, # of connection points: 2
#     Edge 84, Type (0, 1), BuildingBlock: TEMPAE_clean_linker_10, # of connection points: 2
#     Edge 85, Type (0, 1), BuildingBlock: TEMPAE_clean_linker_10, # of connection points: 2
#     Edge 86, Type (0, 1), BuildingBlock: TEMPAE_clean_linker_10, # of connection points: 2
#     Edge 87, Type (0, 1), BuildingBlock: TEMPAE_clean_linker_10, # of connection points: 2
#     Edge 88, Type (0, 1), BuildingBlock: TEMPAE_clean_linker_10, # of connection points: 2
#     Edge 89, Type (0, 1), BuildingBlock: TEMPAE_clean_linker_10, # of connection points: 2
#     Edge 90, Type (0, 1), BuildingBlock: TEMPAE_clean_linker_10, # of connection points: 2
#     Edge 91, Type (0, 1), BuildingBlock: TEMPAE_clean_linker_10, # of connection points: 2
#     Edge 92, Type (0, 1), BuildingBlock: TEMPAE_clean_linker_10, # of connection points: 2
#     Edge 93, Type (0, 1), BuildingBlock: TEMPAE_clean_linker_10, # of connection points: 2
#     Edge 94, Type (0, 1), BuildingBlock: TEMPAE_clean_linker_10, # of connection points: 2
#     Edge 95, Type (0, 1), BuildingBlock: TEMPAE_clean_linker_10, # of connection points: 2
#     Edge 96, Type (0, 1), BuildingBlock: TEMPAE_clean_linker_10, # of connection points: 2
#     Edge 97, Type (0, 1), BuildingBlock: TEMPAE_clean_linker_10, # of connection points: 2
#     Edge 98, Type (0, 1), BuildingBlock: TEMPAE_clean_linker_10, # of connection points: 2
#     Edge 99, Type (0, 1), BuildingBlock: TEMPAE_clean_linker_10, # of connection points: 2
#     Edge 100, Type (0, 1), BuildingBlock: TEMPAE_clean_linker_10, # of connection points: 2
#     Edge 101, Type (0, 1), BuildingBlock: TEMPAE_clean_linker_10, # of connection points: 2
#     Edge 102, Type (0, 1), BuildingBlock: TEMPAE_clean_linker_10, # of connection points: 2
#     Edge 103, Type (0, 1), BuildingBlock: TEMPAE_clean_linker_10, # of connection points: 2
#     Edge 104, Type (0, 1), BuildingBlock: TEMPAE_clean_linker_10, # of connection points: 2
#     Edge 105, Type (0, 1), BuildingBlock: TEMPAE_clean_linker_10, # of connection points: 2
#     Edge 106, Type (0, 1), BuildingBlock: TEMPAE_clean_linker_10, # of connection points: 2
#     Edge 107, Type (0, 1), BuildingBlock: TEMPAE_clean_linker_10, # of connection points: 2
#     Edge 108, Type (0, 1), BuildingBlock: TEMPAE_clean_linker_10, # of connection points: 2
#     Edge 109, Type (0, 1), BuildingBlock: TEMPAE_clean_linker_10, # of connection points: 2
#     Edge 110, Type (0, 1), BuildingBlock: TEMPAE_clean_linker_10, # of connection points: 2
#     Edge 111, Type (0, 1), BuildingBlock: TEMPAE_clean_linker_10, # of connection points: 2
#     Edge 112, Type (0, 1), BuildingBlock: TEMPAE_clean_linker_10, # of connection points: 2
#     Edge 113, Type (0, 1), BuildingBlock: TEMPAE_clean_linker_10, # of connection points: 2
#     Edge 114, Type (0, 1), BuildingBlock: TEMPAE_clean_linker_10, # of connection points: 2
#     Edge 115, Type (0, 1), BuildingBlock: TEMPAE_clean_linker_10, # of connection points: 2
#     Edge 116, Type (0, 1), BuildingBlock: TEMPAE_clean_linker_10, # of connection points: 2
#     Edge 117, Type (0, 1), BuildingBlock: TEMPAE_clean_linker_10, # of connection points: 2
#     Edge 118, Type (0, 1), BuildingBlock: TEMPAE_clean_linker_10, # of connection points: 2
#     Edge 119, Type (0, 1), BuildingBlock: TEMPAE_clean_linker_10, # of connection points: 2
#     Edge 120, Type (0, 1), BuildingBlock: TEMPAE_clean_linker_10, # of connection points: 2
#     Edge 121, Type (0, 1), BuildingBlock: TEMPAE_clean_linker_10, # of connection points: 2
#     Edge 122, Type (0, 1), BuildingBlock: TEMPAE_clean_linker_10, # of connection points: 2
#     Edge 123, Type (0, 1), BuildingBlock: TEMPAE_clean_linker_10, # of connection points: 2
#     Edge 124, Type (0, 1), BuildingBlock: TEMPAE_clean_linker_10, # of connection points: 2
#     Edge 125, Type (0, 1), BuildingBlock: TEMPAE_clean_linker_10, # of connection points: 2
#     Edge 126, Type (0, 1), BuildingBlock: TEMPAE_clean_linker_10, # of connection points: 2
#     Edge 127, Type (0, 1), BuildingBlock: TEMPAE_clean_linker_10, # of connection points: 2
#     Edge 128, Type (0, 1), BuildingBlock: TEMPAE_clean_linker_10, # of connection points: 2
#     Edge 129, Type (0, 1), BuildingBlock: TEMPAE_clean_linker_10, # of connection points: 2
#     Edge 130, Type (0, 1), BuildingBlock: TEMPAE_clean_linker_10, # of connection points: 2
#     Edge 131, Type (0, 1), BuildingBlock: TEMPAE_clean_linker_10, # of connection points: 2
#     Edge 132, Type (0, 1), BuildingBlock: TEMPAE_clean_linker_10, # of connection points: 2
#     Edge 133, Type (0, 1), BuildingBlock: TEMPAE_clean_linker_10, # of connection points: 2
#     Edge 134, Type (0, 1), BuildingBlock: TEMPAE_clean_linker_10, # of connection points: 2
#     Edge 135, Type (0, 1), BuildingBlock: TEMPAE_clean_linker_10, # of connection points: 2
# Relax obj value: 0.106
# Max RMSD: 0.221
# Mean RMSD: 0.118
data_MOF--net-gar--node1-QUQFOY_clean_sbu_3--node2-CUKXOW_clean_sbu_0--edge1-TEMPAE_clean_linker_10
_symmetry_space_group_name_H-M    P1
_symmetry_Int_Tables_number       1
_symmetry_cell_setting            triclinic
loop_
_symmetry_equiv_pos_as_xyz
'x, y, z'
_cell_length_a     56.199205
_cell_length_b     55.611344
_cell_length_c     55.458219
_cell_angle_alpha  94.781462
_cell_angle_beta   95.42352
_cell_angle_gamma 99.619562
loop_
_atom_site_label
_atom_site_type_symbol
_atom_site_fract_x
_atom_site_fract_y
_atom_site_fract_z
_atom_type_partial_charge
C0 C 0.9824 0.25742 0.38116 0.0
O1 O -0.0004 0.26782 0.37033 0.0
Cd2 Cd 0.04034 0.27833 0.38829 0.0
O3 O 0.98637 0.25064 0.40236 0.0
Cd4 Cd 0.02181 0.24813 0.43168 0.0
C5 C 0.03325 0.30918 0.44345 0.0
O6 O 0.04692 0.24013 0.40112 0.0
O7 O 0.06648 0.24938 0.43678 0.0
O8 O 0.0039 0.20621 0.43367 0.0
C9 C 0.06666 0.24204 0.41454 0.0
O10 O 0.04017 0.30955 0.42223 0.0
C11 C 0.00598 0.20722 0.45671 0.0
O12 O 0.0249 0.28906 0.45147 0.0
O13 O 0.01457 0.22794 0.46847 0.0
C14 C 0.97736 0.77362 0.65903 0.0
O15 O -0.0039 0.76597 0.66772 0.0
Cd16 Cd 0.03131 0.76666 0.64722 0.0
O17 O 0.97652 0.78194 0.63826 0.0
Cd18 Cd 0.00401 0.78988 0.60623 0.0
C19 C 0.00806 0.73061 0.59418 0.0
O20 O 0.03716 0.8077 0.63569 0.0
O21 O 0.04763 0.80064 0.59986 0.0
O22 O 0.98658 0.82619 0.59967 0.0
C23 C 0.05324 0.81106 0.62133 0.0
O24 O 0.02186 0.73317 0.61414 0.0
C25 C 0.98544 0.82306 0.57664 0.0
O26 O -0.00203 0.74815 0.58758 0.0
O27 O 0.99162 0.80367 0.56746 0.0
C28 C 0.47094 0.76483 0.88601 0.0
O29 O 0.48424 0.77998 0.87486 0.0
Cd30 Cd 0.52726 0.79035 0.88142 0.0
O31 O 0.47992 0.75402 0.90313 0.0
Cd32 Cd 0.51993 0.7531 0.92514 0.0
C33 C 0.53117 0.81457 0.94131 0.0
O34 O 0.53727 0.75171 0.8881 0.0
O35 O 0.56325 0.7531 0.91944 0.0
O36 O 0.50517 0.71013 0.92673 0.0
C37 C 0.55892 0.75173 0.89645 0.0
O38 O 0.53389 0.81715 0.91908 0.0
C39 C 0.51049 0.71036 0.94949 0.0
O40 O 0.52511 0.79339 0.94835 0.0
O41 O 0.51995 0.73085 0.96126 0.0
C42 C 0.46882 0.26906 0.15229 0.0
O43 O 0.48641 0.25982 0.16134 0.0
Cd44 Cd 0.52386 0.26216 0.14463 0.0
O45 O 0.47018 0.27941 0.13264 0.0
Cd46 Cd 0.50043 0.28871 0.10329 0.0
C47 C 0.50528 0.22968 0.08892 0.0
O48 O 0.531 0.30415 0.13612 0.0
O49 O 0.54492 0.30077 0.10146 0.0
O50 O 0.48381 0.32564 0.09715 0.0
C51 C 0.54861 0.30889 0.1238 0.0
O52 O 0.51725 0.23094 0.10979 0.0
C53 C 0.48396 0.32354 0.07421 0.0
O54 O 0.49594 0.24774 0.08244 0.0
O55 O 0.49074 0.30459 0.06478 0.0
C56 C 0.95356 0.76349 0.19717 0.0
O57 O 0.96811 0.75346 0.21027 0.0
Cd58 Cd 0.0092 0.7511 0.20374 0.0
O59 O 0.96021 0.77336 0.17839 0.0
Cd60 Cd -0.00277 0.77956 0.1568 0.0
C61 C -0.00063 0.71877 0.14737 0.0
O62 O 0.02616 0.79068 0.19341 0.0
O63 O 0.04168 0.78586 0.15973 0.0
O64 O 0.98774 0.81872 0.14539 0.0
C65 C 0.04506 0.79148 0.18255 0.0
O66 O 0.00738 0.7198 0.16976 0.0
C67 C 0.98934 0.81415 0.12283 0.0
O68 O 0.99262 0.73729 0.13857 0.0
O69 O 0.99421 0.79332 0.11604 0.0
C70 C 0.48156 0.7835 0.33108 0.0
O71 O 0.49429 0.79868 0.31947 0.0
Cd72 Cd 0.53551 0.81743 0.33157 0.0
O73 O 0.49061 0.77627 0.35062 0.0
Cd74 Cd 0.53167 0.78276 0.37467 0.0
C75 C 0.52985 0.84337 0.38844 0.0
O76 O 0.55325 0.78228 0.3389 0.0
O77 O 0.57637 0.79 0.37276 0.0
O78 O 0.52176 0.74008 0.38357 0.0
C79 C 0.5745 0.78601 0.34978 0.0
O80 O 0.5345 0.84687 0.36685 0.0
C81 C 0.53004 0.74435 0.40592 0.0
O82 O 0.52709 0.82189 0.39527 0.0
O83 O 0.5385 0.76653 0.41375 0.0
C84 C 0.44572 0.2533 0.68849 0.0
O85 O 0.45954 0.2415 0.70035 0.0
Cd86 Cd 0.4992 0.23648 0.6916 0.0
O87 O 0.45266 0.26382 0.67012 0.0
Cd88 Cd 0.48981 0.26895 0.64805 0.0
C89 C 0.48642 0.2078 0.63369 0.0
O90 O 0.51911 0.27663 0.68477 0.0
O91 O 0.53422 0.2723 0.65082 0.0
O92 O 0.481 0.30914 0.63846 0.0
C93 C 0.53786 0.27704 0.67373 0.0
O94 O 0.49352 0.20637 0.65592 0.0
C95 C 0.48403 0.30597 0.61607 0.0
O96 O 0.48248 0.22802 0.62641 0.0
O97 O 0.48956 0.28564 0.60864 0.0
C98 C 0.9792 0.29318 0.83267 0.0
O99 O 0.99195 0.30837 0.82109 0.0
Cd100 Cd 0.03331 0.32721 0.83351 0.0
O101 O 0.98824 0.28607 0.85225 0.0
Cd102 Cd 0.02857 0.29277 0.87706 0.0
C103 C 0.02755 0.35376 0.88998 0.0
O104 O 0.05185 0.29296 0.84247 0.0
O105 O 0.07339 0.30005 0.87741 0.0
O106 O 0.02241 0.24981 0.88468 0.0
C107 C 0.07263 0.29668 0.85444 0.0
O108 O 0.03236 0.35699 0.86838 0.0
C109 C 0.02502 0.25391 0.90774 0.0
O110 O 0.02448 0.33238 0.89705 0.0
O111 O 0.02883 0.27619 0.91662 0.0
C112 C 0.43641 0.06842 0.29276 0.0
O113 O 0.45119 0.05959 0.28013 0.0
Cd114 Cd 0.44216 0.04622 0.23763 0.0
O115 O 0.4169 0.07384 0.28263 0.0
Cd116 Cd 0.39751 0.07523 0.24 0.0
C117 C 0.38395 0.0136 0.23718 0.0
O118 O 0.43277 0.07995 0.21704 0.0
O119 O 0.39838 0.06557 0.19602 0.0
O120 O 0.38981 0.11767 0.2441 0.0
C121 C 0.42106 0.07271 0.19631 0.0
O122 O 0.40636 0.01346 0.23522 0.0
C123 C 0.36681 0.11159 0.24178 0.0
O124 O 0.37606 0.03369 0.23993 0.0
O125 O 0.35826 0.08879 0.23864 0.0
C126 C 0.28202 0.09479 0.5095 0.0
O127 O 0.26187 0.08538 0.5163 0.0
Cd128 Cd 0.22329 0.09657 0.50584 0.0
O129 O 0.28336 0.11226 0.49587 0.0
Cd130 Cd 0.25585 0.13809 0.47763 0.0
C131 C 0.23778 0.15554 0.53241 0.0
O132 O 0.22287 0.10497 0.46432 0.0
O133 O 0.21344 0.14065 0.46261 0.0
O134 O 0.27451 0.14712 0.44033 0.0
C135 C 0.20675 0.11758 0.45893 0.0
O136 O 0.22515 0.13427 0.53244 0.0
C137 C 0.28214 0.16964 0.4476 0.0
O138 O 0.25094 0.16058 0.51546 0.0
O139 O 0.27781 0.17708 0.46872 0.0
C140 C 0.10339 -0.00031 0.81537 0.0
O141 O 0.0908 0.00621 0.79766 0.0
Cd142 Cd 0.10406 0.01418 0.75925 0.0
O143 O 0.12498 0.99597 0.8133 0.0
Cd144 Cd 0.15172 0.99546 0.77903 0.0
C145 C 0.15671 0.05692 0.7756 0.0
O146 O 0.11946 0.97838 0.74671 0.0
O147 O 0.15335 0.9937 0.73447 0.0
O148 O 0.16153 0.95647 0.79036 0.0
C149 C 0.13206 0.98155 0.72914 0.0
O150 O 0.13487 0.0516 0.7656 0.0
C151 C 0.1843 0.96218 0.78997 0.0
O152 O 0.16741 0.04021 0.78364 0.0
O153 O 0.19229 0.98404 0.78583 0.0
C154 C 0.25752 0.93509 0.02606 0.0
O155 O 0.24465 0.94851 0.01525 0.0
Cd156 Cd 0.20253 0.93672 0.0029 0.0
O157 O 0.24776 0.91471 0.03294 0.0
Cd158 Cd 0.20622 0.88972 0.03462 0.0
C159 C 0.20411 0.87962 0.97247 0.0
O160 O 0.18749 0.92531 0.03964 0.0
O161 O 0.16138 0.89209 0.03194 0.0
O162 O 0.21778 0.88566 0.07785 0.0
C163 C 0.16543 0.91521 0.03706 0.0
O164 O 0.20228 0.90215 0.97234 0.0
C165 C 0.21466 0.86242 0.07599 0.0
O166 O 0.2057 0.86988 0.99249 0.0
O167 O 0.20718 0.8515 0.05488 0.0
C168 C 0.28549 0.44215 0.05516 0.0
O169 O 0.27762 0.45752 0.04218 0.0
Cd170 Cd 0.2394 0.45137 0.01829 0.0
O171 O 0.27188 0.42231 0.05877 0.0
Cd172 Cd 0.2282 0.40294 0.05072 0.0
C173 C 0.23906 0.39208 0.9923 0.0
O174 O 0.21243 0.43974 0.04666 0.0
O175 O 0.18586 0.40677 0.03748 0.0
O176 O 0.22965 0.39692 0.0934 0.0
C177 C 0.19086 0.42994 0.03885 0.0
O178 O 0.24027 0.41498 0.9906 0.0
C179 C 0.22075 0.37419 0.09001 0.0
O180 O 0.23548 0.38301 0.01226 0.0
O181 O 0.21513 0.36477 0.0681 0.0
C182 C 0.83379 0.13235 0.01517 0.0
O183 O 0.81885 0.12161 0.02829 0.0
Cd184 Cd 0.77896 0.12871 0.03311 0.0
O185 O 0.82876 0.15033 0.00384 0.0
Cd186 Cd 0.7931 0.17339 0.00136 0.0
C187 C 0.79029 0.18699 0.06259 0.0
O188 O 0.76258 0.13597 0.99395 0.0
O189 O 0.74857 0.16918 0.00062 0.0
O190 O 0.79881 0.17951 0.95852 0.0
C191 C 0.74422 0.14625 0.99481 0.0
O192 O 0.78159 0.16429 0.06209 0.0
C193 C 0.79635 0.20183 0.95994 0.0
O194 O 0.79849 0.19563 0.04372 0.0
O195 O 0.79412 0.21154 0.98098 0.0
C196 C 0.07398 0.49457 0.31041 0.0
O197 O 0.06441 0.50691 0.29517 0.0
Cd198 Cd 0.07252 0.51076 0.25413 0.0
O199 O 0.09057 0.48261 0.30485 0.0
Cd200 Cd 0.11368 0.47893 0.26809 0.0
C201 C 0.13102 0.54083 0.26782 0.0
O202 O 0.07952 0.47263 0.23587 0.0
O203 O 0.11473 0.48335 0.22417 0.0
O204 O 0.12124 0.43621 0.26905 0.0
C205 C 0.09204 0.47692 0.21839 0.0
O206 O 0.10952 0.54107 0.25838 0.0
C207 C 0.14406 0.44228 0.27453 0.0
O208 O 0.13695 0.52113 0.27476 0.0
O209 O 0.15251 0.4651 0.27732 0.0
C210 C 0.78953 0.94565 0.55009 0.0
O211 O 0.78198 0.96124 0.53716 0.0
Cd212 Cd 0.74313 0.95698 0.51442 0.0
O213 O 0.77545 0.92627 0.55408 0.0
Cd214 Cd 0.73164 0.908 0.54639 0.0
C215 C 0.73965 0.89783 0.48694 0.0
O216 O 0.71668 0.94539 0.54337 0.0
O217 O 0.68937 0.91283 0.53552 0.0
O218 O 0.7331 0.90016 0.58853 0.0
C219 C 0.69479 0.93595 0.53652 0.0
O220 O 0.74168 0.92085 0.48557 0.0
C221 C 0.72422 0.87747 0.58413 0.0
O222 O 0.73661 0.88867 0.50695 0.0
O223 O 0.71863 0.869 0.56195 0.0
C224 C 0.90565 0.06857 0.28413 0.0
O225 O 0.92034 0.06002 0.27114 0.0
Cd226 Cd 0.91077 0.04456 0.22947 0.0
O227 O 0.88478 0.07141 0.2748 0.0
Cd228 Cd 0.86141 0.06843 0.23361 0.0
C229 C 0.85542 0.00614 0.23222 0.0
O230 O 0.89646 0.07765 0.21224 0.0
O231 O 0.86356 0.06445 0.18861 0.0
O232 O 0.85503 0.11027 0.24311 0.0
C233 C 0.88625 0.07247 0.19072 0.0
O234 O 0.878 0.00924 0.22958 0.0
C235 C 0.83201 0.10551 0.24033 0.0
O236 O 0.84458 0.0245 0.23463 0.0
O237 O 0.82227 0.08322 0.23422 0.0
C238 C 0.33026 0.62968 0.51295 0.0
O239 O 0.31447 0.61789 0.52451 0.0
Cd240 Cd 0.27466 0.62531 0.52881 0.0
O241 O 0.32603 0.64862 0.50283 0.0
Cd242 Cd 0.29099 0.67218 0.49996 0.0
C243 C 0.28746 0.68244 0.56125 0.0
O244 O 0.25979 0.63565 0.4904 0.0
O245 O 0.24651 0.66901 0.49874 0.0
O246 O 0.29863 0.67886 0.45789 0.0
C247 C 0.24171 0.64628 0.49183 0.0
O248 O 0.27825 0.65975 0.55931 0.0
C249 C 0.29666 0.70132 0.45938 0.0
O250 O 0.29608 0.69223 0.54311 0.0
O251 O 0.2937 0.71089 0.48027 0.0
C252 C 0.39921 0.56803 0.78086 0.0
O253 O 0.41389 0.55892 0.76828 0.0
Cd254 Cd 0.40447 0.54129 0.72725 0.0
O255 O 0.3782 0.57025 0.77132 0.0
Cd256 Cd 0.35409 0.56485 0.73024 0.0
C257 C 0.3496 0.50293 0.7324 0.0
O258 O 0.38886 0.57275 0.70842 0.0
O259 O 0.35593 0.55886 0.6851 0.0
O260 O 0.34644 0.6066 0.7379 0.0
C261 C 0.37869 0.56645 0.68702 0.0
O262 O 0.37212 0.5061 0.72947 0.0
C263 C 0.32345 0.60108 0.73567 0.0
O264 O 0.33842 0.52111 0.73382 0.0
O265 O 0.31435 0.57849 0.73054 0.0
C266 C 0.57624 0.99095 0.80889 0.0
O267 O 0.56611 0.00298 0.79371 0.0
Cd268 Cd 0.57373 0.00742 0.75253 0.0
O269 O 0.59311 0.97947 0.80313 0.0
Cd270 Cd 0.61585 0.97624 0.7659 0.0
C271 C 0.63191 0.03839 0.76673 0.0
O272 O 0.58147 0.96983 0.7336 0.0
O273 O 0.61669 0.9813 0.72212 0.0
O274 O 0.62442 0.93387 0.76769 0.0
C275 C 0.59406 0.97452 0.71622 0.0
O276 O 0.61038 0.03836 0.75719 0.0
C277 C 0.64733 0.94042 0.77201 0.0
O278 O 0.63819 0.01874 0.77339 0.0
O279 O 0.65534 0.9633 0.77372 0.0
C280 C 0.77348 0.58538 0.00274 0.0
O281 O 0.75366 0.57769 0.01114 0.0
Cd282 Cd 0.71673 0.59296 0.00306 0.0
O283 O 0.77526 0.60299 0.98929 0.0
Cd284 Cd 0.74942 0.63157 0.97387 0.0
C285 C 0.73682 0.6509 0.03034 0.0
O286 O 0.71429 0.60067 0.96105 0.0
O287 O 0.7074 0.63753 0.9616 0.0
O288 O 0.76654 0.63928 0.93561 0.0
C289 C 0.69932 0.61478 0.95663 0.0
O290 O 0.72251 0.63063 0.03072 0.0
C291 C 0.77537 0.66163 0.9425 0.0
O292 O 0.74918 0.65471 0.01257 0.0
O293 O 0.77251 0.66956 0.96395 0.0
C294 C 0.93681 0.55805 0.79249 0.0
O295 O 0.94708 0.54442 0.77881 0.0
Cd296 Cd 0.94019 0.53514 0.73566 0.0
O297 O 0.92041 0.56925 0.78361 0.0
Cd298 Cd 0.89892 0.57169 0.74198 0.0
C299 C 0.88013 0.50908 0.73483 0.0
O300 O 0.93496 0.5731 0.72136 0.0
O301 O 0.90244 0.57171 0.6974 0.0
O302 O 0.893 0.61401 0.75341 0.0
C303 C 0.92517 0.57229 0.69977 0.0
O304 O 0.90176 0.50663 0.73153 0.0
C305 C 0.8702 0.60952 0.74715 0.0
O306 O 0.87476 0.53022 0.73964 0.0
O307 O 0.86106 0.58765 0.73872 0.0
C308 C 0.75619 0.43298 0.52604 0.0
O309 O 0.7431 0.44579 0.51456 0.0
Cd310 Cd 0.70067 0.43408 0.50245 0.0
O311 O 0.74674 0.41289 0.53371 0.0
Cd312 Cd 0.70607 0.38705 0.53606 0.0
C313 C 0.70318 0.3765 0.47345 0.0
O314 O 0.68719 0.42247 0.53957 0.0
O315 O 0.66174 0.38889 0.53843 0.0
O316 O 0.72049 0.38418 0.57862 0.0
C317 C 0.66548 0.41215 0.54007 0.0
O318 O 0.70071 0.39884 0.47297 0.0
C319 C 0.71599 0.36095 0.57761 0.0
O320 O 0.70531 0.36717 0.49369 0.0
O321 O 0.70691 0.34952 0.55709 0.0
C322 C 0.59413 0.50883 0.30876 0.0
O323 O 0.58291 0.51564 0.29031 0.0
Cd324 Cd 0.59785 0.52103 0.25219 0.0
O325 O 0.61541 0.50369 0.30781 0.0
Cd326 Cd 0.6438 0.50155 0.27509 0.0
C327 C 0.65079 0.56279 0.26949 0.0
O328 O 0.61243 0.48405 0.24232 0.0
O329 O 0.64689 0.4985 0.23074 0.0
O330 O 0.6529 0.46248 0.28719 0.0
C331 C 0.62568 0.48622 0.22517 0.0
O332 O 0.62942 0.55774 0.2583 0.0
C333 C 0.67575 0.46806 0.28735 0.0
O334 O 0.66043 0.54607 0.27896 0.0
O335 O 0.68403 0.48994 0.28353 0.0
Tb336 Tb 0.01501 0.05867 0.00831 0.0
C337 C 0.02228 0.01823 0.9676 0.0
Tb338 Tb 0.99592 0.00361 0.01408 0.0
O339 O 0.05256 0.0522 0.01186 0.0
O340 O 0.02581 0.03093 0.02834 0.0
O341 O 0.02107 0.04161 0.97336 0.0
C342 C 0.99483 0.95773 0.02521 0.0
O343 O 0.01463 0.00052 0.98127 0.0
C344 C 0.96259 0.0287 -0.00105 0.0
C345 C 0.98813 0.0438 0.05458 0.0
O346 O 0.9785 0.96482 0.01053 0.0
O347 O 0.01157 0.97637 0.03327 0.0
O348 O 0.95776 0.00837 0.00899 0.0
O349 O 0.98462 0.03179 0.99498 0.0
O350 O 0.98957 0.02037 0.04921 0.0
O351 O 0.99601 0.06138 0.0409 0.0
C352 C 0.01712 0.10436 0.99668 0.0
O353 O 0.03003 0.09808 0.0151 0.0
O354 O 0.00349 0.08507 0.98494 0.0
C355 C 0.04756 0.03311 0.02374 0.0
Tb356 Tb 0.26844 0.80646 0.26619 0.0
C357 C 0.30675 0.77206 0.27041 0.0
Tb358 Tb 0.25003 0.75121 0.26402 0.0
O359 O 0.28545 0.8075 0.30342 0.0
O360 O 0.25449 0.78159 0.29067 0.0
O361 O 0.30229 0.79327 0.26345 0.0
C362 C 0.23782 0.70432 0.27211 0.0
O363 O 0.2892 0.75372 0.27351 0.0
C364 C 0.24796 0.76992 0.22201 0.0
C365 C 0.21167 0.78609 0.26117 0.0
O366 O 0.2475 0.71201 0.25318 0.0
O367 O 0.23522 0.72307 0.28654 0.0
O368 O 0.23311 0.75082 0.22672 0.0
O369 O 0.26426 0.77607 0.23974 0.0
O370 O 0.21592 0.76429 0.26669 0.0
O371 O 0.22931 0.80451 0.25859 0.0
C372 C 0.28096 0.85257 0.25602 0.0
O373 O 0.2798 0.83319 0.24097 0.0
O374 O 0.27484 0.84602 0.27683 0.0
C375 C 0.27095 0.78819 0.30825 0.0
Tb376 Tb 0.52451 0.02589 0.50153 0.0
C377 C 0.51676 0.01052 0.55391 0.0
Tb378 Tb 0.47354 0.02058 0.5167 0.0
O379 O 0.53588 0.05977 0.52572 0.0
O380 O 0.5001 0.04988 0.50973 0.0
O381 O 0.53011 0.0093 0.53545 0.0
C382 C 0.43266 0.02636 0.5355 0.0
O383 O 0.49475 0.01656 0.55129 0.0
C384 C 0.48427 0.98154 0.49337 0.0
C385 C 0.48168 0.03529 0.46421 0.0
O386 O 0.45364 0.04033 0.54146 0.0
O387 O 0.43495 0.00886 0.5194 0.0
O388 O 0.46248 0.9865 0.49231 0.0
O389 O 0.49797 0.9968 0.50867 0.0
O390 O 0.46842 0.03738 0.48266 0.0
O391 O 0.50339 0.0288 0.46696 0.0
C392 C 0.56531 0.02054 0.48241 0.0
O393 O 0.54476 0.00556 0.47776 0.0
O394 O 0.56256 0.03874 0.49743 0.0
C395 C 0.51421 0.06496 0.52495 0.0
Tb396 Tb 0.25932 0.28782 0.78844 0.0
C397 C 0.2706 0.32986 0.75457 0.0
Tb398 Tb 0.24887 0.27451 0.73358 0.0
O399 O 0.29841 0.29452 0.78605 0.0
O400 O 0.27498 0.26867 0.76133 0.0
O401 O 0.26545 0.32456 0.77665 0.0
C402 C 0.25151 0.26472 0.68623 0.0
O403 O 0.26738 0.31281 0.73566 0.0
C404 C 0.21192 0.28241 0.75633 0.0
C405 C 0.23822 0.23214 0.76725 0.0
O406 O 0.23333 0.27204 0.69559 0.0
O407 O 0.2682 0.26318 0.70353 0.0
O408 O 0.20993 0.26691 0.7371 0.0
O409 O 0.23342 0.29372 0.76066 0.0
O410 O 0.24257 0.23771 0.74505 0.0
O411 O 0.24205 0.24898 0.78641 0.0
C412 C 0.25407 0.29728 0.83528 0.0
O413 O 0.23695 0.29459 0.81743 0.0
O414 O 0.27428 0.29446 0.82681 0.0
C415 C 0.29654 0.27979 0.76626 0.0
Tb416 Tb 0.98726 0.01652 0.48482 0.0
C417 C 0.95852 0.99137 0.52419 0.0
Tb418 Tb 0.01602 0.00574 0.53195 0.0
O419 O 0.97521 0.97769 0.47364 0.0
O420 O 0.00799 0.98997 0.49543 0.0
O421 O 0.9576 0.00558 0.50611 0.0
C422 C 0.03618 0.98912 0.57125 0.0
O423 O 0.97919 0.98697 0.53519 0.0
C424 C 0.00828 0.05062 0.53019 0.0
C425 C 0.04499 0.03045 0.49232 0.0
O426 O 0.0383 0.98143 0.5489 0.0
O427 O 0.02265 0.00584 0.57127 0.0
O428 O 0.02742 0.0452 0.54194 0.0
O429 O 0.99419 0.03127 0.52155 0.0
O430 O 0.04606 0.0171 0.51108 0.0
O431 O 0.02423 0.0342 0.48096 0.0
C432 C 0.96634 0.03471 0.44702 0.0
O433 O 0.97586 0.01502 0.44608 0.0
O434 O 0.9688 0.04456 0.4694 0.0
C435 C 0.99309 0.97107 0.48646 0.0
Tb436 Tb 0.27459 0.77469 0.78245 0.0
C437 C 0.23635 0.79478 0.81312 0.0
Tb438 Tb 0.22814 0.78576 0.75523 0.0
O439 O 0.28786 0.81345 0.7952 0.0
O440 O 0.26472 0.80328 0.76326 0.0
O441 O 0.25466 0.78241 0.81326 0.0
C442 C 0.19342 0.80599 0.73344 0.0
O443 O 0.22464 0.79975 0.79265 0.0
C444 C 0.2295 0.73901 0.75916 0.0
C445 C 0.26639 0.76694 0.72434 0.0
O446 O 0.18979 0.7874 0.74617 0.0
O447 O 0.21651 0.81321 0.73323 0.0
O448 O 0.21694 0.74687 0.74154 0.0
O449 O 0.23826 0.75709 0.7744 0.0
O450 O 0.24871 0.78004 0.72461 0.0
O451 O 0.27715 0.76051 0.74466 0.0
C452 C 0.3088 0.7525 0.80222 0.0
O453 O 0.31117 0.76608 0.78437 0.0
O454 O 0.2874 0.75184 0.80924 0.0
C455 C 0.27452 0.82131 0.77819 0.0
Tb456 Tb 0.47946 0.01003 0.00536 0.0
C457 C 0.51638 0.97407 0.019 0.0
Tb458 Tb 0.53372 0.02973 0.01457 0.0
O459 O 0.47973 0.01154 0.9661 0.0
O460 O 0.51044 0.00571 0.98743 0.0
O461 O 0.49377 0.97844 0.01836 0.0
C462 C 0.57877 0.05007 0.00801 0.0
O463 O 0.53482 0.99094 0.01485 0.0
C464 C 0.50984 0.03046 0.05309 0.0
C465 C 0.49686 0.06618 0.00181 0.0
O466 O 0.57188 0.04307 0.0284 0.0
O467 O 0.56035 0.04554 0.99139 0.0
O468 O 0.53265 0.0286 0.05413 0.0
O469 O 0.50286 0.03422 0.03185 0.0
O470 O 0.51948 0.0618 0.0026 0.0
O471 O 0.47826 0.04891 0.00482 0.0
C472 C 0.4343 0.9911 0.01306 0.0
O473 O 0.44193 0.99339 0.99185 0.0
O474 O 0.45205 -0.00046 0.02988 0.0
C475 C 0.50251 0.00966 0.96637 0.0
Tb476 Tb 0.24142 0.27408 0.2881 0.0
C477 C 0.28883 0.28387 0.32662 0.0
Tb478 Tb 0.29151 0.29242 0.27171 0.0
O479 O 0.23993 0.23927 0.26501 0.0
O480 O 0.2725 0.25956 0.2813 0.0
O481 O 0.26482 0.2818 0.32254 0.0
C482 C 0.331 0.28725 0.25103 0.0
O483 O 0.3034 0.28731 0.30919 0.0
C484 C 0.26491 0.32645 0.27835 0.0
C485 C 0.24353 0.28572 0.23505 0.0
O486 O 0.32978 0.30527 0.26733 0.0
O487 O 0.31025 0.27259 0.24674 0.0
O488 O 0.28237 0.3282 0.26441 0.0
O489 O 0.26544 0.3079 0.28985 0.0
O490 O 0.26677 0.28353 0.23804 0.0
O491 O 0.23 0.28561 0.25332 0.0
C492 C 0.20384 0.26428 0.31327 0.0
O493 O 0.2204 0.25091 0.31095 0.0
O494 O 0.20796 0.28304 0.30079 0.0
C495 C 0.26338 0.24104 0.26706 0.0
Tb496 Tb 0.47889 0.51761 0.98216 0.0
C497 C 0.4516 0.4948 0.02353 0.0
Tb498 Tb 0.50914 0.50749 0.02854 0.0
O499 O 0.46547 0.47856 0.97287 0.0
O500 O 0.49943 0.49085 0.99251 0.0
O501 O 0.45019 0.50859 0.00515 0.0
C502 C 0.53013 0.49132 0.06758 0.0
O503 O 0.47244 0.48989 0.03356 0.0
C504 C 0.50335 0.55289 0.02579 0.0
C505 C 0.53672 0.53007 0.98716 0.0
O506 O 0.51685 0.50826 0.06778 0.0
O507 O 0.53155 0.48317 0.0452 0.0
O508 O 0.52228 0.54677 0.03725 0.0
O509 O 0.48819 0.53385 0.01827 0.0
O510 O 0.5382 0.51698 0.00607 0.0
O511 O 0.51578 0.53408 0.97645 0.0
C512 C 0.45761 0.53551 0.94438 0.0
O513 O 0.46637 0.51538 0.94358 0.0
O514 O 0.4609 0.54588 0.96659 0.0
C515 C 0.48394 0.47201 0.98478 0.0
Tb516 Tb 0.78098 0.28654 0.28128 0.0
C517 C 0.74056 0.29735 0.31393 0.0
Tb518 Tb 0.73119 0.28984 0.2558 0.0
O519 O 0.78648 0.32516 0.29534 0.0
O520 O 0.76553 0.31265 0.26229 0.0
O521 O 0.76115 0.28862 0.31312 0.0
C522 C 0.69258 0.30557 0.23582 0.0
O523 O 0.72702 0.30093 0.29394 0.0
C524 C 0.73959 0.24526 0.2597 0.0
C525 C 0.77112 0.27748 0.22319 0.0
O526 O 0.69191 0.28566 0.24665 0.0
O527 O 0.71485 0.31658 0.23655 0.0
O528 O 0.72503 0.25094 0.24231 0.0
O529 O 0.7466 0.26383 0.2749 0.0
O530 O 0.75075 0.28652 0.22394 0.0
O531 O 0.78471 0.27433 0.24328 0.0
C532 C 0.82213 0.27401 0.29902 0.0
O533 O 0.80082 0.26055 0.29815 0.0
O534 O 0.82027 0.29441 0.28987 0.0
C535 C 0.77228 0.33104 0.27781 0.0
Tb536 Tb 0.97851 0.50832 0.50799 0.0
C537 C 0.01616 0.47231 0.51774 0.0
Tb538 Tb 0.03302 0.52875 0.51608 0.0
O539 O 0.97786 0.51231 0.46894 0.0
O540 O 0.00902 0.50579 0.48887 0.0
O541 O 0.99357 0.47636 0.51868 0.0
C542 C 0.07729 0.54986 0.50798 0.0
O543 O 0.0342 0.48975 0.51376 0.0
C544 C 0.01084 0.52651 0.55573 0.0
C545 C 0.99524 0.56511 0.50757 0.0
O546 O 0.07183 0.54053 0.52788 0.0
O547 O 0.05788 0.54726 0.49273 0.0
O548 O 0.03405 0.52714 0.55563 0.0
O549 O 0.00268 0.53096 0.53507 0.0
O550 O 0.0179 0.56118 0.50694 0.0
O551 O 0.97699 0.54731 0.5102 0.0
C552 C 0.93344 0.4886 0.51518 0.0
O553 O 0.94131 0.49094 0.49409 0.0
O554 O 0.95092 0.49736 0.53217 0.0
C555 C 0.00065 0.51076 0.46841 0.0
Tb556 Tb 0.75842 0.79187 0.28324 0.0
C557 C 0.77282 0.83296 0.24914 0.0
Tb558 Tb 0.75214 0.77726 0.22835 0.0
O559 O 0.79784 0.7996 0.28366 0.0
O560 O 0.77651 0.77272 0.25827 0.0
O561 O 0.76613 0.82816 0.27084 0.0
C562 C 0.75725 0.7656 0.18184 0.0
O563 O 0.77081 0.81559 0.23063 0.0
C564 C 0.71306 0.78452 0.24782 0.0
C565 C 0.7382 0.73608 0.26248 0.0
O566 O 0.73967 0.77546 0.18959 0.0
O567 O 0.7721 0.76272 0.20029 0.0
O568 O 0.71276 0.76865 0.22921 0.0
O569 O 0.73424 0.79631 0.25333 0.0
O570 O 0.74498 0.74095 0.24084 0.0
O571 O 0.7401 0.75343 0.28097 0.0
C572 C 0.75058 0.80255 0.3291 0.0
O573 O 0.73597 0.80419 0.31005 0.0
O574 O 0.76972 0.79481 0.32239 0.0
C575 C 0.79768 0.78443 0.2645 0.0
Tb576 Tb 0.76183 0.30649 0.76785 0.0
C577 C 0.80247 0.27487 0.77505 0.0
Tb578 Tb 0.74655 0.25055 0.76606 0.0
O579 O 0.77662 0.30894 0.80598 0.0
O580 O 0.74779 0.28109 0.79184 0.0
O581 O 0.79703 0.29558 0.76764 0.0
C582 C 0.73608 0.20364 0.7746 0.0
O583 O 0.78568 0.25556 0.77748 0.0
C584 C 0.7467 0.2688 0.72386 0.0
C585 C 0.70577 0.28233 0.75859 0.0
O586 O 0.74619 0.21158 0.75598 0.0
O587 O 0.73213 0.22218 0.78852 0.0
O588 O 0.73211 0.24916 0.72772 0.0
O589 O 0.76137 0.27587 0.74267 0.0
O590 O 0.71097 0.26121 0.76524 0.0
O591 O 0.72274 0.30177 0.75723 0.0
C592 C 0.77263 0.35238 0.75639 0.0
O593 O 0.76644 0.34618 0.77731 0.0
O594 O 0.77251 0.33276 0.74199 0.0
C595 C 0.76302 0.28881 0.81026 0.0
Tb596 Tb 0.73989 0.77276 0.77989 0.0
C597 C 0.78402 0.77531 0.81885 0.0
Tb598 Tb 0.79052 0.78706 0.76449 0.0
O599 O 0.74747 0.73622 0.78592 0.0
O600 O 0.76315 0.75561 0.75907 0.0
O601 O 0.76092 0.77769 0.8152 0.0
C602 C 0.83444 0.78475 0.75143 0.0
O603 O 0.79853 0.7767 0.80126 0.0
C604 C 0.76758 0.82356 0.77399 0.0
C605 C 0.7459 0.78437 0.72567 0.0
O606 O 0.82799 0.80441 0.76117 0.0
O607 O 0.81628 0.76678 0.74916 0.0
O608 O 0.78363 0.82386 0.75854 0.0
O609 O 0.767 0.80443 0.78483 0.0
O610 O 0.76922 0.78263 0.72922 0.0
O611 O 0.73155 0.78314 0.74338 0.0
C612 C 0.69528 0.77013 0.79258 0.0
O613 O 0.71204 0.7895 0.79612 0.0
O614 O 0.70352 0.75227 0.78158 0.0
C615 C 0.76272 0.73645 0.76975 0.0
Tb616 Tb 0.51569 0.55348 0.51222 0.0
C617 C 0.5131 0.51756 0.46329 0.0
Tb618 Tb 0.4891 0.49758 0.50834 0.0
O619 O 0.54468 0.54486 0.53839 0.0
O620 O 0.52445 0.51843 0.51274 0.0
O621 O 0.51436 0.54039 0.4736 0.0
C622 C 0.48813 0.45305 0.52251 0.0
O623 O 0.50549 0.49765 0.47425 0.0
C624 C 0.45916 0.52724 0.4951 0.0
C625 C 0.4828 0.53603 0.55266 0.0
O626 O 0.47551 0.45784 0.50301 0.0
O627 O 0.50093 0.47318 0.53361 0.0
O628 O 0.45229 0.50354 0.49489 0.0
O629 O 0.48164 0.53171 0.50154 0.0
O630 O 0.48206 0.51271 0.54432 0.0
O631 O 0.49369 0.5549 0.54224 0.0
C632 C 0.52925 0.5999 0.50292 0.0
O633 O 0.54009 0.58181 0.49681 0.0
O634 O 0.51133 0.59191 0.51488 0.0
C635 C 0.54014 0.52155 0.53079 0.0
Tb636 Tb 0.02809 0.53673 0.00796 0.0
C637 C 0.01642 0.51871 0.05834 0.0
Tb638 Tb 0.97581 0.53189 0.02082 0.0
O639 O 0.04092 0.56882 0.03412 0.0
O640 O 0.00473 0.56091 0.01866 0.0
O641 O 0.0299 0.5168 0.04009 0.0
C642 C 0.93364 0.53738 0.03679 0.0
O643 O 0.99558 0.52712 0.05583 0.0
C644 C 0.98612 0.49459 0.99434 0.0
C645 C 0.98742 0.54952 0.96972 0.0
O646 O 0.94068 0.51653 0.03233 0.0
O647 O 0.9504 0.55496 0.03243 0.0
O648 O 0.96472 0.50056 0.99295 0.0
O649 O -0.00042 0.50794 0.01134 0.0
O650 O 0.9716 0.54731 0.98611 0.0
O651 O 0.01007 0.54561 0.97402 0.0
C652 C 0.06913 0.52857 0.99101 0.0
O653 O 0.06727 0.54558 0.00782 0.0
O654 O 0.04758 0.51661 0.98315 0.0
C655 C 0.01937 0.57399 0.03517 0.0
C656 C 0.01966 0.23716 0.94778 0.0
C657 C 0.02423 0.23366 0.92342 0.0
C658 C 0.01855 0.21781 0.96262 0.0
C659 C 0.02266 0.19467 0.95297 0.0
C660 C 0.02784 0.19126 0.92854 0.0
C661 C 0.02828 0.21072 0.91399 0.0
C662 C 0.0124 0.22193 0.98839 0.0
C663 C 0.03271 0.16696 0.91768 0.0
C664 C 0.03941 0.14635 0.99279 0.0
C665 C 0.01789 0.12913 0.98912 0.0
C666 C 0.04104 0.16846 0.98196 0.0
C667 C 0.02042 0.1735 0.96779 0.0
C668 C -0.00183 0.15685 0.96566 0.0
C669 C -0.0027 0.13466 0.97601 0.0
C670 C 0.06517 0.18557 0.9843 0.0
C671 C 0.97558 0.1618 0.95134 0.0
H672 H 0.01646 0.25489 0.95509 0.0
H673 H 0.03206 0.20802 0.89524 0.0
H674 H 0.99513 0.20974 0.99055 0.0
H675 H 0.02668 0.21712 0.00139 0.0
H676 H 0.01045 0.24121 0.99338 0.0
H677 H 0.03803 0.16782 0.89893 0.0
H678 H 0.04742 0.16099 0.92924 0.0
H679 H 0.01622 0.15273 0.91704 0.0
H680 H 0.05533 0.14191 0.00287 0.0
H681 H 0.98059 0.12132 0.97338 0.0
H682 H 0.06296 0.20469 0.98954 0.0
H683 H 0.07253 0.18527 0.96642 0.0
H684 H 0.07866 0.18033 -0.00205 0.0
H685 H 0.97277 0.18079 0.95631 0.0
H686 H 0.95909 0.14884 0.95443 0.0
H687 H 0.97769 0.16001 0.93162 0.0
C688 C 0.08952 0.79118 0.18377 0.0
C689 C 0.06948 0.79433 0.19616 0.0
C690 C 0.11237 0.79157 0.1965 0.0
C691 C 0.11531 0.79538 0.22225 0.0
C692 C 0.09538 0.79949 0.23485 0.0
C693 C 0.07264 0.79884 0.22165 0.0
C694 C 0.1332 0.78714 0.1824 0.0
C695 C 0.09793 0.80395 0.26227 0.0
C696 C 0.16739 0.76886 0.25178 0.0
C697 C 0.18621 0.78927 0.25505 0.0
C698 C 0.14389 0.77085 0.24214 0.0
C699 C 0.13904 0.79384 0.23581 0.0
C700 C 0.15756 0.81479 0.24043 0.0
C701 C 0.18096 0.81224 0.2499 0.0
C702 C 0.12462 0.74804 0.2374 0.0
C703 C 0.15304 0.83966 0.23417 0.0
H704 H 0.08724 0.78777 0.16409 0.0
H705 H 0.05723 0.8014 0.23134 0.0
H706 H 0.14885 0.80233 0.18731 0.0
H707 H 0.13929 0.77001 0.18728 0.0
H708 H 0.1282 0.78551 0.16239 0.0
H709 H 0.08119 0.80865 0.26918 0.0
H710 H 0.10203 0.78729 0.27031 0.0
H711 H 0.11333 0.81905 0.26874 0.0
H712 H 0.17121 0.75102 0.25567 0.0
H713 H 0.19533 0.82816 0.25247 0.0
H714 H 0.11992 0.74341 0.21747 0.0
H715 H 0.10782 0.75126 0.24516 0.0
H716 H 0.13069 0.73204 0.24522 0.0
H717 H 0.15082 0.83984 0.2141 0.0
H718 H 0.16824 0.85456 0.2419 0.0
H719 H 0.13602 0.84364 0.24097 0.0
C720 C 0.5156 0.85977 0.4269 0.0
C721 C 0.52599 0.86417 0.40529 0.0
C722 C 0.50983 0.87898 0.44203 0.0
C723 C 0.51477 0.90324 0.43553 0.0
C724 C 0.52613 0.90798 0.41427 0.0
C725 C 0.53148 0.88837 0.39932 0.0
C726 C 0.49779 0.87322 0.46459 0.0
C727 C 0.53225 0.93373 0.40715 0.0
C728 C 0.4764 0.94822 0.45919 0.0
C729 C 0.49194 0.96137 0.47882 0.0
C730 C 0.48367 0.92929 0.4449 0.0
C731 C 0.50706 0.92348 0.4504 0.0
C732 C 0.52282 0.93677 0.47025 0.0
C733 C 0.51496 0.95543 0.48438 0.0
C734 C 0.46633 0.91552 0.4239 0.0
C735 C 0.54784 0.93115 0.47683 0.0
H736 H 0.51129 0.84116 0.4317 0.0
H737 H 0.5397 0.89199 0.38279 0.0
H738 H 0.50842 0.88427 0.48085 0.0
H739 H 0.47944 0.87823 0.46308 0.0
H740 H 0.49596 0.85351 0.46755 0.0
H741 H 0.54195 0.93446 0.3906 0.0
H742 H 0.51536 0.94135 0.40366 0.0
H743 H 0.54378 0.94575 0.4223 0.0
H744 H 0.45858 0.95283 0.4549 0.0
H745 H 0.52687 0.96538 0.49981 0.0
H746 H 0.46263 0.8957 0.42641 0.0
H747 H 0.47466 0.91733 0.40663 0.0
H748 H 0.44879 0.92227 0.42207 0.0
H749 H 0.54626 0.91376 0.48548 0.0
H750 H 0.55927 0.94587 0.48972 0.0
H751 H 0.55722 0.92867 0.46032 0.0
C752 C 0.40631 0.2692 0.68502 0.0
C753 C 0.42186 0.2556 0.69697 0.0
C754 C 0.38447 0.2727 0.69409 0.0
C755 C 0.37817 0.26246 0.71566 0.0
C756 C 0.39341 0.24811 0.72734 0.0
C757 C 0.41499 0.24481 0.71784 0.0
C758 C 0.36849 0.28791 0.68103 0.0
C759 C 0.38734 0.23687 0.75038 0.0
C760 C 0.33905 0.29213 0.75709 0.0
C761 C 0.31692 0.27584 0.75242 0.0
C762 C 0.35891 0.2884 0.74463 0.0
C763 C 0.3565 0.2679 0.72704 0.0
C764 C 0.33396 0.2517 0.72185 0.0
C765 C 0.31448 0.25574 0.73482 0.0
C766 C 0.38268 0.30602 0.75079 0.0
C767 C 0.33061 0.22979 0.70307 0.0
H768 H 0.41138 0.2775 0.66882 0.0
H769 H 0.42677 0.23415 0.72717 0.0
H770 H 0.34956 0.27775 0.67738 0.0
H771 H 0.36808 0.30497 0.69276 0.0
H772 H 0.37497 0.29297 0.66351 0.0
H773 H 0.40052 0.22524 0.75657 0.0
H774 H 0.38723 0.2516 0.76514 0.0
H775 H 0.36891 0.22551 0.7475 0.0
H776 H 0.34092 0.30771 0.77067 0.0
H777 H 0.29748 0.24288 0.73152 0.0
H778 H 0.38907 0.31325 0.73404 0.0
H779 H 0.39675 0.29626 0.75874 0.0
H780 H 0.38118 0.32173 0.76397 0.0
H781 H 0.33626 0.23561 0.68551 0.0
H782 H 0.31149 0.22003 0.69995 0.0
H783 H 0.34233 0.21674 0.7091 0.0
C784 C 0.98266 0.83987 0.53648 0.0
C785 C 0.98055 0.8426 0.5615 0.0
C786 C 0.98284 0.85982 0.52266 0.0
C787 C 0.98075 0.88291 0.53419 0.0
C788 C 0.97696 0.8854 0.55907 0.0
C789 C 0.97691 0.86514 0.57247 0.0
C790 C 0.98666 0.85654 0.49607 0.0
C791 C 0.97435 0.90977 0.57183 0.0
C792 C 0.01059 0.94006 0.50879 0.0
C793 C 0.99054 0.94741 0.49663 0.0
C794 C 0.00768 0.91884 0.52093 0.0
C795 C 0.98415 0.90479 0.52067 0.0
C796 C 0.96392 0.91185 0.50784 0.0
C797 C 0.9674 0.93306 0.49581 0.0
C798 C 0.02966 0.91181 0.53452 0.0
C799 C 0.93854 0.89751 0.50749 0.0
H800 H 0.98537 0.82244 0.52789 0.0
H801 H 0.97515 0.86731 0.59179 0.0
H802 H 0.97269 0.86387 0.48481 0.0
H803 H 0.00463 0.86704 0.4933 0.0
H804 H 0.98597 0.837 0.48942 0.0
H805 H 0.96922 0.90807 0.59055 0.0
H806 H 0.9918 0.92276 0.573 0.0
H807 H 0.96044 0.91791 0.56135 0.0
H808 H 0.02846 0.95107 0.50902 0.0
H809 H 0.95181 0.9389 0.48652 0.0
H810 H 0.0312 0.8927 0.5283 0.0
H811 H 0.02763 0.91258 0.55426 0.0
H812 H 0.04677 0.92413 0.532 0.0
H813 H 0.93801 0.87795 0.50119 0.0
H814 H 0.925 0.90476 0.49552 0.0
H815 H 0.93305 0.89825 0.5262 0.0
C816 C 0.4323 0.73473 0.87744 0.0
C817 C 0.44486 0.7588 0.87791 0.0
C818 C 0.40823 0.7282 0.86662 0.0
C819 C 0.39658 0.74635 0.85665 0.0
C820 C 0.40883 0.77097 0.85843 0.0
C821 C 0.43297 0.77681 0.86876 0.0
C822 C 0.39589 0.70172 0.86462 0.0
C823 C 0.39679 0.79103 0.84856 0.0
C824 C 0.34867 0.73922 0.80368 0.0
C825 C 0.32884 0.74385 0.81557 0.0
C826 C 0.37032 0.73669 0.81707 0.0
C827 C 0.37221 0.7399 0.84282 0.0
C828 C 0.35141 0.74215 0.85476 0.0
C829 C 0.32971 0.74373 0.84085 0.0
C830 C 0.39186 0.73318 0.80369 0.0
C831 C 0.35274 0.74582 0.88217 0.0
H832 H 0.44168 0.72078 0.88438 0.0
H833 H 0.44271 0.79545 0.86937 0.0
H834 H 0.37685 0.70017 0.86891 0.0
H835 H 0.39537 0.69347 0.84561 0.0
H836 H 0.40563 0.69088 0.87689 0.0
H837 H 0.40808 0.8095 0.85349 0.0
H838 H 0.39345 0.78777 0.82843 0.0
H839 H 0.37895 0.79096 0.85562 0.0
H840 H 0.34768 0.73889 0.78402 0.0
H841 H 0.31418 0.7472 0.84994 0.0
H842 H 0.40222 0.72035 0.8125 0.0
H843 H 0.40423 0.75105 0.80423 0.0
H844 H 0.38622 0.72604 0.78432 0.0
H845 H 0.36399 0.73359 0.89076 0.0
H846 H 0.33443 0.74244 0.88853 0.0
H847 H 0.36142 0.765 0.88854 0.0
C848 C 0.50907 0.18574 0.08048 0.0
C849 C 0.50211 0.20693 0.07216 0.0
C850 C 0.50614 0.164 0.06498 0.0
C851 C 0.49622 0.16345 0.04045 0.0
C852 C 0.48916 0.18473 0.03186 0.0
C853 C 0.4921 0.20623 0.04786 0.0
C854 C 0.51366 0.14155 0.07493 0.0
C855 C 0.47863 0.18481 0.0058 0.0
C856 C 0.51327 0.11081 0.00252 0.0
C857 C 0.49364 0.09211 0.00445 0.0
C858 C 0.51343 0.13494 0.01223 0.0
C859 C 0.49348 0.14039 0.0241 0.0
C860 C 0.47253 0.12221 0.02367 0.0
C861 C 0.47279 0.09826 0.01368 0.0
C862 C 0.53598 0.15391 0.01197 0.0
C863 C 0.45076 0.12747 0.03584 0.0
H864 H 0.51668 0.18605 0.09922 0.0
H865 H 0.48672 0.22254 0.04127 0.0
H866 H 0.49792 0.12626 0.07278 0.0
H867 H 0.52786 0.13543 0.06453 0.0
H868 H 0.52085 0.145 0.0945 0.0
H869 H 0.47446 0.20301 0.00187 0.0
H870 H 0.49155 0.17956 0.99322 0.0
H871 H 0.46171 0.17102 0.00179 0.0
H872 H 0.52931 0.1063 0.99505 0.0
H873 H 0.45741 0.08401 0.01506 0.0
H874 H 0.54649 0.15673 0.03027 0.0
H875 H 0.5312 0.17179 0.0078 0.0
H876 H 0.54786 0.14816 -0.00153 0.0
H877 H 0.45577 0.13118 0.0558 0.0
H878 H 0.43523 0.11193 0.0323 0.0
H879 H 0.4448 0.1441 0.02942 0.0
C880 C 0.08765 0.22948 0.37973 0.0
C881 C 0.08917 0.2412 0.40332 0.0
C882 C 0.10773 0.23193 0.36657 0.0
C883 C 0.12983 0.24646 0.37734 0.0
C884 C 0.13198 0.25701 0.40176 0.0
C885 C 0.1115 0.25419 0.41458 0.0
C886 C 0.10486 0.22016 0.34065 0.0
C887 C 0.15543 0.27242 0.41379 0.0
C888 C 0.18429 0.24026 0.34392 0.0
C889 C 0.18504 0.26001 0.32973 0.0
C890 C 0.16692 0.2361 0.36027 0.0
C891 C 0.14993 0.25203 0.36223 0.0
C892 C 0.15089 0.27227 0.34821 0.0
C893 C 0.16854 0.27605 0.33207 0.0
C894 C 0.16642 0.2144 0.375 0.0
C895 C 0.13294 0.2896 0.34986 0.0
H896 H 0.0704 0.21916 0.37114 0.0
H897 H 0.11266 0.26323 0.43285 0.0
H898 H 0.10647 0.23462 0.32797 0.0
H899 H 0.11947 0.2094 0.33785 0.0
H900 H 0.08703 0.20786 0.33573 0.0
H901 H 0.15495 0.2768 0.43364 0.0
H902 H 0.17093 0.26287 0.41105 0.0
H903 H 0.15887 0.28988 0.40531 0.0
H904 H 0.1973 0.22801 0.34225 0.0
H905 H 0.16937 0.29146 0.32123 0.0
H906 H 0.14944 0.20101 0.36932 0.0
H907 H 0.16648 0.22035 0.39461 0.0
H908 H 0.18212 0.20496 0.37273 0.0
H909 H 0.13706 0.3052 0.33875 0.0
H910 H 0.1329 0.29699 0.36906 0.0
H911 H 0.11435 0.27954 0.34347 0.0
C912 C 0.89036 0.06066 0.14682 0.0
C913 C 0.90094 0.07134 0.16996 0.0
C914 C 0.90472 0.05758 0.12775 0.0
C915 C 0.93024 0.0653 0.132 0.0
C916 C 0.94088 0.07681 0.1551 0.0
C917 C 0.92612 0.07971 0.17377 0.0
C918 C 0.89259 0.04503 0.10345 0.0
C919 C 0.96799 0.08528 0.16038 0.0
C920 C 0.96927 0.03312 0.0923 0.0
C921 C 0.97515 0.05021 0.07561 0.0
C922 C 0.95485 0.03792 0.11084 0.0
C923 C 0.94598 0.0603 0.1127 0.0
C924 C 0.95207 0.07777 0.09612 0.0
C925 C 0.96667 0.07257 0.07784 0.0
C926 C 0.94878 0.01884 0.1282 0.0
C927 C 0.94286 0.10179 0.09748 0.0
H928 H 0.87094 0.05409 0.14374 0.0
H929 H 0.93444 0.08807 0.19159 0.0
H930 H 0.90127 0.05316 0.08818 0.0
H931 H 0.89441 0.02541 0.10231 0.0
H932 H 0.87293 0.04601 0.10106 0.0
H933 H 0.97328 0.095 0.17893 0.0
H934 H 0.97735 0.06926 0.15871 0.0
H935 H 0.97463 0.09772 0.14689 0.0
H936 H 0.97567 0.01578 0.0907 0.0
H937 H 0.97082 0.08578 0.06486 0.0
H938 H 0.92884 0.01248 0.12648 0.0
H939 H 0.95448 0.02695 0.14726 0.0
H940 H 0.9577 0.00269 0.12475 0.0
H941 H 0.92283 0.09844 0.09748 0.0
H942 H 0.94761 0.11256 0.08207 0.0
H943 H 0.95071 0.11298 0.11477 0.0
C944 C 0.29959 0.70381 0.41472 0.0
C945 C 0.29561 0.71485 0.43735 0.0
C946 C 0.29629 0.71529 0.39327 0.0
C947 C 0.28862 0.73832 0.39437 0.0
C948 C 0.28505 0.74979 0.41722 0.0
C949 C 0.28867 0.73799 0.43842 0.0
C950 C 0.3006 0.70255 0.36935 0.0
C951 C 0.27688 0.77433 0.41922 0.0
C952 C 0.29837 0.77911 0.34302 0.0
C953 C 0.2753 0.77475 0.32974 0.0
C954 C 0.30309 0.76703 0.36375 0.0
C955 C 0.28416 0.75038 0.37164 0.0
C956 C 0.26086 0.74568 0.35808 0.0
C957 C 0.25673 0.7579 0.33723 0.0
C958 C 0.32831 0.77221 0.37727 0.0
C959 C 0.2402 0.72803 0.36578 0.0
H960 H 0.30494 0.68594 0.41367 0.0
H961 H 0.28542 0.74662 0.45576 0.0
H962 H 0.31394 0.71477 0.36033 0.0
H963 H 0.30744 0.68517 0.37168 0.0
H964 H 0.28345 0.69839 0.35693 0.0
H965 H 0.2752 0.78097 0.43833 0.0
H966 H 0.28994 0.78818 0.41167 0.0
H967 H 0.25901 0.77295 0.40831 0.0
H968 H 0.31287 0.79195 0.33711 0.0
H969 H 0.23884 0.75466 0.32711 0.0
H970 H 0.33541 0.75487 0.37868 0.0
H971 H 0.32769 0.7804 0.39609 0.0
H972 H 0.34123 0.78492 0.36823 0.0
H973 H 0.2454 0.70975 0.36698 0.0
H974 H 0.22339 0.72592 0.35295 0.0
H975 H 0.2362 0.73457 0.38417 0.0
C976 C 0.59411 0.9956 0.67806 0.0
C977 C 0.5825 0.9781 0.69189 0.0
C978 C 0.58272 0.00059 0.65581 0.0
C979 C 0.55943 0.98722 0.64671 0.0
C980 C 0.54787 0.96908 0.66033 0.0
C981 C 0.55937 0.96503 0.68294 0.0
C982 C 0.59545 0.02051 0.64225 0.0
C983 C 0.52339 0.9539 0.65097 0.0
C984 C 0.52074 0.01464 0.59958 0.0
C985 C 0.52643 0.00365 0.5777 0.0
C986 C 0.53126 0.00942 0.62219 0.0
C987 C 0.5473 0.99224 0.62292 0.0
C988 C 0.55244 0.98052 0.60083 0.0
C989 C 0.54225 0.98663 0.57852 0.0
C990 C 0.52583 0.02286 0.64524 0.0
C991 C 0.56889 0.96164 0.60072 0.0
H992 H 0.61186 0.006 0.68502 0.0
H993 H 0.55035 0.95146 0.69356 0.0
H994 H 0.59869 0.01271 0.62403 0.0
H995 H 0.58378 0.03449 0.63934 0.0
H996 H 0.61316 0.02976 0.65214 0.0
H997 H 0.51729 0.93986 0.66324 0.0
H998 H 0.50961 0.96594 0.649 0.0
H999 H 0.52415 0.94454 0.63266 0.0
H1000 H 0.5087 0.02797 0.59901 0.0
H1001 H 0.54656 0.97792 0.56165 0.0
H1002 H 0.54291 0.03358 0.65511 0.0
H1003 H 0.51806 0.00959 0.6575 0.0
H1004 H 0.51291 0.03556 0.64159 0.0
H1005 H 0.58753 0.97031 0.60861 0.0
H1006 H 0.56981 0.95306 0.58208 0.0
H1007 H 0.56242 0.94703 0.61223 0.0
C1008 C 0.24812 0.38596 0.94927 0.0
C1009 C 0.24192 0.37586 0.97065 0.0
C1010 C 0.25052 0.37095 0.92843 0.0
C1011 C 0.24654 0.3452 0.92895 0.0
C1012 C 0.24057 0.33484 0.9505 0.0
C1013 C 0.23837 0.35032 0.97117 0.0
C1014 C 0.25699 0.38265 0.90573 0.0
C1015 C 0.2361 0.30743 0.95157 0.0
C1016 C 0.22908 0.31097 0.86644 0.0
C1017 C 0.25153 0.306 0.86047 0.0
C1018 C 0.22689 0.32249 0.88933 0.0
C1019 C 0.24774 0.3293 0.90648 0.0
C1020 C 0.2702 0.32314 0.90098 0.0
C1021 C 0.27183 0.31148 0.87793 0.0
C1022 C 0.20261 0.3287 0.8946 0.0
C1023 C 0.2928 0.33015 0.91885 0.0
H1024 H 0.25104 0.40566 0.94873 0.0
H1025 H 0.23359 0.34237 0.98762 0.0
H1026 H 0.27353 0.37673 0.89961 0.0
H1027 H 0.24207 0.37659 0.89079 0.0
H1028 H 0.26028 0.403 0.90862 0.0
H1029 H 0.23259 0.30234 0.97003 0.0
H1030 H 0.22023 0.29877 0.93847 0.0
H1031 H 0.25197 0.29967 0.94615 0.0
H1032 H 0.21344 0.30682 0.85284 0.0
H1033 H 0.2892 0.30759 0.87325 0.0
H1034 H 0.20345 0.34882 0.89521 0.0
H1035 H 0.19813 0.32317 0.91263 0.0
H1036 H 0.18769 0.31966 0.88058 0.0
H1037 H 0.29857 0.35036 0.92079 0.0
H1038 H 0.30806 0.32159 0.91292 0.0
H1039 H 0.28908 0.32467 0.9371 0.0
C1040 C 0.89479 0.06774 0.32668 0.0
C1041 C 0.91236 0.07307 0.31066 0.0
C1042 C 0.90173 0.06619 0.35142 0.0
C1043 C 0.92673 0.07052 0.3602 0.0
C1044 C 0.94425 0.07877 0.34462 0.0
C1045 C 0.93687 0.07962 0.31992 0.0
C1046 C 0.88249 0.05733 0.36743 0.0
C1047 C 0.97104 0.08424 0.35341 0.0
C1048 C 0.94878 0.0674 0.42675 0.0
C1049 C 0.9546 0.04385 0.42566 0.0
C1050 C 0.93924 0.07648 0.40567 0.0
C1051 C 0.93487 0.06125 0.38336 0.0
C1052 C 0.93969 0.03701 0.38259 0.0
C1053 C 0.94975 0.02875 0.40369 0.0
C1054 C 0.93477 0.10254 0.40711 0.0
C1055 C 0.93489 0.01994 0.3593 0.0
H1056 H 0.8758 0.06277 0.31955 0.0
H1057 H 0.95044 0.0842 0.3076 0.0
H1058 H 0.88222 0.03758 0.36933 0.0
H1059 H 0.88649 0.06728 0.38593 0.0
H1060 H 0.86414 0.05957 0.3596 0.0
H1061 H 0.98167 0.09486 0.34069 0.0
H1062 H 0.97439 0.09468 0.3717 0.0
H1063 H 0.97785 0.06675 0.35493 0.0
H1064 H 0.95222 0.07891 0.44388 0.0
H1065 H 0.95397 0.01039 0.40292 0.0
H1066 H 0.93634 0.11093 0.42622 0.0
H1067 H 0.91651 0.10335 0.39804 0.0
H1068 H 0.94827 0.11374 0.39737 0.0
H1069 H 0.91589 0.01875 0.3511 0.0
H1070 H 0.93798 0.00114 0.36227 0.0
H1071 H 0.94701 0.0272 0.34592 0.0
C1072 C 0.30121 0.72044 0.59117 0.0
C1073 C 0.28698 0.69709 0.58493 0.0
C1074 C 0.30049 0.73366 0.61392 0.0
C1075 C 0.28487 0.72349 0.63055 0.0
C1076 C 0.27038 0.70005 0.62414 0.0
C1077 C 0.2718 0.68715 0.60168 0.0
C1078 C 0.3165 0.75842 0.62024 0.0
C1079 C 0.25353 0.68824 0.64112 0.0
C1080 C 0.29131 0.74351 0.69871 0.0
C1081 C 0.27316 0.75794 0.70028 0.0
C1082 C 0.29635 0.7333 0.67603 0.0
C1083 C 0.28275 0.73739 0.65434 0.0
C1084 C 0.26497 0.7526 0.65579 0.0
C1085 C 0.26048 0.76273 0.67863 0.0
C1086 C 0.31549 0.71726 0.67548 0.0
C1087 C 0.24961 0.75699 0.63328 0.0
H1088 H 0.31308 0.72824 0.57845 0.0
H1089 H 0.26064 0.66917 0.59717 0.0
H1090 H 0.30517 0.77269 0.62326 0.0
H1091 H 0.32828 0.75844 0.63748 0.0
H1092 H 0.32818 0.7635 0.60573 0.0
H1093 H 0.24058 0.67208 0.63187 0.0
H1094 H 0.26456 0.68201 0.6562 0.0
H1095 H 0.24299 0.70148 0.64914 0.0
H1096 H 0.3013 0.73972 0.71523 0.0
H1097 H 0.2464 0.77382 0.6795 0.0
H1098 H 0.32643 0.7207 0.66008 0.0
H1099 H 0.30654 0.69773 0.67291 0.0
H1100 H 0.32789 0.72025 0.69269 0.0
H1101 H 0.26127 0.76321 0.61915 0.0
H1102 H 0.238 0.77085 0.63718 0.0
H1103 H 0.2377 0.73954 0.62556 0.0
C1104 C 0.56799 0.01526 0.84573 0.0
C1105 C 0.56927 0.9923 0.83394 0.0
C1106 C 0.55922 0.0174 0.86852 0.0
C1107 C 0.55066 0.99597 0.87946 0.0
C1108 C 0.55249 0.97269 0.86791 0.0
C1109 C 0.56214 0.97115 0.84537 0.0
C1110 C 0.55837 0.04262 0.8805 0.0
C1111 C 0.5431 0.94939 0.87871 0.0
C1112 C 0.53938 0.00326 0.94622 0.0
C1113 C 0.51486 0.00569 0.9443 0.0
C1114 C 0.55134 -2e-05 0.92533 0.0
C1115 C 0.53817 0.99807 0.90196 0.0
C1116 C 0.51315 -0.00036 0.89999 0.0
C1117 C 0.50192 0.0038 0.92116 0.0
C1118 C 0.57816 -0.00083 0.92827 0.0
C1119 C 0.49828 0.9972 0.87549 0.0
H1120 H 0.57369 0.03165 0.83694 0.0
H1121 H 0.56298 0.95339 0.83613 0.0
H1122 H 0.53922 0.04512 0.88067 0.0
H1123 H 0.56662 0.04466 0.89971 0.0
H1124 H 0.56805 0.05742 0.87091 0.0
H1125 H 0.54736 0.9329 0.86843 0.0
H1126 H 0.55095 0.95024 0.89794 0.0
H1127 H 0.5231 0.94729 0.87864 0.0
H1128 H 0.54934 0.00419 0.96407 0.0
H1129 H 0.48287 0.00536 0.91956 0.0
H1130 H 0.58813 0.01442 0.91948 0.0
H1131 H 0.5816 0.98181 0.91904 0.0
H1132 H 0.58572 0.00073 0.9477 0.0
H1133 H 0.50492 0.01281 0.86524 0.0
H1134 H 0.47868 0.99682 0.87713 0.0
H1135 H 0.50034 0.98015 0.86459 0.0
C1136 C 0.22999 0.36872 0.13372 0.0
C1137 C 0.21834 0.35919 0.11064 0.0
C1138 C 0.23003 0.35411 0.15306 0.0
C1139 C 0.21783 0.32946 0.14928 0.0
C1140 C 0.20489 0.3201 0.12639 0.0
C1141 C 0.20548 0.33505 0.1072 0.0
C1142 C 0.24429 0.3647 0.17716 0.0
C1143 C 0.19118 0.29409 0.12197 0.0
C1144 C 0.24723 0.29048 0.1913 0.0
C1145 C 0.23362 0.2917 0.21113 0.0
C1146 C 0.24113 0.30117 0.17014 0.0
C1147 C 0.2208 0.31316 0.16875 0.0
C1148 C 0.20571 0.3125 0.1878 0.0
C1149 C 0.21235 0.30181 0.20888 0.0
C1150 C 0.25773 0.3015 0.15022 0.0
C1151 C 0.18375 0.32489 0.18689 0.0
H1152 H 0.23993 0.38738 0.13649 0.0
H1153 H 0.19622 0.3277 0.08942 0.0
H1154 H 0.23323 0.36077 0.19234 0.0
H1155 H 0.26055 0.35594 0.1801 0.0
H1156 H 0.25039 0.38483 0.17797 0.0
H1157 H 0.17958 0.29063 0.10423 0.0
H1158 H 0.20422 0.28116 0.12209 0.0
H1159 H 0.17957 0.29 0.13674 0.0
H1160 H 0.26352 0.2824 0.19278 0.0
H1161 H 0.20169 0.3028 0.22411 0.0
H1162 H 0.26783 0.32041 0.14996 0.0
H1163 H 0.24707 0.29606 0.13216 0.0
H1164 H 0.27111 0.28907 0.15286 0.0
H1165 H 0.18974 0.34497 0.1912 0.0
H1166 H 0.17128 0.31834 0.20029 0.0
H1167 H 0.17359 0.32171 0.16843 0.0
C1168 C 0.12186 0.92054 0.02752 0.0
C1169 C 0.146 0.9304 0.0366 0.0
C1170 C 0.1041 0.93567 0.02553 0.0
C1171 C 0.11061 0.96115 0.03296 0.0
C1172 C 0.13476 0.97095 0.04286 0.0
C1173 C 0.1521 0.95553 0.04446 0.0
C1174 C 0.07847 0.92451 0.01513 0.0
C1175 C 0.14244 0.99789 0.05141 0.0
C1176 C 0.07657 0.00853 0.00699 0.0
C1177 C 0.06277 0.01396 0.02581 0.0
C1178 C 0.09116 0.9904 0.00852 0.0
C1179 C 0.09261 0.97794 0.02977 0.0
C1180 C 0.07841 0.98322 0.04872 0.0
C1181 C 0.06353 0.00108 0.04642 0.0
C1182 C 0.10545 0.98499 0.9876 0.0
C1183 C 0.07974 0.97093 0.07194 0.0
H1184 H 0.11698 0.90115 0.02146 0.0
H1185 H 0.17063 0.96331 0.0517 0.0
H1186 H 0.06567 0.92804 0.02851 0.0
H1187 H 0.07329 0.93323 -0.0014 0.0
H1188 H 0.07624 0.90441 0.01029 0.0
H1189 H 0.16164 0.00243 0.05969 0.0
H1190 H 0.14027 0.00892 0.03583 0.0
H1191 H 0.13065 0.0035 0.06502 0.0
H1192 H 0.07578 0.01835 0.99092 0.0
H1193 H 0.05295 0.00542 0.06103 0.0
H1194 H 0.10243 0.96497 0.98214 0.0
H1195 H 0.12514 0.99103 0.99341 0.0
H1196 H 0.10043 0.99441 0.97146 0.0
H1197 H 0.08091 0.95129 0.06825 0.0
H1198 H 0.06379 0.97242 0.08202 0.0
H1199 H 0.09636 0.9799 0.08386 0.0
C1200 C 0.66491 0.58056 0.94367 0.0
C1201 C 0.67309 0.60489 0.95349 0.0
C1202 C 0.64106 0.56895 0.9452 0.0
C1203 C 0.62528 0.5819 0.95731 0.0
C1204 C 0.63288 0.60704 0.96562 0.0
C1205 C 0.65673 0.61835 0.9634 0.0
C1206 C 0.63341 0.5423 0.93554 0.0
C1207 C 0.6166 0.62141 0.97877 0.0
C1208 C 0.55892 0.55335 0.95688 0.0
C1209 C 0.55944 0.54222 0.9787 0.0
C1210 C 0.58022 0.56621 0.94948 0.0
C1211 C 0.60243 0.56826 0.96444 0.0
C1212 C 0.60305 0.55707 0.98645 0.0
C1213 C 0.58158 0.54404 0.99322 0.0
C1214 C 0.57897 0.57766 0.92574 0.0
C1215 C 0.62637 0.55911 0.00307 0.0
H1216 H 0.67751 0.57022 0.93578 0.0
H1217 H 0.66305 0.63718 0.97105 0.0
H1218 H 0.63273 0.53084 0.951 0.0
H1219 H 0.61496 0.53904 0.92547 0.0
H1220 H 0.64622 0.53611 0.9233 0.0
H1221 H 0.62397 0.64138 0.98125 0.0
H1222 H 0.59817 0.61845 0.96872 0.0
H1223 H 0.61468 0.6149 0.99698 0.0
H1224 H 0.54184 0.55207 0.94558 0.0
H1225 H 0.58212 0.53577 0.01024 0.0
H1226 H 0.59171 0.57081 0.91385 0.0
H1227 H 0.58467 0.59782 0.92922 0.0
H1228 H 0.56041 0.57365 0.91581 0.0
H1229 H 0.63988 0.55089 0.99333 0.0
H1230 H 0.62362 0.5498 0.01981 0.0
H1231 H 0.63424 0.5787 0.0085 0.0
C1232 C 0.68121 0.42462 0.29039 0.0
C1233 C 0.69153 0.44925 0.28928 0.0
C1234 C 0.69534 0.40607 0.28918 0.0
C1235 C 0.72045 0.41226 0.28693 0.0
C1236 C 0.73116 0.43715 0.28662 0.0
C1237 C 0.71656 0.45535 0.28775 0.0
C1238 C 0.68324 0.37973 0.2896 0.0
C1239 C 0.75791 0.44449 0.28443 0.0
C1240 C 0.75912 0.3647 0.30281 0.0
C1241 C 0.76056 0.35287 0.2798 0.0
C1242 C 0.74661 0.38443 0.30537 0.0
C1243 C 0.73532 0.39255 0.2844 0.0
C1244 C 0.73741 0.38115 0.26104 0.0
C1245 C 0.75012 0.36147 0.25903 0.0
C1246 C 0.74492 0.39613 0.33055 0.0
C1247 C 0.7258 0.38941 0.23823 0.0
H1248 H 0.66188 0.4197 0.29149 0.0
H1249 H 0.72468 0.47431 0.28683 0.0
H1250 H 0.68487 0.36897 0.27224 0.0
H1251 H 0.69247 0.37135 0.30448 0.0
H1252 H 0.66369 0.37803 0.29219 0.0
H1253 H 0.76367 0.4647 0.28563 0.0
H1254 H 0.76879 0.43727 0.299 0.0
H1255 H 0.7622 0.43637 0.26675 0.0
H1256 H 0.76722 0.35807 0.31893 0.0
H1257 H 0.75179 0.3527 0.24122 0.0
H1258 H 0.72575 0.39282 0.33456 0.0
H1259 H 0.7509 0.41627 0.33159 0.0
H1260 H 0.75614 0.38881 0.3448 0.0
H1261 H 0.70578 0.38627 0.2383 0.0
H1262 H 0.73019 0.37953 0.22143 0.0
H1263 H 0.73189 0.40936 0.23766 0.0
C1264 C 0.79842 0.42429 0.53408 0.0
C1265 C 0.78287 0.44099 0.52918 0.0
C1266 C 0.82366 0.43109 0.53416 0.0
C1267 C 0.83349 0.45518 0.52949 0.0
C1268 C 0.81798 0.47244 0.52583 0.0
C1269 C 0.79286 0.4651 0.52559 0.0
C1270 C 0.83965 0.41216 0.53805 0.0
C1271 C 0.8278 0.49841 0.52112 0.0
C1272 C 0.90098 0.48058 0.54263 0.0
C1273 C 0.90835 0.47861 0.51921 0.0
C1274 C 0.87674 0.47244 0.54645 0.0
C1275 C 0.85966 0.46192 0.52637 0.0
C1276 C 0.86727 0.4592 0.50282 0.0
C1277 C 0.89154 0.46772 0.49951 0.0
C1278 C 0.86926 0.47583 0.57178 0.0
C1279 C 0.84964 0.44787 0.48098 0.0
H1280 H 0.79083 0.40562 0.53686 0.0
H1281 H 0.78098 0.47819 0.52207 0.0
H1282 H 0.84735 0.4076 0.52089 0.0
H1283 H 0.85513 0.41956 0.55208 0.0
H1284 H 0.82954 0.39502 0.54373 0.0
H1285 H 0.8136 0.51013 0.52076 0.0
H1286 H 0.84279 0.50681 0.53534 0.0
H1287 H 0.83537 0.49832 0.50336 0.0
H1288 H 0.91404 0.48902 0.55789 0.0
H1289 H 0.89731 0.46609 0.48142 0.0
H1290 H 0.8596 0.45822 0.57686 0.0
H1291 H 0.85645 0.48899 0.57225 0.0
H1292 H 0.88504 0.48283 0.58564 0.0
H1293 H 0.83998 0.42964 0.48452 0.0
H1294 H 0.85879 0.44566 0.46424 0.0
H1295 H 0.83574 0.45957 0.47761 0.0
C1296 C 0.32694 0.12338 0.24922 0.0
C1297 C 0.35067 0.13005 0.24322 0.0
C1298 C 0.31171 0.14082 0.25185 0.0
C1299 C 0.32019 0.16542 0.24776 0.0
C1300 C 0.34387 0.1721 0.24086 0.0
C1301 C 0.35895 0.15439 0.23901 0.0
C1302 C 0.28688 0.1331 0.2599 0.0
C1303 C 0.35341 0.19803 0.23586 0.0
C1304 C 0.27332 0.20724 0.23913 0.0
C1305 C 0.27665 0.22084 0.26193 0.0
C1306 C 0.28764 0.18932 0.23403 0.0
C1307 C 0.305 0.1845 0.25249 0.0
C1308 C 0.30788 0.1979 0.27573 0.0
C1309 C 0.29397 0.21617 0.28 0.0
C1310 C 0.28464 0.17598 0.20881 0.0
C1311 C 0.32562 0.19296 0.29616 0.0
H1312 H 0.32049 0.10461 0.25261 0.0
H1313 H 0.37722 0.1596 0.23416 0.0
H1314 H 0.28578 0.14315 0.27779 0.0
H1315 H 0.27269 0.13789 0.24677 0.0
H1316 H 0.2827 0.11311 0.2616 0.0
H1317 H 0.37086 0.19954 0.22774 0.0
H1318 H 0.33994 0.20471 0.22335 0.0
H1319 H 0.35631 0.21034 0.25306 0.0
H1320 H 0.26014 0.21119 0.22511 0.0
H1321 H 0.29648 0.22673 0.2977 0.0
H1322 H 0.27989 0.15592 0.20972 0.0
H1323 H 0.30208 0.17942 0.20074 0.0
H1324 H 0.27036 0.18182 0.19653 0.0
H1325 H 0.3217 0.17336 0.29947 0.0
H1326 H 0.3249 0.20437 0.31342 0.0
H1327 H 0.34438 0.19674 0.29103 0.0
C1328 C 0.32489 0.08999 0.50552 0.0
C1329 C 0.30416 0.0854 0.51775 0.0
C1330 C 0.3456 0.08018 0.51247 0.0
C1331 C 0.34565 0.06576 0.53236 0.0
C1332 C 0.32517 0.06193 0.54544 0.0
C1333 C 0.30455 0.0716 0.53782 0.0
C1334 C 0.3671 0.08454 0.49799 0.0
C1335 C 0.32489 0.0472 0.56711 0.0
C1336 C 0.38793 0.02011 0.52708 0.0
C1337 C 0.40932 0.03342 0.54002 0.0
C1338 C 0.36648 0.0298 0.52577 0.0
C1339 C 0.36646 0.05317 0.538 0.0
C1340 C 0.38739 0.06555 0.55308 0.0
C1341 C 0.40873 0.05553 0.55382 0.0
C1342 C 0.34452 0.01601 0.50949 0.0
C1343 C 0.38794 0.09024 0.56687 0.0
H1344 H 0.32471 0.1007 0.49006 0.0
H1345 H 0.28869 0.06832 0.5476 0.0
H1346 H 0.38375 0.09282 0.51021 0.0
H1347 H 0.37027 0.06679 0.48933 0.0
H1348 H 0.36443 0.0968 0.48352 0.0
H1349 H 0.3085 0.0479 0.5767 0.0
H1350 H 0.32535 0.02777 0.56109 0.0
H1351 H 0.34128 0.05409 0.58021 0.0
H1352 H 0.38837 0.00291 0.51652 0.0
H1353 H 0.42527 0.06573 0.564 0.0
H1354 H 0.34154 0.0259 0.4932 0.0
H1355 H 0.32799 0.01505 0.51906 0.0
H1356 H 0.34671 0.99706 0.50331 0.0
H1357 H 0.39067 0.10467 0.55424 0.0
H1358 H 0.403 0.09447 0.58191 0.0
H1359 H 0.37054 0.09112 0.57455 0.0
C1360 C 0.6533 0.60669 0.26101 0.0
C1361 C 0.66444 0.58836 0.27093 0.0
C1362 C 0.66597 0.63072 0.26119 0.0
C1363 C 0.69048 0.63675 0.27154 0.0
C1364 C 0.70175 0.61853 0.28202 0.0
C1365 C 0.68862 0.59456 0.2816 0.0
C1366 C 0.65322 0.64956 0.24984 0.0
C1367 C 0.72783 0.62426 0.29329 0.0
C1368 C 0.72802 0.69133 0.24769 0.0
C1369 C 0.72754 0.71039 0.26581 0.0
C1370 C 0.71669 0.66719 0.24972 0.0
C1371 C 0.70445 0.66187 0.27034 0.0
C1372 C 0.70436 0.6809 0.28898 0.0
C1373 C 0.71591 0.70491 0.2865 0.0
C1374 C 0.71722 0.64749 0.22941 0.0
C1375 C 0.69143 0.67604 0.3112 0.0
H1376 H 0.63462 0.60223 0.25279 0.0
H1377 H 0.69741 0.58061 0.28935 0.0
H1378 H 0.65416 0.6658 0.26318 0.0
H1379 H 0.66246 0.65595 0.23413 0.0
H1380 H 0.63384 0.6422 0.24341 0.0
H1381 H 0.73364 0.60842 0.30167 0.0
H1382 H 0.73991 0.62958 0.27919 0.0
H1383 H 0.7304 0.64006 0.30744 0.0
H1384 H 0.73701 0.69528 0.23166 0.0
H1385 H 0.71529 0.71948 0.30056 0.0
H1386 H 0.6985 0.64041 0.22065 0.0
H1387 H 0.72432 0.63183 0.2368 0.0
H1388 H 0.72861 0.65431 0.21524 0.0
H1389 H 0.67162 0.67064 0.30574 0.0
H1390 H 0.69452 0.69236 0.32485 0.0
H1391 H 0.69761 0.66058 0.31992 0.0
C1392 C 0.86867 0.46426 0.73799 0.0
C1393 C 0.86148 0.48685 0.73479 0.0
C1394 C 0.8516 0.44329 0.74003 0.0
C1395 C 0.8266 0.44477 0.73833 0.0
C1396 C 0.81908 0.46728 0.73417 0.0
C1397 C 0.83665 0.48816 0.73273 0.0
C1398 C 0.86042 0.41972 0.74479 0.0
C1399 C 0.79254 0.46936 0.73165 0.0
C1400 C 0.78691 0.38195 0.72734 0.0
C1401 C 0.78245 0.37739 0.75111 0.0
C1402 C 0.79965 0.40466 0.72255 0.0
C1403 C 0.80871 0.42288 0.74213 0.0
C1404 C 0.8031 0.41876 0.766 0.0
C1405 C 0.78978 0.39609 0.77015 0.0
C1406 C 0.80465 0.40853 0.69676 0.0
C1407 C 0.8127 0.43756 0.78743 0.0
H1408 H 0.88781 0.46309 0.73973 0.0
H1409 H 0.83096 0.50553 0.73008 0.0
H1410 H 0.85491 0.41384 0.76239 0.0
H1411 H 0.85198 0.40492 0.73038 0.0
H1412 H 0.88047 0.42161 0.74545 0.0
H1413 H 0.78958 0.48756 0.72638 0.0
H1414 H 0.78217 0.45493 0.71778 0.0
H1415 H 0.785 0.46645 0.74915 0.0
H1416 H 0.78118 0.36745 0.7126 0.0
H1417 H 0.78637 0.39252 0.78855 0.0
H1418 H 0.79294 0.39453 0.6833 0.0
H1419 H 0.82389 0.40741 0.69474 0.0
H1420 H 0.80173 0.42701 0.69239 0.0
H1421 H 0.83274 0.43932 0.79067 0.0
H1422 H 0.80486 0.43251 0.80435 0.0
H1423 H 0.80869 0.45581 0.78359 0.0
C1424 C 0.9918 0.82839 0.08131 0.0
C1425 C 0.98692 0.8327 0.1055 0.0
C1426 C 0.9917 0.84671 0.06533 0.0
C1427 C 0.98652 0.8698 0.07375 0.0
C1428 C 0.9806 0.87388 0.09784 0.0
C1429 C 0.98091 0.8553 0.11343 0.0
C1430 C -0.00185 0.8417 0.0398 0.0
C1431 C 0.97484 0.89823 0.10748 0.0
C1432 C 0.01351 0.92803 0.04823 0.0
C1433 C 0.99333 0.93346 0.03434 0.0
C1434 C 0.01183 0.90664 0.06009 0.0
C1435 C 0.98929 0.89046 0.05826 0.0
C1436 C 0.96912 0.89526 0.04325 0.0
C1437 C 0.97142 0.91675 0.03133 0.0
C1438 C 0.03387 0.90205 0.07562 0.0
C1439 C 0.94482 0.87841 0.04082 0.0
H1440 H -0.0036 0.81094 0.07502 0.0
H1441 H 0.97698 0.85871 0.13205 0.0
H1442 H 0.98444 0.84678 0.02634 0.0
H1443 H 0.01588 0.85315 0.03778 0.0
H1444 H -0.00055 0.82215 0.03533 0.0
H1445 H 0.96884 0.89784 0.12598 0.0
H1446 H 0.9912 0.91266 0.10826 0.0
H1447 H 0.96038 0.90355 0.09507 0.0
H1448 H 0.0305 0.94092 0.05045 0.0
H1449 H 0.9558 0.921 0.0206 0.0
H1450 H 0.03675 0.88295 0.07154 0.0
H1451 H 0.03096 0.90449 0.09512 0.0
H1452 H 0.05062 0.91473 0.0728 0.0
H1453 H 0.94699 0.85911 0.03652 0.0
H1454 H 0.93179 0.88324 0.02645 0.0
H1455 H 0.93694 0.87953 0.05839 0.0
C1456 C 0.9454 0.28399 0.79896 0.0
C1457 C 0.95329 0.28472 0.82379 0.0
C1458 C 0.92062 0.2787 0.79046 0.0
C1459 C 0.90331 0.27469 0.80731 0.0
C1460 C 0.91119 0.27429 0.83228 0.0
C1461 C 0.93616 0.27904 0.8402 0.0
C1462 C 0.91296 0.27875 0.76362 0.0
C1463 C 0.89327 0.27055 0.85086 0.0
C1464 C 0.84424 0.29638 0.79018 0.0
C1465 C 0.82823 0.27429 0.78276 0.0
C1466 C 0.86853 0.29662 0.79863 0.0
C1467 C 0.87724 0.2742 0.79924 0.0
C1468 C 0.86123 0.25177 0.7917 0.0
C1469 C 0.83676 0.25206 0.78379 0.0
C1470 C 0.88488 0.32092 0.80697 0.0
C1471 C 0.87003 0.22758 0.79175 0.0
H1472 H 0.95863 0.28806 0.78619 0.0
H1473 H 0.94222 0.27965 0.85942 0.0
H1474 H 0.89883 0.26251 0.75696 0.0
H1475 H 0.90493 0.29531 0.76056 0.0
H1476 H 0.92847 0.27875 0.75261 0.0
H1477 H 0.90216 0.26796 0.86898 0.0
H1478 H 0.88425 0.28679 0.85288 0.0
H1479 H 0.87886 0.25442 0.84475 0.0
H1480 H 0.83766 0.31362 0.78987 0.0
H1481 H 0.8244 0.23494 0.77815 0.0
H1482 H 0.89988 0.32393 0.79531 0.0
H1483 H 0.8932 0.32084 0.82591 0.0
H1484 H 0.87498 0.3366 0.80629 0.0
H1485 H 0.88477 0.22738 0.77981 0.0
H1486 H 0.85528 0.21177 0.78536 0.0
H1487 H 0.87774 0.22516 0.81037 0.0
C1488 C 0.48935 0.1895 0.59172 0.0
C1489 C 0.48485 0.18625 0.61578 0.0
C1490 C 0.49153 0.16952 0.5754 0.0
C1491 C 0.48857 0.14572 0.58322 0.0
C1492 C 0.48228 0.14214 0.60695 0.0
C1493 C 0.48085 0.16252 0.6231 0.0
C1494 C 0.49869 0.17416 0.5504 0.0
C1495 C 0.47822 0.11691 0.61565 0.0
C1496 C 0.48392 0.09108 0.53595 0.0
C1497 C 0.5075 0.08586 0.53921 0.0
C1498 C 0.47727 0.11035 0.55034 0.0
C1499 C 0.49491 0.12514 0.56774 0.0
C1500 C 0.51892 0.12032 0.57055 0.0
C1501 C 0.52486 0.10059 0.55638 0.0
C1502 C 0.45142 0.11475 0.54706 0.0
C1503 C 0.53838 0.13596 0.58859 0.0
H1504 H 0.49254 0.20784 0.58602 0.0
H1505 H 0.47707 0.15994 0.64161 0.0
H1506 H 0.51753 0.17091 0.54926 0.0
H1507 H 0.48674 0.16129 0.5362 0.0
H1508 H 0.49785 0.19322 0.54626 0.0
H1509 H 0.47052 0.11686 0.63338 0.0
H1510 H 0.46575 0.10378 0.60203 0.0
H1511 H 0.49573 0.11018 0.61781 0.0
H1512 H 0.47064 0.08002 0.52226 0.0
H1513 H 0.54314 0.09667 0.5588 0.0
H1514 H 0.43962 0.10078 0.53366 0.0
H1515 H 0.451 0.13311 0.54082 0.0
H1516 H 0.4437 0.11454 0.56474 0.0
H1517 H 0.5401 0.15548 0.58502 0.0
H1518 H 0.55638 0.13035 0.5878 0.0
H1519 H 0.53327 0.13468 0.60734 0.0
C1520 C 0.61815 0.78295 0.34727 0.0
C1521 C 0.5958 0.78657 0.33605 0.0
C1522 C 0.6381 0.7824 0.33388 0.0
C1523 C 0.63561 0.78591 0.30879 0.0
C1524 C 0.61318 0.79005 0.29756 0.0
C1525 C 0.5935 0.79012 0.31128 0.0
C1526 C 0.66134 0.7771 0.34657 0.0
C1527 C 0.6099 0.79427 0.27098 0.0
C1528 C 0.69115 0.80659 0.27686 0.0
C1529 C 0.69331 0.78483 0.26334 0.0
C1530 C 0.67273 0.80709 0.29218 0.0
C1531 C 0.65626 0.78526 0.29403 0.0
C1532 C 0.65879 0.76309 0.2808 0.0
C1533 C 0.67716 0.76321 0.26532 0.0
C1534 C 0.67071 0.831 0.30617 0.0
C1535 C 0.64215 0.73929 0.28304 0.0
H1536 H 0.6199 0.77992 0.36637 0.0
H1537 H 0.57627 0.79308 0.30258 0.0
H1538 H 0.66061 0.75696 0.34514 0.0
H1539 H 0.67757 0.78534 0.33831 0.0
H1540 H 0.66357 0.78386 0.36622 0.0
H1541 H 0.59147 0.79789 0.26519 0.0
H1542 H 0.62349 0.8101 0.26739 0.0
H1543 H 0.613 0.77799 0.25955 0.0
H1544 H 0.7038 0.82326 0.27531 0.0
H1545 H 0.67918 0.7463 0.25512 0.0
H1546 H 0.67003 0.82858 0.32576 0.0
H1547 H 0.65355 0.83684 0.29945 0.0
H1548 H 0.68614 0.84584 0.30434 0.0
H1549 H 0.64257 0.73567 0.30244 0.0
H1550 H 0.64729 0.72346 0.27243 0.0
H1551 H 0.62318 0.74065 0.27654 0.0
C1552 C 0.00064 0.18585 0.4942 0.0
C1553 C 0.00133 0.18471 0.46895 0.0
C1554 C -0.00046 0.16455 0.50622 0.0
C1555 C -0.00033 0.14188 0.49265 0.0
C1556 C -0.0006 0.14053 0.46703 0.0
C1557 C -2e-05 0.16196 0.45549 0.0
C1558 C -0.00069 0.16646 0.5335 0.0
C1559 C 0.00041 0.11698 0.45174 0.0
C1560 C 0.02683 0.09218 0.52171 0.0
C1561 C 0.00599 0.07499 0.52331 0.0
C1562 C 0.02499 0.11452 0.51244 0.0
C1563 C 0.00172 0.1198 0.50522 0.0
C1564 C 0.98059 0.10288 0.50789 0.0
C1565 C 0.983 0.08049 0.5168 0.0
C1566 C 0.04793 0.13179 0.50907 0.0
C1567 C 0.95556 0.10794 0.50019 0.0
H1568 H 0.00157 0.20343 0.50461 0.0
H1569 H 0.00071 0.16099 0.43596 0.0
H1570 H 0.98454 0.15255 0.53856 0.0
H1571 H 0.01671 0.16264 0.54221 0.0
H1572 H -0.00317 0.18491 0.54102 0.0
H1573 H 0.99145 0.11682 0.43297 0.0
H1574 H 0.01971 0.11556 0.45038 0.0
H1575 H 0.99186 0.10051 0.45972 0.0
H1576 H 0.04459 0.08768 0.5266 0.0
H1577 H 0.96694 0.06707 0.51822 0.0
H1578 H 0.04755 0.15047 0.51757 0.0
H1579 H 0.04916 0.13307 0.48934 0.0
H1580 H 0.06452 0.12564 0.51702 0.0
H1581 H 0.95315 0.12568 0.50949 0.0
H1582 H 0.94096 0.09328 0.50434 0.0
H1583 H 0.95348 0.10954 0.48031 0.0
C1584 C 0.57527 0.3326 0.15867 0.0
C1585 C 0.57296 0.31789 0.13651 0.0
C1586 C 0.59665 0.33616 0.17458 0.0
C1587 C 0.61587 0.32432 0.16822 0.0
C1588 C 0.61458 0.31164 0.14475 0.0
C1589 C 0.59303 0.30867 0.12899 0.0
C1590 C 0.59766 0.35045 0.19914 0.0
C1591 C 0.6349 0.29901 0.13727 0.0
C1592 C 0.67575 0.33296 0.20819 0.0
C1593 C 0.6721 0.31229 0.22112 0.0
C1594 C 0.65731 0.33777 0.19142 0.0
C1595 C 0.63496 0.32126 0.1874 0.0
C1596 C 0.63089 0.30093 0.20123 0.0
C1597 C 0.64955 0.29675 0.21804 0.0
C1598 C 0.66214 0.35984 0.17735 0.0
C1599 C 0.60715 0.28301 0.19759 0.0
H1600 H 0.55975 0.34007 0.16426 0.0
H1601 H 0.59123 0.2974 0.11182 0.0
H1602 H 0.59443 0.33747 0.21313 0.0
H1603 H 0.61581 0.36198 0.20441 0.0
H1604 H 0.58367 0.36239 0.19934 0.0
H1605 H 0.63268 0.29319 0.11742 0.0
H1606 H 0.65273 0.31124 0.14216 0.0
H1607 H 0.63517 0.2825 0.14719 0.0
H1608 H 0.69329 0.34492 0.21056 0.0
H1609 H 0.64679 0.28078 0.22809 0.0
H1610 H 0.64642 0.36955 0.17641 0.0
H1611 H 0.66488 0.35377 0.1584 0.0
H1612 H 0.6786 0.37296 0.18556 0.0
H1613 H 0.59184 0.29283 0.20041 0.0
H1614 H 0.60678 0.2685 0.21023 0.0
H1615 H 0.60405 0.2741 0.17863 0.0
C1616 C 0.53402 0.85967 0.94941 0.0
C1617 C 0.53309 0.83679 0.95851 0.0
C1618 C 0.53309 0.8807 0.96467 0.0
C1619 C 0.53166 0.87897 0.98984 0.0
C1620 C 0.53214 0.85625 -0.00053 0.0
C1621 C 0.53255 0.83529 0.9836 0.0
C1622 C 0.53253 0.90458 0.95357 0.0
C1623 C 0.53132 0.85386 0.0263 0.0
C1624 C 0.54383 0.94315 0.02077 0.0
C1625 C 0.52023 0.94845 0.01908 0.0
C1626 C 0.54786 0.9194 0.01413 0.0
C1627 C 0.52783 0.90082 0.00521 0.0
C1628 C 0.50391 0.90542 0.00627 0.0
C1629 C 0.50039 0.9292 0.01344 0.0
C1630 C 0.57361 0.9149 0.01423 0.0
C1631 C 0.48202 0.88607 0.99702 0.0
H1632 H 0.53451 0.86107 0.93008 0.0
H1633 H 0.53205 0.8177 0.9908 0.0
H1634 H 0.51527 0.91103 0.95647 0.0
H1635 H 0.5476 0.91893 0.96254 0.0
H1636 H 0.53412 0.90281 0.93371 0.0
H1637 H 0.5374 0.83683 0.03157 0.0
H1638 H 0.54286 0.86983 0.03744 0.0
H1639 H 0.51243 0.85327 0.03078 0.0
H1640 H 0.55926 0.95784 0.02571 0.0
H1641 H 0.48205 0.93303 0.01244 0.0
H1642 H 0.57914 0.91571 0.99559 0.0
H1643 H 0.57513 0.89644 0.01977 0.0
H1644 H 0.58648 0.92891 0.02667 0.0
H1645 H 0.48049 0.88344 0.97683 0.0
H1646 H 0.46493 0.89131 0.0025 0.0
H1647 H 0.48396 0.86825 0.00383 0.0
C1648 C 0.96032 0.77182 0.6989 0.0
C1649 C 0.95703 0.77441 0.6739 0.0
C1650 C 0.94167 0.77388 0.71359 0.0
C1651 C 0.91916 0.7783 0.70293 0.0
C1652 C 0.9156 0.78061 0.67767 0.0
C1653 C 0.93467 0.77879 0.66347 0.0
C1654 C 0.94601 0.7713 0.74047 0.0
C1655 C 0.89163 0.78493 0.66566 0.0
C1656 C 0.8618 0.76026 0.73233 0.0
C1657 C 0.85762 0.78312 0.74185 0.0
C1658 C 0.88236 0.75831 0.72047 0.0
C1659 C 0.89898 0.7798 0.71797 0.0
C1660 C 0.89544 0.80283 0.72858 0.0
C1661 C 0.87469 0.80422 0.74047 0.0
C1662 C 0.88553 0.73339 0.70953 0.0
C1663 C 0.91305 0.82605 0.72653 0.0
H1664 H 0.97763 0.76861 0.70713 0.0
H1665 H 0.93202 0.78075 0.64416 0.0
H1666 H 0.94274 0.78795 0.75121 0.0
H1667 H 0.93304 0.75555 0.74526 0.0
H1668 H 0.96478 0.76847 0.74602 0.0
H1669 H 0.89189 0.78643 0.64583 0.0
H1670 H 0.87696 0.76965 0.66826 0.0
H1671 H 0.88699 0.80202 0.67429 0.0
H1672 H 0.8486 0.74392 0.73353 0.0
H1673 H 0.87141 0.82187 0.74792 0.0
H1674 H 0.90468 0.73083 0.71277 0.0
H1675 H 0.88058 0.73184 0.68954 0.0
H1676 H 0.87388 0.71832 0.71705 0.0
H1677 H 0.93186 0.82378 0.73259 0.0
H1678 H 0.90878 0.84211 0.73751 0.0
H1679 H 0.91253 0.82996 0.70721 0.0
C1680 C 0.06712 0.99212 0.83807 0.0
C1681 C 0.09249 0.99683 0.83851 0.0
C1682 C 0.05602 0.9921 0.85965 0.0
C1683 C 0.0706 0.9973 0.88232 0.0
C1684 C 0.09625 0.00076 0.88296 0.0
C1685 C 0.10692 0.0003 0.86099 0.0
C1686 C 0.02863 0.98792 0.85811 0.0
C1687 C 0.11242 0.0065 0.90678 0.0
C1688 C 0.04212 0.03091 0.9311 0.0
C1689 C 0.03412 0.01225 0.94556 0.0
C1690 C 0.05454 0.02631 0.91095 0.0
C1691 C 0.05899 0.00238 0.90482 0.0
C1692 C 0.05112 0.98341 0.91932 0.0
C1693 C 0.03881 0.98858 0.93959 0.0
C1694 C 0.0627 0.04713 0.89607 0.0
C1695 C 0.05549 0.95766 0.91329 0.0
H1696 H 0.05584 0.989 0.82075 0.0
H1697 H 0.12653 0.0039 0.86143 0.0
H1698 H 0.02201 0.97452 0.87076 0.0
H1699 H 0.02262 0.00539 0.86364 0.0
H1700 H 0.01996 0.98111 0.8394 0.0
H1701 H 0.13164 0.00542 0.90444 0.0
H1702 H 0.1116 0.02532 0.91466 0.0
H1703 H 0.10606 0.99374 0.92011 0.0
H1704 H 0.03881 0.04932 0.93554 0.0
H1705 H 0.033 0.97411 0.95078 0.0
H1706 H 0.05329 0.04314 0.8773 0.0
H1707 H 0.08248 0.04901 0.89469 0.0
H1708 H 0.05892 0.06493 0.904 0.0
H1709 H 0.04598 0.95019 0.89509 0.0
H1710 H 0.04904 0.94519 0.92687 0.0
H1711 H 0.07513 0.95774 0.91241 0.0
C1712 C 0.72396 0.36068 0.62281 0.0
C1713 C 0.72096 0.34803 0.59943 0.0
C1714 C 0.72831 0.34871 0.64373 0.0
C1715 C 0.73032 0.3236 0.64123 0.0
C1716 C 0.72761 0.31081 0.61765 0.0
C1717 C 0.72269 0.3231 0.59706 0.0
C1718 C 0.73018 0.3628 0.66852 0.0
C1719 C 0.7299 0.28412 0.61418 0.0
C1720 C 0.76237 0.29714 0.69396 0.0
C1721 C 0.74274 0.2834 0.70327 0.0
C1722 C 0.75864 0.31041 0.6738 0.0
C1723 C 0.73465 0.31048 0.66326 0.0
C1724 C 0.71476 0.29741 0.67339 0.0
C1725 C 0.71909 0.28355 0.69287 0.0
C1726 C 0.78036 0.3239 0.6635 0.0
C1727 C 0.68885 0.29774 0.66362 0.0
H1728 H 0.72245 0.37991 0.6248 0.0
H1729 H 0.72049 0.31324 0.57907 0.0
H1730 H 0.71604 0.35386 0.67916 0.0
H1731 H 0.74803 0.36258 0.67876 0.0
H1732 H 0.72799 0.38217 0.66738 0.0
H1733 H 0.7287 0.27718 0.59465 0.0
H1734 H 0.7475 0.28142 0.62345 0.0
H1735 H 0.71529 0.27292 0.6226 0.0
H1736 H 0.78067 0.297 0.70207 0.0
H1737 H 0.70386 0.27313 0.70026 0.0
H1738 H 0.77942 0.34369 0.66391 0.0
H1739 H 0.78028 0.31684 0.64416 0.0
H1740 H 0.79779 0.32193 0.67371 0.0
H1741 H 0.68649 0.31627 0.65895 0.0
H1742 H 0.67611 0.29199 0.67703 0.0
H1743 H 0.68385 0.2849 0.64681 0.0
C1744 C 0.42229 0.05843 0.33258 0.0
C1745 C 0.44071 0.06923 0.31952 0.0
C1746 C 0.42738 0.05428 0.35705 0.0
C1747 C 0.45126 0.06192 0.3689 0.0
C1748 C 0.46945 0.07449 0.3562 0.0
C1749 C 0.46408 0.0775 0.3315 0.0
C1750 C 0.40766 0.04013 0.36961 0.0
C1751 C 0.4949 0.08374 0.36836 0.0
C1752 C 0.46214 0.06254 0.4379 0.0
C1753 C 0.47277 0.04165 0.4401 0.0
C1754 C 0.45508 0.0695 0.41484 0.0
C1755 C 0.4579 0.05466 0.39361 0.0
C1756 C 0.46784 0.03304 0.3959 0.0
C1757 C 0.4756 0.02708 0.41911 0.0
C1758 C 0.44537 0.09309 0.41318 0.0
C1759 C 0.47043 0.01623 0.37383 0.0
H1760 H 0.40431 0.05166 0.32317 0.0
H1761 H 0.47832 0.08583 0.32135 0.0
H1762 H 0.41217 0.02186 0.3727 0.0
H1763 H 0.40642 0.04967 0.38769 0.0
H1764 H 0.38961 0.03742 0.35872 0.0
H1765 H 0.50582 0.09612 0.35721 0.0
H1766 H 0.49442 0.09371 0.38644 0.0
H1767 H 0.50423 0.06799 0.37135 0.0
H1768 H 0.46017 0.0739 0.4542 0.0
H1769 H 0.48365 0.01081 0.42088 0.0
H1770 H 0.42724 0.08955 0.40246 0.0
H1771 H 0.45759 0.10582 0.40349 0.0
H1772 H 0.44384 0.10229 0.43139 0.0
H1773 H 0.45281 0.0112 0.36218 0.0
H1774 H 0.47659 -0.00084 0.37883 0.0
H1775 H 0.48375 0.02581 0.36276 0.0
C1776 C 0.75338 0.69345 0.04945 0.0
C1777 C 0.73975 0.67014 0.051 0.0
C1778 C 0.75725 0.71158 0.06921 0.0
C1779 C 0.74739 0.70621 0.09106 0.0
C1780 C 0.73331 0.68288 0.09265 0.0
C1781 C 0.72958 0.66514 0.07255 0.0
C1782 C 0.77216 0.73635 0.06685 0.0
C1783 C 0.72257 0.6765 0.11575 0.0
C1784 C 0.77476 0.73982 0.152 0.0
C1785 C 0.75729 0.75422 0.157 0.0
C1786 C 0.77241 0.72492 0.12997 0.0
C1787 C 0.75219 0.72466 0.1126 0.0
C1788 C 0.73546 0.74051 0.11689 0.0
C1789 C 0.73819 0.75512 0.13916 0.0
C1790 C 0.79069 0.70833 0.126 0.0
C1791 C 0.71387 0.74095 0.09862 0.0
H1792 H 0.76119 0.69752 0.0328 0.0
H1793 H 0.71906 0.64719 0.0739 0.0
H1794 H 0.7617 0.75106 0.07131 0.0
H1795 H 0.78876 0.73962 0.08004 0.0
H1796 H 0.77767 0.73793 0.04825 0.0
H1797 H 0.71176 0.65766 0.11387 0.0
H1798 H 0.7373 0.67795 0.13089 0.0
H1799 H 0.71069 0.68967 0.12095 0.0
H1800 H 0.7896 0.73921 0.16581 0.0
H1801 H 0.72472 0.76636 0.14304 0.0
H1802 H 0.79732 0.71005 0.1079 0.0
H1803 H 0.78185 0.68896 0.12629 0.0
H1804 H 0.80653 0.71245 0.1402 0.0
H1805 H 0.71963 0.74257 0.08015 0.0
H1806 H 0.70429 0.75632 0.10341 0.0
H1807 H 0.70085 0.72347 0.09782 0.0
C1808 C 0.1304 0.98904 0.68527 0.0
C1809 C 0.12059 0.97618 0.70375 0.0
C1810 C 0.11744 0.98723 0.66209 0.0
C1811 C 0.09437 0.97188 0.65725 0.0
C1812 C 0.08545 0.95719 0.6752 0.0
C1813 C 0.09856 0.95971 0.69835 0.0
C1814 C 0.12754 0.0033 0.64349 0.0
C1815 C 0.06125 0.94012 0.67056 0.0
C1816 C 0.04848 0.9959 0.61565 0.0
C1817 C 0.04942 0.98263 0.59328 0.0
C1818 C 0.06272 0.99216 0.63661 0.0
C1819 C 0.07803 0.9744 0.63527 0.0
C1820 C 0.07826 0.96013 0.61293 0.0
C1821 C 0.06404 0.96458 0.59204 0.0
C1822 C 0.06195 0.00784 0.66005 0.0
C1823 C 0.09394 0.94068 0.61095 0.0
H1824 H 0.14749 0.00169 0.68932 0.0
H1825 H 0.09112 0.94942 0.7125 0.0
H1826 H 0.1261 0.99259 0.62547 0.0
H1827 H 0.11676 0.01814 0.64136 0.0
H1828 H 0.14685 0.01182 0.64889 0.0
H1829 H 0.05904 0.92685 0.68443 0.0
H1830 H 0.04642 0.95099 0.67107 0.0
H1831 H 0.05911 0.9298 0.65226 0.0
H1832 H 0.03714 0.00985 0.61664 0.0
H1833 H 0.06466 0.95424 0.57472 0.0
H1834 H 0.08023 0.01877 0.66621 0.0
H1835 H 0.05682 0.99606 0.67457 0.0
H1836 H 0.04883 0.02062 0.65803 0.0
H1837 H 0.11334 0.94948 0.61298 0.0
H1838 H 0.08981 0.92921 0.59317 0.0
H1839 H 0.09144 0.92859 0.62579 0.0
C1840 C 0.71188 0.37495 0.42999 0.0
C1841 C 0.70594 0.36233 0.45014 0.0
C1842 C 0.71641 0.3626 0.40825 0.0
C1843 C 0.71451 0.3368 0.40617 0.0
C1844 C 0.70782 0.32377 0.42613 0.0
C1845 C 0.7039 0.33671 0.44799 0.0
C1846 C 0.72401 0.37735 0.38772 0.0
C1847 C 0.70502 0.29621 0.42445 0.0
C1848 C 0.70923 0.30797 0.34057 0.0
C1849 C 0.73321 0.30496 0.3381 0.0
C1850 C 0.70257 0.31702 0.36298 0.0
C1851 C 0.72043 0.32384 0.38331 0.0
C1852 C 0.74457 0.32037 0.38102 0.0
C1853 C 0.75059 0.31075 0.35857 0.0
C1854 C 0.67656 0.32002 0.36466 0.0
C1855 C 0.76435 0.32794 0.40196 0.0
H1856 H 0.71376 0.39475 0.43141 0.0
H1857 H 0.69926 0.32678 0.46339 0.0
H1858 H 0.7425 0.3748 0.38389 0.0
H1859 H 0.71159 0.37076 0.37087 0.0
H1860 H 0.72414 0.39725 0.39197 0.0
H1861 H 0.6982 0.28865 0.44092 0.0
H1862 H 0.69228 0.28788 0.40827 0.0
H1863 H 0.72276 0.29062 0.42208 0.0
H1864 H 0.69565 0.30347 0.3249 0.0
H1865 H 0.76922 0.30874 0.35682 0.0
H1866 H 0.67543 0.3398 0.36657 0.0
H1867 H 0.66989 0.31214 0.38102 0.0
H1868 H 0.66434 0.31108 0.34831 0.0
H1869 H 0.76726 0.34811 0.40642 0.0
H1870 H 0.78185 0.3227 0.39774 0.0
H1871 H 0.75889 0.31944 0.41845 0.0
C1872 C 0.42213 0.05111 0.15507 0.0
C1873 C 0.43379 0.06781 0.17469 0.0
C1874 C 0.43456 0.04483 0.13531 0.0
C1875 C 0.4591 0.0559 0.1349 0.0
C1876 C 0.47077 0.07325 0.15436 0.0
C1877 C 0.45806 0.07879 0.17415 0.0
C1878 C 0.42154 0.02603 0.11505 0.0
C1879 C 0.49671 0.08594 0.15428 0.0
C1880 C 0.49918 0.02477 0.09521 0.0
C1881 C 0.49731 0.03692 0.07422 0.0
C1882 C 0.48655 0.03052 0.11503 0.0
C1883 C 0.47248 0.04943 0.11403 0.0
C1884 C 0.47105 0.06208 0.09296 0.0
C1885 C 0.48318 0.05539 0.07318 0.0
C1886 C 0.48795 0.01615 0.13688 0.0
C1887 C 0.45697 0.08287 0.09139 0.0
H1888 H 0.40343 0.04241 0.15545 0.0
H1889 H 0.46713 0.09176 0.18922 0.0
H1890 H 0.42124 0.03415 0.09745 0.0
H1891 H 0.43142 0.01039 0.11322 0.0
H1892 H 0.40255 0.01891 0.11825 0.0
H1893 H 0.50288 0.0996 0.17037 0.0
H1894 H 0.50894 0.07223 0.15411 0.0
H1895 H 0.49859 0.09541 0.13754 0.0
H1896 H 0.51004 0.0104 0.09587 0.0
H1897 H 0.48199 0.06501 0.057 0.0
H1898 H 0.46942 0.00739 0.14006 0.0
H1899 H 0.49572 0.02864 0.15341 0.0
H1900 H 0.49923 0.00168 0.1346 0.0
H1901 H 0.45695 0.09015 0.07334 0.0
H1902 H 0.46505 0.09802 0.10561 0.0
H1903 H 0.43789 0.07673 0.09484 0.0
C1904 C 0.80109 0.70072 0.93472 0.0
C1905 C 0.78585 0.67856 0.92566 0.0
C1906 C 0.80747 0.719 0.91934 0.0
C1907 C 0.79766 0.71523 0.89461 0.0
C1908 C 0.78358 0.69223 0.88511 0.0
C1909 C 0.77813 0.67402 0.90072 0.0
C1910 C 0.82325 0.7429 0.92999 0.0
C1911 C 0.77228 0.68759 0.85897 0.0
C1912 C 0.77699 0.76519 0.86069 0.0
C1913 C 0.79215 0.76625 0.842 0.0
C1914 C 0.7799 0.75007 0.87929 0.0
C1915 C 0.79874 0.73606 0.87943 0.0
C1916 C 0.8159 0.73937 0.86236 0.0
C1917 C 0.81234 0.7544 0.84368 0.0
C1918 C 0.76122 0.74718 0.89722 0.0
C1919 C 0.83667 0.72532 0.86251 0.0
H1920 H 0.8073 0.70415 0.95401 0.0
H1921 H 0.76628 0.65694 0.8937 0.0
H1922 H 0.83564 0.75031 0.91691 0.0
H1923 H 0.81159 0.75661 0.93416 0.0
H1924 H 0.83423 0.7407 0.94714 0.0
H1925 H 0.76542 0.66779 0.85342 0.0
H1926 H 0.75681 0.69757 0.85669 0.0
H1927 H 0.7855 0.69455 0.8465 0.0
H1928 H 0.76162 0.77467 0.85978 0.0
H1929 H 0.8243 0.75527 0.82943 0.0
H1930 H 0.77021 0.74878 0.9161 0.0
H1931 H 0.74981 0.72868 0.8935 0.0
H1932 H 0.74915 0.76106 0.89608 0.0
H1933 H 0.84588 0.72624 0.88124 0.0
H1934 H 0.85022 0.73242 0.85032 0.0
H1935 H 0.82957 0.70572 0.85635 0.0
C1936 C 0.86697 0.12298 0.99023 0.0
C1937 C 0.85622 0.12212 0.01204 0.0
C1938 C 0.88559 0.10952 0.98589 0.0
C1939 C 0.89377 0.09519 0.0039 0.0
C1940 C 0.88388 0.09547 0.02644 0.0
C1941 C 0.86518 0.10874 0.03014 0.0
C1942 C 0.89568 0.1097 0.96163 0.0
C1943 C 0.89227 0.08089 0.04638 0.0
C1944 C 0.92089 0.03793 0.99002 0.0
C1945 C 0.94569 0.04651 0.99694 0.0
C1946 C 0.90395 0.05391 0.99069 0.0
C1947 C 0.9119 0.07901 -0.00085 0.0
C1948 C 0.93697 0.08785 0.00571 0.0
C1949 C 0.95347 0.07151 0.00439 0.0
C1950 C 0.8774 0.04369 0.98334 0.0
C1951 C 0.94624 0.11424 0.01558 0.0
H1952 H 0.86002 0.13312 0.9761 0.0
H1953 H 0.85709 0.10812 0.04713 0.0
H1954 H 0.9158 0.11429 0.96431 0.0
H1955 H 0.89075 0.09113 0.95161 0.0
H1956 H 0.88866 0.12302 0.95021 0.0
H1957 H 0.88533 0.08584 0.0639 0.0
H1958 H 0.88571 0.06106 0.04097 0.0
H1959 H 0.91238 0.08379 0.04931 0.0
H1960 H 0.91468 0.01856 0.98446 0.0
H1961 H 0.97219 0.07824 0.01077 0.0
H1962 H 0.86941 0.0553 0.97059 0.0
H1963 H 0.86743 0.04386 -0.00033 0.0
H1964 H 0.87449 0.02459 0.97454 0.0
H1965 H 0.94018 0.1267 0.0026 0.0
H1966 H 0.96637 0.11843 0.01907 0.0
H1967 H 0.9386 0.11827 0.0329 0.0
C1968 C 0.32466 0.42716 0.05723 0.0
C1969 C 0.3117 0.446 0.0626 0.0
C1970 C 0.34977 0.43253 0.05593 0.0
C1971 C 0.36191 0.45717 0.06059 0.0
C1972 C 0.34937 0.47553 0.06946 0.0
C1973 C 0.32424 0.46978 0.06998 0.0
C1974 C 0.36255 0.41243 0.04656 0.0
C1975 C 0.36189 0.50184 0.07552 0.0
C1976 C 0.42936 0.47585 0.05617 0.0
C1977 C 0.42897 0.48401 0.03288 0.0
C1978 C 0.40772 0.46633 0.06541 0.0
C1979 C 0.38535 0.46476 0.05084 0.0
C1980 C 0.38503 0.47203 0.02693 0.0
C1981 C 0.40683 0.48174 0.01834 0.0
C1982 C 0.4088 0.45897 0.09102 0.0
C1983 C 0.36156 0.47011 0.01055 0.0
H1984 H 0.31488 0.40875 0.0515 0.0
H1985 H 0.31413 0.48426 0.0744 0.0
H1986 H 0.36421 0.41361 0.02689 0.0
H1987 H 0.38117 0.41445 0.05605 0.0
H1988 H 0.35235 0.39398 0.04877 0.0
H1989 H 0.35106 0.51264 0.08652 0.0
H1990 H 0.38007 0.50286 0.08567 0.0
H1991 H 0.36449 0.51046 0.05839 0.0
H1992 H 0.44651 0.47748 0.06744 0.0
H1993 H 0.4065 0.48756 0.00015 0.0
H1994 H 0.39576 0.44189 0.09216 0.0
H1995 H 0.40373 0.47364 0.10328 0.0
H1996 H 0.42731 0.45625 0.09781 0.0
H1997 H 0.35102 0.45122 0.00916 0.0
H1998 H 0.36467 0.47487 0.9919 0.0
H1999 H 0.35026 0.48268 0.0184 0.0
C2000 C 0.31835 0.64504 0.73943 0.0
C2001 C 0.30821 0.62019 0.73929 0.0
C2002 C 0.30439 0.66348 0.74311 0.0
C2003 C 0.27974 0.65697 0.74716 0.0
C2004 C 0.26943 0.63192 0.74727 0.0
C2005 C 0.28373 0.61381 0.74311 0.0
C2006 C 0.31596 0.68993 0.74242 0.0
C2007 C 0.24332 0.62429 0.75185 0.0
C2008 C 0.25156 0.70802 0.77687 0.0
C2009 C 0.23967 0.71619 0.75661 0.0
C2010 C 0.2642 0.68835 0.7742 0.0
C2011 C 0.2647 0.67643 0.75069 0.0
C2012 C 0.25178 0.68399 0.73032 0.0
C2013 C 0.23939 0.70376 0.73353 0.0
C2014 C 0.27769 0.68089 0.79642 0.0
C2015 C 0.252 0.67198 0.70496 0.0
H2016 H 0.33724 0.65012 0.7364 0.0
H2017 H 0.27582 0.59466 0.74321 0.0
H2018 H 0.30608 0.69793 0.72771 0.0
H2019 H 0.31461 0.70076 0.7598 0.0
H2020 H 0.33538 0.69198 0.73924 0.0
H2021 H 0.23819 0.60412 0.75193 0.0
H2022 H 0.24022 0.63328 0.76962 0.0
H2023 H 0.23109 0.6304 0.73762 0.0
H2024 H 0.25127 0.71729 0.79477 0.0
H2025 H 0.23031 0.71011 0.71778 0.0
H2026 H 0.29752 0.68508 0.7952 0.0
H2027 H 0.27275 0.66084 0.79731 0.0
H2028 H 0.27385 0.69062 0.81356 0.0
H2029 H 0.27065 0.67601 0.69953 0.0
H2030 H 0.23935 0.67856 0.69144 0.0
H2031 H 0.24693 0.65179 0.70443 0.0
C2032 C 0.2125 0.60666 0.48457 0.0
C2033 C 0.21685 0.63212 0.49065 0.0
C2034 C 0.18953 0.59259 0.4856 0.0
C2035 C 0.17051 0.60428 0.49295 0.0
C2036 C 0.17455 0.63008 0.49827 0.0
C2037 C 0.19769 0.64371 0.49699 0.0
C2038 C 0.18583 0.56513 0.47961 0.0
C2039 C 0.15467 0.64317 0.50615 0.0
C2040 C 0.10525 0.57086 0.48102 0.0
C2041 C 0.1014 0.56269 0.50379 0.0
C2042 C 0.1278 0.58414 0.47706 0.0
C2043 C 0.14679 0.58943 0.49642 0.0
C2044 C 0.14305 0.58086 0.51935 0.0
C2045 C 0.12036 0.5675 0.52273 0.0
C2046 C 0.1312 0.59281 0.45233 0.0
C2047 C 0.16289 0.58615 0.54042 0.0
H2048 H 0.22722 0.5976 0.47952 0.0
H2049 H 0.20092 0.66339 0.50164 0.0
H2050 H 0.18209 0.55592 0.49619 0.0
H2051 H 0.16985 0.55887 0.46586 0.0
H2052 H 0.20195 0.55909 0.47253 0.0
H2053 H 0.16037 0.66342 0.50831 0.0
H2054 H 0.13831 0.63832 0.49266 0.0
H2055 H 0.14934 0.63722 0.52378 0.0
H2056 H 0.09056 0.56702 0.46633 0.0
H2057 H 0.11734 0.56116 0.54034 0.0
H2058 H 0.14707 0.58634 0.4452 0.0
H2059 H 0.13501 0.61314 0.45388 0.0
H2060 H 0.11495 0.58621 0.43893 0.0
H2061 H 0.1792 0.57904 0.53526 0.0
H2062 H 0.15715 0.57781 0.55693 0.0
H2063 H 0.1683 0.60625 0.54502 0.0
C2064 C 0.65626 0.89755 0.7661 0.0
C2065 C 0.66409 0.92245 0.77433 0.0
C2066 C 0.67254 0.88082 0.76679 0.0
C2067 C 0.69712 0.88906 0.77633 0.0
C2068 C 0.70492 0.91402 0.78529 0.0
C2069 C 0.6884 0.9304 0.78401 0.0
C2070 C 0.66361 0.85448 0.75662 0.0
C2071 C 0.73096 0.92362 0.7955 0.0
C2072 C 0.73668 0.84267 0.79504 0.0
C2073 C 0.74976 0.8404 0.77493 0.0
C2074 C 0.71929 0.85819 0.79566 0.0
C2075 C 0.71507 0.87197 0.77578 0.0
C2076 C 0.72849 0.86989 0.75553 0.0
C2077 C 0.74556 0.85407 0.75533 0.0
C2078 C 0.7056 0.86003 0.81769 0.0
C2079 C 0.72462 0.88391 0.73374 0.0
H2080 H 0.63756 0.89126 0.75847 0.0
H2081 H 0.69462 0.94957 0.79048 0.0
H2082 H 0.67322 0.85015 0.74065 0.0
H2083 H 0.66778 0.84197 0.77039 0.0
H2084 H 0.64376 0.85066 0.75087 0.0
H2085 H 0.73382 0.94313 0.80313 0.0
H2086 H 0.7366 0.9125 0.81002 0.0
H2087 H 0.743 0.92196 0.78091 0.0
H2088 H 0.74019 0.83244 0.8104 0.0
H2089 H 0.75546 0.85221 0.7396 0.0
H2090 H 0.68576 0.85551 0.8121 0.0
H2091 H 0.70958 0.87913 0.82653 0.0
H2092 H 0.71042 0.84756 0.83129 0.0
H2093 H 0.70851 0.87396 0.72164 0.0
H2094 H 0.74053 0.88565 0.72318 0.0
H2095 H 0.72123 0.90259 0.73912 0.0
C2096 C 0.68524 0.9635 0.50548 0.0
C2097 C 0.67816 0.95001 0.52462 0.0
C2098 C 0.66919 0.97628 0.49321 0.0
C2099 C 0.6459 0.97604 0.50091 0.0
C2100 C 0.63875 0.96243 0.52035 0.0
C2101 C 0.65489 0.94914 0.53169 0.0
C2102 C 0.67704 0.98986 0.47202 0.0
C2103 C 0.61417 0.96212 0.5294 0.0
C2104 C 0.60937 0.02613 0.49445 0.0
C2105 C 0.58887 0.01325 0.47969 0.0
C2106 C 0.62947 0.01496 0.49987 0.0
C2107 C 0.62912 0.99074 0.48958 0.0
C2108 C 0.61003 0.97923 0.47175 0.0
C2109 C 0.58984 0.99058 0.46717 0.0
C2110 C 0.6494 0.02783 0.51909 0.0
C2111 C 0.60972 0.95389 0.4595 0.0
H2112 H 0.7031 0.96356 0.49968 0.0
H2113 H 0.64955 0.93847 0.5464 0.0
H2114 H 0.66395 0.98337 0.4556 0.0
H2115 H 0.67707 0.00973 0.47605 0.0
H2116 H 0.69545 0.98737 0.46776 0.0
H2117 H 0.61198 0.95162 0.54548 0.0
H2118 H 0.61143 0.98113 0.53443 0.0
H2119 H 0.59966 0.95375 0.51472 0.0
H2120 H 0.6087 0.04383 0.50391 0.0
H2121 H 0.57405 0.98079 0.45545 0.0
H2122 H 0.66753 0.02537 0.51406 0.0
H2123 H 0.64696 0.01974 0.53652 0.0
H2124 H 0.6491 0.04777 0.52216 0.0
H2125 H 0.62794 0.952 0.45429 0.0
H2126 H 0.59632 0.94963 0.443 0.0
H2127 H 0.60481 0.94011 0.47237 0.0
C2128 C 0.34986 0.45854 0.73722 0.0
C2129 C 0.33669 0.47774 0.73488 0.0
C2130 C 0.33828 0.43474 0.74018 0.0
C2131 C 0.3128 0.4298 0.74062 0.0
C2132 C 0.2993 0.44898 0.73802 0.0
C2133 C 0.31141 0.47274 0.73531 0.0
C2134 C 0.35341 0.4149 0.74308 0.0
C2135 C 0.27208 0.44439 0.73818 0.0
C2136 C 0.28278 0.36271 0.72738 0.0
C2137 C 0.28022 0.35572 0.75088 0.0
C2138 C 0.29268 0.3869 0.72373 0.0
C2139 C 0.30046 0.40456 0.74407 0.0
C2140 C 0.2976 0.39774 0.76781 0.0
C2141 C 0.28744 0.37347 0.77092 0.0
C2142 C 0.29523 0.39346 0.69811 0.0
C2143 C 0.30587 0.41592 0.79 0.0
H2144 H 0.3694 0.46214 0.73703 0.0
H2145 H 0.30103 0.48738 0.73346 0.0
H2146 H 0.3511 0.40729 0.76075 0.0
H2147 H 0.34717 0.39961 0.72852 0.0
H2148 H 0.37304 0.42173 0.74235 0.0
H2149 H 0.26415 0.4611 0.73543 0.0
H2150 H 0.26357 0.42975 0.72361 0.0
H2151 H 0.2673 0.43787 0.75576 0.0
H2152 H 0.27716 0.34922 0.71174 0.0
H2153 H 0.28563 0.36833 0.78917 0.0
H2154 H 0.31472 0.39869 0.69571 0.0
H2155 H 0.28649 0.40953 0.69475 0.0
H2156 H 0.28698 0.37805 0.68419 0.0
H2157 H 0.32579 0.4222 0.79121 0.0
H2158 H 0.30149 0.40801 0.80713 0.0
H2159 H 0.2972 0.43233 0.78847 0.0
C2160 C 0.173 0.56472 0.28124 0.0
C2161 C 0.14917 0.56385 0.27051 0.0
C2162 C 0.19018 0.58653 0.2835 0.0
C2163 C 0.18336 0.60788 0.27476 0.0
C2164 C 0.15933 0.60712 0.26405 0.0
C2165 C 0.14258 0.58518 0.26209 0.0
C2166 C 0.21562 0.58672 0.29509 0.0
C2167 C 0.1513 0.62948 0.25446 0.0
C2168 C 0.21582 0.67274 0.29523 0.0
C2169 C 0.2276 0.67862 0.27479 0.0
C2170 C 0.20263 0.64914 0.29626 0.0
C2171 C 0.20117 0.63112 0.2763 0.0
C2172 C 0.21441 0.63657 0.25634 0.0
C2173 C 0.22752 0.6603 0.25585 0.0
C2174 C 0.18897 0.64402 0.31796 0.0
C2175 C 0.21339 0.61787 0.23473 0.0
H2176 H 0.17827 0.54836 0.28784 0.0
H2177 H 0.12426 0.58478 0.25377 0.0
H2178 H 0.22884 0.59148 0.28184 0.0
H2179 H 0.22023 0.60098 0.31082 0.0
H2180 H 0.21791 0.56874 0.30144 0.0
H2181 H 0.1319 0.62586 0.24681 0.0
H2182 H 0.15401 0.64469 0.26928 0.0
H2183 H 0.16252 0.63581 0.24002 0.0
H2184 H 0.21603 0.68688 0.30999 0.0
H2185 H 0.23674 0.6648 0.24007 0.0
H2186 H 0.1917 0.62622 0.32439 0.0
H2187 H 0.16923 0.64274 0.31259 0.0
H2188 H 0.19468 0.65864 0.33331 0.0
H2189 H 0.21653 0.60005 0.24082 0.0
H2190 H 0.22699 0.62392 0.2222 0.0
H2191 H 0.19505 0.61475 0.22443 0.0
C2192 C 0.51839 0.70057 0.41384 0.0
C2193 C 0.53054 0.7244 0.42192 0.0
C2194 C 0.51926 0.68135 0.42858 0.0
C2195 C 0.53284 0.68603 0.45185 0.0
C2196 C 0.54513 0.71005 0.46013 0.0
C2197 C 0.54373 0.72899 0.44511 0.0
C2198 C 0.50566 0.65601 0.41924 0.0
C2199 C 0.55995 0.71567 0.48473 0.0
C2200 C 0.51594 0.63948 0.49633 0.0
C2201 C 0.53271 0.62381 0.49294 0.0
C2202 C 0.51626 0.66029 0.48366 0.0
C2203 C 0.53399 0.66569 0.46746 0.0
C2204 C 0.55181 0.65065 0.46502 0.0
C2205 C 0.55087 0.62975 0.47772 0.0
C2206 C 0.49683 0.67574 0.48663 0.0
C2207 C 0.57118 0.65599 0.44816 0.0
H2208 H 0.50813 0.69692 0.39597 0.0
H2209 H 0.55327 0.74735 0.45142 0.0
H2210 H 0.51852 0.64294 0.41825 0.0
H2211 H 0.4925 0.64948 0.432 0.0
H2212 H 0.49563 0.65552 0.4009 0.0
H2213 H 0.56849 0.73531 0.48845 0.0
H2214 H 0.54829 0.71083 0.49928 0.0
H2215 H 0.57445 0.70437 0.48581 0.0
H2216 H 0.50184 0.63487 0.50806 0.0
H2217 H 0.56382 0.61761 0.47506 0.0
H2218 H 0.48498 0.67431 0.46921 0.0
H2219 H 0.50516 0.69532 0.49116 0.0
H2220 H 0.48531 0.66995 0.50107 0.0
H2221 H 0.5627 0.65327 0.42901 0.0
H2222 H 0.585 0.64393 0.45007 0.0
H2223 H 0.58046 0.67538 0.45178 0.0
C2224 C 0.58152 0.27282 0.67511 0.0
C2225 C 0.56237 0.27947 0.68709 0.0
C2226 C 0.60453 0.27366 0.68771 0.0
C2227 C 0.60874 0.28206 0.71286 0.0
C2228 C 0.5896 0.28932 0.72494 0.0
C2229 C 0.56657 0.28771 0.71197 0.0
C2230 C 0.62416 0.26584 0.67366 0.0
C2231 C 0.59345 0.29878 0.75159 0.0
C2232 C 0.66184 0.26295 0.74958 0.0
C2233 C 0.68025 0.2834 0.74961 0.0
C2234 C 0.63836 0.26249 0.73813 0.0
C2235 C 0.63306 0.28302 0.72655 0.0
C2236 C 0.65134 0.30396 0.72706 0.0
C2237 C 0.67468 0.30393 0.7386 0.0
C2238 C 0.61956 0.23953 0.73732 0.0
C2239 C 0.64654 0.32601 0.71451 0.0
H2240 H 0.57845 0.26647 0.65586 0.0
H2241 H 0.55185 0.293 0.7213 0.0
H2242 H 0.6327 0.28167 0.66467 0.0
H2243 H 0.63849 0.25947 0.68535 0.0
H2244 H 0.61635 0.25092 0.65907 0.0
H2245 H 0.57689 0.30429 0.75816 0.0
H2246 H 0.5989 0.28445 0.76263 0.0
H2247 H 0.60844 0.31483 0.75479 0.0
H2248 H 0.66593 0.24691 0.75783 0.0
H2249 H 0.68876 0.31975 0.73821 0.0
H2250 H 0.6145 0.23149 0.71815 0.0
H2251 H 0.60283 0.24399 0.74441 0.0
H2252 H 0.62619 0.22551 0.74807 0.0
H2253 H 0.64322 0.32093 0.69455 0.0
H2254 H 0.66201 0.3416 0.71827 0.0
H2255 H 0.63 0.33214 0.7204 0.0
C2256 C 0.01196 0.37085 0.92732 0.0
C2257 C 0.02396 0.37485 0.90656 0.0
C2258 C 0.00661 0.39049 0.94216 0.0
C2259 C 0.0137 0.41474 0.93628 0.0
C2260 C 0.02665 0.41899 0.91591 0.0
C2261 C 0.03145 0.39897 0.90116 0.0
C2262 C 0.99282 0.38526 0.96377 0.0
C2263 C 0.03517 0.44468 0.90958 0.0
C2264 C 0.97805 0.46276 0.95882 0.0
C2265 C 0.99322 0.47436 0.97942 0.0
C2266 C 0.9846 0.44341 0.94451 0.0
C2267 C 0.00687 0.43559 0.951 0.0
C2268 C 0.0223 0.44739 0.97176 0.0
C2269 C 0.01517 0.46652 0.98585 0.0
C2270 C 0.96764 0.43122 0.92253 0.0
C2271 C 0.0461 0.43959 0.97948 0.0
H2272 H 0.00608 0.35228 0.93163 0.0
H2273 H 0.04095 0.40223 0.88529 0.0
H2274 H 0.00331 0.39518 0.98065 0.0
H2275 H 0.97531 0.39199 0.96153 0.0
H2276 H 0.989 0.36538 0.96613 0.0
H2277 H 0.04594 0.44493 0.89378 0.0
H2278 H 0.0193 0.45365 0.90524 0.0
H2279 H 0.04647 0.45579 0.92544 0.0
H2280 H 0.96106 0.46884 0.95387 0.0
H2281 H 0.02676 0.47525 0.00202 0.0
H2282 H 0.9621 0.41143 0.92448 0.0
H2283 H 0.9771 0.43262 0.9059 0.0
H2284 H 0.95104 0.43954 0.91994 0.0
H2285 H 0.04253 0.42252 0.98855 0.0
H2286 H 0.05809 0.45382 0.99245 0.0
H2287 H 0.05582 0.43567 0.96352 0.0
C2288 C 0.92186 0.75395 0.22537 0.0
C2289 C 0.92902 0.76449 0.20448 0.0
C2290 C 0.89944 0.75616 0.23362 0.0
C2291 C 0.88374 0.7692 0.22067 0.0
C2292 C 0.89042 0.77917 0.19912 0.0
C2293 C 0.91302 0.77672 0.19127 0.0
C2294 C 0.89292 0.74521 0.25667 0.0
C2295 C 0.87404 0.79307 0.18478 0.0
C2296 C 0.81857 0.76032 0.23584 0.0
C2297 C 0.81928 0.78082 0.25256 0.0
C2298 C 0.83923 0.75664 0.22465 0.0
C2299 C 0.86112 0.77371 0.23069 0.0
C2300 C 0.86181 0.79455 0.24743 0.0
C2301 C 0.84084 0.79785 0.25816 0.0
C2302 C 0.83776 0.73429 0.20677 0.0
C2303 C 0.88482 0.81314 0.25436 0.0
H2304 H 0.934 0.74433 0.23564 0.0
H2305 H 0.91832 0.78483 0.17506 0.0
H2306 H 0.89162 0.76005 0.2709 0.0
H2307 H 0.8749 0.73307 0.25333 0.0
H2308 H 0.90651 0.73445 0.26383 0.0
H2309 H 0.88103 0.79807 0.16745 0.0
H2310 H 0.85555 0.78198 0.18056 0.0
H2311 H 0.87231 0.81013 0.19585 0.0
H2312 H 0.802 0.74692 0.23186 0.0
H2313 H 0.84135 0.81374 0.27106 0.0
H2314 H 0.84999 0.72223 0.21402 0.0
H2315 H 0.84398 0.7398 0.18932 0.0
H2316 H 0.81903 0.72357 0.20304 0.0
H2317 H 0.89906 0.80424 0.26333 0.0
H2318 H 0.88204 0.82882 0.26691 0.0
H2319 H 0.89177 0.82033 0.23782 0.0
C2320 C 0.4755 0.36581 0.07095 0.0
C2321 C 0.47906 0.34343 0.05953 0.0
C2322 C 0.47454 0.3861 0.05774 0.0
C2323 C 0.47712 0.3838 0.03257 0.0
C2324 C 0.4794 0.36092 0.02069 0.0
C2325 C 0.48038 0.34097 0.03435 0.0
C2326 C 0.47196 0.41027 0.07095 0.0
C2327 C 0.48194 0.35783 0.99379 0.0
C2328 C 0.45988 0.43355 0.99542 0.0
C2329 C 0.48254 0.4484 0.99498 0.0
C2330 C 0.45781 0.41225 0.00741 0.0
C2331 C 0.47897 0.40571 0.019 0.0
C2332 C 0.50199 0.42034 0.01802 0.0
C2333 C 0.50349 0.44154 0.00587 0.0
C2334 C 0.43296 0.39721 0.00829 0.0
C2335 C 0.52494 0.41396 0.03032 0.0
H2336 H 0.47443 0.3678 0.09041 0.0
H2337 H 0.48302 0.32367 0.02542 0.0
H2338 H 0.48895 0.42373 0.07102 0.0
H2339 H 0.45708 0.41789 0.06142 0.0
H2340 H 0.46821 0.40848 0.09009 0.0
H2341 H 0.4817 0.33842 0.98699 0.0
H2342 H 0.46705 0.36458 0.98328 0.0
H2343 H 0.49929 0.36896 0.99015 0.0
H2344 H 0.44362 0.43901 0.98711 0.0
H2345 H 0.52099 0.45293 0.00512 0.0
H2346 H 0.42853 0.39766 0.02738 0.0
H2347 H 0.43275 0.37777 0.00172 0.0
H2348 H 0.41852 0.40407 0.99714 0.0
H2349 H 0.54144 0.42684 0.02712 0.0
H2350 H 0.52685 0.3951 0.02361 0.0
H2351 H 0.52396 0.41439 0.05024 0.0
C2352 C 0.95342 0.2507 0.34359 0.0
C2353 C 0.95748 0.25365 0.36905 0.0
C2354 C 0.93019 0.24979 0.33162 0.0
C2355 C 0.91082 0.25259 0.34553 0.0
C2356 C 0.91455 0.2542 0.37126 0.0
C2357 C 0.9379 0.25443 0.38277 0.0
C2358 C 0.92673 0.2474 0.30413 0.0
C2359 C 0.89437 0.25758 0.38667 0.0
C2360 C 0.86464 0.28689 0.31718 0.0
C2361 C 0.84475 0.26808 0.31028 0.0
C2362 C 0.88614 0.28201 0.32898 0.0
C2363 C 0.88788 0.25761 0.33334 0.0
C2364 C 0.86796 0.23841 0.3259 0.0
C2365 C 0.84638 0.24397 0.3147 0.0
C2366 C 0.9069 0.30305 0.33695 0.0
C2367 C 0.86947 0.21212 0.3297 0.0
H2368 H 0.96854 0.24964 0.33299 0.0
H2369 H 0.94108 0.25665 0.40248 0.0
H2370 H 0.91005 0.23406 0.29709 0.0
H2371 H 0.9245 0.26536 0.29775 0.0
H2372 H 0.94245 0.24144 0.29614 0.0
H2373 H 0.89946 0.25559 0.40616 0.0
H2374 H 0.88992 0.27616 0.38526 0.0
H2375 H 0.87768 0.24413 0.38002 0.0
H2376 H 0.86322 0.30556 0.31384 0.0
H2377 H 0.83089 0.22949 0.30922 0.0
H2378 H 0.92296 0.30025 0.32759 0.0
H2379 H 0.91225 0.30375 0.35681 0.0
H2380 H 0.9022 0.32103 0.33292 0.0
H2381 H 0.88516 0.20668 0.32127 0.0
H2382 H 0.85272 0.19926 0.32179 0.0
H2383 H 0.87251 0.21018 0.34944 0.0
C2384 C 0.99054 0.70481 0.55532 0.0
C2385 C 0.00376 0.7071 0.57845 0.0
C2386 C 0.98659 0.6827 0.54015 0.0
C2387 C 0.99598 0.66242 0.54836 0.0
C2388 C 0.00912 0.66452 0.57175 0.0
C2389 C 0.01293 0.68685 0.58646 0.0
C2390 C 0.9725 0.68106 0.51532 0.0
C2391 C 0.01932 0.6432 0.58119 0.0
C2392 C 0.97245 0.59632 0.52425 0.0
C2393 C 0.99179 0.59083 0.5118 0.0
C2394 C 0.97264 0.62014 0.53486 0.0
C2395 C 0.99247 0.63888 0.53263 0.0
C2396 C 0.01072 0.63397 0.51796 0.0
C2397 C 0.0102 0.60994 0.50776 0.0
C2398 C 0.95286 0.62459 0.55043 0.0
C2399 C 0.03196 0.65357 0.51482 0.0
H2400 H 0.98339 0.72037 0.54895 0.0
H2401 H 0.02308 0.6884 0.6043 0.0
H2402 H 0.98399 0.67644 0.50102 0.0
H2403 H 0.95646 0.66614 0.51366 0.0
H2404 H 0.96619 0.69846 0.51174 0.0
H2405 H 0.02794 0.64742 0.60028 0.0
H2406 H 0.00471 0.62694 0.58027 0.0
H2407 H 0.0331 0.63813 0.56957 0.0
H2408 H 0.95814 0.58168 0.5275 0.0
H2409 H 0.02507 0.60586 0.49792 0.0
H2410 H 0.94693 0.64222 0.54726 0.0
H2411 H 0.96 0.6257 0.56992 0.0
H2412 H 0.93681 0.60961 0.54687 0.0
H2413 H 0.02572 0.67085 0.51081 0.0
H2414 H 0.04243 0.64785 0.49998 0.0
H2415 H 0.04436 0.65752 0.53201 0.0
C2416 C 0.57243 0.75609 0.85549 0.0
C2417 C 0.57823 0.75362 0.88022 0.0
C2418 C 0.59042 0.75876 0.83969 0.0
C2419 C 0.61472 0.75876 0.84886 0.0
C2420 C 0.62071 0.75595 0.87373 0.0
C2421 C 0.60232 0.75349 0.88921 0.0
C2422 C 0.58346 0.76185 0.81328 0.0
C2423 C 0.64653 0.7557 0.88397 0.0
C2424 C 0.65935 0.7442 0.80537 0.0
C2425 C 0.67267 0.76755 0.80394 0.0
C2426 C 0.64004 0.74108 0.81964 0.0
C2427 C 0.63394 0.76188 0.83243 0.0
C2428 C 0.64659 0.78563 0.83001 0.0
C2429 C 0.66596 0.78817 0.81579 0.0
C2430 C 0.62686 0.71549 0.82185 0.0
C2431 C 0.64027 0.80825 0.84311 0.0
H2432 H 0.55379 0.75624 0.84844 0.0
H2433 H 0.6068 0.75151 0.9083 0.0
H2434 H 0.59325 0.77961 0.80866 0.0
H2435 H 0.58893 0.74718 0.80135 0.0
H2436 H 0.56365 0.76129 0.80906 0.0
H2437 H 0.64804 0.75286 0.90362 0.0
H2438 H 0.6537 0.7409 0.87386 0.0
H2439 H 0.65826 0.7733 0.88163 0.0
H2440 H 0.66469 0.72826 0.79621 0.0
H2441 H 0.67632 0.80623 0.81455 0.0
H2442 H 0.60702 0.71431 0.8173 0.0
H2443 H 0.62984 0.7111 0.84093 0.0
H2444 H 0.63309 0.70141 0.80976 0.0
H2445 H 0.62066 0.8087 0.83894 0.0
H2446 H 0.65093 0.82542 0.83805 0.0
H2447 H 0.64382 0.80775 0.86306 0.0
C2448 C 0.41884 0.56997 0.6706 0.0
C2449 C 0.39343 0.5636 0.66649 0.0
C2450 C 0.43348 0.56589 0.65209 0.0
C2451 C 0.42251 0.55532 0.62876 0.0
C2452 C 0.39685 0.54938 0.62426 0.0
C2453 C 0.3826 0.55348 0.64323 0.0
C2454 C 0.46075 0.57246 0.65766 0.0
C2455 C 0.38438 0.53798 0.59968 0.0
C2456 C 0.46075 0.56395 0.57612 0.0
C2457 C 0.4685 0.54126 0.573 0.0
C2458 C 0.44549 0.56862 0.59392 0.0
C2459 C 0.43805 0.55031 0.60925 0.0
C2460 C 0.44592 0.52744 0.60632 0.0
C2461 C 0.46093 0.52313 0.58813 0.0
C2462 C 0.43716 0.59307 0.59619 0.0
C2463 C 0.43843 0.50749 0.62236 0.0
H2464 H 0.4274 0.5778 0.6885 0.0
H2465 H 0.36301 0.54842 0.63992 0.0
H2466 H 0.46898 0.55579 0.65472 0.0
H2467 H 0.46824 0.58557 0.64511 0.0
H2468 H 0.46643 0.58077 0.67668 0.0
H2469 H 0.36492 0.53975 0.59746 0.0
H2470 H 0.3934 0.54644 0.58474 0.0
H2471 H 0.38548 0.51819 0.59774 0.0
H2472 H 0.46608 0.57792 0.56421 0.0
H2473 H 0.46672 0.50552 0.58574 0.0
H2474 H 0.44445 0.60313 0.6142 0.0
H2475 H 0.41705 0.5903 0.59517 0.0
H2476 H 0.44315 0.60467 0.58176 0.0
H2477 H 0.44424 0.51433 0.64175 0.0
H2478 H 0.44633 0.49085 0.61795 0.0
H2479 H 0.41835 0.50227 0.62031 0.0
C2480 C 0.78613 0.23781 0.93912 0.0
C2481 C 0.79395 0.2151 0.93781 0.0
C2482 C 0.78133 0.24939 0.91801 0.0
C2483 C 0.78466 0.23816 0.89496 0.0
C2484 C 0.79318 0.21556 0.89358 0.0
C2485 C 0.79758 0.20425 0.91496 0.0
C2486 C 0.77222 0.27343 0.92033 0.0
C2487 C 0.79735 0.20315 0.86945 0.0
C2488 C 0.75062 0.25731 0.83877 0.0
C2489 C 0.76839 0.27505 0.83129 0.0
C2490 C 0.75573 0.24487 0.85925 0.0
C2491 C 0.77925 0.25018 0.87239 0.0
C2492 C 0.79741 0.26763 0.8644 0.0
C2493 C 0.79169 0.27999 0.84412 0.0
C2494 C 0.73583 0.22641 0.8671 0.0
C2495 C 0.82286 0.27346 0.87738 0.0
H2496 H 0.78311 0.24629 0.95662 0.0
H2497 H 0.8036 0.1867 0.91373 0.0
H2498 H 0.78471 0.28776 0.91273 0.0
H2499 H 0.75416 0.27149 0.90963 0.0
H2500 H 0.77057 0.27979 0.93953 0.0
H2501 H 0.80483 0.18608 0.87153 0.0
H2502 H 0.78 0.19852 0.85735 0.0
H2503 H 0.8101 0.21578 0.86021 0.0
H2504 H 0.73256 0.2536 0.82897 0.0
H2505 H 0.80559 0.29349 0.8382 0.0
H2506 H 0.73192 0.23253 0.88565 0.0
H2507 H 0.74179 0.20844 0.868 0.0
H2508 H 0.71879 0.22381 0.85453 0.0
H2509 H 0.82248 0.28174 0.89622 0.0
H2510 H 0.83525 0.28634 0.86798 0.0
H2511 H 0.83047 0.25639 0.87874 0.0
C2512 C 0.05662 0.46922 0.18601 0.0
C2513 C 0.08045 0.48087 0.19425 0.0
C2514 C 0.04496 0.47399 0.16378 0.0
C2515 C 0.05716 0.49138 0.14982 0.0
C2516 C 0.08122 0.50322 0.15812 0.0
C2517 C 0.09267 0.49758 0.18003 0.0
C2518 C 0.01959 0.46045 0.15523 0.0
C2519 C 0.09472 0.52225 0.14408 0.0
C2520 C 0.03886 0.49178 0.08211 0.0
C2521 C 0.02492 0.51048 0.08183 0.0
C2522 C 0.04863 0.48473 0.10412 0.0
C2523 C 0.04496 0.49715 0.12644 0.0
C2524 C 0.03062 0.51586 0.12627 0.0
C2525 C 0.02048 0.52207 0.10394 0.0
C2526 C 0.06327 0.46429 0.10345 0.0
C2527 C 0.02678 0.52996 0.14962 0.0
H2528 H 0.04713 0.45628 0.19694 0.0
H2529 H 0.11099 0.50688 0.18643 0.0
H2530 H 0.00687 0.47364 0.15378 0.0
H2531 H 0.01913 0.45079 0.13681 0.0
H2532 H 0.01296 0.44683 0.16772 0.0
H2533 H 0.11305 0.53031 0.15336 0.0
H2534 H 0.09675 0.51396 0.12567 0.0
H2535 H 0.08419 0.53724 0.14164 0.0
H2536 H 0.04218 0.48263 0.06503 0.0
H2537 H 0.00991 0.53669 0.10375 0.0
H2538 H 0.05626 0.45027 0.11535 0.0
H2539 H 0.08245 0.47164 0.11054 0.0
H2540 H 0.06283 0.45524 0.08474 0.0
H2541 H 0.01875 0.5172 0.16221 0.0
H2542 H 0.01471 0.54356 0.14643 0.0
H2543 H 0.04453 0.53978 0.15888 0.0
C2544 C 0.73344 0.85604 0.46434 0.0
C2545 C 0.74087 0.88148 0.46489 0.0
C2546 C 0.73416 0.84045 0.44331 0.0
C2547 C 0.74276 0.85057 0.42256 0.0
C2548 C 0.75055 0.87618 0.4231 0.0
C2549 C 0.74938 0.89135 0.44423 0.0
C2550 C 0.72542 0.81323 0.44317 0.0
C2551 C 0.76002 0.8876 0.40131 0.0
C2552 C 0.76624 0.81341 0.37276 0.0
C2553 C 0.74731 0.81139 0.35401 0.0
C2554 C 0.76455 0.82513 0.39575 0.0
C2555 C 0.7433 0.83464 0.39995 0.0
C2556 C 0.72352 0.83116 0.38148 0.0
C2557 C 0.72591 0.81982 0.35858 0.0
C2558 C 0.78605 0.82865 0.415 0.0
C2559 C 0.7004 0.8407 0.3854 0.0
H2560 H 0.72673 0.84832 0.48023 0.0
H2561 H 0.75529 0.91096 0.44458 0.0
H2562 H 0.7099 0.80707 0.42887 0.0
H2563 H 0.74004 0.80303 0.43866 0.0
H2564 H 0.71959 0.80824 0.46096 0.0
H2565 H 0.76604 0.90775 0.40499 0.0
H2566 H 0.77556 0.87929 0.3958 0.0
H2567 H 0.74565 0.88389 0.38564 0.0
H2568 H 0.78281 0.80688 0.36915 0.0
H2569 H 0.71135 0.81838 0.34398 0.0
H2570 H 0.78017 0.82312 0.43257 0.0
H2571 H 0.79439 0.84836 0.41802 0.0
H2572 H 0.80012 0.81799 0.40974 0.0
H2573 H 0.69423 0.83611 0.40314 0.0
H2574 H 0.68552 0.8331 0.37075 0.0
H2575 H 0.70382 0.86097 0.38575 0.0
C2576 C 0.43056 0.57926 0.81657 0.0
C2577 C 0.40598 0.57359 0.80735 0.0
C2578 C 0.43778 0.57883 0.84137 0.0
C2579 C 0.41999 0.57203 0.85714 0.0
C2580 C 0.39504 0.56888 0.84839 0.0
C2581 C 0.38829 0.56987 0.8235 0.0
C2582 C 0.46456 0.583 0.85009 0.0
C2583 C 0.37552 0.56177 0.86466 0.0
C2584 C 0.4402 0.52943 0.9013 0.0
C2585 C 0.44618 0.54487 0.923 0.0
C2586 C 0.43068 0.53793 0.88009 0.0
C2587 C 0.42749 0.56269 0.88048 0.0
C2588 C 0.43294 0.57828 0.90255 0.0
C2589 C 0.442 0.56904 0.92374 0.0
C2590 C 0.42477 0.52051 0.85705 0.0
C2591 C 0.43016 0.60486 0.90361 0.0
H2592 H 0.44426 0.58265 0.80415 0.0
H2593 H 0.36925 0.56564 0.81645 0.0
H2594 H 0.46845 0.5938 0.86818 0.0
H2595 H 0.47031 0.56504 0.852 0.0
H2596 H 0.47567 0.59268 0.83712 0.0
H2597 H 0.35755 0.56501 0.85675 0.0
H2598 H 0.374 0.54197 0.86705 0.0
H2599 H 0.38012 0.5721 0.88296 0.0
H2600 H 0.4432 0.51064 0.90081 0.0
H2601 H 0.44644 0.58087 0.94065 0.0
H2602 H 0.43704 0.52677 0.84341 0.0
H2603 H 0.40588 0.52028 0.84903 0.0
H2604 H 0.42677 0.50146 0.86029 0.0
H2605 H 0.41239 0.60676 0.89413 0.0
H2606 H 0.44451 0.61514 0.89413 0.0
H2607 H 0.43177 0.61346 0.92265 0.0
C2608 C 0.80394 0.22653 0.09039 0.0
C2609 C 0.7897 0.20304 0.0854 0.0
C2610 C 0.80329 0.24104 0.11243 0.0
C2611 C 0.78778 0.232 0.12965 0.0
C2612 C 0.77316 0.20849 0.12443 0.0
C2613 C 0.77442 0.19434 0.10261 0.0
C2614 C 0.81929 0.26593 0.11739 0.0
C2615 C 0.75617 0.19813 0.142 0.0
C2616 C 0.79608 0.2544 0.19733 0.0
C2617 C 0.77776 0.26865 0.19899 0.0
C2618 C 0.80052 0.24352 0.17471 0.0
C2619 C 0.78632 0.24687 0.15313 0.0
C2620 C 0.76854 0.2621 0.15459 0.0
C2621 C 0.76449 0.27277 0.17742 0.0
C2622 C 0.81961 0.22741 0.17411 0.0
C2623 C 0.75279 0.26603 0.13216 0.0
H2624 H 0.81581 0.23342 0.07727 0.0
H2625 H 0.76312 0.17635 0.09895 0.0
H2626 H 0.808 0.28028 0.12018 0.0
H2627 H 0.83161 0.2667 0.1344 0.0
H2628 H 0.83042 0.27032 0.10228 0.0
H2629 H 0.74576 0.17965 0.13514 0.0
H2630 H 0.76678 0.19679 0.15954 0.0
H2631 H 0.74314 0.21058 0.14566 0.0
H2632 H 0.8064 0.25093 0.2138 0.0
H2633 H 0.75034 0.28376 0.17837 0.0
H2634 H 0.83153 0.23219 0.15974 0.0
H2635 H 0.81071 0.20798 0.1696 0.0
H2636 H 0.83104 0.22901 0.19184 0.0
H2637 H 0.76411 0.27137 0.11749 0.0
H2638 H 0.74165 0.28036 0.1359 0.0
H2639 H 0.74039 0.24863 0.12523 0.0
C2640 C 0.05949 0.47465 0.3466 0.0
C2641 C 0.06657 0.49586 0.33525 0.0
C2642 C 0.04961 0.47607 0.369 0.0
C2643 C 0.04756 0.49929 0.38051 0.0
C2644 C 0.05598 0.52079 0.36962 0.0
C2645 C 0.06496 0.51876 0.34694 0.0
C2646 C 0.04035 0.45271 0.37978 0.0
C2647 C 0.05495 0.54595 0.38163 0.0
C2648 C -0.00065 0.50627 0.42306 0.0
C2649 C 0.01263 0.50784 0.44598 0.0
C2650 C 0.01033 0.5026 0.40164 0.0
C2651 C 0.03539 0.50126 0.40318 0.0
C2652 C 0.04892 0.50301 0.42632 0.0
C2653 C 0.03723 0.50573 0.44743 0.0
C2654 C 0.99511 0.50027 0.37734 0.0
C2655 C 0.07581 0.5025 0.42881 0.0
H2656 H 0.06059 0.45694 0.33742 0.0
H2657 H 0.07065 0.53518 0.3382 0.0
H2658 H 0.04861 0.4534 0.39885 0.0
H2659 H 0.02042 0.45073 0.38018 0.0
H2660 H 0.0443 0.43623 0.36922 0.0
H2661 H 0.06429 0.56083 0.37191 0.0
H2662 H 0.03575 0.54821 0.38207 0.0
H2663 H 0.06346 0.54809 0.40075 0.0
H2664 H 0.98024 0.50757 0.42186 0.0
H2665 H 0.04744 0.50636 0.4651 0.0
H2666 H -0.00297 0.48326 0.36629 0.0
H2667 H 0.00158 0.51593 0.36707 0.0
H2668 H 0.97556 0.49989 0.3793 0.0
H2669 H 0.07924 0.48504 0.4198 0.0
H2670 H 0.08376 0.50448 0.44815 0.0
H2671 H 0.08542 0.51759 0.41956 0.0
C2672 C 0.73296 0.87017 0.62738 0.0
C2673 C 0.72178 0.86145 0.60393 0.0
C2674 C 0.73296 0.85466 0.64595 0.0
C2675 C 0.72124 0.82991 0.64099 0.0
C2676 C 0.70883 0.82129 0.61771 0.0
C2677 C 0.70941 0.83717 0.59931 0.0
C2678 C 0.74667 0.86447 0.67051 0.0
C2679 C 0.69576 0.79513 0.612 0.0
C2680 C 0.7507 0.79053 0.68236 0.0
C2681 C 0.73646 0.79074 0.70176 0.0
C2682 C 0.74475 0.80154 0.66137 0.0
C2683 C 0.724 0.81289 0.65979 0.0
C2684 C 0.70832 0.81116 0.67831 0.0
C2685 C 0.71476 0.80009 0.69918 0.0
C2686 C 0.76191 0.80296 0.64194 0.0
C2687 C 0.68595 0.82292 0.67714 0.0
H2688 H 0.74253 0.88893 0.63105 0.0
H2689 H 0.70055 0.83043 0.58122 0.0
H2690 H 0.7355 0.85926 0.6853 0.0
H2691 H 0.76331 0.85627 0.67312 0.0
H2692 H 0.7521 0.88474 0.67235 0.0
H2693 H 0.68439 0.79223 0.59414 0.0
H2694 H 0.70921 0.78264 0.61158 0.0
H2695 H 0.68402 0.78987 0.62639 0.0
H2696 H 0.7673 0.783 0.68409 0.0
H2697 H 0.70358 0.80024 0.71407 0.0
H2698 H 0.77189 0.82204 0.6426 0.0
H2699 H 0.75173 0.79813 0.62358 0.0
H2700 H 0.77539 0.79061 0.6444 0.0
H2701 H 0.69144 0.8431 0.68098 0.0
H2702 H 0.67361 0.81637 0.69065 0.0
H2703 H 0.67582 0.81915 0.65867 0.0
C2704 C 0.62433 0.4185 0.55077 0.0
C2705 C 0.64573 0.42673 0.54056 0.0
C2706 C 0.60612 0.43304 0.55203 0.0
C2707 C 0.60912 0.45593 0.54216 0.0
C2708 C 0.63061 0.46409 0.53155 0.0
C2709 C 0.64876 0.44959 0.53124 0.0
C2710 C 0.58377 0.42402 0.56404 0.0
C2711 C 0.63425 0.48792 0.52001 0.0
C2712 C 0.55474 0.48292 0.51896 0.0
C2713 C 0.55615 0.50352 0.53582 0.0
C2714 C 0.57125 0.46675 0.52135 0.0
C2715 C 0.5894 0.4709 0.54146 0.0
C2716 C 0.59004 0.49085 0.55937 0.0
C2717 C 0.57359 0.50718 0.55616 0.0
C2718 C 0.57011 0.44611 0.50152 0.0
C2719 C 0.60864 0.49543 0.58146 0.0
H2720 H 0.62207 0.40096 0.55824 0.0
H2721 H 0.66523 0.45598 0.52321 0.0
H2722 H 0.58159 0.43785 0.57892 0.0
H2723 H 0.56734 0.42164 0.55072 0.0
H2724 H 0.58458 0.40631 0.5717 0.0
H2725 H 0.65187 0.49147 0.51226 0.0
H2726 H 0.61939 0.48757 0.50523 0.0
H2727 H 0.63352 0.50344 0.53368 0.0
H2728 H 0.54128 0.47993 0.50317 0.0
H2729 H 0.5746 0.52297 0.56932 0.0
H2730 H 0.56947 0.42837 0.50941 0.0
H2731 H 0.58676 0.44919 0.49209 0.0
H2732 H 0.55406 0.4446 0.4878 0.0
H2733 H 0.60931 0.47819 0.59005 0.0
H2734 H 0.60469 0.5095 0.59522 0.0
H2735 H 0.62691 0.50178 0.57591 0.0
C2736 C 0.16369 0.11943 0.46538 0.0
C2737 C 0.18089 0.10617 0.45689 0.0
C2738 C 0.14032 0.10745 0.46855 0.0
C2739 C 0.13399 0.08175 0.46267 0.0
C2740 C 0.15066 0.06866 0.45222 0.0
C2741 C 0.17402 0.08102 0.44968 0.0
C2742 C 0.12309 0.122 0.47992 0.0
C2743 C 0.14439 0.04135 0.44518 0.0
C2744 C 0.08959 0.04621 0.4998 0.0
C2745 C 0.06789 0.04264 0.48424 0.0
C2746 C 0.11116 0.05904 0.49298 0.0
C2747 C 0.11112 0.06818 0.46989 0.0
C2748 C 0.08936 0.0643 0.45392 0.0
C2749 C 0.06794 0.05174 0.46138 0.0
C2750 C 0.13397 0.0631 0.51066 0.0
C2751 C 0.08873 0.07344 0.42903 0.0
H2752 H 0.16896 0.13887 0.47108 0.0
H2753 H 0.18726 0.07077 0.44296 0.0
H2754 H 0.10482 0.11764 0.46946 0.0
H2755 H 0.12103 0.11694 0.49864 0.0
H2756 H 0.12967 0.14208 0.48093 0.0
H2757 H 0.15798 0.03457 0.43431 0.0
H2758 H 0.1436 0.03165 0.46185 0.0
H2759 H 0.12624 0.03646 0.4345 0.0
H2760 H 0.08963 0.03948 0.51759 0.0
H2761 H 0.05123 0.04899 0.44922 0.0
H2762 H 0.14107 0.08303 0.51471 0.0
H2763 H 0.14825 0.0547 0.50241 0.0
H2764 H 0.13083 0.05518 0.52806 0.0
H2765 H 0.09407 0.09369 0.43081 0.0
H2766 H 0.07046 0.06837 0.41855 0.0
H2767 H 0.10204 0.06579 0.41846 0.0
C2768 C 0.19026 0.91916 0.7946 0.0
C2769 C 0.20026 0.94354 0.79193 0.0
C2770 C 0.20437 0.90059 0.79349 0.0
C2771 C 0.22915 0.90653 0.7897 0.0
C2772 C 0.23963 0.93124 0.788 0.0
C2773 C 0.22504 0.94946 0.78908 0.0
C2774 C 0.19256 0.87447 0.79561 0.0
C2775 C 0.26601 0.9383 0.78415 0.0
C2776 C 0.26676 0.85762 0.80378 0.0
C2777 C 0.26592 0.84495 0.7807 0.0
C2778 C 0.25573 0.87838 0.80688 0.0
C2779 C 0.24361 0.88658 0.78642 0.0
C2780 C 0.24387 0.87456 0.76291 0.0
C2781 C 0.25523 0.85398 0.76035 0.0
C2782 C 0.25636 0.89104 0.83213 0.0
C2783 C 0.23116 0.88266 0.74059 0.0
H2784 H 0.17115 0.9144 0.79686 0.0
H2785 H 0.23292 0.96823 0.787 0.0
H2786 H 0.19322 0.86291 0.77845 0.0
H2787 H 0.20263 0.86681 0.81046 0.0
H2788 H 0.17331 0.87302 0.79931 0.0
H2789 H 0.27189 0.95849 0.78521 0.0
H2790 H 0.2777 0.93092 0.79793 0.0
H2791 H 0.26906 0.93015 0.76599 0.0
H2792 H 0.27519 0.85074 0.81957 0.0
H2793 H 0.25537 0.84464 0.74243 0.0
H2794 H 0.2376 0.89114 0.8367 0.0
H2795 H 0.2654 0.91044 0.83278 0.0
H2796 H 0.26616 0.88209 0.84618 0.0
H2797 H 0.21122 0.87824 0.7411 0.0
H2798 H 0.2357 0.87348 0.72349 0.0
H2799 H 0.23605 0.90278 0.74024 0.0
C2800 C 0.29437 0.96717 0.02654 0.0
C2801 C 0.28425 0.94284 0.02921 0.0
C2802 C 0.31945 0.97442 0.02647 0.0
C2803 C 0.33484 0.95687 0.02891 0.0
C2804 C 0.32492 0.93254 0.03278 0.0
C2805 C 0.29969 0.92581 0.03299 0.0
C2806 C 0.32935 0.00065 0.02269 0.0
C2807 C 0.34082 0.91337 0.03557 0.0
C2808 C 0.39211 0.97063 0.99781 0.0
C2809 C 0.4093 0.98101 0.0174 0.0
C2810 C 0.36799 0.96184 0.0015 0.0
C2811 C 0.36091 0.96367 0.02534 0.0
C2812 C 0.37839 0.97359 0.04529 0.0
C2813 C 0.40244 0.98215 0.04107 0.0
C2814 C 0.34992 0.95122 0.97977 0.0
C2815 C 0.37158 0.97605 0.07095 0.0
H2816 H 0.28258 0.98053 0.02392 0.0
H2817 H 0.29201 0.90698 0.03508 0.0
H2818 H 0.34449 0.00847 0.03695 0.0
H2819 H 0.33674 0.00124 0.00485 0.0
H2820 H 0.31525 0.01246 0.02307 0.0
H2821 H 0.33069 0.89594 0.04062 0.0
H2822 H 0.34838 0.90951 0.01817 0.0
H2823 H 0.35639 0.92021 0.04965 0.0
H2824 H 0.39745 0.96963 0.97953 0.0
H2825 H 0.41577 0.99021 0.05625 0.0
H2826 H 0.33598 0.96303 0.97728 0.0
H2827 H 0.34037 0.93278 0.98284 0.0
H2828 H 0.35867 0.94964 0.9627 0.0
H2829 H 0.38782 0.98002 0.08467 0.0
H2830 H 0.35976 0.95909 0.07489 0.0
H2831 H 0.3612 0.99126 0.07305 0.0
C2832 C 0.82975 0.62278 0.74236 0.0
C2833 C 0.85481 0.62866 0.74962 0.0
C2834 C 0.81471 0.6404 0.74494 0.0
C2835 C 0.82494 0.66455 0.755 0.0
C2836 C 0.85025 0.6707 0.76219 0.0
C2837 C 0.8649 0.6527 0.75939 0.0
C2838 C 0.78775 0.63299 0.73755 0.0
C2839 C 0.86173 0.69623 0.77318 0.0
C2840 C 0.7886 0.71529 0.7439 0.0
C2841 C 0.7784 0.71798 0.76582 0.0
C2842 C 0.80397 0.69814 0.7402 0.0
C2843 C 0.80896 0.68309 0.75879 0.0
C2844 C 0.79829 0.68549 0.78084 0.0
C2845 C 0.78323 0.703 0.78411 0.0
C2846 C 0.8144 0.6958 0.71619 0.0
C2847 C 0.80291 0.67005 0.80135 0.0
H2848 H 0.82176 0.60426 0.73482 0.0
H2849 H 0.88424 0.65741 0.76506 0.0
H2850 H 0.77784 0.63512 0.75377 0.0
H2851 H 0.78155 0.64517 0.72433 0.0
H2852 H 0.78272 0.6137 0.72924 0.0
H2853 H 0.88179 0.69843 0.77683 0.0
H2854 H 0.85725 0.70989 0.76079 0.0
H2855 H 0.85422 0.70042 0.79055 0.0
H2856 H 0.78445 0.72653 0.72954 0.0
H2857 H 0.77542 0.70512 0.80115 0.0
H2858 H 0.80482 0.67873 0.70524 0.0
H2859 H 0.8339 0.69446 0.71904 0.0
H2860 H 0.8124 0.71153 0.70552 0.0
H2861 H 0.80801 0.65235 0.79508 0.0
H2862 H 0.78658 0.66608 0.81113 0.0
H2863 H 0.81794 0.68043 0.81454 0.0
C2864 C 0.79731 0.56416 0.03183 0.0
C2865 C 0.79512 0.57476 0.00981 0.0
C2866 C 0.81866 0.55585 0.03975 0.0
C2867 C 0.83796 0.55775 0.02503 0.0
C2868 C 0.83546 0.56758 0.00234 0.0
C2869 C 0.81415 0.57624 0.99514 0.0
C2870 C 0.82092 0.54593 0.06424 0.0
C2871 C 0.85551 0.56945 0.98589 0.0
C2872 C 0.9042 0.56375 0.04772 0.0
C2873 C 0.90868 0.54057 0.03974 0.0
C2874 C 0.88063 0.56897 0.04507 0.0
C2875 C 0.86137 0.5507 0.03358 0.0
C2876 C 0.86557 0.52669 0.02725 0.0
C2877 C 0.88928 0.52182 0.03069 0.0
C2878 C 0.87675 0.5946 0.05271 0.0
C2879 C 0.84555 0.5068 0.01475 0.0
H2880 H 0.78266 0.56319 0.0433 0.0
H2881 H 0.81241 0.58425 0.97804 0.0
H2882 H 0.82671 0.52781 0.06249 0.0
H2883 H 0.83511 0.55846 0.07673 0.0
H2884 H 0.80361 0.54399 0.07264 0.0
H2885 H 0.84998 0.57591 0.96813 0.0
H2886 H 0.87168 0.58241 0.99492 0.0
H2887 H 0.86105 0.55134 0.98242 0.0
H2888 H 0.91929 0.57818 0.05486 0.0
H2889 H 0.89286 0.5039 0.02442 0.0
H2890 H 0.86026 0.59407 0.06232 0.0
H2891 H 0.87398 0.60439 0.03631 0.0
H2892 H 0.89254 0.60531 0.06479 0.0
H2893 H 0.82874 0.50637 0.02381 0.0
H2894 H 0.85084 0.48841 0.01448 0.0
H2895 H 0.84123 0.51067 0.99567 0.0
C2896 C 0.15712 0.10125 0.7699 0.0
C2897 C 0.16969 0.08276 0.77712 0.0
C2898 C 0.16909 0.12553 0.7699 0.0
C2899 C 0.19435 0.13165 0.77722 0.0
C2900 C 0.20712 0.11325 0.78505 0.0
C2901 C 0.19464 0.08905 0.78494 0.0
C2902 C 0.15472 0.14455 0.76152 0.0
C2903 C 0.23406 0.11903 0.79298 0.0
C2904 C 0.2269 0.18772 0.75126 0.0
C2905 C 0.22858 0.20616 0.77057 0.0
C2906 C 0.21652 0.16332 0.75348 0.0
C2907 C 0.20744 0.15707 0.77553 0.0
C2908 C 0.20959 0.17544 0.79531 0.0
C2909 C 0.22015 0.19973 0.79261 0.0
C2910 C 0.21466 0.14433 0.73195 0.0
C2911 C 0.20007 0.16957 0.81909 0.0
H2912 H 0.13783 0.09673 0.76394 0.0
H2913 H 0.20456 0.07497 0.79056 0.0
H2914 H 0.15719 0.16035 0.77566 0.0
H2915 H 0.16151 0.15162 0.74485 0.0
H2916 H 0.13501 0.1371 0.75746 0.0
H2917 H 0.24112 0.10303 0.79974 0.0
H2918 H 0.24392 0.12489 0.77746 0.0
H2919 H 0.23821 0.13448 0.80759 0.0
H2920 H 0.23344 0.19236 0.73418 0.0
H2921 H 0.22128 0.21379 0.80765 0.0
H2922 H 0.19527 0.13727 0.72541 0.0
H2923 H 0.22286 0.12852 0.73742 0.0
H2924 H 0.22382 0.15183 0.71659 0.0
H2925 H 0.18005 0.16387 0.81615 0.0
H2926 H 0.20455 0.18549 0.83323 0.0
H2927 H 0.20771 0.15401 0.82604 0.0
C2928 C 0.34178 0.98957 0.23468 0.0
C2929 C 0.36698 0.99017 0.23715 0.0
C2930 C 0.32553 0.96773 0.2359 0.0
C2931 C 0.33472 0.94608 0.24004 0.0
C2932 C 0.36009 0.94644 0.24207 0.0
C2933 C 0.37591 0.96845 0.24044 0.0
C2934 C 0.29858 0.96791 0.23325 0.0
C2935 C 0.37059 0.92374 0.24668 0.0
C2936 C 0.29886 0.89581 0.2708 0.0
C2937 C 0.2915 0.87755 0.25136 0.0
C2938 C 0.31224 0.91861 0.26719 0.0
C2939 C 0.31803 0.92325 0.2435 0.0
C2940 C 0.30935 0.90533 0.22358 0.0
C2941 C 0.29632 0.88255 0.22779 0.0
C2942 C 0.32129 0.93721 0.28892 0.0
C2943 C 0.31473 0.90977 0.198 0.0
H2944 H 0.33472 0.00624 0.23192 0.0
H2945 H 0.39533 0.96876 0.24241 0.0
H2946 H 0.28912 0.95329 0.21908 0.0
H2947 H 0.29112 0.96399 0.25061 0.0
H2948 H 0.29431 0.9858 0.22833 0.0
H2949 H 0.39069 0.92695 0.24717 0.0
H2950 H 0.36566 0.91747 0.26433 0.0
H2951 H 0.36282 0.90866 0.23231 0.0
H2952 H 0.29514 0.8919 0.28903 0.0
H2953 H 0.29047 0.86841 0.21273 0.0
H2954 H 0.31622 0.95516 0.28553 0.0
H2955 H 0.34141 0.94 0.29193 0.0
H2956 H 0.31392 0.93137 0.30582 0.0
H2957 H 0.31045 0.92776 0.19351 0.0
H2958 H 0.30427 0.89522 0.18426 0.0
H2959 H 0.33437 0.91033 0.1966 0.0
C2960 C 0.47087 0.3452 0.60633 0.0
C2961 C 0.48207 0.32533 0.59959 0.0
C2962 C 0.47017 0.36439 0.5915 0.0
C2963 C 0.48133 0.36391 0.56965 0.0
C2964 C 0.49209 0.34358 0.56243 0.0
C2965 C 0.49214 0.32442 0.5774 0.0
C2966 C 0.45833 0.38566 0.59973 0.0
C2967 C 0.50447 0.34256 0.53946 0.0
C2968 C 0.46795 0.4097 0.52497 0.0
C2969 C 0.48729 0.4291 0.53224 0.0
C2970 C 0.46595 0.38802 0.53662 0.0
C2971 C 0.48383 0.38579 0.55573 0.0
C2972 C 0.50385 0.40506 0.56241 0.0
C2973 C 0.50532 0.42644 0.55057 0.0
C2974 C 0.44427 0.36793 0.52915 0.0
C2975 C 0.5235 0.40334 0.58244 0.0
H2976 H 0.46288 0.34589 0.62336 0.0
H2977 H 0.50084 0.30911 0.5721 0.0
H2978 H 0.47239 0.40238 0.60444 0.0
H2979 H 0.44538 0.38953 0.58479 0.0
H2980 H 0.44848 0.38217 0.61589 0.0
H2981 H 0.51009 0.32457 0.53531 0.0
H2982 H 0.49227 0.34611 0.52374 0.0
H2983 H 0.52086 0.35711 0.54145 0.0
H2984 H 0.45397 0.41183 0.51085 0.0
H2985 H 0.52046 0.44136 0.55602 0.0
H2986 H 0.43296 0.3658 0.54445 0.0
H2987 H 0.45027 0.35017 0.52499 0.0
H2988 H 0.43282 0.37181 0.51298 0.0
H2989 H 0.51545 0.39896 0.59939 0.0
H2990 H 0.53691 0.42063 0.58653 0.0
H2991 H 0.53322 0.38828 0.57702 0.0
C2992 C 0.44847 0.7727 0.29691 0.0
C2993 C 0.45571 0.77514 0.322 0.0
C2994 C 0.42383 0.7681 0.28787 0.0
C2995 C 0.40604 0.76663 0.30438 0.0
C2996 C 0.41323 0.76779 0.32971 0.0
C2997 C 0.43807 0.77174 0.33823 0.0
C2998 C 0.41692 0.76637 0.26072 0.0
C2999 C 0.39481 0.76675 0.34791 0.0
C3000 C 0.34964 0.79151 0.28371 0.0
C3001 C 0.33229 0.77007 0.27769 0.0
C3002 C 0.37352 0.79052 0.29273 0.0
C3003 C 0.38047 0.76749 0.29536 0.0
C3004 C 0.3632 0.7457 0.28896 0.0
C3005 C 0.33918 0.74726 0.28044 0.0
C3006 C 0.39126 0.81424 0.29972 0.0
C3007 C 0.37012 0.72083 0.2911 0.0
H3008 H 0.46213 0.77502 0.28433 0.0
H3009 H 0.44368 0.7737 0.35765 0.0
H3010 H 0.4019 0.75071 0.25484 0.0
H3011 H 0.41037 0.7833 0.25595 0.0
H3012 H 0.4325 0.76413 0.25032 0.0
H3013 H 0.40298 0.76483 0.36654 0.0
H3014 H 0.38704 0.78385 0.34849 0.0
H3015 H 0.37957 0.75125 0.34242 0.0
H3016 H 0.34441 0.80925 0.28205 0.0
H3017 H 0.32582 0.73064 0.27591 0.0
H3018 H 0.40657 0.81505 0.28839 0.0
H3019 H 0.39901 0.81512 0.319 0.0
H3020 H 0.38269 0.83063 0.29739 0.0
H3021 H 0.35471 0.70564 0.28482 0.0
H3022 H 0.37655 0.71909 0.31031 0.0
H3023 H 0.38535 0.71875 0.28019 0.0
C3024 C 0.01132 0.67777 0.13925 0.0
C3025 C -0.00077 0.69622 0.13111 0.0
C3026 C 0.01313 0.65724 0.12352 0.0
C3027 C 0.0024 0.65498 0.09912 0.0
C3028 C 0.9894 0.67303 0.09101 0.0
C3029 C 0.98808 0.69353 0.10707 0.0
C3030 C 0.02726 0.6384 0.13279 0.0
C3031 C 0.97746 0.67102 0.06519 0.0
C3032 C 0.03034 0.61721 0.05307 0.0
C3033 C 0.01421 0.59487 0.05053 0.0
C3034 C 0.02644 0.6371 0.06852 0.0
C3035 C 0.00598 0.63441 0.0818 0.0
C3036 C 0.98967 0.61178 0.07929 0.0
C3037 C 0.99421 0.59215 0.06386 0.0
C3038 C 0.04441 0.66085 0.07096 0.0
C3039 C 0.96774 0.60816 0.09321 0.0
H3040 H 0.02001 0.67968 0.15777 0.0
H3041 H 0.97856 0.7076 0.10068 0.0
H3042 H 0.01597 0.61983 0.12942 0.0
H3043 H 0.04341 0.6381 0.12279 0.0
H3044 H 0.03346 0.64223 0.15257 0.0
H3045 H 0.96671 0.68576 0.06219 0.0
H3046 H 0.99153 0.67209 0.05237 0.0
H3047 H 0.96531 0.653 0.06062 0.0
H3048 H 0.04605 0.61908 0.04298 0.0
H3049 H 0.98277 0.57442 0.0631 0.0
H3050 H 0.05283 0.66518 0.09008 0.0
H3051 H 0.03495 0.67613 0.0664 0.0
H3052 H 0.05906 0.66008 0.05894 0.0
H3053 H 0.97354 0.6112 0.11307 0.0
H3054 H 0.95671 0.58949 0.08895 0.0
H3055 H 0.95607 0.62181 0.08885 0.0
C3056 C 0.11479 0.2883 0.85284 0.0
C3057 C 0.09462 0.29666 0.84193 0.0
C3058 C 0.13483 0.28611 0.84002 0.0
C3059 C 0.13483 0.29304 0.81599 0.0
C3060 C 0.11483 0.30236 0.8053 0.0
C3061 C 0.09481 0.30373 0.8183 0.0
C3062 C 0.1553 0.27518 0.8518 0.0
C3063 C 0.11433 0.3104 0.77993 0.0
C3064 C 0.19382 0.30643 0.78747 0.0
C3065 C 0.19245 0.28504 0.7718 0.0
C3066 C 0.17545 0.30908 0.80243 0.0
C3067 C 0.15527 0.28988 0.80155 0.0
C3068 C 0.15403 0.26809 0.78598 0.0
C3069 C 0.17259 0.26601 0.77112 0.0
C3070 C 0.17745 0.33252 0.81888 0.0
C3071 C 0.13306 0.24702 0.78495 0.0
H3072 H 0.11448 0.28252 0.87103 0.0
H3073 H 0.07923 0.31033 0.80992 0.0
H3074 H 0.1526 0.2554 0.84528 0.0
H3075 H 0.17313 0.2839 0.84685 0.0
H3076 H 0.15582 0.27689 0.87195 0.0
H3077 H 0.09799 0.31845 0.7748 0.0
H3078 H 0.13075 0.32418 0.77855 0.0
H3079 H 0.11457 0.29449 0.76654 0.0
H3080 H 0.2092 0.32117 0.78789 0.0
H3081 H 0.17169 0.24938 0.75912 0.0
H3082 H 0.17496 0.32836 0.83779 0.0
H3083 H 0.16282 0.34251 0.81275 0.0
H3084 H 0.19526 0.34475 0.81899 0.0
H3085 H 0.13116 0.24126 0.80345 0.0
H3086 H 0.13538 0.23093 0.77268 0.0
H3087 H 0.11589 0.25296 0.77843 0.0
C3088 C 0.50318 0.66486 0.94721 0.0
C3089 C 0.50691 0.68753 0.96136 0.0
C3090 C 0.50148 0.64294 0.95812 0.0
C3091 C 0.50327 0.64379 0.98381 0.0
C3092 C 0.50617 0.66656 -0.00182 0.0
C3093 C 0.50818 0.68825 0.98676 0.0
C3094 C 0.49904 0.61912 0.94208 0.0
C3095 C 0.50773 0.66802 0.02561 0.0
C3096 C 0.4813 0.58451 0.01025 0.0
C3097 C 0.50325 0.57672 0.01649 0.0
C3098 C 0.48102 0.60665 -3e-05 0.0
C3099 C 0.50324 0.62095 0.99567 0.0
C3100 C 0.52547 0.61306 0.00202 0.0
C3101 C 0.52521 0.59112 0.01269 0.0
C3102 C 0.45703 0.61454 0.99329 0.0
C3103 C 0.54944 0.62737 0.99686 0.0
H3104 H 0.50238 0.66423 0.92755 0.0
H3105 H 0.51091 0.70576 0.99771 0.0
H3106 H 0.51731 0.6142 0.94123 0.0
H3107 H 0.48754 0.60386 0.9494 0.0
H3108 H 0.49126 0.6207 0.92322 0.0
H3109 H 0.50841 0.687 0.03402 0.0
H3110 H 0.49186 0.65598 0.03127 0.0
H3111 H 0.52426 0.66135 0.03288 0.0
H3112 H 0.46437 0.57322 0.0133 0.0
H3113 H 0.54216 0.5848 0.01727 0.0
H3114 H 0.4548 0.61698 0.97359 0.0
H3115 H 0.45668 0.63253 0.00341 0.0
H3116 H 0.44136 0.60107 0.99739 0.0
H3117 H 0.54951 0.62822 0.97694 0.0
H3118 H 0.56512 0.61902 0.0036 0.0
H3119 H 0.55197 0.64649 0.00546 0.0
C3120 C 0.08268 0.83894 0.65114 0.0
C3121 C 0.07836 0.82068 0.63149 0.0
C3122 C 0.10453 0.84307 0.66641 0.0
C3123 C 0.12196 0.82808 0.66209 0.0
C3124 C 0.11892 0.81187 0.64047 0.0
C3125 C 0.09703 0.80846 0.6252 0.0
C3126 C 0.10761 0.86131 0.68869 0.0
C3127 C 0.13735 0.79587 0.63506 0.0
C3128 C 0.1811 0.83273 0.70252 0.0
C3129 C 0.17463 0.81446 0.71783 0.0
C3130 C 0.16389 0.83838 0.68488 0.0
C3131 C 0.13992 0.82506 0.68239 0.0
C3132 C 0.13309 0.80742 0.69867 0.0
C3133 C 0.15057 0.80245 0.71632 0.0
C3134 C 0.17174 0.85765 0.66825 0.0
C3135 C 0.10758 0.79294 0.69675 0.0
H3136 H 0.06825 0.84868 0.65567 0.0
H3137 H 0.09364 0.79443 0.60988 0.0
H3138 H 0.10279 0.85149 0.70465 0.0
H3139 H 0.12673 0.87088 0.69271 0.0
H3140 H 0.09566 0.87518 0.68645 0.0
H3141 H 0.1343 0.7874 0.61591 0.0
H3142 H 0.15604 0.80658 0.63856 0.0
H3143 H 0.13604 0.78097 0.64727 0.0
H3144 H 0.1998 0.84198 0.70368 0.0
H3145 H 0.14562 0.78837 0.72824 0.0
H3146 H 0.15734 0.86862 0.66423 0.0
H3147 H 0.17535 0.84858 0.65073 0.0
H3148 H 0.18863 0.87024 0.67626 0.0
H3149 H 0.09432 0.80555 0.69809 0.0
H3150 H 0.1052 0.78032 0.71119 0.0
H3151 H 0.10313 0.78193 0.67877 0.0
C3152 C 0.03295 0.33303 0.48369 0.0
C3153 C 0.03381 0.33252 0.45845 0.0
C3154 C 0.03206 0.35494 0.49782 0.0
C3155 C 0.03143 0.3766 0.48627 0.0
C3156 C 0.03282 0.37627 0.46088 0.0
C3157 C 0.03425 0.35427 0.44733 0.0
C3158 C 0.03125 0.35481 0.52494 0.0
C3159 C 0.0319 0.39897 0.44784 0.0
C3160 C 0.00035 0.42751 0.50959 0.0
C3161 C 0.02018 0.44668 0.51576 0.0
C3162 C 0.00382 0.40394 0.50153 0.0
C3163 C 0.02771 0.39939 0.50014 0.0
C3164 C 0.04782 0.418 0.50879 0.0
C3165 C 0.04382 0.44155 0.51632 0.0
C3166 C 0.98188 0.38463 0.49232 0.0
C3167 C 0.07356 0.4136 0.50828 0.0
H3168 H 0.03286 0.31628 0.4924 0.0
H3169 H 0.03485 0.35396 0.42783 0.0
H3170 H 0.04495 0.36996 0.53487 0.0
H3171 H 0.01318 0.35788 0.52967 0.0
H3172 H 0.03462 0.3372 0.53145 0.0
H3173 H 0.03357 0.39567 0.42808 0.0
H3174 H 0.01449 0.40539 0.44998 0.0
H3175 H 0.04675 0.41398 0.45596 0.0
H3176 H 0.982 0.43125 0.50923 0.0
H3177 H 0.05923 0.45622 0.52143 0.0
H3178 H 0.98354 0.36695 0.49962 0.0
H3179 H 0.98066 0.38148 0.47217 0.0
H3180 H 0.96472 0.39012 0.49732 0.0
H3181 H 0.07546 0.39552 0.51457 0.0
H3182 H 0.08676 0.42809 0.51982 0.0
H3183 H 0.07834 0.41347 0.48932 0.0
C3184 C 0.44628 0.25873 0.18781 0.0
C3185 C 0.44764 0.26983 0.16603 0.0
C3186 C 0.42763 0.2613 0.20235 0.0
C3187 C 0.40994 0.27528 0.19489 0.0
C3188 C 0.41084 0.28606 0.1727 0.0
C3189 C 0.42969 0.28318 0.15849 0.0
C3190 C 0.42703 0.24936 0.22583 0.0
C3191 C 0.39204 0.30087 0.16411 0.0
C3192 C 0.3495 0.26391 0.22024 0.0
C3193 C 0.35186 0.28402 0.23785 0.0
C3194 C 0.36833 0.26082 0.20619 0.0
C3195 C 0.39012 0.27815 0.21006 0.0
C3196 C 0.39283 0.29825 0.22818 0.0
C3197 C 0.37353 0.301 0.2419 0.0
C3198 C 0.36477 0.23922 0.18697 0.0
C3199 C 0.41597 0.31696 0.23281 0.0
H3200 H 0.46005 0.24835 0.19377 0.0
H3201 H 0.43063 0.29185 0.14173 0.0
H3202 H 0.42824 0.26353 0.24142 0.0
H3203 H 0.40956 0.23662 0.22566 0.0
H3204 H 0.44211 0.23898 0.22893 0.0
H3205 H 0.39524 0.30789 0.1463 0.0
H3206 H 0.37365 0.28947 0.16232 0.0
H3207 H 0.39215 0.31667 0.17774 0.0
H3208 H 0.33272 0.2507 0.21715 0.0
H3209 H 0.37529 0.31651 0.25554 0.0
H3210 H 0.37846 0.22747 0.19103 0.0
H3211 H 0.3675 0.24571 0.16888 0.0
H3212 H 0.34638 0.22785 0.18578 0.0
H3213 H 0.43165 0.30775 0.23728 0.0
H3214 H 0.41536 0.33117 0.24794 0.0
H3215 H 0.41924 0.32612 0.21611 0.0
C3216 C 0.55687 0.50697 0.33023 0.0
C3217 C 0.58196 0.50705 0.33133 0.0
C3218 C 0.54494 0.50678 0.3513 0.0
C3219 C 0.55841 0.50692 0.37419 0.0
C3220 C 0.58363 0.50632 0.37544 0.0
C3221 C 0.5951 0.50625 0.35395 0.0
C3222 C 0.51801 0.50715 0.34912 0.0
C3223 C 0.59861 0.5066 0.39956 0.0
C3224 C 0.53342 0.53527 0.42889 0.0
C3225 C 0.523 0.51454 0.43953 0.0
C3226 C 0.54513 0.53299 0.4078 0.0
C3227 C 0.54634 0.50938 0.39683 0.0
C3228 C 0.53548 0.48834 0.40712 0.0
C3229 C 0.524 0.49116 0.42839 0.0
C3230 C 0.55646 0.55591 0.3974 0.0
C3231 C 0.53616 0.46286 0.39577 0.0
H3232 H 0.54647 0.50728 0.31281 0.0
H3233 H 0.61447 0.50629 0.35495 0.0
H3234 H 0.50847 0.49213 0.35849 0.0
H3235 H 0.51472 0.52468 0.35815 0.0
H3236 H 0.50985 0.5052 0.32986 0.0
H3237 H 0.61764 0.50456 0.39735 0.0
H3238 H 0.59886 0.52413 0.41079 0.0
H3239 H 0.59037 0.49161 0.40979 0.0
H3240 H 0.5329 0.55346 0.4373 0.0
H3241 H 0.51613 0.47501 0.43647 0.0
H3242 H 0.54806 0.5562 0.37853 0.0
H3243 H 0.57612 0.55601 0.39653 0.0
H3244 H 0.5543 0.57291 0.40836 0.0
H3245 H 0.52666 0.44838 0.40586 0.0
H3246 H 0.55527 0.46029 0.3953 0.0
H3247 H 0.52758 0.4604 0.37667 0.0
C3248 C 0.22525 0.82518 0.09429 0.0
C3249 C 0.21992 0.84893 0.09739 0.0
C3250 C 0.23101 0.81261 0.11447 0.0
C3251 C 0.23078 0.82374 0.13839 0.0
C3252 C 0.22518 0.84763 0.14161 0.0
C3253 C 0.22015 0.86004 0.12112 0.0
C3254 C 0.23732 0.78737 0.11021 0.0
C3255 C 0.22412 0.85996 0.16671 0.0
C3256 C 0.22058 0.78134 0.18846 0.0
C3257 C 0.24394 0.7839 0.20081 0.0
C3258 C 0.21608 0.79424 0.16825 0.0
C3259 C 0.23546 0.81002 0.15999 0.0
C3260 C 0.25917 0.81259 0.17238 0.0
C3261 C 0.26311 0.79952 0.19268 0.0
C3262 C 0.19047 0.79123 0.15598 0.0
C3263 C 0.28042 0.82889 0.164 0.0
H3264 H 0.22534 0.81657 0.07603 0.0
H3265 H 0.21598 0.87836 0.12368 0.0
H3266 H 0.25524 0.78685 0.12026 0.0
H3267 H 0.22371 0.7737 0.1173 0.0
H3268 H 0.23795 0.78178 0.0906 0.0
H3269 H 0.21944 0.87855 0.16615 0.0
H3270 H 0.21036 0.84863 0.17607 0.0
H3271 H 0.24187 0.86155 0.17788 0.0
H3272 H 0.20565 0.76942 0.19481 0.0
H3273 H 0.28126 0.80123 0.20197 0.0
H3274 H 0.18997 0.78675 0.13606 0.0
H3275 H 0.18367 0.80876 0.15885 0.0
H3276 H 0.17795 0.77657 0.16314 0.0
H3277 H 0.28267 0.82258 0.14496 0.0
H3278 H 0.29765 0.82903 0.17565 0.0
H3279 H 0.27697 0.84797 0.16413 0.0
C3280 C 0.95234 0.54003 0.82915 0.0
C3281 C 0.94333 0.55952 0.81917 0.0
C3282 C 0.95867 0.54055 0.85425 0.0
C3283 C 0.9565 0.56135 0.86986 0.0
C3284 C 0.94752 0.58121 0.85995 0.0
C3285 C 0.94072 0.57992 0.83469 0.0
C3286 C 0.96762 0.51872 0.86406 0.0
C3287 C 0.94543 0.60389 0.87597 0.0
C3288 C 0.95446 0.54962 0.93616 0.0
C3289 C 0.97912 0.55561 0.94518 0.0
C3290 C 0.94662 0.55246 0.91193 0.0
C3291 C 0.96378 0.56199 0.89648 0.0
C3292 C 0.98848 0.56945 0.90594 0.0
C3293 C 0.9959 0.56588 0.93009 0.0
C3294 C 0.92022 0.5438 0.90247 0.0
C3295 C 0.00726 0.58018 0.89023 0.0
H3296 H 0.95413 0.52406 0.8173 0.0
H3297 H 0.93385 0.59506 0.82705 0.0
H3298 H 0.98647 0.52432 0.87301 0.0
H3299 H 0.95618 0.51161 0.87805 0.0
H3300 H 0.96736 0.50359 0.84958 0.0
H3301 H 0.93823 0.61777 0.86547 0.0
H3302 H 0.93331 0.59897 0.89013 0.0
H3303 H 0.96352 0.61227 0.88555 0.0
H3304 H 0.9414 0.54155 0.94769 0.0
H3305 H 0.01495 0.57078 0.93703 0.0
H3306 H 0.91851 0.52727 0.88932 0.0
H3307 H 0.91298 0.55804 0.89261 0.0
H3308 H 0.90882 0.53912 0.91729 0.0
H3309 H 0.01035 0.56568 0.87648 0.0
H3310 H 0.0249 0.58805 0.90108 0.0
H3311 H 0.00075 0.59472 0.88023 0.0
C3312 C 0.24886 0.19885 0.55131 0.0
C3313 C 0.23816 0.17442 0.55287 0.0
C3314 C 0.251 0.2166 0.57123 0.0
C3315 C 0.24249 0.20965 0.59325 0.0
C3316 C 0.23104 0.1852 0.59473 0.0
C3317 C 0.22889 0.16789 0.57446 0.0
C3318 C 0.26297 0.2426 0.56894 0.0
C3319 C 0.22184 0.17711 0.61802 0.0
C3320 C 0.27002 0.24288 0.65419 0.0
C3321 C 0.25117 0.25471 0.66086 0.0
C3322 C 0.26797 0.2291 0.63156 0.0
C3323 C 0.24665 0.22743 0.61526 0.0
C3324 C 0.22838 0.24087 0.62123 0.0
C3325 C 0.23081 0.25433 0.64412 0.0
C3326 C 0.28786 0.21502 0.62584 0.0
C3327 C 0.20561 0.23984 0.6041 0.0
H3328 H 0.25587 0.20407 0.53459 0.0
H3329 H 0.22061 0.14906 0.57579 0.0
H3330 H 0.25129 0.25566 0.575 0.0
H3331 H 0.28038 0.24712 0.58093 0.0
H3332 H 0.26671 0.24547 0.54998 0.0
H3333 H 0.21264 0.15763 0.61589 0.0
H3334 H 0.23723 0.17944 0.63261 0.0
H3335 H 0.20887 0.1887 0.62418 0.0
H3336 H 0.28583 0.2433 0.66715 0.0
H3337 H 0.2163 0.26362 0.6493 0.0
H3338 H 0.29341 0.21836 0.60758 0.0
H3339 H 0.28097 0.19507 0.6255 0.0
H3340 H 0.30412 0.22003 0.63949 0.0
H3341 H 0.21017 0.24253 0.58537 0.0
H3342 H 0.19486 0.25389 0.60996 0.0
H3343 H 0.19407 0.22148 0.60338 0.0
C3344 C 0.62509 0.49207 0.18099 0.0
C3345 C 0.61494 0.47982 0.19966 0.0
C3346 C 0.61243 0.48965 0.15761 0.0
C3347 C 0.58935 0.47432 0.15286 0.0
C3348 C 0.58025 0.46001 0.171 0.0
C3349 C 0.59306 0.46313 0.1943 0.0
C3350 C 0.62273 0.50526 0.13877 0.0
C3351 C 0.55603 0.44297 0.16645 0.0
C3352 C 0.54332 0.49851 0.11174 0.0
C3353 C 0.54375 0.48499 0.08941 0.0
C3354 C 0.55785 0.49486 0.13251 0.0
C3355 C 0.57295 0.47692 0.131 0.0
C3356 C 0.57272 0.46243 0.1087 0.0
C3357 C 0.55821 0.4668 0.08799 0.0
C3358 C 0.55754 0.51076 0.15593 0.0
C3359 C 0.5882 0.44281 0.10657 0.0
H3360 H 0.6421 0.50486 0.18502 0.0
H3361 H 0.5854 0.45327 0.20863 0.0
H3362 H 0.62094 0.49436 0.12082 0.0
H3363 H 0.61235 0.52041 0.13661 0.0
H3364 H 0.64217 0.51338 0.144 0.0
H3365 H 0.55383 0.42981 0.18043 0.0
H3366 H 0.54123 0.45388 0.1669 0.0
H3367 H 0.55386 0.43251 0.14821 0.0
H3368 H 0.5321 0.51257 0.11285 0.0
H3369 H 0.55845 0.45628 0.07068 0.0
H3370 H 0.57597 0.52143 0.1619 0.0
H3371 H 0.55233 0.49915 0.17056 0.0
H3372 H 0.54467 0.5238 0.15398 0.0
H3373 H 0.60761 0.45149 0.10797 0.0
H3374 H 0.58354 0.43107 0.08898 0.0
H3375 H 0.58609 0.43102 0.12168 0.0
C3376 C 0.2159 0.87812 0.93014 0.0
C3377 C 0.20654 0.86555 0.94906 0.0
C3378 C 0.21973 0.86553 0.90823 0.0
C3379 C 0.21344 0.83966 0.90468 0.0
C3380 C 0.20336 0.82683 0.92345 0.0
C3381 C 0.20038 0.83989 0.94558 0.0
C3382 C 0.23105 0.87996 0.88907 0.0
C3383 C 0.19576 0.79932 0.92015 0.0
C3384 C 0.2073 0.81254 0.83835 0.0
C3385 C 0.22961 0.80462 0.83686 0.0
C3386 C 0.20134 0.82298 0.86051 0.0
C3387 C 0.21832 0.8262 0.88163 0.0
C3388 C 0.2408 0.81808 0.88023 0.0
C3389 C 0.24604 0.80719 0.858 0.0
C3390 C 0.17703 0.83101 0.86119 0.0
C3391 C 0.25976 0.82178 0.90203 0.0
H3392 H 0.22096 0.89792 0.93271 0.0
H3393 H 0.19303 0.83005 0.96006 0.0
H3394 H 0.24808 0.87361 0.88505 0.0
H3395 H 0.21858 0.87678 0.87195 0.0
H3396 H 0.2353 0.89998 0.89475 0.0
H3397 H 0.18688 0.79221 0.93582 0.0
H3398 H 0.18301 0.79376 0.90333 0.0
H3399 H 0.21185 0.79052 0.91795 0.0
H3400 H 0.19446 0.81064 0.82215 0.0
H3401 H 0.26345 0.80142 0.85702 0.0
H3402 H 0.17965 0.85131 0.86379 0.0
H3403 H 0.168 0.82398 0.87679 0.0
H3404 H 0.16477 0.82457 0.84414 0.0
H3405 H 0.26565 0.84168 0.90765 0.0
H3406 H 0.27599 0.81373 0.89821 0.0
H3407 H 0.25201 0.8134 0.91766 0.0
C3408 C 0.92876 0.56958 0.65493 0.0
C3409 C 0.93849 0.56717 0.67866 0.0
C3410 C 0.94081 0.56361 0.63476 0.0
C3411 C 0.96283 0.55451 0.63841 0.0
C3412 C 0.97279 0.55218 0.66234 0.0
C3413 C 0.96064 0.55877 0.68217 0.0
C3414 C 0.92996 0.56689 0.60954 0.0
C3415 C -0.00386 0.54241 0.66697 0.0
C3416 C 0.98168 0.5162 0.58581 0.0
C3417 C -0.00035 0.5331 0.57761 0.0
C3418 C 0.96951 0.52292 0.60562 0.0
C3419 C 0.97543 0.54718 0.61725 0.0
C3420 C 0.99368 0.56429 0.6089 0.0
C3421 C 0.00557 0.55701 0.58911 0.0
C3422 C 0.95027 0.5041 0.61403 0.0
C3423 C 0.00026 0.59043 0.62045 0.0
H3424 H 0.91171 0.57617 0.65214 0.0
H3425 H 0.96822 0.55674 0.70044 0.0
H3426 H 0.9433 0.57908 0.60049 0.0
H3427 H 0.92564 0.54896 0.59826 0.0
H3428 H 0.91311 0.57485 0.60984 0.0
H3429 H 0.0014 0.54157 0.68666 0.0
H3430 H 0.99418 0.52373 0.65741 0.0
H3431 H 0.0111 0.5542 0.65957 0.0
H3432 H 0.97711 0.49776 0.57667 0.0
H3433 H 0.01918 0.57015 0.58228 0.0
H3434 H 0.93255 0.51045 0.61248 0.0
H3435 H 0.95499 0.50184 0.6335 0.0
H3436 H 0.9481 0.48596 0.60326 0.0
H3437 H 0.98515 0.60032 0.61573 0.0
H3438 H 0.01703 0.60031 0.61413 0.0
H3439 H 0.00299 0.59105 0.64057 0.0
C3440 C 0.30747 0.20952 0.44143 0.0
C3441 C 0.2931 0.18716 0.4315 0.0
C3442 C 0.31419 0.22826 0.42665 0.0
C3443 C 0.30551 0.22479 0.40161 0.0
C3444 C 0.29253 0.20157 0.39123 0.0
C3445 C 0.28677 0.1829 0.4063 0.0
C3446 C 0.3291 0.25227 0.43819 0.0
C3447 C 0.28277 0.19711 0.36459 0.0
C3448 C 0.2831 0.27457 0.36882 0.0
C3449 C 0.29829 0.27655 0.35017 0.0
C3450 C 0.28648 0.25918 0.38706 0.0
C3451 C 0.30605 0.24611 0.38709 0.0
C3452 C 0.32347 0.25085 0.37045 0.0
C3453 C 0.31927 0.26593 0.35194 0.0
C3454 C 0.26742 0.25475 0.40445 0.0
C3455 C 0.34524 0.23823 0.37069 0.0
H3456 H 0.31273 0.21271 0.46091 0.0
H3457 H 0.27571 0.1656 0.3986 0.0
H3458 H 0.34183 0.2604 0.42573 0.0
H3459 H 0.31688 0.26546 0.44222 0.0
H3460 H 0.33965 0.24994 0.45556 0.0
H3461 H 0.27449 0.17762 0.35908 0.0
H3462 H 0.26875 0.2086 0.36084 0.0
H3463 H 0.29745 0.20243 0.35304 0.0
H3464 H 0.26713 0.28317 0.36784 0.0
H3465 H 0.33127 0.26753 0.33774 0.0
H3466 H 0.27602 0.25636 0.42347 0.0
H3467 H 0.25695 0.23585 0.40018 0.0
H3468 H 0.25449 0.26781 0.40327 0.0
H3469 H 0.35259 0.23637 0.38959 0.0
H3470 H 0.35985 0.24837 0.36135 0.0
H3471 H 0.3398 0.21955 0.36102 0.0
C3472 C 0.36066 0.60473 0.52728 0.0
C3473 C 0.35286 0.61976 0.51016 0.0
C3474 C 0.37966 0.59192 0.52352 0.0
C3475 C 0.39103 0.59385 0.50188 0.0
C3476 C 0.38405 0.60988 0.48501 0.0
C3477 C 0.3651 0.6228 0.48942 0.0
C3478 C 0.38677 0.57544 0.54226 0.0
C3479 C 0.39579 0.61245 0.46177 0.0
C3480 C 0.45038 0.56962 0.50334 0.0
C3481 C 0.44257 0.54527 0.49351 0.0
C3482 C 0.43407 0.58607 0.50523 0.0
C3483 C 0.40926 0.57801 0.49666 0.0
C3484 C 0.40144 0.55371 0.48553 0.0
C3485 C 0.41817 0.53758 0.48428 0.0
C3486 C 0.44314 0.61161 0.51765 0.0
C3487 C 0.37516 0.54438 0.47604 0.0
H3488 H 0.35143 0.60246 0.54347 0.0
H3489 H 0.35906 0.63427 0.47606 0.0
H3490 H 0.38068 0.55599 0.53486 0.0
H3491 H 0.40678 0.57837 0.54655 0.0
H3492 H 0.37852 0.57855 0.55943 0.0
H3493 H 0.38978 0.6271 0.45152 0.0
H3494 H 0.41585 0.61658 0.46578 0.0
H3495 H 0.39114 0.59484 0.44995 0.0
H3496 H 0.46898 0.57551 0.51078 0.0
H3497 H 0.41199 0.51872 0.47665 0.0
H3498 H 0.43371 0.61448 0.53407 0.0
H3499 H 0.43896 0.6254 0.50529 0.0
H3500 H 0.46301 0.61502 0.52327 0.0
H3501 H 0.36404 0.54304 0.49154 0.0
H3502 H 0.3725 0.52604 0.46557 0.0
H3503 H 0.36824 0.55738 0.46418 0.0
C3504 C 0.8278 0.92883 0.55456 0.0
C3505 C 0.81574 0.94881 0.55754 0.0
C3506 C 0.85308 0.93264 0.55417 0.0
C3507 C 0.86629 0.9569 0.55723 0.0
C3508 C 0.85448 0.97672 0.56355 0.0
C3509 C 0.82921 0.97247 0.56327 0.0
C3510 C 0.86509 0.91102 0.5476 0.0
C3511 C 0.86809 0.00278 0.5678 0.0
C3512 C 0.93445 0.97335 0.55607 0.0
C3513 C 0.93546 0.98003 0.5323 0.0
C3514 C 0.91208 0.96459 0.56438 0.0
C3515 C 0.89049 0.96226 0.54837 0.0
C3516 C 0.89171 0.96746 0.5239 0.0
C3517 C 0.91417 0.97646 0.51624 0.0
C3518 C 0.91155 0.95924 0.59057 0.0
C3519 C 0.86915 0.9646 0.506 0.0
H3520 H 0.81734 0.9105 0.55019 0.0
H3521 H 0.81983 0.98785 0.56594 0.0
H3522 H 0.86757 0.9101 0.52794 0.0
H3523 H 0.8833 0.91298 0.55795 0.0
H3524 H 0.85389 0.89348 0.55108 0.0
H3525 H 0.85734 0.01528 0.57677 0.0
H3526 H 0.8856 0.00379 0.57922 0.0
H3527 H 0.8722 0.00942 0.55006 0.0
H3528 H 0.95098 0.97592 0.56848 0.0
H3529 H 0.915 0.98104 0.49768 0.0
H3530 H 0.89757 0.94306 0.59235 0.0
H3531 H 0.90689 0.9752 0.60133 0.0
H3532 H 0.92947 0.956 0.59861 0.0
H3533 H 0.85804 0.94611 0.50586 0.0
H3534 H 0.87349 0.96729 0.48717 0.0
H3535 H 0.85787 0.97824 0.51159 0.0
C3536 C 0.82845 0.14985 0.24455 0.0
C3537 C 0.81747 0.12518 0.24404 0.0
C3538 C 0.81506 0.16881 0.24782 0.0
C3539 C 0.79016 0.16303 0.25116 0.0
C3540 C 0.77905 0.1382 0.25107 0.0
C3541 C 0.79278 0.11954 0.24726 0.0
C3542 C 0.82747 0.19503 0.24737 0.0
C3543 C 0.75257 0.13135 0.25464 0.0
C3544 C 0.76237 0.21542 0.2788 0.0
C3545 C 0.75107 0.22325 0.25801 0.0
C3546 C 0.7747 0.19543 0.27696 0.0
C3547 C 0.77563 0.18303 0.25377 0.0
C3548 C 0.76358 0.1905 0.23283 0.0
C3549 C 0.75145 0.21051 0.23522 0.0
C3550 C 0.78676 0.18761 0.29978 0.0
C3551 C 0.76428 0.17813 0.2077 0.0
H3552 H 0.84751 0.15435 0.24199 0.0
H3553 H 0.78423 0.10053 0.24702 0.0
H3554 H 0.8184 0.20336 0.23233 0.0
H3555 H 0.82589 0.206 0.26461 0.0
H3556 H 0.84702 0.19648 0.24485 0.0
H3557 H 0.74693 0.11132 0.2553 0.0
H3558 H 0.74886 0.14108 0.2718 0.0
H3559 H 0.74118 0.13719 0.23953 0.0
H3560 H 0.76164 0.225 0.29648 0.0
H3561 H 0.74284 0.21664 0.21907 0.0
H3562 H 0.80608 0.18677 0.29787 0.0
H3563 H 0.77774 0.16891 0.30266 0.0
H3564 H 0.78587 0.20023 0.31617 0.0
H3565 H 0.78199 0.18506 0.20121 0.0
H3566 H 0.74953 0.18198 0.19459 0.0
H3567 H 0.76254 0.15798 0.20775 0.0
C3568 C 0.71571 0.10613 0.9894 0.0
C3569 C 0.7195 0.13177 0.99369 0.0
C3570 C 0.69272 0.09199 0.99019 0.0
C3571 C 0.6731 0.10379 0.99542 0.0
C3572 C 0.67663 0.12971 -0.00099 0.0
C3573 C 0.69981 0.1434 -0.00193 0.0
C3574 C 0.6896 0.0644 0.98615 0.0
C3575 C 0.6561 0.14294 0.00456 0.0
C3576 C 0.60838 0.06921 0.9815 0.0
C3577 C 0.60321 0.06265 0.00454 0.0
C3578 C 0.63121 0.08233 0.97814 0.0
C3579 C 0.64916 0.08904 -0.00165 0.0
C3580 C 0.64411 0.08206 0.02158 0.0
C3581 C 0.62116 0.06889 0.02439 0.0
C3582 C 0.63598 0.08935 0.95309 0.0
C3583 C 0.66283 0.08885 0.04355 0.0
H3584 H 0.73085 0.09704 0.9859 0.0
H3585 H 0.70261 0.16321 0.00131 0.0
H3586 H 0.68486 0.05634 0.00307 0.0
H3587 H 0.67443 0.0571 0.97175 0.0
H3588 H 0.7063 0.05814 0.98081 0.0
H3589 H 0.66156 0.16317 0.00566 0.0
H3590 H 0.64045 0.13715 0.99035 0.0
H3591 H 0.64979 0.13804 0.02217 0.0
H3592 H 0.59449 0.06429 0.96612 0.0
H3593 H 0.61713 0.0638 0.04221 0.0
H3594 H 0.65238 0.08264 0.9476 0.0
H3595 H 0.63959 0.10961 0.95336 0.0
H3596 H 0.62044 0.08181 0.93911 0.0
H3597 H 0.67961 0.08172 0.04007 0.0
H3598 H 0.6562 0.08153 0.0602 0.0
H3599 H 0.66781 0.10909 0.04703 0.0
C3600 C 0.18368 0.4307 0.28931 0.0
C3601 C 0.16029 0.42386 0.27686 0.0
C3602 C 0.19985 0.41398 0.29065 0.0
C3603 C 0.1927 0.38992 0.27881 0.0
C3604 C 0.16899 0.3828 0.26642 0.0
C3605 C 0.15297 0.39977 0.26582 0.0
C3606 C 0.22488 0.42232 0.30415 0.0
C3607 C 0.16084 0.35751 0.25313 0.0
C3608 C 0.24395 0.3579 0.26016 0.0
C3609 C 0.24612 0.34223 0.27845 0.0
C3610 C 0.22644 0.37322 0.25988 0.0
C3611 C 0.21057 0.37279 0.27831 0.0
C3612 C 0.21249 0.3567 0.29666 0.0
C3613 C 0.23028 0.34163 0.29652 0.0
C3614 C 0.22488 0.38975 0.23973 0.0
C3615 C 0.19604 0.35572 0.31669 0.0
H3616 H 0.18944 0.44924 0.29797 0.0
H3617 H 0.13498 0.3944 0.25604 0.0
H3618 H 0.22858 0.40945 0.31771 0.0
H3619 H 0.23873 0.42224 0.29116 0.0
H3620 H 0.22711 0.44106 0.31371 0.0
H3621 H 0.14151 0.35441 0.2453 0.0
H3622 H 0.17222 0.35494 0.23815 0.0
H3623 H 0.1633 0.34333 0.26563 0.0
H3624 H 0.25595 0.35816 0.24594 0.0
H3625 H 0.23204 0.32963 0.31077 0.0
H3626 H 0.22377 0.40863 0.24714 0.0
H3627 H 0.20816 0.38272 0.22715 0.0
H3628 H 0.24076 0.39069 0.22913 0.0
H3629 H 0.19912 0.34146 0.32896 0.0
H3630 H 0.17675 0.35188 0.30879 0.0
H3631 H 0.19915 0.37379 0.32769 0.0
C3632 C 0.15039 0.44201 0.03285 0.0
C3633 C 0.17422 0.44411 0.02703 0.0
C3634 C 0.13484 0.45666 0.02276 0.0
C3635 C 0.14318 0.47293 0.00573 0.0
C3636 C 0.16684 0.47398 -0.00124 0.0
C3637 C 0.18228 0.45987 0.00991 0.0
C3638 C 0.10978 0.45525 0.03089 0.0
C3639 C 0.17608 0.49044 0.98009 0.0
C3640 C 0.09096 0.49685 0.97392 0.0
C3641 C 0.09143 0.51845 0.989 0.0
C3642 C 0.10924 0.48276 0.97759 0.0
C3643 C 0.1278 0.49032 0.99713 0.0
C3644 C 0.1296 0.51336 0.01072 0.0
C3645 C 0.11154 0.52739 0.00616 0.0
C3646 C 0.10773 0.45897 0.96184 0.0
C3647 C 0.14899 0.52198 0.03188 0.0
H3648 H 0.14428 0.42962 0.04599 0.0
H3649 H 0.20059 0.46103 0.00504 0.0
H3650 H 0.1069 0.47375 0.03778 0.0
H3651 H 0.09592 0.44844 0.01519 0.0
H3652 H 0.10675 0.44285 0.04543 0.0
H3653 H 0.19287 0.48563 0.97337 0.0
H3654 H 0.16209 0.48937 0.96433 0.0
H3655 H 0.18024 0.50975 0.98831 0.0
H3656 H 0.07549 0.49008 0.96046 0.0
H3657 H 0.11199 0.54423 0.0177 0.0
H3658 H 0.10249 0.44332 0.97255 0.0
H3659 H 0.12571 0.45742 0.95577 0.0
H3660 H 0.09421 0.45735 0.94556 0.0
H3661 H 0.14561 0.5102 0.04684 0.0
H3662 H 0.14924 0.5413 0.039 0.0
H3663 H 0.16719 0.52035 0.0265 0.0
C3664 C 0.85492 0.96136 0.23542 0.0
C3665 C 0.84206 0.98082 0.23326 0.0
C3666 C 0.84291 0.93744 0.23727 0.0
C3667 C 0.81731 0.93264 0.23667 0.0
C3668 C 0.80413 0.95205 0.23405 0.0
C3669 C 0.81666 0.97594 0.23253 0.0
C3670 C 0.85771 0.91736 0.24032 0.0
C3671 C 0.7768 0.94763 0.23306 0.0
C3672 C 0.78678 0.86571 0.22235 0.0
C3673 C 0.78317 0.8587 0.24566 0.0
C3674 C 0.79723 0.88987 0.21907 0.0
C3675 C 0.80455 0.90741 0.23959 0.0
C3676 C 0.80073 0.90051 0.26312 0.0
C3677 C 0.79 0.87634 0.26585 0.0
C3678 C 0.80076 0.89654 0.19365 0.0
C3679 C 0.80853 0.91852 0.28552 0.0
H3680 H 0.87455 0.96487 0.2361 0.0
H3681 H 0.80653 0.99077 0.23076 0.0
H3682 H 0.85485 0.90955 0.2578 0.0
H3683 H 0.85166 0.90225 0.22554 0.0
H3684 H 0.87746 0.92403 0.24011 0.0
H3685 H 0.76914 0.96441 0.22991 0.0
H3686 H 0.76872 0.93303 0.2183 0.0
H3687 H 0.77122 0.94114 0.2504 0.0
H3688 H 0.78148 0.8523 0.20662 0.0
H3689 H 0.78742 0.87116 0.28396 0.0
H3690 H 0.82042 0.90165 0.19193 0.0
H3691 H 0.79231 0.91273 0.19003 0.0
H3692 H 0.79281 0.88124 0.17951 0.0
H3693 H 0.82849 0.92471 0.28728 0.0
H3694 H 0.80362 0.91049 0.30245 0.0
H3695 H 0.8 0.93499 0.28383 0.0
C3696 C 0.67327 0.06298 0.78154 0.0
C3697 C 0.6497 0.06169 0.76995 0.0
C3698 C 0.69009 0.08508 0.78444 0.0
C3699 C 0.68318 0.10628 0.77546 0.0
C3700 C 0.65941 0.10508 0.76384 0.0
C3701 C 0.643 0.08287 0.76128 0.0
C3702 C 0.71525 0.08573 0.797 0.0
C3703 C 0.65131 0.12727 0.75394 0.0
C3704 C 0.71389 0.1715 0.79698 0.0
C3705 C 0.72643 0.17775 0.7771 0.0
C3706 C 0.70103 0.14767 0.79754 0.0
C3707 C 0.70065 0.12982 0.77767 0.0
C3708 C 0.71468 0.13566 0.75835 0.0
C3709 C 0.72746 0.1596 0.75833 0.0
C3710 C 0.68653 0.14211 0.81859 0.0
C3711 C 0.71481 0.11716 0.73686 0.0
H3712 H 0.67861 0.04674 0.78835 0.0
H3713 H 0.62488 0.08213 0.75229 0.0
H3714 H 0.72898 0.09092 0.78438 0.0
H3715 H 0.719 0.09988 0.81286 0.0
H3716 H 0.71763 0.06779 0.80341 0.0
H3717 H 0.63216 0.1233 0.74551 0.0
H3718 H 0.65317 0.14236 0.76876 0.0
H3719 H 0.66307 0.13395 0.74004 0.0
H3720 H 0.71324 0.18551 0.81161 0.0
H3721 H 0.73724 0.1644 0.74298 0.0
H3722 H 0.6893 0.12435 0.82511 0.0
H3723 H 0.6669 0.14051 0.81246 0.0
H3724 H 0.69147 0.15668 0.83407 0.0
H3725 H 0.718 0.09941 0.74308 0.0
H3726 H 0.72891 0.12356 0.72495 0.0
H3727 H 0.69681 0.11376 0.72585 0.0
loop_
_geom_bond_atom_site_label_1
_geom_bond_atom_site_label_2
_geom_bond_distance
_geom_bond_site_symmetry_2
_ccdc_geom_bond_type
C0 O1 1.306 . S
C0 O3 1.160 . S
O1 C0 1.306 . S
O1 Cd2 2.228 1_655 S
Cd2 O1 2.228 1_455 S
Cd2 O6 2.273 . S
Cd2 O10 2.277 . S
O3 C0 1.160 . S
O3 Cd4 2.203 1_655 S
Cd4 O3 2.203 1_455 S
Cd4 O6 2.411 . S
Cd4 O7 2.333 . S
Cd4 O8 2.352 . S
Cd4 O12 2.277 . S
Cd4 O13 2.356 . S
C5 O10 1.209 . S
C5 O12 1.226 . S
O6 Cd2 2.273 . S
O6 Cd4 2.411 . S
O6 C9 1.320 . S
O7 Cd4 2.333 . S
O7 C9 1.214 . S
O8 Cd4 2.352 . S
O8 C11 1.258 . S
C9 O6 1.320 . S
C9 O7 1.214 . S
O10 Cd2 2.277 . S
O10 C5 1.209 . S
C11 O8 1.258 . S
C11 O13 1.282 . S
O12 Cd4 2.277 . S
O12 C5 1.226 . S
O13 Cd4 2.356 . S
O13 C11 1.282 . S
C14 O15 1.306 . S
C14 O17 1.160 . S
O15 C14 1.306 . S
O15 Cd16 2.228 1_655 S
Cd16 O15 2.228 1_455 S
Cd16 O20 2.273 . S
Cd16 O24 2.277 1_455 S
O17 C14 1.160 . S
O17 Cd18 2.203 1_655 S
Cd18 O17 2.203 1_455 S
Cd18 O20 2.411 . S
Cd18 O21 2.333 . S
Cd18 O22 2.352 . S
Cd18 O26 2.277 1_455 S
Cd18 O27 2.356 . S
C19 O24 1.209 . S
C19 O26 1.226 . S
O20 Cd16 2.273 . S
O20 Cd18 2.411 . S
O20 C23 1.320 . S
O21 Cd18 2.333 . S
O21 C23 1.214 . S
O22 Cd18 2.352 . S
O22 C25 1.258 . S
C23 O20 1.320 . S
C23 O21 1.214 . S
O24 Cd16 2.277 1_655 S
O24 C19 1.209 . S
C25 O22 1.258 . S
C25 O27 1.282 . S
O26 Cd18 2.277 1_655 S
O26 C19 1.226 . S
O27 Cd18 2.356 . S
O27 C25 1.282 . S
C28 O29 1.306 . S
C28 O31 1.160 . S
O29 C28 1.306 . S
O29 Cd30 2.228 . S
Cd30 O29 2.228 . S
Cd30 O34 2.273 . S
Cd30 O38 2.277 . S
O31 C28 1.160 . S
O31 Cd32 2.203 . S
Cd32 O31 2.203 . S
Cd32 O34 2.411 . S
Cd32 O35 2.333 . S
Cd32 O36 2.352 . S
Cd32 O40 2.277 . S
Cd32 O41 2.356 . S
C33 O38 1.209 . S
C33 O40 1.226 . S
O34 Cd30 2.273 . S
O34 Cd32 2.411 . S
O34 C37 1.320 . S
O35 Cd32 2.333 . S
O35 C37 1.214 . S
O36 Cd32 2.352 . S
O36 C39 1.258 . S
C37 O34 1.320 . S
C37 O35 1.214 . S
O38 Cd30 2.277 . S
O38 C33 1.209 . S
C39 O36 1.258 . S
C39 O41 1.282 . S
O40 Cd32 2.277 . S
O40 C33 1.226 . S
O41 Cd32 2.356 . S
O41 C39 1.282 . S
C42 O43 1.306 . S
C42 O45 1.160 . S
O43 C42 1.306 . S
O43 Cd44 2.228 . S
Cd44 O43 2.228 . S
Cd44 O48 2.273 . S
Cd44 O52 2.277 . S
O45 C42 1.160 . S
O45 Cd46 2.203 . S
Cd46 O45 2.203 . S
Cd46 O48 2.411 . S
Cd46 O49 2.333 . S
Cd46 O50 2.352 . S
Cd46 O54 2.277 . S
Cd46 O55 2.356 . S
C47 O52 1.209 . S
C47 O54 1.226 . S
O48 Cd44 2.273 . S
O48 Cd46 2.411 . S
O48 C51 1.320 . S
O49 Cd46 2.333 . S
O49 C51 1.214 . S
O50 Cd46 2.352 . S
O50 C53 1.258 . S
C51 O48 1.320 . S
C51 O49 1.214 . S
O52 Cd44 2.277 . S
O52 C47 1.209 . S
C53 O50 1.258 . S
C53 O55 1.282 . S
O54 Cd46 2.277 . S
O54 C47 1.226 . S
O55 Cd46 2.356 . S
O55 C53 1.282 . S
C56 O57 1.306 . S
C56 O59 1.160 . S
O57 C56 1.306 . S
O57 Cd58 2.228 1_655 S
Cd58 O57 2.228 1_455 S
Cd58 O62 2.273 . S
Cd58 O66 2.277 . S
O59 C56 1.160 . S
O59 Cd60 2.203 1_655 S
Cd60 O59 2.203 1_455 S
Cd60 O62 2.411 . S
Cd60 O63 2.333 . S
Cd60 O64 2.352 . S
Cd60 O68 2.277 . S
Cd60 O69 2.356 . S
C61 O66 1.209 . S
C61 O68 1.226 . S
O62 Cd58 2.273 . S
O62 Cd60 2.411 . S
O62 C65 1.320 . S
O63 Cd60 2.333 . S
O63 C65 1.214 . S
O64 Cd60 2.352 . S
O64 C67 1.258 . S
C65 O62 1.320 . S
C65 O63 1.214 . S
O66 Cd58 2.277 . S
O66 C61 1.209 . S
C67 O64 1.258 . S
C67 O69 1.282 . S
O68 Cd60 2.277 . S
O68 C61 1.226 . S
O69 Cd60 2.356 . S
O69 C67 1.282 . S
C70 O71 1.306 . S
C70 O73 1.160 . S
O71 C70 1.306 . S
O71 Cd72 2.228 . S
Cd72 O71 2.228 . S
Cd72 O76 2.273 . S
Cd72 O80 2.277 . S
O73 C70 1.160 . S
O73 Cd74 2.203 . S
Cd74 O73 2.203 . S
Cd74 O76 2.411 . S
Cd74 O77 2.333 . S
Cd74 O78 2.352 . S
Cd74 O82 2.277 . S
Cd74 O83 2.356 . S
C75 O80 1.209 . S
C75 O82 1.226 . S
O76 Cd72 2.273 . S
O76 Cd74 2.411 . S
O76 C79 1.320 . S
O77 Cd74 2.333 . S
O77 C79 1.214 . S
O78 Cd74 2.352 . S
O78 C81 1.258 . S
C79 O76 1.320 . S
C79 O77 1.214 . S
O80 Cd72 2.277 . S
O80 C75 1.209 . S
C81 O78 1.258 . S
C81 O83 1.282 . S
O82 Cd74 2.277 . S
O82 C75 1.226 . S
O83 Cd74 2.356 . S
O83 C81 1.282 . S
C84 O85 1.306 . S
C84 O87 1.160 . S
O85 C84 1.306 . S
O85 Cd86 2.228 . S
Cd86 O85 2.228 . S
Cd86 O90 2.273 . S
Cd86 O94 2.277 . S
O87 C84 1.160 . S
O87 Cd88 2.203 . S
Cd88 O87 2.203 . S
Cd88 O90 2.411 . S
Cd88 O91 2.333 . S
Cd88 O92 2.352 . S
Cd88 O96 2.277 . S
Cd88 O97 2.356 . S
C89 O94 1.209 . S
C89 O96 1.226 . S
O90 Cd86 2.273 . S
O90 Cd88 2.411 . S
O90 C93 1.320 . S
O91 Cd88 2.333 . S
O91 C93 1.214 . S
O92 Cd88 2.352 . S
O92 C95 1.258 . S
C93 O90 1.320 . S
C93 O91 1.214 . S
O94 Cd86 2.277 . S
O94 C89 1.209 . S
C95 O92 1.258 . S
C95 O97 1.282 . S
O96 Cd88 2.277 . S
O96 C89 1.226 . S
O97 Cd88 2.356 . S
O97 C95 1.282 . S
C98 O99 1.306 . S
C98 O101 1.160 . S
O99 C98 1.306 . S
O99 Cd100 2.228 1_655 S
Cd100 O99 2.228 1_455 S
Cd100 O104 2.273 . S
Cd100 O108 2.277 . S
O101 C98 1.160 . S
O101 Cd102 2.203 1_655 S
Cd102 O101 2.203 1_455 S
Cd102 O104 2.411 . S
Cd102 O105 2.333 . S
Cd102 O106 2.352 . S
Cd102 O110 2.277 . S
Cd102 O111 2.356 . S
C103 O108 1.209 . S
C103 O110 1.226 . S
O104 Cd100 2.273 . S
O104 Cd102 2.411 . S
O104 C107 1.320 . S
O105 Cd102 2.333 . S
O105 C107 1.214 . S
O106 Cd102 2.352 . S
O106 C109 1.258 . S
C107 O104 1.320 . S
C107 O105 1.214 . S
O108 Cd100 2.277 . S
O108 C103 1.209 . S
C109 O106 1.258 . S
C109 O111 1.282 . S
O110 Cd102 2.277 . S
O110 C103 1.226 . S
O111 Cd102 2.356 . S
O111 C109 1.282 . S
C112 O113 1.306 . S
C112 O115 1.160 . S
O113 C112 1.306 . S
O113 Cd114 2.228 . S
Cd114 O113 2.228 . S
Cd114 O118 2.273 . S
Cd114 O122 2.275 1_545 S
O115 C112 1.160 . S
O115 Cd116 2.203 . S
Cd116 O115 2.203 . S
Cd116 O118 2.411 . S
Cd116 O119 2.333 . S
Cd116 O120 2.352 . S
Cd116 O124 2.277 . S
Cd116 O125 2.356 . S
C117 O122 1.209 . S
C117 O124 1.226 1_565 S
O118 Cd114 2.273 . S
O118 Cd116 2.411 . S
O118 C121 1.320 . S
O119 Cd116 2.333 . S
O119 C121 1.214 . S
O120 Cd116 2.352 . S
O120 C123 1.258 . S
C121 O118 1.320 . S
C121 O119 1.214 . S
O122 Cd114 2.275 1_565 S
O122 C117 1.209 . S
C123 O120 1.258 . S
C123 O125 1.282 . S
O124 Cd116 2.277 . S
O124 C117 1.226 1_545 S
O125 Cd116 2.356 . S
O125 C123 1.282 . S
C126 O127 1.306 . S
C126 O129 1.160 . S
O127 C126 1.306 . S
O127 Cd128 2.228 . S
Cd128 O127 2.228 . S
Cd128 O132 2.273 . S
Cd128 O136 2.277 . S
O129 C126 1.160 . S
O129 Cd130 2.203 . S
Cd130 O129 2.203 . S
Cd130 O132 2.411 . S
Cd130 O133 2.333 . S
Cd130 O134 2.352 . S
Cd130 O138 2.277 . S
Cd130 O139 2.356 . S
C131 O136 1.209 . S
C131 O138 1.226 . S
O132 Cd128 2.273 . S
O132 Cd130 2.411 . S
O132 C135 1.320 . S
O133 Cd130 2.333 . S
O133 C135 1.214 . S
O134 Cd130 2.352 . S
O134 C137 1.258 . S
C135 O132 1.320 . S
C135 O133 1.214 . S
O136 Cd128 2.277 . S
O136 C131 1.209 . S
C137 O134 1.258 . S
C137 O139 1.282 . S
O138 Cd130 2.277 . S
O138 C131 1.226 . S
O139 Cd130 2.356 . S
O139 C137 1.282 . S
C140 O141 1.306 . S
C140 O143 1.144 1_545 S
O141 C140 1.306 . S
O141 Cd142 2.228 . S
Cd142 O141 2.228 . S
Cd142 O146 2.273 1_545 S
Cd142 O150 2.277 . S
O143 C140 1.144 1_565 S
O143 Cd144 2.204 . S
Cd144 O143 2.204 . S
Cd144 O146 2.411 . S
Cd144 O147 2.333 . S
Cd144 O148 2.352 . S
Cd144 O152 2.277 1_565 S
Cd144 O153 2.356 . S
C145 O150 1.209 . S
C145 O152 1.226 . S
O146 Cd142 2.273 1_565 S
O146 Cd144 2.411 . S
O146 C149 1.320 . S
O147 Cd144 2.333 . S
O147 C149 1.214 . S
O148 Cd144 2.352 . S
O148 C151 1.258 . S
C149 O146 1.320 . S
C149 O147 1.214 . S
O150 Cd142 2.277 . S
O150 C145 1.209 . S
C151 O148 1.258 . S
C151 O153 1.282 . S
O152 Cd144 2.277 1_545 S
O152 C145 1.226 . S
O153 Cd144 2.356 . S
O153 C151 1.282 . S
C154 O155 1.306 . S
C154 O157 1.160 . S
O155 C154 1.306 . S
O155 Cd156 2.228 1_554 S
Cd156 O155 2.228 1_556 S
Cd156 O160 2.273 1_556 S
Cd156 O164 2.277 . S
O157 C154 1.160 . S
O157 Cd158 2.203 . S
Cd158 O157 2.203 . S
Cd158 O160 2.411 . S
Cd158 O161 2.333 . S
Cd158 O162 2.352 . S
Cd158 O166 2.277 1_554 S
Cd158 O167 2.356 . S
C159 O164 1.209 . S
C159 O166 1.226 . S
O160 Cd156 2.273 1_554 S
O160 Cd158 2.411 . S
O160 C163 1.320 . S
O161 Cd158 2.333 . S
O161 C163 1.214 . S
O162 Cd158 2.352 . S
O162 C165 1.258 . S
C163 O160 1.320 . S
C163 O161 1.214 . S
O164 Cd156 2.277 . S
O164 C159 1.209 . S
C165 O162 1.258 . S
C165 O167 1.282 . S
O166 Cd158 2.277 1_556 S
O166 C159 1.226 . S
O167 Cd158 2.356 . S
O167 C165 1.282 . S
C168 O169 1.306 . S
C168 O171 1.160 . S
O169 C168 1.306 . S
O169 Cd170 2.228 1_554 S
Cd170 O169 2.228 1_556 S
Cd170 O174 2.273 1_556 S
Cd170 O178 2.277 . S
O171 C168 1.160 . S
O171 Cd172 2.203 . S
Cd172 O171 2.203 . S
Cd172 O174 2.411 . S
Cd172 O175 2.333 . S
Cd172 O176 2.352 . S
Cd172 O180 2.277 1_554 S
Cd172 O181 2.356 . S
C173 O178 1.209 . S
C173 O180 1.226 . S
O174 Cd170 2.273 1_554 S
O174 Cd172 2.411 . S
O174 C177 1.320 . S
O175 Cd172 2.333 . S
O175 C177 1.214 . S
O176 Cd172 2.352 . S
O176 C179 1.258 . S
C177 O174 1.320 . S
C177 O175 1.214 . S
O178 Cd170 2.277 . S
O178 C173 1.209 . S
C179 O176 1.258 . S
C179 O181 1.282 . S
O180 Cd172 2.277 1_556 S
O180 C173 1.226 . S
O181 Cd172 2.356 . S
O181 C179 1.282 . S
C182 O183 1.306 . S
C182 O185 1.152 1_554 S
O183 C182 1.306 . S
O183 Cd184 2.228 . S
Cd184 O183 2.228 . S
Cd184 O188 2.273 1_554 S
Cd184 O192 2.277 . S
O185 C182 1.152 1_556 S
O185 Cd186 2.203 . S
Cd186 O185 2.203 . S
Cd186 O188 2.411 . S
Cd186 O189 2.333 . S
Cd186 O190 2.352 . S
Cd186 O194 2.277 1_556 S
Cd186 O195 2.356 . S
C187 O192 1.209 . S
C187 O194 1.226 . S
O188 Cd184 2.273 1_556 S
O188 Cd186 2.411 . S
O188 C191 1.320 . S
O189 Cd186 2.333 . S
O189 C191 1.214 . S
O190 Cd186 2.352 . S
O190 C193 1.258 . S
C191 O188 1.320 . S
C191 O189 1.214 . S
O192 Cd184 2.277 . S
O192 C187 1.209 . S
C193 O190 1.258 . S
C193 O195 1.282 . S
O194 Cd186 2.277 1_554 S
O194 C187 1.226 . S
O195 Cd186 2.356 . S
O195 C193 1.282 . S
C196 O197 1.306 . S
C196 O199 1.160 . S
O197 C196 1.306 . S
O197 Cd198 2.228 . S
Cd198 O197 2.228 . S
Cd198 O202 2.273 . S
Cd198 O206 2.277 . S
O199 C196 1.160 . S
O199 Cd200 2.203 . S
Cd200 O199 2.203 . S
Cd200 O202 2.411 . S
Cd200 O203 2.333 . S
Cd200 O204 2.352 . S
Cd200 O208 2.277 . S
Cd200 O209 2.356 . S
C201 O206 1.209 . S
C201 O208 1.226 . S
O202 Cd198 2.273 . S
O202 Cd200 2.411 . S
O202 C205 1.320 . S
O203 Cd200 2.333 . S
O203 C205 1.214 . S
O204 Cd200 2.352 . S
O204 C207 1.258 . S
C205 O202 1.320 . S
C205 O203 1.214 . S
O206 Cd198 2.277 . S
O206 C201 1.209 . S
C207 O204 1.258 . S
C207 O209 1.282 . S
O208 Cd200 2.277 . S
O208 C201 1.226 . S
O209 Cd200 2.356 . S
O209 C207 1.282 . S
C210 O211 1.306 . S
C210 O213 1.160 . S
O211 C210 1.306 . S
O211 Cd212 2.228 . S
Cd212 O211 2.228 . S
Cd212 O216 2.273 . S
Cd212 O220 2.277 . S
O213 C210 1.160 . S
O213 Cd214 2.203 . S
Cd214 O213 2.203 . S
Cd214 O216 2.411 . S
Cd214 O217 2.333 . S
Cd214 O218 2.352 . S
Cd214 O222 2.277 . S
Cd214 O223 2.356 . S
C215 O220 1.209 . S
C215 O222 1.226 . S
O216 Cd212 2.273 . S
O216 Cd214 2.411 . S
O216 C219 1.320 . S
O217 Cd214 2.333 . S
O217 C219 1.214 . S
O218 Cd214 2.352 . S
O218 C221 1.258 . S
C219 O216 1.320 . S
C219 O217 1.214 . S
O220 Cd212 2.277 . S
O220 C215 1.209 . S
C221 O218 1.258 . S
C221 O223 1.282 . S
O222 Cd214 2.277 . S
O222 C215 1.226 . S
O223 Cd214 2.356 . S
O223 C221 1.282 . S
C224 O225 1.306 . S
C224 O227 1.160 . S
O225 C224 1.306 . S
O225 Cd226 2.228 . S
Cd226 O225 2.228 . S
Cd226 O230 2.273 . S
Cd226 O234 2.277 . S
O227 C224 1.160 . S
O227 Cd228 2.203 . S
Cd228 O227 2.203 . S
Cd228 O230 2.411 . S
Cd228 O231 2.333 . S
Cd228 O232 2.352 . S
Cd228 O236 2.277 . S
Cd228 O237 2.356 . S
C229 O234 1.209 . S
C229 O236 1.226 . S
O230 Cd226 2.273 . S
O230 Cd228 2.411 . S
O230 C233 1.320 . S
O231 Cd228 2.333 . S
O231 C233 1.214 . S
O232 Cd228 2.352 . S
O232 C235 1.258 . S
C233 O230 1.320 . S
C233 O231 1.214 . S
O234 Cd226 2.277 . S
O234 C229 1.209 . S
C235 O232 1.258 . S
C235 O237 1.282 . S
O236 Cd228 2.277 . S
O236 C229 1.226 . S
O237 Cd228 2.356 . S
O237 C235 1.282 . S
C238 O239 1.306 . S
C238 O241 1.160 . S
O239 C238 1.306 . S
O239 Cd240 2.228 . S
Cd240 O239 2.228 . S
Cd240 O244 2.273 . S
Cd240 O248 2.277 . S
O241 C238 1.160 . S
O241 Cd242 2.203 . S
Cd242 O241 2.203 . S
Cd242 O244 2.411 . S
Cd242 O245 2.333 . S
Cd242 O246 2.352 . S
Cd242 O250 2.277 . S
Cd242 O251 2.356 . S
C243 O248 1.209 . S
C243 O250 1.226 . S
O244 Cd240 2.273 . S
O244 Cd242 2.411 . S
O244 C247 1.320 . S
O245 Cd242 2.333 . S
O245 C247 1.214 . S
O246 Cd242 2.352 . S
O246 C249 1.258 . S
C247 O244 1.320 . S
C247 O245 1.214 . S
O248 Cd240 2.277 . S
O248 C243 1.209 . S
C249 O246 1.258 . S
C249 O251 1.282 . S
O250 Cd242 2.277 . S
O250 C243 1.226 . S
O251 Cd242 2.356 . S
O251 C249 1.282 . S
C252 O253 1.306 . S
C252 O255 1.160 . S
O253 C252 1.306 . S
O253 Cd254 2.228 . S
Cd254 O253 2.228 . S
Cd254 O258 2.273 . S
Cd254 O262 2.277 . S
O255 C252 1.160 . S
O255 Cd256 2.203 . S
Cd256 O255 2.203 . S
Cd256 O258 2.411 . S
Cd256 O259 2.333 . S
Cd256 O260 2.352 . S
Cd256 O264 2.277 . S
Cd256 O265 2.356 . S
C257 O262 1.209 . S
C257 O264 1.226 . S
O258 Cd254 2.273 . S
O258 Cd256 2.411 . S
O258 C261 1.320 . S
O259 Cd256 2.333 . S
O259 C261 1.214 . S
O260 Cd256 2.352 . S
O260 C263 1.258 . S
C261 O258 1.320 . S
C261 O259 1.214 . S
O262 Cd254 2.277 . S
O262 C257 1.209 . S
C263 O260 1.258 . S
C263 O265 1.282 . S
O264 Cd256 2.277 . S
O264 C257 1.226 . S
O265 Cd256 2.356 . S
O265 C263 1.282 . S
C266 O267 1.306 . S
C266 O269 1.160 . S
O267 C266 1.306 . S
O267 Cd268 2.228 . S
Cd268 O267 2.228 . S
Cd268 O272 2.273 . S
Cd268 O276 2.277 . S
O269 C266 1.160 . S
O269 Cd270 2.203 . S
Cd270 O269 2.203 . S
Cd270 O272 2.411 . S
Cd270 O273 2.333 . S
Cd270 O274 2.352 1_545 S
Cd270 O278 2.277 . S
Cd270 O279 2.356 1_545 S
C271 O276 1.209 . S
C271 O278 1.226 . S
O272 Cd268 2.273 . S
O272 Cd270 2.411 . S
O272 C275 1.320 . S
O273 Cd270 2.333 . S
O273 C275 1.214 . S
O274 Cd270 2.352 1_565 S
O274 C277 1.258 . S
C275 O272 1.320 . S
C275 O273 1.214 . S
O276 Cd268 2.277 . S
O276 C271 1.209 . S
C277 O274 1.258 . S
C277 O279 1.282 . S
O278 Cd270 2.277 . S
O278 C271 1.226 . S
O279 Cd270 2.356 1_565 S
O279 C277 1.282 . S
C280 O281 1.306 . S
C280 O283 1.160 . S
O281 C280 1.306 . S
O281 Cd282 2.228 . S
Cd282 O281 2.228 . S
Cd282 O286 2.273 . S
Cd282 O290 2.277 . S
O283 C280 1.160 . S
O283 Cd284 2.203 1_554 S
Cd284 O283 2.203 1_556 S
Cd284 O286 2.411 1_556 S
Cd284 O287 2.333 . S
Cd284 O288 2.352 . S
Cd284 O292 2.277 1_556 S
Cd284 O293 2.356 . S
C285 O290 1.209 . S
C285 O292 1.226 . S
O286 Cd282 2.273 . S
O286 Cd284 2.411 1_554 S
O286 C289 1.320 1_554 S
O287 Cd284 2.333 . S
O287 C289 1.214 . S
O288 Cd284 2.352 . S
O288 C291 1.258 . S
C289 O286 1.320 1_556 S
C289 O287 1.214 . S
O290 Cd282 2.277 . S
O290 C285 1.209 . S
C291 O288 1.258 . S
C291 O293 1.282 . S
O292 Cd284 2.277 1_554 S
O292 C285 1.226 . S
O293 Cd284 2.356 . S
O293 C291 1.282 . S
C294 O295 1.306 . S
C294 O297 1.160 . S
O295 C294 1.306 . S
O295 Cd296 2.228 . S
Cd296 O295 2.228 . S
Cd296 O300 2.273 . S
Cd296 O304 2.277 . S
O297 C294 1.160 . S
O297 Cd298 2.203 . S
Cd298 O297 2.203 . S
Cd298 O300 2.411 . S
Cd298 O301 2.333 . S
Cd298 O302 2.352 . S
Cd298 O306 2.277 . S
Cd298 O307 2.356 . S
C299 O304 1.209 . S
C299 O306 1.226 . S
O300 Cd296 2.273 . S
O300 Cd298 2.411 . S
O300 C303 1.320 . S
O301 Cd298 2.333 . S
O301 C303 1.214 . S
O302 Cd298 2.352 . S
O302 C305 1.258 . S
C303 O300 1.320 . S
C303 O301 1.214 . S
O304 Cd296 2.277 . S
O304 C299 1.209 . S
C305 O302 1.258 . S
C305 O307 1.282 . S
O306 Cd298 2.277 . S
O306 C299 1.226 . S
O307 Cd298 2.356 . S
O307 C305 1.282 . S
C308 O309 1.306 . S
C308 O311 1.160 . S
O309 C308 1.306 . S
O309 Cd310 2.228 . S
Cd310 O309 2.228 . S
Cd310 O314 2.273 . S
Cd310 O318 2.277 . S
O311 C308 1.160 . S
O311 Cd312 2.203 . S
Cd312 O311 2.203 . S
Cd312 O314 2.411 . S
Cd312 O315 2.333 . S
Cd312 O316 2.352 . S
Cd312 O320 2.277 . S
Cd312 O321 2.356 . S
C313 O318 1.209 . S
C313 O320 1.226 . S
O314 Cd310 2.273 . S
O314 Cd312 2.411 . S
O314 C317 1.320 . S
O315 Cd312 2.333 . S
O315 C317 1.214 . S
O316 Cd312 2.352 . S
O316 C319 1.258 . S
C317 O314 1.320 . S
C317 O315 1.214 . S
O318 Cd310 2.277 . S
O318 C313 1.209 . S
C319 O316 1.258 . S
C319 O321 1.282 . S
O320 Cd312 2.277 . S
O320 C313 1.226 . S
O321 Cd312 2.356 . S
O321 C319 1.282 . S
C322 O323 1.306 . S
C322 O325 1.160 . S
O323 C322 1.306 . S
O323 Cd324 2.228 . S
Cd324 O323 2.228 . S
Cd324 O328 2.273 . S
Cd324 O332 2.277 . S
O325 C322 1.160 . S
O325 Cd326 2.203 . S
Cd326 O325 2.203 . S
Cd326 O328 2.411 . S
Cd326 O329 2.333 . S
Cd326 O330 2.352 . S
Cd326 O334 2.277 . S
Cd326 O335 2.356 . S
C327 O332 1.209 . S
C327 O334 1.226 . S
O328 Cd324 2.273 . S
O328 Cd326 2.411 . S
O328 C331 1.320 . S
O329 Cd326 2.333 . S
O329 C331 1.214 . S
O330 Cd326 2.352 . S
O330 C333 1.258 . S
C331 O328 1.320 . S
C331 O329 1.214 . S
O332 Cd324 2.277 . S
O332 C327 1.209 . S
C333 O330 1.258 . S
C333 O335 1.282 . S
O334 Cd326 2.277 . S
O334 C327 1.226 . S
O335 Cd326 2.356 . S
O335 C333 1.282 . S
Tb336 O339 2.453 . S
Tb336 O340 2.596 . S
Tb336 O341 2.374 1_554 S
Tb336 O349 2.343 1_455 S
Tb336 O351 2.353 . S
Tb336 O353 2.427 . S
Tb336 O354 2.513 1_554 S
C337 O341 1.251 . S
C337 O343 1.263 . S
Tb338 O340 2.343 1_665 S
Tb338 O343 2.353 1_664 S
Tb338 O346 2.427 1_655 S
Tb338 O347 2.513 1_655 S
Tb338 O348 2.453 1_564 S
Tb338 O349 2.596 1_565 S
Tb338 O350 2.374 1_565 S
O339 Tb336 2.453 . S
O339 C355 1.245 . S
O340 Tb336 2.596 . S
O340 Tb338 2.343 1_445 S
O340 C355 1.259 . S
O341 Tb336 2.374 1_556 S
O341 C337 1.251 . S
C342 O346 1.275 . S
C342 O347 1.246 . S
O343 C337 1.263 . S
O343 Tb338 2.353 1_446 S
C344 O348 1.245 1_554 S
C344 O349 1.259 . S
C345 O350 1.250 . S
C345 O351 1.263 1_655 S
O346 Tb338 2.427 1_455 S
O346 C342 1.275 . S
O347 Tb338 2.513 1_455 S
O347 C342 1.246 . S
O348 Tb338 2.453 1_546 S
O348 C344 1.245 1_556 S
O349 Tb336 2.343 1_655 S
O349 Tb338 2.596 1_545 S
O349 C344 1.259 . S
O350 Tb338 2.374 1_545 S
O350 C345 1.250 . S
O351 Tb336 2.353 . S
O351 C345 1.263 1_455 S
C352 O353 1.275 . S
C352 O354 1.246 1_554 S
O353 Tb336 2.427 . S
O353 C352 1.275 . S
O354 Tb336 2.513 1_556 S
O354 C352 1.246 1_556 S
C355 O339 1.245 . S
C355 O340 1.259 . S
Tb356 O359 2.453 . S
Tb356 O360 2.596 . S
Tb356 O361 2.374 . S
Tb356 O369 2.343 . S
Tb356 O371 2.353 . S
Tb356 O373 2.427 . S
Tb356 O374 2.513 . S
C357 O361 1.251 . S
C357 O363 1.263 . S
Tb358 O360 2.343 . S
Tb358 O363 2.353 . S
Tb358 O366 2.427 . S
Tb358 O367 2.513 . S
Tb358 O368 2.453 . S
Tb358 O369 2.596 . S
Tb358 O370 2.374 . S
O359 Tb356 2.453 . S
O359 C375 1.245 . S
O360 Tb356 2.596 . S
O360 Tb358 2.343 . S
O360 C375 1.259 . S
O361 Tb356 2.374 . S
O361 C357 1.251 . S
C362 O366 1.275 . S
C362 O367 1.246 . S
O363 C357 1.263 . S
O363 Tb358 2.353 . S
C364 O368 1.245 . S
C364 O369 1.259 . S
C365 O370 1.250 . S
C365 O371 1.263 . S
O366 Tb358 2.427 . S
O366 C362 1.275 . S
O367 Tb358 2.513 . S
O367 C362 1.246 . S
O368 Tb358 2.453 . S
O368 C364 1.245 . S
O369 Tb356 2.343 . S
O369 Tb358 2.596 . S
O369 C364 1.259 . S
O370 Tb358 2.374 . S
O370 C365 1.250 . S
O371 Tb356 2.353 . S
O371 C365 1.263 . S
C372 O373 1.275 . S
C372 O374 1.246 . S
O373 Tb356 2.427 . S
O373 C372 1.275 . S
O374 Tb356 2.513 . S
O374 C372 1.246 . S
C375 O359 1.245 . S
C375 O360 1.259 . S
Tb376 O379 2.453 . S
Tb376 O380 2.596 . S
Tb376 O381 2.374 . S
Tb376 O389 2.343 . S
Tb376 O391 2.353 . S
Tb376 O393 2.427 . S
Tb376 O394 2.513 . S
C377 O381 1.251 . S
C377 O383 1.263 . S
Tb378 O380 2.343 . S
Tb378 O383 2.353 . S
Tb378 O386 2.427 . S
Tb378 O387 2.513 . S
Tb378 O388 2.453 1_545 S
Tb378 O389 2.596 . S
Tb378 O390 2.374 . S
O379 Tb376 2.453 . S
O379 C395 1.245 . S
O380 Tb376 2.596 . S
O380 Tb378 2.343 . S
O380 C395 1.259 . S
O381 Tb376 2.374 . S
O381 C377 1.251 . S
C382 O386 1.275 . S
C382 O387 1.246 . S
O383 C377 1.263 . S
O383 Tb378 2.353 . S
C384 O388 1.245 . S
C384 O389 1.259 1_565 S
C385 O390 1.250 . S
C385 O391 1.263 . S
O386 Tb378 2.427 . S
O386 C382 1.275 . S
O387 Tb378 2.513 . S
O387 C382 1.246 . S
O388 Tb378 2.453 1_565 S
O388 C384 1.245 . S
O389 Tb376 2.343 . S
O389 Tb378 2.596 . S
O389 C384 1.259 1_545 S
O390 Tb378 2.374 . S
O390 C385 1.250 . S
O391 Tb376 2.353 . S
O391 C385 1.263 . S
C392 O393 1.240 1_565 S
C392 O394 1.243 1_565 S
O393 Tb376 2.427 . S
O393 C392 1.240 1_545 S
O394 Tb376 2.513 . S
O394 C392 1.243 1_545 S
C395 O379 1.245 . S
C395 O380 1.259 . S
Tb396 O399 2.453 . S
Tb396 O400 2.596 . S
Tb396 O401 2.374 . S
Tb396 O409 2.343 . S
Tb396 O411 2.353 . S
Tb396 O413 2.427 . S
Tb396 O414 2.513 . S
C397 O401 1.251 . S
C397 O403 1.263 . S
Tb398 O400 2.343 . S
Tb398 O403 2.353 . S
Tb398 O406 2.427 . S
Tb398 O407 2.513 . S
Tb398 O408 2.453 . S
Tb398 O409 2.596 . S
Tb398 O410 2.374 . S
O399 Tb396 2.453 . S
O399 C415 1.245 . S
O400 Tb396 2.596 . S
O400 Tb398 2.343 . S
O400 C415 1.259 . S
O401 Tb396 2.374 . S
O401 C397 1.251 . S
C402 O406 1.275 . S
C402 O407 1.246 . S
O403 C397 1.263 . S
O403 Tb398 2.353 . S
C404 O408 1.245 . S
C404 O409 1.259 . S
C405 O410 1.250 . S
C405 O411 1.263 . S
O406 Tb398 2.427 . S
O406 C402 1.275 . S
O407 Tb398 2.513 . S
O407 C402 1.246 . S
O408 Tb398 2.453 . S
O408 C404 1.245 . S
O409 Tb396 2.343 . S
O409 Tb398 2.596 . S
O409 C404 1.259 . S
O410 Tb398 2.374 . S
O410 C405 1.250 . S
O411 Tb396 2.353 . S
O411 C405 1.263 . S
C412 O413 1.275 . S
C412 O414 1.246 . S
O413 Tb396 2.427 . S
O413 C412 1.275 . S
O414 Tb396 2.513 . S
O414 C412 1.246 . S
C415 O399 1.245 . S
C415 O400 1.259 . S
Tb416 O419 2.453 1_545 S
Tb416 O420 2.596 . S
Tb416 O421 2.374 1_455 S
Tb416 O429 2.343 . S
Tb416 O431 2.353 . S
Tb416 O433 2.427 . S
Tb416 O434 2.513 1_455 S
C417 O421 1.251 . S
C417 O423 1.263 . S
Tb418 O420 2.343 . S
Tb418 O423 2.353 1_455 S
Tb418 O426 2.427 . S
Tb418 O427 2.513 . S
Tb418 O428 2.453 . S
Tb418 O429 2.596 . S
Tb418 O430 2.374 . S
O419 Tb416 2.453 1_565 S
O419 C435 1.245 . S
O420 Tb416 2.596 . S
O420 Tb418 2.343 . S
O420 C435 1.259 1_545 S
O421 Tb416 2.374 1_655 S
O421 C417 1.251 . S
C422 O426 1.275 . S
C422 O427 1.246 . S
O423 C417 1.263 . S
O423 Tb418 2.353 1_655 S
C424 O428 1.245 . S
C424 O429 1.259 . S
C425 O430 1.250 . S
C425 O431 1.263 . S
O426 Tb418 2.427 . S
O426 C422 1.275 . S
O427 Tb418 2.513 . S
O427 C422 1.246 . S
O428 Tb418 2.453 . S
O428 C424 1.245 . S
O429 Tb416 2.343 . S
O429 Tb418 2.596 . S
O429 C424 1.259 . S
O430 Tb418 2.374 . S
O430 C425 1.250 . S
O431 Tb416 2.353 . S
O431 C425 1.263 . S
C432 O433 1.275 1_655 S
C432 O434 1.246 . S
O433 Tb416 2.427 . S
O433 C432 1.275 1_455 S
O434 Tb416 2.513 1_655 S
O434 C432 1.246 . S
C435 O419 1.245 . S
C435 O420 1.259 1_565 S
Tb436 O439 2.453 . S
Tb436 O440 2.596 . S
Tb436 O441 2.374 . S
Tb436 O449 2.343 . S
Tb436 O451 2.353 . S
Tb436 O453 2.427 . S
Tb436 O454 2.513 . S
C437 O441 1.251 . S
C437 O443 1.263 . S
Tb438 O440 2.343 . S
Tb438 O443 2.353 . S
Tb438 O446 2.427 . S
Tb438 O447 2.513 . S
Tb438 O448 2.453 . S
Tb438 O449 2.596 . S
Tb438 O450 2.374 . S
O439 Tb436 2.453 . S
O439 C455 1.245 . S
O440 Tb436 2.596 . S
O440 Tb438 2.343 . S
O440 C455 1.259 . S
O441 Tb436 2.374 . S
O441 C437 1.251 . S
C442 O446 1.275 . S
C442 O447 1.246 . S
O443 C437 1.263 . S
O443 Tb438 2.353 . S
C444 O448 1.245 . S
C444 O449 1.259 . S
C445 O450 1.250 . S
C445 O451 1.263 . S
O446 Tb438 2.427 . S
O446 C442 1.275 . S
O447 Tb438 2.513 . S
O447 C442 1.246 . S
O448 Tb438 2.453 . S
O448 C444 1.245 . S
O449 Tb436 2.343 . S
O449 Tb438 2.596 . S
O449 C444 1.259 . S
O450 Tb438 2.374 . S
O450 C445 1.250 . S
O451 Tb436 2.353 . S
O451 C445 1.263 . S
C452 O453 1.275 . S
C452 O454 1.246 . S
O453 Tb436 2.427 . S
O453 C452 1.275 . S
O454 Tb436 2.513 . S
O454 C452 1.246 . S
C455 O439 1.245 . S
C455 O440 1.259 . S
Tb456 O459 2.453 . S
Tb456 O460 2.596 . S
Tb456 O461 2.374 1_545 S
Tb456 O469 2.343 1_556 S
Tb456 O471 2.353 1_556 S
Tb456 O473 2.427 1_556 S
Tb456 O474 2.513 1_546 S
C457 O461 1.249 1_554 S
C457 O463 1.268 . S
Tb458 O460 2.343 1_554 S
Tb458 O463 2.353 1_545 S
Tb458 O466 2.427 . S
Tb458 O467 2.513 . S
Tb458 O468 2.453 . S
Tb458 O469 2.596 . S
Tb458 O470 2.374 . S
O459 Tb456 2.453 . S
O459 C475 1.245 . S
O460 Tb456 2.596 . S
O460 Tb458 2.343 1_556 S
O460 C475 1.259 . S
O461 Tb456 2.374 1_565 S
O461 C457 1.249 1_556 S
C462 O466 1.275 . S
C462 O467 1.246 . S
O463 C457 1.268 . S
O463 Tb458 2.353 1_565 S
C464 O468 1.245 . S
C464 O469 1.259 . S
C465 O470 1.250 . S
C465 O471 1.263 . S
O466 Tb458 2.427 . S
O466 C462 1.275 . S
O467 Tb458 2.513 . S
O467 C462 1.246 . S
O468 Tb458 2.453 . S
O468 C464 1.245 . S
O469 Tb456 2.343 1_554 S
O469 Tb458 2.596 . S
O469 C464 1.259 . S
O470 Tb458 2.374 . S
O470 C465 1.250 . S
O471 Tb456 2.353 1_554 S
O471 C465 1.263 . S
C472 O473 1.275 . S
C472 O474 1.246 1_545 S
O473 Tb456 2.427 1_554 S
O473 C472 1.275 . S
O474 Tb456 2.513 1_564 S
O474 C472 1.246 1_565 S
C475 O459 1.245 . S
C475 O460 1.259 . S
Tb476 O479 2.453 . S
Tb476 O480 2.596 . S
Tb476 O481 2.374 . S
Tb476 O489 2.343 . S
Tb476 O491 2.353 . S
Tb476 O493 2.427 . S
Tb476 O494 2.513 . S
C477 O481 1.251 . S
C477 O483 1.263 . S
Tb478 O480 2.343 . S
Tb478 O483 2.353 . S
Tb478 O486 2.427 . S
Tb478 O487 2.513 . S
Tb478 O488 2.453 . S
Tb478 O489 2.596 . S
Tb478 O490 2.374 . S
O479 Tb476 2.453 . S
O479 C495 1.245 . S
O480 Tb476 2.596 . S
O480 Tb478 2.343 . S
O480 C495 1.259 . S
O481 Tb476 2.374 . S
O481 C477 1.251 . S
C482 O486 1.275 . S
C482 O487 1.246 . S
O483 C477 1.263 . S
O483 Tb478 2.353 . S
C484 O488 1.245 . S
C484 O489 1.259 . S
C485 O490 1.250 . S
C485 O491 1.263 . S
O486 Tb478 2.427 . S
O486 C482 1.275 . S
O487 Tb478 2.513 . S
O487 C482 1.246 . S
O488 Tb478 2.453 . S
O488 C484 1.245 . S
O489 Tb476 2.343 . S
O489 Tb478 2.596 . S
O489 C484 1.259 . S
O490 Tb478 2.374 . S
O490 C485 1.250 . S
O491 Tb476 2.353 . S
O491 C485 1.263 . S
C492 O493 1.275 . S
C492 O494 1.246 . S
O493 Tb476 2.427 . S
O493 C492 1.275 . S
O494 Tb476 2.513 . S
O494 C492 1.246 . S
C495 O479 1.245 . S
C495 O480 1.259 . S
Tb496 O499 2.453 1_556 S
Tb496 O500 2.596 1_556 S
Tb496 O501 2.359 1_556 S
Tb496 O509 2.347 . S
Tb496 O511 2.353 . S
Tb496 O513 2.427 . S
Tb496 O514 2.513 . S
C497 O501 1.277 . S
C497 O503 1.263 . S
Tb498 O500 2.343 . S
Tb498 O503 2.353 . S
Tb498 O506 2.427 . S
Tb498 O507 2.513 . S
Tb498 O508 2.453 . S
Tb498 O509 2.584 1_554 S
Tb498 O510 2.374 . S
O499 Tb496 2.453 1_554 S
O499 C515 1.245 . S
O500 Tb496 2.596 1_554 S
O500 Tb498 2.343 . S
O500 C515 1.259 . S
O501 Tb496 2.359 1_554 S
O501 C497 1.277 . S
C502 O506 1.275 . S
C502 O507 1.246 . S
O503 C497 1.263 . S
O503 Tb498 2.353 . S
C504 O508 1.245 . S
C504 O509 1.259 1_554 S
C505 O510 1.250 . S
C505 O511 1.263 1_554 S
O506 Tb498 2.427 . S
O506 C502 1.275 . S
O507 Tb498 2.513 . S
O507 C502 1.246 . S
O508 Tb498 2.453 . S
O508 C504 1.245 . S
O509 Tb496 2.347 . S
O509 Tb498 2.584 1_556 S
O509 C504 1.259 1_556 S
O510 Tb498 2.374 . S
O510 C505 1.250 . S
O511 Tb496 2.353 . S
O511 C505 1.263 1_556 S
C512 O513 1.275 . S
C512 O514 1.246 . S
O513 Tb496 2.427 . S
O513 C512 1.275 . S
O514 Tb496 2.513 . S
O514 C512 1.246 . S
C515 O499 1.245 . S
C515 O500 1.259 . S
Tb516 O519 2.453 . S
Tb516 O520 2.596 . S
Tb516 O521 2.374 . S
Tb516 O529 2.343 . S
Tb516 O531 2.353 . S
Tb516 O533 2.427 . S
Tb516 O534 2.513 . S
C517 O521 1.251 . S
C517 O523 1.263 . S
Tb518 O520 2.343 . S
Tb518 O523 2.353 . S
Tb518 O526 2.427 . S
Tb518 O527 2.513 . S
Tb518 O528 2.453 . S
Tb518 O529 2.596 . S
Tb518 O530 2.374 . S
O519 Tb516 2.453 . S
O519 C535 1.245 . S
O520 Tb516 2.596 . S
O520 Tb518 2.343 . S
O520 C535 1.259 . S
O521 Tb516 2.374 . S
O521 C517 1.251 . S
C522 O526 1.275 . S
C522 O527 1.246 . S
O523 C517 1.263 . S
O523 Tb518 2.353 . S
C524 O528 1.245 . S
C524 O529 1.259 . S
C525 O530 1.250 . S
C525 O531 1.263 . S
O526 Tb518 2.427 . S
O526 C522 1.275 . S
O527 Tb518 2.513 . S
O527 C522 1.246 . S
O528 Tb518 2.453 . S
O528 C524 1.245 . S
O529 Tb516 2.343 . S
O529 Tb518 2.596 . S
O529 C524 1.259 . S
O530 Tb518 2.374 . S
O530 C525 1.250 . S
O531 Tb516 2.353 . S
O531 C525 1.263 . S
C532 O533 1.275 . S
C532 O534 1.246 . S
O533 Tb516 2.427 . S
O533 C532 1.275 . S
O534 Tb516 2.513 . S
O534 C532 1.246 . S
C535 O519 1.245 . S
C535 O520 1.259 . S
Tb536 O539 2.469 . S
Tb536 O540 2.596 1_655 S
Tb536 O541 2.374 . S
Tb536 O549 2.343 . S
Tb536 O551 2.353 . S
Tb536 O553 2.427 . S
Tb536 O554 2.513 . S
C537 O541 1.251 1_455 S
C537 O543 1.263 . S
Tb538 O540 2.343 . S
Tb538 O543 2.353 . S
Tb538 O546 2.427 . S
Tb538 O547 2.513 . S
Tb538 O548 2.453 . S
Tb538 O549 2.596 1_455 S
Tb538 O550 2.374 . S
O539 Tb536 2.469 . S
O539 C555 1.221 1_655 S
O540 Tb536 2.596 1_455 S
O540 Tb538 2.343 . S
O540 C555 1.259 . S
O541 Tb536 2.374 . S
O541 C537 1.251 1_655 S
C542 O546 1.275 . S
C542 O547 1.246 . S
O543 C537 1.263 . S
O543 Tb538 2.353 . S
C544 O548 1.245 1_655 S
C544 O549 1.259 . S
C545 O550 1.250 . S
C545 O551 1.263 1_455 S
O546 Tb538 2.427 . S
O546 C542 1.275 . S
O547 Tb538 2.513 . S
O547 C542 1.246 . S
O548 Tb538 2.453 . S
O548 C544 1.245 1_455 S
O549 Tb536 2.343 . S
O549 Tb538 2.596 1_655 S
O549 C544 1.259 . S
O550 Tb538 2.374 . S
O550 C545 1.250 . S
O551 Tb536 2.353 . S
O551 C545 1.263 1_655 S
C552 O553 1.275 . S
C552 O554 1.246 . S
O553 Tb536 2.427 . S
O553 C552 1.275 . S
O554 Tb536 2.513 . S
O554 C552 1.246 . S
C555 O539 1.221 1_455 S
C555 O540 1.259 . S
Tb556 O559 2.453 . S
Tb556 O560 2.596 . S
Tb556 O561 2.374 . S
Tb556 O569 2.343 . S
Tb556 O571 2.353 . S
Tb556 O573 2.427 . S
Tb556 O574 2.513 . S
C557 O561 1.251 . S
C557 O563 1.263 . S
Tb558 O560 2.343 . S
Tb558 O563 2.353 . S
Tb558 O566 2.427 . S
Tb558 O567 2.513 . S
Tb558 O568 2.453 . S
Tb558 O569 2.596 . S
Tb558 O570 2.374 . S
O559 Tb556 2.453 . S
O559 C575 1.245 . S
O560 Tb556 2.596 . S
O560 Tb558 2.343 . S
O560 C575 1.259 . S
O561 Tb556 2.374 . S
O561 C557 1.251 . S
C562 O566 1.275 . S
C562 O567 1.246 . S
O563 C557 1.263 . S
O563 Tb558 2.353 . S
C564 O568 1.245 . S
C564 O569 1.259 . S
C565 O570 1.250 . S
C565 O571 1.263 . S
O566 Tb558 2.427 . S
O566 C562 1.275 . S
O567 Tb558 2.513 . S
O567 C562 1.246 . S
O568 Tb558 2.453 . S
O568 C564 1.245 . S
O569 Tb556 2.343 . S
O569 Tb558 2.596 . S
O569 C564 1.259 . S
O570 Tb558 2.374 . S
O570 C565 1.250 . S
O571 Tb556 2.353 . S
O571 C565 1.263 . S
C572 O573 1.275 . S
C572 O574 1.246 . S
O573 Tb556 2.427 . S
O573 C572 1.275 . S
O574 Tb556 2.513 . S
O574 C572 1.246 . S
C575 O559 1.245 . S
C575 O560 1.259 . S
Tb576 O579 2.453 . S
Tb576 O580 2.596 . S
Tb576 O581 2.374 . S
Tb576 O589 2.343 . S
Tb576 O591 2.353 . S
Tb576 O593 2.427 . S
Tb576 O594 2.513 . S
C577 O581 1.251 . S
C577 O583 1.263 . S
Tb578 O580 2.343 . S
Tb578 O583 2.353 . S
Tb578 O586 2.427 . S
Tb578 O587 2.513 . S
Tb578 O588 2.453 . S
Tb578 O589 2.596 . S
Tb578 O590 2.374 . S
O579 Tb576 2.453 . S
O579 C595 1.245 . S
O580 Tb576 2.596 . S
O580 Tb578 2.343 . S
O580 C595 1.259 . S
O581 Tb576 2.374 . S
O581 C577 1.251 . S
C582 O586 1.275 . S
C582 O587 1.246 . S
O583 C577 1.263 . S
O583 Tb578 2.353 . S
C584 O588 1.245 . S
C584 O589 1.259 . S
C585 O590 1.250 . S
C585 O591 1.263 . S
O586 Tb578 2.427 . S
O586 C582 1.275 . S
O587 Tb578 2.513 . S
O587 C582 1.246 . S
O588 Tb578 2.453 . S
O588 C584 1.245 . S
O589 Tb576 2.343 . S
O589 Tb578 2.596 . S
O589 C584 1.259 . S
O590 Tb578 2.374 . S
O590 C585 1.250 . S
O591 Tb576 2.353 . S
O591 C585 1.263 . S
C592 O593 1.275 . S
C592 O594 1.246 . S
O593 Tb576 2.427 . S
O593 C592 1.275 . S
O594 Tb576 2.513 . S
O594 C592 1.246 . S
C595 O579 1.245 . S
C595 O580 1.259 . S
Tb596 O599 2.453 . S
Tb596 O600 2.596 . S
Tb596 O601 2.374 . S
Tb596 O609 2.343 . S
Tb596 O611 2.353 . S
Tb596 O613 2.427 . S
Tb596 O614 2.513 . S
C597 O601 1.251 . S
C597 O603 1.263 . S
Tb598 O600 2.343 . S
Tb598 O603 2.353 . S
Tb598 O606 2.427 . S
Tb598 O607 2.513 . S
Tb598 O608 2.453 . S
Tb598 O609 2.596 . S
Tb598 O610 2.374 . S
O599 Tb596 2.453 . S
O599 C615 1.245 . S
O600 Tb596 2.596 . S
O600 Tb598 2.343 . S
O600 C615 1.259 . S
O601 Tb596 2.374 . S
O601 C597 1.251 . S
C602 O606 1.275 . S
C602 O607 1.246 . S
O603 C597 1.263 . S
O603 Tb598 2.353 . S
C604 O608 1.245 . S
C604 O609 1.259 . S
C605 O610 1.250 . S
C605 O611 1.263 . S
O606 Tb598 2.427 . S
O606 C602 1.275 . S
O607 Tb598 2.513 . S
O607 C602 1.246 . S
O608 Tb598 2.453 . S
O608 C604 1.245 . S
O609 Tb596 2.343 . S
O609 Tb598 2.596 . S
O609 C604 1.259 . S
O610 Tb598 2.374 . S
O610 C605 1.250 . S
O611 Tb596 2.353 . S
O611 C605 1.263 . S
C612 O613 1.275 . S
C612 O614 1.246 . S
O613 Tb596 2.427 . S
O613 C612 1.275 . S
O614 Tb596 2.513 . S
O614 C612 1.246 . S
C615 O599 1.245 . S
C615 O600 1.259 . S
Tb616 O619 2.453 . S
Tb616 O620 2.596 . S
Tb616 O621 2.374 . S
Tb616 O629 2.343 . S
Tb616 O631 2.353 . S
Tb616 O633 2.427 . S
Tb616 O634 2.513 . S
C617 O621 1.251 . S
C617 O623 1.263 . S
Tb618 O620 2.343 . S
Tb618 O623 2.353 . S
Tb618 O626 2.427 . S
Tb618 O627 2.513 . S
Tb618 O628 2.453 . S
Tb618 O629 2.596 . S
Tb618 O630 2.374 . S
O619 Tb616 2.453 . S
O619 C635 1.245 . S
O620 Tb616 2.596 . S
O620 Tb618 2.343 . S
O620 C635 1.259 . S
O621 Tb616 2.374 . S
O621 C617 1.251 . S
C622 O626 1.275 . S
C622 O627 1.246 . S
O623 C617 1.263 . S
O623 Tb618 2.353 . S
C624 O628 1.245 . S
C624 O629 1.259 . S
C625 O630 1.250 . S
C625 O631 1.263 . S
O626 Tb618 2.427 . S
O626 C622 1.275 . S
O627 Tb618 2.513 . S
O627 C622 1.246 . S
O628 Tb618 2.453 . S
O628 C624 1.245 . S
O629 Tb616 2.343 . S
O629 Tb618 2.596 . S
O629 C624 1.259 . S
O630 Tb618 2.374 . S
O630 C625 1.250 . S
O631 Tb616 2.353 . S
O631 C625 1.263 . S
C632 O633 1.275 . S
C632 O634 1.246 . S
O633 Tb616 2.427 . S
O633 C632 1.275 . S
O634 Tb616 2.513 . S
O634 C632 1.246 . S
C635 O619 1.245 . S
C635 O620 1.259 . S
Tb636 O639 2.453 . S
Tb636 O640 2.596 . S
Tb636 O641 2.374 . S
Tb636 O649 2.343 . S
Tb636 O651 2.353 1_554 S
Tb636 O653 2.427 1_554 S
Tb636 O654 2.513 . S
C637 O641 1.251 . S
C637 O643 1.263 1_455 S
Tb638 O640 2.343 1_655 S
Tb638 O643 2.353 . S
Tb638 O646 2.427 . S
Tb638 O647 2.513 . S
Tb638 O648 2.453 . S
Tb638 O649 2.596 1_655 S
Tb638 O650 2.374 1_554 S
O639 Tb636 2.453 . S
O639 C655 1.245 . S
O640 Tb636 2.596 . S
O640 Tb638 2.343 1_455 S
O640 C655 1.259 . S
O641 Tb636 2.374 . S
O641 C637 1.251 . S
C642 O646 1.275 . S
C642 O647 1.246 . S
O643 C637 1.263 1_655 S
O643 Tb638 2.353 . S
C644 O648 1.254 . S
C644 O649 1.258 1_655 S
C645 O650 1.260 . S
C645 O651 1.253 1_655 S
O646 Tb638 2.427 . S
O646 C642 1.275 . S
O647 Tb638 2.513 . S
O647 C642 1.246 . S
O648 Tb638 2.453 . S
O648 C644 1.254 . S
O649 Tb636 2.343 . S
O649 Tb638 2.596 1_455 S
O649 C644 1.258 1_455 S
O650 Tb638 2.374 1_556 S
O650 C645 1.260 . S
O651 Tb636 2.353 1_556 S
O651 C645 1.253 1_455 S
C652 O653 1.275 1_554 S
C652 O654 1.246 . S
O653 Tb636 2.427 1_556 S
O653 C652 1.275 1_556 S
O654 Tb636 2.513 . S
O654 C652 1.246 . S
C655 O639 1.245 . S
C655 O640 1.259 . S
C656 C657 1.391 . S
C656 C658 1.394 . S
C656 H672 0.931 . S
C657 C656 1.391 . S
C657 C661 1.376 1_455 S
C658 C656 1.394 . S
C658 C659 1.369 . S
C658 C662 1.531 . S
C659 C658 1.369 . S
C659 C660 1.410 1_455 S
C659 C667 1.503 . S
C660 C659 1.410 1_655 S
C660 C661 1.392 . S
C660 C663 1.511 . S
C661 C657 1.376 1_655 S
C661 C660 1.392 . S
C661 H673 0.929 . S
C662 C658 1.531 . S
C662 H674 0.960 . S
C662 H675 0.962 . S
C662 H676 0.960 . S
C663 C660 1.511 . S
C663 H677 0.961 . S
C663 H678 0.961 . S
C663 H679 0.961 . S
C664 C665 1.370 . S
C664 C666 1.363 . S
C664 H680 0.931 . S
C665 C664 1.370 . S
C665 C669 1.408 1_456 S
C666 C664 1.363 . S
C666 C667 1.370 . S
C666 C670 1.524 . S
C667 C659 1.503 . S
C667 C666 1.370 . S
C667 C668 1.403 1_455 S
C668 C667 1.403 1_655 S
C668 C669 1.404 1_556 S
C668 C671 1.539 . S
C669 C665 1.408 1_654 S
C669 C668 1.404 1_554 S
C669 H681 0.930 . S
C670 C666 1.524 . S
C670 H682 0.956 . S
C670 H683 0.961 . S
C670 H684 0.961 . S
C671 C668 1.539 . S
C671 H685 0.958 1_556 S
C671 H686 0.961 1_556 S
C671 H687 0.960 . S
H672 C656 0.931 . S
H673 C661 0.929 . S
H674 C662 0.960 . S
H675 C662 0.962 . S
H676 C662 0.960 . S
H677 C663 0.961 . S
H678 C663 0.961 . S
H679 C663 0.961 . S
H680 C664 0.931 . S
H681 C669 0.930 . S
H682 C670 0.956 . S
H683 C670 0.961 . S
H684 C670 0.961 . S
H685 C671 0.958 1_554 S
H686 C671 0.961 1_554 S
H687 C671 0.960 . S
C688 C689 1.391 . S
C688 C690 1.394 . S
C688 H704 0.931 . S
C689 C688 1.391 . S
C689 C693 1.376 . S
C690 C688 1.394 . S
C690 C691 1.369 . S
C690 C694 1.531 . S
C691 C690 1.369 . S
C691 C692 1.410 . S
C691 C699 1.503 . S
C692 C691 1.410 . S
C692 C693 1.392 . S
C692 C695 1.511 . S
C693 C689 1.376 . S
C693 C692 1.392 . S
C693 H705 0.929 . S
C694 C690 1.531 . S
C694 H706 0.960 . S
C694 H707 0.962 . S
C694 H708 0.960 . S
C695 C692 1.511 . S
C695 H709 0.961 . S
C695 H710 0.961 . S
C695 H711 0.961 . S
C696 C697 1.370 . S
C696 C698 1.363 . S
C696 H712 0.931 . S
C697 C696 1.370 . S
C697 C701 1.408 . S
C698 C696 1.363 . S
C698 C699 1.370 . S
C698 C702 1.524 . S
C699 C691 1.503 . S
C699 C698 1.370 . S
C699 C700 1.403 . S
C700 C699 1.403 . S
C700 C701 1.404 . S
C700 C703 1.539 . S
C701 C697 1.408 . S
C701 C700 1.404 . S
C701 H713 0.930 . S
C702 C698 1.524 . S
C702 H714 0.956 . S
C702 H715 0.961 . S
C702 H716 0.961 . S
C703 C700 1.539 . S
C703 H717 0.958 . S
C703 H718 0.961 . S
C703 H719 0.960 . S
H704 C688 0.931 . S
H705 C693 0.929 . S
H706 C694 0.960 . S
H707 C694 0.962 . S
H708 C694 0.960 . S
H709 C695 0.961 . S
H710 C695 0.961 . S
H711 C695 0.961 . S
H712 C696 0.931 . S
H713 C701 0.930 . S
H714 C702 0.956 . S
H715 C702 0.961 . S
H716 C702 0.961 . S
H717 C703 0.958 . S
H718 C703 0.961 . S
H719 C703 0.960 . S
C720 C721 1.391 . S
C720 C722 1.394 . S
C720 H736 0.931 . S
C721 C720 1.391 . S
C721 C725 1.376 . S
C722 C720 1.394 . S
C722 C723 1.369 . S
C722 C726 1.531 . S
C723 C722 1.369 . S
C723 C724 1.410 . S
C723 C731 1.503 . S
C724 C723 1.410 . S
C724 C725 1.392 . S
C724 C727 1.511 . S
C725 C721 1.376 . S
C725 C724 1.392 . S
C725 H737 0.929 . S
C726 C722 1.531 . S
C726 H738 0.960 . S
C726 H739 0.962 . S
C726 H740 0.960 . S
C727 C724 1.511 . S
C727 H741 0.961 . S
C727 H742 0.961 . S
C727 H743 0.961 . S
C728 C729 1.370 . S
C728 C730 1.363 . S
C728 H744 0.931 . S
C729 C728 1.370 . S
C729 C733 1.408 . S
C730 C728 1.363 . S
C730 C731 1.370 . S
C730 C734 1.524 . S
C731 C723 1.503 . S
C731 C730 1.370 . S
C731 C732 1.403 . S
C732 C731 1.403 . S
C732 C733 1.404 . S
C732 C735 1.539 . S
C733 C729 1.408 . S
C733 C732 1.404 . S
C733 H745 0.930 . S
C734 C730 1.524 . S
C734 H746 0.956 . S
C734 H747 0.961 . S
C734 H748 0.961 . S
C735 C732 1.539 . S
C735 H749 0.958 . S
C735 H750 0.961 . S
C735 H751 0.960 . S
H736 C720 0.931 . S
H737 C725 0.929 . S
H738 C726 0.960 . S
H739 C726 0.962 . S
H740 C726 0.960 . S
H741 C727 0.961 . S
H742 C727 0.961 . S
H743 C727 0.961 . S
H744 C728 0.931 . S
H745 C733 0.930 . S
H746 C734 0.956 . S
H747 C734 0.961 . S
H748 C734 0.961 . S
H749 C735 0.958 . S
H750 C735 0.961 . S
H751 C735 0.960 . S
C752 C753 1.391 . S
C752 C754 1.394 . S
C752 H768 0.931 . S
C753 C752 1.391 . S
C753 C757 1.376 . S
C754 C752 1.394 . S
C754 C755 1.369 . S
C754 C758 1.531 . S
C755 C754 1.369 . S
C755 C756 1.410 . S
C755 C763 1.503 . S
C756 C755 1.410 . S
C756 C757 1.392 . S
C756 C759 1.511 . S
C757 C753 1.376 . S
C757 C756 1.392 . S
C757 H769 0.929 . S
C758 C754 1.531 . S
C758 H770 0.960 . S
C758 H771 0.962 . S
C758 H772 0.960 . S
C759 C756 1.511 . S
C759 H773 0.961 . S
C759 H774 0.961 . S
C759 H775 0.961 . S
C760 C761 1.370 . S
C760 C762 1.363 . S
C760 H776 0.931 . S
C761 C760 1.370 . S
C761 C765 1.408 . S
C762 C760 1.363 . S
C762 C763 1.370 . S
C762 C766 1.524 . S
C763 C755 1.503 . S
C763 C762 1.370 . S
C763 C764 1.403 . S
C764 C763 1.403 . S
C764 C765 1.404 . S
C764 C767 1.539 . S
C765 C761 1.408 . S
C765 C764 1.404 . S
C765 H777 0.930 . S
C766 C762 1.524 . S
C766 H778 0.956 . S
C766 H779 0.961 . S
C766 H780 0.961 . S
C767 C764 1.539 . S
C767 H781 0.958 . S
C767 H782 0.961 . S
C767 H783 0.960 . S
H768 C752 0.931 . S
H769 C757 0.929 . S
H770 C758 0.960 . S
H771 C758 0.962 . S
H772 C758 0.960 . S
H773 C759 0.961 . S
H774 C759 0.961 . S
H775 C759 0.961 . S
H776 C760 0.931 . S
H777 C765 0.930 . S
H778 C766 0.956 . S
H779 C766 0.961 . S
H780 C766 0.961 . S
H781 C767 0.958 . S
H782 C767 0.961 . S
H783 C767 0.960 . S
C784 C785 1.391 . S
C784 C786 1.394 . S
C784 H800 0.931 . S
C785 C784 1.391 . S
C785 C789 1.376 1_455 S
C786 C784 1.394 . S
C786 C787 1.369 . S
C786 C790 1.531 . S
C787 C786 1.369 . S
C787 C788 1.410 1_455 S
C787 C795 1.503 . S
C788 C787 1.410 1_655 S
C788 C789 1.392 . S
C788 C791 1.511 . S
C789 C785 1.376 1_655 S
C789 C788 1.392 . S
C789 H801 0.929 . S
C790 C786 1.531 . S
C790 H802 0.960 . S
C790 H803 0.962 . S
C790 H804 0.960 . S
C791 C788 1.511 . S
C791 H805 0.961 . S
C791 H806 0.961 . S
C791 H807 0.961 . S
C792 C793 1.370 . S
C792 C794 1.363 . S
C792 H808 0.931 . S
C793 C792 1.370 . S
C793 C797 1.408 1_455 S
C794 C792 1.363 . S
C794 C795 1.370 . S
C794 C798 1.524 . S
C795 C787 1.503 . S
C795 C794 1.370 . S
C795 C796 1.403 1_455 S
C796 C795 1.403 1_655 S
C796 C797 1.404 . S
C796 C799 1.539 . S
C797 C793 1.408 1_655 S
C797 C796 1.404 . S
C797 H809 0.930 . S
C798 C794 1.524 . S
C798 H810 0.956 . S
C798 H811 0.961 . S
C798 H812 0.961 . S
C799 C796 1.539 . S
C799 H813 0.958 . S
C799 H814 0.961 . S
C799 H815 0.960 . S
H800 C784 0.931 . S
H801 C789 0.929 . S
H802 C790 0.960 . S
H803 C790 0.962 . S
H804 C790 0.960 . S
H805 C791 0.961 . S
H806 C791 0.961 . S
H807 C791 0.961 . S
H808 C792 0.931 . S
H809 C797 0.930 . S
H810 C798 0.956 . S
H811 C798 0.961 . S
H812 C798 0.961 . S
H813 C799 0.958 . S
H814 C799 0.961 . S
H815 C799 0.960 . S
C816 C817 1.391 . S
C816 C818 1.394 . S
C816 H832 0.931 . S
C817 C816 1.391 . S
C817 C821 1.376 . S
C818 C816 1.394 . S
C818 C819 1.369 . S
C818 C822 1.531 . S
C819 C818 1.369 . S
C819 C820 1.410 . S
C819 C827 1.503 . S
C820 C819 1.410 . S
C820 C821 1.392 . S
C820 C823 1.511 . S
C821 C817 1.376 . S
C821 C820 1.392 . S
C821 H833 0.929 . S
C822 C818 1.531 . S
C822 H834 0.960 . S
C822 H835 0.962 . S
C822 H836 0.960 . S
C823 C820 1.511 . S
C823 H837 0.961 . S
C823 H838 0.961 . S
C823 H839 0.961 . S
C824 C825 1.370 . S
C824 C826 1.363 . S
C824 H840 0.931 . S
C825 C824 1.370 . S
C825 C829 1.408 . S
C826 C824 1.363 . S
C826 C827 1.370 . S
C826 C830 1.524 . S
C827 C819 1.503 . S
C827 C826 1.370 . S
C827 C828 1.403 . S
C828 C827 1.403 . S
C828 C829 1.404 . S
C828 C831 1.539 . S
C829 C825 1.408 . S
C829 C828 1.404 . S
C829 H841 0.930 . S
C830 C826 1.524 . S
C830 H842 0.956 . S
C830 H843 0.961 . S
C830 H844 0.961 . S
C831 C828 1.539 . S
C831 H845 0.958 . S
C831 H846 0.961 . S
C831 H847 0.960 . S
H832 C816 0.931 . S
H833 C821 0.929 . S
H834 C822 0.960 . S
H835 C822 0.962 . S
H836 C822 0.960 . S
H837 C823 0.961 . S
H838 C823 0.961 . S
H839 C823 0.961 . S
H840 C824 0.931 . S
H841 C829 0.930 . S
H842 C830 0.956 . S
H843 C830 0.961 . S
H844 C830 0.961 . S
H845 C831 0.958 . S
H846 C831 0.961 . S
H847 C831 0.960 . S
C848 C849 1.391 . S
C848 C850 1.394 . S
C848 H864 0.931 . S
C849 C848 1.391 . S
C849 C853 1.376 . S
C850 C848 1.394 . S
C850 C851 1.369 . S
C850 C854 1.531 . S
C851 C850 1.369 . S
C851 C852 1.410 . S
C851 C859 1.503 . S
C852 C851 1.410 . S
C852 C853 1.392 . S
C852 C855 1.511 . S
C853 C849 1.376 . S
C853 C852 1.392 . S
C853 H865 0.929 . S
C854 C850 1.531 . S
C854 H866 0.960 . S
C854 H867 0.962 . S
C854 H868 0.960 . S
C855 C852 1.511 . S
C855 H869 0.961 . S
C855 H870 0.961 . S
C855 H871 0.961 . S
C856 C857 1.370 . S
C856 C858 1.363 . S
C856 H872 0.931 . S
C857 C856 1.370 . S
C857 C861 1.408 . S
C858 C856 1.363 . S
C858 C859 1.370 . S
C858 C862 1.524 . S
C859 C851 1.503 . S
C859 C858 1.370 . S
C859 C860 1.403 . S
C860 C859 1.403 . S
C860 C861 1.404 . S
C860 C863 1.539 . S
C861 C857 1.408 . S
C861 C860 1.404 . S
C861 H873 0.930 . S
C862 C858 1.524 . S
C862 H874 0.956 . S
C862 H875 0.961 . S
C862 H876 0.961 . S
C863 C860 1.539 . S
C863 H877 0.958 . S
C863 H878 0.961 . S
C863 H879 0.960 . S
H864 C848 0.931 . S
H865 C853 0.929 . S
H866 C854 0.960 . S
H867 C854 0.962 . S
H868 C854 0.960 . S
H869 C855 0.961 . S
H870 C855 0.961 . S
H871 C855 0.961 . S
H872 C856 0.931 . S
H873 C861 0.930 . S
H874 C862 0.956 . S
H875 C862 0.961 . S
H876 C862 0.961 . S
H877 C863 0.958 . S
H878 C863 0.961 . S
H879 C863 0.960 . S
C880 C881 1.391 . S
C880 C882 1.394 . S
C880 H896 0.931 . S
C881 C880 1.391 . S
C881 C885 1.376 . S
C882 C880 1.394 . S
C882 C883 1.369 . S
C882 C886 1.531 . S
C883 C882 1.369 . S
C883 C884 1.410 . S
C883 C891 1.503 . S
C884 C883 1.410 . S
C884 C885 1.392 . S
C884 C887 1.511 . S
C885 C881 1.376 . S
C885 C884 1.392 . S
C885 H897 0.929 . S
C886 C882 1.531 . S
C886 H898 0.960 . S
C886 H899 0.962 . S
C886 H900 0.960 . S
C887 C884 1.511 . S
C887 H901 0.961 . S
C887 H902 0.961 . S
C887 H903 0.961 . S
C888 C889 1.370 . S
C888 C890 1.363 . S
C888 H904 0.931 . S
C889 C888 1.370 . S
C889 C893 1.408 . S
C890 C888 1.363 . S
C890 C891 1.370 . S
C890 C894 1.524 . S
C891 C883 1.503 . S
C891 C890 1.370 . S
C891 C892 1.403 . S
C892 C891 1.403 . S
C892 C893 1.404 . S
C892 C895 1.539 . S
C893 C889 1.408 . S
C893 C892 1.404 . S
C893 H905 0.930 . S
C894 C890 1.524 . S
C894 H906 0.956 . S
C894 H907 0.961 . S
C894 H908 0.961 . S
C895 C892 1.539 . S
C895 H909 0.958 . S
C895 H910 0.961 . S
C895 H911 0.960 . S
H896 C880 0.931 . S
H897 C885 0.929 . S
H898 C886 0.960 . S
H899 C886 0.962 . S
H900 C886 0.960 . S
H901 C887 0.961 . S
H902 C887 0.961 . S
H903 C887 0.961 . S
H904 C888 0.931 . S
H905 C893 0.930 . S
H906 C894 0.956 . S
H907 C894 0.961 . S
H908 C894 0.961 . S
H909 C895 0.958 . S
H910 C895 0.961 . S
H911 C895 0.960 . S
C912 C913 1.391 . S
C912 C914 1.394 . S
C912 H928 0.931 . S
C913 C912 1.391 . S
C913 C917 1.376 . S
C914 C912 1.394 . S
C914 C915 1.369 . S
C914 C918 1.531 . S
C915 C914 1.369 . S
C915 C916 1.410 . S
C915 C923 1.503 . S
C916 C915 1.410 . S
C916 C917 1.392 . S
C916 C919 1.511 . S
C917 C913 1.376 . S
C917 C916 1.392 . S
C917 H929 0.929 . S
C918 C914 1.531 . S
C918 H930 0.960 . S
C918 H931 0.962 . S
C918 H932 0.960 . S
C919 C916 1.511 . S
C919 H933 0.961 . S
C919 H934 0.961 . S
C919 H935 0.961 . S
C920 C921 1.370 . S
C920 C922 1.363 . S
C920 H936 0.931 . S
C921 C920 1.370 . S
C921 C925 1.408 . S
C922 C920 1.363 . S
C922 C923 1.370 . S
C922 C926 1.524 . S
C923 C915 1.503 . S
C923 C922 1.370 . S
C923 C924 1.403 . S
C924 C923 1.403 . S
C924 C925 1.404 . S
C924 C927 1.539 . S
C925 C921 1.408 . S
C925 C924 1.404 . S
C925 H937 0.930 1_655 S
C926 C922 1.524 . S
C926 H938 0.956 . S
C926 H939 0.961 . S
C926 H940 0.941 1_545 S
C927 C924 1.539 . S
C927 H941 0.958 . S
C927 H942 0.961 1_655 S
C927 H943 0.960 . S
H928 C912 0.931 . S
H929 C917 0.929 . S
H930 C918 0.960 . S
H931 C918 0.962 . S
H932 C918 0.960 . S
H933 C919 0.961 . S
H934 C919 0.961 . S
H935 C919 0.961 . S
H936 C920 0.931 . S
H937 C925 0.930 1_455 S
H938 C926 0.956 . S
H939 C926 0.961 . S
H940 C926 0.941 1_565 S
H941 C927 0.958 . S
H942 C927 0.961 1_455 S
H943 C927 0.960 . S
C944 C945 1.391 . S
C944 C946 1.394 . S
C944 H960 0.931 . S
C945 C944 1.391 . S
C945 C949 1.376 . S
C946 C944 1.394 . S
C946 C947 1.369 . S
C946 C950 1.531 . S
C947 C946 1.369 . S
C947 C948 1.410 . S
C947 C955 1.503 . S
C948 C947 1.410 . S
C948 C949 1.392 . S
C948 C951 1.511 . S
C949 C945 1.376 . S
C949 C948 1.392 . S
C949 H961 0.929 . S
C950 C946 1.531 . S
C950 H962 0.960 . S
C950 H963 0.962 . S
C950 H964 0.960 . S
C951 C948 1.511 . S
C951 H965 0.961 . S
C951 H966 0.961 . S
C951 H967 0.961 . S
C952 C953 1.370 . S
C952 C954 1.363 . S
C952 H968 0.931 . S
C953 C952 1.370 . S
C953 C957 1.408 . S
C954 C952 1.363 . S
C954 C955 1.370 . S
C954 C958 1.524 . S
C955 C947 1.503 . S
C955 C954 1.370 . S
C955 C956 1.403 . S
C956 C955 1.403 . S
C956 C957 1.404 . S
C956 C959 1.539 . S
C957 C953 1.408 . S
C957 C956 1.404 . S
C957 H969 0.930 . S
C958 C954 1.524 . S
C958 H970 0.956 . S
C958 H971 0.961 . S
C958 H972 0.961 . S
C959 C956 1.539 . S
C959 H973 0.958 . S
C959 H974 0.961 . S
C959 H975 0.960 . S
H960 C944 0.931 . S
H961 C949 0.929 . S
H962 C950 0.960 . S
H963 C950 0.962 . S
H964 C950 0.960 . S
H965 C951 0.961 . S
H966 C951 0.961 . S
H967 C951 0.961 . S
H968 C952 0.931 . S
H969 C957 0.930 . S
H970 C958 0.956 . S
H971 C958 0.961 . S
H972 C958 0.961 . S
H973 C959 0.958 . S
H974 C959 0.961 . S
H975 C959 0.960 . S
C976 C977 1.391 . S
C976 C978 1.394 . S
C976 H992 0.931 . S
C977 C976 1.391 . S
C977 C981 1.376 1_545 S
C978 C976 1.394 . S
C978 C979 1.369 . S
C978 C982 1.531 . S
C979 C978 1.369 . S
C979 C980 1.410 1_545 S
C979 C987 1.503 . S
C980 C979 1.410 1_565 S
C980 C981 1.392 . S
C980 C983 1.511 . S
C981 C977 1.376 1_565 S
C981 C980 1.392 . S
C981 H993 0.929 . S
C982 C978 1.531 . S
C982 H994 0.960 . S
C982 H995 0.962 . S
C982 H996 0.960 . S
C983 C980 1.511 . S
C983 H997 0.961 . S
C983 H998 0.961 . S
C983 H999 0.961 . S
C984 C985 1.370 . S
C984 C986 1.363 . S
C984 H1000 0.931 . S
C985 C984 1.370 . S
C985 C989 1.408 . S
C986 C984 1.363 . S
C986 C987 1.370 . S
C986 C990 1.524 . S
C987 C979 1.503 . S
C987 C986 1.370 . S
C987 C988 1.403 . S
C988 C987 1.403 . S
C988 C989 1.404 . S
C988 C991 1.539 . S
C989 C985 1.408 . S
C989 C988 1.404 . S
C989 H1001 0.930 . S
C990 C986 1.524 . S
C990 H1002 0.956 . S
C990 H1003 0.961 . S
C990 H1004 0.961 . S
C991 C988 1.539 . S
C991 H1005 0.958 . S
C991 H1006 0.961 1_545 S
C991 H1007 0.960 1_545 S
H992 C976 0.931 . S
H993 C981 0.929 . S
H994 C982 0.960 . S
H995 C982 0.962 . S
H996 C982 0.960 . S
H997 C983 0.961 . S
H998 C983 0.961 . S
H999 C983 0.961 . S
H1000 C984 0.931 . S
H1001 C989 0.930 . S
H1002 C990 0.956 . S
H1003 C990 0.961 . S
H1004 C990 0.961 . S
H1005 C991 0.958 . S
H1006 C991 0.961 1_565 S
H1007 C991 0.960 1_565 S
C1008 C1009 1.391 . S
C1008 C1010 1.394 . S
C1008 H1024 0.931 . S
C1009 C1008 1.391 . S
C1009 C1013 1.376 . S
C1010 C1008 1.394 . S
C1010 C1011 1.369 . S
C1010 C1014 1.531 . S
C1011 C1010 1.369 . S
C1011 C1012 1.410 . S
C1011 C1019 1.503 . S
C1012 C1011 1.410 . S
C1012 C1013 1.392 . S
C1012 C1015 1.511 . S
C1013 C1009 1.376 . S
C1013 C1012 1.392 . S
C1013 H1025 0.929 . S
C1014 C1010 1.531 . S
C1014 H1026 0.960 . S
C1014 H1027 0.962 . S
C1014 H1028 0.960 . S
C1015 C1012 1.511 . S
C1015 H1029 0.961 . S
C1015 H1030 0.961 . S
C1015 H1031 0.961 . S
C1016 C1017 1.370 . S
C1016 C1018 1.363 . S
C1016 H1032 0.931 . S
C1017 C1016 1.370 . S
C1017 C1021 1.408 . S
C1018 C1016 1.363 . S
C1018 C1019 1.370 . S
C1018 C1022 1.524 . S
C1019 C1011 1.503 . S
C1019 C1018 1.370 . S
C1019 C1020 1.403 . S
C1020 C1019 1.403 . S
C1020 C1021 1.404 . S
C1020 C1023 1.539 . S
C1021 C1017 1.408 . S
C1021 C1020 1.404 . S
C1021 H1033 0.930 . S
C1022 C1018 1.524 . S
C1022 H1034 0.956 . S
C1022 H1035 0.961 . S
C1022 H1036 0.961 . S
C1023 C1020 1.539 . S
C1023 H1037 0.958 . S
C1023 H1038 0.961 . S
C1023 H1039 0.960 . S
H1024 C1008 0.931 . S
H1025 C1013 0.929 . S
H1026 C1014 0.960 . S
H1027 C1014 0.962 . S
H1028 C1014 0.960 . S
H1029 C1015 0.961 . S
H1030 C1015 0.961 . S
H1031 C1015 0.961 . S
H1032 C1016 0.931 . S
H1033 C1021 0.930 . S
H1034 C1022 0.956 . S
H1035 C1022 0.961 . S
H1036 C1022 0.961 . S
H1037 C1023 0.958 . S
H1038 C1023 0.961 . S
H1039 C1023 0.960 . S
C1040 C1041 1.391 . S
C1040 C1042 1.394 . S
C1040 H1056 0.931 . S
C1041 C1040 1.391 . S
C1041 C1045 1.376 . S
C1042 C1040 1.394 . S
C1042 C1043 1.369 . S
C1042 C1046 1.531 . S
C1043 C1042 1.369 . S
C1043 C1044 1.410 . S
C1043 C1051 1.503 . S
C1044 C1043 1.410 . S
C1044 C1045 1.392 . S
C1044 C1047 1.511 . S
C1045 C1041 1.376 . S
C1045 C1044 1.392 . S
C1045 H1057 0.929 . S
C1046 C1042 1.531 . S
C1046 H1058 0.960 . S
C1046 H1059 0.962 . S
C1046 H1060 0.960 1_545 S
C1047 C1044 1.511 . S
C1047 H1061 0.961 . S
C1047 H1062 0.961 . S
C1047 H1063 0.961 . S
C1048 C1049 1.370 . S
C1048 C1050 1.363 . S
C1048 H1064 0.931 . S
C1049 C1048 1.370 . S
C1049 C1053 1.408 . S
C1050 C1048 1.363 . S
C1050 C1051 1.370 . S
C1050 C1054 1.524 . S
C1051 C1043 1.503 . S
C1051 C1050 1.370 . S
C1051 C1052 1.403 . S
C1052 C1051 1.403 . S
C1052 C1053 1.404 . S
C1052 C1055 1.539 . S
C1053 C1049 1.408 . S
C1053 C1052 1.404 . S
C1053 H1065 0.930 1_655 S
C1054 C1050 1.524 . S
C1054 H1066 0.956 . S
C1054 H1067 0.961 . S
C1054 H1068 0.961 . S
C1055 C1052 1.539 . S
C1055 H1069 0.958 . S
C1055 H1070 0.961 1_655 S
C1055 H1071 0.960 . S
H1056 C1040 0.931 . S
H1057 C1045 0.929 . S
H1058 C1046 0.960 . S
H1059 C1046 0.962 . S
H1060 C1046 0.960 1_565 S
H1061 C1047 0.961 . S
H1062 C1047 0.961 . S
H1063 C1047 0.961 . S
H1064 C1048 0.931 . S
H1065 C1053 0.930 1_455 S
H1066 C1054 0.956 . S
H1067 C1054 0.961 . S
H1068 C1054 0.961 . S
H1069 C1055 0.958 . S
H1070 C1055 0.961 1_455 S
H1071 C1055 0.960 . S
C1072 C1073 1.391 . S
C1072 C1074 1.394 . S
C1072 H1088 0.931 . S
C1073 C1072 1.391 . S
C1073 C1077 1.376 . S
C1074 C1072 1.394 . S
C1074 C1075 1.369 . S
C1074 C1078 1.531 . S
C1075 C1074 1.369 . S
C1075 C1076 1.410 . S
C1075 C1083 1.503 . S
C1076 C1075 1.410 . S
C1076 C1077 1.392 . S
C1076 C1079 1.511 . S
C1077 C1073 1.376 . S
C1077 C1076 1.392 . S
C1077 H1089 0.929 . S
C1078 C1074 1.531 . S
C1078 H1090 0.960 . S
C1078 H1091 0.962 . S
C1078 H1092 0.960 . S
C1079 C1076 1.511 . S
C1079 H1093 0.961 . S
C1079 H1094 0.961 . S
C1079 H1095 0.961 . S
C1080 C1081 1.370 . S
C1080 C1082 1.363 . S
C1080 H1096 0.931 . S
C1081 C1080 1.370 . S
C1081 C1085 1.408 . S
C1082 C1080 1.363 . S
C1082 C1083 1.370 . S
C1082 C1086 1.524 . S
C1083 C1075 1.503 . S
C1083 C1082 1.370 . S
C1083 C1084 1.403 . S
C1084 C1083 1.403 . S
C1084 C1085 1.404 . S
C1084 C1087 1.539 . S
C1085 C1081 1.408 . S
C1085 C1084 1.404 . S
C1085 H1097 0.930 . S
C1086 C1082 1.524 . S
C1086 H1098 0.956 . S
C1086 H1099 0.961 . S
C1086 H1100 0.961 . S
C1087 C1084 1.539 . S
C1087 H1101 0.958 . S
C1087 H1102 0.961 . S
C1087 H1103 0.960 . S
H1088 C1072 0.931 . S
H1089 C1077 0.929 . S
H1090 C1078 0.960 . S
H1091 C1078 0.962 . S
H1092 C1078 0.960 . S
H1093 C1079 0.961 . S
H1094 C1079 0.961 . S
H1095 C1079 0.961 . S
H1096 C1080 0.931 . S
H1097 C1085 0.930 . S
H1098 C1086 0.956 . S
H1099 C1086 0.961 . S
H1100 C1086 0.961 . S
H1101 C1087 0.958 . S
H1102 C1087 0.961 . S
H1103 C1087 0.960 . S
C1104 C1105 1.391 . S
C1104 C1106 1.394 . S
C1104 H1120 0.931 . S
C1105 C1104 1.391 . S
C1105 C1109 1.376 . S
C1106 C1104 1.394 . S
C1106 C1107 1.369 . S
C1106 C1110 1.531 . S
C1107 C1106 1.369 . S
C1107 C1108 1.410 . S
C1107 C1115 1.503 . S
C1108 C1107 1.410 . S
C1108 C1109 1.392 . S
C1108 C1111 1.511 1_545 S
C1109 C1105 1.376 . S
C1109 C1108 1.392 . S
C1109 H1121 0.929 1_545 S
C1110 C1106 1.531 . S
C1110 H1122 0.960 . S
C1110 H1123 0.962 . S
C1110 H1124 0.960 . S
C1111 C1108 1.511 1_565 S
C1111 H1125 0.961 . S
C1111 H1126 0.961 . S
C1111 H1127 0.961 1_565 S
C1112 C1113 1.370 . S
C1112 C1114 1.363 . S
C1112 H1128 0.931 . S
C1113 C1112 1.370 . S
C1113 C1117 1.408 . S
C1114 C1112 1.363 . S
C1114 C1115 1.370 . S
C1114 C1118 1.524 1_545 S
C1115 C1107 1.503 . S
C1115 C1114 1.370 . S
C1115 C1116 1.403 . S
C1116 C1115 1.403 . S
C1116 C1117 1.404 . S
C1116 C1119 1.539 . S
C1117 C1113 1.408 . S
C1117 C1116 1.404 . S
C1117 H1129 0.930 . S
C1118 C1114 1.524 1_565 S
C1118 H1130 0.956 1_565 S
C1118 H1131 0.961 . S
C1118 H1132 0.961 . S
C1119 C1116 1.539 . S
C1119 H1133 0.958 . S
C1119 H1134 0.961 . S
C1119 H1135 0.960 . S
H1120 C1104 0.931 . S
H1121 C1109 0.929 1_565 S
H1122 C1110 0.960 . S
H1123 C1110 0.962 . S
H1124 C1110 0.960 . S
H1125 C1111 0.961 . S
H1126 C1111 0.961 . S
H1127 C1111 0.961 1_545 S
H1128 C1112 0.931 . S
H1129 C1117 0.930 . S
H1130 C1118 0.956 1_545 S
H1131 C1118 0.961 . S
H1132 C1118 0.961 . S
H1133 C1119 0.958 . S
H1134 C1119 0.961 . S
H1135 C1119 0.960 . S
C1136 C1137 1.391 . S
C1136 C1138 1.394 . S
C1136 H1152 0.931 . S
C1137 C1136 1.391 . S
C1137 C1141 1.376 . S
C1138 C1136 1.394 . S
C1138 C1139 1.369 . S
C1138 C1142 1.531 . S
C1139 C1138 1.369 . S
C1139 C1140 1.410 . S
C1139 C1147 1.503 . S
C1140 C1139 1.410 . S
C1140 C1141 1.392 . S
C1140 C1143 1.511 . S
C1141 C1137 1.376 . S
C1141 C1140 1.392 . S
C1141 H1153 0.929 . S
C1142 C1138 1.531 . S
C1142 H1154 0.960 . S
C1142 H1155 0.962 . S
C1142 H1156 0.960 . S
C1143 C1140 1.511 . S
C1143 H1157 0.961 . S
C1143 H1158 0.961 . S
C1143 H1159 0.961 . S
C1144 C1145 1.370 . S
C1144 C1146 1.363 . S
C1144 H1160 0.931 . S
C1145 C1144 1.370 . S
C1145 C1149 1.408 . S
C1146 C1144 1.363 . S
C1146 C1147 1.370 . S
C1146 C1150 1.524 . S
C1147 C1139 1.503 . S
C1147 C1146 1.370 . S
C1147 C1148 1.403 . S
C1148 C1147 1.403 . S
C1148 C1149 1.404 . S
C1148 C1151 1.539 . S
C1149 C1145 1.408 . S
C1149 C1148 1.404 . S
C1149 H1161 0.930 . S
C1150 C1146 1.524 . S
C1150 H1162 0.956 . S
C1150 H1163 0.961 . S
C1150 H1164 0.961 . S
C1151 C1148 1.539 . S
C1151 H1165 0.958 . S
C1151 H1166 0.961 . S
C1151 H1167 0.960 . S
H1152 C1136 0.931 . S
H1153 C1141 0.929 . S
H1154 C1142 0.960 . S
H1155 C1142 0.962 . S
H1156 C1142 0.960 . S
H1157 C1143 0.961 . S
H1158 C1143 0.961 . S
H1159 C1143 0.961 . S
H1160 C1144 0.931 . S
H1161 C1149 0.930 . S
H1162 C1150 0.956 . S
H1163 C1150 0.961 . S
H1164 C1150 0.961 . S
H1165 C1151 0.958 . S
H1166 C1151 0.961 . S
H1167 C1151 0.960 . S
C1168 C1169 1.391 . S
C1168 C1170 1.394 . S
C1168 H1184 0.931 . S
C1169 C1168 1.391 . S
C1169 C1173 1.376 . S
C1170 C1168 1.394 . S
C1170 C1171 1.369 . S
C1170 C1174 1.531 . S
C1171 C1170 1.369 . S
C1171 C1172 1.410 . S
C1171 C1179 1.503 . S
C1172 C1171 1.410 . S
C1172 C1173 1.392 . S
C1172 C1175 1.511 . S
C1173 C1169 1.376 . S
C1173 C1172 1.392 . S
C1173 H1185 0.929 . S
C1174 C1170 1.531 . S
C1174 H1186 0.960 . S
C1174 H1187 0.962 . S
C1174 H1188 0.960 . S
C1175 C1172 1.511 . S
C1175 H1189 0.961 1_565 S
C1175 H1190 0.961 1_565 S
C1175 H1191 0.961 1_565 S
C1176 C1177 1.370 . S
C1176 C1178 1.363 . S
C1176 H1192 0.931 1_554 S
C1177 C1176 1.370 . S
C1177 C1181 1.408 . S
C1178 C1176 1.363 . S
C1178 C1179 1.370 . S
C1178 C1182 1.524 1_554 S
C1179 C1171 1.503 . S
C1179 C1178 1.370 . S
C1179 C1180 1.403 . S
C1180 C1179 1.403 . S
C1180 C1181 1.404 . S
C1180 C1183 1.539 . S
C1181 C1177 1.408 . S
C1181 C1180 1.404 . S
C1181 H1193 0.938 . S
C1182 C1178 1.524 1_556 S
C1182 H1194 0.956 . S
C1182 H1195 0.961 . S
C1182 H1196 0.961 . S
C1183 C1180 1.539 . S
C1183 H1197 0.958 . S
C1183 H1198 0.961 . S
C1183 H1199 0.960 . S
H1184 C1168 0.931 . S
H1185 C1173 0.929 . S
H1186 C1174 0.960 . S
H1187 C1174 0.962 . S
H1188 C1174 0.960 . S
H1189 C1175 0.961 1_545 S
H1190 C1175 0.961 1_545 S
H1191 C1175 0.961 1_545 S
H1192 C1176 0.931 1_556 S
H1193 C1181 0.938 . S
H1194 C1182 0.956 . S
H1195 C1182 0.961 . S
H1196 C1182 0.961 . S
H1197 C1183 0.958 . S
H1198 C1183 0.961 . S
H1199 C1183 0.960 . S
C1200 C1201 1.391 . S
C1200 C1202 1.394 . S
C1200 H1216 0.931 . S
C1201 C1200 1.391 . S
C1201 C1205 1.376 1_556 S
C1202 C1200 1.394 . S
C1202 C1203 1.369 . S
C1202 C1206 1.531 . S
C1203 C1202 1.369 . S
C1203 C1204 1.410 1_556 S
C1203 C1211 1.508 . S
C1204 C1203 1.410 1_554 S
C1204 C1205 1.392 . S
C1204 C1207 1.511 . S
C1205 C1201 1.376 1_554 S
C1205 C1204 1.392 . S
C1205 H1217 0.929 . S
C1206 C1202 1.531 . S
C1206 H1218 0.960 . S
C1206 H1219 0.962 . S
C1206 H1220 0.960 . S
C1207 C1204 1.511 . S
C1207 H1221 0.961 . S
C1207 H1222 0.961 . S
C1207 H1223 0.961 . S
C1208 C1209 1.370 . S
C1208 C1210 1.363 . S
C1208 H1224 0.931 . S
C1209 C1208 1.370 . S
C1209 C1213 1.408 1_554 S
C1210 C1208 1.363 . S
C1210 C1211 1.359 1_554 S
C1210 C1214 1.524 . S
C1211 C1203 1.508 . S
C1211 C1210 1.359 1_556 S
C1211 C1212 1.410 . S
C1212 C1211 1.410 . S
C1212 C1213 1.404 . S
C1212 C1215 1.539 . S
C1213 C1209 1.408 1_556 S
C1213 C1212 1.404 . S
C1213 H1225 0.930 . S
C1214 C1210 1.524 . S
C1214 H1226 0.956 . S
C1214 H1227 0.961 . S
C1214 H1228 0.961 . S
C1215 C1212 1.539 . S
C1215 H1229 0.958 . S
C1215 H1230 0.961 . S
C1215 H1231 0.960 . S
H1216 C1200 0.931 . S
H1217 C1205 0.929 . S
H1218 C1206 0.960 . S
H1219 C1206 0.962 . S
H1220 C1206 0.960 . S
H1221 C1207 0.961 . S
H1222 C1207 0.961 . S
H1223 C1207 0.961 . S
H1224 C1208 0.931 . S
H1225 C1213 0.930 . S
H1226 C1214 0.956 . S
H1227 C1214 0.961 . S
H1228 C1214 0.961 . S
H1229 C1215 0.958 . S
H1230 C1215 0.961 . S
H1231 C1215 0.960 . S
C1232 C1233 1.391 . S
C1232 C1234 1.394 . S
C1232 H1248 0.931 . S
C1233 C1232 1.391 . S
C1233 C1237 1.376 . S
C1234 C1232 1.394 . S
C1234 C1235 1.369 . S
C1234 C1238 1.531 . S
C1235 C1234 1.369 . S
C1235 C1236 1.410 . S
C1235 C1243 1.503 . S
C1236 C1235 1.410 . S
C1236 C1237 1.392 . S
C1236 C1239 1.511 . S
C1237 C1233 1.376 . S
C1237 C1236 1.392 . S
C1237 H1249 0.929 . S
C1238 C1234 1.531 . S
C1238 H1250 0.960 . S
C1238 H1251 0.962 . S
C1238 H1252 0.960 . S
C1239 C1236 1.511 . S
C1239 H1253 0.961 . S
C1239 H1254 0.961 . S
C1239 H1255 0.961 . S
C1240 C1241 1.370 . S
C1240 C1242 1.363 . S
C1240 H1256 0.931 . S
C1241 C1240 1.370 . S
C1241 C1245 1.408 . S
C1242 C1240 1.363 . S
C1242 C1243 1.370 . S
C1242 C1246 1.524 . S
C1243 C1235 1.503 . S
C1243 C1242 1.370 . S
C1243 C1244 1.403 . S
C1244 C1243 1.403 . S
C1244 C1245 1.404 . S
C1244 C1247 1.539 . S
C1245 C1241 1.408 . S
C1245 C1244 1.404 . S
C1245 H1257 0.930 . S
C1246 C1242 1.524 . S
C1246 H1258 0.956 . S
C1246 H1259 0.961 . S
C1246 H1260 0.961 . S
C1247 C1244 1.539 . S
C1247 H1261 0.958 . S
C1247 H1262 0.961 . S
C1247 H1263 0.960 . S
H1248 C1232 0.931 . S
H1249 C1237 0.929 . S
H1250 C1238 0.960 . S
H1251 C1238 0.962 . S
H1252 C1238 0.960 . S
H1253 C1239 0.961 . S
H1254 C1239 0.961 . S
H1255 C1239 0.961 . S
H1256 C1240 0.931 . S
H1257 C1245 0.930 . S
H1258 C1246 0.956 . S
H1259 C1246 0.961 . S
H1260 C1246 0.961 . S
H1261 C1247 0.958 . S
H1262 C1247 0.961 . S
H1263 C1247 0.960 . S
C1264 C1265 1.391 . S
C1264 C1266 1.394 . S
C1264 H1280 0.931 . S
C1265 C1264 1.391 . S
C1265 C1269 1.376 . S
C1266 C1264 1.394 . S
C1266 C1267 1.369 . S
C1266 C1270 1.531 . S
C1267 C1266 1.369 . S
C1267 C1268 1.410 . S
C1267 C1275 1.503 . S
C1268 C1267 1.410 . S
C1268 C1269 1.392 . S
C1268 C1271 1.511 . S
C1269 C1265 1.376 . S
C1269 C1268 1.392 . S
C1269 H1281 0.929 . S
C1270 C1266 1.531 . S
C1270 H1282 0.960 . S
C1270 H1283 0.962 . S
C1270 H1284 0.960 . S
C1271 C1268 1.511 . S
C1271 H1285 0.961 . S
C1271 H1286 0.961 . S
C1271 H1287 0.961 . S
C1272 C1273 1.370 . S
C1272 C1274 1.363 . S
C1272 H1288 0.931 . S
C1273 C1272 1.370 . S
C1273 C1277 1.408 . S
C1274 C1272 1.363 . S
C1274 C1275 1.370 . S
C1274 C1278 1.524 . S
C1275 C1267 1.503 . S
C1275 C1274 1.370 . S
C1275 C1276 1.403 . S
C1276 C1275 1.403 . S
C1276 C1277 1.404 . S
C1276 C1279 1.539 . S
C1277 C1273 1.408 . S
C1277 C1276 1.404 . S
C1277 H1289 0.930 . S
C1278 C1274 1.524 . S
C1278 H1290 0.956 . S
C1278 H1291 0.961 . S
C1278 H1292 0.961 . S
C1279 C1276 1.539 . S
C1279 H1293 0.958 . S
C1279 H1294 0.961 . S
C1279 H1295 0.960 . S
H1280 C1264 0.931 . S
H1281 C1269 0.929 . S
H1282 C1270 0.960 . S
H1283 C1270 0.962 . S
H1284 C1270 0.960 . S
H1285 C1271 0.961 . S
H1286 C1271 0.961 . S
H1287 C1271 0.961 . S
H1288 C1272 0.931 . S
H1289 C1277 0.930 . S
H1290 C1278 0.956 . S
H1291 C1278 0.961 . S
H1292 C1278 0.961 . S
H1293 C1279 0.958 . S
H1294 C1279 0.961 . S
H1295 C1279 0.960 . S
C1296 C1297 1.391 . S
C1296 C1298 1.394 . S
C1296 H1312 0.931 . S
C1297 C1296 1.391 . S
C1297 C1301 1.376 . S
C1298 C1296 1.394 . S
C1298 C1299 1.369 . S
C1298 C1302 1.531 . S
C1299 C1298 1.369 . S
C1299 C1300 1.410 . S
C1299 C1307 1.503 . S
C1300 C1299 1.410 . S
C1300 C1301 1.392 . S
C1300 C1303 1.511 . S
C1301 C1297 1.376 . S
C1301 C1300 1.392 . S
C1301 H1313 0.929 . S
C1302 C1298 1.531 . S
C1302 H1314 0.960 . S
C1302 H1315 0.962 . S
C1302 H1316 0.960 . S
C1303 C1300 1.511 . S
C1303 H1317 0.961 . S
C1303 H1318 0.961 . S
C1303 H1319 0.961 . S
C1304 C1305 1.370 . S
C1304 C1306 1.363 . S
C1304 H1320 0.931 . S
C1305 C1304 1.370 . S
C1305 C1309 1.408 . S
C1306 C1304 1.363 . S
C1306 C1307 1.370 . S
C1306 C1310 1.524 . S
C1307 C1299 1.503 . S
C1307 C1306 1.370 . S
C1307 C1308 1.403 . S
C1308 C1307 1.403 . S
C1308 C1309 1.404 . S
C1308 C1311 1.539 . S
C1309 C1305 1.408 . S
C1309 C1308 1.404 . S
C1309 H1321 0.930 . S
C1310 C1306 1.524 . S
C1310 H1322 0.956 . S
C1310 H1323 0.961 . S
C1310 H1324 0.961 . S
C1311 C1308 1.539 . S
C1311 H1325 0.958 . S
C1311 H1326 0.961 . S
C1311 H1327 0.960 . S
H1312 C1296 0.931 . S
H1313 C1301 0.929 . S
H1314 C1302 0.960 . S
H1315 C1302 0.962 . S
H1316 C1302 0.960 . S
H1317 C1303 0.961 . S
H1318 C1303 0.961 . S
H1319 C1303 0.961 . S
H1320 C1304 0.931 . S
H1321 C1309 0.930 . S
H1322 C1310 0.956 . S
H1323 C1310 0.961 . S
H1324 C1310 0.961 . S
H1325 C1311 0.958 . S
H1326 C1311 0.961 . S
H1327 C1311 0.960 . S
C1328 C1329 1.391 . S
C1328 C1330 1.394 . S
C1328 H1344 0.931 . S
C1329 C1328 1.391 . S
C1329 C1333 1.376 . S
C1330 C1328 1.394 . S
C1330 C1331 1.369 . S
C1330 C1334 1.531 . S
C1331 C1330 1.369 . S
C1331 C1332 1.410 . S
C1331 C1339 1.503 . S
C1332 C1331 1.410 . S
C1332 C1333 1.392 . S
C1332 C1335 1.511 . S
C1333 C1329 1.376 . S
C1333 C1332 1.392 . S
C1333 H1345 0.929 . S
C1334 C1330 1.531 . S
C1334 H1346 0.960 . S
C1334 H1347 0.962 . S
C1334 H1348 0.960 . S
C1335 C1332 1.511 . S
C1335 H1349 0.961 . S
C1335 H1350 0.961 . S
C1335 H1351 0.961 . S
C1336 C1337 1.370 . S
C1336 C1338 1.363 . S
C1336 H1352 0.931 . S
C1337 C1336 1.370 . S
C1337 C1341 1.408 . S
C1338 C1336 1.363 . S
C1338 C1339 1.370 . S
C1338 C1342 1.524 . S
C1339 C1331 1.503 . S
C1339 C1338 1.370 . S
C1339 C1340 1.403 . S
C1340 C1339 1.403 . S
C1340 C1341 1.404 . S
C1340 C1343 1.539 . S
C1341 C1337 1.408 . S
C1341 C1340 1.404 . S
C1341 H1353 0.930 . S
C1342 C1338 1.524 . S
C1342 H1354 0.956 . S
C1342 H1355 0.961 . S
C1342 H1356 0.961 . S
C1343 C1340 1.539 . S
C1343 H1357 0.958 . S
C1343 H1358 0.961 . S
C1343 H1359 0.960 . S
H1344 C1328 0.931 . S
H1345 C1333 0.929 . S
H1346 C1334 0.960 . S
H1347 C1334 0.962 . S
H1348 C1334 0.960 . S
H1349 C1335 0.961 . S
H1350 C1335 0.961 . S
H1351 C1335 0.961 . S
H1352 C1336 0.931 . S
H1353 C1341 0.930 . S
H1354 C1342 0.956 . S
H1355 C1342 0.961 . S
H1356 C1342 0.961 . S
H1357 C1343 0.958 . S
H1358 C1343 0.961 . S
H1359 C1343 0.960 . S
C1360 C1361 1.391 . S
C1360 C1362 1.394 . S
C1360 H1376 0.931 . S
C1361 C1360 1.391 . S
C1361 C1365 1.376 . S
C1362 C1360 1.394 . S
C1362 C1363 1.369 . S
C1362 C1366 1.531 . S
C1363 C1362 1.369 . S
C1363 C1364 1.410 . S
C1363 C1371 1.503 . S
C1364 C1363 1.410 . S
C1364 C1365 1.392 . S
C1364 C1367 1.511 . S
C1365 C1361 1.376 . S
C1365 C1364 1.392 . S
C1365 H1377 0.929 . S
C1366 C1362 1.531 . S
C1366 H1378 0.960 . S
C1366 H1379 0.962 . S
C1366 H1380 0.960 . S
C1367 C1364 1.511 . S
C1367 H1381 0.961 . S
C1367 H1382 0.961 . S
C1367 H1383 0.961 . S
C1368 C1369 1.370 . S
C1368 C1370 1.363 . S
C1368 H1384 0.931 . S
C1369 C1368 1.370 . S
C1369 C1373 1.408 . S
C1370 C1368 1.363 . S
C1370 C1371 1.370 . S
C1370 C1374 1.524 . S
C1371 C1363 1.503 . S
C1371 C1370 1.370 . S
C1371 C1372 1.403 . S
C1372 C1371 1.403 . S
C1372 C1373 1.404 . S
C1372 C1375 1.539 . S
C1373 C1369 1.408 . S
C1373 C1372 1.404 . S
C1373 H1385 0.930 . S
C1374 C1370 1.524 . S
C1374 H1386 0.956 . S
C1374 H1387 0.961 . S
C1374 H1388 0.961 . S
C1375 C1372 1.539 . S
C1375 H1389 0.958 . S
C1375 H1390 0.961 . S
C1375 H1391 0.960 . S
H1376 C1360 0.931 . S
H1377 C1365 0.929 . S
H1378 C1366 0.960 . S
H1379 C1366 0.962 . S
H1380 C1366 0.960 . S
H1381 C1367 0.961 . S
H1382 C1367 0.961 . S
H1383 C1367 0.961 . S
H1384 C1368 0.931 . S
H1385 C1373 0.930 . S
H1386 C1374 0.956 . S
H1387 C1374 0.961 . S
H1388 C1374 0.961 . S
H1389 C1375 0.958 . S
H1390 C1375 0.961 . S
H1391 C1375 0.960 . S
C1392 C1393 1.391 . S
C1392 C1394 1.394 . S
C1392 H1408 0.931 . S
C1393 C1392 1.391 . S
C1393 C1397 1.376 . S
C1394 C1392 1.394 . S
C1394 C1395 1.369 . S
C1394 C1398 1.531 . S
C1395 C1394 1.369 . S
C1395 C1396 1.410 . S
C1395 C1403 1.503 . S
C1396 C1395 1.410 . S
C1396 C1397 1.392 . S
C1396 C1399 1.511 . S
C1397 C1393 1.376 . S
C1397 C1396 1.392 . S
C1397 H1409 0.929 . S
C1398 C1394 1.531 . S
C1398 H1410 0.960 . S
C1398 H1411 0.962 . S
C1398 H1412 0.960 . S
C1399 C1396 1.511 . S
C1399 H1413 0.961 . S
C1399 H1414 0.961 . S
C1399 H1415 0.961 . S
C1400 C1401 1.370 . S
C1400 C1402 1.363 . S
C1400 H1416 0.931 . S
C1401 C1400 1.370 . S
C1401 C1405 1.408 . S
C1402 C1400 1.363 . S
C1402 C1403 1.370 . S
C1402 C1406 1.524 . S
C1403 C1395 1.503 . S
C1403 C1402 1.370 . S
C1403 C1404 1.403 . S
C1404 C1403 1.403 . S
C1404 C1405 1.404 . S
C1404 C1407 1.539 . S
C1405 C1401 1.408 . S
C1405 C1404 1.404 . S
C1405 H1417 0.930 . S
C1406 C1402 1.524 . S
C1406 H1418 0.956 . S
C1406 H1419 0.961 . S
C1406 H1420 0.961 . S
C1407 C1404 1.539 . S
C1407 H1421 0.958 . S
C1407 H1422 0.961 . S
C1407 H1423 0.960 . S
H1408 C1392 0.931 . S
H1409 C1397 0.929 . S
H1410 C1398 0.960 . S
H1411 C1398 0.962 . S
H1412 C1398 0.960 . S
H1413 C1399 0.961 . S
H1414 C1399 0.961 . S
H1415 C1399 0.961 . S
H1416 C1400 0.931 . S
H1417 C1405 0.930 . S
H1418 C1406 0.956 . S
H1419 C1406 0.961 . S
H1420 C1406 0.961 . S
H1421 C1407 0.958 . S
H1422 C1407 0.961 . S
H1423 C1407 0.960 . S
C1424 C1425 1.391 . S
C1424 C1426 1.394 . S
C1424 H1440 0.931 . S
C1425 C1424 1.391 . S
C1425 C1429 1.376 1_455 S
C1426 C1424 1.394 . S
C1426 C1427 1.369 . S
C1426 C1430 1.531 . S
C1427 C1426 1.369 . S
C1427 C1428 1.410 1_455 S
C1427 C1435 1.503 . S
C1428 C1427 1.410 1_655 S
C1428 C1429 1.392 . S
C1428 C1431 1.511 . S
C1429 C1425 1.376 1_655 S
C1429 C1428 1.392 . S
C1429 H1441 0.929 . S
C1430 C1426 1.531 . S
C1430 H1442 0.960 . S
C1430 H1443 0.962 . S
C1430 H1444 0.960 . S
C1431 C1428 1.511 . S
C1431 H1445 0.961 . S
C1431 H1446 0.961 . S
C1431 H1447 0.961 . S
C1432 C1433 1.370 . S
C1432 C1434 1.363 . S
C1432 H1448 0.931 . S
C1433 C1432 1.370 . S
C1433 C1437 1.408 . S
C1434 C1432 1.363 . S
C1434 C1435 1.370 . S
C1434 C1438 1.524 . S
C1435 C1427 1.503 . S
C1435 C1434 1.370 . S
C1435 C1436 1.403 . S
C1436 C1435 1.403 . S
C1436 C1437 1.404 . S
C1436 C1439 1.539 . S
C1437 C1433 1.408 . S
C1437 C1436 1.404 . S
C1437 H1449 0.930 . S
C1438 C1434 1.524 . S
C1438 H1450 0.956 . S
C1438 H1451 0.961 1_455 S
C1438 H1452 0.961 . S
C1439 C1436 1.539 . S
C1439 H1453 0.958 . S
C1439 H1454 0.961 . S
C1439 H1455 0.960 . S
H1440 C1424 0.931 . S
H1441 C1429 0.929 . S
H1442 C1430 0.960 . S
H1443 C1430 0.962 . S
H1444 C1430 0.960 . S
H1445 C1431 0.961 . S
H1446 C1431 0.961 . S
H1447 C1431 0.961 . S
H1448 C1432 0.931 . S
H1449 C1437 0.930 . S
H1450 C1438 0.956 . S
H1451 C1438 0.961 1_655 S
H1452 C1438 0.961 . S
H1453 C1439 0.958 . S
H1454 C1439 0.961 . S
H1455 C1439 0.960 . S
C1456 C1457 1.391 . S
C1456 C1458 1.394 . S
C1456 H1472 0.931 . S
C1457 C1456 1.391 . S
C1457 C1461 1.376 . S
C1458 C1456 1.394 . S
C1458 C1459 1.369 . S
C1458 C1462 1.531 . S
C1459 C1458 1.369 . S
C1459 C1460 1.410 . S
C1459 C1467 1.503 . S
C1460 C1459 1.410 . S
C1460 C1461 1.392 . S
C1460 C1463 1.511 . S
C1461 C1457 1.376 . S
C1461 C1460 1.392 . S
C1461 H1473 0.929 . S
C1462 C1458 1.531 . S
C1462 H1474 0.960 . S
C1462 H1475 0.962 . S
C1462 H1476 0.960 . S
C1463 C1460 1.511 . S
C1463 H1477 0.961 . S
C1463 H1478 0.961 . S
C1463 H1479 0.961 . S
C1464 C1465 1.370 . S
C1464 C1466 1.363 . S
C1464 H1480 0.931 . S
C1465 C1464 1.370 . S
C1465 C1469 1.408 . S
C1466 C1464 1.363 . S
C1466 C1467 1.370 . S
C1466 C1470 1.524 . S
C1467 C1459 1.503 . S
C1467 C1466 1.370 . S
C1467 C1468 1.403 . S
C1468 C1467 1.403 . S
C1468 C1469 1.404 . S
C1468 C1471 1.539 . S
C1469 C1465 1.408 . S
C1469 C1468 1.404 . S
C1469 H1481 0.930 . S
C1470 C1466 1.524 . S
C1470 H1482 0.956 . S
C1470 H1483 0.961 . S
C1470 H1484 0.961 . S
C1471 C1468 1.539 . S
C1471 H1485 0.958 . S
C1471 H1486 0.961 . S
C1471 H1487 0.960 . S
H1472 C1456 0.931 . S
H1473 C1461 0.929 . S
H1474 C1462 0.960 . S
H1475 C1462 0.962 . S
H1476 C1462 0.960 . S
H1477 C1463 0.961 . S
H1478 C1463 0.961 . S
H1479 C1463 0.961 . S
H1480 C1464 0.931 . S
H1481 C1469 0.930 . S
H1482 C1470 0.956 . S
H1483 C1470 0.961 . S
H1484 C1470 0.961 . S
H1485 C1471 0.958 . S
H1486 C1471 0.961 . S
H1487 C1471 0.960 . S
C1488 C1489 1.391 . S
C1488 C1490 1.394 . S
C1488 H1504 0.931 . S
C1489 C1488 1.391 . S
C1489 C1493 1.376 . S
C1490 C1488 1.394 . S
C1490 C1491 1.369 . S
C1490 C1494 1.531 . S
C1491 C1490 1.369 . S
C1491 C1492 1.410 . S
C1491 C1499 1.503 . S
C1492 C1491 1.410 . S
C1492 C1493 1.392 . S
C1492 C1495 1.511 . S
C1493 C1489 1.376 . S
C1493 C1492 1.392 . S
C1493 H1505 0.929 . S
C1494 C1490 1.531 . S
C1494 H1506 0.960 . S
C1494 H1507 0.962 . S
C1494 H1508 0.960 . S
C1495 C1492 1.511 . S
C1495 H1509 0.961 . S
C1495 H1510 0.961 . S
C1495 H1511 0.961 . S
C1496 C1497 1.370 . S
C1496 C1498 1.363 . S
C1496 H1512 0.931 . S
C1497 C1496 1.370 . S
C1497 C1501 1.408 . S
C1498 C1496 1.363 . S
C1498 C1499 1.370 . S
C1498 C1502 1.524 . S
C1499 C1491 1.503 . S
C1499 C1498 1.370 . S
C1499 C1500 1.403 . S
C1500 C1499 1.403 . S
C1500 C1501 1.404 . S
C1500 C1503 1.539 . S
C1501 C1497 1.408 . S
C1501 C1500 1.404 . S
C1501 H1513 0.930 . S
C1502 C1498 1.524 . S
C1502 H1514 0.956 . S
C1502 H1515 0.961 . S
C1502 H1516 0.961 . S
C1503 C1500 1.539 . S
C1503 H1517 0.958 . S
C1503 H1518 0.961 . S
C1503 H1519 0.960 . S
H1504 C1488 0.931 . S
H1505 C1493 0.929 . S
H1506 C1494 0.960 . S
H1507 C1494 0.962 . S
H1508 C1494 0.960 . S
H1509 C1495 0.961 . S
H1510 C1495 0.961 . S
H1511 C1495 0.961 . S
H1512 C1496 0.931 . S
H1513 C1501 0.930 . S
H1514 C1502 0.956 . S
H1515 C1502 0.961 . S
H1516 C1502 0.961 . S
H1517 C1503 0.958 . S
H1518 C1503 0.961 . S
H1519 C1503 0.960 . S
C1520 C1521 1.391 . S
C1520 C1522 1.394 . S
C1520 H1536 0.931 . S
C1521 C1520 1.391 . S
C1521 C1525 1.376 . S
C1522 C1520 1.394 . S
C1522 C1523 1.369 . S
C1522 C1526 1.531 . S
C1523 C1522 1.369 . S
C1523 C1524 1.410 . S
C1523 C1531 1.503 . S
C1524 C1523 1.410 . S
C1524 C1525 1.392 . S
C1524 C1527 1.511 . S
C1525 C1521 1.376 . S
C1525 C1524 1.392 . S
C1525 H1537 0.929 . S
C1526 C1522 1.531 . S
C1526 H1538 0.960 . S
C1526 H1539 0.962 . S
C1526 H1540 0.960 . S
C1527 C1524 1.511 . S
C1527 H1541 0.961 . S
C1527 H1542 0.961 . S
C1527 H1543 0.961 . S
C1528 C1529 1.370 . S
C1528 C1530 1.363 . S
C1528 H1544 0.931 . S
C1529 C1528 1.370 . S
C1529 C1533 1.408 . S
C1530 C1528 1.363 . S
C1530 C1531 1.370 . S
C1530 C1534 1.524 . S
C1531 C1523 1.503 . S
C1531 C1530 1.370 . S
C1531 C1532 1.403 . S
C1532 C1531 1.403 . S
C1532 C1533 1.404 . S
C1532 C1535 1.539 . S
C1533 C1529 1.408 . S
C1533 C1532 1.404 . S
C1533 H1545 0.930 . S
C1534 C1530 1.524 . S
C1534 H1546 0.956 . S
C1534 H1547 0.961 . S
C1534 H1548 0.961 . S
C1535 C1532 1.539 . S
C1535 H1549 0.958 . S
C1535 H1550 0.961 . S
C1535 H1551 0.960 . S
H1536 C1520 0.931 . S
H1537 C1525 0.929 . S
H1538 C1526 0.960 . S
H1539 C1526 0.962 . S
H1540 C1526 0.960 . S
H1541 C1527 0.961 . S
H1542 C1527 0.961 . S
H1543 C1527 0.961 . S
H1544 C1528 0.931 . S
H1545 C1533 0.930 . S
H1546 C1534 0.956 . S
H1547 C1534 0.961 . S
H1548 C1534 0.961 . S
H1549 C1535 0.958 . S
H1550 C1535 0.961 . S
H1551 C1535 0.960 . S
C1552 C1553 1.391 . S
C1552 C1554 1.394 . S
C1552 H1568 0.931 . S
C1553 C1552 1.391 . S
C1553 C1557 1.376 1_455 S
C1554 C1552 1.394 . S
C1554 C1555 1.369 . S
C1554 C1558 1.531 . S
C1555 C1554 1.369 . S
C1555 C1556 1.410 1_455 S
C1555 C1563 1.503 . S
C1556 C1555 1.410 1_655 S
C1556 C1557 1.392 . S
C1556 C1559 1.511 . S
C1557 C1553 1.376 1_655 S
C1557 C1556 1.392 . S
C1557 H1569 0.929 . S
C1558 C1554 1.531 . S
C1558 H1570 0.960 . S
C1558 H1571 0.962 . S
C1558 H1572 0.960 . S
C1559 C1556 1.511 . S
C1559 H1573 0.961 . S
C1559 H1574 0.961 . S
C1559 H1575 0.961 . S
C1560 C1561 1.370 . S
C1560 C1562 1.363 . S
C1560 H1576 0.931 . S
C1561 C1560 1.370 . S
C1561 C1565 1.408 1_455 S
C1562 C1560 1.363 . S
C1562 C1563 1.370 . S
C1562 C1566 1.524 . S
C1563 C1555 1.503 . S
C1563 C1562 1.370 . S
C1563 C1564 1.403 1_455 S
C1564 C1563 1.403 1_655 S
C1564 C1565 1.404 . S
C1564 C1567 1.539 . S
C1565 C1561 1.408 1_655 S
C1565 C1564 1.404 . S
C1565 H1577 0.930 . S
C1566 C1562 1.524 . S
C1566 H1578 0.956 . S
C1566 H1579 0.961 . S
C1566 H1580 0.961 . S
C1567 C1564 1.539 . S
C1567 H1581 0.958 . S
C1567 H1582 0.961 . S
C1567 H1583 0.960 . S
H1568 C1552 0.931 . S
H1569 C1557 0.929 . S
H1570 C1558 0.960 . S
H1571 C1558 0.962 . S
H1572 C1558 0.960 . S
H1573 C1559 0.961 . S
H1574 C1559 0.961 . S
H1575 C1559 0.961 . S
H1576 C1560 0.931 . S
H1577 C1565 0.930 . S
H1578 C1566 0.956 . S
H1579 C1566 0.961 . S
H1580 C1566 0.961 . S
H1581 C1567 0.958 . S
H1582 C1567 0.961 . S
H1583 C1567 0.960 . S
C1584 C1585 1.391 . S
C1584 C1586 1.394 . S
C1584 H1600 0.931 . S
C1585 C1584 1.391 . S
C1585 C1589 1.376 . S
C1586 C1584 1.394 . S
C1586 C1587 1.369 . S
C1586 C1590 1.531 . S
C1587 C1586 1.369 . S
C1587 C1588 1.410 . S
C1587 C1595 1.503 . S
C1588 C1587 1.410 . S
C1588 C1589 1.392 . S
C1588 C1591 1.511 . S
C1589 C1585 1.376 . S
C1589 C1588 1.392 . S
C1589 H1601 0.929 . S
C1590 C1586 1.531 . S
C1590 H1602 0.960 . S
C1590 H1603 0.962 . S
C1590 H1604 0.960 . S
C1591 C1588 1.511 . S
C1591 H1605 0.961 . S
C1591 H1606 0.961 . S
C1591 H1607 0.961 . S
C1592 C1593 1.370 . S
C1592 C1594 1.363 . S
C1592 H1608 0.931 . S
C1593 C1592 1.370 . S
C1593 C1597 1.408 . S
C1594 C1592 1.363 . S
C1594 C1595 1.370 . S
C1594 C1598 1.524 . S
C1595 C1587 1.503 . S
C1595 C1594 1.370 . S
C1595 C1596 1.403 . S
C1596 C1595 1.403 . S
C1596 C1597 1.404 . S
C1596 C1599 1.539 . S
C1597 C1593 1.408 . S
C1597 C1596 1.404 . S
C1597 H1609 0.930 . S
C1598 C1594 1.524 . S
C1598 H1610 0.956 . S
C1598 H1611 0.961 . S
C1598 H1612 0.961 . S
C1599 C1596 1.539 . S
C1599 H1613 0.958 . S
C1599 H1614 0.961 . S
C1599 H1615 0.960 . S
H1600 C1584 0.931 . S
H1601 C1589 0.929 . S
H1602 C1590 0.960 . S
H1603 C1590 0.962 . S
H1604 C1590 0.960 . S
H1605 C1591 0.961 . S
H1606 C1591 0.961 . S
H1607 C1591 0.961 . S
H1608 C1592 0.931 . S
H1609 C1597 0.930 . S
H1610 C1598 0.956 . S
H1611 C1598 0.961 . S
H1612 C1598 0.961 . S
H1613 C1599 0.958 . S
H1614 C1599 0.961 . S
H1615 C1599 0.960 . S
C1616 C1617 1.391 . S
C1616 C1618 1.394 . S
C1616 H1632 0.931 . S
C1617 C1616 1.391 . S
C1617 C1621 1.376 . S
C1618 C1616 1.394 . S
C1618 C1619 1.369 . S
C1618 C1622 1.531 . S
C1619 C1618 1.369 . S
C1619 C1620 1.410 . S
C1619 C1627 1.503 . S
C1620 C1619 1.410 . S
C1620 C1621 1.392 . S
C1620 C1623 1.511 . S
C1621 C1617 1.376 . S
C1621 C1620 1.392 . S
C1621 H1633 0.929 . S
C1622 C1618 1.531 . S
C1622 H1634 0.960 . S
C1622 H1635 0.962 . S
C1622 H1636 0.960 . S
C1623 C1620 1.511 . S
C1623 H1637 0.961 . S
C1623 H1638 0.961 . S
C1623 H1639 0.961 . S
C1624 C1625 1.370 . S
C1624 C1626 1.363 . S
C1624 H1640 0.931 . S
C1625 C1624 1.370 . S
C1625 C1629 1.408 . S
C1626 C1624 1.363 . S
C1626 C1627 1.370 . S
C1626 C1630 1.524 . S
C1627 C1619 1.503 . S
C1627 C1626 1.370 . S
C1627 C1628 1.403 . S
C1628 C1627 1.403 . S
C1628 C1629 1.404 . S
C1628 C1631 1.539 . S
C1629 C1625 1.408 . S
C1629 C1628 1.404 . S
C1629 H1641 0.930 1_556 S
C1630 C1626 1.524 . S
C1630 H1642 0.956 . S
C1630 H1643 0.961 . S
C1630 H1644 0.961 . S
C1631 C1628 1.539 . S
C1631 H1645 0.958 . S
C1631 H1646 0.961 1_556 S
C1631 H1647 0.960 . S
H1632 C1616 0.931 . S
H1633 C1621 0.929 . S
H1634 C1622 0.960 . S
H1635 C1622 0.962 . S
H1636 C1622 0.960 . S
H1637 C1623 0.961 . S
H1638 C1623 0.961 . S
H1639 C1623 0.961 . S
H1640 C1624 0.931 . S
H1641 C1629 0.930 1_554 S
H1642 C1630 0.956 . S
H1643 C1630 0.961 . S
H1644 C1630 0.961 . S
H1645 C1631 0.958 . S
H1646 C1631 0.961 1_554 S
H1647 C1631 0.960 . S
C1648 C1649 1.391 . S
C1648 C1650 1.394 . S
C1648 H1664 0.931 . S
C1649 C1648 1.391 . S
C1649 C1653 1.376 . S
C1650 C1648 1.394 . S
C1650 C1651 1.369 . S
C1650 C1654 1.531 . S
C1651 C1650 1.369 . S
C1651 C1652 1.410 . S
C1651 C1659 1.503 . S
C1652 C1651 1.410 . S
C1652 C1653 1.392 . S
C1652 C1655 1.511 . S
C1653 C1649 1.376 . S
C1653 C1652 1.392 . S
C1653 H1665 0.929 . S
C1654 C1650 1.531 . S
C1654 H1666 0.960 . S
C1654 H1667 0.962 . S
C1654 H1668 0.960 . S
C1655 C1652 1.511 . S
C1655 H1669 0.961 . S
C1655 H1670 0.961 . S
C1655 H1671 0.961 . S
C1656 C1657 1.370 . S
C1656 C1658 1.363 . S
C1656 H1672 0.931 . S
C1657 C1656 1.370 . S
C1657 C1661 1.408 . S
C1658 C1656 1.363 . S
C1658 C1659 1.370 . S
C1658 C1662 1.524 . S
C1659 C1651 1.503 . S
C1659 C1658 1.370 . S
C1659 C1660 1.403 . S
C1660 C1659 1.403 . S
C1660 C1661 1.404 . S
C1660 C1663 1.539 . S
C1661 C1657 1.408 . S
C1661 C1660 1.404 . S
C1661 H1673 0.930 . S
C1662 C1658 1.524 . S
C1662 H1674 0.956 . S
C1662 H1675 0.961 . S
C1662 H1676 0.961 . S
C1663 C1660 1.539 . S
C1663 H1677 0.958 . S
C1663 H1678 0.961 . S
C1663 H1679 0.960 . S
H1664 C1648 0.931 . S
H1665 C1653 0.929 . S
H1666 C1654 0.960 . S
H1667 C1654 0.962 . S
H1668 C1654 0.960 . S
H1669 C1655 0.961 . S
H1670 C1655 0.961 . S
H1671 C1655 0.961 . S
H1672 C1656 0.931 . S
H1673 C1661 0.930 . S
H1674 C1662 0.956 . S
H1675 C1662 0.961 . S
H1676 C1662 0.961 . S
H1677 C1663 0.958 . S
H1678 C1663 0.961 . S
H1679 C1663 0.960 . S
C1680 C1681 1.385 1_565 S
C1680 C1682 1.394 . S
C1680 H1696 0.931 . S
C1681 C1680 1.385 1_545 S
C1681 C1685 1.381 . S
C1682 C1680 1.394 . S
C1682 C1683 1.366 1_565 S
C1682 C1686 1.531 . S
C1683 C1682 1.366 1_545 S
C1683 C1684 1.412 . S
C1683 C1691 1.504 . S
C1684 C1683 1.412 . S
C1684 C1685 1.392 . S
C1684 C1687 1.511 . S
C1685 C1681 1.381 . S
C1685 C1684 1.392 . S
C1685 H1697 0.929 . S
C1686 C1682 1.531 . S
C1686 H1698 0.960 . S
C1686 H1699 0.962 . S
C1686 H1700 0.960 . S
C1687 C1684 1.511 . S
C1687 H1701 0.961 . S
C1687 H1702 0.961 . S
C1687 H1703 0.961 . S
C1688 C1689 1.370 . S
C1688 C1690 1.363 . S
C1688 H1704 0.931 . S
C1689 C1688 1.370 . S
C1689 C1693 1.408 1_545 S
C1690 C1688 1.363 . S
C1690 C1691 1.370 . S
C1690 C1694 1.524 . S
C1691 C1683 1.504 . S
C1691 C1690 1.370 . S
C1691 C1692 1.403 1_545 S
C1692 C1691 1.403 1_565 S
C1692 C1693 1.404 . S
C1692 C1695 1.539 . S
C1693 C1689 1.408 1_565 S
C1693 C1692 1.404 . S
C1693 H1705 0.930 . S
C1694 C1690 1.524 . S
C1694 H1706 0.956 . S
C1694 H1707 0.961 . S
C1694 H1708 0.961 . S
C1695 C1692 1.539 . S
C1695 H1709 0.958 . S
C1695 H1710 0.961 . S
C1695 H1711 0.960 . S
H1696 C1680 0.931 . S
H1697 C1685 0.929 . S
H1698 C1686 0.960 . S
H1699 C1686 0.962 . S
H1700 C1686 0.960 . S
H1701 C1687 0.961 . S
H1702 C1687 0.961 . S
H1703 C1687 0.961 . S
H1704 C1688 0.931 . S
H1705 C1693 0.930 . S
H1706 C1694 0.956 . S
H1707 C1694 0.961 . S
H1708 C1694 0.961 . S
H1709 C1695 0.958 . S
H1710 C1695 0.961 . S
H1711 C1695 0.960 . S
C1712 C1713 1.391 . S
C1712 C1714 1.394 . S
C1712 H1728 0.931 . S
C1713 C1712 1.391 . S
C1713 C1717 1.376 . S
C1714 C1712 1.394 . S
C1714 C1715 1.369 . S
C1714 C1718 1.531 . S
C1715 C1714 1.369 . S
C1715 C1716 1.410 . S
C1715 C1723 1.503 . S
C1716 C1715 1.410 . S
C1716 C1717 1.392 . S
C1716 C1719 1.511 . S
C1717 C1713 1.376 . S
C1717 C1716 1.392 . S
C1717 H1729 0.929 . S
C1718 C1714 1.531 . S
C1718 H1730 0.960 . S
C1718 H1731 0.962 . S
C1718 H1732 0.960 . S
C1719 C1716 1.511 . S
C1719 H1733 0.961 . S
C1719 H1734 0.961 . S
C1719 H1735 0.961 . S
C1720 C1721 1.370 . S
C1720 C1722 1.363 . S
C1720 H1736 0.931 . S
C1721 C1720 1.370 . S
C1721 C1725 1.408 . S
C1722 C1720 1.363 . S
C1722 C1723 1.370 . S
C1722 C1726 1.524 . S
C1723 C1715 1.503 . S
C1723 C1722 1.370 . S
C1723 C1724 1.403 . S
C1724 C1723 1.403 . S
C1724 C1725 1.404 . S
C1724 C1727 1.539 . S
C1725 C1721 1.408 . S
C1725 C1724 1.404 . S
C1725 H1737 0.930 . S
C1726 C1722 1.524 . S
C1726 H1738 0.956 . S
C1726 H1739 0.961 . S
C1726 H1740 0.961 . S
C1727 C1724 1.539 . S
C1727 H1741 0.958 . S
C1727 H1742 0.961 . S
C1727 H1743 0.960 . S
H1728 C1712 0.931 . S
H1729 C1717 0.929 . S
H1730 C1718 0.960 . S
H1731 C1718 0.962 . S
H1732 C1718 0.960 . S
H1733 C1719 0.961 . S
H1734 C1719 0.961 . S
H1735 C1719 0.961 . S
H1736 C1720 0.931 . S
H1737 C1725 0.930 . S
H1738 C1726 0.956 . S
H1739 C1726 0.961 . S
H1740 C1726 0.961 . S
H1741 C1727 0.958 . S
H1742 C1727 0.961 . S
H1743 C1727 0.960 . S
C1744 C1745 1.391 . S
C1744 C1746 1.394 . S
C1744 H1760 0.931 . S
C1745 C1744 1.391 . S
C1745 C1749 1.376 . S
C1746 C1744 1.394 . S
C1746 C1747 1.369 . S
C1746 C1750 1.531 . S
C1747 C1746 1.369 . S
C1747 C1748 1.410 . S
C1747 C1755 1.503 . S
C1748 C1747 1.410 . S
C1748 C1749 1.392 . S
C1748 C1751 1.511 . S
C1749 C1745 1.376 . S
C1749 C1748 1.392 . S
C1749 H1761 0.929 . S
C1750 C1746 1.531 . S
C1750 H1762 0.960 1_545 S
C1750 H1763 0.962 . S
C1750 H1764 0.960 1_545 S
C1751 C1748 1.511 . S
C1751 H1765 0.961 . S
C1751 H1766 0.961 . S
C1751 H1767 0.961 . S
C1752 C1753 1.370 . S
C1752 C1754 1.363 . S
C1752 H1768 0.931 . S
C1753 C1752 1.370 . S
C1753 C1757 1.408 . S
C1754 C1752 1.363 . S
C1754 C1755 1.370 . S
C1754 C1758 1.524 . S
C1755 C1747 1.503 . S
C1755 C1754 1.370 . S
C1755 C1756 1.403 . S
C1756 C1755 1.403 . S
C1756 C1757 1.404 . S
C1756 C1759 1.539 1_545 S
C1757 C1753 1.408 . S
C1757 C1756 1.404 . S
C1757 H1769 0.942 . S
C1758 C1754 1.524 . S
C1758 H1770 0.956 . S
C1758 H1771 0.961 . S
C1758 H1772 0.961 . S
C1759 C1756 1.539 1_565 S
C1759 H1773 0.958 . S
C1759 H1774 0.961 . S
C1759 H1775 0.960 1_565 S
H1760 C1744 0.931 . S
H1761 C1749 0.929 . S
H1762 C1750 0.960 1_565 S
H1763 C1750 0.962 . S
H1764 C1750 0.960 1_565 S
H1765 C1751 0.961 . S
H1766 C1751 0.961 . S
H1767 C1751 0.961 . S
H1768 C1752 0.931 . S
H1769 C1757 0.942 . S
H1770 C1758 0.956 . S
H1771 C1758 0.961 . S
H1772 C1758 0.961 . S
H1773 C1759 0.958 . S
H1774 C1759 0.961 . S
H1775 C1759 0.960 1_545 S
C1776 C1777 1.391 . S
C1776 C1778 1.394 . S
C1776 H1792 0.931 . S
C1777 C1776 1.391 . S
C1777 C1781 1.376 . S
C1778 C1776 1.394 . S
C1778 C1779 1.369 . S
C1778 C1782 1.531 . S
C1779 C1778 1.369 . S
C1779 C1780 1.410 . S
C1779 C1787 1.503 . S
C1780 C1779 1.410 . S
C1780 C1781 1.392 . S
C1780 C1783 1.511 . S
C1781 C1777 1.376 . S
C1781 C1780 1.392 . S
C1781 H1793 0.929 . S
C1782 C1778 1.531 . S
C1782 H1794 0.960 . S
C1782 H1795 0.962 . S
C1782 H1796 0.960 . S
C1783 C1780 1.511 . S
C1783 H1797 0.961 . S
C1783 H1798 0.961 . S
C1783 H1799 0.961 . S
C1784 C1785 1.370 . S
C1784 C1786 1.363 . S
C1784 H1800 0.931 . S
C1785 C1784 1.370 . S
C1785 C1789 1.408 . S
C1786 C1784 1.363 . S
C1786 C1787 1.370 . S
C1786 C1790 1.524 . S
C1787 C1779 1.503 . S
C1787 C1786 1.370 . S
C1787 C1788 1.403 . S
C1788 C1787 1.403 . S
C1788 C1789 1.404 . S
C1788 C1791 1.539 . S
C1789 C1785 1.408 . S
C1789 C1788 1.404 . S
C1789 H1801 0.930 . S
C1790 C1786 1.524 . S
C1790 H1802 0.956 . S
C1790 H1803 0.961 . S
C1790 H1804 0.961 . S
C1791 C1788 1.539 . S
C1791 H1805 0.958 . S
C1791 H1806 0.961 . S
C1791 H1807 0.960 . S
H1792 C1776 0.931 . S
H1793 C1781 0.929 . S
H1794 C1782 0.960 . S
H1795 C1782 0.962 . S
H1796 C1782 0.960 . S
H1797 C1783 0.961 . S
H1798 C1783 0.961 . S
H1799 C1783 0.961 . S
H1800 C1784 0.931 . S
H1801 C1789 0.930 . S
H1802 C1790 0.956 . S
H1803 C1790 0.961 . S
H1804 C1790 0.961 . S
H1805 C1791 0.958 . S
H1806 C1791 0.961 . S
H1807 C1791 0.960 . S
C1808 C1809 1.391 . S
C1808 C1810 1.394 . S
C1808 H1824 0.931 . S
C1809 C1808 1.391 . S
C1809 C1813 1.376 . S
C1810 C1808 1.394 . S
C1810 C1811 1.383 . S
C1810 C1814 1.531 . S
C1811 C1810 1.383 . S
C1811 C1812 1.408 . S
C1811 C1819 1.489 1_565 S
C1812 C1811 1.408 . S
C1812 C1813 1.392 . S
C1812 C1815 1.511 1_565 S
C1813 C1809 1.376 . S
C1813 C1812 1.392 . S
C1813 H1825 0.929 . S
C1814 C1810 1.531 . S
C1814 H1826 0.960 . S
C1814 H1827 0.962 1_565 S
C1814 H1828 0.960 . S
C1815 C1812 1.511 1_545 S
C1815 H1829 0.961 . S
C1815 H1830 0.961 . S
C1815 H1831 0.961 1_545 S
C1816 C1817 1.370 . S
C1816 C1818 1.363 . S
C1816 H1832 0.931 . S
C1817 C1816 1.370 . S
C1817 C1821 1.408 1_545 S
C1818 C1816 1.363 . S
C1818 C1819 1.370 . S
C1818 C1822 1.524 . S
C1819 C1811 1.489 1_545 S
C1819 C1818 1.370 . S
C1819 C1820 1.403 1_545 S
C1820 C1819 1.403 1_565 S
C1820 C1821 1.404 . S
C1820 C1823 1.539 . S
C1821 C1817 1.408 1_565 S
C1821 C1820 1.404 . S
C1821 H1833 0.930 . S
C1822 C1818 1.524 . S
C1822 H1834 0.956 . S
C1822 H1835 0.961 . S
C1822 H1836 0.961 . S
C1823 C1820 1.539 . S
C1823 H1837 0.958 . S
C1823 H1838 0.961 . S
C1823 H1839 0.960 . S
H1824 C1808 0.931 . S
H1825 C1813 0.929 . S
H1826 C1814 0.960 . S
H1827 C1814 0.962 1_545 S
H1828 C1814 0.960 . S
H1829 C1815 0.961 . S
H1830 C1815 0.961 . S
H1831 C1815 0.961 1_565 S
H1832 C1816 0.931 . S
H1833 C1821 0.930 . S
H1834 C1822 0.956 . S
H1835 C1822 0.961 . S
H1836 C1822 0.961 . S
H1837 C1823 0.958 . S
H1838 C1823 0.961 . S
H1839 C1823 0.960 . S
C1840 C1841 1.391 . S
C1840 C1842 1.394 . S
C1840 H1856 0.931 . S
C1841 C1840 1.391 . S
C1841 C1845 1.376 . S
C1842 C1840 1.394 . S
C1842 C1843 1.369 . S
C1842 C1846 1.531 . S
C1843 C1842 1.369 . S
C1843 C1844 1.410 . S
C1843 C1851 1.503 . S
C1844 C1843 1.410 . S
C1844 C1845 1.392 . S
C1844 C1847 1.511 . S
C1845 C1841 1.376 . S
C1845 C1844 1.392 . S
C1845 H1857 0.929 . S
C1846 C1842 1.531 . S
C1846 H1858 0.960 . S
C1846 H1859 0.962 . S
C1846 H1860 0.960 . S
C1847 C1844 1.511 . S
C1847 H1861 0.961 . S
C1847 H1862 0.961 . S
C1847 H1863 0.961 . S
C1848 C1849 1.370 . S
C1848 C1850 1.363 . S
C1848 H1864 0.931 . S
C1849 C1848 1.370 . S
C1849 C1853 1.408 . S
C1850 C1848 1.363 . S
C1850 C1851 1.370 . S
C1850 C1854 1.524 . S
C1851 C1843 1.503 . S
C1851 C1850 1.370 . S
C1851 C1852 1.403 . S
C1852 C1851 1.403 . S
C1852 C1853 1.404 . S
C1852 C1855 1.539 . S
C1853 C1849 1.408 . S
C1853 C1852 1.404 . S
C1853 H1865 0.930 . S
C1854 C1850 1.524 . S
C1854 H1866 0.956 . S
C1854 H1867 0.961 . S
C1854 H1868 0.961 . S
C1855 C1852 1.539 . S
C1855 H1869 0.958 . S
C1855 H1870 0.961 . S
C1855 H1871 0.960 . S
H1856 C1840 0.931 . S
H1857 C1845 0.929 . S
H1858 C1846 0.960 . S
H1859 C1846 0.962 . S
H1860 C1846 0.960 . S
H1861 C1847 0.961 . S
H1862 C1847 0.961 . S
H1863 C1847 0.961 . S
H1864 C1848 0.931 . S
H1865 C1853 0.930 . S
H1866 C1854 0.956 . S
H1867 C1854 0.961 . S
H1868 C1854 0.961 . S
H1869 C1855 0.958 . S
H1870 C1855 0.961 . S
H1871 C1855 0.960 . S
C1872 C1873 1.391 . S
C1872 C1874 1.394 . S
C1872 H1888 0.931 . S
C1873 C1872 1.391 . S
C1873 C1877 1.376 . S
C1874 C1872 1.394 . S
C1874 C1875 1.369 . S
C1874 C1878 1.531 . S
C1875 C1874 1.369 . S
C1875 C1876 1.410 . S
C1875 C1883 1.503 . S
C1876 C1875 1.410 . S
C1876 C1877 1.392 . S
C1876 C1879 1.511 . S
C1877 C1873 1.376 . S
C1877 C1876 1.392 . S
C1877 H1889 0.929 . S
C1878 C1874 1.531 . S
C1878 H1890 0.960 . S
C1878 H1891 0.962 . S
C1878 H1892 0.960 . S
C1879 C1876 1.511 . S
C1879 H1893 0.956 1_545 S
C1879 H1894 0.961 . S
C1879 H1895 0.961 . S
C1880 C1881 1.370 . S
C1880 C1882 1.363 . S
C1880 H1896 0.931 1_545 S
C1881 C1880 1.370 . S
C1881 C1885 1.408 . S
C1882 C1880 1.363 . S
C1882 C1883 1.370 . S
C1882 C1886 1.524 1_545 S
C1883 C1875 1.503 . S
C1883 C1882 1.370 . S
C1883 C1884 1.403 . S
C1884 C1883 1.403 . S
C1884 C1885 1.404 . S
C1884 C1887 1.539 . S
C1885 C1881 1.408 . S
C1885 C1884 1.404 . S
C1885 H1897 0.930 . S
C1886 C1882 1.524 1_565 S
C1886 H1898 0.956 1_565 S
C1886 H1899 0.961 . S
C1886 H1900 0.961 . S
C1887 C1884 1.539 . S
C1887 H1901 0.958 . S
C1887 H1902 0.961 . S
C1887 H1903 0.960 . S
H1888 C1872 0.931 . S
H1889 C1877 0.929 . S
H1890 C1878 0.960 . S
H1891 C1878 0.962 . S
H1892 C1878 0.960 . S
H1893 C1879 0.956 1_565 S
H1894 C1879 0.961 . S
H1895 C1879 0.961 . S
H1896 C1880 0.931 1_565 S
H1897 C1885 0.930 . S
H1898 C1886 0.956 1_545 S
H1899 C1886 0.961 . S
H1900 C1886 0.961 . S
H1901 C1887 0.958 . S
H1902 C1887 0.961 . S
H1903 C1887 0.960 . S
C1904 C1905 1.391 . S
C1904 C1906 1.394 . S
C1904 H1920 0.931 . S
C1905 C1904 1.391 . S
C1905 C1909 1.376 . S
C1906 C1904 1.394 . S
C1906 C1907 1.369 . S
C1906 C1910 1.531 . S
C1907 C1906 1.369 . S
C1907 C1908 1.410 . S
C1907 C1915 1.503 . S
C1908 C1907 1.410 . S
C1908 C1909 1.392 . S
C1908 C1911 1.511 . S
C1909 C1905 1.376 . S
C1909 C1908 1.392 . S
C1909 H1921 0.929 . S
C1910 C1906 1.531 . S
C1910 H1922 0.960 . S
C1910 H1923 0.962 . S
C1910 H1924 0.960 . S
C1911 C1908 1.511 . S
C1911 H1925 0.961 . S
C1911 H1926 0.961 . S
C1911 H1927 0.961 . S
C1912 C1913 1.370 . S
C1912 C1914 1.363 . S
C1912 H1928 0.931 . S
C1913 C1912 1.370 . S
C1913 C1917 1.408 . S
C1914 C1912 1.363 . S
C1914 C1915 1.370 . S
C1914 C1918 1.524 . S
C1915 C1907 1.503 . S
C1915 C1914 1.370 . S
C1915 C1916 1.403 . S
C1916 C1915 1.403 . S
C1916 C1917 1.404 . S
C1916 C1919 1.539 . S
C1917 C1913 1.408 . S
C1917 C1916 1.404 . S
C1917 H1929 0.930 . S
C1918 C1914 1.524 . S
C1918 H1930 0.956 . S
C1918 H1931 0.961 . S
C1918 H1932 0.961 . S
C1919 C1916 1.539 . S
C1919 H1933 0.958 . S
C1919 H1934 0.961 . S
C1919 H1935 0.960 . S
H1920 C1904 0.931 . S
H1921 C1909 0.929 . S
H1922 C1910 0.960 . S
H1923 C1910 0.962 . S
H1924 C1910 0.960 . S
H1925 C1911 0.961 . S
H1926 C1911 0.961 . S
H1927 C1911 0.961 . S
H1928 C1912 0.931 . S
H1929 C1917 0.930 . S
H1930 C1918 0.956 . S
H1931 C1918 0.961 . S
H1932 C1918 0.961 . S
H1933 C1919 0.958 . S
H1934 C1919 0.961 . S
H1935 C1919 0.960 . S
C1936 C1937 1.391 1_556 S
C1936 C1938 1.394 . S
C1936 H1952 0.931 . S
C1937 C1936 1.391 1_554 S
C1937 C1941 1.376 . S
C1938 C1936 1.394 . S
C1938 C1939 1.369 1_556 S
C1938 C1942 1.531 . S
C1939 C1938 1.369 1_554 S
C1939 C1940 1.410 . S
C1939 C1947 1.503 . S
C1940 C1939 1.410 . S
C1940 C1941 1.392 . S
C1940 C1943 1.511 . S
C1941 C1937 1.376 . S
C1941 C1940 1.392 . S
C1941 H1953 0.929 . S
C1942 C1938 1.531 . S
C1942 H1954 0.960 . S
C1942 H1955 0.962 . S
C1942 H1956 0.960 . S
C1943 C1940 1.511 . S
C1943 H1957 0.961 . S
C1943 H1958 0.961 . S
C1943 H1959 0.961 . S
C1944 C1945 1.370 1_556 S
C1944 C1946 1.363 . S
C1944 H1960 0.931 . S
C1945 C1944 1.370 1_554 S
C1945 C1949 1.408 . S
C1946 C1944 1.363 . S
C1946 C1947 1.370 1_556 S
C1946 C1950 1.524 . S
C1947 C1939 1.503 . S
C1947 C1946 1.370 1_554 S
C1947 C1948 1.403 . S
C1948 C1947 1.403 . S
C1948 C1949 1.404 . S
C1948 C1951 1.539 . S
C1949 C1945 1.408 . S
C1949 C1948 1.404 . S
C1949 H1961 0.930 . S
C1950 C1946 1.524 . S
C1950 H1962 0.956 . S
C1950 H1963 0.961 . S
C1950 H1964 0.961 . S
C1951 C1948 1.539 . S
C1951 H1965 0.958 . S
C1951 H1966 0.961 . S
C1951 H1967 0.960 . S
H1952 C1936 0.931 . S
H1953 C1941 0.929 . S
H1954 C1942 0.960 . S
H1955 C1942 0.962 . S
H1956 C1942 0.960 . S
H1957 C1943 0.961 . S
H1958 C1943 0.961 . S
H1959 C1943 0.961 . S
H1960 C1944 0.931 . S
H1961 C1949 0.930 . S
H1962 C1950 0.956 . S
H1963 C1950 0.961 . S
H1964 C1950 0.961 . S
H1965 C1951 0.958 . S
H1966 C1951 0.961 . S
H1967 C1951 0.960 . S
C1968 C1969 1.391 . S
C1968 C1970 1.394 . S
C1968 H1984 0.931 . S
C1969 C1968 1.391 . S
C1969 C1973 1.376 . S
C1970 C1968 1.394 . S
C1970 C1971 1.369 . S
C1970 C1974 1.531 . S
C1971 C1970 1.369 . S
C1971 C1972 1.410 . S
C1971 C1979 1.503 . S
C1972 C1971 1.410 . S
C1972 C1973 1.392 . S
C1972 C1975 1.511 . S
C1973 C1969 1.376 . S
C1973 C1972 1.392 . S
C1973 H1985 0.929 . S
C1974 C1970 1.531 . S
C1974 H1986 0.960 . S
C1974 H1987 0.962 . S
C1974 H1988 0.960 . S
C1975 C1972 1.511 . S
C1975 H1989 0.961 . S
C1975 H1990 0.961 . S
C1975 H1991 0.961 . S
C1976 C1977 1.370 . S
C1976 C1978 1.363 . S
C1976 H1992 0.931 . S
C1977 C1976 1.370 . S
C1977 C1981 1.408 . S
C1978 C1976 1.363 . S
C1978 C1979 1.370 . S
C1978 C1982 1.524 . S
C1979 C1971 1.503 . S
C1979 C1978 1.370 . S
C1979 C1980 1.403 . S
C1980 C1979 1.403 . S
C1980 C1981 1.404 . S
C1980 C1983 1.539 1_554 S
C1981 C1977 1.408 . S
C1981 C1980 1.404 . S
C1981 H1993 0.930 1_554 S
C1982 C1978 1.524 . S
C1982 H1994 0.956 . S
C1982 H1995 0.961 . S
C1982 H1996 0.961 . S
C1983 C1980 1.539 1_556 S
C1983 H1997 0.958 . S
C1983 H1998 0.961 . S
C1983 H1999 0.960 . S
H1984 C1968 0.931 . S
H1985 C1973 0.929 . S
H1986 C1974 0.960 . S
H1987 C1974 0.962 . S
H1988 C1974 0.960 . S
H1989 C1975 0.961 . S
H1990 C1975 0.961 . S
H1991 C1975 0.961 . S
H1992 C1976 0.931 . S
H1993 C1981 0.930 1_556 S
H1994 C1982 0.956 . S
H1995 C1982 0.961 . S
H1996 C1982 0.961 . S
H1997 C1983 0.958 . S
H1998 C1983 0.961 . S
H1999 C1983 0.960 . S
C2000 C2001 1.391 . S
C2000 C2002 1.394 . S
C2000 H2016 0.931 . S
C2001 C2000 1.391 . S
C2001 C2005 1.376 . S
C2002 C2000 1.394 . S
C2002 C2003 1.369 . S
C2002 C2006 1.531 . S
C2003 C2002 1.369 . S
C2003 C2004 1.410 . S
C2003 C2011 1.503 . S
C2004 C2003 1.410 . S
C2004 C2005 1.392 . S
C2004 C2007 1.511 . S
C2005 C2001 1.376 . S
C2005 C2004 1.392 . S
C2005 H2017 0.929 . S
C2006 C2002 1.531 . S
C2006 H2018 0.960 . S
C2006 H2019 0.962 . S
C2006 H2020 0.960 . S
C2007 C2004 1.511 . S
C2007 H2021 0.961 . S
C2007 H2022 0.961 . S
C2007 H2023 0.961 . S
C2008 C2009 1.370 . S
C2008 C2010 1.363 . S
C2008 H2024 0.931 . S
C2009 C2008 1.370 . S
C2009 C2013 1.408 . S
C2010 C2008 1.363 . S
C2010 C2011 1.370 . S
C2010 C2014 1.524 . S
C2011 C2003 1.503 . S
C2011 C2010 1.370 . S
C2011 C2012 1.403 . S
C2012 C2011 1.403 . S
C2012 C2013 1.404 . S
C2012 C2015 1.539 . S
C2013 C2009 1.408 . S
C2013 C2012 1.404 . S
C2013 H2025 0.930 . S
C2014 C2010 1.524 . S
C2014 H2026 0.956 . S
C2014 H2027 0.961 . S
C2014 H2028 0.961 . S
C2015 C2012 1.539 . S
C2015 H2029 0.958 . S
C2015 H2030 0.961 . S
C2015 H2031 0.960 . S
H2016 C2000 0.931 . S
H2017 C2005 0.929 . S
H2018 C2006 0.960 . S
H2019 C2006 0.962 . S
H2020 C2006 0.960 . S
H2021 C2007 0.961 . S
H2022 C2007 0.961 . S
H2023 C2007 0.961 . S
H2024 C2008 0.931 . S
H2025 C2013 0.930 . S
H2026 C2014 0.956 . S
H2027 C2014 0.961 . S
H2028 C2014 0.961 . S
H2029 C2015 0.958 . S
H2030 C2015 0.961 . S
H2031 C2015 0.960 . S
C2032 C2033 1.391 . S
C2032 C2034 1.394 . S
C2032 H2048 0.931 . S
C2033 C2032 1.391 . S
C2033 C2037 1.376 . S
C2034 C2032 1.394 . S
C2034 C2035 1.369 . S
C2034 C2038 1.531 . S
C2035 C2034 1.369 . S
C2035 C2036 1.410 . S
C2035 C2043 1.503 . S
C2036 C2035 1.410 . S
C2036 C2037 1.392 . S
C2036 C2039 1.511 . S
C2037 C2033 1.376 . S
C2037 C2036 1.392 . S
C2037 H2049 0.929 . S
C2038 C2034 1.531 . S
C2038 H2050 0.960 . S
C2038 H2051 0.962 . S
C2038 H2052 0.960 . S
C2039 C2036 1.511 . S
C2039 H2053 0.961 . S
C2039 H2054 0.961 . S
C2039 H2055 0.961 . S
C2040 C2041 1.370 . S
C2040 C2042 1.363 . S
C2040 H2056 0.931 . S
C2041 C2040 1.370 . S
C2041 C2045 1.408 . S
C2042 C2040 1.363 . S
C2042 C2043 1.370 . S
C2042 C2046 1.524 . S
C2043 C2035 1.503 . S
C2043 C2042 1.370 . S
C2043 C2044 1.403 . S
C2044 C2043 1.403 . S
C2044 C2045 1.404 . S
C2044 C2047 1.539 . S
C2045 C2041 1.408 . S
C2045 C2044 1.404 . S
C2045 H2057 0.930 . S
C2046 C2042 1.524 . S
C2046 H2058 0.956 . S
C2046 H2059 0.961 . S
C2046 H2060 0.961 . S
C2047 C2044 1.539 . S
C2047 H2061 0.958 . S
C2047 H2062 0.961 . S
C2047 H2063 0.960 . S
H2048 C2032 0.931 . S
H2049 C2037 0.929 . S
H2050 C2038 0.960 . S
H2051 C2038 0.962 . S
H2052 C2038 0.960 . S
H2053 C2039 0.961 . S
H2054 C2039 0.961 . S
H2055 C2039 0.961 . S
H2056 C2040 0.931 . S
H2057 C2045 0.930 . S
H2058 C2046 0.956 . S
H2059 C2046 0.961 . S
H2060 C2046 0.961 . S
H2061 C2047 0.958 . S
H2062 C2047 0.961 . S
H2063 C2047 0.960 . S
C2064 C2065 1.391 . S
C2064 C2066 1.394 . S
C2064 H2080 0.931 . S
C2065 C2064 1.391 . S
C2065 C2069 1.376 . S
C2066 C2064 1.394 . S
C2066 C2067 1.369 . S
C2066 C2070 1.531 . S
C2067 C2066 1.369 . S
C2067 C2068 1.410 . S
C2067 C2075 1.503 . S
C2068 C2067 1.410 . S
C2068 C2069 1.392 . S
C2068 C2071 1.511 . S
C2069 C2065 1.376 . S
C2069 C2068 1.392 . S
C2069 H2081 0.929 . S
C2070 C2066 1.531 . S
C2070 H2082 0.960 . S
C2070 H2083 0.962 . S
C2070 H2084 0.960 . S
C2071 C2068 1.511 . S
C2071 H2085 0.961 . S
C2071 H2086 0.961 . S
C2071 H2087 0.961 . S
C2072 C2073 1.370 . S
C2072 C2074 1.363 . S
C2072 H2088 0.931 . S
C2073 C2072 1.370 . S
C2073 C2077 1.408 . S
C2074 C2072 1.363 . S
C2074 C2075 1.370 . S
C2074 C2078 1.524 . S
C2075 C2067 1.503 . S
C2075 C2074 1.370 . S
C2075 C2076 1.403 . S
C2076 C2075 1.403 . S
C2076 C2077 1.404 . S
C2076 C2079 1.539 . S
C2077 C2073 1.408 . S
C2077 C2076 1.404 . S
C2077 H2089 0.930 . S
C2078 C2074 1.524 . S
C2078 H2090 0.956 . S
C2078 H2091 0.961 . S
C2078 H2092 0.961 . S
C2079 C2076 1.539 . S
C2079 H2093 0.958 . S
C2079 H2094 0.961 . S
C2079 H2095 0.960 . S
H2080 C2064 0.931 . S
H2081 C2069 0.929 . S
H2082 C2070 0.960 . S
H2083 C2070 0.962 . S
H2084 C2070 0.960 . S
H2085 C2071 0.961 . S
H2086 C2071 0.961 . S
H2087 C2071 0.961 . S
H2088 C2072 0.931 . S
H2089 C2077 0.930 . S
H2090 C2078 0.956 . S
H2091 C2078 0.961 . S
H2092 C2078 0.961 . S
H2093 C2079 0.958 . S
H2094 C2079 0.961 . S
H2095 C2079 0.960 . S
C2096 C2097 1.391 . S
C2096 C2098 1.394 . S
C2096 H2112 0.931 . S
C2097 C2096 1.391 . S
C2097 C2101 1.376 . S
C2098 C2096 1.394 . S
C2098 C2099 1.369 . S
C2098 C2102 1.531 . S
C2099 C2098 1.369 . S
C2099 C2100 1.410 . S
C2099 C2107 1.503 . S
C2100 C2099 1.410 . S
C2100 C2101 1.392 . S
C2100 C2103 1.511 . S
C2101 C2097 1.376 . S
C2101 C2100 1.392 . S
C2101 H2113 0.929 . S
C2102 C2098 1.531 . S
C2102 H2114 0.960 . S
C2102 H2115 0.962 . S
C2102 H2116 0.960 . S
C2103 C2100 1.511 . S
C2103 H2117 0.961 . S
C2103 H2118 0.961 . S
C2103 H2119 0.961 . S
C2104 C2105 1.370 . S
C2104 C2106 1.363 . S
C2104 H2120 0.896 1_565 S
C2105 C2104 1.370 . S
C2105 C2109 1.408 . S
C2106 C2104 1.363 . S
C2106 C2107 1.370 . S
C2106 C2110 1.524 . S
C2107 C2099 1.503 . S
C2107 C2106 1.370 . S
C2107 C2108 1.403 . S
C2108 C2107 1.403 . S
C2108 C2109 1.404 . S
C2108 C2111 1.539 . S
C2109 C2105 1.408 . S
C2109 C2108 1.404 . S
C2109 H2121 0.930 . S
C2110 C2106 1.524 . S
C2110 H2122 0.956 . S
C2110 H2123 0.961 . S
C2110 H2124 0.961 . S
C2111 C2108 1.539 . S
C2111 H2125 0.958 . S
C2111 H2126 0.961 . S
C2111 H2127 0.960 . S
H2112 C2096 0.931 . S
H2113 C2101 0.929 . S
H2114 C2102 0.960 . S
H2115 C2102 0.962 . S
H2116 C2102 0.960 . S
H2117 C2103 0.961 . S
H2118 C2103 0.961 . S
H2119 C2103 0.961 . S
H2120 C2104 0.896 1_545 S
H2121 C2109 0.930 . S
H2122 C2110 0.956 . S
H2123 C2110 0.961 . S
H2124 C2110 0.961 . S
H2125 C2111 0.958 . S
H2126 C2111 0.961 . S
H2127 C2111 0.960 . S
C2128 C2129 1.391 . S
C2128 C2130 1.394 . S
C2128 H2144 0.931 . S
C2129 C2128 1.391 . S
C2129 C2133 1.376 . S
C2130 C2128 1.394 . S
C2130 C2131 1.369 . S
C2130 C2134 1.531 . S
C2131 C2130 1.369 . S
C2131 C2132 1.410 . S
C2131 C2139 1.503 . S
C2132 C2131 1.410 . S
C2132 C2133 1.392 . S
C2132 C2135 1.511 . S
C2133 C2129 1.376 . S
C2133 C2132 1.392 . S
C2133 H2145 0.929 . S
C2134 C2130 1.531 . S
C2134 H2146 0.960 . S
C2134 H2147 0.962 . S
C2134 H2148 0.960 . S
C2135 C2132 1.511 . S
C2135 H2149 0.961 . S
C2135 H2150 0.961 . S
C2135 H2151 0.961 . S
C2136 C2137 1.370 . S
C2136 C2138 1.363 . S
C2136 H2152 0.931 . S
C2137 C2136 1.370 . S
C2137 C2141 1.408 . S
C2138 C2136 1.363 . S
C2138 C2139 1.370 . S
C2138 C2142 1.524 . S
C2139 C2131 1.503 . S
C2139 C2138 1.370 . S
C2139 C2140 1.403 . S
C2140 C2139 1.403 . S
C2140 C2141 1.404 . S
C2140 C2143 1.539 . S
C2141 C2137 1.408 . S
C2141 C2140 1.404 . S
C2141 H2153 0.930 . S
C2142 C2138 1.524 . S
C2142 H2154 0.956 . S
C2142 H2155 0.961 . S
C2142 H2156 0.961 . S
C2143 C2140 1.539 . S
C2143 H2157 0.958 . S
C2143 H2158 0.961 . S
C2143 H2159 0.960 . S
H2144 C2128 0.931 . S
H2145 C2133 0.929 . S
H2146 C2134 0.960 . S
H2147 C2134 0.962 . S
H2148 C2134 0.960 . S
H2149 C2135 0.961 . S
H2150 C2135 0.961 . S
H2151 C2135 0.961 . S
H2152 C2136 0.931 . S
H2153 C2141 0.930 . S
H2154 C2142 0.956 . S
H2155 C2142 0.961 . S
H2156 C2142 0.961 . S
H2157 C2143 0.958 . S
H2158 C2143 0.961 . S
H2159 C2143 0.960 . S
C2160 C2161 1.391 . S
C2160 C2162 1.394 . S
C2160 H2176 0.931 . S
C2161 C2160 1.391 . S
C2161 C2165 1.376 . S
C2162 C2160 1.394 . S
C2162 C2163 1.369 . S
C2162 C2166 1.531 . S
C2163 C2162 1.369 . S
C2163 C2164 1.410 . S
C2163 C2171 1.503 . S
C2164 C2163 1.410 . S
C2164 C2165 1.392 . S
C2164 C2167 1.511 . S
C2165 C2161 1.376 . S
C2165 C2164 1.392 . S
C2165 H2177 0.929 . S
C2166 C2162 1.531 . S
C2166 H2178 0.960 . S
C2166 H2179 0.962 . S
C2166 H2180 0.960 . S
C2167 C2164 1.511 . S
C2167 H2181 0.961 . S
C2167 H2182 0.961 . S
C2167 H2183 0.961 . S
C2168 C2169 1.370 . S
C2168 C2170 1.363 . S
C2168 H2184 0.931 . S
C2169 C2168 1.370 . S
C2169 C2173 1.408 . S
C2170 C2168 1.363 . S
C2170 C2171 1.370 . S
C2170 C2174 1.524 . S
C2171 C2163 1.503 . S
C2171 C2170 1.370 . S
C2171 C2172 1.403 . S
C2172 C2171 1.403 . S
C2172 C2173 1.404 . S
C2172 C2175 1.539 . S
C2173 C2169 1.408 . S
C2173 C2172 1.404 . S
C2173 H2185 0.930 . S
C2174 C2170 1.524 . S
C2174 H2186 0.956 . S
C2174 H2187 0.961 . S
C2174 H2188 0.961 . S
C2175 C2172 1.539 . S
C2175 H2189 0.958 . S
C2175 H2190 0.961 . S
C2175 H2191 0.960 . S
H2176 C2160 0.931 . S
H2177 C2165 0.929 . S
H2178 C2166 0.960 . S
H2179 C2166 0.962 . S
H2180 C2166 0.960 . S
H2181 C2167 0.961 . S
H2182 C2167 0.961 . S
H2183 C2167 0.961 . S
H2184 C2168 0.931 . S
H2185 C2173 0.930 . S
H2186 C2174 0.956 . S
H2187 C2174 0.961 . S
H2188 C2174 0.961 . S
H2189 C2175 0.958 . S
H2190 C2175 0.961 . S
H2191 C2175 0.960 . S
C2192 C2193 1.391 . S
C2192 C2194 1.394 . S
C2192 H2208 0.931 . S
C2193 C2192 1.391 . S
C2193 C2197 1.376 . S
C2194 C2192 1.394 . S
C2194 C2195 1.369 . S
C2194 C2198 1.531 . S
C2195 C2194 1.369 . S
C2195 C2196 1.410 . S
C2195 C2203 1.503 . S
C2196 C2195 1.410 . S
C2196 C2197 1.392 . S
C2196 C2199 1.511 . S
C2197 C2193 1.376 . S
C2197 C2196 1.392 . S
C2197 H2209 0.929 . S
C2198 C2194 1.531 . S
C2198 H2210 0.960 . S
C2198 H2211 0.962 . S
C2198 H2212 0.960 . S
C2199 C2196 1.511 . S
C2199 H2213 0.961 . S
C2199 H2214 0.961 . S
C2199 H2215 0.961 . S
C2200 C2201 1.370 . S
C2200 C2202 1.363 . S
C2200 H2216 0.931 . S
C2201 C2200 1.370 . S
C2201 C2205 1.408 . S
C2202 C2200 1.363 . S
C2202 C2203 1.370 . S
C2202 C2206 1.524 . S
C2203 C2195 1.503 . S
C2203 C2202 1.370 . S
C2203 C2204 1.403 . S
C2204 C2203 1.403 . S
C2204 C2205 1.404 . S
C2204 C2207 1.539 . S
C2205 C2201 1.408 . S
C2205 C2204 1.404 . S
C2205 H2217 0.930 . S
C2206 C2202 1.524 . S
C2206 H2218 0.956 . S
C2206 H2219 0.961 . S
C2206 H2220 0.961 . S
C2207 C2204 1.539 . S
C2207 H2221 0.958 . S
C2207 H2222 0.961 . S
C2207 H2223 0.960 . S
H2208 C2192 0.931 . S
H2209 C2197 0.929 . S
H2210 C2198 0.960 . S
H2211 C2198 0.962 . S
H2212 C2198 0.960 . S
H2213 C2199 0.961 . S
H2214 C2199 0.961 . S
H2215 C2199 0.961 . S
H2216 C2200 0.931 . S
H2217 C2205 0.930 . S
H2218 C2206 0.956 . S
H2219 C2206 0.961 . S
H2220 C2206 0.961 . S
H2221 C2207 0.958 . S
H2222 C2207 0.961 . S
H2223 C2207 0.960 . S
C2224 C2225 1.391 . S
C2224 C2226 1.394 . S
C2224 H2240 0.931 . S
C2225 C2224 1.391 . S
C2225 C2229 1.376 . S
C2226 C2224 1.394 . S
C2226 C2227 1.369 . S
C2226 C2230 1.531 . S
C2227 C2226 1.369 . S
C2227 C2228 1.410 . S
C2227 C2235 1.503 . S
C2228 C2227 1.410 . S
C2228 C2229 1.392 . S
C2228 C2231 1.511 . S
C2229 C2225 1.376 . S
C2229 C2228 1.392 . S
C2229 H2241 0.929 . S
C2230 C2226 1.531 . S
C2230 H2242 0.960 . S
C2230 H2243 0.962 . S
C2230 H2244 0.960 . S
C2231 C2228 1.511 . S
C2231 H2245 0.961 . S
C2231 H2246 0.961 . S
C2231 H2247 0.961 . S
C2232 C2233 1.370 . S
C2232 C2234 1.363 . S
C2232 H2248 0.931 . S
C2233 C2232 1.370 . S
C2233 C2237 1.408 . S
C2234 C2232 1.363 . S
C2234 C2235 1.370 . S
C2234 C2238 1.524 . S
C2235 C2227 1.503 . S
C2235 C2234 1.370 . S
C2235 C2236 1.403 . S
C2236 C2235 1.403 . S
C2236 C2237 1.404 . S
C2236 C2239 1.539 . S
C2237 C2233 1.408 . S
C2237 C2236 1.404 . S
C2237 H2249 0.930 . S
C2238 C2234 1.524 . S
C2238 H2250 0.956 . S
C2238 H2251 0.961 . S
C2238 H2252 0.961 . S
C2239 C2236 1.539 . S
C2239 H2253 0.958 . S
C2239 H2254 0.961 . S
C2239 H2255 0.960 . S
H2240 C2224 0.931 . S
H2241 C2229 0.929 . S
H2242 C2230 0.960 . S
H2243 C2230 0.962 . S
H2244 C2230 0.960 . S
H2245 C2231 0.961 . S
H2246 C2231 0.961 . S
H2247 C2231 0.961 . S
H2248 C2232 0.931 . S
H2249 C2237 0.930 . S
H2250 C2238 0.956 . S
H2251 C2238 0.961 . S
H2252 C2238 0.961 . S
H2253 C2239 0.958 . S
H2254 C2239 0.961 . S
H2255 C2239 0.960 . S
C2256 C2257 1.391 1_655 S
C2256 C2258 1.394 . S
C2256 H2272 0.931 . S
C2257 C2256 1.391 1_455 S
C2257 C2261 1.376 . S
C2258 C2256 1.394 . S
C2258 C2259 1.369 1_655 S
C2258 C2262 1.531 . S
C2259 C2258 1.369 1_455 S
C2259 C2260 1.410 . S
C2259 C2267 1.503 . S
C2260 C2259 1.410 . S
C2260 C2261 1.392 . S
C2260 C2263 1.511 . S
C2261 C2257 1.376 . S
C2261 C2260 1.392 . S
C2261 H2273 0.929 . S
C2262 C2258 1.531 . S
C2262 H2274 0.960 . S
C2262 H2275 0.962 . S
C2262 H2276 0.960 . S
C2263 C2260 1.511 . S
C2263 H2277 0.961 . S
C2263 H2278 0.961 . S
C2263 H2279 0.961 . S
C2264 C2265 1.370 1_655 S
C2264 C2266 1.362 . S
C2264 H2280 0.931 . S
C2265 C2264 1.370 1_455 S
C2265 C2269 1.385 1_556 S
C2266 C2264 1.362 . S
C2266 C2267 1.373 1_655 S
C2266 C2270 1.523 . S
C2267 C2259 1.503 . S
C2267 C2266 1.373 1_455 S
C2267 C2268 1.403 . S
C2268 C2267 1.403 . S
C2268 C2269 1.385 1_556 S
C2268 C2271 1.539 1_556 S
C2269 C2265 1.385 1_554 S
C2269 C2268 1.385 1_554 S
C2269 H2281 0.972 . S
C2270 C2266 1.523 . S
C2270 H2282 0.956 . S
C2270 H2283 0.961 1_655 S
C2270 H2284 0.961 . S
C2271 C2268 1.539 1_554 S
C2271 H2285 0.958 . S
C2271 H2286 0.961 . S
C2271 H2287 0.960 1_554 S
H2272 C2256 0.931 . S
H2273 C2261 0.929 . S
H2274 C2262 0.960 . S
H2275 C2262 0.962 . S
H2276 C2262 0.960 . S
H2277 C2263 0.961 . S
H2278 C2263 0.961 . S
H2279 C2263 0.961 . S
H2280 C2264 0.931 . S
H2281 C2269 0.972 . S
H2282 C2270 0.956 . S
H2283 C2270 0.961 1_455 S
H2284 C2270 0.961 . S
H2285 C2271 0.958 . S
H2286 C2271 0.961 . S
H2287 C2271 0.960 1_556 S
C2288 C2289 1.391 . S
C2288 C2290 1.394 . S
C2288 H2304 0.931 . S
C2289 C2288 1.391 . S
C2289 C2293 1.376 . S
C2290 C2288 1.394 . S
C2290 C2291 1.369 . S
C2290 C2294 1.531 . S
C2291 C2290 1.369 . S
C2291 C2292 1.410 . S
C2291 C2299 1.503 . S
C2292 C2291 1.410 . S
C2292 C2293 1.392 . S
C2292 C2295 1.511 . S
C2293 C2289 1.376 . S
C2293 C2292 1.392 . S
C2293 H2305 0.929 . S
C2294 C2290 1.531 . S
C2294 H2306 0.960 . S
C2294 H2307 0.962 . S
C2294 H2308 0.960 . S
C2295 C2292 1.511 . S
C2295 H2309 0.961 . S
C2295 H2310 0.961 . S
C2295 H2311 0.961 . S
C2296 C2297 1.370 . S
C2296 C2298 1.363 . S
C2296 H2312 0.931 . S
C2297 C2296 1.370 . S
C2297 C2301 1.408 . S
C2298 C2296 1.363 . S
C2298 C2299 1.370 . S
C2298 C2302 1.524 . S
C2299 C2291 1.503 . S
C2299 C2298 1.370 . S
C2299 C2300 1.403 . S
C2300 C2299 1.403 . S
C2300 C2301 1.404 . S
C2300 C2303 1.539 . S
C2301 C2297 1.408 . S
C2301 C2300 1.404 . S
C2301 H2313 0.930 . S
C2302 C2298 1.524 . S
C2302 H2314 0.956 . S
C2302 H2315 0.961 . S
C2302 H2316 0.961 . S
C2303 C2300 1.539 . S
C2303 H2317 0.958 . S
C2303 H2318 0.961 . S
C2303 H2319 0.960 . S
H2304 C2288 0.931 . S
H2305 C2293 0.929 . S
H2306 C2294 0.960 . S
H2307 C2294 0.962 . S
H2308 C2294 0.960 . S
H2309 C2295 0.961 . S
H2310 C2295 0.961 . S
H2311 C2295 0.961 . S
H2312 C2296 0.931 . S
H2313 C2301 0.930 . S
H2314 C2302 0.956 . S
H2315 C2302 0.961 . S
H2316 C2302 0.961 . S
H2317 C2303 0.958 . S
H2318 C2303 0.961 . S
H2319 C2303 0.960 . S
C2320 C2321 1.391 . S
C2320 C2322 1.394 . S
C2320 H2336 0.931 . S
C2321 C2320 1.391 . S
C2321 C2325 1.376 . S
C2322 C2320 1.394 . S
C2322 C2323 1.369 . S
C2322 C2326 1.531 . S
C2323 C2322 1.369 . S
C2323 C2324 1.410 . S
C2323 C2331 1.503 . S
C2324 C2323 1.410 . S
C2324 C2325 1.392 . S
C2324 C2327 1.511 . S
C2325 C2321 1.376 . S
C2325 C2324 1.392 . S
C2325 H2337 0.929 . S
C2326 C2322 1.531 . S
C2326 H2338 0.960 . S
C2326 H2339 0.962 . S
C2326 H2340 0.960 . S
C2327 C2324 1.511 . S
C2327 H2341 0.961 . S
C2327 H2342 0.961 . S
C2327 H2343 0.961 . S
C2328 C2329 1.370 . S
C2328 C2330 1.363 . S
C2328 H2344 0.931 . S
C2329 C2328 1.370 . S
C2329 C2333 1.408 . S
C2330 C2328 1.363 . S
C2330 C2331 1.370 . S
C2330 C2334 1.524 . S
C2331 C2323 1.503 . S
C2331 C2330 1.370 . S
C2331 C2332 1.403 . S
C2332 C2331 1.403 . S
C2332 C2333 1.404 . S
C2332 C2335 1.539 . S
C2333 C2329 1.408 . S
C2333 C2332 1.404 . S
C2333 H2345 0.930 . S
C2334 C2330 1.524 . S
C2334 H2346 0.956 . S
C2334 H2347 0.961 . S
C2334 H2348 0.961 . S
C2335 C2332 1.539 . S
C2335 H2349 0.958 . S
C2335 H2350 0.961 . S
C2335 H2351 0.960 . S
H2336 C2320 0.931 . S
H2337 C2325 0.929 . S
H2338 C2326 0.960 . S
H2339 C2326 0.962 . S
H2340 C2326 0.960 . S
H2341 C2327 0.961 . S
H2342 C2327 0.961 . S
H2343 C2327 0.961 . S
H2344 C2328 0.931 . S
H2345 C2333 0.930 . S
H2346 C2334 0.956 . S
H2347 C2334 0.961 . S
H2348 C2334 0.961 . S
H2349 C2335 0.958 . S
H2350 C2335 0.961 . S
H2351 C2335 0.960 . S
C2352 C2353 1.391 . S
C2352 C2354 1.394 . S
C2352 H2368 0.931 . S
C2353 C2352 1.391 . S
C2353 C2357 1.376 . S
C2354 C2352 1.394 . S
C2354 C2355 1.369 . S
C2354 C2358 1.531 . S
C2355 C2354 1.369 . S
C2355 C2356 1.410 . S
C2355 C2363 1.503 . S
C2356 C2355 1.410 . S
C2356 C2357 1.392 . S
C2356 C2359 1.511 . S
C2357 C2353 1.376 . S
C2357 C2356 1.392 . S
C2357 H2369 0.929 . S
C2358 C2354 1.531 . S
C2358 H2370 0.960 . S
C2358 H2371 0.962 . S
C2358 H2372 0.960 . S
C2359 C2356 1.511 . S
C2359 H2373 0.961 . S
C2359 H2374 0.961 . S
C2359 H2375 0.961 . S
C2360 C2361 1.370 . S
C2360 C2362 1.363 . S
C2360 H2376 0.931 . S
C2361 C2360 1.370 . S
C2361 C2365 1.408 . S
C2362 C2360 1.363 . S
C2362 C2363 1.370 . S
C2362 C2366 1.524 . S
C2363 C2355 1.503 . S
C2363 C2362 1.370 . S
C2363 C2364 1.403 . S
C2364 C2363 1.403 . S
C2364 C2365 1.404 . S
C2364 C2367 1.539 . S
C2365 C2361 1.408 . S
C2365 C2364 1.404 . S
C2365 H2377 0.930 . S
C2366 C2362 1.524 . S
C2366 H2378 0.956 . S
C2366 H2379 0.961 . S
C2366 H2380 0.961 . S
C2367 C2364 1.539 . S
C2367 H2381 0.958 . S
C2367 H2382 0.961 . S
C2367 H2383 0.960 . S
H2368 C2352 0.931 . S
H2369 C2357 0.929 . S
H2370 C2358 0.960 . S
H2371 C2358 0.962 . S
H2372 C2358 0.960 . S
H2373 C2359 0.961 . S
H2374 C2359 0.961 . S
H2375 C2359 0.961 . S
H2376 C2360 0.931 . S
H2377 C2365 0.930 . S
H2378 C2366 0.956 . S
H2379 C2366 0.961 . S
H2380 C2366 0.961 . S
H2381 C2367 0.958 . S
H2382 C2367 0.961 . S
H2383 C2367 0.960 . S
C2384 C2385 1.391 1_455 S
C2384 C2386 1.394 . S
C2384 H2400 0.931 . S
C2385 C2384 1.391 1_655 S
C2385 C2389 1.376 . S
C2386 C2384 1.394 . S
C2386 C2387 1.376 . S
C2386 C2390 1.531 . S
C2387 C2386 1.376 . S
C2387 C2388 1.398 1_455 S
C2387 C2395 1.508 . S
C2388 C2387 1.398 1_655 S
C2388 C2389 1.392 . S
C2388 C2391 1.511 . S
C2389 C2385 1.376 . S
C2389 C2388 1.392 . S
C2389 H2401 0.929 . S
C2390 C2386 1.531 . S
C2390 H2402 0.960 . S
C2390 H2403 0.962 . S
C2390 H2404 0.960 . S
C2391 C2388 1.511 . S
C2391 H2405 0.961 . S
C2391 H2406 0.961 . S
C2391 H2407 0.961 . S
C2392 C2393 1.406 . S
C2392 C2394 1.363 . S
C2392 H2408 0.931 . S
C2393 C2392 1.406 . S
C2393 C2397 1.380 1_655 S
C2394 C2392 1.363 . S
C2394 C2395 1.372 1_655 S
C2394 C2398 1.524 . S
C2395 C2387 1.508 . S
C2395 C2394 1.372 1_455 S
C2395 C2396 1.400 . S
C2396 C2395 1.400 . S
C2396 C2397 1.404 . S
C2396 C2399 1.539 . S
C2397 C2393 1.380 1_455 S
C2397 C2396 1.404 . S
C2397 H2409 0.930 . S
C2398 C2394 1.524 . S
C2398 H2410 0.956 . S
C2398 H2411 0.961 . S
C2398 H2412 0.961 . S
C2399 C2396 1.539 . S
C2399 H2413 0.958 . S
C2399 H2414 0.961 . S
C2399 H2415 0.960 . S
H2400 C2384 0.931 . S
H2401 C2389 0.929 . S
H2402 C2390 0.960 . S
H2403 C2390 0.962 . S
H2404 C2390 0.960 . S
H2405 C2391 0.961 . S
H2406 C2391 0.961 . S
H2407 C2391 0.961 . S
H2408 C2392 0.931 . S
H2409 C2397 0.930 . S
H2410 C2398 0.956 . S
H2411 C2398 0.961 . S
H2412 C2398 0.961 . S
H2413 C2399 0.958 . S
H2414 C2399 0.961 . S
H2415 C2399 0.960 . S
C2416 C2417 1.391 . S
C2416 C2418 1.394 . S
C2416 H2432 0.931 . S
C2417 C2416 1.391 . S
C2417 C2421 1.376 . S
C2418 C2416 1.394 . S
C2418 C2419 1.369 . S
C2418 C2422 1.531 . S
C2419 C2418 1.369 . S
C2419 C2420 1.410 . S
C2419 C2427 1.503 . S
C2420 C2419 1.410 . S
C2420 C2421 1.392 . S
C2420 C2423 1.511 . S
C2421 C2417 1.376 . S
C2421 C2420 1.392 . S
C2421 H2433 0.929 . S
C2422 C2418 1.531 . S
C2422 H2434 0.960 . S
C2422 H2435 0.962 . S
C2422 H2436 0.960 . S
C2423 C2420 1.511 . S
C2423 H2437 0.961 . S
C2423 H2438 0.961 . S
C2423 H2439 0.961 . S
C2424 C2425 1.370 . S
C2424 C2426 1.363 . S
C2424 H2440 0.931 . S
C2425 C2424 1.370 . S
C2425 C2429 1.408 . S
C2426 C2424 1.363 . S
C2426 C2427 1.370 . S
C2426 C2430 1.524 . S
C2427 C2419 1.503 . S
C2427 C2426 1.370 . S
C2427 C2428 1.403 . S
C2428 C2427 1.403 . S
C2428 C2429 1.404 . S
C2428 C2431 1.539 . S
C2429 C2425 1.408 . S
C2429 C2428 1.404 . S
C2429 H2441 0.930 . S
C2430 C2426 1.524 . S
C2430 H2442 0.956 . S
C2430 H2443 0.961 . S
C2430 H2444 0.961 . S
C2431 C2428 1.539 . S
C2431 H2445 0.958 . S
C2431 H2446 0.961 . S
C2431 H2447 0.960 . S
H2432 C2416 0.931 . S
H2433 C2421 0.929 . S
H2434 C2422 0.960 . S
H2435 C2422 0.962 . S
H2436 C2422 0.960 . S
H2437 C2423 0.961 . S
H2438 C2423 0.961 . S
H2439 C2423 0.961 . S
H2440 C2424 0.931 . S
H2441 C2429 0.930 . S
H2442 C2430 0.956 . S
H2443 C2430 0.961 . S
H2444 C2430 0.961 . S
H2445 C2431 0.958 . S
H2446 C2431 0.961 . S
H2447 C2431 0.960 . S
C2448 C2449 1.391 . S
C2448 C2450 1.394 . S
C2448 H2464 0.931 . S
C2449 C2448 1.391 . S
C2449 C2453 1.376 . S
C2450 C2448 1.394 . S
C2450 C2451 1.369 . S
C2450 C2454 1.531 . S
C2451 C2450 1.369 . S
C2451 C2452 1.410 . S
C2451 C2459 1.503 . S
C2452 C2451 1.410 . S
C2452 C2453 1.392 . S
C2452 C2455 1.511 . S
C2453 C2449 1.376 . S
C2453 C2452 1.392 . S
C2453 H2465 0.929 . S
C2454 C2450 1.531 . S
C2454 H2466 0.960 . S
C2454 H2467 0.962 . S
C2454 H2468 0.960 . S
C2455 C2452 1.511 . S
C2455 H2469 0.961 . S
C2455 H2470 0.961 . S
C2455 H2471 0.961 . S
C2456 C2457 1.370 . S
C2456 C2458 1.363 . S
C2456 H2472 0.931 . S
C2457 C2456 1.370 . S
C2457 C2461 1.408 . S
C2458 C2456 1.363 . S
C2458 C2459 1.370 . S
C2458 C2462 1.524 . S
C2459 C2451 1.503 . S
C2459 C2458 1.370 . S
C2459 C2460 1.403 . S
C2460 C2459 1.403 . S
C2460 C2461 1.404 . S
C2460 C2463 1.539 . S
C2461 C2457 1.408 . S
C2461 C2460 1.404 . S
C2461 H2473 0.930 . S
C2462 C2458 1.524 . S
C2462 H2474 0.956 . S
C2462 H2475 0.961 . S
C2462 H2476 0.961 . S
C2463 C2460 1.539 . S
C2463 H2477 0.958 . S
C2463 H2478 0.961 . S
C2463 H2479 0.960 . S
H2464 C2448 0.931 . S
H2465 C2453 0.929 . S
H2466 C2454 0.960 . S
H2467 C2454 0.962 . S
H2468 C2454 0.960 . S
H2469 C2455 0.961 . S
H2470 C2455 0.961 . S
H2471 C2455 0.961 . S
H2472 C2456 0.931 . S
H2473 C2461 0.930 . S
H2474 C2462 0.956 . S
H2475 C2462 0.961 . S
H2476 C2462 0.961 . S
H2477 C2463 0.958 . S
H2478 C2463 0.961 . S
H2479 C2463 0.960 . S
C2480 C2481 1.391 . S
C2480 C2482 1.394 . S
C2480 H2496 0.931 . S
C2481 C2480 1.391 . S
C2481 C2485 1.376 . S
C2482 C2480 1.394 . S
C2482 C2483 1.369 . S
C2482 C2486 1.531 . S
C2483 C2482 1.369 . S
C2483 C2484 1.410 . S
C2483 C2491 1.503 . S
C2484 C2483 1.410 . S
C2484 C2485 1.392 . S
C2484 C2487 1.511 . S
C2485 C2481 1.376 . S
C2485 C2484 1.392 . S
C2485 H2497 0.929 . S
C2486 C2482 1.531 . S
C2486 H2498 0.960 . S
C2486 H2499 0.962 . S
C2486 H2500 0.960 . S
C2487 C2484 1.511 . S
C2487 H2501 0.961 . S
C2487 H2502 0.961 . S
C2487 H2503 0.961 . S
C2488 C2489 1.370 . S
C2488 C2490 1.363 . S
C2488 H2504 0.931 . S
C2489 C2488 1.370 . S
C2489 C2493 1.408 . S
C2490 C2488 1.363 . S
C2490 C2491 1.370 . S
C2490 C2494 1.524 . S
C2491 C2483 1.503 . S
C2491 C2490 1.370 . S
C2491 C2492 1.403 . S
C2492 C2491 1.403 . S
C2492 C2493 1.404 . S
C2492 C2495 1.539 . S
C2493 C2489 1.408 . S
C2493 C2492 1.404 . S
C2493 H2505 0.930 . S
C2494 C2490 1.524 . S
C2494 H2506 0.956 . S
C2494 H2507 0.961 . S
C2494 H2508 0.961 . S
C2495 C2492 1.539 . S
C2495 H2509 0.958 . S
C2495 H2510 0.961 . S
C2495 H2511 0.960 . S
H2496 C2480 0.931 . S
H2497 C2485 0.929 . S
H2498 C2486 0.960 . S
H2499 C2486 0.962 . S
H2500 C2486 0.960 . S
H2501 C2487 0.961 . S
H2502 C2487 0.961 . S
H2503 C2487 0.961 . S
H2504 C2488 0.931 . S
H2505 C2493 0.930 . S
H2506 C2494 0.956 . S
H2507 C2494 0.961 . S
H2508 C2494 0.961 . S
H2509 C2495 0.958 . S
H2510 C2495 0.961 . S
H2511 C2495 0.960 . S
C2512 C2513 1.391 . S
C2512 C2514 1.394 . S
C2512 H2528 0.931 . S
C2513 C2512 1.391 . S
C2513 C2517 1.376 . S
C2514 C2512 1.394 . S
C2514 C2515 1.369 . S
C2514 C2518 1.531 . S
C2515 C2514 1.369 . S
C2515 C2516 1.410 . S
C2515 C2523 1.503 . S
C2516 C2515 1.410 . S
C2516 C2517 1.392 . S
C2516 C2519 1.511 . S
C2517 C2513 1.376 . S
C2517 C2516 1.392 . S
C2517 H2529 0.929 . S
C2518 C2514 1.531 . S
C2518 H2530 0.960 . S
C2518 H2531 0.962 . S
C2518 H2532 0.960 . S
C2519 C2516 1.511 . S
C2519 H2533 0.961 . S
C2519 H2534 0.961 . S
C2519 H2535 0.961 . S
C2520 C2521 1.370 . S
C2520 C2522 1.363 . S
C2520 H2536 0.931 . S
C2521 C2520 1.370 . S
C2521 C2525 1.408 . S
C2522 C2520 1.363 . S
C2522 C2523 1.370 . S
C2522 C2526 1.524 . S
C2523 C2515 1.503 . S
C2523 C2522 1.370 . S
C2523 C2524 1.403 . S
C2524 C2523 1.403 . S
C2524 C2525 1.404 . S
C2524 C2527 1.539 . S
C2525 C2521 1.408 . S
C2525 C2524 1.404 . S
C2525 H2537 0.930 . S
C2526 C2522 1.524 . S
C2526 H2538 0.956 . S
C2526 H2539 0.961 . S
C2526 H2540 0.961 . S
C2527 C2524 1.539 . S
C2527 H2541 0.958 . S
C2527 H2542 0.961 . S
C2527 H2543 0.960 . S
H2528 C2512 0.931 . S
H2529 C2517 0.929 . S
H2530 C2518 0.960 . S
H2531 C2518 0.962 . S
H2532 C2518 0.960 . S
H2533 C2519 0.961 . S
H2534 C2519 0.961 . S
H2535 C2519 0.961 . S
H2536 C2520 0.931 . S
H2537 C2525 0.930 . S
H2538 C2526 0.956 . S
H2539 C2526 0.961 . S
H2540 C2526 0.961 . S
H2541 C2527 0.958 . S
H2542 C2527 0.961 . S
H2543 C2527 0.960 . S
C2544 C2545 1.391 . S
C2544 C2546 1.394 . S
C2544 H2560 0.931 . S
C2545 C2544 1.391 . S
C2545 C2549 1.376 . S
C2546 C2544 1.394 . S
C2546 C2547 1.369 . S
C2546 C2550 1.531 . S
C2547 C2546 1.369 . S
C2547 C2548 1.410 . S
C2547 C2555 1.503 . S
C2548 C2547 1.410 . S
C2548 C2549 1.392 . S
C2548 C2551 1.511 . S
C2549 C2545 1.376 . S
C2549 C2548 1.392 . S
C2549 H2561 0.929 . S
C2550 C2546 1.531 . S
C2550 H2562 0.960 . S
C2550 H2563 0.962 . S
C2550 H2564 0.960 . S
C2551 C2548 1.511 . S
C2551 H2565 0.961 . S
C2551 H2566 0.961 . S
C2551 H2567 0.961 . S
C2552 C2553 1.370 . S
C2552 C2554 1.363 . S
C2552 H2568 0.931 . S
C2553 C2552 1.370 . S
C2553 C2557 1.408 . S
C2554 C2552 1.363 . S
C2554 C2555 1.370 . S
C2554 C2558 1.524 . S
C2555 C2547 1.503 . S
C2555 C2554 1.370 . S
C2555 C2556 1.403 . S
C2556 C2555 1.403 . S
C2556 C2557 1.404 . S
C2556 C2559 1.539 . S
C2557 C2553 1.408 . S
C2557 C2556 1.404 . S
C2557 H2569 0.930 . S
C2558 C2554 1.524 . S
C2558 H2570 0.956 . S
C2558 H2571 0.961 . S
C2558 H2572 0.961 . S
C2559 C2556 1.539 . S
C2559 H2573 0.958 . S
C2559 H2574 0.961 . S
C2559 H2575 0.960 . S
H2560 C2544 0.931 . S
H2561 C2549 0.929 . S
H2562 C2550 0.960 . S
H2563 C2550 0.962 . S
H2564 C2550 0.960 . S
H2565 C2551 0.961 . S
H2566 C2551 0.961 . S
H2567 C2551 0.961 . S
H2568 C2552 0.931 . S
H2569 C2557 0.930 . S
H2570 C2558 0.956 . S
H2571 C2558 0.961 . S
H2572 C2558 0.961 . S
H2573 C2559 0.958 . S
H2574 C2559 0.961 . S
H2575 C2559 0.960 . S
C2576 C2577 1.391 . S
C2576 C2578 1.394 . S
C2576 H2592 0.931 . S
C2577 C2576 1.391 . S
C2577 C2581 1.376 . S
C2578 C2576 1.394 . S
C2578 C2579 1.369 . S
C2578 C2582 1.531 . S
C2579 C2578 1.369 . S
C2579 C2580 1.410 . S
C2579 C2587 1.503 . S
C2580 C2579 1.410 . S
C2580 C2581 1.392 . S
C2580 C2583 1.511 . S
C2581 C2577 1.376 . S
C2581 C2580 1.392 . S
C2581 H2593 0.929 . S
C2582 C2578 1.531 . S
C2582 H2594 0.960 . S
C2582 H2595 0.962 . S
C2582 H2596 0.960 . S
C2583 C2580 1.511 . S
C2583 H2597 0.961 . S
C2583 H2598 0.961 . S
C2583 H2599 0.961 . S
C2584 C2585 1.370 . S
C2584 C2586 1.363 . S
C2584 H2600 0.931 . S
C2585 C2584 1.370 . S
C2585 C2589 1.408 . S
C2586 C2584 1.363 . S
C2586 C2587 1.370 . S
C2586 C2590 1.524 . S
C2587 C2579 1.503 . S
C2587 C2586 1.370 . S
C2587 C2588 1.403 . S
C2588 C2587 1.403 . S
C2588 C2589 1.404 . S
C2588 C2591 1.539 . S
C2589 C2585 1.408 . S
C2589 C2588 1.404 . S
C2589 H2601 0.930 . S
C2590 C2586 1.524 . S
C2590 H2602 0.956 . S
C2590 H2603 0.961 . S
C2590 H2604 0.961 . S
C2591 C2588 1.539 . S
C2591 H2605 0.958 . S
C2591 H2606 0.961 . S
C2591 H2607 0.960 . S
H2592 C2576 0.931 . S
H2593 C2581 0.929 . S
H2594 C2582 0.960 . S
H2595 C2582 0.962 . S
H2596 C2582 0.960 . S
H2597 C2583 0.961 . S
H2598 C2583 0.961 . S
H2599 C2583 0.961 . S
H2600 C2584 0.931 . S
H2601 C2589 0.930 . S
H2602 C2590 0.956 . S
H2603 C2590 0.961 . S
H2604 C2590 0.961 . S
H2605 C2591 0.958 . S
H2606 C2591 0.961 . S
H2607 C2591 0.960 . S
C2608 C2609 1.391 . S
C2608 C2610 1.394 . S
C2608 H2624 0.931 . S
C2609 C2608 1.391 . S
C2609 C2613 1.376 . S
C2610 C2608 1.394 . S
C2610 C2611 1.369 . S
C2610 C2614 1.531 . S
C2611 C2610 1.369 . S
C2611 C2612 1.410 . S
C2611 C2619 1.503 . S
C2612 C2611 1.410 . S
C2612 C2613 1.392 . S
C2612 C2615 1.511 . S
C2613 C2609 1.376 . S
C2613 C2612 1.392 . S
C2613 H2625 0.929 . S
C2614 C2610 1.531 . S
C2614 H2626 0.960 . S
C2614 H2627 0.962 . S
C2614 H2628 0.960 . S
C2615 C2612 1.511 . S
C2615 H2629 0.961 . S
C2615 H2630 0.961 . S
C2615 H2631 0.961 . S
C2616 C2617 1.370 . S
C2616 C2618 1.363 . S
C2616 H2632 0.931 . S
C2617 C2616 1.370 . S
C2617 C2621 1.408 . S
C2618 C2616 1.363 . S
C2618 C2619 1.370 . S
C2618 C2622 1.524 . S
C2619 C2611 1.503 . S
C2619 C2618 1.370 . S
C2619 C2620 1.403 . S
C2620 C2619 1.403 . S
C2620 C2621 1.404 . S
C2620 C2623 1.539 . S
C2621 C2617 1.408 . S
C2621 C2620 1.404 . S
C2621 H2633 0.930 . S
C2622 C2618 1.524 . S
C2622 H2634 0.956 . S
C2622 H2635 0.961 . S
C2622 H2636 0.961 . S
C2623 C2620 1.539 . S
C2623 H2637 0.958 . S
C2623 H2638 0.961 . S
C2623 H2639 0.960 . S
H2624 C2608 0.931 . S
H2625 C2613 0.929 . S
H2626 C2614 0.960 . S
H2627 C2614 0.962 . S
H2628 C2614 0.960 . S
H2629 C2615 0.961 . S
H2630 C2615 0.961 . S
H2631 C2615 0.961 . S
H2632 C2616 0.931 . S
H2633 C2621 0.930 . S
H2634 C2622 0.956 . S
H2635 C2622 0.961 . S
H2636 C2622 0.961 . S
H2637 C2623 0.958 . S
H2638 C2623 0.961 . S
H2639 C2623 0.960 . S
C2640 C2641 1.391 . S
C2640 C2642 1.394 . S
C2640 H2656 0.931 . S
C2641 C2640 1.391 . S
C2641 C2645 1.376 . S
C2642 C2640 1.394 . S
C2642 C2643 1.369 . S
C2642 C2646 1.531 . S
C2643 C2642 1.369 . S
C2643 C2644 1.410 . S
C2643 C2651 1.503 . S
C2644 C2643 1.410 . S
C2644 C2645 1.392 . S
C2644 C2647 1.511 . S
C2645 C2641 1.376 . S
C2645 C2644 1.392 . S
C2645 H2657 0.929 . S
C2646 C2642 1.531 . S
C2646 H2658 0.960 . S
C2646 H2659 0.962 . S
C2646 H2660 0.960 . S
C2647 C2644 1.511 . S
C2647 H2661 0.961 . S
C2647 H2662 0.961 . S
C2647 H2663 0.961 . S
C2648 C2649 1.370 . S
C2648 C2650 1.363 . S
C2648 H2664 0.931 . S
C2649 C2648 1.370 . S
C2649 C2653 1.408 . S
C2650 C2648 1.363 . S
C2650 C2651 1.370 . S
C2650 C2654 1.524 . S
C2651 C2643 1.503 . S
C2651 C2650 1.370 . S
C2651 C2652 1.403 . S
C2652 C2651 1.403 . S
C2652 C2653 1.404 . S
C2652 C2655 1.539 . S
C2653 C2649 1.408 . S
C2653 C2652 1.404 . S
C2653 H2665 0.930 . S
C2654 C2650 1.524 . S
C2654 H2666 0.956 . S
C2654 H2667 0.961 . S
C2654 H2668 0.961 . S
C2655 C2652 1.539 . S
C2655 H2669 0.958 . S
C2655 H2670 0.961 . S
C2655 H2671 0.960 . S
H2656 C2640 0.931 . S
H2657 C2645 0.929 . S
H2658 C2646 0.960 . S
H2659 C2646 0.962 . S
H2660 C2646 0.960 . S
H2661 C2647 0.961 . S
H2662 C2647 0.961 . S
H2663 C2647 0.961 . S
H2664 C2648 0.931 . S
H2665 C2653 0.930 . S
H2666 C2654 0.956 . S
H2667 C2654 0.961 . S
H2668 C2654 0.961 . S
H2669 C2655 0.958 . S
H2670 C2655 0.961 . S
H2671 C2655 0.960 . S
C2672 C2673 1.391 . S
C2672 C2674 1.394 . S
C2672 H2688 0.931 . S
C2673 C2672 1.391 . S
C2673 C2677 1.376 . S
C2674 C2672 1.394 . S
C2674 C2675 1.369 . S
C2674 C2678 1.531 . S
C2675 C2674 1.369 . S
C2675 C2676 1.410 . S
C2675 C2683 1.503 . S
C2676 C2675 1.410 . S
C2676 C2677 1.392 . S
C2676 C2679 1.511 . S
C2677 C2673 1.376 . S
C2677 C2676 1.392 . S
C2677 H2689 0.929 . S
C2678 C2674 1.531 . S
C2678 H2690 0.960 . S
C2678 H2691 0.962 . S
C2678 H2692 0.960 . S
C2679 C2676 1.511 . S
C2679 H2693 0.961 . S
C2679 H2694 0.961 . S
C2679 H2695 0.961 . S
C2680 C2681 1.370 . S
C2680 C2682 1.363 . S
C2680 H2696 0.931 . S
C2681 C2680 1.370 . S
C2681 C2685 1.408 . S
C2682 C2680 1.363 . S
C2682 C2683 1.370 . S
C2682 C2686 1.524 . S
C2683 C2675 1.503 . S
C2683 C2682 1.370 . S
C2683 C2684 1.403 . S
C2684 C2683 1.403 . S
C2684 C2685 1.404 . S
C2684 C2687 1.539 . S
C2685 C2681 1.408 . S
C2685 C2684 1.404 . S
C2685 H2697 0.930 . S
C2686 C2682 1.524 . S
C2686 H2698 0.956 . S
C2686 H2699 0.961 . S
C2686 H2700 0.961 . S
C2687 C2684 1.539 . S
C2687 H2701 0.958 . S
C2687 H2702 0.961 . S
C2687 H2703 0.960 . S
H2688 C2672 0.931 . S
H2689 C2677 0.929 . S
H2690 C2678 0.960 . S
H2691 C2678 0.962 . S
H2692 C2678 0.960 . S
H2693 C2679 0.961 . S
H2694 C2679 0.961 . S
H2695 C2679 0.961 . S
H2696 C2680 0.931 . S
H2697 C2685 0.930 . S
H2698 C2686 0.956 . S
H2699 C2686 0.961 . S
H2700 C2686 0.961 . S
H2701 C2687 0.958 . S
H2702 C2687 0.961 . S
H2703 C2687 0.960 . S
C2704 C2705 1.391 . S
C2704 C2706 1.394 . S
C2704 H2720 0.931 . S
C2705 C2704 1.391 . S
C2705 C2709 1.376 . S
C2706 C2704 1.394 . S
C2706 C2707 1.369 . S
C2706 C2710 1.531 . S
C2707 C2706 1.369 . S
C2707 C2708 1.410 . S
C2707 C2715 1.503 . S
C2708 C2707 1.410 . S
C2708 C2709 1.392 . S
C2708 C2711 1.511 . S
C2709 C2705 1.376 . S
C2709 C2708 1.392 . S
C2709 H2721 0.929 . S
C2710 C2706 1.531 . S
C2710 H2722 0.960 . S
C2710 H2723 0.962 . S
C2710 H2724 0.960 . S
C2711 C2708 1.511 . S
C2711 H2725 0.961 . S
C2711 H2726 0.961 . S
C2711 H2727 0.961 . S
C2712 C2713 1.370 . S
C2712 C2714 1.363 . S
C2712 H2728 0.931 . S
C2713 C2712 1.370 . S
C2713 C2717 1.408 . S
C2714 C2712 1.363 . S
C2714 C2715 1.370 . S
C2714 C2718 1.524 . S
C2715 C2707 1.503 . S
C2715 C2714 1.370 . S
C2715 C2716 1.403 . S
C2716 C2715 1.403 . S
C2716 C2717 1.404 . S
C2716 C2719 1.539 . S
C2717 C2713 1.408 . S
C2717 C2716 1.404 . S
C2717 H2729 0.930 . S
C2718 C2714 1.524 . S
C2718 H2730 0.956 . S
C2718 H2731 0.961 . S
C2718 H2732 0.961 . S
C2719 C2716 1.539 . S
C2719 H2733 0.958 . S
C2719 H2734 0.961 . S
C2719 H2735 0.960 . S
H2720 C2704 0.931 . S
H2721 C2709 0.929 . S
H2722 C2710 0.960 . S
H2723 C2710 0.962 . S
H2724 C2710 0.960 . S
H2725 C2711 0.961 . S
H2726 C2711 0.961 . S
H2727 C2711 0.961 . S
H2728 C2712 0.931 . S
H2729 C2717 0.930 . S
H2730 C2718 0.956 . S
H2731 C2718 0.961 . S
H2732 C2718 0.961 . S
H2733 C2719 0.958 . S
H2734 C2719 0.961 . S
H2735 C2719 0.960 . S
C2736 C2737 1.391 . S
C2736 C2738 1.394 . S
C2736 H2752 0.931 . S
C2737 C2736 1.391 . S
C2737 C2741 1.376 . S
C2738 C2736 1.394 . S
C2738 C2739 1.369 . S
C2738 C2742 1.531 . S
C2739 C2738 1.369 . S
C2739 C2740 1.410 . S
C2739 C2747 1.503 . S
C2740 C2739 1.410 . S
C2740 C2741 1.392 . S
C2740 C2743 1.511 . S
C2741 C2737 1.376 . S
C2741 C2740 1.392 . S
C2741 H2753 0.929 . S
C2742 C2738 1.531 . S
C2742 H2754 0.960 . S
C2742 H2755 0.962 . S
C2742 H2756 0.960 . S
C2743 C2740 1.511 . S
C2743 H2757 0.961 . S
C2743 H2758 0.961 . S
C2743 H2759 0.961 . S
C2744 C2745 1.370 . S
C2744 C2746 1.363 . S
C2744 H2760 0.931 . S
C2745 C2744 1.370 . S
C2745 C2749 1.408 . S
C2746 C2744 1.363 . S
C2746 C2747 1.370 . S
C2746 C2750 1.524 . S
C2747 C2739 1.503 . S
C2747 C2746 1.370 . S
C2747 C2748 1.403 . S
C2748 C2747 1.403 . S
C2748 C2749 1.404 . S
C2748 C2751 1.539 . S
C2749 C2745 1.408 . S
C2749 C2748 1.404 . S
C2749 H2761 0.930 . S
C2750 C2746 1.524 . S
C2750 H2762 0.956 . S
C2750 H2763 0.961 . S
C2750 H2764 0.961 . S
C2751 C2748 1.539 . S
C2751 H2765 0.958 . S
C2751 H2766 0.961 . S
C2751 H2767 0.960 . S
H2752 C2736 0.931 . S
H2753 C2741 0.929 . S
H2754 C2742 0.960 . S
H2755 C2742 0.962 . S
H2756 C2742 0.960 . S
H2757 C2743 0.961 . S
H2758 C2743 0.961 . S
H2759 C2743 0.961 . S
H2760 C2744 0.931 . S
H2761 C2749 0.930 . S
H2762 C2750 0.956 . S
H2763 C2750 0.961 . S
H2764 C2750 0.961 . S
H2765 C2751 0.958 . S
H2766 C2751 0.961 . S
H2767 C2751 0.960 . S
C2768 C2769 1.391 . S
C2768 C2770 1.394 . S
C2768 H2784 0.931 . S
C2769 C2768 1.391 . S
C2769 C2773 1.376 . S
C2770 C2768 1.394 . S
C2770 C2771 1.369 . S
C2770 C2774 1.531 . S
C2771 C2770 1.369 . S
C2771 C2772 1.410 . S
C2771 C2779 1.503 . S
C2772 C2771 1.410 . S
C2772 C2773 1.392 . S
C2772 C2775 1.511 . S
C2773 C2769 1.376 . S
C2773 C2772 1.392 . S
C2773 H2785 0.929 . S
C2774 C2770 1.531 . S
C2774 H2786 0.960 . S
C2774 H2787 0.962 . S
C2774 H2788 0.960 . S
C2775 C2772 1.511 . S
C2775 H2789 0.961 . S
C2775 H2790 0.961 . S
C2775 H2791 0.961 . S
C2776 C2777 1.370 . S
C2776 C2778 1.363 . S
C2776 H2792 0.931 . S
C2777 C2776 1.370 . S
C2777 C2781 1.408 . S
C2778 C2776 1.363 . S
C2778 C2779 1.370 . S
C2778 C2782 1.524 . S
C2779 C2771 1.503 . S
C2779 C2778 1.370 . S
C2779 C2780 1.403 . S
C2780 C2779 1.403 . S
C2780 C2781 1.404 . S
C2780 C2783 1.539 . S
C2781 C2777 1.408 . S
C2781 C2780 1.404 . S
C2781 H2793 0.930 . S
C2782 C2778 1.524 . S
C2782 H2794 0.956 . S
C2782 H2795 0.961 . S
C2782 H2796 0.961 . S
C2783 C2780 1.539 . S
C2783 H2797 0.958 . S
C2783 H2798 0.961 . S
C2783 H2799 0.960 . S
H2784 C2768 0.931 . S
H2785 C2773 0.929 . S
H2786 C2774 0.960 . S
H2787 C2774 0.962 . S
H2788 C2774 0.960 . S
H2789 C2775 0.961 . S
H2790 C2775 0.961 . S
H2791 C2775 0.961 . S
H2792 C2776 0.931 . S
H2793 C2781 0.930 . S
H2794 C2782 0.956 . S
H2795 C2782 0.961 . S
H2796 C2782 0.961 . S
H2797 C2783 0.958 . S
H2798 C2783 0.961 . S
H2799 C2783 0.960 . S
C2800 C2801 1.391 . S
C2800 C2802 1.394 . S
C2800 H2816 0.931 . S
C2801 C2800 1.391 . S
C2801 C2805 1.376 . S
C2802 C2800 1.394 . S
C2802 C2803 1.369 . S
C2802 C2806 1.495 1_565 S
C2803 C2802 1.369 . S
C2803 C2804 1.410 . S
C2803 C2811 1.503 . S
C2804 C2803 1.410 . S
C2804 C2805 1.392 . S
C2804 C2807 1.511 . S
C2805 C2801 1.376 . S
C2805 C2804 1.392 . S
C2805 H2817 0.929 . S
C2806 C2802 1.495 1_545 S
C2806 H2818 0.970 . S
C2806 H2819 0.971 . S
C2806 H2820 0.978 . S
C2807 C2804 1.511 . S
C2807 H2821 0.961 . S
C2807 H2822 0.961 . S
C2807 H2823 0.961 . S
C2808 C2809 1.363 1_565 S
C2808 C2810 1.363 . S
C2808 H2824 0.931 1_554 S
C2809 C2808 1.363 1_545 S
C2809 C2813 1.408 . S
C2810 C2808 1.363 . S
C2810 C2811 1.370 . S
C2810 C2814 1.524 1_554 S
C2811 C2803 1.503 . S
C2811 C2810 1.370 . S
C2811 C2812 1.403 . S
C2812 C2811 1.403 . S
C2812 C2813 1.396 1_565 S
C2812 C2815 1.539 . S
C2813 C2809 1.408 . S
C2813 C2812 1.396 1_545 S
C2813 H2825 0.937 . S
C2814 C2810 1.524 1_556 S
C2814 H2826 0.956 . S
C2814 H2827 0.961 . S
C2814 H2828 0.961 . S
C2815 C2812 1.539 . S
C2815 H2829 0.956 1_565 S
C2815 H2830 0.961 . S
C2815 H2831 0.960 . S
H2816 C2800 0.931 . S
H2817 C2805 0.929 . S
H2818 C2806 0.970 . S
H2819 C2806 0.971 . S
H2820 C2806 0.978 . S
H2821 C2807 0.961 . S
H2822 C2807 0.961 . S
H2823 C2807 0.961 . S
H2824 C2808 0.931 1_556 S
H2825 C2813 0.937 . S
H2826 C2814 0.956 . S
H2827 C2814 0.961 . S
H2828 C2814 0.961 . S
H2829 C2815 0.956 1_545 S
H2830 C2815 0.961 . S
H2831 C2815 0.960 . S
C2832 C2833 1.391 . S
C2832 C2834 1.394 . S
C2832 H2848 0.931 . S
C2833 C2832 1.391 . S
C2833 C2837 1.376 . S
C2834 C2832 1.394 . S
C2834 C2835 1.369 . S
C2834 C2838 1.531 . S
C2835 C2834 1.369 . S
C2835 C2836 1.410 . S
C2835 C2843 1.503 . S
C2836 C2835 1.410 . S
C2836 C2837 1.392 . S
C2836 C2839 1.511 . S
C2837 C2833 1.376 . S
C2837 C2836 1.392 . S
C2837 H2849 0.929 . S
C2838 C2834 1.531 . S
C2838 H2850 0.960 . S
C2838 H2851 0.962 . S
C2838 H2852 0.960 . S
C2839 C2836 1.511 . S
C2839 H2853 0.961 . S
C2839 H2854 0.961 . S
C2839 H2855 0.961 . S
C2840 C2841 1.370 . S
C2840 C2842 1.363 . S
C2840 H2856 0.931 . S
C2841 C2840 1.370 . S
C2841 C2845 1.408 . S
C2842 C2840 1.363 . S
C2842 C2843 1.370 . S
C2842 C2846 1.524 . S
C2843 C2835 1.503 . S
C2843 C2842 1.370 . S
C2843 C2844 1.403 . S
C2844 C2843 1.403 . S
C2844 C2845 1.404 . S
C2844 C2847 1.539 . S
C2845 C2841 1.408 . S
C2845 C2844 1.404 . S
C2845 H2857 0.930 . S
C2846 C2842 1.524 . S
C2846 H2858 0.956 . S
C2846 H2859 0.961 . S
C2846 H2860 0.961 . S
C2847 C2844 1.539 . S
C2847 H2861 0.958 . S
C2847 H2862 0.961 . S
C2847 H2863 0.960 . S
H2848 C2832 0.931 . S
H2849 C2837 0.929 . S
H2850 C2838 0.960 . S
H2851 C2838 0.962 . S
H2852 C2838 0.960 . S
H2853 C2839 0.961 . S
H2854 C2839 0.961 . S
H2855 C2839 0.961 . S
H2856 C2840 0.931 . S
H2857 C2845 0.930 . S
H2858 C2846 0.956 . S
H2859 C2846 0.961 . S
H2860 C2846 0.961 . S
H2861 C2847 0.958 . S
H2862 C2847 0.961 . S
H2863 C2847 0.960 . S
C2864 C2865 1.391 . S
C2864 C2866 1.394 . S
C2864 H2880 0.931 . S
C2865 C2864 1.391 . S
C2865 C2869 1.376 1_554 S
C2866 C2864 1.394 . S
C2866 C2867 1.369 . S
C2866 C2870 1.531 . S
C2867 C2866 1.369 . S
C2867 C2868 1.410 . S
C2867 C2875 1.503 . S
C2868 C2867 1.410 . S
C2868 C2869 1.392 1_554 S
C2868 C2871 1.511 1_554 S
C2869 C2865 1.376 1_556 S
C2869 C2868 1.392 1_556 S
C2869 H2881 0.929 . S
C2870 C2866 1.531 . S
C2870 H2882 0.960 . S
C2870 H2883 0.962 . S
C2870 H2884 0.960 . S
C2871 C2868 1.511 1_556 S
C2871 H2885 0.961 . S
C2871 H2886 0.961 . S
C2871 H2887 0.961 1_556 S
C2872 C2873 1.370 . S
C2872 C2874 1.363 . S
C2872 H2888 0.931 . S
C2873 C2872 1.370 . S
C2873 C2877 1.408 . S
C2874 C2872 1.363 . S
C2874 C2875 1.370 . S
C2874 C2878 1.524 1_554 S
C2875 C2867 1.503 . S
C2875 C2874 1.370 . S
C2875 C2876 1.403 . S
C2876 C2875 1.403 . S
C2876 C2877 1.404 . S
C2876 C2879 1.539 . S
C2877 C2873 1.408 . S
C2877 C2876 1.404 . S
C2877 H2889 0.930 . S
C2878 C2874 1.524 1_556 S
C2878 H2890 0.961 . S
C2878 H2891 0.961 . S
C2878 H2892 0.961 . S
C2879 C2876 1.539 . S
C2879 H2893 0.958 . S
C2879 H2894 0.961 . S
C2879 H2895 0.960 . S
H2880 C2864 0.931 . S
H2881 C2869 0.929 . S
H2882 C2870 0.960 . S
H2883 C2870 0.962 . S
H2884 C2870 0.960 . S
H2885 C2871 0.961 . S
H2886 C2871 0.961 . S
H2887 C2871 0.961 1_554 S
H2888 C2872 0.931 . S
H2889 C2877 0.930 . S
H2890 C2878 0.961 . S
H2891 C2878 0.961 . S
H2892 C2878 0.961 . S
H2893 C2879 0.958 . S
H2894 C2879 0.961 . S
H2895 C2879 0.960 . S
C2896 C2897 1.391 . S
C2896 C2898 1.394 . S
C2896 H2912 0.931 . S
C2897 C2896 1.391 . S
C2897 C2901 1.376 . S
C2898 C2896 1.394 . S
C2898 C2899 1.369 . S
C2898 C2902 1.531 . S
C2899 C2898 1.369 . S
C2899 C2900 1.410 . S
C2899 C2907 1.503 . S
C2900 C2899 1.410 . S
C2900 C2901 1.392 . S
C2900 C2903 1.511 . S
C2901 C2897 1.376 . S
C2901 C2900 1.392 . S
C2901 H2913 0.929 . S
C2902 C2898 1.531 . S
C2902 H2914 0.960 . S
C2902 H2915 0.962 . S
C2902 H2916 0.960 . S
C2903 C2900 1.511 . S
C2903 H2917 0.961 . S
C2903 H2918 0.961 . S
C2903 H2919 0.961 . S
C2904 C2905 1.370 . S
C2904 C2906 1.363 . S
C2904 H2920 0.931 . S
C2905 C2904 1.370 . S
C2905 C2909 1.408 . S
C2906 C2904 1.363 . S
C2906 C2907 1.370 . S
C2906 C2910 1.524 . S
C2907 C2899 1.503 . S
C2907 C2906 1.370 . S
C2907 C2908 1.403 . S
C2908 C2907 1.403 . S
C2908 C2909 1.404 . S
C2908 C2911 1.539 . S
C2909 C2905 1.408 . S
C2909 C2908 1.404 . S
C2909 H2921 0.930 . S
C2910 C2906 1.524 . S
C2910 H2922 0.956 . S
C2910 H2923 0.961 . S
C2910 H2924 0.961 . S
C2911 C2908 1.539 . S
C2911 H2925 0.958 . S
C2911 H2926 0.961 . S
C2911 H2927 0.960 . S
H2912 C2896 0.931 . S
H2913 C2901 0.929 . S
H2914 C2902 0.960 . S
H2915 C2902 0.962 . S
H2916 C2902 0.960 . S
H2917 C2903 0.961 . S
H2918 C2903 0.961 . S
H2919 C2903 0.961 . S
H2920 C2904 0.931 . S
H2921 C2909 0.930 . S
H2922 C2910 0.956 . S
H2923 C2910 0.961 . S
H2924 C2910 0.961 . S
H2925 C2911 0.958 . S
H2926 C2911 0.961 . S
H2927 C2911 0.960 . S
C2928 C2929 1.391 . S
C2928 C2930 1.394 . S
C2928 H2944 0.931 . S
C2929 C2928 1.391 . S
C2929 C2933 1.376 . S
C2930 C2928 1.394 . S
C2930 C2931 1.369 . S
C2930 C2934 1.531 . S
C2931 C2930 1.369 . S
C2931 C2932 1.410 . S
C2931 C2939 1.503 . S
C2932 C2931 1.410 . S
C2932 C2933 1.392 . S
C2932 C2935 1.511 . S
C2933 C2929 1.376 . S
C2933 C2932 1.392 . S
C2933 H2945 0.929 . S
C2934 C2930 1.531 . S
C2934 H2946 0.960 . S
C2934 H2947 0.962 . S
C2934 H2948 0.960 . S
C2935 C2932 1.511 . S
C2935 H2949 0.961 . S
C2935 H2950 0.961 . S
C2935 H2951 0.961 . S
C2936 C2937 1.370 . S
C2936 C2938 1.363 . S
C2936 H2952 0.931 . S
C2937 C2936 1.370 . S
C2937 C2941 1.408 . S
C2938 C2936 1.363 . S
C2938 C2939 1.370 . S
C2938 C2942 1.524 . S
C2939 C2931 1.503 . S
C2939 C2938 1.370 . S
C2939 C2940 1.403 . S
C2940 C2939 1.403 . S
C2940 C2941 1.404 . S
C2940 C2943 1.539 . S
C2941 C2937 1.408 . S
C2941 C2940 1.404 . S
C2941 H2953 0.930 . S
C2942 C2938 1.524 . S
C2942 H2954 0.956 . S
C2942 H2955 0.961 . S
C2942 H2956 0.961 . S
C2943 C2940 1.539 . S
C2943 H2957 0.958 . S
C2943 H2958 0.961 . S
C2943 H2959 0.960 . S
H2944 C2928 0.931 . S
H2945 C2933 0.929 . S
H2946 C2934 0.960 . S
H2947 C2934 0.962 . S
H2948 C2934 0.960 . S
H2949 C2935 0.961 . S
H2950 C2935 0.961 . S
H2951 C2935 0.961 . S
H2952 C2936 0.931 . S
H2953 C2941 0.930 . S
H2954 C2942 0.956 . S
H2955 C2942 0.961 . S
H2956 C2942 0.961 . S
H2957 C2943 0.958 . S
H2958 C2943 0.961 . S
H2959 C2943 0.960 . S
C2960 C2961 1.391 . S
C2960 C2962 1.394 . S
C2960 H2976 0.931 . S
C2961 C2960 1.391 . S
C2961 C2965 1.376 . S
C2962 C2960 1.394 . S
C2962 C2963 1.369 . S
C2962 C2966 1.531 . S
C2963 C2962 1.369 . S
C2963 C2964 1.410 . S
C2963 C2971 1.503 . S
C2964 C2963 1.410 . S
C2964 C2965 1.392 . S
C2964 C2967 1.511 . S
C2965 C2961 1.376 . S
C2965 C2964 1.392 . S
C2965 H2977 0.929 . S
C2966 C2962 1.531 . S
C2966 H2978 0.960 . S
C2966 H2979 0.962 . S
C2966 H2980 0.960 . S
C2967 C2964 1.511 . S
C2967 H2981 0.961 . S
C2967 H2982 0.961 . S
C2967 H2983 0.961 . S
C2968 C2969 1.370 . S
C2968 C2970 1.363 . S
C2968 H2984 0.931 . S
C2969 C2968 1.370 . S
C2969 C2973 1.408 . S
C2970 C2968 1.363 . S
C2970 C2971 1.370 . S
C2970 C2974 1.524 . S
C2971 C2963 1.503 . S
C2971 C2970 1.370 . S
C2971 C2972 1.403 . S
C2972 C2971 1.403 . S
C2972 C2973 1.404 . S
C2972 C2975 1.539 . S
C2973 C2969 1.408 . S
C2973 C2972 1.404 . S
C2973 H2985 0.930 . S
C2974 C2970 1.524 . S
C2974 H2986 0.956 . S
C2974 H2987 0.961 . S
C2974 H2988 0.961 . S
C2975 C2972 1.539 . S
C2975 H2989 0.958 . S
C2975 H2990 0.961 . S
C2975 H2991 0.960 . S
H2976 C2960 0.931 . S
H2977 C2965 0.929 . S
H2978 C2966 0.960 . S
H2979 C2966 0.962 . S
H2980 C2966 0.960 . S
H2981 C2967 0.961 . S
H2982 C2967 0.961 . S
H2983 C2967 0.961 . S
H2984 C2968 0.931 . S
H2985 C2973 0.930 . S
H2986 C2974 0.956 . S
H2987 C2974 0.961 . S
H2988 C2974 0.961 . S
H2989 C2975 0.958 . S
H2990 C2975 0.961 . S
H2991 C2975 0.960 . S
C2992 C2993 1.391 . S
C2992 C2994 1.394 . S
C2992 H3008 0.931 . S
C2993 C2992 1.391 . S
C2993 C2997 1.376 . S
C2994 C2992 1.394 . S
C2994 C2995 1.369 . S
C2994 C2998 1.531 . S
C2995 C2994 1.369 . S
C2995 C2996 1.410 . S
C2995 C3003 1.503 . S
C2996 C2995 1.410 . S
C2996 C2997 1.392 . S
C2996 C2999 1.511 . S
C2997 C2993 1.376 . S
C2997 C2996 1.392 . S
C2997 H3009 0.929 . S
C2998 C2994 1.531 . S
C2998 H3010 0.960 . S
C2998 H3011 0.962 . S
C2998 H3012 0.960 . S
C2999 C2996 1.511 . S
C2999 H3013 0.961 . S
C2999 H3014 0.961 . S
C2999 H3015 0.961 . S
C3000 C3001 1.370 . S
C3000 C3002 1.363 . S
C3000 H3016 0.931 . S
C3001 C3000 1.370 . S
C3001 C3005 1.408 . S
C3002 C3000 1.363 . S
C3002 C3003 1.370 . S
C3002 C3006 1.524 . S
C3003 C2995 1.503 . S
C3003 C3002 1.370 . S
C3003 C3004 1.403 . S
C3004 C3003 1.403 . S
C3004 C3005 1.404 . S
C3004 C3007 1.539 . S
C3005 C3001 1.408 . S
C3005 C3004 1.404 . S
C3005 H3017 0.930 . S
C3006 C3002 1.524 . S
C3006 H3018 0.956 . S
C3006 H3019 0.961 . S
C3006 H3020 0.961 . S
C3007 C3004 1.539 . S
C3007 H3021 0.958 . S
C3007 H3022 0.961 . S
C3007 H3023 0.960 . S
H3008 C2992 0.931 . S
H3009 C2997 0.929 . S
H3010 C2998 0.960 . S
H3011 C2998 0.962 . S
H3012 C2998 0.960 . S
H3013 C2999 0.961 . S
H3014 C2999 0.961 . S
H3015 C2999 0.961 . S
H3016 C3000 0.931 . S
H3017 C3005 0.930 . S
H3018 C3006 0.956 . S
H3019 C3006 0.961 . S
H3020 C3006 0.961 . S
H3021 C3007 0.958 . S
H3022 C3007 0.961 . S
H3023 C3007 0.960 . S
C3024 C3025 1.388 . S
C3024 C3026 1.394 . S
C3024 H3040 0.931 . S
C3025 C3024 1.388 . S
C3025 C3029 1.378 1_455 S
C3026 C3024 1.394 . S
C3026 C3027 1.369 . S
C3026 C3030 1.531 . S
C3027 C3026 1.369 . S
C3027 C3028 1.410 1_455 S
C3027 C3035 1.503 . S
C3028 C3027 1.410 1_655 S
C3028 C3029 1.392 . S
C3028 C3031 1.511 . S
C3029 C3025 1.378 1_655 S
C3029 C3028 1.392 . S
C3029 H3041 0.929 . S
C3030 C3026 1.531 . S
C3030 H3042 0.960 . S
C3030 H3043 0.962 . S
C3030 H3044 0.960 . S
C3031 C3028 1.511 . S
C3031 H3045 0.961 . S
C3031 H3046 0.961 . S
C3031 H3047 0.961 . S
C3032 C3033 1.370 . S
C3032 C3034 1.363 . S
C3032 H3048 0.931 . S
C3033 C3032 1.370 . S
C3033 C3037 1.408 1_455 S
C3034 C3032 1.363 . S
C3034 C3035 1.370 . S
C3034 C3038 1.524 . S
C3035 C3027 1.503 . S
C3035 C3034 1.370 . S
C3035 C3036 1.403 1_455 S
C3036 C3035 1.403 1_655 S
C3036 C3037 1.404 . S
C3036 C3039 1.539 . S
C3037 C3033 1.408 1_655 S
C3037 C3036 1.404 . S
C3037 H3049 0.930 . S
C3038 C3034 1.524 . S
C3038 H3050 0.956 . S
C3038 H3051 0.961 . S
C3038 H3052 0.961 . S
C3039 C3036 1.539 . S
C3039 H3053 0.958 . S
C3039 H3054 0.961 . S
C3039 H3055 0.960 . S
H3040 C3024 0.931 . S
H3041 C3029 0.929 . S
H3042 C3030 0.960 . S
H3043 C3030 0.962 . S
H3044 C3030 0.960 . S
H3045 C3031 0.961 . S
H3046 C3031 0.961 . S
H3047 C3031 0.961 . S
H3048 C3032 0.931 . S
H3049 C3037 0.930 . S
H3050 C3038 0.956 . S
H3051 C3038 0.961 . S
H3052 C3038 0.961 . S
H3053 C3039 0.958 . S
H3054 C3039 0.961 . S
H3055 C3039 0.960 . S
C3056 C3057 1.391 . S
C3056 C3058 1.394 . S
C3056 H3072 0.931 . S
C3057 C3056 1.391 . S
C3057 C3061 1.376 . S
C3058 C3056 1.394 . S
C3058 C3059 1.369 . S
C3058 C3062 1.531 . S
C3059 C3058 1.369 . S
C3059 C3060 1.410 . S
C3059 C3067 1.503 . S
C3060 C3059 1.410 . S
C3060 C3061 1.392 . S
C3060 C3063 1.511 . S
C3061 C3057 1.376 . S
C3061 C3060 1.392 . S
C3061 H3073 0.929 . S
C3062 C3058 1.531 . S
C3062 H3074 0.960 . S
C3062 H3075 0.962 . S
C3062 H3076 0.960 . S
C3063 C3060 1.511 . S
C3063 H3077 0.961 . S
C3063 H3078 0.961 . S
C3063 H3079 0.961 . S
C3064 C3065 1.370 . S
C3064 C3066 1.363 . S
C3064 H3080 0.931 . S
C3065 C3064 1.370 . S
C3065 C3069 1.408 . S
C3066 C3064 1.363 . S
C3066 C3067 1.370 . S
C3066 C3070 1.524 . S
C3067 C3059 1.503 . S
C3067 C3066 1.370 . S
C3067 C3068 1.403 . S
C3068 C3067 1.403 . S
C3068 C3069 1.404 . S
C3068 C3071 1.539 . S
C3069 C3065 1.408 . S
C3069 C3068 1.404 . S
C3069 H3081 0.930 . S
C3070 C3066 1.524 . S
C3070 H3082 0.956 . S
C3070 H3083 0.961 . S
C3070 H3084 0.961 . S
C3071 C3068 1.539 . S
C3071 H3085 0.958 . S
C3071 H3086 0.961 . S
C3071 H3087 0.960 . S
H3072 C3056 0.931 . S
H3073 C3061 0.929 . S
H3074 C3062 0.960 . S
H3075 C3062 0.962 . S
H3076 C3062 0.960 . S
H3077 C3063 0.961 . S
H3078 C3063 0.961 . S
H3079 C3063 0.961 . S
H3080 C3064 0.931 . S
H3081 C3069 0.930 . S
H3082 C3070 0.956 . S
H3083 C3070 0.961 . S
H3084 C3070 0.961 . S
H3085 C3071 0.958 . S
H3086 C3071 0.961 . S
H3087 C3071 0.960 . S
C3088 C3089 1.391 . S
C3088 C3090 1.394 . S
C3088 H3104 0.931 . S
C3089 C3088 1.391 . S
C3089 C3093 1.376 . S
C3090 C3088 1.394 . S
C3090 C3091 1.369 . S
C3090 C3094 1.531 . S
C3091 C3090 1.369 . S
C3091 C3092 1.410 . S
C3091 C3099 1.503 . S
C3092 C3091 1.410 . S
C3092 C3093 1.392 . S
C3092 C3095 1.511 . S
C3093 C3089 1.376 . S
C3093 C3092 1.392 . S
C3093 H3105 0.929 . S
C3094 C3090 1.531 . S
C3094 H3106 0.960 . S
C3094 H3107 0.962 . S
C3094 H3108 0.960 . S
C3095 C3092 1.511 . S
C3095 H3109 0.961 . S
C3095 H3110 0.961 . S
C3095 H3111 0.961 . S
C3096 C3097 1.370 . S
C3096 C3098 1.363 . S
C3096 H3112 0.931 1_556 S
C3097 C3096 1.370 . S
C3097 C3101 1.408 . S
C3098 C3096 1.363 . S
C3098 C3099 1.370 . S
C3098 C3102 1.524 . S
C3099 C3091 1.503 . S
C3099 C3098 1.370 . S
C3099 C3100 1.403 . S
C3100 C3099 1.403 . S
C3100 C3101 1.404 . S
C3100 C3103 1.539 . S
C3101 C3097 1.408 . S
C3101 C3100 1.404 . S
C3101 H3113 0.930 . S
C3102 C3098 1.524 . S
C3102 H3114 0.956 . S
C3102 H3115 0.961 . S
C3102 H3116 0.961 1_556 S
C3103 C3100 1.539 . S
C3103 H3117 0.958 . S
C3103 H3118 0.961 . S
C3103 H3119 0.960 . S
H3104 C3088 0.931 . S
H3105 C3093 0.929 . S
H3106 C3094 0.960 . S
H3107 C3094 0.962 . S
H3108 C3094 0.960 . S
H3109 C3095 0.961 . S
H3110 C3095 0.961 . S
H3111 C3095 0.961 . S
H3112 C3096 0.931 1_554 S
H3113 C3101 0.930 . S
H3114 C3102 0.956 . S
H3115 C3102 0.961 . S
H3116 C3102 0.961 1_554 S
H3117 C3103 0.958 . S
H3118 C3103 0.961 . S
H3119 C3103 0.960 . S
C3120 C3121 1.391 . S
C3120 C3122 1.394 . S
C3120 H3136 0.931 . S
C3121 C3120 1.391 . S
C3121 C3125 1.376 . S
C3122 C3120 1.394 . S
C3122 C3123 1.369 . S
C3122 C3126 1.531 . S
C3123 C3122 1.369 . S
C3123 C3124 1.410 . S
C3123 C3131 1.503 . S
C3124 C3123 1.410 . S
C3124 C3125 1.392 . S
C3124 C3127 1.511 . S
C3125 C3121 1.376 . S
C3125 C3124 1.392 . S
C3125 H3137 0.929 . S
C3126 C3122 1.531 . S
C3126 H3138 0.960 . S
C3126 H3139 0.962 . S
C3126 H3140 0.960 . S
C3127 C3124 1.511 . S
C3127 H3141 0.961 . S
C3127 H3142 0.961 . S
C3127 H3143 0.961 . S
C3128 C3129 1.370 . S
C3128 C3130 1.363 . S
C3128 H3144 0.931 . S
C3129 C3128 1.370 . S
C3129 C3133 1.408 . S
C3130 C3128 1.363 . S
C3130 C3131 1.370 . S
C3130 C3134 1.524 . S
C3131 C3123 1.503 . S
C3131 C3130 1.370 . S
C3131 C3132 1.403 . S
C3132 C3131 1.403 . S
C3132 C3133 1.404 . S
C3132 C3135 1.539 . S
C3133 C3129 1.408 . S
C3133 C3132 1.404 . S
C3133 H3145 0.930 . S
C3134 C3130 1.524 . S
C3134 H3146 0.956 . S
C3134 H3147 0.961 . S
C3134 H3148 0.961 . S
C3135 C3132 1.539 . S
C3135 H3149 0.958 . S
C3135 H3150 0.961 . S
C3135 H3151 0.960 . S
H3136 C3120 0.931 . S
H3137 C3125 0.929 . S
H3138 C3126 0.960 . S
H3139 C3126 0.962 . S
H3140 C3126 0.960 . S
H3141 C3127 0.961 . S
H3142 C3127 0.961 . S
H3143 C3127 0.961 . S
H3144 C3128 0.931 . S
H3145 C3133 0.930 . S
H3146 C3134 0.956 . S
H3147 C3134 0.961 . S
H3148 C3134 0.961 . S
H3149 C3135 0.958 . S
H3150 C3135 0.961 . S
H3151 C3135 0.960 . S
C3152 C3153 1.391 . S
C3152 C3154 1.394 . S
C3152 H3168 0.931 . S
C3153 C3152 1.391 . S
C3153 C3157 1.376 . S
C3154 C3152 1.394 . S
C3154 C3155 1.369 . S
C3154 C3158 1.531 . S
C3155 C3154 1.369 . S
C3155 C3156 1.410 . S
C3155 C3163 1.503 . S
C3156 C3155 1.410 . S
C3156 C3157 1.392 . S
C3156 C3159 1.511 . S
C3157 C3153 1.376 . S
C3157 C3156 1.392 . S
C3157 H3169 0.929 . S
C3158 C3154 1.531 . S
C3158 H3170 0.960 . S
C3158 H3171 0.962 1_455 S
C3158 H3172 0.960 . S
C3159 C3156 1.511 . S
C3159 H3173 0.961 . S
C3159 H3174 0.961 . S
C3159 H3175 0.961 . S
C3160 C3161 1.390 . S
C3160 C3162 1.374 . S
C3160 H3176 0.900 1_455 S
C3161 C3160 1.390 . S
C3161 C3165 1.408 . S
C3162 C3160 1.374 . S
C3162 C3163 1.370 . S
C3162 C3166 1.524 1_455 S
C3163 C3155 1.503 . S
C3163 C3162 1.370 . S
C3163 C3164 1.403 . S
C3164 C3163 1.403 . S
C3164 C3165 1.404 . S
C3164 C3167 1.539 . S
C3165 C3161 1.408 . S
C3165 C3164 1.404 . S
C3165 H3177 0.930 . S
C3166 C3162 1.524 1_655 S
C3166 H3178 0.956 . S
C3166 H3179 0.961 . S
C3166 H3180 0.961 . S
C3167 C3164 1.539 . S
C3167 H3181 0.958 . S
C3167 H3182 0.961 . S
C3167 H3183 0.960 . S
H3168 C3152 0.931 . S
H3169 C3157 0.929 . S
H3170 C3158 0.960 . S
H3171 C3158 0.962 1_655 S
H3172 C3158 0.960 . S
H3173 C3159 0.961 . S
H3174 C3159 0.961 . S
H3175 C3159 0.961 . S
H3176 C3160 0.900 1_655 S
H3177 C3165 0.930 . S
H3178 C3166 0.956 . S
H3179 C3166 0.961 . S
H3180 C3166 0.961 . S
H3181 C3167 0.958 . S
H3182 C3167 0.961 . S
H3183 C3167 0.960 . S
C3184 C3185 1.391 . S
C3184 C3186 1.394 . S
C3184 H3200 0.931 . S
C3185 C3184 1.391 . S
C3185 C3189 1.376 . S
C3186 C3184 1.394 . S
C3186 C3187 1.369 . S
C3186 C3190 1.531 . S
C3187 C3186 1.369 . S
C3187 C3188 1.410 . S
C3187 C3195 1.503 . S
C3188 C3187 1.410 . S
C3188 C3189 1.392 . S
C3188 C3191 1.511 . S
C3189 C3185 1.376 . S
C3189 C3188 1.392 . S
C3189 H3201 0.929 . S
C3190 C3186 1.531 . S
C3190 H3202 0.960 . S
C3190 H3203 0.962 . S
C3190 H3204 0.960 . S
C3191 C3188 1.511 . S
C3191 H3205 0.961 . S
C3191 H3206 0.961 . S
C3191 H3207 0.961 . S
C3192 C3193 1.370 . S
C3192 C3194 1.363 . S
C3192 H3208 0.931 . S
C3193 C3192 1.370 . S
C3193 C3197 1.408 . S
C3194 C3192 1.363 . S
C3194 C3195 1.370 . S
C3194 C3198 1.524 . S
C3195 C3187 1.503 . S
C3195 C3194 1.370 . S
C3195 C3196 1.403 . S
C3196 C3195 1.403 . S
C3196 C3197 1.404 . S
C3196 C3199 1.539 . S
C3197 C3193 1.408 . S
C3197 C3196 1.404 . S
C3197 H3209 0.930 . S
C3198 C3194 1.524 . S
C3198 H3210 0.956 . S
C3198 H3211 0.961 . S
C3198 H3212 0.961 . S
C3199 C3196 1.539 . S
C3199 H3213 0.958 . S
C3199 H3214 0.961 . S
C3199 H3215 0.960 . S
H3200 C3184 0.931 . S
H3201 C3189 0.929 . S
H3202 C3190 0.960 . S
H3203 C3190 0.962 . S
H3204 C3190 0.960 . S
H3205 C3191 0.961 . S
H3206 C3191 0.961 . S
H3207 C3191 0.961 . S
H3208 C3192 0.931 . S
H3209 C3197 0.930 . S
H3210 C3198 0.956 . S
H3211 C3198 0.961 . S
H3212 C3198 0.961 . S
H3213 C3199 0.958 . S
H3214 C3199 0.961 . S
H3215 C3199 0.960 . S
C3216 C3217 1.391 . S
C3216 C3218 1.394 . S
C3216 H3232 0.931 . S
C3217 C3216 1.391 . S
C3217 C3221 1.376 . S
C3218 C3216 1.394 . S
C3218 C3219 1.369 . S
C3218 C3222 1.531 . S
C3219 C3218 1.369 . S
C3219 C3220 1.410 . S
C3219 C3227 1.503 . S
C3220 C3219 1.410 . S
C3220 C3221 1.392 . S
C3220 C3223 1.511 . S
C3221 C3217 1.376 . S
C3221 C3220 1.392 . S
C3221 H3233 0.929 . S
C3222 C3218 1.531 . S
C3222 H3234 0.960 . S
C3222 H3235 0.962 . S
C3222 H3236 0.960 . S
C3223 C3220 1.511 . S
C3223 H3237 0.961 . S
C3223 H3238 0.961 . S
C3223 H3239 0.961 . S
C3224 C3225 1.370 . S
C3224 C3226 1.363 . S
C3224 H3240 0.931 . S
C3225 C3224 1.370 . S
C3225 C3229 1.408 . S
C3226 C3224 1.363 . S
C3226 C3227 1.370 . S
C3226 C3230 1.524 . S
C3227 C3219 1.503 . S
C3227 C3226 1.370 . S
C3227 C3228 1.403 . S
C3228 C3227 1.403 . S
C3228 C3229 1.404 . S
C3228 C3231 1.539 . S
C3229 C3225 1.408 . S
C3229 C3228 1.404 . S
C3229 H3241 0.930 . S
C3230 C3226 1.524 . S
C3230 H3242 0.956 . S
C3230 H3243 0.961 . S
C3230 H3244 0.961 . S
C3231 C3228 1.539 . S
C3231 H3245 0.958 . S
C3231 H3246 0.961 . S
C3231 H3247 0.960 . S
H3232 C3216 0.931 . S
H3233 C3221 0.929 . S
H3234 C3222 0.960 . S
H3235 C3222 0.962 . S
H3236 C3222 0.960 . S
H3237 C3223 0.961 . S
H3238 C3223 0.961 . S
H3239 C3223 0.961 . S
H3240 C3224 0.931 . S
H3241 C3229 0.930 . S
H3242 C3230 0.956 . S
H3243 C3230 0.961 . S
H3244 C3230 0.961 . S
H3245 C3231 0.958 . S
H3246 C3231 0.961 . S
H3247 C3231 0.960 . S
C3248 C3249 1.391 . S
C3248 C3250 1.394 . S
C3248 H3264 0.931 . S
C3249 C3248 1.391 . S
C3249 C3253 1.376 . S
C3250 C3248 1.394 . S
C3250 C3251 1.369 . S
C3250 C3254 1.531 . S
C3251 C3250 1.369 . S
C3251 C3252 1.410 . S
C3251 C3259 1.503 . S
C3252 C3251 1.410 . S
C3252 C3253 1.392 . S
C3252 C3255 1.511 . S
C3253 C3249 1.376 . S
C3253 C3252 1.392 . S
C3253 H3265 0.929 . S
C3254 C3250 1.531 . S
C3254 H3266 0.960 . S
C3254 H3267 0.962 . S
C3254 H3268 0.960 . S
C3255 C3252 1.511 . S
C3255 H3269 0.961 . S
C3255 H3270 0.961 . S
C3255 H3271 0.961 . S
C3256 C3257 1.370 . S
C3256 C3258 1.363 . S
C3256 H3272 0.931 . S
C3257 C3256 1.370 . S
C3257 C3261 1.408 . S
C3258 C3256 1.363 . S
C3258 C3259 1.370 . S
C3258 C3262 1.524 . S
C3259 C3251 1.503 . S
C3259 C3258 1.370 . S
C3259 C3260 1.403 . S
C3260 C3259 1.403 . S
C3260 C3261 1.404 . S
C3260 C3263 1.539 . S
C3261 C3257 1.408 . S
C3261 C3260 1.404 . S
C3261 H3273 0.930 . S
C3262 C3258 1.524 . S
C3262 H3274 0.956 . S
C3262 H3275 0.961 . S
C3262 H3276 0.961 . S
C3263 C3260 1.539 . S
C3263 H3277 0.958 . S
C3263 H3278 0.961 . S
C3263 H3279 0.960 . S
H3264 C3248 0.931 . S
H3265 C3253 0.929 . S
H3266 C3254 0.960 . S
H3267 C3254 0.962 . S
H3268 C3254 0.960 . S
H3269 C3255 0.961 . S
H3270 C3255 0.961 . S
H3271 C3255 0.961 . S
H3272 C3256 0.931 . S
H3273 C3261 0.930 . S
H3274 C3262 0.956 . S
H3275 C3262 0.961 . S
H3276 C3262 0.961 . S
H3277 C3263 0.958 . S
H3278 C3263 0.961 . S
H3279 C3263 0.960 . S
C3280 C3281 1.391 . S
C3280 C3282 1.394 . S
C3280 H3296 0.931 . S
C3281 C3280 1.391 . S
C3281 C3285 1.376 . S
C3282 C3280 1.394 . S
C3282 C3283 1.369 . S
C3282 C3286 1.531 . S
C3283 C3282 1.369 . S
C3283 C3284 1.410 . S
C3283 C3291 1.503 . S
C3284 C3283 1.410 . S
C3284 C3285 1.392 . S
C3284 C3287 1.511 . S
C3285 C3281 1.376 . S
C3285 C3284 1.392 . S
C3285 H3297 0.929 . S
C3286 C3282 1.531 . S
C3286 H3298 0.960 . S
C3286 H3299 0.962 . S
C3286 H3300 0.960 . S
C3287 C3284 1.511 . S
C3287 H3301 0.961 . S
C3287 H3302 0.961 . S
C3287 H3303 0.947 1_655 S
C3288 C3289 1.370 . S
C3288 C3290 1.363 . S
C3288 H3304 0.931 . S
C3289 C3288 1.370 . S
C3289 C3293 1.408 1_655 S
C3290 C3288 1.363 . S
C3290 C3291 1.370 . S
C3290 C3294 1.524 . S
C3291 C3283 1.503 . S
C3291 C3290 1.370 . S
C3291 C3292 1.403 . S
C3292 C3291 1.403 . S
C3292 C3293 1.404 1_655 S
C3292 C3295 1.539 1_655 S
C3293 C3289 1.408 1_455 S
C3293 C3292 1.404 1_455 S
C3293 H3305 0.930 . S
C3294 C3290 1.524 . S
C3294 H3306 0.956 . S
C3294 H3307 0.961 . S
C3294 H3308 0.961 . S
C3295 C3292 1.539 1_455 S
C3295 H3309 0.958 . S
C3295 H3310 0.961 . S
C3295 H3311 0.960 . S
H3296 C3280 0.931 . S
H3297 C3285 0.929 . S
H3298 C3286 0.960 . S
H3299 C3286 0.962 . S
H3300 C3286 0.960 . S
H3301 C3287 0.961 . S
H3302 C3287 0.961 . S
H3303 C3287 0.947 1_455 S
H3304 C3288 0.931 . S
H3305 C3293 0.930 . S
H3306 C3294 0.956 . S
H3307 C3294 0.961 . S
H3308 C3294 0.961 . S
H3309 C3295 0.958 . S
H3310 C3295 0.961 . S
H3311 C3295 0.960 . S
C3312 C3313 1.391 . S
C3312 C3314 1.394 . S
C3312 H3328 0.931 . S
C3313 C3312 1.391 . S
C3313 C3317 1.376 . S
C3314 C3312 1.394 . S
C3314 C3315 1.369 . S
C3314 C3318 1.531 . S
C3315 C3314 1.369 . S
C3315 C3316 1.410 . S
C3315 C3323 1.503 . S
C3316 C3315 1.410 . S
C3316 C3317 1.392 . S
C3316 C3319 1.511 . S
C3317 C3313 1.376 . S
C3317 C3316 1.392 . S
C3317 H3329 0.929 . S
C3318 C3314 1.531 . S
C3318 H3330 0.960 . S
C3318 H3331 0.962 . S
C3318 H3332 0.960 . S
C3319 C3316 1.511 . S
C3319 H3333 0.961 . S
C3319 H3334 0.961 . S
C3319 H3335 0.961 . S
C3320 C3321 1.370 . S
C3320 C3322 1.363 . S
C3320 H3336 0.931 . S
C3321 C3320 1.370 . S
C3321 C3325 1.408 . S
C3322 C3320 1.363 . S
C3322 C3323 1.370 . S
C3322 C3326 1.524 . S
C3323 C3315 1.503 . S
C3323 C3322 1.370 . S
C3323 C3324 1.403 . S
C3324 C3323 1.403 . S
C3324 C3325 1.404 . S
C3324 C3327 1.539 . S
C3325 C3321 1.408 . S
C3325 C3324 1.404 . S
C3325 H3337 0.930 . S
C3326 C3322 1.524 . S
C3326 H3338 0.956 . S
C3326 H3339 0.961 . S
C3326 H3340 0.961 . S
C3327 C3324 1.539 . S
C3327 H3341 0.958 . S
C3327 H3342 0.961 . S
C3327 H3343 0.960 . S
H3328 C3312 0.931 . S
H3329 C3317 0.929 . S
H3330 C3318 0.960 . S
H3331 C3318 0.962 . S
H3332 C3318 0.960 . S
H3333 C3319 0.961 . S
H3334 C3319 0.961 . S
H3335 C3319 0.961 . S
H3336 C3320 0.931 . S
H3337 C3325 0.930 . S
H3338 C3326 0.956 . S
H3339 C3326 0.961 . S
H3340 C3326 0.961 . S
H3341 C3327 0.958 . S
H3342 C3327 0.961 . S
H3343 C3327 0.960 . S
C3344 C3345 1.391 . S
C3344 C3346 1.394 . S
C3344 H3360 0.931 . S
C3345 C3344 1.391 . S
C3345 C3349 1.376 . S
C3346 C3344 1.394 . S
C3346 C3347 1.369 . S
C3346 C3350 1.531 . S
C3347 C3346 1.369 . S
C3347 C3348 1.410 . S
C3347 C3355 1.503 . S
C3348 C3347 1.410 . S
C3348 C3349 1.392 . S
C3348 C3351 1.511 . S
C3349 C3345 1.376 . S
C3349 C3348 1.392 . S
C3349 H3361 0.929 . S
C3350 C3346 1.531 . S
C3350 H3362 0.960 . S
C3350 H3363 0.962 . S
C3350 H3364 0.960 . S
C3351 C3348 1.511 . S
C3351 H3365 0.961 . S
C3351 H3366 0.961 . S
C3351 H3367 0.961 . S
C3352 C3353 1.370 . S
C3352 C3354 1.363 . S
C3352 H3368 0.931 . S
C3353 C3352 1.370 . S
C3353 C3357 1.408 . S
C3354 C3352 1.363 . S
C3354 C3355 1.370 . S
C3354 C3358 1.524 . S
C3355 C3347 1.503 . S
C3355 C3354 1.370 . S
C3355 C3356 1.403 . S
C3356 C3355 1.403 . S
C3356 C3357 1.404 . S
C3356 C3359 1.539 . S
C3357 C3353 1.408 . S
C3357 C3356 1.404 . S
C3357 H3369 0.930 . S
C3358 C3354 1.524 . S
C3358 H3370 0.956 . S
C3358 H3371 0.961 . S
C3358 H3372 0.961 . S
C3359 C3356 1.539 . S
C3359 H3373 0.958 . S
C3359 H3374 0.961 . S
C3359 H3375 0.960 . S
H3360 C3344 0.931 . S
H3361 C3349 0.929 . S
H3362 C3350 0.960 . S
H3363 C3350 0.962 . S
H3364 C3350 0.960 . S
H3365 C3351 0.961 . S
H3366 C3351 0.961 . S
H3367 C3351 0.961 . S
H3368 C3352 0.931 . S
H3369 C3357 0.930 . S
H3370 C3358 0.956 . S
H3371 C3358 0.961 . S
H3372 C3358 0.961 . S
H3373 C3359 0.958 . S
H3374 C3359 0.961 . S
H3375 C3359 0.960 . S
C3376 C3377 1.391 . S
C3376 C3378 1.394 . S
C3376 H3392 0.931 . S
C3377 C3376 1.391 . S
C3377 C3381 1.376 . S
C3378 C3376 1.394 . S
C3378 C3379 1.369 . S
C3378 C3382 1.531 . S
C3379 C3378 1.369 . S
C3379 C3380 1.410 . S
C3379 C3387 1.503 . S
C3380 C3379 1.410 . S
C3380 C3381 1.392 . S
C3380 C3383 1.511 . S
C3381 C3377 1.376 . S
C3381 C3380 1.392 . S
C3381 H3393 0.929 . S
C3382 C3378 1.531 . S
C3382 H3394 0.960 . S
C3382 H3395 0.962 . S
C3382 H3396 0.960 . S
C3383 C3380 1.511 . S
C3383 H3397 0.961 . S
C3383 H3398 0.961 . S
C3383 H3399 0.961 . S
C3384 C3385 1.370 . S
C3384 C3386 1.363 . S
C3384 H3400 0.931 . S
C3385 C3384 1.370 . S
C3385 C3389 1.408 . S
C3386 C3384 1.363 . S
C3386 C3387 1.370 . S
C3386 C3390 1.524 . S
C3387 C3379 1.503 . S
C3387 C3386 1.370 . S
C3387 C3388 1.403 . S
C3388 C3387 1.403 . S
C3388 C3389 1.404 . S
C3388 C3391 1.539 . S
C3389 C3385 1.408 . S
C3389 C3388 1.404 . S
C3389 H3401 0.930 . S
C3390 C3386 1.524 . S
C3390 H3402 0.956 . S
C3390 H3403 0.961 . S
C3390 H3404 0.961 . S
C3391 C3388 1.539 . S
C3391 H3405 0.958 . S
C3391 H3406 0.961 . S
C3391 H3407 0.960 . S
H3392 C3376 0.931 . S
H3393 C3381 0.929 . S
H3394 C3382 0.960 . S
H3395 C3382 0.962 . S
H3396 C3382 0.960 . S
H3397 C3383 0.961 . S
H3398 C3383 0.961 . S
H3399 C3383 0.961 . S
H3400 C3384 0.931 . S
H3401 C3389 0.930 . S
H3402 C3390 0.956 . S
H3403 C3390 0.961 . S
H3404 C3390 0.961 . S
H3405 C3391 0.958 . S
H3406 C3391 0.961 . S
H3407 C3391 0.960 . S
C3408 C3409 1.391 . S
C3408 C3410 1.394 . S
C3408 H3424 0.931 . S
C3409 C3408 1.391 . S
C3409 C3413 1.376 . S
C3410 C3408 1.394 . S
C3410 C3411 1.369 . S
C3410 C3414 1.531 . S
C3411 C3410 1.369 . S
C3411 C3412 1.410 . S
C3411 C3419 1.503 . S
C3412 C3411 1.410 . S
C3412 C3413 1.392 . S
C3412 C3415 1.511 . S
C3413 C3409 1.376 . S
C3413 C3412 1.392 . S
C3413 H3425 0.929 . S
C3414 C3410 1.531 . S
C3414 H3426 0.960 . S
C3414 H3427 0.962 . S
C3414 H3428 0.960 . S
C3415 C3412 1.511 . S
C3415 H3429 0.961 . S
C3415 H3430 0.961 . S
C3415 H3431 0.961 . S
C3416 C3417 1.370 . S
C3416 C3418 1.363 . S
C3416 H3432 0.931 . S
C3417 C3416 1.370 . S
C3417 C3421 1.408 . S
C3418 C3416 1.363 . S
C3418 C3419 1.370 . S
C3418 C3422 1.524 . S
C3419 C3411 1.503 . S
C3419 C3418 1.370 . S
C3419 C3420 1.403 . S
C3420 C3419 1.403 . S
C3420 C3421 1.404 . S
C3420 C3423 1.532 1_655 S
C3421 C3417 1.408 . S
C3421 C3420 1.404 . S
C3421 H3433 0.930 1_655 S
C3422 C3418 1.524 . S
C3422 H3434 0.956 . S
C3422 H3435 0.961 . S
C3422 H3436 0.961 . S
C3423 C3420 1.532 1_455 S
C3423 H3437 0.951 1_455 S
C3423 H3438 0.981 . S
C3423 H3439 0.955 1_455 S
H3424 C3408 0.931 . S
H3425 C3413 0.929 . S
H3426 C3414 0.960 . S
H3427 C3414 0.962 . S
H3428 C3414 0.960 . S
H3429 C3415 0.961 . S
H3430 C3415 0.961 . S
H3431 C3415 0.961 . S
H3432 C3416 0.931 . S
H3433 C3421 0.930 1_455 S
H3434 C3422 0.956 . S
H3435 C3422 0.961 . S
H3436 C3422 0.961 . S
H3437 C3423 0.951 1_655 S
H3438 C3423 0.981 . S
H3439 C3423 0.955 1_655 S
C3440 C3441 1.391 . S
C3440 C3442 1.394 . S
C3440 H3456 0.931 . S
C3441 C3440 1.391 . S
C3441 C3445 1.376 . S
C3442 C3440 1.394 . S
C3442 C3443 1.369 . S
C3442 C3446 1.531 . S
C3443 C3442 1.369 . S
C3443 C3444 1.410 . S
C3443 C3451 1.503 . S
C3444 C3443 1.410 . S
C3444 C3445 1.392 . S
C3444 C3447 1.511 . S
C3445 C3441 1.376 . S
C3445 C3444 1.392 . S
C3445 H3457 0.929 . S
C3446 C3442 1.531 . S
C3446 H3458 0.960 . S
C3446 H3459 0.962 . S
C3446 H3460 0.960 . S
C3447 C3444 1.511 . S
C3447 H3461 0.961 . S
C3447 H3462 0.961 . S
C3447 H3463 0.961 . S
C3448 C3449 1.370 . S
C3448 C3450 1.363 . S
C3448 H3464 0.931 . S
C3449 C3448 1.370 . S
C3449 C3453 1.408 . S
C3450 C3448 1.363 . S
C3450 C3451 1.370 . S
C3450 C3454 1.524 . S
C3451 C3443 1.503 . S
C3451 C3450 1.370 . S
C3451 C3452 1.403 . S
C3452 C3451 1.403 . S
C3452 C3453 1.404 . S
C3452 C3455 1.539 . S
C3453 C3449 1.408 . S
C3453 C3452 1.404 . S
C3453 H3465 0.930 . S
C3454 C3450 1.524 . S
C3454 H3466 0.956 . S
C3454 H3467 0.961 . S
C3454 H3468 0.961 . S
C3455 C3452 1.539 . S
C3455 H3469 0.958 . S
C3455 H3470 0.961 . S
C3455 H3471 0.960 . S
H3456 C3440 0.931 . S
H3457 C3445 0.929 . S
H3458 C3446 0.960 . S
H3459 C3446 0.962 . S
H3460 C3446 0.960 . S
H3461 C3447 0.961 . S
H3462 C3447 0.961 . S
H3463 C3447 0.961 . S
H3464 C3448 0.931 . S
H3465 C3453 0.930 . S
H3466 C3454 0.956 . S
H3467 C3454 0.961 . S
H3468 C3454 0.961 . S
H3469 C3455 0.958 . S
H3470 C3455 0.961 . S
H3471 C3455 0.960 . S
C3472 C3473 1.391 . S
C3472 C3474 1.394 . S
C3472 H3488 0.931 . S
C3473 C3472 1.391 . S
C3473 C3477 1.376 . S
C3474 C3472 1.394 . S
C3474 C3475 1.369 . S
C3474 C3478 1.531 . S
C3475 C3474 1.369 . S
C3475 C3476 1.410 . S
C3475 C3483 1.503 . S
C3476 C3475 1.410 . S
C3476 C3477 1.392 . S
C3476 C3479 1.511 . S
C3477 C3473 1.376 . S
C3477 C3476 1.392 . S
C3477 H3489 0.929 . S
C3478 C3474 1.531 . S
C3478 H3490 0.960 . S
C3478 H3491 0.962 . S
C3478 H3492 0.960 . S
C3479 C3476 1.511 . S
C3479 H3493 0.961 . S
C3479 H3494 0.961 . S
C3479 H3495 0.961 . S
C3480 C3481 1.370 . S
C3480 C3482 1.363 . S
C3480 H3496 0.931 . S
C3481 C3480 1.370 . S
C3481 C3485 1.408 . S
C3482 C3480 1.363 . S
C3482 C3483 1.370 . S
C3482 C3486 1.524 . S
C3483 C3475 1.503 . S
C3483 C3482 1.370 . S
C3483 C3484 1.403 . S
C3484 C3483 1.403 . S
C3484 C3485 1.404 . S
C3484 C3487 1.539 . S
C3485 C3481 1.408 . S
C3485 C3484 1.404 . S
C3485 H3497 0.930 . S
C3486 C3482 1.524 . S
C3486 H3498 0.956 . S
C3486 H3499 0.961 . S
C3486 H3500 0.961 . S
C3487 C3484 1.539 . S
C3487 H3501 0.958 . S
C3487 H3502 0.961 . S
C3487 H3503 0.960 . S
H3488 C3472 0.931 . S
H3489 C3477 0.929 . S
H3490 C3478 0.960 . S
H3491 C3478 0.962 . S
H3492 C3478 0.960 . S
H3493 C3479 0.961 . S
H3494 C3479 0.961 . S
H3495 C3479 0.961 . S
H3496 C3480 0.931 . S
H3497 C3485 0.930 . S
H3498 C3486 0.956 . S
H3499 C3486 0.961 . S
H3500 C3486 0.961 . S
H3501 C3487 0.958 . S
H3502 C3487 0.961 . S
H3503 C3487 0.960 . S
C3504 C3505 1.391 . S
C3504 C3506 1.394 . S
C3504 H3520 0.931 . S
C3505 C3504 1.391 . S
C3505 C3509 1.376 . S
C3506 C3504 1.394 . S
C3506 C3507 1.369 . S
C3506 C3510 1.531 . S
C3507 C3506 1.369 . S
C3507 C3508 1.410 . S
C3507 C3515 1.503 . S
C3508 C3507 1.410 . S
C3508 C3509 1.392 . S
C3508 C3511 1.511 . S
C3509 C3505 1.376 . S
C3509 C3508 1.392 . S
C3509 H3521 0.929 . S
C3510 C3506 1.531 . S
C3510 H3522 0.960 . S
C3510 H3523 0.962 . S
C3510 H3524 0.960 . S
C3511 C3508 1.511 . S
C3511 H3525 0.961 . S
C3511 H3526 0.973 . S
C3511 H3527 0.961 . S
C3512 C3513 1.370 . S
C3512 C3514 1.363 . S
C3512 H3528 0.931 . S
C3513 C3512 1.370 . S
C3513 C3517 1.408 . S
C3514 C3512 1.363 . S
C3514 C3515 1.370 . S
C3514 C3518 1.524 . S
C3515 C3507 1.503 . S
C3515 C3514 1.370 . S
C3515 C3516 1.403 . S
C3516 C3515 1.403 . S
C3516 C3517 1.404 . S
C3516 C3519 1.539 . S
C3517 C3513 1.408 . S
C3517 C3516 1.404 . S
C3517 H3529 0.930 . S
C3518 C3514 1.524 . S
C3518 H3530 0.956 . S
C3518 H3531 0.961 . S
C3518 H3532 0.961 . S
C3519 C3516 1.539 . S
C3519 H3533 0.958 . S
C3519 H3534 0.961 . S
C3519 H3535 0.960 . S
H3520 C3504 0.931 . S
H3521 C3509 0.929 . S
H3522 C3510 0.960 . S
H3523 C3510 0.962 . S
H3524 C3510 0.960 . S
H3525 C3511 0.961 . S
H3526 C3511 0.973 . S
H3527 C3511 0.961 . S
H3528 C3512 0.931 . S
H3529 C3517 0.930 . S
H3530 C3518 0.956 . S
H3531 C3518 0.961 . S
H3532 C3518 0.961 . S
H3533 C3519 0.958 . S
H3534 C3519 0.961 . S
H3535 C3519 0.960 . S
C3536 C3537 1.391 . S
C3536 C3538 1.394 . S
C3536 H3552 0.931 . S
C3537 C3536 1.391 . S
C3537 C3541 1.376 . S
C3538 C3536 1.394 . S
C3538 C3539 1.369 . S
C3538 C3542 1.531 . S
C3539 C3538 1.369 . S
C3539 C3540 1.410 . S
C3539 C3547 1.503 . S
C3540 C3539 1.410 . S
C3540 C3541 1.392 . S
C3540 C3543 1.511 . S
C3541 C3537 1.376 . S
C3541 C3540 1.392 . S
C3541 H3553 0.929 . S
C3542 C3538 1.531 . S
C3542 H3554 0.960 . S
C3542 H3555 0.962 . S
C3542 H3556 0.960 . S
C3543 C3540 1.511 . S
C3543 H3557 0.961 . S
C3543 H3558 0.961 . S
C3543 H3559 0.961 . S
C3544 C3545 1.370 . S
C3544 C3546 1.363 . S
C3544 H3560 0.931 . S
C3545 C3544 1.370 . S
C3545 C3549 1.408 . S
C3546 C3544 1.363 . S
C3546 C3547 1.370 . S
C3546 C3550 1.524 . S
C3547 C3539 1.503 . S
C3547 C3546 1.370 . S
C3547 C3548 1.403 . S
C3548 C3547 1.403 . S
C3548 C3549 1.404 . S
C3548 C3551 1.539 . S
C3549 C3545 1.408 . S
C3549 C3548 1.404 . S
C3549 H3561 0.930 . S
C3550 C3546 1.524 . S
C3550 H3562 0.956 . S
C3550 H3563 0.961 . S
C3550 H3564 0.961 . S
C3551 C3548 1.539 . S
C3551 H3565 0.958 . S
C3551 H3566 0.961 . S
C3551 H3567 0.960 . S
H3552 C3536 0.931 . S
H3553 C3541 0.929 . S
H3554 C3542 0.960 . S
H3555 C3542 0.962 . S
H3556 C3542 0.960 . S
H3557 C3543 0.961 . S
H3558 C3543 0.961 . S
H3559 C3543 0.961 . S
H3560 C3544 0.931 . S
H3561 C3549 0.930 . S
H3562 C3550 0.956 . S
H3563 C3550 0.961 . S
H3564 C3550 0.961 . S
H3565 C3551 0.958 . S
H3566 C3551 0.961 . S
H3567 C3551 0.960 . S
C3568 C3569 1.386 1_554 S
C3568 C3570 1.394 . S
C3568 H3584 0.931 . S
C3569 C3568 1.386 1_556 S
C3569 C3573 1.373 1_556 S
C3570 C3568 1.394 . S
C3570 C3571 1.369 . S
C3570 C3574 1.531 . S
C3571 C3570 1.369 . S
C3571 C3572 1.410 . S
C3571 C3579 1.503 . S
C3572 C3571 1.410 . S
C3572 C3573 1.392 . S
C3572 C3575 1.511 . S
C3573 C3569 1.373 1_554 S
C3573 C3572 1.392 . S
C3573 H3585 0.927 1_554 S
C3574 C3570 1.531 . S
C3574 H3586 0.960 . S
C3574 H3587 0.962 1_554 S
C3574 H3588 0.960 . S
C3575 C3572 1.511 . S
C3575 H3589 0.961 1_554 S
C3575 H3590 0.957 1_554 S
C3575 H3591 0.961 . S
C3576 C3577 1.370 1_556 S
C3576 C3578 1.363 . S
C3576 H3592 0.931 . S
C3577 C3576 1.370 1_554 S
C3577 C3581 1.408 . S
C3578 C3576 1.363 . S
C3578 C3579 1.370 1_556 S
C3578 C3582 1.524 . S
C3579 C3571 1.503 . S
C3579 C3578 1.370 1_554 S
C3579 C3580 1.403 . S
C3580 C3579 1.403 . S
C3580 C3581 1.404 . S
C3580 C3583 1.539 . S
C3581 C3577 1.408 . S
C3581 C3580 1.404 . S
C3581 H3593 0.930 . S
C3582 C3578 1.524 . S
C3582 H3594 0.956 . S
C3582 H3595 0.961 . S
C3582 H3596 0.961 . S
C3583 C3580 1.539 . S
C3583 H3597 0.958 . S
C3583 H3598 0.961 . S
C3583 H3599 0.960 . S
H3584 C3568 0.931 . S
H3585 C3573 0.927 1_556 S
H3586 C3574 0.960 . S
H3587 C3574 0.962 1_556 S
H3588 C3574 0.960 . S
H3589 C3575 0.961 1_556 S
H3590 C3575 0.957 1_556 S
H3591 C3575 0.961 . S
H3592 C3576 0.931 . S
H3593 C3581 0.930 . S
H3594 C3582 0.956 . S
H3595 C3582 0.961 . S
H3596 C3582 0.961 . S
H3597 C3583 0.958 . S
H3598 C3583 0.961 . S
H3599 C3583 0.960 . S
C3600 C3601 1.391 . S
C3600 C3602 1.394 . S
C3600 H3616 0.931 . S
C3601 C3600 1.391 . S
C3601 C3605 1.376 . S
C3602 C3600 1.394 . S
C3602 C3603 1.369 . S
C3602 C3606 1.531 . S
C3603 C3602 1.369 . S
C3603 C3604 1.410 . S
C3603 C3611 1.503 . S
C3604 C3603 1.410 . S
C3604 C3605 1.392 . S
C3604 C3607 1.511 . S
C3605 C3601 1.376 . S
C3605 C3604 1.392 . S
C3605 H3617 0.929 . S
C3606 C3602 1.531 . S
C3606 H3618 0.960 . S
C3606 H3619 0.962 . S
C3606 H3620 0.960 . S
C3607 C3604 1.511 . S
C3607 H3621 0.961 . S
C3607 H3622 0.961 . S
C3607 H3623 0.961 . S
C3608 C3609 1.370 . S
C3608 C3610 1.363 . S
C3608 H3624 0.931 . S
C3609 C3608 1.370 . S
C3609 C3613 1.408 . S
C3610 C3608 1.363 . S
C3610 C3611 1.370 . S
C3610 C3614 1.524 . S
C3611 C3603 1.503 . S
C3611 C3610 1.370 . S
C3611 C3612 1.403 . S
C3612 C3611 1.403 . S
C3612 C3613 1.404 . S
C3612 C3615 1.539 . S
C3613 C3609 1.408 . S
C3613 C3612 1.404 . S
C3613 H3625 0.930 . S
C3614 C3610 1.524 . S
C3614 H3626 0.956 . S
C3614 H3627 0.961 . S
C3614 H3628 0.961 . S
C3615 C3612 1.539 . S
C3615 H3629 0.958 . S
C3615 H3630 0.961 . S
C3615 H3631 0.960 . S
H3616 C3600 0.931 . S
H3617 C3605 0.929 . S
H3618 C3606 0.960 . S
H3619 C3606 0.962 . S
H3620 C3606 0.960 . S
H3621 C3607 0.961 . S
H3622 C3607 0.961 . S
H3623 C3607 0.961 . S
H3624 C3608 0.931 . S
H3625 C3613 0.930 . S
H3626 C3614 0.956 . S
H3627 C3614 0.961 . S
H3628 C3614 0.961 . S
H3629 C3615 0.958 . S
H3630 C3615 0.961 . S
H3631 C3615 0.960 . S
C3632 C3633 1.391 . S
C3632 C3634 1.394 . S
C3632 H3648 0.931 . S
C3633 C3632 1.391 . S
C3633 C3637 1.376 . S
C3634 C3632 1.394 . S
C3634 C3635 1.369 . S
C3634 C3638 1.531 . S
C3635 C3634 1.369 . S
C3635 C3636 1.410 . S
C3635 C3643 1.503 . S
C3636 C3635 1.410 . S
C3636 C3637 1.392 . S
C3636 C3639 1.511 1_554 S
C3637 C3633 1.376 . S
C3637 C3636 1.392 . S
C3637 H3649 0.929 . S
C3638 C3634 1.531 . S
C3638 H3650 0.960 . S
C3638 H3651 0.962 . S
C3638 H3652 0.960 . S
C3639 C3636 1.511 1_556 S
C3639 H3653 0.961 . S
C3639 H3654 0.961 . S
C3639 H3655 0.961 1_556 S
C3640 C3641 1.385 . S
C3640 C3642 1.363 . S
C3640 H3656 0.931 . S
C3641 C3640 1.385 . S
C3641 C3645 1.386 1_556 S
C3642 C3640 1.363 . S
C3642 C3643 1.370 1_556 S
C3642 C3646 1.524 . S
C3643 C3635 1.503 . S
C3643 C3642 1.370 1_554 S
C3643 C3644 1.403 . S
C3644 C3643 1.403 . S
C3644 C3645 1.404 . S
C3644 C3647 1.539 . S
C3645 C3641 1.386 1_554 S
C3645 C3644 1.404 . S
C3645 H3657 0.930 . S
C3646 C3642 1.524 . S
C3646 H3658 0.956 . S
C3646 H3659 0.961 . S
C3646 H3660 0.961 . S
C3647 C3644 1.539 . S
C3647 H3661 0.958 . S
C3647 H3662 0.961 . S
C3647 H3663 0.960 . S
H3648 C3632 0.931 . S
H3649 C3637 0.929 . S
H3650 C3638 0.960 . S
H3651 C3638 0.962 . S
H3652 C3638 0.960 . S
H3653 C3639 0.961 . S
H3654 C3639 0.961 . S
H3655 C3639 0.961 1_554 S
H3656 C3640 0.931 . S
H3657 C3645 0.930 . S
H3658 C3646 0.956 . S
H3659 C3646 0.961 . S
H3660 C3646 0.961 . S
H3661 C3647 0.958 . S
H3662 C3647 0.961 . S
H3663 C3647 0.960 . S
C3664 C3665 1.391 . S
C3664 C3666 1.394 . S
C3664 H3680 0.931 . S
C3665 C3664 1.391 . S
C3665 C3669 1.376 . S
C3666 C3664 1.394 . S
C3666 C3667 1.369 . S
C3666 C3670 1.531 . S
C3667 C3666 1.369 . S
C3667 C3668 1.410 . S
C3667 C3675 1.503 . S
C3668 C3667 1.410 . S
C3668 C3669 1.392 . S
C3668 C3671 1.511 . S
C3669 C3665 1.376 . S
C3669 C3668 1.392 . S
C3669 H3681 0.929 . S
C3670 C3666 1.531 . S
C3670 H3682 0.960 . S
C3670 H3683 0.962 . S
C3670 H3684 0.960 . S
C3671 C3668 1.511 . S
C3671 H3685 0.961 . S
C3671 H3686 0.961 . S
C3671 H3687 0.961 . S
C3672 C3673 1.370 . S
C3672 C3674 1.363 . S
C3672 H3688 0.931 . S
C3673 C3672 1.370 . S
C3673 C3677 1.408 . S
C3674 C3672 1.363 . S
C3674 C3675 1.370 . S
C3674 C3678 1.524 . S
C3675 C3667 1.503 . S
C3675 C3674 1.370 . S
C3675 C3676 1.403 . S
C3676 C3675 1.403 . S
C3676 C3677 1.404 . S
C3676 C3679 1.539 . S
C3677 C3673 1.408 . S
C3677 C3676 1.404 . S
C3677 H3689 0.930 . S
C3678 C3674 1.524 . S
C3678 H3690 0.956 . S
C3678 H3691 0.961 . S
C3678 H3692 0.961 . S
C3679 C3676 1.539 . S
C3679 H3693 0.958 . S
C3679 H3694 0.961 . S
C3679 H3695 0.960 . S
H3680 C3664 0.931 . S
H3681 C3669 0.929 . S
H3682 C3670 0.960 . S
H3683 C3670 0.962 . S
H3684 C3670 0.960 . S
H3685 C3671 0.961 . S
H3686 C3671 0.961 . S
H3687 C3671 0.961 . S
H3688 C3672 0.931 . S
H3689 C3677 0.930 . S
H3690 C3678 0.956 . S
H3691 C3678 0.961 . S
H3692 C3678 0.961 . S
H3693 C3679 0.958 . S
H3694 C3679 0.961 . S
H3695 C3679 0.960 . S
C3696 C3697 1.391 . S
C3696 C3698 1.394 . S
C3696 H3712 0.931 . S
C3697 C3696 1.391 . S
C3697 C3701 1.376 . S
C3698 C3696 1.394 . S
C3698 C3699 1.369 . S
C3698 C3702 1.531 . S
C3699 C3698 1.369 . S
C3699 C3700 1.410 . S
C3699 C3707 1.503 . S
C3700 C3699 1.410 . S
C3700 C3701 1.392 . S
C3700 C3703 1.511 . S
C3701 C3697 1.376 . S
C3701 C3700 1.392 . S
C3701 H3713 0.929 . S
C3702 C3698 1.531 . S
C3702 H3714 0.960 . S
C3702 H3715 0.962 . S
C3702 H3716 0.960 . S
C3703 C3700 1.511 . S
C3703 H3717 0.961 . S
C3703 H3718 0.961 . S
C3703 H3719 0.961 . S
C3704 C3705 1.370 . S
C3704 C3706 1.363 . S
C3704 H3720 0.931 . S
C3705 C3704 1.370 . S
C3705 C3709 1.408 . S
C3706 C3704 1.363 . S
C3706 C3707 1.370 . S
C3706 C3710 1.524 . S
C3707 C3699 1.503 . S
C3707 C3706 1.370 . S
C3707 C3708 1.403 . S
C3708 C3707 1.403 . S
C3708 C3709 1.404 . S
C3708 C3711 1.539 . S
C3709 C3705 1.408 . S
C3709 C3708 1.404 . S
C3709 H3721 0.930 . S
C3710 C3706 1.524 . S
C3710 H3722 0.956 . S
C3710 H3723 0.961 . S
C3710 H3724 0.961 . S
C3711 C3708 1.539 . S
C3711 H3725 0.958 . S
C3711 H3726 0.961 . S
C3711 H3727 0.960 . S
H3712 C3696 0.931 . S
H3713 C3701 0.929 . S
H3714 C3702 0.960 . S
H3715 C3702 0.962 . S
H3716 C3702 0.960 . S
H3717 C3703 0.961 . S
H3718 C3703 0.961 . S
H3719 C3703 0.961 . S
H3720 C3704 0.931 . S
H3721 C3709 0.930 . S
H3722 C3710 0.956 . S
H3723 C3710 0.961 . S
H3724 C3710 0.961 . S
H3725 C3711 0.958 . S
H3726 C3711 0.961 . S
H3727 C3711 0.960 . S
C657 C109 1.205 . S
C665 C352 1.210 1_556 S
C689 C65 1.306 . S
C697 C365 1.299 . S
C721 C75 1.352 . S
C729 C384 1.340 . S
C761 C415 1.927 . S
C753 C84 1.965 . S
C785 C25 1.709 . S
C793 C435 1.695 . S
C825 C452 0.829 . S
C817 C28 0.859 . S
C857 C465 1.507 . S
C849 C47 1.512 . S
C881 C9 1.052 . S
C889 C492 1.029 . S
C921 C345 1.277 . S
C913 C233 1.286 . S
C945 C249 1.435 . S
C953 C375 1.432 . S
C985 C377 1.700 . S
C977 C275 1.752 . S
C1017 C412 0.853 . S
C1009 C173 0.860 . S
C1041 C224 1.139 . S
C1049 C432 1.173 . S
C1081 C445 1.770 . S
C1073 C243 1.760 . S
C1113 C475 1.266 . S
C1105 C266 1.269 . S
C1145 C485 1.136 . S
C1137 C179 1.163 . S
C1177 C355 1.623 1_565 S
C1169 C163 1.638 . S
C1201 C289 1.781 . S
C1209 C505 1.765 . S
C1241 C535 1.570 . S
C1233 C333 1.548 . S
C1273 C552 1.142 . S
C1265 C308 1.133 . S
C1297 C123 1.920 . S
C1305 C495 1.915 . S
C1329 C126 1.242 . S
C1337 C382 1.263 . S
C1361 C327 1.875 . S
C1369 C565 1.865 . S
C1401 C592 1.032 . S
C1393 C299 1.028 . S
C1433 C342 1.212 . S
C1425 C67 1.209 . S
C1465 C577 1.311 . S
C1457 C98 1.313 . S
C1489 C89 1.353 . S
C1497 C395 1.343 . S
C1521 C79 1.992 . S
C1529 C564 1.960 . S
C1561 C424 1.715 . S
C1553 C11 1.734 . S
C1585 C51 0.869 . S
C1593 C522 0.857 . S
C1625 C457 1.523 1_556 S
C1617 C33 1.523 . S
C1657 C602 0.995 . S
C1649 C14 1.059 . S
C1689 C337 1.263 . S
C1681 C140 1.281 . S
C1721 C584 1.440 . S
C1713 C319 1.468 . S
C1745 C112 1.737 . S
C1753 C385 1.735 . S
C1777 C285 0.875 . S
C1785 C562 0.885 . S
C1809 C149 1.221 . S
C1817 C422 1.207 . S
C1849 C517 1.803 . S
C1841 C313 1.795 . S
C1873 C121 1.368 . S
C1881 C464 1.318 . S
C1905 C291 1.169 . S
C1913 C597 1.165 . S
C1937 C182 1.652 . S
C1945 C344 1.635 . S
C1969 C168 1.763 . S
C1977 C497 1.768 . S
C2001 C263 1.622 . S
C2009 C444 1.610 . S
C2033 C247 1.214 . S
C2041 C542 1.185 . S
C2073 C604 1.906 . S
C2065 C277 1.912 . S
C2097 C219 1.313 . S
C2105 C392 1.326 . S
C2137 C397 1.888 . S
C2129 C257 1.895 . S
C2169 C362 1.017 . S
C2161 C201 1.048 . S
C2193 C81 1.231 . S
C2201 C632 1.177 . S
C2233 C585 1.298 . S
C2225 C93 1.306 . S
C2257 C103 1.343 . S
C2265 C644 1.327 1_456 S
C2289 C56 1.967 . S
C2297 C575 1.930 . S
C2321 C53 1.719 . S
C2329 C515 1.703 . S
C2361 C532 0.847 . S
C2353 C0 0.881 . S
C2393 C545 1.487 1_655 S
C2385 C19 1.500 . S
C2425 C612 1.032 . S
C2417 C37 1.037 . S
C2457 C625 1.261 . S
C2449 C261 1.289 . S
C2481 C193 1.448 . S
C2489 C595 1.430 . S
C2521 C637 1.716 . S
C2513 C205 1.752 . S
C2553 C572 0.883 . S
C2545 C215 0.884 . S
C2585 C512 1.169 . S
C2577 C252 1.189 . S
C2609 C187 1.762 . S
C2617 C525 1.768 . S
C2649 C555 1.286 . S
C2641 C196 1.305 . S
C2673 C221 1.160 . S
C2681 C605 1.142 . S
C2713 C635 1.621 . S
C2705 C317 1.638 . S
C2737 C135 1.778 . S
C2745 C425 1.769 . S
C2777 C455 1.572 . S
C2769 C151 1.556 . S
C2809 C472 1.161 . S
C2801 C154 1.174 . S
C2841 C615 1.908 . S
C2833 C305 1.905 . S
C2865 C280 1.238 . S
C2873 C642 1.258 . S
C2905 C405 1.865 . S
C2897 C145 1.870 . S
C2937 C372 1.047 . S
C2929 C117 1.034 . S
C2961 C95 1.238 . S
C2969 C622 1.212 . S
C3001 C357 1.314 . S
C2993 C70 1.330 . S
C3025 C61 1.377 . S
C3033 C655 1.362 . S
C3057 C107 1.995 . S
C3065 C404 1.956 . S
C3089 C39 1.748 . S
C3097 C504 1.727 1_556 S
C3129 C442 0.856 . S
C3121 C23 0.865 . S
C3153 C5 1.536 . S
C3161 C537 1.535 . S
C3185 C42 1.036 . S
C3193 C482 1.002 . S
C3225 C617 1.261 . S
C3217 C322 1.279 . S
C3249 C165 1.447 . S
C3257 C364 1.443 . S
C3289 C645 1.736 . S
C3281 C294 1.744 . S
C3313 C131 0.868 . S
C3321 C402 0.877 . S
C3345 C331 1.218 . S
C3353 C502 1.209 . S
C3385 C437 1.802 . S
C3377 C159 1.795 . S
C3409 C303 1.368 . S
C3417 C544 1.318 . S
C3449 C477 1.163 . S
C3441 C137 1.167 . S
C3481 C624 1.621 . S
C3473 C238 1.636 . S
C3513 C417 1.769 1_565 S
C3505 C210 1.764 . S
C3537 C235 1.614 . S
C3545 C524 1.608 . S
C3577 C462 1.175 . S
C3569 C191 1.213 . S
C3601 C207 1.931 . S
C3609 C484 1.915 . S
C3633 C177 1.319 . S
C3641 C652 1.257 1_556 S
C3673 C557 1.891 . S
C3665 C229 1.897 1_565 S
C3705 C582 1.017 . S
C3697 C271 1.047 . S
