# Generated by pormake.
# Topology iac, (4,6)-cn, num edge types: 1
# Building blocks:
#     Node 0, Type 0, BuildingBlock: NAHDIM_clean_sbu_0, # of connection points: 4
#     Node 1, Type 0, BuildingBlock: NAHDIM_clean_sbu_0, # of connection points: 4
#     Node 2, Type 0, BuildingBlock: NAHDIM_clean_sbu_0, # of connection points: 4
#     Node 3, Type 0, BuildingBlock: NAHDIM_clean_sbu_0, # of connection points: 4
#     Node 4, Type 0, BuildingBlock: NAHDIM_clean_sbu_0, # of connection points: 4
#     Node 5, Type 0, BuildingBlock: NAHDIM_clean_sbu_0, # of connection points: 4
#     Node 6, Type 0, BuildingBlock: NAHDIM_clean_sbu_0, # of connection points: 4
#     Node 7, Type 0, BuildingBlock: NAHDIM_clean_sbu_0, # of connection points: 4
#     Node 8, Type 0, BuildingBlock: NAHDIM_clean_sbu_0, # of connection points: 4
#     Node 9, Type 0, BuildingBlock: NAHDIM_clean_sbu_0, # of connection points: 4
#     Node 10, Type 0, BuildingBlock: NAHDIM_clean_sbu_0, # of connection points: 4
#     Node 11, Type 0, BuildingBlock: NAHDIM_clean_sbu_0, # of connection points: 4
#     Node 12, Type 0, BuildingBlock: NAHDIM_clean_sbu_0, # of connection points: 4
#     Node 13, Type 0, BuildingBlock: NAHDIM_clean_sbu_0, # of connection points: 4
#     Node 14, Type 0, BuildingBlock: NAHDIM_clean_sbu_0, # of connection points: 4
#     Node 15, Type 0, BuildingBlock: NAHDIM_clean_sbu_0, # of connection points: 4
#     Node 16, Type 0, BuildingBlock: NAHDIM_clean_sbu_0, # of connection points: 4
#     Node 17, Type 0, BuildingBlock: NAHDIM_clean_sbu_0, # of connection points: 4
#     Node 18, Type 0, BuildingBlock: NAHDIM_clean_sbu_0, # of connection points: 4
#     Node 19, Type 0, BuildingBlock: NAHDIM_clean_sbu_0, # of connection points: 4
#     Node 20, Type 0, BuildingBlock: NAHDIM_clean_sbu_0, # of connection points: 4
#     Node 21, Type 0, BuildingBlock: NAHDIM_clean_sbu_0, # of connection points: 4
#     Node 22, Type 0, BuildingBlock: NAHDIM_clean_sbu_0, # of connection points: 4
#     Node 23, Type 0, BuildingBlock: NAHDIM_clean_sbu_0, # of connection points: 4
#     Node 24, Type 1, BuildingBlock: CIFDUS_clean_sbu_1, # of connection points: 6
#     Node 25, Type 1, BuildingBlock: CIFDUS_clean_sbu_1, # of connection points: 6
#     Node 26, Type 1, BuildingBlock: CIFDUS_clean_sbu_1, # of connection points: 6
#     Node 27, Type 1, BuildingBlock: CIFDUS_clean_sbu_1, # of connection points: 6
#     Node 28, Type 1, BuildingBlock: CIFDUS_clean_sbu_1, # of connection points: 6
#     Node 29, Type 1, BuildingBlock: CIFDUS_clean_sbu_1, # of connection points: 6
#     Node 30, Type 1, BuildingBlock: CIFDUS_clean_sbu_1, # of connection points: 6
#     Node 31, Type 1, BuildingBlock: CIFDUS_clean_sbu_1, # of connection points: 6
#     Node 32, Type 1, BuildingBlock: CIFDUS_clean_sbu_1, # of connection points: 6
#     Node 33, Type 1, BuildingBlock: CIFDUS_clean_sbu_1, # of connection points: 6
#     Node 34, Type 1, BuildingBlock: CIFDUS_clean_sbu_1, # of connection points: 6
#     Node 35, Type 1, BuildingBlock: CIFDUS_clean_sbu_1, # of connection points: 6
#     Node 36, Type 1, BuildingBlock: CIFDUS_clean_sbu_1, # of connection points: 6
#     Node 37, Type 1, BuildingBlock: CIFDUS_clean_sbu_1, # of connection points: 6
#     Node 38, Type 1, BuildingBlock: CIFDUS_clean_sbu_1, # of connection points: 6
#     Node 39, Type 1, BuildingBlock: CIFDUS_clean_sbu_1, # of connection points: 6
#     Edge 40, Type (0, 1), BuildingBlock: TEMPAE_clean_linker_10, # of connection points: 2
#     Edge 41, Type (0, 1), BuildingBlock: TEMPAE_clean_linker_10, # of connection points: 2
#     Edge 42, Type (0, 1), BuildingBlock: TEMPAE_clean_linker_10, # of connection points: 2
#     Edge 43, Type (0, 1), BuildingBlock: TEMPAE_clean_linker_10, # of connection points: 2
#     Edge 44, Type (0, 1), BuildingBlock: TEMPAE_clean_linker_10, # of connection points: 2
#     Edge 45, Type (0, 1), BuildingBlock: TEMPAE_clean_linker_10, # of connection points: 2
#     Edge 46, Type (0, 1), BuildingBlock: TEMPAE_clean_linker_10, # of connection points: 2
#     Edge 47, Type (0, 1), BuildingBlock: TEMPAE_clean_linker_10, # of connection points: 2
#     Edge 48, Type (0, 1), BuildingBlock: TEMPAE_clean_linker_10, # of connection points: 2
#     Edge 49, Type (0, 1), BuildingBlock: TEMPAE_clean_linker_10, # of connection points: 2
#     Edge 50, Type (0, 1), BuildingBlock: TEMPAE_clean_linker_10, # of connection points: 2
#     Edge 51, Type (0, 1), BuildingBlock: TEMPAE_clean_linker_10, # of connection points: 2
#     Edge 52, Type (0, 1), BuildingBlock: TEMPAE_clean_linker_10, # of connection points: 2
#     Edge 53, Type (0, 1), BuildingBlock: TEMPAE_clean_linker_10, # of connection points: 2
#     Edge 54, Type (0, 1), BuildingBlock: TEMPAE_clean_linker_10, # of connection points: 2
#     Edge 55, Type (0, 1), BuildingBlock: TEMPAE_clean_linker_10, # of connection points: 2
#     Edge 56, Type (0, 1), BuildingBlock: TEMPAE_clean_linker_10, # of connection points: 2
#     Edge 57, Type (0, 1), BuildingBlock: TEMPAE_clean_linker_10, # of connection points: 2
#     Edge 58, Type (0, 1), BuildingBlock: TEMPAE_clean_linker_10, # of connection points: 2
#     Edge 59, Type (0, 1), BuildingBlock: TEMPAE_clean_linker_10, # of connection points: 2
#     Edge 60, Type (0, 1), BuildingBlock: TEMPAE_clean_linker_10, # of connection points: 2
#     Edge 61, Type (0, 1), BuildingBlock: TEMPAE_clean_linker_10, # of connection points: 2
#     Edge 62, Type (0, 1), BuildingBlock: TEMPAE_clean_linker_10, # of connection points: 2
#     Edge 63, Type (0, 1), BuildingBlock: TEMPAE_clean_linker_10, # of connection points: 2
#     Edge 64, Type (0, 1), BuildingBlock: TEMPAE_clean_linker_10, # of connection points: 2
#     Edge 65, Type (0, 1), BuildingBlock: TEMPAE_clean_linker_10, # of connection points: 2
#     Edge 66, Type (0, 1), BuildingBlock: TEMPAE_clean_linker_10, # of connection points: 2
#     Edge 67, Type (0, 1), BuildingBlock: TEMPAE_clean_linker_10, # of connection points: 2
#     Edge 68, Type (0, 1), BuildingBlock: TEMPAE_clean_linker_10, # of connection points: 2
#     Edge 69, Type (0, 1), BuildingBlock: TEMPAE_clean_linker_10, # of connection points: 2
#     Edge 70, Type (0, 1), BuildingBlock: TEMPAE_clean_linker_10, # of connection points: 2
#     Edge 71, Type (0, 1), BuildingBlock: TEMPAE_clean_linker_10, # of connection points: 2
#     Edge 72, Type (0, 1), BuildingBlock: TEMPAE_clean_linker_10, # of connection points: 2
#     Edge 73, Type (0, 1), BuildingBlock: TEMPAE_clean_linker_10, # of connection points: 2
#     Edge 74, Type (0, 1), BuildingBlock: TEMPAE_clean_linker_10, # of connection points: 2
#     Edge 75, Type (0, 1), BuildingBlock: TEMPAE_clean_linker_10, # of connection points: 2
#     Edge 76, Type (0, 1), BuildingBlock: TEMPAE_clean_linker_10, # of connection points: 2
#     Edge 77, Type (0, 1), BuildingBlock: TEMPAE_clean_linker_10, # of connection points: 2
#     Edge 78, Type (0, 1), BuildingBlock: TEMPAE_clean_linker_10, # of connection points: 2
#     Edge 79, Type (0, 1), BuildingBlock: TEMPAE_clean_linker_10, # of connection points: 2
#     Edge 80, Type (0, 1), BuildingBlock: TEMPAE_clean_linker_10, # of connection points: 2
#     Edge 81, Type (0, 1), BuildingBlock: TEMPAE_clean_linker_10, # of connection points: 2
#     Edge 82, Type (0, 1), BuildingBlock: TEMPAE_clean_linker_10, # of connection points: 2
#     Edge 83, Type (0, 1), BuildingBlock: TEMPAE_clean_linker_10, # of connection points: 2
#     Edge 84, Type (0, 1), BuildingBlock: TEMPAE_clean_linker_10, # of connection points: 2
#     Edge 85, Type (0, 1), BuildingBlock: TEMPAE_clean_linker_10, # of connection points: 2
#     Edge 86, Type (0, 1), BuildingBlock: TEMPAE_clean_linker_10, # of connection points: 2
#     Edge 87, Type (0, 1), BuildingBlock: TEMPAE_clean_linker_10, # of connection points: 2
#     Edge 88, Type (0, 1), BuildingBlock: TEMPAE_clean_linker_10, # of connection points: 2
#     Edge 89, Type (0, 1), BuildingBlock: TEMPAE_clean_linker_10, # of connection points: 2
#     Edge 90, Type (0, 1), BuildingBlock: TEMPAE_clean_linker_10, # of connection points: 2
#     Edge 91, Type (0, 1), BuildingBlock: TEMPAE_clean_linker_10, # of connection points: 2
#     Edge 92, Type (0, 1), BuildingBlock: TEMPAE_clean_linker_10, # of connection points: 2
#     Edge 93, Type (0, 1), BuildingBlock: TEMPAE_clean_linker_10, # of connection points: 2
#     Edge 94, Type (0, 1), BuildingBlock: TEMPAE_clean_linker_10, # of connection points: 2
#     Edge 95, Type (0, 1), BuildingBlock: TEMPAE_clean_linker_10, # of connection points: 2
#     Edge 96, Type (0, 1), BuildingBlock: TEMPAE_clean_linker_10, # of connection points: 2
#     Edge 97, Type (0, 1), BuildingBlock: TEMPAE_clean_linker_10, # of connection points: 2
#     Edge 98, Type (0, 1), BuildingBlock: TEMPAE_clean_linker_10, # of connection points: 2
#     Edge 99, Type (0, 1), BuildingBlock: TEMPAE_clean_linker_10, # of connection points: 2
#     Edge 100, Type (0, 1), BuildingBlock: TEMPAE_clean_linker_10, # of connection points: 2
#     Edge 101, Type (0, 1), BuildingBlock: TEMPAE_clean_linker_10, # of connection points: 2
#     Edge 102, Type (0, 1), BuildingBlock: TEMPAE_clean_linker_10, # of connection points: 2
#     Edge 103, Type (0, 1), BuildingBlock: TEMPAE_clean_linker_10, # of connection points: 2
#     Edge 104, Type (0, 1), BuildingBlock: TEMPAE_clean_linker_10, # of connection points: 2
#     Edge 105, Type (0, 1), BuildingBlock: TEMPAE_clean_linker_10, # of connection points: 2
#     Edge 106, Type (0, 1), BuildingBlock: TEMPAE_clean_linker_10, # of connection points: 2
#     Edge 107, Type (0, 1), BuildingBlock: TEMPAE_clean_linker_10, # of connection points: 2
#     Edge 108, Type (0, 1), BuildingBlock: TEMPAE_clean_linker_10, # of connection points: 2
#     Edge 109, Type (0, 1), BuildingBlock: TEMPAE_clean_linker_10, # of connection points: 2
#     Edge 110, Type (0, 1), BuildingBlock: TEMPAE_clean_linker_10, # of connection points: 2
#     Edge 111, Type (0, 1), BuildingBlock: TEMPAE_clean_linker_10, # of connection points: 2
#     Edge 112, Type (0, 1), BuildingBlock: TEMPAE_clean_linker_10, # of connection points: 2
#     Edge 113, Type (0, 1), BuildingBlock: TEMPAE_clean_linker_10, # of connection points: 2
#     Edge 114, Type (0, 1), BuildingBlock: TEMPAE_clean_linker_10, # of connection points: 2
#     Edge 115, Type (0, 1), BuildingBlock: TEMPAE_clean_linker_10, # of connection points: 2
#     Edge 116, Type (0, 1), BuildingBlock: TEMPAE_clean_linker_10, # of connection points: 2
#     Edge 117, Type (0, 1), BuildingBlock: TEMPAE_clean_linker_10, # of connection points: 2
#     Edge 118, Type (0, 1), BuildingBlock: TEMPAE_clean_linker_10, # of connection points: 2
#     Edge 119, Type (0, 1), BuildingBlock: TEMPAE_clean_linker_10, # of connection points: 2
#     Edge 120, Type (0, 1), BuildingBlock: TEMPAE_clean_linker_10, # of connection points: 2
#     Edge 121, Type (0, 1), BuildingBlock: TEMPAE_clean_linker_10, # of connection points: 2
#     Edge 122, Type (0, 1), BuildingBlock: TEMPAE_clean_linker_10, # of connection points: 2
#     Edge 123, Type (0, 1), BuildingBlock: TEMPAE_clean_linker_10, # of connection points: 2
#     Edge 124, Type (0, 1), BuildingBlock: TEMPAE_clean_linker_10, # of connection points: 2
#     Edge 125, Type (0, 1), BuildingBlock: TEMPAE_clean_linker_10, # of connection points: 2
#     Edge 126, Type (0, 1), BuildingBlock: TEMPAE_clean_linker_10, # of connection points: 2
#     Edge 127, Type (0, 1), BuildingBlock: TEMPAE_clean_linker_10, # of connection points: 2
#     Edge 128, Type (0, 1), BuildingBlock: TEMPAE_clean_linker_10, # of connection points: 2
#     Edge 129, Type (0, 1), BuildingBlock: TEMPAE_clean_linker_10, # of connection points: 2
#     Edge 130, Type (0, 1), BuildingBlock: TEMPAE_clean_linker_10, # of connection points: 2
#     Edge 131, Type (0, 1), BuildingBlock: TEMPAE_clean_linker_10, # of connection points: 2
#     Edge 132, Type (0, 1), BuildingBlock: TEMPAE_clean_linker_10, # of connection points: 2
#     Edge 133, Type (0, 1), BuildingBlock: TEMPAE_clean_linker_10, # of connection points: 2
#     Edge 134, Type (0, 1), BuildingBlock: TEMPAE_clean_linker_10, # of connection points: 2
#     Edge 135, Type (0, 1), BuildingBlock: TEMPAE_clean_linker_10, # of connection points: 2
# Relax obj value: 0.111
# Max RMSD: 0.169
# Mean RMSD: 0.132
data_MOF--net-iac--node1-NAHDIM_clean_sbu_0--node2-CIFDUS_clean_sbu_1--edge1-TEMPAE_clean_linker_10
_symmetry_space_group_name_H-M    P1
_symmetry_Int_Tables_number       1
_symmetry_cell_setting            triclinic
loop_
_symmetry_equiv_pos_as_xyz
'x, y, z'
_cell_length_a     56.212567
_cell_length_b     54.674146
_cell_length_c     53.568659
_cell_angle_alpha  89.844216
_cell_angle_beta   90.179724
_cell_angle_gamma 90.635425
loop_
_atom_site_label
_atom_site_type_symbol
_atom_site_fract_x
_atom_site_fract_y
_atom_site_fract_z
_atom_type_partial_charge
C0 C 0.94379 0.25975 0.1363 0.0
O1 O 0.94564 0.2713 0.11486 0.0
O2 O -0.00485 0.21945 0.10345 0.0
Zn3 Zn -0.00709 0.24974 0.1256 0.0
O4 O 0.99197 0.28183 0.10629 0.0
C5 C 0.03042 0.23226 0.15969 0.0
O6 O 0.02172 0.21046 0.15444 0.0
O7 O 0.96175 0.24833 0.14482 0.0
C8 C -0.00379 0.28605 0.08338 0.0
O9 O 0.0037 0.26827 0.06906 0.0
C10 C 0.01426 0.21117 0.0941 0.0
O11 O 0.03428 0.22336 0.09744 0.0
O12 O 0.02091 0.25103 0.14987 0.0
C13 C 0.0405 0.74275 0.34687 0.0
O14 O 0.04361 0.74757 0.37069 0.0
O15 O -0.00594 0.71784 0.39045 0.0
Zn16 Zn -0.00637 0.74404 0.36422 0.0
O17 O -0.00232 0.77724 0.37902 0.0
C18 C 0.94439 0.73003 0.35614 0.0
O19 O 0.94903 0.71152 0.37096 0.0
O20 O 0.01944 0.73957 0.33873 0.0
C21 C 0.97991 0.78621 0.39017 0.0
O22 O 0.96081 0.77256 0.39356 0.0
C23 C 0.00332 0.71835 0.4121 0.0
O24 O 0.01574 0.73756 0.41933 0.0
O25 O 0.96108 0.74435 0.34916 0.0
C26 C 0.43934 0.75158 0.63886 0.0
O27 O 0.43777 0.74618 0.61502 0.0
O28 O 0.4887 0.71613 0.60966 0.0
Zn29 Zn 0.48902 0.74924 0.62775 0.0
O30 O 0.48671 0.77855 0.60454 0.0
C31 C 0.53867 0.74486 0.64356 0.0
O32 O 0.54146 0.73725 0.62059 0.0
O33 O 0.45973 0.75264 0.64917 0.0
C34 C 0.50384 0.79175 0.59665 0.0
O35 O 0.52578 0.78542 0.60183 0.0
C36 C 0.50159 0.71098 0.59089 0.0
O37 O 0.51478 0.72813 0.58048 0.0
O38 O 0.51811 0.75131 0.65073 0.0
C39 C 0.54076 0.25412 0.84556 0.0
O40 O 0.54293 0.26521 0.86718 0.0
O41 O 0.49613 0.21925 0.88981 0.0
Zn42 Zn 0.49523 0.24711 0.8656 0.0
O43 O 0.4989 0.27949 0.88215 0.0
C44 C 0.44524 0.24081 0.8629 0.0
O45 O 0.44865 0.23109 0.88505 0.0
O46 O 0.52103 0.24392 0.84002 0.0
C47 C 0.48583 0.28601 0.90012 0.0
O48 O 0.47047 0.27036 0.90967 0.0
C49 C 0.50651 0.21832 0.91087 0.0
O50 O 0.51945 0.237 0.91855 0.0
O51 O 0.46307 0.24768 0.85003 0.0
C52 C 0.14283 0.94451 0.256 0.0
O53 O 0.1197 0.94281 0.25275 0.0
O54 O 0.10988 0.99175 0.22194 0.0
Zn55 Zn 0.13056 0.99421 0.25279 0.0
O56 O 0.11023 0.99053 0.28325 0.0
C57 C 0.14307 0.04354 0.23598 0.0
O58 O 0.12605 0.03914 0.21972 0.0
O59 O 0.15281 0.96552 0.2554 0.0
C60 C 0.11987 0.99011 0.30471 0.0
O61 O 0.14276 -0.00531 0.30697 0.0
C62 C 0.08739 0.99415 0.22245 0.0
O63 O 0.0766 -0.00329 0.24398 0.0
O64 O 0.14824 0.02712 0.25204 0.0
C65 C 0.20247 0.9006 0.51643 0.0
O66 O 0.20143 0.87971 0.52858 0.0
O67 O 0.24955 0.85757 0.52718 0.0
Zn68 Zn 0.24731 0.88232 0.49993 0.0
O69 O 0.24327 0.86642 0.46708 0.0
C70 C 0.29237 0.90098 0.5168 0.0
O71 O 0.28516 0.89433 0.53913 0.0
O72 O 0.22094 0.90595 0.50396 0.0
C73 C 0.26184 0.85826 0.4568 0.0
O74 O 0.28201 0.85842 0.46925 0.0
C75 C 0.23984 0.83651 0.52762 0.0
O76 O 0.2255 0.82972 0.50946 0.0
O77 O 0.27839 0.89936 0.49828 0.0
C78 C 0.35379 0.04719 0.74186 0.0
O79 O 0.37665 0.04886 0.737 0.0
O80 O 0.38846 0.00313 0.71472 0.0
Zn81 Zn 0.36682 -0.00165 0.74338 0.0
O82 O 0.38554 -0.00337 0.77527 0.0
C83 C 0.35482 0.95052 0.7231 0.0
O84 O 0.37059 0.9554 0.70571 0.0
O85 O 0.34449 0.02626 0.74549 0.0
C86 C 0.38029 0.97985 0.79078 0.0
O87 O 0.3631 0.96436 0.78549 0.0
C88 C 0.41052 -0.00147 0.71556 0.0
O89 O 0.42016 0.99098 0.73653 0.0
O90 O 0.34936 0.96683 0.73884 0.0
C91 C 0.29949 0.09737 0.9924 0.0
O92 O 0.30109 0.1209 -0.00281 0.0
O93 O 0.25547 0.12856 0.02612 0.0
Zn94 Zn 0.25353 0.11367 0.9917 0.0
O95 O 0.26261 0.13791 0.96504 0.0
C96 C 0.20678 0.09391 0.00333 0.0
O97 O 0.21632 0.09176 0.02564 0.0
O98 O 0.2789 0.08783 0.98938 0.0
C99 C 0.24857 0.15379 0.95632 0.0
O100 O 0.22714 0.15557 0.96581 0.0
C101 C 0.24089 0.14447 0.03372 0.0
O102 O 0.22424 0.1523 0.01852 0.0
O103 O 0.21964 0.10171 0.98542 0.0
C104 C 0.70146 0.40228 0.01428 0.0
O105 O 0.69856 0.38001 0.0231 0.0
O106 O 0.74686 0.3578 0.02757 0.0
Zn107 Zn 0.74799 0.38465 0.00201 0.0
O108 O 0.74746 0.37158 0.96729 0.0
C109 C 0.79715 0.38887 0.01244 0.0
O110 O 0.79409 0.36585 0.01876 0.0
O111 O 0.72144 0.40853 0.00518 0.0
C112 C 0.7611 0.35424 0.96129 0.0
O113 O 0.77424 0.3438 0.97848 0.0
C114 C 0.73934 0.3359 0.02547 0.0
O115 O 0.7283 0.32886 0.00502 0.0
O116 O 0.77939 0.40156 0.00583 0.0
C117 C 0.83575 0.54084 0.22695 0.0
O118 O 0.8452 0.53512 0.20537 0.0
O119 O 0.88999 0.50707 0.21848 0.0
Zn120 Zn 0.86988 0.50759 0.24891 0.0
O121 O 0.88771 0.5151 0.27959 0.0
C122 C 0.84421 0.46383 0.23786 0.0
O123 O 0.83903 0.47529 0.21697 0.0
O124 O 0.84351 0.53105 0.24677 0.0
C125 C 0.9021 0.49897 0.28692 0.0
O126 O 0.90643 0.48007 0.27264 0.0
C127 C 0.9115 0.51421 0.21699 0.0
O128 O 0.92198 0.52417 0.23648 0.0
O129 O 0.85686 0.47448 0.25417 0.0
C130 C 0.79942 0.59678 0.49584 0.0
O131 O 0.80061 0.61844 0.50635 0.0
O132 O 0.75535 0.62602 0.52937 0.0
Zn133 Zn 0.75242 0.6123 0.49428 0.0
O134 O 0.75759 0.63866 0.46831 0.0
C135 C 0.70094 0.60793 0.49717 0.0
O136 O 0.70348 0.62924 0.50812 0.0
O137 O 0.77926 0.58851 0.48879 0.0
C138 C 0.74594 0.63713 0.44801 0.0
O139 O 0.73014 0.61946 0.44528 0.0
C140 C 0.74936 0.64781 0.53432 0.0
O141 O 0.74159 0.66194 0.51624 0.0
O142 O 0.71943 0.59668 0.48993 0.0
C143 C 0.64435 0.44617 0.76293 0.0
O144 O 0.6212 0.44631 0.76617 0.0
O145 O 0.61189 0.49012 0.72021 0.0
Zn146 Zn 0.63243 0.49431 0.75125 0.0
O147 O 0.61318 0.49188 0.7827 0.0
C148 C 0.64652 0.54257 0.73228 0.0
O149 O 0.63248 0.53655 0.71361 0.0
O150 O 0.6546 0.46551 0.75476 0.0
C151 C 0.59947 0.50719 0.79271 0.0
O152 O 0.59623 0.52868 0.78229 0.0
C153 C 0.59058 0.49766 0.7189 0.0
O154 O 0.58087 0.50739 0.7387 0.0
O155 O 0.64967 0.5273 0.75 0.0
C156 C 0.0491 0.74381 0.85733 0.0
O157 O 0.05082 0.7421 0.88168 0.0
O158 O -0.00257 0.71796 0.88958 0.0
Zn159 Zn -0.00076 0.74952 0.86918 0.0
O160 O 0.00043 0.78049 0.8905 0.0
C161 C 0.95051 0.74301 0.85346 0.0
O162 O 0.94914 0.73239 0.87545 0.0
O163 O 0.02883 0.74775 0.84757 0.0
C164 C 0.98157 0.79115 0.89764 0.0
O165 O 0.96082 0.78111 0.89253 0.0
C166 C 0.00914 0.71326 0.90938 0.0
O167 O 0.02241 0.73037 0.91971 0.0
O168 O 0.97049 0.75147 0.84621 0.0
C169 C 0.95166 0.24435 0.64869 0.0
O170 O 0.94954 0.23872 0.62493 0.0
O171 O -0.00508 0.21476 0.61657 0.0
Zn172 Zn -0.00259 0.24832 0.63125 0.0
O173 O 0.99223 0.27604 0.60704 0.0
C174 C 0.04741 0.2434 0.63466 0.0
O175 O 0.04392 0.2324 0.61323 0.0
O176 O 0.9721 0.24999 0.65717 0.0
C177 C 0.00699 0.28382 0.59083 0.0
O178 O 0.0272 0.2725 0.58765 0.0
C179 C 0.00011 0.2095 0.59426 0.0
O180 O 0.00608 0.22693 0.57851 0.0
O181 O 0.02976 0.25186 0.64649 0.0
C182 C 0.54992 0.23767 0.35451 0.0
O183 O 0.54751 0.22651 0.3761 0.0
O184 O 0.50121 0.2172 0.38331 0.0
Zn185 Zn 0.50111 0.24954 0.36456 0.0
O186 O 0.49972 0.2802 0.38681 0.0
C187 C 0.45299 0.24212 0.34863 0.0
O188 O 0.4516 0.23446 0.37186 0.0
O189 O 0.53248 0.24971 0.34565 0.0
C190 C 0.48112 0.29315 0.38942 0.0
O191 O 0.46124 0.28613 0.3786 0.0
C192 C 0.4984 0.21256 0.40636 0.0
O193 O 0.49277 0.23024 0.42173 0.0
O194 O 0.47306 0.24938 0.34034 0.0
C195 C 0.45557 0.73346 0.15907 0.0
O196 O 0.45554 0.71958 0.13914 0.0
O197 O 0.49785 0.72007 0.11608 0.0
Zn198 Zn 0.49777 0.75133 0.13503 0.0
O199 O 0.49224 0.78056 0.11303 0.0
C200 C 0.54755 0.74522 0.13566 0.0
O201 O 0.54242 0.73532 0.11399 0.0
O202 O 0.47239 0.74901 0.16201 0.0
C203 C 0.50219 0.78373 0.09196 0.0
O204 O 0.51577 0.76653 0.08291 0.0
C205 C 0.4882 0.71465 0.09541 0.0
O206 O 0.47497 0.73077 0.08378 0.0
O207 O 0.53099 0.75419 0.14889 0.0
C208 C 0.84847 0.04676 0.72864 0.0
O209 O 0.86857 0.04666 0.71625 0.0
O210 O 0.8855 0.00214 0.71183 0.0
Zn211 Zn 0.86668 0.00055 0.74378 0.0
O212 O 0.88711 0.00618 0.77404 0.0
C213 C 0.84392 0.95323 0.732 0.0
O214 O 0.84449 0.96096 0.70876 0.0
O215 O 0.84296 0.02829 0.74211 0.0
C216 C 0.90768 -0.00272 0.77722 0.0
O217 O 0.9176 0.98497 0.75908 0.0
C218 C 0.898 0.98608 0.70123 0.0
O219 O 0.90043 0.96449 0.71173 0.0
O220 O 0.85151 0.96722 0.74922 0.0
C221 C 0.78637 0.08142 0.51414 0.0
O222 O 0.78083 0.09185 0.53536 0.0
O223 O 0.74766 0.12791 0.52754 0.0
Zn224 Zn 0.74862 0.11135 0.49481 0.0
O225 O 0.75159 0.13497 0.46618 0.0
C226 C 0.6995 0.10823 0.49766 0.0
O227 O 0.70295 0.1317 0.50146 0.0
O228 O 0.77487 0.08677 0.49443 0.0
C229 C 0.74505 0.15717 0.46656 0.0
O230 O 0.73662 0.16646 0.48726 0.0
C231 C 0.76041 0.14523 0.53594 0.0
O232 O 0.77724 0.15497 0.52201 0.0
O233 O 0.71718 0.09474 0.49293 0.0
C234 C 0.6378 0.95561 0.24801 0.0
O235 O 0.61603 0.95332 0.23925 0.0
O236 O 0.61162 -0.00055 0.21415 0.0
Zn237 Zn 0.62329 0.00358 0.24852 0.0
O238 O 0.59663 0.00482 0.27291 0.0
C239 C 0.63067 0.0527 0.23786 0.0
O240 O 0.60861 0.05018 0.23004 0.0
O241 O 0.64518 0.97643 0.25515 0.0
C242 C 0.59707 0.02055 0.29029 0.0
O243 O 0.61548 0.03541 0.2924 0.0
C244 C 0.58992 -0.00046 0.20792 0.0
O245 O 0.57347 0.00114 0.2252 0.0
O246 O 0.64104 0.03465 0.24787 0.0
C247 C 0.69384 0.90953 0.0303 0.0
O248 O 0.69927 0.89723 0.05059 0.0
O249 O 0.73783 0.86416 0.03816 0.0
Zn250 Zn 0.73715 0.88761 0.00895 0.0
O251 O 0.7337 0.87044 0.97548 0.0
C252 C 0.7876 0.89422 0.01055 0.0
O253 O 0.7858 0.87028 0.01161 0.0
O254 O 0.70796 0.90913 0.01173 0.0
C255 C 0.74333 0.85045 0.96925 0.0
O256 O 0.75632 0.83862 0.98563 0.0
C257 C 0.72293 0.84697 0.04227 0.0
O258 O 0.70588 0.84272 0.02597 0.0
O259 O 0.76861 0.90673 0.00941 0.0
C260 C 0.29218 0.58955 -0.00137 0.0
O261 O 0.29499 0.61263 0.00493 0.0
O262 O 0.25209 0.62045 0.03135 0.0
Zn263 Zn 0.24706 0.60782 -0.00316 0.0
O264 O 0.25157 0.63444 0.97094 0.0
C265 C 0.19779 0.60574 0.00761 0.0
O266 O 0.20391 0.62502 0.0207 0.0
O267 O 0.27153 0.58193 0.99257 0.0
C268 C 0.23506 0.64898 0.96463 0.0
O269 O 0.21413 0.64691 0.97525 0.0
C270 C 0.24981 0.64284 0.03654 0.0
O271 O 0.24497 0.6586 0.01878 0.0
O272 O 0.21358 0.59445 -0.00469 0.0
C273 C 0.13976 0.45453 0.75618 0.0
O274 O 0.11801 0.45144 0.7476 0.0
O275 O 0.11465 0.49413 0.71498 0.0
Zn276 Zn 0.1254 0.50191 0.7492 0.0
O277 O 0.09788 0.50418 0.77254 0.0
C278 C 0.13231 0.54958 0.73268 0.0
O279 O 0.11106 0.54507 0.72339 0.0
O280 O 0.14755 0.47606 0.75983 0.0
C281 C 0.09499 0.52252 0.78664 0.0
O282 O 0.1105 0.54065 0.78606 0.0
C283 C 0.09322 0.48967 0.70908 0.0
O284 O 0.07699 0.48819 0.72663 0.0
O285 O 0.14237 0.53347 0.74601 0.0
C286 C 0.19281 0.40522 0.52725 0.0
O287 O 0.1992 0.39583 0.54881 0.0
O288 O 0.23724 0.36036 0.53816 0.0
Zn289 Zn 0.23688 0.38311 0.50848 0.0
O290 O 0.23674 0.3636 0.47656 0.0
C291 C 0.28669 0.39141 0.50858 0.0
O292 O 0.28533 0.36753 0.50609 0.0
O293 O 0.20659 0.40319 0.50855 0.0
C294 C 0.2416 0.3741 0.45593 0.0
O295 O 0.24715 0.39751 0.45594 0.0
C296 C 0.22092 0.3451 0.54394 0.0
O297 O 0.20202 0.343 0.52957 0.0
O298 O 0.26743 0.40341 0.50994 0.0
C299 C 0.3536 0.54913 0.23356 0.0
O300 O 0.37564 0.54767 0.22579 0.0
O301 O 0.37793 0.49557 0.20932 0.0
Zn302 Zn 0.3628 0.49859 0.24349 0.0
O303 O 0.38633 0.50188 0.27227 0.0
C304 C 0.35289 0.44835 0.2565 0.0
O305 O 0.37618 0.44856 0.25788 0.0
O306 O 0.34349 0.52999 0.24244 0.0
C307 C 0.40663 0.49218 0.27534 0.0
O308 O 0.41554 0.47841 0.2577 0.0
C309 C 0.39876 0.50283 0.20362 0.0
O310 O 0.41277 0.51244 0.22069 0.0
O311 O 0.34233 0.46798 0.25017 0.0
O312 O 0.02865 0.01904 0.99306 0.0
Mn313 Mn -0.0033 -0.00027 0.00061 0.0
O314 O 0.0576 0.99121 0.99121 0.0
Mn315 Mn 0.04021 0.96699 0.00685 0.0
O316 O 0.96468 0.98042 0.00757 0.0
O317 O 0.98184 0.03279 0.00726 0.0
Mn318 Mn 0.9528 0.03226 0.99469 0.0
O319 O 0.98715 0.00181 0.96292 0.0
O320 O 0.93556 0.00799 0.01059 0.0
O321 O 0.00593 -0.00273 0.03865 0.0
O322 O 0.03596 0.97041 0.04077 0.0
O323 O 0.9566 0.06293 0.00767 0.0
O324 O 0.95637 0.02787 0.96068 0.0
C325 C 0.01617 0.94447 0.98683 0.0
C326 C 0.0503 0.013 0.9886 0.0
C327 C 0.94295 0.98615 0.01194 0.0
C328 C 0.97785 0.05549 0.01285 0.0
C329 C 0.97138 0.01371 0.95058 0.0
C330 C 0.02098 0.98443 0.05111 0.0
O331 O 0.01157 0.96676 0.99347 0.0
O332 O 0.0371 0.93673 0.99292 0.0
O333 O 0.28205 0.75026 0.24123 0.0
Mn334 Mn 0.24558 0.74721 0.2472 0.0
O335 O 0.28402 0.7671 0.20332 0.0
Mn336 Mn 0.25289 0.77741 0.20102 0.0
O337 O 0.2088 0.74368 0.25358 0.0
O338 O 0.25224 0.71495 0.26357 0.0
Mn339 Mn 0.2341 0.71051 0.28976 0.0
O340 O 0.24954 0.76497 0.28106 0.0
O341 O 0.20346 0.71019 0.2774 0.0
O342 O 0.24117 0.72826 0.21337 0.0
O343 O 0.23306 0.7565 0.18447 0.0
O344 O 0.25341 0.68348 0.28824 0.0
O345 O 0.24163 0.73645 0.31051 0.0
C346 C 0.24295 0.80344 0.22801 0.0
C347 C 0.2939 0.75733 0.22214 0.0
C348 C 0.1953 0.72749 0.26404 0.0
C349 C 0.26204 0.69433 0.26873 0.0
C350 C 0.24738 0.75819 0.30393 0.0
C351 C 0.23416 0.7343 0.19135 0.0
O352 O 0.23868 0.78005 0.23037 0.0
O353 O 0.25046 0.80986 0.20607 0.0
O354 O 0.46418 0.98223 0.49145 0.0
Mn355 Mn 0.49617 0.00067 0.49662 0.0
O356 O 0.43545 0.01046 0.49486 0.0
Mn357 Mn 0.45466 0.03607 0.50544 0.0
O358 O 0.52779 0.01963 0.50179 0.0
O359 O 0.51129 0.96836 0.50478 0.0
Mn360 Mn 0.5393 0.96683 0.49034 0.0
O361 O 0.50385 -0.00325 0.45899 0.0
O362 O 0.55736 0.99231 0.50318 0.0
O363 O 0.48894 0.00432 0.53432 0.0
O364 O 0.46359 0.03549 0.53871 0.0
O365 O 0.5355 0.93762 0.507 0.0
O366 O 0.53307 0.96905 0.45651 0.0
C367 C 0.47683 0.05422 0.47888 0.0
C368 C 0.44234 0.98871 0.4906 0.0
C369 C 0.54955 0.01397 0.50521 0.0
C370 C 0.51514 0.94656 0.51316 0.0
C371 C 0.51818 0.98351 0.44638 0.0
C372 C 0.47734 0.01936 0.54779 0.0
O373 O 0.48116 0.03301 0.48845 0.0
O374 O 0.45741 0.06412 0.48663 0.0
O375 O 0.27409 0.25782 0.77683 0.0
Mn376 Mn 0.24556 0.25196 0.75282 0.0
O377 O 0.304 0.27341 0.75412 0.0
Mn378 Mn 0.29438 0.25625 0.72607 0.0
O379 O 0.21703 0.24612 0.72906 0.0
O380 O 0.22724 0.23927 0.7816 0.0
Mn381 Mn 0.198 0.24955 0.78304 0.0
O382 O 0.23378 0.28702 0.75973 0.0
O383 O 0.18481 0.23891 0.75318 0.0
O384 O 0.25748 0.2171 0.74666 0.0
O385 O 0.29423 0.22225 0.73023 0.0
O386 O 0.20244 0.22851 0.81006 0.0
O387 O 0.20243 0.28316 0.78586 0.0
C388 C 0.2678 0.27085 0.70106 0.0
C389 C 0.29448 0.26835 0.77507 0.0
C390 C 0.19511 0.24019 0.73202 0.0
C391 C 0.22381 0.22677 0.80148 0.0
C392 C 0.21775 0.29608 0.77391 0.0
C393 C 0.27727 0.20885 0.73874 0.0
O394 O 0.26422 0.26383 0.72361 0.0
O395 O 0.28987 0.26972 0.6945 0.0
O396 O 0.99157 0.96451 0.47579 0.0
Mn397 Mn -0.00334 -0.00164 0.49291 0.0
O398 O -0.0009 0.93646 0.50578 0.0
Mn399 Mn 0.00774 0.95745 0.53134 0.0
O400 O 0.00205 0.03154 0.51164 0.0
O401 O 0.00252 0.01284 0.4584 0.0
Mn402 Mn 0.99007 0.04221 0.45933 0.0
O403 O 0.9603 0.00588 0.49041 0.0
O404 O 0.00618 0.06047 0.48252 0.0
O405 O 0.03304 0.99109 0.49525 0.0
O406 O 0.0388 0.9685 0.52985 0.0
O407 O 0.00148 0.04003 0.428 0.0
O408 O 0.95801 0.0385 0.46493 0.0
C409 C 0.98176 0.98012 0.54832 0.0
C410 C -0.0062 0.94228 0.48333 0.0
C411 C 0.00655 0.05365 0.50513 0.0
C412 C 0.00785 0.01846 0.43542 0.0
C413 C 0.94834 0.02251 0.47904 0.0
C414 C 0.04662 0.98084 0.51141 0.0
O415 O 0.99055 0.98351 0.52643 0.0
O416 O 0.98975 0.96106 0.55984 0.0
O417 O 0.27184 0.77794 0.75675 0.0
Mn418 Mn 0.24786 0.74927 0.74947 0.0
O419 O 0.24969 0.80597 0.77348 0.0
Mn420 Mn 0.22716 0.79786 0.75021 0.0
O421 O 0.22499 0.72012 0.74042 0.0
O422 O 0.27756 0.73013 0.74218 0.0
Mn423 Mn 0.27184 0.69935 0.74993 0.0
O424 O 0.24925 0.73743 0.78617 0.0
O425 O 0.24835 0.68963 0.72819 0.0
O426 O 0.24653 0.76078 0.71265 0.0
O427 O 0.23512 0.79963 0.71668 0.0
O428 O 0.30296 0.70047 0.74 0.0
O429 O 0.26372 0.69917 0.78354 0.0
C430 C 0.19757 0.78014 0.76356 0.0
C431 C 0.26994 0.79863 0.7674 0.0
C432 C 0.22817 0.69968 0.72927 0.0
C433 C 0.29902 0.72357 0.73688 0.0
C434 C 0.25484 0.71681 0.79591 0.0
C435 C 0.24202 0.78183 0.70334 0.0
O436 O 0.21704 0.76813 0.75812 0.0
O437 O 0.19713 0.80338 0.75863 0.0
O438 O 0.47349 0.99137 0.96601 0.0
Mn439 Mn 0.49659 -0.00088 -0.00453 0.0
O440 O 0.49725 0.98407 0.9328 0.0
Mn441 Mn 0.5247 -0.00126 0.94492 0.0
O442 O 0.52113 0.00674 0.02378 0.0
O443 O 0.46888 0.01042 0.01705 0.0
Mn444 Mn 0.47842 0.00019 0.04728 0.0
O445 O 0.49291 0.96349 0.00707 0.0
O446 O 0.50119 0.02313 0.05509 0.0
O447 O 0.5009 0.03475 0.98266 0.0
O448 O 0.52369 0.03266 0.9481 0.0
O449 O 0.44629 0.00131 0.04888 0.0
O450 O 0.48951 0.96807 0.04818 0.0
C451 C 0.54464 0.97894 0.97305 0.0
C452 C 0.47697 0.98403 0.94352 0.0
C453 C 0.52067 0.01925 0.04396 0.0
C454 C 0.44746 0.00584 0.02516 0.0
C455 C 0.49283 0.95483 0.0291 0.0
C456 C 0.51237 0.04483 0.96455 0.0
O457 O 0.52423 0.98861 0.97573 0.0
O458 O 0.55283 0.98147 0.95071 0.0
O459 O 0.27997 0.24575 0.25913 0.0
Mn460 Mn 0.24357 0.24861 0.25025 0.0
O461 O 0.28346 0.21524 0.28709 0.0
Mn462 Mn 0.252 0.21611 0.29688 0.0
O463 O 0.20714 0.25117 0.2408 0.0
O464 O 0.25173 0.27985 0.23186 0.0
Mn465 Mn 0.23744 0.27949 0.20264 0.0
O466 O 0.24858 0.22736 0.21817 0.0
O467 O 0.20517 0.27734 0.20835 0.0
O468 O 0.23875 0.26946 0.28256 0.0
O469 O 0.24441 0.24369 0.31506 0.0
O470 O 0.25403 0.30846 0.20349 0.0
O471 O 0.24977 0.25335 0.18554 0.0
C472 C 0.22606 0.19698 0.27479 0.0
C473 C 0.29261 0.2311 0.27242 0.0
C474 C 0.19532 0.26279 0.22393 0.0
C475 C 0.26097 0.30066 0.22515 0.0
C476 C 0.25165 0.23204 0.19487 0.0
C477 C 0.24022 0.26487 0.3061 0.0
O478 O 0.23564 0.21774 0.26892 0.0
O479 O 0.23294 0.18838 0.29612 0.0
O480 O 0.49651 0.46709 0.97986 0.0
Mn481 Mn 0.49868 0.50093 -0.00288 0.0
O482 O 0.50985 0.44046 0.00902 0.0
Mn483 Mn 0.51453 0.46184 0.03548 0.0
O484 O 0.50146 0.53439 0.01522 0.0
O485 O 0.50353 0.51687 0.96389 0.0
Mn486 Mn 0.48651 0.54337 0.96084 0.0
O487 O 0.46173 0.50486 0.99422 0.0
O488 O 0.49735 0.56376 0.98597 0.0
O489 O 0.53561 0.497 -0.00074 0.0
O490 O 0.54359 0.47787 0.03531 0.0
O491 O 0.50357 0.54097 0.93168 0.0
O492 O 0.4555 0.53232 0.96346 0.0
C493 C 0.48438 0.47949 0.05139 0.0
C494 C 0.50247 0.44553 0.987 0.0
C495 C 0.50187 0.55681 0.00818 0.0
C496 C 0.51221 0.52167 0.94223 0.0
C497 C 0.44791 0.51685 0.97952 0.0
C498 C 0.55028 0.48961 0.016 0.0
O499 O 0.49376 0.48493 0.03024 0.0
O500 O 0.49476 0.46181 0.06304 0.0
O501 O 0.76401 0.28658 0.2556 0.0
Mn502 Mn 0.74581 0.25428 0.24777 0.0
O503 O 0.73668 0.31646 0.25648 0.0
Mn504 Mn 0.71239 0.29895 0.24129 0.0
O505 O 0.72739 0.22249 0.24002 0.0
O506 O 0.77729 0.23803 0.24125 0.0
Mn507 Mn 0.77776 0.2096 0.25696 0.0
O508 O 0.74681 0.24496 0.28541 0.0
O509 O 0.75309 0.19132 0.24315 0.0
O510 O 0.74388 0.264 0.21008 0.0
O511 O 0.71612 0.29342 0.20749 0.0
O512 O 0.80646 0.21203 0.24088 0.0
O513 O 0.77501 0.21654 0.29063 0.0
C514 C 0.69373 0.27238 0.26356 0.0
C515 C 0.75779 0.30873 0.25971 0.0
C516 C 0.73268 0.19993 0.23799 0.0
C517 C 0.79827 0.23275 0.23315 0.0
C518 C 0.75962 0.23118 0.29924 0.0
C519 C 0.73094 0.2789 0.19743 0.0
O520 O 0.71462 0.26981 0.25441 0.0
O521 O 0.68399 0.29296 0.25786 0.0
O522 O 0.97211 0.49186 0.47013 0.0
Mn523 Mn -0.00412 0.49993 0.49851 0.0
O524 O -0.00614 0.48445 0.43573 0.0
Mn525 Mn 0.02154 0.49967 0.44686 0.0
O526 O 0.01991 0.50788 0.5268 0.0
O527 O 0.96822 0.50892 0.51964 0.0
Mn528 Mn 0.97304 0.5011 0.55107 0.0
O529 O -0.00667 0.46454 0.51147 0.0
O530 O -0.00108 0.52044 0.55972 0.0
O531 O -0.00117 0.5356 0.48539 0.0
O532 O 0.01987 0.53361 0.4496 0.0
O533 O 0.94209 0.51238 0.54869 0.0
O534 O 0.97896 0.46751 0.55071 0.0
C535 C 0.04343 0.48023 0.47352 0.0
C536 C 0.97416 0.48469 0.44752 0.0
C537 C 0.0186 0.51763 0.54844 0.0
C538 C 0.94675 0.51451 0.52515 0.0
C539 C 0.98715 0.45521 0.53243 0.0
C540 C 0.00901 0.54571 0.46647 0.0
O541 O 0.02336 0.49012 0.47793 0.0
O542 O 0.05008 0.48272 0.4506 0.0
O543 O 0.77621 0.76011 0.2731 0.0
Mn544 Mn 0.74558 0.75239 0.25161 0.0
O545 O 0.8023 0.77588 0.24634 0.0
Mn546 Mn 0.79234 0.75255 0.22419 0.0
O547 O 0.71487 0.74417 0.23097 0.0
O548 O 0.72943 0.74389 0.28374 0.0
Mn549 Mn 0.70017 0.75441 0.28452 0.0
O550 O 0.73499 0.78832 0.2549 0.0
O551 O 0.68541 0.73791 0.25874 0.0
O552 O 0.75576 0.71658 0.24849 0.0
O553 O 0.7937 0.72072 0.23657 0.0
O554 O 0.70589 0.74075 0.31547 0.0
O555 O 0.70323 0.78794 0.2806 0.0
C556 C 0.76626 0.75789 0.19583 0.0
C557 C 0.79615 0.77097 0.26858 0.0
C558 C 0.69355 0.73732 0.23657 0.0
C559 C 0.727 0.73733 0.30669 0.0
C560 C 0.71865 0.79911 0.2672 0.0
C561 C 0.77629 0.70777 0.24437 0.0
O562 O 0.76257 0.76187 0.2194 0.0
O563 O 0.78833 0.75396 0.19048 0.0
O564 O 0.78232 0.25114 0.73998 0.0
Mn565 Mn 0.74651 0.24692 0.74911 0.0
O566 O 0.78449 0.27751 0.70786 0.0
Mn567 Mn 0.75219 0.27742 0.70154 0.0
O568 O 0.71075 0.24206 0.7588 0.0
O569 O 0.75552 0.2166 0.76774 0.0
Mn570 Mn 0.7419 0.21506 0.79708 0.0
O571 O 0.75199 0.26823 0.78061 0.0
O572 O 0.70979 0.21408 0.78977 0.0
O573 O 0.74091 0.22531 0.71763 0.0
O574 O 0.73995 0.25085 0.68468 0.0
O575 O 0.76043 0.18744 0.79467 0.0
O576 O 0.75172 0.24285 0.81389 0.0
C577 C 0.72909 0.29879 0.72325 0.0
C578 C 0.79425 0.26416 0.72439 0.0
C579 C 0.69939 0.22798 0.77408 0.0
C580 C 0.76536 0.196 0.77274 0.0
C581 C 0.75386 0.26402 0.80407 0.0
C582 C 0.7374 0.22975 0.6944 0.0
O583 O 0.73762 0.27799 0.73063 0.0
O584 O 0.73583 0.30591 0.70126 0.0
O585 O 0.77928 0.74895 0.76019 0.0
Mn586 Mn 0.74297 0.74991 0.75139 0.0
O587 O 0.78414 0.71904 0.78873 0.0
Mn588 Mn 0.75212 0.71483 0.79603 0.0
O589 O 0.70657 0.75116 0.74245 0.0
O590 O 0.74885 0.78252 0.73549 0.0
Mn591 Mn 0.73445 0.78474 0.70647 0.0
O592 O 0.74941 0.73194 0.71767 0.0
O593 O 0.70247 0.78102 0.71367 0.0
O594 O 0.73647 0.76773 0.78531 0.0
O595 O 0.73886 0.73904 0.81554 0.0
O596 O 0.75007 0.81428 0.71128 0.0
O597 O 0.74752 0.76027 0.6871 0.0
C598 C 0.72985 0.69505 0.77037 0.0
C599 C 0.79245 0.73546 0.7741 0.0
C600 C 0.69372 0.76489 0.72836 0.0
C601 C 0.75688 0.80439 0.73202 0.0
C602 C 0.75141 0.73853 0.6947 0.0
C603 C 0.73463 0.76082 0.80824 0.0
O604 O 0.73739 0.71714 0.76719 0.0
O605 O 0.73681 0.6851 0.79102 0.0
O606 O 0.52797 0.51634 0.49247 0.0
Mn607 Mn 0.49507 0.49844 0.49857 0.0
O608 O 0.55613 0.4878 0.49762 0.0
Mn609 Mn 0.53618 0.46355 0.50962 0.0
O610 O 0.46221 0.48061 0.50485 0.0
O611 O 0.48068 0.53173 0.50424 0.0
Mn612 Mn 0.4534 0.53318 0.48798 0.0
O613 O 0.48717 0.49971 0.46029 0.0
O614 O 0.43362 0.50886 0.50044 0.0
O615 O 0.50296 0.49739 0.5369 0.0
O616 O 0.52861 0.46663 0.54288 0.0
O617 O 0.45697 0.56306 0.503 0.0
O618 O 0.46072 0.52988 0.4546 0.0
C619 C 0.51354 0.44251 0.48633 0.0
C620 C 0.54988 0.50968 0.49303 0.0
C621 C 0.44028 0.48715 0.50518 0.0
C622 C 0.47696 0.5542 0.51073 0.0
C623 C 0.47437 0.51343 0.4462 0.0
C624 C 0.51541 0.48349 0.55114 0.0
O625 O 0.50928 0.46494 0.49279 0.0
O626 O 0.53337 0.43374 0.49461 0.0
O627 O 0.96604 0.47729 0.98811 0.0
Mn628 Mn -0.00511 0.50031 -0.00499 0.0
O629 O 0.93522 0.5007 0.97689 0.0
Mn630 Mn 0.94714 0.5281 0.99293 0.0
O631 O 0.02344 0.52367 0.00223 0.0
O632 O 0.01289 0.47018 0.00629 0.0
Mn633 Mn 0.04195 0.4728 0.99405 0.0
O634 O 0.00613 0.49603 0.95853 0.0
O635 O 0.05544 0.50022 0.0084 0.0
O636 O 0.98303 0.50515 0.03113 0.0
O637 O 0.94871 0.52602 0.0276 0.0
O638 O 0.04174 0.44396 0.01128 0.0
O639 O 0.03914 0.47336 0.95957 0.0
C640 C 0.97309 0.55172 0.9757 0.0
C641 C 0.94486 0.47991 0.97968 0.0
C642 C 0.04514 0.52078 0.00872 0.0
C643 C 0.01988 0.44962 0.0159 0.0
C644 C 0.02316 0.48498 0.94763 0.0
C645 C 0.96491 0.51573 0.04063 0.0
O646 O 0.97705 0.52995 0.98386 0.0
O647 O 0.95112 0.55821 0.97757 0.0
C648 C -0.00683 0.17315 0.07947 0.0
C649 C 0.01415 0.1872 0.08091 0.0
C650 C 0.99275 0.15024 0.06767 0.0
C651 C 0.01383 0.14098 0.0569 0.0
C652 C 0.03513 0.15497 0.05836 0.0
C653 C 0.03505 0.1779 0.07033 0.0
C654 C 0.96958 0.13601 0.06654 0.0
C655 C 0.05793 0.14579 0.0471 0.0
C656 C 0.00562 0.07311 0.0447 0.0
C657 C -0.00418 0.07376 0.02071 0.0
C658 C 0.0144 0.09469 0.05597 0.0
C659 C 0.01275 0.11731 0.04301 0.0
C660 C 0.00548 0.11732 0.0177 0.0
C661 C -0.00281 0.09551 0.00688 0.0
C662 C 0.02295 0.09352 0.08263 0.0
C663 C 0.00353 0.14077 0.00293 0.0
H664 H 0.97696 0.18003 0.08764 0.0
H665 H 0.05139 0.18856 0.07135 0.0
H666 H 0.96431 0.13301 0.04679 0.0
H667 H 0.97182 0.11776 0.0753 0.0
H668 H 0.95488 0.14554 0.07618 0.0
H669 H 0.0734 0.15783 0.05158 0.0
H670 H 0.06166 0.12703 0.0539 0.0
H671 H 0.05607 0.14477 0.02651 0.0
H672 H 0.00427 0.05643 0.05549 0.0
H673 H 0.98952 0.09601 0.98827 0.0
H674 H 0.0077 0.09667 0.0953 0.0
H675 H 0.03673 0.1077 0.08651 0.0
H676 H 0.03038 0.07526 0.087 0.0
H677 H 0.98747 0.15074 0.00904 0.0
H678 H 0.00192 0.13726 0.98257 0.0
H679 H 0.01916 0.15288 0.00623 0.0
C680 C 0.08429 0.74137 0.34009 0.0
C681 C 0.06126 0.74165 0.33 0.0
C682 C 0.10432 0.74035 0.32465 0.0
C683 C 0.10131 0.73978 0.2984 0.0
C684 C 0.07815 0.74052 0.28801 0.0
C685 C 0.05834 0.74128 0.30396 0.0
C686 C 0.12872 0.73942 0.33654 0.0
C687 C 0.07433 0.74033 0.26012 0.0
C688 C 0.15974 0.75431 0.26649 0.0
C689 C 0.16928 0.73081 0.26469 0.0
C690 C 0.13645 0.75761 0.27525 0.0
C691 C 0.12259 0.7369 0.28227 0.0
C692 C 0.13125 0.71313 0.27771 0.0
C693 C 0.15451 0.71039 0.26896 0.0
C694 C 0.1278 0.78329 0.2794 0.0
C695 C 0.11703 0.69054 0.28465 0.0
H696 H 0.08672 0.74166 0.36017 0.0
H697 H 0.04059 0.74172 0.29603 0.0
H698 H 0.13757 0.72211 0.3314 0.0
H699 H 0.13998 0.75472 0.32949 0.0
H700 H 0.128 0.74056 0.35722 0.0
H701 H 0.05532 0.74259 0.25497 0.0
H702 H 0.08492 0.75523 0.25126 0.0
H703 H 0.08064 0.72283 0.25225 0.0
H704 H 0.17109 0.77017 0.26326 0.0
H705 H 0.16178 0.69217 0.26729 0.0
H706 H 0.13171 0.78874 0.29894 0.0
H707 H 0.10831 0.78457 0.27643 0.0
H708 H 0.13693 0.79651 0.26678 0.0
H709 H 0.11704 0.6884 0.30526 0.0
H710 H 0.12457 0.67373 0.27634 0.0
H711 H 0.09827 0.6922 0.27852 0.0
C712 C 0.47657 0.82627 0.58542 0.0
C713 C 0.49903 0.81531 0.58386 0.0
C714 C 0.47245 0.84953 0.57502 0.0
C715 C 0.49117 0.86198 0.56255 0.0
C716 C 0.51365 0.85064 0.56032 0.0
C717 C 0.51733 0.82759 0.57113 0.0
C718 C 0.44835 0.86105 0.57802 0.0
C719 C 0.53404 0.86304 0.54677 0.0
C720 C 0.48727 0.91194 0.51429 0.0
C721 C 0.49826 0.93126 0.52716 0.0
C722 C 0.48202 0.88974 0.5264 0.0
C723 C 0.48793 0.88699 0.55196 0.0
C724 C 0.49585 0.90766 0.56573 0.0
C725 C 0.50108 0.9296 0.55306 0.0
C726 C 0.47332 0.86835 0.511 0.0
C727 C 0.50174 0.90567 0.59315 0.0
H728 H 0.46235 0.81697 0.59539 0.0
H729 H 0.53466 0.81922 0.56973 0.0
H730 H 0.44982 0.87667 0.59113 0.0
H731 H 0.44187 0.8684 0.55995 0.0
H732 H 0.43492 0.84788 0.58543 0.0
H733 H 0.55008 0.85138 0.54591 0.0
H734 H 0.52861 0.86773 0.52742 0.0
H735 H 0.53893 0.88037 0.55632 0.0
H736 H 0.48543 0.91315 0.49416 0.0
H737 H 0.50996 0.94442 0.56292 0.0
H738 H 0.45988 0.85738 0.52136 0.0
H739 H 0.48852 0.85623 0.50688 0.0
H740 H 0.46544 0.8744 0.493 0.0
H741 H 0.48695 0.89653 0.60331 0.0
H742 H 0.50528 0.92385 0.60169 0.0
H743 H 0.51782 0.89431 0.59566 0.0
C744 C 0.40121 0.24017 0.86906 0.0
C745 C 0.42094 0.24577 0.85402 0.0
C746 C 0.37806 0.24522 0.86088 0.0
C747 C 0.37473 0.25586 0.83708 0.0
C748 C 0.39461 0.26205 0.82208 0.0
C749 C 0.41749 0.25697 0.83078 0.0
C750 C 0.35719 0.23857 0.87734 0.0
C751 C 0.39171 0.27318 0.7964 0.0
C752 C 0.32159 0.24173 0.7972 0.0
C753 C 0.311 0.26464 0.79563 0.0
C754 C 0.34151 0.23808 0.81219 0.0
C755 C 0.35065 0.25789 0.8263 0.0
C756 C 0.33859 0.28054 0.82657 0.0
C757 C 0.31898 0.28386 0.81067 0.0
C758 C 0.3541 0.21383 0.8108 0.0
C759 C 0.34742 0.30169 0.84219 0.0
H760 H 0.40379 0.23174 0.88719 0.0
H761 H 0.43267 0.26154 0.81917 0.0
H762 H 0.34461 0.25404 0.87842 0.0
H763 H 0.34731 0.22282 0.8692 0.0
H764 H 0.36287 0.23355 0.89655 0.0
H765 H 0.40906 0.2779 0.78763 0.0
H766 H 0.38207 0.26013 0.78405 0.0
H767 H 0.38094 0.29002 0.79746 0.0
H768 H 0.3154 0.22718 0.78505 0.0
H769 H 0.31061 0.30158 0.80921 0.0
H770 H 0.35798 0.20676 0.82977 0.0
H771 H 0.37136 0.21636 0.80107 0.0
H772 H 0.3435 0.19981 0.80055 0.0
H773 H 0.35288 0.29531 0.86102 0.0
H774 H 0.33365 0.31596 0.84423 0.0
H775 H 0.36327 0.31013 0.8332 0.0
C776 C -0.00121 0.82778 0.3912 0.0
C777 C 0.98049 0.81179 0.39878 0.0
C778 C 0.00017 0.85173 0.40041 0.0
C779 C 0.98308 0.85958 0.41788 0.0
C780 C 0.96384 0.84398 0.42446 0.0
C781 C 0.96271 0.82027 0.41473 0.0
C782 C 0.02075 0.86801 0.39267 0.0
C783 C 0.94538 0.85166 0.44323 0.0
C784 C 0.00268 0.89974 0.47111 0.0
C785 C 0.99184 0.92204 0.46527 0.0
C786 C 0.00077 0.8797 0.45519 0.0
C787 C 0.9876 0.88189 0.43281 0.0
C788 C 0.97748 0.90461 0.42611 0.0
C789 C 0.9798 0.92458 0.44247 0.0
C790 C 0.01221 0.8559 0.46285 0.0
C791 C 0.96363 0.90756 0.40215 0.0
H792 H 0.01232 0.82146 0.37845 0.0
H793 H 0.94838 0.80808 0.42042 0.0
H794 H 0.01473 0.88698 0.38922 0.0
H795 H 0.03411 0.86873 0.40794 0.0
H796 H 0.02961 0.86117 0.37558 0.0
H797 H 0.93008 0.83864 0.44404 0.0
H798 H 0.95363 0.85265 0.46205 0.0
H799 H 0.93861 0.87012 0.43865 0.0
H800 H 0.01265 0.89782 0.48834 0.0
H801 H 0.97171 0.9419 0.43773 0.0
H802 H 0.02409 0.84935 0.44786 0.0
H803 H -0.00172 0.84167 0.46581 0.0
H804 H 0.02281 0.85769 0.48031 0.0
H805 H 0.9737 0.89999 0.3862 0.0
H806 H 0.95953 0.92702 0.39816 0.0
H807 H 0.94664 0.89714 0.40344 0.0
C808 C 0.3967 0.74292 0.64794 0.0
C809 C 0.41759 0.75597 0.6535 0.0
C810 C 0.37641 0.74517 0.66288 0.0
C811 C 0.37676 0.76151 0.68342 0.0
C812 C 0.39711 0.77644 0.68764 0.0
C813 C 0.41755 0.77304 0.67301 0.0
C814 C 0.35517 0.72875 0.65769 0.0
C815 C 0.39754 0.79535 0.70809 0.0
C816 C 0.31556 0.75949 0.71276 0.0
C817 C 0.31876 0.7399 0.72926 0.0
C818 C 0.33517 0.76941 0.69965 0.0
C819 C 0.35799 0.7589 0.70285 0.0
C820 C 0.3615 0.74137 0.72195 0.0
C821 C 0.34186 0.73238 0.73509 0.0
C822 C 0.3309 0.78949 0.6809 0.0
C823 C 0.38539 0.72963 0.72638 0.0
H824 H 0.39663 0.72994 0.63267 0.0
H825 H 0.43351 0.78372 0.67685 0.0
H826 H 0.35231 0.7161 0.67367 0.0
H827 H 0.3389 0.73985 0.65557 0.0
H828 H 0.35745 0.71768 0.64052 0.0
H829 H 0.41213 0.80897 0.70537 0.0
H830 H 0.38033 0.80508 0.70879 0.0
H831 H 0.4002 0.78633 0.72643 0.0
H832 H 0.29774 0.76571 0.70856 0.0
H833 H 0.3444 0.7177 0.74848 0.0
H834 H 0.32465 0.78133 0.66307 0.0
H835 H 0.34731 0.80036 0.67719 0.0
H836 H 0.31679 0.80195 0.68757 0.0
H837 H 0.39008 0.71828 0.71 0.0
H838 H 0.38542 0.71774 0.74323 0.0
H839 H 0.39952 0.74373 0.72863 0.0
C840 C 0.48716 0.17814 0.91974 0.0
C841 C 0.50485 0.19551 0.92561 0.0
C842 C 0.48714 0.1549 0.9307 0.0
C843 C 0.50533 0.14883 0.94786 0.0
C844 C 0.52207 0.16692 0.95542 0.0
C845 C 0.52162 0.19016 0.94419 0.0
C846 C 0.46877 0.13625 0.92233 0.0
C847 C 0.5415 0.16118 0.97396 0.0
C848 C 0.4989 0.08634 0.97842 0.0
C849 C 0.51204 0.07182 0.96196 0.0
C850 C 0.49735 0.11175 0.97485 0.0
C851 C 0.50908 0.12275 0.95428 0.0
C852 C 0.52301 0.10832 0.93817 0.0
C853 C 0.52437 0.08311 0.94225 0.0
C854 C 0.48247 0.12661 0.9925 0.0
C855 C 0.53572 0.11933 0.91592 0.0
H856 H 0.4738 0.18237 0.90579 0.0
H857 H 0.53516 0.20363 0.94899 0.0
H858 H 0.47738 0.12247 0.91028 0.0
H859 H 0.4611 0.12641 0.9386 0.0
H860 H 0.45406 0.14474 0.9116 0.0
H861 H 0.55038 0.17803 0.98109 0.0
H862 H 0.53428 0.15061 0.98999 0.0
H863 H 0.55511 0.14972 0.96483 0.0
H864 H 0.48939 0.07783 0.99379 0.0
H865 H 0.53472 0.07217 0.92951 0.0
H866 H 0.46588 0.13226 0.98292 0.0
H867 H 0.49213 0.14353 -0.00185 0.0
H868 H 0.47754 0.11611 0.00953 0.0
H869 H 0.52249 0.12667 0.9025 0.0
H870 H 0.54685 0.1058 0.90602 0.0
H871 H 0.54728 0.13482 0.9219 0.0
C872 C 0.05939 0.25785 0.18429 0.0
C873 C 0.05228 0.23485 0.17521 0.0
C874 C 0.08123 0.26106 0.19675 0.0
C875 C 0.09659 0.2409 0.19987 0.0
C876 C 0.08893 0.21737 0.19199 0.0
C877 C 0.0668 0.21461 0.1799 0.0
C878 C 0.08856 0.28641 0.20507 0.0
C879 C 0.10484 0.19542 0.19458 0.0
C880 C 0.16183 0.25757 0.19421 0.0
C881 C 0.16993 0.25667 0.21902 0.0
C882 C 0.13831 0.2518 0.18789 0.0
C883 C 0.122 0.24533 0.20689 0.0
C884 C 0.12999 0.24398 0.23204 0.0
C885 C 0.15404 0.24936 0.23782 0.0
C886 C 0.13092 0.25284 0.16074 0.0
C887 C 0.11304 0.23732 0.2528 0.0
H888 H 0.04816 0.27354 0.18106 0.0
H889 H 0.06145 0.19674 0.17304 0.0
H890 H 0.09619 0.28587 0.22418 0.0
H891 H 0.10255 0.2937 0.19241 0.0
H892 H 0.07339 0.29927 0.20484 0.0
H893 H 0.09506 0.17798 0.19109 0.0
H894 H 0.1196 0.19693 0.18094 0.0
H895 H 0.11293 0.19468 0.21347 0.0
H896 H 0.17411 0.26251 0.17941 0.0
H897 H 0.16025 0.24838 0.25696 0.0
H898 H 0.11729 0.26714 0.15804 0.0
H899 H 0.12282 0.23513 0.155 0.0
H900 H 0.14611 0.25699 0.14814 0.0
H901 H 0.09886 0.25123 0.25395 0.0
H902 H 0.12214 0.23614 0.27119 0.0
H903 H 0.10419 0.21951 0.24882 0.0
C904 C 0.04911 0.99057 0.19859 0.0
C905 C 0.0737 -0.00475 0.19886 0.0
C906 C 0.03623 0.99055 0.17605 0.0
C907 C 0.04822 -0.00432 0.15341 0.0
C908 C 0.07279 0.00171 0.15381 0.0
C909 C 0.08527 0.00117 0.17648 0.0
C910 C 0.01008 0.98401 0.17634 0.0
C911 C 0.08613 0.00783 0.13012 0.0
C912 C 0.03146 0.96637 0.09215 0.0
C913 C 0.02252 0.98627 0.07861 0.0
C914 C 0.03824 0.96881 0.11716 0.0
C915 C 0.03614 0.99177 0.12898 0.0
C916 C 0.02524 0.01139 0.1161 0.0
C917 C 0.01844 0.00835 0.09098 0.0
C918 C 0.04937 0.94725 0.13029 0.0
C919 C 0.02243 0.03612 0.12808 0.0
H920 H 0.04005 0.98616 0.21589 0.0
H921 H 0.10417 0.00531 0.17665 0.0
H922 H -0.00019 -0.00264 0.16515 0.0
H923 H 0.00734 0.96578 0.16768 0.0
H924 H 0.00279 0.98343 0.19559 0.0
H925 H 0.10454 0.01446 0.13391 0.0
H926 H 0.08708 0.99132 0.11817 0.0
H927 H 0.07659 0.02208 0.11937 0.0
H928 H 0.03425 0.94908 0.08279 0.0
H929 H 0.0114 0.02368 0.08068 0.0
H930 H 0.04144 0.94461 0.14905 0.0
H931 H 0.06869 0.95082 0.13293 0.0
H932 H 0.04715 0.93002 0.11955 0.0
H933 H 0.01784 0.03439 0.14813 0.0
H934 H 0.00849 0.047 0.11854 0.0
H935 H 0.03953 0.04638 0.12678 0.0
C936 C 0.23904 0.84762 0.41837 0.0
C937 C 0.26084 0.84902 0.43108 0.0
C938 C 0.23752 0.83696 0.39472 0.0
C939 C 0.25831 0.82753 0.38371 0.0
C940 C 0.28063 0.83062 0.39559 0.0
C941 C 0.28163 0.84128 0.41926 0.0
C942 C 0.21338 0.83392 0.38257 0.0
C943 C 0.30318 0.82091 0.38422 0.0
C944 C 0.25009 0.76852 0.34887 0.0
C945 C 0.25108 0.77627 0.32392 0.0
C946 C 0.25245 0.78516 0.36837 0.0
C947 C 0.25603 0.81021 0.36281 0.0
C948 C 0.25725 0.81829 0.33774 0.0
C949 C 0.25478 0.80113 0.31847 0.0
C950 C 0.25085 0.77587 0.39495 0.0
C951 C 0.26095 0.84496 0.33132 0.0
H952 H 0.22296 0.85397 0.42727 0.0
H953 H 0.29861 0.84279 0.42882 0.0
H954 H 0.21429 0.83792 0.36229 0.0
H955 H 0.20725 0.81467 0.38473 0.0
H956 H 0.19991 0.84598 0.39114 0.0
H957 H 0.31935 0.8284 0.39357 0.0
H958 H 0.30332 0.80068 0.38603 0.0
H959 H 0.30404 0.82538 0.36403 0.0
H960 H 0.24729 0.74936 0.35332 0.0
H961 H 0.25551 0.80723 0.29922 0.0
H962 H 0.23607 0.78498 0.40481 0.0
H963 H 0.26752 0.78033 0.40519 0.0
H964 H 0.24782 0.75577 0.39595 0.0
H965 H 0.2461 0.85588 0.33885 0.0
H966 H 0.26199 0.84812 0.31085 0.0
H967 H 0.27757 0.85191 0.34014 0.0
C968 C 0.41302 0.00404 0.66972 0.0
C969 C 0.42468 0.00071 0.6926 0.0
C970 C 0.42581 0.00618 0.64755 0.0
C971 C 0.45094 0.0052 0.64831 0.0
C972 C 0.4629 0.00169 0.67128 0.0
C973 C 0.44956 -0.00064 0.69327 0.0
C974 C 0.41236 0.00962 0.6233 0.0
C975 C 0.4897 0.00082 0.67263 0.0
C976 C 0.4751 0.99195 0.58449 0.0
C977 C 0.477 0.01571 0.57487 0.0
C978 C 0.46838 0.98806 0.60933 0.0
C979 C 0.4643 0.0085 0.62483 0.0
C980 C 0.46875 0.03247 0.61583 0.0
C981 C 0.47471 0.03582 0.59072 0.0
C982 C 0.4633 0.96228 0.61817 0.0
C983 C 0.46489 0.05467 0.63196 0.0
H984 H 0.39376 0.00487 0.66904 0.0
H985 H 0.45861 -0.00322 0.71097 0.0
H986 H 0.41721 0.02753 0.61484 0.0
H987 H 0.41727 -0.0048 0.60979 0.0
H988 H 0.39277 0.00898 0.62593 0.0
H989 H 0.49623 -0.00273 0.69188 0.0
H990 H 0.49644 0.98633 0.66014 0.0
H991 H 0.49737 0.01845 0.66602 0.0
H992 H 0.47671 0.97644 0.57206 0.0
H993 H 0.47638 0.05418 0.58317 0.0
H994 H 0.4441 0.96017 0.62258 0.0
H995 H 0.47338 0.95845 0.63554 0.0
H996 H 0.46793 0.94842 0.60393 0.0
H997 H 0.44552 0.05792 0.63378 0.0
H998 H 0.47329 0.07136 0.62383 0.0
H999 H 0.47216 0.05175 0.651 0.0
C1000 C 0.23973 0.18536 0.92414 0.0
C1001 C 0.25498 0.16742 0.93337 0.0
C1002 C 0.24312 0.19546 0.90037 0.0
C1003 C 0.26224 0.18733 0.8854 0.0
C1004 C 0.27901 0.17093 0.89551 0.0
C1005 C 0.27515 0.16108 0.91943 0.0
C1006 C 0.22509 0.21346 0.89061 0.0
C1007 C 0.30005 0.16242 0.88056 0.0
C1008 C 0.2369 0.18892 0.82139 0.0
C1009 C 0.242 0.21319 0.81505 0.0
C1010 C 0.2468 0.17847 0.84282 0.0
C1011 C 0.26176 0.19299 0.85828 0.0
C1012 C 0.27012 0.21597 0.84953 0.0
C1013 C 0.25987 0.22602 0.82794 0.0
C1014 C 0.23816 0.15344 0.85088 0.0
C1015 C 0.28717 0.23144 0.86466 0.0
H1016 H 0.22442 0.19072 0.93503 0.0
H1017 H 0.28729 0.14747 0.9266 0.0
H1018 H 0.23421 0.22996 0.88305 0.0
H1019 H 0.2147 0.205 0.87517 0.0
H1020 H 0.21246 0.21931 0.90529 0.0
H1021 H 0.31478 0.15648 0.89296 0.0
H1022 H 0.29457 0.14654 0.86895 0.0
H1023 H 0.30678 0.17698 0.86786 0.0
H1024 H 0.22314 0.17905 0.81119 0.0
H1025 H 0.26368 0.24492 0.82311 0.0
H1026 H 0.22429 0.15544 0.86542 0.0
H1027 H 0.25289 0.14271 0.85904 0.0
H1028 H 0.23032 0.143 0.83504 0.0
H1029 H 0.27693 0.24312 0.87758 0.0
H1030 H 0.2979 0.24367 0.85237 0.0
H1031 H 0.29936 0.22001 0.87596 0.0
C1032 C 0.08697 0.9673 0.32578 0.0
C1033 C 0.10531 0.98484 0.32687 0.0
C1034 C 0.07143 0.9639 0.34598 0.0
C1035 C 0.07357 0.97939 0.36699 0.0
C1036 C 0.09322 -0.00419 0.36886 0.0
C1037 C 0.10913 -0.00198 0.34886 0.0
C1038 C 0.05179 0.94496 0.34403 0.0
C1039 C 0.09613 0.01279 0.39087 0.0
C1040 C 0.01909 0.00901 0.3924 0.0
C1041 C 0.02032 0.00258 0.4177 0.0
C1042 C 0.03538 0.00011 0.37526 0.0
C1043 C 0.05272 0.9833 0.38338 0.0
C1044 C 0.05184 0.97394 0.40812 0.0
C1045 C 0.03578 0.98407 0.42531 0.0
C1046 C 0.03546 0.01086 0.34917 0.0
C1047 C 0.06869 0.95451 0.417 0.0
H1048 H 0.08449 0.95655 0.30897 0.0
H1049 H 0.12355 0.01133 0.34974 0.0
H1050 H 0.04708 0.93744 0.36267 0.0
H1051 H 0.03566 0.9534 0.33593 0.0
H1052 H 0.05702 0.92968 0.33164 0.0
H1053 H 0.11313 0.02333 0.3902 0.0
H1054 H 0.08122 0.02593 0.39117 0.0
H1055 H 0.09555 0.00225 0.40857 0.0
H1056 H 0.00649 0.02266 0.38625 0.0
H1057 H 0.03637 0.97857 0.44475 0.0
H1058 H 0.03394 -0.00384 0.33506 0.0
H1059 H 0.05248 0.0208 0.34582 0.0
H1060 H 0.02065 0.02381 0.34605 0.0
H1061 H 0.07552 0.94337 0.40133 0.0
H1062 H 0.0597 0.94217 0.43061 0.0
H1063 H 0.08401 0.96327 0.42671 0.0
C1064 C 0.22507 0.80564 0.55839 0.0
C1065 C 0.24335 0.82103 0.54979 0.0
C1066 C 0.22655 0.79476 0.58209 0.0
C1067 C 0.24695 0.79914 0.5971 0.0
C1068 C 0.26642 0.81265 0.58736 0.0
C1069 C 0.26428 0.82366 0.56387 0.0
C1070 C 0.20535 0.78064 0.59196 0.0
C1071 C 0.28862 0.81743 0.60262 0.0
C1072 C 0.23642 0.80812 0.66592 0.0
C1073 C 0.24402 0.78588 0.67613 0.0
C1074 C 0.2372 0.81244 0.64026 0.0
C1075 C 0.246 0.79412 0.62426 0.0
C1076 C 0.25405 0.77171 0.63432 0.0
C1077 C 0.25292 0.7678 0.66024 0.0
C1078 C 0.22854 0.83669 0.6303 0.0
C1079 C 0.26385 0.75199 0.61774 0.0
H1080 H 0.20892 0.80356 0.54745 0.0
H1081 H 0.27861 0.83525 0.55698 0.0
H1082 H 0.21107 0.76387 0.60189 0.0
H1083 H 0.19573 0.79213 0.60559 0.0
H1084 H 0.19275 0.77539 0.57682 0.0
H1085 H 0.30359 0.82415 0.59087 0.0
H1086 H 0.28488 0.83149 0.61694 0.0
H1087 H 0.29426 0.80063 0.61256 0.0
H1088 H 0.22955 0.82226 0.67798 0.0
H1089 H 0.25897 0.75062 0.66802 0.0
H1090 H 0.2141 0.83362 0.61644 0.0
H1091 H 0.24324 0.84648 0.62062 0.0
H1092 H 0.22171 0.84872 0.64528 0.0
H1093 H 0.25034 0.74649 0.60364 0.0
H1094 H 0.26921 0.73552 0.62848 0.0
H1095 H 0.27954 0.75913 0.60742 0.0
C1096 C 0.38215 0.96418 0.83423 0.0
C1097 C 0.39231 0.97833 0.81508 0.0
C1098 C 0.39282 0.96298 0.85779 0.0
C1099 C 0.41436 0.97581 0.862 0.0
C1100 C 0.42481 0.99004 0.84272 0.0
C1101 C 0.41357 0.99121 0.81942 0.0
C1102 C 0.38092 0.94839 0.87829 0.0
C1103 C 0.44773 0.00417 0.84681 0.0
C1104 C 0.43751 0.99341 0.92567 0.0
C1105 C 0.45669 0.97749 0.92771 0.0
C1106 C 0.42229 0.99218 0.90496 0.0
C1107 C 0.42632 0.97423 0.88645 0.0
C1108 C 0.44404 0.9564 0.89006 0.0
C1109 C 0.45917 0.95837 0.91066 0.0
C1110 C 0.40321 0.01128 0.90254 0.0
C1111 C 0.44852 0.93668 0.87099 0.0
H1112 H 0.36558 0.95435 0.83098 0.0
H1113 H 0.42146 0.0021 0.80459 0.0
H1114 H 0.39319 0.93428 0.88554 0.0
H1115 H 0.37663 0.9607 0.89406 0.0
H1116 H 0.36426 0.93924 0.87186 0.0
H1117 H 0.45363 0.01413 0.82978 0.0
H1118 H 0.44534 0.01761 0.86207 0.0
H1119 H 0.46205 0.99155 0.85266 0.0
H1120 H 0.4357 0.0082 0.93892 0.0
H1121 H 0.47403 0.94599 0.91252 0.0
H1122 H 0.39011 0.00863 0.91781 0.0
H1123 H 0.39352 0.01079 0.8845 0.0
H1124 H 0.41122 0.02979 0.90492 0.0
H1125 H 0.43156 0.92779 0.86518 0.0
H1126 H 0.46068 0.92242 0.87824 0.0
H1127 H 0.45667 0.94501 0.8541 0.0
C1128 C 0.23153 0.17585 0.06587 0.0
C1129 C 0.24245 0.15382 0.05955 0.0
C1130 C 0.23357 0.18544 0.09004 0.0
C1131 C 0.24652 0.17245 0.10844 0.0
C1132 C 0.25685 0.14976 0.10242 0.0
C1133 C 0.2549 0.14081 0.07795 0.0
C1134 C 0.22243 0.20983 0.09568 0.0
C1135 C 0.27039 0.13524 0.12168 0.0
C1136 C 0.2716 0.21402 0.15845 0.0
C1137 C 0.25415 0.21205 0.17691 0.0
C1138 C 0.27021 0.19983 0.13676 0.0
C1139 C 0.2506 0.18368 0.13334 0.0
C1140 C 0.23368 0.18057 0.15267 0.0
C1141 C 0.23579 0.19472 0.17444 0.0
C1142 C 0.28863 0.2037 0.11663 0.0
C1143 C 0.21246 0.16365 0.14961 0.0
H1144 H 0.22187 0.18595 0.05173 0.0
H1145 H 0.26311 0.12359 0.07323 0.0
H1146 H 0.21041 0.20815 0.112 0.0
H1147 H 0.23653 0.22337 0.10059 0.0
H1148 H 0.21211 0.21707 0.07961 0.0
H1149 H 0.27586 0.11711 0.11453 0.0
H1150 H 0.28655 0.14559 0.1275 0.0
H1151 H 0.25933 0.13243 0.13859 0.0
H1152 H 0.28555 0.22776 0.16032 0.0
H1153 H 0.22197 0.19375 0.18849 0.0
H1154 H 0.28042 0.21324 0.1005 0.0
H1155 H 0.29525 0.18589 0.10983 0.0
H1156 H 0.30403 0.21483 0.12328 0.0
H1157 H 0.20202 0.16892 0.13288 0.0
H1158 H 0.20051 0.16394 0.16608 0.0
H1159 H 0.21859 0.14466 0.14668 0.0
C1160 C 0.16908 0.09557 0.97797 0.0
C1161 C 0.1813 0.08759 -0.00065 0.0
C1162 C 0.14512 0.08895 0.97386 0.0
C1163 C 0.13332 0.07346 0.99119 0.0
C1164 C 0.1453 0.06626 0.0133 0.0
C1165 C 0.16903 0.07358 0.01718 0.0
C1166 C 0.13269 0.09781 0.95058 0.0
C1167 C 0.13349 0.04968 0.03228 0.0
C1168 C 0.06783 0.05524 0.99355 0.0
C1169 C 0.06878 0.03177 0.98313 0.0
C1170 C 0.08832 0.07034 0.99434 0.0
C1171 C 0.11012 0.06152 0.98475 0.0
C1172 C 0.11037 0.03888 0.97201 0.0
C1173 C 0.08968 0.02445 0.97118 0.0
C1174 C 0.08694 0.09477 0.00723 0.0
C1175 C 0.13308 0.02863 0.96145 0.0
H1176 H 0.17828 0.10689 0.96435 0.0
H1177 H 0.17823 0.06755 0.03388 0.0
H1178 H 0.13094 0.08256 0.93707 0.0
H1179 H 0.11447 0.10405 0.95504 0.0
H1180 H 0.14263 0.11304 0.94143 0.0
H1181 H 0.14472 0.0469 0.04913 0.0
H1182 H 0.11625 0.05741 0.03819 0.0
H1183 H 0.12971 0.03156 0.02374 0.0
H1184 H 0.05169 0.06109 0.00272 0.0
H1185 H 0.09038 0.00649 0.96267 0.0
H1186 H 0.0991 0.10842 -0.00151 0.0
H1187 H 0.09229 0.09265 0.02706 0.0
H1188 H 0.06852 0.10194 0.00681 0.0
H1189 H 0.14218 0.04236 0.94947 0.0
H1190 H 0.12982 0.01184 0.95026 0.0
H1191 H 0.14539 0.02404 0.97698 0.0
C1192 C 0.65998 0.41356 0.02557 0.0
C1193 C 0.68125 0.41933 0.01324 0.0
C1194 C 0.64026 0.42892 0.02376 0.0
C1195 C 0.64184 0.45057 0.00921 0.0
C1196 C 0.66333 0.45665 -0.00308 0.0
C1197 C 0.68283 0.44098 -0.00087 0.0
C1198 C 0.6176 0.42179 0.03718 0.0
C1199 C 0.6656 0.47954 0.98124 0.0
C1200 C 0.58129 0.47263 0.98925 0.0
C1201 C 0.57545 0.48738 0.00961 0.0
C1202 C 0.60367 0.46168 0.98784 0.0
C1203 C 0.62071 0.46644 0.00679 0.0
C1204 C 0.61578 0.48376 0.02564 0.0
C1205 C 0.59292 0.49362 0.02718 0.0
C1206 C 0.6079 0.44289 0.96776 0.0
C1207 C 0.63383 0.49004 0.04559 0.0
H1208 H 0.65867 0.39692 0.03655 0.0
H1209 H 0.6992 0.4455 0.98943 0.0
H1210 H 0.6127 0.4363 0.0506 0.0
H1211 H 0.60277 0.41994 0.02357 0.0
H1212 H 0.61928 0.40428 0.04757 0.0
H1213 H 0.68378 0.48205 0.9735 0.0
H1214 H 0.65274 0.47878 0.9655 0.0
H1215 H 0.66116 0.49581 0.99257 0.0
H1216 H 0.56753 0.46744 0.97596 0.0
H1217 H 0.5882 0.50488 0.04301 0.0
H1218 H 0.60648 0.42431 0.97606 0.0
H1219 H 0.62602 0.4449 0.95985 0.0
H1220 H 0.59468 0.44422 0.95236 0.0
H1221 H 0.63483 0.47477 0.05923 0.0
H1222 H 0.62902 0.50693 0.05581 0.0
H1223 H 0.65178 0.49259 0.03737 0.0
C1224 C 0.84404 0.42566 0.26325 0.0
C1225 C 0.83508 0.43903 0.24293 0.0
C1226 C 0.83484 0.4025 0.26913 0.0
C1227 C 0.81616 0.39273 0.25448 0.0
C1228 C 0.80741 0.40587 0.23361 0.0
C1229 C 0.81709 0.42889 0.22801 0.0
C1230 C 0.84482 0.38864 0.29114 0.0
C1231 C 0.78758 0.39573 0.21743 0.0
C1232 C 0.79778 0.32637 0.25193 0.0
C1233 C 0.77613 0.32728 0.26469 0.0
C1234 C 0.81214 0.34734 0.24978 0.0
C1235 C 0.8048 0.36923 0.26134 0.0
C1236 C 0.78431 0.36935 0.27659 0.0
C1237 C 0.7701 0.3483 0.27798 0.0
C1238 C 0.83415 0.34643 0.23372 0.0
C1239 C 0.77604 0.39234 0.28933 0.0
H1240 H 0.85819 0.43336 0.27469 0.0
H1241 H 0.8102 0.43916 0.21228 0.0
H1242 H 0.8306 0.38509 0.30506 0.0
H1243 H 0.85141 0.37061 0.28491 0.0
H1244 H 0.85963 0.39873 0.30045 0.0
H1245 H 0.78313 0.40811 0.20165 0.0
H1246 H 0.79274 0.37774 0.20973 0.0
H1247 H 0.77134 0.39276 0.22882 0.0
H1248 H 0.80237 0.31004 0.24167 0.0
H1249 H 0.7534 0.3488 0.28804 0.0
H1250 H 0.85011 0.34608 0.24594 0.0
H1251 H 0.83569 0.36277 0.2215 0.0
H1252 H 0.83424 0.32993 0.22168 0.0
H1253 H 0.79108 0.4017 0.29894 0.0
H1254 H 0.7618 0.3885 0.30318 0.0
H1255 H 0.76897 0.40518 0.27511 0.0
C1256 C 0.83885 0.58425 0.51174 0.0
C1257 C 0.82131 0.58234 0.49327 0.0
C1258 C 0.86002 0.57115 0.51004 0.0
C1259 C 0.86416 0.55626 0.48888 0.0
C1260 C 0.84675 0.55476 0.46973 0.0
C1261 C 0.82529 0.56759 0.47233 0.0
C1262 C 0.87768 0.57279 0.53134 0.0
C1263 C 0.85095 0.53998 0.44644 0.0
C1264 C 0.92914 0.5407 0.49187 0.0
C1265 C 0.92773 0.52002 0.50723 0.0
C1266 C 0.90823 0.5512 0.48229 0.0
C1267 C 0.8858 0.54079 0.48863 0.0
C1268 C 0.88486 0.5179 0.50101 0.0
C1269 C 0.9059 0.50787 0.51027 0.0
C1270 C 0.91008 0.57497 0.46809 0.0
C1271 C 0.86149 0.50578 0.50783 0.0
H1272 H 0.83575 0.59563 0.52793 0.0
H1273 H 0.81187 0.56653 0.45779 0.0
H1274 H 0.88058 0.55435 0.53944 0.0
H1275 H 0.89508 0.57969 0.52442 0.0
H1276 H 0.87164 0.58509 0.54647 0.0
H1277 H 0.83478 0.53864 0.43452 0.0
H1278 H 0.86537 0.54878 0.4354 0.0
H1279 H 0.8569 0.52126 0.45119 0.0
H1280 H 0.94612 0.54999 0.48942 0.0
H1281 H 0.90499 0.49165 0.52197 0.0
H1282 H 0.90799 0.59044 0.48124 0.0
H1283 H 0.89586 0.57627 0.45375 0.0
H1284 H 0.92769 0.577 0.45887 0.0
H1285 H 0.85376 0.51535 0.5241 0.0
H1286 H 0.86382 0.48623 0.51292 0.0
H1287 H 0.84854 0.5069 0.49224 0.0
C1288 C 0.17421 0.0725 0.25255 0.0
C1289 C 0.15537 0.06776 0.236 0.0
C1290 C 0.18502 0.09575 0.25374 0.0
C1291 C 0.17676 0.11484 0.23808 0.0
C1292 C 0.1584 0.10995 0.22062 0.0
C1293 C 0.14792 0.08648 0.2198 0.0
C1294 C 0.20473 0.1001 0.27249 0.0
C1295 C 0.14925 0.12972 0.20347 0.0
C1296 C 0.18768 0.17587 0.26903 0.0
C1297 C 0.20977 0.18259 0.25906 0.0
C1298 C 0.1755 0.15497 0.26055 0.0
C1299 C 0.18595 0.14025 0.24192 0.0
C1300 C 0.20715 0.14836 0.23007 0.0
C1301 C 0.21886 0.16956 0.23883 0.0
C1302 C 0.1528 0.14724 0.2735 0.0
C1303 C 0.21879 0.13333 0.21004 0.0
H1304 H 0.18026 0.05813 0.26494 0.0
H1305 H 0.13348 0.083 0.20678 0.0
H1306 H 0.22053 0.10829 0.26316 0.0
H1307 H 0.19875 0.11327 0.28683 0.0
H1308 H 0.21021 0.08299 0.28203 0.0
H1309 H 0.13701 0.12231 0.18896 0.0
H1310 H 0.13954 0.14351 0.21453 0.0
H1311 H 0.16426 0.13937 0.19415 0.0
H1312 H 0.18091 0.1858 0.28496 0.0
H1313 H 0.23625 0.17449 0.23154 0.0
H1314 H 0.15641 0.13136 0.28585 0.0
H1315 H 0.13916 0.14141 0.25969 0.0
H1316 H 0.14541 0.16218 0.28505 0.0
H1317 H 0.22716 0.11708 0.21866 0.0
H1318 H 0.2328 0.1439 0.19999 0.0
H1319 H 0.2054 0.12662 0.19636 0.0
C1320 C 0.32986 0.92164 0.53011 0.0
C1321 C 0.31718 0.90805 0.51239 0.0
C1322 C 0.3527 0.93057 0.52466 0.0
C1323 C 0.36308 0.92505 0.50128 0.0
C1324 C 0.35107 0.90958 0.48425 0.0
C1325 C 0.32801 0.9016 0.48984 0.0
C1326 C 0.36495 0.94736 0.54313 0.0
C1327 C 0.3619 0.9027 0.45951 0.0
C1328 C 0.40138 0.977 0.47856 0.0
C1329 C 0.42375 0.96998 0.48737 0.0
C1330 C 0.38163 0.96163 0.48142 0.0
C1331 C 0.3845 0.93868 0.49323 0.0
C1332 C 0.40744 0.93045 0.49984 0.0
C1333 C 0.42697 0.94632 0.4968 0.0
C1334 C 0.35742 0.97093 0.47383 0.0
C1335 C 0.4111 0.90576 0.51184 0.0
H1336 H 0.32143 0.92639 0.54759 0.0
H1337 H 0.31831 0.8906 0.47635 0.0
H1338 H 0.38343 0.94131 0.54665 0.0
H1339 H 0.36598 0.96614 0.53525 0.0
H1340 H 0.3554 0.94811 0.56124 0.0
H1341 H 0.35267 0.88666 0.45103 0.0
H1342 H 0.36052 0.91832 0.44635 0.0
H1343 H 0.38106 0.89847 0.4617 0.0
H1344 H 0.39905 -0.00482 0.47084 0.0
H1345 H 0.44432 0.94089 0.50354 0.0
H1346 H 0.34653 0.97401 0.49076 0.0
H1347 H 0.3479 0.95721 0.4622 0.0
H1348 H 0.35859 0.98837 0.46319 0.0
H1349 H 0.40433 0.90604 0.53126 0.0
H1350 H 0.43018 0.90074 0.51241 0.0
H1351 H 0.401 0.89137 0.50163 0.0
C1352 C 0.81672 0.5782 0.20959 0.0
C1353 C 0.81929 0.56148 0.22921 0.0
C1354 C 0.80534 0.60053 0.21346 0.0
C1355 C 0.79633 0.60601 0.23744 0.0
C1356 C 0.79696 0.58828 0.25663 0.0
C1357 C 0.80844 0.56615 0.25226 0.0
C1358 C 0.80481 0.61905 0.1925 0.0
C1359 C 0.78741 0.59346 0.28238 0.0
C1360 C 0.80282 0.6729 0.25251 0.0
C1361 C 0.77999 0.6814 0.24708 0.0
C1362 C 0.80798 0.64806 0.25085 0.0
C1363 C 0.78985 0.63145 0.24336 0.0
C1364 C 0.76634 0.63968 0.23961 0.0
C1365 C 0.76162 0.66472 0.24167 0.0
C1366 C 0.83319 0.63987 0.25561 0.0
C1367 C 0.74659 0.62237 0.23184 0.0
H1368 H 0.82492 0.5746 0.1917 0.0
H1369 H 0.81004 0.55306 0.2674 0.0
H1370 H 0.78687 0.62715 0.19079 0.0
H1371 H 0.81755 0.63416 0.19668 0.0
H1372 H 0.80972 0.61089 0.17429 0.0
H1373 H 0.78554 0.57651 0.29373 0.0
H1374 H 0.79978 0.60613 0.29225 0.0
H1375 H 0.76988 0.6025 0.28125 0.0
H1376 H 0.81689 0.68585 0.25719 0.0
H1377 H 0.74393 0.67136 0.23755 0.0
H1378 H 0.84121 0.63363 0.23786 0.0
H1379 H 0.83335 0.6242 0.26879 0.0
H1380 H 0.84456 0.65477 0.26341 0.0
H1381 H 0.74931 0.61682 0.21216 0.0
H1382 H 0.72881 0.6309 0.23337 0.0
H1383 H 0.74679 0.6055 0.24339 0.0
C1384 C 0.68222 0.42226 0.7637 0.0
C1385 C 0.65762 0.42334 0.7676 0.0
C1386 C 0.69405 0.39978 0.76461 0.0
C1387 C 0.68085 0.37798 0.76905 0.0
C1388 C 0.65672 0.37939 0.77607 0.0
C1389 C 0.64532 0.40205 0.77515 0.0
C1390 C 0.72021 0.39906 0.75851 0.0
C1391 C 0.64242 0.35664 0.78218 0.0
C1392 C 0.69712 0.32871 0.72358 0.0
C1393 C 0.71285 0.31438 0.73745 0.0
C1394 C 0.68593 0.34877 0.73413 0.0
C1395 C 0.69013 0.35445 0.75954 0.0
C1396 C 0.70428 0.33867 0.7744 0.0
C1397 C 0.7157 0.31876 0.76304 0.0
C1398 C 0.67096 0.36489 0.71744 0.0
C1399 C 0.70869 0.34324 0.80178 0.0
H1400 H 0.69204 0.43874 0.75875 0.0
H1401 H 0.62644 0.40278 0.77909 0.0
H1402 H 0.72954 0.38643 0.77141 0.0
H1403 H 0.72251 0.39207 0.73924 0.0
H1404 H 0.72872 0.41745 0.75975 0.0
H1405 H 0.62563 0.36103 0.79201 0.0
H1406 H 0.63782 0.34688 0.76464 0.0
H1407 H 0.65299 0.34401 0.79396 0.0
H1408 H 0.6947 0.32512 0.70382 0.0
H1409 H 0.72794 0.30781 0.77381 0.0
H1410 H 0.6792 0.38339 0.71611 0.0
H1411 H 0.65292 0.36698 0.7254 0.0
H1412 H 0.66908 0.35746 0.69824 0.0
H1413 H 0.72738 0.3495 0.80449 0.0
H1414 H 0.70648 0.32589 0.81239 0.0
H1415 H 0.69663 0.35706 0.80979 0.0
C1416 C 0.96172 0.82691 0.91781 0.0
C1417 C 0.98272 0.81523 0.91044 0.0
C1418 C 0.9624 0.84987 0.92958 0.0
C1419 C 0.9846 0.86144 0.9342 0.0
C1420 C 0.00584 0.84987 0.92659 0.0
C1421 C 0.00464 0.82696 0.9148 0.0
C1422 C 0.9394 0.86159 0.93737 0.0
C1423 C 0.02993 0.86152 0.93129 0.0
C1424 C -0.00535 0.92867 0.94959 0.0
C1425 C -0.00063 0.92717 0.97519 0.0
C1426 C 0.98785 0.90762 0.93607 0.0
C1427 C 0.98601 0.88476 0.94858 0.0
C1428 C 0.98869 0.88381 0.97484 0.0
C1429 C -0.00476 0.90507 0.98779 0.0
C1430 C 0.98461 0.90943 0.90817 0.0
C1431 C 0.98727 0.85989 0.98897 0.0
H1432 H 0.94466 0.81809 0.91445 0.0
H1433 H 0.02093 0.81819 0.90907 0.0
H1434 H 0.93891 0.86345 0.95798 0.0
H1435 H 0.93825 0.88029 0.92938 0.0
H1436 H 0.92354 0.85083 0.93132 0.0
H1437 H 0.04468 0.85051 0.92358 0.0
H1438 H 0.03071 0.88003 0.92277 0.0
H1439 H 0.03284 0.86373 0.95166 0.0
H1440 H -0.00156 0.94563 0.93978 0.0
H1441 H -0.0006 0.90389 0.00755 0.0
H1442 H 0.96669 0.90246 0.90289 0.0
H1443 H -0.00218 0.89785 0.89858 0.0
H1444 H 0.98671 0.92851 0.90128 0.0
H1445 H 0.97118 0.84929 0.98346 0.0
H1446 H 0.98697 0.86268 0.00951 0.0
H1447 H 0.00298 0.84866 0.98434 0.0
C1448 C 0.93238 0.25028 0.69031 0.0
C1449 C 0.93043 0.24484 0.6648 0.0
C1450 C 0.91201 0.25211 0.70527 0.0
C1451 C 0.88931 0.24861 0.69431 0.0
C1452 C 0.88732 0.24223 0.66879 0.0
C1453 C 0.90791 0.24036 0.65438 0.0
C1454 C 0.91472 0.25862 0.73249 0.0
C1455 C 0.86338 0.23839 0.65638 0.0
C1456 C 0.83078 0.23899 0.72749 0.0
C1457 C 0.82024 0.26173 0.72325 0.0
C1458 C 0.85431 0.23482 0.72007 0.0
C1459 C 0.86739 0.25398 0.70847 0.0
C1460 C 0.85755 0.27763 0.70662 0.0
C1461 C 0.834 0.28118 0.71394 0.0
C1462 C 0.8642 0.20937 0.72244 0.0
C1463 C 0.87099 0.29862 0.6946 0.0
H1464 H 0.94977 0.25353 0.69852 0.0
H1465 H 0.90626 0.23598 0.63472 0.0
H1466 H 0.9079 0.27732 0.73569 0.0
H1467 H 0.90402 0.24591 0.74423 0.0
H1468 H 0.93356 0.25806 0.73877 0.0
H1469 H 0.86501 0.23206 0.63678 0.0
H1470 H 0.85267 0.22472 0.66692 0.0
H1471 H 0.8534 0.25579 0.6564 0.0
H1472 H 0.82011 0.22391 0.73466 0.0
H1473 H 0.82589 0.29886 0.71099 0.0
H1474 H 0.8833 0.20997 0.7277 0.0
H1475 H 0.8627 0.19995 0.70417 0.0
H1476 H 0.85429 0.19832 0.73649 0.0
H1477 H 0.8895 0.2997 0.70178 0.0
H1478 H 0.86227 0.31645 0.69792 0.0
H1479 H 0.87193 0.2956 0.67415 0.0
C1480 C 0.51661 0.1711 0.40247 0.0
C1481 C 0.50199 0.18728 0.41561 0.0
C1482 C 0.51942 0.14674 0.41039 0.0
C1483 C 0.50665 0.13814 0.43142 0.0
C1484 C 0.49247 0.15465 0.44519 0.0
C1485 C 0.49059 0.17908 0.4373 0.0
C1486 C 0.53543 0.13011 0.39575 0.0
C1487 C 0.47837 0.14626 0.46766 0.0
C1488 C 0.48046 0.07504 0.43873 0.0
C1489 C 0.49167 0.06742 0.46072 0.0
C1490 C 0.48708 0.09702 0.42706 0.0
C1491 C 0.50555 0.11152 0.43761 0.0
C1492 C 0.51939 0.10184 0.45743 0.0
C1493 C 0.51211 0.07984 0.46899 0.0
C1494 C 0.472 0.10624 0.40572 0.0
C1495 C 0.54012 0.11596 0.46834 0.0
H1496 H 0.52585 0.17745 0.38591 0.0
H1497 H 0.47939 0.19153 0.44756 0.0
H1498 H 0.54575 0.11811 0.40843 0.0
H1499 H 0.5245 0.11814 0.38348 0.0
H1500 H 0.54804 0.14065 0.38382 0.0
H1501 H 0.46872 0.16149 0.47667 0.0
H1502 H 0.46519 0.13206 0.46196 0.0
H1503 H 0.49036 0.13789 0.48168 0.0
H1504 H 0.4646 0.06536 0.43243 0.0
H1505 H 0.52074 0.07399 0.48609 0.0
H1506 H 0.48324 0.11439 0.39084 0.0
H1507 H 0.46006 0.12075 0.41265 0.0
H1508 H 0.46085 0.09144 0.39741 0.0
H1509 H 0.54993 0.12622 0.45365 0.0
H1510 H 0.55265 0.10361 0.47818 0.0
H1511 H 0.53342 0.12938 0.48206 0.0
C1512 C 0.58606 0.72371 0.1389 0.0
C1513 C 0.57193 0.74368 0.14535 0.0
C1514 C 0.60849 0.72054 0.1498 0.0
C1515 C 0.61703 0.73808 0.16706 0.0
C1516 C 0.60351 0.75918 0.17222 0.0
C1517 C 0.58086 0.76153 0.16159 0.0
C1518 C 0.62233 0.69775 0.14404 0.0
C1519 C 0.61246 0.77868 0.18994 0.0
C1520 C 0.6543 0.72107 0.2227 0.0
C1521 C 0.67627 0.73187 0.21655 0.0
C1522 C 0.63524 0.7215 0.20592 0.0
C1523 C 0.63831 0.7329 0.18241 0.0
C1524 C 0.66106 0.74161 0.17516 0.0
C1525 C 0.67988 0.7409 0.19237 0.0
C1526 C 0.61133 0.71158 0.21421 0.0
C1527 C 0.66517 0.75359 0.15018 0.0
H1528 H 0.57911 0.7099 0.12626 0.0
H1529 H 0.57003 0.77718 0.16617 0.0
H1530 H 0.64122 0.70237 0.1401 0.0
H1531 H 0.62206 0.68543 0.16054 0.0
H1532 H 0.61477 0.68762 0.12785 0.0
H1533 H 0.60113 0.7952 0.18962 0.0
H1534 H 0.61273 0.77128 0.20925 0.0
H1535 H 0.63095 0.78419 0.18512 0.0
H1536 H 0.65153 0.71356 0.24123 0.0
H1537 H 0.69688 0.74897 0.18742 0.0
H1538 H 0.60341 0.69967 0.19958 0.0
H1539 H 0.59898 0.72699 0.21722 0.0
H1540 H 0.61258 0.70094 0.23185 0.0
H1541 H 0.65501 0.74419 0.13517 0.0
H1542 H 0.68435 0.75375 0.14529 0.0
H1543 H 0.65907 0.77281 0.15097 0.0
C1544 C 0.02199 0.17715 0.57213 0.0
C1545 C 0.00307 0.1838 0.58745 0.0
C1546 C 0.02477 0.15286 0.56476 0.0
C1547 C 0.00765 0.13511 0.57217 0.0
C1548 C 0.98945 0.14144 0.58907 0.0
C1549 C 0.98753 0.16582 0.59679 0.0
C1550 C 0.04483 0.14663 0.54729 0.0
C1551 C 0.97075 0.12307 0.59716 0.0
C1552 C -0.00633 0.09434 0.51795 0.0
C1553 C 0.00624 0.07313 0.52388 0.0
C1554 C -0.00712 0.11394 0.53436 0.0
C1555 C 0.00536 0.11252 0.55724 0.0
C1556 C 0.01716 0.09069 0.56406 0.0
C1557 C 0.01726 0.07094 0.54724 0.0
C1558 C 0.97948 0.13658 0.52656 0.0
C1559 C 0.03052 0.08859 0.58841 0.0
H1560 H 0.03447 0.19102 0.56564 0.0
H1561 H 0.97315 0.17104 0.60906 0.0
H1562 H 0.05304 0.12904 0.55276 0.0
H1563 H 0.03771 0.14451 0.52806 0.0
H1564 H 0.05885 0.16111 0.54702 0.0
H1565 H 0.96085 0.12941 0.61381 0.0
H1566 H 0.95782 0.12023 0.58171 0.0
H1567 H 0.97883 0.10512 0.60143 0.0
H1568 H 0.98437 0.09567 0.50023 0.0
H1569 H 0.02656 0.05427 0.55194 0.0
H1570 H 0.99225 0.15185 0.52316 0.0
H1571 H 0.96725 0.14235 0.54159 0.0
H1572 H 0.96889 0.13368 0.50925 0.0
H1573 H 0.04781 0.09843 0.58677 0.0
H1574 H 0.03409 0.06921 0.59332 0.0
H1575 H 0.02054 0.09714 0.60388 0.0
C1576 C 0.59004 0.21918 0.34835 0.0
C1577 C 0.57288 0.23634 0.3411 0.0
C1578 C 0.61237 0.21842 0.33668 0.0
C1579 C 0.61783 0.2356 0.31772 0.0
C1580 C 0.60031 0.25247 0.30983 0.0
C1581 C 0.57799 0.25247 0.32148 0.0
C1582 C 0.63031 0.1998 0.34523 0.0
C1583 C 0.60543 0.27122 0.28973 0.0
C1584 C 0.67816 0.26297 0.30501 0.0
C1585 C 0.68174 0.25525 0.28048 0.0
C1586 C 0.65858 0.25446 0.31873 0.0
C1587 C 0.64234 0.23781 0.30747 0.0
C1588 C 0.64783 0.22743 0.284 0.0
C1589 C 0.66751 0.2365 0.27057 0.0
C1590 C 0.6536 0.26591 0.34376 0.0
C1591 C 0.63147 0.20889 0.27186 0.0
H1592 H 0.58612 0.20639 0.36332 0.0
H1593 H 0.5648 0.26568 0.31572 0.0
H1594 H 0.63988 0.19192 0.3291 0.0
H1595 H 0.64375 0.2088 0.35743 0.0
H1596 H 0.62179 0.18469 0.356 0.0
H1597 H 0.58972 0.28264 0.28538 0.0
H1598 H 0.62025 0.28345 0.29576 0.0
H1599 H 0.61111 0.26203 0.27234 0.0
H1600 H 0.68917 0.27767 0.31246 0.0
H1601 H 0.67026 0.23074 0.25145 0.0
H1602 H 0.64759 0.25192 0.35742 0.0
H1603 H 0.63912 0.27941 0.34165 0.0
H1604 H 0.66952 0.27551 0.35146 0.0
H1605 H 0.62588 0.19473 0.28558 0.0
H1606 H 0.64003 0.19986 0.2557 0.0
H1607 H 0.61517 0.2181 0.26511 0.0
C1608 C 0.48959 0.82729 0.09106 0.0
C1609 C 0.5003 0.80755 0.07901 0.0
C1610 C 0.48925 0.85053 0.08006 0.0
C1611 C 0.49968 0.8541 0.0563 0.0
C1612 C 0.50997 0.83416 0.04367 0.0
C1613 C 0.51023 0.81108 0.05524 0.0
C1614 C 0.47817 0.8714 0.09417 0.0
C1615 C 0.52105 0.83733 0.01821 0.0
C1616 C 0.47886 0.91199 0.02467 0.0
C1617 C 0.49629 0.92862 0.03269 0.0
C1618 C 0.48039 0.88716 0.031 0.0
C1619 C 0.50007 0.87899 0.04522 0.0
C1620 C 0.51863 0.8956 0.05162 0.0
C1621 C 0.51632 0.9204 0.04558 0.0
C1622 C 0.4602 0.87006 0.02397 0.0
C1623 C 0.54024 0.88748 0.0661 0.0
H1624 H 0.48193 0.82476 0.10944 0.0
H1625 H 0.51847 0.79587 0.04577 0.0
H1626 H 0.49183 0.88572 0.09801 0.0
H1627 H 0.46403 0.87993 0.08269 0.0
H1628 H 0.47031 0.86541 0.11221 0.0
H1629 H 0.52752 0.81979 0.01049 0.0
H1630 H 0.50794 0.84518 0.00499 0.0
H1631 H 0.53624 0.85042 0.01933 0.0
H1632 H 0.46344 0.91863 0.01461 0.0
H1633 H 0.52989 0.93347 0.05137 0.0
H1634 H 0.45003 0.86499 0.04097 0.0
H1635 H 0.46715 0.85292 0.01586 0.0
H1636 H 0.44779 0.87852 0.01037 0.0
H1637 H 0.535 0.88282 0.08551 0.0
H1638 H 0.55429 0.90193 0.06678 0.0
H1639 H 0.54784 0.87081 0.05765 0.0
C1640 C 0.90637 0.74202 0.8488 0.0
C1641 C 0.92878 0.74601 0.83804 0.0
C1642 C 0.8855 0.74383 0.83458 0.0
C1643 C 0.88699 0.74945 0.80879 0.0
C1644 C 0.90949 0.75437 0.79795 0.0
C1645 C 0.93016 0.75268 0.81275 0.0
C1646 C 0.86185 0.73886 0.84706 0.0
C1647 C 0.91185 0.76033 0.77054 0.0
C1648 C 0.834 0.72096 0.7764 0.0
C1649 C 0.81818 0.74052 0.77579 0.0
C1650 C 0.85749 0.72428 0.78464 0.0
C1651 C 0.86507 0.7476 0.79318 0.0
C1652 C 0.84972 0.76787 0.79061 0.0
C1653 C 0.8264 0.76409 0.78171 0.0
C1654 C 0.87343 0.7023 0.78643 0.0
C1655 C 0.85708 0.79303 0.79946 0.0
H1656 H 0.90509 0.73726 0.86841 0.0
H1657 H 0.94742 0.75593 0.80434 0.0
H1658 H 0.84933 0.75394 0.84308 0.0
H1659 H 0.85382 0.7218 0.83946 0.0
H1660 H 0.8636 0.73682 0.86762 0.0
H1661 H 0.92984 0.76759 0.76591 0.0
H1662 H 0.90861 0.74351 0.75944 0.0
H1663 H 0.8984 0.77391 0.76471 0.0
H1664 H 0.82757 0.70275 0.77176 0.0
H1665 H 0.81402 0.77915 0.78154 0.0
H1666 H 0.87502 0.69657 0.80625 0.0
H1667 H 0.89157 0.70689 0.77964 0.0
H1668 H 0.86635 0.68657 0.77551 0.0
H1669 H 0.85814 0.79309 0.82015 0.0
H1670 H 0.84428 0.80726 0.79349 0.0
H1671 H 0.87499 0.79796 0.79228 0.0
C1672 C 0.94368 0.99437 0.80466 0.0
C1673 C 0.91935 -0.00092 0.80192 0.0
C1674 C 0.95472 -0.00432 0.82819 0.0
C1675 C 0.94098 0.00143 0.84942 0.0
C1676 C 0.91632 0.00578 0.84681 0.0
C1677 C 0.90586 0.00479 0.82306 0.0
C1678 C 0.98109 0.99119 0.83032 0.0
C1679 C 0.90093 0.01134 0.86913 0.0
C1680 C 0.96227 0.98635 0.91496 0.0
C1681 C 0.9686 0.00962 0.92371 0.0
C1682 C 0.95375 0.9832 0.8905 0.0
C1683 C 0.95237 0.00374 0.87437 0.0
C1684 C 0.96008 0.02703 0.88284 0.0
C1685 C 0.96775 0.02975 0.90758 0.0
C1686 C 0.94505 0.95822 0.8824 0.0
C1687 C 0.95894 0.04934 0.86621 0.0
H1688 H 0.95417 0.98991 0.78838 0.0
H1689 H 0.88696 0.0081 0.82113 0.0
H1690 H 0.99013 0.00751 0.8384 0.0
H1691 H 0.98435 0.97564 0.84318 0.0
H1692 H 0.9893 0.9871 0.81199 0.0
H1693 H 0.88188 0.01327 0.86401 0.0
H1694 H 0.90249 -0.00346 0.88324 0.0
H1695 H 0.9071 0.02855 0.87808 0.0
H1696 H 0.96235 0.97096 0.92778 0.0
H1697 H 0.97232 0.04778 0.91464 0.0
H1698 H 0.95724 0.95086 0.86808 0.0
H1699 H 0.92712 0.95936 0.8738 0.0
H1700 H 0.94413 0.94509 0.89824 0.0
H1701 H 0.96738 0.04558 0.84794 0.0
H1702 H 0.96787 0.06551 0.87476 0.0
H1703 H 0.94008 0.05395 0.86252 0.0
C1704 C 0.76499 0.17669 0.56927 0.0
C1705 C 0.7555 0.15433 0.5612 0.0
C1706 C 0.75938 0.18581 0.5929 0.0
C1707 C 0.74414 0.17204 0.60878 0.0
C1708 C 0.73476 0.14931 0.60087 0.0
C1709 C 0.7405 0.14074 0.5771 0.0
C1710 C 0.76963 0.21026 0.60084 0.0
C1711 C 0.71857 0.13419 0.61742 0.0
C1712 C 0.75129 0.19157 0.67565 0.0
C1713 C 0.73393 0.20959 0.67699 0.0
C1714 C 0.75374 0.17761 0.65397 0.0
C1715 C 0.73816 0.18172 0.63363 0.0
C1716 C 0.71896 0.19804 0.63608 0.0
C1717 C 0.71721 0.21202 0.65779 0.0
C1718 C 0.77434 0.16027 0.65193 0.0
C1719 C 0.70188 0.20276 0.61484 0.0
H1720 H 0.77647 0.18725 0.55699 0.0
H1721 H 0.73318 0.12333 0.57098 0.0
H1722 H 0.75504 0.22307 0.60514 0.0
H1723 H 0.78035 0.20805 0.61811 0.0
H1724 H 0.78111 0.21866 0.58623 0.0
H1725 H 0.71257 0.11696 0.60829 0.0
H1726 H 0.72792 0.12953 0.63503 0.0
H1727 H 0.70267 0.1449 0.62253 0.0
H1728 H 0.7645 0.19024 0.69034 0.0
H1729 H 0.70391 0.22619 0.65896 0.0
H1730 H 0.78591 0.16556 0.63602 0.0
H1731 H 0.7676 0.14147 0.64833 0.0
H1732 H 0.78536 0.16015 0.66913 0.0
H1733 H 0.7109 0.21418 0.60047 0.0
H1734 H 0.68578 0.21253 0.6212 0.0
H1735 H 0.69627 0.18539 0.60581 0.0
C1736 C 0.58292 0.03076 0.33285 0.0
C1737 C 0.57848 0.02009 0.30955 0.0
C1738 C 0.56738 0.0267 0.35282 0.0
C1739 C 0.54676 0.01202 0.34911 0.0
C1740 C 0.54092 0.00344 0.32497 0.0
C1741 C 0.55705 0.00732 0.30545 0.0
C1742 C 0.57429 0.03613 0.37836 0.0
C1743 C 0.5186 0.98856 0.32019 0.0
C1744 C 0.53558 0.97274 0.40545 0.0
C1745 C 0.52018 0.98745 0.41922 0.0
C1746 C 0.54312 0.97978 0.38169 0.0
C1747 C 0.53446 0.00173 0.37117 0.0
C1748 C 0.51676 0.01515 0.3837 0.0
C1749 C 0.50992 0.00794 0.4078 0.0
C1750 C 0.56217 0.96497 0.36904 0.0
C1751 C 0.50646 0.03816 0.37266 0.0
H1752 H 0.59933 0.0409 0.336 0.0
H1753 H 0.55331 -0.00047 0.28725 0.0
H1754 H 0.55906 0.04536 0.38727 0.0
H1755 H 0.57932 0.02054 0.39052 0.0
H1756 H 0.58954 0.04921 0.37758 0.0
H1757 H 0.51396 0.98813 0.30002 0.0
H1758 H 0.52132 0.96947 0.32657 0.0
H1759 H 0.50337 -0.00399 0.33077 0.0
H1760 H 0.54319 0.95657 0.41393 0.0
H1761 H 0.49775 0.01927 0.41821 0.0
H1762 H 0.57894 0.97586 0.36816 0.0
H1763 H 0.55688 0.96053 0.34961 0.0
H1764 H 0.56586 0.9476 0.37906 0.0
H1765 H 0.51855 0.05384 0.37665 0.0
H1766 H 0.48884 0.04227 0.3809 0.0
H1767 H 0.50451 0.03665 0.35209 0.0
C1768 C 0.70886 0.81289 0.07025 0.0
C1769 C 0.72427 0.83277 0.06588 0.0
C1770 C 0.71042 0.79901 0.09232 0.0
C1771 C 0.72759 0.80539 0.11069 0.0
C1772 C 0.74281 0.82586 0.10659 0.0
C1773 C 0.74097 0.83924 0.08429 0.0
C1774 C 0.69361 0.77761 0.09579 0.0
C1775 C 0.76184 0.83301 0.12526 0.0
C1776 C 0.73284 0.7829 0.17782 0.0
C1777 C 0.75035 0.76509 0.1751 0.0
C1778 C 0.72321 0.79464 0.15662 0.0
C1779 C 0.73215 0.78909 0.13254 0.0
C1780 C 0.74839 0.76973 0.12979 0.0
C1781 C 0.75672 0.75759 0.15101 0.0
C1782 C 0.70465 0.814 0.16009 0.0
C1783 C 0.75878 0.76334 0.10467 0.0
H1784 H 0.69573 0.80791 0.05624 0.0
H1785 H 0.75287 0.85467 0.08119 0.0
H1786 H 0.70262 0.76177 0.10446 0.0
H1787 H 0.67901 0.78329 0.10829 0.0
H1788 H 0.68558 0.7716 0.07782 0.0
H1789 H 0.77158 0.84996 0.11973 0.0
H1790 H 0.75385 0.83592 0.1439 0.0
H1791 H 0.77486 0.818 0.12714 0.0
H1792 H 0.72766 0.78861 0.19636 0.0
H1793 H 0.77002 0.74354 0.1488 0.0
H1794 H 0.69045 0.81203 0.14577 0.0
H1795 H 0.71293 0.83236 0.15772 0.0
H1796 H 0.69648 0.81301 0.17894 0.0
H1797 H 0.7444 0.75978 0.0909 0.0
H1798 H 0.77036 0.74702 0.10559 0.0
H1799 H 0.76957 0.77901 0.09761 0.0
C1800 C 0.92557 0.9758 0.66641 0.0
C1801 C 0.90898 0.99169 0.67675 0.0
C1802 C 0.93562 0.98057 0.64295 0.0
C1803 C 0.92869 0.00164 0.62933 0.0
C1804 C 0.91222 0.018 0.63981 0.0
C1805 C 0.9026 0.01286 0.66345 0.0
C1806 C 0.95334 0.96271 0.63254 0.0
C1807 C 0.90425 0.04051 0.62586 0.0
C1808 C 0.97371 0.01207 0.57877 0.0
C1809 C 0.96475 -0.00404 0.56072 0.0
C1810 C 0.96063 0.01697 0.60041 0.0
C1811 C 0.93817 0.00544 0.60371 0.0
C1812 C 0.92759 0.99249 0.58361 0.0
C1813 C 0.94116 0.98776 0.56227 0.0
C1814 C 0.97244 0.03136 0.62109 0.0
C1815 C 0.90329 0.98074 0.58609 0.0
H1816 H 0.93069 0.95953 0.67662 0.0
H1817 H 0.8897 0.02525 0.67128 0.0
H1818 H 0.94605 0.95418 0.61533 0.0
H1819 H 0.97006 0.97243 0.62741 0.0
H1820 H 0.95769 0.94792 0.64602 0.0
H1821 H 0.89466 0.0534 0.63816 0.0
H1822 H 0.91962 0.05026 0.61734 0.0
H1823 H 0.89211 0.03499 0.61046 0.0
H1824 H 0.9921 0.01822 0.57757 0.0
H1825 H 0.93438 0.9751 0.54833 0.0
H1826 H 0.98094 0.01846 0.63435 0.0
H1827 H 0.9593 0.04219 0.63164 0.0
H1828 H 0.98645 0.0439 0.6137 0.0
H1829 H 0.90383 0.96604 0.60041 0.0
H1830 H 0.897 0.97257 0.56828 0.0
H1831 H 0.89021 0.99444 0.59237 0.0
C1832 C 0.73688 0.19578 0.44285 0.0
C1833 C 0.74578 0.17189 0.44339 0.0
C1834 C 0.737 0.20954 0.42068 0.0
C1835 C 0.74618 0.19909 0.39864 0.0
C1836 C 0.7551 0.17497 0.39909 0.0
C1837 C 0.75485 0.16172 0.42146 0.0
C1838 C 0.72747 0.23524 0.42082 0.0
C1839 C 0.76499 0.16312 0.37592 0.0
C1840 C 0.73199 0.21975 0.33304 0.0
C1841 C 0.75413 0.22925 0.32581 0.0
C1842 C 0.72838 0.21134 0.35748 0.0
C1843 C 0.74722 0.21325 0.37503 0.0
C1844 C 0.76872 0.22528 0.36832 0.0
C1845 C 0.77213 0.23266 0.34352 0.0
C1846 C 0.70536 0.1982 0.36366 0.0
C1847 C 0.78889 0.22846 0.38674 0.0
H1848 H 0.72975 0.20372 0.45972 0.0
H1849 H 0.76174 0.14328 0.42169 0.0
H1850 H 0.74157 0.24834 0.41483 0.0
H1851 H 0.7126 0.23682 0.40728 0.0
H1852 H 0.72101 0.24072 0.43954 0.0
H1853 H 0.77035 0.14389 0.37925 0.0
H1854 H 0.75152 0.16337 0.36073 0.0
H1855 H 0.78076 0.17359 0.36927 0.0
H1856 H 0.71821 0.21696 0.31906 0.0
H1857 H 0.78922 0.24006 0.33771 0.0
H1858 H 0.69875 0.20367 0.38228 0.0
H1859 H 0.70853 0.17821 0.36427 0.0
H1860 H 0.6913 0.2018 0.34953 0.0
H1861 H 0.78211 0.23453 0.40512 0.0
H1862 H 0.80236 0.24196 0.38005 0.0
H1863 H 0.7978 0.21066 0.38961 0.0
C1864 C 0.56003 0.00194 0.1737 0.0
C1865 C 0.58381 0.00102 0.18129 0.0
C1866 C 0.5542 0.00527 0.14855 0.0
C1867 C 0.57268 0.00794 0.13077 0.0
C1868 C 0.5967 0.00655 0.13821 0.0
C1869 C 0.60201 0.00297 0.16344 0.0
C1870 C 0.52827 0.00625 0.14106 0.0
C1871 C 0.6167 0.00939 0.11962 0.0
C1872 C 0.55043 -0.00445 0.06609 0.0
C1873 C 0.54161 0.01863 0.05991 0.0
C1874 C 0.56234 0.99191 0.08863 0.0
C1875 C 0.56653 0.01219 0.1044 0.0
C1876 C 0.5608 0.0361 0.09635 0.0
C1877 C 0.54772 0.039 0.0743 0.0
C1878 C 0.5671 0.96603 0.09705 0.0
C1879 C 0.56595 0.05822 0.11235 0.0
H1880 H 0.54596 0.00039 0.18744 0.0
H1881 H 0.62048 0.00227 0.16921 0.0
H1882 H 0.52416 0.02461 0.13345 0.0
H1883 H 0.52446 0.99272 0.12613 0.0
H1884 H 0.51617 0.00247 0.157 0.0
H1885 H 0.63449 0.00748 0.12847 0.0
H1886 H 0.61488 -0.00447 0.10464 0.0
H1887 H 0.61577 0.02764 0.11057 0.0
H1888 H 0.54525 0.97976 0.055 0.0
H1889 H 0.54069 0.05677 0.06939 0.0
H1890 H 0.55331 0.96034 0.11073 0.0
H1891 H 0.5846 0.96471 0.10652 0.0
H1892 H 0.56647 0.95295 0.08121 0.0
H1893 H 0.55267 0.05909 0.1276 0.0
H1894 H 0.56497 0.07545 0.10136 0.0
H1895 H 0.58383 0.057 0.12105 0.0
C1896 C 0.75651 0.82386 0.93417 0.0
C1897 C 0.74036 0.84085 0.94356 0.0
C1898 C 0.75386 0.81423 0.91006 0.0
C1899 C 0.73429 0.82136 0.89507 0.0
C1900 C 0.71815 0.83886 0.90424 0.0
C1901 C 0.72149 0.84857 0.92831 0.0
C1902 C 0.77171 0.79589 0.90087 0.0
C1903 C 0.69691 0.84667 0.88899 0.0
C1904 C 0.73992 0.80236 0.8271 0.0
C1905 C 0.72964 0.7789 0.82794 0.0
C1906 C 0.74026 0.81732 0.84845 0.0
C1907 C 0.7298 0.80863 0.87091 0.0
C1908 C 0.71751 0.78589 0.87101 0.0
C1909 C 0.71775 0.77125 0.8496 0.0
C1910 C 0.7535 0.84146 0.84749 0.0
C1911 C 0.70567 0.7761 0.89431 0.0
H1912 H 0.77131 0.81807 0.9457 0.0
H1913 H 0.70895 0.86172 0.93545 0.0
H1914 H 0.7629 0.77778 0.89852 0.0
H1915 H 0.7787 0.80155 0.88236 0.0
H1916 H 0.78693 0.79379 0.91395 0.0
H1917 H 0.68725 0.862 0.8978 0.0
H1918 H 0.70254 0.85234 0.86999 0.0
H1919 H 0.6844 0.83097 0.88682 0.0
H1920 H 0.74924 0.80828 0.81041 0.0
H1921 H 0.70958 0.75319 0.85019 0.0
H1922 H 0.77085 0.83959 0.85722 0.0
H1923 H 0.74343 0.85591 0.85722 0.0
H1924 H 0.75697 0.84746 0.82798 0.0
H1925 H 0.71949 0.77073 0.90805 0.0
H1926 H 0.69421 0.75986 0.8904 0.0
H1927 H 0.69465 0.79039 0.90311 0.0
C1928 C 0.83178 0.89207 0.00557 0.0
C1929 C 0.81154 0.90599 0.0108 0.0
C1930 C 0.85469 0.90261 0.00593 0.0
C1931 C 0.85754 0.92763 0.01202 0.0
C1932 C 0.8372 0.94177 0.01746 0.0
C1933 C 0.81443 0.93083 0.01661 0.0
C1934 C 0.87583 0.88702 -0.00047 0.0
C1935 C 0.83948 0.96852 0.02404 0.0
C1936 C 0.91689 0.9551 0.03338 0.0
C1937 C 0.92431 0.96706 0.01161 0.0
C1938 C 0.8957 0.94104 0.03352 0.0
C1939 C 0.88161 0.93945 0.01152 0.0
C1940 C 0.88983 0.95061 0.98924 0.0
C1941 C 0.91109 0.96422 0.98959 0.0
C1942 C 0.88777 0.92896 0.05748 0.0
C1943 C 0.8755 0.94946 0.96536 0.0
H1944 H 0.82972 0.87289 0.00088 0.0
H1945 H 0.79892 0.94166 0.02078 0.0
H1946 H 0.88515 0.89472 0.983 0.0
H1947 H 0.88875 0.88713 0.01523 0.0
H1948 H 0.87064 0.86778 -0.00458 0.0
H1949 H 0.82203 0.97682 0.02839 0.0
H1950 H 0.85139 0.97082 0.04044 0.0
H1951 H 0.84766 0.97876 0.00829 0.0
H1952 H 0.92702 0.95761 0.05045 0.0
H1953 H 0.91682 0.97379 0.97284 0.0
H1954 H 0.88289 0.90953 0.0541 0.0
H1955 H 0.87167 0.93818 0.06457 0.0
H1956 H 0.90178 0.92977 0.07214 0.0
H1957 H 0.87039 0.93029 0.96102 0.0
H1958 H 0.88539 0.95724 0.94921 0.0
H1959 H 0.85882 0.95988 0.96768 0.0
C1960 C 0.31005 0.54797 0.99394 0.0
C1961 C 0.31278 0.57303 -0.00108 0.0
C1962 C 0.32989 0.53259 0.99325 0.0
C1963 C 0.35287 0.54265 -0.00274 0.0
C1964 C 0.35556 0.56771 0.00339 0.0
C1965 C 0.33548 0.58254 0.00423 0.0
C1966 C 0.32636 0.50583 0.98732 0.0
C1967 C 0.37979 0.57924 0.00774 0.0
C1968 C 0.41182 0.51141 0.0063 0.0
C1969 C 0.42188 0.51546 0.98272 0.0
C1970 C 0.38804 0.51766 0.01089 0.0
C1971 C 0.37445 0.52839 0.99149 0.0
C1972 C 0.38379 0.52978 0.96703 0.0
C1973 C 0.40732 0.523 0.96292 0.0
C1974 C 0.37843 0.51507 0.03703 0.0
C1975 C 0.37008 0.5413 0.9458 0.0
H1976 H 0.29249 0.54044 0.99021 0.0
H1977 H 0.33772 0.60182 0.0084 0.0
H1978 H 0.33256 0.50216 0.96806 0.0
H1979 H 0.33708 0.49438 0.00016 0.0
H1980 H 0.30739 0.5001 0.98868 0.0
H1981 H 0.37865 0.59866 0.01364 0.0
H1982 H 0.38961 0.56899 0.0223 0.0
H1983 H 0.39038 0.57846 0.99031 0.0
H1984 H 0.42296 0.5054 0.02163 0.0
H1985 H 0.41494 0.52564 0.94452 0.0
H1986 H 0.35908 0.51086 0.03685 0.0
H1987 H 0.38119 0.53253 0.0472 0.0
H1988 H 0.3878 0.50048 0.04753 0.0
H1989 H 0.35163 0.53398 0.94499 0.0
H1990 H 0.37867 0.53821 0.92744 0.0
H1991 H 0.36901 0.56133 0.94889 0.0
C1992 C 0.16788 0.57666 0.7359 0.0
C1993 C 0.14445 0.57299 0.72765 0.0
C1994 C 0.17951 0.59903 0.73212 0.0
C1995 C 0.16732 0.61815 0.71987 0.0
C1996 C 0.14394 0.6144 0.71086 0.0
C1997 C 0.13273 0.59172 0.7148 0.0
C1998 C 0.20437 0.60259 0.74244 0.0
C1999 C 0.13053 0.63458 0.69792 0.0
C2000 C 0.19071 0.67927 0.74123 0.0
C2001 C 0.20781 0.68408 0.72293 0.0
C2002 C 0.17618 0.6584 0.73969 0.0
C2003 C 0.17845 0.64266 0.71891 0.0
C2004 C 0.19415 0.64875 0.69924 0.0
C2005 C 0.20888 0.6694 0.70161 0.0
C2006 C 0.15984 0.65225 0.76125 0.0
C2007 C 0.19719 0.63217 0.67701 0.0
H2008 H 0.17706 0.56216 0.74571 0.0
H2009 H 0.11465 0.58888 0.70827 0.0
H2010 H 0.21642 0.60986 0.72778 0.0
H2011 H 0.20405 0.6162 0.75778 0.0
H2012 H 0.21191 0.58534 0.74988 0.0
H2013 H 0.11333 0.62803 0.68999 0.0
H2014 H 0.12692 0.6494 0.71146 0.0
H2015 H 0.14144 0.64263 0.68269 0.0
H2016 H 0.19045 0.6903 0.758 0.0
H2017 H 0.22243 0.67309 0.68768 0.0
H2018 H 0.15987 0.63246 0.76582 0.0
H2019 H 0.14137 0.65718 0.7561 0.0
H2020 H 0.16498 0.66231 0.77842 0.0
H2021 H 0.20716 0.61569 0.68281 0.0
H2022 H 0.20716 0.64135 0.66169 0.0
H2023 H 0.17965 0.62591 0.66977 0.0
C2024 C 0.16195 0.42616 0.50124 0.0
C2025 C 0.16885 0.41609 0.5242 0.0
C2026 C 0.13904 0.43559 0.49774 0.0
C2027 C 0.12246 0.4349 0.51765 0.0
C2028 C 0.12923 0.42447 0.54079 0.0
C2029 C 0.15239 0.41543 0.54386 0.0
C2030 C 0.13256 0.44622 0.47259 0.0
C2031 C 0.11234 0.42314 0.56255 0.0
C2032 C 0.07488 0.48188 0.50588 0.0
C2033 C 0.05849 0.46801 0.49208 0.0
C2034 C 0.09477 0.4708 0.51693 0.0
C2035 C 0.0983 0.44538 0.51373 0.0
C2036 C 0.08016 0.43098 0.50241 0.0
C2037 C 0.06057 0.44256 0.49136 0.0
C2038 C 0.11309 0.48665 0.52991 0.0
C2039 C 0.08249 0.40365 0.49984 0.0
H2040 H 0.17445 0.42662 0.48587 0.0
H2041 H 0.15746 0.40759 0.56168 0.0
H2042 H 0.11706 0.43615 0.46466 0.0
H2043 H 0.12734 0.46562 0.47473 0.0
H2044 H 0.14745 0.44535 0.45905 0.0
H2045 H 0.11727 0.40838 0.57583 0.0
H2046 H 0.1133 0.44073 0.57273 0.0
H2047 H 0.09371 0.42001 0.55635 0.0
H2048 H 0.0732 0.50162 0.50634 0.0
H2049 H 0.0478 0.43189 0.48063 0.0
H2050 H 0.129 0.48863 0.51782 0.0
H2051 H 0.11884 0.478 0.54765 0.0
H2052 H 0.10619 0.50516 0.53403 0.0
H2053 H 0.09517 0.3996 0.4846 0.0
H2054 H 0.06515 0.39472 0.49536 0.0
H2055 H 0.0896 0.39549 0.51729 0.0
C2056 C 0.8219 0.91503 0.72022 0.0
C2057 C 0.83469 0.92841 0.73812 0.0
C2058 C 0.81225 0.89192 0.72584 0.0
C2059 C 0.81571 0.88166 0.74993 0.0
C2060 C 0.82943 0.89461 0.76782 0.0
C2061 C 0.83859 0.91796 0.76178 0.0
C2062 C 0.79775 0.87877 0.70609 0.0
C2063 C 0.83418 0.88395 0.79335 0.0
C2064 C 0.76441 0.83869 0.76019 0.0
C2065 C 0.77312 0.81775 0.74862 0.0
C2066 C 0.77926 0.85907 0.76423 0.0
C2067 C 0.80328 0.85828 0.75637 0.0
C2068 C 0.81294 0.8357 0.74862 0.0
C2069 C 0.79758 0.81563 0.74461 0.0
C2070 C 0.76821 0.8825 0.77314 0.0
C2071 C 0.83866 0.83362 0.7411 0.0
H2072 H 0.81893 0.92288 0.70188 0.0
H2073 H 0.84881 0.92802 0.77562 0.0
H2074 H 0.80548 0.86057 0.7023 0.0
H2075 H 0.7793 0.87572 0.71283 0.0
H2076 H 0.79698 0.88914 0.68825 0.0
H2077 H 0.84648 0.89561 0.80455 0.0
H2078 H 0.81724 0.88177 0.80372 0.0
H2079 H 0.84195 0.86547 0.79158 0.0
H2080 H 0.7454 0.84028 0.76314 0.0
H2081 H 0.80427 0.7994 0.7355 0.0
H2082 H 0.7643 0.8943 0.75677 0.0
H2083 H 0.78052 0.89277 0.78557 0.0
H2084 H 0.7513 0.87895 0.78328 0.0
H2085 H 0.84071 0.83981 0.72148 0.0
H2086 H 0.84475 0.81438 0.74235 0.0
H2087 H 0.85032 0.84528 0.75296 0.0
C2088 C 0.67307 0.07237 0.50516 0.0
C2089 C 0.67566 0.09748 0.50072 0.0
C2090 C 0.65054 0.06182 0.50829 0.0
C2091 C 0.63019 0.07676 0.50654 0.0
C2092 C 0.63268 0.10222 0.50268 0.0
C2093 C 0.65551 0.11236 0.49992 0.0
C2094 C 0.64849 0.03455 0.51265 0.0
C2095 C 0.61127 0.11856 0.5006 0.0
C2096 C 0.57779 0.04037 0.48334 0.0
C2097 C 0.56707 0.03361 0.5058 0.0
C2098 C 0.59751 0.05603 0.48318 0.0
C2099 C 0.60646 0.06503 0.50613 0.0
C2100 C 0.59444 0.05972 0.52874 0.0
C2101 C 0.57477 0.04374 0.52834 0.0
C2102 C 0.60988 0.06122 0.45869 0.0
C2103 C 0.6033 0.06946 0.55344 0.0
H2104 H 0.68867 0.06093 0.50623 0.0
H2105 H 0.65754 0.13184 0.4966 0.0
H2106 H 0.63755 0.03071 0.52944 0.0
H2107 H 0.63942 0.02579 0.49651 0.0
H2108 H 0.66612 0.02589 0.51521 0.0
H2109 H 0.61631 0.13826 0.50057 0.0
H2110 H 0.60152 0.11446 0.48304 0.0
H2111 H 0.5988 0.11501 0.51625 0.0
H2112 H 0.57145 0.03236 0.466 0.0
H2113 H 0.56614 0.03834 0.5456 0.0
H2114 H 0.62714 0.05156 0.45833 0.0
H2115 H 0.61375 0.08106 0.45666 0.0
H2116 H 0.59912 0.05508 0.44239 0.0
H2117 H 0.61937 0.05926 0.55922 0.0
H2118 H 0.5897 0.06742 0.56833 0.0
H2119 H 0.60845 0.08904 0.55182 0.0
C2120 C 0.17836 0.43651 0.76968 0.0
C2121 C 0.15533 0.4334 0.75991 0.0
C2122 C 0.19334 0.41643 0.77293 0.0
C2123 C 0.18499 0.39288 0.76623 0.0
C2124 C 0.16193 0.38972 0.75595 0.0
C2125 C 0.14735 0.41004 0.753 0.0
C2126 C 0.21787 0.42032 0.78387 0.0
C2127 C 0.15247 0.3648 0.7484 0.0
C2128 C 0.22143 0.33707 0.75399 0.0
C2129 C 0.21511 0.32276 0.77471 0.0
C2130 C 0.21356 0.36118 0.75185 0.0
C2131 C 0.19947 0.37104 0.77112 0.0
C2132 C 0.19556 0.35762 0.79336 0.0
C2133 C 0.20332 0.33348 0.79482 0.0
C2134 C 0.21815 0.37499 0.72787 0.0
C2135 C 0.18099 0.36775 0.81451 0.0
H2136 H 0.18464 0.4546 0.77491 0.0
H2137 H 0.12965 0.40757 0.74524 0.0
H2138 H 0.21906 0.41101 0.80225 0.0
H2139 H 0.23148 0.41208 0.77163 0.0
H2140 H 0.22227 0.44001 0.78646 0.0
H2141 H 0.13452 0.36571 0.73973 0.0
H2142 H 0.16474 0.35619 0.73491 0.0
H2143 H 0.15141 0.35268 0.76501 0.0
H2144 H 0.23083 0.32888 0.73857 0.0
H2145 H 0.19892 0.32256 0.81112 0.0
H2146 H 0.22201 0.39458 0.73157 0.0
H2147 H 0.20201 0.37398 0.71592 0.0
H2148 H 0.23321 0.36713 0.71728 0.0
H2149 H 0.18604 0.38704 0.81837 0.0
H2150 H 0.18314 0.35691 0.83193 0.0
H2151 H 0.16189 0.36738 0.80919 0.0
C2152 C 0.31933 0.57608 0.24443 0.0
C2153 C 0.34141 0.57309 0.23285 0.0
C2154 C 0.3086 0.59913 0.24546 0.0
C2155 C 0.32011 0.61973 0.23447 0.0
C2156 C 0.34188 0.61664 0.22178 0.0
C2157 C 0.35234 0.5934 0.22127 0.0
C2158 C 0.28537 0.60162 0.25928 0.0
C2159 C 0.35476 0.63794 0.20969 0.0
C2160 C 0.27769 0.67299 0.23155 0.0
C2161 C 0.28174 0.68324 0.25509 0.0
C2162 C 0.29186 0.65366 0.22306 0.0
C2163 C 0.31023 0.64458 0.23864 0.0
C2164 C 0.3162 0.65719 0.26087 0.0
C2165 C 0.30173 0.67629 0.2689 0.0
C2166 C 0.28558 0.64141 0.19871 0.0
C2167 C 0.33606 0.64872 0.27773 0.0
H2168 H 0.31073 0.56053 0.25334 0.0
H2169 H 0.36935 0.5913 0.21209 0.0
H2170 H 0.28804 0.61351 0.27584 0.0
H2171 H 0.27194 0.61045 0.24713 0.0
H2172 H 0.27814 0.58369 0.26568 0.0
H2173 H 0.36725 0.63172 0.19504 0.0
H2174 H 0.34213 0.65106 0.20124 0.0
H2175 H 0.36528 0.64788 0.22407 0.0
H2176 H 0.26207 0.67827 0.221 0.0
H2177 H 0.30476 0.6843 0.28716 0.0
H2178 H 0.27571 0.62412 0.20254 0.0
H2179 H 0.30189 0.63674 0.18821 0.0
H2180 H 0.27421 0.65323 0.18686 0.0
H2181 H 0.33061 0.63141 0.28708 0.0
H2182 H 0.34052 0.66243 0.29232 0.0
H2183 H 0.3523 0.64499 0.26676 0.0
C2184 C 0.5253 0.67509 0.577 0.0
C2185 C 0.50308 0.68551 0.58184 0.0
C2186 C 0.52704 0.651 0.56799 0.0
C2187 C 0.50602 0.63749 0.56257 0.0
C2188 C 0.48354 0.64798 0.5677 0.0
C2189 C 0.48239 0.67164 0.57779 0.0
C2190 C 0.55131 0.64019 0.56391 0.0
C2191 C 0.46062 0.63461 0.56154 0.0
C2192 C 0.5005 0.59197 0.51005 0.0
C2193 C 0.49415 0.57067 0.52307 0.0
C2194 C 0.50672 0.61351 0.52272 0.0
C2195 C 0.50702 0.61357 0.54915 0.0
C2196 C 0.5039 0.59115 0.56224 0.0
C2197 C 0.49711 0.5699 0.54901 0.0
C2198 C 0.50974 0.6368 0.50777 0.0
C2199 C 0.50541 0.59009 0.59033 0.0
H2200 H 0.54135 0.68572 0.58053 0.0
H2201 H 0.46525 0.67973 0.58155 0.0
H2202 H 0.55202 0.62139 0.57172 0.0
H2203 H 0.55496 0.63885 0.54363 0.0
H2204 H 0.56565 0.65145 0.57261 0.0
H2205 H 0.44466 0.64535 0.56651 0.0
H2206 H 0.45991 0.63053 0.54125 0.0
H2207 H 0.45981 0.6169 0.57164 0.0
H2208 H 0.49797 0.59255 0.48996 0.0
H2209 H 0.49196 0.55349 0.55914 0.0
H2210 H 0.5251 0.64775 0.51465 0.0
H2211 H 0.4936 0.64811 0.50989 0.0
H2212 H 0.51235 0.6331 0.48759 0.0
H2213 H 0.52052 0.60146 0.59724 0.0
H2214 H 0.50754 0.57104 0.59716 0.0
H2215 H 0.48886 0.5975 0.59845 0.0
C2216 C 0.58276 0.2646 0.83518 0.0
C2217 C 0.56148 0.25255 0.82877 0.0
C2218 C 0.60342 0.26141 0.82114 0.0
C2219 C 0.60276 0.24584 0.80008 0.0
C2220 C 0.58099 0.23491 0.79249 0.0
C2221 C 0.56055 0.23831 0.80702 0.0
C2222 C 0.62632 0.2734 0.8299 0.0
C2223 C 0.57959 0.21857 0.76986 0.0
C2224 C 0.66067 0.24846 0.76422 0.0
C2225 C 0.6732 0.22958 0.77599 0.0
C2226 C 0.63678 0.25282 0.77025 0.0
C2227 C 0.62551 0.23823 0.78873 0.0
C2228 C 0.63752 0.21803 0.79916 0.0
C2229 C 0.66108 0.21378 0.79241 0.0
C2230 C 0.62427 0.2741 0.75819 0.0
C2231 C 0.62631 0.20217 0.81919 0.0
H2232 H 0.58354 0.27594 0.85174 0.0
H2233 H 0.54408 0.22916 0.80179 0.0
H2234 H 0.63884 0.25916 0.8364 0.0
H2235 H 0.63501 0.28339 0.8143 0.0
H2236 H 0.62341 0.28643 0.84544 0.0
H2237 H 0.5609 0.21494 0.76402 0.0
H2238 H 0.58942 0.2269 0.75399 0.0
H2239 H 0.58804 0.2008 0.77417 0.0
H2240 H 0.66981 0.26063 0.75133 0.0
H2241 H 0.67043 0.19885 0.80129 0.0
H2242 H 0.62466 0.28995 0.77108 0.0
H2243 H 0.60535 0.26948 0.75428 0.0
H2244 H 0.63304 0.27975 0.7405 0.0
H2245 H 0.62398 0.21311 0.83642 0.0
H2246 H 0.63732 0.18603 0.82386 0.0
H2247 H 0.60845 0.19563 0.81323 0.0
C2248 C 0.00569 0.31887 0.05219 0.0
C2249 C -0.00706 0.31106 0.07321 0.0
C2250 C 0.00442 0.34318 0.04375 0.0
C2251 C 0.9895 0.35996 0.05622 0.0
C2252 C 0.97533 0.35171 0.0764 0.0
C2253 C 0.97751 0.32747 0.08493 0.0
C2254 C 0.02015 0.35121 0.02237 0.0
C2255 C 0.95856 0.3687 0.08961 0.0
C2256 C 0.0155 0.42377 0.05295 0.0
C2257 C 0.00532 0.43259 0.03087 0.0
C2258 C 0.00902 0.40086 0.06266 0.0
C2259 C 0.99152 0.38659 0.05018 0.0
C2260 C 0.97908 0.39676 0.0296 0.0
C2261 C 0.98639 0.41965 0.0199 0.0
C2262 C 0.02302 0.39081 0.08445 0.0
C2263 C 0.95959 0.38255 0.01652 0.0
H2264 H 0.01755 0.30626 0.04301 0.0
H2265 H 0.96723 0.32141 0.10093 0.0
H2266 H 0.00942 0.36015 0.0076 0.0
H2267 H 0.03341 0.36489 0.02912 0.0
H2268 H 0.02983 0.3357 0.01391 0.0
H2269 H 0.94588 0.35857 0.10181 0.0
H2270 H 0.96889 0.3817 0.10136 0.0
H2271 H 0.94834 0.37965 0.07589 0.0
H2272 H 0.03035 0.43372 0.06121 0.0
H2273 H 0.97889 0.4262 0.0025 0.0
H2274 H 0.03473 0.37598 0.0778 0.0
H2275 H 0.01095 0.38282 0.09868 0.0
H2276 H 0.03431 0.40506 0.09351 0.0
H2277 H 0.95 0.39392 0.00262 0.0
H2278 H 0.94663 0.37529 0.03033 0.0
H2279 H 0.96725 0.36665 0.00671 0.0
C2280 C 0.90192 0.71812 0.3488 0.0
C2281 C 0.91963 0.73627 0.35024 0.0
C2282 C 0.87879 0.72398 0.34105 0.0
C2283 C 0.87341 0.7486 0.33516 0.0
C2284 C 0.89068 0.76722 0.33907 0.0
C2285 C 0.9137 0.76078 0.34622 0.0
C2286 C 0.86096 0.70356 0.33678 0.0
C2287 C 0.88553 0.79371 0.3334 0.0
C2288 C 0.83805 0.76132 0.27715 0.0
C2289 C 0.81571 0.76766 0.28659 0.0
C2290 C 0.8564 0.75407 0.29286 0.0
C2291 C 0.8528 0.75411 0.31895 0.0
C2292 C 0.83043 0.76072 0.32887 0.0
C2293 C 0.81185 0.767 0.31243 0.0
C2294 C 0.87965 0.7462 0.28134 0.0
C2295 C 0.82621 0.76126 0.35666 0.0
H2296 H 0.90645 0.6992 0.35236 0.0
H2297 H 0.92722 0.77496 0.34811 0.0
H2298 H 0.84286 0.709 0.34257 0.0
H2299 H 0.86021 0.69926 0.31655 0.0
H2300 H 0.86591 0.68666 0.34703 0.0
H2301 H 0.8989 0.80621 0.34204 0.0
H2302 H 0.88589 0.79665 0.31289 0.0
H2303 H 0.86758 0.79869 0.34011 0.0
H2304 H 0.84103 0.76092 0.25717 0.0
H2305 H 0.79442 0.77134 0.31969 0.0
H2306 H 0.8847 0.7279 0.28846 0.0
H2307 H 0.89406 0.75926 0.28656 0.0
H2308 H 0.87873 0.74532 0.26064 0.0
H2309 H 0.83016 0.74319 0.36505 0.0
H2310 H 0.8076 0.76613 0.36131 0.0
H2311 H 0.83845 0.7748 0.36545 0.0
C2312 C 0.47492 0.31802 0.93088 0.0
C2313 C 0.48742 0.31128 0.90946 0.0
C2314 C 0.4768 0.34179 0.94032 0.0
C2315 C 0.49142 0.35919 0.92792 0.0
C2316 C 0.50338 0.3528 0.90577 0.0
C2317 C 0.50133 0.32882 0.89684 0.0
C2318 C 0.46394 0.34799 0.96417 0.0
C2319 C 0.51905 0.37097 0.89206 0.0
C2320 C 0.48405 0.42429 0.95031 0.0
C2321 C 0.50134 0.42521 0.96917 0.0
C2322 C 0.48126 0.40322 0.93563 0.0
C2323 C 0.49631 0.38302 0.93993 0.0
C2324 C 0.5149 0.3847 0.95768 0.0
C2325 C 0.51713 0.40577 0.97213 0.0
C2326 C 0.46144 0.40203 0.9166 0.0
C2327 C 0.5316 0.36371 0.96249 0.0
H2328 H 0.46405 0.30457 0.94061 0.0
H2329 H 0.51083 0.32378 0.88008 0.0
H2330 H 0.4771 0.3517 0.97921 0.0
H2331 H 0.45333 0.36481 0.96159 0.0
H2332 H 0.45188 0.33297 0.97044 0.0
H2333 H 0.52479 0.36399 0.87361 0.0
H2334 H 0.5096 0.38847 0.88924 0.0
H2335 H 0.53515 0.37505 0.90341 0.0
H2336 H 0.47201 0.43947 0.94789 0.0
H2337 H 0.53094 0.40677 0.98629 0.0
H2338 H 0.44732 0.3893 0.92329 0.0
H2339 H 0.46806 0.39479 0.89862 0.0
H2340 H 0.4534 0.42022 0.91325 0.0
H2341 H 0.52158 0.34818 0.97093 0.0
H2342 H 0.5464 0.36887 0.9753 0.0
H2343 H 0.5393 0.35715 0.94472 0.0
C2344 C 0.91675 0.24407 0.16997 0.0
C2345 C 0.92101 0.26027 0.15014 0.0
C2346 C 0.89481 0.24378 0.18244 0.0
C2347 C 0.87683 0.2604 0.17518 0.0
C2348 C 0.8813 0.27732 0.15572 0.0
C2349 C 0.90326 0.27692 0.14329 0.0
C2350 C 0.89066 0.22524 0.20297 0.0
C2351 C 0.86278 0.29559 0.14779 0.0
C2352 C 0.81511 0.23734 0.19138 0.0
C2353 C 0.81216 0.24718 0.21522 0.0
C2354 C 0.83539 0.24292 0.17721 0.0
C2355 C 0.85298 0.25891 0.18717 0.0
C2356 C 0.84885 0.27079 0.21021 0.0
C2357 C 0.82848 0.2646 0.22412 0.0
C2358 C 0.83916 0.22952 0.15295 0.0
C2359 C 0.86697 0.28833 0.22115 0.0
H2360 H 0.93037 0.23119 0.17538 0.0
H2361 H 0.9065 0.2897 0.12814 0.0
H2362 H 0.88575 0.2346 0.22052 0.0
H2363 H 0.8756 0.21294 0.19782 0.0
H2364 H 0.90658 0.2139 0.20663 0.0
H2365 H 0.86966 0.30869 0.13359 0.0
H2366 H 0.84708 0.28587 0.13987 0.0
H2367 H 0.85654 0.30603 0.16421 0.0
H2368 H 0.80272 0.22338 0.18487 0.0
H2369 H 0.82647 0.27163 0.2429 0.0
H2370 H 0.8532 0.21562 0.1556 0.0
H2371 H 0.84533 0.24228 0.13815 0.0
H2372 H 0.82269 0.22009 0.14639 0.0
H2373 H 0.86074 0.29663 0.23883 0.0
H2374 H 0.871 0.30313 0.20754 0.0
H2375 H 0.88385 0.27868 0.22497 0.0
C2376 C 0.01944 0.69 0.44455 0.0
C2377 C 0.00118 0.69641 0.42803 0.0
C2378 C 0.01953 0.66682 0.45593 0.0
C2379 C 0.00079 0.65 0.45079 0.0
C2380 C 0.98112 0.65748 0.43624 0.0
C2381 C 0.98166 0.68054 0.42485 0.0
C2382 C 0.04073 0.65956 0.47151 0.0
C2383 C 0.96053 0.64034 0.43069 0.0
C2384 C 0.01679 0.5837 0.44179 0.0
C2385 C 0.00771 0.57263 0.46346 0.0
C2386 C 0.01497 0.60889 0.43784 0.0
C2387 C 0.00392 0.62357 0.45607 0.0
C2388 C -0.00496 0.61272 0.47822 0.0
C2389 C -0.00303 0.5873 0.48164 0.0
C2390 C 0.02442 0.61969 0.41376 0.0
C2391 C 0.98316 0.62785 0.49803 0.0
H2392 H 0.03445 0.70235 0.4472 0.0
H2393 H 0.96723 0.68573 0.41253 0.0
H2394 H 0.03503 0.64911 0.48827 0.0
H2395 H 0.05234 0.64751 0.46035 0.0
H2396 H 0.0514 0.67573 0.47754 0.0
H2397 H 0.94489 0.65025 0.42319 0.0
H2398 H 0.9661 0.62672 0.4166 0.0
H2399 H 0.95503 0.63014 0.44768 0.0
H2400 H 0.02505 0.57262 0.42757 0.0
H2401 H 0.98988 0.57894 0.49846 0.0
H2402 H 0.03745 0.63454 0.41783 0.0
H2403 H 0.00962 0.62784 0.40292 0.0
H2404 H 0.0332 0.60585 0.40188 0.0
H2405 H -0.00494 0.64315 0.50382 0.0
H2406 H 0.9784 0.61685 0.51479 0.0
H2407 H 0.96672 0.63606 0.49036 0.0
C2408 C 0.58249 0.74619 0.65034 0.0
C2409 C 0.55953 0.7462 0.66047 0.0
C2410 C 0.60267 0.74775 0.66567 0.0
C2411 C 0.59992 0.74893 0.69191 0.0
C2412 C 0.57681 0.74829 0.70236 0.0
C2413 C 0.55682 0.74719 0.68648 0.0
C2414 C 0.62697 0.74875 0.65366 0.0
C2415 C 0.57323 0.74905 0.73025 0.0
C2416 C 0.65853 0.73681 0.72475 0.0
C2417 C 0.66781 0.76063 0.72639 0.0
C2418 C 0.63543 0.7326 0.71535 0.0
C2419 C 0.62139 0.75275 0.70785 0.0
C2420 C 0.62993 0.77686 0.7119 0.0
C2421 C 0.65306 0.78049 0.72105 0.0
C2422 C 0.62681 0.70663 0.71158 0.0
C2423 C 0.61567 0.79889 0.70416 0.0
H2424 H 0.58473 0.74548 0.63026 0.0
H2425 H 0.53911 0.74693 0.69441 0.0
H2426 H 0.63598 0.76633 0.65829 0.0
H2427 H 0.63822 0.73383 0.66106 0.0
H2428 H 0.62604 0.74705 0.63302 0.0
H2429 H 0.55422 0.74685 0.73548 0.0
H2430 H 0.5836 0.73436 0.73938 0.0
H2431 H 0.57994 0.76673 0.73774 0.0
H2432 H 0.66996 0.72144 0.72875 0.0
H2433 H 0.66021 0.79894 0.72246 0.0
H2434 H 0.62297 0.70332 0.69153 0.0
H2435 H 0.60997 0.70359 0.72193 0.0
H2436 H 0.64004 0.69303 0.71795 0.0
H2437 H 0.61541 0.80024 0.68348 0.0
H2438 H 0.62331 0.81617 0.71174 0.0
H2439 H 0.59698 0.79707 0.71049 0.0
C2440 C 0.55403 0.50599 0.69363 0.0
C2441 C 0.5773 0.497 0.69496 0.0
C2442 C 0.54129 0.50593 0.67105 0.0
C2443 C 0.55208 0.4967 0.64927 0.0
C2444 C 0.57566 0.48783 0.6504 0.0
C2445 C 0.58797 0.48804 0.67325 0.0
C2446 C 0.51619 0.51546 0.67056 0.0
C2447 C 0.58785 0.47797 0.6275 0.0
C2448 C 0.51646 0.47053 0.59534 0.0
C2449 C 0.51835 0.48933 0.57768 0.0
C2450 C 0.52603 0.47336 0.61937 0.0
C2451 C 0.53844 0.49522 0.62549 0.0
C2452 C 0.53932 0.51477 0.60806 0.0
C2453 C 0.52895 0.51167 0.58437 0.0
C2454 C 0.52428 0.45228 0.63756 0.0
C2455 C 0.55283 0.53814 0.61365 0.0
H2456 H 0.54566 0.51306 0.71028 0.0
H2457 H 0.60598 0.48121 0.67406 0.0
H2458 H 0.51464 0.53033 0.65654 0.0
H2459 H 0.5037 0.50062 0.66486 0.0
H2460 H 0.51055 0.52256 0.689 0.0
H2461 H 0.60656 0.47271 0.63131 0.0
H2462 H 0.57803 0.46167 0.62049 0.0
H2463 H 0.58776 0.49188 0.61238 0.0
H2464 H 0.5086 0.45314 0.58989 0.0
H2465 H 0.53097 0.52592 0.57038 0.0
H2466 H 0.51834 0.4588 0.65609 0.0
H2467 H 0.54209 0.44406 0.64011 0.0
H2468 H 0.51175 0.43779 0.63102 0.0
H2469 H 0.54712 0.5458 0.63179 0.0
H2470 H 0.55034 0.5522 0.59889 0.0
H2471 H 0.5721 0.53421 0.61522 0.0
C2472 C 0.75366 0.36046 0.91577 0.0
C2473 C 0.762 0.34571 0.93533 0.0
C2474 C 0.75364 0.35197 0.8911 0.0
C2475 C 0.76169 0.32808 0.88617 0.0
C2476 C 0.77086 0.31347 0.90576 0.0
C2477 C 0.77109 0.32258 0.9301 0.0
C2478 C 0.74421 0.36814 0.8705 0.0
C2479 C 0.77924 0.28768 0.90127 0.0
C2480 C 0.73516 0.28727 0.83733 0.0
C2481 C 0.75442 0.28461 0.82122 0.0
C2482 C 0.73647 0.3034 0.85739 0.0
C2483 C 0.75776 0.31684 0.86145 0.0
C2484 C 0.7765 0.31582 0.84386 0.0
C2485 C 0.77459 0.29955 0.8237 0.0
C2486 C 0.71595 0.30413 0.87552 0.0
C2487 C 0.79926 0.33027 0.84747 0.0
H2488 H 0.74697 0.37855 0.91977 0.0
H2489 H 0.77761 0.31119 0.94518 0.0
H2490 H 0.7567 0.3685 0.85451 0.0
H2491 H 0.72702 0.36065 0.86353 0.0
H2492 H 0.74136 0.38718 0.87693 0.0
H2493 H 0.78715 0.27933 0.91827 0.0
H2494 H 0.764 0.27605 0.89515 0.0
H2495 H 0.79268 0.28747 0.88617 0.0
H2496 H 0.71947 0.27576 0.83491 0.0
H2497 H 0.78936 0.29737 0.81096 0.0
H2498 H 0.71168 0.32325 0.88049 0.0
H2499 H 0.72098 0.29449 0.89298 0.0
H2500 H 0.69966 0.29521 0.86783 0.0
H2501 H 0.79547 0.34912 0.85383 0.0
H2502 H 0.80989 0.33124 0.83003 0.0
H2503 H 0.8102 0.32138 0.86211 0.0
C2504 C 0.91396 0.49735 0.17408 0.0
C2505 C 0.92413 0.51165 0.19309 0.0
C2506 C 0.92424 0.49643 0.15039 0.0
C2507 C 0.94514 0.51026 0.14559 0.0
C2508 C 0.95633 0.52354 0.16508 0.0
C2509 C 0.94567 0.52405 0.18873 0.0
C2510 C 0.91186 0.48189 0.13011 0.0
C2511 C 0.97873 0.53836 0.16058 0.0
C2512 C 0.97345 0.49813 0.08282 0.0
C2513 C 0.96217 0.51573 0.06797 0.0
C2514 C 0.969 0.49673 0.10855 0.0
C2515 C 0.95308 0.51343 0.11947 0.0
C2516 C 0.94262 0.53198 0.10475 0.0
C2517 C 0.94725 0.53284 0.07916 0.0
C2518 C 0.98036 0.47666 0.12371 0.0
C2519 C 0.9256 0.55021 0.11577 0.0
H2520 H 0.89752 0.48734 0.17746 0.0
H2521 H 0.95371 0.53494 0.20345 0.0
H2522 H 0.90403 0.4946 0.11623 0.0
H2523 H 0.92475 0.47028 0.1201 0.0
H2524 H 0.89739 0.46998 0.13759 0.0
H2525 H 0.98706 0.54466 0.1783 0.0
H2526 H 0.99186 0.52752 0.15002 0.0
H2527 H 0.97442 0.55466 0.14911 0.0
H2528 H 0.98501 0.48485 0.07422 0.0
H2529 H 0.93878 0.54672 0.06782 0.0
H2530 H 0.96662 0.46288 0.12898 0.0
H2531 H 0.988 0.48413 0.14126 0.0
H2532 H -0.0054 0.46727 0.11321 0.0
H2533 H 0.90916 0.54058 0.12197 0.0
H2534 H 0.92055 0.56465 0.10218 0.0
H2535 H 0.93364 0.5591 0.13241 0.0
C2536 C 0.73246 0.65854 0.40976 0.0
C2537 C 0.75049 0.65428 0.42721 0.0
C2538 C 0.73626 0.67404 0.38932 0.0
C2539 C 0.75896 0.68512 0.3858 0.0
C2540 C 0.77744 0.68062 0.40318 0.0
C2541 C 0.77284 0.66554 0.424 0.0
C2542 C 0.71576 0.67875 0.37166 0.0
C2543 C 0.80194 0.69174 0.39994 0.0
C2544 C 0.75683 0.70658 0.31957 0.0
C2545 C 0.74603 0.72916 0.32339 0.0
C2546 C 0.76531 0.6931 0.3401 0.0
C2547 C 0.76219 0.70242 0.36457 0.0
C2548 C 0.75514 0.72696 0.36774 0.0
C2549 C 0.74726 0.74011 0.34694 0.0
C2550 C 0.77424 0.66757 0.33588 0.0
C2551 C 0.75179 0.73793 0.3933 0.0
H2552 H 0.71514 0.64996 0.41229 0.0
H2553 H 0.7869 0.66208 0.43742 0.0
H2554 H 0.71215 0.69864 0.37064 0.0
H2555 H 0.72036 0.67255 0.3526 0.0
H2556 H 0.69915 0.66915 0.37749 0.0
H2557 H 0.81547 0.68198 0.41125 0.0
H2558 H 0.80743 0.69149 0.38005 0.0
H2559 H 0.80183 0.71109 0.40604 0.0
H2560 H 0.75606 0.69821 0.30125 0.0
H2561 H 0.73914 0.75782 0.34968 0.0
H2562 H 0.75932 0.65431 0.33824 0.0
H2563 H 0.78828 0.66289 0.34965 0.0
H2564 H 0.78144 0.66547 0.31671 0.0
H2565 H 0.73459 0.73134 0.4011 0.0
H2566 H 0.75141 0.75823 0.39247 0.0
H2567 H 0.7661 0.73232 0.40629 0.0
C2568 C 0.59938 0.48641 0.83416 0.0
C2569 C 0.58761 0.50069 0.81627 0.0
C2570 C 0.58922 0.48209 0.85769 0.0
C2571 C 0.56666 0.4919 0.86306 0.0
C2572 C 0.55379 0.50425 0.84409 0.0
C2573 C 0.56464 0.5089 0.82104 0.0
C2574 C 0.60338 0.4687 0.87731 0.0
C2575 C 0.52922 0.51414 0.84871 0.0
C2576 C 0.52784 0.4856 0.92003 0.0
C2577 C 0.53172 0.50875 0.9304 0.0
C2578 C 0.54138 0.47802 0.89948 0.0
C2579 C 0.55862 0.49431 0.88927 0.0
C2580 C 0.56461 0.51615 0.90208 0.0
C2581 C 0.55109 0.52302 0.92263 0.0
C2582 C 0.53518 0.45404 0.88711 0.0
C2583 C 0.58293 0.53407 0.89205 0.0
H2584 H 0.61708 0.47975 0.83027 0.0
H2585 H 0.55531 0.5193 0.80687 0.0
H2586 H 0.61151 0.48215 0.89035 0.0
H2587 H 0.59172 0.45635 0.88845 0.0
H2588 H 0.61788 0.45783 0.86892 0.0
H2589 H 0.52047 0.52027 0.83119 0.0
H2590 H 0.51776 0.49999 0.85764 0.0
H2591 H 0.53046 0.52994 0.86163 0.0
H2592 H 0.51272 0.47464 0.92612 0.0
H2593 H 0.55391 0.54095 0.93083 0.0
H2594 H 0.55079 0.44612 0.87758 0.0
H2595 H 0.5211 0.4571 0.87291 0.0
H2596 H 0.52819 0.44061 0.90094 0.0
H2597 H 0.59938 0.5245 0.88657 0.0
H2598 H 0.58764 0.54843 0.90589 0.0
H2599 H 0.57572 0.54319 0.87514 0.0
C2600 C 0.72761 0.29903 0.0506 0.0
C2601 C 0.74308 0.31886 0.04645 0.0
C2602 C 0.72853 0.2859 0.07316 0.0
C2603 C 0.74529 0.29289 0.09169 0.0
C2604 C 0.76285 0.3108 0.08611 0.0
C2605 C 0.76141 0.3237 0.06361 0.0
C2606 C 0.70988 0.26649 0.07823 0.0
C2607 C 0.78134 0.31858 0.1051 0.0
C2608 C 0.72209 0.2994 0.15712 0.0
C2609 C 0.73377 0.28065 0.17001 0.0
C2610 C 0.72533 0.30296 0.13159 0.0
C2611 C 0.74045 0.28716 0.11827 0.0
C2612 C 0.75185 0.26768 0.13084 0.0
C2613 C 0.74844 0.26468 0.15671 0.0
C2614 C 0.71317 0.32436 0.11911 0.0
C2615 C 0.76775 0.25025 0.11708 0.0
H2616 H 0.71371 0.29493 0.03712 0.0
H2617 H 0.77392 0.33854 0.06008 0.0
H2618 H 0.7175 0.25107 0.089 0.0
H2619 H 0.69542 0.27445 0.08957 0.0
H2620 H 0.70196 0.25932 0.06065 0.0
H2621 H 0.79642 0.32861 0.09624 0.0
H2622 H 0.77302 0.33087 0.11894 0.0
H2623 H 0.78844 0.3026 0.11537 0.0
H2624 H 0.71074 0.31192 0.16709 0.0
H2625 H 0.75742 0.25005 0.16651 0.0
H2626 H 0.70205 0.31789 0.10326 0.0
H2627 H 0.72671 0.33727 0.11151 0.0
H2628 H 0.70163 0.33459 0.13214 0.0
H2629 H 0.75706 0.23983 0.1032 0.0
H2630 H 0.77652 0.23707 0.12987 0.0
H2631 H 0.78167 0.26047 0.10662 0.0
C2632 C 0.93007 0.50325 0.32223 0.0
C2633 C 0.90739 0.49749 0.31341 0.0
C2634 C 0.93537 0.50074 0.34762 0.0
C2635 C 0.9176 0.49168 0.36412 0.0
C2636 C 0.89444 0.48643 0.35522 0.0
C2637 C 0.88956 0.48956 0.3298 0.0
C2638 C 0.9602 0.50705 0.3566 0.0
C2639 C 0.87524 0.47639 0.37215 0.0
C2640 C 0.95097 0.46213 0.41592 0.0
C2641 C 0.9527 0.4817 0.43252 0.0
C2642 C 0.93639 0.46375 0.39484 0.0
C2643 C 0.9243 0.48585 0.39008 0.0
C2644 C 0.92363 0.50432 0.4085 0.0
C2645 C 0.9377 0.5018 0.4299 0.0
C2646 C 0.9366 0.44321 0.37607 0.0
C2647 C 0.91099 0.52817 0.4041 0.0
H2648 H 0.94363 0.5095 0.30926 0.0
H2649 H 0.872 0.48512 0.32255 0.0
H2650 H 0.95943 0.51941 0.37297 0.0
H2651 H 0.96936 0.49014 0.36262 0.0
H2652 H 0.97108 0.51605 0.34186 0.0
H2653 H 0.85737 0.47716 0.36328 0.0
H2654 H 0.87912 0.45702 0.37668 0.0
H2655 H 0.87478 0.48655 0.39002 0.0
H2656 H 0.96258 0.44657 0.41824 0.0
H2657 H 0.93928 0.51696 0.44285 0.0
H2658 H 0.94916 0.44791 0.36081 0.0
H2659 H 0.91873 0.44045 0.36764 0.0
H2660 H 0.94239 0.42575 0.38471 0.0
H2661 H 0.92192 0.53986 0.39152 0.0
H2662 H 0.90826 0.53827 0.42181 0.0
H2663 H 0.89351 0.52511 0.39493 0.0
C2664 C 0.73507 0.67576 0.56753 0.0
C2665 C 0.75032 0.65703 0.56023 0.0
C2666 C 0.73613 0.68548 0.5917 0.0
C2667 C 0.75331 0.6767 0.60883 0.0
C2668 C 0.76838 0.65734 0.6018 0.0
C2669 C 0.76652 0.64752 0.5776 0.0
C2670 C 0.71925 0.70566 0.59865 0.0
C2671 C 0.78713 0.64776 0.61939 0.0
C2672 C 0.77017 0.72623 0.65484 0.0
C2673 C 0.75609 0.72 0.67545 0.0
C2674 C 0.77094 0.71111 0.63379 0.0
C2675 C 0.7567 0.68959 0.63306 0.0
C2676 C 0.74346 0.68249 0.65443 0.0
C2677 C 0.7436 0.69768 0.67559 0.0
C2678 C 0.78565 0.71914 0.61163 0.0
C2679 C 0.72792 0.6598 0.65435 0.0
H2680 H 0.72224 0.68287 0.55429 0.0
H2681 H 0.77833 0.633 0.572 0.0
H2682 H 0.7102 0.70121 0.6165 0.0
H2683 H 0.72938 0.72297 0.60144 0.0
H2684 H 0.70551 0.70875 0.58407 0.0
H2685 H 0.79593 0.63121 0.61198 0.0
H2686 H 0.8009 0.66213 0.62254 0.0
H2687 H 0.77922 0.64328 0.6378 0.0
H2688 H 0.77988 0.74349 0.65481 0.0
H2689 H 0.73251 0.69301 0.69146 0.0
H2690 H 0.77371 0.72535 0.59641 0.0
H2691 H 0.79611 0.70363 0.60435 0.0
H2692 H 0.79807 0.7344 0.61637 0.0
H2693 H 0.71515 0.66045 0.63853 0.0
H2694 H 0.7177 0.65764 0.67195 0.0
H2695 H 0.73904 0.64339 0.65175 0.0
C2696 C 0.6574 0.60654 0.50693 0.0
C2697 C 0.67678 0.5973 0.49357 0.0
C2698 C 0.63465 0.59578 0.50496 0.0
C2699 C 0.63113 0.57544 0.48902 0.0
C2700 C 0.65031 0.56698 0.47439 0.0
C2701 C 0.67295 0.57785 0.47701 0.0
C2702 C 0.61482 0.6052 0.52115 0.0
C2703 C 0.64723 0.54555 0.45692 0.0
C2704 C 0.58875 0.52483 0.5084 0.0
C2705 C 0.56933 0.52814 0.49229 0.0
C2706 C 0.60838 0.54069 0.50807 0.0
C2707 C 0.60895 0.56035 0.49089 0.0
C2708 C 0.58902 0.56447 0.47511 0.0
C2709 C 0.56921 0.54837 0.47618 0.0
C2710 C 0.62882 0.53595 0.5258 0.0
C2711 C 0.58899 0.58532 0.45662 0.0
H2712 H 0.66016 0.62167 0.5197 0.0
H2713 H 0.68773 0.57087 0.46631 0.0
H2714 H 0.59813 0.60699 0.51023 0.0
H2715 H 0.61126 0.59195 0.53646 0.0
H2716 H 0.61935 0.62321 0.5296 0.0
H2717 H 0.66284 0.54327 0.44451 0.0
H2718 H 0.64478 0.52851 0.46797 0.0
H2719 H 0.63109 0.54786 0.44521 0.0
H2720 H 0.58864 0.50959 0.52141 0.0
H2721 H 0.5541 0.55111 0.4639 0.0
H2722 H 0.63305 0.55265 0.53673 0.0
H2723 H 0.64496 0.53122 0.51504 0.0
H2724 H 0.62489 0.52078 0.53905 0.0
H2725 H 0.59389 0.60273 0.46599 0.0
H2726 H 0.5714 0.58745 0.44741 0.0
H2727 H 0.60256 0.58201 0.44205 0.0
C2728 C 0.18037 0.93512 0.49689 0.0
C2729 C 0.18145 0.91646 0.51491 0.0
C2730 C 0.15976 0.949 0.49381 0.0
C2731 C 0.13992 0.94422 0.50926 0.0
C2732 C 0.14111 0.92582 0.52789 0.0
C2733 C 0.16188 0.91211 0.53045 0.0
C2734 C 0.15899 0.96838 0.47369 0.0
C2735 C 0.12021 0.92015 0.5447 0.0
C2736 C 0.08935 0.98774 0.52041 0.0
C2737 C 0.07161 0.97723 0.50547 0.0
C2738 C 0.11251 0.97847 0.52017 0.0
C2739 C 0.11745 0.95765 0.50547 0.0
C2740 C 0.09981 0.94792 0.48928 0.0
C2741 C 0.0771 0.95812 0.48925 0.0
C2742 C 0.13112 0.98969 0.53711 0.0
C2743 C 0.10417 0.92534 0.47384 0.0
H2744 H 0.19542 0.93847 0.4847 0.0
H2745 H 0.16265 0.89776 0.54443 0.0
H2746 H 0.14512 0.9636 0.4597 0.0
H2747 H 0.15409 0.98624 0.48188 0.0
H2748 H 0.17629 0.97051 0.46391 0.0
H2749 H 0.12424 0.90561 0.55856 0.0
H2750 H 0.1149 0.93684 0.5549 0.0
H2751 H 0.10471 0.91413 0.53331 0.0
H2752 H 0.08477 0.00222 0.53327 0.0
H2753 H 0.063 0.94968 0.47827 0.0
H2754 H 0.14824 0.992 0.52708 0.0
H2755 H 0.13432 0.97732 0.55321 0.0
H2756 H 0.12556 0.00775 0.54438 0.0
H2757 H 0.12074 0.92748 0.46284 0.0
H2758 H 0.08921 0.92124 0.46086 0.0
H2759 H 0.10651 0.90936 0.4864 0.0
C2760 C 0.33974 0.91839 0.75172 0.0
C2761 C 0.34686 0.92519 0.72763 0.0
C2762 C 0.33291 0.89446 0.75721 0.0
C2763 C 0.33157 0.87717 0.73772 0.0
C2764 C 0.33922 0.88359 0.71338 0.0
C2765 C 0.34725 0.90758 0.7087 0.0
C2766 C 0.32525 0.88828 0.78355 0.0
C2767 C 0.33725 0.8657 0.69205 0.0
C2768 C 0.3114 0.81438 0.75961 0.0
C2769 C 0.28679 0.81788 0.75981 0.0
C2770 C 0.32668 0.8331 0.75099 0.0
C2771 C 0.31679 0.85514 0.74185 0.0
C2772 C 0.29188 0.85782 0.74038 0.0
C2773 C 0.27729 0.83935 0.74966 0.0
C2774 C 0.3532 0.82979 0.75295 0.0
C2775 C 0.28047 0.88078 0.73026 0.0
H2776 H 0.3392 0.93179 0.76646 0.0
H2777 H 0.35286 0.91279 0.69006 0.0
H2778 H 0.30553 0.88764 0.78448 0.0
H2779 H 0.33191 0.87005 0.78922 0.0
H2780 H 0.33177 0.90207 0.79723 0.0
H2781 H 0.34712 0.87216 0.67531 0.0
H2782 H 0.34405 0.84753 0.69769 0.0
H2783 H 0.31824 0.86321 0.68687 0.0
H2784 H 0.31864 0.7974 0.76667 0.0
H2785 H 0.25818 0.84173 0.74864 0.0
H2786 H 0.35975 0.83884 0.7702 0.0
H2787 H 0.36257 0.8384 0.73693 0.0
H2788 H 0.35794 0.81013 0.75391 0.0
H2789 H 0.28292 0.89589 0.74384 0.0
H2790 H 0.26108 0.87828 0.72691 0.0
H2791 H 0.28893 0.88652 0.71248 0.0
C2792 C 0.34257 0.09218 0.00153 0.0
C2793 C 0.32144 0.08268 0.99127 0.0
C2794 C 0.36345 0.07844 0.00205 0.0
C2795 C 0.36344 0.05472 0.99147 0.0
C2796 C 0.34254 0.04556 0.97975 0.0
C2797 C 0.32164 0.05951 0.98011 0.0
C2798 C 0.38503 0.08873 0.01546 0.0
C2799 C 0.34205 0.02068 0.96761 0.0
C2800 C 0.42567 0.02773 0.99037 0.0
C2801 C 0.42541 0.01417 0.01261 0.0
C2802 C 0.4049 0.0395 0.9819 0.0
C2803 C 0.38392 0.03837 -0.00344 0.0
C2804 C 0.38339 0.02367 0.01829 0.0
C2805 C 0.40385 0.01122 0.02554 0.0
C2806 C 0.40566 0.05406 0.95796 0.0
C2807 C 0.3619 0.02274 0.03523 0.0
H2808 H 0.34261 0.11012 0.01012 0.0
H2809 H 0.30546 0.05224 0.97178 0.0
H2810 H 0.38862 0.07764 0.03242 0.0
H2811 H 0.40099 0.08776 0.00343 0.0
H2812 H 0.38261 0.10806 0.02118 0.0
H2813 H 0.32598 0.01797 0.95577 0.0
H2814 H 0.35814 0.01818 0.95599 0.0
H2815 H 0.34212 0.00624 0.98219 0.0
H2816 H 0.4422 0.03002 0.98024 0.0
H2817 H 0.40331 0.00047 0.04256 0.0
H2818 H 0.40335 0.07377 0.96197 0.0
H2819 H 0.39071 0.04835 0.94564 0.0
H2820 H 0.42269 0.05176 0.94782 0.0
H2821 H 0.35848 0.04128 0.04272 0.0
H2822 H 0.3643 0.01004 0.05124 0.0
H2823 H 0.34584 0.01691 0.02468 0.0
C2824 C 0.65473 0.58385 0.71321 0.0
C2825 C 0.65777 0.56728 0.73306 0.0
C2826 C 0.66485 0.6075 0.71399 0.0
C2827 C 0.67832 0.61473 0.7351 0.0
C2828 C 0.68142 0.5981 0.75518 0.0
C2829 C 0.67116 0.57462 0.7539 0.0
C2830 C 0.6612 0.62469 0.69224 0.0
C2831 C 0.69558 0.60511 0.77815 0.0
C2832 C 0.72615 0.66362 0.73787 0.0
C2833 C 0.7151 0.68106 0.7528 0.0
C2834 C 0.71357 0.64289 0.7295 0.0
C2835 C 0.68948 0.63955 0.73657 0.0
C2836 C 0.67762 0.65856 0.74925 0.0
C2837 C 0.69067 0.67912 0.75734 0.0
C2838 C 0.72688 0.62328 0.71574 0.0
C2839 C 0.6519 0.65594 0.75689 0.0
H2840 H 0.6444 0.57839 0.69701 0.0
H2841 H 0.67353 0.56204 0.76936 0.0
H2842 H 0.65352 0.64213 0.6988 0.0
H2843 H 0.67859 0.62919 0.68354 0.0
H2844 H 0.64926 0.61673 0.67775 0.0
H2845 H 0.6962 0.59012 0.79217 0.0
H2846 H 0.71409 0.61005 0.77282 0.0
H2847 H 0.68768 0.62142 0.78704 0.0
H2848 H 0.74519 0.66499 0.73478 0.0
H2849 H 0.68229 0.69245 0.76931 0.0
H2850 H 0.71576 0.61524 0.70065 0.0
H2851 H 0.7314 0.60836 0.72895 0.0
H2852 H 0.74366 0.6305 0.70748 0.0
H2853 H 0.641 0.6483 0.74141 0.0
H2854 H 0.64429 0.67373 0.76264 0.0
H2855 H 0.65053 0.64307 0.77288 0.0
C2856 C 0.82608 0.42337 0.01271 0.0
C2857 C 0.82122 0.39858 0.00871 0.0
C2858 C 0.84852 0.43323 0.00722 0.0
C2859 C 0.86606 0.418 -0.00331 0.0
C2860 C 0.86127 0.39288 0.9928 0.0
C2861 C 0.83891 0.38335 -0.00076 0.0
C2862 C 0.8533 0.46002 0.01231 0.0
C2863 C 0.87938 0.37638 0.98095 0.0
C2864 C 0.911 0.45636 0.96193 0.0
C2865 C 0.9288 0.45875 0.98005 0.0
C2866 C 0.89128 0.44107 0.96614 0.0
C2867 C 0.88919 0.42876 0.98933 0.0
C2868 C 0.908 0.42976 0.00688 0.0
C2869 C 0.92781 0.4446 0.00184 0.0
C2870 C 0.87177 0.43986 0.94674 0.0
C2871 C 0.90614 0.41736 0.03205 0.0
H2872 H 0.81229 0.43502 0.02008 0.0
H2873 H 0.8349 0.3642 -0.00418 0.0
H2874 H 0.86969 0.46224 0.02373 0.0
H2875 H 0.85627 0.4699 0.99446 0.0
H2876 H 0.83834 0.46879 0.02225 0.0
H2877 H 0.87317 0.35704 0.98015 0.0
H2878 H 0.88314 0.38277 0.96166 0.0
H2879 H 0.89641 0.3772 0.99143 0.0
H2880 H 0.91181 0.46756 0.94521 0.0
H2881 H 0.94131 0.44707 0.01615 0.0
H2882 H 0.85659 0.45116 0.95286 0.0
H2883 H 0.86511 0.42081 0.9445 0.0
H2884 H 0.8779 0.4468 0.92831 0.0
H2885 H 0.92324 0.41802 0.04252 0.0
H2886 H 0.90052 0.39798 0.02993 0.0
H2887 H 0.8924 0.42658 0.04337 0.0
C2888 C 0.31703 0.06907 0.75473 0.0
C2889 C 0.33925 0.06938 0.74288 0.0
C2890 C 0.30337 0.09035 0.75611 0.0
C2891 C 0.31208 0.11214 0.74499 0.0
C2892 C 0.3344 0.11245 0.73283 0.0
C2893 C 0.34778 0.09107 0.73206 0.0
C2894 C 0.27983 0.0896 0.76959 0.0
C2895 C 0.34425 0.13541 0.72073 0.0
C2896 C 0.27549 0.16586 0.72428 0.0
C2897 C 0.28198 0.18296 0.74241 0.0
C2898 C 0.28341 0.1417 0.7261 0.0
C2899 C 0.29838 0.13502 0.74628 0.0
C2900 C 0.3033 0.15192 0.76563 0.0
C2901 C 0.29489 0.17578 0.76345 0.0
C2902 C 0.27731 0.12392 0.7055 0.0
C2903 C 0.31912 0.1456 0.7875 0.0
H2904 H 0.31048 0.05231 0.76327 0.0
H2905 H 0.36489 0.09132 0.72277 0.0
H2906 H 0.27986 0.10326 0.78487 0.0
H2907 H 0.26529 0.09457 0.75654 0.0
H2908 H 0.27582 0.07128 0.77765 0.0
H2909 H 0.36176 0.13242 0.71174 0.0
H2910 H 0.33164 0.14213 0.70635 0.0
H2911 H 0.34636 0.15004 0.73491 0.0
H2912 H 0.26519 0.17164 0.7082 0.0
H2913 H 0.29931 0.1891 0.77768 0.0
H2914 H 0.27232 0.10579 0.71333 0.0
H2915 H 0.29314 0.12136 0.6935 0.0
H2916 H 0.26246 0.13056 0.69363 0.0
H2917 H 0.31531 0.12685 0.79446 0.0
H2918 H 0.31701 0.15868 0.80317 0.0
H2919 H 0.33797 0.14626 0.78142 0.0
C2920 C 0.15015 0.90043 0.24808 0.0
C2921 C 0.15684 0.92215 0.26008 0.0
C2922 C 0.16422 0.87946 0.24994 0.0
C2923 C 0.18503 0.87999 0.26498 0.0
C2924 C 0.19048 0.90118 0.27915 0.0
C2925 C 0.17668 0.92229 0.276 0.0
C2926 C 0.15785 0.85749 0.23415 0.0
C2927 C 0.21151 0.90195 0.29672 0.0
C2928 C 0.21593 0.81832 0.26259 0.0
C2929 C 0.23237 0.82293 0.24349 0.0
C2930 C 0.20203 0.83751 0.27215 0.0
C2931 C 0.20353 0.8611 0.26098 0.0
C2932 C 0.22128 0.86596 0.24296 0.0
C2933 C 0.23617 0.84716 0.23552 0.0
C2934 C 0.18505 0.83213 0.29321 0.0
C2935 C 0.22313 0.89031 0.22949 0.0
H2936 H 0.13459 0.90023 0.23605 0.0
H2937 H 0.18146 0.93889 0.28594 0.0
H2938 H 0.17199 0.85448 0.2201 0.0
H2939 H 0.15666 0.84084 0.24594 0.0
H2940 H 0.14064 0.85971 0.22419 0.0
H2941 H 0.20936 0.91624 0.31123 0.0
H2942 H 0.21398 0.88397 0.306 0.0
H2943 H 0.22795 0.90629 0.28615 0.0
H2944 H 0.21322 0.79979 0.26933 0.0
H2945 H 0.24945 0.85115 0.2214 0.0
H2946 H 0.16783 0.82557 0.28548 0.0
H2947 H 0.18174 0.84869 0.30459 0.0
H2948 H 0.19209 0.81751 0.30554 0.0
H2949 H 0.2059 0.89462 0.22039 0.0
H2950 H 0.23714 0.89049 0.2149 0.0
H2951 H 0.22723 0.90517 0.24288 0.0
C2952 C 0.5037 0.32761 0.40988 0.0
C2953 C 0.48191 0.3167 0.40328 0.0
C2954 C 0.50458 0.35025 0.42227 0.0
C2955 C 0.48313 0.36224 0.42848 0.0
C2956 C 0.46107 0.35138 0.42177 0.0
C2957 C 0.46072 0.32882 0.40919 0.0
C2958 C 0.52852 0.36117 0.42907 0.0
C2959 C 0.43785 0.3634 0.42825 0.0
C2960 C 0.49161 0.4037 0.4842 0.0
C2961 C 0.49719 0.42608 0.47274 0.0
C2962 C 0.48515 0.38314 0.47008 0.0
C2963 C 0.48408 0.38506 0.44375 0.0
C2964 C 0.48724 0.40832 0.43227 0.0
C2965 C 0.49394 0.42865 0.44696 0.0
C2966 C 0.48212 0.35883 0.48322 0.0
C2967 C 0.48561 0.41123 0.40432 0.0
H2968 H 0.52014 0.31854 0.4052 0.0
H2969 H 0.44376 0.32056 0.40418 0.0
H2970 H 0.53021 0.37994 0.42131 0.0
H2971 H 0.53014 0.36261 0.44966 0.0
H2972 H 0.54352 0.3501 0.42202 0.0
H2973 H 0.42223 0.35328 0.42057 0.0
H2974 H 0.43595 0.36448 0.44882 0.0
H2975 H 0.43765 0.38242 0.42097 0.0
H2976 H 0.4945 0.40169 0.50414 0.0
H2977 H 0.49874 0.44583 0.43806 0.0
H2978 H 0.49785 0.34732 0.4795 0.0
H2979 H 0.46623 0.34886 0.47609 0.0
H2980 H 0.48036 0.36099 0.50375 0.0
H2981 H 0.50001 0.40079 0.39526 0.0
H2982 H 0.48716 0.43067 0.39842 0.0
H2983 H 0.46844 0.40361 0.39742 0.0
C2984 C 0.41512 0.7178 0.1699 0.0
C2985 C 0.43482 0.73261 0.17604 0.0
C2986 C 0.39373 0.71948 0.18307 0.0
C2987 C 0.39208 0.73616 0.20313 0.0
C2988 C 0.4126 0.74931 0.21103 0.0
C2989 C 0.43373 0.74759 0.1972 0.0
C2990 C 0.37228 0.70524 0.17379 0.0
C2991 C 0.41172 0.76668 0.23283 0.0
C2992 C 0.33293 0.76777 0.20345 0.0
C2993 C 0.31991 0.75389 0.22082 0.0
C2994 C 0.35675 0.76284 0.19853 0.0
C2995 C 0.36813 0.74371 0.2116 0.0
C2996 C 0.35563 0.73062 0.23042 0.0
C2997 C 0.33151 0.73583 0.2348 0.0
C2998 C 0.36921 0.77717 0.1781 0.0
C2999 C 0.36736 0.71044 0.24507 0.0
H3000 H 0.41586 0.70586 0.15381 0.0
H3001 H 0.44902 0.75875 0.20236 0.0
H3002 H 0.36245 0.69675 0.18955 0.0
H3003 H 0.35995 0.7179 0.16416 0.0
H3004 H 0.37724 0.69063 0.16047 0.0
H3005 H 0.4298 0.77115 0.24002 0.0
H3006 H 0.40322 0.78397 0.22685 0.0
H3007 H 0.40089 0.75882 0.24823 0.0
H3008 H 0.32422 0.78207 0.19289 0.0
H3009 H 0.32155 0.72513 0.24833 0.0
H3010 H 0.37394 0.76471 0.16261 0.0
H3011 H 0.38596 0.78545 0.18528 0.0
H3012 H 0.35801 0.79202 0.17039 0.0
H3013 H 0.3701 0.69441 0.23283 0.0
H3014 H 0.35643 0.70447 0.26128 0.0
H3015 H 0.38512 0.71653 0.25186 0.0
C3016 C 0.03001 0.67827 0.9298 0.0
C3017 C 0.00917 0.68811 0.91958 0.0
C3018 C 0.03042 0.6541 0.9389 0.0
C3019 C 0.00929 0.63977 0.93846 0.0
C3020 C 0.98821 0.64974 0.92813 0.0
C3021 C 0.98854 0.67361 0.91843 0.0
C3022 C 0.05348 0.6438 0.9486 0.0
C3023 C 0.96508 0.6354 0.92786 0.0
C3024 C 0.00045 0.57135 0.94506 0.0
C3025 C 0.99132 0.5701 0.96929 0.0
C3026 C 0.00931 0.59364 0.93545 0.0
C3027 C 0.0083 0.61505 0.95031 0.0
C3028 C 0.00168 0.61303 0.97572 0.0
C3029 C -0.00665 0.5905 0.98489 0.0
C3030 C 0.01728 0.59469 0.90863 0.0
C3031 C 0.00037 0.63521 0.99238 0.0
H3032 H 0.04614 0.68932 0.93019 0.0
H3033 H 0.97245 0.6812 0.91048 0.0
H3034 H 0.05112 0.63617 0.96765 0.0
H3035 H 0.05904 0.62854 0.93639 0.0
H3036 H 0.068 0.65774 0.94906 0.0
H3037 H 0.95024 0.64595 0.91955 0.0
H3038 H 0.9672 0.61831 0.91703 0.0
H3039 H 0.96011 0.63011 0.94719 0.0
H3040 H -0.00137 0.55563 0.9329 0.0
H3041 H 0.98607 0.58949 0.00361 0.0
H3042 H 0.03196 0.60819 0.90609 0.0
H3043 H 0.00216 0.60038 0.89666 0.0
H3044 H 0.02328 0.57651 0.90213 0.0
H3045 H 0.01645 0.64695 0.9903 0.0
H3046 H -0.00153 0.63006 0.01236 0.0
H3047 H 0.98476 0.64627 0.98689 0.0
C3048 C 0.09123 0.23927 0.63035 0.0
C3049 C 0.07153 0.24493 0.64519 0.0
C3050 C 0.11417 0.23897 0.64053 0.0
C3051 C 0.11728 0.24421 0.66613 0.0
C3052 C 0.09759 0.2508 0.68099 0.0
C3053 C 0.07489 0.25117 0.67028 0.0
C3054 C 0.13494 0.23231 0.62418 0.0
C3055 C 0.10034 0.25662 0.70842 0.0
C3056 C 0.16546 0.21809 0.7065 0.0
C3057 C 0.17986 0.23873 0.71012 0.0
C3058 C 0.14613 0.21896 0.69008 0.0
C3059 C 0.14078 0.24132 0.67803 0.0
C3060 C 0.15631 0.26172 0.68041 0.0
C3061 C 0.17605 0.26002 0.69623 0.0
C3062 C 0.13024 0.19666 0.68744 0.0
C3063 C 0.15074 0.28609 0.66859 0.0
H3064 H 0.0887 0.23474 0.61082 0.0
H3065 H 0.0597 0.25561 0.68176 0.0
H3066 H 0.14936 0.24622 0.62592 0.0
H3067 H 0.14232 0.21457 0.63042 0.0
H3068 H 0.12978 0.23075 0.6042 0.0
H3069 H 0.08348 0.26298 0.71687 0.0
H3070 H 0.1062 0.24006 0.71866 0.0
H3071 H 0.11421 0.27096 0.71116 0.0
H3072 H 0.16857 0.20176 0.71753 0.0
H3073 H 0.18714 0.27606 0.69956 0.0
H3074 H 0.1256 0.1935 0.66755 0.0
H3075 H 0.1134 0.19962 0.6977 0.0
H3076 H 0.13875 0.17994 0.69501 0.0
H3077 H 0.14357 0.28372 0.64943 0.0
H3078 H 0.16668 0.29827 0.66794 0.0
H3079 H 0.1369 0.2953 0.67978 0.0
C3080 C 0.48045 0.68266 0.06319 0.0
C3081 C 0.49219 0.69017 0.08495 0.0
C3082 C 0.48427 0.65937 0.05328 0.0
C3083 C 0.5003 0.64338 0.06542 0.0
C3084 C 0.51225 0.65085 0.08735 0.0
C3085 C 0.50803 0.67418 0.09689 0.0
C3086 C 0.47109 0.6518 0.02987 0.0
C3087 C 0.52957 0.6343 0.10059 0.0
C3088 C 0.4905 0.57748 0.04718 0.0
C3089 C 0.50572 0.57597 0.02668 0.0
C3090 C 0.48947 0.59905 0.06115 0.0
C3091 C 0.50457 0.61898 0.05471 0.0
C3092 C 0.52162 0.61648 0.03555 0.0
C3093 C 0.52171 0.59503 0.02143 0.0
C3094 C 0.47109 0.60113 0.08152 0.0
C3095 C 0.53837 0.63715 0.02855 0.0
H3096 H 0.46821 0.69492 0.05394 0.0
H3097 H 0.51728 0.6799 0.11371 0.0
H3098 H 0.48397 0.64757 0.01488 0.0
H3099 H 0.46049 0.63492 0.03349 0.0
H3100 H 0.45894 0.66624 0.02299 0.0
H3101 H 0.53778 0.64314 0.11721 0.0
H3102 H 0.52033 0.61728 0.10665 0.0
H3103 H 0.54394 0.62889 0.08763 0.0
H3104 H 0.47804 0.56265 0.05092 0.0
H3105 H 0.53347 0.59361 0.00549 0.0
H3106 H 0.46029 0.61781 0.07885 0.0
H3107 H 0.48014 0.60273 0.09987 0.0
H3108 H 0.45883 0.58508 0.08205 0.0
H3109 H 0.52832 0.65154 0.01853 0.0
H3110 H 0.55295 0.63089 0.01624 0.0
H3111 H 0.54631 0.64564 0.04547 0.0
C3112 C 0.06985 0.74665 0.81602 0.0
C3113 C 0.07078 0.74227 0.84181 0.0
C3114 C 0.09078 0.74785 0.8018 0.0
C3115 C 0.11307 0.74472 0.81371 0.0
C3116 C 0.11394 0.73826 0.83925 0.0
C3117 C 0.0928 0.7372 0.85304 0.0
C3118 C 0.0892 0.75393 0.77436 0.0
C3119 C 0.13736 0.73403 0.85237 0.0
C3120 C 0.17035 0.7449 0.77537 0.0
C3121 C 0.17702 0.76956 0.77705 0.0
C3122 C 0.14931 0.73634 0.78693 0.0
C3123 C 0.13523 0.75276 0.80088 0.0
C3124 C 0.14232 0.77753 0.80295 0.0
C3125 C 0.163 0.78554 0.79106 0.0
C3126 C 0.14246 0.70982 0.78416 0.0
C3127 C 0.12792 0.79577 0.81758 0.0
H3128 H 0.05288 0.75008 0.80708 0.0
H3129 H 0.09367 0.73322 0.87285 0.0
H3130 H 0.09589 0.77286 0.77118 0.0
H3131 H 0.10056 0.74144 0.76341 0.0
H3132 H 0.07065 0.7526 0.76721 0.0
H3133 H 0.13491 0.72624 0.87137 0.0
H3134 H 0.14851 0.72143 0.8413 0.0
H3135 H 0.14725 0.75163 0.85403 0.0
H3136 H 0.18109 0.73257 0.7645 0.0
H3137 H 0.16819 0.80463 0.79274 0.0
H3138 H 0.12317 0.70638 0.78692 0.0
H3139 H 0.15237 0.69905 0.79827 0.0
H3140 H 0.14739 0.70319 0.76533 0.0
H3141 H 0.10964 0.79677 0.80981 0.0
H3142 H 0.13594 0.81443 0.81723 0.0
H3143 H 0.1264 0.78976 0.83732 0.0
C3144 C 0.98873 0.32494 0.58981 0.0
C3145 C 0.00289 0.30738 0.57826 0.0
C3146 C 0.98669 0.34845 0.57974 0.0
C3147 C -0.00143 0.3543 0.55721 0.0
C3148 C 0.01206 0.33634 0.54485 0.0
C3149 C 0.01434 0.31309 0.55574 0.0
C3150 C 0.97254 0.36731 0.59375 0.0
C3151 C 0.02446 0.34183 0.52048 0.0
C3152 C 0.97531 0.41181 0.5268 0.0
C3153 C 0.99126 0.42922 0.53631 0.0
C3154 C 0.97822 0.38694 0.5323 0.0
C3155 C -0.00243 0.37965 0.54749 0.0
C3156 C 0.01448 0.39723 0.55584 0.0
C3157 C 0.011 0.42194 0.55024 0.0
C3158 C 0.95999 0.36866 0.52291 0.0
C3159 C 0.03554 0.39016 0.57178 0.0
H3160 H 0.98005 0.32064 0.60735 0.0
H3161 H 0.0252 0.29945 0.54675 0.0
H3162 H 0.98437 0.38277 0.59927 0.0
H3163 H 0.95842 0.37486 0.58154 0.0
H3164 H 0.96409 0.35966 0.61083 0.0
H3165 H 0.0325 0.32527 0.51219 0.0
H3166 H 0.01173 0.34969 0.50685 0.0
H3167 H 0.03874 0.35569 0.5235 0.0
H3168 H 0.96018 0.41775 0.51582 0.0
H3169 H 0.02341 0.43568 0.55719 0.0
H3170 H 0.94919 0.36176 0.53879 0.0
H3171 H 0.96888 0.35269 0.51445 0.0
H3172 H 0.9478 0.3768 0.50887 0.0
H3173 H 0.02919 0.38353 0.59021 0.0
H3174 H 0.04806 0.40575 0.57483 0.0
H3175 H 0.04538 0.37502 0.56296 0.0
C3176 C 0.43202 0.24446 0.30712 0.0
C3177 C 0.43108 0.24393 0.33329 0.0
C3178 C 0.41099 0.2447 0.29273 0.0
C3179 C 0.38862 0.24484 0.30484 0.0
C3180 C 0.38771 0.24561 0.33125 0.0
C3181 C 0.40889 0.24489 0.3451 0.0
C3182 C 0.41268 0.24381 0.26465 0.0
C3183 C 0.36428 0.24628 0.34497 0.0
C3184 C 0.32886 0.25803 0.27441 0.0
C3185 C 0.31872 0.23449 0.27394 0.0
C3186 C 0.35241 0.26175 0.28273 0.0
C3187 C 0.36606 0.24139 0.29046 0.0
C3188 C 0.35651 0.21746 0.28772 0.0
C3189 C 0.33295 0.21433 0.27965 0.0
C3190 C 0.36178 0.28759 0.28531 0.0
C3191 C 0.37046 0.19519 0.29538 0.0
H3192 H 0.44913 0.24385 0.2979 0.0
H3193 H 0.40804 0.24496 0.36532 0.0
H3194 H 0.40583 0.22589 0.2579 0.0
H3195 H 0.40146 0.25817 0.25611 0.0
H3196 H 0.43126 0.24627 0.25802 0.0
H3197 H 0.3667 0.24909 0.36536 0.0
H3198 H 0.35305 0.26118 0.3375 0.0
H3199 H 0.35446 0.2288 0.34208 0.0
H3200 H 0.31785 0.2737 0.27021 0.0
H3201 H 0.32518 0.19609 0.27916 0.0
H3202 H 0.38089 0.28882 0.28032 0.0
H3203 H 0.36003 0.29346 0.30503 0.0
H3204 H 0.35165 0.30054 0.27342 0.0
H3205 H 0.38875 0.19612 0.28771 0.0
H3206 H 0.36181 0.17793 0.28901 0.0
H3207 H 0.37199 0.19457 0.31604 0.0
C3208 C 0.44307 0.48784 0.30199 0.0
C3209 C 0.41931 0.49505 0.29944 0.0
C3210 C 0.45502 0.48992 0.32497 0.0
C3211 C 0.44279 0.49909 0.34595 0.0
C3212 C 0.41877 0.50632 0.34351 0.0
C3213 C 0.40739 0.50438 0.32026 0.0
C3214 C 0.48073 0.48244 0.32683 0.0
C3215 C 0.40497 0.51585 0.36554 0.0
C3216 C 0.46306 0.48521 0.41209 0.0
C3217 C 0.47209 0.50802 0.41948 0.0
C3218 C 0.4541 0.48173 0.38785 0.0
C3219 C 0.45499 0.50135 0.37052 0.0
C3220 C 0.46567 0.5239 0.3775 0.0
C3221 C 0.47371 0.5271 0.40209 0.0
C3222 C 0.44221 0.45766 0.38136 0.0
C3223 C 0.46722 0.54516 0.3595 0.0
H3224 H 0.45241 0.48067 0.28597 0.0
H3225 H 0.38897 0.50982 0.31852 0.0
H3226 H 0.49176 0.49807 0.33348 0.0
H3227 H 0.48261 0.46748 0.3407 0.0
H3228 H 0.48786 0.47613 0.30866 0.0
H3229 H 0.38623 0.52005 0.36065 0.0
H3230 H 0.405 0.50216 0.38087 0.0
H3231 H 0.41361 0.53273 0.37281 0.0
H3232 H 0.4612 0.47073 0.42585 0.0
H3233 H 0.48034 0.54486 0.40806 0.0
H3234 H 0.45162 0.44902 0.36556 0.0
H3235 H 0.42359 0.46076 0.37528 0.0
H3236 H 0.44196 0.44471 0.39737 0.0
H3237 H 0.47434 0.53909 0.34127 0.0
H3238 H 0.47869 0.56022 0.36676 0.0
H3239 H 0.44916 0.55247 0.35607 0.0
C3240 C 0.22411 0.65946 0.06922 0.0
C3241 C 0.24591 0.64948 0.06245 0.0
C3242 C 0.2201 0.66682 0.09374 0.0
C3243 C 0.23883 0.66524 0.11133 0.0
C3244 C 0.26027 0.65344 0.10496 0.0
C3245 C 0.26342 0.64526 0.08045 0.0
C3246 C 0.19672 0.67858 0.1001 0.0
C3247 C 0.28066 0.65163 0.12324 0.0
C3248 C 0.24283 0.72323 0.14803 0.0
C3249 C 0.23433 0.71598 0.17147 0.0
C3250 C 0.2453 0.70649 0.12882 0.0
C3251 C 0.23846 0.68185 0.1329 0.0
C3252 C 0.23004 0.67416 0.15658 0.0
C3253 C 0.22833 0.69142 0.17587 0.0
C3254 C 0.25501 0.7154 0.10403 0.0
C3255 C 0.22218 0.64811 0.16133 0.0
H3256 H 0.21035 0.66193 0.05523 0.0
H3257 H 0.28002 0.63692 0.075 0.0
H3258 H 0.19081 0.67311 0.11907 0.0
H3259 H 0.19898 0.69878 0.0999 0.0
H3260 H 0.18255 0.67362 0.08646 0.0
H3261 H 0.2951 0.6398 0.11621 0.0
H3262 H 0.28818 0.67016 0.12681 0.0
H3263 H 0.27429 0.64423 0.14132 0.0
H3264 H 0.2482 0.74208 0.14476 0.0
H3265 H 0.22205 0.68584 0.19415 0.0
H3266 H 0.24092 0.71421 0.08953 0.0
H3267 H 0.26996 0.70376 0.09796 0.0
H3268 H 0.26149 0.73465 0.10485 0.0
H3269 H 0.20433 0.64512 0.15291 0.0
H3270 H 0.22104 0.64398 0.18161 0.0
H3271 H 0.23446 0.63498 0.15251 0.0
C3272 C 0.07956 0.53517 0.82801 0.0
C3273 C 0.07669 0.52138 0.80621 0.0
C3274 C 0.06547 0.53036 0.84897 0.0
C3275 C 0.04789 0.51163 0.8478 0.0
C3276 C 0.04311 0.49967 0.82494 0.0
C3277 C 0.05781 0.5045 0.8044 0.0
C3278 C 0.07113 0.54353 0.87307 0.0
C3279 C 0.02399 0.4802 0.82274 0.0
C3280 C 0.04482 0.47653 0.90821 0.0
C3281 C 0.0261 0.48818 0.92043 0.0
C3282 C 0.05111 0.48303 0.88386 0.0
C3283 C 0.03823 0.50152 0.87136 0.0
C3284 C 0.01808 0.51192 0.88274 0.0
C3285 C 0.01215 0.50501 0.90719 0.0
C3286 C 0.07267 0.47135 0.87227 0.0
C3287 C 0.00358 0.53115 0.86957 0.0
H3288 H 0.094 0.54842 0.82938 0.0
H3289 H 0.05523 0.49418 0.78732 0.0
H3290 H 0.05461 0.54944 0.88242 0.0
H3291 H 0.08041 0.53087 0.88597 0.0
H3292 H 0.08274 0.55983 0.87002 0.0
H3293 H 0.01869 0.47715 0.80298 0.0
H3294 H 0.03076 0.46271 0.83035 0.0
H3295 H 0.008 0.48514 0.83364 0.0
H3296 H 0.05542 0.46318 0.91812 0.0
H3297 H -0.00269 0.51371 0.91633 0.0
H3298 H 0.08694 0.48534 0.86979 0.0
H3299 H 0.06819 0.46399 0.85355 0.0
H3300 H 0.0798 0.45624 0.8839 0.0
H3301 H 0.015 0.54714 0.86474 0.0
H3302 H 0.98851 0.53756 0.88112 0.0
H3303 H -0.00357 0.5237 0.85179 0.0
C3304 C 0.2029 0.31859 0.57746 0.0
C3305 C 0.22265 0.33122 0.56766 0.0
C3306 C 0.2043 0.30635 0.60055 0.0
C3307 C 0.22593 0.30689 0.61416 0.0
C3308 C 0.24601 0.31931 0.6041 0.0
C3309 C 0.24409 0.33133 0.58107 0.0
C3310 C 0.18232 0.2937 0.61051 0.0
C3311 C 0.26965 0.31992 0.61764 0.0
C3312 C 0.2371 0.29808 0.68301 0.0
C3313 C 0.24925 0.27593 0.68251 0.0
C3314 C 0.22649 0.3073 0.66117 0.0
C3315 C 0.22845 0.29405 0.63857 0.0
C3316 C 0.2379 0.27018 0.639 0.0
C3317 C 0.24844 0.2615 0.66099 0.0
C3318 C 0.21563 0.33237 0.6617 0.0
C3319 C 0.23946 0.255 0.6156 0.0
H3320 H 0.18618 0.31858 0.56731 0.0
H3321 H 0.2595 0.3409 0.57358 0.0
H3322 H 0.18665 0.27767 0.62236 0.0
H3323 H 0.17238 0.30694 0.62201 0.0
H3324 H 0.17039 0.2876 0.59511 0.0
H3325 H 0.28349 0.33038 0.60724 0.0
H3326 H 0.26752 0.32838 0.6363 0.0
H3327 H 0.27608 0.30101 0.62058 0.0
H3328 H 0.23788 0.30923 0.69967 0.0
H3329 H 0.25783 0.24427 0.66075 0.0
H3330 H 0.19956 0.33302 0.64965 0.0
H3331 H 0.22869 0.34596 0.65439 0.0
H3332 H 0.21072 0.33778 0.68097 0.0
H3333 H 0.22269 0.25605 0.60468 0.0
H3334 H 0.24313 0.2355 0.61988 0.0
H3335 H 0.25407 0.26225 0.6037 0.0
C3336 C 0.42742 0.48909 0.17184 0.0
C3337 C 0.40679 0.5018 0.17764 0.0
C3338 C 0.43589 0.48848 0.14729 0.0
C3339 C 0.42391 0.50178 0.12835 0.0
C3340 C 0.40303 0.51478 0.13421 0.0
C3341 C 0.39446 0.5143 0.15884 0.0
C3342 C 0.45783 0.47375 0.14173 0.0
C3343 C 0.39017 0.52961 0.11469 0.0
C3344 C 0.46811 0.51251 0.0769 0.0
C3345 C 0.46397 0.49159 0.06256 0.0
C3346 C 0.45321 0.51797 0.09706 0.0
C3347 C 0.43387 0.50205 0.10268 0.0
C3348 C 0.42788 0.48287 0.08603 0.0
C3349 C 0.4432 0.47775 0.06618 0.0
C3350 C 0.45993 0.53884 0.11415 0.0
C3351 C 0.40735 0.46556 0.09109 0.0
H3352 H 0.43679 0.47942 0.18652 0.0
H3353 H 0.37858 0.52433 0.16361 0.0
H3354 H 0.45405 0.46054 0.12649 0.0
H3355 H 0.47239 0.48607 0.13529 0.0
H3356 H 0.46422 0.46343 0.15829 0.0
H3357 H 0.37351 0.53763 0.12198 0.0
H3358 H 0.40195 0.54467 0.10805 0.0
H3359 H 0.38576 0.51812 0.09825 0.0
H3360 H 0.48447 0.52288 0.07424 0.0
H3361 H 0.44026 0.46139 0.05513 0.0
H3362 H 0.46575 0.53156 0.13251 0.0
H3363 H 0.44426 0.55054 0.11749 0.0
H3364 H 0.47462 0.55027 0.10642 0.0
H3365 H 0.41289 0.45188 0.10524 0.0
H3366 H 0.4018 0.45562 0.07393 0.0
H3367 H 0.3918 0.47538 0.09862 0.0
C3368 C 0.21955 0.6805 0.93514 0.0
C3369 C 0.23866 0.66663 0.94405 0.0
C3370 C 0.22161 0.69417 0.91306 0.0
C3371 C 0.24328 0.69386 0.89974 0.0
C3372 C 0.26328 0.68188 0.90997 0.0
C3373 C 0.26071 0.66833 0.93202 0.0
C3374 C 0.19996 0.70695 0.90288 0.0
C3375 C 0.28678 0.6814 0.89641 0.0
C3376 C 0.24182 0.68914 0.82969 0.0
C3377 C 0.24986 0.71236 0.8224 0.0
C3378 C 0.23846 0.68342 0.85483 0.0
C3379 C 0.24373 0.70129 0.87316 0.0
C3380 C 0.25098 0.72515 0.86589 0.0
C3381 C 0.25376 0.73052 0.84039 0.0
C3382 C 0.23008 0.65792 0.86176 0.0
C3383 C 0.25675 0.74458 0.88498 0.0
H3384 H 0.20255 0.67965 0.9446 0.0
H3385 H 0.2757 0.65806 0.93909 0.0
H3386 H 0.20486 0.72478 0.8943 0.0
H3387 H 0.19164 0.69547 0.88811 0.0
H3388 H 0.18649 0.71007 0.91763 0.0
H3389 H 0.30143 0.67489 0.90862 0.0
H3390 H 0.2853 0.66892 0.88016 0.0
H3391 H 0.29154 0.69984 0.8892 0.0
H3392 H 0.23834 0.67529 0.81565 0.0
H3393 H 0.25991 0.74852 0.83459 0.0
H3394 H 0.21431 0.65882 0.8741 0.0
H3395 H 0.2443 0.64837 0.87222 0.0
H3396 H 0.2253 0.64679 0.84513 0.0
H3397 H 0.24246 0.74559 0.89917 0.0
H3398 H 0.25919 0.76291 0.87629 0.0
H3399 H 0.2734 0.73976 0.89493 0.0
C3400 C 0.10377 0.49576 0.66441 0.0
C3401 C 0.08642 0.49061 0.68257 0.0
C3402 C 0.09733 0.50043 0.63965 0.0
C3403 C 0.07304 0.49971 0.63298 0.0
C3404 C 0.05556 0.49318 0.65087 0.0
C3405 C 0.06249 0.48876 0.67555 0.0
C3406 C 0.11633 0.50723 0.62092 0.0
C3407 C 0.02944 0.49175 0.64417 0.0
C3408 C 0.04409 0.53536 0.58151 0.0
C3409 C 0.03961 0.51669 0.56434 0.0
C3410 C 0.05759 0.53073 0.60296 0.0
C3411 C 0.06553 0.50664 0.60757 0.0
C3412 C 0.06275 0.48837 0.58917 0.0
C3413 C 0.05034 0.49388 0.56732 0.0
C3414 C 0.06102 0.55087 0.6219 0.0
C3415 C 0.06986 0.46224 0.59392 0.0
H3416 H 0.12237 0.49707 0.66969 0.0
H3417 H 0.04907 0.48466 0.68948 0.0
H3418 H 0.11474 0.49558 0.60406 0.0
H3419 H 0.11392 0.52645 0.61481 0.0
H3420 H 0.13455 0.50535 0.62874 0.0
H3421 H 0.01843 0.48449 0.65976 0.0
H3422 H 0.02297 0.51025 0.63923 0.0
H3423 H 0.02667 0.47989 0.62762 0.0
H3424 H 0.03555 0.5529 0.57912 0.0
H3425 H 0.04637 0.47933 0.55415 0.0
H3426 H 0.0793 0.55057 0.62976 0.0
H3427 H 0.04839 0.54803 0.63755 0.0
H3428 H 0.05777 0.5692 0.61364 0.0
H3429 H 0.08781 0.46139 0.60248 0.0
H3430 H 0.06954 0.45128 0.5765 0.0
H3431 H 0.05717 0.45368 0.60725 0.0
C3432 C 0.24832 0.37113 0.40976 0.0
C3433 C 0.24078 0.36022 0.43219 0.0
C3434 C 0.24789 0.35804 0.38722 0.0
C3435 C 0.2396 0.3335 0.38709 0.0
C3436 C 0.23167 0.32251 0.40959 0.0
C3437 C 0.23242 0.33596 0.43186 0.0
C3438 C 0.25688 0.37022 0.36368 0.0
C3439 C 0.2228 0.29633 0.41027 0.0
C3440 C 0.22117 0.30034 0.32751 0.0
C3441 C 0.24072 0.28515 0.32405 0.0
C3442 C 0.22085 0.31702 0.3475 0.0
C3443 C 0.24069 0.31862 0.3639 0.0
C3444 C 0.26102 0.30432 0.35932 0.0
C3445 C 0.26067 0.28761 0.3396 0.0
C3446 C 0.19887 0.33197 0.35187 0.0
C3447 C 0.28274 0.30574 0.37597 0.0
H3448 H 0.25487 0.38985 0.40984 0.0
H3449 H 0.22649 0.3274 0.44905 0.0
H3450 H 0.27317 0.36093 0.35719 0.0
H3451 H 0.24345 0.36852 0.34854 0.0
H3452 H 0.26114 0.38991 0.36652 0.0
H3453 H 0.21612 0.29091 0.429 0.0
H3454 H 0.20827 0.29368 0.39644 0.0
H3455 H 0.23741 0.28387 0.40506 0.0
H3456 H 0.20576 0.2983 0.31544 0.0
H3457 H 0.27587 0.27592 0.33664 0.0
H3458 H 0.2037 0.35157 0.35412 0.0
H3459 H 0.19018 0.3259 0.36943 0.0
H3460 H 0.18582 0.33016 0.33634 0.0
H3461 H 0.28855 0.32503 0.37844 0.0
H3462 H 0.29786 0.29519 0.36837 0.0
H3463 H 0.2783 0.29835 0.39472 0.0
C3464 C 0.33116 0.39039 0.50546 0.0
C3465 C 0.31037 0.40379 0.50965 0.0
C3466 C 0.35373 0.40172 0.50589 0.0
C3467 C 0.35565 0.42709 0.51079 0.0
C3468 C 0.33478 0.44064 0.51551 0.0
C3469 C 0.3124 0.42886 0.5148 0.0
C3470 C 0.37547 0.38666 0.50048 0.0
C3471 C 0.33606 0.46773 0.52081 0.0
C3472 C 0.41477 0.45732 0.52905 0.0
C3473 C 0.42123 0.4685 0.50651 0.0
C3474 C 0.3938 0.44299 0.53062 0.0
C3475 C 0.37921 0.43988 0.50914 0.0
C3476 C 0.3865 0.45022 0.48611 0.0
C3477 C 0.40733 0.46451 0.48515 0.0
C3478 C 0.38669 0.43215 0.55546 0.0
C3479 C 0.37176 0.44717 0.46268 0.0
H3480 H 0.32984 0.371 0.50146 0.0
H3481 H 0.29649 0.43935 0.51819 0.0
H3482 H 0.38404 0.39329 0.48306 0.0
H3483 H 0.38871 0.38878 0.51574 0.0
H3484 H 0.37111 0.36691 0.4983 0.0
H3485 H 0.31838 0.47539 0.52542 0.0
H3486 H 0.3484 0.47136 0.53661 0.0
H3487 H 0.34322 0.47759 0.50428 0.0
H3488 H 0.42546 0.46069 0.54559 0.0
H3489 H 0.41241 0.47331 0.46776 0.0
H3490 H 0.38238 0.4124 0.55342 0.0
H3491 H 0.37041 0.44124 0.56227 0.0
H3492 H 0.40091 0.43433 0.56976 0.0
H3493 H 0.36767 0.42755 0.45938 0.0
H3494 H 0.38089 0.45473 0.44593 0.0
H3495 H 0.35456 0.45668 0.4649 0.0
C3496 C 0.82656 0.06961 0.52919 0.0
C3497 C 0.80761 0.06601 0.5125 0.0
C3498 C 0.8484 0.0581 0.52538 0.0
C3499 C 0.85101 0.04225 0.50475 0.0
C3500 C 0.83125 0.03686 0.48921 0.0
C3501 C 0.80982 0.04912 0.49306 0.0
C3502 C 0.8692 0.06464 0.54209 0.0
C3503 C 0.83324 0.01954 0.46744 0.0
C3504 C 0.91088 0.04554 0.47357 0.0
C3505 C 0.9226 0.02525 0.48379 0.0
C3506 C 0.88752 0.05091 0.48002 0.0
C3507 C 0.87517 0.03527 0.49668 0.0
C3508 C 0.8863 0.01403 0.5061 0.0
C3509 C 0.91009 0.00938 0.49977 0.0
C3510 C 0.87644 0.07396 0.46973 0.0
C3511 C 0.8734 -0.00333 0.52344 0.0
H3512 H 0.82487 0.08266 0.54426 0.0
H3513 H 0.79502 0.04605 0.48037 0.0
H3514 H 0.87849 0.04791 0.54835 0.0
H3515 H 0.88222 0.07594 0.53145 0.0
H3516 H 0.86365 0.0751 0.5588 0.0
H3517 H 0.8155 0.01393 0.46012 0.0
H3518 H 0.84327 0.02861 0.45213 0.0
H3519 H 0.84318 0.00294 0.47295 0.0
H3520 H 0.92023 0.05797 0.46112 0.0
H3521 H 0.91895 0.99364 0.50766 0.0
H3522 H 0.87168 0.08631 0.48529 0.0
H3523 H 0.85982 0.06943 0.45946 0.0
H3524 H 0.88854 0.08407 0.45688 0.0
H3525 H 0.87287 0.00471 0.54241 0.0
H3526 H 0.88238 0.97871 0.52462 0.0
H3527 H 0.85475 0.99366 0.51723 0.0
C3528 C 0.66744 0.07773 0.24203 0.0
C3529 C 0.64357 0.07595 0.23463 0.0
C3530 C 0.68007 0.09966 0.23948 0.0
C3531 C 0.6685 0.12024 0.22925 0.0
C3532 C 0.6446 0.11849 0.22119 0.0
C3533 C 0.63232 0.09625 0.22401 0.0
C3534 C 0.70562 0.10095 0.24836 0.0
C3535 C 0.63197 0.14017 0.21001 0.0
C3536 C 0.6967 0.17855 0.2519 0.0
C3537 C 0.7135 0.18266 0.23319 0.0
C3538 C 0.68069 0.15896 0.25012 0.0
C3539 C 0.68127 0.14385 0.22873 0.0
C3540 C 0.69695 0.14933 0.20881 0.0
C3541 C 0.71337 0.16855 0.21152 0.0
C3542 C 0.66478 0.15312 0.27208 0.0
C3543 C 0.6976 0.13385 0.18554 0.0
H3544 H 0.67627 0.06202 0.25005 0.0
H3545 H 0.6139 0.09484 0.21811 0.0
H3546 H 0.71741 0.10695 0.2329 0.0
H3547 H 0.70743 0.11464 0.26352 0.0
H3548 H 0.71203 0.08307 0.25546 0.0
H3549 H 0.61392 0.13527 0.20301 0.0
H3550 H 0.63026 0.15475 0.22424 0.0
H3551 H 0.64252 0.14795 0.19436 0.0
H3552 H 0.69723 0.18961 0.26869 0.0
H3553 H 0.72653 0.17208 0.19716 0.0
H3554 H 0.67032 0.13562 0.28076 0.0
H3555 H 0.64608 0.15074 0.26581 0.0
H3556 H 0.66552 0.1676 0.28659 0.0
H3557 H 0.70664 0.11637 0.18974 0.0
H3558 H 0.70737 0.14317 0.17016 0.0
H3559 H 0.67931 0.12932 0.17905 0.0
C3560 C 0.65411 0.92114 0.04794 0.0
C3561 C 0.67019 0.92123 0.0279 0.0
C3562 C 0.63095 0.93033 0.04514 0.0
C3563 C 0.6237 0.93989 0.02177 0.0
C3564 C 0.64004 0.94043 0.00165 0.0
C3565 C 0.66302 0.93119 0.00498 0.0
C3566 C 0.61432 0.92986 0.06716 0.0
C3567 C 0.63311 0.95034 0.97631 0.0
C3568 C 0.56204 0.94316 0.99438 0.0
C3569 C 0.55911 0.96848 0.99319 0.0
C3570 C 0.58171 0.93311 0.00677 0.0
C3571 C 0.59904 0.94892 0.01757 0.0
C3572 C 0.59442 0.97431 0.01907 0.0
C3573 C 0.57452 0.98384 0.00661 0.0
C3574 C 0.58525 0.90583 0.0057 0.0
C3575 C 0.61181 0.99181 0.03122 0.0
H3576 H 0.65948 0.91356 0.06577 0.0
H3577 H 0.67523 0.93131 0.98936 0.0
H3578 H 0.61116 0.94887 0.07333 0.0
H3579 H 0.59685 0.92176 0.06185 0.0
H3580 H 0.62166 0.91941 0.08319 0.0
H3581 H 0.64798 0.94974 0.96273 0.0
H3582 H 0.61793 0.93955 0.96866 0.0
H3583 H 0.62723 0.96957 0.97805 0.0
H3584 H 0.55003 0.93134 0.98393 0.0
H3585 H 0.57219 0.00348 0.00559 0.0
H3586 H 0.59326 0.89891 0.02327 0.0
H3587 H 0.59759 0.90157 0.99021 0.0
H3588 H 0.56818 0.8959 0.00233 0.0
H3589 H 0.61967 0.98374 0.04832 0.0
H3590 H 0.60319 0.00932 0.03619 0.0
H3591 H 0.62653 -0.00414 0.01802 0.0
C3592 C 0.35167 0.40449 0.27017 0.0
C3593 C 0.33969 0.42502 0.26078 0.0
C3594 C 0.34043 0.38144 0.27153 0.0
C3595 C 0.31676 0.37873 0.26288 0.0
C3596 C 0.30402 0.39973 0.25519 0.0
C3597 C 0.31562 0.42264 0.25431 0.0
C3598 C 0.35441 0.35974 0.28067 0.0
C3599 C 0.27865 0.3977 0.24604 0.0
C3600 C 0.29787 0.32468 0.22407 0.0
C3601 C 0.27967 0.31438 0.23858 0.0
C3602 C 0.31146 0.34446 0.2327 0.0
C3603 C 0.307 0.35398 0.25675 0.0
C3604 C 0.29072 0.3416 0.27277 0.0
C3605 C 0.27693 0.32193 0.26335 0.0
C3606 C 0.32872 0.35672 0.21491 0.0
C3607 C 0.28637 0.35023 0.29905 0.0
H3608 H 0.37017 0.40619 0.27574 0.0
H3609 H 0.30613 0.43842 0.24736 0.0
H3610 H 0.34308 0.34739 0.29218 0.0
H3611 H 0.36075 0.34908 0.26446 0.0
H3612 H 0.37018 0.3655 0.29184 0.0
H3613 H 0.27056 0.41589 0.24285 0.0
H3614 H 0.27814 0.38737 0.22823 0.0
H3615 H 0.26763 0.38745 0.25974 0.0
H3616 H 0.30013 0.31854 0.20498 0.0
H3617 H 0.26287 0.31395 0.27462 0.0
H3618 H 0.3463 0.35944 0.22396 0.0
H3619 H 0.32196 0.37503 0.20962 0.0
H3620 H 0.33127 0.34596 0.19757 0.0
H3621 H 0.3027 0.35835 0.30744 0.0
H3622 H 0.27999 0.33496 0.31111 0.0
H3623 H 0.27243 0.36443 0.29881 0.0
C3624 C 0.16648 0.57454 -0.00172 0.0
C3625 C 0.17275 0.59773 0.00721 0.0
C3626 C 0.14287 0.56627 -0.00072 0.0
C3627 C 0.12521 0.58173 0.00925 0.0
C3628 C 0.13129 0.60548 0.01752 0.0
C3629 C 0.15509 0.61319 0.01649 0.0
C3630 C 0.13698 0.54068 0.99044 0.0
C3631 C 0.11286 0.62237 0.02817 0.0
C3632 C 0.06385 0.5586 0.99313 0.0
C3633 C 0.06026 0.54217 0.01284 0.0
C3634 C 0.08428 0.57345 0.99253 0.0
C3635 C 0.10078 0.57209 0.01248 0.0
C3636 C 0.09546 0.55783 0.03388 0.0
C3637 C 0.07534 0.54262 0.03359 0.0
C3638 C 0.0895 0.58828 0.96934 0.0
C3639 C 0.11231 0.55647 0.05584 0.0
H3640 H 0.18011 0.56258 0.99113 0.0
H3641 H 0.15987 0.63128 0.02321 0.0
H3642 H 0.13081 0.52936 0.00643 0.0
H3643 H 0.12231 0.54112 0.97655 0.0
H3644 H 0.15252 0.5316 0.98186 0.0
H3645 H 0.12025 0.64088 0.03217 0.0
H3646 H 0.09768 0.6242 0.01504 0.0
H3647 H 0.10569 0.61452 0.04576 0.0
H3648 H 0.05211 0.55791 0.97701 0.0
H3649 H 0.07234 0.52976 0.04875 0.0
H3650 H 0.10392 0.57944 0.95866 0.0
H3651 H 0.09577 0.60695 0.9743 0.0
H3652 H 0.07364 0.58971 0.95701 0.0
H3653 H 0.12774 0.54501 0.05081 0.0
H3654 H 0.10361 0.54826 0.07251 0.0
H3655 H 0.11924 0.5749 0.0608 0.0
C3656 C 0.6447 0.91102 0.24412 0.0
C3657 C 0.6538 0.93455 0.24845 0.0
C3658 C 0.65952 0.8907 0.24523 0.0
C3659 C 0.68399 0.89414 0.25064 0.0
C3660 C 0.69352 0.91794 0.25382 0.0
C3661 C 0.67823 0.93794 0.25286 0.0
C3662 C 0.64875 0.86548 0.24174 0.0
C3663 C 0.71964 0.92215 0.25911 0.0
C3664 C 0.70687 0.83902 0.28415 0.0
C3665 C 0.71584 0.82549 0.26425 0.0
C3666 C 0.69837 0.8626 0.28032 0.0
C3667 C 0.69868 0.87257 0.25593 0.0
C3668 C 0.70978 0.85986 0.23623 0.0
C3669 C 0.71842 0.83633 0.2407 0.0
C3670 C 0.68696 0.87579 0.30188 0.0
C3671 C 0.71048 0.86993 0.20999 0.0
H3672 H 0.62587 0.90837 0.24048 0.0
H3673 H 0.6854 0.9562 0.25577 0.0
H3674 H 0.65886 0.85517 0.22754 0.0
H3675 H 0.64982 0.8551 0.25954 0.0
H3676 H 0.62981 0.86613 0.23582 0.0
H3677 H 0.72473 0.94181 0.25784 0.0
H3678 H 0.72393 0.91551 0.27817 0.0
H3679 H 0.73066 0.91165 0.24584 0.0
H3680 H 0.70522 0.83059 0.30243 0.0
H3681 H 0.72537 0.82574 0.22532 0.0
H3682 H 0.66737 0.87587 0.29921 0.0
H3683 H 0.69314 0.8951 0.30263 0.0
H3684 H 0.6909 0.86693 0.3201 0.0
H3685 H 0.69311 0.86627 0.20074 0.0
H3686 H 0.72456 0.86114 0.19872 0.0
H3687 H 0.71354 0.89001 0.20997 0.0
C3688 C 0.83867 0.08781 0.71115 0.0
C3689 C 0.83404 0.06923 0.72869 0.0
C3690 C 0.82743 0.11054 0.71269 0.0
C3691 C 0.8113 0.11483 0.73235 0.0
C3692 C 0.8057 0.09574 0.7494 0.0
C3693 C 0.81704 0.07309 0.74726 0.0
C3694 C 0.83345 0.1302 0.69385 0.0
C3695 C 0.78871 0.09963 0.77078 0.0
C3696 C 0.80311 0.17656 0.76219 0.0
C3697 C 0.77964 0.18166 0.75546 0.0
C3698 C 0.8145 0.15583 0.75292 0.0
C3699 C 0.80191 0.13978 0.73675 0.0
C3700 C 0.77899 0.1462 0.72804 0.0
C3701 C 0.76803 0.16713 0.73765 0.0
C3702 C 0.83899 0.14974 0.76264 0.0
C3703 C 0.765 0.12973 0.7107 0.0
H3704 H 0.85158 0.08482 0.69651 0.0
H3705 H 0.81336 0.05881 0.76083 0.0
H3706 H 0.81692 0.13724 0.6853 0.0
H3707 H 0.84247 0.14582 0.70324 0.0
H3708 H 0.84518 0.12344 0.67877 0.0
H3709 H 0.78536 0.0826 0.78163 0.0
H3710 H 0.79612 0.11372 0.78359 0.0
H3711 H 0.77145 0.10646 0.76368 0.0
H3712 H 0.81181 0.18764 0.77636 0.0
H3713 H 0.74962 0.17081 0.733 0.0
H3714 H 0.85089 0.14464 0.74708 0.0
H3715 H 0.83772 0.13379 0.77544 0.0
H3716 H 0.84726 0.16527 0.77296 0.0
H3717 H 0.77668 0.12155 0.69639 0.0
H3718 H 0.75043 0.13973 0.70121 0.0
H3719 H 0.7569 0.11453 0.72162 0.0
loop_
_geom_bond_atom_site_label_1
_geom_bond_atom_site_label_2
_geom_bond_distance
_geom_bond_site_symmetry_2
_ccdc_geom_bond_type
C0 O1 1.160 . S
C0 O7 1.185 . S
O1 C0 1.160 . S
O2 Zn3 1.900 . S
O2 C10 1.284 1_655 S
Zn3 O2 1.900 . S
Zn3 O4 2.038 . S
Zn3 O7 2.104 . S
Zn3 O12 1.958 1_655 S
O4 Zn3 2.038 . S
O4 C8 1.278 1_655 S
C5 O6 1.203 . S
C5 O12 1.267 . S
O6 C5 1.203 . S
O7 C0 1.185 . S
O7 Zn3 2.104 . S
C8 O4 1.278 1_455 S
C8 O9 1.211 . S
O9 C8 1.211 . S
C10 O2 1.284 1_455 S
C10 O11 1.273 . S
O11 C10 1.273 . S
O12 Zn3 1.958 1_455 S
O12 C5 1.267 . S
C13 O14 1.160 . S
C13 O20 1.185 . S
O14 C13 1.160 . S
O15 Zn16 1.899 . S
O15 C23 1.284 . S
Zn16 O15 1.899 . S
Zn16 O17 2.032 . S
Zn16 O20 2.086 . S
Zn16 O25 1.977 1_455 S
O17 Zn16 2.032 . S
O17 C21 1.288 . S
C18 O19 1.203 . S
C18 O25 1.267 . S
O19 C18 1.203 . S
O20 C13 1.185 . S
O20 Zn16 2.086 . S
C21 O17 1.288 . S
C21 O22 1.196 1_455 S
O22 C21 1.196 1_655 S
C23 O15 1.284 . S
C23 O24 1.273 1_455 S
O24 C23 1.273 1_655 S
O25 Zn16 1.977 1_655 S
O25 C18 1.267 . S
C26 O27 1.160 . S
C26 O33 1.185 . S
O27 C26 1.160 . S
O28 Zn29 1.899 . S
O28 C36 1.284 . S
Zn29 O28 1.899 . S
Zn29 O30 2.032 . S
Zn29 O33 2.086 . S
Zn29 O38 1.977 . S
O30 Zn29 2.032 . S
O30 C34 1.278 . S
C31 O32 1.203 . S
C31 O38 1.267 . S
O32 C31 1.203 . S
O33 C26 1.185 . S
O33 Zn29 2.086 . S
C34 O30 1.278 . S
C34 O35 1.211 . S
O35 C34 1.211 . S
C36 O28 1.284 . S
C36 O37 1.273 . S
O37 C36 1.273 . S
O38 Zn29 1.977 . S
O38 C31 1.267 . S
C39 O40 1.160 . S
C39 O46 1.185 . S
O40 C39 1.160 . S
O41 Zn42 1.899 . S
O41 C49 1.284 . S
Zn42 O41 1.899 . S
Zn42 O43 2.032 . S
Zn42 O46 2.086 . S
Zn42 O51 1.977 . S
O43 Zn42 2.032 . S
O43 C47 1.278 . S
C44 O45 1.203 . S
C44 O51 1.267 . S
O45 C44 1.203 . S
O46 C39 1.185 . S
O46 Zn42 2.086 . S
C47 O43 1.278 . S
C47 O48 1.211 . S
O48 C47 1.211 . S
C49 O41 1.284 . S
C49 O50 1.273 . S
O50 C49 1.273 . S
O51 Zn42 1.977 . S
O51 C44 1.267 . S
C52 O53 1.160 . S
C52 O59 1.185 . S
O53 C52 1.160 . S
O54 Zn55 1.899 . S
O54 C62 1.284 1_565 S
Zn55 O54 1.899 . S
Zn55 O56 2.032 . S
Zn55 O59 2.087 . S
Zn55 O64 1.977 1_565 S
O56 Zn55 2.032 . S
O56 C60 1.278 1_565 S
C57 O58 1.203 . S
C57 O64 1.267 . S
O58 C57 1.203 . S
O59 C52 1.185 . S
O59 Zn55 2.087 . S
C60 O56 1.278 1_545 S
C60 O61 1.211 . S
O61 C60 1.211 . S
C62 O54 1.284 1_545 S
C62 O63 1.273 . S
O63 C62 1.273 . S
O64 Zn55 1.977 1_545 S
O64 C57 1.267 . S
C65 O66 1.160 . S
C65 O72 1.185 . S
O66 C65 1.160 . S
O67 Zn68 1.899 . S
O67 C75 1.284 . S
Zn68 O67 1.899 . S
Zn68 O69 2.032 . S
Zn68 O72 2.086 . S
Zn68 O77 1.977 . S
O69 Zn68 2.032 . S
O69 C73 1.278 . S
C70 O71 1.203 . S
C70 O77 1.267 . S
O71 C70 1.203 . S
O72 C65 1.185 . S
O72 Zn68 2.086 . S
C73 O69 1.278 . S
C73 O74 1.211 . S
O74 C73 1.211 . S
C75 O67 1.284 . S
C75 O76 1.273 . S
O76 C75 1.273 . S
O77 Zn68 1.977 . S
O77 C70 1.267 . S
C78 O79 1.160 . S
C78 O85 1.185 . S
O79 C78 1.160 . S
O80 Zn81 1.899 . S
O80 C88 1.284 . S
Zn81 O80 1.899 . S
Zn81 O82 2.032 . S
Zn81 O85 2.086 . S
Zn81 O90 1.977 1_545 S
O82 Zn81 2.032 . S
O82 C86 1.278 . S
C83 O84 1.203 . S
C83 O90 1.267 . S
O84 C83 1.203 . S
O85 C78 1.185 . S
O85 Zn81 2.086 . S
C86 O82 1.278 . S
C86 O87 1.211 1_545 S
O87 C86 1.211 1_565 S
C88 O80 1.284 . S
C88 O89 1.273 1_545 S
O89 C88 1.273 1_565 S
O90 Zn81 1.977 1_565 S
O90 C83 1.267 . S
C91 O92 1.160 . S
C91 O98 1.185 . S
O92 C91 1.160 . S
O93 Zn94 1.899 . S
O93 C101 1.284 . S
Zn94 O93 1.899 . S
Zn94 O95 2.032 1_554 S
Zn94 O98 2.086 . S
Zn94 O103 1.977 . S
O95 Zn94 2.032 1_556 S
O95 C99 1.278 . S
C96 O97 1.203 . S
C96 O103 1.267 . S
O97 C96 1.203 . S
O98 C91 1.185 . S
O98 Zn94 2.086 . S
C99 O95 1.278 . S
C99 O100 1.211 . S
O100 C99 1.211 . S
C101 O93 1.284 . S
C101 O102 1.273 . S
O102 C101 1.273 . S
O103 Zn94 1.977 . S
O103 C96 1.267 . S
C104 O105 1.160 . S
C104 O111 1.189 . S
O105 C104 1.160 . S
O106 Zn107 1.899 . S
O106 C114 1.284 . S
Zn107 O106 1.899 . S
Zn107 O108 2.032 1_554 S
Zn107 O111 2.088 . S
Zn107 O116 1.981 . S
O108 Zn107 2.032 1_556 S
O108 C112 1.278 . S
C109 O110 1.203 . S
C109 O116 1.273 . S
O110 C109 1.203 . S
O111 C104 1.189 . S
O111 Zn107 2.088 . S
C112 O108 1.278 . S
C112 O113 1.211 . S
O113 C112 1.211 . S
C114 O106 1.284 . S
C114 O115 1.273 . S
O115 C114 1.273 . S
O116 Zn107 1.981 . S
O116 C109 1.273 . S
C117 O118 1.160 . S
C117 O124 1.185 . S
O118 C117 1.160 . S
O119 Zn120 1.899 . S
O119 C127 1.284 . S
Zn120 O119 1.899 . S
Zn120 O121 2.032 . S
Zn120 O124 2.086 . S
Zn120 O129 1.977 . S
O121 Zn120 2.032 . S
O121 C125 1.278 . S
C122 O123 1.203 . S
C122 O129 1.267 . S
O123 C122 1.203 . S
O124 C117 1.185 . S
O124 Zn120 2.086 . S
C125 O121 1.278 . S
C125 O126 1.211 . S
O126 C125 1.211 . S
C127 O119 1.284 . S
C127 O128 1.273 . S
O128 C127 1.273 . S
O129 Zn120 1.977 . S
O129 C122 1.267 . S
C130 O131 1.160 . S
C130 O137 1.185 . S
O131 C130 1.160 . S
O132 Zn133 1.899 . S
O132 C140 1.284 . S
Zn133 O132 1.899 . S
Zn133 O134 2.032 . S
Zn133 O137 2.086 . S
Zn133 O142 1.977 . S
O134 Zn133 2.032 . S
O134 C138 1.278 . S
C135 O136 1.203 . S
C135 O142 1.267 . S
O136 C135 1.203 . S
O137 C130 1.185 . S
O137 Zn133 2.086 . S
C138 O134 1.278 . S
C138 O139 1.211 . S
O139 C138 1.211 . S
C140 O132 1.284 . S
C140 O141 1.273 . S
O141 C140 1.273 . S
O142 Zn133 1.977 . S
O142 C135 1.267 . S
C143 O144 1.160 . S
C143 O150 1.185 . S
O144 C143 1.160 . S
O145 Zn146 1.899 . S
O145 C153 1.284 . S
Zn146 O145 1.899 . S
Zn146 O147 2.032 . S
Zn146 O150 2.086 . S
Zn146 O155 1.977 . S
O147 Zn146 2.032 . S
O147 C151 1.278 . S
C148 O149 1.203 . S
C148 O155 1.267 . S
O149 C148 1.203 . S
O150 C143 1.185 . S
O150 Zn146 2.086 . S
C151 O147 1.278 . S
C151 O152 1.211 . S
O152 C151 1.211 . S
C153 O145 1.284 . S
C153 O154 1.273 . S
O154 C153 1.273 . S
O155 Zn146 1.977 . S
O155 C148 1.267 . S
C156 O157 1.160 . S
C156 O163 1.185 . S
O157 C156 1.160 . S
O158 Zn159 1.899 . S
O158 C166 1.284 . S
Zn159 O158 1.899 . S
Zn159 O160 2.032 . S
Zn159 O163 2.086 . S
Zn159 O168 1.977 1_455 S
O160 Zn159 2.032 . S
O160 C164 1.299 . S
C161 O162 1.203 . S
C161 O168 1.267 . S
O162 C161 1.203 . S
O163 C156 1.185 . S
O163 Zn159 2.086 . S
C164 O160 1.299 . S
C164 O165 1.181 1_455 S
O165 C164 1.181 1_655 S
C166 O158 1.284 . S
C166 O167 1.273 1_455 S
O167 C166 1.273 1_655 S
O168 Zn159 1.977 1_655 S
O168 C161 1.267 . S
C169 O170 1.160 . S
C169 O176 1.185 . S
O170 C169 1.160 . S
O171 Zn172 1.899 . S
O171 C179 1.286 . S
Zn172 O171 1.899 . S
Zn172 O173 2.032 1_455 S
Zn172 O176 2.086 1_455 S
Zn172 O181 1.977 . S
O173 Zn172 2.032 1_655 S
O173 C177 1.278 1_655 S
C174 O175 1.203 . S
C174 O181 1.267 . S
O175 C174 1.203 . S
O176 C169 1.185 . S
O176 Zn172 2.086 1_655 S
C177 O173 1.278 1_455 S
C177 O178 1.211 . S
O178 C177 1.211 . S
C179 O171 1.286 . S
C179 O180 1.273 . S
O180 C179 1.273 . S
O181 Zn172 1.977 . S
O181 C174 1.267 . S
C182 O183 1.160 . S
C182 O189 1.185 . S
O183 C182 1.160 . S
O184 Zn185 1.899 . S
O184 C192 1.284 . S
Zn185 O184 1.899 . S
Zn185 O186 2.032 . S
Zn185 O189 2.086 . S
Zn185 O194 1.977 . S
O186 Zn185 2.032 . S
O186 C190 1.278 . S
C187 O188 1.203 . S
C187 O194 1.267 . S
O188 C187 1.203 . S
O189 C182 1.185 . S
O189 Zn185 2.086 . S
C190 O186 1.278 . S
C190 O191 1.211 . S
O191 C190 1.211 . S
C192 O184 1.284 . S
C192 O193 1.273 . S
O193 C192 1.273 . S
O194 Zn185 1.977 . S
O194 C187 1.267 . S
C195 O196 1.160 . S
C195 O202 1.185 . S
O196 C195 1.160 . S
O197 Zn198 1.899 . S
O197 C205 1.284 . S
Zn198 O197 1.899 . S
Zn198 O199 2.032 . S
Zn198 O202 2.086 . S
Zn198 O207 1.977 . S
O199 Zn198 2.032 . S
O199 C203 1.278 . S
C200 O201 1.203 . S
C200 O207 1.267 . S
O201 C200 1.203 . S
O202 C195 1.185 . S
O202 Zn198 2.086 . S
C203 O199 1.278 . S
C203 O204 1.211 . S
O204 C203 1.211 . S
C205 O197 1.284 . S
C205 O206 1.273 . S
O206 C205 1.273 . S
O207 Zn198 1.977 . S
O207 C200 1.267 . S
C208 O209 1.160 . S
C208 O215 1.185 . S
O209 C208 1.160 . S
O210 Zn211 1.899 . S
O210 C218 1.278 1_545 S
Zn211 O210 1.899 . S
Zn211 O212 2.032 . S
Zn211 O215 2.086 . S
Zn211 O220 1.977 1_545 S
O212 Zn211 2.032 . S
O212 C216 1.278 1_545 S
C213 O214 1.203 . S
C213 O220 1.267 . S
O214 C213 1.203 . S
O215 C208 1.185 . S
O215 Zn211 2.086 . S
C216 O212 1.278 1_565 S
C216 O217 1.211 . S
O217 C216 1.211 . S
C218 O210 1.278 1_565 S
C218 O219 1.282 . S
O219 C218 1.282 . S
O220 Zn211 1.977 1_565 S
O220 C213 1.267 . S
C221 O222 1.160 . S
C221 O228 1.185 . S
O222 C221 1.160 . S
O223 Zn224 1.899 . S
O223 C231 1.284 . S
Zn224 O223 1.899 . S
Zn224 O225 2.032 . S
Zn224 O228 2.086 . S
Zn224 O233 1.977 . S
O225 Zn224 2.032 . S
O225 C229 1.278 . S
C226 O227 1.203 . S
C226 O233 1.267 . S
O227 C226 1.203 . S
O228 C221 1.185 . S
O228 Zn224 2.086 . S
C229 O225 1.278 . S
C229 O230 1.211 . S
O230 C229 1.211 . S
C231 O223 1.284 . S
C231 O232 1.273 . S
O232 C231 1.273 . S
O233 Zn224 1.977 . S
O233 C226 1.267 . S
C234 O235 1.160 . S
C234 O241 1.185 . S
O235 C234 1.160 . S
O236 Zn237 1.900 . S
O236 C244 1.290 . S
Zn237 O236 1.900 . S
Zn237 O238 2.032 1_545 S
Zn237 O241 2.086 1_545 S
Zn237 O246 1.977 . S
O238 Zn237 2.032 1_565 S
O238 C242 1.278 1_565 S
C239 O240 1.203 . S
C239 O246 1.267 . S
O240 C239 1.203 . S
O241 C234 1.185 . S
O241 Zn237 2.086 1_565 S
C242 O238 1.278 1_545 S
C242 O243 1.211 . S
O243 C242 1.211 . S
C244 O236 1.290 . S
C244 O245 1.273 . S
O245 C244 1.273 . S
O246 Zn237 1.977 . S
O246 C239 1.267 . S
C247 O248 1.160 . S
C247 O254 1.185 . S
O248 C247 1.160 . S
O249 Zn250 1.899 . S
O249 C257 1.284 . S
Zn250 O249 1.899 . S
Zn250 O251 2.032 1_554 S
Zn250 O254 2.086 . S
Zn250 O259 1.977 . S
O251 Zn250 2.032 1_556 S
O251 C255 1.278 . S
C252 O253 1.203 . S
C252 O259 1.267 . S
O253 C252 1.203 . S
O254 C247 1.185 . S
O254 Zn250 2.086 . S
C255 O251 1.278 . S
C255 O256 1.211 . S
O256 C255 1.211 . S
C257 O249 1.284 . S
C257 O258 1.273 . S
O258 C257 1.273 . S
O259 Zn250 1.977 . S
O259 C252 1.267 . S
C260 O261 1.160 . S
C260 O267 1.185 1_554 S
O261 C260 1.160 . S
O262 Zn263 1.899 . S
O262 C270 1.284 . S
Zn263 O262 1.899 . S
Zn263 O264 2.032 1_554 S
Zn263 O267 2.086 1_554 S
Zn263 O272 1.977 1_554 S
O264 Zn263 2.032 1_556 S
O264 C268 1.278 . S
C265 O266 1.203 . S
C265 O272 1.267 1_554 S
O266 C265 1.203 . S
O267 C260 1.185 1_556 S
O267 Zn263 2.086 1_556 S
C268 O264 1.278 . S
C268 O269 1.211 . S
O269 C268 1.211 . S
C270 O262 1.284 . S
C270 O271 1.273 . S
O271 C270 1.273 . S
O272 Zn263 1.977 1_556 S
O272 C265 1.267 1_556 S
C273 O274 1.160 . S
C273 O280 1.185 . S
O274 C273 1.160 . S
O275 Zn276 1.899 . S
O275 C283 1.284 . S
Zn276 O275 1.899 . S
Zn276 O277 2.032 . S
Zn276 O280 2.086 . S
Zn276 O285 1.977 . S
O277 Zn276 2.032 . S
O277 C281 1.278 . S
C278 O279 1.203 . S
C278 O285 1.267 . S
O279 C278 1.203 . S
O280 C273 1.185 . S
O280 Zn276 2.086 . S
C281 O277 1.278 . S
C281 O282 1.211 . S
O282 C281 1.211 . S
C283 O275 1.284 . S
C283 O284 1.273 . S
O284 C283 1.273 . S
O285 Zn276 1.977 . S
O285 C278 1.267 . S
C286 O287 1.160 . S
C286 O293 1.185 . S
O287 C286 1.160 . S
O288 Zn289 1.899 . S
O288 C296 1.284 . S
Zn289 O288 1.899 . S
Zn289 O290 2.032 . S
Zn289 O293 2.086 . S
Zn289 O298 1.977 . S
O290 Zn289 2.032 . S
O290 C294 1.278 . S
C291 O292 1.203 . S
C291 O298 1.267 . S
O292 C291 1.203 . S
O293 C286 1.185 . S
O293 Zn289 2.086 . S
C294 O290 1.278 . S
C294 O295 1.211 . S
O295 C294 1.211 . S
C296 O288 1.284 . S
C296 O297 1.273 . S
O297 C296 1.273 . S
O298 Zn289 1.977 . S
O298 C291 1.267 . S
C299 O300 1.160 . S
C299 O306 1.185 . S
O300 C299 1.160 . S
O301 Zn302 1.899 . S
O301 C309 1.284 . S
Zn302 O301 1.899 . S
Zn302 O303 2.032 . S
Zn302 O306 2.086 . S
Zn302 O311 1.977 . S
O303 Zn302 2.032 . S
O303 C307 1.278 . S
C304 O305 1.203 . S
C304 O311 1.267 . S
O305 C304 1.203 . S
O306 C299 1.185 . S
O306 Zn302 2.086 . S
C307 O303 1.278 . S
C307 O308 1.211 . S
O308 C307 1.211 . S
C309 O301 1.284 . S
C309 O310 1.273 . S
O310 C309 1.273 . S
O311 Zn302 1.977 . S
O311 C304 1.267 . S
O312 Mn313 2.170 . S
O312 C326 1.240 1_554 S
Mn313 O312 2.170 . S
Mn313 O316 2.160 1_445 S
Mn313 O317 2.221 1_455 S
Mn313 O319 2.163 1_454 S
Mn313 O321 2.160 1_545 S
Mn313 O331 2.221 1_544 S
O314 Mn315 2.101 1_556 S
O314 C326 1.241 1_565 S
Mn315 O314 2.101 1_554 S
Mn315 O322 2.089 . S
Mn315 O331 2.289 1_554 S
Mn315 O332 2.251 1_554 S
O316 Mn313 2.160 1_665 S
O316 C327 1.239 . S
O317 Mn313 2.221 1_655 S
O317 Mn318 2.290 1_554 S
O317 C328 1.278 . S
Mn318 O317 2.290 1_556 S
Mn318 O320 2.089 1_556 S
Mn318 O323 2.251 1_556 S
Mn318 O324 2.087 . S
O319 Mn313 2.163 1_656 S
O319 C329 1.244 . S
O320 Mn318 2.089 1_554 S
O320 C327 1.256 1_545 S
O321 Mn313 2.160 1_565 S
O321 C330 1.239 . S
O322 Mn315 2.089 . S
O322 C330 1.256 . S
O323 Mn318 2.251 1_554 S
O323 C328 1.241 . S
O324 Mn318 2.087 . S
O324 C329 1.256 . S
C325 O331 1.280 . S
C325 O332 1.241 . S
C326 O312 1.240 1_556 S
C326 O314 1.241 1_545 S
C327 O316 1.239 . S
C327 O320 1.256 1_565 S
C328 O317 1.278 . S
C328 O323 1.241 . S
C329 O319 1.244 . S
C329 O324 1.256 . S
C330 O321 1.239 . S
C330 O322 1.256 . S
O331 Mn313 2.221 1_566 S
O331 Mn315 2.289 1_556 S
O331 C325 1.280 . S
O332 Mn315 2.251 1_556 S
O332 C325 1.241 . S
O333 Mn334 2.163 . S
O333 C347 1.244 . S
Mn334 O333 2.163 . S
Mn334 O337 2.160 . S
Mn334 O338 2.221 . S
Mn334 O340 2.163 . S
Mn334 O342 2.160 . S
Mn334 O352 2.221 . S
O335 Mn336 2.087 . S
O335 C347 1.256 . S
Mn336 O335 2.087 . S
Mn336 O343 2.089 . S
Mn336 O352 2.290 . S
Mn336 O353 2.251 . S
O337 Mn334 2.160 . S
O337 C348 1.239 . S
O338 Mn334 2.221 . S
O338 Mn339 2.290 . S
O338 C349 1.278 . S
Mn339 O338 2.290 . S
Mn339 O341 2.089 . S
Mn339 O344 2.251 . S
Mn339 O345 2.087 . S
O340 Mn334 2.163 . S
O340 C350 1.244 . S
O341 Mn339 2.089 . S
O341 C348 1.256 . S
O342 Mn334 2.160 . S
O342 C351 1.239 . S
O343 Mn336 2.089 . S
O343 C351 1.256 . S
O344 Mn339 2.251 . S
O344 C349 1.241 . S
O345 Mn339 2.087 . S
O345 C350 1.256 . S
C346 O352 1.278 . S
C346 O353 1.241 . S
C347 O333 1.244 . S
C347 O335 1.256 . S
C348 O337 1.239 . S
C348 O341 1.256 . S
C349 O338 1.278 . S
C349 O344 1.241 . S
C350 O340 1.244 . S
C350 O345 1.256 . S
C351 O342 1.239 . S
C351 O343 1.256 . S
O352 Mn334 2.221 . S
O352 Mn336 2.290 . S
O352 C346 1.278 . S
O353 Mn336 2.251 . S
O353 C346 1.241 . S
O354 Mn355 2.163 1_565 S
O354 C368 1.244 . S
Mn355 O354 2.163 1_545 S
Mn355 O358 2.160 . S
Mn355 O359 2.221 1_545 S
Mn355 O361 2.163 . S
Mn355 O363 2.160 . S
Mn355 O373 2.221 . S
O356 Mn357 2.087 . S
O356 C368 1.256 1_545 S
Mn357 O356 2.087 . S
Mn357 O364 2.089 . S
Mn357 O373 2.290 . S
Mn357 O374 2.251 . S
O358 Mn355 2.160 . S
O358 C369 1.239 . S
O359 Mn355 2.221 1_565 S
O359 Mn360 2.290 . S
O359 C370 1.278 . S
Mn360 O359 2.290 . S
Mn360 O362 2.089 1_565 S
Mn360 O365 2.251 . S
Mn360 O366 2.087 . S
O361 Mn355 2.163 . S
O361 C371 1.244 1_545 S
O362 Mn360 2.089 1_545 S
O362 C369 1.256 . S
O363 Mn355 2.160 . S
O363 C372 1.239 . S
O364 Mn357 2.089 . S
O364 C372 1.256 . S
O365 Mn360 2.251 . S
O365 C370 1.241 . S
O366 Mn360 2.087 . S
O366 C371 1.256 . S
C367 O373 1.278 . S
C367 O374 1.241 . S
C368 O354 1.244 . S
C368 O356 1.256 1_565 S
C369 O358 1.239 . S
C369 O362 1.256 . S
C370 O359 1.278 . S
C370 O365 1.241 . S
C371 O361 1.244 1_565 S
C371 O366 1.256 . S
C372 O363 1.239 . S
C372 O364 1.256 . S
O373 Mn355 2.221 . S
O373 Mn357 2.290 . S
O373 C367 1.278 . S
O374 Mn357 2.251 . S
O374 C367 1.241 . S
O375 Mn376 2.163 . S
O375 C389 1.244 . S
Mn376 O375 2.163 . S
Mn376 O379 2.160 . S
Mn376 O380 2.221 . S
Mn376 O382 2.163 . S
Mn376 O384 2.160 . S
Mn376 O394 2.221 . S
O377 Mn378 2.087 . S
O377 C389 1.256 . S
Mn378 O377 2.087 . S
Mn378 O385 2.089 . S
Mn378 O394 2.290 . S
Mn378 O395 2.251 . S
O379 Mn376 2.160 . S
O379 C390 1.239 . S
O380 Mn376 2.221 . S
O380 Mn381 2.290 . S
O380 C391 1.278 . S
Mn381 O380 2.290 . S
Mn381 O383 2.089 . S
Mn381 O386 2.251 . S
Mn381 O387 2.087 . S
O382 Mn376 2.163 . S
O382 C392 1.244 . S
O383 Mn381 2.089 . S
O383 C390 1.256 . S
O384 Mn376 2.160 . S
O384 C393 1.239 . S
O385 Mn378 2.089 . S
O385 C393 1.256 . S
O386 Mn381 2.251 . S
O386 C391 1.241 . S
O387 Mn381 2.087 . S
O387 C392 1.256 . S
C388 O394 1.278 . S
C388 O395 1.241 . S
C389 O375 1.244 . S
C389 O377 1.256 . S
C390 O379 1.239 . S
C390 O383 1.256 . S
C391 O380 1.278 . S
C391 O386 1.241 . S
C392 O382 1.244 . S
C392 O387 1.256 . S
C393 O384 1.239 . S
C393 O385 1.256 . S
O394 Mn376 2.221 . S
O394 Mn378 2.290 . S
O394 C388 1.278 . S
O395 Mn378 2.251 . S
O395 C388 1.241 . S
O396 Mn397 2.163 1_565 S
O396 C410 1.242 1_455 S
Mn397 O396 2.163 1_545 S
Mn397 O400 2.160 . S
Mn397 O401 2.221 . S
Mn397 O403 2.163 1_455 S
Mn397 O405 2.160 1_545 S
Mn397 O415 2.222 1_545 S
O398 Mn399 2.087 1_655 S
O398 C410 1.257 . S
Mn399 O398 2.087 1_455 S
Mn399 O406 2.089 . S
Mn399 O415 2.292 . S
Mn399 O416 2.251 1_455 S
O400 Mn397 2.160 . S
O400 C411 1.239 . S
O401 Mn397 2.221 . S
O401 Mn402 2.290 1_455 S
O401 C412 1.278 . S
Mn402 O401 2.290 1_655 S
Mn402 O404 2.089 1_655 S
Mn402 O407 2.251 1_655 S
Mn402 O408 2.087 . S
O403 Mn397 2.163 1_655 S
O403 C413 1.244 . S
O404 Mn402 2.089 1_455 S
O404 C411 1.256 . S
O405 Mn397 2.160 1_565 S
O405 C414 1.239 . S
O406 Mn399 2.089 . S
O406 C414 1.256 . S
O407 Mn402 2.251 1_455 S
O407 C412 1.241 . S
O408 Mn402 2.087 . S
O408 C413 1.256 . S
C409 O415 1.273 1_655 S
C409 O416 1.241 . S
C410 O396 1.242 1_655 S
C410 O398 1.257 . S
C411 O400 1.239 . S
C411 O404 1.256 . S
C412 O401 1.278 . S
C412 O407 1.241 . S
C413 O403 1.244 . S
C413 O408 1.256 . S
C414 O405 1.239 . S
C414 O406 1.256 . S
O415 Mn397 2.222 1_565 S
O415 Mn399 2.292 . S
O415 C409 1.273 1_455 S
O416 Mn399 2.251 1_655 S
O416 C409 1.241 . S
O417 Mn418 2.163 . S
O417 C431 1.244 . S
Mn418 O417 2.163 . S
Mn418 O421 2.160 . S
Mn418 O422 2.221 . S
Mn418 O424 2.163 . S
Mn418 O426 2.160 . S
Mn418 O436 2.221 . S
O419 Mn420 2.087 . S
O419 C431 1.256 . S
Mn420 O419 2.087 . S
Mn420 O427 2.089 . S
Mn420 O436 2.290 . S
Mn420 O437 2.251 . S
O421 Mn418 2.160 . S
O421 C432 1.239 . S
O422 Mn418 2.221 . S
O422 Mn423 2.290 . S
O422 C433 1.278 . S
Mn423 O422 2.290 . S
Mn423 O425 2.089 . S
Mn423 O428 2.251 . S
Mn423 O429 2.087 . S
O424 Mn418 2.163 . S
O424 C434 1.244 . S
O425 Mn423 2.089 . S
O425 C432 1.256 . S
O426 Mn418 2.160 . S
O426 C435 1.239 . S
O427 Mn420 2.089 . S
O427 C435 1.256 . S
O428 Mn423 2.251 . S
O428 C433 1.241 . S
O429 Mn423 2.087 . S
O429 C434 1.256 . S
C430 O436 1.278 . S
C430 O437 1.241 . S
C431 O417 1.244 . S
C431 O419 1.256 . S
C432 O421 1.239 . S
C432 O425 1.256 . S
C433 O422 1.278 . S
C433 O428 1.241 . S
C434 O424 1.244 . S
C434 O429 1.256 . S
C435 O426 1.239 . S
C435 O427 1.256 . S
O436 Mn418 2.221 . S
O436 Mn420 2.290 . S
O436 C430 1.278 . S
O437 Mn420 2.251 . S
O437 C430 1.241 . S
O438 Mn439 2.169 1_556 S
O438 C452 1.240 1_545 S
Mn439 O438 2.169 1_554 S
Mn439 O442 2.160 . S
Mn439 O443 2.221 . S
Mn439 O445 2.163 1_545 S
Mn439 O447 2.160 1_554 S
Mn439 O457 2.221 1_554 S
O440 Mn441 2.087 1_565 S
O440 C452 1.256 . S
Mn441 O440 2.087 1_545 S
Mn441 O448 2.089 . S
Mn441 O457 2.289 . S
Mn441 O458 2.251 1_545 S
O442 Mn439 2.160 . S
O442 C453 1.239 . S
O443 Mn439 2.221 . S
O443 Mn444 2.290 1_545 S
O443 C454 1.278 . S
Mn444 O443 2.290 1_565 S
Mn444 O446 2.089 1_565 S
Mn444 O449 2.251 1_565 S
Mn444 O450 2.087 . S
O445 Mn439 2.163 1_565 S
O445 C455 1.244 . S
O446 Mn444 2.089 1_545 S
O446 C453 1.256 . S
O447 Mn439 2.160 1_556 S
O447 C456 1.239 . S
O448 Mn441 2.089 . S
O448 C456 1.256 . S
O449 Mn444 2.251 1_545 S
O449 C454 1.241 . S
O450 Mn444 2.087 . S
O450 C455 1.256 . S
C451 O457 1.280 1_565 S
C451 O458 1.241 . S
C452 O438 1.240 1_565 S
C452 O440 1.256 . S
C453 O442 1.239 . S
C453 O446 1.256 . S
C454 O443 1.278 . S
C454 O449 1.241 . S
C455 O445 1.244 . S
C455 O450 1.256 . S
C456 O447 1.239 . S
C456 O448 1.256 . S
O457 Mn439 2.221 1_556 S
O457 Mn441 2.289 . S
O457 C451 1.280 1_545 S
O458 Mn441 2.251 1_565 S
O458 C451 1.241 . S
O459 Mn460 2.163 . S
O459 C473 1.244 . S
Mn460 O459 2.163 . S
Mn460 O463 2.160 . S
Mn460 O464 2.221 . S
Mn460 O466 2.163 . S
Mn460 O468 2.160 . S
Mn460 O478 2.221 . S
O461 Mn462 2.087 . S
O461 C473 1.256 . S
Mn462 O461 2.087 . S
Mn462 O469 2.089 . S
Mn462 O478 2.290 . S
Mn462 O479 2.251 . S
O463 Mn460 2.160 . S
O463 C474 1.239 . S
O464 Mn460 2.221 . S
O464 Mn465 2.290 . S
O464 C475 1.278 . S
Mn465 O464 2.290 . S
Mn465 O467 2.089 . S
Mn465 O470 2.251 . S
Mn465 O471 2.087 . S
O466 Mn460 2.163 . S
O466 C476 1.244 . S
O467 Mn465 2.089 . S
O467 C474 1.256 . S
O468 Mn460 2.160 . S
O468 C477 1.239 . S
O469 Mn462 2.089 . S
O469 C477 1.256 . S
O470 Mn465 2.251 . S
O470 C475 1.241 . S
O471 Mn465 2.087 . S
O471 C476 1.256 . S
C472 O478 1.278 . S
C472 O479 1.241 . S
C473 O459 1.244 . S
C473 O461 1.256 . S
C474 O463 1.239 . S
C474 O467 1.256 . S
C475 O464 1.278 . S
C475 O470 1.241 . S
C476 O466 1.244 . S
C476 O471 1.256 . S
C477 O468 1.239 . S
C477 O469 1.256 . S
O478 Mn460 2.221 . S
O478 Mn462 2.290 . S
O478 C472 1.278 . S
O479 Mn462 2.251 . S
O479 C472 1.241 . S
O480 Mn481 2.163 1_556 S
O480 C494 1.244 . S
Mn481 O480 2.163 1_554 S
Mn481 O484 2.160 . S
Mn481 O485 2.221 1_554 S
Mn481 O487 2.164 . S
Mn481 O489 2.160 . S
Mn481 O499 2.221 . S
O482 Mn483 2.087 . S
O482 C494 1.256 1_554 S
Mn483 O482 2.087 . S
Mn483 O490 2.089 . S
Mn483 O499 2.290 . S
Mn483 O500 2.251 . S
O484 Mn481 2.160 . S
O484 C495 1.239 . S
O485 Mn481 2.221 1_556 S
O485 Mn486 2.290 . S
O485 C496 1.278 . S
Mn486 O485 2.290 . S
Mn486 O488 2.118 . S
Mn486 O491 2.251 . S
Mn486 O492 2.087 . S
O487 Mn481 2.164 . S
O487 C497 1.233 1_554 S
O488 Mn486 2.118 . S
O488 C495 1.231 1_556 S
O489 Mn481 2.160 . S
O489 C498 1.239 . S
O490 Mn483 2.089 . S
O490 C498 1.256 . S
O491 Mn486 2.251 . S
O491 C496 1.241 . S
O492 Mn486 2.087 . S
O492 C497 1.256 . S
C493 O499 1.278 . S
C493 O500 1.241 . S
C494 O480 1.244 . S
C494 O482 1.256 1_556 S
C495 O484 1.239 . S
C495 O488 1.231 1_554 S
C496 O485 1.278 . S
C496 O491 1.241 . S
C497 O487 1.233 1_556 S
C497 O492 1.256 . S
C498 O489 1.239 . S
C498 O490 1.256 . S
O499 Mn481 2.221 . S
O499 Mn483 2.290 . S
O499 C493 1.278 . S
O500 Mn483 2.251 . S
O500 C493 1.241 . S
O501 Mn502 2.163 . S
O501 C515 1.244 . S
Mn502 O501 2.163 . S
Mn502 O505 2.160 . S
Mn502 O506 2.221 . S
Mn502 O508 2.163 . S
Mn502 O510 2.160 . S
Mn502 O520 2.221 . S
O503 Mn504 2.087 . S
O503 C515 1.256 . S
Mn504 O503 2.087 . S
Mn504 O511 2.089 . S
Mn504 O520 2.290 . S
Mn504 O521 2.251 . S
O505 Mn502 2.160 . S
O505 C516 1.239 . S
O506 Mn502 2.221 . S
O506 Mn507 2.290 . S
O506 C517 1.278 . S
Mn507 O506 2.290 . S
Mn507 O509 2.089 . S
Mn507 O512 2.251 . S
Mn507 O513 2.087 . S
O508 Mn502 2.163 . S
O508 C518 1.244 . S
O509 Mn507 2.089 . S
O509 C516 1.256 . S
O510 Mn502 2.160 . S
O510 C519 1.239 . S
O511 Mn504 2.089 . S
O511 C519 1.256 . S
O512 Mn507 2.251 . S
O512 C517 1.241 . S
O513 Mn507 2.087 . S
O513 C518 1.256 . S
C514 O520 1.278 . S
C514 O521 1.241 . S
C515 O501 1.244 . S
C515 O503 1.256 . S
C516 O505 1.239 . S
C516 O509 1.256 . S
C517 O506 1.278 . S
C517 O512 1.241 . S
C518 O508 1.244 . S
C518 O513 1.256 . S
C519 O510 1.239 . S
C519 O511 1.256 . S
O520 Mn502 2.221 . S
O520 Mn504 2.290 . S
O520 C514 1.278 . S
O521 Mn504 2.251 . S
O521 C514 1.241 . S
O522 Mn523 2.163 1_655 S
O522 C536 1.244 . S
Mn523 O522 2.163 1_455 S
Mn523 O526 2.160 . S
Mn523 O527 2.221 1_455 S
Mn523 O529 2.163 . S
Mn523 O531 2.160 . S
Mn523 O541 2.221 . S
O524 Mn525 2.087 . S
O524 C536 1.256 1_455 S
Mn525 O524 2.087 . S
Mn525 O532 2.089 . S
Mn525 O541 2.290 . S
Mn525 O542 2.251 . S
O526 Mn523 2.160 . S
O526 C537 1.239 . S
O527 Mn523 2.221 1_655 S
O527 Mn528 2.290 . S
O527 C538 1.278 . S
Mn528 O527 2.290 . S
Mn528 O530 2.090 . S
Mn528 O533 2.251 . S
Mn528 O534 2.087 . S
O529 Mn523 2.163 . S
O529 C539 1.244 1_455 S
O530 Mn528 2.090 . S
O530 C537 1.254 1_655 S
O531 Mn523 2.160 . S
O531 C540 1.239 . S
O532 Mn525 2.089 . S
O532 C540 1.256 . S
O533 Mn528 2.251 . S
O533 C538 1.241 . S
O534 Mn528 2.087 . S
O534 C539 1.256 . S
C535 O541 1.278 . S
C535 O542 1.241 . S
C536 O522 1.244 . S
C536 O524 1.256 1_655 S
C537 O526 1.239 . S
C537 O530 1.254 1_455 S
C538 O527 1.278 . S
C538 O533 1.241 . S
C539 O529 1.244 1_655 S
C539 O534 1.256 . S
C540 O531 1.239 . S
C540 O532 1.256 . S
O541 Mn523 2.221 . S
O541 Mn525 2.290 . S
O541 C535 1.278 . S
O542 Mn525 2.251 . S
O542 C535 1.241 . S
O543 Mn544 2.163 . S
O543 C557 1.244 . S
Mn544 O543 2.163 . S
Mn544 O547 2.160 . S
Mn544 O548 2.221 . S
Mn544 O550 2.163 . S
Mn544 O552 2.160 . S
Mn544 O562 2.221 . S
O545 Mn546 2.087 . S
O545 C557 1.256 . S
Mn546 O545 2.087 . S
Mn546 O553 2.089 . S
Mn546 O562 2.290 . S
Mn546 O563 2.251 . S
O547 Mn544 2.160 . S
O547 C558 1.239 . S
O548 Mn544 2.221 . S
O548 Mn549 2.290 . S
O548 C559 1.278 . S
Mn549 O548 2.290 . S
Mn549 O551 2.089 . S
Mn549 O554 2.251 . S
Mn549 O555 2.087 . S
O550 Mn544 2.163 . S
O550 C560 1.244 . S
O551 Mn549 2.089 . S
O551 C558 1.256 . S
O552 Mn544 2.160 . S
O552 C561 1.239 . S
O553 Mn546 2.089 . S
O553 C561 1.256 . S
O554 Mn549 2.251 . S
O554 C559 1.241 . S
O555 Mn549 2.087 . S
O555 C560 1.256 . S
C556 O562 1.278 . S
C556 O563 1.241 . S
C557 O543 1.244 . S
C557 O545 1.256 . S
C558 O547 1.239 . S
C558 O551 1.256 . S
C559 O548 1.278 . S
C559 O554 1.241 . S
C560 O550 1.244 . S
C560 O555 1.256 . S
C561 O552 1.239 . S
C561 O553 1.256 . S
O562 Mn544 2.221 . S
O562 Mn546 2.290 . S
O562 C556 1.278 . S
O563 Mn546 2.251 . S
O563 C556 1.241 . S
O564 Mn565 2.163 . S
O564 C578 1.244 . S
Mn565 O564 2.163 . S
Mn565 O568 2.160 . S
Mn565 O569 2.221 . S
Mn565 O571 2.163 . S
Mn565 O573 2.160 . S
Mn565 O583 2.221 . S
O566 Mn567 2.087 . S
O566 C578 1.256 . S
Mn567 O566 2.087 . S
Mn567 O574 2.089 . S
Mn567 O583 2.290 . S
Mn567 O584 2.251 . S
O568 Mn565 2.160 . S
O568 C579 1.239 . S
O569 Mn565 2.221 . S
O569 Mn570 2.290 . S
O569 C580 1.278 . S
Mn570 O569 2.290 . S
Mn570 O572 2.089 . S
Mn570 O575 2.251 . S
Mn570 O576 2.087 . S
O571 Mn565 2.163 . S
O571 C581 1.244 . S
O572 Mn570 2.089 . S
O572 C579 1.256 . S
O573 Mn565 2.160 . S
O573 C582 1.239 . S
O574 Mn567 2.089 . S
O574 C582 1.256 . S
O575 Mn570 2.251 . S
O575 C580 1.241 . S
O576 Mn570 2.087 . S
O576 C581 1.256 . S
C577 O583 1.278 . S
C577 O584 1.241 . S
C578 O564 1.244 . S
C578 O566 1.256 . S
C579 O568 1.239 . S
C579 O572 1.256 . S
C580 O569 1.278 . S
C580 O575 1.241 . S
C581 O571 1.244 . S
C581 O576 1.256 . S
C582 O573 1.239 . S
C582 O574 1.256 . S
O583 Mn565 2.221 . S
O583 Mn567 2.290 . S
O583 C577 1.278 . S
O584 Mn567 2.251 . S
O584 C577 1.241 . S
O585 Mn586 2.163 . S
O585 C599 1.244 . S
Mn586 O585 2.163 . S
Mn586 O589 2.160 . S
Mn586 O590 2.221 . S
Mn586 O592 2.163 . S
Mn586 O594 2.160 . S
Mn586 O604 2.221 . S
O587 Mn588 2.087 . S
O587 C599 1.256 . S
Mn588 O587 2.087 . S
Mn588 O595 2.089 . S
Mn588 O604 2.290 . S
Mn588 O605 2.251 . S
O589 Mn586 2.160 . S
O589 C600 1.239 . S
O590 Mn586 2.221 . S
O590 Mn591 2.290 . S
O590 C601 1.278 . S
Mn591 O590 2.290 . S
Mn591 O593 2.089 . S
Mn591 O596 2.251 . S
Mn591 O597 2.087 . S
O592 Mn586 2.163 . S
O592 C602 1.244 . S
O593 Mn591 2.089 . S
O593 C600 1.256 . S
O594 Mn586 2.160 . S
O594 C603 1.239 . S
O595 Mn588 2.089 . S
O595 C603 1.256 . S
O596 Mn591 2.251 . S
O596 C601 1.241 . S
O597 Mn591 2.087 . S
O597 C602 1.256 . S
C598 O604 1.278 . S
C598 O605 1.241 . S
C599 O585 1.244 . S
C599 O587 1.256 . S
C600 O589 1.239 . S
C600 O593 1.256 . S
C601 O590 1.278 . S
C601 O596 1.241 . S
C602 O592 1.244 . S
C602 O597 1.256 . S
C603 O594 1.239 . S
C603 O595 1.256 . S
O604 Mn586 2.221 . S
O604 Mn588 2.290 . S
O604 C598 1.278 . S
O605 Mn588 2.251 . S
O605 C598 1.241 . S
O606 Mn607 2.163 . S
O606 C620 1.244 . S
Mn607 O606 2.163 . S
Mn607 O610 2.160 . S
Mn607 O611 2.221 . S
Mn607 O613 2.163 . S
Mn607 O615 2.160 . S
Mn607 O625 2.221 . S
O608 Mn609 2.087 . S
O608 C620 1.256 . S
Mn609 O608 2.087 . S
Mn609 O616 2.089 . S
Mn609 O625 2.290 . S
Mn609 O626 2.251 . S
O610 Mn607 2.160 . S
O610 C621 1.239 . S
O611 Mn607 2.221 . S
O611 Mn612 2.290 . S
O611 C622 1.278 . S
Mn612 O611 2.290 . S
Mn612 O614 2.089 . S
Mn612 O617 2.251 . S
Mn612 O618 2.087 . S
O613 Mn607 2.163 . S
O613 C623 1.244 . S
O614 Mn612 2.089 . S
O614 C621 1.256 . S
O615 Mn607 2.160 . S
O615 C624 1.239 . S
O616 Mn609 2.089 . S
O616 C624 1.256 . S
O617 Mn612 2.251 . S
O617 C622 1.241 . S
O618 Mn612 2.087 . S
O618 C623 1.256 . S
C619 O625 1.278 . S
C619 O626 1.241 . S
C620 O606 1.244 . S
C620 O608 1.256 . S
C621 O610 1.239 . S
C621 O614 1.256 . S
C622 O611 1.278 . S
C622 O617 1.241 . S
C623 O613 1.244 . S
C623 O618 1.256 . S
C624 O615 1.239 . S
C624 O616 1.256 . S
O625 Mn607 2.221 . S
O625 Mn609 2.290 . S
O625 C619 1.278 . S
O626 Mn609 2.251 . S
O626 C619 1.241 . S
O627 Mn628 2.160 1_656 S
O627 C641 1.246 . S
Mn628 O627 2.160 1_454 S
Mn628 O631 2.160 . S
Mn628 O632 2.221 . S
Mn628 O634 2.163 1_554 S
Mn628 O636 2.160 1_455 S
Mn628 O646 2.221 1_454 S
O629 Mn630 2.087 1_556 S
O629 C641 1.256 . S
Mn630 O629 2.087 1_554 S
Mn630 O637 2.089 . S
Mn630 O646 2.290 1_554 S
Mn630 O647 2.251 1_554 S
O631 Mn628 2.160 . S
O631 C642 1.239 . S
O632 Mn628 2.221 . S
O632 Mn633 2.290 1_554 S
O632 C643 1.278 . S
Mn633 O632 2.290 1_556 S
Mn633 O635 2.089 1_556 S
Mn633 O638 2.251 1_556 S
Mn633 O639 2.087 . S
O634 Mn628 2.163 1_556 S
O634 C644 1.244 . S
O635 Mn633 2.089 1_554 S
O635 C642 1.256 . S
O636 Mn628 2.160 1_655 S
O636 C645 1.239 . S
O637 Mn630 2.089 . S
O637 C645 1.256 . S
O638 Mn633 2.251 1_554 S
O638 C643 1.241 . S
O639 Mn633 2.087 . S
O639 C644 1.256 . S
C640 O646 1.278 . S
C640 O647 1.241 . S
C641 O627 1.246 . S
C641 O629 1.256 . S
C642 O631 1.239 . S
C642 O635 1.256 . S
C643 O632 1.278 . S
C643 O638 1.241 . S
C644 O634 1.244 . S
C644 O639 1.256 . S
C645 O636 1.239 . S
C645 O637 1.256 . S
O646 Mn628 2.221 1_656 S
O646 Mn630 2.290 1_556 S
O646 C640 1.278 . S
O647 Mn630 2.251 1_556 S
O647 C640 1.241 . S
C648 C649 1.391 1_655 S
C648 C650 1.394 . S
C648 H664 0.931 . S
C649 C648 1.391 1_455 S
C649 C653 1.376 . S
C650 C648 1.394 . S
C650 C651 1.369 . S
C650 C654 1.531 . S
C651 C650 1.369 . S
C651 C652 1.410 1_655 S
C651 C659 1.503 . S
C652 C651 1.410 1_455 S
C652 C653 1.392 . S
C652 C655 1.511 . S
C653 C649 1.376 . S
C653 C652 1.392 . S
C653 H665 0.929 . S
C654 C650 1.531 . S
C654 H666 0.960 . S
C654 H667 0.962 . S
C654 H668 0.960 . S
C655 C652 1.511 . S
C655 H669 0.961 . S
C655 H670 0.961 . S
C655 H671 0.961 . S
C656 C657 1.370 1_455 S
C656 C658 1.363 . S
C656 H672 0.931 . S
C657 C656 1.370 1_655 S
C657 C661 1.408 . S
C658 C656 1.363 . S
C658 C659 1.370 1_455 S
C658 C662 1.524 . S
C659 C651 1.503 . S
C659 C658 1.370 1_655 S
C659 C660 1.403 . S
C660 C659 1.403 . S
C660 C661 1.404 . S
C660 C663 1.539 . S
C661 C657 1.408 . S
C661 C660 1.404 . S
C661 H673 0.930 1_554 S
C662 C658 1.524 . S
C662 H674 0.956 . S
C662 H675 0.961 . S
C662 H676 0.961 . S
C663 C660 1.539 . S
C663 H677 0.958 . S
C663 H678 0.961 1_554 S
C663 H679 0.960 . S
H664 C648 0.931 . S
H665 C653 0.929 . S
H666 C654 0.960 . S
H667 C654 0.962 . S
H668 C654 0.960 . S
H669 C655 0.961 . S
H670 C655 0.961 . S
H671 C655 0.961 . S
H672 C656 0.931 . S
H673 C661 0.930 1_556 S
H674 C662 0.956 . S
H675 C662 0.961 . S
H676 C662 0.961 . S
H677 C663 0.958 . S
H678 C663 0.961 1_556 S
H679 C663 0.960 . S
C680 C681 1.391 . S
C680 C682 1.394 . S
C680 H696 0.931 . S
C681 C680 1.391 . S
C681 C685 1.376 . S
C682 C680 1.394 . S
C682 C683 1.369 . S
C682 C686 1.531 . S
C683 C682 1.369 . S
C683 C684 1.410 . S
C683 C691 1.503 . S
C684 C683 1.410 . S
C684 C685 1.392 . S
C684 C687 1.511 . S
C685 C681 1.376 . S
C685 C684 1.392 . S
C685 H697 0.929 . S
C686 C682 1.531 . S
C686 H698 0.960 . S
C686 H699 0.962 . S
C686 H700 0.960 . S
C687 C684 1.511 . S
C687 H701 0.961 . S
C687 H702 0.961 . S
C687 H703 0.961 . S
C688 C689 1.370 . S
C688 C690 1.363 . S
C688 H704 0.931 . S
C689 C688 1.370 . S
C689 C693 1.408 . S
C690 C688 1.363 . S
C690 C691 1.370 . S
C690 C694 1.524 . S
C691 C683 1.503 . S
C691 C690 1.370 . S
C691 C692 1.403 . S
C692 C691 1.403 . S
C692 C693 1.404 . S
C692 C695 1.539 . S
C693 C689 1.408 . S
C693 C692 1.404 . S
C693 H705 0.930 . S
C694 C690 1.524 . S
C694 H706 0.956 . S
C694 H707 0.961 . S
C694 H708 0.961 . S
C695 C692 1.539 . S
C695 H709 0.958 . S
C695 H710 0.961 . S
C695 H711 0.960 . S
H696 C680 0.931 . S
H697 C685 0.929 . S
H698 C686 0.960 . S
H699 C686 0.962 . S
H700 C686 0.960 . S
H701 C687 0.961 . S
H702 C687 0.961 . S
H703 C687 0.961 . S
H704 C688 0.931 . S
H705 C693 0.930 . S
H706 C694 0.956 . S
H707 C694 0.961 . S
H708 C694 0.961 . S
H709 C695 0.958 . S
H710 C695 0.961 . S
H711 C695 0.960 . S
C712 C713 1.391 . S
C712 C714 1.394 . S
C712 H728 0.931 . S
C713 C712 1.391 . S
C713 C717 1.376 . S
C714 C712 1.394 . S
C714 C715 1.369 . S
C714 C718 1.531 . S
C715 C714 1.369 . S
C715 C716 1.410 . S
C715 C723 1.503 . S
C716 C715 1.410 . S
C716 C717 1.392 . S
C716 C719 1.511 . S
C717 C713 1.376 . S
C717 C716 1.392 . S
C717 H729 0.929 . S
C718 C714 1.531 . S
C718 H730 0.960 . S
C718 H731 0.962 . S
C718 H732 0.960 . S
C719 C716 1.511 . S
C719 H733 0.961 . S
C719 H734 0.961 . S
C719 H735 0.961 . S
C720 C721 1.370 . S
C720 C722 1.363 . S
C720 H736 0.931 . S
C721 C720 1.370 . S
C721 C725 1.408 . S
C722 C720 1.363 . S
C722 C723 1.370 . S
C722 C726 1.524 . S
C723 C715 1.503 . S
C723 C722 1.370 . S
C723 C724 1.403 . S
C724 C723 1.403 . S
C724 C725 1.404 . S
C724 C727 1.539 . S
C725 C721 1.408 . S
C725 C724 1.404 . S
C725 H737 0.930 . S
C726 C722 1.524 . S
C726 H738 0.956 . S
C726 H739 0.961 . S
C726 H740 0.961 . S
C727 C724 1.539 . S
C727 H741 0.958 . S
C727 H742 0.961 . S
C727 H743 0.960 . S
H728 C712 0.931 . S
H729 C717 0.929 . S
H730 C718 0.960 . S
H731 C718 0.962 . S
H732 C718 0.960 . S
H733 C719 0.961 . S
H734 C719 0.961 . S
H735 C719 0.961 . S
H736 C720 0.931 . S
H737 C725 0.930 . S
H738 C726 0.956 . S
H739 C726 0.961 . S
H740 C726 0.961 . S
H741 C727 0.958 . S
H742 C727 0.961 . S
H743 C727 0.960 . S
C744 C745 1.391 . S
C744 C746 1.394 . S
C744 H760 0.931 . S
C745 C744 1.391 . S
C745 C749 1.376 . S
C746 C744 1.394 . S
C746 C747 1.369 . S
C746 C750 1.531 . S
C747 C746 1.369 . S
C747 C748 1.410 . S
C747 C755 1.503 . S
C748 C747 1.410 . S
C748 C749 1.392 . S
C748 C751 1.511 . S
C749 C745 1.376 . S
C749 C748 1.392 . S
C749 H761 0.929 . S
C750 C746 1.531 . S
C750 H762 0.960 . S
C750 H763 0.962 . S
C750 H764 0.960 . S
C751 C748 1.511 . S
C751 H765 0.961 . S
C751 H766 0.961 . S
C751 H767 0.961 . S
C752 C753 1.370 . S
C752 C754 1.363 . S
C752 H768 0.931 . S
C753 C752 1.370 . S
C753 C757 1.408 . S
C754 C752 1.363 . S
C754 C755 1.370 . S
C754 C758 1.524 . S
C755 C747 1.503 . S
C755 C754 1.370 . S
C755 C756 1.403 . S
C756 C755 1.403 . S
C756 C757 1.404 . S
C756 C759 1.539 . S
C757 C753 1.408 . S
C757 C756 1.404 . S
C757 H769 0.930 . S
C758 C754 1.524 . S
C758 H770 0.956 . S
C758 H771 0.961 . S
C758 H772 0.961 . S
C759 C756 1.539 . S
C759 H773 0.958 . S
C759 H774 0.961 . S
C759 H775 0.960 . S
H760 C744 0.931 . S
H761 C749 0.929 . S
H762 C750 0.960 . S
H763 C750 0.962 . S
H764 C750 0.960 . S
H765 C751 0.961 . S
H766 C751 0.961 . S
H767 C751 0.961 . S
H768 C752 0.931 . S
H769 C757 0.930 . S
H770 C758 0.956 . S
H771 C758 0.961 . S
H772 C758 0.961 . S
H773 C759 0.958 . S
H774 C759 0.961 . S
H775 C759 0.960 . S
C776 C777 1.391 . S
C776 C778 1.394 . S
C776 H792 0.931 . S
C777 C776 1.391 . S
C777 C781 1.376 1_455 S
C778 C776 1.394 . S
C778 C779 1.371 1_455 S
C778 C782 1.531 . S
C779 C778 1.371 1_655 S
C779 C780 1.408 . S
C779 C787 1.503 . S
C780 C779 1.408 . S
C780 C781 1.392 . S
C780 C783 1.511 . S
C781 C777 1.376 1_655 S
C781 C780 1.392 . S
C781 H793 0.929 . S
C782 C778 1.531 . S
C782 H794 0.960 . S
C782 H795 0.962 . S
C782 H796 0.960 . S
C783 C780 1.511 . S
C783 H797 0.961 . S
C783 H798 0.961 . S
C783 H799 0.961 . S
C784 C785 1.370 1_455 S
C784 C786 1.363 . S
C784 H800 0.931 . S
C785 C784 1.370 1_655 S
C785 C789 1.408 . S
C786 C784 1.363 . S
C786 C787 1.358 1_455 S
C786 C790 1.524 . S
C787 C779 1.503 . S
C787 C786 1.358 1_655 S
C787 C788 1.416 . S
C788 C787 1.416 . S
C788 C789 1.404 . S
C788 C791 1.539 . S
C789 C785 1.408 . S
C789 C788 1.404 . S
C789 H801 0.930 . S
C790 C786 1.524 . S
C790 H802 0.956 . S
C790 H803 0.961 . S
C790 H804 0.961 . S
C791 C788 1.539 . S
C791 H805 0.958 . S
C791 H806 0.961 . S
C791 H807 0.960 . S
H792 C776 0.931 . S
H793 C781 0.929 . S
H794 C782 0.960 . S
H795 C782 0.962 . S
H796 C782 0.960 . S
H797 C783 0.961 . S
H798 C783 0.961 . S
H799 C783 0.961 . S
H800 C784 0.931 . S
H801 C789 0.930 . S
H802 C790 0.956 . S
H803 C790 0.961 . S
H804 C790 0.961 . S
H805 C791 0.958 . S
H806 C791 0.961 . S
H807 C791 0.960 . S
C808 C809 1.391 . S
C808 C810 1.394 . S
C808 H824 0.931 . S
C809 C808 1.391 . S
C809 C813 1.376 . S
C810 C808 1.394 . S
C810 C811 1.369 . S
C810 C814 1.531 . S
C811 C810 1.369 . S
C811 C812 1.410 . S
C811 C819 1.503 . S
C812 C811 1.410 . S
C812 C813 1.392 . S
C812 C815 1.511 . S
C813 C809 1.376 . S
C813 C812 1.392 . S
C813 H825 0.929 . S
C814 C810 1.531 . S
C814 H826 0.960 . S
C814 H827 0.962 . S
C814 H828 0.960 . S
C815 C812 1.511 . S
C815 H829 0.961 . S
C815 H830 0.961 . S
C815 H831 0.961 . S
C816 C817 1.370 . S
C816 C818 1.363 . S
C816 H832 0.931 . S
C817 C816 1.370 . S
C817 C821 1.408 . S
C818 C816 1.363 . S
C818 C819 1.370 . S
C818 C822 1.524 . S
C819 C811 1.503 . S
C819 C818 1.370 . S
C819 C820 1.403 . S
C820 C819 1.403 . S
C820 C821 1.404 . S
C820 C823 1.539 . S
C821 C817 1.408 . S
C821 C820 1.404 . S
C821 H833 0.930 . S
C822 C818 1.524 . S
C822 H834 0.956 . S
C822 H835 0.961 . S
C822 H836 0.961 . S
C823 C820 1.539 . S
C823 H837 0.958 . S
C823 H838 0.961 . S
C823 H839 0.960 . S
H824 C808 0.931 . S
H825 C813 0.929 . S
H826 C814 0.960 . S
H827 C814 0.962 . S
H828 C814 0.960 . S
H829 C815 0.961 . S
H830 C815 0.961 . S
H831 C815 0.961 . S
H832 C816 0.931 . S
H833 C821 0.930 . S
H834 C822 0.956 . S
H835 C822 0.961 . S
H836 C822 0.961 . S
H837 C823 0.958 . S
H838 C823 0.961 . S
H839 C823 0.960 . S
C840 C841 1.391 . S
C840 C842 1.394 . S
C840 H856 0.931 . S
C841 C840 1.391 . S
C841 C845 1.376 . S
C842 C840 1.394 . S
C842 C843 1.369 . S
C842 C846 1.531 . S
C843 C842 1.369 . S
C843 C844 1.410 . S
C843 C851 1.503 . S
C844 C843 1.410 . S
C844 C845 1.392 . S
C844 C847 1.511 . S
C845 C841 1.376 . S
C845 C844 1.392 . S
C845 H857 0.929 . S
C846 C842 1.531 . S
C846 H858 0.960 . S
C846 H859 0.962 . S
C846 H860 0.960 . S
C847 C844 1.511 . S
C847 H861 0.961 . S
C847 H862 0.961 . S
C847 H863 0.961 . S
C848 C849 1.370 . S
C848 C850 1.363 . S
C848 H864 0.931 . S
C849 C848 1.370 . S
C849 C853 1.408 . S
C850 C848 1.363 . S
C850 C851 1.370 . S
C850 C854 1.524 . S
C851 C843 1.503 . S
C851 C850 1.370 . S
C851 C852 1.403 . S
C852 C851 1.403 . S
C852 C853 1.404 . S
C852 C855 1.539 . S
C853 C849 1.408 . S
C853 C852 1.404 . S
C853 H865 0.930 . S
C854 C850 1.524 . S
C854 H866 0.956 . S
C854 H867 0.961 . S
C854 H868 0.972 . S
C855 C852 1.539 . S
C855 H869 0.958 . S
C855 H870 0.961 . S
C855 H871 0.960 . S
H856 C840 0.931 . S
H857 C845 0.929 . S
H858 C846 0.960 . S
H859 C846 0.962 . S
H860 C846 0.960 . S
H861 C847 0.961 . S
H862 C847 0.961 . S
H863 C847 0.961 . S
H864 C848 0.931 . S
H865 C853 0.930 . S
H866 C854 0.956 . S
H867 C854 0.961 . S
H868 C854 0.972 . S
H869 C855 0.958 . S
H870 C855 0.961 . S
H871 C855 0.960 . S
C872 C873 1.391 . S
C872 C874 1.394 . S
C872 H888 0.931 . S
C873 C872 1.391 . S
C873 C877 1.376 . S
C874 C872 1.394 . S
C874 C875 1.369 . S
C874 C878 1.531 . S
C875 C874 1.369 . S
C875 C876 1.410 . S
C875 C883 1.503 . S
C876 C875 1.410 . S
C876 C877 1.392 . S
C876 C879 1.511 . S
C877 C873 1.376 . S
C877 C876 1.392 . S
C877 H889 0.929 . S
C878 C874 1.531 . S
C878 H890 0.960 . S
C878 H891 0.962 . S
C878 H892 0.960 . S
C879 C876 1.511 . S
C879 H893 0.961 . S
C879 H894 0.961 . S
C879 H895 0.961 . S
C880 C881 1.370 . S
C880 C882 1.363 . S
C880 H896 0.931 . S
C881 C880 1.370 . S
C881 C885 1.408 . S
C882 C880 1.363 . S
C882 C883 1.370 . S
C882 C886 1.524 . S
C883 C875 1.503 . S
C883 C882 1.370 . S
C883 C884 1.403 . S
C884 C883 1.403 . S
C884 C885 1.404 . S
C884 C887 1.539 . S
C885 C881 1.408 . S
C885 C884 1.404 . S
C885 H897 0.930 . S
C886 C882 1.524 . S
C886 H898 0.956 . S
C886 H899 0.961 . S
C886 H900 0.961 . S
C887 C884 1.539 . S
C887 H901 0.958 . S
C887 H902 0.961 . S
C887 H903 0.960 . S
H888 C872 0.931 . S
H889 C877 0.929 . S
H890 C878 0.960 . S
H891 C878 0.962 . S
H892 C878 0.960 . S
H893 C879 0.961 . S
H894 C879 0.961 . S
H895 C879 0.961 . S
H896 C880 0.931 . S
H897 C885 0.930 . S
H898 C886 0.956 . S
H899 C886 0.961 . S
H900 C886 0.961 . S
H901 C887 0.958 . S
H902 C887 0.961 . S
H903 C887 0.960 . S
C904 C905 1.391 1_565 S
C904 C906 1.394 . S
C904 H920 0.931 . S
C905 C904 1.391 1_545 S
C905 C909 1.376 . S
C906 C904 1.394 . S
C906 C907 1.369 1_565 S
C906 C910 1.531 . S
C907 C906 1.369 1_545 S
C907 C908 1.410 . S
C907 C915 1.503 . S
C908 C907 1.410 . S
C908 C909 1.392 . S
C908 C911 1.511 . S
C909 C905 1.376 . S
C909 C908 1.392 . S
C909 H921 0.929 . S
C910 C906 1.531 . S
C910 H922 0.960 . S
C910 H923 0.962 . S
C910 H924 0.960 . S
C911 C908 1.511 . S
C911 H925 0.961 . S
C911 H926 0.961 . S
C911 H927 0.961 . S
C912 C913 1.370 . S
C912 C914 1.363 . S
C912 H928 0.931 . S
C913 C912 1.370 . S
C913 C917 1.408 1_565 S
C914 C912 1.363 . S
C914 C915 1.370 1_565 S
C914 C918 1.524 . S
C915 C907 1.503 . S
C915 C914 1.370 1_545 S
C915 C916 1.403 . S
C916 C915 1.403 . S
C916 C917 1.404 . S
C916 C919 1.539 . S
C917 C913 1.408 1_545 S
C917 C916 1.404 . S
C917 H929 0.930 . S
C918 C914 1.524 . S
C918 H930 0.956 . S
C918 H931 0.961 . S
C918 H932 0.961 . S
C919 C916 1.539 . S
C919 H933 0.958 . S
C919 H934 0.961 . S
C919 H935 0.960 . S
H920 C904 0.931 . S
H921 C909 0.929 . S
H922 C910 0.960 . S
H923 C910 0.962 . S
H924 C910 0.960 . S
H925 C911 0.961 . S
H926 C911 0.961 . S
H927 C911 0.961 . S
H928 C912 0.931 . S
H929 C917 0.930 . S
H930 C918 0.956 . S
H931 C918 0.961 . S
H932 C918 0.961 . S
H933 C919 0.958 . S
H934 C919 0.961 . S
H935 C919 0.960 . S
C936 C937 1.391 . S
C936 C938 1.394 . S
C936 H952 0.931 . S
C937 C936 1.391 . S
C937 C941 1.376 . S
C938 C936 1.394 . S
C938 C939 1.369 . S
C938 C942 1.531 . S
C939 C938 1.369 . S
C939 C940 1.410 . S
C939 C947 1.503 . S
C940 C939 1.410 . S
C940 C941 1.392 . S
C940 C943 1.511 . S
C941 C937 1.376 . S
C941 C940 1.392 . S
C941 H953 0.929 . S
C942 C938 1.531 . S
C942 H954 0.960 . S
C942 H955 0.962 . S
C942 H956 0.960 . S
C943 C940 1.511 . S
C943 H957 0.961 . S
C943 H958 0.961 . S
C943 H959 0.961 . S
C944 C945 1.370 . S
C944 C946 1.363 . S
C944 H960 0.931 . S
C945 C944 1.370 . S
C945 C949 1.408 . S
C946 C944 1.363 . S
C946 C947 1.370 . S
C946 C950 1.524 . S
C947 C939 1.503 . S
C947 C946 1.370 . S
C947 C948 1.403 . S
C948 C947 1.403 . S
C948 C949 1.404 . S
C948 C951 1.539 . S
C949 C945 1.408 . S
C949 C948 1.404 . S
C949 H961 0.930 . S
C950 C946 1.524 . S
C950 H962 0.956 . S
C950 H963 0.961 . S
C950 H964 0.961 . S
C951 C948 1.539 . S
C951 H965 0.958 . S
C951 H966 0.961 . S
C951 H967 0.960 . S
H952 C936 0.931 . S
H953 C941 0.929 . S
H954 C942 0.960 . S
H955 C942 0.962 . S
H956 C942 0.960 . S
H957 C943 0.961 . S
H958 C943 0.961 . S
H959 C943 0.961 . S
H960 C944 0.931 . S
H961 C949 0.930 . S
H962 C950 0.956 . S
H963 C950 0.961 . S
H964 C950 0.961 . S
H965 C951 0.958 . S
H966 C951 0.961 . S
H967 C951 0.960 . S
C968 C969 1.391 . S
C968 C970 1.394 . S
C968 H984 0.931 . S
C969 C968 1.391 . S
C969 C973 1.376 . S
C970 C968 1.394 . S
C970 C971 1.369 . S
C970 C974 1.531 . S
C971 C970 1.369 . S
C971 C972 1.410 . S
C971 C979 1.503 . S
C972 C971 1.410 . S
C972 C973 1.392 . S
C972 C975 1.511 . S
C973 C969 1.376 . S
C973 C972 1.392 . S
C973 H985 0.935 . S
C974 C970 1.531 . S
C974 H986 0.960 . S
C974 H987 0.962 . S
C974 H988 0.960 . S
C975 C972 1.511 . S
C975 H989 0.961 1_545 S
C975 H990 0.963 . S
C975 H991 0.961 . S
C976 C977 1.370 1_565 S
C976 C978 1.363 . S
C976 H992 0.931 . S
C977 C976 1.370 1_545 S
C977 C981 1.408 . S
C978 C976 1.363 . S
C978 C979 1.370 1_565 S
C978 C982 1.524 . S
C979 C971 1.503 . S
C979 C978 1.370 1_545 S
C979 C980 1.403 . S
C980 C979 1.403 . S
C980 C981 1.404 . S
C980 C983 1.539 . S
C981 C977 1.408 . S
C981 C980 1.404 . S
C981 H993 0.930 . S
C982 C978 1.524 . S
C982 H994 0.956 . S
C982 H995 0.961 . S
C982 H996 0.961 . S
C983 C980 1.539 . S
C983 H997 0.958 . S
C983 H998 0.961 . S
C983 H999 0.960 . S
H984 C968 0.931 . S
H985 C973 0.935 . S
H986 C974 0.960 . S
H987 C974 0.962 . S
H988 C974 0.960 . S
H989 C975 0.961 1_565 S
H990 C975 0.963 . S
H991 C975 0.961 . S
H992 C976 0.931 . S
H993 C981 0.930 . S
H994 C982 0.956 . S
H995 C982 0.961 . S
H996 C982 0.961 . S
H997 C983 0.958 . S
H998 C983 0.961 . S
H999 C983 0.960 . S
C1000 C1001 1.391 . S
C1000 C1002 1.394 . S
C1000 H1016 0.931 . S
C1001 C1000 1.391 . S
C1001 C1005 1.376 . S
C1002 C1000 1.394 . S
C1002 C1003 1.369 . S
C1002 C1006 1.531 . S
C1003 C1002 1.369 . S
C1003 C1004 1.410 . S
C1003 C1011 1.503 . S
C1004 C1003 1.410 . S
C1004 C1005 1.392 . S
C1004 C1007 1.511 . S
C1005 C1001 1.376 . S
C1005 C1004 1.392 . S
C1005 H1017 0.929 . S
C1006 C1002 1.531 . S
C1006 H1018 0.960 . S
C1006 H1019 0.962 . S
C1006 H1020 0.960 . S
C1007 C1004 1.511 . S
C1007 H1021 0.961 . S
C1007 H1022 0.961 . S
C1007 H1023 0.961 . S
C1008 C1009 1.370 . S
C1008 C1010 1.363 . S
C1008 H1024 0.931 . S
C1009 C1008 1.370 . S
C1009 C1013 1.408 . S
C1010 C1008 1.363 . S
C1010 C1011 1.370 . S
C1010 C1014 1.524 . S
C1011 C1003 1.503 . S
C1011 C1010 1.370 . S
C1011 C1012 1.403 . S
C1012 C1011 1.403 . S
C1012 C1013 1.404 . S
C1012 C1015 1.539 . S
C1013 C1009 1.408 . S
C1013 C1012 1.404 . S
C1013 H1025 0.930 . S
C1014 C1010 1.524 . S
C1014 H1026 0.956 . S
C1014 H1027 0.961 . S
C1014 H1028 0.961 . S
C1015 C1012 1.539 . S
C1015 H1029 0.958 . S
C1015 H1030 0.961 . S
C1015 H1031 0.960 . S
H1016 C1000 0.931 . S
H1017 C1005 0.929 . S
H1018 C1006 0.960 . S
H1019 C1006 0.962 . S
H1020 C1006 0.960 . S
H1021 C1007 0.961 . S
H1022 C1007 0.961 . S
H1023 C1007 0.961 . S
H1024 C1008 0.931 . S
H1025 C1013 0.930 . S
H1026 C1014 0.956 . S
H1027 C1014 0.961 . S
H1028 C1014 0.961 . S
H1029 C1015 0.958 . S
H1030 C1015 0.961 . S
H1031 C1015 0.960 . S
C1032 C1033 1.395 . S
C1032 C1034 1.394 . S
C1032 H1048 0.931 . S
C1033 C1032 1.395 . S
C1033 C1037 1.372 1_565 S
C1034 C1032 1.394 . S
C1034 C1035 1.369 . S
C1034 C1038 1.531 . S
C1035 C1034 1.369 . S
C1035 C1036 1.410 1_565 S
C1035 C1043 1.503 1_565 S
C1036 C1035 1.410 1_545 S
C1036 C1037 1.392 . S
C1036 C1039 1.511 . S
C1037 C1033 1.372 1_545 S
C1037 C1036 1.392 . S
C1037 H1049 0.929 . S
C1038 C1034 1.531 . S
C1038 H1050 0.960 . S
C1038 H1051 0.962 . S
C1038 H1052 0.960 . S
C1039 C1036 1.511 . S
C1039 H1053 0.961 . S
C1039 H1054 0.961 . S
C1039 H1055 0.961 . S
C1040 C1041 1.370 . S
C1040 C1042 1.363 . S
C1040 H1056 0.931 . S
C1041 C1040 1.370 . S
C1041 C1045 1.408 1_545 S
C1042 C1040 1.363 . S
C1042 C1043 1.370 . S
C1042 C1046 1.524 . S
C1043 C1035 1.503 1_545 S
C1043 C1042 1.370 . S
C1043 C1044 1.403 1_545 S
C1044 C1043 1.403 1_565 S
C1044 C1045 1.404 . S
C1044 C1047 1.539 . S
C1045 C1041 1.408 1_565 S
C1045 C1044 1.404 . S
C1045 H1057 0.930 . S
C1046 C1042 1.524 . S
C1046 H1058 0.956 . S
C1046 H1059 0.961 . S
C1046 H1060 0.961 . S
C1047 C1044 1.539 . S
C1047 H1061 0.958 . S
C1047 H1062 0.961 . S
C1047 H1063 0.960 . S
H1048 C1032 0.931 . S
H1049 C1037 0.929 . S
H1050 C1038 0.960 . S
H1051 C1038 0.962 . S
H1052 C1038 0.960 . S
H1053 C1039 0.961 . S
H1054 C1039 0.961 . S
H1055 C1039 0.961 . S
H1056 C1040 0.931 . S
H1057 C1045 0.930 . S
H1058 C1046 0.956 . S
H1059 C1046 0.961 . S
H1060 C1046 0.961 . S
H1061 C1047 0.958 . S
H1062 C1047 0.961 . S
H1063 C1047 0.960 . S
C1064 C1065 1.391 . S
C1064 C1066 1.394 . S
C1064 H1080 0.931 . S
C1065 C1064 1.391 . S
C1065 C1069 1.376 . S
C1066 C1064 1.394 . S
C1066 C1067 1.369 . S
C1066 C1070 1.531 . S
C1067 C1066 1.369 . S
C1067 C1068 1.410 . S
C1067 C1075 1.503 . S
C1068 C1067 1.410 . S
C1068 C1069 1.392 . S
C1068 C1071 1.511 . S
C1069 C1065 1.376 . S
C1069 C1068 1.392 . S
C1069 H1081 0.929 . S
C1070 C1066 1.531 . S
C1070 H1082 0.960 . S
C1070 H1083 0.962 . S
C1070 H1084 0.960 . S
C1071 C1068 1.511 . S
C1071 H1085 0.961 . S
C1071 H1086 0.961 . S
C1071 H1087 0.961 . S
C1072 C1073 1.370 . S
C1072 C1074 1.363 . S
C1072 H1088 0.931 . S
C1073 C1072 1.370 . S
C1073 C1077 1.408 . S
C1074 C1072 1.363 . S
C1074 C1075 1.370 . S
C1074 C1078 1.524 . S
C1075 C1067 1.503 . S
C1075 C1074 1.370 . S
C1075 C1076 1.403 . S
C1076 C1075 1.403 . S
C1076 C1077 1.404 . S
C1076 C1079 1.539 . S
C1077 C1073 1.408 . S
C1077 C1076 1.404 . S
C1077 H1089 0.930 . S
C1078 C1074 1.524 . S
C1078 H1090 0.956 . S
C1078 H1091 0.961 . S
C1078 H1092 0.961 . S
C1079 C1076 1.539 . S
C1079 H1093 0.958 . S
C1079 H1094 0.961 . S
C1079 H1095 0.960 . S
H1080 C1064 0.931 . S
H1081 C1069 0.929 . S
H1082 C1070 0.960 . S
H1083 C1070 0.962 . S
H1084 C1070 0.960 . S
H1085 C1071 0.961 . S
H1086 C1071 0.961 . S
H1087 C1071 0.961 . S
H1088 C1072 0.931 . S
H1089 C1077 0.930 . S
H1090 C1078 0.956 . S
H1091 C1078 0.961 . S
H1092 C1078 0.961 . S
H1093 C1079 0.958 . S
H1094 C1079 0.961 . S
H1095 C1079 0.960 . S
C1096 C1097 1.391 1_565 S
C1096 C1098 1.394 . S
C1096 H1112 0.931 . S
C1097 C1096 1.391 1_545 S
C1097 C1101 1.376 . S
C1098 C1096 1.394 . S
C1098 C1099 1.369 . S
C1098 C1102 1.531 . S
C1099 C1098 1.369 . S
C1099 C1100 1.410 1_565 S
C1099 C1107 1.503 . S
C1100 C1099 1.410 1_545 S
C1100 C1101 1.392 . S
C1100 C1103 1.511 . S
C1101 C1097 1.376 . S
C1101 C1100 1.392 . S
C1101 H1113 0.929 . S
C1102 C1098 1.531 . S
C1102 H1114 0.960 . S
C1102 H1115 0.962 . S
C1102 H1116 0.960 . S
C1103 C1100 1.511 . S
C1103 H1117 0.961 . S
C1103 H1118 0.961 . S
C1103 H1119 0.961 . S
C1104 C1105 1.370 1_545 S
C1104 C1106 1.363 . S
C1104 H1120 0.931 . S
C1105 C1104 1.370 1_565 S
C1105 C1109 1.408 . S
C1106 C1104 1.363 . S
C1106 C1107 1.370 1_545 S
C1106 C1110 1.524 . S
C1107 C1099 1.503 . S
C1107 C1106 1.370 1_565 S
C1107 C1108 1.403 . S
C1108 C1107 1.403 . S
C1108 C1109 1.404 . S
C1108 C1111 1.539 . S
C1109 C1105 1.408 . S
C1109 C1108 1.404 . S
C1109 H1121 0.930 . S
C1110 C1106 1.524 . S
C1110 H1122 0.956 . S
C1110 H1123 0.961 . S
C1110 H1124 0.961 . S
C1111 C1108 1.539 . S
C1111 H1125 0.958 . S
C1111 H1126 0.961 . S
C1111 H1127 0.960 . S
H1112 C1096 0.931 . S
H1113 C1101 0.929 . S
H1114 C1102 0.960 . S
H1115 C1102 0.962 . S
H1116 C1102 0.960 . S
H1117 C1103 0.961 . S
H1118 C1103 0.961 . S
H1119 C1103 0.961 . S
H1120 C1104 0.931 . S
H1121 C1109 0.930 . S
H1122 C1110 0.956 . S
H1123 C1110 0.961 . S
H1124 C1110 0.961 . S
H1125 C1111 0.958 . S
H1126 C1111 0.961 . S
H1127 C1111 0.960 . S
C1128 C1129 1.391 . S
C1128 C1130 1.394 . S
C1128 H1144 0.931 . S
C1129 C1128 1.391 . S
C1129 C1133 1.376 . S
C1130 C1128 1.394 . S
C1130 C1131 1.369 . S
C1130 C1134 1.531 . S
C1131 C1130 1.369 . S
C1131 C1132 1.410 . S
C1131 C1139 1.503 . S
C1132 C1131 1.410 . S
C1132 C1133 1.392 . S
C1132 C1135 1.511 . S
C1133 C1129 1.376 . S
C1133 C1132 1.392 . S
C1133 H1145 0.929 . S
C1134 C1130 1.531 . S
C1134 H1146 0.960 . S
C1134 H1147 0.962 . S
C1134 H1148 0.960 . S
C1135 C1132 1.511 . S
C1135 H1149 0.961 . S
C1135 H1150 0.961 . S
C1135 H1151 0.961 . S
C1136 C1137 1.370 . S
C1136 C1138 1.363 . S
C1136 H1152 0.931 . S
C1137 C1136 1.370 . S
C1137 C1141 1.408 . S
C1138 C1136 1.363 . S
C1138 C1139 1.370 . S
C1138 C1142 1.524 . S
C1139 C1131 1.503 . S
C1139 C1138 1.370 . S
C1139 C1140 1.403 . S
C1140 C1139 1.403 . S
C1140 C1141 1.404 . S
C1140 C1143 1.539 . S
C1141 C1137 1.408 . S
C1141 C1140 1.404 . S
C1141 H1153 0.930 . S
C1142 C1138 1.524 . S
C1142 H1154 0.956 . S
C1142 H1155 0.961 . S
C1142 H1156 0.961 . S
C1143 C1140 1.539 . S
C1143 H1157 0.958 . S
C1143 H1158 0.961 . S
C1143 H1159 0.960 . S
H1144 C1128 0.931 . S
H1145 C1133 0.929 . S
H1146 C1134 0.960 . S
H1147 C1134 0.962 . S
H1148 C1134 0.960 . S
H1149 C1135 0.961 . S
H1150 C1135 0.961 . S
H1151 C1135 0.961 . S
H1152 C1136 0.931 . S
H1153 C1141 0.930 . S
H1154 C1142 0.956 . S
H1155 C1142 0.961 . S
H1156 C1142 0.961 . S
H1157 C1143 0.958 . S
H1158 C1143 0.961 . S
H1159 C1143 0.960 . S
C1160 C1161 1.391 1_556 S
C1160 C1162 1.394 . S
C1160 H1176 0.931 . S
C1161 C1160 1.391 1_554 S
C1161 C1165 1.376 . S
C1162 C1160 1.394 . S
C1162 C1163 1.368 1_556 S
C1162 C1166 1.531 . S
C1163 C1162 1.368 1_554 S
C1163 C1164 1.410 . S
C1163 C1171 1.503 1_554 S
C1164 C1163 1.410 . S
C1164 C1165 1.392 . S
C1164 C1167 1.511 . S
C1165 C1161 1.376 . S
C1165 C1164 1.392 . S
C1165 H1177 0.929 . S
C1166 C1162 1.531 . S
C1166 H1178 0.960 . S
C1166 H1179 0.962 . S
C1166 H1180 0.960 . S
C1167 C1164 1.511 . S
C1167 H1181 0.961 . S
C1167 H1182 0.961 . S
C1167 H1183 0.961 . S
C1168 C1169 1.370 1_554 S
C1168 C1170 1.363 . S
C1168 H1184 0.931 . S
C1169 C1168 1.370 1_556 S
C1169 C1173 1.408 . S
C1170 C1168 1.363 . S
C1170 C1171 1.360 1_554 S
C1170 C1174 1.524 . S
C1171 C1163 1.503 1_556 S
C1171 C1170 1.360 1_556 S
C1171 C1172 1.417 . S
C1172 C1171 1.417 . S
C1172 C1173 1.404 . S
C1172 C1175 1.539 . S
C1173 C1169 1.408 . S
C1173 C1172 1.404 . S
C1173 H1185 0.930 . S
C1174 C1170 1.524 . S
C1174 H1186 0.977 . S
C1174 H1187 0.961 . S
C1174 H1188 0.961 . S
C1175 C1172 1.539 . S
C1175 H1189 0.958 . S
C1175 H1190 0.961 1_545 S
C1175 H1191 0.960 . S
H1176 C1160 0.931 . S
H1177 C1165 0.929 . S
H1178 C1166 0.960 . S
H1179 C1166 0.962 . S
H1180 C1166 0.960 . S
H1181 C1167 0.961 . S
H1182 C1167 0.961 . S
H1183 C1167 0.961 . S
H1184 C1168 0.931 . S
H1185 C1173 0.930 . S
H1186 C1174 0.977 . S
H1187 C1174 0.961 . S
H1188 C1174 0.961 . S
H1189 C1175 0.958 . S
H1190 C1175 0.961 1_565 S
H1191 C1175 0.960 . S
C1192 C1193 1.391 . S
C1192 C1194 1.394 . S
C1192 H1208 0.931 . S
C1193 C1192 1.391 . S
C1193 C1197 1.376 1_554 S
C1194 C1192 1.394 . S
C1194 C1195 1.369 . S
C1194 C1198 1.531 . S
C1195 C1194 1.369 . S
C1195 C1196 1.410 1_554 S
C1195 C1203 1.503 . S
C1196 C1195 1.410 1_556 S
C1196 C1197 1.392 . S
C1196 C1199 1.511 . S
C1197 C1193 1.376 1_556 S
C1197 C1196 1.392 . S
C1197 H1209 0.929 . S
C1198 C1194 1.531 . S
C1198 H1210 0.960 . S
C1198 H1211 0.962 . S
C1198 H1212 0.960 . S
C1199 C1196 1.511 . S
C1199 H1213 0.961 . S
C1199 H1214 0.961 . S
C1199 H1215 0.961 . S
C1200 C1201 1.370 . S
C1200 C1202 1.363 1_554 S
C1200 H1216 0.931 1_554 S
C1201 C1200 1.370 . S
C1201 C1205 1.408 . S
C1202 C1200 1.363 1_556 S
C1202 C1203 1.372 1_556 S
C1202 C1206 1.522 . S
C1203 C1195 1.503 . S
C1203 C1202 1.372 1_554 S
C1203 C1204 1.403 . S
C1204 C1203 1.403 . S
C1204 C1205 1.404 . S
C1204 C1207 1.539 . S
C1205 C1201 1.408 . S
C1205 C1204 1.404 . S
C1205 H1217 0.930 . S
C1206 C1202 1.522 . S
C1206 H1218 0.956 . S
C1206 H1219 0.961 . S
C1206 H1220 0.961 . S
C1207 C1204 1.539 . S
C1207 H1221 0.958 . S
C1207 H1222 0.961 . S
C1207 H1223 0.960 . S
H1208 C1192 0.931 . S
H1209 C1197 0.929 . S
H1210 C1198 0.960 . S
H1211 C1198 0.962 . S
H1212 C1198 0.960 . S
H1213 C1199 0.961 . S
H1214 C1199 0.961 . S
H1215 C1199 0.961 . S
H1216 C1200 0.931 1_556 S
H1217 C1205 0.930 . S
H1218 C1206 0.956 . S
H1219 C1206 0.961 . S
H1220 C1206 0.961 . S
H1221 C1207 0.958 . S
H1222 C1207 0.961 . S
H1223 C1207 0.960 . S
C1224 C1225 1.391 . S
C1224 C1226 1.394 . S
C1224 H1240 0.931 . S
C1225 C1224 1.391 . S
C1225 C1229 1.376 . S
C1226 C1224 1.394 . S
C1226 C1227 1.369 . S
C1226 C1230 1.531 . S
C1227 C1226 1.369 . S
C1227 C1228 1.410 . S
C1227 C1235 1.503 . S
C1228 C1227 1.410 . S
C1228 C1229 1.392 . S
C1228 C1231 1.511 . S
C1229 C1225 1.376 . S
C1229 C1228 1.392 . S
C1229 H1241 0.929 . S
C1230 C1226 1.531 . S
C1230 H1242 0.960 . S
C1230 H1243 0.962 . S
C1230 H1244 0.960 . S
C1231 C1228 1.511 . S
C1231 H1245 0.961 . S
C1231 H1246 0.961 . S
C1231 H1247 0.961 . S
C1232 C1233 1.370 . S
C1232 C1234 1.363 . S
C1232 H1248 0.931 . S
C1233 C1232 1.370 . S
C1233 C1237 1.408 . S
C1234 C1232 1.363 . S
C1234 C1235 1.370 . S
C1234 C1238 1.524 . S
C1235 C1227 1.503 . S
C1235 C1234 1.370 . S
C1235 C1236 1.403 . S
C1236 C1235 1.403 . S
C1236 C1237 1.404 . S
C1236 C1239 1.539 . S
C1237 C1233 1.408 . S
C1237 C1236 1.404 . S
C1237 H1249 0.930 . S
C1238 C1234 1.524 . S
C1238 H1250 0.956 . S
C1238 H1251 0.961 . S
C1238 H1252 0.961 . S
C1239 C1236 1.539 . S
C1239 H1253 0.958 . S
C1239 H1254 0.961 . S
C1239 H1255 0.960 . S
H1240 C1224 0.931 . S
H1241 C1229 0.929 . S
H1242 C1230 0.960 . S
H1243 C1230 0.962 . S
H1244 C1230 0.960 . S
H1245 C1231 0.961 . S
H1246 C1231 0.961 . S
H1247 C1231 0.961 . S
H1248 C1232 0.931 . S
H1249 C1237 0.930 . S
H1250 C1238 0.956 . S
H1251 C1238 0.961 . S
H1252 C1238 0.961 . S
H1253 C1239 0.958 . S
H1254 C1239 0.961 . S
H1255 C1239 0.960 . S
C1256 C1257 1.391 . S
C1256 C1258 1.394 . S
C1256 H1272 0.931 . S
C1257 C1256 1.391 . S
C1257 C1261 1.376 . S
C1258 C1256 1.394 . S
C1258 C1259 1.369 . S
C1258 C1262 1.531 . S
C1259 C1258 1.369 . S
C1259 C1260 1.410 . S
C1259 C1267 1.503 . S
C1260 C1259 1.410 . S
C1260 C1261 1.392 . S
C1260 C1263 1.511 . S
C1261 C1257 1.376 . S
C1261 C1260 1.392 . S
C1261 H1273 0.929 . S
C1262 C1258 1.531 . S
C1262 H1274 0.960 . S
C1262 H1275 0.962 . S
C1262 H1276 0.960 . S
C1263 C1260 1.511 . S
C1263 H1277 0.961 . S
C1263 H1278 0.961 . S
C1263 H1279 0.961 . S
C1264 C1265 1.370 . S
C1264 C1266 1.363 . S
C1264 H1280 0.931 . S
C1265 C1264 1.370 . S
C1265 C1269 1.408 . S
C1266 C1264 1.363 . S
C1266 C1267 1.370 . S
C1266 C1270 1.524 . S
C1267 C1259 1.503 . S
C1267 C1266 1.370 . S
C1267 C1268 1.403 . S
C1268 C1267 1.403 . S
C1268 C1269 1.404 . S
C1268 C1271 1.539 . S
C1269 C1265 1.408 . S
C1269 C1268 1.404 . S
C1269 H1281 0.930 . S
C1270 C1266 1.524 . S
C1270 H1282 0.956 . S
C1270 H1283 0.961 . S
C1270 H1284 0.961 . S
C1271 C1268 1.539 . S
C1271 H1285 0.958 . S
C1271 H1286 0.961 . S
C1271 H1287 0.960 . S
H1272 C1256 0.931 . S
H1273 C1261 0.929 . S
H1274 C1262 0.960 . S
H1275 C1262 0.962 . S
H1276 C1262 0.960 . S
H1277 C1263 0.961 . S
H1278 C1263 0.961 . S
H1279 C1263 0.961 . S
H1280 C1264 0.931 . S
H1281 C1269 0.930 . S
H1282 C1270 0.956 . S
H1283 C1270 0.961 . S
H1284 C1270 0.961 . S
H1285 C1271 0.958 . S
H1286 C1271 0.961 . S
H1287 C1271 0.960 . S
C1288 C1289 1.391 . S
C1288 C1290 1.394 . S
C1288 H1304 0.931 . S
C1289 C1288 1.391 . S
C1289 C1293 1.376 . S
C1290 C1288 1.394 . S
C1290 C1291 1.369 . S
C1290 C1294 1.531 . S
C1291 C1290 1.369 . S
C1291 C1292 1.410 . S
C1291 C1299 1.503 . S
C1292 C1291 1.410 . S
C1292 C1293 1.392 . S
C1292 C1295 1.511 . S
C1293 C1289 1.376 . S
C1293 C1292 1.392 . S
C1293 H1305 0.929 . S
C1294 C1290 1.531 . S
C1294 H1306 0.960 . S
C1294 H1307 0.962 . S
C1294 H1308 0.960 . S
C1295 C1292 1.511 . S
C1295 H1309 0.961 . S
C1295 H1310 0.961 . S
C1295 H1311 0.961 . S
C1296 C1297 1.370 . S
C1296 C1298 1.363 . S
C1296 H1312 0.931 . S
C1297 C1296 1.370 . S
C1297 C1301 1.408 . S
C1298 C1296 1.363 . S
C1298 C1299 1.370 . S
C1298 C1302 1.524 . S
C1299 C1291 1.503 . S
C1299 C1298 1.370 . S
C1299 C1300 1.403 . S
C1300 C1299 1.403 . S
C1300 C1301 1.404 . S
C1300 C1303 1.539 . S
C1301 C1297 1.408 . S
C1301 C1300 1.404 . S
C1301 H1313 0.930 . S
C1302 C1298 1.524 . S
C1302 H1314 0.956 . S
C1302 H1315 0.961 . S
C1302 H1316 0.961 . S
C1303 C1300 1.539 . S
C1303 H1317 0.958 . S
C1303 H1318 0.961 . S
C1303 H1319 0.960 . S
H1304 C1288 0.931 . S
H1305 C1293 0.929 . S
H1306 C1294 0.960 . S
H1307 C1294 0.962 . S
H1308 C1294 0.960 . S
H1309 C1295 0.961 . S
H1310 C1295 0.961 . S
H1311 C1295 0.961 . S
H1312 C1296 0.931 . S
H1313 C1301 0.930 . S
H1314 C1302 0.956 . S
H1315 C1302 0.961 . S
H1316 C1302 0.961 . S
H1317 C1303 0.958 . S
H1318 C1303 0.961 . S
H1319 C1303 0.960 . S
C1320 C1321 1.391 . S
C1320 C1322 1.394 . S
C1320 H1336 0.931 . S
C1321 C1320 1.391 . S
C1321 C1325 1.376 . S
C1322 C1320 1.394 . S
C1322 C1323 1.369 . S
C1322 C1326 1.531 . S
C1323 C1322 1.369 . S
C1323 C1324 1.410 . S
C1323 C1331 1.503 . S
C1324 C1323 1.410 . S
C1324 C1325 1.392 . S
C1324 C1327 1.511 . S
C1325 C1321 1.376 . S
C1325 C1324 1.392 . S
C1325 H1337 0.929 . S
C1326 C1322 1.531 . S
C1326 H1338 0.960 . S
C1326 H1339 0.962 . S
C1326 H1340 0.960 . S
C1327 C1324 1.511 . S
C1327 H1341 0.961 . S
C1327 H1342 0.961 . S
C1327 H1343 0.961 . S
C1328 C1329 1.370 . S
C1328 C1330 1.363 . S
C1328 H1344 0.933 . S
C1329 C1328 1.370 . S
C1329 C1333 1.408 . S
C1330 C1328 1.363 . S
C1330 C1331 1.370 . S
C1330 C1334 1.524 . S
C1331 C1323 1.503 . S
C1331 C1330 1.370 . S
C1331 C1332 1.403 . S
C1332 C1331 1.403 . S
C1332 C1333 1.404 . S
C1332 C1335 1.539 . S
C1333 C1329 1.408 . S
C1333 C1332 1.404 . S
C1333 H1345 0.930 . S
C1334 C1330 1.524 . S
C1334 H1346 0.956 . S
C1334 H1347 0.961 . S
C1334 H1348 0.988 . S
C1335 C1332 1.539 . S
C1335 H1349 0.958 . S
C1335 H1350 0.961 . S
C1335 H1351 0.960 . S
H1336 C1320 0.931 . S
H1337 C1325 0.929 . S
H1338 C1326 0.960 . S
H1339 C1326 0.962 . S
H1340 C1326 0.960 . S
H1341 C1327 0.961 . S
H1342 C1327 0.961 . S
H1343 C1327 0.961 . S
H1344 C1328 0.933 . S
H1345 C1333 0.930 . S
H1346 C1334 0.956 . S
H1347 C1334 0.961 . S
H1348 C1334 0.988 . S
H1349 C1335 0.958 . S
H1350 C1335 0.961 . S
H1351 C1335 0.960 . S
C1352 C1353 1.391 . S
C1352 C1354 1.394 . S
C1352 H1368 0.931 . S
C1353 C1352 1.391 . S
C1353 C1357 1.376 . S
C1354 C1352 1.394 . S
C1354 C1355 1.369 . S
C1354 C1358 1.531 . S
C1355 C1354 1.369 . S
C1355 C1356 1.410 . S
C1355 C1363 1.503 . S
C1356 C1355 1.410 . S
C1356 C1357 1.392 . S
C1356 C1359 1.511 . S
C1357 C1353 1.376 . S
C1357 C1356 1.392 . S
C1357 H1369 0.929 . S
C1358 C1354 1.531 . S
C1358 H1370 0.960 . S
C1358 H1371 0.962 . S
C1358 H1372 0.960 . S
C1359 C1356 1.511 . S
C1359 H1373 0.961 . S
C1359 H1374 0.961 . S
C1359 H1375 0.961 . S
C1360 C1361 1.370 . S
C1360 C1362 1.363 . S
C1360 H1376 0.931 . S
C1361 C1360 1.370 . S
C1361 C1365 1.408 . S
C1362 C1360 1.363 . S
C1362 C1363 1.370 . S
C1362 C1366 1.524 . S
C1363 C1355 1.503 . S
C1363 C1362 1.370 . S
C1363 C1364 1.403 . S
C1364 C1363 1.403 . S
C1364 C1365 1.404 . S
C1364 C1367 1.539 . S
C1365 C1361 1.408 . S
C1365 C1364 1.404 . S
C1365 H1377 0.930 . S
C1366 C1362 1.524 . S
C1366 H1378 0.956 . S
C1366 H1379 0.961 . S
C1366 H1380 0.961 . S
C1367 C1364 1.539 . S
C1367 H1381 0.958 . S
C1367 H1382 0.961 . S
C1367 H1383 0.960 . S
H1368 C1352 0.931 . S
H1369 C1357 0.929 . S
H1370 C1358 0.960 . S
H1371 C1358 0.962 . S
H1372 C1358 0.960 . S
H1373 C1359 0.961 . S
H1374 C1359 0.961 . S
H1375 C1359 0.961 . S
H1376 C1360 0.931 . S
H1377 C1365 0.930 . S
H1378 C1366 0.956 . S
H1379 C1366 0.961 . S
H1380 C1366 0.961 . S
H1381 C1367 0.958 . S
H1382 C1367 0.961 . S
H1383 C1367 0.960 . S
C1384 C1385 1.391 . S
C1384 C1386 1.394 . S
C1384 H1400 0.931 . S
C1385 C1384 1.391 . S
C1385 C1389 1.376 . S
C1386 C1384 1.394 . S
C1386 C1387 1.369 . S
C1386 C1390 1.531 . S
C1387 C1386 1.369 . S
C1387 C1388 1.410 . S
C1387 C1395 1.503 . S
C1388 C1387 1.410 . S
C1388 C1389 1.392 . S
C1388 C1391 1.511 . S
C1389 C1385 1.376 . S
C1389 C1388 1.392 . S
C1389 H1401 0.929 . S
C1390 C1386 1.531 . S
C1390 H1402 0.960 . S
C1390 H1403 0.962 . S
C1390 H1404 0.960 . S
C1391 C1388 1.511 . S
C1391 H1405 0.961 . S
C1391 H1406 0.961 . S
C1391 H1407 0.961 . S
C1392 C1393 1.370 . S
C1392 C1394 1.363 . S
C1392 H1408 0.931 . S
C1393 C1392 1.370 . S
C1393 C1397 1.408 . S
C1394 C1392 1.363 . S
C1394 C1395 1.370 . S
C1394 C1398 1.524 . S
C1395 C1387 1.503 . S
C1395 C1394 1.370 . S
C1395 C1396 1.403 . S
C1396 C1395 1.403 . S
C1396 C1397 1.404 . S
C1396 C1399 1.539 . S
C1397 C1393 1.408 . S
C1397 C1396 1.404 . S
C1397 H1409 0.930 . S
C1398 C1394 1.524 . S
C1398 H1410 0.956 . S
C1398 H1411 0.961 . S
C1398 H1412 0.961 . S
C1399 C1396 1.539 . S
C1399 H1413 0.958 . S
C1399 H1414 0.961 . S
C1399 H1415 0.960 . S
H1400 C1384 0.931 . S
H1401 C1389 0.929 . S
H1402 C1390 0.960 . S
H1403 C1390 0.962 . S
H1404 C1390 0.960 . S
H1405 C1391 0.961 . S
H1406 C1391 0.961 . S
H1407 C1391 0.961 . S
H1408 C1392 0.931 . S
H1409 C1397 0.930 . S
H1410 C1398 0.956 . S
H1411 C1398 0.961 . S
H1412 C1398 0.961 . S
H1413 C1399 0.958 . S
H1414 C1399 0.961 . S
H1415 C1399 0.960 . S
C1416 C1417 1.391 1_655 S
C1416 C1418 1.394 . S
C1416 H1432 0.931 . S
C1417 C1416 1.391 1_455 S
C1417 C1421 1.376 . S
C1418 C1416 1.394 . S
C1418 C1419 1.369 1_655 S
C1418 C1422 1.531 . S
C1419 C1418 1.369 1_455 S
C1419 C1420 1.410 . S
C1419 C1427 1.503 . S
C1420 C1419 1.410 . S
C1420 C1421 1.392 . S
C1420 C1423 1.511 . S
C1421 C1417 1.376 . S
C1421 C1420 1.392 . S
C1421 H1433 0.929 . S
C1422 C1418 1.531 . S
C1422 H1434 0.960 . S
C1422 H1435 0.962 . S
C1422 H1436 0.960 . S
C1423 C1420 1.511 . S
C1423 H1437 0.961 . S
C1423 H1438 0.961 . S
C1423 H1439 0.961 . S
C1424 C1425 1.370 . S
C1424 C1426 1.363 . S
C1424 H1440 0.931 1_455 S
C1425 C1424 1.370 . S
C1425 C1429 1.408 . S
C1426 C1424 1.363 . S
C1426 C1427 1.370 . S
C1426 C1430 1.524 1_455 S
C1427 C1419 1.503 . S
C1427 C1426 1.370 . S
C1427 C1428 1.403 . S
C1428 C1427 1.403 . S
C1428 C1429 1.404 . S
C1428 C1431 1.539 . S
C1429 C1425 1.408 . S
C1429 C1428 1.404 . S
C1429 H1441 0.927 . S
C1430 C1426 1.524 1_655 S
C1430 H1442 0.956 . S
C1430 H1443 0.961 1_655 S
C1430 H1444 0.961 . S
C1431 C1428 1.539 . S
C1431 H1445 0.958 1_556 S
C1431 H1446 0.966 . S
C1431 H1447 0.960 . S
H1432 C1416 0.931 . S
H1433 C1421 0.929 . S
H1434 C1422 0.960 . S
H1435 C1422 0.962 . S
H1436 C1422 0.960 . S
H1437 C1423 0.961 . S
H1438 C1423 0.961 . S
H1439 C1423 0.961 . S
H1440 C1424 0.931 1_655 S
H1441 C1429 0.927 . S
H1442 C1430 0.956 . S
H1443 C1430 0.961 1_455 S
H1444 C1430 0.961 . S
H1445 C1431 0.958 1_554 S
H1446 C1431 0.966 . S
H1447 C1431 0.960 . S
C1448 C1449 1.391 . S
C1448 C1450 1.394 . S
C1448 H1464 0.931 . S
C1449 C1448 1.391 . S
C1449 C1453 1.376 . S
C1450 C1448 1.394 . S
C1450 C1451 1.369 . S
C1450 C1454 1.531 . S
C1451 C1450 1.369 . S
C1451 C1452 1.410 . S
C1451 C1459 1.503 . S
C1452 C1451 1.410 . S
C1452 C1453 1.392 . S
C1452 C1455 1.511 . S
C1453 C1449 1.376 . S
C1453 C1452 1.392 . S
C1453 H1465 0.929 . S
C1454 C1450 1.531 . S
C1454 H1466 0.960 . S
C1454 H1467 0.962 . S
C1454 H1468 0.960 . S
C1455 C1452 1.511 . S
C1455 H1469 0.961 . S
C1455 H1470 0.961 . S
C1455 H1471 0.961 . S
C1456 C1457 1.370 . S
C1456 C1458 1.363 . S
C1456 H1472 0.931 . S
C1457 C1456 1.370 . S
C1457 C1461 1.408 . S
C1458 C1456 1.363 . S
C1458 C1459 1.370 . S
C1458 C1462 1.524 . S
C1459 C1451 1.503 . S
C1459 C1458 1.370 . S
C1459 C1460 1.403 . S
C1460 C1459 1.403 . S
C1460 C1461 1.404 . S
C1460 C1463 1.539 . S
C1461 C1457 1.408 . S
C1461 C1460 1.404 . S
C1461 H1473 0.930 . S
C1462 C1458 1.524 . S
C1462 H1474 0.956 . S
C1462 H1475 0.961 . S
C1462 H1476 0.961 . S
C1463 C1460 1.539 . S
C1463 H1477 0.958 . S
C1463 H1478 0.961 . S
C1463 H1479 0.960 . S
H1464 C1448 0.931 . S
H1465 C1453 0.929 . S
H1466 C1454 0.960 . S
H1467 C1454 0.962 . S
H1468 C1454 0.960 . S
H1469 C1455 0.961 . S
H1470 C1455 0.961 . S
H1471 C1455 0.961 . S
H1472 C1456 0.931 . S
H1473 C1461 0.930 . S
H1474 C1462 0.956 . S
H1475 C1462 0.961 . S
H1476 C1462 0.961 . S
H1477 C1463 0.958 . S
H1478 C1463 0.961 . S
H1479 C1463 0.960 . S
C1480 C1481 1.391 . S
C1480 C1482 1.394 . S
C1480 H1496 0.931 . S
C1481 C1480 1.391 . S
C1481 C1485 1.376 . S
C1482 C1480 1.394 . S
C1482 C1483 1.369 . S
C1482 C1486 1.531 . S
C1483 C1482 1.369 . S
C1483 C1484 1.410 . S
C1483 C1491 1.503 . S
C1484 C1483 1.410 . S
C1484 C1485 1.392 . S
C1484 C1487 1.511 . S
C1485 C1481 1.376 . S
C1485 C1484 1.392 . S
C1485 H1497 0.929 . S
C1486 C1482 1.531 . S
C1486 H1498 0.960 . S
C1486 H1499 0.962 . S
C1486 H1500 0.960 . S
C1487 C1484 1.511 . S
C1487 H1501 0.961 . S
C1487 H1502 0.961 . S
C1487 H1503 0.961 . S
C1488 C1489 1.370 . S
C1488 C1490 1.363 . S
C1488 H1504 0.931 . S
C1489 C1488 1.370 . S
C1489 C1493 1.408 . S
C1490 C1488 1.363 . S
C1490 C1491 1.370 . S
C1490 C1494 1.524 . S
C1491 C1483 1.503 . S
C1491 C1490 1.370 . S
C1491 C1492 1.403 . S
C1492 C1491 1.403 . S
C1492 C1493 1.404 . S
C1492 C1495 1.539 . S
C1493 C1489 1.408 . S
C1493 C1492 1.404 . S
C1493 H1505 0.930 . S
C1494 C1490 1.524 . S
C1494 H1506 0.956 . S
C1494 H1507 0.961 . S
C1494 H1508 0.961 . S
C1495 C1492 1.539 . S
C1495 H1509 0.958 . S
C1495 H1510 0.961 . S
C1495 H1511 0.960 . S
H1496 C1480 0.931 . S
H1497 C1485 0.929 . S
H1498 C1486 0.960 . S
H1499 C1486 0.962 . S
H1500 C1486 0.960 . S
H1501 C1487 0.961 . S
H1502 C1487 0.961 . S
H1503 C1487 0.961 . S
H1504 C1488 0.931 . S
H1505 C1493 0.930 . S
H1506 C1494 0.956 . S
H1507 C1494 0.961 . S
H1508 C1494 0.961 . S
H1509 C1495 0.958 . S
H1510 C1495 0.961 . S
H1511 C1495 0.960 . S
C1512 C1513 1.391 . S
C1512 C1514 1.394 . S
C1512 H1528 0.931 . S
C1513 C1512 1.391 . S
C1513 C1517 1.376 . S
C1514 C1512 1.394 . S
C1514 C1515 1.369 . S
C1514 C1518 1.531 . S
C1515 C1514 1.369 . S
C1515 C1516 1.410 . S
C1515 C1523 1.503 . S
C1516 C1515 1.410 . S
C1516 C1517 1.392 . S
C1516 C1519 1.511 . S
C1517 C1513 1.376 . S
C1517 C1516 1.392 . S
C1517 H1529 0.929 . S
C1518 C1514 1.531 . S
C1518 H1530 0.960 . S
C1518 H1531 0.962 . S
C1518 H1532 0.960 . S
C1519 C1516 1.511 . S
C1519 H1533 0.961 . S
C1519 H1534 0.961 . S
C1519 H1535 0.961 . S
C1520 C1521 1.370 . S
C1520 C1522 1.363 . S
C1520 H1536 0.931 . S
C1521 C1520 1.370 . S
C1521 C1525 1.408 . S
C1522 C1520 1.363 . S
C1522 C1523 1.370 . S
C1522 C1526 1.524 . S
C1523 C1515 1.503 . S
C1523 C1522 1.370 . S
C1523 C1524 1.403 . S
C1524 C1523 1.403 . S
C1524 C1525 1.404 . S
C1524 C1527 1.539 . S
C1525 C1521 1.408 . S
C1525 C1524 1.404 . S
C1525 H1537 0.930 . S
C1526 C1522 1.524 . S
C1526 H1538 0.956 . S
C1526 H1539 0.961 . S
C1526 H1540 0.961 . S
C1527 C1524 1.539 . S
C1527 H1541 0.958 . S
C1527 H1542 0.961 . S
C1527 H1543 0.960 . S
H1528 C1512 0.931 . S
H1529 C1517 0.929 . S
H1530 C1518 0.960 . S
H1531 C1518 0.962 . S
H1532 C1518 0.960 . S
H1533 C1519 0.961 . S
H1534 C1519 0.961 . S
H1535 C1519 0.961 . S
H1536 C1520 0.931 . S
H1537 C1525 0.930 . S
H1538 C1526 0.956 . S
H1539 C1526 0.961 . S
H1540 C1526 0.961 . S
H1541 C1527 0.958 . S
H1542 C1527 0.961 . S
H1543 C1527 0.960 . S
C1544 C1545 1.391 . S
C1544 C1546 1.394 . S
C1544 H1560 0.931 . S
C1545 C1544 1.391 . S
C1545 C1549 1.376 1_455 S
C1546 C1544 1.394 . S
C1546 C1547 1.369 . S
C1546 C1550 1.531 . S
C1547 C1546 1.369 . S
C1547 C1548 1.410 1_455 S
C1547 C1555 1.503 . S
C1548 C1547 1.410 1_655 S
C1548 C1549 1.392 . S
C1548 C1551 1.511 . S
C1549 C1545 1.376 1_655 S
C1549 C1548 1.392 . S
C1549 H1561 0.929 . S
C1550 C1546 1.531 . S
C1550 H1562 0.960 . S
C1550 H1563 0.962 . S
C1550 H1564 0.960 . S
C1551 C1548 1.511 . S
C1551 H1565 0.961 . S
C1551 H1566 0.961 . S
C1551 H1567 0.961 . S
C1552 C1553 1.370 . S
C1552 C1554 1.363 . S
C1552 H1568 0.946 . S
C1553 C1552 1.370 . S
C1553 C1557 1.408 . S
C1554 C1552 1.363 . S
C1554 C1555 1.370 . S
C1554 C1558 1.524 1_455 S
C1555 C1547 1.503 . S
C1555 C1554 1.370 . S
C1555 C1556 1.403 . S
C1556 C1555 1.403 . S
C1556 C1557 1.404 . S
C1556 C1559 1.539 . S
C1557 C1553 1.408 . S
C1557 C1556 1.404 . S
C1557 H1569 0.930 . S
C1558 C1554 1.524 1_655 S
C1558 H1570 0.956 1_655 S
C1558 H1571 0.961 . S
C1558 H1572 0.961 . S
C1559 C1556 1.539 . S
C1559 H1573 0.958 . S
C1559 H1574 0.961 . S
C1559 H1575 0.960 . S
H1560 C1544 0.931 . S
H1561 C1549 0.929 . S
H1562 C1550 0.960 . S
H1563 C1550 0.962 . S
H1564 C1550 0.960 . S
H1565 C1551 0.961 . S
H1566 C1551 0.961 . S
H1567 C1551 0.961 . S
H1568 C1552 0.946 . S
H1569 C1557 0.930 . S
H1570 C1558 0.956 1_455 S
H1571 C1558 0.961 . S
H1572 C1558 0.961 . S
H1573 C1559 0.958 . S
H1574 C1559 0.961 . S
H1575 C1559 0.960 . S
C1576 C1577 1.391 . S
C1576 C1578 1.394 . S
C1576 H1592 0.931 . S
C1577 C1576 1.391 . S
C1577 C1581 1.376 . S
C1578 C1576 1.394 . S
C1578 C1579 1.369 . S
C1578 C1582 1.531 . S
C1579 C1578 1.369 . S
C1579 C1580 1.410 . S
C1579 C1587 1.503 . S
C1580 C1579 1.410 . S
C1580 C1581 1.392 . S
C1580 C1583 1.511 . S
C1581 C1577 1.376 . S
C1581 C1580 1.392 . S
C1581 H1593 0.929 . S
C1582 C1578 1.531 . S
C1582 H1594 0.960 . S
C1582 H1595 0.962 . S
C1582 H1596 0.960 . S
C1583 C1580 1.511 . S
C1583 H1597 0.961 . S
C1583 H1598 0.961 . S
C1583 H1599 0.961 . S
C1584 C1585 1.370 . S
C1584 C1586 1.363 . S
C1584 H1600 0.931 . S
C1585 C1584 1.370 . S
C1585 C1589 1.408 . S
C1586 C1584 1.363 . S
C1586 C1587 1.370 . S
C1586 C1590 1.524 . S
C1587 C1579 1.503 . S
C1587 C1586 1.370 . S
C1587 C1588 1.403 . S
C1588 C1587 1.403 . S
C1588 C1589 1.404 . S
C1588 C1591 1.539 . S
C1589 C1585 1.408 . S
C1589 C1588 1.404 . S
C1589 H1601 0.930 . S
C1590 C1586 1.524 . S
C1590 H1602 0.956 . S
C1590 H1603 0.961 . S
C1590 H1604 0.961 . S
C1591 C1588 1.539 . S
C1591 H1605 0.958 . S
C1591 H1606 0.961 . S
C1591 H1607 0.960 . S
H1592 C1576 0.931 . S
H1593 C1581 0.929 . S
H1594 C1582 0.960 . S
H1595 C1582 0.962 . S
H1596 C1582 0.960 . S
H1597 C1583 0.961 . S
H1598 C1583 0.961 . S
H1599 C1583 0.961 . S
H1600 C1584 0.931 . S
H1601 C1589 0.930 . S
H1602 C1590 0.956 . S
H1603 C1590 0.961 . S
H1604 C1590 0.961 . S
H1605 C1591 0.958 . S
H1606 C1591 0.961 . S
H1607 C1591 0.960 . S
C1608 C1609 1.391 . S
C1608 C1610 1.394 . S
C1608 H1624 0.931 . S
C1609 C1608 1.391 . S
C1609 C1613 1.376 . S
C1610 C1608 1.394 . S
C1610 C1611 1.369 . S
C1610 C1614 1.531 . S
C1611 C1610 1.369 . S
C1611 C1612 1.410 . S
C1611 C1619 1.503 . S
C1612 C1611 1.410 . S
C1612 C1613 1.392 . S
C1612 C1615 1.511 . S
C1613 C1609 1.376 . S
C1613 C1612 1.392 . S
C1613 H1625 0.929 . S
C1614 C1610 1.531 . S
C1614 H1626 0.960 . S
C1614 H1627 0.962 . S
C1614 H1628 0.960 . S
C1615 C1612 1.511 . S
C1615 H1629 0.961 . S
C1615 H1630 0.961 . S
C1615 H1631 0.961 . S
C1616 C1617 1.370 . S
C1616 C1618 1.363 . S
C1616 H1632 0.931 . S
C1617 C1616 1.370 . S
C1617 C1621 1.408 . S
C1618 C1616 1.363 . S
C1618 C1619 1.370 . S
C1618 C1622 1.524 . S
C1619 C1611 1.503 . S
C1619 C1618 1.370 . S
C1619 C1620 1.403 . S
C1620 C1619 1.403 . S
C1620 C1621 1.404 . S
C1620 C1623 1.539 . S
C1621 C1617 1.408 . S
C1621 C1620 1.404 . S
C1621 H1633 0.930 . S
C1622 C1618 1.524 . S
C1622 H1634 0.956 . S
C1622 H1635 0.961 . S
C1622 H1636 0.961 . S
C1623 C1620 1.539 . S
C1623 H1637 0.958 . S
C1623 H1638 0.961 . S
C1623 H1639 0.960 . S
H1624 C1608 0.931 . S
H1625 C1613 0.929 . S
H1626 C1614 0.960 . S
H1627 C1614 0.962 . S
H1628 C1614 0.960 . S
H1629 C1615 0.961 . S
H1630 C1615 0.961 . S
H1631 C1615 0.961 . S
H1632 C1616 0.931 . S
H1633 C1621 0.930 . S
H1634 C1622 0.956 . S
H1635 C1622 0.961 . S
H1636 C1622 0.961 . S
H1637 C1623 0.958 . S
H1638 C1623 0.961 . S
H1639 C1623 0.960 . S
C1640 C1641 1.391 . S
C1640 C1642 1.394 . S
C1640 H1656 0.931 . S
C1641 C1640 1.391 . S
C1641 C1645 1.376 . S
C1642 C1640 1.394 . S
C1642 C1643 1.369 . S
C1642 C1646 1.531 . S
C1643 C1642 1.369 . S
C1643 C1644 1.410 . S
C1643 C1651 1.503 . S
C1644 C1643 1.410 . S
C1644 C1645 1.392 . S
C1644 C1647 1.511 . S
C1645 C1641 1.376 . S
C1645 C1644 1.392 . S
C1645 H1657 0.929 . S
C1646 C1642 1.531 . S
C1646 H1658 0.960 . S
C1646 H1659 0.962 . S
C1646 H1660 0.960 . S
C1647 C1644 1.511 . S
C1647 H1661 0.961 . S
C1647 H1662 0.961 . S
C1647 H1663 0.961 . S
C1648 C1649 1.370 . S
C1648 C1650 1.363 . S
C1648 H1664 0.931 . S
C1649 C1648 1.370 . S
C1649 C1653 1.408 . S
C1650 C1648 1.363 . S
C1650 C1651 1.370 . S
C1650 C1654 1.524 . S
C1651 C1643 1.503 . S
C1651 C1650 1.370 . S
C1651 C1652 1.403 . S
C1652 C1651 1.403 . S
C1652 C1653 1.404 . S
C1652 C1655 1.539 . S
C1653 C1649 1.408 . S
C1653 C1652 1.404 . S
C1653 H1665 0.930 . S
C1654 C1650 1.524 . S
C1654 H1666 0.956 . S
C1654 H1667 0.961 . S
C1654 H1668 0.961 . S
C1655 C1652 1.539 . S
C1655 H1669 0.958 . S
C1655 H1670 0.961 . S
C1655 H1671 0.960 . S
H1656 C1640 0.931 . S
H1657 C1645 0.929 . S
H1658 C1646 0.960 . S
H1659 C1646 0.962 . S
H1660 C1646 0.960 . S
H1661 C1647 0.961 . S
H1662 C1647 0.961 . S
H1663 C1647 0.961 . S
H1664 C1648 0.931 . S
H1665 C1653 0.930 . S
H1666 C1654 0.956 . S
H1667 C1654 0.961 . S
H1668 C1654 0.961 . S
H1669 C1655 0.958 . S
H1670 C1655 0.961 . S
H1671 C1655 0.960 . S
C1672 C1673 1.391 . S
C1672 C1674 1.394 . S
C1672 H1688 0.931 . S
C1673 C1672 1.391 . S
C1673 C1677 1.376 . S
C1674 C1672 1.394 . S
C1674 C1675 1.369 . S
C1674 C1678 1.531 . S
C1675 C1674 1.369 . S
C1675 C1676 1.410 . S
C1675 C1683 1.503 . S
C1676 C1675 1.410 . S
C1676 C1677 1.392 . S
C1676 C1679 1.511 . S
C1677 C1673 1.376 . S
C1677 C1676 1.392 . S
C1677 H1689 0.929 . S
C1678 C1674 1.531 . S
C1678 H1690 0.960 . S
C1678 H1691 0.962 1_545 S
C1678 H1692 0.960 . S
C1679 C1676 1.511 . S
C1679 H1693 0.961 . S
C1679 H1694 0.961 . S
C1679 H1695 0.961 . S
C1680 C1681 1.370 1_565 S
C1680 C1682 1.363 . S
C1680 H1696 0.931 . S
C1681 C1680 1.370 1_545 S
C1681 C1685 1.408 . S
C1682 C1680 1.363 . S
C1682 C1683 1.370 1_565 S
C1682 C1686 1.524 . S
C1683 C1675 1.503 . S
C1683 C1682 1.370 1_545 S
C1683 C1684 1.403 . S
C1684 C1683 1.403 . S
C1684 C1685 1.404 . S
C1684 C1687 1.539 . S
C1685 C1681 1.408 . S
C1685 C1684 1.404 . S
C1685 H1697 0.930 . S
C1686 C1682 1.524 . S
C1686 H1698 0.956 . S
C1686 H1699 0.961 . S
C1686 H1700 0.961 . S
C1687 C1684 1.539 . S
C1687 H1701 0.958 . S
C1687 H1702 0.961 . S
C1687 H1703 0.960 . S
H1688 C1672 0.931 . S
H1689 C1677 0.929 . S
H1690 C1678 0.960 . S
H1691 C1678 0.962 1_565 S
H1692 C1678 0.960 . S
H1693 C1679 0.961 . S
H1694 C1679 0.961 . S
H1695 C1679 0.961 . S
H1696 C1680 0.931 . S
H1697 C1685 0.930 . S
H1698 C1686 0.956 . S
H1699 C1686 0.961 . S
H1700 C1686 0.961 . S
H1701 C1687 0.958 . S
H1702 C1687 0.961 . S
H1703 C1687 0.960 . S
C1704 C1705 1.391 . S
C1704 C1706 1.394 . S
C1704 H1720 0.931 . S
C1705 C1704 1.391 . S
C1705 C1709 1.376 . S
C1706 C1704 1.394 . S
C1706 C1707 1.369 . S
C1706 C1710 1.531 . S
C1707 C1706 1.369 . S
C1707 C1708 1.410 . S
C1707 C1715 1.503 . S
C1708 C1707 1.410 . S
C1708 C1709 1.392 . S
C1708 C1711 1.511 . S
C1709 C1705 1.376 . S
C1709 C1708 1.392 . S
C1709 H1721 0.929 . S
C1710 C1706 1.531 . S
C1710 H1722 0.960 . S
C1710 H1723 0.962 . S
C1710 H1724 0.960 . S
C1711 C1708 1.511 . S
C1711 H1725 0.961 . S
C1711 H1726 0.961 . S
C1711 H1727 0.961 . S
C1712 C1713 1.370 . S
C1712 C1714 1.363 . S
C1712 H1728 0.931 . S
C1713 C1712 1.370 . S
C1713 C1717 1.408 . S
C1714 C1712 1.363 . S
C1714 C1715 1.370 . S
C1714 C1718 1.524 . S
C1715 C1707 1.503 . S
C1715 C1714 1.370 . S
C1715 C1716 1.403 . S
C1716 C1715 1.403 . S
C1716 C1717 1.404 . S
C1716 C1719 1.539 . S
C1717 C1713 1.408 . S
C1717 C1716 1.404 . S
C1717 H1729 0.930 . S
C1718 C1714 1.524 . S
C1718 H1730 0.956 . S
C1718 H1731 0.961 . S
C1718 H1732 0.961 . S
C1719 C1716 1.539 . S
C1719 H1733 0.958 . S
C1719 H1734 0.961 . S
C1719 H1735 0.960 . S
H1720 C1704 0.931 . S
H1721 C1709 0.929 . S
H1722 C1710 0.960 . S
H1723 C1710 0.962 . S
H1724 C1710 0.960 . S
H1725 C1711 0.961 . S
H1726 C1711 0.961 . S
H1727 C1711 0.961 . S
H1728 C1712 0.931 . S
H1729 C1717 0.930 . S
H1730 C1718 0.956 . S
H1731 C1718 0.961 . S
H1732 C1718 0.961 . S
H1733 C1719 0.958 . S
H1734 C1719 0.961 . S
H1735 C1719 0.960 . S
C1736 C1737 1.391 . S
C1736 C1738 1.394 . S
C1736 H1752 0.931 . S
C1737 C1736 1.391 . S
C1737 C1741 1.376 1_545 S
C1738 C1736 1.394 . S
C1738 C1739 1.369 . S
C1738 C1742 1.531 . S
C1739 C1738 1.369 . S
C1739 C1740 1.410 1_545 S
C1739 C1747 1.503 . S
C1740 C1739 1.410 1_565 S
C1740 C1741 1.392 . S
C1740 C1743 1.511 . S
C1741 C1737 1.376 1_565 S
C1741 C1740 1.392 . S
C1741 H1753 0.929 . S
C1742 C1738 1.531 . S
C1742 H1754 0.960 . S
C1742 H1755 0.962 . S
C1742 H1756 0.960 . S
C1743 C1740 1.511 . S
C1743 H1757 0.961 . S
C1743 H1758 0.961 . S
C1743 H1759 0.961 . S
C1744 C1745 1.370 . S
C1744 C1746 1.363 . S
C1744 H1760 0.931 . S
C1745 C1744 1.370 . S
C1745 C1749 1.408 1_565 S
C1746 C1744 1.363 . S
C1746 C1747 1.370 1_565 S
C1746 C1750 1.524 . S
C1747 C1739 1.503 . S
C1747 C1746 1.370 1_545 S
C1747 C1748 1.403 . S
C1748 C1747 1.403 . S
C1748 C1749 1.404 . S
C1748 C1751 1.539 . S
C1749 C1745 1.408 1_545 S
C1749 C1748 1.404 . S
C1749 H1761 0.930 . S
C1750 C1746 1.524 . S
C1750 H1762 0.956 . S
C1750 H1763 0.961 . S
C1750 H1764 0.961 . S
C1751 C1748 1.539 . S
C1751 H1765 0.958 . S
C1751 H1766 0.961 . S
C1751 H1767 0.960 . S
H1752 C1736 0.931 . S
H1753 C1741 0.929 . S
H1754 C1742 0.960 . S
H1755 C1742 0.962 . S
H1756 C1742 0.960 . S
H1757 C1743 0.961 . S
H1758 C1743 0.961 . S
H1759 C1743 0.961 . S
H1760 C1744 0.931 . S
H1761 C1749 0.930 . S
H1762 C1750 0.956 . S
H1763 C1750 0.961 . S
H1764 C1750 0.961 . S
H1765 C1751 0.958 . S
H1766 C1751 0.961 . S
H1767 C1751 0.960 . S
C1768 C1769 1.391 . S
C1768 C1770 1.394 . S
C1768 H1784 0.931 . S
C1769 C1768 1.391 . S
C1769 C1773 1.376 . S
C1770 C1768 1.394 . S
C1770 C1771 1.369 . S
C1770 C1774 1.531 . S
C1771 C1770 1.369 . S
C1771 C1772 1.410 . S
C1771 C1779 1.503 . S
C1772 C1771 1.410 . S
C1772 C1773 1.392 . S
C1772 C1775 1.511 . S
C1773 C1769 1.376 . S
C1773 C1772 1.392 . S
C1773 H1785 0.929 . S
C1774 C1770 1.531 . S
C1774 H1786 0.960 . S
C1774 H1787 0.962 . S
C1774 H1788 0.960 . S
C1775 C1772 1.511 . S
C1775 H1789 0.961 . S
C1775 H1790 0.961 . S
C1775 H1791 0.961 . S
C1776 C1777 1.370 . S
C1776 C1778 1.363 . S
C1776 H1792 0.931 . S
C1777 C1776 1.370 . S
C1777 C1781 1.408 . S
C1778 C1776 1.363 . S
C1778 C1779 1.370 . S
C1778 C1782 1.524 . S
C1779 C1771 1.503 . S
C1779 C1778 1.370 . S
C1779 C1780 1.403 . S
C1780 C1779 1.403 . S
C1780 C1781 1.404 . S
C1780 C1783 1.539 . S
C1781 C1777 1.408 . S
C1781 C1780 1.404 . S
C1781 H1793 0.930 . S
C1782 C1778 1.524 . S
C1782 H1794 0.956 . S
C1782 H1795 0.961 . S
C1782 H1796 0.961 . S
C1783 C1780 1.539 . S
C1783 H1797 0.958 . S
C1783 H1798 0.961 . S
C1783 H1799 0.960 . S
H1784 C1768 0.931 . S
H1785 C1773 0.929 . S
H1786 C1774 0.960 . S
H1787 C1774 0.962 . S
H1788 C1774 0.960 . S
H1789 C1775 0.961 . S
H1790 C1775 0.961 . S
H1791 C1775 0.961 . S
H1792 C1776 0.931 . S
H1793 C1781 0.930 . S
H1794 C1782 0.956 . S
H1795 C1782 0.961 . S
H1796 C1782 0.961 . S
H1797 C1783 0.958 . S
H1798 C1783 0.961 . S
H1799 C1783 0.960 . S
C1800 C1801 1.391 . S
C1800 C1802 1.394 . S
C1800 H1816 0.931 . S
C1801 C1800 1.391 . S
C1801 C1805 1.376 1_565 S
C1802 C1800 1.394 . S
C1802 C1803 1.369 . S
C1802 C1806 1.531 . S
C1803 C1802 1.369 . S
C1803 C1804 1.410 1_565 S
C1803 C1811 1.503 . S
C1804 C1803 1.410 1_545 S
C1804 C1805 1.392 . S
C1804 C1807 1.511 . S
C1805 C1801 1.376 1_545 S
C1805 C1804 1.392 . S
C1805 H1817 0.929 . S
C1806 C1802 1.531 . S
C1806 H1818 0.960 . S
C1806 H1819 0.962 . S
C1806 H1820 0.960 . S
C1807 C1804 1.511 . S
C1807 H1821 0.961 . S
C1807 H1822 0.961 . S
C1807 H1823 0.961 . S
C1808 C1809 1.370 . S
C1808 C1810 1.363 . S
C1808 H1824 0.925 1_565 S
C1809 C1808 1.370 . S
C1809 C1813 1.408 . S
C1810 C1808 1.363 . S
C1810 C1811 1.370 . S
C1810 C1814 1.524 1_565 S
C1811 C1803 1.503 . S
C1811 C1810 1.370 . S
C1811 C1812 1.403 . S
C1812 C1811 1.403 . S
C1812 C1813 1.404 . S
C1812 C1815 1.539 . S
C1813 C1809 1.408 . S
C1813 C1812 1.404 . S
C1813 H1825 0.930 . S
C1814 C1810 1.524 1_545 S
C1814 H1826 0.956 1_545 S
C1814 H1827 0.961 . S
C1814 H1828 0.987 . S
C1815 C1812 1.539 . S
C1815 H1829 0.958 . S
C1815 H1830 0.961 . S
C1815 H1831 0.960 . S
H1816 C1800 0.931 . S
H1817 C1805 0.929 . S
H1818 C1806 0.960 . S
H1819 C1806 0.962 . S
H1820 C1806 0.960 . S
H1821 C1807 0.961 . S
H1822 C1807 0.961 . S
H1823 C1807 0.961 . S
H1824 C1808 0.925 1_545 S
H1825 C1813 0.930 . S
H1826 C1814 0.956 1_565 S
H1827 C1814 0.961 . S
H1828 C1814 0.987 . S
H1829 C1815 0.958 . S
H1830 C1815 0.961 . S
H1831 C1815 0.960 . S
C1832 C1833 1.391 . S
C1832 C1834 1.394 . S
C1832 H1848 0.931 . S
C1833 C1832 1.391 . S
C1833 C1837 1.376 . S
C1834 C1832 1.394 . S
C1834 C1835 1.369 . S
C1834 C1838 1.531 . S
C1835 C1834 1.369 . S
C1835 C1836 1.410 . S
C1835 C1843 1.503 . S
C1836 C1835 1.410 . S
C1836 C1837 1.392 . S
C1836 C1839 1.511 . S
C1837 C1833 1.376 . S
C1837 C1836 1.392 . S
C1837 H1849 0.929 . S
C1838 C1834 1.531 . S
C1838 H1850 0.960 . S
C1838 H1851 0.962 . S
C1838 H1852 0.960 . S
C1839 C1836 1.511 . S
C1839 H1853 0.961 . S
C1839 H1854 0.961 . S
C1839 H1855 0.961 . S
C1840 C1841 1.370 . S
C1840 C1842 1.363 . S
C1840 H1856 0.931 . S
C1841 C1840 1.370 . S
C1841 C1845 1.408 . S
C1842 C1840 1.363 . S
C1842 C1843 1.370 . S
C1842 C1846 1.524 . S
C1843 C1835 1.503 . S
C1843 C1842 1.370 . S
C1843 C1844 1.403 . S
C1844 C1843 1.403 . S
C1844 C1845 1.404 . S
C1844 C1847 1.539 . S
C1845 C1841 1.408 . S
C1845 C1844 1.404 . S
C1845 H1857 0.930 . S
C1846 C1842 1.524 . S
C1846 H1858 0.956 . S
C1846 H1859 0.961 . S
C1846 H1860 0.961 . S
C1847 C1844 1.539 . S
C1847 H1861 0.958 . S
C1847 H1862 0.961 . S
C1847 H1863 0.960 . S
H1848 C1832 0.931 . S
H1849 C1837 0.929 . S
H1850 C1838 0.960 . S
H1851 C1838 0.962 . S
H1852 C1838 0.960 . S
H1853 C1839 0.961 . S
H1854 C1839 0.961 . S
H1855 C1839 0.961 . S
H1856 C1840 0.931 . S
H1857 C1845 0.930 . S
H1858 C1846 0.956 . S
H1859 C1846 0.961 . S
H1860 C1846 0.961 . S
H1861 C1847 0.958 . S
H1862 C1847 0.961 . S
H1863 C1847 0.960 . S
C1864 C1865 1.391 . S
C1864 C1866 1.394 . S
C1864 H1880 0.931 . S
C1865 C1864 1.391 . S
C1865 C1869 1.376 . S
C1866 C1864 1.394 . S
C1866 C1867 1.369 . S
C1866 C1870 1.531 . S
C1867 C1866 1.369 . S
C1867 C1868 1.410 . S
C1867 C1875 1.503 . S
C1868 C1867 1.410 . S
C1868 C1869 1.392 . S
C1868 C1871 1.511 . S
C1869 C1865 1.376 . S
C1869 C1868 1.392 . S
C1869 H1881 0.927 1_545 S
C1870 C1866 1.531 . S
C1870 H1882 0.960 . S
C1870 H1883 0.962 . S
C1870 H1884 0.960 . S
C1871 C1868 1.511 . S
C1871 H1885 0.961 1_545 S
C1871 H1886 0.961 1_545 S
C1871 H1887 0.961 . S
C1872 C1873 1.370 1_565 S
C1872 C1874 1.363 . S
C1872 H1888 0.931 . S
C1873 C1872 1.370 1_545 S
C1873 C1877 1.408 . S
C1874 C1872 1.363 . S
C1874 C1875 1.370 1_565 S
C1874 C1878 1.524 . S
C1875 C1867 1.503 . S
C1875 C1874 1.370 1_545 S
C1875 C1876 1.403 . S
C1876 C1875 1.403 . S
C1876 C1877 1.404 . S
C1876 C1879 1.539 . S
C1877 C1873 1.408 . S
C1877 C1876 1.404 . S
C1877 H1889 0.930 . S
C1878 C1874 1.524 . S
C1878 H1890 0.956 . S
C1878 H1891 0.961 . S
C1878 H1892 0.961 . S
C1879 C1876 1.539 . S
C1879 H1893 0.958 . S
C1879 H1894 0.961 . S
C1879 H1895 0.960 . S
H1880 C1864 0.931 . S
H1881 C1869 0.927 1_565 S
H1882 C1870 0.960 . S
H1883 C1870 0.962 . S
H1884 C1870 0.960 . S
H1885 C1871 0.961 1_565 S
H1886 C1871 0.961 1_565 S
H1887 C1871 0.961 . S
H1888 C1872 0.931 . S
H1889 C1877 0.930 . S
H1890 C1878 0.956 . S
H1891 C1878 0.961 . S
H1892 C1878 0.961 . S
H1893 C1879 0.958 . S
H1894 C1879 0.961 . S
H1895 C1879 0.960 . S
C1896 C1897 1.391 . S
C1896 C1898 1.394 . S
C1896 H1912 0.931 . S
C1897 C1896 1.391 . S
C1897 C1901 1.376 . S
C1898 C1896 1.394 . S
C1898 C1899 1.369 . S
C1898 C1902 1.531 . S
C1899 C1898 1.369 . S
C1899 C1900 1.410 . S
C1899 C1907 1.503 . S
C1900 C1899 1.410 . S
C1900 C1901 1.392 . S
C1900 C1903 1.511 . S
C1901 C1897 1.376 . S
C1901 C1900 1.392 . S
C1901 H1913 0.929 . S
C1902 C1898 1.531 . S
C1902 H1914 0.960 . S
C1902 H1915 0.962 . S
C1902 H1916 0.960 . S
C1903 C1900 1.511 . S
C1903 H1917 0.961 . S
C1903 H1918 0.961 . S
C1903 H1919 0.961 . S
C1904 C1905 1.370 . S
C1904 C1906 1.363 . S
C1904 H1920 0.931 . S
C1905 C1904 1.370 . S
C1905 C1909 1.408 . S
C1906 C1904 1.363 . S
C1906 C1907 1.370 . S
C1906 C1910 1.524 . S
C1907 C1899 1.503 . S
C1907 C1906 1.370 . S
C1907 C1908 1.403 . S
C1908 C1907 1.403 . S
C1908 C1909 1.404 . S
C1908 C1911 1.539 . S
C1909 C1905 1.408 . S
C1909 C1908 1.404 . S
C1909 H1921 0.930 . S
C1910 C1906 1.524 . S
C1910 H1922 0.956 . S
C1910 H1923 0.961 . S
C1910 H1924 0.961 . S
C1911 C1908 1.539 . S
C1911 H1925 0.958 . S
C1911 H1926 0.961 . S
C1911 H1927 0.960 . S
H1912 C1896 0.931 . S
H1913 C1901 0.929 . S
H1914 C1902 0.960 . S
H1915 C1902 0.962 . S
H1916 C1902 0.960 . S
H1917 C1903 0.961 . S
H1918 C1903 0.961 . S
H1919 C1903 0.961 . S
H1920 C1904 0.931 . S
H1921 C1909 0.930 . S
H1922 C1910 0.956 . S
H1923 C1910 0.961 . S
H1924 C1910 0.961 . S
H1925 C1911 0.958 . S
H1926 C1911 0.961 . S
H1927 C1911 0.960 . S
C1928 C1929 1.391 1_556 S
C1928 C1930 1.394 . S
C1928 H1944 0.931 . S
C1929 C1928 1.391 1_554 S
C1929 C1933 1.376 . S
C1930 C1928 1.394 . S
C1930 C1931 1.369 1_556 S
C1930 C1934 1.531 . S
C1931 C1930 1.369 1_554 S
C1931 C1932 1.410 . S
C1931 C1939 1.503 . S
C1932 C1931 1.410 . S
C1932 C1933 1.392 . S
C1932 C1935 1.511 . S
C1933 C1929 1.376 . S
C1933 C1932 1.392 . S
C1933 H1945 0.929 . S
C1934 C1930 1.531 . S
C1934 H1946 0.960 . S
C1934 H1947 0.962 . S
C1934 H1948 0.960 . S
C1935 C1932 1.511 . S
C1935 H1949 0.961 . S
C1935 H1950 0.961 . S
C1935 H1951 0.961 . S
C1936 C1937 1.370 . S
C1936 C1938 1.363 . S
C1936 H1952 0.931 . S
C1937 C1936 1.370 . S
C1937 C1941 1.408 1_554 S
C1938 C1936 1.363 . S
C1938 C1939 1.370 . S
C1938 C1942 1.524 . S
C1939 C1931 1.503 . S
C1939 C1938 1.370 . S
C1939 C1940 1.403 1_554 S
C1940 C1939 1.403 1_556 S
C1940 C1941 1.404 . S
C1940 C1943 1.539 . S
C1941 C1937 1.408 1_556 S
C1941 C1940 1.404 . S
C1941 H1953 0.930 . S
C1942 C1938 1.524 . S
C1942 H1954 0.956 . S
C1942 H1955 0.961 . S
C1942 H1956 0.961 . S
C1943 C1940 1.539 . S
C1943 H1957 0.958 . S
C1943 H1958 1.003 . S
C1943 H1959 0.960 . S
H1944 C1928 0.931 . S
H1945 C1933 0.929 . S
H1946 C1934 0.960 . S
H1947 C1934 0.962 . S
H1948 C1934 0.960 . S
H1949 C1935 0.961 . S
H1950 C1935 0.961 . S
H1951 C1935 0.961 . S
H1952 C1936 0.931 . S
H1953 C1941 0.930 . S
H1954 C1942 0.956 . S
H1955 C1942 0.961 . S
H1956 C1942 0.961 . S
H1957 C1943 0.958 . S
H1958 C1943 1.003 . S
H1959 C1943 0.960 . S
C1960 C1961 1.391 . S
C1960 C1962 1.394 . S
C1960 H1976 0.931 . S
C1961 C1960 1.391 . S
C1961 C1965 1.376 1_556 S
C1962 C1960 1.394 . S
C1962 C1963 1.369 . S
C1962 C1966 1.531 . S
C1963 C1962 1.369 . S
C1963 C1964 1.410 1_556 S
C1963 C1971 1.503 . S
C1964 C1963 1.410 1_554 S
C1964 C1965 1.392 . S
C1964 C1967 1.511 . S
C1965 C1961 1.376 1_554 S
C1965 C1964 1.392 . S
C1965 H1977 0.929 . S
C1966 C1962 1.531 . S
C1966 H1978 0.960 . S
C1966 H1979 0.962 . S
C1966 H1980 0.960 . S
C1967 C1964 1.511 . S
C1967 H1981 0.961 . S
C1967 H1982 0.961 . S
C1967 H1983 0.961 1_554 S
C1968 C1969 1.370 1_554 S
C1968 C1970 1.363 . S
C1968 H1984 0.931 . S
C1969 C1968 1.370 1_556 S
C1969 C1973 1.408 . S
C1970 C1968 1.363 . S
C1970 C1971 1.370 1_554 S
C1970 C1974 1.524 . S
C1971 C1963 1.503 . S
C1971 C1970 1.370 1_556 S
C1971 C1972 1.403 . S
C1972 C1971 1.403 . S
C1972 C1973 1.404 . S
C1972 C1975 1.539 . S
C1973 C1969 1.408 . S
C1973 C1972 1.404 . S
C1973 H1985 0.930 . S
C1974 C1970 1.524 . S
C1974 H1986 0.956 . S
C1974 H1987 0.961 . S
C1974 H1988 0.961 . S
C1975 C1972 1.539 . S
C1975 H1989 0.958 . S
C1975 H1990 0.961 . S
C1975 H1991 0.960 . S
H1976 C1960 0.931 . S
H1977 C1965 0.929 . S
H1978 C1966 0.960 . S
H1979 C1966 0.962 . S
H1980 C1966 0.960 . S
H1981 C1967 0.961 . S
H1982 C1967 0.961 . S
H1983 C1967 0.961 1_556 S
H1984 C1968 0.931 . S
H1985 C1973 0.930 . S
H1986 C1974 0.956 . S
H1987 C1974 0.961 . S
H1988 C1974 0.961 . S
H1989 C1975 0.958 . S
H1990 C1975 0.961 . S
H1991 C1975 0.960 . S
C1992 C1993 1.391 . S
C1992 C1994 1.394 . S
C1992 H2008 0.931 . S
C1993 C1992 1.391 . S
C1993 C1997 1.376 . S
C1994 C1992 1.394 . S
C1994 C1995 1.369 . S
C1994 C1998 1.531 . S
C1995 C1994 1.369 . S
C1995 C1996 1.410 . S
C1995 C2003 1.503 . S
C1996 C1995 1.410 . S
C1996 C1997 1.392 . S
C1996 C1999 1.511 . S
C1997 C1993 1.376 . S
C1997 C1996 1.392 . S
C1997 H2009 0.929 . S
C1998 C1994 1.531 . S
C1998 H2010 0.960 . S
C1998 H2011 0.962 . S
C1998 H2012 0.960 . S
C1999 C1996 1.511 . S
C1999 H2013 0.961 . S
C1999 H2014 0.961 . S
C1999 H2015 0.961 . S
C2000 C2001 1.370 . S
C2000 C2002 1.363 . S
C2000 H2016 0.931 . S
C2001 C2000 1.370 . S
C2001 C2005 1.408 . S
C2002 C2000 1.363 . S
C2002 C2003 1.370 . S
C2002 C2006 1.524 . S
C2003 C1995 1.503 . S
C2003 C2002 1.370 . S
C2003 C2004 1.403 . S
C2004 C2003 1.403 . S
C2004 C2005 1.404 . S
C2004 C2007 1.539 . S
C2005 C2001 1.408 . S
C2005 C2004 1.404 . S
C2005 H2017 0.930 . S
C2006 C2002 1.524 . S
C2006 H2018 0.956 . S
C2006 H2019 0.961 . S
C2006 H2020 0.961 . S
C2007 C2004 1.539 . S
C2007 H2021 0.958 . S
C2007 H2022 0.961 . S
C2007 H2023 0.960 . S
H2008 C1992 0.931 . S
H2009 C1997 0.929 . S
H2010 C1998 0.960 . S
H2011 C1998 0.962 . S
H2012 C1998 0.960 . S
H2013 C1999 0.961 . S
H2014 C1999 0.961 . S
H2015 C1999 0.961 . S
H2016 C2000 0.931 . S
H2017 C2005 0.930 . S
H2018 C2006 0.956 . S
H2019 C2006 0.961 . S
H2020 C2006 0.961 . S
H2021 C2007 0.958 . S
H2022 C2007 0.961 . S
H2023 C2007 0.960 . S
C2024 C2025 1.391 . S
C2024 C2026 1.394 . S
C2024 H2040 0.931 . S
C2025 C2024 1.391 . S
C2025 C2029 1.376 . S
C2026 C2024 1.394 . S
C2026 C2027 1.369 . S
C2026 C2030 1.531 . S
C2027 C2026 1.369 . S
C2027 C2028 1.410 . S
C2027 C2035 1.503 . S
C2028 C2027 1.410 . S
C2028 C2029 1.392 . S
C2028 C2031 1.511 . S
C2029 C2025 1.376 . S
C2029 C2028 1.392 . S
C2029 H2041 0.929 . S
C2030 C2026 1.531 . S
C2030 H2042 0.960 . S
C2030 H2043 0.962 . S
C2030 H2044 0.960 . S
C2031 C2028 1.511 . S
C2031 H2045 0.961 . S
C2031 H2046 0.961 . S
C2031 H2047 0.961 . S
C2032 C2033 1.370 . S
C2032 C2034 1.363 . S
C2032 H2048 0.931 . S
C2033 C2032 1.370 . S
C2033 C2037 1.408 . S
C2034 C2032 1.363 . S
C2034 C2035 1.370 . S
C2034 C2038 1.524 . S
C2035 C2027 1.503 . S
C2035 C2034 1.370 . S
C2035 C2036 1.403 . S
C2036 C2035 1.403 . S
C2036 C2037 1.404 . S
C2036 C2039 1.539 . S
C2037 C2033 1.408 . S
C2037 C2036 1.404 . S
C2037 H2049 0.930 . S
C2038 C2034 1.524 . S
C2038 H2050 0.956 . S
C2038 H2051 0.961 . S
C2038 H2052 0.961 . S
C2039 C2036 1.539 . S
C2039 H2053 0.958 . S
C2039 H2054 0.961 . S
C2039 H2055 0.960 . S
H2040 C2024 0.931 . S
H2041 C2029 0.929 . S
H2042 C2030 0.960 . S
H2043 C2030 0.962 . S
H2044 C2030 0.960 . S
H2045 C2031 0.961 . S
H2046 C2031 0.961 . S
H2047 C2031 0.961 . S
H2048 C2032 0.931 . S
H2049 C2037 0.930 . S
H2050 C2038 0.956 . S
H2051 C2038 0.961 . S
H2052 C2038 0.961 . S
H2053 C2039 0.958 . S
H2054 C2039 0.961 . S
H2055 C2039 0.960 . S
C2056 C2057 1.391 . S
C2056 C2058 1.394 . S
C2056 H2072 0.931 . S
C2057 C2056 1.391 . S
C2057 C2061 1.376 . S
C2058 C2056 1.394 . S
C2058 C2059 1.369 . S
C2058 C2062 1.531 . S
C2059 C2058 1.369 . S
C2059 C2060 1.410 . S
C2059 C2067 1.503 . S
C2060 C2059 1.410 . S
C2060 C2061 1.392 . S
C2060 C2063 1.511 . S
C2061 C2057 1.376 . S
C2061 C2060 1.392 . S
C2061 H2073 0.929 . S
C2062 C2058 1.531 . S
C2062 H2074 0.960 . S
C2062 H2075 0.962 . S
C2062 H2076 0.960 . S
C2063 C2060 1.511 . S
C2063 H2077 0.961 . S
C2063 H2078 0.961 . S
C2063 H2079 0.961 . S
C2064 C2065 1.370 . S
C2064 C2066 1.363 . S
C2064 H2080 0.931 . S
C2065 C2064 1.370 . S
C2065 C2069 1.408 . S
C2066 C2064 1.363 . S
C2066 C2067 1.370 . S
C2066 C2070 1.524 . S
C2067 C2059 1.503 . S
C2067 C2066 1.370 . S
C2067 C2068 1.403 . S
C2068 C2067 1.403 . S
C2068 C2069 1.404 . S
C2068 C2071 1.539 . S
C2069 C2065 1.408 . S
C2069 C2068 1.404 . S
C2069 H2081 0.930 . S
C2070 C2066 1.524 . S
C2070 H2082 0.956 . S
C2070 H2083 0.961 . S
C2070 H2084 0.961 . S
C2071 C2068 1.539 . S
C2071 H2085 0.958 . S
C2071 H2086 0.961 . S
C2071 H2087 0.960 . S
H2072 C2056 0.931 . S
H2073 C2061 0.929 . S
H2074 C2062 0.960 . S
H2075 C2062 0.962 . S
H2076 C2062 0.960 . S
H2077 C2063 0.961 . S
H2078 C2063 0.961 . S
H2079 C2063 0.961 . S
H2080 C2064 0.931 . S
H2081 C2069 0.930 . S
H2082 C2070 0.956 . S
H2083 C2070 0.961 . S
H2084 C2070 0.961 . S
H2085 C2071 0.958 . S
H2086 C2071 0.961 . S
H2087 C2071 0.960 . S
C2088 C2089 1.391 . S
C2088 C2090 1.394 . S
C2088 H2104 0.931 . S
C2089 C2088 1.391 . S
C2089 C2093 1.376 . S
C2090 C2088 1.394 . S
C2090 C2091 1.369 . S
C2090 C2094 1.531 . S
C2091 C2090 1.369 . S
C2091 C2092 1.410 . S
C2091 C2099 1.503 . S
C2092 C2091 1.410 . S
C2092 C2093 1.392 . S
C2092 C2095 1.511 . S
C2093 C2089 1.376 . S
C2093 C2092 1.392 . S
C2093 H2105 0.929 . S
C2094 C2090 1.531 . S
C2094 H2106 0.960 . S
C2094 H2107 0.962 . S
C2094 H2108 0.960 . S
C2095 C2092 1.511 . S
C2095 H2109 0.961 . S
C2095 H2110 0.961 . S
C2095 H2111 0.961 . S
C2096 C2097 1.370 . S
C2096 C2098 1.363 . S
C2096 H2112 0.931 . S
C2097 C2096 1.370 . S
C2097 C2101 1.408 . S
C2098 C2096 1.363 . S
C2098 C2099 1.370 . S
C2098 C2102 1.524 . S
C2099 C2091 1.503 . S
C2099 C2098 1.370 . S
C2099 C2100 1.403 . S
C2100 C2099 1.403 . S
C2100 C2101 1.404 . S
C2100 C2103 1.539 . S
C2101 C2097 1.408 . S
C2101 C2100 1.404 . S
C2101 H2113 0.930 . S
C2102 C2098 1.524 . S
C2102 H2114 0.956 . S
C2102 H2115 0.961 . S
C2102 H2116 0.961 . S
C2103 C2100 1.539 . S
C2103 H2117 0.958 . S
C2103 H2118 0.961 . S
C2103 H2119 0.960 . S
H2104 C2088 0.931 . S
H2105 C2093 0.929 . S
H2106 C2094 0.960 . S
H2107 C2094 0.962 . S
H2108 C2094 0.960 . S
H2109 C2095 0.961 . S
H2110 C2095 0.961 . S
H2111 C2095 0.961 . S
H2112 C2096 0.931 . S
H2113 C2101 0.930 . S
H2114 C2102 0.956 . S
H2115 C2102 0.961 . S
H2116 C2102 0.961 . S
H2117 C2103 0.958 . S
H2118 C2103 0.961 . S
H2119 C2103 0.960 . S
C2120 C2121 1.391 . S
C2120 C2122 1.394 . S
C2120 H2136 0.931 . S
C2121 C2120 1.391 . S
C2121 C2125 1.376 . S
C2122 C2120 1.394 . S
C2122 C2123 1.369 . S
C2122 C2126 1.531 . S
C2123 C2122 1.369 . S
C2123 C2124 1.410 . S
C2123 C2131 1.503 . S
C2124 C2123 1.410 . S
C2124 C2125 1.392 . S
C2124 C2127 1.511 . S
C2125 C2121 1.376 . S
C2125 C2124 1.392 . S
C2125 H2137 0.929 . S
C2126 C2122 1.531 . S
C2126 H2138 0.960 . S
C2126 H2139 0.962 . S
C2126 H2140 0.960 . S
C2127 C2124 1.511 . S
C2127 H2141 0.961 . S
C2127 H2142 0.961 . S
C2127 H2143 0.961 . S
C2128 C2129 1.370 . S
C2128 C2130 1.363 . S
C2128 H2144 0.931 . S
C2129 C2128 1.370 . S
C2129 C2133 1.408 . S
C2130 C2128 1.363 . S
C2130 C2131 1.370 . S
C2130 C2134 1.524 . S
C2131 C2123 1.503 . S
C2131 C2130 1.370 . S
C2131 C2132 1.403 . S
C2132 C2131 1.403 . S
C2132 C2133 1.404 . S
C2132 C2135 1.539 . S
C2133 C2129 1.408 . S
C2133 C2132 1.404 . S
C2133 H2145 0.930 . S
C2134 C2130 1.524 . S
C2134 H2146 0.956 . S
C2134 H2147 0.961 . S
C2134 H2148 0.961 . S
C2135 C2132 1.539 . S
C2135 H2149 0.958 . S
C2135 H2150 0.961 . S
C2135 H2151 0.960 . S
H2136 C2120 0.931 . S
H2137 C2125 0.929 . S
H2138 C2126 0.960 . S
H2139 C2126 0.962 . S
H2140 C2126 0.960 . S
H2141 C2127 0.961 . S
H2142 C2127 0.961 . S
H2143 C2127 0.961 . S
H2144 C2128 0.931 . S
H2145 C2133 0.930 . S
H2146 C2134 0.956 . S
H2147 C2134 0.961 . S
H2148 C2134 0.961 . S
H2149 C2135 0.958 . S
H2150 C2135 0.961 . S
H2151 C2135 0.960 . S
C2152 C2153 1.391 . S
C2152 C2154 1.394 . S
C2152 H2168 0.931 . S
C2153 C2152 1.391 . S
C2153 C2157 1.376 . S
C2154 C2152 1.394 . S
C2154 C2155 1.369 . S
C2154 C2158 1.531 . S
C2155 C2154 1.369 . S
C2155 C2156 1.410 . S
C2155 C2163 1.503 . S
C2156 C2155 1.410 . S
C2156 C2157 1.392 . S
C2156 C2159 1.511 . S
C2157 C2153 1.376 . S
C2157 C2156 1.392 . S
C2157 H2169 0.929 . S
C2158 C2154 1.531 . S
C2158 H2170 0.960 . S
C2158 H2171 0.962 . S
C2158 H2172 0.960 . S
C2159 C2156 1.511 . S
C2159 H2173 0.961 . S
C2159 H2174 0.961 . S
C2159 H2175 0.961 . S
C2160 C2161 1.370 . S
C2160 C2162 1.363 . S
C2160 H2176 0.931 . S
C2161 C2160 1.370 . S
C2161 C2165 1.408 . S
C2162 C2160 1.363 . S
C2162 C2163 1.370 . S
C2162 C2166 1.524 . S
C2163 C2155 1.503 . S
C2163 C2162 1.370 . S
C2163 C2164 1.403 . S
C2164 C2163 1.403 . S
C2164 C2165 1.404 . S
C2164 C2167 1.539 . S
C2165 C2161 1.408 . S
C2165 C2164 1.404 . S
C2165 H2177 0.930 . S
C2166 C2162 1.524 . S
C2166 H2178 0.956 . S
C2166 H2179 0.961 . S
C2166 H2180 0.961 . S
C2167 C2164 1.539 . S
C2167 H2181 0.958 . S
C2167 H2182 0.961 . S
C2167 H2183 0.960 . S
H2168 C2152 0.931 . S
H2169 C2157 0.929 . S
H2170 C2158 0.960 . S
H2171 C2158 0.962 . S
H2172 C2158 0.960 . S
H2173 C2159 0.961 . S
H2174 C2159 0.961 . S
H2175 C2159 0.961 . S
H2176 C2160 0.931 . S
H2177 C2165 0.930 . S
H2178 C2166 0.956 . S
H2179 C2166 0.961 . S
H2180 C2166 0.961 . S
H2181 C2167 0.958 . S
H2182 C2167 0.961 . S
H2183 C2167 0.960 . S
C2184 C2185 1.391 . S
C2184 C2186 1.394 . S
C2184 H2200 0.931 . S
C2185 C2184 1.391 . S
C2185 C2189 1.376 . S
C2186 C2184 1.394 . S
C2186 C2187 1.369 . S
C2186 C2190 1.531 . S
C2187 C2186 1.369 . S
C2187 C2188 1.410 . S
C2187 C2195 1.503 . S
C2188 C2187 1.410 . S
C2188 C2189 1.392 . S
C2188 C2191 1.511 . S
C2189 C2185 1.376 . S
C2189 C2188 1.392 . S
C2189 H2201 0.929 . S
C2190 C2186 1.531 . S
C2190 H2202 0.960 . S
C2190 H2203 0.962 . S
C2190 H2204 0.960 . S
C2191 C2188 1.511 . S
C2191 H2205 0.961 . S
C2191 H2206 0.961 . S
C2191 H2207 0.961 . S
C2192 C2193 1.370 . S
C2192 C2194 1.363 . S
C2192 H2208 0.931 . S
C2193 C2192 1.370 . S
C2193 C2197 1.408 . S
C2194 C2192 1.363 . S
C2194 C2195 1.370 . S
C2194 C2198 1.524 . S
C2195 C2187 1.503 . S
C2195 C2194 1.370 . S
C2195 C2196 1.403 . S
C2196 C2195 1.403 . S
C2196 C2197 1.404 . S
C2196 C2199 1.539 . S
C2197 C2193 1.408 . S
C2197 C2196 1.404 . S
C2197 H2209 0.930 . S
C2198 C2194 1.524 . S
C2198 H2210 0.956 . S
C2198 H2211 0.961 . S
C2198 H2212 0.961 . S
C2199 C2196 1.539 . S
C2199 H2213 0.958 . S
C2199 H2214 0.961 . S
C2199 H2215 0.960 . S
H2200 C2184 0.931 . S
H2201 C2189 0.929 . S
H2202 C2190 0.960 . S
H2203 C2190 0.962 . S
H2204 C2190 0.960 . S
H2205 C2191 0.961 . S
H2206 C2191 0.961 . S
H2207 C2191 0.961 . S
H2208 C2192 0.931 . S
H2209 C2197 0.930 . S
H2210 C2198 0.956 . S
H2211 C2198 0.961 . S
H2212 C2198 0.961 . S
H2213 C2199 0.958 . S
H2214 C2199 0.961 . S
H2215 C2199 0.960 . S
C2216 C2217 1.391 . S
C2216 C2218 1.394 . S
C2216 H2232 0.931 . S
C2217 C2216 1.391 . S
C2217 C2221 1.376 . S
C2218 C2216 1.394 . S
C2218 C2219 1.369 . S
C2218 C2222 1.531 . S
C2219 C2218 1.369 . S
C2219 C2220 1.410 . S
C2219 C2227 1.503 . S
C2220 C2219 1.410 . S
C2220 C2221 1.392 . S
C2220 C2223 1.511 . S
C2221 C2217 1.376 . S
C2221 C2220 1.392 . S
C2221 H2233 0.929 . S
C2222 C2218 1.531 . S
C2222 H2234 0.960 . S
C2222 H2235 0.962 . S
C2222 H2236 0.960 . S
C2223 C2220 1.511 . S
C2223 H2237 0.961 . S
C2223 H2238 0.961 . S
C2223 H2239 0.961 . S
C2224 C2225 1.370 . S
C2224 C2226 1.363 . S
C2224 H2240 0.931 . S
C2225 C2224 1.370 . S
C2225 C2229 1.408 . S
C2226 C2224 1.363 . S
C2226 C2227 1.370 . S
C2226 C2230 1.524 . S
C2227 C2219 1.503 . S
C2227 C2226 1.370 . S
C2227 C2228 1.403 . S
C2228 C2227 1.403 . S
C2228 C2229 1.404 . S
C2228 C2231 1.539 . S
C2229 C2225 1.408 . S
C2229 C2228 1.404 . S
C2229 H2241 0.930 . S
C2230 C2226 1.524 . S
C2230 H2242 0.956 . S
C2230 H2243 0.961 . S
C2230 H2244 0.961 . S
C2231 C2228 1.539 . S
C2231 H2245 0.958 . S
C2231 H2246 0.961 . S
C2231 H2247 0.960 . S
H2232 C2216 0.931 . S
H2233 C2221 0.929 . S
H2234 C2222 0.960 . S
H2235 C2222 0.962 . S
H2236 C2222 0.960 . S
H2237 C2223 0.961 . S
H2238 C2223 0.961 . S
H2239 C2223 0.961 . S
H2240 C2224 0.931 . S
H2241 C2229 0.930 . S
H2242 C2230 0.956 . S
H2243 C2230 0.961 . S
H2244 C2230 0.961 . S
H2245 C2231 0.958 . S
H2246 C2231 0.961 . S
H2247 C2231 0.960 . S
C2248 C2249 1.391 . S
C2248 C2250 1.394 . S
C2248 H2264 0.931 . S
C2249 C2248 1.391 . S
C2249 C2253 1.376 1_455 S
C2250 C2248 1.394 . S
C2250 C2251 1.369 1_455 S
C2250 C2254 1.531 . S
C2251 C2250 1.369 1_655 S
C2251 C2252 1.410 . S
C2251 C2259 1.503 1_655 S
C2252 C2251 1.410 . S
C2252 C2253 1.392 . S
C2252 C2255 1.511 . S
C2253 C2249 1.376 1_655 S
C2253 C2252 1.392 . S
C2253 H2265 0.929 . S
C2254 C2250 1.531 . S
C2254 H2266 0.960 1_455 S
C2254 H2267 0.962 . S
C2254 H2268 0.960 1_455 S
C2255 C2252 1.511 . S
C2255 H2269 0.971 . S
C2255 H2270 0.961 1_655 S
C2255 H2271 0.961 . S
C2256 C2257 1.370 . S
C2256 C2258 1.363 . S
C2256 H2272 0.931 . S
C2257 C2256 1.370 . S
C2257 C2261 1.408 1_455 S
C2258 C2256 1.363 . S
C2258 C2259 1.370 . S
C2258 C2262 1.524 . S
C2259 C2251 1.503 1_455 S
C2259 C2258 1.370 . S
C2259 C2260 1.403 1_455 S
C2260 C2259 1.403 1_655 S
C2260 C2261 1.404 . S
C2260 C2263 1.539 . S
C2261 C2257 1.408 1_655 S
C2261 C2260 1.404 . S
C2261 H2273 0.930 . S
C2262 C2258 1.524 . S
C2262 H2274 0.956 . S
C2262 H2275 0.961 . S
C2262 H2276 0.961 . S
C2263 C2260 1.539 . S
C2263 H2277 0.958 . S
C2263 H2278 0.961 . S
C2263 H2279 0.960 . S
H2264 C2248 0.931 . S
H2265 C2253 0.929 . S
H2266 C2254 0.960 1_655 S
H2267 C2254 0.962 . S
H2268 C2254 0.960 1_655 S
H2269 C2255 0.971 . S
H2270 C2255 0.961 1_455 S
H2271 C2255 0.961 . S
H2272 C2256 0.931 . S
H2273 C2261 0.930 . S
H2274 C2262 0.956 . S
H2275 C2262 0.961 . S
H2276 C2262 0.961 . S
H2277 C2263 0.958 . S
H2278 C2263 0.961 . S
H2279 C2263 0.960 . S
C2280 C2281 1.391 . S
C2280 C2282 1.394 . S
C2280 H2296 0.931 . S
C2281 C2280 1.391 . S
C2281 C2285 1.376 . S
C2282 C2280 1.394 . S
C2282 C2283 1.369 . S
C2282 C2286 1.531 . S
C2283 C2282 1.369 . S
C2283 C2284 1.410 . S
C2283 C2291 1.503 . S
C2284 C2283 1.410 . S
C2284 C2285 1.392 . S
C2284 C2287 1.511 . S
C2285 C2281 1.376 . S
C2285 C2284 1.392 . S
C2285 H2297 0.929 . S
C2286 C2282 1.531 . S
C2286 H2298 0.960 . S
C2286 H2299 0.962 . S
C2286 H2300 0.960 . S
C2287 C2284 1.511 . S
C2287 H2301 0.961 . S
C2287 H2302 0.961 . S
C2287 H2303 0.961 . S
C2288 C2289 1.370 . S
C2288 C2290 1.363 . S
C2288 H2304 0.931 . S
C2289 C2288 1.370 . S
C2289 C2293 1.408 . S
C2290 C2288 1.363 . S
C2290 C2291 1.370 . S
C2290 C2294 1.524 . S
C2291 C2283 1.503 . S
C2291 C2290 1.370 . S
C2291 C2292 1.403 . S
C2292 C2291 1.403 . S
C2292 C2293 1.404 . S
C2292 C2295 1.539 . S
C2293 C2289 1.408 . S
C2293 C2292 1.404 . S
C2293 H2305 0.930 . S
C2294 C2290 1.524 . S
C2294 H2306 0.956 . S
C2294 H2307 0.961 . S
C2294 H2308 0.961 . S
C2295 C2292 1.539 . S
C2295 H2309 0.958 . S
C2295 H2310 0.961 . S
C2295 H2311 0.960 . S
H2296 C2280 0.931 . S
H2297 C2285 0.929 . S
H2298 C2286 0.960 . S
H2299 C2286 0.962 . S
H2300 C2286 0.960 . S
H2301 C2287 0.961 . S
H2302 C2287 0.961 . S
H2303 C2287 0.961 . S
H2304 C2288 0.931 . S
H2305 C2293 0.930 . S
H2306 C2294 0.956 . S
H2307 C2294 0.961 . S
H2308 C2294 0.961 . S
H2309 C2295 0.958 . S
H2310 C2295 0.961 . S
H2311 C2295 0.960 . S
C2312 C2313 1.391 . S
C2312 C2314 1.394 . S
C2312 H2328 0.931 . S
C2313 C2312 1.391 . S
C2313 C2317 1.376 . S
C2314 C2312 1.394 . S
C2314 C2315 1.369 . S
C2314 C2318 1.531 . S
C2315 C2314 1.369 . S
C2315 C2316 1.410 . S
C2315 C2323 1.503 . S
C2316 C2315 1.410 . S
C2316 C2317 1.392 . S
C2316 C2319 1.511 . S
C2317 C2313 1.376 . S
C2317 C2316 1.392 . S
C2317 H2329 0.929 . S
C2318 C2314 1.531 . S
C2318 H2330 0.960 . S
C2318 H2331 0.962 . S
C2318 H2332 0.960 . S
C2319 C2316 1.511 . S
C2319 H2333 0.961 . S
C2319 H2334 0.961 . S
C2319 H2335 0.961 . S
C2320 C2321 1.370 . S
C2320 C2322 1.363 . S
C2320 H2336 0.931 . S
C2321 C2320 1.370 . S
C2321 C2325 1.408 . S
C2322 C2320 1.363 . S
C2322 C2323 1.370 . S
C2322 C2326 1.524 . S
C2323 C2315 1.503 . S
C2323 C2322 1.370 . S
C2323 C2324 1.403 . S
C2324 C2323 1.403 . S
C2324 C2325 1.404 . S
C2324 C2327 1.539 . S
C2325 C2321 1.408 . S
C2325 C2324 1.404 . S
C2325 H2337 0.930 . S
C2326 C2322 1.524 . S
C2326 H2338 0.956 . S
C2326 H2339 0.961 . S
C2326 H2340 0.961 . S
C2327 C2324 1.539 . S
C2327 H2341 0.958 . S
C2327 H2342 0.961 . S
C2327 H2343 0.960 . S
H2328 C2312 0.931 . S
H2329 C2317 0.929 . S
H2330 C2318 0.960 . S
H2331 C2318 0.962 . S
H2332 C2318 0.960 . S
H2333 C2319 0.961 . S
H2334 C2319 0.961 . S
H2335 C2319 0.961 . S
H2336 C2320 0.931 . S
H2337 C2325 0.930 . S
H2338 C2326 0.956 . S
H2339 C2326 0.961 . S
H2340 C2326 0.961 . S
H2341 C2327 0.958 . S
H2342 C2327 0.961 . S
H2343 C2327 0.960 . S
C2344 C2345 1.391 . S
C2344 C2346 1.394 . S
C2344 H2360 0.931 . S
C2345 C2344 1.391 . S
C2345 C2349 1.376 . S
C2346 C2344 1.394 . S
C2346 C2347 1.369 . S
C2346 C2350 1.531 . S
C2347 C2346 1.369 . S
C2347 C2348 1.410 . S
C2347 C2355 1.503 . S
C2348 C2347 1.410 . S
C2348 C2349 1.392 . S
C2348 C2351 1.511 . S
C2349 C2345 1.376 . S
C2349 C2348 1.392 . S
C2349 H2361 0.929 . S
C2350 C2346 1.531 . S
C2350 H2362 0.960 . S
C2350 H2363 0.962 . S
C2350 H2364 0.960 . S
C2351 C2348 1.511 . S
C2351 H2365 0.961 . S
C2351 H2366 0.961 . S
C2351 H2367 0.961 . S
C2352 C2353 1.370 . S
C2352 C2354 1.363 . S
C2352 H2368 0.931 . S
C2353 C2352 1.370 . S
C2353 C2357 1.408 . S
C2354 C2352 1.363 . S
C2354 C2355 1.370 . S
C2354 C2358 1.524 . S
C2355 C2347 1.503 . S
C2355 C2354 1.370 . S
C2355 C2356 1.403 . S
C2356 C2355 1.403 . S
C2356 C2357 1.404 . S
C2356 C2359 1.539 . S
C2357 C2353 1.408 . S
C2357 C2356 1.404 . S
C2357 H2369 0.930 . S
C2358 C2354 1.524 . S
C2358 H2370 0.956 . S
C2358 H2371 0.961 . S
C2358 H2372 0.961 . S
C2359 C2356 1.539 . S
C2359 H2373 0.958 . S
C2359 H2374 0.961 . S
C2359 H2375 0.960 . S
H2360 C2344 0.931 . S
H2361 C2349 0.929 . S
H2362 C2350 0.960 . S
H2363 C2350 0.962 . S
H2364 C2350 0.960 . S
H2365 C2351 0.961 . S
H2366 C2351 0.961 . S
H2367 C2351 0.961 . S
H2368 C2352 0.931 . S
H2369 C2357 0.930 . S
H2370 C2358 0.956 . S
H2371 C2358 0.961 . S
H2372 C2358 0.961 . S
H2373 C2359 0.958 . S
H2374 C2359 0.961 . S
H2375 C2359 0.960 . S
C2376 C2377 1.391 . S
C2376 C2378 1.394 . S
C2376 H2392 0.931 . S
C2377 C2376 1.391 . S
C2377 C2381 1.376 1_455 S
C2378 C2376 1.394 . S
C2378 C2379 1.369 . S
C2378 C2382 1.531 . S
C2379 C2378 1.369 . S
C2379 C2380 1.410 1_455 S
C2379 C2387 1.503 . S
C2380 C2379 1.410 1_655 S
C2380 C2381 1.392 . S
C2380 C2383 1.511 . S
C2381 C2377 1.376 1_655 S
C2381 C2380 1.392 . S
C2381 H2393 0.929 . S
C2382 C2378 1.531 . S
C2382 H2394 0.960 . S
C2382 H2395 0.962 . S
C2382 H2396 0.960 . S
C2383 C2380 1.511 . S
C2383 H2397 0.961 . S
C2383 H2398 0.961 . S
C2383 H2399 0.961 . S
C2384 C2385 1.370 . S
C2384 C2386 1.363 . S
C2384 H2400 0.931 . S
C2385 C2384 1.370 . S
C2385 C2389 1.408 . S
C2386 C2384 1.363 . S
C2386 C2387 1.370 . S
C2386 C2390 1.524 . S
C2387 C2379 1.503 . S
C2387 C2386 1.370 . S
C2387 C2388 1.403 . S
C2388 C2387 1.403 . S
C2388 C2389 1.404 . S
C2388 C2391 1.539 1_455 S
C2389 C2385 1.408 . S
C2389 C2388 1.404 . S
C2389 H2401 0.930 1_455 S
C2390 C2386 1.524 . S
C2390 H2402 0.956 . S
C2390 H2403 0.961 . S
C2390 H2404 0.961 . S
C2391 C2388 1.539 1_655 S
C2391 H2405 0.958 1_655 S
C2391 H2406 0.961 . S
C2391 H2407 0.960 . S
H2392 C2376 0.931 . S
H2393 C2381 0.929 . S
H2394 C2382 0.960 . S
H2395 C2382 0.962 . S
H2396 C2382 0.960 . S
H2397 C2383 0.961 . S
H2398 C2383 0.961 . S
H2399 C2383 0.961 . S
H2400 C2384 0.931 . S
H2401 C2389 0.930 1_655 S
H2402 C2390 0.956 . S
H2403 C2390 0.961 . S
H2404 C2390 0.961 . S
H2405 C2391 0.958 1_455 S
H2406 C2391 0.961 . S
H2407 C2391 0.960 . S
C2408 C2409 1.391 . S
C2408 C2410 1.394 . S
C2408 H2424 0.931 . S
C2409 C2408 1.391 . S
C2409 C2413 1.376 . S
C2410 C2408 1.394 . S
C2410 C2411 1.369 . S
C2410 C2414 1.531 . S
C2411 C2410 1.369 . S
C2411 C2412 1.410 . S
C2411 C2419 1.503 . S
C2412 C2411 1.410 . S
C2412 C2413 1.392 . S
C2412 C2415 1.511 . S
C2413 C2409 1.376 . S
C2413 C2412 1.392 . S
C2413 H2425 0.929 . S
C2414 C2410 1.531 . S
C2414 H2426 0.960 . S
C2414 H2427 0.962 . S
C2414 H2428 0.960 . S
C2415 C2412 1.511 . S
C2415 H2429 0.961 . S
C2415 H2430 0.961 . S
C2415 H2431 0.961 . S
C2416 C2417 1.370 . S
C2416 C2418 1.363 . S
C2416 H2432 0.931 . S
C2417 C2416 1.370 . S
C2417 C2421 1.408 . S
C2418 C2416 1.363 . S
C2418 C2419 1.370 . S
C2418 C2422 1.524 . S
C2419 C2411 1.503 . S
C2419 C2418 1.370 . S
C2419 C2420 1.403 . S
C2420 C2419 1.403 . S
C2420 C2421 1.404 . S
C2420 C2423 1.539 . S
C2421 C2417 1.408 . S
C2421 C2420 1.404 . S
C2421 H2433 0.930 . S
C2422 C2418 1.524 . S
C2422 H2434 0.956 . S
C2422 H2435 0.961 . S
C2422 H2436 0.961 . S
C2423 C2420 1.539 . S
C2423 H2437 0.958 . S
C2423 H2438 0.961 . S
C2423 H2439 0.960 . S
H2424 C2408 0.931 . S
H2425 C2413 0.929 . S
H2426 C2414 0.960 . S
H2427 C2414 0.962 . S
H2428 C2414 0.960 . S
H2429 C2415 0.961 . S
H2430 C2415 0.961 . S
H2431 C2415 0.961 . S
H2432 C2416 0.931 . S
H2433 C2421 0.930 . S
H2434 C2422 0.956 . S
H2435 C2422 0.961 . S
H2436 C2422 0.961 . S
H2437 C2423 0.958 . S
H2438 C2423 0.961 . S
H2439 C2423 0.960 . S
C2440 C2441 1.391 . S
C2440 C2442 1.394 . S
C2440 H2456 0.931 . S
C2441 C2440 1.391 . S
C2441 C2445 1.376 . S
C2442 C2440 1.394 . S
C2442 C2443 1.369 . S
C2442 C2446 1.531 . S
C2443 C2442 1.369 . S
C2443 C2444 1.410 . S
C2443 C2451 1.503 . S
C2444 C2443 1.410 . S
C2444 C2445 1.392 . S
C2444 C2447 1.511 . S
C2445 C2441 1.376 . S
C2445 C2444 1.392 . S
C2445 H2457 0.929 . S
C2446 C2442 1.531 . S
C2446 H2458 0.960 . S
C2446 H2459 0.962 . S
C2446 H2460 0.960 . S
C2447 C2444 1.511 . S
C2447 H2461 0.961 . S
C2447 H2462 0.961 . S
C2447 H2463 0.961 . S
C2448 C2449 1.370 . S
C2448 C2450 1.363 . S
C2448 H2464 0.931 . S
C2449 C2448 1.370 . S
C2449 C2453 1.408 . S
C2450 C2448 1.363 . S
C2450 C2451 1.370 . S
C2450 C2454 1.524 . S
C2451 C2443 1.503 . S
C2451 C2450 1.370 . S
C2451 C2452 1.403 . S
C2452 C2451 1.403 . S
C2452 C2453 1.404 . S
C2452 C2455 1.539 . S
C2453 C2449 1.408 . S
C2453 C2452 1.404 . S
C2453 H2465 0.930 . S
C2454 C2450 1.524 . S
C2454 H2466 0.956 . S
C2454 H2467 0.961 . S
C2454 H2468 0.961 . S
C2455 C2452 1.539 . S
C2455 H2469 0.958 . S
C2455 H2470 0.961 . S
C2455 H2471 0.960 . S
H2456 C2440 0.931 . S
H2457 C2445 0.929 . S
H2458 C2446 0.960 . S
H2459 C2446 0.962 . S
H2460 C2446 0.960 . S
H2461 C2447 0.961 . S
H2462 C2447 0.961 . S
H2463 C2447 0.961 . S
H2464 C2448 0.931 . S
H2465 C2453 0.930 . S
H2466 C2454 0.956 . S
H2467 C2454 0.961 . S
H2468 C2454 0.961 . S
H2469 C2455 0.958 . S
H2470 C2455 0.961 . S
H2471 C2455 0.960 . S
C2472 C2473 1.391 . S
C2472 C2474 1.394 . S
C2472 H2488 0.931 . S
C2473 C2472 1.391 . S
C2473 C2477 1.376 . S
C2474 C2472 1.394 . S
C2474 C2475 1.369 . S
C2474 C2478 1.531 . S
C2475 C2474 1.369 . S
C2475 C2476 1.410 . S
C2475 C2483 1.503 . S
C2476 C2475 1.410 . S
C2476 C2477 1.392 . S
C2476 C2479 1.511 . S
C2477 C2473 1.376 . S
C2477 C2476 1.392 . S
C2477 H2489 0.929 . S
C2478 C2474 1.531 . S
C2478 H2490 0.960 . S
C2478 H2491 0.962 . S
C2478 H2492 0.960 . S
C2479 C2476 1.511 . S
C2479 H2493 0.961 . S
C2479 H2494 0.961 . S
C2479 H2495 0.961 . S
C2480 C2481 1.370 . S
C2480 C2482 1.363 . S
C2480 H2496 0.931 . S
C2481 C2480 1.370 . S
C2481 C2485 1.408 . S
C2482 C2480 1.363 . S
C2482 C2483 1.370 . S
C2482 C2486 1.524 . S
C2483 C2475 1.503 . S
C2483 C2482 1.370 . S
C2483 C2484 1.403 . S
C2484 C2483 1.403 . S
C2484 C2485 1.404 . S
C2484 C2487 1.539 . S
C2485 C2481 1.408 . S
C2485 C2484 1.404 . S
C2485 H2497 0.930 . S
C2486 C2482 1.524 . S
C2486 H2498 0.956 . S
C2486 H2499 0.961 . S
C2486 H2500 0.961 . S
C2487 C2484 1.539 . S
C2487 H2501 0.958 . S
C2487 H2502 0.961 . S
C2487 H2503 0.960 . S
H2488 C2472 0.931 . S
H2489 C2477 0.929 . S
H2490 C2478 0.960 . S
H2491 C2478 0.962 . S
H2492 C2478 0.960 . S
H2493 C2479 0.961 . S
H2494 C2479 0.961 . S
H2495 C2479 0.961 . S
H2496 C2480 0.931 . S
H2497 C2485 0.930 . S
H2498 C2486 0.956 . S
H2499 C2486 0.961 . S
H2500 C2486 0.961 . S
H2501 C2487 0.958 . S
H2502 C2487 0.961 . S
H2503 C2487 0.960 . S
C2504 C2505 1.391 . S
C2504 C2506 1.394 . S
C2504 H2520 0.931 . S
C2505 C2504 1.391 . S
C2505 C2509 1.376 . S
C2506 C2504 1.394 . S
C2506 C2507 1.369 . S
C2506 C2510 1.531 . S
C2507 C2506 1.369 . S
C2507 C2508 1.410 . S
C2507 C2515 1.503 . S
C2508 C2507 1.410 . S
C2508 C2509 1.392 . S
C2508 C2511 1.511 . S
C2509 C2505 1.376 . S
C2509 C2508 1.392 . S
C2509 H2521 0.929 . S
C2510 C2506 1.531 . S
C2510 H2522 0.960 . S
C2510 H2523 0.962 . S
C2510 H2524 0.960 . S
C2511 C2508 1.511 . S
C2511 H2525 0.961 . S
C2511 H2526 0.961 . S
C2511 H2527 0.961 . S
C2512 C2513 1.370 . S
C2512 C2514 1.363 . S
C2512 H2528 0.931 . S
C2513 C2512 1.370 . S
C2513 C2517 1.408 . S
C2514 C2512 1.363 . S
C2514 C2515 1.370 . S
C2514 C2518 1.524 . S
C2515 C2507 1.503 . S
C2515 C2514 1.370 . S
C2515 C2516 1.403 . S
C2516 C2515 1.403 . S
C2516 C2517 1.404 . S
C2516 C2519 1.539 . S
C2517 C2513 1.408 . S
C2517 C2516 1.404 . S
C2517 H2529 0.930 . S
C2518 C2514 1.524 . S
C2518 H2530 0.956 . S
C2518 H2531 0.961 . S
C2518 H2532 0.961 . S
C2519 C2516 1.539 . S
C2519 H2533 0.958 . S
C2519 H2534 0.961 . S
C2519 H2535 0.960 . S
H2520 C2504 0.931 . S
H2521 C2509 0.929 . S
H2522 C2510 0.960 . S
H2523 C2510 0.962 . S
H2524 C2510 0.960 . S
H2525 C2511 0.961 . S
H2526 C2511 0.961 . S
H2527 C2511 0.961 . S
H2528 C2512 0.931 . S
H2529 C2517 0.930 . S
H2530 C2518 0.956 . S
H2531 C2518 0.961 . S
H2532 C2518 0.961 . S
H2533 C2519 0.958 . S
H2534 C2519 0.961 . S
H2535 C2519 0.960 . S
C2536 C2537 1.391 . S
C2536 C2538 1.394 . S
C2536 H2552 0.931 . S
C2537 C2536 1.391 . S
C2537 C2541 1.376 . S
C2538 C2536 1.394 . S
C2538 C2539 1.369 . S
C2538 C2542 1.531 . S
C2539 C2538 1.369 . S
C2539 C2540 1.410 . S
C2539 C2547 1.503 . S
C2540 C2539 1.410 . S
C2540 C2541 1.392 . S
C2540 C2543 1.511 . S
C2541 C2537 1.376 . S
C2541 C2540 1.392 . S
C2541 H2553 0.929 . S
C2542 C2538 1.531 . S
C2542 H2554 0.960 . S
C2542 H2555 0.962 . S
C2542 H2556 0.960 . S
C2543 C2540 1.511 . S
C2543 H2557 0.961 . S
C2543 H2558 0.961 . S
C2543 H2559 0.961 . S
C2544 C2545 1.370 . S
C2544 C2546 1.363 . S
C2544 H2560 0.931 . S
C2545 C2544 1.370 . S
C2545 C2549 1.408 . S
C2546 C2544 1.363 . S
C2546 C2547 1.370 . S
C2546 C2550 1.524 . S
C2547 C2539 1.503 . S
C2547 C2546 1.370 . S
C2547 C2548 1.403 . S
C2548 C2547 1.403 . S
C2548 C2549 1.404 . S
C2548 C2551 1.539 . S
C2549 C2545 1.408 . S
C2549 C2548 1.404 . S
C2549 H2561 0.930 . S
C2550 C2546 1.524 . S
C2550 H2562 0.956 . S
C2550 H2563 0.961 . S
C2550 H2564 0.961 . S
C2551 C2548 1.539 . S
C2551 H2565 0.958 . S
C2551 H2566 0.961 . S
C2551 H2567 0.960 . S
H2552 C2536 0.931 . S
H2553 C2541 0.929 . S
H2554 C2542 0.960 . S
H2555 C2542 0.962 . S
H2556 C2542 0.960 . S
H2557 C2543 0.961 . S
H2558 C2543 0.961 . S
H2559 C2543 0.961 . S
H2560 C2544 0.931 . S
H2561 C2549 0.930 . S
H2562 C2550 0.956 . S
H2563 C2550 0.961 . S
H2564 C2550 0.961 . S
H2565 C2551 0.958 . S
H2566 C2551 0.961 . S
H2567 C2551 0.960 . S
C2568 C2569 1.391 . S
C2568 C2570 1.394 . S
C2568 H2584 0.931 . S
C2569 C2568 1.391 . S
C2569 C2573 1.376 . S
C2570 C2568 1.394 . S
C2570 C2571 1.369 . S
C2570 C2574 1.531 . S
C2571 C2570 1.369 . S
C2571 C2572 1.410 . S
C2571 C2579 1.503 . S
C2572 C2571 1.410 . S
C2572 C2573 1.392 . S
C2572 C2575 1.511 . S
C2573 C2569 1.376 . S
C2573 C2572 1.392 . S
C2573 H2585 0.929 . S
C2574 C2570 1.531 . S
C2574 H2586 0.960 . S
C2574 H2587 0.962 . S
C2574 H2588 0.960 . S
C2575 C2572 1.511 . S
C2575 H2589 0.961 . S
C2575 H2590 0.961 . S
C2575 H2591 0.961 . S
C2576 C2577 1.370 . S
C2576 C2578 1.363 . S
C2576 H2592 0.931 . S
C2577 C2576 1.370 . S
C2577 C2581 1.408 . S
C2578 C2576 1.363 . S
C2578 C2579 1.370 . S
C2578 C2582 1.524 . S
C2579 C2571 1.503 . S
C2579 C2578 1.370 . S
C2579 C2580 1.403 . S
C2580 C2579 1.403 . S
C2580 C2581 1.404 . S
C2580 C2583 1.539 . S
C2581 C2577 1.408 . S
C2581 C2580 1.404 . S
C2581 H2593 0.930 . S
C2582 C2578 1.524 . S
C2582 H2594 0.956 . S
C2582 H2595 0.961 . S
C2582 H2596 0.961 . S
C2583 C2580 1.539 . S
C2583 H2597 0.958 . S
C2583 H2598 0.961 . S
C2583 H2599 0.960 . S
H2584 C2568 0.931 . S
H2585 C2573 0.929 . S
H2586 C2574 0.960 . S
H2587 C2574 0.962 . S
H2588 C2574 0.960 . S
H2589 C2575 0.961 . S
H2590 C2575 0.961 . S
H2591 C2575 0.961 . S
H2592 C2576 0.931 . S
H2593 C2581 0.930 . S
H2594 C2582 0.956 . S
H2595 C2582 0.961 . S
H2596 C2582 0.961 . S
H2597 C2583 0.958 . S
H2598 C2583 0.961 . S
H2599 C2583 0.960 . S
C2600 C2601 1.391 . S
C2600 C2602 1.394 . S
C2600 H2616 0.931 . S
C2601 C2600 1.391 . S
C2601 C2605 1.376 . S
C2602 C2600 1.394 . S
C2602 C2603 1.369 . S
C2602 C2606 1.531 . S
C2603 C2602 1.369 . S
C2603 C2604 1.410 . S
C2603 C2611 1.503 . S
C2604 C2603 1.410 . S
C2604 C2605 1.392 . S
C2604 C2607 1.511 . S
C2605 C2601 1.376 . S
C2605 C2604 1.392 . S
C2605 H2617 0.929 . S
C2606 C2602 1.531 . S
C2606 H2618 0.960 . S
C2606 H2619 0.962 . S
C2606 H2620 0.960 . S
C2607 C2604 1.511 . S
C2607 H2621 0.961 . S
C2607 H2622 0.961 . S
C2607 H2623 0.961 . S
C2608 C2609 1.370 . S
C2608 C2610 1.363 . S
C2608 H2624 0.931 . S
C2609 C2608 1.370 . S
C2609 C2613 1.408 . S
C2610 C2608 1.363 . S
C2610 C2611 1.370 . S
C2610 C2614 1.524 . S
C2611 C2603 1.503 . S
C2611 C2610 1.370 . S
C2611 C2612 1.403 . S
C2612 C2611 1.403 . S
C2612 C2613 1.404 . S
C2612 C2615 1.539 . S
C2613 C2609 1.408 . S
C2613 C2612 1.404 . S
C2613 H2625 0.930 . S
C2614 C2610 1.524 . S
C2614 H2626 0.956 . S
C2614 H2627 0.961 . S
C2614 H2628 0.961 . S
C2615 C2612 1.539 . S
C2615 H2629 0.958 . S
C2615 H2630 0.961 . S
C2615 H2631 0.960 . S
H2616 C2600 0.931 . S
H2617 C2605 0.929 . S
H2618 C2606 0.960 . S
H2619 C2606 0.962 . S
H2620 C2606 0.960 . S
H2621 C2607 0.961 . S
H2622 C2607 0.961 . S
H2623 C2607 0.961 . S
H2624 C2608 0.931 . S
H2625 C2613 0.930 . S
H2626 C2614 0.956 . S
H2627 C2614 0.961 . S
H2628 C2614 0.961 . S
H2629 C2615 0.958 . S
H2630 C2615 0.961 . S
H2631 C2615 0.960 . S
C2632 C2633 1.391 . S
C2632 C2634 1.394 . S
C2632 H2648 0.931 . S
C2633 C2632 1.391 . S
C2633 C2637 1.376 . S
C2634 C2632 1.394 . S
C2634 C2635 1.369 . S
C2634 C2638 1.531 . S
C2635 C2634 1.369 . S
C2635 C2636 1.410 . S
C2635 C2643 1.503 . S
C2636 C2635 1.410 . S
C2636 C2637 1.392 . S
C2636 C2639 1.511 . S
C2637 C2633 1.376 . S
C2637 C2636 1.392 . S
C2637 H2649 0.929 . S
C2638 C2634 1.531 . S
C2638 H2650 0.960 . S
C2638 H2651 0.962 . S
C2638 H2652 0.960 . S
C2639 C2636 1.511 . S
C2639 H2653 0.961 . S
C2639 H2654 0.961 . S
C2639 H2655 0.961 . S
C2640 C2641 1.370 . S
C2640 C2642 1.363 . S
C2640 H2656 0.931 . S
C2641 C2640 1.370 . S
C2641 C2645 1.408 . S
C2642 C2640 1.363 . S
C2642 C2643 1.370 . S
C2642 C2646 1.524 . S
C2643 C2635 1.503 . S
C2643 C2642 1.370 . S
C2643 C2644 1.403 . S
C2644 C2643 1.403 . S
C2644 C2645 1.404 . S
C2644 C2647 1.539 . S
C2645 C2641 1.408 . S
C2645 C2644 1.404 . S
C2645 H2657 0.930 . S
C2646 C2642 1.524 . S
C2646 H2658 0.956 . S
C2646 H2659 0.961 . S
C2646 H2660 0.961 . S
C2647 C2644 1.539 . S
C2647 H2661 0.958 . S
C2647 H2662 0.961 . S
C2647 H2663 0.960 . S
H2648 C2632 0.931 . S
H2649 C2637 0.929 . S
H2650 C2638 0.960 . S
H2651 C2638 0.962 . S
H2652 C2638 0.960 . S
H2653 C2639 0.961 . S
H2654 C2639 0.961 . S
H2655 C2639 0.961 . S
H2656 C2640 0.931 . S
H2657 C2645 0.930 . S
H2658 C2646 0.956 . S
H2659 C2646 0.961 . S
H2660 C2646 0.961 . S
H2661 C2647 0.958 . S
H2662 C2647 0.961 . S
H2663 C2647 0.960 . S
C2664 C2665 1.391 . S
C2664 C2666 1.394 . S
C2664 H2680 0.931 . S
C2665 C2664 1.391 . S
C2665 C2669 1.376 . S
C2666 C2664 1.394 . S
C2666 C2667 1.369 . S
C2666 C2670 1.531 . S
C2667 C2666 1.369 . S
C2667 C2668 1.410 . S
C2667 C2675 1.503 . S
C2668 C2667 1.410 . S
C2668 C2669 1.392 . S
C2668 C2671 1.511 . S
C2669 C2665 1.376 . S
C2669 C2668 1.392 . S
C2669 H2681 0.929 . S
C2670 C2666 1.531 . S
C2670 H2682 0.960 . S
C2670 H2683 0.962 . S
C2670 H2684 0.960 . S
C2671 C2668 1.511 . S
C2671 H2685 0.961 . S
C2671 H2686 0.961 . S
C2671 H2687 0.961 . S
C2672 C2673 1.370 . S
C2672 C2674 1.363 . S
C2672 H2688 0.931 . S
C2673 C2672 1.370 . S
C2673 C2677 1.408 . S
C2674 C2672 1.363 . S
C2674 C2675 1.370 . S
C2674 C2678 1.524 . S
C2675 C2667 1.503 . S
C2675 C2674 1.370 . S
C2675 C2676 1.403 . S
C2676 C2675 1.403 . S
C2676 C2677 1.404 . S
C2676 C2679 1.539 . S
C2677 C2673 1.408 . S
C2677 C2676 1.404 . S
C2677 H2689 0.930 . S
C2678 C2674 1.524 . S
C2678 H2690 0.956 . S
C2678 H2691 0.961 . S
C2678 H2692 0.961 . S
C2679 C2676 1.539 . S
C2679 H2693 0.958 . S
C2679 H2694 0.961 . S
C2679 H2695 0.960 . S
H2680 C2664 0.931 . S
H2681 C2669 0.929 . S
H2682 C2670 0.960 . S
H2683 C2670 0.962 . S
H2684 C2670 0.960 . S
H2685 C2671 0.961 . S
H2686 C2671 0.961 . S
H2687 C2671 0.961 . S
H2688 C2672 0.931 . S
H2689 C2677 0.930 . S
H2690 C2678 0.956 . S
H2691 C2678 0.961 . S
H2692 C2678 0.961 . S
H2693 C2679 0.958 . S
H2694 C2679 0.961 . S
H2695 C2679 0.960 . S
C2696 C2697 1.391 . S
C2696 C2698 1.394 . S
C2696 H2712 0.931 . S
C2697 C2696 1.391 . S
C2697 C2701 1.376 . S
C2698 C2696 1.394 . S
C2698 C2699 1.369 . S
C2698 C2702 1.531 . S
C2699 C2698 1.369 . S
C2699 C2700 1.410 . S
C2699 C2707 1.503 . S
C2700 C2699 1.410 . S
C2700 C2701 1.392 . S
C2700 C2703 1.511 . S
C2701 C2697 1.376 . S
C2701 C2700 1.392 . S
C2701 H2713 0.929 . S
C2702 C2698 1.531 . S
C2702 H2714 0.960 . S
C2702 H2715 0.962 . S
C2702 H2716 0.960 . S
C2703 C2700 1.511 . S
C2703 H2717 0.961 . S
C2703 H2718 0.961 . S
C2703 H2719 0.961 . S
C2704 C2705 1.370 . S
C2704 C2706 1.363 . S
C2704 H2720 0.931 . S
C2705 C2704 1.370 . S
C2705 C2709 1.408 . S
C2706 C2704 1.363 . S
C2706 C2707 1.370 . S
C2706 C2710 1.524 . S
C2707 C2699 1.503 . S
C2707 C2706 1.370 . S
C2707 C2708 1.403 . S
C2708 C2707 1.403 . S
C2708 C2709 1.404 . S
C2708 C2711 1.539 . S
C2709 C2705 1.408 . S
C2709 C2708 1.404 . S
C2709 H2721 0.930 . S
C2710 C2706 1.524 . S
C2710 H2722 0.956 . S
C2710 H2723 0.961 . S
C2710 H2724 0.961 . S
C2711 C2708 1.539 . S
C2711 H2725 0.958 . S
C2711 H2726 0.961 . S
C2711 H2727 0.960 . S
H2712 C2696 0.931 . S
H2713 C2701 0.929 . S
H2714 C2702 0.960 . S
H2715 C2702 0.962 . S
H2716 C2702 0.960 . S
H2717 C2703 0.961 . S
H2718 C2703 0.961 . S
H2719 C2703 0.961 . S
H2720 C2704 0.931 . S
H2721 C2709 0.930 . S
H2722 C2710 0.956 . S
H2723 C2710 0.961 . S
H2724 C2710 0.961 . S
H2725 C2711 0.958 . S
H2726 C2711 0.961 . S
H2727 C2711 0.960 . S
C2728 C2729 1.391 . S
C2728 C2730 1.394 . S
C2728 H2744 0.931 . S
C2729 C2728 1.391 . S
C2729 C2733 1.376 . S
C2730 C2728 1.394 . S
C2730 C2731 1.369 . S
C2730 C2734 1.531 . S
C2731 C2730 1.369 . S
C2731 C2732 1.410 . S
C2731 C2739 1.503 . S
C2732 C2731 1.410 . S
C2732 C2733 1.392 . S
C2732 C2735 1.511 . S
C2733 C2729 1.376 . S
C2733 C2732 1.392 . S
C2733 H2745 0.929 . S
C2734 C2730 1.531 . S
C2734 H2746 0.960 . S
C2734 H2747 0.962 . S
C2734 H2748 0.960 . S
C2735 C2732 1.511 . S
C2735 H2749 0.961 . S
C2735 H2750 0.961 . S
C2735 H2751 0.961 . S
C2736 C2737 1.370 . S
C2736 C2738 1.363 . S
C2736 H2752 0.957 . S
C2737 C2736 1.370 . S
C2737 C2741 1.408 . S
C2738 C2736 1.363 . S
C2738 C2739 1.370 . S
C2738 C2742 1.524 . S
C2739 C2731 1.503 . S
C2739 C2738 1.370 . S
C2739 C2740 1.403 . S
C2740 C2739 1.403 . S
C2740 C2741 1.404 . S
C2740 C2743 1.539 . S
C2741 C2737 1.408 . S
C2741 C2740 1.404 . S
C2741 H2753 0.930 . S
C2742 C2738 1.524 . S
C2742 H2754 0.956 . S
C2742 H2755 0.961 . S
C2742 H2756 0.952 1_565 S
C2743 C2740 1.539 . S
C2743 H2757 0.958 . S
C2743 H2758 0.961 . S
C2743 H2759 0.960 . S
H2744 C2728 0.931 . S
H2745 C2733 0.929 . S
H2746 C2734 0.960 . S
H2747 C2734 0.962 . S
H2748 C2734 0.960 . S
H2749 C2735 0.961 . S
H2750 C2735 0.961 . S
H2751 C2735 0.961 . S
H2752 C2736 0.957 . S
H2753 C2741 0.930 . S
H2754 C2742 0.956 . S
H2755 C2742 0.961 . S
H2756 C2742 0.952 1_545 S
H2757 C2743 0.958 . S
H2758 C2743 0.961 . S
H2759 C2743 0.960 . S
C2760 C2761 1.391 . S
C2760 C2762 1.394 . S
C2760 H2776 0.931 . S
C2761 C2760 1.391 . S
C2761 C2765 1.376 . S
C2762 C2760 1.394 . S
C2762 C2763 1.369 . S
C2762 C2766 1.531 . S
C2763 C2762 1.369 . S
C2763 C2764 1.410 . S
C2763 C2771 1.503 . S
C2764 C2763 1.410 . S
C2764 C2765 1.392 . S
C2764 C2767 1.511 . S
C2765 C2761 1.376 . S
C2765 C2764 1.392 . S
C2765 H2777 0.929 . S
C2766 C2762 1.531 . S
C2766 H2778 0.960 . S
C2766 H2779 0.962 . S
C2766 H2780 0.960 . S
C2767 C2764 1.511 . S
C2767 H2781 0.961 . S
C2767 H2782 0.961 . S
C2767 H2783 0.961 . S
C2768 C2769 1.370 . S
C2768 C2770 1.363 . S
C2768 H2784 0.931 . S
C2769 C2768 1.370 . S
C2769 C2773 1.408 . S
C2770 C2768 1.363 . S
C2770 C2771 1.370 . S
C2770 C2774 1.524 . S
C2771 C2763 1.503 . S
C2771 C2770 1.370 . S
C2771 C2772 1.403 . S
C2772 C2771 1.403 . S
C2772 C2773 1.404 . S
C2772 C2775 1.539 . S
C2773 C2769 1.408 . S
C2773 C2772 1.404 . S
C2773 H2785 0.930 . S
C2774 C2770 1.524 . S
C2774 H2786 0.956 . S
C2774 H2787 0.961 . S
C2774 H2788 0.961 . S
C2775 C2772 1.539 . S
C2775 H2789 0.958 . S
C2775 H2790 0.961 . S
C2775 H2791 0.960 . S
H2776 C2760 0.931 . S
H2777 C2765 0.929 . S
H2778 C2766 0.960 . S
H2779 C2766 0.962 . S
H2780 C2766 0.960 . S
H2781 C2767 0.961 . S
H2782 C2767 0.961 . S
H2783 C2767 0.961 . S
H2784 C2768 0.931 . S
H2785 C2773 0.930 . S
H2786 C2774 0.956 . S
H2787 C2774 0.961 . S
H2788 C2774 0.961 . S
H2789 C2775 0.958 . S
H2790 C2775 0.961 . S
H2791 C2775 0.960 . S
C2792 C2793 1.391 . S
C2792 C2794 1.394 . S
C2792 H2808 0.931 . S
C2793 C2792 1.391 . S
C2793 C2797 1.376 . S
C2794 C2792 1.394 . S
C2794 C2795 1.369 . S
C2794 C2798 1.531 . S
C2795 C2794 1.369 . S
C2795 C2796 1.410 . S
C2795 C2803 1.503 . S
C2796 C2795 1.410 . S
C2796 C2797 1.392 . S
C2796 C2799 1.513 . S
C2797 C2793 1.376 . S
C2797 C2796 1.392 . S
C2797 H2809 0.929 1_554 S
C2798 C2794 1.531 . S
C2798 H2810 0.960 . S
C2798 H2811 0.962 . S
C2798 H2812 0.960 . S
C2799 C2796 1.513 . S
C2799 H2813 0.955 1_554 S
C2799 H2814 0.958 1_554 S
C2799 H2815 0.968 . S
C2800 C2801 1.370 1_556 S
C2800 C2802 1.363 . S
C2800 H2816 0.931 . S
C2801 C2800 1.370 1_554 S
C2801 C2805 1.408 . S
C2802 C2800 1.363 . S
C2802 C2803 1.370 1_556 S
C2802 C2806 1.524 . S
C2803 C2795 1.503 . S
C2803 C2802 1.370 1_554 S
C2803 C2804 1.403 . S
C2804 C2803 1.403 . S
C2804 C2805 1.404 . S
C2804 C2807 1.539 . S
C2805 C2801 1.408 . S
C2805 C2804 1.404 . S
C2805 H2817 0.930 . S
C2806 C2802 1.524 . S
C2806 H2818 0.956 . S
C2806 H2819 0.961 . S
C2806 H2820 0.961 . S
C2807 C2804 1.539 . S
C2807 H2821 0.958 . S
C2807 H2822 0.961 . S
C2807 H2823 0.960 . S
H2808 C2792 0.931 . S
H2809 C2797 0.929 1_556 S
H2810 C2798 0.960 . S
H2811 C2798 0.962 . S
H2812 C2798 0.960 . S
H2813 C2799 0.955 1_556 S
H2814 C2799 0.958 1_556 S
H2815 C2799 0.968 . S
H2816 C2800 0.931 . S
H2817 C2805 0.930 . S
H2818 C2806 0.956 . S
H2819 C2806 0.961 . S
H2820 C2806 0.961 . S
H2821 C2807 0.958 . S
H2822 C2807 0.961 . S
H2823 C2807 0.960 . S
C2824 C2825 1.391 . S
C2824 C2826 1.394 . S
C2824 H2840 0.931 . S
C2825 C2824 1.391 . S
C2825 C2829 1.376 . S
C2826 C2824 1.394 . S
C2826 C2827 1.369 . S
C2826 C2830 1.531 . S
C2827 C2826 1.369 . S
C2827 C2828 1.410 . S
C2827 C2835 1.503 . S
C2828 C2827 1.410 . S
C2828 C2829 1.392 . S
C2828 C2831 1.511 . S
C2829 C2825 1.376 . S
C2829 C2828 1.392 . S
C2829 H2841 0.929 . S
C2830 C2826 1.531 . S
C2830 H2842 0.960 . S
C2830 H2843 0.962 . S
C2830 H2844 0.960 . S
C2831 C2828 1.511 . S
C2831 H2845 0.961 . S
C2831 H2846 0.961 . S
C2831 H2847 0.961 . S
C2832 C2833 1.370 . S
C2832 C2834 1.363 . S
C2832 H2848 0.931 . S
C2833 C2832 1.370 . S
C2833 C2837 1.408 . S
C2834 C2832 1.363 . S
C2834 C2835 1.370 . S
C2834 C2838 1.524 . S
C2835 C2827 1.503 . S
C2835 C2834 1.370 . S
C2835 C2836 1.403 . S
C2836 C2835 1.403 . S
C2836 C2837 1.404 . S
C2836 C2839 1.539 . S
C2837 C2833 1.408 . S
C2837 C2836 1.404 . S
C2837 H2849 0.930 . S
C2838 C2834 1.524 . S
C2838 H2850 0.956 . S
C2838 H2851 0.961 . S
C2838 H2852 0.961 . S
C2839 C2836 1.539 . S
C2839 H2853 0.958 . S
C2839 H2854 0.961 . S
C2839 H2855 0.960 . S
H2840 C2824 0.931 . S
H2841 C2829 0.929 . S
H2842 C2830 0.960 . S
H2843 C2830 0.962 . S
H2844 C2830 0.960 . S
H2845 C2831 0.961 . S
H2846 C2831 0.961 . S
H2847 C2831 0.961 . S
H2848 C2832 0.931 . S
H2849 C2837 0.930 . S
H2850 C2838 0.956 . S
H2851 C2838 0.961 . S
H2852 C2838 0.961 . S
H2853 C2839 0.958 . S
H2854 C2839 0.961 . S
H2855 C2839 0.960 . S
C2856 C2857 1.391 . S
C2856 C2858 1.394 . S
C2856 H2872 0.931 . S
C2857 C2856 1.391 . S
C2857 C2861 1.376 1_554 S
C2858 C2856 1.394 . S
C2858 C2859 1.369 . S
C2858 C2862 1.531 . S
C2859 C2858 1.369 . S
C2859 C2860 1.410 1_554 S
C2859 C2867 1.503 . S
C2860 C2859 1.410 1_556 S
C2860 C2861 1.392 . S
C2860 C2863 1.511 . S
C2861 C2857 1.376 1_556 S
C2861 C2860 1.392 . S
C2861 H2873 0.929 . S
C2862 C2858 1.531 . S
C2862 H2874 0.960 . S
C2862 H2875 0.962 . S
C2862 H2876 0.960 . S
C2863 C2860 1.511 . S
C2863 H2877 0.961 . S
C2863 H2878 0.961 . S
C2863 H2879 0.961 . S
C2864 C2865 1.370 . S
C2864 C2866 1.363 . S
C2864 H2880 0.931 . S
C2865 C2864 1.370 . S
C2865 C2869 1.408 1_556 S
C2866 C2864 1.363 . S
C2866 C2867 1.370 1_556 S
C2866 C2870 1.524 . S
C2867 C2859 1.503 . S
C2867 C2866 1.370 1_554 S
C2867 C2868 1.403 . S
C2868 C2867 1.403 . S
C2868 C2869 1.404 . S
C2868 C2871 1.539 . S
C2869 C2865 1.408 1_554 S
C2869 C2868 1.404 . S
C2869 H2881 0.930 . S
C2870 C2866 1.524 . S
C2870 H2882 0.956 . S
C2870 H2883 0.961 . S
C2870 H2884 0.961 . S
C2871 C2868 1.539 . S
C2871 H2885 0.958 . S
C2871 H2886 0.961 . S
C2871 H2887 0.960 . S
H2872 C2856 0.931 . S
H2873 C2861 0.929 . S
H2874 C2862 0.960 . S
H2875 C2862 0.962 . S
H2876 C2862 0.960 . S
H2877 C2863 0.961 . S
H2878 C2863 0.961 . S
H2879 C2863 0.961 . S
H2880 C2864 0.931 . S
H2881 C2869 0.930 . S
H2882 C2870 0.956 . S
H2883 C2870 0.961 . S
H2884 C2870 0.961 . S
H2885 C2871 0.958 . S
H2886 C2871 0.961 . S
H2887 C2871 0.960 . S
C2888 C2889 1.391 . S
C2888 C2890 1.394 . S
C2888 H2904 0.931 . S
C2889 C2888 1.391 . S
C2889 C2893 1.376 . S
C2890 C2888 1.394 . S
C2890 C2891 1.369 . S
C2890 C2894 1.531 . S
C2891 C2890 1.369 . S
C2891 C2892 1.410 . S
C2891 C2899 1.503 . S
C2892 C2891 1.410 . S
C2892 C2893 1.392 . S
C2892 C2895 1.511 . S
C2893 C2889 1.376 . S
C2893 C2892 1.392 . S
C2893 H2905 0.929 . S
C2894 C2890 1.531 . S
C2894 H2906 0.960 . S
C2894 H2907 0.962 . S
C2894 H2908 0.960 . S
C2895 C2892 1.511 . S
C2895 H2909 0.961 . S
C2895 H2910 0.961 . S
C2895 H2911 0.961 . S
C2896 C2897 1.370 . S
C2896 C2898 1.363 . S
C2896 H2912 0.931 . S
C2897 C2896 1.370 . S
C2897 C2901 1.408 . S
C2898 C2896 1.363 . S
C2898 C2899 1.370 . S
C2898 C2902 1.524 . S
C2899 C2891 1.503 . S
C2899 C2898 1.370 . S
C2899 C2900 1.403 . S
C2900 C2899 1.403 . S
C2900 C2901 1.404 . S
C2900 C2903 1.539 . S
C2901 C2897 1.408 . S
C2901 C2900 1.404 . S
C2901 H2913 0.930 . S
C2902 C2898 1.524 . S
C2902 H2914 0.956 . S
C2902 H2915 0.961 . S
C2902 H2916 0.961 . S
C2903 C2900 1.539 . S
C2903 H2917 0.958 . S
C2903 H2918 0.961 . S
C2903 H2919 0.960 . S
H2904 C2888 0.931 . S
H2905 C2893 0.929 . S
H2906 C2894 0.960 . S
H2907 C2894 0.962 . S
H2908 C2894 0.960 . S
H2909 C2895 0.961 . S
H2910 C2895 0.961 . S
H2911 C2895 0.961 . S
H2912 C2896 0.931 . S
H2913 C2901 0.930 . S
H2914 C2902 0.956 . S
H2915 C2902 0.961 . S
H2916 C2902 0.961 . S
H2917 C2903 0.958 . S
H2918 C2903 0.961 . S
H2919 C2903 0.960 . S
C2920 C2921 1.391 . S
C2920 C2922 1.394 . S
C2920 H2936 0.931 . S
C2921 C2920 1.391 . S
C2921 C2925 1.376 . S
C2922 C2920 1.394 . S
C2922 C2923 1.369 . S
C2922 C2926 1.531 . S
C2923 C2922 1.369 . S
C2923 C2924 1.410 . S
C2923 C2931 1.503 . S
C2924 C2923 1.410 . S
C2924 C2925 1.392 . S
C2924 C2927 1.511 . S
C2925 C2921 1.376 . S
C2925 C2924 1.392 . S
C2925 H2937 0.929 . S
C2926 C2922 1.531 . S
C2926 H2938 0.960 . S
C2926 H2939 0.962 . S
C2926 H2940 0.960 . S
C2927 C2924 1.511 . S
C2927 H2941 0.961 . S
C2927 H2942 0.961 . S
C2927 H2943 0.961 . S
C2928 C2929 1.370 . S
C2928 C2930 1.363 . S
C2928 H2944 0.931 . S
C2929 C2928 1.370 . S
C2929 C2933 1.408 . S
C2930 C2928 1.363 . S
C2930 C2931 1.370 . S
C2930 C2934 1.524 . S
C2931 C2923 1.503 . S
C2931 C2930 1.370 . S
C2931 C2932 1.403 . S
C2932 C2931 1.403 . S
C2932 C2933 1.404 . S
C2932 C2935 1.539 . S
C2933 C2929 1.408 . S
C2933 C2932 1.404 . S
C2933 H2945 0.930 . S
C2934 C2930 1.524 . S
C2934 H2946 0.956 . S
C2934 H2947 0.961 . S
C2934 H2948 0.961 . S
C2935 C2932 1.539 . S
C2935 H2949 0.958 . S
C2935 H2950 0.961 . S
C2935 H2951 0.960 . S
H2936 C2920 0.931 . S
H2937 C2925 0.929 . S
H2938 C2926 0.960 . S
H2939 C2926 0.962 . S
H2940 C2926 0.960 . S
H2941 C2927 0.961 . S
H2942 C2927 0.961 . S
H2943 C2927 0.961 . S
H2944 C2928 0.931 . S
H2945 C2933 0.930 . S
H2946 C2934 0.956 . S
H2947 C2934 0.961 . S
H2948 C2934 0.961 . S
H2949 C2935 0.958 . S
H2950 C2935 0.961 . S
H2951 C2935 0.960 . S
C2952 C2953 1.391 . S
C2952 C2954 1.394 . S
C2952 H2968 0.931 . S
C2953 C2952 1.391 . S
C2953 C2957 1.376 . S
C2954 C2952 1.394 . S
C2954 C2955 1.369 . S
C2954 C2958 1.531 . S
C2955 C2954 1.369 . S
C2955 C2956 1.410 . S
C2955 C2963 1.503 . S
C2956 C2955 1.410 . S
C2956 C2957 1.392 . S
C2956 C2959 1.511 . S
C2957 C2953 1.376 . S
C2957 C2956 1.392 . S
C2957 H2969 0.929 . S
C2958 C2954 1.531 . S
C2958 H2970 0.960 . S
C2958 H2971 0.962 . S
C2958 H2972 0.960 . S
C2959 C2956 1.511 . S
C2959 H2973 0.961 . S
C2959 H2974 0.961 . S
C2959 H2975 0.961 . S
C2960 C2961 1.370 . S
C2960 C2962 1.363 . S
C2960 H2976 0.931 . S
C2961 C2960 1.370 . S
C2961 C2965 1.408 . S
C2962 C2960 1.363 . S
C2962 C2963 1.370 . S
C2962 C2966 1.524 . S
C2963 C2955 1.503 . S
C2963 C2962 1.370 . S
C2963 C2964 1.403 . S
C2964 C2963 1.403 . S
C2964 C2965 1.404 . S
C2964 C2967 1.539 . S
C2965 C2961 1.408 . S
C2965 C2964 1.404 . S
C2965 H2977 0.930 . S
C2966 C2962 1.524 . S
C2966 H2978 0.956 . S
C2966 H2979 0.961 . S
C2966 H2980 0.961 . S
C2967 C2964 1.539 . S
C2967 H2981 0.958 . S
C2967 H2982 0.961 . S
C2967 H2983 0.960 . S
H2968 C2952 0.931 . S
H2969 C2957 0.929 . S
H2970 C2958 0.960 . S
H2971 C2958 0.962 . S
H2972 C2958 0.960 . S
H2973 C2959 0.961 . S
H2974 C2959 0.961 . S
H2975 C2959 0.961 . S
H2976 C2960 0.931 . S
H2977 C2965 0.930 . S
H2978 C2966 0.956 . S
H2979 C2966 0.961 . S
H2980 C2966 0.961 . S
H2981 C2967 0.958 . S
H2982 C2967 0.961 . S
H2983 C2967 0.960 . S
C2984 C2985 1.391 . S
C2984 C2986 1.394 . S
C2984 H3000 0.931 . S
C2985 C2984 1.391 . S
C2985 C2989 1.376 . S
C2986 C2984 1.394 . S
C2986 C2987 1.369 . S
C2986 C2990 1.531 . S
C2987 C2986 1.369 . S
C2987 C2988 1.410 . S
C2987 C2995 1.503 . S
C2988 C2987 1.410 . S
C2988 C2989 1.392 . S
C2988 C2991 1.511 . S
C2989 C2985 1.376 . S
C2989 C2988 1.392 . S
C2989 H3001 0.929 . S
C2990 C2986 1.531 . S
C2990 H3002 0.960 . S
C2990 H3003 0.962 . S
C2990 H3004 0.960 . S
C2991 C2988 1.511 . S
C2991 H3005 0.961 . S
C2991 H3006 0.961 . S
C2991 H3007 0.961 . S
C2992 C2993 1.370 . S
C2992 C2994 1.363 . S
C2992 H3008 0.931 . S
C2993 C2992 1.370 . S
C2993 C2997 1.408 . S
C2994 C2992 1.363 . S
C2994 C2995 1.370 . S
C2994 C2998 1.524 . S
C2995 C2987 1.503 . S
C2995 C2994 1.370 . S
C2995 C2996 1.403 . S
C2996 C2995 1.403 . S
C2996 C2997 1.404 . S
C2996 C2999 1.539 . S
C2997 C2993 1.408 . S
C2997 C2996 1.404 . S
C2997 H3009 0.930 . S
C2998 C2994 1.524 . S
C2998 H3010 0.956 . S
C2998 H3011 0.961 . S
C2998 H3012 0.961 . S
C2999 C2996 1.539 . S
C2999 H3013 0.958 . S
C2999 H3014 0.961 . S
C2999 H3015 0.960 . S
H3000 C2984 0.931 . S
H3001 C2989 0.929 . S
H3002 C2990 0.960 . S
H3003 C2990 0.962 . S
H3004 C2990 0.960 . S
H3005 C2991 0.961 . S
H3006 C2991 0.961 . S
H3007 C2991 0.961 . S
H3008 C2992 0.931 . S
H3009 C2997 0.930 . S
H3010 C2998 0.956 . S
H3011 C2998 0.961 . S
H3012 C2998 0.961 . S
H3013 C2999 0.958 . S
H3014 C2999 0.961 . S
H3015 C2999 0.960 . S
C3016 C3017 1.421 . S
C3016 C3018 1.394 . S
C3016 H3032 0.931 . S
C3017 C3016 1.421 . S
C3017 C3021 1.344 1_455 S
C3018 C3016 1.394 . S
C3018 C3019 1.369 1_455 S
C3018 C3022 1.531 . S
C3019 C3018 1.369 1_655 S
C3019 C3020 1.410 . S
C3019 C3027 1.503 . S
C3020 C3019 1.410 . S
C3020 C3021 1.392 . S
C3020 C3023 1.511 . S
C3021 C3017 1.344 1_655 S
C3021 C3020 1.392 . S
C3021 H3033 0.929 . S
C3022 C3018 1.531 . S
C3022 H3034 0.960 . S
C3022 H3035 0.962 . S
C3022 H3036 0.960 . S
C3023 C3020 1.511 . S
C3023 H3037 0.961 . S
C3023 H3038 0.961 . S
C3023 H3039 0.961 . S
C3024 C3025 1.370 . S
C3024 C3026 1.364 . S
C3024 H3040 0.931 1_655 S
C3025 C3024 1.370 . S
C3025 C3029 1.408 . S
C3026 C3024 1.364 . S
C3026 C3027 1.376 . S
C3026 C3030 1.518 1_655 S
C3027 C3019 1.503 . S
C3027 C3026 1.376 . S
C3027 C3028 1.403 . S
C3028 C3027 1.403 . S
C3028 C3029 1.404 . S
C3028 C3031 1.539 . S
C3029 C3025 1.408 . S
C3029 C3028 1.404 . S
C3029 H3041 0.930 1_556 S
C3030 C3026 1.518 1_455 S
C3030 H3042 0.956 . S
C3030 H3043 0.961 1_455 S
C3030 H3044 0.961 . S
C3031 C3028 1.539 . S
C3031 H3045 0.987 1_556 S
C3031 H3046 0.961 1_556 S
C3031 H3047 0.960 . S
H3032 C3016 0.931 . S
H3033 C3021 0.929 . S
H3034 C3022 0.960 . S
H3035 C3022 0.962 . S
H3036 C3022 0.960 . S
H3037 C3023 0.961 . S
H3038 C3023 0.961 . S
H3039 C3023 0.961 . S
H3040 C3024 0.931 1_455 S
H3041 C3029 0.930 1_554 S
H3042 C3030 0.956 . S
H3043 C3030 0.961 1_655 S
H3044 C3030 0.961 . S
H3045 C3031 0.987 1_554 S
H3046 C3031 0.961 1_554 S
H3047 C3031 0.960 . S
C3048 C3049 1.391 . S
C3048 C3050 1.394 . S
C3048 H3064 0.931 . S
C3049 C3048 1.391 . S
C3049 C3053 1.376 . S
C3050 C3048 1.394 . S
C3050 C3051 1.369 . S
C3050 C3054 1.531 . S
C3051 C3050 1.369 . S
C3051 C3052 1.410 . S
C3051 C3059 1.503 . S
C3052 C3051 1.410 . S
C3052 C3053 1.392 . S
C3052 C3055 1.511 . S
C3053 C3049 1.376 . S
C3053 C3052 1.392 . S
C3053 H3065 0.929 . S
C3054 C3050 1.531 . S
C3054 H3066 0.960 . S
C3054 H3067 0.962 . S
C3054 H3068 0.960 . S
C3055 C3052 1.511 . S
C3055 H3069 0.961 . S
C3055 H3070 0.961 . S
C3055 H3071 0.961 . S
C3056 C3057 1.370 . S
C3056 C3058 1.363 . S
C3056 H3072 0.931 . S
C3057 C3056 1.370 . S
C3057 C3061 1.408 . S
C3058 C3056 1.363 . S
C3058 C3059 1.370 . S
C3058 C3062 1.524 . S
C3059 C3051 1.503 . S
C3059 C3058 1.370 . S
C3059 C3060 1.403 . S
C3060 C3059 1.403 . S
C3060 C3061 1.404 . S
C3060 C3063 1.539 . S
C3061 C3057 1.408 . S
C3061 C3060 1.404 . S
C3061 H3073 0.930 . S
C3062 C3058 1.524 . S
C3062 H3074 0.956 . S
C3062 H3075 0.961 . S
C3062 H3076 0.961 . S
C3063 C3060 1.539 . S
C3063 H3077 0.958 . S
C3063 H3078 0.961 . S
C3063 H3079 0.960 . S
H3064 C3048 0.931 . S
H3065 C3053 0.929 . S
H3066 C3054 0.960 . S
H3067 C3054 0.962 . S
H3068 C3054 0.960 . S
H3069 C3055 0.961 . S
H3070 C3055 0.961 . S
H3071 C3055 0.961 . S
H3072 C3056 0.931 . S
H3073 C3061 0.930 . S
H3074 C3062 0.956 . S
H3075 C3062 0.961 . S
H3076 C3062 0.961 . S
H3077 C3063 0.958 . S
H3078 C3063 0.961 . S
H3079 C3063 0.960 . S
C3080 C3081 1.391 . S
C3080 C3082 1.394 . S
C3080 H3096 0.931 . S
C3081 C3080 1.391 . S
C3081 C3085 1.376 . S
C3082 C3080 1.394 . S
C3082 C3083 1.369 . S
C3082 C3086 1.531 . S
C3083 C3082 1.369 . S
C3083 C3084 1.410 . S
C3083 C3091 1.503 . S
C3084 C3083 1.410 . S
C3084 C3085 1.392 . S
C3084 C3087 1.511 . S
C3085 C3081 1.376 . S
C3085 C3084 1.392 . S
C3085 H3097 0.929 . S
C3086 C3082 1.531 . S
C3086 H3098 0.960 . S
C3086 H3099 0.962 . S
C3086 H3100 0.960 . S
C3087 C3084 1.511 . S
C3087 H3101 0.961 . S
C3087 H3102 0.961 . S
C3087 H3103 0.961 . S
C3088 C3089 1.370 . S
C3088 C3090 1.363 . S
C3088 H3104 0.931 . S
C3089 C3088 1.370 . S
C3089 C3093 1.408 . S
C3090 C3088 1.363 . S
C3090 C3091 1.370 . S
C3090 C3094 1.524 . S
C3091 C3083 1.503 . S
C3091 C3090 1.370 . S
C3091 C3092 1.403 . S
C3092 C3091 1.403 . S
C3092 C3093 1.404 . S
C3092 C3095 1.539 . S
C3093 C3089 1.408 . S
C3093 C3092 1.404 . S
C3093 H3105 0.930 . S
C3094 C3090 1.524 . S
C3094 H3106 0.956 . S
C3094 H3107 0.961 . S
C3094 H3108 0.961 . S
C3095 C3092 1.539 . S
C3095 H3109 0.958 . S
C3095 H3110 0.961 . S
C3095 H3111 0.960 . S
H3096 C3080 0.931 . S
H3097 C3085 0.929 . S
H3098 C3086 0.960 . S
H3099 C3086 0.962 . S
H3100 C3086 0.960 . S
H3101 C3087 0.961 . S
H3102 C3087 0.961 . S
H3103 C3087 0.961 . S
H3104 C3088 0.931 . S
H3105 C3093 0.930 . S
H3106 C3094 0.956 . S
H3107 C3094 0.961 . S
H3108 C3094 0.961 . S
H3109 C3095 0.958 . S
H3110 C3095 0.961 . S
H3111 C3095 0.960 . S
C3112 C3113 1.391 . S
C3112 C3114 1.394 . S
C3112 H3128 0.931 . S
C3113 C3112 1.391 . S
C3113 C3117 1.376 . S
C3114 C3112 1.394 . S
C3114 C3115 1.369 . S
C3114 C3118 1.531 . S
C3115 C3114 1.369 . S
C3115 C3116 1.410 . S
C3115 C3123 1.503 . S
C3116 C3115 1.410 . S
C3116 C3117 1.392 . S
C3116 C3119 1.511 . S
C3117 C3113 1.376 . S
C3117 C3116 1.392 . S
C3117 H3129 0.929 . S
C3118 C3114 1.531 . S
C3118 H3130 0.960 . S
C3118 H3131 0.962 . S
C3118 H3132 0.960 . S
C3119 C3116 1.511 . S
C3119 H3133 0.961 . S
C3119 H3134 0.961 . S
C3119 H3135 0.961 . S
C3120 C3121 1.370 . S
C3120 C3122 1.363 . S
C3120 H3136 0.931 . S
C3121 C3120 1.370 . S
C3121 C3125 1.408 . S
C3122 C3120 1.363 . S
C3122 C3123 1.370 . S
C3122 C3126 1.524 . S
C3123 C3115 1.503 . S
C3123 C3122 1.370 . S
C3123 C3124 1.403 . S
C3124 C3123 1.403 . S
C3124 C3125 1.404 . S
C3124 C3127 1.539 . S
C3125 C3121 1.408 . S
C3125 C3124 1.404 . S
C3125 H3137 0.930 . S
C3126 C3122 1.524 . S
C3126 H3138 0.956 . S
C3126 H3139 0.961 . S
C3126 H3140 0.961 . S
C3127 C3124 1.539 . S
C3127 H3141 0.958 . S
C3127 H3142 0.961 . S
C3127 H3143 0.960 . S
H3128 C3112 0.931 . S
H3129 C3117 0.929 . S
H3130 C3118 0.960 . S
H3131 C3118 0.962 . S
H3132 C3118 0.960 . S
H3133 C3119 0.961 . S
H3134 C3119 0.961 . S
H3135 C3119 0.961 . S
H3136 C3120 0.931 . S
H3137 C3125 0.930 . S
H3138 C3126 0.956 . S
H3139 C3126 0.961 . S
H3140 C3126 0.961 . S
H3141 C3127 0.958 . S
H3142 C3127 0.961 . S
H3143 C3127 0.960 . S
C3144 C3145 1.391 1_655 S
C3144 C3146 1.394 . S
C3144 H3160 0.931 . S
C3145 C3144 1.391 1_455 S
C3145 C3149 1.376 . S
C3146 C3144 1.394 . S
C3146 C3147 1.369 1_655 S
C3146 C3150 1.531 . S
C3147 C3146 1.369 1_455 S
C3147 C3148 1.410 . S
C3147 C3155 1.506 . S
C3148 C3147 1.410 . S
C3148 C3149 1.392 . S
C3148 C3151 1.511 . S
C3149 C3145 1.376 . S
C3149 C3148 1.392 . S
C3149 H3161 0.929 . S
C3150 C3146 1.531 . S
C3150 H3162 0.960 . S
C3150 H3163 0.962 . S
C3150 H3164 0.960 . S
C3151 C3148 1.511 . S
C3151 H3165 0.961 . S
C3151 H3166 0.961 . S
C3151 H3167 0.961 . S
C3152 C3153 1.370 . S
C3152 C3154 1.363 . S
C3152 H3168 0.931 . S
C3153 C3152 1.370 . S
C3153 C3157 1.408 1_655 S
C3154 C3152 1.363 . S
C3154 C3155 1.353 1_655 S
C3154 C3158 1.524 . S
C3155 C3147 1.506 . S
C3155 C3154 1.353 1_455 S
C3155 C3156 1.417 . S
C3156 C3155 1.417 . S
C3156 C3157 1.404 . S
C3156 C3159 1.539 . S
C3157 C3153 1.408 1_455 S
C3157 C3156 1.404 . S
C3157 H3169 0.930 . S
C3158 C3154 1.524 . S
C3158 H3170 0.956 . S
C3158 H3171 0.961 . S
C3158 H3172 0.961 . S
C3159 C3156 1.539 . S
C3159 H3173 0.958 . S
C3159 H3174 0.961 . S
C3159 H3175 0.960 . S
H3160 C3144 0.931 . S
H3161 C3149 0.929 . S
H3162 C3150 0.960 . S
H3163 C3150 0.962 . S
H3164 C3150 0.960 . S
H3165 C3151 0.961 . S
H3166 C3151 0.961 . S
H3167 C3151 0.961 . S
H3168 C3152 0.931 . S
H3169 C3157 0.930 . S
H3170 C3158 0.956 . S
H3171 C3158 0.961 . S
H3172 C3158 0.961 . S
H3173 C3159 0.958 . S
H3174 C3159 0.961 . S
H3175 C3159 0.960 . S
C3176 C3177 1.391 . S
C3176 C3178 1.394 . S
C3176 H3192 0.931 . S
C3177 C3176 1.391 . S
C3177 C3181 1.376 . S
C3178 C3176 1.394 . S
C3178 C3179 1.369 . S
C3178 C3182 1.531 . S
C3179 C3178 1.369 . S
C3179 C3180 1.410 . S
C3179 C3187 1.503 . S
C3180 C3179 1.410 . S
C3180 C3181 1.392 . S
C3180 C3183 1.511 . S
C3181 C3177 1.376 . S
C3181 C3180 1.392 . S
C3181 H3193 0.929 . S
C3182 C3178 1.531 . S
C3182 H3194 0.960 . S
C3182 H3195 0.962 . S
C3182 H3196 0.960 . S
C3183 C3180 1.511 . S
C3183 H3197 0.961 . S
C3183 H3198 0.961 . S
C3183 H3199 0.961 . S
C3184 C3185 1.370 . S
C3184 C3186 1.363 . S
C3184 H3200 0.931 . S
C3185 C3184 1.370 . S
C3185 C3189 1.408 . S
C3186 C3184 1.363 . S
C3186 C3187 1.370 . S
C3186 C3190 1.524 . S
C3187 C3179 1.503 . S
C3187 C3186 1.370 . S
C3187 C3188 1.403 . S
C3188 C3187 1.403 . S
C3188 C3189 1.404 . S
C3188 C3191 1.539 . S
C3189 C3185 1.408 . S
C3189 C3188 1.404 . S
C3189 H3201 0.930 . S
C3190 C3186 1.524 . S
C3190 H3202 0.956 . S
C3190 H3203 0.961 . S
C3190 H3204 0.961 . S
C3191 C3188 1.539 . S
C3191 H3205 0.958 . S
C3191 H3206 0.961 . S
C3191 H3207 0.960 . S
H3192 C3176 0.931 . S
H3193 C3181 0.929 . S
H3194 C3182 0.960 . S
H3195 C3182 0.962 . S
H3196 C3182 0.960 . S
H3197 C3183 0.961 . S
H3198 C3183 0.961 . S
H3199 C3183 0.961 . S
H3200 C3184 0.931 . S
H3201 C3189 0.930 . S
H3202 C3190 0.956 . S
H3203 C3190 0.961 . S
H3204 C3190 0.961 . S
H3205 C3191 0.958 . S
H3206 C3191 0.961 . S
H3207 C3191 0.960 . S
C3208 C3209 1.391 . S
C3208 C3210 1.394 . S
C3208 H3224 0.931 . S
C3209 C3208 1.391 . S
C3209 C3213 1.376 . S
C3210 C3208 1.394 . S
C3210 C3211 1.369 . S
C3210 C3214 1.531 . S
C3211 C3210 1.369 . S
C3211 C3212 1.410 . S
C3211 C3219 1.503 . S
C3212 C3211 1.410 . S
C3212 C3213 1.392 . S
C3212 C3215 1.511 . S
C3213 C3209 1.376 . S
C3213 C3212 1.392 . S
C3213 H3225 0.929 . S
C3214 C3210 1.531 . S
C3214 H3226 0.960 . S
C3214 H3227 0.962 . S
C3214 H3228 0.960 . S
C3215 C3212 1.511 . S
C3215 H3229 0.961 . S
C3215 H3230 0.961 . S
C3215 H3231 0.961 . S
C3216 C3217 1.370 . S
C3216 C3218 1.363 . S
C3216 H3232 0.931 . S
C3217 C3216 1.370 . S
C3217 C3221 1.408 . S
C3218 C3216 1.363 . S
C3218 C3219 1.370 . S
C3218 C3222 1.524 . S
C3219 C3211 1.503 . S
C3219 C3218 1.370 . S
C3219 C3220 1.403 . S
C3220 C3219 1.403 . S
C3220 C3221 1.404 . S
C3220 C3223 1.539 . S
C3221 C3217 1.408 . S
C3221 C3220 1.404 . S
C3221 H3233 0.930 . S
C3222 C3218 1.524 . S
C3222 H3234 0.956 . S
C3222 H3235 0.961 . S
C3222 H3236 0.961 . S
C3223 C3220 1.539 . S
C3223 H3237 0.958 . S
C3223 H3238 0.961 . S
C3223 H3239 0.960 . S
H3224 C3208 0.931 . S
H3225 C3213 0.929 . S
H3226 C3214 0.960 . S
H3227 C3214 0.962 . S
H3228 C3214 0.960 . S
H3229 C3215 0.961 . S
H3230 C3215 0.961 . S
H3231 C3215 0.961 . S
H3232 C3216 0.931 . S
H3233 C3221 0.930 . S
H3234 C3222 0.956 . S
H3235 C3222 0.961 . S
H3236 C3222 0.961 . S
H3237 C3223 0.958 . S
H3238 C3223 0.961 . S
H3239 C3223 0.960 . S
C3240 C3241 1.391 . S
C3240 C3242 1.394 . S
C3240 H3256 0.931 . S
C3241 C3240 1.391 . S
C3241 C3245 1.376 . S
C3242 C3240 1.394 . S
C3242 C3243 1.369 . S
C3242 C3246 1.531 . S
C3243 C3242 1.369 . S
C3243 C3244 1.410 . S
C3243 C3251 1.503 . S
C3244 C3243 1.410 . S
C3244 C3245 1.392 . S
C3244 C3247 1.511 . S
C3245 C3241 1.376 . S
C3245 C3244 1.392 . S
C3245 H3257 0.929 . S
C3246 C3242 1.531 . S
C3246 H3258 0.960 . S
C3246 H3259 0.962 . S
C3246 H3260 0.960 . S
C3247 C3244 1.511 . S
C3247 H3261 0.961 . S
C3247 H3262 0.961 . S
C3247 H3263 0.961 . S
C3248 C3249 1.370 . S
C3248 C3250 1.363 . S
C3248 H3264 0.931 . S
C3249 C3248 1.370 . S
C3249 C3253 1.408 . S
C3250 C3248 1.363 . S
C3250 C3251 1.370 . S
C3250 C3254 1.524 . S
C3251 C3243 1.503 . S
C3251 C3250 1.370 . S
C3251 C3252 1.403 . S
C3252 C3251 1.403 . S
C3252 C3253 1.404 . S
C3252 C3255 1.539 . S
C3253 C3249 1.408 . S
C3253 C3252 1.404 . S
C3253 H3265 0.930 . S
C3254 C3250 1.524 . S
C3254 H3266 0.956 . S
C3254 H3267 0.961 . S
C3254 H3268 0.961 . S
C3255 C3252 1.539 . S
C3255 H3269 0.958 . S
C3255 H3270 0.961 . S
C3255 H3271 0.960 . S
H3256 C3240 0.931 . S
H3257 C3245 0.929 . S
H3258 C3246 0.960 . S
H3259 C3246 0.962 . S
H3260 C3246 0.960 . S
H3261 C3247 0.961 . S
H3262 C3247 0.961 . S
H3263 C3247 0.961 . S
H3264 C3248 0.931 . S
H3265 C3253 0.930 . S
H3266 C3254 0.956 . S
H3267 C3254 0.961 . S
H3268 C3254 0.961 . S
H3269 C3255 0.958 . S
H3270 C3255 0.961 . S
H3271 C3255 0.960 . S
C3272 C3273 1.391 . S
C3272 C3274 1.394 . S
C3272 H3288 0.931 . S
C3273 C3272 1.391 . S
C3273 C3277 1.376 . S
C3274 C3272 1.394 . S
C3274 C3275 1.369 . S
C3274 C3278 1.531 . S
C3275 C3274 1.369 . S
C3275 C3276 1.410 . S
C3275 C3283 1.503 . S
C3276 C3275 1.410 . S
C3276 C3277 1.392 . S
C3276 C3279 1.511 . S
C3277 C3273 1.376 . S
C3277 C3276 1.392 . S
C3277 H3289 0.929 . S
C3278 C3274 1.531 . S
C3278 H3290 0.960 . S
C3278 H3291 0.962 . S
C3278 H3292 0.960 . S
C3279 C3276 1.511 . S
C3279 H3293 0.961 . S
C3279 H3294 0.961 . S
C3279 H3295 0.961 . S
C3280 C3281 1.370 . S
C3280 C3282 1.363 . S
C3280 H3296 0.931 . S
C3281 C3280 1.370 . S
C3281 C3285 1.408 . S
C3282 C3280 1.363 . S
C3282 C3283 1.370 . S
C3282 C3286 1.524 . S
C3283 C3275 1.503 . S
C3283 C3282 1.370 . S
C3283 C3284 1.403 . S
C3284 C3283 1.403 . S
C3284 C3285 1.404 . S
C3284 C3287 1.539 . S
C3285 C3281 1.408 . S
C3285 C3284 1.404 . S
C3285 H3297 0.930 . S
C3286 C3282 1.524 . S
C3286 H3298 0.956 . S
C3286 H3299 0.961 . S
C3286 H3300 0.961 . S
C3287 C3284 1.539 . S
C3287 H3301 0.958 . S
C3287 H3302 0.961 . S
C3287 H3303 0.960 . S
H3288 C3272 0.931 . S
H3289 C3277 0.929 . S
H3290 C3278 0.960 . S
H3291 C3278 0.962 . S
H3292 C3278 0.960 . S
H3293 C3279 0.961 . S
H3294 C3279 0.961 . S
H3295 C3279 0.961 . S
H3296 C3280 0.931 . S
H3297 C3285 0.930 . S
H3298 C3286 0.956 . S
H3299 C3286 0.961 . S
H3300 C3286 0.961 . S
H3301 C3287 0.958 . S
H3302 C3287 0.961 . S
H3303 C3287 0.960 . S
C3304 C3305 1.391 . S
C3304 C3306 1.394 . S
C3304 H3320 0.931 . S
C3305 C3304 1.391 . S
C3305 C3309 1.376 . S
C3306 C3304 1.394 . S
C3306 C3307 1.369 . S
C3306 C3310 1.531 . S
C3307 C3306 1.369 . S
C3307 C3308 1.410 . S
C3307 C3315 1.503 . S
C3308 C3307 1.410 . S
C3308 C3309 1.392 . S
C3308 C3311 1.511 . S
C3309 C3305 1.376 . S
C3309 C3308 1.392 . S
C3309 H3321 0.929 . S
C3310 C3306 1.531 . S
C3310 H3322 0.960 . S
C3310 H3323 0.962 . S
C3310 H3324 0.960 . S
C3311 C3308 1.511 . S
C3311 H3325 0.961 . S
C3311 H3326 0.961 . S
C3311 H3327 0.961 . S
C3312 C3313 1.370 . S
C3312 C3314 1.363 . S
C3312 H3328 0.931 . S
C3313 C3312 1.370 . S
C3313 C3317 1.408 . S
C3314 C3312 1.363 . S
C3314 C3315 1.370 . S
C3314 C3318 1.524 . S
C3315 C3307 1.503 . S
C3315 C3314 1.370 . S
C3315 C3316 1.403 . S
C3316 C3315 1.403 . S
C3316 C3317 1.404 . S
C3316 C3319 1.539 . S
C3317 C3313 1.408 . S
C3317 C3316 1.404 . S
C3317 H3329 0.930 . S
C3318 C3314 1.524 . S
C3318 H3330 0.956 . S
C3318 H3331 0.961 . S
C3318 H3332 0.961 . S
C3319 C3316 1.539 . S
C3319 H3333 0.958 . S
C3319 H3334 0.961 . S
C3319 H3335 0.960 . S
H3320 C3304 0.931 . S
H3321 C3309 0.929 . S
H3322 C3310 0.960 . S
H3323 C3310 0.962 . S
H3324 C3310 0.960 . S
H3325 C3311 0.961 . S
H3326 C3311 0.961 . S
H3327 C3311 0.961 . S
H3328 C3312 0.931 . S
H3329 C3317 0.930 . S
H3330 C3318 0.956 . S
H3331 C3318 0.961 . S
H3332 C3318 0.961 . S
H3333 C3319 0.958 . S
H3334 C3319 0.961 . S
H3335 C3319 0.960 . S
C3336 C3337 1.391 . S
C3336 C3338 1.394 . S
C3336 H3352 0.931 . S
C3337 C3336 1.391 . S
C3337 C3341 1.376 . S
C3338 C3336 1.394 . S
C3338 C3339 1.369 . S
C3338 C3342 1.531 . S
C3339 C3338 1.369 . S
C3339 C3340 1.410 . S
C3339 C3347 1.503 . S
C3340 C3339 1.410 . S
C3340 C3341 1.392 . S
C3340 C3343 1.511 . S
C3341 C3337 1.376 . S
C3341 C3340 1.392 . S
C3341 H3353 0.929 . S
C3342 C3338 1.531 . S
C3342 H3354 0.960 . S
C3342 H3355 0.962 . S
C3342 H3356 0.960 . S
C3343 C3340 1.511 . S
C3343 H3357 0.961 . S
C3343 H3358 0.961 . S
C3343 H3359 0.961 . S
C3344 C3345 1.370 . S
C3344 C3346 1.363 . S
C3344 H3360 0.931 . S
C3345 C3344 1.370 . S
C3345 C3349 1.408 . S
C3346 C3344 1.363 . S
C3346 C3347 1.370 . S
C3346 C3350 1.524 . S
C3347 C3339 1.503 . S
C3347 C3346 1.370 . S
C3347 C3348 1.403 . S
C3348 C3347 1.403 . S
C3348 C3349 1.404 . S
C3348 C3351 1.539 . S
C3349 C3345 1.408 . S
C3349 C3348 1.404 . S
C3349 H3361 0.930 . S
C3350 C3346 1.524 . S
C3350 H3362 0.956 . S
C3350 H3363 0.961 . S
C3350 H3364 0.961 . S
C3351 C3348 1.539 . S
C3351 H3365 0.958 . S
C3351 H3366 0.961 . S
C3351 H3367 0.960 . S
H3352 C3336 0.931 . S
H3353 C3341 0.929 . S
H3354 C3342 0.960 . S
H3355 C3342 0.962 . S
H3356 C3342 0.960 . S
H3357 C3343 0.961 . S
H3358 C3343 0.961 . S
H3359 C3343 0.961 . S
H3360 C3344 0.931 . S
H3361 C3349 0.930 . S
H3362 C3350 0.956 . S
H3363 C3350 0.961 . S
H3364 C3350 0.961 . S
H3365 C3351 0.958 . S
H3366 C3351 0.961 . S
H3367 C3351 0.960 . S
C3368 C3369 1.391 . S
C3368 C3370 1.394 . S
C3368 H3384 0.931 . S
C3369 C3368 1.391 . S
C3369 C3373 1.376 . S
C3370 C3368 1.394 . S
C3370 C3371 1.369 . S
C3370 C3374 1.531 . S
C3371 C3370 1.369 . S
C3371 C3372 1.410 . S
C3371 C3379 1.503 . S
C3372 C3371 1.410 . S
C3372 C3373 1.392 . S
C3372 C3375 1.511 . S
C3373 C3369 1.376 . S
C3373 C3372 1.392 . S
C3373 H3385 0.929 . S
C3374 C3370 1.531 . S
C3374 H3386 0.960 . S
C3374 H3387 0.962 . S
C3374 H3388 0.960 . S
C3375 C3372 1.511 . S
C3375 H3389 0.961 . S
C3375 H3390 0.961 . S
C3375 H3391 0.961 . S
C3376 C3377 1.370 . S
C3376 C3378 1.363 . S
C3376 H3392 0.931 . S
C3377 C3376 1.370 . S
C3377 C3381 1.408 . S
C3378 C3376 1.363 . S
C3378 C3379 1.370 . S
C3378 C3382 1.524 . S
C3379 C3371 1.503 . S
C3379 C3378 1.370 . S
C3379 C3380 1.403 . S
C3380 C3379 1.403 . S
C3380 C3381 1.404 . S
C3380 C3383 1.539 . S
C3381 C3377 1.408 . S
C3381 C3380 1.404 . S
C3381 H3393 0.930 . S
C3382 C3378 1.524 . S
C3382 H3394 0.956 . S
C3382 H3395 0.961 . S
C3382 H3396 0.961 . S
C3383 C3380 1.539 . S
C3383 H3397 0.958 . S
C3383 H3398 0.961 . S
C3383 H3399 0.960 . S
H3384 C3368 0.931 . S
H3385 C3373 0.929 . S
H3386 C3374 0.960 . S
H3387 C3374 0.962 . S
H3388 C3374 0.960 . S
H3389 C3375 0.961 . S
H3390 C3375 0.961 . S
H3391 C3375 0.961 . S
H3392 C3376 0.931 . S
H3393 C3381 0.930 . S
H3394 C3382 0.956 . S
H3395 C3382 0.961 . S
H3396 C3382 0.961 . S
H3397 C3383 0.958 . S
H3398 C3383 0.961 . S
H3399 C3383 0.960 . S
C3400 C3401 1.391 . S
C3400 C3402 1.394 . S
C3400 H3416 0.931 . S
C3401 C3400 1.391 . S
C3401 C3405 1.376 . S
C3402 C3400 1.394 . S
C3402 C3403 1.369 . S
C3402 C3406 1.531 . S
C3403 C3402 1.369 . S
C3403 C3404 1.410 . S
C3403 C3411 1.503 . S
C3404 C3403 1.410 . S
C3404 C3405 1.392 . S
C3404 C3407 1.511 . S
C3405 C3401 1.376 . S
C3405 C3404 1.392 . S
C3405 H3417 0.929 . S
C3406 C3402 1.531 . S
C3406 H3418 0.960 . S
C3406 H3419 0.962 . S
C3406 H3420 0.960 . S
C3407 C3404 1.511 . S
C3407 H3421 0.961 . S
C3407 H3422 0.961 . S
C3407 H3423 0.961 . S
C3408 C3409 1.370 . S
C3408 C3410 1.363 . S
C3408 H3424 0.931 . S
C3409 C3408 1.370 . S
C3409 C3413 1.408 . S
C3410 C3408 1.363 . S
C3410 C3411 1.370 . S
C3410 C3414 1.524 . S
C3411 C3403 1.503 . S
C3411 C3410 1.370 . S
C3411 C3412 1.403 . S
C3412 C3411 1.403 . S
C3412 C3413 1.404 . S
C3412 C3415 1.539 . S
C3413 C3409 1.408 . S
C3413 C3412 1.404 . S
C3413 H3425 0.930 . S
C3414 C3410 1.524 . S
C3414 H3426 0.956 . S
C3414 H3427 0.961 . S
C3414 H3428 0.961 . S
C3415 C3412 1.539 . S
C3415 H3429 0.958 . S
C3415 H3430 0.961 . S
C3415 H3431 0.960 . S
H3416 C3400 0.931 . S
H3417 C3405 0.929 . S
H3418 C3406 0.960 . S
H3419 C3406 0.962 . S
H3420 C3406 0.960 . S
H3421 C3407 0.961 . S
H3422 C3407 0.961 . S
H3423 C3407 0.961 . S
H3424 C3408 0.931 . S
H3425 C3413 0.930 . S
H3426 C3414 0.956 . S
H3427 C3414 0.961 . S
H3428 C3414 0.961 . S
H3429 C3415 0.958 . S
H3430 C3415 0.961 . S
H3431 C3415 0.960 . S
C3432 C3433 1.391 . S
C3432 C3434 1.394 . S
C3432 H3448 0.931 . S
C3433 C3432 1.391 . S
C3433 C3437 1.376 . S
C3434 C3432 1.394 . S
C3434 C3435 1.369 . S
C3434 C3438 1.531 . S
C3435 C3434 1.369 . S
C3435 C3436 1.410 . S
C3435 C3443 1.503 . S
C3436 C3435 1.410 . S
C3436 C3437 1.392 . S
C3436 C3439 1.511 . S
C3437 C3433 1.376 . S
C3437 C3436 1.392 . S
C3437 H3449 0.929 . S
C3438 C3434 1.531 . S
C3438 H3450 0.960 . S
C3438 H3451 0.962 . S
C3438 H3452 0.960 . S
C3439 C3436 1.511 . S
C3439 H3453 0.961 . S
C3439 H3454 0.961 . S
C3439 H3455 0.961 . S
C3440 C3441 1.370 . S
C3440 C3442 1.363 . S
C3440 H3456 0.931 . S
C3441 C3440 1.370 . S
C3441 C3445 1.408 . S
C3442 C3440 1.363 . S
C3442 C3443 1.370 . S
C3442 C3446 1.524 . S
C3443 C3435 1.503 . S
C3443 C3442 1.370 . S
C3443 C3444 1.403 . S
C3444 C3443 1.403 . S
C3444 C3445 1.404 . S
C3444 C3447 1.539 . S
C3445 C3441 1.408 . S
C3445 C3444 1.404 . S
C3445 H3457 0.930 . S
C3446 C3442 1.524 . S
C3446 H3458 0.956 . S
C3446 H3459 0.961 . S
C3446 H3460 0.961 . S
C3447 C3444 1.539 . S
C3447 H3461 0.958 . S
C3447 H3462 0.961 . S
C3447 H3463 0.960 . S
H3448 C3432 0.931 . S
H3449 C3437 0.929 . S
H3450 C3438 0.960 . S
H3451 C3438 0.962 . S
H3452 C3438 0.960 . S
H3453 C3439 0.961 . S
H3454 C3439 0.961 . S
H3455 C3439 0.961 . S
H3456 C3440 0.931 . S
H3457 C3445 0.930 . S
H3458 C3446 0.956 . S
H3459 C3446 0.961 . S
H3460 C3446 0.961 . S
H3461 C3447 0.958 . S
H3462 C3447 0.961 . S
H3463 C3447 0.960 . S
C3464 C3465 1.391 . S
C3464 C3466 1.394 . S
C3464 H3480 0.931 . S
C3465 C3464 1.391 . S
C3465 C3469 1.376 . S
C3466 C3464 1.394 . S
C3466 C3467 1.369 . S
C3466 C3470 1.531 . S
C3467 C3466 1.369 . S
C3467 C3468 1.410 . S
C3467 C3475 1.503 . S
C3468 C3467 1.410 . S
C3468 C3469 1.392 . S
C3468 C3471 1.511 . S
C3469 C3465 1.376 . S
C3469 C3468 1.392 . S
C3469 H3481 0.929 . S
C3470 C3466 1.531 . S
C3470 H3482 0.960 . S
C3470 H3483 0.962 . S
C3470 H3484 0.960 . S
C3471 C3468 1.511 . S
C3471 H3485 0.961 . S
C3471 H3486 0.961 . S
C3471 H3487 0.961 . S
C3472 C3473 1.370 . S
C3472 C3474 1.363 . S
C3472 H3488 0.931 . S
C3473 C3472 1.370 . S
C3473 C3477 1.408 . S
C3474 C3472 1.363 . S
C3474 C3475 1.370 . S
C3474 C3478 1.524 . S
C3475 C3467 1.503 . S
C3475 C3474 1.370 . S
C3475 C3476 1.403 . S
C3476 C3475 1.403 . S
C3476 C3477 1.404 . S
C3476 C3479 1.539 . S
C3477 C3473 1.408 . S
C3477 C3476 1.404 . S
C3477 H3489 0.930 . S
C3478 C3474 1.524 . S
C3478 H3490 0.956 . S
C3478 H3491 0.961 . S
C3478 H3492 0.961 . S
C3479 C3476 1.539 . S
C3479 H3493 0.958 . S
C3479 H3494 0.961 . S
C3479 H3495 0.960 . S
H3480 C3464 0.931 . S
H3481 C3469 0.929 . S
H3482 C3470 0.960 . S
H3483 C3470 0.962 . S
H3484 C3470 0.960 . S
H3485 C3471 0.961 . S
H3486 C3471 0.961 . S
H3487 C3471 0.961 . S
H3488 C3472 0.931 . S
H3489 C3477 0.930 . S
H3490 C3478 0.956 . S
H3491 C3478 0.961 . S
H3492 C3478 0.961 . S
H3493 C3479 0.958 . S
H3494 C3479 0.961 . S
H3495 C3479 0.960 . S
C3496 C3497 1.391 . S
C3496 C3498 1.394 . S
C3496 H3512 0.931 . S
C3497 C3496 1.391 . S
C3497 C3501 1.376 . S
C3498 C3496 1.394 . S
C3498 C3499 1.369 . S
C3498 C3502 1.531 . S
C3499 C3498 1.369 . S
C3499 C3500 1.410 . S
C3499 C3507 1.503 . S
C3500 C3499 1.410 . S
C3500 C3501 1.392 . S
C3500 C3503 1.511 . S
C3501 C3497 1.376 . S
C3501 C3500 1.392 . S
C3501 H3513 0.929 . S
C3502 C3498 1.531 . S
C3502 H3514 0.960 . S
C3502 H3515 0.962 . S
C3502 H3516 0.960 . S
C3503 C3500 1.511 . S
C3503 H3517 0.961 . S
C3503 H3518 0.961 . S
C3503 H3519 0.961 . S
C3504 C3505 1.370 . S
C3504 C3506 1.363 . S
C3504 H3520 0.931 . S
C3505 C3504 1.370 . S
C3505 C3509 1.408 . S
C3506 C3504 1.363 . S
C3506 C3507 1.370 . S
C3506 C3510 1.524 . S
C3507 C3499 1.503 . S
C3507 C3506 1.370 . S
C3507 C3508 1.403 . S
C3508 C3507 1.403 . S
C3508 C3509 1.404 . S
C3508 C3511 1.539 . S
C3509 C3505 1.408 . S
C3509 C3508 1.404 . S
C3509 H3521 0.930 . S
C3510 C3506 1.524 . S
C3510 H3522 0.956 . S
C3510 H3523 0.961 . S
C3510 H3524 0.961 . S
C3511 C3508 1.539 . S
C3511 H3525 0.958 . S
C3511 H3526 0.961 1_545 S
C3511 H3527 0.960 . S
H3512 C3496 0.931 . S
H3513 C3501 0.929 . S
H3514 C3502 0.960 . S
H3515 C3502 0.962 . S
H3516 C3502 0.960 . S
H3517 C3503 0.961 . S
H3518 C3503 0.961 . S
H3519 C3503 0.961 . S
H3520 C3504 0.931 . S
H3521 C3509 0.930 . S
H3522 C3510 0.956 . S
H3523 C3510 0.961 . S
H3524 C3510 0.961 . S
H3525 C3511 0.958 . S
H3526 C3511 0.961 1_565 S
H3527 C3511 0.960 . S
C3528 C3529 1.391 . S
C3528 C3530 1.394 . S
C3528 H3544 0.931 . S
C3529 C3528 1.391 . S
C3529 C3533 1.376 . S
C3530 C3528 1.394 . S
C3530 C3531 1.369 . S
C3530 C3534 1.531 . S
C3531 C3530 1.369 . S
C3531 C3532 1.410 . S
C3531 C3539 1.503 . S
C3532 C3531 1.410 . S
C3532 C3533 1.392 . S
C3532 C3535 1.511 . S
C3533 C3529 1.376 . S
C3533 C3532 1.392 . S
C3533 H3545 0.929 . S
C3534 C3530 1.531 . S
C3534 H3546 0.960 . S
C3534 H3547 0.962 . S
C3534 H3548 0.960 . S
C3535 C3532 1.511 . S
C3535 H3549 0.961 . S
C3535 H3550 0.961 . S
C3535 H3551 0.961 . S
C3536 C3537 1.370 . S
C3536 C3538 1.363 . S
C3536 H3552 0.931 . S
C3537 C3536 1.370 . S
C3537 C3541 1.408 . S
C3538 C3536 1.363 . S
C3538 C3539 1.370 . S
C3538 C3542 1.524 . S
C3539 C3531 1.503 . S
C3539 C3538 1.370 . S
C3539 C3540 1.403 . S
C3540 C3539 1.403 . S
C3540 C3541 1.404 . S
C3540 C3543 1.539 . S
C3541 C3537 1.408 . S
C3541 C3540 1.404 . S
C3541 H3553 0.930 . S
C3542 C3538 1.524 . S
C3542 H3554 0.956 . S
C3542 H3555 0.961 . S
C3542 H3556 0.961 . S
C3543 C3540 1.539 . S
C3543 H3557 0.958 . S
C3543 H3558 0.961 . S
C3543 H3559 0.960 . S
H3544 C3528 0.931 . S
H3545 C3533 0.929 . S
H3546 C3534 0.960 . S
H3547 C3534 0.962 . S
H3548 C3534 0.960 . S
H3549 C3535 0.961 . S
H3550 C3535 0.961 . S
H3551 C3535 0.961 . S
H3552 C3536 0.931 . S
H3553 C3541 0.930 . S
H3554 C3542 0.956 . S
H3555 C3542 0.961 . S
H3556 C3542 0.961 . S
H3557 C3543 0.958 . S
H3558 C3543 0.961 . S
H3559 C3543 0.960 . S
C3560 C3561 1.391 . S
C3560 C3562 1.394 . S
C3560 H3576 0.931 . S
C3561 C3560 1.391 . S
C3561 C3565 1.376 1_554 S
C3562 C3560 1.394 . S
C3562 C3563 1.383 . S
C3562 C3566 1.531 . S
C3563 C3562 1.383 . S
C3563 C3564 1.396 1_554 S
C3563 C3571 1.502 1_554 S
C3564 C3563 1.396 1_556 S
C3564 C3565 1.392 . S
C3564 C3567 1.511 . S
C3565 C3561 1.376 1_556 S
C3565 C3564 1.392 . S
C3565 H3577 0.929 . S
C3566 C3562 1.531 . S
C3566 H3578 0.960 . S
C3566 H3579 0.962 . S
C3566 H3580 0.960 . S
C3567 C3564 1.511 . S
C3567 H3581 0.961 . S
C3567 H3582 0.961 . S
C3567 H3583 0.961 . S
C3568 C3569 1.370 . S
C3568 C3570 1.363 . S
C3568 H3584 0.931 . S
C3569 C3568 1.370 . S
C3569 C3573 1.408 . S
C3570 C3568 1.363 . S
C3570 C3571 1.370 . S
C3570 C3574 1.524 . S
C3571 C3563 1.502 1_556 S
C3571 C3570 1.370 . S
C3571 C3572 1.403 . S
C3572 C3571 1.403 . S
C3572 C3573 1.404 . S
C3572 C3575 1.536 1_556 S
C3573 C3569 1.408 . S
C3573 C3572 1.404 . S
C3573 H3585 0.930 1_565 S
C3574 C3570 1.524 . S
C3574 H3586 0.956 1_556 S
C3574 H3587 0.961 . S
C3574 H3588 0.961 . S
C3575 C3572 1.536 1_554 S
C3575 H3589 0.990 1_565 S
C3575 H3590 0.947 1_564 S
C3575 H3591 0.947 1_554 S
H3576 C3560 0.931 . S
H3577 C3565 0.929 . S
H3578 C3566 0.960 . S
H3579 C3566 0.962 . S
H3580 C3566 0.960 . S
H3581 C3567 0.961 . S
H3582 C3567 0.961 . S
H3583 C3567 0.961 . S
H3584 C3568 0.931 . S
H3585 C3573 0.930 1_545 S
H3586 C3574 0.956 1_554 S
H3587 C3574 0.961 . S
H3588 C3574 0.961 . S
H3589 C3575 0.990 1_545 S
H3590 C3575 0.947 1_546 S
H3591 C3575 0.947 1_556 S
C3592 C3593 1.391 . S
C3592 C3594 1.394 . S
C3592 H3608 0.931 . S
C3593 C3592 1.391 . S
C3593 C3597 1.376 . S
C3594 C3592 1.394 . S
C3594 C3595 1.369 . S
C3594 C3598 1.531 . S
C3595 C3594 1.369 . S
C3595 C3596 1.410 . S
C3595 C3603 1.503 . S
C3596 C3595 1.410 . S
C3596 C3597 1.392 . S
C3596 C3599 1.511 . S
C3597 C3593 1.376 . S
C3597 C3596 1.392 . S
C3597 H3609 0.929 . S
C3598 C3594 1.531 . S
C3598 H3610 0.960 . S
C3598 H3611 0.962 . S
C3598 H3612 0.960 . S
C3599 C3596 1.511 . S
C3599 H3613 0.961 . S
C3599 H3614 0.961 . S
C3599 H3615 0.961 . S
C3600 C3601 1.370 . S
C3600 C3602 1.363 . S
C3600 H3616 0.931 . S
C3601 C3600 1.370 . S
C3601 C3605 1.408 . S
C3602 C3600 1.363 . S
C3602 C3603 1.370 . S
C3602 C3606 1.524 . S
C3603 C3595 1.503 . S
C3603 C3602 1.370 . S
C3603 C3604 1.403 . S
C3604 C3603 1.403 . S
C3604 C3605 1.404 . S
C3604 C3607 1.539 . S
C3605 C3601 1.408 . S
C3605 C3604 1.404 . S
C3605 H3617 0.930 . S
C3606 C3602 1.524 . S
C3606 H3618 0.956 . S
C3606 H3619 0.961 . S
C3606 H3620 0.961 . S
C3607 C3604 1.539 . S
C3607 H3621 0.958 . S
C3607 H3622 0.961 . S
C3607 H3623 0.960 . S
H3608 C3592 0.931 . S
H3609 C3597 0.929 . S
H3610 C3598 0.960 . S
H3611 C3598 0.962 . S
H3612 C3598 0.960 . S
H3613 C3599 0.961 . S
H3614 C3599 0.961 . S
H3615 C3599 0.961 . S
H3616 C3600 0.931 . S
H3617 C3605 0.930 . S
H3618 C3606 0.956 . S
H3619 C3606 0.961 . S
H3620 C3606 0.961 . S
H3621 C3607 0.958 . S
H3622 C3607 0.961 . S
H3623 C3607 0.960 . S
C3624 C3625 1.391 . S
C3624 C3626 1.394 . S
C3624 H3640 0.931 . S
C3625 C3624 1.391 . S
C3625 C3629 1.376 . S
C3626 C3624 1.394 . S
C3626 C3627 1.369 . S
C3626 C3630 1.531 . S
C3627 C3626 1.369 . S
C3627 C3628 1.410 . S
C3627 C3635 1.503 . S
C3628 C3627 1.410 . S
C3628 C3629 1.392 . S
C3628 C3631 1.511 . S
C3629 C3625 1.376 . S
C3629 C3628 1.392 . S
C3629 H3641 0.929 . S
C3630 C3626 1.531 . S
C3630 H3642 0.960 . S
C3630 H3643 0.962 1_554 S
C3630 H3644 0.960 . S
C3631 C3628 1.511 . S
C3631 H3645 0.961 . S
C3631 H3646 0.961 . S
C3631 H3647 0.961 . S
C3632 C3633 1.370 1_556 S
C3632 C3634 1.363 . S
C3632 H3648 0.931 . S
C3633 C3632 1.370 1_554 S
C3633 C3637 1.408 . S
C3634 C3632 1.363 . S
C3634 C3635 1.370 1_556 S
C3634 C3638 1.524 . S
C3635 C3627 1.503 . S
C3635 C3634 1.370 1_554 S
C3635 C3636 1.403 . S
C3636 C3635 1.403 . S
C3636 C3637 1.404 . S
C3636 C3639 1.539 . S
C3637 C3633 1.408 . S
C3637 C3636 1.404 . S
C3637 H3649 0.930 . S
C3638 C3634 1.524 . S
C3638 H3650 0.956 . S
C3638 H3651 0.961 . S
C3638 H3652 0.961 . S
C3639 C3636 1.539 . S
C3639 H3653 0.958 . S
C3639 H3654 0.961 . S
C3639 H3655 0.960 . S
H3640 C3624 0.931 . S
H3641 C3629 0.929 . S
H3642 C3630 0.960 . S
H3643 C3630 0.962 1_556 S
H3644 C3630 0.960 . S
H3645 C3631 0.961 . S
H3646 C3631 0.961 . S
H3647 C3631 0.961 . S
H3648 C3632 0.931 . S
H3649 C3637 0.930 . S
H3650 C3638 0.956 . S
H3651 C3638 0.961 . S
H3652 C3638 0.961 . S
H3653 C3639 0.958 . S
H3654 C3639 0.961 . S
H3655 C3639 0.960 . S
C3656 C3657 1.391 . S
C3656 C3658 1.394 . S
C3656 H3672 0.931 . S
C3657 C3656 1.391 . S
C3657 C3661 1.376 . S
C3658 C3656 1.394 . S
C3658 C3659 1.369 . S
C3658 C3662 1.531 . S
C3659 C3658 1.369 . S
C3659 C3660 1.410 . S
C3659 C3667 1.503 . S
C3660 C3659 1.410 . S
C3660 C3661 1.392 . S
C3660 C3663 1.511 . S
C3661 C3657 1.376 . S
C3661 C3660 1.392 . S
C3661 H3673 0.929 . S
C3662 C3658 1.531 . S
C3662 H3674 0.960 . S
C3662 H3675 0.962 . S
C3662 H3676 0.960 . S
C3663 C3660 1.511 . S
C3663 H3677 0.961 . S
C3663 H3678 0.961 . S
C3663 H3679 0.961 . S
C3664 C3665 1.370 . S
C3664 C3666 1.363 . S
C3664 H3680 0.931 . S
C3665 C3664 1.370 . S
C3665 C3669 1.408 . S
C3666 C3664 1.363 . S
C3666 C3667 1.370 . S
C3666 C3670 1.524 . S
C3667 C3659 1.503 . S
C3667 C3666 1.370 . S
C3667 C3668 1.403 . S
C3668 C3667 1.403 . S
C3668 C3669 1.404 . S
C3668 C3671 1.539 . S
C3669 C3665 1.408 . S
C3669 C3668 1.404 . S
C3669 H3681 0.930 . S
C3670 C3666 1.524 . S
C3670 H3682 0.956 . S
C3670 H3683 0.961 . S
C3670 H3684 0.961 . S
C3671 C3668 1.539 . S
C3671 H3685 0.958 . S
C3671 H3686 0.961 . S
C3671 H3687 0.960 . S
H3672 C3656 0.931 . S
H3673 C3661 0.929 . S
H3674 C3662 0.960 . S
H3675 C3662 0.962 . S
H3676 C3662 0.960 . S
H3677 C3663 0.961 . S
H3678 C3663 0.961 . S
H3679 C3663 0.961 . S
H3680 C3664 0.931 . S
H3681 C3669 0.930 . S
H3682 C3670 0.956 . S
H3683 C3670 0.961 . S
H3684 C3670 0.961 . S
H3685 C3671 0.958 . S
H3686 C3671 0.961 . S
H3687 C3671 0.960 . S
C3688 C3689 1.391 . S
C3688 C3690 1.394 . S
C3688 H3704 0.931 . S
C3689 C3688 1.391 . S
C3689 C3693 1.376 . S
C3690 C3688 1.394 . S
C3690 C3691 1.369 . S
C3690 C3694 1.531 . S
C3691 C3690 1.369 . S
C3691 C3692 1.410 . S
C3691 C3699 1.503 . S
C3692 C3691 1.410 . S
C3692 C3693 1.392 . S
C3692 C3695 1.511 . S
C3693 C3689 1.376 . S
C3693 C3692 1.392 . S
C3693 H3705 0.929 . S
C3694 C3690 1.531 . S
C3694 H3706 0.960 . S
C3694 H3707 0.962 . S
C3694 H3708 0.960 . S
C3695 C3692 1.511 . S
C3695 H3709 0.961 . S
C3695 H3710 0.961 . S
C3695 H3711 0.961 . S
C3696 C3697 1.370 . S
C3696 C3698 1.363 . S
C3696 H3712 0.931 . S
C3697 C3696 1.370 . S
C3697 C3701 1.408 . S
C3698 C3696 1.363 . S
C3698 C3699 1.370 . S
C3698 C3702 1.524 . S
C3699 C3691 1.503 . S
C3699 C3698 1.370 . S
C3699 C3700 1.403 . S
C3700 C3699 1.403 . S
C3700 C3701 1.404 . S
C3700 C3703 1.539 . S
C3701 C3697 1.408 . S
C3701 C3700 1.404 . S
C3701 H3713 0.930 . S
C3702 C3698 1.524 . S
C3702 H3714 0.956 . S
C3702 H3715 0.961 . S
C3702 H3716 0.961 . S
C3703 C3700 1.539 . S
C3703 H3717 0.958 . S
C3703 H3718 0.961 . S
C3703 H3719 0.960 . S
H3704 C3688 0.931 . S
H3705 C3693 0.929 . S
H3706 C3694 0.960 . S
H3707 C3694 0.962 . S
H3708 C3694 0.960 . S
H3709 C3695 0.961 . S
H3710 C3695 0.961 . S
H3711 C3695 0.961 . S
H3712 C3696 0.931 . S
H3713 C3701 0.930 . S
H3714 C3702 0.956 . S
H3715 C3702 0.961 . S
H3716 C3702 0.961 . S
H3717 C3703 0.958 . S
H3718 C3703 0.961 . S
H3719 C3703 0.960 . S
C657 C328 1.186 . S
C649 C10 1.304 . S
C681 C13 1.029 . S
C689 C348 1.082 . S
C713 C34 1.230 . S
C721 C370 1.184 . S
C753 C389 1.257 . S
C745 C44 1.245 . S
C777 C21 1.241 . S
C785 C410 1.291 . S
C817 C433 1.144 . S
C809 C26 1.207 . S
C849 C456 1.129 . S
C841 C49 1.165 . S
C873 C5 1.247 . S
C881 C474 1.227 . S
C905 C62 1.209 . S
C913 C330 1.187 . S
C937 C73 1.206 . S
C945 C350 1.250 . S
C977 C372 1.105 . S
C969 C88 1.114 . S
C1009 C391 1.200 . S
C1001 C99 1.285 . S
C1033 C60 1.284 1_565 S
C1041 C412 1.226 . S
C1073 C435 1.074 . S
C1065 C75 1.072 . S
C1105 C452 1.220 . S
C1097 C86 1.201 . S
C1137 C476 1.201 . S
C1129 C101 1.228 . S
C1169 C326 1.197 . S
C1161 C96 1.246 . S
C1201 C498 1.078 . S
C1193 C104 1.051 . S
C1225 C122 1.197 . S
C1233 C515 1.152 . S
C1265 C538 1.162 . S
C1257 C130 1.240 . S
C1289 C57 1.178 . S
C1297 C472 1.128 . S
C1329 C368 1.264 . S
C1321 C70 1.227 . S
C1353 C117 1.015 . S
C1361 C561 1.023 . S
C1393 C577 1.093 . S
C1385 C143 1.144 . S
C1417 C164 1.365 . S
C1425 C325 1.225 . S
C1457 C578 1.215 . S
C1449 C169 1.233 . S
C1481 C192 1.441 . S
C1489 C367 1.321 . S
C1513 C200 1.179 . S
C1521 C558 1.209 . S
C1553 C411 1.246 . S
C1545 C179 1.275 . S
C1585 C514 1.209 . S
C1577 C182 1.283 . S
C1617 C455 1.360 . S
C1609 C203 1.322 . S
C1649 C599 1.371 . S
C1641 C161 1.350 . S
C1681 C329 1.319 . S
C1673 C216 1.341 1_545 S
C1705 C231 1.198 . S
C1713 C582 1.173 . S
C1745 C371 1.267 . S
C1737 C242 1.245 . S
C1769 C257 1.300 . S
C1777 C556 1.185 . S
C1801 C218 1.369 . S
C1809 C409 1.261 . S
C1833 C229 1.300 . S
C1841 C518 1.273 . S
C1873 C453 1.170 . S
C1865 C244 1.186 . S
C1897 C255 1.255 . S
C1905 C603 1.212 . S
C1929 C252 1.274 . S
C1937 C327 1.222 . S
C1961 C260 1.268 1_556 S
C1969 C497 1.259 . S
C1993 C278 1.146 . S
C2001 C432 1.134 . S
C2025 C286 1.254 . S
C2033 C535 1.214 . S
C2065 C601 1.157 . S
C2057 C213 1.180 . S
C2097 C369 1.209 . S
C2089 C226 1.174 . S
C2129 C392 1.174 . S
C2121 C273 1.194 . S
C2161 C349 1.197 . S
C2153 C299 1.282 . S
C2185 C36 1.316 . S
C2193 C622 1.205 . S
C2225 C579 1.069 . S
C2217 C39 1.023 . S
C2257 C643 1.210 . S
C2249 C8 1.287 . S
C2281 C18 1.226 . S
C2289 C557 1.263 . S
C2313 C47 1.305 . S
C2321 C494 1.269 . S
C2353 C517 1.185 . S
C2345 C0 1.255 . S
C2385 C540 1.154 . S
C2377 C23 1.159 . S
C2417 C600 1.213 . S
C2409 C31 1.229 . S
C2449 C624 1.172 . S
C2441 C153 1.220 . S
C2473 C112 1.192 . S
C2481 C581 1.243 . S
C2505 C127 1.125 . S
C2513 C645 1.091 . S
C2545 C559 1.167 . S
C2537 C138 1.247 . S
C2577 C496 1.183 . S
C2569 C151 1.236 . S
C2601 C114 1.074 . S
C2609 C519 1.073 . S
C2641 C536 1.228 . S
C2633 C125 1.243 . S
C2665 C140 1.229 . S
C2673 C602 1.205 . S
C2705 C620 1.222 . S
C2697 C135 1.197 . S
C2737 C414 1.051 . S
C2729 C65 1.043 . S
C2769 C431 1.150 . S
C2761 C83 1.195 . S
C2793 C91 1.211 . S
C2801 C454 1.153 . S
C2833 C598 1.107 . S
C2825 C148 1.151 . S
C2857 C109 1.232 . S
C2865 C641 1.261 . S
C2897 C393 0.991 . S
C2889 C78 1.010 . S
C2929 C346 1.045 . S
C2921 C52 1.090 . S
C2953 C190 1.306 . S
C2961 C619 1.264 . S
C2993 C347 1.235 . S
C2985 C195 1.214 . S
C3025 C640 1.298 . S
C3017 C166 1.440 . S
C3049 C174 1.224 . S
C3057 C390 1.187 . S
C3081 C205 1.264 . S
C3089 C495 1.230 . S
C3113 C156 1.303 . S
C3121 C430 1.190 . S
C3145 C177 1.320 . S
C3153 C539 1.358 . S
C3177 C187 1.325 . S
C3185 C473 1.357 . S
C3217 C623 1.321 . S
C3209 C307 1.344 . S
C3241 C270 1.215 . S
C3249 C351 1.188 . S
C3281 C644 1.267 . S
C3273 C281 1.245 . S
C3305 C296 1.300 . S
C3313 C388 1.189 . S
C3337 C309 1.364 . S
C3345 C493 1.250 . S
C3377 C434 1.280 . S
C3369 C268 1.295 . S
C3401 C283 1.189 . S
C3409 C537 1.143 . S
C3441 C477 1.203 . S
C3433 C294 1.215 . S
C3473 C621 1.222 . S
C3465 C291 1.270 . S
C3505 C413 1.280 . S
C3497 C221 1.259 . S
C3529 C239 1.128 . S
C3537 C516 1.142 . S
C3569 C451 1.190 . S
C3561 C247 1.291 . S
C3601 C475 1.165 . S
C3593 C304 1.232 . S
C3625 C265 1.187 . S
C3633 C642 1.205 . S
C3665 C560 1.193 . S
C3657 C234 1.158 . S
C3697 C580 1.207 . S
C3689 C208 1.276 . S
