# Generated by pormake.
# Topology gar, (4,6)-cn, num edge types: 1
# Building blocks:
#     Node 0, Type 0, BuildingBlock: NAHDIM_clean_sbu_0, # of connection points: 4
#     Node 1, Type 0, BuildingBlock: NAHDIM_clean_sbu_0, # of connection points: 4
#     Node 2, Type 0, BuildingBlock: NAHDIM_clean_sbu_0, # of connection points: 4
#     Node 3, Type 0, BuildingBlock: NAHDIM_clean_sbu_0, # of connection points: 4
#     Node 4, Type 0, BuildingBlock: NAHDIM_clean_sbu_0, # of connection points: 4
#     Node 5, Type 0, BuildingBlock: NAHDIM_clean_sbu_0, # of connection points: 4
#     Node 6, Type 0, BuildingBlock: NAHDIM_clean_sbu_0, # of connection points: 4
#     Node 7, Type 0, BuildingBlock: NAHDIM_clean_sbu_0, # of connection points: 4
#     Node 8, Type 0, BuildingBlock: NAHDIM_clean_sbu_0, # of connection points: 4
#     Node 9, Type 0, BuildingBlock: NAHDIM_clean_sbu_0, # of connection points: 4
#     Node 10, Type 0, BuildingBlock: NAHDIM_clean_sbu_0, # of connection points: 4
#     Node 11, Type 0, BuildingBlock: NAHDIM_clean_sbu_0, # of connection points: 4
#     Node 12, Type 0, BuildingBlock: NAHDIM_clean_sbu_0, # of connection points: 4
#     Node 13, Type 0, BuildingBlock: NAHDIM_clean_sbu_0, # of connection points: 4
#     Node 14, Type 0, BuildingBlock: NAHDIM_clean_sbu_0, # of connection points: 4
#     Node 15, Type 0, BuildingBlock: NAHDIM_clean_sbu_0, # of connection points: 4
#     Node 16, Type 0, BuildingBlock: NAHDIM_clean_sbu_0, # of connection points: 4
#     Node 17, Type 0, BuildingBlock: NAHDIM_clean_sbu_0, # of connection points: 4
#     Node 18, Type 0, BuildingBlock: NAHDIM_clean_sbu_0, # of connection points: 4
#     Node 19, Type 0, BuildingBlock: NAHDIM_clean_sbu_0, # of connection points: 4
#     Node 20, Type 0, BuildingBlock: NAHDIM_clean_sbu_0, # of connection points: 4
#     Node 21, Type 0, BuildingBlock: NAHDIM_clean_sbu_0, # of connection points: 4
#     Node 22, Type 0, BuildingBlock: NAHDIM_clean_sbu_0, # of connection points: 4
#     Node 23, Type 0, BuildingBlock: NAHDIM_clean_sbu_0, # of connection points: 4
#     Node 24, Type 1, BuildingBlock: PAMTUU_clean_sbu_0, # of connection points: 6
#     Node 25, Type 1, BuildingBlock: PAMTUU_clean_sbu_0, # of connection points: 6
#     Node 26, Type 1, BuildingBlock: PAMTUU_clean_sbu_0, # of connection points: 6
#     Node 27, Type 1, BuildingBlock: PAMTUU_clean_sbu_0, # of connection points: 6
#     Node 28, Type 1, BuildingBlock: PAMTUU_clean_sbu_0, # of connection points: 6
#     Node 29, Type 1, BuildingBlock: PAMTUU_clean_sbu_0, # of connection points: 6
#     Node 30, Type 1, BuildingBlock: PAMTUU_clean_sbu_0, # of connection points: 6
#     Node 31, Type 1, BuildingBlock: PAMTUU_clean_sbu_0, # of connection points: 6
#     Node 32, Type 1, BuildingBlock: PAMTUU_clean_sbu_0, # of connection points: 6
#     Node 33, Type 1, BuildingBlock: PAMTUU_clean_sbu_0, # of connection points: 6
#     Node 34, Type 1, BuildingBlock: PAMTUU_clean_sbu_0, # of connection points: 6
#     Node 35, Type 1, BuildingBlock: PAMTUU_clean_sbu_0, # of connection points: 6
#     Node 36, Type 1, BuildingBlock: PAMTUU_clean_sbu_0, # of connection points: 6
#     Node 37, Type 1, BuildingBlock: PAMTUU_clean_sbu_0, # of connection points: 6
#     Node 38, Type 1, BuildingBlock: PAMTUU_clean_sbu_0, # of connection points: 6
#     Node 39, Type 1, BuildingBlock: PAMTUU_clean_sbu_0, # of connection points: 6
#     Edge 40, Type (0, 1), BuildingBlock: MIFKUJ_clean_linker_0, # of connection points: 2
#     Edge 41, Type (0, 1), BuildingBlock: MIFKUJ_clean_linker_0, # of connection points: 2
#     Edge 42, Type (0, 1), BuildingBlock: MIFKUJ_clean_linker_0, # of connection points: 2
#     Edge 43, Type (0, 1), BuildingBlock: MIFKUJ_clean_linker_0, # of connection points: 2
#     Edge 44, Type (0, 1), BuildingBlock: MIFKUJ_clean_linker_0, # of connection points: 2
#     Edge 45, Type (0, 1), BuildingBlock: MIFKUJ_clean_linker_0, # of connection points: 2
#     Edge 46, Type (0, 1), BuildingBlock: MIFKUJ_clean_linker_0, # of connection points: 2
#     Edge 47, Type (0, 1), BuildingBlock: MIFKUJ_clean_linker_0, # of connection points: 2
#     Edge 48, Type (0, 1), BuildingBlock: MIFKUJ_clean_linker_0, # of connection points: 2
#     Edge 49, Type (0, 1), BuildingBlock: MIFKUJ_clean_linker_0, # of connection points: 2
#     Edge 50, Type (0, 1), BuildingBlock: MIFKUJ_clean_linker_0, # of connection points: 2
#     Edge 51, Type (0, 1), BuildingBlock: MIFKUJ_clean_linker_0, # of connection points: 2
#     Edge 52, Type (0, 1), BuildingBlock: MIFKUJ_clean_linker_0, # of connection points: 2
#     Edge 53, Type (0, 1), BuildingBlock: MIFKUJ_clean_linker_0, # of connection points: 2
#     Edge 54, Type (0, 1), BuildingBlock: MIFKUJ_clean_linker_0, # of connection points: 2
#     Edge 55, Type (0, 1), BuildingBlock: MIFKUJ_clean_linker_0, # of connection points: 2
#     Edge 56, Type (0, 1), BuildingBlock: MIFKUJ_clean_linker_0, # of connection points: 2
#     Edge 57, Type (0, 1), BuildingBlock: MIFKUJ_clean_linker_0, # of connection points: 2
#     Edge 58, Type (0, 1), BuildingBlock: MIFKUJ_clean_linker_0, # of connection points: 2
#     Edge 59, Type (0, 1), BuildingBlock: MIFKUJ_clean_linker_0, # of connection points: 2
#     Edge 60, Type (0, 1), BuildingBlock: MIFKUJ_clean_linker_0, # of connection points: 2
#     Edge 61, Type (0, 1), BuildingBlock: MIFKUJ_clean_linker_0, # of connection points: 2
#     Edge 62, Type (0, 1), BuildingBlock: MIFKUJ_clean_linker_0, # of connection points: 2
#     Edge 63, Type (0, 1), BuildingBlock: MIFKUJ_clean_linker_0, # of connection points: 2
#     Edge 64, Type (0, 1), BuildingBlock: MIFKUJ_clean_linker_0, # of connection points: 2
#     Edge 65, Type (0, 1), BuildingBlock: MIFKUJ_clean_linker_0, # of connection points: 2
#     Edge 66, Type (0, 1), BuildingBlock: MIFKUJ_clean_linker_0, # of connection points: 2
#     Edge 67, Type (0, 1), BuildingBlock: MIFKUJ_clean_linker_0, # of connection points: 2
#     Edge 68, Type (0, 1), BuildingBlock: MIFKUJ_clean_linker_0, # of connection points: 2
#     Edge 69, Type (0, 1), BuildingBlock: MIFKUJ_clean_linker_0, # of connection points: 2
#     Edge 70, Type (0, 1), BuildingBlock: MIFKUJ_clean_linker_0, # of connection points: 2
#     Edge 71, Type (0, 1), BuildingBlock: MIFKUJ_clean_linker_0, # of connection points: 2
#     Edge 72, Type (0, 1), BuildingBlock: MIFKUJ_clean_linker_0, # of connection points: 2
#     Edge 73, Type (0, 1), BuildingBlock: MIFKUJ_clean_linker_0, # of connection points: 2
#     Edge 74, Type (0, 1), BuildingBlock: MIFKUJ_clean_linker_0, # of connection points: 2
#     Edge 75, Type (0, 1), BuildingBlock: MIFKUJ_clean_linker_0, # of connection points: 2
#     Edge 76, Type (0, 1), BuildingBlock: MIFKUJ_clean_linker_0, # of connection points: 2
#     Edge 77, Type (0, 1), BuildingBlock: MIFKUJ_clean_linker_0, # of connection points: 2
#     Edge 78, Type (0, 1), BuildingBlock: MIFKUJ_clean_linker_0, # of connection points: 2
#     Edge 79, Type (0, 1), BuildingBlock: MIFKUJ_clean_linker_0, # of connection points: 2
#     Edge 80, Type (0, 1), BuildingBlock: MIFKUJ_clean_linker_0, # of connection points: 2
#     Edge 81, Type (0, 1), BuildingBlock: MIFKUJ_clean_linker_0, # of connection points: 2
#     Edge 82, Type (0, 1), BuildingBlock: MIFKUJ_clean_linker_0, # of connection points: 2
#     Edge 83, Type (0, 1), BuildingBlock: MIFKUJ_clean_linker_0, # of connection points: 2
#     Edge 84, Type (0, 1), BuildingBlock: MIFKUJ_clean_linker_0, # of connection points: 2
#     Edge 85, Type (0, 1), BuildingBlock: MIFKUJ_clean_linker_0, # of connection points: 2
#     Edge 86, Type (0, 1), BuildingBlock: MIFKUJ_clean_linker_0, # of connection points: 2
#     Edge 87, Type (0, 1), BuildingBlock: MIFKUJ_clean_linker_0, # of connection points: 2
#     Edge 88, Type (0, 1), BuildingBlock: MIFKUJ_clean_linker_0, # of connection points: 2
#     Edge 89, Type (0, 1), BuildingBlock: MIFKUJ_clean_linker_0, # of connection points: 2
#     Edge 90, Type (0, 1), BuildingBlock: MIFKUJ_clean_linker_0, # of connection points: 2
#     Edge 91, Type (0, 1), BuildingBlock: MIFKUJ_clean_linker_0, # of connection points: 2
#     Edge 92, Type (0, 1), BuildingBlock: MIFKUJ_clean_linker_0, # of connection points: 2
#     Edge 93, Type (0, 1), BuildingBlock: MIFKUJ_clean_linker_0, # of connection points: 2
#     Edge 94, Type (0, 1), BuildingBlock: MIFKUJ_clean_linker_0, # of connection points: 2
#     Edge 95, Type (0, 1), BuildingBlock: MIFKUJ_clean_linker_0, # of connection points: 2
#     Edge 96, Type (0, 1), BuildingBlock: MIFKUJ_clean_linker_0, # of connection points: 2
#     Edge 97, Type (0, 1), BuildingBlock: MIFKUJ_clean_linker_0, # of connection points: 2
#     Edge 98, Type (0, 1), BuildingBlock: MIFKUJ_clean_linker_0, # of connection points: 2
#     Edge 99, Type (0, 1), BuildingBlock: MIFKUJ_clean_linker_0, # of connection points: 2
#     Edge 100, Type (0, 1), BuildingBlock: MIFKUJ_clean_linker_0, # of connection points: 2
#     Edge 101, Type (0, 1), BuildingBlock: MIFKUJ_clean_linker_0, # of connection points: 2
#     Edge 102, Type (0, 1), BuildingBlock: MIFKUJ_clean_linker_0, # of connection points: 2
#     Edge 103, Type (0, 1), BuildingBlock: MIFKUJ_clean_linker_0, # of connection points: 2
#     Edge 104, Type (0, 1), BuildingBlock: MIFKUJ_clean_linker_0, # of connection points: 2
#     Edge 105, Type (0, 1), BuildingBlock: MIFKUJ_clean_linker_0, # of connection points: 2
#     Edge 106, Type (0, 1), BuildingBlock: MIFKUJ_clean_linker_0, # of connection points: 2
#     Edge 107, Type (0, 1), BuildingBlock: MIFKUJ_clean_linker_0, # of connection points: 2
#     Edge 108, Type (0, 1), BuildingBlock: MIFKUJ_clean_linker_0, # of connection points: 2
#     Edge 109, Type (0, 1), BuildingBlock: MIFKUJ_clean_linker_0, # of connection points: 2
#     Edge 110, Type (0, 1), BuildingBlock: MIFKUJ_clean_linker_0, # of connection points: 2
#     Edge 111, Type (0, 1), BuildingBlock: MIFKUJ_clean_linker_0, # of connection points: 2
#     Edge 112, Type (0, 1), BuildingBlock: MIFKUJ_clean_linker_0, # of connection points: 2
#     Edge 113, Type (0, 1), BuildingBlock: MIFKUJ_clean_linker_0, # of connection points: 2
#     Edge 114, Type (0, 1), BuildingBlock: MIFKUJ_clean_linker_0, # of connection points: 2
#     Edge 115, Type (0, 1), BuildingBlock: MIFKUJ_clean_linker_0, # of connection points: 2
#     Edge 116, Type (0, 1), BuildingBlock: MIFKUJ_clean_linker_0, # of connection points: 2
#     Edge 117, Type (0, 1), BuildingBlock: MIFKUJ_clean_linker_0, # of connection points: 2
#     Edge 118, Type (0, 1), BuildingBlock: MIFKUJ_clean_linker_0, # of connection points: 2
#     Edge 119, Type (0, 1), BuildingBlock: MIFKUJ_clean_linker_0, # of connection points: 2
#     Edge 120, Type (0, 1), BuildingBlock: MIFKUJ_clean_linker_0, # of connection points: 2
#     Edge 121, Type (0, 1), BuildingBlock: MIFKUJ_clean_linker_0, # of connection points: 2
#     Edge 122, Type (0, 1), BuildingBlock: MIFKUJ_clean_linker_0, # of connection points: 2
#     Edge 123, Type (0, 1), BuildingBlock: MIFKUJ_clean_linker_0, # of connection points: 2
#     Edge 124, Type (0, 1), BuildingBlock: MIFKUJ_clean_linker_0, # of connection points: 2
#     Edge 125, Type (0, 1), BuildingBlock: MIFKUJ_clean_linker_0, # of connection points: 2
#     Edge 126, Type (0, 1), BuildingBlock: MIFKUJ_clean_linker_0, # of connection points: 2
#     Edge 127, Type (0, 1), BuildingBlock: MIFKUJ_clean_linker_0, # of connection points: 2
#     Edge 128, Type (0, 1), BuildingBlock: MIFKUJ_clean_linker_0, # of connection points: 2
#     Edge 129, Type (0, 1), BuildingBlock: MIFKUJ_clean_linker_0, # of connection points: 2
#     Edge 130, Type (0, 1), BuildingBlock: MIFKUJ_clean_linker_0, # of connection points: 2
#     Edge 131, Type (0, 1), BuildingBlock: MIFKUJ_clean_linker_0, # of connection points: 2
#     Edge 132, Type (0, 1), BuildingBlock: MIFKUJ_clean_linker_0, # of connection points: 2
#     Edge 133, Type (0, 1), BuildingBlock: MIFKUJ_clean_linker_0, # of connection points: 2
#     Edge 134, Type (0, 1), BuildingBlock: MIFKUJ_clean_linker_0, # of connection points: 2
#     Edge 135, Type (0, 1), BuildingBlock: MIFKUJ_clean_linker_0, # of connection points: 2
# Relax obj value: 0.165
# Max RMSD: 0.307
# Mean RMSD: 0.182
data_MOF--net-gar--node1-NAHDIM_clean_sbu_0--node2-PAMTUU_clean_sbu_0--edge1-MIFKUJ_clean_linker_0
_symmetry_space_group_name_H-M    P1
_symmetry_Int_Tables_number       1
_symmetry_cell_setting            triclinic
loop_
_symmetry_equiv_pos_as_xyz
'x, y, z'
_cell_length_a     77.558279
_cell_length_b     72.465664
_cell_length_c     73.917763
_cell_angle_alpha  93.587166
_cell_angle_beta   93.637333
_cell_angle_gamma 106.88612
loop_
_atom_site_label
_atom_site_type_symbol
_atom_site_fract_x
_atom_site_fract_y
_atom_site_fract_z
_atom_type_partial_charge
C0 C 0.08522 0.28021 0.37293 0.0
O1 O 0.08912 0.29014 0.38891 0.0
O2 O 0.04186 0.242 0.39952 0.0
Zn3 Zn 0.04378 0.26881 0.38476 0.0
O4 O 0.04779 0.2953 0.40318 0.0
C5 C 1.00122 0.25998 0.37174 0.0
O6 O 0.99865 0.25111 0.38674 0.0
O7 O 0.06821 0.27127 0.36823 0.0
C8 C 0.04329 0.31013 0.398 0.0
O9 O 0.03673 0.3091 0.38101 0.0
C10 C 0.0331 0.23462 0.41301 0.0
O11 O 0.02269 0.24395 0.42029 0.0
O12 O 0.01784 0.26722 0.36789 0.0
C13 C 0.99485 0.77804 0.67469 0.0
O14 O 0.99146 0.77515 0.65693 0.0
O15 O 0.03152 0.75409 0.64713 0.0
Zn16 Zn 0.03614 0.78212 0.66448 0.0
O17 O 0.03859 0.80714 0.64692 0.0
C18 C 0.07854 0.78822 0.67631 0.0
O19 O 0.08019 0.7919 0.65922 0.0
O20 O 0.01161 0.78088 0.68099 0.0
C21 C 0.03951 0.82491 0.65211 0.0
O22 O 0.03962 0.82923 0.66965 0.0
C23 C 0.04307 0.74427 0.64591 0.0
O24 O 0.05861 0.75116 0.65569 0.0
O25 O 0.06239 0.78487 0.68186 0.0
C26 C 0.58514 0.77801 0.87341 0.0
O27 O 0.58907 0.78585 0.89024 0.0
O28 O 0.53956 0.74174 0.89944 0.0
Zn29 Zn 0.54362 0.76907 0.88488 0.0
O30 O 0.54915 0.79641 0.90277 0.0
C31 C 0.50203 0.75565 0.86444 0.0
O32 O 0.50112 0.73785 0.8679 0.0
O33 O 0.56798 0.77079 0.86801 0.0
C34 C 0.537 0.80247 0.91046 0.0
O35 O 0.52036 0.79085 0.90874 0.0
C36 C 0.54758 0.73859 0.91439 0.0
O37 O 0.55958 0.75351 0.92341 0.0
O38 O 0.51726 0.769 0.86922 0.0
C39 C 0.49552 0.28178 0.17626 0.0
O40 O 0.49318 0.28351 0.15876 0.0
O41 O 0.53101 0.25462 0.14883 0.0
Zn42 Zn 0.53578 0.28279 0.16541 0.0
O43 O 0.5367 0.30786 0.14813 0.0
C44 C 0.57876 0.2905 0.17798 0.0
O45 O 0.58152 0.29774 0.16221 0.0
O46 O 0.51146 0.281 0.18232 0.0
C47 C 0.54892 0.3242 0.14661 0.0
O48 O 0.56451 0.32754 0.1562 0.0
C49 C 0.54341 0.24875 0.14141 0.0
O50 O 0.55981 0.26087 0.14281 0.0
O51 O 0.56211 0.28476 0.18226 0.0
C52 C 0.03573 0.7804 0.14055 0.0
O53 O 0.03288 0.77032 0.12467 0.0
O54 O 0.06686 0.76711 0.11474 0.0
Zn55 Zn 0.07207 0.79308 0.12942 0.0
O56 O 0.07166 0.81469 0.11295 0.0
C57 C 0.11154 0.80237 0.14054 0.0
O58 O 0.11404 0.80783 0.12406 0.0
O59 O 0.05163 0.79118 0.14575 0.0
C60 C 0.0819 0.83208 0.11503 0.0
O61 O 0.09493 0.83713 0.12824 0.0
C62 C 0.07698 0.76316 0.10314 0.0
O63 O 0.09132 0.77681 0.09944 0.0
O64 O 0.09552 0.79683 0.14546 0.0
C65 C 0.5394 0.75592 0.40583 0.0
O66 O 0.53569 0.74044 0.4149 0.0
O67 O 0.50304 0.73587 0.43234 0.0
Zn68 Zn 0.50626 0.76081 0.41969 0.0
O69 O 0.50861 0.78479 0.437 0.0
C70 C 0.46853 0.75007 0.40572 0.0
O71 O 0.46594 0.7438 0.42192 0.0
O72 O 0.52878 0.76641 0.40585 0.0
C73 C 0.50275 0.79802 0.43069 0.0
O74 O 0.49522 0.7953 0.41393 0.0
C75 C 0.51196 0.73444 0.44697 0.0
O76 O 0.5236 0.75008 0.4553 0.0
O77 O 0.48462 0.75725 0.40152 0.0
C78 C 0.53921 0.28795 0.6354 0.0
O79 O 0.537 0.28752 0.61759 0.0
O80 O 0.57022 0.27158 0.60884 0.0
Zn81 Zn 0.57567 0.29539 0.62684 0.0
O82 O 0.57665 0.32025 0.61472 0.0
C83 C 0.60245 0.28252 0.64692 0.0
O84 O 0.59079 0.26564 0.64147 0.0
O85 O 0.55508 0.29101 0.64299 0.0
C86 C 0.57249 0.32102 0.59789 0.0
O87 O 0.56818 0.30507 0.58697 0.0
C88 C 0.58224 0.26707 0.6001 0.0
O89 O 0.59875 0.279 0.60158 0.0
O90 O 0.59899 0.29787 0.64252 0.0
C91 C 0.04376 0.26226 0.91018 0.0
O92 O 0.04598 0.25859 0.92721 0.0
O93 O 1.00421 0.23388 0.93203 0.0
Zn94 Zn 0.00723 0.25882 0.91944 0.0
O95 O 0.01229 0.28365 0.93645 0.0
C96 C 0.96896 0.24884 0.90701 0.0
O97 O 0.96661 0.24293 0.92337 0.0
O98 O 0.02831 0.2628 0.90383 0.0
C99 C 1.00003 0.29136 0.94037 0.0
O100 O 0.98314 0.28223 0.93472 0.0
C101 C 0.01166 0.23236 0.94749 0.0
O102 O 0.02181 0.24807 0.95708 0.0
O103 O 0.98491 0.25583 0.90237 0.0
C104 C 0.41182 0.07921 0.31121 0.0
O105 O 0.42938 0.08465 0.31542 0.0
O106 O 0.43563 0.05364 0.28573 0.0
Zn107 Zn 0.41701 0.04282 0.30267 0.0
O108 O 0.4287 0.03699 0.32521 0.0
C109 C 0.40447 0.00902 0.27791 0.0
O110 O 0.42072 0.01517 0.27228 0.0
O111 O 0.40358 0.06149 0.30696 0.0
C112 C 0.43825 0.02552 0.32361 0.0
O113 O 0.43917 0.01735 0.30748 0.0
C114 C 0.45256 0.05992 0.28986 0.0
O115 O 0.45915 0.06056 0.30677 0.0
O116 O 0.39995 0.01868 0.2907 0.0
C117 C 0.3287 0.17169 0.51844 0.0
O118 O 0.3339 0.18937 0.51332 0.0
O119 O 0.29858 0.19855 0.54126 0.0
Zn120 Zn 0.29424 0.17935 0.51876 0.0
O121 O 0.29667 0.19086 0.49416 0.0
C122 C 0.25526 0.16276 0.51148 0.0
O123 O 0.25655 0.17849 0.50308 0.0
O124 O 0.31228 0.16435 0.52152 0.0
C125 C 0.29583 0.20748 0.49036 0.0
O126 O 0.29336 0.21945 0.50336 0.0
C127 C 0.28639 0.20528 0.54726 0.0
O128 O 0.27073 0.20136 0.53766 0.0
O129 O 0.26948 0.16008 0.51889 0.0
C130 C 0.17826 0.98768 0.81328 0.0
O131 O 0.16066 0.98416 0.81052 0.0
O132 O 0.15927 0.02209 0.79681 0.0
Zn133 Zn 0.17526 0.02453 0.81955 0.0
O134 O 0.16091 0.02059 0.84075 0.0
C135 C 0.18252 0.06387 0.82272 0.0
O136 O 0.16476 0.05771 0.8212 0.0
O137 O 0.18815 0.00489 0.81771 0.0
C138 C 0.16737 0.03014 0.85585 0.0
O139 O 0.18405 0.04166 0.85762 0.0
C140 C 0.1422 0.01812 0.79647 0.0
O141 O 0.13424 0.01442 0.81156 0.0
O142 O 0.19136 0.0516 0.82235 0.0
C143 C 0.25371 0.93217 -0.00035 0.0
O144 O 0.24856 0.91588 0.98918 0.0
O145 O 0.28703 0.90626 0.02286 0.0
Zn146 Zn 0.28774 0.92442 0.00355 0.0
O147 O 0.28476 0.91056 0.97876 0.0
C148 C 0.32045 0.94975 0.02223 0.0
O149 O 0.31232 0.94611 0.03721 0.0
O150 O 0.26979 0.93836 0.00688 0.0
C151 C 0.29891 0.91023 0.97111 0.0
O152 O 0.31494 0.91936 0.97924 0.0
C153 C 0.29864 0.89701 0.02285 0.0
O154 O 0.30907 0.89835 0.00939 0.0
O155 O 0.31206 0.94306 0.00687 0.0
C156 C 0.25397 0.38021 0.02036 0.0
O157 O 0.24841 0.36175 0.01462 0.0
O158 O 0.28273 0.35674 0.05234 0.0
Zn159 Zn 0.28766 0.37204 0.02991 0.0
O160 O 0.28532 0.35528 0.00618 0.0
C161 C 0.32646 0.38659 0.02838 0.0
O162 O 0.32448 0.36858 0.02236 0.0
O163 O 0.27006 0.38755 0.0275 0.0
C164 C 0.2904 0.36478 0.99256 0.0
O165 O 0.2962 0.38377 0.99498 0.0
C166 C 0.29556 0.35595 0.06362 0.0
O167 O 0.31231 0.36434 0.06021 0.0
O168 O 0.31267 0.39135 0.03287 0.0
C169 C 0.82832 0.12828 0.03769 0.0
O170 O 0.83069 0.14532 0.03141 0.0
O171 O 0.80328 0.15606 0.06708 0.0
Zn172 Zn 0.7954 0.13344 0.04866 0.0
O173 O 0.78753 0.14019 0.02442 0.0
C174 C 0.76666 0.11704 0.07101 0.0
O175 O 0.7737 0.13303 0.08167 0.0
O176 O 0.81448 0.12099 0.046 0.0
C177 C 0.77192 0.14236 0.02175 0.0
O178 O 0.76146 0.14104 0.03522 0.0
C179 C 0.7992 0.17168 0.06567 0.0
O180 O 0.79143 0.17462 0.05027 0.0
O181 O 0.7742 0.11405 0.05684 0.0
C182 C 0.16802 0.46845 0.24176 0.0
O183 O 0.151 0.46411 0.24536 0.0
O184 O 0.14433 0.49856 0.21252 0.0
Zn185 Zn 0.162 0.50386 0.23405 0.0
O186 O 0.14973 0.5047 0.257 0.0
C187 C 0.17407 0.54301 0.22561 0.0
O188 O 0.15726 0.5392 0.21874 0.0
O189 O 0.17533 0.48453 0.23554 0.0
C190 C 0.13901 0.51486 0.25891 0.0
O191 O 0.1357 0.52475 0.24553 0.0
C192 C 0.1275 0.4907 0.21299 0.0
O193 O 0.12127 0.48306 0.2278 0.0
O194 O 0.17944 0.52986 0.23255 0.0
C195 C 0.75269 0.88474 0.53347 0.0
O196 O 0.74746 0.86838 0.54115 0.0
O197 O 0.78488 0.8625 0.55447 0.0
Zn198 Zn 0.78632 0.87483 0.5302 0.0
O199 O 0.78147 0.85706 0.50669 0.0
C200 C 0.8254 0.88893 0.53266 0.0
O201 O 0.82401 0.87111 0.53642 0.0
O202 O 0.76855 0.89027 0.52828 0.0
C203 C 0.78941 0.84473 0.50167 0.0
O204 O 0.80114 0.84077 0.51322 0.0
C205 C 0.7791 0.84477 0.55762 0.0
O206 O 0.77299 0.83154 0.54391 0.0
O207 O 0.81112 0.89395 0.52992 0.0
C208 C 0.9053 0.06809 0.23072 0.0
O209 O 0.92265 0.07747 0.23232 0.0
O210 O 0.93775 0.04679 0.2096 0.0
Zn211 Zn 0.91809 0.03566 0.2252 0.0
O212 O 0.92888 0.03542 0.25025 0.0
C213 C 0.91361 0.99581 0.21559 0.0
O214 O 0.93073 1.00073 0.22172 0.0
O215 O 0.9002 0.05001 0.22659 0.0
C216 C 0.92137 0.02368 0.26142 0.0
O217 O 0.90516 0.01166 0.25693 0.0
C218 C 0.95324 0.04513 0.21419 0.0
O219 O 0.95602 0.03788 0.22954 0.0
O220 O 0.90541 0.00862 0.21544 0.0
C221 C 0.3224 0.61798 0.55195 0.0
O222 O 0.32648 0.62762 0.56806 0.0
O223 O 0.30296 0.65426 0.5687 0.0
Zn224 Zn 0.29212 0.63342 0.54873 0.0
O225 O 0.28429 0.64318 0.52591 0.0
C226 C 0.26122 0.62057 0.56863 0.0
O227 O 0.26639 0.63867 0.57549 0.0
O228 O 0.3088 0.61887 0.54205 0.0
C229 C 0.27088 0.64985 0.52453 0.0
O230 O 0.26198 0.65146 0.53879 0.0
C231 C 0.30268 0.67163 0.56803 0.0
O232 O 0.29711 0.67723 0.55276 0.0
O233 O 0.27054 0.61491 0.55723 0.0
C234 C 0.40781 0.56996 0.74381 0.0
O235 O 0.42306 0.57048 0.75293 0.0
O236 O 0.42645 0.53736 0.70997 0.0
Zn237 Zn 0.41045 0.53387 0.72981 0.0
O238 O 0.42559 0.53335 0.75234 0.0
C239 C 0.38993 0.4961 0.71224 0.0
O240 O 0.39982 0.50089 0.69854 0.0
O241 O 0.39985 0.55555 0.73259 0.0
C242 C 0.41905 0.5243 0.76564 0.0
O243 O 0.4016 0.51552 0.76495 0.0
C244 C 0.43788 0.5279 0.71017 0.0
O245 O 0.43826 0.51636 0.72312 0.0
O246 O 0.39157 0.50832 0.72581 0.0
C247 C 0.66843 0.97272 0.74129 0.0
O248 O 0.6526 0.96402 0.73253 0.0
O249 O 0.64404 1.00151 0.71505 0.0
Zn250 Zn 0.65859 0.00732 0.73872 0.0
O251 O 0.64231 0.00362 0.75836 0.0
C252 C 0.6711 0.04804 0.73332 0.0
O253 O 0.6593 0.044 0.71901 0.0
O254 O 0.67417 0.991 0.74336 0.0
C255 C 0.63053 0.01257 0.75893 0.0
O256 O 0.6289 0.02376 0.74601 0.0
C257 C 0.62822 0.98976 0.71397 0.0
O258 O 0.62277 0.97969 0.7278 0.0
O259 O 0.67322 0.03463 0.7426 0.0
C260 C 0.82703 0.67328 0.01754 0.0
O261 O 0.83151 0.69006 0.01051 0.0
O262 O 0.7966 0.6987 0.04439 0.0
Zn263 Zn 0.79336 0.68203 0.02029 0.0
O264 O 0.79754 0.69549 0.99652 0.0
C265 C 0.7545 0.66818 0.021 0.0
O266 O 0.75636 0.68674 0.02392 0.0
O267 O 0.81124 0.66674 0.02271 0.0
C268 C 0.78859 0.70562 0.98908 0.0
O269 O 0.77546 0.70945 0.99748 0.0
C270 C 0.79286 0.71435 0.04847 0.0
O271 O 0.78683 0.72309 0.03555 0.0
O272 O 0.76841 0.6627 0.01865 0.0
C273 C 0.91923 0.58718 0.80869 0.0
O274 O 0.9364 0.59214 0.81464 0.0
O275 O 0.94073 0.55292 0.78482 0.0
Zn276 Zn 0.92238 0.54885 0.80277 0.0
O277 O 0.93484 0.54774 0.82656 0.0
C278 C 0.90686 0.51173 0.78357 0.0
O279 O 0.92239 0.51627 0.77632 0.0
O280 O 0.91094 0.56969 0.8034 0.0
C281 C 0.94044 0.53309 0.82816 0.0
O282 O 0.9368 0.51945 0.81472 0.0
C283 C 0.95684 0.56399 0.78644 0.0
O284 O 0.96299 0.57609 0.80096 0.0
O285 O 0.90358 0.5236 0.79528 0.0
C286 C 0.76467 0.43813 0.51964 0.0
O287 O 0.77455 0.43409 0.53305 0.0
O288 O 0.78726 0.40439 0.51822 0.0
Zn289 Zn 0.78762 0.42326 0.49985 0.0
O290 O 0.78596 0.41046 0.47491 0.0
C291 C 0.81638 0.45962 0.51325 0.0
O292 O 0.8043 0.4679 0.51835 0.0
O293 O 0.76789 0.43479 0.50335 0.0
C294 C 0.80042 0.41108 0.46748 0.0
O295 O 0.81613 0.42095 0.47589 0.0
C296 C 0.8003 0.39714 0.51934 0.0
O297 O 0.81208 0.40039 0.50705 0.0
O298 O 0.81149 0.4427 0.50529 0.0
C299 C 0.68051 0.48893 0.31753 0.0
O300 O 0.66577 0.48337 0.3261 0.0
O301 O 0.65128 0.51674 0.29546 0.0
Zn302 Zn 0.67028 0.52277 0.31614 0.0
O303 O 0.65937 0.51913 0.33952 0.0
C304 C 0.67647 0.56286 0.31612 0.0
O305 O 0.65874 0.55756 0.3153 0.0
O306 O 0.68552 0.5059 0.31246 0.0
C307 C 0.66572 0.53126 0.35316 0.0
O308 O 0.6803 0.5458 0.35221 0.0
C309 C 0.63521 0.5172 0.29701 0.0
O310 O 0.63022 0.52102 0.31313 0.0
O311 O 0.68477 0.55015 0.31617 0.0
Tb312 Tb 0.0533 0.03206 0.01858 0.0
Tb313 Tb 0.0083 1.00113 0.00413 0.0
C314 C 0.02377 0.02386 0.04541 0.0
C315 C 0.10184 0.04525 0.02801 0.0
C316 C 0.13003 0.03236 0.04232 0.0
C317 C 0.11328 0.02715 0.04976 0.0
C318 C 0.09923 0.03357 0.04263 0.0
C319 C 0.11884 0.05149 0.02131 0.0
C320 C 0.13294 0.04512 0.02849 0.0
C321 C 0.0863 0.04862 0.01827 0.0
O322 O 0.05192 0.0042 0.02863 0.0
O323 O 0.02516 0.98315 0.01333 0.0
O324 O 0.01892 0.998 0.97739 0.0
O325 O 0.03639 0.01644 0.99718 0.0
O326 O 0.985 0.98331 0.01419 0.0
O327 O 0.98564 0.9883 0.98581 0.0
O328 O 0.0092 0.03164 0.00038 0.0
O329 O 0.03883 0.05147 0.00953 0.0
O330 O 0.04095 0.03214 0.04329 0.0
O331 O 0.0112 0.01349 0.03263 0.0
C332 C 0.04044 0.98676 0.02402 0.0
O333 O 0.0773 0.03432 0.00639 0.0
O334 O 0.07576 0.05516 0.02849 0.0
C335 C 0.0347 0.01001 0.98054 0.0
C336 C 0.95956 0.98831 0.99901 0.0
C337 C 0.93118 0.00441 0.99393 0.0
C338 C 0.92878 0.98508 0.98764 0.0
C339 C 0.94305 0.97709 0.99003 0.0
C340 C 0.96163 0.00731 0.00604 0.0
C341 C 0.94753 0.01531 0.00352 0.0
C342 C 0.9755 0.98162 0.99867 0.0
C343 C 0.02187 0.04877 0.0032 0.0
H344 H 0.11078 0.01722 0.06033 0.0
H345 H 0.08606 0.02852 0.04782 0.0
H346 H 0.1209 0.06032 0.00988 0.0
H347 H 0.14566 0.04896 0.02229 0.0
H348 H 0.91616 0.97648 0.98035 0.0
H349 H 0.94143 0.96249 0.98434 0.0
H350 H 0.97439 0.0162 0.01286 0.0
H351 H 0.94947 0.03012 0.00883 0.0
Tb352 Tb 0.27873 0.77661 0.29124 0.0
Tb353 Tb 0.30126 0.77231 0.25551 0.0
C354 C 0.26207 0.77764 0.25153 0.0
C355 C 0.25868 0.76526 0.33387 0.0
C356 C 0.25295 0.74092 0.36241 0.0
C357 C 0.24403 0.75522 0.36109 0.0
C358 C 0.24692 0.76735 0.34691 0.0
C359 C 0.26728 0.75077 0.33488 0.0
C360 C 0.26452 0.73876 0.34907 0.0
C361 C 0.26202 0.77805 0.31914 0.0
O362 O 0.26954 0.7466 0.28058 0.0
O363 O 0.29408 0.74415 0.26589 0.0
O364 O 0.32024 0.77912 0.27962 0.0
O365 O 0.30097 0.76612 0.30074 0.0
O366 O 0.30358 0.75865 0.23026 0.0
O367 O 0.32554 0.78238 0.24335 0.0
O368 O 0.3 0.80154 0.25753 0.0
O369 O 0.29688 0.80506 0.28815 0.0
O370 O 0.2635 0.78414 0.26872 0.0
O371 O 0.27387 0.77 0.24449 0.0
C372 C 0.27917 0.73628 0.27346 0.0
O373 O 0.27892 0.78773 0.31816 0.0
O374 O 0.25414 0.77016 0.30328 0.0
C375 C 0.31733 0.77193 0.29537 0.0
C376 C 0.32028 0.78188 0.21194 0.0
C377 C 0.32346 0.80577 0.18302 0.0
C378 C 0.33892 0.8027 0.19174 0.0
C379 C 0.33731 0.79081 0.20607 0.0
C380 C 0.30481 0.78481 0.2032 0.0
C381 C 0.30638 0.79652 0.18878 0.0
C382 C 0.31905 0.77141 0.22839 0.0
C383 C 0.30169 0.81225 0.27279 0.0
H384 H 0.23485 0.75705 0.37102 0.0
H385 H 0.24006 0.77838 0.34617 0.0
H386 H 0.27633 0.74892 0.3248 0.0
H387 H 0.27182 0.72812 0.34982 0.0
H388 H 0.35228 0.80984 0.1878 0.0
H389 H 0.34942 0.78899 0.2129 0.0
H390 H 0.29152 0.77833 0.20768 0.0
H391 H 0.29417 0.7983 0.18215 0.0
Tb392 Tb 0.52151 0.02743 0.52229 0.0
Tb393 Tb 0.56475 0.03455 0.51616 0.0
C394 C 0.54806 0.02075 0.55211 0.0
C395 C 0.47675 0.03551 0.52726 0.0
C396 C 0.45359 0.05917 0.5282 0.0
C397 C 0.45364 0.04625 0.54163 0.0
C398 C 0.46507 0.03451 0.54111 0.0
C399 C 0.47695 0.04855 0.51393 0.0
C400 C 0.4654 0.06018 0.51435 0.0
C401 C 0.48872 0.02306 0.52715 0.0
O402 O 0.53604 0.05591 0.53554 0.0
O403 O 0.56214 0.06354 0.52066 0.0
O404 O 0.55046 0.03538 0.49029 0.0
O405 O 0.52725 0.04572 0.50021 0.0
O406 O 0.59228 0.04381 0.52566 0.0
O407 O 0.58376 0.03199 0.49794 0.0
O408 O 0.55262 0.00345 0.51563 0.0
O409 O 0.52358 1.00216 0.50593 0.0
O410 O 0.53222 0.01326 0.54312 0.0
O411 O 0.56154 0.03256 0.54488 0.0
C412 C 0.55069 0.06859 0.53089 0.0
O413 O 0.49443 0.01913 0.51155 0.0
O414 O 0.50158 0.02714 0.54033 0.0
C415 C 0.5377 0.04362 0.48752 0.0
C416 C 0.60907 0.025 0.51155 0.0
C417 C 0.63153 1.00056 0.51248 0.0
C418 C 0.62795 0.0085 0.49629 0.0
C419 C 0.6169 0.02064 0.49587 0.0
C420 C 0.61252 0.01704 0.52775 0.0
C421 C 0.6237 0.00501 0.52822 0.0
C422 C 0.59719 0.03758 0.51047 0.0
C423 C 0.53648 0.99384 0.50799 0.0
H424 H 0.44498 0.04532 0.55267 0.0
H425 H 0.46485 0.02467 0.5516 0.0
H426 H 0.48595 0.0497 0.50316 0.0
H427 H 0.46557 0.06975 0.50364 0.0
H428 H 0.63349 0.00516 0.48385 0.0
H429 H 0.61436 0.02654 0.4832 0.0
H430 H 0.60662 0.02011 0.54006 0.0
H431 H 0.62638 0.9994 0.541 0.0
Tb432 Tb 0.31562 0.28314 0.77512 0.0
Tb433 Tb 0.26815 0.28169 0.76847 0.0
C434 C 0.28412 0.24825 0.77831 0.0
C435 C 0.36358 0.29163 0.7648 0.0
C436 C 0.39103 0.288 0.74269 0.0
C437 C 0.3886 0.27887 0.75897 0.0
C438 C 0.37511 0.28076 0.76992 0.0
C439 C 0.36584 0.3007 0.74849 0.0
C440 C 0.37946 0.29894 0.73757 0.0
C441 C 0.34946 0.29322 0.77678 0.0
O442 O 0.30691 0.27321 0.74657 0.0
O443 O 0.27813 0.27807 0.74145 0.0
O444 O 0.27844 0.31305 0.76556 0.0
O445 O 0.29833 0.29961 0.77072 0.0
O446 O 0.24397 0.26144 0.77352 0.0
O447 O 0.24365 0.28644 0.75922 0.0
O448 O 0.27728 0.28763 0.79767 0.0
O449 O 0.30886 0.29272 0.80158 0.0
O450 O 0.30125 0.25576 0.78403 0.0
O451 O 0.27691 0.25577 0.76516 0.0
C452 C 0.29273 0.27392 0.73577 0.0
O453 O 0.33984 0.30481 0.77257 0.0
O454 O 0.33966 0.27683 0.78219 0.0
C455 C 0.29561 0.31558 0.76694 0.0
C456 C 0.2201 0.2746 0.77874 0.0
C457 C 0.19306 0.27916 0.80101 0.0
C458 C 0.20162 0.29398 0.79032 0.0
C459 C 0.21504 0.29174 0.7793 0.0
C460 C 0.21136 0.25973 0.78928 0.0
C461 C 0.19807 0.26201 0.80033 0.0
C462 C 0.23404 0.27164 0.76704 0.0
C463 C 0.29298 0.29205 0.80775 0.0
H464 H 0.39703 0.27008 0.76322 0.0
H465 H 0.37363 0.27362 0.78244 0.0
H466 H 0.35718 0.30923 0.74418 0.0
H467 H 0.3811 0.30639 0.72526 0.0
H468 H 0.19808 0.30739 0.7906 0.0
H469 H 0.22142 0.30342 0.77123 0.0
H470 H 0.21475 0.24623 0.78894 0.0
H471 H 0.19149 0.25016 0.80811 0.0
Tb472 Tb 0.03807 0.03849 0.54448 0.0
Tb473 Tb 0.043 0.01551 0.50741 0.0
C474 C 1.0041 0.01259 0.51953 0.0
C475 C 0.04398 0.05261 0.59315 0.0
C476 C 0.05686 0.04586 0.6277 0.0
C477 C 0.04371 0.05567 0.62596 0.0
C478 C 0.03733 0.05906 0.60874 0.0
C479 C 0.05691 0.04259 0.59486 0.0
C480 C 0.06332 0.03927 0.61199 0.0
C481 C 0.03714 0.05566 0.57503 0.0
O482 O 0.04502 0.01246 0.55366 0.0
O483 O 0.03956 0.99298 0.52695 0.0
O484 O 0.06913 0.02451 0.52301 0.0
O485 O 0.0647 0.05169 0.53585 0.0
O486 O 0.0357 0.99158 0.48798 0.0
O487 O 0.05829 0.01647 0.48484 0.0
O488 O 0.04381 0.04512 0.49994 0.0
O489 O 0.03084 0.05637 0.52363 0.0
O490 O 0.01095 0.02084 0.53568 0.0
O491 O 0.0141 0.01156 0.50608 0.0
C492 C 0.04237 0.99515 0.54491 0.0
O493 O 0.04944 0.06199 0.5639 0.0
O494 O 0.02389 0.0414 0.56728 0.0
C495 C 0.07564 0.0423 0.53021 0.0
C496 C 0.03854 1.00308 0.45921 0.0
C497 C 0.02195 0.00838 0.42592 0.0
C498 C 0.03636 1.00025 0.42623 0.0
C499 C 0.04459 0.99753 0.44286 0.0
C500 C 0.0245 0.01168 0.45883 0.0
C501 C 0.01621 0.01421 0.44234 0.0
C502 C 0.04695 1.00069 0.47684 0.0
C503 C 0.03683 0.05823 0.50723 0.0
H504 H 0.03862 0.06099 0.6379 0.0
H505 H 0.02724 0.06669 0.60759 0.0
H506 H 0.06207 0.03734 0.58293 0.0
H507 H 0.07325 0.03143 0.61294 0.0
H508 H 0.04095 0.99566 0.41366 0.0
H509 H 0.05557 0.9911 0.44297 0.0
H510 H 0.0199 0.01642 0.47133 0.0
H511 H 1.00531 0.02078 0.4424 0.0
Tb512 Tb 0.29844 0.79371 0.76943 0.0
Tb513 Tb 0.27846 0.75265 0.78297 0.0
C514 C 0.29446 0.75646 0.74524 0.0
C515 C 0.30664 0.84415 0.76024 0.0
C516 C 0.28803 0.87198 0.7619 0.0
C517 C 0.28971 0.86293 0.74504 0.0
C518 C 0.29904 0.84915 0.74421 0.0
C519 C 0.30599 0.85423 0.77693 0.0
C520 C 0.29672 0.86798 0.77775 0.0
C521 C 0.313 0.82692 0.7598 0.0
O522 O 0.27013 0.78633 0.75656 0.0
O523 O 0.25607 0.76551 0.77669 0.0
O524 O 0.28453 0.77297 0.80672 0.0
O525 O 0.28411 0.79963 0.79223 0.0
O526 O 0.25712 0.7268 0.77891 0.0
O527 O 0.27617 0.73246 0.80253 0.0
O528 O 0.30772 0.75373 0.7851 0.0
O529 O 0.31972 0.78661 0.78681 0.0
O530 O 0.30549 0.77336 0.75109 0.0
O531 O 0.28099 0.74753 0.75425 0.0
C532 C 0.25501 0.77661 0.76331 0.0
O533 O 0.31678 0.82127 0.77559 0.0
O534 O 0.30363 0.81238 0.74851 0.0
C535 C 0.28343 0.7906 0.80704 0.0
C536 C 0.26761 0.70142 0.78808 0.0
C537 C 0.28275 0.67105 0.78257 0.0
C538 C 0.27357 0.67256 0.79814 0.0
C539 C 0.26606 0.68773 0.8009 0.0
C540 C 0.27584 0.69928 0.77205 0.0
C541 C 0.28331 0.68421 0.76929 0.0
C542 C 0.2634 0.71945 0.79255 0.0
C543 C 0.32178 0.76941 0.78922 0.0
H544 H 0.2833 0.86602 0.73262 0.0
H545 H 0.29952 0.84171 0.73116 0.0
H546 H 0.31179 0.85082 0.78955 0.0
H547 H 0.2955 0.87463 0.79096 0.0
H548 H 0.27287 0.66251 0.80852 0.0
H549 H 0.25989 0.68935 0.81341 0.0
H550 H 0.27745 0.70989 0.76211 0.0
H551 H 0.2906 0.68372 0.75733 0.0
Tb552 Tb 0.53847 0.01488 0.04482 0.0
Tb553 Tb 0.54779 0.03739 0.00918 0.0
C554 C 0.57784 0.03417 0.03635 0.0
C555 C 0.52598 1.00008 0.09018 0.0
C556 C 0.51656 0.01163 0.12422 0.0
C557 C 0.53268 0.00671 0.12283 0.0
C558 C 0.53729 1.00088 0.10596 0.0
C559 C 0.50961 0.00447 0.09157 0.0
C560 C 0.5049 0.01009 0.10847 0.0
C561 C 0.53219 0.99614 0.07241 0.0
O562 O 0.5354 0.04303 0.05466 0.0
O563 O 0.54754 0.06015 0.03098 0.0
O564 O 0.51961 0.02061 0.00531 0.0
O565 O 0.514 0.02066 0.03512 0.0
O566 O 0.56665 0.05536 0.99395 0.0
O567 O 0.53801 0.04908 0.98692 0.0
O568 O 0.5479 0.00845 0.99807 0.0
O569 O 0.53989 0.99221 0.02349 0.0
O570 O 0.56641 0.03236 0.04876 0.0
O571 O 0.57242 0.03197 0.01912 0.0
C572 C 0.54108 0.05962 0.04721 0.0
O573 O 0.52061 0.99361 0.05821 0.0
O574 O 0.5481 0.00727 0.06951 0.0
C575 C 0.50847 0.01933 0.01796 0.0
C576 C 0.55675 0.05071 0.96277 0.0
C577 C 0.56191 0.03718 0.92773 0.0
C578 C 0.54438 0.03526 0.93275 0.0
C579 C 0.54181 0.04198 0.95014 0.0
C580 C 0.57429 0.05324 0.95747 0.0
C581 C 0.57684 0.04644 0.94013 0.0
C582 C 0.55416 0.05624 0.98167 0.0
C583 C 0.54398 0.99224 0.00632 0.0
H584 H 0.54204 0.00795 0.13468 0.0
H585 H 0.55001 0.99761 0.10514 0.0
H586 H 0.50062 0.00398 0.07961 0.0
H587 H 0.49221 0.01341 0.10916 0.0
H588 H 0.53267 0.02822 0.92335 0.0
H589 H 0.52811 0.03998 0.95377 0.0
H590 H 0.58605 0.06017 0.96684 0.0
H591 H 0.59051 0.04847 0.93638 0.0
Tb592 Tb 0.28127 0.25957 0.26673 0.0
Tb593 Tb 0.30036 0.30253 0.28429 0.0
C594 C 0.28476 0.29371 0.24395 0.0
C595 C 0.27715 0.20991 0.25226 0.0
C596 C 0.3027 0.18957 0.2531 0.0
C597 C 0.29599 0.1939 0.23637 0.0
C598 C 0.28322 0.20408 0.23595 0.0
C599 C 0.28257 0.20368 0.26873 0.0
C600 C 0.29531 0.19365 0.26912 0.0
C601 C 0.26848 0.22544 0.25259 0.0
O602 O 0.30912 0.26691 0.2571 0.0
O603 O 0.32406 0.2925 0.27755 0.0
O604 O 0.29432 0.28485 0.30685 0.0
O605 O 0.29538 0.25658 0.2925 0.0
O606 O 0.30535 0.33205 0.28144 0.0
O607 O 0.31687 0.32225 0.30502 0.0
O608 O 0.27092 0.29849 0.28781 0.0
O609 O 0.25894 0.26572 0.2809 0.0
O610 O 0.27275 0.27876 0.24917 0.0
O611 O 0.29913 0.30256 0.25483 0.0
C612 C 0.32452 0.27947 0.26428 0.0
O613 O 0.2648 0.23127 0.26853 0.0
O614 O 0.27612 0.24001 0.24344 0.0
C615 C 0.29586 0.26743 0.30756 0.0
C616 C 0.30675 0.34983 0.3089 0.0
C617 C 0.2888 0.37669 0.3197 0.0
C618 C 0.30765 0.3827 0.31834 0.0
C619 C 0.31648 0.36937 0.31257 0.0
C620 C 0.28871 0.3434 0.31293 0.0
C621 C 0.27971 0.35667 0.31803 0.0
C622 C 0.31396 0.33704 0.29756 0.0
C623 C 0.25714 0.28238 0.28752 0.0
H624 H 0.30155 0.19066 0.22389 0.0
H625 H 0.27917 0.20868 0.22311 0.0
H626 H 0.27807 0.20776 0.28155 0.0
H627 H 0.3002 0.19007 0.28211 0.0
H628 H 0.31538 0.39783 0.32035 0.0
H629 H 0.33054 0.37453 0.30976 0.0
H630 H 0.28112 0.32828 0.31047 0.0
H631 H 0.26528 0.35113 0.31888 0.0
Tb632 Tb 0.53828 0.53807 0.04432 0.0
Tb633 Tb 0.54342 0.5153 0.00757 0.0
C634 C 0.50515 0.51233 0.02052 0.0
C635 C 0.54345 0.55603 0.09251 0.0
C636 C 0.55786 0.55283 0.12762 0.0
C637 C 0.53981 0.55293 0.12462 0.0
C638 C 0.53267 0.55454 0.10717 0.0
C639 C 0.56163 0.5565 0.09556 0.0
C640 C 0.56879 0.55505 0.11298 0.0
C641 C 0.53528 0.55551 0.07397 0.0
O642 O 0.53538 0.50791 0.05151 0.0
O643 O 0.55092 0.4983 0.02926 0.0
O644 O 0.56871 0.53734 0.01551 0.0
O645 O 0.56662 0.53901 0.04607 0.0
O646 O 0.53467 0.49065 0.98901 0.0
O647 O 0.5581 0.51395 0.98482 0.0
O648 O 0.53467 0.53998 0.99777 0.0
O649 O 0.54235 0.56002 0.02404 0.0
O650 O 0.51192 0.52944 0.02925 0.0
O651 O 0.51573 0.50303 0.01378 0.0
C652 C 0.54335 0.49537 0.04485 0.0
O653 O 0.54629 0.5633 0.06207 0.0
O654 O 0.52414 0.53887 0.06753 0.0
C655 C 0.57623 0.5422 0.03207 0.0
C656 C 0.53782 0.50034 0.95962 0.0
C657 C 0.52246 0.50608 0.92583 0.0
C658 C 0.5368 0.49784 0.9267 0.0
C659 C 0.54446 0.49499 0.94356 0.0
C660 C 0.5236 0.50866 0.95874 0.0
C661 C 0.51603 0.51155 0.94203 0.0
C662 C 0.54606 0.49839 0.97746 0.0
C663 C 0.53827 0.55755 0.00622 0.0
H664 H 0.531 0.55103 0.13559 0.0
H665 H 0.51858 0.55401 0.10501 0.0
H666 H 0.57022 0.55754 0.08443 0.0
H667 H 0.58284 0.55535 0.11493 0.0
H668 H 0.54193 0.49343 0.91437 0.0
H669 H 0.55555 0.48872 0.94407 0.0
H670 H 0.5184 0.51303 0.97103 0.0
H671 H 0.50524 0.51827 0.94181 0.0
Tb672 Tb 0.79877 0.2931 0.26818 0.0
Tb673 Tb 0.77964 0.25094 0.28129 0.0
C674 C 0.7946 0.2562 0.2428 0.0
C675 C 0.8059 0.34357 0.26085 0.0
C676 C 0.78436 0.36837 0.26288 0.0
C677 C 0.78956 0.36311 0.24599 0.0
C678 C 0.80033 0.35071 0.24497 0.0
C679 C 0.80199 0.35037 0.27786 0.0
C680 C 0.79131 0.3627 0.27885 0.0
C681 C 0.81279 0.32676 0.2594 0.0
O682 O 0.77013 0.28631 0.25661 0.0
O683 O 0.7563 0.26208 0.27412 0.0
O684 O 0.78609 0.27126 0.30503 0.0
O685 O 0.78438 0.2979 0.29128 0.0
O686 O 0.76174 0.22285 0.27612 0.0
O687 O 0.77559 0.23272 0.30263 0.0
O688 O 0.80901 0.25303 0.28402 0.0
O689 O 0.8208 0.28595 0.28427 0.0
O690 O 0.80478 0.27366 0.24815 0.0
O691 O 0.78261 0.24592 0.25269 0.0
C692 C 0.75513 0.27472 0.26216 0.0
O693 O 0.81711 0.32061 0.27476 0.0
O694 O 0.80329 0.31253 0.24787 0.0
C695 C 0.78429 0.28859 0.30584 0.0
C696 C 0.77427 0.20181 0.29118 0.0
C697 C 0.79368 0.17478 0.2926 0.0
C698 C 0.78027 0.1744 0.30461 0.0
C699 C 0.77065 0.18799 0.30397 0.0
C700 C 0.78727 0.20176 0.27886 0.0
C701 C 0.79681 0.18831 0.27949 0.0
C702 C 0.76637 0.21779 0.29186 0.0
C703 C 0.82295 0.26893 0.28736 0.0
H704 H 0.78437 0.36753 0.23356 0.0
H705 H 0.80324 0.34565 0.23174 0.0
H706 H 0.80616 0.34526 0.29039 0.0
H707 H 0.7877 0.36701 0.29205 0.0
H708 H 0.77766 0.16405 0.3148 0.0
H709 H 0.76083 0.18808 0.31372 0.0
H710 H 0.79041 0.21249 0.26902 0.0
H711 H 0.8068 0.18864 0.26982 0.0
Tb712 Tb 0.03752 0.51355 0.54065 0.0
Tb713 Tb 0.04314 0.53705 0.50527 0.0
C714 C 0.07588 0.53178 0.52799 0.0
C715 C 0.02585 0.50068 0.5865 0.0
C716 C 0.0176 0.51224 0.62094 0.0
C717 C 0.02567 0.49728 0.61884 0.0
C718 C 0.0298 0.49157 0.60168 0.0
C719 C 0.01747 0.51534 0.58848 0.0
C720 C 0.01332 0.52104 0.60558 0.0
C721 C 0.03113 0.4955 0.56874 0.0
O722 O 0.03313 0.54181 0.54934 0.0
O723 O 0.04875 0.56006 0.52805 0.0
O724 O 0.0166 0.53457 0.51387 0.0
O725 O 0.01315 0.50471 0.52248 0.0
O726 O 0.05734 0.55869 0.48957 0.0
O727 O 0.03026 0.54052 0.48056 0.0
O728 O 0.03886 0.50622 0.49493 0.0
O729 O 0.04498 0.49337 0.52133 0.0
O730 O 0.06595 0.52903 0.54182 0.0
O731 O 0.06896 0.53231 0.51152 0.0
C732 C 0.041 0.559 0.54358 0.0
O733 O 0.0192 0.494 0.55513 0.0
O734 O 0.04725 0.50534 0.56511 0.0
C735 C 1.00604 0.51777 0.51698 0.0
C736 C 0.05045 0.54824 0.45818 0.0
C737 C 0.05935 0.53504 0.42446 0.0
C738 C 0.04214 0.5373 0.42627 0.0
C739 C 0.03778 0.54395 0.44296 0.0
C740 C 0.06771 0.54614 0.45641 0.0
C741 C 0.07214 0.53971 0.43967 0.0
C742 C 0.0448 0.55305 0.47602 0.0
C743 C 0.04236 0.4919 0.5034 0.0
H744 H 0.02922 0.4904 0.63052 0.0
H745 H 0.03635 0.48028 0.6003 0.0
H746 H 0.0143 0.52252 0.57685 0.0
H747 H 1.00685 0.5324 0.6068 0.0
H748 H 0.03193 0.53364 0.41487 0.0
H749 H 0.02432 0.54527 0.44411 0.0
H750 H 0.07772 0.5492 0.46796 0.0
H751 H 0.08566 0.53853 0.43863 0.0
Tb752 Tb 0.81062 0.78512 0.27672 0.0
Tb753 Tb 0.76857 0.78808 0.27 0.0
C754 C 0.77672 0.7502 0.2804 0.0
C755 C 0.85755 0.78514 0.26721 0.0
C756 C 0.88546 0.78339 0.24486 0.0
C757 C 0.87271 0.76634 0.24908 0.0
C758 C 0.85893 0.76719 0.26016 0.0
C759 C 0.87016 0.80218 0.26278 0.0
C760 C 0.88389 0.80132 0.2517 0.0
C761 C 0.84364 0.78635 0.27974 0.0
O762 O 0.8047 0.78161 0.24734 0.0
O763 O 0.77349 0.77486 0.24424 0.0
O764 O 0.78638 0.81119 0.25724 0.0
O765 O 0.80947 0.81459 0.27867 0.0
O766 O 0.74087 0.77527 0.26252 0.0
O767 O 0.75151 0.80577 0.27126 0.0
O768 O 0.77869 0.79981 0.29793 0.0
O769 O 0.80142 0.78579 0.30387 0.0
O770 O 0.79307 0.75572 0.27498 0.0
O771 O 0.76687 0.76192 0.28292 0.0
C772 C 0.78901 0.77549 0.23756 0.0
O773 O 0.83793 0.80152 0.27917 0.0
O774 O 0.83037 0.77075 0.28114 0.0
C775 C 0.80185 0.82146 0.26551 0.0
C776 C 0.72244 0.78954 0.27913 0.0
C777 C 0.69443 0.78735 0.30216 0.0
C778 C 0.69199 0.79039 0.28367 0.0
C779 C 0.70588 0.79147 0.27228 0.0
C780 C 0.72498 0.78636 0.29752 0.0
C781 C 0.71106 0.78525 0.30895 0.0
C782 C 0.73699 0.79122 0.267 0.0
C783 C 0.78977 0.79456 0.30941 0.0
H784 H 0.87365 0.75228 0.24421 0.0
H785 H 0.84954 0.75378 0.26341 0.0
H786 H 0.86952 0.81625 0.26803 0.0
H787 H 0.8933 0.81475 0.24851 0.0
H788 H 0.67925 0.79174 0.27794 0.0
H789 H 0.7037 0.79386 0.2581 0.0
H790 H 0.73775 0.78489 0.30304 0.0
H791 H 0.71343 0.78307 0.32315 0.0
Tb792 Tb 0.78094 0.27715 0.79214 0.0
Tb793 Tb 0.80294 0.27509 0.75525 0.0
C794 C 0.76353 0.27868 0.75332 0.0
C795 C 0.76091 0.26259 0.83419 0.0
C796 C 0.75635 0.23694 0.86178 0.0
C797 C 0.74403 0.24757 0.85861 0.0
C798 C 0.74633 0.26033 0.84492 0.0
C799 C 0.773 0.25172 0.83702 0.0
C800 C 0.77082 0.23912 0.85074 0.0
C801 C 0.76336 0.27585 0.81975 0.0
O802 O 0.77406 0.24716 0.78141 0.0
O803 O 0.79806 0.24683 0.7647 0.0
O804 O 0.82279 0.27913 0.7783 0.0
O805 O 0.80478 0.26965 0.80176 0.0
O806 O 0.80403 0.26297 0.72896 0.0
O807 O 0.82649 0.28604 0.74218 0.0
O808 O 0.80198 0.30442 0.75962 0.0
O809 O 0.79845 0.30611 0.79036 0.0
O810 O 0.76644 0.28647 0.77016 0.0
O811 O 0.77442 0.26975 0.74637 0.0
C812 C 0.78418 0.23808 0.77327 0.0
O813 O 0.77979 0.28715 0.81914 0.0
O814 O 0.75612 0.26796 0.80367 0.0
C815 C 0.82051 0.27395 0.79489 0.0
C816 C 0.82088 0.28622 0.71097 0.0
C817 C 0.82472 0.30934 0.68154 0.0
C818 C 0.83877 0.30197 0.68754 0.0
C819 C 0.83683 0.29046 0.70214 0.0
C820 C 0.80684 0.2936 0.70514 0.0
C821 C 0.8087 0.30497 0.69046 0.0
C822 C 0.81965 0.27545 0.72711 0.0
C823 C 0.80339 0.3142 0.77541 0.0
H824 H 0.73257 0.24598 0.86665 0.0
H825 H 0.73674 0.26842 0.84271 0.0
H826 H 0.78425 0.25311 0.8287 0.0
H827 H 0.7807 0.23138 0.85291 0.0
H828 H 0.85136 0.3053 0.68111 0.0
H829 H 0.8479 0.28511 0.70674 0.0
H830 H 0.79452 0.29068 0.71202 0.0
H831 H 0.79752 0.31018 0.68598 0.0
Tb832 Tb 0.78078 0.75633 0.76556 0.0
Tb833 Tb 0.80007 0.7992 0.78314 0.0
C834 C 0.78083 0.79104 0.74301 0.0
C835 C 0.77695 0.70683 0.75187 0.0
C836 C 0.80232 0.68655 0.74933 0.0
C837 C 0.79083 0.68672 0.734 0.0
C838 C 0.77816 0.69695 0.73526 0.0
C839 C 0.78757 0.70522 0.76746 0.0
C840 C 0.80018 0.69516 0.76617 0.0
C841 C 0.76795 0.72197 0.7521 0.0
O842 O 0.80823 0.76444 0.75499 0.0
O843 O 0.82335 0.78835 0.77676 0.0
O844 O 0.79674 0.78155 0.8058 0.0
O845 O 0.79526 0.75264 0.7909 0.0
O846 O 0.81679 0.82719 0.78015 0.0
O847 O 0.80668 0.81962 0.80588 0.0
O848 O 0.77077 0.79597 0.78647 0.0
O849 O 0.75867 0.76317 0.77979 0.0
O850 O 0.77135 0.7739 0.74693 0.0
O851 O 0.79382 0.80213 0.75449 0.0
C852 C 0.82375 0.7763 0.76265 0.0
O853 O 0.76454 0.72804 0.76807 0.0
O854 O 0.77536 0.73631 0.74263 0.0
C855 C 0.79697 0.76366 0.80608 0.0
C856 C 0.80468 0.84852 0.79591 0.0
C857 C 0.78305 0.87328 0.79783 0.0
C858 C 0.79876 0.87696 0.80975 0.0
C859 C 0.80955 0.86451 0.80882 0.0
C860 C 0.78918 0.84509 0.78388 0.0
C861 C 0.77843 0.85727 0.78488 0.0
C862 C 0.8139 0.83368 0.79612 0.0
C863 C 0.75694 0.77993 0.78632 0.0
H864 H 0.79239 0.67998 0.72095 0.0
H865 H 0.77021 0.69825 0.72307 0.0
H866 H 0.78706 0.71281 0.78042 0.0
H867 H 0.80893 0.6949 0.77814 0.0
H868 H 0.80258 0.88927 0.81981 0.0
H869 H 0.82133 0.86707 0.81839 0.0
H870 H 0.785 0.83253 0.77407 0.0
H871 H 0.76616 0.85374 0.77584 0.0
Tb872 Tb 0.55148 0.53429 0.52321 0.0
Tb873 Tb 0.51147 0.50635 0.50786 0.0
C874 C 0.52035 0.5277 0.54675 0.0
C875 C 0.59882 0.54585 0.53564 0.0
C876 C 0.62786 0.53045 0.53751 0.0
C877 C 0.62957 0.54859 0.54659 0.0
C878 C 0.61504 0.55633 0.5456 0.0
C879 C 0.59706 0.52758 0.52693 0.0
C880 C 0.6115 0.51997 0.52779 0.0
C881 C 0.5832 0.55311 0.53472 0.0
O882 O 0.54775 0.50662 0.53476 0.0
O883 O 0.52801 0.48707 0.51226 0.0
O884 O 0.52655 0.51517 0.48487 0.0
O885 O 0.55401 0.51715 0.49902 0.0
O886 O 0.48675 0.48777 0.51395 0.0
O887 O 0.49253 0.4919 0.48617 0.0
O888 O 0.50905 0.53568 0.50707 0.0
O889 O 0.53941 0.55263 0.508 0.0
O890 O 0.53283 0.54148 0.5406 0.0
O891 O 0.51321 0.51104 0.53727 0.0
C892 C 0.53982 0.48941 0.5264 0.0
O893 O 0.57631 0.55356 0.51823 0.0
O894 O 0.57086 0.54511 0.54534 0.0
C895 C 0.54324 0.51504 0.4842 0.0
C896 C 0.46305 0.4901 0.49402 0.0
C897 C 0.43537 0.50759 0.49413 0.0
C898 C 0.44658 0.50995 0.47981 0.0
C899 C 0.46044 0.50128 0.47977 0.0
C900 C 0.45054 0.48618 0.50723 0.0
C901 C 0.4369 0.49506 0.5074 0.0
C902 C 0.48005 0.48523 0.49707 0.0
C903 C 0.52223 0.55154 0.50511 0.0
H904 H 0.64217 0.55683 0.55416 0.0
H905 H 0.61642 0.57036 0.55255 0.0
H906 H 0.58446 0.51915 0.5195 0.0
H907 H 0.60986 0.50582 0.52093 0.0
H908 H 0.44549 0.51962 0.46948 0.0
H909 H 0.46978 0.50442 0.4693 0.0
H910 H 0.45215 0.47745 0.51823 0.0
H911 H 0.42819 0.49304 0.51847 0.0
Tb912 Tb 0.01884 0.52577 0.01864 0.0
Tb913 Tb 0.06611 0.53101 0.02296 0.0
C914 C 0.03454 0.51856 0.0527 0.0
C915 C 0.97617 0.53953 0.01201 0.0
C916 C 0.95402 0.56375 0.0175 0.0
C917 C 0.96147 0.55667 0.0324 0.0
C918 C 0.97252 0.54474 0.0297 0.0
C919 C 0.9688 0.54668 0.99715 0.0
C920 C 0.95788 0.55873 -0.00014 0.0
C921 C 0.98721 0.52635 0.0087 0.0
O922 O 0.03209 0.55317 0.03487 0.0
O923 O 0.06293 0.55953 0.03022 0.0
O924 O 0.05995 0.53083 0.99446 0.0
O925 O 0.03732 0.54357 0.00114 0.0
O926 O 0.08284 0.52227 0.04176 0.0
O927 O 0.09416 0.54146 0.02118 0.0
O928 O 0.05382 0.50168 0.01114 0.0
O929 O 0.02273 0.49838 0.00815 0.0
O930 O 0.01835 0.51756 0.04651 0.0
O931 O 0.04657 0.52331 0.04134 0.0
C932 C 0.04901 0.56468 0.0361 0.0
O933 O 1.00104 0.5326 0.99925 0.0
O934 O 0.99116 0.51748 0.02244 0.0
C935 C 0.04638 0.53697 0.9892 0.0
C936 C 0.10915 0.51856 0.02928 0.0
C937 C 0.13265 0.49639 0.02131 0.0
C938 C 0.13753 0.51626 0.01874 0.0
C939 C 0.12594 0.52723 0.02279 0.0
C940 C 0.10407 0.49863 0.03161 0.0
C941 C 0.11572 0.48768 0.0277 0.0
C942 C 0.09733 0.53059 0.03375 0.0
C943 C 0.03679 0.49167 0.0064 0.0
H944 H 0.95883 0.56046 0.04615 0.0
H945 H 0.97809 0.53953 0.04146 0.0
H946 H 0.97136 0.54278 0.9834 0.0
H947 H 0.95213 0.56379 0.9881 0.0
H948 H 0.15033 0.52339 0.01359 0.0
H949 H 0.13014 0.54255 0.02089 0.0
H950 H 0.09119 0.49148 0.03661 0.0
H951 H 0.11163 0.47249 0.03012 0.0
H952 H 0.02958 0.2237 0.97737 0.0
H953 H 0.02856 0.1917 0.9868 0.0
H954 H 0.98927 0.16493 0.94181 0.0
H955 H 0.99019 0.19695 0.93221 0.0
H956 H 0.98146 0.1472 0.97486 0.0
H957 H 0.03148 0.16696 0.93761 0.0
H958 H 0.05955 0.18955 0.92884 0.0
H959 H 0.08634 0.18773 0.98106 0.0
H960 H 0.05833 0.16535 0.99024 0.0
H961 H 0.99427 0.05251 0.97946 0.0
H962 H 0.98983 0.08285 0.96993 0.0
H963 H 0.03489 0.11552 0.00735 0.0
H964 H 0.03954 0.08567 0.0166 0.0
H965 H 0.03869 0.12958 0.97614 0.0
H966 H 0.99045 0.1115 0.01461 0.0
H967 H 0.96273 0.09073 0.02584 0.0
H968 H 0.93309 0.09084 0.97477 0.0
H969 H 0.96074 0.11126 0.9631 0.0
C970 C 0.02059 0.21104 0.96953 0.0
C971 C 0.01005 0.21294 0.95395 0.0
C972 C 0.02005 0.19274 0.97494 0.0
C973 C 0.00894 0.1759 0.96493 0.0
C974 C 0.99793 0.17772 0.94974 0.0
C975 C 0.99854 0.19604 0.94424 0.0
C976 C 0.00958 0.15648 0.96982 0.0
C977 C 0.99388 0.14318 0.9749 0.0
C978 C 0.02588 0.15142 0.97027 0.0
C979 C 0.04279 0.1646 0.96465 0.0
C980 C 0.04333 0.17148 0.94725 0.0
C981 C 0.05923 0.18423 0.94221 0.0
C982 C 0.07471 0.1901 0.9544 0.0
C983 C 0.07434 0.18318 0.97164 0.0
C984 C 0.05846 0.17045 0.97676 0.0
C985 C 1.00306 0.06618 0.98579 0.0
C986 C 0.01737 0.06662 0.99864 0.0
C987 C 1.00052 0.08352 0.98034 0.0
C988 C 0.01211 0.10156 0.98784 0.0
C989 C 0.02591 0.10188 0.00116 0.0
C990 C 0.02852 0.0847 0.00647 0.0
C991 C 0.01059 0.12022 0.98149 0.0
C992 C 0.02617 0.13342 0.97605 0.0
C993 C 0.99425 0.12526 0.98103 0.0
C994 C 0.9777 0.11272 0.98791 0.0
C995 C 0.97807 0.1069 0.0057 0.0
C996 C 0.96237 0.09521 0.01215 0.0
C997 C 0.94618 0.08943 0.00101 0.0
C998 C 0.94566 0.09527 0.98337 0.0
C999 C 0.96134 0.10689 0.97682 0.0
H1000 H 0.93401 0.08054 0.00608 0.0
H1001 H 0.08701 0.19998 0.95047 0.0
H1002 H 0.11067 0.78433 0.17215 0.0
H1003 H 0.13619 0.78021 0.19085 0.0
H1004 H 0.17314 0.81339 0.15537 0.0
H1005 H 0.14762 0.81704 0.13627 0.0
H1006 H 0.18254 0.78265 0.1627 0.0
H1007 H 0.16661 0.83178 0.19948 0.0
H1008 H 0.14584 0.84532 0.2161 0.0
H1009 H 0.13547 0.79795 0.25 0.0
H1010 H 0.15601 0.78401 0.23344 0.0
H1011 H 0.26319 0.7926 0.21857 0.0
H1012 H 0.23802 0.79779 0.19998 0.0
H1013 H 0.2012 0.77085 0.23874 0.0
H1014 H 0.22667 0.76726 0.258 0.0
H1015 H 0.19163 0.79869 0.22948 0.0
H1016 H 0.20621 0.74867 0.19316 0.0
H1017 H 0.22635 0.73395 0.17679 0.0
H1018 H 0.23811 0.78075 0.14221 0.0
H1019 H 0.21819 0.79584 0.15851 0.0
C1020 C 0.12423 0.79092 0.1684 0.0
C1021 C 0.12708 0.80109 0.15272 0.0
C1022 C 0.13885 0.78859 0.17917 0.0
C1023 C 0.15668 0.7967 0.17471 0.0
C1024 C 0.15955 0.807 0.15914 0.0
C1025 C 0.14492 0.80914 0.14825 0.0
C1026 C 0.17232 0.79402 0.18594 0.0
C1027 C 0.18465 0.78639 0.17728 0.0
C1028 C 0.17487 0.7983 0.20505 0.0
C1029 C 0.1627 0.80679 0.21512 0.0
C1030 C 0.15981 0.82421 0.21041 0.0
C1031 C 0.1481 0.83195 0.21983 0.0
C1032 C 0.13931 0.82248 0.23407 0.0
C1033 C 0.14227 0.80526 0.23896 0.0
C1034 C 0.15396 0.79745 0.22958 0.0
C1035 C 0.24967 0.78773 0.22299 0.0
C1036 C 0.24678 0.77948 0.23962 0.0
C1037 C 0.23523 0.79055 0.2123 0.0
C1038 C 0.21747 0.78433 0.21763 0.0
C1039 C 0.21466 0.77583 0.23422 0.0
C1040 C 0.2292 0.77368 0.24521 0.0
C1041 C 0.20188 0.78715 0.2063 0.0
C1042 C 0.18955 0.79486 0.21492 0.0
C1043 C 0.19919 0.78268 0.18717 0.0
C1044 C 0.21086 0.77344 0.17714 0.0
C1045 C 0.21315 0.75583 0.1821 0.0
C1046 C 0.22452 0.74744 0.17284 0.0
C1047 C 0.23354 0.75643 0.1585 0.0
C1048 C 0.23113 0.7738 0.15333 0.0
C1049 C 0.21979 0.78227 0.16255 0.0
H1050 H 0.24236 0.74992 0.15137 0.0
H1051 H 0.13023 0.82849 0.24133 0.0
H1052 H 0.52592 0.81415 0.46113 0.0
H1053 H 0.53168 0.84677 0.4762 0.0
H1054 H 0.49049 0.85669 0.43933 0.0
H1055 H 0.48512 0.82456 0.42399 0.0
H1056 H 0.51878 0.88611 0.441 0.0
H1057 H 0.48526 0.84919 0.4858 0.0
H1058 H 0.4782 0.82415 0.50756 0.0
H1059 H 0.52953 0.85076 0.53782 0.0
H1060 H 0.53699 0.87583 0.51609 0.0
H1061 H 0.50783 0.97101 0.48543 0.0
H1062 H 0.50232 0.93711 0.47426 0.0
H1063 H 0.55094 0.93572 0.50509 0.0
H1064 H 0.55668 0.96969 0.51623 0.0
H1065 H 0.52048 0.90244 0.5074 0.0
H1066 H 0.55323 0.93978 0.46237 0.0
H1067 H 0.55925 0.96517 0.44092 0.0
H1068 H 0.50785 0.9375 0.41118 0.0
H1069 H 0.50139 0.91209 0.43264 0.0
C1070 C 0.51797 0.82323 0.45641 0.0
C1071 C 0.50514 0.81679 0.4413 0.0
C1072 C 0.52122 0.84187 0.46506 0.0
C1073 C 0.51148 0.85426 0.45897 0.0
C1074 C 0.4983 0.84754 0.44424 0.0
C1075 C 0.4952 0.82909 0.4355 0.0
C1076 C 0.51551 0.87456 0.46718 0.0
C1077 C 0.51889 0.88957 0.45551 0.0
C1078 C 0.51619 0.87931 0.48616 0.0
C1079 C 0.51177 0.86424 0.4992 0.0
C1080 C 0.49511 0.8496 0.49701 0.0
C1081 C 0.49102 0.83542 0.50935 0.0
C1082 C 0.50343 0.83582 0.52403 0.0
C1083 C 0.51994 0.85044 0.52642 0.0
C1084 C 0.5241 0.86464 0.5141 0.0
C1085 C 0.51733 0.9635 0.48992 0.0
C1086 C 0.53276 0.97311 0.50165 0.0
C1087 C 0.51416 0.94413 0.4835 0.0
C1088 C 0.52626 0.93394 0.48878 0.0
C1089 C 0.54142 0.94332 0.50086 0.0
C1090 C 0.54473 0.96277 0.50712 0.0
C1091 C 0.52338 0.91371 0.48115 0.0
C1092 C 0.52033 0.89883 0.49291 0.0
C1093 C 0.52285 0.90901 0.46223 0.0
C1094 C 0.52675 0.92415 0.44922 0.0
C1095 C 0.54314 0.9392 0.45134 0.0
C1096 C 0.54665 0.95357 0.43917 0.0
C1097 C 0.53392 0.95298 0.42472 0.0
C1098 C 0.51768 0.93796 0.42239 0.0
C1099 C 0.5141 0.92356 0.43455 0.0
H1100 H 0.53665 0.96413 0.41531 0.0
H1101 H 0.50024 0.82484 0.53358 0.0
H1102 H 0.50417 0.28338 0.62319 0.0
H1103 H 0.47851 0.28132 0.64125 0.0
H1104 H 0.51288 0.28553 0.69048 0.0
H1105 H 0.53872 0.28748 0.67247 0.0
H1106 H 0.47959 0.25813 0.69102 0.0
H1107 H 0.50261 0.32458 0.67828 0.0
H1108 H 0.51261 0.35137 0.65872 0.0
H1109 H 0.45989 0.33491 0.62984 0.0
H1110 H 0.44965 0.30783 0.64907 0.0
H1111 H 0.42533 0.28798 0.75409 0.0
H1112 H 0.44944 0.28524 0.73542 0.0
H1113 H 0.41448 0.28198 0.68682 0.0
H1114 H 0.39006 0.28421 0.7054 0.0
H1115 H 0.4476 0.30797 0.68554 0.0
H1116 H 0.42408 0.24227 0.69901 0.0
H1117 H 0.41402 0.21533 0.71838 0.0
H1118 H 0.46731 0.23008 0.74582 0.0
H1119 H 0.47763 0.25731 0.72678 0.0
C1120 C 0.5063 0.28377 0.63785 0.0
C1121 C 0.52353 0.28575 0.6464 0.0
C1122 C 0.4916 0.28262 0.64815 0.0
C1123 C 0.49385 0.28349 0.66721 0.0
C1124 C 0.51089 0.28486 0.67578 0.0
C1125 C 0.52564 0.28605 0.66547 0.0
C1126 C 0.47853 0.28367 0.67816 0.0
C1127 C 0.47272 0.26915 0.69001 0.0
C1128 C 0.46932 0.29779 0.67651 0.0
C1129 C 0.47542 0.31409 0.66499 0.0
C1130 C 0.4932 0.32659 0.66766 0.0
C1131 C 0.4989 0.34183 0.65665 0.0
C1132 C 0.48691 0.34481 0.64301 0.0
C1133 C 0.46917 0.33257 0.64039 0.0
C1134 C 0.46341 0.31728 0.65134 0.0
C1135 C 0.42262 0.28635 0.73944 0.0
C1136 C 0.4057 0.28627 0.73127 0.0
C1137 C 0.43646 0.28484 0.72878 0.0
C1138 C 0.4337 0.28325 0.70974 0.0
C1139 C 0.41688 0.28321 0.70151 0.0
C1140 C 0.40298 0.28461 0.71216 0.0
C1141 C 0.44861 0.28243 0.69843 0.0
C1142 C 0.45439 0.29688 0.68653 0.0
C1143 C 0.45775 0.26823 0.70006 0.0
C1144 C 0.45158 0.25195 0.71159 0.0
C1145 C 0.43361 0.23989 0.7093 0.0
C1146 C 0.42787 0.22454 0.72019 0.0
C1147 C 0.44 0.22103 0.73336 0.0
C1148 C 0.45792 0.23284 0.73563 0.0
C1149 C 0.46372 0.24822 0.72478 0.0
H1150 H 0.43554 0.20912 0.74177 0.0
H1151 H 0.49135 0.35663 0.63451 0.0
H1152 H 0.03377 0.82407 0.61348 0.0
H1153 H 0.03371 0.85111 0.59481 0.0
H1154 H 0.04721 0.89065 0.64309 0.0
H1155 H 0.04671 0.86392 0.66154 0.0
H1156 H 0.02605 0.90327 0.6246 0.0
H1157 H 0.07765 0.88511 0.60496 0.0
H1158 H 0.09323 0.86281 0.59192 0.0
H1159 H 0.05797 0.85268 0.54279 0.0
H1160 H 0.04207 0.87478 0.55563 0.0
H1161 H 0.04958 0.99291 0.58225 0.0
H1162 H 0.0495 0.96465 0.59886 0.0
H1163 H 0.03498 0.9281 0.54869 0.0
H1164 H 0.0356 0.95645 0.532 0.0
H1165 H 0.0556 0.91328 0.56706 0.0
H1166 H 1.00375 0.92969 0.58531 0.0
H1167 H 0.98722 0.95179 0.59674 0.0
H1168 H 0.02126 0.96447 0.64674 0.0
H1169 H 0.03805 0.94235 0.6356 0.0
C1170 C 0.03686 0.83851 0.62017 0.0
C1171 C 0.0403 0.84128 0.63936 0.0
C1172 C 0.03694 0.85428 0.60934 0.0
C1173 C 0.04071 0.8737 0.6171 0.0
C1174 C 0.04416 0.87628 0.63623 0.0
C1175 C 0.04395 0.86065 0.64696 0.0
C1176 C 0.0409 0.89125 0.60584 0.0
C1177 C 0.03282 0.90537 0.61217 0.0
C1178 C 0.04903 0.89455 0.58905 0.0
C1179 C 0.05858 0.88139 0.58132 0.0
C1180 C 0.07318 0.87803 0.59142 0.0
C1181 C 0.08206 0.86545 0.58406 0.0
C1182 C 0.07656 0.85629 0.56656 0.0
C1183 C 0.06219 0.85975 0.55636 0.0
C1184 C 0.05325 0.87231 0.56366 0.0
C1185 C 0.04635 0.97891 0.57462 0.0
C1186 C 0.04255 0.97746 0.5555 0.0
C1187 C 0.04614 0.96243 0.5843 0.0
C1188 C 0.04184 0.94348 0.57547 0.0
C1189 C 0.03833 0.94212 0.55631 0.0
C1190 C 0.03863 0.9586 0.54662 0.0
C1191 C 0.041 0.92534 0.586 0.0
C1192 C 0.0489 0.91114 0.57953 0.0
C1193 C 0.03253 0.92182 0.60254 0.0
C1194 C 0.02219 0.93452 0.6096 0.0
C1195 C 0.0077 0.93719 0.59876 0.0
C1196 C 0.9983 0.94969 0.60518 0.0
C1197 C 1.00322 0.95952 0.62247 0.0
C1198 C 0.01749 0.95677 0.6334 0.0
C1199 C 0.02691 0.94422 0.62707 0.0
H1200 H 0.99598 0.96926 0.62739 0.0
H1201 H 0.08345 0.84655 0.5609 0.0
H1202 H 0.49061 0.78962 0.8639 0.0
H1203 H 0.46142 0.79286 0.85137 0.0
H1204 H 0.44423 0.73251 0.83215 0.0
H1205 H 0.47302 0.72927 0.84459 0.0
H1206 H 0.43159 0.7497 0.80706 0.0
H1207 H 0.42825 0.75322 0.87147 0.0
H1208 H 0.43766 0.76584 0.90346 0.0
H1209 H 0.43313 0.82143 0.89108 0.0
H1210 H 0.42392 0.80921 0.85894 0.0
H1211 H 0.33546 0.73743 0.78954 0.0
H1212 H 0.36541 0.73594 0.80128 0.0
H1213 H 0.38105 0.79682 0.81829 0.0
H1214 H 0.3513 0.79838 0.80638 0.0
H1215 H 0.39475 0.78023 0.84426 0.0
H1216 H 0.39737 0.77653 0.78003 0.0
H1217 H 0.38826 0.7641 0.74797 0.0
H1218 H 0.39433 0.70897 0.75984 0.0
H1219 H 0.40317 0.72097 0.79208 0.0
C1220 C 0.48075 0.77704 0.85686 0.0
C1221 C 0.48475 0.75914 0.85544 0.0
C1222 C 0.46371 0.77884 0.84974 0.0
C1223 C 0.44984 0.76289 0.84067 0.0
C1224 C 0.45415 0.74525 0.83888 0.0
C1225 C 0.47093 0.7434 0.84617 0.0
C1226 C 0.431 0.7642 0.83323 0.0
C1227 C 0.42358 0.75621 0.81544 0.0
C1228 C 0.42001 0.77293 0.8435 0.0
C1229 C 0.42561 0.78037 0.86276 0.0
C1230 C 0.42941 0.76819 0.87554 0.0
C1231 C 0.43468 0.77526 0.8937 0.0
C1232 C 0.43605 0.79444 0.89929 0.0
C1233 C 0.4321 0.80659 0.88672 0.0
C1234 C 0.42685 0.79959 0.86853 0.0
C1235 C 0.3452 0.75058 0.79575 0.0
C1236 C 0.34044 0.76806 0.79676 0.0
C1237 C 0.36264 0.74975 0.8025 0.0
C1238 C 0.37623 0.7663 0.81084 0.0
C1239 C 0.37132 0.78366 0.81209 0.0
C1240 C 0.35403 0.78455 0.8051 0.0
C1241 C 0.39533 0.76565 0.81812 0.0
C1242 C 0.40278 0.77374 0.83588 0.0
C1243 C 0.40635 0.757 0.80782 0.0
C1244 C 0.40076 0.7496 0.78853 0.0
C1245 C 0.39659 0.7617 0.77585 0.0
C1246 C 0.39151 0.75474 0.75764 0.0
C1247 C 0.39072 0.73576 0.75188 0.0
C1248 C 0.39498 0.72369 0.76433 0.0
C1249 C 0.4 0.73054 0.78258 0.0
H1250 H 0.38682 0.73041 0.73776 0.0
H1251 H 0.44012 0.79989 0.91336 0.0
H1252 H 0.56646 0.23702 0.1199 0.0
H1253 H 0.56429 0.20542 0.10511 0.0
H1254 H 0.51219 0.18179 0.12517 0.0
H1255 H 0.51435 0.21394 0.14034 0.0
H1256 H 0.53227 0.15555 0.12779 0.0
H1257 H 0.51724 0.19049 0.07906 0.0
H1258 H 0.52179 0.21803 0.06007 0.0
H1259 H 0.57227 0.21062 0.0456 0.0
H1260 H 0.56812 0.18318 0.0647 0.0
H1261 H 0.51863 0.06503 0.07375 0.0
H1262 H 0.5166 0.09515 0.08909 0.0
H1263 H 0.56046 0.12762 0.06012 0.0
H1264 H 0.56143 0.09755 0.04379 0.0
H1265 H 0.54233 0.1492 0.06245 0.0
H1266 H 0.55987 0.11678 0.11205 0.0
H1267 H 0.55732 0.08997 0.1317 0.0
H1268 H 0.50526 0.09313 0.14551 0.0
H1269 H 0.50744 0.11987 0.12581 0.0
C1270 C 0.55435 0.22528 0.12122 0.0
C1271 C 0.54054 0.22862 0.13146 0.0
C1272 C 0.55312 0.20692 0.11255 0.0
C1273 C 0.53798 0.19067 0.11355 0.0
C1274 C 0.52411 0.19377 0.1239 0.0
C1275 C 0.52528 0.21239 0.13256 0.0
C1276 C 0.53696 0.17087 0.10375 0.0
C1277 C 0.53421 0.15419 0.11342 0.0
C1278 C 0.54 0.16856 0.08504 0.0
C1279 C 0.54243 0.1849 0.07342 0.0
C1280 C 0.52936 0.19481 0.07191 0.0
C1281 C 0.53186 0.21039 0.06112 0.0
C1282 C 0.54733 0.2161 0.05167 0.0
C1283 C 0.5603 0.20619 0.05294 0.0
C1284 C 0.55787 0.19062 0.06373 0.0
C1285 C 0.52792 0.07856 0.07063 0.0
C1286 C 0.54027 0.07845 0.05737 0.0
C1287 C 0.52691 0.09609 0.07971 0.0
C1288 C 0.53869 0.11442 0.07654 0.0
C1289 C 0.55103 0.11418 0.06323 0.0
C1290 C 0.55168 0.09672 0.0538 0.0
C1291 C 0.538 0.13368 0.08649 0.0
C1292 C 0.54042 0.15037 0.07683 0.0
C1293 C 0.535 0.13602 0.1053 0.0
C1294 C 0.53374 0.12016 0.11731 0.0
C1295 C 0.54785 0.1117 0.11923 0.0
C1296 C 0.54648 0.09653 0.13037 0.0
C1297 C 0.53112 0.08981 0.1398 0.0
C1298 C 0.51713 0.09833 0.13817 0.0
C1299 C 0.51844 0.11351 0.12704 0.0
H1300 H 0.53007 0.07804 0.14838 0.0
H1301 H 0.54924 0.22817 0.04333 0.0
H1302 H 0.0884 0.25463 0.343 0.0
H1303 H 0.11568 0.25447 0.32746 0.0
H1304 H 0.14664 0.30506 0.36152 0.0
H1305 H 0.1198 0.30528 0.37683 0.0
H1306 H 0.1586 0.30993 0.32965 0.0
H1307 H 0.14838 0.25487 0.36567 0.0
H1308 H 0.1308 0.22337 0.37524 0.0
H1309 H 0.12709 0.19754 0.32068 0.0
H1310 H 0.14447 0.22896 0.31076 0.0
H1311 H 0.24874 0.31083 0.31 0.0
H1312 H 0.2204 0.31013 0.3231 0.0
H1313 H 0.19481 0.2539 0.29506 0.0
H1314 H 0.22351 0.25416 0.28292 0.0
H1315 H 0.17892 0.25136 0.32239 0.0
H1316 H 0.18862 0.30431 0.28539 0.0
H1317 H 0.20466 0.33532 0.27379 0.0
H1318 H 0.20703 0.3647 0.3266 0.0
H1319 H 0.1914 0.33383 0.33859 0.0
C1320 C 0.10093 0.26585 0.34714 0.0
C1321 C 0.10132 0.27999 0.36147 0.0
C1322 C 0.11685 0.26567 0.33825 0.0
C1323 C 0.13397 0.27967 0.34313 0.0
C1324 C 0.1341 0.29395 0.35709 0.0
C1325 C 0.1184 0.29401 0.36603 0.0
C1326 C 0.15168 0.27974 0.33414 0.0
C1327 C 0.163 0.29705 0.32831 0.0
C1328 C 0.15788 0.26312 0.33148 0.0
C1329 C 0.14755 0.24427 0.33745 0.0
C1330 C 0.14371 0.24249 0.3557 0.0
C1331 C 0.1338 0.22466 0.36119 0.0
C1332 C 0.12779 0.20848 0.34856 0.0
C1333 C 0.13173 0.21009 0.33044 0.0
C1334 C 0.14162 0.2279 0.32488 0.0
C1335 C 0.23713 0.29829 0.30645 0.0
C1336 C 0.23896 0.28264 0.29504 0.0
C1337 C 0.22049 0.29793 0.31395 0.0
C1338 C 0.20445 0.28213 0.31006 0.0
C1339 C 0.20639 0.26648 0.29866 0.0
C1340 C 0.2231 0.26668 0.29148 0.0
C1341 C 0.18605 0.28166 0.31792 0.0
C1342 C 0.17458 0.26428 0.3236 0.0
C1343 C 0.17951 0.29816 0.32008 0.0
C1344 C 0.18901 0.31672 0.31293 0.0
C1345 C 0.19271 0.31737 0.29456 0.0
C1346 C 0.20175 0.33493 0.28791 0.0
C1347 C 0.20696 0.35198 0.29946 0.0
C1348 C 0.20311 0.3515 0.31767 0.0
C1349 C 0.19417 0.33397 0.32441 0.0
H1350 H 0.21391 0.36556 0.29428 0.0
H1351 H 0.12012 0.19468 0.35283 0.0
H1352 H 0.96065 0.01359 0.20054 0.0
H1353 H 0.97553 0.01036 0.17304 0.0
H1354 H 0.98762 0.07193 0.16849 0.0
H1355 H 0.9711 0.07473 0.19529 0.0
H1356 H 0.97429 0.05435 0.13805 0.0
H1357 H 0.02078 0.04663 0.18104 0.0
H1358 H 0.03239 0.03224 0.20674 0.0
H1359 H 0.01397 0.97621 0.17713 0.0
H1360 H 1.00204 0.9902 0.15137 0.0
H1361 H 0.03433 0.05597 0.06895 0.0
H1362 H 0.02499 0.05943 0.09974 0.0
H1363 H 0.99233 0.99967 0.09398 0.0
H1364 H 1.00111 0.99629 0.0629 0.0
H1365 H 0.01764 0.01649 0.12953 0.0
H1366 H 0.96993 0.02302 0.08814 0.0
H1367 H 0.95896 0.03621 0.06147 0.0
H1368 H 0.97848 0.09356 0.0884 0.0
H1369 H 0.99065 0.08074 0.11491 0.0
C1370 C 0.96686 0.02646 0.19383 0.0
C1371 C 0.96508 0.04444 0.19991 0.0
C1372 C 0.97547 0.02465 0.17821 0.0
C1373 C 0.98308 0.04098 0.16891 0.0
C1374 C 0.98191 0.05917 0.17552 0.0
C1375 C 0.97265 0.06083 0.1908 0.0
C1376 C 0.99063 0.03873 0.15138 0.0
C1377 C 0.98409 0.04644 0.13636 0.0
C1378 C 1.00286 0.02776 0.14896 0.0
C1379 C 0.01047 0.01946 0.1643 0.0
C1380 C 0.01916 0.03123 0.18004 0.0
C1381 C 0.02579 0.02314 0.19462 0.0
C1382 C 0.0239 0.00332 0.19358 0.0
C1383 C 0.01544 0.99156 0.17793 0.0
C1384 C 0.00877 0.99956 0.16332 0.0
C1385 C 0.02517 0.04361 0.07431 0.0
C1386 C 0.01819 0.02595 0.06368 0.0
C1387 C 0.01997 0.04557 0.09182 0.0
C1388 C 0.00813 0.02975 0.09893 0.0
C1389 C 1.00159 0.01192 0.08858 0.0
C1390 C 1.0064 0.01009 0.07087 0.0
C1391 C 1.00148 0.03237 0.11669 0.0
C1392 C 0.00808 0.02464 0.13153 0.0
C1393 C 0.98927 0.04324 0.119 0.0
C1394 C 0.98147 0.05096 0.10338 0.0
C1395 C 0.97215 0.03848 0.08828 0.0
C1396 C 0.96567 0.0459 0.07319 0.0
C1397 C 0.96791 0.06574 0.07322 0.0
C1398 C 0.97676 0.0782 0.08836 0.0
C1399 C 0.98356 0.07087 0.1034 0.0
H1400 H 0.9628 0.07145 0.06153 0.0
H1401 H 0.02902 0.99708 0.2049 0.0
H1402 H 0.25795 0.6803 0.51939 0.0
H1403 H 0.25196 0.69276 0.49044 0.0
H1404 H 0.26597 0.64609 0.46165 0.0
H1405 H 0.27317 0.63448 0.4907 0.0
H1406 H 0.28062 0.67643 0.44733 0.0
H1407 H 0.22052 0.64888 0.463 0.0
H1408 H 0.19523 0.64257 0.48262 0.0
H1409 H 0.19805 0.70277 0.48582 0.0
H1410 H 0.22353 0.70949 0.46644 0.0
H1411 H 0.25021 0.70235 0.36219 0.0
H1412 H 0.2501 0.68351 0.38853 0.0
H1413 H 0.25071 0.7332 0.42416 0.0
H1414 H 0.25134 0.7523 0.39804 0.0
H1415 H 0.22649 0.69786 0.43281 0.0
H1416 H 0.28888 0.72419 0.41823 0.0
H1417 H 0.31341 0.72876 0.39774 0.0
H1418 H 0.30436 0.6673 0.39102 0.0
H1419 H 0.27958 0.66236 0.41125 0.0
C1420 C 0.25958 0.67267 0.50684 0.0
C1421 C 0.26597 0.65648 0.50715 0.0
C1422 C 0.25604 0.67968 0.4903 0.0
C1423 C 0.25818 0.67016 0.47379 0.0
C1424 C 0.26423 0.6537 0.47417 0.0
C1425 C 0.2683 0.64705 0.49073 0.0
C1426 C 0.25505 0.67795 0.45622 0.0
C1427 C 0.26857 0.68071 0.44404 0.0
C1428 C 0.23944 0.68373 0.45189 0.0
C1429 C 0.22398 0.6797 0.46335 0.0
C1430 C 0.2158 0.66079 0.46797 0.0
C1431 C 0.20143 0.65714 0.47904 0.0
C1432 C 0.19506 0.67226 0.48548 0.0
C1433 C 0.203 0.69107 0.48082 0.0
C1434 C 0.21739 0.6948 0.46977 0.0
C1435 C 0.25032 0.70927 0.37563 0.0
C1436 C 0.25093 0.72887 0.37805 0.0
C1437 C 0.25016 0.69846 0.39062 0.0
C1438 C 0.25051 0.70707 0.40821 0.0
C1439 C 0.25035 0.72634 0.41063 0.0
C1440 C 0.25064 0.7372 0.39568 0.0
C1441 C 0.2521 0.69643 0.42427 0.0
C1442 C 0.23833 0.69321 0.4361 0.0
C1443 C 0.26728 0.68986 0.4281 0.0
C1444 C 0.28227 0.69289 0.41607 0.0
C1445 C 0.29203 0.71165 0.41225 0.0
C1446 C 0.30599 0.71431 0.40071 0.0
C1447 C 0.31041 0.69833 0.39304 0.0
C1448 C 0.30091 0.67966 0.39694 0.0
C1449 C 0.28691 0.67692 0.40844 0.0
H1450 H 0.32123 0.70042 0.3841 0.0
H1451 H 0.18394 0.66941 0.49406 0.0
H1452 H 0.59238 0.9693 0.70876 0.0
H1453 H 0.57019 0.97322 0.68535 0.0
H1454 H 0.61232 0.01611 0.66258 0.0
H1455 H 0.63447 0.01237 0.68572 0.0
H1456 H 0.5811 0.02721 0.6664 0.0
H1457 H 0.59992 0.97207 0.64297 0.0
H1458 H 0.60388 0.93974 0.6455 0.0
H1459 H 0.54698 0.9158 0.65042 0.0
H1460 H 0.54276 0.9481 0.6481 0.0
H1461 H 0.57875 0.0342 0.57479 0.0
H1462 H 0.58331 0.02732 0.60615 0.0
H1463 H 0.52826 0.99046 0.60375 0.0
H1464 H 0.52347 0.99719 0.57203 0.0
H1465 H 0.55444 0.97405 0.61795 0.0
H1466 H 0.53739 0.03128 0.62898 0.0
H1467 H 0.53712 0.06447 0.62382 0.0
H1468 H 0.59393 0.08587 0.64045 0.0
H1469 H 0.59463 0.05278 0.64543 0.0
C1470 C 0.59691 0.97945 0.69867 0.0
C1471 C 0.61515 0.99046 0.69899 0.0
C1472 C 0.58422 0.98176 0.68546 0.0
C1473 C 0.58969 0.9951 0.6725 0.0
C1474 C 0.60788 0.00596 0.6727 0.0
C1475 C 0.62053 0.00361 0.68579 0.0
C1476 C 0.57691 0.99718 0.65785 0.0
C1477 C 0.57501 0.01559 0.65588 0.0
C1478 C 0.56864 0.98182 0.64451 0.0
C1479 C 0.57106 0.96243 0.64558 0.0
C1480 C 0.58829 0.9599 0.64469 0.0
C1481 C 0.59058 0.94161 0.64607 0.0
C1482 C 0.5757 0.92573 0.64818 0.0
C1483 C 0.55849 0.92811 0.64883 0.0
C1484 C 0.55614 0.9464 0.64747 0.0
C1485 C 0.56755 0.02469 0.58087 0.0
C1486 C 0.55074 0.01626 0.57097 0.0
C1487 C 0.57014 0.0209 0.59884 0.0
C1488 C 0.55597 0.00875 0.60726 0.0
C1489 C 0.53922 1.00007 0.59743 0.0
C1490 C 0.53657 0.0039 0.57937 0.0
C1491 C 0.55946 0.00438 0.62601 0.0
C1492 C 0.55962 0.9855 0.62883 0.0
C1493 C 0.56644 0.01945 0.63998 0.0
C1494 C 0.56602 0.03952 0.63761 0.0
C1495 C 0.54983 0.04306 0.63151 0.0
C1496 C 0.54961 0.06186 0.6286 0.0
C1497 C 0.56549 0.07727 0.63182 0.0
C1498 C 0.58162 0.07393 0.63801 0.0
C1499 C 0.58193 0.05515 0.64092 0.0
H1500 H 0.56529 0.09182 0.62951 0.0
H1501 H 0.5775 0.91157 0.64926 0.0
H1502 H 0.30789 0.38048 0.96396 0.0
H1503 H 0.30713 0.36539 0.93348 0.0
H1504 H 0.27141 0.31205 0.94876 0.0
H1505 H 0.27263 0.32703 0.97976 0.0
H1506 H 0.29457 0.30392 0.92764 0.0
H1507 H 0.25532 0.34254 0.92281 0.0
H1508 H 0.24488 0.37146 0.9269 0.0
H1509 H 0.28665 0.40269 0.89528 0.0
H1510 H 0.29752 0.37403 0.89123 0.0
H1511 H 0.26606 0.27709 0.82951 0.0
H1512 H 0.26495 0.28644 0.86184 0.0
H1513 H 0.31757 0.3281 0.8625 0.0
H1514 H 0.31907 0.3184 0.83036 0.0
H1515 H 0.28247 0.33935 0.87529 0.0
H1516 H 0.3213 0.29735 0.8822 0.0
H1517 H 0.32767 0.2661 0.87741 0.0
H1518 H 0.2809 0.23832 0.9046 0.0
H1519 H 0.27397 0.26935 0.9091 0.0
C1520 C 0.29985 0.36552 0.9609 0.0
C1521 C 0.29016 0.35502 0.97426 0.0
C1522 C 0.29937 0.35691 0.94338 0.0
C1523 C 0.28887 0.33769 0.93861 0.0
C1524 C 0.27953 0.32694 0.95205 0.0
C1525 C 0.2802 0.33552 0.96975 0.0
C1526 C 0.28769 0.32913 0.91952 0.0
C1527 C 0.29168 0.31158 0.91623 0.0
C1528 C 0.28377 0.33892 0.90449 0.0
C1529 C 0.27732 0.3562 0.90685 0.0
C1530 C 0.26236 0.35563 0.91685 0.0
C1531 C 0.25636 0.37196 0.91914 0.0
C1532 C 0.26512 0.38891 0.91139 0.0
C1533 C 0.27989 0.38955 0.90129 0.0
C1534 C 0.28597 0.37326 0.89898 0.0
C1535 C 0.27745 0.28815 0.8366 0.0
C1536 C 0.29265 0.29708 0.82742 0.0
C1537 C 0.27681 0.29339 0.85504 0.0
C1538 C 0.2912 0.3079 0.8645 0.0
C1539 C 0.30639 0.31679 0.85541 0.0
C1540 C 0.30724 0.31122 0.83709 0.0
C1541 C 0.28997 0.31466 0.88357 0.0
C1542 C 0.28532 0.33177 0.88677 0.0
C1543 C 0.29277 0.30418 0.89842 0.0
C1544 C 0.29697 0.28559 0.89572 0.0
C1545 C 0.31222 0.28453 0.8869 0.0
C1546 C 0.31596 0.26686 0.88428 0.0
C1547 C 0.30465 0.25021 0.89061 0.0
C1548 C 0.28963 0.25122 0.89966 0.0
C1549 C 0.28577 0.26883 0.90221 0.0
H1550 H 0.30756 0.23653 0.88857 0.0
H1551 H 0.26045 0.40154 0.91317 0.0
H1552 H 0.95661 0.04292 0.2719 0.0
H1553 H 0.9741 0.04048 0.29973 0.0
H1554 H 0.9271 0.99979 0.31768 0.0
H1555 H 0.90936 1.00204 0.28968 0.0
H1556 H 0.94636 0.03048 0.3442 0.0
H1557 H 0.95787 0.98276 0.30178 0.0
H1558 H 0.96717 0.97161 0.27279 0.0
H1559 H 0.01968 0.01306 0.2838 0.0
H1560 H 0.01061 0.02465 0.31275 0.0
H1561 H 0.98591 0.99556 0.41687 0.0
H1562 H 0.96953 0.99946 0.38881 0.0
H1563 H 0.01994 0.03003 0.36824 0.0
H1564 H 0.03647 0.02549 0.39624 0.0
H1565 H 0.99971 0.0059 0.34262 0.0
H1566 H 0.98944 0.05558 0.3827 0.0
H1567 H 0.98073 0.07058 0.41022 0.0
H1568 H 0.9281 0.02897 0.40335 0.0
H1569 H 0.93628 0.01404 0.37552 0.0
C1570 C 0.94992 0.03348 0.28176 0.0
C1571 C 0.93159 0.02266 0.27862 0.0
C1572 C 0.95998 0.03206 0.2976 0.0
C1573 C 0.95187 0.01985 0.31058 0.0
C1574 C 0.93352 0.00925 0.3077 0.0
C1575 C 0.92344 0.01055 0.29175 0.0
C1576 C 0.9626 0.01836 0.32727 0.0
C1577 C 0.95788 0.02485 0.34394 0.0
C1578 C 0.97802 0.01177 0.32669 0.0
C1579 C 0.98351 0.00467 0.30936 0.0
C1580 C 0.97136 0.9896 0.29796 0.0
C1581 C 0.97659 0.98318 0.28154 0.0
C1582 C 0.99399 0.99165 0.27644 0.0
C1583 C 1.0062 0.00652 0.28776 0.0
C1584 C 1.00103 0.013 0.30418 0.0
C1585 C 0.99346 1.00313 0.40634 0.0
C1586 C 0.01238 0.01031 0.40864 0.0
C1587 C 0.98411 0.0055 0.3904 0.0
C1588 C 0.99348 0.01544 0.37661 0.0
C1589 C 0.01245 0.0224 0.37876 0.0
C1590 C 0.02186 0.01976 0.39467 0.0
C1591 C 0.9834 0.01786 0.35972 0.0
C1592 C 0.98824 0.01158 0.34296 0.0
C1593 C 0.96828 0.02502 0.36015 0.0
C1594 C 0.96351 0.03361 0.37714 0.0
C1595 C 0.97605 0.04955 0.38714 0.0
C1596 C 0.97121 0.05807 0.40276 0.0
C1597 C 0.95397 0.0506 0.40864 0.0
C1598 C 0.94147 0.0347 0.39882 0.0
C1599 C 0.94614 0.02629 0.38305 0.0
H1600 H 0.95028 0.05719 0.42076 0.0
H1601 H 0.99802 0.98667 0.26373 0.0
H1602 H 0.28834 0.70125 0.57479 0.0
H1603 H 0.28643 0.71689 0.60452 0.0
H1604 H 0.31865 0.68448 0.62985 0.0
H1605 H 0.32004 0.66826 0.60022 0.0
H1606 H 0.28909 0.68234 0.64722 0.0
H1607 H 0.3356 0.7342 0.62354 0.0
H1608 H 0.34681 0.75696 0.60048 0.0
H1609 H 0.3031 0.78134 0.6071 0.0
H1610 H 0.29153 0.75858 0.63005 0.0
H1611 H 0.31057 0.72936 0.73528 0.0
H1612 H 0.3121 0.71639 0.70412 0.0
H1613 H 0.28168 0.75303 0.6833 0.0
H1614 H 0.28084 0.76646 0.71441 0.0
H1615 H 0.30787 0.75334 0.66291 0.0
H1616 H 0.26143 0.70474 0.68615 0.0
H1617 H 0.24789 0.6827 0.70893 0.0
H1618 H 0.28732 0.65226 0.70229 0.0
H1619 H 0.30126 0.6743 0.67961 0.0
C1620 C 0.29535 0.69778 0.58664 0.0
C1621 C 0.30441 0.68361 0.58523 0.0
C1622 C 0.2942 0.70668 0.60363 0.0
C1623 C 0.30246 0.70189 0.61937 0.0
C1624 C 0.31211 0.6883 0.61786 0.0
C1625 C 0.31302 0.67918 0.60094 0.0
C1626 C 0.30056 0.71042 0.63754 0.0
C1627 C 0.29342 0.69786 0.65073 0.0
C1628 C 0.30539 0.73065 0.64184 0.0
C1629 C 0.31265 0.74463 0.62841 0.0
C1630 C 0.32836 0.74438 0.62002 0.0
C1631 C 0.33477 0.75727 0.60698 0.0
C1632 C 0.32565 0.77056 0.6023 0.0
C1633 C 0.31014 0.77104 0.61073 0.0
C1634 C 0.30367 0.75817 0.62377 0.0
C1635 C 0.30434 0.73459 0.72395 0.0
C1636 C 0.2956 0.74874 0.7269 0.0
C1637 C 0.3051 0.72718 0.70625 0.0
C1638 C 0.29677 0.73358 0.69144 0.0
C1639 C 0.28818 0.74792 0.69452 0.0
C1640 C 0.28764 0.7555 0.71219 0.0
C1641 C 0.29695 0.72525 0.67273 0.0
C1642 C 0.30357 0.73782 0.65941 0.0
C1643 C 0.29123 0.70504 0.66819 0.0
C1644 C 0.28246 0.69125 0.68126 0.0
C1645 C 0.26724 0.69337 0.68957 0.0
C1646 C 0.2595 0.68089 0.70248 0.0
C1647 C 0.26676 0.66611 0.70709 0.0
C1648 C 0.28171 0.66372 0.6987 0.0
C1649 C 0.28952 0.67618 0.68579 0.0
H1650 H 0.2608 0.65651 0.71714 0.0
H1651 H 0.33062 0.78051 0.59218 0.0
H1652 H 0.63484 0.99554 0.78993 0.0
H1653 H 0.61871 0.99565 0.81705 0.0
H1654 H 0.5854 0.0262 0.79055 0.0
H1655 H 0.60192 0.02667 0.76338 0.0
H1656 H 0.60001 0.04336 0.8232 0.0
H1657 H 0.56849 0.97795 0.79911 0.0
H1658 H 0.56677 0.94504 0.78664 0.0
H1659 H 0.59453 0.93597 0.83588 0.0
H1660 H 0.59664 0.96892 0.84855 0.0
H1661 H 0.54607 0.0424 0.89533 0.0
H1662 H 0.55335 0.03337 0.86495 0.0
H1663 H 0.59154 0.00685 0.88873 0.0
H1664 H 0.5841 0.01558 0.91917 0.0
H1665 H 0.57212 0.98627 0.85661 0.0
H1666 H 0.60753 0.05014 0.8793 0.0
H1667 H 0.6128 0.08343 0.89295 0.0
H1668 H 0.5817 0.09568 0.84758 0.0
H1669 H 0.57599 0.06231 0.83381 0.0
C1670 C 0.62393 1.00208 0.78976 0.0
C1671 C 0.61965 0.01119 0.77459 0.0
C1672 C 0.61465 1.00199 0.80523 0.0
C1673 C 0.60072 0.01068 0.80566 0.0
C1674 C 0.59608 0.01934 0.79037 0.0
C1675 C 0.60551 0.01961 0.77491 0.0
C1676 C 0.59215 0.01224 0.82265 0.0
C1677 C 0.59349 0.03083 0.83027 0.0
C1678 C 0.58443 0.99591 0.83219 0.0
C1679 C 0.58278 0.97593 0.82474 0.0
C1680 C 0.57429 0.96896 0.80725 0.0
C1681 C 0.57325 0.9503 0.80015 0.0
C1682 C 0.58055 0.93843 0.81046 0.0
C1683 C 0.58887 0.94517 0.82791 0.0
C1684 C 0.58996 0.96383 0.83507 0.0
C1685 C 0.5557 0.03426 0.89404 0.0
C1686 C 0.56473 0.02988 0.90949 0.0
C1687 C 0.55985 0.02916 0.87675 0.0
C1688 C 0.57307 0.01964 0.87475 0.0
C1689 C 0.5813 0.0142 0.8901 0.0
C1690 C 0.5772 0.01936 0.90741 0.0
C1691 C 0.57972 0.01732 0.85685 0.0
C1692 C 0.57825 0.99869 0.84925 0.0
C1693 C 0.58769 0.03361 0.84743 0.0
C1694 C 0.59113 0.05367 0.85565 0.0
C1695 C 0.60166 0.05987 0.87233 0.0
C1696 C 0.60476 0.07876 0.88007 0.0
C1697 C 0.59754 0.09164 0.87117 0.0
C1698 C 0.58725 0.08567 0.85448 0.0
C1699 C 0.58407 0.06677 0.8467 0.0
H1700 H 0.59996 0.10627 0.87718 0.0
H1701 H 0.57976 0.92399 0.80493 0.0
H1702 H 0.3202 0.35073 0.0892 0.0
H1703 H 0.31482 0.33744 0.11846 0.0
H1704 H 0.25743 0.32715 0.10701 0.0
H1705 H 0.26275 0.34077 0.07755 0.0
H1706 H 0.26858 0.34346 0.14145 0.0
H1707 H 0.27482 0.28953 0.10557 0.0
H1708 H 0.28854 0.27185 0.08397 0.0
H1709 H 0.33661 0.28482 0.12049 0.0
H1710 H 0.3233 0.30285 0.1422 0.0
H1711 H 0.25446 0.28669 0.22019 0.0
H1712 H 0.25308 0.29494 0.18844 0.0
H1713 H 0.31101 0.31994 0.19304 0.0
H1714 H 0.31245 0.31228 0.22473 0.0
H1715 H 0.29521 0.29257 0.16086 0.0
H1716 H 0.28959 0.34931 0.19491 0.0
H1717 H 0.27541 0.36604 0.21683 0.0
H1718 H 0.22515 0.34662 0.18341 0.0
H1719 H 0.23894 0.32928 0.16148 0.0
C1720 C 0.30639 0.34555 0.09278 0.0
C1721 C 0.2919 0.34679 0.08095 0.0
C1722 C 0.30333 0.33786 0.10954 0.0
C1723 C 0.28569 0.33108 0.11489 0.0
C1724 C 0.27115 0.33225 0.10315 0.0
C1725 C 0.27421 0.33995 0.08628 0.0
C1726 C 0.28275 0.32327 0.13298 0.0
C1727 C 0.27406 0.33203 0.14554 0.0
C1728 C 0.29004 0.3085 0.13847 0.0
C1729 C 0.2981 0.29765 0.12547 0.0
C1730 C 0.28838 0.28874 0.10894 0.0
C1731 C 0.29607 0.27864 0.09668 0.0
C1732 C 0.31345 0.27724 0.10084 0.0
C1733 C 0.32315 0.28592 0.11728 0.0
C1734 C 0.31553 0.29607 0.12958 0.0
C1735 C 0.26686 0.29404 0.21442 0.0
C1736 C 0.28354 0.29897 0.22497 0.0
C1737 C 0.26606 0.29871 0.19632 0.0
C1738 C 0.28196 0.30799 0.18842 0.0
C1739 C 0.2986 0.31273 0.19889 0.0
C1740 C 0.29937 0.30847 0.21703 0.0
C1741 C 0.28142 0.31303 0.16929 0.0
C1742 C 0.28946 0.30374 0.15659 0.0
C1743 C 0.27344 0.32719 0.16367 0.0
C1744 C 0.26522 0.3378 0.17668 0.0
C1745 C 0.27546 0.34843 0.19232 0.0
C1746 C 0.26751 0.35806 0.20474 0.0
C1747 C 0.24939 0.35739 0.20154 0.0
C1748 C 0.23918 0.3471 0.18589 0.0
C1749 C 0.24705 0.33734 0.17347 0.0
H1750 H 0.24326 0.36489 0.21117 0.0
H1751 H 0.31938 0.2694 0.09133 0.0
H1752 H 0.26094 0.96621 0.02044 0.0
H1753 H 0.23941 0.98239 0.03054 0.0
H1754 H 0.19581 0.93829 -9e-05 0.0
H1755 H 0.21739 0.92188 0.98953 0.0
H1756 H 0.19351 0.97532 0.99678 0.0
H1757 H 0.20169 0.93568 0.04373 0.0
H1758 H 0.21911 0.92235 0.06572 0.0
H1759 H 0.24217 0.97886 0.09362 0.0
H1760 H 0.22512 0.99259 0.07159 0.0
H1761 H 0.12295 0.9936 0.04118 0.0
H1762 H 0.145 0.97569 0.03869 0.0
H1763 H 0.18849 0.02894 0.04894 0.0
H1764 H 0.16639 0.04715 0.05108 0.0
H1765 H 0.18985 0.98612 0.06335 0.0
H1766 H 0.18468 0.02566 0.01215 0.0
H1767 H 0.16517 0.03787 0.9914 0.0
H1768 H 0.1351 0.97959 0.97193 0.0
H1769 H 0.1541 0.96704 0.99308 0.0
C1770 C 0.24679 0.95996 0.01572 0.0
C1771 C 0.24078 0.94265 0.00435 0.0
C1772 C 0.23454 0.96921 0.02157 0.0
C1773 C 0.21609 0.96126 0.01623 0.0
C1774 C 0.21006 0.94447 0.00424 0.0
C1775 C 0.22236 0.93515 0.99836 0.0
C1776 C 0.20317 0.97045 0.02353 0.0
C1777 C 0.1926 0.9775 0.01131 0.0
C1778 C 0.20215 0.9734 0.04251 0.0
C1779 C 0.21227 0.96518 0.05591 0.0
C1780 C 0.21059 0.94529 0.05447 0.0
C1781 C 0.22038 0.93766 0.06695 0.0
C1782 C 0.23178 0.94976 0.08103 0.0
C1783 C 0.23336 0.96951 0.0827 0.0
C1784 C 0.22363 0.97722 0.07022 0.0
C1785 C 0.1372 1.00142 0.0437 0.0
C1786 C 0.14309 0.02172 0.04621 0.0
C1787 C 0.14972 0.99117 0.04226 0.0
C1788 C 0.16818 1.00113 0.04354 0.0
C1789 C 0.17419 0.02116 0.04801 0.0
C1790 C 0.16164 0.0315 0.04914 0.0
C1791 C 0.18065 0.99122 0.03661 0.0
C1792 C 0.19093 0.98395 0.04886 0.0
C1793 C 0.1814 0.98798 0.01768 0.0
C1794 C 0.17058 0.99544 0.00436 0.0
C1795 C 0.17379 0.01546 0.00356 0.0
C1796 C 0.16283 0.02244 0.99175 0.0
C1797 C 0.14884 0.00951 0.98042 0.0
C1798 C 0.14589 0.98958 0.98078 0.0
C1799 C 0.15672 0.98252 0.99271 0.0
H1800 H 0.14031 0.01494 0.97134 0.0
H1801 H 0.23935 0.94382 0.09068 0.0
H1802 H 0.7468 0.62932 0.02483 0.0
H1803 H 0.71724 0.60643 0.02817 0.0
H1804 H 0.69212 0.65176 0.02139 0.0
H1805 H 0.72166 0.67479 0.01876 0.0
H1806 H 0.67925 0.63339 0.04819 0.0
H1807 H 0.68887 0.61385 0.98755 0.0
H1808 H 0.70476 0.60291 0.96311 0.0
H1809 H 0.70294 0.5514 0.98963 0.0
H1810 H 0.68725 0.56217 0.01437 0.0
H1811 H 0.58843 0.57813 0.02169 0.0
H1812 H 0.61994 0.5981 0.02199 0.0
H1813 H 0.63773 0.5536 0.04661 0.0
H1814 H 0.60594 0.53368 0.04671 0.0
H1815 H 0.65497 0.56932 0.01314 0.0
H1816 H 0.64241 0.5898 0.0729 0.0
H1817 H 0.62408 0.60126 0.09455 0.0
H1818 H 0.62933 0.65221 0.06605 0.0
H1819 H 0.64746 0.6409 0.04406 0.0
C1820 C 0.73494 0.63435 0.02391 0.0
C1821 C 0.73655 0.65388 0.02158 0.0
C1822 C 0.71803 0.62123 0.02575 0.0
C1823 C 0.70238 0.6273 0.02491 0.0
C1824 C 0.70398 0.64672 0.0222 0.0
C1825 C 0.72088 0.65988 0.02063 0.0
C1826 C 0.6844 0.61373 0.02754 0.0
C1827 C 0.67396 0.61946 0.04038 0.0
C1828 C 0.67752 0.59533 0.01768 0.0
C1829 C 0.68711 0.58893 0.00293 0.0
C1830 C 0.69202 0.60028 0.98826 0.0
C1831 C 0.70096 0.59409 0.97434 0.0
C1832 C 0.70491 0.5765 0.97485 0.0
C1833 C 0.6999 0.56504 0.98927 0.0
C1834 C 0.69099 0.57118 0.00325 0.0
C1835 C 0.59909 0.57282 0.02746 0.0
C1836 C 0.59497 0.55461 0.0344 0.0
C1837 C 0.61701 0.58414 0.02757 0.0
C1838 C 0.63108 0.57728 0.03434 0.0
C1839 C 0.62698 0.55908 0.04137 0.0
C1840 C 0.60894 0.54785 0.04157 0.0
C1841 C 0.65 0.58918 0.03356 0.0
C1842 C 0.66053 0.58315 0.02106 0.0
C1843 C 0.65682 0.60747 0.04341 0.0
C1844 C 0.6462 0.61445 0.05679 0.0
C1845 C 0.63956 0.60339 0.07119 0.0
C1846 C 0.62922 0.60987 0.08353 0.0
C1847 C 0.62553 0.62744 0.08167 0.0
C1848 C 0.63221 0.6386 0.06748 0.0
C1849 C 0.64253 0.63218 0.05509 0.0
H1850 H 0.61751 0.63243 0.09123 0.0
H1851 H 0.71182 0.57173 0.96405 0.0
H1852 H 0.7067 0.49431 0.29409 0.0
H1853 H 0.72121 0.47079 0.28289 0.0
H1854 H 0.69069 0.42897 0.31682 0.0
H1855 H 0.67582 0.45248 0.32812 0.0
H1856 H 0.72875 0.43357 0.31798 0.0
H1857 H 0.67731 0.42199 0.27518 0.0
H1858 H 0.65606 0.43115 0.25389 0.0
H1859 H 0.69897 0.45436 0.22017 0.0
H1860 H 0.72057 0.44563 0.24145 0.0
H1861 H 0.75381 0.35656 0.2798 0.0
H1862 H 0.73274 0.37494 0.28619 0.0
H1863 H 0.76221 0.42035 0.25497 0.0
H1864 H 0.78352 0.4019 0.24852 0.0
H1865 H 0.72262 0.41201 0.25209 0.0
H1866 H 0.77433 0.42658 0.29618 0.0
H1867 H 0.79596 0.41801 0.3175 0.0
H1868 H 0.75263 0.38991 0.34893 0.0
H1869 H 0.73068 0.39802 0.32756 0.0
C1870 C 0.7031 0.48016 0.29928 0.0
C1871 C 0.69008 0.47513 0.31192 0.0
C1872 C 0.71132 0.46675 0.29277 0.0
C1873 C 0.7067 0.44821 0.29887 0.0
C1874 C 0.69418 0.44326 0.31192 0.0
C1875 C 0.68577 0.45665 0.31833 0.0
C1876 C 0.71536 0.43421 0.29171 0.0
C1877 C 0.72716 0.42852 0.30366 0.0
C1878 C 0.71352 0.42821 0.27294 0.0
C1879 C 0.70058 0.43332 0.26 0.0
C1880 C 0.68225 0.4292 0.26331 0.0
C1881 C 0.67014 0.43429 0.25123 0.0
C1882 C 0.67617 0.44337 0.23571 0.0
C1883 C 0.69432 0.44733 0.23221 0.0
C1884 C 0.7065 0.4423 0.24427 0.0
C1885 C 0.75562 0.37036 0.2741 0.0
C1886 C 0.7704 0.37819 0.26407 0.0
C1887 C 0.74356 0.3807 0.27763 0.0
C1888 C 0.74622 0.39898 0.27124 0.0
C1889 C 0.76009 0.40619 0.25997 0.0
C1890 C 0.77222 0.39577 0.25638 0.0
C1891 C 0.736 0.41146 0.27837 0.0
C1892 C 0.72402 0.41691 0.26643 0.0
C1893 C 0.7377 0.41735 0.29716 0.0
C1894 C 0.75086 0.41268 0.31016 0.0
C1895 C 0.7694 0.41841 0.30754 0.0
C1896 C 0.78172 0.41367 0.31965 0.0
C1897 C 0.77567 0.40337 0.33453 0.0
C1898 C 0.75729 0.39785 0.33737 0.0
C1899 C 0.74491 0.40252 0.32527 0.0
H1900 H 0.78523 0.3997 0.34389 0.0
H1901 H 0.66676 0.4473 0.22637 0.0
H1902 H 0.83406 0.49809 0.52287 0.0
H1903 H 0.86699 0.51294 0.52822 0.0
H1904 H 0.87493 0.45666 0.51912 0.0
H1905 H 0.84256 0.4419 0.51388 0.0
H1906 H 0.89718 0.47842 0.54761 0.0
H1907 H 0.87744 0.48401 0.48501 0.0
H1908 H 0.85962 0.49464 0.46119 0.0
H1909 H 0.88368 0.55386 0.48214 0.0
H1910 H 0.90147 0.54351 0.50625 0.0
H1911 H 0.98001 0.48319 0.5146 0.0
H1912 H 0.94773 0.47774 0.51721 0.0
H1913 H 0.9561 0.53946 0.52288 0.0
H1914 H 0.98835 0.54501 0.51958 0.0
H1915 H 0.9263 0.52114 0.50131 0.0
H1916 H 0.95161 0.51321 0.56034 0.0
H1917 H 0.97014 0.49985 0.58116 0.0
H1918 H 0.93582 0.4423 0.56487 0.0
H1919 H 0.91728 0.45528 0.54374 0.0
C1920 C 0.84289 0.48895 0.52222 0.0
C1921 C 0.83582 0.46893 0.51769 0.0
C1922 C 0.86159 0.4974 0.52529 0.0
C1923 C 0.87324 0.48582 0.52401 0.0
C1924 C 0.86611 0.46579 0.52026 0.0
C1925 C 0.8476 0.45742 0.51707 0.0
C1926 C 0.89295 0.49434 0.52494 0.0
C1927 C 0.90362 0.48791 0.53763 0.0
C1928 C 0.9012 0.5068 0.51197 0.0
C1929 C 0.89054 0.51299 0.49755 0.0
C1930 C 0.87879 0.49928 0.48462 0.0
C1931 C 0.86872 0.50525 0.47106 0.0
C1932 C 0.87046 0.52491 0.4702 0.0
C1933 C 0.88231 0.53864 0.48286 0.0
C1934 C 0.89238 0.53273 0.49648 0.0
C1935 C 0.97491 0.49557 0.51625 0.0
C1936 C 0.98655 0.51449 0.51699 0.0
C1937 C 0.95655 0.49246 0.51786 0.0
C1938 C 0.94973 0.50823 0.52074 0.0
C1939 C 0.96123 0.52714 0.52083 0.0
C1940 C 0.97957 0.53027 0.5189 0.0
C1941 C 0.93055 0.50486 0.52371 0.0
C1942 C 0.91999 0.51223 0.51174 0.0
C1943 C 0.92239 0.493 0.53717 0.0
C1944 C 0.93308 0.48523 0.55044 0.0
C1945 C 0.94803 0.49771 0.56119 0.0
C1946 C 0.95855 0.4902 0.57303 0.0
C1947 C 0.95416 0.47024 0.57433 0.0
C1948 C 0.9392 0.45776 0.56386 0.0
C1949 C 0.92866 0.46519 0.55198 0.0
H1950 H 0.96235 0.46445 0.58347 0.0
H1951 H 0.86267 0.52951 0.45968 0.0
H1952 H 0.42319 0.11828 0.32054 0.0
H1953 H 0.40897 0.14217 0.3095 0.0
H1954 H 0.36599 0.09617 0.28037 0.0
H1955 H 0.37954 0.07235 0.29161 0.0
H1956 H 0.38586 0.12932 0.25962 0.0
H1957 H 0.35348 0.11124 0.31303 0.0
H1958 H 0.35134 0.1068 0.34569 0.0
H1959 H 0.37895 0.16718 0.35892 0.0
H1960 H 0.38153 0.17188 0.32628 0.0
H1961 H 0.30658 0.15603 0.23777 0.0
H1962 H 0.33141 0.14249 0.24547 0.0
H1963 H 0.35932 0.19476 0.27932 0.0
H1964 H 0.33446 0.2081 0.27187 0.0
H1965 H 0.3526 0.16352 0.298 0.0
H1966 H 0.3785 0.18216 0.24282 0.0
H1967 H 0.37917 0.18546 0.20987 0.0
H1968 H 0.36271 0.12363 0.19927 0.0
H1969 H 0.36169 0.11992 0.23215 0.0
C1970 C 0.41056 0.11331 0.31203 0.0
C1971 C 0.40247 0.09352 0.30694 0.0
C1972 C 0.40259 0.1269 0.30568 0.0
C1973 C 0.3867 0.12074 0.29398 0.0
C1974 C 0.3784 0.10104 0.28925 0.0
C1975 C 0.38609 0.0875 0.29585 0.0
C1976 C 0.37841 0.13467 0.2866 0.0
C1977 C 0.37861 0.13693 0.26791 0.0
C1978 C 0.36935 0.14465 0.29766 0.0
C1979 C 0.36799 0.14184 0.31726 0.0
C1980 C 0.35933 0.12351 0.32291 0.0
C1981 C 0.35798 0.12095 0.34141 0.0
C1982 C 0.36509 0.13668 0.35438 0.0
C1983 C 0.37352 0.155 0.34886 0.0
C1984 C 0.37494 0.15761 0.33037 0.0
C1985 C 0.31829 0.16472 0.24642 0.0
C1986 C 0.3187 0.18284 0.2545 0.0
C1987 C 0.33245 0.1571 0.25073 0.0
C1988 C 0.34711 0.1677 0.26297 0.0
C1989 C 0.34808 0.18642 0.26989 0.0
C1990 C 0.33393 0.19395 0.26569 0.0
C1991 C 0.35976 0.15812 0.2708 0.0
C1992 C 0.3603 0.15651 0.28965 0.0
C1993 C 0.36937 0.14865 0.25981 0.0
C1994 C 0.36992 0.15077 0.23998 0.0
C1995 C 0.37488 0.16925 0.23347 0.0
C1996 C 0.37535 0.1712 0.21479 0.0
C1997 C 0.37096 0.15477 0.20248 0.0
C1998 C 0.36611 0.13634 0.20882 0.0
C1999 C 0.36562 0.13431 0.22748 0.0
H2000 H 0.37133 0.15631 0.18803 0.0
H2001 H 0.36401 0.13468 0.3687 0.0
H2002 H 0.36408 0.18223 0.51084 0.0
H2003 H 0.38546 0.16337 0.51361 0.0
H2004 H 0.34432 0.11681 0.5332 0.0
H2005 H 0.32284 0.13564 0.53061 0.0
H2006 H 0.37674 0.12382 0.553 0.0
H2007 H 0.3546 0.11333 0.4901 0.0
H2008 H 0.34728 0.12266 0.4597 0.0
H2009 H 0.40329 0.15293 0.45609 0.0
H2010 H 0.41091 0.14401 0.4866 0.0
H2011 H 0.4186 0.04927 0.53751 0.0
H2012 H 0.39805 0.06918 0.53752 0.0
H2013 H 0.43946 0.11632 0.51912 0.0
H2014 H 0.46032 0.09674 0.51956 0.0
H2015 H 0.40695 0.10906 0.49907 0.0
H2016 H 0.42904 0.1187 0.56203 0.0
H2017 H 0.43603 0.10895 0.59233 0.0
H2018 H 0.37978 0.07961 0.59573 0.0
H2019 H 0.37247 0.08895 0.56531 0.0
C2020 C 0.35957 0.168 0.51577 0.0
C2021 C 0.34173 0.1604 0.52041 0.0
C2022 C 0.37179 0.15722 0.5173 0.0
C2023 C 0.3664 0.13862 0.52343 0.0
C2024 C 0.34873 0.13113 0.52842 0.0
C2025 C 0.33646 0.14188 0.52685 0.0
C2026 C 0.37917 0.12691 0.5244 0.0
C2027 C 0.38318 0.12037 0.54117 0.0
C2028 C 0.38782 0.12276 0.50904 0.0
C2029 C 0.38329 0.12818 0.49071 0.0
C2030 C 0.36533 0.12212 0.48289 0.0
C2031 C 0.36113 0.12731 0.46563 0.0
C2032 C 0.3748 0.13843 0.45599 0.0
C2033 C 0.39271 0.14435 0.46358 0.0
C2034 C 0.39698 0.13922 0.48085 0.0
C2035 C 0.42348 0.06398 0.53376 0.0
C2036 C 0.44115 0.07138 0.52853 0.0
C2037 C 0.41168 0.07531 0.53372 0.0
C2038 C 0.41729 0.09424 0.52843 0.0
C2039 C 0.43488 0.10171 0.52322 0.0
C2040 C 0.44674 0.09044 0.52337 0.0
C2041 C 0.40459 0.10603 0.52768 0.0
C2042 C 0.40055 0.11255 0.51093 0.0
C2043 C 0.39588 0.11007 0.54304 0.0
C2044 C 0.40024 0.10434 0.5613 0.0
C2045 C 0.41818 0.11001 0.56916 0.0
C2046 C 0.42219 0.10459 0.58637 0.0
C2047 C 0.40836 0.09362 0.59593 0.0
C2048 C 0.39048 0.08808 0.5883 0.0
C2049 C 0.38639 0.09344 0.57107 0.0
H2050 H 0.4115 0.08945 0.60926 0.0
H2051 H 0.37153 0.14242 0.44262 0.0
H2052 H 0.71078 0.57983 0.33094 0.0
H2053 H 0.72917 0.61322 0.32865 0.0
H2054 H 0.68387 0.62498 0.29991 0.0
H2055 H 0.66521 0.59174 0.30256 0.0
H2056 H 0.71863 0.62887 0.28171 0.0
H2057 H 0.6935 0.64809 0.33489 0.0
H2058 H 0.68553 0.64737 0.36664 0.0
H2059 H 0.74168 0.66147 0.38561 0.0
H2060 H 0.74997 0.66197 0.35391 0.0
H2061 H 0.74249 0.72837 0.2714 0.0
H2062 H 0.7282 0.69568 0.27976 0.0
H2063 H 0.77874 0.69469 0.30707 0.0
H2064 H 0.79335 0.72746 0.29822 0.0
H2065 H 0.74455 0.68479 0.32757 0.0
H2066 H 0.76967 0.66738 0.27405 0.0
H2067 H 0.77724 0.66879 0.24218 0.0
H2068 H 0.72078 0.65157 0.22385 0.0
H2069 H 0.71286 0.65032 0.25566 0.0
C2070 C 0.70468 0.58967 0.32443 0.0
C2071 C 0.68673 0.58331 0.31668 0.0
C2072 C 0.71512 0.60868 0.32328 0.0
C2073 C 0.70774 0.62132 0.31415 0.0
C2074 C 0.68961 0.61528 0.3071 0.0
C2075 C 0.67905 0.59638 0.30858 0.0
C2076 C 0.71965 0.63981 0.30966 0.0
C2077 C 0.7242 0.64118 0.29167 0.0
C2078 C 0.72728 0.6554 0.32294 0.0
C2079 C 0.72233 0.65474 0.342 0.0
C2080 C 0.70414 0.65074 0.34581 0.0
C2081 C 0.69956 0.65046 0.3638 0.0
C2082 C 0.71308 0.65429 0.37813 0.0
C2083 C 0.73121 0.65845 0.37449 0.0
C2084 C 0.73586 0.65874 0.35651 0.0
C2085 C 0.75057 0.72106 0.27901 0.0
C2086 C 0.76892 0.73016 0.28419 0.0
C2087 C 0.74244 0.70251 0.28375 0.0
C2088 C 0.75251 0.69302 0.29399 0.0
C2089 C 0.7709 0.70198 0.29912 0.0
C2090 C 0.77919 0.72047 0.29399 0.0
C2091 C 0.74331 0.67389 0.29956 0.0
C2092 C 0.73922 0.67235 0.31771 0.0
C2093 C 0.73605 0.65808 0.28644 0.0
C2094 C 0.74068 0.65892 0.26726 0.0
C2095 C 0.75886 0.66409 0.26324 0.0
C2096 C 0.76322 0.66481 0.24518 0.0
C2097 C 0.7495 0.66029 0.231 0.0
C2098 C 0.73139 0.65506 0.23485 0.0
C2099 C 0.72696 0.65432 0.2529 0.0
H2100 H 0.75291 0.66078 0.21704 0.0
H2101 H 0.70951 0.65409 0.39205 0.0
H2102 H 0.91511 0.47936 0.77197 0.0
H2103 H 0.89519 0.44627 0.76885 0.0
H2104 H 0.85047 0.46687 0.78317 0.0
H2105 H 0.87068 0.50006 0.78725 0.0
H2106 H 0.85213 0.43847 0.80209 0.0
H2107 H 0.85504 0.44839 0.73791 0.0
H2108 H 0.87036 0.45704 0.71003 0.0
H2109 H 0.89668 0.41292 0.71593 0.0
H2110 H 0.88168 0.40415 0.74392 0.0
H2111 H 0.78996 0.34354 0.78576 0.0
H2112 H 0.80544 0.37832 0.7857 0.0
H2113 H 0.85313 0.36516 0.76854 0.0
H2114 H 0.83721 0.33063 0.7674 0.0
H2115 H 0.8472 0.3907 0.74955 0.0
H2116 H 0.84843 0.38249 0.81388 0.0
H2117 H 0.83527 0.37322 0.8427 0.0
H2118 H 0.80421 0.41328 0.83796 0.0
H2119 H 0.81703 0.42261 0.809 0.0
C2120 C 0.90097 0.47686 0.77419 0.0
C2121 C 0.89437 0.49217 0.77985 0.0
C2122 C 0.88958 0.45796 0.77229 0.0
C2123 C 0.87128 0.45417 0.77546 0.0
C2124 C 0.86455 0.46954 0.78061 0.0
C2125 C 0.87605 0.48843 0.78291 0.0
C2126 C 0.85958 0.43404 0.77489 0.0
C2127 C 0.85075 0.42809 0.79046 0.0
C2128 C 0.85833 0.42041 0.75996 0.0
C2129 C 0.8673 0.4257 0.74307 0.0
C2130 C 0.86417 0.44062 0.73332 0.0
C2131 C 0.87279 0.44552 0.71748 0.0
C2132 C 0.88452 0.43557 0.71125 0.0
C2133 C 0.8876 0.42063 0.72078 0.0
C2134 C 0.87902 0.41567 0.73661 0.0
C2135 C 0.80375 0.34828 0.78204 0.0
C2136 C 0.81254 0.3348 0.77652 0.0
C2137 C 0.8126 0.36802 0.78211 0.0
C2138 C 0.83049 0.3743 0.77727 0.0
C2139 C 0.8393 0.36063 0.77218 0.0
C2140 C 0.83029 0.341 0.77159 0.0
C2141 C 0.84004 0.39505 0.77687 0.0
C2142 C 0.84842 0.40113 0.76111 0.0
C2143 C 0.84121 0.40869 0.79177 0.0
C2144 C 0.83353 0.40308 0.80918 0.0
C2145 C 0.83869 0.38921 0.81892 0.0
C2146 C 0.83131 0.38396 0.83529 0.0
C2147 C 0.81887 0.39261 0.84212 0.0
C2148 C 0.81382 0.40656 0.83263 0.0
C2149 C 0.82115 0.41184 0.81625 0.0
H2150 H 0.81317 0.38853 0.8548 0.0
H2151 H 0.8912 0.43942 0.69901 0.0
H2152 H 0.10523 0.86689 0.10858 0.0
H2153 H 0.09866 0.89221 0.09152 0.0
H2154 H 0.04329 0.85679 0.07978 0.0
H2155 H 0.05011 0.831 0.096 0.0
H2156 H 0.05286 0.87424 0.05163 0.0
H2157 H 0.05829 0.89648 0.11493 0.0
H2158 H 0.07314 0.90493 0.1461 0.0
H2159 H 0.11717 0.94776 0.12644 0.0
H2160 H 0.10269 0.93939 0.09512 0.0
H2161 H 0.01753 0.95073 0.02782 0.0
H2162 H 0.02463 0.92408 0.0422 0.0
H2163 H 0.08062 0.95819 0.05178 0.0
H2164 H 0.07347 0.98515 0.03804 0.0
H2165 H 0.07053 0.94131 0.0808 0.0
H2166 H 0.06371 0.91875 0.017 0.0
H2167 H 0.04746 0.91038 0.98643 0.0
H2168 H 1.00429 0.8681 0.00789 0.0
H2169 H 0.02018 0.87639 0.03863 0.0
C2170 C 0.09169 0.86445 0.10225 0.0
C2171 C 0.07818 0.84697 0.10373 0.0
C2172 C 0.08788 0.87902 0.09259 0.0
C2173 C 0.07032 0.87674 0.0847 0.0
C2174 C 0.05693 0.85904 0.08577 0.0
C2175 C 0.06084 0.84428 0.09507 0.0
C2176 C 0.06584 0.89281 0.07557 0.0
C2177 C 0.05656 0.88885 0.05814 0.0
C2178 C 0.07083 0.91204 0.08382 0.0
C2179 C 0.07948 0.91719 0.10266 0.0
C2180 C 0.07119 0.90762 0.11724 0.0
C2181 C 0.07954 0.91241 0.13494 0.0
C2182 C 0.09611 0.92684 0.13824 0.0
C2183 C 0.10434 0.93656 0.12386 0.0
C2184 C 0.09607 0.93182 0.10614 0.0
C2185 C 0.0314 0.95251 0.03282 0.0
C2186 C 0.04493 0.97008 0.03168 0.0
C2187 C 0.03547 0.93719 0.04101 0.0
C2188 C 0.05325 0.93891 0.04786 0.0
C2189 C 0.0668 0.95642 0.04661 0.0
C2190 C 0.06269 0.97184 0.03868 0.0
C2191 C 0.05768 0.92275 0.05683 0.0
C2192 C 0.0669 0.92671 0.07427 0.0
C2193 C 0.05246 0.9035 0.04867 0.0
C2194 C 0.04308 0.89829 0.03013 0.0
C2195 C 0.05071 0.90773 0.01521 0.0
C2196 C 0.04157 0.903 0.99785 0.0
C2197 C 0.02483 0.88875 0.99523 0.0
C2198 C 0.01724 0.87915 0.00994 0.0
C2199 C 0.02632 0.88383 0.02733 0.0
H2200 H 0.01776 0.88512 0.98178 0.0
H2201 H 0.10255 0.93051 0.15194 0.0
H2202 H 0.96339 0.24168 0.87012 0.0
H2203 H 0.93788 0.24462 0.85044 0.0
H2204 H 0.91497 0.26326 0.89749 0.0
H2205 H 0.93964 0.25869 0.91719 0.0
H2206 H 0.8892 0.24273 0.87701 0.0
H2207 H 0.94089 0.29517 0.86483 0.0
H2208 H 0.97165 0.30992 0.85583 0.0
H2209 H 0.95726 0.27733 0.80371 0.0
H2210 H 0.92648 0.26224 0.81249 0.0
H2211 H 0.82902 0.28372 0.83115 0.0
H2212 H 0.85524 0.28067 0.84952 0.0
H2213 H 0.87294 0.25592 0.80209 0.0
H2214 H 0.84749 0.26046 0.78343 0.0
H2215 H 0.90095 0.2789 0.82203 0.0
H2216 H 0.84958 0.22471 0.8366 0.0
H2217 H 0.81792 0.2141 0.84455 0.0
H2218 H 0.83187 0.25507 0.89161 0.0
H2219 H 0.86366 0.26524 0.88435 0.0
C2220 C 0.95277 0.24623 0.87619 0.0
C2221 C 0.95339 0.24995 0.89512 0.0
C2222 C 0.93829 0.24812 0.86494 0.0
C2223 C 0.92466 0.25471 0.87235 0.0
C2224 C 0.92525 0.25818 0.89135 0.0
C2225 C 0.93936 0.2556 0.90263 0.0
C2226 C 0.90979 0.25805 0.86046 0.0
C2227 C 0.89192 0.25081 0.86511 0.0
C2228 C 0.91303 0.26833 0.84467 0.0
C2229 C 0.93148 0.27745 0.83938 0.0
C2230 C 0.94434 0.29108 0.85149 0.0
C2231 C 0.96176 0.29951 0.84642 0.0
C2232 C 0.96642 0.29452 0.82923 0.0
C2233 C 0.95365 0.28115 0.81703 0.0
C2234 C 0.93621 0.27267 0.82204 0.0
C2235 C 0.83857 0.27769 0.8247 0.0
C2236 C 0.83625 0.27218 0.80598 0.0
C2237 C 0.85346 0.27579 0.8352 0.0
C2238 C 0.86576 0.26744 0.82732 0.0
C2239 C 0.86359 0.26227 0.80851 0.0
C2240 C 0.84904 0.2648 0.79788 0.0
C2241 C 0.88065 0.26371 0.83874 0.0
C2242 C 0.89841 0.27077 0.83393 0.0
C2243 C 0.8774 0.25349 0.85445 0.0
C2244 C 0.85891 0.2456 0.86002 0.0
C2245 C 0.8459 0.23111 0.84884 0.0
C2246 C 0.82795 0.22518 0.85324 0.0
C2247 C 0.82289 0.2338 0.86865 0.0
C2248 C 0.83582 0.24819 0.87983 0.0
C2249 C 0.85384 0.25385 0.87573 0.0
H2250 H 0.80896 0.22936 0.87195 0.0
H2251 H 0.97992 0.30106 0.82533 0.0
H2252 H 0.54992 0.23826 0.59561 0.0
H2253 H 0.54425 0.20506 0.58236 0.0
H2254 H 0.59991 0.21806 0.57006 0.0
H2255 H 0.60565 0.25138 0.58301 0.0
H2256 H 0.5775 0.19558 0.5425 0.0
H2257 H 0.58541 0.19502 0.60773 0.0
H2258 H 0.57888 0.20128 0.63937 0.0
H2259 H 0.5241 0.16534 0.62721 0.0
H2260 H 0.53024 0.1591 0.59542 0.0
H2261 H 0.58155 0.09882 0.52956 0.0
H2262 H 0.58667 0.13281 0.54009 0.0
H2263 H 0.53222 0.11925 0.55632 0.0
H2264 H 0.52719 0.08527 0.54634 0.0
H2265 H 0.55398 0.14224 0.58164 0.0
H2266 H 0.54527 0.14248 0.51688 0.0
H2267 H 0.55089 0.13618 0.48494 0.0
H2268 H 0.60574 0.17241 0.49561 0.0
H2269 H 0.60051 0.17872 0.52768 0.0
C2270 C 0.56093 0.23414 0.58991 0.0
C2271 C 0.57828 0.24749 0.59048 0.0
C2272 C 0.55768 0.2151 0.58242 0.0
C2273 C 0.57173 0.20896 0.57548 0.0
C2274 C 0.58887 0.22244 0.57538 0.0
C2275 C 0.59213 0.2415 0.58283 0.0
C2276 C 0.56874 0.18835 0.56891 0.0
C2277 C 0.57255 0.18392 0.55112 0.0
C2278 C 0.56189 0.17308 0.58 0.0
C2279 C 0.55824 0.17674 0.59915 0.0
C2280 C 0.57194 0.18857 0.61177 0.0
C2281 C 0.56831 0.1921 0.62974 0.0
C2282 C 0.55108 0.18375 0.63529 0.0
C2283 C 0.53744 0.17182 0.62289 0.0
C2284 C 0.54099 0.16827 0.6049 0.0
C2285 C 0.57066 0.10308 0.53535 0.0
C2286 C 0.55397 0.08928 0.53711 0.0
C2287 C 0.57357 0.12256 0.54128 0.0
C2288 C 0.55976 0.1287 0.54881 0.0
C2289 C 0.54311 0.11492 0.55059 0.0
C2290 C 0.54026 0.09545 0.54485 0.0
C2291 C 0.56266 0.14939 0.55516 0.0
C2292 C 0.55888 0.15386 0.57296 0.0
C2293 C 0.56939 0.16465 0.54402 0.0
C2294 C 0.57255 0.16093 0.52472 0.0
C2295 C 0.55857 0.14899 0.51244 0.0
C2296 C 0.56168 0.14543 0.49431 0.0
C2297 C 0.57868 0.15385 0.48826 0.0
C2298 C 0.59259 0.16588 0.50032 0.0
C2299 C 0.58955 0.16947 0.51847 0.0
H2300 H 0.58106 0.15108 0.47422 0.0
H2301 H 0.54829 0.1865 0.6492 0.0
H2302 H 0.56592 0.7381 0.40528 0.0
H2303 H 0.59301 0.74642 0.38878 0.0
H2304 H 0.57754 0.79383 0.36729 0.0
H2305 H 0.55022 0.78552 0.38373 0.0
H2306 H 0.58829 0.77297 0.34105 0.0
H2307 H 0.61154 0.80312 0.40007 0.0
H2308 H 0.61678 0.80563 0.4335 0.0
H2309 H 0.64391 0.76181 0.4299 0.0
H2310 H 0.63861 0.75883 0.39644 0.0
H2311 H 0.6721 0.8104 0.30349 0.0
H2312 H 0.64669 0.8077 0.3221 0.0
H2313 H 0.6578 0.75951 0.34678 0.0
H2314 H 0.68326 0.76212 0.32816 0.0
H2315 H 0.64957 0.78369 0.37182 0.0
H2316 H 0.624 0.75258 0.31223 0.0
H2317 H 0.61881 0.75114 0.27883 0.0
H2318 H 0.59614 0.79849 0.28381 0.0
H2319 H 0.6014 0.80037 0.31724 0.0
C2320 C 0.56825 0.75033 0.39709 0.0
C2321 C 0.55589 0.76115 0.39584 0.0
C2322 C 0.58382 0.75513 0.38773 0.0
C2323 C 0.5874 0.77087 0.37696 0.0
C2324 C 0.57505 0.78165 0.37557 0.0
C2325 C 0.55947 0.7769 0.385 0.0
C2326 C 0.60382 0.77567 0.3668 0.0
C2327 C 0.60172 0.77565 0.34781 0.0
C2328 C 0.62132 0.77891 0.3756 0.0
C2329 C 0.62454 0.78064 0.39573 0.0
C2330 C 0.6185 0.7939 0.40641 0.0
C2331 C 0.6215 0.79543 0.42536 0.0
C2332 C 0.63064 0.78385 0.43382 0.0
C2333 C 0.63682 0.77075 0.42333 0.0
C2334 C 0.63384 0.76915 0.40436 0.0
C2335 C 0.6691 0.79917 0.31282 0.0
C2336 C 0.67959 0.78634 0.31421 0.0
C2337 C 0.65459 0.79768 0.32348 0.0
C2338 C 0.65016 0.78321 0.33563 0.0
C2339 C 0.66096 0.77077 0.33748 0.0
C2340 C 0.67552 0.7723 0.32685 0.0
C2341 C 0.63399 0.78067 0.34605 0.0
C2342 C 0.63614 0.78113 0.36509 0.0
C2343 C 0.61654 0.77797 0.3373 0.0
C2344 C 0.61324 0.77673 0.31722 0.0
C2345 C 0.61801 0.76276 0.30619 0.0
C2346 C 0.61504 0.76186 0.28725 0.0
C2347 C 0.60719 0.77475 0.2792 0.0
C2348 C 0.60224 0.78853 0.29006 0.0
C2349 C 0.60519 0.78951 0.309 0.0
H2350 H 0.60491 0.77402 0.26454 0.0
H2351 H 0.63296 0.78506 0.4485 0.0
H2352 H 0.01384 0.21596 0.44005 0.0
H2353 H 0.01473 0.18682 0.45415 0.0
H2354 H 0.05552 0.18009 0.41963 0.0
H2355 H 0.05438 0.20954 0.40497 0.0
H2356 H 0.03391 0.14448 0.42392 0.0
H2357 H 0.06403 0.19726 0.46818 0.0
H2358 H 0.0673 0.22713 0.48775 0.0
H2359 H 0.02022 0.19839 0.51405 0.0
H2360 H 0.01654 0.16842 0.49448 0.0
H2361 H 0.05412 0.0714 0.47655 0.0
H2362 H 0.05452 0.10002 0.46051 0.0
H2363 H 0.0186 0.11427 0.49742 0.0
H2364 H 0.019 0.08612 0.51408 0.0
H2365 H 0.03865 0.14626 0.49121 0.0
H2366 H 0.00876 0.09293 0.44806 0.0
H2367 H 1.00556 0.06268 0.42914 0.0
H2368 H 0.05047 0.09171 0.4001 0.0
H2369 H 0.05453 0.12192 0.41943 0.0
C2370 C 0.02313 0.20849 0.43527 0.0
C2371 C 0.03413 0.21577 0.42117 0.0
C2372 C 0.02371 0.19156 0.44362 0.0
C2373 C 0.0355 0.18084 0.4386 0.0
C2374 C 0.04628 0.18774 0.42418 0.0
C2375 C 0.04567 0.20483 0.41571 0.0
C2376 C 0.03645 0.16284 0.44853 0.0
C2377 C 0.03523 0.14508 0.43865 0.0
C2378 C 0.03765 0.16274 0.46789 0.0
C2379 C 0.03993 0.18067 0.47976 0.0
C2380 C 0.05432 0.19735 0.47807 0.0
C2381 C 0.05625 0.21429 0.48917 0.0
C2382 C 0.04395 0.21467 0.50211 0.0
C2383 C 0.02973 0.19809 0.50401 0.0
C2384 C 0.02772 0.18111 0.49294 0.0
C2385 C 0.0462 0.08051 0.48132 0.0
C2386 C 0.03643 0.07591 0.49682 0.0
C2387 C 0.0463 0.09708 0.47189 0.0
C2388 C 0.03622 0.10975 0.47707 0.0
C2389 C 0.02655 0.10519 0.49266 0.0
C2390 C 0.0267 0.08878 0.5023 0.0
C2391 C 0.03599 0.1277 0.46667 0.0
C2392 C 0.03732 0.14552 0.47648 0.0
C2393 C 0.03473 0.12774 0.44725 0.0
C2394 C 0.03208 0.10967 0.43536 0.0
C2395 C 0.01806 0.09285 0.43775 0.0
C2396 C 0.01613 0.07568 0.42699 0.0
C2397 C 0.02776 0.07529 0.4134 0.0
C2398 C 0.04146 0.09203 0.41064 0.0
C2399 C 0.04365 0.10916 0.42157 0.0
H2400 H 0.02614 0.06203 0.40499 0.0
H2401 H 0.04547 0.22781 0.51068 0.0
H2402 H 0.61394 0.31314 0.17799 0.0
H2403 H 0.64176 0.3104 0.19305 0.0
H2404 H 0.61131 0.26117 0.21902 0.0
H2405 H 0.58292 0.26452 0.20433 0.0
H2406 H 0.6388 0.2778 0.24201 0.0
H2407 H 0.63943 0.26052 0.17856 0.0
H2408 H 0.6376 0.26451 0.14566 0.0
H2409 H 0.68248 0.31632 0.15402 0.0
H2410 H 0.68444 0.31277 0.187 0.0
H2411 H 0.7202 0.2517 0.26764 0.0
H2412 H 0.69073 0.25343 0.25508 0.0
H2413 H 0.71735 0.30281 0.22703 0.0
H2414 H 0.74681 0.3007 0.23915 0.0
H2415 H 0.69109 0.28446 0.20514 0.0
H2416 H 0.69016 0.30164 0.26893 0.0
H2417 H 0.69194 0.29714 0.30173 0.0
H2418 H 0.64776 0.24474 0.29261 0.0
H2419 H 0.64586 0.24882 0.25972 0.0
C2420 C 0.6129 0.30171 0.187 0.0
C2421 C 0.59562 0.28912 0.18964 0.0
C2422 C 0.6292 0.29995 0.19558 0.0
C2423 C 0.62946 0.28507 0.20702 0.0
C2424 C 0.61214 0.27278 0.21027 0.0
C2425 C 0.59563 0.27475 0.20181 0.0
C2426 C 0.64763 0.28256 0.21523 0.0
C2427 C 0.65005 0.27901 0.23371 0.0
C2428 C 0.66307 0.28435 0.20508 0.0
C2429 C 0.66198 0.28646 0.18526 0.0
C2430 C 0.64885 0.27282 0.17339 0.0
C2431 C 0.64779 0.275 0.15473 0.0
C2432 C 0.65989 0.29068 0.14776 0.0
C2433 C 0.6731 0.30419 0.15944 0.0
C2434 C 0.67421 0.30209 0.17811 0.0
C2435 C 0.71992 0.26305 0.25887 0.0
C2436 C 0.73644 0.27606 0.25469 0.0
C2437 C 0.70274 0.26417 0.25166 0.0
C2438 C 0.70103 0.27854 0.24004 0.0
C2439 C 0.71759 0.29147 0.23582 0.0
C2440 C 0.73475 0.29028 0.24294 0.0
C2441 C 0.68239 0.27995 0.23199 0.0
C2442 C 0.67987 0.28327 0.21347 0.0
C2443 C 0.66689 0.27787 0.24211 0.0
C2444 C 0.66799 0.27544 0.26185 0.0
C2445 C 0.6809 0.2891 0.27391 0.0
C2446 C 0.68192 0.28663 0.29252 0.0
C2447 C 0.67 0.27064 0.29924 0.0
C2448 C 0.657 0.25711 0.28738 0.0
C2449 C 0.65594 0.2595 0.26876 0.0
H2450 H 0.67081 0.26875 0.31365 0.0
H2451 H 0.65905 0.29235 0.13331 0.0
H2452 H 0.56443 0.83781 0.90852 0.0
H2453 H 0.56674 0.86993 0.92336 0.0
H2454 H 0.51955 0.84472 0.95138 0.0
H2455 H 0.5168 0.81319 0.93601 0.0
H2456 H 0.51543 0.87545 0.94445 0.0
H2457 H 0.56932 0.86489 0.97117 0.0
H2458 H 0.59871 0.8581 0.97169 0.0
H2459 H 0.6206 0.90835 0.94307 0.0
H2460 H 0.59125 0.91531 0.9422 0.0
H2461 H 0.52726 0.95436 0.01377 0.0
H2462 H 0.52723 0.92381 0.99735 0.0
H2463 H 0.56134 0.95555 0.95911 0.0
H2464 H 0.56097 0.98623 0.9752 0.0
H2465 H 0.57282 0.92311 0.97021 0.0
H2466 H 0.51833 0.93399 0.94586 0.0
H2467 H 0.48903 0.94067 0.94734 0.0
H2468 H 0.46831 0.88879 0.97407 0.0
H2469 H 0.49761 0.88196 0.973 0.0
C2470 C 0.55467 0.83903 0.91802 0.0
C2471 C 0.54047 0.82241 0.92094 0.0
C2472 C 0.55601 0.85764 0.92671 0.0
C2473 C 0.54346 0.86046 0.93904 0.0
C2474 C 0.52951 0.8437 0.94205 0.0
C2475 C 0.52801 0.82531 0.93321 0.0
C2476 C 0.54425 0.88047 0.94848 0.0
C2477 C 0.5281 0.88555 0.95026 0.0
C2478 C 0.56053 0.89463 0.956 0.0
C2479 C 0.57808 0.89047 0.95643 0.0
C2480 C 0.58038 0.8744 0.96488 0.0
C2481 C 0.59702 0.87054 0.96525 0.0
C2482 C 0.61149 0.88275 0.95737 0.0
C2483 C 0.60936 0.89888 0.94914 0.0
C2484 C 0.59274 0.9028 0.9487 0.0
C2485 C 0.53478 0.95499 0.00186 0.0
C2486 C 0.54409 0.97319 0.99602 0.0
C2487 C 0.53473 0.93729 0.99235 0.0
C2488 C 0.54429 0.93687 0.97673 0.0
C2489 C 0.55384 0.95504 0.97103 0.0
C2490 C 0.55355 0.97277 0.9803 0.0
C2491 C 0.54404 0.91765 0.96637 0.0
C2492 C 0.56023 0.91284 0.96441 0.0
C2493 C 0.5278 0.90359 0.95894 0.0
C2494 C 0.5102 0.90758 0.95953 0.0
C2495 C 0.50757 0.9241 0.9522 0.0
C2496 C 0.49096 0.92789 0.95294 0.0
C2497 C 0.47683 0.91519 0.96084 0.0
C2498 C 0.47927 0.89863 0.96798 0.0
C2499 C 0.49588 0.89478 0.9673 0.0
H2500 H 0.46398 0.91816 0.9614 0.0
H2501 H 0.62437 0.87973 0.95768 0.0
H2502 H 0.95863 0.76599 0.66308 0.0
H2503 H 0.93201 0.76589 0.67858 0.0
H2504 H 0.96541 0.78969 0.72812 0.0
H2505 H 0.99264 0.78927 0.71244 0.0
H2506 H 0.93543 0.76773 0.73885 0.0
H2507 H 0.94181 0.81633 0.69781 0.0
H2508 H 0.94583 0.83142 0.66878 0.0
H2509 H 0.89644 0.79053 0.64502 0.0
H2510 H 0.89225 0.77502 0.67385 0.0
H2511 H 0.8596 0.79278 0.77784 0.0
H2512 H 0.88826 0.79323 0.76507 0.0
H2513 H 0.8587 0.761 0.71629 0.0
H2514 H 0.83006 0.76018 0.72918 0.0
H2515 H 0.88754 0.78897 0.70645 0.0
H2516 H 0.88199 0.74101 0.74955 0.0
H2517 H 0.87859 0.72854 0.77979 0.0
H2518 H 0.92739 0.77205 0.80116 0.0
H2519 H 0.93093 0.78498 0.77108 0.0
C2520 C 0.96067 0.7713 0.67731 0.0
C2521 C 0.97849 0.77775 0.68608 0.0
C2522 C 0.94503 0.77141 0.68632 0.0
C2523 C 0.94592 0.77831 0.7048 0.0
C2524 C 0.96367 0.78435 0.71391 0.0
C2525 C 0.97953 0.78412 0.70481 0.0
C2526 C 0.92845 0.77904 0.71409 0.0
C2527 C 0.92521 0.7727 0.73168 0.0
C2528 C 0.91432 0.78524 0.70534 0.0
C2529 C 0.91681 0.79439 0.68793 0.0
C2530 C 0.93188 0.81046 0.68635 0.0
C2531 C 0.93417 0.8191 0.66994 0.0
C2532 C 0.92142 0.8119 0.65505 0.0
C2533 C 0.90632 0.79607 0.65655 0.0
C2534 C 0.90397 0.78735 0.67293 0.0
C2535 C 0.85904 0.78563 0.76442 0.0
C2536 C 0.84194 0.77635 0.75484 0.0
C2537 C 0.87572 0.78584 0.757 0.0
C2538 C 0.87634 0.77705 0.73942 0.0
C2539 C 0.85925 0.76798 0.72978 0.0
C2540 C 0.84258 0.76745 0.73733 0.0
C2541 C 0.89446 0.77746 0.73102 0.0
C2542 C 0.89778 0.78401 0.71358 0.0
C2543 C 0.90875 0.77181 0.74006 0.0
C2544 C 0.90664 0.76407 0.75812 0.0
C2545 C 0.89192 0.74801 0.76074 0.0
C2546 C 0.88998 0.74084 0.77785 0.0
C2547 C 0.90276 0.74952 0.7924 0.0
C2548 C 0.9175 0.76536 0.78988 0.0
C2549 C 0.91948 0.77261 0.7728 0.0
H2550 H 0.9013 0.74397 0.80564 0.0
H2551 H 0.92322 0.81863 0.64235 0.0
H2552 H 0.17103 0.05836 0.88318 0.0
H2553 H 0.14871 0.06019 0.90466 0.0
H2554 H 0.11425 0.00429 0.88198 0.0
H2555 H 0.13616 1.00266 0.8602 0.0
H2556 H 0.09561 0.02952 0.88558 0.0
H2557 H 0.14057 0.01034 0.92231 0.0
H2558 H 0.17153 0.0146 0.93578 0.0
H2559 H 0.17225 0.06867 0.96363 0.0
H2560 H 0.14137 0.06485 0.95009 0.0
H2561 H 0.03907 0.98775 0.95152 0.0
H2562 H 0.0623 0.99674 0.93003 0.0
H2563 H 0.0832 0.05353 0.95871 0.0
H2564 H 0.05972 0.04465 0.97996 0.0
H2565 H 0.10947 0.03512 0.95254 0.0
H2566 H 0.06161 0.05049 0.91918 0.0
H2567 H 0.03031 0.04461 0.90599 0.0
H2568 H 0.03451 0.99604 0.87209 0.0
H2569 H 0.06576 1.00143 0.88529 0.0
C2570 C 0.15879 0.04638 0.88299 0.0
C2571 C 0.15526 0.03033 0.87016 0.0
C2572 C 0.14607 0.04749 0.89516 0.0
C2573 C 0.12993 0.03237 0.89483 0.0
C2574 C 0.12661 0.01616 0.88229 0.0
C2575 C 0.13916 0.01518 0.86999 0.0
C2576 C 0.11632 0.03317 0.90751 0.0
C2577 C 0.09859 0.0307 0.90023 0.0
C2578 C 0.12045 0.03537 0.92656 0.0
C2579 C 0.13882 0.03746 0.93498 0.0
C2580 C 0.14741 0.02322 0.93118 0.0
C2581 C 0.16493 0.02556 0.93881 0.0
C2582 C 0.17391 0.04198 0.95042 0.0
C2583 C 0.16533 0.05602 0.95454 0.0
C2584 C 0.14781 0.05377 0.94691 0.0
C2585 C 0.04862 1.00213 0.95311 0.0
C2586 C 0.04819 0.01537 0.96755 0.0
C2587 C 0.06175 0.00727 0.94089 0.0
C2588 C 0.07432 0.02578 0.94291 0.0
C2589 C 0.07362 0.03916 0.95711 0.0
C2590 C 0.06044 0.03403 0.96929 0.0
C2591 C 0.08869 0.03069 0.93056 0.0
C2592 C 0.10655 0.03436 0.93791 0.0
C2593 C 0.08465 0.02939 0.91156 0.0
C2594 C 0.066 0.02631 0.9033 0.0
C2595 C 0.05583 0.03849 0.90898 0.0
C2596 C 0.0381 0.03525 0.9015 0.0
C2597 C 0.03042 0.01995 0.88823 0.0
C2598 C 0.04048 0.00789 0.88237 0.0
C2599 C 0.05822 0.01105 0.88983 0.0
H2600 H 0.01667 0.01745 0.88247 0.0
H2601 H 0.18747 0.04373 0.95636 0.0
H2602 H 0.82266 0.37469 0.52395 0.0
H2603 H 0.83023 0.3616 0.55214 0.0
H2604 H 0.79427 0.38682 0.58009 0.0
H2605 H 0.78641 0.39971 0.55198 0.0
H2606 H 0.8302 0.39314 0.59883 0.0
H2607 H 0.77876 0.34301 0.56949 0.0
H2608 H 0.7619 0.32057 0.54358 0.0
H2609 H 0.80418 0.29332 0.5423 0.0
H2610 H 0.82143 0.31585 0.56804 0.0
H2611 H 0.81364 0.34147 0.67733 0.0
H2612 H 0.81345 0.35847 0.64991 0.0
H2613 H 0.84042 0.32149 0.623 0.0
H2614 H 0.83975 0.30371 0.65001 0.0
H2615 H 0.81175 0.3221 0.60301 0.0
H2616 H 0.86173 0.37019 0.63534 0.0
H2617 H 0.87836 0.393 0.66111 0.0
H2618 H 0.83937 0.42451 0.65713 0.0
H2619 H 0.82233 0.40172 0.63152 0.0
C2620 C 0.81629 0.37731 0.53608 0.0
C2621 C 0.80385 0.38804 0.53579 0.0
C2622 C 0.82069 0.36995 0.55212 0.0
C2623 C 0.81286 0.37344 0.56807 0.0
C2624 C 0.8005 0.38418 0.56786 0.0
C2625 C 0.79588 0.39129 0.55177 0.0
C2626 C 0.81695 0.36513 0.58485 0.0
C2627 C 0.82612 0.37763 0.59991 0.0
C2628 C 0.8119 0.34494 0.58587 0.0
C2629 C 0.80147 0.33124 0.57054 0.0
C2630 C 0.78453 0.33235 0.56357 0.0
C2631 C 0.7749 0.3196 0.54894 0.0
C2632 C 0.78199 0.30557 0.54126 0.0
C2633 C 0.79872 0.30422 0.54824 0.0
C2634 C 0.80843 0.31697 0.56286 0.0
C2635 C 0.81954 0.33697 0.66558 0.0
C2636 C 0.82652 0.32111 0.66575 0.0
C2637 C 0.81968 0.34689 0.65001 0.0
C2638 C 0.82705 0.34131 0.63449 0.0
C2639 C 0.83471 0.32602 0.63489 0.0
C2640 C 0.83442 0.31598 0.65037 0.0
C2641 C 0.82508 0.35005 0.61728 0.0
C2642 C 0.81616 0.33762 0.60204 0.0
C2643 C 0.8304 0.37033 0.61617 0.0
C2644 C 0.84066 0.38412 0.63157 0.0
C2645 C 0.85661 0.38188 0.64005 0.0
C2646 C 0.86612 0.39483 0.65462 0.0
C2647 C 0.8599 0.41017 0.66078 0.0
C2648 C 0.84417 0.41261 0.65235 0.0
C2649 C 0.83458 0.39969 0.6378 0.0
H2650 H 0.86728 0.42017 0.67205 0.0
H2651 H 0.77451 0.2957 0.52993 0.0
H2652 H 0.47179 0.02134 0.32138 0.0
H2653 H 0.49589 0.02851 0.34614 0.0
H2654 H 0.45837 0.03699 0.38426 0.0
H2655 H 0.43449 0.0305 0.35953 0.0
H2656 H 0.4882 0.06741 0.38634 0.0
H2657 H 0.4742 0.99654 0.38192 0.0
H2658 H 0.47191 0.96486 0.36598 0.0
H2659 H 0.52793 0.98502 0.3558 0.0
H2660 H 0.53048 0.01688 0.37152 0.0
H2661 H 0.50778 0.05253 0.47472 0.0
H2662 H 0.49875 0.05538 0.4433 0.0
H2663 H 0.54961 0.04955 0.42723 0.0
H2664 H 0.55856 0.04596 0.45884 0.0
H2665 H 0.52285 0.02427 0.40821 0.0
H2666 H 0.53782 0.09193 0.42126 0.0
H2667 H 0.53969 0.12244 0.43915 0.0
H2668 H 0.48178 0.10845 0.4341 0.0
H2669 H 0.47952 0.07773 0.41648 0.0
C2670 C 0.46863 0.02425 0.33514 0.0
C2671 C 0.45139 0.02548 0.33867 0.0
C2672 C 0.4824 0.02843 0.34921 0.0
C2673 C 0.47889 0.03349 0.36692 0.0
C2674 C 0.46135 0.0334 0.37059 0.0
C2675 C 0.44771 0.02955 0.35654 0.0
C2676 C 0.49348 0.03998 0.38169 0.0
C2677 C 0.49583 0.05803 0.39119 0.0
C2678 C 0.50413 0.0282 0.38725 0.0
C2679 C 0.50247 0.00913 0.37766 0.0
C2680 C 0.48597 0.99426 0.37612 0.0
C2681 C 0.48464 0.97626 0.36717 0.0
C2682 C 0.49975 0.97295 0.35982 0.0
C2683 C 0.51623 0.98761 0.36145 0.0
C2684 C 0.51762 0.00563 0.37038 0.0
C2685 C 0.51725 0.05231 0.46461 0.0
C2686 C 0.53376 0.04876 0.46916 0.0
C2687 C 0.51215 0.05414 0.44663 0.0
C2688 C 0.52363 0.05291 0.43295 0.0
C2689 C 0.54062 0.05059 0.43763 0.0
C2690 C 0.54566 0.0485 0.45564 0.0
C2691 C 0.5165 0.05106 0.41376 0.0
C2692 C 0.51573 0.03403 0.40317 0.0
C2693 C 0.50723 0.06376 0.40723 0.0
C2694 C 0.50852 0.08251 0.41746 0.0
C2695 C 0.52548 0.09533 0.42399 0.0
C2696 C 0.52661 0.11266 0.43411 0.0
C2697 C 0.51087 0.11739 0.43774 0.0
C2698 C 0.49397 0.1048 0.43124 0.0
C2699 C 0.49276 0.08745 0.42114 0.0
H2700 H 0.51177 0.13079 0.4456 0.0
H2701 H 0.4987 0.959 0.35291 0.0
H2702 H 0.78487 0.7466 0.06247 0.0
H2703 H 0.7845 0.75722 0.09447 0.0
H2704 H 0.80225 0.70909 0.11066 0.0
H2705 H 0.80245 0.69824 0.0787 0.0
H2706 H 0.77564 0.71246 0.13015 0.0
H2707 H 0.83109 0.75509 0.11509 0.0
H2708 H 0.85136 0.77873 0.09748 0.0
H2709 H 0.82177 0.81932 0.10849 0.0
H2710 H 0.80115 0.79579 0.12597 0.0
H2711 H 0.81026 0.75575 0.22248 0.0
H2712 H 0.81047 0.74546 0.19023 0.0
H2713 H 0.76871 0.77171 0.17631 0.0
H2714 H 0.76788 0.78133 0.2087 0.0
H2715 H 0.8075 0.77943 0.15622 0.0
H2716 H 0.75092 0.73392 0.17051 0.0
H2717 H 0.73286 0.70979 0.18929 0.0
H2718 H 0.76757 0.67402 0.18066 0.0
H2719 H 0.78607 0.69819 0.1621 0.0
C2720 C 0.78883 0.73833 0.07281 0.0
C2721 C 0.79373 0.72158 0.06793 0.0
C2722 C 0.78865 0.74446 0.09115 0.0
C2723 C 0.79346 0.73404 0.10507 0.0
C2724 C 0.79845 0.71737 0.10023 0.0
C2725 C 0.79865 0.71125 0.0819 0.0
C2726 C 0.79298 0.74034 0.12462 0.0
C2727 C 0.78274 0.72708 0.13581 0.0
C2728 C 0.80213 0.75942 0.13217 0.0
C2729 C 0.81446 0.7736 0.12166 0.0
C2730 C 0.82881 0.76899 0.11362 0.0
C2731 C 0.84038 0.78238 0.10369 0.0
C2732 C 0.83782 0.8005 0.10182 0.0
C2733 C 0.82371 0.80527 0.10993 0.0
C2734 C 0.81209 0.79192 0.11986 0.0
C2735 C 0.80107 0.75926 0.21254 0.0
C2736 C 0.78899 0.76926 0.21808 0.0
C2737 C 0.80121 0.75337 0.19416 0.0
C2738 C 0.78958 0.7578 0.18092 0.0
C2739 C 0.77772 0.76809 0.18635 0.0
C2740 C 0.77721 0.7735 0.20482 0.0
C2741 C 0.78994 0.75167 0.16143 0.0
C2742 C 0.8003 0.7649 0.15039 0.0
C2743 C 0.78111 0.73253 0.15407 0.0
C2744 C 0.77003 0.71799 0.16517 0.0
C2745 C 0.75486 0.72105 0.17283 0.0
C2746 C 0.74451 0.70734 0.18339 0.0
C2747 C 0.7491 0.69041 0.18622 0.0
C2748 C 0.76405 0.68716 0.17848 0.0
C2749 C 0.77448 0.70086 0.16795 0.0
H2750 H 0.74101 0.67979 0.19433 0.0
H2751 H 0.8468 0.81086 0.09413 0.0
H2752 H 0.15525 0.02807 0.76397 0.0
H2753 H 0.13843 0.03273 0.73655 0.0
H2754 H 0.08891 0.01649 0.7631 0.0
H2755 H 0.10566 0.01165 0.79075 0.0
H2756 H 0.08591 0.99931 0.72768 0.0
H2757 H 0.10875 0.06255 0.75933 0.0
H2758 H 0.13227 0.0905 0.77513 0.0
H2759 H 0.16048 0.0984 0.72672 0.0
H2760 H 0.13743 0.07024 0.71081 0.0
H2761 H 0.03812 0.03285 0.6568 0.0
H2762 H 0.05064 0.02752 0.68668 0.0
H2763 H 0.10449 0.04636 0.66895 0.0
H2764 H 0.09213 0.05202 0.63933 0.0
H2765 H 0.10285 0.06311 0.70192 0.0
H2766 H 0.08391 0.99929 0.67142 0.0
H2767 H 0.06374 0.96903 0.65562 0.0
H2768 H 0.03068 0.96101 0.70062 0.0
H2769 H 0.05052 0.99139 0.7166 0.0
C2770 C 0.14077 0.02537 0.764 0.0
C2771 C 0.13177 0.01958 0.77956 0.0
C2772 C 0.13121 0.02814 0.74835 0.0
C2773 C 0.11253 0.02525 0.74799 0.0
C2774 C 0.10337 0.0189 0.76325 0.0
C2775 C 0.11295 0.01615 0.77898 0.0
C2776 C 0.10267 0.0289 0.73157 0.0
C2777 C 0.08928 0.01335 0.7222 0.0
C2778 C 0.10756 0.04712 0.72432 0.0
C2779 C 0.1214 0.06418 0.73391 0.0
C2780 C 0.12006 0.07014 0.75211 0.0
C2781 C 0.13333 0.08603 0.7611 0.0
C2782 C 0.14791 0.0962 0.75198 0.0
C2783 C 0.14924 0.0905 0.73383 0.0
C2784 C 0.13607 0.07457 0.72481 0.0
C2785 C 0.05263 0.03595 0.65938 0.0
C2786 C 0.06418 0.04279 0.6458 0.0
C2787 C 0.05973 0.03275 0.67634 0.0
C2788 C 0.07846 0.03643 0.67991 0.0
C2789 C 0.08999 0.04342 0.66642 0.0
C2790 C 0.08292 0.04652 0.64949 0.0
C2791 C 0.08623 0.03342 0.69782 0.0
C2792 C 0.09922 0.04913 0.70752 0.0
C2793 C 0.08117 0.01528 0.70523 0.0
C2794 C 0.06857 0.99774 0.69511 0.0
C2795 C 0.07217 0.99125 0.67782 0.0
C2796 C 0.06085 0.97402 0.66887 0.0
C2797 C 0.04597 0.96308 0.67714 0.0
C2798 C 0.04223 0.96948 0.69426 0.0
C2799 C 0.05349 0.98671 0.70325 0.0
H2800 H 0.03734 0.94961 0.67033 0.0
H2801 H 0.15813 0.10852 0.75895 0.0
H2802 H 0.82651 0.39597 0.45629 0.0
H2803 H 0.82411 0.37292 0.43003 0.0
H2804 H 0.77041 0.37592 0.41456 0.0
H2805 H 0.77242 0.39823 0.44135 0.0
H2806 H 0.7703 0.3401 0.4126 0.0
H2807 H 0.80947 0.39917 0.39211 0.0
H2808 H 0.83662 0.42752 0.39401 0.0
H2809 H 0.87057 0.39009 0.39501 0.0
H2810 H 0.84362 0.36155 0.3933 0.0
H2811 H 0.77124 0.31901 0.31356 0.0
H2812 H 0.77354 0.33698 0.34331 0.0
H2813 H 0.80041 0.2991 0.3677 0.0
H2814 H 0.79758 0.28062 0.33829 0.0
H2815 H 0.81531 0.34941 0.36662 0.0
H2816 H 0.77604 0.29048 0.38844 0.0
H2817 H 0.74876 0.26226 0.38577 0.0
H2818 H 0.71517 0.29988 0.38178 0.0
H2819 H 0.74232 0.32831 0.38405 0.0
C2820 C 0.81429 0.39186 0.44715 0.0
C2821 C 0.79965 0.39885 0.45073 0.0
C2822 C 0.81294 0.37873 0.43215 0.0
C2823 C 0.79714 0.37287 0.42026 0.0
C2824 C 0.78268 0.38022 0.42363 0.0
C2825 C 0.78387 0.393 0.43884 0.0
C2826 C 0.79535 0.35866 0.40456 0.0
C2827 C 0.78013 0.34223 0.40252 0.0
C2828 C 0.80841 0.36112 0.39168 0.0
C2829 C 0.82456 0.37828 0.39276 0.0
C2830 C 0.82274 0.39702 0.39287 0.0
C2831 C 0.83809 0.41311 0.39388 0.0
C2832 C 0.85531 0.41061 0.39468 0.0
C2833 C 0.85723 0.39201 0.39442 0.0
C2834 C 0.84193 0.37588 0.39341 0.0
C2835 C 0.77731 0.31433 0.32535 0.0
C2836 C 0.78417 0.29846 0.32372 0.0
C2837 C 0.77855 0.3245 0.34225 0.0
C2838 C 0.78689 0.31905 0.35754 0.0
C2839 C 0.79359 0.30314 0.35602 0.0
C2840 C 0.79199 0.29269 0.33924 0.0
C2841 C 0.7902 0.33131 0.37464 0.0
C2842 C 0.80567 0.3473 0.37689 0.0
C2843 C 0.77745 0.32846 0.38771 0.0
C2844 C 0.76117 0.31144 0.38605 0.0
C2845 C 0.76284 0.2927 0.38666 0.0
C2846 C 0.74741 0.27667 0.38531 0.0
C2847 C 0.73024 0.27926 0.38351 0.0
C2848 C 0.72847 0.29789 0.3831 0.0
C2849 C 0.74387 0.31396 0.3844 0.0
H2850 H 0.7183 0.26685 0.38251 0.0
H2851 H 0.86718 0.42309 0.39546 0.0
H2852 H 0.44817 0.07492 0.25794 0.0
H2853 H 0.46298 0.07072 0.23044 0.0
H2854 H 0.49705 0.0434 0.26036 0.0
H2855 H 0.48282 0.04847 0.28814 0.0
H2856 H 0.51489 0.06217 0.23481 0.0
H2857 H 0.45766 0.01465 0.23601 0.0
H2858 H 0.42496 1.0014 0.23893 0.0
H2859 H 0.41348 0.03377 0.19543 0.0
H2860 H 0.44614 0.04692 0.192 0.0
H2861 H 0.52168 0.99894 0.15771 0.0
H2862 H 0.51445 0.0113 0.18693 0.0
H2863 H 0.49392 0.05264 0.16 0.0
H2864 H 0.50178 0.04104 0.13083 0.0
H2865 H 0.47018 0.02666 0.18408 0.0
H2866 H 0.53053 0.07069 0.18238 0.0
H2867 H 0.56317 0.07758 0.17907 0.0
H2868 H 0.56865 0.04567 0.22506 0.0
H2869 H 0.53595 0.03833 0.22842 0.0
C2870 C 0.45924 0.06861 0.25873 0.0
C2871 C 0.46437 0.06192 0.275 0.0
C2872 C 0.46756 0.06605 0.24303 0.0
C2873 C 0.48066 0.05618 0.24328 0.0
C2874 C 0.48686 0.05092 0.25988 0.0
C2875 C 0.4788 0.05389 0.27573 0.0
C2876 C 0.48658 0.04983 0.226 0.0
C2877 C 0.50511 0.0543 0.22377 0.0
C2878 C 0.47385 0.0394 0.21165 0.0
C2879 C 0.45429 0.03193 0.21391 0.0
C2880 C 0.44815 0.01905 0.22718 0.0
C2881 C 0.42964 0.01153 0.22889 0.0
C2882 C 0.41716 0.01691 0.21753 0.0
C2883 C 0.42317 0.02968 0.20428 0.0
C2884 C 0.44166 0.03709 0.20237 0.0
C2885 C 0.51588 0.01086 0.15803 0.0
C2886 C 0.51218 0.01894 0.14195 0.0
C2887 C 0.51174 0.01783 0.17469 0.0
C2888 C 0.50375 0.03285 0.17546 0.0
C2889 C 0.50006 0.04098 0.15953 0.0
C2890 C 0.5044 0.03421 0.1429 0.0
C2891 C 0.49836 0.03941 0.19281 0.0
C2892 C 0.4799 0.03474 0.19508 0.0
C2893 C 0.51116 0.04907 0.20731 0.0
C2894 C 0.53082 0.05383 0.20554 0.0
C2895 C 0.53869 0.06503 0.19169 0.0
C2896 C 0.55719 0.06903 0.18982 0.0
C2897 C 0.56798 0.06203 0.20183 0.0
C2898 C 0.56028 0.05107 0.21576 0.0
C2899 C 0.54177 0.047 0.21767 0.0
H2900 H 0.58231 0.06513 0.20035 0.0
H2901 H 0.40283 0.01109 0.21892 0.0
H2902 H 0.77534 0.73121 0.97123 0.0
H2903 H 0.77867 0.73934 0.93984 0.0
H2904 H 0.81196 0.70143 0.93275 0.0
H2905 H 0.80915 0.69369 0.96445 0.0
H2906 H 0.82489 0.73257 0.91519 0.0
H2907 H 0.76646 0.68737 0.91655 0.0
H2908 H 0.73628 0.674 0.92743 0.0
H2909 H 0.72192 0.72455 0.91337 0.0
H2910 H 0.75211 0.73835 0.90264 0.0
H2911 H 0.80784 0.73211 0.81579 0.0
H2912 H 0.80844 0.72021 0.84636 0.0
H2913 H 0.7876 0.76552 0.86738 0.0
H2914 H 0.78739 0.77765 0.83747 0.0
H2915 H 0.76869 0.72646 0.87622 0.0
H2916 H 0.82844 0.77254 0.87788 0.0
H2917 H 0.85845 0.78549 0.86652 0.0
H2918 H 0.86969 0.73166 0.87379 0.0
H2919 H 0.83963 0.71833 0.88502 0.0
C2920 C 0.78349 0.72468 0.96307 0.0
C2921 C 0.79183 0.71165 0.97037 0.0
C2922 C 0.78531 0.72927 0.94503 0.0
C2923 C 0.79521 0.72066 0.93367 0.0
C2924 C 0.80414 0.70819 0.94113 0.0
C2925 C 0.8025 0.70375 0.95928 0.0
C2926 C 0.79577 0.72432 0.91398 0.0
C2927 C 0.81255 0.73088 0.90663 0.0
C2928 C 0.77976 0.72225 0.90263 0.0
C2929 C 0.76157 0.71393 0.90892 0.0
C2930 C 0.75689 0.69568 0.91588 0.0
C2931 C 0.73979 0.68802 0.92201 0.0
C2932 C 0.7272 0.69843 0.92112 0.0
C2933 C 0.73168 0.7165 0.91406 0.0
C2934 C 0.74878 0.72424 0.90794 0.0
C2935 C 0.80347 0.73953 0.82698 0.0
C2936 C 0.79768 0.75589 0.82418 0.0
C2937 C 0.80384 0.73275 0.84441 0.0
C2938 C 0.79804 0.742 0.85914 0.0
C2939 C 0.79212 0.75816 0.85625 0.0
C2940 C 0.7921 0.76512 0.83909 0.0
C2941 C 0.79773 0.73498 0.87766 0.0
C2942 C 0.78097 0.72782 0.88477 0.0
C2943 C 0.8137 0.73636 0.88868 0.0
C2944 C 0.83175 0.74438 0.88207 0.0
C2945 C 0.83726 0.76342 0.8769 0.0
C2946 C 0.85428 0.77084 0.87053 0.0
C2947 C 0.86595 0.75938 0.86938 0.0
C2948 C 0.86063 0.7405 0.87466 0.0
C2949 C 0.84361 0.73301 0.88105 0.0
H2950 H 0.87913 0.76515 0.86444 0.0
H2951 H 0.71397 0.69248 0.92587 0.0
H2952 H 0.858 0.13747 0.01804 0.0
H2953 H 0.87481 0.11555 0.00754 0.0
H2954 H 0.84101 0.06995 0.03569 0.0
H2955 H 0.82471 0.09171 0.04669 0.0
H2956 H 0.87451 0.06999 0.03996 0.0
H2957 H 0.83331 0.0735 0.98928 0.0
H2958 H 0.82024 0.09073 0.96699 0.0
H2959 H 0.87204 0.11239 0.946 0.0
H2960 H 0.88547 0.09549 0.96835 0.0
H2961 H 0.89644 0.9915 0.00259 0.0
H2962 H 0.87554 0.01104 0.005 0.0
H2963 H 0.91308 0.05742 0.98108 0.0
H2964 H 0.93398 0.03802 0.97869 0.0
H2965 H 0.87757 0.057 0.97364 0.0
H2966 H 0.91873 0.05485 0.02472 0.0
H2967 H 0.93231 0.03811 0.04682 0.0
H2968 H 0.88069 0.01465 0.06765 0.0
H2969 H 0.86665 0.03091 0.04515 0.0
C2970 C 0.85436 0.12285 0.02217 0.0
C2971 C 0.83995 0.11624 0.033 0.0
C2972 C 0.86385 0.11034 0.01606 0.0
C2973 C 0.85882 0.09107 0.02053 0.0
C2974 C 0.84499 0.08475 0.032 0.0
C2975 C 0.83568 0.09723 0.03825 0.0
C2976 C 0.86763 0.07716 0.01313 0.0
C2977 C 0.87493 0.06697 0.02545 0.0
C2978 C 0.86851 0.07356 0.99422 0.0
C2979 C 0.8604 0.0834 0.98057 0.0
C2980 C 0.84192 0.08202 0.97997 0.0
C2981 C 0.83445 0.09172 0.96732 0.0
C2982 C 0.84531 0.10269 0.95511 0.0
C2983 C 0.86365 0.10391 0.95548 0.0
C2984 C 0.87119 0.09427 0.96812 0.0
C2985 C 0.89986 0.00557 0.99724 0.0
C2986 C 0.91684 0.01355 0.99084 0.0
C2987 C 0.88798 0.01668 0.99861 0.0
C2988 C 0.89312 0.03579 0.99366 0.0
C2989 C 0.90908 0.0428 0.98517 0.0
C2990 C 0.92099 0.03178 0.98391 0.0
C2991 C 0.88396 0.04959 0.00048 0.0
C2992 C 0.87686 0.05989 0.98812 0.0
C2993 C 0.88322 0.05335 0.01938 0.0
C2994 C 0.89163 0.04389 0.03313 0.0
C2995 C 0.91026 0.04603 0.03393 0.0
C2996 C 0.91804 0.03663 0.04655 0.0
C2997 C 0.90741 0.02532 0.0587 0.0
C2998 C 0.88892 0.0234 0.05823 0.0
C2999 C 0.88103 0.03267 0.04551 0.0
H3000 H 0.9135 0.01806 0.06849 0.0
H3001 H 0.83951 0.1102 0.94534 0.0
H3002 H 0.33453 0.4259 0.03527 0.0
H3003 H 0.36417 0.45004 0.03561 0.0
H3004 H 0.3885 0.40457 0.02417 0.0
H3005 H 0.359 0.38037 0.02382 0.0
H3006 H 0.40866 0.4319 0.05061 0.0
H3007 H 0.37931 0.42972 0.99078 0.0
H3008 H 0.35489 0.4317 0.96864 0.0
H3009 H 0.3621 0.49045 0.98917 0.0
H3010 H 0.3864 0.4887 0.01163 0.0
H3011 H 0.48837 0.47418 0.01076 0.0
H3012 H 0.45708 0.45615 0.01395 0.0
H3013 H 0.44624 0.50871 0.03326 0.0
H3014 H 0.47789 0.52706 0.03042 0.0
H3015 H 0.41873 0.48149 0.00586 0.0
H3016 H 0.45118 0.4842 0.06351 0.0
H3017 H 0.47659 0.48169 0.08399 0.0
H3018 H 0.46386 0.42122 0.06688 0.0
H3019 H 0.43875 0.42346 0.04582 0.0
C3020 C 0.34621 0.42103 0.03294 0.0
C3021 C 0.34441 0.40122 0.02944 0.0
C3022 C 0.36311 0.43485 0.03309 0.0
C3023 C 0.37848 0.42908 0.02979 0.0
C3024 C 0.37679 0.40931 0.02675 0.0
C3025 C 0.35991 0.39551 0.02648 0.0
C3026 C 0.3963 0.44359 0.029 0.0
C3027 C 0.41087 0.4427 0.0408 0.0
C3028 C 0.39908 0.45796 0.01647 0.0
C3029 C 0.38448 0.459 0.00303 0.0
C3030 C 0.37556 0.44299 0.99069 0.0
C3031 C 0.36177 0.44408 0.97806 0.0
C3032 C 0.35691 0.46117 0.97754 0.0
C3033 C 0.36586 0.47721 0.98962 0.0
C3034 C 0.37963 0.47618 0.0023 0.0
C3035 C 0.47935 0.48205 0.01547 0.0
C3036 C 0.48565 0.50208 0.02042 0.0
C3037 C 0.46148 0.47167 0.01733 0.0
C3038 C 0.44948 0.48111 0.02399 0.0
C3039 C 0.45539 0.50123 0.02814 0.0
C3040 C 0.47343 0.51165 0.02652 0.0
C3041 C 0.43104 0.46954 0.02726 0.0
C3042 C 0.41641 0.47094 0.01591 0.0
C3043 C 0.4282 0.45556 0.04014 0.0
C3044 C 0.44318 0.45406 0.05293 0.0
C3045 C 0.45393 0.47041 0.06394 0.0
C3046 C 0.4683 0.46903 0.07565 0.0
C3047 C 0.47192 0.45131 0.07664 0.0
C3048 C 0.46113 0.43494 0.06598 0.0
C3049 C 0.44683 0.43626 0.05415 0.0
H3050 H 0.48305 0.45026 0.08571 0.0
H3051 H 0.34624 0.46199 0.96774 0.0
H3052 H 0.41121 0.59162 0.77592 0.0
H3053 H 0.39205 0.61158 0.78495 0.0
H3054 H 0.36481 0.60091 0.73091 0.0
H3055 H 0.38358 0.58055 0.72189 0.0
H3056 H 0.37346 0.64118 0.74934 0.0
H3057 H 0.34523 0.57275 0.75655 0.0
H3058 H 0.345 0.54153 0.76818 0.0
H3059 H 0.3541 0.56794 0.82297 0.0
H3060 H 0.35468 0.59942 0.81159 0.0
H3061 H 0.28685 0.64985 0.75218 0.0
H3062 H 0.31058 0.63431 0.74843 0.0
H3063 H 0.32752 0.64654 0.80573 0.0
H3064 H 0.30429 0.66278 0.80956 0.0
H3065 H 0.32695 0.60841 0.78945 0.0
H3066 H 0.35091 0.67586 0.78278 0.0
H3067 H 0.3506 0.707 0.77136 0.0
H3068 H 0.35016 0.68342 0.71651 0.0
H3069 H 0.35014 0.65199 0.7276 0.0
C3070 C 0.40142 0.59391 0.76587 0.0
C3071 C 0.39867 0.58449 0.74828 0.0
C3072 C 0.39054 0.60526 0.77104 0.0
C3073 C 0.3771 0.60752 0.75856 0.0
C3074 C 0.37522 0.59928 0.74063 0.0
C3075 C 0.38583 0.58762 0.73556 0.0
C3076 C 0.36361 0.61651 0.76465 0.0
C3077 C 0.36327 0.63408 0.75808 0.0
C3078 C 0.35069 0.60731 0.77639 0.0
C3079 C 0.35026 0.58844 0.78323 0.0
C3080 C 0.34737 0.57193 0.77106 0.0
C3081 C 0.34714 0.55419 0.7776 0.0
C3082 C 0.3496 0.55277 0.7963 0.0
C3083 C 0.35225 0.56908 0.80849 0.0
C3084 C 0.35253 0.58687 0.80201 0.0
C3085 C 0.29546 0.649 0.76403 0.0
C3086 C 0.29387 0.65772 0.78111 0.0
C3087 C 0.30894 0.64013 0.76187 0.0
C3088 C 0.32084 0.63969 0.77678 0.0
C3089 C 0.3184 0.6469 0.79412 0.0
C3090 C 0.30504 0.656 0.79628 0.0
C3091 C 0.33656 0.63291 0.77385 0.0
C3092 C 0.33733 0.61574 0.781 0.0
C3093 C 0.34995 0.64256 0.76275 0.0
C3094 C 0.35029 0.66151 0.75601 0.0
C3095 C 0.35056 0.67725 0.76827 0.0
C3096 C 0.35044 0.69495 0.76186 0.0
C3097 C 0.35023 0.69714 0.74321 0.0
C3098 C 0.35026 0.68167 0.73095 0.0
C3099 C 0.35032 0.66391 0.73729 0.0
H3100 H 0.35013 0.71086 0.73827 0.0
H3101 H 0.3494 0.53902 0.80134 0.0
H3102 H 0.24949 0.58126 0.56702 0.0
H3103 H 0.21796 0.56097 0.56335 0.0
H3104 H 0.20034 0.61225 0.56868 0.0
H3105 H 0.23166 0.63231 0.57352 0.0
H3106 H 0.17758 0.58575 0.5819 0.0
H3107 H 0.207 0.5901 0.52614 0.0
H3108 H 0.23022 0.58644 0.50606 0.0
H3109 H 0.21403 0.52514 0.51086 0.0
H3110 H 0.19086 0.5285 0.53117 0.0
H3111 H 0.10232 0.5495 0.50676 0.0
H3112 H 0.13497 0.55911 0.51492 0.0
H3113 H 0.12592 0.53064 0.56453 0.0
H3114 H 0.09336 0.52141 0.55673 0.0
H3115 H 0.16188 0.54288 0.52442 0.0
H3116 H 0.14833 0.56105 0.59822 0.0
H3117 H 0.12425 0.56927 0.61437 0.0
H3118 H 0.10853 0.59417 0.56714 0.0
H3119 H 0.13259 0.58626 0.55084 0.0
C3120 C 0.23881 0.58805 0.56796 0.0
C3121 C 0.24287 0.60827 0.5704 0.0
C3122 C 0.22086 0.57651 0.56571 0.0
C3123 C 0.20684 0.58515 0.56517 0.0
C3124 C 0.21094 0.60526 0.56897 0.0
C3125 C 0.22884 0.61673 0.57175 0.0
C3126 C 0.18806 0.57368 0.55917 0.0
C3127 C 0.17423 0.57622 0.56945 0.0
C3128 C 0.18359 0.56163 0.54263 0.0
C3129 C 0.19738 0.55958 0.53033 0.0
C3130 C 0.20848 0.57586 0.52299 0.0
C3131 C 0.22162 0.57384 0.51156 0.0
C3132 C 0.22364 0.55557 0.50723 0.0
C3133 C 0.21247 0.53928 0.51426 0.0
C3134 C 0.19934 0.54123 0.52573 0.0
C3135 C 0.10734 0.54502 0.51924 0.0
C3136 C 0.0954 0.53516 0.53136 0.0
C3137 C 0.12595 0.55038 0.5238 0.0
C3138 C 0.1327 0.54579 0.54043 0.0
C3139 C 0.12085 0.5345 0.55176 0.0
C3140 C 0.1023 0.52938 0.54734 0.0
C3141 C 0.15169 0.55508 0.54718 0.0
C3142 C 0.16541 0.55212 0.53705 0.0
C3143 C 0.15612 0.56755 0.56335 0.0
C3144 C 0.1421 0.57292 0.57332 0.0
C3145 C 0.13978 0.56838 0.59136 0.0
C3146 C 0.12613 0.57295 0.60051 0.0
C3147 C 0.11484 0.58219 0.59177 0.0
C3148 C 0.11724 0.58697 0.57389 0.0
C3149 C 0.13086 0.58244 0.56469 0.0
H3150 H 0.10426 0.58568 0.59886 0.0
H3151 H 0.23382 0.55403 0.49839 0.0
H3152 H 0.68365 0.98394 0.77544 0.0
H3153 H 0.69919 0.96676 0.79481 0.0
H3154 H 0.68917 0.92042 0.75216 0.0
H3155 H 0.67259 0.9372 0.73303 0.0
H3156 H 0.68667 0.90631 0.78394 0.0
H3157 H 0.72924 0.95841 0.75776 0.0
H3158 H 0.743 0.99231 0.75136 0.0
H3159 H 0.75472 0.00907 0.80863 0.0
H3160 H 0.74082 0.97525 0.81535 0.0
H3161 H 0.76658 0.88552 0.7696 0.0
H3162 H 0.74317 0.9016 0.7708 0.0
H3163 H 0.74916 0.90581 0.82945 0.0
H3164 H 0.77208 0.88844 0.82844 0.0
H3165 H 0.75101 0.94201 0.80224 0.0
H3166 H 0.71561 0.88267 0.82352 0.0
H3167 H 0.70413 0.84727 0.82402 0.0
H3168 H 0.68094 0.84228 0.76898 0.0
H3169 H 0.69292 0.87756 0.76785 0.0
C3170 C 0.68473 0.97004 0.77024 0.0
C3171 C 0.67739 0.96195 0.75266 0.0
C3172 C 0.6935 0.96024 0.78134 0.0
C3173 C 0.69559 0.94257 0.77476 0.0
C3174 C 0.68765 0.9341 0.75744 0.0
C3175 C 0.67839 0.94369 0.74648 0.0
C3176 C 0.70735 0.93371 0.78523 0.0
C3177 C 0.70071 0.91409 0.78809 0.0
C3178 C 0.7255 0.94413 0.79106 0.0
C3179 C 0.73378 0.96442 0.78706 0.0
C3180 C 0.73462 0.96937 0.76898 0.0
C3181 C 0.74246 0.98855 0.76529 0.0
C3182 C 0.74966 1.00285 0.77958 0.0
C3183 C 0.74909 0.99798 0.79758 0.0
C3184 C 0.74123 0.97883 0.80134 0.0
C3185 C 0.76282 0.88964 0.78278 0.0
C3186 C 0.77091 0.88548 0.79893 0.0
C3187 C 0.74947 0.89878 0.78342 0.0
C3188 C 0.7443 0.9043 0.80019 0.0
C3189 C 0.7529 0.90119 0.81643 0.0
C3190 C 0.7661 0.89159 0.81581 0.0
C3191 C 0.73057 0.91441 0.80002 0.0
C3192 C 0.73675 0.93441 0.79898 0.0
C3193 C 0.71225 0.90413 0.79508 0.0
C3194 C 0.70528 0.88281 0.7956 0.0
C3195 C 0.70829 0.87402 0.81143 0.0
C3196 C 0.70163 0.85395 0.81184 0.0
C3197 C 0.69172 0.84254 0.79657 0.0
C3198 C 0.68858 0.85114 0.78081 0.0
C3199 C 0.69534 0.87117 0.78027 0.0
H3200 H 0.68646 0.82703 0.79689 0.0
H3201 H 0.75574 0.01769 0.7767 0.0
H3202 H 0.7194 0.87962 0.54618 0.0
H3203 H 0.69863 0.89878 0.5408 0.0
H3204 H 0.73643 0.93488 0.50784 0.0
H3205 H 0.75748 0.91615 0.51359 0.0
H3206 H 0.72385 0.95656 0.52905 0.0
H3207 H 0.69712 0.90001 0.48893 0.0
H3208 H 0.68469 0.86512 0.47957 0.0
H3209 H 0.64328 0.86045 0.5164 0.0
H3210 H 0.65561 0.89527 0.52617 0.0
H3211 H 0.6624 0.00413 0.4951 0.0
H3212 H 0.68227 0.98355 0.49632 0.0
H3213 H 0.64832 0.9482 0.53279 0.0
H3214 H 0.62779 0.96809 0.53088 0.0
H3215 H 0.65915 0.92626 0.50795 0.0
H3216 H 0.68802 0.98399 0.5484 0.0
H3217 H 0.70046 0.01929 0.55549 0.0
H3218 H 0.73822 0.02183 0.51499 0.0
H3219 H 0.72585 0.98656 0.50751 0.0
C3220 C 0.72329 0.89163 0.53778 0.0
C3221 C 0.74009 0.89635 0.53031 0.0
C3222 C 0.71135 0.9025 0.53461 0.0
C3223 C 0.71584 0.9181 0.52368 0.0
C3224 C 0.73265 0.9229 0.51629 0.0
C3225 C 0.74467 0.91216 0.51959 0.0
C3226 C 0.70325 0.92977 0.52036 0.0
C3227 C 0.70977 0.94992 0.52418 0.0
C3228 C 0.68481 0.92116 0.51419 0.0
C3229 C 0.6774 0.9002 0.50841 0.0
C3230 C 0.68546 0.8915 0.49515 0.0
C3231 C 0.67841 0.87175 0.48975 0.0
C3232 C 0.66324 0.86056 0.49742 0.0
C3233 C 0.65505 0.86912 0.51049 0.0
C3234 C 0.66205 0.88887 0.51595 0.0
C3235 C 0.65896 0.99181 0.50316 0.0
C3236 C 0.64352 0.98786 0.51299 0.0
C3237 C 0.67046 0.98017 0.50399 0.0
C3238 C 0.66694 0.96454 0.5149 0.0
C3239 C 0.65134 0.96027 0.52438 0.0
C3240 C 0.63974 0.9718 0.52343 0.0
C3241 C 0.67974 0.95293 0.51685 0.0
C3242 C 0.67325 0.93283 0.51277 0.0
C3243 C 0.69827 0.96159 0.52253 0.0
C3244 C 0.70593 0.9827 0.52731 0.0
C3245 C 0.69893 0.9921 0.54096 0.0
C3246 C 0.70596 0.0121 0.54505 0.0
C3247 C 0.72009 0.0228 0.53567 0.0
C3248 C 0.72727 0.01352 0.52223 0.0
C3249 C 0.72027 0.99353 0.51808 0.0
H3250 H 0.72551 0.03829 0.53885 0.0
H3251 H 0.6578 0.84527 0.49321 0.0
H3252 H 0.36805 0.48204 0.73858 0.0
H3253 H 0.35607 0.44839 0.74485 0.0
H3254 H 0.37715 0.43021 0.69647 0.0
H3255 H 0.38937 0.46414 0.68998 0.0
H3256 H 0.34184 0.40663 0.70288 0.0
H3257 H 0.40046 0.43015 0.73299 0.0
H3258 H 0.42617 0.45356 0.7512 0.0
H3259 H 0.39498 0.44913 0.79755 0.0
H3260 H 0.36894 0.42593 0.77953 0.0
H3261 H 0.32224 0.3159 0.745 0.0
H3262 H 0.34297 0.34441 0.73355 0.0
H3263 H 0.31971 0.38152 0.76547 0.0
H3264 H 0.29867 0.353 0.77657 0.0
H3265 H 0.36242 0.39175 0.76383 0.0
H3266 H 0.3023 0.37641 0.72891 0.0
H3267 H 0.27668 0.35275 0.71073 0.0
H3268 H 0.31293 0.34077 0.67323 0.0
H3269 H 0.3388 0.36423 0.69139 0.0
C3270 C 0.36994 0.47093 0.72907 0.0
C3271 C 0.37985 0.47575 0.7139 0.0
C3272 C 0.36316 0.45173 0.73274 0.0
C3273 C 0.36616 0.43699 0.72134 0.0
C3274 C 0.37493 0.44152 0.70549 0.0
C3275 C 0.38181 0.46085 0.70179 0.0
C3276 C 0.36056 0.41705 0.7267 0.0
C3277 C 0.34669 0.40318 0.71596 0.0
C3278 C 0.36698 0.41264 0.74376 0.0
C3279 C 0.38268 0.42636 0.75484 0.0
C3280 C 0.39902 0.43425 0.74703 0.0
C3281 C 0.41367 0.44748 0.75733 0.0
C3282 C 0.41219 0.45287 0.77551 0.0
C3283 C 0.39609 0.44495 0.78345 0.0
C3284 C 0.38139 0.43173 0.77321 0.0
C3285 C 0.32195 0.3302 0.74989 0.0
C3286 C 0.30918 0.33251 0.76178 0.0
C3287 C 0.33368 0.34636 0.74333 0.0
C3288 C 0.33284 0.3649 0.74885 0.0
C3289 C 0.32057 0.36723 0.76128 0.0
C3290 C 0.30857 0.35106 0.76751 0.0
C3291 C 0.34335 0.38182 0.74032 0.0
C3292 C 0.35808 0.39506 0.75049 0.0
C3293 C 0.33794 0.38557 0.72268 0.0
C3294 C 0.32244 0.37187 0.71156 0.0
C3295 C 0.30479 0.36863 0.71685 0.0
C3296 C 0.29024 0.35528 0.70655 0.0
C3297 C 0.29318 0.34522 0.69086 0.0
C3298 C 0.31068 0.34855 0.6854 0.0
C3299 C 0.32528 0.36187 0.69568 0.0
H3300 H 0.2819 0.33487 0.68291 0.0
H3301 H 0.42351 0.46316 0.78345 0.0
H3302 H 0.20963 0.5567 0.22022 0.0
H3303 H 0.22951 0.58959 0.22857 0.0
H3304 H 0.18426 0.60626 0.24784 0.0
H3305 H 0.16423 0.57392 0.23805 0.0
H3306 H 0.2036 0.6346 0.23416 0.0
H3307 H 0.21697 0.59262 0.27676 0.0
H3308 H 0.22513 0.56409 0.2865 0.0
H3309 H 0.27594 0.58351 0.2631 0.0
H3310 H 0.26796 0.61204 0.25303 0.0
H3311 H 0.25149 0.71502 0.29127 0.0
H3312 H 0.23637 0.68038 0.28567 0.0
H3313 H 0.27599 0.67501 0.24893 0.0
H3314 H 0.29131 0.70971 0.25439 0.0
H3315 H 0.2606 0.64142 0.27222 0.0
H3316 H 0.24363 0.68378 0.22899 0.0
H3317 H 0.23488 0.71334 0.22409 0.0
H3318 H 0.18883 0.69292 0.25472 0.0
H3319 H 0.19748 0.66336 0.25998 0.0
C3320 C 0.20399 0.5676 0.2259 0.0
C3321 C 0.18555 0.56301 0.22855 0.0
C3322 C 0.21532 0.58626 0.23086 0.0
C3323 C 0.20848 0.60023 0.23936 0.0
C3324 C 0.18987 0.59574 0.24136 0.0
C3325 C 0.17844 0.5773 0.23578 0.0
C3326 C 0.22071 0.61934 0.24667 0.0
C3327 C 0.21594 0.63595 0.2426 0.0
C3328 C 0.23687 0.62128 0.25773 0.0
C3329 C 0.24181 0.60434 0.26402 0.0
C3330 C 0.22984 0.59074 0.27363 0.0
C3331 C 0.23444 0.57458 0.27921 0.0
C3332 C 0.25102 0.57197 0.27538 0.0
C3333 C 0.26308 0.58555 0.26604 0.0
C3334 C 0.25855 0.60172 0.26041 0.0
C3335 C 0.25723 0.70643 0.28228 0.0
C3336 C 0.27226 0.71511 0.27285 0.0
C3337 C 0.24867 0.68665 0.27926 0.0
C3338 C 0.25503 0.6754 0.26676 0.0
C3339 C 0.271 0.68362 0.25865 0.0
C3340 C 0.27961 0.70343 0.26168 0.0
C3341 C 0.2433 0.65622 0.25967 0.0
C3342 C 0.24821 0.63979 0.26374 0.0
C3343 C 0.227 0.65434 0.24907 0.0
C3344 C 0.22119 0.67144 0.24488 0.0
C3345 C 0.23162 0.68561 0.23464 0.0
C3346 C 0.22671 0.70237 0.23183 0.0
C3347 C 0.21131 0.70502 0.2391 0.0
C3348 C 0.20074 0.69085 0.24909 0.0
C3349 C 0.20561 0.67408 0.25195 0.0
H3350 H 0.20757 0.71804 0.23699 0.0
H3351 H 0.25455 0.55943 0.2797 0.0
H3352 H 0.53017 0.72618 0.47685 0.0
H3353 H 0.5296 0.69437 0.48641 0.0
H3354 H 0.4905 0.66699 0.44141 0.0
H3355 H 0.4908 0.69883 0.43186 0.0
H3356 H 0.48234 0.64846 0.47201 0.0
H3357 H 0.5346 0.67026 0.43894 0.0
H3358 H 0.56308 0.69317 0.43146 0.0
H3359 H 0.58754 0.69126 0.48482 0.0
H3360 H 0.5591 0.66857 0.49271 0.0
H3361 H 0.49559 0.55492 0.48034 0.0
H3362 H 0.49189 0.58502 0.46952 0.0
H3363 H 0.53581 0.61818 0.50808 0.0
H3364 H 0.54018 0.58829 0.51794 0.0
H3365 H 0.54055 0.63302 0.47831 0.0
H3366 H 0.48732 0.61193 0.51182 0.0
H3367 H 0.45907 0.58781 0.51832 0.0
H3368 H 0.43655 0.58786 0.46375 0.0
H3369 H 0.46472 0.61176 0.45686 0.0
C3370 C 0.52133 0.71342 0.46904 0.0
C3371 C 0.51061 0.71511 0.45351 0.0
C3372 C 0.52107 0.69521 0.47449 0.0
C3373 C 0.51019 0.67824 0.46449 0.0
C3374 C 0.49902 0.67985 0.44933 0.0
C3375 C 0.49926 0.69809 0.44386 0.0
C3376 C 0.51098 0.65889 0.46952 0.0
C3377 C 0.49504 0.64501 0.47325 0.0
C3378 C 0.52753 0.65435 0.47124 0.0
C3379 C 0.54468 0.66785 0.46646 0.0
C3380 C 0.54602 0.67483 0.44912 0.0
C3381 C 0.56215 0.68777 0.4448 0.0
C3382 C 0.5771 0.6937 0.45767 0.0
C3383 C 0.57595 0.68667 0.47487 0.0
C3384 C 0.55983 0.67377 0.47927 0.0
C3385 C 0.50426 0.56868 0.48659 0.0
C3386 C 0.51815 0.56931 0.49996 0.0
C3387 C 0.50213 0.58592 0.48046 0.0
C3388 C 0.51347 0.60406 0.48806 0.0
C3389 C 0.52695 0.6045 0.50184 0.0
C3390 C 0.52938 0.58738 0.50757 0.0
C3391 C 0.51197 0.62267 0.48144 0.0
C3392 C 0.52782 0.63643 0.47724 0.0
C3393 C 0.49534 0.62707 0.47933 0.0
C3394 C 0.47815 0.61347 0.48378 0.0
C3395 C 0.47633 0.60677 0.50122 0.0
C3396 C 0.46036 0.59314 0.50496 0.0
C3397 C 0.4461 0.58625 0.49141 0.0
C3398 C 0.44765 0.59317 0.47419 0.0
C3399 C 0.46359 0.60677 0.47037 0.0
H3400 H 0.43387 0.5755 0.4942 0.0
H3401 H 0.58958 0.70371 0.4543 0.0
H3402 H 0.62418 0.31237 0.67026 0.0
H3403 H 0.65165 0.31273 0.68873 0.0
H3404 H 0.64705 0.25517 0.66547 0.0
H3405 H 0.61914 0.25439 0.64788 0.0
H3406 H 0.65593 0.25617 0.69877 0.0
H3407 H 0.67893 0.29948 0.65341 0.0
H3408 H 0.68161 0.3277 0.6356 0.0
H3409 H 0.69761 0.36579 0.68456 0.0
H3410 H 0.6948 0.33776 0.70269 0.0
H3411 H 0.74676 0.25627 0.72232 0.0
H3412 H 0.71965 0.25804 0.70439 0.0
H3413 H 0.71742 0.30622 0.74048 0.0
H3414 H 0.74427 0.30436 0.75866 0.0
H3415 H 0.71244 0.31076 0.70173 0.0
H3416 H 0.69014 0.26617 0.74648 0.0
H3417 H 0.68876 0.23743 0.76316 0.0
H3418 H 0.67251 0.20091 0.71327 0.0
H3419 H 0.67412 0.2295 0.69624 0.0
C3420 C 0.62909 0.29984 0.66908 0.0
C3421 C 0.61951 0.28335 0.65763 0.0
C3422 C 0.64488 0.30008 0.67957 0.0
C3423 C 0.6517 0.28408 0.67835 0.0
C3424 C 0.64213 0.26769 0.66677 0.0
C3425 C 0.62617 0.26728 0.65665 0.0
C3426 C 0.66856 0.2841 0.68933 0.0
C3427 C 0.66832 0.26804 0.69915 0.0
C3428 C 0.68474 0.2997 0.69028 0.0
C3429 C 0.68648 0.31653 0.67941 0.0
C3430 C 0.6829 0.31387 0.66038 0.0
C3431 C 0.68446 0.32983 0.65023 0.0
C3432 C 0.68973 0.34852 0.65895 0.0
C3433 C 0.69351 0.3513 0.67783 0.0
C3434 C 0.69195 0.33539 0.68804 0.0
C3435 C 0.74054 0.26729 0.7264 0.0
C3436 C 0.7476 0.28011 0.74197 0.0
C3437 C 0.72506 0.26826 0.71616 0.0
C3438 C 0.71653 0.28222 0.72117 0.0
C3439 C 0.72382 0.29535 0.7364 0.0
C3440 C 0.7391 0.29419 0.74682 0.0
C3441 C 0.69972 0.28279 0.71078 0.0
C3442 C 0.7 0.29895 0.70121 0.0
C3443 C 0.68365 0.26719 0.70982 0.0
C3444 C 0.68244 0.24999 0.72007 0.0
C3445 C 0.68643 0.25203 0.73905 0.0
C3446 C 0.68558 0.23577 0.74857 0.0
C3447 C 0.68061 0.21736 0.73928 0.0
C3448 C 0.6764 0.21518 0.72045 0.0
C3449 C 0.67727 0.23141 0.71085 0.0
H3450 H 0.67997 0.20479 0.74667 0.0
H3451 H 0.69093 0.36086 0.65107 0.0
H3452 H 0.97678 0.31106 0.95095 0.0
H3453 H 0.98396 0.34496 0.96231 0.0
H3454 H 0.04087 0.35137 0.96074 0.0
H3455 H 0.03379 0.3172 0.94948 0.0
H3456 H 0.03407 0.37063 0.99125 0.0
H3457 H 0.01862 0.36673 0.92704 0.0
H3458 H 0.99975 0.35425 0.89826 0.0
H3459 H 0.9565 0.37269 0.91921 0.0
H3460 H 0.97503 0.38501 0.94823 0.0
H3461 H 0.06168 0.47294 0.99805 0.0
H3462 H 0.05606 0.4393 0.98654 0.0
H3463 H 0.99857 0.43035 0.98589 0.0
H3464 H 1.00401 0.46419 0.99711 0.0
H3465 H 1.00664 0.4126 0.95593 0.0
H3466 H 0.02162 0.41579 0.0202 0.0
H3467 H 0.04051 0.4291 0.04871 0.0
H3468 H 0.08455 0.41217 0.02775 0.0
H3469 H 0.06598 0.39911 0.99886 0.0
C3470 C 0.99086 0.31957 0.95316 0.0
C3471 C 1.00471 0.3114 0.94916 0.0
C3472 C 0.99493 0.33902 0.95959 0.0
C3473 C 0.01294 0.35083 0.96206 0.0
C3474 C 0.02687 0.34256 0.95885 0.0
C3475 C 0.0228 0.32302 0.95241 0.0
C3476 C 0.01707 0.37189 0.96745 0.0
C3477 C 0.02829 0.37986 0.98338 0.0
C3478 C 0.00927 0.38391 0.95737 0.0
C3479 C 0.99816 0.37665 0.93987 0.0
C3480 C 1.00504 0.368 0.92556 0.0
C3481 C 0.99441 0.36097 0.9092 0.0
C3482 C 0.97692 0.36264 0.90692 0.0
C3483 C 0.97005 0.37139 0.921 0.0
C3484 C 0.98061 0.37841 0.9374 0.0
C3485 C 0.0478 0.46391 0.99543 0.0
C3486 C 0.03329 0.47134 0.99869 0.0
C3487 C 0.04463 0.4446 0.98887 0.0
C3488 C 0.0269 0.43218 0.9856 0.0
C3489 C 0.01237 0.43964 0.98835 0.0
C3490 C 0.01552 0.45901 0.99484 0.0
C3491 C 0.02352 0.4113 0.97979 0.0
C3492 C 0.01246 0.40338 0.96377 0.0
C3493 C 0.03145 0.39933 0.98979 0.0
C3494 C 0.04246 0.40661 0.00732 0.0
C3495 C 0.03536 0.41498 0.02163 0.0
C3496 C 0.04602 0.42248 0.03787 0.0
C3497 C 0.06374 0.42149 0.04008 0.0
C3498 C 0.07082 0.41294 0.02603 0.0
C3499 C 0.06023 0.40548 0.00971 0.0
H3500 H 0.07198 0.42733 0.05267 0.0
H3501 H 0.96871 0.35718 0.89425 0.0
H3502 H 1.00125 0.75615 0.13486 0.0
H3503 H 0.9757 0.75551 0.1527 0.0
H3504 H 0.00976 0.80244 0.18938 0.0
H3505 H 0.03557 0.80285 0.17181 0.0
H3506 H 0.98838 0.77586 0.20788 0.0
H3507 H 0.97979 0.80963 0.15542 0.0
H3508 H 0.97673 0.8135 0.12257 0.0
H3509 H 0.93022 0.76325 0.1154 0.0
H3510 H 0.93315 0.75894 0.14819 0.0
H3511 H 0.92081 0.80569 0.25028 0.0
H3512 H 0.94586 0.80419 0.23246 0.0
H3513 H 0.90998 0.75726 0.1971 0.0
H3514 H 0.88464 0.75913 0.21452 0.0
H3515 H 0.93178 0.78259 0.17771 0.0
H3516 H 0.93942 0.74893 0.22964 0.0
H3517 H 0.9423 0.744 0.26226 0.0
H3518 H 0.99023 0.79263 0.27025 0.0
H3519 H 0.98748 0.79804 0.2377 0.0
C3520 C 1.00335 0.76632 0.14674 0.0
C3521 C 0.02044 0.77964 0.15183 0.0
C3522 C 0.98868 0.76599 0.1569 0.0
C3523 C 0.99071 0.77915 0.17222 0.0
C3524 C 0.00785 0.79218 0.17758 0.0
C3525 C 0.02259 0.79242 0.1675 0.0
C3526 C 0.97494 0.77948 0.18254 0.0
C3527 C 0.9761 0.7776 0.20133 0.0
C3528 C 0.95868 0.78114 0.1739 0.0
C3529 C 0.95678 0.78388 0.15423 0.0
C3530 C 0.96897 0.79935 0.14682 0.0
C3531 C 0.96726 0.80162 0.12821 0.0
C3532 C 0.95332 0.7886 0.1169 0.0
C3533 C 0.94103 0.77331 0.12418 0.0
C3534 C 0.94269 0.77096 0.14277 0.0
C3535 C 0.91816 0.79518 0.23859 0.0
C3536 C 0.90068 0.78252 0.23385 0.0
C3537 C 0.93257 0.7942 0.22853 0.0
C3538 C 0.92987 0.78043 0.21357 0.0
C3539 C 0.91241 0.76794 0.20863 0.0
C3540 C 0.89796 0.76892 0.21869 0.0
C3541 C 0.94529 0.77917 0.20309 0.0
C3542 C 0.94405 0.78084 0.18427 0.0
C3543 C 0.96144 0.7772 0.21167 0.0
C3544 C 0.96315 0.77399 0.23126 0.0
C3545 C 0.95049 0.75867 0.23838 0.0
C3546 C 0.95211 0.75577 0.25685 0.0
C3547 C 0.96642 0.76802 0.26833 0.0
C3548 C 0.97915 0.78317 0.26134 0.0
C3549 C 0.97757 0.78615 0.24288 0.0
H3550 H 0.96766 0.76574 0.28263 0.0
H3551 H 0.95202 0.79039 0.10249 0.0
H3552 H 0.57523 0.35176 0.13177 0.0
H3553 H 0.57338 0.37873 0.11459 0.0
H3554 H 0.51563 0.36176 0.11709 0.0
H3555 H 0.51744 0.33371 0.13368 0.0
H3556 H 0.51976 0.37697 0.08746 0.0
H3557 H 0.55094 0.40452 0.14436 0.0
H3558 H 0.57379 0.41095 0.17056 0.0
H3559 H 0.61608 0.43158 0.13547 0.0
H3560 H 0.59349 0.42504 0.109 0.0
H3561 H 0.51907 0.47592 0.06857 0.0
H3562 H 0.5187 0.44693 0.08443 0.0
H3563 H 0.56755 0.44479 0.0611 0.0
H3564 H 0.56754 0.47329 0.04456 0.0
H3565 H 0.56681 0.44006 0.1019 0.0
H3566 H 0.53205 0.41375 0.04504 0.0
H3567 H 0.50701 0.40927 0.02138 0.0
H3568 H 0.46852 0.38808 0.0601 0.0
H3569 H 0.49331 0.39314 0.08418 0.0
C3570 C 0.56199 0.35351 0.12868 0.0
C3571 C 0.54653 0.34007 0.13447 0.0
C3572 C 0.56096 0.36944 0.11888 0.0
C3573 C 0.54442 0.37346 0.11469 0.0
C3574 C 0.52876 0.35969 0.11998 0.0
C3575 C 0.52977 0.34337 0.12958 0.0
C3576 C 0.54374 0.39173 0.10491 0.0
C3577 C 0.53002 0.39073 0.09097 0.0
C3578 C 0.55691 0.41029 0.10887 0.0
C3579 C 0.57054 0.41409 0.12468 0.0
C3580 C 0.56512 0.41029 0.14221 0.0
C3581 C 0.57802 0.41397 0.15711 0.0
C3582 C 0.59638 0.42161 0.15467 0.0
C3583 C 0.60186 0.42562 0.13733 0.0
C3584 C 0.58902 0.42194 0.12238 0.0
C3585 C 0.5298 0.46936 0.06671 0.0
C3586 C 0.54338 0.47741 0.05504 0.0
C3587 C 0.52953 0.45254 0.07587 0.0
C3588 C 0.54311 0.44318 0.07428 0.0
C3589 C 0.55683 0.45137 0.06286 0.0
C3590 C 0.5568 0.46785 0.05325 0.0
C3591 C 0.54306 0.42511 0.08444 0.0
C3592 C 0.55662 0.42623 0.09847 0.0
C3593 C 0.52945 0.40689 0.08093 0.0
C3594 C 0.51456 0.40411 0.0665 0.0
C3595 C 0.51825 0.40846 0.0486 0.0
C3596 C 0.50409 0.4058 0.0351 0.0
C3597 C 0.48617 0.39853 0.03926 0.0
C3598 C 0.4824 0.39383 0.05692 0.0
C3599 C 0.4965 0.39666 0.07052 0.0
H3600 H 0.47522 0.39643 0.02878 0.0
H3601 H 0.60635 0.42447 0.16623 0.0
H3602 H 0.99635 0.28735 0.34739 0.0
H3603 H 0.96777 0.28974 0.33229 0.0
H3604 H 0.93834 0.23797 0.35537 0.0
H3605 H 0.96649 0.2357 0.37043 0.0
H3606 H 0.92399 0.23641 0.32119 0.0
H3607 H 0.93926 0.28626 0.37148 0.0
H3608 H 0.95879 0.31593 0.38888 0.0
H3609 H 0.95764 0.34793 0.34208 0.0
H3610 H 0.93829 0.31839 0.32433 0.0
H3611 H 0.83275 0.23854 0.30257 0.0
H3612 H 0.86226 0.23775 0.31573 0.0
H3613 H 0.88614 0.29624 0.30239 0.0
H3614 H 0.85638 0.29737 0.29022 0.0
H3615 H 0.90452 0.29539 0.33028 0.0
H3616 H 0.89238 0.24916 0.2791 0.0
H3617 H 0.87462 0.22096 0.25857 0.0
H3618 H 0.87216 0.18433 0.30236 0.0
H3619 H 0.88996 0.21218 0.32307 0.0
C3620 C 0.98386 0.27632 0.34912 0.0
C3621 C 0.98423 0.26123 0.36031 0.0
C3622 C 0.96726 0.27779 0.34053 0.0
C3623 C 0.95025 0.26414 0.34254 0.0
C3624 C 0.95082 0.24886 0.35328 0.0
C3625 C 0.96722 0.24757 0.36203 0.0
C3626 C 0.93193 0.26549 0.33384 0.0
C3627 C 0.9198 0.24934 0.32344 0.0
C3628 C 0.92601 0.28235 0.33581 0.0
C3629 C 0.93747 0.3001 0.34654 0.0
C3630 C 0.94327 0.2996 0.36487 0.0
C3631 C 0.9543 0.3164 0.3748 0.0
C3632 C 0.95949 0.33379 0.36658 0.0
C3633 C 0.95363 0.33444 0.34843 0.0
C3634 C 0.94262 0.31769 0.33843 0.0
C3635 C 0.84423 0.25128 0.30231 0.0
C3636 C 0.84167 0.26797 0.29499 0.0
C3637 C 0.8615 0.25078 0.3098 0.0
C3638 C 0.87737 0.26677 0.30997 0.0
C3639 C 0.8747 0.28349 0.30273 0.0
C3640 C 0.85738 0.2841 0.29554 0.0
C3641 C 0.8964 0.26618 0.31768 0.0
C3642 C 0.90866 0.28245 0.32793 0.0
C3643 C 0.90273 0.24964 0.3151 0.0
C3644 C 0.89238 0.23275 0.30264 0.0
C3645 C 0.88804 0.23505 0.28432 0.0
C3646 C 0.87799 0.21912 0.27264 0.0
C3647 C 0.87229 0.20081 0.27913 0.0
C3648 C 0.87667 0.19842 0.29729 0.0
C3649 C 0.88678 0.21427 0.309 0.0
H3650 H 0.86448 0.18851 0.27007 0.0
H3651 H 0.96804 0.34677 0.37429 0.0
H3652 H 0.01116 0.71455 0.63185 0.0
H3653 H 0.00904 0.6834 0.61466 0.0
H3654 H 0.06706 0.69976 0.61533 0.0
H3655 H 0.0692 0.73031 0.63231 0.0
H3656 H 0.05393 0.68305 0.58279 0.0
H3657 H 0.04046 0.66533 0.64347 0.0
H3658 H 0.02309 0.66176 0.67052 0.0
H3659 H 0.97548 0.62758 0.63774 0.0
H3660 H 0.99251 0.63116 0.61046 0.0
H3661 H 0.06793 0.59407 0.55024 0.0
H3662 H 0.06747 0.62385 0.56733 0.0
H3663 H 0.01191 0.59715 0.57735 0.0
H3664 H 0.01317 0.56667 0.56182 0.0
H3665 H 0.02184 0.61948 0.60364 0.0
H3666 H 0.03298 0.63717 0.54304 0.0
H3667 H 0.04865 0.64071 0.51485 0.0
H3668 H 0.09767 0.67534 0.54513 0.0
H3669 H 0.08235 0.67183 0.57352 0.0
C3670 C 0.02347 0.71164 0.62819 0.0
C3671 C 0.04038 0.72546 0.63369 0.0
C3672 C 0.02228 0.69354 0.61841 0.0
C3673 C 0.03792 0.68858 0.61353 0.0
C3674 C 0.05464 0.70266 0.61865 0.0
C3675 C 0.05584 0.72042 0.62854 0.0
C3676 C 0.03734 0.66916 0.60314 0.0
C3677 C 0.04697 0.6692 0.58754 0.0
C3678 C 0.02794 0.65061 0.60853 0.0
C3679 C 0.0177 0.64872 0.62489 0.0
C3680 C 0.02624 0.65722 0.642 0.0
C3681 C 0.01647 0.65516 0.65739 0.0
C3682 C 0.99818 0.6445 0.65584 0.0
C3683 C 0.98963 0.63587 0.63892 0.0
C3684 C 0.99934 0.63791 0.62349 0.0
C3685 C 0.05558 0.59447 0.5561 0.0
C3686 C 0.04058 0.57764 0.55436 0.0
C3687 C 0.05516 0.6119 0.56579 0.0
C3688 C 0.03937 0.61386 0.57342 0.0
C3689 C 0.02442 0.59682 0.57181 0.0
C3690 C 0.02509 0.57912 0.56274 0.0
C3691 C 0.03849 0.63323 0.58312 0.0
C3692 C 0.02867 0.63324 0.59867 0.0
C3693 C 0.04737 0.65189 0.57743 0.0
C3694 C 0.05656 0.65409 0.5604 0.0
C3695 C 0.04712 0.64547 0.54368 0.0
C3696 C 0.05594 0.64747 0.52767 0.0
C3697 C 0.07415 0.6582 0.52821 0.0
C3698 C 0.08357 0.66701 0.54474 0.0
C3699 C 0.07483 0.66504 0.56078 0.0
H3700 H 0.08096 0.65972 0.51581 0.0
H3701 H 0.99065 0.64287 0.66777 0.0
H3702 H 0.6209 0.79917 0.88101 0.0
H3703 H 0.64773 0.79932 0.86572 0.0
H3704 H 0.61506 0.75737 0.82409 0.0
H3705 H 0.58765 0.75704 0.83974 0.0
H3706 H 0.64558 0.74803 0.83011 0.0
H3707 H 0.63846 0.80934 0.81715 0.0
H3708 H 0.63455 0.84167 0.82329 0.0
H3709 H 0.68303 0.85885 0.8595 0.0
H3710 H 0.68712 0.82654 0.8537 0.0
H3711 H 0.72218 0.75481 0.7775 0.0
H3712 H 0.69352 0.75465 0.7894 0.0
H3713 H 0.72108 0.80482 0.82583 0.0
H3714 H 0.74958 0.80588 0.8126 0.0
H3715 H 0.69213 0.80948 0.82196 0.0
H3716 H 0.69897 0.74796 0.83536 0.0
H3717 H 0.70338 0.71593 0.82866 0.0
H3718 H 0.65554 0.69905 0.79153 0.0
H3719 H 0.65096 0.73105 0.79789 0.0
C3720 C 0.61906 0.78996 0.8685 0.0
C3721 C 0.60141 0.77818 0.86192 0.0
C3722 C 0.63481 0.79019 0.85951 0.0
C3723 C 0.63417 0.77864 0.84318 0.0
C3724 C 0.61656 0.76667 0.83649 0.0
C3725 C 0.6006 0.76655 0.84551 0.0
C3726 C 0.65178 0.77896 0.83374 0.0
C3727 C 0.6555 0.7616 0.82807 0.0
C3728 C 0.66567 0.79633 0.83118 0.0
C3729 C 0.66298 0.8155 0.83514 0.0
C3730 C 0.64818 0.81996 0.82656 0.0
C3731 C 0.64596 0.83829 0.82994 0.0
C3732 C 0.65851 0.85229 0.84181 0.0
C3733 C 0.67329 0.84798 0.85035 0.0
C3734 C 0.67557 0.82967 0.84702 0.0
C3735 C 0.72228 0.76592 0.78803 0.0
C3736 C 0.73877 0.78033 0.79386 0.0
C3737 C 0.70555 0.76564 0.79526 0.0
C3738 C 0.70427 0.77922 0.80949 0.0
C3739 C 0.72083 0.79383 0.81513 0.0
C3740 C 0.73749 0.79446 0.80746 0.0
C3741 C 0.68605 0.77854 0.81808 0.0
C3742 C 0.68222 0.79587 0.82376 0.0
C3743 C 0.67211 0.76113 0.82069 0.0
C3744 C 0.67474 0.74191 0.81696 0.0
C3745 C 0.68945 0.73742 0.82572 0.0
C3746 C 0.69197 0.71928 0.82198 0.0
C3747 C 0.67978 0.70548 0.80964 0.0
C3748 C 0.66499 0.70976 0.80106 0.0
C3749 C 0.66241 0.72788 0.80474 0.0
H3750 H 0.68177 0.69145 0.80676 0.0
H3751 H 0.65679 0.86649 0.84437 0.0
H3752 H 0.43929 0.54944 0.68124 0.0
H3753 H 0.45739 0.54966 0.65551 0.0
H3754 H 0.48108 0.50897 0.67954 0.0
H3755 H 0.463 0.50867 0.70559 0.0
H3756 H 0.5061 0.53916 0.66431 0.0
H3757 H 0.45003 0.49132 0.64774 0.0
H3758 H 0.41697 0.47671 0.64349 0.0
H3759 H 0.41281 0.51893 0.60652 0.0
H3760 H 0.44583 0.53401 0.6108 0.0
H3761 H 0.51736 0.50084 0.57087 0.0
H3762 H 0.50918 0.50321 0.60222 0.0
H3763 H 0.50628 0.56108 0.59609 0.0
H3764 H 0.51523 0.55908 0.56488 0.0
H3765 H 0.47259 0.52044 0.60328 0.0
H3766 H 0.53067 0.56902 0.62286 0.0
H3767 H 0.56399 0.58025 0.62668 0.0
H3768 H 0.56429 0.53199 0.65746 0.0
H3769 H 0.53094 0.52028 0.6535 0.0
C3770 C 0.44842 0.54061 0.68116 0.0
C3771 C 0.44965 0.52889 0.69531 0.0
C3772 C 0.45871 0.54076 0.66646 0.0
C3773 C 0.47029 0.52915 0.66567 0.0
C3774 C 0.47211 0.51796 0.68003 0.0
C3775 C 0.46176 0.51777 0.6948 0.0
C3776 C 0.47989 0.52833 0.64937 0.0
C3777 C 0.49883 0.53488 0.65097 0.0
C3778 C 0.47028 0.52267 0.63208 0.0
C3779 C 0.45037 0.51393 0.62976 0.0
C3780 C 0.44204 0.49764 0.63888 0.0
C3781 C 0.42331 0.48924 0.63643 0.0
C3782 C 0.41279 0.49692 0.62478 0.0
C3783 C 0.42097 0.51302 0.61556 0.0
C3784 C 0.43969 0.5215 0.618 0.0
C3785 C 0.51524 0.51415 0.57638 0.0
C3786 C 0.51656 0.5297 0.56565 0.0
C3787 C 0.51088 0.51558 0.59425 0.0
C3788 C 0.50754 0.53243 0.60135 0.0
C3789 C 0.50932 0.54819 0.59081 0.0
C3790 C 0.51418 0.54697 0.57306 0.0
C3791 C 0.49868 0.53194 0.61819 0.0
C3792 C 0.47984 0.52482 0.61665 0.0
C3793 C 0.5084 0.53672 0.63544 0.0
C3794 C 0.52837 0.54361 0.6376 0.0
C3795 C 0.53786 0.56063 0.63017 0.0
C3796 C 0.55674 0.56713 0.63244 0.0
C3797 C 0.56626 0.55679 0.64223 0.0
C3798 C 0.5569 0.53995 0.64982 0.0
C3799 C 0.53802 0.53338 0.64757 0.0
H3800 H 0.58088 0.56186 0.644 0.0
H3801 H 0.39829 0.49037 0.62287 0.0
H3802 H 0.75091 0.16574 0.01517 0.0
H3803 H 0.74462 0.17777 0.98609 0.0
H3804 H 0.77314 0.1422 0.95935 0.0
H3805 H 0.78048 0.13124 0.98866 0.0
H3806 H 0.78458 0.17578 0.94965 0.0
H3807 H 0.72516 0.13393 0.95355 0.0
H3808 H 0.69738 0.12005 0.96859 0.0
H3809 H 0.68732 0.17534 0.97215 0.0
H3810 H 0.71525 0.18966 0.95748 0.0
H3811 H 0.76272 0.20167 0.86197 0.0
H3812 H 0.76235 0.18202 0.88771 0.0
H3813 H 0.74515 0.22307 0.9213 0.0
H3814 H 0.74607 0.24319 0.89586 0.0
H3815 H 0.72632 0.18391 0.92553 0.0
H3816 H 0.78838 0.22574 0.92798 0.0
H3817 H 0.81858 0.24043 0.91774 0.0
H3818 H 0.82321 0.18394 0.90273 0.0
H3819 H 0.79312 0.16894 0.91326 0.0
C3820 C 0.7556 0.16034 0.003 0.0
C3821 C 0.76626 0.14772 0.00405 0.0
C3822 C 0.75188 0.16708 0.98636 0.0
C3823 C 0.75822 0.16072 0.97044 0.0
C3824 C 0.76816 0.14737 0.97144 0.0
C3825 C 0.77234 0.1411 0.98814 0.0
C3826 C 0.75611 0.16941 0.95312 0.0
C3827 C 0.77169 0.17703 0.94416 0.0
C3828 C 0.73944 0.1716 0.94618 0.0
C3829 C 0.72234 0.16289 0.95448 0.0
C3830 C 0.71706 0.14315 0.9576 0.0
C3831 C 0.70129 0.13521 0.96608 0.0
C3832 C 0.69059 0.14681 0.97133 0.0
C3833 C 0.69562 0.16637 0.96807 0.0
C3834 C 0.71141 0.17441 0.95966 0.0
C3835 C 0.75894 0.20659 0.87485 0.0
C3836 C 0.75457 0.22411 0.87688 0.0
C3837 C 0.75863 0.19529 0.88949 0.0
C3838 C 0.75381 0.20119 0.90637 0.0
C3839 C 0.74881 0.21826 0.90831 0.0
C3840 C 0.74928 0.22968 0.89373 0.0
C3841 C 0.75477 0.19005 0.92224 0.0
C3842 C 0.73903 0.18211 0.9309 0.0
C3843 C 0.77123 0.18734 0.9289 0.0
C3844 C 0.7885 0.19627 0.92117 0.0
C3845 C 0.79575 0.21649 0.92225 0.0
C3846 C 0.81289 0.22486 0.91651 0.0
C3847 C 0.8228 0.21313 0.90952 0.0
C3848 C 0.81553 0.19301 0.90814 0.0
C3849 C 0.79848 0.18456 0.91406 0.0
H3850 H 0.83616 0.2196 0.90527 0.0
H3851 H 0.6784 0.14064 0.97791 0.0
H3852 H 0.13658 0.51122 0.1837 0.0
H3853 H 0.11631 0.51772 0.16018 0.0
H3854 H 0.07024 0.48354 0.18525 0.0
H3855 H 0.09053 0.47694 0.20915 0.0
H3856 H 0.07082 0.47403 0.1477 0.0
H3857 H 0.07776 0.53085 0.18829 0.0
H3858 H 0.09462 0.56016 0.20788 0.0
H3859 H 0.12185 0.58473 0.16233 0.0
H3860 H 0.10534 0.55547 0.14251 0.0
H3861 H 0.01496 0.4983 0.0785 0.0
H3862 H 0.02706 0.49438 0.1092 0.0
H3863 H 0.07954 0.53146 0.09891 0.0
H3864 H 0.06759 0.53579 0.06895 0.0
H3865 H 0.07119 0.5398 0.13229 0.0
H3866 H 0.07229 0.48452 0.09406 0.0
H3867 H 0.06037 0.45536 0.07271 0.0
H3868 H 0.02366 0.42857 0.11113 0.0
H3869 H 0.03528 0.4577 0.13266 0.0
C3870 C 0.12215 0.50501 0.18427 0.0
C3871 C 0.11512 0.49344 0.19822 0.0
C3872 C 0.11061 0.50896 0.17094 0.0
C3873 C 0.09188 0.50139 0.17129 0.0
C3874 C 0.08473 0.48965 0.185 0.0
C3875 C 0.0963 0.4858 0.19851 0.0
C3876 C 0.07999 0.50449 0.15632 0.0
C3877 C 0.0704 0.48835 0.14458 0.0
C3878 C 0.08029 0.5233 0.15199 0.0
C3879 C 0.09036 0.54089 0.16394 0.0
C3880 C 0.08745 0.54243 0.18248 0.0
C3881 C 0.09693 0.55906 0.19362 0.0
C3882 C 0.10932 0.57429 0.18636 0.0
C3883 C 0.11225 0.57292 0.16794 0.0
C3884 C 0.10281 0.55633 0.15674 0.0
C3885 C 0.02895 0.50577 0.08304 0.0
C3886 C 0.0404 0.51711 0.07149 0.0
C3887 C 0.03585 0.50349 0.10039 0.0
C3888 C 0.05415 0.51261 0.10613 0.0
C3889 C 0.06537 0.5244 0.09471 0.0
C3890 C 0.05855 0.52665 0.07755 0.0
C3891 C 0.06208 0.50932 0.1237 0.0
C3892 C 0.07109 0.52544 0.13576 0.0
C3893 C 0.06187 0.49058 0.12802 0.0
C3894 C 0.05445 0.47335 0.11486 0.0
C3895 C 0.06151 0.47251 0.09786 0.0
C3896 C 0.05485 0.45596 0.08575 0.0
C3897 C 0.04121 0.44013 0.09054 0.0
C3898 C 0.03419 0.44085 0.10743 0.0
C3899 C 0.0408 0.45737 0.11959 0.0
H3900 H 0.03612 0.42727 0.08123 0.0
H3901 H 0.11663 0.58715 0.19501 0.0
H3902 H 0.80571 0.81976 0.48569 0.0
H3903 H 0.80458 0.80979 0.45331 0.0
H3904 H 0.76765 0.84266 0.44111 0.0
H3905 H 0.76846 0.85243 0.47349 0.0
H3906 H 0.75788 0.80909 0.42037 0.0
H3907 H 0.81276 0.8606 0.43554 0.0
H3908 H 0.842 0.87754 0.45272 0.0
H3909 H 0.86263 0.83047 0.43712 0.0
H3910 H 0.83342 0.81312 0.42006 0.0
H3911 H 0.76983 0.81522 0.32615 0.0
H3912 H 0.76886 0.82241 0.3587 0.0
H3913 H 0.80686 0.79063 0.37037 0.0
H3914 H 0.80829 0.78379 0.33778 0.0
H3915 H 0.81579 0.8232 0.39145 0.0
H3916 H 0.7604 0.77209 0.37533 0.0
H3917 H 0.7312 0.7562 0.35764 0.0
H3918 H 0.71146 0.80355 0.37449 0.0
H3919 H 0.74063 0.81986 0.39208 0.0
C3920 C 0.79718 0.82471 0.47617 0.0
C3921 C 0.78726 0.83701 0.48225 0.0
C3922 C 0.79663 0.81908 0.4576 0.0
C3923 C 0.78627 0.82573 0.44467 0.0
C3924 C 0.77579 0.83737 0.45077 0.0
C3925 C 0.7763 0.84297 0.46934 0.0
C3926 C 0.78681 0.82109 0.42479 0.0
C3927 C 0.77053 0.81235 0.41402 0.0
C3928 C 0.8033 0.82507 0.41645 0.0
C3929 C 0.82086 0.83548 0.42668 0.0
C3930 C 0.82349 0.8538 0.4359 0.0
C3931 C 0.84006 0.86348 0.44559 0.0
C3932 C 0.85415 0.85506 0.44605 0.0
C3933 C 0.8517 0.83696 0.43678 0.0
C3934 C 0.83515 0.8272 0.42709 0.0
C3935 C 0.77801 0.80973 0.3356 0.0
C3936 C 0.78916 0.79891 0.32926 0.0
C3937 C 0.77734 0.81377 0.35427 0.0
C3938 C 0.78758 0.80684 0.36709 0.0
C3939 C 0.7988 0.79613 0.36079 0.0
C3940 C 0.79958 0.7922 0.34211 0.0
C3941 C 0.78687 0.81105 0.38702 0.0
C3942 C 0.80313 0.8198 0.3978 0.0
C3943 C 0.77035 0.80717 0.39532 0.0
C3944 C 0.75274 0.79725 0.38492 0.0
C3945 C 0.74986 0.77916 0.37518 0.0
C3946 C 0.73332 0.77008 0.36518 0.0
C3947 C 0.71949 0.77887 0.36493 0.0
C3948 C 0.72218 0.79676 0.3747 0.0
C3949 C 0.73871 0.80592 0.3847 0.0
H3950 H 0.70669 0.77181 0.35721 0.0
H3951 H 0.86697 0.86258 0.45355 0.0
H3952 H 0.45584 0.53746 0.76918 0.0
H3953 H 0.47606 0.53629 0.79549 0.0
H3954 H 0.43011 0.50806 0.82406 0.0
H3955 H 0.40968 0.5091 0.79776 0.0
H3956 H 0.45592 0.54042 0.84406 0.0
H3957 H 0.45364 0.48192 0.80654 0.0
H3958 H 0.45724 0.46413 0.77816 0.0
H3959 H 0.5132 0.49734 0.78069 0.0
H3960 H 0.50986 0.51551 0.80896 0.0
H3961 H 0.48656 0.4982 0.91611 0.0
H3962 H 0.47225 0.50479 0.88797 0.0
H3963 H 0.52453 0.52664 0.86738 0.0
H3964 H 0.5391 0.5203 0.89584 0.0
H3965 H 0.49956 0.50215 0.84217 0.0
H3966 H 0.50403 0.55841 0.88014 0.0
H3967 H 0.50191 0.57876 0.90742 0.0
H3968 H 0.44431 0.55329 0.90332 0.0
H3969 H 0.44607 0.53259 0.87615 0.0
C3970 C 0.45001 0.531 0.78106 0.0
C3971 C 0.43117 0.52344 0.78148 0.0
C3972 C 0.46159 0.5303 0.79601 0.0
C3973 C 0.45449 0.52208 0.81159 0.0
C3974 C 0.43573 0.51451 0.81209 0.0
C3975 C 0.42412 0.51508 0.79709 0.0
C3976 C 0.46662 0.52156 0.82752 0.0
C3977 C 0.46536 0.53192 0.84377 0.0
C3978 C 0.47948 0.51123 0.82669 0.0
C3979 C 0.48146 0.5002 0.80976 0.0
C3980 C 0.46667 0.48554 0.80096 0.0
C3981 C 0.46867 0.47537 0.78491 0.0
C3982 C 0.48542 0.47964 0.7776 0.0
C3983 C 0.50022 0.49406 0.78635 0.0
C3984 C 0.49829 0.50429 0.80239 0.0
C3985 C 0.49504 0.50456 0.90567 0.0
C3986 C 0.51394 0.50894 0.90821 0.0
C3987 C 0.48686 0.50832 0.88962 0.0
C3988 C 0.4974 0.51652 0.87581 0.0
C3989 C 0.51624 0.52041 0.87801 0.0
C3990 C 0.52449 0.51669 0.89416 0.0
C3991 C 0.4884 0.52045 0.85896 0.0
C3992 C 0.49029 0.51083 0.84249 0.0
C3993 C 0.47632 0.53177 0.85949 0.0
C3994 C 0.4752 0.54383 0.87614 0.0
C3995 C 0.49092 0.55698 0.88516 0.0
C3996 C 0.48978 0.56863 0.90058 0.0
C3997 C 0.47299 0.56731 0.90711 0.0
C3998 C 0.45731 0.5543 0.89825 0.0
C3999 C 0.45837 0.54263 0.88282 0.0
H4000 H 0.47213 0.57638 0.91902 0.0
H4001 H 0.48695 0.47175 0.76518 0.0
H4002 H 0.8135 0.1686 0.09948 0.0
H4003 H 0.80947 0.18491 0.12796 0.0
H4004 H 0.78105 0.21837 0.09861 0.0
H4005 H 0.78496 0.20199 0.06978 0.0
H4006 H 0.80625 0.23991 0.12669 0.0
H4007 H 0.75525 0.18373 0.11973 0.0
H4008 H 0.73801 0.1493 0.11346 0.0
H4009 H 0.77008 0.13458 0.15658 0.0
H4010 H 0.78734 0.16903 0.16329 0.0
H4011 H 0.78501 0.27192 0.2134 0.0
H4012 H 0.7828 0.25935 0.18158 0.0
H4013 H 0.80276 0.21267 0.19831 0.0
H4014 H 0.80353 0.22452 0.23029 0.0
H4015 H 0.77646 0.19918 0.174 0.0
H4016 H 0.8294 0.25669 0.17872 0.0
H4017 H 0.84477 0.29168 0.18506 0.0
H4018 H 0.80781 0.30421 0.14533 0.0
H4019 H 0.79214 0.26932 0.1389 0.0
C4020 C 0.80657 0.17958 0.09899 0.0
C4021 C 0.79943 0.18392 0.08239 0.0
C4022 C 0.80415 0.18875 0.11529 0.0
C4023 C 0.7946 0.20244 0.1153 0.0
C4024 C 0.78828 0.20764 0.09877 0.0
C4025 C 0.79063 0.19837 0.08237 0.0
C4026 C 0.79149 0.21125 0.13279 0.0
C4027 C 0.79946 0.23113 0.13699 0.0
C4028 C 0.78268 0.19969 0.14611 0.0
C4029 C 0.77267 0.17892 0.14189 0.0
C4030 C 0.75872 0.17313 0.12777 0.0
C4031 C 0.74892 0.15361 0.12417 0.0
C4032 C 0.75306 0.13971 0.13449 0.0
C4033 C 0.76692 0.14534 0.14855 0.0
C4034 C 0.77665 0.16488 0.15233 0.0
C4035 C 0.789 0.25904 0.21013 0.0
C4036 C 0.79465 0.24919 0.22396 0.0
C4037 C 0.78784 0.25194 0.19202 0.0
C4038 C 0.79301 0.23533 0.18751 0.0
C4039 C 0.79874 0.22555 0.20148 0.0
C4040 C 0.79932 0.23231 0.21965 0.0
C4041 C 0.79211 0.22775 0.16833 0.0
C4042 C 0.78317 0.20807 0.16374 0.0
C4043 C 0.79997 0.23956 0.15466 0.0
C4044 C 0.80953 0.26046 0.15845 0.0
C4045 C 0.82452 0.26694 0.17141 0.0
C4046 C 0.83328 0.28674 0.17501 0.0
C4047 C 0.82725 0.30016 0.16564 0.0
C4048 C 0.81247 0.29381 0.1526 0.0
C4049 C 0.80366 0.27403 0.14896 0.0
H4050 H 0.83404 0.31548 0.16845 0.0
H4051 H 0.74547 0.12459 0.13164 0.0
H4052 H 0.11293 0.53199 0.26592 0.0
H4053 H 0.09814 0.53269 0.29399 0.0
H4054 H 0.13024 0.49961 0.31837 0.0
H4055 H 0.14486 0.49847 0.29015 0.0
H4056 H 0.09571 0.48639 0.32584 0.0
H4057 H 0.14068 0.54801 0.32926 0.0
H4058 H 0.15752 0.57945 0.31902 0.0
H4059 H 0.10891 0.59654 0.31553 0.0
H4060 H 0.09173 0.56508 0.3255 0.0
H4061 H 0.07953 0.51046 0.41777 0.0
H4062 H 0.09103 0.5034 0.38894 0.0
H4063 H 0.06091 0.53693 0.36202 0.0
H4064 H 0.05021 0.54489 0.39089 0.0
H4065 H 0.09524 0.54913 0.35636 0.0
H4066 H 0.05034 0.48681 0.35371 0.0
H4067 H 0.03425 0.45523 0.36421 0.0
H4068 H 0.08359 0.43956 0.3674 0.0
H4069 H 0.10003 0.47114 0.35715 0.0
C4070 C 0.11686 0.52487 0.27724 0.0
C4071 C 0.1301 0.51525 0.27587 0.0
C4072 C 0.10844 0.52533 0.29329 0.0
C4073 C 0.11329 0.51641 0.30829 0.0
C4074 C 0.12634 0.50659 0.30691 0.0
C4075 C 0.13471 0.50602 0.29082 0.0
C4076 C 0.10471 0.51741 0.32544 0.0
C4077 C 0.09576 0.50009 0.33268 0.0
C4078 C 0.10463 0.53529 0.33415 0.0
C4079 C 0.1149 0.55412 0.32795 0.0
C4080 C 0.13355 0.5584 0.32614 0.0
C4081 C 0.14316 0.57624 0.32042 0.0
C4082 C 0.13428 0.58996 0.31659 0.0
C4083 C 0.11577 0.58589 0.31848 0.0
C4084 C 0.1061 0.56806 0.32417 0.0
C4085 C 0.07533 0.51625 0.40568 0.0
C4086 C 0.06422 0.52848 0.40666 0.0
C4087 C 0.08169 0.51197 0.38918 0.0
C4088 C 0.07679 0.51965 0.37337 0.0
C4089 C 0.06484 0.53089 0.37411 0.0
C4090 C 0.05865 0.53533 0.39061 0.0
C4091 C 0.0858 0.51809 0.35659 0.0
C4092 C 0.09505 0.53537 0.3495 0.0
C4093 C 0.08623 0.50018 0.34817 0.0
C4094 C 0.07643 0.4814 0.35478 0.0
C4095 C 0.05779 0.4767 0.35682 0.0
C4096 C 0.0486 0.45877 0.36266 0.0
C4097 C 0.05787 0.44536 0.3664 0.0
C4098 C 0.0764 0.44991 0.36442 0.0
C4099 C 0.08566 0.46783 0.3586 0.0
H4100 H 0.05073 0.4315 0.37094 0.0
H4101 H 0.14175 0.60378 0.31218 0.0
H4102 H 0.76842 0.80831 0.56946 0.0
H4103 H 0.76815 0.79935 0.60083 0.0
H4104 H 0.78925 0.85958 0.62049 0.0
H4105 H 0.78983 0.86864 0.58916 0.0
H4106 H 0.80618 0.83803 0.6389 0.0
H4107 H 0.74397 0.83403 0.62151 0.0
H4108 H 0.71535 0.82248 0.60194 0.0
H4109 H 0.71186 0.76372 0.61151 0.0
H4110 H 0.74059 0.77492 0.63096 0.0
H4111 H 0.79193 0.82761 0.73165 0.0
H4112 H 0.79062 0.83702 0.70051 0.0
H4113 H 0.7637 0.77756 0.681 0.0
H4114 H 0.76428 0.76825 0.71217 0.0
H4115 H 0.74973 0.79866 0.66224 0.0
H4116 H 0.81088 0.80076 0.67856 0.0
H4117 H 0.84012 0.81042 0.69714 0.0
H4118 H 0.84666 0.87004 0.68851 0.0
H4119 H 0.81732 0.86075 0.67009 0.0
C4120 C 0.77301 0.81967 0.58044 0.0
C4121 C 0.77907 0.83922 0.57671 0.0
C4122 C 0.77278 0.81452 0.59842 0.0
C4123 C 0.77847 0.82879 0.61312 0.0
C4124 C 0.78477 0.84829 0.60943 0.0
C4125 C 0.78504 0.85345 0.59146 0.0
C4126 C 0.77785 0.82347 0.63234 0.0
C4127 C 0.79377 0.82965 0.64407 0.0
C4128 C 0.76184 0.812 0.63904 0.0
C4129 C 0.74447 0.8053 0.62757 0.0
C4130 C 0.73714 0.81864 0.61936 0.0
C4131 C 0.7209 0.81216 0.60829 0.0
C4132 C 0.71181 0.79238 0.60545 0.0
C4133 C 0.71892 0.77903 0.61371 0.0
C4134 C 0.73517 0.78544 0.62477 0.0
C4135 C 0.78553 0.81658 0.72075 0.0
C4136 C 0.77825 0.79717 0.72444 0.0
C4137 C 0.78493 0.82194 0.70287 0.0
C4138 C 0.77746 0.80795 0.68819 0.0
C4139 C 0.7696 0.78867 0.69197 0.0
C4140 C 0.76992 0.78336 0.70987 0.0
C4141 C 0.77807 0.81328 0.66892 0.0
C4142 C 0.76216 0.80708 0.65715 0.0
C4143 C 0.79418 0.82445 0.66209 0.0
C4144 C 0.81184 0.83008 0.6731 0.0
C4145 C 0.8185 0.81594 0.68073 0.0
C4146 C 0.83509 0.82135 0.69122 0.0
C4147 C 0.84522 0.84084 0.69404 0.0
C4148 C 0.83879 0.85496 0.68634 0.0
C4149 C 0.82218 0.84963 0.67587 0.0
H4150 H 0.85807 0.84499 0.70216 0.0
H4151 H 0.69924 0.78739 0.59687 0.0
H4152 H 0.74156 0.44714 0.49494 0.0
H4153 H 0.71886 0.4634 0.50109 0.0
H4154 H 0.73298 0.46577 0.55878 0.0
H4155 H 0.75566 0.44922 0.55281 0.0
H4156 H 0.69579 0.45495 0.54926 0.0
H4157 H 0.74925 0.50499 0.53776 0.0
H4158 H 0.77504 0.5201 0.52038 0.0
H4159 H 0.73852 0.52113 0.47456 0.0
H4160 H 0.7125 0.50574 0.49156 0.0
H4161 H 0.64835 0.52539 0.56703 0.0
H4162 H 0.67246 0.5096 0.56691 0.0
H4163 H 0.66509 0.50138 0.50826 0.0
H4164 H 0.64118 0.51707 0.50832 0.0
H4165 H 0.70073 0.51696 0.52195 0.0
H4166 H 0.64822 0.4641 0.53027 0.0
H4167 H 0.62145 0.44628 0.5451 0.0
H4168 H 0.65479 0.44885 0.5944 0.0
H4169 H 0.68174 0.46679 0.57988 0.0
C4170 C 0.73981 0.45104 0.50895 0.0
C4171 C 0.75047 0.44711 0.52341 0.0
C4172 C 0.72688 0.46033 0.51241 0.0
C4173 C 0.72457 0.46597 0.53035 0.0
C4174 C 0.73474 0.46154 0.54486 0.0
C4175 C 0.74768 0.45218 0.54141 0.0
C4176 C 0.71178 0.47693 0.53379 0.0
C4177 C 0.69701 0.46872 0.54365 0.0
C4178 C 0.71333 0.49462 0.52606 0.0
C4179 C 0.72895 0.50412 0.5159 0.0
C4180 C 0.74673 0.50834 0.52394 0.0
C4181 C 0.76138 0.51696 0.51416 0.0
C4182 C 0.75842 0.52154 0.49637 0.0
C4183 C 0.74079 0.51756 0.48834 0.0
C4184 C 0.72609 0.50891 0.49804 0.0
C4185 C 0.65209 0.52034 0.55417 0.0
C4186 C 0.64308 0.52234 0.53768 0.0
C4187 C 0.66564 0.51124 0.55412 0.0
C4188 C 0.6703 0.50429 0.53758 0.0
C4189 C 0.66155 0.50666 0.52112 0.0
C4190 C 0.64796 0.51556 0.52117 0.0
C4191 C 0.68459 0.49484 0.53716 0.0
C4192 C 0.69967 0.50338 0.52788 0.0
C4193 C 0.68317 0.47735 0.54519 0.0
C4194 C 0.66693 0.46707 0.5541 0.0
C4195 C 0.6498 0.46109 0.54435 0.0
C4196 C 0.63461 0.4509 0.55267 0.0
C4197 C 0.6364 0.44656 0.57072 0.0
C4198 C 0.65341 0.4523 0.58045 0.0
C4199 C 0.66864 0.46246 0.57218 0.0
H4200 H 0.62463 0.43869 0.57714 0.0
H4201 H 0.76979 0.52821 0.48882 0.0
H4202 H 0.24785 0.12572 0.52156 0.0
H4203 H 0.21812 0.10323 0.5254 0.0
H4204 H 0.19262 0.14601 0.50972 0.0
H4205 H 0.22219 0.16846 0.50558 0.0
H4206 H 0.18171 0.12855 0.5428 0.0
H4207 H 0.18982 0.11066 0.48023 0.0
H4208 H 0.20619 0.09982 0.45617 0.0
H4209 H 0.20314 0.04782 0.48232 0.0
H4210 H 0.18698 0.0585 0.50668 0.0
H4211 H 0.08976 0.08087 0.52844 0.0
H4212 H 0.12106 0.09908 0.52598 0.0
H4213 H 0.13659 0.04661 0.52807 0.0
H4214 H 0.10475 0.02799 0.52949 0.0
H4215 H 0.15443 0.06692 0.50443 0.0
H4216 H 0.14486 0.08236 0.56568 0.0
H4217 H 0.12925 0.0924 0.59083 0.0
H4218 H 0.13642 0.14776 0.56972 0.0
H4219 H 0.15185 0.13796 0.54429 0.0
C4220 C 0.2359 0.1303 0.51884 0.0
C4221 C 0.23735 0.14886 0.51325 0.0
C4222 C 0.21896 0.11742 0.52101 0.0
C4223 C 0.20323 0.12299 0.51781 0.0
C4224 C 0.20463 0.14148 0.51225 0.0
C4225 C 0.22152 0.15424 0.50982 0.0
C4226 C 0.18528 0.10974 0.52062 0.0
C4227 C 0.17563 0.11514 0.53434 0.0
C4228 C 0.17778 0.09191 0.51006 0.0
C4229 C 0.1874 0.08548 0.49537 0.0
C4230 C 0.1928 0.097 0.48093 0.0
C4231 C 0.202 0.09087 0.46723 0.0
C4232 C 0.20575 0.07317 0.46775 0.0
C4233 C 0.20026 0.06154 0.48195 0.0
C4234 C 0.19106 0.06762 0.4957 0.0
C4235 C 0.09983 0.07318 0.52852 0.0
C4236 C 0.09487 0.05303 0.52941 0.0
C4237 C 0.11779 0.08365 0.5272 0.0
C4238 C 0.13134 0.07436 0.52739 0.0
C4239 C 0.12641 0.05415 0.52807 0.0
C4240 C 0.10826 0.04353 0.52894 0.0
C4241 C 0.15051 0.08589 0.52644 0.0
C4242 C 0.16048 0.08019 0.5131 0.0
C4243 C 0.15849 0.10332 0.53761 0.0
C4244 C 0.14942 0.10937 0.55302 0.0
C4245 C 0.14303 0.09664 0.56635 0.0
C4246 C 0.13421 0.10229 0.58066 0.0
C4247 C 0.13182 0.12069 0.58186 0.0
C4248 C 0.13828 0.13351 0.56878 0.0
C4249 C 0.14709 0.12792 0.55443 0.0
H4250 H 0.12498 0.12503 0.59294 0.0
H4251 H 0.21288 0.06845 0.45712 0.0
H4252 H 0.16352 0.95351 0.79258 0.0
H4253 H 0.17952 0.93084 0.78204 0.0
H4254 H 0.22775 0.96472 0.81476 0.0
H4255 H 0.21204 0.98761 0.82493 0.0
H4256 H 0.23356 0.96016 0.77988 0.0
H4257 H 0.20242 0.91991 0.82455 0.0
H4258 H 0.17595 0.90073 0.83889 0.0
H4259 H 0.15792 0.86355 0.78957 0.0
H4260 H 0.18407 0.88276 0.77478 0.0
H4261 H 0.29446 0.90623 0.78226 0.0
H4262 H 0.27274 0.92385 0.78823 0.0
H4263 H 0.23252 0.88284 0.75099 0.0
H4264 H 0.25403 0.86462 0.74551 0.0
H4265 H 0.21943 0.88921 0.78297 0.0
H4266 H 0.25145 0.92794 0.73908 0.0
H4267 H 0.27834 0.94645 0.7249 0.0
H4268 H 0.29478 0.98597 0.77289 0.0
H4269 H 0.26813 0.96752 0.78747 0.0
C4270 C 0.17743 0.95587 0.79778 0.0
C4271 C 0.18669 0.97241 0.80932 0.0
C4272 C 0.1865 0.94291 0.7918 0.0
C4273 C 0.20478 0.94624 0.79758 0.0
C4274 C 0.21365 0.96205 0.81006 0.0
C4275 C 0.20469 0.9751 0.81583 0.0
C4276 C 0.2154 0.93469 0.78927 0.0
C4277 C 0.23056 0.94466 0.7807 0.0
C4278 C 0.21089 0.91437 0.78959 0.0
C4279 C 0.19505 0.903 0.79845 0.0
C4280 C 0.19268 0.90782 0.81666 0.0
C4281 C 0.17775 0.89691 0.82489 0.0
C4282 C 0.16521 0.881 0.81512 0.0
C4283 C 0.16759 0.87594 0.7971 0.0
C4284 C 0.18245 0.88685 0.78878 0.0
C4285 C 0.28104 0.90108 0.77522 0.0
C4286 C 0.2759 0.88416 0.76339 0.0
C4287 C 0.26871 0.9112 0.77854 0.0
C4288 C 0.25115 0.90469 0.76987 0.0
C4289 C 0.24608 0.88807 0.75769 0.0
C4290 C 0.25841 0.87785 0.75443 0.0
C4291 C 0.23797 0.91489 0.77437 0.0
C4292 C 0.22225 0.90467 0.78199 0.0
C4293 C 0.2419 0.93501 0.7732 0.0
C4294 C 0.25783 0.94629 0.76439 0.0
C4295 C 0.26085 0.94051 0.74665 0.0
C4296 C 0.27605 0.951 0.73854 0.0
C4297 C 0.28827 0.96736 0.748 0.0
C4298 C 0.2853 0.9733 0.76558 0.0
C4299 C 0.27014 0.96285 0.77376 0.0
H4300 H 0.30004 0.97546 0.7417 0.0
H4301 H 0.15368 0.87255 0.82153 0.0
H4302 H 0.3429 0.98524 0.03489 0.0
H4303 H 0.37547 0.99722 0.03104 0.0
H4304 H 0.37392 0.94091 0.00677 0.0
H4305 H 0.34162 0.92907 0.01058 0.0
H4306 H 0.40386 0.95637 0.02936 0.0
H4307 H 0.37255 0.97358 0.97976 0.0
H4308 H 0.35076 0.98695 0.96357 0.0
H4309 H 0.37934 0.04388 0.98801 0.0
H4310 H 0.40113 0.03077 0.00464 0.0
H4311 H 0.48828 0.9931 0.99134 0.0
H4312 H 0.45506 0.98145 0.98752 0.0
H4313 H 0.45257 0.0244 0.02961 0.0
H4314 H 0.48562 0.03552 0.03397 0.0
H4315 H 0.42447 0.01341 0.99359 0.0
H4316 H 0.45205 0.99013 0.04759 0.0
H4317 H 0.47425 0.97463 0.05977 0.0
H4318 H 0.45196 0.9256 0.02073 0.0
H4319 H 0.42983 0.94102 0.00815 0.0
C4320 C 0.34972 0.97546 0.0291 0.0
C4321 C 0.34006 0.9564 0.02292 0.0
C4322 C 0.36814 0.98226 0.02679 0.0
C4323 C 0.37686 0.96994 0.01838 0.0
C4324 C 0.36734 0.95058 0.0132 0.0
C4325 C 0.34898 0.94389 0.01535 0.0
C4326 C 0.39576 0.97742 0.01424 0.0
C4327 C 0.40829 0.96871 0.02139 0.0
C4328 C 0.40142 0.99319 0.00346 0.0
C4329 C 0.38833 1.00116 0.99362 0.0
C4330 C 0.37407 0.98892 0.98184 0.0
C4331 C 0.36174 0.99645 0.97256 0.0
C4332 C 0.36363 0.01625 0.9748 0.0
C4333 C 0.37788 0.02855 0.98632 0.0
C4334 C 0.39022 0.02107 0.99568 0.0
C4335 C 0.48055 1.00033 0.99936 0.0
C4336 C 0.4892 0.01499 0.01303 0.0
C4337 C 0.46173 0.99376 0.99714 0.0
C4338 C 0.45164 1.0022 0.00828 0.0
C4339 C 0.46031 0.01793 0.02084 0.0
C4340 C 0.47906 0.02413 0.02341 0.0
C4341 C 0.43239 0.99274 0.00924 0.0
C4342 C 0.41985 1.001 0.00143 0.0
C4343 C 0.4266 0.97621 0.01894 0.0
C4344 C 0.43947 0.96676 0.02686 0.0
C4345 C 0.45198 0.9761 0.04156 0.0
C4346 C 0.46453 0.96734 0.04853 0.0
C4347 C 0.46454 0.94916 0.041 0.0
C4348 C 0.45195 0.93968 0.02653 0.0
C4349 C 0.43941 0.94842 0.01948 0.0
H4350 H 0.47427 0.9424 0.04641 0.0
H4351 H 0.35408 0.02207 0.96758 0.0
H4352 H 0.88321 0.58131 0.80315 0.0
H4353 H 0.8682 0.60355 0.79086 0.0
H4354 H 0.91933 0.64823 0.79366 0.0
H4355 H 0.93467 0.62589 0.80599 0.0
H4356 H 0.88535 0.65854 0.80441 0.0
H4357 H 0.90918 0.62787 0.75572 0.0
H4358 H 0.91446 0.59947 0.73952 0.0
H4359 H 0.85718 0.57244 0.73019 0.0
H4360 H 0.85156 0.60054 0.74661 0.0
H4361 H 0.83744 0.70711 0.75214 0.0
H4362 H 0.86298 0.69442 0.75864 0.0
H4363 H 0.82662 0.63616 0.75139 0.0
H4364 H 0.80115 0.64891 0.74458 0.0
H4365 H 0.85931 0.63757 0.74069 0.0
H4366 H 0.83385 0.66136 0.79111 0.0
H4367 H 0.82463 0.68501 0.81064 0.0
H4368 H 0.87996 0.71982 0.82082 0.0
H4369 H 0.88948 0.69679 0.80064 0.0
C4370 C 0.89125 0.59597 0.80149 0.0
C4371 C 0.91012 0.60184 0.8052 0.0
C4372 C 0.88267 0.6086 0.79448 0.0
C4373 C 0.89282 0.62722 0.79108 0.0
C4374 C 0.91143 0.63376 0.79614 0.0
C4375 C 0.92011 0.62106 0.8032 0.0
C4376 C 0.8839 0.63901 0.78087 0.0
C4377 C 0.88011 0.65448 0.7903 0.0
C4378 C 0.87663 0.63297 0.76272 0.0
C4379 C 0.87997 0.61628 0.75246 0.0
C4380 C 0.89772 0.61583 0.7503 0.0
C4381 C 0.90077 0.59978 0.74107 0.0
C4382 C 0.88617 0.58415 0.73384 0.0
C4383 C 0.86848 0.58456 0.73578 0.0
C4384 C 0.86535 0.60055 0.74502 0.0
C4385 C 0.83514 0.69158 0.75126 0.0
C4386 C 0.81758 0.67883 0.74799 0.0
C4387 C 0.84962 0.6844 0.75503 0.0
C4388 C 0.84651 0.66446 0.75583 0.0
C4389 C 0.82919 0.65163 0.75083 0.0
C4390 C 0.8147 0.65883 0.74694 0.0
C4391 C 0.86051 0.65706 0.76426 0.0
C4392 C 0.86516 0.64228 0.75454 0.0
C4393 C 0.86806 0.66333 0.78238 0.0
C4394 C 0.86233 0.67756 0.79402 0.0
C4395 C 0.84403 0.67426 0.79719 0.0
C4396 C 0.83875 0.68755 0.80839 0.0
C4397 C 0.85169 0.70401 0.81682 0.0
C4398 C 0.86995 0.70719 0.81408 0.0
C4399 C 0.87528 0.69406 0.8027 0.0
H4400 H 0.8476 0.71424 0.82558 0.0
H4401 H 0.88856 0.57174 0.72672 0.0
H4402 H 0.82435 0.64101 0.03595 0.0
H4403 H 0.84615 0.62247 0.03821 0.0
H4404 H 0.88101 0.6616 0.00509 0.0
H4405 H 0.85942 0.68024 0.00283 0.0
H4406 H 0.87492 0.62277 0.99367 0.0
H4407 H 0.89163 0.66475 0.04945 0.0
H4408 H 0.88594 0.67891 0.07886 0.0
H4409 H 0.86977 0.62246 0.09862 0.0
H4410 H 0.87512 0.60792 0.06921 0.0
H4411 H 0.95464 0.59694 0.00176 0.0
H4412 H 0.9332 0.6157 0.00427 0.0
H4413 H 0.90453 0.57693 0.04171 0.0
H4414 H 0.92613 0.55821 0.03941 0.0
H4415 H 0.90599 0.6138 0.0518 0.0
H4416 H 0.88892 0.57135 0.99763 0.0
H4417 H 0.89374 0.55572 0.96858 0.0
H4418 H 0.90852 0.61077 0.94598 0.0
H4419 H 0.90405 0.62678 0.97502 0.0
C4420 C 0.83668 0.64569 0.02919 0.0
C4421 C 0.84017 0.66209 0.01919 0.0
C4422 C 0.84913 0.63513 0.03056 0.0
C4423 C 0.8652 0.64076 0.02189 0.0
C4424 C 0.86868 0.65707 0.01189 0.0
C4425 C 0.85634 0.66772 0.01065 0.0
C4426 C 0.87822 0.62937 0.02272 0.0
C4427 C 0.88187 0.621 0.00636 0.0
C4428 C 0.88674 0.62649 0.03936 0.0
C4429 C 0.88357 0.63523 0.05706 0.0
C4430 C 0.8867 0.65533 0.06001 0.0
C4431 C 0.88357 0.66343 0.07669 0.0
C4432 C 0.87744 0.65159 0.09058 0.0
C4433 C 0.87449 0.63162 0.08784 0.0
C4434 C 0.87758 0.62344 0.07117 0.0
C4435 C 0.9438 0.59246 0.01057 0.0
C4436 C 0.94191 0.57599 0.02021 0.0
C4437 C 0.93159 0.60319 0.01202 0.0
C4438 C 0.91708 0.59748 0.02291 0.0
C4439 C 0.91561 0.58155 0.0332 0.0
C4440 C 0.92794 0.57088 0.03187 0.0
C4441 C 0.90297 0.60755 0.02269 0.0
C4442 C 0.89901 0.61555 0.03913 0.0
C4443 C 0.8939 0.60987 0.00615 0.0
C4444 C 0.89629 0.60028 0.98854 0.0
C4445 C 0.89329 0.58014 0.98649 0.0
C4446 C 0.89596 0.57121 0.97003 0.0
C4447 C 0.90147 0.58225 0.95545 0.0
C4448 C 0.90427 0.60224 0.95729 0.0
C4449 C 0.90165 0.61125 0.97375 0.0
H4450 H 0.90354 0.57531 0.94272 0.0
H4451 H 0.87503 0.65789 0.10349 0.0
H4452 H 0.1687 0.09201 0.81158 0.0
H4453 H 0.1854 0.12575 0.8086 0.0
H4454 H 0.23395 0.11645 0.8328 0.0
H4455 H 0.21742 0.08245 0.83546 0.0
H4456 H 0.22565 0.15609 0.84194 0.0
H4457 H 0.23108 0.10896 0.7933 0.0
H4458 H 0.21817 0.08224 0.76947 0.0
H4459 H 0.18961 0.11672 0.7424 0.0
H4460 H 0.20167 0.14328 0.76651 0.0
H4461 H 0.2942 0.22854 0.80534 0.0
H4462 H 0.27585 0.19863 0.8165 0.0
H4463 H 0.23183 0.19728 0.77715 0.0
H4464 H 0.25016 0.22663 0.76555 0.0
H4465 H 0.23709 0.16349 0.77706 0.0
H4466 H 0.23038 0.21033 0.82137 0.0
H4467 H 0.24045 0.2386 0.84396 0.0
H4468 H 0.26777 0.20784 0.87766 0.0
H4469 H 0.25812 0.17944 0.85508 0.0
C4470 C 0.18284 0.09725 0.81664 0.0
C4471 C 0.19191 0.08464 0.82346 0.0
C4472 C 0.19228 0.1165 0.81503 0.0
C4473 C 0.2108 0.12338 0.82049 0.0
C4474 C 0.21959 0.11127 0.82865 0.0
C4475 C 0.21022 0.09189 0.82995 0.0
C4476 C 0.22149 0.14198 0.81482 0.0
C4477 C 0.22838 0.15778 0.82783 0.0
C4478 C 0.22439 0.14409 0.7963 0.0
C4479 C 0.21701 0.12797 0.78191 0.0
C4480 C 0.22175 0.11069 0.78247 0.0
C4481 C 0.21458 0.09557 0.7689 0.0
C4482 C 0.20291 0.09768 0.75451 0.0
C4483 C 0.19845 0.11497 0.75365 0.0
C4484 C 0.2054 0.13004 0.7673 0.0
C4485 C 0.28067 0.22175 0.79898 0.0
C4486 C 0.27363 0.22983 0.78453 0.0
C4487 C 0.27016 0.20484 0.8055 0.0
C4488 C 0.25246 0.19597 0.79776 0.0
C4489 C 0.24547 0.20399 0.7833 0.0
C4490 C 0.25597 0.22075 0.77671 0.0
C4491 C 0.24141 0.17782 0.80413 0.0
C4492 C 0.23444 0.16198 0.79121 0.0
C4493 C 0.23806 0.17593 0.82262 0.0
C4494 C 0.24368 0.19281 0.83643 0.0
C4495 C 0.23865 0.20963 0.83353 0.0
C4496 C 0.24426 0.22567 0.84634 0.0
C4497 C 0.25476 0.22503 0.86221 0.0
C4498 C 0.25964 0.20831 0.86534 0.0
C4499 C 0.2541 0.19223 0.85254 0.0
H4500 H 0.25905 0.23747 0.8721 0.0
H4501 H 0.19742 0.086 0.74397 0.0
H4502 H 0.36807 0.9961 0.27863 0.0
H4503 H 0.34914 0.96248 0.27426 0.0
H4504 H 0.39532 0.94457 0.25999 0.0
H4505 H 0.41423 0.97827 0.26384 0.0
H4506 H 0.36515 0.92267 0.24089 0.0
H4507 H 0.38443 0.94474 0.3033 0.0
H4508 H 0.38865 0.96624 0.33147 0.0
H4509 H 0.3311 0.95382 0.33218 0.0
H4510 H 0.32654 0.93247 0.30383 0.0
H4511 H 0.33563 0.82655 0.26404 0.0
H4512 H 0.35264 0.86057 0.26312 0.0
H4513 H 0.3065 0.87734 0.27972 0.0
H4514 H 0.28992 0.84314 0.28186 0.0
H4515 H 0.33622 0.89998 0.29672 0.0
H4516 H 0.3185 0.87488 0.2334 0.0
H4517 H 0.31716 0.85196 0.20683 0.0
H4518 H 0.37516 0.86875 0.20953 0.0
H4519 H 0.37686 0.89152 0.23627 0.0
C4520 C 0.37407 0.98502 0.27416 0.0
C4521 C 0.3926 0.98964 0.2718 0.0
C4522 C 0.36328 0.96588 0.27172 0.0
C4523 C 0.371 0.95111 0.26729 0.0
C4524 C 0.38919 0.95583 0.26352 0.0
C4525 C 0.39995 0.97504 0.2657 0.0
C4526 C 0.36057 0.93077 0.26828 0.0
C4527 C 0.35886 0.91763 0.25309 0.0
C4528 C 0.35245 0.92435 0.28427 0.0
C4529 C 0.35515 0.93719 0.30132 0.0
C4530 C 0.37268 0.94673 0.30937 0.0
C4531 C 0.37513 0.95886 0.32538 0.0
C4532 C 0.36015 0.96144 0.33358 0.0
C4533 C 0.34269 0.95184 0.32579 0.0
C4534 C 0.34016 0.93972 0.30976 0.0
C4535 C 0.32925 0.8376 0.26756 0.0
C4536 C 0.31159 0.83259 0.27289 0.0
C4537 C 0.33885 0.85694 0.26689 0.0
C4538 C 0.33061 0.8714 0.27078 0.0
C4539 C 0.31301 0.86633 0.27649 0.0
C4540 C 0.30358 0.84695 0.27771 0.0
C4541 C 0.34046 0.89184 0.26919 0.0
C4542 C 0.34222 0.90502 0.28438 0.0
C4543 C 0.34892 0.89817 0.25332 0.0
C4544 C 0.34779 0.88486 0.23688 0.0
C4545 C 0.33096 0.87365 0.22835 0.0
C4546 C 0.33014 0.86067 0.21327 0.0
C4547 C 0.34607 0.85891 0.20651 0.0
C4548 C 0.36284 0.87014 0.21478 0.0
C4549 C 0.36373 0.8831 0.22988 0.0
H4550 H 0.34545 0.84889 0.19485 0.0
H4551 H 0.36207 0.97083 0.34598 0.0
H4552 H 0.56803 0.32873 0.56241 0.0
H4553 H 0.56415 0.3583 0.5509 0.0
H4554 H 0.5698 0.38446 0.60582 0.0
H4555 H 0.57373 0.35491 0.61747 0.0
H4556 H 0.54129 0.38986 0.58669 0.0
H4557 H 0.60314 0.39971 0.57876 0.0
H4558 H 0.63075 0.39312 0.56912 0.0
H4559 H 0.60991 0.38748 0.51316 0.0
H4560 H 0.58204 0.39382 0.52249 0.0
H4561 H 0.55317 0.48646 0.56075 0.0
H4562 H 0.55938 0.45826 0.57309 0.0
H4563 H 0.54221 0.42579 0.5209 0.0
H4564 H 0.53553 0.45387 0.5085 0.0
H4565 H 0.57735 0.42471 0.53946 0.0
H4566 H 0.51456 0.41523 0.54959 0.0
H4567 H 0.4892 0.42522 0.56108 0.0
H4568 H 0.51461 0.43318 0.6155 0.0
H4569 H 0.54029 0.42355 0.60427 0.0
C4570 C 0.5686 0.34082 0.57206 0.0
C4571 C 0.57123 0.33943 0.59088 0.0
C4572 C 0.56644 0.35776 0.56544 0.0
C4573 C 0.5668 0.37368 0.57747 0.0
C4574 C 0.5695 0.37239 0.59626 0.0
C4575 C 0.57182 0.3555 0.6029 0.0
C4576 C 0.56365 0.39134 0.5704 0.0
C4577 C 0.54935 0.39759 0.57654 0.0
C4578 C 0.57399 0.40142 0.55701 0.0
C4579 C 0.59041 0.39696 0.55134 0.0
C4580 C 0.60433 0.39678 0.56441 0.0
C4581 C 0.62005 0.39317 0.559 0.0
C4582 C 0.62205 0.3898 0.54054 0.0
C4583 C 0.60832 0.39005 0.52746 0.0
C4584 C 0.59257 0.39367 0.5328 0.0
C4585 C 0.55074 0.47334 0.55186 0.0
C4586 C 0.54386 0.47238 0.53363 0.0
C4587 C 0.55425 0.45723 0.55896 0.0
C4588 C 0.55121 0.43996 0.54792 0.0
C4589 C 0.54463 0.43901 0.52963 0.0
C4590 C 0.54077 0.45502 0.5226 0.0
C4591 C 0.55487 0.42287 0.55553 0.0
C4592 C 0.5693 0.41685 0.54956 0.0
C4593 C 0.54486 0.41323 0.56929 0.0
C4594 C 0.52943 0.41891 0.57606 0.0
C4595 C 0.51483 0.41931 0.56398 0.0
C4596 C 0.50038 0.42487 0.57045 0.0
C4597 C 0.50032 0.4299 0.589 0.0
C4598 C 0.51469 0.42932 0.60113 0.0
C4599 C 0.52919 0.42381 0.59472 0.0
H4600 H 0.48912 0.43419 0.59398 0.0
H4601 H 0.63426 0.38705 0.53638 0.0
H4602 H 0.46925 0.76745 0.37382 0.0
H4603 H 0.44347 0.77022 0.35453 0.0
H4604 H 0.40686 0.73665 0.39002 0.0
H4605 H 0.43255 0.73374 0.40938 0.0
H4606 H 0.39535 0.72623 0.35351 0.0
H4607 H 0.41657 0.78439 0.39396 0.0
H4608 H 0.43951 0.81354 0.40856 0.0
H4609 H 0.449 0.83577 0.35642 0.0
H4610 H 0.42632 0.80658 0.34147 0.0
H4611 H 0.31651 0.75192 0.32574 0.0
H4612 H 0.3423 0.74747 0.34391 0.0
H4613 H 0.37887 0.78247 0.30923 0.0
H4614 H 0.35326 0.78702 0.29104 0.0
H4615 H 0.39052 0.79201 0.34503 0.0
H4616 H 0.37004 0.73474 0.30433 0.0
H4617 H 0.34785 0.70556 0.28884 0.0
H4618 H 0.33761 0.68174 0.34022 0.0
H4619 H 0.35956 0.71093 0.35606 0.0
C4620 C 0.45572 0.76048 0.37744 0.0
C4621 C 0.45296 0.75045 0.39321 0.0
C4622 C 0.44101 0.76215 0.36643 0.0
C4623 C 0.42327 0.75382 0.37096 0.0
C4624 C 0.42044 0.74321 0.3863 0.0
C4625 C 0.43515 0.74162 0.39738 0.0
C4626 C 0.4077 0.75681 0.36011 0.0
C4627 C 0.39416 0.74059 0.35184 0.0
C4628 C 0.40639 0.77557 0.35759 0.0
C4629 C 0.41988 0.79322 0.36658 0.0
C4630 C 0.42365 0.79543 0.38559 0.0
C4631 C 0.43659 0.81196 0.39394 0.0
C4632 C 0.44574 0.82647 0.38342 0.0
C4633 C 0.44192 0.8245 0.36455 0.0
C4634 C 0.42902 0.80797 0.35613 0.0
C4635 C 0.33004 0.75874 0.32203 0.0
C4636 C 0.33282 0.76978 0.30691 0.0
C4637 C 0.34475 0.75611 0.33237 0.0
C4638 C 0.36248 0.76451 0.32781 0.0
C4639 C 0.3653 0.77584 0.31297 0.0
C4640 C 0.35062 0.77838 0.30255 0.0
C4641 C 0.37812 0.76143 0.33847 0.0
C4642 C 0.39169 0.77764 0.3467 0.0
C4643 C 0.37951 0.74268 0.34086 0.0
C4644 C 0.36631 0.7251 0.3314 0.0
C4645 C 0.36294 0.72336 0.31234 0.0
C4646 C 0.35043 0.7068 0.30349 0.0
C4647 C 0.3413 0.69183 0.31354 0.0
C4648 C 0.34468 0.69336 0.33246 0.0
C4649 C 0.35717 0.7099 0.34138 0.0
H4650 H 0.33162 0.67901 0.30666 0.0
H4651 H 0.45576 0.83926 0.38991 0.0
H4652 H 0.04817 0.73166 0.10722 0.0
H4653 H 0.04345 0.69813 0.09551 0.0
H4654 H 0.09322 0.71532 0.06946 0.0
H4655 H 0.09786 0.74897 0.08082 0.0
H4656 H 0.06791 0.68938 0.04763 0.0
H4657 H 0.09111 0.69423 0.10984 0.0
H4658 H 0.0924 0.70225 0.1429 0.0
H4659 H 0.03952 0.66228 0.14456 0.0
H4660 H 0.0378 0.65421 0.11143 0.0
H4661 H 0.07921 0.59557 0.03457 0.0
H4662 H 0.08389 0.62924 0.04591 0.0
H4663 H 0.03125 0.61349 0.06651 0.0
H4664 H 0.02637 0.57979 0.05519 0.0
H4665 H 0.05836 0.63855 0.09109 0.0
H4666 H 0.03575 0.63393 0.02829 0.0
H4667 H 0.03546 0.62578 0.99536 0.0
H4668 H 0.08873 0.66541 0.99515 0.0
H4669 H 0.08945 0.67358 0.02816 0.0
C4670 C 0.05806 0.72835 0.0989 0.0
C4671 C 0.07346 0.74301 0.09506 0.0
C4672 C 0.05539 0.70914 0.09228 0.0
C4673 C 0.06813 0.70413 0.08185 0.0
C4674 C 0.08322 0.71881 0.07752 0.0
C4675 C 0.08587 0.73806 0.08407 0.0
C4676 C 0.06591 0.68355 0.07578 0.0
C4677 C 0.06606 0.67833 0.05718 0.0
C4678 C 0.06323 0.66902 0.08817 0.0
C4679 C 0.06426 0.67375 0.10812 0.0
C4680 C 0.0797 0.68725 0.11723 0.0
C4681 C 0.08052 0.69179 0.13599 0.0
C4682 C 0.06603 0.68281 0.14582 0.0
C4683 C 0.05072 0.66924 0.13692 0.0
C4684 C 0.04982 0.66466 0.11815 0.0
C4685 C 0.06865 0.59919 0.04161 0.0
C4686 C 0.05236 0.58493 0.04386 0.0
C4687 C 0.07133 0.61848 0.04803 0.0
C4688 C 0.05785 0.62388 0.05691 0.0
C4689 C 0.04181 0.60963 0.05966 0.0
C4690 C 0.03903 0.59037 0.0531 0.0
C4691 C 0.06031 0.64446 0.06299 0.0
C4692 C 0.06022 0.64965 0.08158 0.0
C4693 C 0.06319 0.65897 0.05061 0.0
C4694 C 0.06272 0.65422 0.03073 0.0
C4695 C 0.04746 0.6408 0.02125 0.0
C4696 C 0.04721 0.63619 0.00257 0.0
C4697 C 0.06209 0.64503 0.99317 0.0
C4698 C 0.07723 0.65855 0.00244 0.0
C4699 C 0.07756 0.66318 0.02114 0.0
H4700 H 0.06187 0.64145 0.97871 0.0
H4701 H 0.06669 0.68635 0.16034 0.0
H4702 H 0.07701 0.25761 0.9181 0.0
H4703 H 0.10247 0.26389 0.89927 0.0
H4704 H 0.07115 0.28233 0.85761 0.0
H4705 H 0.04539 0.27553 0.87621 0.0
H4706 H 0.08816 0.26027 0.84251 0.0
H4707 H 0.10591 0.31521 0.88574 0.0
H4708 H 0.11188 0.33312 0.91606 0.0
H4709 H 0.15247 0.30577 0.93045 0.0
H4710 H 0.14658 0.28748 0.90028 0.0
H4711 H 0.16504 0.29384 0.79246 0.0
H4712 H 0.1401 0.29485 0.81086 0.0
H4713 H 0.16334 0.26967 0.85389 0.0
H4714 H 0.1885 0.26905 0.83579 0.0
H4715 H 0.15013 0.29852 0.86714 0.0
H4716 H 0.12964 0.24166 0.82395 0.0
H4717 H 0.12367 0.22489 0.7931 0.0
H4718 H 0.08802 0.25804 0.77815 0.0
H4719 H 0.09398 0.27519 0.80887 0.0
C4720 C 0.07553 0.26304 0.90495 0.0
C4721 C 0.05918 0.2661 0.89868 0.0
C4722 C 0.09016 0.26675 0.89423 0.0
C4723 C 0.08887 0.27392 0.87713 0.0
C4724 C 0.0725 0.27688 0.87078 0.0
C4725 C 0.05779 0.27299 0.88143 0.0
C4726 C 0.10441 0.27771 0.86568 0.0
C4727 C 0.10164 0.26895 0.84782 0.0
C4728 C 0.12208 0.28886 0.87261 0.0
C4729 C 0.12569 0.29985 0.89078 0.0
C4730 C 0.11602 0.3129 0.89541 0.0
C4731 C 0.1194 0.32314 0.91257 0.0
C4732 C 0.13252 0.32056 0.92519 0.0
C4733 C 0.1423 0.30775 0.92066 0.0
C4734 C 0.13896 0.29745 0.90353 0.0
C4735 C 0.16499 0.28882 0.80596 0.0
C4736 C 0.17865 0.28121 0.81261 0.0
C4737 C 0.15067 0.28928 0.8164 0.0
C4738 C 0.14976 0.28211 0.83365 0.0
C4739 C 0.16375 0.27522 0.8406 0.0
C4740 C 0.17803 0.27472 0.83017 0.0
C4741 C 0.13385 0.28084 0.84418 0.0
C4742 C 0.13659 0.29006 0.86184 0.0
C4743 C 0.11612 0.2703 0.83702 0.0
C4744 C 0.11239 0.25984 0.81863 0.0
C4745 C 0.12062 0.24546 0.81404 0.0
C4746 C 0.11723 0.23588 0.79659 0.0
C4747 C 0.10551 0.24044 0.78366 0.0
C4748 C 0.09712 0.25455 0.78817 0.0
C4749 C 0.10049 0.26419 0.8056 0.0
H4750 H 0.10291 0.233 0.77015 0.0
H4751 H 0.13512 0.32851 0.93846 0.0
H4752 H 0.53036 0.70027 0.89838 0.0
H4753 H 0.528 0.6693 0.91161 0.0
H4754 H 0.55493 0.70042 0.96202 0.0
H4755 H 0.55787 0.73089 0.94873 0.0
H4756 H 0.56738 0.67331 0.95979 0.0
H4757 H 0.50471 0.67063 0.95057 0.0
H4758 H 0.47619 0.66995 0.9334 0.0
H4759 H 0.47748 0.61943 0.90053 0.0
H4760 H 0.50617 0.62 0.91731 0.0
H4761 H 0.54795 0.59644 0.01877 0.0
H4762 H 0.54834 0.62483 0.00239 0.0
H4763 H 0.52871 0.58823 0.95279 0.0
H4764 H 0.52821 0.55956 0.96928 0.0
H4765 H 0.51279 0.6164 0.95273 0.0
H4766 H 0.57461 0.61848 0.96254 0.0
H4767 H 0.60234 0.61805 0.98053 0.0
H4768 H 0.60207 0.66936 0.01275 0.0
H4769 H 0.57415 0.66992 0.99512 0.0
C4770 C 0.53566 0.70058 0.91233 0.0
C4771 C 0.5443 0.71865 0.92225 0.0
C4772 C 0.53423 0.68259 0.9201 0.0
C4773 C 0.54108 0.68174 0.93828 0.0
C4774 C 0.5495 0.69988 0.94807 0.0
C4775 C 0.5511 0.71767 0.94032 0.0
C4776 C 0.54013 0.66257 0.94721 0.0
C4777 C 0.55519 0.66114 0.95831 0.0
C4778 C 0.52473 0.64571 0.9453 0.0
C4779 C 0.50771 0.64555 0.935 0.0
C4780 C 0.499 0.65951 0.93954 0.0
C4781 C 0.4828 0.65912 0.9299 0.0
C4782 C 0.47507 0.64472 0.91582 0.0
C4783 C 0.48352 0.63063 0.91138 0.0
C4784 C 0.49976 0.63099 0.92094 0.0
C4785 C 0.54366 0.59422 0.00436 0.0
C4786 C 0.53808 0.57522 0.99563 0.0
C4787 C 0.54401 0.61076 0.99482 0.0
C4788 C 0.53883 0.60933 0.97594 0.0
C4789 C 0.53289 0.5903 0.96722 0.0
C4790 C 0.53265 0.57369 0.97677 0.0
C4791 C 0.53982 0.62753 0.96555 0.0
C4792 C 0.52488 0.6287 0.95417 0.0
C4793 C 0.55529 0.6442 0.96721 0.0
C4794 C 0.57221 0.64413 0.97763 0.0
C4795 C 0.58041 0.62961 0.97353 0.0
C4796 C 0.59616 0.62935 0.98366 0.0
C4797 C 0.60394 0.64364 0.9978 0.0
C4798 C 0.59602 0.65828 0.0018 0.0
C4799 C 0.58023 0.65859 0.99174 0.0
H4800 H 0.61613 0.64339 0.00565 0.0
H4801 H 0.4625 0.64443 0.9084 0.0
H4802 H 0.111 0.78749 0.6639 0.0
H4803 H 0.13874 0.78556 0.67971 0.0
H4804 H 0.11454 0.7838 0.73058 0.0
H4805 H 0.08612 0.78571 0.71451 0.0
H4806 H 0.15049 0.80614 0.73646 0.0
H4807 H 0.12243 0.74279 0.7087 0.0
H4808 H 0.10726 0.71756 0.68419 0.0
H4809 H 0.15373 0.73467 0.65358 0.0
H4810 H 0.1691 0.76022 0.67781 0.0
H4811 H 0.22242 0.77068 0.77972 0.0
H4812 H 0.19304 0.77331 0.76727 0.0
H4813 H 0.21526 0.78788 0.7164 0.0
H4814 H 0.24482 0.78613 0.72905 0.0
H4815 H 0.17948 0.75826 0.71224 0.0
H4816 H 0.20751 0.82167 0.74085 0.0
H4817 H 0.22189 0.84727 0.76528 0.0
H4818 H 0.17486 0.82965 0.79501 0.0
H4819 H 0.16034 0.80358 0.77096 0.0
C4820 C 0.11125 0.78668 0.67849 0.0
C4821 C 0.09566 0.78676 0.68757 0.0
C4822 C 0.12747 0.78545 0.68767 0.0
C4823 C 0.12936 0.78428 0.70665 0.0
C4824 C 0.11395 0.78463 0.71599 0.0
C4825 C 0.09743 0.78566 0.70667 0.0
C4826 C 0.14726 0.78252 0.71617 0.0
C4827 C 0.15653 0.79536 0.73128 0.0
C4828 C 0.156 0.76886 0.70963 0.0
C4829 C 0.14685 0.75355 0.695 0.0
C4830 C 0.12936 0.74128 0.69668 0.0
C4831 C 0.12073 0.72691 0.68285 0.0
C4832 C 0.1295 0.72455 0.66732 0.0
C4833 C 0.14694 0.73654 0.66561 0.0
C4834 C 0.15563 0.75096 0.6794 0.0
C4835 C 0.2212 0.77455 0.76589 0.0
C4836 C 0.23649 0.77818 0.75561 0.0
C4837 C 0.20417 0.77611 0.75869 0.0
C4838 C 0.20135 0.78083 0.74064 0.0
C4839 C 0.21656 0.78421 0.73029 0.0
C4840 C 0.23371 0.78323 0.73766 0.0
C4841 C 0.18274 0.7819 0.73246 0.0
C4842 C 0.17337 0.76894 0.71754 0.0
C4843 C 0.1739 0.79534 0.7393 0.0
C4844 C 0.18293 0.81042 0.7542 0.0
C4845 C 0.20034 0.82299 0.75274 0.0
C4846 C 0.2085 0.83766 0.76649 0.0
C4847 C 0.19932 0.84005 0.78171 0.0
C4848 C 0.18199 0.82773 0.78324 0.0
C4849 C 0.17379 0.81298 0.76956 0.0
H4850 H 0.20561 0.8515 0.79228 0.0
H4851 H 0.1228 0.7134 0.65663 0.0
H4852 H 0.05318 0.31964 0.43583 0.0
H4853 H 0.0543 0.34973 0.45413 0.0
H4854 H 0.03752 0.37289 0.4061 0.0
H4855 H 0.03667 0.34342 0.388 0.0
H4856 H 0.06119 0.40143 0.42427 0.0
H4857 H 0.00881 0.35401 0.44282 0.0
H4858 H 0.99269 0.32367 0.45549 0.0
H4859 H 0.02674 0.34138 0.50542 0.0
H4860 H 0.0432 0.37173 0.49295 0.0
H4861 H 0.03658 0.4814 0.46593 0.0
H4862 H 0.03751 0.45142 0.44922 0.0
H4863 H 0.0514 0.43007 0.49952 0.0
H4864 H 0.05 0.45974 0.51626 0.0
H4865 H 0.03041 0.40067 0.48106 0.0
H4866 H 0.08343 0.44615 0.46409 0.0
H4867 H 0.10157 0.47654 0.45294 0.0
H4868 H 0.06862 0.4632 0.40226 0.0
H4869 H 0.05038 0.43248 0.41298 0.0
C4870 C 0.04978 0.33112 0.42912 0.0
C4871 C 0.04479 0.32861 0.41018 0.0
C4872 C 0.05028 0.34849 0.43971 0.0
C4873 C 0.04577 0.36406 0.43183 0.0
C4874 C 0.04112 0.36155 0.41291 0.0
C4875 C 0.04058 0.34435 0.40243 0.0
C4876 C 0.04574 0.38285 0.44287 0.0
C4877 C 0.05421 0.40106 0.43656 0.0
C4878 C 0.03725 0.38316 0.45938 0.0
C4879 C 0.02734 0.36501 0.46689 0.0
C4880 C 0.01292 0.35136 0.45646 0.0
C4881 C 1.00372 0.33418 0.46361 0.0
C4882 C 0.00872 0.33058 0.48123 0.0
C4883 C 0.0229 0.34418 0.49176 0.0
C4884 C 0.03217 0.36137 0.48467 0.0
C4885 C 0.03988 0.4704 0.47352 0.0
C4886 C 0.04323 0.47343 0.49267 0.0
C4887 C 0.04057 0.45308 0.46383 0.0
C4888 C 0.04484 0.43801 0.47277 0.0
C4889 C 0.04806 0.44104 0.49191 0.0
C4890 C 0.04732 0.4583 0.5016 0.0
C4891 C 0.04572 0.41921 0.46238 0.0
C4892 C 0.0374 0.40103 0.46878 0.0
C4893 C 0.05457 0.41892 0.4461 0.0
C4894 C 0.06551 0.43711 0.43938 0.0
C4895 C 0.08005 0.44969 0.45056 0.0
C4896 C 0.09038 0.46691 0.44428 0.0
C4897 C 0.08629 0.4717 0.42684 0.0
C4898 C 0.07184 0.4593 0.41565 0.0
C4899 C 0.06155 0.44195 0.42179 0.0
H4900 H 0.09435 0.485 0.42199 0.0
H4901 H 1.00158 0.31726 0.48675 0.0
H4902 H 0.49175 0.2824 0.21485 0.0
H4903 H 0.46477 0.28229 0.23098 0.0
H4904 H 0.43407 0.27872 0.1796 0.0
H4905 H 0.46066 0.27941 0.16381 0.0
H4906 H 0.42122 0.29909 0.19832 0.0
H4907 H 0.43033 0.23936 0.21361 0.0
H4908 H 0.44642 0.21754 0.22603 0.0
H4909 H 0.45302 0.24823 0.27884 0.0
H4910 H 0.43713 0.27038 0.26667 0.0
H4911 H 0.33092 0.26495 0.23022 0.0
H4912 H 0.35962 0.26568 0.21744 0.0
H4913 H 0.38893 0.29384 0.26781 0.0
H4914 H 0.36023 0.29387 0.28042 0.0
H4915 H 0.40273 0.26188 0.25141 0.0
H4916 H 0.39132 0.32033 0.23491 0.0
H4917 H 0.37309 0.3397 0.22168 0.0
H4918 H 0.36906 0.30837 0.16954 0.0
H4919 H 0.38705 0.28859 0.18256 0.0
C4920 C 0.47928 0.2815 0.20691 0.0
C4921 C 0.47903 0.28089 0.18765 0.0
C4922 C 0.46349 0.2813 0.21626 0.0
C4923 C 0.44649 0.28028 0.20691 0.0
C4924 C 0.44644 0.27965 0.18775 0.0
C4925 C 0.46206 0.27994 0.17851 0.0
C4926 C 0.42895 0.28018 0.21649 0.0
C4927 C 0.41734 0.29062 0.20978 0.0
C4928 C 0.42306 0.26968 0.23188 0.0
C4929 C 0.4328 0.25666 0.23919 0.0
C4930 C 0.43537 0.24155 0.22783 0.0
C4931 C 0.44441 0.22911 0.23483 0.0
C4932 C 0.4508 0.23155 0.2532 0.0
C4933 C 0.44811 0.2464 0.26461 0.0
C4934 C 0.43909 0.2589 0.25767 0.0
C4935 C 0.34339 0.27131 0.23874 0.0
C4936 C 0.3427 0.27933 0.25661 0.0
C4937 C 0.36006 0.27174 0.23128 0.0
C4938 C 0.37707 0.27975 0.2414 0.0
C4939 C 0.3764 0.28742 0.25939 0.0
C4940 C 0.35974 0.28748 0.26669 0.0
C4941 C 0.39522 0.28057 0.23303 0.0
C4942 C 0.4068 0.27029 0.23995 0.0
C4943 C 0.40098 0.29094 0.21765 0.0
C4944 C 0.39033 0.30285 0.20975 0.0
C4945 C 0.3864 0.31746 0.22066 0.0
C4946 C 0.37614 0.32853 0.2132 0.0
C4947 C 0.36987 0.32523 0.19479 0.0
C4948 C 0.3739 0.31089 0.1838 0.0
C4949 C 0.38414 0.29975 0.19121 0.0
H4950 H 0.36191 0.33381 0.18904 0.0
H4951 H 0.45778 0.22189 0.25859 0.0
H4952 H 0.65423 0.56137 0.3642 0.0
H4953 H 0.62895 0.56003 0.38272 0.0
H4954 H 0.62548 0.50091 0.39255 0.0
H4955 H 0.64985 0.50189 0.37284 0.0
H4956 H 0.59395 0.50267 0.38345 0.0
H4957 H 0.64354 0.54208 0.42549 0.0
H4958 H 0.67 0.57015 0.43544 0.0
H4959 H 0.63802 0.60866 0.42633 0.0
H4960 H 0.61142 0.5808 0.41613 0.0
H4961 H 0.56869 0.4982 0.47517 0.0
H4962 H 0.58393 0.50105 0.44703 0.0
H4963 H 0.55019 0.53421 0.42617 0.0
H4964 H 0.53428 0.53067 0.45399 0.0
H4965 H 0.59489 0.54953 0.43562 0.0
H4966 H 0.54363 0.5069 0.39944 0.0
H4967 H 0.51806 0.47721 0.39257 0.0
H4968 H 0.55473 0.44279 0.39404 0.0
H4969 H 0.5805 0.47227 0.40125 0.0
C4970 C 0.6483 0.54832 0.37077 0.0
C4971 C 0.65393 0.5318 0.36751 0.0
C4972 C 0.63387 0.54752 0.38124 0.0
C4973 C 0.62542 0.5304 0.38906 0.0
C4974 C 0.63174 0.5142 0.38649 0.0
C4975 C 0.64575 0.51481 0.37552 0.0
C4976 C 0.60955 0.52892 0.39937 0.0
C4977 C 0.5942 0.5129 0.3949 0.0
C4978 C 0.6096 0.54269 0.4138 0.0
C4979 C 0.62559 0.55941 0.41981 0.0
C4980 C 0.64221 0.55655 0.42546 0.0
C4981 C 0.65721 0.57241 0.43118 0.0
C4982 C 0.65571 0.59118 0.43145 0.0
C4983 C 0.63918 0.59412 0.42606 0.0
C4984 C 0.62414 0.57831 0.42032 0.0
C4985 C 0.56423 0.50561 0.46435 0.0
C4986 C 0.55051 0.51432 0.46659 0.0
C4987 C 0.57278 0.5071 0.44834 0.0
C4988 C 0.56792 0.51765 0.43468 0.0
C4989 C 0.55376 0.52574 0.43656 0.0
C4990 C 0.54482 0.52377 0.45239 0.0
C4991 C 0.57992 0.52287 0.42023 0.0
C4992 C 0.59454 0.53965 0.42384 0.0
C4993 C 0.5794 0.50958 0.40536 0.0
C4994 C 0.56397 0.49179 0.40107 0.0
C4995 C 0.54622 0.49299 0.39852 0.0
C4996 C 0.5317 0.47619 0.39451 0.0
C4997 C 0.53476 0.45811 0.39291 0.0
C4998 C 0.55237 0.4568 0.39529 0.0
C4999 C 0.56694 0.47355 0.39933 0.0
H5000 H 0.5235 0.44513 0.38979 0.0
H5001 H 0.66734 0.60344 0.43588 0.0
H5002 H 0.28226 0.89504 0.05461 0.0
H5003 H 0.29042 0.88159 0.08224 0.0
H5004 H 0.33162 0.86414 0.05529 0.0
H5005 H 0.32344 0.87734 0.02753 0.0
H5006 H 0.31206 0.83612 0.07457 0.0
H5007 H 0.34362 0.90335 0.08461 0.0
H5008 H 0.34692 0.93828 0.08578 0.0
H5009 H 0.31004 0.93231 0.12749 0.0
H5010 H 0.30627 0.89726 0.12635 0.0
H5011 H 0.34608 0.809 0.15561 0.0
H5012 H 0.34665 0.82788 0.12931 0.0
H5013 H 0.30463 0.84952 0.14955 0.0
H5014 H 0.30458 0.83147 0.17631 0.0
H5015 H 0.32871 0.87696 0.13318 0.0
H5016 H 0.29416 0.8094 0.11975 0.0
H5017 H 0.29025 0.7743 0.11822 0.0
H5018 H 0.33285 0.7813 0.08249 0.0
H5019 H 0.33715 0.81649 0.08402 0.0
C5020 C 0.29294 0.88818 0.05451 0.0
C5021 C 0.30225 0.88729 0.03893 0.0
C5022 C 0.29769 0.88067 0.07033 0.0
C5023 C 0.31184 0.87225 0.07084 0.0
C5024 C 0.32075 0.87074 0.05516 0.0
C5025 C 0.31603 0.87825 0.03932 0.0
C5026 C 0.31716 0.86477 0.08773 0.0
C5027 C 0.31604 0.84512 0.08732 0.0
C5028 C 0.32211 0.87653 0.10435 0.0
C5029 C 0.32455 0.89765 0.10529 0.0
C5030 C 0.33611 0.90946 0.09395 0.0
C5031 C 0.33808 0.92929 0.09461 0.0
C5032 C 0.32867 0.93751 0.10668 0.0
C5033 C 0.31731 0.92592 0.11814 0.0
C5034 C 0.31527 0.90607 0.1175 0.0
C5035 C 0.33726 0.81813 0.1547 0.0
C5036 C 0.32502 0.81845 0.16787 0.0
C5037 C 0.33754 0.82882 0.13961 0.0
C5038 C 0.32542 0.83975 0.13735 0.0
C5039 C 0.314 0.84104 0.151 0.0
C5040 C 0.3138 0.8305 0.16615 0.0
C5041 C 0.32331 0.84825 0.12003 0.0
C5042 C 0.325 0.86806 0.12036 0.0
C5043 C 0.31886 0.83667 0.10329 0.0
C5044 C 0.31609 0.81554 0.10215 0.0
C5045 C 0.30275 0.80344 0.11165 0.0
C5046 C 0.30046 0.78355 0.11078 0.0
C5047 C 0.31133 0.77558 0.10031 0.0
C5048 C 0.32446 0.78749 0.09063 0.0
C5049 C 0.32682 0.8074 0.09148 0.0
H5050 H 0.30955 0.76017 0.09966 0.0
H5051 H 0.3302 0.95286 0.10717 0.0
H5052 H 0.95048 0.50203 0.83833 0.0
H5053 H 0.97191 0.50141 0.86388 0.0
H5054 H 0.97897 0.5618 0.87901 0.0
H5055 H 0.95754 0.56257 0.85361 0.0
H5056 H 0.01145 0.55276 0.87782 0.0
H5057 H 0.95464 0.53162 0.90305 0.0
H5058 H 0.92314 0.51178 0.90474 0.0
H5059 H 0.94044 0.46075 0.90707 0.0
H5060 H 0.97207 0.48029 0.90509 0.0
H5061 H 0.03465 0.56438 0.97375 0.0
H5062 H 0.02115 0.56218 0.94259 0.0
H5063 H 0.03294 0.50825 0.93079 0.0
H5064 H 0.04705 0.5107 0.9619 0.0
H5065 H 0.99338 0.51079 0.92812 0.0
H5066 H 0.05239 0.5361 0.90724 0.0
H5067 H 0.08299 0.55911 0.90863 0.0
H5068 H 0.06026 0.60586 0.90144 0.0
H5069 H 0.0295 0.58314 0.90029 0.0
C5070 C 0.95655 0.51513 0.84717 0.0
C5071 C 0.95238 0.53233 0.84407 0.0
C5072 C 0.96874 0.51475 0.86168 0.0
C5073 C 0.97695 0.53158 0.87314 0.0
C5074 C 0.97277 0.54874 0.87015 0.0
C5075 C 0.96045 0.54909 0.85576 0.0
C5076 C 0.98982 0.53131 0.88842 0.0
C5077 C 0.00755 0.54359 0.88883 0.0
C5078 C 0.98463 0.51918 0.90257 0.0
C5079 C 0.96566 0.50735 0.90361 0.0
C5080 C 0.9517 0.51613 0.90369 0.0
C5081 C 0.93383 0.50495 0.90475 0.0
C5082 C 0.92978 0.485 0.90592 0.0
C5083 C 0.9436 0.4762 0.90609 0.0
C5084 C 0.9615 0.48731 0.905 0.0
C5085 C 0.03485 0.5524 0.9643 0.0
C5086 C 0.04181 0.53771 0.96996 0.0
C5087 C 0.02721 0.55117 0.94661 0.0
C5088 C 0.02619 0.53509 0.93463 0.0
C5089 C 0.03385 0.52081 0.93998 0.0
C5090 C 0.04192 0.52227 0.95759 0.0
C5091 C 0.01497 0.53219 0.91747 0.0
C5092 C 0.99744 0.51948 0.91681 0.0
C5093 C 0.02021 0.54426 0.90335 0.0
C5094 C 0.03865 0.55794 0.90378 0.0
C5095 C 0.05392 0.55131 0.90609 0.0
C5096 C 0.07129 0.56429 0.90681 0.0
C5097 C 0.07357 0.58394 0.90515 0.0
C5098 C 0.05847 0.59063 0.90272 0.0
C5099 C 0.04106 0.5777 0.90201 0.0
H5100 H 0.08704 0.59398 0.90572 0.0
H5101 H 0.91593 0.47637 0.90676 0.0
H5102 H 0.26394 0.22319 0.5632 0.0
H5103 H 0.26638 0.23684 0.59466 0.0
H5104 H 0.31662 0.2236 0.60512 0.0
H5105 H 0.31426 0.20981 0.57362 0.0
H5106 H 0.29369 0.21143 0.63123 0.0
H5107 H 0.31643 0.26989 0.60235 0.0
H5108 H 0.31617 0.29359 0.5799 0.0
H5109 H 0.2675 0.30132 0.59932 0.0
H5110 H 0.26732 0.27744 0.62172 0.0
H5111 H 0.31826 0.26169 0.71853 0.0
H5112 H 0.318 0.25197 0.68633 0.0
H5113 H 0.2675 0.26458 0.67556 0.0
H5114 H 0.26764 0.27449 0.70785 0.0
H5115 H 0.29092 0.27748 0.6496 0.0
H5116 H 0.26759 0.2187 0.67779 0.0
H5117 H 0.26748 0.19496 0.70029 0.0
H5118 H 0.31675 0.18765 0.68205 0.0
H5119 H 0.31729 0.21158 0.65961 0.0
C5120 C 0.27564 0.22337 0.5721 0.0
C5121 C 0.2889 0.21538 0.56583 0.0
C5122 C 0.27703 0.23125 0.59011 0.0
C5123 C 0.29172 0.23133 0.60229 0.0
C5124 C 0.30516 0.22369 0.59599 0.0
C5125 C 0.30383 0.2159 0.57793 0.0
C5126 C 0.29262 0.23861 0.62176 0.0
C5127 C 0.29339 0.22599 0.63524 0.0
C5128 C 0.2917 0.25741 0.62704 0.0
C5129 C 0.29177 0.27175 0.61359 0.0
C5130 C 0.30558 0.27652 0.60173 0.0
C5131 C 0.30553 0.29001 0.58903 0.0
C5132 C 0.2918 0.29892 0.58815 0.0
C5133 C 0.27811 0.29439 0.6 0.0
C5134 C 0.27809 0.28089 0.6127 0.0
C5135 C 0.30707 0.26249 0.70939 0.0
C5136 C 0.29287 0.26875 0.71595 0.0
C5137 C 0.30694 0.25684 0.69093 0.0
C5138 C 0.29261 0.25729 0.67852 0.0
C5139 C 0.27867 0.26405 0.68488 0.0
C5140 C 0.27875 0.26964 0.70339 0.0
C5141 C 0.29206 0.25033 0.65903 0.0
C5142 C 0.2913 0.26296 0.64557 0.0
C5143 C 0.29291 0.23151 0.65373 0.0
C5144 C 0.29257 0.21706 0.66714 0.0
C5145 C 0.27848 0.21214 0.67868 0.0
C5146 C 0.27833 0.19864 0.69141 0.0
C5147 C 0.29213 0.18984 0.69264 0.0
C5148 C 0.30608 0.19449 0.6811 0.0
C5149 C 0.30631 0.20802 0.66837 0.0
H5150 H 0.29198 0.17938 0.7025 0.0
H5151 H 0.29178 0.30937 0.57832 0.0
H5152 H 0.60669 0.53195 0.29346 0.0
H5153 H 0.59132 0.53667 0.26499 0.0
H5154 H 0.62219 0.50646 0.23474 0.0
H5155 H 0.63796 0.50223 0.26308 0.0
H5156 H 0.62479 0.53995 0.22206 0.0
H5157 H 0.57614 0.48704 0.2378 0.0
H5158 H 0.55373 0.46922 0.25758 0.0
H5159 H 0.5296 0.51558 0.25989 0.0
H5160 H 0.55203 0.5338 0.24031 0.0
H5161 H 0.57913 0.52974 0.13486 0.0
H5162 H 0.5908 0.52349 0.16451 0.0
H5163 H 0.56393 0.56081 0.19093 0.0
H5164 H 0.55242 0.56752 0.16117 0.0
H5165 H 0.55883 0.52518 0.20604 0.0
H5166 H 0.6075 0.5774 0.18916 0.0
H5167 H 0.62982 0.5944 0.16889 0.0
H5168 H 0.65392 0.54802 0.16827 0.0
H5169 H 0.63157 0.5306 0.18833 0.0
C5170 C 0.60988 0.52594 0.28076 0.0
C5171 C 0.62358 0.51685 0.28042 0.0
C5172 C 0.60109 0.52863 0.26451 0.0
C5173 C 0.60565 0.52194 0.24777 0.0
C5174 C 0.61859 0.51186 0.24752 0.0
C5175 C 0.62753 0.5094 0.26371 0.0
C5176 C 0.59816 0.52682 0.23045 0.0
C5177 C 0.61036 0.53645 0.21845 0.0
C5178 C 0.57936 0.52281 0.22603 0.0
C5179 C 0.56585 0.51185 0.23774 0.0
C5180 C 0.56614 0.4935 0.24265 0.0
C5181 C 0.55342 0.48331 0.2538 0.0
C5182 C 0.54028 0.49128 0.26003 0.0
C5183 C 0.5398 0.50944 0.25508 0.0
C5184 C 0.5525 0.51969 0.24394 0.0
C5185 C 0.57592 0.53688 0.14694 0.0
C5186 C 0.56501 0.54929 0.14568 0.0
C5187 C 0.58251 0.5332 0.16386 0.0
C5188 C 0.5783 0.54183 0.17981 0.0
C5189 C 0.56726 0.55404 0.17869 0.0
C5190 C 0.5607 0.55781 0.16173 0.0
C5191 C 0.58548 0.53796 0.19764 0.0
C5192 C 0.57325 0.52864 0.20973 0.0
C5193 C 0.60426 0.54212 0.20211 0.0
C5194 C 0.61777 0.55263 0.19013 0.0
C5195 C 0.61747 0.57076 0.18458 0.0
C5196 C 0.63014 0.58048 0.17315 0.0
C5197 C 0.64325 0.57228 0.16726 0.0
C5198 C 0.64375 0.55435 0.17283 0.0
C5199 C 0.63109 0.54455 0.18424 0.0
H5200 H 0.65306 0.57983 0.15842 0.0
H5201 H 0.53044 0.48337 0.26866 0.0
H5202 H 0.32227 0.89104 0.96078 0.0
H5203 H 0.31917 0.86933 0.9334 0.0
H5204 H 0.26967 0.88131 0.91555 0.0
H5205 H 0.27216 0.90207 0.94361 0.0
H5206 H 0.26491 0.84513 0.91036 0.0
H5207 H 0.31274 0.90117 0.89715 0.0
H5208 H 0.34222 0.92634 0.9027 0.0
H5209 H 0.36938 0.88249 0.90382 0.0
H5210 H 0.34005 0.85707 0.89848 0.0
H5211 H 0.27071 0.82153 0.81334 0.0
H5212 H 0.27214 0.84004 0.84265 0.0
H5213 H 0.29734 0.80202 0.86923 0.0
H5214 H 0.29545 0.78307 0.84022 0.0
H5215 H 0.3146 0.84961 0.8702 0.0
H5216 H 0.26647 0.79389 0.88448 0.0
H5217 H 0.23694 0.76897 0.87829 0.0
H5218 H 0.21053 0.81326 0.87436 0.0
H5219 H 0.23999 0.83845 0.88021 0.0
C5220 C 0.3108 0.8891 0.95092 0.0
C5221 C 0.29747 0.89819 0.95413 0.0
C5222 C 0.3091 0.8768 0.93525 0.0
C5223 C 0.29436 0.87398 0.92226 0.0
C5224 C 0.28115 0.88329 0.9254 0.0
C5225 C 0.28258 0.89515 0.94135 0.0
C5226 C 0.29232 0.86077 0.9057 0.0
C5227 C 0.27575 0.84633 0.90149 0.0
C5228 C 0.30659 0.86193 0.89437 0.0
C5229 C 0.3242 0.87723 0.89757 0.0
C5230 C 0.325 0.8969 0.8987 0.0
C5231 C 0.34168 0.91121 0.90179 0.0
C5232 C 0.35766 0.90602 0.90365 0.0
C5233 C 0.35699 0.8865 0.90239 0.0
C5234 C 0.34035 0.87214 0.89932 0.0
C5235 C 0.27629 0.81698 0.8255 0.0
C5236 C 0.28293 0.80091 0.82461 0.0
C5237 C 0.27706 0.82748 0.84214 0.0
C5238 C 0.28473 0.82218 0.85791 0.0
C5239 C 0.29121 0.80608 0.85712 0.0
C5240 C 0.29009 0.79531 0.84059 0.0
C5241 C 0.28725 0.83442 0.87496 0.0
C5242 C 0.30388 0.84859 0.87918 0.0
C5243 C 0.27307 0.83309 0.88625 0.0
C5244 C 0.25543 0.81801 0.88246 0.0
C5245 C 0.2544 0.7983 0.882 0.0
C5246 C 0.23767 0.78413 0.87864 0.0
C5247 C 0.22187 0.78952 0.87586 0.0
C5248 C 0.22278 0.8091 0.87647 0.0
C5249 C 0.23948 0.82332 0.8798 0.0
H5250 H 0.20892 0.77853 0.87329 0.0
H5251 H 0.37056 0.91711 0.90604 0.0
H5252 H 0.95794 0.53005 0.77059 0.0
H5253 H 0.97442 0.52487 0.74476 0.0
H5254 H 0.99902 0.58653 0.7451 0.0
H5255 H 0.9824 0.5918 0.77134 0.0
H5256 H 0.98016 0.5676 0.71157 0.0
H5257 H 0.02559 0.56017 0.75516 0.0
H5258 H 0.03686 0.54746 0.78219 0.0
H5259 H 0.01495 0.48945 0.75728 0.0
H5260 H 1.00332 0.50176 0.73021 0.0
H5261 H 0.02495 0.54957 0.63492 0.0
H5262 H 0.01901 0.56117 0.66493 0.0
H5263 H 0.99676 0.50219 0.67806 0.0
H5264 H 1.00272 0.49047 0.64799 0.0
H5265 H 0.01868 0.52391 0.70588 0.0
H5266 H 0.96924 0.52812 0.66625 0.0
H5267 H 0.95423 0.53751 0.63946 0.0
H5268 H 0.9792 0.59755 0.65701 0.0
H5269 H 0.99459 0.5885 0.68378 0.0
C5270 C 0.96705 0.54249 0.76531 0.0
C5271 C 0.96883 0.56133 0.77268 0.0
C5272 C 0.97657 0.5395 0.7507 0.0
C5273 C 0.98796 0.55532 0.74316 0.0
C5274 C 0.99033 0.57418 0.75091 0.0
C5275 C 0.98093 0.57717 0.76582 0.0
C5276 C 0.99556 0.55191 0.72599 0.0
C5277 C 0.98905 0.55854 0.71033 0.0
C5278 C 1.00642 0.53934 0.72445 0.0
C5279 C 0.01355 0.5319 0.74066 0.0
C5280 C 0.02308 0.54469 0.75549 0.0
C5281 C 0.02955 0.53756 0.77081 0.0
C5282 C 0.02662 0.51766 0.77145 0.0
C5283 C 0.01723 0.50486 0.75676 0.0
C5284 C 0.01073 0.51191 0.74141 0.0
C5285 C 0.01868 0.53909 0.64417 0.0
C5286 C 0.01416 0.51913 0.63915 0.0
C5287 C 0.01536 0.54573 0.66129 0.0
C5288 C 0.00734 0.53252 0.67359 0.0
C5289 C 1.00304 0.51258 0.66872 0.0
C5290 C 1.00643 0.50592 0.6516 0.0
C5291 C 1.00318 0.53951 0.69146 0.0
C5292 C 0.01021 0.53341 0.70715 0.0
C5293 C 0.99238 0.55214 0.69302 0.0
C5294 C 0.98324 0.55764 0.67689 0.0
C5295 C 0.97168 0.54332 0.66429 0.0
C5296 C 0.96307 0.54859 0.64913 0.0
C5297 C 0.96581 0.56812 0.6465 0.0
C5298 C 0.97713 0.58243 0.65904 0.0
C5299 C 0.9858 0.57724 0.67421 0.0
H5300 H 0.95912 0.57218 0.63476 0.0
H5301 H 0.03163 0.51216 0.78333 0.0
H5302 H 0.29392 0.24148 0.47731 0.0
H5303 H 0.29478 0.25004 0.44585 0.0
H5304 H 0.30097 0.19454 0.4286 0.0
H5305 H 0.30039 0.18595 0.46011 0.0
H5306 H 0.32276 0.22275 0.4112 0.0
H5307 H 0.2602 0.20301 0.42214 0.0
H5308 H 0.23349 0.20295 0.43856 0.0
H5309 H 0.24188 0.26296 0.43032 0.0
H5310 H 0.2688 0.26344 0.41407 0.0
H5311 H 0.29967 0.23209 0.31612 0.0
H5312 H 0.3006 0.22024 0.34654 0.0
H5313 H 0.29599 0.27424 0.37046 0.0
H5314 H 0.29506 0.28608 0.34051 0.0
H5315 H 0.2725 0.24394 0.38353 0.0
H5316 H 0.33574 0.26408 0.37383 0.0
H5317 H 0.36264 0.26438 0.35765 0.0
H5318 H 0.35292 0.20368 0.3634 0.0
H5319 H 0.32579 0.20298 0.3794 0.0
C5320 C 0.29552 0.23109 0.46686 0.0
C5321 C 0.29696 0.21297 0.47129 0.0
C5322 C 0.29595 0.23599 0.44883 0.0
C5323 C 0.2977 0.22284 0.43474 0.0
C5324 C 0.29958 0.20492 0.43917 0.0
C5325 C 0.29917 0.20001 0.45723 0.0
C5326 C 0.29718 0.22767 0.4154 0.0
C5327 C 0.31163 0.2271 0.40506 0.0
C5328 C 0.2828 0.23358 0.40736 0.0
C5329 C 0.26658 0.2333 0.41702 0.0
C5330 C 0.25641 0.21622 0.42394 0.0
C5331 C 0.24123 0.21611 0.4332 0.0
C5332 C 0.23601 0.23295 0.43551 0.0
C5333 C 0.24595 0.24993 0.42853 0.0
C5334 C 0.26116 0.25013 0.41929 0.0
C5335 C 0.29897 0.24146 0.32789 0.0
C5336 C 0.29727 0.26004 0.32579 0.0
C5337 C 0.29954 0.23469 0.34528 0.0
C5338 C 0.29835 0.24636 0.36084 0.0
C5339 C 0.29683 0.26492 0.35871 0.0
C5340 C 0.29636 0.27169 0.34148 0.0
C5341 C 0.29822 0.23935 0.37941 0.0
C5342 C 0.28358 0.23947 0.38961 0.0
C5343 C 0.31241 0.23303 0.38726 0.0
C5344 C 0.32864 0.23342 0.3776 0.0
C5345 C 0.33924 0.25076 0.37148 0.0
C5346 C 0.35455 0.25101 0.36238 0.0
C5347 C 0.35945 0.23404 0.35944 0.0
C5348 C 0.34908 0.2168 0.36565 0.0
C5349 C 0.33375 0.21647 0.37474 0.0
H5350 H 0.37132 0.23427 0.35241 0.0
H5351 H 0.22425 0.23284 0.44269 0.0
H5352 H 0.35555 0.61702 0.56604 0.0
H5353 H 0.3744 0.59865 0.5529 0.0
H5354 H 0.33312 0.57458 0.50883 0.0
H5355 H 0.31422 0.59265 0.52181 0.0
H5356 H 0.34689 0.5474 0.52251 0.0
H5357 H 0.3681 0.60978 0.50104 0.0
H5358 H 0.37915 0.64541 0.50335 0.0
H5359 H 0.42636 0.64431 0.5364 0.0
H5360 H 0.41542 0.60864 0.53457 0.0
H5361 H 0.40698 0.51015 0.47178 0.0
H5362 H 0.38715 0.5305 0.47796 0.0
H5363 H 0.4192 0.554 0.52857 0.0
H5364 H 0.43875 0.53364 0.52256 0.0
H5365 H 0.4088 0.5819 0.5073 0.0
H5366 H 0.38446 0.51943 0.53174 0.0
H5367 H 0.37334 0.48377 0.52872 0.0
H5368 H 0.33179 0.48546 0.48814 0.0
H5369 H 0.34288 0.52118 0.49075 0.0
C5370 C 0.35049 0.60773 0.55362 0.0
C5371 C 0.33353 0.60637 0.54487 0.0
C5372 C 0.36125 0.59735 0.54612 0.0
C5373 C 0.35513 0.58553 0.52983 0.0
C5374 C 0.33802 0.58371 0.52138 0.0
C5375 C 0.32731 0.59411 0.5288 0.0
C5376 C 0.36667 0.57517 0.52146 0.0
C5377 C 0.36031 0.55495 0.51888 0.0
C5378 C 0.38412 0.58511 0.51676 0.0
C5379 C 0.39084 0.60654 0.51783 0.0
C5380 C 0.38076 0.61713 0.50895 0.0
C5381 C 0.38701 0.63734 0.51015 0.0
C5382 C 0.40342 0.64712 0.52006 0.0
C5383 C 0.41363 0.63671 0.52876 0.0
C5384 C 0.40741 0.61649 0.52763 0.0
C5385 C 0.40974 0.51981 0.48409 0.0
C5386 C 0.42401 0.52028 0.49688 0.0
C5387 C 0.39856 0.53138 0.48757 0.0
C5388 C 0.40184 0.5436 0.5037 0.0
C5389 C 0.41658 0.54463 0.51606 0.0
C5390 C 0.42757 0.53295 0.51271 0.0
C5391 C 0.38914 0.55418 0.50867 0.0
C5392 C 0.39528 0.57442 0.51063 0.0
C5393 C 0.37144 0.54429 0.51264 0.0
C5394 C 0.36461 0.5229 0.51128 0.0
C5395 C 0.37304 0.51217 0.52208 0.0
C5396 C 0.36673 0.49197 0.52046 0.0
C5397 C 0.3519 0.48235 0.50821 0.0
C5398 C 0.3433 0.49293 0.4976 0.0
C5399 C 0.34958 0.51315 0.49914 0.0
H5400 H 0.34703 0.4667 0.50697 0.0
H5401 H 0.40824 0.66277 0.52098 0.0
H5402 H 0.85656 0.88044 0.52648 0.0
H5403 H 0.88605 0.90293 0.52263 0.0
H5404 H 0.86449 0.95108 0.5314 0.0
H5405 H 0.83464 0.92848 0.53436 0.0
H5406 H 0.88541 0.95851 0.50592 0.0
H5407 H 0.89235 0.93803 0.56489 0.0
H5408 H 0.89102 0.91541 0.58869 0.0
H5409 H 0.92788 0.89113 0.56177 0.0
H5410 H 0.92924 0.91344 0.53766 0.0
H5411 H 0.97769 0.02173 0.53739 0.0
H5412 H 0.94605 1.00216 0.53723 0.0
H5413 H 0.95494 0.96076 0.49721 0.0
H5414 H 0.98651 0.98054 0.49687 0.0
H5415 H 0.94067 0.95163 0.53887 0.0
H5416 H 0.93113 0.97444 0.47867 0.0
H5417 H 0.9331 1.00078 0.4586 0.0
H5418 H 0.90147 0.02501 0.49336 0.0
H5419 H 0.89958 0.99896 0.5138 0.0
C5420 C 0.85811 0.89582 0.52766 0.0
C5421 C 0.84333 0.90271 0.53085 0.0
C5422 C 0.87502 0.90869 0.52553 0.0
C5423 C 0.87764 0.92877 0.52708 0.0
C5424 C 0.86284 0.93568 0.53017 0.0
C5425 C 0.84581 0.92276 0.53193 0.0
C5426 C 0.8958 0.94245 0.52531 0.0
C5427 C 0.89742 0.95703 0.51328 0.0
C5428 C 0.91159 0.94076 0.53495 0.0
C5429 C 0.91076 0.92728 0.54938 0.0
C5430 C 0.90006 0.92776 0.56397 0.0
C5431 C 0.89931 0.91501 0.57753 0.0
C5432 C 0.90932 0.90181 0.57672 0.0
C5433 C 0.92012 0.90135 0.56237 0.0
C5434 C 0.92089 0.91405 0.54876 0.0
C5435 C 0.97278 0.0087 0.52823 0.0
C5436 C 0.98451 1.00264 0.51713 0.0
C5437 C 0.95475 0.99757 0.52817 0.0
C5438 C 0.94829 0.98012 0.5172 0.0
C5439 C 0.95976 0.97432 0.50564 0.0
C5440 C 0.97771 0.98565 0.50541 0.0
C5441 C 0.93011 0.96706 0.5192 0.0
C5442 C 0.92855 0.95284 0.53147 0.0
C5443 C 0.91441 0.96943 0.51022 0.0
C5444 C 0.9154 0.98491 0.49785 0.0
C5445 C 0.92478 0.98551 0.48213 0.0
C5446 C 0.92584 1.00035 0.47067 0.0
C5447 C 0.91747 0.0146 0.47473 0.0
C5448 C 0.90798 0.01399 0.49024 0.0
C5449 C 0.90689 0.99919 0.50176 0.0
H5450 H 0.9183 0.02608 0.46584 0.0
H5451 H 0.90874 0.89196 0.58723 0.0
H5452 H 0.87019 0.05072 0.23652 0.0
H5453 H 0.84956 0.06562 0.25081 0.0
H5454 H 0.88957 0.12157 0.25296 0.0
H5455 H 0.91062 0.10664 0.23916 0.0
H5456 H 0.87639 0.11508 0.28492 0.0
H5457 H 0.85136 0.10818 0.22241 0.0
H5458 H 0.83834 0.09034 0.19281 0.0
H5459 H 0.79454 0.05384 0.21871 0.0
H5460 H 0.80744 0.07132 0.24851 0.0
H5461 H 0.83 0.18362 0.29165 0.0
H5462 H 0.84726 0.16098 0.28622 0.0
H5463 H 0.79985 0.11302 0.2906 0.0
H5464 H 0.78204 0.13569 0.29508 0.0
H5465 H 0.81427 0.10988 0.25955 0.0
H5466 H 0.83736 0.12359 0.32151 0.0
H5467 H 0.85089 0.14332 0.35006 0.0
H5468 H 0.89939 0.16912 0.32465 0.0
H5469 H 0.88604 0.14995 0.29581 0.0
C5470 C 0.87454 0.06625 0.23978 0.0
C5471 C 0.89206 0.07755 0.23681 0.0
C5472 C 0.8627 0.07472 0.24793 0.0
C5473 C 0.86807 0.09466 0.2529 0.0
C5474 C 0.88528 0.1061 0.2493 0.0
C5475 C 0.89722 0.0976 0.24134 0.0
C5476 C 0.85609 0.10353 0.2626 0.0
C5477 C 0.86285 0.11417 0.27935 0.0
C5478 C 0.83818 0.10144 0.25563 0.0
C5479 C 0.83047 0.09091 0.23771 0.0
C5480 C 0.83904 0.09624 0.22181 0.0
C5481 C 0.83167 0.08622 0.205 0.0
C5482 C 0.81566 0.07093 0.20389 0.0
C5483 C 0.80696 0.06566 0.21959 0.0
C5484 C 0.81429 0.07562 0.23644 0.0
C5485 C 0.8233 0.16826 0.29178 0.0
C5486 C 0.80465 0.16131 0.29345 0.0
C5487 C 0.83327 0.1554 0.28899 0.0
C5488 C 0.82491 0.13543 0.28828 0.0
C5489 C 0.80653 0.12845 0.29124 0.0
C5490 C 0.79643 0.14135 0.29387 0.0
C5491 C 0.83483 0.12222 0.28159 0.0
C5492 C 0.82767 0.11059 0.26539 0.0
C5493 C 0.85251 0.12369 0.28896 0.0
C5494 C 0.86061 0.13532 0.30639 0.0
C5495 C 0.85085 0.13358 0.32192 0.0
C5496 C 0.8585 0.14468 0.33819 0.0
C5497 C 0.87598 0.15747 0.33917 0.0
C5498 C 0.88587 0.15916 0.3239 0.0
C5499 C 0.87826 0.14816 0.30758 0.0
H5500 H 0.88188 0.16606 0.35176 0.0
H5501 H 0.80996 0.0632 0.19086 0.0
H5502 H 0.75045 0.08057 0.05548 0.0
H5503 H 0.71809 0.06368 0.05263 0.0
H5504 H 0.70874 0.10973 0.08683 0.0
H5505 H 0.74113 0.12648 0.08999 0.0
H5506 H 0.6861 0.07539 0.09263 0.0
H5507 H 0.70574 0.11082 0.04131 0.0
H5508 H 0.72402 0.12067 0.0155 0.0
H5509 H 0.705 0.06252 0.99039 0.0
H5510 H 0.68678 0.05228 0.01617 0.0
H5511 H 0.59503 0.06291 0.06192 0.0
H5512 H 0.62758 0.0755 0.06994 0.0
H5513 H 0.63628 0.03213 0.03168 0.0
H5514 H 0.60374 0.0206 0.02263 0.0
H5515 H 0.65951 0.06453 0.02858 0.0
H5516 H 0.63809 0.03034 0.08134 0.0
H5517 H 0.61867 0.02352 0.10677 0.0
H5518 H 0.64032 0.0826 0.12897 0.0
H5519 H 0.65972 0.08982 0.10358 0.0
C5520 C 0.74154 0.08683 0.06277 0.0
C5521 C 0.74819 0.10492 0.0728 0.0
C5522 C 0.72309 0.07723 0.06106 0.0
C5523 C 0.7111 0.08576 0.06913 0.0
C5524 C 0.71784 0.10301 0.08041 0.0
C5525 C 0.73633 0.11253 0.08227 0.0
C5526 C 0.69151 0.07764 0.06452 0.0
C5527 C 0.68022 0.07304 0.07864 0.0
C5528 C 0.68399 0.07464 0.04624 0.0
C5529 C 0.69507 0.08073 0.03079 0.0
C5530 C 0.70559 0.1001 0.03037 0.0
C5531 C 0.71591 0.10576 0.01573 0.0
C5532 C 0.71572 0.09222 0.00134 0.0
C5533 C 0.70517 0.07299 0.00156 0.0
C5534 C 0.69484 0.06725 0.01618 0.0
C5535 C 0.60397 0.05605 0.05537 0.0
C5536 C 0.59714 0.04077 0.04183 0.0
C5537 C 0.6225 0.06312 0.06002 0.0
C5538 C 0.63431 0.05439 0.05179 0.0
C5539 C 0.62738 0.03899 0.03829 0.0
C5540 C 0.60889 0.03238 0.03316 0.0
C5541 C 0.65398 0.0618 0.05668 0.0
C5542 C 0.66533 0.06649 0.04257 0.0
C5543 C 0.66151 0.06515 0.07498 0.0
C5544 C 0.65028 0.06061 0.09053 0.0
C5545 C 0.63868 0.04186 0.09164 0.0
C5546 C 0.62767 0.03794 0.10604 0.0
C5547 C 0.62824 0.05262 0.11946 0.0
C5548 C 0.63989 0.07124 0.11857 0.0
C5549 C 0.65092 0.07525 0.10421 0.0
H5550 H 0.61967 0.04956 0.13057 0.0
H5551 H 0.7237 0.09665 0.99001 0.0
H5552 H 0.15779 0.43454 0.25813 0.0
H5553 H 0.17785 0.41843 0.273 0.0
H5554 H 0.22416 0.46057 0.25543 0.0
H5555 H 0.20434 0.47633 0.24015 0.0
H5556 H 0.22812 0.42554 0.25268 0.0
H5557 H 0.20917 0.46507 0.29853 0.0
H5558 H 0.18593 0.47454 0.31496 0.0
H5559 H 0.16633 0.41707 0.33195 0.0
H5560 H 0.18933 0.40722 0.31542 0.0
H5561 H 0.29776 0.41212 0.30523 0.0
H5562 H 0.27717 0.42967 0.29579 0.0
H5563 H 0.23426 0.39025 0.32077 0.0
H5564 H 0.25532 0.37386 0.33245 0.0
H5565 H 0.22684 0.42182 0.31945 0.0
H5566 H 0.24498 0.38177 0.27401 0.0
H5567 H 0.26712 0.37114 0.25674 0.0
H5568 H 0.28674 0.42778 0.23793 0.0
H5569 H 0.26482 0.43876 0.2552 0.0
C5570 C 0.17223 0.44014 0.25716 0.0
C5571 C 0.17952 0.45682 0.24816 0.0
C5572 C 0.18365 0.43102 0.26577 0.0
C5573 C 0.20246 0.43864 0.26566 0.0
C5574 C 0.20967 0.45458 0.25578 0.0
C5575 C 0.1983 0.46357 0.24705 0.0
C5576 C 0.21486 0.43064 0.27635 0.0
C5577 C 0.22794 0.42486 0.2673 0.0
C5578 C 0.21427 0.4293 0.29533 0.0
C5579 C 0.20083 0.43539 0.30564 0.0
C5580 C 0.19985 0.45446 0.30573 0.0
C5581 C 0.18673 0.45988 0.31504 0.0
C5582 C 0.17464 0.44641 0.32445 0.0
C5583 C 0.1757 0.42749 0.32464 0.0
C5584 C 0.18878 0.42198 0.31532 0.0
C5585 C 0.28425 0.40753 0.30961 0.0
C5586 C 0.27813 0.39079 0.31899 0.0
C5587 C 0.27232 0.41747 0.30379 0.0
C5588 C 0.25392 0.41039 0.30647 0.0
C5589 C 0.24828 0.39545 0.31789 0.0
C5590 C 0.26036 0.38593 0.32437 0.0
C5591 C 0.24042 0.41707 0.29582 0.0
C5592 C 0.22704 0.42246 0.30483 0.0
C5593 C 0.24057 0.41786 0.27671 0.0
C5594 C 0.25343 0.41111 0.26602 0.0
C5595 C 0.25406 0.39194 0.26621 0.0
C5596 C 0.26656 0.38587 0.25643 0.0
C5597 C 0.27839 0.39881 0.24633 0.0
C5598 C 0.27761 0.41779 0.24581 0.0
C5599 C 0.26514 0.42394 0.25556 0.0
H5600 H 0.28818 0.39416 0.2389 0.0
H5601 H 0.16446 0.45063 0.33163 0.0
H5602 H 0.26217 0.41929 0.02823 0.0
H5603 H 0.24179 0.43928 0.0259 0.0
H5604 H 0.19764 0.38879 0.00645 0.0
H5605 H 0.21806 0.3687 0.00837 0.0
H5606 H 0.19688 0.41911 0.98763 0.0
H5607 H 0.20254 0.40761 0.05085 0.0
H5608 H 0.21882 0.40728 0.08053 0.0
H5609 H 0.24272 0.46885 0.08255 0.0
H5610 H 0.22675 0.4695 0.05276 0.0
H5611 H 0.12504 0.4588 0.00667 0.0
H5612 H 0.14603 0.43952 0.004 0.0
H5613 H 0.19028 0.48911 0.02535 0.0
H5614 H 0.16934 0.50814 0.02896 0.0
H5615 H 0.19101 0.4591 0.04253 0.0
H5616 H 0.18458 0.47098 0.97976 0.0
H5617 H 0.16845 0.47139 0.95002 0.0
H5618 H 0.14601 0.40958 0.94693 0.0
H5619 H 0.16182 0.40882 0.97678 0.0
C5620 C 0.24813 0.41241 0.02343 0.0
C5621 C 0.24169 0.39237 0.01863 0.0
C5622 C 0.2365 0.42386 0.02214 0.0
C5623 C 0.21815 0.41547 0.01627 0.0
C5624 C 0.21175 0.39554 0.01106 0.0
C5625 C 0.22342 0.38408 0.01224 0.0
C5626 C 0.20557 0.42742 0.01599 0.0
C5627 C 0.1954 0.42769 -0.00033 0.0
C5628 C 0.20398 0.43893 0.0316 0.0
C5629 C 0.2136 0.43856 0.0495 0.0
C5630 C 0.21138 0.42105 0.05756 0.0
C5631 C 0.22053 0.42081 0.07442 0.0
C5632 C 0.23183 0.43802 0.0834 0.0
C5633 C 0.23398 0.45552 0.07557 0.0
C5634 C 0.22487 0.45584 0.05871 0.0
C5635 C 0.13924 0.4656 0.01083 0.0
C5636 C 0.14547 0.48502 0.01811 0.0
C5637 C 0.15126 0.45462 0.00905 0.0
C5638 C 0.16975 0.46292 0.01432 0.0
C5639 C 0.17607 0.48242 0.02114 0.0
C5640 C 0.16407 0.49334 0.02305 0.0
C5641 C 0.18236 0.45099 0.01412 0.0
C5642 C 0.1925 0.45062 0.03042 0.0
C5643 C 0.18389 0.43945 0.99848 0.0
C5644 C 0.17423 0.43988 0.98061 0.0
C5645 C 0.17607 0.45749 0.97283 0.0
C5646 C 0.16701 0.45778 0.95593 0.0
C5647 C 0.15617 0.44052 0.94662 0.0
C5648 C 0.15439 0.42294 0.95417 0.0
C5649 C 0.16341 0.42257 0.97107 0.0
H5650 H 0.14918 0.44078 0.93353 0.0
H5651 H 0.2389 0.43781 0.09645 0.0
H5652 H 0.87967 0.9808 0.19881 0.0
H5653 H 0.85952 0.9483 0.20092 0.0
H5654 H 0.90317 0.9323 0.22834 0.0
H5655 H 0.92354 0.96463 0.22593 0.0
H5656 H 0.87955 0.90121 0.20885 0.0
H5657 H 0.87836 0.95079 0.25381 0.0
H5658 H 0.87611 0.98235 0.26609 0.0
H5659 H 0.8227 0.96949 0.23928 0.0
H5660 H 0.82466 0.93781 0.22681 0.0
H5661 H 0.83687 0.84218 0.27488 0.0
H5662 H 0.85446 0.87045 0.26096 0.0
H5663 H 0.80718 0.8703 0.22686 0.0
H5664 H 0.78934 0.84174 0.24058 0.0
H5665 H 0.83046 0.90798 0.2464 0.0
H5666 H 0.83316 0.85297 0.20679 0.0
H5667 H 0.83784 0.82078 0.20268 0.0
H5668 H 0.89225 0.84416 0.22714 0.0
H5669 H 0.88779 0.87643 0.23164 0.0
C5670 C 0.88511 0.97018 0.20479 0.0
C5671 C 0.90302 0.97532 0.21262 0.0
C5672 C 0.87361 0.95164 0.20595 0.0
C5673 C 0.87981 0.93817 0.21517 0.0
C5674 C 0.89816 0.94259 0.22124 0.0
C5675 C 0.90975 0.96109 0.21992 0.0
C5676 C 0.86676 0.921 0.22116 0.0
C5677 C 0.86874 0.90265 0.21694 0.0
C5678 C 0.8529 0.92299 0.23202 0.0
C5679 C 0.85176 0.94212 0.23916 0.0
C5680 C 0.86622 0.9548 0.25038 0.0
C5681 C 0.86498 0.97268 0.2574 0.0
C5682 C 0.84933 0.978 0.25335 0.0
C5683 C 0.83484 0.96538 0.24234 0.0
C5684 C 0.83599 0.94746 0.23531 0.0
C5685 C 0.83012 0.84825 0.26457 0.0
C5686 C 0.81177 0.83974 0.25871 0.0
C5687 C 0.84021 0.8643 0.25661 0.0
C5688 C 0.83206 0.87208 0.2428 0.0
C5689 C 0.81359 0.86424 0.23745 0.0
C5690 C 0.80349 0.84802 0.24529 0.0
C5691 C 0.84307 0.88829 0.23381 0.0
C5692 C 0.84085 0.9065 0.23773 0.0
C5693 C 0.85708 0.8862 0.22331 0.0
C5694 C 0.86013 0.86709 0.21958 0.0
C5695 C 0.84612 0.85123 0.21129 0.0
C5696 C 0.84872 0.83297 0.20892 0.0
C5697 C 0.86533 0.83042 0.21467 0.0
C5698 C 0.8794 0.84616 0.22268 0.0
C5699 C 0.87686 0.86445 0.2251 0.0
H5700 H 0.86731 0.81625 0.21291 0.0
H5701 H 0.84839 0.99185 0.25881 0.0
H5702 H 0.68058 0.07853 0.71238 0.0
H5703 H 0.70144 0.11079 0.72189 0.0
H5704 H 0.70621 0.0946 0.77674 0.0
H5705 H 0.68572 0.06238 0.76736 0.0
H5706 H 0.7029 0.13429 0.77208 0.0
H5707 H 0.73696 0.08996 0.75519 0.0
H5708 H 0.74283 0.0652 0.73405 0.0
H5709 H 0.75218 0.105 0.69251 0.0
H5710 H 0.74609 0.1299 0.71336 0.0
H5711 H 0.77537 0.21451 0.80038 0.0
H5712 H 0.76007 0.1796 0.79657 0.0
H5713 H 0.7629 0.18048 0.7384 0.0
H5714 H 0.77951 0.21487 0.74243 0.0
H5715 H 0.76292 0.14688 0.74727 0.0
H5716 H 0.72614 0.1894 0.76049 0.0
H5717 H 0.7199 0.21554 0.77953 0.0
H5718 H 0.71456 0.18101 0.82519 0.0
H5719 H 0.72087 0.1547 0.80639 0.0
C5720 C 0.6859 0.082 0.72649 0.0
C5721 C 0.68184 0.068 0.73909 0.0
C5722 C 0.69772 0.10033 0.73189 0.0
C5723 C 0.70529 0.10482 0.74995 0.0
C5724 C 0.70041 0.09127 0.76276 0.0
C5725 C 0.68887 0.07289 0.75734 0.0
C5726 C 0.71965 0.12295 0.75511 0.0
C5727 C 0.7161 0.13703 0.76688 0.0
C5728 C 0.73669 0.1264 0.74808 0.0
C5729 C 0.74096 0.11171 0.73577 0.0
C5730 C 0.74018 0.09338 0.74152 0.0
C5731 C 0.74355 0.07933 0.72959 0.0
C5732 C 0.74784 0.08351 0.71193 0.0
C5733 C 0.74885 0.10178 0.70619 0.0
C5734 C 0.74547 0.11587 0.71806 0.0
C5735 C 0.77317 0.20697 0.78691 0.0
C5736 C 0.77823 0.21708 0.77163 0.0
C5737 C 0.76443 0.18717 0.78471 0.0
C5738 C 0.75979 0.17767 0.76715 0.0
C5739 C 0.76624 0.18755 0.75206 0.0
C5740 C 0.77561 0.20716 0.75433 0.0
C5741 C 0.74619 0.15853 0.76409 0.0
C5742 C 0.74982 0.14416 0.75269 0.0
C5743 C 0.72906 0.15499 0.77115 0.0
C5744 C 0.72401 0.17015 0.78209 0.0
C5745 C 0.72352 0.18736 0.77457 0.0
C5746 C 0.72004 0.20222 0.78532 0.0
C5747 C 0.71687 0.19995 0.80357 0.0
C5748 C 0.71701 0.18274 0.81105 0.0
C5749 C 0.72049 0.16783 0.80034 0.0
H5750 H 0.7143 0.21152 0.81192 0.0
H5751 H 0.75042 0.0726 0.70271 0.0
loop_
_geom_bond_atom_site_label_1
_geom_bond_atom_site_label_2
_geom_bond_distance
_geom_bond_site_symmetry_2
_ccdc_geom_bond_type
C0 O1 1.160 . S
C0 O7 1.185 . S
O1 C0 1.160 . S
O2 Zn3 1.899 . S
O2 C10 1.284 . S
Zn3 O2 1.899 . S
Zn3 O4 2.032 . S
Zn3 O7 2.086 . S
Zn3 O12 1.977 . S
O4 Zn3 2.032 . S
O4 C8 1.278 . S
C5 O6 1.203 . S
C5 O12 1.267 1_655 S
O6 C5 1.203 . S
O7 C0 1.185 . S
O7 Zn3 2.086 . S
C8 O4 1.278 . S
C8 O9 1.211 . S
O9 C8 1.211 . S
C10 O2 1.284 . S
C10 O11 1.273 . S
O11 C10 1.273 . S
O12 Zn3 1.977 . S
O12 C5 1.267 1_455 S
C13 O14 1.160 1_455 S
C13 O20 1.185 . S
O14 C13 1.160 1_655 S
O15 Zn16 1.899 . S
O15 C23 1.284 . S
Zn16 O15 1.899 . S
Zn16 O17 2.032 . S
Zn16 O20 2.086 . S
Zn16 O25 1.977 . S
O17 Zn16 2.032 . S
O17 C21 1.278 . S
C18 O19 1.203 . S
C18 O25 1.267 . S
O19 C18 1.203 . S
O20 C13 1.185 . S
O20 Zn16 2.086 . S
C21 O17 1.278 . S
C21 O22 1.211 . S
O22 C21 1.211 . S
C23 O15 1.284 . S
C23 O24 1.273 . S
O24 C23 1.273 . S
O25 Zn16 1.977 . S
O25 C18 1.267 . S
C26 O27 1.160 . S
C26 O33 1.185 . S
O27 C26 1.160 . S
O28 Zn29 1.899 . S
O28 C36 1.284 . S
Zn29 O28 1.899 . S
Zn29 O30 2.032 . S
Zn29 O33 2.086 . S
Zn29 O38 1.977 . S
O30 Zn29 2.032 . S
O30 C34 1.278 . S
C31 O32 1.203 . S
C31 O38 1.267 . S
O32 C31 1.203 . S
O33 C26 1.185 . S
O33 Zn29 2.086 . S
C34 O30 1.278 . S
C34 O35 1.211 . S
O35 C34 1.211 . S
C36 O28 1.284 . S
C36 O37 1.273 . S
O37 C36 1.273 . S
O38 Zn29 1.977 . S
O38 C31 1.267 . S
C39 O40 1.160 . S
C39 O46 1.185 . S
O40 C39 1.160 . S
O41 Zn42 1.899 . S
O41 C49 1.284 . S
Zn42 O41 1.899 . S
Zn42 O43 2.032 . S
Zn42 O46 2.086 . S
Zn42 O51 1.977 . S
O43 Zn42 2.032 . S
O43 C47 1.278 . S
C44 O45 1.203 . S
C44 O51 1.267 . S
O45 C44 1.203 . S
O46 C39 1.185 . S
O46 Zn42 2.086 . S
C47 O43 1.278 . S
C47 O48 1.211 . S
O48 C47 1.211 . S
C49 O41 1.284 . S
C49 O50 1.273 . S
O50 C49 1.273 . S
O51 Zn42 1.977 . S
O51 C44 1.267 . S
C52 O53 1.160 . S
C52 O59 1.185 . S
O53 C52 1.160 . S
O54 Zn55 1.899 . S
O54 C62 1.284 . S
Zn55 O54 1.899 . S
Zn55 O56 2.032 . S
Zn55 O59 2.086 . S
Zn55 O64 1.977 . S
O56 Zn55 2.032 . S
O56 C60 1.278 . S
C57 O58 1.203 . S
C57 O64 1.267 . S
O58 C57 1.203 . S
O59 C52 1.185 . S
O59 Zn55 2.086 . S
C60 O56 1.278 . S
C60 O61 1.211 . S
O61 C60 1.211 . S
C62 O54 1.284 . S
C62 O63 1.273 . S
O63 C62 1.273 . S
O64 Zn55 1.977 . S
O64 C57 1.267 . S
C65 O66 1.160 . S
C65 O72 1.185 . S
O66 C65 1.160 . S
O67 Zn68 1.899 . S
O67 C75 1.284 . S
Zn68 O67 1.899 . S
Zn68 O69 2.032 . S
Zn68 O72 2.086 . S
Zn68 O77 1.977 . S
O69 Zn68 2.032 . S
O69 C73 1.278 . S
C70 O71 1.203 . S
C70 O77 1.267 . S
O71 C70 1.203 . S
O72 C65 1.185 . S
O72 Zn68 2.086 . S
C73 O69 1.278 . S
C73 O74 1.211 . S
O74 C73 1.211 . S
C75 O67 1.284 . S
C75 O76 1.273 . S
O76 C75 1.273 . S
O77 Zn68 1.977 . S
O77 C70 1.267 . S
C78 O79 1.160 . S
C78 O85 1.185 . S
O79 C78 1.160 . S
O80 Zn81 1.899 . S
O80 C88 1.284 . S
Zn81 O80 1.899 . S
Zn81 O82 2.032 . S
Zn81 O85 2.086 . S
Zn81 O90 1.977 . S
O82 Zn81 2.032 . S
O82 C86 1.278 . S
C83 O84 1.203 . S
C83 O90 1.267 . S
O84 C83 1.203 . S
O85 C78 1.185 . S
O85 Zn81 2.086 . S
C86 O82 1.278 . S
C86 O87 1.211 . S
O87 C86 1.211 . S
C88 O80 1.284 . S
C88 O89 1.273 . S
O89 C88 1.273 . S
O90 Zn81 1.977 . S
O90 C83 1.267 . S
C91 O92 1.160 . S
C91 O98 1.185 . S
O92 C91 1.160 . S
O93 Zn94 1.899 1_655 S
O93 C101 1.284 . S
Zn94 O93 1.899 1_455 S
Zn94 O95 2.032 . S
Zn94 O98 2.086 . S
Zn94 O103 1.977 1_455 S
O95 Zn94 2.032 . S
O95 C99 1.278 . S
C96 O97 1.203 . S
C96 O103 1.267 . S
O97 C96 1.203 . S
O98 C91 1.185 . S
O98 Zn94 2.086 . S
C99 O95 1.278 . S
C99 O100 1.211 1_455 S
O100 C99 1.211 1_655 S
C101 O93 1.284 . S
C101 O102 1.273 . S
O102 C101 1.273 . S
O103 Zn94 1.977 1_655 S
O103 C96 1.267 . S
C104 O105 1.160 . S
C104 O111 1.185 . S
O105 C104 1.160 . S
O106 Zn107 1.899 . S
O106 C114 1.284 . S
Zn107 O106 1.899 . S
Zn107 O108 2.032 . S
Zn107 O111 2.086 . S
Zn107 O116 1.977 . S
O108 Zn107 2.032 . S
O108 C112 1.278 . S
C109 O110 1.203 . S
C109 O116 1.267 1_565 S
O110 C109 1.203 . S
O111 C104 1.185 . S
O111 Zn107 2.086 . S
C112 O108 1.278 . S
C112 O113 1.211 . S
O113 C112 1.211 . S
C114 O106 1.284 . S
C114 O115 1.273 . S
O115 C114 1.273 . S
O116 Zn107 1.977 . S
O116 C109 1.267 1_545 S
C117 O118 1.160 . S
C117 O124 1.185 . S
O118 C117 1.160 . S
O119 Zn120 1.899 . S
O119 C127 1.284 . S
Zn120 O119 1.899 . S
Zn120 O121 2.032 . S
Zn120 O124 2.086 . S
Zn120 O129 1.977 . S
O121 Zn120 2.032 . S
O121 C125 1.278 . S
C122 O123 1.203 . S
C122 O129 1.267 . S
O123 C122 1.203 . S
O124 C117 1.185 . S
O124 Zn120 2.086 . S
C125 O121 1.278 . S
C125 O126 1.211 . S
O126 C125 1.211 . S
C127 O119 1.284 . S
C127 O128 1.273 . S
O128 C127 1.273 . S
O129 Zn120 1.977 . S
O129 C122 1.267 . S
C130 O131 1.160 1_545 S
C130 O137 1.185 . S
O131 C130 1.160 1_565 S
O132 Zn133 1.899 . S
O132 C140 1.284 . S
Zn133 O132 1.899 . S
Zn133 O134 2.032 . S
Zn133 O137 2.086 . S
Zn133 O142 1.977 . S
O134 Zn133 2.032 . S
O134 C138 1.278 . S
C135 O136 1.203 . S
C135 O142 1.267 . S
O136 C135 1.203 . S
O137 C130 1.185 . S
O137 Zn133 2.086 . S
C138 O134 1.278 . S
C138 O139 1.211 . S
O139 C138 1.211 . S
C140 O132 1.284 . S
C140 O141 1.273 . S
O141 C140 1.273 . S
O142 Zn133 1.977 . S
O142 C135 1.267 . S
C143 O144 1.160 . S
C143 O150 1.185 1_554 S
O144 C143 1.160 . S
O145 Zn146 1.899 . S
O145 C153 1.284 . S
Zn146 O145 1.899 . S
Zn146 O147 2.032 1_554 S
Zn146 O150 2.086 1_554 S
Zn146 O155 1.971 1_554 S
O147 Zn146 2.032 1_556 S
O147 C151 1.278 . S
C148 O149 1.203 . S
C148 O155 1.259 1_554 S
O149 C148 1.203 . S
O150 C143 1.185 1_556 S
O150 Zn146 2.086 1_556 S
C151 O147 1.278 . S
C151 O152 1.211 . S
O152 C151 1.211 . S
C153 O145 1.284 . S
C153 O154 1.273 . S
O154 C153 1.273 . S
O155 Zn146 1.971 1_556 S
O155 C148 1.259 1_556 S
C156 O157 1.160 . S
C156 O163 1.185 . S
O157 C156 1.160 . S
O158 Zn159 1.899 . S
O158 C166 1.284 . S
Zn159 O158 1.899 . S
Zn159 O160 2.032 . S
Zn159 O163 2.086 . S
Zn159 O168 1.977 . S
O160 Zn159 2.032 . S
O160 C164 1.278 1_554 S
C161 O162 1.203 . S
C161 O168 1.267 . S
O162 C161 1.203 . S
O163 C156 1.185 . S
O163 Zn159 2.086 . S
C164 O160 1.278 1_556 S
C164 O165 1.211 . S
O165 C164 1.211 . S
C166 O158 1.284 . S
C166 O167 1.273 . S
O167 C166 1.273 . S
O168 Zn159 1.977 . S
O168 C161 1.267 . S
C169 O170 1.160 . S
C169 O176 1.185 . S
O170 C169 1.160 . S
O171 Zn172 1.899 . S
O171 C179 1.284 . S
Zn172 O171 1.899 . S
Zn172 O173 2.032 . S
Zn172 O176 2.086 . S
Zn172 O181 1.977 . S
O173 Zn172 2.032 . S
O173 C177 1.278 . S
C174 O175 1.203 . S
C174 O181 1.267 . S
O175 C174 1.203 . S
O176 C169 1.185 . S
O176 Zn172 2.086 . S
C177 O173 1.278 . S
C177 O178 1.211 . S
O178 C177 1.211 . S
C179 O171 1.284 . S
C179 O180 1.273 . S
O180 C179 1.273 . S
O181 Zn172 1.977 . S
O181 C174 1.267 . S
C182 O183 1.160 . S
C182 O189 1.185 . S
O183 C182 1.160 . S
O184 Zn185 1.899 . S
O184 C192 1.284 . S
Zn185 O184 1.899 . S
Zn185 O186 2.032 . S
Zn185 O189 2.086 . S
Zn185 O194 1.977 . S
O186 Zn185 2.032 . S
O186 C190 1.278 . S
C187 O188 1.203 . S
C187 O194 1.267 . S
O188 C187 1.203 . S
O189 C182 1.185 . S
O189 Zn185 2.086 . S
C190 O186 1.278 . S
C190 O191 1.211 . S
O191 C190 1.211 . S
C192 O184 1.284 . S
C192 O193 1.273 . S
O193 C192 1.273 . S
O194 Zn185 1.977 . S
O194 C187 1.267 . S
C195 O196 1.160 . S
C195 O202 1.185 . S
O196 C195 1.160 . S
O197 Zn198 1.899 . S
O197 C205 1.284 . S
Zn198 O197 1.899 . S
Zn198 O199 2.032 . S
Zn198 O202 2.086 . S
Zn198 O207 1.977 . S
O199 Zn198 2.032 . S
O199 C203 1.278 . S
C200 O201 1.203 . S
C200 O207 1.267 . S
O201 C200 1.203 . S
O202 C195 1.185 . S
O202 Zn198 2.086 . S
C203 O199 1.278 . S
C203 O204 1.211 . S
O204 C203 1.211 . S
C205 O197 1.284 . S
C205 O206 1.273 . S
O206 C205 1.273 . S
O207 Zn198 1.977 . S
O207 C200 1.267 . S
C208 O209 1.160 . S
C208 O215 1.185 . S
O209 C208 1.160 . S
O210 Zn211 1.899 . S
O210 C218 1.284 . S
Zn211 O210 1.899 . S
Zn211 O212 2.032 . S
Zn211 O215 2.086 . S
Zn211 O220 1.977 1_545 S
O212 Zn211 2.032 . S
O212 C216 1.278 . S
C213 O214 1.203 . S
C213 O220 1.267 . S
O214 C213 1.203 . S
O215 C208 1.185 . S
O215 Zn211 2.086 . S
C216 O212 1.278 . S
C216 O217 1.211 1_545 S
O217 C216 1.211 1_565 S
C218 O210 1.284 . S
C218 O219 1.273 . S
O219 C218 1.273 . S
O220 Zn211 1.977 1_565 S
O220 C213 1.267 . S
C221 O222 1.160 . S
C221 O228 1.185 . S
O222 C221 1.160 . S
O223 Zn224 1.899 . S
O223 C231 1.284 . S
Zn224 O223 1.899 . S
Zn224 O225 2.032 . S
Zn224 O228 2.086 . S
Zn224 O233 1.977 . S
O225 Zn224 2.032 . S
O225 C229 1.278 . S
C226 O227 1.203 . S
C226 O233 1.267 . S
O227 C226 1.203 . S
O228 C221 1.185 . S
O228 Zn224 2.086 . S
C229 O225 1.278 . S
C229 O230 1.211 . S
O230 C229 1.211 . S
C231 O223 1.284 . S
C231 O232 1.273 . S
O232 C231 1.273 . S
O233 Zn224 1.977 . S
O233 C226 1.267 . S
C234 O235 1.160 . S
C234 O241 1.185 . S
O235 C234 1.160 . S
O236 Zn237 1.899 . S
O236 C244 1.284 . S
Zn237 O236 1.899 . S
Zn237 O238 2.032 . S
Zn237 O241 2.086 . S
Zn237 O246 1.977 . S
O238 Zn237 2.032 . S
O238 C242 1.278 . S
C239 O240 1.203 . S
C239 O246 1.267 . S
O240 C239 1.203 . S
O241 C234 1.185 . S
O241 Zn237 2.086 . S
C242 O238 1.278 . S
C242 O243 1.211 . S
O243 C242 1.211 . S
C244 O236 1.284 . S
C244 O245 1.273 . S
O245 C244 1.273 . S
O246 Zn237 1.977 . S
O246 C239 1.267 . S
C247 O248 1.160 . S
C247 O254 1.185 1_565 S
O248 C247 1.160 . S
O249 Zn250 1.899 . S
O249 C257 1.284 . S
Zn250 O249 1.899 . S
Zn250 O251 2.032 . S
Zn250 O254 2.086 . S
Zn250 O259 1.977 . S
O251 Zn250 2.032 . S
O251 C255 1.278 . S
C252 O253 1.203 . S
C252 O259 1.267 . S
O253 C252 1.203 . S
O254 C247 1.185 1_545 S
O254 Zn250 2.086 . S
C255 O251 1.278 . S
C255 O256 1.211 . S
O256 C255 1.211 . S
C257 O249 1.284 . S
C257 O258 1.273 . S
O258 C257 1.273 . S
O259 Zn250 1.977 . S
O259 C252 1.267 . S
C260 O261 1.160 . S
C260 O267 1.185 . S
O261 C260 1.160 . S
O262 Zn263 1.899 . S
O262 C270 1.284 . S
Zn263 O262 1.899 . S
Zn263 O264 2.032 . S
Zn263 O267 2.086 . S
Zn263 O272 1.977 . S
O264 Zn263 2.032 . S
O264 C268 1.278 1_554 S
C265 O266 1.203 . S
C265 O272 1.267 . S
O266 C265 1.203 . S
O267 C260 1.185 . S
O267 Zn263 2.086 . S
C268 O264 1.278 1_556 S
C268 O269 1.211 . S
O269 C268 1.211 . S
C270 O262 1.284 . S
C270 O271 1.273 . S
O271 C270 1.273 . S
O272 Zn263 1.977 . S
O272 C265 1.267 . S
C273 O274 1.160 . S
C273 O280 1.185 . S
O274 C273 1.160 . S
O275 Zn276 1.899 . S
O275 C283 1.284 . S
Zn276 O275 1.899 . S
Zn276 O277 2.032 . S
Zn276 O280 2.086 . S
Zn276 O285 1.977 . S
O277 Zn276 2.032 . S
O277 C281 1.278 . S
C278 O279 1.203 . S
C278 O285 1.267 . S
O279 C278 1.203 . S
O280 C273 1.185 . S
O280 Zn276 2.086 . S
C281 O277 1.278 . S
C281 O282 1.211 . S
O282 C281 1.211 . S
C283 O275 1.284 . S
C283 O284 1.273 . S
O284 C283 1.273 . S
O285 Zn276 1.977 . S
O285 C278 1.267 . S
C286 O287 1.160 . S
C286 O293 1.185 . S
O287 C286 1.160 . S
O288 Zn289 1.899 . S
O288 C296 1.284 . S
Zn289 O288 1.899 . S
Zn289 O290 2.032 . S
Zn289 O293 2.086 . S
Zn289 O298 1.977 . S
O290 Zn289 2.032 . S
O290 C294 1.278 . S
C291 O292 1.203 . S
C291 O298 1.267 . S
O292 C291 1.203 . S
O293 C286 1.185 . S
O293 Zn289 2.086 . S
C294 O290 1.278 . S
C294 O295 1.211 . S
O295 C294 1.211 . S
C296 O288 1.284 . S
C296 O297 1.273 . S
O297 C296 1.273 . S
O298 Zn289 1.977 . S
O298 C291 1.267 . S
C299 O300 1.160 . S
C299 O306 1.185 . S
O300 C299 1.160 . S
O301 Zn302 1.899 . S
O301 C309 1.284 . S
Zn302 O301 1.899 . S
Zn302 O303 2.032 . S
Zn302 O306 2.086 . S
Zn302 O311 1.977 . S
O303 Zn302 2.032 . S
O303 C307 1.278 . S
C304 O305 1.203 . S
C304 O311 1.267 . S
O305 C304 1.203 . S
O306 C299 1.185 . S
O306 Zn302 2.086 . S
C307 O303 1.278 . S
C307 O308 1.211 . S
O308 C307 1.211 . S
C309 O301 1.284 . S
C309 O310 1.273 . S
O310 C309 1.273 . S
O311 Zn302 1.977 . S
O311 C304 1.267 . S
Tb312 C321 2.764 . S
Tb312 O322 2.325 1_545 S
Tb312 O325 2.303 . S
Tb312 O329 2.322 . S
Tb312 O330 2.349 . S
Tb312 O333 2.415 . S
Tb312 O334 2.399 . S
Tb313 O323 2.322 1_545 S
Tb313 O324 2.349 1_554 S
Tb313 O326 2.415 1_455 S
Tb313 O327 2.399 1_454 S
Tb313 O328 2.325 . S
Tb313 O331 2.303 . S
Tb313 C342 2.764 1_455 S
C314 O330 1.261 . S
C314 O331 1.257 . S
C315 C318 1.358 . S
C315 C319 1.332 . S
C315 C321 1.504 . S
C316 C317 1.373 . S
C316 C320 1.308 1_545 S
C317 C316 1.373 . S
C317 C318 1.429 . S
C317 H344 0.932 . S
C318 C315 1.358 . S
C318 C317 1.429 . S
C318 H345 0.930 . S
C319 C315 1.332 . S
C319 C320 1.394 1_545 S
C319 H346 0.932 1_545 S
C320 C316 1.308 1_565 S
C320 C319 1.394 1_565 S
C320 H347 0.929 . S
C321 Tb312 2.764 . S
C321 C315 1.504 . S
C321 O333 1.239 . S
C321 O334 1.263 . S
O322 Tb312 2.325 1_565 S
O322 C332 1.236 . S
O323 Tb313 2.322 1_565 S
O323 C332 1.257 . S
O324 Tb313 2.349 1_556 S
O324 C335 1.261 . S
O325 Tb312 2.303 . S
O325 C335 1.257 1_554 S
O326 Tb313 2.415 1_655 S
O326 C342 1.239 . S
O327 Tb313 2.399 1_656 S
O327 C342 1.263 1_556 S
O328 Tb313 2.325 . S
O328 C343 1.236 . S
O329 Tb312 2.322 . S
O329 C343 1.257 . S
O330 Tb312 2.349 . S
O330 C314 1.261 . S
O331 Tb313 2.303 . S
O331 C314 1.257 . S
C332 O322 1.236 . S
C332 O323 1.257 . S
O333 Tb312 2.415 . S
O333 C321 1.239 . S
O334 Tb312 2.399 . S
O334 C321 1.263 . S
C335 O324 1.261 . S
C335 O325 1.257 1_556 S
C336 C339 1.358 . S
C336 C340 1.332 1_556 S
C336 C342 1.504 1_556 S
C337 C338 1.373 . S
C337 C341 1.308 1_556 S
C338 C337 1.373 . S
C338 C339 1.429 . S
C338 H348 0.932 . S
C339 C336 1.358 . S
C339 C338 1.429 . S
C339 H349 0.930 . S
C340 C336 1.332 1_554 S
C340 C341 1.394 . S
C340 H350 0.932 . S
C341 C337 1.308 1_554 S
C341 C340 1.394 . S
C341 H351 0.929 . S
C342 Tb313 2.764 1_655 S
C342 O326 1.239 . S
C342 O327 1.263 1_554 S
C342 C336 1.504 1_554 S
C343 O328 1.236 . S
C343 O329 1.257 . S
H344 C317 0.932 . S
H345 C318 0.930 . S
H346 C319 0.932 1_565 S
H347 C320 0.929 . S
H348 C338 0.932 . S
H349 C339 0.930 . S
H350 C340 0.932 . S
H351 C341 0.929 . S
Tb352 C361 2.764 . S
Tb352 O362 2.325 . S
Tb352 O365 2.303 . S
Tb352 O369 2.322 . S
Tb352 O370 2.349 . S
Tb352 O373 2.415 . S
Tb352 O374 2.399 . S
Tb353 O363 2.322 . S
Tb353 O364 2.349 . S
Tb353 O366 2.415 . S
Tb353 O367 2.399 . S
Tb353 O368 2.325 . S
Tb353 O371 2.303 . S
Tb353 C382 2.764 . S
C354 O370 1.261 . S
C354 O371 1.257 . S
C355 C358 1.358 . S
C355 C359 1.332 . S
C355 C361 1.504 . S
C356 C357 1.373 . S
C356 C360 1.308 . S
C357 C356 1.373 . S
C357 C358 1.429 . S
C357 H384 0.932 . S
C358 C355 1.358 . S
C358 C357 1.429 . S
C358 H385 0.930 . S
C359 C355 1.332 . S
C359 C360 1.394 . S
C359 H386 0.932 . S
C360 C356 1.308 . S
C360 C359 1.394 . S
C360 H387 0.929 . S
C361 Tb352 2.764 . S
C361 C355 1.504 . S
C361 O373 1.239 . S
C361 O374 1.263 . S
O362 Tb352 2.325 . S
O362 C372 1.236 . S
O363 Tb353 2.322 . S
O363 C372 1.257 . S
O364 Tb353 2.349 . S
O364 C375 1.261 . S
O365 Tb352 2.303 . S
O365 C375 1.257 . S
O366 Tb353 2.415 . S
O366 C382 1.239 . S
O367 Tb353 2.399 . S
O367 C382 1.263 . S
O368 Tb353 2.325 . S
O368 C383 1.236 . S
O369 Tb352 2.322 . S
O369 C383 1.257 . S
O370 Tb352 2.349 . S
O370 C354 1.261 . S
O371 Tb353 2.303 . S
O371 C354 1.257 . S
C372 O362 1.236 . S
C372 O363 1.257 . S
O373 Tb352 2.415 . S
O373 C361 1.239 . S
O374 Tb352 2.399 . S
O374 C361 1.263 . S
C375 O364 1.261 . S
C375 O365 1.257 . S
C376 C379 1.358 . S
C376 C380 1.332 . S
C376 C382 1.504 . S
C377 C378 1.373 . S
C377 C381 1.308 . S
C378 C377 1.373 . S
C378 C379 1.429 . S
C378 H388 0.932 . S
C379 C376 1.358 . S
C379 C378 1.429 . S
C379 H389 0.930 . S
C380 C376 1.332 . S
C380 C381 1.394 . S
C380 H390 0.932 . S
C381 C377 1.308 . S
C381 C380 1.394 . S
C381 H391 0.929 . S
C382 Tb353 2.764 . S
C382 O366 1.239 . S
C382 O367 1.263 . S
C382 C376 1.504 . S
C383 O368 1.236 . S
C383 O369 1.257 . S
H384 C357 0.932 . S
H385 C358 0.930 . S
H386 C359 0.932 . S
H387 C360 0.929 . S
H388 C378 0.932 . S
H389 C379 0.930 . S
H390 C380 0.932 . S
H391 C381 0.929 . S
Tb392 C401 2.764 . S
Tb392 O402 2.325 . S
Tb392 O405 2.303 . S
Tb392 O409 2.322 1_545 S
Tb392 O410 2.349 . S
Tb392 O413 2.415 . S
Tb392 O414 2.399 . S
Tb393 O403 2.322 . S
Tb393 O404 2.349 . S
Tb393 O406 2.415 . S
Tb393 O407 2.399 . S
Tb393 O408 2.324 1_545 S
Tb393 O411 2.303 . S
Tb393 C422 2.764 . S
C394 O410 1.261 . S
C394 O411 1.257 . S
C395 C398 1.358 . S
C395 C399 1.332 . S
C395 C401 1.504 . S
C396 C397 1.373 . S
C396 C400 1.308 . S
C397 C396 1.373 . S
C397 C398 1.429 . S
C397 H424 0.932 . S
C398 C395 1.358 . S
C398 C397 1.429 . S
C398 H425 0.930 . S
C399 C395 1.332 . S
C399 C400 1.394 . S
C399 H426 0.932 . S
C400 C396 1.308 . S
C400 C399 1.394 . S
C400 H427 0.929 . S
C401 Tb392 2.764 . S
C401 C395 1.504 . S
C401 O413 1.239 . S
C401 O414 1.263 . S
O402 Tb392 2.325 . S
O402 C412 1.236 . S
O403 Tb393 2.322 . S
O403 C412 1.257 . S
O404 Tb393 2.349 . S
O404 C415 1.261 . S
O405 Tb392 2.303 . S
O405 C415 1.257 . S
O406 Tb393 2.415 . S
O406 C422 1.239 . S
O407 Tb393 2.399 . S
O407 C422 1.263 . S
O408 Tb393 2.324 1_565 S
O408 C423 1.237 . S
O409 Tb392 2.322 1_565 S
O409 C423 1.257 . S
O410 Tb392 2.349 . S
O410 C394 1.261 . S
O411 Tb393 2.303 . S
O411 C394 1.257 . S
C412 O402 1.236 . S
C412 O403 1.257 . S
O413 Tb392 2.415 . S
O413 C401 1.239 . S
O414 Tb392 2.399 . S
O414 C401 1.263 . S
C415 O404 1.261 . S
C415 O405 1.257 . S
C416 C419 1.358 . S
C416 C420 1.332 1_545 S
C416 C422 1.504 . S
C417 C418 1.373 . S
C417 C421 1.308 . S
C418 C417 1.373 . S
C418 C419 1.429 1_565 S
C418 H428 0.932 . S
C419 C416 1.358 . S
C419 C418 1.429 1_545 S
C419 H429 0.930 . S
C420 C416 1.332 1_565 S
C420 C421 1.394 . S
C420 H430 0.932 . S
C421 C417 1.308 . S
C421 C420 1.394 . S
C421 H431 0.929 . S
C422 Tb393 2.764 . S
C422 O406 1.239 . S
C422 O407 1.263 . S
C422 C416 1.504 . S
C423 O408 1.237 . S
C423 O409 1.257 . S
H424 C397 0.932 . S
H425 C398 0.930 . S
H426 C399 0.932 . S
H427 C400 0.929 . S
H428 C418 0.932 . S
H429 C419 0.930 . S
H430 C420 0.932 . S
H431 C421 0.929 . S
Tb432 C441 2.764 . S
Tb432 O442 2.325 . S
Tb432 O445 2.303 . S
Tb432 O449 2.322 . S
Tb432 O450 2.349 . S
Tb432 O453 2.415 . S
Tb432 O454 2.399 . S
Tb433 O443 2.322 . S
Tb433 O444 2.349 . S
Tb433 O446 2.415 . S
Tb433 O447 2.399 . S
Tb433 O448 2.325 . S
Tb433 O451 2.303 . S
Tb433 C462 2.764 . S
C434 O450 1.261 . S
C434 O451 1.257 . S
C435 C438 1.358 . S
C435 C439 1.332 . S
C435 C441 1.504 . S
C436 C437 1.373 . S
C436 C440 1.308 . S
C437 C436 1.373 . S
C437 C438 1.429 . S
C437 H464 0.932 . S
C438 C435 1.358 . S
C438 C437 1.429 . S
C438 H465 0.930 . S
C439 C435 1.332 . S
C439 C440 1.394 . S
C439 H466 0.932 . S
C440 C436 1.308 . S
C440 C439 1.394 . S
C440 H467 0.929 . S
C441 Tb432 2.764 . S
C441 C435 1.504 . S
C441 O453 1.239 . S
C441 O454 1.263 . S
O442 Tb432 2.325 . S
O442 C452 1.236 . S
O443 Tb433 2.322 . S
O443 C452 1.257 . S
O444 Tb433 2.349 . S
O444 C455 1.261 . S
O445 Tb432 2.303 . S
O445 C455 1.257 . S
O446 Tb433 2.415 . S
O446 C462 1.239 . S
O447 Tb433 2.399 . S
O447 C462 1.263 . S
O448 Tb433 2.325 . S
O448 C463 1.236 . S
O449 Tb432 2.322 . S
O449 C463 1.257 . S
O450 Tb432 2.349 . S
O450 C434 1.261 . S
O451 Tb433 2.303 . S
O451 C434 1.257 . S
C452 O442 1.236 . S
C452 O443 1.257 . S
O453 Tb432 2.415 . S
O453 C441 1.239 . S
O454 Tb432 2.399 . S
O454 C441 1.263 . S
C455 O444 1.261 . S
C455 O445 1.257 . S
C456 C459 1.358 . S
C456 C460 1.332 . S
C456 C462 1.504 . S
C457 C458 1.373 . S
C457 C461 1.308 . S
C458 C457 1.373 . S
C458 C459 1.429 . S
C458 H468 0.932 . S
C459 C456 1.358 . S
C459 C458 1.429 . S
C459 H469 0.930 . S
C460 C456 1.332 . S
C460 C461 1.394 . S
C460 H470 0.932 . S
C461 C457 1.308 . S
C461 C460 1.394 . S
C461 H471 0.929 . S
C462 Tb433 2.764 . S
C462 O446 1.239 . S
C462 O447 1.263 . S
C462 C456 1.504 . S
C463 O448 1.236 . S
C463 O449 1.257 . S
H464 C437 0.932 . S
H465 C438 0.930 . S
H466 C439 0.932 . S
H467 C440 0.929 . S
H468 C458 0.932 . S
H469 C459 0.930 . S
H470 C460 0.932 . S
H471 C461 0.929 . S
Tb472 C481 2.764 . S
Tb472 O482 2.325 . S
Tb472 O485 2.303 . S
Tb472 O489 2.322 . S
Tb472 O490 2.349 . S
Tb472 O493 2.415 . S
Tb472 O494 2.399 . S
Tb473 O483 2.322 1_545 S
Tb473 O484 2.349 . S
Tb473 O486 2.415 . S
Tb473 O487 2.399 . S
Tb473 O488 2.325 . S
Tb473 O491 2.303 . S
Tb473 C502 2.764 . S
C474 O490 1.261 1_655 S
C474 O491 1.257 1_655 S
C475 C478 1.358 . S
C475 C479 1.332 . S
C475 C481 1.504 . S
C476 C477 1.373 . S
C476 C480 1.308 . S
C477 C476 1.373 . S
C477 C478 1.429 . S
C477 H504 0.932 . S
C478 C475 1.358 . S
C478 C477 1.429 . S
C478 H505 0.930 . S
C479 C475 1.332 . S
C479 C480 1.394 . S
C479 H506 0.932 . S
C480 C476 1.308 . S
C480 C479 1.394 . S
C480 H507 0.929 . S
C481 Tb472 2.764 . S
C481 C475 1.504 . S
C481 O493 1.239 . S
C481 O494 1.263 . S
O482 Tb472 2.325 . S
O482 C492 1.236 1_545 S
O483 Tb473 2.322 1_565 S
O483 C492 1.257 . S
O484 Tb473 2.349 . S
O484 C495 1.261 . S
O485 Tb472 2.303 . S
O485 C495 1.257 . S
O486 Tb473 2.415 . S
O486 C502 1.239 . S
O487 Tb473 2.399 . S
O487 C502 1.263 . S
O488 Tb473 2.325 . S
O488 C503 1.236 . S
O489 Tb472 2.322 . S
O489 C503 1.257 . S
O490 Tb472 2.349 . S
O490 C474 1.261 1_455 S
O491 Tb473 2.303 . S
O491 C474 1.257 1_455 S
C492 O482 1.236 1_565 S
C492 O483 1.257 . S
O493 Tb472 2.415 . S
O493 C481 1.239 . S
O494 Tb472 2.399 . S
O494 C481 1.263 . S
C495 O484 1.261 . S
C495 O485 1.257 . S
C496 C499 1.358 . S
C496 C500 1.332 1_455 S
C496 C502 1.504 . S
C497 C498 1.394 . S
C497 C501 1.293 1_455 S
C498 C497 1.394 . S
C498 C499 1.429 . S
C498 H508 0.932 . S
C499 C496 1.358 . S
C499 C498 1.429 . S
C499 H509 0.930 . S
C500 C496 1.332 1_655 S
C500 C501 1.394 . S
C500 H510 0.932 . S
C501 C497 1.293 1_655 S
C501 C500 1.394 . S
C501 H511 0.929 . S
C502 Tb473 2.764 . S
C502 O486 1.239 . S
C502 O487 1.263 . S
C502 C496 1.504 . S
C503 O488 1.236 . S
C503 O489 1.257 . S
H504 C477 0.932 . S
H505 C478 0.930 . S
H506 C479 0.932 . S
H507 C480 0.929 . S
H508 C498 0.932 . S
H509 C499 0.930 . S
H510 C500 0.932 . S
H511 C501 0.929 . S
Tb512 C521 2.764 . S
Tb512 O522 2.325 . S
Tb512 O525 2.303 . S
Tb512 O529 2.322 . S
Tb512 O530 2.349 . S
Tb512 O533 2.415 . S
Tb512 O534 2.399 . S
Tb513 O523 2.322 . S
Tb513 O524 2.349 . S
Tb513 O526 2.415 . S
Tb513 O527 2.399 . S
Tb513 O528 2.325 . S
Tb513 O531 2.303 . S
Tb513 C542 2.764 . S
C514 O530 1.261 . S
C514 O531 1.257 . S
C515 C518 1.358 . S
C515 C519 1.332 . S
C515 C521 1.504 . S
C516 C517 1.373 . S
C516 C520 1.308 . S
C517 C516 1.373 . S
C517 C518 1.429 . S
C517 H544 0.932 . S
C518 C515 1.358 . S
C518 C517 1.429 . S
C518 H545 0.930 . S
C519 C515 1.332 . S
C519 C520 1.394 . S
C519 H546 0.932 . S
C520 C516 1.308 . S
C520 C519 1.394 . S
C520 H547 0.929 . S
C521 Tb512 2.764 . S
C521 C515 1.504 . S
C521 O533 1.239 . S
C521 O534 1.263 . S
O522 Tb512 2.325 . S
O522 C532 1.236 . S
O523 Tb513 2.322 . S
O523 C532 1.257 . S
O524 Tb513 2.349 . S
O524 C535 1.261 . S
O525 Tb512 2.303 . S
O525 C535 1.257 . S
O526 Tb513 2.415 . S
O526 C542 1.239 . S
O527 Tb513 2.399 . S
O527 C542 1.263 . S
O528 Tb513 2.325 . S
O528 C543 1.236 . S
O529 Tb512 2.322 . S
O529 C543 1.257 . S
O530 Tb512 2.349 . S
O530 C514 1.261 . S
O531 Tb513 2.303 . S
O531 C514 1.257 . S
C532 O522 1.236 . S
C532 O523 1.257 . S
O533 Tb512 2.415 . S
O533 C521 1.239 . S
O534 Tb512 2.399 . S
O534 C521 1.263 . S
C535 O524 1.261 . S
C535 O525 1.257 . S
C536 C539 1.358 . S
C536 C540 1.332 . S
C536 C542 1.504 . S
C537 C538 1.373 . S
C537 C541 1.308 . S
C538 C537 1.373 . S
C538 C539 1.429 . S
C538 H548 0.932 . S
C539 C536 1.358 . S
C539 C538 1.429 . S
C539 H549 0.930 . S
C540 C536 1.332 . S
C540 C541 1.394 . S
C540 H550 0.932 . S
C541 C537 1.308 . S
C541 C540 1.394 . S
C541 H551 0.929 . S
C542 Tb513 2.764 . S
C542 O526 1.239 . S
C542 O527 1.263 . S
C542 C536 1.504 . S
C543 O528 1.236 . S
C543 O529 1.257 . S
H544 C517 0.932 . S
H545 C518 0.930 . S
H546 C519 0.932 . S
H547 C520 0.929 . S
H548 C538 0.932 . S
H549 C539 0.930 . S
H550 C540 0.932 . S
H551 C541 0.929 . S
Tb552 C561 2.764 . S
Tb552 O562 2.325 . S
Tb552 O565 2.303 . S
Tb552 O569 2.322 1_545 S
Tb552 O570 2.349 . S
Tb552 O573 2.415 . S
Tb552 O574 2.399 . S
Tb553 O563 2.322 . S
Tb553 O564 2.349 . S
Tb553 O566 2.415 1_554 S
Tb553 O567 2.399 1_554 S
Tb553 O568 2.338 1_554 S
Tb553 O571 2.303 . S
Tb553 C582 2.764 1_554 S
C554 O570 1.261 . S
C554 O571 1.257 . S
C555 C558 1.358 . S
C555 C559 1.332 . S
C555 C561 1.504 . S
C556 C557 1.373 . S
C556 C560 1.308 . S
C557 C556 1.373 . S
C557 C558 1.429 . S
C557 H584 0.932 . S
C558 C555 1.358 . S
C558 C557 1.429 . S
C558 H585 0.930 . S
C559 C555 1.332 . S
C559 C560 1.394 . S
C559 H586 0.932 . S
C560 C556 1.308 . S
C560 C559 1.394 . S
C560 H587 0.929 . S
C561 Tb552 2.764 . S
C561 C555 1.504 . S
C561 O573 1.239 . S
C561 O574 1.263 . S
O562 Tb552 2.325 . S
O562 C572 1.236 . S
O563 Tb553 2.322 . S
O563 C572 1.257 . S
O564 Tb553 2.349 . S
O564 C575 1.261 . S
O565 Tb552 2.303 . S
O565 C575 1.257 . S
O566 Tb553 2.415 1_556 S
O566 C582 1.239 . S
O567 Tb553 2.399 1_556 S
O567 C582 1.263 . S
O568 Tb553 2.338 1_556 S
O568 C583 1.209 1_546 S
O569 Tb552 2.322 1_565 S
O569 C583 1.257 . S
O570 Tb552 2.349 . S
O570 C554 1.261 . S
O571 Tb553 2.303 . S
O571 C554 1.257 . S
C572 O562 1.236 . S
C572 O563 1.257 . S
O573 Tb552 2.415 . S
O573 C561 1.239 . S
O574 Tb552 2.399 . S
O574 C561 1.263 . S
C575 O564 1.261 . S
C575 O565 1.257 . S
C576 C579 1.358 . S
C576 C580 1.332 . S
C576 C582 1.504 . S
C577 C578 1.373 . S
C577 C581 1.308 . S
C578 C577 1.373 . S
C578 C579 1.429 . S
C578 H588 0.932 . S
C579 C576 1.358 . S
C579 C578 1.429 . S
C579 H589 0.930 . S
C580 C576 1.332 . S
C580 C581 1.394 . S
C580 H590 0.932 . S
C581 C577 1.308 . S
C581 C580 1.394 . S
C581 H591 0.929 . S
C582 Tb553 2.764 1_556 S
C582 O566 1.239 . S
C582 O567 1.263 . S
C582 C576 1.504 . S
C583 O568 1.209 1_564 S
C583 O569 1.257 . S
H584 C557 0.932 . S
H585 C558 0.930 . S
H586 C559 0.932 . S
H587 C560 0.929 . S
H588 C578 0.932 . S
H589 C579 0.930 . S
H590 C580 0.932 . S
H591 C581 0.929 . S
Tb592 C601 2.764 . S
Tb592 O602 2.325 . S
Tb592 O605 2.303 . S
Tb592 O609 2.322 . S
Tb592 O610 2.349 . S
Tb592 O613 2.415 . S
Tb592 O614 2.399 . S
Tb593 O603 2.322 . S
Tb593 O604 2.349 . S
Tb593 O606 2.415 . S
Tb593 O607 2.399 . S
Tb593 O608 2.325 . S
Tb593 O611 2.303 . S
Tb593 C622 2.764 . S
C594 O610 1.261 . S
C594 O611 1.257 . S
C595 C598 1.358 . S
C595 C599 1.332 . S
C595 C601 1.504 . S
C596 C597 1.373 . S
C596 C600 1.308 . S
C597 C596 1.373 . S
C597 C598 1.429 . S
C597 H624 0.932 . S
C598 C595 1.358 . S
C598 C597 1.429 . S
C598 H625 0.930 . S
C599 C595 1.332 . S
C599 C600 1.394 . S
C599 H626 0.932 . S
C600 C596 1.308 . S
C600 C599 1.394 . S
C600 H627 0.929 . S
C601 Tb592 2.764 . S
C601 C595 1.504 . S
C601 O613 1.239 . S
C601 O614 1.263 . S
O602 Tb592 2.325 . S
O602 C612 1.236 . S
O603 Tb593 2.322 . S
O603 C612 1.257 . S
O604 Tb593 2.349 . S
O604 C615 1.261 . S
O605 Tb592 2.303 . S
O605 C615 1.257 . S
O606 Tb593 2.415 . S
O606 C622 1.239 . S
O607 Tb593 2.399 . S
O607 C622 1.263 . S
O608 Tb593 2.325 . S
O608 C623 1.236 . S
O609 Tb592 2.322 . S
O609 C623 1.257 . S
O610 Tb592 2.349 . S
O610 C594 1.261 . S
O611 Tb593 2.303 . S
O611 C594 1.257 . S
C612 O602 1.236 . S
C612 O603 1.257 . S
O613 Tb592 2.415 . S
O613 C601 1.239 . S
O614 Tb592 2.399 . S
O614 C601 1.263 . S
C615 O604 1.261 . S
C615 O605 1.257 . S
C616 C619 1.358 . S
C616 C620 1.332 . S
C616 C622 1.504 . S
C617 C618 1.373 . S
C617 C621 1.308 . S
C618 C617 1.373 . S
C618 C619 1.429 . S
C618 H628 0.932 . S
C619 C616 1.358 . S
C619 C618 1.429 . S
C619 H629 0.930 . S
C620 C616 1.332 . S
C620 C621 1.394 . S
C620 H630 0.932 . S
C621 C617 1.308 . S
C621 C620 1.394 . S
C621 H631 0.929 . S
C622 Tb593 2.764 . S
C622 O606 1.239 . S
C622 O607 1.263 . S
C622 C616 1.504 . S
C623 O608 1.236 . S
C623 O609 1.257 . S
H624 C597 0.932 . S
H625 C598 0.930 . S
H626 C599 0.932 . S
H627 C600 0.929 . S
H628 C618 0.932 . S
H629 C619 0.930 . S
H630 C620 0.932 . S
H631 C621 0.929 . S
Tb632 C641 2.764 . S
Tb632 O642 2.325 . S
Tb632 O645 2.303 . S
Tb632 O649 2.322 . S
Tb632 O650 2.349 . S
Tb632 O653 2.415 . S
Tb632 O654 2.399 . S
Tb633 O643 2.322 . S
Tb633 O644 2.349 . S
Tb633 O646 2.415 1_554 S
Tb633 O647 2.399 1_554 S
Tb633 O648 2.325 . S
Tb633 O651 2.303 . S
Tb633 C662 2.764 1_554 S
C634 O650 1.261 . S
C634 O651 1.257 . S
C635 C638 1.358 . S
C635 C639 1.332 . S
C635 C641 1.504 . S
C636 C637 1.373 . S
C636 C640 1.308 . S
C637 C636 1.373 . S
C637 C638 1.429 . S
C637 H664 0.932 . S
C638 C635 1.358 . S
C638 C637 1.429 . S
C638 H665 0.930 . S
C639 C635 1.332 . S
C639 C640 1.394 . S
C639 H666 0.932 . S
C640 C636 1.308 . S
C640 C639 1.394 . S
C640 H667 0.929 . S
C641 Tb632 2.764 . S
C641 C635 1.504 . S
C641 O653 1.239 . S
C641 O654 1.263 . S
O642 Tb632 2.325 . S
O642 C652 1.236 . S
O643 Tb633 2.322 . S
O643 C652 1.257 . S
O644 Tb633 2.349 . S
O644 C655 1.261 . S
O645 Tb632 2.303 . S
O645 C655 1.257 . S
O646 Tb633 2.415 1_556 S
O646 C662 1.239 . S
O647 Tb633 2.399 1_556 S
O647 C662 1.263 . S
O648 Tb633 2.325 . S
O648 C663 1.236 . S
O649 Tb632 2.322 . S
O649 C663 1.257 . S
O650 Tb632 2.349 . S
O650 C634 1.261 . S
O651 Tb633 2.303 . S
O651 C634 1.257 . S
C652 O642 1.236 . S
C652 O643 1.257 . S
O653 Tb632 2.415 . S
O653 C641 1.239 . S
O654 Tb632 2.399 . S
O654 C641 1.263 . S
C655 O644 1.261 . S
C655 O645 1.257 . S
C656 C659 1.358 . S
C656 C660 1.332 . S
C656 C662 1.504 . S
C657 C658 1.373 . S
C657 C661 1.308 . S
C658 C657 1.373 . S
C658 C659 1.429 . S
C658 H668 0.932 . S
C659 C656 1.358 . S
C659 C658 1.429 . S
C659 H669 0.930 . S
C660 C656 1.332 . S
C660 C661 1.394 . S
C660 H670 0.932 . S
C661 C657 1.308 . S
C661 C660 1.394 . S
C661 H671 0.929 . S
C662 Tb633 2.764 1_556 S
C662 O646 1.239 . S
C662 O647 1.263 . S
C662 C656 1.504 . S
C663 O648 1.236 . S
C663 O649 1.257 . S
H664 C637 0.932 . S
H665 C638 0.930 . S
H666 C639 0.932 . S
H667 C640 0.929 . S
H668 C658 0.932 . S
H669 C659 0.930 . S
H670 C660 0.932 . S
H671 C661 0.929 . S
Tb672 C681 2.764 . S
Tb672 O682 2.325 . S
Tb672 O685 2.303 . S
Tb672 O689 2.322 . S
Tb672 O690 2.349 . S
Tb672 O693 2.415 . S
Tb672 O694 2.399 . S
Tb673 O683 2.322 . S
Tb673 O684 2.349 . S
Tb673 O686 2.415 . S
Tb673 O687 2.399 . S
Tb673 O688 2.325 . S
Tb673 O691 2.303 . S
Tb673 C702 2.764 . S
C674 O690 1.261 . S
C674 O691 1.257 . S
C675 C678 1.358 . S
C675 C679 1.332 . S
C675 C681 1.504 . S
C676 C677 1.373 . S
C676 C680 1.308 . S
C677 C676 1.373 . S
C677 C678 1.429 . S
C677 H704 0.932 . S
C678 C675 1.358 . S
C678 C677 1.429 . S
C678 H705 0.930 . S
C679 C675 1.332 . S
C679 C680 1.394 . S
C679 H706 0.932 . S
C680 C676 1.308 . S
C680 C679 1.394 . S
C680 H707 0.929 . S
C681 Tb672 2.764 . S
C681 C675 1.504 . S
C681 O693 1.239 . S
C681 O694 1.263 . S
O682 Tb672 2.325 . S
O682 C692 1.236 . S
O683 Tb673 2.322 . S
O683 C692 1.257 . S
O684 Tb673 2.349 . S
O684 C695 1.261 . S
O685 Tb672 2.303 . S
O685 C695 1.257 . S
O686 Tb673 2.415 . S
O686 C702 1.239 . S
O687 Tb673 2.399 . S
O687 C702 1.263 . S
O688 Tb673 2.325 . S
O688 C703 1.236 . S
O689 Tb672 2.322 . S
O689 C703 1.257 . S
O690 Tb672 2.349 . S
O690 C674 1.261 . S
O691 Tb673 2.303 . S
O691 C674 1.257 . S
C692 O682 1.236 . S
C692 O683 1.257 . S
O693 Tb672 2.415 . S
O693 C681 1.239 . S
O694 Tb672 2.399 . S
O694 C681 1.263 . S
C695 O684 1.261 . S
C695 O685 1.257 . S
C696 C699 1.358 . S
C696 C700 1.332 . S
C696 C702 1.504 . S
C697 C698 1.373 . S
C697 C701 1.308 . S
C698 C697 1.373 . S
C698 C699 1.429 . S
C698 H708 0.932 . S
C699 C696 1.358 . S
C699 C698 1.429 . S
C699 H709 0.930 . S
C700 C696 1.332 . S
C700 C701 1.394 . S
C700 H710 0.932 . S
C701 C697 1.308 . S
C701 C700 1.394 . S
C701 H711 0.929 . S
C702 Tb673 2.764 . S
C702 O686 1.239 . S
C702 O687 1.263 . S
C702 C696 1.504 . S
C703 O688 1.236 . S
C703 O689 1.257 . S
H704 C677 0.932 . S
H705 C678 0.930 . S
H706 C679 0.932 . S
H707 C680 0.929 . S
H708 C698 0.932 . S
H709 C699 0.930 . S
H710 C700 0.932 . S
H711 C701 0.929 . S
Tb712 C721 2.764 . S
Tb712 O722 2.325 . S
Tb712 O725 2.303 . S
Tb712 O729 2.322 . S
Tb712 O730 2.349 . S
Tb712 O733 2.415 . S
Tb712 O734 2.399 . S
Tb713 O723 2.322 . S
Tb713 O724 2.349 . S
Tb713 O726 2.415 . S
Tb713 O727 2.399 . S
Tb713 O728 2.325 . S
Tb713 O731 2.303 . S
Tb713 C742 2.764 . S
C714 O730 1.261 . S
C714 O731 1.257 . S
C715 C718 1.358 . S
C715 C719 1.332 . S
C715 C721 1.504 . S
C716 C717 1.373 . S
C716 C720 1.308 1_455 S
C717 C716 1.373 . S
C717 C718 1.429 . S
C717 H744 0.932 . S
C718 C715 1.358 . S
C718 C717 1.429 . S
C718 H745 0.930 . S
C719 C715 1.332 . S
C719 C720 1.394 1_455 S
C719 H746 0.932 1_455 S
C720 C716 1.308 1_655 S
C720 C719 1.394 1_655 S
C720 H747 0.929 . S
C721 Tb712 2.764 . S
C721 C715 1.504 . S
C721 O733 1.239 . S
C721 O734 1.263 . S
O722 Tb712 2.325 . S
O722 C732 1.236 . S
O723 Tb713 2.322 . S
O723 C732 1.257 . S
O724 Tb713 2.349 . S
O724 C735 1.261 . S
O725 Tb712 2.303 . S
O725 C735 1.257 . S
O726 Tb713 2.415 . S
O726 C742 1.239 . S
O727 Tb713 2.399 . S
O727 C742 1.263 . S
O728 Tb713 2.325 . S
O728 C743 1.236 . S
O729 Tb712 2.322 . S
O729 C743 1.257 . S
O730 Tb712 2.349 . S
O730 C714 1.261 . S
O731 Tb713 2.303 . S
O731 C714 1.257 . S
C732 O722 1.236 . S
C732 O723 1.257 . S
O733 Tb712 2.415 . S
O733 C721 1.239 . S
O734 Tb712 2.399 . S
O734 C721 1.263 . S
C735 O724 1.261 . S
C735 O725 1.257 . S
C736 C739 1.358 . S
C736 C740 1.332 . S
C736 C742 1.504 . S
C737 C738 1.373 . S
C737 C741 1.308 . S
C738 C737 1.373 . S
C738 C739 1.429 . S
C738 H748 0.932 . S
C739 C736 1.358 . S
C739 C738 1.429 . S
C739 H749 0.930 . S
C740 C736 1.332 . S
C740 C741 1.394 . S
C740 H750 0.932 . S
C741 C737 1.308 . S
C741 C740 1.394 . S
C741 H751 0.929 . S
C742 Tb713 2.764 . S
C742 O726 1.239 . S
C742 O727 1.263 . S
C742 C736 1.504 . S
C743 O728 1.236 . S
C743 O729 1.257 . S
H744 C717 0.932 . S
H745 C718 0.930 . S
H746 C719 0.932 1_655 S
H747 C720 0.929 . S
H748 C738 0.932 . S
H749 C739 0.930 . S
H750 C740 0.932 . S
H751 C741 0.929 . S
Tb752 C761 2.764 . S
Tb752 O762 2.325 . S
Tb752 O765 2.303 . S
Tb752 O769 2.322 . S
Tb752 O770 2.349 . S
Tb752 O773 2.415 . S
Tb752 O774 2.399 . S
Tb753 O763 2.322 . S
Tb753 O764 2.349 . S
Tb753 O766 2.415 . S
Tb753 O767 2.399 . S
Tb753 O768 2.325 . S
Tb753 O771 2.303 . S
Tb753 C782 2.764 . S
C754 O770 1.261 . S
C754 O771 1.257 . S
C755 C758 1.358 . S
C755 C759 1.332 . S
C755 C761 1.504 . S
C756 C757 1.373 . S
C756 C760 1.308 . S
C757 C756 1.373 . S
C757 C758 1.429 . S
C757 H784 0.932 . S
C758 C755 1.358 . S
C758 C757 1.429 . S
C758 H785 0.930 . S
C759 C755 1.332 . S
C759 C760 1.394 . S
C759 H786 0.932 . S
C760 C756 1.308 . S
C760 C759 1.394 . S
C760 H787 0.929 . S
C761 Tb752 2.764 . S
C761 C755 1.504 . S
C761 O773 1.239 . S
C761 O774 1.263 . S
O762 Tb752 2.325 . S
O762 C772 1.236 . S
O763 Tb753 2.322 . S
O763 C772 1.257 . S
O764 Tb753 2.349 . S
O764 C775 1.261 . S
O765 Tb752 2.303 . S
O765 C775 1.257 . S
O766 Tb753 2.415 . S
O766 C782 1.239 . S
O767 Tb753 2.399 . S
O767 C782 1.263 . S
O768 Tb753 2.325 . S
O768 C783 1.236 . S
O769 Tb752 2.322 . S
O769 C783 1.257 . S
O770 Tb752 2.349 . S
O770 C754 1.261 . S
O771 Tb753 2.303 . S
O771 C754 1.257 . S
C772 O762 1.236 . S
C772 O763 1.257 . S
O773 Tb752 2.415 . S
O773 C761 1.239 . S
O774 Tb752 2.399 . S
O774 C761 1.263 . S
C775 O764 1.261 . S
C775 O765 1.257 . S
C776 C779 1.358 . S
C776 C780 1.332 . S
C776 C782 1.504 . S
C777 C778 1.373 . S
C777 C781 1.308 . S
C778 C777 1.373 . S
C778 C779 1.429 . S
C778 H788 0.932 . S
C779 C776 1.358 . S
C779 C778 1.429 . S
C779 H789 0.930 . S
C780 C776 1.332 . S
C780 C781 1.394 . S
C780 H790 0.932 . S
C781 C777 1.308 . S
C781 C780 1.394 . S
C781 H791 0.929 . S
C782 Tb753 2.764 . S
C782 O766 1.239 . S
C782 O767 1.263 . S
C782 C776 1.504 . S
C783 O768 1.236 . S
C783 O769 1.257 . S
H784 C757 0.932 . S
H785 C758 0.930 . S
H786 C759 0.932 . S
H787 C760 0.929 . S
H788 C778 0.932 . S
H789 C779 0.930 . S
H790 C780 0.932 . S
H791 C781 0.929 . S
Tb792 C801 2.764 . S
Tb792 O802 2.325 . S
Tb792 O805 2.303 . S
Tb792 O809 2.322 . S
Tb792 O810 2.349 . S
Tb792 O813 2.415 . S
Tb792 O814 2.399 . S
Tb793 O803 2.322 . S
Tb793 O804 2.349 . S
Tb793 O806 2.415 . S
Tb793 O807 2.399 . S
Tb793 O808 2.325 . S
Tb793 O811 2.303 . S
Tb793 C822 2.764 . S
C794 O810 1.261 . S
C794 O811 1.257 . S
C795 C798 1.358 . S
C795 C799 1.332 . S
C795 C801 1.504 . S
C796 C797 1.373 . S
C796 C800 1.308 . S
C797 C796 1.373 . S
C797 C798 1.429 . S
C797 H824 0.932 . S
C798 C795 1.358 . S
C798 C797 1.429 . S
C798 H825 0.930 . S
C799 C795 1.332 . S
C799 C800 1.394 . S
C799 H826 0.932 . S
C800 C796 1.308 . S
C800 C799 1.394 . S
C800 H827 0.929 . S
C801 Tb792 2.764 . S
C801 C795 1.504 . S
C801 O813 1.239 . S
C801 O814 1.263 . S
O802 Tb792 2.325 . S
O802 C812 1.236 . S
O803 Tb793 2.322 . S
O803 C812 1.257 . S
O804 Tb793 2.349 . S
O804 C815 1.261 . S
O805 Tb792 2.303 . S
O805 C815 1.257 . S
O806 Tb793 2.415 . S
O806 C822 1.239 . S
O807 Tb793 2.399 . S
O807 C822 1.263 . S
O808 Tb793 2.325 . S
O808 C823 1.236 . S
O809 Tb792 2.322 . S
O809 C823 1.257 . S
O810 Tb792 2.349 . S
O810 C794 1.261 . S
O811 Tb793 2.303 . S
O811 C794 1.257 . S
C812 O802 1.236 . S
C812 O803 1.257 . S
O813 Tb792 2.415 . S
O813 C801 1.239 . S
O814 Tb792 2.399 . S
O814 C801 1.263 . S
C815 O804 1.261 . S
C815 O805 1.257 . S
C816 C819 1.358 . S
C816 C820 1.332 . S
C816 C822 1.504 . S
C817 C818 1.373 . S
C817 C821 1.308 . S
C818 C817 1.373 . S
C818 C819 1.429 . S
C818 H828 0.932 . S
C819 C816 1.358 . S
C819 C818 1.429 . S
C819 H829 0.930 . S
C820 C816 1.332 . S
C820 C821 1.394 . S
C820 H830 0.932 . S
C821 C817 1.308 . S
C821 C820 1.394 . S
C821 H831 0.929 . S
C822 Tb793 2.764 . S
C822 O806 1.239 . S
C822 O807 1.263 . S
C822 C816 1.504 . S
C823 O808 1.236 . S
C823 O809 1.257 . S
H824 C797 0.932 . S
H825 C798 0.930 . S
H826 C799 0.932 . S
H827 C800 0.929 . S
H828 C818 0.932 . S
H829 C819 0.930 . S
H830 C820 0.932 . S
H831 C821 0.929 . S
Tb832 C841 2.764 . S
Tb832 O842 2.325 . S
Tb832 O845 2.303 . S
Tb832 O849 2.322 . S
Tb832 O850 2.349 . S
Tb832 O853 2.415 . S
Tb832 O854 2.399 . S
Tb833 O843 2.322 . S
Tb833 O844 2.349 . S
Tb833 O846 2.415 . S
Tb833 O847 2.399 . S
Tb833 O848 2.325 . S
Tb833 O851 2.303 . S
Tb833 C862 2.764 . S
C834 O850 1.261 . S
C834 O851 1.257 . S
C835 C838 1.358 . S
C835 C839 1.332 . S
C835 C841 1.504 . S
C836 C837 1.373 . S
C836 C840 1.308 . S
C837 C836 1.373 . S
C837 C838 1.429 . S
C837 H864 0.932 . S
C838 C835 1.358 . S
C838 C837 1.429 . S
C838 H865 0.930 . S
C839 C835 1.332 . S
C839 C840 1.394 . S
C839 H866 0.932 . S
C840 C836 1.308 . S
C840 C839 1.394 . S
C840 H867 0.929 . S
C841 Tb832 2.764 . S
C841 C835 1.504 . S
C841 O853 1.239 . S
C841 O854 1.263 . S
O842 Tb832 2.325 . S
O842 C852 1.236 . S
O843 Tb833 2.322 . S
O843 C852 1.257 . S
O844 Tb833 2.349 . S
O844 C855 1.261 . S
O845 Tb832 2.303 . S
O845 C855 1.257 . S
O846 Tb833 2.415 . S
O846 C862 1.239 . S
O847 Tb833 2.399 . S
O847 C862 1.263 . S
O848 Tb833 2.325 . S
O848 C863 1.236 . S
O849 Tb832 2.322 . S
O849 C863 1.257 . S
O850 Tb832 2.349 . S
O850 C834 1.261 . S
O851 Tb833 2.303 . S
O851 C834 1.257 . S
C852 O842 1.236 . S
C852 O843 1.257 . S
O853 Tb832 2.415 . S
O853 C841 1.239 . S
O854 Tb832 2.399 . S
O854 C841 1.263 . S
C855 O844 1.261 . S
C855 O845 1.257 . S
C856 C859 1.358 . S
C856 C860 1.332 . S
C856 C862 1.504 . S
C857 C858 1.373 . S
C857 C861 1.308 . S
C858 C857 1.373 . S
C858 C859 1.429 . S
C858 H868 0.932 . S
C859 C856 1.358 . S
C859 C858 1.429 . S
C859 H869 0.930 . S
C860 C856 1.332 . S
C860 C861 1.394 . S
C860 H870 0.932 . S
C861 C857 1.308 . S
C861 C860 1.394 . S
C861 H871 0.929 . S
C862 Tb833 2.764 . S
C862 O846 1.239 . S
C862 O847 1.263 . S
C862 C856 1.504 . S
C863 O848 1.236 . S
C863 O849 1.257 . S
H864 C837 0.932 . S
H865 C838 0.930 . S
H866 C839 0.932 . S
H867 C840 0.929 . S
H868 C858 0.932 . S
H869 C859 0.930 . S
H870 C860 0.932 . S
H871 C861 0.929 . S
Tb872 C881 2.764 . S
Tb872 O882 2.325 . S
Tb872 O885 2.303 . S
Tb872 O889 2.322 . S
Tb872 O890 2.349 . S
Tb872 O893 2.415 . S
Tb872 O894 2.399 . S
Tb873 O883 2.322 . S
Tb873 O884 2.349 . S
Tb873 O886 2.415 . S
Tb873 O887 2.399 . S
Tb873 O888 2.325 . S
Tb873 O891 2.303 . S
Tb873 C902 2.764 . S
C874 O890 1.261 . S
C874 O891 1.257 . S
C875 C878 1.358 . S
C875 C879 1.332 . S
C875 C881 1.504 . S
C876 C877 1.373 . S
C876 C880 1.308 . S
C877 C876 1.373 . S
C877 C878 1.429 . S
C877 H904 0.932 . S
C878 C875 1.358 . S
C878 C877 1.429 . S
C878 H905 0.930 . S
C879 C875 1.332 . S
C879 C880 1.394 . S
C879 H906 0.932 . S
C880 C876 1.308 . S
C880 C879 1.394 . S
C880 H907 0.929 . S
C881 Tb872 2.764 . S
C881 C875 1.504 . S
C881 O893 1.239 . S
C881 O894 1.263 . S
O882 Tb872 2.325 . S
O882 C892 1.236 . S
O883 Tb873 2.322 . S
O883 C892 1.257 . S
O884 Tb873 2.349 . S
O884 C895 1.261 . S
O885 Tb872 2.303 . S
O885 C895 1.257 . S
O886 Tb873 2.415 . S
O886 C902 1.239 . S
O887 Tb873 2.399 . S
O887 C902 1.263 . S
O888 Tb873 2.325 . S
O888 C903 1.236 . S
O889 Tb872 2.322 . S
O889 C903 1.257 . S
O890 Tb872 2.349 . S
O890 C874 1.261 . S
O891 Tb873 2.303 . S
O891 C874 1.257 . S
C892 O882 1.236 . S
C892 O883 1.257 . S
O893 Tb872 2.415 . S
O893 C881 1.239 . S
O894 Tb872 2.399 . S
O894 C881 1.263 . S
C895 O884 1.261 . S
C895 O885 1.257 . S
C896 C899 1.358 . S
C896 C900 1.332 . S
C896 C902 1.504 . S
C897 C898 1.373 . S
C897 C901 1.308 . S
C898 C897 1.373 . S
C898 C899 1.429 . S
C898 H908 0.932 . S
C899 C896 1.358 . S
C899 C898 1.429 . S
C899 H909 0.930 . S
C900 C896 1.332 . S
C900 C901 1.394 . S
C900 H910 0.932 . S
C901 C897 1.308 . S
C901 C900 1.394 . S
C901 H911 0.929 . S
C902 Tb873 2.764 . S
C902 O886 1.239 . S
C902 O887 1.263 . S
C902 C896 1.504 . S
C903 O888 1.236 . S
C903 O889 1.257 . S
H904 C877 0.932 . S
H905 C878 0.930 . S
H906 C879 0.932 . S
H907 C880 0.929 . S
H908 C898 0.932 . S
H909 C899 0.930 . S
H910 C900 0.932 . S
H911 C901 0.929 . S
Tb912 C921 2.764 1_455 S
Tb912 O922 2.325 . S
Tb912 O925 2.303 . S
Tb912 O929 2.322 . S
Tb912 O930 2.349 . S
Tb912 O933 2.415 1_455 S
Tb912 O934 2.399 1_455 S
Tb913 O923 2.322 . S
Tb913 O924 2.349 1_554 S
Tb913 O926 2.415 . S
Tb913 O927 2.399 1_554 S
Tb913 O928 2.325 . S
Tb913 O931 2.303 . S
Tb913 C942 2.764 . S
C914 O930 1.261 . S
C914 O931 1.257 . S
C915 C918 1.358 . S
C915 C919 1.332 . S
C915 C921 1.504 . S
C916 C917 1.373 . S
C916 C920 1.308 . S
C917 C916 1.373 . S
C917 C918 1.429 . S
C917 H944 0.932 . S
C918 C915 1.358 . S
C918 C917 1.429 . S
C918 H945 0.930 . S
C919 C915 1.332 . S
C919 C920 1.394 . S
C919 H946 0.932 . S
C920 C916 1.308 . S
C920 C919 1.394 . S
C920 H947 0.929 . S
C921 Tb912 2.764 1_655 S
C921 C915 1.504 . S
C921 O933 1.239 . S
C921 O934 1.263 . S
O922 Tb912 2.325 . S
O922 C932 1.236 . S
O923 Tb913 2.322 . S
O923 C932 1.257 . S
O924 Tb913 2.349 1_556 S
O924 C935 1.261 . S
O925 Tb912 2.303 . S
O925 C935 1.257 1_554 S
O926 Tb913 2.415 . S
O926 C942 1.239 . S
O927 Tb913 2.399 1_556 S
O927 C942 1.263 1_556 S
O928 Tb913 2.325 . S
O928 C943 1.236 . S
O929 Tb912 2.322 . S
O929 C943 1.257 . S
O930 Tb912 2.349 . S
O930 C914 1.261 . S
O931 Tb913 2.303 . S
O931 C914 1.257 . S
C932 O922 1.236 . S
C932 O923 1.257 . S
O933 Tb912 2.415 1_655 S
O933 C921 1.239 . S
O934 Tb912 2.399 1_655 S
O934 C921 1.263 . S
C935 O924 1.261 . S
C935 O925 1.257 1_556 S
C936 C939 1.358 1_554 S
C936 C940 1.332 . S
C936 C942 1.504 . S
C937 C938 1.373 . S
C937 C941 1.308 1_556 S
C938 C937 1.373 . S
C938 C939 1.429 . S
C938 H948 0.932 . S
C939 C936 1.358 1_556 S
C939 C938 1.429 . S
C939 H949 0.930 . S
C940 C936 1.332 . S
C940 C941 1.394 . S
C940 H950 0.932 . S
C941 C937 1.308 1_554 S
C941 C940 1.394 . S
C941 H951 0.929 . S
C942 Tb913 2.764 . S
C942 O926 1.239 . S
C942 O927 1.263 1_554 S
C942 C936 1.504 . S
C943 O928 1.236 . S
C943 O929 1.257 . S
H944 C917 0.932 . S
H945 C918 0.930 . S
H946 C919 0.932 . S
H947 C920 0.929 . S
H948 C938 0.932 . S
H949 C939 0.930 . S
H950 C940 0.932 . S
H951 C941 0.929 . S
H952 C970 0.951 . S
H953 C972 0.951 . S
H954 C974 0.950 . S
H955 C975 0.950 . S
H956 C977 0.950 . S
H957 C980 0.950 . S
H958 C981 0.950 . S
H959 C983 0.950 . S
H960 C984 0.947 . S
H961 C985 0.951 . S
H962 C987 0.951 . S
H963 C989 0.950 . S
H964 C990 0.950 . S
H965 C992 0.950 . S
H966 C995 0.950 . S
H967 C996 0.950 . S
H968 C998 0.950 . S
H969 C999 0.950 . S
C970 H952 0.951 . S
C970 C971 1.366 1_455 S
C970 C972 1.388 . S
C971 C970 1.366 1_655 S
C971 C975 1.385 . S
C972 H953 0.951 . S
C972 C970 1.388 . S
C972 C973 1.366 . S
C973 C972 1.366 . S
C973 C974 1.414 1_455 S
C973 C976 1.499 . S
C974 H954 0.950 . S
C974 C973 1.414 1_655 S
C974 C975 1.374 . S
C975 H955 0.950 . S
C975 C971 1.385 . S
C975 C974 1.374 . S
C976 C973 1.499 . S
C976 C977 1.373 1_455 S
C976 C978 1.389 . S
C977 H956 0.950 . S
C977 C976 1.373 1_655 S
C977 C993 1.377 . S
C978 C976 1.389 . S
C978 C979 1.524 . S
C978 C992 1.377 . S
C979 C978 1.524 . S
C979 C980 1.397 . S
C979 C984 1.363 . S
C980 H957 0.950 . S
C980 C979 1.397 . S
C980 C981 1.334 . S
C981 H958 0.950 . S
C981 C980 1.334 . S
C981 C982 1.287 . S
C982 C981 1.287 . S
C982 C983 1.524 . S
C982 H1001 0.913 . S
C983 H959 0.950 . S
C983 C982 1.524 . S
C983 C984 1.415 . S
C984 H960 0.947 . S
C984 C979 1.363 . S
C984 C983 1.415 . S
C985 H961 0.951 . S
C985 C986 1.366 1_556 S
C985 C987 1.388 . S
C986 C985 1.366 1_554 S
C986 C990 1.385 . S
C987 H962 0.951 . S
C987 C985 1.388 . S
C987 C988 1.366 . S
C988 C987 1.366 . S
C988 C989 1.414 1_556 S
C988 C991 1.499 . S
C989 H963 0.950 . S
C989 C988 1.414 1_554 S
C989 C990 1.374 . S
C990 H964 0.950 . S
C990 C986 1.385 . S
C990 C989 1.374 . S
C991 C988 1.499 . S
C991 C992 1.373 . S
C991 C993 1.389 1_455 S
C992 H965 0.950 . S
C992 C978 1.377 . S
C992 C991 1.373 . S
C993 C977 1.377 . S
C993 C991 1.389 1_655 S
C993 C994 1.524 . S
C994 C993 1.524 . S
C994 C995 1.397 1_556 S
C994 C999 1.363 . S
C995 H966 0.950 . S
C995 C994 1.397 1_554 S
C995 C996 1.334 . S
C996 H967 0.950 . S
C996 C995 1.334 . S
C996 C997 1.287 1_554 S
C997 C996 1.287 1_556 S
C997 C998 1.524 . S
C997 H1000 0.999 . S
C998 H968 0.950 . S
C998 C997 1.524 . S
C998 C999 1.415 . S
C999 H969 0.950 . S
C999 C994 1.363 . S
C999 C998 1.415 . S
H1000 C997 0.999 . S
H1001 C982 0.913 . S
H1002 C1020 0.951 . S
H1003 C1022 0.951 . S
H1004 C1024 0.950 . S
H1005 C1025 0.950 . S
H1006 C1027 0.950 . S
H1007 C1030 0.950 . S
H1008 C1031 0.950 . S
H1009 C1033 0.950 . S
H1010 C1034 0.950 . S
H1011 C1035 0.951 . S
H1012 C1037 0.951 . S
H1013 C1039 0.950 . S
H1014 C1040 0.950 . S
H1015 C1042 0.950 . S
H1016 C1045 0.950 . S
H1017 C1046 0.950 . S
H1018 C1048 0.950 . S
H1019 C1049 0.950 . S
C1020 H1002 0.951 . S
C1020 C1021 1.366 . S
C1020 C1022 1.388 . S
C1021 C1020 1.366 . S
C1021 C1025 1.385 . S
C1022 H1003 0.951 . S
C1022 C1020 1.388 . S
C1022 C1023 1.366 . S
C1023 C1022 1.366 . S
C1023 C1024 1.414 . S
C1023 C1026 1.499 . S
C1024 H1004 0.950 . S
C1024 C1023 1.414 . S
C1024 C1025 1.374 . S
C1025 H1005 0.950 . S
C1025 C1021 1.385 . S
C1025 C1024 1.374 . S
C1026 C1023 1.499 . S
C1026 C1027 1.373 . S
C1026 C1028 1.389 . S
C1027 H1006 0.950 . S
C1027 C1026 1.373 . S
C1027 C1043 1.377 . S
C1028 C1026 1.389 . S
C1028 C1029 1.524 . S
C1028 C1042 1.377 . S
C1029 C1028 1.524 . S
C1029 C1030 1.397 . S
C1029 C1034 1.363 . S
C1030 H1007 0.950 . S
C1030 C1029 1.397 . S
C1030 C1031 1.334 . S
C1031 H1008 0.950 . S
C1031 C1030 1.334 . S
C1031 C1032 1.287 . S
C1032 C1031 1.287 . S
C1032 C1033 1.524 . S
C1032 H1051 0.913 . S
C1033 H1009 0.950 . S
C1033 C1032 1.524 . S
C1033 C1034 1.415 . S
C1034 H1010 0.950 . S
C1034 C1029 1.363 . S
C1034 C1033 1.415 . S
C1035 H1011 0.951 . S
C1035 C1036 1.366 . S
C1035 C1037 1.388 . S
C1036 C1035 1.366 . S
C1036 C1040 1.385 . S
C1037 H1012 0.951 . S
C1037 C1035 1.388 . S
C1037 C1038 1.366 . S
C1038 C1037 1.366 . S
C1038 C1039 1.414 . S
C1038 C1041 1.499 . S
C1039 H1013 0.950 . S
C1039 C1038 1.414 . S
C1039 C1040 1.374 . S
C1040 H1014 0.950 . S
C1040 C1036 1.385 . S
C1040 C1039 1.374 . S
C1041 C1038 1.499 . S
C1041 C1042 1.373 . S
C1041 C1043 1.389 . S
C1042 H1015 0.950 . S
C1042 C1028 1.377 . S
C1042 C1041 1.373 . S
C1043 C1027 1.377 . S
C1043 C1041 1.389 . S
C1043 C1044 1.524 . S
C1044 C1043 1.524 . S
C1044 C1045 1.397 . S
C1044 C1049 1.363 . S
C1045 H1016 0.950 . S
C1045 C1044 1.397 . S
C1045 C1046 1.334 . S
C1046 H1017 0.950 . S
C1046 C1045 1.334 . S
C1046 C1047 1.287 . S
C1047 C1046 1.287 . S
C1047 C1048 1.524 . S
C1047 H1050 0.999 . S
C1048 H1018 0.950 . S
C1048 C1047 1.524 . S
C1048 C1049 1.415 . S
C1049 H1019 0.950 . S
C1049 C1044 1.363 . S
C1049 C1048 1.415 . S
H1050 C1047 0.999 . S
H1051 C1032 0.913 . S
H1052 C1070 0.951 . S
H1053 C1072 0.951 . S
H1054 C1074 0.950 . S
H1055 C1075 0.950 . S
H1056 C1077 0.950 . S
H1057 C1080 0.950 . S
H1058 C1081 0.950 . S
H1059 C1083 0.950 . S
H1060 C1084 0.950 . S
H1061 C1085 0.951 . S
H1062 C1087 0.951 . S
H1063 C1089 0.950 . S
H1064 C1090 0.950 . S
H1065 C1092 0.950 . S
H1066 C1095 0.950 . S
H1067 C1096 0.950 . S
H1068 C1098 0.950 . S
H1069 C1099 0.950 . S
C1070 H1052 0.951 . S
C1070 C1071 1.366 . S
C1070 C1072 1.388 . S
C1071 C1070 1.366 . S
C1071 C1075 1.385 . S
C1072 H1053 0.951 . S
C1072 C1070 1.388 . S
C1072 C1073 1.366 . S
C1073 C1072 1.366 . S
C1073 C1074 1.414 . S
C1073 C1076 1.499 . S
C1074 H1054 0.950 . S
C1074 C1073 1.414 . S
C1074 C1075 1.374 . S
C1075 H1055 0.950 . S
C1075 C1071 1.385 . S
C1075 C1074 1.374 . S
C1076 C1073 1.499 . S
C1076 C1077 1.373 . S
C1076 C1078 1.389 . S
C1077 H1056 0.950 . S
C1077 C1076 1.373 . S
C1077 C1093 1.377 . S
C1078 C1076 1.389 . S
C1078 C1079 1.524 . S
C1078 C1092 1.377 . S
C1079 C1078 1.524 . S
C1079 C1080 1.397 . S
C1079 C1084 1.363 . S
C1080 H1057 0.950 . S
C1080 C1079 1.397 . S
C1080 C1081 1.334 . S
C1081 H1058 0.950 . S
C1081 C1080 1.334 . S
C1081 C1082 1.287 . S
C1082 C1081 1.287 . S
C1082 C1083 1.524 . S
C1082 H1101 0.913 . S
C1083 H1059 0.950 . S
C1083 C1082 1.524 . S
C1083 C1084 1.415 . S
C1084 H1060 0.950 . S
C1084 C1079 1.363 . S
C1084 C1083 1.415 . S
C1085 H1061 0.951 . S
C1085 C1086 1.366 . S
C1085 C1087 1.388 . S
C1086 C1085 1.366 . S
C1086 C1090 1.385 . S
C1087 H1062 0.951 . S
C1087 C1085 1.388 . S
C1087 C1088 1.366 . S
C1088 C1087 1.366 . S
C1088 C1089 1.414 . S
C1088 C1091 1.499 . S
C1089 H1063 0.950 . S
C1089 C1088 1.414 . S
C1089 C1090 1.374 . S
C1090 H1064 0.950 . S
C1090 C1086 1.385 . S
C1090 C1089 1.374 . S
C1091 C1088 1.499 . S
C1091 C1092 1.373 . S
C1091 C1093 1.389 . S
C1092 H1065 0.950 . S
C1092 C1078 1.377 . S
C1092 C1091 1.373 . S
C1093 C1077 1.377 . S
C1093 C1091 1.389 . S
C1093 C1094 1.524 . S
C1094 C1093 1.524 . S
C1094 C1095 1.397 . S
C1094 C1099 1.363 . S
C1095 H1066 0.950 . S
C1095 C1094 1.397 . S
C1095 C1096 1.334 . S
C1096 H1067 0.950 . S
C1096 C1095 1.334 . S
C1096 C1097 1.287 . S
C1097 C1096 1.287 . S
C1097 C1098 1.524 . S
C1097 H1100 0.999 . S
C1098 H1068 0.950 . S
C1098 C1097 1.524 . S
C1098 C1099 1.415 . S
C1099 H1069 0.950 . S
C1099 C1094 1.363 . S
C1099 C1098 1.415 . S
H1100 C1097 0.999 . S
H1101 C1082 0.913 . S
H1102 C1120 0.951 . S
H1103 C1122 0.951 . S
H1104 C1124 0.950 . S
H1105 C1125 0.950 . S
H1106 C1127 0.950 . S
H1107 C1130 0.950 . S
H1108 C1131 0.950 . S
H1109 C1133 0.950 . S
H1110 C1134 0.950 . S
H1111 C1135 0.951 . S
H1112 C1137 0.951 . S
H1113 C1139 0.950 . S
H1114 C1140 0.950 . S
H1115 C1142 0.950 . S
H1116 C1145 0.950 . S
H1117 C1146 0.950 . S
H1118 C1148 0.950 . S
H1119 C1149 0.950 . S
C1120 H1102 0.951 . S
C1120 C1121 1.366 . S
C1120 C1122 1.388 . S
C1121 C1120 1.366 . S
C1121 C1125 1.385 . S
C1122 H1103 0.951 . S
C1122 C1120 1.388 . S
C1122 C1123 1.366 . S
C1123 C1122 1.366 . S
C1123 C1124 1.414 . S
C1123 C1126 1.499 . S
C1124 H1104 0.950 . S
C1124 C1123 1.414 . S
C1124 C1125 1.374 . S
C1125 H1105 0.950 . S
C1125 C1121 1.385 . S
C1125 C1124 1.374 . S
C1126 C1123 1.499 . S
C1126 C1127 1.373 . S
C1126 C1128 1.389 . S
C1127 H1106 0.950 . S
C1127 C1126 1.373 . S
C1127 C1143 1.377 . S
C1128 C1126 1.389 . S
C1128 C1129 1.524 . S
C1128 C1142 1.377 . S
C1129 C1128 1.524 . S
C1129 C1130 1.397 . S
C1129 C1134 1.363 . S
C1130 H1107 0.950 . S
C1130 C1129 1.397 . S
C1130 C1131 1.334 . S
C1131 H1108 0.950 . S
C1131 C1130 1.334 . S
C1131 C1132 1.287 . S
C1132 C1131 1.287 . S
C1132 C1133 1.524 . S
C1132 H1151 0.913 . S
C1133 H1109 0.950 . S
C1133 C1132 1.524 . S
C1133 C1134 1.415 . S
C1134 H1110 0.950 . S
C1134 C1129 1.363 . S
C1134 C1133 1.415 . S
C1135 H1111 0.951 . S
C1135 C1136 1.366 . S
C1135 C1137 1.388 . S
C1136 C1135 1.366 . S
C1136 C1140 1.385 . S
C1137 H1112 0.951 . S
C1137 C1135 1.388 . S
C1137 C1138 1.366 . S
C1138 C1137 1.366 . S
C1138 C1139 1.414 . S
C1138 C1141 1.499 . S
C1139 H1113 0.950 . S
C1139 C1138 1.414 . S
C1139 C1140 1.374 . S
C1140 H1114 0.950 . S
C1140 C1136 1.385 . S
C1140 C1139 1.374 . S
C1141 C1138 1.499 . S
C1141 C1142 1.373 . S
C1141 C1143 1.389 . S
C1142 H1115 0.950 . S
C1142 C1128 1.377 . S
C1142 C1141 1.373 . S
C1143 C1127 1.377 . S
C1143 C1141 1.389 . S
C1143 C1144 1.524 . S
C1144 C1143 1.524 . S
C1144 C1145 1.397 . S
C1144 C1149 1.363 . S
C1145 H1116 0.950 . S
C1145 C1144 1.397 . S
C1145 C1146 1.334 . S
C1146 H1117 0.950 . S
C1146 C1145 1.334 . S
C1146 C1147 1.287 . S
C1147 C1146 1.287 . S
C1147 C1148 1.524 . S
C1147 H1150 0.999 . S
C1148 H1118 0.950 . S
C1148 C1147 1.524 . S
C1148 C1149 1.415 . S
C1149 H1119 0.950 . S
C1149 C1144 1.363 . S
C1149 C1148 1.415 . S
H1150 C1147 0.999 . S
H1151 C1132 0.913 . S
H1152 C1170 0.951 . S
H1153 C1172 0.951 . S
H1154 C1174 0.950 . S
H1155 C1175 0.950 . S
H1156 C1177 0.950 . S
H1157 C1180 0.950 . S
H1158 C1181 0.950 . S
H1159 C1183 0.950 . S
H1160 C1184 0.950 . S
H1161 C1185 0.951 . S
H1162 C1187 0.951 . S
H1163 C1189 0.950 . S
H1164 C1190 0.950 . S
H1165 C1192 0.950 . S
H1166 C1195 0.950 . S
H1167 C1196 0.950 1_655 S
H1168 C1198 0.950 . S
H1169 C1199 0.950 . S
C1170 H1152 0.951 . S
C1170 C1171 1.366 . S
C1170 C1172 1.388 . S
C1171 C1170 1.366 . S
C1171 C1175 1.385 . S
C1172 H1153 0.951 . S
C1172 C1170 1.388 . S
C1172 C1173 1.366 . S
C1173 C1172 1.366 . S
C1173 C1174 1.414 . S
C1173 C1176 1.499 . S
C1174 H1154 0.950 . S
C1174 C1173 1.414 . S
C1174 C1175 1.374 . S
C1175 H1155 0.950 . S
C1175 C1171 1.385 . S
C1175 C1174 1.374 . S
C1176 C1173 1.499 . S
C1176 C1177 1.373 . S
C1176 C1178 1.389 . S
C1177 H1156 0.950 . S
C1177 C1176 1.373 . S
C1177 C1193 1.377 . S
C1178 C1176 1.389 . S
C1178 C1179 1.524 . S
C1178 C1192 1.377 . S
C1179 C1178 1.524 . S
C1179 C1180 1.397 . S
C1179 C1184 1.363 . S
C1180 H1157 0.950 . S
C1180 C1179 1.397 . S
C1180 C1181 1.334 . S
C1181 H1158 0.950 . S
C1181 C1180 1.334 . S
C1181 C1182 1.287 . S
C1182 C1181 1.287 . S
C1182 C1183 1.524 . S
C1182 H1201 0.913 . S
C1183 H1159 0.950 . S
C1183 C1182 1.524 . S
C1183 C1184 1.415 . S
C1184 H1160 0.950 . S
C1184 C1179 1.363 . S
C1184 C1183 1.415 . S
C1185 H1161 0.951 . S
C1185 C1186 1.366 . S
C1185 C1187 1.388 . S
C1186 C1185 1.366 . S
C1186 C1190 1.385 . S
C1187 H1162 0.951 . S
C1187 C1185 1.388 . S
C1187 C1188 1.366 . S
C1188 C1187 1.366 . S
C1188 C1189 1.414 . S
C1188 C1191 1.499 . S
C1189 H1163 0.950 . S
C1189 C1188 1.414 . S
C1189 C1190 1.374 . S
C1190 H1164 0.950 . S
C1190 C1186 1.385 . S
C1190 C1189 1.374 . S
C1191 C1188 1.499 . S
C1191 C1192 1.373 . S
C1191 C1193 1.389 . S
C1192 H1165 0.950 . S
C1192 C1178 1.377 . S
C1192 C1191 1.373 . S
C1193 C1177 1.377 . S
C1193 C1191 1.389 . S
C1193 C1194 1.524 . S
C1194 C1193 1.524 . S
C1194 C1195 1.397 . S
C1194 C1199 1.363 . S
C1195 H1166 0.950 . S
C1195 C1194 1.397 . S
C1195 C1196 1.334 . S
C1196 H1167 0.950 1_455 S
C1196 C1195 1.334 . S
C1196 C1197 1.287 . S
C1197 C1196 1.287 . S
C1197 C1198 1.524 . S
C1197 H1200 0.999 . S
C1198 H1168 0.950 . S
C1198 C1197 1.524 . S
C1198 C1199 1.415 . S
C1199 H1169 0.950 . S
C1199 C1194 1.363 . S
C1199 C1198 1.415 . S
H1200 C1197 0.999 . S
H1201 C1182 0.913 . S
H1202 C1220 0.951 . S
H1203 C1222 0.951 . S
H1204 C1224 0.950 . S
H1205 C1225 0.950 . S
H1206 C1227 0.950 . S
H1207 C1230 0.950 . S
H1208 C1231 0.950 . S
H1209 C1233 0.950 . S
H1210 C1234 0.950 . S
H1211 C1235 0.951 . S
H1212 C1237 0.951 . S
H1213 C1239 0.950 . S
H1214 C1240 0.950 . S
H1215 C1242 0.950 . S
H1216 C1245 0.950 . S
H1217 C1246 0.950 . S
H1218 C1248 0.950 . S
H1219 C1249 0.950 . S
C1220 H1202 0.951 . S
C1220 C1221 1.366 . S
C1220 C1222 1.388 . S
C1221 C1220 1.366 . S
C1221 C1225 1.385 . S
C1222 H1203 0.951 . S
C1222 C1220 1.388 . S
C1222 C1223 1.366 . S
C1223 C1222 1.366 . S
C1223 C1224 1.414 . S
C1223 C1226 1.499 . S
C1224 H1204 0.950 . S
C1224 C1223 1.414 . S
C1224 C1225 1.374 . S
C1225 H1205 0.950 . S
C1225 C1221 1.385 . S
C1225 C1224 1.374 . S
C1226 C1223 1.499 . S
C1226 C1227 1.373 . S
C1226 C1228 1.389 . S
C1227 H1206 0.950 . S
C1227 C1226 1.373 . S
C1227 C1243 1.377 . S
C1228 C1226 1.389 . S
C1228 C1229 1.524 . S
C1228 C1242 1.377 . S
C1229 C1228 1.524 . S
C1229 C1230 1.397 . S
C1229 C1234 1.363 . S
C1230 H1207 0.950 . S
C1230 C1229 1.397 . S
C1230 C1231 1.334 . S
C1231 H1208 0.950 . S
C1231 C1230 1.334 . S
C1231 C1232 1.287 . S
C1232 C1231 1.287 . S
C1232 C1233 1.524 . S
C1232 H1251 0.913 . S
C1233 H1209 0.950 . S
C1233 C1232 1.524 . S
C1233 C1234 1.415 . S
C1234 H1210 0.950 . S
C1234 C1229 1.363 . S
C1234 C1233 1.415 . S
C1235 H1211 0.951 . S
C1235 C1236 1.366 . S
C1235 C1237 1.388 . S
C1236 C1235 1.366 . S
C1236 C1240 1.385 . S
C1237 H1212 0.951 . S
C1237 C1235 1.388 . S
C1237 C1238 1.366 . S
C1238 C1237 1.366 . S
C1238 C1239 1.414 . S
C1238 C1241 1.499 . S
C1239 H1213 0.950 . S
C1239 C1238 1.414 . S
C1239 C1240 1.374 . S
C1240 H1214 0.950 . S
C1240 C1236 1.385 . S
C1240 C1239 1.374 . S
C1241 C1238 1.499 . S
C1241 C1242 1.373 . S
C1241 C1243 1.389 . S
C1242 H1215 0.950 . S
C1242 C1228 1.377 . S
C1242 C1241 1.373 . S
C1243 C1227 1.377 . S
C1243 C1241 1.389 . S
C1243 C1244 1.524 . S
C1244 C1243 1.524 . S
C1244 C1245 1.397 . S
C1244 C1249 1.363 . S
C1245 H1216 0.950 . S
C1245 C1244 1.397 . S
C1245 C1246 1.334 . S
C1246 H1217 0.950 . S
C1246 C1245 1.334 . S
C1246 C1247 1.287 . S
C1247 C1246 1.287 . S
C1247 C1248 1.524 . S
C1247 H1250 0.999 . S
C1248 H1218 0.950 . S
C1248 C1247 1.524 . S
C1248 C1249 1.415 . S
C1249 H1219 0.950 . S
C1249 C1244 1.363 . S
C1249 C1248 1.415 . S
H1250 C1247 0.999 . S
H1251 C1232 0.913 . S
H1252 C1270 0.951 . S
H1253 C1272 0.951 . S
H1254 C1274 0.950 . S
H1255 C1275 0.950 . S
H1256 C1277 0.950 . S
H1257 C1280 0.950 . S
H1258 C1281 0.950 . S
H1259 C1283 0.950 . S
H1260 C1284 0.950 . S
H1261 C1285 0.951 . S
H1262 C1287 0.951 . S
H1263 C1289 0.950 . S
H1264 C1290 0.950 . S
H1265 C1292 0.950 . S
H1266 C1295 0.950 . S
H1267 C1296 0.950 . S
H1268 C1298 0.950 . S
H1269 C1299 0.950 . S
C1270 H1252 0.951 . S
C1270 C1271 1.366 . S
C1270 C1272 1.388 . S
C1271 C1270 1.366 . S
C1271 C1275 1.385 . S
C1272 H1253 0.951 . S
C1272 C1270 1.388 . S
C1272 C1273 1.366 . S
C1273 C1272 1.366 . S
C1273 C1274 1.414 . S
C1273 C1276 1.499 . S
C1274 H1254 0.950 . S
C1274 C1273 1.414 . S
C1274 C1275 1.374 . S
C1275 H1255 0.950 . S
C1275 C1271 1.385 . S
C1275 C1274 1.374 . S
C1276 C1273 1.499 . S
C1276 C1277 1.373 . S
C1276 C1278 1.389 . S
C1277 H1256 0.950 . S
C1277 C1276 1.373 . S
C1277 C1293 1.377 . S
C1278 C1276 1.389 . S
C1278 C1279 1.524 . S
C1278 C1292 1.377 . S
C1279 C1278 1.524 . S
C1279 C1280 1.397 . S
C1279 C1284 1.363 . S
C1280 H1257 0.950 . S
C1280 C1279 1.397 . S
C1280 C1281 1.334 . S
C1281 H1258 0.950 . S
C1281 C1280 1.334 . S
C1281 C1282 1.287 . S
C1282 C1281 1.287 . S
C1282 C1283 1.524 . S
C1282 H1301 0.913 . S
C1283 H1259 0.950 . S
C1283 C1282 1.524 . S
C1283 C1284 1.415 . S
C1284 H1260 0.950 . S
C1284 C1279 1.363 . S
C1284 C1283 1.415 . S
C1285 H1261 0.951 . S
C1285 C1286 1.366 . S
C1285 C1287 1.388 . S
C1286 C1285 1.366 . S
C1286 C1290 1.385 . S
C1287 H1262 0.951 . S
C1287 C1285 1.388 . S
C1287 C1288 1.366 . S
C1288 C1287 1.366 . S
C1288 C1289 1.414 . S
C1288 C1291 1.499 . S
C1289 H1263 0.950 . S
C1289 C1288 1.414 . S
C1289 C1290 1.374 . S
C1290 H1264 0.950 . S
C1290 C1286 1.385 . S
C1290 C1289 1.374 . S
C1291 C1288 1.499 . S
C1291 C1292 1.373 . S
C1291 C1293 1.389 . S
C1292 H1265 0.950 . S
C1292 C1278 1.377 . S
C1292 C1291 1.373 . S
C1293 C1277 1.377 . S
C1293 C1291 1.389 . S
C1293 C1294 1.524 . S
C1294 C1293 1.524 . S
C1294 C1295 1.397 . S
C1294 C1299 1.363 . S
C1295 H1266 0.950 . S
C1295 C1294 1.397 . S
C1295 C1296 1.334 . S
C1296 H1267 0.950 . S
C1296 C1295 1.334 . S
C1296 C1297 1.287 . S
C1297 C1296 1.287 . S
C1297 C1298 1.524 . S
C1297 H1300 0.999 . S
C1298 H1268 0.950 . S
C1298 C1297 1.524 . S
C1298 C1299 1.415 . S
C1299 H1269 0.950 . S
C1299 C1294 1.363 . S
C1299 C1298 1.415 . S
H1300 C1297 0.999 . S
H1301 C1282 0.913 . S
H1302 C1320 0.951 . S
H1303 C1322 0.951 . S
H1304 C1324 0.950 . S
H1305 C1325 0.950 . S
H1306 C1327 0.950 . S
H1307 C1330 0.950 . S
H1308 C1331 0.950 . S
H1309 C1333 0.950 . S
H1310 C1334 0.950 . S
H1311 C1335 0.951 . S
H1312 C1337 0.951 . S
H1313 C1339 0.950 . S
H1314 C1340 0.950 . S
H1315 C1342 0.950 . S
H1316 C1345 0.950 . S
H1317 C1346 0.950 . S
H1318 C1348 0.950 . S
H1319 C1349 0.950 . S
C1320 H1302 0.951 . S
C1320 C1321 1.366 . S
C1320 C1322 1.388 . S
C1321 C1320 1.366 . S
C1321 C1325 1.385 . S
C1322 H1303 0.951 . S
C1322 C1320 1.388 . S
C1322 C1323 1.366 . S
C1323 C1322 1.366 . S
C1323 C1324 1.414 . S
C1323 C1326 1.499 . S
C1324 H1304 0.950 . S
C1324 C1323 1.414 . S
C1324 C1325 1.374 . S
C1325 H1305 0.950 . S
C1325 C1321 1.385 . S
C1325 C1324 1.374 . S
C1326 C1323 1.499 . S
C1326 C1327 1.373 . S
C1326 C1328 1.389 . S
C1327 H1306 0.950 . S
C1327 C1326 1.373 . S
C1327 C1343 1.377 . S
C1328 C1326 1.389 . S
C1328 C1329 1.524 . S
C1328 C1342 1.377 . S
C1329 C1328 1.524 . S
C1329 C1330 1.397 . S
C1329 C1334 1.363 . S
C1330 H1307 0.950 . S
C1330 C1329 1.397 . S
C1330 C1331 1.334 . S
C1331 H1308 0.950 . S
C1331 C1330 1.334 . S
C1331 C1332 1.287 . S
C1332 C1331 1.287 . S
C1332 C1333 1.524 . S
C1332 H1351 0.913 . S
C1333 H1309 0.950 . S
C1333 C1332 1.524 . S
C1333 C1334 1.415 . S
C1334 H1310 0.950 . S
C1334 C1329 1.363 . S
C1334 C1333 1.415 . S
C1335 H1311 0.951 . S
C1335 C1336 1.366 . S
C1335 C1337 1.388 . S
C1336 C1335 1.366 . S
C1336 C1340 1.385 . S
C1337 H1312 0.951 . S
C1337 C1335 1.388 . S
C1337 C1338 1.366 . S
C1338 C1337 1.366 . S
C1338 C1339 1.414 . S
C1338 C1341 1.499 . S
C1339 H1313 0.950 . S
C1339 C1338 1.414 . S
C1339 C1340 1.374 . S
C1340 H1314 0.950 . S
C1340 C1336 1.385 . S
C1340 C1339 1.374 . S
C1341 C1338 1.499 . S
C1341 C1342 1.373 . S
C1341 C1343 1.389 . S
C1342 H1315 0.950 . S
C1342 C1328 1.377 . S
C1342 C1341 1.373 . S
C1343 C1327 1.377 . S
C1343 C1341 1.389 . S
C1343 C1344 1.524 . S
C1344 C1343 1.524 . S
C1344 C1345 1.397 . S
C1344 C1349 1.363 . S
C1345 H1316 0.950 . S
C1345 C1344 1.397 . S
C1345 C1346 1.334 . S
C1346 H1317 0.950 . S
C1346 C1345 1.334 . S
C1346 C1347 1.287 . S
C1347 C1346 1.287 . S
C1347 C1348 1.524 . S
C1347 H1350 0.999 . S
C1348 H1318 0.950 . S
C1348 C1347 1.524 . S
C1348 C1349 1.415 . S
C1349 H1319 0.950 . S
C1349 C1344 1.363 . S
C1349 C1348 1.415 . S
H1350 C1347 0.999 . S
H1351 C1332 0.913 . S
H1352 C1370 0.951 . S
H1353 C1372 0.954 1_565 S
H1354 C1374 0.950 . S
H1355 C1375 0.950 . S
H1356 C1377 0.950 . S
H1357 C1380 0.950 . S
H1358 C1381 0.949 1_455 S
H1359 C1383 0.950 . S
H1360 C1384 0.950 . S
H1361 C1385 0.951 . S
H1362 C1387 0.951 . S
H1363 C1389 0.950 1_565 S
H1364 C1390 0.950 1_565 S
H1365 C1392 0.950 . S
H1366 C1395 0.950 . S
H1367 C1396 0.950 . S
H1368 C1398 0.950 . S
H1369 C1399 0.950 . S
C1370 H1352 0.951 . S
C1370 C1371 1.366 1_565 S
C1370 C1372 1.388 1_565 S
C1371 C1370 1.366 1_545 S
C1371 C1375 1.385 . S
C1372 H1353 0.954 1_545 S
C1372 C1370 1.388 1_545 S
C1372 C1373 1.362 . S
C1373 C1372 1.362 . S
C1373 C1374 1.414 . S
C1373 C1376 1.499 . S
C1374 H1354 0.950 . S
C1374 C1373 1.414 . S
C1374 C1375 1.374 . S
C1375 H1355 0.950 . S
C1375 C1371 1.385 . S
C1375 C1374 1.374 . S
C1376 C1373 1.499 . S
C1376 C1377 1.373 . S
C1376 C1378 1.389 . S
C1377 H1356 0.950 . S
C1377 C1376 1.373 . S
C1377 C1393 1.377 . S
C1378 C1376 1.389 . S
C1378 C1379 1.524 1_545 S
C1378 C1392 1.377 . S
C1379 C1378 1.524 1_565 S
C1379 C1380 1.397 1_565 S
C1379 C1384 1.363 . S
C1380 H1357 0.950 . S
C1380 C1379 1.397 1_545 S
C1380 C1381 1.346 . S
C1381 H1358 0.949 1_655 S
C1381 C1380 1.346 . S
C1381 C1382 1.265 1_645 S
C1382 C1381 1.265 1_465 S
C1382 C1383 1.521 1_455 S
C1382 H1401 0.927 . S
C1383 H1359 0.950 . S
C1383 C1382 1.521 1_655 S
C1383 C1384 1.415 . S
C1384 H1360 0.950 . S
C1384 C1379 1.363 . S
C1384 C1383 1.415 . S
C1385 H1361 0.951 . S
C1385 C1386 1.366 . S
C1385 C1387 1.388 . S
C1386 C1385 1.366 . S
C1386 C1390 1.385 . S
C1387 H1362 0.951 . S
C1387 C1385 1.388 . S
C1387 C1388 1.366 1_455 S
C1388 C1387 1.366 1_655 S
C1388 C1389 1.414 . S
C1388 C1391 1.499 . S
C1389 H1363 0.950 1_545 S
C1389 C1388 1.414 . S
C1389 C1390 1.374 1_655 S
C1390 H1364 0.950 1_545 S
C1390 C1386 1.385 . S
C1390 C1389 1.374 1_455 S
C1391 C1388 1.499 . S
C1391 C1392 1.373 . S
C1391 C1393 1.389 . S
C1392 H1365 0.950 . S
C1392 C1378 1.377 . S
C1392 C1391 1.373 . S
C1393 C1377 1.377 . S
C1393 C1391 1.389 . S
C1393 C1394 1.524 . S
C1394 C1393 1.524 . S
C1394 C1395 1.397 . S
C1394 C1399 1.363 . S
C1395 H1366 0.950 . S
C1395 C1394 1.397 . S
C1395 C1396 1.334 . S
C1396 H1367 0.950 . S
C1396 C1395 1.334 . S
C1396 C1397 1.287 . S
C1397 C1396 1.287 . S
C1397 C1398 1.524 . S
C1397 H1400 0.999 . S
C1398 H1368 0.950 . S
C1398 C1397 1.524 . S
C1398 C1399 1.415 . S
C1399 H1369 0.950 . S
C1399 C1394 1.363 . S
C1399 C1398 1.415 . S
H1400 C1397 0.999 . S
H1401 C1382 0.927 . S
H1402 C1420 0.951 . S
H1403 C1422 0.951 . S
H1404 C1424 0.950 . S
H1405 C1425 0.950 . S
H1406 C1427 0.950 . S
H1407 C1430 0.950 . S
H1408 C1431 0.950 . S
H1409 C1433 0.950 . S
H1410 C1434 0.950 . S
H1411 C1435 0.951 . S
H1412 C1437 0.951 . S
H1413 C1439 0.950 . S
H1414 C1440 0.950 . S
H1415 C1442 0.950 . S
H1416 C1445 0.950 . S
H1417 C1446 0.950 . S
H1418 C1448 0.950 . S
H1419 C1449 0.950 . S
C1420 H1402 0.951 . S
C1420 C1421 1.366 . S
C1420 C1422 1.388 . S
C1421 C1420 1.366 . S
C1421 C1425 1.385 . S
C1422 H1403 0.951 . S
C1422 C1420 1.388 . S
C1422 C1423 1.366 . S
C1423 C1422 1.366 . S
C1423 C1424 1.414 . S
C1423 C1426 1.499 . S
C1424 H1404 0.950 . S
C1424 C1423 1.414 . S
C1424 C1425 1.374 . S
C1425 H1405 0.950 . S
C1425 C1421 1.385 . S
C1425 C1424 1.374 . S
C1426 C1423 1.499 . S
C1426 C1427 1.373 . S
C1426 C1428 1.389 . S
C1427 H1406 0.950 . S
C1427 C1426 1.373 . S
C1427 C1443 1.377 . S
C1428 C1426 1.389 . S
C1428 C1429 1.524 . S
C1428 C1442 1.377 . S
C1429 C1428 1.524 . S
C1429 C1430 1.397 . S
C1429 C1434 1.363 . S
C1430 H1407 0.950 . S
C1430 C1429 1.397 . S
C1430 C1431 1.334 . S
C1431 H1408 0.950 . S
C1431 C1430 1.334 . S
C1431 C1432 1.287 . S
C1432 C1431 1.287 . S
C1432 C1433 1.524 . S
C1432 H1451 0.913 . S
C1433 H1409 0.950 . S
C1433 C1432 1.524 . S
C1433 C1434 1.415 . S
C1434 H1410 0.950 . S
C1434 C1429 1.363 . S
C1434 C1433 1.415 . S
C1435 H1411 0.951 . S
C1435 C1436 1.366 . S
C1435 C1437 1.388 . S
C1436 C1435 1.366 . S
C1436 C1440 1.385 . S
C1437 H1412 0.951 . S
C1437 C1435 1.388 . S
C1437 C1438 1.366 . S
C1438 C1437 1.366 . S
C1438 C1439 1.414 . S
C1438 C1441 1.499 . S
C1439 H1413 0.950 . S
C1439 C1438 1.414 . S
C1439 C1440 1.374 . S
C1440 H1414 0.950 . S
C1440 C1436 1.385 . S
C1440 C1439 1.374 . S
C1441 C1438 1.499 . S
C1441 C1442 1.373 . S
C1441 C1443 1.389 . S
C1442 H1415 0.950 . S
C1442 C1428 1.377 . S
C1442 C1441 1.373 . S
C1443 C1427 1.377 . S
C1443 C1441 1.389 . S
C1443 C1444 1.524 . S
C1444 C1443 1.524 . S
C1444 C1445 1.397 . S
C1444 C1449 1.363 . S
C1445 H1416 0.950 . S
C1445 C1444 1.397 . S
C1445 C1446 1.334 . S
C1446 H1417 0.950 . S
C1446 C1445 1.334 . S
C1446 C1447 1.287 . S
C1447 C1446 1.287 . S
C1447 C1448 1.524 . S
C1447 H1450 0.999 . S
C1448 H1418 0.950 . S
C1448 C1447 1.524 . S
C1448 C1449 1.415 . S
C1449 H1419 0.950 . S
C1449 C1444 1.363 . S
C1449 C1448 1.415 . S
H1450 C1447 0.999 . S
H1451 C1432 0.913 . S
H1452 C1470 0.951 1_565 S
H1453 C1472 0.951 1_565 S
H1454 C1474 0.950 . S
H1455 C1475 0.950 . S
H1456 C1477 0.950 . S
H1457 C1480 0.950 . S
H1458 C1481 0.950 . S
H1459 C1483 0.950 . S
H1460 C1484 0.950 . S
H1461 C1485 0.951 . S
H1462 C1487 0.951 . S
H1463 C1489 0.950 1_565 S
H1464 C1490 0.950 1_565 S
H1465 C1492 0.950 1_565 S
H1466 C1495 0.950 . S
H1467 C1496 0.950 . S
H1468 C1498 0.950 . S
H1469 C1499 0.950 . S
C1470 H1452 0.951 1_545 S
C1470 C1471 1.366 . S
C1470 C1472 1.388 . S
C1471 C1470 1.366 . S
C1471 C1475 1.385 . S
C1472 H1453 0.951 1_545 S
C1472 C1470 1.388 . S
C1472 C1473 1.366 . S
C1473 C1472 1.366 . S
C1473 C1474 1.414 . S
C1473 C1476 1.499 . S
C1474 H1454 0.950 . S
C1474 C1473 1.414 . S
C1474 C1475 1.374 . S
C1475 H1455 0.950 . S
C1475 C1471 1.385 . S
C1475 C1474 1.374 . S
C1476 C1473 1.499 . S
C1476 C1477 1.373 . S
C1476 C1478 1.389 . S
C1477 H1456 0.950 . S
C1477 C1476 1.373 . S
C1477 C1493 1.377 . S
C1478 C1476 1.389 . S
C1478 C1479 1.524 1_545 S
C1478 C1492 1.377 . S
C1479 C1478 1.524 1_565 S
C1479 C1480 1.397 . S
C1479 C1484 1.363 . S
C1480 H1457 0.950 . S
C1480 C1479 1.397 . S
C1480 C1481 1.334 . S
C1481 H1458 0.950 . S
C1481 C1480 1.334 . S
C1481 C1482 1.287 . S
C1482 C1481 1.287 . S
C1482 C1483 1.524 . S
C1482 H1501 0.913 . S
C1483 H1459 0.950 . S
C1483 C1482 1.524 . S
C1483 C1484 1.415 . S
C1484 H1460 0.950 . S
C1484 C1479 1.363 . S
C1484 C1483 1.415 . S
C1485 H1461 0.951 . S
C1485 C1486 1.366 . S
C1485 C1487 1.388 . S
C1486 C1485 1.366 . S
C1486 C1490 1.385 . S
C1487 H1462 0.951 . S
C1487 C1485 1.388 . S
C1487 C1488 1.366 . S
C1488 C1487 1.366 . S
C1488 C1489 1.414 . S
C1488 C1491 1.499 . S
C1489 H1463 0.950 1_545 S
C1489 C1488 1.414 . S
C1489 C1490 1.374 . S
C1490 H1464 0.950 1_545 S
C1490 C1486 1.385 . S
C1490 C1489 1.374 . S
C1491 C1488 1.499 . S
C1491 C1492 1.373 . S
C1491 C1493 1.389 . S
C1492 H1465 0.950 1_545 S
C1492 C1478 1.377 . S
C1492 C1491 1.373 . S
C1493 C1477 1.377 . S
C1493 C1491 1.389 . S
C1493 C1494 1.524 . S
C1494 C1493 1.524 . S
C1494 C1495 1.397 . S
C1494 C1499 1.363 . S
C1495 H1466 0.950 . S
C1495 C1494 1.397 . S
C1495 C1496 1.334 . S
C1496 H1467 0.950 . S
C1496 C1495 1.334 . S
C1496 C1497 1.287 . S
C1497 C1496 1.287 . S
C1497 C1498 1.524 . S
C1497 H1500 0.999 . S
C1498 H1468 0.950 . S
C1498 C1497 1.524 . S
C1498 C1499 1.415 . S
C1499 H1469 0.950 . S
C1499 C1494 1.363 . S
C1499 C1498 1.415 . S
H1500 C1497 0.999 . S
H1501 C1482 0.913 . S
H1502 C1520 0.951 . S
H1503 C1522 0.951 . S
H1504 C1524 0.950 . S
H1505 C1525 0.950 . S
H1506 C1527 0.950 . S
H1507 C1530 0.950 . S
H1508 C1531 0.950 . S
H1509 C1533 0.950 . S
H1510 C1534 0.950 . S
H1511 C1535 0.951 . S
H1512 C1537 0.951 . S
H1513 C1539 0.950 . S
H1514 C1540 0.950 . S
H1515 C1542 0.950 . S
H1516 C1545 0.950 . S
H1517 C1546 0.950 . S
H1518 C1548 0.950 . S
H1519 C1549 0.950 . S
C1520 H1502 0.951 . S
C1520 C1521 1.366 . S
C1520 C1522 1.388 . S
C1521 C1520 1.366 . S
C1521 C1525 1.385 . S
C1522 H1503 0.951 . S
C1522 C1520 1.388 . S
C1522 C1523 1.366 . S
C1523 C1522 1.366 . S
C1523 C1524 1.414 . S
C1523 C1526 1.499 . S
C1524 H1504 0.950 . S
C1524 C1523 1.414 . S
C1524 C1525 1.374 . S
C1525 H1505 0.950 . S
C1525 C1521 1.385 . S
C1525 C1524 1.374 . S
C1526 C1523 1.499 . S
C1526 C1527 1.373 . S
C1526 C1528 1.389 . S
C1527 H1506 0.950 . S
C1527 C1526 1.373 . S
C1527 C1543 1.377 . S
C1528 C1526 1.389 . S
C1528 C1529 1.524 . S
C1528 C1542 1.377 . S
C1529 C1528 1.524 . S
C1529 C1530 1.397 . S
C1529 C1534 1.363 . S
C1530 H1507 0.950 . S
C1530 C1529 1.397 . S
C1530 C1531 1.334 . S
C1531 H1508 0.950 . S
C1531 C1530 1.334 . S
C1531 C1532 1.287 . S
C1532 C1531 1.287 . S
C1532 C1533 1.524 . S
C1532 H1551 0.913 . S
C1533 H1509 0.950 . S
C1533 C1532 1.524 . S
C1533 C1534 1.415 . S
C1534 H1510 0.950 . S
C1534 C1529 1.363 . S
C1534 C1533 1.415 . S
C1535 H1511 0.951 . S
C1535 C1536 1.366 . S
C1535 C1537 1.388 . S
C1536 C1535 1.366 . S
C1536 C1540 1.385 . S
C1537 H1512 0.951 . S
C1537 C1535 1.388 . S
C1537 C1538 1.366 . S
C1538 C1537 1.366 . S
C1538 C1539 1.414 . S
C1538 C1541 1.499 . S
C1539 H1513 0.950 . S
C1539 C1538 1.414 . S
C1539 C1540 1.374 . S
C1540 H1514 0.950 . S
C1540 C1536 1.385 . S
C1540 C1539 1.374 . S
C1541 C1538 1.499 . S
C1541 C1542 1.373 . S
C1541 C1543 1.389 . S
C1542 H1515 0.950 . S
C1542 C1528 1.377 . S
C1542 C1541 1.373 . S
C1543 C1527 1.377 . S
C1543 C1541 1.389 . S
C1543 C1544 1.524 . S
C1544 C1543 1.524 . S
C1544 C1545 1.397 . S
C1544 C1549 1.363 . S
C1545 H1516 0.950 . S
C1545 C1544 1.397 . S
C1545 C1546 1.334 . S
C1546 H1517 0.950 . S
C1546 C1545 1.334 . S
C1546 C1547 1.287 . S
C1547 C1546 1.287 . S
C1547 C1548 1.524 . S
C1547 H1550 0.999 . S
C1548 H1518 0.950 . S
C1548 C1547 1.524 . S
C1548 C1549 1.415 . S
C1549 H1519 0.950 . S
C1549 C1544 1.363 . S
C1549 C1548 1.415 . S
H1550 C1547 0.999 . S
H1551 C1532 0.913 . S
H1552 C1570 0.951 . S
H1553 C1572 0.951 . S
H1554 C1574 0.950 . S
H1555 C1575 0.950 . S
H1556 C1577 0.950 . S
H1557 C1580 0.950 . S
H1558 C1581 0.950 . S
H1559 C1583 0.950 . S
H1560 C1584 0.950 . S
H1561 C1585 0.951 1_565 S
H1562 C1587 0.958 . S
H1563 C1589 0.950 . S
H1564 C1590 0.950 . S
H1565 C1592 0.950 . S
H1566 C1595 0.950 . S
H1567 C1596 0.950 . S
H1568 C1598 0.950 . S
H1569 C1599 0.950 . S
C1570 H1552 0.951 . S
C1570 C1571 1.366 . S
C1570 C1572 1.388 . S
C1571 C1570 1.366 . S
C1571 C1575 1.385 . S
C1572 H1553 0.951 . S
C1572 C1570 1.388 . S
C1572 C1573 1.366 . S
C1573 C1572 1.366 . S
C1573 C1574 1.414 . S
C1573 C1576 1.499 . S
C1574 H1554 0.950 . S
C1574 C1573 1.414 . S
C1574 C1575 1.374 . S
C1575 H1555 0.950 . S
C1575 C1571 1.385 . S
C1575 C1574 1.374 . S
C1576 C1573 1.499 . S
C1576 C1577 1.373 . S
C1576 C1578 1.389 . S
C1577 H1556 0.950 . S
C1577 C1576 1.373 . S
C1577 C1593 1.377 . S
C1578 C1576 1.389 . S
C1578 C1579 1.524 . S
C1578 C1592 1.377 . S
C1579 C1578 1.524 . S
C1579 C1580 1.397 1_545 S
C1579 C1584 1.363 1_655 S
C1580 H1557 0.950 . S
C1580 C1579 1.397 1_565 S
C1580 C1581 1.334 . S
C1581 H1558 0.950 . S
C1581 C1580 1.334 . S
C1581 C1582 1.287 . S
C1582 C1581 1.287 . S
C1582 C1583 1.524 1_665 S
C1582 H1601 0.913 1_655 S
C1583 H1559 0.950 . S
C1583 C1582 1.524 1_445 S
C1583 C1584 1.415 . S
C1584 H1560 0.950 . S
C1584 C1579 1.363 1_455 S
C1584 C1583 1.415 . S
C1585 H1561 0.951 1_545 S
C1585 C1586 1.378 . S
C1585 C1587 1.388 . S
C1586 C1585 1.378 . S
C1586 C1590 1.378 1_655 S
C1587 H1562 0.958 . S
C1587 C1585 1.388 . S
C1587 C1588 1.366 . S
C1588 C1587 1.366 . S
C1588 C1589 1.414 1_655 S
C1588 C1591 1.499 . S
C1589 H1563 0.950 . S
C1589 C1588 1.414 1_455 S
C1589 C1590 1.374 . S
C1590 H1564 0.950 . S
C1590 C1586 1.378 1_455 S
C1590 C1589 1.374 . S
C1591 C1588 1.499 . S
C1591 C1592 1.373 . S
C1591 C1593 1.389 . S
C1592 H1565 0.950 . S
C1592 C1578 1.377 . S
C1592 C1591 1.373 . S
C1593 C1577 1.377 . S
C1593 C1591 1.389 . S
C1593 C1594 1.524 . S
C1594 C1593 1.524 . S
C1594 C1595 1.397 . S
C1594 C1599 1.363 . S
C1595 H1566 0.950 . S
C1595 C1594 1.397 . S
C1595 C1596 1.334 . S
C1596 H1567 0.950 . S
C1596 C1595 1.334 . S
C1596 C1597 1.287 . S
C1597 C1596 1.287 . S
C1597 C1598 1.524 . S
C1597 H1600 0.999 . S
C1598 H1568 0.950 . S
C1598 C1597 1.524 . S
C1598 C1599 1.415 . S
C1599 H1569 0.950 . S
C1599 C1594 1.363 . S
C1599 C1598 1.415 . S
H1600 C1597 0.999 . S
H1601 C1582 0.913 1_455 S
H1602 C1620 0.951 . S
H1603 C1622 0.951 . S
H1604 C1624 0.950 . S
H1605 C1625 0.950 . S
H1606 C1627 0.950 . S
H1607 C1630 0.950 . S
H1608 C1631 0.950 . S
H1609 C1633 0.950 . S
H1610 C1634 0.950 . S
H1611 C1635 0.951 . S
H1612 C1637 0.951 . S
H1613 C1639 0.950 . S
H1614 C1640 0.950 . S
H1615 C1642 0.950 . S
H1616 C1645 0.950 . S
H1617 C1646 0.950 . S
H1618 C1648 0.950 . S
H1619 C1649 0.950 . S
C1620 H1602 0.951 . S
C1620 C1621 1.366 . S
C1620 C1622 1.388 . S
C1621 C1620 1.366 . S
C1621 C1625 1.385 . S
C1622 H1603 0.951 . S
C1622 C1620 1.388 . S
C1622 C1623 1.366 . S
C1623 C1622 1.366 . S
C1623 C1624 1.414 . S
C1623 C1626 1.499 . S
C1624 H1604 0.950 . S
C1624 C1623 1.414 . S
C1624 C1625 1.374 . S
C1625 H1605 0.950 . S
C1625 C1621 1.385 . S
C1625 C1624 1.374 . S
C1626 C1623 1.499 . S
C1626 C1627 1.373 . S
C1626 C1628 1.389 . S
C1627 H1606 0.950 . S
C1627 C1626 1.373 . S
C1627 C1643 1.377 . S
C1628 C1626 1.389 . S
C1628 C1629 1.524 . S
C1628 C1642 1.377 . S
C1629 C1628 1.524 . S
C1629 C1630 1.397 . S
C1629 C1634 1.363 . S
C1630 H1607 0.950 . S
C1630 C1629 1.397 . S
C1630 C1631 1.334 . S
C1631 H1608 0.950 . S
C1631 C1630 1.334 . S
C1631 C1632 1.287 . S
C1632 C1631 1.287 . S
C1632 C1633 1.524 . S
C1632 H1651 0.913 . S
C1633 H1609 0.950 . S
C1633 C1632 1.524 . S
C1633 C1634 1.415 . S
C1634 H1610 0.950 . S
C1634 C1629 1.363 . S
C1634 C1633 1.415 . S
C1635 H1611 0.951 . S
C1635 C1636 1.366 . S
C1635 C1637 1.388 . S
C1636 C1635 1.366 . S
C1636 C1640 1.385 . S
C1637 H1612 0.951 . S
C1637 C1635 1.388 . S
C1637 C1638 1.366 . S
C1638 C1637 1.366 . S
C1638 C1639 1.414 . S
C1638 C1641 1.499 . S
C1639 H1613 0.950 . S
C1639 C1638 1.414 . S
C1639 C1640 1.374 . S
C1640 H1614 0.950 . S
C1640 C1636 1.385 . S
C1640 C1639 1.374 . S
C1641 C1638 1.499 . S
C1641 C1642 1.373 . S
C1641 C1643 1.389 . S
C1642 H1615 0.950 . S
C1642 C1628 1.377 . S
C1642 C1641 1.373 . S
C1643 C1627 1.377 . S
C1643 C1641 1.389 . S
C1643 C1644 1.524 . S
C1644 C1643 1.524 . S
C1644 C1645 1.397 . S
C1644 C1649 1.363 . S
C1645 H1616 0.950 . S
C1645 C1644 1.397 . S
C1645 C1646 1.334 . S
C1646 H1617 0.950 . S
C1646 C1645 1.334 . S
C1646 C1647 1.287 . S
C1647 C1646 1.287 . S
C1647 C1648 1.524 . S
C1647 H1650 0.999 . S
C1648 H1618 0.950 . S
C1648 C1647 1.524 . S
C1648 C1649 1.415 . S
C1649 H1619 0.950 . S
C1649 C1644 1.363 . S
C1649 C1648 1.415 . S
H1650 C1647 0.999 . S
H1651 C1632 0.913 . S
H1652 C1670 0.951 . S
H1653 C1672 0.951 . S
H1654 C1674 0.950 . S
H1655 C1675 0.950 . S
H1656 C1677 0.950 . S
H1657 C1680 0.950 . S
H1658 C1681 0.950 . S
H1659 C1683 0.950 . S
H1660 C1684 0.950 . S
H1661 C1685 0.951 . S
H1662 C1687 0.951 . S
H1663 C1689 0.950 . S
H1664 C1690 0.950 . S
H1665 C1692 0.950 1_565 S
H1666 C1695 0.950 . S
H1667 C1696 0.950 . S
H1668 C1698 0.950 . S
H1669 C1699 0.950 . S
C1670 H1652 0.951 . S
C1670 C1671 1.366 . S
C1670 C1672 1.388 . S
C1671 C1670 1.366 . S
C1671 C1675 1.385 . S
C1672 H1653 0.951 . S
C1672 C1670 1.388 . S
C1672 C1673 1.366 . S
C1673 C1672 1.366 . S
C1673 C1674 1.414 . S
C1673 C1676 1.499 . S
C1674 H1654 0.950 . S
C1674 C1673 1.414 . S
C1674 C1675 1.374 . S
C1675 H1655 0.950 . S
C1675 C1671 1.385 . S
C1675 C1674 1.374 . S
C1676 C1673 1.499 . S
C1676 C1677 1.373 . S
C1676 C1678 1.389 . S
C1677 H1656 0.950 . S
C1677 C1676 1.373 . S
C1677 C1693 1.377 . S
C1678 C1676 1.389 . S
C1678 C1679 1.524 1_545 S
C1678 C1692 1.377 . S
C1679 C1678 1.524 1_565 S
C1679 C1680 1.397 . S
C1679 C1684 1.363 . S
C1680 H1657 0.950 . S
C1680 C1679 1.397 . S
C1680 C1681 1.334 . S
C1681 H1658 0.950 . S
C1681 C1680 1.334 . S
C1681 C1682 1.287 . S
C1682 C1681 1.287 . S
C1682 C1683 1.524 . S
C1682 H1701 0.913 . S
C1683 H1659 0.950 . S
C1683 C1682 1.524 . S
C1683 C1684 1.415 . S
C1684 H1660 0.950 . S
C1684 C1679 1.363 . S
C1684 C1683 1.415 . S
C1685 H1661 0.951 . S
C1685 C1686 1.366 . S
C1685 C1687 1.388 . S
C1686 C1685 1.366 . S
C1686 C1690 1.385 . S
C1687 H1662 0.951 . S
C1687 C1685 1.388 . S
C1687 C1688 1.366 . S
C1688 C1687 1.366 . S
C1688 C1689 1.414 . S
C1688 C1691 1.499 . S
C1689 H1663 0.950 . S
C1689 C1688 1.414 . S
C1689 C1690 1.374 . S
C1690 H1664 0.950 . S
C1690 C1686 1.385 . S
C1690 C1689 1.374 . S
C1691 C1688 1.499 . S
C1691 C1692 1.373 . S
C1691 C1693 1.389 . S
C1692 H1665 0.950 1_545 S
C1692 C1678 1.377 . S
C1692 C1691 1.373 . S
C1693 C1677 1.377 . S
C1693 C1691 1.389 . S
C1693 C1694 1.524 . S
C1694 C1693 1.524 . S
C1694 C1695 1.397 . S
C1694 C1699 1.363 . S
C1695 H1666 0.950 . S
C1695 C1694 1.397 . S
C1695 C1696 1.334 . S
C1696 H1667 0.950 . S
C1696 C1695 1.334 . S
C1696 C1697 1.287 . S
C1697 C1696 1.287 . S
C1697 C1698 1.524 . S
C1697 H1700 0.999 . S
C1698 H1668 0.950 . S
C1698 C1697 1.524 . S
C1698 C1699 1.415 . S
C1699 H1669 0.950 . S
C1699 C1694 1.363 . S
C1699 C1698 1.415 . S
H1700 C1697 0.999 . S
H1701 C1682 0.913 . S
H1702 C1720 0.951 . S
H1703 C1722 0.951 . S
H1704 C1724 0.950 . S
H1705 C1725 0.950 . S
H1706 C1727 0.950 . S
H1707 C1730 0.950 . S
H1708 C1731 0.950 . S
H1709 C1733 0.950 . S
H1710 C1734 0.950 . S
H1711 C1735 0.951 . S
H1712 C1737 0.951 . S
H1713 C1739 0.950 . S
H1714 C1740 0.950 . S
H1715 C1742 0.950 . S
H1716 C1745 0.950 . S
H1717 C1746 0.950 . S
H1718 C1748 0.950 . S
H1719 C1749 0.950 . S
C1720 H1702 0.951 . S
C1720 C1721 1.366 . S
C1720 C1722 1.388 . S
C1721 C1720 1.366 . S
C1721 C1725 1.385 . S
C1722 H1703 0.951 . S
C1722 C1720 1.388 . S
C1722 C1723 1.366 . S
C1723 C1722 1.366 . S
C1723 C1724 1.414 . S
C1723 C1726 1.499 . S
C1724 H1704 0.950 . S
C1724 C1723 1.414 . S
C1724 C1725 1.374 . S
C1725 H1705 0.950 . S
C1725 C1721 1.385 . S
C1725 C1724 1.374 . S
C1726 C1723 1.499 . S
C1726 C1727 1.373 . S
C1726 C1728 1.389 . S
C1727 H1706 0.950 . S
C1727 C1726 1.373 . S
C1727 C1743 1.377 . S
C1728 C1726 1.389 . S
C1728 C1729 1.524 . S
C1728 C1742 1.377 . S
C1729 C1728 1.524 . S
C1729 C1730 1.397 . S
C1729 C1734 1.363 . S
C1730 H1707 0.950 . S
C1730 C1729 1.397 . S
C1730 C1731 1.334 . S
C1731 H1708 0.950 . S
C1731 C1730 1.334 . S
C1731 C1732 1.287 . S
C1732 C1731 1.287 . S
C1732 C1733 1.524 . S
C1732 H1751 0.913 . S
C1733 H1709 0.950 . S
C1733 C1732 1.524 . S
C1733 C1734 1.415 . S
C1734 H1710 0.950 . S
C1734 C1729 1.363 . S
C1734 C1733 1.415 . S
C1735 H1711 0.951 . S
C1735 C1736 1.366 . S
C1735 C1737 1.388 . S
C1736 C1735 1.366 . S
C1736 C1740 1.385 . S
C1737 H1712 0.951 . S
C1737 C1735 1.388 . S
C1737 C1738 1.366 . S
C1738 C1737 1.366 . S
C1738 C1739 1.414 . S
C1738 C1741 1.499 . S
C1739 H1713 0.950 . S
C1739 C1738 1.414 . S
C1739 C1740 1.374 . S
C1740 H1714 0.950 . S
C1740 C1736 1.385 . S
C1740 C1739 1.374 . S
C1741 C1738 1.499 . S
C1741 C1742 1.373 . S
C1741 C1743 1.389 . S
C1742 H1715 0.950 . S
C1742 C1728 1.377 . S
C1742 C1741 1.373 . S
C1743 C1727 1.377 . S
C1743 C1741 1.389 . S
C1743 C1744 1.524 . S
C1744 C1743 1.524 . S
C1744 C1745 1.397 . S
C1744 C1749 1.363 . S
C1745 H1716 0.950 . S
C1745 C1744 1.397 . S
C1745 C1746 1.334 . S
C1746 H1717 0.950 . S
C1746 C1745 1.334 . S
C1746 C1747 1.287 . S
C1747 C1746 1.287 . S
C1747 C1748 1.524 . S
C1747 H1750 0.999 . S
C1748 H1718 0.950 . S
C1748 C1747 1.524 . S
C1748 C1749 1.415 . S
C1749 H1719 0.950 . S
C1749 C1744 1.363 . S
C1749 C1748 1.415 . S
H1750 C1747 0.999 . S
H1751 C1732 0.913 . S
H1752 C1770 0.951 . S
H1753 C1772 0.951 . S
H1754 C1774 0.950 . S
H1755 C1775 0.950 . S
H1756 C1777 0.950 1_556 S
H1757 C1780 0.950 . S
H1758 C1781 0.950 . S
H1759 C1783 0.950 . S
H1760 C1784 0.950 . S
H1761 C1785 0.951 . S
H1762 C1787 0.951 . S
H1763 C1789 0.952 . S
H1764 C1790 0.950 . S
H1765 C1792 0.950 . S
H1766 C1795 0.950 . S
H1767 C1796 0.950 . S
H1768 C1798 0.950 . S
H1769 C1799 0.950 . S
C1770 H1752 0.951 . S
C1770 C1771 1.366 . S
C1770 C1772 1.388 . S
C1771 C1770 1.366 . S
C1771 C1775 1.385 1_554 S
C1772 H1753 0.951 . S
C1772 C1770 1.388 . S
C1772 C1773 1.366 . S
C1773 C1772 1.366 . S
C1773 C1774 1.414 1_554 S
C1773 C1776 1.499 . S
C1774 H1754 0.950 . S
C1774 C1773 1.414 1_556 S
C1774 C1775 1.374 . S
C1775 H1755 0.950 . S
C1775 C1771 1.385 1_556 S
C1775 C1774 1.374 . S
C1776 C1773 1.499 . S
C1776 C1777 1.373 . S
C1776 C1778 1.389 . S
C1777 H1756 0.950 1_554 S
C1777 C1776 1.373 . S
C1777 C1793 1.377 . S
C1778 C1776 1.389 . S
C1778 C1779 1.524 . S
C1778 C1792 1.377 . S
C1779 C1778 1.524 . S
C1779 C1780 1.397 . S
C1779 C1784 1.363 . S
C1780 H1757 0.950 . S
C1780 C1779 1.397 . S
C1780 C1781 1.334 . S
C1781 H1758 0.950 . S
C1781 C1780 1.334 . S
C1781 C1782 1.287 . S
C1782 C1781 1.287 . S
C1782 C1783 1.524 . S
C1782 H1801 0.913 . S
C1783 H1759 0.950 . S
C1783 C1782 1.524 . S
C1783 C1784 1.415 . S
C1784 H1760 0.950 . S
C1784 C1779 1.363 . S
C1784 C1783 1.415 . S
C1785 H1761 0.951 . S
C1785 C1786 1.369 . S
C1785 C1787 1.388 . S
C1786 C1785 1.369 . S
C1786 C1790 1.384 1_565 S
C1787 H1762 0.951 . S
C1787 C1785 1.388 . S
C1787 C1788 1.366 . S
C1788 C1787 1.366 . S
C1788 C1789 1.391 1_565 S
C1788 C1791 1.499 . S
C1789 H1763 0.952 . S
C1789 C1788 1.391 1_545 S
C1789 C1790 1.397 . S
C1790 H1764 0.950 . S
C1790 C1786 1.384 1_545 S
C1790 C1789 1.397 . S
C1791 C1788 1.499 . S
C1791 C1792 1.373 . S
C1791 C1793 1.389 . S
C1792 H1765 0.950 . S
C1792 C1778 1.377 . S
C1792 C1791 1.373 . S
C1793 C1777 1.377 . S
C1793 C1791 1.389 . S
C1793 C1794 1.524 1_554 S
C1794 C1793 1.524 1_556 S
C1794 C1795 1.397 1_566 S
C1794 C1799 1.363 . S
C1795 H1766 0.950 . S
C1795 C1794 1.397 1_544 S
C1795 C1796 1.334 1_554 S
C1796 H1767 0.950 . S
C1796 C1795 1.334 1_556 S
C1796 C1797 1.287 . S
C1797 C1796 1.287 . S
C1797 C1798 1.524 1_545 S
C1797 H1800 0.999 . S
C1798 H1768 0.950 . S
C1798 C1797 1.524 1_565 S
C1798 C1799 1.415 . S
C1799 H1769 0.950 . S
C1799 C1794 1.363 . S
C1799 C1798 1.415 . S
H1800 C1797 0.999 . S
H1801 C1782 0.913 . S
H1802 C1820 0.951 . S
H1803 C1822 0.951 . S
H1804 C1824 0.950 . S
H1805 C1825 0.950 . S
H1806 C1827 0.950 . S
H1807 C1830 0.950 . S
H1808 C1831 0.950 . S
H1809 C1833 0.950 . S
H1810 C1834 0.950 . S
H1811 C1835 0.951 . S
H1812 C1837 0.951 . S
H1813 C1839 0.950 . S
H1814 C1840 0.950 . S
H1815 C1842 0.950 . S
H1816 C1845 0.950 . S
H1817 C1846 0.950 . S
H1818 C1848 0.950 . S
H1819 C1849 0.950 . S
C1820 H1802 0.951 . S
C1820 C1821 1.366 . S
C1820 C1822 1.388 . S
C1821 C1820 1.366 . S
C1821 C1825 1.385 . S
C1822 H1803 0.951 . S
C1822 C1820 1.388 . S
C1822 C1823 1.366 . S
C1823 C1822 1.366 . S
C1823 C1824 1.414 . S
C1823 C1826 1.499 . S
C1824 H1804 0.950 . S
C1824 C1823 1.414 . S
C1824 C1825 1.374 . S
C1825 H1805 0.950 . S
C1825 C1821 1.385 . S
C1825 C1824 1.374 . S
C1826 C1823 1.499 . S
C1826 C1827 1.373 . S
C1826 C1828 1.389 . S
C1827 H1806 0.950 . S
C1827 C1826 1.373 . S
C1827 C1843 1.377 . S
C1828 C1826 1.389 . S
C1828 C1829 1.564 . S
C1828 C1842 1.377 . S
C1829 C1828 1.564 . S
C1829 C1830 1.349 1_554 S
C1829 C1834 1.371 . S
C1830 H1807 0.950 . S
C1830 C1829 1.349 1_556 S
C1830 C1831 1.334 . S
C1831 H1808 0.950 . S
C1831 C1830 1.334 . S
C1831 C1832 1.287 . S
C1832 C1831 1.287 . S
C1832 C1833 1.524 . S
C1832 H1851 0.913 . S
C1833 H1809 0.950 . S
C1833 C1832 1.524 . S
C1833 C1834 1.415 1_556 S
C1834 H1810 0.950 . S
C1834 C1829 1.371 . S
C1834 C1833 1.415 1_554 S
C1835 H1811 0.951 . S
C1835 C1836 1.366 . S
C1835 C1837 1.388 . S
C1836 C1835 1.366 . S
C1836 C1840 1.385 . S
C1837 H1812 0.951 . S
C1837 C1835 1.388 . S
C1837 C1838 1.366 . S
C1838 C1837 1.366 . S
C1838 C1839 1.414 . S
C1838 C1841 1.499 . S
C1839 H1813 0.950 . S
C1839 C1838 1.414 . S
C1839 C1840 1.374 . S
C1840 H1814 0.950 . S
C1840 C1836 1.385 . S
C1840 C1839 1.374 . S
C1841 C1838 1.499 . S
C1841 C1842 1.373 . S
C1841 C1843 1.389 . S
C1842 H1815 0.950 . S
C1842 C1828 1.377 . S
C1842 C1841 1.373 . S
C1843 C1827 1.377 . S
C1843 C1841 1.389 . S
C1843 C1844 1.524 . S
C1844 C1843 1.524 . S
C1844 C1845 1.397 . S
C1844 C1849 1.363 . S
C1845 H1816 0.950 . S
C1845 C1844 1.397 . S
C1845 C1846 1.334 . S
C1846 H1817 0.950 . S
C1846 C1845 1.334 . S
C1846 C1847 1.287 . S
C1847 C1846 1.287 . S
C1847 C1848 1.524 . S
C1847 H1850 0.999 . S
C1848 H1818 0.950 . S
C1848 C1847 1.524 . S
C1848 C1849 1.415 . S
C1849 H1819 0.950 . S
C1849 C1844 1.363 . S
C1849 C1848 1.415 . S
H1850 C1847 0.999 . S
H1851 C1832 0.913 . S
H1852 C1870 0.951 . S
H1853 C1872 0.951 . S
H1854 C1874 0.950 . S
H1855 C1875 0.950 . S
H1856 C1877 0.950 . S
H1857 C1880 0.950 . S
H1858 C1881 0.950 . S
H1859 C1883 0.950 . S
H1860 C1884 0.950 . S
H1861 C1885 0.951 . S
H1862 C1887 0.951 . S
H1863 C1889 0.950 . S
H1864 C1890 0.950 . S
H1865 C1892 0.950 . S
H1866 C1895 0.950 . S
H1867 C1896 0.950 . S
H1868 C1898 0.950 . S
H1869 C1899 0.950 . S
C1870 H1852 0.951 . S
C1870 C1871 1.366 . S
C1870 C1872 1.388 . S
C1871 C1870 1.366 . S
C1871 C1875 1.385 . S
C1872 H1853 0.951 . S
C1872 C1870 1.388 . S
C1872 C1873 1.366 . S
C1873 C1872 1.366 . S
C1873 C1874 1.414 . S
C1873 C1876 1.499 . S
C1874 H1854 0.950 . S
C1874 C1873 1.414 . S
C1874 C1875 1.374 . S
C1875 H1855 0.950 . S
C1875 C1871 1.385 . S
C1875 C1874 1.374 . S
C1876 C1873 1.499 . S
C1876 C1877 1.373 . S
C1876 C1878 1.389 . S
C1877 H1856 0.950 . S
C1877 C1876 1.373 . S
C1877 C1893 1.377 . S
C1878 C1876 1.389 . S
C1878 C1879 1.524 . S
C1878 C1892 1.377 . S
C1879 C1878 1.524 . S
C1879 C1880 1.397 . S
C1879 C1884 1.363 . S
C1880 H1857 0.950 . S
C1880 C1879 1.397 . S
C1880 C1881 1.334 . S
C1881 H1858 0.950 . S
C1881 C1880 1.334 . S
C1881 C1882 1.287 . S
C1882 C1881 1.287 . S
C1882 C1883 1.524 . S
C1882 H1901 0.913 . S
C1883 H1859 0.950 . S
C1883 C1882 1.524 . S
C1883 C1884 1.415 . S
C1884 H1860 0.950 . S
C1884 C1879 1.363 . S
C1884 C1883 1.415 . S
C1885 H1861 0.951 . S
C1885 C1886 1.366 . S
C1885 C1887 1.388 . S
C1886 C1885 1.366 . S
C1886 C1890 1.385 . S
C1887 H1862 0.951 . S
C1887 C1885 1.388 . S
C1887 C1888 1.366 . S
C1888 C1887 1.366 . S
C1888 C1889 1.414 . S
C1888 C1891 1.499 . S
C1889 H1863 0.950 . S
C1889 C1888 1.414 . S
C1889 C1890 1.374 . S
C1890 H1864 0.950 . S
C1890 C1886 1.385 . S
C1890 C1889 1.374 . S
C1891 C1888 1.499 . S
C1891 C1892 1.373 . S
C1891 C1893 1.389 . S
C1892 H1865 0.950 . S
C1892 C1878 1.377 . S
C1892 C1891 1.373 . S
C1893 C1877 1.377 . S
C1893 C1891 1.389 . S
C1893 C1894 1.524 . S
C1894 C1893 1.524 . S
C1894 C1895 1.397 . S
C1894 C1899 1.363 . S
C1895 H1866 0.950 . S
C1895 C1894 1.397 . S
C1895 C1896 1.334 . S
C1896 H1867 0.950 . S
C1896 C1895 1.334 . S
C1896 C1897 1.287 . S
C1897 C1896 1.287 . S
C1897 C1898 1.524 . S
C1897 H1900 0.999 . S
C1898 H1868 0.950 . S
C1898 C1897 1.524 . S
C1898 C1899 1.415 . S
C1899 H1869 0.950 . S
C1899 C1894 1.363 . S
C1899 C1898 1.415 . S
H1900 C1897 0.999 . S
H1901 C1882 0.913 . S
H1902 C1920 0.951 . S
H1903 C1922 0.951 . S
H1904 C1924 0.950 . S
H1905 C1925 0.950 . S
H1906 C1927 0.950 . S
H1907 C1930 0.950 . S
H1908 C1931 0.950 . S
H1909 C1933 0.950 . S
H1910 C1934 0.950 . S
H1911 C1935 0.951 . S
H1912 C1937 0.951 . S
H1913 C1939 0.950 . S
H1914 C1940 0.950 . S
H1915 C1942 0.950 . S
H1916 C1945 0.950 . S
H1917 C1946 0.950 . S
H1918 C1948 0.950 . S
H1919 C1949 0.950 . S
C1920 H1902 0.951 . S
C1920 C1921 1.366 . S
C1920 C1922 1.388 . S
C1921 C1920 1.366 . S
C1921 C1925 1.385 . S
C1922 H1903 0.951 . S
C1922 C1920 1.388 . S
C1922 C1923 1.366 . S
C1923 C1922 1.366 . S
C1923 C1924 1.414 . S
C1923 C1926 1.499 . S
C1924 H1904 0.950 . S
C1924 C1923 1.414 . S
C1924 C1925 1.374 . S
C1925 H1905 0.950 . S
C1925 C1921 1.385 . S
C1925 C1924 1.374 . S
C1926 C1923 1.499 . S
C1926 C1927 1.373 . S
C1926 C1928 1.389 . S
C1927 H1906 0.950 . S
C1927 C1926 1.373 . S
C1927 C1943 1.377 . S
C1928 C1926 1.389 . S
C1928 C1929 1.524 . S
C1928 C1942 1.377 . S
C1929 C1928 1.524 . S
C1929 C1930 1.397 . S
C1929 C1934 1.363 . S
C1930 H1907 0.950 . S
C1930 C1929 1.397 . S
C1930 C1931 1.334 . S
C1931 H1908 0.950 . S
C1931 C1930 1.334 . S
C1931 C1932 1.287 . S
C1932 C1931 1.287 . S
C1932 C1933 1.524 . S
C1932 H1951 0.913 . S
C1933 H1909 0.950 . S
C1933 C1932 1.524 . S
C1933 C1934 1.415 . S
C1934 H1910 0.950 . S
C1934 C1929 1.363 . S
C1934 C1933 1.415 . S
C1935 H1911 0.951 . S
C1935 C1936 1.366 . S
C1935 C1937 1.388 . S
C1936 C1935 1.366 . S
C1936 C1940 1.385 . S
C1937 H1912 0.951 . S
C1937 C1935 1.388 . S
C1937 C1938 1.366 . S
C1938 C1937 1.366 . S
C1938 C1939 1.414 . S
C1938 C1941 1.499 . S
C1939 H1913 0.950 . S
C1939 C1938 1.414 . S
C1939 C1940 1.374 . S
C1940 H1914 0.950 . S
C1940 C1936 1.385 . S
C1940 C1939 1.374 . S
C1941 C1938 1.499 . S
C1941 C1942 1.373 . S
C1941 C1943 1.389 . S
C1942 H1915 0.950 . S
C1942 C1928 1.377 . S
C1942 C1941 1.373 . S
C1943 C1927 1.377 . S
C1943 C1941 1.389 . S
C1943 C1944 1.524 . S
C1944 C1943 1.524 . S
C1944 C1945 1.397 . S
C1944 C1949 1.363 . S
C1945 H1916 0.950 . S
C1945 C1944 1.397 . S
C1945 C1946 1.334 . S
C1946 H1917 0.950 . S
C1946 C1945 1.334 . S
C1946 C1947 1.287 . S
C1947 C1946 1.287 . S
C1947 C1948 1.524 . S
C1947 H1950 0.999 . S
C1948 H1918 0.950 . S
C1948 C1947 1.524 . S
C1948 C1949 1.415 . S
C1949 H1919 0.950 . S
C1949 C1944 1.363 . S
C1949 C1948 1.415 . S
H1950 C1947 0.999 . S
H1951 C1932 0.913 . S
H1952 C1970 0.951 . S
H1953 C1972 0.951 . S
H1954 C1974 0.950 . S
H1955 C1975 0.950 . S
H1956 C1977 0.950 . S
H1957 C1980 0.950 . S
H1958 C1981 0.950 . S
H1959 C1983 0.950 . S
H1960 C1984 0.950 . S
H1961 C1985 0.951 . S
H1962 C1987 0.951 . S
H1963 C1989 0.950 . S
H1964 C1990 0.950 . S
H1965 C1992 0.950 . S
H1966 C1995 0.950 . S
H1967 C1996 0.950 . S
H1968 C1998 0.950 . S
H1969 C1999 0.950 . S
C1970 H1952 0.951 . S
C1970 C1971 1.366 . S
C1970 C1972 1.388 . S
C1971 C1970 1.366 . S
C1971 C1975 1.385 . S
C1972 H1953 0.951 . S
C1972 C1970 1.388 . S
C1972 C1973 1.366 . S
C1973 C1972 1.366 . S
C1973 C1974 1.414 . S
C1973 C1976 1.499 . S
C1974 H1954 0.950 . S
C1974 C1973 1.414 . S
C1974 C1975 1.374 . S
C1975 H1955 0.950 . S
C1975 C1971 1.385 . S
C1975 C1974 1.374 . S
C1976 C1973 1.499 . S
C1976 C1977 1.373 . S
C1976 C1978 1.389 . S
C1977 H1956 0.950 . S
C1977 C1976 1.373 . S
C1977 C1993 1.377 . S
C1978 C1976 1.389 . S
C1978 C1979 1.524 . S
C1978 C1992 1.377 . S
C1979 C1978 1.524 . S
C1979 C1980 1.397 . S
C1979 C1984 1.363 . S
C1980 H1957 0.950 . S
C1980 C1979 1.397 . S
C1980 C1981 1.334 . S
C1981 H1958 0.950 . S
C1981 C1980 1.334 . S
C1981 C1982 1.287 . S
C1982 C1981 1.287 . S
C1982 C1983 1.524 . S
C1982 H2001 0.913 . S
C1983 H1959 0.950 . S
C1983 C1982 1.524 . S
C1983 C1984 1.415 . S
C1984 H1960 0.950 . S
C1984 C1979 1.363 . S
C1984 C1983 1.415 . S
C1985 H1961 0.951 . S
C1985 C1986 1.366 . S
C1985 C1987 1.388 . S
C1986 C1985 1.366 . S
C1986 C1990 1.385 . S
C1987 H1962 0.951 . S
C1987 C1985 1.388 . S
C1987 C1988 1.366 . S
C1988 C1987 1.366 . S
C1988 C1989 1.414 . S
C1988 C1991 1.499 . S
C1989 H1963 0.950 . S
C1989 C1988 1.414 . S
C1989 C1990 1.374 . S
C1990 H1964 0.950 . S
C1990 C1986 1.385 . S
C1990 C1989 1.374 . S
C1991 C1988 1.499 . S
C1991 C1992 1.373 . S
C1991 C1993 1.389 . S
C1992 H1965 0.950 . S
C1992 C1978 1.377 . S
C1992 C1991 1.373 . S
C1993 C1977 1.377 . S
C1993 C1991 1.389 . S
C1993 C1994 1.524 . S
C1994 C1993 1.524 . S
C1994 C1995 1.397 . S
C1994 C1999 1.363 . S
C1995 H1966 0.950 . S
C1995 C1994 1.397 . S
C1995 C1996 1.334 . S
C1996 H1967 0.950 . S
C1996 C1995 1.334 . S
C1996 C1997 1.287 . S
C1997 C1996 1.287 . S
C1997 C1998 1.524 . S
C1997 H2000 0.999 . S
C1998 H1968 0.950 . S
C1998 C1997 1.524 . S
C1998 C1999 1.415 . S
C1999 H1969 0.950 . S
C1999 C1994 1.363 . S
C1999 C1998 1.415 . S
H2000 C1997 0.999 . S
H2001 C1982 0.913 . S
H2002 C2020 0.951 . S
H2003 C2022 0.951 . S
H2004 C2024 0.950 . S
H2005 C2025 0.950 . S
H2006 C2027 0.950 . S
H2007 C2030 0.950 . S
H2008 C2031 0.950 . S
H2009 C2033 0.950 . S
H2010 C2034 0.950 . S
H2011 C2035 0.951 . S
H2012 C2037 0.951 . S
H2013 C2039 0.950 . S
H2014 C2040 0.950 . S
H2015 C2042 0.950 . S
H2016 C2045 0.950 . S
H2017 C2046 0.950 . S
H2018 C2048 0.950 . S
H2019 C2049 0.950 . S
C2020 H2002 0.951 . S
C2020 C2021 1.366 . S
C2020 C2022 1.388 . S
C2021 C2020 1.366 . S
C2021 C2025 1.385 . S
C2022 H2003 0.951 . S
C2022 C2020 1.388 . S
C2022 C2023 1.366 . S
C2023 C2022 1.366 . S
C2023 C2024 1.414 . S
C2023 C2026 1.499 . S
C2024 H2004 0.950 . S
C2024 C2023 1.414 . S
C2024 C2025 1.374 . S
C2025 H2005 0.950 . S
C2025 C2021 1.385 . S
C2025 C2024 1.374 . S
C2026 C2023 1.499 . S
C2026 C2027 1.373 . S
C2026 C2028 1.389 . S
C2027 H2006 0.950 . S
C2027 C2026 1.373 . S
C2027 C2043 1.377 . S
C2028 C2026 1.389 . S
C2028 C2029 1.524 . S
C2028 C2042 1.377 . S
C2029 C2028 1.524 . S
C2029 C2030 1.397 . S
C2029 C2034 1.363 . S
C2030 H2007 0.950 . S
C2030 C2029 1.397 . S
C2030 C2031 1.334 . S
C2031 H2008 0.950 . S
C2031 C2030 1.334 . S
C2031 C2032 1.287 . S
C2032 C2031 1.287 . S
C2032 C2033 1.524 . S
C2032 H2051 0.913 . S
C2033 H2009 0.950 . S
C2033 C2032 1.524 . S
C2033 C2034 1.415 . S
C2034 H2010 0.950 . S
C2034 C2029 1.363 . S
C2034 C2033 1.415 . S
C2035 H2011 0.951 . S
C2035 C2036 1.366 . S
C2035 C2037 1.388 . S
C2036 C2035 1.366 . S
C2036 C2040 1.385 . S
C2037 H2012 0.951 . S
C2037 C2035 1.388 . S
C2037 C2038 1.366 . S
C2038 C2037 1.366 . S
C2038 C2039 1.414 . S
C2038 C2041 1.499 . S
C2039 H2013 0.950 . S
C2039 C2038 1.414 . S
C2039 C2040 1.374 . S
C2040 H2014 0.950 . S
C2040 C2036 1.385 . S
C2040 C2039 1.374 . S
C2041 C2038 1.499 . S
C2041 C2042 1.373 . S
C2041 C2043 1.389 . S
C2042 H2015 0.950 . S
C2042 C2028 1.377 . S
C2042 C2041 1.373 . S
C2043 C2027 1.377 . S
C2043 C2041 1.389 . S
C2043 C2044 1.524 . S
C2044 C2043 1.524 . S
C2044 C2045 1.397 . S
C2044 C2049 1.363 . S
C2045 H2016 0.950 . S
C2045 C2044 1.397 . S
C2045 C2046 1.334 . S
C2046 H2017 0.950 . S
C2046 C2045 1.334 . S
C2046 C2047 1.287 . S
C2047 C2046 1.287 . S
C2047 C2048 1.524 . S
C2047 H2050 0.999 . S
C2048 H2018 0.950 . S
C2048 C2047 1.524 . S
C2048 C2049 1.415 . S
C2049 H2019 0.950 . S
C2049 C2044 1.363 . S
C2049 C2048 1.415 . S
H2050 C2047 0.999 . S
H2051 C2032 0.913 . S
H2052 C2070 0.951 . S
H2053 C2072 0.951 . S
H2054 C2074 0.950 . S
H2055 C2075 0.950 . S
H2056 C2077 0.950 . S
H2057 C2080 0.950 . S
H2058 C2081 0.950 . S
H2059 C2083 0.950 . S
H2060 C2084 0.950 . S
H2061 C2085 0.951 . S
H2062 C2087 0.951 . S
H2063 C2089 0.950 . S
H2064 C2090 0.950 . S
H2065 C2092 0.950 . S
H2066 C2095 0.950 . S
H2067 C2096 0.950 . S
H2068 C2098 0.950 . S
H2069 C2099 0.950 . S
C2070 H2052 0.951 . S
C2070 C2071 1.366 . S
C2070 C2072 1.388 . S
C2071 C2070 1.366 . S
C2071 C2075 1.385 . S
C2072 H2053 0.951 . S
C2072 C2070 1.388 . S
C2072 C2073 1.366 . S
C2073 C2072 1.366 . S
C2073 C2074 1.414 . S
C2073 C2076 1.499 . S
C2074 H2054 0.950 . S
C2074 C2073 1.414 . S
C2074 C2075 1.374 . S
C2075 H2055 0.950 . S
C2075 C2071 1.385 . S
C2075 C2074 1.374 . S
C2076 C2073 1.499 . S
C2076 C2077 1.373 . S
C2076 C2078 1.389 . S
C2077 H2056 0.950 . S
C2077 C2076 1.373 . S
C2077 C2093 1.377 . S
C2078 C2076 1.389 . S
C2078 C2079 1.524 . S
C2078 C2092 1.377 . S
C2079 C2078 1.524 . S
C2079 C2080 1.397 . S
C2079 C2084 1.363 . S
C2080 H2057 0.950 . S
C2080 C2079 1.397 . S
C2080 C2081 1.334 . S
C2081 H2058 0.950 . S
C2081 C2080 1.334 . S
C2081 C2082 1.287 . S
C2082 C2081 1.287 . S
C2082 C2083 1.524 . S
C2082 H2101 0.913 . S
C2083 H2059 0.950 . S
C2083 C2082 1.524 . S
C2083 C2084 1.415 . S
C2084 H2060 0.950 . S
C2084 C2079 1.363 . S
C2084 C2083 1.415 . S
C2085 H2061 0.951 . S
C2085 C2086 1.366 . S
C2085 C2087 1.388 . S
C2086 C2085 1.366 . S
C2086 C2090 1.385 . S
C2087 H2062 0.951 . S
C2087 C2085 1.388 . S
C2087 C2088 1.366 . S
C2088 C2087 1.366 . S
C2088 C2089 1.414 . S
C2088 C2091 1.499 . S
C2089 H2063 0.950 . S
C2089 C2088 1.414 . S
C2089 C2090 1.374 . S
C2090 H2064 0.950 . S
C2090 C2086 1.385 . S
C2090 C2089 1.374 . S
C2091 C2088 1.499 . S
C2091 C2092 1.373 . S
C2091 C2093 1.389 . S
C2092 H2065 0.950 . S
C2092 C2078 1.377 . S
C2092 C2091 1.373 . S
C2093 C2077 1.377 . S
C2093 C2091 1.389 . S
C2093 C2094 1.524 . S
C2094 C2093 1.524 . S
C2094 C2095 1.397 . S
C2094 C2099 1.363 . S
C2095 H2066 0.950 . S
C2095 C2094 1.397 . S
C2095 C2096 1.334 . S
C2096 H2067 0.950 . S
C2096 C2095 1.334 . S
C2096 C2097 1.287 . S
C2097 C2096 1.287 . S
C2097 C2098 1.524 . S
C2097 H2100 0.999 . S
C2098 H2068 0.950 . S
C2098 C2097 1.524 . S
C2098 C2099 1.415 . S
C2099 H2069 0.950 . S
C2099 C2094 1.363 . S
C2099 C2098 1.415 . S
H2100 C2097 0.999 . S
H2101 C2082 0.913 . S
H2102 C2120 0.951 . S
H2103 C2122 0.951 . S
H2104 C2124 0.950 . S
H2105 C2125 0.950 . S
H2106 C2127 0.950 . S
H2107 C2130 0.950 . S
H2108 C2131 0.950 . S
H2109 C2133 0.950 . S
H2110 C2134 0.950 . S
H2111 C2135 0.951 . S
H2112 C2137 0.951 . S
H2113 C2139 0.950 . S
H2114 C2140 0.950 . S
H2115 C2142 0.950 . S
H2116 C2145 0.950 . S
H2117 C2146 0.950 . S
H2118 C2148 0.950 . S
H2119 C2149 0.950 . S
C2120 H2102 0.951 . S
C2120 C2121 1.366 . S
C2120 C2122 1.388 . S
C2121 C2120 1.366 . S
C2121 C2125 1.385 . S
C2122 H2103 0.951 . S
C2122 C2120 1.388 . S
C2122 C2123 1.366 . S
C2123 C2122 1.366 . S
C2123 C2124 1.414 . S
C2123 C2126 1.499 . S
C2124 H2104 0.950 . S
C2124 C2123 1.414 . S
C2124 C2125 1.374 . S
C2125 H2105 0.950 . S
C2125 C2121 1.385 . S
C2125 C2124 1.374 . S
C2126 C2123 1.499 . S
C2126 C2127 1.373 . S
C2126 C2128 1.389 . S
C2127 H2106 0.950 . S
C2127 C2126 1.373 . S
C2127 C2143 1.377 . S
C2128 C2126 1.389 . S
C2128 C2129 1.524 . S
C2128 C2142 1.377 . S
C2129 C2128 1.524 . S
C2129 C2130 1.397 . S
C2129 C2134 1.363 . S
C2130 H2107 0.950 . S
C2130 C2129 1.397 . S
C2130 C2131 1.334 . S
C2131 H2108 0.950 . S
C2131 C2130 1.334 . S
C2131 C2132 1.287 . S
C2132 C2131 1.287 . S
C2132 C2133 1.524 . S
C2132 H2151 0.913 . S
C2133 H2109 0.950 . S
C2133 C2132 1.524 . S
C2133 C2134 1.415 . S
C2134 H2110 0.950 . S
C2134 C2129 1.363 . S
C2134 C2133 1.415 . S
C2135 H2111 0.951 . S
C2135 C2136 1.366 . S
C2135 C2137 1.388 . S
C2136 C2135 1.366 . S
C2136 C2140 1.385 . S
C2137 H2112 0.951 . S
C2137 C2135 1.388 . S
C2137 C2138 1.366 . S
C2138 C2137 1.366 . S
C2138 C2139 1.414 . S
C2138 C2141 1.499 . S
C2139 H2113 0.950 . S
C2139 C2138 1.414 . S
C2139 C2140 1.374 . S
C2140 H2114 0.950 . S
C2140 C2136 1.385 . S
C2140 C2139 1.374 . S
C2141 C2138 1.499 . S
C2141 C2142 1.373 . S
C2141 C2143 1.389 . S
C2142 H2115 0.950 . S
C2142 C2128 1.377 . S
C2142 C2141 1.373 . S
C2143 C2127 1.377 . S
C2143 C2141 1.389 . S
C2143 C2144 1.524 . S
C2144 C2143 1.524 . S
C2144 C2145 1.397 . S
C2144 C2149 1.363 . S
C2145 H2116 0.950 . S
C2145 C2144 1.397 . S
C2145 C2146 1.334 . S
C2146 H2117 0.950 . S
C2146 C2145 1.334 . S
C2146 C2147 1.287 . S
C2147 C2146 1.287 . S
C2147 C2148 1.524 . S
C2147 H2150 0.999 . S
C2148 H2118 0.950 . S
C2148 C2147 1.524 . S
C2148 C2149 1.415 . S
C2149 H2119 0.950 . S
C2149 C2144 1.363 . S
C2149 C2148 1.415 . S
H2150 C2147 0.999 . S
H2151 C2132 0.913 . S
H2152 C2170 0.951 . S
H2153 C2172 0.951 . S
H2154 C2174 0.950 . S
H2155 C2175 0.950 . S
H2156 C2177 0.950 . S
H2157 C2180 0.950 . S
H2158 C2181 0.950 . S
H2159 C2183 0.950 . S
H2160 C2184 0.950 . S
H2161 C2185 0.951 . S
H2162 C2187 0.951 . S
H2163 C2189 0.950 . S
H2164 C2190 0.950 . S
H2165 C2192 0.950 . S
H2166 C2195 0.950 . S
H2167 C2196 0.950 . S
H2168 C2198 0.950 1_655 S
H2169 C2199 0.950 . S
C2170 H2152 0.951 . S
C2170 C2171 1.366 . S
C2170 C2172 1.388 . S
C2171 C2170 1.366 . S
C2171 C2175 1.385 . S
C2172 H2153 0.951 . S
C2172 C2170 1.388 . S
C2172 C2173 1.366 . S
C2173 C2172 1.366 . S
C2173 C2174 1.414 . S
C2173 C2176 1.499 . S
C2174 H2154 0.950 . S
C2174 C2173 1.414 . S
C2174 C2175 1.374 . S
C2175 H2155 0.950 . S
C2175 C2171 1.385 . S
C2175 C2174 1.374 . S
C2176 C2173 1.499 . S
C2176 C2177 1.373 . S
C2176 C2178 1.389 . S
C2177 H2156 0.950 . S
C2177 C2176 1.373 . S
C2177 C2193 1.377 . S
C2178 C2176 1.389 . S
C2178 C2179 1.524 . S
C2178 C2192 1.377 . S
C2179 C2178 1.524 . S
C2179 C2180 1.397 . S
C2179 C2184 1.363 . S
C2180 H2157 0.950 . S
C2180 C2179 1.397 . S
C2180 C2181 1.334 . S
C2181 H2158 0.950 . S
C2181 C2180 1.334 . S
C2181 C2182 1.287 . S
C2182 C2181 1.287 . S
C2182 C2183 1.524 . S
C2182 H2201 0.913 . S
C2183 H2159 0.950 . S
C2183 C2182 1.524 . S
C2183 C2184 1.415 . S
C2184 H2160 0.950 . S
C2184 C2179 1.363 . S
C2184 C2183 1.415 . S
C2185 H2161 0.951 . S
C2185 C2186 1.366 . S
C2185 C2187 1.388 . S
C2186 C2185 1.366 . S
C2186 C2190 1.385 . S
C2187 H2162 0.951 . S
C2187 C2185 1.388 . S
C2187 C2188 1.366 . S
C2188 C2187 1.366 . S
C2188 C2189 1.414 . S
C2188 C2191 1.499 . S
C2189 H2163 0.950 . S
C2189 C2188 1.414 . S
C2189 C2190 1.374 . S
C2190 H2164 0.950 . S
C2190 C2186 1.385 . S
C2190 C2189 1.374 . S
C2191 C2188 1.499 . S
C2191 C2192 1.373 . S
C2191 C2193 1.389 . S
C2192 H2165 0.950 . S
C2192 C2178 1.377 . S
C2192 C2191 1.373 . S
C2193 C2177 1.377 . S
C2193 C2191 1.389 . S
C2193 C2194 1.524 . S
C2194 C2193 1.524 . S
C2194 C2195 1.397 . S
C2194 C2199 1.363 . S
C2195 H2166 0.950 . S
C2195 C2194 1.397 . S
C2195 C2196 1.334 1_554 S
C2196 H2167 0.950 . S
C2196 C2195 1.334 1_556 S
C2196 C2197 1.287 . S
C2197 C2196 1.287 . S
C2197 C2198 1.524 1_556 S
C2197 H2200 0.999 . S
C2198 H2168 0.950 1_455 S
C2198 C2197 1.524 1_554 S
C2198 C2199 1.415 . S
C2199 H2169 0.950 . S
C2199 C2194 1.363 . S
C2199 C2198 1.415 . S
H2200 C2197 0.999 . S
H2201 C2182 0.913 . S
H2202 C2220 0.951 . S
H2203 C2222 0.951 . S
H2204 C2224 0.950 . S
H2205 C2225 0.950 . S
H2206 C2227 0.950 . S
H2207 C2230 0.950 . S
H2208 C2231 0.950 . S
H2209 C2233 0.950 . S
H2210 C2234 0.950 . S
H2211 C2235 0.951 . S
H2212 C2237 0.951 . S
H2213 C2239 0.950 . S
H2214 C2240 0.950 . S
H2215 C2242 0.950 . S
H2216 C2245 0.950 . S
H2217 C2246 0.950 . S
H2218 C2248 0.950 . S
H2219 C2249 0.950 . S
C2220 H2202 0.951 . S
C2220 C2221 1.366 . S
C2220 C2222 1.388 . S
C2221 C2220 1.366 . S
C2221 C2225 1.385 . S
C2222 H2203 0.951 . S
C2222 C2220 1.388 . S
C2222 C2223 1.366 . S
C2223 C2222 1.366 . S
C2223 C2224 1.414 . S
C2223 C2226 1.499 . S
C2224 H2204 0.950 . S
C2224 C2223 1.414 . S
C2224 C2225 1.374 . S
C2225 H2205 0.950 . S
C2225 C2221 1.385 . S
C2225 C2224 1.374 . S
C2226 C2223 1.499 . S
C2226 C2227 1.373 . S
C2226 C2228 1.389 . S
C2227 H2206 0.950 . S
C2227 C2226 1.373 . S
C2227 C2243 1.377 . S
C2228 C2226 1.389 . S
C2228 C2229 1.524 . S
C2228 C2242 1.377 . S
C2229 C2228 1.524 . S
C2229 C2230 1.397 . S
C2229 C2234 1.363 . S
C2230 H2207 0.950 . S
C2230 C2229 1.397 . S
C2230 C2231 1.334 . S
C2231 H2208 0.950 . S
C2231 C2230 1.334 . S
C2231 C2232 1.287 . S
C2232 C2231 1.287 . S
C2232 C2233 1.524 . S
C2232 H2251 0.913 . S
C2233 H2209 0.950 . S
C2233 C2232 1.524 . S
C2233 C2234 1.415 . S
C2234 H2210 0.950 . S
C2234 C2229 1.363 . S
C2234 C2233 1.415 . S
C2235 H2211 0.951 . S
C2235 C2236 1.366 . S
C2235 C2237 1.388 . S
C2236 C2235 1.366 . S
C2236 C2240 1.385 . S
C2237 H2212 0.951 . S
C2237 C2235 1.388 . S
C2237 C2238 1.366 . S
C2238 C2237 1.366 . S
C2238 C2239 1.414 . S
C2238 C2241 1.499 . S
C2239 H2213 0.950 . S
C2239 C2238 1.414 . S
C2239 C2240 1.374 . S
C2240 H2214 0.950 . S
C2240 C2236 1.385 . S
C2240 C2239 1.374 . S
C2241 C2238 1.499 . S
C2241 C2242 1.373 . S
C2241 C2243 1.389 . S
C2242 H2215 0.950 . S
C2242 C2228 1.377 . S
C2242 C2241 1.373 . S
C2243 C2227 1.377 . S
C2243 C2241 1.389 . S
C2243 C2244 1.524 . S
C2244 C2243 1.524 . S
C2244 C2245 1.397 . S
C2244 C2249 1.363 . S
C2245 H2216 0.950 . S
C2245 C2244 1.397 . S
C2245 C2246 1.334 . S
C2246 H2217 0.950 . S
C2246 C2245 1.334 . S
C2246 C2247 1.287 . S
C2247 C2246 1.287 . S
C2247 C2248 1.524 . S
C2247 H2250 0.999 . S
C2248 H2218 0.950 . S
C2248 C2247 1.524 . S
C2248 C2249 1.415 . S
C2249 H2219 0.950 . S
C2249 C2244 1.363 . S
C2249 C2248 1.415 . S
H2250 C2247 0.999 . S
H2251 C2232 0.913 . S
H2252 C2270 0.951 . S
H2253 C2272 0.951 . S
H2254 C2274 0.950 . S
H2255 C2275 0.950 . S
H2256 C2277 0.950 . S
H2257 C2280 0.950 . S
H2258 C2281 0.950 . S
H2259 C2283 0.950 . S
H2260 C2284 0.950 . S
H2261 C2285 0.951 . S
H2262 C2287 0.951 . S
H2263 C2289 0.950 . S
H2264 C2290 0.950 . S
H2265 C2292 0.950 . S
H2266 C2295 0.950 . S
H2267 C2296 0.950 . S
H2268 C2298 0.950 . S
H2269 C2299 0.950 . S
C2270 H2252 0.951 . S
C2270 C2271 1.366 . S
C2270 C2272 1.388 . S
C2271 C2270 1.366 . S
C2271 C2275 1.385 . S
C2272 H2253 0.951 . S
C2272 C2270 1.388 . S
C2272 C2273 1.366 . S
C2273 C2272 1.366 . S
C2273 C2274 1.414 . S
C2273 C2276 1.499 . S
C2274 H2254 0.950 . S
C2274 C2273 1.414 . S
C2274 C2275 1.374 . S
C2275 H2255 0.950 . S
C2275 C2271 1.385 . S
C2275 C2274 1.374 . S
C2276 C2273 1.499 . S
C2276 C2277 1.373 . S
C2276 C2278 1.389 . S
C2277 H2256 0.950 . S
C2277 C2276 1.373 . S
C2277 C2293 1.377 . S
C2278 C2276 1.389 . S
C2278 C2279 1.524 . S
C2278 C2292 1.377 . S
C2279 C2278 1.524 . S
C2279 C2280 1.397 . S
C2279 C2284 1.363 . S
C2280 H2257 0.950 . S
C2280 C2279 1.397 . S
C2280 C2281 1.334 . S
C2281 H2258 0.950 . S
C2281 C2280 1.334 . S
C2281 C2282 1.287 . S
C2282 C2281 1.287 . S
C2282 C2283 1.524 . S
C2282 H2301 0.913 . S
C2283 H2259 0.950 . S
C2283 C2282 1.524 . S
C2283 C2284 1.415 . S
C2284 H2260 0.950 . S
C2284 C2279 1.363 . S
C2284 C2283 1.415 . S
C2285 H2261 0.951 . S
C2285 C2286 1.366 . S
C2285 C2287 1.388 . S
C2286 C2285 1.366 . S
C2286 C2290 1.385 . S
C2287 H2262 0.951 . S
C2287 C2285 1.388 . S
C2287 C2288 1.366 . S
C2288 C2287 1.366 . S
C2288 C2289 1.414 . S
C2288 C2291 1.499 . S
C2289 H2263 0.950 . S
C2289 C2288 1.414 . S
C2289 C2290 1.374 . S
C2290 H2264 0.950 . S
C2290 C2286 1.385 . S
C2290 C2289 1.374 . S
C2291 C2288 1.499 . S
C2291 C2292 1.373 . S
C2291 C2293 1.389 . S
C2292 H2265 0.950 . S
C2292 C2278 1.377 . S
C2292 C2291 1.373 . S
C2293 C2277 1.377 . S
C2293 C2291 1.389 . S
C2293 C2294 1.524 . S
C2294 C2293 1.524 . S
C2294 C2295 1.397 . S
C2294 C2299 1.363 . S
C2295 H2266 0.950 . S
C2295 C2294 1.397 . S
C2295 C2296 1.334 . S
C2296 H2267 0.950 . S
C2296 C2295 1.334 . S
C2296 C2297 1.287 . S
C2297 C2296 1.287 . S
C2297 C2298 1.524 . S
C2297 H2300 0.999 . S
C2298 H2268 0.950 . S
C2298 C2297 1.524 . S
C2298 C2299 1.415 . S
C2299 H2269 0.950 . S
C2299 C2294 1.363 . S
C2299 C2298 1.415 . S
H2300 C2297 0.999 . S
H2301 C2282 0.913 . S
H2302 C2320 0.951 . S
H2303 C2322 0.951 . S
H2304 C2324 0.950 . S
H2305 C2325 0.950 . S
H2306 C2327 0.950 . S
H2307 C2330 0.950 . S
H2308 C2331 0.950 . S
H2309 C2333 0.950 . S
H2310 C2334 0.950 . S
H2311 C2335 0.951 . S
H2312 C2337 0.951 . S
H2313 C2339 0.950 . S
H2314 C2340 0.950 . S
H2315 C2342 0.950 . S
H2316 C2345 0.950 . S
H2317 C2346 0.950 . S
H2318 C2348 0.950 . S
H2319 C2349 0.950 . S
C2320 H2302 0.951 . S
C2320 C2321 1.366 . S
C2320 C2322 1.388 . S
C2321 C2320 1.366 . S
C2321 C2325 1.385 . S
C2322 H2303 0.951 . S
C2322 C2320 1.388 . S
C2322 C2323 1.366 . S
C2323 C2322 1.366 . S
C2323 C2324 1.414 . S
C2323 C2326 1.499 . S
C2324 H2304 0.950 . S
C2324 C2323 1.414 . S
C2324 C2325 1.374 . S
C2325 H2305 0.950 . S
C2325 C2321 1.385 . S
C2325 C2324 1.374 . S
C2326 C2323 1.499 . S
C2326 C2327 1.373 . S
C2326 C2328 1.389 . S
C2327 H2306 0.950 . S
C2327 C2326 1.373 . S
C2327 C2343 1.377 . S
C2328 C2326 1.389 . S
C2328 C2329 1.524 . S
C2328 C2342 1.377 . S
C2329 C2328 1.524 . S
C2329 C2330 1.397 . S
C2329 C2334 1.363 . S
C2330 H2307 0.950 . S
C2330 C2329 1.397 . S
C2330 C2331 1.334 . S
C2331 H2308 0.950 . S
C2331 C2330 1.334 . S
C2331 C2332 1.287 . S
C2332 C2331 1.287 . S
C2332 C2333 1.524 . S
C2332 H2351 0.913 . S
C2333 H2309 0.950 . S
C2333 C2332 1.524 . S
C2333 C2334 1.415 . S
C2334 H2310 0.950 . S
C2334 C2329 1.363 . S
C2334 C2333 1.415 . S
C2335 H2311 0.951 . S
C2335 C2336 1.366 . S
C2335 C2337 1.388 . S
C2336 C2335 1.366 . S
C2336 C2340 1.385 . S
C2337 H2312 0.951 . S
C2337 C2335 1.388 . S
C2337 C2338 1.366 . S
C2338 C2337 1.366 . S
C2338 C2339 1.414 . S
C2338 C2341 1.499 . S
C2339 H2313 0.950 . S
C2339 C2338 1.414 . S
C2339 C2340 1.374 . S
C2340 H2314 0.950 . S
C2340 C2336 1.385 . S
C2340 C2339 1.374 . S
C2341 C2338 1.499 . S
C2341 C2342 1.373 . S
C2341 C2343 1.389 . S
C2342 H2315 0.950 . S
C2342 C2328 1.377 . S
C2342 C2341 1.373 . S
C2343 C2327 1.377 . S
C2343 C2341 1.389 . S
C2343 C2344 1.524 . S
C2344 C2343 1.524 . S
C2344 C2345 1.397 . S
C2344 C2349 1.363 . S
C2345 H2316 0.950 . S
C2345 C2344 1.397 . S
C2345 C2346 1.334 . S
C2346 H2317 0.950 . S
C2346 C2345 1.334 . S
C2346 C2347 1.287 . S
C2347 C2346 1.287 . S
C2347 C2348 1.524 . S
C2347 H2350 0.999 . S
C2348 H2318 0.950 . S
C2348 C2347 1.524 . S
C2348 C2349 1.415 . S
C2349 H2319 0.950 . S
C2349 C2344 1.363 . S
C2349 C2348 1.415 . S
H2350 C2347 0.999 . S
H2351 C2332 0.913 . S
H2352 C2370 0.951 . S
H2353 C2372 0.951 . S
H2354 C2374 0.950 . S
H2355 C2375 0.950 . S
H2356 C2377 0.950 . S
H2357 C2380 0.950 . S
H2358 C2381 0.950 . S
H2359 C2383 1.005 . S
H2360 C2384 0.934 1_655 S
H2361 C2385 0.951 . S
H2362 C2387 0.951 . S
H2363 C2389 0.903 1_655 S
H2364 C2390 0.912 1_655 S
H2365 C2392 0.950 . S
H2366 C2395 0.897 1_655 S
H2367 C2396 0.950 1_655 S
H2368 C2398 0.950 . S
H2369 C2399 0.950 . S
C2370 H2352 0.951 . S
C2370 C2371 1.366 . S
C2370 C2372 1.388 . S
C2371 C2370 1.366 . S
C2371 C2375 1.385 . S
C2372 H2353 0.951 . S
C2372 C2370 1.388 . S
C2372 C2373 1.366 . S
C2373 C2372 1.366 . S
C2373 C2374 1.414 . S
C2373 C2376 1.499 . S
C2374 H2354 0.950 . S
C2374 C2373 1.414 . S
C2374 C2375 1.374 . S
C2375 H2355 0.950 . S
C2375 C2371 1.385 . S
C2375 C2374 1.374 . S
C2376 C2373 1.499 . S
C2376 C2377 1.373 . S
C2376 C2378 1.389 . S
C2377 H2356 0.950 . S
C2377 C2376 1.373 . S
C2377 C2393 1.377 . S
C2378 C2376 1.389 . S
C2378 C2379 1.524 . S
C2378 C2392 1.377 . S
C2379 C2378 1.524 . S
C2379 C2380 1.397 . S
C2379 C2384 1.363 . S
C2380 H2357 0.950 . S
C2380 C2379 1.397 . S
C2380 C2381 1.334 . S
C2381 H2358 0.950 . S
C2381 C2380 1.334 . S
C2381 C2382 1.287 . S
C2382 C2381 1.287 . S
C2382 C2383 1.524 . S
C2382 H2401 0.913 . S
C2383 H2359 1.005 . S
C2383 C2382 1.524 . S
C2383 C2384 1.415 . S
C2384 H2360 0.934 1_455 S
C2384 C2379 1.363 . S
C2384 C2383 1.415 . S
C2385 H2361 0.951 . S
C2385 C2386 1.366 . S
C2385 C2387 1.388 . S
C2386 C2385 1.366 . S
C2386 C2390 1.385 . S
C2387 H2362 0.951 . S
C2387 C2385 1.388 . S
C2387 C2388 1.366 . S
C2388 C2387 1.366 . S
C2388 C2389 1.414 . S
C2388 C2391 1.499 . S
C2389 H2363 0.903 1_455 S
C2389 C2388 1.414 . S
C2389 C2390 1.374 . S
C2390 H2364 0.912 1_455 S
C2390 C2386 1.385 . S
C2390 C2389 1.374 . S
C2391 C2388 1.499 . S
C2391 C2392 1.373 . S
C2391 C2393 1.389 . S
C2392 H2365 0.950 . S
C2392 C2378 1.377 . S
C2392 C2391 1.373 . S
C2393 C2377 1.377 . S
C2393 C2391 1.389 . S
C2393 C2394 1.524 . S
C2394 C2393 1.524 . S
C2394 C2395 1.397 . S
C2394 C2399 1.363 . S
C2395 H2366 0.897 1_455 S
C2395 C2394 1.397 . S
C2395 C2396 1.334 . S
C2396 H2367 0.950 1_455 S
C2396 C2395 1.334 . S
C2396 C2397 1.287 . S
C2397 C2396 1.287 . S
C2397 C2398 1.524 . S
C2397 H2400 0.999 . S
C2398 H2368 0.950 . S
C2398 C2397 1.524 . S
C2398 C2399 1.415 . S
C2399 H2369 0.950 . S
C2399 C2394 1.363 . S
C2399 C2398 1.415 . S
H2400 C2397 0.999 . S
H2401 C2382 0.913 . S
H2402 C2420 0.951 . S
H2403 C2422 0.951 . S
H2404 C2424 0.950 . S
H2405 C2425 0.950 . S
H2406 C2427 0.950 . S
H2407 C2430 0.950 . S
H2408 C2431 0.950 . S
H2409 C2433 0.950 . S
H2410 C2434 0.950 . S
H2411 C2435 0.951 . S
H2412 C2437 0.951 . S
H2413 C2439 0.950 . S
H2414 C2440 0.950 . S
H2415 C2442 0.950 . S
H2416 C2445 0.950 . S
H2417 C2446 0.950 . S
H2418 C2448 0.950 . S
H2419 C2449 0.950 . S
C2420 H2402 0.951 . S
C2420 C2421 1.366 . S
C2420 C2422 1.388 . S
C2421 C2420 1.366 . S
C2421 C2425 1.385 . S
C2422 H2403 0.951 . S
C2422 C2420 1.388 . S
C2422 C2423 1.366 . S
C2423 C2422 1.366 . S
C2423 C2424 1.414 . S
C2423 C2426 1.499 . S
C2424 H2404 0.950 . S
C2424 C2423 1.414 . S
C2424 C2425 1.374 . S
C2425 H2405 0.950 . S
C2425 C2421 1.385 . S
C2425 C2424 1.374 . S
C2426 C2423 1.499 . S
C2426 C2427 1.373 . S
C2426 C2428 1.389 . S
C2427 H2406 0.950 . S
C2427 C2426 1.373 . S
C2427 C2443 1.377 . S
C2428 C2426 1.389 . S
C2428 C2429 1.524 . S
C2428 C2442 1.377 . S
C2429 C2428 1.524 . S
C2429 C2430 1.397 . S
C2429 C2434 1.363 . S
C2430 H2407 0.950 . S
C2430 C2429 1.397 . S
C2430 C2431 1.334 . S
C2431 H2408 0.950 . S
C2431 C2430 1.334 . S
C2431 C2432 1.287 . S
C2432 C2431 1.287 . S
C2432 C2433 1.524 . S
C2432 H2451 0.913 . S
C2433 H2409 0.950 . S
C2433 C2432 1.524 . S
C2433 C2434 1.415 . S
C2434 H2410 0.950 . S
C2434 C2429 1.363 . S
C2434 C2433 1.415 . S
C2435 H2411 0.951 . S
C2435 C2436 1.366 . S
C2435 C2437 1.388 . S
C2436 C2435 1.366 . S
C2436 C2440 1.385 . S
C2437 H2412 0.951 . S
C2437 C2435 1.388 . S
C2437 C2438 1.366 . S
C2438 C2437 1.366 . S
C2438 C2439 1.414 . S
C2438 C2441 1.499 . S
C2439 H2413 0.950 . S
C2439 C2438 1.414 . S
C2439 C2440 1.374 . S
C2440 H2414 0.950 . S
C2440 C2436 1.385 . S
C2440 C2439 1.374 . S
C2441 C2438 1.499 . S
C2441 C2442 1.373 . S
C2441 C2443 1.389 . S
C2442 H2415 0.950 . S
C2442 C2428 1.377 . S
C2442 C2441 1.373 . S
C2443 C2427 1.377 . S
C2443 C2441 1.389 . S
C2443 C2444 1.524 . S
C2444 C2443 1.524 . S
C2444 C2445 1.397 . S
C2444 C2449 1.363 . S
C2445 H2416 0.950 . S
C2445 C2444 1.397 . S
C2445 C2446 1.334 . S
C2446 H2417 0.950 . S
C2446 C2445 1.334 . S
C2446 C2447 1.287 . S
C2447 C2446 1.287 . S
C2447 C2448 1.524 . S
C2447 H2450 0.999 . S
C2448 H2418 0.950 . S
C2448 C2447 1.524 . S
C2448 C2449 1.415 . S
C2449 H2419 0.950 . S
C2449 C2444 1.363 . S
C2449 C2448 1.415 . S
H2450 C2447 0.999 . S
H2451 C2432 0.913 . S
H2452 C2470 0.951 . S
H2453 C2472 0.951 . S
H2454 C2474 0.950 . S
H2455 C2475 0.950 . S
H2456 C2477 0.950 . S
H2457 C2480 0.950 . S
H2458 C2481 0.950 . S
H2459 C2483 0.950 . S
H2460 C2484 0.950 . S
H2461 C2485 0.951 1_554 S
H2462 C2487 0.951 . S
H2463 C2489 0.950 . S
H2464 C2490 0.950 . S
H2465 C2492 0.950 . S
H2466 C2495 0.950 . S
H2467 C2496 0.950 . S
H2468 C2498 0.950 . S
H2469 C2499 0.950 . S
C2470 H2452 0.951 . S
C2470 C2471 1.366 . S
C2470 C2472 1.388 . S
C2471 C2470 1.366 . S
C2471 C2475 1.385 . S
C2472 H2453 0.951 . S
C2472 C2470 1.388 . S
C2472 C2473 1.366 . S
C2473 C2472 1.366 . S
C2473 C2474 1.414 . S
C2473 C2476 1.499 . S
C2474 H2454 0.950 . S
C2474 C2473 1.414 . S
C2474 C2475 1.374 . S
C2475 H2455 0.950 . S
C2475 C2471 1.385 . S
C2475 C2474 1.374 . S
C2476 C2473 1.499 . S
C2476 C2477 1.373 . S
C2476 C2478 1.389 . S
C2477 H2456 0.950 . S
C2477 C2476 1.373 . S
C2477 C2493 1.377 . S
C2478 C2476 1.389 . S
C2478 C2479 1.524 . S
C2478 C2492 1.377 . S
C2479 C2478 1.524 . S
C2479 C2480 1.397 . S
C2479 C2484 1.363 . S
C2480 H2457 0.950 . S
C2480 C2479 1.397 . S
C2480 C2481 1.334 . S
C2481 H2458 0.950 . S
C2481 C2480 1.334 . S
C2481 C2482 1.287 . S
C2482 C2481 1.287 . S
C2482 C2483 1.524 . S
C2482 H2501 0.913 . S
C2483 H2459 0.950 . S
C2483 C2482 1.524 . S
C2483 C2484 1.415 . S
C2484 H2460 0.950 . S
C2484 C2479 1.363 . S
C2484 C2483 1.415 . S
C2485 H2461 0.951 1_556 S
C2485 C2486 1.366 . S
C2485 C2487 1.388 . S
C2486 C2485 1.366 . S
C2486 C2490 1.385 . S
C2487 H2462 0.951 . S
C2487 C2485 1.388 . S
C2487 C2488 1.366 . S
C2488 C2487 1.366 . S
C2488 C2489 1.414 . S
C2488 C2491 1.499 . S
C2489 H2463 0.950 . S
C2489 C2488 1.414 . S
C2489 C2490 1.374 . S
C2490 H2464 0.950 . S
C2490 C2486 1.385 . S
C2490 C2489 1.374 . S
C2491 C2488 1.499 . S
C2491 C2492 1.373 . S
C2491 C2493 1.389 . S
C2492 H2465 0.950 . S
C2492 C2478 1.377 . S
C2492 C2491 1.373 . S
C2493 C2477 1.377 . S
C2493 C2491 1.389 . S
C2493 C2494 1.524 . S
C2494 C2493 1.524 . S
C2494 C2495 1.397 . S
C2494 C2499 1.363 . S
C2495 H2466 0.950 . S
C2495 C2494 1.397 . S
C2495 C2496 1.334 . S
C2496 H2467 0.950 . S
C2496 C2495 1.334 . S
C2496 C2497 1.287 . S
C2497 C2496 1.287 . S
C2497 C2498 1.524 . S
C2497 H2500 0.999 . S
C2498 H2468 0.950 . S
C2498 C2497 1.524 . S
C2498 C2499 1.415 . S
C2499 H2469 0.950 . S
C2499 C2494 1.363 . S
C2499 C2498 1.415 . S
H2500 C2497 0.999 . S
H2501 C2482 0.913 . S
H2502 C2520 0.951 . S
H2503 C2522 0.951 . S
H2504 C2524 0.950 . S
H2505 C2525 0.950 . S
H2506 C2527 0.950 . S
H2507 C2530 0.950 . S
H2508 C2531 0.950 . S
H2509 C2533 0.950 . S
H2510 C2534 0.950 . S
H2511 C2535 0.951 . S
H2512 C2537 0.951 . S
H2513 C2539 0.950 . S
H2514 C2540 0.950 . S
H2515 C2542 0.950 . S
H2516 C2545 0.950 . S
H2517 C2546 0.950 . S
H2518 C2548 0.950 . S
H2519 C2549 0.950 . S
C2520 H2502 0.951 . S
C2520 C2521 1.366 . S
C2520 C2522 1.388 . S
C2521 C2520 1.366 . S
C2521 C2525 1.385 . S
C2522 H2503 0.951 . S
C2522 C2520 1.388 . S
C2522 C2523 1.366 . S
C2523 C2522 1.366 . S
C2523 C2524 1.414 . S
C2523 C2526 1.499 . S
C2524 H2504 0.950 . S
C2524 C2523 1.414 . S
C2524 C2525 1.374 . S
C2525 H2505 0.950 . S
C2525 C2521 1.385 . S
C2525 C2524 1.374 . S
C2526 C2523 1.499 . S
C2526 C2527 1.373 . S
C2526 C2528 1.389 . S
C2527 H2506 0.950 . S
C2527 C2526 1.373 . S
C2527 C2543 1.377 . S
C2528 C2526 1.389 . S
C2528 C2529 1.524 . S
C2528 C2542 1.377 . S
C2529 C2528 1.524 . S
C2529 C2530 1.397 . S
C2529 C2534 1.363 . S
C2530 H2507 0.950 . S
C2530 C2529 1.397 . S
C2530 C2531 1.334 . S
C2531 H2508 0.950 . S
C2531 C2530 1.334 . S
C2531 C2532 1.287 . S
C2532 C2531 1.287 . S
C2532 C2533 1.524 . S
C2532 H2551 0.913 . S
C2533 H2509 0.950 . S
C2533 C2532 1.524 . S
C2533 C2534 1.415 . S
C2534 H2510 0.950 . S
C2534 C2529 1.363 . S
C2534 C2533 1.415 . S
C2535 H2511 0.951 . S
C2535 C2536 1.366 . S
C2535 C2537 1.388 . S
C2536 C2535 1.366 . S
C2536 C2540 1.385 . S
C2537 H2512 0.951 . S
C2537 C2535 1.388 . S
C2537 C2538 1.366 . S
C2538 C2537 1.366 . S
C2538 C2539 1.414 . S
C2538 C2541 1.499 . S
C2539 H2513 0.950 . S
C2539 C2538 1.414 . S
C2539 C2540 1.374 . S
C2540 H2514 0.950 . S
C2540 C2536 1.385 . S
C2540 C2539 1.374 . S
C2541 C2538 1.499 . S
C2541 C2542 1.373 . S
C2541 C2543 1.389 . S
C2542 H2515 0.950 . S
C2542 C2528 1.377 . S
C2542 C2541 1.373 . S
C2543 C2527 1.377 . S
C2543 C2541 1.389 . S
C2543 C2544 1.524 . S
C2544 C2543 1.524 . S
C2544 C2545 1.397 . S
C2544 C2549 1.363 . S
C2545 H2516 0.950 . S
C2545 C2544 1.397 . S
C2545 C2546 1.334 . S
C2546 H2517 0.950 . S
C2546 C2545 1.334 . S
C2546 C2547 1.287 . S
C2547 C2546 1.287 . S
C2547 C2548 1.524 . S
C2547 H2550 0.999 . S
C2548 H2518 0.950 . S
C2548 C2547 1.524 . S
C2548 C2549 1.415 . S
C2549 H2519 0.950 . S
C2549 C2544 1.363 . S
C2549 C2548 1.415 . S
H2550 C2547 0.999 . S
H2551 C2532 0.913 . S
H2552 C2570 0.951 . S
H2553 C2572 0.951 . S
H2554 C2574 0.950 . S
H2555 C2575 0.950 . S
H2556 C2577 0.950 . S
H2557 C2580 0.950 . S
H2558 C2581 0.950 . S
H2559 C2583 0.950 . S
H2560 C2584 0.950 . S
H2561 C2585 0.951 . S
H2562 C2587 0.933 1_565 S
H2563 C2589 0.950 . S
H2564 C2590 0.950 . S
H2565 C2592 0.950 . S
H2566 C2595 0.950 . S
H2567 C2596 0.950 . S
H2568 C2598 0.950 . S
H2569 C2599 0.950 . S
C2570 H2552 0.951 . S
C2570 C2571 1.366 . S
C2570 C2572 1.388 . S
C2571 C2570 1.366 . S
C2571 C2575 1.385 . S
C2572 H2553 0.951 . S
C2572 C2570 1.388 . S
C2572 C2573 1.366 . S
C2573 C2572 1.366 . S
C2573 C2574 1.414 . S
C2573 C2576 1.499 . S
C2574 H2554 0.950 . S
C2574 C2573 1.414 . S
C2574 C2575 1.374 . S
C2575 H2555 0.950 . S
C2575 C2571 1.385 . S
C2575 C2574 1.374 . S
C2576 C2573 1.499 . S
C2576 C2577 1.373 . S
C2576 C2578 1.389 . S
C2577 H2556 0.950 . S
C2577 C2576 1.373 . S
C2577 C2593 1.377 . S
C2578 C2576 1.389 . S
C2578 C2579 1.524 . S
C2578 C2592 1.377 . S
C2579 C2578 1.524 . S
C2579 C2580 1.397 . S
C2579 C2584 1.363 . S
C2580 H2557 0.950 . S
C2580 C2579 1.397 . S
C2580 C2581 1.334 . S
C2581 H2558 0.950 . S
C2581 C2580 1.334 . S
C2581 C2582 1.287 . S
C2582 C2581 1.287 . S
C2582 C2583 1.524 . S
C2582 H2601 0.913 . S
C2583 H2559 0.950 . S
C2583 C2582 1.524 . S
C2583 C2584 1.415 . S
C2584 H2560 0.950 . S
C2584 C2579 1.363 . S
C2584 C2583 1.415 . S
C2585 H2561 0.951 . S
C2585 C2586 1.366 1_565 S
C2585 C2587 1.387 1_565 S
C2586 C2585 1.366 1_545 S
C2586 C2590 1.385 . S
C2587 H2562 0.933 1_545 S
C2587 C2585 1.387 1_545 S
C2587 C2588 1.385 . S
C2588 C2587 1.385 . S
C2588 C2589 1.414 . S
C2588 C2591 1.499 . S
C2589 H2563 0.950 . S
C2589 C2588 1.414 . S
C2589 C2590 1.374 . S
C2590 H2564 0.950 . S
C2590 C2586 1.385 . S
C2590 C2589 1.374 . S
C2591 C2588 1.499 . S
C2591 C2592 1.373 . S
C2591 C2593 1.389 . S
C2592 H2565 0.950 . S
C2592 C2578 1.377 . S
C2592 C2591 1.373 . S
C2593 C2577 1.377 . S
C2593 C2591 1.389 . S
C2593 C2594 1.524 . S
C2594 C2593 1.524 . S
C2594 C2595 1.397 . S
C2594 C2599 1.363 1_545 S
C2595 H2566 0.950 . S
C2595 C2594 1.397 . S
C2595 C2596 1.334 . S
C2596 H2567 0.950 . S
C2596 C2595 1.334 . S
C2596 C2597 1.287 . S
C2597 C2596 1.287 . S
C2597 C2598 1.524 1_545 S
C2597 H2600 1.036 . S
C2598 H2568 0.950 . S
C2598 C2597 1.524 1_565 S
C2598 C2599 1.415 . S
C2599 H2569 0.950 . S
C2599 C2594 1.363 1_565 S
C2599 C2598 1.415 . S
H2600 C2597 1.036 . S
H2601 C2582 0.913 . S
H2602 C2620 0.951 . S
H2603 C2622 0.951 . S
H2604 C2624 0.950 . S
H2605 C2625 0.950 . S
H2606 C2627 0.950 . S
H2607 C2630 0.950 . S
H2608 C2631 0.950 . S
H2609 C2633 0.950 . S
H2610 C2634 0.950 . S
H2611 C2635 0.951 . S
H2612 C2637 0.951 . S
H2613 C2639 0.950 . S
H2614 C2640 0.950 . S
H2615 C2642 0.950 . S
H2616 C2645 0.950 . S
H2617 C2646 0.950 . S
H2618 C2648 0.950 . S
H2619 C2649 0.950 . S
C2620 H2602 0.951 . S
C2620 C2621 1.366 . S
C2620 C2622 1.388 . S
C2621 C2620 1.366 . S
C2621 C2625 1.385 . S
C2622 H2603 0.951 . S
C2622 C2620 1.388 . S
C2622 C2623 1.366 . S
C2623 C2622 1.366 . S
C2623 C2624 1.414 . S
C2623 C2626 1.499 . S
C2624 H2604 0.950 . S
C2624 C2623 1.414 . S
C2624 C2625 1.374 . S
C2625 H2605 0.950 . S
C2625 C2621 1.385 . S
C2625 C2624 1.374 . S
C2626 C2623 1.499 . S
C2626 C2627 1.373 . S
C2626 C2628 1.389 . S
C2627 H2606 0.950 . S
C2627 C2626 1.373 . S
C2627 C2643 1.377 . S
C2628 C2626 1.389 . S
C2628 C2629 1.524 . S
C2628 C2642 1.377 . S
C2629 C2628 1.524 . S
C2629 C2630 1.397 . S
C2629 C2634 1.363 . S
C2630 H2607 0.950 . S
C2630 C2629 1.397 . S
C2630 C2631 1.334 . S
C2631 H2608 0.950 . S
C2631 C2630 1.334 . S
C2631 C2632 1.287 . S
C2632 C2631 1.287 . S
C2632 C2633 1.524 . S
C2632 H2651 0.913 . S
C2633 H2609 0.950 . S
C2633 C2632 1.524 . S
C2633 C2634 1.415 . S
C2634 H2610 0.950 . S
C2634 C2629 1.363 . S
C2634 C2633 1.415 . S
C2635 H2611 0.951 . S
C2635 C2636 1.366 . S
C2635 C2637 1.388 . S
C2636 C2635 1.366 . S
C2636 C2640 1.385 . S
C2637 H2612 0.951 . S
C2637 C2635 1.388 . S
C2637 C2638 1.366 . S
C2638 C2637 1.366 . S
C2638 C2639 1.414 . S
C2638 C2641 1.499 . S
C2639 H2613 0.950 . S
C2639 C2638 1.414 . S
C2639 C2640 1.374 . S
C2640 H2614 0.950 . S
C2640 C2636 1.385 . S
C2640 C2639 1.374 . S
C2641 C2638 1.499 . S
C2641 C2642 1.373 . S
C2641 C2643 1.389 . S
C2642 H2615 0.950 . S
C2642 C2628 1.377 . S
C2642 C2641 1.373 . S
C2643 C2627 1.377 . S
C2643 C2641 1.389 . S
C2643 C2644 1.524 . S
C2644 C2643 1.524 . S
C2644 C2645 1.397 . S
C2644 C2649 1.363 . S
C2645 H2616 0.950 . S
C2645 C2644 1.397 . S
C2645 C2646 1.334 . S
C2646 H2617 0.950 . S
C2646 C2645 1.334 . S
C2646 C2647 1.287 . S
C2647 C2646 1.287 . S
C2647 C2648 1.524 . S
C2647 H2650 0.999 . S
C2648 H2618 0.950 . S
C2648 C2647 1.524 . S
C2648 C2649 1.415 . S
C2649 H2619 0.950 . S
C2649 C2644 1.363 . S
C2649 C2648 1.415 . S
H2650 C2647 0.999 . S
H2651 C2632 0.913 . S
H2652 C2670 0.951 . S
H2653 C2672 0.951 . S
H2654 C2674 0.950 . S
H2655 C2675 0.950 . S
H2656 C2677 0.950 . S
H2657 C2680 0.950 . S
H2658 C2681 0.950 . S
H2659 C2683 0.950 . S
H2660 C2684 0.950 . S
H2661 C2685 0.951 . S
H2662 C2687 0.951 . S
H2663 C2689 0.950 . S
H2664 C2690 0.950 . S
H2665 C2692 0.950 . S
H2666 C2695 0.950 . S
H2667 C2696 0.950 . S
H2668 C2698 0.950 . S
H2669 C2699 0.950 . S
C2670 H2652 0.951 . S
C2670 C2671 1.366 . S
C2670 C2672 1.388 . S
C2671 C2670 1.366 . S
C2671 C2675 1.385 . S
C2672 H2653 0.951 . S
C2672 C2670 1.388 . S
C2672 C2673 1.366 . S
C2673 C2672 1.366 . S
C2673 C2674 1.414 . S
C2673 C2676 1.499 . S
C2674 H2654 0.950 . S
C2674 C2673 1.414 . S
C2674 C2675 1.374 . S
C2675 H2655 0.950 . S
C2675 C2671 1.385 . S
C2675 C2674 1.374 . S
C2676 C2673 1.499 . S
C2676 C2677 1.373 . S
C2676 C2678 1.389 . S
C2677 H2656 0.950 . S
C2677 C2676 1.373 . S
C2677 C2693 1.377 . S
C2678 C2676 1.389 . S
C2678 C2679 1.524 . S
C2678 C2692 1.377 . S
C2679 C2678 1.524 . S
C2679 C2680 1.397 1_545 S
C2679 C2684 1.363 . S
C2680 H2657 0.950 . S
C2680 C2679 1.397 1_565 S
C2680 C2681 1.334 . S
C2681 H2658 0.950 . S
C2681 C2680 1.334 . S
C2681 C2682 1.287 . S
C2682 C2681 1.287 . S
C2682 C2683 1.524 . S
C2682 H2701 0.913 . S
C2683 H2659 0.950 . S
C2683 C2682 1.524 . S
C2683 C2684 1.415 1_565 S
C2684 H2660 0.950 . S
C2684 C2679 1.363 . S
C2684 C2683 1.415 1_545 S
C2685 H2661 0.951 . S
C2685 C2686 1.366 . S
C2685 C2687 1.388 . S
C2686 C2685 1.366 . S
C2686 C2690 1.385 . S
C2687 H2662 0.951 . S
C2687 C2685 1.388 . S
C2687 C2688 1.366 . S
C2688 C2687 1.366 . S
C2688 C2689 1.414 . S
C2688 C2691 1.499 . S
C2689 H2663 0.950 . S
C2689 C2688 1.414 . S
C2689 C2690 1.374 . S
C2690 H2664 0.950 . S
C2690 C2686 1.385 . S
C2690 C2689 1.374 . S
C2691 C2688 1.499 . S
C2691 C2692 1.373 . S
C2691 C2693 1.389 . S
C2692 H2665 0.950 . S
C2692 C2678 1.377 . S
C2692 C2691 1.373 . S
C2693 C2677 1.377 . S
C2693 C2691 1.389 . S
C2693 C2694 1.524 . S
C2694 C2693 1.524 . S
C2694 C2695 1.397 . S
C2694 C2699 1.363 . S
C2695 H2666 0.950 . S
C2695 C2694 1.397 . S
C2695 C2696 1.334 . S
C2696 H2667 0.950 . S
C2696 C2695 1.334 . S
C2696 C2697 1.287 . S
C2697 C2696 1.287 . S
C2697 C2698 1.524 . S
C2697 H2700 0.999 . S
C2698 H2668 0.950 . S
C2698 C2697 1.524 . S
C2698 C2699 1.415 . S
C2699 H2669 0.950 . S
C2699 C2694 1.363 . S
C2699 C2698 1.415 . S
H2700 C2697 0.999 . S
H2701 C2682 0.913 . S
H2702 C2720 0.951 . S
H2703 C2722 0.951 . S
H2704 C2724 0.950 . S
H2705 C2725 0.950 . S
H2706 C2727 0.950 . S
H2707 C2730 0.950 . S
H2708 C2731 0.950 . S
H2709 C2733 0.950 . S
H2710 C2734 0.950 . S
H2711 C2735 0.951 . S
H2712 C2737 0.951 . S
H2713 C2739 0.950 . S
H2714 C2740 0.950 . S
H2715 C2742 0.950 . S
H2716 C2745 0.950 . S
H2717 C2746 0.950 . S
H2718 C2748 0.950 . S
H2719 C2749 0.950 . S
C2720 H2702 0.951 . S
C2720 C2721 1.366 . S
C2720 C2722 1.388 . S
C2721 C2720 1.366 . S
C2721 C2725 1.385 . S
C2722 H2703 0.951 . S
C2722 C2720 1.388 . S
C2722 C2723 1.366 . S
C2723 C2722 1.366 . S
C2723 C2724 1.414 . S
C2723 C2726 1.499 . S
C2724 H2704 0.950 . S
C2724 C2723 1.414 . S
C2724 C2725 1.374 . S
C2725 H2705 0.950 . S
C2725 C2721 1.385 . S
C2725 C2724 1.374 . S
C2726 C2723 1.499 . S
C2726 C2727 1.373 . S
C2726 C2728 1.389 . S
C2727 H2706 0.950 . S
C2727 C2726 1.373 . S
C2727 C2743 1.377 . S
C2728 C2726 1.389 . S
C2728 C2729 1.524 . S
C2728 C2742 1.377 . S
C2729 C2728 1.524 . S
C2729 C2730 1.397 . S
C2729 C2734 1.363 . S
C2730 H2707 0.950 . S
C2730 C2729 1.397 . S
C2730 C2731 1.334 . S
C2731 H2708 0.950 . S
C2731 C2730 1.334 . S
C2731 C2732 1.287 . S
C2732 C2731 1.287 . S
C2732 C2733 1.524 . S
C2732 H2751 0.913 . S
C2733 H2709 0.950 . S
C2733 C2732 1.524 . S
C2733 C2734 1.415 . S
C2734 H2710 0.950 . S
C2734 C2729 1.363 . S
C2734 C2733 1.415 . S
C2735 H2711 0.951 . S
C2735 C2736 1.366 . S
C2735 C2737 1.388 . S
C2736 C2735 1.366 . S
C2736 C2740 1.385 . S
C2737 H2712 0.951 . S
C2737 C2735 1.388 . S
C2737 C2738 1.366 . S
C2738 C2737 1.366 . S
C2738 C2739 1.414 . S
C2738 C2741 1.499 . S
C2739 H2713 0.950 . S
C2739 C2738 1.414 . S
C2739 C2740 1.374 . S
C2740 H2714 0.950 . S
C2740 C2736 1.385 . S
C2740 C2739 1.374 . S
C2741 C2738 1.499 . S
C2741 C2742 1.373 . S
C2741 C2743 1.389 . S
C2742 H2715 0.950 . S
C2742 C2728 1.377 . S
C2742 C2741 1.373 . S
C2743 C2727 1.377 . S
C2743 C2741 1.389 . S
C2743 C2744 1.524 . S
C2744 C2743 1.524 . S
C2744 C2745 1.397 . S
C2744 C2749 1.363 . S
C2745 H2716 0.950 . S
C2745 C2744 1.397 . S
C2745 C2746 1.334 . S
C2746 H2717 0.950 . S
C2746 C2745 1.334 . S
C2746 C2747 1.287 . S
C2747 C2746 1.287 . S
C2747 C2748 1.524 . S
C2747 H2750 0.999 . S
C2748 H2718 0.950 . S
C2748 C2747 1.524 . S
C2748 C2749 1.415 . S
C2749 H2719 0.950 . S
C2749 C2744 1.363 . S
C2749 C2748 1.415 . S
H2750 C2747 0.999 . S
H2751 C2732 0.913 . S
H2752 C2770 0.951 . S
H2753 C2772 0.951 . S
H2754 C2774 0.950 . S
H2755 C2775 0.950 . S
H2756 C2777 0.950 . S
H2757 C2780 0.950 . S
H2758 C2781 0.950 . S
H2759 C2783 0.950 . S
H2760 C2784 0.950 . S
H2761 C2785 0.951 . S
H2762 C2787 0.951 . S
H2763 C2789 0.950 . S
H2764 C2790 0.950 . S
H2765 C2792 0.950 . S
H2766 C2795 0.950 . S
H2767 C2796 0.950 . S
H2768 C2798 0.950 . S
H2769 C2799 0.951 . S
C2770 H2752 0.951 . S
C2770 C2771 1.366 . S
C2770 C2772 1.388 . S
C2771 C2770 1.366 . S
C2771 C2775 1.385 . S
C2772 H2753 0.951 . S
C2772 C2770 1.388 . S
C2772 C2773 1.366 . S
C2773 C2772 1.366 . S
C2773 C2774 1.414 . S
C2773 C2776 1.499 . S
C2774 H2754 0.950 . S
C2774 C2773 1.414 . S
C2774 C2775 1.374 . S
C2775 H2755 0.950 . S
C2775 C2771 1.385 . S
C2775 C2774 1.374 . S
C2776 C2773 1.499 . S
C2776 C2777 1.373 . S
C2776 C2778 1.389 . S
C2777 H2756 0.950 . S
C2777 C2776 1.373 . S
C2777 C2793 1.377 . S
C2778 C2776 1.389 . S
C2778 C2779 1.524 . S
C2778 C2792 1.377 . S
C2779 C2778 1.524 . S
C2779 C2780 1.397 . S
C2779 C2784 1.363 . S
C2780 H2757 0.950 . S
C2780 C2779 1.397 . S
C2780 C2781 1.334 . S
C2781 H2758 0.950 . S
C2781 C2780 1.334 . S
C2781 C2782 1.287 . S
C2782 C2781 1.287 . S
C2782 C2783 1.524 . S
C2782 H2801 0.913 . S
C2783 H2759 0.950 . S
C2783 C2782 1.524 . S
C2783 C2784 1.415 . S
C2784 H2760 0.950 . S
C2784 C2779 1.363 . S
C2784 C2783 1.415 . S
C2785 H2761 0.951 . S
C2785 C2786 1.366 . S
C2785 C2787 1.388 . S
C2786 C2785 1.366 . S
C2786 C2790 1.385 . S
C2787 H2762 0.951 . S
C2787 C2785 1.388 . S
C2787 C2788 1.366 . S
C2788 C2787 1.366 . S
C2788 C2789 1.414 . S
C2788 C2791 1.499 . S
C2789 H2763 0.950 . S
C2789 C2788 1.414 . S
C2789 C2790 1.374 . S
C2790 H2764 0.950 . S
C2790 C2786 1.385 . S
C2790 C2789 1.374 . S
C2791 C2788 1.499 . S
C2791 C2792 1.373 . S
C2791 C2793 1.389 . S
C2792 H2765 0.950 . S
C2792 C2778 1.377 . S
C2792 C2791 1.373 . S
C2793 C2777 1.377 . S
C2793 C2791 1.389 . S
C2793 C2794 1.524 . S
C2794 C2793 1.524 . S
C2794 C2795 1.397 1_545 S
C2794 C2799 1.363 1_545 S
C2795 H2766 0.950 . S
C2795 C2794 1.397 1_565 S
C2795 C2796 1.334 . S
C2796 H2767 0.950 . S
C2796 C2795 1.334 . S
C2796 C2797 1.287 . S
C2797 C2796 1.287 . S
C2797 C2798 1.524 . S
C2797 H2800 0.999 . S
C2798 H2768 0.950 . S
C2798 C2797 1.524 . S
C2798 C2799 1.415 . S
C2799 H2769 0.951 . S
C2799 C2794 1.363 1_565 S
C2799 C2798 1.415 . S
H2800 C2797 0.999 . S
H2801 C2782 0.913 . S
H2802 C2820 0.951 . S
H2803 C2822 0.951 . S
H2804 C2824 0.950 . S
H2805 C2825 0.950 . S
H2806 C2827 0.950 . S
H2807 C2830 0.950 . S
H2808 C2831 0.950 . S
H2809 C2833 0.950 . S
H2810 C2834 0.950 . S
H2811 C2835 0.951 . S
H2812 C2837 0.951 . S
H2813 C2839 0.950 . S
H2814 C2840 0.950 . S
H2815 C2842 0.950 . S
H2816 C2845 0.950 . S
H2817 C2846 0.950 . S
H2818 C2848 0.950 . S
H2819 C2849 0.950 . S
C2820 H2802 0.951 . S
C2820 C2821 1.366 . S
C2820 C2822 1.388 . S
C2821 C2820 1.366 . S
C2821 C2825 1.385 . S
C2822 H2803 0.951 . S
C2822 C2820 1.388 . S
C2822 C2823 1.366 . S
C2823 C2822 1.366 . S
C2823 C2824 1.414 . S
C2823 C2826 1.499 . S
C2824 H2804 0.950 . S
C2824 C2823 1.414 . S
C2824 C2825 1.374 . S
C2825 H2805 0.950 . S
C2825 C2821 1.385 . S
C2825 C2824 1.374 . S
C2826 C2823 1.499 . S
C2826 C2827 1.373 . S
C2826 C2828 1.389 . S
C2827 H2806 0.950 . S
C2827 C2826 1.373 . S
C2827 C2843 1.377 . S
C2828 C2826 1.389 . S
C2828 C2829 1.524 . S
C2828 C2842 1.377 . S
C2829 C2828 1.524 . S
C2829 C2830 1.397 . S
C2829 C2834 1.363 . S
C2830 H2807 0.950 . S
C2830 C2829 1.397 . S
C2830 C2831 1.334 . S
C2831 H2808 0.950 . S
C2831 C2830 1.334 . S
C2831 C2832 1.287 . S
C2832 C2831 1.287 . S
C2832 C2833 1.524 . S
C2832 H2851 0.913 . S
C2833 H2809 0.950 . S
C2833 C2832 1.524 . S
C2833 C2834 1.415 . S
C2834 H2810 0.950 . S
C2834 C2829 1.363 . S
C2834 C2833 1.415 . S
C2835 H2811 0.951 . S
C2835 C2836 1.366 . S
C2835 C2837 1.388 . S
C2836 C2835 1.366 . S
C2836 C2840 1.385 . S
C2837 H2812 0.951 . S
C2837 C2835 1.388 . S
C2837 C2838 1.366 . S
C2838 C2837 1.366 . S
C2838 C2839 1.414 . S
C2838 C2841 1.499 . S
C2839 H2813 0.950 . S
C2839 C2838 1.414 . S
C2839 C2840 1.374 . S
C2840 H2814 0.950 . S
C2840 C2836 1.385 . S
C2840 C2839 1.374 . S
C2841 C2838 1.499 . S
C2841 C2842 1.373 . S
C2841 C2843 1.389 . S
C2842 H2815 0.950 . S
C2842 C2828 1.377 . S
C2842 C2841 1.373 . S
C2843 C2827 1.377 . S
C2843 C2841 1.389 . S
C2843 C2844 1.524 . S
C2844 C2843 1.524 . S
C2844 C2845 1.397 . S
C2844 C2849 1.363 . S
C2845 H2816 0.950 . S
C2845 C2844 1.397 . S
C2845 C2846 1.334 . S
C2846 H2817 0.950 . S
C2846 C2845 1.334 . S
C2846 C2847 1.287 . S
C2847 C2846 1.287 . S
C2847 C2848 1.524 . S
C2847 H2850 0.999 . S
C2848 H2818 0.950 . S
C2848 C2847 1.524 . S
C2848 C2849 1.415 . S
C2849 H2819 0.950 . S
C2849 C2844 1.363 . S
C2849 C2848 1.415 . S
H2850 C2847 0.999 . S
H2851 C2832 0.913 . S
H2852 C2870 0.951 . S
H2853 C2872 0.951 . S
H2854 C2874 0.950 . S
H2855 C2875 0.950 . S
H2856 C2877 0.950 . S
H2857 C2880 0.950 . S
H2858 C2881 0.950 . S
H2859 C2883 0.950 . S
H2860 C2884 0.950 . S
H2861 C2885 0.951 . S
H2862 C2887 0.951 . S
H2863 C2889 0.950 . S
H2864 C2890 0.950 . S
H2865 C2892 0.950 . S
H2866 C2895 0.950 . S
H2867 C2896 0.950 . S
H2868 C2898 0.950 . S
H2869 C2899 0.950 . S
C2870 H2852 0.951 . S
C2870 C2871 1.366 . S
C2870 C2872 1.388 . S
C2871 C2870 1.366 . S
C2871 C2875 1.385 . S
C2872 H2853 0.951 . S
C2872 C2870 1.388 . S
C2872 C2873 1.366 . S
C2873 C2872 1.366 . S
C2873 C2874 1.414 . S
C2873 C2876 1.499 . S
C2874 H2854 0.950 . S
C2874 C2873 1.414 . S
C2874 C2875 1.374 . S
C2875 H2855 0.950 . S
C2875 C2871 1.385 . S
C2875 C2874 1.374 . S
C2876 C2873 1.499 . S
C2876 C2877 1.373 . S
C2876 C2878 1.389 . S
C2877 H2856 0.950 . S
C2877 C2876 1.373 . S
C2877 C2893 1.377 . S
C2878 C2876 1.389 . S
C2878 C2879 1.524 . S
C2878 C2892 1.377 . S
C2879 C2878 1.524 . S
C2879 C2880 1.397 1_545 S
C2879 C2884 1.363 . S
C2880 H2857 0.950 . S
C2880 C2879 1.397 1_565 S
C2880 C2881 1.334 . S
C2881 H2858 0.950 . S
C2881 C2880 1.334 . S
C2881 C2882 1.321 . S
C2882 C2881 1.321 . S
C2882 C2883 1.485 1_565 S
C2882 H2901 0.916 . S
C2883 H2859 0.950 . S
C2883 C2882 1.485 1_545 S
C2883 C2884 1.415 . S
C2884 H2860 0.950 . S
C2884 C2879 1.363 . S
C2884 C2883 1.415 . S
C2885 H2861 0.951 . S
C2885 C2886 1.366 . S
C2885 C2887 1.388 . S
C2886 C2885 1.366 . S
C2886 C2890 1.385 . S
C2887 H2862 0.951 . S
C2887 C2885 1.388 . S
C2887 C2888 1.366 . S
C2888 C2887 1.366 . S
C2888 C2889 1.414 . S
C2888 C2891 1.499 . S
C2889 H2863 0.950 . S
C2889 C2888 1.414 . S
C2889 C2890 1.374 . S
C2890 H2864 0.950 . S
C2890 C2886 1.385 . S
C2890 C2889 1.374 . S
C2891 C2888 1.499 . S
C2891 C2892 1.373 . S
C2891 C2893 1.389 . S
C2892 H2865 0.950 . S
C2892 C2878 1.377 . S
C2892 C2891 1.373 . S
C2893 C2877 1.377 . S
C2893 C2891 1.389 . S
C2893 C2894 1.524 . S
C2894 C2893 1.524 . S
C2894 C2895 1.397 . S
C2894 C2899 1.363 . S
C2895 H2866 0.950 . S
C2895 C2894 1.397 . S
C2895 C2896 1.334 . S
C2896 H2867 0.950 . S
C2896 C2895 1.334 . S
C2896 C2897 1.287 . S
C2897 C2896 1.287 . S
C2897 C2898 1.524 . S
C2897 H2900 0.999 . S
C2898 H2868 0.950 . S
C2898 C2897 1.524 . S
C2898 C2899 1.415 . S
C2899 H2869 0.950 . S
C2899 C2894 1.363 . S
C2899 C2898 1.415 . S
H2900 C2897 0.999 . S
H2901 C2882 0.916 . S
H2902 C2920 0.951 . S
H2903 C2922 0.951 . S
H2904 C2924 0.950 . S
H2905 C2925 0.950 . S
H2906 C2927 0.950 . S
H2907 C2930 0.950 . S
H2908 C2931 0.950 . S
H2909 C2933 0.950 . S
H2910 C2934 0.950 . S
H2911 C2935 0.951 . S
H2912 C2937 0.951 . S
H2913 C2939 0.950 . S
H2914 C2940 0.950 . S
H2915 C2942 0.950 . S
H2916 C2945 0.950 . S
H2917 C2946 0.950 . S
H2918 C2948 0.950 . S
H2919 C2949 0.950 . S
C2920 H2902 0.951 . S
C2920 C2921 1.366 . S
C2920 C2922 1.388 . S
C2921 C2920 1.366 . S
C2921 C2925 1.385 . S
C2922 H2903 0.951 . S
C2922 C2920 1.388 . S
C2922 C2923 1.366 . S
C2923 C2922 1.366 . S
C2923 C2924 1.414 . S
C2923 C2926 1.499 . S
C2924 H2904 0.950 . S
C2924 C2923 1.414 . S
C2924 C2925 1.374 . S
C2925 H2905 0.950 . S
C2925 C2921 1.385 . S
C2925 C2924 1.374 . S
C2926 C2923 1.499 . S
C2926 C2927 1.373 . S
C2926 C2928 1.389 . S
C2927 H2906 0.950 . S
C2927 C2926 1.373 . S
C2927 C2943 1.377 . S
C2928 C2926 1.389 . S
C2928 C2929 1.524 . S
C2928 C2942 1.377 . S
C2929 C2928 1.524 . S
C2929 C2930 1.397 . S
C2929 C2934 1.363 . S
C2930 H2907 0.950 . S
C2930 C2929 1.397 . S
C2930 C2931 1.334 . S
C2931 H2908 0.950 . S
C2931 C2930 1.334 . S
C2931 C2932 1.287 . S
C2932 C2931 1.287 . S
C2932 C2933 1.524 . S
C2932 H2951 0.913 . S
C2933 H2909 0.950 . S
C2933 C2932 1.524 . S
C2933 C2934 1.415 . S
C2934 H2910 0.950 . S
C2934 C2929 1.363 . S
C2934 C2933 1.415 . S
C2935 H2911 0.951 . S
C2935 C2936 1.366 . S
C2935 C2937 1.388 . S
C2936 C2935 1.366 . S
C2936 C2940 1.385 . S
C2937 H2912 0.951 . S
C2937 C2935 1.388 . S
C2937 C2938 1.366 . S
C2938 C2937 1.366 . S
C2938 C2939 1.414 . S
C2938 C2941 1.499 . S
C2939 H2913 0.950 . S
C2939 C2938 1.414 . S
C2939 C2940 1.374 . S
C2940 H2914 0.950 . S
C2940 C2936 1.385 . S
C2940 C2939 1.374 . S
C2941 C2938 1.499 . S
C2941 C2942 1.373 . S
C2941 C2943 1.389 . S
C2942 H2915 0.950 . S
C2942 C2928 1.377 . S
C2942 C2941 1.373 . S
C2943 C2927 1.377 . S
C2943 C2941 1.389 . S
C2943 C2944 1.524 . S
C2944 C2943 1.524 . S
C2944 C2945 1.397 . S
C2944 C2949 1.363 . S
C2945 H2916 0.950 . S
C2945 C2944 1.397 . S
C2945 C2946 1.334 . S
C2946 H2917 0.950 . S
C2946 C2945 1.334 . S
C2946 C2947 1.287 . S
C2947 C2946 1.287 . S
C2947 C2948 1.524 . S
C2947 H2950 0.999 . S
C2948 H2918 0.950 . S
C2948 C2947 1.524 . S
C2948 C2949 1.415 . S
C2949 H2919 0.950 . S
C2949 C2944 1.363 . S
C2949 C2948 1.415 . S
H2950 C2947 0.999 . S
H2951 C2932 0.913 . S
H2952 C2970 0.951 . S
H2953 C2972 0.951 . S
H2954 C2974 0.950 . S
H2955 C2975 0.950 . S
H2956 C2977 0.950 . S
H2957 C2980 0.950 . S
H2958 C2981 0.950 . S
H2959 C2983 0.950 . S
H2960 C2984 0.950 . S
H2961 C2985 0.951 . S
H2962 C2987 0.951 . S
H2963 C2989 0.951 . S
H2964 C2990 0.950 . S
H2965 C2992 0.950 1_556 S
H2966 C2995 0.950 . S
H2967 C2996 0.950 . S
H2968 C2998 0.950 . S
H2969 C2999 0.950 . S
C2970 H2952 0.951 . S
C2970 C2971 1.366 . S
C2970 C2972 1.388 . S
C2971 C2970 1.366 . S
C2971 C2975 1.385 . S
C2972 H2953 0.951 . S
C2972 C2970 1.388 . S
C2972 C2973 1.366 . S
C2973 C2972 1.366 . S
C2973 C2974 1.414 . S
C2973 C2976 1.499 . S
C2974 H2954 0.950 . S
C2974 C2973 1.414 . S
C2974 C2975 1.374 . S
C2975 H2955 0.950 . S
C2975 C2971 1.385 . S
C2975 C2974 1.374 . S
C2976 C2973 1.499 . S
C2976 C2977 1.373 . S
C2976 C2978 1.389 . S
C2977 H2956 0.950 . S
C2977 C2976 1.373 . S
C2977 C2993 1.377 . S
C2978 C2976 1.389 . S
C2978 C2979 1.524 1_554 S
C2978 C2992 1.377 . S
C2979 C2978 1.524 1_556 S
C2979 C2980 1.397 . S
C2979 C2984 1.363 . S
C2980 H2957 0.950 . S
C2980 C2979 1.397 . S
C2980 C2981 1.334 . S
C2981 H2958 0.950 . S
C2981 C2980 1.334 . S
C2981 C2982 1.287 . S
C2982 C2981 1.287 . S
C2982 C2983 1.524 . S
C2982 H3001 0.913 . S
C2983 H2959 0.950 . S
C2983 C2982 1.524 . S
C2983 C2984 1.415 . S
C2984 H2960 0.950 . S
C2984 C2979 1.363 . S
C2984 C2983 1.415 . S
C2985 H2961 0.951 . S
C2985 C2986 1.366 . S
C2985 C2987 1.388 1_556 S
C2986 C2985 1.366 . S
C2986 C2990 1.385 . S
C2987 H2962 0.951 . S
C2987 C2985 1.388 1_554 S
C2987 C2988 1.366 . S
C2988 C2987 1.366 . S
C2988 C2989 1.400 1_554 S
C2988 C2991 1.499 . S
C2989 H2963 0.951 . S
C2989 C2988 1.400 1_556 S
C2989 C2990 1.386 . S
C2990 H2964 0.950 . S
C2990 C2986 1.385 . S
C2990 C2989 1.386 . S
C2991 C2988 1.499 . S
C2991 C2992 1.373 . S
C2991 C2993 1.389 . S
C2992 H2965 0.950 1_554 S
C2992 C2978 1.377 . S
C2992 C2991 1.373 . S
C2993 C2977 1.377 . S
C2993 C2991 1.389 . S
C2993 C2994 1.524 . S
C2994 C2993 1.524 . S
C2994 C2995 1.397 . S
C2994 C2999 1.363 . S
C2995 H2966 0.950 . S
C2995 C2994 1.397 . S
C2995 C2996 1.334 . S
C2996 H2967 0.950 . S
C2996 C2995 1.334 . S
C2996 C2997 1.287 . S
C2997 C2996 1.287 . S
C2997 C2998 1.524 . S
C2997 H3000 0.999 . S
C2998 H2968 0.950 . S
C2998 C2997 1.524 . S
C2998 C2999 1.415 . S
C2999 H2969 0.950 . S
C2999 C2994 1.363 . S
C2999 C2998 1.415 . S
H3000 C2997 0.999 . S
H3001 C2982 0.913 . S
H3002 C3020 0.951 . S
H3003 C3022 0.951 . S
H3004 C3024 0.950 . S
H3005 C3025 0.950 . S
H3006 C3027 0.950 . S
H3007 C3030 0.950 . S
H3008 C3031 0.950 . S
H3009 C3033 0.950 . S
H3010 C3034 0.950 1_554 S
H3011 C3035 0.951 . S
H3012 C3037 0.951 . S
H3013 C3039 0.950 . S
H3014 C3040 0.950 . S
H3015 C3042 0.950 . S
H3016 C3045 0.950 . S
H3017 C3046 0.950 . S
H3018 C3048 0.950 . S
H3019 C3049 0.950 . S
C3020 H3002 0.951 . S
C3020 C3021 1.366 . S
C3020 C3022 1.388 . S
C3021 C3020 1.366 . S
C3021 C3025 1.385 . S
C3022 H3003 0.951 . S
C3022 C3020 1.388 . S
C3022 C3023 1.366 . S
C3023 C3022 1.366 . S
C3023 C3024 1.414 . S
C3023 C3026 1.499 . S
C3024 H3004 0.950 . S
C3024 C3023 1.414 . S
C3024 C3025 1.374 . S
C3025 H3005 0.950 . S
C3025 C3021 1.385 . S
C3025 C3024 1.374 . S
C3026 C3023 1.499 . S
C3026 C3027 1.373 . S
C3026 C3028 1.389 . S
C3027 H3006 0.950 . S
C3027 C3026 1.373 . S
C3027 C3043 1.377 . S
C3028 C3026 1.389 . S
C3028 C3029 1.512 1_554 S
C3028 C3042 1.377 . S
C3029 C3028 1.512 1_556 S
C3029 C3030 1.406 . S
C3029 C3034 1.367 . S
C3030 H3007 0.950 . S
C3030 C3029 1.406 . S
C3030 C3031 1.334 . S
C3031 H3008 0.950 . S
C3031 C3030 1.334 . S
C3031 C3032 1.287 . S
C3032 C3031 1.287 . S
C3032 C3033 1.524 . S
C3032 H3051 0.913 . S
C3033 H3009 0.950 . S
C3033 C3032 1.524 . S
C3033 C3034 1.415 . S
C3034 H3010 0.950 1_556 S
C3034 C3029 1.367 . S
C3034 C3033 1.415 . S
C3035 H3011 0.951 . S
C3035 C3036 1.366 . S
C3035 C3037 1.388 . S
C3036 C3035 1.366 . S
C3036 C3040 1.385 . S
C3037 H3012 0.951 . S
C3037 C3035 1.388 . S
C3037 C3038 1.366 . S
C3038 C3037 1.366 . S
C3038 C3039 1.414 . S
C3038 C3041 1.499 . S
C3039 H3013 0.950 . S
C3039 C3038 1.414 . S
C3039 C3040 1.374 . S
C3040 H3014 0.950 . S
C3040 C3036 1.385 . S
C3040 C3039 1.374 . S
C3041 C3038 1.499 . S
C3041 C3042 1.373 . S
C3041 C3043 1.389 . S
C3042 H3015 0.950 . S
C3042 C3028 1.377 . S
C3042 C3041 1.373 . S
C3043 C3027 1.377 . S
C3043 C3041 1.389 . S
C3043 C3044 1.524 . S
C3044 C3043 1.524 . S
C3044 C3045 1.397 . S
C3044 C3049 1.363 . S
C3045 H3016 0.950 . S
C3045 C3044 1.397 . S
C3045 C3046 1.334 . S
C3046 H3017 0.950 . S
C3046 C3045 1.334 . S
C3046 C3047 1.287 . S
C3047 C3046 1.287 . S
C3047 C3048 1.524 . S
C3047 H3050 0.999 . S
C3048 H3018 0.950 . S
C3048 C3047 1.524 . S
C3048 C3049 1.415 . S
C3049 H3019 0.950 . S
C3049 C3044 1.363 . S
C3049 C3048 1.415 . S
H3050 C3047 0.999 . S
H3051 C3032 0.913 . S
H3052 C3070 0.951 . S
H3053 C3072 0.951 . S
H3054 C3074 0.950 . S
H3055 C3075 0.950 . S
H3056 C3077 0.950 . S
H3057 C3080 0.950 . S
H3058 C3081 0.950 . S
H3059 C3083 0.950 . S
H3060 C3084 0.950 . S
H3061 C3085 0.951 . S
H3062 C3087 0.951 . S
H3063 C3089 0.950 . S
H3064 C3090 0.950 . S
H3065 C3092 0.950 . S
H3066 C3095 0.950 . S
H3067 C3096 0.950 . S
H3068 C3098 0.950 . S
H3069 C3099 0.950 . S
C3070 H3052 0.951 . S
C3070 C3071 1.366 . S
C3070 C3072 1.388 . S
C3071 C3070 1.366 . S
C3071 C3075 1.385 . S
C3072 H3053 0.951 . S
C3072 C3070 1.388 . S
C3072 C3073 1.366 . S
C3073 C3072 1.366 . S
C3073 C3074 1.414 . S
C3073 C3076 1.499 . S
C3074 H3054 0.950 . S
C3074 C3073 1.414 . S
C3074 C3075 1.374 . S
C3075 H3055 0.950 . S
C3075 C3071 1.385 . S
C3075 C3074 1.374 . S
C3076 C3073 1.499 . S
C3076 C3077 1.373 . S
C3076 C3078 1.389 . S
C3077 H3056 0.950 . S
C3077 C3076 1.373 . S
C3077 C3093 1.377 . S
C3078 C3076 1.389 . S
C3078 C3079 1.524 . S
C3078 C3092 1.377 . S
C3079 C3078 1.524 . S
C3079 C3080 1.397 . S
C3079 C3084 1.363 . S
C3080 H3057 0.950 . S
C3080 C3079 1.397 . S
C3080 C3081 1.334 . S
C3081 H3058 0.950 . S
C3081 C3080 1.334 . S
C3081 C3082 1.287 . S
C3082 C3081 1.287 . S
C3082 C3083 1.524 . S
C3082 H3101 0.913 . S
C3083 H3059 0.950 . S
C3083 C3082 1.524 . S
C3083 C3084 1.415 . S
C3084 H3060 0.950 . S
C3084 C3079 1.363 . S
C3084 C3083 1.415 . S
C3085 H3061 0.951 . S
C3085 C3086 1.366 . S
C3085 C3087 1.388 . S
C3086 C3085 1.366 . S
C3086 C3090 1.385 . S
C3087 H3062 0.951 . S
C3087 C3085 1.388 . S
C3087 C3088 1.366 . S
C3088 C3087 1.366 . S
C3088 C3089 1.414 . S
C3088 C3091 1.499 . S
C3089 H3063 0.950 . S
C3089 C3088 1.414 . S
C3089 C3090 1.374 . S
C3090 H3064 0.950 . S
C3090 C3086 1.385 . S
C3090 C3089 1.374 . S
C3091 C3088 1.499 . S
C3091 C3092 1.373 . S
C3091 C3093 1.389 . S
C3092 H3065 0.950 . S
C3092 C3078 1.377 . S
C3092 C3091 1.373 . S
C3093 C3077 1.377 . S
C3093 C3091 1.389 . S
C3093 C3094 1.524 . S
C3094 C3093 1.524 . S
C3094 C3095 1.397 . S
C3094 C3099 1.363 . S
C3095 H3066 0.950 . S
C3095 C3094 1.397 . S
C3095 C3096 1.334 . S
C3096 H3067 0.950 . S
C3096 C3095 1.334 . S
C3096 C3097 1.287 . S
C3097 C3096 1.287 . S
C3097 C3098 1.524 . S
C3097 H3100 0.999 . S
C3098 H3068 0.950 . S
C3098 C3097 1.524 . S
C3098 C3099 1.415 . S
C3099 H3069 0.950 . S
C3099 C3094 1.363 . S
C3099 C3098 1.415 . S
H3100 C3097 0.999 . S
H3101 C3082 0.913 . S
H3102 C3120 0.951 . S
H3103 C3122 0.951 . S
H3104 C3124 0.950 . S
H3105 C3125 0.950 . S
H3106 C3127 0.950 . S
H3107 C3130 0.950 . S
H3108 C3131 0.950 . S
H3109 C3133 0.950 . S
H3110 C3134 0.950 . S
H3111 C3135 0.951 . S
H3112 C3137 0.951 . S
H3113 C3139 0.950 . S
H3114 C3140 0.950 . S
H3115 C3142 0.950 . S
H3116 C3145 0.950 . S
H3117 C3146 0.950 . S
H3118 C3148 0.950 . S
H3119 C3149 0.950 . S
C3120 H3102 0.951 . S
C3120 C3121 1.366 . S
C3120 C3122 1.388 . S
C3121 C3120 1.366 . S
C3121 C3125 1.385 . S
C3122 H3103 0.951 . S
C3122 C3120 1.388 . S
C3122 C3123 1.366 . S
C3123 C3122 1.366 . S
C3123 C3124 1.414 . S
C3123 C3126 1.499 . S
C3124 H3104 0.950 . S
C3124 C3123 1.414 . S
C3124 C3125 1.374 . S
C3125 H3105 0.950 . S
C3125 C3121 1.385 . S
C3125 C3124 1.374 . S
C3126 C3123 1.499 . S
C3126 C3127 1.373 . S
C3126 C3128 1.389 . S
C3127 H3106 0.950 . S
C3127 C3126 1.373 . S
C3127 C3143 1.377 . S
C3128 C3126 1.389 . S
C3128 C3129 1.524 . S
C3128 C3142 1.377 . S
C3129 C3128 1.524 . S
C3129 C3130 1.397 . S
C3129 C3134 1.363 . S
C3130 H3107 0.950 . S
C3130 C3129 1.397 . S
C3130 C3131 1.334 . S
C3131 H3108 0.950 . S
C3131 C3130 1.334 . S
C3131 C3132 1.287 . S
C3132 C3131 1.287 . S
C3132 C3133 1.524 . S
C3132 H3151 0.913 . S
C3133 H3109 0.950 . S
C3133 C3132 1.524 . S
C3133 C3134 1.415 . S
C3134 H3110 0.950 . S
C3134 C3129 1.363 . S
C3134 C3133 1.415 . S
C3135 H3111 0.951 . S
C3135 C3136 1.366 . S
C3135 C3137 1.388 . S
C3136 C3135 1.366 . S
C3136 C3140 1.385 . S
C3137 H3112 0.951 . S
C3137 C3135 1.388 . S
C3137 C3138 1.366 . S
C3138 C3137 1.366 . S
C3138 C3139 1.414 . S
C3138 C3141 1.499 . S
C3139 H3113 0.950 . S
C3139 C3138 1.414 . S
C3139 C3140 1.374 . S
C3140 H3114 0.950 . S
C3140 C3136 1.385 . S
C3140 C3139 1.374 . S
C3141 C3138 1.499 . S
C3141 C3142 1.373 . S
C3141 C3143 1.389 . S
C3142 H3115 0.950 . S
C3142 C3128 1.377 . S
C3142 C3141 1.373 . S
C3143 C3127 1.377 . S
C3143 C3141 1.389 . S
C3143 C3144 1.524 . S
C3144 C3143 1.524 . S
C3144 C3145 1.397 . S
C3144 C3149 1.363 . S
C3145 H3116 0.950 . S
C3145 C3144 1.397 . S
C3145 C3146 1.334 . S
C3146 H3117 0.950 . S
C3146 C3145 1.334 . S
C3146 C3147 1.287 . S
C3147 C3146 1.287 . S
C3147 C3148 1.524 . S
C3147 H3150 0.999 . S
C3148 H3118 0.950 . S
C3148 C3147 1.524 . S
C3148 C3149 1.415 . S
C3149 H3119 0.950 . S
C3149 C3144 1.363 . S
C3149 C3148 1.415 . S
H3150 C3147 0.999 . S
H3151 C3132 0.913 . S
H3152 C3170 0.951 . S
H3153 C3172 0.951 . S
H3154 C3174 0.950 . S
H3155 C3175 0.950 . S
H3156 C3177 0.950 . S
H3157 C3180 0.950 . S
H3158 C3181 0.950 . S
H3159 C3183 0.950 . S
H3160 C3184 0.950 . S
H3161 C3185 0.951 . S
H3162 C3187 0.951 . S
H3163 C3189 0.950 . S
H3164 C3190 0.950 . S
H3165 C3192 0.950 . S
H3166 C3195 0.950 . S
H3167 C3196 0.950 . S
H3168 C3198 0.950 . S
H3169 C3199 0.950 . S
C3170 H3152 0.951 . S
C3170 C3171 1.366 . S
C3170 C3172 1.388 . S
C3171 C3170 1.366 . S
C3171 C3175 1.385 . S
C3172 H3153 0.951 . S
C3172 C3170 1.388 . S
C3172 C3173 1.366 . S
C3173 C3172 1.366 . S
C3173 C3174 1.414 . S
C3173 C3176 1.499 . S
C3174 H3154 0.950 . S
C3174 C3173 1.414 . S
C3174 C3175 1.374 . S
C3175 H3155 0.950 . S
C3175 C3171 1.385 . S
C3175 C3174 1.374 . S
C3176 C3173 1.499 . S
C3176 C3177 1.373 . S
C3176 C3178 1.389 . S
C3177 H3156 0.950 . S
C3177 C3176 1.373 . S
C3177 C3193 1.377 . S
C3178 C3176 1.389 . S
C3178 C3179 1.524 . S
C3178 C3192 1.377 . S
C3179 C3178 1.524 . S
C3179 C3180 1.397 . S
C3179 C3184 1.363 . S
C3180 H3157 0.950 . S
C3180 C3179 1.397 . S
C3180 C3181 1.334 1_565 S
C3181 H3158 0.950 . S
C3181 C3180 1.334 1_545 S
C3181 C3182 1.287 . S
C3182 C3181 1.287 . S
C3182 C3183 1.524 . S
C3182 H3201 0.913 . S
C3183 H3159 0.950 . S
C3183 C3182 1.524 . S
C3183 C3184 1.415 1_545 S
C3184 H3160 0.950 . S
C3184 C3179 1.363 . S
C3184 C3183 1.415 1_565 S
C3185 H3161 0.951 . S
C3185 C3186 1.366 . S
C3185 C3187 1.388 . S
C3186 C3185 1.366 . S
C3186 C3190 1.385 . S
C3187 H3162 0.951 . S
C3187 C3185 1.388 . S
C3187 C3188 1.366 . S
C3188 C3187 1.366 . S
C3188 C3189 1.414 . S
C3188 C3191 1.499 . S
C3189 H3163 0.950 . S
C3189 C3188 1.414 . S
C3189 C3190 1.374 . S
C3190 H3164 0.950 . S
C3190 C3186 1.385 . S
C3190 C3189 1.374 . S
C3191 C3188 1.499 . S
C3191 C3192 1.373 . S
C3191 C3193 1.389 . S
C3192 H3165 0.950 . S
C3192 C3178 1.377 . S
C3192 C3191 1.373 . S
C3193 C3177 1.377 . S
C3193 C3191 1.389 . S
C3193 C3194 1.524 . S
C3194 C3193 1.524 . S
C3194 C3195 1.397 . S
C3194 C3199 1.363 . S
C3195 H3166 0.950 . S
C3195 C3194 1.397 . S
C3195 C3196 1.334 . S
C3196 H3167 0.950 . S
C3196 C3195 1.334 . S
C3196 C3197 1.287 . S
C3197 C3196 1.287 . S
C3197 C3198 1.524 . S
C3197 H3200 0.999 . S
C3198 H3168 0.950 . S
C3198 C3197 1.524 . S
C3198 C3199 1.415 . S
C3199 H3169 0.950 . S
C3199 C3194 1.363 . S
C3199 C3198 1.415 . S
H3200 C3197 0.999 . S
H3201 C3182 0.913 . S
H3202 C3220 0.951 . S
H3203 C3222 0.951 . S
H3204 C3224 0.950 . S
H3205 C3225 0.950 . S
H3206 C3227 0.950 . S
H3207 C3230 0.950 . S
H3208 C3231 0.950 . S
H3209 C3233 0.950 . S
H3210 C3234 0.950 . S
H3211 C3235 0.951 . S
H3212 C3237 0.951 . S
H3213 C3239 0.950 . S
H3214 C3240 0.950 . S
H3215 C3242 0.950 . S
H3216 C3245 0.950 . S
H3217 C3246 0.950 . S
H3218 C3248 0.950 . S
H3219 C3249 0.950 . S
C3220 H3202 0.951 . S
C3220 C3221 1.366 . S
C3220 C3222 1.388 . S
C3221 C3220 1.366 . S
C3221 C3225 1.385 . S
C3222 H3203 0.951 . S
C3222 C3220 1.388 . S
C3222 C3223 1.366 . S
C3223 C3222 1.366 . S
C3223 C3224 1.414 . S
C3223 C3226 1.499 . S
C3224 H3204 0.950 . S
C3224 C3223 1.414 . S
C3224 C3225 1.374 . S
C3225 H3205 0.950 . S
C3225 C3221 1.385 . S
C3225 C3224 1.374 . S
C3226 C3223 1.499 . S
C3226 C3227 1.373 . S
C3226 C3228 1.389 . S
C3227 H3206 0.950 . S
C3227 C3226 1.373 . S
C3227 C3243 1.377 . S
C3228 C3226 1.389 . S
C3228 C3229 1.524 . S
C3228 C3242 1.377 . S
C3229 C3228 1.524 . S
C3229 C3230 1.397 . S
C3229 C3234 1.363 . S
C3230 H3207 0.950 . S
C3230 C3229 1.397 . S
C3230 C3231 1.334 . S
C3231 H3208 0.950 . S
C3231 C3230 1.334 . S
C3231 C3232 1.287 . S
C3232 C3231 1.287 . S
C3232 C3233 1.524 . S
C3232 H3251 0.913 . S
C3233 H3209 0.950 . S
C3233 C3232 1.524 . S
C3233 C3234 1.415 . S
C3234 H3210 0.950 . S
C3234 C3229 1.363 . S
C3234 C3233 1.415 . S
C3235 H3211 0.951 . S
C3235 C3236 1.366 . S
C3235 C3237 1.388 . S
C3236 C3235 1.366 . S
C3236 C3240 1.385 . S
C3237 H3212 0.951 . S
C3237 C3235 1.388 . S
C3237 C3238 1.366 . S
C3238 C3237 1.366 . S
C3238 C3239 1.414 . S
C3238 C3241 1.499 . S
C3239 H3213 0.950 . S
C3239 C3238 1.414 . S
C3239 C3240 1.374 . S
C3240 H3214 0.950 . S
C3240 C3236 1.385 . S
C3240 C3239 1.374 . S
C3241 C3238 1.499 . S
C3241 C3242 1.373 . S
C3241 C3243 1.389 . S
C3242 H3215 0.950 . S
C3242 C3228 1.377 . S
C3242 C3241 1.373 . S
C3243 C3227 1.377 . S
C3243 C3241 1.389 . S
C3243 C3244 1.524 . S
C3244 C3243 1.524 . S
C3244 C3245 1.397 . S
C3244 C3249 1.363 . S
C3245 H3216 0.950 . S
C3245 C3244 1.397 . S
C3245 C3246 1.334 1_565 S
C3246 H3217 0.950 . S
C3246 C3245 1.334 1_545 S
C3246 C3247 1.287 . S
C3247 C3246 1.287 . S
C3247 C3248 1.524 . S
C3247 H3250 0.999 . S
C3248 H3218 0.950 . S
C3248 C3247 1.524 . S
C3248 C3249 1.415 1_545 S
C3249 H3219 0.950 . S
C3249 C3244 1.363 . S
C3249 C3248 1.415 1_565 S
H3250 C3247 0.999 . S
H3251 C3232 0.913 . S
H3252 C3270 0.951 . S
H3253 C3272 0.951 . S
H3254 C3274 0.950 . S
H3255 C3275 0.950 . S
H3256 C3277 0.950 . S
H3257 C3280 0.950 . S
H3258 C3281 0.950 . S
H3259 C3283 0.950 . S
H3260 C3284 0.950 . S
H3261 C3285 0.951 . S
H3262 C3287 0.951 . S
H3263 C3289 0.950 . S
H3264 C3290 0.950 . S
H3265 C3292 0.950 . S
H3266 C3295 0.950 . S
H3267 C3296 0.950 . S
H3268 C3298 0.950 . S
H3269 C3299 0.950 . S
C3270 H3252 0.951 . S
C3270 C3271 1.366 . S
C3270 C3272 1.388 . S
C3271 C3270 1.366 . S
C3271 C3275 1.385 . S
C3272 H3253 0.951 . S
C3272 C3270 1.388 . S
C3272 C3273 1.366 . S
C3273 C3272 1.366 . S
C3273 C3274 1.414 . S
C3273 C3276 1.499 . S
C3274 H3254 0.950 . S
C3274 C3273 1.414 . S
C3274 C3275 1.374 . S
C3275 H3255 0.950 . S
C3275 C3271 1.385 . S
C3275 C3274 1.374 . S
C3276 C3273 1.499 . S
C3276 C3277 1.373 . S
C3276 C3278 1.389 . S
C3277 H3256 0.950 . S
C3277 C3276 1.373 . S
C3277 C3293 1.377 . S
C3278 C3276 1.389 . S
C3278 C3279 1.524 . S
C3278 C3292 1.377 . S
C3279 C3278 1.524 . S
C3279 C3280 1.397 . S
C3279 C3284 1.363 . S
C3280 H3257 0.950 . S
C3280 C3279 1.397 . S
C3280 C3281 1.334 . S
C3281 H3258 0.950 . S
C3281 C3280 1.334 . S
C3281 C3282 1.287 . S
C3282 C3281 1.287 . S
C3282 C3283 1.524 . S
C3282 H3301 0.913 . S
C3283 H3259 0.950 . S
C3283 C3282 1.524 . S
C3283 C3284 1.415 . S
C3284 H3260 0.950 . S
C3284 C3279 1.363 . S
C3284 C3283 1.415 . S
C3285 H3261 0.951 . S
C3285 C3286 1.366 . S
C3285 C3287 1.388 . S
C3286 C3285 1.366 . S
C3286 C3290 1.385 . S
C3287 H3262 0.951 . S
C3287 C3285 1.388 . S
C3287 C3288 1.366 . S
C3288 C3287 1.366 . S
C3288 C3289 1.414 . S
C3288 C3291 1.499 . S
C3289 H3263 0.950 . S
C3289 C3288 1.414 . S
C3289 C3290 1.374 . S
C3290 H3264 0.950 . S
C3290 C3286 1.385 . S
C3290 C3289 1.374 . S
C3291 C3288 1.499 . S
C3291 C3292 1.373 . S
C3291 C3293 1.389 . S
C3292 H3265 0.950 . S
C3292 C3278 1.377 . S
C3292 C3291 1.373 . S
C3293 C3277 1.377 . S
C3293 C3291 1.389 . S
C3293 C3294 1.524 . S
C3294 C3293 1.524 . S
C3294 C3295 1.397 . S
C3294 C3299 1.363 . S
C3295 H3266 0.950 . S
C3295 C3294 1.397 . S
C3295 C3296 1.334 . S
C3296 H3267 0.950 . S
C3296 C3295 1.334 . S
C3296 C3297 1.287 . S
C3297 C3296 1.287 . S
C3297 C3298 1.524 . S
C3297 H3300 0.999 . S
C3298 H3268 0.950 . S
C3298 C3297 1.524 . S
C3298 C3299 1.415 . S
C3299 H3269 0.950 . S
C3299 C3294 1.363 . S
C3299 C3298 1.415 . S
H3300 C3297 0.999 . S
H3301 C3282 0.913 . S
H3302 C3320 0.951 . S
H3303 C3322 0.951 . S
H3304 C3324 0.950 . S
H3305 C3325 0.950 . S
H3306 C3327 0.950 . S
H3307 C3330 0.950 . S
H3308 C3331 0.950 . S
H3309 C3333 0.950 . S
H3310 C3334 0.950 . S
H3311 C3335 0.951 . S
H3312 C3337 0.951 . S
H3313 C3339 0.950 . S
H3314 C3340 0.950 . S
H3315 C3342 0.950 . S
H3316 C3345 0.950 . S
H3317 C3346 0.950 . S
H3318 C3348 0.950 . S
H3319 C3349 0.950 . S
C3320 H3302 0.951 . S
C3320 C3321 1.366 . S
C3320 C3322 1.388 . S
C3321 C3320 1.366 . S
C3321 C3325 1.385 . S
C3322 H3303 0.951 . S
C3322 C3320 1.388 . S
C3322 C3323 1.366 . S
C3323 C3322 1.366 . S
C3323 C3324 1.414 . S
C3323 C3326 1.499 . S
C3324 H3304 0.950 . S
C3324 C3323 1.414 . S
C3324 C3325 1.374 . S
C3325 H3305 0.950 . S
C3325 C3321 1.385 . S
C3325 C3324 1.374 . S
C3326 C3323 1.499 . S
C3326 C3327 1.373 . S
C3326 C3328 1.389 . S
C3327 H3306 0.950 . S
C3327 C3326 1.373 . S
C3327 C3343 1.377 . S
C3328 C3326 1.389 . S
C3328 C3329 1.524 . S
C3328 C3342 1.377 . S
C3329 C3328 1.524 . S
C3329 C3330 1.397 . S
C3329 C3334 1.363 . S
C3330 H3307 0.950 . S
C3330 C3329 1.397 . S
C3330 C3331 1.334 . S
C3331 H3308 0.950 . S
C3331 C3330 1.334 . S
C3331 C3332 1.287 . S
C3332 C3331 1.287 . S
C3332 C3333 1.524 . S
C3332 H3351 0.913 . S
C3333 H3309 0.950 . S
C3333 C3332 1.524 . S
C3333 C3334 1.415 . S
C3334 H3310 0.950 . S
C3334 C3329 1.363 . S
C3334 C3333 1.415 . S
C3335 H3311 0.951 . S
C3335 C3336 1.366 . S
C3335 C3337 1.388 . S
C3336 C3335 1.366 . S
C3336 C3340 1.385 . S
C3337 H3312 0.951 . S
C3337 C3335 1.388 . S
C3337 C3338 1.366 . S
C3338 C3337 1.366 . S
C3338 C3339 1.414 . S
C3338 C3341 1.499 . S
C3339 H3313 0.950 . S
C3339 C3338 1.414 . S
C3339 C3340 1.374 . S
C3340 H3314 0.950 . S
C3340 C3336 1.385 . S
C3340 C3339 1.374 . S
C3341 C3338 1.499 . S
C3341 C3342 1.373 . S
C3341 C3343 1.389 . S
C3342 H3315 0.950 . S
C3342 C3328 1.377 . S
C3342 C3341 1.373 . S
C3343 C3327 1.377 . S
C3343 C3341 1.389 . S
C3343 C3344 1.524 . S
C3344 C3343 1.524 . S
C3344 C3345 1.397 . S
C3344 C3349 1.363 . S
C3345 H3316 0.950 . S
C3345 C3344 1.397 . S
C3345 C3346 1.334 . S
C3346 H3317 0.950 . S
C3346 C3345 1.334 . S
C3346 C3347 1.287 . S
C3347 C3346 1.287 . S
C3347 C3348 1.524 . S
C3347 H3350 0.999 . S
C3348 H3318 0.950 . S
C3348 C3347 1.524 . S
C3348 C3349 1.415 . S
C3349 H3319 0.950 . S
C3349 C3344 1.363 . S
C3349 C3348 1.415 . S
H3350 C3347 0.999 . S
H3351 C3332 0.913 . S
H3352 C3370 0.951 . S
H3353 C3372 0.951 . S
H3354 C3374 0.950 . S
H3355 C3375 0.950 . S
H3356 C3377 0.950 . S
H3357 C3380 0.950 . S
H3358 C3381 0.950 . S
H3359 C3383 0.950 . S
H3360 C3384 0.950 . S
H3361 C3385 0.951 . S
H3362 C3387 0.951 . S
H3363 C3389 0.950 . S
H3364 C3390 0.950 . S
H3365 C3392 0.950 . S
H3366 C3395 0.950 . S
H3367 C3396 0.950 . S
H3368 C3398 0.950 . S
H3369 C3399 0.950 . S
C3370 H3352 0.951 . S
C3370 C3371 1.366 . S
C3370 C3372 1.388 . S
C3371 C3370 1.366 . S
C3371 C3375 1.385 . S
C3372 H3353 0.951 . S
C3372 C3370 1.388 . S
C3372 C3373 1.366 . S
C3373 C3372 1.366 . S
C3373 C3374 1.414 . S
C3373 C3376 1.499 . S
C3374 H3354 0.950 . S
C3374 C3373 1.414 . S
C3374 C3375 1.374 . S
C3375 H3355 0.950 . S
C3375 C3371 1.385 . S
C3375 C3374 1.374 . S
C3376 C3373 1.499 . S
C3376 C3377 1.373 . S
C3376 C3378 1.389 . S
C3377 H3356 0.950 . S
C3377 C3376 1.373 . S
C3377 C3393 1.377 . S
C3378 C3376 1.389 . S
C3378 C3379 1.524 . S
C3378 C3392 1.377 . S
C3379 C3378 1.524 . S
C3379 C3380 1.397 . S
C3379 C3384 1.363 . S
C3380 H3357 0.950 . S
C3380 C3379 1.397 . S
C3380 C3381 1.334 . S
C3381 H3358 0.950 . S
C3381 C3380 1.334 . S
C3381 C3382 1.287 . S
C3382 C3381 1.287 . S
C3382 C3383 1.524 . S
C3382 H3401 0.913 . S
C3383 H3359 0.950 . S
C3383 C3382 1.524 . S
C3383 C3384 1.415 . S
C3384 H3360 0.950 . S
C3384 C3379 1.363 . S
C3384 C3383 1.415 . S
C3385 H3361 0.951 . S
C3385 C3386 1.366 . S
C3385 C3387 1.388 . S
C3386 C3385 1.366 . S
C3386 C3390 1.385 . S
C3387 H3362 0.951 . S
C3387 C3385 1.388 . S
C3387 C3388 1.366 . S
C3388 C3387 1.366 . S
C3388 C3389 1.414 . S
C3388 C3391 1.499 . S
C3389 H3363 0.950 . S
C3389 C3388 1.414 . S
C3389 C3390 1.374 . S
C3390 H3364 0.950 . S
C3390 C3386 1.385 . S
C3390 C3389 1.374 . S
C3391 C3388 1.499 . S
C3391 C3392 1.373 . S
C3391 C3393 1.389 . S
C3392 H3365 0.950 . S
C3392 C3378 1.377 . S
C3392 C3391 1.373 . S
C3393 C3377 1.377 . S
C3393 C3391 1.389 . S
C3393 C3394 1.524 . S
C3394 C3393 1.524 . S
C3394 C3395 1.397 . S
C3394 C3399 1.363 . S
C3395 H3366 0.950 . S
C3395 C3394 1.397 . S
C3395 C3396 1.334 . S
C3396 H3367 0.950 . S
C3396 C3395 1.334 . S
C3396 C3397 1.287 . S
C3397 C3396 1.287 . S
C3397 C3398 1.524 . S
C3397 H3400 0.999 . S
C3398 H3368 0.950 . S
C3398 C3397 1.524 . S
C3398 C3399 1.415 . S
C3399 H3369 0.950 . S
C3399 C3394 1.363 . S
C3399 C3398 1.415 . S
H3400 C3397 0.999 . S
H3401 C3382 0.913 . S
H3402 C3420 0.951 . S
H3403 C3422 0.951 . S
H3404 C3424 0.950 . S
H3405 C3425 0.950 . S
H3406 C3427 0.950 . S
H3407 C3430 0.950 . S
H3408 C3431 0.950 . S
H3409 C3433 0.950 . S
H3410 C3434 0.950 . S
H3411 C3435 0.951 . S
H3412 C3437 0.951 . S
H3413 C3439 0.950 . S
H3414 C3440 0.950 . S
H3415 C3442 0.950 . S
H3416 C3445 0.950 . S
H3417 C3446 0.950 . S
H3418 C3448 0.950 . S
H3419 C3449 0.950 . S
C3420 H3402 0.951 . S
C3420 C3421 1.366 . S
C3420 C3422 1.388 . S
C3421 C3420 1.366 . S
C3421 C3425 1.385 . S
C3422 H3403 0.951 . S
C3422 C3420 1.388 . S
C3422 C3423 1.366 . S
C3423 C3422 1.366 . S
C3423 C3424 1.414 . S
C3423 C3426 1.499 . S
C3424 H3404 0.950 . S
C3424 C3423 1.414 . S
C3424 C3425 1.374 . S
C3425 H3405 0.950 . S
C3425 C3421 1.385 . S
C3425 C3424 1.374 . S
C3426 C3423 1.499 . S
C3426 C3427 1.373 . S
C3426 C3428 1.389 . S
C3427 H3406 0.950 . S
C3427 C3426 1.373 . S
C3427 C3443 1.377 . S
C3428 C3426 1.389 . S
C3428 C3429 1.524 . S
C3428 C3442 1.377 . S
C3429 C3428 1.524 . S
C3429 C3430 1.397 . S
C3429 C3434 1.363 . S
C3430 H3407 0.950 . S
C3430 C3429 1.397 . S
C3430 C3431 1.334 . S
C3431 H3408 0.950 . S
C3431 C3430 1.334 . S
C3431 C3432 1.287 . S
C3432 C3431 1.287 . S
C3432 C3433 1.524 . S
C3432 H3451 0.913 . S
C3433 H3409 0.950 . S
C3433 C3432 1.524 . S
C3433 C3434 1.415 . S
C3434 H3410 0.950 . S
C3434 C3429 1.363 . S
C3434 C3433 1.415 . S
C3435 H3411 0.951 . S
C3435 C3436 1.366 . S
C3435 C3437 1.388 . S
C3436 C3435 1.366 . S
C3436 C3440 1.385 . S
C3437 H3412 0.951 . S
C3437 C3435 1.388 . S
C3437 C3438 1.366 . S
C3438 C3437 1.366 . S
C3438 C3439 1.414 . S
C3438 C3441 1.499 . S
C3439 H3413 0.950 . S
C3439 C3438 1.414 . S
C3439 C3440 1.374 . S
C3440 H3414 0.950 . S
C3440 C3436 1.385 . S
C3440 C3439 1.374 . S
C3441 C3438 1.499 . S
C3441 C3442 1.373 . S
C3441 C3443 1.389 . S
C3442 H3415 0.950 . S
C3442 C3428 1.377 . S
C3442 C3441 1.373 . S
C3443 C3427 1.377 . S
C3443 C3441 1.389 . S
C3443 C3444 1.524 . S
C3444 C3443 1.524 . S
C3444 C3445 1.397 . S
C3444 C3449 1.363 . S
C3445 H3416 0.950 . S
C3445 C3444 1.397 . S
C3445 C3446 1.334 . S
C3446 H3417 0.950 . S
C3446 C3445 1.334 . S
C3446 C3447 1.287 . S
C3447 C3446 1.287 . S
C3447 C3448 1.524 . S
C3447 H3450 0.999 . S
C3448 H3418 0.950 . S
C3448 C3447 1.524 . S
C3448 C3449 1.415 . S
C3449 H3419 0.950 . S
C3449 C3444 1.363 . S
C3449 C3448 1.415 . S
H3450 C3447 0.999 . S
H3451 C3432 0.913 . S
H3452 C3470 0.951 . S
H3453 C3472 0.951 . S
H3454 C3474 0.950 . S
H3455 C3475 0.950 . S
H3456 C3477 0.950 . S
H3457 C3480 0.950 . S
H3458 C3481 0.950 . S
H3459 C3483 0.950 . S
H3460 C3484 0.950 . S
H3461 C3485 0.951 . S
H3462 C3487 0.951 . S
H3463 C3489 0.950 1_655 S
H3464 C3490 0.985 . S
H3465 C3492 0.950 . S
H3466 C3495 0.950 . S
H3467 C3496 0.950 . S
H3468 C3498 0.950 . S
H3469 C3499 0.950 . S
C3470 H3452 0.951 . S
C3470 C3471 1.366 1_655 S
C3470 C3472 1.388 . S
C3471 C3470 1.366 1_455 S
C3471 C3475 1.385 . S
C3472 H3453 0.951 . S
C3472 C3470 1.388 . S
C3472 C3473 1.366 1_655 S
C3473 C3472 1.366 1_455 S
C3473 C3474 1.414 . S
C3473 C3476 1.499 . S
C3474 H3454 0.950 . S
C3474 C3473 1.414 . S
C3474 C3475 1.374 . S
C3475 H3455 0.950 . S
C3475 C3471 1.385 . S
C3475 C3474 1.374 . S
C3476 C3473 1.499 . S
C3476 C3477 1.373 . S
C3476 C3478 1.389 . S
C3477 H3456 0.950 . S
C3477 C3476 1.373 . S
C3477 C3493 1.377 . S
C3478 C3476 1.389 . S
C3478 C3479 1.524 1_455 S
C3478 C3492 1.377 . S
C3479 C3478 1.524 1_655 S
C3479 C3480 1.397 1_655 S
C3479 C3484 1.363 . S
C3480 H3457 0.950 . S
C3480 C3479 1.397 1_455 S
C3480 C3481 1.334 1_455 S
C3481 H3458 0.950 . S
C3481 C3480 1.334 1_655 S
C3481 C3482 1.287 . S
C3482 C3481 1.287 . S
C3482 C3483 1.524 . S
C3482 H3501 0.913 . S
C3483 H3459 0.950 . S
C3483 C3482 1.524 . S
C3483 C3484 1.415 . S
C3484 H3460 0.950 . S
C3484 C3479 1.363 . S
C3484 C3483 1.415 . S
C3485 H3461 0.951 . S
C3485 C3486 1.366 . S
C3485 C3487 1.388 1_554 S
C3486 C3485 1.366 . S
C3486 C3490 1.385 . S
C3487 H3462 0.951 . S
C3487 C3485 1.388 1_556 S
C3487 C3488 1.366 . S
C3488 C3487 1.366 . S
C3488 C3489 1.414 . S
C3488 C3491 1.499 . S
C3489 H3463 0.950 1_455 S
C3489 C3488 1.414 . S
C3489 C3490 1.374 1_556 S
C3490 H3464 0.985 . S
C3490 C3486 1.385 . S
C3490 C3489 1.374 1_554 S
C3491 C3488 1.499 . S
C3491 C3492 1.373 . S
C3491 C3493 1.389 . S
C3492 H3465 0.950 . S
C3492 C3478 1.377 . S
C3492 C3491 1.373 . S
C3493 C3477 1.377 . S
C3493 C3491 1.389 . S
C3493 C3494 1.524 1_556 S
C3494 C3493 1.524 1_554 S
C3494 C3495 1.397 . S
C3494 C3499 1.363 . S
C3495 H3466 0.950 . S
C3495 C3494 1.397 . S
C3495 C3496 1.334 . S
C3496 H3467 0.950 . S
C3496 C3495 1.334 . S
C3496 C3497 1.287 . S
C3497 C3496 1.287 . S
C3497 C3498 1.524 . S
C3497 H3500 0.999 . S
C3498 H3468 0.950 . S
C3498 C3497 1.524 . S
C3498 C3499 1.415 . S
C3499 H3469 0.950 . S
C3499 C3494 1.363 . S
C3499 C3498 1.415 . S
H3500 C3497 0.999 . S
H3501 C3482 0.913 . S
H3502 C3520 0.951 . S
H3503 C3522 0.951 . S
H3504 C3524 0.950 . S
H3505 C3525 0.950 . S
H3506 C3527 0.950 . S
H3507 C3530 0.950 . S
H3508 C3531 0.950 . S
H3509 C3533 0.950 . S
H3510 C3534 0.950 . S
H3511 C3535 0.951 . S
H3512 C3537 0.951 . S
H3513 C3539 0.950 . S
H3514 C3540 0.950 . S
H3515 C3542 0.950 . S
H3516 C3545 0.950 . S
H3517 C3546 0.950 . S
H3518 C3548 0.950 . S
H3519 C3549 0.950 . S
C3520 H3502 0.951 . S
C3520 C3521 1.366 . S
C3520 C3522 1.388 1_455 S
C3521 C3520 1.366 . S
C3521 C3525 1.385 . S
C3522 H3503 0.951 . S
C3522 C3520 1.388 1_655 S
C3522 C3523 1.366 . S
C3523 C3522 1.366 . S
C3523 C3524 1.414 1_655 S
C3523 C3526 1.499 . S
C3524 H3504 0.950 . S
C3524 C3523 1.414 1_455 S
C3524 C3525 1.374 . S
C3525 H3505 0.950 . S
C3525 C3521 1.385 . S
C3525 C3524 1.374 . S
C3526 C3523 1.499 . S
C3526 C3527 1.373 . S
C3526 C3528 1.389 . S
C3527 H3506 0.950 . S
C3527 C3526 1.373 . S
C3527 C3543 1.377 . S
C3528 C3526 1.389 . S
C3528 C3529 1.524 . S
C3528 C3542 1.377 . S
C3529 C3528 1.524 . S
C3529 C3530 1.397 . S
C3529 C3534 1.363 . S
C3530 H3507 0.950 . S
C3530 C3529 1.397 . S
C3530 C3531 1.334 . S
C3531 H3508 0.950 . S
C3531 C3530 1.334 . S
C3531 C3532 1.287 . S
C3532 C3531 1.287 . S
C3532 C3533 1.524 . S
C3532 H3551 0.913 . S
C3533 H3509 0.950 . S
C3533 C3532 1.524 . S
C3533 C3534 1.415 . S
C3534 H3510 0.950 . S
C3534 C3529 1.363 . S
C3534 C3533 1.415 . S
C3535 H3511 0.951 . S
C3535 C3536 1.366 . S
C3535 C3537 1.388 . S
C3536 C3535 1.366 . S
C3536 C3540 1.385 . S
C3537 H3512 0.951 . S
C3537 C3535 1.388 . S
C3537 C3538 1.366 . S
C3538 C3537 1.366 . S
C3538 C3539 1.414 . S
C3538 C3541 1.499 . S
C3539 H3513 0.950 . S
C3539 C3538 1.414 . S
C3539 C3540 1.374 . S
C3540 H3514 0.950 . S
C3540 C3536 1.385 . S
C3540 C3539 1.374 . S
C3541 C3538 1.499 . S
C3541 C3542 1.373 . S
C3541 C3543 1.389 . S
C3542 H3515 0.950 . S
C3542 C3528 1.377 . S
C3542 C3541 1.373 . S
C3543 C3527 1.377 . S
C3543 C3541 1.389 . S
C3543 C3544 1.524 . S
C3544 C3543 1.524 . S
C3544 C3545 1.397 . S
C3544 C3549 1.363 . S
C3545 H3516 0.950 . S
C3545 C3544 1.397 . S
C3545 C3546 1.334 . S
C3546 H3517 0.950 . S
C3546 C3545 1.334 . S
C3546 C3547 1.287 . S
C3547 C3546 1.287 . S
C3547 C3548 1.524 . S
C3547 H3550 0.999 . S
C3548 H3518 0.950 . S
C3548 C3547 1.524 . S
C3548 C3549 1.415 . S
C3549 H3519 0.950 . S
C3549 C3544 1.363 . S
C3549 C3548 1.415 . S
H3550 C3547 0.999 . S
H3551 C3532 0.913 . S
H3552 C3570 0.951 . S
H3553 C3572 0.951 . S
H3554 C3574 0.950 . S
H3555 C3575 0.950 . S
H3556 C3577 0.950 . S
H3557 C3580 0.950 . S
H3558 C3581 0.950 . S
H3559 C3583 0.950 . S
H3560 C3584 0.950 . S
H3561 C3585 0.951 . S
H3562 C3587 0.951 . S
H3563 C3589 0.950 . S
H3564 C3590 0.950 . S
H3565 C3592 0.950 . S
H3566 C3595 0.950 . S
H3567 C3596 0.950 . S
H3568 C3598 0.950 . S
H3569 C3599 0.950 . S
C3570 H3552 0.951 . S
C3570 C3571 1.366 . S
C3570 C3572 1.388 . S
C3571 C3570 1.366 . S
C3571 C3575 1.385 . S
C3572 H3553 0.951 . S
C3572 C3570 1.388 . S
C3572 C3573 1.366 . S
C3573 C3572 1.366 . S
C3573 C3574 1.414 . S
C3573 C3576 1.499 . S
C3574 H3554 0.950 . S
C3574 C3573 1.414 . S
C3574 C3575 1.374 . S
C3575 H3555 0.950 . S
C3575 C3571 1.385 . S
C3575 C3574 1.374 . S
C3576 C3573 1.499 . S
C3576 C3577 1.373 . S
C3576 C3578 1.389 . S
C3577 H3556 0.950 . S
C3577 C3576 1.373 . S
C3577 C3593 1.377 . S
C3578 C3576 1.389 . S
C3578 C3579 1.524 . S
C3578 C3592 1.377 . S
C3579 C3578 1.524 . S
C3579 C3580 1.397 . S
C3579 C3584 1.363 . S
C3580 H3557 0.950 . S
C3580 C3579 1.397 . S
C3580 C3581 1.334 . S
C3581 H3558 0.950 . S
C3581 C3580 1.334 . S
C3581 C3582 1.287 . S
C3582 C3581 1.287 . S
C3582 C3583 1.524 . S
C3582 H3601 0.913 . S
C3583 H3559 0.950 . S
C3583 C3582 1.524 . S
C3583 C3584 1.415 . S
C3584 H3560 0.950 . S
C3584 C3579 1.363 . S
C3584 C3583 1.415 . S
C3585 H3561 0.951 . S
C3585 C3586 1.366 . S
C3585 C3587 1.388 . S
C3586 C3585 1.366 . S
C3586 C3590 1.385 . S
C3587 H3562 0.951 . S
C3587 C3585 1.388 . S
C3587 C3588 1.366 . S
C3588 C3587 1.366 . S
C3588 C3589 1.414 . S
C3588 C3591 1.499 . S
C3589 H3563 0.950 . S
C3589 C3588 1.414 . S
C3589 C3590 1.374 . S
C3590 H3564 0.950 . S
C3590 C3586 1.385 . S
C3590 C3589 1.374 . S
C3591 C3588 1.499 . S
C3591 C3592 1.373 . S
C3591 C3593 1.389 . S
C3592 H3565 0.950 . S
C3592 C3578 1.377 . S
C3592 C3591 1.373 . S
C3593 C3577 1.377 . S
C3593 C3591 1.389 . S
C3593 C3594 1.524 . S
C3594 C3593 1.524 . S
C3594 C3595 1.397 . S
C3594 C3599 1.363 . S
C3595 H3566 0.950 . S
C3595 C3594 1.397 . S
C3595 C3596 1.334 . S
C3596 H3567 0.950 . S
C3596 C3595 1.334 . S
C3596 C3597 1.287 . S
C3597 C3596 1.287 . S
C3597 C3598 1.524 . S
C3597 H3600 0.999 . S
C3598 H3568 0.950 . S
C3598 C3597 1.524 . S
C3598 C3599 1.415 . S
C3599 H3569 0.950 . S
C3599 C3594 1.363 . S
C3599 C3598 1.415 . S
H3600 C3597 0.999 . S
H3601 C3582 0.913 . S
H3602 C3620 0.951 . S
H3603 C3622 0.951 . S
H3604 C3624 0.950 . S
H3605 C3625 0.950 . S
H3606 C3627 0.950 . S
H3607 C3630 0.950 . S
H3608 C3631 0.950 . S
H3609 C3633 0.950 . S
H3610 C3634 0.950 . S
H3611 C3635 0.951 . S
H3612 C3637 0.951 . S
H3613 C3639 0.950 . S
H3614 C3640 0.950 . S
H3615 C3642 0.950 . S
H3616 C3645 0.950 . S
H3617 C3646 0.950 . S
H3618 C3648 0.950 . S
H3619 C3649 0.950 . S
C3620 H3602 0.951 . S
C3620 C3621 1.366 . S
C3620 C3622 1.388 . S
C3621 C3620 1.366 . S
C3621 C3625 1.385 . S
C3622 H3603 0.951 . S
C3622 C3620 1.388 . S
C3622 C3623 1.366 . S
C3623 C3622 1.366 . S
C3623 C3624 1.414 . S
C3623 C3626 1.499 . S
C3624 H3604 0.950 . S
C3624 C3623 1.414 . S
C3624 C3625 1.374 . S
C3625 H3605 0.950 . S
C3625 C3621 1.385 . S
C3625 C3624 1.374 . S
C3626 C3623 1.499 . S
C3626 C3627 1.373 . S
C3626 C3628 1.389 . S
C3627 H3606 0.950 . S
C3627 C3626 1.373 . S
C3627 C3643 1.377 . S
C3628 C3626 1.389 . S
C3628 C3629 1.524 . S
C3628 C3642 1.377 . S
C3629 C3628 1.524 . S
C3629 C3630 1.397 . S
C3629 C3634 1.363 . S
C3630 H3607 0.950 . S
C3630 C3629 1.397 . S
C3630 C3631 1.334 . S
C3631 H3608 0.950 . S
C3631 C3630 1.334 . S
C3631 C3632 1.287 . S
C3632 C3631 1.287 . S
C3632 C3633 1.524 . S
C3632 H3651 0.913 . S
C3633 H3609 0.950 . S
C3633 C3632 1.524 . S
C3633 C3634 1.415 . S
C3634 H3610 0.950 . S
C3634 C3629 1.363 . S
C3634 C3633 1.415 . S
C3635 H3611 0.951 . S
C3635 C3636 1.366 . S
C3635 C3637 1.388 . S
C3636 C3635 1.366 . S
C3636 C3640 1.385 . S
C3637 H3612 0.951 . S
C3637 C3635 1.388 . S
C3637 C3638 1.366 . S
C3638 C3637 1.366 . S
C3638 C3639 1.414 . S
C3638 C3641 1.499 . S
C3639 H3613 0.950 . S
C3639 C3638 1.414 . S
C3639 C3640 1.374 . S
C3640 H3614 0.950 . S
C3640 C3636 1.385 . S
C3640 C3639 1.374 . S
C3641 C3638 1.499 . S
C3641 C3642 1.373 . S
C3641 C3643 1.389 . S
C3642 H3615 0.950 . S
C3642 C3628 1.377 . S
C3642 C3641 1.373 . S
C3643 C3627 1.377 . S
C3643 C3641 1.389 . S
C3643 C3644 1.524 . S
C3644 C3643 1.524 . S
C3644 C3645 1.397 . S
C3644 C3649 1.363 . S
C3645 H3616 0.950 . S
C3645 C3644 1.397 . S
C3645 C3646 1.334 . S
C3646 H3617 0.950 . S
C3646 C3645 1.334 . S
C3646 C3647 1.287 . S
C3647 C3646 1.287 . S
C3647 C3648 1.524 . S
C3647 H3650 0.999 . S
C3648 H3618 0.950 . S
C3648 C3647 1.524 . S
C3648 C3649 1.415 . S
C3649 H3619 0.950 . S
C3649 C3644 1.363 . S
C3649 C3648 1.415 . S
H3650 C3647 0.999 . S
H3651 C3632 0.913 . S
H3652 C3670 0.951 . S
H3653 C3672 0.951 . S
H3654 C3674 0.950 . S
H3655 C3675 0.950 . S
H3656 C3677 0.950 . S
H3657 C3680 0.950 . S
H3658 C3681 0.950 . S
H3659 C3683 0.950 . S
H3660 C3684 0.950 . S
H3661 C3685 0.951 . S
H3662 C3687 0.951 . S
H3663 C3689 0.950 . S
H3664 C3690 0.950 . S
H3665 C3692 0.950 . S
H3666 C3695 0.950 . S
H3667 C3696 0.950 . S
H3668 C3698 0.950 . S
H3669 C3699 0.950 . S
C3670 H3652 0.951 . S
C3670 C3671 1.366 . S
C3670 C3672 1.388 . S
C3671 C3670 1.366 . S
C3671 C3675 1.385 . S
C3672 H3653 0.951 . S
C3672 C3670 1.388 . S
C3672 C3673 1.366 . S
C3673 C3672 1.366 . S
C3673 C3674 1.414 . S
C3673 C3676 1.499 . S
C3674 H3654 0.950 . S
C3674 C3673 1.414 . S
C3674 C3675 1.374 . S
C3675 H3655 0.950 . S
C3675 C3671 1.385 . S
C3675 C3674 1.374 . S
C3676 C3673 1.499 . S
C3676 C3677 1.373 . S
C3676 C3678 1.389 . S
C3677 H3656 0.950 . S
C3677 C3676 1.373 . S
C3677 C3693 1.377 . S
C3678 C3676 1.389 . S
C3678 C3679 1.524 . S
C3678 C3692 1.377 . S
C3679 C3678 1.524 . S
C3679 C3680 1.397 . S
C3679 C3684 1.363 1_455 S
C3680 H3657 0.950 . S
C3680 C3679 1.397 . S
C3680 C3681 1.334 . S
C3681 H3658 0.950 . S
C3681 C3680 1.334 . S
C3681 C3682 1.287 1_455 S
C3682 C3681 1.287 1_655 S
C3682 C3683 1.524 . S
C3682 H3701 0.913 . S
C3683 H3659 0.950 . S
C3683 C3682 1.524 . S
C3683 C3684 1.415 . S
C3684 H3660 0.950 . S
C3684 C3679 1.363 1_655 S
C3684 C3683 1.415 . S
C3685 H3661 0.951 . S
C3685 C3686 1.366 . S
C3685 C3687 1.388 . S
C3686 C3685 1.366 . S
C3686 C3690 1.385 . S
C3687 H3662 0.951 . S
C3687 C3685 1.388 . S
C3687 C3688 1.366 . S
C3688 C3687 1.366 . S
C3688 C3689 1.414 . S
C3688 C3691 1.499 . S
C3689 H3663 0.950 . S
C3689 C3688 1.414 . S
C3689 C3690 1.374 . S
C3690 H3664 0.950 . S
C3690 C3686 1.385 . S
C3690 C3689 1.374 . S
C3691 C3688 1.499 . S
C3691 C3692 1.373 . S
C3691 C3693 1.389 . S
C3692 H3665 0.950 . S
C3692 C3678 1.377 . S
C3692 C3691 1.373 . S
C3693 C3677 1.377 . S
C3693 C3691 1.389 . S
C3693 C3694 1.524 . S
C3694 C3693 1.524 . S
C3694 C3695 1.397 . S
C3694 C3699 1.363 . S
C3695 H3666 0.950 . S
C3695 C3694 1.397 . S
C3695 C3696 1.334 . S
C3696 H3667 0.950 . S
C3696 C3695 1.334 . S
C3696 C3697 1.287 . S
C3697 C3696 1.287 . S
C3697 C3698 1.524 . S
C3697 H3700 0.999 . S
C3698 H3668 0.950 . S
C3698 C3697 1.524 . S
C3698 C3699 1.415 . S
C3699 H3669 0.950 . S
C3699 C3694 1.363 . S
C3699 C3698 1.415 . S
H3700 C3697 0.999 . S
H3701 C3682 0.913 . S
H3702 C3720 0.951 . S
H3703 C3722 0.951 . S
H3704 C3724 0.950 . S
H3705 C3725 0.950 . S
H3706 C3727 0.950 . S
H3707 C3730 0.950 . S
H3708 C3731 0.950 . S
H3709 C3733 0.950 . S
H3710 C3734 0.950 . S
H3711 C3735 0.951 . S
H3712 C3737 0.951 . S
H3713 C3739 0.950 . S
H3714 C3740 0.950 . S
H3715 C3742 0.950 . S
H3716 C3745 0.950 . S
H3717 C3746 0.950 . S
H3718 C3748 0.950 . S
H3719 C3749 0.950 . S
C3720 H3702 0.951 . S
C3720 C3721 1.366 . S
C3720 C3722 1.388 . S
C3721 C3720 1.366 . S
C3721 C3725 1.385 . S
C3722 H3703 0.951 . S
C3722 C3720 1.388 . S
C3722 C3723 1.366 . S
C3723 C3722 1.366 . S
C3723 C3724 1.414 . S
C3723 C3726 1.499 . S
C3724 H3704 0.950 . S
C3724 C3723 1.414 . S
C3724 C3725 1.374 . S
C3725 H3705 0.950 . S
C3725 C3721 1.385 . S
C3725 C3724 1.374 . S
C3726 C3723 1.499 . S
C3726 C3727 1.373 . S
C3726 C3728 1.389 . S
C3727 H3706 0.950 . S
C3727 C3726 1.373 . S
C3727 C3743 1.377 . S
C3728 C3726 1.389 . S
C3728 C3729 1.524 . S
C3728 C3742 1.377 . S
C3729 C3728 1.524 . S
C3729 C3730 1.397 . S
C3729 C3734 1.363 . S
C3730 H3707 0.950 . S
C3730 C3729 1.397 . S
C3730 C3731 1.334 . S
C3731 H3708 0.950 . S
C3731 C3730 1.334 . S
C3731 C3732 1.287 . S
C3732 C3731 1.287 . S
C3732 C3733 1.524 . S
C3732 H3751 0.913 . S
C3733 H3709 0.950 . S
C3733 C3732 1.524 . S
C3733 C3734 1.415 . S
C3734 H3710 0.950 . S
C3734 C3729 1.363 . S
C3734 C3733 1.415 . S
C3735 H3711 0.951 . S
C3735 C3736 1.366 . S
C3735 C3737 1.388 . S
C3736 C3735 1.366 . S
C3736 C3740 1.385 . S
C3737 H3712 0.951 . S
C3737 C3735 1.388 . S
C3737 C3738 1.366 . S
C3738 C3737 1.366 . S
C3738 C3739 1.414 . S
C3738 C3741 1.499 . S
C3739 H3713 0.950 . S
C3739 C3738 1.414 . S
C3739 C3740 1.374 . S
C3740 H3714 0.950 . S
C3740 C3736 1.385 . S
C3740 C3739 1.374 . S
C3741 C3738 1.499 . S
C3741 C3742 1.373 . S
C3741 C3743 1.389 . S
C3742 H3715 0.950 . S
C3742 C3728 1.377 . S
C3742 C3741 1.373 . S
C3743 C3727 1.377 . S
C3743 C3741 1.389 . S
C3743 C3744 1.524 . S
C3744 C3743 1.524 . S
C3744 C3745 1.397 . S
C3744 C3749 1.363 . S
C3745 H3716 0.950 . S
C3745 C3744 1.397 . S
C3745 C3746 1.334 . S
C3746 H3717 0.950 . S
C3746 C3745 1.334 . S
C3746 C3747 1.287 . S
C3747 C3746 1.287 . S
C3747 C3748 1.524 . S
C3747 H3750 0.999 . S
C3748 H3718 0.950 . S
C3748 C3747 1.524 . S
C3748 C3749 1.415 . S
C3749 H3719 0.950 . S
C3749 C3744 1.363 . S
C3749 C3748 1.415 . S
H3750 C3747 0.999 . S
H3751 C3732 0.913 . S
H3752 C3770 0.951 . S
H3753 C3772 0.951 . S
H3754 C3774 0.950 . S
H3755 C3775 0.950 . S
H3756 C3777 0.950 . S
H3757 C3780 0.950 . S
H3758 C3781 0.950 . S
H3759 C3783 0.950 . S
H3760 C3784 0.950 . S
H3761 C3785 0.951 . S
H3762 C3787 0.951 . S
H3763 C3789 0.950 . S
H3764 C3790 0.950 . S
H3765 C3792 0.950 . S
H3766 C3795 0.950 . S
H3767 C3796 0.950 . S
H3768 C3798 0.950 . S
H3769 C3799 0.950 . S
C3770 H3752 0.951 . S
C3770 C3771 1.366 . S
C3770 C3772 1.388 . S
C3771 C3770 1.366 . S
C3771 C3775 1.385 . S
C3772 H3753 0.951 . S
C3772 C3770 1.388 . S
C3772 C3773 1.366 . S
C3773 C3772 1.366 . S
C3773 C3774 1.414 . S
C3773 C3776 1.499 . S
C3774 H3754 0.950 . S
C3774 C3773 1.414 . S
C3774 C3775 1.374 . S
C3775 H3755 0.950 . S
C3775 C3771 1.385 . S
C3775 C3774 1.374 . S
C3776 C3773 1.499 . S
C3776 C3777 1.373 . S
C3776 C3778 1.389 . S
C3777 H3756 0.950 . S
C3777 C3776 1.373 . S
C3777 C3793 1.377 . S
C3778 C3776 1.389 . S
C3778 C3779 1.524 . S
C3778 C3792 1.377 . S
C3779 C3778 1.524 . S
C3779 C3780 1.397 . S
C3779 C3784 1.363 . S
C3780 H3757 0.950 . S
C3780 C3779 1.397 . S
C3780 C3781 1.334 . S
C3781 H3758 0.950 . S
C3781 C3780 1.334 . S
C3781 C3782 1.287 . S
C3782 C3781 1.287 . S
C3782 C3783 1.524 . S
C3782 H3801 0.913 . S
C3783 H3759 0.950 . S
C3783 C3782 1.524 . S
C3783 C3784 1.415 . S
C3784 H3760 0.950 . S
C3784 C3779 1.363 . S
C3784 C3783 1.415 . S
C3785 H3761 0.951 . S
C3785 C3786 1.366 . S
C3785 C3787 1.388 . S
C3786 C3785 1.366 . S
C3786 C3790 1.385 . S
C3787 H3762 0.951 . S
C3787 C3785 1.388 . S
C3787 C3788 1.366 . S
C3788 C3787 1.366 . S
C3788 C3789 1.414 . S
C3788 C3791 1.499 . S
C3789 H3763 0.950 . S
C3789 C3788 1.414 . S
C3789 C3790 1.374 . S
C3790 H3764 0.950 . S
C3790 C3786 1.385 . S
C3790 C3789 1.374 . S
C3791 C3788 1.499 . S
C3791 C3792 1.373 . S
C3791 C3793 1.389 . S
C3792 H3765 0.950 . S
C3792 C3778 1.377 . S
C3792 C3791 1.373 . S
C3793 C3777 1.377 . S
C3793 C3791 1.389 . S
C3793 C3794 1.524 . S
C3794 C3793 1.524 . S
C3794 C3795 1.397 . S
C3794 C3799 1.363 . S
C3795 H3766 0.950 . S
C3795 C3794 1.397 . S
C3795 C3796 1.334 . S
C3796 H3767 0.950 . S
C3796 C3795 1.334 . S
C3796 C3797 1.287 . S
C3797 C3796 1.287 . S
C3797 C3798 1.524 . S
C3797 H3800 0.999 . S
C3798 H3768 0.950 . S
C3798 C3797 1.524 . S
C3798 C3799 1.415 . S
C3799 H3769 0.950 . S
C3799 C3794 1.363 . S
C3799 C3798 1.415 . S
H3800 C3797 0.999 . S
H3801 C3782 0.913 . S
H3802 C3820 0.951 . S
H3803 C3822 0.951 . S
H3804 C3824 0.950 . S
H3805 C3825 0.950 . S
H3806 C3827 0.950 . S
H3807 C3830 0.950 . S
H3808 C3831 0.950 . S
H3809 C3833 0.950 . S
H3810 C3834 0.950 . S
H3811 C3835 0.951 . S
H3812 C3837 0.951 . S
H3813 C3839 0.950 . S
H3814 C3840 0.950 . S
H3815 C3842 0.950 . S
H3816 C3845 0.950 . S
H3817 C3846 0.950 . S
H3818 C3848 0.950 . S
H3819 C3849 0.950 . S
C3820 H3802 0.951 . S
C3820 C3821 1.366 . S
C3820 C3822 1.388 1_554 S
C3821 C3820 1.366 . S
C3821 C3825 1.385 1_554 S
C3822 H3803 0.951 . S
C3822 C3820 1.388 1_556 S
C3822 C3823 1.366 . S
C3823 C3822 1.366 . S
C3823 C3824 1.414 . S
C3823 C3826 1.499 . S
C3824 H3804 0.950 . S
C3824 C3823 1.414 . S
C3824 C3825 1.374 . S
C3825 H3805 0.950 . S
C3825 C3821 1.385 1_556 S
C3825 C3824 1.374 . S
C3826 C3823 1.499 . S
C3826 C3827 1.373 . S
C3826 C3828 1.389 . S
C3827 H3806 0.950 . S
C3827 C3826 1.373 . S
C3827 C3843 1.377 . S
C3828 C3826 1.389 . S
C3828 C3829 1.524 . S
C3828 C3842 1.377 . S
C3829 C3828 1.524 . S
C3829 C3830 1.397 . S
C3829 C3834 1.363 . S
C3830 H3807 0.950 . S
C3830 C3829 1.397 . S
C3830 C3831 1.334 . S
C3831 H3808 0.950 . S
C3831 C3830 1.334 . S
C3831 C3832 1.287 . S
C3832 C3831 1.287 . S
C3832 C3833 1.524 . S
C3832 H3851 0.913 . S
C3833 H3809 0.950 . S
C3833 C3832 1.524 . S
C3833 C3834 1.415 . S
C3834 H3810 0.950 . S
C3834 C3829 1.363 . S
C3834 C3833 1.415 . S
C3835 H3811 0.951 . S
C3835 C3836 1.366 . S
C3835 C3837 1.388 . S
C3836 C3835 1.366 . S
C3836 C3840 1.385 . S
C3837 H3812 0.951 . S
C3837 C3835 1.388 . S
C3837 C3838 1.366 . S
C3838 C3837 1.366 . S
C3838 C3839 1.414 . S
C3838 C3841 1.499 . S
C3839 H3813 0.950 . S
C3839 C3838 1.414 . S
C3839 C3840 1.374 . S
C3840 H3814 0.950 . S
C3840 C3836 1.385 . S
C3840 C3839 1.374 . S
C3841 C3838 1.499 . S
C3841 C3842 1.373 . S
C3841 C3843 1.389 . S
C3842 H3815 0.950 . S
C3842 C3828 1.377 . S
C3842 C3841 1.373 . S
C3843 C3827 1.377 . S
C3843 C3841 1.389 . S
C3843 C3844 1.524 . S
C3844 C3843 1.524 . S
C3844 C3845 1.397 . S
C3844 C3849 1.363 . S
C3845 H3816 0.950 . S
C3845 C3844 1.397 . S
C3845 C3846 1.334 . S
C3846 H3817 0.950 . S
C3846 C3845 1.334 . S
C3846 C3847 1.287 . S
C3847 C3846 1.287 . S
C3847 C3848 1.524 . S
C3847 H3850 0.999 . S
C3848 H3818 0.950 . S
C3848 C3847 1.524 . S
C3848 C3849 1.415 . S
C3849 H3819 0.950 . S
C3849 C3844 1.363 . S
C3849 C3848 1.415 . S
H3850 C3847 0.999 . S
H3851 C3832 0.913 . S
H3852 C3870 0.951 . S
H3853 C3872 0.951 . S
H3854 C3874 0.950 . S
H3855 C3875 0.950 . S
H3856 C3877 0.950 . S
H3857 C3880 0.950 . S
H3858 C3881 0.950 . S
H3859 C3883 0.950 . S
H3860 C3884 0.950 . S
H3861 C3885 0.951 . S
H3862 C3887 0.951 . S
H3863 C3889 0.950 . S
H3864 C3890 0.950 . S
H3865 C3892 0.950 . S
H3866 C3895 0.950 . S
H3867 C3896 0.950 . S
H3868 C3898 0.950 . S
H3869 C3899 0.950 . S
C3870 H3852 0.951 . S
C3870 C3871 1.366 . S
C3870 C3872 1.388 . S
C3871 C3870 1.366 . S
C3871 C3875 1.385 . S
C3872 H3853 0.951 . S
C3872 C3870 1.388 . S
C3872 C3873 1.366 . S
C3873 C3872 1.366 . S
C3873 C3874 1.414 . S
C3873 C3876 1.499 . S
C3874 H3854 0.950 . S
C3874 C3873 1.414 . S
C3874 C3875 1.374 . S
C3875 H3855 0.950 . S
C3875 C3871 1.385 . S
C3875 C3874 1.374 . S
C3876 C3873 1.499 . S
C3876 C3877 1.373 . S
C3876 C3878 1.389 . S
C3877 H3856 0.950 . S
C3877 C3876 1.373 . S
C3877 C3893 1.377 . S
C3878 C3876 1.389 . S
C3878 C3879 1.524 . S
C3878 C3892 1.377 . S
C3879 C3878 1.524 . S
C3879 C3880 1.397 . S
C3879 C3884 1.363 . S
C3880 H3857 0.950 . S
C3880 C3879 1.397 . S
C3880 C3881 1.334 . S
C3881 H3858 0.950 . S
C3881 C3880 1.334 . S
C3881 C3882 1.287 . S
C3882 C3881 1.287 . S
C3882 C3883 1.524 . S
C3882 H3901 0.913 . S
C3883 H3859 0.950 . S
C3883 C3882 1.524 . S
C3883 C3884 1.415 . S
C3884 H3860 0.950 . S
C3884 C3879 1.363 . S
C3884 C3883 1.415 . S
C3885 H3861 0.951 . S
C3885 C3886 1.366 . S
C3885 C3887 1.388 . S
C3886 C3885 1.366 . S
C3886 C3890 1.385 . S
C3887 H3862 0.951 . S
C3887 C3885 1.388 . S
C3887 C3888 1.366 . S
C3888 C3887 1.366 . S
C3888 C3889 1.414 . S
C3888 C3891 1.499 . S
C3889 H3863 0.950 . S
C3889 C3888 1.414 . S
C3889 C3890 1.374 . S
C3890 H3864 0.950 . S
C3890 C3886 1.385 . S
C3890 C3889 1.374 . S
C3891 C3888 1.499 . S
C3891 C3892 1.373 . S
C3891 C3893 1.389 . S
C3892 H3865 0.950 . S
C3892 C3878 1.377 . S
C3892 C3891 1.373 . S
C3893 C3877 1.377 . S
C3893 C3891 1.389 . S
C3893 C3894 1.524 . S
C3894 C3893 1.524 . S
C3894 C3895 1.397 . S
C3894 C3899 1.363 . S
C3895 H3866 0.950 . S
C3895 C3894 1.397 . S
C3895 C3896 1.334 . S
C3896 H3867 0.950 . S
C3896 C3895 1.334 . S
C3896 C3897 1.287 . S
C3897 C3896 1.287 . S
C3897 C3898 1.524 . S
C3897 H3900 0.999 . S
C3898 H3868 0.950 . S
C3898 C3897 1.524 . S
C3898 C3899 1.415 . S
C3899 H3869 0.950 . S
C3899 C3894 1.363 . S
C3899 C3898 1.415 . S
H3900 C3897 0.999 . S
H3901 C3882 0.913 . S
H3902 C3920 0.951 . S
H3903 C3922 0.951 . S
H3904 C3924 0.950 . S
H3905 C3925 0.950 . S
H3906 C3927 0.950 . S
H3907 C3930 0.950 . S
H3908 C3931 0.950 . S
H3909 C3933 0.950 . S
H3910 C3934 0.950 . S
H3911 C3935 0.951 . S
H3912 C3937 0.951 . S
H3913 C3939 0.950 . S
H3914 C3940 0.950 . S
H3915 C3942 0.950 . S
H3916 C3945 0.950 . S
H3917 C3946 0.950 . S
H3918 C3948 0.950 . S
H3919 C3949 0.950 . S
C3920 H3902 0.951 . S
C3920 C3921 1.366 . S
C3920 C3922 1.388 . S
C3921 C3920 1.366 . S
C3921 C3925 1.385 . S
C3922 H3903 0.951 . S
C3922 C3920 1.388 . S
C3922 C3923 1.366 . S
C3923 C3922 1.366 . S
C3923 C3924 1.414 . S
C3923 C3926 1.499 . S
C3924 H3904 0.950 . S
C3924 C3923 1.414 . S
C3924 C3925 1.374 . S
C3925 H3905 0.950 . S
C3925 C3921 1.385 . S
C3925 C3924 1.374 . S
C3926 C3923 1.499 . S
C3926 C3927 1.373 . S
C3926 C3928 1.389 . S
C3927 H3906 0.950 . S
C3927 C3926 1.373 . S
C3927 C3943 1.377 . S
C3928 C3926 1.389 . S
C3928 C3929 1.524 . S
C3928 C3942 1.377 . S
C3929 C3928 1.524 . S
C3929 C3930 1.397 . S
C3929 C3934 1.363 . S
C3930 H3907 0.950 . S
C3930 C3929 1.397 . S
C3930 C3931 1.334 . S
C3931 H3908 0.950 . S
C3931 C3930 1.334 . S
C3931 C3932 1.287 . S
C3932 C3931 1.287 . S
C3932 C3933 1.524 . S
C3932 H3951 0.913 . S
C3933 H3909 0.950 . S
C3933 C3932 1.524 . S
C3933 C3934 1.415 . S
C3934 H3910 0.950 . S
C3934 C3929 1.363 . S
C3934 C3933 1.415 . S
C3935 H3911 0.951 . S
C3935 C3936 1.366 . S
C3935 C3937 1.388 . S
C3936 C3935 1.366 . S
C3936 C3940 1.385 . S
C3937 H3912 0.951 . S
C3937 C3935 1.388 . S
C3937 C3938 1.366 . S
C3938 C3937 1.366 . S
C3938 C3939 1.414 . S
C3938 C3941 1.499 . S
C3939 H3913 0.950 . S
C3939 C3938 1.414 . S
C3939 C3940 1.374 . S
C3940 H3914 0.950 . S
C3940 C3936 1.385 . S
C3940 C3939 1.374 . S
C3941 C3938 1.499 . S
C3941 C3942 1.373 . S
C3941 C3943 1.389 . S
C3942 H3915 0.950 . S
C3942 C3928 1.377 . S
C3942 C3941 1.373 . S
C3943 C3927 1.377 . S
C3943 C3941 1.389 . S
C3943 C3944 1.524 . S
C3944 C3943 1.524 . S
C3944 C3945 1.397 . S
C3944 C3949 1.363 . S
C3945 H3916 0.950 . S
C3945 C3944 1.397 . S
C3945 C3946 1.334 . S
C3946 H3917 0.950 . S
C3946 C3945 1.334 . S
C3946 C3947 1.287 . S
C3947 C3946 1.287 . S
C3947 C3948 1.524 . S
C3947 H3950 0.999 . S
C3948 H3918 0.950 . S
C3948 C3947 1.524 . S
C3948 C3949 1.415 . S
C3949 H3919 0.950 . S
C3949 C3944 1.363 . S
C3949 C3948 1.415 . S
H3950 C3947 0.999 . S
H3951 C3932 0.913 . S
H3952 C3970 0.951 . S
H3953 C3972 0.951 . S
H3954 C3974 0.950 . S
H3955 C3975 0.950 . S
H3956 C3977 0.950 . S
H3957 C3980 0.950 . S
H3958 C3981 0.950 . S
H3959 C3983 0.950 . S
H3960 C3984 0.950 . S
H3961 C3985 0.951 . S
H3962 C3987 0.951 . S
H3963 C3989 0.950 . S
H3964 C3990 0.950 . S
H3965 C3992 0.950 . S
H3966 C3995 0.950 . S
H3967 C3996 0.950 . S
H3968 C3998 0.950 . S
H3969 C3999 0.950 . S
C3970 H3952 0.951 . S
C3970 C3971 1.366 . S
C3970 C3972 1.388 . S
C3971 C3970 1.366 . S
C3971 C3975 1.385 . S
C3972 H3953 0.951 . S
C3972 C3970 1.388 . S
C3972 C3973 1.366 . S
C3973 C3972 1.366 . S
C3973 C3974 1.414 . S
C3973 C3976 1.499 . S
C3974 H3954 0.950 . S
C3974 C3973 1.414 . S
C3974 C3975 1.374 . S
C3975 H3955 0.950 . S
C3975 C3971 1.385 . S
C3975 C3974 1.374 . S
C3976 C3973 1.499 . S
C3976 C3977 1.373 . S
C3976 C3978 1.389 . S
C3977 H3956 0.950 . S
C3977 C3976 1.373 . S
C3977 C3993 1.377 . S
C3978 C3976 1.389 . S
C3978 C3979 1.524 . S
C3978 C3992 1.377 . S
C3979 C3978 1.524 . S
C3979 C3980 1.397 . S
C3979 C3984 1.363 . S
C3980 H3957 0.950 . S
C3980 C3979 1.397 . S
C3980 C3981 1.334 . S
C3981 H3958 0.950 . S
C3981 C3980 1.334 . S
C3981 C3982 1.287 . S
C3982 C3981 1.287 . S
C3982 C3983 1.524 . S
C3982 H4001 0.913 . S
C3983 H3959 0.950 . S
C3983 C3982 1.524 . S
C3983 C3984 1.415 . S
C3984 H3960 0.950 . S
C3984 C3979 1.363 . S
C3984 C3983 1.415 . S
C3985 H3961 0.951 . S
C3985 C3986 1.366 . S
C3985 C3987 1.388 . S
C3986 C3985 1.366 . S
C3986 C3990 1.385 . S
C3987 H3962 0.951 . S
C3987 C3985 1.388 . S
C3987 C3988 1.366 . S
C3988 C3987 1.366 . S
C3988 C3989 1.414 . S
C3988 C3991 1.499 . S
C3989 H3963 0.950 . S
C3989 C3988 1.414 . S
C3989 C3990 1.374 . S
C3990 H3964 0.950 . S
C3990 C3986 1.385 . S
C3990 C3989 1.374 . S
C3991 C3988 1.499 . S
C3991 C3992 1.373 . S
C3991 C3993 1.389 . S
C3992 H3965 0.950 . S
C3992 C3978 1.377 . S
C3992 C3991 1.373 . S
C3993 C3977 1.377 . S
C3993 C3991 1.389 . S
C3993 C3994 1.524 . S
C3994 C3993 1.524 . S
C3994 C3995 1.397 . S
C3994 C3999 1.363 . S
C3995 H3966 0.950 . S
C3995 C3994 1.397 . S
C3995 C3996 1.334 . S
C3996 H3967 0.950 . S
C3996 C3995 1.334 . S
C3996 C3997 1.287 . S
C3997 C3996 1.287 . S
C3997 C3998 1.524 . S
C3997 H4000 0.999 . S
C3998 H3968 0.950 . S
C3998 C3997 1.524 . S
C3998 C3999 1.415 . S
C3999 H3969 0.950 . S
C3999 C3994 1.363 . S
C3999 C3998 1.415 . S
H4000 C3997 0.999 . S
H4001 C3982 0.913 . S
H4002 C4020 0.951 . S
H4003 C4022 0.951 . S
H4004 C4024 0.950 . S
H4005 C4025 0.950 . S
H4006 C4027 0.950 . S
H4007 C4030 0.950 . S
H4008 C4031 0.950 . S
H4009 C4033 0.950 . S
H4010 C4034 0.950 . S
H4011 C4035 0.951 . S
H4012 C4037 0.951 . S
H4013 C4039 0.950 . S
H4014 C4040 0.950 . S
H4015 C4042 0.950 . S
H4016 C4045 0.950 . S
H4017 C4046 0.950 . S
H4018 C4048 0.950 . S
H4019 C4049 0.950 . S
C4020 H4002 0.951 . S
C4020 C4021 1.366 . S
C4020 C4022 1.388 . S
C4021 C4020 1.366 . S
C4021 C4025 1.385 . S
C4022 H4003 0.951 . S
C4022 C4020 1.388 . S
C4022 C4023 1.366 . S
C4023 C4022 1.366 . S
C4023 C4024 1.414 . S
C4023 C4026 1.499 . S
C4024 H4004 0.950 . S
C4024 C4023 1.414 . S
C4024 C4025 1.374 . S
C4025 H4005 0.950 . S
C4025 C4021 1.385 . S
C4025 C4024 1.374 . S
C4026 C4023 1.499 . S
C4026 C4027 1.373 . S
C4026 C4028 1.389 . S
C4027 H4006 0.950 . S
C4027 C4026 1.373 . S
C4027 C4043 1.377 . S
C4028 C4026 1.389 . S
C4028 C4029 1.524 . S
C4028 C4042 1.377 . S
C4029 C4028 1.524 . S
C4029 C4030 1.397 . S
C4029 C4034 1.363 . S
C4030 H4007 0.950 . S
C4030 C4029 1.397 . S
C4030 C4031 1.334 . S
C4031 H4008 0.950 . S
C4031 C4030 1.334 . S
C4031 C4032 1.287 . S
C4032 C4031 1.287 . S
C4032 C4033 1.524 . S
C4032 H4051 0.913 . S
C4033 H4009 0.950 . S
C4033 C4032 1.524 . S
C4033 C4034 1.415 . S
C4034 H4010 0.950 . S
C4034 C4029 1.363 . S
C4034 C4033 1.415 . S
C4035 H4011 0.951 . S
C4035 C4036 1.366 . S
C4035 C4037 1.388 . S
C4036 C4035 1.366 . S
C4036 C4040 1.385 . S
C4037 H4012 0.951 . S
C4037 C4035 1.388 . S
C4037 C4038 1.366 . S
C4038 C4037 1.366 . S
C4038 C4039 1.414 . S
C4038 C4041 1.499 . S
C4039 H4013 0.950 . S
C4039 C4038 1.414 . S
C4039 C4040 1.374 . S
C4040 H4014 0.950 . S
C4040 C4036 1.385 . S
C4040 C4039 1.374 . S
C4041 C4038 1.499 . S
C4041 C4042 1.373 . S
C4041 C4043 1.389 . S
C4042 H4015 0.950 . S
C4042 C4028 1.377 . S
C4042 C4041 1.373 . S
C4043 C4027 1.377 . S
C4043 C4041 1.389 . S
C4043 C4044 1.524 . S
C4044 C4043 1.524 . S
C4044 C4045 1.397 . S
C4044 C4049 1.363 . S
C4045 H4016 0.950 . S
C4045 C4044 1.397 . S
C4045 C4046 1.334 . S
C4046 H4017 0.950 . S
C4046 C4045 1.334 . S
C4046 C4047 1.287 . S
C4047 C4046 1.287 . S
C4047 C4048 1.524 . S
C4047 H4050 0.999 . S
C4048 H4018 0.950 . S
C4048 C4047 1.524 . S
C4048 C4049 1.415 . S
C4049 H4019 0.950 . S
C4049 C4044 1.363 . S
C4049 C4048 1.415 . S
H4050 C4047 0.999 . S
H4051 C4032 0.913 . S
H4052 C4070 0.951 . S
H4053 C4072 0.951 . S
H4054 C4074 0.950 . S
H4055 C4075 0.950 . S
H4056 C4077 0.950 . S
H4057 C4080 0.950 . S
H4058 C4081 0.950 . S
H4059 C4083 0.950 . S
H4060 C4084 0.950 . S
H4061 C4085 0.951 . S
H4062 C4087 0.951 . S
H4063 C4089 0.950 . S
H4064 C4090 0.950 . S
H4065 C4092 0.950 . S
H4066 C4095 0.950 . S
H4067 C4096 0.950 . S
H4068 C4098 0.950 . S
H4069 C4099 0.950 . S
C4070 H4052 0.951 . S
C4070 C4071 1.366 . S
C4070 C4072 1.388 . S
C4071 C4070 1.366 . S
C4071 C4075 1.385 . S
C4072 H4053 0.951 . S
C4072 C4070 1.388 . S
C4072 C4073 1.366 . S
C4073 C4072 1.366 . S
C4073 C4074 1.414 . S
C4073 C4076 1.499 . S
C4074 H4054 0.950 . S
C4074 C4073 1.414 . S
C4074 C4075 1.374 . S
C4075 H4055 0.950 . S
C4075 C4071 1.385 . S
C4075 C4074 1.374 . S
C4076 C4073 1.499 . S
C4076 C4077 1.373 . S
C4076 C4078 1.389 . S
C4077 H4056 0.950 . S
C4077 C4076 1.373 . S
C4077 C4093 1.377 . S
C4078 C4076 1.389 . S
C4078 C4079 1.524 . S
C4078 C4092 1.377 . S
C4079 C4078 1.524 . S
C4079 C4080 1.397 . S
C4079 C4084 1.363 . S
C4080 H4057 0.950 . S
C4080 C4079 1.397 . S
C4080 C4081 1.334 . S
C4081 H4058 0.950 . S
C4081 C4080 1.334 . S
C4081 C4082 1.287 . S
C4082 C4081 1.287 . S
C4082 C4083 1.524 . S
C4082 H4101 0.913 . S
C4083 H4059 0.950 . S
C4083 C4082 1.524 . S
C4083 C4084 1.415 . S
C4084 H4060 0.950 . S
C4084 C4079 1.363 . S
C4084 C4083 1.415 . S
C4085 H4061 0.951 . S
C4085 C4086 1.366 . S
C4085 C4087 1.388 . S
C4086 C4085 1.366 . S
C4086 C4090 1.385 . S
C4087 H4062 0.951 . S
C4087 C4085 1.388 . S
C4087 C4088 1.366 . S
C4088 C4087 1.366 . S
C4088 C4089 1.414 . S
C4088 C4091 1.499 . S
C4089 H4063 0.950 . S
C4089 C4088 1.414 . S
C4089 C4090 1.374 . S
C4090 H4064 0.950 . S
C4090 C4086 1.385 . S
C4090 C4089 1.374 . S
C4091 C4088 1.499 . S
C4091 C4092 1.373 . S
C4091 C4093 1.389 . S
C4092 H4065 0.950 . S
C4092 C4078 1.377 . S
C4092 C4091 1.373 . S
C4093 C4077 1.377 . S
C4093 C4091 1.389 . S
C4093 C4094 1.524 . S
C4094 C4093 1.524 . S
C4094 C4095 1.397 . S
C4094 C4099 1.363 . S
C4095 H4066 0.950 . S
C4095 C4094 1.397 . S
C4095 C4096 1.334 . S
C4096 H4067 0.950 . S
C4096 C4095 1.334 . S
C4096 C4097 1.287 . S
C4097 C4096 1.287 . S
C4097 C4098 1.524 . S
C4097 H4100 0.999 . S
C4098 H4068 0.950 . S
C4098 C4097 1.524 . S
C4098 C4099 1.415 . S
C4099 H4069 0.950 . S
C4099 C4094 1.363 . S
C4099 C4098 1.415 . S
H4100 C4097 0.999 . S
H4101 C4082 0.913 . S
H4102 C4120 0.951 . S
H4103 C4122 0.951 . S
H4104 C4124 0.950 . S
H4105 C4125 0.950 . S
H4106 C4127 0.950 . S
H4107 C4130 0.950 . S
H4108 C4131 0.950 . S
H4109 C4133 0.950 . S
H4110 C4134 0.950 . S
H4111 C4135 0.951 . S
H4112 C4137 0.951 . S
H4113 C4139 0.950 . S
H4114 C4140 0.950 . S
H4115 C4142 0.950 . S
H4116 C4145 0.950 . S
H4117 C4146 0.950 . S
H4118 C4148 0.950 . S
H4119 C4149 0.950 . S
C4120 H4102 0.951 . S
C4120 C4121 1.366 . S
C4120 C4122 1.388 . S
C4121 C4120 1.366 . S
C4121 C4125 1.385 . S
C4122 H4103 0.951 . S
C4122 C4120 1.388 . S
C4122 C4123 1.366 . S
C4123 C4122 1.366 . S
C4123 C4124 1.414 . S
C4123 C4126 1.499 . S
C4124 H4104 0.950 . S
C4124 C4123 1.414 . S
C4124 C4125 1.374 . S
C4125 H4105 0.950 . S
C4125 C4121 1.385 . S
C4125 C4124 1.374 . S
C4126 C4123 1.499 . S
C4126 C4127 1.373 . S
C4126 C4128 1.389 . S
C4127 H4106 0.950 . S
C4127 C4126 1.373 . S
C4127 C4143 1.377 . S
C4128 C4126 1.389 . S
C4128 C4129 1.524 . S
C4128 C4142 1.377 . S
C4129 C4128 1.524 . S
C4129 C4130 1.397 . S
C4129 C4134 1.363 . S
C4130 H4107 0.950 . S
C4130 C4129 1.397 . S
C4130 C4131 1.334 . S
C4131 H4108 0.950 . S
C4131 C4130 1.334 . S
C4131 C4132 1.287 . S
C4132 C4131 1.287 . S
C4132 C4133 1.524 . S
C4132 H4151 0.913 . S
C4133 H4109 0.950 . S
C4133 C4132 1.524 . S
C4133 C4134 1.415 . S
C4134 H4110 0.950 . S
C4134 C4129 1.363 . S
C4134 C4133 1.415 . S
C4135 H4111 0.951 . S
C4135 C4136 1.366 . S
C4135 C4137 1.388 . S
C4136 C4135 1.366 . S
C4136 C4140 1.385 . S
C4137 H4112 0.951 . S
C4137 C4135 1.388 . S
C4137 C4138 1.366 . S
C4138 C4137 1.366 . S
C4138 C4139 1.414 . S
C4138 C4141 1.499 . S
C4139 H4113 0.950 . S
C4139 C4138 1.414 . S
C4139 C4140 1.374 . S
C4140 H4114 0.950 . S
C4140 C4136 1.385 . S
C4140 C4139 1.374 . S
C4141 C4138 1.499 . S
C4141 C4142 1.373 . S
C4141 C4143 1.389 . S
C4142 H4115 0.950 . S
C4142 C4128 1.377 . S
C4142 C4141 1.373 . S
C4143 C4127 1.377 . S
C4143 C4141 1.389 . S
C4143 C4144 1.524 . S
C4144 C4143 1.524 . S
C4144 C4145 1.397 . S
C4144 C4149 1.363 . S
C4145 H4116 0.950 . S
C4145 C4144 1.397 . S
C4145 C4146 1.334 . S
C4146 H4117 0.950 . S
C4146 C4145 1.334 . S
C4146 C4147 1.287 . S
C4147 C4146 1.287 . S
C4147 C4148 1.524 . S
C4147 H4150 0.999 . S
C4148 H4118 0.950 . S
C4148 C4147 1.524 . S
C4148 C4149 1.415 . S
C4149 H4119 0.950 . S
C4149 C4144 1.363 . S
C4149 C4148 1.415 . S
H4150 C4147 0.999 . S
H4151 C4132 0.913 . S
H4152 C4170 0.951 . S
H4153 C4172 0.951 . S
H4154 C4174 0.950 . S
H4155 C4175 0.950 . S
H4156 C4177 0.950 . S
H4157 C4180 0.950 . S
H4158 C4181 0.950 . S
H4159 C4183 0.950 . S
H4160 C4184 0.950 . S
H4161 C4185 0.951 . S
H4162 C4187 0.951 . S
H4163 C4189 0.950 . S
H4164 C4190 0.950 . S
H4165 C4192 0.950 . S
H4166 C4195 0.950 . S
H4167 C4196 0.950 . S
H4168 C4198 0.950 . S
H4169 C4199 0.950 . S
C4170 H4152 0.951 . S
C4170 C4171 1.366 . S
C4170 C4172 1.388 . S
C4171 C4170 1.366 . S
C4171 C4175 1.385 . S
C4172 H4153 0.951 . S
C4172 C4170 1.388 . S
C4172 C4173 1.366 . S
C4173 C4172 1.366 . S
C4173 C4174 1.414 . S
C4173 C4176 1.499 . S
C4174 H4154 0.950 . S
C4174 C4173 1.414 . S
C4174 C4175 1.374 . S
C4175 H4155 0.950 . S
C4175 C4171 1.385 . S
C4175 C4174 1.374 . S
C4176 C4173 1.499 . S
C4176 C4177 1.373 . S
C4176 C4178 1.389 . S
C4177 H4156 0.950 . S
C4177 C4176 1.373 . S
C4177 C4193 1.377 . S
C4178 C4176 1.389 . S
C4178 C4179 1.524 . S
C4178 C4192 1.377 . S
C4179 C4178 1.524 . S
C4179 C4180 1.397 . S
C4179 C4184 1.363 . S
C4180 H4157 0.950 . S
C4180 C4179 1.397 . S
C4180 C4181 1.334 . S
C4181 H4158 0.950 . S
C4181 C4180 1.334 . S
C4181 C4182 1.287 . S
C4182 C4181 1.287 . S
C4182 C4183 1.524 . S
C4182 H4201 0.913 . S
C4183 H4159 0.950 . S
C4183 C4182 1.524 . S
C4183 C4184 1.415 . S
C4184 H4160 0.950 . S
C4184 C4179 1.363 . S
C4184 C4183 1.415 . S
C4185 H4161 0.951 . S
C4185 C4186 1.366 . S
C4185 C4187 1.388 . S
C4186 C4185 1.366 . S
C4186 C4190 1.385 . S
C4187 H4162 0.951 . S
C4187 C4185 1.388 . S
C4187 C4188 1.366 . S
C4188 C4187 1.366 . S
C4188 C4189 1.414 . S
C4188 C4191 1.499 . S
C4189 H4163 0.950 . S
C4189 C4188 1.414 . S
C4189 C4190 1.374 . S
C4190 H4164 0.950 . S
C4190 C4186 1.385 . S
C4190 C4189 1.374 . S
C4191 C4188 1.499 . S
C4191 C4192 1.373 . S
C4191 C4193 1.389 . S
C4192 H4165 0.950 . S
C4192 C4178 1.377 . S
C4192 C4191 1.373 . S
C4193 C4177 1.377 . S
C4193 C4191 1.389 . S
C4193 C4194 1.524 . S
C4194 C4193 1.524 . S
C4194 C4195 1.397 . S
C4194 C4199 1.363 . S
C4195 H4166 0.950 . S
C4195 C4194 1.397 . S
C4195 C4196 1.334 . S
C4196 H4167 0.950 . S
C4196 C4195 1.334 . S
C4196 C4197 1.287 . S
C4197 C4196 1.287 . S
C4197 C4198 1.524 . S
C4197 H4200 0.999 . S
C4198 H4168 0.950 . S
C4198 C4197 1.524 . S
C4198 C4199 1.415 . S
C4199 H4169 0.950 . S
C4199 C4194 1.363 . S
C4199 C4198 1.415 . S
H4200 C4197 0.999 . S
H4201 C4182 0.913 . S
H4202 C4220 0.951 . S
H4203 C4222 0.951 . S
H4204 C4224 0.950 . S
H4205 C4225 0.950 . S
H4206 C4227 0.950 . S
H4207 C4230 0.950 . S
H4208 C4231 0.950 . S
H4209 C4233 0.950 . S
H4210 C4234 0.950 . S
H4211 C4235 0.951 . S
H4212 C4237 0.951 . S
H4213 C4239 0.950 . S
H4214 C4240 0.950 . S
H4215 C4242 0.950 . S
H4216 C4245 0.950 . S
H4217 C4246 0.950 . S
H4218 C4248 0.950 . S
H4219 C4249 0.950 . S
C4220 H4202 0.951 . S
C4220 C4221 1.366 . S
C4220 C4222 1.388 . S
C4221 C4220 1.366 . S
C4221 C4225 1.385 . S
C4222 H4203 0.951 . S
C4222 C4220 1.388 . S
C4222 C4223 1.366 . S
C4223 C4222 1.366 . S
C4223 C4224 1.414 . S
C4223 C4226 1.499 . S
C4224 H4204 0.950 . S
C4224 C4223 1.414 . S
C4224 C4225 1.374 . S
C4225 H4205 0.950 . S
C4225 C4221 1.385 . S
C4225 C4224 1.374 . S
C4226 C4223 1.499 . S
C4226 C4227 1.373 . S
C4226 C4228 1.389 . S
C4227 H4206 0.950 . S
C4227 C4226 1.373 . S
C4227 C4243 1.377 . S
C4228 C4226 1.389 . S
C4228 C4229 1.524 . S
C4228 C4242 1.377 . S
C4229 C4228 1.524 . S
C4229 C4230 1.397 . S
C4229 C4234 1.363 . S
C4230 H4207 0.950 . S
C4230 C4229 1.397 . S
C4230 C4231 1.334 . S
C4231 H4208 0.950 . S
C4231 C4230 1.334 . S
C4231 C4232 1.287 . S
C4232 C4231 1.287 . S
C4232 C4233 1.524 . S
C4232 H4251 0.913 . S
C4233 H4209 0.950 . S
C4233 C4232 1.524 . S
C4233 C4234 1.415 . S
C4234 H4210 0.950 . S
C4234 C4229 1.363 . S
C4234 C4233 1.415 . S
C4235 H4211 0.951 . S
C4235 C4236 1.366 . S
C4235 C4237 1.388 . S
C4236 C4235 1.366 . S
C4236 C4240 1.385 . S
C4237 H4212 0.951 . S
C4237 C4235 1.388 . S
C4237 C4238 1.366 . S
C4238 C4237 1.366 . S
C4238 C4239 1.414 . S
C4238 C4241 1.499 . S
C4239 H4213 0.950 . S
C4239 C4238 1.414 . S
C4239 C4240 1.374 . S
C4240 H4214 0.950 . S
C4240 C4236 1.385 . S
C4240 C4239 1.374 . S
C4241 C4238 1.499 . S
C4241 C4242 1.373 . S
C4241 C4243 1.389 . S
C4242 H4215 0.950 . S
C4242 C4228 1.377 . S
C4242 C4241 1.373 . S
C4243 C4227 1.377 . S
C4243 C4241 1.389 . S
C4243 C4244 1.524 . S
C4244 C4243 1.524 . S
C4244 C4245 1.397 . S
C4244 C4249 1.363 . S
C4245 H4216 0.950 . S
C4245 C4244 1.397 . S
C4245 C4246 1.334 . S
C4246 H4217 0.950 . S
C4246 C4245 1.334 . S
C4246 C4247 1.287 . S
C4247 C4246 1.287 . S
C4247 C4248 1.524 . S
C4247 H4250 0.999 . S
C4248 H4218 0.950 . S
C4248 C4247 1.524 . S
C4248 C4249 1.415 . S
C4249 H4219 0.950 . S
C4249 C4244 1.363 . S
C4249 C4248 1.415 . S
H4250 C4247 0.999 . S
H4251 C4232 0.913 . S
H4252 C4270 0.951 . S
H4253 C4272 0.951 . S
H4254 C4274 0.950 . S
H4255 C4275 0.950 1_545 S
H4256 C4277 0.950 . S
H4257 C4280 0.950 . S
H4258 C4281 0.950 . S
H4259 C4283 0.950 . S
H4260 C4284 0.950 . S
H4261 C4285 0.951 . S
H4262 C4287 0.951 . S
H4263 C4289 0.950 . S
H4264 C4290 0.950 . S
H4265 C4292 0.950 . S
H4266 C4295 0.950 . S
H4267 C4296 0.950 . S
H4268 C4298 0.950 . S
H4269 C4299 0.950 . S
C4270 H4252 0.951 . S
C4270 C4271 1.366 . S
C4270 C4272 1.388 . S
C4271 C4270 1.366 . S
C4271 C4275 1.385 . S
C4272 H4253 0.951 . S
C4272 C4270 1.388 . S
C4272 C4273 1.366 . S
C4273 C4272 1.366 . S
C4273 C4274 1.414 . S
C4273 C4276 1.499 . S
C4274 H4254 0.950 . S
C4274 C4273 1.414 . S
C4274 C4275 1.374 . S
C4275 H4255 0.950 1_565 S
C4275 C4271 1.385 . S
C4275 C4274 1.374 . S
C4276 C4273 1.499 . S
C4276 C4277 1.373 . S
C4276 C4278 1.389 . S
C4277 H4256 0.950 . S
C4277 C4276 1.373 . S
C4277 C4293 1.377 . S
C4278 C4276 1.389 . S
C4278 C4279 1.524 . S
C4278 C4292 1.377 . S
C4279 C4278 1.524 . S
C4279 C4280 1.397 . S
C4279 C4284 1.363 . S
C4280 H4257 0.950 . S
C4280 C4279 1.397 . S
C4280 C4281 1.334 . S
C4281 H4258 0.950 . S
C4281 C4280 1.334 . S
C4281 C4282 1.287 . S
C4282 C4281 1.287 . S
C4282 C4283 1.524 . S
C4282 H4301 0.913 . S
C4283 H4259 0.950 . S
C4283 C4282 1.524 . S
C4283 C4284 1.415 . S
C4284 H4260 0.950 . S
C4284 C4279 1.363 . S
C4284 C4283 1.415 . S
C4285 H4261 0.951 . S
C4285 C4286 1.366 . S
C4285 C4287 1.388 . S
C4286 C4285 1.366 . S
C4286 C4290 1.385 . S
C4287 H4262 0.951 . S
C4287 C4285 1.388 . S
C4287 C4288 1.366 . S
C4288 C4287 1.366 . S
C4288 C4289 1.414 . S
C4288 C4291 1.499 . S
C4289 H4263 0.950 . S
C4289 C4288 1.414 . S
C4289 C4290 1.374 . S
C4290 H4264 0.950 . S
C4290 C4286 1.385 . S
C4290 C4289 1.374 . S
C4291 C4288 1.499 . S
C4291 C4292 1.373 . S
C4291 C4293 1.389 . S
C4292 H4265 0.950 . S
C4292 C4278 1.377 . S
C4292 C4291 1.373 . S
C4293 C4277 1.377 . S
C4293 C4291 1.389 . S
C4293 C4294 1.524 . S
C4294 C4293 1.524 . S
C4294 C4295 1.397 . S
C4294 C4299 1.363 . S
C4295 H4266 0.950 . S
C4295 C4294 1.397 . S
C4295 C4296 1.334 . S
C4296 H4267 0.950 . S
C4296 C4295 1.334 . S
C4296 C4297 1.287 . S
C4297 C4296 1.287 . S
C4297 C4298 1.524 . S
C4297 H4300 0.999 . S
C4298 H4268 0.950 . S
C4298 C4297 1.524 . S
C4298 C4299 1.415 . S
C4299 H4269 0.950 . S
C4299 C4294 1.363 . S
C4299 C4298 1.415 . S
H4300 C4297 0.999 . S
H4301 C4282 0.913 . S
H4302 C4320 0.951 . S
H4303 C4322 0.951 . S
H4304 C4324 0.950 . S
H4305 C4325 0.950 . S
H4306 C4327 0.950 . S
H4307 C4330 0.950 . S
H4308 C4331 0.950 1_565 S
H4309 C4333 0.950 . S
H4310 C4334 0.912 1_554 S
H4311 C4335 0.951 . S
H4312 C4337 0.951 . S
H4313 C4339 0.950 . S
H4314 C4340 0.950 . S
H4315 C4342 0.950 1_545 S
H4316 C4345 0.950 . S
H4317 C4346 0.950 . S
H4318 C4348 0.950 . S
H4319 C4349 0.950 . S
C4320 H4302 0.951 . S
C4320 C4321 1.366 . S
C4320 C4322 1.388 . S
C4321 C4320 1.366 . S
C4321 C4325 1.385 1_554 S
C4322 H4303 0.951 . S
C4322 C4320 1.388 . S
C4322 C4323 1.366 . S
C4323 C4322 1.366 . S
C4323 C4324 1.414 1_554 S
C4323 C4326 1.499 . S
C4324 H4304 0.950 . S
C4324 C4323 1.414 1_556 S
C4324 C4325 1.374 . S
C4325 H4305 0.950 . S
C4325 C4321 1.385 1_556 S
C4325 C4324 1.374 . S
C4326 C4323 1.499 . S
C4326 C4327 1.373 . S
C4326 C4328 1.389 . S
C4327 H4306 0.950 . S
C4327 C4326 1.373 . S
C4327 C4343 1.377 . S
C4328 C4326 1.389 . S
C4328 C4329 1.524 1_564 S
C4328 C4342 1.377 . S
C4329 C4328 1.524 1_546 S
C4329 C4330 1.397 1_545 S
C4329 C4334 1.375 . S
C4330 H4307 0.950 . S
C4330 C4329 1.397 1_565 S
C4330 C4331 1.334 1_565 S
C4331 H4308 0.950 1_545 S
C4331 C4330 1.334 1_545 S
C4331 C4332 1.287 . S
C4332 C4331 1.287 . S
C4332 C4333 1.524 . S
C4332 H4351 0.913 . S
C4333 H4309 0.950 . S
C4333 C4332 1.524 . S
C4333 C4334 1.442 . S
C4334 H4310 0.912 1_556 S
C4334 C4329 1.375 . S
C4334 C4333 1.442 . S
C4335 H4311 0.951 . S
C4335 C4336 1.366 1_565 S
C4335 C4337 1.388 . S
C4336 C4335 1.366 1_545 S
C4336 C4340 1.385 . S
C4337 H4312 0.951 . S
C4337 C4335 1.388 . S
C4337 C4338 1.366 . S
C4338 C4337 1.366 . S
C4338 C4339 1.414 1_565 S
C4338 C4341 1.499 . S
C4339 H4313 0.950 . S
C4339 C4338 1.414 1_545 S
C4339 C4340 1.374 . S
C4340 H4314 0.950 . S
C4340 C4336 1.385 . S
C4340 C4339 1.374 . S
C4341 C4338 1.499 . S
C4341 C4342 1.373 . S
C4341 C4343 1.389 . S
C4342 H4315 0.950 1_565 S
C4342 C4328 1.377 . S
C4342 C4341 1.373 . S
C4343 C4327 1.377 . S
C4343 C4341 1.389 . S
C4343 C4344 1.524 . S
C4344 C4343 1.524 . S
C4344 C4345 1.397 . S
C4344 C4349 1.363 . S
C4345 H4316 0.950 . S
C4345 C4344 1.397 . S
C4345 C4346 1.334 . S
C4346 H4317 0.950 . S
C4346 C4345 1.334 . S
C4346 C4347 1.287 . S
C4347 C4346 1.287 . S
C4347 C4348 1.524 . S
C4347 H4350 0.999 . S
C4348 H4318 0.950 . S
C4348 C4347 1.524 . S
C4348 C4349 1.415 . S
C4349 H4319 0.950 . S
C4349 C4344 1.363 . S
C4349 C4348 1.415 . S
H4350 C4347 0.999 . S
H4351 C4332 0.913 . S
H4352 C4370 0.951 . S
H4353 C4372 0.951 . S
H4354 C4374 0.950 . S
H4355 C4375 0.950 . S
H4356 C4377 0.950 . S
H4357 C4380 0.950 . S
H4358 C4381 0.950 . S
H4359 C4383 0.950 . S
H4360 C4384 0.950 . S
H4361 C4385 0.951 . S
H4362 C4387 0.951 . S
H4363 C4389 0.950 . S
H4364 C4390 0.950 . S
H4365 C4392 0.950 . S
H4366 C4395 0.950 . S
H4367 C4396 0.950 . S
H4368 C4398 0.950 . S
H4369 C4399 0.950 . S
C4370 H4352 0.951 . S
C4370 C4371 1.366 . S
C4370 C4372 1.388 . S
C4371 C4370 1.366 . S
C4371 C4375 1.385 . S
C4372 H4353 0.951 . S
C4372 C4370 1.388 . S
C4372 C4373 1.366 . S
C4373 C4372 1.366 . S
C4373 C4374 1.414 . S
C4373 C4376 1.499 . S
C4374 H4354 0.950 . S
C4374 C4373 1.414 . S
C4374 C4375 1.374 . S
C4375 H4355 0.950 . S
C4375 C4371 1.385 . S
C4375 C4374 1.374 . S
C4376 C4373 1.499 . S
C4376 C4377 1.373 . S
C4376 C4378 1.389 . S
C4377 H4356 0.950 . S
C4377 C4376 1.373 . S
C4377 C4393 1.377 . S
C4378 C4376 1.389 . S
C4378 C4379 1.524 . S
C4378 C4392 1.377 . S
C4379 C4378 1.524 . S
C4379 C4380 1.397 . S
C4379 C4384 1.363 . S
C4380 H4357 0.950 . S
C4380 C4379 1.397 . S
C4380 C4381 1.334 . S
C4381 H4358 0.950 . S
C4381 C4380 1.334 . S
C4381 C4382 1.287 . S
C4382 C4381 1.287 . S
C4382 C4383 1.524 . S
C4382 H4401 0.913 . S
C4383 H4359 0.950 . S
C4383 C4382 1.524 . S
C4383 C4384 1.415 . S
C4384 H4360 0.950 . S
C4384 C4379 1.363 . S
C4384 C4383 1.415 . S
C4385 H4361 0.951 . S
C4385 C4386 1.366 . S
C4385 C4387 1.388 . S
C4386 C4385 1.366 . S
C4386 C4390 1.385 . S
C4387 H4362 0.951 . S
C4387 C4385 1.388 . S
C4387 C4388 1.366 . S
C4388 C4387 1.366 . S
C4388 C4389 1.414 . S
C4388 C4391 1.499 . S
C4389 H4363 0.950 . S
C4389 C4388 1.414 . S
C4389 C4390 1.374 . S
C4390 H4364 0.950 . S
C4390 C4386 1.385 . S
C4390 C4389 1.374 . S
C4391 C4388 1.499 . S
C4391 C4392 1.373 . S
C4391 C4393 1.389 . S
C4392 H4365 0.950 . S
C4392 C4378 1.377 . S
C4392 C4391 1.373 . S
C4393 C4377 1.377 . S
C4393 C4391 1.389 . S
C4393 C4394 1.524 . S
C4394 C4393 1.524 . S
C4394 C4395 1.397 . S
C4394 C4399 1.363 . S
C4395 H4366 0.950 . S
C4395 C4394 1.397 . S
C4395 C4396 1.334 . S
C4396 H4367 0.950 . S
C4396 C4395 1.334 . S
C4396 C4397 1.287 . S
C4397 C4396 1.287 . S
C4397 C4398 1.524 . S
C4397 H4400 0.999 . S
C4398 H4368 0.950 . S
C4398 C4397 1.524 . S
C4398 C4399 1.415 . S
C4399 H4369 0.950 . S
C4399 C4394 1.363 . S
C4399 C4398 1.415 . S
H4400 C4397 0.999 . S
H4401 C4382 0.913 . S
H4402 C4420 0.951 . S
H4403 C4422 0.951 . S
H4404 C4424 0.950 . S
H4405 C4425 0.950 . S
H4406 C4427 0.950 . S
H4407 C4430 0.950 . S
H4408 C4431 0.950 . S
H4409 C4433 0.950 . S
H4410 C4434 0.950 . S
H4411 C4435 0.951 . S
H4412 C4437 0.951 . S
H4413 C4439 0.950 . S
H4414 C4440 0.950 . S
H4415 C4442 0.950 . S
H4416 C4445 0.950 . S
H4417 C4446 0.950 . S
H4418 C4448 0.950 . S
H4419 C4449 0.950 . S
C4420 H4402 0.951 . S
C4420 C4421 1.366 . S
C4420 C4422 1.388 . S
C4421 C4420 1.366 . S
C4421 C4425 1.385 . S
C4422 H4403 0.951 . S
C4422 C4420 1.388 . S
C4422 C4423 1.366 . S
C4423 C4422 1.366 . S
C4423 C4424 1.414 . S
C4423 C4426 1.499 . S
C4424 H4404 0.950 . S
C4424 C4423 1.414 . S
C4424 C4425 1.374 . S
C4425 H4405 0.950 . S
C4425 C4421 1.385 . S
C4425 C4424 1.374 . S
C4426 C4423 1.499 . S
C4426 C4427 1.373 . S
C4426 C4428 1.389 . S
C4427 H4406 0.950 . S
C4427 C4426 1.373 . S
C4427 C4443 1.377 . S
C4428 C4426 1.389 . S
C4428 C4429 1.524 . S
C4428 C4442 1.377 . S
C4429 C4428 1.524 . S
C4429 C4430 1.397 . S
C4429 C4434 1.363 . S
C4430 H4407 0.950 . S
C4430 C4429 1.397 . S
C4430 C4431 1.334 . S
C4431 H4408 0.950 . S
C4431 C4430 1.334 . S
C4431 C4432 1.287 . S
C4432 C4431 1.287 . S
C4432 C4433 1.524 . S
C4432 H4451 0.913 . S
C4433 H4409 0.950 . S
C4433 C4432 1.524 . S
C4433 C4434 1.415 . S
C4434 H4410 0.950 . S
C4434 C4429 1.363 . S
C4434 C4433 1.415 . S
C4435 H4411 0.951 . S
C4435 C4436 1.366 . S
C4435 C4437 1.388 . S
C4436 C4435 1.366 . S
C4436 C4440 1.385 . S
C4437 H4412 0.951 . S
C4437 C4435 1.388 . S
C4437 C4438 1.366 . S
C4438 C4437 1.366 . S
C4438 C4439 1.414 . S
C4438 C4441 1.499 . S
C4439 H4413 0.950 . S
C4439 C4438 1.414 . S
C4439 C4440 1.374 . S
C4440 H4414 0.950 . S
C4440 C4436 1.385 . S
C4440 C4439 1.374 . S
C4441 C4438 1.499 . S
C4441 C4442 1.373 . S
C4441 C4443 1.389 . S
C4442 H4415 0.950 . S
C4442 C4428 1.377 . S
C4442 C4441 1.373 . S
C4443 C4427 1.377 . S
C4443 C4441 1.389 . S
C4443 C4444 1.524 . S
C4444 C4443 1.524 . S
C4444 C4445 1.397 . S
C4444 C4449 1.363 1_554 S
C4445 H4416 0.950 . S
C4445 C4444 1.397 . S
C4445 C4446 1.334 1_554 S
C4446 H4417 0.950 . S
C4446 C4445 1.334 1_556 S
C4446 C4447 1.287 . S
C4447 C4446 1.287 . S
C4447 C4448 1.524 . S
C4447 H4450 0.999 . S
C4448 H4418 0.950 . S
C4448 C4447 1.524 . S
C4448 C4449 1.415 . S
C4449 H4419 0.950 . S
C4449 C4444 1.363 1_556 S
C4449 C4448 1.415 . S
H4450 C4447 0.999 . S
H4451 C4432 0.913 . S
H4452 C4470 0.951 . S
H4453 C4472 0.951 . S
H4454 C4474 0.950 . S
H4455 C4475 0.950 . S
H4456 C4477 0.950 . S
H4457 C4480 0.950 . S
H4458 C4481 0.950 . S
H4459 C4483 0.950 . S
H4460 C4484 0.950 . S
H4461 C4485 0.951 . S
H4462 C4487 0.951 . S
H4463 C4489 0.950 . S
H4464 C4490 0.950 . S
H4465 C4492 0.950 . S
H4466 C4495 0.950 . S
H4467 C4496 0.950 . S
H4468 C4498 0.950 . S
H4469 C4499 0.950 . S
C4470 H4452 0.951 . S
C4470 C4471 1.366 . S
C4470 C4472 1.388 . S
C4471 C4470 1.366 . S
C4471 C4475 1.385 . S
C4472 H4453 0.951 . S
C4472 C4470 1.388 . S
C4472 C4473 1.366 . S
C4473 C4472 1.366 . S
C4473 C4474 1.414 . S
C4473 C4476 1.499 . S
C4474 H4454 0.950 . S
C4474 C4473 1.414 . S
C4474 C4475 1.374 . S
C4475 H4455 0.950 . S
C4475 C4471 1.385 . S
C4475 C4474 1.374 . S
C4476 C4473 1.499 . S
C4476 C4477 1.373 . S
C4476 C4478 1.389 . S
C4477 H4456 0.950 . S
C4477 C4476 1.373 . S
C4477 C4493 1.377 . S
C4478 C4476 1.389 . S
C4478 C4479 1.524 . S
C4478 C4492 1.377 . S
C4479 C4478 1.524 . S
C4479 C4480 1.397 . S
C4479 C4484 1.363 . S
C4480 H4457 0.950 . S
C4480 C4479 1.397 . S
C4480 C4481 1.334 . S
C4481 H4458 0.950 . S
C4481 C4480 1.334 . S
C4481 C4482 1.287 . S
C4482 C4481 1.287 . S
C4482 C4483 1.524 . S
C4482 H4501 0.913 . S
C4483 H4459 0.950 . S
C4483 C4482 1.524 . S
C4483 C4484 1.415 . S
C4484 H4460 0.950 . S
C4484 C4479 1.363 . S
C4484 C4483 1.415 . S
C4485 H4461 0.951 . S
C4485 C4486 1.366 . S
C4485 C4487 1.388 . S
C4486 C4485 1.366 . S
C4486 C4490 1.385 . S
C4487 H4462 0.951 . S
C4487 C4485 1.388 . S
C4487 C4488 1.366 . S
C4488 C4487 1.366 . S
C4488 C4489 1.414 . S
C4488 C4491 1.499 . S
C4489 H4463 0.950 . S
C4489 C4488 1.414 . S
C4489 C4490 1.374 . S
C4490 H4464 0.950 . S
C4490 C4486 1.385 . S
C4490 C4489 1.374 . S
C4491 C4488 1.499 . S
C4491 C4492 1.373 . S
C4491 C4493 1.389 . S
C4492 H4465 0.950 . S
C4492 C4478 1.377 . S
C4492 C4491 1.373 . S
C4493 C4477 1.377 . S
C4493 C4491 1.389 . S
C4493 C4494 1.524 . S
C4494 C4493 1.524 . S
C4494 C4495 1.397 . S
C4494 C4499 1.363 . S
C4495 H4466 0.950 . S
C4495 C4494 1.397 . S
C4495 C4496 1.334 . S
C4496 H4467 0.950 . S
C4496 C4495 1.334 . S
C4496 C4497 1.287 . S
C4497 C4496 1.287 . S
C4497 C4498 1.524 . S
C4497 H4500 0.999 . S
C4498 H4468 0.950 . S
C4498 C4497 1.524 . S
C4498 C4499 1.415 . S
C4499 H4469 0.950 . S
C4499 C4494 1.363 . S
C4499 C4498 1.415 . S
H4500 C4497 0.999 . S
H4501 C4482 0.913 . S
H4502 C4520 0.951 . S
H4503 C4522 0.951 . S
H4504 C4524 0.950 . S
H4505 C4525 0.950 . S
H4506 C4527 0.950 . S
H4507 C4530 0.950 . S
H4508 C4531 0.950 . S
H4509 C4533 0.950 . S
H4510 C4534 0.950 . S
H4511 C4535 0.951 . S
H4512 C4537 0.951 . S
H4513 C4539 0.950 . S
H4514 C4540 0.950 . S
H4515 C4542 0.950 . S
H4516 C4545 0.950 . S
H4517 C4546 0.950 . S
H4518 C4548 0.950 . S
H4519 C4549 0.950 . S
C4520 H4502 0.951 . S
C4520 C4521 1.366 . S
C4520 C4522 1.388 . S
C4521 C4520 1.366 . S
C4521 C4525 1.385 . S
C4522 H4503 0.951 . S
C4522 C4520 1.388 . S
C4522 C4523 1.366 . S
C4523 C4522 1.366 . S
C4523 C4524 1.414 . S
C4523 C4526 1.499 . S
C4524 H4504 0.950 . S
C4524 C4523 1.414 . S
C4524 C4525 1.374 . S
C4525 H4505 0.950 . S
C4525 C4521 1.385 . S
C4525 C4524 1.374 . S
C4526 C4523 1.499 . S
C4526 C4527 1.373 . S
C4526 C4528 1.389 . S
C4527 H4506 0.950 . S
C4527 C4526 1.373 . S
C4527 C4543 1.377 . S
C4528 C4526 1.389 . S
C4528 C4529 1.524 . S
C4528 C4542 1.377 . S
C4529 C4528 1.524 . S
C4529 C4530 1.397 . S
C4529 C4534 1.363 . S
C4530 H4507 0.950 . S
C4530 C4529 1.397 . S
C4530 C4531 1.334 . S
C4531 H4508 0.950 . S
C4531 C4530 1.334 . S
C4531 C4532 1.287 . S
C4532 C4531 1.287 . S
C4532 C4533 1.524 . S
C4532 H4551 0.913 . S
C4533 H4509 0.950 . S
C4533 C4532 1.524 . S
C4533 C4534 1.415 . S
C4534 H4510 0.950 . S
C4534 C4529 1.363 . S
C4534 C4533 1.415 . S
C4535 H4511 0.951 . S
C4535 C4536 1.366 . S
C4535 C4537 1.388 . S
C4536 C4535 1.366 . S
C4536 C4540 1.385 . S
C4537 H4512 0.951 . S
C4537 C4535 1.388 . S
C4537 C4538 1.366 . S
C4538 C4537 1.366 . S
C4538 C4539 1.414 . S
C4538 C4541 1.499 . S
C4539 H4513 0.950 . S
C4539 C4538 1.414 . S
C4539 C4540 1.374 . S
C4540 H4514 0.950 . S
C4540 C4536 1.385 . S
C4540 C4539 1.374 . S
C4541 C4538 1.499 . S
C4541 C4542 1.373 . S
C4541 C4543 1.389 . S
C4542 H4515 0.950 . S
C4542 C4528 1.377 . S
C4542 C4541 1.373 . S
C4543 C4527 1.377 . S
C4543 C4541 1.389 . S
C4543 C4544 1.524 . S
C4544 C4543 1.524 . S
C4544 C4545 1.397 . S
C4544 C4549 1.363 . S
C4545 H4516 0.950 . S
C4545 C4544 1.397 . S
C4545 C4546 1.334 . S
C4546 H4517 0.950 . S
C4546 C4545 1.334 . S
C4546 C4547 1.287 . S
C4547 C4546 1.287 . S
C4547 C4548 1.524 . S
C4547 H4550 0.999 . S
C4548 H4518 0.950 . S
C4548 C4547 1.524 . S
C4548 C4549 1.415 . S
C4549 H4519 0.950 . S
C4549 C4544 1.363 . S
C4549 C4548 1.415 . S
H4550 C4547 0.999 . S
H4551 C4532 0.913 . S
H4552 C4570 0.951 . S
H4553 C4572 0.951 . S
H4554 C4574 0.950 . S
H4555 C4575 0.950 . S
H4556 C4577 0.950 . S
H4557 C4580 0.950 . S
H4558 C4581 0.950 . S
H4559 C4583 0.950 . S
H4560 C4584 0.950 . S
H4561 C4585 0.951 . S
H4562 C4587 0.951 . S
H4563 C4589 0.950 . S
H4564 C4590 0.950 . S
H4565 C4592 0.950 . S
H4566 C4595 0.950 . S
H4567 C4596 0.950 . S
H4568 C4598 0.950 . S
H4569 C4599 0.950 . S
C4570 H4552 0.951 . S
C4570 C4571 1.366 . S
C4570 C4572 1.388 . S
C4571 C4570 1.366 . S
C4571 C4575 1.385 . S
C4572 H4553 0.951 . S
C4572 C4570 1.388 . S
C4572 C4573 1.366 . S
C4573 C4572 1.366 . S
C4573 C4574 1.414 . S
C4573 C4576 1.499 . S
C4574 H4554 0.950 . S
C4574 C4573 1.414 . S
C4574 C4575 1.374 . S
C4575 H4555 0.950 . S
C4575 C4571 1.385 . S
C4575 C4574 1.374 . S
C4576 C4573 1.499 . S
C4576 C4577 1.373 . S
C4576 C4578 1.389 . S
C4577 H4556 0.950 . S
C4577 C4576 1.373 . S
C4577 C4593 1.377 . S
C4578 C4576 1.389 . S
C4578 C4579 1.524 . S
C4578 C4592 1.377 . S
C4579 C4578 1.524 . S
C4579 C4580 1.397 . S
C4579 C4584 1.363 . S
C4580 H4557 0.950 . S
C4580 C4579 1.397 . S
C4580 C4581 1.334 . S
C4581 H4558 0.950 . S
C4581 C4580 1.334 . S
C4581 C4582 1.287 . S
C4582 C4581 1.287 . S
C4582 C4583 1.524 . S
C4582 H4601 0.913 . S
C4583 H4559 0.950 . S
C4583 C4582 1.524 . S
C4583 C4584 1.415 . S
C4584 H4560 0.950 . S
C4584 C4579 1.363 . S
C4584 C4583 1.415 . S
C4585 H4561 0.951 . S
C4585 C4586 1.366 . S
C4585 C4587 1.388 . S
C4586 C4585 1.366 . S
C4586 C4590 1.385 . S
C4587 H4562 0.951 . S
C4587 C4585 1.388 . S
C4587 C4588 1.366 . S
C4588 C4587 1.366 . S
C4588 C4589 1.414 . S
C4588 C4591 1.499 . S
C4589 H4563 0.950 . S
C4589 C4588 1.414 . S
C4589 C4590 1.374 . S
C4590 H4564 0.950 . S
C4590 C4586 1.385 . S
C4590 C4589 1.374 . S
C4591 C4588 1.499 . S
C4591 C4592 1.373 . S
C4591 C4593 1.389 . S
C4592 H4565 0.950 . S
C4592 C4578 1.377 . S
C4592 C4591 1.373 . S
C4593 C4577 1.377 . S
C4593 C4591 1.389 . S
C4593 C4594 1.524 . S
C4594 C4593 1.524 . S
C4594 C4595 1.397 . S
C4594 C4599 1.363 . S
C4595 H4566 0.950 . S
C4595 C4594 1.397 . S
C4595 C4596 1.334 . S
C4596 H4567 0.950 . S
C4596 C4595 1.334 . S
C4596 C4597 1.287 . S
C4597 C4596 1.287 . S
C4597 C4598 1.524 . S
C4597 H4600 0.999 . S
C4598 H4568 0.950 . S
C4598 C4597 1.524 . S
C4598 C4599 1.415 . S
C4599 H4569 0.950 . S
C4599 C4594 1.363 . S
C4599 C4598 1.415 . S
H4600 C4597 0.999 . S
H4601 C4582 0.913 . S
H4602 C4620 0.951 . S
H4603 C4622 0.951 . S
H4604 C4624 0.950 . S
H4605 C4625 0.950 . S
H4606 C4627 0.950 . S
H4607 C4630 0.950 . S
H4608 C4631 0.950 . S
H4609 C4633 0.950 . S
H4610 C4634 0.950 . S
H4611 C4635 0.951 . S
H4612 C4637 0.951 . S
H4613 C4639 0.950 . S
H4614 C4640 0.950 . S
H4615 C4642 0.950 . S
H4616 C4645 0.950 . S
H4617 C4646 0.950 . S
H4618 C4648 0.950 . S
H4619 C4649 0.950 . S
C4620 H4602 0.951 . S
C4620 C4621 1.366 . S
C4620 C4622 1.388 . S
C4621 C4620 1.366 . S
C4621 C4625 1.385 . S
C4622 H4603 0.951 . S
C4622 C4620 1.388 . S
C4622 C4623 1.366 . S
C4623 C4622 1.366 . S
C4623 C4624 1.414 . S
C4623 C4626 1.499 . S
C4624 H4604 0.950 . S
C4624 C4623 1.414 . S
C4624 C4625 1.374 . S
C4625 H4605 0.950 . S
C4625 C4621 1.385 . S
C4625 C4624 1.374 . S
C4626 C4623 1.499 . S
C4626 C4627 1.373 . S
C4626 C4628 1.389 . S
C4627 H4606 0.950 . S
C4627 C4626 1.373 . S
C4627 C4643 1.377 . S
C4628 C4626 1.389 . S
C4628 C4629 1.524 . S
C4628 C4642 1.377 . S
C4629 C4628 1.524 . S
C4629 C4630 1.397 . S
C4629 C4634 1.363 . S
C4630 H4607 0.950 . S
C4630 C4629 1.397 . S
C4630 C4631 1.334 . S
C4631 H4608 0.950 . S
C4631 C4630 1.334 . S
C4631 C4632 1.287 . S
C4632 C4631 1.287 . S
C4632 C4633 1.524 . S
C4632 H4651 0.913 . S
C4633 H4609 0.950 . S
C4633 C4632 1.524 . S
C4633 C4634 1.415 . S
C4634 H4610 0.950 . S
C4634 C4629 1.363 . S
C4634 C4633 1.415 . S
C4635 H4611 0.951 . S
C4635 C4636 1.366 . S
C4635 C4637 1.388 . S
C4636 C4635 1.366 . S
C4636 C4640 1.385 . S
C4637 H4612 0.951 . S
C4637 C4635 1.388 . S
C4637 C4638 1.366 . S
C4638 C4637 1.366 . S
C4638 C4639 1.414 . S
C4638 C4641 1.499 . S
C4639 H4613 0.950 . S
C4639 C4638 1.414 . S
C4639 C4640 1.374 . S
C4640 H4614 0.950 . S
C4640 C4636 1.385 . S
C4640 C4639 1.374 . S
C4641 C4638 1.499 . S
C4641 C4642 1.373 . S
C4641 C4643 1.389 . S
C4642 H4615 0.950 . S
C4642 C4628 1.377 . S
C4642 C4641 1.373 . S
C4643 C4627 1.377 . S
C4643 C4641 1.389 . S
C4643 C4644 1.524 . S
C4644 C4643 1.524 . S
C4644 C4645 1.397 . S
C4644 C4649 1.363 . S
C4645 H4616 0.950 . S
C4645 C4644 1.397 . S
C4645 C4646 1.334 . S
C4646 H4617 0.950 . S
C4646 C4645 1.334 . S
C4646 C4647 1.287 . S
C4647 C4646 1.287 . S
C4647 C4648 1.524 . S
C4647 H4650 0.999 . S
C4648 H4618 0.950 . S
C4648 C4647 1.524 . S
C4648 C4649 1.415 . S
C4649 H4619 0.950 . S
C4649 C4644 1.363 . S
C4649 C4648 1.415 . S
H4650 C4647 0.999 . S
H4651 C4632 0.913 . S
H4652 C4670 0.951 . S
H4653 C4672 0.951 . S
H4654 C4674 0.950 . S
H4655 C4675 0.950 . S
H4656 C4677 0.950 . S
H4657 C4680 0.950 . S
H4658 C4681 0.950 . S
H4659 C4683 0.950 . S
H4660 C4684 0.950 . S
H4661 C4685 0.951 . S
H4662 C4687 0.951 . S
H4663 C4689 0.950 . S
H4664 C4690 0.950 . S
H4665 C4692 0.950 . S
H4666 C4695 0.950 . S
H4667 C4696 0.950 . S
H4668 C4698 0.950 . S
H4669 C4699 0.950 . S
C4670 H4652 0.951 . S
C4670 C4671 1.366 . S
C4670 C4672 1.388 . S
C4671 C4670 1.366 . S
C4671 C4675 1.385 . S
C4672 H4653 0.951 . S
C4672 C4670 1.388 . S
C4672 C4673 1.366 . S
C4673 C4672 1.366 . S
C4673 C4674 1.414 . S
C4673 C4676 1.499 . S
C4674 H4654 0.950 . S
C4674 C4673 1.414 . S
C4674 C4675 1.374 . S
C4675 H4655 0.950 . S
C4675 C4671 1.385 . S
C4675 C4674 1.374 . S
C4676 C4673 1.499 . S
C4676 C4677 1.373 . S
C4676 C4678 1.389 . S
C4677 H4656 0.950 . S
C4677 C4676 1.373 . S
C4677 C4693 1.377 . S
C4678 C4676 1.389 . S
C4678 C4679 1.524 . S
C4678 C4692 1.377 . S
C4679 C4678 1.524 . S
C4679 C4680 1.397 . S
C4679 C4684 1.363 . S
C4680 H4657 0.950 . S
C4680 C4679 1.397 . S
C4680 C4681 1.334 . S
C4681 H4658 0.950 . S
C4681 C4680 1.334 . S
C4681 C4682 1.287 . S
C4682 C4681 1.287 . S
C4682 C4683 1.524 . S
C4682 H4701 0.913 . S
C4683 H4659 0.950 . S
C4683 C4682 1.524 . S
C4683 C4684 1.415 . S
C4684 H4660 0.950 . S
C4684 C4679 1.363 . S
C4684 C4683 1.415 . S
C4685 H4661 0.951 . S
C4685 C4686 1.366 . S
C4685 C4687 1.388 . S
C4686 C4685 1.366 . S
C4686 C4690 1.385 . S
C4687 H4662 0.951 . S
C4687 C4685 1.388 . S
C4687 C4688 1.366 . S
C4688 C4687 1.366 . S
C4688 C4689 1.414 . S
C4688 C4691 1.499 . S
C4689 H4663 0.950 . S
C4689 C4688 1.414 . S
C4689 C4690 1.374 . S
C4690 H4664 0.950 . S
C4690 C4686 1.385 . S
C4690 C4689 1.374 . S
C4691 C4688 1.499 . S
C4691 C4692 1.373 . S
C4691 C4693 1.389 . S
C4692 H4665 0.950 . S
C4692 C4678 1.377 . S
C4692 C4691 1.373 . S
C4693 C4677 1.377 . S
C4693 C4691 1.389 . S
C4693 C4694 1.524 . S
C4694 C4693 1.524 . S
C4694 C4695 1.397 . S
C4694 C4699 1.363 . S
C4695 H4666 0.950 . S
C4695 C4694 1.397 . S
C4695 C4696 1.334 1_554 S
C4696 H4667 0.950 . S
C4696 C4695 1.334 1_556 S
C4696 C4697 1.287 . S
C4697 C4696 1.287 . S
C4697 C4698 1.524 . S
C4697 H4700 0.999 . S
C4698 H4668 0.950 . S
C4698 C4697 1.524 . S
C4698 C4699 1.415 1_556 S
C4699 H4669 0.950 . S
C4699 C4694 1.363 . S
C4699 C4698 1.415 1_554 S
H4700 C4697 0.999 . S
H4701 C4682 0.913 . S
H4702 C4720 0.951 . S
H4703 C4722 0.951 . S
H4704 C4724 0.950 . S
H4705 C4725 0.950 . S
H4706 C4727 0.950 . S
H4707 C4730 0.950 . S
H4708 C4731 0.950 . S
H4709 C4733 0.950 . S
H4710 C4734 0.950 . S
H4711 C4735 0.951 . S
H4712 C4737 0.951 . S
H4713 C4739 0.950 . S
H4714 C4740 0.950 . S
H4715 C4742 0.950 . S
H4716 C4745 0.950 . S
H4717 C4746 0.950 . S
H4718 C4748 0.950 . S
H4719 C4749 0.950 . S
C4720 H4702 0.951 . S
C4720 C4721 1.366 . S
C4720 C4722 1.388 . S
C4721 C4720 1.366 . S
C4721 C4725 1.385 . S
C4722 H4703 0.951 . S
C4722 C4720 1.388 . S
C4722 C4723 1.366 . S
C4723 C4722 1.366 . S
C4723 C4724 1.414 . S
C4723 C4726 1.499 . S
C4724 H4704 0.950 . S
C4724 C4723 1.414 . S
C4724 C4725 1.374 . S
C4725 H4705 0.950 . S
C4725 C4721 1.385 . S
C4725 C4724 1.374 . S
C4726 C4723 1.499 . S
C4726 C4727 1.373 . S
C4726 C4728 1.389 . S
C4727 H4706 0.950 . S
C4727 C4726 1.373 . S
C4727 C4743 1.377 . S
C4728 C4726 1.389 . S
C4728 C4729 1.524 . S
C4728 C4742 1.377 . S
C4729 C4728 1.524 . S
C4729 C4730 1.397 . S
C4729 C4734 1.363 . S
C4730 H4707 0.950 . S
C4730 C4729 1.397 . S
C4730 C4731 1.334 . S
C4731 H4708 0.950 . S
C4731 C4730 1.334 . S
C4731 C4732 1.287 . S
C4732 C4731 1.287 . S
C4732 C4733 1.524 . S
C4732 H4751 0.913 . S
C4733 H4709 0.950 . S
C4733 C4732 1.524 . S
C4733 C4734 1.415 . S
C4734 H4710 0.950 . S
C4734 C4729 1.363 . S
C4734 C4733 1.415 . S
C4735 H4711 0.951 . S
C4735 C4736 1.366 . S
C4735 C4737 1.388 . S
C4736 C4735 1.366 . S
C4736 C4740 1.385 . S
C4737 H4712 0.951 . S
C4737 C4735 1.388 . S
C4737 C4738 1.366 . S
C4738 C4737 1.366 . S
C4738 C4739 1.414 . S
C4738 C4741 1.499 . S
C4739 H4713 0.950 . S
C4739 C4738 1.414 . S
C4739 C4740 1.374 . S
C4740 H4714 0.950 . S
C4740 C4736 1.385 . S
C4740 C4739 1.374 . S
C4741 C4738 1.499 . S
C4741 C4742 1.373 . S
C4741 C4743 1.389 . S
C4742 H4715 0.950 . S
C4742 C4728 1.377 . S
C4742 C4741 1.373 . S
C4743 C4727 1.377 . S
C4743 C4741 1.389 . S
C4743 C4744 1.524 . S
C4744 C4743 1.524 . S
C4744 C4745 1.397 . S
C4744 C4749 1.363 . S
C4745 H4716 0.950 . S
C4745 C4744 1.397 . S
C4745 C4746 1.334 . S
C4746 H4717 0.950 . S
C4746 C4745 1.334 . S
C4746 C4747 1.287 . S
C4747 C4746 1.287 . S
C4747 C4748 1.524 . S
C4747 H4750 0.999 . S
C4748 H4718 0.950 . S
C4748 C4747 1.524 . S
C4748 C4749 1.415 . S
C4749 H4719 0.950 . S
C4749 C4744 1.363 . S
C4749 C4748 1.415 . S
H4750 C4747 0.999 . S
H4751 C4732 0.913 . S
H4752 C4770 0.951 . S
H4753 C4772 0.951 . S
H4754 C4774 0.950 . S
H4755 C4775 0.950 . S
H4756 C4777 0.950 . S
H4757 C4780 0.950 . S
H4758 C4781 0.950 . S
H4759 C4783 0.950 . S
H4760 C4784 0.950 . S
H4761 C4785 0.951 . S
H4762 C4787 0.951 . S
H4763 C4789 0.950 . S
H4764 C4790 0.950 . S
H4765 C4792 0.950 . S
H4766 C4795 0.950 . S
H4767 C4796 0.950 . S
H4768 C4798 0.950 . S
H4769 C4799 0.950 . S
C4770 H4752 0.951 . S
C4770 C4771 1.366 . S
C4770 C4772 1.388 . S
C4771 C4770 1.366 . S
C4771 C4775 1.385 . S
C4772 H4753 0.951 . S
C4772 C4770 1.388 . S
C4772 C4773 1.366 . S
C4773 C4772 1.366 . S
C4773 C4774 1.414 . S
C4773 C4776 1.499 . S
C4774 H4754 0.950 . S
C4774 C4773 1.414 . S
C4774 C4775 1.374 . S
C4775 H4755 0.950 . S
C4775 C4771 1.385 . S
C4775 C4774 1.374 . S
C4776 C4773 1.499 . S
C4776 C4777 1.373 . S
C4776 C4778 1.389 . S
C4777 H4756 0.950 . S
C4777 C4776 1.373 . S
C4777 C4793 1.377 . S
C4778 C4776 1.389 . S
C4778 C4779 1.524 . S
C4778 C4792 1.377 . S
C4779 C4778 1.524 . S
C4779 C4780 1.397 . S
C4779 C4784 1.363 . S
C4780 H4757 0.950 . S
C4780 C4779 1.397 . S
C4780 C4781 1.334 . S
C4781 H4758 0.950 . S
C4781 C4780 1.334 . S
C4781 C4782 1.287 . S
C4782 C4781 1.287 . S
C4782 C4783 1.524 . S
C4782 H4801 0.913 . S
C4783 H4759 0.950 . S
C4783 C4782 1.524 . S
C4783 C4784 1.415 . S
C4784 H4760 0.950 . S
C4784 C4779 1.363 . S
C4784 C4783 1.415 . S
C4785 H4761 0.951 . S
C4785 C4786 1.366 1_554 S
C4785 C4787 1.388 1_554 S
C4786 C4785 1.366 1_556 S
C4786 C4790 1.385 . S
C4787 H4762 0.951 . S
C4787 C4785 1.388 1_556 S
C4787 C4788 1.366 . S
C4788 C4787 1.366 . S
C4788 C4789 1.414 . S
C4788 C4791 1.499 . S
C4789 H4763 0.950 . S
C4789 C4788 1.414 . S
C4789 C4790 1.374 . S
C4790 H4764 0.950 . S
C4790 C4786 1.385 . S
C4790 C4789 1.374 . S
C4791 C4788 1.499 . S
C4791 C4792 1.373 . S
C4791 C4793 1.389 . S
C4792 H4765 0.950 . S
C4792 C4778 1.377 . S
C4792 C4791 1.373 . S
C4793 C4777 1.377 . S
C4793 C4791 1.389 . S
C4793 C4794 1.524 . S
C4794 C4793 1.524 . S
C4794 C4795 1.397 . S
C4794 C4799 1.363 . S
C4795 H4766 0.950 . S
C4795 C4794 1.397 . S
C4795 C4796 1.334 . S
C4796 H4767 0.950 . S
C4796 C4795 1.334 . S
C4796 C4797 1.287 . S
C4797 C4796 1.287 . S
C4797 C4798 1.524 . S
C4797 H4800 0.999 . S
C4798 H4768 0.950 . S
C4798 C4797 1.524 . S
C4798 C4799 1.415 . S
C4799 H4769 0.950 . S
C4799 C4794 1.363 . S
C4799 C4798 1.415 . S
H4800 C4797 0.999 . S
H4801 C4782 0.913 . S
H4802 C4820 0.951 . S
H4803 C4822 0.951 . S
H4804 C4824 0.950 . S
H4805 C4825 0.950 . S
H4806 C4827 0.950 . S
H4807 C4830 0.950 . S
H4808 C4831 0.950 . S
H4809 C4833 0.950 . S
H4810 C4834 0.950 . S
H4811 C4835 0.951 . S
H4812 C4837 0.951 . S
H4813 C4839 0.950 . S
H4814 C4840 0.950 . S
H4815 C4842 0.950 . S
H4816 C4845 0.950 . S
H4817 C4846 0.950 . S
H4818 C4848 0.950 . S
H4819 C4849 0.950 . S
C4820 H4802 0.951 . S
C4820 C4821 1.366 . S
C4820 C4822 1.388 . S
C4821 C4820 1.366 . S
C4821 C4825 1.385 . S
C4822 H4803 0.951 . S
C4822 C4820 1.388 . S
C4822 C4823 1.366 . S
C4823 C4822 1.366 . S
C4823 C4824 1.414 . S
C4823 C4826 1.499 . S
C4824 H4804 0.950 . S
C4824 C4823 1.414 . S
C4824 C4825 1.374 . S
C4825 H4805 0.950 . S
C4825 C4821 1.385 . S
C4825 C4824 1.374 . S
C4826 C4823 1.499 . S
C4826 C4827 1.373 . S
C4826 C4828 1.389 . S
C4827 H4806 0.950 . S
C4827 C4826 1.373 . S
C4827 C4843 1.377 . S
C4828 C4826 1.389 . S
C4828 C4829 1.524 . S
C4828 C4842 1.377 . S
C4829 C4828 1.524 . S
C4829 C4830 1.397 . S
C4829 C4834 1.363 . S
C4830 H4807 0.950 . S
C4830 C4829 1.397 . S
C4830 C4831 1.334 . S
C4831 H4808 0.950 . S
C4831 C4830 1.334 . S
C4831 C4832 1.287 . S
C4832 C4831 1.287 . S
C4832 C4833 1.524 . S
C4832 H4851 0.913 . S
C4833 H4809 0.950 . S
C4833 C4832 1.524 . S
C4833 C4834 1.415 . S
C4834 H4810 0.950 . S
C4834 C4829 1.363 . S
C4834 C4833 1.415 . S
C4835 H4811 0.951 . S
C4835 C4836 1.366 . S
C4835 C4837 1.388 . S
C4836 C4835 1.366 . S
C4836 C4840 1.385 . S
C4837 H4812 0.951 . S
C4837 C4835 1.388 . S
C4837 C4838 1.366 . S
C4838 C4837 1.366 . S
C4838 C4839 1.414 . S
C4838 C4841 1.499 . S
C4839 H4813 0.950 . S
C4839 C4838 1.414 . S
C4839 C4840 1.374 . S
C4840 H4814 0.950 . S
C4840 C4836 1.385 . S
C4840 C4839 1.374 . S
C4841 C4838 1.499 . S
C4841 C4842 1.373 . S
C4841 C4843 1.389 . S
C4842 H4815 0.950 . S
C4842 C4828 1.377 . S
C4842 C4841 1.373 . S
C4843 C4827 1.377 . S
C4843 C4841 1.389 . S
C4843 C4844 1.524 . S
C4844 C4843 1.524 . S
C4844 C4845 1.397 . S
C4844 C4849 1.363 . S
C4845 H4816 0.950 . S
C4845 C4844 1.397 . S
C4845 C4846 1.334 . S
C4846 H4817 0.950 . S
C4846 C4845 1.334 . S
C4846 C4847 1.287 . S
C4847 C4846 1.287 . S
C4847 C4848 1.524 . S
C4847 H4850 0.999 . S
C4848 H4818 0.950 . S
C4848 C4847 1.524 . S
C4848 C4849 1.415 . S
C4849 H4819 0.950 . S
C4849 C4844 1.363 . S
C4849 C4848 1.415 . S
H4850 C4847 0.999 . S
H4851 C4832 0.913 . S
H4852 C4870 0.951 . S
H4853 C4872 0.951 . S
H4854 C4874 0.950 . S
H4855 C4875 0.950 . S
H4856 C4877 0.950 . S
H4857 C4880 0.950 . S
H4858 C4881 0.960 . S
H4859 C4883 0.950 . S
H4860 C4884 0.950 . S
H4861 C4885 0.951 . S
H4862 C4887 0.951 . S
H4863 C4889 0.950 . S
H4864 C4890 0.950 . S
H4865 C4892 0.950 . S
H4866 C4895 0.950 . S
H4867 C4896 0.950 . S
H4868 C4898 0.950 . S
H4869 C4899 0.950 . S
C4870 H4852 0.951 . S
C4870 C4871 1.366 . S
C4870 C4872 1.388 . S
C4871 C4870 1.366 . S
C4871 C4875 1.385 . S
C4872 H4853 0.951 . S
C4872 C4870 1.388 . S
C4872 C4873 1.366 . S
C4873 C4872 1.366 . S
C4873 C4874 1.414 . S
C4873 C4876 1.499 . S
C4874 H4854 0.950 . S
C4874 C4873 1.414 . S
C4874 C4875 1.374 . S
C4875 H4855 0.950 . S
C4875 C4871 1.385 . S
C4875 C4874 1.374 . S
C4876 C4873 1.499 . S
C4876 C4877 1.373 . S
C4876 C4878 1.389 . S
C4877 H4856 0.950 . S
C4877 C4876 1.373 . S
C4877 C4893 1.377 . S
C4878 C4876 1.389 . S
C4878 C4879 1.524 . S
C4878 C4892 1.377 . S
C4879 C4878 1.524 . S
C4879 C4880 1.397 . S
C4879 C4884 1.363 . S
C4880 H4857 0.950 . S
C4880 C4879 1.397 . S
C4880 C4881 1.329 1_455 S
C4881 H4858 0.960 . S
C4881 C4880 1.329 1_655 S
C4881 C4882 1.282 1_655 S
C4882 C4881 1.282 1_455 S
C4882 C4883 1.524 . S
C4882 H4901 0.898 1_455 S
C4883 H4859 0.950 . S
C4883 C4882 1.524 . S
C4883 C4884 1.415 . S
C4884 H4860 0.950 . S
C4884 C4879 1.363 . S
C4884 C4883 1.415 . S
C4885 H4861 0.951 . S
C4885 C4886 1.366 . S
C4885 C4887 1.388 . S
C4886 C4885 1.366 . S
C4886 C4890 1.385 . S
C4887 H4862 0.951 . S
C4887 C4885 1.388 . S
C4887 C4888 1.366 . S
C4888 C4887 1.366 . S
C4888 C4889 1.414 . S
C4888 C4891 1.499 . S
C4889 H4863 0.950 . S
C4889 C4888 1.414 . S
C4889 C4890 1.374 . S
C4890 H4864 0.950 . S
C4890 C4886 1.385 . S
C4890 C4889 1.374 . S
C4891 C4888 1.499 . S
C4891 C4892 1.373 . S
C4891 C4893 1.389 . S
C4892 H4865 0.950 . S
C4892 C4878 1.377 . S
C4892 C4891 1.373 . S
C4893 C4877 1.377 . S
C4893 C4891 1.389 . S
C4893 C4894 1.524 . S
C4894 C4893 1.524 . S
C4894 C4895 1.397 . S
C4894 C4899 1.363 . S
C4895 H4866 0.950 . S
C4895 C4894 1.397 . S
C4895 C4896 1.334 . S
C4896 H4867 0.950 . S
C4896 C4895 1.334 . S
C4896 C4897 1.287 . S
C4897 C4896 1.287 . S
C4897 C4898 1.524 . S
C4897 H4900 0.999 . S
C4898 H4868 0.950 . S
C4898 C4897 1.524 . S
C4898 C4899 1.415 . S
C4899 H4869 0.950 . S
C4899 C4894 1.363 . S
C4899 C4898 1.415 . S
H4900 C4897 0.999 . S
H4901 C4882 0.898 1_655 S
H4902 C4920 0.951 . S
H4903 C4922 0.951 . S
H4904 C4924 0.950 . S
H4905 C4925 0.950 . S
H4906 C4927 0.950 . S
H4907 C4930 0.950 . S
H4908 C4931 0.950 . S
H4909 C4933 0.950 . S
H4910 C4934 0.950 . S
H4911 C4935 0.951 . S
H4912 C4937 0.951 . S
H4913 C4939 0.950 . S
H4914 C4940 0.950 . S
H4915 C4942 0.950 . S
H4916 C4945 0.950 . S
H4917 C4946 0.950 . S
H4918 C4948 0.950 . S
H4919 C4949 0.950 . S
C4920 H4902 0.951 . S
C4920 C4921 1.366 . S
C4920 C4922 1.388 . S
C4921 C4920 1.366 . S
C4921 C4925 1.385 . S
C4922 H4903 0.951 . S
C4922 C4920 1.388 . S
C4922 C4923 1.366 . S
C4923 C4922 1.366 . S
C4923 C4924 1.414 . S
C4923 C4926 1.499 . S
C4924 H4904 0.950 . S
C4924 C4923 1.414 . S
C4924 C4925 1.374 . S
C4925 H4905 0.950 . S
C4925 C4921 1.385 . S
C4925 C4924 1.374 . S
C4926 C4923 1.499 . S
C4926 C4927 1.373 . S
C4926 C4928 1.389 . S
C4927 H4906 0.950 . S
C4927 C4926 1.373 . S
C4927 C4943 1.377 . S
C4928 C4926 1.389 . S
C4928 C4929 1.524 . S
C4928 C4942 1.377 . S
C4929 C4928 1.524 . S
C4929 C4930 1.397 . S
C4929 C4934 1.363 . S
C4930 H4907 0.950 . S
C4930 C4929 1.397 . S
C4930 C4931 1.334 . S
C4931 H4908 0.950 . S
C4931 C4930 1.334 . S
C4931 C4932 1.287 . S
C4932 C4931 1.287 . S
C4932 C4933 1.524 . S
C4932 H4951 0.913 . S
C4933 H4909 0.950 . S
C4933 C4932 1.524 . S
C4933 C4934 1.415 . S
C4934 H4910 0.950 . S
C4934 C4929 1.363 . S
C4934 C4933 1.415 . S
C4935 H4911 0.951 . S
C4935 C4936 1.366 . S
C4935 C4937 1.388 . S
C4936 C4935 1.366 . S
C4936 C4940 1.385 . S
C4937 H4912 0.951 . S
C4937 C4935 1.388 . S
C4937 C4938 1.366 . S
C4938 C4937 1.366 . S
C4938 C4939 1.414 . S
C4938 C4941 1.499 . S
C4939 H4913 0.950 . S
C4939 C4938 1.414 . S
C4939 C4940 1.374 . S
C4940 H4914 0.950 . S
C4940 C4936 1.385 . S
C4940 C4939 1.374 . S
C4941 C4938 1.499 . S
C4941 C4942 1.373 . S
C4941 C4943 1.389 . S
C4942 H4915 0.950 . S
C4942 C4928 1.377 . S
C4942 C4941 1.373 . S
C4943 C4927 1.377 . S
C4943 C4941 1.389 . S
C4943 C4944 1.524 . S
C4944 C4943 1.524 . S
C4944 C4945 1.397 . S
C4944 C4949 1.363 . S
C4945 H4916 0.950 . S
C4945 C4944 1.397 . S
C4945 C4946 1.334 . S
C4946 H4917 0.950 . S
C4946 C4945 1.334 . S
C4946 C4947 1.287 . S
C4947 C4946 1.287 . S
C4947 C4948 1.524 . S
C4947 H4950 0.999 . S
C4948 H4918 0.950 . S
C4948 C4947 1.524 . S
C4948 C4949 1.415 . S
C4949 H4919 0.950 . S
C4949 C4944 1.363 . S
C4949 C4948 1.415 . S
H4950 C4947 0.999 . S
H4951 C4932 0.913 . S
H4952 C4970 0.951 . S
H4953 C4972 0.951 . S
H4954 C4974 0.950 . S
H4955 C4975 0.950 . S
H4956 C4977 0.950 . S
H4957 C4980 0.950 . S
H4958 C4981 0.950 . S
H4959 C4983 0.950 . S
H4960 C4984 0.950 . S
H4961 C4985 0.951 . S
H4962 C4987 0.951 . S
H4963 C4989 0.950 . S
H4964 C4990 0.950 . S
H4965 C4992 0.950 . S
H4966 C4995 0.950 . S
H4967 C4996 0.950 . S
H4968 C4998 0.950 . S
H4969 C4999 0.950 . S
C4970 H4952 0.951 . S
C4970 C4971 1.366 . S
C4970 C4972 1.388 . S
C4971 C4970 1.366 . S
C4971 C4975 1.385 . S
C4972 H4953 0.951 . S
C4972 C4970 1.388 . S
C4972 C4973 1.366 . S
C4973 C4972 1.366 . S
C4973 C4974 1.414 . S
C4973 C4976 1.499 . S
C4974 H4954 0.950 . S
C4974 C4973 1.414 . S
C4974 C4975 1.374 . S
C4975 H4955 0.950 . S
C4975 C4971 1.385 . S
C4975 C4974 1.374 . S
C4976 C4973 1.499 . S
C4976 C4977 1.373 . S
C4976 C4978 1.389 . S
C4977 H4956 0.950 . S
C4977 C4976 1.373 . S
C4977 C4993 1.377 . S
C4978 C4976 1.389 . S
C4978 C4979 1.524 . S
C4978 C4992 1.377 . S
C4979 C4978 1.524 . S
C4979 C4980 1.397 . S
C4979 C4984 1.363 . S
C4980 H4957 0.950 . S
C4980 C4979 1.397 . S
C4980 C4981 1.334 . S
C4981 H4958 0.950 . S
C4981 C4980 1.334 . S
C4981 C4982 1.287 . S
C4982 C4981 1.287 . S
C4982 C4983 1.524 . S
C4982 H5001 0.913 . S
C4983 H4959 0.950 . S
C4983 C4982 1.524 . S
C4983 C4984 1.415 . S
C4984 H4960 0.950 . S
C4984 C4979 1.363 . S
C4984 C4983 1.415 . S
C4985 H4961 0.951 . S
C4985 C4986 1.366 . S
C4985 C4987 1.388 . S
C4986 C4985 1.366 . S
C4986 C4990 1.385 . S
C4987 H4962 0.951 . S
C4987 C4985 1.388 . S
C4987 C4988 1.366 . S
C4988 C4987 1.366 . S
C4988 C4989 1.414 . S
C4988 C4991 1.499 . S
C4989 H4963 0.950 . S
C4989 C4988 1.414 . S
C4989 C4990 1.374 . S
C4990 H4964 0.950 . S
C4990 C4986 1.385 . S
C4990 C4989 1.374 . S
C4991 C4988 1.499 . S
C4991 C4992 1.373 . S
C4991 C4993 1.389 . S
C4992 H4965 0.950 . S
C4992 C4978 1.377 . S
C4992 C4991 1.373 . S
C4993 C4977 1.377 . S
C4993 C4991 1.389 . S
C4993 C4994 1.524 . S
C4994 C4993 1.524 . S
C4994 C4995 1.397 . S
C4994 C4999 1.363 . S
C4995 H4966 0.950 . S
C4995 C4994 1.397 . S
C4995 C4996 1.334 . S
C4996 H4967 0.950 . S
C4996 C4995 1.334 . S
C4996 C4997 1.287 . S
C4997 C4996 1.287 . S
C4997 C4998 1.524 . S
C4997 H5000 0.999 . S
C4998 H4968 0.950 . S
C4998 C4997 1.524 . S
C4998 C4999 1.415 . S
C4999 H4969 0.950 . S
C4999 C4994 1.363 . S
C4999 C4998 1.415 . S
H5000 C4997 0.999 . S
H5001 C4982 0.913 . S
H5002 C5020 0.951 . S
H5003 C5022 0.951 . S
H5004 C5024 0.950 . S
H5005 C5025 0.950 . S
H5006 C5027 0.950 . S
H5007 C5030 0.950 . S
H5008 C5031 0.950 . S
H5009 C5033 0.950 . S
H5010 C5034 0.950 . S
H5011 C5035 0.951 . S
H5012 C5037 0.951 . S
H5013 C5039 0.950 . S
H5014 C5040 0.950 . S
H5015 C5042 0.950 . S
H5016 C5045 0.950 . S
H5017 C5046 0.950 . S
H5018 C5048 0.950 . S
H5019 C5049 0.950 . S
C5020 H5002 0.951 . S
C5020 C5021 1.366 . S
C5020 C5022 1.388 . S
C5021 C5020 1.366 . S
C5021 C5025 1.385 . S
C5022 H5003 0.951 . S
C5022 C5020 1.388 . S
C5022 C5023 1.366 . S
C5023 C5022 1.366 . S
C5023 C5024 1.414 . S
C5023 C5026 1.499 . S
C5024 H5004 0.950 . S
C5024 C5023 1.414 . S
C5024 C5025 1.374 . S
C5025 H5005 0.950 . S
C5025 C5021 1.385 . S
C5025 C5024 1.374 . S
C5026 C5023 1.499 . S
C5026 C5027 1.373 . S
C5026 C5028 1.389 . S
C5027 H5006 0.950 . S
C5027 C5026 1.373 . S
C5027 C5043 1.377 . S
C5028 C5026 1.389 . S
C5028 C5029 1.524 . S
C5028 C5042 1.377 . S
C5029 C5028 1.524 . S
C5029 C5030 1.397 . S
C5029 C5034 1.363 . S
C5030 H5007 0.950 . S
C5030 C5029 1.397 . S
C5030 C5031 1.334 . S
C5031 H5008 0.950 . S
C5031 C5030 1.334 . S
C5031 C5032 1.287 . S
C5032 C5031 1.287 . S
C5032 C5033 1.524 . S
C5032 H5051 0.913 . S
C5033 H5009 0.950 . S
C5033 C5032 1.524 . S
C5033 C5034 1.415 . S
C5034 H5010 0.950 . S
C5034 C5029 1.363 . S
C5034 C5033 1.415 . S
C5035 H5011 0.951 . S
C5035 C5036 1.366 . S
C5035 C5037 1.388 . S
C5036 C5035 1.366 . S
C5036 C5040 1.385 . S
C5037 H5012 0.951 . S
C5037 C5035 1.388 . S
C5037 C5038 1.366 . S
C5038 C5037 1.366 . S
C5038 C5039 1.414 . S
C5038 C5041 1.499 . S
C5039 H5013 0.950 . S
C5039 C5038 1.414 . S
C5039 C5040 1.374 . S
C5040 H5014 0.950 . S
C5040 C5036 1.385 . S
C5040 C5039 1.374 . S
C5041 C5038 1.499 . S
C5041 C5042 1.373 . S
C5041 C5043 1.389 . S
C5042 H5015 0.950 . S
C5042 C5028 1.377 . S
C5042 C5041 1.373 . S
C5043 C5027 1.377 . S
C5043 C5041 1.389 . S
C5043 C5044 1.524 . S
C5044 C5043 1.524 . S
C5044 C5045 1.397 . S
C5044 C5049 1.363 . S
C5045 H5016 0.950 . S
C5045 C5044 1.397 . S
C5045 C5046 1.334 . S
C5046 H5017 0.950 . S
C5046 C5045 1.334 . S
C5046 C5047 1.287 . S
C5047 C5046 1.287 . S
C5047 C5048 1.524 . S
C5047 H5050 0.999 . S
C5048 H5018 0.950 . S
C5048 C5047 1.524 . S
C5048 C5049 1.415 . S
C5049 H5019 0.950 . S
C5049 C5044 1.363 . S
C5049 C5048 1.415 . S
H5050 C5047 0.999 . S
H5051 C5032 0.913 . S
H5052 C5070 0.951 . S
H5053 C5072 0.951 . S
H5054 C5074 0.950 . S
H5055 C5075 0.950 . S
H5056 C5077 0.950 . S
H5057 C5080 0.950 . S
H5058 C5081 0.950 . S
H5059 C5083 0.950 . S
H5060 C5084 0.950 . S
H5061 C5085 0.951 . S
H5062 C5087 0.951 . S
H5063 C5089 0.939 1_655 S
H5064 C5090 0.950 . S
H5065 C5092 0.950 . S
H5066 C5095 0.950 . S
H5067 C5096 0.950 . S
H5068 C5098 0.950 . S
H5069 C5099 0.950 . S
C5070 H5052 0.951 . S
C5070 C5071 1.366 . S
C5070 C5072 1.388 . S
C5071 C5070 1.366 . S
C5071 C5075 1.385 . S
C5072 H5053 0.951 . S
C5072 C5070 1.388 . S
C5072 C5073 1.366 . S
C5073 C5072 1.366 . S
C5073 C5074 1.414 . S
C5073 C5076 1.499 . S
C5074 H5054 0.950 . S
C5074 C5073 1.414 . S
C5074 C5075 1.374 . S
C5075 H5055 0.950 . S
C5075 C5071 1.385 . S
C5075 C5074 1.374 . S
C5076 C5073 1.499 . S
C5076 C5077 1.373 . S
C5076 C5078 1.389 . S
C5077 H5056 0.950 . S
C5077 C5076 1.373 . S
C5077 C5093 1.377 1_655 S
C5078 C5076 1.389 . S
C5078 C5079 1.524 . S
C5078 C5092 1.377 . S
C5079 C5078 1.524 . S
C5079 C5080 1.397 . S
C5079 C5084 1.363 . S
C5080 H5057 0.950 . S
C5080 C5079 1.397 . S
C5080 C5081 1.334 . S
C5081 H5058 0.950 . S
C5081 C5080 1.334 . S
C5081 C5082 1.287 . S
C5082 C5081 1.287 . S
C5082 C5083 1.524 . S
C5082 H5101 0.913 . S
C5083 H5059 0.950 . S
C5083 C5082 1.524 . S
C5083 C5084 1.415 . S
C5084 H5060 0.950 . S
C5084 C5079 1.363 . S
C5084 C5083 1.415 . S
C5085 H5061 0.951 . S
C5085 C5086 1.366 . S
C5085 C5087 1.388 . S
C5086 C5085 1.366 . S
C5086 C5090 1.385 . S
C5087 H5062 0.951 . S
C5087 C5085 1.388 . S
C5087 C5088 1.366 . S
C5088 C5087 1.366 . S
C5088 C5089 1.414 . S
C5088 C5091 1.499 1_455 S
C5089 H5063 0.939 1_455 S
C5089 C5088 1.414 . S
C5089 C5090 1.374 . S
C5090 H5064 0.950 . S
C5090 C5086 1.385 . S
C5090 C5089 1.374 . S
C5091 C5088 1.499 1_655 S
C5091 C5092 1.373 . S
C5091 C5093 1.389 1_655 S
C5092 H5065 0.950 . S
C5092 C5078 1.377 . S
C5092 C5091 1.373 . S
C5093 C5077 1.377 1_455 S
C5093 C5091 1.389 1_455 S
C5093 C5094 1.524 . S
C5094 C5093 1.524 . S
C5094 C5095 1.397 . S
C5094 C5099 1.363 . S
C5095 H5066 0.950 . S
C5095 C5094 1.397 . S
C5095 C5096 1.334 . S
C5096 H5067 0.950 . S
C5096 C5095 1.334 . S
C5096 C5097 1.287 . S
C5097 C5096 1.287 . S
C5097 C5098 1.524 . S
C5097 H5100 0.999 . S
C5098 H5068 0.950 . S
C5098 C5097 1.524 . S
C5098 C5099 1.415 . S
C5099 H5069 0.950 . S
C5099 C5094 1.363 . S
C5099 C5098 1.415 . S
H5100 C5097 0.999 . S
H5101 C5082 0.913 . S
H5102 C5120 0.951 . S
H5103 C5122 0.951 . S
H5104 C5124 0.950 . S
H5105 C5125 0.950 . S
H5106 C5127 0.950 . S
H5107 C5130 0.950 . S
H5108 C5131 0.950 . S
H5109 C5133 0.950 . S
H5110 C5134 0.950 . S
H5111 C5135 0.951 . S
H5112 C5137 0.951 . S
H5113 C5139 0.950 . S
H5114 C5140 0.950 . S
H5115 C5142 0.950 . S
H5116 C5145 0.950 . S
H5117 C5146 0.950 . S
H5118 C5148 0.950 . S
H5119 C5149 0.950 . S
C5120 H5102 0.951 . S
C5120 C5121 1.366 . S
C5120 C5122 1.388 . S
C5121 C5120 1.366 . S
C5121 C5125 1.385 . S
C5122 H5103 0.951 . S
C5122 C5120 1.388 . S
C5122 C5123 1.366 . S
C5123 C5122 1.366 . S
C5123 C5124 1.414 . S
C5123 C5126 1.499 . S
C5124 H5104 0.950 . S
C5124 C5123 1.414 . S
C5124 C5125 1.374 . S
C5125 H5105 0.950 . S
C5125 C5121 1.385 . S
C5125 C5124 1.374 . S
C5126 C5123 1.499 . S
C5126 C5127 1.373 . S
C5126 C5128 1.389 . S
C5127 H5106 0.950 . S
C5127 C5126 1.373 . S
C5127 C5143 1.377 . S
C5128 C5126 1.389 . S
C5128 C5129 1.524 . S
C5128 C5142 1.377 . S
C5129 C5128 1.524 . S
C5129 C5130 1.397 . S
C5129 C5134 1.363 . S
C5130 H5107 0.950 . S
C5130 C5129 1.397 . S
C5130 C5131 1.334 . S
C5131 H5108 0.950 . S
C5131 C5130 1.334 . S
C5131 C5132 1.287 . S
C5132 C5131 1.287 . S
C5132 C5133 1.524 . S
C5132 H5151 0.913 . S
C5133 H5109 0.950 . S
C5133 C5132 1.524 . S
C5133 C5134 1.415 . S
C5134 H5110 0.950 . S
C5134 C5129 1.363 . S
C5134 C5133 1.415 . S
C5135 H5111 0.951 . S
C5135 C5136 1.366 . S
C5135 C5137 1.388 . S
C5136 C5135 1.366 . S
C5136 C5140 1.385 . S
C5137 H5112 0.951 . S
C5137 C5135 1.388 . S
C5137 C5138 1.366 . S
C5138 C5137 1.366 . S
C5138 C5139 1.414 . S
C5138 C5141 1.499 . S
C5139 H5113 0.950 . S
C5139 C5138 1.414 . S
C5139 C5140 1.374 . S
C5140 H5114 0.950 . S
C5140 C5136 1.385 . S
C5140 C5139 1.374 . S
C5141 C5138 1.499 . S
C5141 C5142 1.373 . S
C5141 C5143 1.389 . S
C5142 H5115 0.950 . S
C5142 C5128 1.377 . S
C5142 C5141 1.373 . S
C5143 C5127 1.377 . S
C5143 C5141 1.389 . S
C5143 C5144 1.524 . S
C5144 C5143 1.524 . S
C5144 C5145 1.397 . S
C5144 C5149 1.363 . S
C5145 H5116 0.950 . S
C5145 C5144 1.397 . S
C5145 C5146 1.334 . S
C5146 H5117 0.950 . S
C5146 C5145 1.334 . S
C5146 C5147 1.287 . S
C5147 C5146 1.287 . S
C5147 C5148 1.524 . S
C5147 H5150 0.999 . S
C5148 H5118 0.950 . S
C5148 C5147 1.524 . S
C5148 C5149 1.415 . S
C5149 H5119 0.950 . S
C5149 C5144 1.363 . S
C5149 C5148 1.415 . S
H5150 C5147 0.999 . S
H5151 C5132 0.913 . S
H5152 C5170 0.951 . S
H5153 C5172 0.951 . S
H5154 C5174 0.950 . S
H5155 C5175 0.950 . S
H5156 C5177 0.950 . S
H5157 C5180 0.950 . S
H5158 C5181 0.950 . S
H5159 C5183 0.950 . S
H5160 C5184 0.950 . S
H5161 C5185 0.951 . S
H5162 C5187 0.951 . S
H5163 C5189 0.950 . S
H5164 C5190 0.950 . S
H5165 C5192 0.950 . S
H5166 C5195 0.950 . S
H5167 C5196 0.950 . S
H5168 C5198 0.950 . S
H5169 C5199 0.950 . S
C5170 H5152 0.951 . S
C5170 C5171 1.366 . S
C5170 C5172 1.388 . S
C5171 C5170 1.366 . S
C5171 C5175 1.385 . S
C5172 H5153 0.951 . S
C5172 C5170 1.388 . S
C5172 C5173 1.366 . S
C5173 C5172 1.366 . S
C5173 C5174 1.414 . S
C5173 C5176 1.499 . S
C5174 H5154 0.950 . S
C5174 C5173 1.414 . S
C5174 C5175 1.374 . S
C5175 H5155 0.950 . S
C5175 C5171 1.385 . S
C5175 C5174 1.374 . S
C5176 C5173 1.499 . S
C5176 C5177 1.373 . S
C5176 C5178 1.389 . S
C5177 H5156 0.950 . S
C5177 C5176 1.373 . S
C5177 C5193 1.377 . S
C5178 C5176 1.389 . S
C5178 C5179 1.524 . S
C5178 C5192 1.377 . S
C5179 C5178 1.524 . S
C5179 C5180 1.397 . S
C5179 C5184 1.363 . S
C5180 H5157 0.950 . S
C5180 C5179 1.397 . S
C5180 C5181 1.334 . S
C5181 H5158 0.950 . S
C5181 C5180 1.334 . S
C5181 C5182 1.287 . S
C5182 C5181 1.287 . S
C5182 C5183 1.524 . S
C5182 H5201 0.913 . S
C5183 H5159 0.950 . S
C5183 C5182 1.524 . S
C5183 C5184 1.415 . S
C5184 H5160 0.950 . S
C5184 C5179 1.363 . S
C5184 C5183 1.415 . S
C5185 H5161 0.951 . S
C5185 C5186 1.366 . S
C5185 C5187 1.388 . S
C5186 C5185 1.366 . S
C5186 C5190 1.385 . S
C5187 H5162 0.951 . S
C5187 C5185 1.388 . S
C5187 C5188 1.366 . S
C5188 C5187 1.366 . S
C5188 C5189 1.414 . S
C5188 C5191 1.499 . S
C5189 H5163 0.950 . S
C5189 C5188 1.414 . S
C5189 C5190 1.374 . S
C5190 H5164 0.950 . S
C5190 C5186 1.385 . S
C5190 C5189 1.374 . S
C5191 C5188 1.499 . S
C5191 C5192 1.373 . S
C5191 C5193 1.389 . S
C5192 H5165 0.950 . S
C5192 C5178 1.377 . S
C5192 C5191 1.373 . S
C5193 C5177 1.377 . S
C5193 C5191 1.389 . S
C5193 C5194 1.524 . S
C5194 C5193 1.524 . S
C5194 C5195 1.397 . S
C5194 C5199 1.363 . S
C5195 H5166 0.950 . S
C5195 C5194 1.397 . S
C5195 C5196 1.334 . S
C5196 H5167 0.950 . S
C5196 C5195 1.334 . S
C5196 C5197 1.287 . S
C5197 C5196 1.287 . S
C5197 C5198 1.524 . S
C5197 H5200 0.999 . S
C5198 H5168 0.950 . S
C5198 C5197 1.524 . S
C5198 C5199 1.415 . S
C5199 H5169 0.950 . S
C5199 C5194 1.363 . S
C5199 C5198 1.415 . S
H5200 C5197 0.999 . S
H5201 C5182 0.913 . S
H5202 C5220 0.951 . S
H5203 C5222 0.951 . S
H5204 C5224 0.950 . S
H5205 C5225 0.950 . S
H5206 C5227 0.950 . S
H5207 C5230 0.950 . S
H5208 C5231 0.950 . S
H5209 C5233 0.950 . S
H5210 C5234 0.950 . S
H5211 C5235 0.951 . S
H5212 C5237 0.951 . S
H5213 C5239 0.950 . S
H5214 C5240 0.950 . S
H5215 C5242 0.950 . S
H5216 C5245 0.950 . S
H5217 C5246 0.950 . S
H5218 C5248 0.950 . S
H5219 C5249 0.950 . S
C5220 H5202 0.951 . S
C5220 C5221 1.366 . S
C5220 C5222 1.388 . S
C5221 C5220 1.366 . S
C5221 C5225 1.385 . S
C5222 H5203 0.951 . S
C5222 C5220 1.388 . S
C5222 C5223 1.366 . S
C5223 C5222 1.366 . S
C5223 C5224 1.414 . S
C5223 C5226 1.499 . S
C5224 H5204 0.950 . S
C5224 C5223 1.414 . S
C5224 C5225 1.374 . S
C5225 H5205 0.950 . S
C5225 C5221 1.385 . S
C5225 C5224 1.374 . S
C5226 C5223 1.499 . S
C5226 C5227 1.373 . S
C5226 C5228 1.389 . S
C5227 H5206 0.950 . S
C5227 C5226 1.373 . S
C5227 C5243 1.377 . S
C5228 C5226 1.389 . S
C5228 C5229 1.524 . S
C5228 C5242 1.377 . S
C5229 C5228 1.524 . S
C5229 C5230 1.397 . S
C5229 C5234 1.363 . S
C5230 H5207 0.950 . S
C5230 C5229 1.397 . S
C5230 C5231 1.334 . S
C5231 H5208 0.950 . S
C5231 C5230 1.334 . S
C5231 C5232 1.287 . S
C5232 C5231 1.287 . S
C5232 C5233 1.524 . S
C5232 H5251 0.913 . S
C5233 H5209 0.950 . S
C5233 C5232 1.524 . S
C5233 C5234 1.415 . S
C5234 H5210 0.950 . S
C5234 C5229 1.363 . S
C5234 C5233 1.415 . S
C5235 H5211 0.951 . S
C5235 C5236 1.366 . S
C5235 C5237 1.388 . S
C5236 C5235 1.366 . S
C5236 C5240 1.385 . S
C5237 H5212 0.951 . S
C5237 C5235 1.388 . S
C5237 C5238 1.366 . S
C5238 C5237 1.366 . S
C5238 C5239 1.414 . S
C5238 C5241 1.499 . S
C5239 H5213 0.950 . S
C5239 C5238 1.414 . S
C5239 C5240 1.374 . S
C5240 H5214 0.950 . S
C5240 C5236 1.385 . S
C5240 C5239 1.374 . S
C5241 C5238 1.499 . S
C5241 C5242 1.373 . S
C5241 C5243 1.389 . S
C5242 H5215 0.950 . S
C5242 C5228 1.377 . S
C5242 C5241 1.373 . S
C5243 C5227 1.377 . S
C5243 C5241 1.389 . S
C5243 C5244 1.524 . S
C5244 C5243 1.524 . S
C5244 C5245 1.397 . S
C5244 C5249 1.363 . S
C5245 H5216 0.950 . S
C5245 C5244 1.397 . S
C5245 C5246 1.334 . S
C5246 H5217 0.950 . S
C5246 C5245 1.334 . S
C5246 C5247 1.287 . S
C5247 C5246 1.287 . S
C5247 C5248 1.524 . S
C5247 H5250 0.999 . S
C5248 H5218 0.950 . S
C5248 C5247 1.524 . S
C5248 C5249 1.415 . S
C5249 H5219 0.950 . S
C5249 C5244 1.363 . S
C5249 C5248 1.415 . S
H5250 C5247 0.999 . S
H5251 C5232 0.913 . S
H5252 C5270 0.951 . S
H5253 C5272 0.951 . S
H5254 C5274 0.950 . S
H5255 C5275 0.950 . S
H5256 C5277 0.950 . S
H5257 C5280 0.950 . S
H5258 C5281 0.950 . S
H5259 C5283 0.950 . S
H5260 C5284 0.950 . S
H5261 C5285 0.951 . S
H5262 C5287 0.951 . S
H5263 C5289 0.950 . S
H5264 C5290 0.950 . S
H5265 C5292 0.950 . S
H5266 C5295 0.950 . S
H5267 C5296 0.950 . S
H5268 C5298 0.950 . S
H5269 C5299 0.950 . S
C5270 H5252 0.951 . S
C5270 C5271 1.366 . S
C5270 C5272 1.388 . S
C5271 C5270 1.366 . S
C5271 C5275 1.385 . S
C5272 H5253 0.951 . S
C5272 C5270 1.388 . S
C5272 C5273 1.366 . S
C5273 C5272 1.366 . S
C5273 C5274 1.414 . S
C5273 C5276 1.499 . S
C5274 H5254 0.950 . S
C5274 C5273 1.414 . S
C5274 C5275 1.374 . S
C5275 H5255 0.950 . S
C5275 C5271 1.385 . S
C5275 C5274 1.374 . S
C5276 C5273 1.499 . S
C5276 C5277 1.373 . S
C5276 C5278 1.389 . S
C5277 H5256 0.950 . S
C5277 C5276 1.373 . S
C5277 C5293 1.377 . S
C5278 C5276 1.389 . S
C5278 C5279 1.524 . S
C5278 C5292 1.377 . S
C5279 C5278 1.524 . S
C5279 C5280 1.397 . S
C5279 C5284 1.363 . S
C5280 H5257 0.950 . S
C5280 C5279 1.397 . S
C5280 C5281 1.334 1_655 S
C5281 H5258 0.950 . S
C5281 C5280 1.334 1_455 S
C5281 C5282 1.287 . S
C5282 C5281 1.287 . S
C5282 C5283 1.524 1_455 S
C5282 H5301 0.913 . S
C5283 H5259 0.950 . S
C5283 C5282 1.524 1_655 S
C5283 C5284 1.415 . S
C5284 H5260 0.950 . S
C5284 C5279 1.363 . S
C5284 C5283 1.415 . S
C5285 H5261 0.951 . S
C5285 C5286 1.366 . S
C5285 C5287 1.388 1_455 S
C5286 C5285 1.366 . S
C5286 C5290 1.385 . S
C5287 H5262 0.951 . S
C5287 C5285 1.388 1_655 S
C5287 C5288 1.366 . S
C5288 C5287 1.366 . S
C5288 C5289 1.414 . S
C5288 C5291 1.499 . S
C5289 H5263 0.950 . S
C5289 C5288 1.414 . S
C5289 C5290 1.374 1_655 S
C5290 H5264 0.950 . S
C5290 C5286 1.385 . S
C5290 C5289 1.374 1_455 S
C5291 C5288 1.499 . S
C5291 C5292 1.373 . S
C5291 C5293 1.389 . S
C5292 H5265 0.950 . S
C5292 C5278 1.377 . S
C5292 C5291 1.373 . S
C5293 C5277 1.377 . S
C5293 C5291 1.389 . S
C5293 C5294 1.524 . S
C5294 C5293 1.524 . S
C5294 C5295 1.397 . S
C5294 C5299 1.363 . S
C5295 H5266 0.950 . S
C5295 C5294 1.397 . S
C5295 C5296 1.334 . S
C5296 H5267 0.950 . S
C5296 C5295 1.334 . S
C5296 C5297 1.287 . S
C5297 C5296 1.287 . S
C5297 C5298 1.524 . S
C5297 H5300 0.999 . S
C5298 H5268 0.950 . S
C5298 C5297 1.524 . S
C5298 C5299 1.415 . S
C5299 H5269 0.950 . S
C5299 C5294 1.363 . S
C5299 C5298 1.415 . S
H5300 C5297 0.999 . S
H5301 C5282 0.913 . S
H5302 C5320 0.951 . S
H5303 C5322 0.951 . S
H5304 C5324 0.950 . S
H5305 C5325 0.950 . S
H5306 C5327 0.950 . S
H5307 C5330 0.950 . S
H5308 C5331 0.950 . S
H5309 C5333 0.950 . S
H5310 C5334 0.950 . S
H5311 C5335 0.951 . S
H5312 C5337 0.951 . S
H5313 C5339 0.950 . S
H5314 C5340 0.950 . S
H5315 C5342 0.950 . S
H5316 C5345 0.950 . S
H5317 C5346 0.950 . S
H5318 C5348 0.950 . S
H5319 C5349 0.950 . S
C5320 H5302 0.951 . S
C5320 C5321 1.366 . S
C5320 C5322 1.388 . S
C5321 C5320 1.366 . S
C5321 C5325 1.385 . S
C5322 H5303 0.951 . S
C5322 C5320 1.388 . S
C5322 C5323 1.366 . S
C5323 C5322 1.366 . S
C5323 C5324 1.414 . S
C5323 C5326 1.499 . S
C5324 H5304 0.950 . S
C5324 C5323 1.414 . S
C5324 C5325 1.374 . S
C5325 H5305 0.950 . S
C5325 C5321 1.385 . S
C5325 C5324 1.374 . S
C5326 C5323 1.499 . S
C5326 C5327 1.373 . S
C5326 C5328 1.389 . S
C5327 H5306 0.950 . S
C5327 C5326 1.373 . S
C5327 C5343 1.377 . S
C5328 C5326 1.389 . S
C5328 C5329 1.524 . S
C5328 C5342 1.377 . S
C5329 C5328 1.524 . S
C5329 C5330 1.397 . S
C5329 C5334 1.363 . S
C5330 H5307 0.950 . S
C5330 C5329 1.397 . S
C5330 C5331 1.334 . S
C5331 H5308 0.950 . S
C5331 C5330 1.334 . S
C5331 C5332 1.287 . S
C5332 C5331 1.287 . S
C5332 C5333 1.524 . S
C5332 H5351 0.913 . S
C5333 H5309 0.950 . S
C5333 C5332 1.524 . S
C5333 C5334 1.415 . S
C5334 H5310 0.950 . S
C5334 C5329 1.363 . S
C5334 C5333 1.415 . S
C5335 H5311 0.951 . S
C5335 C5336 1.366 . S
C5335 C5337 1.388 . S
C5336 C5335 1.366 . S
C5336 C5340 1.385 . S
C5337 H5312 0.951 . S
C5337 C5335 1.388 . S
C5337 C5338 1.366 . S
C5338 C5337 1.366 . S
C5338 C5339 1.414 . S
C5338 C5341 1.499 . S
C5339 H5313 0.950 . S
C5339 C5338 1.414 . S
C5339 C5340 1.374 . S
C5340 H5314 0.950 . S
C5340 C5336 1.385 . S
C5340 C5339 1.374 . S
C5341 C5338 1.499 . S
C5341 C5342 1.373 . S
C5341 C5343 1.389 . S
C5342 H5315 0.950 . S
C5342 C5328 1.377 . S
C5342 C5341 1.373 . S
C5343 C5327 1.377 . S
C5343 C5341 1.389 . S
C5343 C5344 1.524 . S
C5344 C5343 1.524 . S
C5344 C5345 1.397 . S
C5344 C5349 1.363 . S
C5345 H5316 0.950 . S
C5345 C5344 1.397 . S
C5345 C5346 1.334 . S
C5346 H5317 0.950 . S
C5346 C5345 1.334 . S
C5346 C5347 1.287 . S
C5347 C5346 1.287 . S
C5347 C5348 1.524 . S
C5347 H5350 0.999 . S
C5348 H5318 0.950 . S
C5348 C5347 1.524 . S
C5348 C5349 1.415 . S
C5349 H5319 0.950 . S
C5349 C5344 1.363 . S
C5349 C5348 1.415 . S
H5350 C5347 0.999 . S
H5351 C5332 0.913 . S
H5352 C5370 0.951 . S
H5353 C5372 0.951 . S
H5354 C5374 0.950 . S
H5355 C5375 0.950 . S
H5356 C5377 0.950 . S
H5357 C5380 0.950 . S
H5358 C5381 0.950 . S
H5359 C5383 0.950 . S
H5360 C5384 0.950 . S
H5361 C5385 0.951 . S
H5362 C5387 0.951 . S
H5363 C5389 0.950 . S
H5364 C5390 0.950 . S
H5365 C5392 0.950 . S
H5366 C5395 0.950 . S
H5367 C5396 0.950 . S
H5368 C5398 0.950 . S
H5369 C5399 0.950 . S
C5370 H5352 0.951 . S
C5370 C5371 1.366 . S
C5370 C5372 1.388 . S
C5371 C5370 1.366 . S
C5371 C5375 1.385 . S
C5372 H5353 0.951 . S
C5372 C5370 1.388 . S
C5372 C5373 1.366 . S
C5373 C5372 1.366 . S
C5373 C5374 1.414 . S
C5373 C5376 1.499 . S
C5374 H5354 0.950 . S
C5374 C5373 1.414 . S
C5374 C5375 1.374 . S
C5375 H5355 0.950 . S
C5375 C5371 1.385 . S
C5375 C5374 1.374 . S
C5376 C5373 1.499 . S
C5376 C5377 1.373 . S
C5376 C5378 1.389 . S
C5377 H5356 0.950 . S
C5377 C5376 1.373 . S
C5377 C5393 1.377 . S
C5378 C5376 1.389 . S
C5378 C5379 1.524 . S
C5378 C5392 1.377 . S
C5379 C5378 1.524 . S
C5379 C5380 1.397 . S
C5379 C5384 1.363 . S
C5380 H5357 0.950 . S
C5380 C5379 1.397 . S
C5380 C5381 1.334 . S
C5381 H5358 0.950 . S
C5381 C5380 1.334 . S
C5381 C5382 1.287 . S
C5382 C5381 1.287 . S
C5382 C5383 1.524 . S
C5382 H5401 0.913 . S
C5383 H5359 0.950 . S
C5383 C5382 1.524 . S
C5383 C5384 1.415 . S
C5384 H5360 0.950 . S
C5384 C5379 1.363 . S
C5384 C5383 1.415 . S
C5385 H5361 0.951 . S
C5385 C5386 1.366 . S
C5385 C5387 1.388 . S
C5386 C5385 1.366 . S
C5386 C5390 1.385 . S
C5387 H5362 0.951 . S
C5387 C5385 1.388 . S
C5387 C5388 1.366 . S
C5388 C5387 1.366 . S
C5388 C5389 1.414 . S
C5388 C5391 1.499 . S
C5389 H5363 0.950 . S
C5389 C5388 1.414 . S
C5389 C5390 1.374 . S
C5390 H5364 0.950 . S
C5390 C5386 1.385 . S
C5390 C5389 1.374 . S
C5391 C5388 1.499 . S
C5391 C5392 1.373 . S
C5391 C5393 1.389 . S
C5392 H5365 0.950 . S
C5392 C5378 1.377 . S
C5392 C5391 1.373 . S
C5393 C5377 1.377 . S
C5393 C5391 1.389 . S
C5393 C5394 1.524 . S
C5394 C5393 1.524 . S
C5394 C5395 1.397 . S
C5394 C5399 1.363 . S
C5395 H5366 0.950 . S
C5395 C5394 1.397 . S
C5395 C5396 1.334 . S
C5396 H5367 0.950 . S
C5396 C5395 1.334 . S
C5396 C5397 1.287 . S
C5397 C5396 1.287 . S
C5397 C5398 1.524 . S
C5397 H5400 0.999 . S
C5398 H5368 0.950 . S
C5398 C5397 1.524 . S
C5398 C5399 1.415 . S
C5399 H5369 0.950 . S
C5399 C5394 1.363 . S
C5399 C5398 1.415 . S
H5400 C5397 0.999 . S
H5401 C5382 0.913 . S
H5402 C5420 0.951 . S
H5403 C5422 0.951 . S
H5404 C5424 0.950 . S
H5405 C5425 0.950 . S
H5406 C5427 0.950 . S
H5407 C5430 0.950 . S
H5408 C5431 0.950 . S
H5409 C5433 0.950 . S
H5410 C5434 0.950 . S
H5411 C5435 0.951 . S
H5412 C5437 0.951 1_545 S
H5413 C5439 0.950 . S
H5414 C5440 0.950 . S
H5415 C5442 0.950 . S
H5416 C5445 0.950 . S
H5417 C5446 0.946 . S
H5418 C5448 0.950 . S
H5419 C5449 0.950 . S
C5420 H5402 0.951 . S
C5420 C5421 1.366 . S
C5420 C5422 1.388 . S
C5421 C5420 1.366 . S
C5421 C5425 1.385 . S
C5422 H5403 0.951 . S
C5422 C5420 1.388 . S
C5422 C5423 1.366 . S
C5423 C5422 1.366 . S
C5423 C5424 1.414 . S
C5423 C5426 1.499 . S
C5424 H5404 0.950 . S
C5424 C5423 1.414 . S
C5424 C5425 1.374 . S
C5425 H5405 0.950 . S
C5425 C5421 1.385 . S
C5425 C5424 1.374 . S
C5426 C5423 1.499 . S
C5426 C5427 1.373 . S
C5426 C5428 1.389 . S
C5427 H5406 0.950 . S
C5427 C5426 1.373 . S
C5427 C5443 1.377 . S
C5428 C5426 1.389 . S
C5428 C5429 1.524 . S
C5428 C5442 1.377 . S
C5429 C5428 1.524 . S
C5429 C5430 1.397 . S
C5429 C5434 1.363 . S
C5430 H5407 0.950 . S
C5430 C5429 1.397 . S
C5430 C5431 1.334 . S
C5431 H5408 0.950 . S
C5431 C5430 1.334 . S
C5431 C5432 1.287 . S
C5432 C5431 1.287 . S
C5432 C5433 1.524 . S
C5432 H5451 0.913 . S
C5433 H5409 0.950 . S
C5433 C5432 1.524 . S
C5433 C5434 1.415 . S
C5434 H5410 0.950 . S
C5434 C5429 1.363 . S
C5434 C5433 1.415 . S
C5435 H5411 0.951 . S
C5435 C5436 1.366 . S
C5435 C5437 1.388 1_545 S
C5436 C5435 1.366 . S
C5436 C5440 1.385 1_545 S
C5437 H5412 0.951 1_565 S
C5437 C5435 1.388 1_565 S
C5437 C5438 1.366 . S
C5438 C5437 1.366 . S
C5438 C5439 1.414 . S
C5438 C5441 1.499 . S
C5439 H5413 0.950 . S
C5439 C5438 1.414 . S
C5439 C5440 1.374 . S
C5440 H5414 0.950 . S
C5440 C5436 1.385 1_565 S
C5440 C5439 1.374 . S
C5441 C5438 1.499 . S
C5441 C5442 1.373 . S
C5441 C5443 1.389 . S
C5442 H5415 0.950 . S
C5442 C5428 1.377 . S
C5442 C5441 1.373 . S
C5443 C5427 1.377 . S
C5443 C5441 1.389 . S
C5443 C5444 1.524 . S
C5444 C5443 1.524 . S
C5444 C5445 1.397 . S
C5444 C5449 1.363 . S
C5445 H5416 0.950 . S
C5445 C5444 1.397 . S
C5445 C5446 1.334 . S
C5446 H5417 0.946 . S
C5446 C5445 1.334 . S
C5446 C5447 1.287 1_565 S
C5447 C5446 1.287 1_545 S
C5447 C5448 1.524 . S
C5447 H5450 0.999 . S
C5448 H5418 0.950 . S
C5448 C5447 1.524 . S
C5448 C5449 1.415 1_545 S
C5449 H5419 0.950 . S
C5449 C5444 1.363 . S
C5449 C5448 1.415 1_565 S
H5450 C5447 0.999 . S
H5451 C5432 0.913 . S
H5452 C5470 0.951 . S
H5453 C5472 0.951 . S
H5454 C5474 0.950 . S
H5455 C5475 0.950 . S
H5456 C5477 0.950 . S
H5457 C5480 0.950 . S
H5458 C5481 0.950 . S
H5459 C5483 0.950 . S
H5460 C5484 0.950 . S
H5461 C5485 0.951 . S
H5462 C5487 0.951 . S
H5463 C5489 0.950 . S
H5464 C5490 0.950 . S
H5465 C5492 0.950 . S
H5466 C5495 0.950 . S
H5467 C5496 0.950 . S
H5468 C5498 0.950 . S
H5469 C5499 0.950 . S
C5470 H5452 0.951 . S
C5470 C5471 1.366 . S
C5470 C5472 1.388 . S
C5471 C5470 1.366 . S
C5471 C5475 1.385 . S
C5472 H5453 0.951 . S
C5472 C5470 1.388 . S
C5472 C5473 1.366 . S
C5473 C5472 1.366 . S
C5473 C5474 1.414 . S
C5473 C5476 1.499 . S
C5474 H5454 0.950 . S
C5474 C5473 1.414 . S
C5474 C5475 1.374 . S
C5475 H5455 0.950 . S
C5475 C5471 1.385 . S
C5475 C5474 1.374 . S
C5476 C5473 1.499 . S
C5476 C5477 1.373 . S
C5476 C5478 1.389 . S
C5477 H5456 0.950 . S
C5477 C5476 1.373 . S
C5477 C5493 1.377 . S
C5478 C5476 1.389 . S
C5478 C5479 1.524 . S
C5478 C5492 1.377 . S
C5479 C5478 1.524 . S
C5479 C5480 1.397 . S
C5479 C5484 1.363 . S
C5480 H5457 0.950 . S
C5480 C5479 1.397 . S
C5480 C5481 1.334 . S
C5481 H5458 0.950 . S
C5481 C5480 1.334 . S
C5481 C5482 1.287 . S
C5482 C5481 1.287 . S
C5482 C5483 1.524 . S
C5482 H5501 0.913 . S
C5483 H5459 0.950 . S
C5483 C5482 1.524 . S
C5483 C5484 1.415 . S
C5484 H5460 0.950 . S
C5484 C5479 1.363 . S
C5484 C5483 1.415 . S
C5485 H5461 0.951 . S
C5485 C5486 1.366 . S
C5485 C5487 1.388 . S
C5486 C5485 1.366 . S
C5486 C5490 1.385 . S
C5487 H5462 0.951 . S
C5487 C5485 1.388 . S
C5487 C5488 1.366 . S
C5488 C5487 1.366 . S
C5488 C5489 1.414 . S
C5488 C5491 1.499 . S
C5489 H5463 0.950 . S
C5489 C5488 1.414 . S
C5489 C5490 1.374 . S
C5490 H5464 0.950 . S
C5490 C5486 1.385 . S
C5490 C5489 1.374 . S
C5491 C5488 1.499 . S
C5491 C5492 1.373 . S
C5491 C5493 1.389 . S
C5492 H5465 0.950 . S
C5492 C5478 1.377 . S
C5492 C5491 1.373 . S
C5493 C5477 1.377 . S
C5493 C5491 1.389 . S
C5493 C5494 1.524 . S
C5494 C5493 1.524 . S
C5494 C5495 1.397 . S
C5494 C5499 1.363 . S
C5495 H5466 0.950 . S
C5495 C5494 1.397 . S
C5495 C5496 1.334 . S
C5496 H5467 0.950 . S
C5496 C5495 1.334 . S
C5496 C5497 1.287 . S
C5497 C5496 1.287 . S
C5497 C5498 1.524 . S
C5497 H5500 0.999 . S
C5498 H5468 0.950 . S
C5498 C5497 1.524 . S
C5498 C5499 1.415 . S
C5499 H5469 0.950 . S
C5499 C5494 1.363 . S
C5499 C5498 1.415 . S
H5500 C5497 0.999 . S
H5501 C5482 0.913 . S
H5502 C5520 0.951 . S
H5503 C5522 0.951 . S
H5504 C5524 0.950 . S
H5505 C5525 0.950 . S
H5506 C5527 0.950 . S
H5507 C5530 0.950 . S
H5508 C5531 0.950 . S
H5509 C5533 0.950 . S
H5510 C5534 0.950 1_554 S
H5511 C5535 0.951 . S
H5512 C5537 0.951 . S
H5513 C5539 0.950 . S
H5514 C5540 0.950 . S
H5515 C5542 0.950 . S
H5516 C5545 0.950 . S
H5517 C5546 0.950 . S
H5518 C5548 0.950 . S
H5519 C5549 0.950 . S
C5520 H5502 0.951 . S
C5520 C5521 1.366 . S
C5520 C5522 1.388 . S
C5521 C5520 1.366 . S
C5521 C5525 1.385 . S
C5522 H5503 0.951 . S
C5522 C5520 1.388 . S
C5522 C5523 1.366 . S
C5523 C5522 1.366 . S
C5523 C5524 1.414 . S
C5523 C5526 1.499 . S
C5524 H5504 0.950 . S
C5524 C5523 1.414 . S
C5524 C5525 1.374 . S
C5525 H5505 0.950 . S
C5525 C5521 1.385 . S
C5525 C5524 1.374 . S
C5526 C5523 1.499 . S
C5526 C5527 1.373 . S
C5526 C5528 1.389 . S
C5527 H5506 0.950 . S
C5527 C5526 1.373 . S
C5527 C5543 1.377 . S
C5528 C5526 1.389 . S
C5528 C5529 1.524 . S
C5528 C5542 1.377 . S
C5529 C5528 1.524 . S
C5529 C5530 1.397 . S
C5529 C5534 1.363 1_554 S
C5530 H5507 0.950 . S
C5530 C5529 1.397 . S
C5530 C5531 1.334 1_554 S
C5531 H5508 0.950 . S
C5531 C5530 1.334 1_556 S
C5531 C5532 1.287 . S
C5532 C5531 1.287 . S
C5532 C5533 1.524 . S
C5532 H5551 0.913 . S
C5533 H5509 0.950 . S
C5533 C5532 1.524 . S
C5533 C5534 1.415 . S
C5534 H5510 0.950 1_556 S
C5534 C5529 1.363 1_556 S
C5534 C5533 1.415 . S
C5535 H5511 0.951 . S
C5535 C5536 1.366 . S
C5535 C5537 1.388 . S
C5536 C5535 1.366 . S
C5536 C5540 1.385 . S
C5537 H5512 0.951 . S
C5537 C5535 1.388 . S
C5537 C5538 1.366 . S
C5538 C5537 1.366 . S
C5538 C5539 1.414 . S
C5538 C5541 1.499 . S
C5539 H5513 0.950 . S
C5539 C5538 1.414 . S
C5539 C5540 1.374 . S
C5540 H5514 0.950 . S
C5540 C5536 1.385 . S
C5540 C5539 1.374 . S
C5541 C5538 1.499 . S
C5541 C5542 1.373 . S
C5541 C5543 1.389 . S
C5542 H5515 0.950 . S
C5542 C5528 1.377 . S
C5542 C5541 1.373 . S
C5543 C5527 1.377 . S
C5543 C5541 1.389 . S
C5543 C5544 1.524 . S
C5544 C5543 1.524 . S
C5544 C5545 1.397 . S
C5544 C5549 1.363 . S
C5545 H5516 0.950 . S
C5545 C5544 1.397 . S
C5545 C5546 1.334 . S
C5546 H5517 0.950 . S
C5546 C5545 1.334 . S
C5546 C5547 1.287 . S
C5547 C5546 1.287 . S
C5547 C5548 1.524 . S
C5547 H5550 0.999 . S
C5548 H5518 0.950 . S
C5548 C5547 1.524 . S
C5548 C5549 1.415 . S
C5549 H5519 0.950 . S
C5549 C5544 1.363 . S
C5549 C5548 1.415 . S
H5550 C5547 0.999 . S
H5551 C5532 0.913 . S
H5552 C5570 0.951 . S
H5553 C5572 0.951 . S
H5554 C5574 0.950 . S
H5555 C5575 0.950 . S
H5556 C5577 0.950 . S
H5557 C5580 0.950 . S
H5558 C5581 0.950 . S
H5559 C5583 0.950 . S
H5560 C5584 0.950 . S
H5561 C5585 0.951 . S
H5562 C5587 0.951 . S
H5563 C5589 0.950 . S
H5564 C5590 0.950 . S
H5565 C5592 0.950 . S
H5566 C5595 0.950 . S
H5567 C5596 0.950 . S
H5568 C5598 0.950 . S
H5569 C5599 0.950 . S
C5570 H5552 0.951 . S
C5570 C5571 1.366 . S
C5570 C5572 1.388 . S
C5571 C5570 1.366 . S
C5571 C5575 1.385 . S
C5572 H5553 0.951 . S
C5572 C5570 1.388 . S
C5572 C5573 1.366 . S
C5573 C5572 1.366 . S
C5573 C5574 1.414 . S
C5573 C5576 1.499 . S
C5574 H5554 0.950 . S
C5574 C5573 1.414 . S
C5574 C5575 1.374 . S
C5575 H5555 0.950 . S
C5575 C5571 1.385 . S
C5575 C5574 1.374 . S
C5576 C5573 1.499 . S
C5576 C5577 1.373 . S
C5576 C5578 1.389 . S
C5577 H5556 0.950 . S
C5577 C5576 1.373 . S
C5577 C5593 1.377 . S
C5578 C5576 1.389 . S
C5578 C5579 1.524 . S
C5578 C5592 1.377 . S
C5579 C5578 1.524 . S
C5579 C5580 1.397 . S
C5579 C5584 1.363 . S
C5580 H5557 0.950 . S
C5580 C5579 1.397 . S
C5580 C5581 1.334 . S
C5581 H5558 0.950 . S
C5581 C5580 1.334 . S
C5581 C5582 1.287 . S
C5582 C5581 1.287 . S
C5582 C5583 1.524 . S
C5582 H5601 0.913 . S
C5583 H5559 0.950 . S
C5583 C5582 1.524 . S
C5583 C5584 1.415 . S
C5584 H5560 0.950 . S
C5584 C5579 1.363 . S
C5584 C5583 1.415 . S
C5585 H5561 0.951 . S
C5585 C5586 1.366 . S
C5585 C5587 1.388 . S
C5586 C5585 1.366 . S
C5586 C5590 1.385 . S
C5587 H5562 0.951 . S
C5587 C5585 1.388 . S
C5587 C5588 1.366 . S
C5588 C5587 1.366 . S
C5588 C5589 1.414 . S
C5588 C5591 1.499 . S
C5589 H5563 0.950 . S
C5589 C5588 1.414 . S
C5589 C5590 1.374 . S
C5590 H5564 0.950 . S
C5590 C5586 1.385 . S
C5590 C5589 1.374 . S
C5591 C5588 1.499 . S
C5591 C5592 1.373 . S
C5591 C5593 1.389 . S
C5592 H5565 0.950 . S
C5592 C5578 1.377 . S
C5592 C5591 1.373 . S
C5593 C5577 1.377 . S
C5593 C5591 1.389 . S
C5593 C5594 1.524 . S
C5594 C5593 1.524 . S
C5594 C5595 1.397 . S
C5594 C5599 1.363 . S
C5595 H5566 0.950 . S
C5595 C5594 1.397 . S
C5595 C5596 1.334 . S
C5596 H5567 0.950 . S
C5596 C5595 1.334 . S
C5596 C5597 1.287 . S
C5597 C5596 1.287 . S
C5597 C5598 1.524 . S
C5597 H5600 0.999 . S
C5598 H5568 0.950 . S
C5598 C5597 1.524 . S
C5598 C5599 1.415 . S
C5599 H5569 0.950 . S
C5599 C5594 1.363 . S
C5599 C5598 1.415 . S
H5600 C5597 0.999 . S
H5601 C5582 0.913 . S
H5602 C5620 0.951 . S
H5603 C5622 0.951 . S
H5604 C5624 0.950 . S
H5605 C5625 0.950 . S
H5606 C5627 0.950 . S
H5607 C5630 0.950 . S
H5608 C5631 0.950 . S
H5609 C5633 0.950 . S
H5610 C5634 0.950 . S
H5611 C5635 0.951 . S
H5612 C5637 0.951 . S
H5613 C5639 0.950 . S
H5614 C5640 0.950 . S
H5615 C5642 0.950 . S
H5616 C5645 0.950 . S
H5617 C5646 0.950 . S
H5618 C5648 0.950 . S
H5619 C5649 0.950 . S
C5620 H5602 0.951 . S
C5620 C5621 1.366 . S
C5620 C5622 1.388 . S
C5621 C5620 1.366 . S
C5621 C5625 1.385 . S
C5622 H5603 0.951 . S
C5622 C5620 1.388 . S
C5622 C5623 1.366 . S
C5623 C5622 1.366 . S
C5623 C5624 1.414 . S
C5623 C5626 1.499 . S
C5624 H5604 0.950 . S
C5624 C5623 1.414 . S
C5624 C5625 1.374 . S
C5625 H5605 0.950 . S
C5625 C5621 1.385 . S
C5625 C5624 1.374 . S
C5626 C5623 1.499 . S
C5626 C5627 1.373 1_554 S
C5626 C5628 1.389 . S
C5627 H5606 0.950 . S
C5627 C5626 1.373 1_556 S
C5627 C5643 1.377 . S
C5628 C5626 1.389 . S
C5628 C5629 1.524 . S
C5628 C5642 1.377 . S
C5629 C5628 1.524 . S
C5629 C5630 1.397 . S
C5629 C5634 1.363 . S
C5630 H5607 0.950 . S
C5630 C5629 1.397 . S
C5630 C5631 1.334 . S
C5631 H5608 0.950 . S
C5631 C5630 1.334 . S
C5631 C5632 1.287 . S
C5632 C5631 1.287 . S
C5632 C5633 1.524 . S
C5632 H5651 0.913 . S
C5633 H5609 0.950 . S
C5633 C5632 1.524 . S
C5633 C5634 1.415 . S
C5634 H5610 0.950 . S
C5634 C5629 1.363 . S
C5634 C5633 1.415 . S
C5635 H5611 0.951 . S
C5635 C5636 1.366 . S
C5635 C5637 1.388 . S
C5636 C5635 1.366 . S
C5636 C5640 1.385 1_556 S
C5637 H5612 0.951 . S
C5637 C5635 1.388 . S
C5637 C5638 1.366 1_556 S
C5638 C5637 1.366 1_554 S
C5638 C5639 1.414 . S
C5638 C5641 1.499 . S
C5639 H5613 0.950 . S
C5639 C5638 1.414 . S
C5639 C5640 1.374 . S
C5640 H5614 0.950 . S
C5640 C5636 1.385 1_554 S
C5640 C5639 1.374 . S
C5641 C5638 1.499 . S
C5641 C5642 1.373 . S
C5641 C5643 1.389 1_554 S
C5642 H5615 0.950 . S
C5642 C5628 1.377 . S
C5642 C5641 1.373 . S
C5643 C5627 1.377 . S
C5643 C5641 1.389 1_556 S
C5643 C5644 1.524 . S
C5644 C5643 1.524 . S
C5644 C5645 1.397 . S
C5644 C5649 1.363 . S
C5645 H5616 0.950 . S
C5645 C5644 1.397 . S
C5645 C5646 1.334 . S
C5646 H5617 0.950 . S
C5646 C5645 1.334 . S
C5646 C5647 1.287 . S
C5647 C5646 1.287 . S
C5647 C5648 1.524 . S
C5647 H5650 0.999 . S
C5648 H5618 0.950 . S
C5648 C5647 1.524 . S
C5648 C5649 1.415 . S
C5649 H5619 0.950 . S
C5649 C5644 1.363 . S
C5649 C5648 1.415 . S
H5650 C5647 0.999 . S
H5651 C5632 0.913 . S
H5652 C5670 0.951 . S
H5653 C5672 0.951 . S
H5654 C5674 0.950 . S
H5655 C5675 0.950 . S
H5656 C5677 0.950 . S
H5657 C5680 0.950 . S
H5658 C5681 0.950 . S
H5659 C5683 0.950 . S
H5660 C5684 0.950 . S
H5661 C5685 0.951 . S
H5662 C5687 0.951 . S
H5663 C5689 0.950 . S
H5664 C5690 0.950 . S
H5665 C5692 0.950 . S
H5666 C5695 0.950 . S
H5667 C5696 0.950 . S
H5668 C5698 0.950 . S
H5669 C5699 0.950 . S
C5670 H5652 0.951 . S
C5670 C5671 1.366 . S
C5670 C5672 1.388 . S
C5671 C5670 1.366 . S
C5671 C5675 1.385 . S
C5672 H5653 0.951 . S
C5672 C5670 1.388 . S
C5672 C5673 1.366 . S
C5673 C5672 1.366 . S
C5673 C5674 1.414 . S
C5673 C5676 1.499 . S
C5674 H5654 0.950 . S
C5674 C5673 1.414 . S
C5674 C5675 1.374 . S
C5675 H5655 0.950 . S
C5675 C5671 1.385 . S
C5675 C5674 1.374 . S
C5676 C5673 1.499 . S
C5676 C5677 1.373 . S
C5676 C5678 1.389 . S
C5677 H5656 0.950 . S
C5677 C5676 1.373 . S
C5677 C5693 1.377 . S
C5678 C5676 1.389 . S
C5678 C5679 1.524 . S
C5678 C5692 1.377 . S
C5679 C5678 1.524 . S
C5679 C5680 1.397 . S
C5679 C5684 1.363 . S
C5680 H5657 0.950 . S
C5680 C5679 1.397 . S
C5680 C5681 1.334 . S
C5681 H5658 0.950 . S
C5681 C5680 1.334 . S
C5681 C5682 1.287 . S
C5682 C5681 1.287 . S
C5682 C5683 1.524 . S
C5682 H5701 0.913 . S
C5683 H5659 0.950 . S
C5683 C5682 1.524 . S
C5683 C5684 1.415 . S
C5684 H5660 0.950 . S
C5684 C5679 1.363 . S
C5684 C5683 1.415 . S
C5685 H5661 0.951 . S
C5685 C5686 1.366 . S
C5685 C5687 1.388 . S
C5686 C5685 1.366 . S
C5686 C5690 1.385 . S
C5687 H5662 0.951 . S
C5687 C5685 1.388 . S
C5687 C5688 1.366 . S
C5688 C5687 1.366 . S
C5688 C5689 1.414 . S
C5688 C5691 1.499 . S
C5689 H5663 0.950 . S
C5689 C5688 1.414 . S
C5689 C5690 1.374 . S
C5690 H5664 0.950 . S
C5690 C5686 1.385 . S
C5690 C5689 1.374 . S
C5691 C5688 1.499 . S
C5691 C5692 1.373 . S
C5691 C5693 1.389 . S
C5692 H5665 0.950 . S
C5692 C5678 1.377 . S
C5692 C5691 1.373 . S
C5693 C5677 1.377 . S
C5693 C5691 1.389 . S
C5693 C5694 1.524 . S
C5694 C5693 1.524 . S
C5694 C5695 1.397 . S
C5694 C5699 1.363 . S
C5695 H5666 0.950 . S
C5695 C5694 1.397 . S
C5695 C5696 1.334 . S
C5696 H5667 0.950 . S
C5696 C5695 1.334 . S
C5696 C5697 1.287 . S
C5697 C5696 1.287 . S
C5697 C5698 1.524 . S
C5697 H5700 0.999 . S
C5698 H5668 0.950 . S
C5698 C5697 1.524 . S
C5698 C5699 1.415 . S
C5699 H5669 0.950 . S
C5699 C5694 1.363 . S
C5699 C5698 1.415 . S
H5700 C5697 0.999 . S
H5701 C5682 0.913 . S
H5702 C5720 0.951 . S
H5703 C5722 0.951 . S
H5704 C5724 0.950 . S
H5705 C5725 0.950 . S
H5706 C5727 0.950 . S
H5707 C5730 0.950 . S
H5708 C5731 0.950 . S
H5709 C5733 0.950 . S
H5710 C5734 0.950 . S
H5711 C5735 0.951 . S
H5712 C5737 0.951 . S
H5713 C5739 0.950 . S
H5714 C5740 0.950 . S
H5715 C5742 0.950 . S
H5716 C5745 0.950 . S
H5717 C5746 0.950 . S
H5718 C5748 0.950 . S
H5719 C5749 0.950 . S
C5720 H5702 0.951 . S
C5720 C5721 1.366 . S
C5720 C5722 1.388 . S
C5721 C5720 1.366 . S
C5721 C5725 1.385 . S
C5722 H5703 0.951 . S
C5722 C5720 1.388 . S
C5722 C5723 1.366 . S
C5723 C5722 1.366 . S
C5723 C5724 1.414 . S
C5723 C5726 1.499 . S
C5724 H5704 0.950 . S
C5724 C5723 1.414 . S
C5724 C5725 1.374 . S
C5725 H5705 0.950 . S
C5725 C5721 1.385 . S
C5725 C5724 1.374 . S
C5726 C5723 1.499 . S
C5726 C5727 1.373 . S
C5726 C5728 1.389 . S
C5727 H5706 0.950 . S
C5727 C5726 1.373 . S
C5727 C5743 1.377 . S
C5728 C5726 1.389 . S
C5728 C5729 1.524 . S
C5728 C5742 1.377 . S
C5729 C5728 1.524 . S
C5729 C5730 1.397 . S
C5729 C5734 1.363 . S
C5730 H5707 0.950 . S
C5730 C5729 1.397 . S
C5730 C5731 1.334 . S
C5731 H5708 0.950 . S
C5731 C5730 1.334 . S
C5731 C5732 1.287 . S
C5732 C5731 1.287 . S
C5732 C5733 1.524 . S
C5732 H5751 0.913 . S
C5733 H5709 0.950 . S
C5733 C5732 1.524 . S
C5733 C5734 1.415 . S
C5734 H5710 0.950 . S
C5734 C5729 1.363 . S
C5734 C5733 1.415 . S
C5735 H5711 0.951 . S
C5735 C5736 1.366 . S
C5735 C5737 1.388 . S
C5736 C5735 1.366 . S
C5736 C5740 1.385 . S
C5737 H5712 0.951 . S
C5737 C5735 1.388 . S
C5737 C5738 1.366 . S
C5738 C5737 1.366 . S
C5738 C5739 1.414 . S
C5738 C5741 1.499 . S
C5739 H5713 0.950 . S
C5739 C5738 1.414 . S
C5739 C5740 1.374 . S
C5740 H5714 0.950 . S
C5740 C5736 1.385 . S
C5740 C5739 1.374 . S
C5741 C5738 1.499 . S
C5741 C5742 1.373 . S
C5741 C5743 1.389 . S
C5742 H5715 0.950 . S
C5742 C5728 1.377 . S
C5742 C5741 1.373 . S
C5743 C5727 1.377 . S
C5743 C5741 1.389 . S
C5743 C5744 1.524 . S
C5744 C5743 1.524 . S
C5744 C5745 1.397 . S
C5744 C5749 1.363 . S
C5745 H5716 0.950 . S
C5745 C5744 1.397 . S
C5745 C5746 1.334 . S
C5746 H5717 0.950 . S
C5746 C5745 1.334 . S
C5746 C5747 1.287 . S
C5747 C5746 1.287 . S
C5747 C5748 1.524 . S
C5747 H5750 0.999 . S
C5748 H5718 0.950 . S
C5748 C5747 1.524 . S
C5748 C5749 1.415 . S
C5749 H5719 0.950 . S
C5749 C5744 1.363 . S
C5749 C5748 1.415 . S
H5750 C5747 0.999 . S
H5751 C5732 0.913 . S
C971 C101 2.042 . S
C986 C343 2.032 . S
C1021 C57 1.710 . S
C1036 C354 1.741 . S
C1071 C73 1.554 . S
C1086 C423 1.593 . S
C1136 C436 1.175 . S
C1121 C78 1.160 . S
C1171 C21 2.598 . S
C1186 C492 2.585 . S
C1236 C543 1.971 . S
C1221 C31 1.944 . S
C1286 C572 2.462 . S
C1271 C49 2.470 . S
C1321 C0 2.268 . S
C1336 C623 2.319 . S
C1386 C314 1.040 . S
C1371 C218 1.043 . S
C1421 C229 0.796 . S
C1436 C356 0.799 . S
C1486 C394 1.026 . S
C1471 C257 1.034 . S
C1536 C463 1.538 . S
C1521 C164 1.459 . S
C1571 C216 0.534 . S
C1586 C497 0.477 1_655 S
C1636 C514 1.387 . S
C1621 C231 1.389 . S
C1686 C577 0.282 . S
C1671 C255 0.388 . S
C1736 C594 2.006 . S
C1721 C166 2.043 . S
C1786 C316 1.409 1_565 S
C1771 C143 1.378 . S
C1821 C265 1.584 . S
C1836 C655 1.581 . S
C1886 C676 1.152 . S
C1871 C299 1.134 . S
C1936 C735 0.321 1_655 S
C1921 C291 0.443 . S
C1971 C104 0.725 . S
C1986 C596 0.723 . S
C2021 C117 1.262 . S
C2036 C396 1.277 . S
C2071 C304 0.816 . S
C2086 C754 0.826 . S
C2136 C823 0.825 . S
C2121 C278 0.825 . S
C2186 C332 1.966 . S
C2171 C60 2.000 . S
C2236 C815 1.627 . S
C2221 C96 1.630 . S
C2271 C88 1.491 . S
C2286 C412 1.467 . S
C2321 C65 1.104 . S
C2336 C777 1.109 . S
C2386 C503 2.450 . S
C2371 C10 2.469 . S
C2421 C44 1.847 . S
C2436 C692 1.893 . S
C2486 C583 2.345 1_556 S
C2471 C34 2.293 . S
C2536 C852 2.248 . S
C2521 C13 2.257 1_655 S
C2586 C335 0.968 . S
C2571 C138 0.964 . S
C2636 C817 0.712 . S
C2621 C296 0.709 . S
C2671 C112 0.912 . S
C2686 C415 0.924 . S
C2721 C270 1.402 . S
C2736 C772 1.398 . S
C2771 C140 0.375 . S
C2786 C476 0.404 . S
C2836 C695 1.288 . S
C2821 C294 1.275 . S
C2871 C114 0.182 . S
C2886 C556 0.245 . S
C2921 C268 1.881 . S
C2936 C855 1.904 . S
C2971 C169 1.489 . S
C2986 C337 1.417 . S
C3021 C161 1.526 . S
C3036 C634 1.509 . S
C3071 C234 1.246 . S
C3086 C537 1.170 . S
C3121 C226 0.380 . S
C3136 C714 0.267 . S
C3186 C857 0.735 . S
C3171 C247 0.731 . S
C3221 C195 1.276 . S
C3236 C417 1.249 . S
C3286 C455 0.706 . S
C3271 C239 0.708 . S
C3336 C372 0.759 . S
C3321 C187 0.757 . S
C3371 C75 2.042 . S
C3386 C903 2.033 . S
C3436 C794 1.741 . S
C3421 C83 1.710 . S
C3471 C99 1.554 . S
C3486 C943 1.593 . S
C3521 C52 1.161 . S
C3536 C756 1.175 . S
C3571 C47 2.598 . S
C3586 C652 2.585 . S
C3636 C703 1.971 . S
C3621 C5 1.944 . S
C3686 C732 2.461 . S
C3671 C23 2.470 . S
C3736 C863 2.319 . S
C3721 C26 2.268 . S
C3786 C874 1.041 . S
C3771 C244 1.043 . S
C3821 C177 0.796 . S
C3836 C796 0.799 . S
C3886 C914 1.025 . S
C3871 C192 1.035 . S
C3936 C783 1.538 . S
C3921 C203 1.460 . S
C3986 C657 0.475 . S
C3971 C242 0.534 . S
C4021 C179 1.388 . S
C4036 C674 1.386 . S
C4086 C737 0.282 . S
C4071 C190 0.392 . S
C4121 C205 2.043 . S
C4136 C834 2.006 . S
C4186 C876 1.411 . S
C4171 C286 1.376 . S
C4221 C122 1.585 . S
C4236 C495 1.581 . S
C4286 C516 1.151 . S
C4271 C130 1.132 1_565 S
C4336 C575 0.321 . S
C4321 C148 0.446 . S
C4386 C836 0.725 . S
C4371 C273 0.728 . S
C4421 C260 1.264 . S
C4436 C916 1.277 . S
C4486 C434 0.825 . S
C4471 C135 0.817 . S
C4536 C383 0.825 . S
C4521 C109 0.824 . S
C4571 C86 2.000 . S
C4586 C892 1.966 . S
C4636 C375 1.627 . S
C4621 C70 1.628 . S
C4671 C62 1.491 . S
C4686 C932 1.467 . S
C4721 C91 1.103 . S
C4736 C457 1.106 . S
C4771 C36 2.469 . S
C4786 C663 2.451 1_556 S
C4836 C532 1.893 . S
C4821 C18 1.847 . S
C4871 C8 2.294 . S
C4886 C743 2.345 . S
C4921 C39 2.258 . S
C4936 C612 2.249 . S
C4986 C895 0.967 . S
C4971 C307 0.964 . S
C5021 C153 0.707 . S
C5036 C377 0.705 . S
C5086 C935 0.925 . S
C5071 C281 0.912 . S
C5121 C127 1.402 . S
C5136 C452 1.398 . S
C5171 C309 0.374 . S
C5186 C636 0.403 . S
C5236 C535 1.288 . S
C5221 C151 1.281 . S
C5271 C283 0.185 . S
C5286 C716 0.248 . S
C5336 C615 1.904 . S
C5321 C125 1.881 . S
C5386 C897 1.417 . S
C5371 C221 1.490 . S
C5436 C474 1.508 . S
C5421 C200 1.526 . S
C5471 C208 1.245 . S
C5486 C697 1.168 . S
C5536 C554 0.267 . S
C5521 C174 0.382 . S
C5571 C182 0.731 . S
C5586 C617 0.735 . S
C5621 C156 1.277 . S
C5636 C937 1.249 . S
C5686 C775 0.705 . S
C5671 C213 0.706 . S
C5736 C812 0.759 . S
C5721 C252 0.758 . S
