# Generated by pormake.
# Topology bcu-b, (8,8)-cn, num edge types: 1
# Building blocks:
#     Node 0, Type 0, BuildingBlock: TAGTUT_clean_sbu_3, # of connection points: 8
#     Node 1, Type 1, BuildingBlock: VETTIZ_charged_sbu_0, # of connection points: 8
#     Edge 2, Type (0, 1), BuildingBlock: UVAHIK_clean_linker_0, # of connection points: 2
#     Edge 3, Type (0, 1), BuildingBlock: UVAHIK_clean_linker_0, # of connection points: 2
#     Edge 4, Type (0, 1), BuildingBlock: UVAHIK_clean_linker_0, # of connection points: 2
#     Edge 5, Type (0, 1), BuildingBlock: UVAHIK_clean_linker_0, # of connection points: 2
#     Edge 6, Type (0, 1), BuildingBlock: UVAHIK_clean_linker_0, # of connection points: 2
#     Edge 7, Type (0, 1), BuildingBlock: UVAHIK_clean_linker_0, # of connection points: 2
#     Edge 8, Type (0, 1), BuildingBlock: UVAHIK_clean_linker_0, # of connection points: 2
#     Edge 9, Type (0, 1), BuildingBlock: UVAHIK_clean_linker_0, # of connection points: 2
# Relax obj value: 0.022
# Max RMSD: 0.106
# Mean RMSD: 0.075
data_MOF--net-bcu-b--node1-TAGTUT_clean_sbu_3--node2-VETTIZ_charged_sbu_0--edge1-UVAHIK_clean_linker_0
_symmetry_space_group_name_H-M    P1
_symmetry_Int_Tables_number       1
_symmetry_cell_setting            triclinic
loop_
_symmetry_equiv_pos_as_xyz
'x, y, z'
_cell_length_a     24.224697
_cell_length_b     24.993915
_cell_length_c     25.587252
_cell_angle_alpha  89.975767
_cell_angle_beta   89.516891
_cell_angle_gamma 98.325471
loop_
_atom_site_label
_atom_site_type_symbol
_atom_site_fract_x
_atom_site_fract_y
_atom_site_fract_z
_atom_type_partial_charge
C0 C 0.11189 0.07214 0.06568 0.0
C1 C 0.14986 0.86738 0.06784 0.0
C2 C 0.09559 0.8703 0.90729 0.0
Mg3 Mg 0.01428 0.1227 0.00305 0.0
Mg4 Mg 0.8993 0.04346 0.97384 0.0
O5 O 0.97678 0.05696 0.96487 0.0
Mg6 Mg 0.01826 0.00069 0.99461 0.0
O7 O 0.06358 0.94747 0.02373 0.0
Mg8 Mg 0.1374 0.9741 0.98968 0.0
Mg9 Mg 0.03644 0.87374 0.01286 0.0
C10 C 0.91906 0.93068 0.92663 0.0
O11 O 0.94818 0.96548 0.0514 0.0
O12 O 0.96019 0.17211 0.94933 0.0
O13 O 0.95243 0.87599 0.04458 0.0
O14 O 0.94587 0.1203 0.06815 0.0
O15 O 0.88195 0.11378 0.93333 0.0
O16 O 0.87689 0.05321 0.05342 0.0
O17 O 0.09051 0.03141 0.94054 0.0
O18 O 0.08441 0.12012 0.94168 0.0
C19 C 0.10865 0.08014 0.92668 0.0
C20 C 0.91147 0.16044 0.92865 0.0
O21 O 0.97161 0.93939 0.93645 0.0
O22 O 0.17231 0.91132 0.0449 0.0
O23 O 0.8852 0.96307 0.94088 0.0
O24 O 0.12735 0.91168 0.9241 0.0
O25 O 0.09875 0.84692 0.06103 0.0
O26 O 0.05298 0.84883 0.93348 0.0
O27 O 0.06083 0.06459 0.05096 0.0
O28 O 0.14581 0.03988 0.05163 0.0
C29 C 0.90014 0.09136 0.08213 0.0
C30 C 0.92836 0.91576 0.06057 0.0
Fe31 Fe 0.51923 0.55939 0.49931 0.0
O32 O 0.47692 0.49307 0.53189 0.0
Fe33 Fe 0.64108 0.51587 0.45449 0.0
Fe34 Fe 0.39493 0.48076 0.53549 0.0
O35 O 0.55974 0.5071 0.46095 0.0
O36 O 0.55953 0.50196 0.46028 0.0
O37 O 0.47659 0.48785 0.53112 0.0
Fe38 Fe 0.51775 0.43572 0.49315 0.0
C39 C 0.43354 0.59014 0.58277 0.0
O40 O 0.46444 0.556 0.43901 0.0
O41 O 0.38437 0.5421 0.48302 0.0
O42 O 0.56687 0.38946 0.44893 0.0
O43 O 0.62724 0.45223 0.40219 0.0
O44 O 0.62595 0.57774 0.40585 0.0
O45 O 0.56821 0.62225 0.45747 0.0
O46 O 0.38168 0.42624 0.47569 0.0
O47 O 0.46202 0.42931 0.43188 0.0
C48 C 0.60076 0.61895 0.41698 0.0
O49 O 0.5737 0.43925 0.55368 0.0
O50 O 0.65408 0.45867 0.50969 0.0
O51 O 0.46964 0.60556 0.54538 0.0
O52 O 0.40971 0.54074 0.59027 0.0
C53 C 0.41315 0.56022 0.44319 0.0
C54 C 0.40895 0.41957 0.43417 0.0
C55 C 0.43065 0.37394 0.56998 0.0
O56 O 0.40556 0.41511 0.58141 0.0
O57 O 0.46839 0.37291 0.53356 0.0
C58 C 0.60302 0.40321 0.41155 0.0
O59 O 0.65406 0.57385 0.5122 0.0
O60 O 0.57549 0.5649 0.55927 0.0
C61 C 0.62645 0.44105 0.55035 0.0
C62 C 0.62805 0.57831 0.55509 0.0
C63 C 0.10132 0.15087 0.12489 0.0
C64 C 0.13516 0.12088 0.09533 0.0
C65 C 0.1257 0.19436 0.15563 0.0
C66 C 0.25966 0.28568 0.17707 0.0
H67 H 0.21186 0.28226 0.32204 0.0
C68 C 0.4016 0.3737 0.34631 0.0
C69 C 0.37653 0.39771 0.38819 0.0
C70 C 0.36886 0.34912 0.30562 0.0
C71 C 0.22523 0.28448 0.2815 0.0
H72 H 0.22068 0.11497 0.07241 0.0
H73 H 0.26245 0.18944 0.12561 0.0
H74 H 0.15759 0.22448 0.25874 0.0
H75 H 0.29804 0.41809 0.41832 0.0
H76 H 0.24161 0.37576 0.34761 0.0
H77 H 0.32852 0.34427 0.20035 0.0
C78 C 0.21737 0.18001 0.1253 0.0
C79 C 0.19392 0.25148 0.24518 0.0
C80 C 0.19329 0.13669 0.09522 0.0
C81 C 0.31864 0.39895 0.38722 0.0
C82 C 0.28614 0.37464 0.3467 0.0
C83 C 0.29108 0.31857 0.21343 0.0
C84 C 0.18413 0.20888 0.15654 0.0
C85 C 0.21158 0.25066 0.19283 0.0
C86 C 0.31059 0.34837 0.30606 0.0
C87 C 0.27486 0.31745 0.26627 0.0
H88 H 0.05641 0.13977 0.12551 0.0
H89 H 0.099 0.21613 0.17916 0.0
H90 H 0.27387 0.28656 0.13678 0.0
H91 H 0.44608 0.37224 0.34586 0.0
H92 H 0.38889 0.32889 0.27493 0.0
C93 C 0.81384 0.08359 0.13779 0.0
C94 C 0.86959 0.10689 0.12888 0.0
C95 C 0.78113 0.10529 0.17519 0.0
C96 C 0.71857 0.19464 0.21637 0.0
H97 H 0.76184 0.23819 0.35742 0.0
C98 C 0.64071 0.36995 0.3284 0.0
C99 C 0.62201 0.35974 0.38005 0.0
C100 C 0.66469 0.33107 0.30046 0.0
C101 C 0.74902 0.22571 0.31828 0.0
H102 H 0.93603 0.16811 0.15573 0.0
H103 H 0.8789 0.20535 0.22177 0.0
H104 H 0.81867 0.18259 0.30683 0.0
H105 H 0.6129 0.30062 0.44274 0.0
H106 H 0.6564 0.23301 0.39404 0.0
H107 H 0.65058 0.23992 0.2268 0.0
C108 C 0.86053 0.1707 0.19923 0.0
C109 C 0.78159 0.19425 0.28937 0.0
C110 C 0.89315 0.14947 0.16128 0.0
C111 C 0.62651 0.30936 0.40281 0.0
C112 C 0.6517 0.27089 0.3752 0.0
C113 C 0.68669 0.22691 0.24487 0.0
C114 C 0.80371 0.15009 0.20509 0.0
C115 C 0.76691 0.17888 0.23797 0.0
C116 C 0.67149 0.28171 0.324 0.0
C117 C 0.70197 0.2432 0.29584 0.0
H118 H 0.79439 0.05043 0.11395 0.0
H119 H 0.73757 0.0883 0.17945 0.0
H120 H 0.70668 0.18383 0.17661 0.0
H121 H 0.63772 0.40842 0.30992 0.0
H122 H 0.67993 0.34042 0.26109 0.0
C123 C 0.84283 0.85321 0.08645 0.0
C124 C 0.87673 0.90333 0.09212 0.0
C125 C 0.79716 0.83865 0.11963 0.0
C126 C 0.69103 0.82324 0.18431 0.0
H127 H 0.73354 0.82848 0.33018 0.0
C128 C 0.61735 0.71877 0.39784 0.0
C129 C 0.61085 0.66498 0.38033 0.0
C130 C 0.63494 0.76131 0.36297 0.0
C131 C 0.72013 0.82794 0.28989 0.0
H132 H 0.8883 0.97842 0.13576 0.0
H133 H 0.80846 0.95252 0.19449 0.0
H134 H 0.79339 0.88095 0.26575 0.0
H135 H 0.61317 0.61357 0.3124 0.0
H136 H 0.64315 0.68699 0.252 0.0
H137 H 0.61941 0.76786 0.20799 0.0
C138 C 0.81725 0.92472 0.1641 0.0
C139 C 0.75451 0.85797 0.25291 0.0
C140 C 0.8627 0.93961 0.13034 0.0
C141 C 0.61847 0.65466 0.32705 0.0
C142 C 0.63507 0.69688 0.2923 0.0
C143 C 0.6566 0.79343 0.22123 0.0
C144 C 0.78463 0.87365 0.15962 0.0
C145 C 0.74167 0.85372 0.19946 0.0
C146 C 0.64505 0.75058 0.30999 0.0
C147 C 0.67229 0.79326 0.27401 0.0
H148 H 0.85235 0.82462 0.05707 0.0
H149 H 0.7733 0.79875 0.11557 0.0
H150 H 0.67961 0.82002 0.14346 0.0
H151 H 0.61166 0.72772 0.43879 0.0
H152 H 0.64217 0.80235 0.37763 0.0
C153 C 0.15362 0.80207 0.1409 0.0
C154 C 0.18226 0.83976 0.10568 0.0
C155 C 0.18247 0.77568 0.17732 0.0
C156 C 0.31496 0.72971 0.20306 0.0
H157 H 0.25961 0.71814 0.34596 0.0
C158 C 0.42253 0.62164 0.36526 0.0
C159 C 0.38816 0.59141 0.40266 0.0
C160 C 0.39997 0.65382 0.32884 0.0
C161 C 0.27521 0.72035 0.30611 0.0
H162 H 0.26409 0.87898 0.08111 0.0
H163 H 0.31507 0.83159 0.14493 0.0
H164 H 0.21741 0.77297 0.28322 0.0
H165 H 0.30286 0.57025 0.43001 0.0
H166 H 0.2632 0.62534 0.36554 0.0
H167 H 0.37171 0.67581 0.22545 0.0
C168 C 0.26996 0.82305 0.14403 0.0
C169 C 0.25128 0.75211 0.27029 0.0
C170 C 0.24084 0.85024 0.10773 0.0
C171 C 0.33052 0.59327 0.402 0.0
C172 C 0.30788 0.62521 0.36525 0.0
C173 C 0.33869 0.6975 0.23886 0.0
C174 C 0.24085 0.7858 0.17938 0.0
C175 C 0.27037 0.75654 0.21825 0.0
C176 C 0.34242 0.65636 0.32857 0.0
C177 C 0.31859 0.69187 0.29069 0.0
H178 H 0.10851 0.79305 0.14078 0.0
H179 H 0.15897 0.74669 0.20357 0.0
H180 H 0.33008 0.73201 0.16304 0.0
H181 H 0.46723 0.62152 0.36476 0.0
H182 H 0.42795 0.67771 0.3017 0.0
C183 C 0.14474 0.87551 0.82116 0.0
C184 C 0.11444 0.84386 0.86006 0.0
C185 C 0.17539 0.85176 0.78341 0.0
C186 C 0.20522 0.7183 0.73179 0.0
H187 H 0.35138 0.79941 0.70265 0.0
C188 C 0.38754 0.61437 0.66483 0.0
C189 C 0.41135 0.63082 0.61602 0.0
C190 C 0.35295 0.64557 0.69102 0.0
C191 C 0.31051 0.77663 0.71001 0.0
H192 H 0.08984 0.76222 0.88825 0.0
H193 H 0.14437 0.7206 0.82352 0.0
H194 H 0.28263 0.84171 0.752 0.0
H195 H 0.42128 0.69538 0.55865 0.0
H196 H 0.36161 0.75134 0.6059 0.0
H197 H 0.23471 0.65231 0.69214 0.0
C198 C 0.14378 0.76374 0.82109 0.0
C199 C 0.27077 0.80083 0.73803 0.0
C200 C 0.11224 0.78751 0.85833 0.0
C201 C 0.40386 0.6818 0.5963 0.0
C202 C 0.36938 0.71354 0.62305 0.0
C203 C 0.24522 0.69393 0.70462 0.0
C204 C 0.17744 0.79581 0.78425 0.0
C205 C 0.21775 0.77173 0.75002 0.0
C206 C 0.3418 0.6944 0.66948 0.0
C207 C 0.29849 0.72256 0.69419 0.0
H208 H 0.14688 0.91909 0.82139 0.0
H209 H 0.19918 0.8777 0.75481 0.0
H210 H 0.16468 0.69487 0.73902 0.0
H211 H 0.39301 0.57562 0.68146 0.0
H212 H 0.33313 0.63049 0.7273 0.0
C213 C 0.17451 0.05144 0.85971 0.0
C214 C 0.15909 0.09119 0.89347 0.0
C215 C 0.21903 0.06416 0.8245 0.0
C216 C 0.27421 0.1246 0.7287 0.0
H217 H 0.407 0.225 0.76142 0.0
C218 C 0.35438 0.3085 0.60768 0.0
C219 C 0.41169 0.32373 0.59887 0.0
C220 C 0.33521 0.26336 0.63807 0.0
C221 C 0.37101 0.19587 0.75157 0.0
H222 H 0.18036 0.17405 0.91965 0.0
H223 H 0.25796 0.19608 0.85879 0.0
H224 H 0.3536 0.17486 0.83184 0.0
H225 H 0.49413 0.3034 0.61337 0.0
H226 H 0.46033 0.22486 0.66923 0.0
H227 H 0.28907 0.14899 0.64895 0.0
C228 C 0.23581 0.15519 0.85924 0.0
C229 C 0.34026 0.16751 0.79185 0.0
C230 C 0.1909 0.14278 0.89365 0.0
C231 C 0.44969 0.29216 0.61972 0.0
C232 C 0.43046 0.24746 0.65146 0.0
C233 C 0.30462 0.15334 0.68854 0.0
C234 C 0.24946 0.11649 0.8234 0.0
C235 C 0.29008 0.13374 0.78098 0.0
C236 C 0.37301 0.23307 0.66116 0.0
C237 C 0.35164 0.19121 0.69999 0.0
H238 H 0.15068 0.01132 0.85892 0.0
H239 H 0.22867 0.03366 0.79719 0.0
H240 H 0.23561 0.09899 0.71919 0.0
H241 H 0.32433 0.33207 0.59163 0.0
H242 H 0.29079 0.2537 0.6456 0.0
C243 C 0.82832 0.19926 0.89927 0.0
C244 C 0.88657 0.20128 0.89842 0.0
C245 C 0.80226 0.23152 0.86579 0.0
C246 C 0.824 0.34837 0.77472 0.0
H247 H 0.69014 0.27211 0.71159 0.0
C248 C 0.71561 0.42772 0.59454 0.0
C249 C 0.65687 0.41986 0.59412 0.0
C250 C 0.74456 0.40565 0.63432 0.0
C251 C 0.72697 0.29431 0.72933 0.0
H252 H 0.9636 0.24079 0.86368 0.0
H253 H 0.91772 0.29701 0.8037 0.0
H254 H 0.74005 0.2264 0.77572 0.0
H255 H 0.58263 0.38388 0.63635 0.0
H256 H 0.63319 0.34538 0.7057 0.0
H257 H 0.81097 0.4161 0.72711 0.0
C258 C 0.8923 0.27065 0.8309 0.0
C259 C 0.7557 0.2681 0.7662 0.0
C260 C 0.91863 0.23854 0.86517 0.0
C261 C 0.62782 0.39052 0.63523 0.0
C262 C 0.65681 0.36821 0.67486 0.0
C263 C 0.79524 0.37464 0.73747 0.0
C264 C 0.83361 0.26624 0.82983 0.0
C265 C 0.80431 0.29484 0.78978 0.0
C266 C 0.71552 0.37496 0.67453 0.0
C267 C 0.74618 0.34793 0.7146 0.0
H268 H 0.80254 0.17161 0.92517 0.0
H269 H 0.7572 0.22827 0.8673 0.0
H270 H 0.86107 0.37026 0.79229 0.0
H271 H 0.7394 0.45043 0.56374 0.0
H272 H 0.78972 0.41128 0.63269 0.0
C273 C 0.92512 0.85889 0.85908 0.0
C274 C 0.89521 0.88136 0.89863 0.0
C275 C 0.89845 0.81687 0.82803 0.0
C276 C 0.75637 0.76605 0.78441 0.0
H277 H 0.82364 0.6486 0.72382 0.0
C278 C 0.63228 0.61345 0.647 0.0
C279 C 0.65975 0.60305 0.60031 0.0
C280 C 0.6621 0.63975 0.68837 0.0
C281 C 0.80444 0.68133 0.74042 0.0
H282 H 0.81631 0.87424 0.94055 0.0
H283 H 0.77053 0.80042 0.88771 0.0
H284 H 0.87547 0.70822 0.78814 0.0
H285 H 0.74061 0.60978 0.56155 0.0
H286 H 0.79223 0.65638 0.63334 0.0
H287 H 0.686 0.74027 0.73634 0.0
C288 C 0.81362 0.81635 0.879 0.0
C289 C 0.83411 0.71544 0.77712 0.0
C290 C 0.83988 0.85855 0.90934 0.0
C291 C 0.71799 0.6176 0.59675 0.0
C292 C 0.74776 0.64387 0.63812 0.0
C293 C 0.72683 0.73206 0.748 0.0
C294 C 0.84179 0.79648 0.83667 0.0
C295 C 0.81039 0.7583 0.79937 0.0
C296 C 0.71999 0.65615 0.68398 0.0
C297 C 0.75056 0.68952 0.72533 0.0
H298 H 0.96798 0.87566 0.85033 0.0
H299 H 0.9213 0.8024 0.79569 0.0
H300 H 0.73734 0.79947 0.79975 0.0
H301 H 0.58756 0.60227 0.65131 0.0
H302 H 0.63968 0.64797 0.72359 0.0
loop_
_geom_bond_atom_site_label_1
_geom_bond_atom_site_label_2
_geom_bond_distance
_geom_bond_site_symmetry_2
_ccdc_geom_bond_type
C0 O27 1.312 . S
C0 O28 1.208 . S
C1 O22 1.331 . S
C1 O25 1.244 . S
C2 O24 1.264 . S
C2 O26 1.273 . S
Mg3 O5 1.936 . S
Mg3 O12 2.081 . S
Mg3 O14 2.023 1_556 S
Mg3 O18 2.031 1_655 S
Mg3 O27 2.291 1_656 S
Mg4 O5 1.963 . S
Mg4 O15 1.942 . S
Mg4 O16 1.955 1_556 S
Mg4 O23 1.986 1_545 S
O5 Mg3 1.936 . S
O5 Mg4 1.963 . S
O5 Mg6 1.915 1_546 S
Mg6 O5 1.915 1_564 S
Mg6 O7 1.915 1_655 S
Mg6 O11 2.020 . S
Mg6 O17 2.105 1_664 S
Mg6 O21 2.020 1_554 S
Mg6 O27 2.105 1_665 S
O7 Mg6 1.915 1_455 S
O7 Mg8 1.936 . S
O7 Mg9 1.963 . S
Mg8 O7 1.936 . S
Mg8 O17 2.291 1_564 S
Mg8 O22 2.081 . S
Mg8 O24 2.023 1_554 S
Mg8 O28 2.031 1_565 S
Mg9 O7 1.963 . S
Mg9 O13 1.986 1_455 S
Mg9 O25 1.942 . S
Mg9 O26 1.955 1_554 S
C10 O21 1.191 . S
C10 O23 1.307 . S
O11 Mg6 2.020 . S
O11 C30 1.191 . S
O12 Mg3 2.081 . S
O12 C20 1.331 . S
O13 Mg9 1.986 1_655 S
O13 C30 1.307 . S
O14 Mg3 2.023 1_554 S
O14 C29 1.264 . S
O15 Mg4 1.942 . S
O15 C20 1.244 . S
O16 Mg4 1.955 1_554 S
O16 C29 1.273 . S
O17 Mg6 2.105 1_446 S
O17 Mg8 2.291 1_546 S
O17 C19 1.312 . S
O18 Mg3 2.031 1_455 S
O18 C19 1.208 . S
C19 O17 1.312 . S
C19 O18 1.208 . S
C20 O12 1.331 . S
C20 O15 1.244 . S
O21 Mg6 2.020 1_556 S
O21 C10 1.191 . S
O22 C1 1.331 . S
O22 Mg8 2.081 . S
O23 Mg4 1.986 1_565 S
O23 C10 1.307 . S
O24 C2 1.264 . S
O24 Mg8 2.023 1_556 S
O25 C1 1.244 . S
O25 Mg9 1.942 . S
O26 C2 1.273 . S
O26 Mg9 1.955 1_556 S
O27 C0 1.312 . S
O27 Mg3 2.291 1_454 S
O27 Mg6 2.105 1_445 S
O28 C0 1.208 . S
O28 Mg8 2.031 1_545 S
C29 O14 1.264 . S
C29 O16 1.273 . S
C30 O11 1.191 . S
C30 O13 1.307 . S
Fe31 O32 1.886 . S
Fe31 O35 1.715 . S
Fe31 O40 2.077 . S
Fe31 O45 1.935 . S
Fe31 O51 2.077 . S
Fe31 O60 1.935 . S
O32 Fe31 1.886 . S
O32 Fe34 1.715 . S
Fe33 O35 1.886 . S
Fe33 O36 1.715 . S
Fe33 O43 1.935 . S
Fe33 O44 2.077 . S
Fe33 O50 1.935 . S
Fe33 O59 2.077 . S
Fe34 O32 1.715 . S
Fe34 O37 1.886 . S
Fe34 O41 1.935 . S
Fe34 O46 2.077 . S
Fe34 O52 1.935 . S
Fe34 O56 2.077 . S
O35 Fe31 1.715 . S
O35 Fe33 1.886 . S
O36 Fe33 1.715 . S
O36 Fe38 1.886 . S
O37 Fe34 1.886 . S
O37 Fe38 1.715 . S
Fe38 O36 1.886 . S
Fe38 O37 1.715 . S
Fe38 O42 2.077 . S
Fe38 O47 1.935 . S
Fe38 O49 2.077 . S
Fe38 O57 1.935 . S
C39 O51 1.381 . S
C39 O52 1.421 . S
O40 Fe31 2.077 . S
O40 C53 1.381 . S
O41 Fe34 1.935 . S
O41 C53 1.421 . S
O42 Fe38 2.077 . S
O42 C58 1.381 . S
O43 Fe33 1.935 . S
O43 C58 1.421 . S
O44 Fe33 2.077 . S
O44 C48 1.381 . S
O45 Fe31 1.935 . S
O45 C48 1.421 . S
O46 Fe34 2.077 . S
O46 C54 1.381 . S
O47 Fe38 1.935 . S
O47 C54 1.421 . S
C48 O44 1.381 . S
C48 O45 1.421 . S
O49 Fe38 2.077 . S
O49 C61 1.381 . S
O50 Fe33 1.935 . S
O50 C61 1.421 . S
O51 Fe31 2.077 . S
O51 C39 1.381 . S
O52 Fe34 1.935 . S
O52 C39 1.421 . S
C53 O40 1.381 . S
C53 O41 1.421 . S
C54 O46 1.381 . S
C54 O47 1.421 . S
C55 O56 1.381 . S
C55 O57 1.421 . S
O56 Fe34 2.077 . S
O56 C55 1.381 . S
O57 Fe38 1.935 . S
O57 C55 1.421 . S
C58 O42 1.381 . S
C58 O43 1.421 . S
O59 Fe33 2.077 . S
O59 C62 1.381 . S
O60 Fe31 1.935 . S
O60 C62 1.421 . S
C61 O49 1.381 . S
C61 O50 1.421 . S
C62 O59 1.381 . S
C62 O60 1.421 . S
C63 C64 1.349 . S
C63 C65 1.327 . S
C63 H88 0.950 . S
C64 C63 1.349 . S
C64 C80 1.349 . S
C65 C63 1.327 . S
C65 C84 1.429 . S
C65 H89 0.950 . S
C66 C83 1.574 . S
C66 C85 1.368 . S
C66 H90 0.949 . S
H67 C71 0.949 . S
C68 C69 1.349 . S
C68 C70 1.327 . S
C68 H91 0.950 . S
C69 C68 1.349 . S
C69 C81 1.349 . S
C70 C68 1.327 . S
C70 C86 1.429 . S
C70 H92 0.950 . S
C71 H67 0.949 . S
C71 C79 1.574 . S
C71 C87 1.368 . S
H72 C80 0.950 . S
H73 C78 0.950 . S
H74 C79 0.949 . S
H75 C81 0.950 . S
H76 C82 0.950 . S
H77 C83 0.949 . S
C78 H73 0.950 . S
C78 C80 1.327 . S
C78 C84 1.429 . S
C79 C71 1.574 . S
C79 H74 0.949 . S
C79 C85 1.368 . S
C80 C64 1.349 . S
C80 H72 0.950 . S
C80 C78 1.327 . S
C81 C69 1.349 . S
C81 H75 0.950 . S
C81 C82 1.327 . S
C82 H76 0.950 . S
C82 C81 1.327 . S
C82 C86 1.429 . S
C83 C66 1.574 . S
C83 H77 0.949 . S
C83 C87 1.368 . S
C84 C65 1.429 . S
C84 C78 1.429 . S
C84 C85 1.523 . S
C85 C66 1.368 . S
C85 C79 1.368 . S
C85 C84 1.523 . S
C86 C70 1.429 . S
C86 C82 1.429 . S
C86 C87 1.523 . S
C87 C71 1.368 . S
C87 C83 1.368 . S
C87 C86 1.523 . S
H88 C63 0.950 . S
H89 C65 0.950 . S
H90 C66 0.949 . S
H91 C68 0.950 . S
H92 C70 0.950 . S
C93 C94 1.349 . S
C93 C95 1.327 . S
C93 H118 0.950 . S
C94 C93 1.349 . S
C94 C110 1.349 . S
C95 C93 1.327 . S
C95 C114 1.429 . S
C95 H119 0.950 . S
C96 C113 1.574 . S
C96 C115 1.368 . S
C96 H120 0.949 . S
H97 C101 0.949 . S
C98 C99 1.349 . S
C98 C100 1.327 . S
C98 H121 0.950 . S
C99 C98 1.349 . S
C99 C111 1.349 . S
C100 C98 1.327 . S
C100 C116 1.429 . S
C100 H122 0.950 . S
C101 H97 0.949 . S
C101 C109 1.574 . S
C101 C117 1.368 . S
H102 C110 0.950 . S
H103 C108 0.950 . S
H104 C109 0.949 . S
H105 C111 0.950 . S
H106 C112 0.950 . S
H107 C113 0.949 . S
C108 H103 0.950 . S
C108 C110 1.327 . S
C108 C114 1.429 . S
C109 C101 1.574 . S
C109 H104 0.949 . S
C109 C115 1.368 . S
C110 C94 1.349 . S
C110 H102 0.950 . S
C110 C108 1.327 . S
C111 C99 1.349 . S
C111 H105 0.950 . S
C111 C112 1.327 . S
C112 H106 0.950 . S
C112 C111 1.327 . S
C112 C116 1.429 . S
C113 C96 1.574 . S
C113 H107 0.949 . S
C113 C117 1.368 . S
C114 C95 1.429 . S
C114 C108 1.429 . S
C114 C115 1.523 . S
C115 C96 1.368 . S
C115 C109 1.368 . S
C115 C114 1.523 . S
C116 C100 1.429 . S
C116 C112 1.429 . S
C116 C117 1.523 . S
C117 C101 1.368 . S
C117 C113 1.368 . S
C117 C116 1.523 . S
H118 C93 0.950 . S
H119 C95 0.950 . S
H120 C96 0.949 . S
H121 C98 0.950 . S
H122 C100 0.950 . S
C123 C124 1.349 . S
C123 C125 1.327 . S
C123 H148 0.950 . S
C124 C123 1.349 . S
C124 C140 1.349 . S
C125 C123 1.327 . S
C125 C144 1.429 . S
C125 H149 0.950 . S
C126 C143 1.574 . S
C126 C145 1.368 . S
C126 H150 0.949 . S
H127 C131 0.949 . S
C128 C129 1.349 . S
C128 C130 1.327 . S
C128 H151 0.950 . S
C129 C128 1.349 . S
C129 C141 1.349 . S
C130 C128 1.327 . S
C130 C146 1.429 . S
C130 H152 0.950 . S
C131 H127 0.949 . S
C131 C139 1.574 . S
C131 C147 1.368 . S
H132 C140 0.950 . S
H133 C138 0.950 . S
H134 C139 0.949 . S
H135 C141 0.950 . S
H136 C142 0.950 . S
H137 C143 0.949 . S
C138 H133 0.950 . S
C138 C140 1.327 . S
C138 C144 1.429 . S
C139 C131 1.574 . S
C139 H134 0.949 . S
C139 C145 1.368 . S
C140 C124 1.349 . S
C140 H132 0.950 . S
C140 C138 1.327 . S
C141 C129 1.349 . S
C141 H135 0.950 . S
C141 C142 1.327 . S
C142 H136 0.950 . S
C142 C141 1.327 . S
C142 C146 1.429 . S
C143 C126 1.574 . S
C143 H137 0.949 . S
C143 C147 1.368 . S
C144 C125 1.429 . S
C144 C138 1.429 . S
C144 C145 1.523 . S
C145 C126 1.368 . S
C145 C139 1.368 . S
C145 C144 1.523 . S
C146 C130 1.429 . S
C146 C142 1.429 . S
C146 C147 1.523 . S
C147 C131 1.368 . S
C147 C143 1.368 . S
C147 C146 1.523 . S
H148 C123 0.950 . S
H149 C125 0.950 . S
H150 C126 0.949 . S
H151 C128 0.950 . S
H152 C130 0.950 . S
C153 C154 1.349 . S
C153 C155 1.327 . S
C153 H178 0.950 . S
C154 C153 1.349 . S
C154 C170 1.349 . S
C155 C153 1.327 . S
C155 C174 1.429 . S
C155 H179 0.950 . S
C156 C173 1.574 . S
C156 C175 1.368 . S
C156 H180 0.949 . S
H157 C161 0.949 . S
C158 C159 1.349 . S
C158 C160 1.327 . S
C158 H181 0.950 . S
C159 C158 1.349 . S
C159 C171 1.349 . S
C160 C158 1.327 . S
C160 C176 1.429 . S
C160 H182 0.950 . S
C161 H157 0.949 . S
C161 C169 1.574 . S
C161 C177 1.368 . S
H162 C170 0.950 . S
H163 C168 0.950 . S
H164 C169 0.949 . S
H165 C171 0.950 . S
H166 C172 0.950 . S
H167 C173 0.949 . S
C168 H163 0.950 . S
C168 C170 1.327 . S
C168 C174 1.429 . S
C169 C161 1.574 . S
C169 H164 0.949 . S
C169 C175 1.368 . S
C170 C154 1.349 . S
C170 H162 0.950 . S
C170 C168 1.327 . S
C171 C159 1.349 . S
C171 H165 0.950 . S
C171 C172 1.327 . S
C172 H166 0.950 . S
C172 C171 1.327 . S
C172 C176 1.429 . S
C173 C156 1.574 . S
C173 H167 0.949 . S
C173 C177 1.368 . S
C174 C155 1.429 . S
C174 C168 1.429 . S
C174 C175 1.523 . S
C175 C156 1.368 . S
C175 C169 1.368 . S
C175 C174 1.523 . S
C176 C160 1.429 . S
C176 C172 1.429 . S
C176 C177 1.523 . S
C177 C161 1.368 . S
C177 C173 1.368 . S
C177 C176 1.523 . S
H178 C153 0.950 . S
H179 C155 0.950 . S
H180 C156 0.949 . S
H181 C158 0.950 . S
H182 C160 0.950 . S
C183 C184 1.349 . S
C183 C185 1.327 . S
C183 H208 0.950 . S
C184 C183 1.349 . S
C184 C200 1.349 . S
C185 C183 1.327 . S
C185 C204 1.429 . S
C185 H209 0.950 . S
C186 C203 1.574 . S
C186 C205 1.368 . S
C186 H210 0.949 . S
H187 C191 0.949 . S
C188 C189 1.349 . S
C188 C190 1.327 . S
C188 H211 0.950 . S
C189 C188 1.349 . S
C189 C201 1.349 . S
C190 C188 1.327 . S
C190 C206 1.429 . S
C190 H212 0.950 . S
C191 H187 0.949 . S
C191 C199 1.574 . S
C191 C207 1.368 . S
H192 C200 0.950 . S
H193 C198 0.950 . S
H194 C199 0.949 . S
H195 C201 0.950 . S
H196 C202 0.950 . S
H197 C203 0.949 . S
C198 H193 0.950 . S
C198 C200 1.327 . S
C198 C204 1.429 . S
C199 C191 1.574 . S
C199 H194 0.949 . S
C199 C205 1.368 . S
C200 C184 1.349 . S
C200 H192 0.950 . S
C200 C198 1.327 . S
C201 C189 1.349 . S
C201 H195 0.950 . S
C201 C202 1.327 . S
C202 H196 0.950 . S
C202 C201 1.327 . S
C202 C206 1.429 . S
C203 C186 1.574 . S
C203 H197 0.949 . S
C203 C207 1.368 . S
C204 C185 1.429 . S
C204 C198 1.429 . S
C204 C205 1.523 . S
C205 C186 1.368 . S
C205 C199 1.368 . S
C205 C204 1.523 . S
C206 C190 1.429 . S
C206 C202 1.429 . S
C206 C207 1.523 . S
C207 C191 1.368 . S
C207 C203 1.368 . S
C207 C206 1.523 . S
H208 C183 0.950 . S
H209 C185 0.950 . S
H210 C186 0.949 . S
H211 C188 0.950 . S
H212 C190 0.950 . S
C213 C214 1.349 . S
C213 C215 1.327 . S
C213 H238 0.950 . S
C214 C213 1.349 . S
C214 C230 1.349 . S
C215 C213 1.327 . S
C215 C234 1.429 . S
C215 H239 0.950 . S
C216 C233 1.574 . S
C216 C235 1.368 . S
C216 H240 0.949 . S
H217 C221 0.949 . S
C218 C219 1.349 . S
C218 C220 1.327 . S
C218 H241 0.950 . S
C219 C218 1.349 . S
C219 C231 1.349 . S
C220 C218 1.327 . S
C220 C236 1.429 . S
C220 H242 0.950 . S
C221 H217 0.949 . S
C221 C229 1.574 . S
C221 C237 1.368 . S
H222 C230 0.950 . S
H223 C228 0.950 . S
H224 C229 0.949 . S
H225 C231 0.950 . S
H226 C232 0.950 . S
H227 C233 0.949 . S
C228 H223 0.950 . S
C228 C230 1.327 . S
C228 C234 1.429 . S
C229 C221 1.574 . S
C229 H224 0.949 . S
C229 C235 1.368 . S
C230 C214 1.349 . S
C230 H222 0.950 . S
C230 C228 1.327 . S
C231 C219 1.349 . S
C231 H225 0.950 . S
C231 C232 1.327 . S
C232 H226 0.950 . S
C232 C231 1.327 . S
C232 C236 1.429 . S
C233 C216 1.574 . S
C233 H227 0.949 . S
C233 C237 1.368 . S
C234 C215 1.429 . S
C234 C228 1.429 . S
C234 C235 1.523 . S
C235 C216 1.368 . S
C235 C229 1.368 . S
C235 C234 1.523 . S
C236 C220 1.429 . S
C236 C232 1.429 . S
C236 C237 1.523 . S
C237 C221 1.368 . S
C237 C233 1.368 . S
C237 C236 1.523 . S
H238 C213 0.950 . S
H239 C215 0.950 . S
H240 C216 0.949 . S
H241 C218 0.950 . S
H242 C220 0.950 . S
C243 C244 1.349 . S
C243 C245 1.327 . S
C243 H268 0.950 . S
C244 C243 1.349 . S
C244 C260 1.349 . S
C245 C243 1.327 . S
C245 C264 1.429 . S
C245 H269 0.950 . S
C246 C263 1.574 . S
C246 C265 1.368 . S
C246 H270 0.949 . S
H247 C251 0.949 . S
C248 C249 1.349 . S
C248 C250 1.327 . S
C248 H271 0.950 . S
C249 C248 1.349 . S
C249 C261 1.349 . S
C250 C248 1.327 . S
C250 C266 1.429 . S
C250 H272 0.950 . S
C251 H247 0.949 . S
C251 C259 1.574 . S
C251 C267 1.368 . S
H252 C260 0.950 . S
H253 C258 0.950 . S
H254 C259 0.949 . S
H255 C261 0.950 . S
H256 C262 0.950 . S
H257 C263 0.949 . S
C258 H253 0.950 . S
C258 C260 1.327 . S
C258 C264 1.429 . S
C259 C251 1.574 . S
C259 H254 0.949 . S
C259 C265 1.368 . S
C260 C244 1.349 . S
C260 H252 0.950 . S
C260 C258 1.327 . S
C261 C249 1.349 . S
C261 H255 0.950 . S
C261 C262 1.327 . S
C262 H256 0.950 . S
C262 C261 1.327 . S
C262 C266 1.429 . S
C263 C246 1.574 . S
C263 H257 0.949 . S
C263 C267 1.368 . S
C264 C245 1.429 . S
C264 C258 1.429 . S
C264 C265 1.523 . S
C265 C246 1.368 . S
C265 C259 1.368 . S
C265 C264 1.523 . S
C266 C250 1.429 . S
C266 C262 1.429 . S
C266 C267 1.523 . S
C267 C251 1.368 . S
C267 C263 1.368 . S
C267 C266 1.523 . S
H268 C243 0.950 . S
H269 C245 0.950 . S
H270 C246 0.949 . S
H271 C248 0.950 . S
H272 C250 0.950 . S
C273 C274 1.349 . S
C273 C275 1.327 . S
C273 H298 0.950 . S
C274 C273 1.349 . S
C274 C290 1.349 . S
C275 C273 1.327 . S
C275 C294 1.429 . S
C275 H299 0.950 . S
C276 C293 1.574 . S
C276 C295 1.368 . S
C276 H300 0.949 . S
H277 C281 0.949 . S
C278 C279 1.349 . S
C278 C280 1.327 . S
C278 H301 0.950 . S
C279 C278 1.349 . S
C279 C291 1.349 . S
C280 C278 1.327 . S
C280 C296 1.429 . S
C280 H302 0.950 . S
C281 H277 0.949 . S
C281 C289 1.574 . S
C281 C297 1.368 . S
H282 C290 0.950 . S
H283 C288 0.950 . S
H284 C289 0.949 . S
H285 C291 0.950 . S
H286 C292 0.950 . S
H287 C293 0.949 . S
C288 H283 0.950 . S
C288 C290 1.327 . S
C288 C294 1.429 . S
C289 C281 1.574 . S
C289 H284 0.949 . S
C289 C295 1.368 . S
C290 C274 1.349 . S
C290 H282 0.950 . S
C290 C288 1.327 . S
C291 C279 1.349 . S
C291 H285 0.950 . S
C291 C292 1.327 . S
C292 H286 0.950 . S
C292 C291 1.327 . S
C292 C296 1.429 . S
C293 C276 1.574 . S
C293 H287 0.949 . S
C293 C297 1.368 . S
C294 C275 1.429 . S
C294 C288 1.429 . S
C294 C295 1.523 . S
C295 C276 1.368 . S
C295 C289 1.368 . S
C295 C294 1.523 . S
C296 C280 1.429 . S
C296 C292 1.429 . S
C296 C297 1.523 . S
C297 C281 1.368 . S
C297 C293 1.368 . S
C297 C296 1.523 . S
H298 C273 0.950 . S
H299 C275 0.950 . S
H300 C276 0.949 . S
H301 C278 0.950 . S
H302 C280 0.950 . S
C64 C0 1.302 . S
C69 C54 1.326 . S
C94 C29 1.641 . S
C99 C58 1.624 . S
C124 C30 1.274 . S
C129 C48 1.274 . S
C154 C1 1.572 . S
C159 C53 1.558 . S
C184 C2 1.641 . S
C189 C39 1.626 . S
C219 C55 1.327 . S
C214 C19 1.304 . S
C244 C20 1.572 . S
C249 C61 1.559 . S
C279 C62 1.276 . S
C274 C10 1.275 . S
