# Generated by pormake.
# Topology zzz, (3,6)-cn, num edge types: 1
# Building blocks:
#     Node 0, Type 0, BuildingBlock: OLANEW_clean_sbu_2, # of connection points: 3
#     Node 1, Type 0, BuildingBlock: OLANEW_clean_sbu_2, # of connection points: 3
#     Node 2, Type 0, BuildingBlock: OLANEW_clean_sbu_2, # of connection points: 3
#     Node 3, Type 0, BuildingBlock: OLANEW_clean_sbu_2, # of connection points: 3
#     Node 4, Type 0, BuildingBlock: OLANEW_clean_sbu_2, # of connection points: 3
#     Node 5, Type 0, BuildingBlock: OLANEW_clean_sbu_2, # of connection points: 3
#     Node 6, Type 0, BuildingBlock: OLANEW_clean_sbu_2, # of connection points: 3
#     Node 7, Type 0, BuildingBlock: OLANEW_clean_sbu_2, # of connection points: 3
#     Node 8, Type 1, BuildingBlock: KUMJIN_clean_sbu_0, # of connection points: 6
#     Node 9, Type 1, BuildingBlock: KUMJIN_clean_sbu_0, # of connection points: 6
#     Node 10, Type 1, BuildingBlock: KUMJIN_clean_sbu_0, # of connection points: 6
#     Node 11, Type 1, BuildingBlock: KUMJIN_clean_sbu_0, # of connection points: 6
#     Edge 12, Type (0, 1), BuildingBlock: AJUNOK_clean_linker_0, # of connection points: 2
#     Edge 13, Type (0, 1), BuildingBlock: AJUNOK_clean_linker_0, # of connection points: 2
#     Edge 14, Type (0, 1), BuildingBlock: AJUNOK_clean_linker_0, # of connection points: 2
#     Edge 15, Type (0, 1), BuildingBlock: AJUNOK_clean_linker_0, # of connection points: 2
#     Edge 16, Type (0, 1), BuildingBlock: AJUNOK_clean_linker_0, # of connection points: 2
#     Edge 17, Type (0, 1), BuildingBlock: AJUNOK_clean_linker_0, # of connection points: 2
#     Edge 18, Type (0, 1), BuildingBlock: AJUNOK_clean_linker_0, # of connection points: 2
#     Edge 19, Type (0, 1), BuildingBlock: AJUNOK_clean_linker_0, # of connection points: 2
#     Edge 20, Type (0, 1), BuildingBlock: AJUNOK_clean_linker_0, # of connection points: 2
#     Edge 21, Type (0, 1), BuildingBlock: AJUNOK_clean_linker_0, # of connection points: 2
#     Edge 22, Type (0, 1), BuildingBlock: AJUNOK_clean_linker_0, # of connection points: 2
#     Edge 23, Type (0, 1), BuildingBlock: AJUNOK_clean_linker_0, # of connection points: 2
#     Edge 24, Type (0, 1), BuildingBlock: AJUNOK_clean_linker_0, # of connection points: 2
#     Edge 25, Type (0, 1), BuildingBlock: AJUNOK_clean_linker_0, # of connection points: 2
#     Edge 26, Type (0, 1), BuildingBlock: AJUNOK_clean_linker_0, # of connection points: 2
#     Edge 27, Type (0, 1), BuildingBlock: AJUNOK_clean_linker_0, # of connection points: 2
#     Edge 28, Type (0, 1), BuildingBlock: AJUNOK_clean_linker_0, # of connection points: 2
#     Edge 29, Type (0, 1), BuildingBlock: AJUNOK_clean_linker_0, # of connection points: 2
#     Edge 30, Type (0, 1), BuildingBlock: AJUNOK_clean_linker_0, # of connection points: 2
#     Edge 31, Type (0, 1), BuildingBlock: AJUNOK_clean_linker_0, # of connection points: 2
#     Edge 32, Type (0, 1), BuildingBlock: AJUNOK_clean_linker_0, # of connection points: 2
#     Edge 33, Type (0, 1), BuildingBlock: AJUNOK_clean_linker_0, # of connection points: 2
#     Edge 34, Type (0, 1), BuildingBlock: AJUNOK_clean_linker_0, # of connection points: 2
#     Edge 35, Type (0, 1), BuildingBlock: AJUNOK_clean_linker_0, # of connection points: 2
# Relax obj value: 0.186
# Max RMSD: 0.179
# Mean RMSD: 0.127
data_MOF--net-zzz--node1-OLANEW_clean_sbu_2--node2-KUMJIN_clean_sbu_0--edge1-AJUNOK_clean_linker_0
_symmetry_space_group_name_H-M    P1
_symmetry_Int_Tables_number       1
_symmetry_cell_setting            triclinic
loop_
_symmetry_equiv_pos_as_xyz
'x, y, z'
_cell_length_a     41.371617
_cell_length_b     41.326351
_cell_length_c     12.813858
_cell_angle_alpha  90.182551
_cell_angle_beta   89.699581
_cell_angle_gamma 89.963894
loop_
_atom_site_label
_atom_site_type_symbol
_atom_site_fract_x
_atom_site_fract_y
_atom_site_fract_z
_atom_type_partial_charge
O0 O 0.74096 0.58807 0.09138 0.0
Cd1 Cd 0.68784 0.60715 0.14826 0.0
O2 O 0.73581 0.56237 0.239 0.0
Cd3 Cd 0.75407 0.53386 0.36757 0.0
O4 O 0.80137 0.5375 0.43658 0.0
C5 C 0.81009 0.54013 0.53099 0.0
O6 O 0.78837 0.53853 0.60603 0.0
C7 C 0.75224 0.56819 0.15691 0.0
C8 C 0.64021 0.57196 0.04467 0.0
O9 O 0.64917 0.59988 0.01243 0.0
O10 O 0.65335 0.56089 0.1276 0.0
O11 O 0.93451 0.74076 0.11639 0.0
Cd12 Cd 0.91912 0.68872 0.18712 0.0
O13 O 0.95193 0.74711 0.27493 0.0
Cd14 Cd 0.97914 0.76905 0.39926 0.0
O15 O 0.99008 0.80799 0.50417 0.0
C16 C 0.9668 0.82564 0.53538 0.0
O17 O 0.93711 0.81695 0.5127 0.0
C18 C 0.94967 0.75772 0.1823 0.0
C19 C 0.95422 0.64379 0.0723 0.0
O20 O 0.9258 0.65267 0.04531 0.0
O21 O 0.96601 0.65543 0.15663 0.0
O22 O 0.75478 0.93284 0.14078 0.0
Cd23 Cd 0.80845 0.92358 0.20482 0.0
O24 O 0.75295 0.9584 0.28856 0.0
Cd25 Cd 0.74213 0.98834 0.42442 0.0
O26 O 0.70806 0.99714 0.54989 0.0
C27 C 0.69053 0.97327 0.57667 0.0
O28 O 0.69867 0.9443 0.54302 0.0
C29 C 0.73974 0.95199 0.20117 0.0
C30 C 0.84905 0.95545 0.06687 0.0
O31 O 0.84294 0.9252 0.05726 0.0
O32 O 0.83593 0.97105 0.14247 0.0
O33 O 0.58371 0.7602 0.08901 0.0
Cd34 Cd 0.60342 0.81047 0.16084 0.0
O35 O 0.56277 0.7689 0.24081 0.0
Cd36 Cd 0.5434 0.75966 0.39273 0.0
O37 O 0.55666 0.71772 0.48025 0.0
C38 C 0.53241 0.70013 0.49847 0.0
O39 O 0.5035 0.71031 0.47215 0.0
C40 C 0.56433 0.75112 0.15968 0.0
C41 C 0.5681 0.85543 0.05374 0.0
O42 O 0.59708 0.84794 0.02737 0.0
O43 O 0.55575 0.84235 0.13502 0.0
O44 O 0.2722 0.43406 0.2575 0.0
Cd45 Cd 0.32405 0.42017 0.18035 0.0
O46 O 0.26578 0.43537 0.09149 0.0
Cd47 Cd 0.25223 0.44184 0.93137 0.0
O48 O 0.21622 0.45497 0.82209 0.0
C49 C 0.19172 0.43671 0.82555 0.0
O50 O 0.1942 0.40844 0.87151 0.0
C51 C 0.25397 0.44077 0.18183 0.0
C52 C 0.37 0.45556 0.28665 0.0
O53 O 0.35939 0.46654 0.19996 0.0
O54 O 0.35913 0.42841 0.31914 0.0
O55 O 0.06367 0.27844 0.23494 0.0
Cd56 Cd 0.07733 0.32853 0.14543 0.0
O57 O 0.07244 0.26541 0.07371 0.0
Cd58 Cd 0.07322 0.23911 0.92875 0.0
O59 O 0.05805 0.20402 0.81675 0.0
C60 C 0.07195 0.17672 0.8143 0.0
O61 O 0.09935 0.17302 0.86429 0.0
C62 C 0.06198 0.25738 0.16349 0.0
C63 C 0.04878 0.3774 0.25996 0.0
O64 O 0.03231 0.36308 0.18921 0.0
O65 O 0.07852 0.3695 0.2711 0.0
O66 O 0.24916 0.08153 0.21139 0.0
Cd67 Cd 0.19995 0.09722 0.13351 0.0
O68 O 0.27397 0.08974 0.06286 0.0
Cd69 Cd 0.31006 0.08048 0.94187 0.0
O70 O 0.30963 0.08069 0.764 0.0
C71 C 0.32941 0.0671 0.70047 0.0
O72 O 0.30873 0.0813 0.76236 0.0
C73 C 0.27366 0.07769 0.15376 0.0
C74 C 0.1567 0.0732 0.27783 0.0
O75 O 0.17203 0.05388 0.21723 0.0
O76 O 0.16167 0.10365 0.26827 0.0
O77 O 0.42543 0.25265 0.23124 0.0
Cd78 Cd 0.40734 0.20369 0.15253 0.0
O79 O 0.41111 0.27573 0.08579 0.0
Cd80 Cd 0.41451 0.31081 0.96014 0.0
O81 O 0.41945 0.29885 0.7876 0.0
C82 C 0.43928 0.31264 0.72528 0.0
O83 O 0.41862 0.29776 0.78548 0.0
C84 C 0.42569 0.27706 0.1725 0.0
C85 C 0.4368 0.15858 0.27743 0.0
O86 O 0.45301 0.1732 0.20668 0.0
O87 O 0.40659 0.16493 0.28643 0.0
Eu88 Eu 0.02823 0.9935 0.76572 0.0
C89 C 0.91714 0.99101 0.43341 0.0
C90 C 0.94067 0.9583 0.29538 0.0
C91 C 0.88259 0.95834 0.32242 0.0
C92 C 0.94425 0.97928 0.38172 0.0
C93 C 0.88595 0.98125 0.40243 0.0
C94 C 0.90979 0.94744 0.26727 0.0
C95 C 0.86363 0.01712 0.53325 0.0
N96 N 0.92118 0.01139 0.51532 0.0
C97 C 0.895 0.02561 0.56244 0.0
C98 C 0.85906 0.99441 0.45393 0.0
Eu99 Eu 0.97495 0.02523 0.55891 0.0
N100 N 0.974 0.98813 0.41597 0.0
C101 C 0.00111 0.97743 0.36459 0.0
C102 C 0.96824 0.94853 0.24048 0.0
C103 C -0.00139 0.95786 0.27584 0.0
H104 H 0.89842 0.04324 0.624 0.0
H105 H 0.02016 0.94992 0.23488 0.0
H106 H 0.90671 0.93046 0.20349 0.0
H107 H 0.84302 0.02798 0.57221 0.0
H108 H 0.02498 0.9836 0.39061 0.0
H109 H 0.99728 0.08314 0.07042 0.0
H110 H 0.96633 0.93371 0.17096 0.0
H111 H 0.10062 0.96477 0.69886 0.0
H112 H 0.9877 0.04949 0.91792 0.0
H113 H 0.15761 0.96885 0.75474 0.0
H114 H 0.85904 0.94883 0.30316 0.0
H115 H 0.05226 0.08773 0.1429 0.0
H116 H 0.11076 0.07433 0.12708 0.0
H117 H 0.83474 0.98757 0.43201 0.0
H118 H 0.15476 0.04448 0.03729 0.0
N119 N 0.0359 0.03163 0.90546 0.0
C120 C 0.01144 0.04926 0.95035 0.0
C121 C 0.04797 0.07199 0.07655 0.0
C122 C 0.07323 0.05495 0.02883 0.0
C123 C 0.01695 0.06934 0.03631 0.0
C124 C 0.06636 0.03461 0.94288 0.0
H125 H 0.17226 0.00472 0.90193 0.0
N126 N 0.08345 -0.00122 0.81104 0.0
C127 C 0.13913 0.9829 0.79416 0.0
C128 C 0.09091 0.01787 0.89351 0.0
C129 C 0.10689 0.98076 0.76257 0.0
C130 C 0.14728 0.00312 0.8773 0.0
C131 C 0.12305 0.0208 0.92833 0.0
O132 O 0.04436 0.94383 0.78408 0.0
O133 O 0.99152 0.98079 0.64292 0.0
O134 O 0.94306 0.00433 0.68668 0.0
O135 O 0.9775 0.0016 0.83053 0.0
O136 O 0.03685 0.96073 0.62893 0.0
O137 O 0.01048 0.96335 0.89664 0.0
O138 O 0.94956 0.07048 0.53367 0.0
O139 O 0.0108 0.03657 0.68072 0.0
O140 O 0.06248 0.01402 0.64432 0.0
O141 O 0.02759 0.0267 0.50597 0.0
O142 O 0.96966 0.06445 0.68027 0.0
O143 O 0.98741 0.05596 0.42228 0.0
C144 C 0.0072 0.95829 0.59902 0.0
C145 C 0.03913 0.91431 0.94143 0.0
C146 C 0.02941 0.86455 0.03942 0.0
C147 C 0.01763 0.89145 0.98433 0.0
C148 C 0.06286 0.8611 0.05345 0.0
C149 C 0.07251 0.91065 0.95749 0.0
C150 C 0.08422 0.88423 0.01375 0.0
C151 C 0.94838 0.00171 0.7882 0.0
C152 C 0.02663 0.93797 0.86563 0.0
C153 C 0.13006 0.04131 0.01246 0.0
C154 C 0.10516 0.05823 0.06307 0.0
C155 C -0.00192 0.06135 0.71984 0.0
C156 C 0.95797 0.10708 0.38933 0.0
C157 C 0.98212 0.12569 0.3394 0.0
C158 C 0.97426 0.15545 0.29124 0.0
C159 C 0.94187 0.16585 0.29272 0.0
C160 C 0.92585 0.11804 0.3881 0.0
C161 C 0.91789 0.1471 0.33964 0.0
C162 C 0.05676 0.02319 0.54716 0.0
C163 C 0.96589 0.07761 0.44967 0.0
H164 H 0.99193 0.89352 0.96953 0.0
H165 H 0.07244 0.84032 0.0944 0.0
H166 H 0.08955 0.92758 0.92369 0.0
H167 H 0.10998 0.88122 0.02438 0.0
H168 H 0.00693 0.11744 0.34009 0.0
H169 H 0.9351 0.18902 0.2601 0.0
H170 H 0.90685 0.10427 0.42591 0.0
H171 H 0.8931 0.15549 0.34044 0.0
Eu172 Eu 0.51623 0.03566 0.76727 0.0
C173 C 0.52541 0.92019 0.44398 0.0
C174 C 0.56133 0.94258 0.31285 0.0
C175 C 0.55805 0.88442 0.33537 0.0
C176 C 0.53862 0.94686 0.39466 0.0
C177 C 0.53452 0.88864 0.41325 0.0
C178 C 0.57117 0.91128 0.28431 0.0
C179 C 0.49764 0.86751 0.54255 0.0
N180 N 0.50463 0.92499 0.52466 0.0
C181 C 0.49001 0.89918 0.57217 0.0
C182 C 0.52028 0.86219 0.46341 0.0
Eu183 Eu 0.49055 0.97923 0.56605 0.0
N184 N 0.53047 0.97687 0.42956 0.0
C185 C 0.54403 0.00352 0.38347 0.0
C186 C 0.57416 0.96986 0.2638 0.0
C187 C 0.56539 0.00048 0.29934 0.0
H188 H 0.47238 0.9031 0.6336 0.0
H189 H 0.5755 0.02186 0.26318 0.0
H190 H 0.58908 0.9076 0.22342 0.0
H191 H 0.48617 0.84725 0.58111 0.0
H192 H 0.53949 0.02749 0.41183 0.0
H193 H 0.43713 0.99805 0.08751 0.0
H194 H 0.59128 0.96757 0.19988 0.0
H195 H 0.53381 0.11026 0.67943 0.0
H196 H 0.46617 0.99035 0.92268 0.0
H197 H 0.52318 0.16705 0.72991 0.0
H198 H 0.56655 0.86043 0.3154 0.0
H199 H 0.43044 0.05305 0.15871 0.0
H200 H 0.43151 0.1129 0.12632 0.0
H201 H 0.52651 0.83761 0.44137 0.0
H202 H 0.45154 0.15876 0.02186 0.0
N203 N 0.47746 0.04022 0.90285 0.0
C204 C 0.46404 0.0144 0.95338 0.0
C205 C 0.44221 0.04984 0.08467 0.0
C206 C 0.4531 0.07642 0.02744 0.0
C207 C 0.44673 0.01871 0.04587 0.0
C208 C 0.47146 0.07081 0.9365 0.0
H209 H 0.48703 0.17917 0.87927 0.0
N210 N 0.50256 0.09055 0.79556 0.0
C211 C 0.51163 0.14753 0.77204 0.0
C212 C 0.48382 0.09666 0.88027 0.0
C213 C 0.51737 0.1154 0.74331 0.0
C214 C 0.49129 0.15425 0.85642 0.0
C215 C 0.47737 0.1287 0.91215 0.0
O216 O 0.56052 0.06358 0.79094 0.0
O217 O 0.53353 0.99736 0.65586 0.0
O218 O 0.50987 0.94877 0.69691 0.0
O219 O 0.51569 0.98474 0.83703 0.0
O220 O 0.55316 0.04273 0.64083 0.0
O221 O 0.54402 0.02977 0.91131 0.0
O222 O 0.44699 0.95148 0.53334 0.0
O223 O 0.4743 0.01559 0.6834 0.0
O224 O 0.49086 0.06495 0.64429 0.0
O225 O 0.49166 0.03045 0.50017 0.0
O226 O 0.4503 0.97239 0.68521 0.0
O227 O 0.46035 0.99208 0.43122 0.0
C228 C 0.55685 0.01272 0.61613 0.0
C229 C 0.59564 0.05636 0.93839 0.0
C230 C 0.64282 0.03631 0.03002 0.0
C231 C 0.61359 0.03027 0.97787 0.0
C232 C 0.65394 0.06818 0.04188 0.0
C233 C 0.60723 0.08809 0.95049 0.0
C234 C 0.63623 0.09393 0.00196 0.0
C235 C 0.51417 0.95512 0.79709 0.0
C236 C 0.56479 0.05207 0.88407 0.0
C237 C 0.45774 0.1343 -0.00048 0.0
C238 C 0.44618 0.10824 0.05823 0.0
C239 C 0.45045 0.00127 0.72328 0.0
C240 C 0.41177 0.96147 0.38811 0.0
C241 C 0.39011 0.98611 0.36176 0.0
C242 C 0.36412 0.97999 0.29389 0.0
C243 C 0.35965 0.94801 0.25736 0.0
C244 C 0.40629 0.92977 0.35377 0.0
C245 C 0.38018 0.92309 0.28891 0.0
C246 C 0.48911 0.05949 0.54304 0.0
C247 C 0.43989 0.96893 0.45255 0.0
H248 H 0.60493 0.00569 0.96863 0.0
H249 H 0.67645 0.07306 0.08187 0.0
H250 H 0.59369 0.10846 0.92034 0.0
H251 H 0.64496 0.11846 0.0111 0.0
H252 H 0.39343 0.00965 0.39705 0.0
H253 H 0.34049 0.94209 0.20342 0.0
H254 H 0.42248 0.91035 0.37571 0.0
H255 H 0.37618 0.89864 0.26128 0.0
Eu256 Eu 0.53509 0.49086 0.58842 0.0
C257 C 0.39694 0.51999 0.79948 0.0
C258 C 0.37385 0.55769 0.67583 0.0
C259 C 0.33909 0.53098 0.80215 0.0
C260 C 0.40097 0.54165 0.7182 0.0
C261 C 0.36592 0.51444 0.84229 0.0
C262 C 0.34302 0.55242 0.71877 0.0
C263 C 0.39015 0.47663 0.96205 0.0
N264 N 0.42324 0.50407 0.83617 0.0
C265 C 0.42038 0.48338 0.91859 0.0
C266 C 0.36276 0.49236 0.92429 0.0
Eu267 Eu 0.47431 0.52161 0.7755 0.0
N268 N 0.43125 0.54671 0.67978 0.0
C269 C 0.43566 0.56777 0.59828 0.0
C270 C 0.37842 0.57861 0.5916 0.0
C271 C 0.40945 0.58347 0.55228 0.0
H272 H 0.44166 0.47223 0.95159 0.0
H273 H 0.41329 0.59961 0.48698 0.0
H274 H 0.32205 0.56479 0.68792 0.0
H275 H 0.38814 0.4595 0.02521 0.0
H276 H 0.45919 0.57251 0.56567 0.0
H277 H 0.60222 0.41082 0.85123 0.0
H278 H 0.3582 0.59113 0.55651 0.0
H279 H 0.56266 0.53948 0.40203 0.0
H280 H 0.55488 0.44006 0.78975 0.0
H281 H 0.61427 0.55249 0.31398 0.0
H282 H 0.31515 0.52718 0.83453 0.0
H283 H 0.65603 0.42186 0.7753 0.0
H284 H 0.68966 0.45173 0.64472 0.0
H285 H 0.33937 0.48737 0.95909 0.0
H286 H 0.69306 0.49035 0.49955 0.0
N287 N 0.58055 0.46787 0.67594 0.0
C288 C 0.57777 0.44532 0.75352 0.0
C289 C 0.63514 0.43498 0.7472 0.0
C290 C 0.63807 0.4579 0.6678 0.0
C291 C 0.60483 0.4286 0.78988 0.0
C292 C 0.61002 0.47421 0.63349 0.0
H293 H 0.66521 0.52801 0.37609 0.0
N294 N 0.58446 0.51021 0.51826 0.0
C295 C 0.61409 0.53688 0.38163 0.0
C296 C 0.61202 0.49605 0.55226 0.0
C297 C 0.58499 0.52982 0.43254 0.0
C298 C 0.64275 0.52298 0.41683 0.0
C299 C 0.64196 0.50204 0.50245 0.0
O300 O 0.53504 0.48095 0.42089 0.0
O301 O 0.48234 0.49865 0.61841 0.0
O302 O 0.466 0.46743 0.77049 0.0
O303 O 0.5117 0.44958 0.67911 0.0
O304 O 0.50076 0.51555 0.47835 0.0
O305 O 0.53593 0.44052 0.53181 0.0
O306 O 0.47451 0.52932 0.94495 0.0
O307 O 0.52653 0.51379 0.74256 0.0
O308 O 0.54437 0.54527 0.59783 0.0
O309 O 0.49861 0.56277 0.6899 0.0
O310 O 0.51122 0.49942 0.88627 0.0
O311 O 0.46933 0.57063 0.83952 0.0
C312 C 0.47456 0.51012 0.53052 0.0
C313 C 0.53677 0.4272 0.34599 0.0
C314 C 0.51631 0.3794 0.25631 0.0
C315 C 0.51734 0.39934 0.34553 0.0
C316 C 0.53612 0.38666 0.17045 0.0
C317 C 0.55602 0.43434 0.2586 0.0
C318 C 0.55592 0.41374 0.17207 0.0
C319 C 0.48545 0.44416 0.73632 0.0
C320 C 0.53569 0.44977 0.43461 0.0
C321 C 0.66992 0.48616 0.53714 0.0
C322 C 0.66798 0.46417 0.61972 0.0
C323 C 0.53663 0.50389 0.82926 0.0
C324 C 0.46936 0.58234 0.02681 0.0
C325 C 0.48552 0.61232 0.027 0.0
C326 C 0.48814 0.63118 0.11925 0.0
C327 C 0.47211 0.61964 0.20952 0.0
C328 C 0.4533 0.57211 0.11717 0.0
C329 C 0.45432 0.59092 0.20748 0.0
C330 C 0.52496 0.56844 0.63393 0.0
C331 C 0.47129 0.56053 0.93547 0.0
H332 H 0.50238 0.39382 0.41286 0.0
H333 H 0.53559 0.37191 0.10039 0.0
H334 H 0.57106 0.45579 0.25744 0.0
H335 H 0.5706 0.41874 0.10454 0.0
H336 H 0.4963 0.62015 0.95511 0.0
H337 H 0.47373 0.63224 0.28338 0.0
H338 H 0.44036 0.54932 0.11833 0.0
H339 H 0.4421 0.58268 0.27743 0.0
Eu340 Eu 0.02384 0.53804 0.59113 0.0
C341 C 0.98963 0.40049 0.77897 0.0
C342 C 0.95303 0.37868 0.64955 0.0
C343 C 0.98002 0.34241 0.76991 0.0
C344 C 0.96845 0.40537 0.69725 0.0
C345 C 0.99559 0.36893 0.81635 0.0
C346 C 0.95887 0.34727 0.68651 0.0
C347 C 0.03037 0.39216 0.94738 0.0
N348 N 0.00346 0.42663 0.82474 0.0
C349 C 0.02278 0.42294 0.91023 0.0
C350 C 0.01654 0.36499 0.90081 0.0
Eu351 Eu 0.98577 0.47831 0.76909 0.0
N352 N 0.96211 0.43616 0.66659 0.0
C353 C 0.9404 0.44172 0.58827 0.0
C354 C 0.93164 0.38434 0.56747 0.0
C355 C 0.92546 0.416 0.53637 0.0
H356 H 0.0325 0.44395 0.9497 0.0
H357 H 0.9088 0.4207 0.47329 0.0
H358 H 0.94692 0.32658 0.65172 0.0
H359 H 0.04659 0.38953 0.01264 0.0
H360 H 0.93469 0.4659 0.56335 0.0
H361 H 0.09334 0.60623 0.88536 0.0
H362 H 0.91952 0.36449 0.52847 0.0
H363 H 0.98062 0.56658 0.39462 0.0
H364 H 0.06724 0.55893 0.81057 0.0
H365 H 0.96649 0.61844 0.31317 0.0
H366 H 0.98403 0.31807 0.79832 0.0
H367 H 0.08693 0.6598 0.803 0.0
H368 H 0.06237 0.69338 0.6616 0.0
H369 H 0.02187 0.34116 0.93139 0.0
H370 H 0.0272 0.69702 0.50779 0.0
N371 N 0.04649 0.58388 0.68142 0.0
C372 C 0.0646 0.58147 0.77029 0.0
C373 C 0.07551 0.63878 0.7684 0.0
C374 C 0.05654 0.64153 0.679 0.0
C375 C 0.07925 0.60863 0.81482 0.0
C376 C 0.04213 0.61335 0.63714 0.0
H377 H 0.99043 0.66952 0.37953 0.0
N378 N 0.00888 0.58796 0.51414 0.0
C379 C 0.98243 0.61815 0.3796 0.0
C380 C 0.02249 0.61546 0.5511 0.0
C381 C 0.98994 0.58878 0.42728 0.0
C382 C 0.99592 0.64679 0.41751 0.0
C383 C 0.01654 0.64567 0.50364 0.0
O384 O 0.03597 0.53288 0.42682 0.0
O385 O 0.01109 0.48611 0.6175 0.0
O386 O 0.03913 0.46858 0.76992 0.0
O387 O 0.06173 0.51522 0.69676 0.0
O388 O 0.997 0.50602 0.47749 0.0
O389 O 0.07485 0.53206 0.54006 0.0
O390 O 0.97462 0.47471 0.93597 0.0
O391 O -0.00187 0.53013 0.74283 0.0
O392 O 0.96994 0.54888 0.58747 0.0
O393 O 0.94713 0.50677 0.68626 0.0
O394 O 0.00865 0.51159 0.88782 0.0
O395 O 0.9353 0.47813 0.82145 0.0
C396 C -0.00025 0.47935 0.52875 0.0
C397 C 0.08926 0.53482 0.35542 0.0
C398 C 0.13543 0.51609 0.25021 0.0
C399 C 0.11476 0.51293 0.33765 0.0
C400 C 0.12916 0.54103 0.17845 0.0
C401 C 0.08365 0.55961 0.28315 0.0
C402 C 0.10345 0.56252 0.19488 0.0
C403 C 0.06387 0.48772 0.74933 0.0
C404 C 0.06664 0.52864 0.44248 0.0
C405 C 0.03127 0.67366 0.5436 0.0
C406 C 0.05131 0.67158 0.63103 0.0
C407 C 0.00757 0.53776 0.83317 0.0
C408 C 0.91966 0.47513 0.0045 0.0
C409 C 0.89187 0.49495 0.00266 0.0
C410 C 0.86968 0.49425 0.0864 0.0
C411 C 0.87546 0.47338 0.17065 0.0
C412 C 0.92521 0.45496 0.09043 0.0
C413 C 0.90312 0.45406 0.17287 0.0
C414 C 0.94501 0.53281 0.62719 0.0
C415 C 0.94359 0.47627 0.91938 0.0
H416 H 0.11789 0.49289 0.39098 0.0
H417 H 0.14445 0.54431 0.11045 0.0
H418 H 0.06367 0.57628 0.29394 0.0
H419 H 0.09888 0.58154 0.13894 0.0
H420 H 0.88764 0.51087 0.93706 0.0
H421 H 0.85872 0.47245 0.23588 0.0
H422 H 0.94657 0.4398 0.09357 0.0
H423 H 0.90748 0.4384 0.23891 0.0
C424 C 0.1329 0.02821 0.384 0.0
C425 C 0.13236 0.06082 0.35179 0.0
C426 C 0.10892 0.01599 0.45108 0.0
C427 C 0.08357 0.03595 0.48541 0.0
H428 H 0.15183 0.01206 0.35701 0.0
H429 H 0.10968 0.99076 0.47368 0.0
S430 S 0.0719 0.12275 0.4281 0.0
N431 N 0.10491 0.11274 0.3631 0.0
N432 N 0.05968 0.08948 0.48688 0.0
C433 C 0.08301 0.06843 0.45508 0.0
C434 C 0.10749 0.08097 0.38874 0.0
C435 C 0.43464 0.12304 0.4326 0.0
C436 C 0.45205 0.13443 0.34569 0.0
C437 C 0.44744 0.09933 0.49744 0.0
C438 C 0.4779 0.08592 0.47717 0.0
H439 H 0.41074 0.13228 0.45053 0.0
H440 H 0.43297 0.09082 0.56234 0.0
S441 S 0.53461 0.10861 0.2651 0.0
N442 N 0.50245 0.13153 0.24601 0.0
N443 N 0.52632 0.08665 0.36931 0.0
C444 C 0.4961 0.09743 0.39257 0.0
C445 C 0.48322 0.12187 0.32644 0.0
C446 C 0.41853 0.49177 0.3027 0.0
C447 C 0.39398 0.4733 0.34958 0.0
C448 C 0.44348 0.50518 0.36317 0.0
C449 C 0.44494 0.5003 0.47233 0.0
H450 H 0.41921 0.49478 0.21872 0.0
H451 H 0.46249 0.51833 0.32323 0.0
S452 S 0.38434 0.45568 0.63095 0.0
N453 N 0.37057 0.45349 0.51082 0.0
N454 N 0.41847 0.47615 0.62259 0.0
C455 C 0.41977 0.48265 0.5192 0.0
C456 C 0.39407 0.4698 0.45828 0.0
C457 C 0.00781 0.42072 0.30121 0.0
C458 C 0.03378 0.40105 0.3319 0.0
C459 C 0.99549 0.44474 0.36863 0.0
C460 C 0.0083 0.44945 0.46944 0.0
H461 H -0.00215 0.41846 0.22348 0.0
H462 H 0.97656 0.46052 0.34026 0.0
S463 S 0.07371 0.40058 0.58898 0.0
N464 N 0.06979 0.38544 0.47108 0.0
N465 N 0.04679 0.42996 0.59773 0.0
C466 C 0.03295 0.42837 0.50228 0.0
C467 C 0.04567 0.40437 0.43339 0.0
C468 C 0.8736 0.96035 0.89064 0.0
C469 C 0.8717 0.97122 0.99445 0.0
C470 C 0.89736 0.97206 0.82264 0.0
C471 C 0.92076 0.99416 0.85715 0.0
H472 H 0.85692 0.94218 0.86219 0.0
H473 H 0.89834 0.96248 0.74404 0.0
S474 S 0.92455 0.03229 0.12003 0.0
N475 N 0.89314 0.00776 0.12622 0.0
N476 N 0.93908 0.02823 0.00048 0.0
C477 C 0.91839 0.00613 0.95996 0.0
C478 C 0.89345 0.99508 0.02815 0.0
C479 C 0.55779 0.88049 0.88334 0.0
C480 C 0.54983 0.87827 0.98957 0.0
C481 C 0.54442 0.90443 0.82107 0.0
C482 C 0.52352 0.9278 0.86339 0.0
H483 H 0.57505 0.86394 0.84817 0.0
H484 H 0.55168 0.9054 0.74008 0.0
S485 S 0.48992 0.9287 0.13263 0.0
N486 N 0.51515 0.8977 0.13068 0.0
N487 N 0.49185 0.94464 0.01474 0.0
C488 C 0.51364 0.9247 0.96806 0.0
C489 C 0.52631 0.89932 0.03091 0.0
C490 C 0.59489 0.56927 0.9169 0.0
C491 C 0.61514 0.55337 0.98785 0.0
C492 C 0.57041 0.55265 0.8642 0.0
C493 C 0.56514 0.51932 0.87913 0.0
H494 H 0.59744 0.59499 0.90343 0.0
H495 H 0.55468 0.56654 0.81473 0.0
S496 S 0.6129 0.46623 0.05279 0.0
N497 N 0.62965 0.5021 0.06651 0.0
N498 N 0.58226 0.47115 0.97203 0.0
C499 C 0.58514 0.50312 0.95041 0.0
C500 C 0.61055 0.52001 0.00306 0.0
C501 C 0.99251 0.59713 0.05411 0.0
C502 C 0.97239 0.62033 0.00781 0.0
C503 C 0.00583 0.5718 0.99455 0.0
C504 C -0.00042 0.56884 0.88673 0.0
H505 H 0.99659 0.5975 0.13757 0.0
H506 H 0.01978 0.55346 0.03448 0.0
S507 S 0.9535 0.62769 0.72674 0.0
N508 N 0.95084 0.64194 0.8468 0.0
N509 N 0.97522 0.59433 0.73545 0.0
C510 C 0.98163 0.59359 0.8389 0.0
C511 C 0.96816 0.61932 0.89941 0.0
C512 C 0.04819 0.21022 0.27726 0.0
C513 C 0.04392 0.22699 0.18292 0.0
C514 C 0.02654 0.18588 0.3088 0.0
C515 C -0.00026 0.17731 0.24746 0.0
H516 H 0.06749 0.21712 0.32966 0.0
H517 H 0.02947 0.17537 0.38532 0.0
S518 S 0.97657 0.21568 0.9973 0.0
N519 N 0.01026 0.2343 0.03057 0.0
N520 N 0.97006 0.18811 0.08794 0.0
C521 C 0.9957 0.19343 0.15155 0.0
C522 C 0.01774 0.21824 0.11958 0.0
C523 C 0.28729 0.02211 0.20518 0.0
C524 C 0.29754 0.05382 0.18559 0.0
C525 C 0.30881 -0.00118 0.24197 0.0
C526 C 0.34152 0.00633 0.2608 0.0
H527 H 0.26232 0.01528 0.19234 0.0
H528 H 0.2994 0.97485 0.25709 0.0
S529 S 0.37756 0.08867 0.23886 0.0
N530 N 0.34026 0.09322 0.19723 0.0
N531 N 0.38137 0.04997 0.26785 0.0
C532 C 0.3514 0.03883 0.24555 0.0
C533 C 0.3293 0.0624 0.20693 0.0
C534 C 0.48119 0.29834 0.18058 0.0
C535 C 0.44799 0.30326 0.19634 0.0
C536 C 0.50342 0.3226 0.20518 0.0
C537 C 0.49306 0.35241 0.24703 0.0
H538 H 0.48996 0.27572 0.148 0.0
H539 H 0.52883 0.31824 0.18966 0.0
S540 S 0.40869 0.37495 0.3126 0.0
N541 N 0.40573 0.3382 0.26289 0.0
N542 N 0.44742 0.38443 0.30887 0.0
C543 C 0.4599 0.35688 0.26704 0.0
C544 C 0.43732 0.33214 0.24137 0.0
C545 C 0.20096 0.46432 0.11833 0.0
C546 C 0.22198 0.45683 0.20092 0.0
C547 C 0.17258 0.48254 0.13502 0.0
C548 C 0.16403 0.49419 0.23516 0.0
H549 H 0.20663 0.45662 0.03984 0.0
H550 H 0.15744 0.48786 0.06851 0.0
S551 S 0.20978 0.47985 0.47959 0.0
N552 N 0.23084 0.46091 0.38845 0.0
N553 N 0.17875 0.49601 0.41859 0.0
C554 C 0.18427 0.48592 0.31896 0.0
C555 C 0.21285 0.46707 0.30221 0.0
C556 C 0.99051 0.7819 0.06397 0.0
C557 C 0.96838 0.78604 0.14656 0.0
C558 C 0.00991 0.80754 0.02939 0.0
C559 C 0.00735 0.83845 0.07461 0.0
H560 H 0.9934 0.75839 0.02735 0.0
H561 H 0.02714 0.80314 0.96697 0.0
S562 S 0.95094 0.8628 0.28615 0.0
N563 N 0.94364 0.82382 0.26882 0.0
N564 N 0.97983 0.87226 0.20214 0.0
C565 C 0.98454 0.84323 0.15475 0.0
C566 C 0.96513 0.81693 0.19141 0.0
C567 C 0.70765 0.97284 0.05185 0.0
C568 C 0.71076 0.96917 0.16097 0.0
C569 C 0.68396 0.99293 0.0088 0.0
C570 C 0.66241 0.00991 0.07331 0.0
H571 H 0.72477 0.96152 -0.00109 0.0
H572 H 0.68363 0.99658 0.9251 0.0
S573 S 0.65543 0.00437 0.35968 0.0
N574 N 0.68629 0.98054 0.33017 0.0
N575 N 0.64273 0.01951 0.24843 0.0
C576 C 0.66358 0.00491 0.18108 0.0
C577 C 0.68751 0.98421 0.22525 0.0
C578 C 0.51816 0.71465 0.21034 0.0
C579 C 0.54556 0.72051 0.1482 0.0
C580 C 0.4996 0.68646 0.19807 0.0
C581 C 0.50777 0.66215 0.12431 0.0
H582 H 0.51022 0.73243 0.26696 0.0
H583 H 0.47825 0.68425 0.24655 0.0
S584 S 0.57636 0.66773 0.93464 0.0
N585 N 0.57851 0.70144 0.0032 0.0
N586 N 0.5456 0.64757 0.98444 0.0
C587 C 0.53501 0.66829 0.05973 0.0
C588 C 0.55336 0.69752 0.07076 0.0
C589 C 0.78155 0.51712 0.11686 0.0
C590 C 0.78266 0.55064 0.1346 0.0
C591 C 0.80971 0.49947 0.09437 0.0
C592 C 0.84008 0.51466 0.08872 0.0
H593 H 0.75869 0.50439 0.12112 0.0
H594 H 0.80789 0.47349 0.08424 0.0
S595 S 0.85599 0.60212 0.12943 0.0
N596 N 0.81646 0.59854 0.14545 0.0
N597 N 0.86946 0.56549 0.10032 0.0
C598 C 0.84141 0.54843 0.10291 0.0
C599 C 0.81267 0.56639 0.12692 0.0
C600 C 0.06881 0.11819 0.76639 0.0
C601 C 0.05324 0.14806 0.78184 0.0
C602 C 0.05095 0.08994 0.74865 0.0
C603 C 0.0169 0.09043 0.74838 0.0
H604 H 0.09494 0.11657 0.76856 0.0
H605 H 0.06403 0.06772 0.73522 0.0
S606 S 0.96451 0.16249 0.78328 0.0
N607 N 0.0017 0.17659 0.79101 0.0
N608 N 0.96842 0.12322 0.76509 0.0
C609 C 0.00115 0.12012 0.76401 0.0
C610 C 0.01923 0.149 0.77843 0.0
C611 C 0.38773 0.0682 0.74092 0.0
C612 C 0.35864 0.05089 0.73849 0.0
C613 C 0.41751 0.05207 0.74569 0.0
C614 C 0.41933 0.01803 0.74775 0.0
H615 H 0.38761 0.09426 0.73153 0.0
H616 H 0.43911 0.06647 0.74044 0.0
S617 S 0.34913 0.96207 0.75691 0.0
N618 N 0.33275 -0.00158 0.74818 0.0
N619 N 0.38861 0.96789 0.75995 0.0
C620 C 0.39003 0.00069 0.75449 0.0
C621 C 0.35971 0.01718 0.74858 0.0
C622 C 0.43351 0.36981 0.78948 0.0
C623 C 0.45298 0.34455 0.75057 0.0
C624 C 0.44478 0.4019 0.79019 0.0
C625 C 0.47598 0.40972 0.75299 0.0
H626 H 0.40876 0.36512 0.81288 0.0
H627 H 0.42826 0.42076 0.8149 0.0
S628 S 0.53804 0.35047 0.66266 0.0
N629 N 0.50566 0.32834 0.68651 0.0
N630 N 0.5276 0.388 0.69135 0.0
C631 C 0.49645 0.38392 0.7227 0.0
C632 C 0.4847 0.35151 0.72039 0.0
C633 C 0.13266 0.4299 0.80017 0.0
C634 C 0.15958 0.45044 0.80516 0.0
C635 C 0.10156 0.44251 0.78957 0.0
C636 C 0.09635 0.4759 0.77746 0.0
H637 H 0.13552 0.4039 0.80579 0.0
H638 H 0.08156 0.42573 0.78898 0.0
S639 S 0.15771 0.54031 0.81403 0.0
N640 N 0.17829 0.50619 0.81992 0.0
N641 N 0.12001 0.52952 0.79168 0.0
C642 C 0.12283 0.49682 0.78879 0.0
C643 C 0.15444 0.48413 0.80359 0.0
C644 C 0.00625 0.86665 0.59406 0.0
C645 C 0.97411 0.85881 0.57133 0.0
C646 C 0.0162 0.89872 0.6014 0.0
C647 C 0.99428 0.92468 0.59087 0.0
H648 H 0.02445 0.8479 0.60047 0.0
H649 H 0.0417 0.90292 0.61416 0.0
S650 S 0.90553 0.91638 0.55813 0.0
N651 N 0.9192 0.87893 0.55273 0.0
N652 N 0.93752 0.93949 0.57803 0.0
C653 C 0.96129 0.91698 0.58023 0.0
C654 C 0.95126 0.88401 0.56837 0.0
C655 C 0.64832 0.01192 0.6362 0.0
C656 C 0.65686 0.98001 0.61037 0.0
C657 C 0.61609 0.0218 0.63752 0.0
C658 C 0.59062 2e-05 0.61689 0.0
H659 H 0.66678 0.03008 0.64881 0.0
H660 H 0.61139 0.04713 0.65315 0.0
S661 S 0.59993 0.91181 0.57071 0.0
N662 N 0.63731 0.92541 0.57774 0.0
N663 N 0.5764 0.9436 0.59031 0.0
C664 C 0.5987 0.96722 0.60292 0.0
C665 C 0.63184 0.95726 0.5978 0.0
C666 C 0.55524 0.64435 0.49818 0.0
C667 C 0.53614 0.66837 0.54593 0.0
C668 C 0.55324 0.61201 0.53109 0.0
C669 C 0.53215 0.60304 0.6126 0.0
H670 H 0.57014 0.65021 0.43106 0.0
H671 H 0.56688 0.5939 0.48867 0.0
S672 S 0.48242 0.65964 0.77445 0.0
N673 N 0.49948 0.68278 0.68554 0.0
N674 N 0.49599 0.62283 0.75028 0.0
C675 C 0.51545 0.62796 0.66651 0.0
C676 C 0.51732 0.66047 0.63221 0.0
C677 C 0.85567 0.54565 0.6585 0.0
C678 C 0.84497 0.5437 0.55453 0.0
C679 C 0.88874 0.54498 0.68171 0.0
C680 C 0.91207 0.5428 0.60179 0.0
H681 H 0.83849 0.54622 0.72257 0.0
H682 H 0.8961 0.54454 0.76276 0.0
S683 S 0.89746 0.53968 0.31833 0.0
N684 N 0.86105 0.54191 0.37093 0.0
N685 N 0.92289 0.5404 0.41666 0.0
C686 C 0.90197 0.54301 0.49823 0.0
C687 C 0.86845 0.54349 0.47405 0.0
loop_
_geom_bond_atom_site_label_1
_geom_bond_atom_site_label_2
_geom_bond_distance
_geom_bond_site_symmetry_2
_ccdc_geom_bond_type
O0 Cd1 2.300 . S
O0 C7 1.275 . S
Cd1 O0 2.300 . S
Cd1 O9 2.381 . S
Cd1 O10 2.378 . S
O2 Cd3 2.385 . S
O2 C7 1.255 . S
Cd3 O2 2.385 . S
Cd3 O4 2.317 . S
O4 Cd3 2.317 . S
O4 C5 1.232 . S
C5 O4 1.232 . S
C5 O6 1.218 . S
O6 C5 1.218 . S
C7 O0 1.275 . S
C7 O2 1.255 . S
C8 O9 1.258 . S
C8 O10 1.256 . S
O9 Cd1 2.381 . S
O9 C8 1.258 . S
O10 Cd1 2.378 . S
O10 C8 1.256 . S
O11 Cd12 2.300 . S
O11 C18 1.275 . S
Cd12 O11 2.300 . S
Cd12 O20 2.381 . S
Cd12 O21 2.378 . S
O13 Cd14 2.385 1_655 S
O13 C18 1.255 . S
Cd14 O13 2.385 1_455 S
Cd14 O15 2.317 1_455 S
O15 Cd14 2.317 1_655 S
O15 C16 1.232 . S
C16 O15 1.232 . S
C16 O17 1.218 . S
O17 C16 1.218 . S
C18 O11 1.275 . S
C18 O13 1.255 . S
C19 O20 1.258 . S
C19 O21 1.256 . S
O20 Cd12 2.381 . S
O20 C19 1.258 . S
O21 Cd12 2.378 . S
O21 C19 1.256 . S
O22 Cd23 2.300 . S
O22 C29 1.275 . S
Cd23 O22 2.300 . S
Cd23 O31 2.381 . S
Cd23 O32 2.378 . S
O24 Cd25 2.385 1_565 S
O24 C29 1.255 . S
Cd25 O24 2.385 1_545 S
Cd25 O26 2.317 1_545 S
O26 Cd25 2.317 1_565 S
O26 C27 1.232 . S
C27 O26 1.232 . S
C27 O28 1.218 . S
O28 C27 1.218 . S
C29 O22 1.275 . S
C29 O24 1.255 . S
C30 O31 1.258 . S
C30 O32 1.256 . S
O31 Cd23 2.381 . S
O31 C30 1.258 . S
O32 Cd23 2.378 . S
O32 C30 1.256 . S
O33 Cd34 2.300 . S
O33 C40 1.275 . S
Cd34 O33 2.300 . S
Cd34 O42 2.381 . S
Cd34 O43 2.378 . S
O35 Cd36 2.385 . S
O35 C40 1.255 . S
Cd36 O35 2.385 . S
Cd36 O37 2.317 . S
O37 Cd36 2.317 . S
O37 C38 1.232 . S
C38 O37 1.232 . S
C38 O39 1.218 . S
O39 C38 1.218 . S
C40 O33 1.275 . S
C40 O35 1.255 . S
C41 O42 1.258 . S
C41 O43 1.256 . S
O42 Cd34 2.381 . S
O42 C41 1.258 . S
O43 Cd34 2.378 . S
O43 C41 1.256 . S
O44 Cd45 2.300 . S
O44 C51 1.275 . S
Cd45 O44 2.300 . S
Cd45 O53 2.381 . S
Cd45 O54 2.378 . S
O46 Cd47 2.385 1_554 S
O46 C51 1.255 . S
Cd47 O46 2.385 1_556 S
Cd47 O48 2.317 . S
O48 Cd47 2.317 . S
O48 C49 1.232 . S
C49 O48 1.232 . S
C49 O50 1.218 . S
O50 C49 1.218 . S
C51 O44 1.275 . S
C51 O46 1.255 . S
C52 O53 1.258 . S
C52 O54 1.256 . S
O53 Cd45 2.381 . S
O53 C52 1.258 . S
O54 Cd45 2.378 . S
O54 C52 1.256 . S
O55 Cd56 2.300 . S
O55 C62 1.275 . S
Cd56 O55 2.300 . S
Cd56 O64 2.381 . S
Cd56 O65 2.378 . S
O57 Cd58 2.385 1_554 S
O57 C62 1.255 . S
Cd58 O57 2.385 1_556 S
Cd58 O59 2.317 . S
O59 Cd58 2.317 . S
O59 C60 1.232 . S
C60 O59 1.232 . S
C60 O61 1.218 . S
O61 C60 1.218 . S
C62 O55 1.275 . S
C62 O57 1.255 . S
C63 O64 1.258 . S
C63 O65 1.256 . S
O64 Cd56 2.381 . S
O64 C63 1.258 . S
O65 Cd56 2.378 . S
O65 C63 1.256 . S
O66 Cd67 2.300 . S
O66 C73 1.275 . S
Cd67 O66 2.300 . S
Cd67 O75 2.381 . S
Cd67 O76 2.378 . S
O68 Cd69 2.385 1_554 S
O68 C73 1.255 . S
Cd69 O68 2.385 1_556 S
Cd69 O70 2.317 . S
O70 Cd69 2.317 . S
O70 C71 1.232 . S
C71 O70 1.232 . S
C71 O72 1.218 . S
O72 C71 1.218 . S
C73 O66 1.275 . S
C73 O68 1.255 . S
C74 O75 1.258 . S
C74 O76 1.256 . S
O75 Cd67 2.381 . S
O75 C74 1.258 . S
O76 Cd67 2.378 . S
O76 C74 1.256 . S
O77 Cd78 2.300 . S
O77 C84 1.275 . S
Cd78 O77 2.300 . S
Cd78 O86 2.381 . S
Cd78 O87 2.378 . S
O79 Cd80 2.385 1_554 S
O79 C84 1.255 . S
Cd80 O79 2.385 1_556 S
Cd80 O81 2.317 . S
O81 Cd80 2.317 . S
O81 C82 1.232 . S
C82 O81 1.232 . S
C82 O83 1.218 . S
O83 C82 1.218 . S
C84 O77 1.275 . S
C84 O79 1.255 . S
C85 O86 1.258 . S
C85 O87 1.256 . S
O86 Cd78 2.381 . S
O86 C85 1.258 . S
O87 Cd78 2.378 . S
O87 C85 1.256 . S
Eu88 N119 2.657 1_565 S
Eu88 N126 2.603 1_565 S
Eu88 O132 2.558 . S
Eu88 O133 2.612 1_455 S
Eu88 O135 2.339 1_455 S
Eu88 O136 2.563 . S
Eu88 O137 2.419 . S
Eu88 O139 2.380 1_565 S
Eu88 O140 2.432 . S
Eu88 C152 2.848 . S
C89 C92 1.429 1_545 S
C89 C93 1.411 1_545 S
C89 N96 1.377 . S
C90 C92 1.420 . S
C90 C94 1.423 . S
C90 C102 1.392 . S
C91 C93 1.420 . S
C91 C94 1.351 . S
C91 H114 0.931 . S
C92 C89 1.429 1_565 S
C92 C90 1.420 . S
C92 N100 1.362 . S
C93 C89 1.411 1_565 S
C93 C91 1.420 . S
C93 C98 1.395 1_565 S
C94 C90 1.423 . S
C94 C91 1.351 . S
C94 H106 0.930 . S
C95 C97 1.400 . S
C95 C98 1.386 . S
C95 H107 0.930 . S
N96 C89 1.377 . S
N96 C97 1.321 . S
N96 Eu99 2.609 . S
C97 C95 1.400 . S
C97 N96 1.321 . S
C97 H104 0.930 . S
C98 C93 1.395 1_545 S
C98 C95 1.386 . S
C98 H117 0.930 . S
Eu99 N96 2.609 . S
Eu99 N100 2.657 1_545 S
Eu99 O133 2.380 1_545 S
Eu99 O134 2.432 . S
Eu99 O138 2.558 . S
Eu99 O139 2.612 1_655 S
Eu99 O141 2.339 1_655 S
Eu99 O142 2.563 1_655 S
Eu99 O143 2.419 . S
Eu99 C163 2.848 . S
N100 C92 1.362 . S
N100 Eu99 2.657 1_565 S
N100 C101 1.334 1_655 S
C101 N100 1.334 1_455 S
C101 C103 1.413 . S
C101 H108 0.929 . S
C102 C90 1.392 . S
C102 C103 1.367 1_655 S
C102 H110 0.930 . S
C103 C101 1.413 . S
C103 C102 1.367 1_455 S
C103 H105 0.930 . S
H104 C97 0.930 . S
H105 C103 0.930 . S
H106 C94 0.930 . S
H107 C95 0.930 . S
H108 C101 0.929 . S
H109 C123 0.930 1_655 S
H110 C102 0.930 . S
H111 C129 0.930 . S
H112 C120 0.929 1_655 S
H113 C127 0.930 . S
H114 C91 0.931 . S
H115 C121 0.930 . S
H116 C154 0.930 . S
H117 C98 0.930 . S
H118 C153 0.931 . S
N119 Eu88 2.657 1_545 S
N119 C120 1.334 . S
N119 C124 1.362 . S
C120 H112 0.929 1_455 S
C120 N119 1.334 . S
C120 C123 1.413 1_556 S
C121 H115 0.930 . S
C121 C122 1.392 . S
C121 C123 1.367 . S
C122 C121 1.392 . S
C122 C124 1.420 1_554 S
C122 C154 1.423 . S
C123 H109 0.930 1_455 S
C123 C120 1.413 1_554 S
C123 C121 1.367 . S
C124 N119 1.362 . S
C124 C122 1.420 1_556 S
C124 C128 1.429 . S
H125 C130 0.930 . S
N126 Eu88 2.603 1_545 S
N126 C128 1.391 . S
N126 C129 1.311 1_545 S
C127 H113 0.930 . S
C127 C129 1.400 . S
C127 C130 1.386 1_565 S
C128 C124 1.429 . S
C128 N126 1.391 . S
C128 C131 1.411 . S
C129 H111 0.930 . S
C129 N126 1.311 1_565 S
C129 C127 1.400 . S
C130 H125 0.930 . S
C130 C127 1.386 1_545 S
C130 C131 1.395 . S
C131 C128 1.411 . S
C131 C130 1.395 . S
C131 C153 1.420 1_556 S
O132 Eu88 2.558 . S
O132 C152 1.257 . S
O133 Eu88 2.612 1_655 S
O133 Eu99 2.380 1_565 S
O133 C144 1.276 . S
O134 Eu99 2.432 . S
O134 C151 1.264 . S
O135 Eu88 2.339 1_655 S
O135 C151 1.254 1_565 S
O136 Eu88 2.563 . S
O136 C144 1.235 1_455 S
O137 Eu88 2.419 . S
O137 C152 1.249 . S
O138 Eu99 2.558 . S
O138 C163 1.257 . S
O139 Eu88 2.380 1_545 S
O139 Eu99 2.612 1_455 S
O139 C155 1.276 . S
O140 Eu88 2.432 . S
O140 C162 1.264 1_565 S
O141 Eu99 2.339 1_455 S
O141 C162 1.254 . S
O142 Eu99 2.563 1_455 S
O142 C155 1.235 . S
O143 Eu99 2.419 . S
O143 C163 1.249 . S
C144 O133 1.276 . S
C144 O136 1.235 1_655 S
C145 C147 1.393 1_556 S
C145 C149 1.395 . S
C145 C152 1.492 . S
C146 C147 1.392 . S
C146 C148 1.386 . S
C147 C145 1.393 1_554 S
C147 C146 1.392 . S
C147 H164 0.930 1_554 S
C148 C146 1.386 . S
C148 C150 1.395 . S
C148 H165 0.930 . S
C149 C145 1.395 . S
C149 C150 1.379 1_556 S
C149 H166 0.930 . S
C150 C148 1.395 . S
C150 C149 1.379 1_554 S
C150 H167 0.930 . S
C151 O134 1.264 . S
C151 O135 1.254 1_545 S
C152 Eu88 2.848 . S
C152 O132 1.257 . S
C152 O137 1.249 . S
C152 C145 1.492 . S
C153 H118 0.931 . S
C153 C131 1.420 1_554 S
C153 C154 1.351 . S
C154 H116 0.930 . S
C154 C122 1.423 . S
C154 C153 1.351 . S
C155 O139 1.276 . S
C155 O142 1.235 . S
C156 C157 1.393 . S
C156 C160 1.395 . S
C156 C163 1.492 . S
C157 C156 1.393 . S
C157 C158 1.392 . S
C157 H168 0.930 1_655 S
C158 C157 1.392 . S
C158 C159 1.386 . S
C159 C158 1.386 . S
C159 C161 1.395 . S
C159 H169 0.930 . S
C160 C156 1.395 . S
C160 C161 1.379 . S
C160 H170 0.930 . S
C161 C159 1.395 . S
C161 C160 1.379 . S
C161 H171 0.930 . S
C162 O140 1.264 1_545 S
C162 O141 1.254 . S
C163 Eu99 2.848 . S
C163 O138 1.257 . S
C163 O143 1.249 . S
C163 C156 1.492 . S
H164 C147 0.930 1_556 S
H165 C148 0.930 . S
H166 C149 0.930 . S
H167 C150 0.930 . S
H168 C157 0.930 1_455 S
H169 C159 0.930 . S
H170 C160 0.930 . S
H171 C161 0.930 . S
Eu172 N203 2.657 . S
Eu172 N210 2.609 . S
Eu172 O216 2.558 . S
Eu172 O217 2.612 1_545 S
Eu172 O219 2.339 1_545 S
Eu172 O220 2.563 . S
Eu172 O221 2.419 . S
Eu172 O223 2.380 . S
Eu172 O224 2.432 . S
Eu172 C236 2.848 . S
C173 C176 1.429 . S
C173 C177 1.411 . S
C173 N180 1.377 . S
C174 C176 1.420 . S
C174 C178 1.423 . S
C174 C186 1.392 . S
C175 C177 1.420 . S
C175 C178 1.351 . S
C175 H198 0.931 . S
C176 C173 1.429 . S
C176 C174 1.420 . S
C176 N184 1.362 . S
C177 C173 1.411 . S
C177 C175 1.420 . S
C177 C182 1.395 . S
C178 C174 1.423 . S
C178 C175 1.351 . S
C178 H190 0.930 . S
C179 C181 1.400 . S
C179 C182 1.386 . S
C179 H191 0.930 . S
N180 C173 1.377 . S
N180 C181 1.321 . S
N180 Eu183 2.609 . S
C181 C179 1.400 . S
C181 N180 1.321 . S
C181 H188 0.930 . S
C182 C177 1.395 . S
C182 C179 1.386 . S
C182 H201 0.930 . S
Eu183 N180 2.609 . S
Eu183 N184 2.657 . S
Eu183 O217 2.380 . S
Eu183 O218 2.432 . S
Eu183 O222 2.558 . S
Eu183 O223 2.612 1_565 S
Eu183 O225 2.339 1_565 S
Eu183 O226 2.563 1_565 S
Eu183 O227 2.419 . S
Eu183 C247 2.848 . S
N184 C176 1.362 . S
N184 Eu183 2.657 . S
N184 C185 1.334 1_565 S
C185 N184 1.334 1_545 S
C185 C187 1.413 . S
C185 H192 0.929 . S
C186 C174 1.392 . S
C186 C187 1.367 1_565 S
C186 H194 0.930 . S
C187 C185 1.413 . S
C187 C186 1.367 1_545 S
C187 H189 0.930 . S
H188 C181 0.930 . S
H189 C187 0.930 . S
H190 C178 0.930 . S
H191 C179 0.930 . S
H192 C185 0.929 . S
H193 C207 0.930 1_565 S
H194 C186 0.930 . S
H195 C213 0.930 . S
H196 C204 0.929 1_565 S
H197 C211 0.930 . S
H198 C175 0.931 . S
H199 C205 0.930 . S
H200 C238 0.930 . S
H201 C182 0.930 . S
H202 C237 0.931 . S
N203 Eu172 2.657 . S
N203 C204 1.334 . S
N203 C208 1.362 . S
C204 H196 0.929 1_545 S
C204 N203 1.334 . S
C204 C207 1.413 1_556 S
C205 H199 0.930 . S
C205 C206 1.392 . S
C205 C207 1.367 . S
C206 C205 1.392 . S
C206 C208 1.420 1_554 S
C206 C238 1.423 . S
C207 H193 0.930 1_545 S
C207 C204 1.413 1_554 S
C207 C205 1.367 . S
C208 N203 1.362 . S
C208 C206 1.420 1_556 S
C208 C212 1.429 . S
H209 C214 0.930 . S
N210 Eu172 2.609 . S
N210 C212 1.377 . S
N210 C213 1.321 . S
C211 H197 0.930 . S
C211 C213 1.400 . S
C211 C214 1.386 . S
C212 C208 1.429 . S
C212 N210 1.377 . S
C212 C215 1.411 . S
C213 H195 0.930 . S
C213 N210 1.321 . S
C213 C211 1.400 . S
C214 H209 0.930 . S
C214 C211 1.386 . S
C214 C215 1.395 . S
C215 C212 1.411 . S
C215 C214 1.395 . S
C215 C237 1.420 1_556 S
O216 Eu172 2.558 . S
O216 C236 1.257 . S
O217 Eu172 2.612 1_565 S
O217 Eu183 2.380 . S
O217 C228 1.276 . S
O218 Eu183 2.432 . S
O218 C235 1.264 . S
O219 Eu172 2.339 1_565 S
O219 C235 1.254 . S
O220 Eu172 2.563 . S
O220 C228 1.235 1_545 S
O221 Eu172 2.419 . S
O221 C236 1.249 . S
O222 Eu183 2.558 . S
O222 C247 1.257 . S
O223 Eu172 2.380 . S
O223 Eu183 2.612 1_545 S
O223 C239 1.276 . S
O224 Eu172 2.432 . S
O224 C246 1.264 . S
O225 Eu183 2.339 1_545 S
O225 C246 1.254 . S
O226 Eu183 2.563 1_545 S
O226 C239 1.235 . S
O227 Eu183 2.419 . S
O227 C247 1.249 . S
C228 O217 1.276 . S
C228 O220 1.235 1_565 S
C229 C231 1.393 1_556 S
C229 C233 1.395 . S
C229 C236 1.492 . S
C230 C231 1.392 . S
C230 C232 1.386 . S
C231 C229 1.393 1_554 S
C231 C230 1.392 . S
C231 H248 0.930 1_554 S
C232 C230 1.386 . S
C232 C234 1.395 . S
C232 H249 0.930 . S
C233 C229 1.395 . S
C233 C234 1.379 1_556 S
C233 H250 0.930 . S
C234 C232 1.395 . S
C234 C233 1.379 1_554 S
C234 H251 0.930 . S
C235 O218 1.264 . S
C235 O219 1.254 . S
C236 Eu172 2.848 . S
C236 O216 1.257 . S
C236 O221 1.249 . S
C236 C229 1.492 . S
C237 H202 0.931 . S
C237 C215 1.420 1_554 S
C237 C238 1.351 . S
C238 H200 0.930 . S
C238 C206 1.423 . S
C238 C237 1.351 . S
C239 O223 1.276 . S
C239 O226 1.235 . S
C240 C241 1.393 . S
C240 C244 1.395 . S
C240 C247 1.492 . S
C241 C240 1.393 . S
C241 C242 1.392 . S
C241 H252 0.930 1_565 S
C242 C241 1.392 . S
C242 C243 1.386 . S
C243 C242 1.386 . S
C243 C245 1.395 . S
C243 H253 0.930 . S
C244 C240 1.395 . S
C244 C245 1.379 . S
C244 H254 0.930 . S
C245 C243 1.395 . S
C245 C244 1.379 . S
C245 H255 0.930 . S
C246 O224 1.264 . S
C246 O225 1.254 . S
C247 Eu183 2.848 . S
C247 O222 1.257 . S
C247 O227 1.249 . S
C247 C240 1.492 . S
H248 C231 0.930 1_556 S
H249 C232 0.930 . S
H250 C233 0.930 . S
H251 C234 0.930 . S
H252 C241 0.930 1_545 S
H253 C243 0.930 . S
H254 C244 0.930 . S
H255 C245 0.930 . S
Eu256 N287 2.657 . S
Eu256 N294 2.609 . S
Eu256 O300 2.558 . S
Eu256 O301 2.612 . S
Eu256 O303 2.339 . S
Eu256 O304 2.563 . S
Eu256 O305 2.419 . S
Eu256 O307 2.380 . S
Eu256 O308 2.432 . S
Eu256 C320 2.848 . S
C257 C260 1.429 . S
C257 C261 1.411 . S
C257 N264 1.377 . S
C258 C260 1.420 . S
C258 C262 1.423 . S
C258 C270 1.392 . S
C259 C261 1.420 . S
C259 C262 1.351 . S
C259 H282 0.931 . S
C260 C257 1.429 . S
C260 C258 1.420 . S
C260 N268 1.362 . S
C261 C257 1.411 . S
C261 C259 1.420 . S
C261 C266 1.395 . S
C262 C258 1.423 . S
C262 C259 1.351 . S
C262 H274 0.930 . S
C263 C265 1.400 . S
C263 C266 1.386 . S
C263 H275 0.930 1_556 S
N264 C257 1.377 . S
N264 C265 1.321 . S
N264 Eu267 2.609 . S
C265 C263 1.400 . S
C265 N264 1.321 . S
C265 H272 0.930 . S
C266 C261 1.395 . S
C266 C263 1.386 . S
C266 H285 0.930 . S
Eu267 N264 2.609 . S
Eu267 N268 2.657 . S
Eu267 O301 2.380 . S
Eu267 O302 2.432 . S
Eu267 O306 2.558 . S
Eu267 O307 2.612 . S
Eu267 O309 2.339 . S
Eu267 O310 2.563 . S
Eu267 O311 2.419 . S
Eu267 C331 2.848 . S
N268 C260 1.362 . S
N268 Eu267 2.657 . S
N268 C269 1.334 . S
C269 N268 1.334 . S
C269 C271 1.413 . S
C269 H276 0.929 . S
C270 C258 1.392 . S
C270 C271 1.367 . S
C270 H278 0.930 . S
C271 C269 1.413 . S
C271 C270 1.367 . S
C271 H273 0.930 . S
H272 C265 0.930 . S
H273 C271 0.930 . S
H274 C262 0.930 . S
H275 C263 0.930 1_554 S
H276 C269 0.929 . S
H277 C291 0.930 . S
H278 C270 0.930 . S
H279 C297 0.930 . S
H280 C288 0.929 . S
H281 C295 0.930 . S
H282 C259 0.931 . S
H283 C289 0.930 . S
H284 C322 0.930 . S
H285 C266 0.930 . S
H286 C321 0.931 . S
N287 Eu256 2.657 . S
N287 C288 1.334 . S
N287 C292 1.362 . S
C288 H280 0.929 . S
C288 N287 1.334 . S
C288 C291 1.413 . S
C289 H283 0.930 . S
C289 C290 1.392 . S
C289 C291 1.367 . S
C290 C289 1.392 . S
C290 C292 1.420 . S
C290 C322 1.423 . S
C291 H277 0.930 . S
C291 C288 1.413 . S
C291 C289 1.367 . S
C292 N287 1.362 . S
C292 C290 1.420 . S
C292 C296 1.429 . S
H293 C298 0.930 . S
N294 Eu256 2.609 . S
N294 C296 1.377 . S
N294 C297 1.321 . S
C295 H281 0.930 . S
C295 C297 1.400 . S
C295 C298 1.386 . S
C296 C292 1.429 . S
C296 N294 1.377 . S
C296 C299 1.411 . S
C297 H279 0.930 . S
C297 N294 1.321 . S
C297 C295 1.400 . S
C298 H293 0.930 . S
C298 C295 1.386 . S
C298 C299 1.395 . S
C299 C296 1.411 . S
C299 C298 1.395 . S
C299 C321 1.420 . S
O300 Eu256 2.558 . S
O300 C320 1.257 . S
O301 Eu256 2.612 . S
O301 Eu267 2.380 . S
O301 C312 1.276 . S
O302 Eu267 2.432 . S
O302 C319 1.264 . S
O303 Eu256 2.339 . S
O303 C319 1.254 . S
O304 Eu256 2.563 . S
O304 C312 1.235 . S
O305 Eu256 2.419 . S
O305 C320 1.249 . S
O306 Eu267 2.558 . S
O306 C331 1.257 . S
O307 Eu256 2.380 . S
O307 Eu267 2.612 . S
O307 C323 1.276 . S
O308 Eu256 2.432 . S
O308 C330 1.264 . S
O309 Eu267 2.339 . S
O309 C330 1.254 . S
O310 Eu267 2.563 . S
O310 C323 1.235 . S
O311 Eu267 2.419 . S
O311 C331 1.249 . S
C312 O301 1.276 . S
C312 O304 1.235 . S
C313 C315 1.393 . S
C313 C317 1.395 . S
C313 C320 1.492 . S
C314 C315 1.392 . S
C314 C316 1.386 . S
C315 C313 1.393 . S
C315 C314 1.392 . S
C315 H332 0.930 . S
C316 C314 1.386 . S
C316 C318 1.395 . S
C316 H333 0.930 . S
C317 C313 1.395 . S
C317 C318 1.379 . S
C317 H334 0.930 . S
C318 C316 1.395 . S
C318 C317 1.379 . S
C318 H335 0.930 . S
C319 O302 1.264 . S
C319 O303 1.254 . S
C320 Eu256 2.848 . S
C320 O300 1.257 . S
C320 O305 1.249 . S
C320 C313 1.492 . S
C321 H286 0.931 . S
C321 C299 1.420 . S
C321 C322 1.351 . S
C322 H284 0.930 . S
C322 C290 1.423 . S
C322 C321 1.351 . S
C323 O307 1.276 . S
C323 O310 1.235 . S
C324 C325 1.393 . S
C324 C328 1.395 . S
C324 C331 1.492 1_554 S
C325 C324 1.393 . S
C325 C326 1.392 . S
C325 H336 0.930 1_554 S
C326 C325 1.392 . S
C326 C327 1.386 . S
C327 C326 1.386 . S
C327 C329 1.395 . S
C327 H337 0.930 . S
C328 C324 1.395 . S
C328 C329 1.379 . S
C328 H338 0.930 . S
C329 C327 1.395 . S
C329 C328 1.379 . S
C329 H339 0.930 . S
C330 O308 1.264 . S
C330 O309 1.254 . S
C331 Eu267 2.848 . S
C331 O306 1.257 . S
C331 O311 1.249 . S
C331 C324 1.492 1_556 S
H332 C315 0.930 . S
H333 C316 0.930 . S
H334 C317 0.930 . S
H335 C318 0.930 . S
H336 C325 0.930 1_556 S
H337 C327 0.930 . S
H338 C328 0.930 . S
H339 C329 0.930 . S
Eu340 N371 2.657 . S
Eu340 N378 2.609 . S
Eu340 O384 2.558 . S
Eu340 O385 2.612 . S
Eu340 O387 2.339 . S
Eu340 O388 2.563 . S
Eu340 O389 2.419 . S
Eu340 O391 2.391 . S
Eu340 O392 2.432 1_455 S
Eu340 C404 2.848 . S
C341 C344 1.429 . S
C341 C345 1.411 . S
C341 N348 1.377 . S
C342 C344 1.420 . S
C342 C346 1.423 . S
C342 C354 1.392 . S
C343 C345 1.420 . S
C343 C346 1.351 . S
C343 H366 0.931 . S
C344 C341 1.429 . S
C344 C342 1.420 . S
C344 N352 1.362 . S
C345 C341 1.411 . S
C345 C343 1.420 . S
C345 C350 1.395 1_655 S
C346 C342 1.423 . S
C346 C343 1.351 . S
C346 H358 0.930 . S
C347 C349 1.400 . S
C347 C350 1.386 . S
C347 H359 0.930 1_556 S
N348 C341 1.377 . S
N348 C349 1.321 1_655 S
N348 Eu351 2.609 . S
C349 C347 1.400 . S
C349 N348 1.321 1_455 S
C349 H356 0.930 . S
C350 C345 1.395 1_455 S
C350 C347 1.386 . S
C350 H369 0.930 . S
Eu351 N348 2.609 . S
Eu351 N352 2.657 . S
Eu351 O385 2.380 1_655 S
Eu351 O386 2.432 1_655 S
Eu351 O390 2.558 . S
Eu351 O391 2.607 1_655 S
Eu351 O393 2.339 . S
Eu351 O394 2.563 . S
Eu351 O395 2.419 . S
Eu351 C415 2.848 . S
N352 C344 1.362 . S
N352 Eu351 2.657 . S
N352 C353 1.334 . S
C353 N352 1.334 . S
C353 C355 1.413 . S
C353 H360 0.929 . S
C354 C342 1.392 . S
C354 C355 1.367 . S
C354 H362 0.930 . S
C355 C353 1.413 . S
C355 C354 1.367 . S
C355 H357 0.930 . S
H356 C349 0.930 . S
H357 C355 0.930 . S
H358 C346 0.930 . S
H359 C347 0.930 1_554 S
H360 C353 0.929 . S
H361 C375 0.930 . S
H362 C354 0.930 . S
H363 C381 0.930 . S
H364 C372 0.929 . S
H365 C379 0.930 . S
H366 C343 0.931 . S
H367 C373 0.930 . S
H368 C406 0.930 . S
H369 C350 0.930 . S
H370 C405 0.931 . S
N371 Eu340 2.657 . S
N371 C372 1.334 . S
N371 C376 1.362 . S
C372 H364 0.929 . S
C372 N371 1.334 . S
C372 C375 1.413 . S
C373 H367 0.930 . S
C373 C374 1.392 . S
C373 C375 1.367 . S
C374 C373 1.392 . S
C374 C376 1.420 . S
C374 C406 1.423 . S
C375 H361 0.930 . S
C375 C372 1.413 . S
C375 C373 1.367 . S
C376 N371 1.362 . S
C376 C374 1.420 . S
C376 C380 1.429 . S
H377 C382 0.930 . S
N378 Eu340 2.609 . S
N378 C380 1.377 . S
N378 C381 1.321 1_455 S
C379 H365 0.930 . S
C379 C381 1.400 . S
C379 C382 1.386 1_655 S
C380 C376 1.429 . S
C380 N378 1.377 . S
C380 C383 1.411 . S
C381 H363 0.930 . S
C381 N378 1.321 1_655 S
C381 C379 1.400 . S
C382 H377 0.930 . S
C382 C379 1.386 1_455 S
C382 C383 1.395 . S
C383 C380 1.411 . S
C383 C382 1.395 . S
C383 C405 1.420 . S
O384 Eu340 2.558 . S
O384 C404 1.257 . S
O385 Eu340 2.612 . S
O385 Eu351 2.380 1_455 S
O385 C396 1.276 . S
O386 Eu351 2.432 1_455 S
O386 C403 1.264 . S
O387 Eu340 2.339 . S
O387 C403 1.254 . S
O388 Eu340 2.563 . S
O388 C396 1.235 . S
O389 Eu340 2.419 . S
O389 C404 1.249 . S
O390 Eu351 2.558 . S
O390 C415 1.257 . S
O391 Eu340 2.391 . S
O391 Eu351 2.607 1_455 S
O391 C407 1.269 1_455 S
O392 Eu340 2.432 1_655 S
O392 C414 1.264 . S
O393 Eu351 2.339 . S
O393 C414 1.254 . S
O394 Eu351 2.563 . S
O394 C407 1.235 . S
O395 Eu351 2.419 . S
O395 C415 1.249 . S
C396 O385 1.276 . S
C396 O388 1.235 . S
C397 C399 1.393 . S
C397 C401 1.395 . S
C397 C404 1.492 . S
C398 C399 1.392 . S
C398 C400 1.386 . S
C399 C397 1.393 . S
C399 C398 1.392 . S
C399 H416 0.930 . S
C400 C398 1.386 . S
C400 C402 1.395 . S
C400 H417 0.930 . S
C401 C397 1.395 . S
C401 C402 1.379 . S
C401 H418 0.930 . S
C402 C400 1.395 . S
C402 C401 1.379 . S
C402 H419 0.930 . S
C403 O386 1.264 . S
C403 O387 1.254 . S
C404 Eu340 2.848 . S
C404 O384 1.257 . S
C404 O389 1.249 . S
C404 C397 1.492 . S
C405 H370 0.931 . S
C405 C383 1.420 . S
C405 C406 1.351 . S
C406 H368 0.930 . S
C406 C374 1.423 . S
C406 C405 1.351 . S
C407 O391 1.269 1_655 S
C407 O394 1.235 . S
C408 C409 1.393 . S
C408 C412 1.395 . S
C408 C415 1.492 1_554 S
C409 C408 1.393 . S
C409 C410 1.392 . S
C409 H420 0.930 1_554 S
C410 C409 1.392 . S
C410 C411 1.386 . S
C411 C410 1.386 . S
C411 C413 1.395 . S
C411 H421 0.930 . S
C412 C408 1.395 . S
C412 C413 1.379 . S
C412 H422 0.930 . S
C413 C411 1.395 . S
C413 C412 1.379 . S
C413 H423 0.930 . S
C414 O392 1.264 . S
C414 O393 1.254 . S
C415 Eu351 2.848 . S
C415 O390 1.257 . S
C415 O395 1.249 . S
C415 C408 1.492 1_556 S
H416 C399 0.930 . S
H417 C400 0.930 . S
H418 C401 0.930 . S
H419 C402 0.930 . S
H420 C409 0.930 1_556 S
H421 C411 0.930 . S
H422 C412 0.930 . S
H423 C413 0.930 . S
C424 C425 1.369 . S
C424 C426 1.419 . S
C424 H428 0.930 . S
C425 C424 1.369 . S
C425 C434 1.429 . S
C426 C424 1.419 . S
C426 C427 1.363 . S
C426 H429 0.929 . S
C427 C426 1.363 . S
C427 C433 1.428 . S
H428 C424 0.930 . S
H429 C426 0.929 . S
S430 N431 1.613 . S
S430 N432 1.610 . S
N431 S430 1.613 . S
N431 C434 1.350 . S
N432 S430 1.610 . S
N432 C433 1.351 . S
C433 C427 1.428 . S
C433 N432 1.351 . S
C433 C434 1.434 . S
C434 C425 1.429 . S
C434 N431 1.350 . S
C434 C433 1.434 . S
C435 C436 1.369 . S
C435 C437 1.419 . S
C435 H439 0.930 . S
C436 C435 1.369 . S
C436 C445 1.429 . S
C437 C435 1.419 . S
C437 C438 1.363 . S
C437 H440 0.929 . S
C438 C437 1.363 . S
C438 C444 1.428 . S
H439 C435 0.930 . S
H440 C437 0.929 . S
S441 N442 1.613 . S
S441 N443 1.610 . S
N442 S441 1.613 . S
N442 C445 1.350 . S
N443 S441 1.610 . S
N443 C444 1.351 . S
C444 C438 1.428 . S
C444 N443 1.351 . S
C444 C445 1.434 . S
C445 C436 1.429 . S
C445 N442 1.350 . S
C445 C444 1.434 . S
C446 C447 1.369 . S
C446 C448 1.419 . S
C446 H450 0.930 . S
C447 C446 1.369 . S
C447 C456 1.429 . S
C448 C446 1.419 . S
C448 C449 1.363 . S
C448 H451 0.929 . S
C449 C448 1.363 . S
C449 C455 1.428 . S
H450 C446 0.930 . S
H451 C448 0.929 . S
S452 N453 1.613 . S
S452 N454 1.610 . S
N453 S452 1.613 . S
N453 C456 1.350 . S
N454 S452 1.610 . S
N454 C455 1.351 . S
C455 C449 1.428 . S
C455 N454 1.351 . S
C455 C456 1.434 . S
C456 C447 1.429 . S
C456 N453 1.350 . S
C456 C455 1.434 . S
C457 C458 1.369 . S
C457 C459 1.419 . S
C457 H461 0.930 . S
C458 C457 1.369 . S
C458 C467 1.429 . S
C459 C457 1.419 . S
C459 C460 1.363 . S
C459 H462 0.929 1_455 S
C460 C459 1.363 . S
C460 C466 1.428 . S
H461 C457 0.930 . S
H462 C459 0.929 1_655 S
S463 N464 1.613 . S
S463 N465 1.610 . S
N464 S463 1.613 . S
N464 C467 1.350 . S
N465 S463 1.610 . S
N465 C466 1.351 . S
C466 C460 1.428 . S
C466 N465 1.351 . S
C466 C467 1.434 . S
C467 C458 1.429 . S
C467 N464 1.350 . S
C467 C466 1.434 . S
C468 C469 1.369 . S
C468 C470 1.419 1_554 S
C468 H472 0.930 . S
C469 C468 1.369 . S
C469 C478 1.429 . S
C470 C468 1.419 1_556 S
C470 C471 1.363 . S
C470 H473 0.929 . S
C471 C470 1.363 . S
C471 C477 1.429 1_556 S
H472 C468 0.930 . S
H473 C470 0.929 . S
S474 N475 1.613 . S
S474 N476 1.610 . S
N475 S474 1.613 . S
N475 C478 1.350 1_545 S
N476 S474 1.610 . S
N476 C477 1.349 1_545 S
C477 C471 1.429 1_554 S
C477 N476 1.349 1_565 S
C477 C478 1.435 . S
C478 C469 1.429 . S
C478 N475 1.350 1_565 S
C478 C477 1.435 . S
C479 C480 1.369 . S
C479 C481 1.419 1_554 S
C479 H483 0.930 . S
C480 C479 1.369 . S
C480 C489 1.429 . S
C481 C479 1.419 1_556 S
C481 C482 1.363 . S
C481 H484 0.929 . S
C482 C481 1.363 . S
C482 C488 1.427 1_556 S
H483 C479 0.930 . S
H484 C481 0.929 . S
S485 N486 1.613 . S
S485 N487 1.610 . S
N486 S485 1.613 . S
N486 C489 1.350 . S
N487 S485 1.610 . S
N487 C488 1.351 . S
C488 C482 1.427 1_554 S
C488 N487 1.351 . S
C488 C489 1.435 . S
C489 C480 1.429 . S
C489 N486 1.350 . S
C489 C488 1.435 . S
C490 C491 1.369 . S
C490 C492 1.419 1_554 S
C490 H494 0.930 . S
C491 C490 1.369 . S
C491 C500 1.429 . S
C492 C490 1.419 1_556 S
C492 C493 1.363 . S
C492 H495 0.929 . S
C493 C492 1.363 . S
C493 C499 1.428 . S
H494 C490 0.930 . S
H495 C492 0.929 . S
S496 N497 1.613 . S
S496 N498 1.610 1_554 S
N497 S496 1.613 . S
N497 C500 1.350 . S
N498 S496 1.610 1_556 S
N498 C499 1.351 . S
C499 C493 1.428 . S
C499 N498 1.351 . S
C499 C500 1.434 1_556 S
C500 C491 1.429 . S
C500 N497 1.350 . S
C500 C499 1.434 1_554 S
C501 C502 1.369 . S
C501 C503 1.419 1_554 S
C501 H505 0.930 . S
C502 C501 1.369 . S
C502 C511 1.429 . S
C503 C501 1.419 1_556 S
C503 C504 1.363 . S
C503 H506 0.929 . S
C504 C503 1.363 . S
C504 C510 1.428 . S
H505 C501 0.930 . S
H506 C503 0.929 . S
S507 N508 1.613 . S
S507 N509 1.610 . S
N508 S507 1.613 . S
N508 C511 1.350 1_556 S
N509 S507 1.610 . S
N509 C510 1.351 . S
C510 C504 1.428 . S
C510 N509 1.351 . S
C510 C511 1.434 1_556 S
C511 C502 1.429 . S
C511 N508 1.350 1_554 S
C511 C510 1.434 1_554 S
C512 C513 1.369 . S
C512 C514 1.419 . S
C512 H516 0.930 . S
C513 C512 1.369 . S
C513 C522 1.429 . S
C514 C512 1.419 . S
C514 C515 1.363 . S
C514 H517 0.929 . S
C515 C514 1.363 . S
C515 C521 1.428 1_455 S
H516 C512 0.930 . S
H517 C514 0.929 . S
S518 N519 1.613 1_655 S
S518 N520 1.610 . S
N519 S518 1.613 1_455 S
N519 C522 1.350 . S
N520 S518 1.610 . S
N520 C521 1.351 . S
C521 C515 1.428 1_655 S
C521 N520 1.351 . S
C521 C522 1.434 1_655 S
C522 C513 1.429 . S
C522 N519 1.350 . S
C522 C521 1.434 1_455 S
C523 C524 1.369 . S
C523 C525 1.408 1_545 S
C523 H527 0.930 . S
C524 C523 1.369 . S
C524 C533 1.429 . S
C525 C523 1.408 1_565 S
C525 C526 1.360 1_565 S
C525 H528 0.943 . S
C526 C525 1.360 1_545 S
C526 C532 1.428 . S
H527 C523 0.930 . S
H528 C525 0.943 . S
S529 N530 1.613 . S
S529 N531 1.610 . S
N530 S529 1.613 . S
N530 C533 1.350 . S
N531 S529 1.610 . S
N531 C532 1.351 . S
C532 C526 1.428 . S
C532 N531 1.351 . S
C532 C533 1.434 . S
C533 C524 1.429 . S
C533 N530 1.350 . S
C533 C532 1.434 . S
C534 C535 1.369 . S
C534 C536 1.419 . S
C534 H538 0.930 . S
C535 C534 1.369 . S
C535 C544 1.429 . S
C536 C534 1.419 . S
C536 C537 1.363 . S
C536 H539 0.929 . S
C537 C536 1.363 . S
C537 C543 1.428 . S
H538 C534 0.930 . S
H539 C536 0.929 . S
S540 N541 1.613 . S
S540 N542 1.610 . S
N541 S540 1.613 . S
N541 C544 1.350 . S
N542 S540 1.610 . S
N542 C543 1.351 . S
C543 C537 1.428 . S
C543 N542 1.351 . S
C543 C544 1.434 . S
C544 C535 1.429 . S
C544 N541 1.350 . S
C544 C543 1.434 . S
C545 C546 1.369 . S
C545 C547 1.419 . S
C545 H549 0.930 . S
C546 C545 1.369 . S
C546 C555 1.429 . S
C547 C545 1.419 . S
C547 C548 1.363 . S
C547 H550 0.929 . S
C548 C547 1.363 . S
C548 C554 1.428 . S
H549 C545 0.930 . S
H550 C547 0.929 . S
S551 N552 1.613 . S
S551 N553 1.610 . S
N552 S551 1.613 . S
N552 C555 1.350 . S
N553 S551 1.610 . S
N553 C554 1.351 . S
C554 C548 1.428 . S
C554 N553 1.351 . S
C554 C555 1.434 . S
C555 C546 1.429 . S
C555 N552 1.350 . S
C555 C554 1.434 . S
C556 C557 1.369 . S
C556 C558 1.419 1_655 S
C556 H560 0.930 . S
C557 C556 1.369 . S
C557 C566 1.429 . S
C558 C556 1.419 1_455 S
C558 C559 1.363 . S
C558 H561 0.929 . S
C559 C558 1.363 . S
C559 C565 1.428 1_455 S
H560 C556 0.930 . S
H561 C558 0.929 . S
S562 N563 1.613 . S
S562 N564 1.610 . S
N563 S562 1.613 . S
N563 C566 1.350 . S
N564 S562 1.610 . S
N564 C565 1.351 . S
C565 C559 1.428 1_655 S
C565 N564 1.351 . S
C565 C566 1.434 . S
C566 C557 1.429 . S
C566 N563 1.350 . S
C566 C565 1.434 . S
C567 C568 1.369 . S
C567 C569 1.419 . S
C567 H571 0.930 . S
C568 C567 1.369 . S
C568 C577 1.429 . S
C569 C567 1.419 . S
C569 C570 1.363 1_565 S
C569 H572 0.929 1_554 S
C570 C569 1.363 1_545 S
C570 C576 1.428 . S
H571 C567 0.930 . S
H572 C569 0.929 1_556 S
S573 N574 1.613 1_545 S
S573 N575 1.610 . S
N574 S573 1.613 1_565 S
N574 C577 1.350 . S
N575 S573 1.610 . S
N575 C576 1.351 . S
C576 C570 1.428 . S
C576 N575 1.351 . S
C576 C577 1.434 1_545 S
C577 C568 1.429 . S
C577 N574 1.350 . S
C577 C576 1.434 1_565 S
C578 C579 1.369 . S
C578 C580 1.419 . S
C578 H582 0.930 . S
C579 C578 1.369 . S
C579 C588 1.429 . S
C580 C578 1.419 . S
C580 C581 1.363 . S
C580 H583 0.929 . S
C581 C580 1.363 . S
C581 C587 1.428 . S
H582 C578 0.930 . S
H583 C580 0.929 . S
S584 N585 1.613 . S
S584 N586 1.610 . S
N585 S584 1.613 . S
N585 C588 1.350 1_556 S
N586 S584 1.610 . S
N586 C587 1.351 1_556 S
C587 C581 1.428 . S
C587 N586 1.351 1_554 S
C587 C588 1.434 . S
C588 C579 1.429 . S
C588 N585 1.350 1_554 S
C588 C587 1.434 . S
C589 C590 1.369 . S
C589 C591 1.419 . S
C589 H593 0.930 . S
C590 C589 1.369 . S
C590 C599 1.429 . S
C591 C589 1.419 . S
C591 C592 1.363 . S
C591 H594 0.929 . S
C592 C591 1.363 . S
C592 C598 1.428 . S
H593 C589 0.930 . S
H594 C591 0.929 . S
S595 N596 1.613 . S
S595 N597 1.610 . S
N596 S595 1.613 . S
N596 C599 1.350 . S
N597 S595 1.610 . S
N597 C598 1.351 . S
C598 C592 1.428 . S
C598 N597 1.351 . S
C598 C599 1.434 . S
C599 C590 1.429 . S
C599 N596 1.350 . S
C599 C598 1.434 . S
C600 C601 1.369 . S
C600 C602 1.419 . S
C600 H604 0.930 . S
C601 C600 1.369 . S
C601 C610 1.429 . S
C602 C600 1.419 . S
C602 C603 1.363 . S
C602 H605 0.929 . S
C603 C602 1.363 . S
C603 C609 1.428 . S
H604 C600 0.930 . S
H605 C602 0.929 . S
S606 N607 1.613 . S
S606 N608 1.610 . S
N607 S606 1.613 . S
N607 C610 1.350 1_655 S
N608 S606 1.610 . S
N608 C609 1.351 1_655 S
C609 C603 1.428 . S
C609 N608 1.351 1_455 S
C609 C610 1.434 . S
C610 C601 1.429 . S
C610 N607 1.350 1_455 S
C610 C609 1.434 . S
C611 C612 1.369 . S
C611 C613 1.419 . S
C611 H615 0.930 . S
C612 C611 1.369 . S
C612 C621 1.429 . S
C613 C611 1.419 . S
C613 C614 1.363 . S
C613 H616 0.929 . S
C614 C613 1.363 . S
C614 C620 1.428 . S
H615 C611 0.930 . S
H616 C613 0.929 . S
S617 N618 1.613 . S
S617 N619 1.610 . S
N618 S617 1.613 . S
N618 C621 1.350 1_565 S
N619 S617 1.610 . S
N619 C620 1.351 1_565 S
C620 C614 1.428 . S
C620 N619 1.351 1_545 S
C620 C621 1.434 . S
C621 C612 1.429 . S
C621 N618 1.350 1_545 S
C621 C620 1.434 . S
C622 C623 1.369 . S
C622 C624 1.419 . S
C622 H626 0.930 . S
C623 C622 1.369 . S
C623 C632 1.429 . S
C624 C622 1.419 . S
C624 C625 1.363 . S
C624 H627 0.929 . S
C625 C624 1.363 . S
C625 C631 1.428 . S
H626 C622 0.930 . S
H627 C624 0.929 . S
S628 N629 1.613 . S
S628 N630 1.610 . S
N629 S628 1.613 . S
N629 C632 1.350 . S
N630 S628 1.610 . S
N630 C631 1.351 . S
C631 C625 1.428 . S
C631 N630 1.351 . S
C631 C632 1.434 . S
C632 C623 1.429 . S
C632 N629 1.350 . S
C632 C631 1.434 . S
C633 C634 1.369 . S
C633 C635 1.419 . S
C633 H637 0.930 . S
C634 C633 1.369 . S
C634 C643 1.429 . S
C635 C633 1.419 . S
C635 C636 1.363 . S
C635 H638 0.929 . S
C636 C635 1.363 . S
C636 C642 1.428 . S
H637 C633 0.930 . S
H638 C635 0.929 . S
S639 N640 1.613 . S
S639 N641 1.610 . S
N640 S639 1.613 . S
N640 C643 1.350 . S
N641 S639 1.610 . S
N641 C642 1.351 . S
C642 C636 1.428 . S
C642 N641 1.351 . S
C642 C643 1.434 . S
C643 C634 1.429 . S
C643 N640 1.350 . S
C643 C642 1.434 . S
C644 C645 1.369 . S
C644 C646 1.419 . S
C644 H648 0.930 . S
C645 C644 1.369 . S
C645 C654 1.429 . S
C646 C644 1.419 . S
C646 C647 1.363 . S
C646 H649 0.929 1_655 S
C647 C646 1.363 . S
C647 C653 1.428 . S
H648 C644 0.930 . S
H649 C646 0.929 1_455 S
S650 N651 1.613 . S
S650 N652 1.610 . S
N651 S650 1.613 . S
N651 C654 1.350 . S
N652 S650 1.610 . S
N652 C653 1.351 . S
C653 C647 1.428 . S
C653 N652 1.351 . S
C653 C654 1.434 . S
C654 C645 1.429 . S
C654 N651 1.350 . S
C654 C653 1.434 . S
C655 C656 1.369 . S
C655 C657 1.419 1_565 S
C655 H659 0.930 1_565 S
C656 C655 1.369 . S
C656 C665 1.429 . S
C657 C655 1.419 1_545 S
C657 C658 1.363 1_545 S
C657 H660 0.929 . S
C658 C657 1.363 1_565 S
C658 C664 1.428 . S
H659 C655 0.930 1_545 S
H660 C657 0.929 . S
S661 N662 1.613 . S
S661 N663 1.610 . S
N662 S661 1.613 . S
N662 C665 1.350 . S
N663 S661 1.610 . S
N663 C664 1.351 . S
C664 C658 1.428 . S
C664 N663 1.351 . S
C664 C665 1.434 . S
C665 C656 1.429 . S
C665 N662 1.350 . S
C665 C664 1.434 . S
C666 C667 1.369 . S
C666 C668 1.419 . S
C666 H670 0.930 . S
C667 C666 1.369 . S
C667 C676 1.429 . S
C668 C666 1.419 . S
C668 C669 1.363 . S
C668 H671 0.929 . S
C669 C668 1.363 . S
C669 C675 1.428 . S
H670 C666 0.930 . S
H671 C668 0.929 . S
S672 N673 1.613 . S
S672 N674 1.610 . S
N673 S672 1.613 . S
N673 C676 1.350 . S
N674 S672 1.610 . S
N674 C675 1.351 . S
C675 C669 1.428 . S
C675 N674 1.351 . S
C675 C676 1.434 . S
C676 C667 1.429 . S
C676 N673 1.350 . S
C676 C675 1.434 . S
C677 C678 1.369 . S
C677 C679 1.419 . S
C677 H681 0.930 . S
C678 C677 1.369 . S
C678 C687 1.429 . S
C679 C677 1.419 . S
C679 C680 1.363 . S
C679 H682 0.929 . S
C680 C679 1.363 . S
C680 C686 1.428 . S
H681 C677 0.930 . S
H682 C679 0.929 . S
S683 N684 1.613 . S
S683 N685 1.610 . S
N684 S683 1.613 . S
N684 C687 1.350 . S
N685 S683 1.610 . S
N685 C686 1.351 . S
C686 C680 1.428 . S
C686 N685 1.351 . S
C686 C687 1.434 . S
C687 C678 1.429 . S
C687 N684 1.350 . S
C687 C686 1.434 . S
C425 C74 1.984 . S
C427 C162 2.033 . S
C438 C246 2.045 . S
C436 C85 2.001 . S
C449 C312 1.946 . S
C447 C52 2.068 . S
C460 C396 1.934 . S
C458 C63 2.055 . S
C471 C151 2.030 1_565 S
C469 C30 1.929 . S
C480 C41 1.936 . S
C482 C235 2.045 . S
C491 C8 2.003 . S
C493 C323 1.943 . S
C502 C19 1.997 . S
C504 C407 1.934 . S
C515 C158 1.039 1_455 S
C513 C62 1.015 . S
C526 C242 0.999 1_545 S
C524 C73 0.988 . S
C537 C314 0.954 . S
C535 C84 0.959 . S
C546 C51 0.994 . S
C548 C398 0.998 . S
C557 C18 0.929 . S
C559 C146 1.042 . S
C570 C230 0.997 . S
C568 C29 0.897 . S
C581 C326 0.959 . S
C579 C40 0.880 . S
C590 C7 0.912 . S
C592 C410 0.994 . S
C601 C60 1.955 . S
C603 C155 2.218 . S
C612 C71 1.919 . S
C614 C239 2.193 . S
C625 C319 2.297 . S
C623 C82 1.865 . S
C636 C403 2.320 . S
C634 C49 1.891 . S
C645 C16 1.754 . S
C647 C144 2.223 . S
C658 C228 2.198 . S
C656 C27 1.747 . S
C669 C330 2.298 . S
C667 C38 1.662 . S
C678 C5 1.662 . S
C680 C414 2.320 . S
