# Generated by pormake.
# Topology pth, (4,4)-cn, num edge types: 1
# Building blocks:
#     Node 0, Type 0, BuildingBlock: CEKHIL_clean_sbu_0, # of connection points: 4
#     Node 1, Type 0, BuildingBlock: CEKHIL_clean_sbu_0, # of connection points: 4
#     Node 2, Type 0, BuildingBlock: CEKHIL_clean_sbu_0, # of connection points: 4
#     Node 3, Type 1, BuildingBlock: MUDLON_clean_sbu_0, # of connection points: 4
#     Node 4, Type 1, BuildingBlock: MUDLON_clean_sbu_0, # of connection points: 4
#     Node 5, Type 1, BuildingBlock: MUDLON_clean_sbu_0, # of connection points: 4
#     Edge 6, Type (0, 1), BuildingBlock: KIFKEQ_clean_linker_1, # of connection points: 2
#     Edge 7, Type (0, 1), BuildingBlock: KIFKEQ_clean_linker_1, # of connection points: 2
#     Edge 8, Type (0, 1), BuildingBlock: KIFKEQ_clean_linker_1, # of connection points: 2
#     Edge 9, Type (0, 1), BuildingBlock: KIFKEQ_clean_linker_1, # of connection points: 2
#     Edge 10, Type (0, 1), BuildingBlock: KIFKEQ_clean_linker_1, # of connection points: 2
#     Edge 11, Type (0, 1), BuildingBlock: KIFKEQ_clean_linker_1, # of connection points: 2
#     Edge 12, Type (0, 1), BuildingBlock: KIFKEQ_clean_linker_1, # of connection points: 2
#     Edge 13, Type (0, 1), BuildingBlock: KIFKEQ_clean_linker_1, # of connection points: 2
#     Edge 14, Type (0, 1), BuildingBlock: KIFKEQ_clean_linker_1, # of connection points: 2
#     Edge 15, Type (0, 1), BuildingBlock: KIFKEQ_clean_linker_1, # of connection points: 2
#     Edge 16, Type (0, 1), BuildingBlock: KIFKEQ_clean_linker_1, # of connection points: 2
#     Edge 17, Type (0, 1), BuildingBlock: KIFKEQ_clean_linker_1, # of connection points: 2
# Relax obj value: 0.014
# Max RMSD: 0.063
# Mean RMSD: 0.051
data_MOF--net-pth--node1-CEKHIL_clean_sbu_0--node2-MUDLON_clean_sbu_0--edge1-KIFKEQ_clean_linker_1
_symmetry_space_group_name_H-M    P1
_symmetry_Int_Tables_number       1
_symmetry_cell_setting            triclinic
loop_
_symmetry_equiv_pos_as_xyz
'x, y, z'
_cell_length_a     22.823694
_cell_length_b     22.90399
_cell_length_c     61.126677
_cell_angle_alpha  90.782288
_cell_angle_beta   89.95101
_cell_angle_gamma 120.23532
loop_
_atom_site_label
_atom_site_type_symbol
_atom_site_fract_x
_atom_site_fract_y
_atom_site_fract_z
_atom_type_partial_charge
Co0 Co 0.05287 0.06615 0.10725 0.0
O1 O 0.99535 1.00098 0.12861 0.0
O2 O 0.07772 0.99714 0.11091 0.0
C3 C 0.07482 0.15877 0.12755 0.0
O4 O 0.12493 0.12593 0.08485 0.0
Co5 Co 0.01191 0.16253 0.08621 0.0
O6 O 0.108 0.21189 0.07684 0.0
C7 C 0.94332 0.01985 0.07159 0.0
C8 C 0.03006 0.97095 0.12551 0.0
C9 C 0.14382 0.18357 0.07599 0.0
O10 O 0.98562 0.01117 0.08313 0.0
O11 O 0.94238 0.0753 0.07184 0.0
O12 O 0.10897 0.12825 0.13074 0.0
O13 O 0.0254 0.1294 0.11362 0.0
Co14 Co 0.04252 0.07429 0.42532 0.0
O15 O 0.98698 0.07933 0.40246 0.0
O16 O 0.06476 0.16747 0.42119 0.0
C17 C 0.06975 0.00545 0.40628 0.0
O18 O 0.1121 0.08922 0.4493 0.0
Co19 Co 1.00293 0.93795 0.44681 0.0
O20 O 0.09777 0.98767 0.45787 0.0
C21 C 0.92799 0.00755 0.45871 0.0
C22 C 0.01934 0.14426 0.40562 0.0
C23 C 0.13167 0.05203 0.45893 0.0
O24 O 0.97125 0.05965 0.44793 0.0
O25 O 0.9289 0.95208 0.45888 0.0
O26 O 0.10286 0.07027 0.40324 0.0
O27 O 0.01857 0.98415 0.41929 0.0
Co28 Co 0.02617 0.05002 0.75846 0.0
O29 O 0.09176 0.09305 0.73543 0.0
O30 O 0.08057 0.00725 0.75479 0.0
C31 C 0.93882 0.04417 0.7387 0.0
O32 O 0.9631 0.98776 0.78216 0.0
Co33 Co 0.9484 0.11183 0.78037 0.0
O34 O 0.8974 0.02557 0.79625 0.0
C35 C 0.09217 0.16534 0.7919 0.0
C36 C 0.11019 0.04876 0.73885 0.0
C37 C 0.91565 0.98146 0.79504 0.0
O38 O 0.09161 0.11587 0.7813 0.0
O39 O 0.04219 0.1759 0.79168 0.0
O40 O 0.95651 0.99867 0.7363 0.0
O41 O 0.97551 0.09281 0.75229 0.0
Mg42 Mg 0.07453 0.58478 0.26687 0.0
C43 C 0.03975 0.46097 0.29117 0.0
O44 O 0.09686 0.47676 0.28132 0.0
C45 C 0.98489 0.61948 0.23364 0.0
O46 O 0.92949 0.5609 0.23642 0.0
C47 C 0.07401 0.50214 0.23184 0.0
O48 O 0.01222 0.49013 0.23558 0.0
O49 O 0.12203 0.54707 0.24369 0.0
O50 O 0.01204 0.49642 0.28753 0.0
O51 O 0.12359 0.66532 0.29175 0.0
C52 C 0.07518 0.66578 0.30209 0.0
O53 O 0.01275 0.62117 0.2962 0.0
O54 O 0.0387 0.63373 0.24415 0.0
Mg55 Mg 0.53338 0.07466 0.59588 0.0
C56 C 0.46933 0.15399 0.57737 0.0
O57 O 0.43764 0.13886 0.59618 0.0
C58 C 0.63518 0.06585 0.62265 0.0
O59 O 0.60705 0.01097 0.6103 0.0
C60 C 0.43422 0.00792 0.63439 0.0
O61 O 0.48602 0.00767 0.64362 0.0
O62 O 0.43824 0.02482 0.61441 0.0
O63 O 0.51864 0.14344 0.57475 0.0
O64 O 0.56046 0.02187 0.57095 0.0
C65 C 0.60313 0.06332 0.55734 0.0
O66 O 0.62127 0.12744 0.55921 0.0
O67 O 0.61557 0.10872 0.62034 0.0
Mg68 Mg 0.55636 0.54242 0.93415 0.0
C69 C 0.45804 0.44729 0.90365 0.0
O70 O 0.50216 0.42804 0.90795 0.0
C71 C 0.65472 0.65512 0.96028 0.0
O72 O 0.68353 0.62182 0.95265 0.0
C73 C 0.53054 0.46925 0.97761 0.0
O74 O 0.56357 0.53202 0.98481 0.0
O75 O 0.52715 0.4581 0.95701 0.0
O76 O 0.46516 0.50014 0.91342 0.0
O77 O 0.64108 0.57827 0.91066 0.0
C78 C 0.63165 0.58858 0.89083 0.0
O79 O 0.56962 0.56703 0.88388 0.0
O80 O 0.59303 0.6338 0.95492 0.0
H81 H 0.02341 0.24141 0.12009 0.0
H82 H 0.15454 0.21322 0.16413 0.0
H83 H 0.03389 0.33365 0.14321 0.0
H84 H 0.16311 0.30409 0.18784 0.0
H85 H 0.19027 0.49783 0.22145 0.0
H86 H 0.20034 0.42332 0.19422 0.0
H87 H 0.98841 0.33733 0.17757 0.0
H88 H 0.97906 0.41164 0.2038 0.0
C89 C 0.05476 0.25515 0.13468 0.0
C90 C 0.0874 0.21944 0.14041 0.0
C91 C 0.06056 0.30789 0.14804 0.0
C92 C 0.09837 0.32572 0.16768 0.0
C93 C 0.13386 0.29215 0.17283 0.0
C94 C 0.12861 0.23972 0.15929 0.0
C95 C 0.14628 0.46348 0.21174 0.0
C96 C 0.08395 0.46088 0.21485 0.0
C97 C 0.15185 0.4205 0.19623 0.0
C98 C 0.09529 0.37447 0.1835 0.0
C99 C 0.03354 0.37291 0.18659 0.0
C100 C 0.02804 0.41542 0.20192 0.0
H101 H 0.92139 0.12058 0.46986 0.0
H102 H 0.81533 0.9041 0.47789 0.0
H103 H 0.83788 0.12778 0.49269 0.0
H104 H 0.73025 0.91093 0.50008 0.0
H105 H 0.63434 0.96188 0.55925 0.0
H106 H 0.7101 0.94557 0.53474 0.0
H107 H 0.72565 0.10475 0.49358 0.0
H108 H 0.65277 0.12241 0.51845 0.0
C109 C 0.87984 0.07436 0.47627 0.0
C110 C 0.8754 0.01183 0.47198 0.0
C111 C 0.83144 0.07835 0.48931 0.0
C112 C 0.77663 0.01983 0.49825 0.0
C113 C 0.77198 0.95721 0.4938 0.0
C114 C 0.82075 0.95329 0.48091 0.0
C115 C 0.65308 0.99236 0.54473 0.0
C116 C 0.63794 0.04363 0.54084 0.0
C117 C 0.69666 0.98321 0.53065 0.0
C118 C 0.72535 0.02472 0.51228 0.0
C119 C 0.70655 0.07319 0.50785 0.0
C120 C 0.664 0.08284 0.522 0.0
H121 H 0.90504 0.85735 0.78922 0.0
H122 H 0.85069 0.97039 0.83365 0.0
H123 H 0.84712 0.75848 0.81279 0.0
H124 H 0.79437 0.8723 0.85729 0.0
H125 H 0.74805 0.70215 0.90429 0.0
H126 H 0.82531 0.7969 0.88131 0.0
H127 H 0.7186 0.68213 0.82357 0.0
H128 H 0.64053 0.58825 0.8465 0.0
C129 C 0.8813 0.86132 0.80408 0.0
C130 C 0.88212 0.92168 0.80946 0.0
C131 C 0.84819 0.80474 0.81754 0.0
C132 C 0.81672 0.80787 0.83696 0.0
C133 C 0.81891 0.86864 0.84258 0.0
C134 C 0.85064 0.92462 0.82891 0.0
C135 C 0.74249 0.69638 0.88666 0.0
C136 C 0.68837 0.63772 0.87717 0.0
C137 C 0.78623 0.75085 0.87353 0.0
C138 C 0.77761 0.74705 0.85066 0.0
C139 C 0.72668 0.68643 0.84111 0.0
C140 C 0.68207 0.63266 0.85425 0.0
H141 H 0.92654 0.90029 0.15406 0.0
H142 H 0.10712 0.91013 0.12798 0.0
H143 H 0.9125 0.81199 0.17905 0.0
H144 H 0.09283 0.82138 0.15294 0.0
H145 H 0.09649 0.73552 0.22029 0.0
H146 H 0.10363 0.81443 0.19281 0.0
H147 H 0.88782 0.69329 0.18141 0.0
H148 H 0.88038 0.61361 0.20918 0.0
C149 C 0.96287 0.88307 0.15347 0.0
C150 C 0.01822 0.91261 0.13908 0.0
C151 C 0.95457 0.83213 0.16775 0.0
C152 C 1.00175 0.80981 0.16814 0.0
C153 C 0.05603 0.838 0.15328 0.0
C154 C 0.06401 0.88859 0.13886 0.0
C155 C 0.05031 0.7254 0.212 0.0
C156 C 0.98773 0.66799 0.21706 0.0
C157 C 0.05462 0.77055 0.19604 0.0
C158 C 0.99646 0.76009 0.18474 0.0
C159 C 0.93362 0.70303 0.18987 0.0
C160 C 0.92935 0.65729 0.20576 0.0
H161 H 0.21423 1.00164 0.46772 0.0
H162 H 0.18863 0.17245 0.48217 0.0
H163 H 0.30681 0.04345 0.49413 0.0
H164 H 0.28187 0.21446 0.50898 0.0
H165 H 0.36549 0.18128 0.57684 0.0
H166 H 0.29399 0.17108 0.54566 0.0
H167 H 0.4242 0.13662 0.50276 0.0
H168 H 0.49583 0.14677 0.5339 0.0
C169 C 0.22906 0.04876 0.47634 0.0
C170 C 0.19373 0.0835 0.47291 0.0
C171 C 0.28259 0.07303 0.4914 0.0
C172 C 0.30187 0.13234 0.50371 0.0
C173 C 0.26807 0.16847 0.49981 0.0
C174 C 0.21498 0.14466 0.48438 0.0
C175 C 0.37999 0.17332 0.56068 0.0
C176 C 0.4361 0.16411 0.55798 0.0
C177 C 0.33901 0.16767 0.54277 0.0
C178 C 0.3528 0.1521 0.52175 0.0
C179 C 0.41166 0.14773 0.5188 0.0
C180 C 0.45303 0.15405 0.53666 0.0
H181 H 0.18499 0.13867 0.81082 0.0
H182 H 0.13112 0.29366 0.80578 0.0
H183 H 0.27265 0.20809 0.83757 0.0
H184 H 0.22065 0.36457 0.83168 0.0
H185 H 0.3375 0.44491 0.89646 0.0
H186 H 0.25098 0.37818 0.86878 0.0
H187 H 0.37812 0.30328 0.84339 0.0
H188 H 0.46189 0.36675 0.8715 0.0
C189 C 0.19282 0.18817 0.81508 0.0
C190 C 0.1509 0.21042 0.80618 0.0
C191 C 0.24331 0.22831 0.83043 0.0
C192 C 0.25399 0.2923 0.83702 0.0
C193 C 0.21325 0.3152 0.82751 0.0
C194 C 0.16219 0.27468 0.81244 0.0
C195 C 0.34666 0.41414 0.88492 0.0
C196 C 0.40617 0.41062 0.88635 0.0
C197 C 0.2973 0.37607 0.86893 0.0
C198 C 0.30693 0.3345 0.85379 0.0
C199 C 0.3676 0.33291 0.85499 0.0
C200 C 0.4161 0.36989 0.87111 0.0
H201 H 0.84983 0.94631 0.71038 0.0
H202 H 0.91555 0.1493 0.73328 0.0
H203 H 0.77659 0.95535 0.68336 0.0
H204 H 0.84437 0.15967 0.70562 0.0
H205 H 0.66363 0.13231 0.66267 0.0
H206 H 0.73327 0.12677 0.69226 0.0
H207 H 0.78836 0.00943 0.64999 0.0
H208 H 0.71748 0.01298 0.62114 0.0
C209 C 0.84844 0.99283 0.70969 0.0
C210 C 0.88882 0.04712 0.72391 0.0
C211 C 0.80693 0.99843 0.69401 0.0
C212 C 0.80532 0.05885 0.6919 0.0
C213 C 0.84386 0.11228 0.70674 0.0
C214 C 0.88491 0.10638 0.72259 0.0
C215 C 0.69147 0.1062 0.65973 0.0
C216 C 0.68474 0.07273 0.63964 0.0
C217 C 0.73129 0.1028 0.67668 0.0
C218 C 0.76555 0.06634 0.67377 0.0
C219 C 0.76113 0.03599 0.65322 0.0
C220 C 0.72099 0.0387 0.63651 0.0
H221 H 0.93058 0.89525 0.06455 0.0
H222 H 0.84583 0.01802 0.04474 0.0
H223 H 0.85627 0.80749 0.03851 0.0
H224 H 0.77225 0.9304 0.01847 0.0
H225 H 0.60984 0.72594 0.9857 0.0
H226 H 0.67499 0.8126 1.01386 0.0
H227 H 0.85156 0.79709 0.99879 0.0
H228 H 0.78753 0.71159 0.97119 0.0
C229 C 0.89605 0.9036 0.05473 0.0
C230 C 0.89497 0.96428 0.05668 0.0
C231 C 0.85355 0.85329 0.0397 0.0
C232 C 0.80871 0.86215 0.0262 0.0
C233 C 0.80583 0.92172 0.02867 0.0
C234 C 0.84848 0.97219 0.04367 0.0
C235 C 0.66266 0.74152 0.98836 0.0
C236 C 0.69316 0.71137 0.97626 0.0
C237 C 0.69999 0.79108 1.00448 0.0
C238 C 0.76828 0.81101 1.00884 0.0
C239 C 0.79875 0.78188 0.9963 0.0
C240 C 0.76188 0.73299 0.98029 0.0
H241 H 0.02085 0.87193 0.41402 0.0
H242 H 0.15229 0.03201 0.3707 0.0
H243 H 0.03391 0.79082 0.39146 0.0
H244 H 0.16351 0.95026 0.34755 0.0
H245 H 0.19219 0.78476 0.31417 0.0
H246 H 0.2018 0.86844 0.3418 0.0
H247 H 0.98929 0.74167 0.35673 0.0
H248 H 0.98036 0.65903 0.33007 0.0
C249 C 0.05293 0.88988 0.39973 0.0
C250 C 0.08476 0.95821 0.394 0.0
C251 C 0.06023 0.84331 0.3867 0.0
C252 C 0.09876 0.86358 0.36738 0.0
C253 C 0.13372 0.93274 0.36231 0.0
C254 C 0.12695 0.97959 0.37553 0.0
C255 C 0.14804 0.77464 0.32365 0.0
C256 C 0.08554 0.71523 0.31983 0.0
C257 C 0.15333 0.8227 0.33936 0.0
C258 C 0.09637 0.81183 0.35164 0.0
C259 C 0.03466 0.75156 0.34802 0.0
C260 C 0.0294 0.70415 0.33246 0.0
H261 H 0.206 0.01417 0.74853 0.0
H262 H 0.11747 0.06414 0.69497 0.0
H263 H 0.28132 1.00111 0.72318 0.0
H264 H 0.18668 0.04458 0.66926 0.0
H265 H 0.36055 0.06996 0.62808 0.0
H266 H 0.28538 0.0808 0.6533 0.0
H267 H 0.30351 0.94428 0.69746 0.0
H268 H 0.38498 0.9397 0.67275 0.0
C269 C 0.20241 0.02174 0.73124 0.0
C270 C 0.15682 0.04127 0.72374 0.0
C271 C 0.245 0.01335 0.71652 0.0
C272 C 0.24129 0.02181 0.69379 0.0
C273 C 0.19381 0.03968 0.68648 0.0
C274 C 0.1533 0.05052 0.70126 0.0
C275 C 0.34812 0.0418 0.64307 0.0
C276 C 0.379 1.00405 0.64834 0.0
C277 C 0.30407 0.04753 0.6577 0.0
C278 C 0.28719 0.01355 0.67783 0.0
C279 C 0.31595 0.97303 0.68258 0.0
C280 C 0.36208 0.96933 0.66821 0.0
H281 H 0.22555 0.31875 0.07164 0.0
H282 H 0.20735 0.12849 0.05204 0.0
H283 H 0.32568 0.37877 0.049 0.0
H284 H 0.30828 0.1893 0.02885 0.0
H285 H 0.425 0.34038 0.96827 0.0
H286 H 0.3373 0.26411 0.9937 0.0
H287 H 0.44604 0.40114 0.04724 0.0
H288 H 0.53325 0.47685 0.02211 0.0
C289 C 0.24335 0.28971 0.06261 0.0
C290 C 0.20845 0.21882 0.06367 0.0
C291 C 0.30104 0.3242 0.04969 0.0
C292 C 0.32513 0.28887 0.03716 0.0
C293 C 0.29085 0.21787 0.03831 0.0
C294 C 0.23346 0.18317 0.05168 0.0
C295 C 0.43118 0.35326 0.98555 0.0
C296 C 0.48582 0.41531 0.99306 0.0
C297 C 0.38089 0.30952 1.00012 0.0
C298 C 0.3842 0.32719 0.02242 0.0
C299 C 0.44145 0.38663 0.0301 0.0
C300 C 0.49161 0.42995 0.01565 0.0
H301 H 0.93733 0.10708 0.36961 0.0
H302 H 0.07607 0.28266 0.40806 0.0
H303 H 0.92762 0.17976 0.34288 0.0
H304 H 0.06576 0.35567 0.38117 0.0
H305 H 0.9963 0.464 0.33287 0.0
H306 H 0.98116 0.38576 0.36248 0.0
H307 H 0.01584 0.26162 0.31656 0.0
H308 H 0.03221 0.33995 0.28741 0.0
C309 C 0.96507 0.16118 0.37256 0.0
C310 C 0.00801 0.18901 0.39093 0.0
C311 C 0.95949 0.20283 0.35718 0.0
C312 C 0.9961 0.27347 0.35984 0.0
C313 C 0.03647 0.30137 0.37875 0.0
C314 C 0.04268 0.25958 0.39409 0.0
C315 C 0.99859 0.41886 0.32908 0.0
C316 C 0.01466 0.40751 0.30782 0.0
C317 C 0.99082 0.37462 0.34604 0.0
C318 C 0.99747 0.31758 0.34187 0.0
C319 C 0.00978 0.30464 0.32031 0.0
C320 C 0.01901 0.34941 0.30358 0.0
loop_
_geom_bond_atom_site_label_1
_geom_bond_atom_site_label_2
_geom_bond_distance
_geom_bond_site_symmetry_2
_ccdc_geom_bond_type
Co0 O1 2.216 1_445 S
Co0 O2 2.091 . S
Co0 O4 2.004 . S
Co0 O10 2.021 1_445 S
Co0 O12 2.137 . S
Co0 O13 2.244 1_455 S
O1 Co0 2.216 1_665 S
O1 C8 1.247 1_655 S
O2 Co0 2.091 . S
O2 C8 1.261 1_545 S
C3 O12 1.247 . S
C3 O13 1.272 1_455 S
O4 Co0 2.004 . S
O4 C9 1.259 . S
Co5 O6 2.061 1_655 S
Co5 O11 2.052 . S
Co5 O13 2.135 . S
O6 Co5 2.061 1_455 S
O6 C9 1.235 . S
C7 O10 1.238 . S
C7 O11 1.241 1_565 S
C8 O1 1.247 1_455 S
C8 O2 1.261 1_565 S
C9 O4 1.259 . S
C9 O6 1.235 . S
O10 Co0 2.021 1_665 S
O10 C7 1.238 . S
O11 Co5 2.052 . S
O11 C7 1.241 1_545 S
O12 Co0 2.137 . S
O12 C3 1.247 . S
O13 Co0 2.244 1_655 S
O13 C3 1.272 1_655 S
O13 Co5 2.135 . S
Co14 O15 2.216 . S
Co14 O16 2.091 . S
Co14 O18 2.004 . S
Co14 O24 2.021 . S
Co14 O26 2.137 . S
Co14 O27 2.244 1_545 S
O15 Co14 2.216 . S
O15 C22 1.247 . S
O16 Co14 2.091 . S
O16 C22 1.261 . S
C17 O26 1.247 1_565 S
C17 O27 1.272 . S
O18 Co14 2.004 . S
O18 C23 1.259 . S
Co19 O20 2.061 1_665 S
Co19 O25 2.052 . S
Co19 O27 2.135 1_655 S
O20 Co19 2.061 1_445 S
O20 C23 1.235 . S
C21 O24 1.238 1_655 S
C21 O25 1.241 1_545 S
C22 O15 1.247 . S
C22 O16 1.261 . S
C23 O18 1.259 . S
C23 O20 1.235 . S
O24 Co14 2.021 . S
O24 C21 1.238 1_455 S
O25 Co19 2.052 . S
O25 C21 1.241 1_565 S
O26 Co14 2.137 . S
O26 C17 1.247 1_545 S
O27 Co14 2.244 1_565 S
O27 C17 1.272 . S
O27 Co19 2.135 1_455 S
Co28 O29 2.216 . S
Co28 O30 2.091 1_545 S
Co28 O32 2.004 1_445 S
Co28 O38 2.021 . S
Co28 O40 2.137 1_455 S
Co28 O41 2.244 1_455 S
O29 Co28 2.216 . S
O29 C36 1.247 . S
O30 Co28 2.091 1_565 S
O30 C36 1.261 1_565 S
C31 O40 1.247 . S
C31 O41 1.272 . S
O32 Co28 2.004 1_665 S
O32 C37 1.259 . S
Co33 O34 2.061 . S
Co33 O39 2.052 1_655 S
Co33 O41 2.135 . S
O34 Co33 2.061 . S
O34 C37 1.235 1_545 S
C35 O38 1.238 . S
C35 O39 1.241 . S
C36 O29 1.247 . S
C36 O30 1.261 1_545 S
C37 O32 1.259 . S
C37 O34 1.235 1_565 S
O38 Co28 2.021 . S
O38 C35 1.238 . S
O39 Co33 2.052 1_455 S
O39 C35 1.241 . S
O40 Co28 2.137 1_655 S
O40 C31 1.247 . S
O41 Co28 2.244 1_655 S
O41 C31 1.272 . S
O41 Co33 2.135 . S
Mg42 O49 2.141 . S
Mg42 O50 2.048 . S
Mg42 O51 2.048 . S
Mg42 O54 2.141 . S
C43 O44 1.313 1_455 S
C43 O50 1.195 . S
O44 C43 1.313 1_655 S
C45 O46 1.245 1_455 S
C45 O54 1.289 . S
O46 C45 1.245 1_655 S
C47 O48 1.245 1_455 S
C47 O49 1.289 . S
O48 C47 1.245 1_655 S
O49 Mg42 2.141 . S
O49 C47 1.289 . S
O50 Mg42 2.048 . S
O50 C43 1.195 . S
O51 Mg42 2.048 . S
O51 C52 1.195 . S
C52 O51 1.195 . S
C52 O53 1.313 1_455 S
O53 C52 1.313 1_655 S
O54 Mg42 2.141 . S
O54 C45 1.289 . S
Mg55 O62 2.141 . S
Mg55 O63 2.048 . S
Mg55 O64 2.048 . S
Mg55 O67 2.141 . S
C56 O57 1.313 1_545 S
C56 O63 1.195 . S
O57 C56 1.313 1_565 S
C58 O59 1.245 1_545 S
C58 O67 1.289 . S
O59 C58 1.245 1_565 S
C60 O61 1.245 1_545 S
C60 O62 1.289 . S
O61 C60 1.245 1_565 S
O62 Mg55 2.141 . S
O62 C60 1.289 . S
O63 Mg55 2.048 . S
O63 C56 1.195 . S
O64 Mg55 2.048 . S
O64 C65 1.195 . S
C65 O64 1.195 . S
C65 O66 1.313 1_545 S
O66 C65 1.313 1_565 S
O67 Mg55 2.141 . S
O67 C58 1.289 . S
Mg68 O75 2.141 . S
Mg68 O76 2.048 . S
Mg68 O77 2.048 . S
Mg68 O80 2.141 . S
C69 O70 1.313 . S
C69 O76 1.195 . S
O70 C69 1.313 . S
C71 O72 1.245 . S
C71 O80 1.289 . S
O72 C71 1.245 . S
C73 O74 1.245 . S
C73 O75 1.289 . S
O74 C73 1.245 . S
O75 Mg68 2.141 . S
O75 C73 1.289 . S
O76 Mg68 2.048 . S
O76 C69 1.195 . S
O77 Mg68 2.048 . S
O77 C78 1.195 . S
C78 O77 1.195 . S
C78 O79 1.313 . S
O79 C78 1.313 . S
O80 Mg68 2.141 . S
O80 C71 1.289 . S
H81 C89 0.950 . S
H82 C94 0.950 . S
H83 C91 0.950 . S
H84 C93 0.950 . S
H85 C95 0.950 . S
H86 C97 0.950 . S
H87 C99 0.950 . S
H88 C100 0.950 . S
C89 H81 0.950 . S
C89 C90 1.386 1_655 S
C89 C91 1.391 . S
C90 C89 1.386 1_455 S
C90 C94 1.393 . S
C91 H83 0.950 . S
C91 C89 1.391 . S
C91 C92 1.400 1_655 S
C92 C91 1.400 1_455 S
C92 C93 1.398 . S
C92 C98 1.491 . S
C93 H84 0.950 . S
C93 C92 1.398 . S
C93 C94 1.391 . S
C94 H82 0.950 . S
C94 C90 1.393 . S
C94 C93 1.391 . S
C95 H85 0.950 . S
C95 C96 1.386 . S
C95 C97 1.391 . S
C96 C95 1.386 . S
C96 C100 1.393 1_455 S
C97 H86 0.950 . S
C97 C95 1.391 . S
C97 C98 1.400 . S
C98 C92 1.491 . S
C98 C97 1.400 . S
C98 C99 1.398 1_455 S
C99 H87 0.950 . S
C99 C98 1.398 1_655 S
C99 C100 1.391 . S
C100 H88 0.950 . S
C100 C96 1.393 1_655 S
C100 C99 1.391 . S
H101 C109 0.950 . S
H102 C114 0.950 . S
H103 C111 0.950 . S
H104 C113 0.950 . S
H105 C115 0.950 . S
H106 C117 0.950 . S
H107 C119 0.950 . S
H108 C120 0.950 . S
C109 H101 0.950 . S
C109 C110 1.386 . S
C109 C111 1.391 . S
C110 C109 1.386 . S
C110 C114 1.393 . S
C111 H103 0.950 . S
C111 C109 1.391 . S
C111 C112 1.400 . S
C112 C111 1.400 . S
C112 C113 1.398 . S
C112 C118 1.491 . S
C113 H104 0.950 . S
C113 C112 1.398 . S
C113 C114 1.391 . S
C114 H102 0.950 . S
C114 C110 1.393 . S
C114 C113 1.391 . S
C115 H105 0.950 . S
C115 C116 1.386 . S
C115 C117 1.391 . S
C116 C115 1.386 . S
C116 C120 1.393 . S
C117 H106 0.950 . S
C117 C115 1.391 . S
C117 C118 1.400 . S
C118 C112 1.491 . S
C118 C117 1.400 . S
C118 C119 1.398 . S
C119 H107 0.950 . S
C119 C118 1.398 . S
C119 C120 1.391 . S
C120 H108 0.950 . S
C120 C116 1.393 . S
C120 C119 1.391 . S
H121 C129 0.950 . S
H122 C134 0.950 . S
H123 C131 0.950 . S
H124 C133 0.950 . S
H125 C135 0.950 . S
H126 C137 0.950 . S
H127 C139 0.950 . S
H128 C140 0.950 . S
C129 H121 0.950 . S
C129 C130 1.386 . S
C129 C131 1.391 . S
C130 C129 1.386 . S
C130 C134 1.393 . S
C131 H123 0.950 . S
C131 C129 1.391 . S
C131 C132 1.400 . S
C132 C131 1.400 . S
C132 C133 1.398 . S
C132 C138 1.491 . S
C133 H124 0.950 . S
C133 C132 1.398 . S
C133 C134 1.391 . S
C134 H122 0.950 . S
C134 C130 1.393 . S
C134 C133 1.391 . S
C135 H125 0.950 . S
C135 C136 1.386 . S
C135 C137 1.391 . S
C136 C135 1.386 . S
C136 C140 1.393 . S
C137 H126 0.950 . S
C137 C135 1.391 . S
C137 C138 1.400 . S
C138 C132 1.491 . S
C138 C137 1.400 . S
C138 C139 1.398 . S
C139 H127 0.950 . S
C139 C138 1.398 . S
C139 C140 1.391 . S
C140 H128 0.950 . S
C140 C136 1.393 . S
C140 C139 1.391 . S
H141 C149 0.950 . S
H142 C154 0.950 . S
H143 C151 0.950 . S
H144 C153 0.950 . S
H145 C155 0.950 . S
H146 C157 0.950 . S
H147 C159 0.950 . S
H148 C160 0.950 . S
C149 H141 0.950 . S
C149 C150 1.386 1_655 S
C149 C151 1.391 . S
C150 C149 1.386 1_455 S
C150 C154 1.393 . S
C151 H143 0.950 . S
C151 C149 1.391 . S
C151 C152 1.400 1_655 S
C152 C151 1.400 1_455 S
C152 C153 1.398 . S
C152 C158 1.491 . S
C153 H144 0.950 . S
C153 C152 1.398 . S
C153 C154 1.391 . S
C154 H142 0.950 . S
C154 C150 1.393 . S
C154 C153 1.391 . S
C155 H145 0.950 . S
C155 C156 1.386 . S
C155 C157 1.391 . S
C156 C155 1.386 . S
C156 C160 1.393 1_455 S
C157 H146 0.950 . S
C157 C155 1.391 . S
C157 C158 1.400 . S
C158 C152 1.491 . S
C158 C157 1.400 . S
C158 C159 1.398 1_455 S
C159 H147 0.950 . S
C159 C158 1.398 1_655 S
C159 C160 1.391 . S
C160 H148 0.950 . S
C160 C156 1.393 1_655 S
C160 C159 1.391 . S
H161 C169 0.950 . S
H162 C174 0.950 . S
H163 C171 0.950 . S
H164 C173 0.950 . S
H165 C175 0.950 . S
H166 C177 0.950 . S
H167 C179 0.950 . S
H168 C180 0.950 . S
C169 H161 0.950 . S
C169 C170 1.386 . S
C169 C171 1.391 . S
C170 C169 1.386 . S
C170 C174 1.393 . S
C171 H163 0.950 . S
C171 C169 1.391 . S
C171 C172 1.400 . S
C172 C171 1.400 . S
C172 C173 1.398 . S
C172 C178 1.491 . S
C173 H164 0.950 . S
C173 C172 1.398 . S
C173 C174 1.391 . S
C174 H162 0.950 . S
C174 C170 1.393 . S
C174 C173 1.391 . S
C175 H165 0.950 . S
C175 C176 1.386 . S
C175 C177 1.391 . S
C176 C175 1.386 . S
C176 C180 1.393 . S
C177 H166 0.950 . S
C177 C175 1.391 . S
C177 C178 1.400 . S
C178 C172 1.491 . S
C178 C177 1.400 . S
C178 C179 1.398 . S
C179 H167 0.950 . S
C179 C178 1.398 . S
C179 C180 1.391 . S
C180 H168 0.950 . S
C180 C176 1.393 . S
C180 C179 1.391 . S
H181 C189 0.950 . S
H182 C194 0.950 . S
H183 C191 0.950 . S
H184 C193 0.950 . S
H185 C195 0.950 . S
H186 C197 0.950 . S
H187 C199 0.950 . S
H188 C200 0.950 . S
C189 H181 0.950 . S
C189 C190 1.386 . S
C189 C191 1.391 . S
C190 C189 1.386 . S
C190 C194 1.393 . S
C191 H183 0.950 . S
C191 C189 1.391 . S
C191 C192 1.400 . S
C192 C191 1.400 . S
C192 C193 1.398 . S
C192 C198 1.491 . S
C193 H184 0.950 . S
C193 C192 1.398 . S
C193 C194 1.391 . S
C194 H182 0.950 . S
C194 C190 1.393 . S
C194 C193 1.391 . S
C195 H185 0.950 . S
C195 C196 1.386 . S
C195 C197 1.391 . S
C196 C195 1.386 . S
C196 C200 1.393 . S
C197 H186 0.950 . S
C197 C195 1.391 . S
C197 C198 1.400 . S
C198 C192 1.491 . S
C198 C197 1.400 . S
C198 C199 1.398 . S
C199 H187 0.950 . S
C199 C198 1.398 . S
C199 C200 1.391 . S
C200 H188 0.950 . S
C200 C196 1.393 . S
C200 C199 1.391 . S
H201 C209 0.950 . S
H202 C214 0.950 . S
H203 C211 0.950 . S
H204 C213 0.950 . S
H205 C215 0.950 . S
H206 C217 0.950 . S
H207 C219 0.950 . S
H208 C220 0.950 . S
C209 H201 0.950 . S
C209 C210 1.386 . S
C209 C211 1.391 . S
C210 C209 1.386 . S
C210 C214 1.393 . S
C211 H203 0.950 . S
C211 C209 1.391 . S
C211 C212 1.400 . S
C212 C211 1.400 . S
C212 C213 1.398 . S
C212 C218 1.491 . S
C213 H204 0.950 . S
C213 C212 1.398 . S
C213 C214 1.391 . S
C214 H202 0.950 . S
C214 C210 1.393 . S
C214 C213 1.391 . S
C215 H205 0.950 . S
C215 C216 1.386 . S
C215 C217 1.391 . S
C216 C215 1.386 . S
C216 C220 1.393 . S
C217 H206 0.950 . S
C217 C215 1.391 . S
C217 C218 1.400 . S
C218 C212 1.491 . S
C218 C217 1.400 . S
C218 C219 1.398 . S
C219 H207 0.950 . S
C219 C218 1.398 . S
C219 C220 1.391 . S
C220 H208 0.950 . S
C220 C216 1.393 . S
C220 C219 1.391 . S
H221 C229 0.950 . S
H222 C234 0.948 . S
H223 C231 0.950 . S
H224 C233 0.950 . S
H225 C235 0.950 . S
H226 C237 0.950 . S
H227 C239 0.950 1_554 S
H228 C240 0.950 . S
C229 H221 0.950 . S
C229 C230 1.386 . S
C229 C231 1.391 . S
C230 C229 1.386 . S
C230 C234 1.393 . S
C231 H223 0.950 . S
C231 C229 1.391 . S
C231 C232 1.400 . S
C232 C231 1.400 . S
C232 C233 1.398 . S
C232 C238 1.491 1_554 S
C233 H224 0.950 . S
C233 C232 1.398 . S
C233 C234 1.391 . S
C234 H222 0.948 . S
C234 C230 1.393 . S
C234 C233 1.391 . S
C235 H225 0.950 . S
C235 C236 1.386 . S
C235 C237 1.391 . S
C236 C235 1.386 . S
C236 C240 1.393 . S
C237 H226 0.950 . S
C237 C235 1.391 . S
C237 C238 1.400 . S
C238 C232 1.491 1_556 S
C238 C237 1.400 . S
C238 C239 1.398 . S
C239 H227 0.950 1_556 S
C239 C238 1.398 . S
C239 C240 1.391 . S
C240 H228 0.950 . S
C240 C236 1.393 . S
C240 C239 1.391 . S
H241 C249 0.950 . S
H242 C254 0.950 . S
H243 C251 0.950 . S
H244 C253 0.950 . S
H245 C255 0.950 . S
H246 C257 0.950 . S
H247 C259 0.950 . S
H248 C260 0.950 . S
C249 H241 0.950 . S
C249 C250 1.386 1_655 S
C249 C251 1.391 . S
C250 C249 1.386 1_455 S
C250 C254 1.393 . S
C251 H243 0.950 . S
C251 C249 1.391 . S
C251 C252 1.400 1_655 S
C252 C251 1.400 1_455 S
C252 C253 1.398 . S
C252 C258 1.491 . S
C253 H244 0.950 . S
C253 C252 1.398 . S
C253 C254 1.391 . S
C254 H242 0.950 . S
C254 C250 1.393 . S
C254 C253 1.391 . S
C255 H245 0.950 . S
C255 C256 1.386 . S
C255 C257 1.391 . S
C256 C255 1.386 . S
C256 C260 1.393 1_455 S
C257 H246 0.950 . S
C257 C255 1.391 . S
C257 C258 1.400 . S
C258 C252 1.491 . S
C258 C257 1.400 . S
C258 C259 1.398 1_455 S
C259 H247 0.950 . S
C259 C258 1.398 1_655 S
C259 C260 1.391 . S
C260 H248 0.950 . S
C260 C256 1.393 1_655 S
C260 C259 1.391 . S
H261 C269 0.950 . S
H262 C274 0.950 . S
H263 C271 0.950 . S
H264 C273 0.950 . S
H265 C275 0.950 . S
H266 C277 0.950 . S
H267 C279 0.950 1_565 S
H268 C280 0.950 1_565 S
C269 H261 0.950 . S
C269 C270 1.386 1_565 S
C269 C271 1.391 . S
C270 C269 1.386 1_545 S
C270 C274 1.393 . S
C271 H263 0.950 . S
C271 C269 1.391 . S
C271 C272 1.400 1_565 S
C272 C271 1.400 1_545 S
C272 C273 1.398 . S
C272 C278 1.491 . S
C273 H264 0.950 . S
C273 C272 1.398 . S
C273 C274 1.391 . S
C274 H262 0.950 . S
C274 C270 1.393 . S
C274 C273 1.391 . S
C275 H265 0.950 . S
C275 C276 1.386 . S
C275 C277 1.391 . S
C276 C275 1.386 . S
C276 C280 1.393 . S
C277 H266 0.950 . S
C277 C275 1.391 . S
C277 C278 1.400 . S
C278 C272 1.491 . S
C278 C277 1.400 . S
C278 C279 1.398 . S
C279 H267 0.950 1_545 S
C279 C278 1.398 . S
C279 C280 1.391 . S
C280 H268 0.950 1_545 S
C280 C276 1.393 . S
C280 C279 1.391 . S
H281 C289 0.950 . S
H282 C294 0.950 . S
H283 C291 0.950 . S
H284 C293 0.950 1_556 S
H285 C295 0.950 . S
H286 C297 0.950 . S
H287 C299 0.950 . S
H288 C300 0.950 . S
C289 H281 0.950 . S
C289 C290 1.386 . S
C289 C291 1.391 . S
C290 C289 1.386 . S
C290 C294 1.393 . S
C291 H283 0.950 . S
C291 C289 1.391 . S
C291 C292 1.400 . S
C292 C291 1.400 . S
C292 C293 1.398 . S
C292 C298 1.491 1_554 S
C293 H284 0.950 1_554 S
C293 C292 1.398 . S
C293 C294 1.391 . S
C294 H282 0.950 . S
C294 C290 1.393 . S
C294 C293 1.391 . S
C295 H285 0.950 . S
C295 C296 1.386 . S
C295 C297 1.391 . S
C296 C295 1.386 . S
C296 C300 1.393 . S
C297 H286 0.950 . S
C297 C295 1.391 . S
C297 C298 1.400 . S
C298 C292 1.491 1_556 S
C298 C297 1.400 . S
C298 C299 1.398 1_556 S
C299 H287 0.950 . S
C299 C298 1.398 1_554 S
C299 C300 1.391 1_554 S
C300 H288 0.950 . S
C300 C296 1.393 . S
C300 C299 1.391 1_556 S
H301 C309 0.950 . S
H302 C314 0.950 . S
H303 C311 0.950 . S
H304 C313 0.950 . S
H305 C315 0.950 . S
H306 C317 0.950 . S
H307 C319 0.950 . S
H308 C320 0.950 . S
C309 H301 0.950 . S
C309 C310 1.386 . S
C309 C311 1.391 . S
C310 C309 1.386 . S
C310 C314 1.393 . S
C311 H303 0.950 . S
C311 C309 1.391 . S
C311 C312 1.400 . S
C312 C311 1.400 . S
C312 C313 1.398 . S
C312 C318 1.491 . S
C313 H304 0.950 . S
C313 C312 1.398 . S
C313 C314 1.391 . S
C314 H302 0.950 . S
C314 C310 1.393 . S
C314 C313 1.391 . S
C315 H305 0.950 . S
C315 C316 1.386 . S
C315 C317 1.391 . S
C316 C315 1.386 . S
C316 C320 1.393 . S
C317 H306 0.950 . S
C317 C315 1.391 . S
C317 C318 1.400 . S
C318 C312 1.491 . S
C318 C317 1.400 . S
C318 C319 1.398 . S
C319 H307 0.950 . S
C319 C318 1.398 . S
C319 C320 1.391 . S
C320 H308 0.950 . S
C320 C316 1.393 . S
C320 C319 1.391 . S
C96 C47 1.417 . S
C90 C3 1.417 . S
C110 C21 1.491 . S
C116 C65 1.523 . S
C130 C37 1.474 . S
C136 C78 1.489 . S
C150 C8 1.427 . S
C156 C45 1.417 . S
C176 C56 1.485 . S
C170 C23 1.477 . S
C190 C35 1.478 . S
C196 C69 1.492 . S
C216 C58 1.426 . S
C210 C31 1.420 . S
C230 C7 1.407 . S
C236 C71 1.417 . S
C256 C52 1.489 . S
C250 C17 1.486 . S
C276 C60 1.384 . S
C270 C36 1.385 . S
C296 C73 1.429 . S
C290 C9 1.422 . S
C310 C22 1.490 . S
C316 C43 1.490 . S
