# Generated by pormake.
# Topology tsx, (6,3)-cn, num edge types: 1
# Building blocks:
#     Node 0, Type 0, BuildingBlock: VOLQOD_clean_sbu_1, # of connection points: 6
#     Node 1, Type 0, BuildingBlock: VOLQOD_clean_sbu_1, # of connection points: 6
#     Node 2, Type 1, BuildingBlock: OLANEW_clean_sbu_2, # of connection points: 3
#     Node 3, Type 1, BuildingBlock: OLANEW_clean_sbu_2, # of connection points: 3
#     Node 4, Type 1, BuildingBlock: OLANEW_clean_sbu_2, # of connection points: 3
#     Node 5, Type 1, BuildingBlock: OLANEW_clean_sbu_2, # of connection points: 3
#     Edge 6, Type (0, 1), BuildingBlock: UVAHIK_clean_linker_0, # of connection points: 2
#     Edge 7, Type (0, 1), BuildingBlock: UVAHIK_clean_linker_0, # of connection points: 2
#     Edge 8, Type (0, 1), BuildingBlock: UVAHIK_clean_linker_0, # of connection points: 2
#     Edge 9, Type (0, 1), BuildingBlock: UVAHIK_clean_linker_0, # of connection points: 2
#     Edge 10, Type (0, 1), BuildingBlock: UVAHIK_clean_linker_0, # of connection points: 2
#     Edge 11, Type (0, 1), BuildingBlock: UVAHIK_clean_linker_0, # of connection points: 2
#     Edge 12, Type (0, 1), BuildingBlock: UVAHIK_clean_linker_0, # of connection points: 2
#     Edge 13, Type (0, 1), BuildingBlock: UVAHIK_clean_linker_0, # of connection points: 2
#     Edge 14, Type (0, 1), BuildingBlock: UVAHIK_clean_linker_0, # of connection points: 2
#     Edge 15, Type (0, 1), BuildingBlock: UVAHIK_clean_linker_0, # of connection points: 2
#     Edge 16, Type (0, 1), BuildingBlock: UVAHIK_clean_linker_0, # of connection points: 2
#     Edge 17, Type (0, 1), BuildingBlock: UVAHIK_clean_linker_0, # of connection points: 2
# Relax obj value: 0.029
# Max RMSD: 0.078
# Mean RMSD: 0.072
data_MOF--net-tsx--node1-VOLQOD_clean_sbu_1--node2-OLANEW_clean_sbu_2--edge1-UVAHIK_clean_linker_0
_symmetry_space_group_name_H-M    P1
_symmetry_Int_Tables_number       1
_symmetry_cell_setting            triclinic
loop_
_symmetry_equiv_pos_as_xyz
'x, y, z'
_cell_length_a     28.559946
_cell_length_b     29.536169
_cell_length_c     49.509555
_cell_angle_alpha  95.524537
_cell_angle_beta   89.988247
_cell_angle_gamma 90.102897
loop_
_atom_site_label
_atom_site_type_symbol
_atom_site_fract_x
_atom_site_fract_y
_atom_site_fract_z
_atom_type_partial_charge
O0 O 0.05326 0.0193 0.07241 0.0
Zn1 Zn 0.06766 0.01483 0.03249 0.0
O2 O 0.01044 0.0176 0.01107 0.0
Zn3 Zn 0.00388 0.96076 0.9872 0.0
Zn4 Zn 0.95644 0.02595 0.03546 0.0
Zn5 Zn 0.01421 0.0693 0.98926 0.0
O6 O 0.00623 0.97279 0.94765 0.0
O7 O 0.01354 0.04789 0.94948 0.0
O8 O 0.10142 0.95562 0.02379 0.0
O9 O 0.05636 0.91713 0.99313 0.0
O10 O 0.94329 0.92873 0.99466 0.0
O11 O 0.9114 0.97374 0.02824 0.0
O12 O 0.92051 0.08313 0.0297 0.0
O13 O 0.11232 0.06504 0.02529 0.0
O14 O 0.95952 0.11173 0.99647 0.0
O15 O 0.07417 0.10474 0.99645 0.0
C16 C 0.01573 0.02417 0.08627 0.0
C17 C 0.01038 0.00915 0.9359 0.0
C18 C 0.91036 0.93796 0.01168 0.0
C19 C 0.09271 0.91992 0.00809 0.0
C20 C 0.92544 0.11325 0.01313 0.0
C21 C 0.11016 0.09832 0.01078 0.0
O22 O 0.97611 0.02776 0.07483 0.0
O23 O 0.54917 0.52113 0.56823 0.0
Zn24 Zn 0.56185 0.51781 0.52814 0.0
O25 O 0.50364 0.52219 0.50777 0.0
Zn26 Zn 0.49667 0.46734 0.48247 0.0
Zn27 Zn 0.45037 0.52755 0.53286 0.0
Zn28 Zn 0.50608 0.57603 0.48761 0.0
O29 O 0.49736 0.48253 0.44359 0.0
O30 O 0.50411 0.5578 0.44739 0.0
O31 O 0.59512 0.45856 0.51806 0.0
O32 O 0.54929 0.42339 0.48652 0.0
O33 O 0.43741 0.43353 0.48984 0.0
O34 O 0.40684 0.47382 0.52573 0.0
O35 O 0.41241 0.58403 0.52839 0.0
O36 O 0.60627 0.56822 0.52105 0.0
O37 O 0.45084 0.61715 0.49661 0.0
O38 O 0.56615 0.61156 0.49505 0.0
C39 C 0.5122 0.52547 0.58264 0.0
C40 C 0.50077 0.51993 0.43287 0.0
C41 C 0.40579 0.43962 0.50797 0.0
C42 C 0.58577 0.4243 0.50132 0.0
C43 C 0.41663 0.61608 0.51306 0.0
C44 C 0.60319 0.60324 0.50803 0.0
O45 O 0.47203 0.52892 0.57181 0.0
O46 O 0.98941 0.96202 0.38413 0.0
Cd47 Cd 0.97119 0.95866 0.4324 0.0
O48 O 0.03407 0.02283 0.39076 0.0
Cd49 Cd 0.01336 0.03494 0.43317 0.0
O50 O 0.96134 0.07184 0.45877 0.0
C51 C 0.91907 0.06507 0.45143 0.0
O52 O 0.91022 0.0345 0.43099 0.0
C53 C 0.01627 0.99117 0.37475 0.0
C54 C 0.03689 0.90771 0.45809 0.0
O55 O 0.00104 0.88875 0.4462 0.0
O56 O 0.04149 0.95087 0.458 0.0
O57 O 0.03022 0.02379 0.63322 0.0
Cd58 Cd 0.02215 0.02456 0.5841 0.0
O59 O 0.0651 0.95719 0.6309 0.0
Cd60 Cd 0.05518 0.94334 0.5871 0.0
O61 O 0.01891 0.90008 0.55548 0.0
C62 C 0.98403 0.91429 0.5428 0.0
O63 O 0.97257 0.95747 0.5468 0.0
C64 C 0.04962 0.99229 0.64496 0.0
C65 C 0.07971 0.09078 0.56497 0.0
O66 O 0.03871 0.10069 0.57423 0.0
O67 O 0.09338 0.04939 0.56454 0.0
O68 O 0.50042 0.46696 0.88121 0.0
Cd69 Cd 0.48538 0.46372 0.92977 0.0
O70 O 0.54267 0.52947 0.88694 0.0
Cd71 Cd 0.52395 0.54116 0.92969 0.0
O72 O 0.47381 0.57602 0.95756 0.0
C73 C 0.43106 0.57046 0.95093 0.0
O74 O 0.42069 0.54218 0.92963 0.0
C75 C 0.52547 0.49698 0.87131 0.0
C76 C 0.55259 0.41172 0.95353 0.0
O77 O 0.51563 0.39332 0.94261 0.0
O78 O 0.55762 0.45483 0.95337 0.0
O79 O 0.50487 0.54611 0.13104 0.0
Cd80 Cd 0.4956 0.54733 0.08199 0.0
O81 O 0.54959 0.48526 0.12786 0.0
Cd82 Cd 0.53799 0.47207 0.08425 0.0
O83 O 0.49689 0.43321 0.05293 0.0
C84 C 0.50344 0.39048 0.05002 0.0
O85 O 0.53727 0.37333 0.06385 0.0
C86 C 0.5295 0.51744 0.14234 0.0
C87 C 0.55664 0.61061 0.0628 0.0
O88 O 0.5159 0.62237 0.07174 0.0
O89 O 0.56833 0.56869 0.06259 0.0
C90 C 0.1474 0.17031 0.99788 0.0
C91 C 0.15095 0.12923 0.00994 0.0
C92 C 0.18624 0.19904 0.99687 0.0
C93 C 0.31504 0.20015 0.99984 0.0
H94 H 0.3012 0.32759 0.0255 0.0
C95 C 0.47016 0.31295 0.03764 0.0
C96 C 0.46831 0.36006 0.0357 0.0
C97 C 0.43285 0.28493 0.02854 0.0
C98 C 0.30566 0.29236 0.01765 0.0
H99 H 0.1983 0.08598 0.03015 0.0
H100 H 0.26588 0.13599 0.02825 0.0
H101 H 0.23242 0.27858 0.02147 0.0
H102 H 0.42762 0.41413 0.02051 0.0
H103 H 0.36294 0.36499 0.00397 0.0
H104 H 0.38827 0.21367 0.99621 0.0
C105 C 0.23312 0.14586 0.0195 0.0
C106 C 0.26617 0.26424 0.01548 0.0
C107 C 0.19425 0.11742 0.02079 0.0
C108 C 0.42987 0.37803 0.02261 0.0
C109 C 0.39262 0.3499 0.01331 0.0
C110 C 0.35449 0.22834 0.00176 0.0
C111 C 0.22952 0.18698 0.00757 0.0
C112 C 0.27063 0.21765 0.00716 0.0
C113 C 0.39294 0.30326 0.01702 0.0
C114 C 0.35047 0.27459 0.01132 0.0
H115 H 0.11457 0.18042 0.98932 0.0
H116 H 0.18254 0.23049 0.98749 0.0
H117 H 0.31935 0.16447 0.99294 0.0
H118 H 0.49932 0.29793 0.04752 0.0
H119 H 0.43431 0.24931 0.03197 0.0
C120 C 0.1168 0.84093 0.9903 0.0
C121 C 0.12579 0.88117 0.00707 0.0
C122 C 0.14866 0.80491 0.98885 0.0
C123 C 0.2732 0.78117 0.999 0.0
H124 H 0.23196 0.65548 0.994 0.0
C125 C 0.40572 0.6344 0.98481 0.0
C126 C 0.39428 0.59993 0.96429 0.0
C127 C 0.37196 0.666 0.99472 0.0
C128 C 0.24402 0.69041 0.99529 0.0
H129 H 0.17503 0.91464 0.0359 0.0
H130 H 0.23043 0.85177 0.03337 0.0
H131 H 0.17462 0.71653 0.00193 0.0
H132 H 0.3378 0.57006 0.93919 0.0
H133 H 0.27934 0.6253 0.95614 0.0
H134 H 0.34232 0.75531 0.9916 0.0
C135 C 0.19894 0.84829 0.02115 0.0
C136 C 0.21117 0.72535 0.9998 0.0
C137 C 0.16706 0.88426 0.02266 0.0
C138 C 0.34785 0.59628 0.95494 0.0
C139 C 0.31417 0.62785 0.9648 0.0
C140 C 0.306 0.74628 0.99442 0.0
C141 C 0.19027 0.80834 0.00409 0.0
C142 C 0.22533 0.77112 0.00131 0.0
C143 C 0.32609 0.66375 0.98432 0.0
C144 C 0.29174 0.70048 0.99209 0.0
H145 H 0.08538 0.83734 0.97803 0.0
H146 H 0.14124 0.7748 0.97526 0.0
H147 H 0.28518 0.81608 0.99971 0.0
H148 H 0.44112 0.63796 0.9926 0.0
H149 H 0.38206 0.69281 0.0101 0.0
C150 C 0.82957 0.91958 0.02694 0.0
C151 C 0.87082 0.90578 0.01306 0.0
C152 C 0.79327 0.88866 0.02976 0.0
C153 C 0.74877 0.7738 0.00398 0.0
H154 H 0.6847 0.78292 0.07336 0.0
C155 C 0.63223 0.63112 0.04122 0.0
C156 C 0.58978 0.64473 0.05386 0.0
C157 C 0.66455 0.66355 0.03407 0.0
C158 C 0.70192 0.78024 0.05377 0.0
H159 H 0.90596 0.84878 0.99081 0.0
H160 H 0.84325 0.79443 0.99642 0.0
H161 H 0.74486 0.83822 0.06498 0.0
H162 H 0.54752 0.70302 0.06842 0.0
H163 H 0.60418 0.75954 0.0562 0.0
H164 H 0.70645 0.7147 0.99329 0.0
C165 C 0.83842 0.82942 0.00465 0.0
C166 C 0.73633 0.81204 0.04888 0.0
C167 C 0.87454 0.86055 0.00153 0.0
C168 C 0.57994 0.69141 0.05876 0.0
C169 C 0.61244 0.72379 0.05188 0.0
C170 C 0.71461 0.74164 0.00901 0.0
C171 C 0.79753 0.84295 0.01909 0.0
C172 C 0.76022 0.80933 0.02392 0.0
C173 C 0.65525 0.7102 0.0397 0.0
C174 C 0.69084 0.7446 0.03396 0.0
H175 H 0.82535 0.95433 0.03579 0.0
H176 H 0.76191 0.90064 0.04044 0.0
H177 H 0.7659 0.77098 0.98438 0.0
H178 H 0.64078 0.5954 0.03712 0.0
H179 H 0.69741 0.65212 0.02488 0.0
C180 C 0.85252 0.15329 0.03096 0.0
C181 C 0.88943 0.14919 0.01208 0.0
C182 C 0.8168 0.18505 0.02867 0.0
C183 C 0.73093 0.23153 0.00804 0.0
H184 H 0.75572 0.34766 0.98044 0.0
C185 C 0.58616 0.33608 0.96197 0.0
C186 C 0.5891 0.38378 0.96513 0.0
C187 C 0.62213 0.30958 0.97128 0.0
C188 C 0.74809 0.31569 0.98855 0.0
H189 H 0.91809 0.17608 0.97627 0.0
H190 H 0.85559 0.23053 0.97196 0.0
H191 H 0.8208 0.2994 0.99097 0.0
H192 H 0.63118 0.44112 0.98157 0.0
H193 H 0.69347 0.39492 0.99835 0.0
H194 H 0.65821 0.24816 0.00601 0.0
C195 C 0.85453 0.20988 0.98887 0.0
C196 C 0.78549 0.28767 0.99424 0.0
C197 C 0.89034 0.17836 0.99125 0.0
C198 C 0.62807 0.40443 0.9786 0.0
C199 C 0.66392 0.37791 0.98808 0.0
C200 C 0.69352 0.25969 0.00251 0.0
C201 C 0.81701 0.21332 0.00736 0.0
C202 C 0.77739 0.24487 0.00359 0.0
C203 C 0.66177 0.33013 0.98417 0.0
C204 C 0.70157 0.3018 0.99225 0.0
H205 H 0.85084 0.13156 0.04736 0.0
H206 H 0.78887 0.18726 0.04353 0.0
H207 H 0.72326 0.19866 0.01499 0.0
H208 H 0.55662 0.31909 0.95167 0.0
H209 H 0.61948 0.27294 0.96756 0.0
C210 C 0.6395 0.67791 0.49898 0.0
C211 C 0.64409 0.63407 0.50748 0.0
C212 C 0.67836 0.70683 0.49874 0.0
C213 C 0.79741 0.7228 0.52833 0.0
H214 H 0.8122 0.80803 0.47402 0.0
C215 C 0.96075 0.83414 0.52762 0.0
C216 C 0.95123 0.88097 0.52874 0.0
C217 C 0.92589 0.80227 0.51995 0.0
C218 C 0.80846 0.78434 0.48928 0.0
H219 H 0.69344 0.58572 0.52152 0.0
H220 H 0.76109 0.63533 0.52033 0.0
H221 H 0.74556 0.7556 0.47131 0.0
H222 H 0.89914 0.93093 0.51999 0.0
H223 H 0.83833 0.87512 0.5065 0.0
H224 H 0.86019 0.75137 0.54625 0.0
C225 C 0.72735 0.64812 0.51465 0.0
C226 C 0.77017 0.75449 0.48786 0.0
C227 C 0.6885 0.61951 0.51523 0.0
C228 C 0.90749 0.89512 0.5196 0.0
C229 C 0.87265 0.86315 0.51179 0.0
C230 C 0.83579 0.75217 0.52955 0.0
C231 C 0.72279 0.69236 0.50669 0.0
C232 C 0.76402 0.72349 0.5075 0.0
C233 C 0.88092 0.81651 0.51303 0.0
C234 C 0.84166 0.78341 0.51015 0.0
H235 H 0.60574 0.69017 0.49292 0.0
H236 H 0.67331 0.74084 0.49285 0.0
H237 H 0.7934 0.70029 0.5442 0.0
H238 H 0.99431 0.82203 0.53412 0.0
H239 H 0.9335 0.76646 0.52055 0.0
C240 C 0.66083 0.38648 0.51287 0.0
C241 C 0.61778 0.38471 0.49902 0.0
C242 C 0.69127 0.3493 0.51027 0.0
C243 C 0.71805 0.24669 0.46436 0.0
H244 H 0.79101 0.21221 0.52518 0.0
C245 C 0.83524 0.08909 0.45318 0.0
C246 C 0.88137 0.09561 0.46265 0.0
C247 C 0.80076 0.12137 0.46051 0.0
C248 C 0.77098 0.2216 0.50801 0.0
H249 H 0.57252 0.34197 0.47209 0.0
H250 H 0.62519 0.27708 0.46791 0.0
H251 H 0.73515 0.2749 0.53207 0.0
H252 H 0.92683 0.13976 0.48859 0.0
H253 H 0.86653 0.19633 0.50128 0.0
H254 H 0.75393 0.19378 0.44026 0.0
C255 C 0.63589 0.3075 0.48036 0.0
C256 C 0.7391 0.25755 0.51192 0.0
C257 C 0.60558 0.34469 0.48286 0.0
C258 C 0.89164 0.13381 0.48089 0.0
C259 C 0.85706 0.16615 0.48824 0.0
C260 C 0.74969 0.21075 0.46049 0.0
C261 C 0.67928 0.30947 0.49384 0.0
C262 C 0.71238 0.2706 0.49009 0.0
C263 C 0.81161 0.16088 0.47748 0.0
C264 C 0.77661 0.19786 0.48223 0.0
H265 H 0.67136 0.4168 0.52547 0.0
H266 H 0.72467 0.35218 0.52066 0.0
H267 H 0.69879 0.25639 0.44698 0.0
H268 H 0.82602 0.0598 0.43933 0.0
H269 H 0.7658 0.11594 0.45233 0.0
C270 C 0.37363 0.36138 0.49546 0.0
C271 C 0.36862 0.40489 0.50941 0.0
C272 C 0.34056 0.32736 0.49862 0.0
C273 C 0.21957 0.30664 0.51931 0.0
H274 H 0.26768 0.19143 0.53868 0.0
C275 C 0.10022 0.17254 0.56186 0.0
C276 C 0.1107 0.12627 0.55559 0.0
C277 C 0.13047 0.20615 0.55403 0.0
C278 C 0.2535 0.22299 0.53279 0.0
H279 H 0.32394 0.44721 0.53681 0.0
H280 H 0.26587 0.38785 0.54198 0.0
H281 H 0.32198 0.25084 0.52812 0.0
H282 H 0.16037 0.07892 0.53547 0.0
H283 H 0.21237 0.13744 0.52101 0.0
H284 H 0.15109 0.27883 0.52364 0.0
C285 C 0.29555 0.38015 0.52871 0.0
C286 C 0.28472 0.25711 0.52683 0.0
C287 C 0.32893 0.41403 0.52585 0.0
C288 C 0.15154 0.11431 0.54081 0.0
C289 C 0.18151 0.14792 0.53267 0.0
C290 C 0.18828 0.27231 0.52493 0.0
C291 C 0.30146 0.33628 0.51549 0.0
C292 C 0.26808 0.29941 0.5203 0.0
C293 C 0.17166 0.19432 0.53944 0.0
C294 C 0.20483 0.23017 0.53205 0.0
H295 H 0.40379 0.35316 0.48266 0.0
H296 H 0.34573 0.29392 0.48801 0.0
H297 H 0.20583 0.33881 0.51406 0.0
H298 H 0.06912 0.18285 0.57336 0.0
H299 H 0.12202 0.2414 0.56004 0.0
C300 C 0.34272 0.6527 0.53205 0.0
C301 C 0.37962 0.65128 0.51316 0.0
C302 C 0.30604 0.68377 0.53076 0.0
C303 C 0.21863 0.72964 0.51162 0.0
H304 H 0.23959 0.8489 0.48732 0.0
C305 C 0.07138 0.83257 0.46674 0.0
C306 C 0.07301 0.8803 0.47044 0.0
C307 C 0.10767 0.80666 0.47624 0.0
C308 C 0.23298 0.81604 0.49455 0.0
H309 H 0.40725 0.68225 0.47846 0.0
H310 H 0.34311 0.73549 0.47586 0.0
H311 H 0.3062 0.80183 0.49675 0.0
H312 H 0.11269 0.93825 0.48838 0.0
H313 H 0.17547 0.89306 0.50551 0.0
H314 H 0.14539 0.74414 0.50979 0.0
C315 C 0.34279 0.71326 0.49202 0.0
C316 C 0.27129 0.78871 0.49959 0.0
C317 C 0.37954 0.68244 0.49341 0.0
C318 C 0.11067 0.90153 0.48491 0.0
C319 C 0.14681 0.8756 0.4946 0.0
C320 C 0.18029 0.75711 0.50677 0.0
C321 C 0.30526 0.71401 0.51048 0.0
C322 C 0.26463 0.74479 0.50766 0.0
C323 C 0.14628 0.82785 0.48989 0.0
C324 C 0.18694 0.80033 0.49766 0.0
H325 H 0.34178 0.62939 0.54764 0.0
H326 H 0.27814 0.68387 0.54558 0.0
H327 H 0.21205 0.6959 0.51761 0.0
H328 H 0.04281 0.81515 0.45572 0.0
H329 H 0.10621 0.77005 0.47192 0.0
C330 C 0.06019 0.01167 0.12857 0.0
C331 C 0.01815 0.02317 0.11614 0.0
C332 C 0.06202 0.00793 0.15647 0.0
C333 C 0.98567 0.99112 0.21521 0.0
H334 H 0.09624 0.02931 0.25682 0.0
C335 C 0.04549 0.02765 0.33428 0.0
C336 C 0.02335 0.99081 0.34505 0.0
C337 C 0.04751 0.03002 0.30625 0.0
C338 C 0.06495 0.01873 0.24557 0.0
H339 H 0.94528 0.04094 0.12353 0.0
H340 H 0.94875 0.03553 0.17229 0.0
H341 H 0.09299 0.03964 0.20867 0.0
H342 H 0.98787 0.92649 0.33468 0.0
H343 H 0.99247 0.93002 0.28577 0.0
H344 H 0.95692 0.97173 0.25227 0.0
C345 C 0.9801 0.02833 0.16036 0.0
C346 C 0.06329 0.02418 0.21784 0.0
C347 C 0.97819 0.03178 0.1324 0.0
C348 C 0.00493 0.9555 0.32708 0.0
C349 C 0.00722 0.95772 0.29902 0.0
C350 C 0.98721 0.98592 0.24296 0.0
C351 C 0.02193 0.0159 0.17271 0.0
C352 C 0.0236 0.01049 0.2023 0.0
C353 C 0.02772 0.99545 0.28826 0.0
C354 C 0.02685 0.99969 0.25852 0.0
H355 H 0.09162 0.00454 0.11668 0.0
H356 H 0.09466 0.99769 0.16517 0.0
H357 H 0.95479 0.97957 0.20385 0.0
H358 H 0.05991 0.05556 0.34751 0.0
H359 H 0.06311 0.05983 0.29877 0.0
C360 C 0.00993 0.04618 0.89246 0.0
C361 C 0.01333 0.0065 0.9059 0.0
C362 C 0.01483 0.04425 0.8643 0.0
C363 C 0.01284 0.96431 0.8016 0.0
H364 H 0.07818 0.06276 0.77106 0.0
C365 C 0.06289 0.9565 0.68823 0.0
C366 C 0.05128 0.99502 0.67499 0.0
C367 C 0.06047 0.95783 0.71649 0.0
C368 C 0.05963 0.03517 0.7793 0.0
H369 H 0.02431 0.93356 0.9002 0.0
H370 H 0.03393 0.93031 0.85114 0.0
H371 H 0.0689 0.0646 0.8201 0.0
H372 H 0.02952 0.06561 0.68121 0.0
H373 H 0.02584 0.06799 0.73059 0.0
H374 H 0.00422 0.93469 0.76068 0.0
C375 C 0.02655 0.96287 0.86229 0.0
C376 C 0.0541 0.03626 0.8074 0.0
C377 C 0.02121 0.96474 0.89047 0.0
C378 C 0.03864 0.03532 0.69074 0.0
C379 C 0.0367 0.03676 0.71903 0.0
C380 C 0.01876 0.96304 0.7735 0.0
C381 C 0.02372 0.00267 0.84886 0.0
C382 C 0.03034 0.001 0.81893 0.0
C383 C 0.04689 0.99783 0.73217 0.0
C384 C 0.04199 0.99857 0.76205 0.0
H385 H 0.00349 0.07889 0.90369 0.0
H386 H 0.0114 0.07545 0.85465 0.0
H387 H 0.99372 0.93692 0.80966 0.0
H388 H 0.07274 0.9249 0.67673 0.0
H389 H 0.06904 0.92746 0.7261 0.0
C390 C 0.5588 0.51376 0.62431 0.0
C391 C 0.51596 0.5244 0.61244 0.0
C392 C 0.56196 0.51031 0.65219 0.0
C393 C 0.48876 0.49262 0.71204 0.0
H394 H 0.59966 0.53471 0.75214 0.0
C395 C 0.55155 0.53362 0.83023 0.0
C396 C 0.53127 0.49633 0.84152 0.0
C397 C 0.55248 0.53539 0.80213 0.0
C398 C 0.56831 0.52302 0.7413 0.0
H399 H 0.44305 0.54084 0.6208 0.0
H400 H 0.44881 0.53584 0.66952 0.0
H401 H 0.59424 0.54384 0.70388 0.0
H402 H 0.49796 0.43066 0.832 0.0
H403 H 0.50062 0.43324 0.78297 0.0
H404 H 0.46209 0.47326 0.7496 0.0
C405 C 0.47978 0.52914 0.65716 0.0
C406 C 0.56542 0.52779 0.71353 0.0
C407 C 0.47654 0.53234 0.62923 0.0
C408 C 0.51357 0.46004 0.824 0.0
C409 C 0.51476 0.46169 0.79588 0.0
C410 C 0.49155 0.48806 0.73982 0.0
C411 C 0.52243 0.51767 0.66896 0.0
C412 C 0.52555 0.51274 0.69855 0.0
C413 C 0.53342 0.49978 0.78461 0.0
C414 C 0.53132 0.50327 0.75483 0.0
H415 H 0.58985 0.50718 0.612 0.0
H416 H 0.59522 0.50082 0.66049 0.0
H417 H 0.45781 0.48004 0.7011 0.0
H418 H 0.56537 0.56226 0.84312 0.0
H419 H 0.56667 0.56548 0.79424 0.0
C420 C 0.49652 0.55978 0.39049 0.0
C421 C 0.50264 0.51941 0.40295 0.0
C422 C 0.50017 0.55973 0.36235 0.0
C423 C 0.50023 0.48256 0.29833 0.0
H424 H 0.55707 0.58653 0.2688 0.0
C425 C 0.54824 0.48219 0.18509 0.0
C426 C 0.53209 0.51971 0.17232 0.0
C427 C 0.54668 0.48261 0.21332 0.0
C428 C 0.54094 0.55739 0.27678 0.0
H429 H 0.51743 0.44728 0.39558 0.0
H430 H 0.52513 0.44738 0.34662 0.0
H431 H 0.54971 0.58578 0.31784 0.0
H432 H 0.50326 0.58775 0.17926 0.0
H433 H 0.50129 0.58868 0.22865 0.0
H434 H 0.49241 0.45392 0.25715 0.0
C435 C 0.51637 0.47896 0.35847 0.0
C436 C 0.53645 0.55699 0.30488 0.0
C437 C 0.51215 0.47891 0.3866 0.0
C438 C 0.51587 0.55827 0.18847 0.0
C439 C 0.51489 0.5589 0.21674 0.0
C440 C 0.50526 0.48275 0.27027 0.0
C441 C 0.51061 0.51941 0.34597 0.0
C442 C 0.51581 0.51966 0.31603 0.0
C443 C 0.52954 0.52078 0.2294 0.0
C444 C 0.52548 0.52023 0.25922 0.0
H445 H 0.4888 0.59152 0.40248 0.0
H446 H 0.49452 0.59135 0.35344 0.0
H447 H 0.48341 0.45358 0.30608 0.0
H448 H 0.56089 0.45192 0.17326 0.0
H449 H 0.55864 0.45296 0.2226 0.0
loop_
_geom_bond_atom_site_label_1
_geom_bond_atom_site_label_2
_geom_bond_distance
_geom_bond_site_symmetry_2
_ccdc_geom_bond_type
O0 Zn1 1.956 . S
O0 C16 1.231 . S
Zn1 O0 1.956 . S
Zn1 O2 1.949 . S
Zn1 O8 1.919 1_545 S
Zn1 O13 1.924 . S
O2 Zn1 1.949 . S
O2 Zn3 1.923 1_444 S
O2 Zn4 1.950 1_455 S
O2 Zn5 1.945 1_554 S
Zn3 O2 1.923 1_666 S
Zn3 O6 1.933 . S
Zn3 O9 1.941 1_655 S
Zn3 O10 1.965 . S
Zn4 O2 1.950 1_655 S
Zn4 O11 1.938 1_545 S
Zn4 O12 1.906 . S
Zn4 O22 1.953 . S
Zn5 O2 1.945 1_556 S
Zn5 O7 1.932 . S
Zn5 O14 1.977 1_455 S
Zn5 O15 1.919 . S
O6 Zn3 1.933 . S
O6 C17 1.226 1_665 S
O7 Zn5 1.932 . S
O7 C17 1.307 . S
O8 Zn1 1.919 1_565 S
O8 C19 1.253 1_554 S
O9 Zn3 1.941 1_455 S
O9 C19 1.283 . S
O10 Zn3 1.965 . S
O10 C18 1.303 1_556 S
O11 Zn4 1.938 1_565 S
O11 C18 1.247 . S
O12 Zn4 1.906 . S
O12 C20 1.319 . S
O13 Zn1 1.924 . S
O13 C21 1.311 . S
O14 Zn5 1.977 1_655 S
O14 C20 1.265 1_556 S
O15 Zn5 1.919 . S
O15 C21 1.207 1_556 S
C16 O0 1.231 . S
C16 O22 1.298 1_455 S
C17 O6 1.226 1_445 S
C17 O7 1.307 . S
C18 O10 1.303 1_554 S
C18 O11 1.247 . S
C19 O8 1.253 1_556 S
C19 O9 1.283 . S
C20 O12 1.319 . S
C20 O14 1.265 1_554 S
C21 O13 1.311 . S
C21 O15 1.207 1_554 S
O22 Zn4 1.953 . S
O22 C16 1.298 1_655 S
O23 Zn24 1.953 . S
O23 C39 1.225 . S
Zn24 O23 1.953 . S
Zn24 O25 1.949 . S
Zn24 O31 1.919 . S
Zn24 O36 1.924 . S
O25 Zn24 1.949 . S
O25 Zn26 1.923 . S
O25 Zn27 1.950 . S
O25 Zn28 1.945 . S
Zn26 O25 1.923 . S
Zn26 O29 1.933 . S
Zn26 O32 1.941 . S
Zn26 O33 1.965 . S
Zn27 O25 1.950 . S
Zn27 O34 1.938 . S
Zn27 O35 1.906 . S
Zn27 O45 1.953 . S
Zn28 O25 1.945 . S
Zn28 O30 1.932 . S
Zn28 O37 1.977 . S
Zn28 O38 1.910 . S
O29 Zn26 1.933 . S
O29 C40 1.226 . S
O30 Zn28 1.932 . S
O30 C40 1.307 . S
O31 Zn24 1.919 . S
O31 C42 1.253 . S
O32 Zn26 1.941 . S
O32 C42 1.283 . S
O33 Zn26 1.965 . S
O33 C41 1.303 . S
O34 Zn27 1.938 . S
O34 C41 1.247 . S
O35 Zn27 1.906 . S
O35 C43 1.304 . S
O36 Zn24 1.924 . S
O36 C44 1.311 . S
O37 Zn28 1.977 . S
O37 C43 1.272 . S
O38 Zn28 1.910 . S
O38 C44 1.231 . S
C39 O23 1.225 . S
C39 O45 1.298 . S
C40 O29 1.226 . S
C40 O30 1.307 . S
C41 O33 1.303 . S
C41 O34 1.247 . S
C42 O31 1.253 . S
C42 O32 1.283 . S
C43 O35 1.304 . S
C43 O37 1.272 . S
C44 O36 1.311 . S
C44 O38 1.231 . S
O45 Zn27 1.953 . S
O45 C39 1.298 . S
O46 Cd47 2.300 . S
O46 C53 1.275 1_565 S
Cd47 O46 2.300 . S
Cd47 O55 2.381 . S
Cd47 O56 2.378 . S
O48 Cd49 2.385 . S
O48 C53 1.255 . S
Cd49 O48 2.385 . S
Cd49 O50 2.317 1_455 S
O50 Cd49 2.317 1_655 S
O50 C51 1.232 . S
C51 O50 1.232 . S
C51 O52 1.218 . S
O52 C51 1.218 . S
C53 O46 1.275 1_545 S
C53 O48 1.255 . S
C54 O55 1.258 . S
C54 O56 1.256 . S
O55 Cd47 2.381 . S
O55 C54 1.258 . S
O56 Cd47 2.378 . S
O56 C54 1.256 . S
O57 Cd58 2.300 . S
O57 C64 1.279 . S
Cd58 O57 2.300 . S
Cd58 O66 2.381 . S
Cd58 O67 2.378 . S
O59 Cd60 2.385 . S
O59 C64 1.252 1_565 S
Cd60 O59 2.385 . S
Cd60 O61 2.317 1_455 S
O61 Cd60 2.317 1_655 S
O61 C62 1.232 . S
C62 O61 1.232 . S
C62 O63 1.218 . S
O63 C62 1.218 . S
C64 O57 1.279 . S
C64 O59 1.252 1_545 S
C65 O66 1.258 . S
C65 O67 1.256 . S
O66 Cd58 2.381 . S
O66 C65 1.258 . S
O67 Cd58 2.378 . S
O67 C65 1.256 . S
O68 Cd69 2.300 . S
O68 C75 1.275 . S
Cd69 O68 2.300 . S
Cd69 O77 2.381 . S
Cd69 O78 2.378 . S
O70 Cd71 2.385 . S
O70 C75 1.255 . S
Cd71 O70 2.385 . S
Cd71 O72 2.317 . S
O72 Cd71 2.317 . S
O72 C73 1.232 . S
C73 O72 1.232 . S
C73 O74 1.218 . S
O74 C73 1.218 . S
C75 O68 1.275 . S
C75 O70 1.255 . S
C76 O77 1.258 . S
C76 O78 1.256 . S
O77 Cd69 2.381 . S
O77 C76 1.258 . S
O78 Cd69 2.378 . S
O78 C76 1.256 . S
O79 Cd80 2.300 . S
O79 C86 1.275 . S
Cd80 O79 2.300 . S
Cd80 O88 2.381 . S
Cd80 O89 2.378 . S
O81 Cd82 2.385 . S
O81 C86 1.255 . S
Cd82 O81 2.385 . S
Cd82 O83 2.317 . S
O83 Cd82 2.317 . S
O83 C84 1.232 . S
C84 O83 1.232 . S
C84 O85 1.218 . S
O85 C84 1.218 . S
C86 O79 1.275 . S
C86 O81 1.255 . S
C87 O88 1.258 . S
C87 O89 1.256 . S
O88 Cd80 2.381 . S
O88 C87 1.258 . S
O89 Cd80 2.378 . S
O89 C87 1.256 . S
C90 C91 1.349 . S
C90 C92 1.327 . S
C90 H115 0.950 . S
C91 C90 1.349 . S
C91 C107 1.349 . S
C92 C90 1.327 . S
C92 C111 1.429 . S
C92 H116 0.950 . S
C93 C110 1.574 . S
C93 C112 1.368 . S
C93 H117 0.949 . S
H94 C98 0.949 . S
C95 C96 1.349 . S
C95 C97 1.327 . S
C95 H118 0.950 . S
C96 C95 1.349 . S
C96 C108 1.349 . S
C97 C95 1.327 . S
C97 C113 1.429 . S
C97 H119 0.950 . S
C98 H94 0.949 . S
C98 C106 1.574 . S
C98 C114 1.368 . S
H99 C107 0.950 . S
H100 C105 0.950 . S
H101 C106 0.949 . S
H102 C108 0.950 . S
H103 C109 0.950 . S
H104 C110 0.949 . S
C105 H100 0.950 . S
C105 C107 1.327 . S
C105 C111 1.429 . S
C106 C98 1.574 . S
C106 H101 0.949 . S
C106 C112 1.368 . S
C107 C91 1.349 . S
C107 H99 0.950 . S
C107 C105 1.327 . S
C108 C96 1.349 . S
C108 H102 0.950 . S
C108 C109 1.327 . S
C109 H103 0.950 . S
C109 C108 1.327 . S
C109 C113 1.429 . S
C110 C93 1.574 . S
C110 H104 0.949 . S
C110 C114 1.368 . S
C111 C92 1.429 . S
C111 C105 1.429 . S
C111 C112 1.523 . S
C112 C93 1.368 . S
C112 C106 1.368 . S
C112 C111 1.523 . S
C113 C97 1.429 . S
C113 C109 1.429 . S
C113 C114 1.523 . S
C114 C98 1.368 . S
C114 C110 1.368 . S
C114 C113 1.523 . S
H115 C90 0.950 . S
H116 C92 0.950 . S
H117 C93 0.949 . S
H118 C95 0.950 . S
H119 C97 0.950 . S
C120 C121 1.349 . S
C120 C122 1.327 . S
C120 H145 0.950 1_556 S
C121 C120 1.349 . S
C121 C137 1.349 . S
C122 C120 1.327 . S
C122 C141 1.429 . S
C122 H146 0.950 . S
C123 C140 1.574 . S
C123 C142 1.368 . S
C123 H147 0.949 . S
H124 C128 0.949 . S
C125 C126 1.349 . S
C125 C127 1.327 . S
C125 H148 0.950 . S
C126 C125 1.349 . S
C126 C138 1.349 . S
C127 C125 1.327 . S
C127 C143 1.429 . S
C127 H149 0.950 . S
C128 H124 0.949 . S
C128 C136 1.574 . S
C128 C144 1.368 . S
H129 C137 0.950 . S
H130 C135 0.950 . S
H131 C136 0.949 . S
H132 C138 0.950 . S
H133 C139 0.950 . S
H134 C140 0.949 . S
C135 H130 0.950 . S
C135 C137 1.327 . S
C135 C141 1.429 . S
C136 C128 1.574 . S
C136 H131 0.949 . S
C136 C142 1.368 . S
C137 C121 1.349 . S
C137 H129 0.950 . S
C137 C135 1.327 . S
C138 C126 1.349 . S
C138 H132 0.950 . S
C138 C139 1.327 . S
C139 H133 0.950 . S
C139 C138 1.327 . S
C139 C143 1.429 . S
C140 C123 1.574 . S
C140 H134 0.949 . S
C140 C144 1.368 . S
C141 C122 1.429 . S
C141 C135 1.429 . S
C141 C142 1.523 . S
C142 C123 1.368 . S
C142 C136 1.368 . S
C142 C141 1.523 . S
C143 C127 1.429 . S
C143 C139 1.429 . S
C143 C144 1.523 . S
C144 C128 1.368 . S
C144 C140 1.368 . S
C144 C143 1.523 . S
H145 C120 0.950 1_554 S
H146 C122 0.950 . S
H147 C123 0.949 . S
H148 C125 0.950 . S
H149 C127 0.950 . S
C150 C151 1.349 . S
C150 C152 1.327 . S
C150 H175 0.950 . S
C151 C150 1.349 . S
C151 C167 1.349 . S
C152 C150 1.327 . S
C152 C171 1.429 . S
C152 H176 0.950 . S
C153 C170 1.574 . S
C153 C172 1.368 . S
C153 H177 0.949 . S
H154 C158 0.949 . S
C155 C156 1.349 . S
C155 C157 1.327 . S
C155 H178 0.950 . S
C156 C155 1.349 . S
C156 C168 1.349 . S
C157 C155 1.327 . S
C157 C173 1.429 . S
C157 H179 0.950 . S
C158 H154 0.949 . S
C158 C166 1.574 . S
C158 C174 1.368 . S
H159 C167 0.950 1_556 S
H160 C165 0.952 . S
H161 C166 0.949 . S
H162 C168 0.950 . S
H163 C169 0.950 . S
H164 C170 0.949 . S
C165 H160 0.952 . S
C165 C167 1.327 . S
C165 C171 1.429 . S
C166 C158 1.574 . S
C166 H161 0.949 . S
C166 C172 1.368 . S
C167 C151 1.349 . S
C167 H159 0.950 1_554 S
C167 C165 1.327 . S
C168 C156 1.349 . S
C168 H162 0.950 . S
C168 C169 1.327 . S
C169 H163 0.950 . S
C169 C168 1.327 . S
C169 C173 1.429 . S
C170 C153 1.574 . S
C170 H164 0.949 . S
C170 C174 1.368 . S
C171 C152 1.429 . S
C171 C165 1.429 . S
C171 C172 1.523 . S
C172 C153 1.368 . S
C172 C166 1.368 . S
C172 C171 1.523 . S
C173 C157 1.429 . S
C173 C169 1.429 . S
C173 C174 1.523 . S
C174 C158 1.368 . S
C174 C170 1.368 . S
C174 C173 1.523 . S
H175 C150 0.950 . S
H176 C152 0.950 . S
H177 C153 0.949 . S
H178 C155 0.950 . S
H179 C157 0.950 . S
C180 C181 1.349 1_554 S
C180 C182 1.327 . S
C180 H205 0.950 . S
C181 C180 1.349 1_556 S
C181 C197 1.349 . S
C182 C180 1.327 . S
C182 C201 1.429 1_554 S
C182 H206 0.950 . S
C183 C200 1.574 . S
C183 C202 1.368 . S
C183 H207 0.949 . S
H184 C188 0.949 . S
C185 C186 1.349 . S
C185 C187 1.327 . S
C185 H208 0.950 . S
C186 C185 1.349 . S
C186 C198 1.349 . S
C187 C185 1.327 . S
C187 C203 1.429 . S
C187 H209 0.950 . S
C188 H184 0.949 . S
C188 C196 1.574 . S
C188 C204 1.368 . S
H189 C197 0.950 . S
H190 C195 0.950 . S
H191 C196 0.949 1_554 S
H192 C198 0.950 . S
H193 C199 0.950 . S
H194 C200 0.949 . S
C195 H190 0.950 . S
C195 C197 1.327 . S
C195 C201 1.429 . S
C196 C188 1.574 . S
C196 H191 0.949 1_556 S
C196 C202 1.368 . S
C197 C181 1.349 . S
C197 H189 0.950 . S
C197 C195 1.327 . S
C198 C186 1.349 . S
C198 H192 0.950 . S
C198 C199 1.327 . S
C199 H193 0.950 . S
C199 C198 1.327 . S
C199 C203 1.429 . S
C200 C183 1.574 . S
C200 H194 0.949 . S
C200 C204 1.368 . S
C201 C182 1.429 1_556 S
C201 C195 1.429 . S
C201 C202 1.523 . S
C202 C183 1.368 . S
C202 C196 1.368 . S
C202 C201 1.523 . S
C203 C187 1.429 . S
C203 C199 1.429 . S
C203 C204 1.523 . S
C204 C188 1.368 . S
C204 C200 1.368 . S
C204 C203 1.523 . S
H205 C180 0.950 . S
H206 C182 0.950 . S
H207 C183 0.949 . S
H208 C185 0.950 . S
H209 C187 0.950 . S
C210 C211 1.349 . S
C210 C212 1.327 . S
C210 H235 0.950 . S
C211 C210 1.349 . S
C211 C227 1.349 . S
C212 C210 1.327 . S
C212 C231 1.429 . S
C212 H236 0.950 . S
C213 C230 1.574 . S
C213 C232 1.368 . S
C213 H237 0.949 . S
H214 C218 0.949 . S
C215 C216 1.349 . S
C215 C217 1.327 . S
C215 H238 0.950 . S
C216 C215 1.349 . S
C216 C228 1.349 . S
C217 C215 1.327 . S
C217 C233 1.429 . S
C217 H239 0.950 . S
C218 H214 0.949 . S
C218 C226 1.574 . S
C218 C234 1.368 . S
H219 C227 0.950 . S
H220 C225 0.950 . S
H221 C226 0.949 . S
H222 C228 0.950 . S
H223 C229 0.950 . S
H224 C230 0.949 . S
C225 H220 0.950 . S
C225 C227 1.327 . S
C225 C231 1.429 . S
C226 C218 1.574 . S
C226 H221 0.949 . S
C226 C232 1.368 . S
C227 C211 1.349 . S
C227 H219 0.950 . S
C227 C225 1.327 . S
C228 C216 1.349 . S
C228 H222 0.950 . S
C228 C229 1.327 . S
C229 H223 0.950 . S
C229 C228 1.327 . S
C229 C233 1.429 . S
C230 C213 1.574 . S
C230 H224 0.949 . S
C230 C234 1.368 . S
C231 C212 1.429 . S
C231 C225 1.429 . S
C231 C232 1.523 . S
C232 C213 1.368 . S
C232 C226 1.368 . S
C232 C231 1.523 . S
C233 C217 1.429 . S
C233 C229 1.429 . S
C233 C234 1.523 . S
C234 C218 1.368 . S
C234 C230 1.368 . S
C234 C233 1.523 . S
H235 C210 0.950 . S
H236 C212 0.950 . S
H237 C213 0.949 . S
H238 C215 0.950 . S
H239 C217 0.950 . S
C240 C241 1.349 . S
C240 C242 1.327 . S
C240 H265 0.950 . S
C241 C240 1.349 . S
C241 C257 1.349 . S
C242 C240 1.327 . S
C242 C261 1.429 . S
C242 H266 0.950 . S
C243 C260 1.574 . S
C243 C262 1.368 . S
C243 H267 0.949 . S
H244 C248 0.949 . S
C245 C246 1.349 . S
C245 C247 1.327 . S
C245 H268 0.950 . S
C246 C245 1.349 . S
C246 C258 1.349 . S
C247 C245 1.327 . S
C247 C263 1.429 . S
C247 H269 0.950 . S
C248 H244 0.949 . S
C248 C256 1.574 . S
C248 C264 1.368 . S
H249 C257 0.950 . S
H250 C255 0.950 . S
H251 C256 0.949 . S
H252 C258 0.950 . S
H253 C259 0.950 . S
H254 C260 0.949 . S
C255 H250 0.950 . S
C255 C257 1.327 . S
C255 C261 1.429 . S
C256 C248 1.574 . S
C256 H251 0.949 . S
C256 C262 1.368 . S
C257 C241 1.349 . S
C257 H249 0.950 . S
C257 C255 1.327 . S
C258 C246 1.349 . S
C258 H252 0.950 . S
C258 C259 1.327 . S
C259 H253 0.950 . S
C259 C258 1.327 . S
C259 C263 1.429 . S
C260 C243 1.574 . S
C260 H254 0.949 . S
C260 C264 1.368 . S
C261 C242 1.429 . S
C261 C255 1.429 . S
C261 C262 1.523 . S
C262 C243 1.368 . S
C262 C256 1.368 . S
C262 C261 1.523 . S
C263 C247 1.429 . S
C263 C259 1.429 . S
C263 C264 1.523 . S
C264 C248 1.368 . S
C264 C260 1.368 . S
C264 C263 1.523 . S
H265 C240 0.950 . S
H266 C242 0.950 . S
H267 C243 0.949 . S
H268 C245 0.950 . S
H269 C247 0.950 . S
C270 C271 1.349 . S
C270 C272 1.327 . S
C270 H295 0.950 . S
C271 C270 1.349 . S
C271 C287 1.349 . S
C272 C270 1.327 . S
C272 C291 1.429 . S
C272 H296 0.950 . S
C273 C290 1.574 . S
C273 C292 1.368 . S
C273 H297 0.949 . S
H274 C278 0.949 . S
C275 C276 1.349 . S
C275 C277 1.327 . S
C275 H298 0.950 . S
C276 C275 1.349 . S
C276 C288 1.349 . S
C277 C275 1.327 . S
C277 C293 1.429 . S
C277 H299 0.950 . S
C278 H274 0.949 . S
C278 C286 1.574 . S
C278 C294 1.368 . S
H279 C287 0.950 . S
H280 C285 0.950 . S
H281 C286 0.949 . S
H282 C288 0.950 . S
H283 C289 0.950 . S
H284 C290 0.949 . S
C285 H280 0.950 . S
C285 C287 1.327 . S
C285 C291 1.429 . S
C286 C278 1.574 . S
C286 H281 0.949 . S
C286 C292 1.368 . S
C287 C271 1.349 . S
C287 H279 0.950 . S
C287 C285 1.327 . S
C288 C276 1.349 . S
C288 H282 0.950 . S
C288 C289 1.327 . S
C289 H283 0.950 . S
C289 C288 1.327 . S
C289 C293 1.429 . S
C290 C273 1.574 . S
C290 H284 0.949 . S
C290 C294 1.368 . S
C291 C272 1.429 . S
C291 C285 1.429 . S
C291 C292 1.523 . S
C292 C273 1.368 . S
C292 C286 1.368 . S
C292 C291 1.523 . S
C293 C277 1.429 . S
C293 C289 1.429 . S
C293 C294 1.523 . S
C294 C278 1.368 . S
C294 C290 1.368 . S
C294 C293 1.523 . S
H295 C270 0.950 . S
H296 C272 0.950 . S
H297 C273 0.949 . S
H298 C275 0.950 . S
H299 C277 0.950 . S
C300 C301 1.349 . S
C300 C302 1.327 . S
C300 H325 0.950 . S
C301 C300 1.349 . S
C301 C317 1.349 . S
C302 C300 1.327 . S
C302 C321 1.429 . S
C302 H326 0.950 . S
C303 C320 1.574 . S
C303 C322 1.368 . S
C303 H327 0.949 . S
H304 C308 0.949 . S
C305 C306 1.349 . S
C305 C307 1.327 . S
C305 H328 0.950 . S
C306 C305 1.349 . S
C306 C318 1.349 . S
C307 C305 1.327 . S
C307 C323 1.429 . S
C307 H329 0.950 . S
C308 H304 0.949 . S
C308 C316 1.574 . S
C308 C324 1.368 . S
H309 C317 0.950 . S
H310 C315 0.950 . S
H311 C316 0.949 . S
H312 C318 0.950 . S
H313 C319 0.950 . S
H314 C320 0.949 . S
C315 H310 0.950 . S
C315 C317 1.327 . S
C315 C321 1.429 . S
C316 C308 1.574 . S
C316 H311 0.949 . S
C316 C322 1.368 . S
C317 C301 1.349 . S
C317 H309 0.950 . S
C317 C315 1.327 . S
C318 C306 1.349 . S
C318 H312 0.950 . S
C318 C319 1.327 . S
C319 H313 0.950 . S
C319 C318 1.327 . S
C319 C323 1.429 . S
C320 C303 1.574 . S
C320 H314 0.949 . S
C320 C324 1.368 . S
C321 C302 1.429 . S
C321 C315 1.429 . S
C321 C322 1.523 . S
C322 C303 1.368 . S
C322 C316 1.368 . S
C322 C321 1.523 . S
C323 C307 1.429 . S
C323 C319 1.429 . S
C323 C324 1.523 . S
C324 C308 1.368 . S
C324 C320 1.368 . S
C324 C323 1.523 . S
H325 C300 0.950 . S
H326 C302 0.950 . S
H327 C303 0.949 . S
H328 C305 0.950 . S
H329 C307 0.950 . S
C330 C331 1.349 1_565 S
C330 C332 1.327 . S
C330 H355 0.950 . S
C331 C330 1.349 1_545 S
C331 C347 1.349 1_455 S
C332 C330 1.327 . S
C332 C351 1.429 1_565 S
C332 H356 0.950 . S
C333 C350 1.574 . S
C333 C352 1.368 1_655 S
C333 H357 0.949 . S
H334 C338 0.949 . S
C335 C336 1.349 1_655 S
C335 C337 1.327 . S
C335 H358 0.950 . S
C336 C335 1.349 1_455 S
C336 C348 1.349 1_545 S
C337 C335 1.327 . S
C337 C353 1.429 1_655 S
C337 H359 0.950 . S
C338 H334 0.949 . S
C338 C346 1.574 . S
C338 C354 1.368 1_565 S
H339 C347 0.950 . S
H340 C345 0.950 . S
H341 C346 0.949 . S
H342 C348 0.950 . S
H343 C349 0.950 . S
H344 C350 0.949 . S
C345 H340 0.950 . S
C345 C347 1.327 . S
C345 C351 1.429 1_655 S
C346 C338 1.574 . S
C346 H341 0.949 . S
C346 C352 1.368 1_565 S
C347 C331 1.349 1_655 S
C347 H339 0.950 . S
C347 C345 1.327 . S
C348 C336 1.349 1_565 S
C348 H342 0.950 . S
C348 C349 1.327 . S
C349 H343 0.950 . S
C349 C348 1.327 . S
C349 C353 1.429 1_565 S
C350 C333 1.574 . S
C350 H344 0.949 . S
C350 C354 1.368 1_655 S
C351 C332 1.429 1_545 S
C351 C345 1.429 1_455 S
C351 C352 1.523 . S
C352 C333 1.368 1_455 S
C352 C346 1.368 1_545 S
C352 C351 1.523 . S
C353 C337 1.429 1_455 S
C353 C349 1.429 1_545 S
C353 C354 1.523 . S
C354 C338 1.368 1_545 S
C354 C350 1.368 1_455 S
C354 C353 1.523 . S
H355 C330 0.950 . S
H356 C332 0.950 . S
H357 C333 0.949 . S
H358 C335 0.950 . S
H359 C337 0.950 . S
C360 C361 1.349 . S
C360 C362 1.327 . S
C360 H385 0.950 . S
C361 C360 1.349 . S
C361 C377 1.349 1_445 S
C362 C360 1.327 . S
C362 C381 1.429 . S
C362 H386 0.950 . S
C363 C380 1.574 . S
C363 C382 1.368 1_665 S
C363 H387 0.949 . S
H364 C368 0.949 . S
C365 C366 1.349 1_655 S
C365 C367 1.327 . S
C365 H388 0.950 . S
C366 C365 1.349 1_455 S
C366 C378 1.349 1_565 S
C367 C365 1.327 . S
C367 C383 1.430 1_665 S
C367 H389 0.950 . S
C368 H364 0.949 . S
C368 C376 1.574 . S
C368 C384 1.378 . S
H369 C377 0.950 . S
H370 C375 0.950 . S
H371 C376 0.949 . S
H372 C378 0.950 . S
H373 C379 0.950 . S
H374 C380 0.949 . S
C375 H370 0.950 . S
C375 C377 1.327 . S
C375 C381 1.429 1_665 S
C376 C368 1.574 . S
C376 H371 0.949 . S
C376 C382 1.368 . S
C377 C361 1.349 1_665 S
C377 H369 0.950 . S
C377 C375 1.327 . S
C378 C366 1.349 1_545 S
C378 H372 0.950 . S
C378 C379 1.327 . S
C379 H373 0.950 . S
C379 C378 1.327 . S
C379 C383 1.427 . S
C380 C363 1.574 . S
C380 H374 0.949 . S
C380 C384 1.358 1_665 S
C381 C362 1.429 . S
C381 C375 1.429 1_445 S
C381 C382 1.523 . S
C382 C363 1.368 1_445 S
C382 C376 1.368 . S
C382 C381 1.523 . S
C383 C367 1.430 1_445 S
C383 C379 1.427 . S
C383 C384 1.524 . S
C384 C368 1.378 . S
C384 C380 1.358 1_445 S
C384 C383 1.524 . S
H385 C360 0.950 . S
H386 C362 0.950 . S
H387 C363 0.949 . S
H388 C365 0.950 . S
H389 C367 0.950 . S
C390 C391 1.349 . S
C390 C392 1.327 . S
C390 H415 0.950 . S
C391 C390 1.349 . S
C391 C407 1.349 . S
C392 C390 1.327 . S
C392 C411 1.429 . S
C392 H416 0.950 . S
C393 C410 1.574 . S
C393 C412 1.368 . S
C393 H417 0.949 . S
H394 C398 0.949 . S
C395 C396 1.349 . S
C395 C397 1.327 . S
C395 H418 0.950 . S
C396 C395 1.349 . S
C396 C408 1.349 . S
C397 C395 1.327 . S
C397 C413 1.429 . S
C397 H419 0.950 . S
C398 H394 0.949 . S
C398 C406 1.574 . S
C398 C414 1.368 . S
H399 C407 0.950 . S
H400 C405 0.950 . S
H401 C406 0.949 . S
H402 C408 0.950 . S
H403 C409 0.950 . S
H404 C410 0.949 . S
C405 H400 0.950 . S
C405 C407 1.327 . S
C405 C411 1.429 . S
C406 C398 1.574 . S
C406 H401 0.949 . S
C406 C412 1.368 . S
C407 C391 1.349 . S
C407 H399 0.950 . S
C407 C405 1.327 . S
C408 C396 1.349 . S
C408 H402 0.950 . S
C408 C409 1.327 . S
C409 H403 0.950 . S
C409 C408 1.327 . S
C409 C413 1.429 . S
C410 C393 1.574 . S
C410 H404 0.949 . S
C410 C414 1.368 . S
C411 C392 1.429 . S
C411 C405 1.429 . S
C411 C412 1.523 . S
C412 C393 1.368 . S
C412 C406 1.368 . S
C412 C411 1.523 . S
C413 C397 1.429 . S
C413 C409 1.429 . S
C413 C414 1.523 . S
C414 C398 1.368 . S
C414 C410 1.368 . S
C414 C413 1.523 . S
H415 C390 0.950 . S
H416 C392 0.950 . S
H417 C393 0.949 . S
H418 C395 0.950 . S
H419 C397 0.950 . S
C420 C421 1.349 . S
C420 C422 1.327 . S
C420 H445 0.950 . S
C421 C420 1.349 . S
C421 C437 1.349 . S
C422 C420 1.327 . S
C422 C441 1.429 . S
C422 H446 0.950 . S
C423 C440 1.574 . S
C423 C442 1.368 . S
C423 H447 0.949 . S
H424 C428 0.949 . S
C425 C426 1.349 . S
C425 C427 1.327 . S
C425 H448 0.950 . S
C426 C425 1.349 . S
C426 C438 1.349 . S
C427 C425 1.327 . S
C427 C443 1.429 . S
C427 H449 0.950 . S
C428 H424 0.949 . S
C428 C436 1.574 . S
C428 C444 1.368 . S
H429 C437 0.950 . S
H430 C435 0.950 . S
H431 C436 0.949 . S
H432 C438 0.950 . S
H433 C439 0.950 . S
H434 C440 0.949 . S
C435 H430 0.950 . S
C435 C437 1.327 . S
C435 C441 1.429 . S
C436 C428 1.574 . S
C436 H431 0.949 . S
C436 C442 1.368 . S
C437 C421 1.349 . S
C437 H429 0.950 . S
C437 C435 1.327 . S
C438 C426 1.349 . S
C438 H432 0.950 . S
C438 C439 1.327 . S
C439 H433 0.950 . S
C439 C438 1.327 . S
C439 C443 1.429 . S
C440 C423 1.574 . S
C440 H434 0.949 . S
C440 C444 1.368 . S
C441 C422 1.429 . S
C441 C435 1.429 . S
C441 C442 1.523 . S
C442 C423 1.368 . S
C442 C436 1.368 . S
C442 C441 1.523 . S
C443 C427 1.429 . S
C443 C439 1.429 . S
C443 C444 1.523 . S
C444 C428 1.368 . S
C444 C440 1.368 . S
C444 C443 1.523 . S
H445 C420 0.950 . S
H446 C422 0.950 . S
H447 C423 0.949 . S
H448 C425 0.950 . S
H449 C427 0.950 . S
C96 C84 1.319 . S
C91 C21 1.507 . S
C121 C19 1.499 . S
C126 C73 1.304 . S
C151 C18 1.380 . S
C156 C87 1.379 . S
C181 C20 1.388 1_556 S
C186 C76 1.386 . S
C211 C44 1.507 . S
C216 C62 1.319 . S
C241 C42 1.499 . S
C246 C51 1.304 . S
C276 C65 1.379 . S
C271 C41 1.380 . S
C306 C54 1.386 . S
C301 C43 1.394 . S
C331 C16 1.519 . S
C336 C53 1.463 . S
C361 C17 1.482 . S
C366 C64 1.431 1_565 S
C396 C75 1.463 . S
C391 C39 1.519 . S
C421 C40 1.482 . S
C426 C86 1.431 . S
