# Generated by pormake.
# Topology ocu, (6,8)-cn, num edge types: 1
# Building blocks:
#     Node 0, Type 0, BuildingBlock: JUFBIX_clean_sbu_0, # of connection points: 6
#     Node 1, Type 0, BuildingBlock: JUFBIX_clean_sbu_0, # of connection points: 6
#     Node 2, Type 0, BuildingBlock: JUFBIX_clean_sbu_0, # of connection points: 6
#     Node 3, Type 0, BuildingBlock: JUFBIX_clean_sbu_0, # of connection points: 6
#     Node 4, Type 0, BuildingBlock: JUFBIX_clean_sbu_0, # of connection points: 6
#     Node 5, Type 0, BuildingBlock: JUFBIX_clean_sbu_0, # of connection points: 6
#     Node 6, Type 0, BuildingBlock: JUFBIX_clean_sbu_0, # of connection points: 6
#     Node 7, Type 0, BuildingBlock: JUFBIX_clean_sbu_0, # of connection points: 6
#     Node 8, Type 1, BuildingBlock: VETTIZ_charged_sbu_0, # of connection points: 8
#     Node 9, Type 1, BuildingBlock: VETTIZ_charged_sbu_0, # of connection points: 8
#     Node 10, Type 1, BuildingBlock: VETTIZ_charged_sbu_0, # of connection points: 8
#     Node 11, Type 1, BuildingBlock: VETTIZ_charged_sbu_0, # of connection points: 8
#     Node 12, Type 1, BuildingBlock: VETTIZ_charged_sbu_0, # of connection points: 8
#     Node 13, Type 1, BuildingBlock: VETTIZ_charged_sbu_0, # of connection points: 8
#     Edge 14, Type (0, 1), BuildingBlock: XIVTED_clean_linker_0, # of connection points: 2
#     Edge 15, Type (0, 1), BuildingBlock: XIVTED_clean_linker_0, # of connection points: 2
#     Edge 16, Type (0, 1), BuildingBlock: XIVTED_clean_linker_0, # of connection points: 2
#     Edge 17, Type (0, 1), BuildingBlock: XIVTED_clean_linker_0, # of connection points: 2
#     Edge 18, Type (0, 1), BuildingBlock: XIVTED_clean_linker_0, # of connection points: 2
#     Edge 19, Type (0, 1), BuildingBlock: XIVTED_clean_linker_0, # of connection points: 2
#     Edge 20, Type (0, 1), BuildingBlock: XIVTED_clean_linker_0, # of connection points: 2
#     Edge 21, Type (0, 1), BuildingBlock: XIVTED_clean_linker_0, # of connection points: 2
#     Edge 22, Type (0, 1), BuildingBlock: XIVTED_clean_linker_0, # of connection points: 2
#     Edge 23, Type (0, 1), BuildingBlock: XIVTED_clean_linker_0, # of connection points: 2
#     Edge 24, Type (0, 1), BuildingBlock: XIVTED_clean_linker_0, # of connection points: 2
#     Edge 25, Type (0, 1), BuildingBlock: XIVTED_clean_linker_0, # of connection points: 2
#     Edge 26, Type (0, 1), BuildingBlock: XIVTED_clean_linker_0, # of connection points: 2
#     Edge 27, Type (0, 1), BuildingBlock: XIVTED_clean_linker_0, # of connection points: 2
#     Edge 28, Type (0, 1), BuildingBlock: XIVTED_clean_linker_0, # of connection points: 2
#     Edge 29, Type (0, 1), BuildingBlock: XIVTED_clean_linker_0, # of connection points: 2
#     Edge 30, Type (0, 1), BuildingBlock: XIVTED_clean_linker_0, # of connection points: 2
#     Edge 31, Type (0, 1), BuildingBlock: XIVTED_clean_linker_0, # of connection points: 2
#     Edge 32, Type (0, 1), BuildingBlock: XIVTED_clean_linker_0, # of connection points: 2
#     Edge 33, Type (0, 1), BuildingBlock: XIVTED_clean_linker_0, # of connection points: 2
#     Edge 34, Type (0, 1), BuildingBlock: XIVTED_clean_linker_0, # of connection points: 2
#     Edge 35, Type (0, 1), BuildingBlock: XIVTED_clean_linker_0, # of connection points: 2
#     Edge 36, Type (0, 1), BuildingBlock: XIVTED_clean_linker_0, # of connection points: 2
#     Edge 37, Type (0, 1), BuildingBlock: XIVTED_clean_linker_0, # of connection points: 2
#     Edge 38, Type (0, 1), BuildingBlock: XIVTED_clean_linker_0, # of connection points: 2
#     Edge 39, Type (0, 1), BuildingBlock: XIVTED_clean_linker_0, # of connection points: 2
#     Edge 40, Type (0, 1), BuildingBlock: XIVTED_clean_linker_0, # of connection points: 2
#     Edge 41, Type (0, 1), BuildingBlock: XIVTED_clean_linker_0, # of connection points: 2
#     Edge 42, Type (0, 1), BuildingBlock: XIVTED_clean_linker_0, # of connection points: 2
#     Edge 43, Type (0, 1), BuildingBlock: XIVTED_clean_linker_0, # of connection points: 2
#     Edge 44, Type (0, 1), BuildingBlock: XIVTED_clean_linker_0, # of connection points: 2
#     Edge 45, Type (0, 1), BuildingBlock: XIVTED_clean_linker_0, # of connection points: 2
#     Edge 46, Type (0, 1), BuildingBlock: XIVTED_clean_linker_0, # of connection points: 2
#     Edge 47, Type (0, 1), BuildingBlock: XIVTED_clean_linker_0, # of connection points: 2
#     Edge 48, Type (0, 1), BuildingBlock: XIVTED_clean_linker_0, # of connection points: 2
#     Edge 49, Type (0, 1), BuildingBlock: XIVTED_clean_linker_0, # of connection points: 2
#     Edge 50, Type (0, 1), BuildingBlock: XIVTED_clean_linker_0, # of connection points: 2
#     Edge 51, Type (0, 1), BuildingBlock: XIVTED_clean_linker_0, # of connection points: 2
#     Edge 52, Type (0, 1), BuildingBlock: XIVTED_clean_linker_0, # of connection points: 2
#     Edge 53, Type (0, 1), BuildingBlock: XIVTED_clean_linker_0, # of connection points: 2
#     Edge 54, Type (0, 1), BuildingBlock: XIVTED_clean_linker_0, # of connection points: 2
#     Edge 55, Type (0, 1), BuildingBlock: XIVTED_clean_linker_0, # of connection points: 2
#     Edge 56, Type (0, 1), BuildingBlock: XIVTED_clean_linker_0, # of connection points: 2
#     Edge 57, Type (0, 1), BuildingBlock: XIVTED_clean_linker_0, # of connection points: 2
#     Edge 58, Type (0, 1), BuildingBlock: XIVTED_clean_linker_0, # of connection points: 2
#     Edge 59, Type (0, 1), BuildingBlock: XIVTED_clean_linker_0, # of connection points: 2
#     Edge 60, Type (0, 1), BuildingBlock: XIVTED_clean_linker_0, # of connection points: 2
#     Edge 61, Type (0, 1), BuildingBlock: XIVTED_clean_linker_0, # of connection points: 2
# Relax obj value: 0.158
# Max RMSD: 0.269
# Mean RMSD: 0.151
data_MOF--net-ocu--node1-JUFBIX_clean_sbu_0--node2-VETTIZ_charged_sbu_0--edge1-XIVTED_clean_linker_0
_symmetry_space_group_name_H-M    P1
_symmetry_Int_Tables_number       1
_symmetry_cell_setting            triclinic
loop_
_symmetry_equiv_pos_as_xyz
'x, y, z'
_cell_length_a     37.166402
_cell_length_b     38.501846
_cell_length_c     37.671003
_cell_angle_alpha  93.079587
_cell_angle_beta   91.832087
_cell_angle_gamma 89.836833
loop_
_atom_site_label
_atom_site_type_symbol
_atom_site_fract_x
_atom_site_fract_y
_atom_site_fract_z
_atom_type_partial_charge
Co0 Co 0.2226 0.2296 0.26248 0.0
C1 C 0.21327 0.28472 0.31375 0.0
Co2 Co 0.26517 0.26925 0.26563 0.0
C3 C 0.18553 0.1639 0.26145 0.0
C4 C 0.14976 0.20719 0.25731 0.0
N5 N 0.18485 0.1988 0.2606 0.0
N6 N 0.15207 0.14995 0.25922 0.0
C7 C 0.12962 0.1774 0.25647 0.0
H8 H 0.21022 0.14937 0.2647 0.0
H9 H 0.1394 0.23343 0.25647 0.0
C10 C 0.27512 0.21343 0.21538 0.0
N11 N 0.30278 0.30043 0.2652 0.0
C12 C 0.31727 0.3103 0.23505 0.0
C13 C 0.3241 0.31474 0.29165 0.0
N14 N 0.34699 0.32989 0.24121 0.0
C15 C 0.35146 0.3329 0.27692 0.0
C16 C 0.27866 0.21558 0.31063 0.0
O17 O 0.24539 0.20231 0.22585 0.0
O18 O 0.28748 0.24192 0.22911 0.0
O19 O 0.29053 0.24395 0.29992 0.0
O20 O 0.24855 0.20387 0.29789 0.0
O21 O 0.24276 0.29595 0.30251 0.0
H22 H 0.32069 0.31124 0.31965 0.0
H23 H 0.307 0.30168 0.20887 0.0
O24 O 0.19988 0.25672 0.29955 0.0
O25 O 0.19743 0.25542 0.22734 0.0
O26 O 0.23963 0.29485 0.23112 0.0
C27 C 0.20986 0.28386 0.21753 0.0
H28 H 0.10054 0.17658 0.256 0.0
H29 H 0.37309 0.34677 0.29136 0.0
Co30 Co 0.80048 0.26087 0.25019 0.0
C31 C 0.80977 0.31245 0.304 0.0
Co32 Co 0.75674 0.26368 0.28778 0.0
C33 C 0.86123 0.28099 0.21143 0.0
C34 C 0.85207 0.22613 0.20612 0.0
N35 N 0.83873 0.25612 0.22076 0.0
N36 N 0.88799 0.26778 0.19161 0.0
C37 C 0.88218 0.23335 0.18761 0.0
H38 H 0.85766 0.30843 0.21831 0.0
H39 H 0.84079 0.20059 0.2089 0.0
C40 C 0.74804 0.21159 0.23368 0.0
N41 N 0.71873 0.26721 0.31775 0.0
C42 C 0.69642 0.24119 0.32448 0.0
C43 C 0.70573 0.29544 0.33608 0.0
N44 N 0.66993 0.25194 0.34578 0.0
C45 C 0.67572 0.28592 0.35385 0.0
C46 C 0.74579 0.30537 0.22907 0.0
O47 O 0.7779 0.22318 0.22442 0.0
O48 O 0.73343 0.22579 0.2608 0.0
O49 O 0.73308 0.29594 0.25799 0.0
O50 O 0.77605 0.29288 0.21943 0.0
O51 O 0.78016 0.3009 0.31426 0.0
H52 H 0.71705 0.3213 0.33622 0.0
H53 H 0.69964 0.21456 0.31433 0.0
O54 O 0.82328 0.29884 0.27602 0.0
O55 O 0.82462 0.22975 0.28081 0.0
O56 O 0.78065 0.23151 0.31801 0.0
C57 C 0.81169 0.22042 0.30957 0.0
H58 H 0.89837 0.21498 0.17228 0.0
H59 H 0.65924 0.30253 0.37082 0.0
Co60 Co 0.75969 0.73451 0.28862 0.0
C61 C 0.81624 0.77657 0.31423 0.0
Co62 Co 0.77245 0.77595 0.25341 0.0
C63 C 0.77606 0.67355 0.32384 0.0
C64 C 0.72105 0.68722 0.33187 0.0
N65 N 0.75113 0.69759 0.31626 0.0
N66 N 0.76297 0.64831 0.34296 0.0
C67 C 0.72846 0.65689 0.34884 0.0
H68 H 0.80381 0.67484 0.31613 0.0
H69 H 0.69551 0.70072 0.33091 0.0
C70 C 0.71685 0.73308 0.22676 0.0
N71 N 0.78174 0.81252 0.22572 0.0
C72 C 0.75744 0.83618 0.21559 0.0
C73 C 0.81252 0.82119 0.21025 0.0
N74 N 0.77156 0.85919 0.1944 0.0
C75 C 0.8061 0.84973 0.19034 0.0
C76 C 0.81091 0.71646 0.23554 0.0
O77 O 0.72172 0.71922 0.25643 0.0
O78 O 0.7358 0.75927 0.22006 0.0
O79 O 0.80692 0.74793 0.22776 0.0
O80 O 0.79289 0.70558 0.26084 0.0
O81 O 0.80901 0.7919 0.28589 0.0
H82 H 0.83765 0.80711 0.21246 0.0
H83 H 0.72925 0.83544 0.22196 0.0
O84 O 0.79809 0.74991 0.32099 0.0
O85 O 0.72671 0.76348 0.31584 0.0
O86 O 0.73756 0.8044 0.27962 0.0
C87 C 0.7212 0.7944 0.30649 0.0
H88 H 0.71008 0.64227 0.36402 0.0
H89 H 0.82484 0.86191 0.17345 0.0
Co90 Co 0.24781 0.79142 0.26554 0.0
C91 C 0.30067 0.79633 0.31878 0.0
Co92 Co 0.28547 0.748 0.26345 0.0
C93 C 0.18148 0.8288 0.26043 0.0
C94 C 0.22728 0.8625 0.26362 0.0
N95 N 0.21762 0.82888 0.26394 0.0
N96 N 0.16785 0.86122 0.25843 0.0
C97 C 0.19686 0.8824 0.26029 0.0
H98 H 0.16558 0.80532 0.26037 0.0
H99 H 0.25464 0.87199 0.26642 0.0
C100 C 0.23231 0.74161 0.21094 0.0
N101 N 0.31576 0.71052 0.26486 0.0
C102 C 0.35199 0.71059 0.26647 0.0
C103 C 0.30624 0.67694 0.26659 0.0
N104 N 0.36562 0.67827 0.26892 0.0
C105 C 0.3368 0.65707 0.26906 0.0
C106 C 0.22415 0.73705 0.30687 0.0
O107 O 0.22243 0.77069 0.22486 0.0
O108 O 0.26022 0.72707 0.22362 0.0
O109 O 0.25356 0.72459 0.29516 0.0
O110 O 0.21508 0.76732 0.29729 0.0
O111 O 0.31058 0.76817 0.30315 0.0
H112 H 0.27885 0.66743 0.26535 0.0
H113 H 0.36802 0.73387 0.26508 0.0
O114 O 0.27307 0.812 0.3067 0.0
O115 O 0.28032 0.81542 0.23437 0.0
O116 O 0.31782 0.77193 0.23152 0.0
C117 C 0.30962 0.80265 0.22271 0.0
H118 H 0.19629 0.91054 0.26188 0.0
H119 H 0.33767 0.62894 0.26846 0.0
Co120 Co 0.30226 0.75103 0.74433 0.0
C121 C 0.30575 0.80751 0.79495 0.0
Co122 Co 0.25871 0.75401 0.78165 0.0
C123 C 0.35878 0.77742 0.7054 0.0
C124 C 0.35471 0.72237 0.69546 0.0
N125 N 0.33978 0.74962 0.71379 0.0
N126 N 0.38504 0.76879 0.68302 0.0
C127 C 0.38254 0.73429 0.67598 0.0
H128 H 0.3531 0.80386 0.71483 0.0
H129 H 0.34596 0.69566 0.69618 0.0
C130 C 0.25277 0.69823 0.73124 0.0
N131 N 0.22148 0.75597 0.81165 0.0
C132 C 0.21099 0.72901 0.82958 0.0
C133 C 0.19614 0.78074 0.81718 0.0
N134 N 0.17985 0.73538 0.84567 0.0
C135 C 0.16995 0.7678 0.83793 0.0
C136 C 0.24312 0.78869 0.72004 0.0
O137 O 0.28132 0.71083 0.71946 0.0
O138 O 0.23975 0.7123 0.75923 0.0
O139 O 0.23062 0.77982 0.74912 0.0
O140 O 0.27518 0.77986 0.71274 0.0
O141 O 0.27621 0.7951 0.80399 0.0
H142 H 0.1957 0.8057 0.80528 0.0
H143 H 0.22445 0.704 0.82842 0.0
O144 O 0.32245 0.79202 0.76972 0.0
O145 O 0.32963 0.72227 0.77558 0.0
O146 O 0.28758 0.72773 0.81473 0.0
C147 C 0.31844 0.71615 0.80618 0.0
H148 H 0.39964 0.71902 0.65837 0.0
H149 H 0.14505 0.78044 0.84541 0.0
Co150 Co 0.26189 0.2585 0.76643 0.0
C151 C 0.311 0.31076 0.78527 0.0
Co152 Co 0.26442 0.29754 0.72676 0.0
C153 C 0.28867 0.21339 0.81691 0.0
C154 C 0.23228 0.20462 0.80783 0.0
N155 N 0.25992 0.22448 0.79835 0.0
N156 N 0.28034 0.18767 0.8378 0.0
C157 C 0.24496 0.18154 0.83214 0.0
H158 H 0.31561 0.22345 0.81455 0.0
H159 H 0.20487 0.20662 0.79756 0.0
C160 C 0.21512 0.24616 0.70783 0.0
N161 N 0.26743 0.33174 0.69511 0.0
C162 C 0.26502 0.36604 0.70347 0.0
C163 C 0.27031 0.32898 0.65956 0.0
N164 N 0.26479 0.38513 0.67453 0.0
C165 C 0.26856 0.36178 0.64679 0.0
C166 C 0.31118 0.24147 0.71263 0.0
O167 O 0.22669 0.2346 0.73703 0.0
O168 O 0.22734 0.27482 0.69813 0.0
O169 O 0.30009 0.27002 0.70053 0.0
O170 O 0.29891 0.2325 0.7419 0.0
O171 O 0.30145 0.32052 0.7548 0.0
H172 H 0.27152 0.30467 0.64385 0.0
H173 H 0.26149 0.37659 0.73032 0.0
O174 O 0.29717 0.28331 0.79612 0.0
O175 O 0.22545 0.28355 0.79116 0.0
O176 O 0.22797 0.32477 0.75374 0.0
C177 C 0.21496 0.3132 0.78179 0.0
H178 H 0.22954 0.16218 0.84485 0.0
H179 H 0.26677 0.36754 0.61899 0.0
Co180 Co 0.74508 0.2716 0.76516 0.0
C181 C 0.79803 0.27664 0.81705 0.0
Co182 Co 0.78329 0.2287 0.76067 0.0
C183 C 0.67564 0.30015 0.7705 0.0
C184 C 0.71485 0.34079 0.77147 0.0
N185 N 0.71105 0.30603 0.76762 0.0
N186 N 0.65714 0.32952 0.77791 0.0
C187 C 0.68163 0.35535 0.77795 0.0
H188 H 0.66399 0.2744 0.77032 0.0
H189 H 0.74037 0.35431 0.7724 0.0
C190 C 0.73047 0.22514 0.70781 0.0
N191 N 0.81644 0.1935 0.75853 0.0
C192 C 0.85231 0.19683 0.75644 0.0
C193 C 0.8104 0.15901 0.758 0.0
N194 N 0.86907 0.16576 0.75363 0.0
C195 C 0.8427 0.14188 0.75494 0.0
C196 C 0.7247 0.21262 0.80449 0.0
O197 O 0.72025 0.25233 0.72497 0.0
O198 O 0.75834 0.20921 0.71887 0.0
O199 O 0.7535 0.20034 0.7912 0.0
O200 O 0.71604 0.24348 0.79674 0.0
O201 O 0.80831 0.24829 0.80183 0.0
H202 H 0.7841 0.14707 0.75812 0.0
H203 H 0.8657 0.22164 0.75531 0.0
O204 O 0.76992 0.29147 0.80524 0.0
O205 O 0.77423 0.29964 0.73445 0.0
O206 O 0.81333 0.25746 0.72995 0.0
C207 C 0.80394 0.28825 0.72217 0.0
H208 H 0.67669 0.38228 0.78616 0.0
H209 H 0.84602 0.11403 0.75076 0.0
Co210 Co 0.76018 0.7562 0.75789 0.0
C211 C 0.74617 0.80275 0.8136 0.0
Co212 Co 0.802 0.79647 0.76663 0.0
C213 C 0.71463 0.69945 0.77304 0.0
C214 C 0.70547 0.71435 0.71964 0.0
N215 N 0.72552 0.72207 0.74956 0.0
N216 N 0.68874 0.67794 0.75909 0.0
C217 C 0.68255 0.68728 0.72555 0.0
H218 H 0.72516 0.69899 0.80014 0.0
H219 H 0.70745 0.72744 0.69509 0.0
C220 C 0.81594 0.75068 0.71025 0.0
N221 N 0.83626 0.83053 0.77655 0.0
C222 C 0.84631 0.85606 0.75599 0.0
C223 C 0.85602 0.83579 0.80716 0.0
N224 N 0.87156 0.87675 0.77245 0.0
C225 C 0.8782 0.86399 0.80447 0.0
C226 C 0.81564 0.73722 0.80437 0.0
O227 O 0.78669 0.73717 0.71945 0.0
O228 O 0.8283 0.7775 0.72768 0.0
O229 O 0.8279 0.76679 0.79772 0.0
O230 O 0.78599 0.72731 0.78956 0.0
O231 O 0.77596 0.81531 0.8051 0.0
H232 H 0.85437 0.82026 0.83013 0.0
H233 H 0.83588 0.85909 0.72916 0.0
O234 O 0.73371 0.77596 0.79627 0.0
O235 O 0.73479 0.78484 0.7266 0.0
O236 O 0.77523 0.82596 0.73484 0.0
C237 C 0.7459 0.81481 0.71987 0.0
H238 H 0.66341 0.67501 0.7066 0.0
H239 H 0.89748 0.87442 0.82437 0.0
Fe240 Fe 0.0303 0.03899 0.50357 0.0
O241 O 0.99395 1.00114 0.49647 0.0
Fe242 Fe 0.11105 0.99452 0.50929 0.0
Fe243 Fe 0.94397 1.00656 0.51161 0.0
O244 O 0.06143 1.00198 0.52372 0.0
O245 O 0.06119 0.99884 0.5252 0.0
O246 O 0.99369 0.99796 0.49811 0.0
Fe247 Fe 0.02455 0.96099 0.51901 0.0
C248 C 0.98199 0.06016 0.56192 0.0
O249 O 0.99184 0.07315 0.48049 0.0
O250 O 0.94125 0.03889 0.46997 0.0
O251 O 0.04072 0.94804 0.46932 0.0
O252 O 0.10059 0.95211 0.4745 0.0
O253 O 0.10605 0.02572 0.46695 0.0
O254 O 0.04773 0.02732 0.45326 0.0
O255 O 0.93693 0.95974 0.48322 0.0
O256 O 0.98171 0.92574 0.50778 0.0
C257 C 0.08026 0.02646 0.44408 0.0
O258 O 0.06287 0.92694 0.54189 0.0
O259 O 0.11466 0.96004 0.54917 0.0
O260 O 1.01336 0.05089 0.55351 0.0
O261 O 0.95396 0.05126 0.54337 0.0
C262 C 0.95985 0.06681 0.46596 0.0
C263 C 0.95291 0.93014 0.48773 0.0
C264 C 0.97511 0.97683 0.57852 0.0
O265 O 0.94894 0.97817 0.55605 0.0
O266 O 1.0075 0.9737 0.56915 0.0
C267 C 0.07176 0.94281 0.45734 0.0
O268 O 0.11796 0.03993 0.53987 0.0
O269 O 0.07298 0.07433 0.51631 0.0
C270 C 0.0956 0.93275 0.5546 0.0
C271 C 0.10163 0.0696 0.53662 0.0
Fe272 Fe 0.5137 0.93233 0.99519 0.0
O273 O 0.51788 0.98414 0.99439 0.0
Fe274 Fe 0.47579 0.01194 0.02058 0.0
Fe275 Fe 0.56075 1.01004 0.01638 0.0
O276 O 0.51371 0.98272 0.99747 0.0
O277 O 0.5188 0.03792 0.04248 0.0
O278 O 0.52297 0.03934 0.03939 0.0
Fe279 Fe 0.52412 0.08962 0.04182 0.0
C280 C 0.56774 0.94743 0.05655 0.0
O281 O 0.55312 0.93681 0.95893 0.0
O282 O 0.59407 0.97405 0.98854 0.0
O283 O 0.48414 0.09543 1.00405 0.0
O284 O 0.47677 0.04261 0.97783 0.0
O285 O 0.43649 0.98199 0.99105 0.0
O286 O 0.4702 0.93954 0.96158 0.0
O287 O 0.56659 0.04247 0.97319 0.0
O288 O 0.56262 0.09381 1.00266 0.0
C289 C 0.44133 0.9581 0.9657 0.0
O290 O 0.48291 0.0862 0.07691 0.0
O291 O 0.44239 0.04806 0.04806 0.0
O292 O 0.55584 0.92696 0.0313 0.0
O293 O 0.55865 0.97913 0.0588 0.0
C294 C 0.58501 0.95029 0.96379 0.0
C295 C 0.57301 0.07532 0.97569 0.0
C296 C 0.59555 0.06347 0.07186 0.0
O297 O 0.60015 0.03986 0.04616 0.0
O298 O 0.56654 0.08171 0.07659 0.0
C299 C 0.47221 0.07529 0.97855 0.0
O300 O 0.4701 0.97934 0.06377 0.0
O301 O 0.47684 0.92769 0.03528 0.0
C302 C 0.45089 0.07295 0.07179 0.0
C303 C 0.46518 0.94619 0.0616 0.0
Fe304 Fe 1.0102 0.55214 0.01399 0.0
O305 O 0.98027 0.51178 0.99575 0.0
Fe306 Fe 0.09549 0.51296 0.02345 0.0
Fe307 Fe 0.92892 0.50742 1.00248 0.0
O308 O 0.04299 0.51477 0.03207 0.0
O309 O 0.04402 0.51092 0.02994 0.0
O310 O 0.98134 0.508 0.9934 0.0
Fe311 Fe 1.01452 0.4709 1.01082 0.0
C312 C 0.95006 0.55917 0.06643 0.0
O313 O 0.97188 0.58554 0.99035 0.0
O314 O 0.92645 0.54828 0.96947 0.0
O315 O 0.04134 0.4665 0.96266 0.0
O316 O 0.09686 0.47199 0.98558 0.0
O317 O 0.09244 0.54687 0.9835 0.0
O318 O 0.03456 0.54892 0.96638 0.0
O319 O 0.93211 0.46756 0.96448 0.0
O320 O 0.9779 0.43373 0.98753 0.0
C321 C 0.06762 0.55181 0.96025 0.0
O322 O 0.05273 0.43734 0.03478 0.0
O323 O 0.0961 0.47503 0.05948 0.0
O324 O 0.984 0.55809 0.06192 0.0
O325 O 0.92762 0.54455 0.04418 0.0
C326 C 0.94264 0.57819 0.9712 0.0
C327 C 0.95032 0.43877 0.96601 0.0
C328 C 0.95761 0.46154 0.06023 0.0
O329 O 0.9327 0.46862 0.03788 0.0
O330 O 0.98896 0.47351 0.05797 0.0
C331 C 0.07516 0.46108 0.96073 0.0
O332 O 0.09367 0.55567 0.05825 0.0
O333 O 0.04766 0.58955 0.03589 0.0
C334 C 0.08071 0.44474 0.05582 0.0
C335 C 0.07596 0.58467 0.05655 0.0
Fe336 Fe 0.51368 0.51091 0.97241 0.0
O337 O 0.55591 0.51569 1.0068 0.0
Fe338 Fe 0.4417 0.51873 0.03079 0.0
Fe339 Fe 0.60592 0.50086 1.00046 0.0
O340 O 0.49061 0.5098 0.01911 0.0
O341 O 0.49347 0.52101 0.02448 0.0
O342 O 0.55607 0.5017 1.01158 0.0
Fe343 Fe 0.53321 0.50729 0.05836 0.0
C344 C 0.55839 0.44335 0.96227 0.0
O345 O 0.54433 0.51858 0.92878 0.0
O346 O 0.59957 0.5289 0.95531 0.0
O347 O 0.50474 0.52218 0.10213 0.0
O348 O 0.45622 0.54888 0.07662 0.0
O349 O 0.44042 0.56131 0.99916 0.0
O350 O 0.49489 0.56302 0.97227 0.0
O351 O 0.61491 0.54564 0.03385 0.0
O352 O 0.56145 0.55467 0.0623 0.0
C353 C 0.46285 0.57531 0.97854 0.0
O354 O 0.50662 0.45936 0.05813 0.0
O355 O 0.44727 0.47502 0.05967 0.0
O356 O 0.5282 0.45861 0.96858 0.0
O357 O 0.58987 0.45682 0.96955 0.0
C358 C 0.57715 0.52918 0.92852 0.0
C359 C 0.59398 0.56359 0.05504 0.0
C360 C 0.60309 0.46982 0.07664 0.0
O361 O 0.61356 0.47137 0.04466 0.0
O362 O 0.57523 0.48617 0.08811 0.0
C363 C 0.47902 0.5445 0.10267 0.0
O364 O 0.42904 0.48719 0.98531 0.0
O365 O 0.46803 0.49822 0.94238 0.0
C366 C 0.47331 0.45343 0.06453 0.0
C367 C 0.43952 0.48385 0.95306 0.0
Fe368 Fe 1.01704 0.47492 0.52442 0.0
O369 O 0.99455 0.51739 0.54722 0.0
Fe370 Fe 0.0439 0.50555 0.44331 0.0
Fe371 Fe 0.99377 0.52613 0.59936 0.0
O372 O 0.04133 0.51001 0.49523 0.0
O373 O 0.0431 0.514 0.49532 0.0
O374 O 0.99658 0.52152 0.54748 0.0
Fe375 Fe 0.02129 0.5565 0.5185 0.0
C376 C 0.96248 0.45246 0.58369 0.0
O377 O 0.05993 0.4802 0.5591 0.0
O378 O 0.03284 0.48986 0.6103 0.0
O379 O 0.05067 0.58808 0.48274 0.0
O380 O 0.07958 0.54735 0.44692 0.0
O381 O 0.07913 0.46659 0.45602 0.0
O382 O 0.04669 0.43581 0.4957 0.0
O383 O 0.03356 0.56384 0.60427 0.0
O384 O 0.06438 0.56109 0.55433 0.0
C385 C 0.07283 0.4391 0.47349 0.0
O386 O 0.97814 0.55272 0.48418 0.0
O387 O 1.00351 0.54093 0.43222 0.0
O388 O 0.98707 0.44354 0.56028 0.0
O389 O 0.95742 0.48454 0.59535 0.0
C390 C 0.06111 0.48461 0.59267 0.0
C391 C 0.06257 0.56785 0.58773 0.0
C392 C 0.9663 0.59309 0.56875 0.0
O393 O 0.95942 0.56595 0.58656 0.0
O394 O 0.99282 0.59589 0.54709 0.0
C395 C 0.07449 0.5793 0.45865 0.0
O396 O 1.00554 0.46711 0.43878 0.0
O397 O 0.97427 0.46938 0.48839 0.0
C398 C 0.97635 0.54951 0.45056 0.0
C399 C 0.97659 0.4626 0.45508 0.0
Fe400 Fe 0.5203 0.97566 0.51609 0.0
O401 O 0.54232 0.02037 0.53571 0.0
Fe402 Fe 0.48349 0.99954 0.43444 0.0
Fe403 Fe 0.54721 0.03181 0.58782 0.0
O404 O 0.49075 1.00672 0.48576 0.0
O405 O 0.48807 1.01043 0.48673 0.0
O406 O 0.53967 0.02404 0.53667 0.0
Fe407 Fe 0.51017 0.05507 0.50636 0.0
C408 C 0.48785 0.97717 0.58547 0.0
O409 O 0.55519 0.94934 0.55177 0.0
O410 O 0.58619 0.99387 0.58271 0.0
O411 O 0.54905 0.04878 0.46972 0.0
O412 O 0.51563 0.04016 0.42071 0.0
O413 O 0.52639 0.96519 0.42835 0.0
O414 O 0.55987 0.96733 0.47862 0.0
O415 O 0.57668 0.07284 0.57205 0.0
O416 O 0.53992 0.09759 0.52941 0.0
C417 C 0.55525 0.95802 0.44571 0.0
O418 O 0.47511 0.08144 0.47094 0.0
O419 O 0.44407 0.0369 0.44006 0.0
O420 O 0.48133 0.98152 0.55287 0.0
O421 O 0.5146 0.99188 0.60187 0.0
C422 C 0.58203 0.96139 0.57219 0.0
C423 C 0.568 0.09741 0.55111 0.0
C424 C 0.47588 0.07394 0.57644 0.0
O425 O 0.5049 0.06691 0.59359 0.0
O426 O 0.47074 0.06366 0.54386 0.0
C427 C 0.54267 0.05406 0.43736 0.0
O428 O 0.45449 0.95785 0.44961 0.0
O429 O 0.49077 0.93313 0.49269 0.0
C430 C 0.44789 0.06926 0.45113 0.0
C431 C 0.46307 0.9332 0.4705 0.0
H432 H 0.19599 0.097 0.28053 0.0
H433 H 0.03371 0.03568 0.3871 0.0
H434 H 0.08471 0.1209 0.2552 0.0
H435 H 0.14631 0.02196 0.41491 0.0
H436 H 0.05025 0.04759 0.32661 0.0
H437 H 0.1764 0.04884 0.31365 0.0
C438 C 0.16744 0.09214 0.28136 0.0
C439 C 0.14192 0.11518 0.26742 0.0
C440 C 0.07123 0.04126 0.34582 0.0
C441 C 0.1194 0.06 0.30593 0.0
C442 C 0.06184 0.03478 0.38041 0.0
C443 C 0.0888 0.02928 0.40643 0.0
C444 C 0.10778 0.04236 0.33744 0.0
C445 C 0.1247 0.02739 0.39607 0.0
C446 C 0.15624 0.06434 0.30037 0.0
C447 C 0.10542 0.10566 0.26779 0.0
N448 N 0.13316 0.03446 0.36255 0.0
N449 N 0.09513 0.07954 0.28797 0.0
H450 H 0.7919 0.19161 0.37132 0.0
H451 H 0.98691 0.1107 0.41711 0.0
H452 H 0.88213 0.20006 0.303 0.0
H453 H 0.88921 0.08349 0.46768 0.0
H454 H 0.95147 0.14973 0.37943 0.0
H455 H 0.82947 0.15737 0.41104 0.0
C456 C 0.81955 0.18621 0.36459 0.0
C457 C 0.83368 0.1986 0.33357 0.0
C458 C 0.93794 0.13533 0.39898 0.0
C459 C 0.87719 0.15962 0.3793 0.0
C460 C 0.9582 0.11332 0.42062 0.0
C461 C 0.94096 0.09367 0.44538 0.0
C462 C 0.90036 0.13801 0.40263 0.0
C463 C 0.90359 0.09783 0.44866 0.0
C464 C 0.84107 0.16668 0.38732 0.0
C465 C 0.86991 0.19088 0.32645 0.0
N466 N 0.88467 0.11941 0.42763 0.0
N467 N 0.89038 0.17199 0.34911 0.0
H468 H 0.86964 0.82128 0.30031 0.0
H469 H 0.92826 0.86539 0.50426 0.0
H470 H 0.82584 0.7662 0.38586 0.0
H471 H 0.94872 0.92941 0.41673 0.0
H472 H 0.90058 0.82129 0.4617 0.0
H473 H 0.90965 0.85271 0.34292 0.0
C474 C 0.86867 0.81557 0.32812 0.0
C475 C 0.84396 0.79149 0.33962 0.0
C476 C 0.91158 0.84483 0.45192 0.0
C477 C 0.88955 0.82794 0.38892 0.0
C478 C 0.92741 0.86979 0.47608 0.0
C479 C 0.94029 0.901 0.46377 0.0
C480 C 0.90934 0.85124 0.41545 0.0
C481 C 0.93863 0.90578 0.4272 0.0
C482 C 0.89153 0.83359 0.35251 0.0
C483 C 0.84436 0.78476 0.37594 0.0
N484 N 0.92336 0.88128 0.40442 0.0
N485 N 0.86646 0.80332 0.39949 0.0
H486 H 0.13753 0.92497 0.24977 0.0
H487 H 0.02292 0.90203 0.41846 0.0
H488 H 0.11276 0.82227 0.28257 0.0
H489 H 0.12422 0.95547 0.41154 0.0
H490 H 0.02518 0.88504 0.35452 0.0
H491 H 0.09404 0.94911 0.2914 0.0
C492 C 0.12215 0.90729 0.2647 0.0
C493 C 0.1315 0.87198 0.26552 0.0
C494 C 0.04625 0.90122 0.36713 0.0
C495 C 0.08112 0.89917 0.31155 0.0
C496 C 0.04542 0.91037 0.40344 0.0
C497 C 0.07374 0.92984 0.42018 0.0
C498 C 0.0748 0.91289 0.34763 0.0
C499 C 0.10208 0.94025 0.39972 0.0
C500 C 0.09701 0.92111 0.2881 0.0
C501 C 0.10855 0.85005 0.28309 0.0
N502 N 0.1018 0.93176 0.36444 0.0
N503 N 0.08525 0.86419 0.30678 0.0
H504 H 0.17184 0.80635 0.72577 0.0
H505 H 0.16511 0.91308 0.54957 0.0
H506 H 0.26123 0.8146 0.65638 0.0
H507 H 0.06994 0.89292 0.60761 0.0
H508 H 0.19986 0.87603 0.58824 0.0
H509 H 0.13386 0.83744 0.68362 0.0
C510 C 0.18356 0.81472 0.7017 0.0
C511 C 0.21998 0.80795 0.69477 0.0
C512 C 0.17136 0.87933 0.59251 0.0
C513 C 0.17637 0.84355 0.64625 0.0
C514 C 0.15142 0.90052 0.57038 0.0
C515 C 0.11456 0.90622 0.57544 0.0
C516 C 0.15462 0.86387 0.62053 0.0
C517 C 0.09825 0.88906 0.60267 0.0
C518 C 0.16173 0.83234 0.67757 0.0
C519 C 0.23345 0.8193 0.663 0.0
N520 N 0.1185 0.86895 0.62452 0.0
N521 N 0.21173 0.83661 0.6401 0.0
H522 H 0.18454 0.18442 0.72184 0.0
H523 H 0.09476 0.14074 0.52925 0.0
H524 H 0.1908 0.25777 0.63946 0.0
H525 H 0.13848 0.06492 0.59929 0.0
H526 H 0.11733 0.1874 0.57179 0.0
H527 H 0.15264 0.14417 0.68004 0.0
C528 C 0.17883 0.1923 0.69506 0.0
C529 C 0.19086 0.22436 0.68403 0.0
C530 C 0.12185 0.16046 0.57755 0.0
C531 C 0.15439 0.17807 0.63584 0.0
C532 C 0.10905 0.13392 0.55339 0.0
C533 C 0.11515 0.09887 0.56047 0.0
C534 C 0.13986 0.15164 0.60921 0.0
C535 C 0.13361 0.09147 0.59229 0.0
C536 C 0.16072 0.1692 0.67115 0.0
C537 C 0.18224 0.23318 0.64899 0.0
N538 N 0.14507 0.11752 0.61541 0.0
N539 N 0.16475 0.20998 0.62593 0.0
H540 H 0.91059 0.10832 0.76052 0.0
H541 H 0.94387 0.11981 0.56882 0.0
H542 H 0.90736 0.20803 0.71332 0.0
H543 H 1.01209 0.05072 0.62727 0.0
H544 H 0.93432 0.15469 0.62381 0.0
H545 H 0.95512 0.08863 0.71749 0.0
C546 C 0.92014 0.12643 0.74194 0.0
C547 C 0.90394 0.15918 0.73933 0.0
C548 C 0.95206 0.13235 0.62455 0.0
C549 C 0.95427 0.13698 0.69032 0.0
C550 C 0.95699 0.11229 0.59335 0.0
C551 C 0.9782 0.08237 0.59408 0.0
C552 C 0.96741 0.12155 0.65671 0.0
C553 C 0.99526 0.07367 0.62612 0.0
C554 C 0.94568 0.11528 0.71755 0.0
C555 C 0.91817 0.18214 0.71568 0.0
N556 N 0.9887 0.09272 0.65661 0.0
N557 N 0.94164 0.17016 0.69114 0.0
H558 H 0.84078 0.92851 0.73755 0.0
H559 H 1.0154 0.9487 0.63224 0.0
H560 H 0.94315 0.88767 0.77221 0.0
H561 H 0.91622 1.0034 0.61073 0.0
H562 H 0.99461 0.93782 0.69163 0.0
H563 H 0.87171 0.968 0.70025 0.0
C564 C 0.86993 0.92854 0.73768 0.0
C565 C 0.88962 0.90466 0.75709 0.0
C566 C 0.97773 0.95286 0.67419 0.0
C567 C 0.92525 0.94855 0.71391 0.0
C568 C 0.98955 0.95895 0.64029 0.0
C569 C 0.96672 0.9756 0.61623 0.0
C570 C 0.94292 0.96344 0.68366 0.0
C571 C 0.93394 0.98911 0.6281 0.0
C572 C 0.88766 0.95102 0.71653 0.0
C573 C 0.92726 0.90569 0.75713 0.0
N574 N 0.92271 0.98216 0.66077 0.0
N575 N 0.94397 0.92667 0.73497 0.0
H576 H 0.33822 0.23235 0.18765 0.0
H577 H 0.37746 0.05877 0.07101 0.0
H578 H 0.26244 0.14732 0.1851 0.0
H579 H 0.45867 0.1266 0.12158 0.0
H580 H 0.33118 0.09237 0.10366 0.0
H581 H 0.37832 0.1965 0.15164 0.0
C582 C 0.32981 0.20617 0.1793 0.0
C583 C 0.29705 0.1927 0.18984 0.0
C584 C 0.35925 0.09951 0.1075 0.0
C585 C 0.34329 0.15125 0.1485 0.0
C586 C 0.38566 0.0804 0.089 0.0
C587 C 0.42215 0.08991 0.09319 0.0
C588 C 0.36955 0.12851 0.12972 0.0
C589 C 0.43107 0.11819 0.11697 0.0
C590 C 0.35287 0.18562 0.15882 0.0
C591 C 0.28758 0.15863 0.17773 0.0
N592 N 0.40505 0.13651 0.13393 0.0
N593 N 0.31075 0.13887 0.15776 0.0
H594 H 0.90479 0.25991 0.12283 0.0
H595 H 0.99435 0.447 0.1216 0.0
H596 H 0.927 0.32171 0.21975 0.0
H597 H 0.91336 0.40652 0.0457 0.0
H598 H 0.99049 0.39302 0.1534 0.0
H599 H 0.93268 0.3049 0.08924 0.0
C600 C 0.91688 0.28235 0.13705 0.0
C601 C 0.91319 0.28784 0.17374 0.0
C602 C 0.97383 0.39617 0.12967 0.0
C603 C 0.94444 0.33881 0.13606 0.0
C604 C 0.97564 0.42688 0.11188 0.0
C605 C 0.95344 0.43137 0.08165 0.0
C606 C 0.95043 0.36979 0.11637 0.0
C607 C 0.93021 0.40442 0.06948 0.0
C608 C 0.93244 0.308 0.118 0.0
C609 C 0.92896 0.31725 0.19126 0.0
N610 N 0.92937 0.37466 0.08689 0.0
N611 N 0.9435 0.34217 0.17212 0.0
H612 H 0.7243 0.90581 0.22062 0.0
H613 H 0.61445 0.89477 0.04065 0.0
H614 H 0.76999 0.86471 0.12352 0.0
H615 H 0.59366 0.97715 0.11982 0.0
H616 H 0.67032 0.88147 0.07271 0.0
H617 H 0.67633 0.93331 0.1858 0.0
C618 C 0.72471 0.90368 0.19185 0.0
C619 C 0.75071 0.88311 0.17466 0.0
C620 C 0.65356 0.90252 0.08299 0.0
C621 C 0.69581 0.91297 0.13503 0.0
C622 C 0.62137 0.90972 0.06509 0.0
C623 C 0.59917 0.93676 0.07795 0.0
C624 C 0.66331 0.92207 0.11427 0.0
C625 C 0.60991 0.95584 0.10927 0.0
C626 C 0.6974 0.91911 0.17206 0.0
C627 C 0.75036 0.88061 0.13749 0.0
N628 N 0.64117 0.94789 0.12665 0.0
N629 N 0.72269 0.8947 0.11879 0.0
H630 H 0.24128 0.67549 0.18352 0.0
H631 H 0.07893 0.65552 0.04564 0.0
H632 H 0.17103 0.76453 0.17581 0.0
H633 H 0.10778 0.57885 0.1211 0.0
H634 H 0.11649 0.69855 0.08127 0.0
H635 H 0.19926 0.64146 0.14504 0.0
C636 C 0.21729 0.6881 0.17333 0.0
C637 C 0.2095 0.72284 0.18328 0.0
C638 C 0.11393 0.67236 0.09001 0.0
C639 C 0.16123 0.68379 0.13913 0.0
C640 C 0.09241 0.64798 0.06996 0.0
C641 C 0.0908 0.61345 0.08013 0.0
C642 C 0.134 0.66158 0.11975 0.0
C643 C 0.10888 0.60494 0.11178 0.0
C644 C 0.19323 0.66857 0.15153 0.0
C645 C 0.1779 0.73771 0.16899 0.0
N646 N 0.13014 0.62858 0.13002 0.0
N647 N 0.15467 0.71801 0.14763 0.0
H648 H 0.36751 0.84372 0.78304 0.0
H649 H 0.37085 0.93993 0.97437 0.0
H650 H 0.2783 0.84135 0.85356 0.0
H651 H 0.44874 0.95757 0.895 0.0
H652 H 0.33197 0.9104 0.92817 0.0
H653 H 0.39431 0.89081 0.82123 0.0
C654 C 0.35342 0.85331 0.80633 0.0
C655 C 0.32092 0.83824 0.81536 0.0
C656 C 0.35716 0.92154 0.92068 0.0
C657 C 0.35143 0.89193 0.85934 0.0
C658 C 0.37907 0.93869 0.94699 0.0
C659 C 0.41296 0.95082 0.93832 0.0
C660 C 0.36965 0.91639 0.88584 0.0
C661 C 0.42279 0.94819 0.90264 0.0
C662 C 0.36863 0.88028 0.82811 0.0
C663 C 0.30364 0.85192 0.84574 0.0
N664 N 0.40157 0.93074 0.87782 0.0
N665 N 0.31933 0.87762 0.86688 0.0
H666 H 0.19394 0.29864 0.8481 0.0
H667 H 0.06268 0.46093 0.8872 0.0
H668 H 0.17954 0.37616 0.7703 0.0
H669 H 0.1238 0.40926 0.96797 0.0
H670 H 0.09446 0.42527 0.84111 0.0
H671 H 0.15726 0.33344 0.88892 0.0
C672 C 0.18284 0.32288 0.83931 0.0
C673 C 0.19019 0.33428 0.80541 0.0
C674 C 0.10065 0.42171 0.86896 0.0
C675 C 0.14731 0.37472 0.85283 0.0
C676 C 0.08229 0.4418 0.89525 0.0
C677 C 0.09045 0.43803 0.93159 0.0
C678 C 0.12666 0.3971 0.87916 0.0
C679 C 0.11657 0.41316 0.94039 0.0
C680 C 0.16188 0.34289 0.86288 0.0
C681 C 0.17477 0.3662 0.79607 0.0
N682 N 0.13338 0.39368 0.91459 0.0
N683 N 0.15403 0.38525 0.81957 0.0
H684 H 0.66868 0.23497 0.8472 0.0
H685 H 0.61778 0.04766 0.922 0.0
H686 H 0.72755 0.14179 0.81833 0.0
H687 H 0.5779 0.1457 0.96517 0.0
H688 H 0.65415 0.07959 0.88054 0.0
H689 H 0.6321 0.20152 0.88642 0.0
C690 C 0.67396 0.20744 0.84881 0.0
C691 C 0.70168 0.19165 0.82885 0.0
C692 C 0.63733 0.09414 0.899 0.0
C693 C 0.65882 0.15221 0.87467 0.0
C694 C 0.61624 0.07577 0.92273 0.0
C695 C 0.59419 0.09357 0.94767 0.0
C696 C 0.63645 0.13091 0.89943 0.0
C697 C 0.59417 0.13033 0.94689 0.0
C698 C 0.65293 0.18819 0.87154 0.0
C699 C 0.70679 0.15556 0.83291 0.0
N700 N 0.61452 0.14739 0.9235 0.0
N701 N 0.68574 0.13731 0.85495 0.0
H702 H 0.79386 0.67508 0.8279 0.0
H703 H 0.97141 0.63925 0.9475 0.0
H704 H 0.88183 0.74827 0.83829 0.0
H705 H 0.8737 0.57858 0.94508 0.0
H706 H 0.94129 0.67963 0.90731 0.0
H707 H 0.82525 0.63875 0.8697 0.0
C708 C 0.81986 0.68353 0.83893 0.0
C709 C 0.83516 0.71483 0.82949 0.0
C710 C 0.92658 0.65749 0.91583 0.0
C711 C 0.87159 0.67308 0.87783 0.0
C712 C 0.9437 0.63454 0.93885 0.0
C713 C 0.92529 0.60518 0.94949 0.0
C714 C 0.89092 0.65091 0.90351 0.0
C715 C 0.88938 0.60041 0.93733 0.0
C716 C 0.83783 0.66276 0.86298 0.0
C717 C 0.869 0.72433 0.84483 0.0
N718 N 0.87362 0.62279 0.91504 0.0
N719 N 0.88615 0.70351 0.86821 0.0
H720 H 0.1408 0.27385 0.18993 0.0
H721 H 0.15164 0.44055 0.07271 0.0
H722 H 0.23335 0.34067 0.18488 0.0
H723 H 0.05179 0.38574 0.08361 0.0
H724 H 0.18236 0.39931 0.10923 0.0
H725 H 0.10825 0.30999 0.14755 0.0
C726 C 0.15434 0.29597 0.17981 0.0
C727 C 0.18987 0.30432 0.1911 0.0
C728 C 0.15375 0.39603 0.10378 0.0
C729 C 0.15287 0.34551 0.14265 0.0
C730 C 0.13607 0.41971 0.08285 0.0
C731 C 0.0989 0.41695 0.07546 0.0
C732 C 0.13434 0.36913 0.11791 0.0
C733 C 0.08046 0.38886 0.08875 0.0
C734 C 0.1357 0.31657 0.1557 0.0
C735 C 0.20601 0.33327 0.17717 0.0
N736 N 0.09835 0.36611 0.1097 0.0
N737 N 0.18742 0.3527 0.1538 0.0
H738 H 0.20575 0.68755 0.88803 0.0
H739 H 0.02716 0.5976 0.92315 0.0
H740 H 0.10849 0.72275 0.83582 0.0
H741 H 0.12981 0.54484 0.92505 0.0
H742 H 0.05223 0.64086 0.8859 0.0
H743 H 0.17518 0.6348 0.90241 0.0
C744 C 0.17764 0.68415 0.88012 0.0
C745 C 0.15944 0.70912 0.86085 0.0
C746 C 0.06883 0.61912 0.89344 0.0
C747 C 0.12441 0.64885 0.87639 0.0
C748 C 0.05458 0.59439 0.91456 0.0
C749 C 0.07722 0.56881 0.92831 0.0
C750 C 0.10565 0.61784 0.88664 0.0
C751 C 0.11212 0.56519 0.91602 0.0
C752 C 0.1604 0.65388 0.88764 0.0
C753 C 0.12307 0.70401 0.85117 0.0
N754 N 0.12568 0.59012 0.89647 0.0
N755 N 0.10646 0.6742 0.85918 0.0
H756 H 0.33206 0.21881 0.87874 0.0
H757 H 0.42208 0.0408 0.93497 0.0
H758 H 0.2862 0.11868 0.84769 0.0
H759 H 0.46502 0.1431 0.96323 0.0
H760 H 0.37358 0.06753 0.90043 0.0
H761 H 0.38104 0.19037 0.91008 0.0
C762 C 0.33233 0.19069 0.87893 0.0
C763 C 0.30549 0.17089 0.86064 0.0
C764 C 0.39384 0.08401 0.91396 0.0
C765 C 0.36152 0.13798 0.89595 0.0
C766 C 0.4217 0.06881 0.93335 0.0
C767 C 0.44732 0.08989 0.95227 0.0
C768 C 0.39187 0.12039 0.91356 0.0
C769 C 0.44555 0.12595 0.94941 0.0
C770 C 0.36031 0.17442 0.89662 0.0
C771 C 0.30651 0.13463 0.8618 0.0
N772 N 0.41809 0.14005 0.93066 0.0
N773 N 0.33442 0.11916 0.87902 0.0
H774 H 0.86064 0.2536 0.84932 0.0
H775 H 0.91968 0.44379 0.90083 0.0
H776 H 0.78802 0.34139 0.84731 0.0
H777 H 0.94858 0.36854 0.9778 0.0
H778 H 0.88403 0.39969 0.86729 0.0
H779 H 0.90314 0.28937 0.88719 0.0
C780 C 0.85336 0.28008 0.8573 0.0
C781 C 0.82094 0.29473 0.8448 0.0
C782 C 0.89854 0.39273 0.89131 0.0
C783 C 0.86935 0.33528 0.88685 0.0
C784 C 0.91897 0.41774 0.91036 0.0
C785 C 0.93644 0.40987 0.94245 0.0
C786 C 0.89566 0.3595 0.9042 0.0
C787 C 0.93527 0.37552 0.9532 0.0
C788 C 0.87757 0.30029 0.87878 0.0
C789 C 0.81277 0.32906 0.85598 0.0
N790 N 0.91464 0.35138 0.9342 0.0
N791 N 0.83712 0.34834 0.8758 0.0
H792 H 0.67478 0.79496 0.82567 0.0
H793 H 0.65837 0.94531 0.97713 0.0
H794 H 0.7685 0.85446 0.86194 0.0
H795 H 0.57435 0.91767 0.8989 0.0
H796 H 0.70033 0.9079 0.94289 0.0
H797 H 0.63771 0.83314 0.86329 0.0
C798 C 0.68764 0.81569 0.84198 0.0
C799 C 0.72465 0.82181 0.84043 0.0
C800 C 0.67272 0.91047 0.93329 0.0
C801 C 0.68245 0.86569 0.88317 0.0
C802 C 0.64895 0.93199 0.95253 0.0
C803 C 0.61275 0.93424 0.94105 0.0
C804 C 0.65979 0.89101 0.90293 0.0
C805 C 0.60184 0.91624 0.90914 0.0
C806 C 0.66646 0.83767 0.86315 0.0
C807 C 0.73993 0.84912 0.86215 0.0
N808 N 0.62509 0.89507 0.89151 0.0
N809 N 0.71869 0.87025 0.88263 0.0
H810 H 0.81162 0.64498 0.23219 0.0
H811 H 0.97484 0.62126 0.09824 0.0
H812 H 0.86468 0.73273 0.19034 0.0
H813 H 0.88963 0.54613 0.10305 0.0
H814 H 0.94342 0.65953 0.14184 0.0
H815 H 0.84838 0.60581 0.19468 0.0
C816 C 0.83121 0.65607 0.21538 0.0
C817 C 0.8348 0.69235 0.2144 0.0
C818 C 0.93188 0.63447 0.13362 0.0
C819 C 0.87753 0.64734 0.17154 0.0
C820 C 0.94999 0.61246 0.10901 0.0
C821 C 0.93494 0.58032 0.09695 0.0
C822 C 0.89886 0.624 0.1469 0.0
C823 C 0.90227 0.57062 0.1115 0.0
C824 C 0.85213 0.63363 0.19386 0.0
C825 C 0.86074 0.70501 0.1919 0.0
N826 N 0.88548 0.59221 0.13564 0.0
N827 N 0.88113 0.68262 0.17152 0.0
H828 H 0.37091 0.78239 0.18581 0.0
H829 H 0.41505 0.97162 0.11131 0.0
H830 H 0.30422 0.87231 0.20705 0.0
H831 H 0.46598 0.87631 0.07443 0.0
H832 H 0.37805 0.93773 0.15056 0.0
H833 H 0.40891 0.81755 0.1492 0.0
C834 C 0.3641 0.80948 0.18293 0.0
C835 C 0.33376 0.82392 0.19984 0.0
C836 C 0.39749 0.92424 0.13402 0.0
C837 C 0.37822 0.86524 0.15751 0.0
C838 C 0.41895 0.94375 0.11165 0.0
C839 C 0.44419 0.92725 0.08909 0.0
C840 C 0.40121 0.88767 0.13455 0.0
C841 C 0.44714 0.89068 0.09094 0.0
C842 C 0.38598 0.82972 0.16184 0.0
C843 C 0.32697 0.85956 0.19468 0.0
N844 N 0.4263 0.8725 0.11294 0.0
N845 N 0.3488 0.87873 0.17434 0.0
H846 H 0.77038 0.17964 0.17155 0.0
H847 H 0.59107 0.06688 0.14314 0.0
H848 H 0.68562 0.1774 0.24715 0.0
H849 H 0.66558 0.08087 0.0598 0.0
H850 H 0.63294 0.09638 0.1858 0.0
H851 H 0.73898 0.13451 0.13452 0.0
C852 C 0.74528 0.16949 0.18053 0.0
C853 C 0.73036 0.18266 0.21235 0.0
C854 C 0.64057 0.09251 0.15837 0.0
C855 C 0.69448 0.13078 0.17008 0.0
C856 C 0.61682 0.07541 0.13409 0.0
C857 C 0.62495 0.07168 0.098 0.0
C858 C 0.67252 0.10648 0.14639 0.0
C859 C 0.65851 0.08315 0.08749 0.0
C860 C 0.72744 0.14368 0.15934 0.0
C861 C 0.69794 0.16831 0.22269 0.0
N862 N 0.68092 0.10066 0.11154 0.0
N863 N 0.681 0.14332 0.20151 0.0
H864 H 0.7218 0.63404 0.8025 0.0
H865 H 0.53959 0.56307 0.87625 0.0
H866 H 0.61828 0.65939 0.75598 0.0
H867 H 0.64591 0.52805 0.90709 0.0
H868 H 0.56604 0.59429 0.82809 0.0
H869 H 0.69326 0.59117 0.83748 0.0
C870 C 0.69296 0.63032 0.79963 0.0
C871 C 0.67222 0.65038 0.77681 0.0
C872 C 0.5834 0.5793 0.84512 0.0
C873 C 0.63904 0.60159 0.81695 0.0
C874 C 0.56833 0.56146 0.87248 0.0
C875 C 0.59073 0.5436 0.89605 0.0
C876 C 0.62097 0.57903 0.84154 0.0
C877 C 0.62774 0.54219 0.89003 0.0
C878 C 0.67661 0.60576 0.81944 0.0
C879 C 0.63504 0.6443 0.77345 0.0
N880 N 0.64167 0.55993 0.86366 0.0
N881 N 0.61942 0.62073 0.79381 0.0
H882 H 0.38549 0.68713 0.79596 0.0
H883 H 0.40569 0.6183 0.99334 0.0
H884 H 0.30523 0.7021 0.87559 0.0
H885 H 0.4837 0.59582 0.91289 0.0
H886 H 0.37221 0.65416 0.95221 0.0
H887 H 0.42397 0.65756 0.83905 0.0
C888 C 0.37585 0.68419 0.82246 0.0
C889 C 0.34179 0.69713 0.83193 0.0
C890 C 0.39686 0.64179 0.94357 0.0
C891 C 0.38624 0.66337 0.88181 0.0
C892 C 0.41629 0.62143 0.96724 0.0
C893 C 0.44778 0.60378 0.9568 0.0
C894 C 0.40862 0.64467 0.90878 0.0
C895 C 0.45985 0.60903 0.92243 0.0
C896 C 0.39798 0.66734 0.84713 0.0
C897 C 0.33107 0.69253 0.86685 0.0
N898 N 0.4401 0.62863 0.89961 0.0
N899 N 0.35311 0.67612 0.89034 0.0
H900 H 0.35257 0.36525 0.76728 0.0
H901 H 0.38798 0.43642 0.96802 0.0
H902 H 0.32164 0.30906 0.85757 0.0
H903 H 0.44634 0.47419 0.8806 0.0
H904 H 0.35944 0.39263 0.92723 0.0
H905 H 0.38442 0.40741 0.8077 0.0
C906 C 0.35284 0.36153 0.79559 0.0
C907 C 0.3344 0.33353 0.80905 0.0
C908 C 0.37844 0.41054 0.91697 0.0
C909 C 0.3702 0.3822 0.85552 0.0
C910 C 0.39454 0.43584 0.94019 0.0
C911 C 0.41955 0.45931 0.92779 0.0
C912 C 0.38703 0.40876 0.8809 0.0
C913 C 0.42718 0.45681 0.89142 0.0
C914 C 0.37097 0.38567 0.81865 0.0
C915 C 0.33561 0.33012 0.84599 0.0
N916 N 0.41091 0.43209 0.86927 0.0
N917 N 0.35285 0.35437 0.86795 0.0
H918 H 0.63498 0.28424 0.82509 0.0
H919 H 0.50746 0.42663 0.91108 0.0
H920 H 0.6057 0.37926 0.77582 0.0
H921 H 0.60486 0.38804 0.96075 0.0
H922 H 0.51447 0.38388 0.86146 0.0
H923 H 0.59261 0.29807 0.87174 0.0
C924 C 0.61837 0.30718 0.82305 0.0
C925 C 0.62445 0.33125 0.79711 0.0
C926 C 0.53326 0.38384 0.88406 0.0
C927 C 0.57584 0.34663 0.85 0.0
C928 C 0.52945 0.40815 0.91235 0.0
C929 C 0.5563 0.4113 0.93948 0.0
C930 C 0.56351 0.36221 0.88363 0.0
C931 C 0.58413 0.38682 0.93986 0.0
C932 C 0.59423 0.31494 0.84973 0.0
C933 C 0.60224 0.36056 0.79588 0.0
N934 N 0.58735 0.36349 0.91189 0.0
N935 N 0.57928 0.3679 0.82256 0.0
H936 H 0.68147 0.33725 0.24415 0.0
H937 H 0.66818 0.43879 0.06372 0.0
H938 H 0.76239 0.33125 0.16445 0.0
H939 H 0.58809 0.44871 0.14417 0.0
H940 H 0.70275 0.40007 0.10071 0.0
H941 H 0.64723 0.37801 0.20863 0.0
C942 C 0.69215 0.34446 0.21917 0.0
C943 C 0.72505 0.33055 0.20737 0.0
C944 C 0.67769 0.4107 0.11044 0.0
C945 C 0.68554 0.37764 0.16631 0.0
C946 C 0.65773 0.43297 0.08925 0.0
C947 C 0.62483 0.44729 0.10059 0.0
C948 C 0.66496 0.40221 0.14355 0.0
C949 C 0.61321 0.43854 0.13417 0.0
C950 C 0.67247 0.36786 0.19888 0.0
C951 C 0.73727 0.34113 0.17473 0.0
N952 N 0.63314 0.41653 0.15433 0.0
N953 N 0.71755 0.3639 0.15541 0.0
H954 H 0.71786 0.73993 0.15471 0.0
H955 H 0.65599 0.60003 0.04313 0.0
H956 H 0.66328 0.68561 0.23452 0.0
H957 H 0.56671 0.59824 0.11367 0.0
H958 H 0.68327 0.64684 0.08151 0.0
H959 H 0.68601 0.70372 0.10836 0.0
C960 C 0.69876 0.72077 0.1625 0.0
C961 C 0.69342 0.71563 0.19861 0.0
C962 C 0.6573 0.63674 0.08808 0.0
C963 C 0.65741 0.67372 0.1457 0.0
C964 C 0.6418 0.60982 0.06627 0.0
C965 C 0.60894 0.59502 0.07502 0.0
C966 C 0.64008 0.64864 0.11917 0.0
C967 C 0.59197 0.60877 0.10559 0.0
C968 C 0.68098 0.6998 0.13601 0.0
C969 C 0.66842 0.69032 0.20706 0.0
N970 N 0.60801 0.63431 0.12679 0.0
N971 N 0.65138 0.67033 0.18083 0.0
H972 H 0.39884 0.61939 0.28916 0.0
H973 H 0.46688 0.61366 0.10317 0.0
H974 H 0.41537 0.71181 0.23198 0.0
H975 H 0.49015 0.53033 0.17243 0.0
H976 H 0.46078 0.65349 0.15496 0.0
H977 H 0.44662 0.59052 0.25592 0.0
C978 C 0.41332 0.63396 0.27041 0.0
C979 C 0.40169 0.66721 0.26168 0.0
C980 C 0.46781 0.62666 0.15906 0.0
C981 C 0.45581 0.63451 0.22348 0.0
C982 C 0.47066 0.60386 0.12947 0.0
C983 C 0.47757 0.56863 0.13387 0.0
C984 C 0.47059 0.61379 0.19326 0.0
C985 C 0.48378 0.5573 0.16825 0.0
C986 C 0.44073 0.61755 0.25151 0.0
C987 C 0.42241 0.68561 0.23855 0.0
N988 N 0.47911 0.57968 0.19684 0.0
N989 N 0.44772 0.66856 0.21924 0.0
H990 H 0.41827 0.34708 0.24766 0.0
H991 H 0.41741 0.40984 0.04925 0.0
H992 H 0.32752 0.34199 0.17307 0.0
H993 H 0.5067 0.4287 0.12352 0.0
H994 H 0.39039 0.37212 0.09093 0.0
H995 H 0.45569 0.36779 0.2006 0.0
C996 C 0.40618 0.35028 0.22153 0.0
C997 C 0.36961 0.3427 0.21441 0.0
C998 C 0.41625 0.38387 0.09799 0.0
C999 C 0.41236 0.36554 0.16042 0.0
C1000 C 0.43183 0.40504 0.07398 0.0
C1001 C 0.4641 0.42237 0.08319 0.0
C1002 C 0.43265 0.38074 0.1318 0.0
C1003 C 0.48177 0.41556 0.11553 0.0
C1004 C 0.42765 0.36173 0.1946 0.0
C1005 C 0.35558 0.34688 0.17986 0.0
N1006 N 0.46537 0.39582 0.13918 0.0
N1007 N 0.37691 0.35804 0.15433 0.0
H1008 H 0.79147 0.70096 0.66131 0.0
H1009 H 0.98584 0.66081 0.58497 0.0
H1010 H 0.88531 0.76306 0.69094 0.0
H1011 H 0.89379 0.5931 0.5706 0.0
H1012 H 0.94686 0.70622 0.61168 0.0
H1013 H 0.82598 0.66917 0.61637 0.0
C1014 C 0.81933 0.70808 0.6582 0.0
C1015 C 0.83575 0.73423 0.6804 0.0
C1016 C 0.9351 0.68169 0.60193 0.0
C1017 C 0.87562 0.69766 0.62898 0.0
C1018 C 0.95724 0.65598 0.58644 0.0
C1019 C 0.94288 0.62326 0.57601 0.0
C1020 C 0.89854 0.67439 0.60664 0.0
C1021 C 0.90584 0.61797 0.57873 0.0
C1022 C 0.83903 0.68995 0.63243 0.0
C1023 C 0.87175 0.74276 0.67466 0.0
N1024 N 0.88503 0.64312 0.59411 0.0
N1025 N 0.8907 0.72414 0.64982 0.0
H1026 H 0.42586 0.81562 0.72021 0.0
H1027 H 0.43973 0.93094 0.55341 0.0
H1028 H 0.39506 0.77847 0.61384 0.0
H1029 H 0.49802 0.95497 0.65283 0.0
H1030 H 0.42033 0.87635 0.57622 0.0
H1031 H 0.45294 0.86696 0.69652 0.0
C1032 C 0.42587 0.81804 0.6917 0.0
C1033 C 0.40857 0.79318 0.66873 0.0
C1034 C 0.43735 0.8936 0.59301 0.0
C1035 C 0.43794 0.8519 0.64156 0.0
C1036 C 0.44809 0.925 0.58023 0.0
C1037 C 0.4707 0.94753 0.60123 0.0
C1038 C 0.44894 0.88486 0.62716 0.0
C1039 C 0.48064 0.93839 0.63572 0.0
C1040 C 0.44095 0.84731 0.67821 0.0
C1041 C 0.40861 0.79716 0.6321 0.0
N1042 N 0.46971 0.90765 0.64761 0.0
N1043 N 0.42258 0.82646 0.61954 0.0
H1044 H 0.27227 0.42924 0.62127 0.0
H1045 H 0.07732 0.48554 0.6645 0.0
H1046 H 0.22389 0.42111 0.72317 0.0
H1047 H 0.12607 0.48989 0.5623 0.0
H1048 H 0.13748 0.48307 0.69258 0.0
H1049 H 0.22868 0.47432 0.60735 0.0
C1050 C 0.25311 0.43748 0.64107 0.0
C1051 C 0.25025 0.41967 0.67235 0.0
C1052 C 0.13496 0.48512 0.66405 0.0
C1053 C 0.20009 0.47059 0.65652 0.0
C1054 C 0.10063 0.48608 0.64802 0.0
C1055 C 0.09673 0.48596 0.61089 0.0
C1056 C 0.16535 0.48375 0.64267 0.0
C1057 C 0.12779 0.48819 0.5909 0.0
C1058 C 0.22822 0.46328 0.63318 0.0
C1059 C 0.22622 0.43277 0.69791 0.0
N1060 N 0.16075 0.48633 0.60697 0.0
N1061 N 0.20116 0.45661 0.6889 0.0
H1062 H 0.66872 0.25328 0.68095 0.0
H1063 H 0.63828 0.0977 0.53624 0.0
H1064 H 0.74445 0.16976 0.66085 0.0
H1065 H 0.55319 0.16309 0.57691 0.0
H1066 H 0.68267 0.13663 0.56647 0.0
H1067 H 0.63186 0.2315 0.63003 0.0
C1068 C 0.6778 0.23044 0.66569 0.0
C1069 C 0.70948 0.21288 0.67561 0.0
C1070 C 0.65436 0.14314 0.56787 0.0
C1071 C 0.66734 0.18814 0.61693 0.0
C1072 C 0.6291 0.12127 0.55021 0.0
C1073 C 0.59223 0.12734 0.55436 0.0
C1074 C 0.64249 0.17097 0.59003 0.0
C1075 C 0.58146 0.15778 0.57301 0.0
C1076 C 0.65673 0.21817 0.6365 0.0
C1077 C 0.71999 0.18377 0.65449 0.0
N1078 N 0.60655 0.17818 0.59093 0.0
N1079 N 0.69875 0.17209 0.62629 0.0
H1080 H 0.86566 0.35158 0.2836 0.0
H1081 H 0.91747 0.42826 0.47884 0.0
H1082 H 0.79898 0.3355 0.37302 0.0
H1083 H 0.96623 0.4605 0.38345 0.0
H1084 H 0.87191 0.39603 0.44158 0.0
H1085 H 0.90154 0.39312 0.32051 0.0
C1086 C 0.85842 0.35701 0.31098 0.0
C1087 C 0.82946 0.33993 0.32533 0.0
C1088 C 0.89242 0.41051 0.42894 0.0
C1089 C 0.87072 0.38728 0.36802 0.0
C1090 C 0.91835 0.42889 0.45017 0.0
C1091 C 0.94613 0.44642 0.4342 0.0
C1092 C 0.8945 0.40976 0.39168 0.0
C1093 C 0.94586 0.44663 0.39694 0.0
C1094 C 0.87887 0.38082 0.33208 0.0
C1095 C 0.82116 0.34812 0.36094 0.0
N1096 N 0.92077 0.4283 0.37703 0.0
N1097 N 0.842 0.37094 0.38126 0.0
H1098 H 0.69082 0.85563 0.28559 0.0
H1099 H 0.60593 0.91303 0.47351 0.0
H1100 H 0.69674 0.78992 0.37472 0.0
H1101 H 0.56744 0.95213 0.37411 0.0
H1102 H 0.64655 0.87332 0.44034 0.0
H1103 H 0.65252 0.89621 0.31983 0.0
C1104 C 0.68411 0.84965 0.31236 0.0
C1105 C 0.69703 0.81899 0.32704 0.0
C1106 C 0.62934 0.89075 0.42585 0.0
C1107 C 0.65337 0.86612 0.36696 0.0
C1108 C 0.60633 0.91369 0.44481 0.0
C1109 C 0.58307 0.93618 0.42672 0.0
C1110 C 0.62977 0.89062 0.38845 0.0
C1111 C 0.58468 0.93534 0.38935 0.0
C1112 C 0.66215 0.87291 0.33193 0.0
C1113 C 0.68729 0.81297 0.36205 0.0
N1114 N 0.60756 0.91322 0.37163 0.0
N1115 N 0.66635 0.83631 0.3808 0.0
H1116 H 0.23677 0.67083 0.3285 0.0
H1117 H 0.06223 0.65105 0.45014 0.0
H1118 H 0.1594 0.75375 0.3412 0.0
H1119 H 0.13863 0.56969 0.42514 0.0
H1120 H 0.09731 0.6907 0.41468 0.0
H1121 H 0.20157 0.63573 0.36672 0.0
C1122 C 0.21236 0.6819 0.33928 0.0
C1123 C 0.2015 0.71577 0.33106 0.0
C1124 C 0.10647 0.6642 0.41718 0.0
C1125 C 0.16001 0.67461 0.37615 0.0
C1126 C 0.0865 0.64149 0.4378 0.0
C1127 C 0.09706 0.60647 0.44114 0.0
C1128 C 0.13765 0.65219 0.39969 0.0
C1129 C 0.12881 0.59609 0.42369 0.0
C1130 C 0.19204 0.66158 0.36137 0.0
C1131 C 0.16921 0.72797 0.34642 0.0
N1132 N 0.14752 0.61846 0.40411 0.0
N1133 N 0.14981 0.7076 0.36802 0.0
H1134 H 0.34125 0.23675 0.34523 0.0
H1135 H 0.37892 0.05362 0.42945 0.0
H1136 H 0.26712 0.15042 0.33514 0.0
H1137 H 0.45305 0.13981 0.4416 0.0
H1138 H 0.33559 0.09061 0.39971 0.0
H1139 H 0.38009 0.20366 0.38449 0.0
C1140 C 0.33296 0.21087 0.35142 0.0
C1141 C 0.30085 0.19628 0.33657 0.0
C1142 C 0.36116 0.10163 0.40909 0.0
C1143 C 0.34558 0.15811 0.38172 0.0
C1144 C 0.38603 0.08049 0.42614 0.0
C1145 C 0.41998 0.09348 0.43778 0.0
C1146 C 0.37014 0.13616 0.40322 0.0
C1147 C 0.42729 0.12866 0.43309 0.0
C1148 C 0.35524 0.192 0.37393 0.0
C1149 C 0.29159 0.16271 0.34582 0.0
N1150 N 0.40274 0.14867 0.41581 0.0
N1151 N 0.31395 0.14471 0.36758 0.0
H1152 H 0.75873 0.8813 0.69929 0.0
H1153 H 0.57543 0.89078 0.5806 0.0
H1154 H 0.68358 0.79619 0.68331 0.0
H1155 H 0.6495 0.97643 0.59939 0.0
H1156 H 0.61721 0.85388 0.61366 0.0
H1157 H 0.72113 0.9152 0.65909 0.0
C1158 C 0.73444 0.8697 0.68731 0.0
C1159 C 0.7243 0.83589 0.69494 0.0
C1160 C 0.62441 0.8807 0.61026 0.0
C1161 C 0.68105 0.87451 0.64875 0.0
C1162 C 0.60064 0.9017 0.59114 0.0
C1163 C 0.60871 0.93689 0.5874 0.0
C1164 C 0.6565 0.89496 0.62566 0.0
C1165 C 0.64181 0.9496 0.60191 0.0
C1166 C 0.71295 0.88904 0.6643 0.0
C1167 C 0.69249 0.8222 0.67843 0.0
N1168 N 0.66425 0.9288 0.6205 0.0
N1169 N 0.67203 0.84153 0.6563 0.0
H1170 H 0.62863 0.20739 0.30574 0.0
H1171 H 0.59304 0.09693 0.47047 0.0
H1172 H 0.65135 0.24564 0.41358 0.0
H1173 H 0.53364 0.07869 0.37066 0.0
H1174 H 0.61718 0.14999 0.44869 0.0
H1175 H 0.59339 0.15994 0.3278 0.0
C1176 C 0.62528 0.20608 0.3341 0.0
C1177 C 0.64275 0.22996 0.35808 0.0
C1178 C 0.59878 0.13444 0.4316 0.0
C1179 C 0.60385 0.17575 0.38343 0.0
C1180 C 0.58529 0.10387 0.44381 0.0
C1181 C 0.5612 0.0833 0.42232 0.0
C1182 C 0.58863 0.14428 0.39746 0.0
C1183 C 0.55219 0.09372 0.38805 0.0
C1184 C 0.6054 0.1791 0.34665 0.0
C1185 C 0.63799 0.2276 0.39449 0.0
N1186 N 0.56606 0.12354 0.37658 0.0
N1187 N 0.61946 0.20039 0.40622 0.0
H1188 H 0.76383 0.62512 0.40945 0.0
H1189 H 0.95832 0.5439 0.37905 0.0
H1190 H 0.81086 0.6092 0.30684 0.0
H1191 H 0.91346 0.56772 0.48199 0.0
H1192 H 0.89951 0.55579 0.3512 0.0
H1193 H 0.81227 0.59023 0.43534 0.0
C1194 C 0.78374 0.61326 0.39227 0.0
C1195 C 0.78405 0.62042 0.35628 0.0
C1196 C 0.90256 0.55813 0.37991 0.0
C1197 C 0.8397 0.58156 0.3854 0.0
C1198 C 0.93619 0.55163 0.39577 0.0
C1199 C 0.94111 0.55569 0.43282 0.0
C1200 C 0.87377 0.56878 0.40128 0.0
C1201 C 0.91122 0.56493 0.45326 0.0
C1202 C 0.81158 0.5937 0.40699 0.0
C1203 C 0.81037 0.60468 0.33494 0.0
N1204 N 0.87898 0.5715 0.43719 0.0
N1205 N 0.8376 0.5865 0.34993 0.0
H1206 H 0.36338 0.77052 0.3463 0.0
H1207 H 0.3924 0.93287 0.48365 0.0
H1208 H 0.28647 0.85364 0.36298 0.0
H1209 H 0.47855 0.86717 0.44581 0.0
H1210 H 0.34866 0.89249 0.45462 0.0
H1211 H 0.40076 0.79562 0.39544 0.0
C1212 C 0.35414 0.79393 0.36048 0.0
C1213 C 0.32194 0.81037 0.35011 0.0
C1214 C 0.37706 0.8863 0.45352 0.0
C1215 C 0.36465 0.83893 0.40669 0.0
C1216 C 0.40196 0.90903 0.47048 0.0
C1217 C 0.43893 0.90316 0.46693 0.0
C1218 C 0.38938 0.85777 0.43257 0.0
C1219 C 0.45019 0.87233 0.44928 0.0
C1220 C 0.37552 0.80813 0.38861 0.0
C1221 C 0.31129 0.84039 0.36974 0.0
N1222 N 0.42543 0.85102 0.43203 0.0
N1223 N 0.33276 0.85388 0.39694 0.0
H1224 H 0.23764 0.34104 0.355 0.0
H1225 H 0.05214 0.37241 0.45333 0.0
H1226 H 0.14693 0.27144 0.34011 0.0
H1227 H 0.14519 0.43865 0.46864 0.0
H1228 H 0.08873 0.32992 0.41923 0.0
H1229 H 0.20625 0.37288 0.40244 0.0
C1230 C 0.21112 0.33241 0.36172 0.0
C1231 C 0.19478 0.30374 0.34323 0.0
C1232 C 0.10135 0.35338 0.43079 0.0
C1233 C 0.1585 0.34014 0.3978 0.0
C1234 C 0.08058 0.37735 0.45067 0.0
C1235 C 0.09575 0.40899 0.46369 0.0
C1236 C 0.13736 0.36136 0.42397 0.0
C1237 C 0.13252 0.41454 0.45889 0.0
C1238 C 0.19322 0.35051 0.389 0.0
C1239 C 0.16047 0.29355 0.35347 0.0
N1240 N 0.15191 0.39124 0.43906 0.0
N1241 N 0.14335 0.31191 0.37983 0.0
H1242 H 0.35045 0.18679 0.73727 0.0
H1243 H 0.42266 0.11587 0.54766 0.0
H1244 H 0.32879 0.24075 0.64152 0.0
H1245 H 0.46767 0.08545 0.64826 0.0
H1246 H 0.38295 0.15721 0.57993 0.0
H1247 H 0.38863 0.14574 0.70383 0.0
C1248 C 0.3538 0.19018 0.7092 0.0
C1249 C 0.33636 0.21764 0.69241 0.0
C1250 C 0.40143 0.14135 0.59489 0.0
C1251 C 0.38001 0.16977 0.6534 0.0
C1252 C 0.42394 0.11747 0.57647 0.0
C1253 C 0.44872 0.09687 0.59511 0.0
C1254 C 0.40316 0.14443 0.63236 0.0
C1255 C 0.44922 0.10064 0.63255 0.0
C1256 C 0.37568 0.16659 0.69005 0.0
C1257 C 0.34185 0.2203 0.65579 0.0
N1258 N 0.4269 0.12367 0.64974 0.0
N1259 N 0.36291 0.19664 0.63754 0.0
H1260 H 0.79341 0.35683 0.70536 0.0
H1261 H 0.97072 0.37939 0.58724 0.0
H1262 H 0.86861 0.27287 0.68751 0.0
H1263 H 0.89943 0.4628 0.61967 0.0
H1264 H 0.93336 0.33885 0.61937 0.0
H1265 H 0.83079 0.39403 0.6708 0.0
C1266 C 0.81771 0.34594 0.69415 0.0
C1267 C 0.82729 0.31111 0.69985 0.0
C1268 C 0.92582 0.36603 0.6193 0.0
C1269 C 0.87134 0.35471 0.65908 0.0
C1270 C 0.94718 0.38934 0.60062 0.0
C1271 C 0.93879 0.4252 0.60022 0.0
C1272 C 0.89527 0.37817 0.63782 0.0
C1273 C 0.9077 0.43581 0.61881 0.0
C1274 C 0.83931 0.36747 0.67423 0.0
C1275 C 0.85963 0.2993 0.68419 0.0
N1276 N 0.88755 0.41281 0.63642 0.0
N1277 N 0.88018 0.32078 0.66474 0.0
H1278 H 0.25863 0.67632 0.66085 0.0
H1279 H 0.07275 0.57166 0.65979 0.0
H1280 H 0.19791 0.65904 0.75401 0.0
H1281 H 0.12585 0.59449 0.56351 0.0
H1282 H 0.12335 0.59666 0.6946 0.0
H1283 H 0.21578 0.63943 0.62513 0.0
C1284 C 0.23678 0.66418 0.67394 0.0
C1285 C 0.23173 0.67099 0.71047 0.0
C1286 C 0.12411 0.59624 0.66587 0.0
C1287 C 0.18246 0.62914 0.66972 0.0
C1288 C 0.09504 0.58206 0.64587 0.0
C1289 C 0.09458 0.58159 0.60856 0.0
C1290 C 0.15316 0.61043 0.64866 0.0
C1291 C 0.12481 0.59468 0.5922 0.0
C1292 C 0.21218 0.64335 0.65347 0.0
C1293 C 0.20277 0.65477 0.72592 0.0
N1294 N 0.15273 0.60892 0.61236 0.0
N1295 N 0.17918 0.6349 0.70547 0.0
loop_
_geom_bond_atom_site_label_1
_geom_bond_atom_site_label_2
_geom_bond_distance
_geom_bond_site_symmetry_2
_ccdc_geom_bond_type
Co0 N5 2.057 . S
Co0 O17 2.021 . S
Co0 O20 2.062 . S
Co0 O24 2.117 . S
Co0 O25 2.020 . S
C1 O21 1.259 . S
C1 O24 1.258 . S
Co2 N11 2.057 . S
Co2 O18 2.117 . S
Co2 O19 2.020 . S
Co2 O21 2.021 . S
Co2 O26 2.062 . S
C3 N5 1.316 . S
C3 N6 1.347 . S
C3 H8 0.931 . S
C4 N5 1.375 . S
C4 C7 1.350 . S
C4 H9 0.930 . S
N5 Co0 2.057 . S
N5 C3 1.316 . S
N5 C4 1.375 . S
N6 C3 1.347 . S
N6 C7 1.373 . S
C7 C4 1.350 . S
C7 N6 1.373 . S
C7 H28 0.931 . S
H8 C3 0.931 . S
H9 C4 0.930 . S
C10 O17 1.259 . S
C10 O18 1.258 . S
N11 Co2 2.057 . S
N11 C12 1.316 . S
N11 C13 1.375 . S
C12 N11 1.316 . S
C12 N14 1.347 . S
C12 H23 0.931 . S
C13 N11 1.375 . S
C13 C15 1.350 . S
C13 H22 0.930 . S
N14 C12 1.347 . S
N14 C15 1.373 . S
C15 C13 1.350 . S
C15 N14 1.373 . S
C15 H29 0.931 . S
C16 O19 1.256 . S
C16 O20 1.255 . S
O17 Co0 2.021 . S
O17 C10 1.259 . S
O18 Co2 2.117 . S
O18 C10 1.258 . S
O19 Co2 2.020 . S
O19 C16 1.256 . S
O20 Co0 2.062 . S
O20 C16 1.255 . S
O21 C1 1.259 . S
O21 Co2 2.021 . S
H22 C13 0.930 . S
H23 C12 0.931 . S
O24 Co0 2.117 . S
O24 C1 1.258 . S
O25 Co0 2.020 . S
O25 C27 1.256 . S
O26 Co2 2.062 . S
O26 C27 1.255 . S
C27 O25 1.256 . S
C27 O26 1.255 . S
H28 C7 0.931 . S
H29 C15 0.931 . S
Co30 N35 2.057 . S
Co30 O47 2.021 . S
Co30 O50 2.062 . S
Co30 O54 2.117 . S
Co30 O55 2.020 . S
C31 O51 1.259 . S
C31 O54 1.258 . S
Co32 N41 2.057 . S
Co32 O48 2.117 . S
Co32 O49 2.020 . S
Co32 O51 2.021 . S
Co32 O56 2.062 . S
C33 N35 1.316 . S
C33 N36 1.347 . S
C33 H38 0.931 . S
C34 N35 1.375 . S
C34 C37 1.350 . S
C34 H39 0.930 . S
N35 Co30 2.057 . S
N35 C33 1.316 . S
N35 C34 1.375 . S
N36 C33 1.347 . S
N36 C37 1.373 . S
C37 C34 1.350 . S
C37 N36 1.373 . S
C37 H58 0.931 . S
H38 C33 0.931 . S
H39 C34 0.930 . S
C40 O47 1.259 . S
C40 O48 1.258 . S
N41 Co32 2.057 . S
N41 C42 1.316 . S
N41 C43 1.375 . S
C42 N41 1.316 . S
C42 N44 1.347 . S
C42 H53 0.931 . S
C43 N41 1.375 . S
C43 C45 1.350 . S
C43 H52 0.930 . S
N44 C42 1.347 . S
N44 C45 1.373 . S
C45 C43 1.350 . S
C45 N44 1.373 . S
C45 H59 0.931 . S
C46 O49 1.256 . S
C46 O50 1.255 . S
O47 Co30 2.021 . S
O47 C40 1.259 . S
O48 Co32 2.117 . S
O48 C40 1.258 . S
O49 Co32 2.020 . S
O49 C46 1.256 . S
O50 Co30 2.062 . S
O50 C46 1.255 . S
O51 C31 1.259 . S
O51 Co32 2.021 . S
H52 C43 0.930 . S
H53 C42 0.931 . S
O54 Co30 2.117 . S
O54 C31 1.258 . S
O55 Co30 2.020 . S
O55 C57 1.256 . S
O56 Co32 2.062 . S
O56 C57 1.255 . S
C57 O55 1.256 . S
C57 O56 1.255 . S
H58 C37 0.931 . S
H59 C45 0.931 . S
Co60 N65 2.057 . S
Co60 O77 2.021 . S
Co60 O80 2.062 . S
Co60 O84 2.117 . S
Co60 O85 2.020 . S
C61 O81 1.259 . S
C61 O84 1.258 . S
Co62 N71 2.057 . S
Co62 O78 2.117 . S
Co62 O79 2.020 . S
Co62 O81 2.021 . S
Co62 O86 2.062 . S
C63 N65 1.316 . S
C63 N66 1.347 . S
C63 H68 0.931 . S
C64 N65 1.375 . S
C64 C67 1.350 . S
C64 H69 0.930 . S
N65 Co60 2.057 . S
N65 C63 1.316 . S
N65 C64 1.375 . S
N66 C63 1.347 . S
N66 C67 1.373 . S
C67 C64 1.350 . S
C67 N66 1.373 . S
C67 H88 0.931 . S
H68 C63 0.931 . S
H69 C64 0.930 . S
C70 O77 1.259 . S
C70 O78 1.258 . S
N71 Co62 2.057 . S
N71 C72 1.316 . S
N71 C73 1.375 . S
C72 N71 1.316 . S
C72 N74 1.347 . S
C72 H83 0.931 . S
C73 N71 1.375 . S
C73 C75 1.350 . S
C73 H82 0.930 . S
N74 C72 1.347 . S
N74 C75 1.373 . S
C75 C73 1.350 . S
C75 N74 1.373 . S
C75 H89 0.931 . S
C76 O79 1.256 . S
C76 O80 1.255 . S
O77 Co60 2.021 . S
O77 C70 1.259 . S
O78 Co62 2.117 . S
O78 C70 1.258 . S
O79 Co62 2.020 . S
O79 C76 1.256 . S
O80 Co60 2.062 . S
O80 C76 1.255 . S
O81 C61 1.259 . S
O81 Co62 2.021 . S
H82 C73 0.930 . S
H83 C72 0.931 . S
O84 Co60 2.117 . S
O84 C61 1.258 . S
O85 Co60 2.020 . S
O85 C87 1.256 . S
O86 Co62 2.062 . S
O86 C87 1.255 . S
C87 O85 1.256 . S
C87 O86 1.255 . S
H88 C67 0.931 . S
H89 C75 0.931 . S
Co90 N95 2.057 . S
Co90 O107 2.021 . S
Co90 O110 2.062 . S
Co90 O114 2.117 . S
Co90 O115 2.020 . S
C91 O111 1.259 . S
C91 O114 1.258 . S
Co92 N101 2.057 . S
Co92 O108 2.117 . S
Co92 O109 2.020 . S
Co92 O111 2.021 . S
Co92 O116 2.062 . S
C93 N95 1.316 . S
C93 N96 1.347 . S
C93 H98 0.931 . S
C94 N95 1.375 . S
C94 C97 1.350 . S
C94 H99 0.930 . S
N95 Co90 2.057 . S
N95 C93 1.316 . S
N95 C94 1.375 . S
N96 C93 1.347 . S
N96 C97 1.373 . S
C97 C94 1.350 . S
C97 N96 1.373 . S
C97 H118 0.931 . S
H98 C93 0.931 . S
H99 C94 0.930 . S
C100 O107 1.259 . S
C100 O108 1.258 . S
N101 Co92 2.057 . S
N101 C102 1.316 . S
N101 C103 1.375 . S
C102 N101 1.316 . S
C102 N104 1.347 . S
C102 H113 0.931 . S
C103 N101 1.375 . S
C103 C105 1.350 . S
C103 H112 0.930 . S
N104 C102 1.347 . S
N104 C105 1.373 . S
C105 C103 1.350 . S
C105 N104 1.373 . S
C105 H119 0.931 . S
C106 O109 1.256 . S
C106 O110 1.255 . S
O107 Co90 2.021 . S
O107 C100 1.259 . S
O108 Co92 2.117 . S
O108 C100 1.258 . S
O109 Co92 2.020 . S
O109 C106 1.256 . S
O110 Co90 2.062 . S
O110 C106 1.255 . S
O111 C91 1.259 . S
O111 Co92 2.021 . S
H112 C103 0.930 . S
H113 C102 0.931 . S
O114 Co90 2.117 . S
O114 C91 1.258 . S
O115 Co90 2.020 . S
O115 C117 1.256 . S
O116 Co92 2.062 . S
O116 C117 1.255 . S
C117 O115 1.256 . S
C117 O116 1.255 . S
H118 C97 0.931 . S
H119 C105 0.931 . S
Co120 N125 2.057 . S
Co120 O137 2.021 . S
Co120 O140 2.062 . S
Co120 O144 2.117 . S
Co120 O145 2.020 . S
C121 O141 1.259 . S
C121 O144 1.258 . S
Co122 N131 2.057 . S
Co122 O138 2.117 . S
Co122 O139 2.020 . S
Co122 O141 2.021 . S
Co122 O146 2.062 . S
C123 N125 1.316 . S
C123 N126 1.347 . S
C123 H128 0.931 . S
C124 N125 1.375 . S
C124 C127 1.350 . S
C124 H129 0.930 . S
N125 Co120 2.057 . S
N125 C123 1.316 . S
N125 C124 1.375 . S
N126 C123 1.347 . S
N126 C127 1.373 . S
C127 C124 1.350 . S
C127 N126 1.373 . S
C127 H148 0.931 . S
H128 C123 0.931 . S
H129 C124 0.930 . S
C130 O137 1.259 . S
C130 O138 1.258 . S
N131 Co122 2.057 . S
N131 C132 1.316 . S
N131 C133 1.375 . S
C132 N131 1.316 . S
C132 N134 1.347 . S
C132 H143 0.931 . S
C133 N131 1.375 . S
C133 C135 1.350 . S
C133 H142 0.930 . S
N134 C132 1.347 . S
N134 C135 1.373 . S
C135 C133 1.350 . S
C135 N134 1.373 . S
C135 H149 0.931 . S
C136 O139 1.256 . S
C136 O140 1.255 . S
O137 Co120 2.021 . S
O137 C130 1.259 . S
O138 Co122 2.117 . S
O138 C130 1.258 . S
O139 Co122 2.020 . S
O139 C136 1.256 . S
O140 Co120 2.062 . S
O140 C136 1.255 . S
O141 C121 1.259 . S
O141 Co122 2.021 . S
H142 C133 0.930 . S
H143 C132 0.931 . S
O144 Co120 2.117 . S
O144 C121 1.258 . S
O145 Co120 2.020 . S
O145 C147 1.256 . S
O146 Co122 2.062 . S
O146 C147 1.255 . S
C147 O145 1.256 . S
C147 O146 1.255 . S
H148 C127 0.931 . S
H149 C135 0.931 . S
Co150 N155 2.057 . S
Co150 O167 2.021 . S
Co150 O170 2.062 . S
Co150 O174 2.117 . S
Co150 O175 2.020 . S
C151 O171 1.259 . S
C151 O174 1.258 . S
Co152 N161 2.057 . S
Co152 O168 2.117 . S
Co152 O169 2.020 . S
Co152 O171 2.021 . S
Co152 O176 2.062 . S
C153 N155 1.316 . S
C153 N156 1.347 . S
C153 H158 0.931 . S
C154 N155 1.375 . S
C154 C157 1.350 . S
C154 H159 0.930 . S
N155 Co150 2.057 . S
N155 C153 1.316 . S
N155 C154 1.375 . S
N156 C153 1.347 . S
N156 C157 1.373 . S
C157 C154 1.350 . S
C157 N156 1.373 . S
C157 H178 0.931 . S
H158 C153 0.931 . S
H159 C154 0.930 . S
C160 O167 1.259 . S
C160 O168 1.258 . S
N161 Co152 2.057 . S
N161 C162 1.316 . S
N161 C163 1.375 . S
C162 N161 1.316 . S
C162 N164 1.347 . S
C162 H173 0.931 . S
C163 N161 1.375 . S
C163 C165 1.350 . S
C163 H172 0.930 . S
N164 C162 1.347 . S
N164 C165 1.373 . S
C165 C163 1.350 . S
C165 N164 1.373 . S
C165 H179 0.931 . S
C166 O169 1.256 . S
C166 O170 1.255 . S
O167 Co150 2.021 . S
O167 C160 1.259 . S
O168 Co152 2.117 . S
O168 C160 1.258 . S
O169 Co152 2.020 . S
O169 C166 1.256 . S
O170 Co150 2.062 . S
O170 C166 1.255 . S
O171 C151 1.259 . S
O171 Co152 2.021 . S
H172 C163 0.930 . S
H173 C162 0.931 . S
O174 Co150 2.117 . S
O174 C151 1.258 . S
O175 Co150 2.020 . S
O175 C177 1.256 . S
O176 Co152 2.062 . S
O176 C177 1.255 . S
C177 O175 1.256 . S
C177 O176 1.255 . S
H178 C157 0.931 . S
H179 C165 0.931 . S
Co180 N185 2.057 . S
Co180 O197 2.021 . S
Co180 O200 2.062 . S
Co180 O204 2.117 . S
Co180 O205 2.020 . S
C181 O201 1.259 . S
C181 O204 1.258 . S
Co182 N191 2.057 . S
Co182 O198 2.117 . S
Co182 O199 2.020 . S
Co182 O201 2.021 . S
Co182 O206 2.062 . S
C183 N185 1.316 . S
C183 N186 1.347 . S
C183 H188 0.931 . S
C184 N185 1.375 . S
C184 C187 1.350 . S
C184 H189 0.930 . S
N185 Co180 2.057 . S
N185 C183 1.316 . S
N185 C184 1.375 . S
N186 C183 1.347 . S
N186 C187 1.373 . S
C187 C184 1.350 . S
C187 N186 1.373 . S
C187 H208 0.931 . S
H188 C183 0.931 . S
H189 C184 0.930 . S
C190 O197 1.259 . S
C190 O198 1.258 . S
N191 Co182 2.057 . S
N191 C192 1.316 . S
N191 C193 1.375 . S
C192 N191 1.316 . S
C192 N194 1.347 . S
C192 H203 0.931 . S
C193 N191 1.375 . S
C193 C195 1.350 . S
C193 H202 0.930 . S
N194 C192 1.347 . S
N194 C195 1.373 . S
C195 C193 1.350 . S
C195 N194 1.373 . S
C195 H209 0.931 . S
C196 O199 1.256 . S
C196 O200 1.255 . S
O197 Co180 2.021 . S
O197 C190 1.259 . S
O198 Co182 2.117 . S
O198 C190 1.258 . S
O199 Co182 2.020 . S
O199 C196 1.256 . S
O200 Co180 2.062 . S
O200 C196 1.255 . S
O201 C181 1.259 . S
O201 Co182 2.021 . S
H202 C193 0.930 . S
H203 C192 0.931 . S
O204 Co180 2.117 . S
O204 C181 1.258 . S
O205 Co180 2.020 . S
O205 C207 1.256 . S
O206 Co182 2.062 . S
O206 C207 1.255 . S
C207 O205 1.256 . S
C207 O206 1.255 . S
H208 C187 0.931 . S
H209 C195 0.931 . S
Co210 N215 2.057 . S
Co210 O227 2.021 . S
Co210 O230 2.062 . S
Co210 O234 2.117 . S
Co210 O235 2.020 . S
C211 O231 1.259 . S
C211 O234 1.258 . S
Co212 N221 2.057 . S
Co212 O228 2.117 . S
Co212 O229 2.020 . S
Co212 O231 2.021 . S
Co212 O236 2.062 . S
C213 N215 1.316 . S
C213 N216 1.347 . S
C213 H218 0.931 . S
C214 N215 1.375 . S
C214 C217 1.350 . S
C214 H219 0.930 . S
N215 Co210 2.057 . S
N215 C213 1.316 . S
N215 C214 1.375 . S
N216 C213 1.347 . S
N216 C217 1.373 . S
C217 C214 1.350 . S
C217 N216 1.373 . S
C217 H238 0.931 . S
H218 C213 0.931 . S
H219 C214 0.930 . S
C220 O227 1.259 . S
C220 O228 1.258 . S
N221 Co212 2.057 . S
N221 C222 1.316 . S
N221 C223 1.375 . S
C222 N221 1.316 . S
C222 N224 1.347 . S
C222 H233 0.931 . S
C223 N221 1.375 . S
C223 C225 1.350 . S
C223 H232 0.930 . S
N224 C222 1.347 . S
N224 C225 1.373 . S
C225 C223 1.350 . S
C225 N224 1.373 . S
C225 H239 0.931 . S
C226 O229 1.256 . S
C226 O230 1.255 . S
O227 Co210 2.021 . S
O227 C220 1.259 . S
O228 Co212 2.117 . S
O228 C220 1.258 . S
O229 Co212 2.020 . S
O229 C226 1.256 . S
O230 Co210 2.062 . S
O230 C226 1.255 . S
O231 C211 1.259 . S
O231 Co212 2.021 . S
H232 C223 0.930 . S
H233 C222 0.931 . S
O234 Co210 2.117 . S
O234 C211 1.258 . S
O235 Co210 2.020 . S
O235 C237 1.256 . S
O236 Co212 2.062 . S
O236 C237 1.255 . S
C237 O235 1.256 . S
C237 O236 1.255 . S
H238 C217 0.931 . S
H239 C225 0.931 . S
Fe240 O241 1.889 . S
Fe240 O244 1.712 1_655 S
Fe240 O249 2.080 . S
Fe240 O254 1.932 1_655 S
Fe240 O260 2.080 . S
Fe240 O269 1.933 1_655 S
O241 Fe240 1.889 . S
O241 Fe243 1.715 1_545 S
Fe242 O244 1.886 . S
Fe242 O245 1.715 1_545 S
Fe242 O252 1.935 1_545 S
Fe242 O253 2.077 . S
Fe242 O259 1.935 1_545 S
Fe242 O268 2.077 . S
Fe243 O241 1.715 1_565 S
Fe243 O246 1.886 . S
Fe243 O250 1.935 1_565 S
Fe243 O255 2.077 . S
Fe243 O261 1.935 1_565 S
Fe243 O265 2.077 . S
O244 Fe240 1.712 1_455 S
O244 Fe242 1.886 . S
O245 Fe242 1.715 1_565 S
O245 Fe247 1.895 . S
O246 Fe243 1.886 . S
O246 Fe247 1.706 1_655 S
Fe247 O245 1.895 . S
Fe247 O246 1.706 1_455 S
Fe247 O251 2.086 . S
Fe247 O256 1.929 1_455 S
Fe247 O258 2.085 . S
Fe247 O266 1.928 1_455 S
C248 O260 1.381 . S
C248 O261 1.421 . S
O249 Fe240 2.080 . S
O249 C262 1.381 . S
O250 Fe243 1.935 1_545 S
O250 C262 1.421 . S
O251 Fe247 2.086 . S
O251 C267 1.381 . S
O252 Fe242 1.935 1_565 S
O252 C267 1.421 . S
O253 Fe242 2.077 . S
O253 C257 1.381 . S
O254 Fe240 1.932 1_455 S
O254 C257 1.421 . S
O255 Fe243 2.077 . S
O255 C263 1.381 . S
O256 Fe247 1.929 1_655 S
O256 C263 1.421 . S
C257 O253 1.381 . S
C257 O254 1.421 . S
O258 Fe247 2.085 . S
O258 C270 1.381 . S
O259 Fe242 1.935 1_565 S
O259 C270 1.421 . S
O260 Fe240 2.080 . S
O260 C248 1.381 . S
O261 Fe243 1.935 1_545 S
O261 C248 1.421 . S
C262 O249 1.381 . S
C262 O250 1.421 . S
C263 O255 1.381 . S
C263 O256 1.421 . S
C264 O265 1.381 . S
C264 O266 1.421 . S
O265 Fe243 2.077 . S
O265 C264 1.381 . S
O266 Fe247 1.928 1_655 S
O266 C264 1.421 . S
C267 O251 1.381 . S
C267 O252 1.421 . S
O268 Fe242 2.077 . S
O268 C271 1.381 . S
O269 Fe240 1.933 1_455 S
O269 C271 1.421 . S
C270 O258 1.381 . S
C270 O259 1.421 . S
C271 O268 1.381 . S
C271 O269 1.421 . S
Fe272 O273 1.886 1_556 S
Fe272 O276 1.715 . S
Fe272 O281 2.077 . S
Fe272 O286 1.935 . S
Fe272 O292 2.077 1_556 S
Fe272 O301 1.935 1_556 S
O273 Fe272 1.886 1_554 S
O273 Fe275 1.715 1_565 S
Fe274 O276 1.886 . S
Fe274 O277 1.715 1_566 S
Fe274 O284 1.935 1_565 S
Fe274 O285 2.077 . S
Fe274 O291 1.935 1_566 S
Fe274 O300 2.077 1_556 S
Fe275 O273 1.715 1_545 S
Fe275 O278 1.886 . S
Fe275 O282 1.935 1_544 S
Fe275 O287 2.077 1_554 S
Fe275 O293 1.935 1_545 S
Fe275 O297 2.077 . S
O276 Fe272 1.715 . S
O276 Fe274 1.886 . S
O277 Fe274 1.715 1_544 S
O277 Fe279 1.886 . S
O278 Fe275 1.886 . S
O278 Fe279 1.715 . S
Fe279 O277 1.886 . S
Fe279 O278 1.715 . S
Fe279 O283 2.077 1_554 S
Fe279 O288 1.935 1_554 S
Fe279 O290 2.077 . S
Fe279 O298 1.935 . S
C280 O292 1.381 . S
C280 O293 1.421 . S
O281 Fe272 2.077 . S
O281 C294 1.381 . S
O282 Fe275 1.935 1_566 S
O282 C294 1.421 . S
O283 Fe279 2.077 1_556 S
O283 C299 1.381 . S
O284 Fe274 1.935 1_545 S
O284 C299 1.421 . S
O285 Fe274 2.077 . S
O285 C289 1.381 . S
O286 Fe272 1.935 . S
O286 C289 1.421 . S
O287 Fe275 2.077 1_556 S
O287 C295 1.381 . S
O288 Fe279 1.935 1_556 S
O288 C295 1.421 . S
C289 O285 1.381 . S
C289 O286 1.421 . S
O290 Fe279 2.077 . S
O290 C302 1.381 . S
O291 Fe274 1.935 1_544 S
O291 C302 1.421 . S
O292 Fe272 2.077 1_554 S
O292 C280 1.381 . S
O293 Fe275 1.935 1_565 S
O293 C280 1.421 . S
C294 O281 1.381 . S
C294 O282 1.421 . S
C295 O287 1.381 . S
C295 O288 1.421 . S
C296 O297 1.381 . S
C296 O298 1.421 . S
O297 Fe275 2.077 . S
O297 C296 1.381 . S
O298 Fe279 1.935 . S
O298 C296 1.421 . S
C299 O283 1.381 . S
C299 O284 1.421 . S
O300 Fe274 2.077 1_554 S
O300 C303 1.381 . S
O301 Fe272 1.935 1_554 S
O301 C303 1.421 . S
C302 O290 1.381 . S
C302 O291 1.421 . S
C303 O300 1.381 . S
C303 O301 1.421 . S
Fe304 O305 1.889 . S
Fe304 O308 1.712 1_655 S
Fe304 O313 2.080 1_554 S
Fe304 O318 1.933 1_654 S
Fe304 O324 2.080 . S
Fe304 O333 1.933 1_655 S
O305 Fe304 1.889 . S
O305 Fe307 1.715 1_554 S
Fe306 O308 1.886 . S
Fe306 O309 1.715 . S
Fe306 O316 1.935 1_554 S
Fe306 O317 2.077 1_554 S
Fe306 O323 1.935 . S
Fe306 O332 2.077 . S
Fe307 O305 1.715 1_556 S
Fe307 O310 1.886 . S
Fe307 O314 1.935 . S
Fe307 O319 2.077 . S
Fe307 O325 1.935 1_556 S
Fe307 O329 2.077 1_556 S
O308 Fe304 1.712 1_455 S
O308 Fe306 1.886 . S
O309 Fe306 1.715 . S
O309 Fe311 1.894 1_554 S
O310 Fe307 1.886 . S
O310 Fe311 1.706 1_655 S
Fe311 O309 1.894 1_556 S
Fe311 O310 1.706 1_455 S
Fe311 O315 2.085 . S
Fe311 O320 1.929 1_455 S
Fe311 O322 2.085 1_556 S
Fe311 O330 1.928 1_456 S
C312 O324 1.381 . S
C312 O325 1.421 . S
O313 Fe304 2.080 1_556 S
O313 C326 1.381 . S
O314 Fe307 1.935 . S
O314 C326 1.421 . S
O315 Fe311 2.085 . S
O315 C331 1.381 . S
O316 Fe306 1.935 1_556 S
O316 C331 1.421 . S
O317 Fe306 2.077 1_556 S
O317 C321 1.381 . S
O318 Fe304 1.933 1_456 S
O318 C321 1.421 . S
O319 Fe307 2.077 . S
O319 C327 1.381 . S
O320 Fe311 1.929 1_655 S
O320 C327 1.421 . S
C321 O317 1.381 . S
C321 O318 1.421 . S
O322 Fe311 2.085 1_554 S
O322 C334 1.381 . S
O323 Fe306 1.935 . S
O323 C334 1.421 . S
O324 Fe304 2.080 . S
O324 C312 1.381 . S
O325 Fe307 1.935 1_554 S
O325 C312 1.421 . S
C326 O313 1.381 . S
C326 O314 1.421 . S
C327 O319 1.381 . S
C327 O320 1.421 . S
C328 O329 1.381 . S
C328 O330 1.421 . S
O329 Fe307 2.077 1_554 S
O329 C328 1.381 . S
O330 Fe311 1.928 1_654 S
O330 C328 1.421 . S
C331 O315 1.381 . S
C331 O316 1.421 . S
O332 Fe306 2.077 . S
O332 C335 1.381 . S
O333 Fe304 1.933 1_455 S
O333 C335 1.421 . S
C334 O322 1.381 . S
C334 O323 1.421 . S
C335 O332 1.381 . S
C335 O333 1.421 . S
Fe336 O337 1.886 . S
Fe336 O340 1.715 . S
Fe336 O345 2.077 . S
Fe336 O350 1.935 . S
Fe336 O356 2.077 . S
Fe336 O365 1.935 . S
O337 Fe336 1.886 . S
O337 Fe339 1.715 1_556 S
Fe338 O340 1.886 . S
Fe338 O341 1.715 1_556 S
Fe338 O348 1.935 1_556 S
Fe338 O349 2.077 . S
Fe338 O355 1.935 1_556 S
Fe338 O364 2.077 . S
Fe339 O337 1.715 1_554 S
Fe339 O342 1.886 . S
Fe339 O346 1.935 1_554 S
Fe339 O351 2.077 . S
Fe339 O357 1.935 1_554 S
Fe339 O361 2.077 . S
O340 Fe336 1.715 . S
O340 Fe338 1.886 . S
O341 Fe338 1.715 1_554 S
O341 Fe343 1.886 . S
O342 Fe339 1.886 . S
O342 Fe343 1.715 . S
Fe343 O341 1.886 . S
Fe343 O342 1.715 . S
Fe343 O347 2.077 . S
Fe343 O352 1.935 . S
Fe343 O354 2.077 . S
Fe343 O362 1.935 . S
C344 O356 1.381 . S
C344 O357 1.421 . S
O345 Fe336 2.077 . S
O345 C358 1.381 . S
O346 Fe339 1.935 1_556 S
O346 C358 1.421 . S
O347 Fe343 2.077 . S
O347 C363 1.381 . S
O348 Fe338 1.935 1_554 S
O348 C363 1.421 . S
O349 Fe338 2.077 . S
O349 C353 1.381 . S
O350 Fe336 1.935 . S
O350 C353 1.421 . S
O351 Fe339 2.077 . S
O351 C359 1.381 . S
O352 Fe343 1.935 . S
O352 C359 1.421 . S
C353 O349 1.381 . S
C353 O350 1.421 . S
O354 Fe343 2.077 . S
O354 C366 1.381 . S
O355 Fe338 1.935 1_554 S
O355 C366 1.421 . S
O356 Fe336 2.077 . S
O356 C344 1.381 . S
O357 Fe339 1.935 1_556 S
O357 C344 1.421 . S
C358 O345 1.381 . S
C358 O346 1.421 . S
C359 O351 1.381 . S
C359 O352 1.421 . S
C360 O361 1.381 . S
C360 O362 1.421 . S
O361 Fe339 2.077 . S
O361 C360 1.381 . S
O362 Fe343 1.935 . S
O362 C360 1.421 . S
C363 O347 1.381 . S
C363 O348 1.421 . S
O364 Fe338 2.077 . S
O364 C367 1.381 . S
O365 Fe336 1.935 . S
O365 C367 1.421 . S
C366 O354 1.381 . S
C366 O355 1.421 . S
C367 O364 1.381 . S
C367 O365 1.421 . S
Fe368 O369 1.886 1_655 S
Fe368 O372 1.715 . S
Fe368 O377 2.069 1_655 S
Fe368 O382 1.926 1_655 S
Fe368 O388 2.085 . S
Fe368 O397 1.944 . S
O369 Fe368 1.886 1_455 S
O369 Fe371 1.715 . S
Fe370 O372 1.886 . S
Fe370 O373 1.715 . S
Fe370 O380 1.935 1_655 S
Fe370 O381 2.077 1_655 S
Fe370 O387 1.935 . S
Fe370 O396 2.077 . S
Fe371 O369 1.715 . S
Fe371 O374 1.886 . S
Fe371 O378 1.935 . S
Fe371 O383 2.077 . S
Fe371 O389 1.935 1_455 S
Fe371 O393 2.077 1_455 S
O372 Fe368 1.715 . S
O372 Fe370 1.886 . S
O373 Fe370 1.715 . S
O373 Fe375 1.888 1_655 S
O374 Fe371 1.886 . S
O374 Fe375 1.715 . S
Fe375 O373 1.888 1_455 S
Fe375 O374 1.715 . S
Fe375 O379 2.091 . S
Fe375 O384 1.950 . S
Fe375 O386 2.064 1_455 S
Fe375 O394 1.919 1_455 S
C376 O388 1.381 . S
C376 O389 1.421 . S
O377 Fe368 2.069 1_455 S
O377 C390 1.381 . S
O378 Fe371 1.935 . S
O378 C390 1.421 . S
O379 Fe375 2.091 . S
O379 C395 1.381 . S
O380 Fe370 1.935 1_455 S
O380 C395 1.421 . S
O381 Fe370 2.077 1_455 S
O381 C385 1.381 . S
O382 Fe368 1.926 1_455 S
O382 C385 1.421 . S
O383 Fe371 2.077 . S
O383 C391 1.381 . S
O384 Fe375 1.950 . S
O384 C391 1.421 . S
C385 O381 1.381 . S
C385 O382 1.421 . S
O386 Fe375 2.064 1_655 S
O386 C398 1.381 . S
O387 Fe370 1.935 . S
O387 C398 1.421 . S
O388 Fe368 2.085 . S
O388 C376 1.381 . S
O389 Fe371 1.935 1_655 S
O389 C376 1.421 . S
C390 O377 1.381 . S
C390 O378 1.421 . S
C391 O383 1.381 . S
C391 O384 1.421 . S
C392 O393 1.381 . S
C392 O394 1.421 . S
O393 Fe371 2.077 1_655 S
O393 C392 1.381 . S
O394 Fe375 1.919 1_655 S
O394 C392 1.421 . S
C395 O379 1.381 . S
C395 O380 1.421 . S
O396 Fe370 2.077 . S
O396 C399 1.381 . S
O397 Fe368 1.944 . S
O397 C399 1.421 . S
C398 O386 1.381 . S
C398 O387 1.421 . S
C399 O396 1.381 . S
C399 O397 1.421 . S
Fe400 O401 1.886 . S
Fe400 O404 1.715 . S
Fe400 O409 2.077 . S
Fe400 O414 1.935 . S
Fe400 O420 2.077 . S
Fe400 O429 1.935 . S
O401 Fe400 1.886 . S
O401 Fe403 1.715 1_565 S
Fe402 O404 1.886 . S
Fe402 O405 1.715 1_565 S
Fe402 O412 1.935 1_565 S
Fe402 O413 2.077 . S
Fe402 O419 1.935 1_565 S
Fe402 O428 2.077 . S
Fe403 O401 1.715 1_545 S
Fe403 O406 1.886 . S
Fe403 O410 1.935 1_545 S
Fe403 O415 2.077 . S
Fe403 O421 1.935 1_545 S
Fe403 O425 2.077 . S
O404 Fe400 1.715 . S
O404 Fe402 1.886 . S
O405 Fe402 1.715 1_545 S
O405 Fe407 1.886 . S
O406 Fe403 1.886 . S
O406 Fe407 1.715 . S
Fe407 O405 1.886 . S
Fe407 O406 1.715 . S
Fe407 O411 2.077 . S
Fe407 O416 1.935 . S
Fe407 O418 2.077 . S
Fe407 O426 1.935 . S
C408 O420 1.381 . S
C408 O421 1.421 . S
O409 Fe400 2.077 . S
O409 C422 1.381 . S
O410 Fe403 1.935 1_565 S
O410 C422 1.421 . S
O411 Fe407 2.077 . S
O411 C427 1.381 . S
O412 Fe402 1.935 1_545 S
O412 C427 1.421 . S
O413 Fe402 2.077 . S
O413 C417 1.381 . S
O414 Fe400 1.935 . S
O414 C417 1.421 . S
O415 Fe403 2.077 . S
O415 C423 1.381 . S
O416 Fe407 1.935 . S
O416 C423 1.421 . S
C417 O413 1.381 . S
C417 O414 1.421 . S
O418 Fe407 2.077 . S
O418 C430 1.381 . S
O419 Fe402 1.935 1_545 S
O419 C430 1.421 . S
O420 Fe400 2.077 . S
O420 C408 1.381 . S
O421 Fe403 1.935 1_565 S
O421 C408 1.421 . S
C422 O409 1.381 . S
C422 O410 1.421 . S
C423 O415 1.381 . S
C423 O416 1.421 . S
C424 O425 1.381 . S
C424 O426 1.421 . S
O425 Fe403 2.077 . S
O425 C424 1.381 . S
O426 Fe407 1.935 . S
O426 C424 1.421 . S
C427 O411 1.381 . S
C427 O412 1.421 . S
O428 Fe402 2.077 . S
O428 C431 1.381 . S
O429 Fe400 1.935 . S
O429 C431 1.421 . S
C430 O418 1.381 . S
C430 O419 1.421 . S
C431 O428 1.381 . S
C431 O429 1.421 . S
H432 C438 0.930 . S
H433 C442 0.930 . S
H434 C447 0.929 . S
H435 C445 0.929 . S
H436 C440 0.929 . S
H437 C446 0.929 . S
C438 H432 0.930 . S
C438 C439 1.367 . S
C438 C446 1.378 . S
C439 C438 1.367 . S
C439 C447 1.433 . S
C440 H436 0.929 . S
C440 C442 1.378 . S
C440 C444 1.350 . S
C441 C444 1.463 . S
C441 C446 1.350 . S
C441 N449 1.427 . S
C442 H433 0.930 . S
C442 C440 1.378 . S
C442 C443 1.367 . S
C443 C442 1.367 . S
C443 C445 1.433 . S
C444 C440 1.350 . S
C444 C441 1.463 . S
C444 N448 1.427 . S
C445 H435 0.929 . S
C445 C443 1.433 . S
C445 N448 1.384 . S
C446 H437 0.929 . S
C446 C438 1.378 . S
C446 C441 1.350 . S
C447 H434 0.929 . S
C447 C439 1.433 . S
C447 N449 1.384 . S
N448 C444 1.427 . S
N448 C445 1.384 . S
N449 C441 1.427 . S
N449 C447 1.384 . S
H450 C456 0.930 . S
H451 C460 0.930 . S
H452 C465 0.929 . S
H453 C463 0.929 . S
H454 C458 0.929 . S
H455 C464 0.929 . S
C456 H450 0.930 . S
C456 C457 1.367 . S
C456 C464 1.378 . S
C457 C456 1.367 . S
C457 C465 1.433 . S
C458 H454 0.929 . S
C458 C460 1.378 . S
C458 C462 1.350 . S
C459 C462 1.463 . S
C459 C464 1.350 . S
C459 N467 1.427 . S
C460 H451 0.930 . S
C460 C458 1.378 . S
C460 C461 1.367 . S
C461 C460 1.367 . S
C461 C463 1.433 . S
C462 C458 1.350 . S
C462 C459 1.463 . S
C462 N466 1.427 . S
C463 H453 0.929 . S
C463 C461 1.433 . S
C463 N466 1.384 . S
C464 H455 0.929 . S
C464 C456 1.378 . S
C464 C459 1.350 . S
C465 H452 0.929 . S
C465 C457 1.433 . S
C465 N467 1.384 . S
N466 C462 1.427 . S
N466 C463 1.384 . S
N467 C459 1.427 . S
N467 C465 1.384 . S
H468 C474 0.930 . S
H469 C478 0.930 . S
H470 C483 0.929 . S
H471 C481 0.929 . S
H472 C476 0.929 . S
H473 C482 0.929 . S
C474 H468 0.930 . S
C474 C475 1.367 . S
C474 C482 1.378 . S
C475 C474 1.367 . S
C475 C483 1.433 . S
C476 H472 0.929 . S
C476 C478 1.378 . S
C476 C480 1.350 . S
C477 C480 1.463 . S
C477 C482 1.350 . S
C477 N485 1.427 . S
C478 H469 0.930 . S
C478 C476 1.378 . S
C478 C479 1.367 . S
C479 C478 1.367 . S
C479 C481 1.433 . S
C480 C476 1.350 . S
C480 C477 1.463 . S
C480 N484 1.427 . S
C481 H471 0.929 . S
C481 C479 1.433 . S
C481 N484 1.384 . S
C482 H473 0.929 . S
C482 C474 1.378 . S
C482 C477 1.350 . S
C483 H470 0.929 . S
C483 C475 1.433 . S
C483 N485 1.384 . S
N484 C480 1.427 . S
N484 C481 1.384 . S
N485 C477 1.427 . S
N485 C483 1.384 . S
H486 C492 0.930 . S
H487 C496 0.930 . S
H488 C501 0.929 . S
H489 C499 0.929 . S
H490 C494 0.929 . S
H491 C500 0.929 . S
C492 H486 0.930 . S
C492 C493 1.367 . S
C492 C500 1.378 . S
C493 C492 1.367 . S
C493 C501 1.433 . S
C494 H490 0.929 . S
C494 C496 1.378 . S
C494 C498 1.350 . S
C495 C498 1.463 . S
C495 C500 1.350 . S
C495 N503 1.427 . S
C496 H487 0.930 . S
C496 C494 1.378 . S
C496 C497 1.367 . S
C497 C496 1.367 . S
C497 C499 1.433 . S
C498 C494 1.350 . S
C498 C495 1.463 . S
C498 N502 1.427 . S
C499 H489 0.929 . S
C499 C497 1.433 . S
C499 N502 1.384 . S
C500 H491 0.929 . S
C500 C492 1.378 . S
C500 C495 1.350 . S
C501 H488 0.929 . S
C501 C493 1.433 . S
C501 N503 1.384 . S
N502 C498 1.427 . S
N502 C499 1.384 . S
N503 C495 1.427 . S
N503 C501 1.384 . S
H504 C510 0.930 . S
H505 C514 0.930 . S
H506 C519 0.929 . S
H507 C517 0.929 . S
H508 C512 0.929 . S
H509 C518 0.929 . S
C510 H504 0.930 . S
C510 C511 1.367 . S
C510 C518 1.378 . S
C511 C510 1.367 . S
C511 C519 1.433 . S
C512 H508 0.929 . S
C512 C514 1.378 . S
C512 C516 1.350 . S
C513 C516 1.463 . S
C513 C518 1.350 . S
C513 N521 1.427 . S
C514 H505 0.930 . S
C514 C512 1.378 . S
C514 C515 1.367 . S
C515 C514 1.367 . S
C515 C517 1.433 . S
C516 C512 1.350 . S
C516 C513 1.463 . S
C516 N520 1.427 . S
C517 H507 0.929 . S
C517 C515 1.433 . S
C517 N520 1.384 . S
C518 H509 0.929 . S
C518 C510 1.378 . S
C518 C513 1.350 . S
C519 H506 0.929 . S
C519 C511 1.433 . S
C519 N521 1.384 . S
N520 C516 1.427 . S
N520 C517 1.384 . S
N521 C513 1.427 . S
N521 C519 1.384 . S
H522 C528 0.930 . S
H523 C532 0.930 . S
H524 C537 0.929 . S
H525 C535 0.929 . S
H526 C530 0.929 . S
H527 C536 0.929 . S
C528 H522 0.930 . S
C528 C529 1.367 . S
C528 C536 1.378 . S
C529 C528 1.367 . S
C529 C537 1.433 . S
C530 H526 0.929 . S
C530 C532 1.378 . S
C530 C534 1.350 . S
C531 C534 1.463 . S
C531 C536 1.350 . S
C531 N539 1.427 . S
C532 H523 0.930 . S
C532 C530 1.378 . S
C532 C533 1.367 . S
C533 C532 1.367 . S
C533 C535 1.433 . S
C534 C530 1.350 . S
C534 C531 1.463 . S
C534 N538 1.427 . S
C535 H525 0.929 . S
C535 C533 1.433 . S
C535 N538 1.384 . S
C536 H527 0.929 . S
C536 C528 1.378 . S
C536 C531 1.350 . S
C537 H524 0.929 . S
C537 C529 1.433 . S
C537 N539 1.384 . S
N538 C534 1.427 . S
N538 C535 1.384 . S
N539 C531 1.427 . S
N539 C537 1.384 . S
H540 C546 0.930 . S
H541 C550 0.930 . S
H542 C555 0.929 . S
H543 C553 0.929 . S
H544 C548 0.929 . S
H545 C554 0.929 . S
C546 H540 0.930 . S
C546 C547 1.367 . S
C546 C554 1.378 . S
C547 C546 1.367 . S
C547 C555 1.433 . S
C548 H544 0.929 . S
C548 C550 1.378 . S
C548 C552 1.350 . S
C549 C552 1.463 . S
C549 C554 1.350 . S
C549 N557 1.427 . S
C550 H541 0.930 . S
C550 C548 1.378 . S
C550 C551 1.367 . S
C551 C550 1.367 . S
C551 C553 1.433 . S
C552 C548 1.350 . S
C552 C549 1.463 . S
C552 N556 1.427 . S
C553 H543 0.929 . S
C553 C551 1.433 . S
C553 N556 1.384 . S
C554 H545 0.929 . S
C554 C546 1.378 . S
C554 C549 1.350 . S
C555 H542 0.929 . S
C555 C547 1.433 . S
C555 N557 1.384 . S
N556 C552 1.427 . S
N556 C553 1.384 . S
N557 C549 1.427 . S
N557 C555 1.384 . S
H558 C564 0.930 . S
H559 C568 0.930 . S
H560 C573 0.929 . S
H561 C571 0.929 . S
H562 C566 0.929 . S
H563 C572 0.929 . S
C564 H558 0.930 . S
C564 C565 1.367 . S
C564 C572 1.378 . S
C565 C564 1.367 . S
C565 C573 1.433 . S
C566 H562 0.929 . S
C566 C568 1.378 . S
C566 C570 1.350 . S
C567 C570 1.463 . S
C567 C572 1.350 . S
C567 N575 1.427 . S
C568 H559 0.930 . S
C568 C566 1.378 . S
C568 C569 1.367 . S
C569 C568 1.367 . S
C569 C571 1.433 . S
C570 C566 1.350 . S
C570 C567 1.463 . S
C570 N574 1.427 . S
C571 H561 0.929 . S
C571 C569 1.433 . S
C571 N574 1.384 . S
C572 H563 0.929 . S
C572 C564 1.378 . S
C572 C567 1.350 . S
C573 H560 0.929 . S
C573 C565 1.433 . S
C573 N575 1.384 . S
N574 C570 1.427 . S
N574 C571 1.384 . S
N575 C567 1.427 . S
N575 C573 1.384 . S
H576 C582 0.930 . S
H577 C586 0.930 . S
H578 C591 0.929 . S
H579 C589 0.929 . S
H580 C584 0.929 . S
H581 C590 0.929 . S
C582 H576 0.930 . S
C582 C583 1.367 . S
C582 C590 1.378 . S
C583 C582 1.367 . S
C583 C591 1.433 . S
C584 H580 0.929 . S
C584 C586 1.378 . S
C584 C588 1.350 . S
C585 C588 1.463 . S
C585 C590 1.350 . S
C585 N593 1.427 . S
C586 H577 0.930 . S
C586 C584 1.378 . S
C586 C587 1.367 . S
C587 C586 1.367 . S
C587 C589 1.433 . S
C588 C584 1.350 . S
C588 C585 1.463 . S
C588 N592 1.427 . S
C589 H579 0.929 . S
C589 C587 1.433 . S
C589 N592 1.384 . S
C590 H581 0.929 . S
C590 C582 1.378 . S
C590 C585 1.350 . S
C591 H578 0.929 . S
C591 C583 1.433 . S
C591 N593 1.384 . S
N592 C588 1.427 . S
N592 C589 1.384 . S
N593 C585 1.427 . S
N593 C591 1.384 . S
H594 C600 0.930 . S
H595 C604 0.930 . S
H596 C609 0.929 . S
H597 C607 0.929 . S
H598 C602 0.929 . S
H599 C608 0.929 . S
C600 H594 0.930 . S
C600 C601 1.367 . S
C600 C608 1.378 . S
C601 C600 1.367 . S
C601 C609 1.433 . S
C602 H598 0.929 . S
C602 C604 1.378 . S
C602 C606 1.350 . S
C603 C606 1.463 . S
C603 C608 1.350 . S
C603 N611 1.427 . S
C604 H595 0.930 . S
C604 C602 1.378 . S
C604 C605 1.367 . S
C605 C604 1.367 . S
C605 C607 1.433 . S
C606 C602 1.350 . S
C606 C603 1.463 . S
C606 N610 1.427 . S
C607 H597 0.929 . S
C607 C605 1.433 . S
C607 N610 1.384 . S
C608 H599 0.929 . S
C608 C600 1.378 . S
C608 C603 1.350 . S
C609 H596 0.929 . S
C609 C601 1.433 . S
C609 N611 1.384 . S
N610 C606 1.427 . S
N610 C607 1.384 . S
N611 C603 1.427 . S
N611 C609 1.384 . S
H612 C618 0.930 . S
H613 C622 0.930 . S
H614 C627 0.929 . S
H615 C625 0.929 . S
H616 C620 0.929 . S
H617 C626 0.929 . S
C618 H612 0.930 . S
C618 C619 1.367 . S
C618 C626 1.378 . S
C619 C618 1.367 . S
C619 C627 1.433 . S
C620 H616 0.929 . S
C620 C622 1.378 . S
C620 C624 1.350 . S
C621 C624 1.463 . S
C621 C626 1.350 . S
C621 N629 1.427 . S
C622 H613 0.930 . S
C622 C620 1.378 . S
C622 C623 1.367 . S
C623 C622 1.367 . S
C623 C625 1.433 . S
C624 C620 1.350 . S
C624 C621 1.463 . S
C624 N628 1.427 . S
C625 H615 0.929 . S
C625 C623 1.433 . S
C625 N628 1.384 . S
C626 H617 0.929 . S
C626 C618 1.378 . S
C626 C621 1.350 . S
C627 H614 0.929 . S
C627 C619 1.433 . S
C627 N629 1.384 . S
N628 C624 1.427 . S
N628 C625 1.384 . S
N629 C621 1.427 . S
N629 C627 1.384 . S
H630 C636 0.930 . S
H631 C640 0.930 . S
H632 C645 0.929 . S
H633 C643 0.929 . S
H634 C638 0.929 . S
H635 C644 0.929 . S
C636 H630 0.930 . S
C636 C637 1.367 . S
C636 C644 1.378 . S
C637 C636 1.367 . S
C637 C645 1.433 . S
C638 H634 0.929 . S
C638 C640 1.378 . S
C638 C642 1.350 . S
C639 C642 1.463 . S
C639 C644 1.350 . S
C639 N647 1.427 . S
C640 H631 0.930 . S
C640 C638 1.378 . S
C640 C641 1.367 . S
C641 C640 1.367 . S
C641 C643 1.433 . S
C642 C638 1.350 . S
C642 C639 1.463 . S
C642 N646 1.427 . S
C643 H633 0.929 . S
C643 C641 1.433 . S
C643 N646 1.384 . S
C644 H635 0.929 . S
C644 C636 1.378 . S
C644 C639 1.350 . S
C645 H632 0.929 . S
C645 C637 1.433 . S
C645 N647 1.384 . S
N646 C642 1.427 . S
N646 C643 1.384 . S
N647 C639 1.427 . S
N647 C645 1.384 . S
H648 C654 0.930 . S
H649 C658 0.930 . S
H650 C663 0.929 . S
H651 C661 0.929 . S
H652 C656 0.929 . S
H653 C662 0.929 . S
C654 H648 0.930 . S
C654 C655 1.367 . S
C654 C662 1.378 . S
C655 C654 1.367 . S
C655 C663 1.433 . S
C656 H652 0.929 . S
C656 C658 1.378 . S
C656 C660 1.350 . S
C657 C660 1.463 . S
C657 C662 1.350 . S
C657 N665 1.427 . S
C658 H649 0.930 . S
C658 C656 1.378 . S
C658 C659 1.367 . S
C659 C658 1.367 . S
C659 C661 1.433 . S
C660 C656 1.350 . S
C660 C657 1.463 . S
C660 N664 1.427 . S
C661 H651 0.929 . S
C661 C659 1.433 . S
C661 N664 1.384 . S
C662 H653 0.929 . S
C662 C654 1.378 . S
C662 C657 1.350 . S
C663 H650 0.929 . S
C663 C655 1.433 . S
C663 N665 1.384 . S
N664 C660 1.427 . S
N664 C661 1.384 . S
N665 C657 1.427 . S
N665 C663 1.384 . S
H666 C672 0.930 . S
H667 C676 0.930 . S
H668 C681 0.929 . S
H669 C679 0.929 . S
H670 C674 0.929 . S
H671 C680 0.929 . S
C672 H666 0.930 . S
C672 C673 1.367 . S
C672 C680 1.378 . S
C673 C672 1.367 . S
C673 C681 1.433 . S
C674 H670 0.929 . S
C674 C676 1.378 . S
C674 C678 1.350 . S
C675 C678 1.463 . S
C675 C680 1.350 . S
C675 N683 1.427 . S
C676 H667 0.930 . S
C676 C674 1.378 . S
C676 C677 1.367 . S
C677 C676 1.367 . S
C677 C679 1.433 . S
C678 C674 1.350 . S
C678 C675 1.463 . S
C678 N682 1.427 . S
C679 H669 0.929 . S
C679 C677 1.433 . S
C679 N682 1.384 . S
C680 H671 0.929 . S
C680 C672 1.378 . S
C680 C675 1.350 . S
C681 H668 0.929 . S
C681 C673 1.433 . S
C681 N683 1.384 . S
N682 C678 1.427 . S
N682 C679 1.384 . S
N683 C675 1.427 . S
N683 C681 1.384 . S
H684 C690 0.930 . S
H685 C694 0.930 . S
H686 C699 0.929 . S
H687 C697 0.929 . S
H688 C692 0.929 . S
H689 C698 0.929 . S
C690 H684 0.930 . S
C690 C691 1.367 . S
C690 C698 1.378 . S
C691 C690 1.367 . S
C691 C699 1.433 . S
C692 H688 0.929 . S
C692 C694 1.378 . S
C692 C696 1.350 . S
C693 C696 1.463 . S
C693 C698 1.350 . S
C693 N701 1.427 . S
C694 H685 0.930 . S
C694 C692 1.378 . S
C694 C695 1.367 . S
C695 C694 1.367 . S
C695 C697 1.433 . S
C696 C692 1.350 . S
C696 C693 1.463 . S
C696 N700 1.427 . S
C697 H687 0.929 . S
C697 C695 1.433 . S
C697 N700 1.384 . S
C698 H689 0.929 . S
C698 C690 1.378 . S
C698 C693 1.350 . S
C699 H686 0.929 . S
C699 C691 1.433 . S
C699 N701 1.384 . S
N700 C696 1.427 . S
N700 C697 1.384 . S
N701 C693 1.427 . S
N701 C699 1.384 . S
H702 C708 0.930 . S
H703 C712 0.930 . S
H704 C717 0.929 . S
H705 C715 0.929 . S
H706 C710 0.929 . S
H707 C716 0.929 . S
C708 H702 0.930 . S
C708 C709 1.367 . S
C708 C716 1.378 . S
C709 C708 1.367 . S
C709 C717 1.433 . S
C710 H706 0.929 . S
C710 C712 1.378 . S
C710 C714 1.350 . S
C711 C714 1.463 . S
C711 C716 1.350 . S
C711 N719 1.427 . S
C712 H703 0.930 . S
C712 C710 1.378 . S
C712 C713 1.367 . S
C713 C712 1.367 . S
C713 C715 1.433 . S
C714 C710 1.350 . S
C714 C711 1.463 . S
C714 N718 1.427 . S
C715 H705 0.929 . S
C715 C713 1.433 . S
C715 N718 1.384 . S
C716 H707 0.929 . S
C716 C708 1.378 . S
C716 C711 1.350 . S
C717 H704 0.929 . S
C717 C709 1.433 . S
C717 N719 1.384 . S
N718 C714 1.427 . S
N718 C715 1.384 . S
N719 C711 1.427 . S
N719 C717 1.384 . S
H720 C726 0.930 . S
H721 C730 0.930 . S
H722 C735 0.929 . S
H723 C733 0.929 . S
H724 C728 0.929 . S
H725 C734 0.929 . S
C726 H720 0.930 . S
C726 C727 1.367 . S
C726 C734 1.378 . S
C727 C726 1.367 . S
C727 C735 1.433 . S
C728 H724 0.929 . S
C728 C730 1.378 . S
C728 C732 1.350 . S
C729 C732 1.463 . S
C729 C734 1.350 . S
C729 N737 1.427 . S
C730 H721 0.930 . S
C730 C728 1.378 . S
C730 C731 1.367 . S
C731 C730 1.367 . S
C731 C733 1.433 . S
C732 C728 1.350 . S
C732 C729 1.463 . S
C732 N736 1.427 . S
C733 H723 0.929 . S
C733 C731 1.433 . S
C733 N736 1.384 . S
C734 H725 0.929 . S
C734 C726 1.378 . S
C734 C729 1.350 . S
C735 H722 0.929 . S
C735 C727 1.433 . S
C735 N737 1.384 . S
N736 C732 1.427 . S
N736 C733 1.384 . S
N737 C729 1.427 . S
N737 C735 1.384 . S
H738 C744 0.930 . S
H739 C748 0.930 . S
H740 C753 0.929 . S
H741 C751 0.929 . S
H742 C746 0.929 . S
H743 C752 0.929 . S
C744 H738 0.930 . S
C744 C745 1.367 . S
C744 C752 1.378 . S
C745 C744 1.367 . S
C745 C753 1.433 . S
C746 H742 0.929 . S
C746 C748 1.378 . S
C746 C750 1.350 . S
C747 C750 1.463 . S
C747 C752 1.350 . S
C747 N755 1.427 . S
C748 H739 0.930 . S
C748 C746 1.378 . S
C748 C749 1.367 . S
C749 C748 1.367 . S
C749 C751 1.433 . S
C750 C746 1.350 . S
C750 C747 1.463 . S
C750 N754 1.427 . S
C751 H741 0.929 . S
C751 C749 1.433 . S
C751 N754 1.384 . S
C752 H743 0.929 . S
C752 C744 1.378 . S
C752 C747 1.350 . S
C753 H740 0.929 . S
C753 C745 1.433 . S
C753 N755 1.384 . S
N754 C750 1.427 . S
N754 C751 1.384 . S
N755 C747 1.427 . S
N755 C753 1.384 . S
H756 C762 0.930 . S
H757 C766 0.930 . S
H758 C771 0.929 . S
H759 C769 0.929 . S
H760 C764 0.929 . S
H761 C770 0.929 . S
C762 H756 0.930 . S
C762 C763 1.367 . S
C762 C770 1.378 . S
C763 C762 1.367 . S
C763 C771 1.433 . S
C764 H760 0.929 . S
C764 C766 1.378 . S
C764 C768 1.350 . S
C765 C768 1.463 . S
C765 C770 1.350 . S
C765 N773 1.427 . S
C766 H757 0.930 . S
C766 C764 1.378 . S
C766 C767 1.367 . S
C767 C766 1.367 . S
C767 C769 1.433 . S
C768 C764 1.350 . S
C768 C765 1.463 . S
C768 N772 1.427 . S
C769 H759 0.929 . S
C769 C767 1.433 . S
C769 N772 1.384 . S
C770 H761 0.929 . S
C770 C762 1.378 . S
C770 C765 1.350 . S
C771 H758 0.929 . S
C771 C763 1.433 . S
C771 N773 1.384 . S
N772 C768 1.427 . S
N772 C769 1.384 . S
N773 C765 1.427 . S
N773 C771 1.384 . S
H774 C780 0.930 . S
H775 C784 0.930 . S
H776 C789 0.929 . S
H777 C787 0.929 . S
H778 C782 0.929 . S
H779 C788 0.929 . S
C780 H774 0.930 . S
C780 C781 1.367 . S
C780 C788 1.378 . S
C781 C780 1.367 . S
C781 C789 1.433 . S
C782 H778 0.929 . S
C782 C784 1.378 . S
C782 C786 1.350 . S
C783 C786 1.463 . S
C783 C788 1.350 . S
C783 N791 1.427 . S
C784 H775 0.930 . S
C784 C782 1.378 . S
C784 C785 1.367 . S
C785 C784 1.367 . S
C785 C787 1.433 . S
C786 C782 1.350 . S
C786 C783 1.463 . S
C786 N790 1.427 . S
C787 H777 0.929 . S
C787 C785 1.433 . S
C787 N790 1.384 . S
C788 H779 0.929 . S
C788 C780 1.378 . S
C788 C783 1.350 . S
C789 H776 0.929 . S
C789 C781 1.433 . S
C789 N791 1.384 . S
N790 C786 1.427 . S
N790 C787 1.384 . S
N791 C783 1.427 . S
N791 C789 1.384 . S
H792 C798 0.930 . S
H793 C802 0.930 . S
H794 C807 0.929 . S
H795 C805 0.929 . S
H796 C800 0.929 . S
H797 C806 0.929 . S
C798 H792 0.930 . S
C798 C799 1.367 . S
C798 C806 1.378 . S
C799 C798 1.367 . S
C799 C807 1.433 . S
C800 H796 0.929 . S
C800 C802 1.378 . S
C800 C804 1.350 . S
C801 C804 1.463 . S
C801 C806 1.350 . S
C801 N809 1.427 . S
C802 H793 0.930 . S
C802 C800 1.378 . S
C802 C803 1.367 . S
C803 C802 1.367 . S
C803 C805 1.433 . S
C804 C800 1.350 . S
C804 C801 1.463 . S
C804 N808 1.427 . S
C805 H795 0.929 . S
C805 C803 1.433 . S
C805 N808 1.384 . S
C806 H797 0.929 . S
C806 C798 1.378 . S
C806 C801 1.350 . S
C807 H794 0.929 . S
C807 C799 1.433 . S
C807 N809 1.384 . S
N808 C804 1.427 . S
N808 C805 1.384 . S
N809 C801 1.427 . S
N809 C807 1.384 . S
H810 C816 0.930 . S
H811 C820 0.930 . S
H812 C825 0.929 . S
H813 C823 0.929 . S
H814 C818 0.929 . S
H815 C824 0.929 . S
C816 H810 0.930 . S
C816 C817 1.367 . S
C816 C824 1.378 . S
C817 C816 1.367 . S
C817 C825 1.433 . S
C818 H814 0.929 . S
C818 C820 1.378 . S
C818 C822 1.350 . S
C819 C822 1.463 . S
C819 C824 1.350 . S
C819 N827 1.427 . S
C820 H811 0.930 . S
C820 C818 1.378 . S
C820 C821 1.367 . S
C821 C820 1.367 . S
C821 C823 1.433 . S
C822 C818 1.350 . S
C822 C819 1.463 . S
C822 N826 1.427 . S
C823 H813 0.929 . S
C823 C821 1.433 . S
C823 N826 1.384 . S
C824 H815 0.929 . S
C824 C816 1.378 . S
C824 C819 1.350 . S
C825 H812 0.929 . S
C825 C817 1.433 . S
C825 N827 1.384 . S
N826 C822 1.427 . S
N826 C823 1.384 . S
N827 C819 1.427 . S
N827 C825 1.384 . S
H828 C834 0.930 . S
H829 C838 0.930 . S
H830 C843 0.929 . S
H831 C841 0.929 . S
H832 C836 0.929 . S
H833 C842 0.929 . S
C834 H828 0.930 . S
C834 C835 1.367 . S
C834 C842 1.378 . S
C835 C834 1.367 . S
C835 C843 1.433 . S
C836 H832 0.929 . S
C836 C838 1.378 . S
C836 C840 1.350 . S
C837 C840 1.463 . S
C837 C842 1.350 . S
C837 N845 1.427 . S
C838 H829 0.930 . S
C838 C836 1.378 . S
C838 C839 1.367 . S
C839 C838 1.367 . S
C839 C841 1.433 . S
C840 C836 1.350 . S
C840 C837 1.463 . S
C840 N844 1.427 . S
C841 H831 0.929 . S
C841 C839 1.433 . S
C841 N844 1.384 . S
C842 H833 0.929 . S
C842 C834 1.378 . S
C842 C837 1.350 . S
C843 H830 0.929 . S
C843 C835 1.433 . S
C843 N845 1.384 . S
N844 C840 1.427 . S
N844 C841 1.384 . S
N845 C837 1.427 . S
N845 C843 1.384 . S
H846 C852 0.930 . S
H847 C856 0.930 . S
H848 C861 0.929 . S
H849 C859 0.929 . S
H850 C854 0.929 . S
H851 C860 0.929 . S
C852 H846 0.930 . S
C852 C853 1.367 . S
C852 C860 1.378 . S
C853 C852 1.367 . S
C853 C861 1.433 . S
C854 H850 0.929 . S
C854 C856 1.378 . S
C854 C858 1.350 . S
C855 C858 1.463 . S
C855 C860 1.350 . S
C855 N863 1.427 . S
C856 H847 0.930 . S
C856 C854 1.378 . S
C856 C857 1.367 . S
C857 C856 1.367 . S
C857 C859 1.433 . S
C858 C854 1.350 . S
C858 C855 1.463 . S
C858 N862 1.427 . S
C859 H849 0.929 . S
C859 C857 1.433 . S
C859 N862 1.384 . S
C860 H851 0.929 . S
C860 C852 1.378 . S
C860 C855 1.350 . S
C861 H848 0.929 . S
C861 C853 1.433 . S
C861 N863 1.384 . S
N862 C858 1.427 . S
N862 C859 1.384 . S
N863 C855 1.427 . S
N863 C861 1.384 . S
H864 C870 0.930 . S
H865 C874 0.930 . S
H866 C879 0.929 . S
H867 C877 0.929 . S
H868 C872 0.929 . S
H869 C878 0.929 . S
C870 H864 0.930 . S
C870 C871 1.367 . S
C870 C878 1.378 . S
C871 C870 1.367 . S
C871 C879 1.433 . S
C872 H868 0.929 . S
C872 C874 1.378 . S
C872 C876 1.350 . S
C873 C876 1.463 . S
C873 C878 1.350 . S
C873 N881 1.427 . S
C874 H865 0.930 . S
C874 C872 1.378 . S
C874 C875 1.367 . S
C875 C874 1.367 . S
C875 C877 1.433 . S
C876 C872 1.350 . S
C876 C873 1.463 . S
C876 N880 1.427 . S
C877 H867 0.929 . S
C877 C875 1.433 . S
C877 N880 1.384 . S
C878 H869 0.929 . S
C878 C870 1.378 . S
C878 C873 1.350 . S
C879 H866 0.929 . S
C879 C871 1.433 . S
C879 N881 1.384 . S
N880 C876 1.427 . S
N880 C877 1.384 . S
N881 C873 1.427 . S
N881 C879 1.384 . S
H882 C888 0.930 . S
H883 C892 0.930 . S
H884 C897 0.929 . S
H885 C895 0.929 . S
H886 C890 0.929 . S
H887 C896 0.929 . S
C888 H882 0.930 . S
C888 C889 1.367 . S
C888 C896 1.378 . S
C889 C888 1.367 . S
C889 C897 1.433 . S
C890 H886 0.929 . S
C890 C892 1.378 . S
C890 C894 1.350 . S
C891 C894 1.463 . S
C891 C896 1.350 . S
C891 N899 1.427 . S
C892 H883 0.930 . S
C892 C890 1.378 . S
C892 C893 1.367 . S
C893 C892 1.367 . S
C893 C895 1.433 . S
C894 C890 1.350 . S
C894 C891 1.463 . S
C894 N898 1.427 . S
C895 H885 0.929 . S
C895 C893 1.433 . S
C895 N898 1.384 . S
C896 H887 0.929 . S
C896 C888 1.378 . S
C896 C891 1.350 . S
C897 H884 0.929 . S
C897 C889 1.433 . S
C897 N899 1.384 . S
N898 C894 1.427 . S
N898 C895 1.384 . S
N899 C891 1.427 . S
N899 C897 1.384 . S
H900 C906 0.930 . S
H901 C910 0.930 . S
H902 C915 0.929 . S
H903 C913 0.929 . S
H904 C908 0.929 . S
H905 C914 0.929 . S
C906 H900 0.930 . S
C906 C907 1.367 . S
C906 C914 1.378 . S
C907 C906 1.367 . S
C907 C915 1.433 . S
C908 H904 0.929 . S
C908 C910 1.378 . S
C908 C912 1.350 . S
C909 C912 1.463 . S
C909 C914 1.350 . S
C909 N917 1.427 . S
C910 H901 0.930 . S
C910 C908 1.378 . S
C910 C911 1.367 . S
C911 C910 1.367 . S
C911 C913 1.433 . S
C912 C908 1.350 . S
C912 C909 1.463 . S
C912 N916 1.427 . S
C913 H903 0.929 . S
C913 C911 1.433 . S
C913 N916 1.384 . S
C914 H905 0.929 . S
C914 C906 1.378 . S
C914 C909 1.350 . S
C915 H902 0.929 . S
C915 C907 1.433 . S
C915 N917 1.384 . S
N916 C912 1.427 . S
N916 C913 1.384 . S
N917 C909 1.427 . S
N917 C915 1.384 . S
H918 C924 0.930 . S
H919 C928 0.930 . S
H920 C933 0.929 . S
H921 C931 0.929 . S
H922 C926 0.929 . S
H923 C932 0.929 . S
C924 H918 0.930 . S
C924 C925 1.367 . S
C924 C932 1.378 . S
C925 C924 1.367 . S
C925 C933 1.433 . S
C926 H922 0.929 . S
C926 C928 1.378 . S
C926 C930 1.350 . S
C927 C930 1.463 . S
C927 C932 1.350 . S
C927 N935 1.427 . S
C928 H919 0.930 . S
C928 C926 1.378 . S
C928 C929 1.367 . S
C929 C928 1.367 . S
C929 C931 1.433 . S
C930 C926 1.350 . S
C930 C927 1.463 . S
C930 N934 1.427 . S
C931 H921 0.929 . S
C931 C929 1.433 . S
C931 N934 1.384 . S
C932 H923 0.929 . S
C932 C924 1.378 . S
C932 C927 1.350 . S
C933 H920 0.929 . S
C933 C925 1.433 . S
C933 N935 1.384 . S
N934 C930 1.427 . S
N934 C931 1.384 . S
N935 C927 1.427 . S
N935 C933 1.384 . S
H936 C942 0.930 . S
H937 C946 0.930 . S
H938 C951 0.929 . S
H939 C949 0.929 . S
H940 C944 0.929 . S
H941 C950 0.929 . S
C942 H936 0.930 . S
C942 C943 1.367 . S
C942 C950 1.378 . S
C943 C942 1.367 . S
C943 C951 1.433 . S
C944 H940 0.929 . S
C944 C946 1.378 . S
C944 C948 1.350 . S
C945 C948 1.463 . S
C945 C950 1.350 . S
C945 N953 1.427 . S
C946 H937 0.930 . S
C946 C944 1.378 . S
C946 C947 1.367 . S
C947 C946 1.367 . S
C947 C949 1.433 . S
C948 C944 1.350 . S
C948 C945 1.463 . S
C948 N952 1.427 . S
C949 H939 0.929 . S
C949 C947 1.433 . S
C949 N952 1.384 . S
C950 H941 0.929 . S
C950 C942 1.378 . S
C950 C945 1.350 . S
C951 H938 0.929 . S
C951 C943 1.433 . S
C951 N953 1.384 . S
N952 C948 1.427 . S
N952 C949 1.384 . S
N953 C945 1.427 . S
N953 C951 1.384 . S
H954 C960 0.930 . S
H955 C964 0.930 . S
H956 C969 0.929 . S
H957 C967 0.929 . S
H958 C962 0.929 . S
H959 C968 0.929 . S
C960 H954 0.930 . S
C960 C961 1.367 . S
C960 C968 1.378 . S
C961 C960 1.367 . S
C961 C969 1.433 . S
C962 H958 0.929 . S
C962 C964 1.378 . S
C962 C966 1.350 . S
C963 C966 1.463 . S
C963 C968 1.350 . S
C963 N971 1.427 . S
C964 H955 0.930 . S
C964 C962 1.378 . S
C964 C965 1.367 . S
C965 C964 1.367 . S
C965 C967 1.433 . S
C966 C962 1.350 . S
C966 C963 1.463 . S
C966 N970 1.427 . S
C967 H957 0.929 . S
C967 C965 1.433 . S
C967 N970 1.384 . S
C968 H959 0.929 . S
C968 C960 1.378 . S
C968 C963 1.350 . S
C969 H956 0.929 . S
C969 C961 1.433 . S
C969 N971 1.384 . S
N970 C966 1.427 . S
N970 C967 1.384 . S
N971 C963 1.427 . S
N971 C969 1.384 . S
H972 C978 0.930 . S
H973 C982 0.930 . S
H974 C987 0.929 . S
H975 C985 0.929 . S
H976 C980 0.929 . S
H977 C986 0.929 . S
C978 H972 0.930 . S
C978 C979 1.367 . S
C978 C986 1.378 . S
C979 C978 1.367 . S
C979 C987 1.433 . S
C980 H976 0.929 . S
C980 C982 1.378 . S
C980 C984 1.350 . S
C981 C984 1.463 . S
C981 C986 1.350 . S
C981 N989 1.427 . S
C982 H973 0.930 . S
C982 C980 1.378 . S
C982 C983 1.367 . S
C983 C982 1.367 . S
C983 C985 1.433 . S
C984 C980 1.350 . S
C984 C981 1.463 . S
C984 N988 1.427 . S
C985 H975 0.929 . S
C985 C983 1.433 . S
C985 N988 1.384 . S
C986 H977 0.929 . S
C986 C978 1.378 . S
C986 C981 1.350 . S
C987 H974 0.929 . S
C987 C979 1.433 . S
C987 N989 1.384 . S
N988 C984 1.427 . S
N988 C985 1.384 . S
N989 C981 1.427 . S
N989 C987 1.384 . S
H990 C996 0.930 . S
H991 C1000 0.930 . S
H992 C1005 0.929 . S
H993 C1003 0.929 . S
H994 C998 0.929 . S
H995 C1004 0.929 . S
C996 H990 0.930 . S
C996 C997 1.367 . S
C996 C1004 1.378 . S
C997 C996 1.367 . S
C997 C1005 1.433 . S
C998 H994 0.929 . S
C998 C1000 1.378 . S
C998 C1002 1.350 . S
C999 C1002 1.463 . S
C999 C1004 1.350 . S
C999 N1007 1.427 . S
C1000 H991 0.930 . S
C1000 C998 1.378 . S
C1000 C1001 1.367 . S
C1001 C1000 1.367 . S
C1001 C1003 1.433 . S
C1002 C998 1.350 . S
C1002 C999 1.463 . S
C1002 N1006 1.427 . S
C1003 H993 0.929 . S
C1003 C1001 1.433 . S
C1003 N1006 1.384 . S
C1004 H995 0.929 . S
C1004 C996 1.378 . S
C1004 C999 1.350 . S
C1005 H992 0.929 . S
C1005 C997 1.433 . S
C1005 N1007 1.384 . S
N1006 C1002 1.427 . S
N1006 C1003 1.384 . S
N1007 C999 1.427 . S
N1007 C1005 1.384 . S
H1008 C1014 0.930 . S
H1009 C1018 0.930 . S
H1010 C1023 0.929 . S
H1011 C1021 0.929 . S
H1012 C1016 0.929 . S
H1013 C1022 0.929 . S
C1014 H1008 0.930 . S
C1014 C1015 1.367 . S
C1014 C1022 1.378 . S
C1015 C1014 1.367 . S
C1015 C1023 1.433 . S
C1016 H1012 0.929 . S
C1016 C1018 1.378 . S
C1016 C1020 1.350 . S
C1017 C1020 1.463 . S
C1017 C1022 1.350 . S
C1017 N1025 1.427 . S
C1018 H1009 0.930 . S
C1018 C1016 1.378 . S
C1018 C1019 1.367 . S
C1019 C1018 1.367 . S
C1019 C1021 1.433 . S
C1020 C1016 1.350 . S
C1020 C1017 1.463 . S
C1020 N1024 1.427 . S
C1021 H1011 0.929 . S
C1021 C1019 1.433 . S
C1021 N1024 1.384 . S
C1022 H1013 0.929 . S
C1022 C1014 1.378 . S
C1022 C1017 1.350 . S
C1023 H1010 0.929 . S
C1023 C1015 1.433 . S
C1023 N1025 1.384 . S
N1024 C1020 1.427 . S
N1024 C1021 1.384 . S
N1025 C1017 1.427 . S
N1025 C1023 1.384 . S
H1026 C1032 0.930 . S
H1027 C1036 0.930 . S
H1028 C1041 0.929 . S
H1029 C1039 0.929 . S
H1030 C1034 0.929 . S
H1031 C1040 0.929 . S
C1032 H1026 0.930 . S
C1032 C1033 1.367 . S
C1032 C1040 1.378 . S
C1033 C1032 1.367 . S
C1033 C1041 1.433 . S
C1034 H1030 0.929 . S
C1034 C1036 1.378 . S
C1034 C1038 1.350 . S
C1035 C1038 1.463 . S
C1035 C1040 1.350 . S
C1035 N1043 1.427 . S
C1036 H1027 0.930 . S
C1036 C1034 1.378 . S
C1036 C1037 1.367 . S
C1037 C1036 1.367 . S
C1037 C1039 1.433 . S
C1038 C1034 1.350 . S
C1038 C1035 1.463 . S
C1038 N1042 1.427 . S
C1039 H1029 0.929 . S
C1039 C1037 1.433 . S
C1039 N1042 1.384 . S
C1040 H1031 0.929 . S
C1040 C1032 1.378 . S
C1040 C1035 1.350 . S
C1041 H1028 0.929 . S
C1041 C1033 1.433 . S
C1041 N1043 1.384 . S
N1042 C1038 1.427 . S
N1042 C1039 1.384 . S
N1043 C1035 1.427 . S
N1043 C1041 1.384 . S
H1044 C1050 0.930 . S
H1045 C1054 0.930 . S
H1046 C1059 0.929 . S
H1047 C1057 0.929 . S
H1048 C1052 0.929 . S
H1049 C1058 0.929 . S
C1050 H1044 0.930 . S
C1050 C1051 1.367 . S
C1050 C1058 1.378 . S
C1051 C1050 1.367 . S
C1051 C1059 1.433 . S
C1052 H1048 0.929 . S
C1052 C1054 1.378 . S
C1052 C1056 1.350 . S
C1053 C1056 1.463 . S
C1053 C1058 1.350 . S
C1053 N1061 1.427 . S
C1054 H1045 0.930 . S
C1054 C1052 1.378 . S
C1054 C1055 1.367 . S
C1055 C1054 1.367 . S
C1055 C1057 1.433 . S
C1056 C1052 1.350 . S
C1056 C1053 1.463 . S
C1056 N1060 1.427 . S
C1057 H1047 0.929 . S
C1057 C1055 1.433 . S
C1057 N1060 1.384 . S
C1058 H1049 0.929 . S
C1058 C1050 1.378 . S
C1058 C1053 1.350 . S
C1059 H1046 0.929 . S
C1059 C1051 1.433 . S
C1059 N1061 1.384 . S
N1060 C1056 1.427 . S
N1060 C1057 1.384 . S
N1061 C1053 1.427 . S
N1061 C1059 1.384 . S
H1062 C1068 0.930 . S
H1063 C1072 0.930 . S
H1064 C1077 0.929 . S
H1065 C1075 0.929 . S
H1066 C1070 0.929 . S
H1067 C1076 0.929 . S
C1068 H1062 0.930 . S
C1068 C1069 1.367 . S
C1068 C1076 1.378 . S
C1069 C1068 1.367 . S
C1069 C1077 1.433 . S
C1070 H1066 0.929 . S
C1070 C1072 1.378 . S
C1070 C1074 1.350 . S
C1071 C1074 1.463 . S
C1071 C1076 1.350 . S
C1071 N1079 1.427 . S
C1072 H1063 0.930 . S
C1072 C1070 1.378 . S
C1072 C1073 1.367 . S
C1073 C1072 1.367 . S
C1073 C1075 1.433 . S
C1074 C1070 1.350 . S
C1074 C1071 1.463 . S
C1074 N1078 1.427 . S
C1075 H1065 0.929 . S
C1075 C1073 1.433 . S
C1075 N1078 1.384 . S
C1076 H1067 0.929 . S
C1076 C1068 1.378 . S
C1076 C1071 1.350 . S
C1077 H1064 0.929 . S
C1077 C1069 1.433 . S
C1077 N1079 1.384 . S
N1078 C1074 1.427 . S
N1078 C1075 1.384 . S
N1079 C1071 1.427 . S
N1079 C1077 1.384 . S
H1080 C1086 0.930 . S
H1081 C1090 0.930 . S
H1082 C1095 0.929 . S
H1083 C1093 0.929 . S
H1084 C1088 0.929 . S
H1085 C1094 0.929 . S
C1086 H1080 0.930 . S
C1086 C1087 1.367 . S
C1086 C1094 1.378 . S
C1087 C1086 1.367 . S
C1087 C1095 1.433 . S
C1088 H1084 0.929 . S
C1088 C1090 1.378 . S
C1088 C1092 1.350 . S
C1089 C1092 1.463 . S
C1089 C1094 1.350 . S
C1089 N1097 1.427 . S
C1090 H1081 0.930 . S
C1090 C1088 1.378 . S
C1090 C1091 1.367 . S
C1091 C1090 1.367 . S
C1091 C1093 1.433 . S
C1092 C1088 1.350 . S
C1092 C1089 1.463 . S
C1092 N1096 1.427 . S
C1093 H1083 0.929 . S
C1093 C1091 1.433 . S
C1093 N1096 1.384 . S
C1094 H1085 0.929 . S
C1094 C1086 1.378 . S
C1094 C1089 1.350 . S
C1095 H1082 0.929 . S
C1095 C1087 1.433 . S
C1095 N1097 1.384 . S
N1096 C1092 1.427 . S
N1096 C1093 1.384 . S
N1097 C1089 1.427 . S
N1097 C1095 1.384 . S
H1098 C1104 0.930 . S
H1099 C1108 0.930 . S
H1100 C1113 0.929 . S
H1101 C1111 0.929 . S
H1102 C1106 0.929 . S
H1103 C1112 0.929 . S
C1104 H1098 0.930 . S
C1104 C1105 1.367 . S
C1104 C1112 1.378 . S
C1105 C1104 1.367 . S
C1105 C1113 1.433 . S
C1106 H1102 0.929 . S
C1106 C1108 1.378 . S
C1106 C1110 1.350 . S
C1107 C1110 1.463 . S
C1107 C1112 1.350 . S
C1107 N1115 1.427 . S
C1108 H1099 0.930 . S
C1108 C1106 1.378 . S
C1108 C1109 1.367 . S
C1109 C1108 1.367 . S
C1109 C1111 1.433 . S
C1110 C1106 1.350 . S
C1110 C1107 1.463 . S
C1110 N1114 1.427 . S
C1111 H1101 0.929 . S
C1111 C1109 1.433 . S
C1111 N1114 1.384 . S
C1112 H1103 0.929 . S
C1112 C1104 1.378 . S
C1112 C1107 1.350 . S
C1113 H1100 0.929 . S
C1113 C1105 1.433 . S
C1113 N1115 1.384 . S
N1114 C1110 1.427 . S
N1114 C1111 1.384 . S
N1115 C1107 1.427 . S
N1115 C1113 1.384 . S
H1116 C1122 0.930 . S
H1117 C1126 0.930 . S
H1118 C1131 0.929 . S
H1119 C1129 0.929 . S
H1120 C1124 0.929 . S
H1121 C1130 0.929 . S
C1122 H1116 0.930 . S
C1122 C1123 1.367 . S
C1122 C1130 1.378 . S
C1123 C1122 1.367 . S
C1123 C1131 1.433 . S
C1124 H1120 0.929 . S
C1124 C1126 1.378 . S
C1124 C1128 1.350 . S
C1125 C1128 1.463 . S
C1125 C1130 1.350 . S
C1125 N1133 1.427 . S
C1126 H1117 0.930 . S
C1126 C1124 1.378 . S
C1126 C1127 1.367 . S
C1127 C1126 1.367 . S
C1127 C1129 1.433 . S
C1128 C1124 1.350 . S
C1128 C1125 1.463 . S
C1128 N1132 1.427 . S
C1129 H1119 0.929 . S
C1129 C1127 1.433 . S
C1129 N1132 1.384 . S
C1130 H1121 0.929 . S
C1130 C1122 1.378 . S
C1130 C1125 1.350 . S
C1131 H1118 0.929 . S
C1131 C1123 1.433 . S
C1131 N1133 1.384 . S
N1132 C1128 1.427 . S
N1132 C1129 1.384 . S
N1133 C1125 1.427 . S
N1133 C1131 1.384 . S
H1134 C1140 0.930 . S
H1135 C1144 0.930 . S
H1136 C1149 0.929 . S
H1137 C1147 0.929 . S
H1138 C1142 0.929 . S
H1139 C1148 0.929 . S
C1140 H1134 0.930 . S
C1140 C1141 1.367 . S
C1140 C1148 1.378 . S
C1141 C1140 1.367 . S
C1141 C1149 1.433 . S
C1142 H1138 0.929 . S
C1142 C1144 1.378 . S
C1142 C1146 1.350 . S
C1143 C1146 1.463 . S
C1143 C1148 1.350 . S
C1143 N1151 1.427 . S
C1144 H1135 0.930 . S
C1144 C1142 1.378 . S
C1144 C1145 1.367 . S
C1145 C1144 1.367 . S
C1145 C1147 1.433 . S
C1146 C1142 1.350 . S
C1146 C1143 1.463 . S
C1146 N1150 1.427 . S
C1147 H1137 0.929 . S
C1147 C1145 1.433 . S
C1147 N1150 1.384 . S
C1148 H1139 0.929 . S
C1148 C1140 1.378 . S
C1148 C1143 1.350 . S
C1149 H1136 0.929 . S
C1149 C1141 1.433 . S
C1149 N1151 1.384 . S
N1150 C1146 1.427 . S
N1150 C1147 1.384 . S
N1151 C1143 1.427 . S
N1151 C1149 1.384 . S
H1152 C1158 0.930 . S
H1153 C1162 0.930 . S
H1154 C1167 0.929 . S
H1155 C1165 0.929 . S
H1156 C1160 0.929 . S
H1157 C1166 0.929 . S
C1158 H1152 0.930 . S
C1158 C1159 1.367 . S
C1158 C1166 1.378 . S
C1159 C1158 1.367 . S
C1159 C1167 1.433 . S
C1160 H1156 0.929 . S
C1160 C1162 1.378 . S
C1160 C1164 1.350 . S
C1161 C1164 1.463 . S
C1161 C1166 1.350 . S
C1161 N1169 1.427 . S
C1162 H1153 0.930 . S
C1162 C1160 1.378 . S
C1162 C1163 1.367 . S
C1163 C1162 1.367 . S
C1163 C1165 1.433 . S
C1164 C1160 1.350 . S
C1164 C1161 1.463 . S
C1164 N1168 1.427 . S
C1165 H1155 0.929 . S
C1165 C1163 1.433 . S
C1165 N1168 1.384 . S
C1166 H1157 0.929 . S
C1166 C1158 1.378 . S
C1166 C1161 1.350 . S
C1167 H1154 0.929 . S
C1167 C1159 1.433 . S
C1167 N1169 1.384 . S
N1168 C1164 1.427 . S
N1168 C1165 1.384 . S
N1169 C1161 1.427 . S
N1169 C1167 1.384 . S
H1170 C1176 0.930 . S
H1171 C1180 0.930 . S
H1172 C1185 0.929 . S
H1173 C1183 0.929 . S
H1174 C1178 0.929 . S
H1175 C1184 0.929 . S
C1176 H1170 0.930 . S
C1176 C1177 1.367 . S
C1176 C1184 1.378 . S
C1177 C1176 1.367 . S
C1177 C1185 1.433 . S
C1178 H1174 0.929 . S
C1178 C1180 1.378 . S
C1178 C1182 1.350 . S
C1179 C1182 1.463 . S
C1179 C1184 1.350 . S
C1179 N1187 1.427 . S
C1180 H1171 0.930 . S
C1180 C1178 1.378 . S
C1180 C1181 1.367 . S
C1181 C1180 1.367 . S
C1181 C1183 1.433 . S
C1182 C1178 1.350 . S
C1182 C1179 1.463 . S
C1182 N1186 1.427 . S
C1183 H1173 0.929 . S
C1183 C1181 1.433 . S
C1183 N1186 1.384 . S
C1184 H1175 0.929 . S
C1184 C1176 1.378 . S
C1184 C1179 1.350 . S
C1185 H1172 0.929 . S
C1185 C1177 1.433 . S
C1185 N1187 1.384 . S
N1186 C1182 1.427 . S
N1186 C1183 1.384 . S
N1187 C1179 1.427 . S
N1187 C1185 1.384 . S
H1188 C1194 0.930 . S
H1189 C1198 0.930 . S
H1190 C1203 0.929 . S
H1191 C1201 0.929 . S
H1192 C1196 0.929 . S
H1193 C1202 0.929 . S
C1194 H1188 0.930 . S
C1194 C1195 1.367 . S
C1194 C1202 1.378 . S
C1195 C1194 1.367 . S
C1195 C1203 1.433 . S
C1196 H1192 0.929 . S
C1196 C1198 1.378 . S
C1196 C1200 1.350 . S
C1197 C1200 1.463 . S
C1197 C1202 1.350 . S
C1197 N1205 1.427 . S
C1198 H1189 0.930 . S
C1198 C1196 1.378 . S
C1198 C1199 1.367 . S
C1199 C1198 1.367 . S
C1199 C1201 1.433 . S
C1200 C1196 1.350 . S
C1200 C1197 1.463 . S
C1200 N1204 1.427 . S
C1201 H1191 0.929 . S
C1201 C1199 1.433 . S
C1201 N1204 1.384 . S
C1202 H1193 0.929 . S
C1202 C1194 1.378 . S
C1202 C1197 1.350 . S
C1203 H1190 0.929 . S
C1203 C1195 1.433 . S
C1203 N1205 1.384 . S
N1204 C1200 1.427 . S
N1204 C1201 1.384 . S
N1205 C1197 1.427 . S
N1205 C1203 1.384 . S
H1206 C1212 0.930 . S
H1207 C1216 0.930 . S
H1208 C1221 0.929 . S
H1209 C1219 0.929 . S
H1210 C1214 0.929 . S
H1211 C1220 0.929 . S
C1212 H1206 0.930 . S
C1212 C1213 1.367 . S
C1212 C1220 1.378 . S
C1213 C1212 1.367 . S
C1213 C1221 1.433 . S
C1214 H1210 0.929 . S
C1214 C1216 1.378 . S
C1214 C1218 1.350 . S
C1215 C1218 1.463 . S
C1215 C1220 1.350 . S
C1215 N1223 1.427 . S
C1216 H1207 0.930 . S
C1216 C1214 1.378 . S
C1216 C1217 1.367 . S
C1217 C1216 1.367 . S
C1217 C1219 1.433 . S
C1218 C1214 1.350 . S
C1218 C1215 1.463 . S
C1218 N1222 1.427 . S
C1219 H1209 0.929 . S
C1219 C1217 1.433 . S
C1219 N1222 1.384 . S
C1220 H1211 0.929 . S
C1220 C1212 1.378 . S
C1220 C1215 1.350 . S
C1221 H1208 0.929 . S
C1221 C1213 1.433 . S
C1221 N1223 1.384 . S
N1222 C1218 1.427 . S
N1222 C1219 1.384 . S
N1223 C1215 1.427 . S
N1223 C1221 1.384 . S
H1224 C1230 0.930 . S
H1225 C1234 0.930 . S
H1226 C1239 0.929 . S
H1227 C1237 0.929 . S
H1228 C1232 0.929 . S
H1229 C1238 0.929 . S
C1230 H1224 0.930 . S
C1230 C1231 1.367 . S
C1230 C1238 1.378 . S
C1231 C1230 1.367 . S
C1231 C1239 1.433 . S
C1232 H1228 0.929 . S
C1232 C1234 1.378 . S
C1232 C1236 1.350 . S
C1233 C1236 1.463 . S
C1233 C1238 1.350 . S
C1233 N1241 1.427 . S
C1234 H1225 0.930 . S
C1234 C1232 1.378 . S
C1234 C1235 1.367 . S
C1235 C1234 1.367 . S
C1235 C1237 1.433 . S
C1236 C1232 1.350 . S
C1236 C1233 1.463 . S
C1236 N1240 1.427 . S
C1237 H1227 0.929 . S
C1237 C1235 1.433 . S
C1237 N1240 1.384 . S
C1238 H1229 0.929 . S
C1238 C1230 1.378 . S
C1238 C1233 1.350 . S
C1239 H1226 0.929 . S
C1239 C1231 1.433 . S
C1239 N1241 1.384 . S
N1240 C1236 1.427 . S
N1240 C1237 1.384 . S
N1241 C1233 1.427 . S
N1241 C1239 1.384 . S
H1242 C1248 0.930 . S
H1243 C1252 0.930 . S
H1244 C1257 0.929 . S
H1245 C1255 0.929 . S
H1246 C1250 0.929 . S
H1247 C1256 0.929 . S
C1248 H1242 0.930 . S
C1248 C1249 1.367 . S
C1248 C1256 1.378 . S
C1249 C1248 1.367 . S
C1249 C1257 1.433 . S
C1250 H1246 0.929 . S
C1250 C1252 1.378 . S
C1250 C1254 1.350 . S
C1251 C1254 1.463 . S
C1251 C1256 1.350 . S
C1251 N1259 1.427 . S
C1252 H1243 0.930 . S
C1252 C1250 1.378 . S
C1252 C1253 1.367 . S
C1253 C1252 1.367 . S
C1253 C1255 1.433 . S
C1254 C1250 1.350 . S
C1254 C1251 1.463 . S
C1254 N1258 1.427 . S
C1255 H1245 0.929 . S
C1255 C1253 1.433 . S
C1255 N1258 1.384 . S
C1256 H1247 0.929 . S
C1256 C1248 1.378 . S
C1256 C1251 1.350 . S
C1257 H1244 0.929 . S
C1257 C1249 1.433 . S
C1257 N1259 1.384 . S
N1258 C1254 1.427 . S
N1258 C1255 1.384 . S
N1259 C1251 1.427 . S
N1259 C1257 1.384 . S
H1260 C1266 0.930 . S
H1261 C1270 0.930 . S
H1262 C1275 0.929 . S
H1263 C1273 0.929 . S
H1264 C1268 0.929 . S
H1265 C1274 0.929 . S
C1266 H1260 0.930 . S
C1266 C1267 1.367 . S
C1266 C1274 1.378 . S
C1267 C1266 1.367 . S
C1267 C1275 1.433 . S
C1268 H1264 0.929 . S
C1268 C1270 1.378 . S
C1268 C1272 1.350 . S
C1269 C1272 1.463 . S
C1269 C1274 1.350 . S
C1269 N1277 1.427 . S
C1270 H1261 0.930 . S
C1270 C1268 1.378 . S
C1270 C1271 1.367 . S
C1271 C1270 1.367 . S
C1271 C1273 1.433 . S
C1272 C1268 1.350 . S
C1272 C1269 1.463 . S
C1272 N1276 1.427 . S
C1273 H1263 0.929 . S
C1273 C1271 1.433 . S
C1273 N1276 1.384 . S
C1274 H1265 0.929 . S
C1274 C1266 1.378 . S
C1274 C1269 1.350 . S
C1275 H1262 0.929 . S
C1275 C1267 1.433 . S
C1275 N1277 1.384 . S
N1276 C1272 1.427 . S
N1276 C1273 1.384 . S
N1277 C1269 1.427 . S
N1277 C1275 1.384 . S
H1278 C1284 0.930 . S
H1279 C1288 0.930 . S
H1280 C1293 0.929 . S
H1281 C1291 0.929 . S
H1282 C1286 0.929 . S
H1283 C1292 0.929 . S
C1284 H1278 0.930 . S
C1284 C1285 1.367 . S
C1284 C1292 1.378 . S
C1285 C1284 1.367 . S
C1285 C1293 1.433 . S
C1286 H1282 0.929 . S
C1286 C1288 1.378 . S
C1286 C1290 1.350 . S
C1287 C1290 1.463 . S
C1287 C1292 1.350 . S
C1287 N1295 1.427 . S
C1288 H1279 0.930 . S
C1288 C1286 1.378 . S
C1288 C1289 1.367 . S
C1289 C1288 1.367 . S
C1289 C1291 1.433 . S
C1290 C1286 1.350 . S
C1290 C1287 1.463 . S
C1290 N1294 1.427 . S
C1291 H1281 0.929 . S
C1291 C1289 1.433 . S
C1291 N1294 1.384 . S
C1292 H1283 0.929 . S
C1292 C1284 1.378 . S
C1292 C1287 1.350 . S
C1293 H1280 0.929 . S
C1293 C1285 1.433 . S
C1293 N1295 1.384 . S
N1294 C1290 1.427 . S
N1294 C1291 1.384 . S
N1295 C1287 1.427 . S
N1295 C1293 1.384 . S
C443 C257 0.958 . S
C439 N6 0.885 . S
C461 C262 1.880 . S
C457 C57 1.893 . S
C479 C263 1.333 . S
C475 C61 1.371 . S
C493 N96 0.595 . S
C497 C267 0.516 . S
C511 C136 1.897 . S
C515 C270 1.875 . S
C533 C271 1.332 . S
C529 C160 1.363 . S
C547 N194 0.623 . S
C551 C248 0.510 . S
C565 N224 0.890 . S
C569 C264 0.961 . S
C587 C302 1.809 . S
C583 C10 1.865 . S
C601 N36 0.872 . S
C605 C328 0.876 . S
C623 C280 0.551 . S
C619 N74 0.600 . S
C641 C335 1.296 . S
C637 C100 1.347 . S
C655 C121 1.360 . S
C659 C289 1.313 . S
C677 C331 1.760 . S
C673 C177 1.801 . S
C691 C196 2.212 . S
C695 C295 2.171 . S
C709 C226 1.880 . S
C713 C326 1.848 . S
C727 C27 1.883 . S
C731 C334 1.836 . S
C745 N134 0.844 . S
C749 C321 0.850 . S
C767 C299 0.555 . S
C763 N156 0.575 . S
C785 C327 1.308 . S
C781 C181 1.360 . S
C799 C211 1.866 . S
C803 C294 1.801 . S
C817 C76 1.796 . S
C821 C312 1.755 . S
C839 C303 2.171 . S
C835 C117 2.212 . S
C853 C40 1.365 . S
C857 C296 1.311 . S
C871 N216 0.899 . S
C875 C358 0.911 . S
C889 C147 1.872 . S
C893 C353 1.833 . S
C911 C367 1.303 . S
C907 C151 1.342 . S
C929 C344 0.523 . S
C925 N186 0.586 . S
C943 C46 1.872 . S
C947 C360 1.830 . S
C965 C359 1.288 . S
C961 C70 1.339 . S
C979 N104 0.568 . S
C983 C363 0.563 . S
C997 N14 0.899 . S
C1001 C366 0.908 . S
C1015 C220 1.864 . S
C1019 C392 1.847 . S
C1037 C408 0.877 . S
C1033 N126 0.863 . S
C1051 N164 0.621 . S
C1055 C390 0.530 . S
C1069 C190 1.381 . S
C1073 C423 1.332 . S
C1091 C399 1.353 . S
C1087 C31 1.368 . S
C1105 C87 1.828 . S
C1109 C417 1.789 . S
C1127 C395 2.175 . S
C1123 C106 2.208 . S
C1145 C430 1.861 . S
C1141 C16 1.908 . S
C1163 C422 1.860 . S
C1159 C237 1.904 . S
C1177 N44 0.857 . S
C1181 C427 0.880 . S
C1195 N66 0.602 . S
C1199 C398 0.531 . S
C1217 C431 1.335 . S
C1213 C91 1.383 . S
C1231 C1 1.860 . S
C1235 C385 1.846 . S
C1249 C166 1.823 . S
C1253 C424 1.777 . S
C1271 C376 2.179 . S
C1267 C207 2.209 . S
C1289 C391 1.351 . S
C1285 C130 1.368 . S
