# Generated by pormake.
# Topology anh, (6,3)-cn, num edge types: 1
# Building blocks:
#     Node 0, Type 0, BuildingBlock: BETDAH_clean_sbu_0, # of connection points: 6
#     Node 1, Type 0, BuildingBlock: BETDAH_clean_sbu_0, # of connection points: 6
#     Node 2, Type 0, BuildingBlock: BETDAH_clean_sbu_0, # of connection points: 6
#     Node 3, Type 1, BuildingBlock: WUSLED_clean_sbu_0, # of connection points: 3
#     Node 4, Type 1, BuildingBlock: WUSLED_clean_sbu_0, # of connection points: 3
#     Node 5, Type 1, BuildingBlock: WUSLED_clean_sbu_0, # of connection points: 3
#     Node 6, Type 1, BuildingBlock: WUSLED_clean_sbu_0, # of connection points: 3
#     Node 7, Type 1, BuildingBlock: WUSLED_clean_sbu_0, # of connection points: 3
#     Node 8, Type 1, BuildingBlock: WUSLED_clean_sbu_0, # of connection points: 3
#     Edge 9, Type (0, 1), BuildingBlock: ZUJKAS_clean_linker_0, # of connection points: 2
#     Edge 10, Type (0, 1), BuildingBlock: ZUJKAS_clean_linker_0, # of connection points: 2
#     Edge 11, Type (0, 1), BuildingBlock: ZUJKAS_clean_linker_0, # of connection points: 2
#     Edge 12, Type (0, 1), BuildingBlock: ZUJKAS_clean_linker_0, # of connection points: 2
#     Edge 13, Type (0, 1), BuildingBlock: ZUJKAS_clean_linker_0, # of connection points: 2
#     Edge 14, Type (0, 1), BuildingBlock: ZUJKAS_clean_linker_0, # of connection points: 2
#     Edge 15, Type (0, 1), BuildingBlock: ZUJKAS_clean_linker_0, # of connection points: 2
#     Edge 16, Type (0, 1), BuildingBlock: ZUJKAS_clean_linker_0, # of connection points: 2
#     Edge 17, Type (0, 1), BuildingBlock: ZUJKAS_clean_linker_0, # of connection points: 2
#     Edge 18, Type (0, 1), BuildingBlock: ZUJKAS_clean_linker_0, # of connection points: 2
#     Edge 19, Type (0, 1), BuildingBlock: ZUJKAS_clean_linker_0, # of connection points: 2
#     Edge 20, Type (0, 1), BuildingBlock: ZUJKAS_clean_linker_0, # of connection points: 2
#     Edge 21, Type (0, 1), BuildingBlock: ZUJKAS_clean_linker_0, # of connection points: 2
#     Edge 22, Type (0, 1), BuildingBlock: ZUJKAS_clean_linker_0, # of connection points: 2
#     Edge 23, Type (0, 1), BuildingBlock: ZUJKAS_clean_linker_0, # of connection points: 2
#     Edge 24, Type (0, 1), BuildingBlock: ZUJKAS_clean_linker_0, # of connection points: 2
#     Edge 25, Type (0, 1), BuildingBlock: ZUJKAS_clean_linker_0, # of connection points: 2
#     Edge 26, Type (0, 1), BuildingBlock: ZUJKAS_clean_linker_0, # of connection points: 2
# Relax obj value: 0.154
# Max RMSD: 0.194
# Mean RMSD: 0.144
data_MOF--net-anh--node1-BETDAH_clean_sbu_0--node2-WUSLED_clean_sbu_0--edge1-ZUJKAS_clean_linker_0
_symmetry_space_group_name_H-M    P1
_symmetry_Int_Tables_number       1
_symmetry_cell_setting            triclinic
loop_
_symmetry_equiv_pos_as_xyz
'x, y, z'
_cell_length_a     48.596952
_cell_length_b     54.693748
_cell_length_c     85.074352
_cell_angle_alpha  92.458792
_cell_angle_beta   89.782206
_cell_angle_gamma 126.32022
loop_
_atom_site_label
_atom_site_type_symbol
_atom_site_fract_x
_atom_site_fract_y
_atom_site_fract_z
_atom_type_partial_charge
Ho0 Ho 0.08757 0.50821 0.16632 0.0
Ho1 Ho 0.04923 0.53708 0.17656 0.0
C2 C 0.13121 0.58193 0.17433 0.0
C3 C 0.12876 0.49846 0.15436 0.0
C4 C 0.16286 0.5117 0.16091 0.0
C5 C 0.18699 0.51111 0.1523 0.0
C6 C 0.21911 0.52346 0.1591 0.0
C7 C 0.22726 0.53645 0.17459 0.0
C8 C 0.20325 0.53771 0.18298 0.0
C9 C 0.17135 0.52556 0.17615 0.0
C10 C 0.07726 0.51016 0.19743 0.0
C11 C 1.00708 0.46425 0.16921 0.0
C12 C 1.01782 0.55263 0.19371 0.0
C13 C 0.9824 0.54208 0.19366 0.0
C14 C 0.96858 0.54514 0.20742 0.0
C15 C 0.93352 0.53113 0.20807 0.0
C16 C 0.91205 0.51375 0.19498 0.0
C17 C 0.92631 0.5116 0.18107 0.0
C18 C 0.96122 0.52555 0.18044 0.0
C19 C 0.0468 0.52774 0.14443 0.0
O20 O 0.13112 0.55858 0.16922 0.0
O21 O 0.10306 0.57888 0.17838 0.0
O22 O 0.10387 0.47924 0.16339 0.0
O23 O 0.12479 0.51816 0.14878 0.0
O24 O 0.07862 0.4894 0.1904 0.0
O25 O 0.08444 0.52999 0.18786 0.0
O26 O 1.00936 0.48654 0.17748 0.0
O27 O 1.03294 0.4688 0.16103 0.0
O28 O 1.03547 0.56756 0.18146 0.0
O29 O 1.02183 0.53196 0.19755 0.0
O30 O 1.03357 0.53983 0.1516 0.0
O31 O 0.05946 0.52164 0.15496 0.0
H32 H 0.18083 0.5007 0.14049 0.0
H33 H 0.23707 0.52179 0.15249 0.0
H34 H 0.20895 0.54761 0.19489 0.0
H35 H 0.153 0.5265 0.1829 0.0
H36 H 0.98469 0.55748 0.21778 0.0
H37 H 0.92307 0.533 0.21894 0.0
H38 H 0.91039 0.4988 0.17072 0.0
H39 H 0.97154 0.52267 0.16979 0.0
Ho40 Ho 0.57188 1.00362 0.4961 0.0
Ho41 Ho 0.53 0.02726 0.49274 0.0
C42 C 0.48947 0.95603 0.49098 0.0
C43 C 0.59855 0.9761 0.50337 0.0
C44 C 0.58823 0.94504 0.50557 0.0
C45 C 0.56598 0.92705 0.51747 0.0
C46 C 0.55854 0.89853 0.51986 0.0
C47 C 0.57304 0.88741 0.51036 0.0
C48 C 0.59478 0.90527 0.49831 0.0
C49 C 0.60237 0.93378 0.496 0.0
C50 C 0.56607 0.0164 0.46652 0.0
C51 C 0.6132 0.0751 0.49622 0.0
C52 C 0.50582 0.05655 0.48501 0.0
C53 C 0.51366 0.08674 0.48922 0.0
C54 C 0.53627 0.11195 0.48025 0.0
C55 C 0.54337 0.14032 0.48416 0.0
C56 C 0.52799 0.14414 0.49713 0.0
C57 C 0.50521 0.11889 0.50602 0.0
C58 C 0.49803 0.09053 0.50208 0.0
C59 C 0.53666 0.0161 0.52267 0.0
O60 O 0.5174 0.96104 0.49728 0.0
O61 O 0.48963 0.97852 0.48578 0.0
O62 O 0.59645 0.98252 0.48901 0.0
O63 O 0.58901 0.9878 0.51378 0.0
O64 O 0.5938 0.02204 0.4726 0.0
O65 O 0.54232 1.00335 0.47623 0.0
O66 O 0.58399 0.06991 0.49189 0.0
O67 O 0.61467 0.05295 0.50049 0.0
O68 O 0.49309 0.03688 0.49602 0.0
O69 O 0.52836 0.05618 0.47676 0.0
O70 O 0.51011 0.01314 0.51703 0.0
O71 O 0.55979 0.02778 0.51262 0.0
H72 H 0.55463 0.93508 0.52505 0.0
H73 H 0.54147 0.88519 0.52915 0.0
H74 H 0.60676 0.89758 0.49094 0.0
H75 H 0.61984 0.94732 0.48685 0.0
H76 H 0.54855 0.10979 0.47019 0.0
H77 H 0.56121 0.15935 0.47714 0.0
H78 H 0.49248 0.12092 0.51591 0.0
H79 H 0.48011 0.07156 0.50912 0.0
Ho80 Ho 0.60516 0.56508 0.84658 0.0
Ho81 Ho 0.55999 0.49746 0.85221 0.0
C82 C 0.5223 0.53007 0.85294 0.0
C83 C 0.63058 0.61689 0.83457 0.0
C84 C 0.622 0.63863 0.8334 0.0
C85 C 0.61698 0.64568 0.8185 0.0
C86 C 0.6102 0.66704 0.81703 0.0
C87 C 0.60856 0.68204 0.83045 0.0
C88 C 0.6133 0.67477 0.84539 0.0
C89 C 0.61986 0.65325 0.84686 0.0
C90 C 0.59941 0.55149 0.87681 0.0
C91 C 0.64393 0.53408 0.85078 0.0
C92 C 0.53331 0.44301 0.86089 0.0
C93 C 0.53803 0.41905 0.85668 0.0
C94 C 0.55909 0.41544 0.86604 0.0
C95 C 0.56356 0.3929 0.86201 0.0
C96 C 0.54703 0.37342 0.84855 0.0
C97 C 0.5257 0.37685 0.83932 0.0
C98 C 0.52116 0.39928 0.84335 0.0
C99 C 0.5674 0.51177 0.82172 0.0
O100 O 0.55117 0.55382 0.8472 0.0
O101 O 0.52094 0.50655 0.85773 0.0
O102 O 0.63964 0.6141 0.84846 0.0
O103 O 0.61068 0.59081 0.82661 0.0
O104 O 0.62692 0.57518 0.87125 0.0
O105 O 0.5758 0.53799 0.86651 0.0
O106 O 0.61383 0.50987 0.85508 0.0
O107 O 0.64653 0.55763 0.84506 0.0
O108 O 0.51975 0.44927 0.84999 0.0
O109 O 0.55839 0.46747 0.8687 0.0
O110 O 0.53954 0.48882 0.82732 0.0
O111 O 0.59053 0.52468 0.83227 0.0
H112 H 0.6187 0.6349 0.80795 0.0
H113 H 0.60708 0.67236 0.80535 0.0
H114 H 0.61183 0.68567 0.85596 0.0
H115 H 0.6235 0.64829 0.85853 0.0
H116 H 0.57225 0.43012 0.87645 0.0
H117 H 0.58034 0.39101 0.86933 0.0
H118 H 0.5121 0.36191 0.82904 0.0
H119 H 0.50435 0.40105 0.83597 0.0
C120 C 0.64617 0.10289 0.19874 0.0
C121 C 0.66209 0.12274 0.21208 0.0
C122 C 0.70729 0.16177 0.19578 0.0
C123 C 0.69242 0.15202 0.2106 0.0
C124 C 0.69102 0.14161 0.18254 0.0
C125 C 0.66085 0.11254 0.18402 0.0
U126 U 0.5724 0.03191 0.21981 0.0
O127 O 0.51813 1.00259 0.21202 0.0
O128 O 0.54831 0.98446 0.21177 0.0
C129 C 0.51856 0.97907 0.20886 0.0
C130 C 0.6142 0.0721 0.19959 0.0
C131 C 0.48719 0.94831 0.21126 0.0
C132 C 0.42944 0.90872 0.20156 0.0
C133 C 0.45742 0.93927 0.20295 0.0
C134 C 0.45935 0.89569 0.21782 0.0
C135 C 0.43053 0.88649 0.20853 0.0
C136 C 0.48765 0.92639 0.21907 0.0
C137 C 0.57271 0.0325 0.26597 0.0
C138 C 0.53948 0.02622 0.28904 0.0
C139 C 0.58399 0.01913 0.29084 0.0
C140 C 0.59088 0.0252 0.27496 0.0
C141 C 0.55892 0.02046 0.29821 0.0
C142 C 0.5464 0.03232 0.2731 0.0
C143 C 0.58513 0.04472 0.25021 0.0
O144 O 0.61698 0.0513 0.20468 0.0
O145 O 0.58764 0.07003 0.20511 0.0
O146 O 0.56749 0.05114 0.24197 0.0
O147 O 0.59752 0.03297 0.24156 0.0
H148 H 0.6511 0.11562 0.22356 0.0
H149 H 0.7044 0.16689 0.22106 0.0
H150 H 0.70131 0.14846 0.17092 0.0
H151 H 0.64882 0.09756 0.17359 0.0
H152 H 0.40738 0.90231 0.1945 0.0
H153 H 0.45651 0.95564 0.19669 0.0
H154 H 0.46081 0.87896 0.22331 0.0
H155 H 0.51038 0.93267 0.22546 0.0
H156 H 0.52012 0.02758 0.29437 0.0
H157 H 0.59904 0.01424 0.29749 0.0
H158 H 0.61153 0.02545 0.26989 0.0
H159 H 0.53213 0.03819 0.26659 0.0
C160 C 0.55621 0.57224 0.549 0.0
C161 C 0.54274 0.58256 0.55974 0.0
C162 C 0.55386 0.62101 0.54186 0.0
C163 C 0.5414 0.60656 0.55617 0.0
C164 C 0.56728 0.61048 0.53113 0.0
C165 C 0.5684 0.58632 0.53468 0.0
U166 U 0.56319 0.5281 0.57975 0.0
O167 O 0.53892 0.47937 0.58148 0.0
O168 O 0.59491 0.51159 0.58109 0.0
C169 C 0.56818 0.48298 0.5811 0.0
C170 C 0.5589 0.54774 0.55293 0.0
C171 C 0.56949 0.46122 0.57088 0.0
C172 C 0.54693 0.42279 0.54935 0.0
C173 C 0.5475 0.44578 0.55767 0.0
C174 C 0.59115 0.43124 0.56697 0.0
C175 C 0.56826 0.41481 0.55413 0.0
C176 C 0.59168 0.45412 0.57525 0.0
C177 C 0.56519 0.55138 0.62301 0.0
C178 C 0.58368 0.5364 0.64475 0.0
C179 C 0.55374 0.5588 0.64992 0.0
C180 C 0.5514 0.56126 0.63377 0.0
C181 C 0.57005 0.54648 0.65561 0.0
C182 C 0.58113 0.5387 0.62857 0.0
C183 C 0.56295 0.55477 0.60609 0.0
O184 O 0.58814 0.55692 0.55958 0.0
O185 O 0.53226 0.52463 0.55977 0.0
O186 O 0.53489 0.53225 0.59866 0.0
O187 O 0.59073 0.56467 0.59817 0.0
H188 H 0.53339 0.57214 0.57093 0.0
H189 H 0.53045 0.6137 0.56463 0.0
H190 H 0.57759 0.62131 0.52012 0.0
H191 H 0.5792 0.57886 0.52631 0.0
H192 H 0.52891 0.4105 0.53956 0.0
H193 H 0.53013 0.45088 0.55405 0.0
H194 H 0.60838 0.42611 0.57078 0.0
H195 H 0.60889 0.46579 0.58537 0.0
H196 H 0.59603 0.52648 0.64875 0.0
H197 H 0.5433 0.56705 0.65798 0.0
H198 H 0.53901 0.5711 0.62969 0.0
H199 H 0.5917 0.5307 0.62042 0.0
C200 C 1.00342 0.53213 0.87885 0.0
C201 C 0.97008 0.50504 0.87647 0.0
C202 C 0.94452 0.53288 0.87557 0.0
C203 C 0.9413 0.50538 0.87494 0.0
C204 C 0.97789 0.55994 0.87824 0.0
C205 C 1.00666 0.55958 0.87978 0.0
U206 U 0.08149 0.53071 0.89314 0.0
O207 O 0.09998 0.50651 0.88082 0.0
O208 O 0.1335 0.55603 0.88337 0.0
C209 C 0.13052 0.53144 0.87837 0.0
C210 C 1.0346 0.53201 0.87778 0.0
C211 C 0.16126 0.53074 0.87954 0.0
C212 C 0.18811 0.50531 0.87223 0.0
C213 C 0.15893 0.50508 0.87358 0.0
C214 C 0.22337 0.5569 0.88295 0.0
C215 C 0.22117 0.53135 0.8767 0.0
C216 C 0.19411 0.55665 0.88427 0.0
C217 C 0.07755 0.52752 0.94136 0.0
C218 C 0.06522 0.49992 0.96531 0.0
C219 C 0.08433 0.55206 0.96717 0.0
C220 C 0.0864 0.55313 0.95074 0.0
C221 C 0.07366 0.52544 0.97471 0.0
C222 C 0.06695 0.5009 0.94884 0.0
C223 C 0.07892 0.52852 0.92389 0.0
O224 O 0.06455 0.55644 0.88269 0.0
O225 O 1.03128 0.50691 0.88053 0.0
O226 O 0.06317 0.50388 0.9145 0.0
O227 O 0.09616 0.55427 0.91671 0.0
H228 H 0.96622 0.48341 0.87526 0.0
H229 H 0.91657 0.48392 0.87268 0.0
H230 H 0.98203 0.5817 0.87908 0.0
H231 H 1.0317 0.58106 0.8813 0.0
H232 H 0.18469 0.4852 0.8671 0.0
H233 H 0.13446 0.48489 0.86941 0.0
H234 H 0.24784 0.57739 0.8868 0.0
H235 H 0.19745 0.57714 0.88869 0.0
H236 H 0.05665 0.47897 0.97067 0.0
H237 H 0.09141 0.57226 0.97401 0.0
H238 H 0.09464 0.57399 0.94536 0.0
H239 H 0.05997 0.48077 0.94196 0.0
C240 C 0.97271 0.4359 0.46602 0.0
C241 C 0.94684 0.42048 0.45427 0.0
C242 C 0.91576 0.37508 0.4696 0.0
C243 C 0.91854 0.39033 0.45607 0.0
C244 C 0.94209 0.3906 0.48117 0.0
C245 C 0.9702 0.42066 0.47939 0.0
U246 U 1.04145 0.50801 0.44428 0.0
O247 O 0.09482 0.54162 0.45229 0.0
O248 O 0.0604 0.55524 0.45072 0.0
C249 C 0.09115 0.56349 0.45444 0.0
C250 C 1.00197 0.46809 0.46508 0.0
C251 C 0.12089 0.59515 0.45215 0.0
C252 C 0.15118 0.64826 0.46099 0.0
C253 C 0.12121 0.6186 0.45974 0.0
C254 C 0.18096 0.63201 0.44632 0.0
C255 C 0.18172 0.65528 0.45463 0.0
C256 C 0.15088 0.60219 0.44515 0.0
C257 C 1.04029 0.49854 0.39796 0.0
C258 C 0.06463 0.53423 0.37702 0.0
C259 C 1.03803 0.48085 0.37098 0.0
C260 C 1.03091 0.47502 0.38685 0.0
C261 C 0.05497 0.5105 0.36579 0.0
C262 C 0.05733 0.52829 0.393 0.0
C263 C 1.02983 0.4903 0.41431 0.0
O264 O 1.03087 0.47337 0.46064 0.0
O265 O 0.9959 0.48612 0.45887 0.0
O266 O 1.01591 0.50201 0.42162 0.0
O267 O 0.05001 0.48817 0.42344 0.0
H268 H 0.94834 0.43179 0.44381 0.0
H269 H 0.89889 0.37893 0.44686 0.0
H270 H 0.9406 0.37977 0.49183 0.0
H271 H 0.98982 0.43221 0.48862 0.0
H272 H 0.15072 0.66531 0.46767 0.0
H273 H 0.09863 0.61367 0.46552 0.0
H274 H 0.20382 0.63666 0.44104 0.0
H275 H 0.15149 0.58453 0.43933 0.0
H276 H 0.07792 0.55736 0.37347 0.0
H277 H 1.02948 0.46187 0.36273 0.0
H278 H 1.01738 0.45185 0.39041 0.0
H279 H 0.06469 0.54677 0.40141 0.0
C280 C 0.57072 0.96958 0.79655 0.0
C281 C 0.56798 0.94986 0.7845 0.0
C282 C 0.57329 0.92098 0.80375 0.0
C283 C 0.56921 0.92578 0.78806 0.0
C284 C 0.57581 0.94077 0.81579 0.0
C285 C 0.57453 0.96485 0.8122 0.0
U286 U 0.56825 0.01674 0.76611 0.0
O287 O 0.54107 0.03758 0.76509 0.0
O288 O 0.59716 0.06629 0.76457 0.0
C289 C 0.56951 0.06536 0.76508 0.0
C290 C 0.57035 0.99541 0.79279 0.0
C291 C 0.57155 0.0891 0.77519 0.0
C292 C 0.54859 0.10529 0.79516 0.0
C293 C 0.54821 0.08212 0.78715 0.0
C294 C 0.5962 0.14267 0.77973 0.0
C295 C 0.57215 0.1358 0.7913 0.0
C296 C 0.59583 0.1196 0.77177 0.0
C297 C 0.56539 0.99356 0.72259 0.0
C298 C 0.54541 1.00589 0.70022 0.0
C299 C 0.58368 0.99168 0.69621 0.0
C300 C 0.58421 0.98824 0.71237 0.0
C301 C 0.56409 1.00035 0.68988 0.0
C302 C 0.54616 1.00265 0.71641 0.0
C303 C 0.56615 0.98932 0.73955 0.0
O304 O 0.59779 0.0175 0.7859 0.0
O305 O 0.54182 0.98814 0.78618 0.0
O306 O 0.53873 0.98117 0.74735 0.0
O307 O 0.59477 0.01018 0.74722 0.0
H308 H 0.56521 0.95328 0.77232 0.0
H309 H 0.56767 0.91129 0.77848 0.0
H310 H 0.57855 0.93755 0.828 0.0
H311 H 0.57665 0.97985 0.82166 0.0
H312 H 0.52961 0.0992 0.80395 0.0
H313 H 0.52912 0.05877 0.79003 0.0
H314 H 0.61511 0.16593 0.77666 0.0
H315 H 0.61404 0.12556 0.76259 0.0
H316 H 0.52971 0.01224 0.69579 0.0
H317 H 0.5989 0.98778 0.68871 0.0
H318 H 0.59938 0.9814 0.71691 0.0
H319 H 0.53152 1.00704 0.72407 0.0
C320 C 0.54307 0.43255 0.14449 0.0
C321 C 0.5629 0.42558 0.13638 0.0
C322 C 0.58392 0.42157 0.16127 0.0
C323 C 0.58317 0.42007 0.14471 0.0
C324 C 0.5631 0.42763 0.16932 0.0
C325 C 0.54277 0.43311 0.16095 0.0
U326 U 0.52205 0.45262 0.10653 0.0
O327 O 0.47346 0.44274 0.09815 0.0
O328 O 0.51845 0.49 0.10231 0.0
C329 C 0.48507 0.47134 0.10043 0.0
C330 C 0.52473 0.44149 0.1359 0.0
C331 C 0.46719 0.4766 0.11238 0.0
C332 C 0.45362 0.47503 0.13992 0.0
C333 C 0.46566 0.46678 0.12753 0.0
C334 C 0.44296 0.50211 0.12206 0.0
C335 C 0.44235 0.493 0.13742 0.0
C336 C 0.45561 0.49416 0.10963 0.0
C337 C 0.55939 0.45287 0.06808 0.0
C338 C 0.53947 0.46304 0.04494 0.0
C339 C 0.58905 0.46259 0.04359 0.0
C340 C 0.58577 0.45592 0.05946 0.0
C341 C 0.56588 0.46618 0.0362 0.0
C342 C 0.53634 0.45655 0.06077 0.0
C343 C 0.55657 0.44721 0.08484 0.0
O344 O 0.54439 0.46877 0.1304 0.0
O345 O 0.50138 0.42087 0.12564 0.0
O346 O 0.5261 0.42424 0.08906 0.0
O347 O 0.57005 0.47171 0.09418 0.0
H348 H 0.56356 0.42541 0.12364 0.0
H349 H 0.59948 0.4161 0.1382 0.0
H350 H 0.56319 0.42885 0.18206 0.0
H351 H 0.52759 0.43861 0.16732 0.0
H352 H 0.45415 0.46801 0.15156 0.0
H353 H 0.47497 0.45355 0.1299 0.0
H354 H 0.43386 0.51552 0.11966 0.0
H355 H 0.45702 0.50219 0.09802 0.0
H356 H 0.52164 0.46621 0.03962 0.0
H357 H 0.60954 0.46478 0.03707 0.0
H358 H 0.60389 0.45336 0.06501 0.0
H359 H 0.51611 0.4547 0.06737 0.0
H360 H 0.29157 0.57132 0.16324 0.0
H361 H 0.33968 0.57211 0.17231 0.0
H362 H 0.28304 0.52229 0.2126 0.0
H363 H 0.2346 0.52113 0.2035 0.0
H364 H 0.38089 0.58 0.20194 0.0
H365 H 0.27989 0.46144 0.17886 0.0
H366 H 0.276 0.49167 0.17583 0.0
H367 H 0.27074 0.4775 0.1951 0.0
C368 C 0.2899 0.56155 0.17433 0.0
C369 C 0.2592 0.54541 0.18243 0.0
C370 C 0.31752 0.56237 0.17963 0.0
C371 C 0.31452 0.54683 0.19297 0.0
C372 C 0.28568 0.53438 0.20227 0.0
H373 H 0.40566 0.45958 0.1625 0.0
H374 H 0.3828 0.47346 0.18363 0.0
C375 C 0.25801 0.53362 0.197 0.0
C376 C 0.33603 0.53622 0.19393 0.0
H377 H 0.3361 0.47849 0.17758 0.0
C378 C 0.37114 0.55746 0.19716 0.0
C379 C 0.32305 0.50664 0.18789 0.0
C380 C 0.28541 0.48289 0.18416 0.0
C381 C 0.39404 0.55073 0.19302 0.0
C382 C 0.38134 0.52259 0.18502 0.0
C383 C 0.34594 0.5002 0.18358 0.0
C384 C 0.40313 0.51784 0.1752 0.0
C385 C 0.43163 0.57438 0.19651 0.0
C386 C 0.423 0.53849 0.16363 0.0
C387 C 0.43675 0.53087 0.15168 0.0
C388 C 0.43022 0.50216 0.15084 0.0
C389 C 0.41155 0.48203 0.16283 0.0
C390 C 0.39842 0.48992 0.17496 0.0
H391 H 0.43565 0.58644 0.20808 0.0
H392 H 0.44577 0.56423 0.19664 0.0
H393 H 0.44244 0.59158 0.18743 0.0
H394 H 0.42619 0.55979 0.16323 0.0
H395 H 0.45167 0.54719 0.14286 0.0
H396 H 0.67921 0.09575 0.50304 0.0
H397 H 0.73162 0.14696 0.49993 0.0
H398 H 0.67174 0.17622 0.48403 0.0
H399 H 0.61947 0.12559 0.48735 0.0
H400 H 0.75543 0.1778 0.47271 0.0
H401 H 0.73503 0.24312 0.51655 0.0
H402 H 0.71027 0.20222 0.5161 0.0
H403 H 0.6998 0.22044 0.50277 0.0
C404 C 0.67716 0.11319 0.4991 0.0
C405 C 0.64504 0.10649 0.49551 0.0
C406 C 0.70716 0.14244 0.49729 0.0
C407 C 0.70563 0.16558 0.49196 0.0
C408 C 0.6736 0.15899 0.48851 0.0
H409 H 0.84844 0.35037 0.46342 0.0
H410 H 0.79823 0.29906 0.4685 0.0
C411 C 0.64367 0.12987 0.49034 0.0
C412 C 0.73743 0.19615 0.48914 0.0
H413 H 0.77866 0.27198 0.49798 0.0
C414 C 0.76069 0.19838 0.47835 0.0
C415 C 0.74424 0.22302 0.49647 0.0
C416 C 0.72119 0.22214 0.50873 0.0
C417 C 0.79004 0.22675 0.47437 0.0
C418 C 0.79655 0.2536 0.48152 0.0
C419 C 0.77352 0.25138 0.49243 0.0
C420 C 0.82716 0.28426 0.47788 0.0
C421 C 0.81334 0.22777 0.46221 0.0
C422 C 0.8601 0.29299 0.48146 0.0
C423 C 0.88883 0.32222 0.47849 0.0
C424 C 0.88524 0.34343 0.47194 0.0
C425 C 0.85217 0.33451 0.46826 0.0
C426 C 0.82344 0.30527 0.47127 0.0
H427 H 0.80057 0.20599 0.4551 0.0
H428 H 0.82221 0.24641 0.45415 0.0
H429 H 0.83614 0.23205 0.46823 0.0
H430 H 0.86358 0.27732 0.48678 0.0
H431 H 0.9139 0.32824 0.48136 0.0
H432 H 0.64144 0.73744 0.84637 0.0
H433 H 0.63336 0.77708 0.84301 0.0
H434 H 0.55554 0.72037 0.8072 0.0
H435 H 0.56301 0.68039 0.81068 0.0
H436 H 0.6417 0.80635 0.81481 0.0
H437 H 0.51007 0.74776 0.83681 0.0
H438 H 0.53643 0.73543 0.8409 0.0
H439 H 0.51512 0.72631 0.82204 0.0
C440 C 0.62222 0.7332 0.83795 0.0
C441 C 0.60279 0.7057 0.82882 0.0
C442 C 0.61778 0.75595 0.83599 0.0
C443 C 0.59358 0.75155 0.82499 0.0
C444 C 0.57398 0.72407 0.81593 0.0
H445 H 0.53553 0.86272 0.79073 0.0
H446 H 0.54096 0.82211 0.7961 0.0
C447 C 0.57852 0.70136 0.81783 0.0
C448 C 0.58999 0.77625 0.82248 0.0
H449 H 0.53339 0.794 0.8243 0.0
C450 C 0.6181 0.80375 0.81698 0.0
C451 C 0.55912 0.77273 0.82525 0.0
C452 C 0.5285 0.74408 0.83171 0.0
C453 C 0.61601 0.82763 0.81387 0.0
C454 C 0.58514 0.82414 0.81664 0.0
C455 C 0.55703 0.79665 0.82218 0.0
C456 C 0.58148 0.84869 0.8137 0.0
C457 C 0.64658 0.85609 0.80723 0.0
C458 C 0.60207 0.87698 0.822 0.0
C459 C 0.59919 0.90031 0.81889 0.0
C460 C 0.57551 0.89579 0.80746 0.0
C461 C 0.55441 0.86717 0.79942 0.0
C462 C 0.5573 0.84385 0.80255 0.0
H463 H 0.6648 0.85219 0.80207 0.0
H464 H 0.63859 0.86466 0.79803 0.0
H465 H 0.66028 0.874 0.81682 0.0
H466 H 0.6205 0.88106 0.83085 0.0
H467 H 0.61601 0.92208 0.82523 0.0
H468 H 0.86276 0.45547 0.18471 0.0
H469 H 0.80113 0.43017 0.18313 0.0
H470 H 0.81556 0.50937 0.20556 0.0
H471 H 0.87741 0.53506 0.20705 0.0
H472 H 0.75518 0.44725 0.21532 0.0
H473 H 0.76799 0.46533 0.15094 0.0
H474 H 0.78601 0.44751 0.15879 0.0
H475 H 0.80409 0.48629 0.16458 0.0
C476 C 0.85275 0.46741 0.18939 0.0
C477 C 0.87476 0.49738 0.19575 0.0
C478 C 0.81764 0.45287 0.18859 0.0
C479 C 0.80415 0.4681 0.19413 0.0
C480 C 0.82576 0.49735 0.20129 0.0
H481 H 0.62576 0.45886 0.1858 0.0
H482 H 0.67534 0.46344 0.19624 0.0
C483 C 0.86095 0.51195 0.20211 0.0
C484 C 0.76809 0.45488 0.19091 0.0
H485 H 0.71316 0.44065 0.16111 0.0
C486 C 0.74576 0.4455 0.20349 0.0
C487 C 0.75626 0.45281 0.17543 0.0
C488 C 0.77976 0.46367 0.16163 0.0
C489 C 0.71156 0.43421 0.20094 0.0
C490 C 0.69993 0.43275 0.1855 0.0
C491 C 0.72217 0.4415 0.17291 0.0
C492 C 0.66597 0.42523 0.1821 0.0
C493 C 0.68823 0.42417 0.21474 0.0
C494 C 0.644 0.40183 0.17093 0.0
C495 C 0.61567 0.39919 0.16491 0.0
C496 C 0.60913 0.42008 0.16991 0.0
C497 C 0.62988 0.44218 0.18189 0.0
C498 C 0.65819 0.44479 0.1879 0.0
H499 H 0.69767 0.41814 0.22464 0.0
H500 H 0.6872 0.44307 0.21901 0.0
H501 H 0.66188 0.40432 0.2113 0.0
H502 H 0.64984 0.38669 0.16626 0.0
H503 H 0.59985 0.38177 0.1558 0.0
H504 H 0.42495 0.93793 0.48403 0.0
H505 H 0.37355 0.88624 0.4789 0.0
H506 H 0.43131 0.851 0.48703 0.0
H507 H 0.48272 0.90271 0.49267 0.0
H508 H 0.36234 0.84659 0.45573 0.0
H509 H 0.34897 0.79587 0.51289 0.0
H510 H 0.37759 0.83628 0.51048 0.0
H511 H 0.38975 0.81213 0.50424 0.0
C512 C 0.42669 0.91918 0.4849 0.0
C513 C 0.45798 0.92448 0.48877 0.0
C514 C 0.39724 0.8896 0.48195 0.0
C515 C 0.39834 0.8646 0.48274 0.0
C516 C 0.42952 0.86979 0.48672 0.0
H517 H 0.24563 0.67048 0.46109 0.0
H518 H 0.29845 0.721 0.46722 0.0
C519 C 0.45898 0.89942 0.48985 0.0
C520 C 0.36729 0.83344 0.47845 0.0
H521 H 0.31254 0.76193 0.49179 0.0
C522 C 0.3514 0.82813 0.46366 0.0
C523 C 0.35306 0.80924 0.48874 0.0
C524 C 0.368 0.81366 0.50503 0.0
C525 C 0.32194 0.7994 0.45883 0.0
C526 C 0.30755 0.77527 0.46914 0.0
C527 C 0.32359 0.78043 0.48388 0.0
C528 C 0.27558 0.74467 0.46495 0.0
C529 C 0.30685 0.79507 0.44258 0.0
C530 C 0.24507 0.7411 0.46164 0.0
C531 C 0.21491 0.71229 0.45787 0.0
C532 C 0.21441 0.68626 0.45753 0.0
C533 C 0.24508 0.68996 0.4609 0.0
C534 C 0.27528 0.71883 0.4646 0.0
H535 H 0.32593 0.81269 0.43466 0.0
H536 H 0.29684 0.77233 0.43715 0.0
H537 H 0.28538 0.79697 0.44345 0.0
H538 H 0.24445 0.76059 0.46214 0.0
H539 H 0.19194 0.71046 0.45527 0.0
H540 H 0.55623 0.35742 0.81914 0.0
H541 H 0.56198 0.31699 0.81164 0.0
H542 H 0.55538 0.29535 0.86027 0.0
H543 H 0.54889 0.33541 0.86787 0.0
H544 H 0.61262 0.3096 0.82228 0.0
H545 H 0.4808 0.21302 0.83716 0.0
H546 H 0.49272 0.25077 0.83473 0.0
H547 H 0.50513 0.24237 0.85237 0.0
C548 C 0.55571 0.34391 0.82824 0.0
C549 C 0.55182 0.34952 0.8441 0.0
C550 C 0.55921 0.32093 0.82394 0.0
C551 C 0.55865 0.3029 0.83537 0.0
C552 C 0.55537 0.30871 0.85124 0.0
H553 H 0.56221 0.14442 0.82235 0.0
H554 H 0.56051 0.18527 0.83412 0.0
C555 C 0.552 0.33181 0.85557 0.0
C556 C 0.56166 0.27816 0.83056 0.0
H557 H 0.51724 0.2009 0.82772 0.0
C558 C 0.59183 0.28583 0.82352 0.0
C559 C 0.5346 0.24718 0.83229 0.0
C560 C 0.50133 0.23764 0.83944 0.0
C561 C 0.59558 0.26337 0.81806 0.0
C562 C 0.5681 0.23233 0.81933 0.0
C563 C 0.53825 0.22467 0.82673 0.0
C564 C 0.56922 0.20755 0.81231 0.0
C565 C 0.62909 0.27316 0.81109 0.0
C566 C 0.57398 0.20613 0.79611 0.0
C567 C 0.57494 0.18291 0.78938 0.0
C568 C 0.57087 0.16033 0.79867 0.0
C569 C 0.56536 0.16139 0.81486 0.0
C570 C 0.56451 0.18478 0.82161 0.0
H571 H 0.65038 0.29651 0.81543 0.0
H572 H 0.63549 0.2574 0.81391 0.0
H573 H 0.62716 0.27322 0.7981 0.0
H574 H 0.57662 0.22287 0.78861 0.0
H575 H 0.57836 0.18239 0.77682 0.0
H576 H 0.57264 0.86526 0.53869 0.0
H577 H 0.56649 0.8184 0.54333 0.0
H578 H 0.55288 0.79585 0.49341 0.0
H579 H 0.55928 0.84278 0.48867 0.0
H580 H 0.51459 0.75812 0.53637 0.0
H581 H 0.63137 0.79207 0.50454 0.0
H582 H 0.62167 0.81849 0.50971 0.0
H583 H 0.60092 0.79242 0.49287 0.0
C584 C 0.56798 0.85017 0.52871 0.0
C585 C 0.56674 0.85787 0.5133 0.0
C586 C 0.56461 0.82346 0.53138 0.0
C587 C 0.55995 0.80393 0.5187 0.0
C588 C 0.5574 0.81098 0.50335 0.0
H589 H 0.5404 0.63455 0.51343 0.0
H590 H 0.54064 0.67815 0.50766 0.0
C591 C 0.56097 0.83776 0.50066 0.0
C592 C 0.55808 0.77637 0.52157 0.0
H593 H 0.59676 0.74183 0.51322 0.0
C594 C 0.53259 0.75459 0.53133 0.0
C595 C 0.58163 0.77179 0.515 0.0
C596 C 0.61065 0.79504 0.50507 0.0
C597 C 0.52982 0.72825 0.53458 0.0
C598 C 0.55337 0.72373 0.52803 0.0
C599 C 0.57867 0.74533 0.51817 0.0
C600 C 0.55278 0.69712 0.5316 0.0
C601 C 0.5015 0.70525 0.54486 0.0
C602 C 0.55998 0.69358 0.54693 0.0
C603 C 0.56028 0.66892 0.55025 0.0
C604 C 0.55334 0.64721 0.53829 0.0
C605 C 0.54623 0.65095 0.52291 0.0
C606 C 0.54613 0.67574 0.51959 0.0
H607 H 0.48103 0.70847 0.54592 0.0
H608 H 0.49002 0.68175 0.54013 0.0
H609 H 0.51213 0.70775 0.55683 0.0
H610 H 0.56587 0.71018 0.55631 0.0
H611 H 0.56658 0.66721 0.56215 0.0
H612 H 0.64849 0.49036 0.8628 0.0
H613 H 0.69892 0.49124 0.86676 0.0
H614 H 0.76177 0.57909 0.84686 0.0
H615 H 0.7114 0.57862 0.84319 0.0
H616 H 0.74297 0.4921 0.84805 0.0
H617 H 0.8184 0.59817 0.88553 0.0
H618 H 0.77403 0.57985 0.88045 0.0
H619 H 0.80672 0.60363 0.86674 0.0
C620 C 0.67299 0.51003 0.85927 0.0
C621 C 0.67536 0.53452 0.85271 0.0
C622 C 0.70211 0.51048 0.86156 0.0
C623 C 0.73498 0.53549 0.85748 0.0
C624 C 0.73732 0.55976 0.85063 0.0
H625 H 0.9411 0.57659 0.86197 0.0
H626 H 0.89153 0.57687 0.85772 0.0
C627 C 0.70816 0.55935 0.84837 0.0
C628 C 0.76623 0.53571 0.86013 0.0
H629 H 0.84732 0.57735 0.87683 0.0
C630 C 0.76563 0.51077 0.85443 0.0
C631 C 0.79641 0.55989 0.86843 0.0
C632 C 0.79893 0.58676 0.87578 0.0
C633 C 0.79383 0.50957 0.85647 0.0
C634 C 0.82396 0.53371 0.86479 0.0
C635 C 0.82464 0.55871 0.87044 0.0
C636 C 0.85484 0.53352 0.86771 0.0
C637 C 0.79127 0.48261 0.84923 0.0
C638 C 0.85182 0.50942 0.87508 0.0
C639 C 0.88048 0.50925 0.87765 0.0
C640 C 0.91359 0.53332 0.87308 0.0
C641 C 0.91658 0.55767 0.86593 0.0
C642 C 0.88789 0.55781 0.86337 0.0
H643 H 0.7718 0.47111 0.83948 0.0
H644 H 0.81617 0.48945 0.8446 0.0
H645 H 0.78348 0.46585 0.85833 0.0
H646 H 0.82719 0.49068 0.87906 0.0
H647 H 0.87658 0.49028 0.88349 0.0
H648 H 0.14176 0.63228 0.18894 0.0
H649 H 0.19546 0.68209 0.19391 0.0
H650 H 0.24975 0.65126 0.17087 0.0
H651 H 0.19571 0.60054 0.16615 0.0
H652 H 0.28275 0.68571 0.19825 0.0
H653 H 0.24781 0.74497 0.16154 0.0
H654 H 0.21658 0.72356 0.1761 0.0
H655 H 0.2237 0.70414 0.16085 0.0
C656 C 0.16497 0.63595 0.18479 0.0
C657 C 0.16425 0.6124 0.17692 0.0
C658 C 0.19574 0.66459 0.18762 0.0
C659 C 0.22656 0.67067 0.18245 0.0
C660 C 0.2262 0.64715 0.17484 0.0
H661 H 0.40499 0.85872 0.17965 0.0
H662 H 0.3584 0.80557 0.17312 0.0
C663 C 0.19529 0.61822 0.17209 0.0
C664 C 0.25891 0.70166 0.18514 0.0
H665 H 0.29469 0.7763 0.17982 0.0
C666 C 0.28559 0.70555 0.19409 0.0
C667 C 0.26286 0.7275 0.17949 0.0
C668 C 0.23635 0.72485 0.16882 0.0
C669 C 0.31564 0.73468 0.19797 0.0
C670 C 0.31866 0.76062 0.19311 0.0
C671 C 0.29233 0.75655 0.18376 0.0
C672 C 0.3489 0.79228 0.19728 0.0
C673 C 0.34393 0.73727 0.20706 0.0
C674 C 0.35943 0.80267 0.21306 0.0
C675 C 0.3865 0.83313 0.2168 0.0
C676 C 0.4029 0.85384 0.20486 0.0
C677 C 0.3925 0.84333 0.18911 0.0
C678 C 0.36593 0.81293 0.18537 0.0
H679 H 0.34238 0.71621 0.20548 0.0
H680 H 0.36944 0.75675 0.20335 0.0
H681 H 0.34153 0.74079 0.21978 0.0
H682 H 0.34619 0.78747 0.22251 0.0
H683 H 0.39391 0.8407 0.22903 0.0
H684 H 0.53287 0.18483 0.47737 0.0
H685 H 0.54358 0.23374 0.48458 0.0
H686 H 0.54958 0.21991 0.53359 0.0
H687 H 0.53963 0.17143 0.5265 0.0
H688 H 0.50368 0.24363 0.50446 0.0
H689 H 0.63665 0.30609 0.52774 0.0
H690 H 0.61636 0.2716 0.51543 0.0
H691 H 0.6076 0.26983 0.53607 0.0
C692 C 0.53697 0.19243 0.48966 0.0
C693 C 0.53543 0.17424 0.50136 0.0
C694 C 0.54289 0.22028 0.49376 0.0
C695 C 0.54779 0.23062 0.5096 0.0
C696 C 0.54642 0.2126 0.52128 0.0
H697 H 0.56861 0.37116 0.56827 0.0
H698 H 0.56446 0.328 0.55588 0.0
C699 C 0.54037 0.18474 0.51721 0.0
C700 C 0.5529 0.25961 0.51408 0.0
H701 H 0.60725 0.3278 0.53427 0.0
C702 C 0.52649 0.26224 0.5108 0.0
C703 C 0.58273 0.28385 0.52229 0.0
C704 C 0.61262 0.28292 0.52547 0.0
C705 C 0.5284 0.28788 0.51621 0.0
C706 C 0.55779 0.3117 0.52489 0.0
C707 C 0.58468 0.30947 0.52768 0.0
C708 C 0.56033 0.33822 0.53209 0.0
C709 C 0.49832 0.28862 0.51321 0.0
C710 C 0.55959 0.3585 0.52283 0.0
C711 C 0.56203 0.38336 0.52992 0.0
C712 C 0.56561 0.38853 0.54638 0.0
C713 C 0.56646 0.36818 0.55556 0.0
C714 C 0.56393 0.34339 0.54849 0.0
H715 H 0.47504 0.26589 0.50937 0.0
H716 H 0.49251 0.29689 0.52395 0.0
H717 H 0.50459 0.30444 0.50378 0.0
H718 H 0.55747 0.35528 0.51013 0.0
H719 H 0.56165 0.39878 0.52251 0.0
H720 H 0.51747 0.57786 0.84996 0.0
H721 H 0.46793 0.57857 0.85423 0.0
H722 H 0.40689 0.48377 0.86429 0.0
H723 H 0.45647 0.48326 0.8606 0.0
H724 H 0.40759 0.55237 0.84089 0.0
H725 H 0.38171 0.51188 0.90125 0.0
H726 H 0.41985 0.52243 0.8913 0.0
H727 H 0.38022 0.48529 0.88755 0.0
C728 C 0.49357 0.55713 0.85316 0.0
C729 C 0.49154 0.53057 0.85506 0.0
C730 C 0.46497 0.55754 0.85561 0.0
C731 C 0.43316 0.53143 0.86005 0.0
C732 C 0.43096 0.5047 0.86149 0.0
H733 H 0.22772 0.48411 0.87813 0.0
H734 H 0.27794 0.48484 0.87372 0.0
C735 C 0.45957 0.50435 0.8592 0.0
C736 C 0.40242 0.532 0.86282 0.0
H737 H 0.33847 0.51253 0.8887 0.0
C738 C 0.39276 0.54382 0.85144 0.0
C739 C 0.38237 0.52095 0.87654 0.0
C740 C 0.39174 0.50972 0.88992 0.0
C741 C 0.36386 0.54418 0.85313 0.0
C742 C 0.34366 0.53285 0.86677 0.0
C743 C 0.35338 0.52114 0.87817 0.0
C744 C 0.31244 0.53271 0.86942 0.0
C745 C 0.3547 0.5559 0.83992 0.0
C746 C 0.3142 0.55936 0.86879 0.0
C747 C 0.28511 0.55899 0.8712 0.0
C748 C 0.2529 0.53196 0.87448 0.0
C749 C 0.25142 0.50541 0.87537 0.0
C750 C 0.28053 0.50583 0.87295 0.0
H751 H 0.36572 0.55501 0.82863 0.0
H752 H 0.32659 0.54264 0.83823 0.0
H753 H 0.36523 0.57997 0.8428 0.0
H754 H 0.33829 0.58075 0.86653 0.0
H755 H 0.28794 0.58003 0.87024 0.0
H756 H 0.95023 0.44642 0.18581 0.0
H757 H 0.90031 0.3949 0.18995 0.0
H758 H 0.94081 0.35913 0.15928 0.0
H759 H 0.99157 0.41083 0.15534 0.0
H760 H 0.85142 0.34984 0.17005 0.0
H761 H 0.92265 0.31261 0.19846 0.0
H762 H 0.94207 0.35189 0.19481 0.0
H763 H 0.93677 0.3262 0.17912 0.0
C764 C 0.94864 0.42769 0.17986 0.0
C765 C 0.97522 0.4329 0.17032 0.0
C766 C 0.91996 0.39816 0.18227 0.0
C767 C 0.91706 0.37304 0.17522 0.0
C768 C 0.94286 0.3781 0.16519 0.0
H769 H 0.76163 0.17822 0.17741 0.0
H770 H 0.81204 0.22945 0.17265 0.0
C771 C 0.97175 0.40773 0.16283 0.0
C772 C 0.88696 0.34171 0.17845 0.0
H773 H 0.86349 0.27494 0.19336 0.0
C774 C 0.85408 0.3335 0.17518 0.0
C775 C 0.89037 0.32038 0.18521 0.0
C776 C 0.92483 0.32822 0.18976 0.0
C777 C 0.82462 0.30449 0.17826 0.0
C778 C 0.82806 0.28318 0.18499 0.0
C779 C 0.8609 0.29131 0.18821 0.0
C780 C 0.79789 0.25211 0.18846 0.0
C781 C 0.79008 0.2967 0.17396 0.0
C782 C 0.7735 0.24772 0.19922 0.0
C783 C 0.74447 0.21839 0.20191 0.0
C784 C 0.73931 0.19286 0.19391 0.0
C785 C 0.76443 0.19737 0.18354 0.0
C786 C 0.7934 0.22664 0.18088 0.0
H787 H 0.79206 0.31258 0.16551 0.0
H788 H 0.77288 0.27317 0.16873 0.0
H789 H 0.77818 0.29824 0.18476 0.0
H790 H 0.77677 0.26701 0.20545 0.0
H791 H 0.72564 0.2158 0.20993 0.0
H792 H 1.02406 0.54572 0.12175 0.0
H793 H 1.02924 0.54305 0.09321 0.0
H794 H 0.08061 0.50125 0.09925 0.0
H795 H 0.07484 0.5034 0.12791 0.0
H796 H 0.08828 0.57016 0.07631 0.0
H797 H 1.00857 0.44494 0.06523 0.0
H798 H 1.00782 0.46247 0.08354 0.0
H799 H 1.04249 0.45998 0.07968 0.0
C800 C 1.03623 0.53574 0.117 0.0
C801 C 0.04915 0.52486 0.1271 0.0
C802 C 1.03924 0.53427 0.10066 0.0
C803 C 0.05503 0.5217 0.09397 0.0
C804 C 0.06778 0.51058 0.10404 0.0
H805 H 0.09339 0.50013 0.99494 0.0
H806 H 0.09011 0.4994 0.02371 0.0
C807 C 0.06475 0.51205 0.12045 0.0
C808 C 0.05916 0.52149 0.07653 0.0
H809 H 1.03719 0.47492 0.04347 0.0
C810 C 0.07706 0.5493 0.06915 0.0
C811 C 0.04485 0.49435 0.06711 0.0
C812 C 1.0246 0.46368 0.07423 0.0
C813 C 0.08107 0.55077 0.05273 0.0
C814 C 0.06599 0.52359 0.04324 0.0
C815 C 0.04863 0.49578 0.05065 0.0
C816 C 0.06747 0.52355 0.02565 0.0
C817 C 0.10202 0.58162 0.04579 0.0
C818 C 0.05527 0.53681 0.017 0.0
C819 C 0.05731 0.53742 1.00056 0.0
C820 C 0.07111 0.52433 0.99226 0.0
C821 C 0.08248 0.51032 1.0009 0.0
C822 C 0.08069 0.50995 0.01738 0.0
H823 H 0.1203 0.59969 0.05464 0.0
H824 H 0.11659 0.58205 0.03558 0.0
H825 H 0.08472 0.58717 0.04173 0.0
H826 H 1.04394 0.54662 0.02296 0.0
H827 H 0.04762 0.54782 0.99431 0.0
H828 H 0.50603 0.99099 0.4498 0.0
H829 H 0.49877 0.98904 0.42106 0.0
H830 H 0.60811 0.04325 0.41642 0.0
H831 H 0.61543 0.04477 0.44493 0.0
H832 H 0.52406 0.03453 0.39895 0.0
H833 H 0.57429 0.96715 0.38863 0.0
H834 H 0.56192 0.97229 0.40782 0.0
H835 H 0.60296 1.00155 0.40035 0.0
C836 C 0.52847 1.00264 0.44261 0.0
C837 C 0.56127 0.01768 0.44953 0.0
C838 C 0.5243 1.0015 0.42623 0.0
C839 C 0.55287 0.01538 0.41658 0.0
C840 C 0.58567 0.0317 0.4236 0.0
H841 H 0.60954 0.04607 0.32082 0.0
H842 H 0.60396 0.04269 0.34928 0.0
C843 C 0.58983 0.03269 0.43989 0.0
C844 C 0.54877 0.0124 0.39917 0.0
H845 H 0.57031 0.9899 0.36625 0.0
C846 C 0.53375 0.02444 0.39177 0.0
C847 C 0.56114 0.99895 0.38983 0.0
C848 C 0.57566 0.98397 0.39705 0.0
C849 C 0.53247 0.02486 0.37526 0.0
C850 C 0.54621 0.01257 0.36597 0.0
C851 C 0.56002 0.99952 0.37339 0.0
C852 C 0.54872 0.01474 0.34861 0.0
C853 C 0.51779 0.03958 0.36791 0.0
C854 C 0.51945 0.99997 0.33872 0.0
C855 C 0.52256 1.00175 0.32233 0.0
C856 C 0.555 0.01807 0.31557 0.0
C857 C 0.58415 0.0328 0.32558 0.0
C858 C 0.58103 0.03108 0.34188 0.0
H859 H 0.51431 0.05306 0.37673 0.0
H860 H 0.53457 0.0547 0.35857 0.0
H861 H 0.49246 0.02168 0.36239 0.0
H862 H 0.49423 0.98675 0.34364 0.0
H863 H 0.49961 0.98996 0.31495 0.0
H864 H 0.51819 0.48651 0.79874 0.0
H865 H 0.52514 0.49687 0.77074 0.0
H866 H 0.63365 0.56313 0.77869 0.0
H867 H 0.62689 0.55299 0.8069 0.0
H868 H 0.56978 0.56692 0.75807 0.0
H869 H 0.60591 0.48986 0.74136 0.0
H870 H 0.57795 0.48163 0.75756 0.0
H871 H 0.62217 0.51314 0.75945 0.0
C872 C 0.54354 0.50334 0.79455 0.0
C873 C 0.57203 0.51891 0.80495 0.0
C874 C 0.54744 0.50922 0.77858 0.0
C875 C 0.57987 0.53062 0.77272 0.0
C876 C 0.60843 0.54646 0.78306 0.0
H877 H 0.62588 0.5605 0.67262 0.0
H878 H 0.63108 0.5589 0.70115 0.0
C879 C 0.60453 0.54069 0.79911 0.0
C880 C 0.58343 0.53606 0.75572 0.0
H881 H 0.59638 0.51169 0.72078 0.0
C882 C 0.57594 0.55514 0.74989 0.0
C883 C 0.59167 0.52077 0.74519 0.0
C884 C 0.59993 0.50013 0.75107 0.0
C885 C 0.57579 0.55887 0.73367 0.0
C886 C 0.58241 0.5424 0.72302 0.0
C887 C 0.59107 0.52412 0.72894 0.0
C888 C 0.57922 0.54299 0.70571 0.0
C889 C 0.5686 0.58045 0.72812 0.0
C890 C 0.54812 0.53389 0.69876 0.0
C891 C 0.5451 0.5348 0.68251 0.0
C892 C 0.57301 0.54448 0.67282 0.0
C893 C 0.60387 0.55278 0.67975 0.0
C894 C 0.60692 0.55201 0.69605 0.0
H895 H 0.57476 0.59792 0.73749 0.0
H896 H 0.58348 0.59212 0.71758 0.0
H897 H 0.54101 0.5675 0.72499 0.0
H898 H 0.52609 0.52596 0.70591 0.0
H899 H 0.5208 0.52768 0.6775 0.0
H900 H 0.56009 0.98863 0.53793 0.0
H901 H 0.56623 0.98744 0.5664 0.0
H902 H 0.53332 0.04485 0.57424 0.0
H903 H 0.52608 0.04509 0.54578 0.0
H904 H 0.60431 0.02954 0.58907 0.0
H905 H 0.46831 0.97677 0.60124 0.0
H906 H 0.48345 0.98009 0.58151 0.0
H907 H 0.48824 0.01197 0.59177 0.0
C908 C 0.55466 1.00129 0.54573 0.0
C909 C 0.54283 0.01706 0.53971 0.0
C910 C 0.55793 1.00046 0.56201 0.0
C911 C 0.54954 0.01552 0.57253 0.0
C912 C 0.53891 0.03224 0.56643 0.0
H913 H 0.56224 0.04268 0.67457 0.0
H914 H 0.55942 0.04676 0.64617 0.0
C915 C 0.53506 0.0326 0.55018 0.0
C916 C 0.55182 0.01364 0.58983 0.0
H917 H 0.50618 0.99522 0.62352 0.0
C918 C 0.58278 0.02189 0.59657 0.0
C919 C 0.52366 1.00348 0.59967 0.0
C920 C 0.48896 0.99228 0.59316 0.0
C921 C 0.58647 0.0207 0.61284 0.0
C922 C 0.55852 0.01106 0.62262 0.0
C923 C 0.52762 1.00284 0.61596 0.0
C924 C 0.56063 0.00872 0.6398 0.0
C925 C 0.62028 0.03003 0.61955 0.0
C926 C 0.56182 0.98574 0.64558 0.0
C927 C 0.5629 0.98302 0.66179 0.0
C928 C 0.56296 1.00333 0.67258 0.0
C929 C 0.56177 0.02637 0.66667 0.0
C930 C 0.56041 0.02891 0.65044 0.0
H931 H 0.64095 0.04166 0.61088 0.0
H932 H 0.6278 0.04537 0.6302 0.0
H933 H 0.61778 0.00952 0.62311 0.0
H934 H 0.56147 0.96966 0.63753 0.0
H935 H 0.5631 0.96463 0.66586 0.0
H936 H 0.64862 0.57697 0.89993 0.0
H937 H 0.64226 0.56115 0.92702 0.0
H938 H 0.53532 0.49005 0.91737 0.0
H939 H 0.54165 0.5054 0.89023 0.0
H940 H 0.59884 0.55822 0.94981 0.0
H941 H 0.5699 0.44482 0.93595 0.0
H942 H 0.58751 0.47383 0.92175 0.0
H943 H 0.54275 0.45156 0.92587 0.0
C944 C 0.62382 0.55793 0.90361 0.0
C945 C 0.59564 0.54231 0.89307 0.0
C946 C 0.62022 0.54895 0.91903 0.0
C947 C 0.58846 0.5242 0.92406 0.0
C948 C 0.56019 0.50881 0.91358 0.0
H949 H 0.51555 0.44108 0.0135 0.0
H950 H 0.52101 0.45563 0.98621 0.0
C951 C 0.5638 0.5177 0.89815 0.0
C952 C 0.58478 0.51494 0.94039 0.0
H953 H 0.56422 0.45597 0.96252 0.0
C954 C 0.59144 0.53594 0.95262 0.0
C955 C 0.57496 0.48578 0.94391 0.0
C956 C 0.56864 0.46275 0.9312 0.0
C957 C 0.58821 0.52842 0.96838 0.0
C958 C 0.57857 0.49935 0.9719 0.0
C959 C 0.57168 0.47826 0.95968 0.0
C960 C 0.57557 0.4904 0.98824 0.0
C961 C 0.59457 0.55139 0.98114 0.0
C962 C 0.6046 0.50488 0.99821 0.0
C963 C 0.60158 0.49665 0.01376 0.0
C964 C 0.56946 0.47382 0.01952 0.0
C965 C 0.54054 0.45899 0.00939 0.0
C966 C 0.54361 0.46716 0.99383 0.0
H967 H 0.59427 0.56984 0.97639 0.0
H968 H 0.57507 0.54029 0.99035 0.0
H969 H 0.62 0.56182 0.98681 0.0
H970 H 0.62953 0.52262 0.99397 0.0
H971 H 0.62422 0.50858 0.02136 0.0
H972 H 0.06637 0.47047 0.21916 0.0
H973 H 0.06443 0.47584 0.2478 0.0
H974 H 0.08006 0.56144 0.24333 0.0
H975 H 0.0826 0.55646 0.21459 0.0
H976 H 0.12259 0.53423 0.26758 0.0
H977 H 0.99098 0.50307 0.27195 0.0
H978 H 1.00276 0.48886 0.25572 0.0
H979 H 1.01862 0.52797 0.25696 0.0
C980 C 0.06925 0.49038 0.22425 0.0
C981 C 0.07451 0.513 0.21464 0.0
C982 C 0.06814 0.4934 0.24061 0.0
C983 C 0.07194 0.51894 0.24764 0.0
C984 C 0.07682 0.54145 0.23808 0.0
H985 H 0.05017 0.54872 0.34789 0.0
H986 H 0.05752 0.55474 0.31945 0.0
C987 C 0.0782 0.53855 0.2217 0.0
C988 C 0.07192 0.5223 0.26503 0.0
H989 H 1.02148 0.5131 0.29567 0.0
C990 C 0.10061 0.52983 0.27375 0.0
C991 C 1.04337 0.51688 0.27299 0.0
C992 C 1.012 0.50865 0.26403 0.0
C993 C 0.10134 0.53167 0.29029 0.0
C994 C 0.07215 0.52488 0.29834 0.0
C995 C 1.04381 0.51822 0.28955 0.0
C996 C 0.06976 0.52281 0.31577 0.0
C997 C 0.13355 0.54109 0.29894 0.0
C998 C 0.07423 0.50294 0.32322 0.0
C999 C 0.07057 0.49981 0.33946 0.0
C1000 C 0.06168 0.51603 0.34868 0.0
C1001 C 0.05747 0.53616 0.34123 0.0
C1002 C 0.06137 0.53943 0.32493 0.0
H1003 H 0.15637 0.55536 0.29165 0.0
H1004 H 0.13743 0.55396 0.31018 0.0
H1005 H 0.13174 0.5205 0.30159 0.0
H1006 H 0.07991 0.4893 0.31642 0.0
H1007 H 0.07443 0.48436 0.34476 0.0
loop_
_geom_bond_atom_site_label_1
_geom_bond_atom_site_label_2
_geom_bond_distance
_geom_bond_site_symmetry_2
_ccdc_geom_bond_type
Ho0 C3 2.811 . S
Ho0 O20 2.322 . S
Ho0 O22 2.378 . S
Ho0 O23 2.524 . S
Ho0 O24 2.381 . S
Ho0 O25 2.669 . S
Ho0 O27 2.346 1_455 S
Ho0 O31 2.305 . S
Ho1 C12 2.811 . S
Ho1 O21 2.346 1_655 S
Ho1 O25 2.305 1_655 S
Ho1 O26 2.322 . S
Ho1 O28 2.378 . S
Ho1 O29 2.524 . S
Ho1 O30 2.382 . S
Ho1 O31 2.669 1_655 S
C2 O20 1.259 . S
C2 O21 1.268 . S
C3 Ho0 2.811 . S
C3 C4 1.488 . S
C3 O22 1.215 . S
C3 O23 1.289 . S
C4 C3 1.488 . S
C4 C5 1.348 . S
C4 C9 1.413 . S
C5 C4 1.348 . S
C5 C6 1.442 . S
C5 H32 0.930 . S
C6 C5 1.442 . S
C6 C7 1.381 . S
C6 H33 0.931 . S
C7 C6 1.381 . S
C7 C8 1.321 . S
C8 C7 1.321 . S
C8 C9 1.403 . S
C8 H34 0.934 . S
C9 C4 1.413 . S
C9 C8 1.403 . S
C9 H35 0.930 . S
C10 O24 1.275 . S
C10 O25 1.256 . S
C11 O26 1.259 . S
C11 O27 1.268 . S
C12 Ho1 2.811 . S
C12 C13 1.488 . S
C12 O28 1.215 . S
C12 O29 1.289 . S
C13 C12 1.488 . S
C13 C14 1.348 . S
C13 C18 1.413 . S
C14 C13 1.348 . S
C14 C15 1.442 . S
C14 H36 0.930 . S
C15 C14 1.442 . S
C15 C16 1.381 . S
C15 H37 0.931 . S
C16 C15 1.381 . S
C16 C17 1.321 . S
C17 C16 1.321 . S
C17 C18 1.403 . S
C17 H38 0.934 . S
C18 C13 1.413 . S
C18 C17 1.403 . S
C18 H39 0.930 . S
C19 O30 1.266 1_455 S
C19 O31 1.256 . S
O20 Ho0 2.322 . S
O20 C2 1.259 . S
O21 Ho1 2.346 1_455 S
O21 C2 1.268 . S
O22 Ho0 2.378 . S
O22 C3 1.215 . S
O23 Ho0 2.524 . S
O23 C3 1.289 . S
O24 Ho0 2.381 . S
O24 C10 1.275 . S
O25 Ho0 2.669 . S
O25 Ho1 2.305 1_455 S
O25 C10 1.256 . S
O26 Ho1 2.322 . S
O26 C11 1.259 . S
O27 Ho0 2.346 1_655 S
O27 C11 1.268 . S
O28 Ho1 2.378 . S
O28 C12 1.215 . S
O29 Ho1 2.524 . S
O29 C12 1.289 . S
O30 Ho1 2.382 . S
O30 C19 1.266 1_655 S
O31 Ho0 2.305 . S
O31 Ho1 2.669 1_455 S
O31 C19 1.256 . S
H32 C5 0.930 . S
H33 C6 0.931 . S
H34 C8 0.934 . S
H35 C9 0.930 . S
H36 C14 0.930 . S
H37 C15 0.931 . S
H38 C17 0.934 . S
H39 C18 0.930 . S
Ho40 C43 2.811 . S
Ho40 O60 2.322 . S
Ho40 O62 2.378 . S
Ho40 O63 2.524 . S
Ho40 O64 2.381 . S
Ho40 O65 2.669 1_565 S
Ho40 O67 2.346 1_565 S
Ho40 O71 2.305 1_565 S
Ho41 C52 2.811 . S
Ho41 O61 2.346 1_545 S
Ho41 O65 2.305 . S
Ho41 O66 2.322 . S
Ho41 O68 2.378 . S
Ho41 O69 2.524 . S
Ho41 O70 2.381 . S
Ho41 O71 2.669 . S
C42 O60 1.259 . S
C42 O61 1.268 . S
C43 Ho40 2.811 . S
C43 C44 1.488 . S
C43 O62 1.215 . S
C43 O63 1.289 . S
C44 C43 1.488 . S
C44 C45 1.348 . S
C44 C49 1.413 . S
C45 C44 1.348 . S
C45 C46 1.442 . S
C45 H72 0.930 . S
C46 C45 1.442 . S
C46 C47 1.381 . S
C46 H73 0.931 . S
C47 C46 1.381 . S
C47 C48 1.321 . S
C48 C47 1.321 . S
C48 C49 1.403 . S
C48 H74 0.934 . S
C49 C44 1.413 . S
C49 C48 1.403 . S
C49 H75 0.930 . S
C50 O64 1.275 1_545 S
C50 O65 1.256 . S
C51 O66 1.259 . S
C51 O67 1.268 . S
C52 Ho41 2.811 . S
C52 C53 1.488 . S
C52 O68 1.215 . S
C52 O69 1.289 . S
C53 C52 1.488 . S
C53 C54 1.348 . S
C53 C58 1.413 . S
C54 C53 1.348 . S
C54 C55 1.442 . S
C54 H76 0.930 . S
C55 C54 1.442 . S
C55 C56 1.381 . S
C55 H77 0.931 . S
C56 C55 1.381 . S
C56 C57 1.321 . S
C57 C56 1.321 . S
C57 C58 1.403 . S
C57 H78 0.934 . S
C58 C53 1.413 . S
C58 C57 1.403 . S
C58 H79 0.930 . S
C59 O70 1.275 . S
C59 O71 1.256 . S
O60 Ho40 2.322 . S
O60 C42 1.259 . S
O61 Ho41 2.346 1_565 S
O61 C42 1.268 . S
O62 Ho40 2.378 . S
O62 C43 1.215 . S
O63 Ho40 2.524 . S
O63 C43 1.289 . S
O64 Ho40 2.381 . S
O64 C50 1.275 1_565 S
O65 Ho40 2.669 1_545 S
O65 Ho41 2.305 . S
O65 C50 1.256 . S
O66 Ho41 2.322 . S
O66 C51 1.259 . S
O67 Ho40 2.346 1_545 S
O67 C51 1.268 . S
O68 Ho41 2.378 . S
O68 C52 1.215 . S
O69 Ho41 2.524 . S
O69 C52 1.289 . S
O70 Ho41 2.381 . S
O70 C59 1.275 . S
O71 Ho40 2.305 1_545 S
O71 Ho41 2.669 . S
O71 C59 1.256 . S
H72 C45 0.930 . S
H73 C46 0.931 . S
H74 C48 0.934 . S
H75 C49 0.930 . S
H76 C54 0.930 . S
H77 C55 0.931 . S
H78 C57 0.934 . S
H79 C58 0.930 . S
Ho80 C83 2.811 . S
Ho80 O100 2.322 . S
Ho80 O102 2.378 . S
Ho80 O103 2.524 . S
Ho80 O104 2.381 . S
Ho80 O105 2.669 . S
Ho80 O107 2.346 . S
Ho80 O111 2.305 . S
Ho81 C92 2.811 . S
Ho81 O101 2.346 . S
Ho81 O105 2.305 . S
Ho81 O106 2.322 . S
Ho81 O108 2.378 . S
Ho81 O109 2.524 . S
Ho81 O110 2.381 . S
Ho81 O111 2.669 . S
C82 O100 1.259 . S
C82 O101 1.268 . S
C83 Ho80 2.811 . S
C83 C84 1.488 . S
C83 O102 1.215 . S
C83 O103 1.289 . S
C84 C83 1.488 . S
C84 C85 1.348 . S
C84 C89 1.413 . S
C85 C84 1.348 . S
C85 C86 1.442 . S
C85 H112 0.930 . S
C86 C85 1.442 . S
C86 C87 1.381 . S
C86 H113 0.931 . S
C87 C86 1.381 . S
C87 C88 1.321 . S
C88 C87 1.321 . S
C88 C89 1.403 . S
C88 H114 0.934 . S
C89 C84 1.413 . S
C89 C88 1.403 . S
C89 H115 0.930 . S
C90 O104 1.275 . S
C90 O105 1.256 . S
C91 O106 1.259 . S
C91 O107 1.268 . S
C92 Ho81 2.811 . S
C92 C93 1.488 . S
C92 O108 1.215 . S
C92 O109 1.289 . S
C93 C92 1.488 . S
C93 C94 1.348 . S
C93 C98 1.413 . S
C94 C93 1.348 . S
C94 C95 1.442 . S
C94 H116 0.930 . S
C95 C94 1.442 . S
C95 C96 1.381 . S
C95 H117 0.931 . S
C96 C95 1.381 . S
C96 C97 1.321 . S
C97 C96 1.321 . S
C97 C98 1.403 . S
C97 H118 0.934 . S
C98 C93 1.413 . S
C98 C97 1.403 . S
C98 H119 0.930 . S
C99 O110 1.275 . S
C99 O111 1.256 . S
O100 Ho80 2.322 . S
O100 C82 1.259 . S
O101 Ho81 2.346 . S
O101 C82 1.268 . S
O102 Ho80 2.378 . S
O102 C83 1.215 . S
O103 Ho80 2.524 . S
O103 C83 1.289 . S
O104 Ho80 2.381 . S
O104 C90 1.275 . S
O105 Ho80 2.669 . S
O105 Ho81 2.305 . S
O105 C90 1.256 . S
O106 Ho81 2.322 . S
O106 C91 1.259 . S
O107 Ho80 2.346 . S
O107 C91 1.268 . S
O108 Ho81 2.378 . S
O108 C92 1.215 . S
O109 Ho81 2.524 . S
O109 C92 1.289 . S
O110 Ho81 2.381 . S
O110 C99 1.275 . S
O111 Ho80 2.305 . S
O111 Ho81 2.669 . S
O111 C99 1.256 . S
H112 C85 0.930 . S
H113 C86 0.931 . S
H114 C88 0.934 . S
H115 C89 0.930 . S
H116 C94 0.930 . S
H117 C95 0.931 . S
H118 C97 0.934 . S
H119 C98 0.930 . S
C120 C121 1.264 . S
C120 C125 1.479 . S
C120 C130 1.465 . S
C121 C120 1.264 . S
C121 C123 1.339 . S
C121 H148 0.931 . S
C122 C123 1.395 . S
C122 C124 1.320 . S
C123 C121 1.339 . S
C123 C122 1.395 . S
C123 H149 0.929 . S
C124 C122 1.320 . S
C124 C125 1.405 . S
C124 H150 0.930 . S
C125 C120 1.479 . S
C125 C124 1.405 . S
C125 H151 0.931 . S
U126 O127 2.454 1_545 S
U126 O128 2.458 1_545 S
U126 C129 2.984 1_545 S
U126 C130 2.847 . S
U126 C143 2.882 . S
U126 O144 2.441 . S
U126 O145 2.420 . S
U126 O146 2.449 1_545 S
U126 O147 2.449 . S
O127 U126 2.454 1_565 S
O127 C129 1.353 . S
O128 U126 2.458 1_565 S
O128 C129 1.286 . S
C129 U126 2.984 1_565 S
C129 O127 1.353 . S
C129 O128 1.286 . S
C129 C131 1.363 . S
C130 C120 1.465 . S
C130 U126 2.847 . S
C130 O144 1.249 . S
C130 O145 1.202 . S
C131 C129 1.363 . S
C131 C133 1.408 . S
C131 C136 1.342 . S
C132 C133 1.310 . S
C132 C135 1.461 . S
C132 H152 0.932 . S
C133 C131 1.408 . S
C133 C132 1.310 . S
C133 H153 0.930 . S
C134 C135 1.474 . S
C134 C136 1.285 . S
C134 H154 0.929 . S
C135 C132 1.461 . S
C135 C134 1.474 . S
C136 C131 1.342 . S
C136 C134 1.285 . S
C136 H155 0.930 . S
C137 C140 1.424 . S
C137 C142 1.225 1_545 S
C137 C143 1.428 . S
C138 C141 1.260 . S
C138 C142 1.479 1_545 S
C138 H156 0.932 1_545 S
C139 C140 1.384 . S
C139 C141 1.479 . S
C139 H157 0.929 . S
C140 C137 1.424 . S
C140 C139 1.384 . S
C140 H158 0.928 . S
C141 C138 1.260 . S
C141 C139 1.479 . S
C142 C137 1.225 1_565 S
C142 C138 1.479 1_565 S
C142 H159 0.951 . S
C143 U126 2.882 . S
C143 C137 1.428 . S
C143 O146 1.288 1_545 S
C143 O147 1.282 . S
O144 U126 2.441 . S
O144 C130 1.249 . S
O145 U126 2.420 . S
O145 C130 1.202 . S
O146 U126 2.449 1_565 S
O146 C143 1.288 1_565 S
O147 U126 2.449 . S
O147 C143 1.282 . S
H148 C121 0.931 . S
H149 C123 0.929 . S
H150 C124 0.930 . S
H151 C125 0.931 . S
H152 C132 0.932 . S
H153 C133 0.930 . S
H154 C134 0.929 . S
H155 C136 0.930 . S
H156 C138 0.932 1_565 S
H157 C139 0.929 . S
H158 C140 0.928 . S
H159 C142 0.951 . S
C160 C161 1.264 . S
C160 C165 1.479 . S
C160 C170 1.465 . S
C161 C160 1.264 . S
C161 C163 1.339 . S
C161 H188 0.931 . S
C162 C163 1.395 . S
C162 C164 1.320 . S
C163 C161 1.339 . S
C163 C162 1.395 . S
C163 H189 0.929 . S
C164 C162 1.320 . S
C164 C165 1.405 . S
C164 H190 0.930 . S
C165 C160 1.479 . S
C165 C164 1.405 . S
C165 H191 0.931 . S
U166 O167 2.454 . S
U166 O168 2.458 . S
U166 C169 2.984 . S
U166 C170 2.847 . S
U166 C183 2.882 . S
U166 O184 2.441 . S
U166 O185 2.420 . S
U166 O186 2.455 . S
U166 O187 2.449 . S
O167 U166 2.454 . S
O167 C169 1.353 . S
O168 U166 2.458 . S
O168 C169 1.286 . S
C169 U166 2.984 . S
C169 O167 1.353 . S
C169 O168 1.286 . S
C169 C171 1.363 . S
C170 C160 1.465 . S
C170 U166 2.847 . S
C170 O184 1.249 . S
C170 O185 1.202 . S
C171 C169 1.363 . S
C171 C173 1.408 . S
C171 C176 1.342 . S
C172 C173 1.310 . S
C172 C175 1.461 . S
C172 H192 0.932 . S
C173 C171 1.408 . S
C173 C172 1.310 . S
C173 H193 0.930 . S
C174 C175 1.474 . S
C174 C176 1.285 . S
C174 H194 0.929 . S
C175 C172 1.461 . S
C175 C174 1.474 . S
C176 C171 1.342 . S
C176 C174 1.285 . S
C176 H195 0.930 . S
C177 C180 1.424 . S
C177 C182 1.245 . S
C177 C183 1.428 . S
C178 C181 1.260 . S
C178 C182 1.477 . S
C178 H196 0.932 . S
C179 C180 1.384 . S
C179 C181 1.479 . S
C179 H197 0.929 . S
C180 C177 1.424 . S
C180 C179 1.384 . S
C180 H198 0.928 . S
C181 C178 1.260 . S
C181 C179 1.479 . S
C182 C177 1.245 . S
C182 C178 1.477 . S
C182 H199 0.932 . S
C183 U166 2.882 . S
C183 C177 1.428 . S
C183 O186 1.301 . S
C183 O187 1.282 . S
O184 U166 2.441 . S
O184 C170 1.249 . S
O185 U166 2.420 . S
O185 C170 1.202 . S
O186 U166 2.455 . S
O186 C183 1.301 . S
O187 U166 2.449 . S
O187 C183 1.282 . S
H188 C161 0.931 . S
H189 C163 0.929 . S
H190 C164 0.930 . S
H191 C165 0.931 . S
H192 C172 0.932 . S
H193 C173 0.930 . S
H194 C174 0.929 . S
H195 C176 0.930 . S
H196 C178 0.932 . S
H197 C179 0.929 . S
H198 C180 0.928 . S
H199 C182 0.932 . S
C200 C201 1.264 . S
C200 C205 1.479 . S
C200 C210 1.465 . S
C201 C200 1.264 . S
C201 C203 1.339 . S
C201 H228 0.931 . S
C202 C203 1.395 . S
C202 C204 1.320 . S
C203 C201 1.339 . S
C203 C202 1.395 . S
C203 H229 0.929 . S
C204 C202 1.320 . S
C204 C205 1.405 . S
C204 H230 0.930 . S
C205 C200 1.479 . S
C205 C204 1.405 . S
C205 H231 0.931 . S
U206 O207 2.454 . S
U206 O208 2.458 . S
U206 C209 2.984 . S
U206 C210 2.847 1_455 S
U206 C223 2.882 . S
U206 O224 2.441 . S
U206 O225 2.420 1_455 S
U206 O226 2.455 . S
U206 O227 2.449 . S
O207 U206 2.454 . S
O207 C209 1.353 . S
O208 U206 2.458 . S
O208 C209 1.286 . S
C209 U206 2.984 . S
C209 O207 1.353 . S
C209 O208 1.286 . S
C209 C211 1.363 . S
C210 C200 1.465 . S
C210 U206 2.847 1_655 S
C210 O224 1.249 1_655 S
C210 O225 1.202 . S
C211 C209 1.363 . S
C211 C213 1.408 . S
C211 C216 1.342 . S
C212 C213 1.310 . S
C212 C215 1.461 . S
C212 H232 0.932 . S
C213 C211 1.408 . S
C213 C212 1.310 . S
C213 H233 0.930 . S
C214 C215 1.474 . S
C214 C216 1.285 . S
C214 H234 0.929 . S
C215 C212 1.461 . S
C215 C214 1.474 . S
C216 C211 1.342 . S
C216 C214 1.285 . S
C216 H235 0.930 . S
C217 C220 1.424 . S
C217 C222 1.245 . S
C217 C223 1.428 . S
C218 C221 1.260 . S
C218 C222 1.477 . S
C218 H236 0.932 . S
C219 C220 1.384 . S
C219 C221 1.479 . S
C219 H237 0.929 1_455 S
C220 C217 1.424 . S
C220 C219 1.384 . S
C220 H238 0.928 1_455 S
C221 C218 1.260 . S
C221 C219 1.479 . S
C222 C217 1.245 . S
C222 C218 1.477 . S
C222 H239 0.932 . S
C223 U206 2.882 . S
C223 C217 1.428 . S
C223 O226 1.301 . S
C223 O227 1.282 . S
O224 U206 2.441 . S
O224 C210 1.249 1_455 S
O225 U206 2.420 1_655 S
O225 C210 1.202 . S
O226 U206 2.455 . S
O226 C223 1.301 . S
O227 U206 2.449 . S
O227 C223 1.282 . S
H228 C201 0.931 . S
H229 C203 0.929 . S
H230 C204 0.930 . S
H231 C205 0.931 . S
H232 C212 0.932 . S
H233 C213 0.930 . S
H234 C214 0.929 . S
H235 C216 0.930 . S
H236 C218 0.932 . S
H237 C219 0.929 1_655 S
H238 C220 0.928 1_655 S
H239 C222 0.932 . S
C240 C241 1.264 . S
C240 C245 1.479 . S
C240 C250 1.465 . S
C241 C240 1.264 . S
C241 C243 1.339 . S
C241 H268 0.931 . S
C242 C243 1.395 . S
C242 C244 1.320 . S
C243 C241 1.339 . S
C243 C242 1.395 . S
C243 H269 0.929 . S
C244 C242 1.320 . S
C244 C245 1.405 . S
C244 H270 0.930 . S
C245 C240 1.479 . S
C245 C244 1.405 . S
C245 H271 0.931 . S
U246 O247 2.454 1_655 S
U246 O248 2.458 1_655 S
U246 C249 2.984 1_655 S
U246 C250 2.847 . S
U246 C263 2.882 . S
U246 O264 2.441 . S
U246 O265 2.420 . S
U246 O266 2.455 1_655 S
U246 O267 2.449 . S
O247 U246 2.454 1_455 S
O247 C249 1.353 . S
O248 U246 2.458 1_455 S
O248 C249 1.286 . S
C249 U246 2.984 1_455 S
C249 O247 1.353 . S
C249 O248 1.286 . S
C249 C251 1.363 . S
C250 C240 1.465 . S
C250 U246 2.847 . S
C250 O264 1.249 . S
C250 O265 1.202 . S
C251 C249 1.363 . S
C251 C253 1.408 . S
C251 C256 1.342 . S
C252 C253 1.310 . S
C252 C255 1.461 . S
C252 H272 0.932 . S
C253 C251 1.408 . S
C253 C252 1.310 . S
C253 H273 0.930 . S
C254 C255 1.474 . S
C254 C256 1.285 . S
C254 H274 0.929 . S
C255 C252 1.461 . S
C255 C254 1.474 . S
C256 C251 1.342 . S
C256 C254 1.285 . S
C256 H275 0.930 . S
C257 C260 1.424 . S
C257 C262 1.245 1_655 S
C257 C263 1.428 . S
C258 C261 1.260 1_455 S
C258 C262 1.477 . S
C258 H276 0.932 . S
C259 C260 1.384 . S
C259 C261 1.479 . S
C259 H277 0.929 . S
C260 C257 1.424 . S
C260 C259 1.384 . S
C260 H278 0.928 . S
C261 C258 1.260 1_655 S
C261 C259 1.479 . S
C262 C257 1.245 1_455 S
C262 C258 1.477 . S
C262 H279 0.932 . S
C263 U246 2.882 . S
C263 C257 1.428 . S
C263 O266 1.301 1_655 S
C263 O267 1.282 . S
O264 U246 2.441 . S
O264 C250 1.249 . S
O265 U246 2.420 . S
O265 C250 1.202 . S
O266 U246 2.455 1_455 S
O266 C263 1.301 1_455 S
O267 U246 2.449 . S
O267 C263 1.282 . S
H268 C241 0.931 . S
H269 C243 0.929 . S
H270 C244 0.930 . S
H271 C245 0.931 . S
H272 C252 0.932 . S
H273 C253 0.930 . S
H274 C254 0.929 . S
H275 C256 0.930 . S
H276 C258 0.932 . S
H277 C259 0.929 . S
H278 C260 0.928 . S
H279 C262 0.932 . S
C280 C281 1.264 . S
C280 C285 1.479 . S
C280 C290 1.465 . S
C281 C280 1.264 . S
C281 C283 1.339 . S
C281 H308 0.931 . S
C282 C283 1.395 . S
C282 C284 1.320 . S
C283 C281 1.339 . S
C283 C282 1.395 . S
C283 H309 0.929 . S
C284 C282 1.320 . S
C284 C285 1.405 . S
C284 H310 0.930 . S
C285 C280 1.479 . S
C285 C284 1.405 . S
C285 H311 0.931 . S
U286 O287 2.454 1_565 S
U286 O288 2.458 1_565 S
U286 C289 2.984 1_565 S
U286 C290 2.847 . S
U286 C303 2.882 . S
U286 O304 2.441 . S
U286 O305 2.420 . S
U286 O306 2.455 1_565 S
U286 O307 2.449 . S
O287 U286 2.454 1_545 S
O287 C289 1.353 . S
O288 U286 2.458 1_545 S
O288 C289 1.286 . S
C289 U286 2.984 1_545 S
C289 O287 1.353 . S
C289 O288 1.286 . S
C289 C291 1.363 . S
C290 C280 1.465 . S
C290 U286 2.847 . S
C290 O304 1.249 . S
C290 O305 1.202 . S
C291 C289 1.363 . S
C291 C293 1.408 . S
C291 C296 1.342 . S
C292 C293 1.310 . S
C292 C295 1.461 . S
C292 H312 0.932 . S
C293 C291 1.408 . S
C293 C292 1.310 . S
C293 H313 0.930 . S
C294 C295 1.474 . S
C294 C296 1.285 . S
C294 H314 0.929 . S
C295 C292 1.461 . S
C295 C294 1.474 . S
C296 C291 1.342 . S
C296 C294 1.285 . S
C296 H315 0.930 . S
C297 C300 1.424 . S
C297 C302 1.245 1_565 S
C297 C303 1.428 . S
C298 C301 1.260 1_545 S
C298 C302 1.477 . S
C298 H316 0.932 . S
C299 C300 1.384 . S
C299 C301 1.479 . S
C299 H317 0.929 . S
C300 C297 1.424 . S
C300 C299 1.384 . S
C300 H318 0.928 . S
C301 C298 1.260 1_565 S
C301 C299 1.479 . S
C302 C297 1.245 1_545 S
C302 C298 1.477 . S
C302 H319 0.932 . S
C303 U286 2.882 . S
C303 C297 1.428 . S
C303 O306 1.301 1_565 S
C303 O307 1.282 . S
O304 U286 2.441 . S
O304 C290 1.249 . S
O305 U286 2.420 . S
O305 C290 1.202 . S
O306 U286 2.455 1_545 S
O306 C303 1.301 1_545 S
O307 U286 2.449 . S
O307 C303 1.282 . S
H308 C281 0.931 . S
H309 C283 0.929 . S
H310 C284 0.930 . S
H311 C285 0.931 . S
H312 C292 0.932 . S
H313 C293 0.930 . S
H314 C294 0.929 . S
H315 C296 0.930 . S
H316 C298 0.932 . S
H317 C299 0.929 . S
H318 C300 0.928 . S
H319 C302 0.932 . S
C320 C321 1.264 . S
C320 C325 1.479 . S
C320 C330 1.465 . S
C321 C320 1.264 . S
C321 C323 1.339 . S
C321 H348 0.931 . S
C322 C323 1.395 . S
C322 C324 1.320 . S
C323 C321 1.339 . S
C323 C322 1.395 . S
C323 H349 0.929 . S
C324 C322 1.320 . S
C324 C325 1.405 . S
C324 H350 0.930 . S
C325 C320 1.479 . S
C325 C324 1.405 . S
C325 H351 0.931 . S
U326 O327 2.454 . S
U326 O328 2.458 . S
U326 C329 2.984 . S
U326 C330 2.847 . S
U326 C343 2.882 . S
U326 O344 2.441 . S
U326 O345 2.420 . S
U326 O346 2.455 . S
U326 O347 2.449 . S
O327 U326 2.454 . S
O327 C329 1.353 . S
O328 U326 2.458 . S
O328 C329 1.286 . S
C329 U326 2.984 . S
C329 O327 1.353 . S
C329 O328 1.286 . S
C329 C331 1.363 . S
C330 C320 1.465 . S
C330 U326 2.847 . S
C330 O344 1.249 . S
C330 O345 1.202 . S
C331 C329 1.363 . S
C331 C333 1.408 . S
C331 C336 1.342 . S
C332 C333 1.310 . S
C332 C335 1.461 . S
C332 H352 0.932 . S
C333 C331 1.408 . S
C333 C332 1.310 . S
C333 H353 0.930 . S
C334 C335 1.474 . S
C334 C336 1.285 . S
C334 H354 0.929 . S
C335 C332 1.461 . S
C335 C334 1.474 . S
C336 C331 1.342 . S
C336 C334 1.285 . S
C336 H355 0.930 . S
C337 C340 1.424 . S
C337 C342 1.245 . S
C337 C343 1.428 . S
C338 C341 1.260 . S
C338 C342 1.477 . S
C338 H356 0.932 . S
C339 C340 1.384 . S
C339 C341 1.479 . S
C339 H357 0.929 . S
C340 C337 1.424 . S
C340 C339 1.384 . S
C340 H358 0.928 . S
C341 C338 1.260 . S
C341 C339 1.479 . S
C342 C337 1.245 . S
C342 C338 1.477 . S
C342 H359 0.932 . S
C343 U326 2.882 . S
C343 C337 1.428 . S
C343 O346 1.301 . S
C343 O347 1.282 . S
O344 U326 2.441 . S
O344 C330 1.249 . S
O345 U326 2.420 . S
O345 C330 1.202 . S
O346 U326 2.455 . S
O346 C343 1.301 . S
O347 U326 2.449 . S
O347 C343 1.282 . S
H348 C321 0.931 . S
H349 C323 0.929 . S
H350 C324 0.930 . S
H351 C325 0.931 . S
H352 C332 0.932 . S
H353 C333 0.930 . S
H354 C334 0.929 . S
H355 C336 0.930 . S
H356 C338 0.932 . S
H357 C339 0.929 . S
H358 C340 0.928 . S
H359 C342 0.932 . S
H360 C368 0.929 . S
H361 C370 0.930 . S
H362 C372 0.930 . S
H363 C375 0.929 . S
H364 C378 0.930 . S
H365 C380 0.960 . S
H366 C380 0.960 . S
H367 C380 0.960 . S
C368 H360 0.929 . S
C368 C369 1.377 . S
C368 C370 1.384 . S
C369 C368 1.377 . S
C369 C375 1.390 . S
C370 H361 0.930 . S
C370 C368 1.384 . S
C370 C371 1.372 . S
C371 C370 1.372 . S
C371 C372 1.400 . S
C371 C376 1.490 . S
C372 H362 0.930 . S
C372 C371 1.400 . S
C372 C375 1.386 . S
H373 C389 0.930 . S
H374 C390 0.931 . S
C375 H363 0.929 . S
C375 C369 1.390 . S
C375 C372 1.386 . S
C376 C371 1.490 . S
C376 C378 1.395 . S
C376 C379 1.403 . S
H377 C383 0.930 . S
C378 H364 0.930 . S
C378 C376 1.395 . S
C378 C381 1.403 . S
C379 C376 1.403 . S
C379 C380 1.524 . S
C379 C383 1.400 . S
C380 H365 0.960 . S
C380 H366 0.960 . S
C380 H367 0.960 . S
C380 C379 1.524 . S
C381 C378 1.403 . S
C381 C382 1.392 . S
C381 C385 1.495 . S
C382 C381 1.392 . S
C382 C383 1.385 . S
C382 C384 1.478 . S
C383 H377 0.930 . S
C383 C379 1.400 . S
C383 C382 1.385 . S
C384 C382 1.478 . S
C384 C386 1.381 . S
C384 C390 1.383 . S
C385 C381 1.495 . S
C385 H391 0.959 . S
C385 H392 0.961 . S
C385 H393 0.960 . S
C386 C384 1.381 . S
C386 C387 1.394 . S
C386 H394 0.930 . S
C387 C386 1.394 . S
C387 C388 1.383 . S
C387 H395 0.929 . S
C388 C387 1.383 . S
C388 C389 1.377 . S
C389 H373 0.930 . S
C389 C388 1.377 . S
C389 C390 1.379 . S
C390 H374 0.931 . S
C390 C384 1.383 . S
C390 C389 1.379 . S
H391 C385 0.959 . S
H392 C385 0.961 . S
H393 C385 0.960 . S
H394 C386 0.930 . S
H395 C387 0.929 . S
H396 C404 0.929 . S
H397 C406 0.930 . S
H398 C408 0.930 . S
H399 C411 0.929 . S
H400 C414 0.930 . S
H401 C416 0.960 . S
H402 C416 0.960 . S
H403 C416 0.960 . S
C404 H396 0.929 . S
C404 C405 1.377 . S
C404 C406 1.384 . S
C405 C404 1.377 . S
C405 C411 1.390 . S
C406 H397 0.930 . S
C406 C404 1.384 . S
C406 C407 1.372 . S
C407 C406 1.372 . S
C407 C408 1.400 . S
C407 C412 1.490 . S
C408 H398 0.930 . S
C408 C407 1.400 . S
C408 C411 1.386 . S
H409 C425 0.930 . S
H410 C426 0.931 . S
C411 H399 0.929 . S
C411 C405 1.390 . S
C411 C408 1.386 . S
C412 C407 1.490 . S
C412 C414 1.395 . S
C412 C415 1.403 . S
H413 C419 0.930 . S
C414 H400 0.930 . S
C414 C412 1.395 . S
C414 C417 1.403 . S
C415 C412 1.403 . S
C415 C416 1.524 . S
C415 C419 1.400 . S
C416 H401 0.960 . S
C416 H402 0.960 . S
C416 H403 0.960 . S
C416 C415 1.524 . S
C417 C414 1.403 . S
C417 C418 1.392 . S
C417 C421 1.495 . S
C418 C417 1.392 . S
C418 C419 1.385 . S
C418 C420 1.478 . S
C419 H413 0.930 . S
C419 C415 1.400 . S
C419 C418 1.385 . S
C420 C418 1.478 . S
C420 C422 1.381 . S
C420 C426 1.383 . S
C421 C417 1.495 . S
C421 H427 0.959 . S
C421 H428 0.961 . S
C421 H429 0.960 . S
C422 C420 1.381 . S
C422 C423 1.394 . S
C422 H430 0.930 . S
C423 C422 1.394 . S
C423 C424 1.383 . S
C423 H431 0.929 . S
C424 C423 1.383 . S
C424 C425 1.377 . S
C425 H409 0.930 . S
C425 C424 1.377 . S
C425 C426 1.379 . S
C426 H410 0.931 . S
C426 C420 1.383 . S
C426 C425 1.379 . S
H427 C421 0.959 . S
H428 C421 0.961 . S
H429 C421 0.960 . S
H430 C422 0.930 . S
H431 C423 0.929 . S
H432 C440 0.929 . S
H433 C442 0.930 . S
H434 C444 0.930 . S
H435 C447 0.929 . S
H436 C450 0.930 . S
H437 C452 0.960 . S
H438 C452 0.960 . S
H439 C452 0.960 . S
C440 H432 0.929 . S
C440 C441 1.377 . S
C440 C442 1.384 . S
C441 C440 1.377 . S
C441 C447 1.390 . S
C442 H433 0.930 . S
C442 C440 1.384 . S
C442 C443 1.372 . S
C443 C442 1.372 . S
C443 C444 1.400 . S
C443 C448 1.490 . S
C444 H434 0.930 . S
C444 C443 1.400 . S
C444 C447 1.386 . S
H445 C461 0.930 . S
H446 C462 0.931 . S
C447 H435 0.929 . S
C447 C441 1.390 . S
C447 C444 1.386 . S
C448 C443 1.490 . S
C448 C450 1.395 . S
C448 C451 1.403 . S
H449 C455 0.930 . S
C450 H436 0.930 . S
C450 C448 1.395 . S
C450 C453 1.403 . S
C451 C448 1.403 . S
C451 C452 1.524 . S
C451 C455 1.400 . S
C452 H437 0.960 . S
C452 H438 0.960 . S
C452 H439 0.960 . S
C452 C451 1.524 . S
C453 C450 1.403 . S
C453 C454 1.392 . S
C453 C457 1.495 . S
C454 C453 1.392 . S
C454 C455 1.385 . S
C454 C456 1.478 . S
C455 H449 0.930 . S
C455 C451 1.400 . S
C455 C454 1.385 . S
C456 C454 1.478 . S
C456 C458 1.381 . S
C456 C462 1.383 . S
C457 C453 1.495 . S
C457 H463 0.959 . S
C457 H464 0.961 . S
C457 H465 0.960 . S
C458 C456 1.381 . S
C458 C459 1.394 . S
C458 H466 0.930 . S
C459 C458 1.394 . S
C459 C460 1.383 . S
C459 H467 0.929 . S
C460 C459 1.383 . S
C460 C461 1.377 . S
C461 H445 0.930 . S
C461 C460 1.377 . S
C461 C462 1.379 . S
C462 H446 0.931 . S
C462 C456 1.383 . S
C462 C461 1.379 . S
H463 C457 0.959 . S
H464 C457 0.961 . S
H465 C457 0.960 . S
H466 C458 0.930 . S
H467 C459 0.929 . S
H468 C476 0.929 . S
H469 C478 0.930 . S
H470 C480 0.930 . S
H471 C483 0.929 . S
H472 C486 0.930 . S
H473 C488 0.960 . S
H474 C488 0.960 . S
H475 C488 0.960 . S
C476 H468 0.929 . S
C476 C477 1.377 . S
C476 C478 1.384 . S
C477 C476 1.377 . S
C477 C483 1.390 . S
C478 H469 0.930 . S
C478 C476 1.384 . S
C478 C479 1.372 . S
C479 C478 1.372 . S
C479 C480 1.400 . S
C479 C484 1.490 . S
C480 H470 0.930 . S
C480 C479 1.400 . S
C480 C483 1.386 . S
H481 C497 0.930 . S
H482 C498 0.931 . S
C483 H471 0.929 . S
C483 C477 1.390 . S
C483 C480 1.386 . S
C484 C479 1.490 . S
C484 C486 1.395 . S
C484 C487 1.403 . S
H485 C491 0.930 . S
C486 H472 0.930 . S
C486 C484 1.395 . S
C486 C489 1.403 . S
C487 C484 1.403 . S
C487 C488 1.524 . S
C487 C491 1.400 . S
C488 H473 0.960 . S
C488 H474 0.960 . S
C488 H475 0.960 . S
C488 C487 1.524 . S
C489 C486 1.403 . S
C489 C490 1.392 . S
C489 C493 1.495 . S
C490 C489 1.392 . S
C490 C491 1.385 . S
C490 C492 1.478 . S
C491 H485 0.930 . S
C491 C487 1.400 . S
C491 C490 1.385 . S
C492 C490 1.478 . S
C492 C494 1.381 . S
C492 C498 1.383 . S
C493 C489 1.495 . S
C493 H499 0.959 . S
C493 H500 0.961 . S
C493 H501 0.960 . S
C494 C492 1.381 . S
C494 C495 1.394 . S
C494 H502 0.930 . S
C495 C494 1.394 . S
C495 C496 1.383 . S
C495 H503 0.929 . S
C496 C495 1.383 . S
C496 C497 1.377 . S
C497 H481 0.930 . S
C497 C496 1.377 . S
C497 C498 1.379 . S
C498 H482 0.931 . S
C498 C492 1.383 . S
C498 C497 1.379 . S
H499 C493 0.959 . S
H500 C493 0.961 . S
H501 C493 0.960 . S
H502 C494 0.930 . S
H503 C495 0.929 . S
H504 C512 0.929 . S
H505 C514 0.930 . S
H506 C516 0.930 . S
H507 C519 0.929 . S
H508 C522 0.930 . S
H509 C524 0.960 . S
H510 C524 0.960 . S
H511 C524 0.960 . S
C512 H504 0.929 . S
C512 C513 1.377 . S
C512 C514 1.384 . S
C513 C512 1.377 . S
C513 C519 1.390 . S
C514 H505 0.930 . S
C514 C512 1.384 . S
C514 C515 1.372 . S
C515 C514 1.372 . S
C515 C516 1.400 . S
C515 C520 1.490 . S
C516 H506 0.930 . S
C516 C515 1.400 . S
C516 C519 1.386 . S
H517 C533 0.930 . S
H518 C534 0.931 . S
C519 H507 0.929 . S
C519 C513 1.390 . S
C519 C516 1.386 . S
C520 C515 1.490 . S
C520 C522 1.395 . S
C520 C523 1.403 . S
H521 C527 0.930 . S
C522 H508 0.930 . S
C522 C520 1.395 . S
C522 C525 1.403 . S
C523 C520 1.403 . S
C523 C524 1.524 . S
C523 C527 1.400 . S
C524 H509 0.960 . S
C524 H510 0.960 . S
C524 H511 0.960 . S
C524 C523 1.524 . S
C525 C522 1.403 . S
C525 C526 1.392 . S
C525 C529 1.495 . S
C526 C525 1.392 . S
C526 C527 1.385 . S
C526 C528 1.478 . S
C527 H521 0.930 . S
C527 C523 1.400 . S
C527 C526 1.385 . S
C528 C526 1.478 . S
C528 C530 1.381 . S
C528 C534 1.383 . S
C529 C525 1.495 . S
C529 H535 0.959 . S
C529 H536 0.961 . S
C529 H537 0.960 . S
C530 C528 1.381 . S
C530 C531 1.394 . S
C530 H538 0.930 . S
C531 C530 1.394 . S
C531 C532 1.383 . S
C531 H539 0.929 . S
C532 C531 1.383 . S
C532 C533 1.377 . S
C533 H517 0.930 . S
C533 C532 1.377 . S
C533 C534 1.379 . S
C534 H518 0.931 . S
C534 C528 1.383 . S
C534 C533 1.379 . S
H535 C529 0.959 . S
H536 C529 0.961 . S
H537 C529 0.960 . S
H538 C530 0.930 . S
H539 C531 0.929 . S
H540 C548 0.929 . S
H541 C550 0.930 . S
H542 C552 0.930 . S
H543 C555 0.929 . S
H544 C558 0.930 . S
H545 C560 0.960 . S
H546 C560 0.960 . S
H547 C560 0.960 . S
C548 H540 0.929 . S
C548 C549 1.377 . S
C548 C550 1.384 . S
C549 C548 1.377 . S
C549 C555 1.390 . S
C550 H541 0.930 . S
C550 C548 1.384 . S
C550 C551 1.372 . S
C551 C550 1.372 . S
C551 C552 1.400 . S
C551 C556 1.490 . S
C552 H542 0.930 . S
C552 C551 1.400 . S
C552 C555 1.386 . S
H553 C569 0.930 . S
H554 C570 0.931 . S
C555 H543 0.929 . S
C555 C549 1.390 . S
C555 C552 1.386 . S
C556 C551 1.490 . S
C556 C558 1.395 . S
C556 C559 1.403 . S
H557 C563 0.930 . S
C558 H544 0.930 . S
C558 C556 1.395 . S
C558 C561 1.403 . S
C559 C556 1.403 . S
C559 C560 1.524 . S
C559 C563 1.400 . S
C560 H545 0.960 . S
C560 H546 0.960 . S
C560 H547 0.960 . S
C560 C559 1.524 . S
C561 C558 1.403 . S
C561 C562 1.392 . S
C561 C565 1.495 . S
C562 C561 1.392 . S
C562 C563 1.385 . S
C562 C564 1.478 . S
C563 H557 0.930 . S
C563 C559 1.400 . S
C563 C562 1.385 . S
C564 C562 1.478 . S
C564 C566 1.381 . S
C564 C570 1.383 . S
C565 C561 1.495 . S
C565 H571 0.959 . S
C565 H572 0.961 . S
C565 H573 0.960 . S
C566 C564 1.381 . S
C566 C567 1.394 . S
C566 H574 0.930 . S
C567 C566 1.394 . S
C567 C568 1.383 . S
C567 H575 0.929 . S
C568 C567 1.383 . S
C568 C569 1.377 . S
C569 H553 0.930 . S
C569 C568 1.377 . S
C569 C570 1.379 . S
C570 H554 0.931 . S
C570 C564 1.383 . S
C570 C569 1.379 . S
H571 C565 0.959 . S
H572 C565 0.961 . S
H573 C565 0.960 . S
H574 C566 0.930 . S
H575 C567 0.929 . S
H576 C584 0.929 . S
H577 C586 0.930 . S
H578 C588 0.930 . S
H579 C591 0.929 . S
H580 C594 0.930 . S
H581 C596 0.960 . S
H582 C596 0.960 . S
H583 C596 0.960 . S
C584 H576 0.929 . S
C584 C585 1.377 . S
C584 C586 1.384 . S
C585 C584 1.377 . S
C585 C591 1.390 . S
C586 H577 0.930 . S
C586 C584 1.384 . S
C586 C587 1.372 . S
C587 C586 1.372 . S
C587 C588 1.400 . S
C587 C592 1.490 . S
C588 H578 0.930 . S
C588 C587 1.400 . S
C588 C591 1.386 . S
H589 C605 0.930 . S
H590 C606 0.931 . S
C591 H579 0.929 . S
C591 C585 1.390 . S
C591 C588 1.386 . S
C592 C587 1.490 . S
C592 C594 1.395 . S
C592 C595 1.403 . S
H593 C599 0.930 . S
C594 H580 0.930 . S
C594 C592 1.395 . S
C594 C597 1.403 . S
C595 C592 1.403 . S
C595 C596 1.524 . S
C595 C599 1.400 . S
C596 H581 0.960 . S
C596 H582 0.960 . S
C596 H583 0.960 . S
C596 C595 1.524 . S
C597 C594 1.403 . S
C597 C598 1.392 . S
C597 C601 1.495 . S
C598 C597 1.392 . S
C598 C599 1.385 . S
C598 C600 1.478 . S
C599 H593 0.930 . S
C599 C595 1.400 . S
C599 C598 1.385 . S
C600 C598 1.478 . S
C600 C602 1.381 . S
C600 C606 1.383 . S
C601 C597 1.495 . S
C601 H607 0.959 . S
C601 H608 0.961 . S
C601 H609 0.960 . S
C602 C600 1.381 . S
C602 C603 1.394 . S
C602 H610 0.930 . S
C603 C602 1.394 . S
C603 C604 1.383 . S
C603 H611 0.929 . S
C604 C603 1.383 . S
C604 C605 1.377 . S
C605 H589 0.930 . S
C605 C604 1.377 . S
C605 C606 1.379 . S
C606 H590 0.931 . S
C606 C600 1.383 . S
C606 C605 1.379 . S
H607 C601 0.959 . S
H608 C601 0.961 . S
H609 C601 0.960 . S
H610 C602 0.930 . S
H611 C603 0.929 . S
H612 C620 0.929 . S
H613 C622 0.930 . S
H614 C624 0.930 . S
H615 C627 0.929 . S
H616 C630 0.930 . S
H617 C632 0.960 . S
H618 C632 0.960 . S
H619 C632 0.960 . S
C620 H612 0.929 . S
C620 C621 1.377 . S
C620 C622 1.384 . S
C621 C620 1.377 . S
C621 C627 1.390 . S
C622 H613 0.930 . S
C622 C620 1.384 . S
C622 C623 1.372 . S
C623 C622 1.372 . S
C623 C624 1.400 . S
C623 C628 1.490 . S
C624 H614 0.930 . S
C624 C623 1.400 . S
C624 C627 1.386 . S
H625 C641 0.930 . S
H626 C642 0.931 . S
C627 H615 0.929 . S
C627 C621 1.390 . S
C627 C624 1.386 . S
C628 C623 1.490 . S
C628 C630 1.395 . S
C628 C631 1.403 . S
H629 C635 0.930 . S
C630 H616 0.930 . S
C630 C628 1.395 . S
C630 C633 1.403 . S
C631 C628 1.403 . S
C631 C632 1.524 . S
C631 C635 1.400 . S
C632 H617 0.960 . S
C632 H618 0.960 . S
C632 H619 0.960 . S
C632 C631 1.524 . S
C633 C630 1.403 . S
C633 C634 1.392 . S
C633 C637 1.495 . S
C634 C633 1.392 . S
C634 C635 1.385 . S
C634 C636 1.478 . S
C635 H629 0.930 . S
C635 C631 1.400 . S
C635 C634 1.385 . S
C636 C634 1.478 . S
C636 C638 1.381 . S
C636 C642 1.383 . S
C637 C633 1.495 . S
C637 H643 0.959 . S
C637 H644 0.961 . S
C637 H645 0.960 . S
C638 C636 1.381 . S
C638 C639 1.394 . S
C638 H646 0.930 . S
C639 C638 1.394 . S
C639 C640 1.383 . S
C639 H647 0.929 . S
C640 C639 1.383 . S
C640 C641 1.377 . S
C641 H625 0.930 . S
C641 C640 1.377 . S
C641 C642 1.379 . S
C642 H626 0.931 . S
C642 C636 1.383 . S
C642 C641 1.379 . S
H643 C637 0.959 . S
H644 C637 0.961 . S
H645 C637 0.960 . S
H646 C638 0.930 . S
H647 C639 0.929 . S
H648 C656 0.929 . S
H649 C658 0.930 . S
H650 C660 0.930 . S
H651 C663 0.929 . S
H652 C666 0.930 . S
H653 C668 0.960 . S
H654 C668 0.960 . S
H655 C668 0.960 . S
C656 H648 0.929 . S
C656 C657 1.377 . S
C656 C658 1.384 . S
C657 C656 1.377 . S
C657 C663 1.390 . S
C658 H649 0.930 . S
C658 C656 1.384 . S
C658 C659 1.372 . S
C659 C658 1.372 . S
C659 C660 1.400 . S
C659 C664 1.490 . S
C660 H650 0.930 . S
C660 C659 1.400 . S
C660 C663 1.386 . S
H661 C677 0.930 . S
H662 C678 0.931 . S
C663 H651 0.929 . S
C663 C657 1.390 . S
C663 C660 1.386 . S
C664 C659 1.490 . S
C664 C666 1.395 . S
C664 C667 1.403 . S
H665 C671 0.930 . S
C666 H652 0.930 . S
C666 C664 1.395 . S
C666 C669 1.403 . S
C667 C664 1.403 . S
C667 C668 1.524 . S
C667 C671 1.400 . S
C668 H653 0.960 . S
C668 H654 0.960 . S
C668 H655 0.960 . S
C668 C667 1.524 . S
C669 C666 1.403 . S
C669 C670 1.392 . S
C669 C673 1.495 . S
C670 C669 1.392 . S
C670 C671 1.385 . S
C670 C672 1.478 . S
C671 H665 0.930 . S
C671 C667 1.400 . S
C671 C670 1.385 . S
C672 C670 1.478 . S
C672 C674 1.381 . S
C672 C678 1.383 . S
C673 C669 1.495 . S
C673 H679 0.959 . S
C673 H680 0.961 . S
C673 H681 0.960 . S
C674 C672 1.381 . S
C674 C675 1.394 . S
C674 H682 0.930 . S
C675 C674 1.394 . S
C675 C676 1.383 . S
C675 H683 0.929 . S
C676 C675 1.383 . S
C676 C677 1.377 . S
C677 H661 0.930 . S
C677 C676 1.377 . S
C677 C678 1.379 . S
C678 H662 0.931 . S
C678 C672 1.383 . S
C678 C677 1.379 . S
H679 C673 0.959 . S
H680 C673 0.961 . S
H681 C673 0.960 . S
H682 C674 0.930 . S
H683 C675 0.929 . S
H684 C692 0.929 . S
H685 C694 0.930 . S
H686 C696 0.930 . S
H687 C699 0.929 . S
H688 C702 0.930 . S
H689 C704 0.960 . S
H690 C704 0.960 . S
H691 C704 0.960 . S
C692 H684 0.929 . S
C692 C693 1.377 . S
C692 C694 1.384 . S
C693 C692 1.377 . S
C693 C699 1.390 . S
C694 H685 0.930 . S
C694 C692 1.384 . S
C694 C695 1.372 . S
C695 C694 1.372 . S
C695 C696 1.400 . S
C695 C700 1.490 . S
C696 H686 0.930 . S
C696 C695 1.400 . S
C696 C699 1.386 . S
H697 C713 0.930 . S
H698 C714 0.931 . S
C699 H687 0.929 . S
C699 C693 1.390 . S
C699 C696 1.386 . S
C700 C695 1.490 . S
C700 C702 1.395 . S
C700 C703 1.403 . S
H701 C707 0.930 . S
C702 H688 0.930 . S
C702 C700 1.395 . S
C702 C705 1.403 . S
C703 C700 1.403 . S
C703 C704 1.524 . S
C703 C707 1.400 . S
C704 H689 0.960 . S
C704 H690 0.960 . S
C704 H691 0.960 . S
C704 C703 1.524 . S
C705 C702 1.403 . S
C705 C706 1.392 . S
C705 C709 1.495 . S
C706 C705 1.392 . S
C706 C707 1.385 . S
C706 C708 1.478 . S
C707 H701 0.930 . S
C707 C703 1.400 . S
C707 C706 1.385 . S
C708 C706 1.478 . S
C708 C710 1.381 . S
C708 C714 1.383 . S
C709 C705 1.495 . S
C709 H715 0.959 . S
C709 H716 0.961 . S
C709 H717 0.960 . S
C710 C708 1.381 . S
C710 C711 1.394 . S
C710 H718 0.930 . S
C711 C710 1.394 . S
C711 C712 1.383 . S
C711 H719 0.929 . S
C712 C711 1.383 . S
C712 C713 1.377 . S
C713 H697 0.930 . S
C713 C712 1.377 . S
C713 C714 1.379 . S
C714 H698 0.931 . S
C714 C708 1.383 . S
C714 C713 1.379 . S
H715 C709 0.959 . S
H716 C709 0.961 . S
H717 C709 0.960 . S
H718 C710 0.930 . S
H719 C711 0.929 . S
H720 C728 0.929 . S
H721 C730 0.930 . S
H722 C732 0.930 . S
H723 C735 0.929 . S
H724 C738 0.930 . S
H725 C740 0.960 . S
H726 C740 0.960 . S
H727 C740 0.960 . S
C728 H720 0.929 . S
C728 C729 1.377 . S
C728 C730 1.384 . S
C729 C728 1.377 . S
C729 C735 1.390 . S
C730 H721 0.930 . S
C730 C728 1.384 . S
C730 C731 1.372 . S
C731 C730 1.372 . S
C731 C732 1.400 . S
C731 C736 1.490 . S
C732 H722 0.930 . S
C732 C731 1.400 . S
C732 C735 1.386 . S
H733 C749 0.930 . S
H734 C750 0.931 . S
C735 H723 0.929 . S
C735 C729 1.390 . S
C735 C732 1.386 . S
C736 C731 1.490 . S
C736 C738 1.395 . S
C736 C739 1.403 . S
H737 C743 0.930 . S
C738 H724 0.930 . S
C738 C736 1.395 . S
C738 C741 1.403 . S
C739 C736 1.403 . S
C739 C740 1.524 . S
C739 C743 1.400 . S
C740 H725 0.960 . S
C740 H726 0.960 . S
C740 H727 0.960 . S
C740 C739 1.524 . S
C741 C738 1.403 . S
C741 C742 1.392 . S
C741 C745 1.495 . S
C742 C741 1.392 . S
C742 C743 1.385 . S
C742 C744 1.478 . S
C743 H737 0.930 . S
C743 C739 1.400 . S
C743 C742 1.385 . S
C744 C742 1.478 . S
C744 C746 1.381 . S
C744 C750 1.383 . S
C745 C741 1.495 . S
C745 H751 0.959 . S
C745 H752 0.961 . S
C745 H753 0.960 . S
C746 C744 1.381 . S
C746 C747 1.394 . S
C746 H754 0.930 . S
C747 C746 1.394 . S
C747 C748 1.383 . S
C747 H755 0.929 . S
C748 C747 1.383 . S
C748 C749 1.377 . S
C749 H733 0.930 . S
C749 C748 1.377 . S
C749 C750 1.379 . S
C750 H734 0.931 . S
C750 C744 1.383 . S
C750 C749 1.379 . S
H751 C745 0.959 . S
H752 C745 0.961 . S
H753 C745 0.960 . S
H754 C746 0.930 . S
H755 C747 0.929 . S
H756 C764 0.929 . S
H757 C766 0.930 . S
H758 C768 0.930 . S
H759 C771 0.929 . S
H760 C774 0.930 . S
H761 C776 0.960 . S
H762 C776 0.960 . S
H763 C776 0.960 . S
C764 H756 0.929 . S
C764 C765 1.377 . S
C764 C766 1.384 . S
C765 C764 1.377 . S
C765 C771 1.390 . S
C766 H757 0.930 . S
C766 C764 1.384 . S
C766 C767 1.372 . S
C767 C766 1.372 . S
C767 C768 1.400 . S
C767 C772 1.490 . S
C768 H758 0.930 . S
C768 C767 1.400 . S
C768 C771 1.386 . S
H769 C785 0.930 . S
H770 C786 0.931 . S
C771 H759 0.929 . S
C771 C765 1.390 . S
C771 C768 1.386 . S
C772 C767 1.490 . S
C772 C774 1.395 . S
C772 C775 1.403 . S
H773 C779 0.930 . S
C774 H760 0.930 . S
C774 C772 1.395 . S
C774 C777 1.403 . S
C775 C772 1.403 . S
C775 C776 1.524 . S
C775 C779 1.400 . S
C776 H761 0.960 . S
C776 H762 0.960 . S
C776 H763 0.960 . S
C776 C775 1.524 . S
C777 C774 1.403 . S
C777 C778 1.392 . S
C777 C781 1.495 . S
C778 C777 1.392 . S
C778 C779 1.385 . S
C778 C780 1.478 . S
C779 H773 0.930 . S
C779 C775 1.400 . S
C779 C778 1.385 . S
C780 C778 1.478 . S
C780 C782 1.381 . S
C780 C786 1.383 . S
C781 C777 1.495 . S
C781 H787 0.959 . S
C781 H788 0.961 . S
C781 H789 0.960 . S
C782 C780 1.381 . S
C782 C783 1.394 . S
C782 H790 0.930 . S
C783 C782 1.394 . S
C783 C784 1.383 . S
C783 H791 0.929 . S
C784 C783 1.383 . S
C784 C785 1.377 . S
C785 H769 0.930 . S
C785 C784 1.377 . S
C785 C786 1.379 . S
C786 H770 0.931 . S
C786 C780 1.383 . S
C786 C785 1.379 . S
H787 C781 0.959 . S
H788 C781 0.961 . S
H789 C781 0.960 . S
H790 C782 0.930 . S
H791 C783 0.929 . S
H792 C800 0.929 . S
H793 C802 0.930 . S
H794 C804 0.930 . S
H795 C807 0.929 . S
H796 C810 0.930 . S
H797 C812 0.960 . S
H798 C812 0.960 . S
H799 C812 0.960 . S
C800 H792 0.929 . S
C800 C801 1.377 1_655 S
C800 C802 1.384 . S
C801 C800 1.377 1_455 S
C801 C807 1.390 . S
C802 H793 0.930 . S
C802 C800 1.384 . S
C802 C803 1.372 1_655 S
C803 C802 1.372 1_455 S
C803 C804 1.400 . S
C803 C808 1.490 . S
C804 H794 0.930 . S
C804 C803 1.400 . S
C804 C807 1.386 . S
H805 C821 0.930 1_556 S
H806 C822 0.931 . S
C807 H795 0.929 . S
C807 C801 1.390 . S
C807 C804 1.386 . S
C808 C803 1.490 . S
C808 C810 1.395 . S
C808 C811 1.403 . S
H809 C815 0.930 . S
C810 H796 0.930 . S
C810 C808 1.395 . S
C810 C813 1.403 . S
C811 C808 1.403 . S
C811 C812 1.524 . S
C811 C815 1.400 . S
C812 H797 0.960 . S
C812 H798 0.960 . S
C812 H799 0.960 . S
C812 C811 1.524 . S
C813 C810 1.403 . S
C813 C814 1.392 . S
C813 C817 1.495 . S
C814 C813 1.392 . S
C814 C815 1.385 . S
C814 C816 1.478 . S
C815 H809 0.930 . S
C815 C811 1.400 . S
C815 C814 1.385 . S
C816 C814 1.478 . S
C816 C818 1.381 . S
C816 C822 1.383 . S
C817 C813 1.495 . S
C817 H823 0.959 . S
C817 H824 0.961 . S
C817 H825 0.960 . S
C818 C816 1.381 . S
C818 C819 1.392 1_554 S
C818 H826 0.930 1_455 S
C819 C818 1.392 1_556 S
C819 C820 1.384 . S
C819 H827 0.931 1_455 S
C820 C819 1.384 . S
C820 C821 1.377 1_556 S
C821 H805 0.930 1_554 S
C821 C820 1.377 1_554 S
C821 C822 1.379 . S
C822 H806 0.931 . S
C822 C816 1.383 . S
C822 C821 1.379 . S
H823 C817 0.959 . S
H824 C817 0.961 . S
H825 C817 0.960 . S
H826 C818 0.930 1_655 S
H827 C819 0.931 1_655 S
H828 C836 0.929 . S
H829 C838 0.930 . S
H830 C840 0.930 . S
H831 C843 0.929 . S
H832 C846 0.930 . S
H833 C848 0.960 . S
H834 C848 0.960 1_565 S
H835 C848 0.960 . S
C836 H828 0.929 . S
C836 C837 1.377 1_565 S
C836 C838 1.384 . S
C837 C836 1.377 1_545 S
C837 C843 1.390 . S
C838 H829 0.930 . S
C838 C836 1.384 . S
C838 C839 1.372 1_565 S
C839 C838 1.372 1_545 S
C839 C840 1.400 . S
C839 C844 1.490 . S
C840 H830 0.930 . S
C840 C839 1.400 . S
C840 C843 1.386 . S
H841 C857 0.930 . S
H842 C858 0.931 . S
C843 H831 0.929 . S
C843 C837 1.390 . S
C843 C840 1.386 . S
C844 C839 1.490 . S
C844 C846 1.395 . S
C844 C847 1.403 . S
H845 C851 0.930 . S
C846 H832 0.930 . S
C846 C844 1.395 . S
C846 C849 1.403 . S
C847 C844 1.403 . S
C847 C848 1.524 . S
C847 C851 1.400 . S
C848 H833 0.960 . S
C848 H834 0.960 1_545 S
C848 H835 0.960 . S
C848 C847 1.524 . S
C849 C846 1.403 . S
C849 C850 1.392 . S
C849 C853 1.495 . S
C850 C849 1.392 . S
C850 C851 1.385 . S
C850 C852 1.478 . S
C851 H845 0.930 . S
C851 C847 1.400 . S
C851 C850 1.385 . S
C852 C850 1.478 . S
C852 C854 1.381 1_545 S
C852 C858 1.383 . S
C853 C849 1.495 . S
C853 H859 0.959 . S
C853 H860 0.961 . S
C853 H861 0.960 1_545 S
C854 C852 1.381 1_565 S
C854 C855 1.394 . S
C854 H862 0.930 . S
C855 C854 1.394 . S
C855 C856 1.383 1_565 S
C855 H863 0.929 . S
C856 C855 1.383 1_545 S
C856 C857 1.377 . S
C857 H841 0.930 . S
C857 C856 1.377 . S
C857 C858 1.379 . S
C858 H842 0.931 . S
C858 C852 1.383 . S
C858 C857 1.379 . S
H859 C853 0.959 . S
H860 C853 0.961 . S
H861 C853 0.960 1_565 S
H862 C854 0.930 . S
H863 C855 0.929 . S
H864 C872 0.929 . S
H865 C874 0.930 . S
H866 C876 0.930 . S
H867 C879 0.929 . S
H868 C882 0.930 . S
H869 C884 0.960 . S
H870 C884 0.960 . S
H871 C884 0.960 . S
C872 H864 0.929 . S
C872 C873 1.377 . S
C872 C874 1.384 . S
C873 C872 1.377 . S
C873 C879 1.390 . S
C874 H865 0.930 . S
C874 C872 1.384 . S
C874 C875 1.372 . S
C875 C874 1.372 . S
C875 C876 1.400 . S
C875 C880 1.490 . S
C876 H866 0.930 . S
C876 C875 1.400 . S
C876 C879 1.386 . S
H877 C893 0.930 . S
H878 C894 0.931 . S
C879 H867 0.929 . S
C879 C873 1.390 . S
C879 C876 1.386 . S
C880 C875 1.490 . S
C880 C882 1.395 . S
C880 C883 1.403 . S
H881 C887 0.930 . S
C882 H868 0.930 . S
C882 C880 1.395 . S
C882 C885 1.403 . S
C883 C880 1.403 . S
C883 C884 1.524 . S
C883 C887 1.400 . S
C884 H869 0.960 . S
C884 H870 0.960 . S
C884 H871 0.960 . S
C884 C883 1.524 . S
C885 C882 1.403 . S
C885 C886 1.392 . S
C885 C889 1.495 . S
C886 C885 1.392 . S
C886 C887 1.385 . S
C886 C888 1.478 . S
C887 H881 0.930 . S
C887 C883 1.400 . S
C887 C886 1.385 . S
C888 C886 1.478 . S
C888 C890 1.381 . S
C888 C894 1.383 . S
C889 C885 1.495 . S
C889 H895 0.959 . S
C889 H896 0.961 . S
C889 H897 0.960 . S
C890 C888 1.381 . S
C890 C891 1.394 . S
C890 H898 0.930 . S
C891 C890 1.394 . S
C891 C892 1.383 . S
C891 H899 0.929 . S
C892 C891 1.383 . S
C892 C893 1.377 . S
C893 H877 0.930 . S
C893 C892 1.377 . S
C893 C894 1.379 . S
C894 H878 0.931 . S
C894 C888 1.383 . S
C894 C893 1.379 . S
H895 C889 0.959 . S
H896 C889 0.961 . S
H897 C889 0.960 . S
H898 C890 0.930 . S
H899 C891 0.929 . S
H900 C908 0.929 . S
H901 C910 0.930 . S
H902 C912 0.930 . S
H903 C915 0.929 . S
H904 C918 0.930 . S
H905 C920 0.960 . S
H906 C920 0.960 . S
H907 C920 0.960 1_545 S
C908 H900 0.929 . S
C908 C909 1.377 1_565 S
C908 C910 1.384 . S
C909 C908 1.377 1_545 S
C909 C915 1.390 . S
C910 H901 0.930 . S
C910 C908 1.384 . S
C910 C911 1.372 1_565 S
C911 C910 1.372 1_545 S
C911 C912 1.400 . S
C911 C916 1.490 . S
C912 H902 0.930 . S
C912 C911 1.400 . S
C912 C915 1.386 . S
H913 C929 0.930 . S
H914 C930 0.931 . S
C915 H903 0.929 . S
C915 C909 1.390 . S
C915 C912 1.386 . S
C916 C911 1.490 . S
C916 C918 1.395 . S
C916 C919 1.403 1_545 S
H917 C923 0.930 . S
C918 H904 0.930 . S
C918 C916 1.395 . S
C918 C921 1.403 . S
C919 C916 1.403 1_565 S
C919 C920 1.524 . S
C919 C923 1.400 . S
C920 H905 0.960 . S
C920 H906 0.960 . S
C920 H907 0.960 1_565 S
C920 C919 1.524 . S
C921 C918 1.403 . S
C921 C922 1.395 1_545 S
C921 C925 1.495 . S
C922 C921 1.395 1_565 S
C922 C923 1.382 . S
C922 C924 1.476 . S
C923 H917 0.930 . S
C923 C919 1.400 . S
C923 C922 1.382 . S
C924 C922 1.476 . S
C924 C926 1.409 . S
C924 C930 1.356 1_565 S
C925 C921 1.495 . S
C925 H931 0.959 . S
C925 H932 0.961 . S
C925 H933 0.960 1_545 S
C926 C924 1.409 . S
C926 C927 1.394 . S
C926 H934 0.930 . S
C927 C926 1.394 . S
C927 C928 1.383 . S
C927 H935 0.929 . S
C928 C927 1.383 . S
C928 C929 1.377 1_565 S
C929 H913 0.930 . S
C929 C928 1.377 1_545 S
C929 C930 1.379 . S
C930 H914 0.931 . S
C930 C924 1.356 1_545 S
C930 C929 1.379 . S
H931 C925 0.959 . S
H932 C925 0.961 . S
H933 C925 0.960 1_565 S
H934 C926 0.930 . S
H935 C927 0.929 . S
H936 C944 0.929 . S
H937 C946 0.930 . S
H938 C948 0.930 . S
H939 C951 0.929 . S
H940 C954 0.930 . S
H941 C956 0.960 . S
H942 C956 0.960 . S
H943 C956 0.960 . S
C944 H936 0.929 . S
C944 C945 1.377 . S
C944 C946 1.384 . S
C945 C944 1.377 . S
C945 C951 1.390 . S
C946 H937 0.930 . S
C946 C944 1.384 . S
C946 C947 1.372 . S
C947 C946 1.372 . S
C947 C948 1.400 . S
C947 C952 1.490 . S
C948 H938 0.930 . S
C948 C947 1.400 . S
C948 C951 1.386 . S
H949 C965 0.930 . S
H950 C966 0.931 . S
C951 H939 0.929 . S
C951 C945 1.390 . S
C951 C948 1.386 . S
C952 C947 1.490 . S
C952 C954 1.395 . S
C952 C955 1.403 . S
H953 C959 0.930 . S
C954 H940 0.930 . S
C954 C952 1.395 . S
C954 C957 1.403 . S
C955 C952 1.403 . S
C955 C956 1.524 . S
C955 C959 1.400 . S
C956 H941 0.960 . S
C956 H942 0.960 . S
C956 H943 0.960 . S
C956 C955 1.524 . S
C957 C954 1.403 . S
C957 C958 1.392 . S
C957 C961 1.495 . S
C958 C957 1.392 . S
C958 C959 1.385 . S
C958 C960 1.478 . S
C959 H953 0.930 . S
C959 C955 1.400 . S
C959 C958 1.385 . S
C960 C958 1.478 . S
C960 C962 1.381 . S
C960 C966 1.383 . S
C961 C957 1.495 . S
C961 H967 0.959 . S
C961 H968 0.961 . S
C961 H969 0.960 . S
C962 C960 1.381 . S
C962 C963 1.394 1_556 S
C962 H970 0.930 . S
C963 C962 1.394 1_554 S
C963 C964 1.383 . S
C963 H971 0.929 . S
C964 C963 1.383 . S
C964 C965 1.377 . S
C965 H949 0.930 . S
C965 C964 1.377 . S
C965 C966 1.379 1_554 S
C966 H950 0.931 . S
C966 C960 1.383 . S
C966 C965 1.379 1_556 S
H967 C961 0.959 . S
H968 C961 0.961 . S
H969 C961 0.960 . S
H970 C962 0.930 . S
H971 C963 0.929 . S
H972 C980 0.929 . S
H973 C982 0.930 . S
H974 C984 0.901 1_655 S
H975 C987 0.929 . S
H976 C990 0.930 . S
H977 C992 0.960 . S
H978 C992 0.960 . S
H979 C992 0.960 . S
C980 H972 0.929 . S
C980 C981 1.377 . S
C980 C982 1.384 . S
C981 C980 1.377 . S
C981 C987 1.390 . S
C982 H973 0.930 . S
C982 C980 1.384 . S
C982 C983 1.372 . S
C983 C982 1.372 . S
C983 C984 1.400 . S
C983 C988 1.490 . S
C984 H974 0.901 1_455 S
C984 C983 1.400 . S
C984 C987 1.386 . S
H985 C1001 0.947 . S
H986 C1002 0.931 . S
C987 H975 0.929 . S
C987 C981 1.390 . S
C987 C984 1.386 . S
C988 C983 1.490 . S
C988 C990 1.395 . S
C988 C991 1.403 1_455 S
H989 C995 0.930 . S
C990 H976 0.930 . S
C990 C988 1.395 . S
C990 C993 1.403 . S
C991 C988 1.403 1_655 S
C991 C992 1.524 . S
C991 C995 1.400 . S
C992 H977 0.960 . S
C992 H978 0.960 . S
C992 H979 0.960 . S
C992 C991 1.524 . S
C993 C990 1.403 . S
C993 C994 1.392 . S
C993 C997 1.495 . S
C994 C993 1.392 . S
C994 C995 1.385 1_455 S
C994 C996 1.478 . S
C995 H989 0.930 . S
C995 C991 1.400 . S
C995 C994 1.385 1_655 S
C996 C994 1.478 . S
C996 C998 1.381 . S
C996 C1002 1.383 . S
C997 C993 1.495 . S
C997 H1003 0.959 . S
C997 H1004 0.961 . S
C997 H1005 0.960 . S
C998 C996 1.381 . S
C998 C999 1.394 . S
C998 H1006 0.930 . S
C999 C998 1.394 . S
C999 C1000 1.383 1_455 S
C999 H1007 0.929 . S
C1000 C999 1.383 1_655 S
C1000 C1001 1.363 . S
C1001 H985 0.947 . S
C1001 C1000 1.363 . S
C1001 C1002 1.376 1_655 S
C1002 H986 0.931 . S
C1002 C996 1.383 . S
C1002 C1001 1.376 1_455 S
H1003 C997 0.959 . S
H1004 C997 0.961 . S
H1005 C997 0.960 . S
H1006 C998 0.930 . S
H1007 C999 0.929 . S
C369 C7 0.475 . S
C388 C335 0.504 . S
C405 C51 1.894 . S
C424 C242 1.871 . S
C441 C87 1.149 . S
C460 C282 1.150 . S
C477 C16 0.288 . S
C496 C322 0.252 . S
C532 C255 2.008 . S
C513 C42 2.059 . S
C568 C295 1.288 . S
C549 C96 1.306 . S
C585 C47 1.145 . S
C604 C162 1.120 . S
C621 C91 3.113 . S
C640 C202 3.070 . S
C657 C2 2.082 . S
C676 C135 2.038 . S
C712 C175 1.289 . S
C693 C56 1.285 . S
C748 C215 2.961 . S
C729 C82 2.987 . S
C765 C11 1.887 . S
C784 C122 1.858 . S
C820 C221 1.746 . S
C801 C19 1.696 . S
C837 C50 1.350 . S
C856 C141 1.371 . S
C873 C99 1.464 . S
C892 C181 1.505 . S
C928 C301 1.496 . S
C909 C59 1.457 . S
C964 C341 1.144 . S
C945 C90 1.124 . S
C981 C10 1.349 . S
C1000 C261 1.381 . S
