# Generated by pormake.
# Topology csq, (4,8)-cn, num edge types: 1
# Building blocks:
#     Node 0, Type 0, BuildingBlock: MUDLON_clean_sbu_0, # of connection points: 4
#     Node 1, Type 0, BuildingBlock: MUDLON_clean_sbu_0, # of connection points: 4
#     Node 2, Type 0, BuildingBlock: MUDLON_clean_sbu_0, # of connection points: 4
#     Node 3, Type 0, BuildingBlock: MUDLON_clean_sbu_0, # of connection points: 4
#     Node 4, Type 0, BuildingBlock: MUDLON_clean_sbu_0, # of connection points: 4
#     Node 5, Type 0, BuildingBlock: MUDLON_clean_sbu_0, # of connection points: 4
#     Node 6, Type 1, BuildingBlock: TAGTUT_clean_sbu_3, # of connection points: 8
#     Node 7, Type 1, BuildingBlock: TAGTUT_clean_sbu_3, # of connection points: 8
#     Node 8, Type 1, BuildingBlock: TAGTUT_clean_sbu_3, # of connection points: 8
#     Edge 9, Type (0, 1), BuildingBlock: AJUNOK_clean_linker_0, # of connection points: 2
#     Edge 10, Type (0, 1), BuildingBlock: AJUNOK_clean_linker_0, # of connection points: 2
#     Edge 11, Type (0, 1), BuildingBlock: AJUNOK_clean_linker_0, # of connection points: 2
#     Edge 12, Type (0, 1), BuildingBlock: AJUNOK_clean_linker_0, # of connection points: 2
#     Edge 13, Type (0, 1), BuildingBlock: AJUNOK_clean_linker_0, # of connection points: 2
#     Edge 14, Type (0, 1), BuildingBlock: AJUNOK_clean_linker_0, # of connection points: 2
#     Edge 15, Type (0, 1), BuildingBlock: AJUNOK_clean_linker_0, # of connection points: 2
#     Edge 16, Type (0, 1), BuildingBlock: AJUNOK_clean_linker_0, # of connection points: 2
#     Edge 17, Type (0, 1), BuildingBlock: AJUNOK_clean_linker_0, # of connection points: 2
#     Edge 18, Type (0, 1), BuildingBlock: AJUNOK_clean_linker_0, # of connection points: 2
#     Edge 19, Type (0, 1), BuildingBlock: AJUNOK_clean_linker_0, # of connection points: 2
#     Edge 20, Type (0, 1), BuildingBlock: AJUNOK_clean_linker_0, # of connection points: 2
#     Edge 21, Type (0, 1), BuildingBlock: AJUNOK_clean_linker_0, # of connection points: 2
#     Edge 22, Type (0, 1), BuildingBlock: AJUNOK_clean_linker_0, # of connection points: 2
#     Edge 23, Type (0, 1), BuildingBlock: AJUNOK_clean_linker_0, # of connection points: 2
#     Edge 24, Type (0, 1), BuildingBlock: AJUNOK_clean_linker_0, # of connection points: 2
#     Edge 25, Type (0, 1), BuildingBlock: AJUNOK_clean_linker_0, # of connection points: 2
#     Edge 26, Type (0, 1), BuildingBlock: AJUNOK_clean_linker_0, # of connection points: 2
#     Edge 27, Type (0, 1), BuildingBlock: AJUNOK_clean_linker_0, # of connection points: 2
#     Edge 28, Type (0, 1), BuildingBlock: AJUNOK_clean_linker_0, # of connection points: 2
#     Edge 29, Type (0, 1), BuildingBlock: AJUNOK_clean_linker_0, # of connection points: 2
#     Edge 30, Type (0, 1), BuildingBlock: AJUNOK_clean_linker_0, # of connection points: 2
#     Edge 31, Type (0, 1), BuildingBlock: AJUNOK_clean_linker_0, # of connection points: 2
#     Edge 32, Type (0, 1), BuildingBlock: AJUNOK_clean_linker_0, # of connection points: 2
# Relax obj value: 0.067
# Max RMSD: 0.124
# Mean RMSD: 0.102
data_MOF--net-csq--node1-MUDLON_clean_sbu_0--node2-TAGTUT_clean_sbu_3--edge1-AJUNOK_clean_linker_0
_symmetry_space_group_name_H-M    P1
_symmetry_Int_Tables_number       1
_symmetry_cell_setting            triclinic
loop_
_symmetry_equiv_pos_as_xyz
'x, y, z'
_cell_length_a     37.94372
_cell_length_b     37.676909
_cell_length_c     15.167181
_cell_angle_alpha  92.478225
_cell_angle_beta   93.592708
_cell_angle_gamma 120.10671
loop_
_atom_site_label
_atom_site_type_symbol
_atom_site_fract_x
_atom_site_fract_y
_atom_site_fract_z
_atom_type_partial_charge
Mg0 Mg 0.25103 0.48283 0.19106 0.0
C1 C 0.16794 0.41984 0.10291 0.0
O2 O 0.1583 0.42291 0.18346 0.0
C3 C 0.30355 0.44832 0.25269 0.0
O4 O 0.30266 0.44115 0.16689 0.0
C5 C 0.21354 0.49956 0.34229 0.0
O6 O 0.22881 0.47806 0.3761 0.0
O7 O 0.2202 0.50943 0.26331 0.0
O8 O 0.20558 0.4375 0.09027 0.0
O9 O 0.30346 0.52232 0.12222 0.0
C10 C 0.30003 0.51472 0.03879 0.0
O11 O 0.26322 0.4967 0.99625 0.0
O12 O 0.28115 0.46146 0.28199 0.0
Mg13 Mg 0.76828 0.25086 0.12081 0.0
C14 C 0.80933 0.27602 0.95327 0.0
O15 O 0.77177 0.26297 0.91919 0.0
C16 C 0.75944 0.17715 0.22667 0.0
O17 O 0.79771 0.19987 0.2605 0.0
C18 C 0.81026 0.29931 0.30525 0.0
O19 O 0.78908 0.26441 0.34083 0.0
O20 O 0.802 0.30183 0.22379 0.0
O21 O 0.81546 0.26861 0.03198 0.0
O22 O 0.71491 0.24143 0.03763 0.0
C23 C 0.68087 0.20966 0.04822 0.0
O24 O 0.67471 0.19687 0.12797 0.0
O25 O 0.74467 0.19134 0.17075 0.0
Mg26 Mg 0.54775 0.77287 0.07389 0.0
C27 C 0.56776 0.81828 0.27241 0.0
O28 O 0.57293 0.78841 0.29886 0.0
C29 C 0.56749 0.73645 0.90686 0.0
O30 O 0.60278 0.77096 0.92203 0.0
C31 C 0.575 0.85362 0.96942 0.0
O32 O 0.60829 0.86927 0.02481 0.0
O33 O 0.54647 0.81684 0.97509 0.0
O34 O 0.55782 0.81877 0.19079 0.0
O35 O 0.54521 0.72607 0.17028 0.0
C36 C 0.52131 0.68729 0.15594 0.0
O37 O 0.49741 0.67219 0.08134 0.0
O38 O 0.5394 0.7291 0.95704 0.0
Mg39 Mg 0.79159 0.53324 0.09545 0.0
C40 C 0.71049 0.51734 0.0151 0.0
O41 O 0.70058 0.50358 0.09315 0.0
C42 C 0.79184 0.45671 0.1585 0.0
O43 O 0.77455 0.41716 0.1686 0.0
C44 C 0.76725 0.55323 0.26852 0.0
O45 O 0.75889 0.51547 0.27918 0.0
O46 O 0.78602 0.57077 0.20238 0.0
O47 O 0.74684 0.53011 0.99574 0.0
O48 O 0.84746 0.55149 0.02926 0.0
C49 C 0.84208 0.52265 0.9729 0.0
O50 O 0.80593 0.48899 0.96254 0.0
O51 O 0.76948 0.47073 0.12927 0.0
Mg52 Mg 0.2338 0.79996 0.13581 0.0
C53 C 0.20586 0.73749 0.96405 0.0
O54 O 0.23348 0.76713 0.92195 0.0
C55 C 0.32417 0.84531 0.20309 0.0
O56 O 0.32744 0.86127 0.12663 0.0
C57 C 0.19297 0.77674 0.30589 0.0
O58 O 0.23071 0.79111 0.34043 0.0
O59 O 0.18677 0.7834 0.22637 0.0
O60 O 0.20431 0.74375 0.0465 0.0
O61 O 0.25064 0.85416 0.06476 0.0
C62 C 0.23867 0.85547 0.98537 0.0
O63 O 0.20639 0.82279 0.94471 0.0
O64 O 0.28959 0.81539 0.21844 0.0
Mg65 Mg 0.4552 0.21873 0.1831 0.0
C66 C 0.48848 0.275 0.36224 0.0
O67 O 0.51009 0.25797 0.38613 0.0
C68 C 0.51772 0.19777 0.13427 0.0
O69 O 0.51064 0.18104 0.21014 0.0
C70 C 0.46097 0.2756 0.06206 0.0
O71 O 0.49494 0.29012 0.11484 0.0
O72 O 0.4312 0.23994 0.07418 0.0
O73 O 0.46788 0.26459 0.28714 0.0
O74 O 0.43004 0.15939 0.24297 0.0
C75 C 0.42745 0.15769 0.32655 0.0
O76 O 0.42645 0.1876 0.37172 0.0
O77 O 0.50636 0.22346 0.11929 0.0
C78 C 0.07891 0.48986 0.5192 0.0
C79 C 0.06268 0.4277 0.8342 0.0
C80 C 0.94427 0.4094 0.80064 0.0
Mg81 Mg 0.02734 0.52888 0.42423 0.0
Mg82 Mg 0.99161 0.58011 0.53893 0.0
O83 O 0.9998 0.53514 0.52791 0.0
Mg84 Mg 0.01866 0.51158 0.62207 0.0
O85 O 0.0372 0.48401 0.70785 0.0
Mg86 Mg 0.01026 0.42698 0.6463 0.0
Mg87 Mg 0.02763 0.48686 0.82638 0.0
C88 C 0.95751 0.53889 0.71863 0.0
O89 O 0.06532 0.5734 0.70453 0.0
O90 O 0.98 0.53566 0.33347 0.0
O91 O 0.05901 0.55373 0.8443 0.0
O92 O 0.07094 0.59941 0.43264 0.0
O93 O 0.95056 0.56179 0.4185 0.0
O94 O 0.0491 0.6336 0.51648 0.0
O95 O 0.97308 0.44648 0.55272 0.0
O96 O 0.98159 0.46089 0.41271 0.0
C97 C 0.96409 0.43526 0.46963 0.0
C98 C 0.95234 0.54513 0.34453 0.0
O99 O 0.97025 0.51311 0.7084 0.0
O100 O 0.04913 0.4136 0.75279 0.0
O101 O 0.96577 0.56797 0.6675 0.0
O102 O 0.95756 0.39941 0.73443 0.0
O103 O 0.05809 0.4557 0.87327 0.0
O104 O 0.96443 0.44508 0.84258 0.0
O105 O 0.06702 0.51611 0.52944 0.0
O106 O 0.063 0.45647 0.55817 0.0
C107 C 0.07479 0.63305 0.46667 0.0
C108 C 0.0741 0.58159 0.78931 0.0
C109 C 0.49339 0.06407 0.49434 0.0
C110 C 0.63053 0.06159 0.42101 0.0
C111 C 0.56777 0.94354 0.50188 0.0
Mg112 Mg 0.43867 0.02118 0.65846 0.0
Mg113 Mg 0.46979 0.98801 0.82582 0.0
O114 O 0.46401 0.98892 0.70364 0.0
Mg115 Mg 0.51337 0.01216 0.63632 0.0
O116 O 0.55992 0.03435 0.56224 0.0
Mg117 Mg 0.52962 0.00449 0.44563 0.0
Mg118 Mg 0.60349 0.02653 0.60251 0.0
C119 C 0.52689 0.95341 0.78052 0.0
O120 O 0.55907 0.0615 0.7467 0.0
O121 O 0.38331 0.98177 0.7414 0.0
O122 O 0.61751 0.06091 0.73186 0.0
O123 O 0.47011 0.07238 0.78146 0.0
O124 O 0.4074 0.95965 0.85271 0.0
O125 O 0.49827 0.04883 0.87876 0.0
O126 O 0.4714 0.96666 0.52037 0.0
O127 O 0.41498 0.97048 0.54159 0.0
C128 C 0.43387 0.95611 0.49775 0.0
C129 C 0.37838 0.96196 0.8109 0.0
O130 O 0.53084 0.96664 0.70263 0.0
O131 O 0.59284 0.04546 0.38867 0.0
O132 O 0.50659 0.95986 0.83695 0.0
O133 O 0.54798 0.9563 0.45544 0.0
O134 O 0.64063 0.05815 0.50095 0.0
O135 O 0.58907 0.96332 0.5743 0.0
O136 O 0.49376 0.05581 0.57605 0.0
O137 O 0.50955 0.05179 0.43787 0.0
C138 C 0.49183 0.07703 0.85456 0.0
C139 C 0.59695 0.07434 0.77155 0.0
C140 C 0.5375 0.58591 0.74301 0.0
C141 C 0.41252 0.47761 0.86969 0.0
C142 C 0.46127 0.39454 0.82813 0.0
Mg143 Mg 0.59132 0.58224 0.5898 0.0
Mg144 Mg 0.54887 0.50762 0.4311 0.0
O145 O 0.56196 0.52173 0.55331 0.0
Mg146 Mg 0.51659 0.50118 0.63321 0.0
O147 O 0.47431 0.48409 0.71856 0.0
Mg148 Mg 0.50836 0.50002 0.83469 0.0
Mg149 Mg 0.42503 0.43343 0.70709 0.0
C150 C 0.50132 0.42089 0.51172 0.0
O151 O 0.46496 0.48895 0.52387 0.0
O152 O 0.64333 0.58708 0.50472 0.0
O153 O 0.40951 0.43285 0.5666 0.0
O154 O 0.56225 0.59774 0.46932 0.0
O155 O 0.61085 0.53485 0.39711 0.0
O156 O 0.52353 0.54232 0.37519 0.0
O157 O 0.56185 0.50863 0.75028 0.0
O158 O 0.61693 0.56441 0.71044 0.0
C159 C 0.59998 0.53603 0.76328 0.0
C160 C 0.64341 0.5661 0.4354 0.0
O161 O 0.50239 0.4363 0.58967 0.0
O162 O 0.45067 0.49385 0.89751 0.0
O163 O 0.51317 0.44199 0.44414 0.0
O164 O 0.48796 0.43168 0.85683 0.0
O165 O 0.39664 0.45377 0.79804 0.0
O166 O 0.43407 0.38677 0.76462 0.0
O167 O 0.53566 0.56848 0.66744 0.0
O168 O 0.5274 0.56597 0.81174 0.0
C169 C 0.53739 0.58019 0.39952 0.0
C170 C 0.42744 0.45925 0.51018 0.0
C171 C 0.15311 0.51049 0.34454 0.0
C172 C 0.18368 0.50552 0.3906 0.0
C173 C 0.12015 0.50819 0.38739 0.0
C174 C 0.11682 0.50076 0.47736 0.0
H175 H 0.15334 0.51384 0.27398 0.0
H176 H 0.09605 0.50983 0.34889 0.0
S177 S 0.1917 0.49227 0.63094 0.0
N178 N 0.21065 0.49806 0.53409 0.0
N179 N 0.14884 0.49323 0.61326 0.0
C180 C 0.14852 0.49864 0.52518 0.0
C181 C 0.18194 0.50118 0.48219 0.0
C182 C 0.73585 0.14077 0.36251 0.0
C183 C 0.72979 0.14137 0.2706 0.0
C184 C 0.70376 0.11392 0.40974 0.0
C185 C 0.66436 0.08658 0.36687 0.0
H186 H 0.76469 0.16303 0.39925 0.0
H187 H 0.7096 0.11607 0.48115 0.0
S188 S 0.63538 0.07044 0.1242 0.0
N189 N 0.68347 0.10838 0.13645 0.0
N190 N 0.62304 0.05771 0.22529 0.0
C191 C 0.65884 0.08465 0.27402 0.0
C192 C 0.69162 0.11201 0.22591 0.0
C193 C 0.51512 0.62016 0.1901 0.0
C194 C 0.52196 0.65911 0.22045 0.0
C195 C 0.51843 0.59402 0.24902 0.0
C196 C 0.52839 0.60571 0.34066 0.0
H197 H 0.50853 0.61031 0.11987 0.0
H198 H 0.51463 0.5651 0.22192 0.0
S199 S 0.54309 0.70194 0.45517 0.0
N200 N 0.53484 0.70621 0.34901 0.0
N201 N 0.54102 0.65724 0.45976 0.0
C202 C 0.53326 0.64373 0.37229 0.0
C203 C 0.53006 0.67038 0.31222 0.0
C204 C 0.85028 0.52233 0.23369 0.0
C205 C 0.83607 0.48403 0.18615 0.0
C206 C 0.88963 0.54407 0.27886 0.0
C207 C 0.91655 0.52864 0.27679 0.0
H208 H 0.83008 0.5343 0.24169 0.0
H209 H 0.89807 0.57191 0.32001 0.0
S210 S 0.89671 0.4337 0.14519 0.0
N211 N 0.85374 0.43454 0.1282 0.0
N212 N 0.92803 0.47545 0.21114 0.0
C213 C 0.90415 0.49248 0.22131 0.0
C214 C 0.86379 0.47009 0.17669 0.0
C215 C 0.34487 0.86411 0.36564 0.0
C216 C 0.35607 0.86886 0.27824 0.0
C217 C 0.37109 0.89172 0.43656 0.0
C218 C 0.41001 0.9245 0.42357 0.0
H219 H 0.31466 0.84041 0.37911 0.0
H220 H 0.36032 0.88808 0.50192 0.0
S221 S 0.45641 0.948 0.21057 0.0
N222 N 0.4104 0.90732 0.18422 0.0
N223 N 0.46005 0.95848 0.31877 0.0
C224 C 0.42294 0.92805 0.33809 0.0
C225 C 0.39588 0.90038 0.26514 0.0
C226 C 0.45625 0.3162 0.39893 0.0
C227 C 0.48723 0.30676 0.41991 0.0
C228 C 0.45851 0.35165 0.43711 0.0
C229 C 0.49121 0.37821 0.49904 0.0
H230 H 0.43138 0.29757 0.34816 0.0
H231 H 0.43623 0.35988 0.41332 0.0
S232 S 0.57625 0.36444 0.58833 0.0
N233 N 0.5488 0.32435 0.51511 0.0
N234 N 0.55247 0.39109 0.58845 0.0
C235 C 0.51999 0.36717 0.52791 0.0
C236 C 0.51808 0.33121 0.48805 0.0
C237 C 0.58708 0.92262 0.93213 0.0
C238 C 0.56834 0.88004 0.9087 0.0
C239 C 0.57601 0.94721 0.88449 0.0
C240 C 0.54668 0.93039 0.8104 0.0
H241 H 0.60841 0.9366 0.99111 0.0
H242 H 0.58877 0.97918 0.90882 0.0
S243 S 0.49292 0.82218 0.71395 0.0
N244 N 0.52193 0.82302 0.8009 0.0
N245 N 0.50189 0.86977 0.71076 0.0
C246 C 0.5301 0.88872 0.78202 0.0
C247 C 0.54076 0.8634 0.83137 0.0
C248 C 0.69403 0.53969 0.87369 0.0
C249 C 0.68096 0.52094 0.95272 0.0
C250 C 0.6677 0.54496 0.81431 0.0
C251 C 0.62695 0.53135 0.8307 0.0
H252 H 0.72502 0.55065 0.85728 0.0
H253 H 0.67935 0.55924 0.75407 0.0
S254 S 0.57762 0.48183 0.0293 0.0
N255 N 0.62455 0.48974 0.04556 0.0
N256 N 0.57494 0.49937 0.9327 0.0
C257 C 0.61331 0.51266 0.9094 0.0
C258 C 0.64033 0.50757 0.97069 0.0
C259 C 0.13921 0.67146 0.96014 0.0
C260 C 0.17259 0.6986 0.91517 0.0
C261 C 0.10669 0.63499 0.9173 0.0
C262 C 0.10585 0.62364 0.82725 0.0
H263 H 0.13805 0.67823 0.02963 0.0
H264 H 0.08227 0.61509 0.95597 0.0
S265 S 0.18553 0.68352 0.6783 0.0
N266 N 0.2025 0.71168 0.77438 0.0
N267 N 0.14133 0.64267 0.69383 0.0
C268 C 0.13853 0.65074 0.78048 0.0
C269 C 0.1719 0.68817 0.82443 0.0
C270 C 0.50299 0.17366 0.97261 0.0
C271 C 0.5216 0.17494 0.05724 0.0
C272 C 0.49562 0.14348 0.90487 0.0
C273 C 0.50678 0.11369 0.9192 0.0
H274 H 0.49122 0.19409 0.96034 0.0
H275 H 0.479 0.14213 0.84288 0.0
S276 S 0.56474 0.11005 0.12338 0.0
N277 N 0.55697 0.14857 0.14686 0.0
N278 N 0.54358 0.0919 0.02109 0.0
C279 C 0.52906 0.11738 1.00111 0.0
C280 C 0.53646 0.14807 0.06956 0.0
C281 C 0.32644 0.49862 0.90569 0.0
C282 C 0.33311 0.51228 0.99615 0.0
C283 C 0.35234 0.48765 0.86631 0.0
C284 C 0.38641 0.4901 0.91524 0.0
H285 H 0.30007 0.4949 0.86515 0.0
H286 H 0.34528 0.47686 0.79657 0.0
S287 S 0.41944 0.52656 0.15291 0.0
N288 N 0.37802 0.52995 0.13278 0.0
N289 N 0.42676 0.50925 0.05805 0.0
C290 C 0.39474 0.50552 1.00474 0.0
C291 C 0.36818 0.5167 0.04525 0.0
C292 C 0.87556 0.3422 0.966 0.0
C293 C 0.84376 0.30871 0.91191 0.0
C294 C 0.90691 0.37567 0.92921 0.0
C295 C 0.90798 0.37656 0.83688 0.0
H296 H 0.8758 0.34301 0.03746 0.0
H297 H 0.93107 0.40047 0.97354 0.0
S298 S 0.83134 0.29711 0.66627 0.0
N299 N 0.81435 0.27912 0.76161 0.0
N300 N 0.87417 0.3415 0.69198 0.0
C301 C 0.87627 0.34337 0.78194 0.0
C302 C 0.84389 0.30963 0.81955 0.0
C303 C 0.90611 0.56543 0.8978 0.0
C304 C 0.87423 0.52656 0.91577 0.0
C305 C 0.93351 0.56917 0.83534 0.0
C306 C 0.9306 0.53421 0.78986 0.0
H307 H 0.909 0.5932 0.92958 0.0
H308 H 0.95686 0.59974 0.82173 0.0
S309 S 0.85343 0.42544 0.81478 0.0
N310 N 0.84237 0.45234 0.88477 0.0
N311 N 0.8936 0.45956 0.76811 0.0
C312 C 0.89979 0.49523 0.8095 0.0
C313 C 0.87171 0.49138 0.87221 0.0
C314 C 0.30296 0.92262 0.98136 0.0
C315 C 0.26829 0.88875 0.93445 0.0
C316 C 0.33749 0.94815 0.93889 0.0
C317 C 0.33845 0.94153 0.84753 0.0
H318 H 0.30475 0.92774 0.05276 0.0
H319 H 0.36454 0.97192 0.97881 0.0
S320 S 0.25385 0.86193 0.69108 0.0
N321 N 0.2355 0.85326 0.78879 0.0
N322 N 0.30061 0.90226 0.70908 0.0
C323 C 0.30281 0.91066 0.79792 0.0
C324 C 0.26757 0.88408 0.84138 0.0
C325 C 0.49585 0.3389 0.98153 0.0
C326 C 0.45943 0.30208 0.99322 0.0
C327 C 0.49628 0.36734 0.92475 0.0
C328 C 0.46039 0.36045 0.87608 0.0
H329 H 0.52455 0.34663 0.01827 0.0
H330 H 0.52501 0.39553 0.92057 0.0
S331 S 0.35728 0.26758 0.87608 0.0
N332 N 0.38676 0.25912 0.94649 0.0
N333 N 0.38748 0.3127 0.8389 0.0
C334 C 0.42397 0.32285 0.88318 0.0
C335 C 0.4235 0.29371 0.9419 0.0
C336 C 0.14987 0.4195 0.94063 0.0
C337 C 0.13697 0.40835 0.02565 0.0
C338 C 0.12378 0.42123 0.87318 0.0
C339 C 0.08397 0.41148 0.88854 0.0
H340 H 0.18134 0.43041 0.92817 0.0
H341 H 0.13602 0.43382 0.81195 0.0
S342 S 0.03213 0.37138 0.09061 0.0
N343 N 0.07905 0.38021 0.11465 0.0
N344 N 0.03053 0.38403 0.98816 0.0
C345 C 0.06923 0.39579 0.96902 0.0
C346 C 0.09558 0.3939 0.0375 0.0
C347 C 0.62315 0.16755 0.93046 0.0
C348 C 0.66119 0.17761 0.9733 0.0
C349 C 0.60278 0.13421 0.86511 0.0
C350 C 0.61892 0.10882 0.8427 0.0
H351 H 0.60908 0.1855 0.94752 0.0
H352 H 0.5744 0.12867 0.83099 0.0
S353 S 0.72001 0.12532 0.93173 0.0
N354 N 0.71633 0.16256 0.98371 0.0
N355 N 0.67711 0.09842 0.866 0.0
C356 C 0.65765 0.11952 0.88412 0.0
C357 C 0.67888 0.15417 0.94835 0.0
C358 C 0.52167 0.67203 0.8113 0.0
C359 C 0.56174 0.7034 0.84122 0.0
C360 C 0.51427 0.63515 0.76788 0.0
C361 C 0.54666 0.6285 0.75268 0.0
H362 H 0.49562 0.67479 0.82701 0.0
H363 H 0.48286 0.61032 0.75317 0.0
S364 S 0.65721 0.70264 0.80517 0.0
N365 N 0.63451 0.72724 0.84211 0.0
N366 N 0.62008 0.65715 0.7611 0.0
C367 C 0.58691 0.66081 0.77418 0.0
C368 C 0.59461 0.69863 0.81821 0.0
C369 C 0.44258 0.10015 0.32524 0.0
C370 C 0.43694 0.12908 0.3744 0.0
C371 C 0.45913 0.07836 0.36594 0.0
C372 C 0.47096 0.08427 0.45806 0.0
H373 H 0.43578 0.09539 0.25382 0.0
H374 H 0.4637 0.05738 0.32365 0.0
S375 S 0.45823 0.15268 0.61951 0.0
N376 N 0.44112 0.15965 0.52272 0.0
N377 N 0.47234 0.11846 0.59853 0.0
C378 C 0.46307 0.11099 0.50925 0.0
C379 C 0.44611 0.13342 0.46766 0.0
C380 C 0.33976 0.41663 0.32933 0.0
C381 C 0.33746 0.4517 0.3119 0.0
C382 C 0.37075 0.4196 0.39021 0.0
C383 C 0.40116 0.45791 0.43277 0.0
H384 H 0.31658 0.38664 0.29863 0.0
H385 H 0.37027 0.3916 0.40613 0.0
S386 S 0.41071 0.55929 0.4014 0.0
N387 N 0.369 0.52597 0.33749 0.0
N388 N 0.42853 0.53186 0.44798 0.0
C389 C 0.40053 0.49345 0.4112 0.0
C390 C 0.36824 0.49024 0.35182 0.0
C391 C 0.85394 0.3464 0.43981 0.0
C392 C 0.85019 0.33154 0.35092 0.0
C393 C 0.89184 0.3782 0.48128 0.0
C394 C 0.92727 0.39548 0.4356 0.0
H395 H 0.82715 0.33458 0.47619 0.0
H396 H 0.89287 0.39082 0.54753 0.0
S397 S 0.93492 0.36156 0.2077 0.0
N398 N 0.88604 0.3328 0.22277 0.0
N399 N 0.95688 0.39148 0.30061 0.0
C400 C 0.92423 0.3786 0.34896 0.0
C401 C 0.88581 0.34695 0.30663 0.0
C402 C 0.5604 0.84305 0.42285 0.0
C403 C 0.57332 0.85148 0.33706 0.0
C404 C 0.56099 0.87369 0.48068 0.0
C405 C 0.57527 0.91352 0.45433 0.0
H406 H 0.54777 0.81215 0.44348 0.0
H407 H 0.54836 0.86569 0.54376 0.0
S408 S 0.61836 0.95269 0.2429 0.0
N409 N 0.60464 0.90351 0.23316 0.0
N410 N 0.60681 0.96101 0.34189 0.0
C411 C 0.59102 0.92286 0.37155 0.0
C412 C 0.58976 0.89184 0.31272 0.0
C413 C 0.73921 0.56218 0.40693 0.0
C414 C 0.74447 0.56897 0.3169 0.0
C415 C 0.70896 0.56586 0.44846 0.0
C416 C 0.68231 0.5754 0.40058 0.0
H417 H 0.75694 0.5515 0.444 0.0
H418 H 0.70415 0.55778 0.51614 0.0
S419 S 0.68471 0.59852 0.16536 0.0
N420 N 0.72247 0.58904 0.1835 0.0
N421 N 0.66443 0.59389 0.26047 0.0
C422 C 0.68869 0.58451 0.3122 0.0
C423 C 0.72018 0.58192 0.27062 0.0
C424 C 0.16187 0.7413 0.44073 0.0
C425 C 0.1592 0.74304 0.34792 0.0
C426 C 0.1337 0.70621 0.4804 0.0
C427 C 0.10314 0.67128 0.42805 0.0
H428 H 0.18637 0.76689 0.48275 0.0
H429 H 0.13664 0.70588 0.55175 0.0
S430 S 0.08093 0.6607 0.18368 0.0
N431 N 0.12119 0.7073 0.20602 0.0
N432 N 0.06972 0.64132 0.28032 0.0
C433 C 0.0993 0.67311 0.33592 0.0
C434 C 0.12698 0.709 0.29585 0.0
loop_
_geom_bond_atom_site_label_1
_geom_bond_atom_site_label_2
_geom_bond_distance
_geom_bond_site_symmetry_2
_ccdc_geom_bond_type
Mg0 O7 2.141 . S
Mg0 O8 2.048 . S
Mg0 O9 2.048 . S
Mg0 O12 2.141 . S
C1 O2 1.313 . S
C1 O8 1.195 . S
O2 C1 1.313 . S
C3 O4 1.245 . S
C3 O12 1.289 . S
O4 C3 1.245 . S
C5 O6 1.245 . S
C5 O7 1.289 . S
O6 C5 1.245 . S
O7 Mg0 2.141 . S
O7 C5 1.289 . S
O8 Mg0 2.048 . S
O8 C1 1.195 . S
O9 Mg0 2.048 . S
O9 C10 1.195 . S
C10 O9 1.195 . S
C10 O11 1.313 . S
O11 C10 1.313 . S
O12 Mg0 2.141 . S
O12 C3 1.289 . S
Mg13 O20 2.141 . S
Mg13 O21 2.048 . S
Mg13 O22 2.048 . S
Mg13 O25 2.141 . S
C14 O15 1.313 . S
C14 O21 1.195 1_556 S
O15 C14 1.313 . S
C16 O17 1.245 . S
C16 O25 1.289 . S
O17 C16 1.245 . S
C18 O19 1.245 . S
C18 O20 1.289 . S
O19 C18 1.245 . S
O20 Mg13 2.141 . S
O20 C18 1.289 . S
O21 Mg13 2.048 . S
O21 C14 1.195 1_554 S
O22 Mg13 2.048 . S
O22 C23 1.195 1_554 S
C23 O22 1.195 1_556 S
C23 O24 1.313 . S
O24 C23 1.313 . S
O25 Mg13 2.141 . S
O25 C16 1.289 . S
Mg26 O33 2.141 1_554 S
Mg26 O34 2.048 . S
Mg26 O35 2.048 . S
Mg26 O38 2.141 1_554 S
C27 O28 1.313 . S
C27 O34 1.195 . S
O28 C27 1.313 . S
C29 O30 1.245 . S
C29 O38 1.289 . S
O30 C29 1.245 . S
C31 O32 1.245 . S
C31 O33 1.289 . S
O32 C31 1.245 . S
O33 Mg26 2.141 1_556 S
O33 C31 1.289 . S
O34 Mg26 2.048 . S
O34 C27 1.195 . S
O35 Mg26 2.048 . S
O35 C36 1.195 . S
C36 O35 1.195 . S
C36 O37 1.313 . S
O37 C36 1.313 . S
O38 Mg26 2.141 1_556 S
O38 C29 1.289 . S
Mg39 O46 2.141 . S
Mg39 O47 2.048 1_554 S
Mg39 O48 2.048 1_554 S
Mg39 O51 2.141 . S
C40 O41 1.313 . S
C40 O47 1.195 . S
O41 C40 1.313 . S
C42 O43 1.245 . S
C42 O51 1.289 . S
O43 C42 1.245 . S
C44 O45 1.245 . S
C44 O46 1.289 . S
O45 C44 1.245 . S
O46 Mg39 2.141 . S
O46 C44 1.289 . S
O47 Mg39 2.048 1_556 S
O47 C40 1.195 . S
O48 Mg39 2.048 1_556 S
O48 C49 1.195 . S
C49 O48 1.195 . S
C49 O50 1.313 . S
O50 C49 1.313 . S
O51 Mg39 2.141 . S
O51 C42 1.289 . S
Mg52 O59 2.141 . S
Mg52 O60 2.048 . S
Mg52 O61 2.048 . S
Mg52 O64 2.141 . S
C53 O54 1.313 . S
C53 O60 1.195 1_556 S
O54 C53 1.313 . S
C55 O56 1.245 . S
C55 O64 1.289 . S
O56 C55 1.245 . S
C57 O58 1.245 . S
C57 O59 1.289 . S
O58 C57 1.245 . S
O59 Mg52 2.141 . S
O59 C57 1.289 . S
O60 Mg52 2.048 . S
O60 C53 1.195 1_554 S
O61 Mg52 2.048 . S
O61 C62 1.195 . S
C62 O61 1.195 . S
C62 O63 1.313 . S
O63 C62 1.313 . S
O64 Mg52 2.141 . S
O64 C55 1.289 . S
Mg65 O72 2.141 . S
Mg65 O73 2.048 . S
Mg65 O74 2.048 . S
Mg65 O77 2.141 . S
C66 O67 1.313 . S
C66 O73 1.195 . S
O67 C66 1.313 . S
C68 O69 1.245 . S
C68 O77 1.289 . S
O69 C68 1.245 . S
C70 O71 1.245 . S
C70 O72 1.289 . S
O71 C70 1.245 . S
O72 Mg65 2.141 . S
O72 C70 1.289 . S
O73 Mg65 2.048 . S
O73 C66 1.195 . S
O74 Mg65 2.048 . S
O74 C75 1.195 . S
C75 O74 1.195 . S
C75 O76 1.313 . S
O76 C75 1.313 . S
O77 Mg65 2.141 . S
O77 C68 1.289 . S
C78 O105 1.312 . S
C78 O106 1.208 . S
C79 O100 1.331 . S
C79 O103 1.244 . S
C80 O102 1.264 . S
C80 O104 1.273 . S
Mg81 O83 1.936 1_455 S
Mg81 O90 2.081 1_455 S
Mg81 O92 2.023 . S
Mg81 O96 2.031 1_455 S
Mg81 O105 2.291 . S
Mg82 O83 1.963 . S
Mg82 O93 1.942 . S
Mg82 O94 1.955 1_655 S
Mg82 O101 1.986 . S
O83 Mg81 1.936 1_655 S
O83 Mg82 1.963 . S
O83 Mg84 1.915 1_655 S
Mg84 O83 1.915 1_455 S
Mg84 O85 1.915 . S
Mg84 O89 2.013 . S
Mg84 O95 2.114 1_455 S
Mg84 O99 2.013 1_455 S
Mg84 O105 2.114 . S
O85 Mg84 1.915 . S
O85 Mg86 1.936 . S
O85 Mg87 1.963 . S
Mg86 O85 1.936 . S
Mg86 O95 2.291 1_455 S
Mg86 O100 2.081 . S
Mg86 O102 2.023 1_455 S
Mg86 O106 2.031 . S
Mg87 O85 1.963 . S
Mg87 O91 1.986 . S
Mg87 O103 1.942 . S
Mg87 O104 1.955 1_455 S
C88 O99 1.191 . S
C88 O101 1.307 . S
O89 Mg84 2.013 . S
O89 C108 1.191 . S
O90 Mg81 2.081 1_655 S
O90 C98 1.331 . S
O91 Mg87 1.986 . S
O91 C108 1.307 . S
O92 Mg81 2.023 . S
O92 C107 1.264 . S
O93 Mg82 1.942 . S
O93 C98 1.244 . S
O94 Mg82 1.955 1_455 S
O94 C107 1.273 . S
O95 Mg84 2.114 1_655 S
O95 Mg86 2.291 1_655 S
O95 C97 1.312 . S
O96 Mg81 2.031 1_655 S
O96 C97 1.208 . S
C97 O95 1.312 . S
C97 O96 1.208 . S
C98 O90 1.331 . S
C98 O93 1.244 . S
O99 Mg84 2.013 1_655 S
O99 C88 1.191 . S
O100 C79 1.331 . S
O100 Mg86 2.081 . S
O101 Mg82 1.986 . S
O101 C88 1.307 . S
O102 C80 1.264 . S
O102 Mg86 2.023 1_655 S
O103 C79 1.244 . S
O103 Mg87 1.942 . S
O104 C80 1.273 . S
O104 Mg87 1.955 1_655 S
O105 C78 1.312 . S
O105 Mg81 2.291 . S
O105 Mg84 2.114 . S
O106 C78 1.208 . S
O106 Mg86 2.031 . S
C107 O92 1.264 . S
C107 O94 1.273 . S
C108 O89 1.191 . S
C108 O91 1.307 . S
C109 O136 1.312 . S
C109 O137 1.208 . S
C110 O131 1.331 . S
C110 O134 1.244 . S
C111 O133 1.264 . S
C111 O135 1.273 . S
Mg112 O114 1.936 1_545 S
Mg112 O121 2.081 1_545 S
Mg112 O123 2.023 . S
Mg112 O127 2.031 1_545 S
Mg112 O136 2.291 . S
Mg113 O114 1.963 . S
Mg113 O124 1.942 . S
Mg113 O125 1.955 1_565 S
Mg113 O132 1.986 . S
O114 Mg112 1.936 1_565 S
O114 Mg113 1.963 . S
O114 Mg115 1.915 1_565 S
Mg115 O114 1.915 1_545 S
Mg115 O116 1.915 . S
Mg115 O120 2.013 . S
Mg115 O126 2.114 1_545 S
Mg115 O130 2.013 1_545 S
Mg115 O136 2.114 . S
O116 Mg115 1.915 . S
O116 Mg117 1.936 . S
O116 Mg118 1.963 . S
Mg117 O116 1.936 . S
Mg117 O126 2.291 1_545 S
Mg117 O131 2.081 . S
Mg117 O133 2.023 1_545 S
Mg117 O137 2.031 . S
Mg118 O116 1.963 . S
Mg118 O122 1.986 . S
Mg118 O134 1.942 . S
Mg118 O135 1.955 1_545 S
C119 O130 1.191 . S
C119 O132 1.307 . S
O120 Mg115 2.013 . S
O120 C139 1.191 . S
O121 Mg112 2.081 1_565 S
O121 C129 1.331 . S
O122 Mg118 1.986 . S
O122 C139 1.307 . S
O123 Mg112 2.023 . S
O123 C138 1.264 . S
O124 Mg113 1.942 . S
O124 C129 1.244 . S
O125 Mg113 1.955 1_545 S
O125 C138 1.273 . S
O126 Mg115 2.114 1_565 S
O126 Mg117 2.291 1_565 S
O126 C128 1.312 . S
O127 Mg112 2.031 1_565 S
O127 C128 1.208 . S
C128 O126 1.312 . S
C128 O127 1.208 . S
C129 O121 1.331 . S
C129 O124 1.244 . S
O130 Mg115 2.013 1_565 S
O130 C119 1.191 . S
O131 C110 1.331 . S
O131 Mg117 2.081 . S
O132 Mg113 1.986 . S
O132 C119 1.307 . S
O133 C111 1.264 . S
O133 Mg117 2.023 1_565 S
O134 C110 1.244 . S
O134 Mg118 1.942 . S
O135 C111 1.273 . S
O135 Mg118 1.955 1_565 S
O136 C109 1.312 . S
O136 Mg112 2.291 . S
O136 Mg115 2.114 . S
O137 C109 1.208 . S
O137 Mg117 2.031 . S
C138 O123 1.264 . S
C138 O125 1.273 . S
C139 O120 1.191 . S
C139 O122 1.307 . S
C140 O167 1.312 . S
C140 O168 1.208 . S
C141 O162 1.331 . S
C141 O165 1.244 . S
C142 O164 1.264 . S
C142 O166 1.273 . S
Mg143 O145 1.936 . S
Mg143 O152 2.081 . S
Mg143 O154 2.023 . S
Mg143 O158 2.031 . S
Mg143 O167 2.291 . S
Mg144 O145 1.963 . S
Mg144 O155 1.942 . S
Mg144 O156 1.955 . S
Mg144 O163 1.986 . S
O145 Mg143 1.936 . S
O145 Mg144 1.963 . S
O145 Mg146 1.915 . S
Mg146 O145 1.915 . S
Mg146 O147 1.915 . S
Mg146 O151 2.013 . S
Mg146 O157 2.114 . S
Mg146 O161 2.013 . S
Mg146 O167 2.114 . S
O147 Mg146 1.915 . S
O147 Mg148 1.936 . S
O147 Mg149 1.963 . S
Mg148 O147 1.936 . S
Mg148 O157 2.291 . S
Mg148 O162 2.081 . S
Mg148 O164 2.023 . S
Mg148 O168 2.031 . S
Mg149 O147 1.963 . S
Mg149 O153 1.986 . S
Mg149 O165 1.942 . S
Mg149 O166 1.955 . S
C150 O161 1.191 . S
C150 O163 1.307 . S
O151 Mg146 2.013 . S
O151 C170 1.191 . S
O152 Mg143 2.081 . S
O152 C160 1.331 . S
O153 Mg149 1.986 . S
O153 C170 1.307 . S
O154 Mg143 2.023 . S
O154 C169 1.264 . S
O155 Mg144 1.942 . S
O155 C160 1.244 . S
O156 Mg144 1.955 . S
O156 C169 1.273 . S
O157 Mg146 2.114 . S
O157 Mg148 2.291 . S
O157 C159 1.312 . S
O158 Mg143 2.031 . S
O158 C159 1.208 . S
C159 O157 1.312 . S
C159 O158 1.208 . S
C160 O152 1.331 . S
C160 O155 1.244 . S
O161 Mg146 2.013 . S
O161 C150 1.191 . S
O162 C141 1.331 . S
O162 Mg148 2.081 . S
O163 Mg144 1.986 . S
O163 C150 1.307 . S
O164 C142 1.264 . S
O164 Mg148 2.023 . S
O165 C141 1.244 . S
O165 Mg149 1.942 . S
O166 C142 1.273 . S
O166 Mg149 1.955 . S
O167 C140 1.312 . S
O167 Mg143 2.291 . S
O167 Mg146 2.114 . S
O168 C140 1.208 . S
O168 Mg148 2.031 . S
C169 O154 1.264 . S
C169 O156 1.273 . S
C170 O151 1.191 . S
C170 O153 1.307 . S
C171 C172 1.369 . S
C171 C173 1.419 . S
C171 H175 0.930 . S
C172 C171 1.369 . S
C172 C181 1.429 . S
C173 C171 1.419 . S
C173 C174 1.363 . S
C173 H176 0.929 . S
C174 C173 1.363 . S
C174 C180 1.428 . S
H175 C171 0.930 . S
H176 C173 0.929 . S
S177 N178 1.613 . S
S177 N179 1.610 . S
N178 S177 1.613 . S
N178 C181 1.350 . S
N179 S177 1.610 . S
N179 C180 1.351 . S
C180 C174 1.428 . S
C180 N179 1.351 . S
C180 C181 1.434 . S
C181 C172 1.429 . S
C181 N178 1.350 . S
C181 C180 1.434 . S
C182 C183 1.369 . S
C182 C184 1.419 . S
C182 H186 0.930 . S
C183 C182 1.369 . S
C183 C192 1.429 . S
C184 C182 1.419 . S
C184 C185 1.363 . S
C184 H187 0.929 . S
C185 C184 1.363 . S
C185 C191 1.428 . S
H186 C182 0.930 . S
H187 C184 0.929 . S
S188 N189 1.613 . S
S188 N190 1.610 . S
N189 S188 1.613 . S
N189 C192 1.350 . S
N190 S188 1.610 . S
N190 C191 1.351 . S
C191 C185 1.428 . S
C191 N190 1.351 . S
C191 C192 1.434 . S
C192 C183 1.429 . S
C192 N189 1.350 . S
C192 C191 1.434 . S
C193 C194 1.369 . S
C193 C195 1.419 . S
C193 H197 0.930 . S
C194 C193 1.369 . S
C194 C203 1.429 . S
C195 C193 1.419 . S
C195 C196 1.363 . S
C195 H198 0.929 . S
C196 C195 1.363 . S
C196 C202 1.428 . S
H197 C193 0.930 . S
H198 C195 0.929 . S
S199 N200 1.613 . S
S199 N201 1.610 . S
N200 S199 1.613 . S
N200 C203 1.350 . S
N201 S199 1.610 . S
N201 C202 1.351 . S
C202 C196 1.428 . S
C202 N201 1.351 . S
C202 C203 1.434 . S
C203 C194 1.429 . S
C203 N200 1.350 . S
C203 C202 1.434 . S
C204 C205 1.369 . S
C204 C206 1.419 . S
C204 H208 0.930 . S
C205 C204 1.369 . S
C205 C214 1.429 . S
C206 C204 1.419 . S
C206 C207 1.363 . S
C206 H209 0.929 . S
C207 C206 1.363 . S
C207 C213 1.428 . S
H208 C204 0.930 . S
H209 C206 0.929 . S
S210 N211 1.613 . S
S210 N212 1.610 . S
N211 S210 1.613 . S
N211 C214 1.350 . S
N212 S210 1.610 . S
N212 C213 1.351 . S
C213 C207 1.428 . S
C213 N212 1.351 . S
C213 C214 1.434 . S
C214 C205 1.429 . S
C214 N211 1.350 . S
C214 C213 1.434 . S
C215 C216 1.369 . S
C215 C217 1.419 . S
C215 H219 0.930 . S
C216 C215 1.369 . S
C216 C225 1.429 . S
C217 C215 1.419 . S
C217 C218 1.363 . S
C217 H220 0.929 . S
C218 C217 1.363 . S
C218 C224 1.428 . S
H219 C215 0.930 . S
H220 C217 0.929 . S
S221 N222 1.613 . S
S221 N223 1.610 . S
N222 S221 1.613 . S
N222 C225 1.350 . S
N223 S221 1.610 . S
N223 C224 1.351 . S
C224 C218 1.428 . S
C224 N223 1.351 . S
C224 C225 1.434 . S
C225 C216 1.429 . S
C225 N222 1.350 . S
C225 C224 1.434 . S
C226 C227 1.369 . S
C226 C228 1.419 . S
C226 H230 0.930 . S
C227 C226 1.369 . S
C227 C236 1.429 . S
C228 C226 1.419 . S
C228 C229 1.363 . S
C228 H231 0.929 . S
C229 C228 1.363 . S
C229 C235 1.428 . S
H230 C226 0.930 . S
H231 C228 0.929 . S
S232 N233 1.613 . S
S232 N234 1.610 . S
N233 S232 1.613 . S
N233 C236 1.350 . S
N234 S232 1.610 . S
N234 C235 1.351 . S
C235 C229 1.428 . S
C235 N234 1.351 . S
C235 C236 1.434 . S
C236 C227 1.429 . S
C236 N233 1.350 . S
C236 C235 1.434 . S
C237 C238 1.369 . S
C237 C239 1.419 . S
C237 H241 0.930 . S
C238 C237 1.369 . S
C238 C247 1.429 . S
C239 C237 1.419 . S
C239 C240 1.363 . S
C239 H242 0.929 . S
C240 C239 1.363 . S
C240 C246 1.428 . S
H241 C237 0.930 . S
H242 C239 0.929 . S
S243 N244 1.613 . S
S243 N245 1.610 . S
N244 S243 1.613 . S
N244 C247 1.350 . S
N245 S243 1.610 . S
N245 C246 1.351 . S
C246 C240 1.428 . S
C246 N245 1.351 . S
C246 C247 1.434 . S
C247 C238 1.429 . S
C247 N244 1.350 . S
C247 C246 1.434 . S
C248 C249 1.369 . S
C248 C250 1.419 . S
C248 H252 0.930 . S
C249 C248 1.369 . S
C249 C258 1.429 . S
C250 C248 1.419 . S
C250 C251 1.363 . S
C250 H253 0.929 . S
C251 C250 1.363 . S
C251 C257 1.428 . S
H252 C248 0.930 . S
H253 C250 0.929 . S
S254 N255 1.613 1_554 S
S254 N256 1.610 1_554 S
N255 S254 1.613 1_556 S
N255 C258 1.350 . S
N256 S254 1.610 1_556 S
N256 C257 1.351 . S
C257 C251 1.428 . S
C257 N256 1.351 . S
C257 C258 1.434 . S
C258 C249 1.429 . S
C258 N255 1.350 . S
C258 C257 1.434 . S
C259 C260 1.369 . S
C259 C261 1.419 . S
C259 H263 0.930 . S
C260 C259 1.369 . S
C260 C269 1.429 . S
C261 C259 1.419 . S
C261 C262 1.363 . S
C261 H264 0.929 . S
C262 C261 1.363 . S
C262 C268 1.428 . S
H263 C259 0.930 . S
H264 C261 0.929 . S
S265 N266 1.613 . S
S265 N267 1.610 . S
N266 S265 1.613 . S
N266 C269 1.350 . S
N267 S265 1.610 . S
N267 C268 1.351 . S
C268 C262 1.428 . S
C268 N267 1.351 . S
C268 C269 1.434 . S
C269 C260 1.429 . S
C269 N266 1.350 . S
C269 C268 1.434 . S
C270 C271 1.369 1_556 S
C270 C272 1.419 . S
C270 H274 0.930 . S
C271 C270 1.369 1_554 S
C271 C280 1.429 . S
C272 C270 1.419 . S
C272 C273 1.363 . S
C272 H275 0.929 . S
C273 C272 1.363 . S
C273 C279 1.428 . S
H274 C270 0.930 . S
H275 C272 0.929 . S
S276 N277 1.613 . S
S276 N278 1.610 . S
N277 S276 1.613 . S
N277 C280 1.350 . S
N278 S276 1.610 . S
N278 C279 1.351 1_554 S
C279 C273 1.428 . S
C279 N278 1.351 1_556 S
C279 C280 1.434 1_556 S
C280 C271 1.429 . S
C280 N277 1.350 . S
C280 C279 1.434 1_554 S
C281 C282 1.369 1_556 S
C281 C283 1.419 . S
C281 H285 0.930 . S
C282 C281 1.369 1_554 S
C282 C291 1.429 . S
C283 C281 1.419 . S
C283 C284 1.363 . S
C283 H286 0.929 . S
C284 C283 1.363 . S
C284 C290 1.428 . S
H285 C281 0.930 . S
H286 C283 0.929 . S
S287 N288 1.613 . S
S287 N289 1.610 . S
N288 S287 1.613 . S
N288 C291 1.350 . S
N289 S287 1.610 . S
N289 C290 1.351 1_554 S
C290 C284 1.428 . S
C290 N289 1.351 1_556 S
C290 C291 1.434 1_556 S
C291 C282 1.429 . S
C291 N288 1.350 . S
C291 C290 1.434 1_554 S
C292 C293 1.369 . S
C292 C294 1.419 . S
C292 H296 0.930 . S
C293 C292 1.369 . S
C293 C302 1.429 . S
C294 C292 1.419 . S
C294 C295 1.363 . S
C294 H297 0.929 . S
C295 C294 1.363 . S
C295 C301 1.428 . S
H296 C292 0.930 . S
H297 C294 0.929 . S
S298 N299 1.613 . S
S298 N300 1.610 . S
N299 S298 1.613 . S
N299 C302 1.350 . S
N300 S298 1.610 . S
N300 C301 1.351 . S
C301 C295 1.428 . S
C301 N300 1.351 . S
C301 C302 1.434 . S
C302 C293 1.429 . S
C302 N299 1.350 . S
C302 C301 1.434 . S
C303 C304 1.369 . S
C303 C305 1.419 . S
C303 H307 0.930 . S
C304 C303 1.369 . S
C304 C313 1.429 . S
C305 C303 1.419 . S
C305 C306 1.363 . S
C305 H308 0.929 . S
C306 C305 1.363 . S
C306 C312 1.428 . S
H307 C303 0.930 . S
H308 C305 0.929 . S
S309 N310 1.613 . S
S309 N311 1.610 . S
N310 S309 1.613 . S
N310 C313 1.350 . S
N311 S309 1.610 . S
N311 C312 1.351 . S
C312 C306 1.428 . S
C312 N311 1.351 . S
C312 C313 1.434 . S
C313 C304 1.429 . S
C313 N310 1.350 . S
C313 C312 1.434 . S
C314 C315 1.369 . S
C314 C316 1.419 . S
C314 H318 0.930 . S
C315 C314 1.369 . S
C315 C324 1.429 . S
C316 C314 1.419 . S
C316 C317 1.363 . S
C316 H319 0.929 . S
C317 C316 1.363 . S
C317 C323 1.428 . S
H318 C314 0.930 . S
H319 C316 0.929 . S
S320 N321 1.613 . S
S320 N322 1.610 . S
N321 S320 1.613 . S
N321 C324 1.350 . S
N322 S320 1.610 . S
N322 C323 1.351 . S
C323 C317 1.428 . S
C323 N322 1.351 . S
C323 C324 1.434 . S
C324 C315 1.429 . S
C324 N321 1.350 . S
C324 C323 1.434 . S
C325 C326 1.375 . S
C325 C327 1.419 . S
C325 H329 0.930 . S
C326 C325 1.375 . S
C326 C335 1.431 . S
C327 C325 1.419 . S
C327 C328 1.363 . S
C327 H330 0.929 . S
C328 C327 1.363 . S
C328 C334 1.428 . S
H329 C325 0.930 . S
H330 C327 0.929 . S
S331 N332 1.613 1_556 S
S331 N333 1.610 . S
N332 S331 1.613 1_554 S
N332 C335 1.350 1_554 S
N333 S331 1.610 . S
N333 C334 1.351 . S
C334 C328 1.428 . S
C334 N333 1.351 . S
C334 C335 1.434 . S
C335 C326 1.431 . S
C335 N332 1.350 1_556 S
C335 C334 1.434 . S
C336 C337 1.369 1_556 S
C336 C338 1.419 . S
C336 H340 0.930 . S
C337 C336 1.369 1_554 S
C337 C346 1.429 . S
C338 C336 1.419 . S
C338 C339 1.363 . S
C338 H341 0.929 . S
C339 C338 1.363 . S
C339 C345 1.428 . S
H340 C336 0.930 . S
H341 C338 0.929 . S
S342 N343 1.613 . S
S342 N344 1.610 1_554 S
N343 S342 1.613 . S
N343 C346 1.350 . S
N344 S342 1.610 1_556 S
N344 C345 1.351 . S
C345 C339 1.428 . S
C345 N344 1.351 . S
C345 C346 1.434 1_556 S
C346 C337 1.429 . S
C346 N343 1.350 . S
C346 C345 1.434 1_554 S
C347 C348 1.369 . S
C347 C349 1.419 . S
C347 H351 0.930 . S
C348 C347 1.369 . S
C348 C357 1.429 . S
C349 C347 1.419 . S
C349 C350 1.363 . S
C349 H352 0.929 . S
C350 C349 1.363 . S
C350 C356 1.428 . S
H351 C347 0.930 . S
H352 C349 0.929 . S
S353 N354 1.613 . S
S353 N355 1.610 . S
N354 S353 1.613 . S
N354 C357 1.350 . S
N355 S353 1.610 . S
N355 C356 1.351 . S
C356 C350 1.428 . S
C356 N355 1.351 . S
C356 C357 1.434 . S
C357 C348 1.429 . S
C357 N354 1.350 . S
C357 C356 1.434 . S
C358 C359 1.369 . S
C358 C360 1.419 . S
C358 H362 0.930 . S
C359 C358 1.369 . S
C359 C368 1.429 . S
C360 C358 1.419 . S
C360 C361 1.363 . S
C360 H363 0.929 . S
C361 C360 1.363 . S
C361 C367 1.428 . S
H362 C358 0.930 . S
H363 C360 0.929 . S
S364 N365 1.613 . S
S364 N366 1.610 . S
N365 S364 1.613 . S
N365 C368 1.350 . S
N366 S364 1.610 . S
N366 C367 1.351 . S
C367 C361 1.428 . S
C367 N366 1.351 . S
C367 C368 1.434 . S
C368 C359 1.429 . S
C368 N365 1.350 . S
C368 C367 1.434 . S
C369 C370 1.369 . S
C369 C371 1.419 . S
C369 H373 0.930 . S
C370 C369 1.369 . S
C370 C379 1.429 . S
C371 C369 1.419 . S
C371 C372 1.363 . S
C371 H374 0.929 . S
C372 C371 1.363 . S
C372 C378 1.428 . S
H373 C369 0.930 . S
H374 C371 0.929 . S
S375 N376 1.613 . S
S375 N377 1.610 . S
N376 S375 1.613 . S
N376 C379 1.350 . S
N377 S375 1.610 . S
N377 C378 1.351 . S
C378 C372 1.428 . S
C378 N377 1.351 . S
C378 C379 1.434 . S
C379 C370 1.429 . S
C379 N376 1.350 . S
C379 C378 1.434 . S
C380 C381 1.369 . S
C380 C382 1.419 . S
C380 H384 0.930 . S
C381 C380 1.369 . S
C381 C390 1.429 . S
C382 C380 1.419 . S
C382 C383 1.363 . S
C382 H385 0.929 . S
C383 C382 1.363 . S
C383 C389 1.428 . S
H384 C380 0.930 . S
H385 C382 0.929 . S
S386 N387 1.613 . S
S386 N388 1.610 . S
N387 S386 1.613 . S
N387 C390 1.350 . S
N388 S386 1.610 . S
N388 C389 1.351 . S
C389 C383 1.428 . S
C389 N388 1.351 . S
C389 C390 1.434 . S
C390 C381 1.429 . S
C390 N387 1.350 . S
C390 C389 1.434 . S
C391 C392 1.369 . S
C391 C393 1.419 . S
C391 H395 0.930 . S
C392 C391 1.369 . S
C392 C401 1.429 . S
C393 C391 1.419 . S
C393 C394 1.363 . S
C393 H396 0.929 . S
C394 C393 1.363 . S
C394 C400 1.428 . S
H395 C391 0.930 . S
H396 C393 0.929 . S
S397 N398 1.613 . S
S397 N399 1.610 . S
N398 S397 1.613 . S
N398 C401 1.350 . S
N399 S397 1.610 . S
N399 C400 1.351 . S
C400 C394 1.428 . S
C400 N399 1.351 . S
C400 C401 1.434 . S
C401 C392 1.429 . S
C401 N398 1.350 . S
C401 C400 1.434 . S
C402 C403 1.369 . S
C402 C404 1.419 . S
C402 H406 0.930 . S
C403 C402 1.369 . S
C403 C412 1.429 . S
C404 C402 1.419 . S
C404 C405 1.363 . S
C404 H407 0.929 . S
C405 C404 1.363 . S
C405 C411 1.428 . S
H406 C402 0.930 . S
H407 C404 0.929 . S
S408 N409 1.613 . S
S408 N410 1.610 . S
N409 S408 1.613 . S
N409 C412 1.350 . S
N410 S408 1.610 . S
N410 C411 1.351 . S
C411 C405 1.428 . S
C411 N410 1.351 . S
C411 C412 1.434 . S
C412 C403 1.429 . S
C412 N409 1.350 . S
C412 C411 1.434 . S
C413 C414 1.369 . S
C413 C415 1.419 . S
C413 H417 0.930 . S
C414 C413 1.369 . S
C414 C423 1.429 . S
C415 C413 1.419 . S
C415 C416 1.363 . S
C415 H418 0.929 . S
C416 C415 1.363 . S
C416 C422 1.428 . S
H417 C413 0.930 . S
H418 C415 0.929 . S
S419 N420 1.613 . S
S419 N421 1.610 . S
N420 S419 1.613 . S
N420 C423 1.350 . S
N421 S419 1.610 . S
N421 C422 1.351 . S
C422 C416 1.428 . S
C422 N421 1.351 . S
C422 C423 1.434 . S
C423 C414 1.429 . S
C423 N420 1.350 . S
C423 C422 1.434 . S
C424 C425 1.369 . S
C424 C426 1.419 . S
C424 H428 0.930 . S
C425 C424 1.369 . S
C425 C434 1.429 . S
C426 C424 1.419 . S
C426 C427 1.363 . S
C426 H429 0.929 . S
C427 C426 1.363 . S
C427 C433 1.428 . S
H428 C424 0.930 . S
H429 C426 0.929 . S
S430 N431 1.613 . S
S430 N432 1.610 . S
N431 S430 1.613 . S
N431 C434 1.350 . S
N432 S430 1.610 . S
N432 C433 1.351 . S
C433 C427 1.428 . S
C433 N432 1.351 . S
C433 C434 1.434 . S
C434 C425 1.429 . S
C434 N431 1.350 . S
C434 C433 1.434 . S
C172 C5 1.717 . S
C174 C78 1.597 . S
C183 C16 1.373 . S
C185 C110 1.383 . S
C196 C169 1.730 . S
C194 C36 1.793 . S
C207 C98 1.300 . S
C205 C42 1.302 . S
C216 C55 1.577 . S
C218 C128 1.540 . S
C229 C150 1.303 . S
C227 C66 1.274 . S
C240 C119 1.605 . S
C238 C31 1.655 . S
C249 C40 1.338 . S
C251 C159 1.319 . S
C262 C108 1.618 . S
C260 C53 1.608 . S
C271 C68 1.358 . S
C273 C138 1.354 . S
C282 C10 1.722 . S
C284 C141 1.662 . S
C295 C80 1.515 . S
C293 C14 1.508 . S
C306 C88 1.649 . S
C304 C49 1.658 . S
C317 C129 1.437 . S
C315 C62 1.441 1_556 S
C328 C142 1.690 . S
C326 C70 1.722 1_556 S
C339 C79 1.374 . S
C337 C1 1.421 . S
C350 C139 1.576 . S
C348 C23 1.598 . S
C359 C29 1.276 . S
C361 C140 1.219 . S
C372 C109 1.635 . S
C370 C75 1.672 . S
C383 C170 1.230 . S
C381 C3 1.271 . S
C394 C97 1.515 . S
C392 C18 1.562 . S
C405 C111 1.442 . S
C403 C27 1.491 . S
C414 C44 1.653 . S
C416 C160 1.614 . S
C425 C57 1.452 . S
C427 C107 1.451 . S
