# Generated by pormake.
# Topology eea, (3,6)-cn, num edge types: 1
# Building blocks:
#     Node 0, Type 0, BuildingBlock: WUSLED_clean_sbu_0, # of connection points: 3
#     Node 1, Type 0, BuildingBlock: WUSLED_clean_sbu_0, # of connection points: 3
#     Node 2, Type 0, BuildingBlock: WUSLED_clean_sbu_0, # of connection points: 3
#     Node 3, Type 0, BuildingBlock: WUSLED_clean_sbu_0, # of connection points: 3
#     Node 4, Type 0, BuildingBlock: WUSLED_clean_sbu_0, # of connection points: 3
#     Node 5, Type 0, BuildingBlock: WUSLED_clean_sbu_0, # of connection points: 3
#     Node 6, Type 0, BuildingBlock: WUSLED_clean_sbu_0, # of connection points: 3
#     Node 7, Type 0, BuildingBlock: WUSLED_clean_sbu_0, # of connection points: 3
#     Node 8, Type 0, BuildingBlock: WUSLED_clean_sbu_0, # of connection points: 3
#     Node 9, Type 0, BuildingBlock: WUSLED_clean_sbu_0, # of connection points: 3
#     Node 10, Type 0, BuildingBlock: WUSLED_clean_sbu_0, # of connection points: 3
#     Node 11, Type 0, BuildingBlock: WUSLED_clean_sbu_0, # of connection points: 3
#     Node 12, Type 0, BuildingBlock: WUSLED_clean_sbu_0, # of connection points: 3
#     Node 13, Type 0, BuildingBlock: WUSLED_clean_sbu_0, # of connection points: 3
#     Node 14, Type 0, BuildingBlock: WUSLED_clean_sbu_0, # of connection points: 3
#     Node 15, Type 0, BuildingBlock: WUSLED_clean_sbu_0, # of connection points: 3
#     Node 16, Type 0, BuildingBlock: WUSLED_clean_sbu_0, # of connection points: 3
#     Node 17, Type 0, BuildingBlock: WUSLED_clean_sbu_0, # of connection points: 3
#     Node 18, Type 1, BuildingBlock: KUMBOL_clean_sbu_0, # of connection points: 6
#     Node 19, Type 1, BuildingBlock: KUMBOL_clean_sbu_0, # of connection points: 6
#     Node 20, Type 1, BuildingBlock: KUMBOL_clean_sbu_0, # of connection points: 6
#     Node 21, Type 1, BuildingBlock: KUMBOL_clean_sbu_0, # of connection points: 6
#     Node 22, Type 1, BuildingBlock: KUMBOL_clean_sbu_0, # of connection points: 6
#     Node 23, Type 1, BuildingBlock: KUMBOL_clean_sbu_0, # of connection points: 6
#     Node 24, Type 1, BuildingBlock: KUMBOL_clean_sbu_0, # of connection points: 6
#     Node 25, Type 1, BuildingBlock: KUMBOL_clean_sbu_0, # of connection points: 6
#     Node 26, Type 1, BuildingBlock: KUMBOL_clean_sbu_0, # of connection points: 6
#     Edge 27, Type (0, 1), BuildingBlock: KIFKEQ_clean_linker_1, # of connection points: 2
#     Edge 28, Type (0, 1), BuildingBlock: KIFKEQ_clean_linker_1, # of connection points: 2
#     Edge 29, Type (0, 1), BuildingBlock: KIFKEQ_clean_linker_1, # of connection points: 2
#     Edge 30, Type (0, 1), BuildingBlock: KIFKEQ_clean_linker_1, # of connection points: 2
#     Edge 31, Type (0, 1), BuildingBlock: KIFKEQ_clean_linker_1, # of connection points: 2
#     Edge 32, Type (0, 1), BuildingBlock: KIFKEQ_clean_linker_1, # of connection points: 2
#     Edge 33, Type (0, 1), BuildingBlock: KIFKEQ_clean_linker_1, # of connection points: 2
#     Edge 34, Type (0, 1), BuildingBlock: KIFKEQ_clean_linker_1, # of connection points: 2
#     Edge 35, Type (0, 1), BuildingBlock: KIFKEQ_clean_linker_1, # of connection points: 2
#     Edge 36, Type (0, 1), BuildingBlock: KIFKEQ_clean_linker_1, # of connection points: 2
#     Edge 37, Type (0, 1), BuildingBlock: KIFKEQ_clean_linker_1, # of connection points: 2
#     Edge 38, Type (0, 1), BuildingBlock: KIFKEQ_clean_linker_1, # of connection points: 2
#     Edge 39, Type (0, 1), BuildingBlock: KIFKEQ_clean_linker_1, # of connection points: 2
#     Edge 40, Type (0, 1), BuildingBlock: KIFKEQ_clean_linker_1, # of connection points: 2
#     Edge 41, Type (0, 1), BuildingBlock: KIFKEQ_clean_linker_1, # of connection points: 2
#     Edge 42, Type (0, 1), BuildingBlock: KIFKEQ_clean_linker_1, # of connection points: 2
#     Edge 43, Type (0, 1), BuildingBlock: KIFKEQ_clean_linker_1, # of connection points: 2
#     Edge 44, Type (0, 1), BuildingBlock: KIFKEQ_clean_linker_1, # of connection points: 2
#     Edge 45, Type (0, 1), BuildingBlock: KIFKEQ_clean_linker_1, # of connection points: 2
#     Edge 46, Type (0, 1), BuildingBlock: KIFKEQ_clean_linker_1, # of connection points: 2
#     Edge 47, Type (0, 1), BuildingBlock: KIFKEQ_clean_linker_1, # of connection points: 2
#     Edge 48, Type (0, 1), BuildingBlock: KIFKEQ_clean_linker_1, # of connection points: 2
#     Edge 49, Type (0, 1), BuildingBlock: KIFKEQ_clean_linker_1, # of connection points: 2
#     Edge 50, Type (0, 1), BuildingBlock: KIFKEQ_clean_linker_1, # of connection points: 2
#     Edge 51, Type (0, 1), BuildingBlock: KIFKEQ_clean_linker_1, # of connection points: 2
#     Edge 52, Type (0, 1), BuildingBlock: KIFKEQ_clean_linker_1, # of connection points: 2
#     Edge 53, Type (0, 1), BuildingBlock: KIFKEQ_clean_linker_1, # of connection points: 2
#     Edge 54, Type (0, 1), BuildingBlock: KIFKEQ_clean_linker_1, # of connection points: 2
#     Edge 55, Type (0, 1), BuildingBlock: KIFKEQ_clean_linker_1, # of connection points: 2
#     Edge 56, Type (0, 1), BuildingBlock: KIFKEQ_clean_linker_1, # of connection points: 2
#     Edge 57, Type (0, 1), BuildingBlock: KIFKEQ_clean_linker_1, # of connection points: 2
#     Edge 58, Type (0, 1), BuildingBlock: KIFKEQ_clean_linker_1, # of connection points: 2
#     Edge 59, Type (0, 1), BuildingBlock: KIFKEQ_clean_linker_1, # of connection points: 2
#     Edge 60, Type (0, 1), BuildingBlock: KIFKEQ_clean_linker_1, # of connection points: 2
#     Edge 61, Type (0, 1), BuildingBlock: KIFKEQ_clean_linker_1, # of connection points: 2
#     Edge 62, Type (0, 1), BuildingBlock: KIFKEQ_clean_linker_1, # of connection points: 2
#     Edge 63, Type (0, 1), BuildingBlock: KIFKEQ_clean_linker_1, # of connection points: 2
#     Edge 64, Type (0, 1), BuildingBlock: KIFKEQ_clean_linker_1, # of connection points: 2
#     Edge 65, Type (0, 1), BuildingBlock: KIFKEQ_clean_linker_1, # of connection points: 2
#     Edge 66, Type (0, 1), BuildingBlock: KIFKEQ_clean_linker_1, # of connection points: 2
#     Edge 67, Type (0, 1), BuildingBlock: KIFKEQ_clean_linker_1, # of connection points: 2
#     Edge 68, Type (0, 1), BuildingBlock: KIFKEQ_clean_linker_1, # of connection points: 2
#     Edge 69, Type (0, 1), BuildingBlock: KIFKEQ_clean_linker_1, # of connection points: 2
#     Edge 70, Type (0, 1), BuildingBlock: KIFKEQ_clean_linker_1, # of connection points: 2
#     Edge 71, Type (0, 1), BuildingBlock: KIFKEQ_clean_linker_1, # of connection points: 2
#     Edge 72, Type (0, 1), BuildingBlock: KIFKEQ_clean_linker_1, # of connection points: 2
#     Edge 73, Type (0, 1), BuildingBlock: KIFKEQ_clean_linker_1, # of connection points: 2
#     Edge 74, Type (0, 1), BuildingBlock: KIFKEQ_clean_linker_1, # of connection points: 2
#     Edge 75, Type (0, 1), BuildingBlock: KIFKEQ_clean_linker_1, # of connection points: 2
#     Edge 76, Type (0, 1), BuildingBlock: KIFKEQ_clean_linker_1, # of connection points: 2
#     Edge 77, Type (0, 1), BuildingBlock: KIFKEQ_clean_linker_1, # of connection points: 2
#     Edge 78, Type (0, 1), BuildingBlock: KIFKEQ_clean_linker_1, # of connection points: 2
#     Edge 79, Type (0, 1), BuildingBlock: KIFKEQ_clean_linker_1, # of connection points: 2
#     Edge 80, Type (0, 1), BuildingBlock: KIFKEQ_clean_linker_1, # of connection points: 2
# Relax obj value: 0.009
# Max RMSD: 0.092
# Mean RMSD: 0.060
data_MOF--net-eea--node1-WUSLED_clean_sbu_0--node2-KUMBOL_clean_sbu_0--edge1-KIFKEQ_clean_linker_1
_symmetry_space_group_name_H-M    P1
_symmetry_Int_Tables_number       1
_symmetry_cell_setting            triclinic
loop_
_symmetry_equiv_pos_as_xyz
'x, y, z'
_cell_length_a     67.568909
_cell_length_b     69.132651
_cell_length_c     91.656343
_cell_angle_alpha  89.755757
_cell_angle_beta   90.002025
_cell_angle_gamma 119.9979
loop_
_atom_site_label
_atom_site_type_symbol
_atom_site_fract_x
_atom_site_fract_y
_atom_site_fract_z
_atom_type_partial_charge
C0 C 0.2238 0.15163 0.41428 0.0
C1 C 0.23609 0.17302 0.42042 0.0
C2 C 0.21729 0.18671 0.40398 0.0
C3 C 0.23289 0.1904 0.41531 0.0
C4 C 0.20477 0.1651 0.39808 0.0
C5 C 0.20803 0.1478 0.40316 0.0
U6 U 0.24238 0.1222 0.44229 0.0
O7 O 0.22701 0.08641 0.44735 0.0
O8 O 0.26205 0.10502 0.43883 0.0
C9 C 0.24482 0.08542 0.44254 0.0
C10 C 0.22748 0.13324 0.41899 0.0
C11 C 0.24002 0.06676 0.43269 0.0
C12 C 0.21852 0.04133 0.413 0.0
C13 C 0.22322 0.0597 0.42179 0.0
C14 C 0.24763 0.03721 0.42571 0.0
C15 C 0.23064 0.02981 0.41488 0.0
C16 C 0.25223 0.05545 0.4345 0.0
C17 C 0.2643 0.14823 0.48005 0.0
C18 C 0.28637 0.1389 0.49671 0.0
C19 C 0.27008 0.16109 0.50517 0.0
C20 C 0.26077 0.15981 0.49133 0.0
C21 C 0.28323 0.15087 0.50803 0.0
C22 C 0.27696 0.13757 0.48287 0.0
C23 C 0.25508 0.148 0.46542 0.0
O24 O 0.24888 0.1384 0.42076 0.0
O25 O 0.21388 0.12018 0.42937 0.0
O26 O 0.23387 0.13223 0.46311 0.0
O27 O 0.26874 0.15101 0.45435 0.0
H28 H 0.24833 0.17633 0.42905 0.0
H29 H 0.24299 0.20683 0.42003 0.0
H30 H 0.1923 0.16148 0.38956 0.0
H31 H 0.1983 0.13138 0.39833 0.0
H32 H 0.2055 0.03622 0.40467 0.0
H33 H 0.21366 0.06828 0.42015 0.0
H34 H 0.25706 0.02858 0.42763 0.0
H35 H 0.2652 0.0606 0.44288 0.0
H36 H 0.29655 0.131 0.49844 0.0
H37 H 0.26692 0.17008 0.51365 0.0
H38 H 0.25093 0.16803 0.48941 0.0
H39 H 0.27983 0.12847 0.47432 0.0
C40 C 0.95577 0.16097 0.41086 0.0
C41 C 0.97481 0.17219 0.42005 0.0
C42 C 0.99731 0.19691 0.39999 0.0
C43 C 0.99539 0.18993 0.41466 0.0
C44 C 0.97807 0.18573 0.39091 0.0
C45 C 0.95759 0.16797 0.39629 0.0
U46 U 0.90805 0.12762 0.4394 0.0
O47 O 0.87074 0.10838 0.43603 0.0
O48 O 0.88899 0.09139 0.44356 0.0
C49 C 0.86943 0.08922 0.43922 0.0
C50 C 0.93406 0.14157 0.41593 0.0
C51 C 0.85527 0.07032 0.42941 0.0
C52 C 0.85074 0.04295 0.41107 0.0
C53 C 0.86487 0.06184 0.41949 0.0
C54 C 0.81734 0.0411 0.42218 0.0
C55 C 0.82676 0.03225 0.41237 0.0
C56 C 0.83142 0.05986 0.43058 0.0
C57 C 0.911 0.15134 0.47797 0.0
C58 C 0.87949 0.14252 0.49468 0.0
C59 C 0.91841 0.16206 0.50353 0.0
C60 C 0.92634 0.16128 0.48955 0.0
C61 C 0.89489 0.15296 0.50628 0.0
C62 C 0.88746 0.14169 0.48068 0.0
C63 C 0.92007 0.15218 0.46313 0.0
O64 O 0.93552 0.12863 0.42592 0.0
O65 O 0.917 0.14522 0.41819 0.0
O66 O 0.90885 0.15475 0.45228 0.0
O67 O 0.92667 0.13764 0.46031 0.0
H68 H 0.97384 0.16718 0.43136 0.0
H69 H 1.00974 0.19833 0.42202 0.0
H70 H 0.97894 0.19042 0.37954 0.0
H71 H 0.94316 0.15952 0.38897 0.0
H72 H 0.8586 0.03677 0.40353 0.0
H73 H 0.88325 0.06964 0.41835 0.0
H74 H 0.79901 0.03317 0.42367 0.0
H75 H 0.82364 0.06601 0.43823 0.0
H76 H 0.8613 0.13551 0.49629 0.0
H77 H 0.93078 0.16985 0.51219 0.0
H78 H 0.94456 0.16875 0.48773 0.0
H79 H 0.87524 0.13388 0.47194 0.0
C80 C 0.86948 0.80549 0.41152 0.0
C81 C 0.84711 0.78717 0.41226 0.0
C82 C 0.83181 0.8095 0.40157 0.0
C83 C 0.82853 0.78915 0.40734 0.0
C84 C 0.85422 0.82786 0.40107 0.0
C85 C 0.87277 0.82584 0.40593 0.0
U86 U 0.90516 0.79089 0.43793 0.0
O87 O 0.92568 0.77501 0.43315 0.0
O88 O 0.94242 0.80919 0.44168 0.0
C89 C 0.94511 0.79293 0.43652 0.0
C90 C 0.88971 0.80356 0.41562 0.0
C91 C 0.96475 0.79942 0.42655 0.0
C92 C 0.98096 0.79857 0.40293 0.0
C93 C 0.96195 0.79385 0.41167 0.0
C94 C 1.00581 0.81493 0.42373 0.0
C95 C 1.00316 0.80897 0.40889 0.0
C96 C 0.98687 0.8102 0.43242 0.0
C97 C 0.88135 0.76806 0.47689 0.0
C98 C 0.87967 0.73931 0.49326 0.0
C99 C 0.87783 0.77071 0.5032 0.0
C100 C 0.8797 0.77938 0.4891 0.0
C101 C 0.8774 0.75035 0.50549 0.0
C102 C 0.88159 0.74803 0.47913 0.0
C103 C 0.88066 0.77644 0.46202 0.0
O104 O 0.90324 0.81744 0.42563 0.0
O105 O 0.88665 0.7833 0.41708 0.0
O106 O 0.87823 0.76347 0.4509 0.0
O107 O 0.89505 0.79767 0.45936 0.0
H108 H 0.84395 0.77119 0.41645 0.0
H109 H 0.81163 0.77454 0.40777 0.0
H110 H 0.85748 0.8439 0.39696 0.0
H111 H 0.88982 0.84022 0.40519 0.0
H112 H 0.97825 0.79396 0.39153 0.0
H113 H 0.94508 0.78555 0.40684 0.0
H114 H 0.02248 0.8226 0.42882 0.0
H115 H 0.98946 0.8145 0.44389 0.0
H116 H 0.87918 0.7235 0.49452 0.0
H117 H 0.87652 0.77992 0.51232 0.0
H118 H 0.87934 0.79477 0.48772 0.0
H119 H 0.88269 0.73876 0.46997 0.0
C120 C 0.07673 0.21443 0.63598 0.0
C121 C 0.06113 0.21484 0.62604 0.0
C122 C 0.03481 0.20985 0.64598 0.0
C123 C 0.04039 0.21257 0.63099 0.0
C124 C 0.05064 0.20957 0.65585 0.0
C125 C 0.07131 0.21183 0.6509 0.0
U126 U 0.12551 0.22904 0.60809 0.0
O127 O 0.16254 0.24535 0.61205 0.0
O128 O 0.14421 0.21107 0.60369 0.0
C129 C 0.16378 0.22766 0.60826 0.0
C130 C 0.09858 0.2164 0.63118 0.0
C131 C 0.17806 0.22182 0.61745 0.0
C132 C 0.19288 0.2182 0.64098 0.0
C133 C 0.17754 0.22206 0.63279 0.0
C134 C 0.20892 0.21336 0.61861 0.0
C135 C 0.20908 0.21425 0.63395 0.0
C136 C 0.19362 0.21709 0.6105 0.0
C137 C 0.12387 0.25185 0.56966 0.0
C138 C 0.15577 0.27326 0.55304 0.0
C139 C 0.11697 0.25713 0.54423 0.0
C140 C 0.10874 0.24822 0.55814 0.0
C141 C 0.14061 0.26999 0.5415 0.0
C142 C 0.1475 0.26425 0.56696 0.0
C143 C 0.11453 0.24332 0.58442 0.0
O144 O 0.0973 0.20261 0.62091 0.0
O145 O 0.11578 0.2368 0.62931 0.0
O146 O 0.12571 0.25629 0.59546 0.0
O147 O 0.10753 0.22214 0.58697 0.0
H148 H 0.06495 0.21681 0.61447 0.0
H149 H 0.02858 0.21263 0.62303 0.0
H150 H 0.04724 0.20791 0.66747 0.0
H151 H 0.08313 0.21154 0.65877 0.0
H152 H 0.19258 0.21907 0.65276 0.0
H153 H 0.16566 0.22568 0.6384 0.0
H154 H 0.22084 0.20998 0.61284 0.0
H155 H 0.19428 0.21675 0.59869 0.0
H156 H 0.17407 0.28277 0.55133 0.0
H157 H 0.10475 0.25445 0.53572 0.0
H158 H 0.09044 0.23877 0.55997 0.0
H159 H 0.15955 0.26719 0.57564 0.0
C160 C 0.80874 0.86777 0.63232 0.0
C161 C 0.7964 0.84629 0.62633 0.0
C162 C 0.81531 0.83285 0.64287 0.0
C163 C 0.79962 0.82898 0.63157 0.0
C164 C 0.82786 0.85455 0.64864 0.0
C165 C 0.82456 0.87178 0.64343 0.0
U166 U 0.78986 0.89663 0.60406 0.0
O167 O 0.77048 0.91415 0.60739 0.0
O168 O 0.80535 0.93228 0.59854 0.0
C169 C 0.78768 0.93354 0.6033 0.0
C170 C 0.80508 0.88611 0.62744 0.0
C171 C 0.79274 0.95275 0.61269 0.0
C172 C 0.81483 0.97941 0.63169 0.0
C173 C 0.80961 0.96027 0.62357 0.0
C174 C 0.78602 0.98328 0.61839 0.0
C175 C 0.8033 0.99134 0.62905 0.0
C176 C 0.78086 0.96424 0.6103 0.0
C177 C 0.7672 0.86995 0.56662 0.0
C178 C 0.74536 0.87965 0.55001 0.0
C179 C 0.76102 0.85693 0.54153 0.0
C180 C 0.77037 0.85813 0.55534 0.0
C181 C 0.74819 0.86749 0.53869 0.0
C182 C 0.75481 0.8809 0.56382 0.0
C183 C 0.77659 0.87027 0.58121 0.0
O184 O 0.81853 0.89885 0.6169 0.0
O185 O 0.78368 0.88101 0.62577 0.0
O186 O 0.76316 0.8676 0.59234 0.0
O187 O 0.7979 0.88592 0.58335 0.0
H188 H 0.7841 0.84285 0.61772 0.0
H189 H 0.78949 0.81248 0.62695 0.0
H190 H 0.84039 0.8583 0.65713 0.0
H191 H 0.83433 0.88827 0.64815 0.0
H192 H 0.8283 0.98519 0.63975 0.0
H193 H 0.81896 0.95158 0.62562 0.0
H194 H 0.77646 0.99172 0.61625 0.0
H195 H 0.76771 0.95863 0.60202 0.0
H196 H 0.73541 0.88781 0.5483 0.0
H197 H 0.76394 0.84777 0.53305 0.0
H198 H 0.78001 0.84969 0.55725 0.0
H199 H 0.75222 0.8902 0.57237 0.0
C200 C 0.07634 0.8593 0.63457 0.0
C201 C 0.0571 0.84812 0.62552 0.0
C202 C 0.035 0.82331 0.64566 0.0
C203 C 0.03662 0.83035 0.63102 0.0
C204 C 0.05442 0.83446 0.65459 0.0
C205 C 0.07479 0.85223 0.64911 0.0
U206 U 0.12407 0.89275 0.60599 0.0
O207 O 0.14299 0.92897 0.6018 0.0
O208 O 0.16136 0.91214 0.60943 0.0
C209 C 0.16259 0.93124 0.60613 0.0
C210 C 0.09795 0.87875 0.62942 0.0
C211 C 0.17695 0.9504 0.61571 0.0
C212 C 0.18201 0.97878 0.6334 0.0
C213 C 0.16763 0.95943 0.62543 0.0
C214 C 0.21508 0.97993 0.62231 0.0
C215 C 0.20594 0.9895 0.63174 0.0
C216 C 0.20077 0.96067 0.6144 0.0
C217 C 0.12193 0.86922 0.56754 0.0
C218 C 0.15416 0.87995 0.5511 0.0
C219 C 0.11554 0.85759 0.5421 0.0
C220 C 0.10702 0.85801 0.55597 0.0
C221 C 0.13924 0.86833 0.53951 0.0
C222 C 0.14561 0.88045 0.56495 0.0
C223 C 0.11244 0.86815 0.58227 0.0
O224 O 0.11513 0.87525 0.62723 0.0
O225 O 0.09638 0.89153 0.61935 0.0
O226 O 0.10569 0.88261 0.58499 0.0
O227 O 0.12354 0.86564 0.59322 0.0
H228 H 0.05784 0.85317 0.61424 0.0
H229 H 0.02213 0.82199 0.62377 0.0
H230 H 0.05378 0.82974 0.66593 0.0
H231 H 0.08936 0.86066 0.65632 0.0
H232 H 0.17436 0.98573 0.64051 0.0
H233 H 0.14929 0.95181 0.62665 0.0
H234 H 0.23339 0.9874 0.62096 0.0
H235 H 0.20835 0.95398 0.607 0.0
H236 H 0.1725 0.88868 0.54946 0.0
H237 H 0.10353 0.84829 0.53352 0.0
H238 H 0.0887 0.8492 0.55772 0.0
H239 H 0.15748 0.88935 0.57369 0.0
C240 C 0.89367 0.48674 0.74588 0.0
C241 C 0.8843 0.49641 0.755 0.0
C242 C 0.88712 0.52176 0.73541 0.0
C243 C 0.88101 0.51369 0.7498 0.0
C244 C 0.89685 0.51222 0.72642 0.0
C245 C 0.90001 0.49489 0.7316 0.0
U246 U 0.91082 0.45663 0.77431 0.0
O247 O 0.89442 0.42094 0.77994 0.0
O248 O 0.92937 0.43827 0.77118 0.0
C249 C 0.91183 0.41912 0.77529 0.0
C250 C 0.89657 0.4679 0.75082 0.0
C251 C 0.90639 0.39972 0.766 0.0
C252 C 0.88406 0.37307 0.74706 0.0
C253 C 0.88954 0.39232 0.75513 0.0
C254 C 0.91259 0.36883 0.76042 0.0
C255 C 0.89534 0.36091 0.74975 0.0
C256 C 0.918 0.38797 0.76845 0.0
C257 C 0.93433 0.48389 0.81161 0.0
C258 C 0.93574 0.46568 0.83408 0.0
C259 C 0.96027 0.50561 0.83113 0.0
C260 C 0.9512 0.5044 0.81723 0.0
C261 C 0.95259 0.4863 0.83981 0.0
C262 C 0.92674 0.46448 0.82011 0.0
C263 C 0.92493 0.48335 0.79697 0.0
O264 O 0.91776 0.47238 0.75253 0.0
O265 O 0.88278 0.45511 0.76124 0.0
O266 O 0.9034 0.46818 0.79483 0.0
O267 O 0.93824 0.48541 0.78592 0.0
H268 H 0.87931 0.49049 0.76609 0.0
H269 H 0.87324 0.52041 0.757 0.0
H270 H 0.90218 0.51822 0.71539 0.0
H271 H 0.90737 0.48775 0.72439 0.0
H272 H 0.87063 0.36741 0.73898 0.0
H273 H 0.88041 0.40121 0.75303 0.0
H274 H 0.92197 0.36021 0.76259 0.0
H275 H 0.93115 0.39348 0.77673 0.0
H276 H 0.92923 0.45048 0.84047 0.0
H277 H 0.97353 0.5217 0.83499 0.0
H278 H 0.9574 0.51957 0.81082 0.0
H279 H 0.91378 0.44841 0.816 0.0
C280 C 0.62382 0.49279 0.74439 0.0
C281 C 0.63994 0.50823 0.75414 0.0
C282 C 0.66532 0.52913 0.73382 0.0
C283 C 0.6605 0.5262 0.74891 0.0
C284 C 0.64898 0.51356 0.72415 0.0
C285 C 0.62851 0.49563 0.72938 0.0
U286 U 0.57556 0.46121 0.77277 0.0
O287 O 0.53834 0.44199 0.76913 0.0
O288 O 0.55619 0.42524 0.77781 0.0
C289 C 0.53676 0.42298 0.77311 0.0
C290 C 0.60205 0.47362 0.74949 0.0
C291 C 0.52238 0.4034 0.76387 0.0
C292 C 0.51731 0.37484 0.74633 0.0
C293 C 0.53169 0.39441 0.75411 0.0
C294 C 0.48428 0.37338 0.75774 0.0
C295 C 0.4934 0.36388 0.74823 0.0
C296 C 0.49859 0.39285 0.76546 0.0
C297 C 0.5773 0.48763 0.8103 0.0
C298 C 0.56379 0.47228 0.83469 0.0
C299 C 0.56626 0.50719 0.82766 0.0
C300 C 0.57443 0.50579 0.8139 0.0
C301 C 0.56086 0.49049 0.83827 0.0
C302 C 0.57186 0.47082 0.82085 0.0
C303 C 0.58686 0.48727 0.79577 0.0
O304 O 0.60339 0.46146 0.7601 0.0
O305 O 0.58495 0.47739 0.75113 0.0
O306 O 0.57611 0.48929 0.78443 0.0
O307 O 0.5936 0.47261 0.79375 0.0
H308 H 0.63667 0.50636 0.76578 0.0
H309 H 0.67272 0.53764 0.75672 0.0
H310 H 0.65181 0.5154 0.71247 0.0
H311 H 0.61625 0.48395 0.72167 0.0
H312 H 0.52494 0.36797 0.73915 0.0
H313 H 0.55002 0.40227 0.75268 0.0
H314 H 0.46598 0.36572 0.75927 0.0
H315 H 0.49103 0.39951 0.77288 0.0
H316 H 0.55963 0.45903 0.84254 0.0
H317 H 0.56458 0.52162 0.83007 0.0
H318 H 0.57872 0.5191 0.80606 0.0
H319 H 0.57391 0.45659 0.81845 0.0
C320 C 0.53731 0.13798 0.74366 0.0
C321 C 0.52168 0.13788 0.7538 0.0
C322 C 0.49972 0.14228 0.7341 0.0
C323 C 0.50309 0.14002 0.74907 0.0
C324 C 0.51543 0.14222 0.72403 0.0
C325 C 0.53397 0.1401 0.72877 0.0
U326 U 0.5718 0.12403 0.77132 0.0
O327 O 0.59216 0.10772 0.76738 0.0
O328 O 0.60895 0.14215 0.77546 0.0
C329 C 0.61153 0.12551 0.77098 0.0
C330 C 0.55732 0.13619 0.74825 0.0
C331 C 0.63159 0.13124 0.76162 0.0
C332 C 0.64985 0.13557 0.73792 0.0
C333 C 0.63075 0.13173 0.74631 0.0
C334 C 0.67081 0.13891 0.76007 0.0
C335 C 0.66998 0.13876 0.74473 0.0
C336 C 0.65188 0.1352 0.76838 0.0
C337 C 0.54711 0.10193 0.81012 0.0
C338 C 0.54684 0.07407 0.82672 0.0
C339 C 0.54234 0.10417 0.83634 0.0
C340 C 0.54414 0.11268 0.82219 0.0
C341 C 0.54331 0.08453 0.83881 0.0
C342 C 0.54871 0.08265 0.81256 0.0
C343 C 0.54662 0.11015 0.79517 0.0
O344 O 0.5704 0.15021 0.75835 0.0
O345 O 0.55377 0.11586 0.75022 0.0
O346 O 0.54432 0.09699 0.78419 0.0
O347 O 0.56116 0.13131 0.79242 0.0
H348 H 0.52394 0.13629 0.76536 0.0
H349 H 0.49155 0.14024 0.75718 0.0
H350 H 0.51327 0.14352 0.71243 0.0
H351 H 0.54578 0.14014 0.72075 0.0
H352 H 0.64861 0.13528 0.72614 0.0
H353 H 0.61525 0.12872 0.74085 0.0
H354 H 0.68611 0.1417 0.7657 0.0
H355 H 0.65295 0.13499 0.78018 0.0
H356 H 0.54743 0.05881 0.8281 0.0
H357 H 0.54005 0.11295 0.84534 0.0
H358 H 0.54277 0.12751 0.82066 0.0
H359 H 0.55089 0.07386 0.80351 0.0
C360 C 0.74272 0.54779 0.9676 0.0
C361 C 0.73915 0.56616 0.96736 0.0
C362 C 0.70115 0.54354 0.97818 0.0
C363 C 0.71865 0.56406 0.97259 0.0
C364 C 0.70471 0.52514 0.9782 0.0
C365 C 0.72523 0.52727 0.97302 0.0
U366 U 0.79277 0.56249 0.9406 0.0
O367 O 0.82965 0.57857 0.94503 0.0
O368 O 0.81139 0.54432 0.93663 0.0
C369 C 0.83077 0.56068 0.94163 0.0
C370 C 0.76488 0.54983 0.96319 0.0
C371 C 0.84399 0.55434 0.95151 0.0
C372 C 0.86133 0.55531 0.97505 0.0
C373 C 0.84702 0.55995 0.9664 0.0
C374 C 0.86931 0.53895 0.9542 0.0
C375 C 0.87287 0.54494 0.96903 0.0
C376 C 0.85508 0.5436 0.94558 0.0
C377 C 0.79147 0.58499 0.90184 0.0
C378 C 0.82282 0.60745 0.88507 0.0
C379 C 0.78387 0.58855 0.87627 0.0
C380 C 0.77608 0.57984 0.89026 0.0
C381 C 0.80733 0.60271 0.87348 0.0
C382 C 0.81497 0.59868 0.8991 0.0
C383 C 0.78234 0.57667 0.91667 0.0
O384 O 0.76404 0.53594 0.95314 0.0
O385 O 0.78243 0.57013 0.96158 0.0
O386 O 0.79351 0.58975 0.92767 0.0
O387 O 0.77526 0.5555 0.91932 0.0
H388 H 0.7523 0.58227 0.96334 0.0
H389 H 0.71676 0.57872 0.97255 0.0
H390 H 0.69159 0.50898 0.98217 0.0
H391 H 0.72754 0.51285 0.97339 0.0
H392 H 0.86343 0.55994 0.98646 0.0
H393 H 0.83864 0.56821 0.97128 0.0
H394 H 0.87811 0.5313 0.94906 0.0
H395 H 0.85316 0.53927 0.93412 0.0
H396 H 0.84097 0.61842 0.88341 0.0
H397 H 0.77145 0.58416 0.86762 0.0
H398 H 0.75788 0.56927 0.89209 0.0
H399 H 0.82723 0.60291 0.90784 0.0
C400 C 0.47589 0.20169 0.96613 0.0
C401 C 0.46361 0.18025 0.96006 0.0
C402 C 0.48247 0.16672 0.97658 0.0
C403 C 0.46684 0.16292 0.96525 0.0
C404 C 0.49496 0.18837 0.98243 0.0
C405 C 0.49166 0.20563 0.97726 0.0
U406 U 0.45699 0.23058 0.93793 0.0
O407 O 0.43764 0.24811 0.94128 0.0
O408 O 0.4725 0.26622 0.9324 0.0
C409 C 0.45485 0.2675 0.93718 0.0
C410 C 0.47225 0.22004 0.96128 0.0
C411 C 0.45995 0.28671 0.94659 0.0
C412 C 0.48201 0.31327 0.96564 0.0
C413 C 0.47675 0.29414 0.9575 0.0
C414 C 0.45337 0.31733 0.95228 0.0
C415 C 0.47058 0.32529 0.96297 0.0
C416 C 0.44817 0.2983 0.94418 0.0
C417 C 0.43421 0.20377 0.9005 0.0
C418 C 0.41211 0.21314 0.88389 0.0
C419 C 0.42813 0.19072 0.87542 0.0
C420 C 0.43754 0.19205 0.88923 0.0
C421 C 0.41508 0.20105 0.87258 0.0
C422 C 0.42163 0.21452 0.8977 0.0
C423 C 0.44364 0.20417 0.91509 0.0
O424 O 0.48568 0.23278 0.95073 0.0
O425 O 0.45086 0.21497 0.95964 0.0
O426 O 0.43024 0.20154 0.92624 0.0
O427 O 0.46496 0.21983 0.9172 0.0
H428 H 0.45137 0.17686 0.95142 0.0
H429 H 0.45676 0.14646 0.96058 0.0
H430 H 0.50744 0.19208 0.99095 0.0
H431 H 0.50138 0.22208 0.98204 0.0
H432 H 0.49543 0.31898 0.97373 0.0
H433 H 0.48602 0.28538 0.95957 0.0
H434 H 0.44388 0.32584 0.95012 0.0
H435 H 0.43506 0.29276 0.93586 0.0
H436 H 0.402 0.22112 0.88218 0.0
H437 H 0.43116 0.18164 0.86694 0.0
H438 H 0.44733 0.18376 0.89114 0.0
H439 H 0.41891 0.22374 0.90625 0.0
C440 C 0.74247 0.19389 0.96752 0.0
C441 C 0.72617 0.17847 0.95784 0.0
C442 C 0.70104 0.15771 0.97829 0.0
C443 C 0.70565 0.16057 0.96317 0.0
C444 C 0.71755 0.17326 0.98789 0.0
C445 C 0.73799 0.19112 0.98255 0.0
U446 U 0.79015 0.22612 0.9388 0.0
O447 O 0.80951 0.26225 0.93432 0.0
O448 O 0.82746 0.24513 0.94217 0.0
C449 C 0.82899 0.2643 0.93871 0.0
C450 C 0.76421 0.21302 0.96233 0.0
C451 C 0.84345 0.28348 0.94824 0.0
C452 C 0.84862 0.31163 0.96615 0.0
C453 C 0.8342 0.29232 0.95816 0.0
C454 C 0.88161 0.3131 0.95467 0.0
C455 C 0.87253 0.32247 0.96433 0.0
C456 C 0.86724 0.29389 0.94674 0.0
C457 C 0.78749 0.20189 0.90054 0.0
C458 C 0.81963 0.21227 0.88409 0.0
C459 C 0.78096 0.19003 0.87515 0.0
C460 C 0.77251 0.19063 0.88901 0.0
C461 C 0.80465 0.20062 0.87254 0.0
C462 C 0.81115 0.21296 0.89793 0.0
C463 C 0.77807 0.20112 0.91526 0.0
O464 O 0.78106 0.20904 0.96016 0.0
O465 O 0.76273 0.22561 0.95209 0.0
O466 O 0.77162 0.21584 0.91786 0.0
O467 O 0.78907 0.19857 0.92625 0.0
H468 H 0.72928 0.18031 0.94619 0.0
H469 H 0.69328 0.14913 0.95542 0.0
H470 H 0.71488 0.17148 0.99958 0.0
H471 H 0.75038 0.20279 0.99021 0.0
H472 H 0.84102 0.31842 0.97343 0.0
H473 H 0.81586 0.28458 0.95953 0.0
H474 H 0.8999 0.32067 0.95319 0.0
H475 H 0.87477 0.28734 0.93919 0.0
H476 H 0.83796 0.22089 0.88244 0.0
H477 H 0.7689 0.18071 0.8666 0.0
H478 H 0.75419 0.18195 0.89077 0.0
H479 H 0.82307 0.22189 0.90664 0.0
C480 C 0.55644 0.81835 0.08049 0.0
C481 C 0.5688 0.83978 0.08656 0.0
C482 C 0.55001 0.85343 0.07007 0.0
C483 C 0.56564 0.85716 0.08139 0.0
C484 C 0.53741 0.83177 0.06425 0.0
C485 C 0.54063 0.81447 0.0694 0.0
U486 U 0.57517 0.78896 0.10847 0.0
O487 O 0.55983 0.75317 0.11352 0.0
O488 O 0.59483 0.77178 0.10492 0.0
C489 C 0.57763 0.75219 0.10869 0.0
C490 C 0.56013 0.79998 0.08523 0.0
C491 C 0.5728 0.73348 0.09887 0.0
C492 C 0.55132 0.70799 0.07921 0.0
C493 C 0.55603 0.7264 0.08796 0.0
C494 C 0.58038 0.70388 0.09199 0.0
C495 C 0.56342 0.69646 0.08115 0.0
C496 C 0.58499 0.72216 0.10074 0.0
C497 C 0.5975 0.81471 0.14615 0.0
C498 C 0.6188 0.80404 0.16254 0.0
C499 C 0.60445 0.82776 0.17123 0.0
C500 C 0.59503 0.82689 0.15748 0.0
C501 C 0.61663 0.81651 0.17391 0.0
C502 C 0.60925 0.80309 0.1488 0.0
C503 C 0.58812 0.81473 0.13161 0.0
O504 O 0.58153 0.80512 0.08694 0.0
O505 O 0.54659 0.78697 0.09565 0.0
O506 O 0.56687 0.79901 0.12936 0.0
O507 O 0.60164 0.81779 0.12046 0.0
H508 H 0.58109 0.84314 0.09517 0.0
H509 H 0.5758 0.87363 0.08605 0.0
H510 H 0.52492 0.82811 0.05574 0.0
H511 H 0.53085 0.79802 0.06462 0.0
H512 H 0.53831 0.70286 0.07087 0.0
H513 H 0.54649 0.73499 0.08628 0.0
H514 H 0.58979 0.69524 0.09396 0.0
H515 H 0.59794 0.72732 0.10913 0.0
H516 H 0.6278 0.79494 0.16427 0.0
H517 H 0.60265 0.83771 0.17967 0.0
H518 H 0.58602 0.83597 0.15565 0.0
H519 H 0.61121 0.79344 0.14022 0.0
C520 C 0.29248 0.82634 0.07932 0.0
C521 C 0.29606 0.84816 0.08019 0.0
C522 C 0.3333 0.86312 0.06825 0.0
C523 C 0.3162 0.86631 0.0747 0.0
C524 C 0.32973 0.84125 0.06762 0.0
C525 C 0.30956 0.82312 0.07305 0.0
U526 U 0.2428 0.79328 0.10667 0.0
O527 O 0.20603 0.77223 0.10234 0.0
O528 O 0.22501 0.75732 0.1121 0.0
C529 C 0.20549 0.75379 0.10665 0.0
C530 C 0.27076 0.80661 0.08412 0.0
C531 C 0.19276 0.73372 0.0974 0.0
C532 C 0.17099 0.69313 0.09585 0.0
C533 C 0.1852 0.71259 0.10364 0.0
C534 C 0.17208 0.71551 0.07516 0.0
C535 C 0.16384 0.69429 0.08161 0.0
C536 C 0.18635 0.73502 0.08298 0.0
C537 C 0.24169 0.81956 0.14378 0.0
C538 C 0.22854 0.80448 0.16826 0.0
C539 C 0.22954 0.83858 0.16082 0.0
C540 C 0.23791 0.83725 0.14712 0.0
C541 C 0.22484 0.82229 0.17162 0.0
C542 C 0.23682 0.80309 0.15448 0.0
C543 C 0.25185 0.8195 0.12942 0.0
O544 O 0.27215 0.79485 0.09498 0.0
O545 O 0.25272 0.80908 0.085 0.0
O546 O 0.24096 0.82055 0.11783 0.0
O547 O 0.25982 0.80573 0.12783 0.0
H548 H 0.28319 0.8512 0.08493 0.0
H549 H 0.31813 0.88281 0.07525 0.0
H550 H 0.34259 0.8381 0.06299 0.0
H551 H 0.30721 0.80647 0.07223 0.0
H552 H 0.16538 0.67714 0.10108 0.0
H553 H 0.18985 0.71111 0.11473 0.0
H554 H 0.16683 0.71707 0.06427 0.0
H555 H 0.19186 0.75108 0.07787 0.0
H556 H 0.22491 0.79153 0.17625 0.0
H557 H 0.22725 0.8527 0.16306 0.0
H558 H 0.24175 0.85029 0.13915 0.0
H559 H 0.23957 0.78923 0.15228 0.0
C560 C 0.20358 0.47196 0.07883 0.0
C561 C 0.18123 0.45359 0.07941 0.0
C562 C 0.16602 0.47596 0.06867 0.0
C563 C 0.1627 0.45557 0.07438 0.0
C564 C 0.18841 0.49437 0.06834 0.0
C565 C 0.20691 0.49236 0.07331 0.0
U566 U 0.23922 0.45751 0.10541 0.0
O567 O 0.25968 0.44154 0.10072 0.0
O568 O 0.27649 0.4758 0.1091 0.0
C569 C 0.27913 0.45949 0.10399 0.0
C570 C 0.22379 0.47003 0.08301 0.0
C571 C 0.29863 0.4659 0.09391 0.0
C572 C 0.31446 0.46526 0.07011 0.0
C573 C 0.2956 0.46055 0.07899 0.0
C574 C 0.33961 0.48121 0.09083 0.0
C575 C 0.33673 0.47547 0.07595 0.0
C576 C 0.32081 0.47648 0.09967 0.0
C577 C 0.21554 0.43503 0.14442 0.0
C578 C 0.21451 0.40666 0.16087 0.0
C579 C 0.21172 0.43761 0.17071 0.0
C580 C 0.21348 0.44618 0.1566 0.0
C581 C 0.21183 0.41752 0.17306 0.0
C582 C 0.21632 0.41528 0.14673 0.0
C583 C 0.21479 0.44329 0.12954 0.0
O584 O 0.23731 0.48397 0.09299 0.0
O585 O 0.22069 0.44977 0.08456 0.0
O586 O 0.2123 0.43022 0.11846 0.0
O587 O 0.22919 0.46449 0.1268 0.0
H588 H 0.17804 0.43758 0.08353 0.0
H589 H 0.14582 0.44092 0.07467 0.0
H590 H 0.19168 0.51044 0.06427 0.0
H591 H 0.22396 0.50676 0.07269 0.0
H592 H 0.31158 0.46082 0.05868 0.0
H593 H 0.27867 0.45242 0.07425 0.0
H594 H 0.35634 0.48873 0.09583 0.0
H595 H 0.32357 0.48063 0.11115 0.0
H596 H 0.21443 0.39105 0.16218 0.0
H597 H 0.21009 0.44669 0.17979 0.0
H598 H 0.21273 0.46136 0.15516 0.0
H599 H 0.21776 0.40616 0.13761 0.0
C600 C 0.41036 0.8818 0.30191 0.0
C601 C 0.39459 0.88204 0.29205 0.0
C602 C 0.3685 0.8771 0.31213 0.0
C603 C 0.37387 0.87971 0.2971 0.0
C604 C 0.38451 0.87698 0.32191 0.0
C605 C 0.40515 0.8793 0.31685 0.0
U606 U 0.45894 0.89647 0.27383 0.0
O607 O 0.496 0.91286 0.27769 0.0
O608 O 0.47768 0.87856 0.26938 0.0
C609 C 0.49725 0.89517 0.27392 0.0
C610 C 0.43218 0.88383 0.297 0.0
C611 C 0.51151 0.88936 0.28315 0.0
C612 C 0.52622 0.88576 0.30672 0.0
C613 C 0.51092 0.88961 0.29848 0.0
C614 C 0.54236 0.8809 0.2844 0.0
C615 C 0.54245 0.8818 0.29974 0.0
C616 C 0.5271 0.88463 0.27624 0.0
C617 C 0.45714 0.91919 0.23542 0.0
C618 C 0.48907 0.94025 0.21877 0.0
C619 C 0.45029 0.92471 0.21004 0.0
C620 C 0.44203 0.91584 0.22395 0.0
C621 C 0.47394 0.93725 0.20726 0.0
C622 C 0.48077 0.93127 0.23268 0.0
C623 C 0.44781 0.91067 0.25019 0.0
O624 O 0.43085 0.87003 0.28671 0.0
O625 O 0.44933 0.90424 0.29509 0.0
O626 O 0.45901 0.92367 0.26121 0.0
O627 O 0.44085 0.8895 0.25275 0.0
H628 H 0.39824 0.88392 0.28046 0.0
H629 H 0.36192 0.87964 0.2892 0.0
H630 H 0.38126 0.87541 0.33355 0.0
H631 H 0.41711 0.87914 0.32466 0.0
H632 H 0.52586 0.88663 0.3185 0.0
H633 H 0.49901 0.89322 0.30406 0.0
H634 H 0.5543 0.87751 0.27866 0.0
H635 H 0.52781 0.88428 0.26444 0.0
H636 H 0.50737 0.94952 0.21701 0.0
H637 H 0.4381 0.92225 0.20156 0.0
H638 H 0.42373 0.90663 0.22581 0.0
H639 H 0.49281 0.93399 0.24133 0.0
C640 C 0.13972 0.53278 0.29968 0.0
C641 C 0.13258 0.52408 0.31378 0.0
C642 C 0.14658 0.49801 0.31031 0.0
C643 C 0.13589 0.50688 0.31902 0.0
C644 C 0.15348 0.5066 0.29608 0.0
C645 C 0.15005 0.52376 0.29081 0.0
U646 U 0.123 0.56347 0.27129 0.0
O647 O 0.10398 0.58136 0.27455 0.0
O648 O 0.13921 0.59934 0.26628 0.0
C649 C 0.12152 0.60076 0.27083 0.0
C650 C 0.13672 0.55156 0.29475 0.0
C651 C 0.12645 0.61979 0.28036 0.0
C652 C 0.14882 0.64671 0.29918 0.0
C653 C 0.14365 0.62761 0.29102 0.0
C654 C 0.11925 0.64994 0.28636 0.0
C655 C 0.13689 0.65831 0.29678 0.0
C656 C 0.11415 0.63094 0.27825 0.0
C657 C 0.10104 0.53817 0.23346 0.0
C658 C 0.07991 0.54894 0.217 0.0
C659 C 0.09438 0.52531 0.20832 0.0
C660 C 0.10367 0.5261 0.22211 0.0
C661 C 0.08217 0.53653 0.20562 0.0
C662 C 0.08932 0.54982 0.23077 0.0
C663 C 0.11004 0.53785 0.24808 0.0
O664 O 0.15075 0.56472 0.28454 0.0
O665 O 0.11552 0.54691 0.29281 0.0
O666 O 0.0964 0.53502 0.2591 0.0
O667 O 0.13139 0.5532 0.25051 0.0
H668 H 0.1245 0.53071 0.32079 0.0
H669 H 0.12994 0.50046 0.32991 0.0
H670 H 0.16197 0.50038 0.2891 0.0
H671 H 0.1557 0.53012 0.27987 0.0
H672 H 0.16256 0.65274 0.30705 0.0
H673 H 0.15334 0.61921 0.29286 0.0
H674 H 0.10939 0.65813 0.28442 0.0
H675 H 0.10073 0.62512 0.27013 0.0
H676 H 0.07089 0.55802 0.21524 0.0
H677 H 0.09626 0.51542 0.19989 0.0
H678 H 0.11264 0.51699 0.22397 0.0
H679 H 0.08724 0.55938 0.23936 0.0
C680 C 0.40949 0.52589 0.30154 0.0
C681 C 0.39012 0.51462 0.29261 0.0
C682 C 0.36833 0.48996 0.31288 0.0
C683 C 0.36974 0.49687 0.29824 0.0
C684 C 0.38788 0.50122 0.3217 0.0
C685 C 0.40816 0.51896 0.31609 0.0
U686 U 0.45706 0.55959 0.27283 0.0
O687 O 0.47583 0.59586 0.26878 0.0
O688 O 0.49434 0.57911 0.27626 0.0
C689 C 0.49546 0.5982 0.27312 0.0
C690 C 0.43101 0.54537 0.29628 0.0
C691 C 0.50953 0.61712 0.28295 0.0
C692 C 0.51393 0.6445 0.30125 0.0
C693 C 0.49986 0.62562 0.29281 0.0
C694 C 0.54741 0.64633 0.29029 0.0
C695 C 0.53792 0.65518 0.30004 0.0
C696 C 0.53338 0.62757 0.28186 0.0
C697 C 0.45498 0.53626 0.23428 0.0
C698 C 0.48714 0.5469 0.21779 0.0
C699 C 0.44847 0.52467 0.20883 0.0
C700 C 0.44001 0.52511 0.22271 0.0
C701 C 0.47217 0.53533 0.20621 0.0
C702 C 0.47864 0.54741 0.23166 0.0
C703 C 0.44553 0.53513 0.24904 0.0
O704 O 0.44824 0.54197 0.29402 0.0
O705 O 0.42928 0.55809 0.28624 0.0
O706 O 0.4387 0.54952 0.25181 0.0
O707 O 0.45669 0.53264 0.25996 0.0
H708 H 0.39069 0.51958 0.28132 0.0
H709 H 0.35514 0.48843 0.29107 0.0
H710 H 0.38742 0.49661 0.33305 0.0
H711 H 0.42282 0.52747 0.32321 0.0
H712 H 0.50601 0.65069 0.30875 0.0
H713 H 0.48147 0.61783 0.29388 0.0
H714 H 0.56574 0.65425 0.28886 0.0
H715 H 0.54123 0.62142 0.27426 0.0
H716 H 0.50547 0.55557 0.21613 0.0
H717 H 0.43642 0.51541 0.20026 0.0
H718 H 0.4217 0.51635 0.22449 0.0
H719 H 0.49056 0.55626 0.24039 0.0
Gd720 Gd 0.52672 0.02407 0.04115 0.0
Gd721 Gd 0.50714 0.99677 1.00515 0.0
C722 C 0.43704 0.93444 0.99972 0.0
C723 C 0.44712 0.90614 0.99398 0.0
C724 C 0.47684 0.94463 0.99792 0.0
C725 C 0.46046 0.95055 1.00058 0.0
C726 C 0.47039 0.92248 0.99424 0.0
C727 C 0.43047 0.9121 0.99674 0.0
C728 C 0.42097 0.94138 1.00149 0.0
C729 C 0.42844 0.964 1.0035 0.0
N730 N 0.46745 0.97231 1.0033 0.0
C731 C 0.45187 0.97937 1.00418 0.0
H732 H 0.45735 0.99676 1.00582 0.0
C733 C 0.51582 0.95645 0.99387 0.0
N734 N 0.49911 0.96087 0.99818 0.0
C735 C 0.51031 0.93471 0.99018 0.0
C736 C 0.48751 0.91757 0.99055 0.0
H737 H 0.53348 0.96962 0.99367 0.0
H738 H 0.41256 0.89944 0.99619 0.0
H739 H 0.57633 0.02366 0.04055 0.0
H740 H 0.40282 0.92951 1.00096 0.0
H741 H 0.41617 0.96962 1.0046 0.0
H742 H 0.44182 0.88896 0.99133 0.0
H743 H 0.50081 0.05158 0.05268 0.0
H744 H 0.63121 0.0908 0.04508 0.0
H745 H 0.61756 0.05059 0.04165 0.0
H746 H 0.59276 0.1319 0.05461 0.0
H747 H 0.52363 0.93117 0.98709 0.0
H748 H 0.48327 0.90076 0.98766 0.0
H749 H 0.62178 0.12112 0.04973 0.0
H750 H 0.51096 0.09015 0.05915 0.0
N751 N 0.56647 0.04832 0.04293 0.0
C752 C 0.61303 0.07903 0.04461 0.0
C753 C 0.60539 0.05634 0.04272 0.0
C754 C 0.59709 0.08614 0.04635 0.0
C755 C 0.57363 0.07014 0.04556 0.0
C756 C 0.58192 0.04109 0.04211 0.0
N757 N 0.53508 0.06009 0.04808 0.0
C758 C 0.55739 0.07622 0.04824 0.0
C759 C 0.52419 0.08648 0.05605 0.0
C760 C 0.54703 0.10352 0.05557 0.0
C761 C 0.51851 0.06467 0.05242 0.0
C762 C 0.56401 0.09844 0.05185 0.0
H763 H 0.5514 0.12039 0.05841 0.0
O764 O 0.50942 0.01698 0.06218 0.0
O765 O 0.49877 0.99662 0.02859 0.0
O766 O 0.49757 0.02368 1.00898 0.0
O767 O 0.52308 0.0482 0.02626 0.0
O768 O 0.48906 0.01229 0.04362 0.0
O769 O 0.53782 0.01128 0.05919 0.0
O770 O 0.52491 1.00465 0.98427 0.0
O771 O 0.53503 0.02424 1.0177 0.0
O772 O 0.53615 0.99704 0.03733 0.0
O773 O 0.51065 0.97256 0.02003 0.0
O774 O 0.54484 0.00861 1.00273 0.0
O775 O 0.49546 0.00877 0.98696 0.0
C776 C 0.48161 0.99628 0.0343 0.0
C777 C 0.58732 0.11468 0.05201 0.0
C778 C 0.60384 0.10854 0.04924 0.0
C779 C 0.52302 0.01116 0.06838 0.0
C780 C 0.53179 0.02065 0.08293 0.0
C781 C 0.54888 0.04307 0.08427 0.0
C782 C 0.52316 1.00725 0.09559 0.0
C783 C 0.53179 0.01619 0.10953 0.0
C784 C 0.55733 0.05207 0.09799 0.0
C785 C 0.54892 0.03881 0.1105 0.0
C786 C 0.50839 0.0435 1.01542 0.0
C787 C 0.55224 0.02464 1.01204 0.0
C788 C 0.5108 0.00965 0.97791 0.0
C789 C 0.50269 1.00001 0.96331 0.0
C790 C 0.48648 0.97731 0.96186 0.0
C791 C 0.51144 0.01345 0.95068 0.0
C792 C 0.50417 1.00415 0.93665 0.0
C793 C 0.47914 0.96804 0.94807 0.0
C794 C 0.48789 0.98127 0.93557 0.0
C795 C 0.52529 0.97722 0.03089 0.0
H796 H 0.55573 0.0536 0.07473 0.0
H797 H 0.51006 0.98986 0.09455 0.0
H798 H 0.57047 0.06944 0.09892 0.0
H799 H 0.55566 0.04638 0.121 0.0
H800 H 0.4795 0.96676 0.97138 0.0
H801 H 0.5241 0.03098 0.95179 0.0
H802 H 0.46657 0.9505 0.94705 0.0
H803 H 0.48161 0.97362 0.92502 0.0
Gd804 Gd 0.99969 0.50349 0.04034 0.0
Gd805 Gd 0.03238 0.51471 1.00593 0.0
C806 C 0.09812 0.51143 1.00283 0.0
C807 C 0.12662 0.55025 0.99828 0.0
C808 C 0.08651 0.53925 1.00076 0.0
C809 C 0.08098 0.51739 1.00313 0.0
C810 C 0.10932 0.55588 0.99798 0.0
C811 C 0.12103 0.52806 1.00073 0.0
C812 C 0.09165 0.48888 1.00429 0.0
C813 C 0.06853 0.47287 1.00547 0.0
N814 N 0.05867 0.50176 1.00504 0.0
C815 C 0.05215 0.47961 1.00561 0.0
H816 H 0.03438 0.46704 1.00662 0.0
C817 C 0.07359 0.56485 0.99647 0.0
N818 N 0.06937 0.54404 1.00046 0.0
C819 C 0.09594 0.58195 0.99368 0.0
C820 C 0.11394 0.57752 0.99461 0.0
H821 H 0.05976 0.5684 0.99583 0.0
H822 H 0.13447 0.52384 1.00061 0.0
H823 H 0.99857 0.55164 0.03977 0.0
H824 H 0.1043 0.48361 1.00419 0.0
H825 H 0.06329 0.45534 1.00633 0.0
H826 H 0.14428 0.56283 0.99631 0.0
H827 H 0.97151 0.44972 0.05014 0.0
H828 H 0.92898 0.53611 0.04209 0.0
H829 H 0.97014 0.56393 0.04007 0.0
H830 H 0.88785 0.45681 0.04958 0.0
H831 H 0.09928 0.59853 0.99084 0.0
H832 H 0.13123 0.59078 0.9924 0.0
H833 H 0.89833 0.49602 0.04548 0.0
H834 H 0.93173 0.41992 0.05491 0.0
N835 N 0.97387 0.517 0.04119 0.0
C836 C 0.94141 0.53058 0.04196 0.0
C837 C 0.96463 0.54633 0.04086 0.0
C838 C 0.93458 0.50792 0.04332 0.0
C839 C 0.95146 0.50161 0.04301 0.0
C840 C 0.98073 0.53924 0.0407 0.0
N841 N 0.96245 0.47449 0.04562 0.0
C842 C 0.94556 0.47963 0.04529 0.0
C843 C 0.93536 0.43663 0.05216 0.0
C844 C 0.91762 0.44142 0.05122 0.0
C845 C 0.95786 0.45353 0.04951 0.0
C846 C 0.92263 0.46322 0.04797 0.0
H847 H 0.90022 0.42832 0.05333 0.0
O848 O 1.00443 0.49275 0.06174 0.0
O849 O 0.0298 0.50533 0.0293 0.0
O850 O 1.00555 0.47788 1.00879 0.0
O851 O 0.9775 0.47649 0.02431 0.0
O852 O 1.01266 0.47925 0.04371 0.0
O853 O 1.01056 0.52638 0.05862 0.0
O854 O 0.02643 0.5248 0.98464 0.0
O855 O 1.00225 0.5128 1.01698 0.0
O856 O 0.02688 0.54028 0.03762 0.0
O857 O 0.05472 0.54169 0.02187 0.0
O858 O 0.01935 0.53893 1.00264 0.0
O859 O 0.02238 0.49192 0.9876 0.0
C860 C 0.0301 0.48894 0.03515 0.0
C861 C 0.9056 0.46921 0.04768 0.0
C862 C 0.91156 0.49153 0.04535 0.0
C863 C 1.00969 0.51166 0.06793 0.0
C864 C 0.99867 0.5103 0.08203 0.0
C865 C 0.9757 0.50472 0.08269 0.0
C866 C 1.01138 0.51486 0.09499 0.0
C867 C 1.00127 0.51403 0.10861 0.0
C868 C 0.96552 0.50377 0.09613 0.0
C869 C 0.97816 0.5084 0.109 0.0
C870 C 0.98433 0.46775 1.01399 0.0
C871 C 1.00191 0.52922 1.0112 0.0
C872 C 0.02219 0.50624 0.97837 0.0
C873 C 0.03336 0.50843 0.96421 0.0
C874 C 0.05669 0.51539 0.96343 0.0
C875 C 0.02054 0.50367 0.95129 0.0
C876 C 0.03094 0.50591 0.93755 0.0
C877 C 0.06714 0.51768 0.94991 0.0
C878 C 0.05445 0.51305 0.93707 0.0
C879 C 0.04804 0.55039 0.0323 0.0
H880 H 0.96567 0.50117 0.07285 0.0
H881 H 0.02921 0.51938 0.09442 0.0
H882 H 0.94775 0.4994 0.09657 0.0
H883 H 0.96975 0.50729 0.11928 0.0
H884 H 0.0668 0.5191 0.97324 0.0
H885 H 1.00244 0.49802 0.95199 0.0
H886 H 0.0852 0.52319 0.94937 0.0
H887 H 0.06317 0.51541 0.92674 0.0
Gd888 Gd 0.50719 0.51638 1.00519 0.0
Gd889 Gd 0.52594 0.50433 0.04036 0.0
C890 C 0.59486 0.50761 0.04521 0.0
C891 C 0.58342 0.4687 0.04965 0.0
C892 C 0.55471 0.47974 0.04642 0.0
C893 C 0.57165 0.50165 0.04437 0.0
C894 C 0.56035 0.46306 0.0494 0.0
C895 C 0.60065 0.49094 0.04754 0.0
C896 C 0.61152 0.53019 0.04407 0.0
C897 C 0.60482 0.5462 0.04267 0.0
N898 N 0.56541 0.5173 0.04224 0.0
C899 C 0.58157 0.53946 0.04198 0.0
H900 H 0.57674 0.55206 0.04081 0.0
C901 C 0.51539 0.45406 0.04984 0.0
N902 N 0.53266 0.47494 0.0462 0.0
C903 C 0.5201 0.4369 0.0528 0.0
C904 C 0.54267 0.44135 0.05241 0.0
H905 H 0.49791 0.4505 0.05004 0.0
H906 H 0.61838 0.49516 0.04807 0.0
H907 H 0.45627 0.46882 1.00491 0.0
H908 H 0.62954 0.53546 0.0446 0.0
H909 H 0.61755 0.56376 0.04205 0.0
H910 H 0.58811 0.45609 0.05178 0.0
H911 H 0.53545 0.57017 0.99539 0.0
H912 H 0.40371 0.48576 1.0011 0.0
H913 H 0.41549 0.45732 1.00371 0.0
H914 H 0.44547 0.56507 0.99371 0.0
H915 H 0.50633 0.42026 0.05536 0.0
H916 H 0.54628 0.42805 0.05475 0.0
H917 H 0.41507 0.52608 0.99752 0.0
H918 H 0.5272 0.6005 0.99 0.0
N919 N 0.46776 0.50361 1.00342 0.0
C920 C 0.42171 0.49094 1.00163 0.0
C921 C 0.42829 0.47484 1.00307 0.0
C922 C 0.43845 0.51349 1.00045 0.0
C923 C 0.46163 0.51934 1.00129 0.0
C924 C 0.45152 0.48148 1.00373 0.0
N925 N 0.50067 0.54588 0.99935 0.0
C926 C 0.47865 0.5412 0.99917 0.0
C927 C 0.51339 0.58392 0.99262 0.0
C928 C 0.49087 0.57959 0.99304 0.0
C929 C 0.51799 0.5667 0.99563 0.0
C930 C 0.47311 0.55794 0.99613 0.0
H931 H 0.48733 0.59293 0.99066 0.0
O932 O 0.52478 0.52689 0.98428 0.0
O933 O 0.53452 0.51395 1.01709 0.0
O934 O 0.53714 0.54123 0.03751 0.0
O935 O 0.51189 0.54325 0.02104 0.0
O936 O 0.54515 0.54045 1.00289 0.0
O937 O 0.49504 0.49403 0.98658 0.0
O938 O 0.50865 0.49353 0.06134 0.0
O939 O 0.49864 0.50669 0.02843 0.0
O940 O 0.49592 0.47951 1.00805 0.0
O941 O 0.5212 0.47742 0.02446 0.0
O942 O 0.48796 0.48025 0.04265 0.0
O943 O 0.53752 0.52691 0.05885 0.0
C944 C 0.55202 0.53046 1.01168 0.0
C945 C 0.45009 0.55241 0.99589 0.0
C946 C 0.43278 0.53022 0.99806 0.0
C947 C 0.5104 0.50852 0.97767 0.0
C948 C 0.50222 0.51114 0.96329 0.0
C949 C 0.48512 0.51692 0.96232 0.0
C950 C 0.51176 0.50814 0.9504 0.0
C951 C 0.50439 0.51113 0.93658 0.0
C952 C 0.47763 0.51974 0.94872 0.0
C953 C 0.48715 0.5169 0.93596 0.0
C954 C 0.52694 0.55166 0.03178 0.0
C955 C 0.4811 0.49024 0.03384 0.0
C956 C 0.52249 0.51224 0.06783 0.0
C957 C 0.53098 0.51042 0.0823 0.0
C958 C 0.54766 0.50412 0.08351 0.0
C959 C 0.5225 0.51521 0.09501 0.0
C960 C 0.53085 0.51396 0.10891 0.0
C961 C 0.55587 0.50267 0.0972 0.0
C962 C 0.5476 0.50756 0.10979 0.0
C963 C 0.50613 0.46905 1.01372 0.0
H964 H 0.47756 0.51925 0.97207 0.0
H965 H 0.52513 0.50387 0.95115 0.0
H966 H 0.46436 0.52413 0.94807 0.0
H967 H 0.48082 0.519 0.92556 0.0
H968 H 0.55437 0.50037 0.07389 0.0
H969 H 0.50973 0.52026 0.09405 0.0
H970 H 0.56871 0.49773 0.09806 0.0
H971 H 0.55414 0.50605 0.12027 0.0
Gd972 Gd 0.19298 0.35702 0.37539 0.0
Gd973 Gd 0.17393 0.32977 0.33933 0.0
C974 C 0.10409 0.26724 0.3335 0.0
C975 C 0.11446 0.2391 0.32791 0.0
C976 C 0.14396 0.27763 0.33202 0.0
C977 C 0.12746 0.28343 0.33455 0.0
C978 C 0.1377 0.25552 0.32833 0.0
C979 C 0.09768 0.24495 0.3305 0.0
C980 C 0.0879 0.27407 0.33508 0.0
C981 C 0.09523 0.29667 0.33708 0.0
N982 N 0.13429 0.30515 0.33726 0.0
C983 C 0.11862 0.31211 0.33794 0.0
H984 H 0.12397 0.32947 0.33957 0.0
C985 C 0.18305 0.28966 0.32823 0.0
N986 N 0.1662 0.29394 0.3324 0.0
C987 C 0.17771 0.26796 0.32455 0.0
C988 C 0.15495 0.25075 0.32478 0.0
H989 H 0.20068 0.30288 0.32813 0.0
H990 H 0.07981 0.23224 0.3298 0.0
H991 H 0.24269 0.35681 0.37515 0.0
H992 H 0.06978 0.26215 0.33441 0.0
H993 H 0.08287 0.3022 0.33804 0.0
H994 H 0.10929 0.22197 0.32523 0.0
H995 H 0.16671 0.38445 0.38641 0.0
H996 H 0.29733 0.424 0.37995 0.0
H997 H 0.28387 0.38384 0.37652 0.0
H998 H 0.2585 0.46491 0.38887 0.0
H999 H 0.19115 0.26453 0.32157 0.0
H1000 H 0.15085 0.23396 0.32189 0.0
H1001 H 0.28769 0.45423 0.3844 0.0
H1002 H 0.17662 0.42302 0.39268 0.0
N1003 N 0.23268 0.38138 0.37738 0.0
C1004 C 0.27917 0.41219 0.37936 0.0
C1005 C 0.27164 0.38953 0.37747 0.0
C1006 C 0.26315 0.41923 0.38092 0.0
C1007 C 0.23972 0.40318 0.37998 0.0
C1008 C 0.2482 0.37423 0.3767 0.0
N1009 N 0.20109 0.39302 0.38217 0.0
C1010 C 0.22339 0.4092 0.38246 0.0
C1011 C 0.18994 0.41938 0.38977 0.0
C1012 C 0.21277 0.43645 0.38946 0.0
C1013 C 0.18439 0.39757 0.38627 0.0
C1014 C 0.22987 0.43142 0.38599 0.0
H1015 H 0.21704 0.45332 0.39222 0.0
O1016 O 0.17557 0.35004 0.39637 0.0
O1017 O 0.16528 0.32955 0.36272 0.0
O1018 O 0.16403 0.35647 0.3431 0.0
O1019 O 0.18947 0.38109 0.36036 0.0
O1020 O 0.15521 0.34494 0.37773 0.0
O1021 O 0.20393 0.34424 0.39352 0.0
O1022 O 0.19187 0.33765 0.31852 0.0
O1023 O 0.20159 0.35728 0.352 0.0
O1024 O 0.20261 0.3301 0.37169 0.0
O1025 O 0.17735 0.30561 0.35429 0.0
O1026 O 0.21172 0.34186 0.33707 0.0
O1027 O 0.16246 0.34187 0.32109 0.0
C1028 C 0.14799 0.32903 0.36835 0.0
C1029 C 0.25316 0.4477 0.38632 0.0
C1030 C 0.26978 0.44161 0.38378 0.0
C1031 C 0.1891 0.34418 0.40265 0.0
C1032 C 0.19778 0.3537 0.41721 0.0
C1033 C 0.21467 0.37619 0.41857 0.0
C1034 C 0.1893 0.34025 0.42985 0.0
C1035 C 0.19785 0.34923 0.4438 0.0
C1036 C 0.22304 0.38523 0.43228 0.0
C1037 C 0.21476 0.37192 0.44479 0.0
C1038 C 0.17477 0.3763 0.34952 0.0
C1039 C 0.21893 0.35783 0.34641 0.0
C1040 C 0.17783 0.34269 0.3121 0.0
C1041 C 0.16977 0.33301 0.2975 0.0
C1042 C 0.15334 0.31038 0.29607 0.0
C1043 C 0.17877 0.34636 0.28486 0.0
C1044 C 0.17149 0.33705 0.27084 0.0
C1045 C 0.14599 0.30109 0.28228 0.0
C1046 C 0.15495 0.31425 0.26977 0.0
C1047 C 0.1919 0.3103 0.36521 0.0
H1048 H 0.2214 0.38676 0.40903 0.0
H1049 H 0.17637 0.32281 0.4288 0.0
H1050 H 0.23601 0.40265 0.43323 0.0
H1051 H 0.22144 0.37952 0.45529 0.0
H1052 H 0.14617 0.29989 0.3056 0.0
H1053 H 0.19161 0.36383 0.28596 0.0
H1054 H 0.13323 0.28361 0.28128 0.0
H1055 H 0.14865 0.3066 0.25923 0.0
Gd1056 Gd 0.66599 0.83842 0.37352 0.0
Gd1057 Gd 0.69868 0.84874 0.33922 0.0
C1058 C 0.76329 0.84333 0.33653 0.0
C1059 C 0.79263 0.88186 0.33199 0.0
C1060 C 0.75279 0.87193 0.33423 0.0
C1061 C 0.74662 0.84991 0.33668 0.0
C1062 C 0.77579 0.8881 0.33153 0.0
C1063 C 0.78639 0.8595 0.3345 0.0
C1064 C 0.75619 0.82064 0.33806 0.0
C1065 C 0.73291 0.80511 0.33918 0.0
N1066 N 0.72414 0.83476 0.33854 0.0
C1067 C 0.71702 0.81247 0.33919 0.0
H1068 H 0.69913 0.80024 0.34016 0.0
C1069 C 0.74095 0.89829 0.32971 0.0
N1070 N 0.73608 0.87731 0.33378 0.0
C1071 C 0.76352 0.91496 0.327 0.0
C1072 C 0.78108 0.90992 0.32809 0.0
H1073 H 0.72746 0.90232 0.32896 0.0
H1074 H 0.79948 0.85481 0.33452 0.0
H1075 H 0.66508 0.88664 0.37267 0.0
H1076 H 0.76846 0.8149 0.33807 0.0
H1077 H 0.72718 0.78748 0.3401 0.0
H1078 H 0.81044 0.89408 0.33009 0.0
H1079 H 0.63767 0.7848 0.38374 0.0
H1080 H 0.59552 0.87134 0.37463 0.0
H1081 H 0.63673 0.89906 0.37269 0.0
H1082 H 0.55417 0.79215 0.38262 0.0
H1083 H 0.76737 0.93168 0.32411 0.0
H1084 H 0.79854 0.92285 0.32595 0.0
H1085 H 0.56477 0.83132 0.37818 0.0
H1086 H 0.59786 0.75518 0.3886 0.0
N1087 N 0.64027 0.85205 0.37415 0.0
C1088 C 0.60792 0.86576 0.37462 0.0
C1089 C 0.63116 0.88145 0.37357 0.0
C1090 C 0.60101 0.8431 0.37612 0.0
C1091 C 0.61784 0.83673 0.37597 0.0
C1092 C 0.64721 0.8743 0.37357 0.0
N1093 N 0.62873 0.80958 0.37892 0.0
C1094 C 0.61187 0.81476 0.37845 0.0
C1095 C 0.60155 0.77185 0.3857 0.0
C1096 C 0.58385 0.77669 0.38461 0.0
C1097 C 0.62406 0.78866 0.38299 0.0
C1098 C 0.58893 0.79844 0.38116 0.0
H1099 H 0.56643 0.76366 0.38676 0.0
O1100 O 0.67107 0.82806 0.39496 0.0
O1101 O 0.69598 0.83976 0.36264 0.0
O1102 O 0.67125 0.8121 0.34219 0.0
O1103 O 0.64346 0.81142 0.35761 0.0
O1104 O 0.67857 0.8139 0.37714 0.0
O1105 O 0.67652 0.86144 0.39172 0.0
O1106 O 0.69384 0.85928 0.31777 0.0
O1107 O 0.66873 0.84757 0.35009 0.0
O1108 O 0.69341 0.87508 0.37064 0.0
O1109 O 0.72115 0.87585 0.35508 0.0
O1110 O 0.6866 0.87361 0.33578 0.0
O1111 O 0.68755 0.82563 0.32105 0.0
C1112 C 0.69606 0.82333 0.36861 0.0
C1113 C 0.57194 0.80449 0.3807 0.0
C1114 C 0.57797 0.82678 0.37817 0.0
C1115 C 0.67602 0.84693 0.40108 0.0
C1116 C 0.66505 0.84545 0.41522 0.0
C1117 C 0.6422 0.84024 0.41596 0.0
C1118 C 0.67769 0.84936 0.42816 0.0
C1119 C 0.66763 0.84821 0.44185 0.0
C1120 C 0.63208 0.83901 0.42947 0.0
C1121 C 0.64464 0.84296 0.44232 0.0
C1122 C 0.65006 0.8023 0.34742 0.0
C1123 C 0.66904 0.86427 0.34425 0.0
C1124 C 0.68848 0.8403 0.31166 0.0
C1125 C 0.69951 0.84152 0.29759 0.0
C1126 C 0.72239 0.84679 0.29698 0.0
C1127 C 0.68691 0.83719 0.2846 0.0
C1128 C 0.69705 0.83795 0.271 0.0
C1129 C 0.7326 0.84769 0.28357 0.0
C1130 C 0.72007 0.84329 0.27067 0.0
C1131 C 0.71455 0.88494 0.36532 0.0
H1132 H 0.63223 0.83717 0.40613 0.0
H1133 H 0.69543 0.85359 0.42751 0.0
H1134 H 0.61439 0.83492 0.42999 0.0
H1135 H 0.63624 0.8416 0.45265 0.0
H1136 H 0.73233 0.85017 0.30685 0.0
H1137 H 0.66914 0.8329 0.28513 0.0
H1138 H 0.7503 0.85183 0.28316 0.0
H1139 H 0.72851 0.84435 0.2604 0.0
Gd1140 Gd 0.17388 0.8498 0.33866 0.0
Gd1141 Gd 0.19305 0.83789 0.3737 0.0
C1142 C 0.26198 0.84107 0.37815 0.0
C1143 C 0.25053 0.80216 0.38258 0.0
C1144 C 0.22183 0.81325 0.37956 0.0
C1145 C 0.23877 0.83514 0.37743 0.0
C1146 C 0.22747 0.79656 0.38248 0.0
C1147 C 0.26776 0.82438 0.3804 0.0
C1148 C 0.27865 0.86364 0.37695 0.0
C1149 C 0.27197 0.87968 0.37564 0.0
N1150 N 0.23254 0.85081 0.37538 0.0
C1151 C 0.24872 0.87296 0.37508 0.0
H1152 H 0.2439 0.88558 0.37397 0.0
C1153 C 0.18255 0.78763 0.38318 0.0
N1154 N 0.19979 0.80849 0.37947 0.0
C1155 C 0.18725 0.77046 0.38609 0.0
C1156 C 0.2098 0.77487 0.38556 0.0
H1157 H 0.16507 0.7841 0.38349 0.0
H1158 H 0.28549 0.82858 0.38083 0.0
H1159 H 0.12294 0.80226 0.33856 0.0
H1160 H 0.29667 0.86888 0.37738 0.0
H1161 H 0.28472 0.89722 0.37498 0.0
H1162 H 0.25522 0.78953 0.38466 0.0
H1163 H 0.20206 0.90357 0.32881 0.0
H1164 H 0.07037 0.81923 0.33506 0.0
H1165 H 0.08216 0.79077 0.33755 0.0
H1166 H 0.1121 0.89853 0.32761 0.0
H1167 H 0.1735 0.75384 0.3887 0.0
H1168 H 0.21342 0.76156 0.38785 0.0
H1169 H 0.08172 0.85956 0.33151 0.0
H1170 H 0.19378 0.93391 0.32353 0.0
N1171 N 0.13443 0.83705 0.33709 0.0
C1172 C 0.08837 0.8244 0.33551 0.0
C1173 C 0.09496 0.8083 0.33687 0.0
C1174 C 0.10511 0.84695 0.33429 0.0
C1175 C 0.1283 0.85279 0.33502 0.0
C1176 C 0.11819 0.81492 0.33743 0.0
N1177 N 0.16732 0.87931 0.33291 0.0
C1178 C 0.14531 0.87464 0.33284 0.0
C1179 C 0.17999 0.91733 0.32619 0.0
C1180 C 0.15748 0.91302 0.32672 0.0
C1181 C 0.18461 0.90012 0.32914 0.0
C1182 C 0.13975 0.89138 0.32987 0.0
H1183 H 0.15393 0.92636 0.32439 0.0
O1184 O 0.19102 0.86026 0.31761 0.0
O1185 O 0.20134 0.8474 0.3504 0.0
O1186 O 0.2043 0.87479 0.37082 0.0
O1187 O 0.17881 0.87673 0.35452 0.0
O1188 O 0.21184 0.87377 0.33611 0.0
O1189 O 0.16154 0.82727 0.32015 0.0
O1190 O 0.17599 0.82721 0.39476 0.0
O1191 O 0.16562 0.84023 0.36194 0.0
O1192 O 0.16262 0.81292 0.34154 0.0
O1193 O 0.18811 0.81092 0.35781 0.0
O1194 O 0.15508 0.81387 0.3762 0.0
O1195 O 0.20491 0.86054 0.39215 0.0
C1196 C 0.2188 0.86383 0.34489 0.0
C1197 C 0.11672 0.88587 0.32975 0.0
C1198 C 0.09943 0.86368 0.33197 0.0
C1199 C 0.17661 0.84178 0.31111 0.0
C1200 C 0.16802 0.84416 0.29682 0.0
C1201 C 0.15074 0.84971 0.29603 0.0
C1202 C 0.17729 0.84107 0.28384 0.0
C1203 C 0.16945 0.84372 0.2701 0.0
C1204 C 0.1428 0.8522 0.28251 0.0
C1205 C 0.15204 0.84926 0.26965 0.0
C1206 C 0.19401 0.8852 0.36518 0.0
C1207 C 0.14813 0.82383 0.36744 0.0
C1208 C 0.18994 0.84593 0.4012 0.0
C1209 C 0.19854 0.84413 0.41562 0.0
C1210 C 0.21533 0.83797 0.41678 0.0
C1211 C 0.19002 0.8488 0.42837 0.0
C1212 C 0.19843 0.84755 0.44224 0.0
C1213 C 0.22361 0.83654 0.43044 0.0
C1214 C 0.2153 0.8413 0.44307 0.0
C1215 C 0.17289 0.80249 0.34716 0.0
H1216 H 0.14338 0.85209 0.30585 0.0
H1217 H 0.1908 0.83697 0.28446 0.0
H1218 H 0.12939 0.85641 0.28199 0.0
H1219 H 0.14534 0.85107 0.25932 0.0
H1220 H 0.22206 0.83432 0.40713 0.0
H1221 H 0.17716 0.85374 0.42745 0.0
H1222 H 0.23654 0.83171 0.43126 0.0
H1223 H 0.22189 0.8398 0.45353 0.0
Gd1224 Gd 0.85976 0.69044 0.70766 0.0
Gd1225 Gd 0.83996 0.66299 0.67172 0.0
C1226 C 0.76979 0.60063 0.66668 0.0
C1227 C 0.77978 0.5722 0.66119 0.0
C1228 C 0.80956 0.61076 0.66482 0.0
C1229 C 0.79322 0.61675 0.66743 0.0
C1230 C 0.80306 0.58853 0.66133 0.0
C1231 C 0.76317 0.57824 0.66388 0.0
C1232 C 0.75375 0.60763 0.66837 0.0
C1233 C 0.76126 0.63029 0.67021 0.0
N1234 N 0.80025 0.63855 0.67 0.0
C1235 C 0.7847 0.64565 0.6708 0.0
H1236 H 0.7902 0.66307 0.67233 0.0
C1237 C 0.8485 0.62246 0.66071 0.0
N1238 N 0.83184 0.62698 0.66496 0.0
C1239 C 0.84294 0.60063 0.65724 0.0
C1240 C 0.82014 0.58352 0.65772 0.0
H1241 H 0.86617 0.63561 0.66044 0.0
H1242 H 0.74525 0.56558 0.66341 0.0
H1243 H 0.90965 0.69062 0.70691 0.0
H1244 H 0.73559 0.59577 0.66793 0.0
H1245 H 0.74901 0.63595 0.67126 0.0
H1246 H 0.77444 0.55497 0.65868 0.0
H1247 H 0.83336 0.71748 0.71921 0.0
H1248 H 0.96406 0.75791 0.71174 0.0
H1249 H 0.9508 0.71783 0.70812 0.0
H1250 H 0.9249 0.79829 0.72145 0.0
H1251 H 0.85623 0.59701 0.65421 0.0
H1252 H 0.81586 0.56664 0.65499 0.0
H1253 H 0.95422 0.78791 0.71655 0.0
H1254 H 0.84311 0.7559 0.72578 0.0
N1255 N 0.89945 0.715 0.70943 0.0
C1256 C 0.94591 0.74602 0.71123 0.0
C1257 C 0.93849 0.7234 0.70922 0.0
C1258 C 0.9298 0.7529 0.713 0.0
C1259 C 0.9064 0.73675 0.71215 0.0
C1260 C 0.91507 0.70799 0.70856 0.0
N1261 N 0.86774 0.72632 0.71465 0.0
C1262 C 0.88999 0.7426 0.71486 0.0
C1263 C 0.85646 0.75241 0.72267 0.0
C1264 C 0.87924 0.76959 0.72227 0.0
C1265 C 0.851 0.73068 0.71899 0.0
C1266 C 0.89638 0.76474 0.71855 0.0
H1267 H 0.88344 0.78639 0.72517 0.0
O1268 O 0.84249 0.68296 0.7287 0.0
O1269 O 0.83178 0.6629 0.69518 0.0
O1270 O 0.83039 0.68991 0.67556 0.0
O1271 O 0.85596 0.7145 0.69279 0.0
O1272 O 0.82205 0.67845 0.71028 0.0
O1273 O 0.8713 0.67791 0.72562 0.0
O1274 O 0.85742 0.6704 0.65076 0.0
O1275 O 0.86788 0.69055 0.68419 0.0
O1276 O 0.86955 0.66369 0.70367 0.0
O1277 O 0.84363 0.63896 0.68666 0.0
O1278 O 0.87771 0.67508 0.6691 0.0
O1279 O 0.82827 0.675 0.65356 0.0
C1280 C 0.81461 0.66247 0.70094 0.0
C1281 C 0.91964 0.78113 0.71878 0.0
C1282 C 0.93633 0.77522 0.716 0.0
C1283 C 0.85638 0.67745 0.73485 0.0
C1284 C 0.86503 0.68695 0.74941 0.0
C1285 C 0.88173 0.7095 0.75082 0.0
C1286 C 0.85657 0.67343 0.76202 0.0
C1287 C 0.86488 0.68239 0.776 0.0
C1288 C 0.8899 0.71852 0.76457 0.0
C1289 C 0.88158 0.70515 0.77705 0.0
C1290 C 0.84121 0.70974 0.68199 0.0
C1291 C 0.88509 0.69108 0.67842 0.0
C1292 C 0.84339 0.67557 0.64445 0.0
C1293 C 0.835 0.66583 0.62991 0.0
C1294 C 0.81831 0.64326 0.62857 0.0
C1295 C 0.84394 0.67907 0.61723 0.0
C1296 C 0.83636 0.66973 0.60324 0.0
C1297 C 0.81065 0.63394 0.61482 0.0
C1298 C 0.81956 0.64699 0.60226 0.0
C1299 C 0.85861 0.64381 0.69733 0.0
H1300 H 0.88845 0.72012 0.74131 0.0
H1301 H 0.84381 0.65594 0.7609 0.0
H1302 H 0.90271 0.73599 0.76557 0.0
H1303 H 0.88805 0.71277 0.78757 0.0
H1304 H 0.81119 0.63286 0.63815 0.0
H1305 H 0.85699 0.69647 0.61826 0.0
H1306 H 0.79769 0.61651 0.61389 0.0
H1307 H 0.81301 0.63932 0.59176 0.0
Gd1308 Gd 0.33295 0.17087 0.70738 0.0
Gd1309 Gd 0.36608 0.18201 0.6732 0.0
C1310 C 0.43113 0.17738 0.67046 0.0
C1311 C 0.46023 0.21607 0.66617 0.0
C1312 C 0.42026 0.20573 0.66834 0.0
C1313 C 0.41429 0.18374 0.67066 0.0
C1314 C 0.44323 0.2221 0.66576 0.0
C1315 C 0.45419 0.19374 0.66854 0.0
C1316 C 0.42424 0.15471 0.67184 0.0
C1317 C 0.401 0.13901 0.67285 0.0
N1318 N 0.39185 0.1684 0.67241 0.0
C1319 C 0.38493 0.14615 0.67291 0.0
H1320 H 0.36708 0.13377 0.6738 0.0
C1321 C 0.40809 0.23189 0.66403 0.0
N1322 N 0.4034 0.21091 0.66794 0.0
C1323 C 0.43063 0.24876 0.66143 0.0
C1324 C 0.44832 0.24391 0.66248 0.0
H1325 H 0.3945 0.23577 0.66332 0.0
H1326 H 0.4674 0.18921 0.66852 0.0
H1327 H 0.33163 0.21889 0.70682 0.0
H1328 H 0.43664 0.14914 0.67181 0.0
H1329 H 0.39543 0.12139 0.67365 0.0
H1330 H 0.47801 0.22844 0.66435 0.0
H1331 H 0.30486 0.11707 0.71716 0.0
H1332 H 0.26189 0.20306 0.70861 0.0
H1333 H 0.30306 0.23103 0.70689 0.0
H1334 H 0.22097 0.12373 0.71601 0.0
H1335 H 0.43433 0.26548 0.65867 0.0
H1336 H 0.46576 0.25699 0.66042 0.0
H1337 H 0.23132 0.1629 0.71186 0.0
H1338 H 0.26508 0.08715 0.72175 0.0
N1339 N 0.307 0.18422 0.70807 0.0
C1340 C 0.27439 0.1976 0.70858 0.0
C1341 C 0.2976 0.21343 0.70765 0.0
C1342 C 0.26763 0.17496 0.70993 0.0
C1343 C 0.28459 0.16876 0.70976 0.0
C1344 C 0.31378 0.20644 0.70763 0.0
N1345 N 0.29572 0.14176 0.71253 0.0
C1346 C 0.27876 0.1468 0.71208 0.0
C1347 C 0.26867 0.10384 0.71898 0.0
C1348 C 0.25088 0.10854 0.71792 0.0
C1349 C 0.29117 0.12081 0.71643 0.0
C1350 C 0.25583 0.13031 0.71464 0.0
H1351 H 0.23347 0.09538 0.71995 0.0
O1352 O 0.33776 0.16028 0.72881 0.0
O1353 O 0.36315 0.17263 0.69655 0.0
O1354 O 0.33893 0.14525 0.67597 0.0
O1355 O 0.31076 0.14409 0.69125 0.0
O1356 O 0.34583 0.14656 0.71092 0.0
O1357 O 0.3433 0.19371 0.72567 0.0
O1358 O 0.36118 0.19268 0.65181 0.0
O1359 O 0.33589 0.18042 0.68402 0.0
O1360 O 0.36019 0.20764 0.70473 0.0
O1361 O 0.38826 0.20891 0.68927 0.0
O1362 O 0.35375 0.20672 0.66989 0.0
O1363 O 0.35524 0.15911 0.65492 0.0
C1364 C 0.36337 0.15622 0.70244 0.0
C1365 C 0.23872 0.13619 0.71421 0.0
C1366 C 0.24461 0.15849 0.71184 0.0
C1367 C 0.3427 0.17911 0.73499 0.0
C1368 C 0.33165 0.17756 0.74911 0.0
C1369 C 0.30873 0.17214 0.74982 0.0
C1370 C 0.34431 0.18168 0.76205 0.0
C1371 C 0.33419 0.18052 0.77573 0.0
C1372 C 0.29856 0.1709 0.76331 0.0
C1373 C 0.31114 0.17506 0.77617 0.0
C1374 C 0.31764 0.13525 0.68103 0.0
C1375 C 0.3361 0.19713 0.67827 0.0
C1376 C 0.35597 0.17379 0.64562 0.0
C1377 C 0.36691 0.17519 0.63148 0.0
C1378 C 0.38983 0.18063 0.63073 0.0
C1379 C 0.35417 0.17092 0.61857 0.0
C1380 C 0.3642 0.17196 0.60488 0.0
C1381 C 0.39993 0.18174 0.61724 0.0
C1382 C 0.38726 0.17744 0.6044 0.0
C1383 C 0.38143 0.2177 0.69956 0.0
H1384 H 0.29875 0.16891 0.73998 0.0
H1385 H 0.3621 0.18609 0.76143 0.0
H1386 H 0.28082 0.16664 0.7638 0.0
H1387 H 0.3027 0.17368 0.78649 0.0
H1388 H 0.39988 0.18396 0.64056 0.0
H1389 H 0.33637 0.1665 0.61922 0.0
H1390 H 0.41766 0.18601 0.61672 0.0
H1391 H 0.39565 0.17873 0.59408 0.0
Gd1392 Gd 0.83989 0.18248 0.6719 0.0
Gd1393 Gd 0.85884 0.16995 0.70679 0.0
C1394 C 0.92803 0.17366 0.71131 0.0
C1395 C 0.91685 0.13476 0.71545 0.0
C1396 C 0.88795 0.1456 0.7125 0.0
C1397 C 0.90477 0.16756 0.71055 0.0
C1398 C 0.89375 0.12898 0.7153 0.0
C1399 C 0.93397 0.15707 0.71344 0.0
C1400 C 0.94457 0.19629 0.71027 0.0
C1401 C 0.93772 0.21221 0.70906 0.0
N1402 N 0.89838 0.18313 0.7086 0.0
C1403 C 0.91443 0.20533 0.70845 0.0
H1404 H 0.90949 0.21787 0.70742 0.0
C1405 C 0.8487 0.11968 0.71591 0.0
N1406 N 0.86586 0.14067 0.71237 0.0
C1407 C 0.85356 0.10258 0.7187 0.0
C1408 C 0.87617 0.10718 0.71822 0.0
H1409 H 0.83117 0.11599 0.71619 0.0
H1410 H 0.95174 0.16139 0.7139 0.0
H1411 H 0.78905 0.1349 0.67118 0.0
H1412 H 0.96262 0.20166 0.71074 0.0
H1413 H 0.95036 0.2298 0.70853 0.0
H1414 H 0.92167 0.1222 0.71744 0.0
H1415 H 0.86811 0.23648 0.66259 0.0
H1416 H 0.7364 0.15182 0.668 0.0
H1417 H 0.74824 0.12336 0.6701 0.0
H1418 H 0.77808 0.2313 0.66139 0.0
H1419 H 0.83987 0.08587 0.72118 0.0
H1420 H 0.87991 0.09392 0.72042 0.0
H1421 H 0.74771 0.19222 0.6649 0.0
H1422 H 0.85982 0.2669 0.65764 0.0
N1423 N 0.80046 0.16971 0.67016 0.0
C1424 C 0.7544 0.15702 0.66849 0.0
C1425 C 0.76102 0.14091 0.66963 0.0
C1426 C 0.77113 0.1796 0.66751 0.0
C1427 C 0.79431 0.18546 0.66828 0.0
C1428 C 0.78425 0.14756 0.67023 0.0
N1429 N 0.83333 0.21207 0.66642 0.0
C1430 C 0.81131 0.20737 0.66631 0.0
C1431 C 0.84602 0.25025 0.66012 0.0
C1432 C 0.82349 0.24588 0.66061 0.0
C1433 C 0.85065 0.23299 0.66288 0.0
C1434 C 0.80575 0.22416 0.66353 0.0
H1435 H 0.81993 0.25926 0.65843 0.0
O1436 O 0.85718 0.19339 0.65094 0.0
O1437 O 0.86731 0.17998 0.68359 0.0
O1438 O 0.86992 0.20682 0.70417 0.0
O1439 O 0.84432 0.20891 0.68807 0.0
O1440 O 0.87787 0.20663 0.66955 0.0
O1441 O 0.82784 0.16023 0.65325 0.0
O1442 O 0.84151 0.15881 0.72774 0.0
O1443 O 0.83128 0.17224 0.69508 0.0
O1444 O 0.8288 0.14559 0.6744 0.0
O1445 O 0.85419 0.14336 0.69066 0.0
O1446 O 0.82101 0.1454 0.70892 0.0
O1447 O 0.8702 0.1923 0.72539 0.0
C1448 C 0.88479 0.19652 0.67821 0.0
C1449 C 0.78271 0.21861 0.66338 0.0
C1450 C 0.76542 0.19636 0.66538 0.0
C1451 C 0.84307 0.17488 0.64434 0.0
C1452 C 0.83484 0.17713 0.6299 0.0
C1453 C 0.81853 0.1839 0.62868 0.0
C1454 C 0.84335 0.17238 0.61719 0.0
C1455 C 0.8355 0.17426 0.60326 0.0
C1456 C 0.81076 0.18591 0.61496 0.0
C1457 C 0.81913 0.18114 0.60235 0.0
C1458 C 0.85948 0.21721 0.69876 0.0
C1459 C 0.8139 0.15541 0.70032 0.0
C1460 C 0.8552 0.17747 0.73431 0.0
C1461 C 0.86368 0.17559 0.74876 0.0
C1462 C 0.88035 0.16928 0.74996 0.0
C1463 C 0.8552 0.18036 0.76148 0.0
C1464 C 0.86352 0.17906 0.77537 0.0
C1465 C 0.88854 0.16779 0.76364 0.0
C1466 C 0.88026 0.17265 0.77625 0.0
C1467 C 0.8391 0.13511 0.67992 0.0
H1468 H 0.81181 0.18762 0.63831 0.0
H1469 H 0.85581 0.16695 0.61819 0.0
H1470 H 0.79822 0.19123 0.61408 0.0
H1471 H 0.81298 0.18316 0.59187 0.0
H1472 H 0.88706 0.16555 0.74033 0.0
H1473 H 0.84244 0.18543 0.76052 0.0
H1474 H 0.90137 0.16284 0.76449 0.0
H1475 H 0.88679 0.17111 0.78672 0.0
H1476 H 0.35733 0.86463 0.04354 0.0
H1477 H 0.35802 0.90562 0.07922 0.0
H1478 H 0.39233 0.89621 0.03385 0.0
H1479 H 0.39269 0.93712 0.06941 0.0
H1480 H 0.44237 0.99526 0.04154 0.0
H1481 H 0.40593 0.96293 0.04863 0.0
H1482 H 0.43346 0.91959 0.04 0.0
H1483 H 0.46993 0.95205 0.03295 0.0
C1484 C 0.36496 0.88028 0.04939 0.0
C1485 C 0.35469 0.88246 0.0622 0.0
C1486 C 0.38503 0.89842 0.04379 0.0
C1487 C 0.39529 0.91926 0.05079 0.0
C1488 C 0.38503 0.92145 0.06356 0.0
C1489 C 0.36507 0.90333 0.0692 0.0
C1490 C 0.44048 0.97877 0.04096 0.0
C1491 C 0.45887 0.97616 0.03647 0.0
C1492 C 0.41968 0.96026 0.04512 0.0
C1493 C 0.41678 0.93864 0.04502 0.0
C1494 C 0.43501 0.93596 0.0401 0.0
C1495 C 0.45591 0.95455 0.036 0.0
H1496 H 0.1223 0.45666 0.07962 0.0
H1497 H 0.16484 0.49985 0.04485 0.0
H1498 H 0.09016 0.45964 0.07035 0.0
H1499 H 0.13263 0.50305 0.03571 0.0
H1500 H 0.07519 0.52228 0.03536 0.0
H1501 H 0.10829 0.51907 0.0426 0.0
H1502 H 0.0642 0.4482 0.04948 0.0
H1503 H 0.03124 0.45151 0.04218 0.0
C1504 C 0.12481 0.46663 0.06992 0.0
C1505 C 0.1463 0.47796 0.06301 0.0
C1506 C 0.10632 0.46836 0.0646 0.0
C1507 C 0.10874 0.48153 0.05224 0.0
C1508 C 0.13021 0.49297 0.04535 0.0
C1509 C 0.14872 0.49116 0.05064 0.0
C1510 C 0.07268 0.50597 0.03811 0.0
C1511 C 0.05069 0.48706 0.03793 0.0
C1512 C 0.09164 0.50411 0.04232 0.0
C1513 C 0.08893 0.48338 0.04672 0.0
C1514 C 0.06691 0.46447 0.04635 0.0
C1515 C 0.04804 0.46632 0.04207 0.0
H1516 H 0.59358 0.68549 0.0691 0.0
H1517 H 0.52137 0.66208 0.073 0.0
H1518 H 0.58507 0.65151 0.05612 0.0
H1519 H 0.51283 0.62799 0.06004 0.0
H1520 H 0.50614 0.57641 0.02624 0.0
H1521 H 0.51527 0.61233 0.03675 0.0
H1522 H 0.56935 0.61245 0.06196 0.0
H1523 H 0.5607 0.57702 0.05123 0.0
C1524 C 0.57587 0.67307 0.06721 0.0
C1525 C 0.55816 0.67646 0.07222 0.0
C1526 C 0.57098 0.65356 0.05977 0.0
C1527 C 0.54825 0.63687 0.05714 0.0
C1528 C 0.53054 0.64056 0.06174 0.0
C1529 C 0.53544 0.66012 0.06918 0.0
C1530 C 0.52017 0.58423 0.03388 0.0
C1531 C 0.53277 0.57382 0.03779 0.0
C1532 C 0.52527 0.60475 0.04002 0.0
C1533 C 0.54309 0.61536 0.05019 0.0
C1534 C 0.55575 0.60498 0.054 0.0
C1535 C 0.55066 0.58451 0.0479 0.0
H1536 H 0.87012 0.33404 0.99277 0.0
H1537 H 0.9101 0.35942 0.95333 0.0
H1538 H 0.8966 0.36859 1.00538 0.0
H1539 H 0.93635 0.39374 0.96583 0.0
H1540 H 0.99279 0.44179 0.99545 0.0
H1541 H 0.96546 0.40673 0.98419 0.0
H1542 H 0.91025 0.40862 1.00664 0.0
H1543 H 0.93774 0.44374 1.01813 0.0
C1544 C 0.88443 0.34703 0.98675 0.0
C1545 C 0.88808 0.34377 0.97206 0.0
C1546 C 0.89962 0.36686 0.99398 0.0
C1547 C 0.91882 0.38392 0.9867 0.0
C1548 C 0.92212 0.3808 0.97193 0.0
C1549 C 0.90701 0.36105 0.96473 0.0
C1550 C 0.97485 0.43477 0.99807 0.0
C1551 C 0.96755 0.4457 1.00774 0.0
C1552 C 0.95911 0.41464 0.99151 0.0
C1553 C 0.93555 0.40486 0.99436 0.0
C1554 C 0.92825 0.41553 1.00427 0.0
C1555 C 0.94405 0.43572 1.01086 0.0
H1556 H 0.67557 0.51905 1.00188 0.0
H1557 H 0.67715 0.56311 0.96775 0.0
H1558 H 0.64018 0.51575 1.01132 0.0
H1559 H 0.64208 0.56002 0.9773 0.0
H1560 H 0.59181 0.56791 1.00549 0.0
H1561 H 0.62819 0.57117 0.9984 0.0
H1562 H 0.59935 0.50014 1.00475 0.0
H1563 H 0.56288 0.49698 1.01183 0.0
C1564 C 0.66835 0.52792 0.9963 0.0
C1565 C 0.6794 0.54141 0.98402 0.0
C1566 C 0.64805 0.52605 1.00176 0.0
C1567 C 0.63831 0.53772 0.99515 0.0
C1568 C 0.64931 0.55113 0.98286 0.0
C1569 C 0.6695 0.55292 0.97737 0.0
C1570 C 0.59337 0.55305 1.00556 0.0
C1571 C 0.57462 0.53227 1.00943 0.0
C1572 C 0.61415 0.55487 1.00139 0.0
C1573 C 0.61669 0.53589 1.00085 0.0
C1574 C 0.59808 0.51514 1.00514 0.0
C1575 C 0.57719 0.51331 1.00925 0.0
H1576 H 0.48885 0.15847 1.00502 0.0
H1577 H 0.48331 0.13295 0.96135 0.0
H1578 H 0.49479 0.12877 1.01448 0.0
H1579 H 0.48897 0.10306 0.97088 0.0
H1580 H 0.47664 0.03982 0.99531 0.0
H1581 H 0.46999 0.0692 0.98609 0.0
H1582 H 0.5236 0.11702 1.01391 0.0
H1583 H 0.53035 0.08773 0.02311 0.0
C1584 C 0.48907 0.14665 0.9974 0.0
C1585 C 0.48568 0.14824 0.98238 0.0
C1586 C 0.49244 0.12958 1.00285 0.0
C1587 C 0.49239 0.11353 0.99345 0.0
C1588 C 0.4888 0.11496 0.97846 0.0
C1589 C 0.48553 0.13211 0.97299 0.0
C1590 C 0.487 0.05658 0.99951 0.0
C1591 C 0.50391 0.06129 1.01009 0.0
C1592 C 0.48325 0.07346 0.99415 0.0
C1593 C 0.49623 0.09549 0.99926 0.0
C1594 C 0.51305 0.10018 1.00989 0.0
C1595 C 0.51691 0.08333 1.01518 0.0
H1596 H 0.6781 0.11446 0.96847 0.0
H1597 H 0.6746 0.15727 1.00132 0.0
H1598 H 0.64287 0.08319 0.97785 0.0
H1599 H 0.63983 0.12566 1.01115 0.0
H1600 H 0.56353 0.06877 1.01282 0.0
H1601 H 0.59982 0.10121 1.00555 0.0
H1602 H 0.62816 0.05818 0.99826 0.0
H1603 H 0.59176 0.02586 1.00533 0.0
C1604 C 0.66983 0.11726 0.97768 0.0
C1605 C 0.67932 0.13851 0.98408 0.0
C1606 C 0.64974 0.09919 0.98323 0.0
C1607 C 0.6385 0.10177 0.99537 0.0
C1608 C 0.64789 0.12303 1.00174 0.0
C1609 C 0.66801 0.14114 0.99618 0.0
C1610 C 0.57768 0.06635 1.00997 0.0
C1611 C 0.57492 0.04481 1.00983 0.0
C1612 C 0.59851 0.08495 1.00576 0.0
C1613 C 0.61695 0.08236 1.00114 0.0
C1614 C 0.61426 0.06082 1.00145 0.0
C1615 C 0.59348 0.0423 1.00563 0.0
H1616 H 0.90362 0.57249 0.9896 0.0
H1617 H 0.87966 0.5089 0.96847 0.0
H1618 H 0.93263 0.56782 1.00237 0.0
H1619 H 0.90929 0.50472 0.9807 0.0
H1620 H 0.9569 0.49569 1.01075 0.0
H1621 H 0.92385 0.49866 1.0031 0.0
H1622 H 0.96786 0.56956 0.9961 0.0
H1623 H 1.00058 0.56656 1.00425 0.0
C1624 C 0.90432 0.55738 0.98778 0.0
C1625 C 0.88932 0.54118 0.97786 0.0
C1626 C 0.92118 0.55482 0.995 0.0
C1627 C 0.92356 0.53599 0.99251 0.0
C1628 C 0.90797 0.51938 0.98303 0.0
C1629 C 0.89111 0.52193 0.97583 0.0
C1630 C 0.95936 0.51197 1.00794 0.0
C1631 C 0.98126 0.53098 1.00836 0.0
C1632 C 0.94046 0.51366 1.00337 0.0
C1633 C 0.94308 0.53436 0.9989 0.0
C1634 C 0.965 0.5534 0.99966 0.0
C1635 C 0.98383 0.55169 1.00424 0.0
H1636 H 0.48101 0.33465 0.9921 0.0
H1637 H 0.47455 0.36383 0.95189 0.0
H1638 H 0.48969 0.36887 1.0051 0.0
H1639 H 0.48307 0.39775 0.96481 0.0
H1640 H 0.47271 0.4443 0.99399 0.0
H1641 H 0.46458 0.40953 0.98251 0.0
H1642 H 0.51863 0.40906 1.00737 0.0
H1643 H 0.52678 0.44402 1.01903 0.0
C1644 C 0.48162 0.34839 0.98601 0.0
C1645 C 0.47679 0.34634 0.97097 0.0
C1646 C 0.48658 0.368 0.99346 0.0
C1647 C 0.4868 0.38597 0.98604 0.0
C1648 C 0.48251 0.38406 0.97095 0.0
C1649 C 0.4776 0.36456 0.96353 0.0
C1650 C 0.48287 0.43683 0.9971 0.0
C1651 C 0.50045 0.44708 1.00745 0.0
C1652 C 0.47826 0.41688 0.99043 0.0
C1653 C 0.4911 0.40658 0.99388 0.0
C1654 C 0.50832 0.41647 1.00452 0.0
C1655 C 0.51299 0.43653 1.0112 0.0
H1656 H 0.12632 0.65765 0.09301 0.0
H1657 H 0.16321 0.68374 0.05257 0.0
H1658 H 0.09898 0.62362 0.08064 0.0
H1659 H 0.13525 0.64981 0.04002 0.0
H1660 H 0.09432 0.57474 0.02715 0.0
H1661 H 0.12227 0.60978 0.03845 0.0
H1662 H 0.06832 0.61077 0.0631 0.0
H1663 H 0.04043 0.57579 0.05191 0.0
C1664 C 0.12869 0.65612 0.08148 0.0
C1665 C 0.14712 0.67348 0.07384 0.0
C1666 C 0.11278 0.63666 0.07432 0.0
C1667 C 0.11478 0.63394 0.05929 0.0
C1668 C 0.13325 0.65125 0.05162 0.0
C1669 C 0.14917 0.67081 0.05879 0.0
C1670 C 0.08835 0.58254 0.03484 0.0
C1671 C 0.06503 0.57236 0.03857 0.0
C1672 C 0.10442 0.60269 0.04133 0.0
C1673 C 0.09762 0.6131 0.05177 0.0
C1674 C 0.07426 0.60308 0.05529 0.0
C1675 C 0.05821 0.58301 0.04879 0.0
H1676 H 0.38049 0.51136 0.07637 0.0
H1677 H 0.33872 0.44813 0.05498 0.0
H1678 H 0.41412 0.51543 0.06382 0.0
H1679 H 0.37223 0.45271 0.0419 0.0
H1680 H 0.44111 0.45307 0.04014 0.0
H1681 H 0.4054 0.45043 0.04804 0.0
H1682 H 0.4348 0.5215 0.04136 0.0
H1683 H 0.47083 0.5241 0.03392 0.0
C1684 C 0.3784 0.4984 0.06888 0.0
C1685 C 0.35682 0.47926 0.06688 0.0
C1686 C 0.39771 0.50089 0.0615 0.0
C1687 C 0.39604 0.48434 0.05187 0.0
C1688 C 0.37429 0.46566 0.04938 0.0
C1689 C 0.35496 0.46315 0.05678 0.0
C1690 C 0.43977 0.46805 0.04013 0.0
C1691 C 0.45866 0.48872 0.03623 0.0
C1692 C 0.41923 0.46655 0.04458 0.0
C1693 C 0.41709 0.48575 0.0454 0.0
C1694 C 0.43585 0.50639 0.04104 0.0
C1695 C 0.45645 0.50787 0.03659 0.0
H1696 H 0.54378 0.86167 0.04161 0.0
H1697 H 0.54942 0.88738 0.08523 0.0
H1698 H 0.53817 0.89152 0.03206 0.0
H1699 H 0.54406 0.91741 0.07561 0.0
H1700 H 0.55685 0.98073 0.0511 0.0
H1701 H 0.56322 0.95121 0.0604 0.0
H1702 H 0.50964 0.90357 0.03249 0.0
H1703 H 0.50319 0.933 0.02319 0.0
C1704 C 0.54364 0.87356 0.0492 0.0
C1705 C 0.54696 0.87198 0.06423 0.0
C1706 C 0.54046 0.89073 0.0437 0.0
C1707 C 0.54062 0.90687 0.05306 0.0
C1708 C 0.54414 0.90544 0.06807 0.0
C1709 C 0.54724 0.88821 0.07358 0.0
C1710 C 0.54644 0.96398 0.04689 0.0
C1711 C 0.52963 0.95936 0.03626 0.0
C1712 C 0.55003 0.94702 0.0523 0.0
C1713 C 0.53697 0.925 0.0472 0.0
C1714 C 0.52025 0.92039 0.03651 0.0
C1715 C 0.51656 0.93732 0.03116 0.0
H1716 H 0.04109 0.20578 0.40528 0.0
H1717 H 1.00325 0.23061 0.38135 0.0
H1718 H 0.07685 0.23681 0.39602 0.0
H1719 H 0.03896 0.26124 0.37176 0.0
H1720 H 0.10825 0.32773 0.37452 0.0
H1721 H 0.07158 0.29525 0.38106 0.0
H1722 H 0.09996 0.25228 0.37376 0.0
H1723 H 0.13677 0.28495 0.36751 0.0
C1724 C 0.04037 0.21784 0.39805 0.0
C1725 C 0.01922 0.21569 0.39414 0.0
C1726 C 0.06089 0.23549 0.39257 0.0
C1727 C 0.06084 0.25155 0.38311 0.0
C1728 C 0.03968 0.2493 0.37911 0.0
C1729 C 0.01917 0.2316 0.38452 0.0
C1730 C 0.10649 0.31128 0.37411 0.0
C1731 C 0.12524 0.30884 0.37027 0.0
C1732 C 0.08547 0.29265 0.3778 0.0
C1733 C 0.08276 0.2711 0.37798 0.0
C1734 C 0.10148 0.26864 0.37389 0.0
C1735 C 0.12251 0.28732 0.37012 0.0
H1736 H 0.83032 0.83318 0.37772 0.0
H1737 H 0.78826 0.79043 0.41281 0.0
H1738 H 0.79808 0.8365 0.36882 0.0
H1739 H 0.75607 0.79355 0.40377 0.0
H1740 H 0.69682 0.78578 0.37594 0.0
H1741 H 0.72966 0.78218 0.38316 0.0
H1742 H 0.77421 0.85287 0.37587 0.0
H1743 H 0.74126 0.85637 0.36871 0.0
C1744 C 0.8143 0.82461 0.38363 0.0
C1745 C 0.81203 0.81152 0.39603 0.0
C1746 C 0.79577 0.82649 0.37847 0.0
C1747 C 0.77442 0.81524 0.38553 0.0
C1748 C 0.77213 0.80214 0.3979 0.0
C1749 C 0.79065 0.80034 0.40309 0.0
C1750 C 0.71369 0.80048 0.37574 0.0
C1751 C 0.71652 0.82125 0.37147 0.0
C1752 C 0.73249 0.79847 0.37997 0.0
C1753 C 0.75462 0.81724 0.38017 0.0
C1754 C 0.75748 0.83801 0.3757 0.0
C1755 C 0.7386 0.84003 0.37154 0.0
H1756 H 0.26079 0.01892 0.40271 0.0
H1757 H 0.18859 0.99543 0.40676 0.0
H1758 H 0.25227 0.98502 0.38963 0.0
H1759 H 0.18003 0.96141 0.3937 0.0
H1760 H 0.17314 0.90993 0.35981 0.0
H1761 H 0.18233 0.94582 0.37039 0.0
H1762 H 0.23666 0.94597 0.39532 0.0
H1763 H 0.22796 0.91057 0.38451 0.0
C1764 C 0.24308 1.0065 0.40083 0.0
C1765 C 0.22538 0.00985 0.40591 0.0
C1766 C 0.23818 0.98703 0.39333 0.0
C1767 C 0.21544 0.97034 0.39071 0.0
C1768 C 0.19774 0.97399 0.39539 0.0
C1769 C 0.20265 0.99351 0.40289 0.0
C1770 C 0.18725 0.91775 0.3674 0.0
C1771 C 0.1999 0.90736 0.37121 0.0
C1772 C 0.19237 0.93825 0.37358 0.0
C1773 C 0.21028 0.94886 0.3837 0.0
C1774 C 0.223 0.93851 0.3874 0.0
C1775 C 0.21788 0.91806 0.38125 0.0
H1776 H 0.53188 0.69087 0.30605 0.0
H1777 H 0.57862 0.66632 0.31333 0.0
H1778 H 0.55823 0.72563 0.31837 0.0
H1779 H 0.60492 0.70102 0.32558 0.0
H1780 H 0.65794 0.77542 0.32934 0.0
H1781 H 0.63025 0.73968 0.31897 0.0
H1782 H 0.57582 0.74261 0.34169 0.0
H1783 H 0.60355 0.77878 0.35185 0.0
C1784 C 0.5476 0.69271 0.31046 0.0
C1785 C 0.55315 0.67578 0.30856 0.0
C1786 C 0.56274 0.71269 0.31753 0.0
C1787 C 0.58385 0.71628 0.32287 0.0
C1788 C 0.58907 0.69907 0.32134 0.0
C1789 C 0.57395 0.67913 0.31431 0.0
C1790 C 0.6401 0.76849 0.3322 0.0
C1791 C 0.63308 0.78004 0.34153 0.0
C1792 C 0.62418 0.74783 0.3263 0.0
C1793 C 0.60075 0.73812 0.32952 0.0
C1794 C 0.59369 0.74963 0.33888 0.0
C1795 C 0.60965 0.77031 0.34482 0.0
H1796 H 0.34086 0.85023 0.33439 0.0
H1797 H 0.34609 0.89865 0.30241 0.0
H1798 H 0.30565 0.84732 0.34377 0.0
H1799 H 0.31047 0.89502 0.31136 0.0
H1800 H 0.25873 0.90129 0.33892 0.0
H1801 H 0.29512 0.90453 0.33192 0.0
H1802 H 0.26579 0.83328 0.33751 0.0
H1803 H 0.22943 0.83022 0.34467 0.0
C1804 C 0.33456 0.86029 0.32935 0.0
C1805 C 0.34649 0.87475 0.31762 0.0
C1806 C 0.31418 0.85842 0.33464 0.0
C1807 C 0.30516 0.87099 0.32839 0.0
C1808 C 0.31701 0.88532 0.31662 0.0
C1809 C 0.33735 0.88718 0.31133 0.0
C1810 C 0.2602 0.88638 0.33884 0.0
C1811 C 0.24136 0.86558 0.34256 0.0
C1812 C 0.28099 0.88818 0.3347 0.0
C1813 C 0.28344 0.86915 0.33397 0.0
C1814 C 0.26467 0.84834 0.33805 0.0
C1815 C 0.24381 0.84656 0.3422 0.0
H1816 H 0.14316 0.46169 0.29583 0.0
H1817 H 0.15941 0.49365 0.338 0.0
H1818 H 0.15028 0.43276 0.30532 0.0
H1819 H 0.16537 0.46412 0.34766 0.0
H1820 H 0.1981 0.42096 0.35601 0.0
H1821 H 0.19139 0.45015 0.34659 0.0
H1822 H 0.13443 0.40108 0.32138 0.0
H1823 H 0.14137 0.37194 0.33062 0.0
C1824 C 0.14826 0.46259 0.30712 0.0
C1825 C 0.15068 0.48009 0.31612 0.0
C1826 C 0.15206 0.44579 0.31263 0.0
C1827 C 0.15835 0.44599 0.3273 0.0
C1828 C 0.1608 0.4635 0.33628 0.0
C1829 C 0.15706 0.48032 0.33077 0.0
C1830 C 0.184 0.41632 0.34857 0.0
C1831 C 0.17021 0.39402 0.34417 0.0
C1832 C 0.18013 0.43311 0.34316 0.0
C1833 C 0.16235 0.42805 0.33319 0.0
C1834 C 0.14849 0.4057 0.32886 0.0
C1835 C 0.15239 0.38893 0.33424 0.0
H1836 H 0.32428 0.4808 0.3082 0.0
H1837 H 0.36311 0.45655 0.33156 0.0
H1838 H 0.2889 0.44985 0.31796 0.0
H1839 H 0.32782 0.42604 0.34167 0.0
H1840 H 0.2587 0.35935 0.34001 0.0
H1841 H 0.29505 0.39182 0.33301 0.0
H1842 H 0.26644 0.43457 0.34041 0.0
H1843 H 0.22991 0.40189 0.34712 0.0
C1844 C 0.3253 0.46889 0.31541 0.0
C1845 C 0.34663 0.47119 0.31901 0.0
C1846 C 0.305 0.45128 0.32118 0.0
C1847 C 0.30545 0.43541 0.33064 0.0
C1848 C 0.32678 0.43782 0.33433 0.0
C1849 C 0.34707 0.45546 0.32862 0.0
C1850 C 0.26034 0.37575 0.34036 0.0
C1851 C 0.24159 0.3781 0.34434 0.0
C1852 C 0.28119 0.3944 0.33639 0.0
C1853 C 0.28374 0.41588 0.33609 0.0
C1854 C 0.26504 0.41827 0.34036 0.0
C1855 C 0.24418 0.39958 0.3444 0.0
H1856 H 0.58788 0.90103 0.29355 0.0
H1857 H 0.53736 0.8578 0.32503 0.0
H1858 H 0.61696 0.89672 0.3063 0.0
H1859 H 0.56689 0.8538 0.33812 0.0
H1860 H 0.62342 0.83198 0.34328 0.0
H1861 H 0.59181 0.83665 0.33439 0.0
H1862 H 0.63831 0.9074 0.32903 0.0
H1863 H 0.66969 0.90263 0.3378 0.0
C1864 C 0.58296 0.89058 0.30323 0.0
C1865 C 0.5602 0.87963 0.30818 0.0
C1866 C 0.59974 0.88831 0.31067 0.0
C1867 C 0.59435 0.875 0.32331 0.0
C1868 C 0.57161 0.86409 0.32838 0.0
C1869 C 0.55474 0.86652 0.32095 0.0
C1870 C 0.6267 0.84857 0.34054 0.0
C1871 C 0.64899 0.867 0.34134 0.0
C1872 C 0.60861 0.85126 0.33542 0.0
C1873 C 0.61255 0.87237 0.33079 0.0
C1874 C 0.6347 0.89085 0.33224 0.0
C1875 C 0.65267 0.88817 0.33734 0.0
H1876 H 0.13976 0.69639 0.28572 0.0
H1877 H 0.14831 0.6682 0.32575 0.0
H1878 H 0.14836 0.7304 0.29853 0.0
H1879 H 0.15702 0.7025 0.33865 0.0
H1880 H 0.19386 0.7777 0.3522 0.0
H1881 H 0.18556 0.74264 0.34061 0.0
H1882 H 0.1306 0.74247 0.31644 0.0
H1883 H 0.13893 0.77737 0.32782 0.0
C1884 C 0.14327 0.69735 0.2973 0.0
C1885 C 0.14305 0.67939 0.30472 0.0
C1886 C 0.14823 0.71691 0.30467 0.0
C1887 C 0.15312 0.71913 0.31968 0.0
C1888 C 0.15345 0.7014 0.32707 0.0
C1889 C 0.14846 0.68175 0.31967 0.0
C1890 C 0.17984 0.77005 0.34453 0.0
C1891 C 0.16712 0.78046 0.34094 0.0
C1892 C 0.17508 0.74993 0.3379 0.0
C1893 C 0.15755 0.73982 0.32747 0.0
C1894 C 0.14452 0.74999 0.32419 0.0
C1895 C 0.14924 0.77001 0.3308 0.0
H1896 H 0.83281 0.99659 0.40637 0.0
H1897 H 0.78597 0.02105 0.39919 0.0
H1898 H 0.80641 0.96177 0.39414 0.0
H1899 H 0.75962 0.98629 0.38701 0.0
H1900 H 0.70667 0.91184 0.38337 0.0
H1901 H 0.73436 0.94765 0.39367 0.0
H1902 H 0.78875 0.94473 0.37088 0.0
H1903 H 0.76103 0.9085 0.3608 0.0
C1904 C 0.81705 0.99471 0.402 0.0
C1905 C 0.81149 0.01163 0.4039 0.0
C1906 C 0.80188 0.9747 0.39498 0.0
C1907 C 0.78074 0.97107 0.38968 0.0
C1908 C 0.77551 0.98827 0.39121 0.0
C1909 C 0.79065 1.00824 0.39821 0.0
C1910 C 0.7245 0.91879 0.38048 0.0
C1911 C 0.73152 0.90723 0.37116 0.0
C1912 C 0.74042 0.93948 0.38633 0.0
C1913 C 0.76384 0.94922 0.38308 0.0
C1914 C 0.77089 0.93769 0.37372 0.0
C1915 C 0.75493 0.91698 0.36782 0.0
H1916 H 0.04689 0.84493 0.40944 0.0
H1917 H 1.00556 0.78149 0.38819 0.0
H1918 H 0.08073 0.849 0.39719 0.0
H1919 H 0.03927 0.78607 0.37538 0.0
H1920 H 0.10819 0.78666 0.37386 0.0
H1921 H 0.07243 0.78397 0.38169 0.0
H1922 H 0.10173 0.85501 0.37491 0.0
H1923 H 0.13782 0.85766 0.36756 0.0
C1924 C 0.04494 0.83192 0.40204 0.0
C1925 C 0.02341 0.81273 0.4 0.0
C1926 C 0.06438 0.83441 0.39483 0.0
C1927 C 0.0629 0.81781 0.38532 0.0
C1928 C 0.0412 0.79907 0.38279 0.0
C1929 C 0.02175 0.79656 0.39002 0.0
C1930 C 0.10683 0.80162 0.37382 0.0
C1931 C 0.12569 0.82229 0.36989 0.0
C1932 C 0.08626 0.80009 0.37823 0.0
C1933 C 0.08405 0.81927 0.37899 0.0
C1934 C 0.10282 0.83991 0.37464 0.0
C1935 C 0.12345 0.84142 0.37024 0.0
H1936 H 0.21109 0.19517 0.37556 0.0
H1937 H 0.21651 0.22047 0.41928 0.0
H1938 H 0.20532 0.22499 0.36615 0.0
H1939 H 0.211 0.25047 0.4098 0.0
H1940 H 0.22345 0.31387 0.38546 0.0
H1941 H 0.23001 0.28443 0.39469 0.0
H1942 H 0.17659 0.23676 0.36669 0.0
H1943 H 0.16995 0.2661 0.35748 0.0
C1944 C 0.21088 0.20696 0.38321 0.0
C1945 C 0.21418 0.20527 0.39822 0.0
C1946 C 0.2076 0.22411 0.37779 0.0
C1947 C 0.20765 0.24012 0.38721 0.0
C1948 C 0.21116 0.2386 0.4022 0.0
C1949 C 0.21435 0.22138 0.40764 0.0
C1950 C 0.21311 0.29714 0.38122 0.0
C1951 C 0.1963 0.29248 0.37059 0.0
C1952 C 0.21681 0.28021 0.38659 0.0
C1953 C 0.20386 0.25821 0.38143 0.0
C1954 C 0.18712 0.25358 0.37075 0.0
C1955 C 0.18333 0.27046 0.36545 0.0
H1956 H 0.68801 0.57232 0.74377 0.0
H1957 H 0.69211 0.52981 0.71093 0.0
H1958 H 0.72338 0.60368 0.73464 0.0
H1959 H 0.72702 0.56153 0.70134 0.0
H1960 H 0.8033 0.61835 0.70016 0.0
H1961 H 0.7669 0.58589 0.70721 0.0
H1962 H 0.73854 0.62892 0.7144 0.0
H1963 H 0.77506 0.66128 0.70754 0.0
C1964 C 0.69644 0.56961 0.73461 0.0
C1965 C 0.68709 0.54841 0.72815 0.0
C1966 C 0.71662 0.58774 0.72921 0.0
C1967 C 0.72808 0.58527 0.71715 0.0
C1968 C 0.7188 0.56407 0.71069 0.0
C1969 C 0.69859 0.5459 0.71611 0.0
C1970 C 0.78913 0.62077 0.70294 0.0
C1971 C 0.79191 0.64231 0.70309 0.0
C1972 C 0.76823 0.60216 0.70703 0.0
C1973 C 0.74974 0.60473 0.71154 0.0
C1974 C 0.75246 0.62629 0.71128 0.0
C1975 C 0.77332 0.64483 0.70722 0.0
H1976 H 0.45566 0.12099 0.74458 0.0
H1977 H 0.49873 0.16876 0.71189 0.0
H1978 H 0.42348 0.12468 0.73625 0.0
H1979 H 0.46622 0.1717 0.70314 0.0
H1980 H 0.40841 0.18955 0.70302 0.0
H1981 H 0.44147 0.18623 0.7101 0.0
H1982 H 0.39745 0.11513 0.71611 0.0
H1983 H 0.36448 0.11863 0.70913 0.0
C1984 C 0.45833 0.13233 0.73564 0.0
C1985 C 0.47992 0.14457 0.72896 0.0
C1986 C 0.43973 0.13422 0.7307 0.0
C1987 C 0.44213 0.14841 0.71894 0.0
C1988 C 0.46373 0.16074 0.71229 0.0
C1989 C 0.48235 0.15884 0.71722 0.0
C1990 C 0.4059 0.17318 0.70559 0.0
C1991 C 0.38392 0.15427 0.70524 0.0
C1992 C 0.42485 0.17125 0.70969 0.0
C1993 C 0.4222 0.1504 0.71376 0.0
C1994 C 0.40016 0.1315 0.71327 0.0
C1995 C 0.38127 0.13345 0.70916 0.0
H1996 H 0.89119 0.3223 0.76086 0.0
H1997 H 0.8848 0.35151 0.72064 0.0
H1998 H 0.88254 0.28833 0.74795 0.0
H1999 H 0.87597 0.31724 0.70767 0.0
H2000 H 0.83873 0.2422 0.69368 0.0
H2001 H 0.8469 0.27709 0.70545 0.0
H2002 H 0.90093 0.27645 0.73022 0.0
H2003 H 0.8928 0.24175 0.71862 0.0
C2004 C 0.88812 0.32157 0.74922 0.0
C2005 C 0.889 0.33981 0.74178 0.0
C2006 C 0.88313 0.30204 0.74181 0.0
C2007 C 0.87882 0.30012 0.72673 0.0
C2008 C 0.87909 0.31811 0.7193 0.0
C2009 C 0.88414 0.33775 0.72674 0.0
C2010 C 0.85252 0.24963 0.70151 0.0
C2011 C 0.86508 0.23907 0.70518 0.0
C2012 C 0.8572 0.26966 0.70826 0.0
C2013 C 0.87444 0.27949 0.71888 0.0
C2014 C 0.88725 0.26914 0.72229 0.0
C2015 C 0.88264 0.24924 0.71555 0.0
H2016 H 0.20328 1.00149 0.66003 0.0
H2017 H 0.24369 0.02623 0.62072 0.0
H2018 H 0.22972 0.03618 0.67253 0.0
H2019 H 0.26989 0.06069 0.63309 0.0
H2020 H 0.32611 0.1091 0.66268 0.0
H2021 H 0.29881 0.07395 0.6515 0.0
H2022 H 0.24352 0.07619 0.67358 0.0
H2023 H 0.271 0.1114 0.68499 0.0
C2024 C 0.21767 0.01437 0.65401 0.0
C2025 C 0.22146 0.01089 0.6394 0.0
C2026 C 0.23284 0.03428 0.66118 0.0
C2027 C 0.25215 0.05121 0.65389 0.0
C2028 C 0.25558 0.04786 0.63919 0.0
C2029 C 0.24049 0.02803 0.63207 0.0
C2030 C 0.30817 0.10214 0.66523 0.0
C2031 C 0.30084 0.1132 0.67477 0.0
C2032 C 0.29243 0.08196 0.65872 0.0
C2033 C 0.26886 0.07224 0.66149 0.0
C2034 C 0.26153 0.08305 0.67127 0.0
C2035 C 0.27732 0.10329 0.67781 0.0
H2036 H 1.00682 0.18283 0.66807 0.0
H2037 H 1.01263 0.2316 0.63618 0.0
H2038 H 0.97152 0.17994 0.67726 0.0
H2039 H 0.97692 0.22798 0.64494 0.0
H2040 H 0.92479 0.23403 0.67235 0.0
H2041 H 0.96123 0.23731 0.66542 0.0
H2042 H 0.9318 0.166 0.67076 0.0
H2043 H 0.89541 0.16291 0.67781 0.0
C2044 C 1.00063 0.19298 0.66301 0.0
C2045 C 1.01276 0.20752 0.65136 0.0
C2046 C 0.9802 0.19111 0.6682 0.0
C2047 C 0.97131 0.20377 0.66191 0.0
C2048 C 0.98336 0.2182 0.65023 0.0
C2049 C 1.00375 0.22005 0.64504 0.0
C2050 C 0.92624 0.21912 0.67222 0.0
C2051 C 0.90736 0.19829 0.67585 0.0
C2052 C 0.94707 0.22094 0.66813 0.0
C2053 C 0.94951 0.2019 0.66737 0.0
C2054 C 0.93069 0.18107 0.67133 0.0
C2055 C 0.9098 0.17927 0.67543 0.0
H2056 H 0.81602 0.79893 0.62774 0.0
H2057 H 0.82182 0.8248 0.67133 0.0
H2058 H 0.82166 0.76908 0.63736 0.0
H2059 H 0.82771 0.79512 0.68088 0.0
H2060 H 0.86314 0.75398 0.68964 0.0
H2061 H 0.8564 0.78326 0.68038 0.0
H2062 H 0.80275 0.73534 0.65263 0.0
H2063 H 0.80941 0.706 0.66189 0.0
C2064 C 0.81829 0.79817 0.63938 0.0
C2065 C 0.81852 0.81439 0.64872 0.0
C2066 C 0.82155 0.78104 0.6449 0.0
C2067 C 0.8252 0.77971 0.65989 0.0
C2068 C 0.82532 0.79584 0.66924 0.0
C2069 C 0.82197 0.81291 0.66374 0.0
C2070 C 0.84969 0.74957 0.68172 0.0
C2071 C 0.83669 0.72751 0.67665 0.0
C2072 C 0.84584 0.7664 0.67639 0.0
C2073 C 0.82902 0.76168 0.66575 0.0
C2074 C 0.81601 0.73963 0.66069 0.0
C2075 C 0.81978 0.72276 0.66607 0.0
H2076 H 0.99107 0.81436 0.6408 0.0
H2077 H 0.02946 0.78961 0.66416 0.0
H2078 H 0.95552 0.78332 0.6503 0.0
H2079 H 0.99398 0.75898 0.67399 0.0
H2080 H 0.92473 0.69246 0.67179 0.0
H2081 H 0.9612 0.72493 0.66494 0.0
H2082 H 0.93287 0.76784 0.67271 0.0
H2083 H 0.89624 0.73516 0.67928 0.0
C2084 C 0.99195 0.80231 0.64796 0.0
C2085 C 1.0132 0.8045 0.65163 0.0
C2086 C 0.97156 0.78466 0.65357 0.0
C2087 C 0.97183 0.76861 0.66295 0.0
C2088 C 0.99308 0.7709 0.66671 0.0
C2089 C 1.01347 0.7886 0.66116 0.0
C2090 C 0.92645 0.70889 0.67224 0.0
C2091 C 0.90777 0.7113 0.67631 0.0
C2092 C 0.94736 0.72753 0.66837 0.0
C2093 C 0.95003 0.74906 0.66824 0.0
C2094 C 0.93138 0.7515 0.67255 0.0
C2095 C 0.91046 0.73281 0.6765 0.0
H2096 H 0.2545 0.23359 0.6277 0.0
H2097 H 0.20412 0.19015 0.65918 0.0
H2098 H 0.28368 0.22933 0.64038 0.0
H2099 H 0.23373 0.18617 0.67217 0.0
H2100 H 0.29056 0.16462 0.67711 0.0
H2101 H 0.25883 0.16914 0.66825 0.0
H2102 H 0.30499 0.24001 0.66318 0.0
H2103 H 0.33648 0.2354 0.67196 0.0
C2104 C 0.24963 0.2231 0.63736 0.0
C2105 C 0.22688 0.21209 0.64234 0.0
C2106 C 0.26646 0.22085 0.64475 0.0
C2107 C 0.26114 0.20749 0.65737 0.0
C2108 C 0.2384 0.19651 0.66245 0.0
C2109 C 0.22149 0.19893 0.65508 0.0
C2110 C 0.29374 0.18121 0.67445 0.0
C2111 C 0.31596 0.19972 0.67534 0.0
C2112 C 0.27558 0.18381 0.66935 0.0
C2113 C 0.2794 0.20491 0.66481 0.0
C2114 C 0.30148 0.22347 0.66632 0.0
C2115 C 0.31952 0.22087 0.67143 0.0
H2116 H 0.80699 0.02977 0.61797 0.0
H2117 H 0.81389 1.0008 0.65814 0.0
H2118 H 0.81557 0.06373 0.63086 0.0
H2119 H 0.82262 0.03505 0.67111 0.0
H2120 H 0.85981 0.11009 0.68501 0.0
H2121 H 0.85156 0.07515 0.67329 0.0
H2122 H 0.79739 0.07572 0.64862 0.0
H2123 H 0.80563 0.11049 0.66017 0.0
C2124 C 0.81014 0.03055 0.62959 0.0
C2125 C 0.80946 0.01239 0.63703 0.0
C2126 C 0.81508 0.05007 0.637 0.0
C2127 C 0.81953 0.05206 0.65207 0.0
C2128 C 0.81941 0.03413 0.65949 0.0
C2129 C 0.81441 0.0145 0.65205 0.0
C2130 C 0.84597 0.10264 0.67721 0.0
C2131 C 0.83342 0.1132 0.67354 0.0
C2132 C 0.84124 0.08258 0.67049 0.0
C2133 C 0.82395 0.07271 0.6599 0.0
C2134 C 0.81112 0.08305 0.65651 0.0
C2135 C 0.81579 0.103 0.66322 0.0
H2136 H 0.49563 0.35177 0.7199 0.0
H2137 H 0.4561 0.32704 0.75955 0.0
H2138 H 0.46911 0.31695 0.70758 0.0
H2139 H 0.4298 0.29244 0.74734 0.0
H2140 H 0.37309 0.2438 0.71804 0.0
H2141 H 0.40049 0.27904 0.72911 0.0
H2142 H 0.45555 0.27693 0.70663 0.0
H2143 H 0.428 0.24164 0.69535 0.0
C2144 C 0.48142 0.33886 0.72603 0.0
C2145 C 0.4779 0.34238 0.74069 0.0
C2146 C 0.4662 0.31888 0.71896 0.0
C2147 C 0.4471 0.30191 0.72639 0.0
C2148 C 0.44395 0.30529 0.74114 0.0
C2149 C 0.45909 0.32519 0.74816 0.0
C2150 C 0.39101 0.25081 0.71538 0.0
C2151 C 0.39825 0.23977 0.70576 0.0
C2152 C 0.4068 0.27103 0.72182 0.0
C2153 C 0.43033 0.28082 0.7189 0.0
C2154 C 0.43757 0.27002 0.70905 0.0
C2155 C 0.42174 0.24973 0.70259 0.0
H2156 H 0.68999 0.16392 0.7199 0.0
H2157 H 0.69481 0.1183 0.75003 0.0
H2158 H 0.72341 0.16788 0.70656 0.0
H2159 H 0.72807 0.12253 0.73704 0.0
H2160 H 0.77452 0.11718 0.70541 0.0
H2161 H 0.73829 0.11272 0.71395 0.0
H2162 H 0.76578 0.18395 0.71029 0.0
H2163 H 0.80214 0.1883 0.70157 0.0
C2164 C 0.69807 0.15466 0.72362 0.0
C2165 C 0.68977 0.14089 0.7361 0.0
C2166 C 0.7173 0.15705 0.71605 0.0
C2167 C 0.72841 0.14545 0.72067 0.0
C2168 C 0.71982 0.13148 0.73301 0.0
C2169 C 0.70085 0.12925 0.74059 0.0
C2170 C 0.77265 0.13183 0.70615 0.0
C2171 C 0.79109 0.15303 0.70275 0.0
C2172 C 0.75195 0.12932 0.71114 0.0
C2173 C 0.74919 0.14801 0.71307 0.0
C2174 C 0.76726 0.16918 0.7089 0.0
C2175 C 0.78809 0.17169 0.70387 0.0
H2176 H 0.8922 0.55877 0.74983 0.0
H2177 H 0.87299 0.5258 0.70803 0.0
H2178 H 0.88508 0.58783 0.74062 0.0
H2179 H 0.86708 0.55547 0.6986 0.0
H2180 H 0.83469 0.59907 0.69119 0.0
H2181 H 0.84161 0.56988 0.70031 0.0
H2182 H 0.90007 0.61913 0.72438 0.0
H2183 H 0.89287 0.64828 0.71548 0.0
C2184 C 0.88646 0.55768 0.73867 0.0
C2185 C 0.88317 0.53984 0.72971 0.0
C2186 C 0.88267 0.57455 0.73331 0.0
C2187 C 0.87554 0.57411 0.71882 0.0
C2188 C 0.8723 0.55629 0.70986 0.0
C2189 C 0.87601 0.53938 0.71523 0.0
C2190 C 0.84915 0.60374 0.69832 0.0
C2191 C 0.86328 0.6261 0.70252 0.0
C2192 C 0.85316 0.58695 0.70355 0.0
C2193 C 0.87142 0.59207 0.71311 0.0
C2194 C 0.88563 0.61447 0.71723 0.0
C2195 C 0.88158 0.63125 0.71204 0.0
H2196 H 0.45752 0.91944 0.18013 0.0
H2197 H 0.5101 0.97886 0.20103 0.0
H2198 H 0.47127 0.93696 0.15627 0.0
H2199 H 0.52373 0.9964 0.17728 0.0
H2200 H 0.55677 0.01529 0.13276 0.0
H2201 H 0.54303 0.99536 0.1558 0.0
H2202 H 0.4735 0.96591 0.14042 0.0
H2203 H 0.4874 0.98579 0.11721 0.0
C2204 C 0.47195 0.93629 0.17966 0.0
C2205 C 0.48271 0.94767 0.19258 0.0
C2206 C 0.47983 0.94637 0.16595 0.0
C2207 C 0.4987 0.96814 0.16474 0.0
C2208 C 0.50946 0.97947 0.17768 0.0
C2209 C 0.50162 0.96938 0.19136 0.0
C2210 C 0.53853 1.00458 0.13427 0.0
C2211 C 0.5232 1.00237 0.12313 0.0
C2212 C 0.53061 0.99317 0.14755 0.0
C2213 C 0.50708 0.97918 0.15015 0.0
C2214 C 0.49175 0.97637 0.13883 0.0
C2215 C 0.49971 0.98778 0.12548 0.0
H2216 H 0.09996 0.53828 0.17839 0.0
H2217 H 0.03962 0.53043 0.20007 0.0
H2218 H 0.08158 0.53412 0.15478 0.0
H2219 H 0.02114 0.526 0.17654 0.0
H2220 H 1.00128 0.53882 0.13183 0.0
H2221 H 0.02166 0.54549 0.15485 0.0
H2222 H 0.05162 0.50666 0.1398 0.0
H2223 H 0.0314 0.50025 0.11668 0.0
C2224 C 0.08272 0.53556 0.17812 0.0
C2225 C 0.07129 0.53472 0.19115 0.0
C2226 C 0.07215 0.53312 0.16457 0.0
C2227 C 0.04982 0.52969 0.16369 0.0
C2228 C 0.03847 0.52901 0.17673 0.0
C2229 C 0.04908 0.53153 0.19026 0.0
C2230 C 1.01217 0.53165 0.13344 0.0
C2231 C 1.01459 0.51889 0.12242 0.0
C2232 C 0.02385 0.53544 0.14667 0.0
C2233 C 0.03821 0.5265 0.14929 0.0
C2234 C 0.04096 0.51406 0.13814 0.0
C2235 C 0.02933 0.51035 0.12487 0.0
H2236 H 0.50806 0.52864 0.20032 0.0
H2237 H 0.4565 0.53803 0.17897 0.0
H2238 H 0.52201 0.52466 0.17669 0.0
H2239 H 0.47061 0.53428 0.15523 0.0
H2240 H 0.48657 0.50148 0.11634 0.0
H2241 H 0.47257 0.50761 0.13947 0.0
H2242 H 0.5419 0.54461 0.15537 0.0
H2243 H 0.55575 0.53821 0.13241 0.0
C2244 C 0.49989 0.53019 0.19057 0.0
C2245 C 0.48116 0.53371 0.19161 0.0
C2246 C 0.50791 0.52792 0.17696 0.0
C2247 C 0.49753 0.52919 0.16394 0.0
C2248 C 0.47887 0.53286 0.16498 0.0
C2249 C 0.47078 0.53506 0.17862 0.0
C2250 C 0.49882 0.51114 0.12472 0.0
C2251 C 0.52227 0.51914 0.12254 0.0
C2252 C 0.4908 0.51469 0.13801 0.0
C2253 C 0.50604 0.52642 0.14944 0.0
C2254 C 0.52956 0.53503 0.14702 0.0
C2255 C 0.53753 0.5314 0.1338 0.0
H2256 H 0.96266 0.45665 0.85332 0.0
H2257 H 0.96444 0.5193 0.86017 0.0
H2258 H 0.97926 0.45963 0.87738 0.0
H2259 H 0.98221 0.5229 0.88382 0.0
H2260 H 0.99696 0.5154 0.93095 0.0
H2261 H 0.97618 0.50885 0.9081 0.0
H2262 H 1.01471 0.48033 0.8897 0.0
H2263 H 0.03452 0.48571 0.91276 0.0
C2264 C 0.96649 0.47102 0.85996 0.0
C2265 C 0.96226 0.48777 0.8547 0.0
C2266 C 0.97631 0.47288 0.87371 0.0
C2267 C 0.98226 0.49158 0.88258 0.0
C2268 C 0.97768 0.50814 0.87742 0.0
C2269 C 0.96777 0.50623 0.86371 0.0
C2270 C 1.00073 0.50737 0.92213 0.0
C2271 C 0.01755 0.50119 0.92375 0.0
C2272 C 0.989 0.50388 0.90892 0.0
C2273 C 0.99381 0.49419 0.89694 0.0
C2274 C 1.01032 0.48763 0.89867 0.0
C2275 C 0.02196 0.49102 0.91188 0.0
H2276 H 0.52983 0.50367 0.8447 0.0
H2277 H 0.5725 0.48136 0.86518 0.0
H2278 H 0.51708 0.50834 0.86857 0.0
H2279 H 0.55989 0.48627 0.8892 0.0
H2280 H 0.51438 0.47827 0.92946 0.0
H2281 H 0.52801 0.47253 0.90602 0.0
H2282 H 0.53108 0.53242 0.88913 0.0
H2283 H 0.51725 0.53789 0.91237 0.0
C2284 C 0.53664 0.49991 0.85432 0.0
C2285 C 0.55235 0.4923 0.85297 0.0
C2286 C 0.52935 0.50264 0.86805 0.0
C2287 C 0.53763 0.49796 0.8809 0.0
C2288 C 0.55299 0.48989 0.87958 0.0
C2289 C 0.56023 0.48707 0.86579 0.0
C2290 C 0.5182 0.49031 0.92077 0.0
C2291 C 0.51446 0.5084 0.92276 0.0
C2292 C 0.52603 0.48703 0.90731 0.0
C2293 C 0.53038 0.50182 0.89554 0.0
C2294 C 0.52734 0.52031 0.89776 0.0
C2295 C 0.51947 0.52351 0.91114 0.0
H2296 H 0.51376 0.08254 0.86018 0.0
H2297 H 0.56476 0.06376 0.8516 0.0
H2298 H 0.50688 0.06514 0.88419 0.0
H2299 H 0.5577 0.04617 0.87563 0.0
H2300 H 0.5171 0.99309 0.91114 0.0
H2301 H 0.52803 0.0137 0.88817 0.0
H2302 H 0.523 0.06743 0.90833 0.0
H2303 H 0.51139 0.04641 0.9313 0.0
C2304 C 0.52379 0.07501 0.86346 0.0
C2305 C 0.53982 0.0746 0.85382 0.0
C2306 C 0.51981 0.06499 0.87729 0.0
C2307 C 0.53168 0.05417 0.88191 0.0
C2308 C 0.54797 0.05404 0.87239 0.0
C2309 C 0.552 0.06412 0.85856 0.0
C2310 C 0.51833 0.00931 0.9107 0.0
C2311 C 0.51313 0.01796 0.92307 0.0
C2312 C 0.52485 0.02127 0.89753 0.0
C2313 C 0.52633 0.04224 0.89631 0.0
C2314 C 0.52176 0.05121 0.9088 0.0
C2315 C 0.51534 0.03927 0.92202 0.0
H2316 H 0.12449 0.25203 0.51435 0.0
H2317 H 0.17635 0.31185 0.53529 0.0
H2318 H 0.13812 0.26962 0.4905 0.0
H2319 H 0.18987 0.32945 0.51154 0.0
H2320 H 0.223 0.34871 0.46705 0.0
H2321 H 0.20943 0.32872 0.49009 0.0
H2322 H 0.13987 0.29839 0.47465 0.0
H2323 H 0.15359 0.31834 0.45144 0.0
C2324 C 0.13873 0.26898 0.5139 0.0
C2325 C 0.14933 0.28045 0.52682 0.0
C2326 C 0.14655 0.2791 0.50018 0.0
C2327 C 0.16518 0.30101 0.49899 0.0
C2328 C 0.17578 0.31243 0.51193 0.0
C2329 C 0.16801 0.3023 0.52561 0.0
C2330 C 0.20479 0.3378 0.46855 0.0
C2331 C 0.1894 0.33536 0.4574 0.0
C2332 C 0.19697 0.32634 0.48182 0.0
C2333 C 0.17348 0.31209 0.48441 0.0
C2334 C 0.15809 0.30906 0.47307 0.0
C2335 C 0.16596 0.32051 0.45973 0.0
H2336 H 0.74406 0.89952 0.52327 0.0
H2337 H 0.72783 0.83071 0.52097 0.0
H2338 H 0.7258 0.89576 0.49967 0.0
H2339 H 0.70981 0.82706 0.49736 0.0
H2340 H 0.69758 0.83382 0.44912 0.0
H2341 H 0.71826 0.8395 0.472 0.0
H2342 H 0.68775 0.87684 0.48885 0.0
H2343 H 0.66767 0.87177 0.46584 0.0
C2344 C 0.73651 0.88356 0.51779 0.0
C2345 C 0.73746 0.86543 0.52409 0.0
C2346 C 0.72606 0.88141 0.50423 0.0
C2347 C 0.71633 0.8611 0.49658 0.0
C2348 C 0.71745 0.84305 0.50281 0.0
C2349 C 0.72782 0.84517 0.51638 0.0
C2350 C 0.69551 0.84349 0.45764 0.0
C2351 C 0.68088 0.85227 0.45563 0.0
C2352 C 0.70718 0.84654 0.47082 0.0
C2353 C 0.70461 0.85855 0.48232 0.0
C2354 C 0.6903 0.86767 0.48021 0.0
C2355 C 0.67857 0.86454 0.46706 0.0
H2356 H 0.17524 0.86178 0.53368 0.0
H2357 H 0.12364 0.87103 0.51226 0.0
H2358 H 0.18932 0.85791 0.51007 0.0
H2359 H 0.13789 0.86739 0.48854 0.0
H2360 H 0.15409 0.83481 0.44967 0.0
H2361 H 0.13998 0.84078 0.47279 0.0
H2362 H 0.20926 0.87795 0.48877 0.0
H2363 H 0.22322 0.87172 0.4658 0.0
C2364 C 0.16709 0.86332 0.52392 0.0
C2365 C 0.14831 0.86677 0.52493 0.0
C2366 C 0.17519 0.86111 0.51032 0.0
C2367 C 0.16483 0.86238 0.49729 0.0
C2368 C 0.14612 0.86598 0.4983 0.0
C2369 C 0.13796 0.86811 0.51192 0.0
C2370 C 0.16631 0.84447 0.45807 0.0
C2371 C 0.18978 0.85258 0.4559 0.0
C2372 C 0.15822 0.84793 0.47135 0.0
C2373 C 0.17342 0.85968 0.4828 0.0
C2374 C 0.19695 0.86836 0.48041 0.0
C2375 C 0.20499 0.86483 0.46718 0.0
H2376 H 0.59888 0.81483 0.20113 0.0
H2377 H 0.65911 0.82242 0.17946 0.0
H2378 H 0.61719 0.81883 0.22475 0.0
H2379 H 0.67752 0.82666 0.203 0.0
H2380 H 0.69687 0.81318 0.24772 0.0
H2381 H 0.67667 0.80687 0.22466 0.0
H2382 H 0.64728 0.84617 0.23976 0.0
H2383 H 0.66734 0.85226 0.26292 0.0
C2384 C 0.61608 0.81747 0.2014 0.0
C2385 C 0.6275 0.81828 0.18838 0.0
C2386 C 0.62661 0.81981 0.21496 0.0
C2387 C 0.64888 0.82309 0.21585 0.0
C2388 C 0.66022 0.82376 0.2028 0.0
C2389 C 0.64966 0.82134 0.18927 0.0
C2390 C 0.68616 0.82054 0.24611 0.0
C2391 C 0.68385 0.83334 0.25716 0.0
C2392 C 0.67458 0.81695 0.23286 0.0
C2393 C 0.66042 0.82612 0.23025 0.0
C2394 C 0.65779 0.8386 0.24142 0.0
C2395 C 0.66932 0.84212 0.25471 0.0
H2396 H 0.2375 0.8144 0.19855 0.0
H2397 H 0.19297 0.83443 0.17806 0.0
H2398 H 0.22503 0.81945 0.22256 0.0
H2399 H 0.18039 0.83928 0.20194 0.0
H2400 H 0.18105 0.86978 0.24557 0.0
H2401 H 0.19449 0.86405 0.22226 0.0
H2402 H 0.1933 0.80527 0.23958 0.0
H2403 H 0.18 0.81121 0.26307 0.0
C2404 C 0.22485 0.81962 0.19915 0.0
C2405 C 0.2164 0.82417 0.18633 0.0
C2406 C 0.21769 0.82253 0.21294 0.0
C2407 C 0.20185 0.83002 0.21426 0.0
C2408 C 0.19302 0.83403 0.20141 0.0
C2409 C 0.20021 0.83119 0.18767 0.0
C2410 C 0.18357 0.85557 0.24442 0.0
C2411 C 0.1792 0.84084 0.25619 0.0
C2412 C 0.19123 0.85223 0.231 0.0
C2413 C 0.19471 0.83399 0.22889 0.0
C2414 C 0.19097 0.81957 0.24079 0.0
C2415 C 0.18334 0.82298 0.25428 0.0
H2416 H 0.183 0.4165 0.19458 0.0
H2417 H 0.23228 0.39564 0.18561 0.0
H2418 H 0.17586 0.399 0.21856 0.0
H2419 H 0.22503 0.37801 0.20964 0.0
H2420 H 0.1839 0.32552 0.24529 0.0
H2421 H 0.19515 0.34611 0.22234 0.0
H2422 H 0.19178 0.4007 0.24257 0.0
H2423 H 0.17976 0.37968 0.2655 0.0
C2424 C 0.19261 0.40849 0.19777 0.0
C2425 C 0.20823 0.40753 0.18805 0.0
C2426 C 0.18849 0.39842 0.21159 0.0
C2427 C 0.19982 0.38702 0.21611 0.0
C2428 C 0.21571 0.38634 0.20648 0.0
C2429 C 0.21986 0.39644 0.19266 0.0
C2430 C 0.18554 0.34192 0.24487 0.0
C2431 C 0.18067 0.35081 0.25725 0.0
C2432 C 0.19226 0.35386 0.23171 0.0
C2433 C 0.1943 0.37508 0.2305 0.0
C2434 C 0.19009 0.38428 0.24301 0.0
C2435 C 0.18344 0.37234 0.25623 0.0
H2436 H 0.8458 0.60973 0.85858 0.0
H2437 H 0.78734 0.61895 0.85471 0.0
H2438 H 0.85922 0.62697 0.83464 0.0
H2439 H 0.80073 0.63615 0.83083 0.0
H2440 H 0.82073 0.65037 0.78295 0.0
H2441 H 0.80662 0.62954 0.80581 0.0
H2442 H 0.87537 0.66273 0.82286 0.0
H2443 H 0.8895 0.68278 0.79989 0.0
C2444 C 0.83585 0.61552 0.85268 0.0
C2445 C 0.81545 0.61289 0.85866 0.0
C2446 C 0.84354 0.62541 0.83891 0.0
C2447 C 0.83109 0.63301 0.83071 0.0
C2448 C 0.8106 0.63018 0.83665 0.0
C2449 C 0.80291 0.6203 0.8504 0.0
C2450 C 0.83287 0.65294 0.79148 0.0
C2451 C 0.85625 0.66842 0.78955 0.0
C2452 C 0.82475 0.64119 0.80469 0.0
C2453 C 0.83979 0.64451 0.8163 0.0
C2454 C 0.86324 0.65953 0.81418 0.0
C2455 C 0.87133 0.67127 0.80103 0.0
H2456 H 0.39499 0.16419 0.85494 0.0
H2457 H 0.41047 0.23278 0.85712 0.0
H2458 H 0.37687 0.16025 0.83133 0.0
H2459 H 0.39211 0.22873 0.83352 0.0
H2460 H 0.33394 0.20407 0.79965 0.0
H2461 H 0.35408 0.20946 0.82268 0.0
H2462 H 0.38522 0.17261 0.80598 0.0
H2463 H 0.36449 0.1666 0.78309 0.0
C2464 C 0.39479 0.17854 0.85032 0.0
C2465 C 0.40426 0.19883 0.858 0.0
C2466 C 0.38436 0.17626 0.83676 0.0
C2467 C 0.38301 0.19416 0.83049 0.0
C2468 C 0.39256 0.21449 0.83811 0.0
C2469 C 0.40307 0.2168 0.85167 0.0
C2470 C 0.34499 0.19701 0.80091 0.0
C2471 C 0.34746 0.18478 0.78952 0.0
C2472 C 0.35675 0.20032 0.81407 0.0
C2473 C 0.37126 0.19143 0.81622 0.0
C2474 C 0.37399 0.17947 0.80476 0.0
C2475 C 0.36229 0.17623 0.79157 0.0
H2476 H 0.78907 0.20328 0.84527 0.0
H2477 H 0.84045 0.19374 0.86675 0.0
H2478 H 0.80323 0.19945 0.82157 0.0
H2479 H 0.85444 0.18968 0.84315 0.0
H2480 H 0.88836 0.2032 0.79892 0.0
H2481 H 0.87445 0.20961 0.82186 0.0
H2482 H 0.80517 0.17274 0.80585 0.0
H2483 H 0.81923 0.16661 0.78275 0.0
C2484 C 0.80332 0.20025 0.84495 0.0
C2485 C 0.81363 0.19889 0.85797 0.0
C2486 C 0.81143 0.19801 0.83133 0.0
C2487 C 0.83006 0.19428 0.83035 0.0
C2488 C 0.84037 0.19298 0.84339 0.0
C2489 C 0.83232 0.1953 0.85698 0.0
C2490 C 0.87014 0.19642 0.80029 0.0
C2491 C 0.85492 0.18421 0.789 0.0
C2492 C 0.86213 0.20005 0.81349 0.0
C2493 C 0.83861 0.19149 0.81587 0.0
C2494 C 0.82341 0.17978 0.80442 0.0
C2495 C 0.83146 0.17624 0.79115 0.0
H2496 H 0.28792 0.11922 0.52352 0.0
H2497 H 0.30314 0.18773 0.52566 0.0
H2498 H 0.30623 0.12335 0.54716 0.0
H2499 H 0.32123 0.19176 0.54928 0.0
H2500 H 0.33377 0.1857 0.59749 0.0
H2501 H 0.31296 0.1795 0.57463 0.0
H2502 H 0.3442 0.14269 0.55802 0.0
H2503 H 0.3644 0.14824 0.58103 0.0
C2504 C 0.29525 0.1352 0.52897 0.0
C2505 C 0.294 0.15313 0.52263 0.0
C2506 C 0.30574 0.13755 0.54255 0.0
C2507 C 0.3152 0.15789 0.55016 0.0
C2508 C 0.3138 0.17575 0.54387 0.0
C2509 C 0.30338 0.17342 0.53029 0.0
C2510 C 0.33597 0.17603 0.58904 0.0
C2511 C 0.35085 0.16755 0.59111 0.0
C2512 C 0.32422 0.17268 0.57586 0.0
C2513 C 0.32696 0.16068 0.56443 0.0
C2514 C 0.34151 0.15185 0.56661 0.0
C2515 C 0.35331 0.15526 0.57976 0.0
H2516 H 0.85629 0.12202 0.52098 0.0
H2517 H 0.91452 0.18845 0.52513 0.0
H2518 H 0.84231 0.12585 0.54472 0.0
H2519 H 0.90062 0.19218 0.54885 0.0
H2520 H 0.87966 0.18529 0.59668 0.0
H2521 H 0.8942 0.17881 0.57391 0.0
H2522 H 0.82598 0.14626 0.55604 0.0
H2523 H 0.81139 0.15204 0.57892 0.0
C2524 C 0.86609 0.13749 0.5269 0.0
C2525 C 0.88657 0.15492 0.52104 0.0
C2526 C 0.85807 0.13967 0.54055 0.0
C2527 C 0.87031 0.15934 0.54876 0.0
C2528 C 0.89091 0.17665 0.54299 0.0
C2529 C 0.8989 0.17449 0.52933 0.0
C2530 C 0.86772 0.17646 0.58798 0.0
C2531 C 0.84435 0.16931 0.58966 0.0
C2532 C 0.87609 0.17296 0.57484 0.0
C2533 C 0.86131 0.16211 0.56305 0.0
C2534 C 0.83787 0.1545 0.56488 0.0
C2535 C 0.82953 0.15806 0.57798 0.0
H2536 H 0.84905 0.74998 0.52711 0.0
H2537 H 0.89708 0.72763 0.51788 0.0
H2538 H 0.84166 0.73235 0.55106 0.0
H2539 H 0.88958 0.70988 0.54188 0.0
H2540 H 0.84798 0.65773 0.57757 0.0
H2541 H 0.85936 0.6783 0.55461 0.0
H2542 H 0.85754 0.73359 0.575 0.0
H2543 H 0.84538 0.71261 0.59794 0.0
C2544 C 0.85833 0.74161 0.53024 0.0
C2545 C 0.87367 0.74027 0.52045 0.0
C2546 C 0.85407 0.73146 0.54404 0.0
C2547 C 0.86497 0.71961 0.54847 0.0
C2548 C 0.88059 0.71855 0.53879 0.0
C2549 C 0.88488 0.72874 0.52498 0.0
C2550 C 0.84998 0.67428 0.57718 0.0
C2551 C 0.84552 0.68338 0.58962 0.0
C2552 C 0.85677 0.6862 0.56401 0.0
C2553 C 0.8593 0.70763 0.56286 0.0
C2554 C 0.85548 0.71703 0.57541 0.0
C2555 C 0.84875 0.70509 0.58863 0.0
loop_
_geom_bond_atom_site_label_1
_geom_bond_atom_site_label_2
_geom_bond_distance
_geom_bond_site_symmetry_2
_ccdc_geom_bond_type
C0 C1 1.264 . S
C0 C5 1.479 . S
C0 C10 1.465 . S
C1 C0 1.264 . S
C1 C3 1.339 . S
C1 H28 0.931 . S
C2 C3 1.395 . S
C2 C4 1.320 . S
C3 C1 1.339 . S
C3 C2 1.395 . S
C3 H29 0.929 . S
C4 C2 1.320 . S
C4 C5 1.405 . S
C4 H30 0.930 . S
C5 C0 1.479 . S
C5 C4 1.405 . S
C5 H31 0.931 . S
U6 O7 2.454 . S
U6 O8 2.458 . S
U6 C9 2.984 . S
U6 C10 2.847 . S
U6 C23 2.882 . S
U6 O24 2.441 . S
U6 O25 2.420 . S
U6 O26 2.455 . S
U6 O27 2.449 . S
O7 U6 2.454 . S
O7 C9 1.353 . S
O8 U6 2.458 . S
O8 C9 1.286 . S
C9 U6 2.984 . S
C9 O7 1.353 . S
C9 O8 1.286 . S
C9 C11 1.363 . S
C10 C0 1.465 . S
C10 U6 2.847 . S
C10 O24 1.249 . S
C10 O25 1.202 . S
C11 C9 1.363 . S
C11 C13 1.408 . S
C11 C16 1.342 . S
C12 C13 1.310 . S
C12 C15 1.461 . S
C12 H32 0.932 . S
C13 C11 1.408 . S
C13 C12 1.310 . S
C13 H33 0.930 . S
C14 C15 1.474 . S
C14 C16 1.285 . S
C14 H34 0.929 . S
C15 C12 1.461 . S
C15 C14 1.474 . S
C16 C11 1.342 . S
C16 C14 1.285 . S
C16 H35 0.930 . S
C17 C20 1.424 . S
C17 C22 1.245 . S
C17 C23 1.428 . S
C18 C21 1.260 . S
C18 C22 1.477 . S
C18 H36 0.932 . S
C19 C20 1.384 . S
C19 C21 1.479 . S
C19 H37 0.929 . S
C20 C17 1.424 . S
C20 C19 1.384 . S
C20 H38 0.928 . S
C21 C18 1.260 . S
C21 C19 1.479 . S
C22 C17 1.245 . S
C22 C18 1.477 . S
C22 H39 0.932 . S
C23 U6 2.882 . S
C23 C17 1.428 . S
C23 O26 1.301 . S
C23 O27 1.282 . S
O24 U6 2.441 . S
O24 C10 1.249 . S
O25 U6 2.420 . S
O25 C10 1.202 . S
O26 U6 2.455 . S
O26 C23 1.301 . S
O27 U6 2.449 . S
O27 C23 1.282 . S
H28 C1 0.931 . S
H29 C3 0.929 . S
H30 C4 0.930 . S
H31 C5 0.931 . S
H32 C12 0.932 . S
H33 C13 0.930 . S
H34 C14 0.929 . S
H35 C16 0.930 . S
H36 C18 0.932 . S
H37 C19 0.929 . S
H38 C20 0.928 . S
H39 C22 0.932 . S
C40 C41 1.264 . S
C40 C45 1.479 . S
C40 C50 1.465 . S
C41 C40 1.264 . S
C41 C43 1.339 . S
C41 H68 0.931 . S
C42 C43 1.395 . S
C42 C44 1.320 . S
C43 C41 1.339 . S
C43 C42 1.395 . S
C43 H69 0.929 . S
C44 C42 1.320 . S
C44 C45 1.405 . S
C44 H70 0.930 . S
C45 C40 1.479 . S
C45 C44 1.405 . S
C45 H71 0.931 . S
U46 O47 2.454 . S
U46 O48 2.458 . S
U46 C49 2.984 . S
U46 C50 2.847 . S
U46 C63 2.882 . S
U46 O64 2.441 . S
U46 O65 2.420 . S
U46 O66 2.455 . S
U46 O67 2.449 . S
O47 U46 2.454 . S
O47 C49 1.353 . S
O48 U46 2.458 . S
O48 C49 1.286 . S
C49 U46 2.984 . S
C49 O47 1.353 . S
C49 O48 1.286 . S
C49 C51 1.363 . S
C50 C40 1.465 . S
C50 U46 2.847 . S
C50 O64 1.249 . S
C50 O65 1.202 . S
C51 C49 1.363 . S
C51 C53 1.408 . S
C51 C56 1.342 . S
C52 C53 1.310 . S
C52 C55 1.461 . S
C52 H72 0.932 . S
C53 C51 1.408 . S
C53 C52 1.310 . S
C53 H73 0.930 . S
C54 C55 1.474 . S
C54 C56 1.285 . S
C54 H74 0.929 . S
C55 C52 1.461 . S
C55 C54 1.474 . S
C56 C51 1.342 . S
C56 C54 1.285 . S
C56 H75 0.930 . S
C57 C60 1.424 . S
C57 C62 1.245 . S
C57 C63 1.428 . S
C58 C61 1.260 . S
C58 C62 1.477 . S
C58 H76 0.932 . S
C59 C60 1.384 . S
C59 C61 1.479 . S
C59 H77 0.929 . S
C60 C57 1.424 . S
C60 C59 1.384 . S
C60 H78 0.928 . S
C61 C58 1.260 . S
C61 C59 1.479 . S
C62 C57 1.245 . S
C62 C58 1.477 . S
C62 H79 0.932 . S
C63 U46 2.882 . S
C63 C57 1.428 . S
C63 O66 1.301 . S
C63 O67 1.282 . S
O64 U46 2.441 . S
O64 C50 1.249 . S
O65 U46 2.420 . S
O65 C50 1.202 . S
O66 U46 2.455 . S
O66 C63 1.301 . S
O67 U46 2.449 . S
O67 C63 1.282 . S
H68 C41 0.931 . S
H69 C43 0.929 . S
H70 C44 0.930 . S
H71 C45 0.931 . S
H72 C52 0.932 . S
H73 C53 0.930 . S
H74 C54 0.929 . S
H75 C56 0.930 . S
H76 C58 0.932 . S
H77 C59 0.929 . S
H78 C60 0.928 . S
H79 C62 0.932 . S
C80 C81 1.264 . S
C80 C85 1.479 . S
C80 C90 1.465 . S
C81 C80 1.264 . S
C81 C83 1.339 . S
C81 H108 0.931 . S
C82 C83 1.395 . S
C82 C84 1.320 . S
C83 C81 1.339 . S
C83 C82 1.395 . S
C83 H109 0.929 . S
C84 C82 1.320 . S
C84 C85 1.405 . S
C84 H110 0.930 . S
C85 C80 1.479 . S
C85 C84 1.405 . S
C85 H111 0.931 . S
U86 O87 2.454 . S
U86 O88 2.458 . S
U86 C89 2.984 . S
U86 C90 2.847 . S
U86 C103 2.882 . S
U86 O104 2.441 . S
U86 O105 2.420 . S
U86 O106 2.455 . S
U86 O107 2.449 . S
O87 U86 2.454 . S
O87 C89 1.353 . S
O88 U86 2.458 . S
O88 C89 1.286 . S
C89 U86 2.984 . S
C89 O87 1.353 . S
C89 O88 1.286 . S
C89 C91 1.363 . S
C90 C80 1.465 . S
C90 U86 2.847 . S
C90 O104 1.249 . S
C90 O105 1.202 . S
C91 C89 1.363 . S
C91 C93 1.408 . S
C91 C96 1.342 . S
C92 C93 1.310 . S
C92 C95 1.461 . S
C92 H112 0.932 . S
C93 C91 1.408 . S
C93 C92 1.310 . S
C93 H113 0.930 . S
C94 C95 1.474 . S
C94 C96 1.285 . S
C94 H114 0.929 . S
C95 C92 1.461 . S
C95 C94 1.474 . S
C96 C91 1.342 . S
C96 C94 1.285 . S
C96 H115 0.930 . S
C97 C100 1.424 . S
C97 C102 1.245 . S
C97 C103 1.428 . S
C98 C101 1.260 . S
C98 C102 1.477 . S
C98 H116 0.932 . S
C99 C100 1.384 . S
C99 C101 1.479 . S
C99 H117 0.929 . S
C100 C97 1.424 . S
C100 C99 1.384 . S
C100 H118 0.928 . S
C101 C98 1.260 . S
C101 C99 1.479 . S
C102 C97 1.245 . S
C102 C98 1.477 . S
C102 H119 0.932 . S
C103 U86 2.882 . S
C103 C97 1.428 . S
C103 O106 1.301 . S
C103 O107 1.282 . S
O104 U86 2.441 . S
O104 C90 1.249 . S
O105 U86 2.420 . S
O105 C90 1.202 . S
O106 U86 2.455 . S
O106 C103 1.301 . S
O107 U86 2.449 . S
O107 C103 1.282 . S
H108 C81 0.931 . S
H109 C83 0.929 . S
H110 C84 0.930 . S
H111 C85 0.931 . S
H112 C92 0.932 . S
H113 C93 0.930 . S
H114 C94 0.929 . S
H115 C96 0.930 . S
H116 C98 0.932 . S
H117 C99 0.929 . S
H118 C100 0.928 . S
H119 C102 0.932 . S
C120 C121 1.264 . S
C120 C125 1.479 . S
C120 C130 1.465 . S
C121 C120 1.264 . S
C121 C123 1.339 . S
C121 H148 0.931 . S
C122 C123 1.395 . S
C122 C124 1.320 . S
C123 C121 1.339 . S
C123 C122 1.395 . S
C123 H149 0.929 . S
C124 C122 1.320 . S
C124 C125 1.405 . S
C124 H150 0.930 . S
C125 C120 1.479 . S
C125 C124 1.405 . S
C125 H151 0.931 . S
U126 O127 2.454 . S
U126 O128 2.458 . S
U126 C129 2.984 . S
U126 C130 2.847 . S
U126 C143 2.882 . S
U126 O144 2.441 . S
U126 O145 2.420 . S
U126 O146 2.455 . S
U126 O147 2.449 . S
O127 U126 2.454 . S
O127 C129 1.353 . S
O128 U126 2.458 . S
O128 C129 1.286 . S
C129 U126 2.984 . S
C129 O127 1.353 . S
C129 O128 1.286 . S
C129 C131 1.363 . S
C130 C120 1.465 . S
C130 U126 2.847 . S
C130 O144 1.249 . S
C130 O145 1.202 . S
C131 C129 1.363 . S
C131 C133 1.408 . S
C131 C136 1.342 . S
C132 C133 1.310 . S
C132 C135 1.461 . S
C132 H152 0.932 . S
C133 C131 1.408 . S
C133 C132 1.310 . S
C133 H153 0.930 . S
C134 C135 1.474 . S
C134 C136 1.285 . S
C134 H154 0.929 . S
C135 C132 1.461 . S
C135 C134 1.474 . S
C136 C131 1.342 . S
C136 C134 1.285 . S
C136 H155 0.930 . S
C137 C140 1.424 . S
C137 C142 1.245 . S
C137 C143 1.428 . S
C138 C141 1.260 . S
C138 C142 1.477 . S
C138 H156 0.932 . S
C139 C140 1.384 . S
C139 C141 1.479 . S
C139 H157 0.929 . S
C140 C137 1.424 . S
C140 C139 1.384 . S
C140 H158 0.928 . S
C141 C138 1.260 . S
C141 C139 1.479 . S
C142 C137 1.245 . S
C142 C138 1.477 . S
C142 H159 0.932 . S
C143 U126 2.882 . S
C143 C137 1.428 . S
C143 O146 1.301 . S
C143 O147 1.282 . S
O144 U126 2.441 . S
O144 C130 1.249 . S
O145 U126 2.420 . S
O145 C130 1.202 . S
O146 U126 2.455 . S
O146 C143 1.301 . S
O147 U126 2.449 . S
O147 C143 1.282 . S
H148 C121 0.931 . S
H149 C123 0.929 . S
H150 C124 0.930 . S
H151 C125 0.931 . S
H152 C132 0.932 . S
H153 C133 0.930 . S
H154 C134 0.929 . S
H155 C136 0.930 . S
H156 C138 0.932 . S
H157 C139 0.929 . S
H158 C140 0.928 . S
H159 C142 0.932 . S
C160 C161 1.264 . S
C160 C165 1.479 . S
C160 C170 1.465 . S
C161 C160 1.264 . S
C161 C163 1.339 . S
C161 H188 0.931 . S
C162 C163 1.395 . S
C162 C164 1.320 . S
C163 C161 1.339 . S
C163 C162 1.395 . S
C163 H189 0.929 . S
C164 C162 1.320 . S
C164 C165 1.405 . S
C164 H190 0.930 . S
C165 C160 1.479 . S
C165 C164 1.405 . S
C165 H191 0.931 . S
U166 O167 2.454 . S
U166 O168 2.458 . S
U166 C169 2.984 . S
U166 C170 2.847 . S
U166 C183 2.882 . S
U166 O184 2.441 . S
U166 O185 2.420 . S
U166 O186 2.455 . S
U166 O187 2.449 . S
O167 U166 2.454 . S
O167 C169 1.353 . S
O168 U166 2.458 . S
O168 C169 1.286 . S
C169 U166 2.984 . S
C169 O167 1.353 . S
C169 O168 1.286 . S
C169 C171 1.363 . S
C170 C160 1.465 . S
C170 U166 2.847 . S
C170 O184 1.249 . S
C170 O185 1.202 . S
C171 C169 1.363 . S
C171 C173 1.408 . S
C171 C176 1.342 . S
C172 C173 1.310 . S
C172 C175 1.461 . S
C172 H192 0.932 . S
C173 C171 1.408 . S
C173 C172 1.310 . S
C173 H193 0.930 . S
C174 C175 1.474 . S
C174 C176 1.285 . S
C174 H194 0.929 . S
C175 C172 1.461 . S
C175 C174 1.474 . S
C176 C171 1.342 . S
C176 C174 1.285 . S
C176 H195 0.930 . S
C177 C180 1.424 . S
C177 C182 1.245 . S
C177 C183 1.428 . S
C178 C181 1.260 . S
C178 C182 1.477 . S
C178 H196 0.932 . S
C179 C180 1.384 . S
C179 C181 1.479 . S
C179 H197 0.929 . S
C180 C177 1.424 . S
C180 C179 1.384 . S
C180 H198 0.928 . S
C181 C178 1.260 . S
C181 C179 1.479 . S
C182 C177 1.245 . S
C182 C178 1.477 . S
C182 H199 0.932 . S
C183 U166 2.882 . S
C183 C177 1.428 . S
C183 O186 1.301 . S
C183 O187 1.282 . S
O184 U166 2.441 . S
O184 C170 1.249 . S
O185 U166 2.420 . S
O185 C170 1.202 . S
O186 U166 2.455 . S
O186 C183 1.301 . S
O187 U166 2.449 . S
O187 C183 1.282 . S
H188 C161 0.931 . S
H189 C163 0.929 . S
H190 C164 0.930 . S
H191 C165 0.931 . S
H192 C172 0.932 . S
H193 C173 0.930 . S
H194 C174 0.929 . S
H195 C176 0.930 . S
H196 C178 0.932 . S
H197 C179 0.929 . S
H198 C180 0.928 . S
H199 C182 0.932 . S
C200 C201 1.264 . S
C200 C205 1.479 . S
C200 C210 1.465 . S
C201 C200 1.264 . S
C201 C203 1.339 . S
C201 H228 0.931 . S
C202 C203 1.395 . S
C202 C204 1.320 . S
C203 C201 1.339 . S
C203 C202 1.395 . S
C203 H229 0.929 . S
C204 C202 1.320 . S
C204 C205 1.405 . S
C204 H230 0.930 . S
C205 C200 1.479 . S
C205 C204 1.405 . S
C205 H231 0.931 . S
U206 O207 2.454 . S
U206 O208 2.458 . S
U206 C209 2.984 . S
U206 C210 2.847 . S
U206 C223 2.882 . S
U206 O224 2.441 . S
U206 O225 2.420 . S
U206 O226 2.455 . S
U206 O227 2.449 . S
O207 U206 2.454 . S
O207 C209 1.353 . S
O208 U206 2.458 . S
O208 C209 1.286 . S
C209 U206 2.984 . S
C209 O207 1.353 . S
C209 O208 1.286 . S
C209 C211 1.363 . S
C210 C200 1.465 . S
C210 U206 2.847 . S
C210 O224 1.249 . S
C210 O225 1.202 . S
C211 C209 1.363 . S
C211 C213 1.408 . S
C211 C216 1.342 . S
C212 C213 1.310 . S
C212 C215 1.461 . S
C212 H232 0.932 . S
C213 C211 1.408 . S
C213 C212 1.310 . S
C213 H233 0.930 . S
C214 C215 1.474 . S
C214 C216 1.285 . S
C214 H234 0.929 . S
C215 C212 1.461 . S
C215 C214 1.474 . S
C216 C211 1.342 . S
C216 C214 1.285 . S
C216 H235 0.930 . S
C217 C220 1.424 . S
C217 C222 1.245 . S
C217 C223 1.428 . S
C218 C221 1.260 . S
C218 C222 1.477 . S
C218 H236 0.932 . S
C219 C220 1.384 . S
C219 C221 1.479 . S
C219 H237 0.929 . S
C220 C217 1.424 . S
C220 C219 1.384 . S
C220 H238 0.928 . S
C221 C218 1.260 . S
C221 C219 1.479 . S
C222 C217 1.245 . S
C222 C218 1.477 . S
C222 H239 0.932 . S
C223 U206 2.882 . S
C223 C217 1.428 . S
C223 O226 1.301 . S
C223 O227 1.282 . S
O224 U206 2.441 . S
O224 C210 1.249 . S
O225 U206 2.420 . S
O225 C210 1.202 . S
O226 U206 2.455 . S
O226 C223 1.301 . S
O227 U206 2.449 . S
O227 C223 1.282 . S
H228 C201 0.931 . S
H229 C203 0.929 . S
H230 C204 0.930 . S
H231 C205 0.931 . S
H232 C212 0.932 . S
H233 C213 0.930 . S
H234 C214 0.929 . S
H235 C216 0.930 . S
H236 C218 0.932 . S
H237 C219 0.929 . S
H238 C220 0.928 . S
H239 C222 0.932 . S
C240 C241 1.264 . S
C240 C245 1.479 . S
C240 C250 1.465 . S
C241 C240 1.264 . S
C241 C243 1.339 . S
C241 H268 0.931 . S
C242 C243 1.395 . S
C242 C244 1.320 . S
C243 C241 1.339 . S
C243 C242 1.395 . S
C243 H269 0.929 . S
C244 C242 1.320 . S
C244 C245 1.405 . S
C244 H270 0.930 . S
C245 C240 1.479 . S
C245 C244 1.405 . S
C245 H271 0.931 . S
U246 O247 2.454 . S
U246 O248 2.458 . S
U246 C249 2.984 . S
U246 C250 2.847 . S
U246 C263 2.882 . S
U246 O264 2.441 . S
U246 O265 2.420 . S
U246 O266 2.455 . S
U246 O267 2.449 . S
O247 U246 2.454 . S
O247 C249 1.353 . S
O248 U246 2.458 . S
O248 C249 1.286 . S
C249 U246 2.984 . S
C249 O247 1.353 . S
C249 O248 1.286 . S
C249 C251 1.363 . S
C250 C240 1.465 . S
C250 U246 2.847 . S
C250 O264 1.249 . S
C250 O265 1.202 . S
C251 C249 1.363 . S
C251 C253 1.408 . S
C251 C256 1.342 . S
C252 C253 1.310 . S
C252 C255 1.461 . S
C252 H272 0.932 . S
C253 C251 1.408 . S
C253 C252 1.310 . S
C253 H273 0.930 . S
C254 C255 1.474 . S
C254 C256 1.285 . S
C254 H274 0.929 . S
C255 C252 1.461 . S
C255 C254 1.474 . S
C256 C251 1.342 . S
C256 C254 1.285 . S
C256 H275 0.930 . S
C257 C260 1.424 . S
C257 C262 1.245 . S
C257 C263 1.428 . S
C258 C261 1.260 . S
C258 C262 1.477 . S
C258 H276 0.932 . S
C259 C260 1.384 . S
C259 C261 1.479 . S
C259 H277 0.929 . S
C260 C257 1.424 . S
C260 C259 1.384 . S
C260 H278 0.928 . S
C261 C258 1.260 . S
C261 C259 1.479 . S
C262 C257 1.245 . S
C262 C258 1.477 . S
C262 H279 0.932 . S
C263 U246 2.882 . S
C263 C257 1.428 . S
C263 O266 1.301 . S
C263 O267 1.282 . S
O264 U246 2.441 . S
O264 C250 1.249 . S
O265 U246 2.420 . S
O265 C250 1.202 . S
O266 U246 2.455 . S
O266 C263 1.301 . S
O267 U246 2.449 . S
O267 C263 1.282 . S
H268 C241 0.931 . S
H269 C243 0.929 . S
H270 C244 0.930 . S
H271 C245 0.931 . S
H272 C252 0.932 . S
H273 C253 0.930 . S
H274 C254 0.929 . S
H275 C256 0.930 . S
H276 C258 0.932 . S
H277 C259 0.929 . S
H278 C260 0.928 . S
H279 C262 0.932 . S
C280 C281 1.264 . S
C280 C285 1.479 . S
C280 C290 1.465 . S
C281 C280 1.264 . S
C281 C283 1.339 . S
C281 H308 0.931 . S
C282 C283 1.395 . S
C282 C284 1.320 . S
C283 C281 1.339 . S
C283 C282 1.395 . S
C283 H309 0.929 . S
C284 C282 1.320 . S
C284 C285 1.405 . S
C284 H310 0.930 . S
C285 C280 1.479 . S
C285 C284 1.405 . S
C285 H311 0.931 . S
U286 O287 2.454 . S
U286 O288 2.458 . S
U286 C289 2.984 . S
U286 C290 2.847 . S
U286 C303 2.882 . S
U286 O304 2.441 . S
U286 O305 2.420 . S
U286 O306 2.455 . S
U286 O307 2.449 . S
O287 U286 2.454 . S
O287 C289 1.353 . S
O288 U286 2.458 . S
O288 C289 1.286 . S
C289 U286 2.984 . S
C289 O287 1.353 . S
C289 O288 1.286 . S
C289 C291 1.363 . S
C290 C280 1.465 . S
C290 U286 2.847 . S
C290 O304 1.249 . S
C290 O305 1.202 . S
C291 C289 1.363 . S
C291 C293 1.408 . S
C291 C296 1.342 . S
C292 C293 1.310 . S
C292 C295 1.461 . S
C292 H312 0.932 . S
C293 C291 1.408 . S
C293 C292 1.310 . S
C293 H313 0.930 . S
C294 C295 1.474 . S
C294 C296 1.285 . S
C294 H314 0.929 . S
C295 C292 1.461 . S
C295 C294 1.474 . S
C296 C291 1.342 . S
C296 C294 1.285 . S
C296 H315 0.930 . S
C297 C300 1.424 . S
C297 C302 1.245 . S
C297 C303 1.428 . S
C298 C301 1.260 . S
C298 C302 1.477 . S
C298 H316 0.932 . S
C299 C300 1.384 . S
C299 C301 1.479 . S
C299 H317 0.929 . S
C300 C297 1.424 . S
C300 C299 1.384 . S
C300 H318 0.928 . S
C301 C298 1.260 . S
C301 C299 1.479 . S
C302 C297 1.245 . S
C302 C298 1.477 . S
C302 H319 0.932 . S
C303 U286 2.882 . S
C303 C297 1.428 . S
C303 O306 1.301 . S
C303 O307 1.282 . S
O304 U286 2.441 . S
O304 C290 1.249 . S
O305 U286 2.420 . S
O305 C290 1.202 . S
O306 U286 2.455 . S
O306 C303 1.301 . S
O307 U286 2.449 . S
O307 C303 1.282 . S
H308 C281 0.931 . S
H309 C283 0.929 . S
H310 C284 0.930 . S
H311 C285 0.931 . S
H312 C292 0.932 . S
H313 C293 0.930 . S
H314 C294 0.929 . S
H315 C296 0.930 . S
H316 C298 0.932 . S
H317 C299 0.929 . S
H318 C300 0.928 . S
H319 C302 0.932 . S
C320 C321 1.264 . S
C320 C325 1.479 . S
C320 C330 1.465 . S
C321 C320 1.264 . S
C321 C323 1.339 . S
C321 H348 0.931 . S
C322 C323 1.395 . S
C322 C324 1.320 . S
C323 C321 1.339 . S
C323 C322 1.395 . S
C323 H349 0.929 . S
C324 C322 1.320 . S
C324 C325 1.405 . S
C324 H350 0.930 . S
C325 C320 1.479 . S
C325 C324 1.405 . S
C325 H351 0.931 . S
U326 O327 2.454 . S
U326 O328 2.458 . S
U326 C329 2.984 . S
U326 C330 2.847 . S
U326 C343 2.882 . S
U326 O344 2.441 . S
U326 O345 2.420 . S
U326 O346 2.455 . S
U326 O347 2.449 . S
O327 U326 2.454 . S
O327 C329 1.353 . S
O328 U326 2.458 . S
O328 C329 1.286 . S
C329 U326 2.984 . S
C329 O327 1.353 . S
C329 O328 1.286 . S
C329 C331 1.363 . S
C330 C320 1.465 . S
C330 U326 2.847 . S
C330 O344 1.249 . S
C330 O345 1.202 . S
C331 C329 1.363 . S
C331 C333 1.408 . S
C331 C336 1.342 . S
C332 C333 1.310 . S
C332 C335 1.461 . S
C332 H352 0.932 . S
C333 C331 1.408 . S
C333 C332 1.310 . S
C333 H353 0.930 . S
C334 C335 1.474 . S
C334 C336 1.285 . S
C334 H354 0.929 . S
C335 C332 1.461 . S
C335 C334 1.474 . S
C336 C331 1.342 . S
C336 C334 1.285 . S
C336 H355 0.930 . S
C337 C340 1.424 . S
C337 C342 1.245 . S
C337 C343 1.428 . S
C338 C341 1.260 . S
C338 C342 1.477 . S
C338 H356 0.932 . S
C339 C340 1.384 . S
C339 C341 1.479 . S
C339 H357 0.929 . S
C340 C337 1.424 . S
C340 C339 1.384 . S
C340 H358 0.928 . S
C341 C338 1.260 . S
C341 C339 1.479 . S
C342 C337 1.245 . S
C342 C338 1.477 . S
C342 H359 0.932 . S
C343 U326 2.882 . S
C343 C337 1.428 . S
C343 O346 1.301 . S
C343 O347 1.282 . S
O344 U326 2.441 . S
O344 C330 1.249 . S
O345 U326 2.420 . S
O345 C330 1.202 . S
O346 U326 2.455 . S
O346 C343 1.301 . S
O347 U326 2.449 . S
O347 C343 1.282 . S
H348 C321 0.931 . S
H349 C323 0.929 . S
H350 C324 0.930 . S
H351 C325 0.931 . S
H352 C332 0.932 . S
H353 C333 0.930 . S
H354 C334 0.929 . S
H355 C336 0.930 . S
H356 C338 0.932 . S
H357 C339 0.929 . S
H358 C340 0.928 . S
H359 C342 0.932 . S
C360 C361 1.264 . S
C360 C365 1.479 . S
C360 C370 1.465 . S
C361 C360 1.264 . S
C361 C363 1.339 . S
C361 H388 0.931 . S
C362 C363 1.395 . S
C362 C364 1.320 . S
C363 C361 1.339 . S
C363 C362 1.395 . S
C363 H389 0.929 . S
C364 C362 1.320 . S
C364 C365 1.405 . S
C364 H390 0.930 . S
C365 C360 1.479 . S
C365 C364 1.405 . S
C365 H391 0.931 . S
U366 O367 2.454 . S
U366 O368 2.458 . S
U366 C369 2.984 . S
U366 C370 2.847 . S
U366 C383 2.882 . S
U366 O384 2.441 . S
U366 O385 2.420 . S
U366 O386 2.455 . S
U366 O387 2.449 . S
O367 U366 2.454 . S
O367 C369 1.353 . S
O368 U366 2.458 . S
O368 C369 1.286 . S
C369 U366 2.984 . S
C369 O367 1.353 . S
C369 O368 1.286 . S
C369 C371 1.363 . S
C370 C360 1.465 . S
C370 U366 2.847 . S
C370 O384 1.249 . S
C370 O385 1.202 . S
C371 C369 1.363 . S
C371 C373 1.408 . S
C371 C376 1.342 . S
C372 C373 1.310 . S
C372 C375 1.461 . S
C372 H392 0.932 . S
C373 C371 1.408 . S
C373 C372 1.310 . S
C373 H393 0.930 . S
C374 C375 1.474 . S
C374 C376 1.285 . S
C374 H394 0.929 . S
C375 C372 1.461 . S
C375 C374 1.474 . S
C376 C371 1.342 . S
C376 C374 1.285 . S
C376 H395 0.930 . S
C377 C380 1.424 . S
C377 C382 1.245 . S
C377 C383 1.428 . S
C378 C381 1.260 . S
C378 C382 1.477 . S
C378 H396 0.932 . S
C379 C380 1.384 . S
C379 C381 1.479 . S
C379 H397 0.929 . S
C380 C377 1.424 . S
C380 C379 1.384 . S
C380 H398 0.928 . S
C381 C378 1.260 . S
C381 C379 1.479 . S
C382 C377 1.245 . S
C382 C378 1.477 . S
C382 H399 0.932 . S
C383 U366 2.882 . S
C383 C377 1.428 . S
C383 O386 1.301 . S
C383 O387 1.282 . S
O384 U366 2.441 . S
O384 C370 1.249 . S
O385 U366 2.420 . S
O385 C370 1.202 . S
O386 U366 2.455 . S
O386 C383 1.301 . S
O387 U366 2.449 . S
O387 C383 1.282 . S
H388 C361 0.931 . S
H389 C363 0.929 . S
H390 C364 0.930 . S
H391 C365 0.931 . S
H392 C372 0.932 . S
H393 C373 0.930 . S
H394 C374 0.929 . S
H395 C376 0.930 . S
H396 C378 0.932 . S
H397 C379 0.929 . S
H398 C380 0.928 . S
H399 C382 0.932 . S
C400 C401 1.264 . S
C400 C405 1.479 . S
C400 C410 1.465 . S
C401 C400 1.264 . S
C401 C403 1.339 . S
C401 H428 0.931 . S
C402 C403 1.395 . S
C402 C404 1.320 . S
C403 C401 1.339 . S
C403 C402 1.395 . S
C403 H429 0.929 . S
C404 C402 1.320 . S
C404 C405 1.405 . S
C404 H430 0.930 . S
C405 C400 1.479 . S
C405 C404 1.405 . S
C405 H431 0.931 . S
U406 O407 2.454 . S
U406 O408 2.458 . S
U406 C409 2.984 . S
U406 C410 2.847 . S
U406 C423 2.882 . S
U406 O424 2.441 . S
U406 O425 2.420 . S
U406 O426 2.455 . S
U406 O427 2.449 . S
O407 U406 2.454 . S
O407 C409 1.353 . S
O408 U406 2.458 . S
O408 C409 1.286 . S
C409 U406 2.984 . S
C409 O407 1.353 . S
C409 O408 1.286 . S
C409 C411 1.363 . S
C410 C400 1.465 . S
C410 U406 2.847 . S
C410 O424 1.249 . S
C410 O425 1.202 . S
C411 C409 1.363 . S
C411 C413 1.408 . S
C411 C416 1.342 . S
C412 C413 1.310 . S
C412 C415 1.461 . S
C412 H432 0.932 . S
C413 C411 1.408 . S
C413 C412 1.310 . S
C413 H433 0.930 . S
C414 C415 1.474 . S
C414 C416 1.285 . S
C414 H434 0.929 . S
C415 C412 1.461 . S
C415 C414 1.474 . S
C416 C411 1.342 . S
C416 C414 1.285 . S
C416 H435 0.930 . S
C417 C420 1.424 . S
C417 C422 1.245 . S
C417 C423 1.428 . S
C418 C421 1.260 . S
C418 C422 1.477 . S
C418 H436 0.932 . S
C419 C420 1.384 . S
C419 C421 1.479 . S
C419 H437 0.929 . S
C420 C417 1.424 . S
C420 C419 1.384 . S
C420 H438 0.928 . S
C421 C418 1.260 . S
C421 C419 1.479 . S
C422 C417 1.245 . S
C422 C418 1.477 . S
C422 H439 0.932 . S
C423 U406 2.882 . S
C423 C417 1.428 . S
C423 O426 1.301 . S
C423 O427 1.282 . S
O424 U406 2.441 . S
O424 C410 1.249 . S
O425 U406 2.420 . S
O425 C410 1.202 . S
O426 U406 2.455 . S
O426 C423 1.301 . S
O427 U406 2.449 . S
O427 C423 1.282 . S
H428 C401 0.931 . S
H429 C403 0.929 . S
H430 C404 0.930 . S
H431 C405 0.931 . S
H432 C412 0.932 . S
H433 C413 0.930 . S
H434 C414 0.929 . S
H435 C416 0.930 . S
H436 C418 0.932 . S
H437 C419 0.929 . S
H438 C420 0.928 . S
H439 C422 0.932 . S
C440 C441 1.264 . S
C440 C445 1.479 . S
C440 C450 1.465 . S
C441 C440 1.264 . S
C441 C443 1.339 . S
C441 H468 0.931 . S
C442 C443 1.395 . S
C442 C444 1.320 . S
C443 C441 1.339 . S
C443 C442 1.395 . S
C443 H469 0.929 . S
C444 C442 1.320 . S
C444 C445 1.405 . S
C444 H470 0.930 . S
C445 C440 1.479 . S
C445 C444 1.405 . S
C445 H471 0.931 . S
U446 O447 2.454 . S
U446 O448 2.458 . S
U446 C449 2.984 . S
U446 C450 2.847 . S
U446 C463 2.882 . S
U446 O464 2.441 . S
U446 O465 2.420 . S
U446 O466 2.455 . S
U446 O467 2.449 . S
O447 U446 2.454 . S
O447 C449 1.353 . S
O448 U446 2.458 . S
O448 C449 1.286 . S
C449 U446 2.984 . S
C449 O447 1.353 . S
C449 O448 1.286 . S
C449 C451 1.363 . S
C450 C440 1.465 . S
C450 U446 2.847 . S
C450 O464 1.249 . S
C450 O465 1.202 . S
C451 C449 1.363 . S
C451 C453 1.408 . S
C451 C456 1.342 . S
C452 C453 1.310 . S
C452 C455 1.461 . S
C452 H472 0.932 . S
C453 C451 1.408 . S
C453 C452 1.310 . S
C453 H473 0.930 . S
C454 C455 1.474 . S
C454 C456 1.285 . S
C454 H474 0.929 . S
C455 C452 1.461 . S
C455 C454 1.474 . S
C456 C451 1.342 . S
C456 C454 1.285 . S
C456 H475 0.930 . S
C457 C460 1.424 . S
C457 C462 1.245 . S
C457 C463 1.428 . S
C458 C461 1.260 . S
C458 C462 1.477 . S
C458 H476 0.932 . S
C459 C460 1.384 . S
C459 C461 1.479 . S
C459 H477 0.929 . S
C460 C457 1.424 . S
C460 C459 1.384 . S
C460 H478 0.928 . S
C461 C458 1.260 . S
C461 C459 1.479 . S
C462 C457 1.245 . S
C462 C458 1.477 . S
C462 H479 0.932 . S
C463 U446 2.882 . S
C463 C457 1.428 . S
C463 O466 1.301 . S
C463 O467 1.282 . S
O464 U446 2.441 . S
O464 C450 1.249 . S
O465 U446 2.420 . S
O465 C450 1.202 . S
O466 U446 2.455 . S
O466 C463 1.301 . S
O467 U446 2.449 . S
O467 C463 1.282 . S
H468 C441 0.931 . S
H469 C443 0.929 . S
H470 C444 0.930 . S
H471 C445 0.931 . S
H472 C452 0.932 . S
H473 C453 0.930 . S
H474 C454 0.929 . S
H475 C456 0.930 . S
H476 C458 0.932 . S
H477 C459 0.929 . S
H478 C460 0.928 . S
H479 C462 0.932 . S
C480 C481 1.264 . S
C480 C485 1.479 . S
C480 C490 1.465 . S
C481 C480 1.264 . S
C481 C483 1.339 . S
C481 H508 0.931 . S
C482 C483 1.395 . S
C482 C484 1.320 . S
C483 C481 1.339 . S
C483 C482 1.395 . S
C483 H509 0.929 . S
C484 C482 1.320 . S
C484 C485 1.405 . S
C484 H510 0.930 . S
C485 C480 1.479 . S
C485 C484 1.405 . S
C485 H511 0.931 . S
U486 O487 2.454 . S
U486 O488 2.458 . S
U486 C489 2.984 . S
U486 C490 2.847 . S
U486 C503 2.882 . S
U486 O504 2.441 . S
U486 O505 2.420 . S
U486 O506 2.455 . S
U486 O507 2.449 . S
O487 U486 2.454 . S
O487 C489 1.353 . S
O488 U486 2.458 . S
O488 C489 1.286 . S
C489 U486 2.984 . S
C489 O487 1.353 . S
C489 O488 1.286 . S
C489 C491 1.363 . S
C490 C480 1.465 . S
C490 U486 2.847 . S
C490 O504 1.249 . S
C490 O505 1.202 . S
C491 C489 1.363 . S
C491 C493 1.408 . S
C491 C496 1.342 . S
C492 C493 1.310 . S
C492 C495 1.461 . S
C492 H512 0.932 . S
C493 C491 1.408 . S
C493 C492 1.310 . S
C493 H513 0.930 . S
C494 C495 1.474 . S
C494 C496 1.285 . S
C494 H514 0.929 . S
C495 C492 1.461 . S
C495 C494 1.474 . S
C496 C491 1.342 . S
C496 C494 1.285 . S
C496 H515 0.930 . S
C497 C500 1.424 . S
C497 C502 1.245 . S
C497 C503 1.428 . S
C498 C501 1.260 . S
C498 C502 1.477 . S
C498 H516 0.932 . S
C499 C500 1.384 . S
C499 C501 1.479 . S
C499 H517 0.929 . S
C500 C497 1.424 . S
C500 C499 1.384 . S
C500 H518 0.928 . S
C501 C498 1.260 . S
C501 C499 1.479 . S
C502 C497 1.245 . S
C502 C498 1.477 . S
C502 H519 0.932 . S
C503 U486 2.882 . S
C503 C497 1.428 . S
C503 O506 1.301 . S
C503 O507 1.282 . S
O504 U486 2.441 . S
O504 C490 1.249 . S
O505 U486 2.420 . S
O505 C490 1.202 . S
O506 U486 2.455 . S
O506 C503 1.301 . S
O507 U486 2.449 . S
O507 C503 1.282 . S
H508 C481 0.931 . S
H509 C483 0.929 . S
H510 C484 0.930 . S
H511 C485 0.931 . S
H512 C492 0.932 . S
H513 C493 0.930 . S
H514 C494 0.929 . S
H515 C496 0.930 . S
H516 C498 0.932 . S
H517 C499 0.929 . S
H518 C500 0.928 . S
H519 C502 0.932 . S
C520 C521 1.264 . S
C520 C525 1.479 . S
C520 C530 1.465 . S
C521 C520 1.264 . S
C521 C523 1.339 . S
C521 H548 0.931 . S
C522 C523 1.395 . S
C522 C524 1.320 . S
C523 C521 1.339 . S
C523 C522 1.395 . S
C523 H549 0.929 . S
C524 C522 1.320 . S
C524 C525 1.405 . S
C524 H550 0.930 . S
C525 C520 1.479 . S
C525 C524 1.405 . S
C525 H551 0.931 . S
U526 O527 2.454 . S
U526 O528 2.458 . S
U526 C529 2.984 . S
U526 C530 2.847 . S
U526 C543 2.882 . S
U526 O544 2.441 . S
U526 O545 2.420 . S
U526 O546 2.455 . S
U526 O547 2.449 . S
O527 U526 2.454 . S
O527 C529 1.353 . S
O528 U526 2.458 . S
O528 C529 1.286 . S
C529 U526 2.984 . S
C529 O527 1.353 . S
C529 O528 1.286 . S
C529 C531 1.363 . S
C530 C520 1.465 . S
C530 U526 2.847 . S
C530 O544 1.249 . S
C530 O545 1.202 . S
C531 C529 1.363 . S
C531 C533 1.408 . S
C531 C536 1.342 . S
C532 C533 1.310 . S
C532 C535 1.461 . S
C532 H552 0.932 . S
C533 C531 1.408 . S
C533 C532 1.310 . S
C533 H553 0.930 . S
C534 C535 1.474 . S
C534 C536 1.285 . S
C534 H554 0.929 . S
C535 C532 1.461 . S
C535 C534 1.474 . S
C536 C531 1.342 . S
C536 C534 1.285 . S
C536 H555 0.930 . S
C537 C540 1.424 . S
C537 C542 1.245 . S
C537 C543 1.428 . S
C538 C541 1.260 . S
C538 C542 1.477 . S
C538 H556 0.932 . S
C539 C540 1.384 . S
C539 C541 1.479 . S
C539 H557 0.929 . S
C540 C537 1.424 . S
C540 C539 1.384 . S
C540 H558 0.928 . S
C541 C538 1.260 . S
C541 C539 1.479 . S
C542 C537 1.245 . S
C542 C538 1.477 . S
C542 H559 0.932 . S
C543 U526 2.882 . S
C543 C537 1.428 . S
C543 O546 1.301 . S
C543 O547 1.282 . S
O544 U526 2.441 . S
O544 C530 1.249 . S
O545 U526 2.420 . S
O545 C530 1.202 . S
O546 U526 2.455 . S
O546 C543 1.301 . S
O547 U526 2.449 . S
O547 C543 1.282 . S
H548 C521 0.931 . S
H549 C523 0.929 . S
H550 C524 0.930 . S
H551 C525 0.931 . S
H552 C532 0.932 . S
H553 C533 0.930 . S
H554 C534 0.929 . S
H555 C536 0.930 . S
H556 C538 0.932 . S
H557 C539 0.929 . S
H558 C540 0.928 . S
H559 C542 0.932 . S
C560 C561 1.264 . S
C560 C565 1.479 . S
C560 C570 1.465 . S
C561 C560 1.264 . S
C561 C563 1.339 . S
C561 H588 0.931 . S
C562 C563 1.395 . S
C562 C564 1.320 . S
C563 C561 1.339 . S
C563 C562 1.395 . S
C563 H589 0.929 . S
C564 C562 1.320 . S
C564 C565 1.405 . S
C564 H590 0.930 . S
C565 C560 1.479 . S
C565 C564 1.405 . S
C565 H591 0.931 . S
U566 O567 2.454 . S
U566 O568 2.458 . S
U566 C569 2.984 . S
U566 C570 2.847 . S
U566 C583 2.882 . S
U566 O584 2.441 . S
U566 O585 2.420 . S
U566 O586 2.455 . S
U566 O587 2.449 . S
O567 U566 2.454 . S
O567 C569 1.353 . S
O568 U566 2.458 . S
O568 C569 1.286 . S
C569 U566 2.984 . S
C569 O567 1.353 . S
C569 O568 1.286 . S
C569 C571 1.363 . S
C570 C560 1.465 . S
C570 U566 2.847 . S
C570 O584 1.249 . S
C570 O585 1.202 . S
C571 C569 1.363 . S
C571 C573 1.408 . S
C571 C576 1.342 . S
C572 C573 1.310 . S
C572 C575 1.461 . S
C572 H592 0.932 . S
C573 C571 1.408 . S
C573 C572 1.310 . S
C573 H593 0.930 . S
C574 C575 1.474 . S
C574 C576 1.285 . S
C574 H594 0.929 . S
C575 C572 1.461 . S
C575 C574 1.474 . S
C576 C571 1.342 . S
C576 C574 1.285 . S
C576 H595 0.930 . S
C577 C580 1.424 . S
C577 C582 1.245 . S
C577 C583 1.428 . S
C578 C581 1.260 . S
C578 C582 1.477 . S
C578 H596 0.932 . S
C579 C580 1.384 . S
C579 C581 1.479 . S
C579 H597 0.929 . S
C580 C577 1.424 . S
C580 C579 1.384 . S
C580 H598 0.928 . S
C581 C578 1.260 . S
C581 C579 1.479 . S
C582 C577 1.245 . S
C582 C578 1.477 . S
C582 H599 0.932 . S
C583 U566 2.882 . S
C583 C577 1.428 . S
C583 O586 1.301 . S
C583 O587 1.282 . S
O584 U566 2.441 . S
O584 C570 1.249 . S
O585 U566 2.420 . S
O585 C570 1.202 . S
O586 U566 2.455 . S
O586 C583 1.301 . S
O587 U566 2.449 . S
O587 C583 1.282 . S
H588 C561 0.931 . S
H589 C563 0.929 . S
H590 C564 0.930 . S
H591 C565 0.931 . S
H592 C572 0.932 . S
H593 C573 0.930 . S
H594 C574 0.929 . S
H595 C576 0.930 . S
H596 C578 0.932 . S
H597 C579 0.929 . S
H598 C580 0.928 . S
H599 C582 0.932 . S
C600 C601 1.264 . S
C600 C605 1.479 . S
C600 C610 1.465 . S
C601 C600 1.264 . S
C601 C603 1.339 . S
C601 H628 0.931 . S
C602 C603 1.395 . S
C602 C604 1.320 . S
C603 C601 1.339 . S
C603 C602 1.395 . S
C603 H629 0.929 . S
C604 C602 1.320 . S
C604 C605 1.405 . S
C604 H630 0.930 . S
C605 C600 1.479 . S
C605 C604 1.405 . S
C605 H631 0.931 . S
U606 O607 2.454 . S
U606 O608 2.458 . S
U606 C609 2.984 . S
U606 C610 2.847 . S
U606 C623 2.882 . S
U606 O624 2.441 . S
U606 O625 2.420 . S
U606 O626 2.455 . S
U606 O627 2.449 . S
O607 U606 2.454 . S
O607 C609 1.353 . S
O608 U606 2.458 . S
O608 C609 1.286 . S
C609 U606 2.984 . S
C609 O607 1.353 . S
C609 O608 1.286 . S
C609 C611 1.363 . S
C610 C600 1.465 . S
C610 U606 2.847 . S
C610 O624 1.249 . S
C610 O625 1.202 . S
C611 C609 1.363 . S
C611 C613 1.408 . S
C611 C616 1.342 . S
C612 C613 1.310 . S
C612 C615 1.461 . S
C612 H632 0.932 . S
C613 C611 1.408 . S
C613 C612 1.310 . S
C613 H633 0.930 . S
C614 C615 1.474 . S
C614 C616 1.285 . S
C614 H634 0.929 . S
C615 C612 1.461 . S
C615 C614 1.474 . S
C616 C611 1.342 . S
C616 C614 1.285 . S
C616 H635 0.930 . S
C617 C620 1.424 . S
C617 C622 1.245 . S
C617 C623 1.428 . S
C618 C621 1.260 . S
C618 C622 1.477 . S
C618 H636 0.932 . S
C619 C620 1.384 . S
C619 C621 1.479 . S
C619 H637 0.929 . S
C620 C617 1.424 . S
C620 C619 1.384 . S
C620 H638 0.928 . S
C621 C618 1.260 . S
C621 C619 1.479 . S
C622 C617 1.245 . S
C622 C618 1.477 . S
C622 H639 0.932 . S
C623 U606 2.882 . S
C623 C617 1.428 . S
C623 O626 1.301 . S
C623 O627 1.282 . S
O624 U606 2.441 . S
O624 C610 1.249 . S
O625 U606 2.420 . S
O625 C610 1.202 . S
O626 U606 2.455 . S
O626 C623 1.301 . S
O627 U606 2.449 . S
O627 C623 1.282 . S
H628 C601 0.931 . S
H629 C603 0.929 . S
H630 C604 0.930 . S
H631 C605 0.931 . S
H632 C612 0.932 . S
H633 C613 0.930 . S
H634 C614 0.929 . S
H635 C616 0.930 . S
H636 C618 0.932 . S
H637 C619 0.929 . S
H638 C620 0.928 . S
H639 C622 0.932 . S
C640 C641 1.264 . S
C640 C645 1.479 . S
C640 C650 1.465 . S
C641 C640 1.264 . S
C641 C643 1.339 . S
C641 H668 0.931 . S
C642 C643 1.395 . S
C642 C644 1.320 . S
C643 C641 1.339 . S
C643 C642 1.395 . S
C643 H669 0.929 . S
C644 C642 1.320 . S
C644 C645 1.405 . S
C644 H670 0.930 . S
C645 C640 1.479 . S
C645 C644 1.405 . S
C645 H671 0.931 . S
U646 O647 2.454 . S
U646 O648 2.458 . S
U646 C649 2.984 . S
U646 C650 2.847 . S
U646 C663 2.882 . S
U646 O664 2.441 . S
U646 O665 2.420 . S
U646 O666 2.455 . S
U646 O667 2.449 . S
O647 U646 2.454 . S
O647 C649 1.353 . S
O648 U646 2.458 . S
O648 C649 1.286 . S
C649 U646 2.984 . S
C649 O647 1.353 . S
C649 O648 1.286 . S
C649 C651 1.363 . S
C650 C640 1.465 . S
C650 U646 2.847 . S
C650 O664 1.249 . S
C650 O665 1.202 . S
C651 C649 1.363 . S
C651 C653 1.408 . S
C651 C656 1.342 . S
C652 C653 1.310 . S
C652 C655 1.461 . S
C652 H672 0.932 . S
C653 C651 1.408 . S
C653 C652 1.310 . S
C653 H673 0.930 . S
C654 C655 1.474 . S
C654 C656 1.285 . S
C654 H674 0.929 . S
C655 C652 1.461 . S
C655 C654 1.474 . S
C656 C651 1.342 . S
C656 C654 1.285 . S
C656 H675 0.930 . S
C657 C660 1.424 . S
C657 C662 1.245 . S
C657 C663 1.428 . S
C658 C661 1.260 . S
C658 C662 1.477 . S
C658 H676 0.932 . S
C659 C660 1.384 . S
C659 C661 1.479 . S
C659 H677 0.929 . S
C660 C657 1.424 . S
C660 C659 1.384 . S
C660 H678 0.928 . S
C661 C658 1.260 . S
C661 C659 1.479 . S
C662 C657 1.245 . S
C662 C658 1.477 . S
C662 H679 0.932 . S
C663 U646 2.882 . S
C663 C657 1.428 . S
C663 O666 1.301 . S
C663 O667 1.282 . S
O664 U646 2.441 . S
O664 C650 1.249 . S
O665 U646 2.420 . S
O665 C650 1.202 . S
O666 U646 2.455 . S
O666 C663 1.301 . S
O667 U646 2.449 . S
O667 C663 1.282 . S
H668 C641 0.931 . S
H669 C643 0.929 . S
H670 C644 0.930 . S
H671 C645 0.931 . S
H672 C652 0.932 . S
H673 C653 0.930 . S
H674 C654 0.929 . S
H675 C656 0.930 . S
H676 C658 0.932 . S
H677 C659 0.929 . S
H678 C660 0.928 . S
H679 C662 0.932 . S
C680 C681 1.264 . S
C680 C685 1.479 . S
C680 C690 1.465 . S
C681 C680 1.264 . S
C681 C683 1.339 . S
C681 H708 0.931 . S
C682 C683 1.395 . S
C682 C684 1.320 . S
C683 C681 1.339 . S
C683 C682 1.395 . S
C683 H709 0.929 . S
C684 C682 1.320 . S
C684 C685 1.405 . S
C684 H710 0.930 . S
C685 C680 1.479 . S
C685 C684 1.405 . S
C685 H711 0.931 . S
U686 O687 2.454 . S
U686 O688 2.458 . S
U686 C689 2.984 . S
U686 C690 2.847 . S
U686 C703 2.882 . S
U686 O704 2.441 . S
U686 O705 2.420 . S
U686 O706 2.455 . S
U686 O707 2.449 . S
O687 U686 2.454 . S
O687 C689 1.353 . S
O688 U686 2.458 . S
O688 C689 1.286 . S
C689 U686 2.984 . S
C689 O687 1.353 . S
C689 O688 1.286 . S
C689 C691 1.363 . S
C690 C680 1.465 . S
C690 U686 2.847 . S
C690 O704 1.249 . S
C690 O705 1.202 . S
C691 C689 1.363 . S
C691 C693 1.408 . S
C691 C696 1.342 . S
C692 C693 1.310 . S
C692 C695 1.461 . S
C692 H712 0.932 . S
C693 C691 1.408 . S
C693 C692 1.310 . S
C693 H713 0.930 . S
C694 C695 1.474 . S
C694 C696 1.285 . S
C694 H714 0.929 . S
C695 C692 1.461 . S
C695 C694 1.474 . S
C696 C691 1.342 . S
C696 C694 1.285 . S
C696 H715 0.930 . S
C697 C700 1.424 . S
C697 C702 1.245 . S
C697 C703 1.428 . S
C698 C701 1.260 . S
C698 C702 1.477 . S
C698 H716 0.932 . S
C699 C700 1.384 . S
C699 C701 1.479 . S
C699 H717 0.929 . S
C700 C697 1.424 . S
C700 C699 1.384 . S
C700 H718 0.928 . S
C701 C698 1.260 . S
C701 C699 1.479 . S
C702 C697 1.245 . S
C702 C698 1.477 . S
C702 H719 0.932 . S
C703 U686 2.882 . S
C703 C697 1.428 . S
C703 O706 1.301 . S
C703 O707 1.282 . S
O704 U686 2.441 . S
O704 C690 1.249 . S
O705 U686 2.420 . S
O705 C690 1.202 . S
O706 U686 2.455 . S
O706 C703 1.301 . S
O707 U686 2.449 . S
O707 C703 1.282 . S
H708 C681 0.931 . S
H709 C683 0.929 . S
H710 C684 0.930 . S
H711 C685 0.931 . S
H712 C692 0.932 . S
H713 C693 0.930 . S
H714 C694 0.929 . S
H715 C696 0.930 . S
H716 C698 0.932 . S
H717 C699 0.929 . S
H718 C700 0.928 . S
H719 C702 0.932 . S
Gd720 N751 2.661 . S
Gd720 N757 2.601 . S
Gd720 O764 2.545 . S
Gd720 O765 2.606 1_545 S
Gd720 O767 2.429 . S
Gd720 O768 2.545 1_545 S
Gd720 O769 2.412 . S
Gd720 O771 2.358 . S
Gd720 O772 2.324 1_545 S
Gd720 C779 2.828 . S
Gd721 N730 2.661 . S
Gd721 N734 2.601 . S
Gd721 O765 2.362 1_556 S
Gd721 O766 2.324 1_565 S
Gd721 O770 2.545 . S
Gd721 O771 2.608 1_566 S
Gd721 O773 2.429 . S
Gd721 O774 2.545 1_565 S
Gd721 O775 2.412 . S
Gd721 C788 2.828 . S
C722 C725 1.417 . S
C722 C727 1.431 . S
C722 C728 1.412 . S
C723 C726 1.437 . S
C723 C727 1.317 . S
C723 H742 0.929 . S
C724 C725 1.426 . S
C724 C726 1.413 . S
C724 N734 1.359 . S
C725 C722 1.417 . S
C725 C724 1.426 . S
C725 N730 1.350 . S
C726 C723 1.437 . S
C726 C724 1.413 . S
C726 C736 1.391 . S
C727 C722 1.431 . S
C727 C723 1.317 . S
C727 H738 0.930 . S
C728 C722 1.412 . S
C728 C729 1.355 . S
C728 H740 0.930 . S
C729 C728 1.355 . S
C729 C731 1.402 . S
C729 H741 0.930 . S
N730 Gd721 2.661 . S
N730 C725 1.350 . S
N730 C731 1.307 . S
C731 C729 1.402 . S
C731 N730 1.307 . S
C731 H732 0.930 . S
H732 C731 0.930 . S
C733 N734 1.334 . S
C733 C735 1.394 . S
C733 H737 0.930 . S
N734 Gd721 2.601 . S
N734 C724 1.359 . S
N734 C733 1.334 . S
C735 C733 1.394 . S
C735 C736 1.359 . S
C735 H747 0.930 . S
C736 C726 1.391 . S
C736 C735 1.359 . S
C736 H748 0.929 . S
H737 C733 0.930 . S
H738 C727 0.930 . S
H739 C756 0.930 . S
H740 C728 0.930 . S
H741 C729 0.930 . S
H742 C723 0.929 . S
H743 C761 0.930 . S
H744 C752 0.930 . S
H745 C753 0.930 . S
H746 C777 0.929 . S
H747 C735 0.930 . S
H748 C736 0.929 . S
H749 C778 0.930 . S
H750 C759 0.930 . S
N751 Gd720 2.661 . S
N751 C755 1.350 . S
N751 C756 1.307 . S
C752 H744 0.930 . S
C752 C753 1.355 . S
C752 C754 1.412 . S
C753 H745 0.930 . S
C753 C752 1.355 . S
C753 C756 1.402 . S
C754 C752 1.412 . S
C754 C755 1.417 . S
C754 C778 1.431 . S
C755 N751 1.350 . S
C755 C754 1.417 . S
C755 C758 1.426 . S
C756 H739 0.930 . S
C756 N751 1.307 . S
C756 C753 1.402 . S
N757 Gd720 2.601 . S
N757 C758 1.359 . S
N757 C761 1.334 . S
C758 C755 1.426 . S
C758 N757 1.359 . S
C758 C762 1.413 . S
C759 H750 0.930 . S
C759 C760 1.359 . S
C759 C761 1.394 . S
C760 C759 1.359 . S
C760 C762 1.391 . S
C760 H763 0.929 . S
C761 H743 0.930 . S
C761 N757 1.334 . S
C761 C759 1.394 . S
C762 C758 1.413 . S
C762 C760 1.391 . S
C762 C777 1.437 . S
H763 C760 0.929 . S
O764 Gd720 2.545 . S
O764 C779 1.258 . S
O765 Gd720 2.606 1_565 S
O765 Gd721 2.362 1_554 S
O765 C776 1.284 . S
O766 Gd721 2.324 1_545 S
O766 C786 1.254 . S
O767 Gd720 2.429 . S
O767 C786 1.268 1_554 S
O768 Gd720 2.545 1_565 S
O768 C776 1.250 . S
O769 Gd720 2.412 . S
O769 C779 1.252 . S
O770 Gd721 2.545 . S
O770 C788 1.258 . S
O771 Gd720 2.358 . S
O771 Gd721 2.608 1_544 S
O771 C787 1.288 1_554 S
O772 Gd720 2.324 1_565 S
O772 C795 1.254 . S
O773 Gd721 2.429 . S
O773 C795 1.268 1_556 S
O774 Gd721 2.545 1_545 S
O774 C787 1.250 . S
O775 Gd721 2.412 . S
O775 C788 1.252 . S
C776 O765 1.284 . S
C776 O768 1.250 . S
C777 H746 0.929 . S
C777 C762 1.437 . S
C777 C778 1.317 . S
C778 H749 0.930 . S
C778 C754 1.431 . S
C778 C777 1.317 . S
C779 Gd720 2.828 . S
C779 O764 1.258 . S
C779 O769 1.252 . S
C779 C780 1.497 . S
C780 C779 1.497 . S
C780 C781 1.395 . S
C780 C782 1.380 1_545 S
C781 C780 1.395 . S
C781 C784 1.398 . S
C781 H796 0.930 . S
C782 C780 1.380 1_565 S
C782 C783 1.391 . S
C782 H797 0.930 . S
C783 C782 1.391 . S
C783 C785 1.387 1_565 S
C784 C781 1.398 . S
C784 C785 1.380 . S
C784 H798 0.930 . S
C785 C783 1.387 1_545 S
C785 C784 1.380 . S
C785 H799 0.930 . S
C786 O766 1.254 . S
C786 O767 1.268 1_556 S
C787 O771 1.288 1_556 S
C787 O774 1.250 . S
C788 Gd721 2.828 . S
C788 O770 1.258 . S
C788 O775 1.252 . S
C788 C789 1.497 . S
C789 C788 1.497 . S
C789 C790 1.395 . S
C789 C791 1.380 1_565 S
C790 C789 1.395 . S
C790 C793 1.398 . S
C790 H800 0.930 . S
C791 C789 1.380 1_545 S
C791 C792 1.391 . S
C791 H801 0.930 . S
C792 C791 1.391 . S
C792 C794 1.387 1_545 S
C793 C790 1.398 . S
C793 C794 1.380 . S
C793 H802 0.930 . S
C794 C792 1.387 1_565 S
C794 C793 1.380 . S
C794 H803 0.932 . S
C795 O772 1.254 . S
C795 O773 1.268 1_554 S
H796 C781 0.930 . S
H797 C782 0.930 . S
H798 C784 0.930 . S
H799 C785 0.930 . S
H800 C790 0.930 . S
H801 C791 0.930 . S
H802 C793 0.930 . S
H803 C794 0.932 . S
Gd804 N835 2.661 . S
Gd804 N841 2.601 . S
Gd804 O848 2.545 . S
Gd804 O849 2.606 1_655 S
Gd804 O851 2.429 . S
Gd804 O852 2.545 1_655 S
Gd804 O853 2.412 . S
Gd804 O855 2.365 1_554 S
Gd804 O856 2.324 1_655 S
Gd804 C863 2.828 . S
Gd805 N814 2.661 . S
Gd805 N818 2.601 . S
Gd805 O849 2.362 1_556 S
Gd805 O850 2.324 1_455 S
Gd805 O854 2.545 . S
Gd805 O855 2.604 1_455 S
Gd805 O857 2.453 . S
Gd805 O858 2.545 1_455 S
Gd805 O859 2.412 . S
Gd805 C872 2.828 . S
C806 C809 1.417 . S
C806 C811 1.431 . S
C806 C812 1.412 . S
C807 C810 1.437 . S
C807 C811 1.317 . S
C807 H826 0.929 . S
C808 C809 1.426 . S
C808 C810 1.413 . S
C808 N818 1.359 . S
C809 C806 1.417 . S
C809 C808 1.426 . S
C809 N814 1.350 . S
C810 C807 1.437 . S
C810 C808 1.413 . S
C810 C820 1.391 . S
C811 C806 1.431 . S
C811 C807 1.317 . S
C811 H822 0.930 . S
C812 C806 1.412 . S
C812 C813 1.355 . S
C812 H824 0.930 . S
C813 C812 1.355 . S
C813 C815 1.402 . S
C813 H825 0.930 . S
N814 Gd805 2.661 . S
N814 C809 1.350 . S
N814 C815 1.307 . S
C815 C813 1.402 . S
C815 N814 1.307 . S
C815 H816 0.930 . S
H816 C815 0.930 . S
C817 N818 1.334 . S
C817 C819 1.394 . S
C817 H821 0.930 . S
N818 Gd805 2.601 . S
N818 C808 1.359 . S
N818 C817 1.334 . S
C819 C817 1.394 . S
C819 C820 1.359 . S
C819 H831 0.930 . S
C820 C810 1.391 . S
C820 C819 1.359 . S
C820 H832 0.929 . S
H821 C817 0.930 . S
H822 C811 0.930 . S
H823 C840 0.930 . S
H824 C812 0.930 . S
H825 C813 0.930 . S
H826 C807 0.929 . S
H827 C845 0.930 . S
H828 C836 0.930 . S
H829 C837 0.930 . S
H830 C861 0.929 . S
H831 C819 0.930 . S
H832 C820 0.929 . S
H833 C862 0.930 . S
H834 C843 0.930 . S
N835 Gd804 2.661 . S
N835 C839 1.350 . S
N835 C840 1.307 . S
C836 H828 0.930 . S
C836 C837 1.355 . S
C836 C838 1.412 . S
C837 H829 0.930 . S
C837 C836 1.355 . S
C837 C840 1.402 . S
C838 C836 1.412 . S
C838 C839 1.417 . S
C838 C862 1.431 . S
C839 N835 1.350 . S
C839 C838 1.417 . S
C839 C842 1.426 . S
C840 H823 0.930 . S
C840 N835 1.307 . S
C840 C837 1.402 . S
N841 Gd804 2.601 . S
N841 C842 1.359 . S
N841 C845 1.334 . S
C842 C839 1.426 . S
C842 N841 1.359 . S
C842 C846 1.413 . S
C843 H834 0.930 . S
C843 C844 1.359 . S
C843 C845 1.394 . S
C844 C843 1.359 . S
C844 C846 1.391 . S
C844 H847 0.929 . S
C845 H827 0.930 . S
C845 N841 1.334 . S
C845 C843 1.394 . S
C846 C842 1.413 . S
C846 C844 1.391 . S
C846 C861 1.437 . S
H847 C844 0.929 . S
O848 Gd804 2.545 . S
O848 C863 1.258 . S
O849 Gd804 2.606 1_455 S
O849 Gd805 2.362 1_554 S
O849 C860 1.284 . S
O850 Gd805 2.324 1_655 S
O850 C870 1.254 . S
O851 Gd804 2.429 . S
O851 C870 1.268 1_554 S
O852 Gd804 2.545 1_455 S
O852 C860 1.250 . S
O853 Gd804 2.412 . S
O853 C863 1.252 . S
O854 Gd805 2.545 . S
O854 C872 1.258 . S
O855 Gd804 2.365 1_556 S
O855 Gd805 2.604 1_655 S
O855 C871 1.282 . S
O856 Gd804 2.324 1_455 S
O856 C879 1.254 . S
O857 Gd805 2.453 . S
O857 C879 1.225 1_556 S
O858 Gd805 2.545 1_655 S
O858 C871 1.250 . S
O859 Gd805 2.412 . S
O859 C872 1.252 . S
C860 O849 1.284 . S
C860 O852 1.250 . S
C861 H830 0.929 . S
C861 C846 1.437 . S
C861 C862 1.317 . S
C862 H833 0.930 . S
C862 C838 1.431 . S
C862 C861 1.317 . S
C863 Gd804 2.828 . S
C863 O848 1.258 . S
C863 O853 1.252 . S
C863 C864 1.497 . S
C864 C863 1.497 . S
C864 C865 1.395 . S
C864 C866 1.380 1_655 S
C865 C864 1.395 . S
C865 C868 1.398 . S
C865 H880 0.930 . S
C866 C864 1.380 1_455 S
C866 C867 1.391 . S
C866 H881 0.930 . S
C867 C866 1.391 . S
C867 C869 1.387 1_455 S
C868 C865 1.398 . S
C868 C869 1.380 . S
C868 H882 0.930 . S
C869 C867 1.387 1_655 S
C869 C868 1.380 . S
C869 H883 0.930 . S
C870 O850 1.254 . S
C870 O851 1.268 1_556 S
C871 O855 1.282 . S
C871 O858 1.250 . S
C872 Gd805 2.828 . S
C872 O854 1.258 . S
C872 O859 1.252 . S
C872 C873 1.497 . S
C873 C872 1.497 . S
C873 C874 1.395 . S
C873 C875 1.380 1_455 S
C874 C873 1.395 . S
C874 C877 1.398 . S
C874 H884 0.930 . S
C875 C873 1.380 1_655 S
C875 C876 1.391 . S
C875 H885 0.930 . S
C876 C875 1.391 . S
C876 C878 1.387 1_655 S
C877 C874 1.398 . S
C877 C878 1.380 . S
C877 H886 0.930 . S
C878 C876 1.387 1_455 S
C878 C877 1.380 . S
C878 H887 0.930 . S
C879 O856 1.254 . S
C879 O857 1.225 1_554 S
H880 C865 0.930 . S
H881 C866 0.930 . S
H882 C868 0.930 . S
H883 C869 0.930 . S
H884 C874 0.930 . S
H885 C875 0.930 . S
H886 C877 0.930 . S
H887 C878 0.930 . S
Gd888 N919 2.661 . S
Gd888 N925 2.601 . S
Gd888 O932 2.545 . S
Gd888 O933 2.627 . S
Gd888 O935 2.429 . S
Gd888 O936 2.545 . S
Gd888 O937 2.412 . S
Gd888 O939 2.362 1_556 S
Gd888 O940 2.324 . S
Gd888 C947 2.828 . S
Gd889 N898 2.661 . S
Gd889 N902 2.601 . S
Gd889 O933 2.326 1_554 S
Gd889 O934 2.324 . S
Gd889 O938 2.545 . S
Gd889 O939 2.606 . S
Gd889 O941 2.429 . S
Gd889 O942 2.545 . S
Gd889 O943 2.412 . S
Gd889 C956 2.828 . S
C890 C893 1.417 . S
C890 C895 1.431 . S
C890 C896 1.412 . S
C891 C894 1.437 . S
C891 C895 1.317 . S
C891 H910 0.929 . S
C892 C893 1.426 . S
C892 C894 1.413 . S
C892 N902 1.359 . S
C893 C890 1.417 . S
C893 C892 1.426 . S
C893 N898 1.350 . S
C894 C891 1.437 . S
C894 C892 1.413 . S
C894 C904 1.391 . S
C895 C890 1.431 . S
C895 C891 1.317 . S
C895 H906 0.930 . S
C896 C890 1.412 . S
C896 C897 1.355 . S
C896 H908 0.930 . S
C897 C896 1.355 . S
C897 C899 1.402 . S
C897 H909 0.930 . S
N898 Gd889 2.661 . S
N898 C893 1.350 . S
N898 C899 1.307 . S
C899 C897 1.402 . S
C899 N898 1.307 . S
C899 H900 0.930 . S
H900 C899 0.930 . S
C901 N902 1.334 . S
C901 C903 1.394 . S
C901 H905 0.930 . S
N902 Gd889 2.601 . S
N902 C892 1.359 . S
N902 C901 1.334 . S
C903 C901 1.394 . S
C903 C904 1.359 . S
C903 H915 0.930 . S
C904 C894 1.391 . S
C904 C903 1.359 . S
C904 H916 0.929 . S
H905 C901 0.930 . S
H906 C895 0.930 . S
H907 C924 0.930 . S
H908 C896 0.930 . S
H909 C897 0.930 . S
H910 C891 0.929 . S
H911 C929 0.930 . S
H912 C920 0.930 . S
H913 C921 0.930 . S
H914 C945 0.929 . S
H915 C903 0.930 . S
H916 C904 0.929 . S
H917 C946 0.930 . S
H918 C927 0.930 . S
N919 Gd888 2.661 . S
N919 C923 1.350 . S
N919 C924 1.307 . S
C920 H912 0.930 . S
C920 C921 1.355 . S
C920 C922 1.412 . S
C921 H913 0.930 . S
C921 C920 1.355 . S
C921 C924 1.402 . S
C922 C920 1.412 . S
C922 C923 1.417 . S
C922 C946 1.431 . S
C923 N919 1.350 . S
C923 C922 1.417 . S
C923 C926 1.426 . S
C924 H907 0.930 . S
C924 N919 1.307 . S
C924 C921 1.402 . S
N925 Gd888 2.601 . S
N925 C926 1.359 . S
N925 C929 1.334 . S
C926 C923 1.426 . S
C926 N925 1.359 . S
C926 C930 1.413 . S
C927 H918 0.930 . S
C927 C928 1.359 . S
C927 C929 1.394 . S
C928 C927 1.359 . S
C928 C930 1.391 . S
C928 H931 0.929 . S
C929 H911 0.930 . S
C929 N925 1.334 . S
C929 C927 1.394 . S
C930 C926 1.413 . S
C930 C928 1.391 . S
C930 C945 1.437 . S
H931 C928 0.929 . S
O932 Gd888 2.545 . S
O932 C947 1.258 . S
O933 Gd888 2.627 . S
O933 Gd889 2.326 1_556 S
O933 C944 1.314 . S
O934 Gd889 2.324 . S
O934 C954 1.254 . S
O935 Gd888 2.429 . S
O935 C954 1.268 1_556 S
O936 Gd888 2.545 . S
O936 C944 1.250 . S
O937 Gd888 2.412 . S
O937 C947 1.252 . S
O938 Gd889 2.545 . S
O938 C956 1.258 . S
O939 Gd888 2.362 1_554 S
O939 Gd889 2.606 . S
O939 C955 1.284 . S
O940 Gd888 2.324 . S
O940 C963 1.254 . S
O941 Gd889 2.429 . S
O941 C963 1.268 1_554 S
O942 Gd889 2.545 . S
O942 C955 1.250 . S
O943 Gd889 2.412 . S
O943 C956 1.252 . S
C944 O933 1.314 . S
C944 O936 1.250 . S
C945 H914 0.929 . S
C945 C930 1.437 . S
C945 C946 1.317 . S
C946 H917 0.930 . S
C946 C922 1.431 . S
C946 C945 1.317 . S
C947 Gd888 2.828 . S
C947 O932 1.258 . S
C947 O937 1.252 . S
C947 C948 1.497 . S
C948 C947 1.497 . S
C948 C949 1.395 . S
C948 C950 1.380 . S
C949 C948 1.395 . S
C949 C952 1.398 . S
C949 H964 0.930 . S
C950 C948 1.380 . S
C950 C951 1.391 . S
C950 H965 0.930 . S
C951 C950 1.391 . S
C951 C953 1.387 . S
C952 C949 1.398 . S
C952 C953 1.380 . S
C952 H966 0.930 . S
C953 C951 1.387 . S
C953 C952 1.380 . S
C953 H967 0.930 . S
C954 O934 1.254 . S
C954 O935 1.268 1_554 S
C955 O939 1.284 . S
C955 O942 1.250 . S
C956 Gd889 2.828 . S
C956 O938 1.258 . S
C956 O943 1.252 . S
C956 C957 1.497 . S
C957 C956 1.497 . S
C957 C958 1.395 . S
C957 C959 1.380 . S
C958 C957 1.395 . S
C958 C961 1.398 . S
C958 H968 0.930 . S
C959 C957 1.380 . S
C959 C960 1.391 . S
C959 H969 0.930 . S
C960 C959 1.391 . S
C960 C962 1.387 . S
C961 C958 1.398 . S
C961 C962 1.380 . S
C961 H970 0.930 . S
C962 C960 1.387 . S
C962 C961 1.380 . S
C962 H971 0.930 . S
C963 O940 1.254 . S
C963 O941 1.268 1_556 S
H964 C949 0.930 . S
H965 C950 0.930 . S
H966 C952 0.930 . S
H967 C953 0.930 . S
H968 C958 0.930 . S
H969 C959 0.930 . S
H970 C961 0.930 . S
H971 C962 0.930 . S
Gd972 N1003 2.661 . S
Gd972 N1009 2.601 . S
Gd972 O1016 2.545 . S
Gd972 O1017 2.606 . S
Gd972 O1019 2.429 . S
Gd972 O1020 2.545 . S
Gd972 O1021 2.412 . S
Gd972 O1023 2.362 . S
Gd972 O1024 2.324 . S
Gd972 C1031 2.828 . S
Gd973 N982 2.661 . S
Gd973 N986 2.601 . S
Gd973 O1017 2.362 . S
Gd973 O1018 2.324 . S
Gd973 O1022 2.545 . S
Gd973 O1023 2.606 . S
Gd973 O1025 2.429 . S
Gd973 O1026 2.545 . S
Gd973 O1027 2.412 . S
Gd973 C1040 2.828 . S
C974 C977 1.417 . S
C974 C979 1.431 . S
C974 C980 1.412 . S
C975 C978 1.437 . S
C975 C979 1.317 . S
C975 H994 0.929 . S
C976 C977 1.426 . S
C976 C978 1.413 . S
C976 N986 1.359 . S
C977 C974 1.417 . S
C977 C976 1.426 . S
C977 N982 1.350 . S
C978 C975 1.437 . S
C978 C976 1.413 . S
C978 C988 1.391 . S
C979 C974 1.431 . S
C979 C975 1.317 . S
C979 H990 0.930 . S
C980 C974 1.412 . S
C980 C981 1.355 . S
C980 H992 0.930 . S
C981 C980 1.355 . S
C981 C983 1.402 . S
C981 H993 0.930 . S
N982 Gd973 2.661 . S
N982 C977 1.350 . S
N982 C983 1.307 . S
C983 C981 1.402 . S
C983 N982 1.307 . S
C983 H984 0.930 . S
H984 C983 0.930 . S
C985 N986 1.334 . S
C985 C987 1.394 . S
C985 H989 0.930 . S
N986 Gd973 2.601 . S
N986 C976 1.359 . S
N986 C985 1.334 . S
C987 C985 1.394 . S
C987 C988 1.359 . S
C987 H999 0.930 . S
C988 C978 1.391 . S
C988 C987 1.359 . S
C988 H1000 0.929 . S
H989 C985 0.930 . S
H990 C979 0.930 . S
H991 C1008 0.930 . S
H992 C980 0.930 . S
H993 C981 0.930 . S
H994 C975 0.929 . S
H995 C1013 0.930 . S
H996 C1004 0.930 . S
H997 C1005 0.930 . S
H998 C1029 0.929 . S
H999 C987 0.930 . S
H1000 C988 0.929 . S
H1001 C1030 0.930 . S
H1002 C1011 0.930 . S
N1003 Gd972 2.661 . S
N1003 C1007 1.350 . S
N1003 C1008 1.307 . S
C1004 H996 0.930 . S
C1004 C1005 1.355 . S
C1004 C1006 1.412 . S
C1005 H997 0.930 . S
C1005 C1004 1.355 . S
C1005 C1008 1.402 . S
C1006 C1004 1.412 . S
C1006 C1007 1.417 . S
C1006 C1030 1.431 . S
C1007 N1003 1.350 . S
C1007 C1006 1.417 . S
C1007 C1010 1.426 . S
C1008 H991 0.930 . S
C1008 N1003 1.307 . S
C1008 C1005 1.402 . S
N1009 Gd972 2.601 . S
N1009 C1010 1.359 . S
N1009 C1013 1.334 . S
C1010 C1007 1.426 . S
C1010 N1009 1.359 . S
C1010 C1014 1.413 . S
C1011 H1002 0.930 . S
C1011 C1012 1.359 . S
C1011 C1013 1.394 . S
C1012 C1011 1.359 . S
C1012 C1014 1.391 . S
C1012 H1015 0.929 . S
C1013 H995 0.930 . S
C1013 N1009 1.334 . S
C1013 C1011 1.394 . S
C1014 C1010 1.413 . S
C1014 C1012 1.391 . S
C1014 C1029 1.437 . S
H1015 C1012 0.929 . S
O1016 Gd972 2.545 . S
O1016 C1031 1.258 . S
O1017 Gd972 2.606 . S
O1017 Gd973 2.362 . S
O1017 C1028 1.284 . S
O1018 Gd973 2.324 . S
O1018 C1038 1.254 . S
O1019 Gd972 2.429 . S
O1019 C1038 1.268 . S
O1020 Gd972 2.545 . S
O1020 C1028 1.250 . S
O1021 Gd972 2.412 . S
O1021 C1031 1.252 . S
O1022 Gd973 2.545 . S
O1022 C1040 1.258 . S
O1023 Gd972 2.362 . S
O1023 Gd973 2.606 . S
O1023 C1039 1.284 . S
O1024 Gd972 2.324 . S
O1024 C1047 1.254 . S
O1025 Gd973 2.429 . S
O1025 C1047 1.268 . S
O1026 Gd973 2.545 . S
O1026 C1039 1.250 . S
O1027 Gd973 2.412 . S
O1027 C1040 1.252 . S
C1028 O1017 1.284 . S
C1028 O1020 1.250 . S
C1029 H998 0.929 . S
C1029 C1014 1.437 . S
C1029 C1030 1.317 . S
C1030 H1001 0.930 . S
C1030 C1006 1.431 . S
C1030 C1029 1.317 . S
C1031 Gd972 2.828 . S
C1031 O1016 1.258 . S
C1031 O1021 1.252 . S
C1031 C1032 1.497 . S
C1032 C1031 1.497 . S
C1032 C1033 1.395 . S
C1032 C1034 1.380 . S
C1033 C1032 1.395 . S
C1033 C1036 1.398 . S
C1033 H1048 0.930 . S
C1034 C1032 1.380 . S
C1034 C1035 1.391 . S
C1034 H1049 0.930 . S
C1035 C1034 1.391 . S
C1035 C1037 1.387 . S
C1036 C1033 1.398 . S
C1036 C1037 1.380 . S
C1036 H1050 0.930 . S
C1037 C1035 1.387 . S
C1037 C1036 1.380 . S
C1037 H1051 0.930 . S
C1038 O1018 1.254 . S
C1038 O1019 1.268 . S
C1039 O1023 1.284 . S
C1039 O1026 1.250 . S
C1040 Gd973 2.828 . S
C1040 O1022 1.258 . S
C1040 O1027 1.252 . S
C1040 C1041 1.497 . S
C1041 C1040 1.497 . S
C1041 C1042 1.395 . S
C1041 C1043 1.380 . S
C1042 C1041 1.395 . S
C1042 C1045 1.398 . S
C1042 H1052 0.930 . S
C1043 C1041 1.380 . S
C1043 C1044 1.391 . S
C1043 H1053 0.930 . S
C1044 C1043 1.391 . S
C1044 C1046 1.387 . S
C1045 C1042 1.398 . S
C1045 C1046 1.380 . S
C1045 H1054 0.930 . S
C1046 C1044 1.387 . S
C1046 C1045 1.380 . S
C1046 H1055 0.930 . S
C1047 O1024 1.254 . S
C1047 O1025 1.268 . S
H1048 C1033 0.930 . S
H1049 C1034 0.930 . S
H1050 C1036 0.930 . S
H1051 C1037 0.930 . S
H1052 C1042 0.930 . S
H1053 C1043 0.930 . S
H1054 C1045 0.930 . S
H1055 C1046 0.930 . S
Gd1056 N1087 2.661 . S
Gd1056 N1093 2.601 . S
Gd1056 O1100 2.545 . S
Gd1056 O1101 2.606 . S
Gd1056 O1103 2.429 . S
Gd1056 O1104 2.545 . S
Gd1056 O1105 2.412 . S
Gd1056 O1107 2.362 . S
Gd1056 O1108 2.324 . S
Gd1056 C1115 2.828 . S
Gd1057 N1066 2.661 . S
Gd1057 N1070 2.601 . S
Gd1057 O1101 2.362 . S
Gd1057 O1102 2.324 . S
Gd1057 O1106 2.545 . S
Gd1057 O1107 2.606 . S
Gd1057 O1109 2.429 . S
Gd1057 O1110 2.545 . S
Gd1057 O1111 2.412 . S
Gd1057 C1124 2.828 . S
C1058 C1061 1.417 . S
C1058 C1063 1.431 . S
C1058 C1064 1.412 . S
C1059 C1062 1.437 . S
C1059 C1063 1.317 . S
C1059 H1078 0.929 . S
C1060 C1061 1.426 . S
C1060 C1062 1.413 . S
C1060 N1070 1.359 . S
C1061 C1058 1.417 . S
C1061 C1060 1.426 . S
C1061 N1066 1.350 . S
C1062 C1059 1.437 . S
C1062 C1060 1.413 . S
C1062 C1072 1.391 . S
C1063 C1058 1.431 . S
C1063 C1059 1.317 . S
C1063 H1074 0.930 . S
C1064 C1058 1.412 . S
C1064 C1065 1.355 . S
C1064 H1076 0.930 . S
C1065 C1064 1.355 . S
C1065 C1067 1.402 . S
C1065 H1077 0.930 . S
N1066 Gd1057 2.661 . S
N1066 C1061 1.350 . S
N1066 C1067 1.307 . S
C1067 C1065 1.402 . S
C1067 N1066 1.307 . S
C1067 H1068 0.930 . S
H1068 C1067 0.930 . S
C1069 N1070 1.334 . S
C1069 C1071 1.394 . S
C1069 H1073 0.930 . S
N1070 Gd1057 2.601 . S
N1070 C1060 1.359 . S
N1070 C1069 1.334 . S
C1071 C1069 1.394 . S
C1071 C1072 1.359 . S
C1071 H1083 0.930 . S
C1072 C1062 1.391 . S
C1072 C1071 1.359 . S
C1072 H1084 0.929 . S
H1073 C1069 0.930 . S
H1074 C1063 0.930 . S
H1075 C1092 0.930 . S
H1076 C1064 0.930 . S
H1077 C1065 0.930 . S
H1078 C1059 0.929 . S
H1079 C1097 0.930 . S
H1080 C1088 0.930 . S
H1081 C1089 0.930 . S
H1082 C1113 0.929 . S
H1083 C1071 0.930 . S
H1084 C1072 0.929 . S
H1085 C1114 0.930 . S
H1086 C1095 0.930 . S
N1087 Gd1056 2.661 . S
N1087 C1091 1.350 . S
N1087 C1092 1.307 . S
C1088 H1080 0.930 . S
C1088 C1089 1.355 . S
C1088 C1090 1.412 . S
C1089 H1081 0.930 . S
C1089 C1088 1.355 . S
C1089 C1092 1.402 . S
C1090 C1088 1.412 . S
C1090 C1091 1.417 . S
C1090 C1114 1.431 . S
C1091 N1087 1.350 . S
C1091 C1090 1.417 . S
C1091 C1094 1.426 . S
C1092 H1075 0.930 . S
C1092 N1087 1.307 . S
C1092 C1089 1.402 . S
N1093 Gd1056 2.601 . S
N1093 C1094 1.359 . S
N1093 C1097 1.334 . S
C1094 C1091 1.426 . S
C1094 N1093 1.359 . S
C1094 C1098 1.413 . S
C1095 H1086 0.930 . S
C1095 C1096 1.359 . S
C1095 C1097 1.394 . S
C1096 C1095 1.359 . S
C1096 C1098 1.391 . S
C1096 H1099 0.929 . S
C1097 H1079 0.930 . S
C1097 N1093 1.334 . S
C1097 C1095 1.394 . S
C1098 C1094 1.413 . S
C1098 C1096 1.391 . S
C1098 C1113 1.437 . S
H1099 C1096 0.929 . S
O1100 Gd1056 2.545 . S
O1100 C1115 1.258 . S
O1101 Gd1056 2.606 . S
O1101 Gd1057 2.362 . S
O1101 C1112 1.284 . S
O1102 Gd1057 2.324 . S
O1102 C1122 1.254 . S
O1103 Gd1056 2.429 . S
O1103 C1122 1.268 . S
O1104 Gd1056 2.545 . S
O1104 C1112 1.250 . S
O1105 Gd1056 2.412 . S
O1105 C1115 1.252 . S
O1106 Gd1057 2.545 . S
O1106 C1124 1.258 . S
O1107 Gd1056 2.362 . S
O1107 Gd1057 2.606 . S
O1107 C1123 1.284 . S
O1108 Gd1056 2.324 . S
O1108 C1131 1.254 . S
O1109 Gd1057 2.429 . S
O1109 C1131 1.268 . S
O1110 Gd1057 2.545 . S
O1110 C1123 1.250 . S
O1111 Gd1057 2.412 . S
O1111 C1124 1.252 . S
C1112 O1101 1.284 . S
C1112 O1104 1.250 . S
C1113 H1082 0.929 . S
C1113 C1098 1.437 . S
C1113 C1114 1.317 . S
C1114 H1085 0.930 . S
C1114 C1090 1.431 . S
C1114 C1113 1.317 . S
C1115 Gd1056 2.828 . S
C1115 O1100 1.258 . S
C1115 O1105 1.252 . S
C1115 C1116 1.497 . S
C1116 C1115 1.497 . S
C1116 C1117 1.395 . S
C1116 C1118 1.380 . S
C1117 C1116 1.395 . S
C1117 C1120 1.398 . S
C1117 H1132 0.930 . S
C1118 C1116 1.380 . S
C1118 C1119 1.391 . S
C1118 H1133 0.930 . S
C1119 C1118 1.391 . S
C1119 C1121 1.387 . S
C1120 C1117 1.398 . S
C1120 C1121 1.380 . S
C1120 H1134 0.930 . S
C1121 C1119 1.387 . S
C1121 C1120 1.380 . S
C1121 H1135 0.930 . S
C1122 O1102 1.254 . S
C1122 O1103 1.268 . S
C1123 O1107 1.284 . S
C1123 O1110 1.250 . S
C1124 Gd1057 2.828 . S
C1124 O1106 1.258 . S
C1124 O1111 1.252 . S
C1124 C1125 1.497 . S
C1125 C1124 1.497 . S
C1125 C1126 1.395 . S
C1125 C1127 1.380 . S
C1126 C1125 1.395 . S
C1126 C1129 1.398 . S
C1126 H1136 0.930 . S
C1127 C1125 1.380 . S
C1127 C1128 1.391 . S
C1127 H1137 0.930 . S
C1128 C1127 1.391 . S
C1128 C1130 1.387 . S
C1129 C1126 1.398 . S
C1129 C1130 1.380 . S
C1129 H1138 0.930 . S
C1130 C1128 1.387 . S
C1130 C1129 1.380 . S
C1130 H1139 0.930 . S
C1131 O1108 1.254 . S
C1131 O1109 1.268 . S
H1132 C1117 0.930 . S
H1133 C1118 0.930 . S
H1134 C1120 0.930 . S
H1135 C1121 0.930 . S
H1136 C1126 0.930 . S
H1137 C1127 0.930 . S
H1138 C1129 0.930 . S
H1139 C1130 0.930 . S
Gd1140 N1171 2.661 . S
Gd1140 N1177 2.601 . S
Gd1140 O1184 2.545 . S
Gd1140 O1185 2.606 . S
Gd1140 O1187 2.429 . S
Gd1140 O1188 2.545 . S
Gd1140 O1189 2.412 . S
Gd1140 O1191 2.362 . S
Gd1140 O1192 2.324 . S
Gd1140 C1199 2.828 . S
Gd1141 N1150 2.661 . S
Gd1141 N1154 2.601 . S
Gd1141 O1185 2.362 . S
Gd1141 O1186 2.324 . S
Gd1141 O1190 2.545 . S
Gd1141 O1191 2.606 . S
Gd1141 O1193 2.429 . S
Gd1141 O1194 2.545 . S
Gd1141 O1195 2.412 . S
Gd1141 C1208 2.828 . S
C1142 C1145 1.417 . S
C1142 C1147 1.431 . S
C1142 C1148 1.412 . S
C1143 C1146 1.437 . S
C1143 C1147 1.317 . S
C1143 H1162 0.929 . S
C1144 C1145 1.426 . S
C1144 C1146 1.413 . S
C1144 N1154 1.359 . S
C1145 C1142 1.417 . S
C1145 C1144 1.426 . S
C1145 N1150 1.350 . S
C1146 C1143 1.437 . S
C1146 C1144 1.413 . S
C1146 C1156 1.391 . S
C1147 C1142 1.431 . S
C1147 C1143 1.317 . S
C1147 H1158 0.930 . S
C1148 C1142 1.412 . S
C1148 C1149 1.355 . S
C1148 H1160 0.930 . S
C1149 C1148 1.355 . S
C1149 C1151 1.402 . S
C1149 H1161 0.930 . S
N1150 Gd1141 2.661 . S
N1150 C1145 1.350 . S
N1150 C1151 1.307 . S
C1151 C1149 1.402 . S
C1151 N1150 1.307 . S
C1151 H1152 0.930 . S
H1152 C1151 0.930 . S
C1153 N1154 1.334 . S
C1153 C1155 1.394 . S
C1153 H1157 0.930 . S
N1154 Gd1141 2.601 . S
N1154 C1144 1.359 . S
N1154 C1153 1.334 . S
C1155 C1153 1.394 . S
C1155 C1156 1.359 . S
C1155 H1167 0.930 . S
C1156 C1146 1.391 . S
C1156 C1155 1.359 . S
C1156 H1168 0.929 . S
H1157 C1153 0.930 . S
H1158 C1147 0.930 . S
H1159 C1176 0.930 . S
H1160 C1148 0.930 . S
H1161 C1149 0.930 . S
H1162 C1143 0.929 . S
H1163 C1181 0.930 . S
H1164 C1172 0.930 . S
H1165 C1173 0.930 . S
H1166 C1197 0.929 . S
H1167 C1155 0.930 . S
H1168 C1156 0.929 . S
H1169 C1198 0.930 . S
H1170 C1179 0.930 . S
N1171 Gd1140 2.661 . S
N1171 C1175 1.350 . S
N1171 C1176 1.307 . S
C1172 H1164 0.930 . S
C1172 C1173 1.355 . S
C1172 C1174 1.412 . S
C1173 H1165 0.930 . S
C1173 C1172 1.355 . S
C1173 C1176 1.402 . S
C1174 C1172 1.412 . S
C1174 C1175 1.417 . S
C1174 C1198 1.431 . S
C1175 N1171 1.350 . S
C1175 C1174 1.417 . S
C1175 C1178 1.426 . S
C1176 H1159 0.930 . S
C1176 N1171 1.307 . S
C1176 C1173 1.402 . S
N1177 Gd1140 2.601 . S
N1177 C1178 1.359 . S
N1177 C1181 1.334 . S
C1178 C1175 1.426 . S
C1178 N1177 1.359 . S
C1178 C1182 1.413 . S
C1179 H1170 0.930 . S
C1179 C1180 1.359 . S
C1179 C1181 1.394 . S
C1180 C1179 1.359 . S
C1180 C1182 1.391 . S
C1180 H1183 0.929 . S
C1181 H1163 0.930 . S
C1181 N1177 1.334 . S
C1181 C1179 1.394 . S
C1182 C1178 1.413 . S
C1182 C1180 1.391 . S
C1182 C1197 1.437 . S
H1183 C1180 0.929 . S
O1184 Gd1140 2.545 . S
O1184 C1199 1.258 . S
O1185 Gd1140 2.606 . S
O1185 Gd1141 2.362 . S
O1185 C1196 1.284 . S
O1186 Gd1141 2.324 . S
O1186 C1206 1.254 . S
O1187 Gd1140 2.429 . S
O1187 C1206 1.268 . S
O1188 Gd1140 2.545 . S
O1188 C1196 1.250 . S
O1189 Gd1140 2.412 . S
O1189 C1199 1.252 . S
O1190 Gd1141 2.545 . S
O1190 C1208 1.258 . S
O1191 Gd1140 2.362 . S
O1191 Gd1141 2.606 . S
O1191 C1207 1.284 . S
O1192 Gd1140 2.324 . S
O1192 C1215 1.254 . S
O1193 Gd1141 2.429 . S
O1193 C1215 1.268 . S
O1194 Gd1141 2.545 . S
O1194 C1207 1.250 . S
O1195 Gd1141 2.412 . S
O1195 C1208 1.252 . S
C1196 O1185 1.284 . S
C1196 O1188 1.250 . S
C1197 H1166 0.929 . S
C1197 C1182 1.437 . S
C1197 C1198 1.317 . S
C1198 H1169 0.930 . S
C1198 C1174 1.431 . S
C1198 C1197 1.317 . S
C1199 Gd1140 2.828 . S
C1199 O1184 1.258 . S
C1199 O1189 1.252 . S
C1199 C1200 1.497 . S
C1200 C1199 1.497 . S
C1200 C1201 1.395 . S
C1200 C1202 1.380 . S
C1201 C1200 1.395 . S
C1201 C1204 1.398 . S
C1201 H1216 0.930 . S
C1202 C1200 1.380 . S
C1202 C1203 1.391 . S
C1202 H1217 0.930 . S
C1203 C1202 1.391 . S
C1203 C1205 1.387 . S
C1204 C1201 1.398 . S
C1204 C1205 1.380 . S
C1204 H1218 0.930 . S
C1205 C1203 1.387 . S
C1205 C1204 1.380 . S
C1205 H1219 0.930 . S
C1206 O1186 1.254 . S
C1206 O1187 1.268 . S
C1207 O1191 1.284 . S
C1207 O1194 1.250 . S
C1208 Gd1141 2.828 . S
C1208 O1190 1.258 . S
C1208 O1195 1.252 . S
C1208 C1209 1.497 . S
C1209 C1208 1.497 . S
C1209 C1210 1.395 . S
C1209 C1211 1.380 . S
C1210 C1209 1.395 . S
C1210 C1213 1.398 . S
C1210 H1220 0.930 . S
C1211 C1209 1.380 . S
C1211 C1212 1.391 . S
C1211 H1221 0.930 . S
C1212 C1211 1.391 . S
C1212 C1214 1.387 . S
C1213 C1210 1.398 . S
C1213 C1214 1.380 . S
C1213 H1222 0.930 . S
C1214 C1212 1.387 . S
C1214 C1213 1.380 . S
C1214 H1223 0.930 . S
C1215 O1192 1.254 . S
C1215 O1193 1.268 . S
H1216 C1201 0.930 . S
H1217 C1202 0.930 . S
H1218 C1204 0.930 . S
H1219 C1205 0.930 . S
H1220 C1210 0.930 . S
H1221 C1211 0.930 . S
H1222 C1213 0.930 . S
H1223 C1214 0.930 . S
Gd1224 N1255 2.661 . S
Gd1224 N1261 2.601 . S
Gd1224 O1268 2.545 . S
Gd1224 O1269 2.606 . S
Gd1224 O1271 2.429 . S
Gd1224 O1272 2.545 . S
Gd1224 O1273 2.412 . S
Gd1224 O1275 2.362 . S
Gd1224 O1276 2.324 . S
Gd1224 C1283 2.828 . S
Gd1225 N1234 2.661 . S
Gd1225 N1238 2.601 . S
Gd1225 O1269 2.362 . S
Gd1225 O1270 2.324 . S
Gd1225 O1274 2.545 . S
Gd1225 O1275 2.606 . S
Gd1225 O1277 2.429 . S
Gd1225 O1278 2.545 . S
Gd1225 O1279 2.412 . S
Gd1225 C1292 2.828 . S
C1226 C1229 1.417 . S
C1226 C1231 1.431 . S
C1226 C1232 1.412 . S
C1227 C1230 1.437 . S
C1227 C1231 1.317 . S
C1227 H1246 0.929 . S
C1228 C1229 1.426 . S
C1228 C1230 1.413 . S
C1228 N1238 1.359 . S
C1229 C1226 1.417 . S
C1229 C1228 1.426 . S
C1229 N1234 1.350 . S
C1230 C1227 1.437 . S
C1230 C1228 1.413 . S
C1230 C1240 1.391 . S
C1231 C1226 1.431 . S
C1231 C1227 1.317 . S
C1231 H1242 0.930 . S
C1232 C1226 1.412 . S
C1232 C1233 1.355 . S
C1232 H1244 0.930 . S
C1233 C1232 1.355 . S
C1233 C1235 1.402 . S
C1233 H1245 0.930 . S
N1234 Gd1225 2.661 . S
N1234 C1229 1.350 . S
N1234 C1235 1.307 . S
C1235 C1233 1.402 . S
C1235 N1234 1.307 . S
C1235 H1236 0.930 . S
H1236 C1235 0.930 . S
C1237 N1238 1.334 . S
C1237 C1239 1.394 . S
C1237 H1241 0.930 . S
N1238 Gd1225 2.601 . S
N1238 C1228 1.359 . S
N1238 C1237 1.334 . S
C1239 C1237 1.394 . S
C1239 C1240 1.359 . S
C1239 H1251 0.930 . S
C1240 C1230 1.391 . S
C1240 C1239 1.359 . S
C1240 H1252 0.929 . S
H1241 C1237 0.930 . S
H1242 C1231 0.930 . S
H1243 C1260 0.930 . S
H1244 C1232 0.930 . S
H1245 C1233 0.930 . S
H1246 C1227 0.929 . S
H1247 C1265 0.930 . S
H1248 C1256 0.930 . S
H1249 C1257 0.930 . S
H1250 C1281 0.929 . S
H1251 C1239 0.930 . S
H1252 C1240 0.929 . S
H1253 C1282 0.930 . S
H1254 C1263 0.930 . S
N1255 Gd1224 2.661 . S
N1255 C1259 1.350 . S
N1255 C1260 1.307 . S
C1256 H1248 0.930 . S
C1256 C1257 1.355 . S
C1256 C1258 1.412 . S
C1257 H1249 0.930 . S
C1257 C1256 1.355 . S
C1257 C1260 1.402 . S
C1258 C1256 1.412 . S
C1258 C1259 1.417 . S
C1258 C1282 1.431 . S
C1259 N1255 1.350 . S
C1259 C1258 1.417 . S
C1259 C1262 1.426 . S
C1260 H1243 0.930 . S
C1260 N1255 1.307 . S
C1260 C1257 1.402 . S
N1261 Gd1224 2.601 . S
N1261 C1262 1.359 . S
N1261 C1265 1.334 . S
C1262 C1259 1.426 . S
C1262 N1261 1.359 . S
C1262 C1266 1.413 . S
C1263 H1254 0.930 . S
C1263 C1264 1.359 . S
C1263 C1265 1.394 . S
C1264 C1263 1.359 . S
C1264 C1266 1.391 . S
C1264 H1267 0.929 . S
C1265 H1247 0.930 . S
C1265 N1261 1.334 . S
C1265 C1263 1.394 . S
C1266 C1262 1.413 . S
C1266 C1264 1.391 . S
C1266 C1281 1.437 . S
H1267 C1264 0.929 . S
O1268 Gd1224 2.545 . S
O1268 C1283 1.258 . S
O1269 Gd1224 2.606 . S
O1269 Gd1225 2.362 . S
O1269 C1280 1.284 . S
O1270 Gd1225 2.324 . S
O1270 C1290 1.254 . S
O1271 Gd1224 2.429 . S
O1271 C1290 1.268 . S
O1272 Gd1224 2.545 . S
O1272 C1280 1.250 . S
O1273 Gd1224 2.412 . S
O1273 C1283 1.252 . S
O1274 Gd1225 2.545 . S
O1274 C1292 1.258 . S
O1275 Gd1224 2.362 . S
O1275 Gd1225 2.606 . S
O1275 C1291 1.284 . S
O1276 Gd1224 2.324 . S
O1276 C1299 1.254 . S
O1277 Gd1225 2.429 . S
O1277 C1299 1.268 . S
O1278 Gd1225 2.545 . S
O1278 C1291 1.250 . S
O1279 Gd1225 2.412 . S
O1279 C1292 1.252 . S
C1280 O1269 1.284 . S
C1280 O1272 1.250 . S
C1281 H1250 0.929 . S
C1281 C1266 1.437 . S
C1281 C1282 1.317 . S
C1282 H1253 0.930 . S
C1282 C1258 1.431 . S
C1282 C1281 1.317 . S
C1283 Gd1224 2.828 . S
C1283 O1268 1.258 . S
C1283 O1273 1.252 . S
C1283 C1284 1.497 . S
C1284 C1283 1.497 . S
C1284 C1285 1.395 . S
C1284 C1286 1.380 . S
C1285 C1284 1.395 . S
C1285 C1288 1.398 . S
C1285 H1300 0.930 . S
C1286 C1284 1.380 . S
C1286 C1287 1.391 . S
C1286 H1301 0.930 . S
C1287 C1286 1.391 . S
C1287 C1289 1.387 . S
C1288 C1285 1.398 . S
C1288 C1289 1.380 . S
C1288 H1302 0.930 . S
C1289 C1287 1.387 . S
C1289 C1288 1.380 . S
C1289 H1303 0.930 . S
C1290 O1270 1.254 . S
C1290 O1271 1.268 . S
C1291 O1275 1.284 . S
C1291 O1278 1.250 . S
C1292 Gd1225 2.828 . S
C1292 O1274 1.258 . S
C1292 O1279 1.252 . S
C1292 C1293 1.497 . S
C1293 C1292 1.497 . S
C1293 C1294 1.395 . S
C1293 C1295 1.380 . S
C1294 C1293 1.395 . S
C1294 C1297 1.398 . S
C1294 H1304 0.930 . S
C1295 C1293 1.380 . S
C1295 C1296 1.391 . S
C1295 H1305 0.930 . S
C1296 C1295 1.391 . S
C1296 C1298 1.387 . S
C1297 C1294 1.398 . S
C1297 C1298 1.380 . S
C1297 H1306 0.930 . S
C1298 C1296 1.387 . S
C1298 C1297 1.380 . S
C1298 H1307 0.930 . S
C1299 O1276 1.254 . S
C1299 O1277 1.268 . S
H1300 C1285 0.930 . S
H1301 C1286 0.930 . S
H1302 C1288 0.930 . S
H1303 C1289 0.930 . S
H1304 C1294 0.930 . S
H1305 C1295 0.930 . S
H1306 C1297 0.930 . S
H1307 C1298 0.930 . S
Gd1308 N1339 2.661 . S
Gd1308 N1345 2.601 . S
Gd1308 O1352 2.545 . S
Gd1308 O1353 2.606 . S
Gd1308 O1355 2.429 . S
Gd1308 O1356 2.545 . S
Gd1308 O1357 2.412 . S
Gd1308 O1359 2.362 . S
Gd1308 O1360 2.324 . S
Gd1308 C1367 2.828 . S
Gd1309 N1318 2.661 . S
Gd1309 N1322 2.601 . S
Gd1309 O1353 2.362 . S
Gd1309 O1354 2.324 . S
Gd1309 O1358 2.545 . S
Gd1309 O1359 2.606 . S
Gd1309 O1361 2.429 . S
Gd1309 O1362 2.545 . S
Gd1309 O1363 2.412 . S
Gd1309 C1376 2.828 . S
C1310 C1313 1.417 . S
C1310 C1315 1.431 . S
C1310 C1316 1.412 . S
C1311 C1314 1.437 . S
C1311 C1315 1.317 . S
C1311 H1330 0.929 . S
C1312 C1313 1.426 . S
C1312 C1314 1.413 . S
C1312 N1322 1.359 . S
C1313 C1310 1.417 . S
C1313 C1312 1.426 . S
C1313 N1318 1.350 . S
C1314 C1311 1.437 . S
C1314 C1312 1.413 . S
C1314 C1324 1.391 . S
C1315 C1310 1.431 . S
C1315 C1311 1.317 . S
C1315 H1326 0.930 . S
C1316 C1310 1.412 . S
C1316 C1317 1.355 . S
C1316 H1328 0.930 . S
C1317 C1316 1.355 . S
C1317 C1319 1.402 . S
C1317 H1329 0.930 . S
N1318 Gd1309 2.661 . S
N1318 C1313 1.350 . S
N1318 C1319 1.307 . S
C1319 C1317 1.402 . S
C1319 N1318 1.307 . S
C1319 H1320 0.930 . S
H1320 C1319 0.930 . S
C1321 N1322 1.334 . S
C1321 C1323 1.394 . S
C1321 H1325 0.930 . S
N1322 Gd1309 2.601 . S
N1322 C1312 1.359 . S
N1322 C1321 1.334 . S
C1323 C1321 1.394 . S
C1323 C1324 1.359 . S
C1323 H1335 0.930 . S
C1324 C1314 1.391 . S
C1324 C1323 1.359 . S
C1324 H1336 0.929 . S
H1325 C1321 0.930 . S
H1326 C1315 0.930 . S
H1327 C1344 0.930 . S
H1328 C1316 0.930 . S
H1329 C1317 0.930 . S
H1330 C1311 0.929 . S
H1331 C1349 0.930 . S
H1332 C1340 0.930 . S
H1333 C1341 0.930 . S
H1334 C1365 0.929 . S
H1335 C1323 0.930 . S
H1336 C1324 0.929 . S
H1337 C1366 0.930 . S
H1338 C1347 0.930 . S
N1339 Gd1308 2.661 . S
N1339 C1343 1.350 . S
N1339 C1344 1.307 . S
C1340 H1332 0.930 . S
C1340 C1341 1.355 . S
C1340 C1342 1.412 . S
C1341 H1333 0.930 . S
C1341 C1340 1.355 . S
C1341 C1344 1.402 . S
C1342 C1340 1.412 . S
C1342 C1343 1.417 . S
C1342 C1366 1.431 . S
C1343 N1339 1.350 . S
C1343 C1342 1.417 . S
C1343 C1346 1.426 . S
C1344 H1327 0.930 . S
C1344 N1339 1.307 . S
C1344 C1341 1.402 . S
N1345 Gd1308 2.601 . S
N1345 C1346 1.359 . S
N1345 C1349 1.334 . S
C1346 C1343 1.426 . S
C1346 N1345 1.359 . S
C1346 C1350 1.413 . S
C1347 H1338 0.930 . S
C1347 C1348 1.359 . S
C1347 C1349 1.394 . S
C1348 C1347 1.359 . S
C1348 C1350 1.391 . S
C1348 H1351 0.929 . S
C1349 H1331 0.930 . S
C1349 N1345 1.334 . S
C1349 C1347 1.394 . S
C1350 C1346 1.413 . S
C1350 C1348 1.391 . S
C1350 C1365 1.437 . S
H1351 C1348 0.929 . S
O1352 Gd1308 2.545 . S
O1352 C1367 1.258 . S
O1353 Gd1308 2.606 . S
O1353 Gd1309 2.362 . S
O1353 C1364 1.284 . S
O1354 Gd1309 2.324 . S
O1354 C1374 1.254 . S
O1355 Gd1308 2.429 . S
O1355 C1374 1.268 . S
O1356 Gd1308 2.545 . S
O1356 C1364 1.250 . S
O1357 Gd1308 2.412 . S
O1357 C1367 1.252 . S
O1358 Gd1309 2.545 . S
O1358 C1376 1.258 . S
O1359 Gd1308 2.362 . S
O1359 Gd1309 2.606 . S
O1359 C1375 1.284 . S
O1360 Gd1308 2.324 . S
O1360 C1383 1.254 . S
O1361 Gd1309 2.429 . S
O1361 C1383 1.268 . S
O1362 Gd1309 2.545 . S
O1362 C1375 1.250 . S
O1363 Gd1309 2.412 . S
O1363 C1376 1.252 . S
C1364 O1353 1.284 . S
C1364 O1356 1.250 . S
C1365 H1334 0.929 . S
C1365 C1350 1.437 . S
C1365 C1366 1.317 . S
C1366 H1337 0.930 . S
C1366 C1342 1.431 . S
C1366 C1365 1.317 . S
C1367 Gd1308 2.828 . S
C1367 O1352 1.258 . S
C1367 O1357 1.252 . S
C1367 C1368 1.497 . S
C1368 C1367 1.497 . S
C1368 C1369 1.395 . S
C1368 C1370 1.380 . S
C1369 C1368 1.395 . S
C1369 C1372 1.398 . S
C1369 H1384 0.930 . S
C1370 C1368 1.380 . S
C1370 C1371 1.391 . S
C1370 H1385 0.930 . S
C1371 C1370 1.391 . S
C1371 C1373 1.387 . S
C1372 C1369 1.398 . S
C1372 C1373 1.380 . S
C1372 H1386 0.930 . S
C1373 C1371 1.387 . S
C1373 C1372 1.380 . S
C1373 H1387 0.930 . S
C1374 O1354 1.254 . S
C1374 O1355 1.268 . S
C1375 O1359 1.284 . S
C1375 O1362 1.250 . S
C1376 Gd1309 2.828 . S
C1376 O1358 1.258 . S
C1376 O1363 1.252 . S
C1376 C1377 1.497 . S
C1377 C1376 1.497 . S
C1377 C1378 1.395 . S
C1377 C1379 1.380 . S
C1378 C1377 1.395 . S
C1378 C1381 1.398 . S
C1378 H1388 0.930 . S
C1379 C1377 1.380 . S
C1379 C1380 1.391 . S
C1379 H1389 0.930 . S
C1380 C1379 1.391 . S
C1380 C1382 1.387 . S
C1381 C1378 1.398 . S
C1381 C1382 1.380 . S
C1381 H1390 0.930 . S
C1382 C1380 1.387 . S
C1382 C1381 1.380 . S
C1382 H1391 0.930 . S
C1383 O1360 1.254 . S
C1383 O1361 1.268 . S
H1384 C1369 0.930 . S
H1385 C1370 0.930 . S
H1386 C1372 0.930 . S
H1387 C1373 0.930 . S
H1388 C1378 0.930 . S
H1389 C1379 0.930 . S
H1390 C1381 0.930 . S
H1391 C1382 0.930 . S
Gd1392 N1423 2.661 . S
Gd1392 N1429 2.601 . S
Gd1392 O1436 2.545 . S
Gd1392 O1437 2.606 . S
Gd1392 O1439 2.429 . S
Gd1392 O1440 2.545 . S
Gd1392 O1441 2.412 . S
Gd1392 O1443 2.362 . S
Gd1392 O1444 2.324 . S
Gd1392 C1451 2.828 . S
Gd1393 N1402 2.661 . S
Gd1393 N1406 2.601 . S
Gd1393 O1437 2.362 . S
Gd1393 O1438 2.324 . S
Gd1393 O1442 2.545 . S
Gd1393 O1443 2.606 . S
Gd1393 O1445 2.429 . S
Gd1393 O1446 2.545 . S
Gd1393 O1447 2.412 . S
Gd1393 C1460 2.828 . S
C1394 C1397 1.417 . S
C1394 C1399 1.431 . S
C1394 C1400 1.412 . S
C1395 C1398 1.437 . S
C1395 C1399 1.317 . S
C1395 H1414 0.929 . S
C1396 C1397 1.426 . S
C1396 C1398 1.413 . S
C1396 N1406 1.359 . S
C1397 C1394 1.417 . S
C1397 C1396 1.426 . S
C1397 N1402 1.350 . S
C1398 C1395 1.437 . S
C1398 C1396 1.413 . S
C1398 C1408 1.391 . S
C1399 C1394 1.431 . S
C1399 C1395 1.317 . S
C1399 H1410 0.930 . S
C1400 C1394 1.412 . S
C1400 C1401 1.355 . S
C1400 H1412 0.930 . S
C1401 C1400 1.355 . S
C1401 C1403 1.402 . S
C1401 H1413 0.930 . S
N1402 Gd1393 2.661 . S
N1402 C1397 1.350 . S
N1402 C1403 1.307 . S
C1403 C1401 1.402 . S
C1403 N1402 1.307 . S
C1403 H1404 0.930 . S
H1404 C1403 0.930 . S
C1405 N1406 1.334 . S
C1405 C1407 1.394 . S
C1405 H1409 0.930 . S
N1406 Gd1393 2.601 . S
N1406 C1396 1.359 . S
N1406 C1405 1.334 . S
C1407 C1405 1.394 . S
C1407 C1408 1.359 . S
C1407 H1419 0.930 . S
C1408 C1398 1.391 . S
C1408 C1407 1.359 . S
C1408 H1420 0.929 . S
H1409 C1405 0.930 . S
H1410 C1399 0.930 . S
H1411 C1428 0.930 . S
H1412 C1400 0.930 . S
H1413 C1401 0.930 . S
H1414 C1395 0.929 . S
H1415 C1433 0.930 . S
H1416 C1424 0.930 . S
H1417 C1425 0.930 . S
H1418 C1449 0.929 . S
H1419 C1407 0.930 . S
H1420 C1408 0.929 . S
H1421 C1450 0.930 . S
H1422 C1431 0.930 . S
N1423 Gd1392 2.661 . S
N1423 C1427 1.350 . S
N1423 C1428 1.307 . S
C1424 H1416 0.930 . S
C1424 C1425 1.355 . S
C1424 C1426 1.412 . S
C1425 H1417 0.930 . S
C1425 C1424 1.355 . S
C1425 C1428 1.402 . S
C1426 C1424 1.412 . S
C1426 C1427 1.417 . S
C1426 C1450 1.431 . S
C1427 N1423 1.350 . S
C1427 C1426 1.417 . S
C1427 C1430 1.426 . S
C1428 H1411 0.930 . S
C1428 N1423 1.307 . S
C1428 C1425 1.402 . S
N1429 Gd1392 2.601 . S
N1429 C1430 1.359 . S
N1429 C1433 1.334 . S
C1430 C1427 1.426 . S
C1430 N1429 1.359 . S
C1430 C1434 1.413 . S
C1431 H1422 0.930 . S
C1431 C1432 1.359 . S
C1431 C1433 1.394 . S
C1432 C1431 1.359 . S
C1432 C1434 1.391 . S
C1432 H1435 0.929 . S
C1433 H1415 0.930 . S
C1433 N1429 1.334 . S
C1433 C1431 1.394 . S
C1434 C1430 1.413 . S
C1434 C1432 1.391 . S
C1434 C1449 1.437 . S
H1435 C1432 0.929 . S
O1436 Gd1392 2.545 . S
O1436 C1451 1.258 . S
O1437 Gd1392 2.606 . S
O1437 Gd1393 2.362 . S
O1437 C1448 1.284 . S
O1438 Gd1393 2.324 . S
O1438 C1458 1.254 . S
O1439 Gd1392 2.429 . S
O1439 C1458 1.268 . S
O1440 Gd1392 2.545 . S
O1440 C1448 1.250 . S
O1441 Gd1392 2.412 . S
O1441 C1451 1.252 . S
O1442 Gd1393 2.545 . S
O1442 C1460 1.258 . S
O1443 Gd1392 2.362 . S
O1443 Gd1393 2.606 . S
O1443 C1459 1.284 . S
O1444 Gd1392 2.324 . S
O1444 C1467 1.254 . S
O1445 Gd1393 2.429 . S
O1445 C1467 1.268 . S
O1446 Gd1393 2.545 . S
O1446 C1459 1.250 . S
O1447 Gd1393 2.412 . S
O1447 C1460 1.252 . S
C1448 O1437 1.284 . S
C1448 O1440 1.250 . S
C1449 H1418 0.929 . S
C1449 C1434 1.437 . S
C1449 C1450 1.317 . S
C1450 H1421 0.930 . S
C1450 C1426 1.431 . S
C1450 C1449 1.317 . S
C1451 Gd1392 2.828 . S
C1451 O1436 1.258 . S
C1451 O1441 1.252 . S
C1451 C1452 1.497 . S
C1452 C1451 1.497 . S
C1452 C1453 1.395 . S
C1452 C1454 1.380 . S
C1453 C1452 1.395 . S
C1453 C1456 1.398 . S
C1453 H1468 0.930 . S
C1454 C1452 1.380 . S
C1454 C1455 1.391 . S
C1454 H1469 0.930 . S
C1455 C1454 1.391 . S
C1455 C1457 1.387 . S
C1456 C1453 1.398 . S
C1456 C1457 1.380 . S
C1456 H1470 0.930 . S
C1457 C1455 1.387 . S
C1457 C1456 1.380 . S
C1457 H1471 0.930 . S
C1458 O1438 1.254 . S
C1458 O1439 1.268 . S
C1459 O1443 1.284 . S
C1459 O1446 1.250 . S
C1460 Gd1393 2.828 . S
C1460 O1442 1.258 . S
C1460 O1447 1.252 . S
C1460 C1461 1.497 . S
C1461 C1460 1.497 . S
C1461 C1462 1.395 . S
C1461 C1463 1.380 . S
C1462 C1461 1.395 . S
C1462 C1465 1.398 . S
C1462 H1472 0.930 . S
C1463 C1461 1.380 . S
C1463 C1464 1.391 . S
C1463 H1473 0.930 . S
C1464 C1463 1.391 . S
C1464 C1466 1.387 . S
C1465 C1462 1.398 . S
C1465 C1466 1.380 . S
C1465 H1474 0.930 . S
C1466 C1464 1.387 . S
C1466 C1465 1.380 . S
C1466 H1475 0.930 . S
C1467 O1444 1.254 . S
C1467 O1445 1.268 . S
H1468 C1453 0.930 . S
H1469 C1454 0.930 . S
H1470 C1456 0.930 . S
H1471 C1457 0.930 . S
H1472 C1462 0.930 . S
H1473 C1463 0.930 . S
H1474 C1465 0.930 . S
H1475 C1466 0.930 . S
H1476 C1484 0.950 . S
H1477 C1489 0.950 . S
H1478 C1486 0.950 . S
H1479 C1488 0.950 . S
H1480 C1490 0.950 . S
H1481 C1492 0.950 . S
H1482 C1494 0.950 . S
H1483 C1495 0.937 1_556 S
C1484 H1476 0.950 . S
C1484 C1485 1.386 . S
C1484 C1486 1.391 . S
C1485 C1484 1.386 . S
C1485 C1489 1.393 . S
C1486 H1478 0.950 . S
C1486 C1484 1.391 . S
C1486 C1487 1.400 . S
C1487 C1486 1.400 . S
C1487 C1488 1.398 . S
C1487 C1493 1.491 . S
C1488 H1479 0.950 . S
C1488 C1487 1.398 . S
C1488 C1489 1.391 . S
C1489 H1477 0.950 . S
C1489 C1485 1.393 . S
C1489 C1488 1.391 . S
C1490 H1480 0.950 . S
C1490 C1491 1.386 . S
C1490 C1492 1.391 . S
C1491 C1490 1.386 . S
C1491 C1495 1.393 . S
C1492 H1481 0.950 . S
C1492 C1490 1.391 . S
C1492 C1493 1.400 . S
C1493 C1487 1.491 . S
C1493 C1492 1.400 . S
C1493 C1494 1.398 . S
C1494 H1482 0.950 . S
C1494 C1493 1.398 . S
C1494 C1495 1.391 . S
C1495 H1483 0.937 1_554 S
C1495 C1491 1.393 . S
C1495 C1494 1.391 . S
H1496 C1504 0.950 . S
H1497 C1509 0.950 . S
H1498 C1506 0.950 . S
H1499 C1508 0.950 . S
H1500 C1510 0.950 . S
H1501 C1512 0.950 . S
H1502 C1514 0.950 . S
H1503 C1515 0.950 . S
C1504 H1496 0.950 . S
C1504 C1505 1.386 . S
C1504 C1506 1.391 . S
C1505 C1504 1.386 . S
C1505 C1509 1.393 . S
C1506 H1498 0.950 . S
C1506 C1504 1.391 . S
C1506 C1507 1.400 . S
C1507 C1506 1.400 . S
C1507 C1508 1.398 . S
C1507 C1513 1.491 . S
C1508 H1499 0.950 . S
C1508 C1507 1.398 . S
C1508 C1509 1.391 . S
C1509 H1497 0.950 . S
C1509 C1505 1.393 . S
C1509 C1508 1.391 . S
C1510 H1500 0.950 . S
C1510 C1511 1.386 . S
C1510 C1512 1.391 . S
C1511 C1510 1.386 . S
C1511 C1515 1.393 . S
C1512 H1501 0.950 . S
C1512 C1510 1.391 . S
C1512 C1513 1.400 . S
C1513 C1507 1.491 . S
C1513 C1512 1.400 . S
C1513 C1514 1.398 . S
C1514 H1502 0.950 . S
C1514 C1513 1.398 . S
C1514 C1515 1.391 . S
C1515 H1503 0.950 . S
C1515 C1511 1.393 . S
C1515 C1514 1.391 . S
H1516 C1524 0.950 . S
H1517 C1529 0.950 . S
H1518 C1526 0.950 . S
H1519 C1528 0.950 . S
H1520 C1530 0.950 . S
H1521 C1532 0.950 . S
H1522 C1534 0.950 . S
H1523 C1535 0.950 . S
C1524 H1516 0.950 . S
C1524 C1525 1.386 . S
C1524 C1526 1.391 . S
C1525 C1524 1.386 . S
C1525 C1529 1.393 . S
C1526 H1518 0.950 . S
C1526 C1524 1.391 . S
C1526 C1527 1.400 . S
C1527 C1526 1.400 . S
C1527 C1528 1.398 . S
C1527 C1533 1.491 . S
C1528 H1519 0.950 . S
C1528 C1527 1.398 . S
C1528 C1529 1.391 . S
C1529 H1517 0.950 . S
C1529 C1525 1.393 . S
C1529 C1528 1.391 . S
C1530 H1520 0.950 . S
C1530 C1531 1.386 . S
C1530 C1532 1.391 . S
C1531 C1530 1.386 . S
C1531 C1535 1.393 . S
C1532 H1521 0.950 . S
C1532 C1530 1.391 . S
C1532 C1533 1.400 . S
C1533 C1527 1.491 . S
C1533 C1532 1.400 . S
C1533 C1534 1.398 . S
C1534 H1522 0.950 . S
C1534 C1533 1.398 . S
C1534 C1535 1.391 . S
C1535 H1523 0.950 . S
C1535 C1531 1.393 . S
C1535 C1534 1.391 . S
H1536 C1544 0.950 . S
H1537 C1549 0.950 . S
H1538 C1546 0.950 . S
H1539 C1548 0.950 . S
H1540 C1550 0.950 . S
H1541 C1552 0.950 . S
H1542 C1554 0.950 . S
H1543 C1555 0.950 1_554 S
C1544 H1536 0.950 . S
C1544 C1545 1.386 . S
C1544 C1546 1.391 . S
C1545 C1544 1.386 . S
C1545 C1549 1.393 . S
C1546 H1538 0.950 . S
C1546 C1544 1.391 . S
C1546 C1547 1.400 . S
C1547 C1546 1.400 . S
C1547 C1548 1.398 . S
C1547 C1553 1.491 . S
C1548 H1539 0.950 . S
C1548 C1547 1.398 . S
C1548 C1549 1.391 . S
C1549 H1537 0.950 . S
C1549 C1545 1.393 . S
C1549 C1548 1.391 . S
C1550 H1540 0.950 . S
C1550 C1551 1.386 . S
C1550 C1552 1.391 . S
C1551 C1550 1.386 . S
C1551 C1555 1.393 . S
C1552 H1541 0.950 . S
C1552 C1550 1.391 . S
C1552 C1553 1.400 . S
C1553 C1547 1.491 . S
C1553 C1552 1.400 . S
C1553 C1554 1.398 . S
C1554 H1542 0.950 . S
C1554 C1553 1.398 . S
C1554 C1555 1.391 . S
C1555 H1543 0.950 1_556 S
C1555 C1551 1.393 . S
C1555 C1554 1.391 . S
H1556 C1564 0.950 . S
H1557 C1569 0.950 . S
H1558 C1566 0.950 . S
H1559 C1568 0.950 . S
H1560 C1570 0.950 . S
H1561 C1572 0.950 . S
H1562 C1574 0.950 . S
H1563 C1575 0.950 1_554 S
C1564 H1556 0.950 . S
C1564 C1565 1.386 . S
C1564 C1566 1.391 . S
C1565 C1564 1.386 . S
C1565 C1569 1.393 . S
C1566 H1558 0.950 . S
C1566 C1564 1.391 . S
C1566 C1567 1.400 . S
C1567 C1566 1.400 . S
C1567 C1568 1.398 . S
C1567 C1573 1.491 . S
C1568 H1559 0.950 . S
C1568 C1567 1.398 . S
C1568 C1569 1.391 . S
C1569 H1557 0.950 . S
C1569 C1565 1.393 . S
C1569 C1568 1.391 . S
C1570 H1560 0.950 . S
C1570 C1571 1.386 . S
C1570 C1572 1.391 . S
C1571 C1570 1.386 . S
C1571 C1575 1.393 . S
C1572 H1561 0.950 . S
C1572 C1570 1.391 . S
C1572 C1573 1.400 . S
C1573 C1567 1.491 . S
C1573 C1572 1.400 . S
C1573 C1574 1.398 . S
C1574 H1562 0.950 . S
C1574 C1573 1.398 . S
C1574 C1575 1.391 . S
C1575 H1563 0.950 1_556 S
C1575 C1571 1.393 . S
C1575 C1574 1.391 . S
H1576 C1584 0.950 . S
H1577 C1589 0.950 . S
H1578 C1586 0.950 . S
H1579 C1588 0.950 . S
H1580 C1590 0.950 . S
H1581 C1592 0.950 . S
H1582 C1594 0.950 . S
H1583 C1595 0.950 1_554 S
C1584 H1576 0.950 . S
C1584 C1585 1.386 . S
C1584 C1586 1.391 . S
C1585 C1584 1.386 . S
C1585 C1589 1.393 . S
C1586 H1578 0.950 . S
C1586 C1584 1.391 . S
C1586 C1587 1.400 . S
C1587 C1586 1.400 . S
C1587 C1588 1.398 . S
C1587 C1593 1.491 . S
C1588 H1579 0.950 . S
C1588 C1587 1.398 . S
C1588 C1589 1.391 . S
C1589 H1577 0.950 . S
C1589 C1585 1.393 . S
C1589 C1588 1.391 . S
C1590 H1580 0.950 . S
C1590 C1591 1.386 . S
C1590 C1592 1.391 . S
C1591 C1590 1.386 . S
C1591 C1595 1.393 . S
C1592 H1581 0.950 . S
C1592 C1590 1.391 . S
C1592 C1593 1.400 . S
C1593 C1587 1.491 . S
C1593 C1592 1.400 . S
C1593 C1594 1.398 . S
C1594 H1582 0.950 . S
C1594 C1593 1.398 . S
C1594 C1595 1.391 . S
C1595 H1583 0.950 1_556 S
C1595 C1591 1.393 . S
C1595 C1594 1.391 . S
H1596 C1604 0.950 . S
H1597 C1609 0.950 . S
H1598 C1606 0.950 . S
H1599 C1608 0.950 . S
H1600 C1610 0.950 . S
H1601 C1612 0.950 . S
H1602 C1614 0.950 . S
H1603 C1615 0.950 . S
C1604 H1596 0.950 . S
C1604 C1605 1.386 . S
C1604 C1606 1.391 . S
C1605 C1604 1.386 . S
C1605 C1609 1.393 . S
C1606 H1598 0.950 . S
C1606 C1604 1.391 . S
C1606 C1607 1.400 . S
C1607 C1606 1.400 . S
C1607 C1608 1.398 . S
C1607 C1613 1.491 . S
C1608 H1599 0.950 . S
C1608 C1607 1.398 . S
C1608 C1609 1.391 . S
C1609 H1597 0.950 . S
C1609 C1605 1.393 . S
C1609 C1608 1.391 . S
C1610 H1600 0.950 . S
C1610 C1611 1.386 . S
C1610 C1612 1.391 . S
C1611 C1610 1.386 . S
C1611 C1615 1.393 . S
C1612 H1601 0.950 . S
C1612 C1610 1.391 . S
C1612 C1613 1.400 . S
C1613 C1607 1.491 . S
C1613 C1612 1.400 . S
C1613 C1614 1.398 . S
C1614 H1602 0.950 . S
C1614 C1613 1.398 . S
C1614 C1615 1.391 . S
C1615 H1603 0.950 . S
C1615 C1611 1.393 . S
C1615 C1614 1.391 . S
H1616 C1624 0.950 . S
H1617 C1629 0.950 . S
H1618 C1626 0.950 . S
H1619 C1628 0.950 . S
H1620 C1630 0.950 . S
H1621 C1632 0.950 . S
H1622 C1634 0.950 . S
H1623 C1635 0.950 . S
C1624 H1616 0.950 . S
C1624 C1625 1.386 . S
C1624 C1626 1.391 . S
C1625 C1624 1.386 . S
C1625 C1629 1.393 . S
C1626 H1618 0.950 . S
C1626 C1624 1.391 . S
C1626 C1627 1.400 . S
C1627 C1626 1.400 . S
C1627 C1628 1.398 . S
C1627 C1633 1.491 . S
C1628 H1619 0.950 . S
C1628 C1627 1.398 . S
C1628 C1629 1.391 . S
C1629 H1617 0.950 . S
C1629 C1625 1.393 . S
C1629 C1628 1.391 . S
C1630 H1620 0.950 . S
C1630 C1631 1.386 . S
C1630 C1632 1.391 . S
C1631 C1630 1.386 . S
C1631 C1635 1.393 . S
C1632 H1621 0.950 . S
C1632 C1630 1.391 . S
C1632 C1633 1.400 . S
C1633 C1627 1.491 . S
C1633 C1632 1.400 . S
C1633 C1634 1.398 . S
C1634 H1622 0.950 . S
C1634 C1633 1.398 . S
C1634 C1635 1.391 . S
C1635 H1623 0.950 . S
C1635 C1631 1.393 . S
C1635 C1634 1.391 . S
H1636 C1644 0.950 . S
H1637 C1649 0.950 . S
H1638 C1646 0.950 . S
H1639 C1648 0.950 . S
H1640 C1650 0.950 . S
H1641 C1652 0.950 . S
H1642 C1654 0.950 . S
H1643 C1655 0.950 1_554 S
C1644 H1636 0.950 . S
C1644 C1645 1.386 . S
C1644 C1646 1.391 . S
C1645 C1644 1.386 . S
C1645 C1649 1.393 . S
C1646 H1638 0.950 . S
C1646 C1644 1.391 . S
C1646 C1647 1.400 . S
C1647 C1646 1.400 . S
C1647 C1648 1.398 . S
C1647 C1653 1.491 . S
C1648 H1639 0.950 . S
C1648 C1647 1.398 . S
C1648 C1649 1.391 . S
C1649 H1637 0.950 . S
C1649 C1645 1.393 . S
C1649 C1648 1.391 . S
C1650 H1640 0.950 . S
C1650 C1651 1.386 . S
C1650 C1652 1.391 . S
C1651 C1650 1.386 . S
C1651 C1655 1.393 . S
C1652 H1641 0.950 . S
C1652 C1650 1.391 . S
C1652 C1653 1.400 . S
C1653 C1647 1.491 . S
C1653 C1652 1.400 . S
C1653 C1654 1.398 . S
C1654 H1642 0.950 . S
C1654 C1653 1.398 . S
C1654 C1655 1.391 . S
C1655 H1643 0.950 1_556 S
C1655 C1651 1.393 . S
C1655 C1654 1.391 . S
H1656 C1664 0.950 . S
H1657 C1669 0.950 . S
H1658 C1666 0.950 . S
H1659 C1668 0.950 . S
H1660 C1670 0.950 . S
H1661 C1672 0.950 . S
H1662 C1674 0.950 . S
H1663 C1675 0.950 . S
C1664 H1656 0.950 . S
C1664 C1665 1.386 . S
C1664 C1666 1.391 . S
C1665 C1664 1.386 . S
C1665 C1669 1.393 . S
C1666 H1658 0.950 . S
C1666 C1664 1.391 . S
C1666 C1667 1.400 . S
C1667 C1666 1.400 . S
C1667 C1668 1.398 . S
C1667 C1673 1.491 . S
C1668 H1659 0.950 . S
C1668 C1667 1.398 . S
C1668 C1669 1.391 . S
C1669 H1657 0.950 . S
C1669 C1665 1.393 . S
C1669 C1668 1.391 . S
C1670 H1660 0.950 . S
C1670 C1671 1.386 . S
C1670 C1672 1.391 . S
C1671 C1670 1.386 . S
C1671 C1675 1.393 . S
C1672 H1661 0.950 . S
C1672 C1670 1.391 . S
C1672 C1673 1.400 . S
C1673 C1667 1.491 . S
C1673 C1672 1.400 . S
C1673 C1674 1.398 . S
C1674 H1662 0.950 . S
C1674 C1673 1.398 . S
C1674 C1675 1.391 . S
C1675 H1663 0.950 . S
C1675 C1671 1.393 . S
C1675 C1674 1.391 . S
H1676 C1684 0.950 . S
H1677 C1689 0.950 . S
H1678 C1686 0.950 . S
H1679 C1688 0.950 . S
H1680 C1690 0.947 . S
H1681 C1692 0.950 . S
H1682 C1694 0.950 . S
H1683 C1695 0.950 . S
C1684 H1676 0.950 . S
C1684 C1685 1.386 . S
C1684 C1686 1.391 . S
C1685 C1684 1.386 . S
C1685 C1689 1.393 . S
C1686 H1678 0.950 . S
C1686 C1684 1.391 . S
C1686 C1687 1.400 . S
C1687 C1686 1.400 . S
C1687 C1688 1.398 . S
C1687 C1693 1.491 . S
C1688 H1679 0.950 . S
C1688 C1687 1.398 . S
C1688 C1689 1.391 . S
C1689 H1677 0.950 . S
C1689 C1685 1.393 . S
C1689 C1688 1.391 . S
C1690 H1680 0.947 . S
C1690 C1691 1.386 . S
C1690 C1692 1.391 . S
C1691 C1690 1.386 . S
C1691 C1695 1.393 . S
C1692 H1681 0.950 . S
C1692 C1690 1.391 . S
C1692 C1693 1.400 . S
C1693 C1687 1.491 . S
C1693 C1692 1.400 . S
C1693 C1694 1.398 . S
C1694 H1682 0.950 . S
C1694 C1693 1.398 . S
C1694 C1695 1.391 . S
C1695 H1683 0.950 . S
C1695 C1691 1.393 . S
C1695 C1694 1.391 . S
H1696 C1704 0.950 . S
H1697 C1709 0.950 . S
H1698 C1706 0.950 . S
H1699 C1708 0.950 . S
H1700 C1710 0.950 . S
H1701 C1712 0.950 . S
H1702 C1714 0.950 . S
H1703 C1715 0.950 . S
C1704 H1696 0.950 . S
C1704 C1705 1.386 . S
C1704 C1706 1.391 . S
C1705 C1704 1.386 . S
C1705 C1709 1.393 . S
C1706 H1698 0.950 . S
C1706 C1704 1.391 . S
C1706 C1707 1.400 . S
C1707 C1706 1.400 . S
C1707 C1708 1.398 . S
C1707 C1713 1.491 . S
C1708 H1699 0.950 . S
C1708 C1707 1.398 . S
C1708 C1709 1.391 . S
C1709 H1697 0.950 . S
C1709 C1705 1.393 . S
C1709 C1708 1.391 . S
C1710 H1700 0.950 . S
C1710 C1711 1.386 . S
C1710 C1712 1.391 . S
C1711 C1710 1.386 . S
C1711 C1715 1.393 . S
C1712 H1701 0.950 . S
C1712 C1710 1.391 . S
C1712 C1713 1.400 . S
C1713 C1707 1.491 . S
C1713 C1712 1.400 . S
C1713 C1714 1.398 . S
C1714 H1702 0.950 . S
C1714 C1713 1.398 . S
C1714 C1715 1.391 . S
C1715 H1703 0.950 . S
C1715 C1711 1.393 . S
C1715 C1714 1.391 . S
H1716 C1724 0.950 . S
H1717 C1729 0.950 1_655 S
H1718 C1726 0.950 . S
H1719 C1728 0.950 . S
H1720 C1730 0.950 . S
H1721 C1732 0.950 . S
H1722 C1734 0.950 . S
H1723 C1735 0.950 . S
C1724 H1716 0.950 . S
C1724 C1725 1.386 . S
C1724 C1726 1.391 . S
C1725 C1724 1.386 . S
C1725 C1729 1.393 . S
C1726 H1718 0.950 . S
C1726 C1724 1.391 . S
C1726 C1727 1.400 . S
C1727 C1726 1.400 . S
C1727 C1728 1.398 . S
C1727 C1733 1.491 . S
C1728 H1719 0.950 . S
C1728 C1727 1.398 . S
C1728 C1729 1.391 . S
C1729 H1717 0.950 1_455 S
C1729 C1725 1.393 . S
C1729 C1728 1.391 . S
C1730 H1720 0.950 . S
C1730 C1731 1.386 . S
C1730 C1732 1.391 . S
C1731 C1730 1.386 . S
C1731 C1735 1.393 . S
C1732 H1721 0.950 . S
C1732 C1730 1.391 . S
C1732 C1733 1.400 . S
C1733 C1727 1.491 . S
C1733 C1732 1.400 . S
C1733 C1734 1.398 . S
C1734 H1722 0.950 . S
C1734 C1733 1.398 . S
C1734 C1735 1.391 . S
C1735 H1723 0.950 . S
C1735 C1731 1.393 . S
C1735 C1734 1.391 . S
H1736 C1744 0.950 . S
H1737 C1749 0.950 . S
H1738 C1746 0.950 . S
H1739 C1748 0.950 . S
H1740 C1750 0.950 . S
H1741 C1752 0.950 . S
H1742 C1754 0.950 . S
H1743 C1755 0.950 . S
C1744 H1736 0.950 . S
C1744 C1745 1.386 . S
C1744 C1746 1.391 . S
C1745 C1744 1.386 . S
C1745 C1749 1.393 . S
C1746 H1738 0.950 . S
C1746 C1744 1.391 . S
C1746 C1747 1.400 . S
C1747 C1746 1.400 . S
C1747 C1748 1.398 . S
C1747 C1753 1.491 . S
C1748 H1739 0.950 . S
C1748 C1747 1.398 . S
C1748 C1749 1.391 . S
C1749 H1737 0.950 . S
C1749 C1745 1.393 . S
C1749 C1748 1.391 . S
C1750 H1740 0.950 . S
C1750 C1751 1.386 . S
C1750 C1752 1.391 . S
C1751 C1750 1.386 . S
C1751 C1755 1.393 . S
C1752 H1741 0.950 . S
C1752 C1750 1.391 . S
C1752 C1753 1.400 . S
C1753 C1747 1.491 . S
C1753 C1752 1.400 . S
C1753 C1754 1.398 . S
C1754 H1742 0.950 . S
C1754 C1753 1.398 . S
C1754 C1755 1.391 . S
C1755 H1743 0.950 . S
C1755 C1751 1.393 . S
C1755 C1754 1.391 . S
H1756 C1764 0.950 1_545 S
H1757 C1769 0.950 1_545 S
H1758 C1766 0.950 . S
H1759 C1768 0.950 . S
H1760 C1770 0.950 . S
H1761 C1772 0.950 . S
H1762 C1774 0.950 . S
H1763 C1775 0.950 . S
C1764 H1756 0.950 1_565 S
C1764 C1765 1.386 1_565 S
C1764 C1766 1.391 . S
C1765 C1764 1.386 1_545 S
C1765 C1769 1.393 1_545 S
C1766 H1758 0.950 . S
C1766 C1764 1.391 . S
C1766 C1767 1.400 . S
C1767 C1766 1.400 . S
C1767 C1768 1.398 . S
C1767 C1773 1.491 . S
C1768 H1759 0.950 . S
C1768 C1767 1.398 . S
C1768 C1769 1.391 . S
C1769 H1757 0.950 1_565 S
C1769 C1765 1.393 1_565 S
C1769 C1768 1.391 . S
C1770 H1760 0.950 . S
C1770 C1771 1.386 . S
C1770 C1772 1.391 . S
C1771 C1770 1.386 . S
C1771 C1775 1.393 . S
C1772 H1761 0.950 . S
C1772 C1770 1.391 . S
C1772 C1773 1.400 . S
C1773 C1767 1.491 . S
C1773 C1772 1.400 . S
C1773 C1774 1.398 . S
C1774 H1762 0.950 . S
C1774 C1773 1.398 . S
C1774 C1775 1.391 . S
C1775 H1763 0.950 . S
C1775 C1771 1.393 . S
C1775 C1774 1.391 . S
H1776 C1784 0.950 . S
H1777 C1789 0.950 . S
H1778 C1786 0.950 . S
H1779 C1788 0.950 . S
H1780 C1790 0.950 . S
H1781 C1792 0.950 . S
H1782 C1794 0.950 . S
H1783 C1795 0.950 . S
C1784 H1776 0.950 . S
C1784 C1785 1.386 . S
C1784 C1786 1.391 . S
C1785 C1784 1.386 . S
C1785 C1789 1.393 . S
C1786 H1778 0.950 . S
C1786 C1784 1.391 . S
C1786 C1787 1.400 . S
C1787 C1786 1.400 . S
C1787 C1788 1.398 . S
C1787 C1793 1.491 . S
C1788 H1779 0.950 . S
C1788 C1787 1.398 . S
C1788 C1789 1.391 . S
C1789 H1777 0.950 . S
C1789 C1785 1.393 . S
C1789 C1788 1.391 . S
C1790 H1780 0.950 . S
C1790 C1791 1.386 . S
C1790 C1792 1.391 . S
C1791 C1790 1.386 . S
C1791 C1795 1.393 . S
C1792 H1781 0.950 . S
C1792 C1790 1.391 . S
C1792 C1793 1.400 . S
C1793 C1787 1.491 . S
C1793 C1792 1.400 . S
C1793 C1794 1.398 . S
C1794 H1782 0.950 . S
C1794 C1793 1.398 . S
C1794 C1795 1.391 . S
C1795 H1783 0.950 . S
C1795 C1791 1.393 . S
C1795 C1794 1.391 . S
H1796 C1804 0.950 . S
H1797 C1809 0.950 . S
H1798 C1806 0.950 . S
H1799 C1808 0.950 . S
H1800 C1810 0.950 . S
H1801 C1812 0.950 . S
H1802 C1814 0.950 . S
H1803 C1815 0.950 . S
C1804 H1796 0.950 . S
C1804 C1805 1.386 . S
C1804 C1806 1.391 . S
C1805 C1804 1.386 . S
C1805 C1809 1.393 . S
C1806 H1798 0.950 . S
C1806 C1804 1.391 . S
C1806 C1807 1.400 . S
C1807 C1806 1.400 . S
C1807 C1808 1.398 . S
C1807 C1813 1.491 . S
C1808 H1799 0.950 . S
C1808 C1807 1.398 . S
C1808 C1809 1.391 . S
C1809 H1797 0.950 . S
C1809 C1805 1.393 . S
C1809 C1808 1.391 . S
C1810 H1800 0.950 . S
C1810 C1811 1.386 . S
C1810 C1812 1.391 . S
C1811 C1810 1.386 . S
C1811 C1815 1.393 . S
C1812 H1801 0.950 . S
C1812 C1810 1.391 . S
C1812 C1813 1.400 . S
C1813 C1807 1.491 . S
C1813 C1812 1.400 . S
C1813 C1814 1.398 . S
C1814 H1802 0.950 . S
C1814 C1813 1.398 . S
C1814 C1815 1.391 . S
C1815 H1803 0.950 . S
C1815 C1811 1.393 . S
C1815 C1814 1.391 . S
H1816 C1824 0.950 . S
H1817 C1829 0.950 . S
H1818 C1826 0.950 . S
H1819 C1828 0.950 . S
H1820 C1830 0.950 . S
H1821 C1832 0.950 . S
H1822 C1834 0.950 . S
H1823 C1835 0.950 . S
C1824 H1816 0.950 . S
C1824 C1825 1.386 . S
C1824 C1826 1.391 . S
C1825 C1824 1.386 . S
C1825 C1829 1.393 . S
C1826 H1818 0.950 . S
C1826 C1824 1.391 . S
C1826 C1827 1.400 . S
C1827 C1826 1.400 . S
C1827 C1828 1.398 . S
C1827 C1833 1.491 . S
C1828 H1819 0.950 . S
C1828 C1827 1.398 . S
C1828 C1829 1.391 . S
C1829 H1817 0.950 . S
C1829 C1825 1.393 . S
C1829 C1828 1.391 . S
C1830 H1820 0.950 . S
C1830 C1831 1.386 . S
C1830 C1832 1.391 . S
C1831 C1830 1.386 . S
C1831 C1835 1.393 . S
C1832 H1821 0.950 . S
C1832 C1830 1.391 . S
C1832 C1833 1.400 . S
C1833 C1827 1.491 . S
C1833 C1832 1.400 . S
C1833 C1834 1.398 . S
C1834 H1822 0.950 . S
C1834 C1833 1.398 . S
C1834 C1835 1.391 . S
C1835 H1823 0.950 . S
C1835 C1831 1.393 . S
C1835 C1834 1.391 . S
H1836 C1844 0.950 . S
H1837 C1849 0.950 . S
H1838 C1846 0.950 . S
H1839 C1848 0.950 . S
H1840 C1850 0.950 . S
H1841 C1852 0.950 . S
H1842 C1854 0.950 . S
H1843 C1855 0.950 . S
C1844 H1836 0.950 . S
C1844 C1845 1.386 . S
C1844 C1846 1.391 . S
C1845 C1844 1.386 . S
C1845 C1849 1.393 . S
C1846 H1838 0.950 . S
C1846 C1844 1.391 . S
C1846 C1847 1.400 . S
C1847 C1846 1.400 . S
C1847 C1848 1.398 . S
C1847 C1853 1.491 . S
C1848 H1839 0.950 . S
C1848 C1847 1.398 . S
C1848 C1849 1.391 . S
C1849 H1837 0.950 . S
C1849 C1845 1.393 . S
C1849 C1848 1.391 . S
C1850 H1840 0.950 . S
C1850 C1851 1.386 . S
C1850 C1852 1.391 . S
C1851 C1850 1.386 . S
C1851 C1855 1.393 . S
C1852 H1841 0.950 . S
C1852 C1850 1.391 . S
C1852 C1853 1.400 . S
C1853 C1847 1.491 . S
C1853 C1852 1.400 . S
C1853 C1854 1.398 . S
C1854 H1842 0.950 . S
C1854 C1853 1.398 . S
C1854 C1855 1.391 . S
C1855 H1843 0.950 . S
C1855 C1851 1.393 . S
C1855 C1854 1.391 . S
H1856 C1864 0.950 . S
H1857 C1869 0.950 . S
H1858 C1866 0.950 . S
H1859 C1868 0.950 . S
H1860 C1870 0.950 . S
H1861 C1872 0.950 . S
H1862 C1874 0.950 . S
H1863 C1875 0.950 . S
C1864 H1856 0.950 . S
C1864 C1865 1.386 . S
C1864 C1866 1.391 . S
C1865 C1864 1.386 . S
C1865 C1869 1.393 . S
C1866 H1858 0.950 . S
C1866 C1864 1.391 . S
C1866 C1867 1.400 . S
C1867 C1866 1.400 . S
C1867 C1868 1.398 . S
C1867 C1873 1.491 . S
C1868 H1859 0.950 . S
C1868 C1867 1.398 . S
C1868 C1869 1.391 . S
C1869 H1857 0.950 . S
C1869 C1865 1.393 . S
C1869 C1868 1.391 . S
C1870 H1860 0.950 . S
C1870 C1871 1.386 . S
C1870 C1872 1.391 . S
C1871 C1870 1.386 . S
C1871 C1875 1.393 . S
C1872 H1861 0.950 . S
C1872 C1870 1.391 . S
C1872 C1873 1.400 . S
C1873 C1867 1.491 . S
C1873 C1872 1.400 . S
C1873 C1874 1.398 . S
C1874 H1862 0.950 . S
C1874 C1873 1.398 . S
C1874 C1875 1.391 . S
C1875 H1863 0.950 . S
C1875 C1871 1.393 . S
C1875 C1874 1.391 . S
H1876 C1884 0.950 . S
H1877 C1889 0.950 . S
H1878 C1886 0.950 . S
H1879 C1888 0.950 . S
H1880 C1890 0.950 . S
H1881 C1892 0.950 . S
H1882 C1894 0.950 . S
H1883 C1895 0.950 . S
C1884 H1876 0.950 . S
C1884 C1885 1.386 . S
C1884 C1886 1.391 . S
C1885 C1884 1.386 . S
C1885 C1889 1.393 . S
C1886 H1878 0.950 . S
C1886 C1884 1.391 . S
C1886 C1887 1.400 . S
C1887 C1886 1.400 . S
C1887 C1888 1.398 . S
C1887 C1893 1.491 . S
C1888 H1879 0.950 . S
C1888 C1887 1.398 . S
C1888 C1889 1.391 . S
C1889 H1877 0.950 . S
C1889 C1885 1.393 . S
C1889 C1888 1.391 . S
C1890 H1880 0.950 . S
C1890 C1891 1.386 . S
C1890 C1892 1.391 . S
C1891 C1890 1.386 . S
C1891 C1895 1.393 . S
C1892 H1881 0.950 . S
C1892 C1890 1.391 . S
C1892 C1893 1.400 . S
C1893 C1887 1.491 . S
C1893 C1892 1.400 . S
C1893 C1894 1.398 . S
C1894 H1882 0.950 . S
C1894 C1893 1.398 . S
C1894 C1895 1.391 . S
C1895 H1883 0.950 . S
C1895 C1891 1.393 . S
C1895 C1894 1.391 . S
H1896 C1904 0.950 1_545 S
H1897 C1909 0.950 . S
H1898 C1906 0.950 . S
H1899 C1908 0.950 . S
H1900 C1910 0.950 . S
H1901 C1912 0.950 . S
H1902 C1914 0.950 . S
H1903 C1915 0.950 . S
C1904 H1896 0.950 1_565 S
C1904 C1905 1.386 1_565 S
C1904 C1906 1.391 . S
C1905 C1904 1.386 1_545 S
C1905 C1909 1.393 1_545 S
C1906 H1898 0.950 . S
C1906 C1904 1.391 . S
C1906 C1907 1.400 . S
C1907 C1906 1.400 . S
C1907 C1908 1.398 . S
C1907 C1913 1.491 . S
C1908 H1899 0.950 . S
C1908 C1907 1.398 . S
C1908 C1909 1.391 . S
C1909 H1897 0.950 . S
C1909 C1905 1.393 1_565 S
C1909 C1908 1.391 . S
C1910 H1900 0.950 . S
C1910 C1911 1.386 . S
C1910 C1912 1.391 . S
C1911 C1910 1.386 . S
C1911 C1915 1.393 . S
C1912 H1901 0.950 . S
C1912 C1910 1.391 . S
C1912 C1913 1.400 . S
C1913 C1907 1.491 . S
C1913 C1912 1.400 . S
C1913 C1914 1.398 . S
C1914 H1902 0.950 . S
C1914 C1913 1.398 . S
C1914 C1915 1.391 . S
C1915 H1903 0.950 . S
C1915 C1911 1.393 . S
C1915 C1914 1.391 . S
H1916 C1924 0.950 . S
H1917 C1929 0.950 1_655 S
H1918 C1926 0.950 . S
H1919 C1928 0.950 . S
H1920 C1930 0.950 . S
H1921 C1932 0.950 . S
H1922 C1934 0.950 . S
H1923 C1935 0.950 . S
C1924 H1916 0.950 . S
C1924 C1925 1.386 . S
C1924 C1926 1.391 . S
C1925 C1924 1.386 . S
C1925 C1929 1.393 . S
C1926 H1918 0.950 . S
C1926 C1924 1.391 . S
C1926 C1927 1.400 . S
C1927 C1926 1.400 . S
C1927 C1928 1.398 . S
C1927 C1933 1.491 . S
C1928 H1919 0.950 . S
C1928 C1927 1.398 . S
C1928 C1929 1.391 . S
C1929 H1917 0.950 1_455 S
C1929 C1925 1.393 . S
C1929 C1928 1.391 . S
C1930 H1920 0.950 . S
C1930 C1931 1.386 . S
C1930 C1932 1.391 . S
C1931 C1930 1.386 . S
C1931 C1935 1.393 . S
C1932 H1921 0.950 . S
C1932 C1930 1.391 . S
C1932 C1933 1.400 . S
C1933 C1927 1.491 . S
C1933 C1932 1.400 . S
C1933 C1934 1.398 . S
C1934 H1922 0.950 . S
C1934 C1933 1.398 . S
C1934 C1935 1.391 . S
C1935 H1923 0.950 . S
C1935 C1931 1.393 . S
C1935 C1934 1.391 . S
H1936 C1944 0.950 . S
H1937 C1949 0.950 . S
H1938 C1946 0.950 . S
H1939 C1948 0.950 . S
H1940 C1950 0.950 . S
H1941 C1952 0.950 . S
H1942 C1954 0.950 . S
H1943 C1955 0.950 . S
C1944 H1936 0.950 . S
C1944 C1945 1.386 . S
C1944 C1946 1.391 . S
C1945 C1944 1.386 . S
C1945 C1949 1.393 . S
C1946 H1938 0.950 . S
C1946 C1944 1.391 . S
C1946 C1947 1.400 . S
C1947 C1946 1.400 . S
C1947 C1948 1.398 . S
C1947 C1953 1.491 . S
C1948 H1939 0.950 . S
C1948 C1947 1.398 . S
C1948 C1949 1.391 . S
C1949 H1937 0.950 . S
C1949 C1945 1.393 . S
C1949 C1948 1.391 . S
C1950 H1940 0.950 . S
C1950 C1951 1.386 . S
C1950 C1952 1.391 . S
C1951 C1950 1.386 . S
C1951 C1955 1.393 . S
C1952 H1941 0.950 . S
C1952 C1950 1.391 . S
C1952 C1953 1.400 . S
C1953 C1947 1.491 . S
C1953 C1952 1.400 . S
C1953 C1954 1.398 . S
C1954 H1942 0.950 . S
C1954 C1953 1.398 . S
C1954 C1955 1.391 . S
C1955 H1943 0.950 . S
C1955 C1951 1.393 . S
C1955 C1954 1.391 . S
H1956 C1964 0.950 . S
H1957 C1969 0.950 . S
H1958 C1966 0.950 . S
H1959 C1968 0.950 . S
H1960 C1970 0.950 . S
H1961 C1972 0.950 . S
H1962 C1974 0.950 . S
H1963 C1975 0.950 . S
C1964 H1956 0.950 . S
C1964 C1965 1.386 . S
C1964 C1966 1.391 . S
C1965 C1964 1.386 . S
C1965 C1969 1.393 . S
C1966 H1958 0.950 . S
C1966 C1964 1.391 . S
C1966 C1967 1.400 . S
C1967 C1966 1.400 . S
C1967 C1968 1.398 . S
C1967 C1973 1.491 . S
C1968 H1959 0.950 . S
C1968 C1967 1.398 . S
C1968 C1969 1.391 . S
C1969 H1957 0.950 . S
C1969 C1965 1.393 . S
C1969 C1968 1.391 . S
C1970 H1960 0.950 . S
C1970 C1971 1.386 . S
C1970 C1972 1.391 . S
C1971 C1970 1.386 . S
C1971 C1975 1.393 . S
C1972 H1961 0.950 . S
C1972 C1970 1.391 . S
C1972 C1973 1.400 . S
C1973 C1967 1.491 . S
C1973 C1972 1.400 . S
C1973 C1974 1.398 . S
C1974 H1962 0.950 . S
C1974 C1973 1.398 . S
C1974 C1975 1.391 . S
C1975 H1963 0.950 . S
C1975 C1971 1.393 . S
C1975 C1974 1.391 . S
H1976 C1984 0.950 . S
H1977 C1989 0.950 . S
H1978 C1986 0.950 . S
H1979 C1988 0.950 . S
H1980 C1990 0.950 . S
H1981 C1992 0.950 . S
H1982 C1994 0.950 . S
H1983 C1995 0.950 . S
C1984 H1976 0.950 . S
C1984 C1985 1.386 . S
C1984 C1986 1.391 . S
C1985 C1984 1.386 . S
C1985 C1989 1.393 . S
C1986 H1978 0.950 . S
C1986 C1984 1.391 . S
C1986 C1987 1.400 . S
C1987 C1986 1.400 . S
C1987 C1988 1.398 . S
C1987 C1993 1.491 . S
C1988 H1979 0.950 . S
C1988 C1987 1.398 . S
C1988 C1989 1.391 . S
C1989 H1977 0.950 . S
C1989 C1985 1.393 . S
C1989 C1988 1.391 . S
C1990 H1980 0.950 . S
C1990 C1991 1.386 . S
C1990 C1992 1.391 . S
C1991 C1990 1.386 . S
C1991 C1995 1.393 . S
C1992 H1981 0.950 . S
C1992 C1990 1.391 . S
C1992 C1993 1.400 . S
C1993 C1987 1.491 . S
C1993 C1992 1.400 . S
C1993 C1994 1.398 . S
C1994 H1982 0.950 . S
C1994 C1993 1.398 . S
C1994 C1995 1.391 . S
C1995 H1983 0.950 . S
C1995 C1991 1.393 . S
C1995 C1994 1.391 . S
H1996 C2004 0.950 . S
H1997 C2009 0.950 . S
H1998 C2006 0.950 . S
H1999 C2008 0.950 . S
H2000 C2010 0.950 . S
H2001 C2012 0.950 . S
H2002 C2014 0.950 . S
H2003 C2015 0.950 . S
C2004 H1996 0.950 . S
C2004 C2005 1.386 . S
C2004 C2006 1.391 . S
C2005 C2004 1.386 . S
C2005 C2009 1.393 . S
C2006 H1998 0.950 . S
C2006 C2004 1.391 . S
C2006 C2007 1.400 . S
C2007 C2006 1.400 . S
C2007 C2008 1.398 . S
C2007 C2013 1.491 . S
C2008 H1999 0.950 . S
C2008 C2007 1.398 . S
C2008 C2009 1.391 . S
C2009 H1997 0.950 . S
C2009 C2005 1.393 . S
C2009 C2008 1.391 . S
C2010 H2000 0.950 . S
C2010 C2011 1.386 . S
C2010 C2012 1.391 . S
C2011 C2010 1.386 . S
C2011 C2015 1.393 . S
C2012 H2001 0.950 . S
C2012 C2010 1.391 . S
C2012 C2013 1.400 . S
C2013 C2007 1.491 . S
C2013 C2012 1.400 . S
C2013 C2014 1.398 . S
C2014 H2002 0.950 . S
C2014 C2013 1.398 . S
C2014 C2015 1.391 . S
C2015 H2003 0.950 . S
C2015 C2011 1.393 . S
C2015 C2014 1.391 . S
H2016 C2024 0.950 1_565 S
H2017 C2029 0.950 . S
H2018 C2026 0.950 . S
H2019 C2028 0.950 . S
H2020 C2030 0.950 . S
H2021 C2032 0.950 . S
H2022 C2034 0.950 . S
H2023 C2035 0.950 . S
C2024 H2016 0.950 1_545 S
C2024 C2025 1.381 1_545 S
C2024 C2026 1.391 . S
C2025 C2024 1.381 1_565 S
C2025 C2029 1.379 1_565 S
C2026 H2018 0.950 . S
C2026 C2024 1.391 . S
C2026 C2027 1.400 . S
C2027 C2026 1.400 . S
C2027 C2028 1.398 . S
C2027 C2033 1.491 . S
C2028 H2019 0.950 . S
C2028 C2027 1.398 . S
C2028 C2029 1.391 . S
C2029 H2017 0.950 . S
C2029 C2025 1.379 1_545 S
C2029 C2028 1.391 . S
C2030 H2020 0.950 . S
C2030 C2031 1.386 . S
C2030 C2032 1.391 . S
C2031 C2030 1.386 . S
C2031 C2035 1.393 . S
C2032 H2021 0.950 . S
C2032 C2030 1.391 . S
C2032 C2033 1.400 . S
C2033 C2027 1.491 . S
C2033 C2032 1.400 . S
C2033 C2034 1.398 . S
C2034 H2022 0.950 . S
C2034 C2033 1.398 . S
C2034 C2035 1.391 . S
C2035 H2023 0.950 . S
C2035 C2031 1.393 . S
C2035 C2034 1.391 . S
H2036 C2044 0.950 . S
H2037 C2049 0.950 . S
H2038 C2046 0.950 . S
H2039 C2048 0.950 . S
H2040 C2050 0.950 . S
H2041 C2052 0.950 . S
H2042 C2054 0.950 . S
H2043 C2055 0.950 . S
C2044 H2036 0.950 . S
C2044 C2045 1.386 . S
C2044 C2046 1.391 . S
C2045 C2044 1.386 . S
C2045 C2049 1.393 . S
C2046 H2038 0.950 . S
C2046 C2044 1.391 . S
C2046 C2047 1.400 . S
C2047 C2046 1.400 . S
C2047 C2048 1.398 . S
C2047 C2053 1.491 . S
C2048 H2039 0.950 . S
C2048 C2047 1.398 . S
C2048 C2049 1.391 . S
C2049 H2037 0.950 . S
C2049 C2045 1.393 . S
C2049 C2048 1.391 . S
C2050 H2040 0.950 . S
C2050 C2051 1.386 . S
C2050 C2052 1.391 . S
C2051 C2050 1.386 . S
C2051 C2055 1.393 . S
C2052 H2041 0.950 . S
C2052 C2050 1.391 . S
C2052 C2053 1.400 . S
C2053 C2047 1.491 . S
C2053 C2052 1.400 . S
C2053 C2054 1.398 . S
C2054 H2042 0.950 . S
C2054 C2053 1.398 . S
C2054 C2055 1.391 . S
C2055 H2043 0.950 . S
C2055 C2051 1.393 . S
C2055 C2054 1.391 . S
H2056 C2064 0.950 . S
H2057 C2069 0.950 . S
H2058 C2066 0.950 . S
H2059 C2068 0.950 . S
H2060 C2070 0.950 . S
H2061 C2072 0.950 . S
H2062 C2074 0.950 . S
H2063 C2075 0.950 . S
C2064 H2056 0.950 . S
C2064 C2065 1.386 . S
C2064 C2066 1.391 . S
C2065 C2064 1.386 . S
C2065 C2069 1.393 . S
C2066 H2058 0.950 . S
C2066 C2064 1.391 . S
C2066 C2067 1.400 . S
C2067 C2066 1.400 . S
C2067 C2068 1.398 . S
C2067 C2073 1.491 . S
C2068 H2059 0.950 . S
C2068 C2067 1.398 . S
C2068 C2069 1.391 . S
C2069 H2057 0.950 . S
C2069 C2065 1.393 . S
C2069 C2068 1.391 . S
C2070 H2060 0.950 . S
C2070 C2071 1.386 . S
C2070 C2072 1.391 . S
C2071 C2070 1.386 . S
C2071 C2075 1.393 . S
C2072 H2061 0.950 . S
C2072 C2070 1.391 . S
C2072 C2073 1.400 . S
C2073 C2067 1.491 . S
C2073 C2072 1.400 . S
C2073 C2074 1.398 . S
C2074 H2062 0.950 . S
C2074 C2073 1.398 . S
C2074 C2075 1.391 . S
C2075 H2063 0.950 . S
C2075 C2071 1.393 . S
C2075 C2074 1.391 . S
H2076 C2084 0.950 . S
H2077 C2089 0.950 1_455 S
H2078 C2086 0.950 . S
H2079 C2088 0.950 . S
H2080 C2090 0.950 . S
H2081 C2092 0.950 . S
H2082 C2094 0.950 . S
H2083 C2095 0.950 . S
C2084 H2076 0.950 . S
C2084 C2085 1.379 1_655 S
C2084 C2086 1.391 . S
C2085 C2084 1.379 1_455 S
C2085 C2089 1.394 1_455 S
C2086 H2078 0.950 . S
C2086 C2084 1.391 . S
C2086 C2087 1.400 . S
C2087 C2086 1.400 . S
C2087 C2088 1.398 . S
C2087 C2093 1.491 . S
C2088 H2079 0.950 . S
C2088 C2087 1.398 . S
C2088 C2089 1.391 . S
C2089 H2077 0.950 1_655 S
C2089 C2085 1.394 1_655 S
C2089 C2088 1.391 . S
C2090 H2080 0.950 . S
C2090 C2091 1.386 . S
C2090 C2092 1.391 . S
C2091 C2090 1.386 . S
C2091 C2095 1.393 . S
C2092 H2081 0.950 . S
C2092 C2090 1.391 . S
C2092 C2093 1.400 . S
C2093 C2087 1.491 . S
C2093 C2092 1.400 . S
C2093 C2094 1.398 . S
C2094 H2082 0.950 . S
C2094 C2093 1.398 . S
C2094 C2095 1.391 . S
C2095 H2083 0.950 . S
C2095 C2091 1.393 . S
C2095 C2094 1.391 . S
H2096 C2104 0.950 . S
H2097 C2109 0.950 . S
H2098 C2106 0.950 . S
H2099 C2108 0.950 . S
H2100 C2110 0.950 . S
H2101 C2112 0.950 . S
H2102 C2114 0.950 . S
H2103 C2115 0.950 . S
C2104 H2096 0.950 . S
C2104 C2105 1.386 . S
C2104 C2106 1.391 . S
C2105 C2104 1.386 . S
C2105 C2109 1.393 . S
C2106 H2098 0.950 . S
C2106 C2104 1.391 . S
C2106 C2107 1.400 . S
C2107 C2106 1.400 . S
C2107 C2108 1.398 . S
C2107 C2113 1.491 . S
C2108 H2099 0.950 . S
C2108 C2107 1.398 . S
C2108 C2109 1.391 . S
C2109 H2097 0.950 . S
C2109 C2105 1.393 . S
C2109 C2108 1.391 . S
C2110 H2100 0.950 . S
C2110 C2111 1.386 . S
C2110 C2112 1.391 . S
C2111 C2110 1.386 . S
C2111 C2115 1.393 . S
C2112 H2101 0.950 . S
C2112 C2110 1.391 . S
C2112 C2113 1.400 . S
C2113 C2107 1.491 . S
C2113 C2112 1.400 . S
C2113 C2114 1.398 . S
C2114 H2102 0.950 . S
C2114 C2113 1.398 . S
C2114 C2115 1.391 . S
C2115 H2103 0.950 . S
C2115 C2111 1.393 . S
C2115 C2114 1.391 . S
H2116 C2124 0.950 . S
H2117 C2129 0.950 1_565 S
H2118 C2126 0.950 . S
H2119 C2128 0.950 . S
H2120 C2130 0.950 . S
H2121 C2132 0.950 . S
H2122 C2134 0.950 . S
H2123 C2135 0.950 . S
C2124 H2116 0.950 . S
C2124 C2125 1.386 1_545 S
C2124 C2126 1.391 . S
C2125 C2124 1.386 1_565 S
C2125 C2129 1.393 1_565 S
C2126 H2118 0.950 . S
C2126 C2124 1.391 . S
C2126 C2127 1.400 . S
C2127 C2126 1.400 . S
C2127 C2128 1.398 . S
C2127 C2133 1.491 . S
C2128 H2119 0.950 . S
C2128 C2127 1.398 . S
C2128 C2129 1.391 . S
C2129 H2117 0.950 1_545 S
C2129 C2125 1.393 1_545 S
C2129 C2128 1.391 . S
C2130 H2120 0.950 . S
C2130 C2131 1.386 . S
C2130 C2132 1.391 . S
C2131 C2130 1.386 . S
C2131 C2135 1.393 . S
C2132 H2121 0.950 . S
C2132 C2130 1.391 . S
C2132 C2133 1.400 . S
C2133 C2127 1.491 . S
C2133 C2132 1.400 . S
C2133 C2134 1.398 . S
C2134 H2122 0.950 . S
C2134 C2133 1.398 . S
C2134 C2135 1.391 . S
C2135 H2123 0.950 . S
C2135 C2131 1.393 . S
C2135 C2134 1.391 . S
H2136 C2144 0.950 . S
H2137 C2149 0.950 . S
H2138 C2146 0.950 . S
H2139 C2148 0.950 . S
H2140 C2150 0.950 . S
H2141 C2152 0.950 . S
H2142 C2154 0.950 . S
H2143 C2155 0.950 . S
C2144 H2136 0.950 . S
C2144 C2145 1.386 . S
C2144 C2146 1.391 . S
C2145 C2144 1.386 . S
C2145 C2149 1.393 . S
C2146 H2138 0.950 . S
C2146 C2144 1.391 . S
C2146 C2147 1.400 . S
C2147 C2146 1.400 . S
C2147 C2148 1.398 . S
C2147 C2153 1.491 . S
C2148 H2139 0.950 . S
C2148 C2147 1.398 . S
C2148 C2149 1.391 . S
C2149 H2137 0.950 . S
C2149 C2145 1.393 . S
C2149 C2148 1.391 . S
C2150 H2140 0.950 . S
C2150 C2151 1.386 . S
C2150 C2152 1.391 . S
C2151 C2150 1.386 . S
C2151 C2155 1.393 . S
C2152 H2141 0.950 . S
C2152 C2150 1.391 . S
C2152 C2153 1.400 . S
C2153 C2147 1.491 . S
C2153 C2152 1.400 . S
C2153 C2154 1.398 . S
C2154 H2142 0.950 . S
C2154 C2153 1.398 . S
C2154 C2155 1.391 . S
C2155 H2143 0.950 . S
C2155 C2151 1.393 . S
C2155 C2154 1.391 . S
H2156 C2164 0.950 . S
H2157 C2169 0.950 . S
H2158 C2166 0.950 . S
H2159 C2168 0.950 . S
H2160 C2170 0.950 . S
H2161 C2172 0.950 . S
H2162 C2174 0.950 . S
H2163 C2175 0.950 . S
C2164 H2156 0.950 . S
C2164 C2165 1.386 . S
C2164 C2166 1.391 . S
C2165 C2164 1.386 . S
C2165 C2169 1.393 . S
C2166 H2158 0.950 . S
C2166 C2164 1.391 . S
C2166 C2167 1.400 . S
C2167 C2166 1.400 . S
C2167 C2168 1.398 . S
C2167 C2173 1.491 . S
C2168 H2159 0.950 . S
C2168 C2167 1.398 . S
C2168 C2169 1.391 . S
C2169 H2157 0.950 . S
C2169 C2165 1.393 . S
C2169 C2168 1.391 . S
C2170 H2160 0.950 . S
C2170 C2171 1.386 . S
C2170 C2172 1.391 . S
C2171 C2170 1.386 . S
C2171 C2175 1.393 . S
C2172 H2161 0.950 . S
C2172 C2170 1.391 . S
C2172 C2173 1.400 . S
C2173 C2167 1.491 . S
C2173 C2172 1.400 . S
C2173 C2174 1.398 . S
C2174 H2162 0.950 . S
C2174 C2173 1.398 . S
C2174 C2175 1.391 . S
C2175 H2163 0.950 . S
C2175 C2171 1.393 . S
C2175 C2174 1.391 . S
H2176 C2184 0.950 . S
H2177 C2189 0.950 . S
H2178 C2186 0.950 . S
H2179 C2188 0.950 . S
H2180 C2190 0.950 . S
H2181 C2192 0.950 . S
H2182 C2194 0.950 . S
H2183 C2195 0.950 . S
C2184 H2176 0.950 . S
C2184 C2185 1.386 . S
C2184 C2186 1.391 . S
C2185 C2184 1.386 . S
C2185 C2189 1.393 . S
C2186 H2178 0.950 . S
C2186 C2184 1.391 . S
C2186 C2187 1.400 . S
C2187 C2186 1.400 . S
C2187 C2188 1.398 . S
C2187 C2193 1.491 . S
C2188 H2179 0.950 . S
C2188 C2187 1.398 . S
C2188 C2189 1.391 . S
C2189 H2177 0.950 . S
C2189 C2185 1.393 . S
C2189 C2188 1.391 . S
C2190 H2180 0.950 . S
C2190 C2191 1.386 . S
C2190 C2192 1.391 . S
C2191 C2190 1.386 . S
C2191 C2195 1.393 . S
C2192 H2181 0.950 . S
C2192 C2190 1.391 . S
C2192 C2193 1.400 . S
C2193 C2187 1.491 . S
C2193 C2192 1.400 . S
C2193 C2194 1.398 . S
C2194 H2182 0.950 . S
C2194 C2193 1.398 . S
C2194 C2195 1.391 . S
C2195 H2183 0.950 . S
C2195 C2191 1.393 . S
C2195 C2194 1.391 . S
H2196 C2204 0.950 . S
H2197 C2209 0.950 . S
H2198 C2206 0.950 . S
H2199 C2208 0.950 . S
H2200 C2210 0.950 . S
H2201 C2212 0.950 . S
H2202 C2214 0.950 . S
H2203 C2215 0.950 . S
C2204 H2196 0.950 . S
C2204 C2205 1.386 . S
C2204 C2206 1.391 . S
C2205 C2204 1.386 . S
C2205 C2209 1.393 . S
C2206 H2198 0.950 . S
C2206 C2204 1.391 . S
C2206 C2207 1.400 . S
C2207 C2206 1.400 . S
C2207 C2208 1.398 . S
C2207 C2213 1.491 . S
C2208 H2199 0.950 . S
C2208 C2207 1.398 . S
C2208 C2209 1.391 . S
C2209 H2197 0.950 . S
C2209 C2205 1.393 . S
C2209 C2208 1.391 . S
C2210 H2200 0.950 . S
C2210 C2211 1.386 . S
C2210 C2212 1.391 . S
C2211 C2210 1.386 . S
C2211 C2215 1.393 . S
C2212 H2201 0.950 . S
C2212 C2210 1.391 . S
C2212 C2213 1.400 . S
C2213 C2207 1.491 . S
C2213 C2212 1.400 . S
C2213 C2214 1.398 . S
C2214 H2202 0.950 . S
C2214 C2213 1.398 . S
C2214 C2215 1.391 . S
C2215 H2203 0.950 . S
C2215 C2211 1.393 . S
C2215 C2214 1.391 . S
H2216 C2224 0.950 . S
H2217 C2229 0.950 . S
H2218 C2226 0.950 . S
H2219 C2228 0.950 . S
H2220 C2230 0.950 . S
H2221 C2232 0.950 . S
H2222 C2234 0.950 . S
H2223 C2235 0.950 . S
C2224 H2216 0.950 . S
C2224 C2225 1.386 . S
C2224 C2226 1.391 . S
C2225 C2224 1.386 . S
C2225 C2229 1.393 . S
C2226 H2218 0.950 . S
C2226 C2224 1.391 . S
C2226 C2227 1.400 . S
C2227 C2226 1.400 . S
C2227 C2228 1.398 . S
C2227 C2233 1.491 . S
C2228 H2219 0.950 . S
C2228 C2227 1.398 . S
C2228 C2229 1.391 . S
C2229 H2217 0.950 . S
C2229 C2225 1.393 . S
C2229 C2228 1.391 . S
C2230 H2220 0.950 . S
C2230 C2231 1.386 . S
C2230 C2232 1.391 . S
C2231 C2230 1.386 . S
C2231 C2235 1.393 . S
C2232 H2221 0.950 . S
C2232 C2230 1.391 . S
C2232 C2233 1.400 . S
C2233 C2227 1.491 . S
C2233 C2232 1.400 . S
C2233 C2234 1.398 . S
C2234 H2222 0.950 . S
C2234 C2233 1.398 . S
C2234 C2235 1.391 . S
C2235 H2223 0.950 . S
C2235 C2231 1.393 . S
C2235 C2234 1.391 . S
H2236 C2244 0.950 . S
H2237 C2249 0.950 . S
H2238 C2246 0.950 . S
H2239 C2248 0.950 . S
H2240 C2250 0.950 . S
H2241 C2252 0.950 . S
H2242 C2254 0.950 . S
H2243 C2255 0.950 . S
C2244 H2236 0.950 . S
C2244 C2245 1.386 . S
C2244 C2246 1.391 . S
C2245 C2244 1.386 . S
C2245 C2249 1.393 . S
C2246 H2238 0.950 . S
C2246 C2244 1.391 . S
C2246 C2247 1.400 . S
C2247 C2246 1.400 . S
C2247 C2248 1.398 . S
C2247 C2253 1.491 . S
C2248 H2239 0.950 . S
C2248 C2247 1.398 . S
C2248 C2249 1.391 . S
C2249 H2237 0.950 . S
C2249 C2245 1.393 . S
C2249 C2248 1.391 . S
C2250 H2240 0.950 . S
C2250 C2251 1.386 . S
C2250 C2252 1.391 . S
C2251 C2250 1.386 . S
C2251 C2255 1.393 . S
C2252 H2241 0.950 . S
C2252 C2250 1.391 . S
C2252 C2253 1.400 . S
C2253 C2247 1.491 . S
C2253 C2252 1.400 . S
C2253 C2254 1.398 . S
C2254 H2242 0.950 . S
C2254 C2253 1.398 . S
C2254 C2255 1.391 . S
C2255 H2243 0.950 . S
C2255 C2251 1.393 . S
C2255 C2254 1.391 . S
H2256 C2264 0.950 . S
H2257 C2269 0.950 . S
H2258 C2266 0.950 . S
H2259 C2268 0.950 . S
H2260 C2270 0.950 . S
H2261 C2272 0.950 . S
H2262 C2274 0.950 . S
H2263 C2275 0.950 . S
C2264 H2256 0.950 . S
C2264 C2265 1.386 . S
C2264 C2266 1.391 . S
C2265 C2264 1.386 . S
C2265 C2269 1.393 . S
C2266 H2258 0.950 . S
C2266 C2264 1.391 . S
C2266 C2267 1.400 . S
C2267 C2266 1.400 . S
C2267 C2268 1.398 . S
C2267 C2273 1.491 . S
C2268 H2259 0.950 . S
C2268 C2267 1.398 . S
C2268 C2269 1.391 . S
C2269 H2257 0.950 . S
C2269 C2265 1.393 . S
C2269 C2268 1.391 . S
C2270 H2260 0.950 . S
C2270 C2271 1.386 . S
C2270 C2272 1.391 . S
C2271 C2270 1.386 . S
C2271 C2275 1.393 . S
C2272 H2261 0.950 . S
C2272 C2270 1.391 . S
C2272 C2273 1.400 . S
C2273 C2267 1.491 . S
C2273 C2272 1.400 . S
C2273 C2274 1.398 . S
C2274 H2262 0.950 . S
C2274 C2273 1.398 . S
C2274 C2275 1.391 . S
C2275 H2263 0.950 . S
C2275 C2271 1.393 . S
C2275 C2274 1.391 . S
H2276 C2284 0.950 . S
H2277 C2289 0.950 . S
H2278 C2286 0.950 . S
H2279 C2288 0.950 . S
H2280 C2290 0.950 . S
H2281 C2292 0.950 . S
H2282 C2294 0.950 . S
H2283 C2295 0.950 . S
C2284 H2276 0.950 . S
C2284 C2285 1.386 . S
C2284 C2286 1.391 . S
C2285 C2284 1.386 . S
C2285 C2289 1.393 . S
C2286 H2278 0.950 . S
C2286 C2284 1.391 . S
C2286 C2287 1.400 . S
C2287 C2286 1.400 . S
C2287 C2288 1.398 . S
C2287 C2293 1.491 . S
C2288 H2279 0.950 . S
C2288 C2287 1.398 . S
C2288 C2289 1.391 . S
C2289 H2277 0.950 . S
C2289 C2285 1.393 . S
C2289 C2288 1.391 . S
C2290 H2280 0.950 . S
C2290 C2291 1.386 . S
C2290 C2292 1.391 . S
C2291 C2290 1.386 . S
C2291 C2295 1.393 . S
C2292 H2281 0.950 . S
C2292 C2290 1.391 . S
C2292 C2293 1.400 . S
C2293 C2287 1.491 . S
C2293 C2292 1.400 . S
C2293 C2294 1.398 . S
C2294 H2282 0.950 . S
C2294 C2293 1.398 . S
C2294 C2295 1.391 . S
C2295 H2283 0.950 . S
C2295 C2291 1.393 . S
C2295 C2294 1.391 . S
H2296 C2304 0.950 . S
H2297 C2309 0.950 . S
H2298 C2306 0.950 . S
H2299 C2308 0.950 . S
H2300 C2310 0.950 . S
H2301 C2312 0.950 . S
H2302 C2314 0.950 . S
H2303 C2315 0.950 . S
C2304 H2296 0.950 . S
C2304 C2305 1.386 . S
C2304 C2306 1.391 . S
C2305 C2304 1.386 . S
C2305 C2309 1.393 . S
C2306 H2298 0.950 . S
C2306 C2304 1.391 . S
C2306 C2307 1.400 . S
C2307 C2306 1.400 . S
C2307 C2308 1.398 . S
C2307 C2313 1.491 . S
C2308 H2299 0.950 . S
C2308 C2307 1.398 . S
C2308 C2309 1.391 . S
C2309 H2297 0.950 . S
C2309 C2305 1.393 . S
C2309 C2308 1.391 . S
C2310 H2300 0.950 . S
C2310 C2311 1.386 . S
C2310 C2312 1.391 . S
C2311 C2310 1.386 . S
C2311 C2315 1.393 . S
C2312 H2301 0.950 . S
C2312 C2310 1.391 . S
C2312 C2313 1.400 . S
C2313 C2307 1.491 . S
C2313 C2312 1.400 . S
C2313 C2314 1.398 . S
C2314 H2302 0.950 . S
C2314 C2313 1.398 . S
C2314 C2315 1.391 . S
C2315 H2303 0.950 . S
C2315 C2311 1.393 . S
C2315 C2314 1.391 . S
H2316 C2324 0.950 . S
H2317 C2329 0.950 . S
H2318 C2326 0.950 . S
H2319 C2328 0.950 . S
H2320 C2330 0.950 . S
H2321 C2332 0.950 . S
H2322 C2334 0.950 . S
H2323 C2335 0.950 . S
C2324 H2316 0.950 . S
C2324 C2325 1.386 . S
C2324 C2326 1.391 . S
C2325 C2324 1.386 . S
C2325 C2329 1.393 . S
C2326 H2318 0.950 . S
C2326 C2324 1.391 . S
C2326 C2327 1.400 . S
C2327 C2326 1.400 . S
C2327 C2328 1.398 . S
C2327 C2333 1.491 . S
C2328 H2319 0.950 . S
C2328 C2327 1.398 . S
C2328 C2329 1.391 . S
C2329 H2317 0.950 . S
C2329 C2325 1.393 . S
C2329 C2328 1.391 . S
C2330 H2320 0.950 . S
C2330 C2331 1.386 . S
C2330 C2332 1.391 . S
C2331 C2330 1.386 . S
C2331 C2335 1.393 . S
C2332 H2321 0.950 . S
C2332 C2330 1.391 . S
C2332 C2333 1.400 . S
C2333 C2327 1.491 . S
C2333 C2332 1.400 . S
C2333 C2334 1.398 . S
C2334 H2322 0.950 . S
C2334 C2333 1.398 . S
C2334 C2335 1.391 . S
C2335 H2323 0.950 . S
C2335 C2331 1.393 . S
C2335 C2334 1.391 . S
H2336 C2344 0.950 . S
H2337 C2349 0.950 . S
H2338 C2346 0.950 . S
H2339 C2348 0.950 . S
H2340 C2350 0.950 . S
H2341 C2352 0.950 . S
H2342 C2354 0.950 . S
H2343 C2355 0.950 . S
C2344 H2336 0.950 . S
C2344 C2345 1.386 . S
C2344 C2346 1.391 . S
C2345 C2344 1.386 . S
C2345 C2349 1.393 . S
C2346 H2338 0.950 . S
C2346 C2344 1.391 . S
C2346 C2347 1.400 . S
C2347 C2346 1.400 . S
C2347 C2348 1.398 . S
C2347 C2353 1.491 . S
C2348 H2339 0.950 . S
C2348 C2347 1.398 . S
C2348 C2349 1.391 . S
C2349 H2337 0.950 . S
C2349 C2345 1.393 . S
C2349 C2348 1.391 . S
C2350 H2340 0.950 . S
C2350 C2351 1.386 . S
C2350 C2352 1.391 . S
C2351 C2350 1.386 . S
C2351 C2355 1.393 . S
C2352 H2341 0.950 . S
C2352 C2350 1.391 . S
C2352 C2353 1.400 . S
C2353 C2347 1.491 . S
C2353 C2352 1.400 . S
C2353 C2354 1.398 . S
C2354 H2342 0.950 . S
C2354 C2353 1.398 . S
C2354 C2355 1.391 . S
C2355 H2343 0.950 . S
C2355 C2351 1.393 . S
C2355 C2354 1.391 . S
H2356 C2364 0.950 . S
H2357 C2369 0.950 . S
H2358 C2366 0.950 . S
H2359 C2368 0.950 . S
H2360 C2370 0.950 . S
H2361 C2372 0.950 . S
H2362 C2374 0.950 . S
H2363 C2375 0.950 . S
C2364 H2356 0.950 . S
C2364 C2365 1.386 . S
C2364 C2366 1.391 . S
C2365 C2364 1.386 . S
C2365 C2369 1.393 . S
C2366 H2358 0.950 . S
C2366 C2364 1.391 . S
C2366 C2367 1.400 . S
C2367 C2366 1.400 . S
C2367 C2368 1.398 . S
C2367 C2373 1.491 . S
C2368 H2359 0.950 . S
C2368 C2367 1.398 . S
C2368 C2369 1.391 . S
C2369 H2357 0.950 . S
C2369 C2365 1.393 . S
C2369 C2368 1.391 . S
C2370 H2360 0.950 . S
C2370 C2371 1.386 . S
C2370 C2372 1.391 . S
C2371 C2370 1.386 . S
C2371 C2375 1.393 . S
C2372 H2361 0.950 . S
C2372 C2370 1.391 . S
C2372 C2373 1.400 . S
C2373 C2367 1.491 . S
C2373 C2372 1.400 . S
C2373 C2374 1.398 . S
C2374 H2362 0.950 . S
C2374 C2373 1.398 . S
C2374 C2375 1.391 . S
C2375 H2363 0.950 . S
C2375 C2371 1.393 . S
C2375 C2374 1.391 . S
H2376 C2384 0.950 . S
H2377 C2389 0.950 . S
H2378 C2386 0.950 . S
H2379 C2388 0.950 . S
H2380 C2390 0.950 . S
H2381 C2392 0.950 . S
H2382 C2394 0.950 . S
H2383 C2395 0.950 . S
C2384 H2376 0.950 . S
C2384 C2385 1.386 . S
C2384 C2386 1.391 . S
C2385 C2384 1.386 . S
C2385 C2389 1.393 . S
C2386 H2378 0.950 . S
C2386 C2384 1.391 . S
C2386 C2387 1.400 . S
C2387 C2386 1.400 . S
C2387 C2388 1.398 . S
C2387 C2393 1.491 . S
C2388 H2379 0.950 . S
C2388 C2387 1.398 . S
C2388 C2389 1.391 . S
C2389 H2377 0.950 . S
C2389 C2385 1.393 . S
C2389 C2388 1.391 . S
C2390 H2380 0.950 . S
C2390 C2391 1.386 . S
C2390 C2392 1.391 . S
C2391 C2390 1.386 . S
C2391 C2395 1.393 . S
C2392 H2381 0.950 . S
C2392 C2390 1.391 . S
C2392 C2393 1.400 . S
C2393 C2387 1.491 . S
C2393 C2392 1.400 . S
C2393 C2394 1.398 . S
C2394 H2382 0.950 . S
C2394 C2393 1.398 . S
C2394 C2395 1.391 . S
C2395 H2383 0.950 . S
C2395 C2391 1.393 . S
C2395 C2394 1.391 . S
H2396 C2404 0.950 . S
H2397 C2409 0.950 . S
H2398 C2406 0.950 . S
H2399 C2408 0.950 . S
H2400 C2410 0.950 . S
H2401 C2412 0.950 . S
H2402 C2414 0.950 . S
H2403 C2415 0.950 . S
C2404 H2396 0.950 . S
C2404 C2405 1.386 . S
C2404 C2406 1.391 . S
C2405 C2404 1.386 . S
C2405 C2409 1.393 . S
C2406 H2398 0.950 . S
C2406 C2404 1.391 . S
C2406 C2407 1.400 . S
C2407 C2406 1.400 . S
C2407 C2408 1.398 . S
C2407 C2413 1.491 . S
C2408 H2399 0.950 . S
C2408 C2407 1.398 . S
C2408 C2409 1.391 . S
C2409 H2397 0.950 . S
C2409 C2405 1.393 . S
C2409 C2408 1.391 . S
C2410 H2400 0.950 . S
C2410 C2411 1.386 . S
C2410 C2412 1.391 . S
C2411 C2410 1.386 . S
C2411 C2415 1.393 . S
C2412 H2401 0.950 . S
C2412 C2410 1.391 . S
C2412 C2413 1.400 . S
C2413 C2407 1.491 . S
C2413 C2412 1.400 . S
C2413 C2414 1.398 . S
C2414 H2402 0.950 . S
C2414 C2413 1.398 . S
C2414 C2415 1.391 . S
C2415 H2403 0.950 . S
C2415 C2411 1.393 . S
C2415 C2414 1.391 . S
H2416 C2424 0.950 . S
H2417 C2429 0.950 . S
H2418 C2426 0.950 . S
H2419 C2428 0.950 . S
H2420 C2430 0.950 . S
H2421 C2432 0.950 . S
H2422 C2434 0.950 . S
H2423 C2435 0.950 . S
C2424 H2416 0.950 . S
C2424 C2425 1.386 . S
C2424 C2426 1.391 . S
C2425 C2424 1.386 . S
C2425 C2429 1.393 . S
C2426 H2418 0.950 . S
C2426 C2424 1.391 . S
C2426 C2427 1.400 . S
C2427 C2426 1.400 . S
C2427 C2428 1.398 . S
C2427 C2433 1.491 . S
C2428 H2419 0.950 . S
C2428 C2427 1.398 . S
C2428 C2429 1.391 . S
C2429 H2417 0.950 . S
C2429 C2425 1.393 . S
C2429 C2428 1.391 . S
C2430 H2420 0.950 . S
C2430 C2431 1.386 . S
C2430 C2432 1.391 . S
C2431 C2430 1.386 . S
C2431 C2435 1.393 . S
C2432 H2421 0.950 . S
C2432 C2430 1.391 . S
C2432 C2433 1.400 . S
C2433 C2427 1.491 . S
C2433 C2432 1.400 . S
C2433 C2434 1.398 . S
C2434 H2422 0.950 . S
C2434 C2433 1.398 . S
C2434 C2435 1.391 . S
C2435 H2423 0.950 . S
C2435 C2431 1.393 . S
C2435 C2434 1.391 . S
H2436 C2444 0.950 . S
H2437 C2449 0.950 . S
H2438 C2446 0.950 . S
H2439 C2448 0.950 . S
H2440 C2450 0.950 . S
H2441 C2452 0.950 . S
H2442 C2454 0.950 . S
H2443 C2455 0.950 . S
C2444 H2436 0.950 . S
C2444 C2445 1.386 . S
C2444 C2446 1.391 . S
C2445 C2444 1.386 . S
C2445 C2449 1.393 . S
C2446 H2438 0.950 . S
C2446 C2444 1.391 . S
C2446 C2447 1.400 . S
C2447 C2446 1.400 . S
C2447 C2448 1.398 . S
C2447 C2453 1.491 . S
C2448 H2439 0.950 . S
C2448 C2447 1.398 . S
C2448 C2449 1.391 . S
C2449 H2437 0.950 . S
C2449 C2445 1.393 . S
C2449 C2448 1.391 . S
C2450 H2440 0.950 . S
C2450 C2451 1.386 . S
C2450 C2452 1.391 . S
C2451 C2450 1.386 . S
C2451 C2455 1.393 . S
C2452 H2441 0.950 . S
C2452 C2450 1.391 . S
C2452 C2453 1.400 . S
C2453 C2447 1.491 . S
C2453 C2452 1.400 . S
C2453 C2454 1.398 . S
C2454 H2442 0.950 . S
C2454 C2453 1.398 . S
C2454 C2455 1.391 . S
C2455 H2443 0.950 . S
C2455 C2451 1.393 . S
C2455 C2454 1.391 . S
H2456 C2464 0.950 . S
H2457 C2469 0.950 . S
H2458 C2466 0.950 . S
H2459 C2468 0.950 . S
H2460 C2470 0.950 . S
H2461 C2472 0.950 . S
H2462 C2474 0.950 . S
H2463 C2475 0.950 . S
C2464 H2456 0.950 . S
C2464 C2465 1.386 . S
C2464 C2466 1.391 . S
C2465 C2464 1.386 . S
C2465 C2469 1.393 . S
C2466 H2458 0.950 . S
C2466 C2464 1.391 . S
C2466 C2467 1.400 . S
C2467 C2466 1.400 . S
C2467 C2468 1.398 . S
C2467 C2473 1.491 . S
C2468 H2459 0.950 . S
C2468 C2467 1.398 . S
C2468 C2469 1.391 . S
C2469 H2457 0.950 . S
C2469 C2465 1.393 . S
C2469 C2468 1.391 . S
C2470 H2460 0.950 . S
C2470 C2471 1.386 . S
C2470 C2472 1.391 . S
C2471 C2470 1.386 . S
C2471 C2475 1.393 . S
C2472 H2461 0.950 . S
C2472 C2470 1.391 . S
C2472 C2473 1.400 . S
C2473 C2467 1.491 . S
C2473 C2472 1.400 . S
C2473 C2474 1.398 . S
C2474 H2462 0.950 . S
C2474 C2473 1.398 . S
C2474 C2475 1.391 . S
C2475 H2463 0.950 . S
C2475 C2471 1.393 . S
C2475 C2474 1.391 . S
H2476 C2484 0.950 . S
H2477 C2489 0.950 . S
H2478 C2486 0.950 . S
H2479 C2488 0.950 . S
H2480 C2490 0.950 . S
H2481 C2492 0.950 . S
H2482 C2494 0.950 . S
H2483 C2495 0.950 . S
C2484 H2476 0.950 . S
C2484 C2485 1.386 . S
C2484 C2486 1.391 . S
C2485 C2484 1.386 . S
C2485 C2489 1.393 . S
C2486 H2478 0.950 . S
C2486 C2484 1.391 . S
C2486 C2487 1.400 . S
C2487 C2486 1.400 . S
C2487 C2488 1.398 . S
C2487 C2493 1.491 . S
C2488 H2479 0.950 . S
C2488 C2487 1.398 . S
C2488 C2489 1.391 . S
C2489 H2477 0.950 . S
C2489 C2485 1.393 . S
C2489 C2488 1.391 . S
C2490 H2480 0.950 . S
C2490 C2491 1.386 . S
C2490 C2492 1.391 . S
C2491 C2490 1.386 . S
C2491 C2495 1.393 . S
C2492 H2481 0.950 . S
C2492 C2490 1.391 . S
C2492 C2493 1.400 . S
C2493 C2487 1.491 . S
C2493 C2492 1.400 . S
C2493 C2494 1.398 . S
C2494 H2482 0.950 . S
C2494 C2493 1.398 . S
C2494 C2495 1.391 . S
C2495 H2483 0.950 . S
C2495 C2491 1.393 . S
C2495 C2494 1.391 . S
H2496 C2504 0.950 . S
H2497 C2509 0.950 . S
H2498 C2506 0.950 . S
H2499 C2508 0.950 . S
H2500 C2510 0.950 . S
H2501 C2512 0.950 . S
H2502 C2514 0.950 . S
H2503 C2515 0.950 . S
C2504 H2496 0.950 . S
C2504 C2505 1.386 . S
C2504 C2506 1.391 . S
C2505 C2504 1.386 . S
C2505 C2509 1.393 . S
C2506 H2498 0.950 . S
C2506 C2504 1.391 . S
C2506 C2507 1.400 . S
C2507 C2506 1.400 . S
C2507 C2508 1.398 . S
C2507 C2513 1.491 . S
C2508 H2499 0.950 . S
C2508 C2507 1.398 . S
C2508 C2509 1.391 . S
C2509 H2497 0.950 . S
C2509 C2505 1.393 . S
C2509 C2508 1.391 . S
C2510 H2500 0.950 . S
C2510 C2511 1.386 . S
C2510 C2512 1.391 . S
C2511 C2510 1.386 . S
C2511 C2515 1.393 . S
C2512 H2501 0.950 . S
C2512 C2510 1.391 . S
C2512 C2513 1.400 . S
C2513 C2507 1.491 . S
C2513 C2512 1.400 . S
C2513 C2514 1.398 . S
C2514 H2502 0.950 . S
C2514 C2513 1.398 . S
C2514 C2515 1.391 . S
C2515 H2503 0.950 . S
C2515 C2511 1.393 . S
C2515 C2514 1.391 . S
H2516 C2524 0.950 . S
H2517 C2529 0.950 . S
H2518 C2526 0.950 . S
H2519 C2528 0.950 . S
H2520 C2530 0.950 . S
H2521 C2532 0.950 . S
H2522 C2534 0.950 . S
H2523 C2535 0.950 . S
C2524 H2516 0.950 . S
C2524 C2525 1.386 . S
C2524 C2526 1.391 . S
C2525 C2524 1.386 . S
C2525 C2529 1.393 . S
C2526 H2518 0.950 . S
C2526 C2524 1.391 . S
C2526 C2527 1.400 . S
C2527 C2526 1.400 . S
C2527 C2528 1.398 . S
C2527 C2533 1.491 . S
C2528 H2519 0.950 . S
C2528 C2527 1.398 . S
C2528 C2529 1.391 . S
C2529 H2517 0.950 . S
C2529 C2525 1.393 . S
C2529 C2528 1.391 . S
C2530 H2520 0.950 . S
C2530 C2531 1.386 . S
C2530 C2532 1.391 . S
C2531 C2530 1.386 . S
C2531 C2535 1.393 . S
C2532 H2521 0.950 . S
C2532 C2530 1.391 . S
C2532 C2533 1.400 . S
C2533 C2527 1.491 . S
C2533 C2532 1.400 . S
C2533 C2534 1.398 . S
C2534 H2522 0.950 . S
C2534 C2533 1.398 . S
C2534 C2535 1.391 . S
C2535 H2523 0.950 . S
C2535 C2531 1.393 . S
C2535 C2534 1.391 . S
H2536 C2544 0.950 . S
H2537 C2549 0.950 . S
H2538 C2546 0.950 . S
H2539 C2548 0.950 . S
H2540 C2550 0.950 . S
H2541 C2552 0.950 . S
H2542 C2554 0.950 . S
H2543 C2555 0.950 . S
C2544 H2536 0.950 . S
C2544 C2545 1.386 . S
C2544 C2546 1.391 . S
C2545 C2544 1.386 . S
C2545 C2549 1.393 . S
C2546 H2538 0.950 . S
C2546 C2544 1.391 . S
C2546 C2547 1.400 . S
C2547 C2546 1.400 . S
C2547 C2548 1.398 . S
C2547 C2553 1.491 . S
C2548 H2539 0.950 . S
C2548 C2547 1.398 . S
C2548 C2549 1.391 . S
C2549 H2537 0.950 . S
C2549 C2545 1.393 . S
C2549 C2548 1.391 . S
C2550 H2540 0.950 . S
C2550 C2551 1.386 . S
C2550 C2552 1.391 . S
C2551 C2550 1.386 . S
C2551 C2555 1.393 . S
C2552 H2541 0.950 . S
C2552 C2550 1.391 . S
C2552 C2553 1.400 . S
C2553 C2547 1.491 . S
C2553 C2552 1.400 . S
C2553 C2554 1.398 . S
C2554 H2542 0.950 . S
C2554 C2553 1.398 . S
C2554 C2555 1.391 . S
C2555 H2543 0.950 . S
C2555 C2551 1.393 . S
C2555 C2554 1.391 . S
C1485 C522 1.452 . S
C1491 C776 1.383 . S
C1505 C562 1.454 . S
C1511 C860 1.376 . S
C1525 C495 1.475 . S
C1531 C954 1.430 . S
C1545 C455 1.438 . S
C1551 C870 1.408 . S
C1571 C944 1.322 . S
C1565 C362 1.386 . S
C1585 C402 1.431 . S
C1591 C786 1.384 . S
C1611 C787 1.384 . S
C1605 C442 1.448 . S
C1631 C871 1.345 . S
C1625 C375 1.430 . S
C1645 C415 1.482 . S
C1651 C963 1.430 . S
C1665 C535 1.435 . S
C1671 C879 1.396 . S
C1685 C575 1.367 . S
C1691 C955 1.304 . S
C1711 C795 1.396 . S
C1705 C482 1.411 . S
C1731 C1028 1.356 . S
C1725 C42 1.450 1_455 S
C1745 C82 1.450 . S
C1751 C1112 1.390 . S
C1765 C15 1.473 . S
C1771 C1206 1.426 . S
C1785 C695 1.439 . S
C1791 C1122 1.407 . S
C1805 C602 1.384 . S
C1811 C1196 1.306 . S
C1825 C642 1.428 . S
C1831 C1038 1.378 . S
C1845 C682 1.456 . S
C1851 C1039 1.414 . S
C1865 C615 1.432 . S
C1871 C1123 1.353 . S
C1891 C1215 1.451 . S
C1885 C655 1.489 . S
C1905 C55 1.431 . S
C1911 C1131 1.381 . S
C1931 C1207 1.310 . S
C1925 C95 1.366 1_455 S
C1945 C2 1.408 . S
C1951 C1047 1.391 . S
C1971 C1280 1.383 . S
C1965 C282 1.454 . S
C1985 C322 1.454 . S
C1991 C1364 1.381 . S
C2011 C1458 1.426 . S
C2005 C255 1.475 . S
C2031 C1374 1.407 . S
C2025 C215 1.454 . S
C2051 C1448 1.317 . S
C2045 C122 1.385 1_655 S
C2065 C162 1.428 . S
C2071 C1290 1.364 . S
C2085 C202 1.458 . S
C2091 C1291 1.415 . S
C2105 C135 1.432 . S
C2111 C1375 1.357 . S
C2131 C1467 1.450 . S
C2125 C175 1.488 . S
C2145 C295 1.432 . S
C2151 C1383 1.381 . S
C2165 C335 1.364 . S
C2171 C1459 1.311 . S
C2185 C242 1.419 . S
C2191 C1299 1.405 . S
C2205 C621 1.406 . S
C2211 C783 1.328 . S
C2231 C867 1.376 . S
C2225 C661 1.497 . S
C2245 C701 1.477 . S
C2251 C960 1.366 . S
C2265 C261 1.511 . S
C2271 C876 1.393 . S
C2285 C301 1.458 . S
C2291 C951 1.337 . S
C2311 C792 1.330 . S
C2305 C341 1.407 . S
C2325 C141 1.407 . S
C2331 C1035 1.328 . S
C2345 C181 1.503 . S
C2351 C1119 1.338 . S
C2365 C221 1.475 . S
C2371 C1212 1.362 . S
C2385 C501 1.503 . S
C2391 C1128 1.361 . S
C2411 C1203 1.330 . S
C2405 C541 1.463 . S
C2425 C581 1.407 . S
C2431 C1044 1.329 . S
C2445 C381 1.418 . S
C2451 C1287 1.299 . S
C2465 C421 1.497 . S
C2471 C1371 1.372 . S
C2491 C1464 1.336 . S
C2485 C461 1.472 . S
C2505 C21 1.512 . S
C2511 C1380 1.389 . S
C2525 C61 1.465 . S
C2531 C1455 1.315 . S
C2545 C101 1.407 . S
C2551 C1296 1.330 . S
