# Generated by pormake.
# Topology nia, (6,6)-cn, num edge types: 1
# Building blocks:
#     Node 0, Type 0, BuildingBlock: KUMBUR_clean_sbu_0, # of connection points: 6
#     Node 1, Type 0, BuildingBlock: KUMBUR_clean_sbu_0, # of connection points: 6
#     Node 2, Type 1, BuildingBlock: MIDCAF_clean_sbu_0, # of connection points: 6
#     Node 3, Type 1, BuildingBlock: MIDCAF_clean_sbu_0, # of connection points: 6
#     Edge 4, Type (0, 1), BuildingBlock: CIFDUS_clean_linker_0, # of connection points: 2
#     Edge 5, Type (0, 1), BuildingBlock: CIFDUS_clean_linker_0, # of connection points: 2
#     Edge 6, Type (0, 1), BuildingBlock: CIFDUS_clean_linker_0, # of connection points: 2
#     Edge 7, Type (0, 1), BuildingBlock: CIFDUS_clean_linker_0, # of connection points: 2
#     Edge 8, Type (0, 1), BuildingBlock: CIFDUS_clean_linker_0, # of connection points: 2
#     Edge 9, Type (0, 1), BuildingBlock: CIFDUS_clean_linker_0, # of connection points: 2
#     Edge 10, Type (0, 1), BuildingBlock: CIFDUS_clean_linker_0, # of connection points: 2
#     Edge 11, Type (0, 1), BuildingBlock: CIFDUS_clean_linker_0, # of connection points: 2
#     Edge 12, Type (0, 1), BuildingBlock: CIFDUS_clean_linker_0, # of connection points: 2
#     Edge 13, Type (0, 1), BuildingBlock: CIFDUS_clean_linker_0, # of connection points: 2
#     Edge 14, Type (0, 1), BuildingBlock: CIFDUS_clean_linker_0, # of connection points: 2
#     Edge 15, Type (0, 1), BuildingBlock: CIFDUS_clean_linker_0, # of connection points: 2
# Relax obj value: 0.171
# Max RMSD: 0.291
# Mean RMSD: 0.207
data_MOF--net-nia--node1-KUMBUR_clean_sbu_0--node2-MIDCAF_clean_sbu_0--edge1-CIFDUS_clean_linker_0
_symmetry_space_group_name_H-M    P1
_symmetry_Int_Tables_number       1
_symmetry_cell_setting            triclinic
loop_
_symmetry_equiv_pos_as_xyz
'x, y, z'
_cell_length_a     25.231745
_cell_length_b     25.089212
_cell_length_c     29.262579
_cell_angle_alpha  90.249238
_cell_angle_beta   89.864319
_cell_angle_gamma 139.8389
loop_
_atom_site_label
_atom_site_type_symbol
_atom_site_fract_x
_atom_site_fract_y
_atom_site_fract_z
_atom_type_partial_charge
Tb0 Tb 0.04515 0.98256 0.05734 0.0
C1 C 0.01136 0.99053 0.85588 0.0
C2 C 0.14969 0.1087 0.82826 0.0
C3 C 0.05005 0.98382 0.78201 0.0
C4 C 0.09014 0.06885 0.86284 0.0
C5 C 0.98899 0.94835 0.81453 0.0
C6 C 0.13053 0.06423 0.78883 0.0
C7 C 0.84785 0.84211 0.84017 0.0
N8 N 0.95553 0.95706 0.88939 0.0
C9 C 0.87354 0.88596 0.88104 0.0
C10 C 0.90601 0.87256 0.80714 0.0
Tb11 Tb 0.00436 0.03111 0.95661 0.0
N12 N 0.10639 0.10821 0.90214 0.0
C13 C 0.1788 0.19112 0.90665 0.0
C14 C 0.22534 0.19251 0.83374 0.0
C15 C 0.23915 0.23433 0.87265 0.0
H16 H 0.82857 0.8615 0.9068 0.0
H17 H 0.29693 0.29954 0.87692 0.0
H18 H 0.17617 0.09285 0.76245 0.0
H19 H 0.78333 0.78452 0.83433 0.0
H20 H 0.19141 0.22413 0.93692 0.0
H21 H 0.73212 0.65969 0.03866 0.0
H22 H 0.27259 0.22576 0.80781 0.0
H23 H 0.1183 0.10575 0.14775 0.0
H24 H 0.85191 0.79951 0.01176 0.0
H25 H 0.09674 0.09114 0.23003 0.0
H26 H 0.03489 0.95135 0.75058 0.0
H27 H 0.71503 0.6279 0.12085 0.0
H28 H 0.76546 0.68041 0.20093 0.0
H29 H 0.88609 0.83815 0.77574 0.0
H30 H 0.8647 0.79882 0.25308 0.0
N31 N 0.91377 0.84946 0.07672 0.0
C32 C 0.85068 0.78789 0.04728 0.0
C33 C 0.77022 0.68999 0.10894 0.0
C34 C 0.82913 0.75423 0.13958 0.0
C35 C 0.7799 0.70758 0.06262 0.0
C36 C 0.8997 0.83427 0.12222 0.0
H37 H 0.98528 0.95253 0.26421 0.0
N38 N 0.01451 0.97688 0.13284 0.0
C39 C 0.05481 0.03685 0.2083 0.0
C40 C 0.95221 0.90067 0.15136 0.0
C41 C 0.06553 0.04483 0.16095 0.0
C42 C 0.99213 0.95859 0.22751 0.0
C43 C 0.9392 0.88923 0.19903 0.0
O44 O 0.16325 0.07333 0.08761 0.0
O45 O 0.09398 0.05651 0.99585 0.0
O46 O 0.98068 0.92829 0.93944 0.0
O47 O 0.99336 0.88718 0.00668 0.0
O48 O 0.12567 0.00322 0.00922 0.0
O49 O 0.08806 0.94435 0.08567 0.0
O50 O 0.90959 0.01376 0.94392 0.0
O51 O 0.97689 0.99254 0.02693 0.0
O52 O 0.07865 0.09234 0.07194 0.0
O53 O 0.09307 0.14243 1.00003 0.0
O54 O 0.87933 0.93468 0.9868 0.0
O55 O 0.03589 0.13404 0.93953 0.0
C56 C 0.13628 0.05023 0.98163 0.0
C57 C 0.19059 0.02588 0.14321 0.0
C58 C 0.23117 0.98112 0.19068 0.0
C59 C 0.19495 0.97411 0.15083 0.0
C60 C 0.26284 0.0413 0.22335 0.0
C61 C 0.22479 0.08707 0.17568 0.0
C62 C 0.25926 0.09352 0.21588 0.0
C63 C 0.97597 0.87922 0.96241 0.0
C64 C 0.15753 0.01877 0.09886 0.0
C65 C 0.87374 0.80909 0.21667 0.0
C66 C 0.81799 0.74163 0.18696 0.0
C67 C 0.90098 0.94051 0.02797 0.0
C68 C 0.9433 0.10542 0.8899 0.0
C69 C 0.9052 0.12642 0.8907 0.0
C70 C 0.88983 0.14204 0.84966 0.0
C71 C 0.91365 0.13687 0.80812 0.0
C72 C 0.96594 0.10013 0.84787 0.0
C73 C 0.95091 0.11553 0.8072 0.0
C74 C 0.10195 0.15022 0.04515 0.0
C75 C 0.96029 0.09054 0.93299 0.0
H76 H 0.173 0.93044 0.12435 0.0
H77 H 0.29033 0.04815 0.25471 0.0
H78 H 0.22638 0.13079 0.16986 0.0
H79 H 0.28462 0.14018 0.24104 0.0
H80 H 0.88758 0.13052 0.92313 0.0
H81 H 0.90524 0.15136 0.77642 0.0
H82 H 0.99612 0.08523 0.8464 0.0
H83 H 0.96906 0.11195 0.7749 0.0
Tb84 Tb 0.01721 0.06902 0.55085 0.0
C85 C 0.89578 0.82546 0.40441 0.0
C86 C 0.86283 0.71244 0.4331 0.0
C87 C 0.78371 0.68862 0.37033 0.0
C88 C 0.90982 0.79573 0.43487 0.0
C89 C 0.83383 0.77273 0.37091 0.0
C90 C 0.79833 0.65851 0.40135 0.0
C91 C 0.88246 0.8918 0.33757 0.0
N92 N 0.94616 0.90724 0.4059 0.0
C93 C 0.94373 0.94168 0.37111 0.0
C94 C 0.8258 0.80661 0.33824 0.0
Tb95 Tb 0.04008 0.98227 0.4648 0.0
N96 N 0.97248 0.84982 0.46496 0.0
C97 C 0.9962 0.826 0.49173 0.0
C98 C 0.88359 0.68657 0.4624 0.0
C99 C 0.9514 0.74398 0.49135 0.0
H100 H 0.98671 0.00727 0.3695 0.0
H101 H 0.96894 0.72501 0.51357 0.0
H102 H 0.76085 0.59405 0.39974 0.0
H103 H 0.87863 0.91914 0.31142 0.0
H104 H 0.04785 0.86952 0.51469 0.0
H105 H 0.32173 0.38952 0.51873 0.0
H106 H 0.84894 0.62307 0.46218 0.0
H107 H 0.93658 0.96154 0.64808 0.0
H108 H 0.19769 0.24843 0.49685 0.0
H109 H 0.96083 0.9917 0.72947 0.0
H110 H 0.73523 0.647 0.34516 0.0
H111 H 0.35454 0.4296 0.60004 0.0
H112 H 0.31787 0.38755 0.68178 0.0
H113 H 0.77786 0.76804 0.31254 0.0
H114 H 0.22166 0.27896 0.73905 0.0
N115 N 0.1484 0.20399 0.56483 0.0
C116 C 0.20484 0.26272 0.53246 0.0
C117 C 0.2971 0.36647 0.59064 0.0
C118 C 0.24301 0.30625 0.62382 0.0
C119 C 0.27848 0.34421 0.54479 0.0
C120 C 0.16901 0.22452 0.60976 0.0
H121 H 0.0872 0.13317 0.75698 0.0
N122 N 0.04938 0.08435 0.62713 0.0
C123 C 0.00696 0.0401 0.70537 0.0
C124 C 0.11757 0.16282 0.64186 0.0
C125 C 0.99398 0.02329 0.65861 0.0
C126 C 0.07793 0.11985 0.72069 0.0
C127 C 0.135 0.18211 0.68898 0.0
O128 O 0.90083 0.9926 0.57897 0.0
O129 O 0.96209 0.98069 0.49621 0.0
O130 O 0.06945 0.08393 0.43456 0.0
O131 O 0.05711 0.14221 0.4906 0.0
O132 O 0.92516 0.02973 0.50316 0.0
O133 O 0.99011 0.12568 0.57429 0.0
O134 O 0.11018 0.04316 0.40486 0.0
O135 O 0.09671 0.0731 0.51886 0.0
O136 O 0.98431 0.96437 0.57825 0.0
O137 O 0.94523 0.88552 0.5139 0.0
O138 O 0.12306 0.01345 0.51685 0.0
O139 O 0.13168 0.99506 0.45157 0.0
C140 C 0.91277 0.97707 0.48054 0.0
C141 C 0.88626 0.05329 0.63181 0.0
C142 C 0.8518 0.10518 0.67733 0.0
C143 C 0.89185 0.11273 0.6398 0.0
C144 C 0.8077 0.03898 0.70759 0.0
C145 C 0.84046 0.98652 0.66225 0.0
C146 C 0.80356 0.98094 0.70058 0.0
C147 C 0.07213 0.13673 0.44838 0.0
C148 C 0.91679 0.05491 0.58806 0.0
C149 C 0.20725 0.26337 0.70306 0.0
C150 C 0.26163 0.32519 0.67051 0.0
C151 C 0.13669 0.06753 0.53842 0.0
C152 C 0.14128 0.98196 0.37243 0.0
C153 C 0.17877 0.96015 0.37608 0.0
C154 C 0.17379 0.91869 0.33993 0.0
C155 C 0.12955 0.89879 0.30037 0.0
C156 C 0.099 0.96224 0.332 0.0
C157 C 0.09291 0.92063 0.2965 0.0
C158 C 0.94673 0.89431 0.55884 0.0
C159 C 0.14578 0.02443 0.41083 0.0
H160 H 0.92244 0.1616 0.61518 0.0
H161 H 0.77322 0.02993 0.73541 0.0
H162 H 0.82999 0.93661 0.65574 0.0
H163 H 0.76804 0.9291 0.7236 0.0
H164 H 0.21084 0.97468 0.40733 0.0
H165 H 0.12488 0.86827 0.27154 0.0
H166 H 0.07043 0.97883 0.32764 0.0
H167 H 0.06024 0.90586 0.26552 0.0
Zn168 Zn 0.39004 0.70328 0.16774 0.0
Zn169 Zn 0.39207 0.68979 0.34312 0.0
Zn170 Zn 0.40638 0.69491 0.25349 0.0
C171 C 0.55358 0.77816 0.31899 0.0
C172 C 0.28921 0.5281 0.31098 0.0
O173 O 0.37785 0.75839 0.23573 0.0
O174 O 0.36903 0.76382 0.161 0.0
C175 C 0.54913 0.77844 0.18546 0.0
O176 O 0.53026 0.76796 0.27748 0.0
O177 O 0.50554 0.75035 0.35199 0.0
O178 O 0.30455 0.56747 0.34619 0.0
O179 O 0.32204 0.56508 0.27233 0.0
O180 O 0.50142 0.7599 0.15513 0.0
O181 O 0.52856 0.76484 0.22789 0.0
O182 O 0.32416 0.57065 0.22265 0.0
O183 O 0.30065 0.58395 0.1534 0.0
C184 C 0.28951 0.53978 0.18311 0.0
O185 O 0.35859 0.73622 0.28239 0.0
O186 O 0.36317 0.74289 0.35797 0.0
C187 C 0.36748 0.78139 0.20096 0.0
C188 C 0.34588 0.75159 0.32052 0.0
Zn189 Zn 0.66658 0.35128 0.82473 0.0
Zn190 Zn 0.59498 0.28973 0.67014 0.0
Zn191 Zn 0.6413 0.34183 0.74638 0.0
C192 C 0.69449 0.46095 0.67205 0.0
C193 C 0.45342 0.20654 0.70458 0.0
O194 O 0.67894 0.28667 0.76576 0.0
O195 O 0.66142 0.27189 0.84057 0.0
C196 C 0.78541 0.51019 0.79833 0.0
O197 O 0.7127 0.4607 0.71308 0.0
O198 O 0.64171 0.39399 0.64981 0.0
O199 O 0.47449 0.19367 0.67147 0.0
O200 O 0.50751 0.26139 0.73492 0.0
O201 O 0.77955 0.46531 0.82349 0.0
O202 O 0.73483 0.47629 0.76466 0.0
O203 O 0.52729 0.27381 0.78305 0.0
O204 O 0.57923 0.33004 0.85118 0.0
C205 C 0.51841 0.28355 0.82442 0.0
O206 O 0.68293 0.29366 0.71853 0.0
O207 O 0.64986 0.26972 0.64538 0.0
C208 C 0.67781 0.2601 0.80404 0.0
C209 C 0.68404 0.27279 0.67831 0.0
H210 H 0.35726 0.02196 0.23055 0.0
H211 H 0.12187 0.81964 0.16438 0.0
H212 H 0.14434 0.74115 0.16107 0.0
H213 H 0.23493 0.73346 0.17184 0.0
H214 H 0.46236 0.92719 0.24545 0.0
H215 H 0.43844 0.00524 0.25163 0.0
C216 C 0.30995 0.96013 0.2162 0.0
C217 C 0.23924 0.92839 0.19619 0.0
C218 C 0.32229 0.91413 0.21528 0.0
C219 C 0.17859 0.8475 0.17824 0.0
C220 C 0.19104 0.80212 0.17655 0.0
C221 C 0.27897 0.79276 0.18927 0.0
C222 C 0.35076 0.82563 0.20754 0.0
C223 C 0.26364 0.83578 0.19373 0.0
C224 C 0.40695 0.90145 0.23089 0.0
C225 C 0.39325 0.94587 0.23438 0.0
H226 H 0.11937 0.00123 0.61788 0.0
H227 H 0.28123 0.23005 0.54462 0.0
H228 H 0.38502 0.30151 0.60399 0.0
H229 H 0.44168 0.29149 0.66535 0.0
H230 H 0.29578 0.05478 0.7248 0.0
H231 H 0.17365 0.99371 0.68451 0.0
C232 C 0.17621 0.0674 0.61622 0.0
C233 C 0.19033 0.1121 0.57883 0.0
C234 C 0.23911 0.106 0.64822 0.0
C235 C 0.26613 0.19638 0.57509 0.0
C236 C 0.32645 0.23663 0.60851 0.0
C237 C 0.38203 0.22746 0.67111 0.0
C238 C 0.37691 0.17803 0.69867 0.0
C239 C 0.31503 0.19134 0.64404 0.0
C240 C 0.30049 0.09439 0.70467 0.0
C241 C 0.23117 0.05924 0.68084 0.0
H242 H 0.19035 0.23106 0.12383 0.0
H243 H 0.07622 0.23072 0.01419 0.0
H244 H 0.11509 0.3446 0.05041 0.0
H245 H 0.18473 0.44671 0.1119 0.0
H246 H 0.307 0.45379 0.21867 0.0
H247 H 0.25681 0.33109 0.18698 0.0
C248 C 0.17248 0.25466 0.10842 0.0
C249 C 0.1299 0.22194 0.0666 0.0
C250 C 0.19478 0.32008 0.12958 0.0
C251 C 0.10992 0.25545 0.04611 0.0
C252 C 0.13135 0.32003 0.06703 0.0
C253 C 0.19916 0.42051 0.12873 0.0
C254 C 0.2474 0.45779 0.16869 0.0
C255 C 0.17402 0.35299 0.10867 0.0
C256 C 0.26657 0.42381 0.18951 0.0
C257 C 0.23959 0.35488 0.17058 0.0
H258 H 0.74011 0.07449 0.63169 0.0
H259 H 0.93892 0.24605 0.7275 0.0
H260 H 0.9068 0.31664 0.73577 0.0
H261 H 0.81565 0.32361 0.71809 0.0
H262 H 0.61782 0.14955 0.62137 0.0
H263 H 0.65667 0.08679 0.61042 0.0
C264 C 0.77687 0.12806 0.6539 0.0
C265 C 0.84067 0.15473 0.67941 0.0
C266 C 0.75822 0.16786 0.65819 0.0
C267 C 0.88847 0.22395 0.70815 0.0
C268 C 0.87044 0.26448 0.7126 0.0
C269 C 0.78179 0.27241 0.69445 0.0
C270 C 0.71359 0.24067 0.67093 0.0
C271 C 0.80441 0.23605 0.68829 0.0
C272 C 0.67049 0.17492 0.63996 0.0
C273 C 0.69238 0.13872 0.63373 0.0
H274 H 0.74414 0.79345 0.04667 0.0
H275 H 0.94798 0.04114 0.09905 0.0
H276 H 0.86052 0.01151 0.15896 0.0
H277 H 0.71868 0.91864 0.18928 0.0
H278 H 0.52144 0.66675 0.141 0.0
H279 H 0.61427 0.69291 0.08854 0.0
C280 C 0.77025 0.83993 0.07227 0.0
C281 C 0.85252 0.91886 0.06868 0.0
C282 C 0.7205 0.82149 0.10761 0.0
C283 C 0.88507 0.97929 0.10144 0.0
C284 C 0.83484 0.9625 0.13565 0.0
C285 C 0.69723 0.86897 0.16862 0.0
C286 C 0.61329 0.79113 0.16858 0.0
C287 C 0.75152 0.88428 0.13831 0.0
C288 C 0.58593 0.72722 0.14144 0.0
C289 C 0.63868 0.74226 0.11103 0.0
H290 H 0.82923 0.73436 0.5333 0.0
H291 H 0.97036 0.89289 0.65067 0.0
H292 H 0.90177 0.7731 0.69767 0.0
H293 H 0.80221 0.621 0.70435 0.0
H294 H 0.67409 0.47017 0.58293 0.0
H295 H 0.7368 0.58838 0.53909 0.0
C296 C 0.84568 0.74314 0.56907 0.0
C297 C 0.90457 0.82253 0.58829 0.0
C298 C 0.80826 0.67477 0.59537 0.0
C299 C 0.92401 0.83225 0.635 0.0
C300 C 0.88536 0.76374 0.66187 0.0
C301 C 0.78954 0.61471 0.66831 0.0
C302 C 0.73447 0.53656 0.64742 0.0
C303 C 0.82762 0.68441 0.6423 0.0
C304 C 0.71627 0.52902 0.60055 0.0
C305 C 0.75222 0.59687 0.57503 0.0
H306 H 0.12275 0.78422 0.30296 0.0
H307 H 0.31967 0.00492 0.38258 0.0
H308 H 0.3884 0.97141 0.38533 0.0
H309 H 0.39479 0.88071 0.36344 0.0
H310 H 0.20399 0.66813 0.27809 0.0
H311 H 0.13169 0.69807 0.27856 0.0
C312 C 0.18122 0.82601 0.32049 0.0
C313 C 0.21526 0.89717 0.34265 0.0
C314 C 0.2219 0.80781 0.32079 0.0
C315 C 0.2905 0.94884 0.36594 0.0
C316 C 0.33052 0.93015 0.36719 0.0
C317 C 0.33739 0.84122 0.345 0.0
C318 C 0.30475 0.77258 0.32055 0.0
C319 C 0.297 0.85995 0.34461 0.0
C320 C 0.23041 0.72163 0.29682 0.0
C321 C 0.18898 0.73858 0.29724 0.0
H322 H 0.15944 0.0148 0.90294 0.0
H323 H 0.27617 0.21169 0.9983 0.0
H324 H 0.40537 0.30467 0.95561 0.0
H325 H 0.48604 0.32665 0.8937 0.0
H326 H 0.36943 0.13048 0.79761 0.0
H327 H 0.23769 0.0411 0.83656 0.0
C328 C 0.21305 0.07863 0.91359 0.0
C329 C 0.20878 0.10794 0.95252 0.0
C330 C 0.28637 0.13151 0.88864 0.0
C331 C 0.27841 0.18944 0.96743 0.0
C332 C 0.35198 0.24212 0.94324 0.0
C333 C 0.43145 0.26469 0.88097 0.0
C334 C 0.437 0.23507 0.84278 0.0
C335 C 0.35675 0.21355 0.90404 0.0
C336 C 0.36604 0.15499 0.82638 0.0
C337 C 0.29116 0.1035 0.84911 0.0
H338 H 0.18567 0.22334 0.37956 0.0
H339 H 0.99802 0.17541 0.44314 0.0
H340 H 0.03835 0.28282 0.39744 0.0
H341 H 0.14062 0.40473 0.34927 0.0
H342 H 0.34029 0.46638 0.29368 0.0
H343 H 0.28107 0.33902 0.32461 0.0
C344 C 0.15268 0.23542 0.38243 0.0
C345 C 0.08956 0.19225 0.41481 0.0
C346 C 0.17848 0.29996 0.35723 0.0
C347 C 0.04748 0.20863 0.41871 0.0
C348 C 0.07043 0.27001 0.3926 0.0
C349 C 0.16917 0.38834 0.34256 0.0
C350 C 0.24254 0.44268 0.31764 0.0
C351 C 0.13778 0.31815 0.36311 0.0
C352 C 0.28113 0.42294 0.31049 0.0
C353 C 0.24833 0.3511 0.32922 0.0
H354 H 0.76547 0.08271 0.79577 0.0
H355 H 0.93035 0.25803 0.90361 0.0
H356 H 0.87713 0.30809 0.8994 0.0
H357 H 0.7889 0.30674 0.86252 0.0
H358 H 0.62488 0.13337 0.75405 0.0
H359 H 0.67308 0.07786 0.76046 0.0
C360 C 0.78989 0.13203 0.81816 0.0
C361 C 0.85225 0.16708 0.84967 0.0
C362 C 0.75955 0.16099 0.81515 0.0
C363 C 0.88199 0.22967 0.87931 0.0
C364 C 0.85202 0.25869 0.87667 0.0
C365 C 0.7637 0.25664 0.84037 0.0
C366 C 0.70485 0.22502 0.80723 0.0
C367 C 0.79168 0.22555 0.84435 0.0
C368 C 0.67158 0.15957 0.77909 0.0
C369 C 0.69868 0.12762 0.78303 0.0
H370 H 0.89681 0.0308 0.40949 0.0
H371 H 0.78701 0.80945 0.47325 0.0
H372 H 0.66782 0.72499 0.42203 0.0
H373 H 0.58874 0.71699 0.36627 0.0
H374 H 0.70064 0.93834 0.30109 0.0
H375 H 0.82791 0.02084 0.34423 0.0
C376 C 0.84766 0.96399 0.41124 0.0
C377 C 0.85083 0.92589 0.44424 0.0
C378 C 0.78056 0.91644 0.38133 0.0
C379 C 0.78637 0.83953 0.4472 0.0
C380 C 0.71826 0.79157 0.41819 0.0
C381 C 0.64225 0.78296 0.36036 0.0
C382 C 0.63603 0.82203 0.33074 0.0
C383 C 0.71402 0.82958 0.38588 0.0
C384 C 0.70485 0.90727 0.32334 0.0
C385 C 0.77687 0.95434 0.34855 0.0
H386 H 0.99224 0.86667 0.87155 0.0
H387 H 0.89271 0.7312 0.99802 0.0
H388 H 0.82278 0.60643 0.95708 0.0
H389 H 0.78374 0.5341 0.88622 0.0
H390 H 0.89027 0.66606 0.75871 0.0
H391 H 0.96004 0.79372 0.7986 0.0
C392 C 0.95366 0.80938 0.88977 0.0
C393 C 0.94412 0.80748 0.93751 0.0
C394 C 0.91383 0.73734 0.86575 0.0
C395 C 0.89917 0.73425 0.96129 0.0
C396 C 0.85902 0.66265 0.93785 0.0
C397 C 0.82257 0.59078 0.86683 0.0
C398 C 0.82966 0.58995 0.81914 0.0
C399 C 0.86481 0.66333 0.89018 0.0
C400 C 0.88028 0.664 0.79487 0.0
C401 C 0.92149 0.7372 0.81797 0.0
loop_
_geom_bond_atom_site_label_1
_geom_bond_atom_site_label_2
_geom_bond_distance
_geom_bond_site_symmetry_2
_ccdc_geom_bond_type
Tb0 N31 2.660 1_455 S
Tb0 N38 2.600 . S
Tb0 O44 2.546 1_565 S
Tb0 O45 2.610 1_564 S
Tb0 O47 2.320 1_454 S
Tb0 O48 2.552 1_565 S
Tb0 O49 2.413 . S
Tb0 O51 2.362 1_455 S
Tb0 O52 2.421 1_565 S
Tb0 C64 2.833 . S
C1 C4 1.432 . S
C1 C5 1.414 . S
C1 N8 1.359 1_455 S
C2 C4 1.417 . S
C2 C6 1.432 . S
C2 C14 1.410 . S
C3 C5 1.444 . S
C3 C6 1.317 . S
C3 H26 0.929 . S
C4 C1 1.432 . S
C4 C2 1.417 . S
C4 N12 1.360 . S
C5 C1 1.414 . S
C5 C3 1.444 . S
C5 C10 1.385 1_455 S
C6 C2 1.432 . S
C6 C3 1.317 . S
C6 H18 0.930 . S
C7 C9 1.392 . S
C7 C10 1.370 1_565 S
C7 H19 0.931 . S
N8 C1 1.359 1_655 S
N8 C9 1.327 1_545 S
N8 Tb11 2.600 . S
C9 C7 1.392 . S
C9 N8 1.327 1_565 S
C9 H16 0.930 . S
C10 C5 1.385 1_655 S
C10 C7 1.370 1_545 S
C10 H29 0.930 . S
Tb11 N8 2.600 . S
Tb11 N12 2.660 1_655 S
Tb11 O45 2.362 1_655 S
Tb11 O46 2.421 1_545 S
Tb11 O50 2.546 1_545 S
Tb11 O51 2.610 1_546 S
Tb11 O53 2.320 1_656 S
Tb11 O54 2.552 1_545 S
Tb11 O55 2.413 . S
Tb11 C75 2.833 . S
N12 C4 1.360 . S
N12 Tb11 2.660 1_455 S
N12 C13 1.305 . S
C13 N12 1.305 . S
C13 C15 1.407 . S
C13 H20 0.930 . S
C14 C2 1.410 . S
C14 C15 1.345 . S
C14 H22 0.930 . S
C15 C13 1.407 . S
C15 C14 1.345 . S
C15 H17 0.930 . S
H16 C9 0.930 . S
H17 C15 0.930 . S
H18 C6 0.930 . S
H19 C7 0.931 . S
H20 C13 0.930 . S
H21 C35 0.930 . S
H22 C14 0.930 . S
H23 C41 0.930 . S
H24 C32 0.930 . S
H25 C39 0.931 . S
H26 C3 0.929 . S
H27 C33 0.930 . S
H28 C66 0.930 . S
H29 C10 0.930 . S
H30 C65 0.929 . S
N31 Tb0 2.660 1_655 S
N31 C32 1.305 . S
N31 C36 1.360 . S
C32 H24 0.930 . S
C32 N31 1.305 . S
C32 C35 1.407 . S
C33 H27 0.930 . S
C33 C34 1.410 . S
C33 C35 1.345 . S
C34 C33 1.410 . S
C34 C36 1.417 . S
C34 C66 1.432 . S
C35 H21 0.930 . S
C35 C32 1.407 . S
C35 C33 1.345 . S
C36 N31 1.360 . S
C36 C34 1.417 . S
C36 C40 1.432 . S
H37 C42 0.930 . S
N38 Tb0 2.600 . S
N38 C40 1.359 1_455 S
N38 C41 1.327 1_565 S
C39 H25 0.931 . S
C39 C41 1.392 . S
C39 C42 1.370 1_545 S
C40 C36 1.432 . S
C40 N38 1.359 1_655 S
C40 C43 1.414 . S
C41 H23 0.930 . S
C41 N38 1.327 1_545 S
C41 C39 1.392 . S
C42 H37 0.930 . S
C42 C39 1.370 1_565 S
C42 C43 1.385 1_455 S
C43 C40 1.414 . S
C43 C42 1.385 1_655 S
C43 C65 1.444 . S
O44 Tb0 2.546 1_545 S
O44 C64 1.251 1_545 S
O45 Tb0 2.610 1_546 S
O45 Tb11 2.362 1_455 S
O45 C56 1.283 . S
O46 Tb11 2.421 1_565 S
O46 C63 1.262 . S
O47 Tb0 2.320 1_656 S
O47 C63 1.260 . S
O48 Tb0 2.552 1_545 S
O48 C56 1.243 1_554 S
O49 Tb0 2.413 . S
O49 C64 1.256 . S
O50 Tb11 2.546 1_565 S
O50 C75 1.251 1_565 S
O51 Tb0 2.362 1_655 S
O51 Tb11 2.610 1_564 S
O51 C67 1.283 . S
O52 Tb0 2.421 1_545 S
O52 C74 1.262 . S
O53 Tb11 2.320 1_454 S
O53 C74 1.260 . S
O54 Tb11 2.552 1_565 S
O54 C67 1.243 1_556 S
O55 Tb11 2.413 . S
O55 C75 1.256 . S
C56 O45 1.283 . S
C56 O48 1.243 1_556 S
C57 C59 1.382 . S
C57 C61 1.393 . S
C57 C64 1.500 . S
C58 C59 1.400 . S
C58 C60 1.384 . S
C59 C57 1.382 . S
C59 C58 1.400 . S
C59 H76 0.930 . S
C60 C58 1.384 . S
C60 C62 1.392 . S
C60 H77 0.931 . S
C61 C57 1.393 . S
C61 C62 1.401 . S
C61 H78 0.930 . S
C62 C60 1.392 . S
C62 C61 1.401 . S
C62 H79 0.930 . S
C63 O46 1.262 . S
C63 O47 1.260 . S
C64 Tb0 2.833 . S
C64 O44 1.251 1_565 S
C64 O49 1.256 . S
C64 C57 1.500 . S
C65 H30 0.929 . S
C65 C43 1.444 . S
C65 C66 1.317 . S
C66 H28 0.930 . S
C66 C34 1.432 . S
C66 C65 1.317 . S
C67 O51 1.283 . S
C67 O54 1.243 1_554 S
C68 C69 1.382 . S
C68 C72 1.393 . S
C68 C75 1.500 . S
C69 C68 1.382 . S
C69 C70 1.400 . S
C69 H80 0.930 . S
C70 C69 1.400 . S
C70 C71 1.384 . S
C71 C70 1.384 . S
C71 C73 1.392 . S
C71 H81 0.931 . S
C72 C68 1.393 . S
C72 C73 1.401 . S
C72 H82 0.930 . S
C73 C71 1.392 . S
C73 C72 1.401 . S
C73 H83 0.930 . S
C74 O52 1.262 . S
C74 O53 1.260 . S
C75 Tb11 2.833 . S
C75 O50 1.251 1_545 S
C75 O55 1.256 . S
C75 C68 1.500 . S
H76 C59 0.930 . S
H77 C60 0.931 . S
H78 C61 0.930 . S
H79 C62 0.930 . S
H80 C69 0.930 . S
H81 C71 0.931 . S
H82 C72 0.930 . S
H83 C73 0.930 . S
Tb84 N115 2.660 1_655 S
Tb84 N122 2.600 1_655 S
Tb84 O128 2.546 . S
Tb84 O129 2.610 1_545 S
Tb84 O131 2.320 1_655 S
Tb84 O132 2.552 1_545 S
Tb84 O133 2.413 . S
Tb84 O135 2.362 1_655 S
Tb84 O136 2.421 1_545 S
Tb84 C148 2.833 . S
C85 C88 1.432 . S
C85 C89 1.414 . S
C85 N92 1.359 1_665 S
C86 C88 1.417 . S
C86 C90 1.432 . S
C86 C98 1.410 . S
C87 C89 1.444 . S
C87 C90 1.317 . S
C87 H110 0.929 . S
C88 C85 1.432 . S
C88 C86 1.417 . S
C88 N96 1.360 . S
C89 C85 1.414 . S
C89 C87 1.444 . S
C89 C94 1.385 1_665 S
C90 C86 1.432 . S
C90 C87 1.317 . S
C90 H102 0.930 . S
C91 C93 1.392 . S
C91 C94 1.370 . S
C91 H103 0.931 . S
N92 C85 1.359 1_445 S
N92 C93 1.327 . S
N92 Tb95 2.600 1_545 S
C93 C91 1.392 . S
C93 N92 1.327 . S
C93 H100 0.930 . S
C94 C89 1.385 1_445 S
C94 C91 1.370 . S
C94 H113 0.930 . S
Tb95 N92 2.600 1_565 S
Tb95 N96 2.660 1_455 S
Tb95 O129 2.362 1_455 S
Tb95 O130 2.421 1_565 S
Tb95 O134 2.546 1_565 S
Tb95 O135 2.610 1_565 S
Tb95 O137 2.320 1_455 S
Tb95 O138 2.552 1_565 S
Tb95 O139 2.413 . S
Tb95 C159 2.833 . S
N96 C88 1.360 . S
N96 Tb95 2.660 1_655 S
N96 C97 1.305 . S
C97 N96 1.305 . S
C97 C99 1.407 . S
C97 H104 0.930 . S
C98 C86 1.410 . S
C98 C99 1.345 . S
C98 H106 0.930 . S
C99 C97 1.407 . S
C99 C98 1.345 . S
C99 H101 0.930 . S
H100 C93 0.930 . S
H101 C99 0.930 . S
H102 C90 0.930 . S
H103 C91 0.931 . S
H104 C97 0.930 . S
H105 C119 0.930 . S
H106 C98 0.930 . S
H107 C125 0.930 . S
H108 C116 0.930 . S
H109 C123 0.931 . S
H110 C87 0.929 . S
H111 C117 0.930 . S
H112 C150 0.930 . S
H113 C94 0.930 . S
H114 C149 0.929 . S
N115 Tb84 2.660 1_455 S
N115 C116 1.305 . S
N115 C120 1.360 . S
C116 H108 0.930 . S
C116 N115 1.305 . S
C116 C119 1.407 . S
C117 H111 0.930 . S
C117 C118 1.410 . S
C117 C119 1.345 . S
C118 C117 1.410 . S
C118 C120 1.417 . S
C118 C150 1.432 . S
C119 H105 0.930 . S
C119 C116 1.407 . S
C119 C117 1.345 . S
C120 N115 1.360 . S
C120 C118 1.417 . S
C120 C124 1.432 . S
H121 C126 0.930 . S
N122 Tb84 2.600 1_455 S
N122 C124 1.359 . S
N122 C125 1.327 1_445 S
C123 H109 0.931 . S
C123 C125 1.392 . S
C123 C126 1.370 1_665 S
C124 C120 1.432 . S
C124 N122 1.359 . S
C124 C127 1.414 . S
C125 H107 0.930 . S
C125 N122 1.327 1_665 S
C125 C123 1.392 . S
C126 H121 0.930 . S
C126 C123 1.370 1_445 S
C126 C127 1.385 . S
C127 C124 1.414 . S
C127 C126 1.385 . S
C127 C149 1.444 . S
O128 Tb84 2.546 . S
O128 C148 1.251 . S
O129 Tb84 2.610 1_565 S
O129 Tb95 2.362 1_655 S
O129 C140 1.283 . S
O130 Tb95 2.421 1_545 S
O130 C147 1.262 . S
O131 Tb84 2.320 1_455 S
O131 C147 1.260 . S
O132 Tb84 2.552 1_565 S
O132 C140 1.243 . S
O133 Tb84 2.413 . S
O133 C148 1.256 . S
O134 Tb95 2.546 1_545 S
O134 C159 1.251 1_545 S
O135 Tb84 2.362 1_455 S
O135 Tb95 2.610 1_545 S
O135 C151 1.283 . S
O136 Tb84 2.421 1_565 S
O136 C158 1.262 . S
O137 Tb95 2.320 1_655 S
O137 C158 1.260 . S
O138 Tb95 2.552 1_545 S
O138 C151 1.243 . S
O139 Tb95 2.413 . S
O139 C159 1.256 . S
C140 O129 1.283 . S
C140 O132 1.243 . S
C141 C143 1.382 . S
C141 C145 1.393 . S
C141 C148 1.500 . S
C142 C143 1.400 . S
C142 C144 1.384 . S
C143 C141 1.382 . S
C143 C142 1.400 . S
C143 H160 0.930 . S
C144 C142 1.384 . S
C144 C146 1.392 . S
C144 H161 0.931 . S
C145 C141 1.393 . S
C145 C146 1.401 . S
C145 H162 0.930 . S
C146 C144 1.392 . S
C146 C145 1.401 . S
C146 H163 0.930 . S
C147 O130 1.262 . S
C147 O131 1.260 . S
C148 Tb84 2.833 . S
C148 O128 1.251 . S
C148 O133 1.256 . S
C148 C141 1.500 . S
C149 H114 0.929 . S
C149 C127 1.444 . S
C149 C150 1.317 . S
C150 H112 0.930 . S
C150 C118 1.432 . S
C150 C149 1.317 . S
C151 O135 1.283 . S
C151 O138 1.243 . S
C152 C153 1.382 . S
C152 C156 1.393 . S
C152 C159 1.500 . S
C153 C152 1.382 . S
C153 C154 1.400 . S
C153 H164 0.930 . S
C154 C153 1.400 . S
C154 C155 1.384 . S
C155 C154 1.384 . S
C155 C157 1.392 . S
C155 H165 0.931 . S
C156 C152 1.393 . S
C156 C157 1.401 . S
C156 H166 0.930 1_565 S
C157 C155 1.392 . S
C157 C156 1.401 . S
C157 H167 0.930 . S
C158 O136 1.262 . S
C158 O137 1.260 . S
C159 Tb95 2.833 . S
C159 O134 1.251 1_565 S
C159 O139 1.256 . S
C159 C152 1.500 . S
H160 C143 0.930 . S
H161 C144 0.931 . S
H162 C145 0.930 . S
H163 C146 0.930 . S
H164 C153 0.930 . S
H165 C155 0.931 . S
H166 C156 0.930 1_545 S
H167 C157 0.930 . S
Zn168 O174 1.920 . S
Zn168 O180 1.898 . S
Zn168 O183 1.905 . S
Zn169 O177 1.905 . S
Zn169 O178 1.898 . S
Zn169 O186 1.920 . S
Zn170 O173 2.080 . S
Zn170 O176 2.114 . S
Zn170 O179 2.120 . S
Zn170 O181 2.120 . S
Zn170 O182 2.114 . S
Zn170 O185 2.080 . S
C171 O176 1.166 . S
C171 O177 1.182 . S
C172 O178 1.167 . S
C172 O179 1.299 . S
O173 Zn170 2.080 . S
O173 C187 1.305 . S
O174 Zn168 1.920 . S
O174 C187 1.234 . S
C175 O180 1.167 . S
C175 O181 1.299 . S
O176 Zn170 2.114 . S
O176 C171 1.166 . S
O177 Zn169 1.905 . S
O177 C171 1.182 . S
O178 Zn169 1.898 . S
O178 C172 1.167 . S
O179 Zn170 2.120 . S
O179 C172 1.299 . S
O180 Zn168 1.898 . S
O180 C175 1.167 . S
O181 Zn170 2.120 . S
O181 C175 1.299 . S
O182 Zn170 2.114 . S
O182 C184 1.166 . S
O183 Zn168 1.905 . S
O183 C184 1.182 . S
C184 O182 1.166 . S
C184 O183 1.182 . S
O185 Zn170 2.080 . S
O185 C188 1.305 . S
O186 Zn169 1.920 . S
O186 C188 1.234 . S
C187 O173 1.305 . S
C187 O174 1.234 . S
C188 O185 1.305 . S
C188 O186 1.234 . S
Zn189 O195 1.920 . S
Zn189 O201 1.898 . S
Zn189 O204 1.905 . S
Zn190 O198 1.905 . S
Zn190 O199 1.898 . S
Zn190 O207 1.920 . S
Zn191 O194 2.080 . S
Zn191 O197 2.114 . S
Zn191 O200 2.120 . S
Zn191 O202 2.120 . S
Zn191 O203 2.114 . S
Zn191 O206 2.080 . S
C192 O197 1.166 . S
C192 O198 1.182 . S
C193 O199 1.167 . S
C193 O200 1.299 . S
O194 Zn191 2.080 . S
O194 C208 1.305 . S
O195 Zn189 1.920 . S
O195 C208 1.234 . S
C196 O201 1.167 . S
C196 O202 1.299 . S
O197 Zn191 2.114 . S
O197 C192 1.166 . S
O198 Zn190 1.905 . S
O198 C192 1.182 . S
O199 Zn190 1.898 . S
O199 C193 1.167 . S
O200 Zn191 2.120 . S
O200 C193 1.299 . S
O201 Zn189 1.898 . S
O201 C196 1.167 . S
O202 Zn191 2.120 . S
O202 C196 1.299 . S
O203 Zn191 2.114 . S
O203 C205 1.166 . S
O204 Zn189 1.905 . S
O204 C205 1.182 . S
C205 O203 1.166 . S
C205 O204 1.182 . S
O206 Zn191 2.080 . S
O206 C209 1.305 . S
O207 Zn190 1.920 . S
O207 C209 1.234 . S
C208 O194 1.305 . S
C208 O195 1.234 . S
C209 O206 1.305 . S
C209 O207 1.234 . S
H210 C216 0.930 . S
H211 C219 0.930 . S
H212 C220 0.930 . S
H213 C221 0.930 . S
H214 C224 0.930 . S
H215 C225 0.930 . S
C216 H210 0.930 . S
C216 C217 1.355 . S
C216 C218 1.415 . S
C217 C216 1.355 . S
C217 C219 1.419 . S
C218 C216 1.415 . S
C218 C223 1.425 . S
C218 C225 1.409 . S
C219 H211 0.930 . S
C219 C217 1.419 . S
C219 C220 1.362 . S
C220 H212 0.930 . S
C220 C219 1.362 . S
C220 C223 1.409 . S
C221 H213 0.930 . S
C221 C222 1.355 . S
C221 C223 1.415 . S
C222 C221 1.355 . S
C222 C224 1.419 . S
C223 C218 1.425 . S
C223 C220 1.409 . S
C223 C221 1.415 . S
C224 H214 0.930 . S
C224 C222 1.419 . S
C224 C225 1.362 . S
C225 H215 0.930 . S
C225 C218 1.409 . S
C225 C224 1.362 . S
H226 C232 0.930 . S
H227 C235 0.930 . S
H228 C236 0.930 . S
H229 C237 0.930 . S
H230 C240 0.930 . S
H231 C241 0.930 . S
C232 H226 0.930 . S
C232 C233 1.355 . S
C232 C234 1.415 . S
C233 C232 1.355 . S
C233 C235 1.419 . S
C234 C232 1.415 . S
C234 C239 1.425 . S
C234 C241 1.409 . S
C235 H227 0.930 . S
C235 C233 1.419 . S
C235 C236 1.362 . S
C236 H228 0.930 . S
C236 C235 1.362 . S
C236 C239 1.409 . S
C237 H229 0.930 . S
C237 C238 1.355 . S
C237 C239 1.415 . S
C238 C237 1.355 . S
C238 C240 1.419 . S
C239 C234 1.425 . S
C239 C236 1.409 . S
C239 C237 1.415 . S
C240 H230 0.930 . S
C240 C238 1.419 . S
C240 C241 1.362 . S
C241 H231 0.930 . S
C241 C234 1.409 . S
C241 C240 1.362 . S
H242 C248 0.930 . S
H243 C251 0.930 . S
H244 C252 0.930 . S
H245 C253 0.930 . S
H246 C256 0.930 . S
H247 C257 0.930 . S
C248 H242 0.930 . S
C248 C249 1.355 . S
C248 C250 1.415 . S
C249 C248 1.355 . S
C249 C251 1.419 . S
C250 C248 1.415 . S
C250 C255 1.425 . S
C250 C257 1.409 . S
C251 H243 0.930 . S
C251 C249 1.419 . S
C251 C252 1.362 . S
C252 H244 0.930 . S
C252 C251 1.362 . S
C252 C255 1.409 . S
C253 H245 0.930 . S
C253 C254 1.355 . S
C253 C255 1.415 . S
C254 C253 1.355 . S
C254 C256 1.419 . S
C255 C250 1.425 . S
C255 C252 1.409 . S
C255 C253 1.415 . S
C256 H246 0.930 . S
C256 C254 1.419 . S
C256 C257 1.362 . S
C257 H247 0.930 . S
C257 C250 1.409 . S
C257 C256 1.362 . S
H258 C264 0.930 . S
H259 C267 0.930 . S
H260 C268 0.930 . S
H261 C269 0.930 . S
H262 C272 0.930 . S
H263 C273 0.930 . S
C264 H258 0.930 . S
C264 C265 1.355 . S
C264 C266 1.415 . S
C265 C264 1.355 . S
C265 C267 1.419 . S
C266 C264 1.415 . S
C266 C271 1.425 . S
C266 C273 1.409 . S
C267 H259 0.930 . S
C267 C265 1.419 . S
C267 C268 1.362 . S
C268 H260 0.930 . S
C268 C267 1.362 . S
C268 C271 1.409 . S
C269 H261 0.930 . S
C269 C270 1.355 . S
C269 C271 1.415 . S
C270 C269 1.355 . S
C270 C272 1.419 . S
C271 C266 1.425 . S
C271 C268 1.409 . S
C271 C269 1.415 . S
C272 H262 0.930 . S
C272 C270 1.419 . S
C272 C273 1.362 . S
C273 H263 0.930 . S
C273 C266 1.409 . S
C273 C272 1.362 . S
H274 C280 0.930 . S
H275 C283 0.930 . S
H276 C284 0.930 . S
H277 C285 0.930 . S
H278 C288 0.930 . S
H279 C289 0.930 . S
C280 H274 0.930 . S
C280 C281 1.355 . S
C280 C282 1.415 . S
C281 C280 1.355 . S
C281 C283 1.419 . S
C282 C280 1.415 . S
C282 C287 1.425 . S
C282 C289 1.409 . S
C283 H275 0.930 . S
C283 C281 1.419 . S
C283 C284 1.362 . S
C284 H276 0.930 . S
C284 C283 1.362 . S
C284 C287 1.409 . S
C285 H277 0.930 . S
C285 C286 1.355 . S
C285 C287 1.415 . S
C286 C285 1.355 . S
C286 C288 1.419 . S
C287 C282 1.425 . S
C287 C284 1.409 . S
C287 C285 1.415 . S
C288 H278 0.930 . S
C288 C286 1.419 . S
C288 C289 1.362 . S
C289 H279 0.930 . S
C289 C282 1.409 . S
C289 C288 1.362 . S
H290 C296 0.930 . S
H291 C299 0.930 . S
H292 C300 0.930 . S
H293 C301 0.930 . S
H294 C304 0.930 . S
H295 C305 0.930 . S
C296 H290 0.930 . S
C296 C297 1.355 . S
C296 C298 1.415 . S
C297 C296 1.355 . S
C297 C299 1.419 . S
C298 C296 1.415 . S
C298 C303 1.425 . S
C298 C305 1.409 . S
C299 H291 0.930 . S
C299 C297 1.419 . S
C299 C300 1.362 . S
C300 H292 0.930 . S
C300 C299 1.362 . S
C300 C303 1.409 . S
C301 H293 0.930 . S
C301 C302 1.355 . S
C301 C303 1.415 . S
C302 C301 1.355 . S
C302 C304 1.419 . S
C303 C298 1.425 . S
C303 C300 1.409 . S
C303 C301 1.415 . S
C304 H294 0.930 . S
C304 C302 1.419 . S
C304 C305 1.362 . S
C305 H295 0.930 . S
C305 C298 1.409 . S
C305 C304 1.362 . S
H306 C312 0.930 . S
H307 C315 0.930 . S
H308 C316 0.930 . S
H309 C317 0.930 . S
H310 C320 0.930 . S
H311 C321 0.930 . S
C312 H306 0.930 . S
C312 C313 1.355 . S
C312 C314 1.415 . S
C313 C312 1.355 . S
C313 C315 1.419 . S
C314 C312 1.415 . S
C314 C319 1.425 . S
C314 C321 1.409 . S
C315 H307 0.930 . S
C315 C313 1.419 . S
C315 C316 1.362 . S
C316 H308 0.930 . S
C316 C315 1.362 . S
C316 C319 1.409 . S
C317 H309 0.930 . S
C317 C318 1.355 . S
C317 C319 1.415 . S
C318 C317 1.355 . S
C318 C320 1.419 . S
C319 C314 1.425 . S
C319 C316 1.409 . S
C319 C317 1.415 . S
C320 H310 0.930 . S
C320 C318 1.419 . S
C320 C321 1.362 . S
C321 H311 0.930 . S
C321 C314 1.409 . S
C321 C320 1.362 . S
H322 C328 0.930 . S
H323 C331 0.930 . S
H324 C332 0.930 . S
H325 C333 0.930 . S
H326 C336 0.930 . S
H327 C337 0.930 . S
C328 H322 0.930 . S
C328 C329 1.355 . S
C328 C330 1.415 . S
C329 C328 1.355 . S
C329 C331 1.419 . S
C330 C328 1.415 . S
C330 C335 1.425 . S
C330 C337 1.409 . S
C331 H323 0.930 . S
C331 C329 1.419 . S
C331 C332 1.362 . S
C332 H324 0.930 . S
C332 C331 1.362 . S
C332 C335 1.409 . S
C333 H325 0.930 . S
C333 C334 1.355 . S
C333 C335 1.415 . S
C334 C333 1.355 . S
C334 C336 1.419 . S
C335 C330 1.425 . S
C335 C332 1.409 . S
C335 C333 1.415 . S
C336 H326 0.930 . S
C336 C334 1.419 . S
C336 C337 1.362 . S
C337 H327 0.930 . S
C337 C330 1.409 . S
C337 C336 1.362 . S
H338 C344 0.930 . S
H339 C347 0.930 1_655 S
H340 C348 0.930 . S
H341 C349 0.930 . S
H342 C352 0.930 . S
H343 C353 0.930 . S
C344 H338 0.930 . S
C344 C345 1.355 . S
C344 C346 1.415 . S
C345 C344 1.355 . S
C345 C347 1.419 . S
C346 C344 1.415 . S
C346 C351 1.425 . S
C346 C353 1.409 . S
C347 H339 0.930 1_455 S
C347 C345 1.419 . S
C347 C348 1.362 . S
C348 H340 0.930 . S
C348 C347 1.362 . S
C348 C351 1.409 . S
C349 H341 0.930 . S
C349 C350 1.355 . S
C349 C351 1.415 . S
C350 C349 1.355 . S
C350 C352 1.419 . S
C351 C346 1.425 . S
C351 C348 1.409 . S
C351 C349 1.415 . S
C352 H342 0.930 . S
C352 C350 1.419 . S
C352 C353 1.362 . S
C353 H343 0.930 . S
C353 C346 1.409 . S
C353 C352 1.362 . S
H354 C360 0.930 . S
H355 C363 0.930 . S
H356 C364 0.930 . S
H357 C365 0.930 . S
H358 C368 0.930 . S
H359 C369 0.930 . S
C360 H354 0.930 . S
C360 C361 1.355 . S
C360 C362 1.415 . S
C361 C360 1.355 . S
C361 C363 1.419 . S
C362 C360 1.415 . S
C362 C367 1.425 . S
C362 C369 1.409 . S
C363 H355 0.930 . S
C363 C361 1.419 . S
C363 C364 1.362 . S
C364 H356 0.930 . S
C364 C363 1.362 . S
C364 C367 1.409 . S
C365 H357 0.930 . S
C365 C366 1.355 . S
C365 C367 1.415 . S
C366 C365 1.355 . S
C366 C368 1.419 . S
C367 C362 1.425 . S
C367 C364 1.409 . S
C367 C365 1.415 . S
C368 H358 0.930 . S
C368 C366 1.419 . S
C368 C369 1.362 . S
C369 H359 0.930 . S
C369 C362 1.409 . S
C369 C368 1.362 . S
H370 C376 0.930 . S
H371 C379 0.930 . S
H372 C380 0.930 . S
H373 C381 0.930 . S
H374 C384 0.930 . S
H375 C385 0.930 . S
C376 H370 0.930 . S
C376 C377 1.355 . S
C376 C378 1.415 . S
C377 C376 1.355 . S
C377 C379 1.419 . S
C378 C376 1.415 . S
C378 C383 1.425 . S
C378 C385 1.409 . S
C379 H371 0.930 . S
C379 C377 1.419 . S
C379 C380 1.362 . S
C380 H372 0.930 . S
C380 C379 1.362 . S
C380 C383 1.409 . S
C381 H373 0.930 . S
C381 C382 1.355 . S
C381 C383 1.415 . S
C382 C381 1.355 . S
C382 C384 1.419 . S
C383 C378 1.425 . S
C383 C380 1.409 . S
C383 C381 1.415 . S
C384 H374 0.930 . S
C384 C382 1.419 . S
C384 C385 1.362 . S
C385 H375 0.930 . S
C385 C378 1.409 . S
C385 C384 1.362 . S
H386 C392 0.930 . S
H387 C395 0.930 . S
H388 C396 0.930 . S
H389 C397 0.930 . S
H390 C400 0.930 . S
H391 C401 0.930 . S
C392 H386 0.930 . S
C392 C393 1.355 . S
C392 C394 1.415 . S
C393 C392 1.355 . S
C393 C395 1.419 . S
C394 C392 1.415 . S
C394 C399 1.425 . S
C394 C401 1.409 . S
C395 H387 0.930 . S
C395 C393 1.419 . S
C395 C396 1.362 . S
C396 H388 0.930 . S
C396 C395 1.362 . S
C396 C399 1.409 . S
C397 H389 0.930 . S
C397 C398 1.355 . S
C397 C399 1.415 . S
C398 C397 1.355 . S
C398 C400 1.419 . S
C399 C394 1.425 . S
C399 C396 1.409 . S
C399 C397 1.415 . S
C400 H390 0.930 . S
C400 C398 1.419 . S
C400 C401 1.362 . S
C401 H391 0.930 . S
C401 C394 1.409 . S
C401 C400 1.362 . S
C217 C58 1.201 . S
C222 C187 1.264 . S
C233 C151 1.581 . S
C238 C193 1.505 . S
C249 C74 1.593 . S
C254 C184 1.470 . S
C265 C142 1.229 . S
C270 C209 1.294 . S
C281 C67 1.618 . S
C286 C175 1.404 . S
C302 C192 1.423 . S
C297 C158 1.553 . S
C313 C154 1.226 . S
C318 C188 1.340 . S
C334 C205 1.527 . S
C329 C56 1.577 . S
C350 C172 1.387 . S
C345 C147 1.602 . S
C366 C208 1.314 . S
C361 C70 1.182 . S
C382 C171 1.478 . S
C377 C140 1.602 . S
C398 C196 1.475 . S
C393 C63 1.565 . S
