# Generated by pormake.
# Topology gar, (4,6)-cn, num edge types: 1
# Building blocks:
#     Node 0, Type 0, BuildingBlock: CEKHIL_clean_sbu_0, # of connection points: 4
#     Node 1, Type 0, BuildingBlock: CEKHIL_clean_sbu_0, # of connection points: 4
#     Node 2, Type 0, BuildingBlock: CEKHIL_clean_sbu_0, # of connection points: 4
#     Node 3, Type 0, BuildingBlock: CEKHIL_clean_sbu_0, # of connection points: 4
#     Node 4, Type 0, BuildingBlock: CEKHIL_clean_sbu_0, # of connection points: 4
#     Node 5, Type 0, BuildingBlock: CEKHIL_clean_sbu_0, # of connection points: 4
#     Node 6, Type 0, BuildingBlock: CEKHIL_clean_sbu_0, # of connection points: 4
#     Node 7, Type 0, BuildingBlock: CEKHIL_clean_sbu_0, # of connection points: 4
#     Node 8, Type 0, BuildingBlock: CEKHIL_clean_sbu_0, # of connection points: 4
#     Node 9, Type 0, BuildingBlock: CEKHIL_clean_sbu_0, # of connection points: 4
#     Node 10, Type 0, BuildingBlock: CEKHIL_clean_sbu_0, # of connection points: 4
#     Node 11, Type 0, BuildingBlock: CEKHIL_clean_sbu_0, # of connection points: 4
#     Node 12, Type 0, BuildingBlock: CEKHIL_clean_sbu_0, # of connection points: 4
#     Node 13, Type 0, BuildingBlock: CEKHIL_clean_sbu_0, # of connection points: 4
#     Node 14, Type 0, BuildingBlock: CEKHIL_clean_sbu_0, # of connection points: 4
#     Node 15, Type 0, BuildingBlock: CEKHIL_clean_sbu_0, # of connection points: 4
#     Node 16, Type 0, BuildingBlock: CEKHIL_clean_sbu_0, # of connection points: 4
#     Node 17, Type 0, BuildingBlock: CEKHIL_clean_sbu_0, # of connection points: 4
#     Node 18, Type 0, BuildingBlock: CEKHIL_clean_sbu_0, # of connection points: 4
#     Node 19, Type 0, BuildingBlock: CEKHIL_clean_sbu_0, # of connection points: 4
#     Node 20, Type 0, BuildingBlock: CEKHIL_clean_sbu_0, # of connection points: 4
#     Node 21, Type 0, BuildingBlock: CEKHIL_clean_sbu_0, # of connection points: 4
#     Node 22, Type 0, BuildingBlock: CEKHIL_clean_sbu_0, # of connection points: 4
#     Node 23, Type 0, BuildingBlock: CEKHIL_clean_sbu_0, # of connection points: 4
#     Node 24, Type 1, BuildingBlock: PAMTOO_clean_sbu_0, # of connection points: 6
#     Node 25, Type 1, BuildingBlock: PAMTOO_clean_sbu_0, # of connection points: 6
#     Node 26, Type 1, BuildingBlock: PAMTOO_clean_sbu_0, # of connection points: 6
#     Node 27, Type 1, BuildingBlock: PAMTOO_clean_sbu_0, # of connection points: 6
#     Node 28, Type 1, BuildingBlock: PAMTOO_clean_sbu_0, # of connection points: 6
#     Node 29, Type 1, BuildingBlock: PAMTOO_clean_sbu_0, # of connection points: 6
#     Node 30, Type 1, BuildingBlock: PAMTOO_clean_sbu_0, # of connection points: 6
#     Node 31, Type 1, BuildingBlock: PAMTOO_clean_sbu_0, # of connection points: 6
#     Node 32, Type 1, BuildingBlock: PAMTOO_clean_sbu_0, # of connection points: 6
#     Node 33, Type 1, BuildingBlock: PAMTOO_clean_sbu_0, # of connection points: 6
#     Node 34, Type 1, BuildingBlock: PAMTOO_clean_sbu_0, # of connection points: 6
#     Node 35, Type 1, BuildingBlock: PAMTOO_clean_sbu_0, # of connection points: 6
#     Node 36, Type 1, BuildingBlock: PAMTOO_clean_sbu_0, # of connection points: 6
#     Node 37, Type 1, BuildingBlock: PAMTOO_clean_sbu_0, # of connection points: 6
#     Node 38, Type 1, BuildingBlock: PAMTOO_clean_sbu_0, # of connection points: 6
#     Node 39, Type 1, BuildingBlock: PAMTOO_clean_sbu_0, # of connection points: 6
#     Edge 40, Type (0, 1), BuildingBlock: TEMPAE_clean_linker_10, # of connection points: 2
#     Edge 41, Type (0, 1), BuildingBlock: TEMPAE_clean_linker_10, # of connection points: 2
#     Edge 42, Type (0, 1), BuildingBlock: TEMPAE_clean_linker_10, # of connection points: 2
#     Edge 43, Type (0, 1), BuildingBlock: TEMPAE_clean_linker_10, # of connection points: 2
#     Edge 44, Type (0, 1), BuildingBlock: TEMPAE_clean_linker_10, # of connection points: 2
#     Edge 45, Type (0, 1), BuildingBlock: TEMPAE_clean_linker_10, # of connection points: 2
#     Edge 46, Type (0, 1), BuildingBlock: TEMPAE_clean_linker_10, # of connection points: 2
#     Edge 47, Type (0, 1), BuildingBlock: TEMPAE_clean_linker_10, # of connection points: 2
#     Edge 48, Type (0, 1), BuildingBlock: TEMPAE_clean_linker_10, # of connection points: 2
#     Edge 49, Type (0, 1), BuildingBlock: TEMPAE_clean_linker_10, # of connection points: 2
#     Edge 50, Type (0, 1), BuildingBlock: TEMPAE_clean_linker_10, # of connection points: 2
#     Edge 51, Type (0, 1), BuildingBlock: TEMPAE_clean_linker_10, # of connection points: 2
#     Edge 52, Type (0, 1), BuildingBlock: TEMPAE_clean_linker_10, # of connection points: 2
#     Edge 53, Type (0, 1), BuildingBlock: TEMPAE_clean_linker_10, # of connection points: 2
#     Edge 54, Type (0, 1), BuildingBlock: TEMPAE_clean_linker_10, # of connection points: 2
#     Edge 55, Type (0, 1), BuildingBlock: TEMPAE_clean_linker_10, # of connection points: 2
#     Edge 56, Type (0, 1), BuildingBlock: TEMPAE_clean_linker_10, # of connection points: 2
#     Edge 57, Type (0, 1), BuildingBlock: TEMPAE_clean_linker_10, # of connection points: 2
#     Edge 58, Type (0, 1), BuildingBlock: TEMPAE_clean_linker_10, # of connection points: 2
#     Edge 59, Type (0, 1), BuildingBlock: TEMPAE_clean_linker_10, # of connection points: 2
#     Edge 60, Type (0, 1), BuildingBlock: TEMPAE_clean_linker_10, # of connection points: 2
#     Edge 61, Type (0, 1), BuildingBlock: TEMPAE_clean_linker_10, # of connection points: 2
#     Edge 62, Type (0, 1), BuildingBlock: TEMPAE_clean_linker_10, # of connection points: 2
#     Edge 63, Type (0, 1), BuildingBlock: TEMPAE_clean_linker_10, # of connection points: 2
#     Edge 64, Type (0, 1), BuildingBlock: TEMPAE_clean_linker_10, # of connection points: 2
#     Edge 65, Type (0, 1), BuildingBlock: TEMPAE_clean_linker_10, # of connection points: 2
#     Edge 66, Type (0, 1), BuildingBlock: TEMPAE_clean_linker_10, # of connection points: 2
#     Edge 67, Type (0, 1), BuildingBlock: TEMPAE_clean_linker_10, # of connection points: 2
#     Edge 68, Type (0, 1), BuildingBlock: TEMPAE_clean_linker_10, # of connection points: 2
#     Edge 69, Type (0, 1), BuildingBlock: TEMPAE_clean_linker_10, # of connection points: 2
#     Edge 70, Type (0, 1), BuildingBlock: TEMPAE_clean_linker_10, # of connection points: 2
#     Edge 71, Type (0, 1), BuildingBlock: TEMPAE_clean_linker_10, # of connection points: 2
#     Edge 72, Type (0, 1), BuildingBlock: TEMPAE_clean_linker_10, # of connection points: 2
#     Edge 73, Type (0, 1), BuildingBlock: TEMPAE_clean_linker_10, # of connection points: 2
#     Edge 74, Type (0, 1), BuildingBlock: TEMPAE_clean_linker_10, # of connection points: 2
#     Edge 75, Type (0, 1), BuildingBlock: TEMPAE_clean_linker_10, # of connection points: 2
#     Edge 76, Type (0, 1), BuildingBlock: TEMPAE_clean_linker_10, # of connection points: 2
#     Edge 77, Type (0, 1), BuildingBlock: TEMPAE_clean_linker_10, # of connection points: 2
#     Edge 78, Type (0, 1), BuildingBlock: TEMPAE_clean_linker_10, # of connection points: 2
#     Edge 79, Type (0, 1), BuildingBlock: TEMPAE_clean_linker_10, # of connection points: 2
#     Edge 80, Type (0, 1), BuildingBlock: TEMPAE_clean_linker_10, # of connection points: 2
#     Edge 81, Type (0, 1), BuildingBlock: TEMPAE_clean_linker_10, # of connection points: 2
#     Edge 82, Type (0, 1), BuildingBlock: TEMPAE_clean_linker_10, # of connection points: 2
#     Edge 83, Type (0, 1), BuildingBlock: TEMPAE_clean_linker_10, # of connection points: 2
#     Edge 84, Type (0, 1), BuildingBlock: TEMPAE_clean_linker_10, # of connection points: 2
#     Edge 85, Type (0, 1), BuildingBlock: TEMPAE_clean_linker_10, # of connection points: 2
#     Edge 86, Type (0, 1), BuildingBlock: TEMPAE_clean_linker_10, # of connection points: 2
#     Edge 87, Type (0, 1), BuildingBlock: TEMPAE_clean_linker_10, # of connection points: 2
#     Edge 88, Type (0, 1), BuildingBlock: TEMPAE_clean_linker_10, # of connection points: 2
#     Edge 89, Type (0, 1), BuildingBlock: TEMPAE_clean_linker_10, # of connection points: 2
#     Edge 90, Type (0, 1), BuildingBlock: TEMPAE_clean_linker_10, # of connection points: 2
#     Edge 91, Type (0, 1), BuildingBlock: TEMPAE_clean_linker_10, # of connection points: 2
#     Edge 92, Type (0, 1), BuildingBlock: TEMPAE_clean_linker_10, # of connection points: 2
#     Edge 93, Type (0, 1), BuildingBlock: TEMPAE_clean_linker_10, # of connection points: 2
#     Edge 94, Type (0, 1), BuildingBlock: TEMPAE_clean_linker_10, # of connection points: 2
#     Edge 95, Type (0, 1), BuildingBlock: TEMPAE_clean_linker_10, # of connection points: 2
#     Edge 96, Type (0, 1), BuildingBlock: TEMPAE_clean_linker_10, # of connection points: 2
#     Edge 97, Type (0, 1), BuildingBlock: TEMPAE_clean_linker_10, # of connection points: 2
#     Edge 98, Type (0, 1), BuildingBlock: TEMPAE_clean_linker_10, # of connection points: 2
#     Edge 99, Type (0, 1), BuildingBlock: TEMPAE_clean_linker_10, # of connection points: 2
#     Edge 100, Type (0, 1), BuildingBlock: TEMPAE_clean_linker_10, # of connection points: 2
#     Edge 101, Type (0, 1), BuildingBlock: TEMPAE_clean_linker_10, # of connection points: 2
#     Edge 102, Type (0, 1), BuildingBlock: TEMPAE_clean_linker_10, # of connection points: 2
#     Edge 103, Type (0, 1), BuildingBlock: TEMPAE_clean_linker_10, # of connection points: 2
#     Edge 104, Type (0, 1), BuildingBlock: TEMPAE_clean_linker_10, # of connection points: 2
#     Edge 105, Type (0, 1), BuildingBlock: TEMPAE_clean_linker_10, # of connection points: 2
#     Edge 106, Type (0, 1), BuildingBlock: TEMPAE_clean_linker_10, # of connection points: 2
#     Edge 107, Type (0, 1), BuildingBlock: TEMPAE_clean_linker_10, # of connection points: 2
#     Edge 108, Type (0, 1), BuildingBlock: TEMPAE_clean_linker_10, # of connection points: 2
#     Edge 109, Type (0, 1), BuildingBlock: TEMPAE_clean_linker_10, # of connection points: 2
#     Edge 110, Type (0, 1), BuildingBlock: TEMPAE_clean_linker_10, # of connection points: 2
#     Edge 111, Type (0, 1), BuildingBlock: TEMPAE_clean_linker_10, # of connection points: 2
#     Edge 112, Type (0, 1), BuildingBlock: TEMPAE_clean_linker_10, # of connection points: 2
#     Edge 113, Type (0, 1), BuildingBlock: TEMPAE_clean_linker_10, # of connection points: 2
#     Edge 114, Type (0, 1), BuildingBlock: TEMPAE_clean_linker_10, # of connection points: 2
#     Edge 115, Type (0, 1), BuildingBlock: TEMPAE_clean_linker_10, # of connection points: 2
#     Edge 116, Type (0, 1), BuildingBlock: TEMPAE_clean_linker_10, # of connection points: 2
#     Edge 117, Type (0, 1), BuildingBlock: TEMPAE_clean_linker_10, # of connection points: 2
#     Edge 118, Type (0, 1), BuildingBlock: TEMPAE_clean_linker_10, # of connection points: 2
#     Edge 119, Type (0, 1), BuildingBlock: TEMPAE_clean_linker_10, # of connection points: 2
#     Edge 120, Type (0, 1), BuildingBlock: TEMPAE_clean_linker_10, # of connection points: 2
#     Edge 121, Type (0, 1), BuildingBlock: TEMPAE_clean_linker_10, # of connection points: 2
#     Edge 122, Type (0, 1), BuildingBlock: TEMPAE_clean_linker_10, # of connection points: 2
#     Edge 123, Type (0, 1), BuildingBlock: TEMPAE_clean_linker_10, # of connection points: 2
#     Edge 124, Type (0, 1), BuildingBlock: TEMPAE_clean_linker_10, # of connection points: 2
#     Edge 125, Type (0, 1), BuildingBlock: TEMPAE_clean_linker_10, # of connection points: 2
#     Edge 126, Type (0, 1), BuildingBlock: TEMPAE_clean_linker_10, # of connection points: 2
#     Edge 127, Type (0, 1), BuildingBlock: TEMPAE_clean_linker_10, # of connection points: 2
#     Edge 128, Type (0, 1), BuildingBlock: TEMPAE_clean_linker_10, # of connection points: 2
#     Edge 129, Type (0, 1), BuildingBlock: TEMPAE_clean_linker_10, # of connection points: 2
#     Edge 130, Type (0, 1), BuildingBlock: TEMPAE_clean_linker_10, # of connection points: 2
#     Edge 131, Type (0, 1), BuildingBlock: TEMPAE_clean_linker_10, # of connection points: 2
#     Edge 132, Type (0, 1), BuildingBlock: TEMPAE_clean_linker_10, # of connection points: 2
#     Edge 133, Type (0, 1), BuildingBlock: TEMPAE_clean_linker_10, # of connection points: 2
#     Edge 134, Type (0, 1), BuildingBlock: TEMPAE_clean_linker_10, # of connection points: 2
#     Edge 135, Type (0, 1), BuildingBlock: TEMPAE_clean_linker_10, # of connection points: 2
# Relax obj value: 0.143
# Max RMSD: 0.267
# Mean RMSD: 0.156
data_MOF--net-gar--node1-CEKHIL_clean_sbu_0--node2-PAMTOO_clean_sbu_0--edge1-TEMPAE_clean_linker_10
_symmetry_space_group_name_H-M    P1
_symmetry_Int_Tables_number       1
_symmetry_cell_setting            triclinic
loop_
_symmetry_equiv_pos_as_xyz
'x, y, z'
_cell_length_a     60.72246
_cell_length_b     60.067748
_cell_length_c     57.284558
_cell_angle_alpha  96.77384
_cell_angle_beta   96.108569
_cell_angle_gamma 105.01106
loop_
_atom_site_label
_atom_site_type_symbol
_atom_site_fract_x
_atom_site_fract_y
_atom_site_fract_z
_atom_type_partial_charge
Co0 Co 0.06472 0.33413 0.36505 0.0
O1 O 0.09808 0.33665 0.37155 0.0
O2 O 0.07821 0.32426 0.33645 0.0
C3 C 0.06631 0.37018 0.38594 0.0
O4 O 0.02955 0.32999 0.35116 0.0
Co5 Co 0.03534 0.33527 0.40666 0.0
O6 O 1.01165 0.33883 0.38208 0.0
C7 C 0.04972 0.2929 0.39253 0.0
C8 C 0.09825 0.32882 0.34951 0.0
C9 C 1.01148 0.33395 0.35979 0.0
O10 O 0.05751 0.30105 0.3741 0.0
O11 O 0.04178 0.30454 0.40808 0.0
O12 O 0.07147 0.36846 0.36443 0.0
O13 O 0.06252 0.35087 0.39438 0.0
Co14 Co 0.02027 0.76452 0.69615 0.0
O15 O 0.98716 0.76302 0.68991 0.0
O16 O 1.003 0.75816 0.72391 0.0
C17 C 0.03128 0.79862 0.68037 0.0
O18 O 0.05503 0.7664 0.70932 0.0
Co19 Co 0.04934 0.76508 0.65417 0.0
O20 O 0.07617 0.77133 0.67916 0.0
C21 C 0.0188 0.72016 0.66187 0.0
C22 C 0.9845 0.76025 0.71155 0.0
C23 C 0.07474 0.76955 0.70094 0.0
O24 O 0.01429 0.72962 0.6819 0.0
O25 O 0.0303 0.73192 0.6478 0.0
O26 O 0.02739 0.79908 0.70224 0.0
O27 O 0.02754 0.77802 0.66886 0.0
Co28 Co 0.56509 0.83589 0.86488 0.0
O29 O 0.59877 0.8399 0.86996 0.0
O30 O 0.57744 0.82373 0.83633 0.0
C31 C 0.5665 0.8731 0.88257 0.0
O32 O 0.52924 0.82947 0.85286 0.0
Co33 Co 0.5391 0.84062 0.90864 0.0
O34 O 0.51232 0.83835 0.88459 0.0
C35 C 0.55683 0.79978 0.89868 0.0
C36 C 0.59807 0.82997 0.84848 0.0
C37 C 0.51112 0.83205 0.86231 0.0
O38 O 0.56 0.80455 0.87757 0.0
O39 O 0.55118 0.81348 0.91433 0.0
O40 O 0.56971 0.86929 0.86051 0.0
O41 O 0.56446 0.85518 0.89319 0.0
Co42 Co 0.52046 0.26707 0.19408 0.0
O43 O 0.48728 0.26537 0.18807 0.0
O44 O 0.50326 0.25996 0.22175 0.0
C45 C 0.53106 0.30166 0.17914 0.0
O46 O 0.55536 0.26913 0.20707 0.0
Co47 Co 0.54984 0.26941 0.15226 0.0
O48 O 0.57667 0.27586 0.17727 0.0
C49 C 0.52017 0.22355 0.15906 0.0
C50 C 0.4847 0.26223 0.20965 0.0
C51 C 0.57519 0.27318 0.19884 0.0
O52 O 0.51478 0.2324 0.17892 0.0
O53 O 0.53201 0.23589 0.14562 0.0
O54 O 0.52724 0.30157 0.20099 0.0
O55 O 0.52757 0.28131 0.16718 0.0
Co56 Co 0.07393 0.81965 0.12704 0.0
O57 O 0.04032 0.81357 0.12135 0.0
O58 O 0.06004 0.80978 0.15436 0.0
C59 C 0.08027 0.85591 0.11248 0.0
O60 O 0.10734 0.82439 0.14332 0.0
Co61 Co 0.10597 0.82304 0.09325 0.0
O62 O 0.13319 0.83066 0.11857 0.0
C63 C 0.0793 0.77548 0.09645 0.0
C64 C 0.04017 0.80876 0.14289 0.0
C65 C 0.12841 0.82843 0.13934 0.0
O66 O 0.07151 0.78514 0.11403 0.0
O67 O 0.09247 0.78801 0.08413 0.0
O68 O 0.07684 0.85338 0.13409 0.0
O69 O 0.08024 0.83646 0.09951 0.0
Co70 Co 0.5131 0.78859 0.45187 0.0
O71 O 0.54674 0.79557 0.4553 0.0
O72 O 0.52333 0.77828 0.42253 0.0
C73 C 0.51204 0.82571 0.46879 0.0
O74 O 0.47851 0.78068 0.43807 0.0
Co75 Co 0.48487 0.78594 0.49016 0.0
O76 O 0.45822 0.78698 0.4671 0.0
C77 C 0.50522 0.74694 0.48166 0.0
C78 C 0.54437 0.78677 0.43301 0.0
C79 C 0.45963 0.78313 0.44508 0.0
O80 O 0.51128 0.756 0.46295 0.0
O81 O 0.49522 0.75735 0.49624 0.0
O82 O 0.51504 0.82078 0.44693 0.0
O83 O 0.5113 0.8085 0.48097 0.0
Co84 Co 0.57305 0.32126 0.62805 0.0
O85 O 0.53944 0.31539 0.62172 0.0
O86 O 0.55857 0.31148 0.65502 0.0
C87 C 0.57968 0.35751 0.61333 0.0
O88 O 0.60619 0.32584 0.6455 0.0
Co89 Co 0.60628 0.32454 0.5965 0.0
O90 O 0.63308 0.33212 0.62202 0.0
C91 C 0.58112 0.27678 0.6006 0.0
C92 C 0.53889 0.3105 0.64322 0.0
C93 C 0.62755 0.32981 0.64248 0.0
O94 O 0.57025 0.2866 0.61512 0.0
O95 O 0.5967 0.28918 0.59054 0.0
O96 O 0.57607 0.35502 0.6349 0.0
O97 O 0.58011 0.33811 0.60053 0.0
Co98 Co 1.01175 0.28586 0.95141 0.0
O99 O 0.04527 0.29311 0.95374 0.0
O100 O 0.02113 0.27477 0.92178 0.0
C101 C 1.01115 0.32339 0.96758 0.0
O102 O 0.97666 0.2771 0.93924 0.0
Co103 Co 0.98544 0.2848 0.99125 0.0
O104 O 0.96014 0.2898 0.96894 0.0
C105 C 1.00498 0.2451 0.98233 0.0
C106 C 0.04236 0.2837 0.93161 0.0
C107 C 0.95954 0.28331 0.94688 0.0
O108 O 1.01078 0.25387 0.96341 0.0
O109 O 0.9952 0.25573 0.997 0.0
O110 O 0.01307 0.3177 0.94551 0.0
O111 O 1.01109 0.30667 0.98027 0.0
Co112 Co 0.41342 0.05927 0.31887 0.0
O113 O 0.41422 0.0887 0.3081 0.0
O114 O 0.38379 0.05778 0.3025 0.0
C115 C 0.43216 0.07415 0.3555 0.0
O116 O 0.40466 0.02675 0.32732 0.0
Co117 Co 0.45603 0.04288 0.33567 0.0
O118 O 0.43397 0.01559 0.34463 0.0
C119 C 0.44193 0.04251 0.28439 0.0
C120 C 0.39267 0.07913 0.2994 0.0
C121 C 0.41259 0.01193 0.33742 0.0
O122 O 0.42319 0.04746 0.28853 0.0
O123 O 0.45769 0.04186 0.30081 0.0
O124 O 0.41017 0.07195 0.35096 0.0
O125 O 0.4421 0.06857 0.33782 0.0
Co126 Co 0.28925 0.19926 0.519 0.0
O127 O 0.32278 0.2066 0.52647 0.0
O128 O 0.29813 0.17394 0.53131 0.0
C129 C 0.28881 0.21123 0.48237 0.0
O130 O 0.25484 0.18269 0.51295 0.0
Co131 Co 0.25977 0.23222 0.51009 0.0
O132 O 0.23273 0.20455 0.50045 0.0
C133 C 0.27705 0.22967 0.55986 0.0
C134 C 0.3194 0.18587 0.53254 0.0
C135 C 0.23503 0.1851 0.50535 0.0
O136 O 0.28665 0.21385 0.55236 0.0
O137 O 0.26623 0.2396 0.5458 0.0
O138 O 0.29155 0.19096 0.48538 0.0
O139 O 0.28738 0.22422 0.50158 0.0
Co140 Co 0.14005 0.05043 0.80222 0.0
O141 O 0.1348 0.01673 0.79547 0.0
O142 O 0.16604 0.04298 0.79006 0.0
C143 C 0.12821 0.05095 0.83889 0.0
O144 O 0.15412 0.08548 0.80761 0.0
Co145 Co 0.10446 0.07692 0.81019 0.0
O146 O 0.13031 0.10604 0.81885 0.0
C147 C 0.10694 0.05712 0.76105 0.0
C148 C 0.15533 0.02117 0.78925 0.0
C149 C 0.15016 0.105 0.81448 0.0
O150 O 0.12524 0.05145 0.76874 0.0
O151 O 0.09512 0.06572 0.77505 0.0
O152 O 0.14885 0.04983 0.83604 0.0
O153 O 0.11486 0.05068 0.81957 0.0
Co154 Co 0.28107 0.92551 0.00636 0.0
O155 O 0.25197 0.92684 0.01617 0.0
O156 O 0.28362 0.95643 0.02149 0.0
C157 C 0.2671 0.9057 0.96984 0.0
O158 O 0.31343 0.93212 0.99813 0.0
Co159 Co 0.2947 0.8799 0.9924 0.0
O160 O 0.32256 0.90023 0.98258 0.0
C161 C 0.29208 0.89617 0.0425 0.0
C162 C 0.26212 0.94874 0.02407 0.0
C163 C 0.3272 0.92226 0.98829 0.0
O164 O 0.291 0.91623 0.03756 0.0
O165 O 0.29121 0.87887 0.02671 0.0
O166 O 0.27 0.92812 0.97378 0.0
O167 O 0.27099 0.89597 0.98813 0.0
Co168 Co 0.29745 0.3961 0.04108 0.0
O169 O 0.26407 0.39027 0.03695 0.0
O170 O 0.28906 0.42356 0.0534 0.0
C171 C 0.29962 0.38007 0.00346 0.0
O172 O 0.33224 0.41106 0.04699 0.0
Co173 Co 0.32396 0.3592 0.03759 0.0
O174 O 0.35192 0.38524 0.03787 0.0
C175 C 0.30276 0.36702 0.08096 0.0
C176 C 0.26774 0.412 0.04622 0.0
C177 C 0.35118 0.4061 0.04377 0.0
O178 O 0.2973 0.38464 0.07343 0.0
O179 O 0.31212 0.35392 0.06847 0.0
O180 O 0.29755 0.40108 0.00793 0.0
O181 O 0.29884 0.36877 0.0214 0.0
Co182 Co 0.79563 0.14737 0.05411 0.0
O183 O 0.82658 0.1457 0.05235 0.0
O184 O 0.79852 0.11797 0.06197 0.0
C185 C 0.79 0.16098 0.0197 0.0
O186 O 0.76177 0.14179 0.05639 0.0
Co187 Co 0.78252 0.19421 0.05686 0.0
O188 O 0.75028 0.1742 0.05353 0.0
C189 C 0.80885 0.18347 0.09811 0.0
C190 C 0.81971 0.12491 0.058 0.0
C191 C 0.74605 0.15249 0.05483 0.0
O192 O 0.80421 0.16202 0.08855 0.0
O193 O 0.80415 0.19944 0.08721 0.0
O194 O 0.78769 0.13885 0.01966 0.0
O195 O 0.79782 0.17416 0.03991 0.0
Co196 Co 0.17342 0.53756 0.27897 0.0
O197 O 0.17324 0.50532 0.27641 0.0
O198 O 0.19734 0.53239 0.26126 0.0
C199 C 0.1711 0.54294 0.31799 0.0
O200 O 0.18017 0.57244 0.27909 0.0
Co201 Co 0.13292 0.55565 0.29498 0.0
O202 O 0.15541 0.58687 0.29846 0.0
C203 C 0.12953 0.53271 0.24551 0.0
C204 C 0.19104 0.51099 0.26538 0.0
C205 C 0.1736 0.58965 0.28863 0.0
O206 O 0.15038 0.53116 0.24909 0.0
O207 O 0.1193 0.54021 0.2619 0.0
O208 O 0.19089 0.5439 0.31089 0.0
O209 O 0.15346 0.53672 0.30164 0.0
Co210 Co 0.79763 0.89686 0.54166 0.0
O211 O 0.7644 0.892 0.53782 0.0
O212 O 0.7901 0.92468 0.55468 0.0
C213 C 0.79906 0.88117 0.5037 0.0
O214 O 0.83267 0.91058 0.54756 0.0
Co215 Co 0.82257 0.85862 0.53648 0.0
O216 O 0.84942 0.88422 0.53229 0.0
C217 C 0.80266 0.86691 0.58081 0.0
C218 C 0.76862 0.91367 0.54748 0.0
C219 C 0.85029 0.90511 0.5405 0.0
O220 O 0.79724 0.8847 0.57362 0.0
O221 O 0.81176 0.85378 0.56797 0.0
O222 O 0.79777 0.90242 0.50863 0.0
O223 O 0.79799 0.86956 0.5214 0.0
Co224 Co 0.94728 0.04507 0.2816 0.0
O225 O 0.95295 0.07882 0.2856 0.0
O226 O 0.92024 0.05335 0.26896 0.0
C227 C 0.96285 0.04329 0.31923 0.0
O228 O 0.93283 0.0098 0.27558 0.0
Co229 Co 0.98398 0.01846 0.28552 0.0
O230 O 0.95817 0.99168 0.28954 0.0
C231 C 0.97606 0.0387 0.24157 0.0
C232 C 0.93165 0.07499 0.27595 0.0
C233 C 0.93767 0.99155 0.28189 0.0
O234 O 0.95891 0.04481 0.24933 0.0
O235 O 0.9888 0.02913 0.25397 0.0
O236 O 0.94208 0.04533 0.31483 0.0
O237 O 0.97411 0.04394 0.30125 0.0
Co238 Co 0.30003 0.66125 0.54013 0.0
O239 O 0.33104 0.65947 0.53923 0.0
O240 O 0.30562 0.63755 0.55804 0.0
C241 C 0.29146 0.66179 0.50115 0.0
O242 O 0.26645 0.65684 0.54399 0.0
Co243 Co 0.28347 0.70306 0.52538 0.0
O244 O 0.2522 0.68229 0.52582 0.0
C245 C 0.31105 0.70782 0.57242 0.0
C246 C 0.326 0.64248 0.55155 0.0
C247 C 0.2495 0.66437 0.53627 0.0
O248 O 0.31013 0.68596 0.56922 0.0
O249 O 0.30328 0.718 0.55629 0.0
O250 O 0.29003 0.64203 0.50882 0.0
O251 O 0.29969 0.68026 0.51671 0.0
Co252 Co 0.4457 0.54204 0.78049 0.0
O253 O 0.45066 0.57573 0.78472 0.0
O254 O 0.41813 0.54971 0.76853 0.0
C255 C 0.46213 0.54051 0.81777 0.0
O256 O 0.4318 0.50672 0.77428 0.0
Co257 Co 0.48279 0.51592 0.78366 0.0
O258 O 0.45742 0.48882 0.78794 0.0
C259 C 0.47417 0.53665 0.74017 0.0
C260 C 0.42916 0.57145 0.77552 0.0
C261 C 0.43683 0.48853 0.78047 0.0
O262 O 0.45692 0.54238 0.7481 0.0
O263 O 0.48713 0.52708 0.75227 0.0
O264 O 0.44108 0.54188 0.81382 0.0
O265 O 0.47303 0.54142 0.79954 0.0
Co266 Co 0.67623 0.0395 0.78077 0.0
O267 O 0.67563 1.00736 0.78069 0.0
O268 O 0.69912 0.03237 0.76271 0.0
C269 C 0.67553 0.04829 0.81977 0.0
O270 O 0.68333 0.07383 0.77807 0.0
Co271 Co 0.63662 0.05949 0.79571 0.0
O272 O 0.65938 0.0902 0.79671 0.0
C273 C 0.63115 0.03186 0.74815 0.0
C274 C 0.69276 0.01162 0.76854 0.0
C275 C 0.67733 0.09176 0.78661 0.0
O276 O 0.65228 0.03118 0.75151 0.0
O277 O 0.62143 0.04055 0.76431 0.0
O278 O 0.69488 0.04809 0.81213 0.0
O279 O 0.65731 0.04112 0.80414 0.0
Co280 Co 0.79019 0.70071 0.01991 0.0
O281 O 0.82371 0.70752 0.02673 0.0
O282 O 0.79882 0.67536 0.03242 0.0
C283 C 0.78942 0.71198 0.98299 0.0
O284 O 0.75567 0.68482 0.01476 0.0
Co285 Co 0.76121 0.7341 0.01048 0.0
O286 O 0.73424 0.70643 1.00012 0.0
C287 C 0.77873 0.73194 0.06044 0.0
C288 C 0.82014 0.68686 0.03301 0.0
C289 C 0.73615 0.6873 0.00628 0.0
O290 O 0.78831 0.71603 0.05316 0.0
O291 O 0.76781 0.74165 0.04621 0.0
O292 O 0.79178 0.69163 0.98624 0.0
O293 O 0.78847 0.72539 1.0021 0.0
Co294 Co 0.91336 0.55583 0.81225 0.0
O295 O 0.91413 0.58446 0.79974 0.0
O296 O 0.88313 0.55462 0.79756 0.0
C297 C 0.93444 0.57224 0.84765 0.0
O298 O 0.90458 0.52434 0.82326 0.0
Co299 Co 0.95609 0.53894 0.82778 0.0
O300 O 0.93453 0.51385 0.84029 0.0
C301 C 0.93652 0.53191 0.7768 0.0
C302 C 0.89214 0.57539 0.79289 0.0
C303 C 0.91297 0.51034 0.83431 0.0
O304 O 0.92038 0.54126 0.78147 0.0
O305 O 0.95249 0.53033 0.79248 0.0
O306 O 0.91257 0.57084 0.84418 0.0
O307 O 0.94306 0.56525 0.82948 0.0
Co308 Co 0.78161 0.43188 0.50021 0.0
O309 O 0.7519 0.43393 0.5076 0.0
O310 O 0.78494 0.46142 0.519 0.0
C311 C 0.77009 0.41717 0.46177 0.0
O312 O 0.81505 0.43761 0.49585 0.0
Co313 Co 0.79339 0.38643 0.48157 0.0
O314 O 0.82342 0.40698 0.47644 0.0
C315 C 0.78697 0.39656 0.53187 0.0
C316 C 0.76282 0.45461 0.5189 0.0
C317 C 0.82914 0.4283 0.48596 0.0
O318 O 0.78687 0.41756 0.52949 0.0
O319 O 0.78727 0.38116 0.51451 0.0
O320 O 0.77476 0.43955 0.46848 0.0
O321 O 0.77135 0.40459 0.4783 0.0
Co322 Co 0.64033 0.55351 0.30244 0.0
O323 O 0.63538 0.51981 0.29566 0.0
O324 O 0.6667 0.5464 0.29098 0.0
C325 C 0.62779 0.55374 0.33878 0.0
O326 O 0.65434 0.58857 0.30796 0.0
Co327 Co 0.60491 0.58015 0.30993 0.0
O328 O 0.63062 0.60933 0.31885 0.0
C329 C 0.60805 0.5606 0.26079 0.0
C330 C 0.65615 0.52454 0.29003 0.0
C331 C 0.65048 0.60816 0.31469 0.0
O332 O 0.62598 0.55444 0.26873 0.0
O333 O 0.59636 0.56957 0.27465 0.0
O334 O 0.64858 0.55285 0.33634 0.0
O335 O 0.61474 0.55357 0.31929 0.0
Dy336 Dy 0.07135 0.06361 0.05254 0.0
Dy337 Dy 0.02221 0.03355 0.02387 0.0
C338 C 0.06661 0.04444 0.99725 0.0
O339 O 0.05788 0.09078 0.03523 0.0
O340 O 0.0196 0.07114 0.02591 0.0
O341 O 0.10515 0.08681 0.05248 0.0
O342 O 0.09485 0.07596 0.08528 0.0
O343 O 0.01533 0.03834 0.06145 0.0
O344 O 0.04659 0.06868 0.0779 0.0
O345 O 0.04031 1.00567 0.03218 0.0
O346 O 0.06901 0.02714 0.06155 0.0
O347 O 0.99426 1.00187 0.01772 0.0
O348 O 0.99377 0.02863 0.99587 0.0
C349 C 0.03648 0.09064 0.02766 0.0
O350 O 0.0793 0.04729 0.018 0.0
O351 O 0.04447 0.04213 0.99569 0.0
C352 C 0.1327 0.07706 0.07822 0.0
C353 C 0.16906 0.0562 0.07617 0.0
C354 C 0.17076 0.07783 0.06836 0.0
C355 C 0.15273 0.08822 0.06945 0.0
C356 C 0.13164 0.05615 0.08739 0.0
C357 C 0.14969 0.04588 0.08645 0.0
C358 C 0.11198 0.08535 0.07447 0.0
C359 C 0.02646 0.05442 0.07933 0.0
C360 C 0.05659 1.00664 0.04994 0.0
C361 C 0.95875 0.01027 0.00803 0.0
C362 C 0.9194 0.02131 0.02229 0.0
C363 C 0.93254 0.01107 0.03717 0.0
C364 C 0.95211 1.00571 0.03017 0.0
C365 C 0.94453 0.01859 0.99236 0.0
C366 C 0.9251 0.02418 0.99945 0.0
C367 C 0.98181 0.00977 1.00257 0.0
H368 H 0.18563 0.08621 0.06052 0.0
H369 H 0.15389 0.10431 0.06225 0.0
H370 H 0.11635 0.047 0.0941 0.0
H371 H 0.14781 0.02908 0.09235 0.0
H372 H 0.92834 0.00823 0.05469 0.0
H373 H 0.96264 0.99918 0.04265 0.0
H374 H 0.9493 0.02222 0.97521 0.0
H375 H 0.91552 0.03223 0.9876 0.0
Dy376 Dy 0.30274 0.79697 0.27617 0.0
Dy377 Dy 0.27329 0.80559 0.31928 0.0
C378 C 0.30885 0.84883 0.30572 0.0
O379 O 0.31904 0.78416 0.30733 0.0
O380 O 0.30913 0.8072 0.33685 0.0
O381 O 0.33611 0.80129 0.26457 0.0
O382 O 0.30522 0.78307 0.24028 0.0
O383 O 0.27166 0.76792 0.31356 0.0
O384 O 0.27539 0.76359 0.27429 0.0
O385 O 0.25066 0.80793 0.28593 0.0
O386 O 0.2757 0.81126 0.25832 0.0
O387 O 0.23955 0.7983 0.33005 0.0
O388 O 0.2694 0.81678 0.3556 0.0
C389 C 0.3225 0.7944 0.32957 0.0
O390 O 0.31724 0.8344 0.29263 0.0
O391 O 0.28991 0.84193 0.31504 0.0
C392 C 0.33329 0.81006 0.22566 0.0
C393 C 0.33476 0.84031 0.19165 0.0
C394 C 0.3357 0.84874 0.21573 0.0
C395 C 0.33491 0.83372 0.23256 0.0
C396 C 0.33378 0.80188 0.20186 0.0
C397 C 0.3346 0.81695 0.18493 0.0
C398 C 0.32714 0.79359 0.24245 0.0
C399 C 0.26844 0.7548 0.29294 0.0
C400 C 0.25555 0.81163 0.26456 0.0
C401 C 0.24059 0.78778 0.3685 0.0
C402 C 0.23262 0.75104 0.39577 0.0
C403 C 0.24921 0.77235 0.40466 0.0
C404 C 0.25309 0.79055 0.3912 0.0
C405 C 0.22286 0.76708 0.36033 0.0
C406 C 0.21899 0.74887 0.37379 0.0
C407 C 0.24765 0.80518 0.35248 0.0
H408 H 0.33598 0.86669 0.22139 0.0
H409 H 0.33428 0.84033 0.25079 0.0
H410 H 0.3322 0.78362 0.19616 0.0
H411 H 0.33361 0.80996 0.16641 0.0
H412 H 0.2602 0.77453 0.42142 0.0
H413 H 0.26671 0.80632 0.39807 0.0
H414 H 0.21264 0.76446 0.34304 0.0
H415 H 0.20588 0.7328 0.36662 0.0
Dy416 Dy 0.51803 0.04646 0.55341 0.0
Dy417 Dy 0.56836 0.05234 0.53514 0.0
C418 C 0.52648 0.06088 0.50327 0.0
O419 O 0.51589 0.01046 0.53303 0.0
O420 O 0.5545 0.01368 0.53538 0.0
O421 O 0.48102 0.03546 0.54454 0.0
O422 O 0.49662 0.05333 0.57988 0.0
O423 O 0.5731 0.05254 0.57435 0.0
O424 O 0.53727 0.03108 0.57936 0.0
O425 O 0.56515 0.08954 0.54155 0.0
O426 O 0.53964 0.0835 0.56853 0.0
O427 O 0.60557 0.06582 0.54167 0.0
O428 O 0.58897 0.04323 0.50895 0.0
C429 C 0.53298 1.00069 0.53084 0.0
O430 O 0.51853 0.06577 0.52291 0.0
O431 O 0.54321 0.05081 0.50294 0.0
C432 C 0.46377 0.06298 0.56237 0.0
C433 C 0.43653 0.09458 0.55794 0.0
C434 C 0.45257 0.09283 0.54228 0.0
C435 C 0.46609 0.0773 0.54453 0.0
C436 C 0.44799 0.06482 0.57818 0.0
C437 C 0.43453 0.08048 0.57603 0.0
C438 C 0.47779 0.04625 0.56452 0.0
C439 C 0.55947 0.03916 0.58645 0.0
C440 C 0.55453 0.09794 0.55813 0.0
C441 C 0.62408 0.03831 0.52628 0.0
C442 C 0.65383 0.00929 0.53223 0.0
C443 C 0.63183 1.00359 0.53945 0.0
C444 C 0.61716 0.01796 0.53654 0.0
C445 C 0.64597 0.04418 0.51916 0.0
C446 C 0.6607 0.02987 0.52212 0.0
C447 C 0.60843 0.05321 0.52269 0.0
H448 H 0.4548 0.10359 0.52834 0.0
H449 H 0.4783 0.07641 0.53222 0.0
H450 H 0.44594 0.05402 0.5921 0.0
H451 H 0.42221 0.08118 0.58825 0.0
H452 H 0.62575 0.9878 0.54701 0.0
H453 H 0.60033 0.01309 0.54219 0.0
H454 H 0.65169 0.05983 0.51127 0.0
H455 H 0.67761 0.03508 0.5167 0.0
Dy456 Dy 0.31258 0.28757 0.78595 0.0
Dy457 Dy 0.26437 0.30418 0.78274 0.0
C458 C 0.31244 0.33803 0.77592 0.0
O459 O 0.3128 0.3077 0.82199 0.0
O460 O 0.2738 0.30068 0.82059 0.0
O461 O 0.34962 0.29705 0.79589 0.0
O462 O 0.33172 0.26265 0.77705 0.0
O463 O 0.25496 0.26547 0.78069 0.0
O464 O 0.28753 0.26035 0.80107 0.0
O465 O 0.27186 0.29921 0.74488 0.0
O466 O 0.29218 0.27234 0.75006 0.0
O467 O 0.22784 0.29762 0.77051 0.0
O468 O 0.24596 0.32864 0.79507 0.0
C469 C 0.2946 0.30776 0.83266 0.0
O470 O 0.31811 0.3192 0.76811 0.0
O471 O 0.2939 0.33658 0.78626 0.0
C472 C 0.3692 0.2806 0.76753 0.0
C473 C 0.40327 0.28658 0.73646 0.0
C474 C 0.40829 0.29833 0.75999 0.0
C475 C 0.39153 0.29532 0.77529 0.0
C476 C 0.36408 0.26884 0.744 0.0
C477 C 0.38091 0.27174 0.72871 0.0
C478 C 0.35169 0.27788 0.78419 0.0
C479 C 0.26533 0.253 0.79295 0.0
C480 C 0.2806 0.28255 0.73611 0.0
C481 C 0.20742 0.31078 0.80005 0.0
C482 C 0.17226 0.30341 0.82982 0.0
C483 C 0.19274 0.29697 0.83538 0.0
C484 C 0.21008 0.30059 0.82067 0.0
C485 C 0.18701 0.31703 0.79431 0.0
C486 C 0.16966 0.31338 0.80894 0.0
C487 C 0.22591 0.31541 0.78475 0.0
H488 H 0.42535 0.30963 0.76676 0.0
H489 H 0.39608 0.30454 0.79331 0.0
H490 H 0.34705 0.25742 0.73731 0.0
H491 H 0.37631 0.26257 0.71068 0.0
H492 H 0.19562 0.2895 0.85135 0.0
H493 H 0.22566 0.2956 0.82551 0.0
H494 H 0.1845 0.32484 0.77847 0.0
H495 H 0.15408 0.31823 0.80374 0.0
Dy496 Dy 0.05276 0.02111 0.533 0.0
Dy497 Dy 0.0395 0.07169 0.53794 0.0
C498 C 1.0036 0.02395 0.54436 0.0
O499 O 0.03276 0.02216 0.49767 0.0
O500 O 0.04332 0.06176 0.50012 0.0
O501 O 0.04232 0.98366 0.52282 0.0
O502 O 0.07707 1.00102 0.53993 0.0
O503 O 0.07772 0.07931 0.54139 0.0
O504 O 0.08113 0.04628 0.51935 0.0
O505 O 0.04412 0.06505 0.57594 0.0
O506 O 0.06529 0.03842 0.57058 0.0
O507 O 0.04803 0.10912 0.54878 0.0
O508 O 0.01599 0.09115 0.5264 0.0
C509 C 0.03428 0.04103 0.48759 0.0
O510 O 0.02127 0.01621 0.55068 0.0
O511 O 1.0063 0.04331 0.53503 0.0
C512 C 0.0593 0.96423 0.55047 0.0
C513 C 0.05525 0.93169 0.5831 0.0
C514 C 0.04133 0.94717 0.58278 0.0
C515 C 0.04341 0.96332 0.56674 0.0
C516 C 0.07333 0.949 0.55085 0.0
C517 C 0.07138 0.93295 0.56699 0.0
C518 C 0.0615 0.98108 0.53326 0.0
C519 C 0.08955 0.06843 0.52861 0.0
C520 C 0.05724 0.05255 0.5845 0.0
C521 C 0.03478 0.12878 0.51886 0.0
C522 C 0.04206 0.16179 0.4867 0.0
C523 C 0.05077 0.14218 0.48398 0.0
C524 C 0.04722 0.1259 0.4999 0.0
C525 C 0.02604 0.14821 0.52163 0.0
C526 C 0.02963 0.16451 0.5058 0.0
C527 C 0.03023 0.11134 0.53535 0.0
H528 H 0.02894 0.94695 0.59508 0.0
H529 H 0.03254 0.97506 0.56702 0.0
H530 H 0.08576 0.94942 0.53855 0.0
H531 H 0.08222 0.9212 0.56651 0.0
H532 H 0.06058 0.13952 0.46969 0.0
H533 H 0.05415 0.11103 0.4974 0.0
H534 H 0.01624 0.15072 0.53599 0.0
H535 H 0.02228 0.17909 0.50833 0.0
Dy536 Dy 0.29704 0.82415 0.7689 0.0
Dy537 Dy 0.28968 0.77206 0.78423 0.0
C538 C 0.28223 0.81393 0.81848 0.0
O539 O 0.33194 0.82494 0.78912 0.0
O540 O 0.32804 0.78565 0.78393 0.0
O541 O 0.3085 0.8615 0.77909 0.0
O542 O 0.29179 0.84669 0.74319 0.0
O543 O 0.28904 0.76858 0.74497 0.0
O544 O 0.31167 0.80471 0.74183 0.0
O545 O 0.25303 0.77559 0.77814 0.0
O546 O 0.25988 0.80422 0.7544 0.0
O547 O 0.27699 0.73443 0.77567 0.0
O548 O 0.29699 0.75023 0.80979 0.0
C549 C 0.3412 0.80726 0.78983 0.0
O550 O 0.27791 0.82318 0.79966 0.0
O551 O 0.29166 0.7966 0.81752 0.0
C552 C 0.28218 0.8797 0.7614 0.0
C553 C 0.25053 0.90685 0.76541 0.0
C554 C 0.25218 0.89087 0.78117 0.0
C555 C 0.26773 0.87738 0.77911 0.0
C556 C 0.28047 0.89545 0.74552 0.0
C557 C 0.26478 0.90886 0.74746 0.0
C558 C 0.29859 0.8654 0.75917 0.0
C559 C 0.30282 0.78253 0.73353 0.0
C560 C 0.24524 0.78815 0.76335 0.0
C561 C 0.30335 0.71551 0.79189 0.0
C562 C 0.33317 0.68639 0.78727 0.0
C563 C 0.33864 0.70854 0.77999 0.0
C564 C 0.32386 0.7229 0.78223 0.0
C565 C 0.29771 0.69345 0.79904 0.0
C566 C 0.31242 0.67902 0.79672 0.0
C567 C 0.28814 0.73094 0.79502 0.0
H568 H 0.24128 0.88865 0.79499 0.0
H569 H 0.26846 0.86512 0.79142 0.0
H570 H 0.29133 0.89744 0.73165 0.0
H571 H 0.2641 0.92113 0.73516 0.0
H572 H 0.35453 0.71497 0.7729 0.0
H573 H 0.32855 0.73987 0.77658 0.0
H574 H 0.28194 0.68739 0.80647 0.0
H575 H 0.3074 0.66197 0.80215 0.0
Dy576 Dy 0.53234 0.06329 0.99643 0.0
Dy577 Dy 0.53263 0.03034 0.03764 0.0
C578 C 0.54102 0.01282 0.98527 0.0
O579 O 0.49754 0.03765 0.98984 0.0
O580 O 0.49673 0.03216 0.02842 0.0
O581 O 0.52759 0.06777 0.95948 0.0
O582 O 0.53999 0.09791 0.98673 0.0
O583 O 0.53177 0.06492 0.05717 0.0
O584 O 0.51824 0.0811 0.02615 0.0
O585 O 0.56975 0.04338 0.0336 0.0
O586 O 0.56652 0.07619 0.01858 0.0
O587 O 0.54492 0.02353 0.07212 0.0
O588 O 0.51793 0.99718 0.04857 0.0
C589 C 0.48625 0.02958 0.00671 0.0
O590 O 0.54829 0.03493 0.98271 0.0
O591 O 0.53023 1.00701 0.00325 0.0
C592 C 0.55951 0.09738 0.95391 0.0
C593 C 0.60178 0.11115 0.9362 0.0
C594 C 0.59697 0.092 0.94858 0.0
C595 C 0.57618 0.08528 0.95735 0.0
C596 C 0.56423 0.11685 0.94208 0.0
C597 C 0.58524 0.12367 0.93317 0.0
C598 C 0.53815 0.09002 0.96425 0.0
C599 C 0.52307 0.081 0.04919 0.0
C600 C 0.57903 0.06406 0.02825 0.0
C601 C 0.51336 1.00367 0.08837 0.0
C602 C 0.48628 1.00663 0.12467 0.0
C603 C 0.48446 0.01889 0.10551 0.0
C604 C 0.49796 0.01748 0.08758 0.0
C605 C 0.51466 0.99066 0.10692 0.0
C606 C 0.50112 0.9921 0.12502 0.0
C607 C 0.52857 1.00413 0.07024 0.0
H608 H 0.60891 0.08153 0.95081 0.0
H609 H 0.57308 0.07044 0.96678 0.0
H610 H 0.55171 0.12666 0.93965 0.0
H611 H 0.58843 0.13851 0.92372 0.0
H612 H 0.47306 0.03007 0.10474 0.0
H613 H 0.49682 0.02772 0.07339 0.0
H614 H 0.52654 0.97998 0.10775 0.0
H615 H 0.503 0.98269 0.13979 0.0
Dy616 Dy 0.2771 0.2687 0.26751 0.0
Dy617 Dy 0.30648 0.31909 0.29678 0.0
C618 C 0.29608 0.27405 0.3243 0.0
O619 O 0.2488 0.28101 0.28323 0.0
O620 O 0.26857 0.31922 0.29678 0.0
O621 O 0.25519 0.2336 0.26509 0.0
O622 O 0.26699 0.24625 0.23361 0.0
O623 O 0.30236 0.32464 0.25886 0.0
O624 O 0.27104 0.29422 0.24346 0.0
O625 O 0.33544 0.30352 0.28722 0.0
O626 O 0.31437 0.27038 0.26223 0.0
O627 O 0.33463 0.35041 0.30056 0.0
O628 O 0.3099 0.34743 0.3252 0.0
C629 C 0.2491 0.30212 0.29304 0.0
O630 O 0.28471 0.2608 0.30448 0.0
O631 O 0.30659 0.29628 0.32507 0.0
C632 C 0.26704 0.20778 0.23859 0.0
C633 C 0.28939 0.17232 0.24033 0.0
C634 C 0.26709 0.16898 0.24649 0.0
C635 C 0.25597 0.18658 0.24556 0.0
C636 C 0.28865 0.21044 0.23082 0.0
C637 C 0.29968 0.19281 0.23159 0.0
C638 C 0.25778 0.228 0.2431 0.0
C639 C 0.28569 0.31406 0.24158 0.0
C640 C 0.33453 0.28493 0.27184 0.0
C641 C 0.3206 0.38306 0.31045 0.0
C642 C 0.30102 0.4176 0.29523 0.0
C643 C 0.31353 0.40687 0.28043 0.0
C644 C 0.32319 0.38975 0.28793 0.0
C645 C 0.30959 0.395 0.32589 0.0
C646 C 0.29981 0.41203 0.31833 0.0
C647 C 0.32594 0.36157 0.31643 0.0
H648 H 0.25871 0.15321 0.25306 0.0
H649 H 0.23934 0.18418 0.25165 0.0
H650 H 0.29771 0.22665 0.22546 0.0
H651 H 0.31692 0.19592 0.22691 0.0
H652 H 0.31516 0.41109 0.26271 0.0
H653 H 0.33167 0.381 0.27557 0.0
H654 H 0.30732 0.39017 0.34329 0.0
H655 H 0.29013 0.41979 0.33014 0.0
Dy656 Dy 0.55244 0.52465 0.0326 0.0
Dy657 Dy 0.5373 0.57461 0.03908 0.0
C658 C 0.50129 0.52592 0.04034 0.0
O659 O 0.54592 0.53059 0.99475 0.0
O660 O 0.52604 0.55831 1.00106 0.0
O661 O 0.54508 0.48739 0.0215 0.0
O662 O 0.57713 0.50624 0.04355 0.0
O663 O 0.56961 0.58278 0.02315 0.0
O664 O 0.58484 0.55267 0.03107 0.0
O665 O 0.5566 0.57322 0.0746 0.0
O666 O 0.54875 0.53355 0.07076 0.0
O667 O 0.54563 0.61167 0.05141 0.0
O668 O 0.51244 0.59385 0.03085 0.0
C669 C 0.53309 0.54357 0.98681 0.0
O670 O 0.51407 0.51583 0.02809 0.0
O671 O 0.50894 0.54778 0.05078 0.0
C672 C 0.55994 0.46824 0.05097 0.0
C673 C 0.5549 0.43553 0.08336 0.0
C674 C 0.5406 0.45061 0.08222 0.0
C675 C 0.54317 0.46686 0.06628 0.0
C676 C 0.5742 0.45328 0.05204 0.0
C677 C 0.57174 0.43713 0.06804 0.0
C678 C 0.56339 0.4858 0.03459 0.0
C679 C 0.58688 0.57353 0.02507 0.0
C680 C 0.55607 0.55412 0.08398 0.0
C681 C 0.53085 0.63149 0.02225 0.0
C682 C 0.53701 0.66426 0.98959 0.0
C683 C 0.55575 0.65715 0.9998 0.0
C684 C 0.55271 0.64096 0.0158 0.0
C685 C 0.51211 0.63845 0.01205 0.0
C686 C 0.51511 0.65453 0.99593 0.0
C687 C 0.52728 0.61398 0.03894 0.0
H688 H 0.52764 0.45008 0.0939 0.0
H689 H 0.53215 0.47845 0.06601 0.0
H690 H 0.58733 0.45412 0.04051 0.0
H691 H 0.58287 0.42566 0.06819 0.0
H692 H 0.57294 0.66436 0.99575 0.0
H693 H 0.56757 0.63591 0.02313 0.0
H694 H 0.49504 0.63132 0.01646 0.0
H695 H 0.50013 0.65915 0.98824 0.0
Dy696 Dy 0.79913 0.32981 0.25991 0.0
Dy697 Dy 0.79001 0.27529 0.28357 0.0
C698 C 0.78411 0.32014 0.31403 0.0
O699 O 0.83503 0.32638 0.27455 0.0
O700 O 0.82837 0.29217 0.29193 0.0
O701 O 0.81183 0.36725 0.26997 0.0
O702 O 0.79178 0.3526 0.23549 0.0
O703 O 0.79841 0.29069 0.25313 0.0
O704 O 0.80587 0.31054 0.22612 0.0
O705 O 0.75363 0.27797 0.27295 0.0
O706 O 0.76054 0.31061 0.25321 0.0
O707 O 0.78317 0.24011 0.2653 0.0
O708 O 0.79126 0.24754 0.30397 0.0
C709 C 0.84249 0.31111 0.28636 0.0
O710 O 0.78726 0.33164 0.29577 0.0
O711 O 0.78586 0.29873 0.31457 0.0
C712 C 0.78453 0.38588 0.25532 0.0
C713 C 0.75277 0.41245 0.26169 0.0
C714 C 0.75086 0.39197 0.2719 0.0
C715 C 0.76649 0.37875 0.26859 0.0
C716 C 0.78659 0.40632 0.24519 0.0
C717 C 0.77082 0.41947 0.24829 0.0
C718 C 0.80036 0.37136 0.2511 0.0
C719 C 0.80352 0.29016 0.23196 0.0
C720 C 0.74624 0.29269 0.26045 0.0
C721 C 0.80455 0.21771 0.28417 0.0
C722 C 0.83554 0.18971 0.28263 0.0
C723 C 0.84341 0.21392 0.28272 0.0
C724 C 0.82807 0.22781 0.2836 0.0
C725 C 0.79666 0.19361 0.28408 0.0
C726 C 0.81199 0.17975 0.2834 0.0
C727 C 0.78812 0.23203 0.28491 0.0
H728 H 0.73702 0.38593 0.28207 0.0
H729 H 0.76434 0.36276 0.27614 0.0
H730 H 0.80028 0.41203 0.23474 0.0
H731 H 0.77289 0.43527 0.24039 0.0
H732 H 0.86146 0.22215 0.28232 0.0
H733 H 0.83454 0.2464 0.28377 0.0
H734 H 0.77859 0.18547 0.28452 0.0
H735 H 0.80535 0.16114 0.28316 0.0
Dy736 Dy 0.038 0.56162 0.50335 0.0
Dy737 Dy 0.04442 0.53184 0.54579 0.0
C738 C 0.04921 0.51221 0.49288 0.0
O739 O 1.00161 0.54484 0.5071 0.0
O740 O 1.00858 0.51589 0.52728 0.0
O741 O 0.03258 0.5658 0.46633 0.0
O742 O 0.04045 0.59579 0.49369 0.0
O743 O 0.02603 0.55727 0.56058 0.0
O744 O 0.0401 0.58497 0.53803 0.0
O745 O 0.07695 0.56064 0.54947 0.0
O746 O 0.07521 0.56358 0.51016 0.0
O747 O 0.05703 0.53009 0.58201 0.0
O748 O 0.03991 0.49839 0.55774 0.0
C749 C 0.99447 0.52496 0.51507 0.0
O750 O 0.0365 0.52549 0.48553 0.0
O751 O 0.0586 0.51568 0.51528 0.0
C752 C 0.05986 0.5994 0.46028 0.0
C753 C 0.0999 0.61021 0.43831 0.0
C754 C 0.10155 0.61356 0.46319 0.0
C755 C 0.08174 0.60807 0.47408 0.0
C756 C 0.05804 0.59783 0.43555 0.0
C757 C 0.07787 0.60317 0.42463 0.0
C758 C 0.0397 0.58846 0.47123 0.0
C759 C 0.03075 0.57908 0.55691 0.0
C760 C 0.08694 0.56745 0.5314 0.0
C761 C 0.03081 0.50126 0.59644 0.0
C762 C 1.0015 0.49665 0.63132 0.0
C763 C 0.99396 0.50157 0.60898 0.0
C764 C 1.00856 0.50395 0.59171 0.0
C765 C 0.03795 0.49505 0.61818 0.0
C766 C 0.02334 0.49269 0.63553 0.0
C767 C 0.04719 0.50778 0.57983 0.0
H768 H 0.1182 0.61915 0.47424 0.0
H769 H 0.08369 0.60932 0.49325 0.0
H770 H 0.04138 0.59098 0.4246 0.0
H771 H 0.07591 0.60003 0.40542 0.0
H772 H 0.97737 0.50499 0.60536 0.0
H773 H 1.0029 0.50905 0.57508 0.0
H774 H 0.05512 0.49303 0.62209 0.0
H775 H 0.02945 0.48867 0.65257 0.0
Dy776 Dy 0.81415 0.78997 0.28636 0.0
Dy777 Dy 0.76581 0.80646 0.28318 0.0
C778 C 0.81388 0.8405 0.27656 0.0
O779 O 0.81426 0.80998 0.32244 0.0
O780 O 0.77522 0.80262 0.32089 0.0
O781 O 0.85123 0.79942 0.29614 0.0
O782 O 0.83321 0.76495 0.27756 0.0
O783 O 0.75652 0.76772 0.28068 0.0
O784 O 0.78899 0.76267 0.3013 0.0
O785 O 0.7733 0.80171 0.24532 0.0
O786 O 0.79385 0.77498 0.25038 0.0
O787 O 0.72918 0.79978 0.2714 0.0
O788 O 0.74752 0.83104 0.29552 0.0
C789 C 0.79598 0.80987 0.33303 0.0
O790 O 0.81972 0.82176 0.26875 0.0
O791 O 0.7953 0.8389 0.28685 0.0
C792 C 0.87081 0.78254 0.26802 0.0
C793 C 0.90514 0.78759 0.2372 0.0
C794 C 0.91 0.79991 0.26049 0.0
C795 C 0.89312 0.79736 0.27566 0.0
C796 C 0.86584 0.77022 0.24472 0.0
C797 C 0.88279 0.77267 0.22955 0.0
C798 C 0.85323 0.78013 0.28462 0.0
C799 C 0.76683 0.75527 0.29301 0.0
C800 C 0.78218 0.78518 0.23651 0.0
C801 C 0.70918 0.81329 0.3012 0.0
C802 C 0.67468 0.80644 0.33176 0.0
C803 C 0.69476 0.79908 0.33648 0.0
C804 C 0.71177 0.80245 0.32138 0.0
C805 C 0.68918 0.82047 0.29629 0.0
C806 C 0.67215 0.81707 0.31132 0.0
C807 C 0.72739 0.81771 0.28554 0.0
H808 H 0.92704 0.81129 0.26719 0.0
H809 H 0.89757 0.80698 0.29352 0.0
H810 H 0.84884 0.75868 0.23813 0.0
H811 H 0.87829 0.76307 0.2117 0.0
H812 H 0.69758 0.79108 0.3521 0.0
H813 H 0.72706 0.79675 0.32557 0.0
H814 H 0.68673 0.82881 0.28082 0.0
H815 H 0.65685 0.82263 0.30675 0.0
Dy816 Dy 0.80291 0.30135 0.77856 0.0
Dy817 Dy 0.7722 0.30417 0.82125 0.0
C818 C 0.80612 0.3496 0.80959 0.0
O819 O 0.82743 0.30389 0.81176 0.0
O820 O 0.80117 0.28993 0.83609 0.0
O821 O 0.83442 0.31467 0.7644 0.0
O822 O 0.80698 0.2866 0.74356 0.0
O823 O 0.76022 0.26781 0.80246 0.0
O824 O 0.79222 0.26475 0.78585 0.0
O825 O 0.75526 0.3187 0.79144 0.0
O826 O 0.76715 0.29904 0.76086 0.0
O827 O 0.73845 0.29757 0.83225 0.0
O828 O 0.76886 0.31253 0.85825 0.0
C829 C 0.8226 0.29549 0.83139 0.0
O830 O 0.80345 0.33866 0.78784 0.0
O831 O 0.79821 0.33859 0.82664 0.0
C832 C 0.82579 0.31627 0.72399 0.0
C833 C 0.81956 0.33978 0.68535 0.0
C834 C 0.81418 0.34754 0.70754 0.0
C835 C 0.81718 0.33582 0.72665 0.0
C836 C 0.83189 0.30885 0.70212 0.0
C837 C 0.82884 0.32058 0.68287 0.0
C838 C 0.82615 0.30257 0.74343 0.0
C839 C 0.77262 0.25532 0.793 0.0
C840 C 0.753 0.31059 0.7686 0.0
C841 C 0.73993 0.28279 0.86851 0.0
C842 C 0.73688 0.24672 0.89621 0.0
C843 C 0.73449 0.24173 0.87138 0.0
C844 C 0.73605 0.2596 0.85764 0.0
C845 C 0.74073 0.28759 0.89317 0.0
C846 C 0.73913 0.26965 0.90695 0.0
C847 C 0.74688 0.30198 0.85474 0.0
H848 H 0.80726 0.36243 0.71 0.0
H849 H 0.81216 0.34167 0.74337 0.0
H850 H 0.83829 0.29361 0.69974 0.0
H851 H 0.8329 0.31411 0.66586 0.0
H852 H 0.7325 0.22418 0.86268 0.0
H853 H 0.73548 0.25539 0.83864 0.0
H854 H 0.74395 0.30538 0.90189 0.0
H855 H 0.74124 0.27399 0.92611 0.0
Dy856 Dy 0.77629 0.76737 0.76719 0.0
Dy857 Dy 0.80585 0.81772 0.79651 0.0
C858 C 0.79515 0.77269 0.82396 0.0
O859 O 0.74796 0.78004 0.78247 0.0
O860 O 0.76798 0.81814 0.79635 0.0
O861 O 0.7542 0.73234 0.76486 0.0
O862 O 0.76627 0.74475 0.73338 0.0
O863 O 0.80185 0.82355 0.75867 0.0
O864 O 0.77089 0.79285 0.74279 0.0
O865 O 0.83468 0.80207 0.78683 0.0
O866 O 0.81357 0.76863 0.76233 0.0
O867 O 0.83443 0.8487 0.8008 0.0
O868 O 0.80931 0.84597 0.82503 0.0
C869 C 0.74839 0.80119 0.79234 0.0
O870 O 0.78344 0.75953 0.80425 0.0
O871 O 0.806 0.7948 0.82464 0.0
C872 C 0.76611 0.70625 0.73864 0.0
C873 C 0.78832 0.67062 0.73995 0.0
C874 C 0.76655 0.66777 0.74734 0.0
C875 C 0.75549 0.68543 0.7466 0.0
C876 C 0.78721 0.70844 0.7298 0.0
C877 C 0.79815 0.69073 0.73036 0.0
C878 C 0.75694 0.72658 0.74294 0.0
C879 C 0.78548 0.81282 0.74114 0.0
C880 C 0.83373 0.78327 0.77176 0.0
C881 C 0.82096 0.88165 0.81074 0.0
C882 C 0.80147 0.91634 0.79602 0.0
C883 C 0.81275 0.90476 0.78052 0.0
C884 C 0.82237 0.88756 0.78778 0.0
C885 C 0.81132 0.89449 0.82682 0.0
C886 C 0.80159 0.91163 0.81951 0.0
C887 C 0.82577 0.85995 0.81662 0.0
H888 H 0.75855 0.6523 0.75462 0.0
H889 H 0.73927 0.68337 0.75351 0.0
H890 H 0.79594 0.72434 0.72367 0.0
H891 H 0.815 0.69344 0.72473 0.0
H892 H 0.81331 0.90832 0.76245 0.0
H893 H 0.82977 0.87807 0.77493 0.0
H894 H 0.80997 0.89022 0.84456 0.0
H895 H 0.79288 0.92011 0.83185 0.0
Dy896 Dy 0.57026 0.56472 0.55172 0.0
Dy897 Dy 0.52034 0.53491 0.52379 0.0
C898 C 0.56449 0.54521 0.49624 0.0
O899 O 0.55648 0.59197 0.53493 0.0
O900 O 0.51819 0.57259 0.52538 0.0
O901 O 0.60138 0.59236 0.5529 0.0
O902 O 0.59693 0.57262 0.58208 0.0
O903 O 0.51413 0.5409 0.56142 0.0
O904 O 0.54665 0.5696 0.5784 0.0
O905 O 0.53762 0.50646 0.5324 0.0
O906 O 0.5681 0.52799 0.55998 0.0
O907 O 0.49109 0.50448 0.51946 0.0
O908 O 0.49187 0.52991 0.49575 0.0
C909 C 0.53517 0.59198 0.52724 0.0
O910 O 0.57771 0.54883 0.51679 0.0
O911 O 0.54223 0.54228 0.49501 0.0
C912 C 0.63339 0.58163 0.56994 0.0
C913 C 0.67166 0.56383 0.5667 0.0
C914 C 0.65695 0.56406 0.54613 0.0
C915 C 0.63799 0.57279 0.54773 0.0
C916 C 0.64858 0.58241 0.59045 0.0
C917 C 0.66761 0.57353 0.58886 0.0
C918 C 0.61139 0.5871 0.57195 0.0
C919 C 0.52599 0.55626 0.57954 0.0
C920 C 0.55476 0.50747 0.54928 0.0
C921 C 0.457 0.51573 0.51029 0.0
C922 C 0.42072 0.53239 0.52545 0.0
C923 C 0.4335 0.5223 0.54087 0.0
C924 C 0.45151 0.51412 0.53341 0.0
C925 C 0.44309 0.52408 0.49432 0.0
C926 C 0.42518 0.53241 0.50183 0.0
C927 C 0.47906 0.51252 0.50403 0.0
H928 H 0.65932 0.5563 0.52886 0.0
H929 H 0.62637 0.57164 0.53163 0.0
H930 H 0.6452 0.58899 0.60775 0.0
H931 H 0.67875 0.57365 0.60497 0.0
H932 H 0.43024 0.52164 0.55904 0.0
H933 H 0.46185 0.50771 0.5462 0.0
H934 H 0.44701 0.52557 0.47645 0.0
H935 H 0.41583 0.54025 0.48952 0.0
Dy936 Dy 0.01692 0.54478 0.04722 0.0
Dy937 Dy 0.06816 0.55098 0.03035 0.0
C938 C 0.02683 0.55963 0.99746 0.0
O939 O 0.01547 0.50893 0.02719 0.0
O940 O 0.05418 0.51236 0.03118 0.0
O941 O 0.97993 0.53431 0.03715 0.0
O942 O 0.9948 0.54959 0.07347 0.0
O943 O 0.07272 0.55115 0.06934 0.0
O944 O 0.03648 0.53111 0.07477 0.0
O945 O 0.0662 0.58857 0.03835 0.0
O946 O 0.03641 0.5826 0.06078 0.0
O947 O 0.1054 0.56398 0.03706 0.0
O948 O 0.08875 0.54166 0.00424 0.0
C949 C 0.03271 0.49925 0.02598 0.0
O950 O 0.01802 0.56419 0.01664 0.0
O951 O 0.04366 0.54969 0.99776 0.0
C952 C 0.96212 0.56062 0.05668 0.0
C953 C 0.93532 0.59279 0.05308 0.0
C954 C 0.92858 0.57088 0.03857 0.0
C955 C 0.94176 0.55499 0.04041 0.0
C956 C 0.96888 0.58252 0.07126 0.0
C957 C 0.95559 0.59836 0.06954 0.0
C958 C 0.97634 0.54383 0.0576 0.0
C959 C 0.05875 0.53876 0.08185 0.0
C960 C 0.05339 0.59686 0.05265 0.0
C961 C 0.12349 0.53614 0.02174 0.0
C962 C 0.15257 0.50655 0.028 0.0
C963 C 0.13054 0.50125 0.03515 0.0
C964 C 0.11621 0.51591 0.03211 0.0
C965 C 0.1454 0.54158 0.01463 0.0
C966 C 0.15981 0.52699 0.01776 0.0
C967 C 0.1082 0.55135 0.01808 0.0
H968 H 0.91292 0.56587 0.02592 0.0
H969 H 0.93607 0.53828 0.02897 0.0
H970 H 0.98454 0.58757 0.08389 0.0
H971 H 0.96139 0.61514 0.08084 0.0
H972 H 0.1242 0.48558 0.04281 0.0
H973 H 0.09937 0.51139 0.03777 0.0
H974 H 0.15139 0.55714 0.00667 0.0
H975 H 0.17676 0.53189 0.01238 0.0
C976 C 1.0056 0.21431 0.00991 0.0
C977 C 1.0096 0.22202 0.98792 0.0
C978 C 1.00976 0.19324 0.01601 0.0
C979 C 0.01807 0.17854 0.99986 0.0
C980 C 0.02203 0.18607 0.97754 0.0
C981 C 0.01794 0.20745 0.97196 0.0
C982 C 1.00535 0.18678 0.04009 0.0
C983 C 0.03061 0.17139 0.95935 0.0
C984 C 0.04886 0.13458 0.02459 0.0
C985 C 0.03152 0.1131 0.02065 0.0
C986 C 0.04481 0.15553 0.01793 0.0
C987 C 0.02281 0.15573 0.00656 0.0
C988 C 1.00527 0.13408 1.00237 0.0
C989 C 1.00972 0.11339 0.00945 0.0
C990 C 0.06424 0.17771 0.02332 0.0
C991 C 0.98156 0.1327 0.99025 0.0
H992 H 0.99928 0.22495 0.02275 0.0
H993 H 0.0212 0.21268 0.9549 0.0
H994 H 0.99237 0.1696 0.038 0.0
H995 H 0.02141 0.18511 0.05001 0.0
H996 H 0.99908 0.19987 0.05086 0.0
H997 H 0.0324 0.179 0.94266 0.0
H998 H 0.04758 0.16954 0.9667 0.0
H999 H 0.01856 0.15361 0.95509 0.0
H1000 H 0.06583 0.13512 0.03312 0.0
H1001 H 0.99599 0.09726 0.00596 0.0
H1002 H 0.05921 0.19107 0.03504 0.0
H1003 H 0.06779 0.18481 0.00667 0.0
H1004 H 0.08035 0.17501 0.03213 0.0
H1005 H 0.97376 0.14435 1.00108 0.0
H1006 H 0.9699 0.1147 0.98743 0.0
H1007 H 0.98279 0.13886 0.97279 0.0
C1008 C 0.16969 0.84236 0.16073 0.0
C1009 C 0.14707 0.8279 0.15879 0.0
C1010 C 0.18746 0.84107 0.17834 0.0
C1011 C 0.18304 0.82413 0.1939 0.0
C1012 C 0.16026 0.80929 0.19175 0.0
C1013 C 0.14261 0.81169 0.17471 0.0
C1014 C 0.21104 0.85794 0.18028 0.0
C1015 C 0.15461 0.79028 0.20696 0.0
C1016 C 0.23462 0.80534 0.22257 0.0
C1017 C 0.2374 0.81546 0.24651 0.0
C1018 C 0.217 0.80776 0.20551 0.0
C1019 C 0.20216 0.82155 0.21203 0.0
C1020 C 0.2054 0.8324 0.23608 0.0
C1021 C 0.22249 0.8288 0.25301 0.0
C1022 C 0.21392 0.795 0.18056 0.0
C1023 C 0.19092 0.84808 0.24392 0.0
H1024 H 0.17346 0.85494 0.1486 0.0
H1025 H 0.12538 0.80012 0.17322 0.0
H1026 H 0.2171 0.86647 0.19896 0.0
H1027 H 0.22356 0.84842 0.17502 0.0
H1028 H 0.21117 0.87163 0.16881 0.0
H1029 H 0.13638 0.77962 0.20264 0.0
H1030 H 0.16595 0.77861 0.20449 0.0
H1031 H 0.15791 0.79796 0.226 0.0
H1032 H 0.24583 0.79483 0.21729 0.0
H1033 H 0.22451 0.83687 0.27135 0.0
H1034 H 0.21685 0.80765 0.16784 0.0
H1035 H 0.19598 0.78374 0.17558 0.0
H1036 H 0.22593 0.78397 0.17853 0.0
H1037 H 0.19166 0.86168 0.23226 0.0
H1038 H 0.19667 0.85674 0.26261 0.0
H1039 H 0.17265 0.83782 0.24226 0.0
C1040 C 0.51453 0.86792 0.46425 0.0
C1041 C 0.51319 0.85068 0.47921 0.0
C1042 C 0.51669 0.89163 0.47305 0.0
C1043 C 0.51759 0.89903 0.49772 0.0
C1044 C 0.51591 0.88168 0.51296 0.0
C1045 C 0.51373 0.85794 0.50363 0.0
C1046 C 0.51838 0.90893 0.45579 0.0
C1047 C 0.51674 0.88828 0.53931 0.0
C1048 C 0.54708 0.96447 0.52155 0.0
C1049 C 0.5285 0.97444 0.52311 0.0
C1050 C 0.54376 0.9403 0.5139 0.0
C1051 C 0.52121 0.92493 0.50739 0.0
C1052 C 0.50233 0.93476 0.50915 0.0
C1053 C 0.50615 0.95911 0.5169 0.0
C1054 C 0.56464 0.93125 0.51247 0.0
C1055 C 0.47794 0.91952 0.5025 0.0
H1056 H 0.51411 0.86292 0.44537 0.0
H1057 H 0.51276 0.84512 0.51557 0.0
H1058 H 0.50476 0.91806 0.45728 0.0
H1059 H 0.53523 0.92236 0.46018 0.0
H1060 H 0.51665 0.90052 0.43709 0.0
H1061 H 0.51431 0.87291 0.5488 0.0
H1062 H 0.53359 0.90085 0.54681 0.0
H1063 H 0.50319 0.89708 0.54276 0.0
H1064 H 0.56451 0.97568 0.52619 0.0
H1065 H 0.4915 0.96617 0.51789 0.0
H1066 H 0.56495 0.924 0.49381 0.0
H1067 H 0.56373 0.91687 0.52315 0.0
H1068 H 0.58102 0.94504 0.51892 0.0
H1069 H 0.47498 0.91191 0.48345 0.0
H1070 H 0.46505 0.9293 0.50568 0.0
H1071 H 0.47507 0.90479 0.51286 0.0
C1072 C 0.51842 0.29966 0.67774 0.0
C1073 C 0.51743 0.30522 0.65456 0.0
C1074 C 0.49901 0.29603 0.68969 0.0
C1075 C 0.47784 0.29797 0.67832 0.0
C1076 C 0.47655 0.30313 0.65473 0.0
C1077 C 0.49633 0.30668 0.64314 0.0
C1078 C 0.50131 0.29053 0.71474 0.0
C1079 C 0.45437 0.30532 0.6419 0.0
C1080 C 0.42412 0.2705 0.70542 0.0
C1081 C 0.42141 0.28967 0.7203 0.0
C1082 C 0.44192 0.27303 0.69115 0.0
C1083 C 0.45744 0.29529 0.69157 0.0
C1084 C 0.45437 0.3148 0.70602 0.0
C1085 C 0.43652 0.31176 0.72018 0.0
C1086 C 0.44455 0.25171 0.67617 0.0
C1087 C 0.47032 0.33889 0.70697 0.0
H1088 H 0.53457 0.29843 0.6868 0.0
H1089 H 0.49535 0.311 0.62528 0.0
H1090 H 0.49789 0.30452 0.72709 0.0
H1091 H 0.48835 0.27402 0.71596 0.0
H1092 H 0.51872 0.28885 0.72082 0.0
H1093 H 0.45584 0.30842 0.62332 0.0
H1094 H 0.44028 0.28925 0.64167 0.0
H1095 H 0.44934 0.31999 0.65148 0.0
H1096 H 0.41275 0.25332 0.70547 0.0
H1097 H 0.4344 0.32678 0.73125 0.0
H1098 H 0.46099 0.24822 0.68281 0.0
H1099 H 0.44532 0.25473 0.6575 0.0
H1100 H 0.43019 0.23596 0.67645 0.0
H1101 H 0.48803 0.33927 0.71457 0.0
H1102 H 0.46483 0.35247 0.71792 0.0
H1103 H 0.4711 0.34339 0.68879 0.0
C1104 C 0.03908 0.84208 0.68008 0.0
C1105 C 0.03732 0.81968 0.66832 0.0
C1106 C 0.04291 0.86156 0.66788 0.0
C1107 C 0.0449 0.85861 0.64331 0.0
C1108 C 0.04361 0.8361 0.63155 0.0
C1109 C 0.03992 0.81704 0.64416 0.0
C1110 C 0.04438 0.88524 0.68118 0.0
C1111 C 0.04556 0.83198 0.60542 0.0
C1112 C 0.03073 0.90123 0.60339 0.0
C1113 C 0.05267 0.91399 0.59976 0.0
C1114 C 0.02798 0.88367 0.618 0.0
C1115 C 0.04764 0.87873 0.62953 0.0
C1116 C 0.06986 0.89199 0.62649 0.0
C1117 C 0.07209 0.90932 0.61161 0.0
C1118 C 1.00397 0.86988 0.62048 0.0
C1119 C 0.0913 0.88755 0.63857 0.0
H1120 H 0.03706 0.84433 0.69871 0.0
H1121 H 0.03859 0.79986 0.63483 0.0
H1122 H 0.06055 0.89802 0.67892 0.0
H1123 H 0.02986 0.89154 0.67376 0.0
H1124 H 0.04378 0.88494 0.70046 0.0
H1125 H 0.04473 0.81355 0.599 0.0
H1126 H 0.03142 0.83666 0.59494 0.0
H1127 H 0.06204 0.84332 0.60185 0.0
H1128 H 0.01559 0.90447 0.59419 0.0
H1129 H 0.08914 0.91927 0.60926 0.0
H1130 H 1.0019 0.87027 0.63952 0.0
H1131 H 1.0011 0.85137 0.61271 0.0
H1132 H 0.99049 0.87666 0.61148 0.0
H1133 H 0.09075 0.88824 0.65794 0.0
H1134 H 0.10726 0.90039 0.63579 0.0
H1135 H 0.09216 0.86981 0.6316 0.0
C1136 C 0.4678 0.82311 0.86081 0.0
C1137 C 0.48699 0.82703 0.84828 0.0
C1138 C 0.44501 0.82008 0.84983 0.0
C1139 C 0.44036 0.82087 0.82521 0.0
C1140 C 0.45945 0.82438 0.81214 0.0
C1141 C 0.48237 0.82734 0.82369 0.0
C1142 C 0.42577 0.81619 0.86487 0.0
C1143 C 0.45567 0.82534 0.7859 0.0
C1144 C 0.37671 0.79228 0.79721 0.0
C1145 C 0.36699 0.81126 0.79744 0.0
C1146 C 0.40043 0.79522 0.80509 0.0
C1147 C 0.41551 0.8178 0.81368 0.0
C1148 C 0.40596 0.83711 0.81346 0.0
C1149 C 0.3821 0.83367 0.80542 0.0
C1150 C 0.40922 0.7739 0.80485 0.0
C1151 C 0.4209 0.86155 0.82239 0.0
H1152 H 0.47054 0.82246 0.87969 0.0
H1153 H 0.49666 0.8304 0.81356 0.0
H1154 H 0.417 0.83022 0.86417 0.0
H1155 H 0.4127 0.79942 0.85778 0.0
H1156 H 0.43201 0.81588 0.88375 0.0
H1157 H 0.47187 0.82762 0.77796 0.0
H1158 H 0.44298 0.8091 0.77658 0.0
H1159 H 0.44835 0.84003 0.78278 0.0
H1160 H 0.36563 0.77481 0.79111 0.0
H1161 H 0.37521 0.84861 0.80578 0.0
H1162 H 0.4145 0.77157 0.82335 0.0
H1163 H 0.42467 0.77616 0.79567 0.0
H1164 H 0.39602 0.75779 0.79593 0.0
H1165 H 0.42671 0.86334 0.84172 0.0
H1166 H 0.41168 0.87491 0.81933 0.0
H1167 H 0.43655 0.86511 0.8135 0.0
C1168 C 0.5351 0.18915 0.15076 0.0
C1169 C 0.51576 0.19789 0.15133 0.0
C1170 C 0.53449 0.16861 0.1356 0.0
C1171 C 0.51387 0.1559 0.12056 0.0
C1172 C 0.49375 0.16361 0.12241 0.0
C1173 C 0.49502 0.18466 0.13739 0.0
C1174 C 0.55657 0.16168 0.13426 0.0
C1175 C 0.47115 0.15043 0.10744 0.0
C1176 C 0.52079 0.12223 0.06143 0.0
C1177 C 0.519 0.09967 0.06686 0.0
C1178 C 0.51881 0.14041 0.07852 0.0
C1179 C 0.51415 0.13602 0.10162 0.0
C1180 C 0.51136 0.113 0.10685 0.0
C1181 C 0.5142 0.09533 0.08967 0.0
C1182 C 0.52253 0.16462 0.07205 0.0
C1183 C 0.50562 0.10704 0.13075 0.0
H1184 H 0.55141 0.19958 0.16081 0.0
H1185 H 0.48016 0.19153 0.13697 0.0
H1186 H 0.55386 0.14304 0.13612 0.0
H1187 H 0.56206 0.16391 0.11661 0.0
H1188 H 0.57074 0.17231 0.14819 0.0
H1189 H 0.45647 0.15601 0.11379 0.0
H1190 H 0.47177 0.15353 0.08879 0.0
H1191 H 0.46797 0.13139 0.10753 0.0
H1192 H 0.52463 0.12592 0.044 0.0
H1193 H 0.51254 0.07797 0.09411 0.0
H1194 H 0.53743 0.1768 0.08403 0.0
H1195 H 0.50723 0.171 0.07451 0.0
H1196 H 0.52582 0.16526 0.0534 0.0
H1197 H 0.52037 0.11605 0.14471 0.0
H1198 H 0.5016 0.08799 0.13127 0.0
H1199 H 0.49064 0.1132 0.13522 0.0
C1200 C 0.13964 0.32532 0.35636 0.0
C1201 C 0.12015 0.3251 0.34038 0.0
C1202 C 0.16021 0.32179 0.34857 0.0
C1203 C 0.16223 0.31834 0.32394 0.0
C1204 C 0.1427 0.31836 0.30769 0.0
C1205 C 0.12209 0.32145 0.31598 0.0
C1206 C 0.17985 0.32151 0.36692 0.0
C1207 C 0.1436 0.31527 0.28135 0.0
C1208 C 0.22422 0.32921 0.30594 0.0
C1209 C 0.22675 0.30654 0.30038 0.0
C1210 C 0.20351 0.33325 0.31302 0.0
C1211 C 0.18444 0.31432 0.31534 0.0
C1212 C 0.18699 0.29143 0.30989 0.0
C1213 C 0.20767 0.28787 0.30237 0.0
C1214 C 0.20205 0.358 0.318 0.0
C1215 C 0.16787 0.27047 0.31239 0.0
H1216 H 0.13874 0.32798 0.37523 0.0
H1217 H 0.10752 0.32128 0.30321 0.0
H1218 H 0.18422 0.30469 0.36363 0.0
H1219 H 0.19541 0.33554 0.36548 0.0
H1220 H 0.17571 0.32395 0.38531 0.0
H1221 H 0.1276 0.31656 0.27091 0.0
H1222 H 0.15845 0.32871 0.27728 0.0
H1223 H 0.14625 0.29801 0.27547 0.0
H1224 H 0.23847 0.34397 0.30459 0.0
H1225 H 0.209 0.27022 0.29844 0.0
H1226 H 0.19999 0.36222 0.33688 0.0
H1227 H 0.18667 0.35997 0.30702 0.0
H1228 H 0.21759 0.37082 0.31428 0.0
H1229 H 0.16402 0.27173 0.33093 0.0
H1230 H 0.1723 0.25382 0.30778 0.0
H1231 H 0.15192 0.27003 0.30074 0.0
C1232 C 0.97211 0.05687 0.20393 0.0
C1233 C 0.98158 0.04243 0.21715 0.0
C1234 C 0.97803 0.06064 0.18119 0.0
C1235 C 0.9936 0.04953 0.1712 0.0
C1236 C 1.00294 0.03475 0.18436 0.0
C1237 C 0.99695 0.03149 0.20702 0.0
C1238 C 0.96776 0.07666 0.1679 0.0
C1239 C 0.01934 0.02225 0.17447 0.0
C1240 C 0.99591 0.03896 0.10446 0.0
C1241 C 0.01659 0.05528 0.10223 0.0
C1242 C 0.98767 0.03763 0.1265 0.0
C1243 C 1.00025 0.05305 0.14703 0.0
C1244 C 0.02051 0.07033 0.14469 0.0
C1245 C 0.02845 0.07118 0.12243 0.0
C1246 C 0.96605 0.01888 0.12798 0.0
C1247 C 0.03437 0.08733 0.16594 0.0
H1248 H 0.9603 0.06549 0.21147 0.0
H1249 H 1.00433 0.02014 0.21679 0.0
H1250 H 0.98172 0.09123 0.16411 0.0
H1251 H 0.95805 0.06709 0.15056 0.0
H1252 H 0.95599 0.08403 0.17801 0.0
H1253 H 0.02488 0.01111 0.18675 0.0
H1254 H 1.01102 0.01112 0.15732 0.0
H1255 H 0.03487 0.03512 0.17089 0.0
H1256 H 0.98644 0.0266 0.08909 0.0
H1257 H 0.04436 0.08395 0.12105 0.0
H1258 H 0.95405 0.0264 0.13751 0.0
H1259 H 0.97055 1.00573 0.13825 0.0
H1260 H 0.95697 0.00987 0.11016 0.0
H1261 H 0.02299 0.09557 0.17573 0.0
H1262 H 0.04818 0.10125 0.16084 0.0
H1263 H 0.04244 0.07788 0.17833 0.0
C1264 C 0.29094 0.67973 0.46491 0.0
C1265 C 0.27942 0.66364 0.47827 0.0
C1266 C 0.27868 0.68815 0.44759 0.0
C1267 C 0.25428 0.68076 0.44419 0.0
C1268 C 0.24269 0.66261 0.45587 0.0
C1269 C 0.25552 0.65411 0.47286 0.0
C1270 C 0.29179 0.70676 0.43474 0.0
C1271 C 0.21676 0.65378 0.4522 0.0
C1272 C 0.23444 0.73323 0.433 0.0
C1273 C 0.2317 0.73053 0.40816 0.0
C1274 C 0.23934 0.71575 0.4451 0.0
C1275 C 0.24159 0.69513 0.43197 0.0
C1276 C 0.23614 0.69117 0.40695 0.0
C1277 C 0.23128 0.70899 0.3953 0.0
C1278 C 0.24445 0.72043 0.47189 0.0
C1279 C 0.23763 0.66923 0.3922 0.0
H1280 H 0.30946 0.68698 0.46923 0.0
H1281 H 0.24666 0.64175 0.48343 0.0
H1282 H 0.28532 0.70278 0.41544 0.0
H1283 H 0.28916 0.72383 0.44152 0.0
H1284 H 0.31058 0.70844 0.43724 0.0
H1285 H 0.21088 0.63622 0.45749 0.0
H1286 H 0.20967 0.66592 0.46328 0.0
H1287 H 0.20954 0.65296 0.43339 0.0
H1288 H 0.2341 0.7496 0.44302 0.0
H1289 H 0.22894 0.70664 0.37609 0.0
H1290 H 0.26327 0.72401 0.47746 0.0
H1291 H 0.23572 0.70495 0.47958 0.0
H1292 H 0.23891 0.73565 0.47947 0.0
H1293 H 0.25458 0.67258 0.38569 0.0
H1294 H 0.22405 0.66407 0.37645 0.0
H1295 H 0.23586 0.65446 0.40245 0.0
C1296 C 0.59672 0.02993 0.71925 0.0
C1297 C 0.61804 0.02504 0.72385 0.0
C1298 C 0.58612 0.02839 0.69599 0.0
C1299 C 0.59679 0.02122 0.6768 0.0
C1300 C 0.6171 0.01406 0.68126 0.0
C1301 C 0.62766 0.01628 0.70479 0.0
C1302 C 0.56459 0.03645 0.69203 0.0
C1303 C 0.6285 1.00554 0.66119 0.0
C1304 C 0.56053 0.01243 0.61651 0.0
C1305 C 0.56944 0.03391 0.60899 0.0
C1306 C 0.57013 1.00739 0.63799 0.0
C1307 C 0.58847 0.0246 0.65252 0.0
C1308 C 0.59765 0.04622 0.64477 0.0
C1309 C 0.58823 0.05045 0.62291 0.0
C1310 C 0.56045 0.98388 0.64531 0.0
C1311 C 0.61684 0.06526 0.65998 0.0
H1312 H 0.5889 0.03644 0.73377 0.0
H1313 H 0.64393 0.01211 0.70814 0.0
H1314 H 0.56869 0.053 0.68452 0.0
H1315 H 0.55119 0.02347 0.67906 0.0
H1316 H 0.55732 0.03945 0.70874 0.0
H1317 H 0.64126 0.99642 0.66743 0.0
H1318 H 0.61548 0.99353 0.64706 0.0
H1319 H 0.6376 0.0206 0.65313 0.0
H1320 H 0.54623 0.99948 0.60547 0.0
H1321 H 0.59511 0.06707 0.61706 0.0
H1322 H 0.55104 0.98588 0.66064 0.0
H1323 H 0.57459 0.9763 0.6511 0.0
H1324 H 0.54842 0.97144 0.63068 0.0
H1325 H 0.61114 0.0706 0.67703 0.0
H1326 H 0.62224 0.0809 0.65115 0.0
H1327 H 0.63206 0.05873 0.66428 0.0
C1328 C 0.30127 0.38205 0.96002 0.0
C1329 C 0.30158 0.36941 0.97912 0.0
C1330 C 0.3017 0.37185 0.93667 0.0
C1331 C 0.30248 0.34835 0.93212 0.0
C1332 C 0.30339 0.33569 0.95143 0.0
C1333 C 0.30292 0.34633 0.97463 0.0
C1334 C 0.30068 0.38606 0.91674 0.0
C1335 C 0.30428 0.31067 0.9475 0.0
C1336 C 0.27739 0.31566 0.86973 0.0
C1337 C 0.29712 0.31671 0.85861 0.0
C1338 C 0.27896 0.32547 0.89361 0.0
C1339 C 0.30084 0.3367 0.90703 0.0
C1340 C 0.3209 0.33738 0.89614 0.0
C1341 C 0.31882 0.32741 0.87211 0.0
C1342 C 0.25707 0.32422 0.90432 0.0
C1343 C 0.34457 0.34911 0.90974 0.0
H1344 H 0.30029 0.39988 0.96323 0.0
H1345 H 0.30322 0.3364 0.98922 0.0
H1346 H 0.31519 0.38599 0.90651 0.0
H1347 H 0.28449 0.37815 0.90427 0.0
H1348 H 0.3014 0.40443 0.9233 0.0
H1349 H 0.30642 0.30367 0.96445 0.0
H1350 H 0.28814 0.29964 0.93647 0.0
H1351 H 0.31872 0.30912 0.93766 0.0
H1352 H 0.2605 0.30742 0.85966 0.0
H1353 H 0.33419 0.32843 0.8638 0.0
H1354 H 0.25566 0.34209 0.90974 0.0
H1355 H 0.25748 0.3158 0.92052 0.0
H1356 H 0.24143 0.31432 0.89176 0.0
H1357 H 0.34642 0.36796 0.9149 0.0
H1358 H 0.35849 0.34718 0.89922 0.0
H1359 H 0.34689 0.34167 0.92637 0.0
C1360 C 0.99548 0.03806 0.34719 0.0
C1361 C 0.97308 0.04059 0.34329 0.0
C1362 C 1.00573 0.03656 0.37003 0.0
C1363 C 0.99338 0.03766 0.38961 0.0
C1364 C 0.97058 0.03972 0.38566 0.0
C1365 C 0.96073 0.04112 0.36263 0.0
C1366 C 0.03002 0.03433 0.3733 0.0
C1367 C 0.95674 0.04103 0.40592 0.0
C1368 C 0.01316 0.01817 0.44787 0.0
C1369 C 0.02499 0.03955 0.46199 0.0
C1370 C 1.00307 0.0172 0.42423 0.0
C1371 C 1.00474 0.03809 0.41438 0.0
C1372 C 0.01698 0.05966 0.42845 0.0
C1373 C 0.02692 0.06011 0.45189 0.0
C1374 C 0.99027 0.99383 0.40989 0.0
C1375 C 0.01927 0.08242 0.41888 0.0
H1376 H 1.00518 0.03755 0.33241 0.0
H1377 H 0.94341 0.04303 0.35986 0.0
H1378 H 0.04154 0.05004 0.38486 0.0
H1379 H 0.03069 0.01909 0.38229 0.0
H1380 H 0.03683 0.03231 0.35615 0.0
H1381 H 0.93889 0.04145 0.39981 0.0
H1382 H 0.95594 0.02583 0.41541 0.0
H1383 H 0.96531 0.05695 0.41892 0.0
H1384 H 1.01144 1.00218 0.4554 0.0
H1385 H 0.03597 0.07679 0.46246 0.0
H1386 H 0.99743 0.99138 0.39304 0.0
H1387 H 0.97189 0.99315 0.40513 0.0
H1388 H 0.99123 0.97913 0.41969 0.0
H1389 H 0.02754 0.08211 0.40253 0.0
H1390 H 0.0296 0.09769 0.43194 0.0
H1391 H 1.00195 0.08481 0.41398 0.0
C1392 C 0.32493 0.71106 0.61597 0.0
C1393 C 0.31846 0.72144 0.59662 0.0
C1394 C 0.327 0.72228 0.63938 0.0
C1395 C 0.32204 0.74408 0.6434 0.0
C1396 C 0.31747 0.75548 0.62397 0.0
C1397 C 0.31605 0.74416 0.60085 0.0
C1398 C 0.33275 0.70999 0.65974 0.0
C1399 C 0.31181 0.7786 0.62741 0.0
C1400 C 0.29108 0.75527 0.69559 0.0
C1401 C 0.30807 0.77284 0.71067 0.0
C1402 C 0.29558 0.74561 0.67377 0.0
C1403 C 0.31787 0.75322 0.66726 0.0
C1404 C 0.33534 0.77048 0.6828 0.0
C1405 C 0.3301 0.78043 0.70423 0.0
C1406 C 0.27627 0.72769 0.65744 0.0
C1407 C 0.35947 0.77841 0.67677 0.0
H1408 H 0.32721 0.6937 0.61294 0.0
H1409 H 0.31141 0.75259 0.58609 0.0
H1410 H 0.34471 0.72249 0.67435 0.0
H1411 H 0.31677 0.70211 0.66696 0.0
H1412 H 0.34067 0.69589 0.65404 0.0
H1413 H 0.31133 0.78638 0.61077 0.0
H1414 H 0.29467 0.77603 0.63346 0.0
H1415 H 0.32455 0.79121 0.6413 0.0
H1416 H 0.27404 0.74945 0.70064 0.0
H1417 H 0.34333 0.79376 0.71617 0.0
H1418 H 0.28112 0.7112 0.65355 0.0
H1419 H 0.27318 0.73402 0.64028 0.0
H1420 H 0.25991 0.72383 0.66516 0.0
H1421 H 0.36617 0.76312 0.67243 0.0
H1422 H 0.37148 0.79064 0.69157 0.0
H1423 H 0.35934 0.78722 0.66082 0.0
C1424 C 0.68872 0.08388 0.8503 0.0
C1425 C 0.67442 0.06121 0.84275 0.0
C1426 C 0.68349 0.0986 0.8686 0.0
C1427 C 0.66393 0.09 0.87976 0.0
C1428 C 0.6508 0.06636 0.87347 0.0
C1429 C 0.65605 0.05239 0.85479 0.0
C1430 C 0.69818 0.1235 0.87516 0.0
C1431 C 0.63006 0.05621 0.88519 0.0
C1432 C 0.64294 0.11154 0.93449 0.0
C1433 C 0.62257 0.11551 0.92401 0.0
C1434 C 0.65914 0.1065 0.92053 0.0
C1435 C 0.65486 0.10573 0.89569 0.0
C1436 C 0.63673 0.11413 0.88584 0.0
C1437 C 0.62058 0.11872 0.90012 0.0
C1438 C 0.67881 0.09866 0.93196 0.0
C1439 C 0.63232 0.11482 0.85953 0.0
H1440 H 0.70286 0.09065 0.84072 0.0
H1441 H 0.64507 0.03483 0.84879 0.0
H1442 H 0.68733 0.13577 0.87632 0.0
H1443 H 0.70842 0.12561 0.89289 0.0
H1444 H 0.71027 0.12849 0.8622 0.0
H1445 H 0.62304 0.03708 0.87963 0.0
H1446 H 0.63461 0.05966 0.90479 0.0
H1447 H 0.61623 0.06456 0.88046 0.0
H1448 H 0.64511 0.11 0.95318 0.0
H1449 H 0.60518 0.12225 0.89187 0.0
H1450 H 0.69396 0.1029 0.92242 0.0
H1451 H 0.67323 0.07947 0.93139 0.0
H1452 H 0.68401 0.10683 0.95087 0.0
H1453 H 0.64872 0.12117 0.8524 0.0
H1454 H 0.62105 0.12621 0.85555 0.0
H1455 H 0.62365 0.09693 0.85011 0.0
C1456 C 0.2836 0.3702 0.11821 0.0
C1457 C 0.29864 0.36131 0.10523 0.0
C1458 C 0.27938 0.36383 0.14071 0.0
C1459 C 0.29065 0.34843 0.15066 0.0
C1460 C 0.30607 0.33973 0.13775 0.0
C1461 C 0.30975 0.34613 0.11535 0.0
C1462 C 0.26271 0.37342 0.15374 0.0
C1463 C 0.3188 0.32359 0.14763 0.0
C1464 C 0.30024 0.34562 0.21714 0.0
C1465 C 0.28466 0.32421 0.21892 0.0
C1466 C 0.3015 0.35431 0.19538 0.0
C1467 C 0.28682 0.3414 0.17462 0.0
C1468 C 0.27023 0.32039 0.17651 0.0
C1469 C 0.26937 0.31204 0.19854 0.0
C1470 C 0.31948 0.37675 0.19441 0.0
C1471 C 0.25405 0.30613 0.15499 0.0
H1472 H 0.27483 0.38184 0.11066 0.0
H1473 H 0.32158 0.33923 0.10577 0.0
H1474 H 0.24842 0.35886 0.15697 0.0
H1475 H 0.27149 0.38321 0.17135 0.0
H1476 H 0.25532 0.38517 0.14372 0.0
H1477 H 0.33038 0.3185 0.13552 0.0
H1478 H 0.32929 0.33216 0.16497 0.0
H1479 H 0.30633 0.30753 0.15084 0.0
H1480 H 0.31205 0.35538 0.23269 0.0
H1481 H 0.25719 0.29557 0.19958 0.0
H1482 H 0.31174 0.38854 0.18488 0.0
H1483 H 0.33306 0.37287 0.18442 0.0
H1484 H 0.32772 0.38606 0.21241 0.0
H1485 H 0.2457 0.31738 0.14526 0.0
H1486 H 0.24045 0.29179 0.15977 0.0
H1487 H 0.26394 0.2984 0.14267 0.0
C1488 C 0.22581 0.95703 0.03443 0.0
C1489 C 0.2497 0.96456 0.03471 0.0
C1490 C 0.21368 0.97252 0.04287 0.0
C1491 C 0.2258 0.99598 0.05192 0.0
C1492 C 0.25001 1.00346 0.05298 0.0
C1493 C 0.26167 0.98766 0.04429 0.0
C1494 C 0.18781 0.96397 0.04139 0.0
C1495 C 0.26349 0.02832 0.06265 0.0
C1496 C 0.1917 0.04029 0.04804 0.0
C1497 C 0.18584 0.04298 0.07101 0.0
C1498 C 0.20511 0.02538 0.04175 0.0
C1499 C 0.21295 0.013 0.05891 0.0
C1500 C 0.20782 0.0163 0.08239 0.0
C1501 C 0.19418 0.03119 0.08814 0.0
C1502 C 0.21011 0.02218 0.01648 0.0
C1503 C 0.21617 1.00359 0.1012 0.0
H1504 H 0.2165 0.9392 0.02705 0.0
H1505 H 0.28018 0.99355 0.04468 0.0
H1506 H 0.18255 0.96773 0.05907 0.0
H1507 H 0.17952 0.97338 0.02912 0.0
H1508 H 0.18113 0.94495 0.03496 0.0
H1509 H 0.28239 0.03091 0.06379 0.0
H1510 H 0.25849 0.04025 0.05103 0.0
H1511 H 0.25941 0.03344 0.08058 0.0
H1512 H 0.18493 0.04907 0.03466 0.0
H1513 H 0.18971 0.03335 0.10593 0.0
H1514 H 0.20204 1.00384 0.00805 0.0
H1515 H 0.22893 0.02573 0.01623 0.0
H1516 H 0.2035 0.0338 0.00556 0.0
H1517 H 0.20814 0.98456 0.09625 0.0
H1518 H 0.21198 0.00927 0.11896 0.0
H1519 H 0.23509 1.00652 0.10245 0.0
C1520 C 0.6952 0.66491 0.99 0.0
C1521 C 0.71507 0.66807 0.00633 0.0
C1522 C 0.6748 0.64762 0.99117 0.0
C1523 C 0.67401 0.63374 0.00962 0.0
C1524 C 0.69417 0.63665 0.0259 0.0
C1525 C 0.71449 0.65348 0.02381 0.0
C1526 C 0.65391 0.64463 0.97303 0.0
C1527 C 0.69397 0.62287 0.04633 0.0
C1528 C 0.61584 0.61209 0.0303 0.0
C1529 C 0.60955 0.5882 0.02144 0.0
C1530 C 0.63682 0.62692 0.0268 0.0
C1531 C 0.65167 0.61785 0.01336 0.0
C1532 C 0.6453 0.59373 0.0041 0.0
C1533 C 0.62445 0.57906 0.00862 0.0
C1534 C 0.64316 0.6523 0.03771 0.0
C1535 C 0.66028 0.58354 0.98905 0.0
H1536 H 0.69558 0.67601 0.97635 0.0
H1537 H 0.72972 0.65596 0.03665 0.0
H1538 H 0.64629 0.62592 0.96569 0.0
H1539 H 0.64059 0.65078 0.98163 0.0
H1540 H 0.65811 0.65455 0.95815 0.0
H1541 H 0.71134 0.62634 0.05673 0.0
H1542 H 0.68214 0.62742 0.05841 0.0
H1543 H 0.68741 0.60391 0.03972 0.0
H1544 H 0.60438 0.61916 0.04035 0.0
H1545 H 0.61947 0.56064 1.00154 0.0
H1546 H 0.64489 0.6635 0.02357 0.0
H1547 H 0.66008 0.65703 0.04924 0.0
H1548 H 0.63014 0.65635 0.0485 0.0
H1549 H 0.663 0.59281 0.9735 0.0
H1550 H 0.6526 0.56463 0.98259 0.0
H1551 H 0.67747 0.58603 0.99939 0.0
C1552 C 0.69223 0.51322 0.28469 0.0
C1553 C 0.66827 0.50641 0.28449 0.0
C1554 C 0.70463 0.49672 0.28076 0.0
C1555 C 0.6928 0.47268 0.27603 0.0
C1556 C 0.66854 0.46563 0.27539 0.0
C1557 C 0.65656 0.48258 0.27986 0.0
C1558 C 0.73049 0.50508 0.28199 0.0
C1559 C 0.65526 0.4402 0.27001 0.0
C1560 C 0.72649 0.43507 0.24583 0.0
C1561 C 0.73607 0.42651 0.26507 0.0
C1562 C 0.71148 0.44917 0.24894 0.0
C1563 C 0.70613 0.45518 0.27192 0.0
C1564 C 0.71529 0.4461 0.29131 0.0
C1565 C 0.73002 0.43178 0.28763 0.0
C1566 C 0.70184 0.45816 0.22772 0.0
C1567 C 0.71033 0.45229 0.31615 0.0
H1568 H 0.7015 0.53157 0.28844 0.0
H1569 H 0.63806 0.47719 0.27965 0.0
H1570 H 0.73893 0.49727 0.29577 0.0
H1571 H 0.73566 0.49933 0.26478 0.0
H1572 H 0.73713 0.52436 0.28621 0.0
H1573 H 0.63641 0.43759 0.26946 0.0
H1574 H 0.65856 0.43235 0.25266 0.0
H1575 H 0.6612 0.43061 0.28369 0.0
H1576 H 0.73079 0.43075 0.22828 0.0
H1577 H 0.73745 0.42534 0.3026 0.0
H1578 H 0.70914 0.47734 0.22966 0.0
H1579 H 0.68288 0.45462 0.2267 0.0
H1580 H 0.70585 0.45015 0.21077 0.0
H1581 H 0.71803 0.47123 0.32229 0.0
H1582 H 0.71738 0.4425 0.32897 0.0
H1583 H 0.69149 0.44867 0.31634 0.0
C1584 C 0.86008 0.46507 0.50124 0.0
C1585 C 0.85313 0.44294 0.48721 0.0
C1586 C 0.88291 0.47881 0.50425 0.0
C1587 C 0.89927 0.47042 0.49274 0.0
C1588 C 0.89232 0.44851 0.47786 0.0
C1589 C 0.8693 0.43493 0.47536 0.0
C1590 C 0.88968 0.50196 0.52049 0.0
C1591 C 0.90932 0.43917 0.46511 0.0
C1592 C 0.95569 0.51537 0.49033 0.0
C1593 C 0.96998 0.51148 0.50941 0.0
C1594 C 0.93275 0.50168 0.48421 0.0
C1595 C 0.9239 0.48399 0.49774 0.0
C1596 C 0.93823 0.48012 0.5171 0.0
C1597 C 0.96112 0.49381 0.52259 0.0
C1598 C 0.91796 0.50617 0.46336 0.0
C1599 C 0.92932 0.46172 0.53225 0.0
H1600 H 0.84779 0.47152 0.51052 0.0
H1601 H 0.86407 0.41795 0.46437 0.0
H1602 H 0.90212 0.50142 0.53593 0.0
H1603 H 0.89837 0.51611 0.51105 0.0
H1604 H 0.87463 0.50646 0.52721 0.0
H1605 H 0.90082 0.4228 0.45267 0.0
H1606 H 0.91873 0.45233 0.45501 0.0
H1607 H 0.92229 0.43563 0.47827 0.0
H1608 H 0.96252 0.52885 0.47993 0.0
H1609 H 0.97204 0.49074 0.53742 0.0
H1610 H 0.90328 0.51182 0.46953 0.0
H1611 H 0.91064 0.48986 0.45056 0.0
H1612 H 0.92776 0.51979 0.45395 0.0
H1613 H 0.91486 0.46561 0.54072 0.0
H1614 H 0.94284 0.46067 0.54642 0.0
H1615 H 0.92253 0.44439 0.52103 0.0
C1616 C 0.3863 0.11618 0.28822 0.0
C1617 C 0.3785 0.09195 0.28707 0.0
C1618 C 0.37198 0.12866 0.27836 0.0
C1619 C 0.3495 0.1165 0.26694 0.0
C1620 C 0.34199 0.09192 0.26472 0.0
C1621 C 0.35655 0.07994 0.27493 0.0
C1622 C 0.38051 0.15491 0.28116 0.0
C1623 C 0.31823 0.07835 0.25241 0.0
C1624 C 0.30414 0.14931 0.26852 0.0
C1625 C 0.30314 0.15611 0.24595 0.0
C1626 C 0.31902 0.13622 0.27544 0.0
C1627 C 0.33311 0.12961 0.25929 0.0
C1628 C 0.33173 0.13585 0.23622 0.0
C1629 C 0.31682 0.14919 0.22985 0.0
C1630 C 0.32015 0.13006 0.30028 0.0
C1631 C 0.3463 0.1288 0.21847 0.0
H1632 H 0.40328 0.12551 0.29754 0.0
H1633 H 0.35054 0.06115 0.27376 0.0
H1634 H 0.3781 0.16095 0.26374 0.0
H1635 H 0.37029 0.16277 0.29297 0.0
H1636 H 0.39899 0.16155 0.28884 0.0
H1637 H 0.31592 0.05922 0.25008 0.0
H1638 H 0.30508 0.08235 0.263 0.0
H1639 H 0.31489 0.08356 0.23472 0.0
H1640 H 0.29392 0.15504 0.28117 0.0
H1641 H 0.31602 0.15443 0.21238 0.0
H1642 H 0.33779 0.1379 0.31004 0.0
H1643 H 0.31639 0.11089 0.29955 0.0
H1644 H 0.30778 0.13627 0.31052 0.0
H1645 H 0.3648 0.13703 0.22521 0.0
H1646 H 0.34229 0.134 0.20087 0.0
H1647 H 0.34362 0.10964 0.21612 0.0
C1648 C 0.33296 0.15219 0.54389 0.0
C1649 C 0.33838 0.17514 0.53881 0.0
C1650 C 0.35003 0.14058 0.54779 0.0
C1651 C 0.37332 0.15216 0.5468 0.0
C1652 C 0.37908 0.17559 0.54239 0.0
C1653 C 0.36154 0.18679 0.53835 0.0
C1654 C 0.34299 0.11561 0.55233 0.0
C1655 C 0.40372 0.18865 0.54141 0.0
C1656 C 0.41716 0.12405 0.57487 0.0
C1657 C 0.42154 0.11059 0.55504 0.0
C1658 C 0.40229 0.13841 0.57239 0.0
C1659 C 0.39128 0.13924 0.54954 0.0
C1660 C 0.39605 0.12611 0.52941 0.0
C1661 C 0.41112 0.11205 0.53239 0.0
C1662 C 0.39792 0.15227 0.5943 0.0
C1663 C 0.38456 0.12624 0.50474 0.0
H1664 H 0.31516 0.14296 0.54432 0.0
H1665 H 0.36592 0.20449 0.53442 0.0
H1666 H 0.34739 0.10411 0.538 0.0
H1667 H 0.35259 0.11389 0.5693 0.0
H1668 H 0.32424 0.10927 0.55316 0.0
H1669 H 0.4056 0.20718 0.53935 0.0
H1670 H 0.41489 0.18801 0.55782 0.0
H1671 H 0.41008 0.18018 0.52626 0.0
H1672 H 0.42538 0.12333 0.59241 0.0
H1673 H 0.41418 0.10158 0.51697 0.0
H1674 H 0.3797 0.14559 0.59704 0.0
H1675 H 0.40075 0.17084 0.59202 0.0
H1676 H 0.4092 0.15127 0.61052 0.0
H1677 H 0.36571 0.1184 0.50343 0.0
H1678 H 0.39119 0.11632 0.49081 0.0
H1679 H 0.38723 0.1444 0.50106 0.0
C1680 C 0.69008 0.62843 0.30709 0.0
C1681 C 0.66954 0.62983 0.31566 0.0
C1682 C 0.70745 0.64854 0.3054 0.0
C1683 C 0.7045 0.67078 0.31273 0.0
C1684 C 0.68437 0.6724 0.32253 0.0
C1685 C 0.66706 0.65193 0.32373 0.0
C1686 C 0.72843 0.64594 0.29455 0.0
C1687 C 0.68071 0.69579 0.33088 0.0
C1688 C 0.75659 0.72412 0.31892 0.0
C1689 C 0.75239 0.73268 0.29764 0.0
C1690 C 0.7411 0.70407 0.32427 0.0
C1691 C 0.72124 0.69214 0.30773 0.0
C1692 C 0.71739 0.7004 0.28594 0.0
C1693 C 0.73285 0.72062 0.28129 0.0
C1694 C 0.74564 0.69599 0.34782 0.0
C1695 C 0.6968 0.68799 0.26752 0.0
H1696 H 0.69234 0.61153 0.30083 0.0
H1697 H 0.6514 0.65327 0.33053 0.0
H1698 H 0.72829 0.65248 0.27722 0.0
H1699 H 0.74441 0.65655 0.30612 0.0
H1700 H 0.72908 0.62752 0.29159 0.0
H1701 H 0.66556 0.69414 0.34051 0.0
H1702 H 0.69621 0.70707 0.34273 0.0
H1703 H 0.67799 0.70472 0.31538 0.0
H1704 H 0.7715 0.73356 0.33174 0.0
H1705 H 0.72956 0.7271 0.26475 0.0
H1706 H 0.74642 0.67764 0.34497 0.0
H1707 H 0.73125 0.69652 0.35811 0.0
H1708 H 0.76199 0.70693 0.35858 0.0
H1709 H 0.69671 0.66955 0.26251 0.0
H1710 H 0.69665 0.6963 0.2512 0.0
H1711 H 0.68066 0.68791 0.275 0.0
C1712 C 0.87307 0.48536 0.83376 0.0
C1713 C 0.8969 0.48803 0.83725 0.0
C1714 C 0.85731 0.46336 0.83173 0.0
C1715 C 0.8656 0.44357 0.83318 0.0
C1716 C 0.88957 0.44632 0.83836 0.0
C1717 C 0.90498 0.46858 0.84042 0.0
C1718 C 0.83186 0.46115 0.8265 0.0
C1719 C 0.89901 0.42557 0.84017 0.0
C1720 C 0.82432 0.38573 0.83888 0.0
C1721 C 0.81973 0.37431 0.81533 0.0
C1722 C 0.83904 0.40841 0.84498 0.0
C1723 C 0.84937 0.41988 0.82709 0.0
C1724 C 0.84438 0.40869 0.80321 0.0
C1725 C 0.8296 0.38603 0.79761 0.0
C1726 C 0.84391 0.41988 0.8706 0.0
C1727 C 0.85501 0.42046 0.7836 0.0
H1728 H 0.86667 0.50036 0.83159 0.0
H1729 H 0.92335 0.47049 0.84313 0.0
H1730 H 0.82528 0.45242 0.80797 0.0
H1731 H 0.82219 0.4502 0.83837 0.0
H1732 H 0.82814 0.47838 0.82864 0.0
H1733 H 0.91777 0.43087 0.84677 0.0
H1734 H 0.88991 0.41439 0.85221 0.0
H1735 H 0.89607 0.41482 0.8224 0.0
H1736 H 0.8168 0.3768 0.85271 0.0
H1737 H 0.82618 0.37735 0.77938 0.0
H1738 H 0.83988 0.43694 0.87211 0.0
H1739 H 0.8625 0.42336 0.87728 0.0
H1740 H 0.83379 0.40894 0.88222 0.0
H1741 H 0.85068 0.43723 0.78292 0.0
H1742 H 0.84906 0.40948 0.7659 0.0
H1743 H 0.87406 0.4245 0.78727 0.0
C1744 C 0.06978 0.89488 0.11553 0.0
C1745 C 0.07793 0.87802 0.10234 0.0
C1746 C 0.06648 0.91517 0.10657 0.0
C1747 C 0.07183 0.91977 0.08368 0.0
C1748 C 0.08041 0.90301 0.07035 0.0
C1749 C 0.08306 0.8825 0.07957 0.0
C1750 C 0.05688 0.93167 0.12168 0.0
C1751 C 0.08699 0.90682 0.0462 0.0
C1752 C 0.04404 0.96237 0.05178 0.0
C1753 C 0.06088 0.98413 0.05753 0.0
C1754 C 0.04735 0.94166 0.05992 0.0
C1755 C 0.06834 0.9419 0.07393 0.0
C1756 C 0.08561 0.96372 0.07927 0.0
C1757 C 0.08162 0.98428 0.07142 0.0
C1758 C 0.02798 0.91947 0.05391 0.0
C1759 C 0.10853 0.96546 0.09347 0.0
H1760 H 0.06549 0.89204 0.13303 0.0
H1761 H 0.08937 0.87001 0.06891 0.0
H1762 H 0.0694 0.94919 0.12564 0.0
H1763 H 0.0409 0.93361 0.11183 0.0
H1764 H 0.05289 0.92559 0.13872 0.0
H1765 H 0.09422 0.89297 0.03827 0.0
H1766 H 0.07168 0.90724 0.03402 0.0
H1767 H 0.09993 0.92395 0.04754 0.0
H1768 H 0.02783 0.96158 0.04132 0.0
H1769 H 0.09501 1.00061 0.07614 0.0
H1770 H 0.0226 0.91335 0.0705 0.0
H1771 H 0.03393 0.90557 0.04415 0.0
H1772 H 0.01275 0.92179 0.04292 0.0
H1773 H 0.10604 0.9618 0.11168 0.0
H1774 H 0.12086 0.98297 0.09477 0.0
H1775 H 0.11626 0.95218 0.08524 0.0
C1776 C 0.93298 0.26992 0.90715 0.0
C1777 C 0.93868 0.28336 0.9299 0.0
C1778 C 0.91357 0.27045 0.89124 0.0
C1779 C 0.89966 0.2853 0.89772 0.0
C1780 C 0.90546 0.29898 0.9206 0.0
C1781 C 0.92452 0.29763 0.93635 0.0
C1782 C 0.90796 0.2551 0.86739 0.0
C1783 C 0.89183 0.3156 0.92832 0.0
C1784 C 0.8649 0.30558 0.84814 0.0
C1785 C 0.84206 0.29255 0.84845 0.0
C1786 C 0.88354 0.30342 0.86394 0.0
C1787 C 0.8797 0.28734 0.88037 0.0
C1788 C 0.8567 0.27385 0.88055 0.0
C1789 C 0.83824 0.27682 0.86492 0.0
C1790 C 0.90742 0.31874 0.86329 0.0
C1791 C 0.85158 0.25611 0.89722 0.0
H1792 H 0.94359 0.25877 0.90183 0.0
H1793 H 0.9287 0.30834 0.95368 0.0
H1794 H 0.88978 0.24432 0.86475 0.0
H1795 H 0.90983 0.26604 0.85303 0.0
H1796 H 0.91932 0.24336 0.86553 0.0
H1797 H 0.89844 0.32509 0.9466 0.0
H1798 H 0.89247 0.32856 0.91592 0.0
H1799 H 0.87348 0.30597 0.92764 0.0
H1800 H 0.86823 0.31792 0.83572 0.0
H1801 H 0.8208 0.26649 0.86534 0.0
H1802 H 0.91912 0.30782 0.85922 0.0
H1803 H 0.91448 0.32938 0.88097 0.0
H1804 H 0.90761 0.33065 0.84983 0.0
H1805 H 0.86211 0.24366 0.89464 0.0
H1806 H 0.83309 0.24615 0.89449 0.0
H1807 H 0.85636 0.26493 0.91589 0.0
C1808 C 0.59487 0.24013 0.59578 0.0
C1809 C 0.57644 0.25036 0.5957 0.0
C1810 C 0.59133 0.21561 0.59053 0.0
C1811 C 0.56872 0.20037 0.58381 0.0
C1812 C 0.54999 0.21064 0.58342 0.0
C1813 C 0.55401 0.23522 0.5898 0.0
C1814 C 0.61197 0.20601 0.59233 0.0
C1815 C 0.52561 0.1957 0.57561 0.0
C1816 C 0.56369 0.1395 0.54804 0.0
C1817 C 0.55862 0.12418 0.56479 0.0
C1818 C 0.56636 0.16389 0.55374 0.0
C1819 C 0.56484 0.17392 0.57713 0.0
C1820 C 0.56012 0.15853 0.5942 0.0
C1821 C 0.55664 0.13409 0.58777 0.0
C1822 C 0.5705 0.17893 0.53447 0.0
C1823 C 0.55909 0.16794 0.61954 0.0
H1824 H 0.6123 0.25141 0.60035 0.0
H1825 H 0.53955 0.24269 0.58932 0.0
H1826 H 0.60955 0.1923 0.60398 0.0
H1827 H 0.6138 0.19775 0.57455 0.0
H1828 H 0.62822 0.21973 0.59953 0.0
H1829 H 0.51297 0.20616 0.5753 0.0
H1830 H 0.52419 0.18591 0.55757 0.0
H1831 H 0.52095 0.18266 0.58771 0.0
H1832 H 0.56496 0.1323 0.53014 0.0
H1833 H 0.55278 0.12272 0.60101 0.0
H1834 H 0.58769 0.19176 0.53896 0.0
H1835 H 0.55751 0.18894 0.53314 0.0
H1836 H 0.56964 0.16852 0.51687 0.0
H1837 H 0.57535 0.18149 0.62699 0.0
H1838 H 0.55634 0.15409 0.63104 0.0
H1839 H 0.54489 0.17637 0.62018 0.0
C1840 C 0.58714 0.79822 0.43051 0.0
C1841 C 0.56436 0.78784 0.41952 0.0
C1842 C 0.60583 0.80075 0.41734 0.0
C1843 C 0.60175 0.79284 0.39251 0.0
C1844 C 0.57883 0.78193 0.38146 0.0
C1845 C 0.56053 0.77953 0.39503 0.0
C1846 C 0.62993 0.81234 0.42995 0.0
C1847 C 0.57352 0.77324 0.3551 0.0
C1848 C 0.64485 0.82028 0.35272 0.0
C1849 C 0.65651 0.80319 0.34801 0.0
C1850 C 0.62737 0.81728 0.36737 0.0
C1851 C 0.62122 0.7967 0.37784 0.0
C1852 C 0.63314 0.77953 0.37351 0.0
C1853 C 0.65053 0.78294 0.35871 0.0
C1854 C 0.61526 0.83611 0.37142 0.0
C1855 C 0.62724 0.75731 0.38422 0.0
H1856 H 0.59037 0.80473 0.44937 0.0
H1857 H 0.54306 0.77151 0.38626 0.0
H1858 H 0.64128 0.80089 0.42647 0.0
H1859 H 0.63716 0.82876 0.42298 0.0
H1860 H 0.63043 0.81647 0.44946 0.0
H1861 H 0.55494 0.76441 0.34929 0.0
H1862 H 0.5787 0.78808 0.34515 0.0
H1863 H 0.58359 0.76085 0.35018 0.0
H1864 H 0.6495 0.8362 0.34504 0.0
H1865 H 0.65911 0.76944 0.35511 0.0
H1866 H 0.61681 0.84224 0.39072 0.0
H1867 H 0.59662 0.82896 0.36465 0.0
H1868 H 0.62234 0.85131 0.36249 0.0
H1869 H 0.62847 0.76145 0.40379 0.0
H1870 H 0.63876 0.74616 0.38012 0.0
H1871 H 0.6092 0.7472 0.37737 0.0
C1872 C 0.02882 0.25453 0.40207 0.0
C1873 C 0.04941 0.26898 0.39711 0.0
C1874 C 0.02861 0.23516 0.41372 0.0
C1875 C 0.0496 0.23009 0.42097 0.0
C1876 C 0.07029 0.24361 0.41444 0.0
C1877 C 0.06996 0.26293 0.40258 0.0
C1878 C 1.00607 0.22128 0.41998 0.0
C1879 C 0.09305 0.23883 0.42159 0.0
C1880 C 0.05015 0.20324 0.47818 0.0
C1881 C 0.0457 0.17933 0.46978 0.0
C1882 C 0.05227 0.21987 0.46256 0.0
C1883 C 0.04999 0.21264 0.43773 0.0
C1884 C 0.04628 0.18864 0.42914 0.0
C1885 C 0.04417 0.17232 0.4452 0.0
C1886 C 0.05631 0.24521 0.47267 0.0
C1887 C 0.04378 0.18009 0.4029 0.0
H1888 H 0.01293 0.25932 0.39816 0.0
H1889 H 0.086 0.2743 0.39928 0.0
H1890 H 1.00394 0.20231 0.41536 0.0
H1891 H 1.00604 0.22499 0.43942 0.0
H1892 H 0.99104 0.22561 0.41073 0.0
H1893 H 0.10677 0.24818 0.41205 0.0
H1894 H 0.09848 0.2446 0.44095 0.0
H1895 H 0.09143 0.21987 0.41807 0.0
H1896 H 0.05188 0.20902 0.4971 0.0
H1897 H 0.04059 0.15395 0.43838 0.0
H1898 H 0.04131 0.2513 0.46628 0.0
H1899 H 0.07164 0.25607 0.46643 0.0
H1900 H 0.05894 0.2482 0.4924 0.0
H1901 H 0.02762 0.1824 0.39384 0.0
H1902 H 0.04331 0.16138 0.3992 0.0
H1903 H 0.05823 0.1905 0.39502 0.0
C1904 C 0.60751 0.28702 0.23499 0.0
C1905 C 0.59782 0.27291 0.21299 0.0
C1906 C 0.63094 0.28998 0.24491 0.0
C1907 C 0.64538 0.27869 0.2327 0.0
C1908 C 0.63525 0.26374 0.21103 0.0
C1909 C 0.61202 0.26113 0.20163 0.0
C1910 C 0.64054 0.30599 0.26807 0.0
C1911 C 0.64929 0.25114 0.19703 0.0
C1912 C 0.71188 0.30408 0.24025 0.0
C1913 C 0.72031 0.2893 0.25409 0.0
C1914 C 0.68791 0.30126 0.23389 0.0
C1915 C 0.67123 0.28323 0.24148 0.0
C1916 C 0.67957 0.26852 0.25585 0.0
C1917 C 0.70371 0.27164 0.26186 0.0
C1918 C 0.68043 0.31746 0.2185 0.0
C1919 C 0.66291 0.24914 0.26469 0.0
H1920 H 0.59719 0.29666 0.2439 0.0
H1921 H 0.60506 0.25026 0.1846 0.0
H1922 H 0.64958 0.29728 0.28045 0.0
H1923 H 0.65339 0.32177 0.26484 0.0
H1924 H 0.6269 0.31152 0.27674 0.0
H1925 H 0.63874 0.23913 0.18122 0.0
H1926 H 0.66334 0.26403 0.19098 0.0
H1927 H 0.65746 0.24094 0.20842 0.0
H1928 H 0.72409 0.31793 0.23406 0.0
H1929 H 0.70954 0.26008 0.27268 0.0
H1930 H 0.66844 0.32578 0.22712 0.0
H1931 H 0.67098 0.30736 0.20125 0.0
H1932 H 0.69523 0.33136 0.21499 0.0
H1933 H 0.65042 0.25613 0.27395 0.0
H1934 H 0.67178 0.24021 0.27702 0.0
H1935 H 0.65289 0.23605 0.24941 0.0
C1936 C 0.57289 0.9021 0.91964 0.0
C1937 C 0.56468 0.89577 0.89524 0.0
C1938 C 0.57013 0.92233 0.93285 0.0
C1939 C 0.55802 0.93646 0.92179 0.0
C1940 C 0.5498 0.93026 0.89704 0.0
C1941 C 0.55354 0.91026 0.88401 0.0
C1942 C 0.57988 0.92833 0.95889 0.0
C1943 C 0.53619 0.9442 0.88451 0.0
C1944 C 0.53007 0.97115 0.96468 0.0
C1945 C 0.54491 0.99388 0.96786 0.0
C1946 C 0.53358 0.95276 0.94906 0.0
C1947 C 0.55288 0.95671 0.93658 0.0
C1948 C 0.56787 0.97969 0.93956 0.0
C1949 C 0.56354 0.99799 0.95482 0.0
C1950 C 0.51669 0.9289 0.94618 0.0
C1951 C 0.589 0.98482 0.92726 0.0
H1952 H 0.58158 0.89111 0.92851 0.0
H1953 H 0.54686 0.9054 0.86527 0.0
H1954 H 0.5904 0.94678 0.963 0.0
H1955 H 0.56563 0.92637 0.96977 0.0
H1956 H 0.59074 0.91701 0.96433 0.0
H1957 H 0.53182 0.93787 0.86512 0.0
H1958 H 0.51996 0.94309 0.89215 0.0
H1959 H 0.54602 0.96286 0.8873 0.0
H1960 H 0.51547 0.96771 0.9744 0.0
H1961 H 0.57521 0.01538 0.95714 0.0
H1962 H 0.52527 0.91658 0.95364 0.0
H1963 H 0.5107 0.92209 0.92706 0.0
H1964 H 0.50144 0.92909 0.95525 0.0
H1965 H 0.60085 0.97486 0.93374 0.0
H1966 H 0.59839 1.00366 0.93045 0.0
H1967 H 0.58417 0.97906 0.90785 0.0
C1968 C 0.95796 0.75783 0.74452 0.0
C1969 C 0.96218 0.76178 0.72137 0.0
C1970 C 0.9374 0.76032 0.75348 0.0
C1971 C 0.92028 0.76739 0.73939 0.0
C1972 C 0.92454 0.77137 0.71606 0.0
C1973 C 0.94496 0.76841 0.70746 0.0
C1974 C 0.93401 0.75537 0.77823 0.0
C1975 C 0.90754 0.7792 0.70009 0.0
C1976 C 0.85657 0.75704 0.75234 0.0
C1977 C 0.85612 0.77877 0.76452 0.0
C1978 C 0.87711 0.75293 0.74484 0.0
C1979 C 0.89826 0.77101 0.7489 0.0
C1980 C 0.8979 0.79294 0.76124 0.0
C1981 C 0.87724 0.79643 0.76896 0.0
C1982 C 0.87605 0.72907 0.73231 0.0
C1983 C 0.9194 0.81311 0.7659 0.0
H1984 H 0.97077 0.75278 0.75575 0.0
H1985 H 0.94761 0.77177 0.68965 0.0
H1986 H 0.93315 0.7714 0.78945 0.0
H1987 H 0.91739 0.74201 0.77772 0.0
H1988 H 0.94812 0.74911 0.78674 0.0
H1989 H 0.91314 0.78179 0.68253 0.0
H1990 H 0.89048 0.76611 0.69721 0.0
H1991 H 0.90524 0.79583 0.70871 0.0
H1992 H 0.84074 0.74301 0.74864 0.0
H1993 H 0.87758 0.81339 0.77811 0.0
H1994 H 0.88982 0.72251 0.74101 0.0
H1995 H 0.87909 0.73015 0.71367 0.0
H1996 H 0.85915 0.71626 0.73221 0.0
H1997 H 0.93356 0.80824 0.77609 0.0
H1998 H 0.91673 0.82896 0.77593 0.0
H1999 H 0.92509 0.81739 0.74879 0.0
C2000 C 0.0971 0.03871 0.86419 0.0
C2001 C 0.1199 0.05059 0.8625 0.0
C2002 C 0.08923 0.03715 0.88642 0.0
C2003 C 0.10421 0.04857 0.9076 0.0
C2004 C 0.12716 0.06102 0.90591 0.0
C2005 C 0.13484 0.06145 0.88348 0.0
C2006 C 0.06492 0.02301 0.88724 0.0
C2007 C 0.1435 0.07428 0.92776 0.0
C2008 C 0.07435 0.06261 0.96085 0.0
C2009 C 0.07746 0.04595 0.97515 0.0
C2010 C 0.08365 0.06418 0.93939 0.0
C2011 C 0.09561 0.04802 0.93135 0.0
C2012 C 0.09871 0.03103 0.94575 0.0
C2013 C 0.09 0.0305 0.96769 0.0
C2014 C 0.08061 0.08315 0.92529 0.0
C2015 C 0.1106 0.01295 0.93764 0.0
H2016 H 0.08552 0.03003 0.84809 0.0
H2017 H 0.15246 0.07074 0.88231 0.0
H2018 H 0.06507 0.00987 0.89931 0.0
H2019 H 0.05484 0.03452 0.89445 0.0
H2020 H 0.05595 0.01385 0.86943 0.0
H2021 H 0.16053 0.08369 0.92344 0.0
H2022 H 0.13594 0.08712 0.93713 0.0
H2023 H 0.14618 0.06216 0.94026 0.0
H2024 H 0.06476 0.07467 0.96664 0.0
H2025 H 0.09227 0.01747 0.9786 0.0
H2026 H 0.06951 0.07531 0.90812 0.0
H2027 H 0.09753 0.09307 0.92121 0.0
H2028 H 0.07267 0.09552 0.93491 0.0
H2029 H 0.10125 1.00266 0.92042 0.0
H2030 H 0.11148 1.00081 0.95069 0.0
H2031 H 0.12835 0.02153 0.93467 0.0
C2032 C 0.79686 0.40701 0.57599 0.0
C2033 C 0.78821 0.38997 0.55587 0.0
C2034 C 0.80093 0.40063 0.59848 0.0
C2035 C 0.79598 0.3767 0.60078 0.0
C2036 C 0.78597 0.35949 0.58077 0.0
C2037 C 0.78229 0.36634 0.55853 0.0
C2038 C 0.81149 0.4194 0.61955 0.0
C2039 C 0.7801 0.3338 0.58265 0.0
C2040 C 0.83008 0.3559 0.64856 0.0
C2041 C 0.81424 0.35087 0.66457 0.0
C2042 C 0.82463 0.36519 0.62812 0.0
C2043 C 0.80281 0.36944 0.62363 0.0
C2044 C 0.78701 0.36506 0.64009 0.0
C2045 C 0.79291 0.35574 0.66037 0.0
C2046 C 0.84194 0.36978 0.61095 0.0
C2047 C 0.76353 0.36924 0.63584 0.0
H2048 H 0.80143 0.42531 0.57402 0.0
H2049 H 0.77525 0.3531 0.54308 0.0
H2050 H 0.80144 0.41645 0.63453 0.0
H2051 H 0.82921 0.4187 0.62574 0.0
H2052 H 0.81235 0.43712 0.61521 0.0
H2053 H 0.77078 0.32274 0.56576 0.0
H2054 H 0.79615 0.32877 0.58746 0.0
H2055 H 0.76929 0.32998 0.59691 0.0
H2056 H 0.84668 0.3524 0.65196 0.0
H2057 H 0.7805 0.35157 0.67258 0.0
H2058 H 0.84511 0.38797 0.60725 0.0
H2059 H 0.83498 0.35807 0.59382 0.0
H2060 H 0.85865 0.36692 0.61781 0.0
H2061 H 0.76483 0.38644 0.63 0.0
H2062 H 0.7549 0.36851 0.65198 0.0
H2063 H 0.75248 0.35571 0.62146 0.0
C2064 C 0.468 0.09047 0.38352 0.0
C2065 C 0.44468 0.07804 0.37957 0.0
C2066 C 0.48207 0.09029 0.40443 0.0
C2067 C 0.4726 0.07681 0.42143 0.0
C2068 C 0.44873 0.06515 0.41805 0.0
C2069 C 0.43492 0.0661 0.39712 0.0
C2070 C 0.50728 0.10347 0.40772 0.0
C2071 C 0.43813 0.05046 0.43576 0.0
C2072 C 0.51278 0.05233 0.45969 0.0
C2073 C 0.51542 0.06655 0.48151 0.0
C2074 C 0.49893 0.05559 0.43985 0.0
C2075 C 0.48797 0.07376 0.44197 0.0
C2076 C 0.49153 0.08884 0.46373 0.0
C2077 C 0.5051 0.08494 0.48329 0.0
C2078 C 0.49534 0.03908 0.41689 0.0
C2079 C 0.48056 0.10871 0.46652 0.0
H2080 H 0.47545 0.09964 0.36977 0.0
H2081 H 0.41694 0.05617 0.39375 0.0
H2082 H 0.51254 0.11409 0.42562 0.0
H2083 H 0.51784 0.09094 0.40639 0.0
H2084 H 0.51128 0.11516 0.39417 0.0
H2085 H 0.41909 0.04385 0.43131 0.0
H2086 H 0.44538 0.03532 0.43618 0.0
H2087 H 0.4424 0.06066 0.45387 0.0
H2088 H 0.52058 0.03799 0.45842 0.0
H2089 H 0.5073 0.09608 0.5002 0.0
H2090 H 0.50066 0.04898 0.40231 0.0
H2091 H 0.47678 0.02978 0.41195 0.0
H2092 H 0.50521 0.02596 0.41814 0.0
H2093 H 0.48478 0.11988 0.45261 0.0
H2094 H 0.4863 0.11972 0.48422 0.0
H2095 H 0.46155 0.1017 0.46418 0.0
C2096 C 0.7594 0.74282 0.09482 0.0
C2097 C 0.77922 0.73901 0.0864 0.0
C2098 C 0.75924 0.75012 0.11906 0.0
C2099 C 0.77967 0.75463 0.13543 0.0
C2100 C 0.79984 0.751 0.127 0.0
C2101 C 0.79926 0.74282 0.10269 0.0
C2102 C 0.73709 0.75279 0.1272 0.0
C2103 C 0.82217 0.75615 0.1436 0.0
C2104 C 0.78311 0.7938 0.19453 0.0
C2105 C 0.77963 0.77757 0.21041 0.0
C2106 C 0.78355 0.78667 0.1702 0.0
C2107 C 0.77968 0.76265 0.16135 0.0
C2108 C 0.77542 0.74619 0.1773 0.0
C2109 C 0.77589 0.75388 0.20159 0.0
C2110 C 0.7888 0.80492 0.15408 0.0
C2111 C 0.77037 0.72039 0.16871 0.0
H2112 H 0.74378 0.73972 0.08237 0.0
H2113 H 0.81468 0.74011 0.09629 0.0
H2114 H 0.73256 0.74183 0.14122 0.0
H2115 H 0.73931 0.77113 0.1351 0.0
H2116 H 0.72248 0.74773 0.11244 0.0
H2117 H 0.83655 0.75341 0.13419 0.0
H2118 H 0.82692 0.77447 0.15264 0.0
H2119 H 0.82006 0.74481 0.15761 0.0
H2120 H 0.78644 0.81216 0.2013 0.0
H2121 H 0.77323 0.74125 0.2138 0.0
H2122 H 0.77422 0.80179 0.13958 0.0
H2123 H 0.80417 0.8037 0.14566 0.0
H2124 H 0.79207 0.82288 0.16374 0.0
H2125 H 0.75565 0.71482 0.1541 0.0
H2126 H 0.7662 0.70976 0.18309 0.0
H2127 H 0.78545 0.71659 0.16148 0.0
C2128 C 0.11549 0.05758 0.71883 0.0
C2129 C 0.09943 0.05484 0.73493 0.0
C2130 C 0.10864 0.05778 0.6945 0.0
C2131 C 0.08505 0.05454 0.6858 0.0
C2132 C 0.06873 0.0511 0.7019 0.0
C2133 C 0.07612 0.05161 0.72618 0.0
C2134 C 0.12673 0.06193 0.67817 0.0
C2135 C 0.04336 0.04683 0.69347 0.0
C2136 C 0.06756 0.07405 0.62668 0.0
C2137 C 0.06308 0.05335 0.61063 0.0
C2138 C 0.07499 0.07479 0.6511 0.0
C2139 C 0.07735 0.05422 0.65984 0.0
C2140 C 0.07213 0.03316 0.64373 0.0
C2141 C 0.06541 0.03307 0.61942 0.0
C2142 C 0.08078 0.09773 0.66748 0.0
C2143 C 0.07362 0.01062 0.65213 0.0
H2144 H 0.13356 0.06038 0.7254 0.0
H2145 H 0.06353 0.04939 0.7384 0.0
H2146 H 0.12316 0.04678 0.66387 0.0
H2147 H 0.12616 0.07739 0.66951 0.0
H2148 H 0.14438 0.06479 0.68771 0.0
H2149 H 0.03276 0.0437 0.70803 0.0
H2150 H 0.04033 0.06204 0.68574 0.0
H2151 H 0.03735 0.03149 0.67924 0.0
H2152 H 0.06601 0.08981 0.62002 0.0
H2153 H 0.06179 0.01692 0.60719 0.0
H2154 H 0.0989 0.10214 0.67621 0.0
H2155 H 0.06969 0.0963 0.68173 0.0
H2156 H 0.0785 0.11223 0.65795 0.0
H2157 H 0.09159 0.01218 0.65988 0.0
H2158 H 0.06805 0.99555 0.63754 0.0
H2159 H 0.06269 1.00692 0.66632 0.0
C2160 C 0.75101 0.38531 0.42918 0.0
C2161 C 0.76785 0.40646 0.43705 0.0
C2162 C 0.75159 0.37147 0.40796 0.0
C2163 C 0.76987 0.37873 0.39478 0.0
C2164 C 0.78636 0.40067 0.40212 0.0
C2165 C 0.785 0.41446 0.4232 0.0
C2166 C 0.73338 0.3485 0.40038 0.0
C2167 C 0.80626 0.40882 0.38864 0.0
C2168 C 0.7876 0.33121 0.35795 0.0
C2169 C 0.77847 0.33301 0.33502 0.0
C2170 C 0.78491 0.34606 0.37765 0.0
C2171 C 0.7725 0.3627 0.37418 0.0
C2172 C 0.7625 0.36391 0.35111 0.0
C2173 C 0.76568 0.34908 0.3318 0.0
C2174 C 0.79591 0.34441 0.40207 0.0
C2175 C 0.74882 0.38111 0.34676 0.0
H2176 H 0.73791 0.37915 0.44018 0.0
H2177 H 0.79829 0.43061 0.42972 0.0
H2178 H 0.72618 0.34673 0.38141 0.0
H2179 H 0.74121 0.33393 0.40225 0.0
H2180 H 0.71904 0.34665 0.41118 0.0
H2181 H 0.81655 0.427 0.39567 0.0
H2182 H 0.81775 0.39722 0.38988 0.0
H2183 H 0.79993 0.40779 0.36954 0.0
H2184 H 0.79766 0.31893 0.36039 0.0
H2185 H 0.75833 0.35023 0.31406 0.0
H2186 H 0.7826 0.3407 0.41401 0.0
H2187 H 0.80842 0.36134 0.40986 0.0
H2188 H 0.80503 0.33058 0.40171 0.0
H2189 H 0.73454 0.37879 0.35762 0.0
H2190 H 0.74146 0.37919 0.32778 0.0
H2191 H 0.76 0.39918 0.35229 0.0
C2192 C 0.42782 0.03423 0.24063 0.0
C2193 C 0.44546 0.03681 0.25951 0.0
C2194 C 0.43115 0.02838 0.21707 0.0
C2195 C 0.45264 0.02521 0.21244 0.0
C2196 C 0.47046 0.02774 0.23139 0.0
C2197 C 0.46665 0.03347 0.25467 0.0
C2198 C 0.4118 0.0257 0.19718 0.0
C2199 C 0.4937 0.02464 0.22709 0.0
C2200 C 0.46324 0.99244 0.15629 0.0
C2201 C 0.47453 0.01092 0.14531 0.0
C2202 C 0.45435 0.99678 0.17744 0.0
C2203 C 0.45717 0.02011 0.18781 0.0
C2204 C 0.46743 0.03875 0.17608 0.0
C2205 C 0.47599 0.03391 0.15493 0.0
C2206 C 0.44322 0.97648 0.18937 0.0
C2207 C 0.47094 0.06387 0.1867 0.0
H2208 H 0.41136 0.03667 0.24423 0.0
H2209 H 0.48042 0.03544 0.26909 0.0
H2210 H 0.41716 0.03878 0.18526 0.0
H2211 H 0.40781 0.00822 0.18631 0.0
H2212 H 0.39586 0.02793 0.20385 0.0
H2213 H 0.5056 0.02694 0.24387 0.0
H2214 H 0.4916 1.00698 0.21728 0.0
H2215 H 0.50184 0.03746 0.21594 0.0
H2216 H 0.46186 0.97466 0.14864 0.0
H2217 H 0.48494 0.04824 0.14657 0.0
H2218 H 0.42703 0.97866 0.1954 0.0
H2219 H 0.45498 0.97583 0.20533 0.0
H2220 H 0.4393 0.95957 0.17741 0.0
H2221 H 0.45483 0.06648 0.19255 0.0
H2222 H 0.47657 0.07608 0.17398 0.0
H2223 H 0.48428 0.06847 0.20262 0.0
C2224 C 0.79848 0.70887 0.94098 0.0
C2225 C 0.7895 0.71995 0.9592 0.0
C2226 C 0.79985 0.71693 0.91885 0.0
C2227 C 0.79152 0.73625 0.91442 0.0
C2228 C 0.78197 0.74718 0.9326 0.0
C2229 C 0.78136 0.73912 0.95479 0.0
C2230 C 0.81064 0.70501 0.90034 0.0
C2231 C 0.77233 0.76741 0.92861 0.0
C2232 C 0.81263 0.77212 0.8659 0.0
C2233 C 0.795 0.76254 0.84665 0.0
C2234 C 0.81198 0.76342 0.88776 0.0
C2235 C 0.7929 0.74509 0.89087 0.0
C2236 C 0.77503 0.7354 0.87148 0.0
C2237 C 0.77644 0.74399 0.84962 0.0
C2238 C 0.83174 0.77393 0.90759 0.0
C2239 C 0.75407 0.7163 0.874 0.0
H2240 H 0.805 0.69417 0.94422 0.0
H2241 H 0.77431 0.74777 0.96867 0.0
H2242 H 0.79806 0.69799 0.88395 0.0
H2243 H 0.82554 0.71783 0.89549 0.0
H2244 H 0.81664 0.69048 0.9066 0.0
H2245 H 0.76458 0.77337 0.94406 0.0
H2246 H 0.78617 0.78228 0.92519 0.0
H2247 H 0.75898 0.76238 0.91268 0.0
H2248 H 0.82707 0.7864 0.86385 0.0
H2249 H 0.76256 0.73662 0.83503 0.0
H2250 H 0.83882 0.76004 0.91383 0.0
H2251 H 0.82554 0.78229 0.92292 0.0
H2252 H 0.84586 0.78718 0.90204 0.0
H2253 H 0.75929 0.70092 0.87896 0.0
H2254 H 0.74156 0.71072 0.85739 0.0
H2255 H 0.74529 0.72241 0.88849 0.0
C2256 C 0.82734 0.08718 0.065 0.0
C2257 C 0.83466 0.10911 0.0578 0.0
C2258 C 0.84018 0.07095 0.06224 0.0
C2259 C 0.86057 0.07677 0.05176 0.0
C2260 C 0.8685 0.09923 0.04535 0.0
C2261 C 0.85549 0.11519 0.04859 0.0
C2262 C 0.8315 0.04732 0.06972 0.0
C2263 C 0.89019 0.10606 0.03408 0.0
C2264 C 0.90637 0.04458 0.05445 0.0
C2265 C 0.90182 0.03177 0.03148 0.0
C2266 C 0.89208 0.05811 0.06199 0.0
C2267 C 0.87304 0.0591 0.04605 0.0
C2268 C 0.86749 0.04505 0.02345 0.0
C2269 C 0.88187 0.0314 0.0165 0.0
C2270 C 0.89832 0.07257 0.08638 0.0
C2271 C 0.84728 0.04567 0.00596 0.0
H2272 H 0.81129 0.08247 0.07229 0.0
H2273 H 0.86123 0.13213 0.04301 0.0
H2274 H 0.82585 0.03375 0.05376 0.0
H2275 H 0.84552 0.04303 0.0808 0.0
H2276 H 0.81678 0.04645 0.07987 0.0
H2277 H 0.89445 0.12452 0.031 0.0
H2278 H 0.90498 0.10349 0.04552 0.0
H2279 H 0.88809 0.09472 0.01677 0.0
H2280 H 0.92187 0.04521 0.0661 0.0
H2281 H 0.87802 0.02118 0.99893 0.0
H2282 H 0.88279 0.07149 0.09525 0.0
H2283 H 0.90577 0.09114 0.0847 0.0
H2284 H 0.91115 0.06696 0.0979 0.0
H2285 H 0.83142 0.04304 0.01448 0.0
H2286 H 0.84409 0.03218 0.99002 0.0
H2287 H 0.85063 0.06305 1.00009 0.0
C2288 C 0.3717 0.44798 0.04287 0.0
C2289 C 0.37271 0.42546 0.04626 0.0
C2290 C 0.39189 0.46605 0.04325 0.0
C2291 C 0.41369 0.46171 0.04767 0.0
C2292 C 0.41481 0.43928 0.05213 0.0
C2293 C 0.39435 0.42138 0.05107 0.0
C2294 C 0.38985 0.4895 0.03786 0.0
C2295 C 0.43767 0.43399 0.0574 0.0
C2296 C 0.46524 0.49568 0.02222 0.0
C2297 C 0.47775 0.51172 0.04196 0.0
C2298 C 0.44398 0.48003 0.02366 0.0
C2299 C 0.43522 0.47989 0.0456 0.0
C2300 C 0.44757 0.4964 0.06554 0.0
C2301 C 0.46859 0.51236 0.06339 0.0
C2302 C 0.43119 0.46323 1.00177 0.0
C2303 C 0.43909 0.49653 0.08936 0.0
H2304 H 0.35507 0.45128 0.03899 0.0
H2305 H 0.3953 0.40411 0.05393 0.0
H2306 H 0.40055 0.5036 0.0519 0.0
H2307 H 0.39642 0.49279 0.02088 0.0
H2308 H 0.37177 0.49058 0.03636 0.0
H2309 H 0.43568 0.4165 0.06282 0.0
H2310 H 0.44648 0.43468 0.0414 0.0
H2311 H 0.44903 0.44732 0.07177 0.0
H2312 H 0.47225 0.49523 0.00558 0.0
H2313 H 0.47839 0.52455 0.07875 0.0
H2314 H 0.41312 0.46412 0.99853 0.0
H2315 H 0.43065 0.44513 0.00451 0.0
H2316 H 0.43937 0.46686 0.98567 0.0
H2317 H 0.42106 0.49764 0.08763 0.0
H2318 H 0.44992 0.51126 0.10274 0.0
H2319 H 0.43919 0.47993 0.09603 0.0
C2320 C 0.39359 0.58404 0.76516 0.0
C2321 C 0.41698 0.58998 0.77477 0.0
C2322 C 0.38093 0.60059 0.76637 0.0
C2323 C 0.39185 0.62378 0.77742 0.0
C2324 C 0.41567 0.63012 0.78644 0.0
C2325 C 0.42794 0.61315 0.78504 0.0
C2326 C 0.35562 0.59302 0.75649 0.0
C2327 C 0.42801 0.65468 0.7982 0.0
C2328 C 0.36038 0.66952 0.7651 0.0
C2329 C 0.34899 0.67106 0.78509 0.0
C2330 C 0.37484 0.6547 0.76262 0.0
C2331 C 0.37798 0.64095 0.7805 0.0
C2332 C 0.36684 0.6427 0.80089 0.0
C2333 C 0.35259 0.65772 0.80296 0.0
C2334 C 0.38636 0.65339 0.74061 0.0
C2335 C 0.36968 0.62839 0.8204 0.0
H2336 H 0.38493 0.56622 0.75715 0.0
H2337 H 0.44598 0.61791 0.79253 0.0
H2338 H 0.34526 0.59474 0.77108 0.0
H2339 H 0.3518 0.60444 0.74366 0.0
H2340 H 0.34995 0.57466 0.74742 0.0
H2341 H 0.44683 0.65724 0.80283 0.0
H2342 H 0.42527 0.66734 0.78634 0.0
H2343 H 0.42083 0.65878 0.81468 0.0
H2344 H 0.3576 0.67951 0.75105 0.0
H2345 H 0.34428 0.65906 0.81869 0.0
H2346 H 0.3797 0.63565 0.73019 0.0
H2347 H 0.4052 0.65654 0.74559 0.0
H2348 H 0.38337 0.66624 0.72907 0.0
H2349 H 0.36296 0.60955 0.81322 0.0
H2350 H 0.3605 0.63231 0.83547 0.0
H2351 H 0.38821 0.63169 0.82723 0.0
C2352 C 0.20674 0.65846 0.53084 0.0
C2353 C 0.22591 0.65108 0.53896 0.0
C2354 C 0.18428 0.64507 0.53181 0.0
C2355 C 0.18092 0.62372 0.54095 0.0
C2356 C 0.20016 0.61648 0.54977 0.0
C2357 C 0.22241 0.63027 0.54874 0.0
C2358 C 0.16413 0.65337 0.52231 0.0
C2359 C 0.19724 0.59364 0.5593 0.0
C2360 C 0.12167 0.59532 0.55607 0.0
C2361 C 0.11148 0.58041 0.53482 0.0
C2362 C 0.14441 0.60947 0.55849 0.0
C2363 C 0.15729 0.60811 0.53943 0.0
C2364 C 0.14735 0.59224 0.51838 0.0
C2365 C 0.12441 0.5789 0.51615 0.0
C2366 C 0.15439 0.62639 0.58108 0.0
C2367 C 0.16083 0.58965 0.49805 0.0
H2368 H 0.20922 0.67449 0.52328 0.0
H2369 H 0.23706 0.62436 0.55508 0.0
H2370 H 0.15474 0.64159 0.50588 0.0
H2371 H 0.15185 0.65282 0.53539 0.0
H2372 H 0.16963 0.6714 0.51809 0.0
H2373 H 0.21392 0.59134 0.56706 0.0
H2374 H 0.18566 0.59252 0.5731 0.0
H2375 H 0.18907 0.57895 0.54475 0.0
H2376 H 0.11157 0.59661 0.57043 0.0
H2377 H 0.11655 0.56725 0.49975 0.0
H2378 H 0.15821 0.64451 0.57705 0.0
H2379 H 0.17089 0.62371 0.58877 0.0
H2380 H 0.14248 0.62459 0.59461 0.0
H2381 H 0.16432 0.60584 0.4899 0.0
H2382 H 0.15147 0.57469 0.48416 0.0
H2383 H 0.17774 0.58706 0.50452 0.0
C2384 C 0.70133 0.97421 0.77462 0.0
C2385 C 0.7066 0.99495 0.76485 0.0
C2386 C 0.7169 0.96066 0.77602 0.0
C2387 C 0.73815 0.968 0.76729 0.0
C2388 C 0.74269 0.98782 0.75558 0.0
C2389 C 0.72684 1.00113 0.75455 0.0
C2390 C 0.71135 0.93949 0.78848 0.0
C2391 C 0.76497 0.99589 0.74564 0.0
C2392 C 0.78702 0.95176 0.80148 0.0
C2393 C 0.78758 0.93139 0.78715 0.0
C2394 C 0.77159 0.96437 0.79469 0.0
C2395 C 0.75649 0.95649 0.77296 0.0
C2396 C 0.75784 0.93668 0.7578 0.0
C2397 C 0.77329 0.92428 0.76514 0.0
C2398 C 0.77071 0.9855 0.81132 0.0
C2399 C 0.74217 0.9279 0.73442 0.0
H2400 H 0.68562 0.96923 0.78245 0.0
H2401 H 0.73092 0.01706 0.74678 0.0
H2402 H 0.71438 0.92427 0.77768 0.0
H2403 H 0.7229 0.943 0.80565 0.0
H2404 H 0.69322 0.93479 0.79206 0.0
H2405 H 0.76434 0.0093 0.73398 0.0
H2406 H 0.77928 1.0035 0.76047 0.0
H2407 H 0.76904 0.98097 0.73537 0.0
H2408 H 0.79827 0.95751 0.81831 0.0
H2409 H 0.77341 0.90838 0.75408 0.0
H2410 H 0.75377 0.98213 0.81786 0.0
H2411 H 0.77246 1.00076 0.80177 0.0
H2412 H 0.78448 0.99007 0.82688 0.0
H2413 H 0.72435 0.92008 0.73779 0.0
H2414 H 0.74766 0.91448 0.72323 0.0
H2415 H 0.74169 0.94248 0.72433 0.0
C2416 C 0.75614 0.94993 0.55728 0.0
C2417 C 0.75033 0.9261 0.54809 0.0
C2418 C 0.7398 0.96275 0.55566 0.0
C2419 C 0.71695 0.95153 0.54463 0.0
C2420 C 0.71074 0.92728 0.53606 0.0
C2421 C 0.72749 0.91487 0.53786 0.0
C2422 C 0.74724 0.98853 0.56505 0.0
C2423 C 0.68656 0.91459 0.52434 0.0
C2424 C 0.67105 0.98318 0.5556 0.0
C2425 C 0.66951 0.9939 0.53518 0.0
C2426 C 0.68603 0.96902 0.55872 0.0
C2427 C 0.69998 0.96548 0.54108 0.0
C2428 C 0.69832 0.97601 0.52033 0.0
C2429 C 0.68314 0.99 0.51762 0.0
C2430 C 0.68721 0.95814 0.58111 0.0
C2431 C 0.71282 0.97273 0.50104 0.0
H2432 H 0.77371 0.95881 0.56522 0.0
H2433 H 0.72281 0.89649 0.53067 0.0
H2434 H 0.74577 0.99857 0.55017 0.0
H2435 H 0.73576 0.99281 0.57766 0.0
H2436 H 0.76528 0.99442 0.57421 0.0
H2437 H 0.68405 0.89549 0.52007 0.0
H2438 H 0.67391 0.91772 0.53606 0.0
H2439 H 0.68272 0.9214 0.50765 0.0
H2440 H 0.66085 0.98623 0.56944 0.0
H2441 H 0.68185 0.99778 0.50158 0.0
H2442 H 0.70472 0.96507 0.59141 0.0
H2443 H 0.68405 0.939 0.57658 0.0
H2444 H 0.67448 0.96163 0.5926 0.0
H2445 H 0.73136 0.97964 0.50833 0.0
H2446 H 0.70919 0.98167 0.48577 0.0
H2447 H 0.70964 0.95389 0.49447 0.0
C2448 C 0.3967 0.46359 0.76465 0.0
C2449 C 0.41798 0.46659 0.77869 0.0
C2450 C 0.37857 0.44317 0.76319 0.0
C2451 C 0.38157 0.42542 0.77641 0.0
C2452 C 0.40296 0.42839 0.79073 0.0
C2453 C 0.42094 0.44881 0.79153 0.0
C2454 C 0.35623 0.44053 0.74737 0.0
C2455 C 0.40681 0.41005 0.80536 0.0
C2456 C 0.32897 0.38096 0.79026 0.0
C2457 C 0.32837 0.36106 0.77443 0.0
C2458 C 0.34597 0.40213 0.79089 0.0
C2459 C 0.36253 0.40355 0.77503 0.0
C2460 C 0.36138 0.38375 0.75837 0.0
C2461 C 0.34448 0.36275 0.75841 0.0
C2462 C 0.34675 0.42271 0.80914 0.0
C2463 C 0.37838 0.38456 0.74085 0.0
H2464 H 0.39423 0.47716 0.75459 0.0
H2465 H 0.43721 0.45102 0.80259 0.0
H2466 H 0.35244 0.42467 0.73389 0.0
H2467 H 0.3418 0.43824 0.75802 0.0
H2468 H 0.35669 0.45581 0.73805 0.0
H2469 H 0.42419 0.41526 0.81607 0.0
H2470 H 0.39368 0.40667 0.81753 0.0
H2471 H 0.4048 0.39341 0.79356 0.0
H2472 H 0.31673 0.37976 0.80284 0.0
H2473 H 0.34409 0.34749 0.74603 0.0
H2474 H 0.34634 0.43813 0.80036 0.0
H2475 H 0.36313 0.42738 0.82155 0.0
H2476 H 0.33217 0.41908 0.81961 0.0
H2477 H 0.37874 0.39935 0.73084 0.0
H2478 H 0.37418 0.36819 0.72798 0.0
H2479 H 0.39596 0.38749 0.7505 0.0
C2480 C 0.21045 0.61727 0.28268 0.0
C2481 C 0.18791 0.61359 0.28815 0.0
C2482 C 0.22446 0.63982 0.2826 0.0
C2483 C 0.21562 0.65914 0.28782 0.0
C2484 C 0.19283 0.65558 0.29312 0.0
C2485 C 0.17928 0.63284 0.29338 0.0
C2486 C 0.24885 0.643 0.27734 0.0
C2487 C 0.18281 0.67581 0.29869 0.0
C2488 C 0.25602 0.71895 0.31137 0.0
C2489 C 0.25647 0.72981 0.291 0.0
C2490 C 0.24338 0.69569 0.31037 0.0
C2491 C 0.23046 0.68319 0.2886 0.0
C2492 C 0.23118 0.69391 0.26786 0.0
C2493 C 0.24441 0.71709 0.26926 0.0
C2494 C 0.2435 0.68464 0.33271 0.0
C2495 C 0.21743 0.68114 0.24439 0.0
H2496 H 0.21735 0.60251 0.27882 0.0
H2497 H 0.16188 0.63015 0.29758 0.0
H2498 H 0.2516 0.6526 0.26203 0.0
H2499 H 0.26116 0.65364 0.29282 0.0
H2500 H 0.25298 0.62612 0.27329 0.0
H2501 H 0.16445 0.67 0.30135 0.0
H2502 H 0.19277 0.68731 0.31504 0.0
H2503 H 0.18413 0.68644 0.28405 0.0
H2504 H 0.26549 0.72868 0.32819 0.0
H2505 H 0.24463 0.72551 0.25353 0.0
H2506 H 0.24857 0.66819 0.32962 0.0
H2507 H 0.22589 0.6801 0.33766 0.0
H2508 H 0.25549 0.69633 0.34787 0.0
H2509 H 0.22189 0.66457 0.23958 0.0
H2510 H 0.22046 0.69169 0.22977 0.0
H2511 H 0.19878 0.67657 0.24595 0.0
C2512 C 0.50544 0.71597 0.50905 0.0
C2513 C 0.50972 0.72378 0.48716 0.0
C2514 C 0.50939 0.69483 0.51514 0.0
C2515 C 0.51776 0.68013 0.49907 0.0
C2516 C 0.52203 0.68775 0.47684 0.0
C2517 C 0.51814 0.70923 0.47127 0.0
C2518 C 0.50468 0.68829 0.53912 0.0
C2519 C 0.53069 0.67306 0.45874 0.0
C2520 C 0.54792 0.63589 0.52419 0.0
C2521 C 0.53046 0.6145 0.52014 0.0
C2522 C 0.54412 0.6569 0.51741 0.0
C2523 C 0.52227 0.65723 0.50579 0.0
C2524 C 0.5046 0.63567 0.50148 0.0
C2525 C 0.5088 0.61493 0.50869 0.0
C2526 C 0.56367 0.67898 0.52295 0.0
C2527 C 0.48104 0.63444 0.48911 0.0
H2528 H 0.49904 0.72661 0.52184 0.0
H2529 H 0.52162 0.71453 0.4543 0.0
H2530 H 0.49158 0.67117 0.53688 0.0
H2531 H 0.52061 0.68646 0.54917 0.0
H2532 H 0.49843 0.70142 0.54986 0.0
H2533 H 0.53271 0.68074 0.44212 0.0
H2534 H 0.54757 0.67109 0.46625 0.0
H2535 H 0.51857 0.65532 0.45434 0.0
H2536 H 0.5648 0.63632 0.53289 0.0
H2537 H 0.49499 0.59887 0.50511 0.0
H2538 H 0.55863 0.69239 0.5346 0.0
H2539 H 0.56742 0.68609 0.50635 0.0
H2540 H 0.57965 0.67616 0.5319 0.0
H2541 H 0.47317 0.64609 0.49986 0.0
H2542 H 0.4693 0.61648 0.48613 0.0
H2543 H 0.48251 0.64069 0.47172 0.0
C2544 C 0.63988 0.31738 0.6817 0.0
C2545 C 0.64576 0.3294 0.66259 0.0
C2546 C 0.65691 0.31474 0.69935 0.0
C2547 C 0.6807 0.32485 0.69856 0.0
C2548 C 0.68669 0.33767 0.67974 0.0
C2549 C 0.66934 0.33947 0.66196 0.0
C2550 C 0.6494 0.30039 0.71847 0.0
C2551 C 0.71157 0.3493 0.67812 0.0
C2552 C 0.72403 0.33255 0.75571 0.0
C2553 C 0.73428 0.31429 0.75101 0.0
C2554 C 0.70697 0.33638 0.73886 0.0
C2555 C 0.69922 0.32127 0.71679 0.0
C2556 C 0.70929 0.30261 0.71215 0.0
C2557 C 0.72674 0.29959 0.729 0.0
C2558 C 0.69747 0.35692 0.74455 0.0
C2559 C 0.7015 0.28561 0.68934 0.0
H2560 H 0.62187 0.30921 0.68242 0.0
H2561 H 0.67431 0.34879 0.64742 0.0
H2562 H 0.65669 0.28521 0.71736 0.0
H2563 H 0.65614 0.31088 0.73626 0.0
H2564 H 0.63036 0.29389 0.71696 0.0
H2565 H 0.71334 0.36088 0.66428 0.0
H2566 H 0.72037 0.35975 0.69546 0.0
H2567 H 0.72065 0.33586 0.6738 0.0
H2568 H 0.7297 0.34421 0.77244 0.0
H2569 H 0.73429 0.28534 0.72501 0.0
H2570 H 0.67861 0.35079 0.74459 0.0
H2571 H 0.70032 0.36831 0.73062 0.0
H2572 H 0.70558 0.36746 0.76207 0.0
H2573 H 0.68259 0.27776 0.68719 0.0
H2574 H 0.71012 0.27138 0.68877 0.0
H2575 H 0.70523 0.29489 0.67397 0.0
C2576 C 0.01377 0.35648 1.00185 0.0
C2577 C 0.01262 0.34858 0.97747 0.0
C2578 C 0.01615 0.38038 0.01066 0.0
C2579 C 0.01746 0.39726 0.99492 0.0
C2580 C 0.01599 0.38923 0.9703 0.0
C2581 C 0.01361 0.36536 0.96202 0.0
C2582 C 0.01754 0.38765 0.03699 0.0
C2583 C 0.01729 0.40602 0.95253 0.0
C2584 C 1.00603 0.45753 0.01296 0.0
C2585 C 0.02837 0.47296 0.01866 0.0
C2586 C 1.00223 0.4331 0.00576 0.0
C2587 C 0.02112 0.4233 0.00399 0.0
C2588 C 0.04368 0.43879 0.00993 0.0
C2589 C 0.04697 0.46305 0.0171 0.0
C2590 C 0.97784 0.41773 0.99976 0.0
C2591 C 0.06456 0.42978 0.00839 0.0
H2592 H 0.01307 0.34402 0.01416 0.0
H2593 H 0.01273 0.35987 0.94315 0.0
H2594 H 0.03445 0.40036 0.04395 0.0
H2595 H 1.00405 0.39652 0.04049 0.0
H2596 H 0.01542 0.37261 0.04693 0.0
H2597 H 0.01529 0.39717 0.93396 0.0
H2598 H 1.00365 0.41513 0.95397 0.0
H2599 H 0.03411 0.41953 0.95644 0.0
H2600 H 0.99136 0.46455 0.014 0.0
H2601 H 0.06439 0.47435 0.02133 0.0
H2602 H 0.97526 0.40335 0.01058 0.0
H2603 H 0.97457 0.40964 0.98084 0.0
H2604 H 0.96496 0.42754 0.00289 0.0
H2605 H 0.06398 0.41575 0.01948 0.0
H2606 H 0.08095 0.44369 0.01429 0.0
H2607 H 0.06453 0.42206 0.9898 0.0
C2608 C 0.99771 0.80503 0.14336 0.0
C2609 C 0.01894 0.80372 0.15465 0.0
C2610 C 0.97813 0.8018 0.15524 0.0
C2611 C 0.97973 0.79715 0.179 0.0
C2612 C 1.00101 0.79535 0.19025 0.0
C2613 C 0.02024 0.79864 0.178 0.0
C2614 C 0.95583 0.80383 0.14252 0.0
C2615 C 1.00363 0.79038 0.21548 0.0
C2616 C 0.93866 0.81209 0.22067 0.0
C2617 C 0.92342 0.79016 0.22118 0.0
C2618 C 0.95654 0.81468 0.20655 0.0
C2619 C 0.95951 0.79486 0.19251 0.0
C2620 C 0.9439 0.77274 0.19254 0.0
C2621 C 0.92609 0.77067 0.20677 0.0
C2622 C 0.97259 0.83863 0.20701 0.0
C2623 C 0.9464 0.75111 0.17801 0.0
H2624 H 0.99648 0.80898 0.12537 0.0
H2625 H 0.03648 0.79755 0.18695 0.0
H2626 H 0.94176 0.78785 0.14271 0.0
H2627 H 0.95094 0.81868 0.1519 0.0
H2628 H 0.95706 0.80653 0.1238 0.0
H2629 H 0.02107 0.78872 0.22144 0.0
H2630 H 1.00041 0.80463 0.22764 0.0
H2631 H 0.99069 0.77401 0.21713 0.0
H2632 H 0.93659 0.82735 0.23136 0.0
H2633 H 0.91462 0.7536 0.20712 0.0
H2634 H 0.97315 0.8428 0.18869 0.0
H2635 H 0.99033 0.83898 0.21445 0.0
H2636 H 0.96732 0.85244 0.21785 0.0
H2637 H 0.9469 0.75365 0.15918 0.0
H2638 H 0.93212 0.73545 0.17878 0.0
H2639 H 0.96293 0.74779 0.18462 0.0
C2640 C 0.54034 0.32097 0.14365 0.0
C2641 C 0.537 0.32304 0.16761 0.0
C2642 C 0.54393 0.34026 0.13141 0.0
C2643 C 0.54431 0.36242 0.14334 0.0
C2644 C 0.54155 0.36483 0.16773 0.0
C2645 C 0.53789 0.34511 0.17957 0.0
C2646 C 0.54678 0.33677 0.10547 0.0
C2647 C 0.54201 0.38814 0.18118 0.0
C2648 C 0.57151 0.41393 0.1128 0.0
C2649 C 0.55214 0.41798 0.10016 0.0
C2650 C 0.5692 0.3966 0.12766 0.0
C2651 C 0.54699 0.38275 0.12989 0.0
C2652 C 0.52735 0.38717 0.11768 0.0
C2653 C 0.53015 0.40472 0.10307 0.0
C2654 C 0.59061 0.39271 0.14048 0.0
C2655 C 0.50334 0.37276 0.11934 0.0
H2656 H 0.53971 0.30404 0.13418 0.0
H2657 H 0.53527 0.3469 0.19804 0.0
H2658 H 0.53269 0.34118 0.09463 0.0
H2659 H 0.56326 0.34862 0.10256 0.0
H2660 H 0.5466 0.31855 0.0989 0.0
H2661 H 0.54088 0.38744 0.20032 0.0
H2662 H 0.55807 0.40142 0.17954 0.0
H2663 H 0.52737 0.39404 0.17339 0.0
H2664 H 0.58856 0.4243 0.11102 0.0
H2665 H 0.51507 0.40753 0.09328 0.0
H2666 H 0.59224 0.37529 0.13344 0.0
H2667 H 0.58935 0.39295 0.15969 0.0
H2668 H 0.60649 0.4061 0.13845 0.0
H2669 H 0.50104 0.35442 0.11133 0.0
H2670 H 0.48984 0.37933 0.11008 0.0
H2671 H 0.50074 0.37269 0.13821 0.0
C2672 C 0.98178 0.3214 0.32095 0.0
C2673 C 0.98847 0.33225 0.34478 0.0
C2674 C 0.95902 0.31832 0.3089 0.0
C2675 C 0.94214 0.32599 0.32078 0.0
C2676 C 0.94908 0.33743 0.34452 0.0
C2677 C 0.97174 0.34053 0.35588 0.0
C2678 C 0.95285 0.30637 0.28351 0.0
C2679 C 0.93224 0.34586 0.35843 0.0
C2680 C 0.88514 0.33482 0.29036 0.0
C2681 C 0.86831 0.31481 0.2938 0.0
C2682 C 0.9091 0.33821 0.29796 0.0
C2683 C 0.91697 0.32128 0.30939 0.0
C2684 C 0.9001 0.30082 0.3123 0.0
C2685 C 0.87636 0.2979 0.30463 0.0
C2686 C 0.92604 0.36031 0.29421 0.0
C2687 C 0.90703 0.28213 0.32432 0.0
H2688 H 0.99409 0.31481 0.31186 0.0
H2689 H 0.97615 0.34924 0.3741 0.0
H2690 H 0.9399 0.28932 0.28255 0.0
H2691 H 0.94492 0.31698 0.27241 0.0
H2692 H 0.96809 0.30335 0.2759 0.0
H2693 H 0.9403 0.35498 0.37653 0.0
H2694 H 0.92494 0.35794 0.34889 0.0
H2695 H 0.91768 0.33084 0.36013 0.0
H2696 H 0.8796 0.34809 0.28199 0.0
H2697 H 0.86401 0.28222 0.30747 0.0
H2698 H 0.94036 0.35615 0.2857 0.0
H2699 H 0.93368 0.37123 0.31164 0.0
H2700 H 0.91783 0.37069 0.28303 0.0
H2701 H 0.92103 0.27697 0.31605 0.0
H2702 H 0.89238 0.26633 0.32339 0.0
H2703 H 0.9138 0.28905 0.34329 0.0
C2704 C 0.99654 0.68378 0.63463 0.0
C2705 C 0.01325 0.6944 0.65446 0.0
C2706 C 0.99705 0.6629 0.62062 0.0
C2707 C 0.01511 0.65248 0.626 0.0
C2708 C 0.03114 0.6623 0.64693 0.0
C2709 C 0.02998 0.683 0.66082 0.0
C2710 C 0.97925 0.65307 0.5989 0.0
C2711 C 0.05085 0.65222 0.65353 0.0
C2712 C 0.01349 0.59188 0.59317 0.0
C2713 C 0.02644 0.59761 0.57466 0.0
C2714 C 1.00949 0.60933 0.60983 0.0
C2715 C 0.01888 0.63331 0.60837 0.0
C2716 C 0.03209 0.63914 0.58982 0.0
C2717 C 0.03553 0.62139 0.57326 0.0
C2718 C 0.99508 0.60209 0.62896 0.0
C2719 C 0.04279 0.66429 0.5875 0.0
H2720 H 0.98403 0.69278 0.62899 0.0
H2721 H 0.04353 0.69145 0.67548 0.0
H2722 H 0.98726 0.65681 0.58275 0.0
H2723 H 0.97271 0.63385 0.59752 0.0
H2724 H 0.96446 0.66074 0.59911 0.0
H2725 H 0.05995 0.65974 0.67174 0.0
H2726 H 0.04462 0.63301 0.65241 0.0
H2727 H 0.0634 0.6559 0.64079 0.0
H2728 H 1.00628 0.57367 0.59456 0.0
H2729 H 0.04566 0.62624 0.55925 0.0
H2730 H 0.97997 0.60927 0.62763 0.0
H2731 H 1.00525 0.60938 0.64673 0.0
H2732 H 0.98886 0.58284 0.62774 0.0
H2733 H 0.02914 0.67331 0.58473 0.0
H2734 H 0.05299 0.66605 0.5725 0.0
H2735 H 0.05426 0.6734 0.60415 0.0
C2736 C 0.62116 0.82075 0.81476 0.0
C2737 C 0.61973 0.82575 0.83916 0.0
C2738 C 0.64167 0.81739 0.80641 0.0
C2739 C 0.66158 0.81833 0.82263 0.0
C2740 C 0.66004 0.82307 0.84727 0.0
C2741 C 0.6396 0.82695 0.85508 0.0
C2742 C 0.64208 0.81302 0.78003 0.0
C2743 C 0.68004 0.82378 0.86564 0.0
C2744 C 0.70711 0.78733 0.80226 0.0
C2745 C 0.72604 0.80581 0.79948 0.0
C2746 C 0.68647 0.79111 0.80966 0.0
C2747 C 0.68373 0.81403 0.81406 0.0
C2748 C 0.70261 0.83276 0.81086 0.0
C2749 C 0.72334 0.82852 0.80403 0.0
C2750 C 0.66761 0.77038 0.81323 0.0
C2751 C 0.70092 0.8575 0.81462 0.0
H2752 H 0.6063 0.81983 0.80203 0.0
H2753 H 0.6391 0.83064 0.87396 0.0
H2754 H 0.65672 0.82615 0.77516 0.0
H2755 H 0.64478 0.79563 0.77494 0.0
H2756 H 0.62587 0.81377 0.76957 0.0
H2757 H 0.67618 0.82695 0.88407 0.0
H2758 H 0.68466 0.80703 0.86306 0.0
H2759 H 0.69537 0.83775 0.86349 0.0
H2760 H 0.70859 0.76967 0.79912 0.0
H2761 H 0.73745 0.84315 0.80202 0.0
H2762 H 0.65149 0.7693 0.80151 0.0
H2763 H 0.66398 0.77251 0.83182 0.0
H2764 H 0.67219 0.7537 0.80942 0.0
H2765 H 0.68523 0.85881 0.80365 0.0
H2766 H 0.71619 0.87005 0.81 0.0
H2767 H 0.6993 0.86267 0.83345 0.0
C2768 C 0.49387 0.52912 0.70487 0.0
C2769 C 0.47967 0.54096 0.71593 0.0
C2770 C 0.50017 0.53317 0.68251 0.0
C2771 C 0.49239 0.54974 0.6707 0.0
C2772 C 0.47794 0.56172 0.68162 0.0
C2773 C 0.47162 0.55709 0.704 0.0
C2774 C 0.51524 0.51963 0.67151 0.0
C2775 C 0.46939 0.57965 0.66977 0.0
C2776 C 0.5288 0.57154 0.62318 0.0
C2777 C 0.51614 0.55711 0.60242 0.0
C2778 C 0.52066 0.57029 0.64531 0.0
C2779 C 0.4994 0.55411 0.64689 0.0
C2780 C 0.48606 0.54033 0.62582 0.0
C2781 C 0.49451 0.54204 0.60395 0.0
C2782 C 0.53535 0.58556 0.6672 0.0
C2783 C 0.46336 0.52278 0.62648 0.0
H2784 H 0.50009 0.51646 0.71369 0.0
H2785 H 0.46075 0.56643 0.71234 0.0
H2786 H 0.50642 0.50983 0.65391 0.0
H2787 H 0.53152 0.53181 0.66858 0.0
H2788 H 0.51955 0.50708 0.68277 0.0
H2789 H 0.45824 0.58741 0.68044 0.0
H2790 H 0.48426 0.59382 0.66695 0.0
H2791 H 0.45951 0.5716 0.65203 0.0
H2792 H 0.54545 0.58334 0.62233 0.0
H2793 H 0.48439 0.53087 0.58812 0.0
H2794 H 0.5424 0.57465 0.67866 0.0
H2795 H 0.52481 0.59432 0.67772 0.0
H2796 H 0.54997 0.59907 0.66276 0.0
H2797 H 0.46652 0.50834 0.63556 0.0
H2798 H 0.45388 0.5153 0.60841 0.0
H2799 H 0.45224 0.53092 0.63678 0.0
C2800 C 0.78931 0.19419 0.99801 0.0
C2801 C 0.78126 0.17035 0.9991 0.0
C2802 C 0.78036 0.20402 0.97953 0.0
C2803 C 0.76256 0.18971 0.96193 0.0
C2804 C 0.75444 0.16554 0.9628 0.0
C2805 C 0.76405 0.15607 0.98135 0.0
C2806 C 0.78982 0.22981 0.97898 0.0
C2807 C 0.73527 0.14985 0.94453 0.0
C2808 C 0.7292 0.22568 0.93102 0.0
C2809 C 0.74028 0.22891 0.91095 0.0
C2810 C 0.73503 0.21135 0.94692 0.0
C2811 C 0.75263 0.20045 0.94282 0.0
C2812 C 0.76291 0.20261 0.92187 0.0
C2813 C 0.75654 0.21677 0.90614 0.0
C2814 C 0.72334 0.20904 0.96884 0.0
C2815 C 0.7819 0.19148 0.91693 0.0
H2816 H 0.80266 0.20522 0.01171 0.0
H2817 H 0.75763 0.13765 0.98236 0.0
H2818 H 0.7961 0.23261 0.96177 0.0
H2819 H 0.77598 0.23863 0.98055 0.0
H2820 H 0.80422 0.23828 0.99355 0.0
H2821 H 0.73216 0.1312 0.94668 0.0
H2822 H 0.71911 0.15492 0.94611 0.0
H2823 H 0.73935 0.15186 0.92634 0.0
H2824 H 0.71648 0.23491 0.93462 0.0
H2825 H 0.76536 0.21947 0.89078 0.0
H2826 H 0.73561 0.21897 0.98466 0.0
H2827 H 0.71804 0.19054 0.97158 0.0
H2828 H 0.70793 0.2158 0.96775 0.0
H2829 H 0.79778 0.20074 0.92942 0.0
H2830 H 0.78587 0.19221 0.89849 0.0
H2831 H 0.77718 0.17301 0.91982 0.0
C2832 C 0.10078 0.54022 0.21555 0.0
C2833 C 0.1173 0.52833 0.22098 0.0
C2834 C 0.09057 0.53882 0.19221 0.0
C2835 C 0.09654 0.52467 0.17377 0.0
C2836 C 0.11225 0.51158 0.17919 0.0
C2837 C 0.1228 0.51387 0.20277 0.0
C2838 C 0.0744 0.5536 0.18716 0.0
C2839 C 0.11847 0.4958 0.16001 0.0
C2840 C 0.05637 0.51618 0.11608 0.0
C2841 C 0.06874 0.53378 0.10467 0.0
C2842 C 0.06587 0.51183 0.13797 0.0
C2843 C 0.08798 0.52575 0.1488 0.0
C2844 C 0.10079 0.54302 0.13697 0.0
C2845 C 0.09108 0.5467 0.11499 0.0
C2846 C 0.05195 0.49292 0.14988 0.0
C2847 C 0.12426 0.55854 0.14809 0.0
H2848 H 0.09659 0.55165 0.22946 0.0
H2849 H 0.13544 0.50454 0.20692 0.0
H2850 H 0.082 0.56667 0.17599 0.0
H2851 H 0.05777 0.54262 0.1771 0.0
H2852 H 0.07091 0.563 0.20364 0.0
H2853 H 0.12816 0.48429 0.16749 0.0
H2854 H 0.10271 0.48479 0.14834 0.0
H2855 H 0.12927 0.50647 0.14872 0.0
H2856 H 0.03926 0.50587 0.10799 0.0
H2857 H 0.10082 0.56027 0.10624 0.0
H2858 H 0.04586 0.50094 0.1655 0.0
H2859 H 0.06278 0.48201 0.15643 0.0
H2860 H 0.03671 0.48151 0.13771 0.0
H2861 H 0.12257 0.56966 0.16434 0.0
H2862 H 0.13259 0.57006 0.13585 0.0
H2863 H 0.13578 0.54789 0.15353 0.0
C2864 C 0.80125 0.88365 0.46041 0.0
C2865 C 0.80126 0.87079 0.47935 0.0
C2866 C 0.80203 0.87369 0.43707 0.0
C2867 C 0.80289 0.85023 0.43239 0.0
C2868 C 0.80352 0.83735 0.45156 0.0
C2869 C 0.80267 0.84775 0.47473 0.0
C2870 C 0.80127 0.8881 0.41727 0.0
C2871 C 0.80449 0.81236 0.44749 0.0
C2872 C 0.77842 0.81771 0.36985 0.0
C2873 C 0.7983 0.81881 0.35895 0.0
C2874 C 0.77975 0.82751 0.39367 0.0
C2875 C 0.80152 0.83877 0.40729 0.0
C2876 C 0.82173 0.83952 0.39663 0.0
C2877 C 0.81989 0.82957 0.37263 0.0
C2878 C 0.75772 0.8262 0.40412 0.0
C2879 C 0.84528 0.85125 0.41047 0.0
H2880 H 0.80022 0.90147 0.46374 0.0
H2881 H 0.80278 0.83765 0.48921 0.0
H2882 H 0.81592 0.88814 0.40723 0.0
H2883 H 0.7852 0.88027 0.40461 0.0
H2884 H 0.80192 0.90642 0.42395 0.0
H2885 H 0.80645 0.80521 0.46438 0.0
H2886 H 0.78847 0.80137 0.43624 0.0
H2887 H 0.81908 0.81096 0.43782 0.0
H2888 H 0.7616 0.80943 0.35964 0.0
H2889 H 0.83536 0.83063 0.36449 0.0
H2890 H 0.7563 0.84405 0.40964 0.0
H2891 H 0.75791 0.81762 0.42024 0.0
H2892 H 0.74217 0.81641 0.39137 0.0
H2893 H 0.84705 0.87008 0.41573 0.0
H2894 H 0.85934 0.84945 0.40009 0.0
H2895 H 0.84747 0.84371 0.42705 0.0
C2896 C 0.49704 0.54164 0.84626 0.0
C2897 C 0.47313 0.53832 0.84163 0.0
C2898 C 0.50793 0.5411 0.8691 0.0
C2899 C 0.49462 0.53679 0.8878 0.0
C2900 C 0.47037 0.5326 0.88299 0.0
C2901 C 0.45997 0.5336 0.86007 0.0
C2902 C 0.53382 0.54602 0.87341 0.0
C2903 C 0.45542 0.52761 0.90223 0.0
C2904 C 0.52049 0.52067 0.94541 0.0
C2905 C 0.52545 0.5418 0.9609 0.0
C2906 C 0.51067 0.51874 0.9215 0.0
C2907 C 0.50613 0.53852 0.91275 0.0
C2908 C 0.51202 0.56007 0.92815 0.0
C2909 C 0.52135 0.56137 0.95196 0.0
C2910 C 0.50441 0.49537 0.90582 0.0
C2911 C 0.50802 0.58176 0.91964 0.0
H2912 H 0.50738 0.54532 0.83215 0.0
H2913 H 0.44148 0.53084 0.85665 0.0
H2914 H 0.54131 0.56251 0.88594 0.0
H2915 H 0.53876 0.53195 0.88177 0.0
H2916 H 0.54158 0.54764 0.85677 0.0
H2917 H 0.43676 0.52276 0.89523 0.0
H2918 H 0.45914 0.51325 0.91106 0.0
H2919 H 0.45937 0.54326 0.916 0.0
H2920 H 0.52341 0.50543 0.95222 0.0
H2921 H 0.52531 0.57785 0.96373 0.0
H2922 H 0.51241 0.49693 0.88935 0.0
H2923 H 0.48547 0.48931 0.90041 0.0
H2924 H 0.50994 0.48195 0.91487 0.0
H2925 H 0.51642 0.58506 0.90363 0.0
H2926 H 0.51476 0.59745 0.93343 0.0
H2927 H 0.4893 0.57926 0.91452 0.0
C2928 C 0.80046 0.18098 0.139 0.0
C2929 C 0.816 0.18991 0.12379 0.0
C2930 C 0.80126 0.19358 0.16148 0.0
C2931 C 0.81814 0.2152 0.16864 0.0
C2932 C 0.83621 0.22192 0.15503 0.0
C2933 C 0.83462 0.20945 0.13237 0.0
C2934 C 0.78225 0.18543 0.176 0.0
C2935 C 0.85549 0.24397 0.16301 0.0
C2936 C 0.79862 0.26719 0.1923 0.0
C2937 C 0.8061 0.26996 0.2166 0.0
C2938 C 0.80169 0.24881 0.17682 0.0
C2939 C 0.81343 0.23334 0.18581 0.0
C2940 C 0.82108 0.2361 0.2105 0.0
C2941 C 0.81691 0.25425 0.22572 0.0
C2942 C 0.79266 0.24625 0.15072 0.0
C2943 C 0.83379 0.22032 0.22109 0.0
H2944 H 0.78607 0.1658 0.13228 0.0
H2945 H 0.84675 0.21617 0.12059 0.0
H2946 H 0.78936 0.1877 0.19506 0.0
H2947 H 0.76992 0.19615 0.17434 0.0
H2948 H 0.77267 0.16683 0.17 0.0
H2949 H 0.87053 0.24393 0.15355 0.0
H2950 H 0.84932 0.25921 0.15923 0.0
H2951 H 0.8611 0.24618 0.18243 0.0
H2952 H 0.79019 0.27941 0.18539 0.0
H2953 H 0.82294 0.25672 0.24458 0.0
H2954 H 0.782 0.22814 0.14412 0.0
H2955 H 0.80729 0.24991 0.14037 0.0
H2956 H 0.78206 0.25835 0.14711 0.0
H2957 H 0.82157 0.20721 0.22904 0.0
H2958 H 0.84764 0.23049 0.23556 0.0
H2959 H 0.84158 0.21097 0.20784 0.0
C2960 C 0.14813 0.54615 0.35042 0.0
C2961 C 0.16888 0.55395 0.34156 0.0
C2962 C 0.14282 0.55915 0.3698 0.0
C2963 C 0.15862 0.58066 0.38039 0.0
C2964 C 0.18038 0.58781 0.37265 0.0
C2965 C 0.18533 0.57426 0.35319 0.0
C2966 C 0.11968 0.55044 0.378 0.0
C2967 C 0.19785 0.61024 0.38411 0.0
C2968 C 0.12224 0.61705 0.40421 0.0
C2969 C 0.12054 0.60999 0.42657 0.0
C2970 C 0.13729 0.61017 0.38977 0.0
C2971 C 0.15098 0.59609 0.39806 0.0
C2972 C 0.15195 0.59212 0.42191 0.0
C2973 C 0.13649 0.59888 0.43583 0.0
C2974 C 0.13621 0.61537 0.36459 0.0
C2975 C 0.16702 0.57815 0.43201 0.0
H2976 H 0.13554 0.53033 0.34144 0.0
H2977 H 0.20135 0.58033 0.34617 0.0
H2978 H 0.12202 0.54959 0.39732 0.0
H2979 H 0.10915 0.56271 0.375 0.0
H2980 H 0.1099 0.53286 0.3685 0.0
H2981 H 0.21483 0.61198 0.37785 0.0
H2982 H 0.19156 0.62528 0.37993 0.0
H2983 H 0.20018 0.61122 0.40372 0.0
H2984 H 0.1105 0.62632 0.39724 0.0
H2985 H 0.13542 0.59334 0.45307 0.0
H2986 H 0.12547 0.59965 0.35241 0.0
H2987 H 0.15362 0.61976 0.35914 0.0
H2988 H 0.12849 0.62999 0.36237 0.0
H2989 H 0.15624 0.56031 0.43277 0.0
H2990 H 0.17497 0.58624 0.45044 0.0
H2991 H 0.18098 0.57679 0.42139 0.0
C2992 C 0.78378 0.86982 0.61827 0.0
C2993 C 0.79868 0.86095 0.60504 0.0
C2994 C 0.77963 0.86323 0.6407 0.0
C2995 C 0.79083 0.84762 0.65035 0.0
C2996 C 0.80611 0.83895 0.6372 0.0
C2997 C 0.80971 0.84557 0.61485 0.0
C2998 C 0.76309 0.87279 0.65398 0.0
C2999 C 0.81877 0.8226 0.64675 0.0
C3000 C 0.80042 0.84434 0.71677 0.0
C3001 C 0.78467 0.82301 0.71847 0.0
C3002 C 0.80181 0.85311 0.69505 0.0
C3003 C 0.78706 0.84038 0.67425 0.0
C3004 C 0.77035 0.81942 0.67606 0.0
C3005 C 0.76939 0.81099 0.69804 0.0
C3006 C 0.81992 0.87548 0.69418 0.0
C3007 C 0.7541 0.80535 0.6545 0.0
H3008 H 0.77506 0.88161 0.61095 0.0
H3009 H 0.82143 0.83868 0.60507 0.0
H3010 H 0.74878 0.85822 0.65716 0.0
H3011 H 0.77198 0.8824 0.67162 0.0
H3012 H 0.75573 0.8847 0.64418 0.0
H3013 H 0.83024 0.81756 0.63448 0.0
H3014 H 0.82935 0.83097 0.66409 0.0
H3015 H 0.80625 0.80654 0.64985 0.0
H3016 H 0.81227 0.85399 0.73234 0.0
H3017 H 0.75707 0.79457 0.69902 0.0
H3018 H 0.81225 0.88747 0.68489 0.0
H3019 H 0.83336 0.87156 0.68397 0.0
H3020 H 0.82834 0.88459 0.71218 0.0
H3021 H 0.74576 0.81672 0.64495 0.0
H3022 H 0.74049 0.79096 0.6592 0.0
H3023 H 0.76392 0.7977 0.64204 0.0
C3024 C 0.76318 0.49026 0.54616 0.0
C3025 C 0.75069 0.47026 0.5303 0.0
C3026 C 0.75223 0.50643 0.55556 0.0
C3027 C 0.72835 0.50264 0.54857 0.0
C3028 C 0.71553 0.48207 0.53321 0.0
C3029 C 0.72686 0.466 0.52439 0.0
C3030 C 0.76632 0.52794 0.57229 0.0
C3031 C 0.69002 0.47754 0.52523 0.0
C3032 C 0.6917 0.53516 0.58019 0.0
C3033 C 0.68957 0.55129 0.56487 0.0
C3034 C 0.7054 0.51999 0.57592 0.0
C3035 C 0.71698 0.5209 0.55574 0.0
C3036 C 0.71605 0.53813 0.5411 0.0
C3037 C 0.70247 0.55324 0.54596 0.0
C3038 C 0.70632 0.50208 0.59213 0.0
C3039 C 0.72821 0.53968 0.51943 0.0
H3040 H 0.7816 0.49347 0.55096 0.0
H3041 H 0.71718 0.45055 0.51213 0.0
H3042 H 0.76734 0.54357 0.56346 0.0
H3043 H 0.75795 0.53035 0.58834 0.0
H3044 H 0.78412 0.52706 0.57792 0.0
H3045 H 0.68239 0.46021 0.51413 0.0
H3046 H 0.68078 0.47852 0.54084 0.0
H3047 H 0.68706 0.49117 0.51475 0.0
H3048 H 0.68162 0.53345 0.59474 0.0
H3049 H 0.70114 0.56597 0.53433 0.0
H3050 H 0.72429 0.50129 0.59672 0.0
H3051 H 0.6961 0.48459 0.58288 0.0
H3052 H 0.69927 0.50588 0.60881 0.0
H3053 H 0.74664 0.54062 0.52422 0.0
H3054 H 0.72707 0.5551 0.51089 0.0
H3055 H 0.72041 0.52373 0.50622 0.0
C3056 C 0.19217 0.16657 0.49575 0.0
C3057 C 0.21418 0.16516 0.50453 0.0
C3058 C 0.17224 0.1489 0.49743 0.0
C3059 C 0.17426 0.1294 0.50837 0.0
C3060 C 0.19645 0.12737 0.5163 0.0
C3061 C 0.21608 0.14515 0.51418 0.0
C3062 C 0.14893 0.15164 0.48846 0.0
C3063 C 0.19946 0.10703 0.52824 0.0
C3064 C 0.12425 0.10251 0.54006 0.0
C3065 C 0.11234 0.08235 0.52411 0.0
C3066 C 0.1446 0.11756 0.53533 0.0
C3067 C 0.15326 0.1126 0.5139 0.0
C3068 C 0.14163 0.09199 0.4979 0.0
C3069 C 0.12137 0.07698 0.50328 0.0
C3070 C 0.15659 0.13906 0.55314 0.0
C3071 C 0.15017 0.08618 0.47478 0.0
H3072 H 0.19042 0.1818 0.4881 0.0
H3073 H 0.23293 0.14374 0.52101 0.0
H3074 H 0.13821 0.13536 0.47715 0.0
H3075 H 0.1398 0.15492 0.50373 0.0
H3076 H 0.15029 0.1663 0.47807 0.0
H3077 H 0.21776 0.10675 0.53122 0.0
H3078 H 0.19308 0.10808 0.54568 0.0
H3079 H 0.18914 0.09031 0.51742 0.0
H3080 H 0.11748 0.10672 0.55628 0.0
H3081 H 0.11213 0.06156 0.49076 0.0
H3082 H 0.15658 0.15493 0.545 0.0
H3083 H 0.17484 0.13947 0.55836 0.0
H3084 H 0.14821 0.13986 0.56942 0.0
H3085 H 0.14929 0.09979 0.46346 0.0
H3086 H 0.1399 0.06898 0.46481 0.0
H3087 H 0.16847 0.08609 0.47811 0.0
C3088 C 0.18965 0.00907 0.77793 0.0
C3089 C 0.16699 1.00273 0.78318 0.0
C3090 C 0.20198 0.99247 0.77416 0.0
C3091 C 0.19144 0.96878 0.77549 0.0
C3092 C 0.16832 0.9621 0.78008 0.0
C3093 C 0.15638 0.97916 0.78395 0.0
C3094 C 0.22658 1.00044 0.7694 0.0
C3095 C 0.15638 0.93701 0.78145 0.0
C3096 C 0.22093 0.92527 0.74806 0.0
C3097 C 0.23438 0.92168 0.76802 0.0
C3098 C 0.20623 0.93985 0.75029 0.0
C3099 C 0.20509 0.95137 0.77301 0.0
C3100 C 0.2183 0.94746 0.79327 0.0
C3101 C 0.23268 0.93264 0.79054 0.0
C3102 C 0.19227 0.94331 0.72827 0.0
C3103 C 0.21782 0.95953 0.81779 0.0
H3104 H 0.19804 0.02721 0.77727 0.0
H3105 H 0.13891 0.97409 0.78801 0.0
H3106 H 0.23831 0.99686 0.78381 0.0
H3107 H 0.2287 0.99057 0.75255 0.0
H3108 H 0.23205 0.01936 0.76821 0.0
H3109 H 0.13796 0.93438 0.78362 0.0
H3110 H 0.15747 0.9256 0.76516 0.0
H3111 H 0.16516 0.9313 0.7967 0.0
H3112 H 0.22188 0.91662 0.73063 0.0
H3113 H 0.24315 0.93016 0.80604 0.0
H3114 H 0.19814 0.96172 0.72533 0.0
H3115 H 0.17383 0.93973 0.73057 0.0
H3116 H 0.19381 0.93186 0.71217 0.0
H3117 H 0.22475 0.97866 0.81867 0.0
H3118 H 0.22813 0.95371 0.83184 0.0
H3119 H 0.19983 0.95618 0.82165 0.0
C3120 C 0.35262 0.96153 0.98592 0.0
C3121 C 0.34972 0.93747 0.98499 0.0
C3122 C 0.3744 0.97694 0.98638 0.0
C3123 C 0.3938 0.9681 0.98598 0.0
C3124 C 0.39084 0.9437 0.98354 0.0
C3125 C 0.36876 0.92861 0.98299 0.0
C3126 C 0.3768 1.00281 0.98881 0.0
C3127 C 0.41117 0.93365 0.98302 0.0
C3128 C 0.45106 0.00849 0.97761 0.0
C3129 C 0.46192 0.01554 1.00118 0.0
C3130 C 0.42881 0.99305 0.97229 0.0
C3131 C 0.41727 0.98451 0.99098 0.0
C3132 C 0.42798 0.99195 0.01481 0.0
C3133 C 0.45011 1.00739 0.01961 0.0
C3134 C 0.41781 0.98555 0.94669 0.0
C3135 C 0.4162 0.98335 0.03529 0.0
H3136 H 0.33792 0.9685 0.98708 0.0
H3137 H 0.36663 0.91005 0.9822 0.0
H3138 H 0.38561 0.01131 0.00685 0.0
H3139 H 0.38754 0.01082 0.97587 0.0
H3140 H 0.35984 1.00664 0.98605 0.0
H3141 H 0.40575 0.91437 0.97823 0.0
H3142 H 0.42226 0.94122 0.97015 0.0
H3143 H 0.42181 0.93823 1.0008 0.0
H3144 H 0.46012 0.0146 0.96328 0.0
H3145 H 0.45833 0.01272 0.03789 0.0
H3146 H 0.40098 0.9896 0.94414 0.0
H3147 H 0.41438 0.9664 0.94195 0.0
H3148 H 0.42883 0.99422 0.93427 0.0
H3149 H 0.39969 0.98805 0.03525 0.0
H3150 H 0.42698 0.99077 0.05278 0.0
H3151 H 0.41207 0.96406 0.0333 0.0
C3152 C 0.88584 0.61239 0.78147 0.0
C3153 C 0.87762 0.5883 0.78122 0.0
C3154 C 0.87131 0.62513 0.77259 0.0
C3155 C 0.84814 0.61338 0.76304 0.0
C3156 C 0.84011 0.5889 0.76168 0.0
C3157 C 0.85492 0.57667 0.77093 0.0
C3158 C 0.88041 0.65127 0.77448 0.0
C3159 C 0.81561 0.57575 0.75134 0.0
C3160 C 0.80447 0.64805 0.76766 0.0
C3161 C 0.80204 0.6542 0.74487 0.0
C3162 C 0.81929 0.6346 0.77368 0.0
C3163 C 0.8318 0.62692 0.75641 0.0
C3164 C 0.82895 0.63252 0.73316 0.0
C3165 C 0.81419 0.64629 0.7277 0.0
C3166 C 0.82204 0.62918 0.79875 0.0
C3167 C 0.84176 0.62429 0.71422 0.0
H3168 H 0.90338 0.62144 0.78941 0.0
H3169 H 0.84855 0.55799 0.77049 0.0
H3170 H 0.87692 0.65687 0.75701 0.0
H3171 H 0.87138 0.65989 0.78708 0.0
H3172 H 0.89922 0.65752 0.78077 0.0
H3173 H 0.81276 0.55656 0.74941 0.0
H3174 H 0.80362 0.58061 0.76303 0.0
H3175 H 0.8111 0.58052 0.73367 0.0
H3176 H 0.79541 0.65453 0.78108 0.0
H3177 H 0.81227 0.65104 0.71007 0.0
H3178 H 0.84022 0.63668 0.80715 0.0
H3179 H 0.81784 0.61005 0.79854 0.0
H3180 H 0.81083 0.63625 0.80996 0.0
H3181 H 0.86057 0.63203 0.7195 0.0
H3182 H 0.83669 0.62911 0.6967 0.0
H3183 H 0.83848 0.60507 0.71227 0.0
C3184 C 0.83317 0.65198 0.04119 0.0
C3185 C 0.83892 0.67566 0.03852 0.0
C3186 C 0.85012 0.6401 0.04434 0.0
C3187 C 0.87361 0.65216 0.04519 0.0
C3188 C 0.87967 0.67626 0.04322 0.0
C3189 C 0.86224 0.6877 0.03974 0.0
C3190 C 0.84276 0.6144 0.04614 0.0
C3191 C 0.90452 0.68983 0.04434 0.0
C3192 C 0.9161 0.62164 0.07156 0.0
C3193 C 0.92105 0.60957 0.05113 0.0
C3194 C 0.90144 0.6363 0.06992 0.0
C3195 C 0.89151 0.63911 0.04729 0.0
C3196 C 0.89714 0.62766 0.02661 0.0
C3197 C 0.91174 0.61303 0.02878 0.0
C3198 C 0.89586 0.64806 0.09242 0.0
C3199 C 0.88711 0.63023 1.00213 0.0
H3200 H 0.81523 0.64242 0.0402 0.0
H3201 H 0.86686 0.70597 0.0377 0.0
H3202 H 0.84793 0.60435 0.03118 0.0
H3203 H 0.85153 0.61105 0.06283 0.0
H3204 H 0.82385 0.60769 0.04575 0.0
H3205 H 0.90652 0.7087 0.04394 0.0
H3206 H 0.9148 0.68785 0.06078 0.0
H3207 H 0.91182 0.68279 0.02909 0.0
H3208 H 0.92306 0.61898 0.08891 0.0
H3209 H 0.91578 0.60412 0.01289 0.0
H3210 H 0.87746 0.64055 0.09403 0.0
H3211 H 0.8985 0.66696 0.09184 0.0
H3212 H 0.90657 0.6459 0.10852 0.0
H3213 H 0.86818 0.62238 0.99939 0.0
H3214 H 0.89452 0.62164 0.98788 0.0
H3215 H 0.8902 0.64894 1.00036 0.0
C3216 C 0.18944 0.12563 0.80634 0.0
C3217 C 0.16906 0.12678 0.8154 0.0
C3218 C 0.20664 0.14589 0.80468 0.0
C3219 C 0.20368 0.16801 0.81255 0.0
C3220 C 0.18372 0.16935 0.82283 0.0
C3221 C 0.16658 0.14875 0.82398 0.0
C3222 C 0.22743 0.14359 0.7933 0.0
C3223 C 0.18007 0.1926 0.83176 0.0
C3224 C 0.25554 0.22155 0.81862 0.0
C3225 C 0.25095 0.23039 0.79759 0.0
C3226 C 0.24024 0.20137 0.82394 0.0
C3227 C 0.22018 0.18956 0.80762 0.0
C3228 C 0.21592 0.19812 0.78608 0.0
C3229 C 0.23119 0.21847 0.78147 0.0
C3230 C 0.24522 0.19297 0.84721 0.0
C3231 C 0.19508 0.18587 0.7679 0.0
H3232 H 0.19169 0.10883 0.79967 0.0
H3233 H 0.15104 0.14989 0.83118 0.0
H3234 H 0.22696 0.1504 0.77613 0.0
H3235 H 0.24352 0.15412 0.80474 0.0
H3236 H 0.22814 0.1252 0.78992 0.0
H3237 H 0.16511 0.19071 0.84171 0.0
H3238 H 0.19569 0.20381 0.84349 0.0
H3239 H 0.17703 0.20177 0.81652 0.0
H3240 H 0.27063 0.23087 0.83127 0.0
H3241 H 0.2276 0.22515 0.76512 0.0
H3242 H 0.24614 0.17468 0.84397 0.0
H3243 H 0.23098 0.19318 0.8578 0.0
H3244 H 0.26164 0.2039 0.85787 0.0
H3245 H 0.19502 0.16749 0.76248 0.0
H3246 H 0.19459 0.19444 0.75177 0.0
H3247 H 0.1791 0.18555 0.77577 0.0
C3248 C 0.37315 0.98445 0.32792 0.0
C3249 C 0.3963 0.98893 0.338 0.0
C3250 C 0.35811 0.96197 0.32456 0.0
C3251 C 0.36625 0.94351 0.33179 0.0
C3252 C 0.3891 0.94809 0.34343 0.0
C3253 C 0.40394 0.97078 0.3463 0.0
C3254 C 0.33392 0.95778 0.31193 0.0
C3255 C 0.3982 0.92884 0.3518 0.0
C3256 C 0.32133 0.88663 0.33332 0.0
C3257 C 0.32253 0.87344 0.31183 0.0
C3258 C 0.33577 0.90935 0.34033 0.0
C3259 C 0.35142 0.91919 0.32525 0.0
C3260 C 0.35238 0.90609 0.30334 0.0
C3261 C 0.33805 0.8833 0.297 0.0
C3262 C 0.33451 0.92272 0.36396 0.0
C3263 C 0.36849 0.91617 0.28652 0.0
H3264 H 0.36692 0.99833 0.3216 0.0
H3265 H 0.42171 0.97407 0.35426 0.0
H3266 H 0.33194 0.94689 0.29437 0.0
H3267 H 0.32116 0.94808 0.3222 0.0
H3268 H 0.32972 0.97428 0.30907 0.0
H3269 H 0.4153 0.93569 0.36301 0.0
H3270 H 0.38598 0.9184 0.3621 0.0
H3271 H 0.39989 0.91688 0.33621 0.0
H3272 H 0.30956 0.87894 0.34501 0.0
H3273 H 0.33898 0.87321 0.28036 0.0
H3274 H 0.32983 0.93899 0.36125 0.0
H3275 H 0.35165 0.92789 0.3751 0.0
H3276 H 0.32171 0.91239 0.37381 0.0
H3277 H 0.36694 0.90372 0.27006 0.0
H3278 H 0.38657 0.9211 0.29542 0.0
H3279 H 0.3648 0.93225 0.28148 0.0
C3280 C 0.58161 0.38356 0.5799 0.0
C3281 C 0.57703 0.37945 0.60293 0.0
C3282 C 0.57865 0.40386 0.57042 0.0
C3283 C 0.57033 0.42084 0.58377 0.0
C3284 C 0.56555 0.41662 0.60693 0.0
C3285 C 0.5691 0.39651 0.61612 0.0
C3286 C 0.58458 0.4072 0.54596 0.0
C3287 C 0.55632 0.43338 0.62213 0.0
C3288 C 0.58004 0.48506 0.57044 0.0
C3289 C 0.55906 0.48496 0.557 0.0
C3290 C 0.58409 0.4646 0.5785 0.0
C3291 C 0.56668 0.44286 0.57382 0.0
C3292 C 0.54546 0.44263 0.56024 0.0
C3293 C 0.54205 0.46326 0.55192 0.0
C3294 C 0.60722 0.46635 0.59225 0.0
C3295 C 0.52594 0.42053 0.55488 0.0
H3296 H 0.58772 0.37092 0.56921 0.0
H3297 H 0.56523 0.39398 0.63381 0.0
H3298 H 0.56903 0.40753 0.5341 0.0
H3299 H 0.59752 0.42425 0.5468 0.0
H3300 H 0.59155 0.39317 0.53796 0.0
H3301 H 0.55275 0.42761 0.63941 0.0
H3302 H 0.56888 0.45089 0.62565 0.0
H3303 H 0.54016 0.43523 0.61256 0.0
H3304 H 0.59357 0.50133 0.57468 0.0
H3305 H 0.52565 0.46245 0.54183 0.0
H3306 H 0.61468 0.45288 0.58395 0.0
H3307 H 0.60513 0.46299 0.61063 0.0
H3308 H 0.61959 0.48377 0.59313 0.0
H3309 H 0.53159 0.4064 0.54512 0.0
H3310 H 0.51056 0.4228 0.54412 0.0
H3311 H 0.52093 0.41476 0.57173 0.0
C3312 C 0.44235 0.7904 0.40527 0.0
C3313 C 0.43924 0.78255 0.42719 0.0
C3314 C 0.42354 0.79216 0.38932 0.0
C3315 C 0.4007 0.78522 0.39485 0.0
C3316 C 0.39742 0.77654 0.41663 0.0
C3317 C 0.41661 0.77572 0.43259 0.0
C3318 C 0.42823 0.80214 0.36681 0.0
C3319 C 0.37355 0.76818 0.42318 0.0
C3320 C 0.35314 0.80936 0.36581 0.0
C3321 C 0.34213 0.79179 0.34657 0.0
C3322 C 0.37225 0.80761 0.38128 0.0
C3323 C 0.38038 0.78743 0.37816 0.0
C3324 C 0.36898 0.76942 0.35904 0.0
C3325 C 0.3504 0.77197 0.34336 0.0
C3326 C 0.38403 0.82764 0.40081 0.0
C3327 C 0.3763 0.74726 0.35524 0.0
H3328 H 0.45968 0.79606 0.40093 0.0
H3329 H 0.41384 0.76959 0.44938 0.0
H3330 H 0.4187 0.78936 0.35111 0.0
H3331 H 0.42196 0.81792 0.36652 0.0
H3332 H 0.44685 0.80694 0.36506 0.0
H3333 H 0.37362 0.76038 0.43982 0.0
H3334 H 0.36578 0.78295 0.42553 0.0
H3335 H 0.3623 0.75498 0.40863 0.0
H3336 H 0.34716 0.82486 0.36843 0.0
H3337 H 0.34206 0.75819 0.32871 0.0
H3338 H 0.40259 0.8339 0.39916 0.0
H3339 H 0.3829 0.82171 0.41837 0.0
H3340 H 0.37632 0.84249 0.40042 0.0
H3341 H 0.39434 0.75126 0.35148 0.0
H3342 H 0.36516 0.73445 0.3403 0.0
H3343 H 0.37575 0.73907 0.37163 0.0
C3344 C 0.07333 0.73461 0.10818 0.0
C3345 C 0.07382 0.74903 0.09043 0.0
C3346 C 0.07044 0.71015 0.10258 0.0
C3347 C 0.06701 0.69917 0.0785 0.0
C3348 C 0.06677 0.71361 0.06054 0.0
C3349 C 0.07063 0.73811 0.06667 0.0
C3350 C 0.07171 0.69611 0.12259 0.0
C3351 C 0.06231 0.70315 0.03464 0.0
C3352 C 0.07902 0.63915 0.06089 0.0
C3353 C 0.05722 0.62307 0.05927 0.0
C3354 C 0.08252 0.66359 0.0676 0.0
C3355 C 0.06369 0.67279 0.07208 0.0
C3356 C 0.04157 0.65659 0.06998 0.0
C3357 C 0.03873 0.63224 0.0641 0.0
C3358 C 0.10657 0.67961 0.07019 0.0
C3359 C 0.02064 0.66502 0.07353 0.0
H3360 H 0.0761 0.74261 0.12661 0.0
H3361 H 0.07092 0.7488 0.05267 0.0
H3362 H 0.05528 0.68234 0.12147 0.0
H3363 H 0.08552 0.68722 0.12099 0.0
H3364 H 0.07523 0.70708 0.14031 0.0
H3365 H 0.06092 0.71622 0.02276 0.0
H3366 H 0.07646 0.69562 0.03018 0.0
H3367 H 0.04613 0.68874 0.03097 0.0
H3368 H 0.09356 0.63259 0.0574 0.0
H3369 H 0.0217 0.62029 0.06275 0.0
H3370 H 0.11109 0.69035 0.08806 0.0
H3371 H 0.10746 0.69175 0.05695 0.0
H3372 H 0.11963 0.66989 0.0677 0.0
H3373 H 0.02269 0.67442 0.09182 0.0
H3374 H 1.00453 0.65049 0.07054 0.0
H3375 H 0.01885 0.67753 0.06114 0.0
C3376 C 0.08485 0.29566 0.92821 0.0
C3377 C 0.06203 0.28462 0.91771 0.0
C3378 C 0.1033 0.29813 0.91476 0.0
C3379 C 0.09895 0.28943 0.89009 0.0
C3380 C 0.07601 0.27783 0.87952 0.0
C3381 C 0.05792 0.27556 0.89339 0.0
C3382 C 0.12742 0.31051 0.92686 0.0
C3383 C 0.07045 0.26826 0.85336 0.0
C3384 C 0.14141 0.31654 0.84956 0.0
C3385 C 0.15377 0.29993 0.84568 0.0
C3386 C 0.12378 0.31342 0.86403 0.0
C3387 C 0.11819 0.29319 0.87514 0.0
C3388 C 0.13072 0.27646 0.87153 0.0
C3389 C 0.14826 0.28 0.85691 0.0
C3390 C 0.11101 0.33179 0.86732 0.0
C3391 C 0.12543 0.25463 0.88294 0.0
H3392 H 0.08829 0.30276 0.94694 0.0
H3393 H 0.04041 0.26703 0.88501 0.0
H3394 H 0.13905 0.29929 0.92374 0.0
H3395 H 0.13414 0.32663 0.91919 0.0
H3396 H 0.12815 0.31531 0.94632 0.0
H3397 H 0.05193 0.2589 0.84798 0.0
H3398 H 0.07503 0.28272 0.84281 0.0
H3399 H 0.08086 0.25611 0.84876 0.0
H3400 H 0.14566 0.33223 0.84144 0.0
H3401 H 0.15737 0.26685 0.85393 0.0
H3402 H 0.11267 0.33862 0.88647 0.0
H3403 H 0.09239 0.32398 0.86087 0.0
H3404 H 0.1175 0.34662 0.85769 0.0
H3405 H 0.12696 0.25929 0.90249 0.0
H3406 H 0.13711 0.24361 0.879 0.0
H3407 H 0.10741 0.24417 0.87654 0.0
C3408 C 0.57206 0.77813 0.92795 0.0
C3409 C 0.55882 0.77741 0.9061 0.0
C3410 C 0.56978 0.75825 0.93923 0.0
C3411 C 0.55349 0.73702 0.92868 0.0
C3412 C 0.54103 0.73581 0.9059 0.0
C3413 C 0.5439 0.75602 0.89482 0.0
C3414 C 0.58372 0.76047 0.96326 0.0
C3415 C 0.52346 0.71362 0.89397 0.0
C3416 C 0.55637 0.68274 0.95669 0.0
C3417 C 0.54038 0.68205 0.97287 0.0
C3418 C 0.56036 0.70002 0.94172 0.0
C3419 C 0.54802 0.71708 0.9427 0.0
C3420 C 0.53144 0.71612 0.9585 0.0
C3421 C 0.52792 0.6988 0.97337 0.0
C3422 C 0.57821 0.70033 0.92525 0.0
C3423 C 0.51781 0.73386 0.96023 0.0
H3424 H 0.58342 0.79469 0.93686 0.0
H3425 H 0.53325 0.75546 0.87821 0.0
H3426 H 0.57219 0.75931 0.97711 0.0
H3427 H 0.59189 0.74598 0.9638 0.0
H3428 H 0.59739 0.77728 0.9678 0.0
H3429 H 0.51757 0.71447 0.87514 0.0
H3430 H 0.53063 0.69847 0.89464 0.0
H3431 H 0.50828 0.71051 0.90358 0.0
H3432 H 0.56585 0.66974 0.95569 0.0
H3433 H 0.51577 0.69883 0.98591 0.0
H3434 H 0.59258 0.71649 0.93052 0.0
H3435 H 0.57063 0.70049 0.90679 0.0
H3436 H 0.58535 0.68508 0.92547 0.0
H3437 H 0.5296 0.75142 0.96711 0.0
H3438 H 0.50448 0.72984 0.97213 0.0
H3439 H 0.50924 0.73466 0.94237 0.0
C3440 C 0.10715 0.78402 0.73691 0.0
C3441 C 0.09725 0.7693 0.7153 0.0
C3442 C 0.13051 0.78683 0.74694 0.0
C3443 C 0.14464 0.77473 0.73524 0.0
C3444 C 0.13427 0.75915 0.71402 0.0
C3445 C 0.11112 0.75674 0.70448 0.0
C3446 C 0.14039 0.80356 0.7696 0.0
C3447 C 0.14797 0.74565 0.70061 0.0
C3448 C 0.21116 0.79895 0.74199 0.0
C3449 C 0.21939 0.7848 0.75681 0.0
C3450 C 0.18725 0.79635 0.73559 0.0
C3451 C 0.17044 0.7791 0.74402 0.0
C3452 C 0.17859 0.76497 0.75929 0.0
C3453 C 0.20268 0.76796 0.76545 0.0
C3454 C 0.17996 0.81195 0.71931 0.0
C3455 C 0.16177 0.74635 0.76893 0.0
H3456 H 0.09707 0.79424 0.74538 0.0
H3457 H 0.10399 0.74538 0.68775 0.0
H3458 H 0.14926 0.79517 0.78247 0.0
H3459 H 0.15344 0.81889 0.76577 0.0
H3460 H 0.12694 0.80975 0.77797 0.0
H3461 H 0.1372 0.73314 0.68525 0.0
H3462 H 0.16209 0.75792 0.69397 0.0
H3463 H 0.15605 0.73585 0.71259 0.0
H3464 H 0.2235 0.8122 0.73517 0.0
H3465 H 0.20841 0.75691 0.777 0.0
H3466 H 0.16818 0.82088 0.72751 0.0
H3467 H 0.17034 0.80128 0.70238 0.0
H3468 H 0.19487 0.82536 0.71524 0.0
H3469 H 0.14951 0.754 0.7779 0.0
H3470 H 0.17052 0.73777 0.78172 0.0
H3471 H 0.1515 0.73287 0.75408 0.0
C3472 C 0.07359 0.41431 0.39442 0.0
C3473 C 0.06359 0.39199 0.39978 0.0
C3474 C 0.072 0.43473 0.40859 0.0
C3475 C 0.05963 0.43294 0.42835 0.0
C3476 C 0.04905 0.4104 0.43339 0.0
C3477 C 0.05141 0.39042 0.41936 0.0
C3478 C 0.08398 0.45828 0.40271 0.0
C3479 C 0.03524 0.40731 0.45377 0.0
C3480 C 0.07068 0.48264 0.48085 0.0
C3481 C 0.05258 0.49273 0.47577 0.0
C3482 C 0.07367 0.46391 0.46522 0.0
C3483 C 0.05791 0.45441 0.44405 0.0
C3484 C 0.03968 0.46463 0.43877 0.0
C3485 C 0.03741 0.4837 0.45446 0.0
C3486 C 0.09362 0.45406 0.47155 0.0
C3487 C 0.02209 0.45494 0.41685 0.0
H3488 H 0.08318 0.41586 0.3795 0.0
H3489 H 0.04353 0.37341 0.4238 0.0
H3490 H 0.07136 0.46841 0.39946 0.0
H3491 H 0.09689 0.46831 0.41803 0.0
H3492 H 0.09283 0.45687 0.38682 0.0
H3493 H 0.02705 0.38866 0.45466 0.0
H3494 H 0.04655 0.41525 0.47081 0.0
H3495 H 0.02155 0.41643 0.45202 0.0
H3496 H 0.08265 0.48946 0.4971 0.0
H3497 H 0.02328 0.49116 0.45029 0.0
H3498 H 0.10361 0.45347 0.45646 0.0
H3499 H 0.08705 0.4359 0.47501 0.0
H3500 H 0.10541 0.46446 0.48753 0.0
H3501 H 0.03077 0.45472 0.40077 0.0
H3502 H 1.00937 0.46519 0.41477 0.0
H3503 H 0.01271 0.43664 0.41777 0.0
C3504 C 0.44526 0.27066 0.2062 0.0
C3505 C 0.46249 0.26371 0.21976 0.0
C3506 C 0.42498 0.27365 0.21511 0.0
C3507 C 0.42086 0.26938 0.23841 0.0
C3508 C 0.43799 0.26199 0.25213 0.0
C3509 C 0.45841 0.25948 0.24287 0.0
C3510 C 0.40797 0.28181 0.19951 0.0
C3511 C 0.43475 0.25672 0.27682 0.0
C3512 C 0.37806 0.29815 0.26892 0.0
C3513 C 0.35691 0.28053 0.26438 0.0
C3514 C 0.39866 0.29474 0.26094 0.0
C3515 C 0.39892 0.27293 0.24822 0.0
C3516 C 0.37774 0.25489 0.24408 0.0
C3517 C 0.35728 0.25892 0.25185 0.0
C3518 C 0.4202 0.31486 0.26574 0.0
C3519 C 0.37657 0.23116 0.23115 0.0
H3520 H 0.44781 0.27425 0.18844 0.0
H3521 H 0.47124 0.2542 0.25384 0.0
H3522 H 0.39087 0.26878 0.19657 0.0
H3523 H 0.40579 0.29836 0.20846 0.0
H3524 H 0.41348 0.28467 0.18196 0.0
H3525 H 0.44886 0.25029 0.28505 0.0
H3526 H 0.43402 0.27265 0.2883 0.0
H3527 H 0.41811 0.24338 0.27628 0.0
H3528 H 0.37848 0.31502 0.27834 0.0
H3529 H 0.34143 0.24492 0.24806 0.0
H3530 H 0.42579 0.31941 0.24867 0.0
H3531 H 0.43438 0.30979 0.27566 0.0
H3532 H 0.41763 0.33059 0.2761 0.0
H3533 H 0.37936 0.23249 0.21248 0.0
H3534 H 0.35972 0.2183 0.23113 0.0
H3535 H 0.39045 0.22449 0.23947 0.0
C3536 C 0.63339 0.56432 0.38334 0.0
C3537 C 0.61901 0.55302 0.36214 0.0
C3538 C 0.62527 0.56356 0.40553 0.0
C3539 C 0.60249 0.5503 0.4068 0.0
C3540 C 0.5881 0.53845 0.38541 0.0
C3541 C 0.59635 0.54036 0.3634 0.0
C3542 C 0.64095 0.57732 0.4276 0.0
C3543 C 0.56403 0.52343 0.38579 0.0
C3544 C 0.58834 0.53192 0.4668 0.0
C3545 C 0.57497 0.54665 0.47391 0.0
C3546 C 0.5972 0.53271 0.44495 0.0
C3547 C 0.59346 0.54931 0.43031 0.0
C3548 C 0.5806 0.56473 0.43798 0.0
C3549 C 0.57113 0.56286 0.45933 0.0
C3550 C 0.61004 0.51536 0.43722 0.0
C3551 C 0.57688 0.58333 0.42367 0.0
H3552 H 0.65089 0.57421 0.3825 0.0
H3553 H 0.58522 0.53135 0.34713 0.0
H3554 H 0.6326 0.58957 0.43673 0.0
H3555 H 0.64406 0.56542 0.44019 0.0
H3556 H 0.65784 0.58744 0.42358 0.0
H3557 H 0.55559 0.51406 0.36788 0.0
H3558 H 0.56453 0.51041 0.39793 0.0
H3559 H 0.55326 0.53434 0.39267 0.0
H3560 H 0.59124 0.5193 0.47796 0.0
H3561 H 0.56096 0.57441 0.46489 0.0
H3562 H 0.62779 0.5246 0.43482 0.0
H3563 H 0.60136 0.50501 0.4198 0.0
H3564 H 0.61103 0.50321 0.45025 0.0
H3565 H 0.59365 0.59395 0.41994 0.0
H3566 H 0.56811 0.59512 0.43296 0.0
H3567 H 0.56627 0.57513 0.40632 0.0
C3568 C 0.3104 0.91056 0.08459 0.0
C3569 C 0.29583 0.89279 0.06747 0.0
C3570 C 0.31728 0.90594 0.1073 0.0
C3571 C 0.30904 0.88317 0.11287 0.0
C3572 C 0.29293 0.86574 0.09618 0.0
C3573 C 0.28668 0.87072 0.0736 0.0
C3574 C 0.33441 0.92495 0.12472 0.0
C3575 C 0.28327 0.84139 0.10165 0.0
C3576 C 0.34313 0.85552 0.15386 0.0
C3577 C 0.33105 0.85489 0.17335 0.0
C3578 C 0.33726 0.8664 0.13473 0.0
C3579 C 0.31867 0.87659 0.13507 0.0
C3580 C 0.30737 0.87728 0.15537 0.0
C3581 C 0.31373 0.86642 0.17432 0.0
C3582 C 0.34991 0.86559 0.11347 0.0
C3583 C 0.2874 0.88784 0.15636 0.0
H3584 H 0.3175 0.92763 0.0798 0.0
H3585 H 0.27513 0.85708 0.06042 0.0
H3586 H 0.32903 0.92557 0.14264 0.0
H3587 H 0.35141 0.92117 0.12626 0.0
H3588 H 0.33654 0.94236 0.11907 0.0
H3589 H 0.26934 0.83058 0.08757 0.0
H3590 H 0.29722 0.8326 0.1034 0.0
H3591 H 0.27634 0.84207 0.11879 0.0
H3592 H 0.35669 0.84683 0.15325 0.0
H3593 H 0.30419 0.86577 0.18931 0.0
H3594 H 0.35492 0.88303 0.10784 0.0
H3595 H 0.33837 0.8534 0.09836 0.0
H3596 H 0.36563 0.85965 0.11717 0.0
H3597 H 0.29104 0.90463 0.14929 0.0
H3598 H 0.28336 0.89083 0.17474 0.0
H3599 H 0.27188 0.87585 0.14512 0.0
C3600 C 0.93765 0.56579 0.8898 0.0
C3601 C 0.9477 0.57601 0.8714 0.0
C3602 C 0.95137 0.56495 0.91083 0.0
C3603 C 0.97551 0.57511 0.91355 0.0
C3604 C 0.98543 0.58681 0.89558 0.0
C3605 C 0.97141 0.58677 0.87452 0.0
C3606 C 0.94024 0.55199 0.92947 0.0
C3607 C 1.01096 0.59847 0.89816 0.0
C3608 C 1.00742 0.58437 0.97594 0.0
C3609 C 0.01647 0.5651 0.97523 0.0
C3610 C 0.99475 0.58835 0.95573 0.0
C3611 C 0.99052 0.57229 0.93455 0.0
C3612 C 1.00013 0.55311 0.93357 0.0
C3613 C 0.01331 0.54991 0.95393 0.0
C3614 C 0.98539 0.60937 0.95724 0.0
C3615 C 0.99566 0.53542 0.91135 0.0
H3616 H 0.91934 0.55712 0.88713 0.0
H3617 H 0.9791 0.59461 0.86015 0.0
H3618 H 0.94677 0.53652 0.93109 0.0
H3619 H 0.94487 0.56323 0.94705 0.0
H3620 H 0.92117 0.54604 0.92514 0.0
H3621 H 0.01547 0.60905 0.88382 0.0
H3622 H 0.01692 0.60994 0.91556 0.0
H3623 H 0.02054 0.58505 0.89761 0.0
H3624 H 1.01001 0.59618 0.99246 0.0
H3625 H 0.0201 0.53488 0.95352 0.0
H3626 H 0.96631 0.60363 0.95536 0.0
H3627 H 0.99006 0.61929 0.9425 0.0
H3628 H 0.99197 0.62123 0.97437 0.0
H3629 H 0.97688 0.52704 0.90667 0.0
H3630 H 1.00455 0.52162 0.91347 0.0
H3631 H 1.00151 0.54417 0.89622 0.0
C3632 C 0.29767 0.24064 0.60207 0.0
C3633 C 0.2775 0.23645 0.58587 0.0
C3634 C 0.29826 0.24875 0.62641 0.0
C3635 C 0.27797 0.25193 0.63496 0.0
C3636 C 0.25743 0.24701 0.61869 0.0
C3637 C 0.25757 0.2398 0.59441 0.0
C3638 C 0.3207 0.25436 0.64289 0.0
C3639 C 0.23517 0.24918 0.62694 0.0
C3640 C 0.27476 0.25124 0.70125 0.0
C3641 C 0.27808 0.27489 0.71001 0.0
C3642 C 0.27426 0.24354 0.67695 0.0
C3643 C 0.27803 0.25995 0.66091 0.0
C3644 C 0.28147 0.28392 0.66969 0.0
C3645 C 0.28108 0.29105 0.69403 0.0
C3646 C 0.26967 0.21778 0.66845 0.0
C3647 C 0.28619 0.30213 0.65347 0.0
H3648 H 0.31318 0.23832 0.59558 0.0
H3649 H 0.24186 0.23644 0.58202 0.0
H3650 H 0.32518 0.2727 0.65183 0.0
H3651 H 0.31894 0.24311 0.65698 0.0
H3652 H 0.33513 0.25188 0.63341 0.0
H3653 H 0.22047 0.24376 0.61227 0.0
H3654 H 0.23101 0.23825 0.64107 0.0
H3655 H 0.23703 0.26747 0.63474 0.0
H3656 H 0.27245 0.23865 0.71351 0.0
H3657 H 0.28407 0.30938 0.70074 0.0
H3658 H 0.28484 0.21432 0.66111 0.0
H3659 H 0.25487 0.2119 0.65393 0.0
H3660 H 0.26587 0.20716 0.6829 0.0
H3661 H 0.30157 0.30122 0.64493 0.0
H3662 H 0.28918 0.32007 0.66307 0.0
H3663 H 0.27147 0.2987 0.63906 0.0
C3664 C 0.57887 0.56048 0.22601 0.0
C3665 C 0.60069 0.55824 0.23454 0.0
C3666 C 0.57184 0.55977 0.20163 0.0
C3667 C 0.58698 0.55697 0.18503 0.0
C3668 C 0.60896 0.55449 0.19341 0.0
C3669 C 0.61549 0.55502 0.21797 0.0
C3670 C 0.54813 0.56211 0.19365 0.0
C3671 C 0.62573 0.55159 0.17643 0.0
C3672 C 0.56036 0.53461 0.12014 0.0
C3673 C 0.56373 0.55524 0.10996 0.0
C3674 C 0.56801 0.53492 0.1443 0.0
C3675 C 0.57956 0.55637 0.15895 0.0
C3676 C 0.58314 0.57727 0.14882 0.0
C3677 C 0.57513 0.57648 0.12456 0.0
C3678 C 0.5635 0.5122 0.15421 0.0
C3679 C 0.59548 0.60053 0.16365 0.0
H3680 H 0.56713 0.56285 0.23846 0.0
H3681 H 0.63241 0.55342 0.22423 0.0
H3682 H 0.54958 0.57763 0.18455 0.0
H3683 H 0.53821 0.54666 0.18066 0.0
H3684 H 0.53825 0.56384 0.20869 0.0
H3685 H 0.64214 0.5499 0.18563 0.0
H3686 H 0.61793 0.53588 0.16294 0.0
H3687 H 0.62963 0.5668 0.16678 0.0
H3688 H 0.55163 0.51803 0.10919 0.0
H3689 H 0.57803 0.59251 0.11697 0.0
H3690 H 0.55255 0.51268 0.16847 0.0
H3691 H 0.57995 0.50969 0.16228 0.0
H3692 H 0.55479 0.49693 0.14041 0.0
H3693 H 0.58571 0.6041 0.1783 0.0
H3694 H 0.59763 0.6151 0.15305 0.0
H3695 H 0.61273 0.60014 0.1719 0.0
C3696 C 0.2757 0.90304 0.92824 0.0
C3697 C 0.26465 0.89259 0.94598 0.0
C3698 C 0.27718 0.88945 0.90709 0.0
C3699 C 0.2669 0.86504 0.90361 0.0
C3700 C 0.25457 0.85469 0.92097 0.0
C3701 C 0.25387 0.86859 0.94212 0.0
C3702 C 0.29073 0.901 0.88905 0.0
C3703 C 0.24286 0.82885 0.91759 0.0
C3704 C 0.2581 0.8338 0.84061 0.0
C3705 C 0.27684 0.82422 0.84097 0.0
C3706 C 0.2542 0.84651 0.8611 0.0
C3707 C 0.2698 0.85018 0.88224 0.0
C3708 C 0.28846 0.84004 0.88286 0.0
C3709 C 0.2916 0.82686 0.86219 0.0
C3710 C 0.23377 0.8565 0.85994 0.0
C3711 C 0.30563 0.84391 0.90506 0.0
H3712 H 0.28434 0.92157 0.93146 0.0
H3713 H 0.24533 0.86058 0.95596 0.0
H3714 H 0.30582 0.89406 0.88728 0.0
H3715 H 0.27999 0.89692 0.87136 0.0
H3716 H 0.29696 0.92024 0.89407 0.0
H3717 H 0.23227 0.82395 0.93182 0.0
H3718 H 0.23162 0.82329 0.90017 0.0
H3719 H 0.256 0.81901 0.91756 0.0
H3720 H 0.24662 0.83163 0.82414 0.0
H3721 H 0.30624 0.81966 0.86231 0.0
H3722 H 0.23982 0.87581 0.86262 0.0
H3723 H 0.22353 0.85147 0.87437 0.0
H3724 H 0.22232 0.8505 0.84264 0.0
H3725 H 0.31424 0.86283 0.91022 0.0
H3726 H 0.31903 0.83461 0.90265 0.0
H3727 H 0.29667 0.83791 0.92001 0.0
C3728 C 0.94286 0.5014 0.74756 0.0
C3729 C 0.93727 0.52253 0.75218 0.0
C3730 C 0.9485 0.49423 0.7254 0.0
C3731 C 0.9491 0.50891 0.70778 0.0
C3732 C 0.94142 0.52924 0.71167 0.0
C3733 C 0.93536 0.53574 0.73392 0.0
C3734 C 0.95603 0.47216 0.72178 0.0
C3735 C 0.94187 0.54534 0.69329 0.0
C3736 C 0.99878 0.51182 0.67282 0.0
C3737 C 0.98783 0.49853 0.65096 0.0
C3738 C 0.98621 0.51549 0.69125 0.0
C3739 C 0.96205 0.50552 0.68779 0.0
C3740 C 0.95082 0.49195 0.66581 0.0
C3741 C 0.96389 0.48869 0.64754 0.0
C3742 C 0.99884 0.53016 0.71444 0.0
C3743 C 0.92513 0.48093 0.66166 0.0
H3744 H 0.94392 0.49102 0.76169 0.0
H3745 H 0.93094 0.55206 0.7376 0.0
H3746 H 0.94903 0.46226 0.70377 0.0
H3747 H 0.97511 0.47673 0.72342 0.0
H3748 H 0.95046 0.46068 0.73514 0.0
H3749 H 0.93155 0.5578 0.69714 0.0
H3750 H 0.95993 0.5555 0.69313 0.0
H3751 H 0.93525 0.5353 0.67528 0.0
H3752 H 0.0172 0.51991 0.67532 0.0
H3753 H 0.95542 0.47842 0.63059 0.0
H3754 H 0.9966 0.51959 0.72909 0.0
H3755 H 0.99155 0.54504 0.71873 0.0
H3756 H 0.01758 0.53714 0.71396 0.0
H3757 H 0.92026 0.4691 0.67486 0.0
H3758 H 0.91906 0.47084 0.64354 0.0
H3759 H 0.91596 0.4946 0.66415 0.0
C3760 C 0.28044 0.2384 0.45428 0.0
C3761 C 0.2893 0.21969 0.4588 0.0
C3762 C 0.28132 0.24683 0.43228 0.0
C3763 C 0.2919 0.2368 0.41441 0.0
C3764 C 0.30101 0.21799 0.41899 0.0
C3765 C 0.29932 0.2095 0.4409 0.0
C3766 C 0.27081 0.26645 0.42811 0.0
C3767 C 0.31292 0.20704 0.40087 0.0
C3768 C 0.27774 0.24457 0.34943 0.0
C3769 C 0.29585 0.2638 0.34696 0.0
C3770 C 0.27617 0.23577 0.37118 0.0
C3771 C 0.29343 0.24595 0.39101 0.0
C3772 C 0.31207 0.265 0.38844 0.0
C3773 C 0.31288 0.27387 0.36666 0.0
C3774 C 0.25568 0.21586 0.37309 0.0
C3775 C 0.33121 0.27609 0.40876 0.0
H3776 H 0.27259 0.24636 0.46792 0.0
H3777 H 0.3064 0.19517 0.44422 0.0
H3778 H 0.28429 0.28184 0.42511 0.0
H3779 H 0.25782 0.26109 0.41188 0.0
H3780 H 0.26239 0.27175 0.4433 0.0
H3781 H 0.31956 0.19293 0.40727 0.0
H3782 H 0.30083 0.19968 0.38419 0.0
H3783 H 0.32754 0.22053 0.39647 0.0
H3784 H 0.2643 0.23678 0.33451 0.0
H3785 H 0.32697 0.28868 0.36502 0.0
H3786 H 0.24623 0.22127 0.3873 0.0
H3787 H 0.26153 0.20082 0.3781 0.0
H3788 H 0.24357 0.21001 0.35621 0.0
H3789 H 0.32421 0.28383 0.42385 0.0
H3790 H 0.34507 0.28995 0.40364 0.0
H3791 H 0.33887 0.26264 0.41515 0.0
C3792 C 0.3346 0.60724 0.56538 0.0
C3793 C 0.34152 0.62747 0.55499 0.0
C3794 C 0.34724 0.59068 0.56465 0.0
C3795 C 0.36706 0.59444 0.55309 0.0
C3796 C 0.37493 0.61557 0.544 0.0
C3797 C 0.36212 0.63187 0.54517 0.0
C3798 C 0.33863 0.56859 0.575 0.0
C3799 C 0.39608 0.62031 0.53163 0.0
C3800 C 0.41099 0.55986 0.55651 0.0
C3801 C 0.40471 0.5452 0.53449 0.0
C3802 C 0.39796 0.57494 0.56365 0.0
C3803 C 0.3784 0.57559 0.54826 0.0
C3804 C 0.37117 0.55984 0.52671 0.0
C3805 C 0.38435 0.54474 0.52015 0.0
C3806 C 0.40602 0.59121 0.58694 0.0
C3807 C 0.35034 0.55995 0.50983 0.0
H3808 H 0.31876 0.6038 0.57314 0.0
H3809 H 0.36766 0.64756 0.53726 0.0
H3810 H 0.33109 0.5538 0.5604 0.0
H3811 H 0.35305 0.56444 0.58558 0.0
H3812 H 0.32524 0.56989 0.58648 0.0
H3813 H 0.40083 0.63827 0.52711 0.0
H3814 H 0.41096 0.61782 0.54299 0.0
H3815 H 0.39288 0.60775 0.51498 0.0
H3816 H 0.42681 0.56053 0.56765 0.0
H3817 H 0.37916 0.53313 0.50335 0.0
H3818 H 0.39127 0.59204 0.59657 0.0
H3819 H 0.41409 0.60907 0.58345 0.0
H3820 H 0.41887 0.58577 0.5986 0.0
H3821 H 0.33519 0.55873 0.51934 0.0
H3822 H 0.34595 0.54536 0.49477 0.0
H3823 H 0.35371 0.57663 0.50252 0.0
C3824 C 0.88933 0.92017 0.5284 0.0
C3825 C 0.87236 0.92367 0.54214 0.0
C3826 C 0.91007 0.93763 0.52928 0.0
C3827 C 0.91425 0.95906 0.54459 0.0
C3828 C 0.89726 0.96268 0.55861 0.0
C3829 C 0.87645 0.94506 0.55705 0.0
C3830 C 0.92752 0.93313 0.51374 0.0
C3831 C 0.90117 0.98507 0.57548 0.0
C3832 C 0.97755 0.99254 0.56164 0.0
C3833 C 0.9802 0.00935 0.54631 0.0
C3834 C 0.95603 0.97673 0.56194 0.0
C3835 C 0.93664 0.97738 0.5462 0.0
C3836 C 0.93905 0.99473 0.53113 0.0
C3837 C 0.96075 0.01063 0.53152 0.0
C3838 C 0.95422 0.95886 0.57861 0.0
C3839 C 0.91894 0.99585 0.51384 0.0
H3840 H 0.88628 0.90383 0.51664 0.0
H3841 H 0.8635 0.94794 0.56779 0.0
H3842 H 0.9316 0.94694 0.50234 0.0
H3843 H 0.9438 0.93376 0.52495 0.0
H3844 H 0.92133 0.91591 0.50216 0.0
H3845 H 0.88628 0.98523 0.58515 0.0
H3846 H 0.91672 0.9876 0.58866 0.0
H3847 H 0.90438 1.00014 0.5656 0.0
H3848 H 0.99245 0.99148 0.57324 0.0
H3849 H 0.96268 0.02342 0.51948 0.0
H3850 H 0.95019 0.94114 0.56823 0.0
H3851 H 0.93995 0.95918 0.58913 0.0
H3852 H 0.9704 0.96184 0.59104 0.0
H3853 H 0.91334 0.97972 0.50059 0.0
H3854 H 0.92328 0.0111 0.50427 0.0
H3855 H 0.90409 0.99677 0.52327 0.0
C3856 C 0.89828 0.0893 0.26115 0.0
C3857 C 0.92008 0.09393 0.27467 0.0
C3858 C 0.88582 0.10604 0.26162 0.0
C3859 C 0.89519 0.12796 0.2762 0.0
C3860 C 0.91751 0.13304 0.28934 0.0
C3861 C 0.92975 0.11602 0.28831 0.0
C3862 C 0.86224 0.09994 0.24706 0.0
C3863 C 0.92809 0.15609 0.30524 0.0
C3864 C 0.86734 0.17673 0.26516 0.0
C3865 C 0.85171 0.17478 0.28169 0.0
C3866 C 0.88186 0.1619 0.26338 0.0
C3867 C 0.88098 0.14489 0.27871 0.0
C3868 C 0.86564 0.1433 0.29584 0.0
C3869 C 0.85113 0.15811 0.29701 0.0
C3870 C 0.89769 0.16401 0.24467 0.0
C3871 C 0.86431 0.12567 0.31275 0.0
H3872 H 0.89069 0.07233 0.25047 0.0
H3873 H 0.94652 0.11972 0.29891 0.0
H3874 H 0.84895 0.09915 0.25905 0.0
H3875 H 0.86107 0.11365 0.23596 0.0
H3876 H 0.85814 0.0829 0.23528 0.0
H3877 H 0.94614 0.15798 0.31306 0.0
H3878 H 0.92783 0.17072 0.29517 0.0
H3879 H 0.91777 0.15769 0.31991 0.0
H3880 H 0.86773 0.18943 0.25313 0.0
H3881 H 0.83931 0.15671 0.31001 0.0
H3882 H 0.89279 0.14763 0.23179 0.0
H3883 H 0.9157 0.16653 0.25294 0.0
H3884 H 0.89706 0.17874 0.23481 0.0
H3885 H 0.85828 0.10777 0.30263 0.0
H3886 H 0.85241 0.12748 0.32586 0.0
H3887 H 0.88166 0.12764 0.32252 0.0
C3888 C 0.70575 0.14779 0.06336 0.0
C3889 C 0.72204 0.13846 0.05329 0.0
C3890 C 0.68277 0.13442 0.06143 0.0
C3891 C 0.67595 0.11156 0.04847 0.0
C3892 C 0.69244 0.10204 0.03846 0.0
C3893 C 0.71537 0.11552 0.04129 0.0
C3894 C 0.66567 0.14497 0.07264 0.0
C3895 C 0.68569 0.07805 0.02384 0.0
C3896 C 0.61766 0.07034 0.05237 0.0
C3897 C 0.6041 0.07464 0.033 0.0
C3898 C 0.64118 0.08239 0.05785 0.0
C3899 C 0.65123 0.09855 0.04323 0.0
C3900 C 0.63766 0.10235 0.02327 0.0
C3901 C 0.61425 0.09051 0.01855 0.0
C3902 C 0.65513 0.07832 0.07955 0.0
C3903 C 0.6478 0.11897 0.00686 0.0
H3904 H 0.711 0.16548 0.07282 0.0
H3905 H 0.72798 0.10838 0.03332 0.0
H3906 H 0.65319 0.14794 0.05856 0.0
H3907 H 0.65572 0.13281 0.08335 0.0
H3908 H 0.67418 0.16187 0.08423 0.0
H3909 H 0.70086 0.07262 0.01865 0.0
H3910 H 0.67605 0.06494 0.03384 0.0
H3911 H 0.67409 0.0779 0.00745 0.0
H3912 H 0.60973 0.05824 0.06367 0.0
H3913 H 0.60381 0.09376 0.00348 0.0
H3914 H 0.66214 0.09492 0.09199 0.0
H3915 H 0.67004 0.0724 0.07444 0.0
H3916 H 0.64477 0.06512 0.08902 0.0
H3917 H 0.65637 0.13653 0.01703 0.0
H3918 H 0.63456 0.12068 0.99275 0.0
H3919 H 0.66113 0.11274 0.99832 0.0
C3920 C 0.22675 0.50273 0.25301 0.0
C3921 C 0.20566 0.49507 0.2615 0.0
C3922 C 0.24308 0.48995 0.25432 0.0
C3923 C 0.23819 0.46917 0.26449 0.0
C3924 C 0.21621 0.46042 0.27129 0.0
C3925 C 0.20016 0.47344 0.26961 0.0
C3926 C 0.26614 0.49954 0.24638 0.0
C3927 C 0.21026 0.43823 0.28209 0.0
C3928 C 0.27481 0.42672 0.2631 0.0
C3929 C 0.28747 0.43286 0.28601 0.0
C3930 C 0.25958 0.43919 0.25524 0.0
C3931 C 0.25672 0.45802 0.27079 0.0
C3932 C 0.27027 0.46501 0.29348 0.0
C3933 C 0.28557 0.45242 0.30075 0.0
C3934 C 0.2457 0.43143 0.2308 0.0
C3935 C 0.26778 0.48508 0.31057 0.0
H3936 H 0.23104 0.51936 0.24654 0.0
H3937 H 0.18383 0.46731 0.27603 0.0
H3938 H 0.2794 0.50691 0.2622 0.0
H3939 H 0.27147 0.48549 0.23606 0.0
H3940 H 0.26586 0.51352 0.23536 0.0
H3941 H 0.19176 0.43264 0.28427 0.0
H3942 H 0.21439 0.4239 0.27091 0.0
H3943 H 0.22075 0.44097 0.29981 0.0
H3944 H 0.27596 0.41148 0.25164 0.0
H3945 H 0.29562 0.45753 0.31828 0.0
H3946 H 0.24551 0.44664 0.2216 0.0
H3947 H 0.22759 0.42257 0.23242 0.0
H3948 H 0.25254 0.41912 0.2196 0.0
H3949 H 0.26995 0.50095 0.30195 0.0
H3950 H 0.28052 0.48913 0.32697 0.0
H3951 H 0.25022 0.48076 0.31569 0.0
C3952 C 0.22641 0.41233 0.03597 0.0
C3953 C 0.2491 0.42395 0.04639 0.0
C3954 C 0.20941 0.4244 0.0337 0.0
C3955 C 0.21525 0.4487 0.04195 0.0
C3956 C 0.23793 0.4603 0.0532 0.0
C3957 C 0.25449 0.44781 0.05532 0.0
C3958 C 0.1854 0.41131 0.0218 0.0
C3959 C 0.24496 0.48615 0.06226 0.0
C3960 C 0.18164 0.48669 0.01383 0.0
C3961 C 0.16795 0.49092 0.03122 0.0
C3962 C 0.19669 0.47263 0.0169 0.0
C3963 C 0.19811 0.46234 0.03783 0.0
C3964 C 0.18401 0.4661 0.05524 0.0
C3965 C 0.16919 0.48035 0.05177 0.0
C3966 C 0.21139 0.46913 0.99787 0.0
C3967 C 0.18494 0.45545 0.07779 0.0
H3968 H 0.22206 0.39392 0.02898 0.0
H3969 H 0.27194 0.457 0.06343 0.0
H3970 H 0.17251 0.41452 0.03318 0.0
H3971 H 0.18167 0.41773 0.00484 0.0
H3972 H 0.18313 0.39222 0.01799 0.0
H3973 H 0.26293 0.49236 0.07163 0.0
H3974 H 0.24353 0.49594 0.04717 0.0
H3975 H 0.23324 0.4904 0.0746 0.0
H3976 H 0.18055 0.49434 0.99769 0.0
H3977 H 0.15894 0.48365 0.06548 0.0
H3978 H 0.20842 0.45024 0.99169 0.0
H3979 H 0.22988 0.4763 0.00527 0.0
H3980 H 0.20776 0.47772 0.98231 0.0
H3981 H 0.18213 0.43634 0.07351 0.0
H3982 H 0.17186 0.4588 0.08888 0.0
H3983 H 0.20226 0.46273 0.08842 0.0
C3984 C 0.89752 0.96667 0.2659 0.0
C3985 C 0.91874 0.96967 0.28007 0.0
C3986 C 0.87942 0.94618 0.26427 0.0
C3987 C 0.88238 0.92838 0.27745 0.0
C3988 C 0.90368 0.9314 0.29193 0.0
C3989 C 0.92162 0.95186 0.29291 0.0
C3990 C 0.85717 0.9435 0.24828 0.0
C3991 C 0.90749 0.91302 0.30654 0.0
C3992 C 0.82994 0.88347 0.29091 0.0
C3993 C 0.82964 0.86364 0.27513 0.0
C3994 C 0.84675 0.90478 0.29161 0.0
C3995 C 0.86342 0.90641 0.27585 0.0
C3996 C 0.86255 0.88669 0.25922 0.0
C3997 C 0.84584 0.86554 0.2592 0.0
C3998 C 0.84724 0.92528 0.30983 0.0
C3999 C 0.87968 0.88773 0.24182 0.0
H4000 H 0.89512 0.98026 0.25584 0.0
H4001 H 0.93784 0.95407 0.30408 0.0
H4002 H 0.85359 0.92775 0.2347 0.0
H4003 H 0.84262 0.941 0.25877 0.0
H4004 H 0.85763 0.95886 0.23908 0.0
H4005 H 0.92478 0.91829 0.31744 0.0
H4006 H 0.8942 0.90946 0.31852 0.0
H4007 H 0.9057 0.89646 0.2947 0.0
H4008 H 0.81762 0.88211 0.30341 0.0
H4009 H 0.84567 0.85034 0.24685 0.0
H4010 H 0.84684 0.9407 0.30106 0.0
H4011 H 0.86351 0.93 0.32241 0.0
H4012 H 0.83253 0.92151 0.32011 0.0
H4013 H 0.88003 0.90256 0.23188 0.0
H4014 H 0.87563 0.87142 0.22888 0.0
H4015 H 0.89723 0.8907 0.25157 0.0
C4016 C 0.71577 0.11768 0.78297 0.0
C4017 C 0.69251 0.11505 0.78541 0.0
C4018 C 0.73086 0.13975 0.78314 0.0
C4019 C 0.72238 0.15959 0.7854 0.0
C4020 C 0.6988 0.157 0.78728 0.0
C4021 C 0.68418 0.13475 0.78751 0.0
C4022 C 0.75601 0.14193 0.78172 0.0
C4023 C 0.6891 0.17779 0.78942 0.0
C4024 C 0.76052 0.21974 0.81116 0.0
C4025 C 0.76375 0.23 0.79066 0.0
C4026 C 0.74824 0.1963 0.8096 0.0
C4027 C 0.7383 0.18323 0.78701 0.0
C4028 C 0.74228 0.19337 0.76619 0.0
C4029 C 0.75523 0.21673 0.76828 0.0
C4030 C 0.74495 0.18592 0.83218 0.0
C4031 C 0.73168 0.18004 0.74184 0.0
H4032 H 0.72239 0.10253 0.78161 0.0
H4033 H 0.66621 0.13279 0.78931 0.0
H4034 H 0.76156 0.1514 0.76693 0.0
H4035 H 0.76663 0.15226 0.79836 0.0
H4036 H 0.75966 0.12469 0.77904 0.0
H4037 H 0.67011 0.17263 0.78909 0.0
H4038 H 0.6971 0.18955 0.8063 0.0
H4039 H 0.69327 0.1879 0.7747 0.0
H4040 H 0.76706 0.23028 0.82845 0.0
H4041 H 0.75751 0.225 0.75254 0.0
H4042 H 0.74791 0.16837 0.83044 0.0
H4043 H 0.72695 0.18384 0.83566 0.0
H4044 H 0.75675 0.19708 0.84777 0.0
H4045 H 0.73547 0.16289 0.73944 0.0
H4046 H 0.73801 0.18975 0.72743 0.0
H4047 H 0.71268 0.17662 0.74002 0.0
loop_
_geom_bond_atom_site_label_1
_geom_bond_atom_site_label_2
_geom_bond_distance
_geom_bond_site_symmetry_2
_ccdc_geom_bond_type
Co0 O1 2.216 . S
Co0 O2 2.091 . S
Co0 O4 2.004 . S
Co0 O10 2.021 . S
Co0 O12 2.137 . S
Co0 O13 2.244 . S
O1 Co0 2.216 . S
O1 C8 1.247 . S
O2 Co0 2.091 . S
O2 C8 1.261 . S
C3 O12 1.247 . S
C3 O13 1.272 . S
O4 Co0 2.004 . S
O4 C9 1.259 1_455 S
Co5 O6 2.061 1_455 S
Co5 O11 2.052 . S
Co5 O13 2.135 . S
O6 Co5 2.061 1_655 S
O6 C9 1.235 . S
C7 O10 1.238 . S
C7 O11 1.241 . S
C8 O1 1.247 . S
C8 O2 1.261 . S
C9 O4 1.259 1_655 S
C9 O6 1.235 . S
O10 Co0 2.021 . S
O10 C7 1.238 . S
O11 Co5 2.052 . S
O11 C7 1.241 . S
O12 Co0 2.137 . S
O12 C3 1.247 . S
O13 Co0 2.244 . S
O13 C3 1.272 . S
O13 Co5 2.135 . S
Co14 O15 2.216 1_455 S
Co14 O16 2.109 . S
Co14 O18 2.004 . S
Co14 O24 2.021 . S
Co14 O26 2.137 . S
Co14 O27 2.244 . S
O15 Co14 2.216 1_655 S
O15 C22 1.247 . S
O16 Co14 2.109 . S
O16 C22 1.241 1_455 S
C17 O26 1.247 . S
C17 O27 1.272 . S
O18 Co14 2.004 . S
O18 C23 1.259 . S
Co19 O20 2.061 . S
Co19 O25 2.052 . S
Co19 O27 2.135 . S
O20 Co19 2.061 . S
O20 C23 1.235 . S
C21 O24 1.238 . S
C21 O25 1.241 . S
C22 O15 1.247 . S
C22 O16 1.241 1_655 S
C23 O18 1.259 . S
C23 O20 1.235 . S
O24 Co14 2.021 . S
O24 C21 1.238 . S
O25 Co19 2.052 . S
O25 C21 1.241 . S
O26 Co14 2.137 . S
O26 C17 1.247 . S
O27 Co14 2.244 . S
O27 C17 1.272 . S
O27 Co19 2.135 . S
Co28 O29 2.216 . S
Co28 O30 2.091 . S
Co28 O32 2.004 . S
Co28 O38 2.021 . S
Co28 O40 2.137 . S
Co28 O41 2.244 . S
O29 Co28 2.216 . S
O29 C36 1.247 . S
O30 Co28 2.091 . S
O30 C36 1.261 . S
C31 O40 1.247 . S
C31 O41 1.272 . S
O32 Co28 2.004 . S
O32 C37 1.259 . S
Co33 O34 2.061 . S
Co33 O39 2.052 . S
Co33 O41 2.135 . S
O34 Co33 2.061 . S
O34 C37 1.235 . S
C35 O38 1.238 . S
C35 O39 1.241 . S
C36 O29 1.247 . S
C36 O30 1.261 . S
C37 O32 1.259 . S
C37 O34 1.235 . S
O38 Co28 2.021 . S
O38 C35 1.238 . S
O39 Co33 2.052 . S
O39 C35 1.241 . S
O40 Co28 2.137 . S
O40 C31 1.247 . S
O41 Co28 2.244 . S
O41 C31 1.272 . S
O41 Co33 2.135 . S
Co42 O43 2.216 . S
Co42 O44 2.091 . S
Co42 O46 2.004 . S
Co42 O52 2.021 . S
Co42 O54 2.137 . S
Co42 O55 2.244 . S
O43 Co42 2.216 . S
O43 C50 1.247 . S
O44 Co42 2.091 . S
O44 C50 1.261 . S
C45 O54 1.247 . S
C45 O55 1.272 . S
O46 Co42 2.004 . S
O46 C51 1.259 . S
Co47 O48 2.061 . S
Co47 O53 2.052 . S
Co47 O55 2.135 . S
O48 Co47 2.061 . S
O48 C51 1.235 . S
C49 O52 1.238 . S
C49 O53 1.241 . S
C50 O43 1.247 . S
C50 O44 1.261 . S
C51 O46 1.259 . S
C51 O48 1.235 . S
O52 Co42 2.021 . S
O52 C49 1.238 . S
O53 Co47 2.052 . S
O53 C49 1.241 . S
O54 Co42 2.137 . S
O54 C45 1.247 . S
O55 Co42 2.244 . S
O55 C45 1.272 . S
O55 Co47 2.135 . S
Co56 O57 2.216 . S
Co56 O58 2.091 . S
Co56 O60 2.004 . S
Co56 O66 2.021 . S
Co56 O68 2.137 . S
Co56 O69 2.244 . S
O57 Co56 2.216 . S
O57 C64 1.247 . S
O58 Co56 2.091 . S
O58 C64 1.261 . S
C59 O68 1.247 . S
C59 O69 1.272 . S
O60 Co56 2.004 . S
O60 C65 1.259 . S
Co61 O62 2.061 . S
Co61 O67 2.052 . S
Co61 O69 2.135 . S
O62 Co61 2.061 . S
O62 C65 1.235 . S
C63 O66 1.238 . S
C63 O67 1.241 . S
C64 O57 1.247 . S
C64 O58 1.261 . S
C65 O60 1.259 . S
C65 O62 1.235 . S
O66 Co56 2.021 . S
O66 C63 1.238 . S
O67 Co61 2.052 . S
O67 C63 1.241 . S
O68 Co56 2.137 . S
O68 C59 1.247 . S
O69 Co56 2.244 . S
O69 C59 1.272 . S
O69 Co61 2.135 . S
Co70 O71 2.216 . S
Co70 O72 2.091 . S
Co70 O74 2.004 . S
Co70 O80 2.021 . S
Co70 O82 2.137 . S
Co70 O83 2.244 . S
O71 Co70 2.216 . S
O71 C78 1.247 . S
O72 Co70 2.091 . S
O72 C78 1.261 . S
C73 O82 1.247 . S
C73 O83 1.272 . S
O74 Co70 2.004 . S
O74 C79 1.259 . S
Co75 O76 2.061 . S
Co75 O81 2.052 . S
Co75 O83 2.135 . S
O76 Co75 2.061 . S
O76 C79 1.235 . S
C77 O80 1.238 . S
C77 O81 1.241 . S
C78 O71 1.247 . S
C78 O72 1.261 . S
C79 O74 1.259 . S
C79 O76 1.235 . S
O80 Co70 2.021 . S
O80 C77 1.238 . S
O81 Co75 2.052 . S
O81 C77 1.241 . S
O82 Co70 2.137 . S
O82 C73 1.247 . S
O83 Co70 2.244 . S
O83 C73 1.272 . S
O83 Co75 2.135 . S
Co84 O85 2.216 . S
Co84 O86 2.091 . S
Co84 O88 2.004 . S
Co84 O94 2.021 . S
Co84 O96 2.137 . S
Co84 O97 2.244 . S
O85 Co84 2.216 . S
O85 C92 1.247 . S
O86 Co84 2.091 . S
O86 C92 1.261 . S
C87 O96 1.247 . S
C87 O97 1.272 . S
O88 Co84 2.004 . S
O88 C93 1.259 . S
Co89 O90 2.061 . S
Co89 O95 2.052 . S
Co89 O97 2.135 . S
O90 Co89 2.061 . S
O90 C93 1.235 . S
C91 O94 1.238 . S
C91 O95 1.241 . S
C92 O85 1.247 . S
C92 O86 1.261 . S
C93 O88 1.259 . S
C93 O90 1.235 . S
O94 Co84 2.021 . S
O94 C91 1.238 . S
O95 Co89 2.052 . S
O95 C91 1.241 . S
O96 Co84 2.137 . S
O96 C87 1.247 . S
O97 Co84 2.244 . S
O97 C87 1.272 . S
O97 Co89 2.135 . S
Co98 O99 2.216 . S
Co98 O100 2.091 . S
Co98 O102 2.004 1_455 S
Co98 O108 2.021 1_455 S
Co98 O110 2.137 . S
Co98 O111 2.231 1_455 S
O99 Co98 2.216 . S
O99 C106 1.247 . S
O100 Co98 2.091 . S
O100 C106 1.261 . S
C101 O110 1.247 . S
C101 O111 1.266 1_455 S
O102 Co98 2.004 1_655 S
O102 C107 1.259 . S
Co103 O104 2.068 . S
Co103 O109 2.052 . S
Co103 O111 2.163 . S
O104 Co103 2.068 . S
O104 C107 1.235 . S
C105 O108 1.238 . S
C105 O109 1.241 . S
C106 O99 1.247 . S
C106 O100 1.261 . S
C107 O102 1.259 . S
C107 O104 1.235 . S
O108 Co98 2.021 1_655 S
O108 C105 1.238 . S
O109 Co103 2.052 . S
O109 C105 1.241 . S
O110 Co98 2.137 . S
O110 C101 1.247 . S
O111 Co98 2.231 1_655 S
O111 C101 1.266 1_655 S
O111 Co103 2.163 . S
Co112 O113 2.216 . S
Co112 O114 2.091 . S
Co112 O116 2.004 1_545 S
Co112 O122 2.021 . S
Co112 O124 2.137 . S
Co112 O125 2.249 . S
O113 Co112 2.216 . S
O113 C120 1.247 . S
O114 Co112 2.091 . S
O114 C120 1.261 . S
C115 O124 1.247 . S
C115 O125 1.275 . S
O116 Co112 2.004 1_565 S
O116 C121 1.259 . S
Co117 O118 2.061 . S
Co117 O123 2.052 . S
Co117 O125 2.125 1_565 S
O118 Co117 2.061 . S
O118 C121 1.235 . S
C119 O122 1.238 1_565 S
C119 O123 1.241 . S
C120 O113 1.247 . S
C120 O114 1.261 . S
C121 O116 1.259 . S
C121 O118 1.235 . S
O122 Co112 2.021 . S
O122 C119 1.238 1_545 S
O123 Co117 2.052 . S
O123 C119 1.241 . S
O124 Co112 2.137 . S
O124 C115 1.247 . S
O125 Co112 2.249 . S
O125 C115 1.275 . S
O125 Co117 2.125 1_545 S
Co126 O127 2.216 . S
Co126 O128 2.091 . S
Co126 O130 2.004 . S
Co126 O136 2.021 . S
Co126 O138 2.137 . S
Co126 O139 2.244 . S
O127 Co126 2.216 . S
O127 C134 1.247 . S
O128 Co126 2.091 . S
O128 C134 1.261 . S
C129 O138 1.247 . S
C129 O139 1.272 . S
O130 Co126 2.004 . S
O130 C135 1.259 . S
Co131 O132 2.061 . S
Co131 O137 2.052 . S
Co131 O139 2.135 . S
O132 Co131 2.061 . S
O132 C135 1.235 . S
C133 O136 1.238 . S
C133 O137 1.241 . S
C134 O127 1.247 . S
C134 O128 1.261 . S
C135 O130 1.259 . S
C135 O132 1.235 . S
O136 Co126 2.021 . S
O136 C133 1.238 . S
O137 Co131 2.052 . S
O137 C133 1.241 . S
O138 Co126 2.137 . S
O138 C129 1.247 . S
O139 Co126 2.244 . S
O139 C129 1.272 . S
O139 Co131 2.135 . S
Co140 O141 2.216 . S
Co140 O142 2.091 . S
Co140 O144 2.004 . S
Co140 O150 2.021 . S
Co140 O152 2.137 . S
Co140 O153 2.244 . S
O141 Co140 2.216 . S
O141 C148 1.247 . S
O142 Co140 2.091 . S
O142 C148 1.261 . S
C143 O152 1.247 . S
C143 O153 1.272 . S
O144 Co140 2.004 . S
O144 C149 1.259 . S
Co145 O146 2.061 . S
Co145 O151 2.052 . S
Co145 O153 2.135 . S
O146 Co145 2.061 . S
O146 C149 1.235 . S
C147 O150 1.238 . S
C147 O151 1.241 . S
C148 O141 1.247 . S
C148 O142 1.261 . S
C149 O144 1.259 . S
C149 O146 1.235 . S
O150 Co140 2.021 . S
O150 C147 1.238 . S
O151 Co145 2.052 . S
O151 C147 1.241 . S
O152 Co140 2.137 . S
O152 C143 1.247 . S
O153 Co140 2.244 . S
O153 C143 1.272 . S
O153 Co145 2.135 . S
Co154 O155 2.216 . S
Co154 O156 2.091 1_556 S
Co154 O158 2.003 . S
Co154 O164 2.021 1_556 S
Co154 O166 2.137 . S
Co154 O167 2.244 . S
O155 Co154 2.216 . S
O155 C162 1.250 . S
O156 Co154 2.091 1_554 S
O156 C162 1.265 1_554 S
C157 O166 1.247 . S
C157 O167 1.272 . S
O158 Co154 2.003 . S
O158 C163 1.258 1_556 S
Co159 O160 2.061 1_556 S
Co159 O165 2.052 1_556 S
Co159 O167 2.135 . S
O160 Co159 2.061 1_554 S
O160 C163 1.235 . S
C161 O164 1.238 . S
C161 O165 1.241 . S
C162 O155 1.250 . S
C162 O156 1.265 1_556 S
C163 O158 1.258 1_554 S
C163 O160 1.235 . S
O164 Co154 2.021 1_554 S
O164 C161 1.238 . S
O165 Co159 2.052 1_554 S
O165 C161 1.241 . S
O166 Co154 2.137 . S
O166 C157 1.247 . S
O167 Co154 2.244 . S
O167 C157 1.272 . S
O167 Co159 2.135 . S
Co168 O169 2.216 . S
Co168 O170 2.091 . S
Co168 O172 2.004 . S
Co168 O178 2.021 . S
Co168 O180 2.137 1_554 S
Co168 O181 2.244 . S
O169 Co168 2.216 . S
O169 C176 1.247 . S
O170 Co168 2.091 . S
O170 C176 1.261 . S
C171 O180 1.247 . S
C171 O181 1.272 1_556 S
O172 Co168 2.004 . S
O172 C177 1.259 . S
Co173 O174 2.061 . S
Co173 O179 2.052 . S
Co173 O181 2.135 . S
O174 Co173 2.061 . S
O174 C177 1.235 . S
C175 O178 1.238 . S
C175 O179 1.241 . S
C176 O169 1.247 . S
C176 O170 1.261 . S
C177 O172 1.259 . S
C177 O174 1.235 . S
O178 Co168 2.021 . S
O178 C175 1.238 . S
O179 Co173 2.052 . S
O179 C175 1.241 . S
O180 Co168 2.137 1_556 S
O180 C171 1.247 . S
O181 Co168 2.244 . S
O181 C171 1.272 1_554 S
O181 Co173 2.135 . S
Co182 O183 2.216 . S
Co182 O184 2.091 . S
Co182 O186 2.004 . S
Co182 O192 2.021 . S
Co182 O194 2.137 . S
Co182 O195 2.244 . S
O183 Co182 2.216 . S
O183 C190 1.247 . S
O184 Co182 2.091 . S
O184 C190 1.261 . S
C185 O194 1.247 . S
C185 O195 1.272 . S
O186 Co182 2.004 . S
O186 C191 1.259 . S
Co187 O188 2.061 . S
Co187 O193 2.052 . S
Co187 O195 2.135 . S
O188 Co187 2.061 . S
O188 C191 1.235 . S
C189 O192 1.238 . S
C189 O193 1.241 . S
C190 O183 1.247 . S
C190 O184 1.261 . S
C191 O186 1.259 . S
C191 O188 1.235 . S
O192 Co182 2.021 . S
O192 C189 1.238 . S
O193 Co187 2.052 . S
O193 C189 1.241 . S
O194 Co182 2.137 . S
O194 C185 1.247 . S
O195 Co182 2.244 . S
O195 C185 1.272 . S
O195 Co187 2.135 . S
Co196 O197 2.216 . S
Co196 O198 2.091 . S
Co196 O200 2.004 . S
Co196 O206 2.021 . S
Co196 O208 2.137 . S
Co196 O209 2.244 . S
O197 Co196 2.216 . S
O197 C204 1.247 . S
O198 Co196 2.091 . S
O198 C204 1.261 . S
C199 O208 1.247 . S
C199 O209 1.272 . S
O200 Co196 2.004 . S
O200 C205 1.259 . S
Co201 O202 2.061 . S
Co201 O207 2.052 . S
Co201 O209 2.135 . S
O202 Co201 2.061 . S
O202 C205 1.235 . S
C203 O206 1.238 . S
C203 O207 1.241 . S
C204 O197 1.247 . S
C204 O198 1.261 . S
C205 O200 1.259 . S
C205 O202 1.235 . S
O206 Co196 2.021 . S
O206 C203 1.238 . S
O207 Co201 2.052 . S
O207 C203 1.241 . S
O208 Co196 2.137 . S
O208 C199 1.247 . S
O209 Co196 2.244 . S
O209 C199 1.272 . S
O209 Co201 2.135 . S
Co210 O211 2.216 . S
Co210 O212 2.091 . S
Co210 O214 2.004 . S
Co210 O220 2.021 . S
Co210 O222 2.137 . S
Co210 O223 2.244 . S
O211 Co210 2.216 . S
O211 C218 1.247 . S
O212 Co210 2.091 . S
O212 C218 1.261 . S
C213 O222 1.247 . S
C213 O223 1.272 . S
O214 Co210 2.004 . S
O214 C219 1.259 . S
Co215 O216 2.061 . S
Co215 O221 2.052 . S
Co215 O223 2.135 . S
O216 Co215 2.061 . S
O216 C219 1.235 . S
C217 O220 1.238 . S
C217 O221 1.241 . S
C218 O211 1.247 . S
C218 O212 1.261 . S
C219 O214 1.259 . S
C219 O216 1.235 . S
O220 Co210 2.021 . S
O220 C217 1.238 . S
O221 Co215 2.052 . S
O221 C217 1.241 . S
O222 Co210 2.137 . S
O222 C213 1.247 . S
O223 Co210 2.244 . S
O223 C213 1.272 . S
O223 Co215 2.135 . S
Co224 O225 2.216 . S
Co224 O226 2.091 . S
Co224 O228 1.990 1_545 S
Co224 O234 2.021 . S
Co224 O236 2.137 . S
Co224 O237 2.244 . S
O225 Co224 2.216 . S
O225 C232 1.247 . S
O226 Co224 2.091 . S
O226 C232 1.261 . S
C227 O236 1.247 . S
C227 O237 1.272 . S
O228 Co224 1.990 1_565 S
O228 C233 1.276 . S
Co229 O230 2.061 1_545 S
Co229 O235 2.052 . S
Co229 O237 2.135 . S
O230 Co229 2.061 1_565 S
O230 C233 1.235 . S
C231 O234 1.238 . S
C231 O235 1.241 . S
C232 O225 1.247 . S
C232 O226 1.261 . S
C233 O228 1.276 . S
C233 O230 1.235 . S
O234 Co224 2.021 . S
O234 C231 1.238 . S
O235 Co229 2.052 . S
O235 C231 1.241 . S
O236 Co224 2.137 . S
O236 C227 1.247 . S
O237 Co224 2.244 . S
O237 C227 1.272 . S
O237 Co229 2.135 . S
Co238 O239 2.216 . S
Co238 O240 2.091 . S
Co238 O242 2.004 . S
Co238 O248 2.021 . S
Co238 O250 2.137 . S
Co238 O251 2.244 . S
O239 Co238 2.216 . S
O239 C246 1.247 . S
O240 Co238 2.091 . S
O240 C246 1.261 . S
C241 O250 1.247 . S
C241 O251 1.272 . S
O242 Co238 2.004 . S
O242 C247 1.259 . S
Co243 O244 2.061 . S
Co243 O249 2.052 . S
Co243 O251 2.135 . S
O244 Co243 2.061 . S
O244 C247 1.235 . S
C245 O248 1.238 . S
C245 O249 1.241 . S
C246 O239 1.247 . S
C246 O240 1.261 . S
C247 O242 1.259 . S
C247 O244 1.235 . S
O248 Co238 2.021 . S
O248 C245 1.238 . S
O249 Co243 2.052 . S
O249 C245 1.241 . S
O250 Co238 2.137 . S
O250 C241 1.247 . S
O251 Co238 2.244 . S
O251 C241 1.272 . S
O251 Co243 2.135 . S
Co252 O253 2.216 . S
Co252 O254 2.091 . S
Co252 O256 2.004 . S
Co252 O262 2.021 . S
Co252 O264 2.137 . S
Co252 O265 2.244 . S
O253 Co252 2.216 . S
O253 C260 1.247 . S
O254 Co252 2.091 . S
O254 C260 1.261 . S
C255 O264 1.247 . S
C255 O265 1.272 . S
O256 Co252 2.004 . S
O256 C261 1.259 . S
Co257 O258 2.061 . S
Co257 O263 2.052 . S
Co257 O265 2.135 . S
O258 Co257 2.061 . S
O258 C261 1.235 . S
C259 O262 1.238 . S
C259 O263 1.241 . S
C260 O253 1.247 . S
C260 O254 1.261 . S
C261 O256 1.259 . S
C261 O258 1.235 . S
O262 Co252 2.021 . S
O262 C259 1.238 . S
O263 Co257 2.052 . S
O263 C259 1.241 . S
O264 Co252 2.137 . S
O264 C255 1.247 . S
O265 Co252 2.244 . S
O265 C255 1.272 . S
O265 Co257 2.135 . S
Co266 O267 2.216 . S
Co266 O268 2.091 . S
Co266 O270 2.004 . S
Co266 O276 2.021 . S
Co266 O278 2.137 . S
Co266 O279 2.244 . S
O267 Co266 2.216 . S
O267 C274 1.247 . S
O268 Co266 2.091 . S
O268 C274 1.261 . S
C269 O278 1.247 . S
C269 O279 1.272 . S
O270 Co266 2.004 . S
O270 C275 1.259 . S
Co271 O272 2.061 . S
Co271 O277 2.052 . S
Co271 O279 2.135 . S
O272 Co271 2.061 . S
O272 C275 1.235 . S
C273 O276 1.238 . S
C273 O277 1.241 . S
C274 O267 1.247 . S
C274 O268 1.261 . S
C275 O270 1.259 . S
C275 O272 1.235 . S
O276 Co266 2.021 . S
O276 C273 1.238 . S
O277 Co271 2.052 . S
O277 C273 1.241 . S
O278 Co266 2.137 . S
O278 C269 1.247 . S
O279 Co266 2.244 . S
O279 C269 1.272 . S
O279 Co271 2.135 . S
Co280 O281 2.216 . S
Co280 O282 2.091 . S
Co280 O284 2.004 . S
Co280 O290 2.021 . S
Co280 O292 2.137 1_554 S
Co280 O293 2.244 . S
O281 Co280 2.216 . S
O281 C288 1.247 . S
O282 Co280 2.091 . S
O282 C288 1.261 . S
C283 O292 1.247 . S
C283 O293 1.272 1_556 S
O284 Co280 2.004 . S
O284 C289 1.259 . S
Co285 O286 2.061 . S
Co285 O291 2.052 . S
Co285 O293 2.135 . S
O286 Co285 2.061 . S
O286 C289 1.235 . S
C287 O290 1.238 . S
C287 O291 1.241 . S
C288 O281 1.247 . S
C288 O282 1.261 . S
C289 O284 1.259 . S
C289 O286 1.235 . S
O290 Co280 2.021 . S
O290 C287 1.238 . S
O291 Co285 2.052 . S
O291 C287 1.241 . S
O292 Co280 2.137 1_556 S
O292 C283 1.247 . S
O293 Co280 2.244 . S
O293 C283 1.272 1_554 S
O293 Co285 2.135 . S
Co294 O295 2.216 . S
Co294 O296 2.091 . S
Co294 O298 2.004 . S
Co294 O304 2.021 . S
Co294 O306 2.137 . S
Co294 O307 2.244 . S
O295 Co294 2.216 . S
O295 C302 1.247 . S
O296 Co294 2.091 . S
O296 C302 1.261 . S
C297 O306 1.247 . S
C297 O307 1.272 . S
O298 Co294 2.004 . S
O298 C303 1.259 . S
Co299 O300 2.061 . S
Co299 O305 2.052 . S
Co299 O307 2.135 . S
O300 Co299 2.061 . S
O300 C303 1.235 . S
C301 O304 1.238 . S
C301 O305 1.241 . S
C302 O295 1.247 . S
C302 O296 1.261 . S
C303 O298 1.259 . S
C303 O300 1.235 . S
O304 Co294 2.021 . S
O304 C301 1.238 . S
O305 Co299 2.052 . S
O305 C301 1.241 . S
O306 Co294 2.137 . S
O306 C297 1.247 . S
O307 Co294 2.244 . S
O307 C297 1.272 . S
O307 Co299 2.135 . S
Co308 O309 2.216 . S
Co308 O310 2.091 . S
Co308 O312 2.004 . S
Co308 O318 2.021 . S
Co308 O320 2.137 . S
Co308 O321 2.244 . S
O309 Co308 2.216 . S
O309 C316 1.247 . S
O310 Co308 2.091 . S
O310 C316 1.261 . S
C311 O320 1.247 . S
C311 O321 1.272 . S
O312 Co308 2.004 . S
O312 C317 1.259 . S
Co313 O314 2.061 . S
Co313 O319 2.052 . S
Co313 O321 2.135 . S
O314 Co313 2.061 . S
O314 C317 1.235 . S
C315 O318 1.238 . S
C315 O319 1.241 . S
C316 O309 1.247 . S
C316 O310 1.261 . S
C317 O312 1.259 . S
C317 O314 1.235 . S
O318 Co308 2.021 . S
O318 C315 1.238 . S
O319 Co313 2.052 . S
O319 C315 1.241 . S
O320 Co308 2.137 . S
O320 C311 1.247 . S
O321 Co308 2.244 . S
O321 C311 1.272 . S
O321 Co313 2.135 . S
Co322 O323 2.216 . S
Co322 O324 2.091 . S
Co322 O326 2.004 . S
Co322 O332 2.021 . S
Co322 O334 2.137 . S
Co322 O335 2.244 . S
O323 Co322 2.216 . S
O323 C330 1.247 . S
O324 Co322 2.091 . S
O324 C330 1.261 . S
C325 O334 1.247 . S
C325 O335 1.272 . S
O326 Co322 2.004 . S
O326 C331 1.259 . S
Co327 O328 2.061 . S
Co327 O333 2.052 . S
Co327 O335 2.135 . S
O328 Co327 2.061 . S
O328 C331 1.235 . S
C329 O332 1.238 . S
C329 O333 1.241 . S
C330 O323 1.247 . S
C330 O324 1.261 . S
C331 O326 1.259 . S
C331 O328 1.235 . S
O332 Co322 2.021 . S
O332 C329 1.238 . S
O333 Co327 2.052 . S
O333 C329 1.241 . S
O334 Co322 2.137 . S
O334 C325 1.247 . S
O335 Co322 2.244 . S
O335 C325 1.272 . S
O335 Co327 2.135 . S
Dy336 O339 2.307 . S
Dy336 O341 2.395 . S
Dy336 O342 2.379 . S
Dy336 O344 2.339 . S
Dy336 O346 2.298 . S
Dy336 O350 2.275 . S
Dy336 C358 2.738 . S
Dy337 O340 2.298 1_655 S
Dy337 O343 2.275 1_655 S
Dy337 O345 2.307 1_655 S
Dy337 O347 2.395 . S
Dy337 O348 2.380 . S
Dy337 O351 2.339 1_654 S
Dy337 C367 2.738 . S
C338 O350 1.254 1_556 S
C338 O351 1.257 . S
O339 Dy336 2.307 . S
O339 C349 1.266 . S
O340 Dy337 2.298 1_455 S
O340 C349 1.236 . S
O341 Dy336 2.395 . S
O341 C358 1.255 . S
O342 Dy336 2.379 . S
O342 C358 1.249 . S
O343 Dy337 2.275 1_455 S
O343 C359 1.254 . S
O344 Dy336 2.339 . S
O344 C359 1.257 . S
O345 Dy337 2.307 1_455 S
O345 C360 1.266 1_545 S
O346 Dy336 2.298 . S
O346 C360 1.236 1_545 S
O347 Dy337 2.395 . S
O347 C367 1.255 . S
O348 Dy337 2.380 . S
O348 C367 1.251 . S
C349 O339 1.266 . S
C349 O340 1.236 . S
O350 Dy336 2.275 . S
O350 C338 1.254 1_554 S
O351 Dy337 2.339 1_456 S
O351 C338 1.257 . S
C352 C355 1.344 . S
C352 C356 1.328 . S
C352 C358 1.516 . S
C353 C354 1.304 . S
C353 C357 1.323 . S
C354 C353 1.304 . S
C354 C355 1.371 . S
C354 H368 0.930 1_545 S
C355 C352 1.344 . S
C355 C354 1.371 . S
C355 H369 0.931 . S
C356 C352 1.328 . S
C356 C357 1.433 . S
C356 H370 0.931 . S
C357 C353 1.323 . S
C357 C356 1.433 . S
C357 H371 0.933 . S
C358 Dy336 2.738 . S
C358 O341 1.255 . S
C358 O342 1.249 . S
C358 C352 1.516 . S
C359 O343 1.254 . S
C359 O344 1.257 . S
C360 O345 1.266 1_565 S
C360 O346 1.236 1_565 S
C361 C364 1.344 . S
C361 C365 1.328 1_554 S
C361 C367 1.516 . S
C362 C363 1.304 . S
C362 C366 1.323 1_554 S
C363 C362 1.304 . S
C363 C364 1.371 . S
C363 H372 0.930 . S
C364 C361 1.344 . S
C364 C363 1.371 . S
C364 H373 0.931 . S
C365 C361 1.328 1_556 S
C365 C366 1.433 . S
C365 H374 0.931 . S
C366 C362 1.323 1_556 S
C366 C365 1.433 . S
C366 H375 0.933 . S
C367 Dy337 2.738 . S
C367 O347 1.255 . S
C367 O348 1.251 . S
C367 C361 1.516 . S
H368 C354 0.930 1_565 S
H369 C355 0.931 . S
H370 C356 0.931 . S
H371 C357 0.933 . S
H372 C363 0.930 . S
H373 C364 0.931 . S
H374 C365 0.931 . S
H375 C366 0.933 . S
Dy376 O379 2.307 . S
Dy376 O381 2.395 . S
Dy376 O382 2.379 . S
Dy376 O384 2.339 . S
Dy376 O386 2.298 . S
Dy376 O390 2.275 . S
Dy376 C398 2.738 . S
Dy377 O380 2.298 . S
Dy377 O383 2.275 . S
Dy377 O385 2.307 . S
Dy377 O387 2.395 . S
Dy377 O388 2.379 . S
Dy377 O391 2.339 . S
Dy377 C407 2.738 . S
C378 O390 1.254 . S
C378 O391 1.257 . S
O379 Dy376 2.307 . S
O379 C389 1.266 . S
O380 Dy377 2.298 . S
O380 C389 1.236 . S
O381 Dy376 2.395 . S
O381 C398 1.255 . S
O382 Dy376 2.379 . S
O382 C398 1.249 . S
O383 Dy377 2.275 . S
O383 C399 1.254 . S
O384 Dy376 2.339 . S
O384 C399 1.257 . S
O385 Dy377 2.307 . S
O385 C400 1.266 . S
O386 Dy376 2.298 . S
O386 C400 1.236 . S
O387 Dy377 2.395 . S
O387 C407 1.255 . S
O388 Dy377 2.379 . S
O388 C407 1.249 . S
C389 O379 1.266 . S
C389 O380 1.236 . S
O390 Dy376 2.275 . S
O390 C378 1.254 . S
O391 Dy377 2.339 . S
O391 C378 1.257 . S
C392 C395 1.344 . S
C392 C396 1.328 . S
C392 C398 1.516 . S
C393 C394 1.304 . S
C393 C397 1.323 . S
C394 C393 1.304 . S
C394 C395 1.371 . S
C394 H408 0.930 . S
C395 C392 1.344 . S
C395 C394 1.371 . S
C395 H409 0.931 . S
C396 C392 1.328 . S
C396 C397 1.433 . S
C396 H410 0.931 . S
C397 C393 1.323 . S
C397 C396 1.433 . S
C397 H411 0.933 . S
C398 Dy376 2.738 . S
C398 O381 1.255 . S
C398 O382 1.249 . S
C398 C392 1.516 . S
C399 O383 1.254 . S
C399 O384 1.257 . S
C400 O385 1.266 . S
C400 O386 1.236 . S
C401 C404 1.344 . S
C401 C405 1.328 . S
C401 C407 1.516 . S
C402 C403 1.304 . S
C402 C406 1.323 . S
C403 C402 1.304 . S
C403 C404 1.371 . S
C403 H412 0.930 . S
C404 C401 1.344 . S
C404 C403 1.371 . S
C404 H413 0.931 . S
C405 C401 1.328 . S
C405 C406 1.433 . S
C405 H414 0.931 . S
C406 C402 1.323 . S
C406 C405 1.433 . S
C406 H415 0.933 . S
C407 Dy377 2.738 . S
C407 O387 1.255 . S
C407 O388 1.249 . S
C407 C401 1.516 . S
H408 C394 0.930 . S
H409 C395 0.931 . S
H410 C396 0.931 . S
H411 C397 0.933 . S
H412 C403 0.930 . S
H413 C404 0.931 . S
H414 C405 0.931 . S
H415 C406 0.933 . S
Dy416 O419 2.307 . S
Dy416 O421 2.395 . S
Dy416 O422 2.379 . S
Dy416 O424 2.339 . S
Dy416 O426 2.298 . S
Dy416 O430 2.275 . S
Dy416 C438 2.738 . S
Dy417 O420 2.298 . S
Dy417 O423 2.275 . S
Dy417 O425 2.307 . S
Dy417 O427 2.395 . S
Dy417 O428 2.379 . S
Dy417 O431 2.339 . S
Dy417 C447 2.738 . S
C418 O430 1.254 . S
C418 O431 1.257 . S
O419 Dy416 2.307 . S
O419 C429 1.266 1_545 S
O420 Dy417 2.298 . S
O420 C429 1.236 1_545 S
O421 Dy416 2.395 . S
O421 C438 1.255 . S
O422 Dy416 2.379 . S
O422 C438 1.249 . S
O423 Dy417 2.275 . S
O423 C439 1.254 . S
O424 Dy416 2.339 . S
O424 C439 1.257 . S
O425 Dy417 2.307 . S
O425 C440 1.266 . S
O426 Dy416 2.298 . S
O426 C440 1.236 . S
O427 Dy417 2.395 . S
O427 C447 1.255 . S
O428 Dy417 2.379 . S
O428 C447 1.249 . S
C429 O419 1.266 1_565 S
C429 O420 1.236 1_565 S
O430 Dy416 2.275 . S
O430 C418 1.254 . S
O431 Dy417 2.339 . S
O431 C418 1.257 . S
C432 C435 1.344 . S
C432 C436 1.328 . S
C432 C438 1.516 . S
C433 C434 1.304 . S
C433 C437 1.323 . S
C434 C433 1.304 . S
C434 C435 1.371 . S
C434 H448 0.930 . S
C435 C432 1.344 . S
C435 C434 1.371 . S
C435 H449 0.931 . S
C436 C432 1.328 . S
C436 C437 1.433 . S
C436 H450 0.931 . S
C437 C433 1.323 . S
C437 C436 1.433 . S
C437 H451 0.933 . S
C438 Dy416 2.738 . S
C438 O421 1.255 . S
C438 O422 1.249 . S
C438 C432 1.516 . S
C439 O423 1.254 . S
C439 O424 1.257 . S
C440 O425 1.266 . S
C440 O426 1.236 . S
C441 C444 1.344 1_545 S
C441 C445 1.328 . S
C441 C447 1.516 . S
C442 C443 1.304 . S
C442 C446 1.323 . S
C443 C442 1.304 . S
C443 C444 1.371 . S
C443 H452 0.930 . S
C444 C441 1.344 1_565 S
C444 C443 1.371 . S
C444 H453 0.931 . S
C445 C441 1.328 . S
C445 C446 1.433 1_545 S
C445 H454 0.931 . S
C446 C442 1.323 . S
C446 C445 1.433 1_565 S
C446 H455 0.933 . S
C447 Dy417 2.738 . S
C447 O427 1.255 . S
C447 O428 1.249 . S
C447 C441 1.516 . S
H448 C434 0.930 . S
H449 C435 0.931 . S
H450 C436 0.931 . S
H451 C437 0.933 . S
H452 C443 0.930 . S
H453 C444 0.931 . S
H454 C445 0.931 . S
H455 C446 0.933 . S
Dy456 O459 2.307 . S
Dy456 O461 2.395 . S
Dy456 O462 2.379 . S
Dy456 O464 2.339 . S
Dy456 O466 2.298 . S
Dy456 O470 2.275 . S
Dy456 C478 2.738 . S
Dy457 O460 2.298 . S
Dy457 O463 2.275 . S
Dy457 O465 2.307 . S
Dy457 O467 2.395 . S
Dy457 O468 2.379 . S
Dy457 O471 2.339 . S
Dy457 C487 2.738 . S
C458 O470 1.254 . S
C458 O471 1.257 . S
O459 Dy456 2.307 . S
O459 C469 1.266 . S
O460 Dy457 2.298 . S
O460 C469 1.236 . S
O461 Dy456 2.395 . S
O461 C478 1.255 . S
O462 Dy456 2.379 . S
O462 C478 1.249 . S
O463 Dy457 2.275 . S
O463 C479 1.254 . S
O464 Dy456 2.339 . S
O464 C479 1.257 . S
O465 Dy457 2.307 . S
O465 C480 1.266 . S
O466 Dy456 2.298 . S
O466 C480 1.236 . S
O467 Dy457 2.395 . S
O467 C487 1.255 . S
O468 Dy457 2.379 . S
O468 C487 1.249 . S
C469 O459 1.266 . S
C469 O460 1.236 . S
O470 Dy456 2.275 . S
O470 C458 1.254 . S
O471 Dy457 2.339 . S
O471 C458 1.257 . S
C472 C475 1.344 . S
C472 C476 1.328 . S
C472 C478 1.516 . S
C473 C474 1.304 . S
C473 C477 1.323 . S
C474 C473 1.304 . S
C474 C475 1.371 . S
C474 H488 0.930 . S
C475 C472 1.344 . S
C475 C474 1.371 . S
C475 H489 0.931 . S
C476 C472 1.328 . S
C476 C477 1.433 . S
C476 H490 0.931 . S
C477 C473 1.323 . S
C477 C476 1.433 . S
C477 H491 0.933 . S
C478 Dy456 2.738 . S
C478 O461 1.255 . S
C478 O462 1.249 . S
C478 C472 1.516 . S
C479 O463 1.254 . S
C479 O464 1.257 . S
C480 O465 1.266 . S
C480 O466 1.236 . S
C481 C484 1.344 . S
C481 C485 1.328 . S
C481 C487 1.516 . S
C482 C483 1.304 . S
C482 C486 1.323 . S
C483 C482 1.304 . S
C483 C484 1.371 . S
C483 H492 0.930 . S
C484 C481 1.344 . S
C484 C483 1.371 . S
C484 H493 0.931 . S
C485 C481 1.328 . S
C485 C486 1.433 . S
C485 H494 0.931 . S
C486 C482 1.323 . S
C486 C485 1.433 . S
C486 H495 0.933 . S
C487 Dy457 2.738 . S
C487 O467 1.255 . S
C487 O468 1.249 . S
C487 C481 1.516 . S
H488 C474 0.930 . S
H489 C475 0.931 . S
H490 C476 0.931 . S
H491 C477 0.933 . S
H492 C483 0.930 . S
H493 C484 0.931 . S
H494 C485 0.931 . S
H495 C486 0.933 . S
Dy496 O499 2.307 . S
Dy496 O501 2.395 1_545 S
Dy496 O502 2.379 1_545 S
Dy496 O504 2.339 . S
Dy496 O506 2.298 . S
Dy496 O510 2.275 . S
Dy496 C518 2.738 1_545 S
Dy497 O500 2.298 . S
Dy497 O503 2.275 . S
Dy497 O505 2.307 . S
Dy497 O507 2.395 . S
Dy497 O508 2.383 . S
Dy497 O511 2.339 1_455 S
Dy497 C527 2.738 . S
C498 O510 1.254 1_655 S
C498 O511 1.257 . S
O499 Dy496 2.307 . S
O499 C509 1.266 . S
O500 Dy497 2.298 . S
O500 C509 1.236 . S
O501 Dy496 2.395 1_565 S
O501 C518 1.255 . S
O502 Dy496 2.379 1_565 S
O502 C518 1.249 . S
O503 Dy497 2.275 . S
O503 C519 1.254 . S
O504 Dy496 2.339 . S
O504 C519 1.257 . S
O505 Dy497 2.307 . S
O505 C520 1.266 . S
O506 Dy496 2.298 . S
O506 C520 1.236 . S
O507 Dy497 2.395 . S
O507 C527 1.255 . S
O508 Dy497 2.383 . S
O508 C527 1.253 . S
C509 O499 1.266 . S
C509 O500 1.236 . S
O510 Dy496 2.275 . S
O510 C498 1.254 1_455 S
O511 Dy497 2.339 1_655 S
O511 C498 1.257 . S
C512 C515 1.344 . S
C512 C516 1.328 . S
C512 C518 1.516 . S
C513 C514 1.304 . S
C513 C517 1.323 . S
C514 C513 1.304 . S
C514 C515 1.371 . S
C514 H528 0.930 . S
C515 C512 1.344 . S
C515 C514 1.371 . S
C515 H529 0.931 . S
C516 C512 1.328 . S
C516 C517 1.433 . S
C516 H530 0.931 . S
C517 C513 1.323 . S
C517 C516 1.433 . S
C517 H531 0.933 . S
C518 Dy496 2.738 1_565 S
C518 O501 1.255 . S
C518 O502 1.249 . S
C518 C512 1.516 . S
C519 O503 1.254 . S
C519 O504 1.257 . S
C520 O505 1.266 . S
C520 O506 1.236 . S
C521 C524 1.344 . S
C521 C525 1.328 1_455 S
C521 C527 1.516 . S
C522 C523 1.304 . S
C522 C526 1.323 1_455 S
C523 C522 1.304 . S
C523 C524 1.371 . S
C523 H532 0.930 . S
C524 C521 1.344 . S
C524 C523 1.371 . S
C524 H533 0.931 . S
C525 C521 1.328 1_655 S
C525 C526 1.433 . S
C525 H534 0.931 . S
C526 C522 1.323 1_655 S
C526 C525 1.433 . S
C526 H535 0.933 . S
C527 Dy497 2.738 . S
C527 O507 1.255 . S
C527 O508 1.253 . S
C527 C521 1.516 . S
H528 C514 0.930 . S
H529 C515 0.931 . S
H530 C516 0.931 . S
H531 C517 0.933 . S
H532 C523 0.930 . S
H533 C524 0.931 . S
H534 C525 0.931 . S
H535 C526 0.933 . S
Dy536 O539 2.307 . S
Dy536 O541 2.395 . S
Dy536 O542 2.379 . S
Dy536 O544 2.339 . S
Dy536 O546 2.298 . S
Dy536 O550 2.275 . S
Dy536 C558 2.738 . S
Dy537 O540 2.298 . S
Dy537 O543 2.275 . S
Dy537 O545 2.307 . S
Dy537 O547 2.395 . S
Dy537 O548 2.379 . S
Dy537 O551 2.339 . S
Dy537 C567 2.738 . S
C538 O550 1.254 . S
C538 O551 1.257 . S
O539 Dy536 2.307 . S
O539 C549 1.266 . S
O540 Dy537 2.298 . S
O540 C549 1.236 . S
O541 Dy536 2.395 . S
O541 C558 1.255 . S
O542 Dy536 2.379 . S
O542 C558 1.249 . S
O543 Dy537 2.275 . S
O543 C559 1.254 . S
O544 Dy536 2.339 . S
O544 C559 1.257 . S
O545 Dy537 2.307 . S
O545 C560 1.266 . S
O546 Dy536 2.298 . S
O546 C560 1.236 . S
O547 Dy537 2.395 . S
O547 C567 1.255 . S
O548 Dy537 2.379 . S
O548 C567 1.249 . S
C549 O539 1.266 . S
C549 O540 1.236 . S
O550 Dy536 2.275 . S
O550 C538 1.254 . S
O551 Dy537 2.339 . S
O551 C538 1.257 . S
C552 C555 1.344 . S
C552 C556 1.328 . S
C552 C558 1.516 . S
C553 C554 1.304 . S
C553 C557 1.323 . S
C554 C553 1.304 . S
C554 C555 1.371 . S
C554 H568 0.930 . S
C555 C552 1.344 . S
C555 C554 1.371 . S
C555 H569 0.931 . S
C556 C552 1.328 . S
C556 C557 1.433 . S
C556 H570 0.931 . S
C557 C553 1.323 . S
C557 C556 1.433 . S
C557 H571 0.933 . S
C558 Dy536 2.738 . S
C558 O541 1.255 . S
C558 O542 1.249 . S
C558 C552 1.516 . S
C559 O543 1.254 . S
C559 O544 1.257 . S
C560 O545 1.266 . S
C560 O546 1.236 . S
C561 C564 1.344 . S
C561 C565 1.328 . S
C561 C567 1.516 . S
C562 C563 1.304 . S
C562 C566 1.323 . S
C563 C562 1.304 . S
C563 C564 1.371 . S
C563 H572 0.930 . S
C564 C561 1.344 . S
C564 C563 1.371 . S
C564 H573 0.931 . S
C565 C561 1.328 . S
C565 C566 1.433 . S
C565 H574 0.931 . S
C566 C562 1.323 . S
C566 C565 1.433 . S
C566 H575 0.933 . S
C567 Dy537 2.738 . S
C567 O547 1.255 . S
C567 O548 1.249 . S
C567 C561 1.516 . S
H568 C554 0.930 . S
H569 C555 0.931 . S
H570 C556 0.931 . S
H571 C557 0.933 . S
H572 C563 0.930 . S
H573 C564 0.931 . S
H574 C565 0.931 . S
H575 C566 0.933 . S
Dy576 O579 2.307 . S
Dy576 O581 2.395 1_554 S
Dy576 O582 2.379 1_554 S
Dy576 O584 2.339 . S
Dy576 O586 2.298 . S
Dy576 O590 2.275 . S
Dy576 C598 2.738 1_554 S
Dy577 O580 2.298 . S
Dy577 O583 2.275 . S
Dy577 O585 2.307 . S
Dy577 O587 2.395 . S
Dy577 O588 2.415 . S
Dy577 O591 2.339 1_545 S
Dy577 C607 2.738 . S
C578 O590 1.254 . S
C578 O591 1.257 1_545 S
O579 Dy576 2.307 . S
O579 C589 1.266 . S
O580 Dy577 2.298 . S
O580 C589 1.236 . S
O581 Dy576 2.395 1_556 S
O581 C598 1.255 . S
O582 Dy576 2.379 1_556 S
O582 C598 1.249 . S
O583 Dy577 2.275 . S
O583 C599 1.254 . S
O584 Dy576 2.339 . S
O584 C599 1.257 . S
O585 Dy577 2.307 . S
O585 C600 1.266 . S
O586 Dy576 2.298 . S
O586 C600 1.236 . S
O587 Dy577 2.395 . S
O587 C607 1.255 . S
O588 Dy577 2.415 . S
O588 C607 1.288 . S
C589 O579 1.266 . S
C589 O580 1.236 . S
O590 Dy576 2.275 . S
O590 C578 1.254 . S
O591 Dy577 2.339 1_565 S
O591 C578 1.257 1_565 S
C592 C595 1.344 . S
C592 C596 1.328 . S
C592 C598 1.516 . S
C593 C594 1.304 . S
C593 C597 1.323 . S
C594 C593 1.304 . S
C594 C595 1.371 . S
C594 H608 0.930 . S
C595 C592 1.344 . S
C595 C594 1.371 . S
C595 H609 0.931 . S
C596 C592 1.328 . S
C596 C597 1.433 . S
C596 H610 0.931 . S
C597 C593 1.323 . S
C597 C596 1.433 . S
C597 H611 0.933 . S
C598 Dy576 2.738 1_556 S
C598 O581 1.255 . S
C598 O582 1.249 . S
C598 C592 1.516 . S
C599 O583 1.254 . S
C599 O584 1.257 . S
C600 O585 1.266 . S
C600 O586 1.236 . S
C601 C604 1.344 . S
C601 C605 1.328 1_545 S
C601 C607 1.516 . S
C602 C603 1.304 1_565 S
C602 C606 1.323 . S
C603 C602 1.304 1_545 S
C603 C604 1.371 . S
C603 H612 0.930 . S
C604 C601 1.344 . S
C604 C603 1.371 . S
C604 H613 0.931 . S
C605 C601 1.328 1_565 S
C605 C606 1.433 . S
C605 H614 0.931 . S
C606 C602 1.323 . S
C606 C605 1.433 . S
C606 H615 0.933 . S
C607 Dy577 2.738 . S
C607 O587 1.255 . S
C607 O588 1.288 . S
C607 C601 1.516 . S
H608 C594 0.930 . S
H609 C595 0.931 . S
H610 C596 0.931 . S
H611 C597 0.933 . S
H612 C603 0.930 . S
H613 C604 0.931 . S
H614 C605 0.931 . S
H615 C606 0.933 . S
Dy616 O619 2.307 . S
Dy616 O621 2.395 . S
Dy616 O622 2.379 . S
Dy616 O624 2.339 . S
Dy616 O626 2.298 . S
Dy616 O630 2.275 . S
Dy616 C638 2.738 . S
Dy617 O620 2.298 . S
Dy617 O623 2.275 . S
Dy617 O625 2.307 . S
Dy617 O627 2.395 . S
Dy617 O628 2.379 . S
Dy617 O631 2.339 . S
Dy617 C647 2.738 . S
C618 O630 1.254 . S
C618 O631 1.257 . S
O619 Dy616 2.307 . S
O619 C629 1.266 . S
O620 Dy617 2.298 . S
O620 C629 1.236 . S
O621 Dy616 2.395 . S
O621 C638 1.255 . S
O622 Dy616 2.379 . S
O622 C638 1.249 . S
O623 Dy617 2.275 . S
O623 C639 1.254 . S
O624 Dy616 2.339 . S
O624 C639 1.257 . S
O625 Dy617 2.307 . S
O625 C640 1.266 . S
O626 Dy616 2.298 . S
O626 C640 1.236 . S
O627 Dy617 2.395 . S
O627 C647 1.255 . S
O628 Dy617 2.379 . S
O628 C647 1.249 . S
C629 O619 1.266 . S
C629 O620 1.236 . S
O630 Dy616 2.275 . S
O630 C618 1.254 . S
O631 Dy617 2.339 . S
O631 C618 1.257 . S
C632 C635 1.344 . S
C632 C636 1.328 . S
C632 C638 1.516 . S
C633 C634 1.304 . S
C633 C637 1.323 . S
C634 C633 1.304 . S
C634 C635 1.371 . S
C634 H648 0.930 . S
C635 C632 1.344 . S
C635 C634 1.371 . S
C635 H649 0.931 . S
C636 C632 1.328 . S
C636 C637 1.433 . S
C636 H650 0.931 . S
C637 C633 1.323 . S
C637 C636 1.433 . S
C637 H651 0.933 . S
C638 Dy616 2.738 . S
C638 O621 1.255 . S
C638 O622 1.249 . S
C638 C632 1.516 . S
C639 O623 1.254 . S
C639 O624 1.257 . S
C640 O625 1.266 . S
C640 O626 1.236 . S
C641 C644 1.344 . S
C641 C645 1.328 . S
C641 C647 1.516 . S
C642 C643 1.304 . S
C642 C646 1.323 . S
C643 C642 1.304 . S
C643 C644 1.371 . S
C643 H652 0.930 . S
C644 C641 1.344 . S
C644 C643 1.371 . S
C644 H653 0.931 . S
C645 C641 1.328 . S
C645 C646 1.433 . S
C645 H654 0.931 . S
C646 C642 1.323 . S
C646 C645 1.433 . S
C646 H655 0.933 . S
C647 Dy617 2.738 . S
C647 O627 1.255 . S
C647 O628 1.249 . S
C647 C641 1.516 . S
H648 C634 0.930 . S
H649 C635 0.931 . S
H650 C636 0.931 . S
H651 C637 0.933 . S
H652 C643 0.930 . S
H653 C644 0.931 . S
H654 C645 0.931 . S
H655 C646 0.933 . S
Dy656 O659 2.307 1_554 S
Dy656 O661 2.395 . S
Dy656 O662 2.379 . S
Dy656 O664 2.339 . S
Dy656 O666 2.298 . S
Dy656 O670 2.275 . S
Dy656 C678 2.738 . S
Dy657 O660 2.298 1_554 S
Dy657 O663 2.275 . S
Dy657 O665 2.307 . S
Dy657 O667 2.395 . S
Dy657 O668 2.379 . S
Dy657 O671 2.339 . S
Dy657 C687 2.738 . S
C658 O670 1.254 . S
C658 O671 1.257 . S
O659 Dy656 2.307 1_556 S
O659 C669 1.266 . S
O660 Dy657 2.298 1_556 S
O660 C669 1.236 . S
O661 Dy656 2.395 . S
O661 C678 1.255 . S
O662 Dy656 2.379 . S
O662 C678 1.249 . S
O663 Dy657 2.275 . S
O663 C679 1.254 . S
O664 Dy656 2.339 . S
O664 C679 1.257 . S
O665 Dy657 2.307 . S
O665 C680 1.266 . S
O666 Dy656 2.298 . S
O666 C680 1.236 . S
O667 Dy657 2.395 . S
O667 C687 1.255 . S
O668 Dy657 2.379 . S
O668 C687 1.249 . S
C669 O659 1.266 . S
C669 O660 1.236 . S
O670 Dy656 2.275 . S
O670 C658 1.254 . S
O671 Dy657 2.339 . S
O671 C658 1.257 . S
C672 C675 1.344 . S
C672 C676 1.328 . S
C672 C678 1.516 . S
C673 C674 1.304 . S
C673 C677 1.323 . S
C674 C673 1.304 . S
C674 C675 1.371 . S
C674 H688 0.930 . S
C675 C672 1.344 . S
C675 C674 1.371 . S
C675 H689 0.931 . S
C676 C672 1.328 . S
C676 C677 1.433 . S
C676 H690 0.931 . S
C677 C673 1.323 . S
C677 C676 1.433 . S
C677 H691 0.933 . S
C678 Dy656 2.738 . S
C678 O661 1.255 . S
C678 O662 1.249 . S
C678 C672 1.516 . S
C679 O663 1.254 . S
C679 O664 1.257 . S
C680 O665 1.266 . S
C680 O666 1.236 . S
C681 C684 1.344 . S
C681 C685 1.328 . S
C681 C687 1.516 1_556 S
C682 C683 1.304 . S
C682 C686 1.323 . S
C683 C682 1.304 . S
C683 C684 1.371 . S
C683 H692 0.930 . S
C684 C681 1.344 . S
C684 C683 1.371 . S
C684 H693 0.931 . S
C685 C681 1.328 . S
C685 C686 1.433 . S
C685 H694 0.931 1_556 S
C686 C682 1.323 . S
C686 C685 1.433 . S
C686 H695 0.933 . S
C687 Dy657 2.738 . S
C687 O667 1.255 . S
C687 O668 1.249 . S
C687 C681 1.516 1_554 S
H688 C674 0.930 . S
H689 C675 0.931 . S
H690 C676 0.931 . S
H691 C677 0.933 . S
H692 C683 0.930 . S
H693 C684 0.931 . S
H694 C685 0.931 1_554 S
H695 C686 0.933 . S
Dy696 O699 2.307 . S
Dy696 O701 2.395 . S
Dy696 O702 2.379 . S
Dy696 O704 2.339 . S
Dy696 O706 2.298 . S
Dy696 O710 2.275 . S
Dy696 C718 2.738 . S
Dy697 O700 2.298 . S
Dy697 O703 2.275 . S
Dy697 O705 2.307 . S
Dy697 O707 2.395 . S
Dy697 O708 2.379 . S
Dy697 O711 2.339 . S
Dy697 C727 2.738 . S
C698 O710 1.254 . S
C698 O711 1.257 . S
O699 Dy696 2.307 . S
O699 C709 1.266 . S
O700 Dy697 2.298 . S
O700 C709 1.236 . S
O701 Dy696 2.395 . S
O701 C718 1.255 . S
O702 Dy696 2.379 . S
O702 C718 1.249 . S
O703 Dy697 2.275 . S
O703 C719 1.254 . S
O704 Dy696 2.339 . S
O704 C719 1.257 . S
O705 Dy697 2.307 . S
O705 C720 1.266 . S
O706 Dy696 2.298 . S
O706 C720 1.236 . S
O707 Dy697 2.395 . S
O707 C727 1.255 . S
O708 Dy697 2.379 . S
O708 C727 1.249 . S
C709 O699 1.266 . S
C709 O700 1.236 . S
O710 Dy696 2.275 . S
O710 C698 1.254 . S
O711 Dy697 2.339 . S
O711 C698 1.257 . S
C712 C715 1.344 . S
C712 C716 1.328 . S
C712 C718 1.516 . S
C713 C714 1.304 . S
C713 C717 1.323 . S
C714 C713 1.304 . S
C714 C715 1.371 . S
C714 H728 0.930 . S
C715 C712 1.344 . S
C715 C714 1.371 . S
C715 H729 0.931 . S
C716 C712 1.328 . S
C716 C717 1.433 . S
C716 H730 0.931 . S
C717 C713 1.323 . S
C717 C716 1.433 . S
C717 H731 0.933 . S
C718 Dy696 2.738 . S
C718 O701 1.255 . S
C718 O702 1.249 . S
C718 C712 1.516 . S
C719 O703 1.254 . S
C719 O704 1.257 . S
C720 O705 1.266 . S
C720 O706 1.236 . S
C721 C724 1.344 . S
C721 C725 1.328 . S
C721 C727 1.516 . S
C722 C723 1.304 . S
C722 C726 1.323 . S
C723 C722 1.304 . S
C723 C724 1.371 . S
C723 H732 0.930 . S
C724 C721 1.344 . S
C724 C723 1.371 . S
C724 H733 0.931 . S
C725 C721 1.328 . S
C725 C726 1.433 . S
C725 H734 0.931 . S
C726 C722 1.323 . S
C726 C725 1.433 . S
C726 H735 0.933 . S
C727 Dy697 2.738 . S
C727 O707 1.255 . S
C727 O708 1.249 . S
C727 C721 1.516 . S
H728 C714 0.930 . S
H729 C715 0.931 . S
H730 C716 0.931 . S
H731 C717 0.933 . S
H732 C723 0.930 . S
H733 C724 0.931 . S
H734 C725 0.931 . S
H735 C726 0.933 . S
Dy736 O739 2.307 1_455 S
Dy736 O741 2.395 . S
Dy736 O742 2.379 . S
Dy736 O744 2.339 . S
Dy736 O746 2.298 . S
Dy736 O750 2.275 . S
Dy736 C758 2.738 . S
Dy737 O740 2.298 1_455 S
Dy737 O743 2.275 . S
Dy737 O745 2.307 . S
Dy737 O747 2.395 . S
Dy737 O748 2.379 . S
Dy737 O751 2.339 . S
Dy737 C767 2.738 . S
C738 O750 1.254 . S
C738 O751 1.257 . S
O739 Dy736 2.307 1_655 S
O739 C749 1.266 . S
O740 Dy737 2.298 1_655 S
O740 C749 1.236 . S
O741 Dy736 2.395 . S
O741 C758 1.255 . S
O742 Dy736 2.379 . S
O742 C758 1.249 . S
O743 Dy737 2.275 . S
O743 C759 1.254 . S
O744 Dy736 2.339 . S
O744 C759 1.257 . S
O745 Dy737 2.307 . S
O745 C760 1.266 . S
O746 Dy736 2.298 . S
O746 C760 1.236 . S
O747 Dy737 2.395 . S
O747 C767 1.255 . S
O748 Dy737 2.379 . S
O748 C767 1.249 . S
C749 O739 1.266 . S
C749 O740 1.236 . S
O750 Dy736 2.275 . S
O750 C738 1.254 . S
O751 Dy737 2.339 . S
O751 C738 1.257 . S
C752 C755 1.344 . S
C752 C756 1.328 . S
C752 C758 1.516 . S
C753 C754 1.304 . S
C753 C757 1.323 . S
C754 C753 1.304 . S
C754 C755 1.371 . S
C754 H768 0.930 . S
C755 C752 1.344 . S
C755 C754 1.371 . S
C755 H769 0.931 . S
C756 C752 1.328 . S
C756 C757 1.433 . S
C756 H770 0.931 . S
C757 C753 1.323 . S
C757 C756 1.433 . S
C757 H771 0.933 . S
C758 Dy736 2.738 . S
C758 O741 1.255 . S
C758 O742 1.249 . S
C758 C752 1.516 . S
C759 O743 1.254 . S
C759 O744 1.257 . S
C760 O745 1.266 . S
C760 O746 1.236 . S
C761 C764 1.344 . S
C761 C765 1.328 . S
C761 C767 1.516 1_655 S
C762 C763 1.304 . S
C762 C766 1.323 . S
C763 C762 1.304 . S
C763 C764 1.371 . S
C763 H772 0.930 . S
C764 C761 1.344 . S
C764 C763 1.371 . S
C764 H773 0.931 . S
C765 C761 1.328 . S
C765 C766 1.433 . S
C765 H774 0.931 . S
C766 C762 1.323 . S
C766 C765 1.433 . S
C766 H775 0.933 . S
C767 Dy737 2.738 . S
C767 O747 1.255 . S
C767 O748 1.249 . S
C767 C761 1.516 1_455 S
H768 C754 0.930 . S
H769 C755 0.931 . S
H770 C756 0.931 . S
H771 C757 0.933 . S
H772 C763 0.930 . S
H773 C764 0.931 . S
H774 C765 0.931 . S
H775 C766 0.933 . S
Dy776 O779 2.307 . S
Dy776 O781 2.395 . S
Dy776 O782 2.379 . S
Dy776 O784 2.339 . S
Dy776 O786 2.298 . S
Dy776 O790 2.275 . S
Dy776 C798 2.738 . S
Dy777 O780 2.298 . S
Dy777 O783 2.275 . S
Dy777 O785 2.307 . S
Dy777 O787 2.395 . S
Dy777 O788 2.379 . S
Dy777 O791 2.339 . S
Dy777 C807 2.738 . S
C778 O790 1.254 . S
C778 O791 1.257 . S
O779 Dy776 2.307 . S
O779 C789 1.266 . S
O780 Dy777 2.298 . S
O780 C789 1.236 . S
O781 Dy776 2.395 . S
O781 C798 1.255 . S
O782 Dy776 2.379 . S
O782 C798 1.249 . S
O783 Dy777 2.275 . S
O783 C799 1.254 . S
O784 Dy776 2.339 . S
O784 C799 1.257 . S
O785 Dy777 2.307 . S
O785 C800 1.266 . S
O786 Dy776 2.298 . S
O786 C800 1.236 . S
O787 Dy777 2.395 . S
O787 C807 1.255 . S
O788 Dy777 2.379 . S
O788 C807 1.249 . S
C789 O779 1.266 . S
C789 O780 1.236 . S
O790 Dy776 2.275 . S
O790 C778 1.254 . S
O791 Dy777 2.339 . S
O791 C778 1.257 . S
C792 C795 1.344 . S
C792 C796 1.328 . S
C792 C798 1.516 . S
C793 C794 1.304 . S
C793 C797 1.323 . S
C794 C793 1.304 . S
C794 C795 1.371 . S
C794 H808 0.930 . S
C795 C792 1.344 . S
C795 C794 1.371 . S
C795 H809 0.931 . S
C796 C792 1.328 . S
C796 C797 1.433 . S
C796 H810 0.931 . S
C797 C793 1.323 . S
C797 C796 1.433 . S
C797 H811 0.933 . S
C798 Dy776 2.738 . S
C798 O781 1.255 . S
C798 O782 1.249 . S
C798 C792 1.516 . S
C799 O783 1.254 . S
C799 O784 1.257 . S
C800 O785 1.266 . S
C800 O786 1.236 . S
C801 C804 1.344 . S
C801 C805 1.328 . S
C801 C807 1.516 . S
C802 C803 1.304 . S
C802 C806 1.323 . S
C803 C802 1.304 . S
C803 C804 1.371 . S
C803 H812 0.930 . S
C804 C801 1.344 . S
C804 C803 1.371 . S
C804 H813 0.931 . S
C805 C801 1.328 . S
C805 C806 1.433 . S
C805 H814 0.931 . S
C806 C802 1.323 . S
C806 C805 1.433 . S
C806 H815 0.933 . S
C807 Dy777 2.738 . S
C807 O787 1.255 . S
C807 O788 1.249 . S
C807 C801 1.516 . S
H808 C794 0.930 . S
H809 C795 0.931 . S
H810 C796 0.931 . S
H811 C797 0.933 . S
H812 C803 0.930 . S
H813 C804 0.931 . S
H814 C805 0.931 . S
H815 C806 0.933 . S
Dy816 O819 2.307 . S
Dy816 O821 2.395 . S
Dy816 O822 2.379 . S
Dy816 O824 2.339 . S
Dy816 O826 2.298 . S
Dy816 O830 2.275 . S
Dy816 C838 2.738 . S
Dy817 O820 2.298 . S
Dy817 O823 2.275 . S
Dy817 O825 2.307 . S
Dy817 O827 2.395 . S
Dy817 O828 2.379 . S
Dy817 O831 2.339 . S
Dy817 C847 2.738 . S
C818 O830 1.254 . S
C818 O831 1.257 . S
O819 Dy816 2.307 . S
O819 C829 1.266 . S
O820 Dy817 2.298 . S
O820 C829 1.236 . S
O821 Dy816 2.395 . S
O821 C838 1.255 . S
O822 Dy816 2.379 . S
O822 C838 1.249 . S
O823 Dy817 2.275 . S
O823 C839 1.254 . S
O824 Dy816 2.339 . S
O824 C839 1.257 . S
O825 Dy817 2.307 . S
O825 C840 1.266 . S
O826 Dy816 2.298 . S
O826 C840 1.236 . S
O827 Dy817 2.395 . S
O827 C847 1.255 . S
O828 Dy817 2.379 . S
O828 C847 1.249 . S
C829 O819 1.266 . S
C829 O820 1.236 . S
O830 Dy816 2.275 . S
O830 C818 1.254 . S
O831 Dy817 2.339 . S
O831 C818 1.257 . S
C832 C835 1.344 . S
C832 C836 1.328 . S
C832 C838 1.516 . S
C833 C834 1.304 . S
C833 C837 1.323 . S
C834 C833 1.304 . S
C834 C835 1.371 . S
C834 H848 0.930 . S
C835 C832 1.344 . S
C835 C834 1.371 . S
C835 H849 0.931 . S
C836 C832 1.328 . S
C836 C837 1.433 . S
C836 H850 0.931 . S
C837 C833 1.323 . S
C837 C836 1.433 . S
C837 H851 0.933 . S
C838 Dy816 2.738 . S
C838 O821 1.255 . S
C838 O822 1.249 . S
C838 C832 1.516 . S
C839 O823 1.254 . S
C839 O824 1.257 . S
C840 O825 1.266 . S
C840 O826 1.236 . S
C841 C844 1.344 . S
C841 C845 1.328 . S
C841 C847 1.516 . S
C842 C843 1.304 . S
C842 C846 1.323 . S
C843 C842 1.304 . S
C843 C844 1.371 . S
C843 H852 0.930 . S
C844 C841 1.344 . S
C844 C843 1.371 . S
C844 H853 0.931 . S
C845 C841 1.328 . S
C845 C846 1.433 . S
C845 H854 0.931 . S
C846 C842 1.323 . S
C846 C845 1.433 . S
C846 H855 0.933 . S
C847 Dy817 2.738 . S
C847 O827 1.255 . S
C847 O828 1.249 . S
C847 C841 1.516 . S
H848 C834 0.930 . S
H849 C835 0.931 . S
H850 C836 0.931 . S
H851 C837 0.933 . S
H852 C843 0.930 . S
H853 C844 0.931 . S
H854 C845 0.931 . S
H855 C846 0.933 . S
Dy856 O859 2.307 . S
Dy856 O861 2.395 . S
Dy856 O862 2.379 . S
Dy856 O864 2.339 . S
Dy856 O866 2.298 . S
Dy856 O870 2.275 . S
Dy856 C878 2.738 . S
Dy857 O860 2.298 . S
Dy857 O863 2.275 . S
Dy857 O865 2.307 . S
Dy857 O867 2.395 . S
Dy857 O868 2.379 . S
Dy857 O871 2.339 . S
Dy857 C887 2.738 . S
C858 O870 1.254 . S
C858 O871 1.257 . S
O859 Dy856 2.307 . S
O859 C869 1.266 . S
O860 Dy857 2.298 . S
O860 C869 1.236 . S
O861 Dy856 2.395 . S
O861 C878 1.255 . S
O862 Dy856 2.379 . S
O862 C878 1.249 . S
O863 Dy857 2.275 . S
O863 C879 1.254 . S
O864 Dy856 2.339 . S
O864 C879 1.257 . S
O865 Dy857 2.307 . S
O865 C880 1.266 . S
O866 Dy856 2.298 . S
O866 C880 1.236 . S
O867 Dy857 2.395 . S
O867 C887 1.255 . S
O868 Dy857 2.379 . S
O868 C887 1.249 . S
C869 O859 1.266 . S
C869 O860 1.236 . S
O870 Dy856 2.275 . S
O870 C858 1.254 . S
O871 Dy857 2.339 . S
O871 C858 1.257 . S
C872 C875 1.344 . S
C872 C876 1.328 . S
C872 C878 1.516 . S
C873 C874 1.304 . S
C873 C877 1.323 . S
C874 C873 1.304 . S
C874 C875 1.371 . S
C874 H888 0.930 . S
C875 C872 1.344 . S
C875 C874 1.371 . S
C875 H889 0.931 . S
C876 C872 1.328 . S
C876 C877 1.433 . S
C876 H890 0.931 . S
C877 C873 1.323 . S
C877 C876 1.433 . S
C877 H891 0.933 . S
C878 Dy856 2.738 . S
C878 O861 1.255 . S
C878 O862 1.249 . S
C878 C872 1.516 . S
C879 O863 1.254 . S
C879 O864 1.257 . S
C880 O865 1.266 . S
C880 O866 1.236 . S
C881 C884 1.344 . S
C881 C885 1.328 . S
C881 C887 1.516 . S
C882 C883 1.304 . S
C882 C886 1.323 . S
C883 C882 1.304 . S
C883 C884 1.371 . S
C883 H892 0.930 . S
C884 C881 1.344 . S
C884 C883 1.371 . S
C884 H893 0.931 . S
C885 C881 1.328 . S
C885 C886 1.433 . S
C885 H894 0.931 . S
C886 C882 1.323 . S
C886 C885 1.433 . S
C886 H895 0.933 . S
C887 Dy857 2.738 . S
C887 O867 1.255 . S
C887 O868 1.249 . S
C887 C881 1.516 . S
H888 C874 0.930 . S
H889 C875 0.931 . S
H890 C876 0.931 . S
H891 C877 0.933 . S
H892 C883 0.930 . S
H893 C884 0.931 . S
H894 C885 0.931 . S
H895 C886 0.933 . S
Dy896 O899 2.307 . S
Dy896 O901 2.395 . S
Dy896 O902 2.379 . S
Dy896 O904 2.339 . S
Dy896 O906 2.298 . S
Dy896 O910 2.275 . S
Dy896 C918 2.738 . S
Dy897 O900 2.298 . S
Dy897 O903 2.275 . S
Dy897 O905 2.307 . S
Dy897 O907 2.395 . S
Dy897 O908 2.379 . S
Dy897 O911 2.339 . S
Dy897 C927 2.738 . S
C898 O910 1.254 . S
C898 O911 1.257 . S
O899 Dy896 2.307 . S
O899 C909 1.266 . S
O900 Dy897 2.298 . S
O900 C909 1.236 . S
O901 Dy896 2.395 . S
O901 C918 1.255 . S
O902 Dy896 2.379 . S
O902 C918 1.249 . S
O903 Dy897 2.275 . S
O903 C919 1.254 . S
O904 Dy896 2.339 . S
O904 C919 1.257 . S
O905 Dy897 2.307 . S
O905 C920 1.266 . S
O906 Dy896 2.298 . S
O906 C920 1.236 . S
O907 Dy897 2.395 . S
O907 C927 1.255 . S
O908 Dy897 2.379 . S
O908 C927 1.249 . S
C909 O899 1.266 . S
C909 O900 1.236 . S
O910 Dy896 2.275 . S
O910 C898 1.254 . S
O911 Dy897 2.339 . S
O911 C898 1.257 . S
C912 C915 1.344 . S
C912 C916 1.328 . S
C912 C918 1.516 . S
C913 C914 1.304 . S
C913 C917 1.323 . S
C914 C913 1.304 . S
C914 C915 1.371 . S
C914 H928 0.930 . S
C915 C912 1.344 . S
C915 C914 1.371 . S
C915 H929 0.931 . S
C916 C912 1.328 . S
C916 C917 1.433 . S
C916 H930 0.931 . S
C917 C913 1.323 . S
C917 C916 1.433 . S
C917 H931 0.933 . S
C918 Dy896 2.738 . S
C918 O901 1.255 . S
C918 O902 1.249 . S
C918 C912 1.516 . S
C919 O903 1.254 . S
C919 O904 1.257 . S
C920 O905 1.266 . S
C920 O906 1.236 . S
C921 C924 1.344 . S
C921 C925 1.328 . S
C921 C927 1.516 . S
C922 C923 1.304 . S
C922 C926 1.323 . S
C923 C922 1.304 . S
C923 C924 1.371 . S
C923 H932 0.930 . S
C924 C921 1.344 . S
C924 C923 1.371 . S
C924 H933 0.931 . S
C925 C921 1.328 . S
C925 C926 1.433 . S
C925 H934 0.931 . S
C926 C922 1.323 . S
C926 C925 1.433 . S
C926 H935 0.933 . S
C927 Dy897 2.738 . S
C927 O907 1.255 . S
C927 O908 1.249 . S
C927 C921 1.516 . S
H928 C914 0.930 . S
H929 C915 0.931 . S
H930 C916 0.931 . S
H931 C917 0.933 . S
H932 C923 0.930 . S
H933 C924 0.931 . S
H934 C925 0.931 . S
H935 C926 0.933 . S
Dy936 O939 2.310 . S
Dy936 O941 2.391 1_455 S
Dy936 O942 2.375 1_455 S
Dy936 O944 2.341 . S
Dy936 O946 2.299 . S
Dy936 O950 2.277 . S
Dy936 C958 2.734 1_455 S
Dy937 O940 2.298 . S
Dy937 O943 2.275 . S
Dy937 O945 2.307 . S
Dy937 O947 2.395 . S
Dy937 O948 2.379 1_554 S
Dy937 O951 2.339 1_554 S
Dy937 C967 2.738 . S
C938 O950 1.254 1_556 S
C938 O951 1.257 . S
O939 Dy936 2.310 . S
O939 C949 1.266 . S
O940 Dy937 2.298 . S
O940 C949 1.236 . S
O941 Dy936 2.391 1_655 S
O941 C958 1.255 . S
O942 Dy936 2.375 1_655 S
O942 C958 1.249 . S
O943 Dy937 2.275 . S
O943 C959 1.254 . S
O944 Dy936 2.341 . S
O944 C959 1.257 . S
O945 Dy937 2.307 . S
O945 C960 1.266 . S
O946 Dy936 2.299 . S
O946 C960 1.236 . S
O947 Dy937 2.395 . S
O947 C967 1.255 . S
O948 Dy937 2.379 1_556 S
O948 C967 1.249 1_556 S
C949 O939 1.266 . S
C949 O940 1.236 . S
O950 Dy936 2.277 . S
O950 C938 1.254 1_554 S
O951 Dy937 2.339 1_556 S
O951 C938 1.257 . S
C952 C955 1.344 . S
C952 C956 1.328 . S
C952 C958 1.516 . S
C953 C954 1.304 . S
C953 C957 1.323 . S
C954 C953 1.304 . S
C954 C955 1.371 . S
C954 H968 0.930 . S
C955 C952 1.344 . S
C955 C954 1.371 . S
C955 H969 0.931 . S
C956 C952 1.328 . S
C956 C957 1.433 . S
C956 H970 0.931 . S
C957 C953 1.323 . S
C957 C956 1.433 . S
C957 H971 0.933 . S
C958 Dy936 2.734 1_655 S
C958 O941 1.255 . S
C958 O942 1.249 . S
C958 C952 1.516 . S
C959 O943 1.254 . S
C959 O944 1.257 . S
C960 O945 1.266 . S
C960 O946 1.236 . S
C961 C964 1.344 . S
C961 C965 1.328 1_554 S
C961 C967 1.516 . S
C962 C963 1.304 . S
C962 C966 1.323 1_554 S
C963 C962 1.304 . S
C963 C964 1.371 . S
C963 H972 0.930 . S
C964 C961 1.344 . S
C964 C963 1.371 . S
C964 H973 0.931 . S
C965 C961 1.328 1_556 S
C965 C966 1.433 . S
C965 H974 0.931 . S
C966 C962 1.323 1_556 S
C966 C965 1.433 . S
C966 H975 0.933 . S
C967 Dy937 2.738 . S
C967 O947 1.255 . S
C967 O948 1.249 1_554 S
C967 C961 1.516 . S
H968 C954 0.930 . S
H969 C955 0.931 . S
H970 C956 0.931 . S
H971 C957 0.933 . S
H972 C963 0.930 . S
H973 C964 0.931 . S
H974 C965 0.931 . S
H975 C966 0.933 . S
C976 C977 1.389 1_454 S
C976 C978 1.394 . S
C976 H992 0.931 . S
C977 C976 1.389 1_656 S
C977 C981 1.377 . S
C978 C976 1.394 . S
C978 C979 1.369 . S
C978 C982 1.531 . S
C979 C978 1.369 . S
C979 C980 1.410 1_454 S
C979 C987 1.503 . S
C980 C979 1.410 1_656 S
C980 C981 1.392 . S
C980 C983 1.511 . S
C981 C977 1.377 . S
C981 C980 1.392 . S
C981 H993 0.929 . S
C982 C978 1.531 . S
C982 H994 0.960 . S
C982 H995 0.962 . S
C982 H996 0.960 . S
C983 C980 1.511 . S
C983 H997 0.961 . S
C983 H998 0.961 . S
C983 H999 0.961 . S
C984 C985 1.370 . S
C984 C986 1.363 . S
C984 H1000 0.931 . S
C985 C984 1.370 . S
C985 C989 1.408 . S
C986 C984 1.363 . S
C986 C987 1.370 . S
C986 C990 1.524 1_554 S
C987 C979 1.503 . S
C987 C986 1.370 . S
C987 C988 1.403 . S
C988 C987 1.403 . S
C988 C989 1.404 . S
C988 C991 1.539 1_455 S
C989 C985 1.408 . S
C989 C988 1.404 . S
C989 H1001 0.930 . S
C990 C986 1.524 1_556 S
C990 H1002 0.956 . S
C990 H1003 0.961 . S
C990 H1004 0.961 . S
C991 C988 1.539 1_655 S
C991 H1005 0.959 1_655 S
C991 H1006 0.961 . S
C991 H1007 0.960 . S
H992 C976 0.931 . S
H993 C981 0.929 . S
H994 C982 0.960 . S
H995 C982 0.962 . S
H996 C982 0.960 . S
H997 C983 0.961 . S
H998 C983 0.961 . S
H999 C983 0.961 . S
H1000 C984 0.931 . S
H1001 C989 0.930 . S
H1002 C990 0.956 . S
H1003 C990 0.961 . S
H1004 C990 0.961 . S
H1005 C991 0.959 1_455 S
H1006 C991 0.961 . S
H1007 C991 0.960 . S
C1008 C1009 1.391 . S
C1008 C1010 1.394 . S
C1008 H1024 0.931 . S
C1009 C1008 1.391 . S
C1009 C1013 1.376 . S
C1010 C1008 1.394 . S
C1010 C1011 1.369 . S
C1010 C1014 1.531 . S
C1011 C1010 1.369 . S
C1011 C1012 1.410 . S
C1011 C1019 1.503 . S
C1012 C1011 1.410 . S
C1012 C1013 1.392 . S
C1012 C1015 1.511 . S
C1013 C1009 1.376 . S
C1013 C1012 1.392 . S
C1013 H1025 0.929 . S
C1014 C1010 1.531 . S
C1014 H1026 0.960 . S
C1014 H1027 0.962 . S
C1014 H1028 0.960 . S
C1015 C1012 1.511 . S
C1015 H1029 0.961 . S
C1015 H1030 0.961 . S
C1015 H1031 0.961 . S
C1016 C1017 1.370 . S
C1016 C1018 1.363 . S
C1016 H1032 0.931 . S
C1017 C1016 1.370 . S
C1017 C1021 1.408 . S
C1018 C1016 1.363 . S
C1018 C1019 1.370 . S
C1018 C1022 1.524 . S
C1019 C1011 1.503 . S
C1019 C1018 1.370 . S
C1019 C1020 1.403 . S
C1020 C1019 1.403 . S
C1020 C1021 1.404 . S
C1020 C1023 1.539 . S
C1021 C1017 1.408 . S
C1021 C1020 1.404 . S
C1021 H1033 0.930 . S
C1022 C1018 1.524 . S
C1022 H1034 0.956 . S
C1022 H1035 0.961 . S
C1022 H1036 0.961 . S
C1023 C1020 1.539 . S
C1023 H1037 0.958 . S
C1023 H1038 0.961 . S
C1023 H1039 0.960 . S
H1024 C1008 0.931 . S
H1025 C1013 0.929 . S
H1026 C1014 0.960 . S
H1027 C1014 0.962 . S
H1028 C1014 0.960 . S
H1029 C1015 0.961 . S
H1030 C1015 0.961 . S
H1031 C1015 0.961 . S
H1032 C1016 0.931 . S
H1033 C1021 0.930 . S
H1034 C1022 0.956 . S
H1035 C1022 0.961 . S
H1036 C1022 0.961 . S
H1037 C1023 0.958 . S
H1038 C1023 0.961 . S
H1039 C1023 0.960 . S
C1040 C1041 1.391 . S
C1040 C1042 1.394 . S
C1040 H1056 0.931 . S
C1041 C1040 1.391 . S
C1041 C1045 1.376 . S
C1042 C1040 1.394 . S
C1042 C1043 1.369 . S
C1042 C1046 1.531 . S
C1043 C1042 1.369 . S
C1043 C1044 1.410 . S
C1043 C1051 1.503 . S
C1044 C1043 1.410 . S
C1044 C1045 1.392 . S
C1044 C1047 1.511 . S
C1045 C1041 1.376 . S
C1045 C1044 1.392 . S
C1045 H1057 0.929 . S
C1046 C1042 1.531 . S
C1046 H1058 0.960 . S
C1046 H1059 0.962 . S
C1046 H1060 0.960 . S
C1047 C1044 1.511 . S
C1047 H1061 0.961 . S
C1047 H1062 0.961 . S
C1047 H1063 0.961 . S
C1048 C1049 1.370 . S
C1048 C1050 1.363 . S
C1048 H1064 0.931 . S
C1049 C1048 1.370 . S
C1049 C1053 1.408 . S
C1050 C1048 1.363 . S
C1050 C1051 1.370 . S
C1050 C1054 1.524 . S
C1051 C1043 1.503 . S
C1051 C1050 1.370 . S
C1051 C1052 1.403 . S
C1052 C1051 1.403 . S
C1052 C1053 1.404 . S
C1052 C1055 1.539 . S
C1053 C1049 1.408 . S
C1053 C1052 1.404 . S
C1053 H1065 0.930 . S
C1054 C1050 1.524 . S
C1054 H1066 0.956 . S
C1054 H1067 0.961 . S
C1054 H1068 0.961 . S
C1055 C1052 1.539 . S
C1055 H1069 0.958 . S
C1055 H1070 0.961 . S
C1055 H1071 0.960 . S
H1056 C1040 0.931 . S
H1057 C1045 0.929 . S
H1058 C1046 0.960 . S
H1059 C1046 0.962 . S
H1060 C1046 0.960 . S
H1061 C1047 0.961 . S
H1062 C1047 0.961 . S
H1063 C1047 0.961 . S
H1064 C1048 0.931 . S
H1065 C1053 0.930 . S
H1066 C1054 0.956 . S
H1067 C1054 0.961 . S
H1068 C1054 0.961 . S
H1069 C1055 0.958 . S
H1070 C1055 0.961 . S
H1071 C1055 0.960 . S
C1072 C1073 1.391 . S
C1072 C1074 1.394 . S
C1072 H1088 0.931 . S
C1073 C1072 1.391 . S
C1073 C1077 1.376 . S
C1074 C1072 1.394 . S
C1074 C1075 1.369 . S
C1074 C1078 1.531 . S
C1075 C1074 1.369 . S
C1075 C1076 1.410 . S
C1075 C1083 1.503 . S
C1076 C1075 1.410 . S
C1076 C1077 1.392 . S
C1076 C1079 1.511 . S
C1077 C1073 1.376 . S
C1077 C1076 1.392 . S
C1077 H1089 0.929 . S
C1078 C1074 1.531 . S
C1078 H1090 0.960 . S
C1078 H1091 0.962 . S
C1078 H1092 0.960 . S
C1079 C1076 1.511 . S
C1079 H1093 0.961 . S
C1079 H1094 0.961 . S
C1079 H1095 0.961 . S
C1080 C1081 1.370 . S
C1080 C1082 1.363 . S
C1080 H1096 0.931 . S
C1081 C1080 1.370 . S
C1081 C1085 1.408 . S
C1082 C1080 1.363 . S
C1082 C1083 1.370 . S
C1082 C1086 1.524 . S
C1083 C1075 1.503 . S
C1083 C1082 1.370 . S
C1083 C1084 1.403 . S
C1084 C1083 1.403 . S
C1084 C1085 1.404 . S
C1084 C1087 1.539 . S
C1085 C1081 1.408 . S
C1085 C1084 1.404 . S
C1085 H1097 0.930 . S
C1086 C1082 1.524 . S
C1086 H1098 0.956 . S
C1086 H1099 0.961 . S
C1086 H1100 0.961 . S
C1087 C1084 1.539 . S
C1087 H1101 0.958 . S
C1087 H1102 0.961 . S
C1087 H1103 0.960 . S
H1088 C1072 0.931 . S
H1089 C1077 0.929 . S
H1090 C1078 0.960 . S
H1091 C1078 0.962 . S
H1092 C1078 0.960 . S
H1093 C1079 0.961 . S
H1094 C1079 0.961 . S
H1095 C1079 0.961 . S
H1096 C1080 0.931 . S
H1097 C1085 0.930 . S
H1098 C1086 0.956 . S
H1099 C1086 0.961 . S
H1100 C1086 0.961 . S
H1101 C1087 0.958 . S
H1102 C1087 0.961 . S
H1103 C1087 0.960 . S
C1104 C1105 1.391 . S
C1104 C1106 1.394 . S
C1104 H1120 0.931 . S
C1105 C1104 1.391 . S
C1105 C1109 1.376 . S
C1106 C1104 1.394 . S
C1106 C1107 1.369 . S
C1106 C1110 1.531 . S
C1107 C1106 1.369 . S
C1107 C1108 1.410 . S
C1107 C1115 1.503 . S
C1108 C1107 1.410 . S
C1108 C1109 1.392 . S
C1108 C1111 1.511 . S
C1109 C1105 1.376 . S
C1109 C1108 1.392 . S
C1109 H1121 0.929 . S
C1110 C1106 1.531 . S
C1110 H1122 0.960 . S
C1110 H1123 0.962 . S
C1110 H1124 0.960 . S
C1111 C1108 1.511 . S
C1111 H1125 0.961 . S
C1111 H1126 0.961 . S
C1111 H1127 0.961 . S
C1112 C1113 1.370 . S
C1112 C1114 1.363 . S
C1112 H1128 0.931 . S
C1113 C1112 1.370 . S
C1113 C1117 1.408 . S
C1114 C1112 1.363 . S
C1114 C1115 1.370 . S
C1114 C1118 1.524 . S
C1115 C1107 1.503 . S
C1115 C1114 1.370 . S
C1115 C1116 1.403 . S
C1116 C1115 1.403 . S
C1116 C1117 1.404 . S
C1116 C1119 1.539 . S
C1117 C1113 1.408 . S
C1117 C1116 1.404 . S
C1117 H1129 0.930 . S
C1118 C1114 1.524 . S
C1118 H1130 0.956 . S
C1118 H1131 0.961 . S
C1118 H1132 0.961 . S
C1119 C1116 1.539 . S
C1119 H1133 0.958 . S
C1119 H1134 0.961 . S
C1119 H1135 0.960 . S
H1120 C1104 0.931 . S
H1121 C1109 0.929 . S
H1122 C1110 0.960 . S
H1123 C1110 0.962 . S
H1124 C1110 0.960 . S
H1125 C1111 0.961 . S
H1126 C1111 0.961 . S
H1127 C1111 0.961 . S
H1128 C1112 0.931 . S
H1129 C1117 0.930 . S
H1130 C1118 0.956 . S
H1131 C1118 0.961 . S
H1132 C1118 0.961 . S
H1133 C1119 0.958 . S
H1134 C1119 0.961 . S
H1135 C1119 0.960 . S
C1136 C1137 1.391 . S
C1136 C1138 1.394 . S
C1136 H1152 0.931 . S
C1137 C1136 1.391 . S
C1137 C1141 1.376 . S
C1138 C1136 1.394 . S
C1138 C1139 1.369 . S
C1138 C1142 1.531 . S
C1139 C1138 1.369 . S
C1139 C1140 1.410 . S
C1139 C1147 1.503 . S
C1140 C1139 1.410 . S
C1140 C1141 1.392 . S
C1140 C1143 1.511 . S
C1141 C1137 1.376 . S
C1141 C1140 1.392 . S
C1141 H1153 0.929 . S
C1142 C1138 1.531 . S
C1142 H1154 0.960 . S
C1142 H1155 0.962 . S
C1142 H1156 0.960 . S
C1143 C1140 1.511 . S
C1143 H1157 0.961 . S
C1143 H1158 0.961 . S
C1143 H1159 0.961 . S
C1144 C1145 1.370 . S
C1144 C1146 1.363 . S
C1144 H1160 0.931 . S
C1145 C1144 1.370 . S
C1145 C1149 1.408 . S
C1146 C1144 1.363 . S
C1146 C1147 1.370 . S
C1146 C1150 1.524 . S
C1147 C1139 1.503 . S
C1147 C1146 1.370 . S
C1147 C1148 1.403 . S
C1148 C1147 1.403 . S
C1148 C1149 1.404 . S
C1148 C1151 1.539 . S
C1149 C1145 1.408 . S
C1149 C1148 1.404 . S
C1149 H1161 0.930 . S
C1150 C1146 1.524 . S
C1150 H1162 0.956 . S
C1150 H1163 0.961 . S
C1150 H1164 0.961 . S
C1151 C1148 1.539 . S
C1151 H1165 0.958 . S
C1151 H1166 0.961 . S
C1151 H1167 0.960 . S
H1152 C1136 0.931 . S
H1153 C1141 0.929 . S
H1154 C1142 0.960 . S
H1155 C1142 0.962 . S
H1156 C1142 0.960 . S
H1157 C1143 0.961 . S
H1158 C1143 0.961 . S
H1159 C1143 0.961 . S
H1160 C1144 0.931 . S
H1161 C1149 0.930 . S
H1162 C1150 0.956 . S
H1163 C1150 0.961 . S
H1164 C1150 0.961 . S
H1165 C1151 0.958 . S
H1166 C1151 0.961 . S
H1167 C1151 0.960 . S
C1168 C1169 1.391 . S
C1168 C1170 1.394 . S
C1168 H1184 0.931 . S
C1169 C1168 1.391 . S
C1169 C1173 1.376 . S
C1170 C1168 1.394 . S
C1170 C1171 1.369 . S
C1170 C1174 1.531 . S
C1171 C1170 1.369 . S
C1171 C1172 1.410 . S
C1171 C1179 1.503 . S
C1172 C1171 1.410 . S
C1172 C1173 1.392 . S
C1172 C1175 1.511 . S
C1173 C1169 1.376 . S
C1173 C1172 1.392 . S
C1173 H1185 0.929 . S
C1174 C1170 1.531 . S
C1174 H1186 0.960 . S
C1174 H1187 0.962 . S
C1174 H1188 0.960 . S
C1175 C1172 1.511 . S
C1175 H1189 0.961 . S
C1175 H1190 0.961 . S
C1175 H1191 0.961 . S
C1176 C1177 1.370 . S
C1176 C1178 1.363 . S
C1176 H1192 0.931 . S
C1177 C1176 1.370 . S
C1177 C1181 1.408 . S
C1178 C1176 1.363 . S
C1178 C1179 1.370 . S
C1178 C1182 1.524 . S
C1179 C1171 1.503 . S
C1179 C1178 1.370 . S
C1179 C1180 1.403 . S
C1180 C1179 1.403 . S
C1180 C1181 1.404 . S
C1180 C1183 1.539 . S
C1181 C1177 1.408 . S
C1181 C1180 1.404 . S
C1181 H1193 0.930 . S
C1182 C1178 1.524 . S
C1182 H1194 0.956 . S
C1182 H1195 0.961 . S
C1182 H1196 0.961 . S
C1183 C1180 1.539 . S
C1183 H1197 0.958 . S
C1183 H1198 0.961 . S
C1183 H1199 0.960 . S
H1184 C1168 0.931 . S
H1185 C1173 0.929 . S
H1186 C1174 0.960 . S
H1187 C1174 0.962 . S
H1188 C1174 0.960 . S
H1189 C1175 0.961 . S
H1190 C1175 0.961 . S
H1191 C1175 0.961 . S
H1192 C1176 0.931 . S
H1193 C1181 0.930 . S
H1194 C1182 0.956 . S
H1195 C1182 0.961 . S
H1196 C1182 0.961 . S
H1197 C1183 0.958 . S
H1198 C1183 0.961 . S
H1199 C1183 0.960 . S
C1200 C1201 1.391 . S
C1200 C1202 1.394 . S
C1200 H1216 0.931 . S
C1201 C1200 1.391 . S
C1201 C1205 1.376 . S
C1202 C1200 1.394 . S
C1202 C1203 1.369 . S
C1202 C1206 1.531 . S
C1203 C1202 1.369 . S
C1203 C1204 1.410 . S
C1203 C1211 1.503 . S
C1204 C1203 1.410 . S
C1204 C1205 1.392 . S
C1204 C1207 1.511 . S
C1205 C1201 1.376 . S
C1205 C1204 1.392 . S
C1205 H1217 0.929 . S
C1206 C1202 1.531 . S
C1206 H1218 0.960 . S
C1206 H1219 0.962 . S
C1206 H1220 0.960 . S
C1207 C1204 1.511 . S
C1207 H1221 0.961 . S
C1207 H1222 0.961 . S
C1207 H1223 0.961 . S
C1208 C1209 1.370 . S
C1208 C1210 1.363 . S
C1208 H1224 0.931 . S
C1209 C1208 1.370 . S
C1209 C1213 1.408 . S
C1210 C1208 1.363 . S
C1210 C1211 1.370 . S
C1210 C1214 1.524 . S
C1211 C1203 1.503 . S
C1211 C1210 1.370 . S
C1211 C1212 1.403 . S
C1212 C1211 1.403 . S
C1212 C1213 1.404 . S
C1212 C1215 1.539 . S
C1213 C1209 1.408 . S
C1213 C1212 1.404 . S
C1213 H1225 0.930 . S
C1214 C1210 1.524 . S
C1214 H1226 0.956 . S
C1214 H1227 0.961 . S
C1214 H1228 0.961 . S
C1215 C1212 1.539 . S
C1215 H1229 0.958 . S
C1215 H1230 0.961 . S
C1215 H1231 0.960 . S
H1216 C1200 0.931 . S
H1217 C1205 0.929 . S
H1218 C1206 0.960 . S
H1219 C1206 0.962 . S
H1220 C1206 0.960 . S
H1221 C1207 0.961 . S
H1222 C1207 0.961 . S
H1223 C1207 0.961 . S
H1224 C1208 0.931 . S
H1225 C1213 0.930 . S
H1226 C1214 0.956 . S
H1227 C1214 0.961 . S
H1228 C1214 0.961 . S
H1229 C1215 0.958 . S
H1230 C1215 0.961 . S
H1231 C1215 0.960 . S
C1232 C1233 1.391 . S
C1232 C1234 1.394 . S
C1232 H1248 0.931 . S
C1233 C1232 1.391 . S
C1233 C1237 1.376 . S
C1234 C1232 1.394 . S
C1234 C1235 1.369 . S
C1234 C1238 1.531 . S
C1235 C1234 1.369 . S
C1235 C1236 1.410 1_655 S
C1235 C1243 1.503 . S
C1236 C1235 1.410 1_455 S
C1236 C1237 1.392 1_455 S
C1236 C1239 1.511 . S
C1237 C1233 1.376 . S
C1237 C1236 1.392 1_655 S
C1237 H1249 0.927 1_655 S
C1238 C1234 1.531 . S
C1238 H1250 0.960 . S
C1238 H1251 0.962 . S
C1238 H1252 0.960 . S
C1239 C1236 1.511 . S
C1239 H1253 0.961 . S
C1239 H1254 0.961 . S
C1239 H1255 0.961 . S
C1240 C1241 1.370 . S
C1240 C1242 1.363 1_455 S
C1240 H1256 0.931 . S
C1241 C1240 1.370 . S
C1241 C1245 1.408 . S
C1242 C1240 1.363 1_655 S
C1242 C1243 1.370 . S
C1242 C1246 1.524 . S
C1243 C1235 1.503 . S
C1243 C1242 1.370 . S
C1243 C1244 1.403 1_655 S
C1244 C1243 1.403 1_455 S
C1244 C1245 1.404 . S
C1244 C1247 1.539 . S
C1245 C1241 1.408 . S
C1245 C1244 1.404 . S
C1245 H1257 0.930 . S
C1246 C1242 1.524 . S
C1246 H1258 0.956 1_545 S
C1246 H1259 0.961 . S
C1246 H1260 0.961 1_545 S
C1247 C1244 1.539 . S
C1247 H1261 0.958 1_455 S
C1247 H1262 0.961 . S
C1247 H1263 0.960 . S
H1248 C1232 0.931 . S
H1249 C1237 0.927 1_455 S
H1250 C1238 0.960 . S
H1251 C1238 0.962 . S
H1252 C1238 0.960 . S
H1253 C1239 0.961 . S
H1254 C1239 0.961 . S
H1255 C1239 0.961 . S
H1256 C1240 0.931 . S
H1257 C1245 0.930 . S
H1258 C1246 0.956 1_565 S
H1259 C1246 0.961 . S
H1260 C1246 0.961 1_565 S
H1261 C1247 0.958 1_655 S
H1262 C1247 0.961 . S
H1263 C1247 0.960 . S
C1264 C1265 1.391 . S
C1264 C1266 1.394 . S
C1264 H1280 0.931 . S
C1265 C1264 1.391 . S
C1265 C1269 1.376 . S
C1266 C1264 1.394 . S
C1266 C1267 1.369 . S
C1266 C1270 1.531 . S
C1267 C1266 1.369 . S
C1267 C1268 1.410 . S
C1267 C1275 1.503 . S
C1268 C1267 1.410 . S
C1268 C1269 1.392 . S
C1268 C1271 1.511 . S
C1269 C1265 1.376 . S
C1269 C1268 1.392 . S
C1269 H1281 0.929 . S
C1270 C1266 1.531 . S
C1270 H1282 0.960 . S
C1270 H1283 0.962 . S
C1270 H1284 0.960 . S
C1271 C1268 1.511 . S
C1271 H1285 0.961 . S
C1271 H1286 0.961 . S
C1271 H1287 0.961 . S
C1272 C1273 1.370 . S
C1272 C1274 1.363 . S
C1272 H1288 0.931 . S
C1273 C1272 1.370 . S
C1273 C1277 1.408 . S
C1274 C1272 1.363 . S
C1274 C1275 1.370 . S
C1274 C1278 1.524 . S
C1275 C1267 1.503 . S
C1275 C1274 1.370 . S
C1275 C1276 1.403 . S
C1276 C1275 1.403 . S
C1276 C1277 1.404 . S
C1276 C1279 1.539 . S
C1277 C1273 1.408 . S
C1277 C1276 1.404 . S
C1277 H1289 0.930 . S
C1278 C1274 1.524 . S
C1278 H1290 0.956 . S
C1278 H1291 0.961 . S
C1278 H1292 0.961 . S
C1279 C1276 1.539 . S
C1279 H1293 0.958 . S
C1279 H1294 0.961 . S
C1279 H1295 0.960 . S
H1280 C1264 0.931 . S
H1281 C1269 0.929 . S
H1282 C1270 0.960 . S
H1283 C1270 0.962 . S
H1284 C1270 0.960 . S
H1285 C1271 0.961 . S
H1286 C1271 0.961 . S
H1287 C1271 0.961 . S
H1288 C1272 0.931 . S
H1289 C1277 0.930 . S
H1290 C1278 0.956 . S
H1291 C1278 0.961 . S
H1292 C1278 0.961 . S
H1293 C1279 0.958 . S
H1294 C1279 0.961 . S
H1295 C1279 0.960 . S
C1296 C1297 1.391 . S
C1296 C1298 1.394 . S
C1296 H1312 0.931 . S
C1297 C1296 1.391 . S
C1297 C1301 1.376 . S
C1298 C1296 1.394 . S
C1298 C1299 1.369 . S
C1298 C1302 1.531 . S
C1299 C1298 1.369 . S
C1299 C1300 1.410 . S
C1299 C1307 1.503 . S
C1300 C1299 1.410 . S
C1300 C1301 1.392 . S
C1300 C1303 1.511 . S
C1301 C1297 1.376 . S
C1301 C1300 1.392 . S
C1301 H1313 0.929 . S
C1302 C1298 1.531 . S
C1302 H1314 0.960 . S
C1302 H1315 0.962 . S
C1302 H1316 0.960 . S
C1303 C1300 1.511 . S
C1303 H1317 0.961 . S
C1303 H1318 0.961 . S
C1303 H1319 0.961 . S
C1304 C1305 1.370 . S
C1304 C1306 1.363 . S
C1304 H1320 0.931 . S
C1305 C1304 1.370 . S
C1305 C1309 1.408 . S
C1306 C1304 1.363 . S
C1306 C1307 1.370 . S
C1306 C1310 1.524 . S
C1307 C1299 1.503 . S
C1307 C1306 1.370 . S
C1307 C1308 1.403 . S
C1308 C1307 1.403 . S
C1308 C1309 1.404 . S
C1308 C1311 1.539 . S
C1309 C1305 1.408 . S
C1309 C1308 1.404 . S
C1309 H1321 0.930 . S
C1310 C1306 1.524 . S
C1310 H1322 0.956 . S
C1310 H1323 0.961 . S
C1310 H1324 0.961 . S
C1311 C1308 1.539 . S
C1311 H1325 0.958 . S
C1311 H1326 0.961 . S
C1311 H1327 0.960 . S
H1312 C1296 0.931 . S
H1313 C1301 0.929 . S
H1314 C1302 0.960 . S
H1315 C1302 0.962 . S
H1316 C1302 0.960 . S
H1317 C1303 0.961 . S
H1318 C1303 0.961 . S
H1319 C1303 0.961 . S
H1320 C1304 0.931 . S
H1321 C1309 0.930 . S
H1322 C1310 0.956 . S
H1323 C1310 0.961 . S
H1324 C1310 0.961 . S
H1325 C1311 0.958 . S
H1326 C1311 0.961 . S
H1327 C1311 0.960 . S
C1328 C1329 1.391 . S
C1328 C1330 1.394 . S
C1328 H1344 0.931 . S
C1329 C1328 1.391 . S
C1329 C1333 1.376 . S
C1330 C1328 1.394 . S
C1330 C1331 1.369 . S
C1330 C1334 1.531 . S
C1331 C1330 1.369 . S
C1331 C1332 1.410 . S
C1331 C1339 1.503 . S
C1332 C1331 1.410 . S
C1332 C1333 1.392 . S
C1332 C1335 1.511 . S
C1333 C1329 1.376 . S
C1333 C1332 1.392 . S
C1333 H1345 0.929 . S
C1334 C1330 1.531 . S
C1334 H1346 0.960 . S
C1334 H1347 0.962 . S
C1334 H1348 0.960 . S
C1335 C1332 1.511 . S
C1335 H1349 0.961 . S
C1335 H1350 0.961 . S
C1335 H1351 0.961 . S
C1336 C1337 1.370 . S
C1336 C1338 1.363 . S
C1336 H1352 0.931 . S
C1337 C1336 1.370 . S
C1337 C1341 1.408 . S
C1338 C1336 1.363 . S
C1338 C1339 1.370 . S
C1338 C1342 1.524 . S
C1339 C1331 1.503 . S
C1339 C1338 1.370 . S
C1339 C1340 1.403 . S
C1340 C1339 1.403 . S
C1340 C1341 1.404 . S
C1340 C1343 1.539 . S
C1341 C1337 1.408 . S
C1341 C1340 1.404 . S
C1341 H1353 0.930 . S
C1342 C1338 1.524 . S
C1342 H1354 0.956 . S
C1342 H1355 0.961 . S
C1342 H1356 0.961 . S
C1343 C1340 1.539 . S
C1343 H1357 0.958 . S
C1343 H1358 0.961 . S
C1343 H1359 0.960 . S
H1344 C1328 0.931 . S
H1345 C1333 0.929 . S
H1346 C1334 0.960 . S
H1347 C1334 0.962 . S
H1348 C1334 0.960 . S
H1349 C1335 0.961 . S
H1350 C1335 0.961 . S
H1351 C1335 0.961 . S
H1352 C1336 0.931 . S
H1353 C1341 0.930 . S
H1354 C1342 0.956 . S
H1355 C1342 0.961 . S
H1356 C1342 0.961 . S
H1357 C1343 0.958 . S
H1358 C1343 0.961 . S
H1359 C1343 0.960 . S
C1360 C1361 1.391 . S
C1360 C1362 1.395 . S
C1360 H1376 0.932 1_655 S
C1361 C1360 1.391 . S
C1361 C1365 1.376 . S
C1362 C1360 1.395 . S
C1362 C1363 1.372 . S
C1362 C1366 1.525 1_655 S
C1363 C1362 1.372 . S
C1363 C1364 1.410 . S
C1363 C1371 1.503 . S
C1364 C1363 1.410 . S
C1364 C1365 1.392 . S
C1364 C1367 1.511 . S
C1365 C1361 1.376 . S
C1365 C1364 1.392 . S
C1365 H1377 0.929 . S
C1366 C1362 1.525 1_455 S
C1366 H1378 0.960 . S
C1366 H1379 0.962 . S
C1366 H1380 0.960 . S
C1367 C1364 1.511 . S
C1367 H1381 0.961 . S
C1367 H1382 0.961 . S
C1367 H1383 0.961 . S
C1368 C1369 1.370 . S
C1368 C1370 1.363 . S
C1368 H1384 0.931 . S
C1369 C1368 1.370 . S
C1369 C1373 1.408 . S
C1370 C1368 1.363 . S
C1370 C1371 1.370 1_455 S
C1370 C1374 1.524 . S
C1371 C1363 1.503 . S
C1371 C1370 1.370 1_655 S
C1371 C1372 1.403 . S
C1372 C1371 1.403 . S
C1372 C1373 1.404 1_655 S
C1372 C1375 1.539 . S
C1373 C1369 1.408 . S
C1373 C1372 1.404 1_455 S
C1373 H1385 0.930 . S
C1374 C1370 1.524 . S
C1374 H1386 0.956 . S
C1374 H1387 0.961 1_445 S
C1374 H1388 0.961 1_545 S
C1375 C1372 1.539 . S
C1375 H1389 0.958 . S
C1375 H1390 0.961 . S
C1375 H1391 0.960 . S
H1376 C1360 0.932 1_455 S
H1377 C1365 0.929 . S
H1378 C1366 0.960 . S
H1379 C1366 0.962 . S
H1380 C1366 0.960 . S
H1381 C1367 0.961 . S
H1382 C1367 0.961 . S
H1383 C1367 0.961 . S
H1384 C1368 0.931 . S
H1385 C1373 0.930 . S
H1386 C1374 0.956 . S
H1387 C1374 0.961 1_665 S
H1388 C1374 0.961 1_565 S
H1389 C1375 0.958 . S
H1390 C1375 0.961 . S
H1391 C1375 0.960 . S
C1392 C1393 1.391 . S
C1392 C1394 1.394 . S
C1392 H1408 0.931 . S
C1393 C1392 1.391 . S
C1393 C1397 1.376 . S
C1394 C1392 1.394 . S
C1394 C1395 1.369 . S
C1394 C1398 1.531 . S
C1395 C1394 1.369 . S
C1395 C1396 1.410 . S
C1395 C1403 1.503 . S
C1396 C1395 1.410 . S
C1396 C1397 1.392 . S
C1396 C1399 1.511 . S
C1397 C1393 1.376 . S
C1397 C1396 1.392 . S
C1397 H1409 0.929 . S
C1398 C1394 1.531 . S
C1398 H1410 0.960 . S
C1398 H1411 0.962 . S
C1398 H1412 0.960 . S
C1399 C1396 1.511 . S
C1399 H1413 0.961 . S
C1399 H1414 0.961 . S
C1399 H1415 0.961 . S
C1400 C1401 1.370 . S
C1400 C1402 1.363 . S
C1400 H1416 0.931 . S
C1401 C1400 1.370 . S
C1401 C1405 1.408 . S
C1402 C1400 1.363 . S
C1402 C1403 1.370 . S
C1402 C1406 1.524 . S
C1403 C1395 1.503 . S
C1403 C1402 1.370 . S
C1403 C1404 1.403 . S
C1404 C1403 1.403 . S
C1404 C1405 1.404 . S
C1404 C1407 1.539 . S
C1405 C1401 1.408 . S
C1405 C1404 1.404 . S
C1405 H1417 0.930 . S
C1406 C1402 1.524 . S
C1406 H1418 0.956 . S
C1406 H1419 0.961 . S
C1406 H1420 0.961 . S
C1407 C1404 1.539 . S
C1407 H1421 0.958 . S
C1407 H1422 0.961 . S
C1407 H1423 0.960 . S
H1408 C1392 0.931 . S
H1409 C1397 0.929 . S
H1410 C1398 0.960 . S
H1411 C1398 0.962 . S
H1412 C1398 0.960 . S
H1413 C1399 0.961 . S
H1414 C1399 0.961 . S
H1415 C1399 0.961 . S
H1416 C1400 0.931 . S
H1417 C1405 0.930 . S
H1418 C1406 0.956 . S
H1419 C1406 0.961 . S
H1420 C1406 0.961 . S
H1421 C1407 0.958 . S
H1422 C1407 0.961 . S
H1423 C1407 0.960 . S
C1424 C1425 1.391 . S
C1424 C1426 1.394 . S
C1424 H1440 0.931 . S
C1425 C1424 1.391 . S
C1425 C1429 1.376 . S
C1426 C1424 1.394 . S
C1426 C1427 1.369 . S
C1426 C1430 1.531 . S
C1427 C1426 1.369 . S
C1427 C1428 1.410 . S
C1427 C1435 1.503 . S
C1428 C1427 1.410 . S
C1428 C1429 1.392 . S
C1428 C1431 1.511 . S
C1429 C1425 1.376 . S
C1429 C1428 1.392 . S
C1429 H1441 0.929 . S
C1430 C1426 1.531 . S
C1430 H1442 0.960 . S
C1430 H1443 0.962 . S
C1430 H1444 0.960 . S
C1431 C1428 1.511 . S
C1431 H1445 0.961 . S
C1431 H1446 0.961 . S
C1431 H1447 0.961 . S
C1432 C1433 1.370 . S
C1432 C1434 1.363 . S
C1432 H1448 0.931 . S
C1433 C1432 1.370 . S
C1433 C1437 1.408 . S
C1434 C1432 1.363 . S
C1434 C1435 1.370 . S
C1434 C1438 1.524 . S
C1435 C1427 1.503 . S
C1435 C1434 1.370 . S
C1435 C1436 1.403 . S
C1436 C1435 1.403 . S
C1436 C1437 1.404 . S
C1436 C1439 1.539 . S
C1437 C1433 1.408 . S
C1437 C1436 1.404 . S
C1437 H1449 0.930 . S
C1438 C1434 1.524 . S
C1438 H1450 0.956 . S
C1438 H1451 0.961 . S
C1438 H1452 0.961 . S
C1439 C1436 1.539 . S
C1439 H1453 0.958 . S
C1439 H1454 0.961 . S
C1439 H1455 0.960 . S
H1440 C1424 0.931 . S
H1441 C1429 0.929 . S
H1442 C1430 0.960 . S
H1443 C1430 0.962 . S
H1444 C1430 0.960 . S
H1445 C1431 0.961 . S
H1446 C1431 0.961 . S
H1447 C1431 0.961 . S
H1448 C1432 0.931 . S
H1449 C1437 0.930 . S
H1450 C1438 0.956 . S
H1451 C1438 0.961 . S
H1452 C1438 0.961 . S
H1453 C1439 0.958 . S
H1454 C1439 0.961 . S
H1455 C1439 0.960 . S
C1456 C1457 1.391 . S
C1456 C1458 1.394 . S
C1456 H1472 0.931 . S
C1457 C1456 1.391 . S
C1457 C1461 1.376 . S
C1458 C1456 1.394 . S
C1458 C1459 1.369 . S
C1458 C1462 1.531 . S
C1459 C1458 1.369 . S
C1459 C1460 1.410 . S
C1459 C1467 1.503 . S
C1460 C1459 1.410 . S
C1460 C1461 1.392 . S
C1460 C1463 1.511 . S
C1461 C1457 1.376 . S
C1461 C1460 1.392 . S
C1461 H1473 0.929 . S
C1462 C1458 1.531 . S
C1462 H1474 0.960 . S
C1462 H1475 0.962 . S
C1462 H1476 0.960 . S
C1463 C1460 1.511 . S
C1463 H1477 0.961 . S
C1463 H1478 0.961 . S
C1463 H1479 0.961 . S
C1464 C1465 1.370 . S
C1464 C1466 1.363 . S
C1464 H1480 0.931 . S
C1465 C1464 1.370 . S
C1465 C1469 1.408 . S
C1466 C1464 1.363 . S
C1466 C1467 1.370 . S
C1466 C1470 1.524 . S
C1467 C1459 1.503 . S
C1467 C1466 1.370 . S
C1467 C1468 1.403 . S
C1468 C1467 1.403 . S
C1468 C1469 1.404 . S
C1468 C1471 1.539 . S
C1469 C1465 1.408 . S
C1469 C1468 1.404 . S
C1469 H1481 0.930 . S
C1470 C1466 1.524 . S
C1470 H1482 0.956 . S
C1470 H1483 0.961 . S
C1470 H1484 0.961 . S
C1471 C1468 1.539 . S
C1471 H1485 0.958 . S
C1471 H1486 0.961 . S
C1471 H1487 0.960 . S
H1472 C1456 0.931 . S
H1473 C1461 0.929 . S
H1474 C1462 0.960 . S
H1475 C1462 0.962 . S
H1476 C1462 0.960 . S
H1477 C1463 0.961 . S
H1478 C1463 0.961 . S
H1479 C1463 0.961 . S
H1480 C1464 0.931 . S
H1481 C1469 0.930 . S
H1482 C1470 0.956 . S
H1483 C1470 0.961 . S
H1484 C1470 0.961 . S
H1485 C1471 0.958 . S
H1486 C1471 0.961 . S
H1487 C1471 0.960 . S
C1488 C1489 1.391 . S
C1488 C1490 1.394 . S
C1488 H1504 0.931 . S
C1489 C1488 1.391 . S
C1489 C1493 1.376 1_554 S
C1490 C1488 1.394 . S
C1490 C1491 1.369 . S
C1490 C1494 1.531 . S
C1491 C1490 1.369 . S
C1491 C1492 1.410 . S
C1491 C1499 1.503 . S
C1492 C1491 1.410 . S
C1492 C1493 1.392 1_554 S
C1492 C1495 1.511 1_554 S
C1493 C1489 1.376 1_556 S
C1493 C1492 1.392 1_556 S
C1493 H1505 0.929 . S
C1494 C1490 1.531 . S
C1494 H1506 0.960 . S
C1494 H1507 0.962 . S
C1494 H1508 0.960 . S
C1495 C1492 1.511 1_556 S
C1495 H1509 0.961 . S
C1495 H1510 0.954 1_566 S
C1495 H1511 0.961 1_566 S
C1496 C1497 1.370 1_565 S
C1496 C1498 1.363 . S
C1496 H1512 0.931 . S
C1497 C1496 1.370 1_545 S
C1497 C1501 1.408 . S
C1498 C1496 1.363 . S
C1498 C1499 1.370 . S
C1498 C1502 1.524 . S
C1499 C1491 1.503 . S
C1499 C1498 1.370 . S
C1499 C1500 1.403 1_565 S
C1500 C1499 1.403 1_545 S
C1500 C1501 1.404 . S
C1500 C1503 1.539 . S
C1501 C1497 1.408 . S
C1501 C1500 1.404 . S
C1501 H1513 0.930 . S
C1502 C1498 1.524 . S
C1502 H1514 0.956 . S
C1502 H1515 0.961 1_554 S
C1502 H1516 0.961 . S
C1503 C1500 1.539 . S
C1503 H1517 0.958 . S
C1503 H1518 0.961 . S
C1503 H1519 0.960 . S
H1504 C1488 0.931 . S
H1505 C1493 0.929 . S
H1506 C1494 0.960 . S
H1507 C1494 0.962 . S
H1508 C1494 0.960 . S
H1509 C1495 0.961 . S
H1510 C1495 0.954 1_544 S
H1511 C1495 0.961 1_544 S
H1512 C1496 0.931 . S
H1513 C1501 0.930 . S
H1514 C1502 0.956 . S
H1515 C1502 0.961 1_556 S
H1516 C1502 0.961 . S
H1517 C1503 0.958 . S
H1518 C1503 0.961 . S
H1519 C1503 0.960 . S
C1520 C1521 1.391 . S
C1520 C1522 1.394 . S
C1520 H1536 0.931 1_554 S
C1521 C1520 1.391 . S
C1521 C1525 1.376 . S
C1522 C1520 1.394 . S
C1522 C1523 1.369 . S
C1522 C1526 1.531 1_554 S
C1523 C1522 1.369 . S
C1523 C1524 1.410 . S
C1523 C1531 1.503 . S
C1524 C1523 1.410 . S
C1524 C1525 1.392 . S
C1524 C1527 1.511 . S
C1525 C1521 1.376 . S
C1525 C1524 1.392 . S
C1525 H1537 0.929 . S
C1526 C1522 1.531 1_556 S
C1526 H1538 0.960 . S
C1526 H1539 0.962 . S
C1526 H1540 0.960 . S
C1527 C1524 1.511 . S
C1527 H1541 0.961 . S
C1527 H1542 0.961 . S
C1527 H1543 0.961 . S
C1528 C1529 1.370 . S
C1528 C1530 1.363 . S
C1528 H1544 0.931 . S
C1529 C1528 1.370 . S
C1529 C1533 1.408 . S
C1530 C1528 1.363 . S
C1530 C1531 1.370 . S
C1530 C1534 1.524 . S
C1531 C1523 1.503 . S
C1531 C1530 1.370 . S
C1531 C1532 1.403 . S
C1532 C1531 1.403 . S
C1532 C1533 1.404 . S
C1532 C1535 1.519 1_554 S
C1533 C1529 1.408 . S
C1533 C1532 1.404 . S
C1533 H1545 0.930 . S
C1534 C1530 1.524 . S
C1534 H1546 0.956 . S
C1534 H1547 0.961 . S
C1534 H1548 0.961 . S
C1535 C1532 1.519 1_556 S
C1535 H1549 1.002 . S
C1535 H1550 0.949 1_556 S
C1535 H1551 0.950 1_556 S
H1536 C1520 0.931 1_556 S
H1537 C1525 0.929 . S
H1538 C1526 0.960 . S
H1539 C1526 0.962 . S
H1540 C1526 0.960 . S
H1541 C1527 0.961 . S
H1542 C1527 0.961 . S
H1543 C1527 0.961 . S
H1544 C1528 0.931 . S
H1545 C1533 0.930 . S
H1546 C1534 0.956 . S
H1547 C1534 0.961 . S
H1548 C1534 0.961 . S
H1549 C1535 1.002 . S
H1550 C1535 0.949 1_554 S
H1551 C1535 0.950 1_554 S
C1552 C1553 1.391 . S
C1552 C1554 1.394 . S
C1552 H1568 0.931 . S
C1553 C1552 1.391 . S
C1553 C1557 1.376 . S
C1554 C1552 1.394 . S
C1554 C1555 1.369 . S
C1554 C1558 1.531 . S
C1555 C1554 1.369 . S
C1555 C1556 1.410 . S
C1555 C1563 1.503 . S
C1556 C1555 1.410 . S
C1556 C1557 1.392 . S
C1556 C1559 1.511 . S
C1557 C1553 1.376 . S
C1557 C1556 1.392 . S
C1557 H1569 0.929 . S
C1558 C1554 1.531 . S
C1558 H1570 0.960 . S
C1558 H1571 0.962 . S
C1558 H1572 0.960 . S
C1559 C1556 1.511 . S
C1559 H1573 0.961 . S
C1559 H1574 0.961 . S
C1559 H1575 0.961 . S
C1560 C1561 1.370 . S
C1560 C1562 1.363 . S
C1560 H1576 0.931 . S
C1561 C1560 1.370 . S
C1561 C1565 1.408 . S
C1562 C1560 1.363 . S
C1562 C1563 1.370 . S
C1562 C1566 1.524 . S
C1563 C1555 1.503 . S
C1563 C1562 1.370 . S
C1563 C1564 1.403 . S
C1564 C1563 1.403 . S
C1564 C1565 1.404 . S
C1564 C1567 1.539 . S
C1565 C1561 1.408 . S
C1565 C1564 1.404 . S
C1565 H1577 0.930 . S
C1566 C1562 1.524 . S
C1566 H1578 0.956 . S
C1566 H1579 0.961 . S
C1566 H1580 0.961 . S
C1567 C1564 1.539 . S
C1567 H1581 0.958 . S
C1567 H1582 0.961 . S
C1567 H1583 0.960 . S
H1568 C1552 0.931 . S
H1569 C1557 0.929 . S
H1570 C1558 0.960 . S
H1571 C1558 0.962 . S
H1572 C1558 0.960 . S
H1573 C1559 0.961 . S
H1574 C1559 0.961 . S
H1575 C1559 0.961 . S
H1576 C1560 0.931 . S
H1577 C1565 0.930 . S
H1578 C1566 0.956 . S
H1579 C1566 0.961 . S
H1580 C1566 0.961 . S
H1581 C1567 0.958 . S
H1582 C1567 0.961 . S
H1583 C1567 0.960 . S
C1584 C1585 1.391 . S
C1584 C1586 1.394 . S
C1584 H1600 0.931 . S
C1585 C1584 1.391 . S
C1585 C1589 1.376 . S
C1586 C1584 1.394 . S
C1586 C1587 1.369 . S
C1586 C1590 1.531 . S
C1587 C1586 1.369 . S
C1587 C1588 1.410 . S
C1587 C1595 1.503 . S
C1588 C1587 1.410 . S
C1588 C1589 1.392 . S
C1588 C1591 1.511 . S
C1589 C1585 1.376 . S
C1589 C1588 1.392 . S
C1589 H1601 0.929 . S
C1590 C1586 1.531 . S
C1590 H1602 0.960 . S
C1590 H1603 0.962 . S
C1590 H1604 0.960 . S
C1591 C1588 1.511 . S
C1591 H1605 0.961 . S
C1591 H1606 0.961 . S
C1591 H1607 0.961 . S
C1592 C1593 1.370 . S
C1592 C1594 1.363 . S
C1592 H1608 0.931 . S
C1593 C1592 1.370 . S
C1593 C1597 1.408 . S
C1594 C1592 1.363 . S
C1594 C1595 1.370 . S
C1594 C1598 1.524 . S
C1595 C1587 1.503 . S
C1595 C1594 1.370 . S
C1595 C1596 1.403 . S
C1596 C1595 1.403 . S
C1596 C1597 1.404 . S
C1596 C1599 1.539 . S
C1597 C1593 1.408 . S
C1597 C1596 1.404 . S
C1597 H1609 0.930 . S
C1598 C1594 1.524 . S
C1598 H1610 0.956 . S
C1598 H1611 0.961 . S
C1598 H1612 0.961 . S
C1599 C1596 1.539 . S
C1599 H1613 0.958 . S
C1599 H1614 0.961 . S
C1599 H1615 0.960 . S
H1600 C1584 0.931 . S
H1601 C1589 0.929 . S
H1602 C1590 0.960 . S
H1603 C1590 0.962 . S
H1604 C1590 0.960 . S
H1605 C1591 0.961 . S
H1606 C1591 0.961 . S
H1607 C1591 0.961 . S
H1608 C1592 0.931 . S
H1609 C1597 0.930 . S
H1610 C1598 0.956 . S
H1611 C1598 0.961 . S
H1612 C1598 0.961 . S
H1613 C1599 0.958 . S
H1614 C1599 0.961 . S
H1615 C1599 0.960 . S
C1616 C1617 1.391 . S
C1616 C1618 1.394 . S
C1616 H1632 0.931 . S
C1617 C1616 1.391 . S
C1617 C1621 1.376 . S
C1618 C1616 1.394 . S
C1618 C1619 1.369 . S
C1618 C1622 1.531 . S
C1619 C1618 1.369 . S
C1619 C1620 1.410 . S
C1619 C1627 1.503 . S
C1620 C1619 1.410 . S
C1620 C1621 1.392 . S
C1620 C1623 1.511 . S
C1621 C1617 1.376 . S
C1621 C1620 1.392 . S
C1621 H1633 0.929 . S
C1622 C1618 1.531 . S
C1622 H1634 0.960 . S
C1622 H1635 0.962 . S
C1622 H1636 0.960 . S
C1623 C1620 1.511 . S
C1623 H1637 0.961 . S
C1623 H1638 0.961 . S
C1623 H1639 0.961 . S
C1624 C1625 1.370 . S
C1624 C1626 1.363 . S
C1624 H1640 0.931 . S
C1625 C1624 1.370 . S
C1625 C1629 1.408 . S
C1626 C1624 1.363 . S
C1626 C1627 1.370 . S
C1626 C1630 1.524 . S
C1627 C1619 1.503 . S
C1627 C1626 1.370 . S
C1627 C1628 1.403 . S
C1628 C1627 1.403 . S
C1628 C1629 1.404 . S
C1628 C1631 1.539 . S
C1629 C1625 1.408 . S
C1629 C1628 1.404 . S
C1629 H1641 0.930 . S
C1630 C1626 1.524 . S
C1630 H1642 0.956 . S
C1630 H1643 0.961 . S
C1630 H1644 0.961 . S
C1631 C1628 1.539 . S
C1631 H1645 0.958 . S
C1631 H1646 0.961 . S
C1631 H1647 0.960 . S
H1632 C1616 0.931 . S
H1633 C1621 0.929 . S
H1634 C1622 0.960 . S
H1635 C1622 0.962 . S
H1636 C1622 0.960 . S
H1637 C1623 0.961 . S
H1638 C1623 0.961 . S
H1639 C1623 0.961 . S
H1640 C1624 0.931 . S
H1641 C1629 0.930 . S
H1642 C1630 0.956 . S
H1643 C1630 0.961 . S
H1644 C1630 0.961 . S
H1645 C1631 0.958 . S
H1646 C1631 0.961 . S
H1647 C1631 0.960 . S
C1648 C1649 1.391 . S
C1648 C1650 1.394 . S
C1648 H1664 0.931 . S
C1649 C1648 1.391 . S
C1649 C1653 1.376 . S
C1650 C1648 1.394 . S
C1650 C1651 1.369 . S
C1650 C1654 1.531 . S
C1651 C1650 1.369 . S
C1651 C1652 1.410 . S
C1651 C1659 1.503 . S
C1652 C1651 1.410 . S
C1652 C1653 1.392 . S
C1652 C1655 1.511 . S
C1653 C1649 1.376 . S
C1653 C1652 1.392 . S
C1653 H1665 0.929 . S
C1654 C1650 1.531 . S
C1654 H1666 0.960 . S
C1654 H1667 0.962 . S
C1654 H1668 0.960 . S
C1655 C1652 1.511 . S
C1655 H1669 0.961 . S
C1655 H1670 0.961 . S
C1655 H1671 0.961 . S
C1656 C1657 1.370 . S
C1656 C1658 1.363 . S
C1656 H1672 0.931 . S
C1657 C1656 1.370 . S
C1657 C1661 1.408 . S
C1658 C1656 1.363 . S
C1658 C1659 1.370 . S
C1658 C1662 1.524 . S
C1659 C1651 1.503 . S
C1659 C1658 1.370 . S
C1659 C1660 1.403 . S
C1660 C1659 1.403 . S
C1660 C1661 1.404 . S
C1660 C1663 1.539 . S
C1661 C1657 1.408 . S
C1661 C1660 1.404 . S
C1661 H1673 0.930 . S
C1662 C1658 1.524 . S
C1662 H1674 0.956 . S
C1662 H1675 0.961 . S
C1662 H1676 0.961 . S
C1663 C1660 1.539 . S
C1663 H1677 0.958 . S
C1663 H1678 0.961 . S
C1663 H1679 0.960 . S
H1664 C1648 0.931 . S
H1665 C1653 0.929 . S
H1666 C1654 0.960 . S
H1667 C1654 0.962 . S
H1668 C1654 0.960 . S
H1669 C1655 0.961 . S
H1670 C1655 0.961 . S
H1671 C1655 0.961 . S
H1672 C1656 0.931 . S
H1673 C1661 0.930 . S
H1674 C1662 0.956 . S
H1675 C1662 0.961 . S
H1676 C1662 0.961 . S
H1677 C1663 0.958 . S
H1678 C1663 0.961 . S
H1679 C1663 0.960 . S
C1680 C1681 1.391 . S
C1680 C1682 1.394 . S
C1680 H1696 0.931 . S
C1681 C1680 1.391 . S
C1681 C1685 1.376 . S
C1682 C1680 1.394 . S
C1682 C1683 1.369 . S
C1682 C1686 1.531 . S
C1683 C1682 1.369 . S
C1683 C1684 1.410 . S
C1683 C1691 1.503 . S
C1684 C1683 1.410 . S
C1684 C1685 1.392 . S
C1684 C1687 1.511 . S
C1685 C1681 1.376 . S
C1685 C1684 1.392 . S
C1685 H1697 0.929 . S
C1686 C1682 1.531 . S
C1686 H1698 0.960 . S
C1686 H1699 0.962 . S
C1686 H1700 0.960 . S
C1687 C1684 1.511 . S
C1687 H1701 0.961 . S
C1687 H1702 0.961 . S
C1687 H1703 0.961 . S
C1688 C1689 1.370 . S
C1688 C1690 1.363 . S
C1688 H1704 0.931 . S
C1689 C1688 1.370 . S
C1689 C1693 1.408 . S
C1690 C1688 1.363 . S
C1690 C1691 1.370 . S
C1690 C1694 1.524 . S
C1691 C1683 1.503 . S
C1691 C1690 1.370 . S
C1691 C1692 1.403 . S
C1692 C1691 1.403 . S
C1692 C1693 1.404 . S
C1692 C1695 1.539 . S
C1693 C1689 1.408 . S
C1693 C1692 1.404 . S
C1693 H1705 0.930 . S
C1694 C1690 1.524 . S
C1694 H1706 0.956 . S
C1694 H1707 0.961 . S
C1694 H1708 0.961 . S
C1695 C1692 1.539 . S
C1695 H1709 0.958 . S
C1695 H1710 0.961 . S
C1695 H1711 0.960 . S
H1696 C1680 0.931 . S
H1697 C1685 0.929 . S
H1698 C1686 0.960 . S
H1699 C1686 0.962 . S
H1700 C1686 0.960 . S
H1701 C1687 0.961 . S
H1702 C1687 0.961 . S
H1703 C1687 0.961 . S
H1704 C1688 0.931 . S
H1705 C1693 0.930 . S
H1706 C1694 0.956 . S
H1707 C1694 0.961 . S
H1708 C1694 0.961 . S
H1709 C1695 0.958 . S
H1710 C1695 0.961 . S
H1711 C1695 0.960 . S
C1712 C1713 1.391 . S
C1712 C1714 1.394 . S
C1712 H1728 0.931 . S
C1713 C1712 1.391 . S
C1713 C1717 1.376 . S
C1714 C1712 1.394 . S
C1714 C1715 1.369 . S
C1714 C1718 1.531 . S
C1715 C1714 1.369 . S
C1715 C1716 1.410 . S
C1715 C1723 1.503 . S
C1716 C1715 1.410 . S
C1716 C1717 1.392 . S
C1716 C1719 1.511 . S
C1717 C1713 1.376 . S
C1717 C1716 1.392 . S
C1717 H1729 0.929 . S
C1718 C1714 1.531 . S
C1718 H1730 0.960 . S
C1718 H1731 0.962 . S
C1718 H1732 0.960 . S
C1719 C1716 1.511 . S
C1719 H1733 0.961 . S
C1719 H1734 0.961 . S
C1719 H1735 0.961 . S
C1720 C1721 1.370 . S
C1720 C1722 1.363 . S
C1720 H1736 0.931 . S
C1721 C1720 1.370 . S
C1721 C1725 1.408 . S
C1722 C1720 1.363 . S
C1722 C1723 1.370 . S
C1722 C1726 1.524 . S
C1723 C1715 1.503 . S
C1723 C1722 1.370 . S
C1723 C1724 1.403 . S
C1724 C1723 1.403 . S
C1724 C1725 1.404 . S
C1724 C1727 1.539 . S
C1725 C1721 1.408 . S
C1725 C1724 1.404 . S
C1725 H1737 0.930 . S
C1726 C1722 1.524 . S
C1726 H1738 0.956 . S
C1726 H1739 0.961 . S
C1726 H1740 0.961 . S
C1727 C1724 1.539 . S
C1727 H1741 0.958 . S
C1727 H1742 0.961 . S
C1727 H1743 0.960 . S
H1728 C1712 0.931 . S
H1729 C1717 0.929 . S
H1730 C1718 0.960 . S
H1731 C1718 0.962 . S
H1732 C1718 0.960 . S
H1733 C1719 0.961 . S
H1734 C1719 0.961 . S
H1735 C1719 0.961 . S
H1736 C1720 0.931 . S
H1737 C1725 0.930 . S
H1738 C1726 0.956 . S
H1739 C1726 0.961 . S
H1740 C1726 0.961 . S
H1741 C1727 0.958 . S
H1742 C1727 0.961 . S
H1743 C1727 0.960 . S
C1744 C1745 1.391 . S
C1744 C1746 1.394 . S
C1744 H1760 0.931 . S
C1745 C1744 1.391 . S
C1745 C1749 1.376 . S
C1746 C1744 1.394 . S
C1746 C1747 1.369 . S
C1746 C1750 1.531 . S
C1747 C1746 1.369 . S
C1747 C1748 1.410 . S
C1747 C1755 1.503 . S
C1748 C1747 1.410 . S
C1748 C1749 1.392 . S
C1748 C1751 1.511 . S
C1749 C1745 1.376 . S
C1749 C1748 1.392 . S
C1749 H1761 0.929 . S
C1750 C1746 1.531 . S
C1750 H1762 0.960 . S
C1750 H1763 0.962 . S
C1750 H1764 0.960 . S
C1751 C1748 1.511 . S
C1751 H1765 0.961 . S
C1751 H1766 0.961 . S
C1751 H1767 0.961 . S
C1752 C1753 1.370 . S
C1752 C1754 1.363 . S
C1752 H1768 0.931 . S
C1753 C1752 1.370 . S
C1753 C1757 1.408 . S
C1754 C1752 1.363 . S
C1754 C1755 1.370 . S
C1754 C1758 1.524 . S
C1755 C1747 1.503 . S
C1755 C1754 1.370 . S
C1755 C1756 1.403 . S
C1756 C1755 1.403 . S
C1756 C1757 1.404 . S
C1756 C1759 1.539 . S
C1757 C1753 1.408 . S
C1757 C1756 1.404 . S
C1757 H1769 0.930 . S
C1758 C1754 1.524 . S
C1758 H1770 0.956 . S
C1758 H1771 0.961 . S
C1758 H1772 0.961 1_455 S
C1759 C1756 1.539 . S
C1759 H1773 0.958 . S
C1759 H1774 0.961 . S
C1759 H1775 0.960 . S
H1760 C1744 0.931 . S
H1761 C1749 0.929 . S
H1762 C1750 0.960 . S
H1763 C1750 0.962 . S
H1764 C1750 0.960 . S
H1765 C1751 0.961 . S
H1766 C1751 0.961 . S
H1767 C1751 0.961 . S
H1768 C1752 0.931 . S
H1769 C1757 0.930 . S
H1770 C1758 0.956 . S
H1771 C1758 0.961 . S
H1772 C1758 0.961 1_655 S
H1773 C1759 0.958 . S
H1774 C1759 0.961 . S
H1775 C1759 0.960 . S
C1776 C1777 1.391 . S
C1776 C1778 1.394 . S
C1776 H1792 0.931 . S
C1777 C1776 1.391 . S
C1777 C1781 1.376 . S
C1778 C1776 1.394 . S
C1778 C1779 1.369 . S
C1778 C1782 1.531 . S
C1779 C1778 1.369 . S
C1779 C1780 1.410 . S
C1779 C1787 1.503 . S
C1780 C1779 1.410 . S
C1780 C1781 1.392 . S
C1780 C1783 1.511 . S
C1781 C1777 1.376 . S
C1781 C1780 1.392 . S
C1781 H1793 0.929 . S
C1782 C1778 1.531 . S
C1782 H1794 0.960 . S
C1782 H1795 0.962 . S
C1782 H1796 0.960 . S
C1783 C1780 1.511 . S
C1783 H1797 0.961 . S
C1783 H1798 0.961 . S
C1783 H1799 0.961 . S
C1784 C1785 1.370 . S
C1784 C1786 1.363 . S
C1784 H1800 0.931 . S
C1785 C1784 1.370 . S
C1785 C1789 1.408 . S
C1786 C1784 1.363 . S
C1786 C1787 1.370 . S
C1786 C1790 1.524 . S
C1787 C1779 1.503 . S
C1787 C1786 1.370 . S
C1787 C1788 1.403 . S
C1788 C1787 1.403 . S
C1788 C1789 1.404 . S
C1788 C1791 1.539 . S
C1789 C1785 1.408 . S
C1789 C1788 1.404 . S
C1789 H1801 0.930 . S
C1790 C1786 1.524 . S
C1790 H1802 0.956 . S
C1790 H1803 0.961 . S
C1790 H1804 0.961 . S
C1791 C1788 1.539 . S
C1791 H1805 0.958 . S
C1791 H1806 0.961 . S
C1791 H1807 0.960 . S
H1792 C1776 0.931 . S
H1793 C1781 0.929 . S
H1794 C1782 0.960 . S
H1795 C1782 0.962 . S
H1796 C1782 0.960 . S
H1797 C1783 0.961 . S
H1798 C1783 0.961 . S
H1799 C1783 0.961 . S
H1800 C1784 0.931 . S
H1801 C1789 0.930 . S
H1802 C1790 0.956 . S
H1803 C1790 0.961 . S
H1804 C1790 0.961 . S
H1805 C1791 0.958 . S
H1806 C1791 0.961 . S
H1807 C1791 0.960 . S
C1808 C1809 1.391 . S
C1808 C1810 1.394 . S
C1808 H1824 0.931 . S
C1809 C1808 1.391 . S
C1809 C1813 1.376 . S
C1810 C1808 1.394 . S
C1810 C1811 1.369 . S
C1810 C1814 1.531 . S
C1811 C1810 1.369 . S
C1811 C1812 1.410 . S
C1811 C1819 1.503 . S
C1812 C1811 1.410 . S
C1812 C1813 1.392 . S
C1812 C1815 1.511 . S
C1813 C1809 1.376 . S
C1813 C1812 1.392 . S
C1813 H1825 0.929 . S
C1814 C1810 1.531 . S
C1814 H1826 0.960 . S
C1814 H1827 0.962 . S
C1814 H1828 0.960 . S
C1815 C1812 1.511 . S
C1815 H1829 0.961 . S
C1815 H1830 0.961 . S
C1815 H1831 0.961 . S
C1816 C1817 1.370 . S
C1816 C1818 1.363 . S
C1816 H1832 0.931 . S
C1817 C1816 1.370 . S
C1817 C1821 1.408 . S
C1818 C1816 1.363 . S
C1818 C1819 1.370 . S
C1818 C1822 1.524 . S
C1819 C1811 1.503 . S
C1819 C1818 1.370 . S
C1819 C1820 1.403 . S
C1820 C1819 1.403 . S
C1820 C1821 1.404 . S
C1820 C1823 1.539 . S
C1821 C1817 1.408 . S
C1821 C1820 1.404 . S
C1821 H1833 0.930 . S
C1822 C1818 1.524 . S
C1822 H1834 0.956 . S
C1822 H1835 0.961 . S
C1822 H1836 0.961 . S
C1823 C1820 1.539 . S
C1823 H1837 0.958 . S
C1823 H1838 0.961 . S
C1823 H1839 0.960 . S
H1824 C1808 0.931 . S
H1825 C1813 0.929 . S
H1826 C1814 0.960 . S
H1827 C1814 0.962 . S
H1828 C1814 0.960 . S
H1829 C1815 0.961 . S
H1830 C1815 0.961 . S
H1831 C1815 0.961 . S
H1832 C1816 0.931 . S
H1833 C1821 0.930 . S
H1834 C1822 0.956 . S
H1835 C1822 0.961 . S
H1836 C1822 0.961 . S
H1837 C1823 0.958 . S
H1838 C1823 0.961 . S
H1839 C1823 0.960 . S
C1840 C1841 1.391 . S
C1840 C1842 1.394 . S
C1840 H1856 0.931 . S
C1841 C1840 1.391 . S
C1841 C1845 1.376 . S
C1842 C1840 1.394 . S
C1842 C1843 1.369 . S
C1842 C1846 1.531 . S
C1843 C1842 1.369 . S
C1843 C1844 1.410 . S
C1843 C1851 1.503 . S
C1844 C1843 1.410 . S
C1844 C1845 1.392 . S
C1844 C1847 1.511 . S
C1845 C1841 1.376 . S
C1845 C1844 1.392 . S
C1845 H1857 0.929 . S
C1846 C1842 1.531 . S
C1846 H1858 0.960 . S
C1846 H1859 0.962 . S
C1846 H1860 0.960 . S
C1847 C1844 1.511 . S
C1847 H1861 0.961 . S
C1847 H1862 0.961 . S
C1847 H1863 0.961 . S
C1848 C1849 1.370 . S
C1848 C1850 1.363 . S
C1848 H1864 0.931 . S
C1849 C1848 1.370 . S
C1849 C1853 1.408 . S
C1850 C1848 1.363 . S
C1850 C1851 1.370 . S
C1850 C1854 1.524 . S
C1851 C1843 1.503 . S
C1851 C1850 1.370 . S
C1851 C1852 1.403 . S
C1852 C1851 1.403 . S
C1852 C1853 1.404 . S
C1852 C1855 1.539 . S
C1853 C1849 1.408 . S
C1853 C1852 1.404 . S
C1853 H1865 0.930 . S
C1854 C1850 1.524 . S
C1854 H1866 0.956 . S
C1854 H1867 0.961 . S
C1854 H1868 0.961 . S
C1855 C1852 1.539 . S
C1855 H1869 0.958 . S
C1855 H1870 0.961 . S
C1855 H1871 0.960 . S
H1856 C1840 0.931 . S
H1857 C1845 0.929 . S
H1858 C1846 0.960 . S
H1859 C1846 0.962 . S
H1860 C1846 0.960 . S
H1861 C1847 0.961 . S
H1862 C1847 0.961 . S
H1863 C1847 0.961 . S
H1864 C1848 0.931 . S
H1865 C1853 0.930 . S
H1866 C1854 0.956 . S
H1867 C1854 0.961 . S
H1868 C1854 0.961 . S
H1869 C1855 0.958 . S
H1870 C1855 0.961 . S
H1871 C1855 0.960 . S
C1872 C1873 1.391 . S
C1872 C1874 1.394 . S
C1872 H1888 0.931 1_455 S
C1873 C1872 1.391 . S
C1873 C1877 1.376 . S
C1874 C1872 1.394 . S
C1874 C1875 1.369 . S
C1874 C1878 1.531 1_455 S
C1875 C1874 1.369 . S
C1875 C1876 1.410 . S
C1875 C1883 1.503 . S
C1876 C1875 1.410 . S
C1876 C1877 1.392 . S
C1876 C1879 1.511 . S
C1877 C1873 1.376 . S
C1877 C1876 1.392 . S
C1877 H1889 0.929 . S
C1878 C1874 1.531 1_655 S
C1878 H1890 0.960 . S
C1878 H1891 0.962 . S
C1878 H1892 0.960 . S
C1879 C1876 1.511 . S
C1879 H1893 0.961 . S
C1879 H1894 0.961 . S
C1879 H1895 0.961 . S
C1880 C1881 1.370 . S
C1880 C1882 1.363 . S
C1880 H1896 0.931 . S
C1881 C1880 1.370 . S
C1881 C1885 1.408 . S
C1882 C1880 1.363 . S
C1882 C1883 1.370 . S
C1882 C1886 1.524 . S
C1883 C1875 1.503 . S
C1883 C1882 1.370 . S
C1883 C1884 1.403 . S
C1884 C1883 1.403 . S
C1884 C1885 1.404 . S
C1884 C1887 1.539 . S
C1885 C1881 1.408 . S
C1885 C1884 1.404 . S
C1885 H1897 0.930 . S
C1886 C1882 1.524 . S
C1886 H1898 0.956 1_455 S
C1886 H1899 0.961 . S
C1886 H1900 0.961 . S
C1887 C1884 1.539 . S
C1887 H1901 0.958 . S
C1887 H1902 0.961 . S
C1887 H1903 0.960 . S
H1888 C1872 0.931 1_655 S
H1889 C1877 0.929 . S
H1890 C1878 0.960 . S
H1891 C1878 0.962 . S
H1892 C1878 0.960 . S
H1893 C1879 0.961 . S
H1894 C1879 0.961 . S
H1895 C1879 0.961 . S
H1896 C1880 0.931 . S
H1897 C1885 0.930 . S
H1898 C1886 0.956 1_655 S
H1899 C1886 0.961 . S
H1900 C1886 0.961 . S
H1901 C1887 0.958 . S
H1902 C1887 0.961 . S
H1903 C1887 0.960 . S
C1904 C1905 1.391 . S
C1904 C1906 1.394 . S
C1904 H1920 0.931 . S
C1905 C1904 1.391 . S
C1905 C1909 1.376 . S
C1906 C1904 1.394 . S
C1906 C1907 1.369 . S
C1906 C1910 1.531 . S
C1907 C1906 1.369 . S
C1907 C1908 1.410 . S
C1907 C1915 1.503 . S
C1908 C1907 1.410 . S
C1908 C1909 1.392 . S
C1908 C1911 1.511 . S
C1909 C1905 1.376 . S
C1909 C1908 1.392 . S
C1909 H1921 0.929 . S
C1910 C1906 1.531 . S
C1910 H1922 0.960 . S
C1910 H1923 0.962 . S
C1910 H1924 0.960 . S
C1911 C1908 1.511 . S
C1911 H1925 0.961 . S
C1911 H1926 0.961 . S
C1911 H1927 0.961 . S
C1912 C1913 1.370 . S
C1912 C1914 1.363 . S
C1912 H1928 0.931 . S
C1913 C1912 1.370 . S
C1913 C1917 1.408 . S
C1914 C1912 1.363 . S
C1914 C1915 1.370 . S
C1914 C1918 1.524 . S
C1915 C1907 1.503 . S
C1915 C1914 1.370 . S
C1915 C1916 1.403 . S
C1916 C1915 1.403 . S
C1916 C1917 1.404 . S
C1916 C1919 1.539 . S
C1917 C1913 1.408 . S
C1917 C1916 1.404 . S
C1917 H1929 0.930 . S
C1918 C1914 1.524 . S
C1918 H1930 0.956 . S
C1918 H1931 0.961 . S
C1918 H1932 0.961 . S
C1919 C1916 1.539 . S
C1919 H1933 0.958 . S
C1919 H1934 0.961 . S
C1919 H1935 0.960 . S
H1920 C1904 0.931 . S
H1921 C1909 0.929 . S
H1922 C1910 0.960 . S
H1923 C1910 0.962 . S
H1924 C1910 0.960 . S
H1925 C1911 0.961 . S
H1926 C1911 0.961 . S
H1927 C1911 0.961 . S
H1928 C1912 0.931 . S
H1929 C1917 0.930 . S
H1930 C1918 0.956 . S
H1931 C1918 0.961 . S
H1932 C1918 0.961 . S
H1933 C1919 0.958 . S
H1934 C1919 0.961 . S
H1935 C1919 0.960 . S
C1936 C1937 1.391 . S
C1936 C1938 1.394 . S
C1936 H1952 0.931 . S
C1937 C1936 1.391 . S
C1937 C1941 1.376 . S
C1938 C1936 1.394 . S
C1938 C1939 1.369 . S
C1938 C1942 1.531 . S
C1939 C1938 1.369 . S
C1939 C1940 1.410 . S
C1939 C1947 1.503 . S
C1940 C1939 1.410 . S
C1940 C1941 1.392 . S
C1940 C1943 1.511 . S
C1941 C1937 1.376 . S
C1941 C1940 1.392 . S
C1941 H1953 0.929 . S
C1942 C1938 1.531 . S
C1942 H1954 0.960 . S
C1942 H1955 0.962 . S
C1942 H1956 0.960 . S
C1943 C1940 1.511 . S
C1943 H1957 0.961 . S
C1943 H1958 0.961 . S
C1943 H1959 0.961 . S
C1944 C1945 1.370 . S
C1944 C1946 1.363 . S
C1944 H1960 0.931 1_556 S
C1945 C1944 1.370 . S
C1945 C1949 1.408 . S
C1946 C1944 1.363 . S
C1946 C1947 1.370 . S
C1946 C1950 1.524 . S
C1947 C1939 1.503 . S
C1947 C1946 1.370 . S
C1947 C1948 1.403 . S
C1948 C1947 1.403 . S
C1948 C1949 1.404 . S
C1948 C1951 1.539 . S
C1949 C1945 1.408 . S
C1949 C1948 1.404 . S
C1949 H1961 0.930 1_565 S
C1950 C1946 1.524 . S
C1950 H1962 0.956 . S
C1950 H1963 0.961 . S
C1950 H1964 0.961 . S
C1951 C1948 1.539 . S
C1951 H1965 0.958 . S
C1951 H1966 0.961 . S
C1951 H1967 0.960 . S
H1952 C1936 0.931 . S
H1953 C1941 0.929 . S
H1954 C1942 0.960 . S
H1955 C1942 0.962 . S
H1956 C1942 0.960 . S
H1957 C1943 0.961 . S
H1958 C1943 0.961 . S
H1959 C1943 0.961 . S
H1960 C1944 0.931 1_554 S
H1961 C1949 0.930 1_545 S
H1962 C1950 0.956 . S
H1963 C1950 0.961 . S
H1964 C1950 0.961 . S
H1965 C1951 0.958 . S
H1966 C1951 0.961 . S
H1967 C1951 0.960 . S
C1968 C1969 1.391 . S
C1968 C1970 1.394 . S
C1968 H1984 0.931 . S
C1969 C1968 1.391 . S
C1969 C1973 1.376 . S
C1970 C1968 1.394 . S
C1970 C1971 1.369 . S
C1970 C1974 1.531 . S
C1971 C1970 1.369 . S
C1971 C1972 1.410 . S
C1971 C1979 1.503 . S
C1972 C1971 1.410 . S
C1972 C1973 1.392 . S
C1972 C1975 1.511 . S
C1973 C1969 1.376 . S
C1973 C1972 1.392 . S
C1973 H1985 0.929 . S
C1974 C1970 1.531 . S
C1974 H1986 0.960 . S
C1974 H1987 0.962 . S
C1974 H1988 0.960 . S
C1975 C1972 1.511 . S
C1975 H1989 0.961 . S
C1975 H1990 0.961 . S
C1975 H1991 0.961 . S
C1976 C1977 1.370 . S
C1976 C1978 1.363 . S
C1976 H1992 0.931 . S
C1977 C1976 1.370 . S
C1977 C1981 1.408 . S
C1978 C1976 1.363 . S
C1978 C1979 1.370 . S
C1978 C1982 1.524 . S
C1979 C1971 1.503 . S
C1979 C1978 1.370 . S
C1979 C1980 1.403 . S
C1980 C1979 1.403 . S
C1980 C1981 1.404 . S
C1980 C1983 1.539 . S
C1981 C1977 1.408 . S
C1981 C1980 1.404 . S
C1981 H1993 0.930 . S
C1982 C1978 1.524 . S
C1982 H1994 0.956 . S
C1982 H1995 0.961 . S
C1982 H1996 0.961 . S
C1983 C1980 1.539 . S
C1983 H1997 0.958 . S
C1983 H1998 0.961 . S
C1983 H1999 0.960 . S
H1984 C1968 0.931 . S
H1985 C1973 0.929 . S
H1986 C1974 0.960 . S
H1987 C1974 0.962 . S
H1988 C1974 0.960 . S
H1989 C1975 0.961 . S
H1990 C1975 0.961 . S
H1991 C1975 0.961 . S
H1992 C1976 0.931 . S
H1993 C1981 0.930 . S
H1994 C1982 0.956 . S
H1995 C1982 0.961 . S
H1996 C1982 0.961 . S
H1997 C1983 0.958 . S
H1998 C1983 0.961 . S
H1999 C1983 0.960 . S
C2000 C2001 1.391 . S
C2000 C2002 1.394 . S
C2000 H2016 0.931 . S
C2001 C2000 1.391 . S
C2001 C2005 1.376 . S
C2002 C2000 1.394 . S
C2002 C2003 1.369 . S
C2002 C2006 1.531 . S
C2003 C2002 1.369 . S
C2003 C2004 1.410 . S
C2003 C2011 1.503 . S
C2004 C2003 1.410 . S
C2004 C2005 1.392 . S
C2004 C2007 1.511 . S
C2005 C2001 1.376 . S
C2005 C2004 1.392 . S
C2005 H2017 0.929 . S
C2006 C2002 1.531 . S
C2006 H2018 0.960 . S
C2006 H2019 0.962 . S
C2006 H2020 0.960 . S
C2007 C2004 1.511 . S
C2007 H2021 0.961 . S
C2007 H2022 0.961 . S
C2007 H2023 0.961 . S
C2008 C2009 1.370 . S
C2008 C2010 1.363 . S
C2008 H2024 0.931 . S
C2009 C2008 1.370 . S
C2009 C2013 1.408 . S
C2010 C2008 1.363 . S
C2010 C2011 1.370 . S
C2010 C2014 1.524 . S
C2011 C2003 1.503 . S
C2011 C2010 1.370 . S
C2011 C2012 1.403 . S
C2012 C2011 1.403 . S
C2012 C2013 1.404 . S
C2012 C2015 1.539 . S
C2013 C2009 1.408 . S
C2013 C2012 1.404 . S
C2013 H2025 0.930 . S
C2014 C2010 1.524 . S
C2014 H2026 0.956 . S
C2014 H2027 0.961 . S
C2014 H2028 0.961 . S
C2015 C2012 1.539 . S
C2015 H2029 0.958 1_545 S
C2015 H2030 0.943 1_545 S
C2015 H2031 0.960 . S
H2016 C2000 0.931 . S
H2017 C2005 0.929 . S
H2018 C2006 0.960 . S
H2019 C2006 0.962 . S
H2020 C2006 0.960 . S
H2021 C2007 0.961 . S
H2022 C2007 0.961 . S
H2023 C2007 0.961 . S
H2024 C2008 0.931 . S
H2025 C2013 0.930 . S
H2026 C2014 0.956 . S
H2027 C2014 0.961 . S
H2028 C2014 0.961 . S
H2029 C2015 0.958 1_565 S
H2030 C2015 0.943 1_565 S
H2031 C2015 0.960 . S
C2032 C2033 1.391 . S
C2032 C2034 1.394 . S
C2032 H2048 0.931 . S
C2033 C2032 1.391 . S
C2033 C2037 1.376 . S
C2034 C2032 1.394 . S
C2034 C2035 1.369 . S
C2034 C2038 1.531 . S
C2035 C2034 1.369 . S
C2035 C2036 1.410 . S
C2035 C2043 1.503 . S
C2036 C2035 1.410 . S
C2036 C2037 1.392 . S
C2036 C2039 1.511 . S
C2037 C2033 1.376 . S
C2037 C2036 1.392 . S
C2037 H2049 0.929 . S
C2038 C2034 1.531 . S
C2038 H2050 0.960 . S
C2038 H2051 0.962 . S
C2038 H2052 0.960 . S
C2039 C2036 1.511 . S
C2039 H2053 0.961 . S
C2039 H2054 0.961 . S
C2039 H2055 0.961 . S
C2040 C2041 1.370 . S
C2040 C2042 1.363 . S
C2040 H2056 0.931 . S
C2041 C2040 1.370 . S
C2041 C2045 1.408 . S
C2042 C2040 1.363 . S
C2042 C2043 1.370 . S
C2042 C2046 1.524 . S
C2043 C2035 1.503 . S
C2043 C2042 1.370 . S
C2043 C2044 1.403 . S
C2044 C2043 1.403 . S
C2044 C2045 1.404 . S
C2044 C2047 1.539 . S
C2045 C2041 1.408 . S
C2045 C2044 1.404 . S
C2045 H2057 0.930 . S
C2046 C2042 1.524 . S
C2046 H2058 0.956 . S
C2046 H2059 0.961 . S
C2046 H2060 0.961 . S
C2047 C2044 1.539 . S
C2047 H2061 0.958 . S
C2047 H2062 0.961 . S
C2047 H2063 0.960 . S
H2048 C2032 0.931 . S
H2049 C2037 0.929 . S
H2050 C2038 0.960 . S
H2051 C2038 0.962 . S
H2052 C2038 0.960 . S
H2053 C2039 0.961 . S
H2054 C2039 0.961 . S
H2055 C2039 0.961 . S
H2056 C2040 0.931 . S
H2057 C2045 0.930 . S
H2058 C2046 0.956 . S
H2059 C2046 0.961 . S
H2060 C2046 0.961 . S
H2061 C2047 0.958 . S
H2062 C2047 0.961 . S
H2063 C2047 0.960 . S
C2064 C2065 1.391 . S
C2064 C2066 1.394 . S
C2064 H2080 0.931 . S
C2065 C2064 1.391 . S
C2065 C2069 1.376 1_545 S
C2066 C2064 1.394 . S
C2066 C2067 1.369 . S
C2066 C2070 1.531 . S
C2067 C2066 1.369 . S
C2067 C2068 1.410 . S
C2067 C2075 1.503 . S
C2068 C2067 1.410 . S
C2068 C2069 1.392 1_545 S
C2068 C2071 1.511 1_545 S
C2069 C2065 1.376 1_565 S
C2069 C2068 1.392 1_565 S
C2069 H2081 0.929 . S
C2070 C2066 1.531 . S
C2070 H2082 0.960 . S
C2070 H2083 0.962 . S
C2070 H2084 0.960 . S
C2071 C2068 1.511 1_565 S
C2071 H2085 0.961 . S
C2071 H2086 0.961 . S
C2071 H2087 0.988 . S
C2072 C2073 1.370 . S
C2072 C2074 1.363 . S
C2072 H2088 0.931 . S
C2073 C2072 1.370 . S
C2073 C2077 1.408 . S
C2074 C2072 1.363 . S
C2074 C2075 1.370 . S
C2074 C2078 1.524 1_545 S
C2075 C2067 1.503 . S
C2075 C2074 1.370 . S
C2075 C2076 1.403 . S
C2076 C2075 1.403 . S
C2076 C2077 1.404 . S
C2076 C2079 1.539 . S
C2077 C2073 1.408 . S
C2077 C2076 1.404 . S
C2077 H2089 0.930 . S
C2078 C2074 1.524 1_565 S
C2078 H2090 0.956 1_565 S
C2078 H2091 0.961 . S
C2078 H2092 0.961 . S
C2079 C2076 1.539 . S
C2079 H2093 0.958 . S
C2079 H2094 0.961 . S
C2079 H2095 0.960 . S
H2080 C2064 0.931 . S
H2081 C2069 0.929 . S
H2082 C2070 0.960 . S
H2083 C2070 0.962 . S
H2084 C2070 0.960 . S
H2085 C2071 0.961 . S
H2086 C2071 0.961 . S
H2087 C2071 0.988 . S
H2088 C2072 0.931 . S
H2089 C2077 0.930 . S
H2090 C2078 0.956 1_545 S
H2091 C2078 0.961 . S
H2092 C2078 0.961 . S
H2093 C2079 0.958 . S
H2094 C2079 0.961 . S
H2095 C2079 0.960 . S
C2096 C2097 1.391 . S
C2096 C2098 1.394 . S
C2096 H2112 0.931 . S
C2097 C2096 1.391 . S
C2097 C2101 1.376 . S
C2098 C2096 1.394 . S
C2098 C2099 1.369 . S
C2098 C2102 1.531 . S
C2099 C2098 1.369 . S
C2099 C2100 1.410 . S
C2099 C2107 1.503 . S
C2100 C2099 1.410 . S
C2100 C2101 1.392 . S
C2100 C2103 1.511 . S
C2101 C2097 1.376 . S
C2101 C2100 1.392 . S
C2101 H2113 0.929 . S
C2102 C2098 1.531 . S
C2102 H2114 0.960 . S
C2102 H2115 0.962 . S
C2102 H2116 0.960 . S
C2103 C2100 1.511 . S
C2103 H2117 0.961 . S
C2103 H2118 0.961 . S
C2103 H2119 0.961 . S
C2104 C2105 1.370 . S
C2104 C2106 1.363 . S
C2104 H2120 0.931 . S
C2105 C2104 1.370 . S
C2105 C2109 1.408 . S
C2106 C2104 1.363 . S
C2106 C2107 1.370 . S
C2106 C2110 1.524 . S
C2107 C2099 1.503 . S
C2107 C2106 1.370 . S
C2107 C2108 1.403 . S
C2108 C2107 1.403 . S
C2108 C2109 1.404 . S
C2108 C2111 1.539 . S
C2109 C2105 1.408 . S
C2109 C2108 1.404 . S
C2109 H2121 0.930 . S
C2110 C2106 1.524 . S
C2110 H2122 0.956 . S
C2110 H2123 0.961 . S
C2110 H2124 0.961 . S
C2111 C2108 1.539 . S
C2111 H2125 0.958 . S
C2111 H2126 0.961 . S
C2111 H2127 0.960 . S
H2112 C2096 0.931 . S
H2113 C2101 0.929 . S
H2114 C2102 0.960 . S
H2115 C2102 0.962 . S
H2116 C2102 0.960 . S
H2117 C2103 0.961 . S
H2118 C2103 0.961 . S
H2119 C2103 0.961 . S
H2120 C2104 0.931 . S
H2121 C2109 0.930 . S
H2122 C2110 0.956 . S
H2123 C2110 0.961 . S
H2124 C2110 0.961 . S
H2125 C2111 0.958 . S
H2126 C2111 0.961 . S
H2127 C2111 0.960 . S
C2128 C2129 1.391 . S
C2128 C2130 1.394 . S
C2128 H2144 0.931 . S
C2129 C2128 1.391 . S
C2129 C2133 1.376 . S
C2130 C2128 1.394 . S
C2130 C2131 1.369 . S
C2130 C2134 1.531 . S
C2131 C2130 1.369 . S
C2131 C2132 1.410 . S
C2131 C2139 1.503 . S
C2132 C2131 1.410 . S
C2132 C2133 1.392 . S
C2132 C2135 1.511 . S
C2133 C2129 1.376 . S
C2133 C2132 1.392 . S
C2133 H2145 0.929 . S
C2134 C2130 1.531 . S
C2134 H2146 0.960 . S
C2134 H2147 0.962 . S
C2134 H2148 0.960 . S
C2135 C2132 1.511 . S
C2135 H2149 0.961 . S
C2135 H2150 0.961 . S
C2135 H2151 0.961 . S
C2136 C2137 1.370 . S
C2136 C2138 1.363 . S
C2136 H2152 0.931 . S
C2137 C2136 1.370 . S
C2137 C2141 1.408 . S
C2138 C2136 1.363 . S
C2138 C2139 1.370 . S
C2138 C2142 1.524 . S
C2139 C2131 1.503 . S
C2139 C2138 1.370 . S
C2139 C2140 1.403 . S
C2140 C2139 1.403 . S
C2140 C2141 1.404 . S
C2140 C2143 1.539 1_545 S
C2141 C2137 1.408 . S
C2141 C2140 1.404 . S
C2141 H2153 0.930 . S
C2142 C2138 1.524 . S
C2142 H2154 0.956 . S
C2142 H2155 0.961 . S
C2142 H2156 0.961 . S
C2143 C2140 1.539 1_565 S
C2143 H2157 0.958 . S
C2143 H2158 0.961 . S
C2143 H2159 0.960 . S
H2144 C2128 0.931 . S
H2145 C2133 0.929 . S
H2146 C2134 0.960 . S
H2147 C2134 0.962 . S
H2148 C2134 0.960 . S
H2149 C2135 0.961 . S
H2150 C2135 0.961 . S
H2151 C2135 0.961 . S
H2152 C2136 0.931 . S
H2153 C2141 0.930 . S
H2154 C2142 0.956 . S
H2155 C2142 0.961 . S
H2156 C2142 0.961 . S
H2157 C2143 0.958 . S
H2158 C2143 0.961 . S
H2159 C2143 0.960 . S
C2160 C2161 1.391 . S
C2160 C2162 1.394 . S
C2160 H2176 0.931 . S
C2161 C2160 1.391 . S
C2161 C2165 1.376 . S
C2162 C2160 1.394 . S
C2162 C2163 1.369 . S
C2162 C2166 1.531 . S
C2163 C2162 1.369 . S
C2163 C2164 1.410 . S
C2163 C2171 1.503 . S
C2164 C2163 1.410 . S
C2164 C2165 1.392 . S
C2164 C2167 1.511 . S
C2165 C2161 1.376 . S
C2165 C2164 1.392 . S
C2165 H2177 0.929 . S
C2166 C2162 1.531 . S
C2166 H2178 0.960 . S
C2166 H2179 0.962 . S
C2166 H2180 0.960 . S
C2167 C2164 1.511 . S
C2167 H2181 0.961 . S
C2167 H2182 0.961 . S
C2167 H2183 0.961 . S
C2168 C2169 1.370 . S
C2168 C2170 1.363 . S
C2168 H2184 0.931 . S
C2169 C2168 1.370 . S
C2169 C2173 1.408 . S
C2170 C2168 1.363 . S
C2170 C2171 1.370 . S
C2170 C2174 1.524 . S
C2171 C2163 1.503 . S
C2171 C2170 1.370 . S
C2171 C2172 1.403 . S
C2172 C2171 1.403 . S
C2172 C2173 1.404 . S
C2172 C2175 1.539 . S
C2173 C2169 1.408 . S
C2173 C2172 1.404 . S
C2173 H2185 0.930 . S
C2174 C2170 1.524 . S
C2174 H2186 0.956 . S
C2174 H2187 0.961 . S
C2174 H2188 0.961 . S
C2175 C2172 1.539 . S
C2175 H2189 0.958 . S
C2175 H2190 0.961 . S
C2175 H2191 0.960 . S
H2176 C2160 0.931 . S
H2177 C2165 0.929 . S
H2178 C2166 0.960 . S
H2179 C2166 0.962 . S
H2180 C2166 0.960 . S
H2181 C2167 0.961 . S
H2182 C2167 0.961 . S
H2183 C2167 0.961 . S
H2184 C2168 0.931 . S
H2185 C2173 0.930 . S
H2186 C2174 0.956 . S
H2187 C2174 0.961 . S
H2188 C2174 0.961 . S
H2189 C2175 0.958 . S
H2190 C2175 0.961 . S
H2191 C2175 0.960 . S
C2192 C2193 1.391 . S
C2192 C2194 1.394 . S
C2192 H2208 0.931 . S
C2193 C2192 1.391 . S
C2193 C2197 1.376 1_545 S
C2194 C2192 1.394 . S
C2194 C2195 1.369 . S
C2194 C2198 1.531 . S
C2195 C2194 1.369 . S
C2195 C2196 1.410 1_545 S
C2195 C2203 1.503 1_545 S
C2196 C2195 1.410 1_565 S
C2196 C2197 1.392 . S
C2196 C2199 1.511 . S
C2197 C2193 1.376 1_565 S
C2197 C2196 1.392 . S
C2197 H2209 0.929 . S
C2198 C2194 1.531 . S
C2198 H2210 0.960 . S
C2198 H2211 0.962 . S
C2198 H2212 0.960 . S
C2199 C2196 1.511 . S
C2199 H2213 0.961 . S
C2199 H2214 0.961 . S
C2199 H2215 0.961 . S
C2200 C2201 1.370 . S
C2200 C2202 1.363 . S
C2200 H2216 0.931 . S
C2201 C2200 1.370 . S
C2201 C2205 1.408 1_565 S
C2202 C2200 1.363 . S
C2202 C2203 1.370 . S
C2202 C2206 1.524 . S
C2203 C2195 1.503 1_565 S
C2203 C2202 1.370 . S
C2203 C2204 1.403 1_565 S
C2204 C2203 1.403 1_545 S
C2204 C2205 1.404 . S
C2204 C2207 1.539 . S
C2205 C2201 1.408 1_545 S
C2205 C2204 1.404 . S
C2205 H2217 0.930 . S
C2206 C2202 1.524 . S
C2206 H2218 0.956 . S
C2206 H2219 0.961 . S
C2206 H2220 0.961 . S
C2207 C2204 1.539 . S
C2207 H2221 0.958 . S
C2207 H2222 0.961 . S
C2207 H2223 0.960 . S
H2208 C2192 0.931 . S
H2209 C2197 0.929 . S
H2210 C2198 0.960 . S
H2211 C2198 0.962 . S
H2212 C2198 0.960 . S
H2213 C2199 0.961 . S
H2214 C2199 0.961 . S
H2215 C2199 0.961 . S
H2216 C2200 0.931 . S
H2217 C2205 0.930 . S
H2218 C2206 0.956 . S
H2219 C2206 0.961 . S
H2220 C2206 0.961 . S
H2221 C2207 0.958 . S
H2222 C2207 0.961 . S
H2223 C2207 0.960 . S
C2224 C2225 1.391 . S
C2224 C2226 1.394 . S
C2224 H2240 0.931 . S
C2225 C2224 1.391 . S
C2225 C2229 1.376 . S
C2226 C2224 1.394 . S
C2226 C2227 1.369 . S
C2226 C2230 1.531 . S
C2227 C2226 1.369 . S
C2227 C2228 1.410 . S
C2227 C2235 1.503 . S
C2228 C2227 1.410 . S
C2228 C2229 1.392 . S
C2228 C2231 1.511 . S
C2229 C2225 1.376 . S
C2229 C2228 1.392 . S
C2229 H2241 0.929 . S
C2230 C2226 1.531 . S
C2230 H2242 0.960 . S
C2230 H2243 0.962 . S
C2230 H2244 0.960 . S
C2231 C2228 1.511 . S
C2231 H2245 0.961 . S
C2231 H2246 0.961 . S
C2231 H2247 0.961 . S
C2232 C2233 1.370 . S
C2232 C2234 1.363 . S
C2232 H2248 0.931 . S
C2233 C2232 1.370 . S
C2233 C2237 1.408 . S
C2234 C2232 1.363 . S
C2234 C2235 1.370 . S
C2234 C2238 1.524 . S
C2235 C2227 1.503 . S
C2235 C2234 1.370 . S
C2235 C2236 1.403 . S
C2236 C2235 1.403 . S
C2236 C2237 1.404 . S
C2236 C2239 1.539 . S
C2237 C2233 1.408 . S
C2237 C2236 1.404 . S
C2237 H2249 0.930 . S
C2238 C2234 1.524 . S
C2238 H2250 0.956 . S
C2238 H2251 0.961 . S
C2238 H2252 0.961 . S
C2239 C2236 1.539 . S
C2239 H2253 0.958 . S
C2239 H2254 0.961 . S
C2239 H2255 0.960 . S
H2240 C2224 0.931 . S
H2241 C2229 0.929 . S
H2242 C2230 0.960 . S
H2243 C2230 0.962 . S
H2244 C2230 0.960 . S
H2245 C2231 0.961 . S
H2246 C2231 0.961 . S
H2247 C2231 0.961 . S
H2248 C2232 0.931 . S
H2249 C2237 0.930 . S
H2250 C2238 0.956 . S
H2251 C2238 0.961 . S
H2252 C2238 0.961 . S
H2253 C2239 0.958 . S
H2254 C2239 0.961 . S
H2255 C2239 0.960 . S
C2256 C2257 1.391 . S
C2256 C2258 1.394 . S
C2256 H2272 0.931 . S
C2257 C2256 1.391 . S
C2257 C2261 1.376 . S
C2258 C2256 1.394 . S
C2258 C2259 1.369 . S
C2258 C2262 1.531 . S
C2259 C2258 1.369 . S
C2259 C2260 1.410 . S
C2259 C2267 1.503 . S
C2260 C2259 1.410 . S
C2260 C2261 1.392 . S
C2260 C2263 1.511 . S
C2261 C2257 1.376 . S
C2261 C2260 1.392 . S
C2261 H2273 0.929 . S
C2262 C2258 1.531 . S
C2262 H2274 0.960 . S
C2262 H2275 0.962 . S
C2262 H2276 0.960 . S
C2263 C2260 1.511 . S
C2263 H2277 0.961 1_554 S
C2263 H2278 0.953 1_554 S
C2263 H2279 0.961 1_554 S
C2264 C2265 1.370 . S
C2264 C2266 1.363 . S
C2264 H2280 0.931 . S
C2265 C2264 1.370 . S
C2265 C2269 1.408 . S
C2266 C2264 1.363 . S
C2266 C2267 1.370 . S
C2266 C2270 1.524 . S
C2267 C2259 1.503 . S
C2267 C2266 1.370 . S
C2267 C2268 1.403 . S
C2268 C2267 1.403 . S
C2268 C2269 1.404 . S
C2268 C2271 1.539 . S
C2269 C2265 1.408 . S
C2269 C2268 1.404 . S
C2269 H2281 0.930 . S
C2270 C2266 1.524 . S
C2270 H2282 0.956 . S
C2270 H2283 0.961 . S
C2270 H2284 0.961 . S
C2271 C2268 1.539 . S
C2271 H2285 0.958 . S
C2271 H2286 0.961 . S
C2271 H2287 0.960 . S
H2272 C2256 0.931 . S
H2273 C2261 0.929 . S
H2274 C2262 0.960 . S
H2275 C2262 0.962 . S
H2276 C2262 0.960 . S
H2277 C2263 0.961 1_556 S
H2278 C2263 0.953 1_556 S
H2279 C2263 0.961 1_556 S
H2280 C2264 0.931 . S
H2281 C2269 0.930 . S
H2282 C2270 0.956 . S
H2283 C2270 0.961 . S
H2284 C2270 0.961 . S
H2285 C2271 0.958 . S
H2286 C2271 0.961 . S
H2287 C2271 0.960 . S
C2288 C2289 1.391 . S
C2288 C2290 1.394 . S
C2288 H2304 0.931 . S
C2289 C2288 1.391 . S
C2289 C2293 1.376 . S
C2290 C2288 1.394 . S
C2290 C2291 1.369 . S
C2290 C2294 1.531 . S
C2291 C2290 1.369 . S
C2291 C2292 1.410 . S
C2291 C2299 1.503 . S
C2292 C2291 1.410 . S
C2292 C2293 1.392 . S
C2292 C2295 1.511 . S
C2293 C2289 1.376 . S
C2293 C2292 1.392 . S
C2293 H2305 0.929 . S
C2294 C2290 1.531 . S
C2294 H2306 0.960 . S
C2294 H2307 0.962 . S
C2294 H2308 0.960 . S
C2295 C2292 1.511 . S
C2295 H2309 0.961 . S
C2295 H2310 0.961 . S
C2295 H2311 0.961 . S
C2296 C2297 1.370 . S
C2296 C2298 1.363 . S
C2296 H2312 0.931 . S
C2297 C2296 1.370 . S
C2297 C2301 1.408 . S
C2298 C2296 1.363 . S
C2298 C2299 1.370 . S
C2298 C2302 1.524 . S
C2299 C2291 1.503 . S
C2299 C2298 1.370 . S
C2299 C2300 1.403 . S
C2300 C2299 1.403 . S
C2300 C2301 1.404 . S
C2300 C2303 1.539 . S
C2301 C2297 1.408 . S
C2301 C2300 1.404 . S
C2301 H2313 0.930 . S
C2302 C2298 1.524 . S
C2302 H2314 0.956 . S
C2302 H2315 0.961 1_554 S
C2302 H2316 0.961 1_554 S
C2303 C2300 1.539 . S
C2303 H2317 0.958 . S
C2303 H2318 0.961 . S
C2303 H2319 0.960 . S
H2304 C2288 0.931 . S
H2305 C2293 0.929 . S
H2306 C2294 0.960 . S
H2307 C2294 0.962 . S
H2308 C2294 0.960 . S
H2309 C2295 0.961 . S
H2310 C2295 0.961 . S
H2311 C2295 0.961 . S
H2312 C2296 0.931 . S
H2313 C2301 0.930 . S
H2314 C2302 0.956 . S
H2315 C2302 0.961 1_556 S
H2316 C2302 0.961 1_556 S
H2317 C2303 0.958 . S
H2318 C2303 0.961 . S
H2319 C2303 0.960 . S
C2320 C2321 1.391 . S
C2320 C2322 1.394 . S
C2320 H2336 0.931 . S
C2321 C2320 1.391 . S
C2321 C2325 1.376 . S
C2322 C2320 1.394 . S
C2322 C2323 1.369 . S
C2322 C2326 1.531 . S
C2323 C2322 1.369 . S
C2323 C2324 1.410 . S
C2323 C2331 1.503 . S
C2324 C2323 1.410 . S
C2324 C2325 1.392 . S
C2324 C2327 1.511 . S
C2325 C2321 1.376 . S
C2325 C2324 1.392 . S
C2325 H2337 0.929 . S
C2326 C2322 1.531 . S
C2326 H2338 0.960 . S
C2326 H2339 0.962 . S
C2326 H2340 0.960 . S
C2327 C2324 1.511 . S
C2327 H2341 0.961 . S
C2327 H2342 0.961 . S
C2327 H2343 0.961 . S
C2328 C2329 1.370 . S
C2328 C2330 1.363 . S
C2328 H2344 0.931 . S
C2329 C2328 1.370 . S
C2329 C2333 1.408 . S
C2330 C2328 1.363 . S
C2330 C2331 1.370 . S
C2330 C2334 1.524 . S
C2331 C2323 1.503 . S
C2331 C2330 1.370 . S
C2331 C2332 1.403 . S
C2332 C2331 1.403 . S
C2332 C2333 1.404 . S
C2332 C2335 1.539 . S
C2333 C2329 1.408 . S
C2333 C2332 1.404 . S
C2333 H2345 0.930 . S
C2334 C2330 1.524 . S
C2334 H2346 0.956 . S
C2334 H2347 0.961 . S
C2334 H2348 0.961 . S
C2335 C2332 1.539 . S
C2335 H2349 0.958 . S
C2335 H2350 0.961 . S
C2335 H2351 0.960 . S
H2336 C2320 0.931 . S
H2337 C2325 0.929 . S
H2338 C2326 0.960 . S
H2339 C2326 0.962 . S
H2340 C2326 0.960 . S
H2341 C2327 0.961 . S
H2342 C2327 0.961 . S
H2343 C2327 0.961 . S
H2344 C2328 0.931 . S
H2345 C2333 0.930 . S
H2346 C2334 0.956 . S
H2347 C2334 0.961 . S
H2348 C2334 0.961 . S
H2349 C2335 0.958 . S
H2350 C2335 0.961 . S
H2351 C2335 0.960 . S
C2352 C2353 1.391 . S
C2352 C2354 1.394 . S
C2352 H2368 0.931 . S
C2353 C2352 1.391 . S
C2353 C2357 1.376 . S
C2354 C2352 1.394 . S
C2354 C2355 1.369 . S
C2354 C2358 1.531 . S
C2355 C2354 1.369 . S
C2355 C2356 1.410 . S
C2355 C2363 1.503 . S
C2356 C2355 1.410 . S
C2356 C2357 1.392 . S
C2356 C2359 1.511 . S
C2357 C2353 1.376 . S
C2357 C2356 1.392 . S
C2357 H2369 0.929 . S
C2358 C2354 1.531 . S
C2358 H2370 0.960 . S
C2358 H2371 0.962 . S
C2358 H2372 0.960 . S
C2359 C2356 1.511 . S
C2359 H2373 0.961 . S
C2359 H2374 0.961 . S
C2359 H2375 0.961 . S
C2360 C2361 1.370 . S
C2360 C2362 1.363 . S
C2360 H2376 0.931 . S
C2361 C2360 1.370 . S
C2361 C2365 1.408 . S
C2362 C2360 1.363 . S
C2362 C2363 1.370 . S
C2362 C2366 1.524 . S
C2363 C2355 1.503 . S
C2363 C2362 1.370 . S
C2363 C2364 1.403 . S
C2364 C2363 1.403 . S
C2364 C2365 1.404 . S
C2364 C2367 1.539 . S
C2365 C2361 1.408 . S
C2365 C2364 1.404 . S
C2365 H2377 0.930 . S
C2366 C2362 1.524 . S
C2366 H2378 0.956 . S
C2366 H2379 0.961 . S
C2366 H2380 0.961 . S
C2367 C2364 1.539 . S
C2367 H2381 0.958 . S
C2367 H2382 0.961 . S
C2367 H2383 0.960 . S
H2368 C2352 0.931 . S
H2369 C2357 0.929 . S
H2370 C2358 0.960 . S
H2371 C2358 0.962 . S
H2372 C2358 0.960 . S
H2373 C2359 0.961 . S
H2374 C2359 0.961 . S
H2375 C2359 0.961 . S
H2376 C2360 0.931 . S
H2377 C2365 0.930 . S
H2378 C2366 0.956 . S
H2379 C2366 0.961 . S
H2380 C2366 0.961 . S
H2381 C2367 0.958 . S
H2382 C2367 0.961 . S
H2383 C2367 0.960 . S
C2384 C2385 1.391 . S
C2384 C2386 1.394 . S
C2384 H2400 0.931 . S
C2385 C2384 1.391 . S
C2385 C2389 1.376 . S
C2386 C2384 1.394 . S
C2386 C2387 1.369 1_545 S
C2386 C2390 1.536 . S
C2387 C2386 1.369 1_565 S
C2387 C2388 1.410 . S
C2387 C2395 1.503 . S
C2388 C2387 1.410 . S
C2388 C2389 1.392 1_565 S
C2388 C2391 1.511 . S
C2389 C2385 1.376 . S
C2389 C2388 1.392 1_545 S
C2389 H2401 0.929 . S
C2390 C2386 1.536 . S
C2390 H2402 0.934 1_545 S
C2390 H2403 0.970 . S
C2390 H2404 0.974 . S
C2391 C2388 1.511 . S
C2391 H2405 0.961 . S
C2391 H2406 0.961 . S
C2391 H2407 0.961 . S
C2392 C2393 1.370 . S
C2392 C2394 1.363 . S
C2392 H2408 0.931 . S
C2393 C2392 1.370 . S
C2393 C2397 1.408 . S
C2394 C2392 1.363 . S
C2394 C2395 1.370 . S
C2394 C2398 1.524 1_565 S
C2395 C2387 1.503 . S
C2395 C2394 1.370 . S
C2395 C2396 1.403 . S
C2396 C2395 1.403 . S
C2396 C2397 1.404 . S
C2396 C2399 1.539 . S
C2397 C2393 1.408 . S
C2397 C2396 1.404 . S
C2397 H2409 0.930 . S
C2398 C2394 1.524 1_545 S
C2398 H2410 0.956 . S
C2398 H2411 0.961 . S
C2398 H2412 0.961 . S
C2399 C2396 1.539 . S
C2399 H2413 0.958 . S
C2399 H2414 0.961 . S
C2399 H2415 0.960 . S
H2400 C2384 0.931 . S
H2401 C2389 0.929 . S
H2402 C2390 0.934 1_565 S
H2403 C2390 0.970 . S
H2404 C2390 0.974 . S
H2405 C2391 0.961 . S
H2406 C2391 0.961 . S
H2407 C2391 0.961 . S
H2408 C2392 0.931 . S
H2409 C2397 0.930 . S
H2410 C2398 0.956 . S
H2411 C2398 0.961 . S
H2412 C2398 0.961 . S
H2413 C2399 0.958 . S
H2414 C2399 0.961 . S
H2415 C2399 0.960 . S
C2416 C2417 1.391 . S
C2416 C2418 1.394 . S
C2416 H2432 0.931 . S
C2417 C2416 1.391 . S
C2417 C2421 1.376 . S
C2418 C2416 1.394 . S
C2418 C2419 1.369 . S
C2418 C2422 1.531 . S
C2419 C2418 1.369 . S
C2419 C2420 1.410 . S
C2419 C2427 1.503 . S
C2420 C2419 1.410 . S
C2420 C2421 1.392 . S
C2420 C2423 1.511 . S
C2421 C2417 1.376 . S
C2421 C2420 1.392 . S
C2421 H2433 0.929 . S
C2422 C2418 1.531 . S
C2422 H2434 0.960 . S
C2422 H2435 0.962 . S
C2422 H2436 0.960 . S
C2423 C2420 1.511 . S
C2423 H2437 0.961 . S
C2423 H2438 0.961 . S
C2423 H2439 0.961 . S
C2424 C2425 1.370 . S
C2424 C2426 1.363 . S
C2424 H2440 0.931 . S
C2425 C2424 1.370 . S
C2425 C2429 1.408 . S
C2426 C2424 1.363 . S
C2426 C2427 1.370 . S
C2426 C2430 1.524 . S
C2427 C2419 1.503 . S
C2427 C2426 1.370 . S
C2427 C2428 1.403 . S
C2428 C2427 1.403 . S
C2428 C2429 1.404 . S
C2428 C2431 1.539 . S
C2429 C2425 1.408 . S
C2429 C2428 1.404 . S
C2429 H2441 0.930 . S
C2430 C2426 1.524 . S
C2430 H2442 0.956 . S
C2430 H2443 0.961 . S
C2430 H2444 0.961 . S
C2431 C2428 1.539 . S
C2431 H2445 0.958 . S
C2431 H2446 0.961 . S
C2431 H2447 0.960 . S
H2432 C2416 0.931 . S
H2433 C2421 0.929 . S
H2434 C2422 0.960 . S
H2435 C2422 0.962 . S
H2436 C2422 0.960 . S
H2437 C2423 0.961 . S
H2438 C2423 0.961 . S
H2439 C2423 0.961 . S
H2440 C2424 0.931 . S
H2441 C2429 0.930 . S
H2442 C2430 0.956 . S
H2443 C2430 0.961 . S
H2444 C2430 0.961 . S
H2445 C2431 0.958 . S
H2446 C2431 0.961 . S
H2447 C2431 0.960 . S
C2448 C2449 1.391 . S
C2448 C2450 1.394 . S
C2448 H2464 0.931 . S
C2449 C2448 1.391 . S
C2449 C2453 1.376 . S
C2450 C2448 1.394 . S
C2450 C2451 1.369 . S
C2450 C2454 1.531 . S
C2451 C2450 1.369 . S
C2451 C2452 1.410 . S
C2451 C2459 1.503 . S
C2452 C2451 1.410 . S
C2452 C2453 1.392 . S
C2452 C2455 1.511 . S
C2453 C2449 1.376 . S
C2453 C2452 1.392 . S
C2453 H2465 0.929 . S
C2454 C2450 1.531 . S
C2454 H2466 0.960 . S
C2454 H2467 0.962 . S
C2454 H2468 0.960 . S
C2455 C2452 1.511 . S
C2455 H2469 0.961 . S
C2455 H2470 0.961 . S
C2455 H2471 0.961 . S
C2456 C2457 1.370 . S
C2456 C2458 1.363 . S
C2456 H2472 0.931 . S
C2457 C2456 1.370 . S
C2457 C2461 1.408 . S
C2458 C2456 1.363 . S
C2458 C2459 1.370 . S
C2458 C2462 1.524 . S
C2459 C2451 1.503 . S
C2459 C2458 1.370 . S
C2459 C2460 1.403 . S
C2460 C2459 1.403 . S
C2460 C2461 1.404 . S
C2460 C2463 1.539 . S
C2461 C2457 1.408 . S
C2461 C2460 1.404 . S
C2461 H2473 0.930 . S
C2462 C2458 1.524 . S
C2462 H2474 0.956 . S
C2462 H2475 0.961 . S
C2462 H2476 0.961 . S
C2463 C2460 1.539 . S
C2463 H2477 0.958 . S
C2463 H2478 0.961 . S
C2463 H2479 0.960 . S
H2464 C2448 0.931 . S
H2465 C2453 0.929 . S
H2466 C2454 0.960 . S
H2467 C2454 0.962 . S
H2468 C2454 0.960 . S
H2469 C2455 0.961 . S
H2470 C2455 0.961 . S
H2471 C2455 0.961 . S
H2472 C2456 0.931 . S
H2473 C2461 0.930 . S
H2474 C2462 0.956 . S
H2475 C2462 0.961 . S
H2476 C2462 0.961 . S
H2477 C2463 0.958 . S
H2478 C2463 0.961 . S
H2479 C2463 0.960 . S
C2480 C2481 1.391 . S
C2480 C2482 1.394 . S
C2480 H2496 0.931 . S
C2481 C2480 1.391 . S
C2481 C2485 1.376 . S
C2482 C2480 1.394 . S
C2482 C2483 1.369 . S
C2482 C2486 1.531 . S
C2483 C2482 1.369 . S
C2483 C2484 1.410 . S
C2483 C2491 1.503 . S
C2484 C2483 1.410 . S
C2484 C2485 1.392 . S
C2484 C2487 1.511 . S
C2485 C2481 1.376 . S
C2485 C2484 1.392 . S
C2485 H2497 0.929 . S
C2486 C2482 1.531 . S
C2486 H2498 0.960 . S
C2486 H2499 0.962 . S
C2486 H2500 0.960 . S
C2487 C2484 1.511 . S
C2487 H2501 0.961 . S
C2487 H2502 0.961 . S
C2487 H2503 0.961 . S
C2488 C2489 1.370 . S
C2488 C2490 1.363 . S
C2488 H2504 0.931 . S
C2489 C2488 1.370 . S
C2489 C2493 1.408 . S
C2490 C2488 1.363 . S
C2490 C2491 1.370 . S
C2490 C2494 1.524 . S
C2491 C2483 1.503 . S
C2491 C2490 1.370 . S
C2491 C2492 1.403 . S
C2492 C2491 1.403 . S
C2492 C2493 1.404 . S
C2492 C2495 1.539 . S
C2493 C2489 1.408 . S
C2493 C2492 1.404 . S
C2493 H2505 0.930 . S
C2494 C2490 1.524 . S
C2494 H2506 0.956 . S
C2494 H2507 0.961 . S
C2494 H2508 0.961 . S
C2495 C2492 1.539 . S
C2495 H2509 0.958 . S
C2495 H2510 0.961 . S
C2495 H2511 0.960 . S
H2496 C2480 0.931 . S
H2497 C2485 0.929 . S
H2498 C2486 0.960 . S
H2499 C2486 0.962 . S
H2500 C2486 0.960 . S
H2501 C2487 0.961 . S
H2502 C2487 0.961 . S
H2503 C2487 0.961 . S
H2504 C2488 0.931 . S
H2505 C2493 0.930 . S
H2506 C2494 0.956 . S
H2507 C2494 0.961 . S
H2508 C2494 0.961 . S
H2509 C2495 0.958 . S
H2510 C2495 0.961 . S
H2511 C2495 0.960 . S
C2512 C2513 1.391 . S
C2512 C2514 1.394 . S
C2512 H2528 0.931 . S
C2513 C2512 1.391 . S
C2513 C2517 1.376 . S
C2514 C2512 1.394 . S
C2514 C2515 1.369 . S
C2514 C2518 1.531 . S
C2515 C2514 1.369 . S
C2515 C2516 1.410 . S
C2515 C2523 1.503 . S
C2516 C2515 1.410 . S
C2516 C2517 1.392 . S
C2516 C2519 1.511 . S
C2517 C2513 1.376 . S
C2517 C2516 1.392 . S
C2517 H2529 0.929 . S
C2518 C2514 1.531 . S
C2518 H2530 0.960 . S
C2518 H2531 0.962 . S
C2518 H2532 0.960 . S
C2519 C2516 1.511 . S
C2519 H2533 0.961 . S
C2519 H2534 0.961 . S
C2519 H2535 0.961 . S
C2520 C2521 1.370 . S
C2520 C2522 1.363 . S
C2520 H2536 0.931 . S
C2521 C2520 1.370 . S
C2521 C2525 1.408 . S
C2522 C2520 1.363 . S
C2522 C2523 1.370 . S
C2522 C2526 1.524 . S
C2523 C2515 1.503 . S
C2523 C2522 1.370 . S
C2523 C2524 1.403 . S
C2524 C2523 1.403 . S
C2524 C2525 1.404 . S
C2524 C2527 1.539 . S
C2525 C2521 1.408 . S
C2525 C2524 1.404 . S
C2525 H2537 0.930 . S
C2526 C2522 1.524 . S
C2526 H2538 0.956 . S
C2526 H2539 0.961 . S
C2526 H2540 0.961 . S
C2527 C2524 1.539 . S
C2527 H2541 0.958 . S
C2527 H2542 0.961 . S
C2527 H2543 0.960 . S
H2528 C2512 0.931 . S
H2529 C2517 0.929 . S
H2530 C2518 0.960 . S
H2531 C2518 0.962 . S
H2532 C2518 0.960 . S
H2533 C2519 0.961 . S
H2534 C2519 0.961 . S
H2535 C2519 0.961 . S
H2536 C2520 0.931 . S
H2537 C2525 0.930 . S
H2538 C2526 0.956 . S
H2539 C2526 0.961 . S
H2540 C2526 0.961 . S
H2541 C2527 0.958 . S
H2542 C2527 0.961 . S
H2543 C2527 0.960 . S
C2544 C2545 1.391 . S
C2544 C2546 1.394 . S
C2544 H2560 0.931 . S
C2545 C2544 1.391 . S
C2545 C2549 1.376 . S
C2546 C2544 1.394 . S
C2546 C2547 1.369 . S
C2546 C2550 1.531 . S
C2547 C2546 1.369 . S
C2547 C2548 1.410 . S
C2547 C2555 1.503 . S
C2548 C2547 1.410 . S
C2548 C2549 1.392 . S
C2548 C2551 1.511 . S
C2549 C2545 1.376 . S
C2549 C2548 1.392 . S
C2549 H2561 0.929 . S
C2550 C2546 1.531 . S
C2550 H2562 0.960 . S
C2550 H2563 0.962 . S
C2550 H2564 0.960 . S
C2551 C2548 1.511 . S
C2551 H2565 0.961 . S
C2551 H2566 0.961 . S
C2551 H2567 0.961 . S
C2552 C2553 1.370 . S
C2552 C2554 1.363 . S
C2552 H2568 0.931 . S
C2553 C2552 1.370 . S
C2553 C2557 1.408 . S
C2554 C2552 1.363 . S
C2554 C2555 1.370 . S
C2554 C2558 1.524 . S
C2555 C2547 1.503 . S
C2555 C2554 1.370 . S
C2555 C2556 1.403 . S
C2556 C2555 1.403 . S
C2556 C2557 1.404 . S
C2556 C2559 1.539 . S
C2557 C2553 1.408 . S
C2557 C2556 1.404 . S
C2557 H2569 0.930 . S
C2558 C2554 1.524 . S
C2558 H2570 0.956 . S
C2558 H2571 0.961 . S
C2558 H2572 0.961 . S
C2559 C2556 1.539 . S
C2559 H2573 0.958 . S
C2559 H2574 0.961 . S
C2559 H2575 0.960 . S
H2560 C2544 0.931 . S
H2561 C2549 0.929 . S
H2562 C2550 0.960 . S
H2563 C2550 0.962 . S
H2564 C2550 0.960 . S
H2565 C2551 0.961 . S
H2566 C2551 0.961 . S
H2567 C2551 0.961 . S
H2568 C2552 0.931 . S
H2569 C2557 0.930 . S
H2570 C2558 0.956 . S
H2571 C2558 0.961 . S
H2572 C2558 0.961 . S
H2573 C2559 0.958 . S
H2574 C2559 0.961 . S
H2575 C2559 0.960 . S
C2576 C2577 1.394 . S
C2576 C2578 1.392 1_556 S
C2576 H2592 0.931 1_556 S
C2577 C2576 1.394 . S
C2577 C2581 1.376 1_455 S
C2578 C2576 1.392 1_554 S
C2578 C2579 1.369 . S
C2578 C2582 1.531 . S
C2579 C2578 1.369 . S
C2579 C2580 1.410 1_454 S
C2579 C2587 1.503 . S
C2580 C2579 1.410 1_656 S
C2580 C2581 1.392 . S
C2580 C2583 1.511 . S
C2581 C2577 1.376 1_655 S
C2581 C2580 1.392 . S
C2581 H2593 0.929 . S
C2582 C2578 1.531 . S
C2582 H2594 0.960 . S
C2582 H2595 0.962 . S
C2582 H2596 0.960 . S
C2583 C2580 1.511 . S
C2583 H2597 0.961 . S
C2583 H2598 0.961 1_556 S
C2583 H2599 0.961 . S
C2584 C2585 1.370 . S
C2584 C2586 1.363 . S
C2584 H2600 0.931 . S
C2585 C2584 1.370 . S
C2585 C2589 1.408 . S
C2586 C2584 1.363 . S
C2586 C2587 1.370 . S
C2586 C2590 1.524 . S
C2587 C2579 1.503 . S
C2587 C2586 1.370 . S
C2587 C2588 1.403 1_554 S
C2588 C2587 1.403 1_556 S
C2588 C2589 1.404 1_556 S
C2588 C2591 1.539 . S
C2589 C2585 1.408 . S
C2589 C2588 1.404 1_554 S
C2589 H2601 0.930 1_554 S
C2590 C2586 1.524 . S
C2590 H2602 0.956 . S
C2590 H2603 0.961 1_455 S
C2590 H2604 0.961 . S
C2591 C2588 1.539 . S
C2591 H2605 0.958 . S
C2591 H2606 0.961 . S
C2591 H2607 0.960 . S
H2592 C2576 0.931 1_554 S
H2593 C2581 0.929 . S
H2594 C2582 0.960 . S
H2595 C2582 0.962 . S
H2596 C2582 0.960 . S
H2597 C2583 0.961 . S
H2598 C2583 0.961 1_554 S
H2599 C2583 0.961 . S
H2600 C2584 0.931 . S
H2601 C2589 0.930 1_556 S
H2602 C2590 0.956 . S
H2603 C2590 0.961 1_655 S
H2604 C2590 0.961 . S
H2605 C2591 0.958 . S
H2606 C2591 0.961 . S
H2607 C2591 0.960 . S
C2608 C2609 1.391 . S
C2608 C2610 1.394 . S
C2608 H2624 0.931 . S
C2609 C2608 1.391 . S
C2609 C2613 1.376 1_655 S
C2610 C2608 1.394 . S
C2610 C2611 1.369 . S
C2610 C2614 1.531 . S
C2611 C2610 1.369 . S
C2611 C2612 1.410 . S
C2611 C2619 1.503 . S
C2612 C2611 1.410 . S
C2612 C2613 1.392 1_655 S
C2612 C2615 1.511 . S
C2613 C2609 1.376 1_455 S
C2613 C2612 1.392 1_455 S
C2613 H2625 0.929 . S
C2614 C2610 1.531 . S
C2614 H2626 0.960 . S
C2614 H2627 0.962 . S
C2614 H2628 0.960 . S
C2615 C2612 1.511 . S
C2615 H2629 0.961 1_655 S
C2615 H2630 0.961 . S
C2615 H2631 0.940 1_655 S
C2616 C2617 1.370 . S
C2616 C2618 1.363 . S
C2616 H2632 0.931 . S
C2617 C2616 1.370 . S
C2617 C2621 1.408 . S
C2618 C2616 1.363 . S
C2618 C2619 1.370 . S
C2618 C2622 1.524 . S
C2619 C2611 1.503 . S
C2619 C2618 1.370 . S
C2619 C2620 1.403 . S
C2620 C2619 1.403 . S
C2620 C2621 1.404 . S
C2620 C2623 1.539 . S
C2621 C2617 1.408 . S
C2621 C2620 1.404 . S
C2621 H2633 0.930 . S
C2622 C2618 1.524 . S
C2622 H2634 0.956 . S
C2622 H2635 0.961 . S
C2622 H2636 0.961 . S
C2623 C2620 1.539 . S
C2623 H2637 0.958 . S
C2623 H2638 0.961 . S
C2623 H2639 0.960 . S
H2624 C2608 0.931 . S
H2625 C2613 0.929 . S
H2626 C2614 0.960 . S
H2627 C2614 0.962 . S
H2628 C2614 0.960 . S
H2629 C2615 0.961 1_455 S
H2630 C2615 0.961 . S
H2631 C2615 0.940 1_455 S
H2632 C2616 0.931 . S
H2633 C2621 0.930 . S
H2634 C2622 0.956 . S
H2635 C2622 0.961 . S
H2636 C2622 0.961 . S
H2637 C2623 0.958 . S
H2638 C2623 0.961 . S
H2639 C2623 0.960 . S
C2640 C2641 1.391 . S
C2640 C2642 1.394 . S
C2640 H2656 0.931 . S
C2641 C2640 1.391 . S
C2641 C2645 1.376 . S
C2642 C2640 1.394 . S
C2642 C2643 1.369 . S
C2642 C2646 1.531 . S
C2643 C2642 1.369 . S
C2643 C2644 1.410 . S
C2643 C2651 1.503 . S
C2644 C2643 1.410 . S
C2644 C2645 1.392 . S
C2644 C2647 1.511 . S
C2645 C2641 1.376 . S
C2645 C2644 1.392 . S
C2645 H2657 0.929 . S
C2646 C2642 1.531 . S
C2646 H2658 0.960 . S
C2646 H2659 0.962 . S
C2646 H2660 0.960 . S
C2647 C2644 1.511 . S
C2647 H2661 0.961 . S
C2647 H2662 0.961 . S
C2647 H2663 0.961 . S
C2648 C2649 1.370 . S
C2648 C2650 1.363 . S
C2648 H2664 0.931 . S
C2649 C2648 1.370 . S
C2649 C2653 1.408 . S
C2650 C2648 1.363 . S
C2650 C2651 1.370 . S
C2650 C2654 1.524 . S
C2651 C2643 1.503 . S
C2651 C2650 1.370 . S
C2651 C2652 1.403 . S
C2652 C2651 1.403 . S
C2652 C2653 1.404 . S
C2652 C2655 1.539 . S
C2653 C2649 1.408 . S
C2653 C2652 1.404 . S
C2653 H2665 0.930 . S
C2654 C2650 1.524 . S
C2654 H2666 0.956 . S
C2654 H2667 0.961 . S
C2654 H2668 0.961 . S
C2655 C2652 1.539 . S
C2655 H2669 0.958 . S
C2655 H2670 0.961 . S
C2655 H2671 0.960 . S
H2656 C2640 0.931 . S
H2657 C2645 0.929 . S
H2658 C2646 0.960 . S
H2659 C2646 0.962 . S
H2660 C2646 0.960 . S
H2661 C2647 0.961 . S
H2662 C2647 0.961 . S
H2663 C2647 0.961 . S
H2664 C2648 0.931 . S
H2665 C2653 0.930 . S
H2666 C2654 0.956 . S
H2667 C2654 0.961 . S
H2668 C2654 0.961 . S
H2669 C2655 0.958 . S
H2670 C2655 0.961 . S
H2671 C2655 0.960 . S
C2672 C2673 1.391 . S
C2672 C2674 1.394 . S
C2672 H2688 0.931 . S
C2673 C2672 1.391 . S
C2673 C2677 1.376 . S
C2674 C2672 1.394 . S
C2674 C2675 1.369 . S
C2674 C2678 1.531 . S
C2675 C2674 1.369 . S
C2675 C2676 1.410 . S
C2675 C2683 1.503 . S
C2676 C2675 1.410 . S
C2676 C2677 1.392 . S
C2676 C2679 1.511 . S
C2677 C2673 1.376 . S
C2677 C2676 1.392 . S
C2677 H2689 0.929 . S
C2678 C2674 1.531 . S
C2678 H2690 0.960 . S
C2678 H2691 0.962 . S
C2678 H2692 0.960 . S
C2679 C2676 1.511 . S
C2679 H2693 0.961 . S
C2679 H2694 0.961 . S
C2679 H2695 0.961 . S
C2680 C2681 1.370 . S
C2680 C2682 1.363 . S
C2680 H2696 0.931 . S
C2681 C2680 1.370 . S
C2681 C2685 1.408 . S
C2682 C2680 1.363 . S
C2682 C2683 1.370 . S
C2682 C2686 1.524 . S
C2683 C2675 1.503 . S
C2683 C2682 1.370 . S
C2683 C2684 1.403 . S
C2684 C2683 1.403 . S
C2684 C2685 1.404 . S
C2684 C2687 1.539 . S
C2685 C2681 1.408 . S
C2685 C2684 1.404 . S
C2685 H2697 0.930 . S
C2686 C2682 1.524 . S
C2686 H2698 0.956 . S
C2686 H2699 0.961 . S
C2686 H2700 0.961 . S
C2687 C2684 1.539 . S
C2687 H2701 0.958 . S
C2687 H2702 0.961 . S
C2687 H2703 0.960 . S
H2688 C2672 0.931 . S
H2689 C2677 0.929 . S
H2690 C2678 0.960 . S
H2691 C2678 0.962 . S
H2692 C2678 0.960 . S
H2693 C2679 0.961 . S
H2694 C2679 0.961 . S
H2695 C2679 0.961 . S
H2696 C2680 0.931 . S
H2697 C2685 0.930 . S
H2698 C2686 0.956 . S
H2699 C2686 0.961 . S
H2700 C2686 0.961 . S
H2701 C2687 0.958 . S
H2702 C2687 0.961 . S
H2703 C2687 0.960 . S
C2704 C2705 1.391 . S
C2704 C2706 1.394 . S
C2704 H2720 0.931 . S
C2705 C2704 1.391 . S
C2705 C2709 1.376 . S
C2706 C2704 1.394 . S
C2706 C2707 1.369 . S
C2706 C2710 1.531 . S
C2707 C2706 1.369 . S
C2707 C2708 1.410 . S
C2707 C2715 1.503 . S
C2708 C2707 1.410 . S
C2708 C2709 1.392 . S
C2708 C2711 1.511 . S
C2709 C2705 1.376 . S
C2709 C2708 1.392 . S
C2709 H2721 0.929 . S
C2710 C2706 1.531 . S
C2710 H2722 0.960 . S
C2710 H2723 0.962 1_455 S
C2710 H2724 0.960 . S
C2711 C2708 1.511 . S
C2711 H2725 0.961 . S
C2711 H2726 0.961 . S
C2711 H2727 0.961 . S
C2712 C2713 1.370 . S
C2712 C2714 1.363 . S
C2712 H2728 0.931 1_455 S
C2713 C2712 1.370 . S
C2713 C2717 1.408 . S
C2714 C2712 1.363 . S
C2714 C2715 1.370 . S
C2714 C2718 1.524 1_455 S
C2715 C2707 1.503 . S
C2715 C2714 1.370 . S
C2715 C2716 1.403 . S
C2716 C2715 1.403 . S
C2716 C2717 1.404 . S
C2716 C2719 1.539 . S
C2717 C2713 1.408 . S
C2717 C2716 1.404 . S
C2717 H2729 0.930 . S
C2718 C2714 1.524 1_655 S
C2718 H2730 0.956 . S
C2718 H2731 0.961 . S
C2718 H2732 0.961 . S
C2719 C2716 1.539 . S
C2719 H2733 0.958 . S
C2719 H2734 0.961 . S
C2719 H2735 0.960 . S
H2720 C2704 0.931 . S
H2721 C2709 0.929 . S
H2722 C2710 0.960 . S
H2723 C2710 0.962 1_655 S
H2724 C2710 0.960 . S
H2725 C2711 0.961 . S
H2726 C2711 0.961 . S
H2727 C2711 0.961 . S
H2728 C2712 0.931 1_655 S
H2729 C2717 0.930 . S
H2730 C2718 0.956 . S
H2731 C2718 0.961 . S
H2732 C2718 0.961 . S
H2733 C2719 0.958 . S
H2734 C2719 0.961 . S
H2735 C2719 0.960 . S
C2736 C2737 1.391 . S
C2736 C2738 1.394 . S
C2736 H2752 0.931 . S
C2737 C2736 1.391 . S
C2737 C2741 1.376 . S
C2738 C2736 1.394 . S
C2738 C2739 1.369 . S
C2738 C2742 1.531 . S
C2739 C2738 1.369 . S
C2739 C2740 1.410 . S
C2739 C2747 1.503 . S
C2740 C2739 1.410 . S
C2740 C2741 1.392 . S
C2740 C2743 1.511 . S
C2741 C2737 1.376 . S
C2741 C2740 1.392 . S
C2741 H2753 0.929 . S
C2742 C2738 1.531 . S
C2742 H2754 0.960 . S
C2742 H2755 0.962 . S
C2742 H2756 0.960 . S
C2743 C2740 1.511 . S
C2743 H2757 0.961 . S
C2743 H2758 0.961 . S
C2743 H2759 0.961 . S
C2744 C2745 1.370 . S
C2744 C2746 1.363 . S
C2744 H2760 0.931 . S
C2745 C2744 1.370 . S
C2745 C2749 1.408 . S
C2746 C2744 1.363 . S
C2746 C2747 1.370 . S
C2746 C2750 1.524 . S
C2747 C2739 1.503 . S
C2747 C2746 1.370 . S
C2747 C2748 1.403 . S
C2748 C2747 1.403 . S
C2748 C2749 1.404 . S
C2748 C2751 1.539 . S
C2749 C2745 1.408 . S
C2749 C2748 1.404 . S
C2749 H2761 0.930 . S
C2750 C2746 1.524 . S
C2750 H2762 0.956 . S
C2750 H2763 0.961 . S
C2750 H2764 0.961 . S
C2751 C2748 1.539 . S
C2751 H2765 0.958 . S
C2751 H2766 0.961 . S
C2751 H2767 0.960 . S
H2752 C2736 0.931 . S
H2753 C2741 0.929 . S
H2754 C2742 0.960 . S
H2755 C2742 0.962 . S
H2756 C2742 0.960 . S
H2757 C2743 0.961 . S
H2758 C2743 0.961 . S
H2759 C2743 0.961 . S
H2760 C2744 0.931 . S
H2761 C2749 0.930 . S
H2762 C2750 0.956 . S
H2763 C2750 0.961 . S
H2764 C2750 0.961 . S
H2765 C2751 0.958 . S
H2766 C2751 0.961 . S
H2767 C2751 0.960 . S
C2768 C2769 1.391 . S
C2768 C2770 1.394 . S
C2768 H2784 0.931 . S
C2769 C2768 1.391 . S
C2769 C2773 1.376 . S
C2770 C2768 1.394 . S
C2770 C2771 1.369 . S
C2770 C2774 1.531 . S
C2771 C2770 1.369 . S
C2771 C2772 1.410 . S
C2771 C2779 1.503 . S
C2772 C2771 1.410 . S
C2772 C2773 1.392 . S
C2772 C2775 1.511 . S
C2773 C2769 1.376 . S
C2773 C2772 1.392 . S
C2773 H2785 0.929 . S
C2774 C2770 1.531 . S
C2774 H2786 0.960 . S
C2774 H2787 0.962 . S
C2774 H2788 0.960 . S
C2775 C2772 1.511 . S
C2775 H2789 0.961 . S
C2775 H2790 0.961 . S
C2775 H2791 0.961 . S
C2776 C2777 1.370 . S
C2776 C2778 1.363 . S
C2776 H2792 0.931 . S
C2777 C2776 1.370 . S
C2777 C2781 1.408 . S
C2778 C2776 1.363 . S
C2778 C2779 1.370 . S
C2778 C2782 1.524 . S
C2779 C2771 1.503 . S
C2779 C2778 1.370 . S
C2779 C2780 1.403 . S
C2780 C2779 1.403 . S
C2780 C2781 1.404 . S
C2780 C2783 1.539 . S
C2781 C2777 1.408 . S
C2781 C2780 1.404 . S
C2781 H2793 0.930 . S
C2782 C2778 1.524 . S
C2782 H2794 0.956 . S
C2782 H2795 0.961 . S
C2782 H2796 0.961 . S
C2783 C2780 1.539 . S
C2783 H2797 0.958 . S
C2783 H2798 0.961 . S
C2783 H2799 0.960 . S
H2784 C2768 0.931 . S
H2785 C2773 0.929 . S
H2786 C2774 0.960 . S
H2787 C2774 0.962 . S
H2788 C2774 0.960 . S
H2789 C2775 0.961 . S
H2790 C2775 0.961 . S
H2791 C2775 0.961 . S
H2792 C2776 0.931 . S
H2793 C2781 0.930 . S
H2794 C2782 0.956 . S
H2795 C2782 0.961 . S
H2796 C2782 0.961 . S
H2797 C2783 0.958 . S
H2798 C2783 0.961 . S
H2799 C2783 0.960 . S
C2800 C2801 1.391 . S
C2800 C2802 1.420 . S
C2800 H2816 0.931 . S
C2801 C2800 1.391 . S
C2801 C2805 1.356 1_554 S
C2802 C2800 1.420 . S
C2802 C2803 1.348 1_554 S
C2802 C2806 1.526 . S
C2803 C2802 1.348 1_556 S
C2803 C2804 1.410 . S
C2803 C2811 1.503 . S
C2804 C2803 1.410 . S
C2804 C2805 1.417 . S
C2804 C2807 1.511 . S
C2805 C2801 1.356 1_556 S
C2805 C2804 1.417 . S
C2805 H2817 0.924 . S
C2806 C2802 1.526 . S
C2806 H2818 0.960 1_554 S
C2806 H2819 0.962 . S
C2806 H2820 0.960 . S
C2807 C2804 1.511 . S
C2807 H2821 0.961 . S
C2807 H2822 0.961 . S
C2807 H2823 0.961 . S
C2808 C2809 1.370 . S
C2808 C2810 1.363 . S
C2808 H2824 0.931 . S
C2809 C2808 1.370 . S
C2809 C2813 1.408 . S
C2810 C2808 1.363 . S
C2810 C2811 1.370 . S
C2810 C2814 1.524 . S
C2811 C2803 1.503 . S
C2811 C2810 1.370 . S
C2811 C2812 1.403 . S
C2812 C2811 1.403 . S
C2812 C2813 1.404 . S
C2812 C2815 1.539 . S
C2813 C2809 1.408 . S
C2813 C2812 1.404 . S
C2813 H2825 0.930 . S
C2814 C2810 1.524 . S
C2814 H2826 0.956 1_556 S
C2814 H2827 0.961 . S
C2814 H2828 0.961 . S
C2815 C2812 1.539 . S
C2815 H2829 0.958 . S
C2815 H2830 0.961 . S
C2815 H2831 0.960 . S
H2816 C2800 0.931 . S
H2817 C2805 0.924 . S
H2818 C2806 0.960 1_556 S
H2819 C2806 0.962 . S
H2820 C2806 0.960 . S
H2821 C2807 0.961 . S
H2822 C2807 0.961 . S
H2823 C2807 0.961 . S
H2824 C2808 0.931 . S
H2825 C2813 0.930 . S
H2826 C2814 0.956 1_554 S
H2827 C2814 0.961 . S
H2828 C2814 0.961 . S
H2829 C2815 0.958 . S
H2830 C2815 0.961 . S
H2831 C2815 0.960 . S
C2832 C2833 1.391 . S
C2832 C2834 1.394 . S
C2832 H2848 0.931 . S
C2833 C2832 1.391 . S
C2833 C2837 1.376 . S
C2834 C2832 1.394 . S
C2834 C2835 1.369 . S
C2834 C2838 1.531 . S
C2835 C2834 1.369 . S
C2835 C2836 1.410 . S
C2835 C2843 1.503 . S
C2836 C2835 1.410 . S
C2836 C2837 1.392 . S
C2836 C2839 1.511 . S
C2837 C2833 1.376 . S
C2837 C2836 1.392 . S
C2837 H2849 0.929 . S
C2838 C2834 1.531 . S
C2838 H2850 0.960 . S
C2838 H2851 0.962 . S
C2838 H2852 0.960 . S
C2839 C2836 1.511 . S
C2839 H2853 0.961 . S
C2839 H2854 0.961 . S
C2839 H2855 0.961 . S
C2840 C2841 1.370 . S
C2840 C2842 1.363 . S
C2840 H2856 0.931 . S
C2841 C2840 1.370 . S
C2841 C2845 1.408 . S
C2842 C2840 1.363 . S
C2842 C2843 1.370 . S
C2842 C2846 1.524 . S
C2843 C2835 1.503 . S
C2843 C2842 1.370 . S
C2843 C2844 1.403 . S
C2844 C2843 1.403 . S
C2844 C2845 1.404 . S
C2844 C2847 1.539 . S
C2845 C2841 1.408 . S
C2845 C2844 1.404 . S
C2845 H2857 0.930 . S
C2846 C2842 1.524 . S
C2846 H2858 0.956 . S
C2846 H2859 0.961 . S
C2846 H2860 0.961 . S
C2847 C2844 1.539 . S
C2847 H2861 0.958 . S
C2847 H2862 0.961 . S
C2847 H2863 0.960 . S
H2848 C2832 0.931 . S
H2849 C2837 0.929 . S
H2850 C2838 0.960 . S
H2851 C2838 0.962 . S
H2852 C2838 0.960 . S
H2853 C2839 0.961 . S
H2854 C2839 0.961 . S
H2855 C2839 0.961 . S
H2856 C2840 0.931 . S
H2857 C2845 0.930 . S
H2858 C2846 0.956 . S
H2859 C2846 0.961 . S
H2860 C2846 0.961 . S
H2861 C2847 0.958 . S
H2862 C2847 0.961 . S
H2863 C2847 0.960 . S
C2864 C2865 1.391 . S
C2864 C2866 1.394 . S
C2864 H2880 0.931 . S
C2865 C2864 1.391 . S
C2865 C2869 1.376 . S
C2866 C2864 1.394 . S
C2866 C2867 1.369 . S
C2866 C2870 1.531 . S
C2867 C2866 1.369 . S
C2867 C2868 1.410 . S
C2867 C2875 1.503 . S
C2868 C2867 1.410 . S
C2868 C2869 1.392 . S
C2868 C2871 1.511 . S
C2869 C2865 1.376 . S
C2869 C2868 1.392 . S
C2869 H2881 0.929 . S
C2870 C2866 1.531 . S
C2870 H2882 0.960 . S
C2870 H2883 0.962 . S
C2870 H2884 0.960 . S
C2871 C2868 1.511 . S
C2871 H2885 0.961 . S
C2871 H2886 0.961 . S
C2871 H2887 0.961 . S
C2872 C2873 1.370 . S
C2872 C2874 1.363 . S
C2872 H2888 0.931 . S
C2873 C2872 1.370 . S
C2873 C2877 1.408 . S
C2874 C2872 1.363 . S
C2874 C2875 1.370 . S
C2874 C2878 1.524 . S
C2875 C2867 1.503 . S
C2875 C2874 1.370 . S
C2875 C2876 1.403 . S
C2876 C2875 1.403 . S
C2876 C2877 1.404 . S
C2876 C2879 1.539 . S
C2877 C2873 1.408 . S
C2877 C2876 1.404 . S
C2877 H2889 0.930 . S
C2878 C2874 1.524 . S
C2878 H2890 0.956 . S
C2878 H2891 0.961 . S
C2878 H2892 0.961 . S
C2879 C2876 1.539 . S
C2879 H2893 0.958 . S
C2879 H2894 0.961 . S
C2879 H2895 0.960 . S
H2880 C2864 0.931 . S
H2881 C2869 0.929 . S
H2882 C2870 0.960 . S
H2883 C2870 0.962 . S
H2884 C2870 0.960 . S
H2885 C2871 0.961 . S
H2886 C2871 0.961 . S
H2887 C2871 0.961 . S
H2888 C2872 0.931 . S
H2889 C2877 0.930 . S
H2890 C2878 0.956 . S
H2891 C2878 0.961 . S
H2892 C2878 0.961 . S
H2893 C2879 0.958 . S
H2894 C2879 0.961 . S
H2895 C2879 0.960 . S
C2896 C2897 1.391 . S
C2896 C2898 1.394 . S
C2896 H2912 0.931 . S
C2897 C2896 1.391 . S
C2897 C2901 1.376 . S
C2898 C2896 1.394 . S
C2898 C2899 1.369 . S
C2898 C2902 1.531 . S
C2899 C2898 1.369 . S
C2899 C2900 1.410 . S
C2899 C2907 1.503 . S
C2900 C2899 1.410 . S
C2900 C2901 1.392 . S
C2900 C2903 1.511 . S
C2901 C2897 1.376 . S
C2901 C2900 1.392 . S
C2901 H2913 0.929 . S
C2902 C2898 1.531 . S
C2902 H2914 0.960 . S
C2902 H2915 0.962 . S
C2902 H2916 0.960 . S
C2903 C2900 1.511 . S
C2903 H2917 0.961 . S
C2903 H2918 0.961 . S
C2903 H2919 0.961 . S
C2904 C2905 1.370 . S
C2904 C2906 1.363 . S
C2904 H2920 0.931 . S
C2905 C2904 1.370 . S
C2905 C2909 1.408 . S
C2906 C2904 1.363 . S
C2906 C2907 1.370 . S
C2906 C2910 1.524 . S
C2907 C2899 1.503 . S
C2907 C2906 1.370 . S
C2907 C2908 1.403 . S
C2908 C2907 1.403 . S
C2908 C2909 1.404 . S
C2908 C2911 1.539 . S
C2909 C2905 1.408 . S
C2909 C2908 1.404 . S
C2909 H2921 0.930 . S
C2910 C2906 1.524 . S
C2910 H2922 0.956 . S
C2910 H2923 0.961 . S
C2910 H2924 0.961 . S
C2911 C2908 1.539 . S
C2911 H2925 0.958 . S
C2911 H2926 0.961 . S
C2911 H2927 0.960 . S
H2912 C2896 0.931 . S
H2913 C2901 0.929 . S
H2914 C2902 0.960 . S
H2915 C2902 0.962 . S
H2916 C2902 0.960 . S
H2917 C2903 0.961 . S
H2918 C2903 0.961 . S
H2919 C2903 0.961 . S
H2920 C2904 0.931 . S
H2921 C2909 0.930 . S
H2922 C2910 0.956 . S
H2923 C2910 0.961 . S
H2924 C2910 0.961 . S
H2925 C2911 0.958 . S
H2926 C2911 0.961 . S
H2927 C2911 0.960 . S
C2928 C2929 1.391 . S
C2928 C2930 1.394 . S
C2928 H2944 0.931 . S
C2929 C2928 1.391 . S
C2929 C2933 1.376 . S
C2930 C2928 1.394 . S
C2930 C2931 1.369 . S
C2930 C2934 1.531 . S
C2931 C2930 1.369 . S
C2931 C2932 1.410 . S
C2931 C2939 1.503 . S
C2932 C2931 1.410 . S
C2932 C2933 1.392 . S
C2932 C2935 1.511 . S
C2933 C2929 1.376 . S
C2933 C2932 1.392 . S
C2933 H2945 0.929 . S
C2934 C2930 1.531 . S
C2934 H2946 0.960 . S
C2934 H2947 0.962 . S
C2934 H2948 0.960 . S
C2935 C2932 1.511 . S
C2935 H2949 0.961 . S
C2935 H2950 0.961 . S
C2935 H2951 0.961 . S
C2936 C2937 1.370 . S
C2936 C2938 1.363 . S
C2936 H2952 0.931 . S
C2937 C2936 1.370 . S
C2937 C2941 1.408 . S
C2938 C2936 1.363 . S
C2938 C2939 1.370 . S
C2938 C2942 1.524 . S
C2939 C2931 1.503 . S
C2939 C2938 1.370 . S
C2939 C2940 1.403 . S
C2940 C2939 1.403 . S
C2940 C2941 1.404 . S
C2940 C2943 1.539 . S
C2941 C2937 1.408 . S
C2941 C2940 1.404 . S
C2941 H2953 0.930 . S
C2942 C2938 1.524 . S
C2942 H2954 0.956 . S
C2942 H2955 0.961 . S
C2942 H2956 0.961 . S
C2943 C2940 1.539 . S
C2943 H2957 0.958 . S
C2943 H2958 0.961 . S
C2943 H2959 0.960 . S
H2944 C2928 0.931 . S
H2945 C2933 0.929 . S
H2946 C2934 0.960 . S
H2947 C2934 0.962 . S
H2948 C2934 0.960 . S
H2949 C2935 0.961 . S
H2950 C2935 0.961 . S
H2951 C2935 0.961 . S
H2952 C2936 0.931 . S
H2953 C2941 0.930 . S
H2954 C2942 0.956 . S
H2955 C2942 0.961 . S
H2956 C2942 0.961 . S
H2957 C2943 0.958 . S
H2958 C2943 0.961 . S
H2959 C2943 0.960 . S
C2960 C2961 1.391 . S
C2960 C2962 1.394 . S
C2960 H2976 0.931 . S
C2961 C2960 1.391 . S
C2961 C2965 1.376 . S
C2962 C2960 1.394 . S
C2962 C2963 1.369 . S
C2962 C2966 1.531 . S
C2963 C2962 1.369 . S
C2963 C2964 1.410 . S
C2963 C2971 1.503 . S
C2964 C2963 1.410 . S
C2964 C2965 1.392 . S
C2964 C2967 1.511 . S
C2965 C2961 1.376 . S
C2965 C2964 1.392 . S
C2965 H2977 0.929 . S
C2966 C2962 1.531 . S
C2966 H2978 0.960 . S
C2966 H2979 0.962 . S
C2966 H2980 0.960 . S
C2967 C2964 1.511 . S
C2967 H2981 0.961 . S
C2967 H2982 0.961 . S
C2967 H2983 0.961 . S
C2968 C2969 1.370 . S
C2968 C2970 1.363 . S
C2968 H2984 0.931 . S
C2969 C2968 1.370 . S
C2969 C2973 1.408 . S
C2970 C2968 1.363 . S
C2970 C2971 1.370 . S
C2970 C2974 1.524 . S
C2971 C2963 1.503 . S
C2971 C2970 1.370 . S
C2971 C2972 1.403 . S
C2972 C2971 1.403 . S
C2972 C2973 1.404 . S
C2972 C2975 1.539 . S
C2973 C2969 1.408 . S
C2973 C2972 1.404 . S
C2973 H2985 0.930 . S
C2974 C2970 1.524 . S
C2974 H2986 0.956 . S
C2974 H2987 0.961 . S
C2974 H2988 0.961 . S
C2975 C2972 1.539 . S
C2975 H2989 0.958 . S
C2975 H2990 0.961 . S
C2975 H2991 0.960 . S
H2976 C2960 0.931 . S
H2977 C2965 0.929 . S
H2978 C2966 0.960 . S
H2979 C2966 0.962 . S
H2980 C2966 0.960 . S
H2981 C2967 0.961 . S
H2982 C2967 0.961 . S
H2983 C2967 0.961 . S
H2984 C2968 0.931 . S
H2985 C2973 0.930 . S
H2986 C2974 0.956 . S
H2987 C2974 0.961 . S
H2988 C2974 0.961 . S
H2989 C2975 0.958 . S
H2990 C2975 0.961 . S
H2991 C2975 0.960 . S
C2992 C2993 1.391 . S
C2992 C2994 1.394 . S
C2992 H3008 0.931 . S
C2993 C2992 1.391 . S
C2993 C2997 1.376 . S
C2994 C2992 1.394 . S
C2994 C2995 1.369 . S
C2994 C2998 1.531 . S
C2995 C2994 1.369 . S
C2995 C2996 1.410 . S
C2995 C3003 1.503 . S
C2996 C2995 1.410 . S
C2996 C2997 1.392 . S
C2996 C2999 1.511 . S
C2997 C2993 1.376 . S
C2997 C2996 1.392 . S
C2997 H3009 0.929 . S
C2998 C2994 1.531 . S
C2998 H3010 0.960 . S
C2998 H3011 0.962 . S
C2998 H3012 0.960 . S
C2999 C2996 1.511 . S
C2999 H3013 0.961 . S
C2999 H3014 0.961 . S
C2999 H3015 0.961 . S
C3000 C3001 1.370 . S
C3000 C3002 1.363 . S
C3000 H3016 0.931 . S
C3001 C3000 1.370 . S
C3001 C3005 1.408 . S
C3002 C3000 1.363 . S
C3002 C3003 1.370 . S
C3002 C3006 1.524 . S
C3003 C2995 1.503 . S
C3003 C3002 1.370 . S
C3003 C3004 1.403 . S
C3004 C3003 1.403 . S
C3004 C3005 1.404 . S
C3004 C3007 1.539 . S
C3005 C3001 1.408 . S
C3005 C3004 1.404 . S
C3005 H3017 0.930 . S
C3006 C3002 1.524 . S
C3006 H3018 0.956 . S
C3006 H3019 0.961 . S
C3006 H3020 0.961 . S
C3007 C3004 1.539 . S
C3007 H3021 0.958 . S
C3007 H3022 0.961 . S
C3007 H3023 0.960 . S
H3008 C2992 0.931 . S
H3009 C2997 0.929 . S
H3010 C2998 0.960 . S
H3011 C2998 0.962 . S
H3012 C2998 0.960 . S
H3013 C2999 0.961 . S
H3014 C2999 0.961 . S
H3015 C2999 0.961 . S
H3016 C3000 0.931 . S
H3017 C3005 0.930 . S
H3018 C3006 0.956 . S
H3019 C3006 0.961 . S
H3020 C3006 0.961 . S
H3021 C3007 0.958 . S
H3022 C3007 0.961 . S
H3023 C3007 0.960 . S
C3024 C3025 1.391 . S
C3024 C3026 1.394 . S
C3024 H3040 0.931 . S
C3025 C3024 1.391 . S
C3025 C3029 1.376 . S
C3026 C3024 1.394 . S
C3026 C3027 1.369 . S
C3026 C3030 1.531 . S
C3027 C3026 1.369 . S
C3027 C3028 1.410 . S
C3027 C3035 1.503 . S
C3028 C3027 1.410 . S
C3028 C3029 1.392 . S
C3028 C3031 1.511 . S
C3029 C3025 1.376 . S
C3029 C3028 1.392 . S
C3029 H3041 0.929 . S
C3030 C3026 1.531 . S
C3030 H3042 0.960 . S
C3030 H3043 0.962 . S
C3030 H3044 0.960 . S
C3031 C3028 1.511 . S
C3031 H3045 0.961 . S
C3031 H3046 0.961 . S
C3031 H3047 0.961 . S
C3032 C3033 1.370 . S
C3032 C3034 1.363 . S
C3032 H3048 0.931 . S
C3033 C3032 1.370 . S
C3033 C3037 1.408 . S
C3034 C3032 1.363 . S
C3034 C3035 1.370 . S
C3034 C3038 1.524 . S
C3035 C3027 1.503 . S
C3035 C3034 1.370 . S
C3035 C3036 1.403 . S
C3036 C3035 1.403 . S
C3036 C3037 1.404 . S
C3036 C3039 1.539 . S
C3037 C3033 1.408 . S
C3037 C3036 1.404 . S
C3037 H3049 0.930 . S
C3038 C3034 1.524 . S
C3038 H3050 0.956 . S
C3038 H3051 0.961 . S
C3038 H3052 0.961 . S
C3039 C3036 1.539 . S
C3039 H3053 0.958 . S
C3039 H3054 0.961 . S
C3039 H3055 0.960 . S
H3040 C3024 0.931 . S
H3041 C3029 0.929 . S
H3042 C3030 0.960 . S
H3043 C3030 0.962 . S
H3044 C3030 0.960 . S
H3045 C3031 0.961 . S
H3046 C3031 0.961 . S
H3047 C3031 0.961 . S
H3048 C3032 0.931 . S
H3049 C3037 0.930 . S
H3050 C3038 0.956 . S
H3051 C3038 0.961 . S
H3052 C3038 0.961 . S
H3053 C3039 0.958 . S
H3054 C3039 0.961 . S
H3055 C3039 0.960 . S
C3056 C3057 1.391 . S
C3056 C3058 1.394 . S
C3056 H3072 0.931 . S
C3057 C3056 1.391 . S
C3057 C3061 1.376 . S
C3058 C3056 1.394 . S
C3058 C3059 1.369 . S
C3058 C3062 1.531 . S
C3059 C3058 1.369 . S
C3059 C3060 1.410 . S
C3059 C3067 1.503 . S
C3060 C3059 1.410 . S
C3060 C3061 1.392 . S
C3060 C3063 1.511 . S
C3061 C3057 1.376 . S
C3061 C3060 1.392 . S
C3061 H3073 0.929 . S
C3062 C3058 1.531 . S
C3062 H3074 0.960 . S
C3062 H3075 0.962 . S
C3062 H3076 0.960 . S
C3063 C3060 1.511 . S
C3063 H3077 0.961 . S
C3063 H3078 0.961 . S
C3063 H3079 0.961 . S
C3064 C3065 1.370 . S
C3064 C3066 1.363 . S
C3064 H3080 0.931 . S
C3065 C3064 1.370 . S
C3065 C3069 1.408 . S
C3066 C3064 1.363 . S
C3066 C3067 1.370 . S
C3066 C3070 1.524 . S
C3067 C3059 1.503 . S
C3067 C3066 1.370 . S
C3067 C3068 1.403 . S
C3068 C3067 1.403 . S
C3068 C3069 1.404 . S
C3068 C3071 1.539 . S
C3069 C3065 1.408 . S
C3069 C3068 1.404 . S
C3069 H3081 0.930 . S
C3070 C3066 1.524 . S
C3070 H3082 0.956 . S
C3070 H3083 0.961 . S
C3070 H3084 0.961 . S
C3071 C3068 1.539 . S
C3071 H3085 0.958 . S
C3071 H3086 0.961 . S
C3071 H3087 0.960 . S
H3072 C3056 0.931 . S
H3073 C3061 0.929 . S
H3074 C3062 0.960 . S
H3075 C3062 0.962 . S
H3076 C3062 0.960 . S
H3077 C3063 0.961 . S
H3078 C3063 0.961 . S
H3079 C3063 0.961 . S
H3080 C3064 0.931 . S
H3081 C3069 0.930 . S
H3082 C3070 0.956 . S
H3083 C3070 0.961 . S
H3084 C3070 0.961 . S
H3085 C3071 0.958 . S
H3086 C3071 0.961 . S
H3087 C3071 0.960 . S
C3088 C3089 1.388 1_545 S
C3088 C3090 1.380 1_545 S
C3088 H3104 0.947 . S
C3089 C3088 1.388 1_565 S
C3089 C3093 1.376 . S
C3090 C3088 1.380 1_565 S
C3090 C3091 1.369 . S
C3090 C3094 1.531 . S
C3091 C3090 1.369 . S
C3091 C3092 1.410 . S
C3091 C3099 1.503 . S
C3092 C3091 1.410 . S
C3092 C3093 1.392 . S
C3092 C3095 1.511 . S
C3093 C3089 1.376 . S
C3093 C3092 1.392 . S
C3093 H3105 0.929 . S
C3094 C3090 1.531 . S
C3094 H3106 0.960 . S
C3094 H3107 0.962 . S
C3094 H3108 0.960 1_565 S
C3095 C3092 1.511 . S
C3095 H3109 0.961 . S
C3095 H3110 0.961 . S
C3095 H3111 0.961 . S
C3096 C3097 1.370 . S
C3096 C3098 1.363 . S
C3096 H3112 0.931 . S
C3097 C3096 1.370 . S
C3097 C3101 1.408 . S
C3098 C3096 1.363 . S
C3098 C3099 1.370 . S
C3098 C3102 1.524 . S
C3099 C3091 1.503 . S
C3099 C3098 1.370 . S
C3099 C3100 1.403 . S
C3100 C3099 1.403 . S
C3100 C3101 1.404 . S
C3100 C3103 1.539 . S
C3101 C3097 1.408 . S
C3101 C3100 1.404 . S
C3101 H3113 0.930 . S
C3102 C3098 1.524 . S
C3102 H3114 0.956 . S
C3102 H3115 0.961 . S
C3102 H3116 0.961 . S
C3103 C3100 1.539 . S
C3103 H3117 0.958 . S
C3103 H3118 0.961 . S
C3103 H3119 0.960 . S
H3104 C3088 0.947 . S
H3105 C3093 0.929 . S
H3106 C3094 0.960 . S
H3107 C3094 0.962 . S
H3108 C3094 0.960 1_545 S
H3109 C3095 0.961 . S
H3110 C3095 0.961 . S
H3111 C3095 0.961 . S
H3112 C3096 0.931 . S
H3113 C3101 0.930 . S
H3114 C3102 0.956 . S
H3115 C3102 0.961 . S
H3116 C3102 0.961 . S
H3117 C3103 0.958 . S
H3118 C3103 0.961 . S
H3119 C3103 0.960 . S
C3120 C3121 1.391 . S
C3120 C3122 1.394 . S
C3120 H3136 0.931 . S
C3121 C3120 1.391 . S
C3121 C3125 1.376 1_554 S
C3122 C3120 1.394 . S
C3122 C3123 1.369 . S
C3122 C3126 1.531 . S
C3123 C3122 1.369 . S
C3123 C3124 1.410 1_554 S
C3123 C3131 1.503 . S
C3124 C3123 1.410 1_556 S
C3124 C3125 1.392 . S
C3124 C3127 1.511 . S
C3125 C3121 1.376 1_556 S
C3125 C3124 1.392 . S
C3125 H3137 0.929 . S
C3126 C3122 1.531 . S
C3126 H3138 0.960 . S
C3126 H3139 0.962 . S
C3126 H3140 0.960 . S
C3127 C3124 1.511 . S
C3127 H3141 0.961 . S
C3127 H3142 0.961 . S
C3127 H3143 0.961 . S
C3128 C3129 1.370 . S
C3128 C3130 1.363 . S
C3128 H3144 0.931 . S
C3129 C3128 1.370 . S
C3129 C3133 1.408 1_545 S
C3130 C3128 1.363 . S
C3130 C3131 1.370 1_545 S
C3130 C3134 1.524 . S
C3131 C3123 1.503 . S
C3131 C3130 1.370 1_565 S
C3131 C3132 1.403 . S
C3132 C3131 1.403 . S
C3132 C3133 1.404 . S
C3132 C3135 1.539 . S
C3133 C3129 1.408 1_565 S
C3133 C3132 1.404 . S
C3133 H3145 0.930 . S
C3134 C3130 1.524 . S
C3134 H3146 0.956 . S
C3134 H3147 0.961 . S
C3134 H3148 0.961 . S
C3135 C3132 1.539 . S
C3135 H3149 0.958 . S
C3135 H3150 0.961 . S
C3135 H3151 0.960 . S
H3136 C3120 0.931 . S
H3137 C3125 0.929 . S
H3138 C3126 0.960 . S
H3139 C3126 0.962 . S
H3140 C3126 0.960 . S
H3141 C3127 0.961 . S
H3142 C3127 0.961 . S
H3143 C3127 0.961 . S
H3144 C3128 0.931 . S
H3145 C3133 0.930 . S
H3146 C3134 0.956 . S
H3147 C3134 0.961 . S
H3148 C3134 0.961 . S
H3149 C3135 0.958 . S
H3150 C3135 0.961 . S
H3151 C3135 0.960 . S
C3152 C3153 1.391 . S
C3152 C3154 1.394 . S
C3152 H3168 0.931 . S
C3153 C3152 1.391 . S
C3153 C3157 1.376 . S
C3154 C3152 1.394 . S
C3154 C3155 1.369 . S
C3154 C3158 1.531 . S
C3155 C3154 1.369 . S
C3155 C3156 1.410 . S
C3155 C3163 1.503 . S
C3156 C3155 1.410 . S
C3156 C3157 1.392 . S
C3156 C3159 1.511 . S
C3157 C3153 1.376 . S
C3157 C3156 1.392 . S
C3157 H3169 0.929 . S
C3158 C3154 1.531 . S
C3158 H3170 0.960 . S
C3158 H3171 0.962 . S
C3158 H3172 0.960 . S
C3159 C3156 1.511 . S
C3159 H3173 0.961 . S
C3159 H3174 0.961 . S
C3159 H3175 0.961 . S
C3160 C3161 1.370 . S
C3160 C3162 1.363 . S
C3160 H3176 0.931 . S
C3161 C3160 1.370 . S
C3161 C3165 1.408 . S
C3162 C3160 1.363 . S
C3162 C3163 1.370 . S
C3162 C3166 1.524 . S
C3163 C3155 1.503 . S
C3163 C3162 1.370 . S
C3163 C3164 1.403 . S
C3164 C3163 1.403 . S
C3164 C3165 1.404 . S
C3164 C3167 1.539 . S
C3165 C3161 1.408 . S
C3165 C3164 1.404 . S
C3165 H3177 0.930 . S
C3166 C3162 1.524 . S
C3166 H3178 0.956 . S
C3166 H3179 0.961 . S
C3166 H3180 0.961 . S
C3167 C3164 1.539 . S
C3167 H3181 0.958 . S
C3167 H3182 0.961 . S
C3167 H3183 0.960 . S
H3168 C3152 0.931 . S
H3169 C3157 0.929 . S
H3170 C3158 0.960 . S
H3171 C3158 0.962 . S
H3172 C3158 0.960 . S
H3173 C3159 0.961 . S
H3174 C3159 0.961 . S
H3175 C3159 0.961 . S
H3176 C3160 0.931 . S
H3177 C3165 0.930 . S
H3178 C3166 0.956 . S
H3179 C3166 0.961 . S
H3180 C3166 0.961 . S
H3181 C3167 0.958 . S
H3182 C3167 0.961 . S
H3183 C3167 0.960 . S
C3184 C3185 1.391 . S
C3184 C3186 1.394 . S
C3184 H3200 0.955 . S
C3185 C3184 1.391 . S
C3185 C3189 1.376 . S
C3186 C3184 1.394 . S
C3186 C3187 1.369 . S
C3186 C3190 1.531 . S
C3187 C3186 1.369 . S
C3187 C3188 1.410 . S
C3187 C3195 1.503 . S
C3188 C3187 1.410 . S
C3188 C3189 1.392 . S
C3188 C3191 1.511 . S
C3189 C3185 1.376 . S
C3189 C3188 1.392 . S
C3189 H3201 0.929 . S
C3190 C3186 1.531 . S
C3190 H3202 0.960 . S
C3190 H3203 0.962 . S
C3190 H3204 0.960 1_554 S
C3191 C3188 1.511 . S
C3191 H3205 0.961 . S
C3191 H3206 0.961 . S
C3191 H3207 0.961 . S
C3192 C3193 1.370 . S
C3192 C3194 1.363 . S
C3192 H3208 0.931 . S
C3193 C3192 1.370 . S
C3193 C3197 1.408 . S
C3194 C3192 1.363 . S
C3194 C3195 1.370 . S
C3194 C3198 1.524 . S
C3195 C3187 1.503 . S
C3195 C3194 1.370 . S
C3195 C3196 1.403 . S
C3196 C3195 1.403 . S
C3196 C3197 1.404 . S
C3196 C3199 1.539 . S
C3197 C3193 1.408 . S
C3197 C3196 1.404 . S
C3197 H3209 0.930 . S
C3198 C3194 1.524 . S
C3198 H3210 0.956 . S
C3198 H3211 0.961 . S
C3198 H3212 0.961 . S
C3199 C3196 1.539 . S
C3199 H3213 0.958 . S
C3199 H3214 0.961 . S
C3199 H3215 0.960 . S
H3200 C3184 0.955 . S
H3201 C3189 0.929 . S
H3202 C3190 0.960 . S
H3203 C3190 0.962 . S
H3204 C3190 0.960 1_556 S
H3205 C3191 0.961 . S
H3206 C3191 0.961 . S
H3207 C3191 0.961 . S
H3208 C3192 0.931 . S
H3209 C3197 0.930 . S
H3210 C3198 0.956 . S
H3211 C3198 0.961 . S
H3212 C3198 0.961 . S
H3213 C3199 0.958 . S
H3214 C3199 0.961 . S
H3215 C3199 0.960 . S
C3216 C3217 1.391 . S
C3216 C3218 1.394 . S
C3216 H3232 0.931 . S
C3217 C3216 1.391 . S
C3217 C3221 1.376 . S
C3218 C3216 1.394 . S
C3218 C3219 1.369 . S
C3218 C3222 1.531 . S
C3219 C3218 1.369 . S
C3219 C3220 1.410 . S
C3219 C3227 1.503 . S
C3220 C3219 1.410 . S
C3220 C3221 1.392 . S
C3220 C3223 1.511 . S
C3221 C3217 1.376 . S
C3221 C3220 1.392 . S
C3221 H3233 0.929 . S
C3222 C3218 1.531 . S
C3222 H3234 0.960 . S
C3222 H3235 0.962 . S
C3222 H3236 0.960 . S
C3223 C3220 1.511 . S
C3223 H3237 0.961 . S
C3223 H3238 0.961 . S
C3223 H3239 0.961 . S
C3224 C3225 1.370 . S
C3224 C3226 1.363 . S
C3224 H3240 0.931 . S
C3225 C3224 1.370 . S
C3225 C3229 1.408 . S
C3226 C3224 1.363 . S
C3226 C3227 1.370 . S
C3226 C3230 1.524 . S
C3227 C3219 1.503 . S
C3227 C3226 1.370 . S
C3227 C3228 1.403 . S
C3228 C3227 1.403 . S
C3228 C3229 1.404 . S
C3228 C3231 1.539 . S
C3229 C3225 1.408 . S
C3229 C3228 1.404 . S
C3229 H3241 0.930 . S
C3230 C3226 1.524 . S
C3230 H3242 0.956 . S
C3230 H3243 0.961 . S
C3230 H3244 0.961 . S
C3231 C3228 1.539 . S
C3231 H3245 0.958 . S
C3231 H3246 0.961 . S
C3231 H3247 0.960 . S
H3232 C3216 0.931 . S
H3233 C3221 0.929 . S
H3234 C3222 0.960 . S
H3235 C3222 0.962 . S
H3236 C3222 0.960 . S
H3237 C3223 0.961 . S
H3238 C3223 0.961 . S
H3239 C3223 0.961 . S
H3240 C3224 0.931 . S
H3241 C3229 0.930 . S
H3242 C3230 0.956 . S
H3243 C3230 0.961 . S
H3244 C3230 0.961 . S
H3245 C3231 0.958 . S
H3246 C3231 0.961 . S
H3247 C3231 0.960 . S
C3248 C3249 1.391 . S
C3248 C3250 1.394 . S
C3248 H3264 0.931 . S
C3249 C3248 1.391 . S
C3249 C3253 1.376 . S
C3250 C3248 1.394 . S
C3250 C3251 1.369 . S
C3250 C3254 1.531 . S
C3251 C3250 1.369 . S
C3251 C3252 1.410 . S
C3251 C3259 1.503 . S
C3252 C3251 1.410 . S
C3252 C3253 1.392 . S
C3252 C3255 1.511 . S
C3253 C3249 1.376 . S
C3253 C3252 1.392 . S
C3253 H3265 0.929 . S
C3254 C3250 1.531 . S
C3254 H3266 0.960 . S
C3254 H3267 0.962 . S
C3254 H3268 0.960 . S
C3255 C3252 1.511 . S
C3255 H3269 0.961 . S
C3255 H3270 0.961 . S
C3255 H3271 0.961 . S
C3256 C3257 1.370 . S
C3256 C3258 1.363 . S
C3256 H3272 0.931 . S
C3257 C3256 1.370 . S
C3257 C3261 1.408 . S
C3258 C3256 1.363 . S
C3258 C3259 1.370 . S
C3258 C3262 1.524 . S
C3259 C3251 1.503 . S
C3259 C3258 1.370 . S
C3259 C3260 1.403 . S
C3260 C3259 1.403 . S
C3260 C3261 1.404 . S
C3260 C3263 1.539 . S
C3261 C3257 1.408 . S
C3261 C3260 1.404 . S
C3261 H3273 0.930 . S
C3262 C3258 1.524 . S
C3262 H3274 0.956 . S
C3262 H3275 0.961 . S
C3262 H3276 0.961 . S
C3263 C3260 1.539 . S
C3263 H3277 0.958 . S
C3263 H3278 0.961 . S
C3263 H3279 0.960 . S
H3264 C3248 0.931 . S
H3265 C3253 0.929 . S
H3266 C3254 0.960 . S
H3267 C3254 0.962 . S
H3268 C3254 0.960 . S
H3269 C3255 0.961 . S
H3270 C3255 0.961 . S
H3271 C3255 0.961 . S
H3272 C3256 0.931 . S
H3273 C3261 0.930 . S
H3274 C3262 0.956 . S
H3275 C3262 0.961 . S
H3276 C3262 0.961 . S
H3277 C3263 0.958 . S
H3278 C3263 0.961 . S
H3279 C3263 0.960 . S
C3280 C3281 1.391 . S
C3280 C3282 1.394 . S
C3280 H3296 0.931 . S
C3281 C3280 1.391 . S
C3281 C3285 1.376 . S
C3282 C3280 1.394 . S
C3282 C3283 1.369 . S
C3282 C3286 1.531 . S
C3283 C3282 1.369 . S
C3283 C3284 1.410 . S
C3283 C3291 1.503 . S
C3284 C3283 1.410 . S
C3284 C3285 1.392 . S
C3284 C3287 1.511 . S
C3285 C3281 1.376 . S
C3285 C3284 1.392 . S
C3285 H3297 0.929 . S
C3286 C3282 1.531 . S
C3286 H3298 0.960 . S
C3286 H3299 0.962 . S
C3286 H3300 0.960 . S
C3287 C3284 1.511 . S
C3287 H3301 0.961 . S
C3287 H3302 0.961 . S
C3287 H3303 0.961 . S
C3288 C3289 1.370 . S
C3288 C3290 1.363 . S
C3288 H3304 0.931 . S
C3289 C3288 1.370 . S
C3289 C3293 1.408 . S
C3290 C3288 1.363 . S
C3290 C3291 1.370 . S
C3290 C3294 1.524 . S
C3291 C3283 1.503 . S
C3291 C3290 1.370 . S
C3291 C3292 1.403 . S
C3292 C3291 1.403 . S
C3292 C3293 1.404 . S
C3292 C3295 1.539 . S
C3293 C3289 1.408 . S
C3293 C3292 1.404 . S
C3293 H3305 0.930 . S
C3294 C3290 1.524 . S
C3294 H3306 0.956 . S
C3294 H3307 0.961 . S
C3294 H3308 0.961 . S
C3295 C3292 1.539 . S
C3295 H3309 0.958 . S
C3295 H3310 0.961 . S
C3295 H3311 0.960 . S
H3296 C3280 0.931 . S
H3297 C3285 0.929 . S
H3298 C3286 0.960 . S
H3299 C3286 0.962 . S
H3300 C3286 0.960 . S
H3301 C3287 0.961 . S
H3302 C3287 0.961 . S
H3303 C3287 0.961 . S
H3304 C3288 0.931 . S
H3305 C3293 0.930 . S
H3306 C3294 0.956 . S
H3307 C3294 0.961 . S
H3308 C3294 0.961 . S
H3309 C3295 0.958 . S
H3310 C3295 0.961 . S
H3311 C3295 0.960 . S
C3312 C3313 1.391 . S
C3312 C3314 1.394 . S
C3312 H3328 0.931 . S
C3313 C3312 1.391 . S
C3313 C3317 1.376 . S
C3314 C3312 1.394 . S
C3314 C3315 1.369 . S
C3314 C3318 1.531 . S
C3315 C3314 1.369 . S
C3315 C3316 1.410 . S
C3315 C3323 1.503 . S
C3316 C3315 1.410 . S
C3316 C3317 1.392 . S
C3316 C3319 1.511 . S
C3317 C3313 1.376 . S
C3317 C3316 1.392 . S
C3317 H3329 0.929 . S
C3318 C3314 1.531 . S
C3318 H3330 0.960 . S
C3318 H3331 0.962 . S
C3318 H3332 0.960 . S
C3319 C3316 1.511 . S
C3319 H3333 0.961 . S
C3319 H3334 0.961 . S
C3319 H3335 0.961 . S
C3320 C3321 1.370 . S
C3320 C3322 1.363 . S
C3320 H3336 0.931 . S
C3321 C3320 1.370 . S
C3321 C3325 1.408 . S
C3322 C3320 1.363 . S
C3322 C3323 1.370 . S
C3322 C3326 1.524 . S
C3323 C3315 1.503 . S
C3323 C3322 1.370 . S
C3323 C3324 1.403 . S
C3324 C3323 1.403 . S
C3324 C3325 1.404 . S
C3324 C3327 1.539 . S
C3325 C3321 1.408 . S
C3325 C3324 1.404 . S
C3325 H3337 0.930 . S
C3326 C3322 1.524 . S
C3326 H3338 0.956 . S
C3326 H3339 0.961 . S
C3326 H3340 0.961 . S
C3327 C3324 1.539 . S
C3327 H3341 0.958 . S
C3327 H3342 0.961 . S
C3327 H3343 0.960 . S
H3328 C3312 0.931 . S
H3329 C3317 0.929 . S
H3330 C3318 0.960 . S
H3331 C3318 0.962 . S
H3332 C3318 0.960 . S
H3333 C3319 0.961 . S
H3334 C3319 0.961 . S
H3335 C3319 0.961 . S
H3336 C3320 0.931 . S
H3337 C3325 0.930 . S
H3338 C3326 0.956 . S
H3339 C3326 0.961 . S
H3340 C3326 0.961 . S
H3341 C3327 0.958 . S
H3342 C3327 0.961 . S
H3343 C3327 0.960 . S
C3344 C3345 1.391 . S
C3344 C3346 1.394 . S
C3344 H3360 0.931 . S
C3345 C3344 1.391 . S
C3345 C3349 1.376 . S
C3346 C3344 1.394 . S
C3346 C3347 1.369 . S
C3346 C3350 1.531 . S
C3347 C3346 1.369 . S
C3347 C3348 1.410 . S
C3347 C3355 1.503 . S
C3348 C3347 1.410 . S
C3348 C3349 1.392 . S
C3348 C3351 1.511 . S
C3349 C3345 1.376 . S
C3349 C3348 1.392 . S
C3349 H3361 0.929 . S
C3350 C3346 1.531 . S
C3350 H3362 0.960 . S
C3350 H3363 0.962 . S
C3350 H3364 0.960 . S
C3351 C3348 1.511 . S
C3351 H3365 0.961 1_455 S
C3351 H3366 0.961 . S
C3351 H3367 0.961 1_455 S
C3352 C3353 1.370 . S
C3352 C3354 1.363 . S
C3352 H3368 0.931 . S
C3353 C3352 1.370 . S
C3353 C3357 1.408 . S
C3354 C3352 1.363 . S
C3354 C3355 1.370 . S
C3354 C3358 1.524 . S
C3355 C3347 1.503 . S
C3355 C3354 1.370 . S
C3355 C3356 1.403 . S
C3356 C3355 1.403 . S
C3356 C3357 1.404 . S
C3356 C3359 1.539 . S
C3357 C3353 1.408 . S
C3357 C3356 1.404 . S
C3357 H3369 0.930 . S
C3358 C3354 1.524 . S
C3358 H3370 0.956 . S
C3358 H3371 0.961 . S
C3358 H3372 0.961 . S
C3359 C3356 1.539 . S
C3359 H3373 0.958 . S
C3359 H3374 0.961 . S
C3359 H3375 0.960 . S
H3360 C3344 0.931 . S
H3361 C3349 0.929 . S
H3362 C3350 0.960 . S
H3363 C3350 0.962 . S
H3364 C3350 0.960 . S
H3365 C3351 0.961 1_655 S
H3366 C3351 0.961 . S
H3367 C3351 0.961 1_655 S
H3368 C3352 0.931 . S
H3369 C3357 0.930 . S
H3370 C3358 0.956 . S
H3371 C3358 0.961 . S
H3372 C3358 0.961 . S
H3373 C3359 0.958 . S
H3374 C3359 0.961 . S
H3375 C3359 0.960 . S
C3376 C3377 1.391 . S
C3376 C3378 1.394 . S
C3376 H3392 0.931 . S
C3377 C3376 1.391 . S
C3377 C3381 1.376 . S
C3378 C3376 1.394 . S
C3378 C3379 1.369 . S
C3378 C3382 1.531 . S
C3379 C3378 1.369 . S
C3379 C3380 1.410 . S
C3379 C3387 1.503 . S
C3380 C3379 1.410 . S
C3380 C3381 1.392 . S
C3380 C3383 1.511 . S
C3381 C3377 1.376 . S
C3381 C3380 1.392 . S
C3381 H3393 0.929 . S
C3382 C3378 1.531 . S
C3382 H3394 0.960 . S
C3382 H3395 0.962 . S
C3382 H3396 0.960 . S
C3383 C3380 1.511 . S
C3383 H3397 0.961 . S
C3383 H3398 0.961 . S
C3383 H3399 0.961 . S
C3384 C3385 1.370 . S
C3384 C3386 1.363 . S
C3384 H3400 0.931 . S
C3385 C3384 1.370 . S
C3385 C3389 1.408 . S
C3386 C3384 1.363 . S
C3386 C3387 1.370 . S
C3386 C3390 1.524 . S
C3387 C3379 1.503 . S
C3387 C3386 1.370 . S
C3387 C3388 1.403 . S
C3388 C3387 1.403 . S
C3388 C3389 1.404 . S
C3388 C3391 1.539 . S
C3389 C3385 1.408 . S
C3389 C3388 1.404 . S
C3389 H3401 0.930 . S
C3390 C3386 1.524 . S
C3390 H3402 0.956 . S
C3390 H3403 0.961 . S
C3390 H3404 0.961 . S
C3391 C3388 1.539 . S
C3391 H3405 0.958 . S
C3391 H3406 0.961 . S
C3391 H3407 0.960 . S
H3392 C3376 0.931 . S
H3393 C3381 0.929 . S
H3394 C3382 0.960 . S
H3395 C3382 0.962 . S
H3396 C3382 0.960 . S
H3397 C3383 0.961 . S
H3398 C3383 0.961 . S
H3399 C3383 0.961 . S
H3400 C3384 0.931 . S
H3401 C3389 0.930 . S
H3402 C3390 0.956 . S
H3403 C3390 0.961 . S
H3404 C3390 0.961 . S
H3405 C3391 0.958 . S
H3406 C3391 0.961 . S
H3407 C3391 0.960 . S
C3408 C3409 1.391 . S
C3408 C3410 1.394 . S
C3408 H3424 0.931 . S
C3409 C3408 1.391 . S
C3409 C3413 1.376 . S
C3410 C3408 1.394 . S
C3410 C3411 1.369 . S
C3410 C3414 1.531 . S
C3411 C3410 1.369 . S
C3411 C3412 1.410 . S
C3411 C3419 1.503 . S
C3412 C3411 1.410 . S
C3412 C3413 1.392 . S
C3412 C3415 1.511 . S
C3413 C3409 1.376 . S
C3413 C3412 1.392 . S
C3413 H3425 0.929 . S
C3414 C3410 1.531 . S
C3414 H3426 0.960 . S
C3414 H3427 0.962 . S
C3414 H3428 0.960 . S
C3415 C3412 1.511 . S
C3415 H3429 0.961 . S
C3415 H3430 0.961 . S
C3415 H3431 0.961 . S
C3416 C3417 1.370 . S
C3416 C3418 1.363 . S
C3416 H3432 0.931 . S
C3417 C3416 1.370 . S
C3417 C3421 1.408 . S
C3418 C3416 1.363 . S
C3418 C3419 1.370 . S
C3418 C3422 1.524 . S
C3419 C3411 1.503 . S
C3419 C3418 1.370 . S
C3419 C3420 1.403 . S
C3420 C3419 1.403 . S
C3420 C3421 1.404 . S
C3420 C3423 1.539 . S
C3421 C3417 1.408 . S
C3421 C3420 1.404 . S
C3421 H3433 0.930 . S
C3422 C3418 1.524 . S
C3422 H3434 0.956 . S
C3422 H3435 0.961 . S
C3422 H3436 0.961 . S
C3423 C3420 1.539 . S
C3423 H3437 0.958 . S
C3423 H3438 0.961 . S
C3423 H3439 0.960 . S
H3424 C3408 0.931 . S
H3425 C3413 0.929 . S
H3426 C3414 0.960 . S
H3427 C3414 0.962 . S
H3428 C3414 0.960 . S
H3429 C3415 0.961 . S
H3430 C3415 0.961 . S
H3431 C3415 0.961 . S
H3432 C3416 0.931 . S
H3433 C3421 0.930 . S
H3434 C3422 0.956 . S
H3435 C3422 0.961 . S
H3436 C3422 0.961 . S
H3437 C3423 0.958 . S
H3438 C3423 0.961 . S
H3439 C3423 0.960 . S
C3440 C3441 1.391 . S
C3440 C3442 1.394 . S
C3440 H3456 0.931 . S
C3441 C3440 1.391 . S
C3441 C3445 1.376 . S
C3442 C3440 1.394 . S
C3442 C3443 1.369 . S
C3442 C3446 1.531 . S
C3443 C3442 1.369 . S
C3443 C3444 1.410 . S
C3443 C3451 1.503 . S
C3444 C3443 1.410 . S
C3444 C3445 1.392 . S
C3444 C3447 1.511 . S
C3445 C3441 1.376 . S
C3445 C3444 1.392 . S
C3445 H3457 0.929 . S
C3446 C3442 1.531 . S
C3446 H3458 0.960 . S
C3446 H3459 0.962 . S
C3446 H3460 0.960 . S
C3447 C3444 1.511 . S
C3447 H3461 0.961 . S
C3447 H3462 0.961 . S
C3447 H3463 0.961 . S
C3448 C3449 1.370 . S
C3448 C3450 1.363 . S
C3448 H3464 0.931 . S
C3449 C3448 1.370 . S
C3449 C3453 1.408 . S
C3450 C3448 1.363 . S
C3450 C3451 1.370 . S
C3450 C3454 1.524 . S
C3451 C3443 1.503 . S
C3451 C3450 1.370 . S
C3451 C3452 1.403 . S
C3452 C3451 1.403 . S
C3452 C3453 1.404 . S
C3452 C3455 1.539 . S
C3453 C3449 1.408 . S
C3453 C3452 1.404 . S
C3453 H3465 0.930 . S
C3454 C3450 1.524 . S
C3454 H3466 0.956 . S
C3454 H3467 0.961 . S
C3454 H3468 0.961 . S
C3455 C3452 1.539 . S
C3455 H3469 0.958 . S
C3455 H3470 0.961 . S
C3455 H3471 0.960 . S
H3456 C3440 0.931 . S
H3457 C3445 0.929 . S
H3458 C3446 0.960 . S
H3459 C3446 0.962 . S
H3460 C3446 0.960 . S
H3461 C3447 0.961 . S
H3462 C3447 0.961 . S
H3463 C3447 0.961 . S
H3464 C3448 0.931 . S
H3465 C3453 0.930 . S
H3466 C3454 0.956 . S
H3467 C3454 0.961 . S
H3468 C3454 0.961 . S
H3469 C3455 0.958 . S
H3470 C3455 0.961 . S
H3471 C3455 0.960 . S
C3472 C3473 1.391 . S
C3472 C3474 1.394 . S
C3472 H3488 0.931 . S
C3473 C3472 1.391 . S
C3473 C3477 1.376 . S
C3474 C3472 1.394 . S
C3474 C3475 1.369 . S
C3474 C3478 1.531 . S
C3475 C3474 1.369 . S
C3475 C3476 1.410 . S
C3475 C3483 1.503 . S
C3476 C3475 1.410 . S
C3476 C3477 1.392 . S
C3476 C3479 1.465 1_455 S
C3477 C3473 1.376 . S
C3477 C3476 1.392 . S
C3477 H3489 0.929 . S
C3478 C3474 1.531 . S
C3478 H3490 0.960 . S
C3478 H3491 0.962 . S
C3478 H3492 0.960 . S
C3479 C3476 1.465 1_655 S
C3479 H3493 0.985 . S
C3479 H3494 0.974 . S
C3479 H3495 0.972 . S
C3480 C3481 1.370 . S
C3480 C3482 1.363 . S
C3480 H3496 0.931 . S
C3481 C3480 1.370 . S
C3481 C3485 1.408 . S
C3482 C3480 1.363 . S
C3482 C3483 1.370 . S
C3482 C3486 1.524 . S
C3483 C3475 1.503 . S
C3483 C3482 1.370 . S
C3483 C3484 1.403 . S
C3484 C3483 1.403 . S
C3484 C3485 1.404 . S
C3484 C3487 1.539 . S
C3485 C3481 1.408 . S
C3485 C3484 1.404 . S
C3485 H3497 0.930 . S
C3486 C3482 1.524 . S
C3486 H3498 0.956 . S
C3486 H3499 0.961 . S
C3486 H3500 0.961 . S
C3487 C3484 1.539 . S
C3487 H3501 0.958 . S
C3487 H3502 0.961 . S
C3487 H3503 0.960 . S
H3488 C3472 0.931 . S
H3489 C3477 0.929 . S
H3490 C3478 0.960 . S
H3491 C3478 0.962 . S
H3492 C3478 0.960 . S
H3493 C3479 0.985 . S
H3494 C3479 0.974 . S
H3495 C3479 0.972 . S
H3496 C3480 0.931 . S
H3497 C3485 0.930 . S
H3498 C3486 0.956 . S
H3499 C3486 0.961 . S
H3500 C3486 0.961 . S
H3501 C3487 0.958 . S
H3502 C3487 0.961 . S
H3503 C3487 0.960 . S
C3504 C3505 1.391 . S
C3504 C3506 1.394 . S
C3504 H3520 0.931 . S
C3505 C3504 1.391 . S
C3505 C3509 1.376 . S
C3506 C3504 1.394 . S
C3506 C3507 1.369 . S
C3506 C3510 1.531 . S
C3507 C3506 1.369 . S
C3507 C3508 1.410 . S
C3507 C3515 1.503 . S
C3508 C3507 1.410 . S
C3508 C3509 1.392 . S
C3508 C3511 1.511 . S
C3509 C3505 1.376 . S
C3509 C3508 1.392 . S
C3509 H3521 0.929 . S
C3510 C3506 1.531 . S
C3510 H3522 0.960 . S
C3510 H3523 0.962 . S
C3510 H3524 0.960 . S
C3511 C3508 1.511 . S
C3511 H3525 0.961 . S
C3511 H3526 0.961 . S
C3511 H3527 0.961 . S
C3512 C3513 1.370 . S
C3512 C3514 1.363 . S
C3512 H3528 0.931 . S
C3513 C3512 1.370 . S
C3513 C3517 1.408 . S
C3514 C3512 1.363 . S
C3514 C3515 1.370 . S
C3514 C3518 1.524 . S
C3515 C3507 1.503 . S
C3515 C3514 1.370 . S
C3515 C3516 1.403 . S
C3516 C3515 1.403 . S
C3516 C3517 1.404 . S
C3516 C3519 1.539 . S
C3517 C3513 1.408 . S
C3517 C3516 1.404 . S
C3517 H3529 0.930 . S
C3518 C3514 1.524 . S
C3518 H3530 0.956 . S
C3518 H3531 0.961 . S
C3518 H3532 0.961 . S
C3519 C3516 1.539 . S
C3519 H3533 0.958 . S
C3519 H3534 0.961 . S
C3519 H3535 0.960 . S
H3520 C3504 0.931 . S
H3521 C3509 0.929 . S
H3522 C3510 0.960 . S
H3523 C3510 0.962 . S
H3524 C3510 0.960 . S
H3525 C3511 0.961 . S
H3526 C3511 0.961 . S
H3527 C3511 0.961 . S
H3528 C3512 0.931 . S
H3529 C3517 0.930 . S
H3530 C3518 0.956 . S
H3531 C3518 0.961 . S
H3532 C3518 0.961 . S
H3533 C3519 0.958 . S
H3534 C3519 0.961 . S
H3535 C3519 0.960 . S
C3536 C3537 1.391 . S
C3536 C3538 1.394 . S
C3536 H3552 0.931 . S
C3537 C3536 1.391 . S
C3537 C3541 1.376 . S
C3538 C3536 1.394 . S
C3538 C3539 1.369 . S
C3538 C3542 1.531 . S
C3539 C3538 1.369 . S
C3539 C3540 1.410 . S
C3539 C3547 1.503 . S
C3540 C3539 1.410 . S
C3540 C3541 1.392 . S
C3540 C3543 1.511 . S
C3541 C3537 1.376 . S
C3541 C3540 1.392 . S
C3541 H3553 0.929 . S
C3542 C3538 1.531 . S
C3542 H3554 0.960 . S
C3542 H3555 0.962 . S
C3542 H3556 0.960 . S
C3543 C3540 1.511 . S
C3543 H3557 0.961 . S
C3543 H3558 0.961 . S
C3543 H3559 0.961 . S
C3544 C3545 1.370 . S
C3544 C3546 1.363 . S
C3544 H3560 0.931 . S
C3545 C3544 1.370 . S
C3545 C3549 1.408 . S
C3546 C3544 1.363 . S
C3546 C3547 1.370 . S
C3546 C3550 1.524 . S
C3547 C3539 1.503 . S
C3547 C3546 1.370 . S
C3547 C3548 1.403 . S
C3548 C3547 1.403 . S
C3548 C3549 1.404 . S
C3548 C3551 1.539 . S
C3549 C3545 1.408 . S
C3549 C3548 1.404 . S
C3549 H3561 0.930 . S
C3550 C3546 1.524 . S
C3550 H3562 0.956 . S
C3550 H3563 0.961 . S
C3550 H3564 0.961 . S
C3551 C3548 1.539 . S
C3551 H3565 0.958 . S
C3551 H3566 0.961 . S
C3551 H3567 0.960 . S
H3552 C3536 0.931 . S
H3553 C3541 0.929 . S
H3554 C3542 0.960 . S
H3555 C3542 0.962 . S
H3556 C3542 0.960 . S
H3557 C3543 0.961 . S
H3558 C3543 0.961 . S
H3559 C3543 0.961 . S
H3560 C3544 0.931 . S
H3561 C3549 0.930 . S
H3562 C3550 0.956 . S
H3563 C3550 0.961 . S
H3564 C3550 0.961 . S
H3565 C3551 0.958 . S
H3566 C3551 0.961 . S
H3567 C3551 0.960 . S
C3568 C3569 1.391 . S
C3568 C3570 1.394 . S
C3568 H3584 0.931 . S
C3569 C3568 1.391 . S
C3569 C3573 1.376 . S
C3570 C3568 1.394 . S
C3570 C3571 1.369 . S
C3570 C3574 1.531 . S
C3571 C3570 1.369 . S
C3571 C3572 1.410 . S
C3571 C3579 1.503 . S
C3572 C3571 1.410 . S
C3572 C3573 1.392 . S
C3572 C3575 1.511 . S
C3573 C3569 1.376 . S
C3573 C3572 1.392 . S
C3573 H3585 0.929 . S
C3574 C3570 1.531 . S
C3574 H3586 0.960 . S
C3574 H3587 0.962 . S
C3574 H3588 0.960 . S
C3575 C3572 1.511 . S
C3575 H3589 0.961 . S
C3575 H3590 0.961 . S
C3575 H3591 0.961 . S
C3576 C3577 1.370 . S
C3576 C3578 1.363 . S
C3576 H3592 0.931 . S
C3577 C3576 1.370 . S
C3577 C3581 1.408 . S
C3578 C3576 1.363 . S
C3578 C3579 1.370 . S
C3578 C3582 1.524 . S
C3579 C3571 1.503 . S
C3579 C3578 1.370 . S
C3579 C3580 1.403 . S
C3580 C3579 1.403 . S
C3580 C3581 1.404 . S
C3580 C3583 1.539 . S
C3581 C3577 1.408 . S
C3581 C3580 1.404 . S
C3581 H3593 0.930 . S
C3582 C3578 1.524 . S
C3582 H3594 0.956 . S
C3582 H3595 0.961 . S
C3582 H3596 0.961 . S
C3583 C3580 1.539 . S
C3583 H3597 0.958 . S
C3583 H3598 0.961 . S
C3583 H3599 0.960 . S
H3584 C3568 0.931 . S
H3585 C3573 0.929 . S
H3586 C3574 0.960 . S
H3587 C3574 0.962 . S
H3588 C3574 0.960 . S
H3589 C3575 0.961 . S
H3590 C3575 0.961 . S
H3591 C3575 0.961 . S
H3592 C3576 0.931 . S
H3593 C3581 0.930 . S
H3594 C3582 0.956 . S
H3595 C3582 0.961 . S
H3596 C3582 0.961 . S
H3597 C3583 0.958 . S
H3598 C3583 0.961 . S
H3599 C3583 0.960 . S
C3600 C3601 1.391 . S
C3600 C3602 1.394 . S
C3600 H3616 0.931 . S
C3601 C3600 1.391 . S
C3601 C3605 1.376 . S
C3602 C3600 1.394 . S
C3602 C3603 1.369 . S
C3602 C3606 1.531 . S
C3603 C3602 1.369 . S
C3603 C3604 1.410 . S
C3603 C3611 1.503 . S
C3604 C3603 1.410 . S
C3604 C3605 1.392 . S
C3604 C3607 1.511 . S
C3605 C3601 1.376 . S
C3605 C3604 1.392 . S
C3605 H3617 0.929 . S
C3606 C3602 1.531 . S
C3606 H3618 0.960 . S
C3606 H3619 0.962 . S
C3606 H3620 0.960 . S
C3607 C3604 1.511 . S
C3607 H3621 0.961 . S
C3607 H3622 0.961 . S
C3607 H3623 0.961 . S
C3608 C3609 1.370 . S
C3608 C3610 1.363 . S
C3608 H3624 0.931 . S
C3609 C3608 1.370 . S
C3609 C3613 1.408 . S
C3610 C3608 1.363 . S
C3610 C3611 1.370 . S
C3610 C3614 1.524 . S
C3611 C3603 1.503 . S
C3611 C3610 1.370 . S
C3611 C3612 1.403 . S
C3612 C3611 1.403 . S
C3612 C3613 1.404 . S
C3612 C3615 1.539 . S
C3613 C3609 1.408 . S
C3613 C3612 1.404 . S
C3613 H3625 0.930 1_655 S
C3614 C3610 1.524 . S
C3614 H3626 0.956 . S
C3614 H3627 0.961 . S
C3614 H3628 0.961 . S
C3615 C3612 1.539 . S
C3615 H3629 0.958 . S
C3615 H3630 0.961 . S
C3615 H3631 0.960 . S
H3616 C3600 0.931 . S
H3617 C3605 0.929 . S
H3618 C3606 0.960 . S
H3619 C3606 0.962 . S
H3620 C3606 0.960 . S
H3621 C3607 0.961 . S
H3622 C3607 0.961 . S
H3623 C3607 0.961 . S
H3624 C3608 0.931 . S
H3625 C3613 0.930 1_455 S
H3626 C3614 0.956 . S
H3627 C3614 0.961 . S
H3628 C3614 0.961 . S
H3629 C3615 0.958 . S
H3630 C3615 0.961 . S
H3631 C3615 0.960 . S
C3632 C3633 1.391 . S
C3632 C3634 1.394 . S
C3632 H3648 0.931 . S
C3633 C3632 1.391 . S
C3633 C3637 1.376 . S
C3634 C3632 1.394 . S
C3634 C3635 1.369 . S
C3634 C3638 1.531 . S
C3635 C3634 1.369 . S
C3635 C3636 1.410 . S
C3635 C3643 1.503 . S
C3636 C3635 1.410 . S
C3636 C3637 1.392 . S
C3636 C3639 1.511 . S
C3637 C3633 1.376 . S
C3637 C3636 1.392 . S
C3637 H3649 0.929 . S
C3638 C3634 1.531 . S
C3638 H3650 0.960 . S
C3638 H3651 0.962 . S
C3638 H3652 0.960 . S
C3639 C3636 1.511 . S
C3639 H3653 0.961 . S
C3639 H3654 0.961 . S
C3639 H3655 0.961 . S
C3640 C3641 1.370 . S
C3640 C3642 1.363 . S
C3640 H3656 0.931 . S
C3641 C3640 1.370 . S
C3641 C3645 1.408 . S
C3642 C3640 1.363 . S
C3642 C3643 1.370 . S
C3642 C3646 1.524 . S
C3643 C3635 1.503 . S
C3643 C3642 1.370 . S
C3643 C3644 1.403 . S
C3644 C3643 1.403 . S
C3644 C3645 1.404 . S
C3644 C3647 1.539 . S
C3645 C3641 1.408 . S
C3645 C3644 1.404 . S
C3645 H3657 0.930 . S
C3646 C3642 1.524 . S
C3646 H3658 0.956 . S
C3646 H3659 0.961 . S
C3646 H3660 0.961 . S
C3647 C3644 1.539 . S
C3647 H3661 0.958 . S
C3647 H3662 0.961 . S
C3647 H3663 0.960 . S
H3648 C3632 0.931 . S
H3649 C3637 0.929 . S
H3650 C3638 0.960 . S
H3651 C3638 0.962 . S
H3652 C3638 0.960 . S
H3653 C3639 0.961 . S
H3654 C3639 0.961 . S
H3655 C3639 0.961 . S
H3656 C3640 0.931 . S
H3657 C3645 0.930 . S
H3658 C3646 0.956 . S
H3659 C3646 0.961 . S
H3660 C3646 0.961 . S
H3661 C3647 0.958 . S
H3662 C3647 0.961 . S
H3663 C3647 0.960 . S
C3664 C3665 1.391 . S
C3664 C3666 1.394 . S
C3664 H3680 0.931 . S
C3665 C3664 1.391 . S
C3665 C3669 1.376 . S
C3666 C3664 1.394 . S
C3666 C3667 1.369 . S
C3666 C3670 1.531 . S
C3667 C3666 1.369 . S
C3667 C3668 1.410 . S
C3667 C3675 1.503 . S
C3668 C3667 1.410 . S
C3668 C3669 1.392 . S
C3668 C3671 1.511 . S
C3669 C3665 1.376 . S
C3669 C3668 1.392 . S
C3669 H3681 0.929 . S
C3670 C3666 1.531 . S
C3670 H3682 0.960 . S
C3670 H3683 0.962 . S
C3670 H3684 0.960 . S
C3671 C3668 1.511 . S
C3671 H3685 0.961 . S
C3671 H3686 0.961 . S
C3671 H3687 0.961 . S
C3672 C3673 1.370 . S
C3672 C3674 1.363 . S
C3672 H3688 0.931 . S
C3673 C3672 1.370 . S
C3673 C3677 1.408 . S
C3674 C3672 1.363 . S
C3674 C3675 1.370 . S
C3674 C3678 1.524 . S
C3675 C3667 1.503 . S
C3675 C3674 1.370 . S
C3675 C3676 1.403 . S
C3676 C3675 1.403 . S
C3676 C3677 1.404 . S
C3676 C3679 1.539 . S
C3677 C3673 1.408 . S
C3677 C3676 1.404 . S
C3677 H3689 0.930 . S
C3678 C3674 1.524 . S
C3678 H3690 0.956 . S
C3678 H3691 0.961 . S
C3678 H3692 0.961 . S
C3679 C3676 1.539 . S
C3679 H3693 0.958 . S
C3679 H3694 0.961 . S
C3679 H3695 0.960 . S
H3680 C3664 0.931 . S
H3681 C3669 0.929 . S
H3682 C3670 0.960 . S
H3683 C3670 0.962 . S
H3684 C3670 0.960 . S
H3685 C3671 0.961 . S
H3686 C3671 0.961 . S
H3687 C3671 0.961 . S
H3688 C3672 0.931 . S
H3689 C3677 0.930 . S
H3690 C3678 0.956 . S
H3691 C3678 0.961 . S
H3692 C3678 0.961 . S
H3693 C3679 0.958 . S
H3694 C3679 0.961 . S
H3695 C3679 0.960 . S
C3696 C3697 1.391 . S
C3696 C3698 1.394 . S
C3696 H3712 0.931 . S
C3697 C3696 1.391 . S
C3697 C3701 1.376 . S
C3698 C3696 1.394 . S
C3698 C3699 1.369 . S
C3698 C3702 1.531 . S
C3699 C3698 1.369 . S
C3699 C3700 1.410 . S
C3699 C3707 1.503 . S
C3700 C3699 1.410 . S
C3700 C3701 1.392 . S
C3700 C3703 1.511 . S
C3701 C3697 1.376 . S
C3701 C3700 1.392 . S
C3701 H3713 0.929 . S
C3702 C3698 1.531 . S
C3702 H3714 0.960 . S
C3702 H3715 0.962 . S
C3702 H3716 0.960 . S
C3703 C3700 1.511 . S
C3703 H3717 0.961 . S
C3703 H3718 0.961 . S
C3703 H3719 0.961 . S
C3704 C3705 1.370 . S
C3704 C3706 1.363 . S
C3704 H3720 0.931 . S
C3705 C3704 1.370 . S
C3705 C3709 1.408 . S
C3706 C3704 1.363 . S
C3706 C3707 1.370 . S
C3706 C3710 1.524 . S
C3707 C3699 1.503 . S
C3707 C3706 1.370 . S
C3707 C3708 1.403 . S
C3708 C3707 1.403 . S
C3708 C3709 1.404 . S
C3708 C3711 1.539 . S
C3709 C3705 1.408 . S
C3709 C3708 1.404 . S
C3709 H3721 0.930 . S
C3710 C3706 1.524 . S
C3710 H3722 0.956 . S
C3710 H3723 0.961 . S
C3710 H3724 0.961 . S
C3711 C3708 1.539 . S
C3711 H3725 0.958 . S
C3711 H3726 0.961 . S
C3711 H3727 0.960 . S
H3712 C3696 0.931 . S
H3713 C3701 0.929 . S
H3714 C3702 0.960 . S
H3715 C3702 0.962 . S
H3716 C3702 0.960 . S
H3717 C3703 0.961 . S
H3718 C3703 0.961 . S
H3719 C3703 0.961 . S
H3720 C3704 0.931 . S
H3721 C3709 0.930 . S
H3722 C3710 0.956 . S
H3723 C3710 0.961 . S
H3724 C3710 0.961 . S
H3725 C3711 0.958 . S
H3726 C3711 0.961 . S
H3727 C3711 0.960 . S
C3728 C3729 1.391 . S
C3728 C3730 1.394 . S
C3728 H3744 0.931 . S
C3729 C3728 1.391 . S
C3729 C3733 1.376 . S
C3730 C3728 1.394 . S
C3730 C3731 1.369 . S
C3730 C3734 1.531 . S
C3731 C3730 1.369 . S
C3731 C3732 1.410 . S
C3731 C3739 1.503 . S
C3732 C3731 1.410 . S
C3732 C3733 1.392 . S
C3732 C3735 1.511 . S
C3733 C3729 1.376 . S
C3733 C3732 1.392 . S
C3733 H3745 0.929 . S
C3734 C3730 1.531 . S
C3734 H3746 0.960 . S
C3734 H3747 0.962 . S
C3734 H3748 0.960 . S
C3735 C3732 1.511 . S
C3735 H3749 0.961 . S
C3735 H3750 0.961 . S
C3735 H3751 0.961 . S
C3736 C3737 1.370 . S
C3736 C3738 1.363 . S
C3736 H3752 0.931 . S
C3737 C3736 1.370 . S
C3737 C3741 1.408 . S
C3738 C3736 1.363 . S
C3738 C3739 1.370 . S
C3738 C3742 1.524 . S
C3739 C3731 1.503 . S
C3739 C3738 1.370 . S
C3739 C3740 1.403 . S
C3740 C3739 1.403 . S
C3740 C3741 1.404 . S
C3740 C3743 1.539 . S
C3741 C3737 1.408 . S
C3741 C3740 1.404 . S
C3741 H3753 0.930 . S
C3742 C3738 1.524 . S
C3742 H3754 0.956 . S
C3742 H3755 0.961 . S
C3742 H3756 0.961 . S
C3743 C3740 1.539 . S
C3743 H3757 0.958 . S
C3743 H3758 0.961 . S
C3743 H3759 0.960 . S
H3744 C3728 0.931 . S
H3745 C3733 0.929 . S
H3746 C3734 0.960 . S
H3747 C3734 0.962 . S
H3748 C3734 0.960 . S
H3749 C3735 0.961 . S
H3750 C3735 0.961 . S
H3751 C3735 0.961 . S
H3752 C3736 0.931 . S
H3753 C3741 0.930 . S
H3754 C3742 0.956 . S
H3755 C3742 0.961 . S
H3756 C3742 0.961 . S
H3757 C3743 0.958 . S
H3758 C3743 0.961 . S
H3759 C3743 0.960 . S
C3760 C3761 1.391 . S
C3760 C3762 1.394 . S
C3760 H3776 0.931 . S
C3761 C3760 1.391 . S
C3761 C3765 1.376 . S
C3762 C3760 1.394 . S
C3762 C3763 1.369 . S
C3762 C3766 1.531 . S
C3763 C3762 1.369 . S
C3763 C3764 1.410 . S
C3763 C3771 1.503 . S
C3764 C3763 1.410 . S
C3764 C3765 1.392 . S
C3764 C3767 1.511 . S
C3765 C3761 1.376 . S
C3765 C3764 1.392 . S
C3765 H3777 0.929 . S
C3766 C3762 1.531 . S
C3766 H3778 0.960 . S
C3766 H3779 0.962 . S
C3766 H3780 0.960 . S
C3767 C3764 1.511 . S
C3767 H3781 0.961 . S
C3767 H3782 0.961 . S
C3767 H3783 0.961 . S
C3768 C3769 1.370 . S
C3768 C3770 1.363 . S
C3768 H3784 0.931 . S
C3769 C3768 1.370 . S
C3769 C3773 1.408 . S
C3770 C3768 1.363 . S
C3770 C3771 1.370 . S
C3770 C3774 1.524 . S
C3771 C3763 1.503 . S
C3771 C3770 1.370 . S
C3771 C3772 1.403 . S
C3772 C3771 1.403 . S
C3772 C3773 1.404 . S
C3772 C3775 1.539 . S
C3773 C3769 1.408 . S
C3773 C3772 1.404 . S
C3773 H3785 0.930 . S
C3774 C3770 1.524 . S
C3774 H3786 0.956 . S
C3774 H3787 0.961 . S
C3774 H3788 0.961 . S
C3775 C3772 1.539 . S
C3775 H3789 0.958 . S
C3775 H3790 0.961 . S
C3775 H3791 0.960 . S
H3776 C3760 0.931 . S
H3777 C3765 0.929 . S
H3778 C3766 0.960 . S
H3779 C3766 0.962 . S
H3780 C3766 0.960 . S
H3781 C3767 0.961 . S
H3782 C3767 0.961 . S
H3783 C3767 0.961 . S
H3784 C3768 0.931 . S
H3785 C3773 0.930 . S
H3786 C3774 0.956 . S
H3787 C3774 0.961 . S
H3788 C3774 0.961 . S
H3789 C3775 0.958 . S
H3790 C3775 0.961 . S
H3791 C3775 0.960 . S
C3792 C3793 1.391 . S
C3792 C3794 1.394 . S
C3792 H3808 0.931 . S
C3793 C3792 1.391 . S
C3793 C3797 1.376 . S
C3794 C3792 1.394 . S
C3794 C3795 1.369 . S
C3794 C3798 1.531 . S
C3795 C3794 1.369 . S
C3795 C3796 1.410 . S
C3795 C3803 1.503 . S
C3796 C3795 1.410 . S
C3796 C3797 1.392 . S
C3796 C3799 1.511 . S
C3797 C3793 1.376 . S
C3797 C3796 1.392 . S
C3797 H3809 0.929 . S
C3798 C3794 1.531 . S
C3798 H3810 0.960 . S
C3798 H3811 0.962 . S
C3798 H3812 0.960 . S
C3799 C3796 1.511 . S
C3799 H3813 0.961 . S
C3799 H3814 0.961 . S
C3799 H3815 0.961 . S
C3800 C3801 1.370 . S
C3800 C3802 1.363 . S
C3800 H3816 0.931 . S
C3801 C3800 1.370 . S
C3801 C3805 1.408 . S
C3802 C3800 1.363 . S
C3802 C3803 1.370 . S
C3802 C3806 1.524 . S
C3803 C3795 1.503 . S
C3803 C3802 1.370 . S
C3803 C3804 1.403 . S
C3804 C3803 1.403 . S
C3804 C3805 1.404 . S
C3804 C3807 1.539 . S
C3805 C3801 1.408 . S
C3805 C3804 1.404 . S
C3805 H3817 0.930 . S
C3806 C3802 1.524 . S
C3806 H3818 0.956 . S
C3806 H3819 0.961 . S
C3806 H3820 0.961 . S
C3807 C3804 1.539 . S
C3807 H3821 0.958 . S
C3807 H3822 0.961 . S
C3807 H3823 0.960 . S
H3808 C3792 0.931 . S
H3809 C3797 0.929 . S
H3810 C3798 0.960 . S
H3811 C3798 0.962 . S
H3812 C3798 0.960 . S
H3813 C3799 0.961 . S
H3814 C3799 0.961 . S
H3815 C3799 0.961 . S
H3816 C3800 0.931 . S
H3817 C3805 0.930 . S
H3818 C3806 0.956 . S
H3819 C3806 0.961 . S
H3820 C3806 0.961 . S
H3821 C3807 0.958 . S
H3822 C3807 0.961 . S
H3823 C3807 0.960 . S
C3824 C3825 1.391 . S
C3824 C3826 1.394 . S
C3824 H3840 0.931 . S
C3825 C3824 1.391 . S
C3825 C3829 1.376 . S
C3826 C3824 1.394 . S
C3826 C3827 1.369 . S
C3826 C3830 1.531 . S
C3827 C3826 1.369 . S
C3827 C3828 1.410 . S
C3827 C3835 1.503 . S
C3828 C3827 1.410 . S
C3828 C3829 1.392 . S
C3828 C3831 1.511 . S
C3829 C3825 1.376 . S
C3829 C3828 1.392 . S
C3829 H3841 0.929 . S
C3830 C3826 1.531 . S
C3830 H3842 0.960 . S
C3830 H3843 0.962 . S
C3830 H3844 0.960 . S
C3831 C3828 1.511 . S
C3831 H3845 0.961 . S
C3831 H3846 0.961 . S
C3831 H3847 0.961 . S
C3832 C3833 1.370 1_565 S
C3832 C3834 1.363 . S
C3832 H3848 0.931 . S
C3833 C3832 1.370 1_545 S
C3833 C3837 1.408 . S
C3834 C3832 1.363 . S
C3834 C3835 1.370 . S
C3834 C3838 1.524 . S
C3835 C3827 1.503 . S
C3835 C3834 1.370 . S
C3835 C3836 1.403 . S
C3836 C3835 1.403 . S
C3836 C3837 1.404 1_565 S
C3836 C3839 1.539 . S
C3837 C3833 1.408 . S
C3837 C3836 1.404 1_545 S
C3837 H3849 0.930 . S
C3838 C3834 1.524 . S
C3838 H3850 0.956 . S
C3838 H3851 0.961 . S
C3838 H3852 0.961 . S
C3839 C3836 1.539 . S
C3839 H3853 0.958 . S
C3839 H3854 0.963 . S
C3839 H3855 0.960 . S
H3840 C3824 0.931 . S
H3841 C3829 0.929 . S
H3842 C3830 0.960 . S
H3843 C3830 0.962 . S
H3844 C3830 0.960 . S
H3845 C3831 0.961 . S
H3846 C3831 0.961 . S
H3847 C3831 0.961 . S
H3848 C3832 0.931 . S
H3849 C3837 0.930 . S
H3850 C3838 0.956 . S
H3851 C3838 0.961 . S
H3852 C3838 0.961 . S
H3853 C3839 0.958 . S
H3854 C3839 0.963 . S
H3855 C3839 0.960 . S
C3856 C3857 1.391 . S
C3856 C3858 1.394 . S
C3856 H3872 0.931 . S
C3857 C3856 1.391 . S
C3857 C3861 1.376 . S
C3858 C3856 1.394 . S
C3858 C3859 1.369 . S
C3858 C3862 1.531 . S
C3859 C3858 1.369 . S
C3859 C3860 1.410 . S
C3859 C3867 1.503 . S
C3860 C3859 1.410 . S
C3860 C3861 1.392 . S
C3860 C3863 1.511 . S
C3861 C3857 1.376 . S
C3861 C3860 1.392 . S
C3861 H3873 0.929 . S
C3862 C3858 1.531 . S
C3862 H3874 0.960 . S
C3862 H3875 0.962 . S
C3862 H3876 0.960 . S
C3863 C3860 1.511 . S
C3863 H3877 0.961 . S
C3863 H3878 0.961 . S
C3863 H3879 0.961 . S
C3864 C3865 1.370 . S
C3864 C3866 1.363 . S
C3864 H3880 0.931 . S
C3865 C3864 1.370 . S
C3865 C3869 1.408 . S
C3866 C3864 1.363 . S
C3866 C3867 1.370 . S
C3866 C3870 1.524 . S
C3867 C3859 1.503 . S
C3867 C3866 1.370 . S
C3867 C3868 1.403 . S
C3868 C3867 1.403 . S
C3868 C3869 1.404 . S
C3868 C3871 1.539 . S
C3869 C3865 1.408 . S
C3869 C3868 1.404 . S
C3869 H3881 0.930 . S
C3870 C3866 1.524 . S
C3870 H3882 0.956 . S
C3870 H3883 0.961 . S
C3870 H3884 0.961 . S
C3871 C3868 1.539 . S
C3871 H3885 0.958 . S
C3871 H3886 0.961 . S
C3871 H3887 0.960 . S
H3872 C3856 0.931 . S
H3873 C3861 0.929 . S
H3874 C3862 0.960 . S
H3875 C3862 0.962 . S
H3876 C3862 0.960 . S
H3877 C3863 0.961 . S
H3878 C3863 0.961 . S
H3879 C3863 0.961 . S
H3880 C3864 0.931 . S
H3881 C3869 0.930 . S
H3882 C3870 0.956 . S
H3883 C3870 0.961 . S
H3884 C3870 0.961 . S
H3885 C3871 0.958 . S
H3886 C3871 0.961 . S
H3887 C3871 0.960 . S
C3888 C3889 1.391 . S
C3888 C3890 1.394 . S
C3888 H3904 0.931 . S
C3889 C3888 1.391 . S
C3889 C3893 1.376 . S
C3890 C3888 1.394 . S
C3890 C3891 1.369 . S
C3890 C3894 1.531 . S
C3891 C3890 1.369 . S
C3891 C3892 1.410 . S
C3891 C3899 1.503 . S
C3892 C3891 1.410 . S
C3892 C3893 1.392 . S
C3892 C3895 1.511 . S
C3893 C3889 1.376 . S
C3893 C3892 1.392 . S
C3893 H3905 0.929 . S
C3894 C3890 1.531 . S
C3894 H3906 0.960 . S
C3894 H3907 0.962 . S
C3894 H3908 0.960 . S
C3895 C3892 1.511 . S
C3895 H3909 0.961 . S
C3895 H3910 0.961 . S
C3895 H3911 0.961 . S
C3896 C3897 1.370 . S
C3896 C3898 1.363 . S
C3896 H3912 0.931 . S
C3897 C3896 1.370 . S
C3897 C3901 1.408 . S
C3898 C3896 1.363 . S
C3898 C3899 1.370 . S
C3898 C3902 1.524 . S
C3899 C3891 1.503 . S
C3899 C3898 1.370 . S
C3899 C3900 1.403 . S
C3900 C3899 1.403 . S
C3900 C3901 1.404 . S
C3900 C3903 1.539 1_554 S
C3901 C3897 1.408 . S
C3901 C3900 1.404 . S
C3901 H3913 0.930 . S
C3902 C3898 1.524 . S
C3902 H3914 0.956 . S
C3902 H3915 0.961 . S
C3902 H3916 0.961 . S
C3903 C3900 1.539 1_556 S
C3903 H3917 0.958 . S
C3903 H3918 0.961 . S
C3903 H3919 0.960 . S
H3904 C3888 0.931 . S
H3905 C3893 0.929 . S
H3906 C3894 0.960 . S
H3907 C3894 0.962 . S
H3908 C3894 0.960 . S
H3909 C3895 0.961 . S
H3910 C3895 0.961 . S
H3911 C3895 0.961 . S
H3912 C3896 0.931 . S
H3913 C3901 0.930 . S
H3914 C3902 0.956 . S
H3915 C3902 0.961 . S
H3916 C3902 0.961 . S
H3917 C3903 0.958 . S
H3918 C3903 0.961 . S
H3919 C3903 0.960 . S
C3920 C3921 1.391 . S
C3920 C3922 1.394 . S
C3920 H3936 0.931 . S
C3921 C3920 1.391 . S
C3921 C3925 1.376 . S
C3922 C3920 1.394 . S
C3922 C3923 1.369 . S
C3922 C3926 1.531 . S
C3923 C3922 1.369 . S
C3923 C3924 1.410 . S
C3923 C3931 1.503 . S
C3924 C3923 1.410 . S
C3924 C3925 1.392 . S
C3924 C3927 1.511 . S
C3925 C3921 1.376 . S
C3925 C3924 1.392 . S
C3925 H3937 0.929 . S
C3926 C3922 1.531 . S
C3926 H3938 0.960 . S
C3926 H3939 0.962 . S
C3926 H3940 0.960 . S
C3927 C3924 1.511 . S
C3927 H3941 0.961 . S
C3927 H3942 0.961 . S
C3927 H3943 0.961 . S
C3928 C3929 1.370 . S
C3928 C3930 1.363 . S
C3928 H3944 0.931 . S
C3929 C3928 1.370 . S
C3929 C3933 1.408 . S
C3930 C3928 1.363 . S
C3930 C3931 1.370 . S
C3930 C3934 1.524 . S
C3931 C3923 1.503 . S
C3931 C3930 1.370 . S
C3931 C3932 1.403 . S
C3932 C3931 1.403 . S
C3932 C3933 1.404 . S
C3932 C3935 1.539 . S
C3933 C3929 1.408 . S
C3933 C3932 1.404 . S
C3933 H3945 0.930 . S
C3934 C3930 1.524 . S
C3934 H3946 0.956 . S
C3934 H3947 0.961 . S
C3934 H3948 0.961 . S
C3935 C3932 1.539 . S
C3935 H3949 0.958 . S
C3935 H3950 0.961 . S
C3935 H3951 0.960 . S
H3936 C3920 0.931 . S
H3937 C3925 0.929 . S
H3938 C3926 0.960 . S
H3939 C3926 0.962 . S
H3940 C3926 0.960 . S
H3941 C3927 0.961 . S
H3942 C3927 0.961 . S
H3943 C3927 0.961 . S
H3944 C3928 0.931 . S
H3945 C3933 0.930 . S
H3946 C3934 0.956 . S
H3947 C3934 0.961 . S
H3948 C3934 0.961 . S
H3949 C3935 0.958 . S
H3950 C3935 0.961 . S
H3951 C3935 0.960 . S
C3952 C3953 1.391 . S
C3952 C3954 1.394 . S
C3952 H3968 0.931 . S
C3953 C3952 1.391 . S
C3953 C3957 1.376 . S
C3954 C3952 1.394 . S
C3954 C3955 1.369 . S
C3954 C3958 1.531 . S
C3955 C3954 1.369 . S
C3955 C3956 1.410 . S
C3955 C3963 1.503 . S
C3956 C3955 1.410 . S
C3956 C3957 1.392 . S
C3956 C3959 1.511 . S
C3957 C3953 1.376 . S
C3957 C3956 1.392 . S
C3957 H3969 0.929 . S
C3958 C3954 1.531 . S
C3958 H3970 0.960 . S
C3958 H3971 0.962 . S
C3958 H3972 0.960 . S
C3959 C3956 1.511 . S
C3959 H3973 0.961 . S
C3959 H3974 0.961 . S
C3959 H3975 0.961 . S
C3960 C3961 1.370 1_556 S
C3960 C3962 1.363 . S
C3960 H3976 0.931 . S
C3961 C3960 1.370 1_554 S
C3961 C3965 1.408 . S
C3962 C3960 1.363 . S
C3962 C3963 1.370 1_556 S
C3962 C3966 1.524 . S
C3963 C3955 1.503 . S
C3963 C3962 1.370 1_554 S
C3963 C3964 1.403 . S
C3964 C3963 1.403 . S
C3964 C3965 1.404 . S
C3964 C3967 1.539 . S
C3965 C3961 1.408 . S
C3965 C3964 1.404 . S
C3965 H3977 0.930 . S
C3966 C3962 1.524 . S
C3966 H3978 0.956 . S
C3966 H3979 0.961 . S
C3966 H3980 0.961 . S
C3967 C3964 1.539 . S
C3967 H3981 0.958 . S
C3967 H3982 0.961 . S
C3967 H3983 0.960 . S
H3968 C3952 0.931 . S
H3969 C3957 0.929 . S
H3970 C3958 0.960 . S
H3971 C3958 0.962 . S
H3972 C3958 0.960 . S
H3973 C3959 0.961 . S
H3974 C3959 0.961 . S
H3975 C3959 0.961 . S
H3976 C3960 0.931 . S
H3977 C3965 0.930 . S
H3978 C3966 0.956 . S
H3979 C3966 0.961 . S
H3980 C3966 0.961 . S
H3981 C3967 0.958 . S
H3982 C3967 0.961 . S
H3983 C3967 0.960 . S
C3984 C3985 1.391 . S
C3984 C3986 1.394 . S
C3984 H4000 0.931 . S
C3985 C3984 1.391 . S
C3985 C3989 1.376 . S
C3986 C3984 1.394 . S
C3986 C3987 1.369 . S
C3986 C3990 1.531 . S
C3987 C3986 1.369 . S
C3987 C3988 1.410 . S
C3987 C3995 1.503 . S
C3988 C3987 1.410 . S
C3988 C3989 1.392 . S
C3988 C3991 1.511 . S
C3989 C3985 1.376 . S
C3989 C3988 1.392 . S
C3989 H4001 0.929 . S
C3990 C3986 1.531 . S
C3990 H4002 0.960 . S
C3990 H4003 0.962 . S
C3990 H4004 0.960 . S
C3991 C3988 1.511 . S
C3991 H4005 0.961 . S
C3991 H4006 0.961 . S
C3991 H4007 0.961 . S
C3992 C3993 1.370 . S
C3992 C3994 1.363 . S
C3992 H4008 0.931 . S
C3993 C3992 1.370 . S
C3993 C3997 1.408 . S
C3994 C3992 1.363 . S
C3994 C3995 1.370 . S
C3994 C3998 1.524 . S
C3995 C3987 1.503 . S
C3995 C3994 1.370 . S
C3995 C3996 1.403 . S
C3996 C3995 1.403 . S
C3996 C3997 1.404 . S
C3996 C3999 1.539 . S
C3997 C3993 1.408 . S
C3997 C3996 1.404 . S
C3997 H4009 0.930 . S
C3998 C3994 1.524 . S
C3998 H4010 0.956 . S
C3998 H4011 0.961 . S
C3998 H4012 0.961 . S
C3999 C3996 1.539 . S
C3999 H4013 0.958 . S
C3999 H4014 0.961 . S
C3999 H4015 0.960 . S
H4000 C3984 0.931 . S
H4001 C3989 0.929 . S
H4002 C3990 0.960 . S
H4003 C3990 0.962 . S
H4004 C3990 0.960 . S
H4005 C3991 0.961 . S
H4006 C3991 0.961 . S
H4007 C3991 0.961 . S
H4008 C3992 0.931 . S
H4009 C3997 0.930 . S
H4010 C3998 0.956 . S
H4011 C3998 0.961 . S
H4012 C3998 0.961 . S
H4013 C3999 0.958 . S
H4014 C3999 0.961 . S
H4015 C3999 0.960 . S
C4016 C4017 1.391 . S
C4016 C4018 1.394 . S
C4016 H4032 0.931 . S
C4017 C4016 1.391 . S
C4017 C4021 1.376 . S
C4018 C4016 1.394 . S
C4018 C4019 1.369 . S
C4018 C4022 1.531 . S
C4019 C4018 1.369 . S
C4019 C4020 1.410 . S
C4019 C4027 1.503 . S
C4020 C4019 1.410 . S
C4020 C4021 1.392 . S
C4020 C4023 1.511 . S
C4021 C4017 1.376 . S
C4021 C4020 1.392 . S
C4021 H4033 0.929 . S
C4022 C4018 1.531 . S
C4022 H4034 0.960 . S
C4022 H4035 0.962 . S
C4022 H4036 0.960 . S
C4023 C4020 1.511 . S
C4023 H4037 0.961 . S
C4023 H4038 0.961 . S
C4023 H4039 0.961 . S
C4024 C4025 1.370 . S
C4024 C4026 1.363 . S
C4024 H4040 0.931 . S
C4025 C4024 1.370 . S
C4025 C4029 1.408 . S
C4026 C4024 1.363 . S
C4026 C4027 1.370 . S
C4026 C4030 1.524 . S
C4027 C4019 1.503 . S
C4027 C4026 1.370 . S
C4027 C4028 1.403 . S
C4028 C4027 1.403 . S
C4028 C4029 1.404 . S
C4028 C4031 1.539 . S
C4029 C4025 1.408 . S
C4029 C4028 1.404 . S
C4029 H4041 0.930 . S
C4030 C4026 1.524 . S
C4030 H4042 0.956 . S
C4030 H4043 0.961 . S
C4030 H4044 0.961 . S
C4031 C4028 1.539 . S
C4031 H4045 0.958 . S
C4031 H4046 0.961 . S
C4031 H4047 0.960 . S
H4032 C4016 0.931 . S
H4033 C4021 0.929 . S
H4034 C4022 0.960 . S
H4035 C4022 0.962 . S
H4036 C4022 0.960 . S
H4037 C4023 0.961 . S
H4038 C4023 0.961 . S
H4039 C4023 0.961 . S
H4040 C4024 0.931 . S
H4041 C4029 0.930 . S
H4042 C4030 0.956 . S
H4043 C4030 0.961 . S
H4044 C4030 0.961 . S
H4045 C4031 0.958 . S
H4046 C4031 0.961 . S
H4047 C4031 0.960 . S
C977 C105 2.243 . S
C985 C349 2.210 . S
C1009 C65 2.102 . S
C1017 C400 2.089 . S
C1041 C73 1.604 . S
C1049 C429 1.613 . S
C1081 C473 1.443 . S
C1073 C92 1.508 . S
C1105 C17 1.422 . S
C1113 C513 1.378 . S
C1145 C549 1.614 . S
C1137 C37 1.591 . S
C1177 C599 1.886 . S
C1169 C49 1.794 . S
C1201 C8 2.309 . S
C1209 C629 2.271 . S
C1241 C359 1.932 . S
C1233 C231 1.939 . S
C1265 C241 0.658 . S
C1273 C402 0.644 . S
C1305 C439 1.252 . S
C1297 C273 1.214 . S
C1337 C469 1.406 . S
C1329 C171 1.405 . S
C1361 C227 1.450 . S
C1369 C509 1.435 . S
C1401 C559 0.911 . S
C1393 C245 0.874 . S
C1433 C593 0.868 . S
C1425 C269 0.847 . S
C1465 C639 1.900 . S
C1457 C175 1.900 . S
C1497 C353 1.196 . S
C1489 C162 1.182 1_554 S
C1521 C289 1.729 . S
C1529 C679 1.722 . S
C1561 C713 1.440 . S
C1553 C330 1.491 . S
C1593 C749 0.865 . S
C1585 C317 0.875 . S
C1617 C120 1.389 . S
C1625 C633 1.373 . S
C1649 C134 1.573 . S
C1657 C433 1.501 . S
C1681 C331 1.611 . S
C1689 C799 1.612 . S
C1721 C818 0.281 . S
C1713 C303 0.196 . S
C1753 C360 2.227 . S
C1745 C59 2.233 . S
C1785 C829 2.130 . S
C1777 C107 2.143 . S
C1809 C91 1.678 . S
C1817 C440 1.673 . S
C1841 C78 1.493 . S
C1849 C802 1.480 . S
C1881 C522 1.388 . S
C1873 C7 1.415 . S
C1905 C51 1.659 . S
C1913 C720 1.668 . S
C1945 C578 1.926 1_566 S
C1937 C31 1.924 . S
C1977 C880 2.297 . S
C1969 C22 2.300 . S
C2009 C338 1.967 . S
C2001 C143 1.967 . S
C2041 C833 0.632 . S
C2033 C315 0.736 . S
C2065 C115 1.293 . S
C2073 C418 1.293 . S
C2097 C287 1.451 . S
C2105 C800 1.452 . S
C2129 C147 1.496 . S
C2137 C520 1.499 . S
C2169 C698 0.952 . S
C2161 C311 0.956 . S
C2193 C119 0.872 1_545 S
C2201 C602 0.853 . S
C2225 C283 1.960 . S
C2233 C858 1.930 . S
C2257 C190 1.173 . S
C2265 C362 1.184 . S
C2289 C177 1.766 . S
C2297 C658 1.762 . S
C2321 C260 1.459 . S
C2329 C562 1.457 . S
C2353 C247 0.907 . S
C2361 C760 0.918 . S
C2393 C882 1.345 . S
C2385 C274 1.399 . S
C2417 C218 1.533 . S
C2425 C442 1.523 . S
C2457 C458 1.651 . S
C2449 C261 1.647 . S
C2489 C399 0.260 . S
C2481 C205 0.272 . S
C2513 C77 2.249 . S
C2521 C909 2.198 . S
C2553 C840 2.076 . S
C2545 C93 2.095 . S
C2577 C101 1.601 . S
C2585 C949 1.610 . S
C2609 C64 1.477 1_655 S
C2617 C793 1.471 . S
C2641 C45 1.418 . S
C2649 C673 1.369 . S
C2681 C709 1.623 . S
C2673 C9 1.629 . S
C2713 C759 1.880 . S
C2705 C21 1.730 . S
C2745 C869 2.280 . S
C2737 C36 2.316 . S
C2777 C919 1.926 . S
C2769 C259 1.932 . S
C2801 C185 0.658 . S
C2809 C842 0.624 . S
C2841 C959 1.256 . S
C2833 C203 1.234 . S
C2873 C789 1.415 . S
C2865 C213 1.420 . S
C2905 C669 1.435 . S
C2897 C255 1.450 . S
C2929 C189 0.946 . S
C2937 C719 0.921 . S
C2969 C753 0.820 . S
C2961 C199 0.871 . S
C2993 C217 1.899 . S
C3001 C879 1.900 . S
C3033 C913 1.173 . S
C3025 C316 1.230 . S
C3057 C135 1.732 . S
C3065 C519 1.726 . S
C3097 C553 1.445 . S
C3089 C148 1.480 1_565 S
C3129 C589 0.859 . S
C3121 C163 0.873 . S
C3161 C873 1.373 . S
C3153 C302 1.389 . S
C3185 C288 1.586 . S
C3193 C953 1.507 . S
C3225 C479 1.613 . S
C3217 C149 1.611 . S
C3257 C378 0.311 . S
C3249 C121 0.252 . S
C3281 C87 2.225 . S
C3289 C920 2.237 . S
C3321 C389 2.135 . S
C3313 C79 2.146 . S
C3345 C63 1.678 . S
C3353 C960 1.673 . S
C3377 C106 1.515 . S
C3385 C482 1.468 . S
C3409 C35 1.346 . S
C3417 C682 1.413 . S
C3449 C560 1.663 . S
C3441 C23 1.645 . S
C3473 C3 1.923 . S
C3481 C738 1.925 . S
C3505 C50 2.310 . S
C3513 C640 2.295 . S
C3545 C898 1.954 . S
C3537 C325 1.986 . S
C3569 C161 0.725 . S
C3577 C393 0.640 . S
C3609 C938 1.279 1_655 S
C3601 C297 1.293 . S
C3633 C133 1.418 . S
C3641 C480 1.465 . S
C3665 C329 1.459 . S
C3673 C680 1.491 . S
C3705 C538 0.943 . S
C3697 C157 0.960 . S
C3729 C301 0.891 . S
C3737 C762 0.855 . S
C3769 C618 1.938 . S
C3761 C129 1.953 . S
C3801 C922 1.188 . S
C3793 C246 1.156 . S
C3833 C498 1.753 . S
C3825 C219 1.751 . S
C3857 C232 1.448 . S
C3865 C722 1.461 . S
C3897 C600 0.915 . S
C3889 C191 0.904 . S
C3921 C204 1.358 . S
C3929 C642 1.373 . S
C3953 C176 1.550 . S
C3961 C962 1.507 . S
C3993 C778 1.654 . S
C3985 C233 1.655 . S
C4025 C839 0.269 . S
C4017 C275 0.315 . S
