# Generated by pormake.
# Topology gar, (4,6)-cn, num edge types: 1
# Building blocks:
#     Node 0, Type 0, BuildingBlock: CEKHIL_clean_sbu_0, # of connection points: 4
#     Node 1, Type 0, BuildingBlock: CEKHIL_clean_sbu_0, # of connection points: 4
#     Node 2, Type 0, BuildingBlock: CEKHIL_clean_sbu_0, # of connection points: 4
#     Node 3, Type 0, BuildingBlock: CEKHIL_clean_sbu_0, # of connection points: 4
#     Node 4, Type 0, BuildingBlock: CEKHIL_clean_sbu_0, # of connection points: 4
#     Node 5, Type 0, BuildingBlock: CEKHIL_clean_sbu_0, # of connection points: 4
#     Node 6, Type 0, BuildingBlock: CEKHIL_clean_sbu_0, # of connection points: 4
#     Node 7, Type 0, BuildingBlock: CEKHIL_clean_sbu_0, # of connection points: 4
#     Node 8, Type 0, BuildingBlock: CEKHIL_clean_sbu_0, # of connection points: 4
#     Node 9, Type 0, BuildingBlock: CEKHIL_clean_sbu_0, # of connection points: 4
#     Node 10, Type 0, BuildingBlock: CEKHIL_clean_sbu_0, # of connection points: 4
#     Node 11, Type 0, BuildingBlock: CEKHIL_clean_sbu_0, # of connection points: 4
#     Node 12, Type 0, BuildingBlock: CEKHIL_clean_sbu_0, # of connection points: 4
#     Node 13, Type 0, BuildingBlock: CEKHIL_clean_sbu_0, # of connection points: 4
#     Node 14, Type 0, BuildingBlock: CEKHIL_clean_sbu_0, # of connection points: 4
#     Node 15, Type 0, BuildingBlock: CEKHIL_clean_sbu_0, # of connection points: 4
#     Node 16, Type 0, BuildingBlock: CEKHIL_clean_sbu_0, # of connection points: 4
#     Node 17, Type 0, BuildingBlock: CEKHIL_clean_sbu_0, # of connection points: 4
#     Node 18, Type 0, BuildingBlock: CEKHIL_clean_sbu_0, # of connection points: 4
#     Node 19, Type 0, BuildingBlock: CEKHIL_clean_sbu_0, # of connection points: 4
#     Node 20, Type 0, BuildingBlock: CEKHIL_clean_sbu_0, # of connection points: 4
#     Node 21, Type 0, BuildingBlock: CEKHIL_clean_sbu_0, # of connection points: 4
#     Node 22, Type 0, BuildingBlock: CEKHIL_clean_sbu_0, # of connection points: 4
#     Node 23, Type 0, BuildingBlock: CEKHIL_clean_sbu_0, # of connection points: 4
#     Node 24, Type 1, BuildingBlock: KUMBOL_clean_sbu_1, # of connection points: 6
#     Node 25, Type 1, BuildingBlock: KUMBOL_clean_sbu_1, # of connection points: 6
#     Node 26, Type 1, BuildingBlock: KUMBOL_clean_sbu_1, # of connection points: 6
#     Node 27, Type 1, BuildingBlock: KUMBOL_clean_sbu_1, # of connection points: 6
#     Node 28, Type 1, BuildingBlock: KUMBOL_clean_sbu_1, # of connection points: 6
#     Node 29, Type 1, BuildingBlock: KUMBOL_clean_sbu_1, # of connection points: 6
#     Node 30, Type 1, BuildingBlock: KUMBOL_clean_sbu_1, # of connection points: 6
#     Node 31, Type 1, BuildingBlock: KUMBOL_clean_sbu_1, # of connection points: 6
#     Node 32, Type 1, BuildingBlock: KUMBOL_clean_sbu_1, # of connection points: 6
#     Node 33, Type 1, BuildingBlock: KUMBOL_clean_sbu_1, # of connection points: 6
#     Node 34, Type 1, BuildingBlock: KUMBOL_clean_sbu_1, # of connection points: 6
#     Node 35, Type 1, BuildingBlock: KUMBOL_clean_sbu_1, # of connection points: 6
#     Node 36, Type 1, BuildingBlock: KUMBOL_clean_sbu_1, # of connection points: 6
#     Node 37, Type 1, BuildingBlock: KUMBOL_clean_sbu_1, # of connection points: 6
#     Node 38, Type 1, BuildingBlock: KUMBOL_clean_sbu_1, # of connection points: 6
#     Node 39, Type 1, BuildingBlock: KUMBOL_clean_sbu_1, # of connection points: 6
#     Edge 40, Type (0, 1), BuildingBlock: CIFDUS_clean_linker_0, # of connection points: 2
#     Edge 41, Type (0, 1), BuildingBlock: CIFDUS_clean_linker_0, # of connection points: 2
#     Edge 42, Type (0, 1), BuildingBlock: CIFDUS_clean_linker_0, # of connection points: 2
#     Edge 43, Type (0, 1), BuildingBlock: CIFDUS_clean_linker_0, # of connection points: 2
#     Edge 44, Type (0, 1), BuildingBlock: CIFDUS_clean_linker_0, # of connection points: 2
#     Edge 45, Type (0, 1), BuildingBlock: CIFDUS_clean_linker_0, # of connection points: 2
#     Edge 46, Type (0, 1), BuildingBlock: CIFDUS_clean_linker_0, # of connection points: 2
#     Edge 47, Type (0, 1), BuildingBlock: CIFDUS_clean_linker_0, # of connection points: 2
#     Edge 48, Type (0, 1), BuildingBlock: CIFDUS_clean_linker_0, # of connection points: 2
#     Edge 49, Type (0, 1), BuildingBlock: CIFDUS_clean_linker_0, # of connection points: 2
#     Edge 50, Type (0, 1), BuildingBlock: CIFDUS_clean_linker_0, # of connection points: 2
#     Edge 51, Type (0, 1), BuildingBlock: CIFDUS_clean_linker_0, # of connection points: 2
#     Edge 52, Type (0, 1), BuildingBlock: CIFDUS_clean_linker_0, # of connection points: 2
#     Edge 53, Type (0, 1), BuildingBlock: CIFDUS_clean_linker_0, # of connection points: 2
#     Edge 54, Type (0, 1), BuildingBlock: CIFDUS_clean_linker_0, # of connection points: 2
#     Edge 55, Type (0, 1), BuildingBlock: CIFDUS_clean_linker_0, # of connection points: 2
#     Edge 56, Type (0, 1), BuildingBlock: CIFDUS_clean_linker_0, # of connection points: 2
#     Edge 57, Type (0, 1), BuildingBlock: CIFDUS_clean_linker_0, # of connection points: 2
#     Edge 58, Type (0, 1), BuildingBlock: CIFDUS_clean_linker_0, # of connection points: 2
#     Edge 59, Type (0, 1), BuildingBlock: CIFDUS_clean_linker_0, # of connection points: 2
#     Edge 60, Type (0, 1), BuildingBlock: CIFDUS_clean_linker_0, # of connection points: 2
#     Edge 61, Type (0, 1), BuildingBlock: CIFDUS_clean_linker_0, # of connection points: 2
#     Edge 62, Type (0, 1), BuildingBlock: CIFDUS_clean_linker_0, # of connection points: 2
#     Edge 63, Type (0, 1), BuildingBlock: CIFDUS_clean_linker_0, # of connection points: 2
#     Edge 64, Type (0, 1), BuildingBlock: CIFDUS_clean_linker_0, # of connection points: 2
#     Edge 65, Type (0, 1), BuildingBlock: CIFDUS_clean_linker_0, # of connection points: 2
#     Edge 66, Type (0, 1), BuildingBlock: CIFDUS_clean_linker_0, # of connection points: 2
#     Edge 67, Type (0, 1), BuildingBlock: CIFDUS_clean_linker_0, # of connection points: 2
#     Edge 68, Type (0, 1), BuildingBlock: CIFDUS_clean_linker_0, # of connection points: 2
#     Edge 69, Type (0, 1), BuildingBlock: CIFDUS_clean_linker_0, # of connection points: 2
#     Edge 70, Type (0, 1), BuildingBlock: CIFDUS_clean_linker_0, # of connection points: 2
#     Edge 71, Type (0, 1), BuildingBlock: CIFDUS_clean_linker_0, # of connection points: 2
#     Edge 72, Type (0, 1), BuildingBlock: CIFDUS_clean_linker_0, # of connection points: 2
#     Edge 73, Type (0, 1), BuildingBlock: CIFDUS_clean_linker_0, # of connection points: 2
#     Edge 74, Type (0, 1), BuildingBlock: CIFDUS_clean_linker_0, # of connection points: 2
#     Edge 75, Type (0, 1), BuildingBlock: CIFDUS_clean_linker_0, # of connection points: 2
#     Edge 76, Type (0, 1), BuildingBlock: CIFDUS_clean_linker_0, # of connection points: 2
#     Edge 77, Type (0, 1), BuildingBlock: CIFDUS_clean_linker_0, # of connection points: 2
#     Edge 78, Type (0, 1), BuildingBlock: CIFDUS_clean_linker_0, # of connection points: 2
#     Edge 79, Type (0, 1), BuildingBlock: CIFDUS_clean_linker_0, # of connection points: 2
#     Edge 80, Type (0, 1), BuildingBlock: CIFDUS_clean_linker_0, # of connection points: 2
#     Edge 81, Type (0, 1), BuildingBlock: CIFDUS_clean_linker_0, # of connection points: 2
#     Edge 82, Type (0, 1), BuildingBlock: CIFDUS_clean_linker_0, # of connection points: 2
#     Edge 83, Type (0, 1), BuildingBlock: CIFDUS_clean_linker_0, # of connection points: 2
#     Edge 84, Type (0, 1), BuildingBlock: CIFDUS_clean_linker_0, # of connection points: 2
#     Edge 85, Type (0, 1), BuildingBlock: CIFDUS_clean_linker_0, # of connection points: 2
#     Edge 86, Type (0, 1), BuildingBlock: CIFDUS_clean_linker_0, # of connection points: 2
#     Edge 87, Type (0, 1), BuildingBlock: CIFDUS_clean_linker_0, # of connection points: 2
#     Edge 88, Type (0, 1), BuildingBlock: CIFDUS_clean_linker_0, # of connection points: 2
#     Edge 89, Type (0, 1), BuildingBlock: CIFDUS_clean_linker_0, # of connection points: 2
#     Edge 90, Type (0, 1), BuildingBlock: CIFDUS_clean_linker_0, # of connection points: 2
#     Edge 91, Type (0, 1), BuildingBlock: CIFDUS_clean_linker_0, # of connection points: 2
#     Edge 92, Type (0, 1), BuildingBlock: CIFDUS_clean_linker_0, # of connection points: 2
#     Edge 93, Type (0, 1), BuildingBlock: CIFDUS_clean_linker_0, # of connection points: 2
#     Edge 94, Type (0, 1), BuildingBlock: CIFDUS_clean_linker_0, # of connection points: 2
#     Edge 95, Type (0, 1), BuildingBlock: CIFDUS_clean_linker_0, # of connection points: 2
#     Edge 96, Type (0, 1), BuildingBlock: CIFDUS_clean_linker_0, # of connection points: 2
#     Edge 97, Type (0, 1), BuildingBlock: CIFDUS_clean_linker_0, # of connection points: 2
#     Edge 98, Type (0, 1), BuildingBlock: CIFDUS_clean_linker_0, # of connection points: 2
#     Edge 99, Type (0, 1), BuildingBlock: CIFDUS_clean_linker_0, # of connection points: 2
#     Edge 100, Type (0, 1), BuildingBlock: CIFDUS_clean_linker_0, # of connection points: 2
#     Edge 101, Type (0, 1), BuildingBlock: CIFDUS_clean_linker_0, # of connection points: 2
#     Edge 102, Type (0, 1), BuildingBlock: CIFDUS_clean_linker_0, # of connection points: 2
#     Edge 103, Type (0, 1), BuildingBlock: CIFDUS_clean_linker_0, # of connection points: 2
#     Edge 104, Type (0, 1), BuildingBlock: CIFDUS_clean_linker_0, # of connection points: 2
#     Edge 105, Type (0, 1), BuildingBlock: CIFDUS_clean_linker_0, # of connection points: 2
#     Edge 106, Type (0, 1), BuildingBlock: CIFDUS_clean_linker_0, # of connection points: 2
#     Edge 107, Type (0, 1), BuildingBlock: CIFDUS_clean_linker_0, # of connection points: 2
#     Edge 108, Type (0, 1), BuildingBlock: CIFDUS_clean_linker_0, # of connection points: 2
#     Edge 109, Type (0, 1), BuildingBlock: CIFDUS_clean_linker_0, # of connection points: 2
#     Edge 110, Type (0, 1), BuildingBlock: CIFDUS_clean_linker_0, # of connection points: 2
#     Edge 111, Type (0, 1), BuildingBlock: CIFDUS_clean_linker_0, # of connection points: 2
#     Edge 112, Type (0, 1), BuildingBlock: CIFDUS_clean_linker_0, # of connection points: 2
#     Edge 113, Type (0, 1), BuildingBlock: CIFDUS_clean_linker_0, # of connection points: 2
#     Edge 114, Type (0, 1), BuildingBlock: CIFDUS_clean_linker_0, # of connection points: 2
#     Edge 115, Type (0, 1), BuildingBlock: CIFDUS_clean_linker_0, # of connection points: 2
#     Edge 116, Type (0, 1), BuildingBlock: CIFDUS_clean_linker_0, # of connection points: 2
#     Edge 117, Type (0, 1), BuildingBlock: CIFDUS_clean_linker_0, # of connection points: 2
#     Edge 118, Type (0, 1), BuildingBlock: CIFDUS_clean_linker_0, # of connection points: 2
#     Edge 119, Type (0, 1), BuildingBlock: CIFDUS_clean_linker_0, # of connection points: 2
#     Edge 120, Type (0, 1), BuildingBlock: CIFDUS_clean_linker_0, # of connection points: 2
#     Edge 121, Type (0, 1), BuildingBlock: CIFDUS_clean_linker_0, # of connection points: 2
#     Edge 122, Type (0, 1), BuildingBlock: CIFDUS_clean_linker_0, # of connection points: 2
#     Edge 123, Type (0, 1), BuildingBlock: CIFDUS_clean_linker_0, # of connection points: 2
#     Edge 124, Type (0, 1), BuildingBlock: CIFDUS_clean_linker_0, # of connection points: 2
#     Edge 125, Type (0, 1), BuildingBlock: CIFDUS_clean_linker_0, # of connection points: 2
#     Edge 126, Type (0, 1), BuildingBlock: CIFDUS_clean_linker_0, # of connection points: 2
#     Edge 127, Type (0, 1), BuildingBlock: CIFDUS_clean_linker_0, # of connection points: 2
#     Edge 128, Type (0, 1), BuildingBlock: CIFDUS_clean_linker_0, # of connection points: 2
#     Edge 129, Type (0, 1), BuildingBlock: CIFDUS_clean_linker_0, # of connection points: 2
#     Edge 130, Type (0, 1), BuildingBlock: CIFDUS_clean_linker_0, # of connection points: 2
#     Edge 131, Type (0, 1), BuildingBlock: CIFDUS_clean_linker_0, # of connection points: 2
#     Edge 132, Type (0, 1), BuildingBlock: CIFDUS_clean_linker_0, # of connection points: 2
#     Edge 133, Type (0, 1), BuildingBlock: CIFDUS_clean_linker_0, # of connection points: 2
#     Edge 134, Type (0, 1), BuildingBlock: CIFDUS_clean_linker_0, # of connection points: 2
#     Edge 135, Type (0, 1), BuildingBlock: CIFDUS_clean_linker_0, # of connection points: 2
# Relax obj value: 0.078
# Max RMSD: 0.185
# Mean RMSD: 0.113
data_MOF--net-gar--node1-CEKHIL_clean_sbu_0--node2-KUMBOL_clean_sbu_1--edge1-CIFDUS_clean_linker_0
_symmetry_space_group_name_H-M    P1
_symmetry_Int_Tables_number       1
_symmetry_cell_setting            triclinic
loop_
_symmetry_equiv_pos_as_xyz
'x, y, z'
_cell_length_a     52.949762
_cell_length_b     52.228802
_cell_length_c     48.446867
_cell_angle_alpha  96.522539
_cell_angle_beta   96.738949
_cell_angle_gamma 101.08001
loop_
_atom_site_label
_atom_site_type_symbol
_atom_site_fract_x
_atom_site_fract_y
_atom_site_fract_z
_atom_type_partial_charge
Co0 Co 0.08673 0.34389 0.37219 0.0
O1 O 0.12537 0.34617 0.37988 0.0
O2 O 0.10333 0.33339 0.33855 0.0
C3 C 0.08624 0.38392 0.39961 0.0
O4 O 0.04619 0.33878 0.3554 0.0
Co5 Co 0.05119 0.34443 0.41964 0.0
O6 O 1.02306 0.3474 0.39041 0.0
C7 C 0.07184 0.29689 0.40303 0.0
C8 C 0.12608 0.33746 0.35387 0.0
C9 C 1.02417 0.34166 0.36439 0.0
O10 O 0.0802 0.30606 0.38126 0.0
O11 O 0.06281 0.3106 0.42159 0.0
O12 O 0.09212 0.38368 0.37419 0.0
O13 O 0.08263 0.36105 0.40734 0.0
Co14 Co 0.03734 0.77026 0.7113 0.0
O15 O 1.0 0.7711 0.70083 0.0
O16 O 1.01378 0.76114 0.74086 0.0
C17 C 0.05136 0.81135 0.69945 0.0
O18 O 0.0767 0.76998 0.729 0.0
Co19 Co 0.07366 0.77454 0.66519 0.0
O20 O 0.10274 0.77898 0.69588 0.0
C21 C 0.03857 0.72325 0.66602 0.0
C22 C 0.99409 0.76601 0.72494 0.0
C23 C 0.09993 0.77484 0.72083 0.0
O24 O 0.03153 0.732 0.68973 0.0
O25 O 0.05332 0.73794 0.65247 0.0
O26 O 0.04457 0.80839 0.72389 0.0
O27 O 0.04796 0.78977 0.68244 0.0
Co28 Co 0.58127 0.8433 0.86313 0.0
O29 O 0.61979 0.846 0.86944 0.0
O30 O 0.59645 0.8304 0.82925 0.0
C31 C 0.582 0.88488 0.88678 0.0
O32 O 0.54032 0.83776 0.84861 0.0
Co33 Co 0.55001 0.84688 0.91383 0.0
O34 O 0.51985 0.84745 0.88562 0.0
C35 C 0.57005 0.79892 0.89844 0.0
C36 C 0.61965 0.83572 0.84381 0.0
C37 C 0.51917 0.84099 0.85931 0.0
O38 O 0.57568 0.80676 0.87511 0.0
O39 O 0.56234 0.81331 0.91758 0.0
O40 O 0.58616 0.88192 0.86073 0.0
O41 O 0.5794 0.86342 0.89768 0.0
Co42 Co 0.54363 0.26764 0.2135 0.0
O43 O 0.5055 0.26762 0.20633 0.0
O44 O 0.52324 0.25766 0.24484 0.0
C45 C 0.55516 0.30904 0.20129 0.0
O46 O 0.58378 0.26833 0.22904 0.0
Co47 Co 0.57809 0.27416 0.16613 0.0
O48 O 0.60856 0.27812 0.1951 0.0
C49 C 0.54417 0.22175 0.16684 0.0
C50 C 0.50224 0.26243 0.23124 0.0
C51 C 0.60663 0.27358 0.2201 0.0
O52 O 0.53819 0.22943 0.19151 0.0
O53 O 0.55761 0.23767 0.15326 0.0
O54 O 0.55013 0.30574 0.22631 0.0
O55 O 0.55186 0.28758 0.18414 0.0
Co56 Co 0.08425 0.82805 0.13171 0.0
O57 O 0.04643 0.8246 0.12519 0.0
O58 O 0.0687 0.81864 0.1643 0.0
C59 C 0.09235 0.86979 0.11471 0.0
O60 O 0.12179 0.83076 0.15151 0.0
Co61 Co 0.11766 0.82482 0.09361 0.0
O62 O 0.14982 0.82989 0.12145 0.0
C63 C 0.08872 0.77345 0.09924 0.0
C64 C 0.04629 0.81896 0.15064 0.0
C65 C 0.14523 0.83109 0.14658 0.0
O66 O 0.07954 0.78763 0.11779 0.0
O67 O 0.10494 0.78504 0.08485 0.0
O68 O 0.08893 0.86655 0.14016 0.0
O69 O 0.09133 0.84753 0.09849 0.0
Co70 Co 0.52954 0.80243 0.46851 0.0
O71 O 0.56685 0.81146 0.48088 0.0
O72 O 0.54846 0.79522 0.43763 0.0
C73 C 0.52241 0.84342 0.48866 0.0
O74 O 0.4931 0.79353 0.44415 0.0
Co75 Co 0.49193 0.79065 0.50172 0.0
O76 O 0.46321 0.79358 0.47232 0.0
C77 C 0.5201 0.74895 0.49557 0.0
C78 C 0.56965 0.80416 0.45508 0.0
C79 C 0.46932 0.79347 0.4478 0.0
O80 O 0.53009 0.76399 0.47828 0.0
O81 O 0.50316 0.7565 0.50941 0.0
O82 O 0.52941 0.83913 0.46424 0.0
O83 O 0.52013 0.82279 0.50224 0.0
Co84 Co 0.59149 0.32652 0.63105 0.0
O85 O 0.55338 0.32089 0.62426 0.0
O86 O 0.57627 0.3167 0.66369 0.0
C87 C 0.59708 0.36769 0.6121 0.0
O88 O 0.62929 0.3309 0.65125 0.0
Co89 Co 0.62774 0.32762 0.59354 0.0
O90 O 0.65903 0.33423 0.62282 0.0
C91 C 0.59994 0.27425 0.59797 0.0
C92 C 0.55359 0.31566 0.6499 0.0
C93 C 0.6533 0.33335 0.6474 0.0
O94 O 0.58943 0.28625 0.61717 0.0
O95 O 0.61553 0.28794 0.58435 0.0
O96 O 0.59376 0.36546 0.63787 0.0
O97 O 0.59782 0.34511 0.59767 0.0
Co98 Co 0.02878 0.29996 0.9606 0.0
O99 O 0.06657 0.30699 0.96066 0.0
O100 O 0.03739 0.28632 0.92507 0.0
C101 C 0.02757 0.34416 0.97871 0.0
O102 O 0.98926 0.29103 0.94675 0.0
Co103 Co 1.00305 0.29659 1.0057 0.0
O104 O 0.96922 0.29832 0.98325 0.0
C105 C 1.02587 0.2514 0.99534 0.0
C106 C 0.06165 0.29538 0.93483 0.0
C107 C 0.96842 0.29378 0.95683 0.0
O108 O 0.03036 0.26282 0.97342 0.0
O109 O 1.01537 0.26308 0.01408 0.0
O110 O 0.0279 0.3356 0.95273 0.0
O111 O 0.02909 0.32605 0.99529 0.0
Co112 Co 0.42492 0.03259 0.32246 0.0
O113 O 0.43464 0.06953 0.319 0.0
O114 O 0.39463 0.04487 0.30978 0.0
C115 C 0.44799 0.03438 0.36423 0.0
O116 O 0.40617 0.99566 0.32425 0.0
Co117 Co 0.46262 0.99409 0.32775 0.0
O118 O 0.43269 0.96943 0.3379 0.0
C119 C 0.45015 1.01384 0.274 0.0
C120 C 0.40986 0.06777 0.31142 0.0
C121 C 0.41004 0.974 0.33212 0.0
O122 O 0.43122 0.02277 0.2831 0.0
O123 O 0.46612 1.00396 0.28934 0.0
O124 O 0.42564 0.04139 0.36265 0.0
O125 O 0.45638 0.02849 0.34091 0.0
Co126 Co 0.28705 0.20493 0.52737 0.0
O127 O 0.32484 0.21221 0.53059 0.0
O128 O 0.30021 0.17686 0.54201 0.0
C129 C 0.28054 0.21593 0.48288 0.0
O130 O 0.24956 0.18718 0.52682 0.0
Co131 Co 0.25013 0.24122 0.51981 0.0
O132 O 0.2201 0.21077 0.51579 0.0
C133 C 0.2792 0.24358 0.57643 0.0
C134 C 0.32322 0.18945 0.53962 0.0
C135 C 0.22589 0.18945 0.52209 0.0
O136 O 0.28837 0.22359 0.56713 0.0
O137 O 0.26505 0.25466 0.56027 0.0
O138 O 0.28467 0.1929 0.48716 0.0
O139 O 0.28086 0.23216 0.50535 0.0
Co140 Co 0.15939 0.07423 0.81445 0.0
O141 O 0.15085 0.03589 0.81092 0.0
O142 O 0.18826 0.06058 0.80463 0.0
C143 C 0.14266 0.08096 0.85542 0.0
O144 O 0.1784 0.11198 0.81637 0.0
Co145 Co 0.12371 0.11231 0.81376 0.0
O146 O 0.15435 0.14235 0.8201 0.0
C147 C 0.12796 0.08159 0.76017 0.0
C148 C 0.17433 0.03737 0.80466 0.0
C149 C 0.17618 0.13603 0.81846 0.0
O150 O 0.14646 0.07296 0.77325 0.0
O151 O 0.11483 0.09613 0.77295 0.0
O152 O 0.16586 0.07622 0.85521 0.0
O153 O 0.12986 0.0813 0.83091 0.0
Co154 Co 0.32961 0.94654 0.01283 0.0
O155 O 0.2964 0.94907 0.02453 0.0
O156 O 0.33039 0.98215 0.02781 0.0
C157 C 0.31454 0.92175 0.97107 0.0
O158 O 0.36589 0.95338 1.0022 0.0
Co159 Co 0.3491 0.89463 1.00105 0.0
O160 O 0.37774 0.91633 0.98564 0.0
C161 C 0.34545 0.91615 0.05899 0.0
C162 C 0.30649 0.97409 0.03165 0.0
C163 C 0.3816 0.94135 0.99039 0.0
O164 O 0.34256 0.9383 0.05112 0.0
O165 O 0.34578 0.8958 0.04175 0.0
O166 O 0.31537 0.94698 0.97376 0.0
O167 O 0.32048 0.91227 0.99382 0.0
Co168 Co 0.32585 0.40597 0.05257 0.0
O169 O 0.28876 0.39321 0.04733 0.0
O170 O 0.30916 0.43315 0.06769 0.0
C171 C 0.3313 0.39236 0.00776 0.0
O172 O 0.36322 0.42758 0.05987 0.0
Co173 Co 0.3631 0.3694 0.04972 0.0
O174 O 0.38985 0.40105 0.04774 0.0
C175 C 0.3378 0.37332 0.10002 0.0
C176 C 0.28734 0.41641 0.05904 0.0
C177 C 0.38563 0.42392 0.05459 0.0
O178 O 0.32823 0.39188 0.09018 0.0
O179 O 0.35189 0.36058 0.08649 0.0
O180 O 0.32422 0.41433 0.01475 0.0
O181 O 0.33293 0.37764 0.02763 0.0
Co182 Co 0.77664 0.15254 0.05174 0.0
O183 O 0.81368 0.15704 0.05568 0.0
O184 O 0.78748 0.12673 0.07341 0.0
C185 C 0.77211 0.15521 1.0056 0.0
O186 O 0.73768 0.14115 0.05144 0.0
Co187 Co 0.74793 0.19521 0.03024 0.0
O188 O 0.71587 0.1704 0.03463 0.0
C189 C 0.7724 0.20111 0.08962 0.0
C190 C 0.81085 0.13659 0.06884 0.0
C191 C 0.71654 0.14918 0.04503 0.0
O192 O 0.77891 0.17855 0.08636 0.0
O193 O 0.76195 0.21142 0.06967 0.0
O194 O 0.77395 0.13287 0.01413 0.0
O195 O 0.77421 0.17497 0.02473 0.0
Co196 Co 0.20931 0.58031 0.29097 0.0
O197 O 0.19462 0.54435 0.29345 0.0
O198 O 0.22986 0.55805 0.27401 0.0
C199 C 0.20727 0.59564 0.33564 0.0
O200 O 0.23036 0.61553 0.28511 0.0
Co201 Co 0.17739 0.62404 0.30083 0.0
O202 O 0.21099 0.64822 0.30026 0.0
C203 C 0.16704 0.58802 0.24703 0.0
C204 C 0.21373 0.53865 0.28117 0.0
C205 C 0.2299 0.64001 0.29089 0.0
O206 O 0.18671 0.57796 0.2542 0.0
O207 O 0.1592 0.60493 0.26343 0.0
O208 O 0.22657 0.58502 0.32967 0.0
O209 O 0.18916 0.59473 0.31508 0.0
Co210 Co 0.82747 0.90517 0.55459 0.0
O211 O 0.79019 0.9015 0.55448 0.0
O212 O 0.82053 0.93539 0.57615 0.0
C213 C 0.82574 0.89265 0.50758 0.0
O214 O 0.86637 0.91952 0.55821 0.0
Co215 Co 0.85652 0.862 0.53952 0.0
O216 O 0.88648 0.8907 0.53686 0.0
C217 C 0.83688 0.86517 0.59432 0.0
C218 C 0.79607 0.92474 0.56946 0.0
C219 C 0.88629 0.91385 0.54814 0.0
O220 O 0.83058 0.88716 0.58982 0.0
O221 O 0.84609 0.85136 0.57594 0.0
O222 O 0.82402 0.91632 0.51753 0.0
O223 O 0.82671 0.8765 0.52598 0.0
Co224 Co 0.96767 0.02719 0.28202 0.0
O225 O 0.97859 0.0648 0.28481 0.0
O226 O 0.94043 0.04151 0.2633 0.0
C227 C 0.97965 0.02475 0.32803 0.0
O228 O 0.94851 0.98872 0.27621 0.0
Co229 Co 1.00663 0.99201 0.29294 0.0
O230 O 0.97576 0.9631 0.29015 0.0
C231 C 1.00499 1.01617 0.24085 0.0
C232 C 0.95585 0.06439 0.27122 0.0
C233 C 0.95311 0.96631 0.28145 0.0
O234 O 0.98375 0.02304 0.24606 0.0
O235 O 1.01827 1.0054 0.25822 0.0
O236 O 0.95763 0.03061 0.3193 0.0
O237 O 0.99493 0.02273 0.30919 0.0
Co238 Co 0.28211 0.64959 0.55254 0.0
O239 O 0.31896 0.6602 0.55362 0.0
O240 O 0.29905 0.6245 0.56933 0.0
C241 C 0.27163 0.65558 0.50781 0.0
O242 O 0.24487 0.63139 0.55374 0.0
Co243 Co 0.24484 0.68806 0.54173 0.0
O244 O 0.21683 0.65681 0.54091 0.0
C245 C 0.27746 0.69337 0.59684 0.0
C246 C 0.32056 0.63878 0.56436 0.0
C247 C 0.22176 0.63537 0.54803 0.0
O248 O 0.28428 0.6714 0.59011 0.0
O249 O 0.2639 0.70409 0.57969 0.0
O250 O 0.27883 0.6341 0.51335 0.0
O251 O 0.27299 0.67337 0.52902 0.0
Co252 Co 0.45978 0.52604 0.78684 0.0
O253 O 0.46011 0.56339 0.78889 0.0
O254 O 0.42756 0.531 0.76832 0.0
C255 C 0.47563 0.52654 0.83262 0.0
O256 O 0.44941 0.48625 0.78177 0.0
Co257 Co 0.50673 0.50154 0.79457 0.0
O258 O 0.4825 0.46725 0.79442 0.0
C259 C 0.49618 0.52371 0.74242 0.0
C260 C 0.43665 0.55607 0.77517 0.0
C261 C 0.45842 0.46592 0.78683 0.0
O262 O 0.47429 0.52644 0.74999 0.0
O263 O 0.5132 0.51566 0.75834 0.0
O264 O 0.45133 0.52641 0.8246 0.0
O265 O 0.49053 0.5284 0.81308 0.0
Co266 Co 0.71742 0.08614 0.78359 0.0
O267 O 0.71221 0.04894 0.78305 0.0
O268 O 0.74629 0.07362 0.76953 0.0
C269 C 0.70762 0.09467 0.82718 0.0
O270 O 0.72898 0.12542 0.78184 0.0
Co271 Co 0.67034 0.11371 0.79092 0.0
O272 O 0.69692 0.14616 0.79232 0.0
C273 C 0.67475 0.0848 0.73606 0.0
C274 C 0.73436 0.05047 0.77379 0.0
C275 C 0.71965 0.14636 0.78599 0.0
O276 O 0.69743 0.08094 0.74467 0.0
O277 O 0.66055 0.0951 0.75187 0.0
O278 O 0.73089 0.09164 0.82385 0.0
O279 O 0.69099 0.09023 0.80472 0.0
Co280 Co 0.78601 0.70039 0.02226 0.0
O281 O 0.82366 0.70737 0.02775 0.0
O282 O 0.7981 0.67055 0.03476 0.0
C283 C 0.78246 0.71436 0.97888 0.0
O284 O 0.74723 0.68415 0.01868 0.0
Co285 Co 0.75429 0.74173 0.01843 0.0
O286 O 0.7226 0.71318 0.00941 0.0
C287 C 0.77882 0.73615 0.0745 0.0
C288 C 0.82148 0.68384 0.03476 0.0
C289 C 0.72484 0.68998 0.01317 0.0
O290 O 0.78633 0.71605 0.06279 0.0
O291 O 0.76698 0.75053 0.06011 0.0
O292 O 0.78517 0.6907 0.98219 0.0
O293 O 0.7829 0.72981 1.00209 0.0
Co294 Co 0.93126 0.53831 0.80788 0.0
O295 O 0.9363 0.57313 0.79734 0.0
O296 O 0.89812 0.54635 0.79677 0.0
C297 C 0.95958 0.54819 0.84749 0.0
O298 O 0.91754 0.50231 0.81818 0.0
Co299 Co 0.97478 0.50622 0.81326 0.0
O300 O 0.95022 0.48306 0.83237 0.0
C301 C 0.94989 0.51238 0.7572 0.0
C302 C 0.91104 0.56907 0.79279 0.0
C303 C 0.92621 0.48401 0.82934 0.0
O304 O 0.93274 0.52285 0.76835 0.0
O305 O 0.96919 0.5063 0.7716 0.0
O306 O 0.93641 0.55312 0.84727 0.0
O307 O 0.96556 0.53979 0.82353 0.0
Co308 Co 0.83062 0.44479 0.50955 0.0
O309 O 0.79669 0.43413 0.51963 0.0
O310 O 0.82004 0.47509 0.5271 0.0
C311 C 0.8217 0.42217 0.46645 0.0
O312 O 0.86575 0.46323 0.50107 0.0
Co313 Co 0.86404 0.40338 0.49561 0.0
O314 O 0.88488 0.43285 0.48027 0.0
C315 C 0.85475 0.41708 0.55362 0.0
C316 C 0.79863 0.45879 0.52914 0.0
C317 C 0.88355 0.45675 0.48748 0.0
O318 O 0.84651 0.43745 0.54681 0.0
O319 O 0.86024 0.39974 0.53573 0.0
O320 O 0.81544 0.44503 0.47078 0.0
O321 O 0.83081 0.41317 0.48833 0.0
Co322 Co 0.66115 0.57234 0.31849 0.0
O323 O 0.64998 0.53476 0.31681 0.0
O324 O 0.68775 0.55508 0.30658 0.0
C325 C 0.64911 0.5811 0.36196 0.0
O326 O 0.6813 0.60966 0.3182 0.0
Co327 Co 0.62607 0.61015 0.31943 0.0
O328 O 0.65694 0.63954 0.32481 0.0
C329 C 0.62774 0.57992 0.26511 0.0
C330 C 0.67237 0.53316 0.30911 0.0
C331 C 0.67863 0.63367 0.32123 0.0
O332 O 0.6456 0.57022 0.27787 0.0
O333 O 0.61581 0.59543 0.2783 0.0
O334 O 0.67151 0.57566 0.35855 0.0
O335 O 0.63374 0.58089 0.33882 0.0
C336 C 1.0127 0.99359 0.97887 0.0
C337 C 0.99659 0.95742 1.00381 0.0
C338 C 1.00773 0.9842 1.0038 0.0
C339 C 0.9914 0.94002 0.97854 0.0
C340 C 1.00676 0.97633 0.95333 0.0
C341 C 0.99651 0.94945 0.95337 0.0
N342 N 1.02204 1.0198 0.97941 0.0
C343 C 1.02464 0.03024 0.95507 0.0
C344 C 1.01066 0.98675 0.92841 0.0
C345 C 1.01938 1.01387 0.92927 0.0
Gd346 Gd 0.097 0.07544 0.06853 0.0
Gd347 Gd 0.0311 0.04534 0.02384 0.0
N348 N 1.01314 1.00146 0.02797 0.0
C349 C 0.99055 0.94904 0.02915 0.0
C350 C 1.00586 0.99375 0.05239 0.0
C351 C 0.99491 0.96736 0.05346 0.0
H352 H 1.0087 1.00788 0.07105 0.0
H353 H 0.98969 0.96121 0.07299 0.0
H354 H 0.11983 0.10452 0.01537 0.0
H355 H 0.03025 0.05128 0.95547 0.0
H356 H 0.13454 0.14941 1.00449 0.0
H357 H 0.98198 0.92862 0.03003 0.0
H358 H 0.98302 0.91933 0.97815 0.0
H359 H 0.0853 0.08244 0.13604 0.0
H360 H 1.00633 0.97415 0.90835 0.0
H361 H 1.02173 0.02221 0.91004 0.0
H362 H 0.13017 0.20527 0.08874 0.0
H363 H 0.99196 0.93587 0.93396 0.0
H364 H 0.10099 0.16472 0.1663 0.0
H365 H 0.08662 0.11845 0.1738 0.0
N366 N 0.09702 0.10787 0.10639 0.0
C367 C 0.10585 0.13319 0.10212 0.0
C368 C 0.09058 0.10245 0.13191 0.0
C369 C 0.10003 0.14896 0.14937 0.0
C370 C 0.09178 0.12287 0.15364 0.0
C371 C 0.10734 0.15441 0.12346 0.0
H372 H 0.11735 0.19686 0.13455 0.0
N373 N 0.11128 0.1172 0.05572 0.0
C374 C 0.11331 0.13798 0.07619 0.0
C375 C 0.12943 0.1681 0.04484 0.0
C376 C 0.12214 0.16403 0.07111 0.0
C377 C 0.11953 0.121 0.03061 0.0
C378 C 0.12833 0.14648 0.02461 0.0
O379 O 0.05376 1.01295 0.03642 0.0
O380 O 0.08672 0.03106 0.07311 0.0
O381 O 0.13581 0.07235 0.05988 0.0
O382 O 0.12819 0.08015 0.10337 0.0
O383 O 0.03145 0.0577 0.07063 0.0
O384 O 0.07004 0.05236 0.09321 0.0
O385 O 0.06745 0.10272 0.0587 0.0
O386 O 0.04703 0.08722 0.01441 0.0
O387 O 1.00313 0.06505 0.04161 0.0
O388 O 0.99316 0.04257 0.99981 0.0
O389 O 0.09807 0.0563 0.02418 0.0
O390 O 0.06165 0.06365 0.99896 0.0
C391 C 0.07184 1.0101 0.05682 0.0
C392 C 0.04524 0.05204 0.09259 0.0
C393 C 0.17224 0.07723 0.09688 0.0
C394 C 0.21113 0.05921 0.09404 0.0
C395 C 0.21037 0.09399 0.13169 0.0
C396 C 0.18475 0.09423 0.12118 0.0
C397 C 0.2235 0.07654 0.11832 0.0
C398 C 0.18551 0.05992 0.08325 0.0
C399 C 0.14496 0.07654 0.08655 0.0
C400 C 0.12345 0.18513 0.0923 0.0
C401 C 0.11612 0.18034 0.11839 0.0
H402 H 0.13629 0.18782 0.04012 0.0
C403 C 0.05581 0.10739 0.03445 0.0
C404 C 0.08558 0.0601 1.00042 0.0
C405 C 0.95917 0.04544 0.02706 0.0
C406 C 0.91908 0.0551 0.04162 0.0
C407 C 0.92369 1.00966 0.03092 0.0
C408 C 0.94871 1.01836 0.02456 0.0
C409 C 0.90882 0.02786 0.03918 0.0
C410 C 0.94461 0.06355 0.03618 0.0
C411 C 0.98507 0.0558 0.02021 0.0
H412 H 0.21997 0.10712 0.15046 0.0
H413 H 0.1747 0.10765 0.132 0.0
H414 H 0.24315 0.07626 0.12729 0.0
H415 H 0.17575 0.04678 0.06449 0.0
H416 H 0.91559 0.98876 0.02888 0.0
H417 H 0.9597 1.00402 0.01755 0.0
H418 H 0.88911 1.02056 0.04283 0.0
H419 H 0.95324 0.08441 0.03865 0.0
C420 C 0.37864 0.81479 0.23261 0.0
C421 C 0.35453 0.79346 0.18766 0.0
C422 C 0.35511 0.80537 0.21545 0.0
C423 C 0.37797 0.79257 0.17703 0.0
C424 C 0.40223 0.81307 0.2224 0.0
C425 C 0.40177 0.80239 0.19436 0.0
N426 N 0.37843 0.82438 0.25974 0.0
C427 C 0.40098 0.8322 0.27804 0.0
C428 C 0.42552 0.8216 0.24088 0.0
C429 C 0.42487 0.83104 0.26888 0.0
Gd430 Gd 0.27744 0.78905 0.31535 0.0
Gd431 Gd 0.33819 0.82861 0.27284 0.0
N432 N 0.33282 0.8061 0.22657 0.0
C433 C 0.33045 0.78185 0.17173 0.0
C434 C 0.30944 0.79301 0.21172 0.0
C435 C 0.30785 0.7812 0.18401 0.0
H436 H 0.29187 0.79085 0.22109 0.0
H437 H 0.2892 0.77124 0.1723 0.0
H438 H 0.30653 0.80045 0.38208 0.0
H439 H 0.4006 0.83969 0.29967 0.0
H440 H 0.29691 0.81534 0.42914 0.0
H441 H 0.32918 0.77243 0.15035 0.0
H442 H 0.37788 0.7837 0.15568 0.0
H443 H 0.22031 0.77628 0.27277 0.0
H444 H 0.44404 0.82061 0.23385 0.0
H445 H 0.44274 0.83747 0.28341 0.0
H446 H 0.20905 0.82731 0.41238 0.0
H447 H 0.41969 0.80105 0.18608 0.0
H448 H 0.16332 0.80158 0.31896 0.0
H449 H 0.17542 0.78217 0.27468 0.0
N450 N 0.23405 0.79379 0.31508 0.0
C451 C 0.2274 0.80297 0.33998 0.0
C452 C 0.21546 0.78533 0.2921 0.0
C453 C 0.18316 0.79936 0.31816 0.0
C454 C 0.18991 0.78839 0.29315 0.0
C455 C 0.20186 0.80634 0.34214 0.0
H456 H 0.17612 0.81863 0.37029 0.0
N457 N 0.2697 0.80264 0.36106 0.0
C458 C 0.24577 0.8075 0.36372 0.0
C459 C 0.25812 0.81919 0.41389 0.0
C460 C 0.23935 0.81603 0.3902 0.0
C461 C 0.28772 0.80465 0.38426 0.0
C462 C 0.28235 0.81326 0.41092 0.0
O463 O 0.3384 0.7853 0.27064 0.0
O464 O 0.29782 0.78491 0.27746 0.0
O465 O 0.27877 0.75379 0.3349 0.0
O466 O 0.2546 0.7512 0.29522 0.0
O467 O 0.29617 0.8294 0.25366 0.0
O468 O 0.26272 0.80777 0.27683 0.0
O469 O 0.29112 0.8306 0.33862 0.0
O470 O 0.31005 0.82825 0.30229 0.0
O471 O 0.33636 0.86506 0.25668 0.0
O472 O 0.36503 0.865 0.29246 0.0
O473 O 0.32046 0.79108 0.3346 0.0
O474 O 0.35387 0.81767 0.31529 0.0
C475 C 0.31629 0.77183 0.2752 0.0
C476 C 0.2711 0.82141 0.25666 0.0
C477 C 0.23777 0.72443 0.32768 0.0
C478 C 0.22089 0.7031 0.36576 0.0
C479 C 0.19118 0.70921 0.3262 0.0
C480 C 0.21218 0.72099 0.31386 0.0
C481 C 0.19545 0.7007 0.3523 0.0
C482 C 0.24195 0.71467 0.35321 0.0
C483 C 0.26003 0.73931 0.31659 0.0
C484 C 0.2143 0.82058 0.39226 0.0
C485 C 0.19557 0.81569 0.36828 0.0
H486 H 0.25396 0.82576 0.43459 0.0
C487 C 0.30773 0.84288 0.3248 0.0
C488 C 0.34547 0.80231 0.33407 0.0
C489 C 0.37567 0.89709 0.26178 0.0
C490 C 0.38637 0.92204 0.22349 0.0
C491 C 0.41604 0.92977 0.26716 0.0
C492 C 0.39927 0.91048 0.27793 0.0
C493 C 0.40963 0.93565 0.24008 0.0
C494 C 0.3694 0.90316 0.23468 0.0
C495 C 0.35655 0.8786 0.27379 0.0
H496 H 0.17153 0.70705 0.31571 0.0
H497 H 0.2083 0.72783 0.29384 0.0
H498 H 0.17896 0.69225 0.3619 0.0
H499 H 0.2616 0.71703 0.36396 0.0
H500 H 0.43408 0.94017 0.27983 0.0
H501 H 0.40455 0.90635 0.29899 0.0
H502 H 0.42303 0.95033 0.23191 0.0
H503 H 0.35104 0.89336 0.22215 0.0
C504 C 0.61812 0.10266 0.50536 0.0
C505 C 0.64387 0.14012 0.53753 0.0
C506 C 0.62748 0.11488 0.53261 0.0
C507 C 0.64962 0.15347 0.51473 0.0
C508 C 0.62495 0.11549 0.48238 0.0
C509 C 0.64018 0.14118 0.48722 0.0
N510 N 0.60377 0.07764 0.5013 0.0
C511 C 0.59737 0.06365 0.47497 0.0
C512 C 0.61696 0.10182 0.45522 0.0
C513 C 0.60345 0.07565 0.45154 0.0
Gd514 Gd 0.51929 0.0537 0.56883 0.0
Gd515 Gd 0.59325 0.06026 0.54211 0.0
N516 N 0.62158 0.10154 0.5543 0.0
C517 C 0.65464 0.15085 0.56519 0.0
C518 C 0.63381 0.1109 0.58097 0.0
C519 C 0.64998 0.13594 0.58694 0.0
H520 H 0.63095 0.09904 0.59751 0.0
H521 H 0.65905 0.1436 0.60824 0.0
H522 H 0.48583 0.02197 0.50756 0.0
H523 H 0.58748 0.04318 0.47197 0.0
H524 H 0.45796 0.97827 0.48917 0.0
H525 H 0.6673 0.1702 0.56984 0.0
H526 H 0.66193 0.173 0.51812 0.0
H527 H 0.52671 0.05759 0.64035 0.0
H528 H 0.62183 0.11099 0.43703 0.0
H529 H 0.5979 0.06465 0.43068 0.0
H530 H 0.45152 0.93423 0.57054 0.0
H531 H 0.64539 0.15144 0.46982 0.0
H532 H 0.49181 0.9823 0.65982 0.0
H533 H 0.51647 0.0279 0.67514 0.0
N534 N 0.51022 0.02838 0.60501 0.0
C535 C 0.49522 1.00382 0.59618 0.0
C536 C 0.51696 0.03741 0.63305 0.0
C537 C 0.49673 0.99507 0.64425 0.0
C538 C 0.51074 1.02077 0.65299 0.0
C539 C 0.48837 0.98644 0.61564 0.0
H540 H 0.46767 0.94762 0.62077 0.0
N541 N 0.49242 1.01326 0.54913 0.0
C542 C 0.48573 0.99623 0.56768 0.0
C543 C 0.46007 0.96455 0.52953 0.0
C544 C 0.46971 0.97117 0.55818 0.0
C545 C 0.48178 1.0076 0.52154 0.0
C546 C 0.46586 0.98298 0.51121 0.0
O547 O 0.58308 0.10042 0.55888 0.0
O548 O 0.54523 0.09589 0.5807 0.0
O549 O 0.4887 0.06912 0.54626 0.0
O550 O 0.48876 0.0655 0.5902 0.0
O551 O 0.57457 0.04587 0.578 0.0
O552 O 0.55151 0.06726 0.60414 0.0
O553 O 0.53127 1.01428 0.55087 0.0
O554 O 0.56638 1.02023 0.52514 0.0
O555 O 0.62026 0.04515 0.56988 0.0
O556 O 0.62243 0.04141 0.52536 0.0
O557 O 0.53593 0.07162 0.53364 0.0
O558 O 0.55936 0.04989 0.50767 0.0
C559 C 0.56641 0.1106 0.57334 0.0
C560 C 0.57353 0.06066 0.60115 0.0
C561 C 0.4772 0.10341 0.57502 0.0
C562 C 0.4558 0.13986 0.56684 0.0
C563 C 0.49559 0.14747 0.59969 0.0
C564 C 0.49626 0.12084 0.59462 0.0
C565 C 0.47565 0.15703 0.5857 0.0
C566 C 0.45671 0.11296 0.56136 0.0
C567 C 0.47907 0.07553 0.56899 0.0
C568 C 0.46366 0.95363 0.57748 0.0
C569 C 0.47292 0.96124 0.6061 0.0
H570 H 0.44774 0.94547 0.52145 0.0
C571 C 0.5468 1.00482 0.53414 0.0
C572 C 0.53783 0.05799 0.51021 0.0
C573 C 0.66066 0.04125 0.55559 0.0
C574 C 0.69937 0.02253 0.56219 0.0
C575 C 0.7033 0.07004 0.5654 0.0
C576 C 0.67632 0.06662 0.55967 0.0
C577 C 0.71481 0.04818 0.56672 0.0
C578 C 0.67221 1.01929 0.55672 0.0
C579 C 0.63227 0.03692 0.54977 0.0
H580 H 0.51027 0.16069 0.61493 0.0
H581 H 0.51155 0.11376 0.60629 0.0
H582 H 0.47512 0.17768 0.59053 0.0
H583 H 0.44149 0.09957 0.54676 0.0
H584 H 0.71536 0.08967 0.56856 0.0
H585 H 0.66779 0.08369 0.55825 0.0
H586 H 0.73582 0.05132 0.57067 0.0
H587 H 0.66002 0.99968 0.55346 0.0
C588 C 0.25599 0.33521 0.74068 0.0
C589 C 0.22978 0.29625 0.71107 0.0
C590 C 0.24645 0.30808 0.73595 0.0
C591 C 0.22317 0.31194 0.69079 0.0
C592 C 0.24893 0.35107 0.72062 0.0
C593 C 0.2327 0.33926 0.69556 0.0
N594 N 0.27171 0.34615 0.7651 0.0
C595 C 0.28011 0.37276 0.77134 0.0
C596 C 0.25818 0.37838 0.72648 0.0
C597 C 0.27365 0.38928 0.75205 0.0
Gd598 Gd 0.34663 0.28539 0.79869 0.0
Gd599 Gd 0.28185 0.31658 0.79527 0.0
N600 N 0.25363 0.29325 0.75569 0.0
C601 C 0.22011 0.26899 0.70741 0.0
C602 C 0.24327 0.26694 0.7529 0.0
C603 C 0.22666 0.25434 0.72856 0.0
H604 H 0.24797 0.25565 0.76924 0.0
H605 H 0.21887 0.23335 0.72615 0.0
H606 H 0.38379 0.3434 0.82875 0.0
H607 H 0.29135 0.38127 0.79143 0.0
H608 H 0.41452 0.36155 0.87214 0.0
H609 H 0.20727 0.25915 0.68856 0.0
H610 H 0.21051 0.30318 0.67146 0.0
H611 H 0.33294 0.2197 0.79723 0.0
H612 H 0.25315 0.39124 0.71162 0.0
H613 H 0.28045 0.4104 0.75701 0.0
H614 H 0.41878 0.2863 0.91968 0.0
H615 H 0.22719 0.35113 0.67983 0.0
H616 H 0.37069 0.20193 0.8737 0.0
H617 H 0.34218 0.18716 0.82818 0.0
N618 N 0.35505 0.25263 0.82559 0.0
C619 C 0.37131 0.2611 0.85017 0.0
C620 C 0.34496 0.22642 0.81735 0.0
C621 C 0.36649 0.21633 0.86036 0.0
C622 C 0.35035 0.20792 0.83469 0.0
C623 C 0.3774 0.24317 0.86828 0.0
H624 H 0.39916 0.23904 0.90774 0.0
N625 N 0.37603 0.30458 0.83912 0.0
C626 C 0.3824 0.28778 0.85696 0.0
C627 C 0.41117 0.3241 0.88759 0.0
C628 C 0.39984 0.29717 0.88194 0.0
C629 C 0.3881 0.33055 0.84369 0.0
C630 C 0.40549 0.3408 0.86821 0.0
O631 O 0.295 0.3009 0.75394 0.0
O632 O 0.31496 0.26661 0.76301 0.0
O633 O 0.37635 0.30207 0.77464 0.0
O634 O 0.37289 0.26188 0.78248 0.0
O635 O 0.2891 0.28363 0.81902 0.0
O636 O 0.30835 0.25522 0.79471 0.0
O637 O 0.33707 0.3039 0.84049 0.0
O638 O 0.31202 0.33524 0.83288 0.0
O639 O 0.2509 0.30017 0.81776 0.0
O640 O 0.25671 0.34121 0.81189 0.0
O641 O 0.34425 0.32295 0.7795 0.0
O642 O 0.31876 0.34754 0.80136 0.0
C643 C 0.30327 0.27939 0.74536 0.0
C644 C 0.28916 0.25964 0.80836 0.0
C645 C 0.38804 0.2727 0.74006 0.0
C646 C 0.41371 0.27717 0.70108 0.0
C647 C 0.37083 0.24819 0.69393 0.0
C648 C 0.36824 0.25475 0.72201 0.0
C649 C 0.39328 0.2593 0.6835 0.0
C650 C 0.41092 0.28378 0.72958 0.0
C651 C 0.38453 0.28031 0.76954 0.0
C652 C 0.40555 0.27943 0.9003 0.0
C653 C 0.39436 0.25251 0.89349 0.0
H654 H 0.42463 0.3321 0.90659 0.0
C655 C 0.32676 0.32392 0.84954 0.0
C656 C 0.3404 0.3457 0.79102 0.0
C657 C 0.21414 0.31947 0.81711 0.0
C658 C 0.17252 0.3138 0.83559 0.0
C659 C 0.174 0.31532 0.78566 0.0
C660 C 0.20099 0.31851 0.79005 0.0
C661 C 0.15986 0.31297 0.80816 0.0
C662 C 0.19987 0.31721 0.83987 0.0
C663 C 0.24257 0.32201 0.8218 0.0
H664 H 0.35542 0.2343 0.68018 0.0
H665 H 0.35082 0.24576 0.72976 0.0
H666 H 0.39484 0.2535 0.66169 0.0
H667 H 0.42628 0.29771 0.74342 0.0
H668 H 0.16398 0.31467 0.76471 0.0
H669 H 0.21156 0.32022 0.77234 0.0
H670 H 0.13895 0.31083 0.80409 0.0
H671 H 0.21002 0.31764 0.86076 0.0
C672 C 1.01458 0.09912 0.58832 0.0
C673 C 0.0475 0.12744 0.62379 0.0
C674 C 0.04056 0.11042 0.59812 0.0
C675 C 0.02804 0.13256 0.6397 0.0
C676 C 0.99498 0.10458 0.60402 0.0
C677 C 1.00187 0.12116 0.62985 0.0
N678 N 1.00845 0.08318 0.56325 0.0
C679 C 0.98321 0.07281 0.55213 0.0
C680 C 0.969 0.09337 0.59314 0.0
C681 C 0.96309 0.07755 0.567 0.0
Gd682 Gd 0.08309 1.01716 0.54062 0.0
Gd683 Gd 0.04348 0.0761 0.54056 0.0
N684 N 0.05905 0.10458 0.58263 0.0
C685 C 0.0738 0.13888 0.63263 0.0
C686 C 0.08456 0.11668 0.59039 0.0
C687 C 0.09237 0.13367 0.61571 0.0
H688 H 0.09891 0.11287 0.57733 0.0
H689 H 0.11268 0.14277 0.62215 0.0
H690 H 0.03078 0.97401 0.50622 0.0
H691 H 0.97865 0.06109 0.53162 0.0
H692 H 1.01865 0.94307 0.46192 0.0
H693 H 0.07993 0.15201 0.65226 0.0
H694 H 0.03301 0.14547 0.65955 0.0
H695 H 0.14762 0.04092 0.54632 0.0
H696 H 0.95337 0.09707 0.60458 0.0
H697 H 0.94306 0.06914 0.55824 0.0
H698 H 0.09725 0.95246 0.42016 0.0
H699 H 0.98708 0.12549 0.64227 0.0
H700 H 0.17366 1.0107 0.47131 0.0
H701 H 0.18281 0.03866 0.51756 0.0
N702 N 0.11843 1.01587 0.51582 0.0
C703 C 0.11314 0.99968 0.49088 0.0
C704 C 0.14318 0.02933 0.52576 0.0
C705 C 0.15802 1.01194 0.48363 0.0
C706 C 0.16326 0.0278 0.5097 0.0
C707 C 0.13281 0.99739 0.47404 0.0
H708 H 0.14164 0.97855 0.43515 0.0
N709 N 0.06946 0.98764 0.49894 0.0
C710 C 0.08809 0.98483 0.4824 0.0
C711 C 0.05672 0.95257 0.44941 0.0
C712 C 0.08209 0.9675 0.45693 0.0
C713 C 0.04507 0.97221 0.49245 0.0
C714 C 0.03821 0.95477 0.46738 0.0
O715 O 0.05573 0.0629 0.58249 0.0
O716 O 0.09363 0.04773 0.57935 0.0
O717 O 0.07 0.98321 0.56132 0.0
O718 O 0.11062 0.99483 0.55733 0.0
O719 O 0.07951 0.07382 0.52107 0.0
O720 O 0.1083 0.05842 0.54912 0.0
O721 O 0.06525 0.0258 0.49794 0.0
O722 O 0.02952 0.04478 0.50313 0.0
O723 O 0.06097 0.11263 0.52696 0.0
O724 O 1.01944 0.09764 0.51647 0.0
O725 O 0.04375 1.01209 0.55611 0.0
O726 O 1.0165 0.03594 0.53437 0.0
C727 C 0.07705 0.05656 0.59423 0.0
C728 C 0.10278 0.07701 0.5348 0.0
C729 C 0.10011 0.97362 0.59658 0.0
C730 C 0.09727 0.94295 0.63149 0.0
C731 C 0.1229 0.98777 0.64388 0.0
C732 C 0.11633 0.99307 0.6167 0.0
C733 C 0.11362 0.96295 0.65123 0.0
C734 C 0.09049 0.94865 0.60408 0.0
C735 C 0.09324 0.97892 0.56766 0.0
C736 C 0.10152 0.96556 0.43988 0.0
C737 C 0.1268 0.98046 0.44841 0.0
H738 H 0.05132 0.9391 0.42996 0.0
C739 C 0.04347 0.03236 0.48764 0.0
C740 C 1.02055 1.01459 0.54502 0.0
C741 C 0.04138 0.12095 0.48387 0.0
C742 C 0.04848 0.15307 0.45092 0.0
C743 C 0.04266 0.10613 0.43484 0.0
C744 C 0.03992 0.10055 0.46197 0.0
C745 C 0.04681 0.13217 0.42926 0.0
C746 C 0.04606 0.14713 0.47837 0.0
C747 C 0.03939 0.1153 0.51277 0.0
H748 H 0.13554 1.00288 0.65925 0.0
H749 H 0.12413 1.01224 0.61126 0.0
H750 H 0.11977 0.95932 0.67228 0.0
H751 H 0.07769 0.93379 0.58854 0.0
H752 H 0.04134 0.09018 0.41803 0.0
H753 H 0.03679 0.08039 0.46593 0.0
H754 H 0.0481 0.13584 0.40786 0.0
H755 H 0.04793 0.16284 0.49561 0.0
C756 C 0.26404 0.73733 0.82904 0.0
C757 C 0.22998 0.71057 0.79355 0.0
C758 C 0.25418 0.72831 0.80095 0.0
C759 C 0.21515 0.70312 0.8146 0.0
C760 C 0.24968 0.72875 0.85026 0.0
C761 C 0.22495 0.71222 0.84287 0.0
N762 N 0.28833 0.75283 0.83565 0.0
C763 C 0.30026 0.75801 0.86291 0.0
C764 C 0.26102 0.73609 0.87832 0.0
C765 C 0.28659 0.75037 0.88463 0.0
Gd766 Gd 0.3094 0.84287 0.78123 0.0
Gd767 Gd 0.30854 0.76523 0.79693 0.0
N768 N 0.26882 0.73591 0.78086 0.0
C769 C 0.22182 0.70012 0.76527 0.0
C770 C 0.26183 0.7244 0.75356 0.0
C771 C 0.23806 0.70665 0.74528 0.0
H772 H 0.27446 0.72927 0.7382 0.0
H773 H 0.23227 0.69807 0.72351 0.0
H774 H 0.34232 0.87666 0.84174 0.0
H775 H 0.32046 0.76781 0.86813 0.0
H776 H 0.38442 0.90756 0.8583 0.0
H777 H 0.20339 0.68637 0.75878 0.0
H778 H 0.1964 0.68971 0.8093 0.0
H779 H 0.30144 0.83908 0.70949 0.0
H780 H 0.25061 0.7299 0.89519 0.0
H781 H 0.29595 0.7551 0.9062 0.0
H782 H 0.42382 0.91689 0.7748 0.0
H783 H 0.21359 0.70566 0.85892 0.0
H784 H 0.37336 0.87689 0.68683 0.0
H785 H 0.32829 0.85154 0.67332 0.0
N786 N 0.33198 0.85423 0.74375 0.0
C787 C 0.35619 0.86977 0.7517 0.0
C788 C 0.32152 0.84882 0.71599 0.0
C789 C 0.36193 0.87077 0.70298 0.0
C790 C 0.33653 0.85638 0.69526 0.0
C791 C 0.37184 0.87824 0.73143 0.0
H792 H 0.40875 0.90119 0.72474 0.0
N793 N 0.34933 0.87093 0.79944 0.0
C794 C 0.36489 0.87872 0.78013 0.0
C795 C 0.39634 0.9062 0.81722 0.0
C796 C 0.38913 0.89618 0.78871 0.0
C797 C 0.35555 0.88183 0.82701 0.0
C798 C 0.37928 0.89938 0.83635 0.0
O799 O 0.26837 0.77441 0.77997 0.0
O800 O 0.2675 0.8181 0.77353 0.0
O801 O 0.29724 0.87362 0.80711 0.0
O802 O 0.29153 0.87168 0.76188 0.0
O803 O 0.32083 0.78499 0.76047 0.0
O804 O 0.2957 0.81181 0.74439 0.0
O805 O 0.34901 0.83268 0.79837 0.0
O806 O 0.35008 0.78982 0.80728 0.0
O807 O 0.32208 0.73631 0.7697 0.0
O808 O 0.32712 0.73617 0.8147 0.0
O809 O 0.29471 0.82193 0.81556 0.0
O810 O 0.3204 0.79705 0.83413 0.0
C811 C 0.2556 0.79326 0.77382 0.0
C812 C 0.30413 0.78999 0.74087 0.0
C813 C 0.29608 0.91323 0.78849 0.0
C814 C 0.28155 0.95453 0.78767 0.0
C815 C 0.32773 0.9544 0.79456 0.0
C816 C 0.322 0.927 0.79256 0.0
C817 C 0.30764 0.96817 0.7921 0.0
C818 C 0.27594 0.92703 0.78615 0.0
C819 C 0.28924 0.88449 0.78579 0.0
C820 C 0.40505 0.90367 0.76857 0.0
C821 C 0.39647 0.89469 0.74005 0.0
H822 H 0.41476 0.91974 0.82456 0.0
C823 C 0.36186 0.81433 0.80583 0.0
C824 C 0.3103 0.81795 0.83659 0.0
C825 C 0.32481 0.69598 0.78636 0.0
C826 C 0.34155 0.65569 0.782 0.0
C827 C 0.29522 0.65362 0.78168 0.0
C828 C 0.29957 0.68107 0.78499 0.0
C829 C 0.31605 0.64093 0.78018 0.0
C830 C 0.34569 0.68327 0.78491 0.0
C831 C 0.33029 0.72478 0.79043 0.0
H832 H 0.34778 0.96497 0.79784 0.0
H833 H 0.33779 0.91677 0.794 0.0
H834 H 0.31248 0.98945 0.79372 0.0
H835 H 0.2559 0.91628 0.78246 0.0
H836 H 0.27571 0.64216 0.78064 0.0
H837 H 0.28332 0.69051 0.78678 0.0
H838 H 0.3123 0.61963 0.77823 0.0
H839 H 0.36521 0.69489 0.78612 0.0
C840 C 0.54674 0.9751 0.09093 0.0
C841 C 0.55813 0.99406 0.13987 0.0
C842 C 0.55043 0.99654 0.11157 0.0
C843 C 0.56251 0.96977 0.1469 0.0
C844 C 0.55049 0.95047 0.09793 0.0
C845 C 0.5587 0.94801 0.12597 0.0
N846 N 0.53864 0.97811 0.06412 0.0
C847 C 0.53278 0.95695 0.04341 0.0
C848 C 0.54544 0.92894 0.07661 0.0
C849 C 0.53632 0.93216 0.04926 0.0
Gd850 Gd 0.56817 0.07416 0.99977 0.0
Gd851 Gd 0.53412 1.02067 0.05584 0.0
N852 N 0.5459 1.01966 0.10406 0.0
C853 C 0.56087 1.01599 0.1603 0.0
C854 C 0.54804 0.04094 0.124 0.0
C855 C 0.55565 0.03949 0.15232 0.0
H856 H 0.54409 0.05918 0.11831 0.0
H857 H 0.55748 0.05652 0.16797 0.0
H858 H 0.60897 0.04658 0.96337 0.0
H859 H 0.52524 0.95912 0.02227 0.0
H860 H 0.6153 0.03628 0.91405 0.0
H861 H 0.56672 1.0149 0.18226 0.0
H862 H 0.56854 0.96752 0.1685 0.0
H863 H 0.52848 0.11669 0.99972 0.0
H864 H 0.54808 0.9097 0.08113 0.0
H865 H 0.53191 0.91555 0.0327 0.0
H866 H 0.55257 0.07434 0.86221 0.0
H867 H 0.56181 0.92929 0.13173 0.0
H868 H 0.50403 0.12589 0.91469 0.0
H869 H 0.50296 0.13691 0.96553 0.0
N870 N 0.54356 0.09441 0.96865 0.0
C871 C 0.54511 0.0888 0.94096 0.0
C872 C 0.52928 0.11207 0.97765 0.0
C873 C 0.51527 0.11702 0.92964 0.0
C874 C 0.51468 0.12336 0.95832 0.0
C875 C 0.53088 0.09983 0.92064 0.0
H876 H 0.52229 0.10206 0.87623 0.0
N877 N 0.57644 0.06407 0.95344 0.0
C878 C 0.56202 0.07307 0.9331 0.0
C879 C 0.58428 0.0541 0.89774 0.0
C880 C 0.56536 0.06812 0.90465 0.0
C881 C 0.59616 0.052 0.94698 0.0
C882 C 0.60003 0.04637 0.91907 0.0
O883 O 0.5765 0.0365 0.07446 0.0
O884 O 0.57008 0.05376 0.03679 0.0
O885 O 0.60997 0.08781 1.00327 0.0
O886 O 0.58589 0.11473 0.01624 0.0
O887 O 0.5364 0.06536 0.07056 0.0
O888 O 0.55119 0.09198 0.03687 0.0
O889 O 0.52438 0.06176 0.98849 0.0
O890 O 0.53028 0.02945 0.01187 0.0
O891 O 0.49768 0.03241 0.06182 0.0
O892 O 0.49784 0.99193 0.04595 0.0
O893 O 0.57411 0.03124 0.99032 0.0
O894 O 0.55311 1.00254 0.01927 0.0
C895 C 0.58682 0.05184 0.05777 0.0
C896 C 0.54188 0.08857 0.06093 0.0
C897 C 0.62221 0.1325 0.99616 0.0
C898 C 0.64232 0.14516 0.95594 0.0
C899 C 0.63554 0.17877 0.99151 0.0
C900 C 0.62464 0.15921 1.00654 0.0
C901 C 0.64407 0.17181 0.96607 0.0
C902 C 0.63148 0.1256 0.97105 0.0
C903 C 0.60885 0.11224 0.01106 0.0
C904 C 0.55044 0.07813 0.88418 0.0
C905 C 0.53322 0.09394 0.89216 0.0
H906 H 0.58747 0.04992 0.87614 0.0
C907 C 0.51396 0.04193 1.00025 0.0
C908 C 0.56708 1.00746 0.9983 0.0
C909 C 0.46236 0.99881 0.06857 0.0
C910 C 0.43952 1.00037 0.10909 0.0
C911 C 0.42104 0.96876 0.06764 0.0
C912 C 0.44258 0.97787 0.05479 0.0
C913 C 0.41945 0.98001 0.09468 0.0
C914 C 0.46091 1.00993 0.09587 0.0
C915 C 0.4839 1.00864 0.0536 0.0
H916 H 0.63718 0.19933 0.99946 0.0
H917 H 0.61773 0.1649 0.02604 0.0
H918 H 0.65235 0.18717 0.95452 0.0
H919 H 0.62979 0.10507 0.9628 0.0
H920 H 0.40581 0.95265 0.05684 0.0
H921 H 0.44393 0.96847 0.03413 0.0
H922 H 0.40317 0.9721 0.10485 0.0
H923 H 0.47645 0.02566 0.10695 0.0
C924 C 0.37231 0.3527 0.37718 0.0
C925 C 0.41543 0.37083 0.36726 0.0
C926 C 0.38925 0.35831 0.35805 0.0
C927 C 0.42438 0.3771 0.39617 0.0
C928 C 0.38101 0.35948 0.40623 0.0
C929 C 0.4072 0.37145 0.41562 0.0
N930 N 0.3471 0.34142 0.36734 0.0
C931 C 0.32938 0.33699 0.38551 0.0
C932 C 0.36303 0.35445 0.42494 0.0
C933 C 0.33706 0.3433 0.4145 0.0
Gd934 Gd 0.29569 0.27116 0.27302 0.0
Gd935 Gd 0.33598 0.33134 0.31821 0.0
N936 N 0.37984 0.35244 0.33033 0.0
C937 C 0.43168 0.37708 0.34712 0.0
C938 C 0.3954 0.35905 0.31058 0.0
C939 C 0.42157 0.37126 0.31865 0.0
H940 H 0.3877 0.35477 0.28853 0.0
H941 H 0.43388 0.37626 0.30291 0.0
H942 H 0.24752 0.2432 0.30541 0.0
H943 H 0.30931 0.32813 0.37787 0.0
H944 H 0.20088 0.2224 0.29393 0.0
H945 H 0.45192 0.38669 0.35333 0.0
H946 H 0.44445 0.38666 0.40368 0.0
H947 H 0.3177 0.27729 0.21123 0.0
H948 H 0.36892 0.35935 0.44741 0.0
H949 H 0.32295 0.33944 0.42877 0.0
H950 H 0.1821 0.22185 0.19438 0.0
H951 H 0.41426 0.37672 0.43785 0.0
H952 H 0.25303 0.25341 0.14558 0.0
H953 H 0.30003 0.27103 0.16097 0.0
N954 N 0.28096 0.26461 0.22442 0.0
C955 C 0.25528 0.25422 0.21631 0.0
C956 C 0.2971 0.26997 0.20484 0.0
C957 C 0.26065 0.25642 0.16772 0.0
C958 C 0.28718 0.26632 0.17631 0.0
C959 C 0.24438 0.24987 0.18775 0.0
H960 H 0.20904 0.23517 0.15827 0.0
N961 N 0.2517 0.24998 0.26358 0.0
C962 C 0.24016 0.24668 0.23656 0.0
C963 C 0.19934 0.22615 0.24995 0.0
C964 C 0.21364 0.23465 0.22895 0.0
C965 C 0.2381 0.241 0.28403 0.0
C966 C 0.21168 0.22921 0.27759 0.0
O967 O 0.36404 0.30629 0.30027 0.0
O968 O 0.33816 0.27911 0.26244 0.0
O969 O 0.32115 0.24842 0.29247 0.0
O970 O 0.29023 0.22955 0.25804 0.0
O971 O 0.34194 0.33059 0.27274 0.0
O972 O 0.30198 0.30801 0.25111 0.0
O973 O 0.26703 0.29409 0.29198 0.0
O974 O 0.2931 0.32313 0.32845 0.0
O975 O 0.30911 0.35127 0.29661 0.0
O976 O 0.34249 0.37377 0.3265 0.0
O977 O 0.29236 0.27036 0.31984 0.0
O978 O 0.33172 0.29552 0.34051 0.0
C979 C 0.36156 0.2887 0.27744 0.0
C980 C 0.32402 0.32452 0.25061 0.0
C981 C 0.33085 0.21692 0.25917 0.0
C982 C 0.36606 0.19313 0.2602 0.0
C983 C 0.35517 0.21435 0.21976 0.0
C984 C 0.33515 0.22266 0.23227 0.0
C985 C 0.37072 0.19975 0.2337 0.0
C986 C 0.34639 0.20222 0.27305 0.0
C987 C 0.31151 0.22763 0.27374 0.0
C988 C 0.20246 0.23097 0.20064 0.0
C989 C 0.2178 0.23856 0.18008 0.0
H990 H 0.17891 0.21684 0.24498 0.0
C991 C 0.26951 0.31198 0.3144 0.0
C992 C 0.31086 0.2777 0.34164 0.0
C993 C 0.3037 0.38949 0.32329 0.0
C994 C 0.27645 0.42163 0.3195 0.0
C995 C 0.27875 0.39909 0.36062 0.0
C996 C 0.29631 0.38543 0.34957 0.0
C997 C 0.26877 0.41709 0.34565 0.0
C998 C 0.29384 0.4076 0.30836 0.0
C999 C 0.32082 0.37427 0.31062 0.0
H1000 H 0.35851 0.21909 0.19914 0.0
H1001 H 0.32332 0.23384 0.22106 0.0
H1002 H 0.38563 0.19273 0.22332 0.0
H1003 H 0.34301 0.19761 0.29376 0.0
H1004 H 0.27295 0.39578 0.38083 0.0
H1005 H 0.30392 0.37162 0.36141 0.0
H1006 H 0.25554 0.42791 0.3548 0.0
H1007 H 0.29955 0.41063 0.288 0.0
C1008 C 0.52089 0.60834 0.09108 0.0
C1009 C 0.5545 0.63507 0.12689 0.0
C1010 C 0.54701 0.61798 0.10132 0.0
C1011 C 0.53531 0.64192 0.14229 0.0
C1012 C 0.50156 0.61547 0.10626 0.0
C1013 C 0.50892 0.63214 0.13201 0.0
N1014 N 0.51436 0.59231 0.0661 0.0
C1015 C 0.48898 0.58333 0.05461 0.0
C1016 C 0.47542 0.60578 0.09497 0.0
C1017 C 0.46911 0.58975 0.06896 0.0
Gd1018 Gd 0.58061 0.5178 0.04358 0.0
Gd1019 Gd 0.54894 0.58208 0.04423 0.0
N1020 N 0.56513 0.61044 0.08632 0.0
C1021 C 0.58105 0.64483 0.13614 0.0
C1022 C 0.59097 0.62093 0.09445 0.0
C1023 C 0.59934 0.63794 0.11969 0.0
H1024 H 0.60511 0.61581 0.0817 0.0
H1025 H 0.61988 0.64575 0.12642 0.0
H1026 H 0.52223 0.48123 0.01466 0.0
H1027 H 0.48409 0.57137 0.03425 0.0
H1028 H 0.50288 0.45122 0.97106 0.0
H1029 H 0.5876 0.65797 0.15571 0.0
H1030 H 0.54068 0.65492 0.16207 0.0
H1031 H 0.64481 0.53465 0.0405 0.0
H1032 H 0.45999 0.61078 0.10599 0.0
H1033 H 0.44897 0.58245 0.0599 0.0
H1034 H 0.57482 0.44779 0.91996 0.0
H1035 H 0.49435 0.63775 0.14403 0.0
H1036 H 0.65882 0.49795 0.96184 0.0
H1037 H 0.67509 0.52691 1.00698 0.0
N1038 N 0.61147 0.51166 0.01389 0.0
C1039 C 0.60222 0.49495 0.98959 0.0
C1040 C 0.63733 0.52271 0.02049 0.0
C1041 C 0.64536 0.50156 0.97631 0.0
C1042 C 0.6546 0.51801 1.00173 0.0
C1043 C 0.61893 0.48965 0.97003 0.0
H1044 H 0.62137 0.46839 0.92965 0.0
N1045 N 0.56002 0.48914 1.00302 0.0
C1046 C 0.57587 0.48309 0.98415 0.0
C1047 C 0.53909 0.45463 0.95421 0.0
C1048 C 0.5657 0.46597 0.95901 0.0
C1049 C 0.53432 0.47734 0.99902 0.0
C1050 C 0.52339 0.46019 0.97441 0.0
O1051 O 0.55994 0.56931 0.08667 0.0
O1052 O 0.59347 0.54674 0.08384 0.0
O1053 O 0.56637 0.48287 0.0624 0.0
O1054 O 0.60706 0.49362 0.05838 0.0
O1055 O 0.58642 0.57856 0.02719 0.0
O1056 O 0.61003 0.55622 0.05419 0.0
O1057 O 0.56727 0.53116 1.00149 0.0
O1058 O 0.53243 0.55055 0.00772 0.0
O1059 O 0.56893 0.6175 0.03061 0.0
O1060 O 0.52738 0.60482 0.01861 0.0
O1061 O 0.54343 0.51881 0.06205 0.0
O1062 O 0.51872 0.54371 0.03882 0.0
C1063 C 0.57917 0.55966 0.09848 0.0
C1064 C 0.60853 0.57689 0.04143 0.0
C1065 C 0.59621 0.47215 0.09724 0.0
C1066 C 0.59409 0.44125 0.13198 0.0
C1067 C 0.61889 0.4864 0.14459 0.0
C1068 C 0.61209 0.49173 0.11749 0.0
C1069 C 0.61016 0.46141 0.15178 0.0
C1070 C 0.5871 0.44697 0.10458 0.0
C1071 C 0.58936 0.47781 0.06841 0.0
C1072 C 0.5823 0.46084 0.93944 0.0
C1073 C 0.60882 0.47262 0.94494 0.0
H1074 H 0.53053 0.44142 0.93512 0.0
C1075 C 0.54588 0.53851 0.99144 0.0
C1076 C 0.52076 0.52293 0.05151 0.0
C1077 C 0.55207 0.62695 0.98708 0.0
C1078 C 0.56119 0.65922 0.95451 0.0
C1079 C 0.56367 0.61331 0.94157 0.0
C1080 C 0.55703 0.60737 0.96746 0.0
C1081 C 0.56603 0.63902 0.93521 0.0
C1082 C 0.55376 0.65267 0.98041 0.0
C1083 C 0.54832 0.62149 0.01568 0.0
H1084 H 0.63132 0.5016 0.16001 0.0
H1085 H 0.6195 0.51104 0.11218 0.0
H1086 H 0.61654 0.45781 0.17277 0.0
H1087 H 0.57458 0.43198 0.08895 0.0
H1088 H 0.56772 0.59807 0.92667 0.0
H1089 H 0.55655 0.58771 0.97254 0.0
H1090 H 0.57241 0.64306 0.91544 0.0
H1091 H 0.54972 0.66756 0.99573 0.0
C1092 C 0.76797 0.23814 0.32732 0.0
C1093 C 0.73589 0.20939 0.29113 0.0
C1094 C 0.75997 0.22721 0.29925 0.0
C1095 C 0.71942 0.20349 0.31124 0.0
C1096 C 0.75189 0.23109 0.34771 0.0
C1097 C 0.72739 0.21431 0.33943 0.0
N1098 N 0.79202 0.25406 0.33496 0.0
C1099 C 0.80207 0.26093 0.36276 0.0
C1100 C 0.76131 0.24022 0.37602 0.0
C1101 C 0.78667 0.25475 0.38359 0.0
Gd1102 Gd 0.81623 0.33929 0.27553 0.0
Gd1103 Gd 0.81509 0.26335 0.29722 0.0
N1104 N 0.77602 0.23348 0.27993 0.0
C1105 C 0.72938 0.19742 0.26314 0.0
C1106 C 0.7707 0.22042 0.25315 0.0
C1107 C 0.74709 0.20256 0.24421 0.0
H1108 H 0.78446 0.22427 0.23862 0.0
H1109 H 0.74254 0.19283 0.22276 0.0
H1110 H 0.84409 0.37977 0.33419 0.0
H1111 H 0.82211 0.27085 0.36921 0.0
H1112 H 0.88492 0.41253 0.35106 0.0
H1113 H 0.71108 0.1836 0.25613 0.0
H1114 H 0.70076 0.19003 0.30533 0.0
H1115 H 0.81362 0.32789 0.20354 0.0
H1116 H 0.74956 0.23519 0.39227 0.0
H1117 H 0.79456 0.2608 0.40552 0.0
H1118 H 0.93079 0.41397 0.27142 0.0
H1119 H 0.71476 0.20894 0.35481 0.0
H1120 H 0.88738 0.36426 0.18425 0.0
H1121 H 0.84334 0.33692 0.16921 0.0
N1122 N 0.84157 0.34684 0.2391 0.0
C1123 C 0.86504 0.36376 0.24752 0.0
C1124 C 0.83326 0.33846 0.21109 0.0
C1125 C 0.87468 0.35966 0.1998 0.0
C1126 C 0.84988 0.34412 0.19123 0.0
C1127 C 0.8823 0.37028 0.22805 0.0
H1128 H 0.91971 0.39291 0.22239 0.0
N1129 N 0.85437 0.37003 0.2939 0.0
C1130 C 0.87136 0.37602 0.27537 0.0
C1131 C 0.89998 0.40736 0.31182 0.0
C1132 C 0.89494 0.39449 0.28414 0.0
C1133 C 0.85844 0.3836 0.32037 0.0
C1134 C 0.88145 0.40223 0.32984 0.0
O1135 O 0.77558 0.27114 0.2761 0.0
O1136 O 0.7745 0.31519 0.27216 0.0
O1137 O 0.80091 0.37142 0.29539 0.0
O1138 O 0.80172 0.36651 0.25054 0.0
O1139 O 0.82997 0.28234 0.26176 0.0
O1140 O 0.8038 0.30561 0.24093 0.0
O1141 O 0.85555 0.33185 0.29715 0.0
O1142 O 0.85646 0.289 0.30669 0.0
O1143 O 0.83071 0.23352 0.27357 0.0
O1144 O 0.82942 0.23337 0.31802 0.0
O1145 O 0.80171 0.32139 0.3119 0.0
O1146 O 0.82649 0.29652 0.33262 0.0
C1147 C 0.76272 0.29018 0.27113 0.0
C1148 C 0.81408 0.28484 0.24023 0.0
C1149 C 0.76605 0.38114 0.26635 0.0
C1150 C 0.73339 0.40792 0.27057 0.0
C1151 C 0.72108 0.36305 0.24618 0.0
C1152 C 0.74685 0.36036 0.25109 0.0
C1153 C 0.71435 0.3867 0.25571 0.0
C1154 C 0.75921 0.40475 0.27621 0.0
C1155 C 0.79332 0.37865 0.27145 0.0
C1156 C 0.9125 0.39998 0.26499 0.0
C1157 C 0.90621 0.38792 0.23706 0.0
H1158 H 0.91786 0.4217 0.31929 0.0
C1159 C 0.86823 0.31366 0.30547 0.0
C1160 C 0.81725 0.31798 0.33337 0.0
C1161 C 0.86463 0.21963 0.29996 0.0
C1162 C 0.89567 0.19117 0.29369 0.0
C1163 C 0.90978 0.23497 0.32068 0.0
C1164 C 0.88449 0.2391 0.31618 0.0
C1165 C 0.91535 0.21113 0.30977 0.0
C1166 C 0.87034 0.19591 0.28847 0.0
C1167 C 0.8377 0.22333 0.29584 0.0
H1168 H 0.70639 0.34694 0.23445 0.0
H1169 H 0.75173 0.3422 0.24254 0.0
H1170 H 0.69438 0.38859 0.25068 0.0
H1171 H 0.77409 0.4207 0.28802 0.0
H1172 H 0.92499 0.25004 0.33328 0.0
H1173 H 0.88046 0.25726 0.32588 0.0
H1174 H 0.93493 0.20811 0.31481 0.0
H1175 H 0.85491 0.18106 0.27586 0.0
C1176 C 0.0509 0.49568 0.60676 0.0
C1177 C 0.03239 0.51407 0.64608 0.0
C1178 C 0.03631 0.51288 0.61767 0.0
C1179 C 0.04445 0.49894 0.6636 0.0
C1180 C 0.06258 0.48005 0.62419 0.0
C1181 C 0.05956 0.48204 0.65271 0.0
N1182 N 0.05322 0.49379 0.57898 0.0
C1183 C 0.06645 0.47643 0.56715 0.0
C1184 C 0.07665 0.46258 0.61233 0.0
C1185 C 0.0785 0.4607 0.58367 0.0
Gd1186 Gd 0.07058 0.58288 0.51 0.0
Gd1187 Gd 0.03276 0.52133 0.55343 0.0
N1188 N 1.02452 0.52704 0.60016 0.0
C1189 C 1.01565 0.52965 0.65581 0.0
C1190 C 1.00678 0.54081 0.60913 0.0
C1191 C 1.00249 0.54274 0.63714 0.0
H1192 H 0.99567 0.55015 0.59461 0.0
H1193 H 0.98874 0.55401 0.64423 0.0
H1194 H 0.04256 0.5341 0.45533 0.0
H1195 H 0.06799 0.47494 0.54508 0.0
H1196 H 1.02618 0.53073 0.40554 0.0
H1197 H 1.01202 0.53093 0.67743 0.0
H1198 H 0.04176 0.49974 0.68549 0.0
H1199 H 0.07424 0.64501 0.53668 0.0
H1200 H 0.08593 0.45027 0.62504 0.0
H1201 H 0.08919 0.44711 0.57429 0.0
H1202 H 0.02857 0.62006 0.38992 0.0
H1203 H 0.06843 0.47023 0.66642 0.0
H1204 H 0.05413 0.68745 0.46959 0.0
H1205 H 0.06873 0.68684 0.51991 0.0
N1206 N 0.06284 0.62237 0.49629 0.0
C1207 C 0.05477 0.6222 0.46867 0.0
C1208 C 0.06769 0.64508 0.51472 0.0
C1209 C 0.05653 0.66907 0.47685 0.0
C1210 C 0.06469 0.6688 0.50528 0.0
C1211 C 0.05125 0.64556 0.45817 0.0
H1212 H 0.03954 0.66243 0.42107 0.0
N1213 N 0.05179 0.57617 0.46227 0.0
C1214 C 0.04903 0.59838 0.4511 0.0
C1215 C 0.03137 0.57265 0.4059 0.0
C1216 C 0.03898 0.59725 0.42257 0.0
C1217 C 0.04287 0.55202 0.44639 0.0
C1218 C 0.03294 0.54993 0.418 0.0
O1219 O 0.07508 0.5327 0.5737 0.0
O1220 O 0.06971 0.55589 0.54095 0.0
O1221 O 0.10814 0.58801 0.49545 0.0
O1222 O 0.10363 0.61045 0.53434 0.0
O1223 O 0.03324 0.56473 0.5715 0.0
O1224 O 0.05738 0.59874 0.55061 0.0
O1225 O 1.02713 0.57952 0.50367 0.0
O1226 O 0.02851 0.53964 0.51375 0.0
O1227 O 0.99079 0.51416 0.54627 0.0
O1228 O 1.01004 0.48144 0.54056 0.0
O1229 O 0.07561 0.5408 0.49397 0.0
O1230 O 0.05243 0.50697 0.51602 0.0
C1231 C 0.08597 0.55088 0.56053 0.0
C1232 C 0.04313 0.59001 0.56985 0.0
C1233 C 0.13452 0.63092 0.50769 0.0
C1234 C 0.16124 0.65084 0.47515 0.0
C1235 C 0.15089 0.67833 0.51416 0.0
C1236 C 0.13677 0.65601 0.52302 0.0
C1237 C 0.16279 0.67586 0.49001 0.0
C1238 C 0.14749 0.62851 0.4843 0.0
C1239 C 0.11888 0.60709 0.51565 0.0
C1240 C 0.03607 0.62055 0.41182 0.0
C1241 C 0.04226 0.64467 0.42956 0.0
H1242 H 1.02347 0.57093 0.38394 0.0
C1243 C 1.01458 0.55722 0.50947 0.0
C1244 C 0.06735 0.51541 0.49697 0.0
C1245 C 0.96799 0.47304 0.55354 0.0
C1246 C 0.94976 0.46322 0.59575 0.0
C1247 C 0.92526 0.44495 0.55 0.0
C1248 C 0.94556 0.45754 0.53712 0.0
C1249 C 0.92716 0.4481 0.57928 0.0
C1250 C 0.97027 0.47509 0.58274 0.0
C1251 C 0.98786 0.48874 0.54024 0.0
H1252 H 0.15227 0.69762 0.52581 0.0
H1253 H 0.12744 0.65845 0.54159 0.0
H1254 H 0.1731 0.69333 0.48291 0.0
H1255 H 0.1461 0.60925 0.47244 0.0
H1256 H 0.90791 0.43311 0.53728 0.0
H1257 H 0.94364 0.45549 0.51444 0.0
H1258 H 0.91125 0.4387 0.58911 0.0
H1259 H 0.98754 0.48673 0.59546 0.0
C1260 C 0.74726 0.84321 0.23804 0.0
C1261 C 0.72029 0.80483 0.20809 0.0
C1262 C 0.73711 0.81614 0.23305 0.0
C1263 C 0.71384 0.82096 0.18821 0.0
C1264 C 0.74064 0.85944 0.21817 0.0
C1265 C 0.72397 0.84817 0.19324 0.0
N1266 N 0.76365 0.85362 0.26217 0.0
C1267 C 0.77334 0.88008 0.26824 0.0
C1268 C 0.75099 0.88657 0.22396 0.0
C1269 C 0.76729 0.89693 0.24916 0.0
Gd1270 Gd 0.83592 0.7912 0.29403 0.0
Gd1271 Gd 0.77238 0.82349 0.29227 0.0
N1272 N 0.74438 0.8008 0.25221 0.0
C1273 C 0.71053 0.77758 0.20378 0.0
C1274 C 0.73406 0.77444 0.24871 0.0
C1275 C 0.71727 0.76237 0.2243 0.0
H1276 H 0.7387 0.76268 0.26461 0.0
H1277 H 0.70945 0.74137 0.22137 0.0
H1278 H 0.87389 0.84846 0.32509 0.0
H1279 H 0.78533 0.88829 0.28802 0.0
H1280 H 0.90436 0.86557 0.36889 0.0
H1281 H 0.69758 0.76814 0.18485 0.0
H1282 H 0.70101 0.81259 0.16887 0.0
H1283 H 0.82108 0.72532 0.29139 0.0
H1284 H 0.74635 0.89969 0.20923 0.0
H1285 H 0.77506 0.91792 0.25399 0.0
H1286 H 0.90663 0.78921 0.41508 0.0
H1287 H 0.71875 0.86034 0.17771 0.0
H1288 H 0.85732 0.70587 0.36773 0.0
H1289 H 0.82914 0.69208 0.32189 0.0
N1290 N 0.84316 0.75771 0.32045 0.0
C1291 C 0.85939 0.76564 0.34514 0.0
C1292 C 0.83277 0.73163 0.31172 0.0
C1293 C 0.85355 0.72059 0.35462 0.0
C1294 C 0.83758 0.71273 0.32878 0.0
C1295 C 0.86492 0.74727 0.36297 0.0
H1296 H 0.88617 0.74222 0.40235 0.0
N1297 N 0.86515 0.80945 0.33483 0.0
C1298 C 0.87102 0.79217 0.35236 0.0
C1299 C 0.90011 0.82777 0.38365 0.0
C1300 C 0.88834 0.80097 0.37751 0.0
C1301 C 0.87763 0.83528 0.33989 0.0
C1302 C 0.89495 0.84493 0.3646 0.0
O1303 O 0.78648 0.81083 0.25088 0.0
O1304 O 0.80534 0.77508 0.25614 0.0
O1305 O 0.86707 0.80774 0.27157 0.0
O1306 O 0.86163 0.76702 0.278 0.0
O1307 O 0.77744 0.78857 0.314 0.0
O1308 O 0.79746 0.76154 0.28826 0.0
O1309 O 0.82598 0.80797 0.33655 0.0
O1310 O 0.80175 0.84024 0.33094 0.0
O1311 O 0.73866 0.80747 0.31135 0.0
O1312 O 0.74781 0.84905 0.30787 0.0
O1313 O 0.83439 0.82969 0.27675 0.0
O1314 O 0.80976 0.85405 0.30029 0.0
C1315 C 0.79421 0.78972 0.24015 0.0
C1316 C 0.77848 0.76495 0.30266 0.0
C1317 C 0.87841 0.77834 0.23665 0.0
C1318 C 0.90513 0.78297 0.19863 0.0
C1319 C 0.86233 0.75387 0.19027 0.0
C1320 C 0.859 0.76037 0.21813 0.0
C1321 C 0.8851 0.76511 0.18053 0.0
C1322 C 0.90164 0.7895 0.22689 0.0
C1323 C 0.87437 0.78554 0.26601 0.0
C1324 C 0.89348 0.7828 0.39557 0.0
C1325 C 0.8818 0.75604 0.38833 0.0
H1326 H 0.9135 0.83532 0.4028 0.0
C1327 C 0.81625 0.82804 0.34672 0.0
C1328 C 0.831 0.85229 0.28916 0.0
C1329 C 0.72858 0.83664 0.34739 0.0
C1330 C 0.69916 0.83389 0.38309 0.0
C1331 C 0.74395 0.85868 0.39487 0.0
C1332 C 0.74844 0.85224 0.36743 0.0
C1333 C 0.71954 0.84987 0.40262 0.0
C1334 C 0.70412 0.82719 0.35536 0.0
C1335 C 0.73319 0.83044 0.31811 0.0
H1336 H 0.8473 0.73987 0.17618 0.0
H1337 H 0.84132 0.75123 0.22532 0.0
H1338 H 0.88726 0.75936 0.15888 0.0
H1339 H 0.91676 0.80335 0.24112 0.0
H1340 H 0.75934 0.87097 0.41012 0.0
H1341 H 0.76731 0.85975 0.36172 0.0
H1342 H 0.71659 0.85621 0.42383 0.0
H1343 H 0.68906 0.81468 0.33987 0.0
C1344 C 0.89086 0.31634 0.74271 0.0
C1345 C 0.87259 0.30146 0.69395 0.0
C1346 C 0.86982 0.31126 0.72156 0.0
C1347 C 0.89685 0.29707 0.68796 0.0
C1348 C 0.91527 0.31196 0.7368 0.0
C1349 C 0.91814 0.30231 0.70933 0.0
N1350 N 0.88749 0.32559 0.76904 0.0
C1351 C 0.90784 0.33133 0.79041 0.0
C1352 C 0.93612 0.31747 0.75869 0.0
C1353 C 0.93238 0.32724 0.7856 0.0
Gd1354 Gd 0.78677 0.30454 0.82514 0.0
Gd1355 Gd 0.84586 0.33253 0.77508 0.0
N1356 N 0.84657 0.31554 0.72806 0.0
C1357 C 0.85086 0.29623 0.67317 0.0
C1358 C 0.82525 0.31023 0.70785 0.0
C1359 C 0.82708 0.30056 0.6802 0.0
H1360 H 0.8066 0.31281 0.71288 0.0
H1361 H 0.81007 0.29633 0.66435 0.0
H1362 H 0.84028 0.33238 0.87422 0.0
H1363 H 0.90523 0.3393 0.81123 0.0
H1364 H 0.84928 0.35142 0.92364 0.0
H1365 H 0.85218 0.28867 0.65173 0.0
H1366 H 0.89933 0.28957 0.66688 0.0
H1367 H 0.72799 0.31364 0.80176 0.0
H1368 H 0.95517 0.31437 0.755 0.0
H1369 H 0.9484 0.33174 0.80264 0.0
H1370 H 0.76636 0.36341 0.94653 0.0
H1371 H 0.93674 0.29882 0.70441 0.0
H1372 H 0.69573 0.34652 0.87099 0.0
H1373 H 0.69158 0.32953 0.8205 0.0
N1374 N 0.75272 0.32234 0.84073 0.0
C1375 C 0.75556 0.33195 0.86834 0.0
C1376 C 0.73031 0.32182 0.8235 0.0
C1377 C 0.71186 0.33982 0.86273 0.0
C1378 C 0.7095 0.33044 0.8342 0.0
C1379 C 0.7352 0.34098 0.88015 0.0
H1380 H 0.72355 0.35834 0.91817 0.0
N1381 N 0.79913 0.32733 0.8715 0.0
C1382 C 0.77953 0.33444 0.88432 0.0
C1383 C 0.80918 0.35169 0.92712 0.0
C1384 C 0.78395 0.34656 0.91253 0.0
C1385 C 0.82411 0.33455 0.88499 0.0
C1386 C 0.82944 0.34621 0.91305 0.0
O1387 O 0.83303 0.28848 0.76041 0.0
O1388 O 0.80893 0.29928 0.79028 0.0
O1389 O 0.78041 0.26801 0.84333 0.0
O1390 O 0.75254 0.27403 0.80968 0.0
O1391 O 0.8034 0.33422 0.75777 0.0
O1392 O 0.77025 0.31418 0.78213 0.0
O1393 O 0.79587 0.34889 0.82968 0.0
O1394 O 0.83176 0.33991 0.81628 0.0
O1395 O 0.84099 0.36919 0.76022 0.0
O1396 O 0.8752 0.36814 0.78908 0.0
O1397 O 0.82719 0.29465 0.83946 0.0
O1398 O 0.85977 0.31493 0.81429 0.0
C1399 C 0.81439 0.28016 0.77424 0.0
C1400 C 0.77837 0.32628 0.76086 0.0
C1401 C 0.73624 0.24915 0.84406 0.0
C1402 C 0.72109 0.2226 0.87984 0.0
C1403 C 0.69523 0.25208 0.86023 0.0
C1404 C 0.71348 0.2592 0.84262 0.0
C1405 C 0.69924 0.23461 0.87917 0.0
C1406 C 0.73926 0.22996 0.86148 0.0
C1407 C 0.75755 0.25917 0.82853 0.0
C1408 C 0.76339 0.35435 0.92482 0.0
C1409 C 0.73903 0.35154 0.90866 0.0
H1410 H 0.81341 0.36105 0.94875 0.0
C1411 C 0.81826 0.35764 0.822 0.0
C1412 C 0.85194 0.30091 0.83437 0.0
C1413 C 0.87988 0.4008 0.75913 0.0
C1414 C 0.88708 0.42355 0.71879 0.0
C1415 C 0.91773 0.43615 0.7617 0.0
C1416 C 0.90289 0.4168 0.77414 0.0
C1417 C 0.90981 0.43958 0.73413 0.0
C1418 C 0.87217 0.40413 0.73131 0.0
C1419 C 0.86345 0.38224 0.77356 0.0
H1420 H 0.67813 0.26062 0.85966 0.0
H1421 H 0.70979 0.27274 0.82817 0.0
H1422 H 0.68511 0.23122 0.89336 0.0
H1423 H 0.75615 0.22135 0.86055 0.0
H1424 H 0.93539 0.44847 0.77341 0.0
H1425 H 0.90926 0.41448 0.7956 0.0
H1426 H 0.92163 0.45427 0.7245 0.0
H1427 H 0.85445 0.39197 0.71943 0.0
C1428 C 0.88702 0.84917 0.84634 0.0
C1429 C 0.91679 0.86078 0.81302 0.0
C1430 C 0.89124 0.85343 0.81923 0.0
C1431 C 0.93798 0.86373 0.83431 0.0
C1432 C 0.90831 0.85242 0.8678 0.0
C1433 C 0.93375 0.85961 0.8616 0.0
N1434 N 0.86217 0.84206 0.85176 0.0
C1435 C 0.85732 0.83894 0.87839 0.0
C1436 C 0.90341 0.84855 0.89495 0.0
C1437 C 0.8778 0.84195 0.90028 0.0
Gd1438 Gd 0.79399 0.7706 0.7726 0.0
Gd1439 Gd 0.82945 0.83824 0.81338 0.0
N1440 N 0.87037 0.84988 0.79882 0.0
C1441 C 0.9203 0.86497 0.78558 0.0
C1442 C 0.87367 0.85523 0.77243 0.0
C1443 C 0.89863 0.86241 0.76527 0.0
H1444 H 0.85721 0.85431 0.75692 0.0
H1445 H 0.90114 0.86622 0.74416 0.0
H1446 H 0.75988 0.75013 0.8231 0.0
H1447 H 0.8377 0.83502 0.88312 0.0
H1448 H 0.71408 0.73503 0.82919 0.0
H1449 H 0.93962 0.87057 0.77997 0.0
H1450 H 0.95773 0.86932 0.82989 0.0
H1451 H 0.79383 0.77203 0.70292 0.0
H1452 H 0.91924 0.85097 0.912 0.0
H1453 H 0.87382 0.83947 0.92133 0.0
H1454 H 0.6665 0.73344 0.73816 0.0
H1455 H 0.95031 0.86215 0.87783 0.0
H1456 H 0.71489 0.75492 0.66341 0.0
H1457 H 0.76192 0.76703 0.66052 0.0
N1458 N 0.76537 0.76513 0.7303 0.0
C1459 C 0.73965 0.75734 0.73213 0.0
C1460 C 0.77345 0.76786 0.70483 0.0
C1461 C 0.72885 0.75767 0.68229 0.0
C1462 C 0.75536 0.76456 0.68058 0.0
C1463 C 0.72069 0.75356 0.70817 0.0
H1464 H 0.67948 0.74238 0.69251 0.0
N1465 N 0.75106 0.7554 0.78046 0.0
C1466 C 0.73229 0.75198 0.75783 0.0
C1467 C 0.69931 0.73739 0.78638 0.0
C1468 C 0.70587 0.74314 0.76028 0.0
C1469 C 0.74489 0.74862 0.80561 0.0
C1470 C 0.71893 0.7399 0.80906 0.0
O1471 O 0.85494 0.80722 0.80413 0.0
O1472 O 0.83569 0.78376 0.76195 0.0
O1473 O 0.81083 0.73841 0.78603 0.0
O1474 O 0.78518 0.73254 0.74658 0.0
O1475 O 0.80929 0.83818 0.76906 0.0
O1476 O 0.81383 0.79916 0.74648 0.0
O1477 O 0.76492 0.79692 0.7858 0.0
O1478 O 0.78715 0.82839 0.82236 0.0
O1479 O 0.82417 0.87554 0.80033 0.0
O1480 O 0.83728 0.87352 0.84387 0.0
O1481 O 0.80626 0.77053 0.81964 0.0
O1482 O 0.80869 0.81262 0.84161 0.0
C1483 C 0.85694 0.79286 0.78037 0.0
C1484 C 0.81121 0.82348 0.74592 0.0
C1485 C 0.82325 0.71576 0.74678 0.0
C1486 C 0.85811 0.69165 0.74432 0.0
C1487 C 0.8511 0.72128 0.71044 0.0
C1488 C 0.83039 0.72745 0.72328 0.0
C1489 C 0.86508 0.70362 0.721 0.0
C1490 C 0.83714 0.69783 0.75716 0.0
C1491 C 0.80277 0.72383 0.76171 0.0
C1492 C 0.68691 0.7401 0.73664 0.0
C1493 C 0.6943 0.74526 0.71066 0.0
H1494 H 0.67922 0.73061 0.78914 0.0
C1495 C 0.76493 0.81523 0.80726 0.0
C1496 C 0.80563 0.7871 0.84215 0.0
C1497 C 0.80615 0.89929 0.83437 0.0
C1498 C 0.77399 0.92563 0.82335 0.0
C1499 C 0.77195 0.90156 0.86337 0.0
C1500 C 0.79387 0.89209 0.85742 0.0
C1501 C 0.76193 0.9181 0.84638 0.0
C1502 C 0.79628 0.91634 0.81761 0.0
C1503 C 0.82762 0.88724 0.82615 0.0
H1504 H 0.8565 0.73042 0.69244 0.0
H1505 H 0.82029 0.7417 0.71508 0.0
H1506 H 0.88103 0.69898 0.71067 0.0
H1507 H 0.83194 0.68905 0.77549 0.0
H1508 H 0.76252 0.89582 0.88103 0.0
H1509 H 0.80083 0.87873 0.87056 0.0
H1510 H 0.74491 0.92528 0.85145 0.0
H1511 H 0.80544 0.92171 0.79962 0.0
C1512 C 0.51827 0.48241 0.49448 0.0
C1513 C 0.50826 0.44981 0.52581 0.0
C1514 C 0.51511 0.47629 0.52125 0.0
C1515 C 0.5049 0.42955 0.50318 0.0
C1516 C 0.51417 0.46207 0.4716 0.0
C1517 C 0.5078 0.43566 0.47616 0.0
N1518 N 0.52424 0.5082 0.49063 0.0
C1519 C 0.52458 0.51487 0.46419 0.0
C1520 C 0.51597 0.46888 0.44468 0.0
C1521 C 0.52088 0.49539 0.44093 0.0
Gd1522 Gd 0.59962 0.57814 0.56588 0.0
Gd1523 Gd 0.53003 0.53907 0.53145 0.0
N1524 N 0.51887 0.4963 0.54291 0.0
C1525 C 0.5048 0.4445 0.55296 0.0
C1526 C 0.5143 0.4913 0.56911 0.0
C1527 C 0.5076 0.46535 0.57464 0.0
H1528 H 0.51599 0.50728 0.58579 0.0
H1529 H 0.50448 0.46144 0.59558 0.0
H1530 H 0.61919 0.60564 0.51124 0.0
H1531 H 0.52678 0.53512 0.46074 0.0
H1532 H 0.63462 0.65008 0.49902 0.0
H1533 H 0.4996 0.42442 0.55732 0.0
H1534 H 0.49974 0.40908 0.5063 0.0
H1535 H 0.59901 0.58663 0.6366 0.0
H1536 H 0.51288 0.45383 0.42657 0.0
H1537 H 0.52139 0.50084 0.42008 0.0
H1538 H 0.63535 0.70796 0.58364 0.0
H1539 H 0.5047 0.4198 0.45884 0.0
H1540 H 0.61448 0.66911 0.66512 0.0
H1541 H 0.60347 0.62308 0.67459 0.0
N1542 N 0.60413 0.61128 0.60466 0.0
C1543 C 0.61159 0.6365 0.59932 0.0
C1544 C 0.60213 0.6064 0.63154 0.0
C1545 C 0.61168 0.6531 0.64801 0.0
C1546 C 0.60535 0.62715 0.65343 0.0
C1547 C 0.6154 0.65806 0.62085 0.0
H1548 H 0.62646 0.70056 0.63111 0.0
N1549 N 0.61318 0.61962 0.5522 0.0
C1550 C 0.61674 0.64077 0.57252 0.0
C1551 C 0.63168 0.66985 0.5397 0.0
C1552 C 0.62562 0.66652 0.56661 0.0
C1553 C 0.62026 0.62262 0.52642 0.0
C1554 C 0.62935 0.64776 0.51965 0.0
O1555 O 0.55908 0.51187 0.54365 0.0
O1556 O 0.59033 0.53625 0.57887 0.0
O1557 O 0.63353 0.56595 0.55162 0.0
O1558 O 0.63701 0.58946 0.59214 0.0
O1559 O 0.53286 0.55504 0.57775 0.0
O1560 O 0.57568 0.55896 0.5961 0.0
O1561 O 0.57264 0.60603 0.55113 0.0
O1562 O 0.53564 0.58221 0.52241 0.0
O1563 O 0.49622 0.54944 0.5478 0.0
O1564 O 0.49207 0.52799 0.50608 0.0
O1565 O 0.59486 0.55841 0.52077 0.0
O1566 O 0.55385 0.56018 0.5018 0.0
C1567 C 0.57753 0.51296 0.56516 0.0
C1568 C 0.55099 0.5558 0.59898 0.0
C1569 C 0.66004 0.55554 0.58934 0.0
C1570 C 0.69251 0.52842 0.59111 0.0
C1571 C 0.66066 0.52489 0.62344 0.0
C1572 C 0.64972 0.54407 0.61159 0.0
C1573 C 0.68193 0.51702 0.61325 0.0
C1574 C 0.68144 0.54773 0.57925 0.0
C1575 C 0.64789 0.57478 0.57583 0.0
C1576 C 0.62865 0.68801 0.58781 0.0
C1577 C 0.62355 0.6838 0.61484 0.0
H1578 H 0.63865 0.68931 0.53437 0.0
C1579 C 0.55086 0.60509 0.53403 0.0
C1580 C 0.57848 0.56148 0.49951 0.0
C1581 C 0.47043 0.56317 0.51172 0.0
C1582 C 0.44483 0.59716 0.51672 0.0
C1583 C 0.4688 0.59329 0.47712 0.0
C1584 C 0.47786 0.5722 0.48697 0.0
C1585 C 0.45235 0.60567 0.49179 0.0
C1586 C 0.45399 0.57578 0.52654 0.0
C1587 C 0.48173 0.54234 0.52341 0.0
H1588 H 0.65258 0.51605 0.64049 0.0
H1589 H 0.6331 0.5498 0.6197 0.0
H1590 H 0.69023 0.50216 0.62279 0.0
H1591 H 0.68906 0.55625 0.56175 0.0
H1592 H 0.4746 0.6001 0.45807 0.0
H1593 H 0.49101 0.56328 0.47541 0.0
H1594 H 0.44524 0.6217 0.48334 0.0
H1595 H 0.44887 0.5693 0.54601 0.0
C1596 C 0.11493 0.59618 0.99615 0.0
C1597 C 0.14407 0.63267 0.02669 0.0
C1598 C 0.12565 0.60872 0.02295 0.0
C1599 C 0.15078 0.64434 1.00311 0.0
C1600 C 0.12229 0.60737 0.9724 0.0
C1601 C 0.13988 0.63175 0.97604 0.0
N1602 N 0.09844 0.57234 0.9933 0.0
C1603 C 0.08999 0.55786 0.96751 0.0
C1604 C 0.11232 0.59333 0.94573 0.0
C1605 C 0.09636 0.56831 0.94329 0.0
Gd1606 Gd 1.02165 0.55422 0.06586 0.0
Gd1607 Gd 0.08816 0.55705 0.03501 0.0
N1608 N 0.11842 0.5972 0.0454 0.0
C1609 C 0.15544 0.64396 0.05403 0.0
C1610 C 0.13071 0.60713 0.07191 0.0
C1611 C 0.14898 0.63094 0.07669 0.0
H1612 H 0.12615 0.5968 0.0893 0.0
H1613 H 0.1582 0.63913 0.09781 0.0
H1614 H 0.98606 0.52989 1.00249 0.0
H1615 H 0.07878 0.53801 0.96572 0.0
H1616 H 0.9556 0.48892 0.98053 0.0
H1617 H 0.16964 0.66238 0.05779 0.0
H1618 H 0.16471 0.66288 1.00557 0.0
H1619 H 0.04157 0.54494 0.13192 0.0
H1620 H 0.11748 0.60127 0.92695 0.0
H1621 H 0.08928 0.55692 0.92282 0.0
H1622 H 0.94841 0.43564 0.05474 0.0
H1623 H 0.14563 0.64075 0.95804 0.0
H1624 H 0.99963 0.46947 0.14423 0.0
H1625 H 0.0317 0.51073 0.1625 0.0
N1626 N 1.01606 0.52281 0.09641 0.0
C1627 C 0.99785 0.50052 0.08602 0.0
C1628 C 0.02801 0.52677 0.12351 0.0
C1629 C 1.00398 0.48434 0.13063 0.0
C1630 C 1.02222 0.50756 0.14098 0.0
C1631 C 0.9916 0.48054 0.10285 0.0
H1632 H 0.96853 0.44174 0.10403 0.0
N1633 N 0.99325 0.51634 0.04174 0.0
C1634 C 0.98634 0.49711 0.05794 0.0
C1635 C 0.95764 0.47058 0.01815 0.0
C1636 C 0.96849 0.47359 0.0464 0.0
C1637 C 0.98202 0.51392 0.01454 0.0
C1638 C 0.96433 0.49088 1.00222 0.0
O1639 O 0.08001 0.59869 0.04719 0.0
O1640 O 0.043 0.59783 0.06901 0.0
O1641 O 0.9837 0.5647 0.05625 0.0
O1642 O 1.00183 0.56689 0.09983 0.0
O1643 O 0.08392 0.5509 0.07978 0.0
O1644 O 0.05579 0.57428 0.0967 0.0
O1645 O 0.0394 0.51623 0.05897 0.0
O1646 O 0.05871 0.51842 0.01932 0.0
O1647 O 0.11268 0.53571 0.05862 0.0
O1648 O 0.11949 0.54338 0.01687 0.0
O1649 O 1.02435 0.5692 0.02469 0.0
O1650 O 0.05125 0.54571 1.00406 0.0
C1651 C 0.06378 0.61098 0.05986 0.0
C1652 C 0.07848 0.56796 0.09891 0.0
C1653 C 0.95998 0.5794 0.09358 0.0
C1654 C 0.92275 0.60046 0.08769 0.0
C1655 C 0.93734 0.58899 0.13314 0.0
C1656 C 0.9571 0.57888 0.12201 0.0
C1657 C 0.92034 0.59987 0.11614 0.0
C1658 C 0.94247 0.59001 0.07629 0.0
C1659 C 0.98221 0.57038 0.08287 0.0
C1660 C 0.96212 0.4538 0.06328 0.0
C1661 C 0.97357 0.45729 0.09139 0.0
H1662 H 0.94388 0.45278 0.00851 0.0
C1663 C 0.0461 0.50403 0.03609 0.0
C1664 C 0.03297 0.5595 1.00243 0.0
C1665 C 0.13032 0.50503 0.03136 0.0
C1666 C 0.15942 0.47407 0.03383 0.0
C1667 C 0.11637 0.46083 1.00607 0.0
C1668 C 0.11158 0.48586 0.01343 0.0
C1669 C 0.14016 0.45497 0.01599 0.0
C1670 C 0.15402 0.49904 0.04175 0.0
C1671 C 0.12606 0.53181 0.03817 0.0
H1672 H 0.93534 0.58857 0.15507 0.0
H1673 H 0.97027 0.57084 0.13576 0.0
H1674 H 0.90518 0.60779 0.12515 0.0
H1675 H 0.9445 0.59073 0.05437 0.0
H1676 H 0.10187 0.44612 0.9921 0.0
H1677 H 0.09354 0.49049 1.00472 0.0
H1678 H 0.14369 0.43572 0.00893 0.0
H1679 H 0.16833 0.51402 0.05569 0.0
H1680 H 0.03541 0.22691 0.04369 0.0
H1681 H 0.0304 0.21207 0.95372 0.0
H1682 H 0.03811 0.16762 0.95701 0.0
H1683 H 0.04603 0.1314 0.98541 0.0
H1684 H 0.05472 0.14804 0.0756 0.0
H1685 H 0.0463 0.19204 0.07211 0.0
C1686 C 0.036 0.2141 0.02466 0.0
C1687 C 0.03192 0.22371 0.99828 0.0
C1688 C 0.04123 0.18817 0.02674 0.0
C1689 C 0.0333 0.20608 0.97433 0.0
C1690 C 0.03772 0.18026 0.97623 0.0
C1691 C 0.04604 0.14452 1.00441 0.0
C1692 C 0.05087 0.13534 0.03093 0.0
C1693 C 0.04164 0.1708 1.0023 0.0
C1694 C 0.05109 0.15363 0.05488 0.0
C1695 C 0.04616 0.17918 0.05288 0.0
H1696 H 0.19823 0.83424 0.14575 0.0
H1697 H 0.14059 0.8275 0.20198 0.0
H1698 H 0.17367 0.82471 0.24049 0.0
H1699 H 0.21919 0.82354 0.2587 0.0
H1700 H 0.27696 0.83094 0.2028 0.0
H1701 H 0.24415 0.83468 0.16456 0.0
C1702 C 0.19283 0.83232 0.16643 0.0
C1703 C 0.16653 0.83108 0.1705 0.0
C1704 C 0.21221 0.83082 0.18891 0.0
C1705 C 0.16039 0.8286 0.19778 0.0
C1706 C 0.17942 0.82694 0.22001 0.0
C1707 C 0.22462 0.82552 0.23812 0.0
C1708 C 0.25078 0.82608 0.23395 0.0
C1709 C 0.20541 0.82782 0.21588 0.0
C1710 C 0.25723 0.83003 0.20708 0.0
C1711 C 0.23831 0.83217 0.18495 0.0
H1712 H 0.53902 0.88936 0.46684 0.0
H1713 H 0.50955 0.86353 0.5404 0.0
H1714 H 0.51273 0.90983 0.56035 0.0
H1715 H 0.52523 0.95901 0.55753 0.0
H1716 H 0.55629 0.98278 0.48375 0.0
H1717 H 0.55111 0.93685 0.46392 0.0
C1718 C 0.53318 0.89357 0.4873 0.0
C1719 C 0.52397 0.87213 0.50181 0.0
C1720 C 0.53543 0.9205 0.4989 0.0
C1721 C 0.51674 0.87895 0.5284 0.0
C1722 C 0.51858 0.90572 0.5399 0.0
C1723 C 0.53066 0.95422 0.537 0.0
C1724 C 0.54126 0.97525 0.52241 0.0
C1725 C 0.52804 0.92691 0.52546 0.0
C1726 C 0.5483 0.9678 0.4959 0.0
C1727 C 0.5453 0.9412 0.48436 0.0
H1728 H 0.50294 0.31588 0.62909 0.0
H1729 H 0.55042 0.30046 0.70147 0.0
H1730 H 0.51207 0.28907 0.72445 0.0
H1731 H 0.46456 0.28171 0.72363 0.0
H1732 H 0.41685 0.29699 0.65144 0.0
H1733 H 0.45544 0.31029 0.62913 0.0
C1734 C 0.50488 0.31004 0.64988 0.0
C1735 C 0.52965 0.30893 0.66335 0.0
C1736 C 0.48258 0.30349 0.66319 0.0
C1737 C 0.5317 0.30146 0.69043 0.0
C1738 C 0.50971 0.29494 0.7037 0.0
C1739 C 0.46265 0.28834 0.70321 0.0
C1740 C 0.43774 0.28817 0.68924 0.0
C1741 C 0.485 0.29573 0.69028 0.0
C1742 C 0.43571 0.2966 0.6626 0.0
C1743 C 0.45781 0.30423 0.64978 0.0
H1744 H 0.0639 0.82282 0.64846 0.0
H1745 H 0.05868 0.8592 0.73156 0.0
H1746 H 0.0714 0.90279 0.71764 0.0
H1747 H 0.08338 0.93067 0.68187 0.0
H1748 H 0.09033 0.89459 0.59914 0.0
H1749 H 0.0768 0.85098 0.61269 0.0
C1750 C 0.06568 0.84029 0.66356 0.0
C1751 C 0.06039 0.83769 0.69106 0.0
C1752 C 0.07298 0.86542 0.65538 0.0
C1753 C 0.06269 0.86057 0.7103 0.0
C1754 C 0.0699 0.88555 0.70232 0.0
C1755 C 0.08228 0.91334 0.66681 0.0
C1756 C 0.08801 0.91618 0.63947 0.0
C1757 C 0.07503 0.88823 0.67492 0.0
C1758 C 0.08573 0.89326 0.62019 0.0
C1759 C 0.07822 0.8682 0.62801 0.0
H1760 H 0.47657 0.86009 0.8728 0.0
H1761 H 0.49852 0.80879 0.80787 0.0
H1762 H 0.45273 0.79601 0.78567 0.0
H1763 H 0.40502 0.79771 0.78595 0.0
H1764 H 0.38487 0.84906 0.8521 0.0
H1765 H 0.43067 0.86331 0.87208 0.0
C1766 C 0.47165 0.84627 0.85357 0.0
C1767 C 0.4918 0.83565 0.84228 0.0
C1768 C 0.44506 0.83884 0.841 0.0
C1769 C 0.48416 0.81777 0.81721 0.0
C1770 C 0.45767 0.81023 0.80458 0.0
C1771 C 0.41067 0.81216 0.80465 0.0
C1772 C 0.39093 0.82272 0.81699 0.0
C1773 C 0.43771 0.82031 0.81644 0.0
C1774 C 0.39914 0.8412 0.8414 0.0
C1775 C 0.42555 0.84918 0.8531 0.0
H1776 H 0.54009 0.20586 0.11121 0.0
H1777 H 0.53355 0.17325 0.18848 0.0
H1778 H 0.53047 0.12877 0.16283 0.0
H1779 H 0.53318 0.09941 0.11795 0.0
H1780 H 0.54447 0.13663 0.04373 0.0
H1781 H 0.5423 0.1783 0.06867 0.0
C1782 C 0.53783 0.18917 0.1228 0.0
C1783 C 0.53716 0.19346 0.15211 0.0
C1784 C 0.53717 0.16402 0.1082 0.0
C1785 C 0.53389 0.17101 0.16605 0.0
C1786 C 0.53244 0.14546 0.15129 0.0
C1787 C 0.53505 0.11649 0.10711 0.0
C1788 C 0.53879 0.11387 0.07824 0.0
C1789 C 0.53463 0.14168 0.12227 0.0
C1790 C 0.54121 0.13695 0.06532 0.0
C1791 C 0.54011 0.16129 0.07977 0.0
H1792 H 0.17857 0.34796 0.38009 0.0
H1793 H 0.13089 0.31265 0.30172 0.0
H1794 H 0.16905 0.30139 0.28314 0.0
H1795 H 0.21695 0.30112 0.28838 0.0
H1796 H 0.26469 0.3373 0.36646 0.0
H1797 H 0.22659 0.34839 0.38502 0.0
C1798 C 0.17635 0.33787 0.35886 0.0
C1799 C 0.15098 0.33139 0.34262 0.0
C1800 C 0.19897 0.33147 0.34788 0.0
C1801 C 0.14949 0.31822 0.31511 0.0
C1802 C 0.17162 0.31164 0.30433 0.0
C1803 C 0.21923 0.31145 0.30951 0.0
C1804 C 0.24468 0.31836 0.32559 0.0
C1805 C 0.19663 0.31807 0.32039 0.0
C1806 C 0.24617 0.33177 0.35298 0.0
C1807 C 0.22401 0.33812 0.36384 0.0
H1808 H 0.98265 0.03664 0.19602 0.0
H1809 H 0.05025 1.00658 0.22467 0.0
H1810 H 0.06798 1.01477 0.18181 0.0
H1811 H 0.06509 0.03062 0.13645 0.0
H1812 H 0.99805 0.06047 0.10622 0.0
H1813 H 0.97938 0.05201 0.14915 0.0
C1814 C 1.00123 0.03183 0.19288 0.0
C1815 C 1.01498 1.02097 0.21386 0.0
C1816 C 1.01152 0.03655 0.16782 0.0
C1817 C 0.03905 1.01489 0.20916 0.0
C1818 C 0.04933 1.0196 0.18455 0.0
C1819 C 0.04642 0.03543 0.1392 0.0
C1820 C 0.0332 0.04648 0.11818 0.0
C1821 C 0.03583 0.03048 0.16381 0.0
C1822 C 1.00879 0.05208 0.12206 0.0
C1823 C 0.99811 0.04726 0.14666 0.0
H1824 H 0.23873 0.6866 0.4924 0.0
H1825 H 0.28492 0.63404 0.45925 0.0
H1826 H 0.27316 0.64414 0.41189 0.0
H1827 H 0.25047 0.66879 0.38026 0.0
H1828 H 0.20259 0.71953 0.41322 0.0
H1829 H 0.21408 0.70914 0.46051 0.0
C1830 C 0.24617 0.67735 0.47478 0.0
C1831 C 0.26282 0.65984 0.47915 0.0
C1832 C 0.23903 0.68293 0.44773 0.0
C1833 C 0.27202 0.64758 0.45622 0.0
C1834 C 0.26547 0.65348 0.42925 0.0
C1835 C 0.24256 0.67743 0.39789 0.0
C1836 C 0.22584 0.69488 0.39358 0.0
C1837 C 0.24908 0.67121 0.42481 0.0
C1838 C 0.21538 0.70589 0.41626 0.0
C1839 C 0.22206 0.7001 0.44321 0.0
H1840 H 0.65105 0.11537 0.70695 0.0
H1841 H 0.67465 0.04072 0.69902 0.0
H1842 H 0.64718 0.0276 0.653 0.0
H1843 H 0.61077 0.03498 0.61973 0.0
H1844 H 0.58504 0.10845 0.63203 0.0
H1845 H 0.6188 0.12448 0.67205 0.0
C1846 C 0.65049 0.09638 0.69487 0.0
C1847 C 0.66421 0.07875 0.70624 0.0
C1848 C 0.63397 0.08873 0.66956 0.0
C1849 C 0.66399 0.05446 0.69046 0.0
C1850 C 0.64813 0.04693 0.66442 0.0
C1851 C 0.61321 0.05477 0.63072 0.0
C1852 C 0.59589 0.07078 0.62284 0.0
C1853 C 0.63217 0.0635 0.6544 0.0
C1854 C 0.59834 0.09596 0.63775 0.0
C1855 C 0.61762 0.10513 0.66056 0.0
H1856 H 0.34228 0.34592 0.98301 0.0
H1857 H 0.32262 0.41917 0.96418 0.0
H1858 H 0.32021 0.40501 0.91434 0.0
H1859 H 0.32155 0.37135 0.87546 0.0
H1860 H 0.34221 0.29828 0.89293 0.0
H1861 H 0.34668 0.31294 0.94336 0.0
C1862 C 0.33769 0.35882 0.968 0.0
C1863 C 0.33239 0.3835 0.97759 0.0
C1864 C 0.33646 0.35061 0.93887 0.0
C1865 C 0.32664 0.4 0.95767 0.0
C1866 C 0.32521 0.39193 0.92898 0.0
C1867 C 0.32714 0.35862 0.89025 0.0
C1868 C 0.3314 0.33369 0.88024 0.0
C1869 C 0.32971 0.36717 0.91928 0.0
C1870 C 0.33892 0.31766 0.89989 0.0
C1871 C 0.34135 0.32598 0.92884 0.0
H1872 H 1.02649 1.0186 0.3546 0.0
H1873 H 0.94988 0.02824 0.36964 0.0
H1874 H 0.96235 0.02983 0.41986 0.0
H1875 H 0.99539 0.03079 0.45991 0.0
H1876 H 0.07246 0.0222 0.44588 0.0
H1877 H 0.05933 1.01738 0.39517 0.0
C1878 C 1.01249 1.02079 0.36887 0.0
C1879 C 0.98732 0.02343 0.35826 0.0
C1880 C 1.01984 0.02184 0.39802 0.0
C1881 C 0.96942 0.02626 0.37711 0.0
C1882 C 0.97652 0.0272 0.40593 0.0
C1883 C 1.0093 0.02766 0.44579 0.0
C1884 C 0.03488 0.02682 0.45681 0.0
C1885 C 1.00175 0.02536 0.41666 0.0
C1886 C 0.05256 0.02263 0.43808 0.0
C1887 C 0.04511 1.0201 0.40901 0.0
H1888 H 0.25427 0.7289 0.62241 0.0
H1889 H 0.31776 0.68883 0.63616 0.0
H1890 H 0.33163 0.71494 0.68278 0.0
H1891 H 0.32671 0.75101 0.7184 0.0
H1892 H 0.26245 0.78995 0.70314 0.0
H1893 H 0.2481 0.76255 0.65802 0.0
C1894 C 0.27119 0.72582 0.63553 0.0
C1895 C 0.28517 0.70725 0.62574 0.0
C1896 C 0.279 0.74082 0.66192 0.0
C1897 C 0.3067 0.70311 0.64326 0.0
C1898 C 0.31469 0.71809 0.66981 0.0
C1899 C 0.30946 0.75326 0.70526 0.0
C1900 C 0.2957 0.77249 0.71405 0.0
C1901 C 0.30116 0.73728 0.6792 0.0
C1902 C 0.27352 0.77543 0.69676 0.0
C1903 C 0.2652 0.75971 0.67099 0.0
H1904 H 0.67239 0.12428 0.83563 0.0
H1905 H 0.7268 0.08584 0.87936 0.0
H1906 H 0.71033 0.09716 0.92354 0.0
H1907 H 0.67892 0.11647 0.94879 0.0
H1908 H 0.62719 0.15757 0.90473 0.0
H1909 H 0.64375 0.14609 0.86091 0.0
C1910 C 0.68069 0.11834 0.85475 0.0
C1911 C 0.70042 0.1039 0.85431 0.0
C1912 C 0.6713 0.12502 0.8797 0.0
C1913 C 0.71151 0.09695 0.87937 0.0
C1914 C 0.70196 0.10321 0.90446 0.0
C1915 C 0.67122 0.12263 0.92944 0.0
C1916 C 0.65181 0.13759 0.92959 0.0
C1917 C 0.68152 0.11683 0.9047 0.0
C1918 C 0.64216 0.14606 0.90481 0.0
C1919 C 0.65165 0.13957 0.87992 0.0
H1920 H 0.36917 0.35793 0.14121 0.0
H1921 H 0.29192 0.37173 0.12097 0.0
H1922 H 0.28019 0.35698 0.16489 0.0
H1923 H 0.2918 0.33937 0.20927 0.0
H1924 H 0.37065 0.33076 0.23159 0.0
H1925 H 0.38175 0.34399 0.18703 0.0
C1926 C 0.34979 0.35776 0.14646 0.0
C1927 C 0.33141 0.36575 0.12764 0.0
C1928 C 0.34342 0.35004 0.17226 0.0
C1929 C 0.30649 0.36576 0.13503 0.0
C1930 C 0.29973 0.35721 0.16015 0.0
C1931 C 0.31141 0.34051 0.20436 0.0
C1932 C 0.33031 0.33387 0.22373 0.0
C1933 C 0.31799 0.34919 0.17895 0.0
C1934 C 0.35572 0.33574 0.21715 0.0
C1935 C 0.36209 0.34329 0.19158 0.0
H1936 H 0.25539 0.96461 0.03895 0.0
H1937 H 0.32457 0.02614 0.05014 0.0
H1938 H 0.30092 0.05792 0.0694 0.0
H1939 H 0.26098 0.06831 0.08375 0.0
H1940 H 0.19172 1.00717 0.07362 0.0
H1941 H 0.21485 0.97533 0.05276 0.0
C1942 C 0.26525 0.98496 0.04566 0.0
C1943 C 0.29171 0.99294 0.04329 0.0
C1944 C 0.25152 1.00326 0.05675 0.0
C1945 C 0.30422 1.01942 0.05184 0.0
C1946 C 0.29073 0.03766 0.06285 0.0
C1947 C 0.251 0.04797 0.07717 0.0
C1948 C 0.22478 0.04009 0.0804 0.0
C1949 C 0.26445 0.02978 0.06555 0.0
C1950 C 0.2119 1.01379 0.07117 0.0
C1951 C 0.22515 0.99553 0.05942 0.0
H1952 H 0.72039 0.64722 0.04107 0.0
H1953 H 0.67546 0.68745 0.98714 0.0
H1954 H 0.6358 0.65567 0.99046 0.0
H1955 H 0.61373 0.61715 0.00958 0.0
H1956 H 0.65825 0.579 0.06645 0.0
H1957 H 0.69813 0.60911 0.06089 0.0
C1958 C 0.70197 0.64888 0.02978 0.0
C1959 C 0.701 0.66964 0.01368 0.0
C1960 C 0.6791 0.63094 0.0324 0.0
C1961 C 0.67683 0.6717 0.99963 0.0
C1962 C 0.65412 0.65354 1.00156 0.0
C1963 C 0.63209 0.6154 0.02089 0.0
C1964 C 0.63284 0.59553 0.03826 0.0
C1965 C 0.65497 0.63322 0.0181 0.0
C1966 C 0.65698 0.59375 0.05264 0.0
C1967 C 0.67986 0.61108 0.04955 0.0
H1968 H 0.71768 0.52469 0.29306 0.0
H1969 H 0.64471 0.48449 0.3139 0.0
H1970 H 0.6578 0.44225 0.30531 0.0
H1971 H 0.68964 0.41677 0.2911 0.0
H1972 H 0.76177 0.45703 0.26832 0.0
H1973 H 0.7496 0.49931 0.27927 0.0
C1974 C 0.70463 0.50669 0.29572 0.0
C1975 C 0.68023 0.50767 0.30394 0.0
C1976 C 0.71222 0.48253 0.29067 0.0
C1977 C 0.66357 0.48422 0.30744 0.0
C1978 C 0.67105 0.46007 0.30259 0.0
C1979 C 0.70263 0.43478 0.28835 0.0
C1980 C 0.72655 0.43367 0.27884 0.0
C1981 C 0.69526 0.459 0.29403 0.0
C1982 C 0.74339 0.45727 0.27598 0.0
C1983 C 0.73636 0.48147 0.28197 0.0
H1984 H 0.90002 0.50658 0.51577 0.0
H1985 H 0.9154 0.45331 0.44783 0.0
H1986 H 0.95596 0.48351 0.44519 0.0
H1987 H 0.99017 0.52075 0.46743 0.0
H1988 H 0.97684 0.57327 0.53677 0.0
H1989 H 0.93197 0.54814 0.53326 0.0
C1990 C 0.91191 0.50195 0.4999 0.0
C1991 C 0.90497 0.47753 0.48236 0.0
C1992 C 0.93558 0.51922 0.49887 0.0
C1993 C 0.92055 0.47178 0.46189 0.0
C1994 C 0.94374 0.48903 0.46034 0.0
C1995 C 0.97703 0.52716 0.48106 0.0
C1996 C 0.9864 0.54857 0.50229 0.0
C1997 C 0.9519 0.51218 0.47947 0.0
C1998 C 0.96964 0.55692 0.52008 0.0
C1999 C 0.94421 0.54234 0.51828 0.0
H2000 H 0.43535 0.11499 0.29988 0.0
H2001 H 0.35958 0.0715 0.30957 0.0
H2002 H 0.33995 0.10776 0.29707 0.0
H2003 H 0.34358 0.15004 0.2801 0.0
H2004 H 0.41831 0.19357 0.26782 0.0
H2005 H 0.43922 0.15907 0.28469 0.0
C2006 C 0.41461 0.11364 0.29944 0.0
C2007 C 0.39889 0.09061 0.30534 0.0
C2008 C 0.40329 0.13444 0.2917 0.0
C2009 C 0.37203 0.08896 0.30474 0.0
C2010 C 0.36077 0.10968 0.29768 0.0
C2011 C 0.36452 0.15223 0.28166 0.0
C2012 C 0.37947 0.17419 0.27292 0.0
C2013 C 0.37613 0.13226 0.29068 0.0
C2014 C 0.40649 0.17663 0.2744 0.0
C2015 C 0.41838 0.15697 0.284 0.0
H2016 H 0.37285 0.20527 0.5282 0.0
H2017 H 0.3241 0.14555 0.56427 0.0
H2018 H 0.36003 0.12338 0.57287 0.0
H2019 H 0.40575 0.12158 0.57196 0.0
H2020 H 0.45551 0.18167 0.53784 0.0
H2021 H 0.41879 0.20271 0.52612 0.0
C2022 C 0.37019 0.18749 0.53805 0.0
C2023 C 0.34587 0.17723 0.54571 0.0
C2024 C 0.39104 0.17467 0.54296 0.0
C2025 C 0.34263 0.15399 0.55821 0.0
C2026 C 0.36315 0.14117 0.56308 0.0
C2027 C 0.40835 0.13896 0.5614 0.0
C2028 C 0.43308 0.14998 0.5555 0.0
C2029 C 0.38743 0.15133 0.5556 0.0
C2030 C 0.43648 0.17283 0.5424 0.0
C2031 C 0.41557 0.18493 0.5359 0.0
H2032 H 0.68745 0.68592 0.34109 0.0
H2033 H 0.71958 0.6287 0.29287 0.0
H2034 H 0.75367 0.66377 0.28286 0.0
H2035 H 0.77307 0.71144 0.28572 0.0
H2036 H 0.74196 0.76745 0.33732 0.0
H2037 H 0.70901 0.73239 0.34763 0.0
C2038 C 0.70201 0.68109 0.32855 0.0
C2039 C 0.70079 0.65474 0.31765 0.0
C2040 C 0.72175 0.70129 0.32312 0.0
C2041 C 0.72005 0.64883 0.30167 0.0
C2042 C 0.73951 0.66891 0.29577 0.0
C2043 C 0.75928 0.71593 0.29943 0.0
C2044 C 0.75992 0.74233 0.31013 0.0
C2045 C 0.7404 0.69534 0.30608 0.0
C2046 C 0.74182 0.74757 0.32805 0.0
C2047 C 0.72288 0.72743 0.33422 0.0
H2048 H 0.8739 0.47197 0.81303 0.0
H2049 H 0.93593 0.44661 0.86177 0.0
H2050 H 0.90575 0.40677 0.86784 0.0
H2051 H 0.86381 0.3766 0.85363 0.0
H2052 H 0.8023 0.39989 0.80248 0.0
H2053 H 0.83007 0.44365 0.80351 0.0
C2054 C 0.88073 0.458 0.82546 0.0
C2055 C 0.90724 0.46204 0.83656 0.0
C2056 C 0.86339 0.43486 0.82835 0.0
C2057 C 0.91574 0.44378 0.85267 0.0
C2058 C 0.89849 0.42103 0.85619 0.0
C2059 C 0.85635 0.39158 0.84331 0.0
C2060 C 0.8314 0.38534 0.82776 0.0
C2061 C 0.8726 0.416 0.8433 0.0
C2062 C 0.82154 0.40459 0.81459 0.0
C2063 C 0.83749 0.42938 0.81498 0.0
H2064 H 0.07057 0.88534 0.06326 0.0
H2065 H 0.11248 0.91773 0.14539 0.0
H2066 H 0.11063 0.96216 0.13559 0.0
H2067 H 0.09646 0.99335 0.10448 0.0
H2068 H 0.05302 0.96184 0.02294 0.0
H2069 H 0.05593 0.91715 0.03177 0.0
C2070 C 0.07968 0.90205 0.07895 0.0
C2071 C 0.09214 0.89726 0.10523 0.0
C2072 C 0.07802 0.92846 0.07335 0.0
C2073 C 0.10298 0.91995 0.125 0.0
C2074 C 0.10186 0.94576 0.1194 0.0
C2075 C 0.08767 0.97684 0.0884 0.0
C2076 C 0.07441 0.98195 0.06279 0.0
C2077 C 0.08932 0.95052 0.09375 0.0
C2078 C 0.06317 0.95943 0.04289 0.0
C2079 C 0.06497 0.93346 0.04794 0.0
H2080 H 0.95992 0.28775 0.89873 0.0
H2081 H 0.91992 0.29697 0.97064 0.0
H2082 H 0.88002 0.2974 0.93976 0.0
H2083 H 0.85643 0.29717 0.89204 0.0
H2084 H 0.89713 0.289 0.82058 0.0
H2085 H 0.93597 0.28566 0.85119 0.0
C2086 C 0.94247 0.28964 0.90777 0.0
C2087 C 0.94337 0.29232 0.93735 0.0
C2088 C 0.91936 0.29011 0.88975 0.0
C2089 C 0.92023 0.29484 0.9482 0.0
C2090 C 0.89721 0.2951 0.93042 0.0
C2091 C 0.87368 0.29458 0.88304 0.0
C2092 C 0.87368 0.29418 0.8537 0.0
C2093 C 0.8965 0.29302 0.9011 0.0
C2094 C 0.89645 0.29022 0.84292 0.0
C2095 C 0.91883 0.28819 0.86052 0.0
H2096 H 0.57477 0.23276 0.62547 0.0
H2097 H 0.61383 0.24563 0.55338 0.0
H2098 H 0.60818 0.19838 0.54013 0.0
H2099 H 0.59166 0.15203 0.54766 0.0
H2100 H 0.55382 0.1383 0.62011 0.0
H2101 H 0.55937 0.1858 0.63385 0.0
C2102 C 0.58197 0.22539 0.60677 0.0
C2103 C 0.59475 0.24385 0.59063 0.0
C2104 C 0.57878 0.1973 0.59894 0.0
C2105 C 0.60392 0.23285 0.56659 0.0
C2106 C 0.60069 0.2054 0.55881 0.0
C2107 C 0.58472 0.15926 0.56659 0.0
C2108 C 0.57174 0.14069 0.58233 0.0
C2109 C 0.58815 0.18722 0.57468 0.0
C2110 C 0.56313 0.15136 0.60681 0.0
C2111 C 0.56652 0.1789 0.61491 0.0
H2112 H 0.58082 0.80694 0.40202 0.0
H2113 H 0.61674 0.80858 0.48701 0.0
H2114 H 0.65971 0.81561 0.47179 0.0
H2115 H 0.68704 0.82264 0.43471 0.0
H2116 H 0.65118 0.82597 0.35065 0.0
H2117 H 0.60836 0.81472 0.36498 0.0
C2118 C 0.59805 0.80862 0.41717 0.0
C2119 C 0.59558 0.80716 0.44562 0.0
C2120 C 0.62275 0.81341 0.40839 0.0
C2121 C 0.61811 0.80968 0.46503 0.0
C2122 C 0.64268 0.81369 0.45631 0.0
C2123 C 0.66998 0.82129 0.41946 0.0
C2124 C 0.67276 0.82536 0.39152 0.0
C2125 C 0.64526 0.81592 0.4281 0.0
C2126 C 0.65004 0.82259 0.37214 0.0
C2127 C 0.62538 0.81642 0.3804 0.0
H2128 H 0.04559 0.27111 0.43938 0.0
H2129 H 0.09542 0.25942 0.37665 0.0
H2130 H 0.0931 0.21376 0.38626 0.0
H2131 H 0.07698 0.17754 0.41332 0.0
H2132 H 1.02565 0.19112 0.47413 0.0
H2133 H 0.02928 0.23616 0.46481 0.0
C2134 C 0.05622 0.25886 0.42772 0.0
C2135 C 0.0709 0.26895 0.40741 0.0
C2136 C 0.05472 0.23299 0.43326 0.0
C2137 C 0.08402 0.25228 0.39241 0.0
C2138 C 0.08271 0.2262 0.39797 0.0
C2139 C 0.06643 0.19028 0.42439 0.0
C2140 C 0.0513 0.18079 0.44476 0.0
C2141 C 0.0681 0.21635 0.41844 0.0
C2142 C 0.03799 0.19781 0.45897 0.0
C2143 C 0.03981 0.2236 0.45343 0.0
H2144 H 0.64545 0.24762 0.20845 0.0
H2145 H 0.62898 0.30574 0.27026 0.0
H2146 H 0.67513 0.31662 0.29105 0.0
H2147 H 0.72174 0.31171 0.2898 0.0
H2148 H 0.73672 0.25191 0.22869 0.0
H2149 H 0.69044 0.23974 0.21 0.0
C2150 C 0.65166 0.2621 0.22709 0.0
C2151 C 0.63291 0.2752 0.23801 0.0
C2152 C 0.67854 0.26831 0.23898 0.0
C2153 C 0.64216 0.2945 0.26172 0.0
C2154 C 0.66891 0.30106 0.2734 0.0
C2155 C 0.71488 0.29583 0.27256 0.0
C2156 C 0.73335 0.28262 0.26101 0.0
C2157 C 0.68753 0.28847 0.26196 0.0
C2158 C 0.7235 0.26216 0.23858 0.0
C2159 C 0.69679 0.25527 0.22767 0.0
H2160 H 0.58206 0.89569 0.94328 0.0
H2161 H 0.5777 0.93217 0.86791 0.0
H2162 H 0.57368 0.97339 0.89539 0.0
H2163 H 0.56981 0.99881 0.94113 0.0
H2164 H 0.57672 0.96224 0.0163 0.0
H2165 H 0.58096 0.92158 0.98877 0.0
C2166 C 0.58025 0.91262 0.93275 0.0
C2167 C 0.58005 0.91053 0.90332 0.0
C2168 C 0.57827 0.9364 0.9488 0.0
C2169 C 0.5779 0.93297 0.89037 0.0
C2170 C 0.57558 0.95663 0.90617 0.0
C2171 C 0.57283 0.98219 0.95161 0.0
C2172 C 0.57271 0.98383 0.98103 0.0
C2173 C 0.57566 0.95863 0.93546 0.0
C2174 C 0.57611 0.96162 0.99383 0.0
C2175 C 0.57872 0.93828 0.97803 0.0
H2176 H 0.9766 0.77895 0.77771 0.0
H2177 H 0.94846 0.75762 0.68935 0.0
H2178 H 0.90516 0.76326 0.69766 0.0
H2179 H 0.87425 0.77614 0.7295 0.0
H2180 H 0.90199 0.79826 0.81777 0.0
H2181 H 0.9451 0.79121 0.80993 0.0
C2182 C 0.961 0.77509 0.76023 0.0
C2183 C 0.96664 0.76735 0.73268 0.0
C2184 C 0.93542 0.77901 0.76511 0.0
C2185 C 0.94551 0.7633 0.71075 0.0
C2186 C 0.92037 0.76667 0.7155 0.0
C2187 C 0.88949 0.77903 0.74721 0.0
C2188 C 0.88387 0.78763 0.77446 0.0
C2189 C 0.9149 0.77477 0.74252 0.0
C2190 C 0.90487 0.79176 0.79656 0.0
C2191 C 0.9299 0.78757 0.79206 0.0
H2192 H 0.15944 0.06592 0.90566 0.0
H2193 H 0.09606 0.09387 0.863 0.0
H2194 H 0.07292 0.08988 0.90365 0.0
H2195 H 0.07038 0.0781 0.95125 0.0
H2196 H 0.13297 0.04854 0.99329 0.0
H2197 H 0.15665 0.05373 0.95324 0.0
C2198 C 0.14066 0.07137 0.90532 0.0
C2199 C 0.12963 0.08034 0.88119 0.0
C2200 C 0.12718 0.06858 0.92869 0.0
C2201 C 0.10512 0.08701 0.88119 0.0
C2202 C 0.09181 0.08465 0.90446 0.0
C2203 C 0.08897 0.07233 0.95155 0.0
C2204 C 0.09954 0.06248 0.97532 0.0
C2205 C 0.10252 0.07524 0.92826 0.0
C2206 C 0.12413 0.05595 0.97538 0.0
C2207 C 0.13777 0.05897 0.95242 0.0
H2208 H 0.85766 0.45394 0.599 0.0
H2209 H 0.86139 0.37259 0.57533 0.0
H2210 H 0.87069 0.3673 0.62452 0.0
H2211 H 0.87945 0.38609 0.67415 0.0
H2212 H 0.8774 0.46754 0.6982 0.0
H2213 H 0.86561 0.47253 0.64887 0.0
C2214 C 0.86025 0.43499 0.60461 0.0
C2215 C 0.85889 0.41373 0.58352 0.0
C2216 C 0.86607 0.43216 0.63294 0.0
C2217 C 0.86252 0.38935 0.59114 0.0
C2218 C 0.86784 0.38627 0.61925 0.0
C2219 C 0.87626 0.40485 0.66847 0.0
C2220 C 0.87932 0.42648 0.68939 0.0
C2221 C 0.86993 0.40759 0.64026 0.0
C2222 C 0.87535 0.45078 0.68212 0.0
C2223 C 0.86857 0.45358 0.65406 0.0
H2224 H 0.45064 0.06504 0.41345 0.0
H2225 H 0.48002 1.00079 0.37387 0.0
H2226 H 0.51011 1.00194 0.41628 0.0
H2227 H 0.52993 0.02305 0.46341 0.0
H2228 H 0.50289 0.08941 0.502 0.0
H2229 H 0.47003 0.08571 0.46121 0.0
C2230 C 0.46336 0.05107 0.41442 0.0
C2231 C 0.46329 0.03292 0.39084 0.0
C2232 C 0.48119 0.05244 0.43849 0.0
C2233 C 0.47995 1.01504 0.39189 0.0
C2234 C 0.49719 1.01572 0.41604 0.0
C2235 C 0.51687 0.03672 0.46277 0.0
C2236 C 0.51856 0.05627 0.48554 0.0
C2237 C 0.49838 0.03473 0.4392 0.0
C2238 C 0.50155 0.07385 0.48476 0.0
C2239 C 0.48285 0.07183 0.46146 0.0
H2240 H 0.77474 0.78128 0.10714 0.0
H2241 H 0.79235 0.70462 0.11306 0.0
H2242 H 0.79761 0.71364 0.16427 0.0
H2243 H 0.79687 0.7433 0.20788 0.0
H2244 H 0.78221 0.82101 0.20126 0.0
H2245 H 0.77552 0.81127 0.15037 0.0
C2246 C 0.77981 0.76651 0.11956 0.0
C2247 C 0.7831 0.74226 0.10594 0.0
C2248 C 0.78318 0.77195 0.14917 0.0
C2249 C 0.78977 0.72352 0.1227 0.0
C2250 C 0.7927 0.72863 0.15212 0.0
C2251 C 0.79266 0.75828 0.19535 0.0
C2252 C 0.79024 0.78296 0.20879 0.0
C2253 C 0.78952 0.75282 0.16567 0.0
C2254 C 0.78404 0.80175 0.19188 0.0
C2255 C 0.78035 0.79627 0.16256 0.0
H2256 H 0.08346 0.08301 0.72617 0.0
H2257 H 0.15967 0.06564 0.72382 0.0
H2258 H 0.15113 0.05689 0.67256 0.0
H2259 H 0.12234 0.05544 0.62805 0.0
H2260 H 0.04472 0.06879 0.63132 0.0
H2261 H 0.05381 0.07859 0.68215 0.0
C2262 C 0.09822 0.0773 0.71449 0.0
C2263 C 0.12223 0.07518 0.72898 0.0
C2264 C 0.09304 0.07184 0.68498 0.0
C2265 C 0.14098 0.06742 0.71335 0.0
C2266 C 0.13615 0.06248 0.68395 0.0
C2267 C 0.10724 0.05998 0.63986 0.0
C2268 C 0.0829 0.06145 0.62553 0.0
C2269 C 0.11226 0.06471 0.66948 0.0
C2270 C 0.0638 0.0679 0.64144 0.0
C2271 C 0.0689 0.07336 0.67069 0.0
H2272 H 0.84854 0.38555 0.45176 0.0
H2273 H 0.78976 0.42526 0.41882 0.0
H2274 H 0.78302 0.39602 0.37401 0.0
H2275 H 0.79223 0.35751 0.34593 0.0
H2276 H 0.85282 0.31982 0.37901 0.0
H2277 H 0.8602 0.34993 0.42279 0.0
C2278 C 0.83437 0.388 0.43477 0.0
C2279 C 0.81944 0.40722 0.43851 0.0
C2280 C 0.83075 0.37135 0.40945 0.0
C2281 C 0.80143 0.41048 0.41624 0.0
C2282 C 0.79749 0.39371 0.3908 0.0
C2283 C 0.8072 0.35606 0.36263 0.0
C2284 C 0.82189 0.33646 0.3594 0.0
C2285 C 0.81176 0.37379 0.38743 0.0
C2286 C 0.84112 0.33463 0.38118 0.0
C2287 C 0.84545 0.35189 0.4061 0.0
H2288 H 0.41575 0.02303 0.23196 0.0
H2289 H 0.49238 1.00627 0.24951 0.0
H2290 H 0.49702 1.00413 0.19996 0.0
H2291 H 0.47774 1.00268 0.15139 0.0
H2292 H 0.40056 1.01733 0.13317 0.0
H2293 H 0.39784 0.02514 0.18346 0.0
C2294 C 0.43357 1.01918 0.225 0.0
C2295 C 0.45351 1.01445 0.24433 0.0
C2296 C 0.43601 1.01761 0.19643 0.0
C2297 C 0.47653 1.00956 0.23499 0.0
C2298 C 0.47928 1.00842 0.20669 0.0
C2299 C 0.46059 1.00818 0.15852 0.0
C2300 C 0.43934 1.0094 0.13891 0.0
C2301 C 0.45892 1.01181 0.1872 0.0
C2302 C 0.41707 1.01623 0.14814 0.0
C2303 C 0.4155 1.02059 0.17678 0.0
H2304 H 0.78279 0.76428 0.96457 0.0
H2305 H 0.78817 0.68597 0.93007 0.0
H2306 H 0.79588 0.701 0.88542 0.0
H2307 H 0.80249 0.73668 0.85587 0.0
H2308 H 0.79496 0.81454 0.88955 0.0
H2309 H 0.78704 0.7995 0.93408 0.0
C2310 C 0.78545 0.75045 0.94724 0.0
C2311 C 0.78494 0.72397 0.95104 0.0
C2312 C 0.78986 0.75923 0.9212 0.0
C2313 C 0.78843 0.70646 0.92808 0.0
C2314 C 0.79295 0.71506 0.90237 0.0
C2315 C 0.79914 0.7504 0.87291 0.0
C2316 C 0.8001 0.77698 0.86919 0.0
C2317 C 0.79397 0.74147 0.89866 0.0
C2318 C 0.79521 0.79418 0.89167 0.0
C2319 C 0.7904 0.78553 0.91729 0.0
H2320 H 0.85552 0.14507 0.04702 0.0
H2321 H 0.8135 0.09555 0.09914 0.0
H2322 H 0.84507 0.06686 0.09748 0.0
H2323 H 0.88199 0.0536 0.07696 0.0
H2324 H 0.91931 0.10099 0.01964 0.0
H2325 H 0.8924 0.13284 0.02794 0.0
C2326 C 0.85349 0.12831 0.05853 0.0
C2327 C 0.8322 0.12239 0.07312 0.0
C2328 C 0.87078 0.11132 0.05628 0.0
C2329 C 0.82977 0.1005 0.08774 0.0
C2330 C 0.84769 0.084 0.08661 0.0
C2331 C 0.88419 0.07083 0.06621 0.0
C2332 C 0.90291 0.07482 0.04786 0.0
C2333 C 0.86778 0.08875 0.07013 0.0
C2334 C 0.90563 0.09754 0.03444 0.0
C2335 C 0.89004 0.11576 0.03894 0.0
H2336 H 0.43642 0.4263 0.07159 0.0
H2337 H 0.38364 0.47276 0.03961 0.0
H2338 H 0.42057 0.50815 0.03584 0.0
H2339 H 0.46849 0.52451 0.03904 0.0
H2340 H 0.51978 0.47778 0.07452 0.0
H2341 H 0.48302 0.44415 0.07924 0.0
C2342 C 0.43297 0.44429 0.06404 0.0
C2343 C 0.40739 0.44683 0.05573 0.0
C2344 C 0.45415 0.46451 0.06224 0.0
C2345 C 0.4032 0.47038 0.04629 0.0
C2346 C 0.42433 0.49053 0.04394 0.0
C2347 C 0.47162 0.50712 0.04803 0.0
C2348 C 0.4972 0.5038 0.05591 0.0
C2349 C 0.45002 0.48765 0.05145 0.0
C2350 C 0.50061 0.48106 0.06779 0.0
C2351 C 0.47947 0.46162 0.07063 0.0
H2352 H 0.44013 0.60536 0.80258 0.0
H2353 H 0.3951 0.54814 0.73471 0.0
H2354 H 0.36256 0.57515 0.72936 0.0
H2355 H 0.34477 0.61268 0.74687 0.0
H2356 H 0.3883 0.66903 0.81626 0.0
H2357 H 0.42366 0.64499 0.8179 0.0
C2358 C 0.42345 0.59915 0.78628 0.0
C2359 C 0.41986 0.57477 0.76921 0.0
C2360 C 0.40439 0.61446 0.7838 0.0
C2361 C 0.39812 0.56677 0.74826 0.0
C2362 C 0.37947 0.58214 0.74523 0.0
C2363 C 0.36202 0.61968 0.76233 0.0
C2364 C 0.3638 0.64235 0.78159 0.0
C2365 C 0.38201 0.60558 0.76344 0.0
C2366 C 0.3865 0.6516 0.80113 0.0
C2367 C 0.40667 0.63782 0.80217 0.0
H2368 H 0.18676 0.63791 0.58337 0.0
H2369 H 0.20827 0.5865 0.51828 0.0
H2370 H 0.16893 0.55312 0.51921 0.0
H2371 H 0.12602 0.54132 0.53485 0.0
H2372 H 0.10503 0.59262 0.60037 0.0
H2373 H 0.147 0.62318 0.60386 0.0
C2374 C 0.1829 0.61917 0.56978 0.0
C2375 C 0.19985 0.61447 0.55058 0.0
C2376 C 0.16063 0.60012 0.57083 0.0
C2377 C 0.19517 0.59027 0.53312 0.0
C2378 C 0.1728 0.57129 0.53369 0.0
C2379 C 0.13118 0.55879 0.55047 0.0
C2380 C 0.1129 0.56504 0.56736 0.0
C2381 C 0.15512 0.57627 0.55202 0.0
C2382 C 0.11919 0.58763 0.58742 0.0
C2383 C 0.143 0.60512 0.5892 0.0
H2384 H 0.70976 0.9999 0.76884 0.0
H2385 H 0.78614 0.04946 0.77684 0.0
H2386 H 0.80587 1.01277 0.78918 0.0
H2387 H 0.80056 0.96958 0.8064 0.0
H2388 H 0.72364 0.92162 0.80105 0.0
H2389 H 0.70483 0.95476 0.77905 0.0
C2390 C 0.73076 1.00248 0.77263 0.0
C2391 C 0.74651 0.02736 0.77252 0.0
C2392 C 0.74177 0.98176 0.78079 0.0
C2393 C 0.77366 0.03044 0.77693 0.0
C2394 C 0.7849 1.00956 0.7843 0.0
C2395 C 0.77976 0.96617 0.79977 0.0
C2396 C 0.76339 0.94354 0.80581 0.0
C2397 C 0.76905 0.98558 0.78767 0.0
C2398 C 0.73649 0.93923 0.79715 0.0
C2399 C 0.72577 0.95809 0.7845 0.0
H2400 H 0.7487 0.9226 0.53936 0.0
H2401 H 0.80046 0.96272 0.61357 0.0
H2402 H 0.77362 0.9955 0.61928 0.0
H2403 H 0.73854 1.01567 0.60018 0.0
H2404 H 0.68774 0.97719 0.52469 0.0
H2405 H 0.7108 0.94083 0.52261 0.0
C2406 C 0.75362 0.93811 0.55718 0.0
C2407 C 0.77651 0.94032 0.57599 0.0
C2408 C 0.73852 0.95746 0.55983 0.0
C2409 C 0.78294 0.9607 0.59879 0.0
C2410 C 0.7677 0.97954 0.60198 0.0
C2411 C 0.73247 0.99926 0.58334 0.0
C2412 C 0.71171 0.99929 0.56245 0.0
C2413 C 0.746 0.97865 0.58207 0.0
C2414 C 0.70367 0.97763 0.54107 0.0
C2415 C 0.71692 0.95687 0.5398 0.0
H2416 H 0.40921 0.45994 0.798 0.0
H2417 H 0.46524 0.41551 0.77233 0.0
H2418 H 0.43294 0.37429 0.76932 0.0
H2419 H 0.38895 0.35122 0.77474 0.0
H2420 H 0.33527 0.39634 0.80568 0.0
H2421 H 0.36631 0.43698 0.80527 0.0
C2422 C 0.41434 0.44123 0.79158 0.0
C2423 C 0.43948 0.44073 0.78514 0.0
C2424 C 0.39601 0.41778 0.79066 0.0
C2425 C 0.446 0.41636 0.7774 0.0
C2426 C 0.42753 0.39285 0.77561 0.0
C2427 C 0.38391 0.36985 0.78129 0.0
C2428 C 0.3594 0.37044 0.78976 0.0
C2429 C 0.40246 0.39333 0.78228 0.0
C2430 C 0.35359 0.39501 0.79849 0.0
C2431 C 0.37149 0.4184 0.79851 0.0
H2432 H 0.27786 0.66574 0.31713 0.0
H2433 H 0.22338 0.65744 0.24165 0.0
H2434 H 0.24985 0.69551 0.22656 0.0
H2435 H 0.28335 0.73545 0.23935 0.0
H2436 H 0.33738 0.74587 0.31534 0.0
H2437 H 0.31703 0.70224 0.3255 0.0
C2438 C 0.27243 0.67194 0.29704 0.0
C2439 C 0.24887 0.65928 0.28045 0.0
C2440 C 0.28764 0.69409 0.28869 0.0
C2441 C 0.24153 0.66724 0.25458 0.0
C2442 C 0.25661 0.68891 0.24599 0.0
C2443 C 0.29122 0.72761 0.25755 0.0
C2444 C 0.31129 0.74362 0.27686 0.0
C2445 C 0.27901 0.70311 0.26346 0.0
C2446 C 0.32169 0.73369 0.30037 0.0
C2447 C 0.30993 0.70888 0.30624 0.0
H2448 H 0.49582 0.70466 0.51865 0.0
H2449 H 0.5653 0.73313 0.48362 0.0
H2450 H 0.58132 0.6934 0.49277 0.0
H2451 H 0.5761 0.64939 0.51097 0.0
H2452 H 0.5052 0.6198 0.54269 0.0
H2453 H 0.48992 0.66011 0.53484 0.0
C2454 C 0.51447 0.70234 0.51283 0.0
C2455 C 0.52909 0.72284 0.50028 0.0
C2456 C 0.5236 0.67864 0.5177 0.0
C2457 C 0.55318 0.71839 0.49307 0.0
C2458 C 0.56253 0.69538 0.49844 0.0
C2459 C 0.55737 0.6517 0.51639 0.0
C2460 C 0.5422 0.63092 0.52804 0.0
C2461 C 0.54804 0.67519 0.51085 0.0
C2462 C 0.51761 0.63483 0.5339 0.0
C2463 C 0.50871 0.65815 0.52928 0.0
H2464 H 0.70733 0.34859 0.65258 0.0
H2465 H 0.64612 0.31486 0.69722 0.0
H2466 H 0.6784 0.30911 0.73509 0.0
H2467 H 0.7242 0.312 0.75525 0.0
H2468 H 0.78559 0.34991 0.7133 0.0
H2469 H 0.75344 0.35498 0.67507 0.0
C2470 C 0.70098 0.34016 0.67067 0.0
C2471 C 0.67392 0.3322 0.67161 0.0
C2472 C 0.71989 0.3373 0.69303 0.0
C2473 C 0.66651 0.3214 0.69558 0.0
C2474 C 0.6851 0.31795 0.71737 0.0
C2475 C 0.73077 0.32184 0.73817 0.0
C2476 C 0.75786 0.33035 0.73779 0.0
C2477 C 0.7119 0.32565 0.71635 0.0
C2478 C 0.76526 0.34267 0.71462 0.0
C2479 C 0.7467 0.34577 0.69255 0.0
H2480 H 1.02506 0.37599 0.03106 0.0
H2481 H 0.0402 0.38244 0.94617 0.0
H2482 H 0.0467 0.4299 0.95556 0.0
H2483 H 0.04783 0.47112 0.98685 0.0
H2484 H 0.03358 0.46684 0.07201 0.0
H2485 H 1.02657 0.41862 0.0633 0.0
C2486 C 0.02986 0.38765 0.01457 0.0
C2487 C 0.03201 0.37441 0.98763 0.0
C2488 C 0.03356 0.41613 0.02003 0.0
C2489 C 0.03817 0.39094 0.96704 0.0
C2490 C 0.04196 0.4186 0.97237 0.0
C2491 C 0.04338 0.45984 1.00375 0.0
C2492 C 0.04139 0.47358 0.03028 0.0
C2493 C 0.03967 0.43163 0.99866 0.0
C2494 C 0.03514 0.45764 0.0513 0.0
C2495 C 0.03126 0.42967 0.04632 0.0
H2496 H 0.99643 0.82107 0.12937 0.0
H2497 H 0.04195 0.8035 0.20198 0.0
H2498 H 1.00296 0.79279 0.22413 0.0
H2499 H 0.95539 0.78642 0.2223 0.0
H2500 H 0.9097 0.80365 0.14972 0.0
H2501 H 0.94902 0.81663 0.12849 0.0
C2502 C 0.99781 0.81495 0.15005 0.0
C2503 C 1.02216 0.81299 0.16383 0.0
C2504 C 0.97517 0.80877 0.16283 0.0
C2505 C 1.02353 0.80514 0.19074 0.0
C2506 C 1.00119 0.79902 0.20352 0.0
C2507 C 0.95411 0.79343 0.20205 0.0
C2508 C 0.92957 0.79392 0.18761 0.0
C2509 C 0.97685 0.80057 0.18973 0.0
C2510 C 0.92829 0.80281 0.16121 0.0
C2511 C 0.95079 0.81023 0.14901 0.0
H2512 H 0.56558 0.32088 0.14971 0.0
H2513 H 0.56084 0.35682 0.23315 0.0
H2514 H 0.57106 0.40049 0.21872 0.0
H2515 H 0.58102 0.42852 0.18253 0.0
H2516 H 0.58788 0.393 0.09953 0.0
H2517 H 0.5763 0.34925 0.11344 0.0
C2518 C 0.56689 0.33828 0.16477 0.0
C2519 C 0.56251 0.33552 0.19254 0.0
C2520 C 0.57281 0.36345 0.15631 0.0
C2521 C 0.5642 0.3583 0.21171 0.0
C2522 C 0.56997 0.38333 0.20343 0.0
C2523 C 0.58032 0.4113 0.16747 0.0
C2524 C 0.58552 0.41435 0.13997 0.0
C2525 C 0.57431 0.38615 0.17581 0.0
C2526 C 0.5837 0.39152 0.12071 0.0
C2527 C 0.57732 0.36639 0.12874 0.0
H2528 H 0.98248 0.36474 0.37125 0.0
H2529 H 1.00437 0.30422 0.31671 0.0
H2530 H 0.95879 0.28976 0.29418 0.0
H2531 H 0.91123 0.29274 0.29164 0.0
H2532 H 0.89107 0.35398 0.34679 0.0
H2533 H 0.9367 0.36947 0.36694 0.0
C2534 C 0.97758 0.34866 0.35402 0.0
C2535 C 0.99763 0.33597 0.34576 0.0
C2536 C 0.9511 0.34031 0.34125 0.0
C2537 C 0.9901 0.31498 0.32343 0.0
C2538 C 0.96371 0.30643 0.31071 0.0
C2539 C 0.91683 0.30956 0.30798 0.0
C2540 C 0.89715 0.32239 0.3172 0.0
C2541 C 0.94379 0.31863 0.3197 0.0
C2542 C 0.90531 0.34409 0.33852 0.0
C2543 C 0.93163 0.35286 0.35032 0.0
H2544 H 0.05668 0.67833 0.67578 0.0
H2545 H 1.00216 0.70701 0.62044 0.0
H2546 H 0.99806 0.66821 0.58559 0.0
H2547 H 1.01409 0.62845 0.56803 0.0
H2548 H 0.06631 0.59788 0.62418 0.0
H2549 H 0.06725 0.63453 0.66105 0.0
C2550 C 0.04293 0.67546 0.65671 0.0
C2551 C 0.0291 0.6955 0.65135 0.0
C2552 C 0.04084 0.65289 0.63634 0.0
C2553 C 1.01235 0.69172 0.62573 0.0
C2554 C 1.01035 0.66964 0.60546 0.0
C2555 C 1.02527 0.62956 0.58853 0.0
C2556 C 0.04029 0.61042 0.59317 0.0
C2557 C 1.02512 0.65046 0.61007 0.0
C2558 C 0.05464 0.61227 0.61993 0.0
C2559 C 0.05517 0.63332 0.64109 0.0
H2560 H 0.6716 0.84803 0.8697 0.0
H2561 H 0.62472 0.80958 0.79199 0.0
H2562 H 0.66365 0.79933 0.77397 0.0
H2563 H 0.71227 0.80148 0.77966 0.0
H2564 H 0.75825 0.84031 0.8579 0.0
H2565 H 0.71944 0.85007 0.87541 0.0
C2566 C 0.66969 0.83746 0.84873 0.0
C2567 C 0.64446 0.82983 0.83247 0.0
C2568 C 0.69259 0.83164 0.8382 0.0
C2569 C 0.6433 0.81603 0.80533 0.0
C2570 C 0.66585 0.81007 0.7949 0.0
C2571 C 0.71394 0.812 0.80059 0.0
C2572 C 0.73917 0.82021 0.81702 0.0
C2573 C 0.69082 0.81776 0.81102 0.0
C2574 C 0.73992 0.83391 0.84413 0.0
C2575 C 0.71737 0.83948 0.85443 0.0
H2576 H 0.54135 0.52436 0.72029 0.0
H2577 H 0.46387 0.53811 0.70077 0.0
H2578 H 0.47345 0.54918 0.65486 0.0
H2579 H 0.50425 0.55513 0.6198 0.0
H2580 H 0.58172 0.54177 0.64119 0.0
H2581 H 0.57162 0.5305 0.68623 0.0
C2582 C 0.52646 0.52971 0.70606 0.0
C2583 C 0.50189 0.53026 0.7142 0.0
C2584 C 0.53211 0.53627 0.67973 0.0
C2585 C 0.48299 0.53742 0.69526 0.0
C2586 C 0.48845 0.5438 0.66889 0.0
C2587 C 0.51891 0.54983 0.63435 0.0
C2588 C 0.54383 0.54959 0.62682 0.0
C2589 C 0.51301 0.54334 0.66083 0.0
C2590 C 0.56245 0.54248 0.64612 0.0
C2591 C 0.55671 0.5359 0.67209 0.0
H2592 H 0.72495 0.15652 0.98105 0.0
H2593 H 0.80443 0.16332 0.96669 0.0
H2594 H 0.79525 0.18344 0.92425 0.0
H2595 H 0.76651 0.20531 0.89703 0.0
H2596 H 0.68584 0.19627 0.9109 0.0
H2597 H 0.69533 0.17437 0.95053 0.0
C2598 C 0.73996 0.16161 0.96799 0.0
C2599 C 0.76509 0.15817 0.97636 0.0
C2600 C 0.73482 0.1741 0.94456 0.0
C2601 C 0.78472 0.16523 0.95993 0.0
C2602 C 0.77955 0.17711 0.93603 0.0
C2603 C 0.75021 0.19764 0.90726 0.0
C2604 C 0.72554 0.20397 0.90063 0.0
C2605 C 0.7548 0.1825 0.92876 0.0
C2606 C 0.70549 0.19356 0.91557 0.0
C2607 C 0.71044 0.17986 0.93789 0.0
H2608 H 0.13253 0.61249 0.22126 0.0
H2609 H 0.1709 0.54722 0.20765 0.0
H2610 H 0.14773 0.53572 0.1597 0.0
H2611 H 0.11555 0.5438 0.12213 0.0
H2612 H 0.07792 0.60947 0.13709 0.0
H2613 H 0.10208 0.62129 0.18414 0.0
C2614 C 0.13582 0.59565 0.20794 0.0
C2615 C 0.15322 0.58062 0.21811 0.0
C2616 C 0.12263 0.58927 0.18062 0.0
C2617 C 0.1575 0.55909 0.20034 0.0
C2618 C 0.14429 0.55251 0.17294 0.0
C2619 C 0.11284 0.56077 0.13567 0.0
C2620 C 0.0948 0.57555 0.12638 0.0
C2621 C 0.12671 0.56743 0.16289 0.0
C2622 C 0.09144 0.59755 0.14401 0.0
C2623 C 0.10525 0.60437 0.17087 0.0
H2624 H 0.83274 0.84582 0.48025 0.0
H2625 H 0.81724 0.92164 0.46549 0.0
H2626 H 0.81404 0.90893 0.41502 0.0
H2627 H 0.8144 0.87602 0.37464 0.0
H2628 H 0.82971 0.80004 0.3887 0.0
H2629 H 0.83486 0.81326 0.43945 0.0
C2630 C 0.82876 0.85958 0.46599 0.0
C2631 C 0.8251 0.88465 0.47685 0.0
C2632 C 0.82702 0.85216 0.43669 0.0
C2633 C 0.82013 0.90223 0.45792 0.0
C2634 C 0.81828 0.89498 0.42893 0.0
C2635 C 0.81876 0.86228 0.38877 0.0
C2636 C 0.82133 0.83692 0.37767 0.0
C2637 C 0.82145 0.86994 0.41803 0.0
C2638 C 0.82763 0.81969 0.39648 0.0
C2639 C 0.83043 0.82719 0.4256 0.0
H2640 H 0.52429 0.52263 0.85777 0.0
H2641 H 0.4489 0.53352 0.87621 0.0
H2642 H 0.4637 0.53756 0.92616 0.0
H2643 H 0.4979 0.53908 0.96505 0.0
H2644 H 0.57333 0.52729 0.94826 0.0
H2645 H 0.55864 0.5222 0.89767 0.0
C2646 C 0.51113 0.52581 0.87275 0.0
C2647 C 0.4855 0.52787 0.86302 0.0
C2648 C 0.51974 0.52789 0.90191 0.0
C2649 C 0.4687 0.53182 0.88285 0.0
C2650 C 0.47715 0.53419 0.91158 0.0
C2651 C 0.51118 0.53532 0.95038 0.0
C2652 C 0.53673 0.53363 0.9606 0.0
C2653 C 0.50261 0.53241 0.92138 0.0
C2654 C 0.5535 0.52853 0.94111 0.0
C2655 C 0.54514 0.52576 0.9121 0.0
H2656 H 0.81029 0.20273 0.13339 0.0
H2657 H 0.74144 0.23229 0.10893 0.0
H2658 H 0.74758 0.2597 0.15421 0.0
H2659 H 0.77369 0.27731 0.19934 0.0
H2660 H 0.8436 0.2498 0.22411 0.0
H2661 H 0.83584 0.21939 0.18021 0.0
C2662 C 0.7966 0.21503 0.13819 0.0
C2663 C 0.77572 0.21585 0.11786 0.0
C2664 C 0.80049 0.23118 0.16415 0.0
C2665 C 0.75798 0.23177 0.12416 0.0
C2666 C 0.76139 0.24738 0.15003 0.0
C2667 C 0.78722 0.26465 0.1951 0.0
C2668 C 0.80916 0.26575 0.21466 0.0
C2669 C 0.78284 0.24764 0.16989 0.0
C2670 C 0.82644 0.24909 0.20925 0.0
C2671 C 0.82207 0.23181 0.18417 0.0
H2672 H 0.1789 0.63131 0.35001 0.0
H2673 H 0.23068 0.58509 0.38503 0.0
H2674 H 0.22221 0.59964 0.43231 0.0
H2675 H 0.19761 0.6232 0.46307 0.0
H2676 H 0.14644 0.6697 0.42765 0.0
H2677 H 0.15667 0.65687 0.38083 0.0
C2678 C 0.1885 0.6246 0.36801 0.0
C2679 C 0.20514 0.60699 0.36419 0.0
C2680 C 0.18361 0.63306 0.39491 0.0
C2681 C 0.21778 0.5987 0.38761 0.0
C2682 C 0.2128 0.60684 0.41455 0.0
C2683 C 0.18931 0.63099 0.44507 0.0
C2684 C 0.1716 0.64752 0.4485 0.0
C2685 C 0.19551 0.62376 0.41837 0.0
C2686 C 0.16058 0.6574 0.42532 0.0
C2687 C 0.16635 0.65001 0.39863 0.0
H2688 H 0.81648 0.8861 0.64015 0.0
H2689 H 0.84994 0.82063 0.61068 0.0
H2690 H 0.8449 0.80253 0.6541 0.0
H2691 H 0.83161 0.80481 0.70064 0.0
H2692 H 0.79775 0.86923 0.73151 0.0
H2693 H 0.80269 0.88819 0.68783 0.0
C2694 C 0.82269 0.8679 0.64321 0.0
C2695 C 0.83361 0.85491 0.62174 0.0
C2696 C 0.8197 0.85728 0.66864 0.0
C2697 C 0.84147 0.83127 0.62644 0.0
C2698 C 0.8386 0.82077 0.65142 0.0
C2699 C 0.82485 0.82278 0.69775 0.0
C2700 C 0.81381 0.83522 0.71929 0.0
C2701 C 0.82772 0.83351 0.67262 0.0
C2702 C 0.8061 0.85903 0.7153 0.0
C2703 C 0.80893 0.86989 0.69026 0.0
H2704 H 0.79373 0.50917 0.54291 0.0
H2705 H 0.75527 0.42828 0.54226 0.0
H2706 H 0.71908 0.44279 0.5616 0.0
H2707 H 0.69819 0.47836 0.57821 0.0
H2708 H 0.73619 0.55925 0.57854 0.0
H2709 H 0.77269 0.54483 0.55944 0.0
C2710 C 0.77748 0.49475 0.54714 0.0
C2711 C 0.77717 0.46775 0.54131 0.0
C2712 C 0.75665 0.5032 0.55804 0.0
C2713 C 0.75592 0.44922 0.54661 0.0
C2714 C 0.73523 0.45747 0.55766 0.0
C2715 C 0.71461 0.4928 0.57438 0.0
C2716 C 0.71468 0.51977 0.5799 0.0
C2717 C 0.7354 0.48439 0.56344 0.0
C2718 C 0.73575 0.53834 0.5743 0.0
C2719 C 0.75662 0.53013 0.56351 0.0
H2720 H 0.17453 0.17582 0.49881 0.0
H2721 H 0.2319 0.15257 0.55611 0.0
H2722 H 0.19939 0.11598 0.56539 0.0
H2723 H 0.15421 0.09072 0.55804 0.0
H2724 H 0.09793 0.1117 0.49741 0.0
H2725 H 0.13007 0.14874 0.48908 0.0
C2726 C 0.17986 0.16276 0.51333 0.0
C2727 C 0.20559 0.16708 0.52677 0.0
C2728 C 0.16112 0.14127 0.51824 0.0
C2729 C 0.21224 0.14971 0.54531 0.0
C2730 C 0.19363 0.12875 0.55075 0.0
C2731 C 0.14902 0.10329 0.54292 0.0
C2732 C 0.1234 0.09863 0.52902 0.0
C2733 C 0.16795 0.12433 0.53741 0.0
C2734 C 0.11719 0.11511 0.50923 0.0
C2735 C 0.13569 0.13632 0.50417 0.0
H2736 H 0.20793 0.03322 0.76869 0.0
H2737 H 0.16755 0.99105 0.82744 0.0
H2738 H 0.19644 0.9594 0.82534 0.0
H2739 H 0.23722 0.94826 0.81192 0.0
H2740 H 0.27809 0.99278 0.75492 0.0
H2741 H 0.24509 1.01944 0.75149 0.0
C2742 C 0.20514 1.01677 0.78062 0.0
C2743 C 0.18602 1.01448 0.79843 0.0
C2744 C 0.22226 0.99957 0.78008 0.0
C2745 C 0.18219 0.99301 0.81352 0.0
C2746 C 0.19889 0.9752 0.81257 0.0
C2747 C 0.23861 0.96354 0.79843 0.0
C2748 C 0.26026 0.96897 0.78409 0.0
C2749 C 0.21964 0.97897 0.79677 0.0
C2750 C 0.26192 0.98875 0.76667 0.0
C2751 C 0.24299 1.00383 0.76453 0.0
H2752 H 0.39586 0.99488 0.9965 0.0
H2753 H 0.42219 0.92378 0.9701 0.0
H2754 H 0.4649 0.94985 0.96702 0.0
H2755 H 0.49618 0.99177 0.9782 0.0
H2756 H 0.47111 0.06284 1.00616 0.0
H2757 H 0.42614 0.03781 1.00206 0.0
C2758 C 0.41078 0.98506 0.98964 0.0
C2759 C 0.40596 0.95732 0.98414 0.0
C2760 C 0.43546 1.00014 0.98836 0.0
C2761 C 0.42543 0.94502 0.97485 0.0
C2762 C 0.44989 0.95991 0.9731 0.0
C2763 C 0.48069 1.0018 0.98281 0.0
C2764 C 0.48661 0.02884 0.9928 0.0
C2765 C 0.45532 0.9873 0.98077 0.0
C2766 C 0.46669 0.04195 0.99847 0.0
C2767 C 0.44115 0.02762 0.99628 0.0
H2768 H 0.93269 0.61801 0.78294 0.0
H2769 H 0.85881 0.56597 0.78358 0.0
H2770 H 0.83601 0.59985 0.76969 0.0
H2771 H 0.83701 0.64374 0.7563 0.0
H2772 H 0.91059 0.69583 0.75509 0.0
H2773 H 0.93367 0.66235 0.77028 0.0
C2774 C 0.91161 0.61409 0.78 0.0
C2775 C 0.89745 0.58954 0.78413 0.0
C2776 C 0.89862 0.63361 0.77194 0.0
C2777 C 0.87015 0.58472 0.78038 0.0
C2778 C 0.85709 0.60407 0.77249 0.0
C2779 C 0.8581 0.64782 0.75968 0.0
C2780 C 0.87215 0.67206 0.75465 0.0
C2781 C 0.87112 0.62851 0.76814 0.0
C2782 C 0.89944 0.67711 0.75866 0.0
C2783 C 0.9126 0.65805 0.76737 0.0
H2784 H 0.82425 0.6324 0.02819 0.0
H2785 H 0.87013 0.71022 0.05842 0.0
H2786 H 0.90701 0.69125 0.07511 0.0
H2787 H 0.92462 0.65212 0.08494 0.0
H2788 H 0.87915 0.57453 0.05335 0.0
H2789 H 0.84377 0.59368 0.03276 0.0
C2790 C 0.8424 0.64517 0.03828 0.0
C2791 C 0.84442 0.6726 0.04256 0.0
C2792 C 0.86356 0.63413 0.0474 0.0
C2793 C 0.86814 0.68903 0.05509 0.0
C2794 C 0.88918 0.67819 0.06464 0.0
C2795 C 0.90716 0.63956 0.07293 0.0
C2796 C 0.90428 0.61207 0.07047 0.0
C2797 C 0.88693 0.65075 0.0614 0.0
C2798 C 0.88167 0.59577 0.05518 0.0
C2799 C 0.86143 0.60671 0.04367 0.0
H2800 H 0.19147 0.18727 0.84362 0.0
H2801 H 0.21302 0.12913 0.78558 0.0
H2802 H 0.25049 0.16138 0.7777 0.0
H2803 H 0.2765 0.20709 0.78586 0.0
H2804 H 0.25689 0.26356 0.84765 0.0
H2805 H 0.21988 0.23133 0.85537 0.0
C2806 C 0.20442 0.18172 0.82932 0.0
C2807 C 0.19932 0.15594 0.81511 0.0
C2808 C 0.22643 0.2002 0.82538 0.0
C2809 C 0.21652 0.14889 0.7969 0.0
C2810 C 0.23798 0.16734 0.79229 0.0
C2811 C 0.26431 0.21219 0.80123 0.0
C2812 C 0.26915 0.23806 0.81538 0.0
C2813 C 0.24311 0.19318 0.80628 0.0
C2814 C 0.25325 0.24416 0.83555 0.0
C2815 C 0.23202 0.22564 0.84022 0.0
H2816 H 0.40553 0.93269 0.36222 0.0
H2817 H 0.36258 0.96911 0.30202 0.0
H2818 H 0.32497 0.93335 0.29822 0.0
H2819 H 0.30641 0.88896 0.30698 0.0
H2820 H 0.34845 0.85187 0.36674 0.0
H2821 H 0.38419 0.89069 0.37612 0.0
C2822 C 0.38782 0.93286 0.34856 0.0
C2823 C 0.38694 0.95326 0.33219 0.0
C2824 C 0.36613 0.91217 0.34642 0.0
C2825 C 0.36377 0.95356 0.31483 0.0
C2826 C 0.3422 0.93315 0.31262 0.0
C2827 C 0.32309 0.88988 0.32268 0.0
C2828 C 0.32541 0.86784 0.33577 0.0
C2829 C 0.3434 0.91206 0.32773 0.0
C2830 C 0.34679 0.86877 0.35615 0.0
C2831 C 0.36716 0.89085 0.36141 0.0
H2832 H 0.6051 0.42091 0.63659 0.0
H2833 H 0.57891 0.37196 0.55682 0.0
H2834 H 0.56954 0.41028 0.53564 0.0
H2835 H 0.56849 0.45902 0.53911 0.0
H2836 H 0.59841 0.50783 0.61842 0.0
H2837 H 0.60639 0.46943 0.63941 0.0
C2838 C 0.5975 0.41843 0.61447 0.0
C2839 C 0.59292 0.39265 0.59871 0.0
C2840 C 0.59264 0.44118 0.60192 0.0
C2841 C 0.58302 0.39089 0.56995 0.0
C2842 C 0.5775 0.41313 0.55767 0.0
C2843 C 0.57676 0.46144 0.56101 0.0
C2844 C 0.58252 0.48738 0.57681 0.0
C2845 C 0.58215 0.43861 0.57331 0.0
C2846 C 0.59352 0.48898 0.60518 0.0
C2847 C 0.59817 0.46663 0.61746 0.0
H2848 H 0.41551 0.77822 0.44176 0.0
H2849 H 0.47737 0.81247 0.39831 0.0
H2850 H 0.44542 0.8187 0.36021 0.0
H2851 H 0.39955 0.8157 0.33938 0.0
H2852 H 0.33793 0.7768 0.38036 0.0
H2853 H 0.36973 0.77149 0.41869 0.0
C2854 C 0.42209 0.7869 0.42389 0.0
C2855 C 0.44917 0.7949 0.42332 0.0
C2856 C 0.40341 0.78998 0.40147 0.0
C2857 C 0.45691 0.80592 0.39961 0.0
C2858 C 0.43852 0.80965 0.37773 0.0
C2859 C 0.3929 0.80609 0.35663 0.0
C2860 C 0.36578 0.79767 0.35694 0.0
C2861 C 0.41164 0.80197 0.37844 0.0
C2862 C 0.35822 0.78457 0.37952 0.0
C2863 C 0.3766 0.78121 0.40157 0.0
H2864 H 0.10416 0.73632 0.06187 0.0
H2865 H 0.05546 0.74067 0.12682 0.0
H2866 H 0.04337 0.69243 0.12092 0.0
H2867 H 0.04657 0.64769 0.09737 0.0
H2868 H 0.09438 0.64438 0.03151 0.0
H2869 H 0.10672 0.69223 0.038 0.0
C2870 C 0.09083 0.72691 0.07481 0.0
C2871 C 0.08088 0.74304 0.09489 0.0
C2872 C 0.08378 0.69864 0.07127 0.0
C2873 C 0.06362 0.72956 0.11117 0.0
C2874 C 0.05664 0.70163 0.10778 0.0
C2875 C 0.05965 0.65732 0.08432 0.0
C2876 C 0.06988 0.64143 0.0642 0.0
C2877 C 0.06654 0.68572 0.08789 0.0
C2878 C 0.08671 0.65518 0.04775 0.0
C2879 C 0.09362 0.68297 0.05126 0.0
H2880 H 0.11205 0.32403 0.94089 0.0
H2881 H 0.05655 0.26191 0.88676 0.0
H2882 H 0.08661 0.26081 0.85259 0.0
H2883 H 0.12711 0.27936 0.83613 0.0
H2884 H 0.18277 0.3424 0.88849 0.0
H2885 H 0.15464 0.3409 0.92529 0.0
C2886 C 0.10675 0.31002 0.9218 0.0
C2887 C 0.08193 0.29322 0.91637 0.0
C2888 C 0.12414 0.30973 0.90175 0.0
C2889 C 0.07537 0.27524 0.89144 0.0
C2890 C 0.09257 0.27458 0.8718 0.0
C2891 C 0.13314 0.29281 0.85559 0.0
C2892 C 0.1569 0.31121 0.8593 0.0
C2893 C 0.11673 0.2921 0.87641 0.0
C2894 C 0.16463 0.328 0.88501 0.0
C2895 C 0.14844 0.32726 0.90602 0.0
H2896 H 0.58006 0.78195 0.94848 0.0
H2897 H 0.56104 0.75438 0.85973 0.0
H2898 H 0.5561 0.70866 0.8692 0.0
H2899 H 0.55436 0.67675 0.903 0.0
H2900 H 0.57739 0.70517 0.99155 0.0
H2901 H 0.58256 0.75027 0.98176 0.0
C2902 C 0.57507 0.76594 0.93115 0.0
C2903 C 0.57077 0.77155 0.90344 0.0
C2904 C 0.57239 0.73983 0.93675 0.0
C2905 C 0.56461 0.75061 0.88123 0.0
C2906 C 0.56156 0.72447 0.88668 0.0
C2907 C 0.56099 0.69266 0.92025 0.0
C2908 C 0.56497 0.68707 0.94814 0.0
C2909 C 0.56502 0.71884 0.91442 0.0
C2910 C 0.57319 0.7084 0.96997 0.0
C2911 C 0.57657 0.73439 0.96438 0.0
H2912 H 0.13945 0.75035 0.70896 0.0
H2913 H 0.12064 0.80483 0.77297 0.0
H2914 H 0.1665 0.81565 0.79494 0.0
H2915 H 0.21365 0.81226 0.79382 0.0
H2916 H 0.23075 0.75671 0.72955 0.0
H2917 H 0.18472 0.7439 0.71029 0.0
C2918 C 0.14508 0.76404 0.72827 0.0
C2919 C 0.12579 0.77617 0.7394 0.0
C2920 C 0.17177 0.77041 0.74064 0.0
C2921 C 0.13426 0.79438 0.76411 0.0
C2922 C 0.16085 0.80093 0.77648 0.0
C2923 C 0.2073 0.79719 0.77572 0.0
C2924 C 0.22631 0.78534 0.76345 0.0
C2925 C 0.18006 0.78955 0.76463 0.0
C2926 C 0.21713 0.76587 0.73999 0.0
C2927 C 0.19054 0.75862 0.72875 0.0
H2928 H 0.09744 0.43907 0.39705 0.0
H2929 H 0.06397 0.38135 0.44692 0.0
H2930 H 0.05507 0.41546 0.47971 0.0
H2931 H 0.05648 0.46159 0.49578 0.0
H2932 H 0.09209 0.52141 0.44982 0.0
H2933 H 0.10029 0.4872 0.41495 0.0
C2934 C 0.08807 0.43395 0.41497 0.0
C2935 C 0.08106 0.40701 0.41862 0.0
C2936 C 0.08346 0.45432 0.43506 0.0
C2937 C 0.06931 0.40135 0.44257 0.0
C2938 C 0.06426 0.42108 0.46183 0.0
C2939 C 0.06632 0.46743 0.47841 0.0
C2940 C 0.07374 0.49447 0.47604 0.0
C2941 C 0.07127 0.44762 0.45847 0.0
C2942 C 0.08619 0.50098 0.45275 0.0
C2943 C 0.09085 0.48127 0.43256 0.0
H2944 H 0.45226 0.26428 0.205 0.0
H2945 H 0.49503 0.26868 0.28728 0.0
H2946 H 0.45735 0.27788 0.30865 0.0
H2947 H 0.41145 0.28586 0.30466 0.0
H2948 H 0.36805 0.2781 0.22208 0.0
H2949 H 0.40578 0.2693 0.20098 0.0
C2950 C 0.45344 0.26695 0.22765 0.0
C2951 C 0.47727 0.26551 0.24416 0.0
C2952 C 0.43108 0.27193 0.24012 0.0
C2953 C 0.47752 0.26925 0.27357 0.0
C2954 C 0.45572 0.27474 0.28596 0.0
C2955 C 0.4101 0.28224 0.28201 0.0
C2956 C 0.3861 0.28294 0.26531 0.0
C2957 C 0.43226 0.27635 0.26959 0.0
C2958 C 0.38558 0.27783 0.23593 0.0
C2959 C 0.40746 0.27274 0.22366 0.0
H2960 H 0.60077 0.5846 0.37698 0.0
H2961 H 0.67637 0.57289 0.41014 0.0
H2962 H 0.6613 0.56498 0.45451 0.0
H2963 H 0.6265 0.55999 0.48407 0.0
H2964 H 0.55179 0.57507 0.45304 0.0
H2965 H 0.56645 0.58251 0.40816 0.0
C2966 C 0.61401 0.58057 0.394 0.0
C2967 C 0.63972 0.57926 0.38985 0.0
C2968 C 0.60524 0.57617 0.41998 0.0
C2969 C 0.65649 0.57403 0.41238 0.0
C2970 C 0.64786 0.56937 0.43792 0.0
C2971 C 0.61334 0.56485 0.46753 0.0
C2972 C 0.58775 0.56619 0.472 0.0
C2973 C 0.62222 0.57009 0.44193 0.0
C2974 C 0.5713 0.573 0.45021 0.0
C2975 C 0.57979 0.5776 0.42448 0.0
H2976 H 0.35826 0.95549 0.10397 0.0
H2977 H 0.34164 0.87083 0.08201 0.0
H2978 H 0.35294 0.8656 0.1307 0.0
H2979 H 0.36984 0.88461 0.1789 0.0
H2980 H 0.38797 0.96891 0.2023 0.0
H2981 H 0.37433 0.97471 0.15351 0.0
C2982 C 0.35722 0.93595 0.10989 0.0
C2983 C 0.34974 0.91367 0.0892 0.0
C2984 C 0.36446 0.93299 0.13805 0.0
C2985 C 0.34784 0.88841 0.09732 0.0
C2986 C 0.35434 0.88533 0.1252 0.0
C2987 C 0.37077 0.9043 0.17336 0.0
C2988 C 0.37978 0.92629 0.19406 0.0
C2989 C 0.36314 0.90745 0.14558 0.0
C2990 C 0.38131 0.9517 0.18657 0.0
C2991 C 0.37346 0.95501 0.15879 0.0
H2992 H 0.95853 0.57573 0.89772 0.0
H2993 H 0.99912 0.52212 0.85591 0.0
H2994 H 1.02563 0.52084 0.90023 0.0
H2995 H 0.03544 0.53314 0.9512 0.0
H2996 H 0.99783 0.59022 0.99214 0.0
H2997 H 0.97158 0.59151 0.94787 0.0
C2998 C 0.97326 0.56387 0.89836 0.0
C2999 C 0.97666 0.54879 0.87379 0.0
C3000 C 0.98883 0.56371 0.92373 0.0
C3001 C 0.99603 0.53378 0.87466 0.0
C3002 C 1.01119 0.53301 0.89997 0.0
C3003 C 1.0222 0.54651 0.95035 0.0
C3004 C 1.01893 0.56173 0.97494 0.0
C3005 C 1.0076 0.54774 0.92468 0.0
C3006 C 1.00081 0.57822 0.97353 0.0
C3007 C 0.98574 0.57902 0.94822 0.0
H3008 H 0.29147 0.21818 0.62158 0.0
H3009 H 0.27737 0.29282 0.60067 0.0
H3010 H 0.28272 0.31018 0.65037 0.0
H3011 H 0.29165 0.30462 0.70021 0.0
H3012 H 0.30346 0.22938 0.72141 0.0
H3013 H 0.29877 0.21209 0.67169 0.0
C3014 C 0.28983 0.23832 0.62787 0.0
C3015 C 0.2842 0.25413 0.60712 0.0
C3016 C 0.29246 0.2482 0.65678 0.0
C3017 C 0.28172 0.28009 0.61595 0.0
C3018 C 0.28475 0.29011 0.64449 0.0
C3019 C 0.29307 0.28439 0.694 0.0
C3020 C 0.29845 0.26858 0.71478 0.0
C3021 C 0.29006 0.27437 0.66515 0.0
C3022 C 0.29992 0.2423 0.70607 0.0
C3023 C 0.29715 0.2323 0.67751 0.0
H3024 H 0.58513 0.5863 0.23059 0.0
H3025 H 0.65753 0.5602 0.22887 0.0
H3026 H 0.64958 0.55234 0.17765 0.0
H3027 H 0.62247 0.55383 0.1329 0.0
H3028 H 0.5484 0.57634 0.13519 0.0
H3029 H 0.557 0.58533 0.1861 0.0
C3030 C 0.59915 0.5788 0.21906 0.0
C3031 C 0.62193 0.57393 0.23381 0.0
C3032 C 0.5943 0.5739 0.18945 0.0
C3033 C 0.63974 0.56405 0.21829 0.0
C3034 C 0.63526 0.55961 0.18888 0.0
C3035 C 0.60796 0.56016 0.14449 0.0
C3036 C 0.58482 0.56436 0.12985 0.0
C3037 C 0.61261 0.56449 0.17416 0.0
C3038 C 0.56661 0.57327 0.14554 0.0
C3039 C 0.5714 0.57826 0.17485 0.0
H3040 H 0.33773 0.88137 0.95768 0.0
H3041 H 0.28363 0.92534 0.92297 0.0
H3042 H 0.27632 0.89573 0.8783 0.0
H3043 H 0.28449 0.85658 0.8505 0.0
H3044 H 0.34347 0.8171 0.88379 0.0
H3045 H 0.34928 0.84557 0.92864 0.0
C3046 C 0.32447 0.88471 0.94043 0.0
C3047 C 0.31106 0.90535 0.94363 0.0
C3048 C 0.32112 0.8683 0.91491 0.0
C3049 C 0.29412 0.90951 0.92087 0.0
C3050 C 0.28991 0.89257 0.89549 0.0
C3051 C 0.29911 0.8546 0.86725 0.0
C3052 C 0.31377 0.83496 0.8637 0.0
C3053 C 0.30324 0.87183 0.89241 0.0
C3054 C 0.3319 0.83201 0.88604 0.0
C3055 C 0.33532 0.84836 0.91159 0.0
H3056 H 0.97996 0.48746 0.72645 0.0
H3057 H 0.91256 0.52284 0.71834 0.0
H3058 H 0.90592 0.50958 0.66763 0.0
H3059 H 0.9185 0.48667 0.62565 0.0
H3060 H 0.98664 0.45283 0.63403 0.0
H3061 H 0.99315 0.46587 0.68489 0.0
C3062 C 0.9638 0.49235 0.71368 0.0
C3063 C 0.9467 0.50599 0.72629 0.0
C3064 C 0.95978 0.48427 0.68469 0.0
C3065 C 0.92599 0.51226 0.70926 0.0
C3066 C 0.92206 0.50456 0.68026 0.0
C3067 C 0.93449 0.48186 0.6388 0.0
C3068 C 0.95181 0.46843 0.62649 0.0
C3069 C 0.93857 0.49016 0.66782 0.0
C3070 C 0.97289 0.4628 0.64336 0.0
C3071 C 0.9767 0.47041 0.6723 0.0
H3072 H 0.31876 0.25117 0.46702 0.0
H3073 H 0.24477 0.1999 0.43536 0.0
H3074 H 0.24688 0.21421 0.38883 0.0
H3075 H 0.27018 0.24194 0.35689 0.0
H3076 H 0.34676 0.28873 0.38879 0.0
H3077 H 0.34315 0.2758 0.43481 0.0
C3078 C 0.30303 0.24327 0.44994 0.0
C3079 C 0.28142 0.22486 0.45476 0.0
C3080 C 0.30486 0.25088 0.42303 0.0
C3081 C 0.26148 0.21431 0.43225 0.0
C3082 C 0.26275 0.22248 0.40561 0.0
C3083 C 0.28612 0.24919 0.37384 0.0
C3084 C 0.30844 0.26701 0.36907 0.0
C3085 C 0.2844 0.24081 0.40064 0.0
C3086 C 0.32899 0.27565 0.39151 0.0
C3087 C 0.32706 0.26814 0.41809 0.0
H3088 H 0.368 0.66561 0.55817 0.0
H3089 H 0.32745 0.58966 0.57316 0.0
H3090 H 0.36444 0.57044 0.56284 0.0
H3091 H 0.40471 0.57384 0.54179 0.0
H3092 H 0.44425 0.64972 0.52528 0.0
H3093 H 0.4111 0.67027 0.54379 0.0
C3094 C 0.36749 0.64498 0.55981 0.0
C3095 C 0.3449 0.62897 0.56588 0.0
C3096 C 0.38841 0.63392 0.55301 0.0
C3097 C 0.3446 0.60237 0.56834 0.0
C3098 C 0.36565 0.59131 0.56219 0.0
C3099 C 0.40649 0.59498 0.54292 0.0
C3100 C 0.42681 0.61012 0.53178 0.0
C3101 C 0.38714 0.60667 0.55328 0.0
C3102 C 0.42862 0.63748 0.53323 0.0
C3103 C 0.40969 0.6493 0.54389 0.0
H3104 H 0.93756 0.9112 0.55156 0.0
H3105 H 0.8858 0.9654 0.54539 0.0
H3106 H 0.92236 1.0013 0.54336 0.0
H3107 H 0.96903 1.0171 0.54223 0.0
H3108 H 1.02116 0.96371 0.55276 0.0
H3109 H 0.98469 0.92794 0.55412 0.0
C3110 C 0.93435 0.93089 0.54984 0.0
C3111 C 0.909 0.93556 0.54849 0.0
C3112 C 0.95556 0.95165 0.54934 0.0
C3113 C 0.90515 0.96127 0.5466 0.0
C3114 C 0.92604 0.98182 0.54532 0.0
C3115 C 0.97248 0.99773 0.54488 0.0
C3116 C 0.99797 0.99328 0.547 0.0
C3117 C 0.95135 0.97723 0.5465 0.0
C3118 C 1.00189 0.96793 0.5509 0.0
C3119 C 0.98096 0.94731 0.55166 0.0
H3120 H 0.90724 0.07288 0.27219 0.0
H3121 H 0.98526 0.11129 0.26445 0.0
H3122 H 0.97236 0.15394 0.2669 0.0
H3123 H 0.94015 0.18055 0.27593 0.0
H3124 H 0.86379 0.14246 0.29031 0.0
H3125 H 0.8745 0.09951 0.27968 0.0
C3126 C 0.92122 0.09055 0.27041 0.0
C3127 C 0.94709 0.08909 0.26803 0.0
C3128 C 0.91397 0.11509 0.27318 0.0
C3129 C 0.96522 0.11208 0.26628 0.0
C3130 C 0.95788 0.13642 0.26778 0.0
C3131 C 0.92583 0.16291 0.27688 0.0
C3132 C 0.90125 0.16496 0.28416 0.0
C3133 C 0.93251 0.13824 0.2721 0.0
C3134 C 0.88276 0.1417 0.28443 0.0
C3135 C 0.88894 0.11702 0.27863 0.0
H3136 H 0.70191 0.09615 0.04332 0.0
H3137 H 0.67697 0.16915 0.06323 0.0
H3138 H 0.63632 0.14514 0.07508 0.0
H3139 H 0.60568 0.10329 0.07411 0.0
H3140 H 0.62809 0.03017 0.04892 0.0
H3141 H 0.67201 0.05402 0.0452 0.0
C3142 C 0.68757 0.1067 0.05039 0.0
C3143 C 0.69217 0.13426 0.05207 0.0
C3144 C 0.66386 0.0927 0.0563 0.0
C3145 C 0.67358 0.14785 0.06132 0.0
C3146 C 0.65049 0.13419 0.0684 0.0
C3147 C 0.62052 0.0927 0.06858 0.0
C3148 C 0.61408 0.06529 0.0617 0.0
C3149 C 0.64514 0.10661 0.06527 0.0
C3150 C 0.633 0.05142 0.05432 0.0
C3151 C 0.65792 0.06504 0.05195 0.0
H3152 H 0.25851 0.52389 0.27166 0.0
H3153 H 0.1807 0.4938 0.28798 0.0
H3154 H 0.19273 0.45262 0.29789 0.0
H3155 H 0.22707 0.42851 0.30941 0.0
H3156 H 0.30549 0.45992 0.29605 0.0
H3157 H 0.29149 0.49712 0.27714 0.0
C3158 C 0.24402 0.50805 0.27665 0.0
C3159 C 0.21895 0.51196 0.27964 0.0
C3160 C 0.25131 0.48486 0.28331 0.0
C3161 C 0.20028 0.49129 0.28596 0.0
C3162 C 0.20715 0.46782 0.29177 0.0
C3163 C 0.24097 0.44342 0.30208 0.0
C3164 C 0.26726 0.44187 0.30451 0.0
C3165 C 0.23291 0.46496 0.29184 0.0
C3166 C 0.28511 0.46084 0.2944 0.0
C3167 C 0.27716 0.48214 0.28372 0.0
H3168 H 0.2771 0.46523 0.05878 0.0
H3169 H 0.24074 0.38418 0.06014 0.0
H3170 H 0.19786 0.39548 0.05528 0.0
H3171 H 0.17071 0.42765 0.04712 0.0
H3172 H 0.20708 0.50774 0.04043 0.0
H3173 H 0.24983 0.49773 0.05163 0.0
C3174 C 0.25979 0.45017 0.05851 0.0
C3175 C 0.26199 0.42395 0.05987 0.0
C3176 C 0.23518 0.45663 0.05465 0.0
C3177 C 0.23945 0.40451 0.05908 0.0
C3178 C 0.21496 0.41094 0.05623 0.0
C3179 C 0.18794 0.44293 0.04793 0.0
C3180 C 0.18547 0.4684 0.04278 0.0
C3181 C 0.21257 0.43681 0.0533 0.0
C3182 C 0.20817 0.48804 0.04467 0.0
C3183 C 0.23273 0.48229 0.05083 0.0
H3184 H 0.90537 0.96447 0.29749 0.0
H3185 H 0.9525 0.91652 0.25806 0.0
H3186 H 0.91792 0.87739 0.25493 0.0
H3187 H 0.87549 0.85662 0.26542 0.0
H3188 H 0.83002 0.90331 0.30974 0.0
H3189 H 0.86251 0.94314 0.30863 0.0
C3190 C 0.90783 0.94547 0.28791 0.0
C3191 C 0.9313 0.9433 0.27781 0.0
C3192 C 0.88823 0.92286 0.28717 0.0
C3193 C 0.93457 0.91857 0.26594 0.0
C3194 C 0.91483 0.89623 0.26418 0.0
C3195 C 0.87253 0.87542 0.27486 0.0
C3196 C 0.85012 0.87679 0.28751 0.0
C3197 C 0.89176 0.89809 0.2751 0.0
C3198 C 0.84684 0.90154 0.29955 0.0
C3199 C 0.86553 0.92438 0.29907 0.0
H3200 H 0.77252 0.1628 0.79098 0.0
H3201 H 0.7 0.18676 0.76862 0.0
H3202 H 0.72334 0.22891 0.75928 0.0
H3203 H 0.76406 0.25998 0.75961 0.0
H3204 H 0.83691 0.23922 0.78634 0.0
H3205 H 0.81403 0.19449 0.79085 0.0
C3206 C 0.76194 0.17727 0.78398 0.0
C3207 C 0.73462 0.17175 0.78073 0.0
C3208 C 0.77554 0.20189 0.77916 0.0
C3209 C 0.72106 0.19065 0.77169 0.0
C3210 C 0.73434 0.21469 0.76608 0.0
C3211 C 0.7748 0.24554 0.76641 0.0
C3212 C 0.80178 0.25259 0.7732 0.0
C3213 C 0.76151 0.22062 0.77006 0.0
C3214 C 0.81593 0.23389 0.78119 0.0
C3215 C 0.80286 0.20853 0.78398 0.0
loop_
_geom_bond_atom_site_label_1
_geom_bond_atom_site_label_2
_geom_bond_distance
_geom_bond_site_symmetry_2
_ccdc_geom_bond_type
Co0 O1 2.216 . S
Co0 O2 2.091 . S
Co0 O4 2.004 . S
Co0 O10 2.021 . S
Co0 O12 2.137 . S
Co0 O13 2.244 . S
O1 Co0 2.216 . S
O1 C8 1.247 . S
O2 Co0 2.091 . S
O2 C8 1.261 . S
C3 O12 1.247 . S
C3 O13 1.272 . S
O4 Co0 2.004 . S
O4 C9 1.259 1_455 S
Co5 O6 2.061 1_455 S
Co5 O11 2.052 . S
Co5 O13 2.135 . S
O6 Co5 2.061 1_655 S
O6 C9 1.235 . S
C7 O10 1.238 . S
C7 O11 1.241 . S
C8 O1 1.247 . S
C8 O2 1.261 . S
C9 O4 1.259 1_655 S
C9 O6 1.235 . S
O10 Co0 2.021 . S
O10 C7 1.238 . S
O11 Co5 2.052 . S
O11 C7 1.241 . S
O12 Co0 2.137 . S
O12 C3 1.247 . S
O13 Co0 2.244 . S
O13 C3 1.272 . S
O13 Co5 2.135 . S
Co14 O15 2.216 1_455 S
Co14 O16 2.091 1_455 S
Co14 O18 2.004 . S
Co14 O24 2.021 . S
Co14 O26 2.137 . S
Co14 O27 2.244 . S
O15 Co14 2.216 1_655 S
O15 C22 1.247 . S
O16 Co14 2.091 1_655 S
O16 C22 1.261 . S
C17 O26 1.247 . S
C17 O27 1.272 . S
O18 Co14 2.004 . S
O18 C23 1.259 . S
Co19 O20 2.061 . S
Co19 O25 2.052 . S
Co19 O27 2.135 . S
O20 Co19 2.061 . S
O20 C23 1.235 . S
C21 O24 1.238 . S
C21 O25 1.241 . S
C22 O15 1.247 . S
C22 O16 1.261 . S
C23 O18 1.259 . S
C23 O20 1.235 . S
O24 Co14 2.021 . S
O24 C21 1.238 . S
O25 Co19 2.052 . S
O25 C21 1.241 . S
O26 Co14 2.137 . S
O26 C17 1.247 . S
O27 Co14 2.244 . S
O27 C17 1.272 . S
O27 Co19 2.135 . S
Co28 O29 2.216 . S
Co28 O30 2.091 . S
Co28 O32 2.004 . S
Co28 O38 2.021 . S
Co28 O40 2.137 . S
Co28 O41 2.244 . S
O29 Co28 2.216 . S
O29 C36 1.247 . S
O30 Co28 2.091 . S
O30 C36 1.261 . S
C31 O40 1.247 . S
C31 O41 1.272 . S
O32 Co28 2.004 . S
O32 C37 1.259 . S
Co33 O34 2.061 . S
Co33 O39 2.052 . S
Co33 O41 2.135 . S
O34 Co33 2.061 . S
O34 C37 1.235 . S
C35 O38 1.238 . S
C35 O39 1.241 . S
C36 O29 1.247 . S
C36 O30 1.261 . S
C37 O32 1.259 . S
C37 O34 1.235 . S
O38 Co28 2.021 . S
O38 C35 1.238 . S
O39 Co33 2.052 . S
O39 C35 1.241 . S
O40 Co28 2.137 . S
O40 C31 1.247 . S
O41 Co28 2.244 . S
O41 C31 1.272 . S
O41 Co33 2.135 . S
Co42 O43 2.216 . S
Co42 O44 2.091 . S
Co42 O46 2.004 . S
Co42 O52 2.021 . S
Co42 O54 2.137 . S
Co42 O55 2.244 . S
O43 Co42 2.216 . S
O43 C50 1.247 . S
O44 Co42 2.091 . S
O44 C50 1.261 . S
C45 O54 1.247 . S
C45 O55 1.272 . S
O46 Co42 2.004 . S
O46 C51 1.259 . S
Co47 O48 2.061 . S
Co47 O53 2.052 . S
Co47 O55 2.135 . S
O48 Co47 2.061 . S
O48 C51 1.235 . S
C49 O52 1.238 . S
C49 O53 1.241 . S
C50 O43 1.247 . S
C50 O44 1.261 . S
C51 O46 1.259 . S
C51 O48 1.235 . S
O52 Co42 2.021 . S
O52 C49 1.238 . S
O53 Co47 2.052 . S
O53 C49 1.241 . S
O54 Co42 2.137 . S
O54 C45 1.247 . S
O55 Co42 2.244 . S
O55 C45 1.272 . S
O55 Co47 2.135 . S
Co56 O57 2.216 . S
Co56 O58 2.091 . S
Co56 O60 2.004 . S
Co56 O66 2.021 . S
Co56 O68 2.137 . S
Co56 O69 2.244 . S
O57 Co56 2.216 . S
O57 C64 1.247 . S
O58 Co56 2.091 . S
O58 C64 1.261 . S
C59 O68 1.247 . S
C59 O69 1.272 . S
O60 Co56 2.004 . S
O60 C65 1.259 . S
Co61 O62 2.061 . S
Co61 O67 2.052 . S
Co61 O69 2.135 . S
O62 Co61 2.061 . S
O62 C65 1.235 . S
C63 O66 1.238 . S
C63 O67 1.241 . S
C64 O57 1.247 . S
C64 O58 1.261 . S
C65 O60 1.259 . S
C65 O62 1.235 . S
O66 Co56 2.021 . S
O66 C63 1.238 . S
O67 Co61 2.052 . S
O67 C63 1.241 . S
O68 Co56 2.137 . S
O68 C59 1.247 . S
O69 Co56 2.244 . S
O69 C59 1.272 . S
O69 Co61 2.135 . S
Co70 O71 2.216 . S
Co70 O72 2.091 . S
Co70 O74 2.004 . S
Co70 O80 2.021 . S
Co70 O82 2.137 . S
Co70 O83 2.244 . S
O71 Co70 2.216 . S
O71 C78 1.247 . S
O72 Co70 2.091 . S
O72 C78 1.261 . S
C73 O82 1.247 . S
C73 O83 1.272 . S
O74 Co70 2.004 . S
O74 C79 1.259 . S
Co75 O76 2.061 . S
Co75 O81 2.052 . S
Co75 O83 2.135 . S
O76 Co75 2.061 . S
O76 C79 1.235 . S
C77 O80 1.238 . S
C77 O81 1.241 . S
C78 O71 1.247 . S
C78 O72 1.261 . S
C79 O74 1.259 . S
C79 O76 1.235 . S
O80 Co70 2.021 . S
O80 C77 1.238 . S
O81 Co75 2.052 . S
O81 C77 1.241 . S
O82 Co70 2.137 . S
O82 C73 1.247 . S
O83 Co70 2.244 . S
O83 C73 1.272 . S
O83 Co75 2.135 . S
Co84 O85 2.216 . S
Co84 O86 2.091 . S
Co84 O88 2.004 . S
Co84 O94 2.021 . S
Co84 O96 2.137 . S
Co84 O97 2.244 . S
O85 Co84 2.216 . S
O85 C92 1.247 . S
O86 Co84 2.091 . S
O86 C92 1.261 . S
C87 O96 1.247 . S
C87 O97 1.272 . S
O88 Co84 2.004 . S
O88 C93 1.259 . S
Co89 O90 2.061 . S
Co89 O95 2.052 . S
Co89 O97 2.135 . S
O90 Co89 2.061 . S
O90 C93 1.235 . S
C91 O94 1.238 . S
C91 O95 1.241 . S
C92 O85 1.247 . S
C92 O86 1.261 . S
C93 O88 1.259 . S
C93 O90 1.235 . S
O94 Co84 2.021 . S
O94 C91 1.238 . S
O95 Co89 2.052 . S
O95 C91 1.241 . S
O96 Co84 2.137 . S
O96 C87 1.247 . S
O97 Co84 2.244 . S
O97 C87 1.272 . S
O97 Co89 2.135 . S
Co98 O99 2.216 . S
Co98 O100 2.091 . S
Co98 O102 2.004 1_455 S
Co98 O108 2.020 . S
Co98 O110 2.137 . S
Co98 O111 2.244 1_455 S
O99 Co98 2.216 . S
O99 C106 1.247 . S
O100 Co98 2.091 . S
O100 C106 1.261 . S
C101 O110 1.247 . S
C101 O111 1.272 1_455 S
O102 Co98 2.004 1_655 S
O102 C107 1.259 . S
Co103 O104 2.073 . S
Co103 O109 2.052 . S
Co103 O111 2.140 . S
O104 Co103 2.073 . S
O104 C107 1.235 . S
C105 O108 1.228 1_655 S
C105 O109 1.241 . S
C106 O99 1.247 . S
C106 O100 1.261 . S
C107 O102 1.259 . S
C107 O104 1.235 . S
O108 Co98 2.020 . S
O108 C105 1.228 1_455 S
O109 Co103 2.052 . S
O109 C105 1.241 . S
O110 Co98 2.137 . S
O110 C101 1.247 . S
O111 Co98 2.244 1_655 S
O111 C101 1.272 1_655 S
O111 Co103 2.140 . S
Co112 O113 2.216 . S
Co112 O114 2.091 . S
Co112 O116 2.004 1_545 S
Co112 O122 2.021 . S
Co112 O124 2.137 . S
Co112 O125 2.244 . S
O113 Co112 2.216 . S
O113 C120 1.247 . S
O114 Co112 2.091 . S
O114 C120 1.261 . S
C115 O124 1.247 . S
C115 O125 1.272 . S
O116 Co112 2.004 1_565 S
O116 C121 1.259 . S
Co117 O118 2.061 . S
Co117 O123 2.052 . S
Co117 O125 2.135 1_565 S
O118 Co117 2.061 . S
O118 C121 1.235 . S
C119 O122 1.238 . S
C119 O123 1.241 1_545 S
C120 O113 1.247 . S
C120 O114 1.261 . S
C121 O116 1.259 . S
C121 O118 1.235 . S
O122 Co112 2.021 . S
O122 C119 1.238 . S
O123 Co117 2.052 . S
O123 C119 1.241 1_565 S
O124 Co112 2.137 . S
O124 C115 1.247 . S
O125 Co112 2.244 . S
O125 C115 1.272 . S
O125 Co117 2.135 1_545 S
Co126 O127 2.216 . S
Co126 O128 2.091 . S
Co126 O130 2.004 . S
Co126 O136 2.021 . S
Co126 O138 2.137 . S
Co126 O139 2.244 . S
O127 Co126 2.216 . S
O127 C134 1.247 . S
O128 Co126 2.091 . S
O128 C134 1.261 . S
C129 O138 1.247 . S
C129 O139 1.272 . S
O130 Co126 2.004 . S
O130 C135 1.259 . S
Co131 O132 2.061 . S
Co131 O137 2.052 . S
Co131 O139 2.135 . S
O132 Co131 2.061 . S
O132 C135 1.235 . S
C133 O136 1.238 . S
C133 O137 1.241 . S
C134 O127 1.247 . S
C134 O128 1.261 . S
C135 O130 1.259 . S
C135 O132 1.235 . S
O136 Co126 2.021 . S
O136 C133 1.238 . S
O137 Co131 2.052 . S
O137 C133 1.241 . S
O138 Co126 2.137 . S
O138 C129 1.247 . S
O139 Co126 2.244 . S
O139 C129 1.272 . S
O139 Co131 2.135 . S
Co140 O141 2.216 . S
Co140 O142 2.091 . S
Co140 O144 2.004 . S
Co140 O150 2.021 . S
Co140 O152 2.137 . S
Co140 O153 2.244 . S
O141 Co140 2.216 . S
O141 C148 1.247 . S
O142 Co140 2.091 . S
O142 C148 1.261 . S
C143 O152 1.247 . S
C143 O153 1.272 . S
O144 Co140 2.004 . S
O144 C149 1.259 . S
Co145 O146 2.061 . S
Co145 O151 2.052 . S
Co145 O153 2.135 . S
O146 Co145 2.061 . S
O146 C149 1.235 . S
C147 O150 1.238 . S
C147 O151 1.241 . S
C148 O141 1.247 . S
C148 O142 1.261 . S
C149 O144 1.259 . S
C149 O146 1.235 . S
O150 Co140 2.021 . S
O150 C147 1.238 . S
O151 Co145 2.052 . S
O151 C147 1.241 . S
O152 Co140 2.137 . S
O152 C143 1.247 . S
O153 Co140 2.244 . S
O153 C143 1.272 . S
O153 Co145 2.135 . S
Co154 O155 2.216 . S
Co154 O156 2.091 1_556 S
Co154 O158 2.003 . S
Co154 O164 2.021 1_556 S
Co154 O166 2.137 . S
Co154 O167 2.244 . S
O155 Co154 2.216 . S
O155 C162 1.247 . S
O156 Co154 2.091 1_554 S
O156 C162 1.261 1_554 S
C157 O166 1.247 . S
C157 O167 1.272 . S
O158 Co154 2.003 . S
O158 C163 1.258 1_556 S
Co159 O160 2.061 1_556 S
Co159 O165 2.052 1_556 S
Co159 O167 2.135 . S
O160 Co159 2.061 1_554 S
O160 C163 1.235 . S
C161 O164 1.238 . S
C161 O165 1.241 . S
C162 O155 1.247 . S
C162 O156 1.261 1_556 S
C163 O158 1.258 1_554 S
C163 O160 1.235 . S
O164 Co154 2.021 1_554 S
O164 C161 1.238 . S
O165 Co159 2.052 1_554 S
O165 C161 1.241 . S
O166 Co154 2.137 . S
O166 C157 1.247 . S
O167 Co154 2.244 . S
O167 C157 1.272 . S
O167 Co159 2.135 . S
Co168 O169 2.216 . S
Co168 O170 2.091 . S
Co168 O172 2.004 . S
Co168 O178 2.021 . S
Co168 O180 2.137 . S
Co168 O181 2.244 . S
O169 Co168 2.216 . S
O169 C176 1.247 . S
O170 Co168 2.091 . S
O170 C176 1.261 . S
C171 O180 1.247 . S
C171 O181 1.272 . S
O172 Co168 2.004 . S
O172 C177 1.259 . S
Co173 O174 2.061 . S
Co173 O179 2.052 . S
Co173 O181 2.135 . S
O174 Co173 2.061 . S
O174 C177 1.235 . S
C175 O178 1.238 . S
C175 O179 1.241 . S
C176 O169 1.247 . S
C176 O170 1.261 . S
C177 O172 1.259 . S
C177 O174 1.235 . S
O178 Co168 2.021 . S
O178 C175 1.238 . S
O179 Co173 2.052 . S
O179 C175 1.241 . S
O180 Co168 2.137 . S
O180 C171 1.247 . S
O181 Co168 2.244 . S
O181 C171 1.272 . S
O181 Co173 2.135 . S
Co182 O183 2.216 . S
Co182 O184 2.091 . S
Co182 O186 2.004 . S
Co182 O192 2.021 . S
Co182 O194 2.137 . S
Co182 O195 2.244 . S
O183 Co182 2.216 . S
O183 C190 1.247 . S
O184 Co182 2.091 . S
O184 C190 1.261 . S
C185 O194 1.247 . S
C185 O195 1.272 . S
O186 Co182 2.004 . S
O186 C191 1.259 . S
Co187 O188 2.061 . S
Co187 O193 2.052 . S
Co187 O195 2.135 . S
O188 Co187 2.061 . S
O188 C191 1.235 . S
C189 O192 1.238 . S
C189 O193 1.241 . S
C190 O183 1.247 . S
C190 O184 1.261 . S
C191 O186 1.259 . S
C191 O188 1.235 . S
O192 Co182 2.021 . S
O192 C189 1.238 . S
O193 Co187 2.052 . S
O193 C189 1.241 . S
O194 Co182 2.137 . S
O194 C185 1.247 . S
O195 Co182 2.244 . S
O195 C185 1.272 . S
O195 Co187 2.135 . S
Co196 O197 2.216 . S
Co196 O198 2.091 . S
Co196 O200 2.004 . S
Co196 O206 2.021 . S
Co196 O208 2.137 . S
Co196 O209 2.244 . S
O197 Co196 2.216 . S
O197 C204 1.247 . S
O198 Co196 2.091 . S
O198 C204 1.261 . S
C199 O208 1.247 . S
C199 O209 1.272 . S
O200 Co196 2.004 . S
O200 C205 1.259 . S
Co201 O202 2.061 . S
Co201 O207 2.052 . S
Co201 O209 2.135 . S
O202 Co201 2.061 . S
O202 C205 1.235 . S
C203 O206 1.238 . S
C203 O207 1.241 . S
C204 O197 1.247 . S
C204 O198 1.261 . S
C205 O200 1.259 . S
C205 O202 1.235 . S
O206 Co196 2.021 . S
O206 C203 1.238 . S
O207 Co201 2.052 . S
O207 C203 1.241 . S
O208 Co196 2.137 . S
O208 C199 1.247 . S
O209 Co196 2.244 . S
O209 C199 1.272 . S
O209 Co201 2.135 . S
Co210 O211 2.216 . S
Co210 O212 2.091 . S
Co210 O214 2.004 . S
Co210 O220 2.021 . S
Co210 O222 2.137 . S
Co210 O223 2.244 . S
O211 Co210 2.216 . S
O211 C218 1.247 . S
O212 Co210 2.091 . S
O212 C218 1.261 . S
C213 O222 1.247 . S
C213 O223 1.272 . S
O214 Co210 2.004 . S
O214 C219 1.259 . S
Co215 O216 2.061 . S
Co215 O221 2.052 . S
Co215 O223 2.135 . S
O216 Co215 2.061 . S
O216 C219 1.235 . S
C217 O220 1.238 . S
C217 O221 1.241 . S
C218 O211 1.247 . S
C218 O212 1.261 . S
C219 O214 1.259 . S
C219 O216 1.235 . S
O220 Co210 2.021 . S
O220 C217 1.238 . S
O221 Co215 2.052 . S
O221 C217 1.241 . S
O222 Co210 2.137 . S
O222 C213 1.247 . S
O223 Co210 2.244 . S
O223 C213 1.272 . S
O223 Co215 2.135 . S
Co224 O225 2.216 . S
Co224 O226 2.091 . S
Co224 O228 2.004 1_545 S
Co224 O234 2.021 . S
Co224 O236 2.137 . S
Co224 O237 2.244 . S
O225 Co224 2.216 . S
O225 C232 1.247 . S
O226 Co224 2.091 . S
O226 C232 1.261 . S
C227 O236 1.247 . S
C227 O237 1.272 . S
O228 Co224 2.004 1_565 S
O228 C233 1.259 . S
Co229 O230 2.061 . S
Co229 O235 2.052 1_565 S
Co229 O237 2.135 1_565 S
O230 Co229 2.061 . S
O230 C233 1.235 . S
C231 O234 1.238 . S
C231 O235 1.241 . S
C232 O225 1.247 . S
C232 O226 1.261 . S
C233 O228 1.259 . S
C233 O230 1.235 . S
O234 Co224 2.021 . S
O234 C231 1.238 . S
O235 Co229 2.052 1_545 S
O235 C231 1.241 . S
O236 Co224 2.137 . S
O236 C227 1.247 . S
O237 Co224 2.244 . S
O237 C227 1.272 . S
O237 Co229 2.135 1_545 S
Co238 O239 2.216 . S
Co238 O240 2.091 . S
Co238 O242 2.004 . S
Co238 O248 2.021 . S
Co238 O250 2.137 . S
Co238 O251 2.244 . S
O239 Co238 2.216 . S
O239 C246 1.247 . S
O240 Co238 2.091 . S
O240 C246 1.261 . S
C241 O250 1.247 . S
C241 O251 1.272 . S
O242 Co238 2.004 . S
O242 C247 1.259 . S
Co243 O244 2.061 . S
Co243 O249 2.052 . S
Co243 O251 2.135 . S
O244 Co243 2.061 . S
O244 C247 1.235 . S
C245 O248 1.238 . S
C245 O249 1.241 . S
C246 O239 1.247 . S
C246 O240 1.261 . S
C247 O242 1.259 . S
C247 O244 1.235 . S
O248 Co238 2.021 . S
O248 C245 1.238 . S
O249 Co243 2.052 . S
O249 C245 1.241 . S
O250 Co238 2.137 . S
O250 C241 1.247 . S
O251 Co238 2.244 . S
O251 C241 1.272 . S
O251 Co243 2.135 . S
Co252 O253 2.216 . S
Co252 O254 2.091 . S
Co252 O256 2.004 . S
Co252 O262 2.021 . S
Co252 O264 2.137 . S
Co252 O265 2.244 . S
O253 Co252 2.216 . S
O253 C260 1.247 . S
O254 Co252 2.091 . S
O254 C260 1.261 . S
C255 O264 1.247 . S
C255 O265 1.272 . S
O256 Co252 2.004 . S
O256 C261 1.259 . S
Co257 O258 2.061 . S
Co257 O263 2.052 . S
Co257 O265 2.135 . S
O258 Co257 2.061 . S
O258 C261 1.235 . S
C259 O262 1.238 . S
C259 O263 1.241 . S
C260 O253 1.247 . S
C260 O254 1.261 . S
C261 O256 1.259 . S
C261 O258 1.235 . S
O262 Co252 2.021 . S
O262 C259 1.238 . S
O263 Co257 2.052 . S
O263 C259 1.241 . S
O264 Co252 2.137 . S
O264 C255 1.247 . S
O265 Co252 2.244 . S
O265 C255 1.272 . S
O265 Co257 2.135 . S
Co266 O267 2.216 . S
Co266 O268 2.091 . S
Co266 O270 2.004 . S
Co266 O276 2.021 . S
Co266 O278 2.137 . S
Co266 O279 2.244 . S
O267 Co266 2.216 . S
O267 C274 1.247 . S
O268 Co266 2.091 . S
O268 C274 1.261 . S
C269 O278 1.247 . S
C269 O279 1.272 . S
O270 Co266 2.004 . S
O270 C275 1.259 . S
Co271 O272 2.061 . S
Co271 O277 2.052 . S
Co271 O279 2.135 . S
O272 Co271 2.061 . S
O272 C275 1.235 . S
C273 O276 1.238 . S
C273 O277 1.241 . S
C274 O267 1.247 . S
C274 O268 1.261 . S
C275 O270 1.259 . S
C275 O272 1.235 . S
O276 Co266 2.021 . S
O276 C273 1.238 . S
O277 Co271 2.052 . S
O277 C273 1.241 . S
O278 Co266 2.137 . S
O278 C269 1.247 . S
O279 Co266 2.244 . S
O279 C269 1.272 . S
O279 Co271 2.135 . S
Co280 O281 2.216 . S
Co280 O282 2.091 . S
Co280 O284 2.004 . S
Co280 O290 2.021 . S
Co280 O292 2.137 1_554 S
Co280 O293 2.244 1_554 S
O281 Co280 2.216 . S
O281 C288 1.247 . S
O282 Co280 2.091 . S
O282 C288 1.261 . S
C283 O292 1.247 . S
C283 O293 1.272 . S
O284 Co280 2.004 . S
O284 C289 1.259 . S
Co285 O286 2.061 . S
Co285 O291 2.052 . S
Co285 O293 2.135 1_554 S
O286 Co285 2.061 . S
O286 C289 1.235 . S
C287 O290 1.238 . S
C287 O291 1.241 . S
C288 O281 1.247 . S
C288 O282 1.261 . S
C289 O284 1.259 . S
C289 O286 1.235 . S
O290 Co280 2.021 . S
O290 C287 1.238 . S
O291 Co285 2.052 . S
O291 C287 1.241 . S
O292 Co280 2.137 1_556 S
O292 C283 1.247 . S
O293 Co280 2.244 1_556 S
O293 C283 1.272 . S
O293 Co285 2.135 1_556 S
Co294 O295 2.216 . S
Co294 O296 2.091 . S
Co294 O298 2.004 . S
Co294 O304 2.021 . S
Co294 O306 2.137 . S
Co294 O307 2.244 . S
O295 Co294 2.216 . S
O295 C302 1.247 . S
O296 Co294 2.091 . S
O296 C302 1.261 . S
C297 O306 1.247 . S
C297 O307 1.272 . S
O298 Co294 2.004 . S
O298 C303 1.259 . S
Co299 O300 2.061 . S
Co299 O305 2.052 . S
Co299 O307 2.135 . S
O300 Co299 2.061 . S
O300 C303 1.235 . S
C301 O304 1.238 . S
C301 O305 1.241 . S
C302 O295 1.247 . S
C302 O296 1.261 . S
C303 O298 1.259 . S
C303 O300 1.235 . S
O304 Co294 2.021 . S
O304 C301 1.238 . S
O305 Co299 2.052 . S
O305 C301 1.241 . S
O306 Co294 2.137 . S
O306 C297 1.247 . S
O307 Co294 2.244 . S
O307 C297 1.272 . S
O307 Co299 2.135 . S
Co308 O309 2.216 . S
Co308 O310 2.091 . S
Co308 O312 2.004 . S
Co308 O318 2.021 . S
Co308 O320 2.137 . S
Co308 O321 2.244 . S
O309 Co308 2.216 . S
O309 C316 1.247 . S
O310 Co308 2.091 . S
O310 C316 1.261 . S
C311 O320 1.247 . S
C311 O321 1.272 . S
O312 Co308 2.004 . S
O312 C317 1.259 . S
Co313 O314 2.061 . S
Co313 O319 2.052 . S
Co313 O321 2.135 . S
O314 Co313 2.061 . S
O314 C317 1.235 . S
C315 O318 1.238 . S
C315 O319 1.241 . S
C316 O309 1.247 . S
C316 O310 1.261 . S
C317 O312 1.259 . S
C317 O314 1.235 . S
O318 Co308 2.021 . S
O318 C315 1.238 . S
O319 Co313 2.052 . S
O319 C315 1.241 . S
O320 Co308 2.137 . S
O320 C311 1.247 . S
O321 Co308 2.244 . S
O321 C311 1.272 . S
O321 Co313 2.135 . S
Co322 O323 2.216 . S
Co322 O324 2.091 . S
Co322 O326 2.004 . S
Co322 O332 2.021 . S
Co322 O334 2.137 . S
Co322 O335 2.244 . S
O323 Co322 2.216 . S
O323 C330 1.247 . S
O324 Co322 2.091 . S
O324 C330 1.261 . S
C325 O334 1.247 . S
C325 O335 1.272 . S
O326 Co322 2.004 . S
O326 C331 1.259 . S
Co327 O328 2.061 . S
Co327 O333 2.052 . S
Co327 O335 2.135 . S
O328 Co327 2.061 . S
O328 C331 1.235 . S
C329 O332 1.238 . S
C329 O333 1.241 . S
C330 O323 1.247 . S
C330 O324 1.261 . S
C331 O326 1.259 . S
C331 O328 1.235 . S
O332 Co322 2.021 . S
O332 C329 1.238 . S
O333 Co327 2.052 . S
O333 C329 1.241 . S
O334 Co322 2.137 . S
O334 C325 1.247 . S
O335 Co322 2.244 . S
O335 C325 1.272 . S
O335 Co327 2.135 . S
C336 C338 1.422 1_556 S
C336 C340 1.415 . S
C336 N342 1.369 . S
C337 C338 1.421 . S
C337 C339 1.417 1_554 S
C337 C349 1.422 . S
C338 C336 1.422 1_554 S
C338 C337 1.421 . S
C338 N348 1.359 . S
C339 C337 1.417 1_556 S
C339 C341 1.329 . S
C339 H358 0.930 . S
C340 C336 1.415 . S
C340 C341 1.437 . S
C340 C344 1.413 . S
C341 C339 1.329 . S
C341 C340 1.437 . S
C341 H363 0.929 . S
N342 C336 1.369 . S
N342 C343 1.338 . S
N342 Gd347 2.622 1_566 S
C343 N342 1.338 . S
C343 C345 1.378 . S
C343 H355 0.920 1_565 S
C344 C340 1.413 . S
C344 C345 1.348 . S
C344 H360 0.931 . S
C345 C343 1.378 . S
C345 C344 1.348 . S
C345 H361 0.930 . S
Gd346 N366 2.622 . S
Gd346 N373 2.570 . S
Gd346 O380 2.353 . S
Gd346 O381 2.468 . S
Gd346 O382 2.427 . S
Gd346 O384 2.388 . S
Gd346 O385 2.386 . S
Gd346 O389 2.307 . S
Gd346 C399 2.805 . S
Gd347 N342 2.622 1_544 S
Gd347 N348 2.570 1_545 S
Gd347 O379 2.386 1_645 S
Gd347 O383 2.307 1_655 S
Gd347 O386 2.353 1_655 S
Gd347 O387 2.468 . S
Gd347 O388 2.427 1_554 S
Gd347 O390 2.388 1_654 S
Gd347 C411 2.805 . S
N348 C338 1.359 . S
N348 Gd347 2.570 1_565 S
N348 C350 1.343 . S
C349 C337 1.422 . S
C349 C351 1.321 . S
C349 H357 0.931 . S
C350 N348 1.343 . S
C350 C351 1.390 . S
C350 H352 0.931 . S
C351 C349 1.321 . S
C351 C350 1.390 . S
C351 H353 0.930 . S
H352 C350 0.931 . S
H353 C351 0.930 . S
H354 C377 0.931 . S
H355 C343 0.920 1_545 S
H356 C378 0.930 1_556 S
H357 C349 0.931 . S
H358 C339 0.930 . S
H359 C368 0.929 . S
H360 C344 0.931 . S
H361 C345 0.930 . S
H362 C400 0.930 . S
H363 C341 0.929 . S
H364 C369 0.931 . S
H365 C370 0.930 . S
N366 Gd346 2.622 . S
N366 C367 1.369 . S
N366 C368 1.338 . S
C367 N366 1.369 . S
C367 C371 1.415 . S
C367 C374 1.422 . S
C368 H359 0.929 . S
C368 N366 1.338 . S
C368 C370 1.378 . S
C369 H364 0.931 . S
C369 C370 1.348 . S
C369 C371 1.413 . S
C370 H365 0.930 . S
C370 C368 1.378 . S
C370 C369 1.348 . S
C371 C367 1.415 . S
C371 C369 1.413 . S
C371 C401 1.437 . S
H372 C401 0.929 . S
N373 Gd346 2.570 . S
N373 C374 1.359 . S
N373 C377 1.343 . S
C374 C367 1.422 . S
C374 N373 1.359 . S
C374 C376 1.421 . S
C375 C376 1.422 . S
C375 C378 1.321 . S
C375 H402 0.931 . S
C376 C374 1.421 . S
C376 C375 1.422 . S
C376 C400 1.417 . S
C377 H354 0.931 . S
C377 N373 1.343 . S
C377 C378 1.390 . S
C378 H356 0.930 1_554 S
C378 C375 1.321 . S
C378 C377 1.390 . S
O379 Gd347 2.386 1_465 S
O379 C391 1.265 . S
O380 Gd346 2.353 . S
O380 C391 1.242 1_545 S
O381 Gd346 2.468 . S
O381 C399 1.263 . S
O382 Gd346 2.427 . S
O382 C399 1.252 . S
O383 Gd347 2.307 1_455 S
O383 C392 1.261 . S
O384 Gd346 2.388 . S
O384 C392 1.252 . S
O385 Gd346 2.386 . S
O385 C403 1.265 . S
O386 Gd347 2.353 1_455 S
O386 C403 1.242 . S
O387 Gd347 2.468 . S
O387 C411 1.263 . S
O388 Gd347 2.427 1_556 S
O388 C411 1.252 1_556 S
O389 Gd346 2.307 . S
O389 C404 1.261 1_554 S
O390 Gd347 2.388 1_456 S
O390 C404 1.252 . S
C391 O379 1.265 . S
C391 O380 1.242 1_565 S
C392 O383 1.261 . S
C392 O384 1.252 . S
C393 C396 1.394 . S
C393 C398 1.370 . S
C393 C399 1.500 . S
C394 C397 1.383 . S
C394 C398 1.395 . S
C395 C396 1.396 . S
C395 C397 1.365 . S
C395 H412 0.929 . S
C396 C393 1.394 . S
C396 C395 1.396 . S
C396 H413 0.930 . S
C397 C394 1.383 . S
C397 C395 1.365 . S
C397 H414 0.931 . S
C398 C393 1.370 . S
C398 C394 1.395 . S
C398 H415 0.930 . S
C399 Gd346 2.805 . S
C399 O381 1.263 . S
C399 O382 1.252 . S
C399 C393 1.500 . S
C400 H362 0.930 . S
C400 C376 1.417 . S
C400 C401 1.329 . S
C401 C371 1.437 . S
C401 H372 0.929 . S
C401 C400 1.329 . S
H402 C375 0.931 . S
C403 O385 1.265 . S
C403 O386 1.242 . S
C404 O389 1.261 1_556 S
C404 O390 1.252 . S
C405 C408 1.394 1_554 S
C405 C410 1.370 . S
C405 C411 1.500 . S
C406 C409 1.383 1_554 S
C406 C410 1.395 . S
C407 C408 1.396 . S
C407 C409 1.365 . S
C407 H416 0.929 . S
C408 C405 1.394 1_556 S
C408 C407 1.396 . S
C408 H417 0.930 . S
C409 C406 1.383 1_556 S
C409 C407 1.365 . S
C409 H418 0.931 . S
C410 C405 1.370 . S
C410 C406 1.395 . S
C410 H419 0.930 . S
C411 Gd347 2.805 . S
C411 O387 1.263 . S
C411 O388 1.252 1_554 S
C411 C405 1.500 . S
H412 C395 0.929 . S
H413 C396 0.930 . S
H414 C397 0.931 . S
H415 C398 0.930 . S
H416 C407 0.929 . S
H417 C408 0.930 . S
H418 C409 0.931 . S
H419 C410 0.930 . S
C420 C422 1.422 . S
C420 C424 1.415 . S
C420 N426 1.369 . S
C421 C422 1.421 . S
C421 C423 1.417 . S
C421 C433 1.422 . S
C422 C420 1.422 . S
C422 C421 1.421 . S
C422 N432 1.359 . S
C423 C421 1.417 . S
C423 C425 1.329 . S
C423 H442 0.930 . S
C424 C420 1.415 . S
C424 C425 1.437 . S
C424 C428 1.413 . S
C425 C423 1.329 . S
C425 C424 1.437 . S
C425 H447 0.929 . S
N426 C420 1.369 . S
N426 C427 1.338 . S
N426 Gd431 2.622 . S
C427 N426 1.338 . S
C427 C429 1.378 . S
C427 H439 0.929 . S
C428 C424 1.413 . S
C428 C429 1.348 . S
C428 H444 0.931 . S
C429 C427 1.378 . S
C429 C428 1.348 . S
C429 H445 0.930 . S
Gd430 N450 2.622 . S
Gd430 N457 2.570 . S
Gd430 O464 2.353 . S
Gd430 O465 2.468 . S
Gd430 O466 2.427 . S
Gd430 O468 2.388 . S
Gd430 O469 2.386 . S
Gd430 O473 2.307 . S
Gd430 C483 2.805 . S
Gd431 N426 2.622 . S
Gd431 N432 2.570 . S
Gd431 O463 2.386 . S
Gd431 O467 2.307 . S
Gd431 O470 2.353 . S
Gd431 O471 2.468 . S
Gd431 O472 2.427 . S
Gd431 O474 2.388 . S
Gd431 C495 2.805 . S
N432 C422 1.359 . S
N432 Gd431 2.570 . S
N432 C434 1.343 . S
C433 C421 1.422 . S
C433 C435 1.321 . S
C433 H441 0.931 . S
C434 N432 1.343 . S
C434 C435 1.390 . S
C434 H436 0.931 . S
C435 C433 1.321 . S
C435 C434 1.390 . S
C435 H437 0.930 . S
H436 C434 0.931 . S
H437 C435 0.930 . S
H438 C461 0.931 . S
H439 C427 0.929 . S
H440 C462 0.930 . S
H441 C433 0.931 . S
H442 C423 0.930 . S
H443 C452 0.929 . S
H444 C428 0.931 . S
H445 C429 0.930 . S
H446 C484 0.930 . S
H447 C425 0.929 . S
H448 C453 0.931 . S
H449 C454 0.930 . S
N450 Gd430 2.622 . S
N450 C451 1.369 . S
N450 C452 1.338 . S
C451 N450 1.369 . S
C451 C455 1.415 . S
C451 C458 1.422 . S
C452 H443 0.929 . S
C452 N450 1.338 . S
C452 C454 1.378 . S
C453 H448 0.931 . S
C453 C454 1.348 . S
C453 C455 1.413 . S
C454 H449 0.930 . S
C454 C452 1.378 . S
C454 C453 1.348 . S
C455 C451 1.415 . S
C455 C453 1.413 . S
C455 C485 1.437 . S
H456 C485 0.929 . S
N457 Gd430 2.570 . S
N457 C458 1.359 . S
N457 C461 1.343 . S
C458 C451 1.422 . S
C458 N457 1.359 . S
C458 C460 1.421 . S
C459 C460 1.422 . S
C459 C462 1.321 . S
C459 H486 0.931 . S
C460 C458 1.421 . S
C460 C459 1.422 . S
C460 C484 1.417 . S
C461 H438 0.931 . S
C461 N457 1.343 . S
C461 C462 1.390 . S
C462 H440 0.930 . S
C462 C459 1.321 . S
C462 C461 1.390 . S
O463 Gd431 2.386 . S
O463 C475 1.265 . S
O464 Gd430 2.353 . S
O464 C475 1.242 . S
O465 Gd430 2.468 . S
O465 C483 1.263 . S
O466 Gd430 2.427 . S
O466 C483 1.252 . S
O467 Gd431 2.307 . S
O467 C476 1.261 . S
O468 Gd430 2.388 . S
O468 C476 1.252 . S
O469 Gd430 2.386 . S
O469 C487 1.265 . S
O470 Gd431 2.353 . S
O470 C487 1.242 . S
O471 Gd431 2.468 . S
O471 C495 1.263 . S
O472 Gd431 2.427 . S
O472 C495 1.252 . S
O473 Gd430 2.307 . S
O473 C488 1.261 . S
O474 Gd431 2.388 . S
O474 C488 1.252 . S
C475 O463 1.265 . S
C475 O464 1.242 . S
C476 O467 1.261 . S
C476 O468 1.252 . S
C477 C480 1.394 . S
C477 C482 1.370 . S
C477 C483 1.500 . S
C478 C481 1.383 . S
C478 C482 1.395 . S
C479 C480 1.396 . S
C479 C481 1.365 . S
C479 H496 0.929 . S
C480 C477 1.394 . S
C480 C479 1.396 . S
C480 H497 0.930 . S
C481 C478 1.383 . S
C481 C479 1.365 . S
C481 H498 0.931 . S
C482 C477 1.370 . S
C482 C478 1.395 . S
C482 H499 0.930 . S
C483 Gd430 2.805 . S
C483 O465 1.263 . S
C483 O466 1.252 . S
C483 C477 1.500 . S
C484 H446 0.930 . S
C484 C460 1.417 . S
C484 C485 1.329 . S
C485 C455 1.437 . S
C485 H456 0.929 . S
C485 C484 1.329 . S
H486 C459 0.931 . S
C487 O469 1.265 . S
C487 O470 1.242 . S
C488 O473 1.261 . S
C488 O474 1.252 . S
C489 C492 1.394 . S
C489 C494 1.370 . S
C489 C495 1.500 . S
C490 C493 1.383 . S
C490 C494 1.395 . S
C491 C492 1.396 . S
C491 C493 1.365 . S
C491 H500 0.929 . S
C492 C489 1.394 . S
C492 C491 1.396 . S
C492 H501 0.930 . S
C493 C490 1.383 . S
C493 C491 1.365 . S
C493 H502 0.931 . S
C494 C489 1.370 . S
C494 C490 1.395 . S
C494 H503 0.930 . S
C495 Gd431 2.805 . S
C495 O471 1.263 . S
C495 O472 1.252 . S
C495 C489 1.500 . S
H496 C479 0.929 . S
H497 C480 0.930 . S
H498 C481 0.931 . S
H499 C482 0.930 . S
H500 C491 0.929 . S
H501 C492 0.930 . S
H502 C493 0.931 . S
H503 C494 0.930 . S
C504 C506 1.422 . S
C504 C508 1.415 . S
C504 N510 1.369 . S
C505 C506 1.421 . S
C505 C507 1.417 . S
C505 C517 1.422 . S
C506 C504 1.422 . S
C506 C505 1.421 . S
C506 N516 1.359 . S
C507 C505 1.417 . S
C507 C509 1.329 . S
C507 H526 0.930 . S
C508 C504 1.415 . S
C508 C509 1.437 . S
C508 C512 1.413 . S
C509 C507 1.329 . S
C509 C508 1.437 . S
C509 H531 0.929 . S
N510 C504 1.369 . S
N510 C511 1.338 . S
N510 Gd515 2.622 . S
C511 N510 1.338 . S
C511 C513 1.378 . S
C511 H523 0.929 . S
C512 C508 1.413 . S
C512 C513 1.348 . S
C512 H528 0.931 . S
C513 C511 1.378 . S
C513 C512 1.348 . S
C513 H529 0.930 . S
Gd514 N534 2.622 . S
Gd514 N541 2.570 1_545 S
Gd514 O548 2.353 . S
Gd514 O549 2.468 . S
Gd514 O550 2.427 . S
Gd514 O552 2.388 . S
Gd514 O553 2.386 1_545 S
Gd514 O557 2.307 . S
Gd514 C567 2.805 . S
Gd515 N510 2.622 . S
Gd515 N516 2.570 . S
Gd515 O547 2.386 . S
Gd515 O551 2.307 . S
Gd515 O554 2.353 1_545 S
Gd515 O555 2.468 . S
Gd515 O556 2.427 . S
Gd515 O558 2.388 . S
Gd515 C579 2.805 . S
N516 C506 1.359 . S
N516 Gd515 2.570 . S
N516 C518 1.343 . S
C517 C505 1.422 . S
C517 C519 1.321 . S
C517 H525 0.931 . S
C518 N516 1.343 . S
C518 C519 1.390 . S
C518 H520 0.931 . S
C519 C517 1.321 . S
C519 C518 1.390 . S
C519 H521 0.930 . S
H520 C518 0.931 . S
H521 C519 0.930 . S
H522 C545 0.931 . S
H523 C511 0.929 . S
H524 C546 0.930 . S
H525 C517 0.931 . S
H526 C507 0.930 . S
H527 C536 0.929 . S
H528 C512 0.931 . S
H529 C513 0.930 . S
H530 C568 0.930 . S
H531 C509 0.929 . S
H532 C537 0.931 . S
H533 C538 0.930 . S
N534 Gd514 2.622 . S
N534 C535 1.369 1_545 S
N534 C536 1.338 . S
C535 N534 1.369 1_565 S
C535 C539 1.415 . S
C535 C542 1.422 . S
C536 H527 0.929 . S
C536 N534 1.338 . S
C536 C538 1.378 1_545 S
C537 H532 0.931 . S
C537 C538 1.348 . S
C537 C539 1.413 . S
C538 H533 0.930 . S
C538 C536 1.378 1_565 S
C538 C537 1.348 . S
C539 C535 1.415 . S
C539 C537 1.413 . S
C539 C569 1.437 . S
H540 C569 0.929 . S
N541 Gd514 2.570 1_565 S
N541 C542 1.359 . S
N541 C545 1.343 . S
C542 C535 1.422 . S
C542 N541 1.359 . S
C542 C544 1.421 . S
C543 C544 1.422 . S
C543 C546 1.321 . S
C543 H570 0.931 . S
C544 C542 1.421 . S
C544 C543 1.422 . S
C544 C568 1.417 . S
C545 H522 0.931 . S
C545 N541 1.343 . S
C545 C546 1.390 . S
C546 H524 0.930 . S
C546 C543 1.321 . S
C546 C545 1.390 . S
O547 Gd515 2.386 . S
O547 C559 1.265 . S
O548 Gd514 2.353 . S
O548 C559 1.242 . S
O549 Gd514 2.468 . S
O549 C567 1.263 . S
O550 Gd514 2.427 . S
O550 C567 1.252 . S
O551 Gd515 2.307 . S
O551 C560 1.261 . S
O552 Gd514 2.388 . S
O552 C560 1.252 . S
O553 Gd514 2.386 1_565 S
O553 C571 1.265 . S
O554 Gd515 2.353 1_565 S
O554 C571 1.242 . S
O555 Gd515 2.468 . S
O555 C579 1.263 . S
O556 Gd515 2.427 . S
O556 C579 1.252 . S
O557 Gd514 2.307 . S
O557 C572 1.261 . S
O558 Gd515 2.388 . S
O558 C572 1.252 . S
C559 O547 1.265 . S
C559 O548 1.242 . S
C560 O551 1.261 . S
C560 O552 1.252 . S
C561 C564 1.394 . S
C561 C566 1.370 . S
C561 C567 1.500 . S
C562 C565 1.383 . S
C562 C566 1.395 . S
C563 C564 1.396 . S
C563 C565 1.365 . S
C563 H580 0.929 . S
C564 C561 1.394 . S
C564 C563 1.396 . S
C564 H581 0.930 . S
C565 C562 1.383 . S
C565 C563 1.365 . S
C565 H582 0.931 . S
C566 C561 1.370 . S
C566 C562 1.395 . S
C566 H583 0.930 . S
C567 Gd514 2.805 . S
C567 O549 1.263 . S
C567 O550 1.252 . S
C567 C561 1.500 . S
C568 H530 0.930 . S
C568 C544 1.417 . S
C568 C569 1.329 . S
C569 C539 1.437 . S
C569 H540 0.929 . S
C569 C568 1.329 . S
H570 C543 0.931 . S
C571 O553 1.265 . S
C571 O554 1.242 . S
C572 O557 1.261 . S
C572 O558 1.252 . S
C573 C576 1.394 . S
C573 C578 1.370 . S
C573 C579 1.500 1_565 S
C574 C577 1.383 . S
C574 C578 1.395 . S
C575 C576 1.396 . S
C575 C577 1.365 . S
C575 H584 0.929 . S
C576 C573 1.394 . S
C576 C575 1.396 . S
C576 H585 0.930 . S
C577 C574 1.383 . S
C577 C575 1.365 . S
C577 H586 0.931 . S
C578 C573 1.370 . S
C578 C574 1.395 . S
C578 H587 0.930 . S
C579 Gd515 2.805 . S
C579 O555 1.263 . S
C579 O556 1.252 . S
C579 C573 1.500 1_545 S
H580 C563 0.929 . S
H581 C564 0.930 . S
H582 C565 0.931 . S
H583 C566 0.930 . S
H584 C575 0.929 . S
H585 C576 0.930 . S
H586 C577 0.931 . S
H587 C578 0.930 . S
C588 C590 1.422 . S
C588 C592 1.415 . S
C588 N594 1.369 . S
C589 C590 1.421 . S
C589 C591 1.417 . S
C589 C601 1.422 . S
C590 C588 1.422 . S
C590 C589 1.421 . S
C590 N600 1.359 . S
C591 C589 1.417 . S
C591 C593 1.329 . S
C591 H610 0.930 . S
C592 C588 1.415 . S
C592 C593 1.437 . S
C592 C596 1.413 . S
C593 C591 1.329 . S
C593 C592 1.437 . S
C593 H615 0.929 . S
N594 C588 1.369 . S
N594 C595 1.338 . S
N594 Gd599 2.622 . S
C595 N594 1.338 . S
C595 C597 1.378 . S
C595 H607 0.929 . S
C596 C592 1.413 . S
C596 C597 1.348 . S
C596 H612 0.931 . S
C597 C595 1.378 . S
C597 C596 1.348 . S
C597 H613 0.930 . S
Gd598 N618 2.622 . S
Gd598 N625 2.570 . S
Gd598 O632 2.353 . S
Gd598 O633 2.468 . S
Gd598 O634 2.427 . S
Gd598 O636 2.388 . S
Gd598 O637 2.386 . S
Gd598 O641 2.307 . S
Gd598 C651 2.805 . S
Gd599 N594 2.622 . S
Gd599 N600 2.570 . S
Gd599 O631 2.386 . S
Gd599 O635 2.307 . S
Gd599 O638 2.353 . S
Gd599 O639 2.468 . S
Gd599 O640 2.427 . S
Gd599 O642 2.388 . S
Gd599 C663 2.805 . S
N600 C590 1.359 . S
N600 Gd599 2.570 . S
N600 C602 1.343 . S
C601 C589 1.422 . S
C601 C603 1.321 . S
C601 H609 0.931 . S
C602 N600 1.343 . S
C602 C603 1.390 . S
C602 H604 0.931 . S
C603 C601 1.321 . S
C603 C602 1.390 . S
C603 H605 0.930 . S
H604 C602 0.931 . S
H605 C603 0.930 . S
H606 C629 0.931 . S
H607 C595 0.929 . S
H608 C630 0.930 . S
H609 C601 0.931 . S
H610 C591 0.930 . S
H611 C620 0.929 . S
H612 C596 0.931 . S
H613 C597 0.930 . S
H614 C652 0.930 . S
H615 C593 0.929 . S
H616 C621 0.931 . S
H617 C622 0.930 . S
N618 Gd598 2.622 . S
N618 C619 1.369 . S
N618 C620 1.338 . S
C619 N618 1.369 . S
C619 C623 1.415 . S
C619 C626 1.422 . S
C620 H611 0.929 . S
C620 N618 1.338 . S
C620 C622 1.378 . S
C621 H616 0.931 . S
C621 C622 1.348 . S
C621 C623 1.413 . S
C622 H617 0.930 . S
C622 C620 1.378 . S
C622 C621 1.348 . S
C623 C619 1.415 . S
C623 C621 1.413 . S
C623 C653 1.437 . S
H624 C653 0.929 . S
N625 Gd598 2.570 . S
N625 C626 1.359 . S
N625 C629 1.343 . S
C626 C619 1.422 . S
C626 N625 1.359 . S
C626 C628 1.421 . S
C627 C628 1.422 . S
C627 C630 1.321 . S
C627 H654 0.931 . S
C628 C626 1.421 . S
C628 C627 1.422 . S
C628 C652 1.417 . S
C629 H606 0.931 . S
C629 N625 1.343 . S
C629 C630 1.390 . S
C630 H608 0.930 . S
C630 C627 1.321 . S
C630 C629 1.390 . S
O631 Gd599 2.386 . S
O631 C643 1.265 . S
O632 Gd598 2.353 . S
O632 C643 1.242 . S
O633 Gd598 2.468 . S
O633 C651 1.263 . S
O634 Gd598 2.427 . S
O634 C651 1.252 . S
O635 Gd599 2.307 . S
O635 C644 1.261 . S
O636 Gd598 2.388 . S
O636 C644 1.252 . S
O637 Gd598 2.386 . S
O637 C655 1.265 . S
O638 Gd599 2.353 . S
O638 C655 1.242 . S
O639 Gd599 2.468 . S
O639 C663 1.263 . S
O640 Gd599 2.427 . S
O640 C663 1.252 . S
O641 Gd598 2.307 . S
O641 C656 1.261 . S
O642 Gd599 2.388 . S
O642 C656 1.252 . S
C643 O631 1.265 . S
C643 O632 1.242 . S
C644 O635 1.261 . S
C644 O636 1.252 . S
C645 C648 1.394 . S
C645 C650 1.370 . S
C645 C651 1.500 . S
C646 C649 1.383 . S
C646 C650 1.395 . S
C647 C648 1.396 . S
C647 C649 1.365 . S
C647 H664 0.929 . S
C648 C645 1.394 . S
C648 C647 1.396 . S
C648 H665 0.930 . S
C649 C646 1.383 . S
C649 C647 1.365 . S
C649 H666 0.931 . S
C650 C645 1.370 . S
C650 C646 1.395 . S
C650 H667 0.930 . S
C651 Gd598 2.805 . S
C651 O633 1.263 . S
C651 O634 1.252 . S
C651 C645 1.500 . S
C652 H614 0.930 . S
C652 C628 1.417 . S
C652 C653 1.329 . S
C653 C623 1.437 . S
C653 H624 0.929 . S
C653 C652 1.329 . S
H654 C627 0.931 . S
C655 O637 1.265 . S
C655 O638 1.242 . S
C656 O641 1.261 . S
C656 O642 1.252 . S
C657 C660 1.394 . S
C657 C662 1.370 . S
C657 C663 1.500 . S
C658 C661 1.383 . S
C658 C662 1.395 . S
C659 C660 1.396 . S
C659 C661 1.365 . S
C659 H668 0.929 . S
C660 C657 1.394 . S
C660 C659 1.396 . S
C660 H669 0.930 . S
C661 C658 1.383 . S
C661 C659 1.365 . S
C661 H670 0.931 . S
C662 C657 1.370 . S
C662 C658 1.395 . S
C662 H671 0.930 . S
C663 Gd599 2.805 . S
C663 O639 1.263 . S
C663 O640 1.252 . S
C663 C657 1.500 . S
H664 C647 0.929 . S
H665 C648 0.930 . S
H666 C649 0.931 . S
H667 C650 0.930 . S
H668 C659 0.929 . S
H669 C660 0.930 . S
H670 C661 0.931 . S
H671 C662 0.930 . S
C672 C674 1.422 . S
C672 C676 1.415 1_455 S
C672 N678 1.369 1_455 S
C673 C674 1.421 . S
C673 C675 1.417 . S
C673 C685 1.422 . S
C674 C672 1.422 . S
C674 C673 1.421 . S
C674 N684 1.359 . S
C675 C673 1.417 . S
C675 C677 1.329 . S
C675 H694 0.930 . S
C676 C672 1.415 1_655 S
C676 C677 1.437 1_655 S
C676 C680 1.413 . S
C677 C675 1.329 . S
C677 C676 1.437 1_455 S
C677 H699 0.928 1_455 S
N678 C672 1.369 1_655 S
N678 C679 1.338 . S
N678 Gd683 2.622 1_655 S
C679 N678 1.338 . S
C679 C681 1.378 . S
C679 H691 0.929 . S
C680 C676 1.413 . S
C680 C681 1.348 . S
C680 H696 0.931 . S
C681 C679 1.378 . S
C681 C680 1.348 . S
C681 H697 0.930 . S
Gd682 N702 2.622 . S
Gd682 N709 2.570 . S
Gd682 O716 2.353 1_565 S
Gd682 O717 2.468 . S
Gd682 O718 2.427 . S
Gd682 O720 2.388 1_565 S
Gd682 O721 2.386 1_565 S
Gd682 O725 2.307 1_565 S
Gd682 C735 2.805 . S
Gd683 N678 2.622 1_455 S
Gd683 N684 2.570 . S
Gd683 O715 2.386 . S
Gd683 O719 2.307 . S
Gd683 O722 2.353 . S
Gd683 O723 2.468 . S
Gd683 O724 2.427 1_455 S
Gd683 O726 2.388 1_455 S
Gd683 C747 2.805 . S
N684 C674 1.359 . S
N684 Gd683 2.570 . S
N684 C686 1.343 . S
C685 C673 1.422 . S
C685 C687 1.321 . S
C685 H693 0.931 . S
C686 N684 1.343 . S
C686 C687 1.390 . S
C686 H688 0.931 . S
C687 C685 1.321 . S
C687 C686 1.390 . S
C687 H689 0.930 . S
H688 C686 0.931 . S
H689 C687 0.930 . S
H690 C713 0.917 1_655 S
H691 C679 0.929 . S
H692 C714 0.930 . S
H693 C685 0.931 . S
H694 C675 0.930 . S
H695 C704 0.929 1_545 S
H696 C680 0.931 . S
H697 C681 0.930 . S
H698 C736 0.930 . S
H699 C677 0.928 1_655 S
H700 C705 0.931 . S
H701 C706 0.930 . S
N702 Gd682 2.622 . S
N702 C703 1.369 . S
N702 C704 1.338 . S
C703 N702 1.369 . S
C703 C707 1.415 . S
C703 C710 1.422 . S
C704 H695 0.929 1_565 S
C704 N702 1.338 . S
C704 C706 1.378 . S
C705 H700 0.931 . S
C705 C706 1.348 . S
C705 C707 1.413 . S
C706 H701 0.930 . S
C706 C704 1.378 . S
C706 C705 1.348 . S
C707 C703 1.415 . S
C707 C705 1.413 . S
C707 C737 1.437 . S
H708 C737 0.929 . S
N709 Gd682 2.570 . S
N709 C710 1.359 . S
N709 C713 1.363 . S
C710 C703 1.422 . S
C710 N709 1.359 . S
C710 C712 1.421 . S
C711 C712 1.422 1_655 S
C711 C714 1.321 . S
C711 H738 0.931 . S
C712 C710 1.421 . S
C712 C711 1.422 1_455 S
C712 C736 1.417 . S
C713 H690 0.917 1_455 S
C713 N709 1.363 . S
C713 C714 1.384 1_455 S
C714 H692 0.930 . S
C714 C711 1.321 . S
C714 C713 1.384 1_655 S
O715 Gd683 2.386 . S
O715 C727 1.265 . S
O716 Gd682 2.353 1_545 S
O716 C727 1.242 . S
O717 Gd682 2.468 . S
O717 C735 1.263 . S
O718 Gd682 2.427 . S
O718 C735 1.252 . S
O719 Gd683 2.307 . S
O719 C728 1.261 . S
O720 Gd682 2.388 1_545 S
O720 C728 1.252 . S
O721 Gd682 2.386 1_545 S
O721 C739 1.265 . S
O722 Gd683 2.353 . S
O722 C739 1.242 . S
O723 Gd683 2.468 . S
O723 C747 1.263 . S
O724 Gd683 2.427 1_655 S
O724 C747 1.252 1_655 S
O725 Gd682 2.307 1_545 S
O725 C740 1.261 1_455 S
O726 Gd683 2.388 1_655 S
O726 C740 1.252 . S
C727 O715 1.265 . S
C727 O716 1.242 . S
C728 O719 1.261 . S
C728 O720 1.252 . S
C729 C732 1.394 . S
C729 C734 1.370 . S
C729 C735 1.500 . S
C730 C733 1.383 . S
C730 C734 1.395 . S
C731 C732 1.396 . S
C731 C733 1.365 . S
C731 H748 0.929 . S
C732 C729 1.394 . S
C732 C731 1.396 . S
C732 H749 0.930 . S
C733 C730 1.383 . S
C733 C731 1.365 . S
C733 H750 0.931 . S
C734 C729 1.370 . S
C734 C730 1.395 . S
C734 H751 0.930 . S
C735 Gd682 2.805 . S
C735 O717 1.263 . S
C735 O718 1.252 . S
C735 C729 1.500 . S
C736 H698 0.930 . S
C736 C712 1.417 . S
C736 C737 1.329 . S
C737 C707 1.437 . S
C737 H708 0.929 . S
C737 C736 1.329 . S
H738 C711 0.931 . S
C739 O721 1.265 . S
C739 O722 1.242 . S
C740 O725 1.261 1_655 S
C740 O726 1.252 . S
C741 C744 1.394 1_455 S
C741 C746 1.370 . S
C741 C747 1.500 . S
C742 C745 1.383 1_455 S
C742 C746 1.395 . S
C743 C744 1.396 . S
C743 C745 1.365 . S
C743 H752 0.929 . S
C744 C741 1.394 1_655 S
C744 C743 1.396 . S
C744 H753 0.930 . S
C745 C742 1.383 1_655 S
C745 C743 1.365 . S
C745 H754 0.931 . S
C746 C741 1.370 . S
C746 C742 1.395 . S
C746 H755 0.930 . S
C747 Gd683 2.805 . S
C747 O723 1.263 . S
C747 O724 1.252 1_455 S
C747 C741 1.500 . S
H748 C731 0.929 . S
H749 C732 0.930 . S
H750 C733 0.931 . S
H751 C734 0.930 . S
H752 C743 0.929 . S
H753 C744 0.930 . S
H754 C745 0.931 . S
H755 C746 0.930 . S
C756 C758 1.422 . S
C756 C760 1.415 . S
C756 N762 1.369 . S
C757 C758 1.421 . S
C757 C759 1.417 . S
C757 C769 1.422 . S
C758 C756 1.422 . S
C758 C757 1.421 . S
C758 N768 1.359 . S
C759 C757 1.417 . S
C759 C761 1.329 . S
C759 H778 0.930 . S
C760 C756 1.415 . S
C760 C761 1.437 . S
C760 C764 1.413 . S
C761 C759 1.329 . S
C761 C760 1.437 . S
C761 H783 0.929 . S
N762 C756 1.369 . S
N762 C763 1.338 . S
N762 Gd767 2.622 . S
C763 N762 1.338 . S
C763 C765 1.378 . S
C763 H775 0.929 . S
C764 C760 1.413 . S
C764 C765 1.348 . S
C764 H780 0.931 . S
C765 C763 1.378 . S
C765 C764 1.348 . S
C765 H781 0.930 . S
Gd766 N786 2.622 . S
Gd766 N793 2.570 . S
Gd766 O800 2.353 . S
Gd766 O801 2.468 . S
Gd766 O802 2.427 . S
Gd766 O804 2.388 . S
Gd766 O805 2.386 . S
Gd766 O809 2.307 . S
Gd766 C819 2.805 . S
Gd767 N762 2.622 . S
Gd767 N768 2.570 . S
Gd767 O799 2.386 . S
Gd767 O803 2.307 . S
Gd767 O806 2.353 . S
Gd767 O807 2.468 . S
Gd767 O808 2.427 . S
Gd767 O810 2.388 . S
Gd767 C831 2.805 . S
N768 C758 1.359 . S
N768 Gd767 2.570 . S
N768 C770 1.343 . S
C769 C757 1.422 . S
C769 C771 1.321 . S
C769 H777 0.931 . S
C770 N768 1.343 . S
C770 C771 1.390 . S
C770 H772 0.931 . S
C771 C769 1.321 . S
C771 C770 1.390 . S
C771 H773 0.930 . S
H772 C770 0.931 . S
H773 C771 0.930 . S
H774 C797 0.931 . S
H775 C763 0.929 . S
H776 C798 0.930 . S
H777 C769 0.931 . S
H778 C759 0.930 . S
H779 C788 0.929 . S
H780 C764 0.931 . S
H781 C765 0.930 . S
H782 C820 0.930 . S
H783 C761 0.929 . S
H784 C789 0.931 . S
H785 C790 0.930 . S
N786 Gd766 2.622 . S
N786 C787 1.369 . S
N786 C788 1.338 . S
C787 N786 1.369 . S
C787 C791 1.415 . S
C787 C794 1.422 . S
C788 H779 0.929 . S
C788 N786 1.338 . S
C788 C790 1.378 . S
C789 H784 0.931 . S
C789 C790 1.348 . S
C789 C791 1.413 . S
C790 H785 0.930 . S
C790 C788 1.378 . S
C790 C789 1.348 . S
C791 C787 1.415 . S
C791 C789 1.413 . S
C791 C821 1.437 . S
H792 C821 0.929 . S
N793 Gd766 2.570 . S
N793 C794 1.359 . S
N793 C797 1.343 . S
C794 C787 1.422 . S
C794 N793 1.359 . S
C794 C796 1.421 . S
C795 C796 1.422 . S
C795 C798 1.321 . S
C795 H822 0.931 . S
C796 C794 1.421 . S
C796 C795 1.422 . S
C796 C820 1.417 . S
C797 H774 0.931 . S
C797 N793 1.343 . S
C797 C798 1.390 . S
C798 H776 0.930 . S
C798 C795 1.321 . S
C798 C797 1.390 . S
O799 Gd767 2.386 . S
O799 C811 1.265 . S
O800 Gd766 2.353 . S
O800 C811 1.242 . S
O801 Gd766 2.468 . S
O801 C819 1.263 . S
O802 Gd766 2.427 . S
O802 C819 1.252 . S
O803 Gd767 2.307 . S
O803 C812 1.261 . S
O804 Gd766 2.388 . S
O804 C812 1.252 . S
O805 Gd766 2.386 . S
O805 C823 1.265 . S
O806 Gd767 2.353 . S
O806 C823 1.242 . S
O807 Gd767 2.468 . S
O807 C831 1.263 . S
O808 Gd767 2.427 . S
O808 C831 1.252 . S
O809 Gd766 2.307 . S
O809 C824 1.261 . S
O810 Gd767 2.388 . S
O810 C824 1.252 . S
C811 O799 1.265 . S
C811 O800 1.242 . S
C812 O803 1.261 . S
C812 O804 1.252 . S
C813 C816 1.394 . S
C813 C818 1.370 . S
C813 C819 1.500 . S
C814 C817 1.383 . S
C814 C818 1.395 . S
C815 C816 1.396 . S
C815 C817 1.365 . S
C815 H832 0.929 . S
C816 C813 1.394 . S
C816 C815 1.396 . S
C816 H833 0.930 . S
C817 C814 1.383 . S
C817 C815 1.365 . S
C817 H834 0.931 . S
C818 C813 1.370 . S
C818 C814 1.395 . S
C818 H835 0.930 . S
C819 Gd766 2.805 . S
C819 O801 1.263 . S
C819 O802 1.252 . S
C819 C813 1.500 . S
C820 H782 0.930 . S
C820 C796 1.417 . S
C820 C821 1.329 . S
C821 C791 1.437 . S
C821 H792 0.929 . S
C821 C820 1.329 . S
H822 C795 0.931 . S
C823 O805 1.265 . S
C823 O806 1.242 . S
C824 O809 1.261 . S
C824 O810 1.252 . S
C825 C828 1.394 . S
C825 C830 1.370 . S
C825 C831 1.500 . S
C826 C829 1.383 . S
C826 C830 1.395 . S
C827 C828 1.396 . S
C827 C829 1.365 . S
C827 H836 0.929 . S
C828 C825 1.394 . S
C828 C827 1.396 . S
C828 H837 0.930 . S
C829 C826 1.383 . S
C829 C827 1.365 . S
C829 H838 0.931 . S
C830 C825 1.370 . S
C830 C826 1.395 . S
C830 H839 0.930 . S
C831 Gd767 2.805 . S
C831 O807 1.263 . S
C831 O808 1.252 . S
C831 C825 1.500 . S
H832 C815 0.929 . S
H833 C816 0.930 . S
H834 C817 0.931 . S
H835 C818 0.930 . S
H836 C827 0.929 . S
H837 C828 0.930 . S
H838 C829 0.931 . S
H839 C830 0.930 . S
C840 C842 1.402 1_565 S
C840 C844 1.431 . S
C840 N846 1.373 . S
C841 C842 1.421 . S
C841 C843 1.417 . S
C841 C853 1.422 . S
C842 C840 1.402 1_545 S
C842 C841 1.421 . S
C842 N852 1.359 . S
C843 C841 1.417 . S
C843 C845 1.329 1_545 S
C843 H862 0.930 . S
C844 C840 1.431 . S
C844 C845 1.437 . S
C844 C848 1.413 . S
C845 C843 1.329 1_565 S
C845 C844 1.437 . S
C845 H867 0.929 . S
N846 C840 1.373 . S
N846 C847 1.338 . S
N846 Gd851 2.622 1_565 S
C847 N846 1.338 . S
C847 C849 1.378 . S
C847 H859 0.929 . S
C848 C844 1.413 . S
C848 C849 1.348 . S
C848 H864 0.931 . S
C849 C847 1.378 . S
C849 C848 1.348 . S
C849 H865 0.930 . S
Gd850 N870 2.622 . S
Gd850 N877 2.570 . S
Gd850 O884 2.353 1_556 S
Gd850 O885 2.468 . S
Gd850 O886 2.427 . S
Gd850 O888 2.388 1_556 S
Gd850 O889 2.386 1_556 S
Gd850 O893 2.302 1_556 S
Gd850 C903 2.805 . S
Gd851 N846 2.622 1_545 S
Gd851 N852 2.570 . S
Gd851 O883 2.386 . S
Gd851 O887 2.307 . S
Gd851 O890 2.353 . S
Gd851 O891 2.468 . S
Gd851 O892 2.427 1_545 S
Gd851 O894 2.388 1_545 S
Gd851 C915 2.805 . S
N852 C842 1.359 . S
N852 Gd851 2.570 . S
N852 C854 1.343 . S
C853 C841 1.422 . S
C853 C855 1.321 . S
C853 H861 0.931 . S
C854 N852 1.343 . S
C854 C855 1.390 . S
C854 H856 0.931 . S
C855 C853 1.321 . S
C855 C854 1.390 . S
C855 H857 0.930 . S
H856 C854 0.931 . S
H857 C855 0.930 . S
H858 C881 0.931 . S
H859 C847 0.929 . S
H860 C882 0.930 . S
H861 C853 0.931 . S
H862 C843 0.930 . S
H863 C872 0.929 1_554 S
H864 C848 0.931 . S
H865 C849 0.930 . S
H866 C904 0.930 . S
H867 C845 0.929 . S
H868 C873 0.931 . S
H869 C874 0.930 . S
N870 Gd850 2.622 . S
N870 C871 1.369 . S
N870 C872 1.338 . S
C871 N870 1.369 . S
C871 C875 1.415 . S
C871 C878 1.422 . S
C872 H863 0.929 1_556 S
C872 N870 1.338 . S
C872 C874 1.378 . S
C873 H868 0.931 . S
C873 C874 1.348 . S
C873 C875 1.413 . S
C874 H869 0.930 . S
C874 C872 1.378 . S
C874 C873 1.348 . S
C875 C871 1.415 . S
C875 C873 1.413 . S
C875 C905 1.437 . S
H876 C905 0.929 . S
N877 Gd850 2.570 . S
N877 C878 1.359 . S
N877 C881 1.343 . S
C878 C871 1.422 . S
C878 N877 1.359 . S
C878 C880 1.421 . S
C879 C880 1.422 . S
C879 C882 1.321 1_545 S
C879 H906 0.931 . S
C880 C878 1.421 . S
C880 C879 1.422 . S
C880 C904 1.417 . S
C881 H858 0.931 . S
C881 N877 1.343 . S
C881 C882 1.390 1_545 S
C882 H860 0.930 . S
C882 C879 1.321 1_565 S
C882 C881 1.390 1_565 S
O883 Gd851 2.386 . S
O883 C895 1.265 . S
O884 Gd850 2.353 1_554 S
O884 C895 1.242 . S
O885 Gd850 2.468 . S
O885 C903 1.263 . S
O886 Gd850 2.427 . S
O886 C903 1.252 . S
O887 Gd851 2.307 . S
O887 C896 1.261 . S
O888 Gd850 2.388 1_554 S
O888 C896 1.252 . S
O889 Gd850 2.386 1_554 S
O889 C907 1.265 . S
O890 Gd851 2.353 . S
O890 C907 1.242 . S
O891 Gd851 2.468 . S
O891 C915 1.263 . S
O892 Gd851 2.427 1_565 S
O892 C915 1.252 1_565 S
O893 Gd850 2.302 1_554 S
O893 C908 1.271 1_545 S
O894 Gd851 2.388 1_565 S
O894 C908 1.252 . S
C895 O883 1.265 . S
C895 O884 1.242 . S
C896 O887 1.261 . S
C896 O888 1.252 . S
C897 C900 1.394 . S
C897 C902 1.370 . S
C897 C903 1.500 . S
C898 C901 1.383 . S
C898 C902 1.395 . S
C899 C900 1.396 . S
C899 C901 1.365 . S
C899 H916 0.929 . S
C900 C897 1.394 . S
C900 C899 1.396 . S
C900 H917 0.930 . S
C901 C898 1.383 . S
C901 C899 1.365 . S
C901 H918 0.931 . S
C902 C897 1.370 . S
C902 C898 1.395 . S
C902 H919 0.930 . S
C903 Gd850 2.805 . S
C903 O885 1.263 . S
C903 O886 1.252 . S
C903 C897 1.500 . S
C904 H866 0.930 . S
C904 C880 1.417 . S
C904 C905 1.329 . S
C905 C875 1.437 . S
C905 H876 0.929 . S
C905 C904 1.329 . S
H906 C879 0.931 . S
C907 O889 1.265 . S
C907 O890 1.242 . S
C908 O893 1.271 1_565 S
C908 O894 1.252 . S
C909 C912 1.394 . S
C909 C914 1.370 1_565 S
C909 C915 1.500 1_565 S
C910 C913 1.383 1_545 S
C910 C914 1.395 . S
C911 C912 1.396 . S
C911 C913 1.365 . S
C911 H920 0.929 . S
C912 C909 1.394 . S
C912 C911 1.396 . S
C912 H921 0.930 . S
C913 C910 1.383 1_565 S
C913 C911 1.365 . S
C913 H922 0.931 . S
C914 C909 1.370 1_545 S
C914 C910 1.395 . S
C914 H923 0.930 . S
C915 Gd851 2.805 . S
C915 O891 1.263 . S
C915 O892 1.252 1_545 S
C915 C909 1.500 1_545 S
H916 C899 0.929 . S
H917 C900 0.930 . S
H918 C901 0.931 . S
H919 C902 0.930 . S
H920 C911 0.929 . S
H921 C912 0.930 . S
H922 C913 0.931 . S
H923 C914 0.930 . S
C924 C926 1.422 . S
C924 C928 1.415 . S
C924 N930 1.369 . S
C925 C926 1.421 . S
C925 C927 1.417 . S
C925 C937 1.422 . S
C926 C924 1.422 . S
C926 C925 1.421 . S
C926 N936 1.359 . S
C927 C925 1.417 . S
C927 C929 1.329 . S
C927 H946 0.930 . S
C928 C924 1.415 . S
C928 C929 1.437 . S
C928 C932 1.413 . S
C929 C927 1.329 . S
C929 C928 1.437 . S
C929 H951 0.929 . S
N930 C924 1.369 . S
N930 C931 1.338 . S
N930 Gd935 2.622 . S
C931 N930 1.338 . S
C931 C933 1.378 . S
C931 H943 0.929 . S
C932 C928 1.413 . S
C932 C933 1.348 . S
C932 H948 0.931 . S
C933 C931 1.378 . S
C933 C932 1.348 . S
C933 H949 0.930 . S
Gd934 N954 2.622 . S
Gd934 N961 2.570 . S
Gd934 O968 2.353 . S
Gd934 O969 2.468 . S
Gd934 O970 2.427 . S
Gd934 O972 2.388 . S
Gd934 O973 2.386 . S
Gd934 O977 2.307 . S
Gd934 C987 2.805 . S
Gd935 N930 2.622 . S
Gd935 N936 2.570 . S
Gd935 O967 2.386 . S
Gd935 O971 2.307 . S
Gd935 O974 2.353 . S
Gd935 O975 2.468 . S
Gd935 O976 2.427 . S
Gd935 O978 2.388 . S
Gd935 C999 2.805 . S
N936 C926 1.359 . S
N936 Gd935 2.570 . S
N936 C938 1.343 . S
C937 C925 1.422 . S
C937 C939 1.321 . S
C937 H945 0.931 . S
C938 N936 1.343 . S
C938 C939 1.390 . S
C938 H940 0.931 . S
C939 C937 1.321 . S
C939 C938 1.390 . S
C939 H941 0.930 . S
H940 C938 0.931 . S
H941 C939 0.930 . S
H942 C965 0.931 . S
H943 C931 0.929 . S
H944 C966 0.930 . S
H945 C937 0.931 . S
H946 C927 0.930 . S
H947 C956 0.929 . S
H948 C932 0.931 . S
H949 C933 0.930 . S
H950 C988 0.930 . S
H951 C929 0.929 . S
H952 C957 0.931 . S
H953 C958 0.930 . S
N954 Gd934 2.622 . S
N954 C955 1.369 . S
N954 C956 1.338 . S
C955 N954 1.369 . S
C955 C959 1.415 . S
C955 C962 1.422 . S
C956 H947 0.929 . S
C956 N954 1.338 . S
C956 C958 1.378 . S
C957 H952 0.931 . S
C957 C958 1.348 . S
C957 C959 1.413 . S
C958 H953 0.930 . S
C958 C956 1.378 . S
C958 C957 1.348 . S
C959 C955 1.415 . S
C959 C957 1.413 . S
C959 C989 1.437 . S
H960 C989 0.929 . S
N961 Gd934 2.570 . S
N961 C962 1.359 . S
N961 C965 1.343 . S
C962 C955 1.422 . S
C962 N961 1.359 . S
C962 C964 1.421 . S
C963 C964 1.422 . S
C963 C966 1.321 . S
C963 H990 0.931 . S
C964 C962 1.421 . S
C964 C963 1.422 . S
C964 C988 1.417 . S
C965 H942 0.931 . S
C965 N961 1.343 . S
C965 C966 1.390 . S
C966 H944 0.930 . S
C966 C963 1.321 . S
C966 C965 1.390 . S
O967 Gd935 2.386 . S
O967 C979 1.265 . S
O968 Gd934 2.353 . S
O968 C979 1.242 . S
O969 Gd934 2.468 . S
O969 C987 1.263 . S
O970 Gd934 2.427 . S
O970 C987 1.252 . S
O971 Gd935 2.307 . S
O971 C980 1.261 . S
O972 Gd934 2.388 . S
O972 C980 1.252 . S
O973 Gd934 2.386 . S
O973 C991 1.265 . S
O974 Gd935 2.353 . S
O974 C991 1.242 . S
O975 Gd935 2.468 . S
O975 C999 1.263 . S
O976 Gd935 2.427 . S
O976 C999 1.252 . S
O977 Gd934 2.307 . S
O977 C992 1.261 . S
O978 Gd935 2.388 . S
O978 C992 1.252 . S
C979 O967 1.265 . S
C979 O968 1.242 . S
C980 O971 1.261 . S
C980 O972 1.252 . S
C981 C984 1.394 . S
C981 C986 1.370 . S
C981 C987 1.500 . S
C982 C985 1.383 . S
C982 C986 1.395 . S
C983 C984 1.396 . S
C983 C985 1.365 . S
C983 H1000 0.929 . S
C984 C981 1.394 . S
C984 C983 1.396 . S
C984 H1001 0.930 . S
C985 C982 1.383 . S
C985 C983 1.365 . S
C985 H1002 0.931 . S
C986 C981 1.370 . S
C986 C982 1.395 . S
C986 H1003 0.930 . S
C987 Gd934 2.805 . S
C987 O969 1.263 . S
C987 O970 1.252 . S
C987 C981 1.500 . S
C988 H950 0.930 . S
C988 C964 1.417 . S
C988 C989 1.329 . S
C989 C959 1.437 . S
C989 H960 0.929 . S
C989 C988 1.329 . S
H990 C963 0.931 . S
C991 O973 1.265 . S
C991 O974 1.242 . S
C992 O977 1.261 . S
C992 O978 1.252 . S
C993 C996 1.394 . S
C993 C998 1.370 . S
C993 C999 1.500 . S
C994 C997 1.383 . S
C994 C998 1.395 . S
C995 C996 1.396 . S
C995 C997 1.365 . S
C995 H1004 0.929 . S
C996 C993 1.394 . S
C996 C995 1.396 . S
C996 H1005 0.930 . S
C997 C994 1.383 . S
C997 C995 1.365 . S
C997 H1006 0.931 . S
C998 C993 1.370 . S
C998 C994 1.395 . S
C998 H1007 0.930 . S
C999 Gd935 2.805 . S
C999 O975 1.263 . S
C999 O976 1.252 . S
C999 C993 1.500 . S
H1000 C983 0.929 . S
H1001 C984 0.930 . S
H1002 C985 0.931 . S
H1003 C986 0.930 . S
H1004 C995 0.929 . S
H1005 C996 0.930 . S
H1006 C997 0.931 . S
H1007 C998 0.930 . S
C1008 C1010 1.422 . S
C1008 C1012 1.415 . S
C1008 N1014 1.369 . S
C1009 C1010 1.421 . S
C1009 C1011 1.417 . S
C1009 C1021 1.422 . S
C1010 C1008 1.422 . S
C1010 C1009 1.421 . S
C1010 N1020 1.359 . S
C1011 C1009 1.417 . S
C1011 C1013 1.329 . S
C1011 H1030 0.930 . S
C1012 C1008 1.415 . S
C1012 C1013 1.437 . S
C1012 C1016 1.413 . S
C1013 C1011 1.329 . S
C1013 C1012 1.437 . S
C1013 H1035 0.929 . S
N1014 C1008 1.369 . S
N1014 C1015 1.338 . S
N1014 Gd1019 2.622 . S
C1015 N1014 1.338 . S
C1015 C1017 1.378 . S
C1015 H1027 0.929 . S
C1016 C1012 1.413 . S
C1016 C1017 1.348 . S
C1016 H1032 0.931 . S
C1017 C1015 1.378 . S
C1017 C1016 1.348 . S
C1017 H1033 0.930 . S
Gd1018 N1038 2.622 1_554 S
Gd1018 N1045 2.570 1_554 S
Gd1018 O1052 2.353 . S
Gd1018 O1053 2.468 . S
Gd1018 O1054 2.427 . S
Gd1018 O1056 2.388 . S
Gd1018 O1057 2.386 1_554 S
Gd1018 O1061 2.307 . S
Gd1018 C1071 2.805 . S
Gd1019 N1014 2.622 . S
Gd1019 N1020 2.570 . S
Gd1019 O1051 2.386 . S
Gd1019 O1055 2.307 . S
Gd1019 O1058 2.353 1_554 S
Gd1019 O1059 2.468 . S
Gd1019 O1060 2.427 . S
Gd1019 O1062 2.388 . S
Gd1019 C1083 2.805 . S
N1020 C1010 1.359 . S
N1020 Gd1019 2.570 . S
N1020 C1022 1.343 . S
C1021 C1009 1.422 . S
C1021 C1023 1.321 . S
C1021 H1029 0.931 . S
C1022 N1020 1.343 . S
C1022 C1023 1.390 . S
C1022 H1024 0.931 . S
C1023 C1021 1.321 . S
C1023 C1022 1.390 . S
C1023 H1025 0.930 . S
H1024 C1022 0.931 . S
H1025 C1023 0.930 . S
H1026 C1049 0.931 1_554 S
H1027 C1015 0.929 . S
H1028 C1050 0.930 . S
H1029 C1021 0.931 . S
H1030 C1011 0.930 . S
H1031 C1040 0.929 1_554 S
H1032 C1016 0.931 . S
H1033 C1017 0.930 . S
H1034 C1072 0.930 . S
H1035 C1013 0.929 . S
H1036 C1041 0.931 . S
H1037 C1042 0.930 . S
N1038 Gd1018 2.622 1_556 S
N1038 C1039 1.369 . S
N1038 C1040 1.338 . S
C1039 N1038 1.369 . S
C1039 C1043 1.415 . S
C1039 C1046 1.422 . S
C1040 H1031 0.929 1_556 S
C1040 N1038 1.338 . S
C1040 C1042 1.378 . S
C1041 H1036 0.931 . S
C1041 C1042 1.348 . S
C1041 C1043 1.413 . S
C1042 H1037 0.930 . S
C1042 C1040 1.378 . S
C1042 C1041 1.348 . S
C1043 C1039 1.415 . S
C1043 C1041 1.413 . S
C1043 C1073 1.437 . S
H1044 C1073 0.929 . S
N1045 Gd1018 2.570 1_556 S
N1045 C1046 1.359 . S
N1045 C1049 1.343 . S
C1046 C1039 1.422 . S
C1046 N1045 1.359 . S
C1046 C1048 1.421 . S
C1047 C1048 1.422 . S
C1047 C1050 1.321 . S
C1047 H1074 0.931 . S
C1048 C1046 1.421 . S
C1048 C1047 1.422 . S
C1048 C1072 1.417 . S
C1049 H1026 0.931 1_556 S
C1049 N1045 1.343 . S
C1049 C1050 1.390 . S
C1050 H1028 0.930 . S
C1050 C1047 1.321 . S
C1050 C1049 1.390 . S
O1051 Gd1019 2.386 . S
O1051 C1063 1.265 . S
O1052 Gd1018 2.353 . S
O1052 C1063 1.242 . S
O1053 Gd1018 2.468 . S
O1053 C1071 1.263 . S
O1054 Gd1018 2.427 . S
O1054 C1071 1.252 . S
O1055 Gd1019 2.307 . S
O1055 C1064 1.261 . S
O1056 Gd1018 2.388 . S
O1056 C1064 1.252 . S
O1057 Gd1018 2.386 1_556 S
O1057 C1075 1.265 . S
O1058 Gd1019 2.353 1_556 S
O1058 C1075 1.242 . S
O1059 Gd1019 2.468 . S
O1059 C1083 1.263 . S
O1060 Gd1019 2.427 . S
O1060 C1083 1.252 . S
O1061 Gd1018 2.307 . S
O1061 C1076 1.261 . S
O1062 Gd1019 2.388 . S
O1062 C1076 1.252 . S
C1063 O1051 1.265 . S
C1063 O1052 1.242 . S
C1064 O1055 1.261 . S
C1064 O1056 1.252 . S
C1065 C1068 1.394 . S
C1065 C1070 1.370 . S
C1065 C1071 1.500 . S
C1066 C1069 1.383 . S
C1066 C1070 1.395 . S
C1067 C1068 1.396 . S
C1067 C1069 1.365 . S
C1067 H1084 0.929 . S
C1068 C1065 1.394 . S
C1068 C1067 1.396 . S
C1068 H1085 0.930 . S
C1069 C1066 1.383 . S
C1069 C1067 1.365 . S
C1069 H1086 0.931 . S
C1070 C1065 1.370 . S
C1070 C1066 1.395 . S
C1070 H1087 0.930 . S
C1071 Gd1018 2.805 . S
C1071 O1053 1.263 . S
C1071 O1054 1.252 . S
C1071 C1065 1.500 . S
C1072 H1034 0.930 . S
C1072 C1048 1.417 . S
C1072 C1073 1.329 . S
C1073 C1043 1.437 . S
C1073 H1044 0.929 . S
C1073 C1072 1.329 . S
H1074 C1047 0.931 . S
C1075 O1057 1.265 . S
C1075 O1058 1.242 . S
C1076 O1061 1.261 . S
C1076 O1062 1.252 . S
C1077 C1080 1.394 . S
C1077 C1082 1.370 . S
C1077 C1083 1.500 1_556 S
C1078 C1081 1.383 . S
C1078 C1082 1.395 . S
C1079 C1080 1.396 . S
C1079 C1081 1.365 . S
C1079 H1088 0.929 . S
C1080 C1077 1.394 . S
C1080 C1079 1.396 . S
C1080 H1089 0.931 . S
C1081 C1078 1.383 . S
C1081 C1079 1.365 . S
C1081 H1090 0.931 . S
C1082 C1077 1.370 . S
C1082 C1078 1.395 . S
C1082 H1091 0.930 . S
C1083 Gd1019 2.805 . S
C1083 O1059 1.263 . S
C1083 O1060 1.252 . S
C1083 C1077 1.500 1_554 S
H1084 C1067 0.929 . S
H1085 C1068 0.930 . S
H1086 C1069 0.931 . S
H1087 C1070 0.930 . S
H1088 C1079 0.929 . S
H1089 C1080 0.931 . S
H1090 C1081 0.931 . S
H1091 C1082 0.930 . S
C1092 C1094 1.422 . S
C1092 C1096 1.415 . S
C1092 N1098 1.369 . S
C1093 C1094 1.421 . S
C1093 C1095 1.417 . S
C1093 C1105 1.422 . S
C1094 C1092 1.422 . S
C1094 C1093 1.421 . S
C1094 N1104 1.359 . S
C1095 C1093 1.417 . S
C1095 C1097 1.329 . S
C1095 H1114 0.930 . S
C1096 C1092 1.415 . S
C1096 C1097 1.437 . S
C1096 C1100 1.413 . S
C1097 C1095 1.329 . S
C1097 C1096 1.437 . S
C1097 H1119 0.929 . S
N1098 C1092 1.369 . S
N1098 C1099 1.338 . S
N1098 Gd1103 2.622 . S
C1099 N1098 1.338 . S
C1099 C1101 1.378 . S
C1099 H1111 0.929 . S
C1100 C1096 1.413 . S
C1100 C1101 1.348 . S
C1100 H1116 0.931 . S
C1101 C1099 1.378 . S
C1101 C1100 1.348 . S
C1101 H1117 0.930 . S
Gd1102 N1122 2.622 . S
Gd1102 N1129 2.570 . S
Gd1102 O1136 2.353 . S
Gd1102 O1137 2.468 . S
Gd1102 O1138 2.427 . S
Gd1102 O1140 2.388 . S
Gd1102 O1141 2.386 . S
Gd1102 O1145 2.307 . S
Gd1102 C1155 2.805 . S
Gd1103 N1098 2.622 . S
Gd1103 N1104 2.570 . S
Gd1103 O1135 2.386 . S
Gd1103 O1139 2.307 . S
Gd1103 O1142 2.353 . S
Gd1103 O1143 2.468 . S
Gd1103 O1144 2.427 . S
Gd1103 O1146 2.388 . S
Gd1103 C1167 2.805 . S
N1104 C1094 1.359 . S
N1104 Gd1103 2.570 . S
N1104 C1106 1.343 . S
C1105 C1093 1.422 . S
C1105 C1107 1.321 . S
C1105 H1113 0.931 . S
C1106 N1104 1.343 . S
C1106 C1107 1.390 . S
C1106 H1108 0.931 . S
C1107 C1105 1.321 . S
C1107 C1106 1.390 . S
C1107 H1109 0.930 . S
H1108 C1106 0.931 . S
H1109 C1107 0.930 . S
H1110 C1133 0.931 . S
H1111 C1099 0.929 . S
H1112 C1134 0.930 . S
H1113 C1105 0.931 . S
H1114 C1095 0.930 . S
H1115 C1124 0.929 . S
H1116 C1100 0.931 . S
H1117 C1101 0.930 . S
H1118 C1156 0.930 . S
H1119 C1097 0.929 . S
H1120 C1125 0.931 . S
H1121 C1126 0.930 . S
N1122 Gd1102 2.622 . S
N1122 C1123 1.369 . S
N1122 C1124 1.338 . S
C1123 N1122 1.369 . S
C1123 C1127 1.415 . S
C1123 C1130 1.422 . S
C1124 H1115 0.929 . S
C1124 N1122 1.338 . S
C1124 C1126 1.378 . S
C1125 H1120 0.931 . S
C1125 C1126 1.348 . S
C1125 C1127 1.413 . S
C1126 H1121 0.930 . S
C1126 C1124 1.378 . S
C1126 C1125 1.348 . S
C1127 C1123 1.415 . S
C1127 C1125 1.413 . S
C1127 C1157 1.437 . S
H1128 C1157 0.929 . S
N1129 Gd1102 2.570 . S
N1129 C1130 1.359 . S
N1129 C1133 1.343 . S
C1130 C1123 1.422 . S
C1130 N1129 1.359 . S
C1130 C1132 1.421 . S
C1131 C1132 1.422 . S
C1131 C1134 1.321 . S
C1131 H1158 0.931 . S
C1132 C1130 1.421 . S
C1132 C1131 1.422 . S
C1132 C1156 1.417 . S
C1133 H1110 0.931 . S
C1133 N1129 1.343 . S
C1133 C1134 1.390 . S
C1134 H1112 0.930 . S
C1134 C1131 1.321 . S
C1134 C1133 1.390 . S
O1135 Gd1103 2.386 . S
O1135 C1147 1.265 . S
O1136 Gd1102 2.353 . S
O1136 C1147 1.242 . S
O1137 Gd1102 2.468 . S
O1137 C1155 1.263 . S
O1138 Gd1102 2.427 . S
O1138 C1155 1.252 . S
O1139 Gd1103 2.307 . S
O1139 C1148 1.261 . S
O1140 Gd1102 2.388 . S
O1140 C1148 1.252 . S
O1141 Gd1102 2.386 . S
O1141 C1159 1.265 . S
O1142 Gd1103 2.353 . S
O1142 C1159 1.242 . S
O1143 Gd1103 2.468 . S
O1143 C1167 1.263 . S
O1144 Gd1103 2.427 . S
O1144 C1167 1.252 . S
O1145 Gd1102 2.307 . S
O1145 C1160 1.261 . S
O1146 Gd1103 2.388 . S
O1146 C1160 1.252 . S
C1147 O1135 1.265 . S
C1147 O1136 1.242 . S
C1148 O1139 1.261 . S
C1148 O1140 1.252 . S
C1149 C1152 1.394 . S
C1149 C1154 1.370 . S
C1149 C1155 1.500 . S
C1150 C1153 1.383 . S
C1150 C1154 1.395 . S
C1151 C1152 1.396 . S
C1151 C1153 1.365 . S
C1151 H1168 0.929 . S
C1152 C1149 1.394 . S
C1152 C1151 1.396 . S
C1152 H1169 0.930 . S
C1153 C1150 1.383 . S
C1153 C1151 1.365 . S
C1153 H1170 0.931 . S
C1154 C1149 1.370 . S
C1154 C1150 1.395 . S
C1154 H1171 0.930 . S
C1155 Gd1102 2.805 . S
C1155 O1137 1.263 . S
C1155 O1138 1.252 . S
C1155 C1149 1.500 . S
C1156 H1118 0.930 . S
C1156 C1132 1.417 . S
C1156 C1157 1.329 . S
C1157 C1127 1.437 . S
C1157 H1128 0.929 . S
C1157 C1156 1.329 . S
H1158 C1131 0.931 . S
C1159 O1141 1.265 . S
C1159 O1142 1.242 . S
C1160 O1145 1.261 . S
C1160 O1146 1.252 . S
C1161 C1164 1.394 . S
C1161 C1166 1.370 . S
C1161 C1167 1.500 . S
C1162 C1165 1.383 . S
C1162 C1166 1.395 . S
C1163 C1164 1.396 . S
C1163 C1165 1.365 . S
C1163 H1172 0.929 . S
C1164 C1161 1.394 . S
C1164 C1163 1.396 . S
C1164 H1173 0.930 . S
C1165 C1162 1.383 . S
C1165 C1163 1.365 . S
C1165 H1174 0.931 . S
C1166 C1161 1.370 . S
C1166 C1162 1.395 . S
C1166 H1175 0.930 . S
C1167 Gd1103 2.805 . S
C1167 O1143 1.263 . S
C1167 O1144 1.252 . S
C1167 C1161 1.500 . S
H1168 C1151 0.929 . S
H1169 C1152 0.930 . S
H1170 C1153 0.931 . S
H1171 C1154 0.930 . S
H1172 C1163 0.929 . S
H1173 C1164 0.930 . S
H1174 C1165 0.931 . S
H1175 C1166 0.930 . S
C1176 C1178 1.422 . S
C1176 C1180 1.415 . S
C1176 N1182 1.369 . S
C1177 C1178 1.421 . S
C1177 C1179 1.417 . S
C1177 C1189 1.422 . S
C1178 C1176 1.422 . S
C1178 C1177 1.421 . S
C1178 N1188 1.359 . S
C1179 C1177 1.417 . S
C1179 C1181 1.329 . S
C1179 H1198 0.930 . S
C1180 C1176 1.415 . S
C1180 C1181 1.437 . S
C1180 C1184 1.413 . S
C1181 C1179 1.329 . S
C1181 C1180 1.437 . S
C1181 H1203 0.929 . S
N1182 C1176 1.369 . S
N1182 C1183 1.338 . S
N1182 Gd1187 2.622 . S
C1183 N1182 1.338 . S
C1183 C1185 1.378 . S
C1183 H1195 0.929 . S
C1184 C1180 1.413 . S
C1184 C1185 1.348 . S
C1184 H1200 0.931 . S
C1185 C1183 1.378 . S
C1185 C1184 1.348 . S
C1185 H1201 0.930 . S
Gd1186 N1206 2.622 1_455 S
Gd1186 N1213 2.570 1_455 S
Gd1186 O1220 2.353 . S
Gd1186 O1221 2.468 . S
Gd1186 O1222 2.427 . S
Gd1186 O1224 2.388 . S
Gd1186 O1225 2.386 1_455 S
Gd1186 O1229 2.307 . S
Gd1186 C1239 2.805 . S
Gd1187 N1182 2.622 . S
Gd1187 N1188 2.570 . S
Gd1187 O1219 2.386 . S
Gd1187 O1223 2.307 . S
Gd1187 O1226 2.353 1_455 S
Gd1187 O1227 2.468 . S
Gd1187 O1228 2.427 . S
Gd1187 O1230 2.388 . S
Gd1187 C1251 2.805 . S
N1188 C1178 1.359 . S
N1188 Gd1187 2.570 . S
N1188 C1190 1.343 . S
C1189 C1177 1.422 . S
C1189 C1191 1.321 . S
C1189 H1197 0.931 . S
C1190 N1188 1.343 . S
C1190 C1191 1.390 . S
C1190 H1192 0.931 . S
C1191 C1189 1.321 . S
C1191 C1190 1.390 . S
C1191 H1193 0.930 . S
H1192 C1190 0.931 . S
H1193 C1191 0.930 . S
H1194 C1217 0.931 1_455 S
H1195 C1183 0.929 . S
H1196 C1218 0.930 . S
H1197 C1189 0.931 . S
H1198 C1179 0.930 . S
H1199 C1208 0.929 . S
H1200 C1184 0.931 . S
H1201 C1185 0.930 . S
H1202 C1240 0.930 . S
H1203 C1181 0.929 . S
H1204 C1209 0.931 . S
H1205 C1210 0.930 . S
N1206 Gd1186 2.622 1_655 S
N1206 C1207 1.369 . S
N1206 C1208 1.337 1_655 S
C1207 N1206 1.369 . S
C1207 C1211 1.415 . S
C1207 C1214 1.422 . S
C1208 H1199 0.929 . S
C1208 N1206 1.337 1_455 S
C1208 C1210 1.379 1_455 S
C1209 H1204 0.931 . S
C1209 C1210 1.348 . S
C1209 C1211 1.413 . S
C1210 H1205 0.930 . S
C1210 C1208 1.379 1_655 S
C1210 C1209 1.348 . S
C1211 C1207 1.415 . S
C1211 C1209 1.413 . S
C1211 C1241 1.437 . S
H1212 C1241 0.929 . S
N1213 Gd1186 2.570 1_655 S
N1213 C1214 1.359 . S
N1213 C1217 1.343 . S
C1214 C1207 1.422 . S
C1214 N1213 1.359 . S
C1214 C1216 1.421 . S
C1215 C1216 1.422 . S
C1215 C1218 1.321 . S
C1215 H1242 0.931 . S
C1216 C1214 1.421 . S
C1216 C1215 1.422 . S
C1216 C1240 1.417 . S
C1217 H1194 0.931 1_655 S
C1217 N1213 1.343 . S
C1217 C1218 1.390 . S
C1218 H1196 0.930 . S
C1218 C1215 1.321 . S
C1218 C1217 1.390 . S
O1219 Gd1187 2.386 . S
O1219 C1231 1.265 . S
O1220 Gd1186 2.353 . S
O1220 C1231 1.242 . S
O1221 Gd1186 2.468 . S
O1221 C1239 1.263 . S
O1222 Gd1186 2.427 . S
O1222 C1239 1.252 . S
O1223 Gd1187 2.307 . S
O1223 C1232 1.261 . S
O1224 Gd1186 2.388 . S
O1224 C1232 1.252 . S
O1225 Gd1186 2.386 1_655 S
O1225 C1243 1.265 . S
O1226 Gd1187 2.353 1_655 S
O1226 C1243 1.242 . S
O1227 Gd1187 2.468 . S
O1227 C1251 1.263 . S
O1228 Gd1187 2.427 . S
O1228 C1251 1.252 . S
O1229 Gd1186 2.307 . S
O1229 C1244 1.261 . S
O1230 Gd1187 2.388 . S
O1230 C1244 1.252 . S
C1231 O1219 1.265 . S
C1231 O1220 1.242 . S
C1232 O1223 1.261 . S
C1232 O1224 1.252 . S
C1233 C1236 1.394 . S
C1233 C1238 1.370 . S
C1233 C1239 1.500 . S
C1234 C1237 1.383 . S
C1234 C1238 1.395 . S
C1235 C1236 1.396 . S
C1235 C1237 1.365 . S
C1235 H1252 0.929 . S
C1236 C1233 1.394 . S
C1236 C1235 1.396 . S
C1236 H1253 0.930 . S
C1237 C1234 1.383 . S
C1237 C1235 1.365 . S
C1237 H1254 0.931 . S
C1238 C1233 1.370 . S
C1238 C1234 1.395 . S
C1238 H1255 0.930 . S
C1239 Gd1186 2.805 . S
C1239 O1221 1.263 . S
C1239 O1222 1.252 . S
C1239 C1233 1.500 . S
C1240 H1202 0.930 . S
C1240 C1216 1.417 . S
C1240 C1241 1.329 . S
C1241 C1211 1.437 . S
C1241 H1212 0.929 . S
C1241 C1240 1.329 . S
H1242 C1215 0.931 . S
C1243 O1225 1.265 . S
C1243 O1226 1.242 . S
C1244 O1229 1.261 . S
C1244 O1230 1.252 . S
C1245 C1248 1.394 . S
C1245 C1250 1.370 . S
C1245 C1251 1.500 1_655 S
C1246 C1249 1.383 . S
C1246 C1250 1.395 . S
C1247 C1248 1.396 . S
C1247 C1249 1.365 . S
C1247 H1256 0.929 . S
C1248 C1245 1.394 . S
C1248 C1247 1.396 . S
C1248 H1257 0.930 . S
C1249 C1246 1.383 . S
C1249 C1247 1.365 . S
C1249 H1258 0.931 . S
C1250 C1245 1.370 . S
C1250 C1246 1.395 . S
C1250 H1259 0.930 . S
C1251 Gd1187 2.805 . S
C1251 O1227 1.263 . S
C1251 O1228 1.252 . S
C1251 C1245 1.500 1_455 S
H1252 C1235 0.929 . S
H1253 C1236 0.930 . S
H1254 C1237 0.931 . S
H1255 C1238 0.930 . S
H1256 C1247 0.929 . S
H1257 C1248 0.930 . S
H1258 C1249 0.931 . S
H1259 C1250 0.930 . S
C1260 C1262 1.422 . S
C1260 C1264 1.415 . S
C1260 N1266 1.369 . S
C1261 C1262 1.421 . S
C1261 C1263 1.417 . S
C1261 C1273 1.422 . S
C1262 C1260 1.422 . S
C1262 C1261 1.421 . S
C1262 N1272 1.359 . S
C1263 C1261 1.417 . S
C1263 C1265 1.329 . S
C1263 H1282 0.930 . S
C1264 C1260 1.415 . S
C1264 C1265 1.437 . S
C1264 C1268 1.413 . S
C1265 C1263 1.329 . S
C1265 C1264 1.437 . S
C1265 H1287 0.929 . S
N1266 C1260 1.369 . S
N1266 C1267 1.338 . S
N1266 Gd1271 2.622 . S
C1267 N1266 1.338 . S
C1267 C1269 1.378 . S
C1267 H1279 0.929 . S
C1268 C1264 1.413 . S
C1268 C1269 1.348 . S
C1268 H1284 0.931 . S
C1269 C1267 1.378 . S
C1269 C1268 1.348 . S
C1269 H1285 0.930 . S
Gd1270 N1290 2.622 . S
Gd1270 N1297 2.570 . S
Gd1270 O1304 2.353 . S
Gd1270 O1305 2.468 . S
Gd1270 O1306 2.427 . S
Gd1270 O1308 2.388 . S
Gd1270 O1309 2.386 . S
Gd1270 O1313 2.307 . S
Gd1270 C1323 2.805 . S
Gd1271 N1266 2.622 . S
Gd1271 N1272 2.570 . S
Gd1271 O1303 2.386 . S
Gd1271 O1307 2.307 . S
Gd1271 O1310 2.353 . S
Gd1271 O1311 2.468 . S
Gd1271 O1312 2.427 . S
Gd1271 O1314 2.388 . S
Gd1271 C1335 2.805 . S
N1272 C1262 1.359 . S
N1272 Gd1271 2.570 . S
N1272 C1274 1.343 . S
C1273 C1261 1.422 . S
C1273 C1275 1.321 . S
C1273 H1281 0.931 . S
C1274 N1272 1.343 . S
C1274 C1275 1.390 . S
C1274 H1276 0.931 . S
C1275 C1273 1.321 . S
C1275 C1274 1.390 . S
C1275 H1277 0.930 . S
H1276 C1274 0.931 . S
H1277 C1275 0.930 . S
H1278 C1301 0.931 . S
H1279 C1267 0.929 . S
H1280 C1302 0.930 . S
H1281 C1273 0.931 . S
H1282 C1263 0.930 . S
H1283 C1292 0.929 . S
H1284 C1268 0.931 . S
H1285 C1269 0.930 . S
H1286 C1324 0.930 . S
H1287 C1265 0.929 . S
H1288 C1293 0.931 . S
H1289 C1294 0.930 . S
N1290 Gd1270 2.622 . S
N1290 C1291 1.369 . S
N1290 C1292 1.338 . S
C1291 N1290 1.369 . S
C1291 C1295 1.415 . S
C1291 C1298 1.422 . S
C1292 H1283 0.929 . S
C1292 N1290 1.338 . S
C1292 C1294 1.378 . S
C1293 H1288 0.931 . S
C1293 C1294 1.348 . S
C1293 C1295 1.413 . S
C1294 H1289 0.930 . S
C1294 C1292 1.378 . S
C1294 C1293 1.348 . S
C1295 C1291 1.415 . S
C1295 C1293 1.413 . S
C1295 C1325 1.437 . S
H1296 C1325 0.929 . S
N1297 Gd1270 2.570 . S
N1297 C1298 1.359 . S
N1297 C1301 1.343 . S
C1298 C1291 1.422 . S
C1298 N1297 1.359 . S
C1298 C1300 1.421 . S
C1299 C1300 1.422 . S
C1299 C1302 1.321 . S
C1299 H1326 0.931 . S
C1300 C1298 1.421 . S
C1300 C1299 1.422 . S
C1300 C1324 1.417 . S
C1301 H1278 0.931 . S
C1301 N1297 1.343 . S
C1301 C1302 1.390 . S
C1302 H1280 0.930 . S
C1302 C1299 1.321 . S
C1302 C1301 1.390 . S
O1303 Gd1271 2.386 . S
O1303 C1315 1.265 . S
O1304 Gd1270 2.353 . S
O1304 C1315 1.242 . S
O1305 Gd1270 2.468 . S
O1305 C1323 1.263 . S
O1306 Gd1270 2.427 . S
O1306 C1323 1.252 . S
O1307 Gd1271 2.307 . S
O1307 C1316 1.261 . S
O1308 Gd1270 2.388 . S
O1308 C1316 1.252 . S
O1309 Gd1270 2.386 . S
O1309 C1327 1.265 . S
O1310 Gd1271 2.353 . S
O1310 C1327 1.242 . S
O1311 Gd1271 2.468 . S
O1311 C1335 1.263 . S
O1312 Gd1271 2.427 . S
O1312 C1335 1.252 . S
O1313 Gd1270 2.307 . S
O1313 C1328 1.261 . S
O1314 Gd1271 2.388 . S
O1314 C1328 1.252 . S
C1315 O1303 1.265 . S
C1315 O1304 1.242 . S
C1316 O1307 1.261 . S
C1316 O1308 1.252 . S
C1317 C1320 1.394 . S
C1317 C1322 1.370 . S
C1317 C1323 1.500 . S
C1318 C1321 1.383 . S
C1318 C1322 1.395 . S
C1319 C1320 1.396 . S
C1319 C1321 1.365 . S
C1319 H1336 0.929 . S
C1320 C1317 1.394 . S
C1320 C1319 1.396 . S
C1320 H1337 0.930 . S
C1321 C1318 1.383 . S
C1321 C1319 1.365 . S
C1321 H1338 0.931 . S
C1322 C1317 1.370 . S
C1322 C1318 1.395 . S
C1322 H1339 0.930 . S
C1323 Gd1270 2.805 . S
C1323 O1305 1.263 . S
C1323 O1306 1.252 . S
C1323 C1317 1.500 . S
C1324 H1286 0.930 . S
C1324 C1300 1.417 . S
C1324 C1325 1.329 . S
C1325 C1295 1.437 . S
C1325 H1296 0.929 . S
C1325 C1324 1.329 . S
H1326 C1299 0.931 . S
C1327 O1309 1.265 . S
C1327 O1310 1.242 . S
C1328 O1313 1.261 . S
C1328 O1314 1.252 . S
C1329 C1332 1.394 . S
C1329 C1334 1.370 . S
C1329 C1335 1.500 . S
C1330 C1333 1.383 . S
C1330 C1334 1.395 . S
C1331 C1332 1.396 . S
C1331 C1333 1.365 . S
C1331 H1340 0.929 . S
C1332 C1329 1.394 . S
C1332 C1331 1.396 . S
C1332 H1341 0.930 . S
C1333 C1330 1.383 . S
C1333 C1331 1.365 . S
C1333 H1342 0.931 . S
C1334 C1329 1.370 . S
C1334 C1330 1.395 . S
C1334 H1343 0.930 . S
C1335 Gd1271 2.805 . S
C1335 O1311 1.263 . S
C1335 O1312 1.252 . S
C1335 C1329 1.500 . S
H1336 C1319 0.929 . S
H1337 C1320 0.930 . S
H1338 C1321 0.931 . S
H1339 C1322 0.930 . S
H1340 C1331 0.929 . S
H1341 C1332 0.930 . S
H1342 C1333 0.931 . S
H1343 C1334 0.930 . S
C1344 C1346 1.422 . S
C1344 C1348 1.415 . S
C1344 N1350 1.369 . S
C1345 C1346 1.421 . S
C1345 C1347 1.417 . S
C1345 C1357 1.422 . S
C1346 C1344 1.422 . S
C1346 C1345 1.421 . S
C1346 N1356 1.359 . S
C1347 C1345 1.417 . S
C1347 C1349 1.329 . S
C1347 H1366 0.930 . S
C1348 C1344 1.415 . S
C1348 C1349 1.437 . S
C1348 C1352 1.413 . S
C1349 C1347 1.329 . S
C1349 C1348 1.437 . S
C1349 H1371 0.929 . S
N1350 C1344 1.369 . S
N1350 C1351 1.338 . S
N1350 Gd1355 2.622 . S
C1351 N1350 1.338 . S
C1351 C1353 1.378 . S
C1351 H1363 0.929 . S
C1352 C1348 1.413 . S
C1352 C1353 1.348 . S
C1352 H1368 0.931 . S
C1353 C1351 1.378 . S
C1353 C1352 1.348 . S
C1353 H1369 0.930 . S
Gd1354 N1374 2.622 . S
Gd1354 N1381 2.570 . S
Gd1354 O1388 2.353 . S
Gd1354 O1389 2.468 . S
Gd1354 O1390 2.427 . S
Gd1354 O1392 2.388 . S
Gd1354 O1393 2.386 . S
Gd1354 O1397 2.307 . S
Gd1354 C1407 2.805 . S
Gd1355 N1350 2.622 . S
Gd1355 N1356 2.570 . S
Gd1355 O1387 2.386 . S
Gd1355 O1391 2.307 . S
Gd1355 O1394 2.353 . S
Gd1355 O1395 2.468 . S
Gd1355 O1396 2.427 . S
Gd1355 O1398 2.388 . S
Gd1355 C1419 2.805 . S
N1356 C1346 1.359 . S
N1356 Gd1355 2.570 . S
N1356 C1358 1.343 . S
C1357 C1345 1.422 . S
C1357 C1359 1.321 . S
C1357 H1365 0.931 . S
C1358 N1356 1.343 . S
C1358 C1359 1.390 . S
C1358 H1360 0.931 . S
C1359 C1357 1.321 . S
C1359 C1358 1.390 . S
C1359 H1361 0.930 . S
H1360 C1358 0.931 . S
H1361 C1359 0.930 . S
H1362 C1385 0.931 . S
H1363 C1351 0.929 . S
H1364 C1386 0.930 . S
H1365 C1357 0.931 . S
H1366 C1347 0.930 . S
H1367 C1376 0.929 . S
H1368 C1352 0.931 . S
H1369 C1353 0.930 . S
H1370 C1408 0.930 . S
H1371 C1349 0.929 . S
H1372 C1377 0.931 . S
H1373 C1378 0.930 . S
N1374 Gd1354 2.622 . S
N1374 C1375 1.369 . S
N1374 C1376 1.338 . S
C1375 N1374 1.369 . S
C1375 C1379 1.415 . S
C1375 C1382 1.422 . S
C1376 H1367 0.929 . S
C1376 N1374 1.338 . S
C1376 C1378 1.378 . S
C1377 H1372 0.931 . S
C1377 C1378 1.348 . S
C1377 C1379 1.413 . S
C1378 H1373 0.930 . S
C1378 C1376 1.378 . S
C1378 C1377 1.348 . S
C1379 C1375 1.415 . S
C1379 C1377 1.413 . S
C1379 C1409 1.437 . S
H1380 C1409 0.929 . S
N1381 Gd1354 2.570 . S
N1381 C1382 1.359 . S
N1381 C1385 1.343 . S
C1382 C1375 1.422 . S
C1382 N1381 1.359 . S
C1382 C1384 1.421 . S
C1383 C1384 1.422 . S
C1383 C1386 1.321 . S
C1383 H1410 0.931 . S
C1384 C1382 1.421 . S
C1384 C1383 1.422 . S
C1384 C1408 1.417 . S
C1385 H1362 0.931 . S
C1385 N1381 1.343 . S
C1385 C1386 1.390 . S
C1386 H1364 0.930 . S
C1386 C1383 1.321 . S
C1386 C1385 1.390 . S
O1387 Gd1355 2.386 . S
O1387 C1399 1.265 . S
O1388 Gd1354 2.353 . S
O1388 C1399 1.242 . S
O1389 Gd1354 2.468 . S
O1389 C1407 1.263 . S
O1390 Gd1354 2.427 . S
O1390 C1407 1.252 . S
O1391 Gd1355 2.307 . S
O1391 C1400 1.261 . S
O1392 Gd1354 2.388 . S
O1392 C1400 1.252 . S
O1393 Gd1354 2.386 . S
O1393 C1411 1.265 . S
O1394 Gd1355 2.353 . S
O1394 C1411 1.242 . S
O1395 Gd1355 2.468 . S
O1395 C1419 1.263 . S
O1396 Gd1355 2.427 . S
O1396 C1419 1.252 . S
O1397 Gd1354 2.307 . S
O1397 C1412 1.261 . S
O1398 Gd1355 2.388 . S
O1398 C1412 1.252 . S
C1399 O1387 1.265 . S
C1399 O1388 1.242 . S
C1400 O1391 1.261 . S
C1400 O1392 1.252 . S
C1401 C1404 1.394 . S
C1401 C1406 1.370 . S
C1401 C1407 1.500 . S
C1402 C1405 1.383 . S
C1402 C1406 1.395 . S
C1403 C1404 1.396 . S
C1403 C1405 1.365 . S
C1403 H1420 0.929 . S
C1404 C1401 1.394 . S
C1404 C1403 1.396 . S
C1404 H1421 0.930 . S
C1405 C1402 1.383 . S
C1405 C1403 1.365 . S
C1405 H1422 0.931 . S
C1406 C1401 1.370 . S
C1406 C1402 1.395 . S
C1406 H1423 0.930 . S
C1407 Gd1354 2.805 . S
C1407 O1389 1.263 . S
C1407 O1390 1.252 . S
C1407 C1401 1.500 . S
C1408 H1370 0.930 . S
C1408 C1384 1.417 . S
C1408 C1409 1.329 . S
C1409 C1379 1.437 . S
C1409 H1380 0.929 . S
C1409 C1408 1.329 . S
H1410 C1383 0.931 . S
C1411 O1393 1.265 . S
C1411 O1394 1.242 . S
C1412 O1397 1.261 . S
C1412 O1398 1.252 . S
C1413 C1416 1.394 . S
C1413 C1418 1.370 . S
C1413 C1419 1.500 . S
C1414 C1417 1.383 . S
C1414 C1418 1.395 . S
C1415 C1416 1.396 . S
C1415 C1417 1.365 . S
C1415 H1424 0.929 . S
C1416 C1413 1.394 . S
C1416 C1415 1.396 . S
C1416 H1425 0.930 . S
C1417 C1414 1.383 . S
C1417 C1415 1.365 . S
C1417 H1426 0.931 . S
C1418 C1413 1.370 . S
C1418 C1414 1.395 . S
C1418 H1427 0.930 . S
C1419 Gd1355 2.805 . S
C1419 O1395 1.263 . S
C1419 O1396 1.252 . S
C1419 C1413 1.500 . S
H1420 C1403 0.929 . S
H1421 C1404 0.930 . S
H1422 C1405 0.931 . S
H1423 C1406 0.930 . S
H1424 C1415 0.929 . S
H1425 C1416 0.930 . S
H1426 C1417 0.931 . S
H1427 C1418 0.930 . S
C1428 C1430 1.422 . S
C1428 C1432 1.415 . S
C1428 N1434 1.369 . S
C1429 C1430 1.421 . S
C1429 C1431 1.417 . S
C1429 C1441 1.422 . S
C1430 C1428 1.422 . S
C1430 C1429 1.421 . S
C1430 N1440 1.359 . S
C1431 C1429 1.417 . S
C1431 C1433 1.329 . S
C1431 H1450 0.930 . S
C1432 C1428 1.415 . S
C1432 C1433 1.437 . S
C1432 C1436 1.413 . S
C1433 C1431 1.329 . S
C1433 C1432 1.437 . S
C1433 H1455 0.929 . S
N1434 C1428 1.369 . S
N1434 C1435 1.338 . S
N1434 Gd1439 2.622 . S
C1435 N1434 1.338 . S
C1435 C1437 1.378 . S
C1435 H1447 0.929 . S
C1436 C1432 1.413 . S
C1436 C1437 1.348 . S
C1436 H1452 0.931 . S
C1437 C1435 1.378 . S
C1437 C1436 1.348 . S
C1437 H1453 0.930 . S
Gd1438 N1458 2.622 . S
Gd1438 N1465 2.570 . S
Gd1438 O1472 2.353 . S
Gd1438 O1473 2.468 . S
Gd1438 O1474 2.427 . S
Gd1438 O1476 2.388 . S
Gd1438 O1477 2.386 . S
Gd1438 O1481 2.307 . S
Gd1438 C1491 2.805 . S
Gd1439 N1434 2.622 . S
Gd1439 N1440 2.570 . S
Gd1439 O1471 2.386 . S
Gd1439 O1475 2.307 . S
Gd1439 O1478 2.353 . S
Gd1439 O1479 2.468 . S
Gd1439 O1480 2.427 . S
Gd1439 O1482 2.388 . S
Gd1439 C1503 2.805 . S
N1440 C1430 1.359 . S
N1440 Gd1439 2.570 . S
N1440 C1442 1.343 . S
C1441 C1429 1.422 . S
C1441 C1443 1.321 . S
C1441 H1449 0.931 . S
C1442 N1440 1.343 . S
C1442 C1443 1.390 . S
C1442 H1444 0.931 . S
C1443 C1441 1.321 . S
C1443 C1442 1.390 . S
C1443 H1445 0.930 . S
H1444 C1442 0.931 . S
H1445 C1443 0.930 . S
H1446 C1469 0.931 . S
H1447 C1435 0.929 . S
H1448 C1470 0.930 . S
H1449 C1441 0.931 . S
H1450 C1431 0.930 . S
H1451 C1460 0.929 . S
H1452 C1436 0.931 . S
H1453 C1437 0.930 . S
H1454 C1492 0.930 . S
H1455 C1433 0.929 . S
H1456 C1461 0.931 . S
H1457 C1462 0.930 . S
N1458 Gd1438 2.622 . S
N1458 C1459 1.369 . S
N1458 C1460 1.338 . S
C1459 N1458 1.369 . S
C1459 C1463 1.415 . S
C1459 C1466 1.422 . S
C1460 H1451 0.929 . S
C1460 N1458 1.338 . S
C1460 C1462 1.378 . S
C1461 H1456 0.931 . S
C1461 C1462 1.348 . S
C1461 C1463 1.413 . S
C1462 H1457 0.930 . S
C1462 C1460 1.378 . S
C1462 C1461 1.348 . S
C1463 C1459 1.415 . S
C1463 C1461 1.413 . S
C1463 C1493 1.437 . S
H1464 C1493 0.929 . S
N1465 Gd1438 2.570 . S
N1465 C1466 1.359 . S
N1465 C1469 1.343 . S
C1466 C1459 1.422 . S
C1466 N1465 1.359 . S
C1466 C1468 1.421 . S
C1467 C1468 1.422 . S
C1467 C1470 1.321 . S
C1467 H1494 0.931 . S
C1468 C1466 1.421 . S
C1468 C1467 1.422 . S
C1468 C1492 1.417 . S
C1469 H1446 0.931 . S
C1469 N1465 1.343 . S
C1469 C1470 1.390 . S
C1470 H1448 0.930 . S
C1470 C1467 1.321 . S
C1470 C1469 1.390 . S
O1471 Gd1439 2.386 . S
O1471 C1483 1.265 . S
O1472 Gd1438 2.353 . S
O1472 C1483 1.242 . S
O1473 Gd1438 2.468 . S
O1473 C1491 1.263 . S
O1474 Gd1438 2.427 . S
O1474 C1491 1.252 . S
O1475 Gd1439 2.307 . S
O1475 C1484 1.261 . S
O1476 Gd1438 2.388 . S
O1476 C1484 1.252 . S
O1477 Gd1438 2.386 . S
O1477 C1495 1.265 . S
O1478 Gd1439 2.353 . S
O1478 C1495 1.242 . S
O1479 Gd1439 2.468 . S
O1479 C1503 1.263 . S
O1480 Gd1439 2.427 . S
O1480 C1503 1.252 . S
O1481 Gd1438 2.307 . S
O1481 C1496 1.261 . S
O1482 Gd1439 2.388 . S
O1482 C1496 1.252 . S
C1483 O1471 1.265 . S
C1483 O1472 1.242 . S
C1484 O1475 1.261 . S
C1484 O1476 1.252 . S
C1485 C1488 1.394 . S
C1485 C1490 1.370 . S
C1485 C1491 1.500 . S
C1486 C1489 1.383 . S
C1486 C1490 1.395 . S
C1487 C1488 1.396 . S
C1487 C1489 1.365 . S
C1487 H1504 0.929 . S
C1488 C1485 1.394 . S
C1488 C1487 1.396 . S
C1488 H1505 0.930 . S
C1489 C1486 1.383 . S
C1489 C1487 1.365 . S
C1489 H1506 0.931 . S
C1490 C1485 1.370 . S
C1490 C1486 1.395 . S
C1490 H1507 0.930 . S
C1491 Gd1438 2.805 . S
C1491 O1473 1.263 . S
C1491 O1474 1.252 . S
C1491 C1485 1.500 . S
C1492 H1454 0.930 . S
C1492 C1468 1.417 . S
C1492 C1493 1.329 . S
C1493 C1463 1.437 . S
C1493 H1464 0.929 . S
C1493 C1492 1.329 . S
H1494 C1467 0.931 . S
C1495 O1477 1.265 . S
C1495 O1478 1.242 . S
C1496 O1481 1.261 . S
C1496 O1482 1.252 . S
C1497 C1500 1.394 . S
C1497 C1502 1.370 . S
C1497 C1503 1.500 . S
C1498 C1501 1.383 . S
C1498 C1502 1.395 . S
C1499 C1500 1.396 . S
C1499 C1501 1.365 . S
C1499 H1508 0.929 . S
C1500 C1497 1.394 . S
C1500 C1499 1.396 . S
C1500 H1509 0.930 . S
C1501 C1498 1.383 . S
C1501 C1499 1.365 . S
C1501 H1510 0.931 . S
C1502 C1497 1.370 . S
C1502 C1498 1.395 . S
C1502 H1511 0.930 . S
C1503 Gd1439 2.805 . S
C1503 O1479 1.263 . S
C1503 O1480 1.252 . S
C1503 C1497 1.500 . S
H1504 C1487 0.929 . S
H1505 C1488 0.930 . S
H1506 C1489 0.931 . S
H1507 C1490 0.930 . S
H1508 C1499 0.929 . S
H1509 C1500 0.930 . S
H1510 C1501 0.931 . S
H1511 C1502 0.930 . S
C1512 C1514 1.422 . S
C1512 C1516 1.415 . S
C1512 N1518 1.369 . S
C1513 C1514 1.421 . S
C1513 C1515 1.417 . S
C1513 C1525 1.422 . S
C1514 C1512 1.422 . S
C1514 C1513 1.421 . S
C1514 N1524 1.359 . S
C1515 C1513 1.417 . S
C1515 C1517 1.329 . S
C1515 H1534 0.930 . S
C1516 C1512 1.415 . S
C1516 C1517 1.437 . S
C1516 C1520 1.413 . S
C1517 C1515 1.329 . S
C1517 C1516 1.437 . S
C1517 H1539 0.929 . S
N1518 C1512 1.369 . S
N1518 C1519 1.338 . S
N1518 Gd1523 2.622 . S
C1519 N1518 1.338 . S
C1519 C1521 1.378 . S
C1519 H1531 0.929 . S
C1520 C1516 1.413 . S
C1520 C1521 1.348 . S
C1520 H1536 0.931 . S
C1521 C1519 1.378 . S
C1521 C1520 1.348 . S
C1521 H1537 0.930 . S
Gd1522 N1542 2.622 . S
Gd1522 N1549 2.570 . S
Gd1522 O1556 2.353 . S
Gd1522 O1557 2.468 . S
Gd1522 O1558 2.427 . S
Gd1522 O1560 2.388 . S
Gd1522 O1561 2.386 . S
Gd1522 O1565 2.307 . S
Gd1522 C1575 2.805 . S
Gd1523 N1518 2.622 . S
Gd1523 N1524 2.570 . S
Gd1523 O1555 2.386 . S
Gd1523 O1559 2.307 . S
Gd1523 O1562 2.353 . S
Gd1523 O1563 2.468 . S
Gd1523 O1564 2.427 . S
Gd1523 O1566 2.388 . S
Gd1523 C1587 2.805 . S
N1524 C1514 1.359 . S
N1524 Gd1523 2.570 . S
N1524 C1526 1.343 . S
C1525 C1513 1.422 . S
C1525 C1527 1.321 . S
C1525 H1533 0.931 . S
C1526 N1524 1.343 . S
C1526 C1527 1.390 . S
C1526 H1528 0.931 . S
C1527 C1525 1.321 . S
C1527 C1526 1.390 . S
C1527 H1529 0.930 . S
H1528 C1526 0.931 . S
H1529 C1527 0.930 . S
H1530 C1553 0.931 . S
H1531 C1519 0.929 . S
H1532 C1554 0.930 . S
H1533 C1525 0.931 . S
H1534 C1515 0.930 . S
H1535 C1544 0.929 . S
H1536 C1520 0.931 . S
H1537 C1521 0.930 . S
H1538 C1576 0.930 . S
H1539 C1517 0.929 . S
H1540 C1545 0.931 . S
H1541 C1546 0.930 . S
N1542 Gd1522 2.622 . S
N1542 C1543 1.369 . S
N1542 C1544 1.338 . S
C1543 N1542 1.369 . S
C1543 C1547 1.415 . S
C1543 C1550 1.422 . S
C1544 H1535 0.929 . S
C1544 N1542 1.338 . S
C1544 C1546 1.378 . S
C1545 H1540 0.931 . S
C1545 C1546 1.348 . S
C1545 C1547 1.413 . S
C1546 H1541 0.930 . S
C1546 C1544 1.378 . S
C1546 C1545 1.348 . S
C1547 C1543 1.415 . S
C1547 C1545 1.413 . S
C1547 C1577 1.437 . S
H1548 C1577 0.929 . S
N1549 Gd1522 2.570 . S
N1549 C1550 1.359 . S
N1549 C1553 1.343 . S
C1550 C1543 1.422 . S
C1550 N1549 1.359 . S
C1550 C1552 1.421 . S
C1551 C1552 1.422 . S
C1551 C1554 1.321 . S
C1551 H1578 0.931 . S
C1552 C1550 1.421 . S
C1552 C1551 1.422 . S
C1552 C1576 1.417 . S
C1553 H1530 0.931 . S
C1553 N1549 1.343 . S
C1553 C1554 1.390 . S
C1554 H1532 0.930 . S
C1554 C1551 1.321 . S
C1554 C1553 1.390 . S
O1555 Gd1523 2.386 . S
O1555 C1567 1.265 . S
O1556 Gd1522 2.353 . S
O1556 C1567 1.242 . S
O1557 Gd1522 2.468 . S
O1557 C1575 1.263 . S
O1558 Gd1522 2.427 . S
O1558 C1575 1.252 . S
O1559 Gd1523 2.307 . S
O1559 C1568 1.261 . S
O1560 Gd1522 2.388 . S
O1560 C1568 1.252 . S
O1561 Gd1522 2.386 . S
O1561 C1579 1.265 . S
O1562 Gd1523 2.353 . S
O1562 C1579 1.242 . S
O1563 Gd1523 2.468 . S
O1563 C1587 1.263 . S
O1564 Gd1523 2.427 . S
O1564 C1587 1.252 . S
O1565 Gd1522 2.307 . S
O1565 C1580 1.261 . S
O1566 Gd1523 2.388 . S
O1566 C1580 1.252 . S
C1567 O1555 1.265 . S
C1567 O1556 1.242 . S
C1568 O1559 1.261 . S
C1568 O1560 1.252 . S
C1569 C1572 1.394 . S
C1569 C1574 1.370 . S
C1569 C1575 1.500 . S
C1570 C1573 1.383 . S
C1570 C1574 1.395 . S
C1571 C1572 1.396 . S
C1571 C1573 1.365 . S
C1571 H1588 0.929 . S
C1572 C1569 1.394 . S
C1572 C1571 1.396 . S
C1572 H1589 0.930 . S
C1573 C1570 1.383 . S
C1573 C1571 1.365 . S
C1573 H1590 0.931 . S
C1574 C1569 1.370 . S
C1574 C1570 1.395 . S
C1574 H1591 0.930 . S
C1575 Gd1522 2.805 . S
C1575 O1557 1.263 . S
C1575 O1558 1.252 . S
C1575 C1569 1.500 . S
C1576 H1538 0.930 . S
C1576 C1552 1.417 . S
C1576 C1577 1.329 . S
C1577 C1547 1.437 . S
C1577 H1548 0.929 . S
C1577 C1576 1.329 . S
H1578 C1551 0.931 . S
C1579 O1561 1.265 . S
C1579 O1562 1.242 . S
C1580 O1565 1.261 . S
C1580 O1566 1.252 . S
C1581 C1584 1.394 . S
C1581 C1586 1.370 . S
C1581 C1587 1.500 . S
C1582 C1585 1.383 . S
C1582 C1586 1.395 . S
C1583 C1584 1.396 . S
C1583 C1585 1.365 . S
C1583 H1592 0.929 . S
C1584 C1581 1.394 . S
C1584 C1583 1.396 . S
C1584 H1593 0.930 . S
C1585 C1582 1.383 . S
C1585 C1583 1.365 . S
C1585 H1594 0.931 . S
C1586 C1581 1.370 . S
C1586 C1582 1.395 . S
C1586 H1595 0.930 . S
C1587 Gd1523 2.805 . S
C1587 O1563 1.263 . S
C1587 O1564 1.252 . S
C1587 C1581 1.500 . S
H1588 C1571 0.929 . S
H1589 C1572 0.930 . S
H1590 C1573 0.931 . S
H1591 C1574 0.930 . S
H1592 C1583 0.929 . S
H1593 C1584 0.930 . S
H1594 C1585 0.931 . S
H1595 C1586 0.930 . S
C1596 C1598 1.422 1_556 S
C1596 C1600 1.415 . S
C1596 N1602 1.369 . S
C1597 C1598 1.421 . S
C1597 C1599 1.417 . S
C1597 C1609 1.422 . S
C1598 C1596 1.422 1_554 S
C1598 C1597 1.421 . S
C1598 N1608 1.359 . S
C1599 C1597 1.417 . S
C1599 C1601 1.329 1_554 S
C1599 H1618 0.930 . S
C1600 C1596 1.415 . S
C1600 C1601 1.437 . S
C1600 C1604 1.413 . S
C1601 C1599 1.329 1_556 S
C1601 C1600 1.437 . S
C1601 H1623 0.929 . S
N1602 C1596 1.369 . S
N1602 C1603 1.338 . S
N1602 Gd1607 2.622 1_556 S
C1603 N1602 1.338 . S
C1603 C1605 1.378 . S
C1603 H1615 0.929 . S
C1604 C1600 1.413 . S
C1604 C1605 1.348 . S
C1604 H1620 0.931 . S
C1605 C1603 1.378 . S
C1605 C1604 1.348 . S
C1605 H1621 0.930 . S
Gd1606 N1626 2.618 1_455 S
Gd1606 N1633 2.561 1_455 S
Gd1606 O1640 2.357 . S
Gd1606 O1641 2.456 1_455 S
Gd1606 O1642 2.418 1_455 S
Gd1606 O1644 2.397 . S
Gd1606 O1645 2.393 . S
Gd1606 O1649 2.309 . S
Gd1606 C1659 2.794 1_455 S
Gd1607 N1602 2.622 1_554 S
Gd1607 N1608 2.570 . S
Gd1607 O1639 2.386 . S
Gd1607 O1643 2.307 . S
Gd1607 O1646 2.353 . S
Gd1607 O1647 2.468 . S
Gd1607 O1648 2.427 1_554 S
Gd1607 O1650 2.388 1_554 S
Gd1607 C1671 2.805 . S
N1608 C1598 1.359 . S
N1608 Gd1607 2.570 . S
N1608 C1610 1.343 . S
C1609 C1597 1.422 . S
C1609 C1611 1.321 . S
C1609 H1617 0.931 . S
C1610 N1608 1.343 . S
C1610 C1611 1.390 . S
C1610 H1612 0.931 . S
C1611 C1609 1.321 . S
C1611 C1610 1.390 . S
C1611 H1613 0.930 . S
H1612 C1610 0.931 . S
H1613 C1611 0.930 . S
H1614 C1637 0.931 . S
H1615 C1603 0.929 . S
H1616 C1638 0.930 1_556 S
H1617 C1609 0.931 . S
H1618 C1599 0.930 . S
H1619 C1628 0.929 . S
H1620 C1604 0.931 . S
H1621 C1605 0.930 . S
H1622 C1660 0.930 . S
H1623 C1601 0.929 . S
H1624 C1629 0.931 . S
H1625 C1630 0.930 1_455 S
N1626 Gd1606 2.618 1_655 S
N1626 C1627 1.369 . S
N1626 C1628 1.338 1_655 S
C1627 N1626 1.369 . S
C1627 C1631 1.415 . S
C1627 C1634 1.422 . S
C1628 H1619 0.929 . S
C1628 N1626 1.338 1_455 S
C1628 C1630 1.378 1_455 S
C1629 H1624 0.931 . S
C1629 C1630 1.348 . S
C1629 C1631 1.413 . S
C1630 H1625 0.930 1_655 S
C1630 C1628 1.378 1_655 S
C1630 C1629 1.348 . S
C1631 C1627 1.415 . S
C1631 C1629 1.413 . S
C1631 C1661 1.437 . S
H1632 C1661 0.929 . S
N1633 Gd1606 2.561 1_655 S
N1633 C1634 1.359 . S
N1633 C1637 1.343 . S
C1634 C1627 1.422 . S
C1634 N1633 1.359 . S
C1634 C1636 1.421 . S
C1635 C1636 1.422 . S
C1635 C1638 1.321 . S
C1635 H1662 0.931 . S
C1636 C1634 1.421 . S
C1636 C1635 1.422 . S
C1636 C1660 1.417 . S
C1637 H1614 0.931 . S
C1637 N1633 1.343 . S
C1637 C1638 1.390 . S
C1638 H1616 0.930 1_554 S
C1638 C1635 1.321 . S
C1638 C1637 1.390 . S
O1639 Gd1607 2.386 . S
O1639 C1651 1.265 . S
O1640 Gd1606 2.357 . S
O1640 C1651 1.242 . S
O1641 Gd1606 2.456 1_655 S
O1641 C1659 1.263 . S
O1642 Gd1606 2.418 1_655 S
O1642 C1659 1.252 . S
O1643 Gd1607 2.307 . S
O1643 C1652 1.261 . S
O1644 Gd1606 2.397 . S
O1644 C1652 1.252 . S
O1645 Gd1606 2.393 . S
O1645 C1663 1.265 . S
O1646 Gd1607 2.353 . S
O1646 C1663 1.242 . S
O1647 Gd1607 2.468 . S
O1647 C1671 1.263 . S
O1648 Gd1607 2.427 1_556 S
O1648 C1671 1.252 1_556 S
O1649 Gd1606 2.309 . S
O1649 C1664 1.261 1_554 S
O1650 Gd1607 2.388 1_556 S
O1650 C1664 1.252 . S
C1651 O1639 1.265 . S
C1651 O1640 1.242 . S
C1652 O1643 1.261 . S
C1652 O1644 1.252 . S
C1653 C1656 1.394 . S
C1653 C1658 1.370 . S
C1653 C1659 1.500 . S
C1654 C1657 1.383 . S
C1654 C1658 1.395 . S
C1655 C1656 1.396 . S
C1655 C1657 1.365 . S
C1655 H1672 0.929 . S
C1656 C1653 1.394 . S
C1656 C1655 1.396 . S
C1656 H1673 0.930 . S
C1657 C1654 1.383 . S
C1657 C1655 1.365 . S
C1657 H1674 0.931 . S
C1658 C1653 1.370 . S
C1658 C1654 1.395 . S
C1658 H1675 0.930 . S
C1659 Gd1606 2.794 1_655 S
C1659 O1641 1.263 . S
C1659 O1642 1.252 . S
C1659 C1653 1.500 . S
C1660 H1622 0.930 . S
C1660 C1636 1.417 . S
C1660 C1661 1.329 . S
C1661 C1631 1.437 . S
C1661 H1632 0.929 . S
C1661 C1660 1.329 . S
H1662 C1635 0.931 . S
C1663 O1645 1.265 . S
C1663 O1646 1.242 . S
C1664 O1649 1.261 1_556 S
C1664 O1650 1.252 . S
C1665 C1668 1.375 1_554 S
C1665 C1670 1.384 . S
C1665 C1671 1.505 . S
C1666 C1669 1.383 1_554 S
C1666 C1670 1.395 . S
C1667 C1668 1.396 . S
C1667 C1669 1.365 . S
C1667 H1676 0.929 . S
C1668 C1665 1.375 1_556 S
C1668 C1667 1.396 . S
C1668 H1677 0.930 . S
C1669 C1666 1.383 1_556 S
C1669 C1667 1.365 . S
C1669 H1678 0.931 . S
C1670 C1665 1.384 . S
C1670 C1666 1.395 . S
C1670 H1679 0.930 . S
C1671 Gd1607 2.805 . S
C1671 O1647 1.263 . S
C1671 O1648 1.252 1_554 S
C1671 C1665 1.505 . S
H1672 C1655 0.929 . S
H1673 C1656 0.930 . S
H1674 C1657 0.931 . S
H1675 C1658 0.930 . S
H1676 C1667 0.929 . S
H1677 C1668 0.930 . S
H1678 C1669 0.931 . S
H1679 C1670 0.930 . S
H1680 C1686 0.930 . S
H1681 C1689 0.930 . S
H1682 C1690 0.930 . S
H1683 C1691 0.930 1_655 S
H1684 C1694 0.930 . S
H1685 C1695 0.930 . S
C1686 H1680 0.930 . S
C1686 C1687 1.355 1_554 S
C1686 C1688 1.415 . S
C1687 C1686 1.355 1_556 S
C1687 C1689 1.419 1_455 S
C1688 C1686 1.415 . S
C1688 C1693 1.425 . S
C1688 C1695 1.409 . S
C1689 H1681 0.930 . S
C1689 C1687 1.419 1_655 S
C1689 C1690 1.362 . S
C1690 H1682 0.930 . S
C1690 C1689 1.362 . S
C1690 C1693 1.409 1_656 S
C1691 H1683 0.930 1_455 S
C1691 C1692 1.355 . S
C1691 C1693 1.415 . S
C1692 C1691 1.355 . S
C1692 C1694 1.419 . S
C1693 C1688 1.425 . S
C1693 C1690 1.409 1_454 S
C1693 C1691 1.415 . S
C1694 H1684 0.930 . S
C1694 C1692 1.419 . S
C1694 C1695 1.362 . S
C1695 H1685 0.930 . S
C1695 C1688 1.409 . S
C1695 C1694 1.362 . S
H1696 C1702 0.930 . S
H1697 C1705 0.930 . S
H1698 C1706 0.930 . S
H1699 C1707 0.930 . S
H1700 C1710 0.930 . S
H1701 C1711 0.930 . S
C1702 H1696 0.930 . S
C1702 C1703 1.355 . S
C1702 C1704 1.415 . S
C1703 C1702 1.355 . S
C1703 C1705 1.419 . S
C1704 C1702 1.415 . S
C1704 C1709 1.425 . S
C1704 C1711 1.409 . S
C1705 H1697 0.930 . S
C1705 C1703 1.419 . S
C1705 C1706 1.362 . S
C1706 H1698 0.930 . S
C1706 C1705 1.362 . S
C1706 C1709 1.409 . S
C1707 H1699 0.930 . S
C1707 C1708 1.355 . S
C1707 C1709 1.415 . S
C1708 C1707 1.355 . S
C1708 C1710 1.419 . S
C1709 C1704 1.425 . S
C1709 C1706 1.409 . S
C1709 C1707 1.415 . S
C1710 H1700 0.930 . S
C1710 C1708 1.419 . S
C1710 C1711 1.362 . S
C1711 H1701 0.930 . S
C1711 C1704 1.409 . S
C1711 C1710 1.362 . S
H1712 C1718 0.930 . S
H1713 C1721 0.930 . S
H1714 C1722 0.930 . S
H1715 C1723 0.930 . S
H1716 C1726 0.930 . S
H1717 C1727 0.930 . S
C1718 H1712 0.930 . S
C1718 C1719 1.355 . S
C1718 C1720 1.415 . S
C1719 C1718 1.355 . S
C1719 C1721 1.419 . S
C1720 C1718 1.415 . S
C1720 C1725 1.425 . S
C1720 C1727 1.409 . S
C1721 H1713 0.930 . S
C1721 C1719 1.419 . S
C1721 C1722 1.362 . S
C1722 H1714 0.930 . S
C1722 C1721 1.362 . S
C1722 C1725 1.409 . S
C1723 H1715 0.930 . S
C1723 C1724 1.355 . S
C1723 C1725 1.415 . S
C1724 C1723 1.355 . S
C1724 C1726 1.419 . S
C1725 C1720 1.425 . S
C1725 C1722 1.409 . S
C1725 C1723 1.415 . S
C1726 H1716 0.930 . S
C1726 C1724 1.419 . S
C1726 C1727 1.362 . S
C1727 H1717 0.930 . S
C1727 C1720 1.409 . S
C1727 C1726 1.362 . S
H1728 C1734 0.930 . S
H1729 C1737 0.930 . S
H1730 C1738 0.930 . S
H1731 C1739 0.930 . S
H1732 C1742 0.930 . S
H1733 C1743 0.930 . S
C1734 H1728 0.930 . S
C1734 C1735 1.355 . S
C1734 C1736 1.415 . S
C1735 C1734 1.355 . S
C1735 C1737 1.419 . S
C1736 C1734 1.415 . S
C1736 C1741 1.425 . S
C1736 C1743 1.409 . S
C1737 H1729 0.930 . S
C1737 C1735 1.419 . S
C1737 C1738 1.362 . S
C1738 H1730 0.930 . S
C1738 C1737 1.362 . S
C1738 C1741 1.409 . S
C1739 H1731 0.930 . S
C1739 C1740 1.355 . S
C1739 C1741 1.415 . S
C1740 C1739 1.355 . S
C1740 C1742 1.419 . S
C1741 C1736 1.425 . S
C1741 C1738 1.409 . S
C1741 C1739 1.415 . S
C1742 H1732 0.930 . S
C1742 C1740 1.419 . S
C1742 C1743 1.362 . S
C1743 H1733 0.930 . S
C1743 C1736 1.409 . S
C1743 C1742 1.362 . S
H1744 C1750 0.930 . S
H1745 C1753 0.936 . S
H1746 C1754 0.930 1_655 S
H1747 C1755 0.930 . S
H1748 C1758 0.930 . S
H1749 C1759 0.930 . S
C1750 H1744 0.930 . S
C1750 C1751 1.355 . S
C1750 C1752 1.415 . S
C1751 C1750 1.355 . S
C1751 C1753 1.419 . S
C1752 C1750 1.415 . S
C1752 C1757 1.425 . S
C1752 C1759 1.409 . S
C1753 H1745 0.936 . S
C1753 C1751 1.419 . S
C1753 C1754 1.362 . S
C1754 H1746 0.930 1_455 S
C1754 C1753 1.362 . S
C1754 C1757 1.409 . S
C1755 H1747 0.930 . S
C1755 C1756 1.355 . S
C1755 C1757 1.415 . S
C1756 C1755 1.355 . S
C1756 C1758 1.419 . S
C1757 C1752 1.425 . S
C1757 C1754 1.409 . S
C1757 C1755 1.415 . S
C1758 H1748 0.930 . S
C1758 C1756 1.419 . S
C1758 C1759 1.362 . S
C1759 H1749 0.930 . S
C1759 C1752 1.409 . S
C1759 C1758 1.362 . S
H1760 C1766 0.930 . S
H1761 C1769 0.930 . S
H1762 C1770 0.930 . S
H1763 C1771 0.930 . S
H1764 C1774 0.930 . S
H1765 C1775 0.930 . S
C1766 H1760 0.930 . S
C1766 C1767 1.355 . S
C1766 C1768 1.415 . S
C1767 C1766 1.355 . S
C1767 C1769 1.419 . S
C1768 C1766 1.415 . S
C1768 C1773 1.425 . S
C1768 C1775 1.409 . S
C1769 H1761 0.930 . S
C1769 C1767 1.419 . S
C1769 C1770 1.362 . S
C1770 H1762 0.930 . S
C1770 C1769 1.362 . S
C1770 C1773 1.409 . S
C1771 H1763 0.930 . S
C1771 C1772 1.355 . S
C1771 C1773 1.415 . S
C1772 C1771 1.355 . S
C1772 C1774 1.419 . S
C1773 C1768 1.425 . S
C1773 C1770 1.409 . S
C1773 C1771 1.415 . S
C1774 H1764 0.930 . S
C1774 C1772 1.419 . S
C1774 C1775 1.362 . S
C1775 H1765 0.930 . S
C1775 C1768 1.409 . S
C1775 C1774 1.362 . S
H1776 C1782 0.930 . S
H1777 C1785 0.930 . S
H1778 C1786 0.930 . S
H1779 C1787 0.930 . S
H1780 C1790 0.930 . S
H1781 C1791 0.930 . S
C1782 H1776 0.930 . S
C1782 C1783 1.355 . S
C1782 C1784 1.415 . S
C1783 C1782 1.355 . S
C1783 C1785 1.419 . S
C1784 C1782 1.415 . S
C1784 C1789 1.425 . S
C1784 C1791 1.409 . S
C1785 H1777 0.930 . S
C1785 C1783 1.419 . S
C1785 C1786 1.362 . S
C1786 H1778 0.930 . S
C1786 C1785 1.362 . S
C1786 C1789 1.409 . S
C1787 H1779 0.930 . S
C1787 C1788 1.355 . S
C1787 C1789 1.415 . S
C1788 C1787 1.355 . S
C1788 C1790 1.419 . S
C1789 C1784 1.425 . S
C1789 C1786 1.409 . S
C1789 C1787 1.415 . S
C1790 H1780 0.930 . S
C1790 C1788 1.419 . S
C1790 C1791 1.362 . S
C1791 H1781 0.930 . S
C1791 C1784 1.409 . S
C1791 C1790 1.362 . S
H1792 C1798 0.930 . S
H1793 C1801 0.930 . S
H1794 C1802 0.930 . S
H1795 C1803 0.930 . S
H1796 C1806 0.930 . S
H1797 C1807 0.930 . S
C1798 H1792 0.930 . S
C1798 C1799 1.355 . S
C1798 C1800 1.415 . S
C1799 C1798 1.355 . S
C1799 C1801 1.419 . S
C1800 C1798 1.415 . S
C1800 C1805 1.425 . S
C1800 C1807 1.409 . S
C1801 H1793 0.930 . S
C1801 C1799 1.419 . S
C1801 C1802 1.362 . S
C1802 H1794 0.930 . S
C1802 C1801 1.362 . S
C1802 C1805 1.409 . S
C1803 H1795 0.930 . S
C1803 C1804 1.355 . S
C1803 C1805 1.415 . S
C1804 C1803 1.355 . S
C1804 C1806 1.419 . S
C1805 C1800 1.425 . S
C1805 C1802 1.409 . S
C1805 C1803 1.415 . S
C1806 H1796 0.930 . S
C1806 C1804 1.419 . S
C1806 C1807 1.362 . S
C1807 H1797 0.930 . S
C1807 C1800 1.409 . S
C1807 C1806 1.362 . S
H1808 C1814 0.930 . S
H1809 C1817 0.930 . S
H1810 C1818 0.930 . S
H1811 C1819 0.930 . S
H1812 C1822 0.930 . S
H1813 C1823 0.930 . S
C1814 H1808 0.930 . S
C1814 C1815 1.355 . S
C1814 C1816 1.415 . S
C1815 C1814 1.355 . S
C1815 C1817 1.419 . S
C1816 C1814 1.415 . S
C1816 C1821 1.425 . S
C1816 C1823 1.409 . S
C1817 H1809 0.930 . S
C1817 C1815 1.419 . S
C1817 C1818 1.362 1_655 S
C1818 H1810 0.930 . S
C1818 C1817 1.362 1_455 S
C1818 C1821 1.409 1_455 S
C1819 H1811 0.930 . S
C1819 C1820 1.355 . S
C1819 C1821 1.415 1_455 S
C1820 C1819 1.355 . S
C1820 C1822 1.419 1_455 S
C1821 C1816 1.425 . S
C1821 C1818 1.409 1_655 S
C1821 C1819 1.415 1_655 S
C1822 H1812 0.930 . S
C1822 C1820 1.419 1_655 S
C1822 C1823 1.362 . S
C1823 H1813 0.930 . S
C1823 C1816 1.409 . S
C1823 C1822 1.362 . S
H1824 C1830 0.930 . S
H1825 C1833 0.930 . S
H1826 C1834 0.930 . S
H1827 C1835 0.930 . S
H1828 C1838 0.930 . S
H1829 C1839 0.930 . S
C1830 H1824 0.930 . S
C1830 C1831 1.355 . S
C1830 C1832 1.415 . S
C1831 C1830 1.355 . S
C1831 C1833 1.419 . S
C1832 C1830 1.415 . S
C1832 C1837 1.425 . S
C1832 C1839 1.409 . S
C1833 H1825 0.930 . S
C1833 C1831 1.419 . S
C1833 C1834 1.362 . S
C1834 H1826 0.930 . S
C1834 C1833 1.362 . S
C1834 C1837 1.409 . S
C1835 H1827 0.930 . S
C1835 C1836 1.355 . S
C1835 C1837 1.415 . S
C1836 C1835 1.355 . S
C1836 C1838 1.419 . S
C1837 C1832 1.425 . S
C1837 C1834 1.409 . S
C1837 C1835 1.415 . S
C1838 H1828 0.930 . S
C1838 C1836 1.419 . S
C1838 C1839 1.362 . S
C1839 H1829 0.930 . S
C1839 C1832 1.409 . S
C1839 C1838 1.362 . S
H1840 C1846 0.930 . S
H1841 C1849 0.930 . S
H1842 C1850 0.930 . S
H1843 C1851 0.930 . S
H1844 C1854 0.930 . S
H1845 C1855 0.930 . S
C1846 H1840 0.930 . S
C1846 C1847 1.355 . S
C1846 C1848 1.415 . S
C1847 C1846 1.355 . S
C1847 C1849 1.419 . S
C1848 C1846 1.415 . S
C1848 C1853 1.425 . S
C1848 C1855 1.409 . S
C1849 H1841 0.930 . S
C1849 C1847 1.419 . S
C1849 C1850 1.362 . S
C1850 H1842 0.930 . S
C1850 C1849 1.362 . S
C1850 C1853 1.409 . S
C1851 H1843 0.930 . S
C1851 C1852 1.355 . S
C1851 C1853 1.415 . S
C1852 C1851 1.355 . S
C1852 C1854 1.419 . S
C1853 C1848 1.425 . S
C1853 C1850 1.409 . S
C1853 C1851 1.415 . S
C1854 H1844 0.930 . S
C1854 C1852 1.419 . S
C1854 C1855 1.362 . S
C1855 H1845 0.930 . S
C1855 C1848 1.409 . S
C1855 C1854 1.362 . S
H1856 C1862 0.930 . S
H1857 C1865 0.930 . S
H1858 C1866 0.930 . S
H1859 C1867 0.930 . S
H1860 C1870 0.930 . S
H1861 C1871 0.930 . S
C1862 H1856 0.930 . S
C1862 C1863 1.355 . S
C1862 C1864 1.415 . S
C1863 C1862 1.355 . S
C1863 C1865 1.419 . S
C1864 C1862 1.415 . S
C1864 C1869 1.425 . S
C1864 C1871 1.409 . S
C1865 H1857 0.930 . S
C1865 C1863 1.419 . S
C1865 C1866 1.362 . S
C1866 H1858 0.930 . S
C1866 C1865 1.362 . S
C1866 C1869 1.409 . S
C1867 H1859 0.930 . S
C1867 C1868 1.355 . S
C1867 C1869 1.415 . S
C1868 C1867 1.355 . S
C1868 C1870 1.419 . S
C1869 C1864 1.425 . S
C1869 C1866 1.409 . S
C1869 C1867 1.415 . S
C1870 H1860 0.930 . S
C1870 C1868 1.419 . S
C1870 C1871 1.362 . S
C1871 H1861 0.930 . S
C1871 C1864 1.409 . S
C1871 C1870 1.362 . S
H1872 C1878 0.930 1_565 S
H1873 C1881 0.930 . S
H1874 C1882 0.930 . S
H1875 C1883 0.930 . S
H1876 C1886 0.921 1_565 S
H1877 C1887 0.930 . S
C1878 H1872 0.930 1_545 S
C1878 C1879 1.355 . S
C1878 C1880 1.415 . S
C1879 C1878 1.355 . S
C1879 C1881 1.419 . S
C1880 C1878 1.415 . S
C1880 C1885 1.425 . S
C1880 C1887 1.409 1_545 S
C1881 H1873 0.930 . S
C1881 C1879 1.419 . S
C1881 C1882 1.362 . S
C1882 H1874 0.930 . S
C1882 C1881 1.362 . S
C1882 C1885 1.409 . S
C1883 H1875 0.930 . S
C1883 C1884 1.355 1_655 S
C1883 C1885 1.415 . S
C1884 C1883 1.355 1_455 S
C1884 C1886 1.428 . S
C1885 C1880 1.425 . S
C1885 C1882 1.409 . S
C1885 C1883 1.415 . S
C1886 H1876 0.921 1_545 S
C1886 C1884 1.428 . S
C1886 C1887 1.362 1_445 S
C1887 H1877 0.930 . S
C1887 C1880 1.409 1_565 S
C1887 C1886 1.362 1_665 S
H1888 C1894 0.930 . S
H1889 C1897 0.930 . S
H1890 C1898 0.930 . S
H1891 C1899 0.930 . S
H1892 C1902 0.930 . S
H1893 C1903 0.930 . S
C1894 H1888 0.930 . S
C1894 C1895 1.355 . S
C1894 C1896 1.415 . S
C1895 C1894 1.355 . S
C1895 C1897 1.419 . S
C1896 C1894 1.415 . S
C1896 C1901 1.425 . S
C1896 C1903 1.409 . S
C1897 H1889 0.930 . S
C1897 C1895 1.419 . S
C1897 C1898 1.362 . S
C1898 H1890 0.930 . S
C1898 C1897 1.362 . S
C1898 C1901 1.409 . S
C1899 H1891 0.930 . S
C1899 C1900 1.355 . S
C1899 C1901 1.415 . S
C1900 C1899 1.355 . S
C1900 C1902 1.419 . S
C1901 C1896 1.425 . S
C1901 C1898 1.409 . S
C1901 C1899 1.415 . S
C1902 H1892 0.930 . S
C1902 C1900 1.419 . S
C1902 C1903 1.362 . S
C1903 H1893 0.930 . S
C1903 C1896 1.409 . S
C1903 C1902 1.362 . S
H1904 C1910 0.930 . S
H1905 C1913 0.930 . S
H1906 C1914 0.930 . S
H1907 C1915 0.930 . S
H1908 C1918 0.930 . S
H1909 C1919 0.930 . S
C1910 H1904 0.930 . S
C1910 C1911 1.355 . S
C1910 C1912 1.415 . S
C1911 C1910 1.355 . S
C1911 C1913 1.419 . S
C1912 C1910 1.415 . S
C1912 C1917 1.425 . S
C1912 C1919 1.409 . S
C1913 H1905 0.930 . S
C1913 C1911 1.419 . S
C1913 C1914 1.362 . S
C1914 H1906 0.930 . S
C1914 C1913 1.362 . S
C1914 C1917 1.409 . S
C1915 H1907 0.930 . S
C1915 C1916 1.355 . S
C1915 C1917 1.415 . S
C1916 C1915 1.355 . S
C1916 C1918 1.419 . S
C1917 C1912 1.425 . S
C1917 C1914 1.409 . S
C1917 C1915 1.415 . S
C1918 H1908 0.930 . S
C1918 C1916 1.419 . S
C1918 C1919 1.362 . S
C1919 H1909 0.930 . S
C1919 C1912 1.409 . S
C1919 C1918 1.362 . S
H1920 C1926 0.930 . S
H1921 C1929 0.930 . S
H1922 C1930 0.930 . S
H1923 C1931 0.930 . S
H1924 C1934 0.930 . S
H1925 C1935 0.930 . S
C1926 H1920 0.930 . S
C1926 C1927 1.355 . S
C1926 C1928 1.415 . S
C1927 C1926 1.355 . S
C1927 C1929 1.419 . S
C1928 C1926 1.415 . S
C1928 C1933 1.425 . S
C1928 C1935 1.409 . S
C1929 H1921 0.930 . S
C1929 C1927 1.419 . S
C1929 C1930 1.362 . S
C1930 H1922 0.930 . S
C1930 C1929 1.362 . S
C1930 C1933 1.409 . S
C1931 H1923 0.930 . S
C1931 C1932 1.355 . S
C1931 C1933 1.415 . S
C1932 C1931 1.355 . S
C1932 C1934 1.419 . S
C1933 C1928 1.425 . S
C1933 C1930 1.409 . S
C1933 C1931 1.415 . S
C1934 H1924 0.930 . S
C1934 C1932 1.419 . S
C1934 C1935 1.362 . S
C1935 H1925 0.930 . S
C1935 C1928 1.409 . S
C1935 C1934 1.362 . S
H1936 C1942 0.930 . S
H1937 C1945 0.930 . S
H1938 C1946 0.930 . S
H1939 C1947 0.925 1_545 S
H1940 C1950 0.930 . S
H1941 C1951 0.930 . S
C1942 H1936 0.930 . S
C1942 C1943 1.331 1_554 S
C1942 C1944 1.415 . S
C1943 C1942 1.331 1_556 S
C1943 C1945 1.437 . S
C1944 C1942 1.415 . S
C1944 C1949 1.425 . S
C1944 C1951 1.409 . S
C1945 H1937 0.930 . S
C1945 C1943 1.437 . S
C1945 C1946 1.362 . S
C1946 H1938 0.930 . S
C1946 C1945 1.362 . S
C1946 C1949 1.409 1_556 S
C1947 H1939 0.925 1_565 S
C1947 C1948 1.354 1_565 S
C1947 C1949 1.420 . S
C1948 C1947 1.354 1_545 S
C1948 C1950 1.419 1_545 S
C1949 C1944 1.425 . S
C1949 C1946 1.409 1_554 S
C1949 C1947 1.420 . S
C1950 H1940 0.930 . S
C1950 C1948 1.419 1_565 S
C1950 C1951 1.362 . S
C1951 H1941 0.930 . S
C1951 C1944 1.409 . S
C1951 C1950 1.362 . S
H1952 C1958 0.930 . S
H1953 C1961 0.930 . S
H1954 C1962 0.930 . S
H1955 C1963 0.930 1_556 S
H1956 C1966 0.930 . S
H1957 C1967 0.930 . S
C1958 H1952 0.930 . S
C1958 C1959 1.355 . S
C1958 C1960 1.415 . S
C1959 C1958 1.355 . S
C1959 C1961 1.419 1_554 S
C1960 C1958 1.415 . S
C1960 C1965 1.425 . S
C1960 C1967 1.409 . S
C1961 H1953 0.930 . S
C1961 C1959 1.419 1_556 S
C1961 C1962 1.362 . S
C1962 H1954 0.930 . S
C1962 C1961 1.362 . S
C1962 C1965 1.409 1_556 S
C1963 H1955 0.930 1_554 S
C1963 C1964 1.355 . S
C1963 C1965 1.415 . S
C1964 C1963 1.355 . S
C1964 C1966 1.419 . S
C1965 C1960 1.425 . S
C1965 C1962 1.409 1_554 S
C1965 C1963 1.415 . S
C1966 H1956 0.930 . S
C1966 C1964 1.419 . S
C1966 C1967 1.362 . S
C1967 H1957 0.930 . S
C1967 C1960 1.409 . S
C1967 C1966 1.362 . S
H1968 C1974 0.930 . S
H1969 C1977 0.930 . S
H1970 C1978 0.930 . S
H1971 C1979 0.930 . S
H1972 C1982 0.930 . S
H1973 C1983 0.930 . S
C1974 H1968 0.930 . S
C1974 C1975 1.355 . S
C1974 C1976 1.415 . S
C1975 C1974 1.355 . S
C1975 C1977 1.419 . S
C1976 C1974 1.415 . S
C1976 C1981 1.425 . S
C1976 C1983 1.409 . S
C1977 H1969 0.930 . S
C1977 C1975 1.419 . S
C1977 C1978 1.362 . S
C1978 H1970 0.930 . S
C1978 C1977 1.362 . S
C1978 C1981 1.409 . S
C1979 H1971 0.930 . S
C1979 C1980 1.355 . S
C1979 C1981 1.415 . S
C1980 C1979 1.355 . S
C1980 C1982 1.419 . S
C1981 C1976 1.425 . S
C1981 C1978 1.409 . S
C1981 C1979 1.415 . S
C1982 H1972 0.930 . S
C1982 C1980 1.419 . S
C1982 C1983 1.362 . S
C1983 H1973 0.930 . S
C1983 C1976 1.409 . S
C1983 C1982 1.362 . S
H1984 C1990 0.930 . S
H1985 C1993 0.930 . S
H1986 C1994 0.930 . S
H1987 C1995 0.930 . S
H1988 C1998 0.930 . S
H1989 C1999 0.930 . S
C1990 H1984 0.930 . S
C1990 C1991 1.355 . S
C1990 C1992 1.415 . S
C1991 C1990 1.355 . S
C1991 C1993 1.419 . S
C1992 C1990 1.415 . S
C1992 C1997 1.425 . S
C1992 C1999 1.409 . S
C1993 H1985 0.930 . S
C1993 C1991 1.419 . S
C1993 C1994 1.362 . S
C1994 H1986 0.930 . S
C1994 C1993 1.362 . S
C1994 C1997 1.409 . S
C1995 H1987 0.930 . S
C1995 C1996 1.355 . S
C1995 C1997 1.415 . S
C1996 C1995 1.355 . S
C1996 C1998 1.419 . S
C1997 C1992 1.425 . S
C1997 C1994 1.409 . S
C1997 C1995 1.415 . S
C1998 H1988 0.930 . S
C1998 C1996 1.419 . S
C1998 C1999 1.362 . S
C1999 H1989 0.930 . S
C1999 C1992 1.409 . S
C1999 C1998 1.362 . S
H2000 C2006 0.930 . S
H2001 C2009 0.930 . S
H2002 C2010 0.930 . S
H2003 C2011 0.930 . S
H2004 C2014 0.930 . S
H2005 C2015 0.930 . S
C2006 H2000 0.930 . S
C2006 C2007 1.355 . S
C2006 C2008 1.415 . S
C2007 C2006 1.355 . S
C2007 C2009 1.419 . S
C2008 C2006 1.415 . S
C2008 C2013 1.425 . S
C2008 C2015 1.409 . S
C2009 H2001 0.930 . S
C2009 C2007 1.419 . S
C2009 C2010 1.362 . S
C2010 H2002 0.930 . S
C2010 C2009 1.362 . S
C2010 C2013 1.409 . S
C2011 H2003 0.930 . S
C2011 C2012 1.355 . S
C2011 C2013 1.415 . S
C2012 C2011 1.355 . S
C2012 C2014 1.419 . S
C2013 C2008 1.425 . S
C2013 C2010 1.409 . S
C2013 C2011 1.415 . S
C2014 H2004 0.930 . S
C2014 C2012 1.419 . S
C2014 C2015 1.362 . S
C2015 H2005 0.930 . S
C2015 C2008 1.409 . S
C2015 C2014 1.362 . S
H2016 C2022 0.930 . S
H2017 C2025 0.930 . S
H2018 C2026 0.930 . S
H2019 C2027 0.930 . S
H2020 C2030 0.930 . S
H2021 C2031 0.930 . S
C2022 H2016 0.930 . S
C2022 C2023 1.355 . S
C2022 C2024 1.415 . S
C2023 C2022 1.355 . S
C2023 C2025 1.419 . S
C2024 C2022 1.415 . S
C2024 C2029 1.425 . S
C2024 C2031 1.409 . S
C2025 H2017 0.930 . S
C2025 C2023 1.419 . S
C2025 C2026 1.362 . S
C2026 H2018 0.930 . S
C2026 C2025 1.362 . S
C2026 C2029 1.409 . S
C2027 H2019 0.930 . S
C2027 C2028 1.355 . S
C2027 C2029 1.415 . S
C2028 C2027 1.355 . S
C2028 C2030 1.419 . S
C2029 C2024 1.425 . S
C2029 C2026 1.409 . S
C2029 C2027 1.415 . S
C2030 H2020 0.930 . S
C2030 C2028 1.419 . S
C2030 C2031 1.362 . S
C2031 H2021 0.930 . S
C2031 C2024 1.409 . S
C2031 C2030 1.362 . S
H2032 C2038 0.930 . S
H2033 C2041 0.930 . S
H2034 C2042 0.930 . S
H2035 C2043 0.930 . S
H2036 C2046 0.930 . S
H2037 C2047 0.930 . S
C2038 H2032 0.930 . S
C2038 C2039 1.355 . S
C2038 C2040 1.415 . S
C2039 C2038 1.355 . S
C2039 C2041 1.419 . S
C2040 C2038 1.415 . S
C2040 C2045 1.425 . S
C2040 C2047 1.409 . S
C2041 H2033 0.930 . S
C2041 C2039 1.419 . S
C2041 C2042 1.362 . S
C2042 H2034 0.930 . S
C2042 C2041 1.362 . S
C2042 C2045 1.409 . S
C2043 H2035 0.930 . S
C2043 C2044 1.355 . S
C2043 C2045 1.415 . S
C2044 C2043 1.355 . S
C2044 C2046 1.419 . S
C2045 C2040 1.425 . S
C2045 C2042 1.409 . S
C2045 C2043 1.415 . S
C2046 H2036 0.930 . S
C2046 C2044 1.419 . S
C2046 C2047 1.362 . S
C2047 H2037 0.930 . S
C2047 C2040 1.409 . S
C2047 C2046 1.362 . S
H2048 C2054 0.930 . S
H2049 C2057 0.930 . S
H2050 C2058 0.930 . S
H2051 C2059 0.930 . S
H2052 C2062 0.930 . S
H2053 C2063 0.930 . S
C2054 H2048 0.930 . S
C2054 C2055 1.355 . S
C2054 C2056 1.415 . S
C2055 C2054 1.355 . S
C2055 C2057 1.419 . S
C2056 C2054 1.415 . S
C2056 C2061 1.425 . S
C2056 C2063 1.409 . S
C2057 H2049 0.930 . S
C2057 C2055 1.419 . S
C2057 C2058 1.362 . S
C2058 H2050 0.930 . S
C2058 C2057 1.362 . S
C2058 C2061 1.409 . S
C2059 H2051 0.930 . S
C2059 C2060 1.355 . S
C2059 C2061 1.415 . S
C2060 C2059 1.355 . S
C2060 C2062 1.419 . S
C2061 C2056 1.425 . S
C2061 C2058 1.409 . S
C2061 C2059 1.415 . S
C2062 H2052 0.930 . S
C2062 C2060 1.419 . S
C2062 C2063 1.362 . S
C2063 H2053 0.930 . S
C2063 C2056 1.409 . S
C2063 C2062 1.362 . S
H2064 C2070 0.930 . S
H2065 C2073 0.930 . S
H2066 C2074 0.930 . S
H2067 C2075 0.930 . S
H2068 C2078 0.930 . S
H2069 C2079 0.930 . S
C2070 H2064 0.930 . S
C2070 C2071 1.355 . S
C2070 C2072 1.415 . S
C2071 C2070 1.355 . S
C2071 C2073 1.419 . S
C2072 C2070 1.415 . S
C2072 C2077 1.425 . S
C2072 C2079 1.409 . S
C2073 H2065 0.930 . S
C2073 C2071 1.419 . S
C2073 C2074 1.362 . S
C2074 H2066 0.930 . S
C2074 C2073 1.362 . S
C2074 C2077 1.409 . S
C2075 H2067 0.930 . S
C2075 C2076 1.355 . S
C2075 C2077 1.415 . S
C2076 C2075 1.355 . S
C2076 C2078 1.419 . S
C2077 C2072 1.425 . S
C2077 C2074 1.409 . S
C2077 C2075 1.415 . S
C2078 H2068 0.930 . S
C2078 C2076 1.419 . S
C2078 C2079 1.362 . S
C2079 H2069 0.930 . S
C2079 C2072 1.409 . S
C2079 C2078 1.362 . S
H2080 C2086 0.930 . S
H2081 C2089 0.930 . S
H2082 C2090 0.930 . S
H2083 C2091 0.930 . S
H2084 C2094 0.930 . S
H2085 C2095 0.930 . S
C2086 H2080 0.930 . S
C2086 C2087 1.355 . S
C2086 C2088 1.415 . S
C2087 C2086 1.355 . S
C2087 C2089 1.419 . S
C2088 C2086 1.415 . S
C2088 C2093 1.425 . S
C2088 C2095 1.409 . S
C2089 H2081 0.930 . S
C2089 C2087 1.419 . S
C2089 C2090 1.362 . S
C2090 H2082 0.930 . S
C2090 C2089 1.362 . S
C2090 C2093 1.409 . S
C2091 H2083 0.930 . S
C2091 C2092 1.355 . S
C2091 C2093 1.415 . S
C2092 C2091 1.355 . S
C2092 C2094 1.419 . S
C2093 C2088 1.425 . S
C2093 C2090 1.409 . S
C2093 C2091 1.415 . S
C2094 H2084 0.930 . S
C2094 C2092 1.419 . S
C2094 C2095 1.362 . S
C2095 H2085 0.930 . S
C2095 C2088 1.409 . S
C2095 C2094 1.362 . S
H2096 C2102 0.930 . S
H2097 C2105 0.930 . S
H2098 C2106 0.930 . S
H2099 C2107 0.930 . S
H2100 C2110 0.930 . S
H2101 C2111 0.930 . S
C2102 H2096 0.930 . S
C2102 C2103 1.355 . S
C2102 C2104 1.415 . S
C2103 C2102 1.355 . S
C2103 C2105 1.419 . S
C2104 C2102 1.415 . S
C2104 C2109 1.425 . S
C2104 C2111 1.409 . S
C2105 H2097 0.930 . S
C2105 C2103 1.419 . S
C2105 C2106 1.362 . S
C2106 H2098 0.930 . S
C2106 C2105 1.362 . S
C2106 C2109 1.409 . S
C2107 H2099 0.930 . S
C2107 C2108 1.355 . S
C2107 C2109 1.415 . S
C2108 C2107 1.355 . S
C2108 C2110 1.419 . S
C2109 C2104 1.425 . S
C2109 C2106 1.409 . S
C2109 C2107 1.415 . S
C2110 H2100 0.930 . S
C2110 C2108 1.419 . S
C2110 C2111 1.362 . S
C2111 H2101 0.930 . S
C2111 C2104 1.409 . S
C2111 C2110 1.362 . S
H2112 C2118 0.930 . S
H2113 C2121 0.930 . S
H2114 C2122 0.930 . S
H2115 C2123 0.930 . S
H2116 C2126 0.930 . S
H2117 C2127 0.930 . S
C2118 H2112 0.930 . S
C2118 C2119 1.355 . S
C2118 C2120 1.415 . S
C2119 C2118 1.355 . S
C2119 C2121 1.419 . S
C2120 C2118 1.415 . S
C2120 C2125 1.425 . S
C2120 C2127 1.409 . S
C2121 H2113 0.930 . S
C2121 C2119 1.419 . S
C2121 C2122 1.362 . S
C2122 H2114 0.930 . S
C2122 C2121 1.362 . S
C2122 C2125 1.409 . S
C2123 H2115 0.930 . S
C2123 C2124 1.355 . S
C2123 C2125 1.415 . S
C2124 C2123 1.355 . S
C2124 C2126 1.419 . S
C2125 C2120 1.425 . S
C2125 C2122 1.409 . S
C2125 C2123 1.415 . S
C2126 H2116 0.930 . S
C2126 C2124 1.419 . S
C2126 C2127 1.362 . S
C2127 H2117 0.930 . S
C2127 C2120 1.409 . S
C2127 C2126 1.362 . S
H2128 C2134 0.930 . S
H2129 C2137 0.930 . S
H2130 C2138 0.930 . S
H2131 C2139 0.930 . S
H2132 C2142 0.930 . S
H2133 C2143 0.930 . S
C2134 H2128 0.930 . S
C2134 C2135 1.355 . S
C2134 C2136 1.415 . S
C2135 C2134 1.355 . S
C2135 C2137 1.419 . S
C2136 C2134 1.415 . S
C2136 C2141 1.425 . S
C2136 C2143 1.409 . S
C2137 H2129 0.930 . S
C2137 C2135 1.419 . S
C2137 C2138 1.362 . S
C2138 H2130 0.930 . S
C2138 C2137 1.362 . S
C2138 C2141 1.409 . S
C2139 H2131 0.930 . S
C2139 C2140 1.355 . S
C2139 C2141 1.415 . S
C2140 C2139 1.355 . S
C2140 C2142 1.419 . S
C2141 C2136 1.425 . S
C2141 C2138 1.409 . S
C2141 C2139 1.415 . S
C2142 H2132 0.930 . S
C2142 C2140 1.419 . S
C2142 C2143 1.362 . S
C2143 H2133 0.930 . S
C2143 C2136 1.409 . S
C2143 C2142 1.362 . S
H2144 C2150 0.930 . S
H2145 C2153 0.930 . S
H2146 C2154 0.930 . S
H2147 C2155 0.930 . S
H2148 C2158 0.930 . S
H2149 C2159 0.930 . S
C2150 H2144 0.930 . S
C2150 C2151 1.355 . S
C2150 C2152 1.415 . S
C2151 C2150 1.355 . S
C2151 C2153 1.419 . S
C2152 C2150 1.415 . S
C2152 C2157 1.425 . S
C2152 C2159 1.409 . S
C2153 H2145 0.930 . S
C2153 C2151 1.419 . S
C2153 C2154 1.362 . S
C2154 H2146 0.930 . S
C2154 C2153 1.362 . S
C2154 C2157 1.409 . S
C2155 H2147 0.930 . S
C2155 C2156 1.355 . S
C2155 C2157 1.415 . S
C2156 C2155 1.355 . S
C2156 C2158 1.419 . S
C2157 C2152 1.425 . S
C2157 C2154 1.409 . S
C2157 C2155 1.415 . S
C2158 H2148 0.930 . S
C2158 C2156 1.419 . S
C2158 C2159 1.362 . S
C2159 H2149 0.930 . S
C2159 C2152 1.409 . S
C2159 C2158 1.362 . S
H2160 C2166 0.930 . S
H2161 C2169 0.930 . S
H2162 C2170 0.930 . S
H2163 C2171 0.930 . S
H2164 C2174 0.930 1_554 S
H2165 C2175 0.930 . S
C2166 H2160 0.930 . S
C2166 C2167 1.355 . S
C2166 C2168 1.415 . S
C2167 C2166 1.355 . S
C2167 C2169 1.419 . S
C2168 C2166 1.415 . S
C2168 C2173 1.425 . S
C2168 C2175 1.409 . S
C2169 H2161 0.930 . S
C2169 C2167 1.419 . S
C2169 C2170 1.362 . S
C2170 H2162 0.930 . S
C2170 C2169 1.362 . S
C2170 C2173 1.409 . S
C2171 H2163 0.930 . S
C2171 C2172 1.355 . S
C2171 C2173 1.415 . S
C2172 C2171 1.355 . S
C2172 C2174 1.419 . S
C2173 C2168 1.425 . S
C2173 C2170 1.409 . S
C2173 C2171 1.415 . S
C2174 H2164 0.930 1_556 S
C2174 C2172 1.419 . S
C2174 C2175 1.362 . S
C2175 H2165 0.930 . S
C2175 C2168 1.409 . S
C2175 C2174 1.362 . S
H2176 C2182 0.930 . S
H2177 C2185 0.930 . S
H2178 C2186 0.930 . S
H2179 C2187 0.930 . S
H2180 C2190 0.930 . S
H2181 C2191 0.930 . S
C2182 H2176 0.930 . S
C2182 C2183 1.355 . S
C2182 C2184 1.415 . S
C2183 C2182 1.355 . S
C2183 C2185 1.419 . S
C2184 C2182 1.415 . S
C2184 C2189 1.425 . S
C2184 C2191 1.409 . S
C2185 H2177 0.930 . S
C2185 C2183 1.419 . S
C2185 C2186 1.362 . S
C2186 H2178 0.930 . S
C2186 C2185 1.362 . S
C2186 C2189 1.409 . S
C2187 H2179 0.930 . S
C2187 C2188 1.355 . S
C2187 C2189 1.415 . S
C2188 C2187 1.355 . S
C2188 C2190 1.419 . S
C2189 C2184 1.425 . S
C2189 C2186 1.409 . S
C2189 C2187 1.415 . S
C2190 H2180 0.930 . S
C2190 C2188 1.419 . S
C2190 C2191 1.362 . S
C2191 H2181 0.930 . S
C2191 C2184 1.409 . S
C2191 C2190 1.362 . S
H2192 C2198 0.930 . S
H2193 C2201 0.930 . S
H2194 C2202 0.930 . S
H2195 C2203 0.930 . S
H2196 C2206 0.930 . S
H2197 C2207 0.930 . S
C2198 H2192 0.930 . S
C2198 C2199 1.355 . S
C2198 C2200 1.415 . S
C2199 C2198 1.355 . S
C2199 C2201 1.419 . S
C2200 C2198 1.415 . S
C2200 C2205 1.425 . S
C2200 C2207 1.409 . S
C2201 H2193 0.930 . S
C2201 C2199 1.419 . S
C2201 C2202 1.362 . S
C2202 H2194 0.930 . S
C2202 C2201 1.362 . S
C2202 C2205 1.409 . S
C2203 H2195 0.930 . S
C2203 C2204 1.355 . S
C2203 C2205 1.415 . S
C2204 C2203 1.355 . S
C2204 C2206 1.419 . S
C2205 C2200 1.425 . S
C2205 C2202 1.409 . S
C2205 C2203 1.415 . S
C2206 H2196 0.930 . S
C2206 C2204 1.419 . S
C2206 C2207 1.362 . S
C2207 H2197 0.930 . S
C2207 C2200 1.409 . S
C2207 C2206 1.362 . S
H2208 C2214 0.930 . S
H2209 C2217 0.930 . S
H2210 C2218 0.930 . S
H2211 C2219 0.930 . S
H2212 C2222 0.930 . S
H2213 C2223 0.930 . S
C2214 H2208 0.930 . S
C2214 C2215 1.355 . S
C2214 C2216 1.415 . S
C2215 C2214 1.355 . S
C2215 C2217 1.419 . S
C2216 C2214 1.415 . S
C2216 C2221 1.425 . S
C2216 C2223 1.409 . S
C2217 H2209 0.930 . S
C2217 C2215 1.419 . S
C2217 C2218 1.362 . S
C2218 H2210 0.930 . S
C2218 C2217 1.362 . S
C2218 C2221 1.409 . S
C2219 H2211 0.930 . S
C2219 C2220 1.355 . S
C2219 C2221 1.415 . S
C2220 C2219 1.355 . S
C2220 C2222 1.419 . S
C2221 C2216 1.425 . S
C2221 C2218 1.409 . S
C2221 C2219 1.415 . S
C2222 H2212 0.930 . S
C2222 C2220 1.419 . S
C2222 C2223 1.362 . S
C2223 H2213 0.930 . S
C2223 C2216 1.409 . S
C2223 C2222 1.362 . S
H2224 C2230 0.930 . S
H2225 C2233 0.930 . S
H2226 C2234 0.930 . S
H2227 C2235 0.930 . S
H2228 C2238 0.930 . S
H2229 C2239 0.930 . S
C2230 H2224 0.930 . S
C2230 C2231 1.355 . S
C2230 C2232 1.415 . S
C2231 C2230 1.355 . S
C2231 C2233 1.419 1_545 S
C2232 C2230 1.415 . S
C2232 C2237 1.425 . S
C2232 C2239 1.409 . S
C2233 H2225 0.930 . S
C2233 C2231 1.419 1_565 S
C2233 C2234 1.362 . S
C2234 H2226 0.930 . S
C2234 C2233 1.362 . S
C2234 C2237 1.409 1_565 S
C2235 H2227 0.930 . S
C2235 C2236 1.355 . S
C2235 C2237 1.415 . S
C2236 C2235 1.355 . S
C2236 C2238 1.419 . S
C2237 C2232 1.425 . S
C2237 C2234 1.409 1_545 S
C2237 C2235 1.415 . S
C2238 H2228 0.930 . S
C2238 C2236 1.419 . S
C2238 C2239 1.362 . S
C2239 H2229 0.930 . S
C2239 C2232 1.409 . S
C2239 C2238 1.362 . S
H2240 C2246 0.930 . S
H2241 C2249 0.930 . S
H2242 C2250 0.930 . S
H2243 C2251 0.930 . S
H2244 C2254 0.930 . S
H2245 C2255 0.930 . S
C2246 H2240 0.930 . S
C2246 C2247 1.355 . S
C2246 C2248 1.415 . S
C2247 C2246 1.355 . S
C2247 C2249 1.419 . S
C2248 C2246 1.415 . S
C2248 C2253 1.425 . S
C2248 C2255 1.409 . S
C2249 H2241 0.930 . S
C2249 C2247 1.419 . S
C2249 C2250 1.362 . S
C2250 H2242 0.930 . S
C2250 C2249 1.362 . S
C2250 C2253 1.409 . S
C2251 H2243 0.930 . S
C2251 C2252 1.355 . S
C2251 C2253 1.415 . S
C2252 C2251 1.355 . S
C2252 C2254 1.419 . S
C2253 C2248 1.425 . S
C2253 C2250 1.409 . S
C2253 C2251 1.415 . S
C2254 H2244 0.930 . S
C2254 C2252 1.419 . S
C2254 C2255 1.362 . S
C2255 H2245 0.930 . S
C2255 C2248 1.409 . S
C2255 C2254 1.362 . S
H2256 C2262 0.930 . S
H2257 C2265 0.930 . S
H2258 C2266 0.930 . S
H2259 C2267 0.930 . S
H2260 C2270 0.930 . S
H2261 C2271 0.930 . S
C2262 H2256 0.930 . S
C2262 C2263 1.355 . S
C2262 C2264 1.415 . S
C2263 C2262 1.355 . S
C2263 C2265 1.419 . S
C2264 C2262 1.415 . S
C2264 C2269 1.425 . S
C2264 C2271 1.409 . S
C2265 H2257 0.930 . S
C2265 C2263 1.419 . S
C2265 C2266 1.362 . S
C2266 H2258 0.930 . S
C2266 C2265 1.362 . S
C2266 C2269 1.409 . S
C2267 H2259 0.930 . S
C2267 C2268 1.355 . S
C2267 C2269 1.415 . S
C2268 C2267 1.355 . S
C2268 C2270 1.419 . S
C2269 C2264 1.425 . S
C2269 C2266 1.409 . S
C2269 C2267 1.415 . S
C2270 H2260 0.930 . S
C2270 C2268 1.419 . S
C2270 C2271 1.362 . S
C2271 H2261 0.930 . S
C2271 C2264 1.409 . S
C2271 C2270 1.362 . S
H2272 C2278 0.930 . S
H2273 C2281 0.930 . S
H2274 C2282 0.930 . S
H2275 C2283 0.930 . S
H2276 C2286 0.930 . S
H2277 C2287 0.930 . S
C2278 H2272 0.930 . S
C2278 C2279 1.355 . S
C2278 C2280 1.415 . S
C2279 C2278 1.355 . S
C2279 C2281 1.419 . S
C2280 C2278 1.415 . S
C2280 C2285 1.425 . S
C2280 C2287 1.409 . S
C2281 H2273 0.930 . S
C2281 C2279 1.419 . S
C2281 C2282 1.362 . S
C2282 H2274 0.930 . S
C2282 C2281 1.362 . S
C2282 C2285 1.409 . S
C2283 H2275 0.930 . S
C2283 C2284 1.355 . S
C2283 C2285 1.415 . S
C2284 C2283 1.355 . S
C2284 C2286 1.419 . S
C2285 C2280 1.425 . S
C2285 C2282 1.409 . S
C2285 C2283 1.415 . S
C2286 H2276 0.930 . S
C2286 C2284 1.419 . S
C2286 C2287 1.362 . S
C2287 H2277 0.930 . S
C2287 C2280 1.409 . S
C2287 C2286 1.362 . S
H2288 C2294 0.930 . S
H2289 C2297 0.930 . S
H2290 C2298 0.930 . S
H2291 C2299 0.930 . S
H2292 C2302 0.930 . S
H2293 C2303 0.930 . S
C2294 H2288 0.930 . S
C2294 C2295 1.355 1_565 S
C2294 C2296 1.415 . S
C2295 C2294 1.355 1_545 S
C2295 C2297 1.419 . S
C2296 C2294 1.415 . S
C2296 C2301 1.425 1_565 S
C2296 C2303 1.409 . S
C2297 H2289 0.930 . S
C2297 C2295 1.419 . S
C2297 C2298 1.362 . S
C2298 H2290 0.930 . S
C2298 C2297 1.362 . S
C2298 C2301 1.409 . S
C2299 H2291 0.930 . S
C2299 C2300 1.355 . S
C2299 C2301 1.415 . S
C2300 C2299 1.355 . S
C2300 C2302 1.419 1_545 S
C2301 C2296 1.425 1_545 S
C2301 C2298 1.409 . S
C2301 C2299 1.415 . S
C2302 H2292 0.930 . S
C2302 C2300 1.419 1_565 S
C2302 C2303 1.362 . S
C2303 H2293 0.930 . S
C2303 C2296 1.409 . S
C2303 C2302 1.362 . S
H2304 C2310 0.930 . S
H2305 C2313 0.930 . S
H2306 C2314 0.930 . S
H2307 C2315 0.930 . S
H2308 C2318 0.930 . S
H2309 C2319 0.930 . S
C2310 H2304 0.930 . S
C2310 C2311 1.355 . S
C2310 C2312 1.415 . S
C2311 C2310 1.355 . S
C2311 C2313 1.419 . S
C2312 C2310 1.415 . S
C2312 C2317 1.425 . S
C2312 C2319 1.409 . S
C2313 H2305 0.930 . S
C2313 C2311 1.419 . S
C2313 C2314 1.362 . S
C2314 H2306 0.930 . S
C2314 C2313 1.362 . S
C2314 C2317 1.409 . S
C2315 H2307 0.930 . S
C2315 C2316 1.355 . S
C2315 C2317 1.415 . S
C2316 C2315 1.355 . S
C2316 C2318 1.419 . S
C2317 C2312 1.425 . S
C2317 C2314 1.409 . S
C2317 C2315 1.415 . S
C2318 H2308 0.930 . S
C2318 C2316 1.419 . S
C2318 C2319 1.362 . S
C2319 H2309 0.930 . S
C2319 C2312 1.409 . S
C2319 C2318 1.362 . S
H2320 C2326 0.930 . S
H2321 C2329 0.930 . S
H2322 C2330 0.930 . S
H2323 C2331 0.930 . S
H2324 C2334 0.930 . S
H2325 C2335 0.930 . S
C2326 H2320 0.930 . S
C2326 C2327 1.355 . S
C2326 C2328 1.415 . S
C2327 C2326 1.355 . S
C2327 C2329 1.419 . S
C2328 C2326 1.415 . S
C2328 C2333 1.425 . S
C2328 C2335 1.409 . S
C2329 H2321 0.930 . S
C2329 C2327 1.419 . S
C2329 C2330 1.362 . S
C2330 H2322 0.930 . S
C2330 C2329 1.362 . S
C2330 C2333 1.409 . S
C2331 H2323 0.930 . S
C2331 C2332 1.355 . S
C2331 C2333 1.415 . S
C2332 C2331 1.355 . S
C2332 C2334 1.419 . S
C2333 C2328 1.425 . S
C2333 C2330 1.409 . S
C2333 C2331 1.415 . S
C2334 H2324 0.930 . S
C2334 C2332 1.419 . S
C2334 C2335 1.362 . S
C2335 H2325 0.930 . S
C2335 C2328 1.409 . S
C2335 C2334 1.362 . S
H2336 C2342 0.930 . S
H2337 C2345 0.930 . S
H2338 C2346 0.930 . S
H2339 C2347 0.930 . S
H2340 C2350 0.930 . S
H2341 C2351 0.930 . S
C2342 H2336 0.930 . S
C2342 C2343 1.355 . S
C2342 C2344 1.415 . S
C2343 C2342 1.355 . S
C2343 C2345 1.419 . S
C2344 C2342 1.415 . S
C2344 C2349 1.425 . S
C2344 C2351 1.409 . S
C2345 H2337 0.930 . S
C2345 C2343 1.419 . S
C2345 C2346 1.362 . S
C2346 H2338 0.930 . S
C2346 C2345 1.362 . S
C2346 C2349 1.409 . S
C2347 H2339 0.930 . S
C2347 C2348 1.355 . S
C2347 C2349 1.415 . S
C2348 C2347 1.355 . S
C2348 C2350 1.419 . S
C2349 C2344 1.425 . S
C2349 C2346 1.409 . S
C2349 C2347 1.415 . S
C2350 H2340 0.930 . S
C2350 C2348 1.419 . S
C2350 C2351 1.362 . S
C2351 H2341 0.930 . S
C2351 C2344 1.409 . S
C2351 C2350 1.362 . S
H2352 C2358 0.930 . S
H2353 C2361 0.930 . S
H2354 C2362 0.930 . S
H2355 C2363 0.930 . S
H2356 C2366 0.930 . S
H2357 C2367 0.930 . S
C2358 H2352 0.930 . S
C2358 C2359 1.355 . S
C2358 C2360 1.415 . S
C2359 C2358 1.355 . S
C2359 C2361 1.419 . S
C2360 C2358 1.415 . S
C2360 C2365 1.425 . S
C2360 C2367 1.409 . S
C2361 H2353 0.930 . S
C2361 C2359 1.419 . S
C2361 C2362 1.362 . S
C2362 H2354 0.930 . S
C2362 C2361 1.362 . S
C2362 C2365 1.409 . S
C2363 H2355 0.930 . S
C2363 C2364 1.355 . S
C2363 C2365 1.415 . S
C2364 C2363 1.355 . S
C2364 C2366 1.419 . S
C2365 C2360 1.425 . S
C2365 C2362 1.409 . S
C2365 C2363 1.415 . S
C2366 H2356 0.930 . S
C2366 C2364 1.419 . S
C2366 C2367 1.362 . S
C2367 H2357 0.930 . S
C2367 C2360 1.409 . S
C2367 C2366 1.362 . S
H2368 C2374 0.930 . S
H2369 C2377 0.930 . S
H2370 C2378 0.930 . S
H2371 C2379 0.930 . S
H2372 C2382 0.930 . S
H2373 C2383 0.930 . S
C2374 H2368 0.930 . S
C2374 C2375 1.355 . S
C2374 C2376 1.415 . S
C2375 C2374 1.355 . S
C2375 C2377 1.419 . S
C2376 C2374 1.415 . S
C2376 C2381 1.425 . S
C2376 C2383 1.409 . S
C2377 H2369 0.930 . S
C2377 C2375 1.419 . S
C2377 C2378 1.362 . S
C2378 H2370 0.930 . S
C2378 C2377 1.362 . S
C2378 C2381 1.409 . S
C2379 H2371 0.930 . S
C2379 C2380 1.355 . S
C2379 C2381 1.415 . S
C2380 C2379 1.355 . S
C2380 C2382 1.419 . S
C2381 C2376 1.425 . S
C2381 C2378 1.409 . S
C2381 C2379 1.415 . S
C2382 H2372 0.930 . S
C2382 C2380 1.419 . S
C2382 C2383 1.362 . S
C2383 H2373 0.930 . S
C2383 C2376 1.409 . S
C2383 C2382 1.362 . S
H2384 C2390 0.930 . S
H2385 C2393 0.930 . S
H2386 C2394 0.924 1_545 S
H2387 C2395 0.930 . S
H2388 C2398 0.930 . S
H2389 C2399 0.930 . S
C2390 H2384 0.930 . S
C2390 C2391 1.355 1_565 S
C2390 C2392 1.415 . S
C2391 C2390 1.355 1_545 S
C2391 C2393 1.419 . S
C2392 C2390 1.415 . S
C2392 C2397 1.425 . S
C2392 C2399 1.409 . S
C2393 H2385 0.930 . S
C2393 C2391 1.419 . S
C2393 C2394 1.329 1_545 S
C2394 H2386 0.924 1_565 S
C2394 C2393 1.329 1_565 S
C2394 C2397 1.451 . S
C2395 H2387 0.930 . S
C2395 C2396 1.355 . S
C2395 C2397 1.415 . S
C2396 C2395 1.355 . S
C2396 C2398 1.419 . S
C2397 C2392 1.425 . S
C2397 C2394 1.451 . S
C2397 C2395 1.415 . S
C2398 H2388 0.930 . S
C2398 C2396 1.419 . S
C2398 C2399 1.362 . S
C2399 H2389 0.930 . S
C2399 C2392 1.409 . S
C2399 C2398 1.362 . S
H2400 C2406 0.930 . S
H2401 C2409 0.930 . S
H2402 C2410 0.930 . S
H2403 C2411 0.930 . S
H2404 C2414 0.930 . S
H2405 C2415 0.930 . S
C2406 H2400 0.930 . S
C2406 C2407 1.355 . S
C2406 C2408 1.415 . S
C2407 C2406 1.355 . S
C2407 C2409 1.419 . S
C2408 C2406 1.415 . S
C2408 C2413 1.425 . S
C2408 C2415 1.409 . S
C2409 H2401 0.930 . S
C2409 C2407 1.419 . S
C2409 C2410 1.362 . S
C2410 H2402 0.930 . S
C2410 C2409 1.362 . S
C2410 C2413 1.409 . S
C2411 H2403 0.930 . S
C2411 C2412 1.355 . S
C2411 C2413 1.415 . S
C2412 C2411 1.355 . S
C2412 C2414 1.419 . S
C2413 C2408 1.425 . S
C2413 C2410 1.409 . S
C2413 C2411 1.415 . S
C2414 H2404 0.930 . S
C2414 C2412 1.419 . S
C2414 C2415 1.362 . S
C2415 H2405 0.930 . S
C2415 C2408 1.409 . S
C2415 C2414 1.362 . S
H2416 C2422 0.930 . S
H2417 C2425 0.930 . S
H2418 C2426 0.930 . S
H2419 C2427 0.930 . S
H2420 C2430 0.930 . S
H2421 C2431 0.930 . S
C2422 H2416 0.930 . S
C2422 C2423 1.355 . S
C2422 C2424 1.415 . S
C2423 C2422 1.355 . S
C2423 C2425 1.419 . S
C2424 C2422 1.415 . S
C2424 C2429 1.425 . S
C2424 C2431 1.409 . S
C2425 H2417 0.930 . S
C2425 C2423 1.419 . S
C2425 C2426 1.362 . S
C2426 H2418 0.930 . S
C2426 C2425 1.362 . S
C2426 C2429 1.409 . S
C2427 H2419 0.930 . S
C2427 C2428 1.355 . S
C2427 C2429 1.415 . S
C2428 C2427 1.355 . S
C2428 C2430 1.419 . S
C2429 C2424 1.425 . S
C2429 C2426 1.409 . S
C2429 C2427 1.415 . S
C2430 H2420 0.930 . S
C2430 C2428 1.419 . S
C2430 C2431 1.362 . S
C2431 H2421 0.930 . S
C2431 C2424 1.409 . S
C2431 C2430 1.362 . S
H2432 C2438 0.930 . S
H2433 C2441 0.930 . S
H2434 C2442 0.930 . S
H2435 C2443 0.930 . S
H2436 C2446 0.930 . S
H2437 C2447 0.930 . S
C2438 H2432 0.930 . S
C2438 C2439 1.355 . S
C2438 C2440 1.415 . S
C2439 C2438 1.355 . S
C2439 C2441 1.419 . S
C2440 C2438 1.415 . S
C2440 C2445 1.425 . S
C2440 C2447 1.409 . S
C2441 H2433 0.930 . S
C2441 C2439 1.419 . S
C2441 C2442 1.362 . S
C2442 H2434 0.930 . S
C2442 C2441 1.362 . S
C2442 C2445 1.409 . S
C2443 H2435 0.930 . S
C2443 C2444 1.355 . S
C2443 C2445 1.415 . S
C2444 C2443 1.355 . S
C2444 C2446 1.419 . S
C2445 C2440 1.425 . S
C2445 C2442 1.409 . S
C2445 C2443 1.415 . S
C2446 H2436 0.930 . S
C2446 C2444 1.419 . S
C2446 C2447 1.362 . S
C2447 H2437 0.930 . S
C2447 C2440 1.409 . S
C2447 C2446 1.362 . S
H2448 C2454 0.930 . S
H2449 C2457 0.930 . S
H2450 C2458 0.930 . S
H2451 C2459 0.930 . S
H2452 C2462 0.930 . S
H2453 C2463 0.930 . S
C2454 H2448 0.930 . S
C2454 C2455 1.355 . S
C2454 C2456 1.415 . S
C2455 C2454 1.355 . S
C2455 C2457 1.419 . S
C2456 C2454 1.415 . S
C2456 C2461 1.425 . S
C2456 C2463 1.409 . S
C2457 H2449 0.930 . S
C2457 C2455 1.419 . S
C2457 C2458 1.362 . S
C2458 H2450 0.930 . S
C2458 C2457 1.362 . S
C2458 C2461 1.409 . S
C2459 H2451 0.930 . S
C2459 C2460 1.355 . S
C2459 C2461 1.415 . S
C2460 C2459 1.355 . S
C2460 C2462 1.419 . S
C2461 C2456 1.425 . S
C2461 C2458 1.409 . S
C2461 C2459 1.415 . S
C2462 H2452 0.930 . S
C2462 C2460 1.419 . S
C2462 C2463 1.362 . S
C2463 H2453 0.930 . S
C2463 C2456 1.409 . S
C2463 C2462 1.362 . S
H2464 C2470 0.930 . S
H2465 C2473 0.930 . S
H2466 C2474 0.930 . S
H2467 C2475 0.930 . S
H2468 C2478 0.930 . S
H2469 C2479 0.930 . S
C2470 H2464 0.930 . S
C2470 C2471 1.355 . S
C2470 C2472 1.415 . S
C2471 C2470 1.355 . S
C2471 C2473 1.419 . S
C2472 C2470 1.415 . S
C2472 C2477 1.425 . S
C2472 C2479 1.409 . S
C2473 H2465 0.930 . S
C2473 C2471 1.419 . S
C2473 C2474 1.362 . S
C2474 H2466 0.930 . S
C2474 C2473 1.362 . S
C2474 C2477 1.409 . S
C2475 H2467 0.930 . S
C2475 C2476 1.355 . S
C2475 C2477 1.415 . S
C2476 C2475 1.355 . S
C2476 C2478 1.419 . S
C2477 C2472 1.425 . S
C2477 C2474 1.409 . S
C2477 C2475 1.415 . S
C2478 H2468 0.930 . S
C2478 C2476 1.419 . S
C2478 C2479 1.362 . S
C2479 H2469 0.930 . S
C2479 C2472 1.409 . S
C2479 C2478 1.362 . S
H2480 C2486 0.951 . S
H2481 C2489 0.930 . S
H2482 C2490 0.930 . S
H2483 C2491 0.930 . S
H2484 C2494 0.951 . S
H2485 C2495 0.930 . S
C2486 H2480 0.951 . S
C2486 C2487 1.334 1_654 S
C2486 C2488 1.415 1_655 S
C2487 C2486 1.334 1_456 S
C2487 C2489 1.419 . S
C2488 C2486 1.415 1_455 S
C2488 C2493 1.425 . S
C2488 C2495 1.409 1_455 S
C2489 H2481 0.930 . S
C2489 C2487 1.419 . S
C2489 C2490 1.362 . S
C2490 H2482 0.930 . S
C2490 C2489 1.362 . S
C2490 C2493 1.409 1_556 S
C2491 H2483 0.930 . S
C2491 C2492 1.355 . S
C2491 C2493 1.415 . S
C2492 C2491 1.355 . S
C2492 C2494 1.398 1_455 S
C2493 C2488 1.425 . S
C2493 C2490 1.409 1_554 S
C2493 C2491 1.415 . S
C2494 H2484 0.951 . S
C2494 C2492 1.398 1_655 S
C2494 C2495 1.363 . S
C2495 H2485 0.930 . S
C2495 C2488 1.409 1_655 S
C2495 C2494 1.363 . S
H2496 C2502 0.930 . S
H2497 C2505 0.930 . S
H2498 C2506 0.930 1_455 S
H2499 C2507 0.930 . S
H2500 C2510 0.930 . S
H2501 C2511 0.930 . S
C2502 H2496 0.930 . S
C2502 C2503 1.355 . S
C2502 C2504 1.415 . S
C2503 C2502 1.355 . S
C2503 C2505 1.419 1_655 S
C2504 C2502 1.415 . S
C2504 C2509 1.425 . S
C2504 C2511 1.409 . S
C2505 H2497 0.930 . S
C2505 C2503 1.419 1_455 S
C2505 C2506 1.362 1_455 S
C2506 H2498 0.930 1_655 S
C2506 C2505 1.362 1_655 S
C2506 C2509 1.409 . S
C2507 H2499 0.930 . S
C2507 C2508 1.355 . S
C2507 C2509 1.415 . S
C2508 C2507 1.355 . S
C2508 C2510 1.419 . S
C2509 C2504 1.425 . S
C2509 C2506 1.409 . S
C2509 C2507 1.415 . S
C2510 H2500 0.930 . S
C2510 C2508 1.419 . S
C2510 C2511 1.362 . S
C2511 H2501 0.930 . S
C2511 C2504 1.409 . S
C2511 C2510 1.362 . S
H2512 C2518 0.930 . S
H2513 C2521 0.930 . S
H2514 C2522 0.930 . S
H2515 C2523 0.930 . S
H2516 C2526 0.930 . S
H2517 C2527 0.930 . S
C2518 H2512 0.930 . S
C2518 C2519 1.355 . S
C2518 C2520 1.415 . S
C2519 C2518 1.355 . S
C2519 C2521 1.419 . S
C2520 C2518 1.415 . S
C2520 C2525 1.425 . S
C2520 C2527 1.409 . S
C2521 H2513 0.930 . S
C2521 C2519 1.419 . S
C2521 C2522 1.362 . S
C2522 H2514 0.930 . S
C2522 C2521 1.362 . S
C2522 C2525 1.409 . S
C2523 H2515 0.930 . S
C2523 C2524 1.355 . S
C2523 C2525 1.415 . S
C2524 C2523 1.355 . S
C2524 C2526 1.419 . S
C2525 C2520 1.425 . S
C2525 C2522 1.409 . S
C2525 C2523 1.415 . S
C2526 H2516 0.930 . S
C2526 C2524 1.419 . S
C2526 C2527 1.362 . S
C2527 H2517 0.930 . S
C2527 C2520 1.409 . S
C2527 C2526 1.362 . S
H2528 C2534 0.930 . S
H2529 C2537 0.930 . S
H2530 C2538 0.930 . S
H2531 C2539 0.930 . S
H2532 C2542 0.930 . S
H2533 C2543 0.930 . S
C2534 H2528 0.930 . S
C2534 C2535 1.355 . S
C2534 C2536 1.415 . S
C2535 C2534 1.355 . S
C2535 C2537 1.419 . S
C2536 C2534 1.415 . S
C2536 C2541 1.425 . S
C2536 C2543 1.409 . S
C2537 H2529 0.930 . S
C2537 C2535 1.419 . S
C2537 C2538 1.362 . S
C2538 H2530 0.930 . S
C2538 C2537 1.362 . S
C2538 C2541 1.409 . S
C2539 H2531 0.930 . S
C2539 C2540 1.355 . S
C2539 C2541 1.415 . S
C2540 C2539 1.355 . S
C2540 C2542 1.419 . S
C2541 C2536 1.425 . S
C2541 C2538 1.409 . S
C2541 C2539 1.415 . S
C2542 H2532 0.930 . S
C2542 C2540 1.419 . S
C2542 C2543 1.362 . S
C2543 H2533 0.930 . S
C2543 C2536 1.409 . S
C2543 C2542 1.362 . S
H2544 C2550 0.930 . S
H2545 C2553 0.930 . S
H2546 C2554 0.930 . S
H2547 C2555 0.930 1_655 S
H2548 C2558 0.930 . S
H2549 C2559 0.930 . S
C2550 H2544 0.930 . S
C2550 C2551 1.355 . S
C2550 C2552 1.415 . S
C2551 C2550 1.355 . S
C2551 C2553 1.419 1_455 S
C2552 C2550 1.415 . S
C2552 C2557 1.425 . S
C2552 C2559 1.409 . S
C2553 H2545 0.930 . S
C2553 C2551 1.419 1_655 S
C2553 C2554 1.362 . S
C2554 H2546 0.930 . S
C2554 C2553 1.362 . S
C2554 C2557 1.409 1_655 S
C2555 H2547 0.930 1_455 S
C2555 C2556 1.355 . S
C2555 C2557 1.415 . S
C2556 C2555 1.355 . S
C2556 C2558 1.419 . S
C2557 C2552 1.425 . S
C2557 C2554 1.409 1_455 S
C2557 C2555 1.415 . S
C2558 H2548 0.930 . S
C2558 C2556 1.419 . S
C2558 C2559 1.362 . S
C2559 H2549 0.930 . S
C2559 C2552 1.409 . S
C2559 C2558 1.362 . S
H2560 C2566 0.930 . S
H2561 C2569 0.930 . S
H2562 C2570 0.930 . S
H2563 C2571 0.930 . S
H2564 C2574 0.930 . S
H2565 C2575 0.930 . S
C2566 H2560 0.930 . S
C2566 C2567 1.355 . S
C2566 C2568 1.415 . S
C2567 C2566 1.355 . S
C2567 C2569 1.419 . S
C2568 C2566 1.415 . S
C2568 C2573 1.425 . S
C2568 C2575 1.409 . S
C2569 H2561 0.930 . S
C2569 C2567 1.419 . S
C2569 C2570 1.362 . S
C2570 H2562 0.930 . S
C2570 C2569 1.362 . S
C2570 C2573 1.409 . S
C2571 H2563 0.930 . S
C2571 C2572 1.355 . S
C2571 C2573 1.415 . S
C2572 C2571 1.355 . S
C2572 C2574 1.419 . S
C2573 C2568 1.425 . S
C2573 C2570 1.409 . S
C2573 C2571 1.415 . S
C2574 H2564 0.930 . S
C2574 C2572 1.419 . S
C2574 C2575 1.362 . S
C2575 H2565 0.930 . S
C2575 C2568 1.409 . S
C2575 C2574 1.362 . S
H2576 C2582 0.930 . S
H2577 C2585 0.930 . S
H2578 C2586 0.930 . S
H2579 C2587 0.930 . S
H2580 C2590 0.930 . S
H2581 C2591 0.930 . S
C2582 H2576 0.930 . S
C2582 C2583 1.355 . S
C2582 C2584 1.415 . S
C2583 C2582 1.355 . S
C2583 C2585 1.419 . S
C2584 C2582 1.415 . S
C2584 C2589 1.425 . S
C2584 C2591 1.409 . S
C2585 H2577 0.930 . S
C2585 C2583 1.419 . S
C2585 C2586 1.362 . S
C2586 H2578 0.930 . S
C2586 C2585 1.362 . S
C2586 C2589 1.409 . S
C2587 H2579 0.930 . S
C2587 C2588 1.355 . S
C2587 C2589 1.415 . S
C2588 C2587 1.355 . S
C2588 C2590 1.419 . S
C2589 C2584 1.425 . S
C2589 C2586 1.409 . S
C2589 C2587 1.415 . S
C2590 H2580 0.930 . S
C2590 C2588 1.419 . S
C2590 C2591 1.362 . S
C2591 H2581 0.930 . S
C2591 C2584 1.409 . S
C2591 C2590 1.362 . S
H2592 C2598 0.930 . S
H2593 C2601 0.930 . S
H2594 C2602 0.930 . S
H2595 C2603 0.930 . S
H2596 C2606 0.930 . S
H2597 C2607 0.930 . S
C2598 H2592 0.930 . S
C2598 C2599 1.355 1_556 S
C2598 C2600 1.415 . S
C2599 C2598 1.355 1_554 S
C2599 C2601 1.419 . S
C2600 C2598 1.415 . S
C2600 C2605 1.425 . S
C2600 C2607 1.409 . S
C2601 H2593 0.930 . S
C2601 C2599 1.419 . S
C2601 C2602 1.362 . S
C2602 H2594 0.930 . S
C2602 C2601 1.362 . S
C2602 C2605 1.409 1_554 S
C2603 H2595 0.930 . S
C2603 C2604 1.355 . S
C2603 C2605 1.415 . S
C2604 C2603 1.355 . S
C2604 C2606 1.419 . S
C2605 C2600 1.425 . S
C2605 C2602 1.409 1_556 S
C2605 C2603 1.415 . S
C2606 H2596 0.930 . S
C2606 C2604 1.419 . S
C2606 C2607 1.362 . S
C2607 H2597 0.930 . S
C2607 C2600 1.409 . S
C2607 C2606 1.362 . S
H2608 C2614 0.930 . S
H2609 C2617 0.930 . S
H2610 C2618 0.930 . S
H2611 C2619 0.930 . S
H2612 C2622 0.930 . S
H2613 C2623 0.930 . S
C2614 H2608 0.930 . S
C2614 C2615 1.355 . S
C2614 C2616 1.415 . S
C2615 C2614 1.355 . S
C2615 C2617 1.419 . S
C2616 C2614 1.415 . S
C2616 C2621 1.425 . S
C2616 C2623 1.409 . S
C2617 H2609 0.930 . S
C2617 C2615 1.419 . S
C2617 C2618 1.362 . S
C2618 H2610 0.930 . S
C2618 C2617 1.362 . S
C2618 C2621 1.409 . S
C2619 H2611 0.930 . S
C2619 C2620 1.355 . S
C2619 C2621 1.415 . S
C2620 C2619 1.355 . S
C2620 C2622 1.419 . S
C2621 C2616 1.425 . S
C2621 C2618 1.409 . S
C2621 C2619 1.415 . S
C2622 H2612 0.930 . S
C2622 C2620 1.419 . S
C2622 C2623 1.362 . S
C2623 H2613 0.930 . S
C2623 C2616 1.409 . S
C2623 C2622 1.362 . S
H2624 C2630 0.930 . S
H2625 C2633 0.930 . S
H2626 C2634 0.930 . S
H2627 C2635 0.930 . S
H2628 C2638 0.930 . S
H2629 C2639 0.930 . S
C2630 H2624 0.930 . S
C2630 C2631 1.355 . S
C2630 C2632 1.415 . S
C2631 C2630 1.355 . S
C2631 C2633 1.419 . S
C2632 C2630 1.415 . S
C2632 C2637 1.425 . S
C2632 C2639 1.409 . S
C2633 H2625 0.930 . S
C2633 C2631 1.419 . S
C2633 C2634 1.362 . S
C2634 H2626 0.930 . S
C2634 C2633 1.362 . S
C2634 C2637 1.409 . S
C2635 H2627 0.930 . S
C2635 C2636 1.355 . S
C2635 C2637 1.415 . S
C2636 C2635 1.355 . S
C2636 C2638 1.419 . S
C2637 C2632 1.425 . S
C2637 C2634 1.409 . S
C2637 C2635 1.415 . S
C2638 H2628 0.930 . S
C2638 C2636 1.419 . S
C2638 C2639 1.362 . S
C2639 H2629 0.930 . S
C2639 C2632 1.409 . S
C2639 C2638 1.362 . S
H2640 C2646 0.930 . S
H2641 C2649 0.930 . S
H2642 C2650 0.930 . S
H2643 C2651 0.930 . S
H2644 C2654 0.930 . S
H2645 C2655 0.930 . S
C2646 H2640 0.930 . S
C2646 C2647 1.355 . S
C2646 C2648 1.415 . S
C2647 C2646 1.355 . S
C2647 C2649 1.419 . S
C2648 C2646 1.415 . S
C2648 C2653 1.425 . S
C2648 C2655 1.409 . S
C2649 H2641 0.930 . S
C2649 C2647 1.419 . S
C2649 C2650 1.362 . S
C2650 H2642 0.930 . S
C2650 C2649 1.362 . S
C2650 C2653 1.409 . S
C2651 H2643 0.930 . S
C2651 C2652 1.355 . S
C2651 C2653 1.415 . S
C2652 C2651 1.355 . S
C2652 C2654 1.419 . S
C2653 C2648 1.425 . S
C2653 C2650 1.409 . S
C2653 C2651 1.415 . S
C2654 H2644 0.930 . S
C2654 C2652 1.419 . S
C2654 C2655 1.362 . S
C2655 H2645 0.930 . S
C2655 C2648 1.409 . S
C2655 C2654 1.362 . S
H2656 C2662 0.930 . S
H2657 C2665 0.930 . S
H2658 C2666 0.930 . S
H2659 C2667 0.930 . S
H2660 C2670 0.930 . S
H2661 C2671 0.930 . S
C2662 H2656 0.930 . S
C2662 C2663 1.355 . S
C2662 C2664 1.415 . S
C2663 C2662 1.355 . S
C2663 C2665 1.419 . S
C2664 C2662 1.415 . S
C2664 C2669 1.425 . S
C2664 C2671 1.409 . S
C2665 H2657 0.930 . S
C2665 C2663 1.419 . S
C2665 C2666 1.362 . S
C2666 H2658 0.930 . S
C2666 C2665 1.362 . S
C2666 C2669 1.409 . S
C2667 H2659 0.930 . S
C2667 C2668 1.355 . S
C2667 C2669 1.415 . S
C2668 C2667 1.355 . S
C2668 C2670 1.419 . S
C2669 C2664 1.425 . S
C2669 C2666 1.409 . S
C2669 C2667 1.415 . S
C2670 H2660 0.930 . S
C2670 C2668 1.419 . S
C2670 C2671 1.362 . S
C2671 H2661 0.930 . S
C2671 C2664 1.409 . S
C2671 C2670 1.362 . S
H2672 C2678 0.930 . S
H2673 C2681 0.930 . S
H2674 C2682 0.930 . S
H2675 C2683 0.930 . S
H2676 C2686 0.930 . S
H2677 C2687 0.930 . S
C2678 H2672 0.930 . S
C2678 C2679 1.355 . S
C2678 C2680 1.415 . S
C2679 C2678 1.355 . S
C2679 C2681 1.419 . S
C2680 C2678 1.415 . S
C2680 C2685 1.425 . S
C2680 C2687 1.409 . S
C2681 H2673 0.930 . S
C2681 C2679 1.419 . S
C2681 C2682 1.362 . S
C2682 H2674 0.930 . S
C2682 C2681 1.362 . S
C2682 C2685 1.409 . S
C2683 H2675 0.930 . S
C2683 C2684 1.355 . S
C2683 C2685 1.415 . S
C2684 C2683 1.355 . S
C2684 C2686 1.419 . S
C2685 C2680 1.425 . S
C2685 C2682 1.409 . S
C2685 C2683 1.415 . S
C2686 H2676 0.930 . S
C2686 C2684 1.419 . S
C2686 C2687 1.362 . S
C2687 H2677 0.930 . S
C2687 C2680 1.409 . S
C2687 C2686 1.362 . S
H2688 C2694 0.930 . S
H2689 C2697 0.930 . S
H2690 C2698 0.930 . S
H2691 C2699 0.930 . S
H2692 C2702 0.930 . S
H2693 C2703 0.930 . S
C2694 H2688 0.930 . S
C2694 C2695 1.355 . S
C2694 C2696 1.415 . S
C2695 C2694 1.355 . S
C2695 C2697 1.419 . S
C2696 C2694 1.415 . S
C2696 C2701 1.425 . S
C2696 C2703 1.409 . S
C2697 H2689 0.930 . S
C2697 C2695 1.419 . S
C2697 C2698 1.362 . S
C2698 H2690 0.930 . S
C2698 C2697 1.362 . S
C2698 C2701 1.409 . S
C2699 H2691 0.930 . S
C2699 C2700 1.355 . S
C2699 C2701 1.415 . S
C2700 C2699 1.355 . S
C2700 C2702 1.419 . S
C2701 C2696 1.425 . S
C2701 C2698 1.409 . S
C2701 C2699 1.415 . S
C2702 H2692 0.930 . S
C2702 C2700 1.419 . S
C2702 C2703 1.362 . S
C2703 H2693 0.930 . S
C2703 C2696 1.409 . S
C2703 C2702 1.362 . S
H2704 C2710 0.930 . S
H2705 C2713 0.930 . S
H2706 C2714 0.930 . S
H2707 C2715 0.930 . S
H2708 C2718 0.930 . S
H2709 C2719 0.930 . S
C2710 H2704 0.930 . S
C2710 C2711 1.355 . S
C2710 C2712 1.415 . S
C2711 C2710 1.355 . S
C2711 C2713 1.419 . S
C2712 C2710 1.415 . S
C2712 C2717 1.425 . S
C2712 C2719 1.409 . S
C2713 H2705 0.930 . S
C2713 C2711 1.419 . S
C2713 C2714 1.362 . S
C2714 H2706 0.930 . S
C2714 C2713 1.362 . S
C2714 C2717 1.409 . S
C2715 H2707 0.930 . S
C2715 C2716 1.355 . S
C2715 C2717 1.415 . S
C2716 C2715 1.355 . S
C2716 C2718 1.419 . S
C2717 C2712 1.425 . S
C2717 C2714 1.409 . S
C2717 C2715 1.415 . S
C2718 H2708 0.930 . S
C2718 C2716 1.419 . S
C2718 C2719 1.362 . S
C2719 H2709 0.930 . S
C2719 C2712 1.409 . S
C2719 C2718 1.362 . S
H2720 C2726 0.930 . S
H2721 C2729 0.930 . S
H2722 C2730 0.930 . S
H2723 C2731 0.930 . S
H2724 C2734 0.930 . S
H2725 C2735 0.930 . S
C2726 H2720 0.930 . S
C2726 C2727 1.355 . S
C2726 C2728 1.415 . S
C2727 C2726 1.355 . S
C2727 C2729 1.419 . S
C2728 C2726 1.415 . S
C2728 C2733 1.425 . S
C2728 C2735 1.409 . S
C2729 H2721 0.930 . S
C2729 C2727 1.419 . S
C2729 C2730 1.362 . S
C2730 H2722 0.930 . S
C2730 C2729 1.362 . S
C2730 C2733 1.409 . S
C2731 H2723 0.930 . S
C2731 C2732 1.355 . S
C2731 C2733 1.415 . S
C2732 C2731 1.355 . S
C2732 C2734 1.419 . S
C2733 C2728 1.425 . S
C2733 C2730 1.409 . S
C2733 C2731 1.415 . S
C2734 H2724 0.930 . S
C2734 C2732 1.419 . S
C2734 C2735 1.362 . S
C2735 H2725 0.930 . S
C2735 C2728 1.409 . S
C2735 C2734 1.362 . S
H2736 C2742 0.930 . S
H2737 C2745 0.914 1_545 S
H2738 C2746 0.930 . S
H2739 C2747 0.930 . S
H2740 C2750 0.930 . S
H2741 C2751 0.930 . S
C2742 H2736 0.930 . S
C2742 C2743 1.355 . S
C2742 C2744 1.415 . S
C2743 C2742 1.355 . S
C2743 C2745 1.422 . S
C2744 C2742 1.415 . S
C2744 C2749 1.425 . S
C2744 C2751 1.409 . S
C2745 H2737 0.914 1_565 S
C2745 C2743 1.422 . S
C2745 C2746 1.376 . S
C2746 H2738 0.930 . S
C2746 C2745 1.376 . S
C2746 C2749 1.409 . S
C2747 H2739 0.930 . S
C2747 C2748 1.355 . S
C2747 C2749 1.415 . S
C2748 C2747 1.355 . S
C2748 C2750 1.419 . S
C2749 C2744 1.425 . S
C2749 C2746 1.409 . S
C2749 C2747 1.415 . S
C2750 H2740 0.930 . S
C2750 C2748 1.419 . S
C2750 C2751 1.362 . S
C2751 H2741 0.930 . S
C2751 C2744 1.409 . S
C2751 C2750 1.362 . S
H2752 C2758 0.930 1_556 S
H2753 C2761 0.930 . S
H2754 C2762 0.930 . S
H2755 C2763 0.930 . S
H2756 C2766 0.930 . S
H2757 C2767 0.921 1_556 S
C2758 H2752 0.930 1_554 S
C2758 C2759 1.355 . S
C2758 C2760 1.415 . S
C2759 C2758 1.355 . S
C2759 C2761 1.419 . S
C2760 C2758 1.415 . S
C2760 C2765 1.425 . S
C2760 C2767 1.409 1_565 S
C2761 H2753 0.930 . S
C2761 C2759 1.419 . S
C2761 C2762 1.362 . S
C2762 H2754 0.930 . S
C2762 C2761 1.362 . S
C2762 C2765 1.409 . S
C2763 H2755 0.930 . S
C2763 C2764 1.355 1_565 S
C2763 C2765 1.415 . S
C2764 C2763 1.355 1_545 S
C2764 C2766 1.419 . S
C2765 C2760 1.425 . S
C2765 C2762 1.409 . S
C2765 C2763 1.415 . S
C2766 H2756 0.930 . S
C2766 C2764 1.419 . S
C2766 C2767 1.362 . S
C2767 H2757 0.921 1_554 S
C2767 C2760 1.409 1_545 S
C2767 C2766 1.362 . S
H2768 C2774 0.930 . S
H2769 C2777 0.930 . S
H2770 C2778 0.930 . S
H2771 C2779 0.930 . S
H2772 C2782 0.930 . S
H2773 C2783 0.930 . S
C2774 H2768 0.930 . S
C2774 C2775 1.355 . S
C2774 C2776 1.415 . S
C2775 C2774 1.355 . S
C2775 C2777 1.419 . S
C2776 C2774 1.415 . S
C2776 C2781 1.425 . S
C2776 C2783 1.409 . S
C2777 H2769 0.930 . S
C2777 C2775 1.419 . S
C2777 C2778 1.362 . S
C2778 H2770 0.930 . S
C2778 C2777 1.362 . S
C2778 C2781 1.409 . S
C2779 H2771 0.930 . S
C2779 C2780 1.355 . S
C2779 C2781 1.415 . S
C2780 C2779 1.355 . S
C2780 C2782 1.419 . S
C2781 C2776 1.425 . S
C2781 C2778 1.409 . S
C2781 C2779 1.415 . S
C2782 H2772 0.930 . S
C2782 C2780 1.419 . S
C2782 C2783 1.362 . S
C2783 H2773 0.930 . S
C2783 C2776 1.409 . S
C2783 C2782 1.362 . S
H2784 C2790 0.930 1_556 S
H2785 C2793 0.930 . S
H2786 C2794 0.930 . S
H2787 C2795 0.930 . S
H2788 C2798 0.930 . S
H2789 C2799 0.930 1_556 S
C2790 H2784 0.930 1_554 S
C2790 C2791 1.355 . S
C2790 C2792 1.415 . S
C2791 C2790 1.355 . S
C2791 C2793 1.419 . S
C2792 C2790 1.415 . S
C2792 C2797 1.425 . S
C2792 C2799 1.409 . S
C2793 H2785 0.930 . S
C2793 C2791 1.419 . S
C2793 C2794 1.362 . S
C2794 H2786 0.930 . S
C2794 C2793 1.362 . S
C2794 C2797 1.409 . S
C2795 H2787 0.930 . S
C2795 C2796 1.355 . S
C2795 C2797 1.415 . S
C2796 C2795 1.355 . S
C2796 C2798 1.419 . S
C2797 C2792 1.425 . S
C2797 C2794 1.409 . S
C2797 C2795 1.415 . S
C2798 H2788 0.930 . S
C2798 C2796 1.419 . S
C2798 C2799 1.362 . S
C2799 H2789 0.930 1_554 S
C2799 C2792 1.409 . S
C2799 C2798 1.362 . S
H2800 C2806 0.930 . S
H2801 C2809 0.930 . S
H2802 C2810 0.930 . S
H2803 C2811 0.930 . S
H2804 C2814 0.930 . S
H2805 C2815 0.930 . S
C2806 H2800 0.930 . S
C2806 C2807 1.355 . S
C2806 C2808 1.415 . S
C2807 C2806 1.355 . S
C2807 C2809 1.419 . S
C2808 C2806 1.415 . S
C2808 C2813 1.425 . S
C2808 C2815 1.409 . S
C2809 H2801 0.930 . S
C2809 C2807 1.419 . S
C2809 C2810 1.362 . S
C2810 H2802 0.930 . S
C2810 C2809 1.362 . S
C2810 C2813 1.409 . S
C2811 H2803 0.930 . S
C2811 C2812 1.355 . S
C2811 C2813 1.415 . S
C2812 C2811 1.355 . S
C2812 C2814 1.419 . S
C2813 C2808 1.425 . S
C2813 C2810 1.409 . S
C2813 C2811 1.415 . S
C2814 H2804 0.930 . S
C2814 C2812 1.419 . S
C2814 C2815 1.362 . S
C2815 H2805 0.930 . S
C2815 C2808 1.409 . S
C2815 C2814 1.362 . S
H2816 C2822 0.930 . S
H2817 C2825 0.930 . S
H2818 C2826 0.930 . S
H2819 C2827 0.930 . S
H2820 C2830 0.930 . S
H2821 C2831 0.930 . S
C2822 H2816 0.930 . S
C2822 C2823 1.355 . S
C2822 C2824 1.415 . S
C2823 C2822 1.355 . S
C2823 C2825 1.419 . S
C2824 C2822 1.415 . S
C2824 C2829 1.425 . S
C2824 C2831 1.409 . S
C2825 H2817 0.930 . S
C2825 C2823 1.419 . S
C2825 C2826 1.362 . S
C2826 H2818 0.930 . S
C2826 C2825 1.362 . S
C2826 C2829 1.409 . S
C2827 H2819 0.930 . S
C2827 C2828 1.355 . S
C2827 C2829 1.415 . S
C2828 C2827 1.355 . S
C2828 C2830 1.419 . S
C2829 C2824 1.425 . S
C2829 C2826 1.409 . S
C2829 C2827 1.415 . S
C2830 H2820 0.930 . S
C2830 C2828 1.419 . S
C2830 C2831 1.362 . S
C2831 H2821 0.930 . S
C2831 C2824 1.409 . S
C2831 C2830 1.362 . S
H2832 C2838 0.930 . S
H2833 C2841 0.930 . S
H2834 C2842 0.930 . S
H2835 C2843 0.930 . S
H2836 C2846 0.930 . S
H2837 C2847 0.930 . S
C2838 H2832 0.930 . S
C2838 C2839 1.355 . S
C2838 C2840 1.415 . S
C2839 C2838 1.355 . S
C2839 C2841 1.419 . S
C2840 C2838 1.415 . S
C2840 C2845 1.425 . S
C2840 C2847 1.409 . S
C2841 H2833 0.930 . S
C2841 C2839 1.419 . S
C2841 C2842 1.362 . S
C2842 H2834 0.930 . S
C2842 C2841 1.362 . S
C2842 C2845 1.409 . S
C2843 H2835 0.930 . S
C2843 C2844 1.355 . S
C2843 C2845 1.415 . S
C2844 C2843 1.355 . S
C2844 C2846 1.419 . S
C2845 C2840 1.425 . S
C2845 C2842 1.409 . S
C2845 C2843 1.415 . S
C2846 H2836 0.930 . S
C2846 C2844 1.419 . S
C2846 C2847 1.362 . S
C2847 H2837 0.930 . S
C2847 C2840 1.409 . S
C2847 C2846 1.362 . S
H2848 C2854 0.930 . S
H2849 C2857 0.930 . S
H2850 C2858 0.930 . S
H2851 C2859 0.930 . S
H2852 C2862 0.930 . S
H2853 C2863 0.930 . S
C2854 H2848 0.930 . S
C2854 C2855 1.355 . S
C2854 C2856 1.415 . S
C2855 C2854 1.355 . S
C2855 C2857 1.419 . S
C2856 C2854 1.415 . S
C2856 C2861 1.425 . S
C2856 C2863 1.409 . S
C2857 H2849 0.930 . S
C2857 C2855 1.419 . S
C2857 C2858 1.362 . S
C2858 H2850 0.930 . S
C2858 C2857 1.362 . S
C2858 C2861 1.409 . S
C2859 H2851 0.930 . S
C2859 C2860 1.355 . S
C2859 C2861 1.415 . S
C2860 C2859 1.355 . S
C2860 C2862 1.419 . S
C2861 C2856 1.425 . S
C2861 C2858 1.409 . S
C2861 C2859 1.415 . S
C2862 H2852 0.930 . S
C2862 C2860 1.419 . S
C2862 C2863 1.362 . S
C2863 H2853 0.930 . S
C2863 C2856 1.409 . S
C2863 C2862 1.362 . S
H2864 C2870 0.930 . S
H2865 C2873 0.930 . S
H2866 C2874 0.930 . S
H2867 C2875 0.930 . S
H2868 C2878 0.930 . S
H2869 C2879 0.930 . S
C2870 H2864 0.930 . S
C2870 C2871 1.355 . S
C2870 C2872 1.415 . S
C2871 C2870 1.355 . S
C2871 C2873 1.419 . S
C2872 C2870 1.415 . S
C2872 C2877 1.425 . S
C2872 C2879 1.409 . S
C2873 H2865 0.930 . S
C2873 C2871 1.419 . S
C2873 C2874 1.362 . S
C2874 H2866 0.930 . S
C2874 C2873 1.362 . S
C2874 C2877 1.409 . S
C2875 H2867 0.930 . S
C2875 C2876 1.355 . S
C2875 C2877 1.415 . S
C2876 C2875 1.355 . S
C2876 C2878 1.419 . S
C2877 C2872 1.425 . S
C2877 C2874 1.409 . S
C2877 C2875 1.415 . S
C2878 H2868 0.930 . S
C2878 C2876 1.419 . S
C2878 C2879 1.362 . S
C2879 H2869 0.930 . S
C2879 C2872 1.409 . S
C2879 C2878 1.362 . S
H2880 C2886 0.930 . S
H2881 C2889 0.930 . S
H2882 C2890 0.930 . S
H2883 C2891 0.930 . S
H2884 C2894 0.930 . S
H2885 C2895 0.930 . S
C2886 H2880 0.930 . S
C2886 C2887 1.355 . S
C2886 C2888 1.415 . S
C2887 C2886 1.355 . S
C2887 C2889 1.419 . S
C2888 C2886 1.415 . S
C2888 C2893 1.425 . S
C2888 C2895 1.409 . S
C2889 H2881 0.930 . S
C2889 C2887 1.419 . S
C2889 C2890 1.362 . S
C2890 H2882 0.930 . S
C2890 C2889 1.362 . S
C2890 C2893 1.409 . S
C2891 H2883 0.930 . S
C2891 C2892 1.355 . S
C2891 C2893 1.415 . S
C2892 C2891 1.355 . S
C2892 C2894 1.419 . S
C2893 C2888 1.425 . S
C2893 C2890 1.409 . S
C2893 C2891 1.415 . S
C2894 H2884 0.930 . S
C2894 C2892 1.419 . S
C2894 C2895 1.362 . S
C2895 H2885 0.930 . S
C2895 C2888 1.409 . S
C2895 C2894 1.362 . S
H2896 C2902 0.930 . S
H2897 C2905 0.930 . S
H2898 C2906 0.930 . S
H2899 C2907 0.930 . S
H2900 C2910 0.930 . S
H2901 C2911 0.930 . S
C2902 H2896 0.930 . S
C2902 C2903 1.355 . S
C2902 C2904 1.415 . S
C2903 C2902 1.355 . S
C2903 C2905 1.419 . S
C2904 C2902 1.415 . S
C2904 C2909 1.425 . S
C2904 C2911 1.409 . S
C2905 H2897 0.930 . S
C2905 C2903 1.419 . S
C2905 C2906 1.362 . S
C2906 H2898 0.930 . S
C2906 C2905 1.362 . S
C2906 C2909 1.409 . S
C2907 H2899 0.930 . S
C2907 C2908 1.355 . S
C2907 C2909 1.415 . S
C2908 C2907 1.355 . S
C2908 C2910 1.419 . S
C2909 C2904 1.425 . S
C2909 C2906 1.409 . S
C2909 C2907 1.415 . S
C2910 H2900 0.930 . S
C2910 C2908 1.419 . S
C2910 C2911 1.362 . S
C2911 H2901 0.930 . S
C2911 C2904 1.409 . S
C2911 C2910 1.362 . S
H2912 C2918 0.930 . S
H2913 C2921 0.930 . S
H2914 C2922 0.930 . S
H2915 C2923 0.930 . S
H2916 C2926 0.930 . S
H2917 C2927 0.930 . S
C2918 H2912 0.930 . S
C2918 C2919 1.355 . S
C2918 C2920 1.415 . S
C2919 C2918 1.355 . S
C2919 C2921 1.419 . S
C2920 C2918 1.415 . S
C2920 C2925 1.425 . S
C2920 C2927 1.409 . S
C2921 H2913 0.930 . S
C2921 C2919 1.419 . S
C2921 C2922 1.362 . S
C2922 H2914 0.930 . S
C2922 C2921 1.362 . S
C2922 C2925 1.409 . S
C2923 H2915 0.930 . S
C2923 C2924 1.355 . S
C2923 C2925 1.415 . S
C2924 C2923 1.355 . S
C2924 C2926 1.419 . S
C2925 C2920 1.425 . S
C2925 C2922 1.409 . S
C2925 C2923 1.415 . S
C2926 H2916 0.930 . S
C2926 C2924 1.419 . S
C2926 C2927 1.362 . S
C2927 H2917 0.930 . S
C2927 C2920 1.409 . S
C2927 C2926 1.362 . S
H2928 C2934 0.930 . S
H2929 C2937 0.930 . S
H2930 C2938 0.930 . S
H2931 C2939 0.930 . S
H2932 C2942 0.930 . S
H2933 C2943 0.930 . S
C2934 H2928 0.930 . S
C2934 C2935 1.355 . S
C2934 C2936 1.415 . S
C2935 C2934 1.355 . S
C2935 C2937 1.419 . S
C2936 C2934 1.415 . S
C2936 C2941 1.425 . S
C2936 C2943 1.409 . S
C2937 H2929 0.930 . S
C2937 C2935 1.419 . S
C2937 C2938 1.362 . S
C2938 H2930 0.930 . S
C2938 C2937 1.362 . S
C2938 C2941 1.409 . S
C2939 H2931 0.930 . S
C2939 C2940 1.355 . S
C2939 C2941 1.415 . S
C2940 C2939 1.355 . S
C2940 C2942 1.419 . S
C2941 C2936 1.425 . S
C2941 C2938 1.409 . S
C2941 C2939 1.415 . S
C2942 H2932 0.930 . S
C2942 C2940 1.419 . S
C2942 C2943 1.362 . S
C2943 H2933 0.930 . S
C2943 C2936 1.409 . S
C2943 C2942 1.362 . S
H2944 C2950 0.930 . S
H2945 C2953 0.930 . S
H2946 C2954 0.930 . S
H2947 C2955 0.930 . S
H2948 C2958 0.930 . S
H2949 C2959 0.930 . S
C2950 H2944 0.930 . S
C2950 C2951 1.355 . S
C2950 C2952 1.415 . S
C2951 C2950 1.355 . S
C2951 C2953 1.419 . S
C2952 C2950 1.415 . S
C2952 C2957 1.425 . S
C2952 C2959 1.409 . S
C2953 H2945 0.930 . S
C2953 C2951 1.419 . S
C2953 C2954 1.362 . S
C2954 H2946 0.930 . S
C2954 C2953 1.362 . S
C2954 C2957 1.409 . S
C2955 H2947 0.930 . S
C2955 C2956 1.355 . S
C2955 C2957 1.415 . S
C2956 C2955 1.355 . S
C2956 C2958 1.419 . S
C2957 C2952 1.425 . S
C2957 C2954 1.409 . S
C2957 C2955 1.415 . S
C2958 H2948 0.930 . S
C2958 C2956 1.419 . S
C2958 C2959 1.362 . S
C2959 H2949 0.930 . S
C2959 C2952 1.409 . S
C2959 C2958 1.362 . S
H2960 C2966 0.930 . S
H2961 C2969 0.930 . S
H2962 C2970 0.930 . S
H2963 C2971 0.930 . S
H2964 C2974 0.930 . S
H2965 C2975 0.930 . S
C2966 H2960 0.930 . S
C2966 C2967 1.355 . S
C2966 C2968 1.415 . S
C2967 C2966 1.355 . S
C2967 C2969 1.419 . S
C2968 C2966 1.415 . S
C2968 C2973 1.425 . S
C2968 C2975 1.409 . S
C2969 H2961 0.930 . S
C2969 C2967 1.419 . S
C2969 C2970 1.362 . S
C2970 H2962 0.930 . S
C2970 C2969 1.362 . S
C2970 C2973 1.409 . S
C2971 H2963 0.930 . S
C2971 C2972 1.355 . S
C2971 C2973 1.415 . S
C2972 C2971 1.355 . S
C2972 C2974 1.419 . S
C2973 C2968 1.425 . S
C2973 C2970 1.409 . S
C2973 C2971 1.415 . S
C2974 H2964 0.930 . S
C2974 C2972 1.419 . S
C2974 C2975 1.362 . S
C2975 H2965 0.930 . S
C2975 C2968 1.409 . S
C2975 C2974 1.362 . S
H2976 C2982 0.930 . S
H2977 C2985 0.930 . S
H2978 C2986 0.930 . S
H2979 C2987 0.930 . S
H2980 C2990 0.930 . S
H2981 C2991 0.930 . S
C2982 H2976 0.930 . S
C2982 C2983 1.355 . S
C2982 C2984 1.415 . S
C2983 C2982 1.355 . S
C2983 C2985 1.419 . S
C2984 C2982 1.415 . S
C2984 C2989 1.425 . S
C2984 C2991 1.409 . S
C2985 H2977 0.930 . S
C2985 C2983 1.419 . S
C2985 C2986 1.362 . S
C2986 H2978 0.930 . S
C2986 C2985 1.362 . S
C2986 C2989 1.409 . S
C2987 H2979 0.930 . S
C2987 C2988 1.355 . S
C2987 C2989 1.415 . S
C2988 C2987 1.355 . S
C2988 C2990 1.419 . S
C2989 C2984 1.425 . S
C2989 C2986 1.409 . S
C2989 C2987 1.415 . S
C2990 H2980 0.930 . S
C2990 C2988 1.419 . S
C2990 C2991 1.362 . S
C2991 H2981 0.930 . S
C2991 C2984 1.409 . S
C2991 C2990 1.362 . S
H2992 C2998 0.930 . S
H2993 C3001 0.930 . S
H2994 C3002 0.930 . S
H2995 C3003 0.930 1_455 S
H2996 C3006 0.923 1_554 S
H2997 C3007 0.930 . S
C2998 H2992 0.930 . S
C2998 C2999 1.355 . S
C2998 C3000 1.415 . S
C2999 C2998 1.355 . S
C2999 C3001 1.419 . S
C3000 C2998 1.415 . S
C3000 C3005 1.425 . S
C3000 C3007 1.409 . S
C3001 H2993 0.930 . S
C3001 C2999 1.419 . S
C3001 C3002 1.362 . S
C3002 H2994 0.930 . S
C3002 C3001 1.362 . S
C3002 C3005 1.409 . S
C3003 H2995 0.930 1_655 S
C3003 C3004 1.355 . S
C3003 C3005 1.415 . S
C3004 C3003 1.355 . S
C3004 C3006 1.419 . S
C3005 C3000 1.425 . S
C3005 C3002 1.409 . S
C3005 C3003 1.415 . S
C3006 H2996 0.923 1_556 S
C3006 C3004 1.419 . S
C3006 C3007 1.362 . S
C3007 H2997 0.930 . S
C3007 C3000 1.409 . S
C3007 C3006 1.362 . S
H3008 C3014 0.930 . S
H3009 C3017 0.930 . S
H3010 C3018 0.930 . S
H3011 C3019 0.930 . S
H3012 C3022 0.930 . S
H3013 C3023 0.930 . S
C3014 H3008 0.930 . S
C3014 C3015 1.355 . S
C3014 C3016 1.415 . S
C3015 C3014 1.355 . S
C3015 C3017 1.419 . S
C3016 C3014 1.415 . S
C3016 C3021 1.425 . S
C3016 C3023 1.409 . S
C3017 H3009 0.930 . S
C3017 C3015 1.419 . S
C3017 C3018 1.362 . S
C3018 H3010 0.930 . S
C3018 C3017 1.362 . S
C3018 C3021 1.409 . S
C3019 H3011 0.930 . S
C3019 C3020 1.355 . S
C3019 C3021 1.415 . S
C3020 C3019 1.355 . S
C3020 C3022 1.419 . S
C3021 C3016 1.425 . S
C3021 C3018 1.409 . S
C3021 C3019 1.415 . S
C3022 H3012 0.930 . S
C3022 C3020 1.419 . S
C3022 C3023 1.362 . S
C3023 H3013 0.930 . S
C3023 C3016 1.409 . S
C3023 C3022 1.362 . S
H3024 C3030 0.930 . S
H3025 C3033 0.930 . S
H3026 C3034 0.930 . S
H3027 C3035 0.930 . S
H3028 C3038 0.930 . S
H3029 C3039 0.930 . S
C3030 H3024 0.930 . S
C3030 C3031 1.355 . S
C3030 C3032 1.415 . S
C3031 C3030 1.355 . S
C3031 C3033 1.419 . S
C3032 C3030 1.415 . S
C3032 C3037 1.425 . S
C3032 C3039 1.409 . S
C3033 H3025 0.930 . S
C3033 C3031 1.419 . S
C3033 C3034 1.362 . S
C3034 H3026 0.930 . S
C3034 C3033 1.362 . S
C3034 C3037 1.409 . S
C3035 H3027 0.930 . S
C3035 C3036 1.355 . S
C3035 C3037 1.415 . S
C3036 C3035 1.355 . S
C3036 C3038 1.419 . S
C3037 C3032 1.425 . S
C3037 C3034 1.409 . S
C3037 C3035 1.415 . S
C3038 H3028 0.930 . S
C3038 C3036 1.419 . S
C3038 C3039 1.362 . S
C3039 H3029 0.930 . S
C3039 C3032 1.409 . S
C3039 C3038 1.362 . S
H3040 C3046 0.930 . S
H3041 C3049 0.930 . S
H3042 C3050 0.930 . S
H3043 C3051 0.930 . S
H3044 C3054 0.930 . S
H3045 C3055 0.930 . S
C3046 H3040 0.930 . S
C3046 C3047 1.355 . S
C3046 C3048 1.415 . S
C3047 C3046 1.355 . S
C3047 C3049 1.419 . S
C3048 C3046 1.415 . S
C3048 C3053 1.425 . S
C3048 C3055 1.409 . S
C3049 H3041 0.930 . S
C3049 C3047 1.419 . S
C3049 C3050 1.362 . S
C3050 H3042 0.930 . S
C3050 C3049 1.362 . S
C3050 C3053 1.409 . S
C3051 H3043 0.930 . S
C3051 C3052 1.355 . S
C3051 C3053 1.415 . S
C3052 C3051 1.355 . S
C3052 C3054 1.419 . S
C3053 C3048 1.425 . S
C3053 C3050 1.409 . S
C3053 C3051 1.415 . S
C3054 H3044 0.930 . S
C3054 C3052 1.419 . S
C3054 C3055 1.362 . S
C3055 H3045 0.930 . S
C3055 C3048 1.409 . S
C3055 C3054 1.362 . S
H3056 C3062 0.930 . S
H3057 C3065 0.930 . S
H3058 C3066 0.930 . S
H3059 C3067 0.930 . S
H3060 C3070 0.930 . S
H3061 C3071 0.930 . S
C3062 H3056 0.930 . S
C3062 C3063 1.355 . S
C3062 C3064 1.415 . S
C3063 C3062 1.355 . S
C3063 C3065 1.419 . S
C3064 C3062 1.415 . S
C3064 C3069 1.425 . S
C3064 C3071 1.409 . S
C3065 H3057 0.930 . S
C3065 C3063 1.419 . S
C3065 C3066 1.362 . S
C3066 H3058 0.930 . S
C3066 C3065 1.362 . S
C3066 C3069 1.409 . S
C3067 H3059 0.930 . S
C3067 C3068 1.355 . S
C3067 C3069 1.415 . S
C3068 C3067 1.355 . S
C3068 C3070 1.419 . S
C3069 C3064 1.425 . S
C3069 C3066 1.409 . S
C3069 C3067 1.415 . S
C3070 H3060 0.930 . S
C3070 C3068 1.419 . S
C3070 C3071 1.362 . S
C3071 H3061 0.930 . S
C3071 C3064 1.409 . S
C3071 C3070 1.362 . S
H3072 C3078 0.930 . S
H3073 C3081 0.930 . S
H3074 C3082 0.930 . S
H3075 C3083 0.930 . S
H3076 C3086 0.930 . S
H3077 C3087 0.930 . S
C3078 H3072 0.930 . S
C3078 C3079 1.355 . S
C3078 C3080 1.415 . S
C3079 C3078 1.355 . S
C3079 C3081 1.419 . S
C3080 C3078 1.415 . S
C3080 C3085 1.425 . S
C3080 C3087 1.409 . S
C3081 H3073 0.930 . S
C3081 C3079 1.419 . S
C3081 C3082 1.362 . S
C3082 H3074 0.930 . S
C3082 C3081 1.362 . S
C3082 C3085 1.409 . S
C3083 H3075 0.930 . S
C3083 C3084 1.355 . S
C3083 C3085 1.415 . S
C3084 C3083 1.355 . S
C3084 C3086 1.419 . S
C3085 C3080 1.425 . S
C3085 C3082 1.409 . S
C3085 C3083 1.415 . S
C3086 H3076 0.930 . S
C3086 C3084 1.419 . S
C3086 C3087 1.362 . S
C3087 H3077 0.930 . S
C3087 C3080 1.409 . S
C3087 C3086 1.362 . S
H3088 C3094 0.930 . S
H3089 C3097 0.930 . S
H3090 C3098 0.930 . S
H3091 C3099 0.930 . S
H3092 C3102 0.930 . S
H3093 C3103 0.930 . S
C3094 H3088 0.930 . S
C3094 C3095 1.355 . S
C3094 C3096 1.415 . S
C3095 C3094 1.355 . S
C3095 C3097 1.419 . S
C3096 C3094 1.415 . S
C3096 C3101 1.425 . S
C3096 C3103 1.409 . S
C3097 H3089 0.930 . S
C3097 C3095 1.419 . S
C3097 C3098 1.362 . S
C3098 H3090 0.930 . S
C3098 C3097 1.362 . S
C3098 C3101 1.409 . S
C3099 H3091 0.930 . S
C3099 C3100 1.355 . S
C3099 C3101 1.415 . S
C3100 C3099 1.355 . S
C3100 C3102 1.419 . S
C3101 C3096 1.425 . S
C3101 C3098 1.409 . S
C3101 C3099 1.415 . S
C3102 H3092 0.930 . S
C3102 C3100 1.419 . S
C3102 C3103 1.362 . S
C3103 H3093 0.930 . S
C3103 C3096 1.409 . S
C3103 C3102 1.362 . S
H3104 C3110 0.930 . S
H3105 C3113 0.930 . S
H3106 C3114 0.930 . S
H3107 C3115 0.930 . S
H3108 C3118 0.924 1_545 S
H3109 C3119 0.930 . S
C3110 H3104 0.930 . S
C3110 C3111 1.355 . S
C3110 C3112 1.415 . S
C3111 C3110 1.355 . S
C3111 C3113 1.419 . S
C3112 C3110 1.415 . S
C3112 C3117 1.425 . S
C3112 C3119 1.409 . S
C3113 H3105 0.930 . S
C3113 C3111 1.419 . S
C3113 C3114 1.362 . S
C3114 H3106 0.930 . S
C3114 C3113 1.362 . S
C3114 C3117 1.409 . S
C3115 H3107 0.930 . S
C3115 C3116 1.355 . S
C3115 C3117 1.415 . S
C3116 C3115 1.355 . S
C3116 C3118 1.419 . S
C3117 C3112 1.425 . S
C3117 C3114 1.409 . S
C3117 C3115 1.415 . S
C3118 H3108 0.924 1_565 S
C3118 C3116 1.419 . S
C3118 C3119 1.362 . S
C3119 H3109 0.930 . S
C3119 C3112 1.409 . S
C3119 C3118 1.362 . S
H3120 C3126 0.930 . S
H3121 C3129 0.930 . S
H3122 C3130 0.930 . S
H3123 C3131 0.930 . S
H3124 C3134 0.930 . S
H3125 C3135 0.930 . S
C3126 H3120 0.930 . S
C3126 C3127 1.355 . S
C3126 C3128 1.415 . S
C3127 C3126 1.355 . S
C3127 C3129 1.419 . S
C3128 C3126 1.415 . S
C3128 C3133 1.425 . S
C3128 C3135 1.409 . S
C3129 H3121 0.930 . S
C3129 C3127 1.419 . S
C3129 C3130 1.362 . S
C3130 H3122 0.930 . S
C3130 C3129 1.362 . S
C3130 C3133 1.409 . S
C3131 H3123 0.930 . S
C3131 C3132 1.355 . S
C3131 C3133 1.415 . S
C3132 C3131 1.355 . S
C3132 C3134 1.419 . S
C3133 C3128 1.425 . S
C3133 C3130 1.409 . S
C3133 C3131 1.415 . S
C3134 H3124 0.930 . S
C3134 C3132 1.419 . S
C3134 C3135 1.362 . S
C3135 H3125 0.930 . S
C3135 C3128 1.409 . S
C3135 C3134 1.362 . S
H3136 C3142 0.930 . S
H3137 C3145 0.930 . S
H3138 C3146 0.930 . S
H3139 C3147 0.930 . S
H3140 C3150 0.930 . S
H3141 C3151 0.930 . S
C3142 H3136 0.930 . S
C3142 C3143 1.355 . S
C3142 C3144 1.415 . S
C3143 C3142 1.355 . S
C3143 C3145 1.419 . S
C3144 C3142 1.415 . S
C3144 C3149 1.425 . S
C3144 C3151 1.409 . S
C3145 H3137 0.930 . S
C3145 C3143 1.419 . S
C3145 C3146 1.362 . S
C3146 H3138 0.930 . S
C3146 C3145 1.362 . S
C3146 C3149 1.409 . S
C3147 H3139 0.930 . S
C3147 C3148 1.355 . S
C3147 C3149 1.415 . S
C3148 C3147 1.355 . S
C3148 C3150 1.419 . S
C3149 C3144 1.425 . S
C3149 C3146 1.409 . S
C3149 C3147 1.415 . S
C3150 H3140 0.930 . S
C3150 C3148 1.419 . S
C3150 C3151 1.362 . S
C3151 H3141 0.930 . S
C3151 C3144 1.409 . S
C3151 C3150 1.362 . S
H3152 C3158 0.930 . S
H3153 C3161 0.930 . S
H3154 C3162 0.930 . S
H3155 C3163 0.930 . S
H3156 C3166 0.930 . S
H3157 C3167 0.930 . S
C3158 H3152 0.930 . S
C3158 C3159 1.355 . S
C3158 C3160 1.415 . S
C3159 C3158 1.355 . S
C3159 C3161 1.419 . S
C3160 C3158 1.415 . S
C3160 C3165 1.425 . S
C3160 C3167 1.409 . S
C3161 H3153 0.930 . S
C3161 C3159 1.419 . S
C3161 C3162 1.362 . S
C3162 H3154 0.930 . S
C3162 C3161 1.362 . S
C3162 C3165 1.409 . S
C3163 H3155 0.930 . S
C3163 C3164 1.355 . S
C3163 C3165 1.415 . S
C3164 C3163 1.355 . S
C3164 C3166 1.419 . S
C3165 C3160 1.425 . S
C3165 C3162 1.409 . S
C3165 C3163 1.415 . S
C3166 H3156 0.930 . S
C3166 C3164 1.419 . S
C3166 C3167 1.362 . S
C3167 H3157 0.930 . S
C3167 C3160 1.409 . S
C3167 C3166 1.362 . S
H3168 C3174 0.930 . S
H3169 C3177 0.930 . S
H3170 C3178 0.930 . S
H3171 C3179 0.930 . S
H3172 C3182 0.930 . S
H3173 C3183 0.930 . S
C3174 H3168 0.930 . S
C3174 C3175 1.355 . S
C3174 C3176 1.415 . S
C3175 C3174 1.355 . S
C3175 C3177 1.419 . S
C3176 C3174 1.415 . S
C3176 C3181 1.425 . S
C3176 C3183 1.409 . S
C3177 H3169 0.930 . S
C3177 C3175 1.419 . S
C3177 C3178 1.362 . S
C3178 H3170 0.930 . S
C3178 C3177 1.362 . S
C3178 C3181 1.409 . S
C3179 H3171 0.930 . S
C3179 C3180 1.355 . S
C3179 C3181 1.415 . S
C3180 C3179 1.355 . S
C3180 C3182 1.419 . S
C3181 C3176 1.425 . S
C3181 C3178 1.409 . S
C3181 C3179 1.415 . S
C3182 H3172 0.930 . S
C3182 C3180 1.419 . S
C3182 C3183 1.362 . S
C3183 H3173 0.930 . S
C3183 C3176 1.409 . S
C3183 C3182 1.362 . S
H3184 C3190 0.930 . S
H3185 C3193 0.930 . S
H3186 C3194 0.930 . S
H3187 C3195 0.930 . S
H3188 C3198 0.930 . S
H3189 C3199 0.930 . S
C3190 H3184 0.930 . S
C3190 C3191 1.355 . S
C3190 C3192 1.415 . S
C3191 C3190 1.355 . S
C3191 C3193 1.419 . S
C3192 C3190 1.415 . S
C3192 C3197 1.425 . S
C3192 C3199 1.409 . S
C3193 H3185 0.930 . S
C3193 C3191 1.419 . S
C3193 C3194 1.362 . S
C3194 H3186 0.930 . S
C3194 C3193 1.362 . S
C3194 C3197 1.409 . S
C3195 H3187 0.930 . S
C3195 C3196 1.355 . S
C3195 C3197 1.415 . S
C3196 C3195 1.355 . S
C3196 C3198 1.419 . S
C3197 C3192 1.425 . S
C3197 C3194 1.409 . S
C3197 C3195 1.415 . S
C3198 H3188 0.930 . S
C3198 C3196 1.419 . S
C3198 C3199 1.362 . S
C3199 H3189 0.930 . S
C3199 C3192 1.409 . S
C3199 C3198 1.362 . S
H3200 C3206 0.930 . S
H3201 C3209 0.930 . S
H3202 C3210 0.930 . S
H3203 C3211 0.930 . S
H3204 C3214 0.930 . S
H3205 C3215 0.930 . S
C3206 H3200 0.930 . S
C3206 C3207 1.355 . S
C3206 C3208 1.415 . S
C3207 C3206 1.355 . S
C3207 C3209 1.419 . S
C3208 C3206 1.415 . S
C3208 C3213 1.425 . S
C3208 C3215 1.409 . S
C3209 H3201 0.930 . S
C3209 C3207 1.419 . S
C3209 C3210 1.362 . S
C3210 H3202 0.930 . S
C3210 C3209 1.362 . S
C3210 C3213 1.409 . S
C3211 H3203 0.930 . S
C3211 C3212 1.355 . S
C3211 C3213 1.415 . S
C3212 C3211 1.355 . S
C3212 C3214 1.419 . S
C3213 C3208 1.425 . S
C3213 C3210 1.409 . S
C3213 C3211 1.415 . S
C3214 H3204 0.930 . S
C3214 C3212 1.419 . S
C3214 C3215 1.362 . S
C3215 H3205 0.930 . S
C3215 C3208 1.409 . S
C3215 C3214 1.362 . S
C1687 C105 2.239 1_455 S
C1692 C403 2.238 . S
C1703 C65 1.921 . S
C1708 C476 1.929 . S
C1719 C73 1.918 . S
C1724 C571 1.924 . S
C1740 C646 1.347 . S
C1735 C92 1.433 . S
C1751 C17 1.512 . S
C1756 C730 1.375 . S
C1772 C823 1.887 . S
C1767 C37 1.821 . S
C1788 C896 1.937 . S
C1783 C49 1.820 . S
C1799 C8 2.157 . S
C1804 C991 2.151 . S
C1820 C392 1.763 . S
C1815 C231 1.763 . S
C1831 C241 0.990 . S
C1836 C478 0.976 . S
C1852 C560 1.178 . S
C1847 C273 1.203 . S
C1868 C655 1.639 . S
C1863 C171 1.630 1_556 S
C1879 C227 1.621 . S
C1884 C739 1.634 . S
C1900 C812 1.198 . S
C1895 C245 1.123 . S
C1916 C898 0.999 . S
C1911 C269 0.979 . S
C1932 C980 1.728 . S
C1927 C175 1.765 . S
C1948 C394 1.047 . S
C1943 C162 1.139 . S
C1959 C289 1.714 . S
C1964 C1064 1.677 . S
C1980 C1150 1.337 . S
C1975 C330 1.430 . S
C1996 C1243 0.845 . S
C1991 C317 0.833 . S
C2007 C120 1.043 . S
C2012 C982 1.090 . S
C2023 C134 1.391 . S
C2028 C562 1.368 . S
C2039 C331 1.664 . S
C2044 C1316 1.677 . S
C2060 C1411 0.800 . S
C2055 C303 0.768 . S
C2076 C391 2.247 . S
C2071 C59 2.199 . S
C2092 C1412 1.967 . S
C2087 C107 1.947 . S
C2103 C91 1.933 . S
C2108 C559 1.963 . S
C2119 C78 1.496 . S
C2124 C1330 1.375 . S
C2140 C742 1.437 . S
C2135 C7 1.506 . S
C2151 C51 1.861 . S
C2156 C1147 1.929 . S
C2172 C908 1.976 1_556 S
C2167 C31 1.964 . S
C2188 C1483 2.192 . S
C2183 C22 2.178 . S
C2204 C404 1.783 . S
C2199 C143 1.821 . S
C2220 C1414 0.879 . S
C2215 C315 0.988 . S
C2231 C115 1.251 . S
C2236 C572 1.249 . S
C2247 C287 1.671 . S
C2252 C1315 1.684 . S
C2263 C147 1.641 . S
C2268 C727 1.675 . S
C2284 C1160 1.250 . S
C2279 C311 1.267 . S
C2295 C119 0.985 . S
C2300 C910 0.872 . S
C2311 C283 1.809 . S
C2316 C1496 1.764 . S
C2327 C190 1.052 . S
C2332 C406 1.126 . S
C2343 C177 1.731 . S
C2348 C1076 1.730 . S
C2359 C260 1.374 . S
C2364 C826 1.356 . S
C2375 C247 0.921 . S
C2380 C1231 0.890 . S
C2396 C1498 1.071 . S
C2391 C274 1.032 . S
C2407 C218 1.386 . S
C2412 C574 1.371 . S
C2428 C656 1.679 . S
C2423 C261 1.708 . S
C2444 C475 0.832 . S
C2439 C205 0.791 . S
C2455 C77 2.231 . S
C2460 C1579 2.219 . S
C2476 C1400 1.927 . S
C2471 C93 1.922 . S
C2487 C101 1.886 . S
C2492 C1663 1.927 . S
C2503 C64 1.434 1_655 S
C2508 C1318 1.346 . S
C2519 C45 1.513 . S
C2524 C1066 1.429 . S
C2540 C1159 1.888 . S
C2535 C9 1.824 . S
C2556 C1232 1.919 . S
C2551 C21 1.839 . S
C2572 C1495 2.148 . S
C2567 C36 2.152 . S
C2588 C1568 1.735 . S
C2583 C259 1.777 . S
C2599 C185 0.962 . S
C2604 C1402 0.865 . S
C2620 C1652 1.181 . S
C2615 C203 1.205 . S
C2636 C1327 1.634 . S
C2631 C213 1.632 . S
C2652 C1075 1.621 . S
C2647 C255 1.620 . S
C2663 C189 1.109 . S
C2668 C1148 1.229 . S
C2684 C1234 0.938 . S
C2679 C199 0.985 . S
C2695 C217 1.762 . S
C2700 C1484 1.771 . S
C2716 C1570 1.061 . S
C2711 C316 1.138 . S
C2727 C135 1.699 . S
C2732 C728 1.697 . S
C2748 C814 1.318 . S
C2743 C148 1.398 1_565 S
C2764 C907 0.853 . S
C2759 C163 0.816 . S
C2780 C1486 1.018 . S
C2775 C302 1.108 . S
C2791 C288 1.412 . S
C2796 C1654 1.408 . S
C2812 C644 1.663 . S
C2807 C149 1.674 . S
C2828 C487 0.784 . S
C2823 C121 0.817 . S
C2839 C87 2.234 . S
C2844 C1567 2.252 . S
C2860 C488 1.968 . S
C2855 C79 1.950 . S
C2871 C63 1.966 . S
C2876 C1651 1.975 . S
C2887 C106 1.454 . S
C2892 C658 1.423 . S
C2903 C35 1.452 . S
C2908 C1078 1.469 . S
C2924 C811 1.928 . S
C2919 C23 1.857 . S
C2935 C3 1.968 . S
C2940 C1244 1.965 . S
C2951 C50 2.145 . S
C2956 C979 2.175 . S
C2972 C1580 1.758 . S
C2967 C325 1.810 . S
C2983 C161 0.968 . S
C2988 C490 0.894 . S
C3004 C1664 1.210 1_655 S
C2999 C297 1.214 . S
C3015 C133 1.629 . S
C3020 C643 1.670 . S
C3031 C329 1.660 . S
C3036 C1063 1.673 . S
C3052 C824 1.248 . S
C3047 C157 1.271 . S
C3063 C301 1.024 . S
C3068 C1246 0.896 . S
C3084 C992 1.795 . S
C3079 C129 1.824 . S
C3100 C1582 1.103 . S
C3095 C246 1.064 . S
C3116 C740 1.739 1_565 S
C3111 C219 1.715 . S
C3127 C232 1.422 . S
C3132 C1162 1.316 . S
C3148 C895 0.887 . S
C3143 C191 0.847 . S
C3159 C204 1.083 . S
C3164 C994 1.062 . S
C3175 C176 1.437 . S
C3180 C1666 1.362 . S
C3196 C1328 1.683 . S
C3191 C233 1.694 . S
C3212 C1399 0.832 . S
C3207 C275 0.794 . S
