# Generated by pormake.
# Topology gar, (4,6)-cn, num edge types: 1
# Building blocks:
#     Node 0, Type 0, BuildingBlock: CEKHIL_clean_sbu_0, # of connection points: 4
#     Node 1, Type 0, BuildingBlock: CEKHIL_clean_sbu_0, # of connection points: 4
#     Node 2, Type 0, BuildingBlock: CEKHIL_clean_sbu_0, # of connection points: 4
#     Node 3, Type 0, BuildingBlock: CEKHIL_clean_sbu_0, # of connection points: 4
#     Node 4, Type 0, BuildingBlock: CEKHIL_clean_sbu_0, # of connection points: 4
#     Node 5, Type 0, BuildingBlock: CEKHIL_clean_sbu_0, # of connection points: 4
#     Node 6, Type 0, BuildingBlock: CEKHIL_clean_sbu_0, # of connection points: 4
#     Node 7, Type 0, BuildingBlock: CEKHIL_clean_sbu_0, # of connection points: 4
#     Node 8, Type 0, BuildingBlock: CEKHIL_clean_sbu_0, # of connection points: 4
#     Node 9, Type 0, BuildingBlock: CEKHIL_clean_sbu_0, # of connection points: 4
#     Node 10, Type 0, BuildingBlock: CEKHIL_clean_sbu_0, # of connection points: 4
#     Node 11, Type 0, BuildingBlock: CEKHIL_clean_sbu_0, # of connection points: 4
#     Node 12, Type 0, BuildingBlock: CEKHIL_clean_sbu_0, # of connection points: 4
#     Node 13, Type 0, BuildingBlock: CEKHIL_clean_sbu_0, # of connection points: 4
#     Node 14, Type 0, BuildingBlock: CEKHIL_clean_sbu_0, # of connection points: 4
#     Node 15, Type 0, BuildingBlock: CEKHIL_clean_sbu_0, # of connection points: 4
#     Node 16, Type 0, BuildingBlock: CEKHIL_clean_sbu_0, # of connection points: 4
#     Node 17, Type 0, BuildingBlock: CEKHIL_clean_sbu_0, # of connection points: 4
#     Node 18, Type 0, BuildingBlock: CEKHIL_clean_sbu_0, # of connection points: 4
#     Node 19, Type 0, BuildingBlock: CEKHIL_clean_sbu_0, # of connection points: 4
#     Node 20, Type 0, BuildingBlock: CEKHIL_clean_sbu_0, # of connection points: 4
#     Node 21, Type 0, BuildingBlock: CEKHIL_clean_sbu_0, # of connection points: 4
#     Node 22, Type 0, BuildingBlock: CEKHIL_clean_sbu_0, # of connection points: 4
#     Node 23, Type 0, BuildingBlock: CEKHIL_clean_sbu_0, # of connection points: 4
#     Node 24, Type 1, BuildingBlock: GEDQOX_clean_sbu_0, # of connection points: 6
#     Node 25, Type 1, BuildingBlock: GEDQOX_clean_sbu_0, # of connection points: 6
#     Node 26, Type 1, BuildingBlock: GEDQOX_clean_sbu_0, # of connection points: 6
#     Node 27, Type 1, BuildingBlock: GEDQOX_clean_sbu_0, # of connection points: 6
#     Node 28, Type 1, BuildingBlock: GEDQOX_clean_sbu_0, # of connection points: 6
#     Node 29, Type 1, BuildingBlock: GEDQOX_clean_sbu_0, # of connection points: 6
#     Node 30, Type 1, BuildingBlock: GEDQOX_clean_sbu_0, # of connection points: 6
#     Node 31, Type 1, BuildingBlock: GEDQOX_clean_sbu_0, # of connection points: 6
#     Node 32, Type 1, BuildingBlock: GEDQOX_clean_sbu_0, # of connection points: 6
#     Node 33, Type 1, BuildingBlock: GEDQOX_clean_sbu_0, # of connection points: 6
#     Node 34, Type 1, BuildingBlock: GEDQOX_clean_sbu_0, # of connection points: 6
#     Node 35, Type 1, BuildingBlock: GEDQOX_clean_sbu_0, # of connection points: 6
#     Node 36, Type 1, BuildingBlock: GEDQOX_clean_sbu_0, # of connection points: 6
#     Node 37, Type 1, BuildingBlock: GEDQOX_clean_sbu_0, # of connection points: 6
#     Node 38, Type 1, BuildingBlock: GEDQOX_clean_sbu_0, # of connection points: 6
#     Node 39, Type 1, BuildingBlock: GEDQOX_clean_sbu_0, # of connection points: 6
#     Edge 40, Type (0, 1), BuildingBlock: AJUNOK_clean_linker_0, # of connection points: 2
#     Edge 41, Type (0, 1), BuildingBlock: AJUNOK_clean_linker_0, # of connection points: 2
#     Edge 42, Type (0, 1), BuildingBlock: AJUNOK_clean_linker_0, # of connection points: 2
#     Edge 43, Type (0, 1), BuildingBlock: AJUNOK_clean_linker_0, # of connection points: 2
#     Edge 44, Type (0, 1), BuildingBlock: AJUNOK_clean_linker_0, # of connection points: 2
#     Edge 45, Type (0, 1), BuildingBlock: AJUNOK_clean_linker_0, # of connection points: 2
#     Edge 46, Type (0, 1), BuildingBlock: AJUNOK_clean_linker_0, # of connection points: 2
#     Edge 47, Type (0, 1), BuildingBlock: AJUNOK_clean_linker_0, # of connection points: 2
#     Edge 48, Type (0, 1), BuildingBlock: AJUNOK_clean_linker_0, # of connection points: 2
#     Edge 49, Type (0, 1), BuildingBlock: AJUNOK_clean_linker_0, # of connection points: 2
#     Edge 50, Type (0, 1), BuildingBlock: AJUNOK_clean_linker_0, # of connection points: 2
#     Edge 51, Type (0, 1), BuildingBlock: AJUNOK_clean_linker_0, # of connection points: 2
#     Edge 52, Type (0, 1), BuildingBlock: AJUNOK_clean_linker_0, # of connection points: 2
#     Edge 53, Type (0, 1), BuildingBlock: AJUNOK_clean_linker_0, # of connection points: 2
#     Edge 54, Type (0, 1), BuildingBlock: AJUNOK_clean_linker_0, # of connection points: 2
#     Edge 55, Type (0, 1), BuildingBlock: AJUNOK_clean_linker_0, # of connection points: 2
#     Edge 56, Type (0, 1), BuildingBlock: AJUNOK_clean_linker_0, # of connection points: 2
#     Edge 57, Type (0, 1), BuildingBlock: AJUNOK_clean_linker_0, # of connection points: 2
#     Edge 58, Type (0, 1), BuildingBlock: AJUNOK_clean_linker_0, # of connection points: 2
#     Edge 59, Type (0, 1), BuildingBlock: AJUNOK_clean_linker_0, # of connection points: 2
#     Edge 60, Type (0, 1), BuildingBlock: AJUNOK_clean_linker_0, # of connection points: 2
#     Edge 61, Type (0, 1), BuildingBlock: AJUNOK_clean_linker_0, # of connection points: 2
#     Edge 62, Type (0, 1), BuildingBlock: AJUNOK_clean_linker_0, # of connection points: 2
#     Edge 63, Type (0, 1), BuildingBlock: AJUNOK_clean_linker_0, # of connection points: 2
#     Edge 64, Type (0, 1), BuildingBlock: AJUNOK_clean_linker_0, # of connection points: 2
#     Edge 65, Type (0, 1), BuildingBlock: AJUNOK_clean_linker_0, # of connection points: 2
#     Edge 66, Type (0, 1), BuildingBlock: AJUNOK_clean_linker_0, # of connection points: 2
#     Edge 67, Type (0, 1), BuildingBlock: AJUNOK_clean_linker_0, # of connection points: 2
#     Edge 68, Type (0, 1), BuildingBlock: AJUNOK_clean_linker_0, # of connection points: 2
#     Edge 69, Type (0, 1), BuildingBlock: AJUNOK_clean_linker_0, # of connection points: 2
#     Edge 70, Type (0, 1), BuildingBlock: AJUNOK_clean_linker_0, # of connection points: 2
#     Edge 71, Type (0, 1), BuildingBlock: AJUNOK_clean_linker_0, # of connection points: 2
#     Edge 72, Type (0, 1), BuildingBlock: AJUNOK_clean_linker_0, # of connection points: 2
#     Edge 73, Type (0, 1), BuildingBlock: AJUNOK_clean_linker_0, # of connection points: 2
#     Edge 74, Type (0, 1), BuildingBlock: AJUNOK_clean_linker_0, # of connection points: 2
#     Edge 75, Type (0, 1), BuildingBlock: AJUNOK_clean_linker_0, # of connection points: 2
#     Edge 76, Type (0, 1), BuildingBlock: AJUNOK_clean_linker_0, # of connection points: 2
#     Edge 77, Type (0, 1), BuildingBlock: AJUNOK_clean_linker_0, # of connection points: 2
#     Edge 78, Type (0, 1), BuildingBlock: AJUNOK_clean_linker_0, # of connection points: 2
#     Edge 79, Type (0, 1), BuildingBlock: AJUNOK_clean_linker_0, # of connection points: 2
#     Edge 80, Type (0, 1), BuildingBlock: AJUNOK_clean_linker_0, # of connection points: 2
#     Edge 81, Type (0, 1), BuildingBlock: AJUNOK_clean_linker_0, # of connection points: 2
#     Edge 82, Type (0, 1), BuildingBlock: AJUNOK_clean_linker_0, # of connection points: 2
#     Edge 83, Type (0, 1), BuildingBlock: AJUNOK_clean_linker_0, # of connection points: 2
#     Edge 84, Type (0, 1), BuildingBlock: AJUNOK_clean_linker_0, # of connection points: 2
#     Edge 85, Type (0, 1), BuildingBlock: AJUNOK_clean_linker_0, # of connection points: 2
#     Edge 86, Type (0, 1), BuildingBlock: AJUNOK_clean_linker_0, # of connection points: 2
#     Edge 87, Type (0, 1), BuildingBlock: AJUNOK_clean_linker_0, # of connection points: 2
#     Edge 88, Type (0, 1), BuildingBlock: AJUNOK_clean_linker_0, # of connection points: 2
#     Edge 89, Type (0, 1), BuildingBlock: AJUNOK_clean_linker_0, # of connection points: 2
#     Edge 90, Type (0, 1), BuildingBlock: AJUNOK_clean_linker_0, # of connection points: 2
#     Edge 91, Type (0, 1), BuildingBlock: AJUNOK_clean_linker_0, # of connection points: 2
#     Edge 92, Type (0, 1), BuildingBlock: AJUNOK_clean_linker_0, # of connection points: 2
#     Edge 93, Type (0, 1), BuildingBlock: AJUNOK_clean_linker_0, # of connection points: 2
#     Edge 94, Type (0, 1), BuildingBlock: AJUNOK_clean_linker_0, # of connection points: 2
#     Edge 95, Type (0, 1), BuildingBlock: AJUNOK_clean_linker_0, # of connection points: 2
#     Edge 96, Type (0, 1), BuildingBlock: AJUNOK_clean_linker_0, # of connection points: 2
#     Edge 97, Type (0, 1), BuildingBlock: AJUNOK_clean_linker_0, # of connection points: 2
#     Edge 98, Type (0, 1), BuildingBlock: AJUNOK_clean_linker_0, # of connection points: 2
#     Edge 99, Type (0, 1), BuildingBlock: AJUNOK_clean_linker_0, # of connection points: 2
#     Edge 100, Type (0, 1), BuildingBlock: AJUNOK_clean_linker_0, # of connection points: 2
#     Edge 101, Type (0, 1), BuildingBlock: AJUNOK_clean_linker_0, # of connection points: 2
#     Edge 102, Type (0, 1), BuildingBlock: AJUNOK_clean_linker_0, # of connection points: 2
#     Edge 103, Type (0, 1), BuildingBlock: AJUNOK_clean_linker_0, # of connection points: 2
#     Edge 104, Type (0, 1), BuildingBlock: AJUNOK_clean_linker_0, # of connection points: 2
#     Edge 105, Type (0, 1), BuildingBlock: AJUNOK_clean_linker_0, # of connection points: 2
#     Edge 106, Type (0, 1), BuildingBlock: AJUNOK_clean_linker_0, # of connection points: 2
#     Edge 107, Type (0, 1), BuildingBlock: AJUNOK_clean_linker_0, # of connection points: 2
#     Edge 108, Type (0, 1), BuildingBlock: AJUNOK_clean_linker_0, # of connection points: 2
#     Edge 109, Type (0, 1), BuildingBlock: AJUNOK_clean_linker_0, # of connection points: 2
#     Edge 110, Type (0, 1), BuildingBlock: AJUNOK_clean_linker_0, # of connection points: 2
#     Edge 111, Type (0, 1), BuildingBlock: AJUNOK_clean_linker_0, # of connection points: 2
#     Edge 112, Type (0, 1), BuildingBlock: AJUNOK_clean_linker_0, # of connection points: 2
#     Edge 113, Type (0, 1), BuildingBlock: AJUNOK_clean_linker_0, # of connection points: 2
#     Edge 114, Type (0, 1), BuildingBlock: AJUNOK_clean_linker_0, # of connection points: 2
#     Edge 115, Type (0, 1), BuildingBlock: AJUNOK_clean_linker_0, # of connection points: 2
#     Edge 116, Type (0, 1), BuildingBlock: AJUNOK_clean_linker_0, # of connection points: 2
#     Edge 117, Type (0, 1), BuildingBlock: AJUNOK_clean_linker_0, # of connection points: 2
#     Edge 118, Type (0, 1), BuildingBlock: AJUNOK_clean_linker_0, # of connection points: 2
#     Edge 119, Type (0, 1), BuildingBlock: AJUNOK_clean_linker_0, # of connection points: 2
#     Edge 120, Type (0, 1), BuildingBlock: AJUNOK_clean_linker_0, # of connection points: 2
#     Edge 121, Type (0, 1), BuildingBlock: AJUNOK_clean_linker_0, # of connection points: 2
#     Edge 122, Type (0, 1), BuildingBlock: AJUNOK_clean_linker_0, # of connection points: 2
#     Edge 123, Type (0, 1), BuildingBlock: AJUNOK_clean_linker_0, # of connection points: 2
#     Edge 124, Type (0, 1), BuildingBlock: AJUNOK_clean_linker_0, # of connection points: 2
#     Edge 125, Type (0, 1), BuildingBlock: AJUNOK_clean_linker_0, # of connection points: 2
#     Edge 126, Type (0, 1), BuildingBlock: AJUNOK_clean_linker_0, # of connection points: 2
#     Edge 127, Type (0, 1), BuildingBlock: AJUNOK_clean_linker_0, # of connection points: 2
#     Edge 128, Type (0, 1), BuildingBlock: AJUNOK_clean_linker_0, # of connection points: 2
#     Edge 129, Type (0, 1), BuildingBlock: AJUNOK_clean_linker_0, # of connection points: 2
#     Edge 130, Type (0, 1), BuildingBlock: AJUNOK_clean_linker_0, # of connection points: 2
#     Edge 131, Type (0, 1), BuildingBlock: AJUNOK_clean_linker_0, # of connection points: 2
#     Edge 132, Type (0, 1), BuildingBlock: AJUNOK_clean_linker_0, # of connection points: 2
#     Edge 133, Type (0, 1), BuildingBlock: AJUNOK_clean_linker_0, # of connection points: 2
#     Edge 134, Type (0, 1), BuildingBlock: AJUNOK_clean_linker_0, # of connection points: 2
#     Edge 135, Type (0, 1), BuildingBlock: AJUNOK_clean_linker_0, # of connection points: 2
# Relax obj value: 0.349
# Max RMSD: 0.517
# Mean RMSD: 0.187
data_MOF--net-gar--node1-CEKHIL_clean_sbu_0--node2-GEDQOX_clean_sbu_0--edge1-AJUNOK_clean_linker_0
_symmetry_space_group_name_H-M    P1
_symmetry_Int_Tables_number       1
_symmetry_cell_setting            triclinic
loop_
_symmetry_equiv_pos_as_xyz
'x, y, z'
_cell_length_a     44.997645
_cell_length_b     43.457778
_cell_length_c     37.969152
_cell_angle_alpha  99.557365
_cell_angle_beta   96.885608
_cell_angle_gamma 95.592657
loop_
_atom_site_label
_atom_site_type_symbol
_atom_site_fract_x
_atom_site_fract_y
_atom_site_fract_z
_atom_type_partial_charge
Co0 Co 0.18808 0.42695 0.53525 0.0
O1 O 0.22107 0.40464 0.51998 0.0
O2 O 0.17734 0.40548 0.48647 0.0
C3 C 0.21351 0.47389 0.56326 0.0
O4 O 0.14942 0.4464 0.53747 0.0
Co5 Co 0.17719 0.45042 0.61338 0.0
O6 O 0.14001 0.46615 0.59268 0.0
C7 C 0.16521 0.38323 0.58326 0.0
C8 C 0.20335 0.3952 0.48943 0.0
C9 C 0.13299 0.4606 0.55858 0.0
O10 O 0.16972 0.38904 0.55215 0.0
O11 O 0.16999 0.40415 0.61191 0.0
O12 O 0.2084 0.46665 0.52818 0.0
O13 O 0.20685 0.451 0.57985 0.0
Co14 Co 1.02893 0.79499 0.67387 0.0
O15 O 0.99224 0.80099 0.69323 0.0
O16 O 1.03005 0.78 0.71916 0.0
C17 C 1.03881 0.84319 0.66131 0.0
O18 O 0.07069 0.7868 0.66391 0.0
Co19 Co 1.03637 0.80045 0.59438 0.0
O20 O 0.0802 0.80295 0.61267 0.0
C21 C 1.00707 0.74156 0.6103 0.0
C22 C 1.00442 0.79111 0.72147 0.0
C23 C 0.08876 0.7934 0.64181 0.0
O24 O 1.01226 0.75248 0.64454 0.0
O25 O 1.01135 0.75854 0.58642 0.0
O26 O 1.04461 0.8384 0.69411 0.0
O27 O 1.02354 0.82002 0.63856 0.0
Co28 Co 0.68481 0.93285 1.00893 0.0
O29 O 0.71623 0.91237 0.98743 0.0
O30 O 0.67321 0.9206 0.95772 0.0
C31 C 0.713 0.97486 0.04568 0.0
O32 O 0.64722 0.95272 0.01873 0.0
Co33 Co 0.6777 0.94275 0.09017 0.0
O34 O 0.64122 0.96295 0.07706 0.0
C35 C 0.66001 0.88045 0.04495 0.0
C36 C 0.6986 0.90898 0.9568 0.0
C37 C 0.6323 0.96309 0.044 0.0
O38 O 0.66488 0.89124 1.01638 0.0
O39 O 0.66585 0.89651 0.07684 0.0
O40 O 0.7068 0.97426 1.01116 0.0
O41 O 0.70552 0.94857 0.05579 0.0
Co42 Co 0.52341 0.29673 0.18675 0.0
O43 O 0.48593 0.29454 0.20631 0.0
O44 O 0.52867 0.2812 0.23119 0.0
C45 C 0.52408 0.34556 0.17459 0.0
O46 O 0.56688 0.29803 0.17889 0.0
Co47 Co 0.53179 0.30568 0.10902 0.0
O48 O 0.5751 0.31818 0.12981 0.0
C49 C 0.51249 0.24226 0.12302 0.0
C50 C 0.50143 0.28737 0.23451 0.0
C51 C 0.58456 0.31047 0.15974 0.0
O52 O 0.51424 0.25311 0.1571 0.0
O53 O 0.51604 0.25992 0.09962 0.0
O54 O 0.53089 0.34114 0.20739 0.0
O55 O 0.51322 0.32065 0.15119 0.0
Co56 Co 0.09852 0.83945 0.27369 0.0
O57 O 1.05442 0.8331 0.2598 0.0
O58 O 0.07462 0.83272 0.3142 0.0
C59 C 0.10092 0.88171 0.24421 0.0
O60 O 0.14521 0.84576 0.29762 0.0
Co61 Co 0.14223 0.84112 0.21676 0.0
O62 O 0.17515 0.85669 0.25656 0.0
C63 C 0.11237 0.7798 0.22875 0.0
C64 C 1.0497 0.83128 0.2922 0.0
C65 C 0.17204 0.8531 0.2885 0.0
O66 O 0.10074 0.79276 0.25635 0.0
O67 O 0.12723 0.7954 0.20942 0.0
O68 O 0.09664 0.88537 0.27781 0.0
O69 O 0.10494 0.85364 0.2305 0.0
Co70 Co 0.62573 0.88434 0.41333 0.0
O71 O 0.66993 0.89126 0.42728 0.0
O72 O 0.64958 0.87096 0.37279 0.0
C73 C 0.6179 0.93269 0.44266 0.0
O74 O 0.57893 0.8753 0.38958 0.0
Co75 Co 0.58308 0.8863 0.4729 0.0
O76 O 0.54973 0.88542 0.43386 0.0
C77 C 0.61991 0.834 0.45969 0.0
C78 C 0.67456 0.87981 0.39506 0.0
C79 C 0.55242 0.87844 0.40059 0.0
O80 O 0.6258 0.84177 0.42954 0.0
O81 O 0.60538 0.85011 0.48157 0.0
O82 O 0.62564 0.92953 0.41041 0.0
O83 O 0.61692 0.90746 0.45612 0.0
Co84 Co 0.59687 0.33923 0.77842 0.0
O85 O 0.55286 0.33382 0.76415 0.0
O86 O 0.57255 0.33362 0.81884 0.0
C87 C 0.60214 0.38105 0.74858 0.0
O88 O 0.64345 0.34514 0.80261 0.0
Co89 Co 0.64053 0.33693 0.72052 0.0
O90 O 0.67307 0.35387 0.76037 0.0
C91 C 0.60826 0.2778 0.73425 0.0
C92 C 0.54782 0.3324 0.79655 0.0
C93 C 0.67016 0.35189 0.79285 0.0
O94 O 0.59792 0.29211 0.76216 0.0
O95 O 0.62327 0.29199 0.71388 0.0
O96 O 0.59624 0.38525 0.7816 0.0
O97 O 0.60468 0.35247 0.73529 0.0
Co98 Co 0.12333 0.38081 0.91409 0.0
O99 O 0.1676 0.38845 0.9278 0.0
O100 O 0.14684 0.36703 0.87365 0.0
C101 C 0.11418 0.42913 0.9416 0.0
O102 O 0.07653 0.37111 0.89061 0.0
Co103 Co 0.08179 0.38172 0.9742 0.0
O104 O 1.04738 0.37694 0.93545 0.0
C105 C 0.12312 0.334 0.964 0.0
C106 C 0.17191 0.37652 0.89559 0.0
C107 C 1.04995 0.37189 0.90204 0.0
O108 O 0.12431 0.33875 0.93142 0.0
O109 O 0.11011 0.35126 0.98656 0.0
O110 O 0.12242 0.42549 0.90962 0.0
O111 O 0.11418 0.40457 0.95636 0.0
Co112 Co 0.52013 0.18241 0.3652 0.0
O113 O 0.51698 0.22616 0.36093 0.0
O114 O 0.48142 0.18699 0.33849 0.0
C115 C 0.53825 0.18941 0.42529 0.0
O116 O 0.51239 0.13592 0.36626 0.0
Co117 Co 0.5798 0.15516 0.38792 0.0
O118 O 0.55151 0.12117 0.39914 0.0
C119 C 0.56467 0.16361 0.31239 0.0
C120 C 0.48976 0.21702 0.34424 0.0
C121 C 0.52405 0.11668 0.38467 0.0
O122 O 0.5389 0.17274 0.31859 0.0
O123 O 0.58448 0.15822 0.337 0.0
O124 O 0.50992 0.19068 0.41452 0.0
O125 O 0.55509 0.18839 0.39998 0.0
Co126 Co 0.30364 0.16958 0.47938 0.0
O127 O 0.34615 0.16822 0.47895 0.0
O128 O 0.31174 0.12648 0.46771 0.0
C129 C 0.30168 0.21033 0.44928 0.0
O130 O 0.25809 0.16098 0.47849 0.0
Co131 Co 0.27668 0.22858 0.51449 0.0
O132 O 0.23694 0.20453 0.49648 0.0
C133 C 0.30073 0.1833 0.55865 0.0
C134 C 0.34005 0.13783 0.47225 0.0
C135 C 0.23516 0.17493 0.48649 0.0
O136 O 0.3084 0.16594 0.53142 0.0
O137 O 0.28937 0.20906 0.55732 0.0
O138 O 0.3001 0.18169 0.43167 0.0
O139 O 0.30518 0.21344 0.48383 0.0
Co140 Co 0.25325 0.08735 0.86623 0.0
O141 O 0.24721 0.03951 0.8605 0.0
O142 O 0.28995 0.06459 0.85773 0.0
C143 C 0.22503 0.09605 0.91722 0.0
O144 O 0.27318 0.13614 0.86939 0.0
Co145 Co 0.2063 0.13432 0.86618 0.0
O146 O 0.23873 0.17002 0.87438 0.0
C147 C 0.21518 0.09618 0.79616 0.0
C148 C 0.27525 0.03707 0.85638 0.0
C149 C 0.26584 0.16513 0.87154 0.0
O150 O 0.23848 0.08506 0.81141 0.0
O151 O 0.19898 0.11376 0.81416 0.0
O152 O 0.25307 0.09032 0.92076 0.0
O153 O 0.21541 0.09677 0.88417 0.0
Co154 Co 0.27994 0.93688 0.07627 0.0
O155 O 0.23778 0.94142 0.08127 0.0
O156 O 0.27488 0.98 0.09643 0.0
C157 C 0.27487 0.90828 0.01853 0.0
O158 O 0.32464 0.9436 0.07457 0.0
Co159 Co 0.30647 0.87268 0.06493 0.0
O160 O 0.34297 0.89829 0.05628 0.0
C161 C 0.29613 0.90112 0.13797 0.0
C162 C 0.24624 0.97114 0.09405 0.0
C163 C 0.34613 0.92814 0.06517 0.0
O164 O 0.28851 0.92624 0.12687 0.0
O165 O 0.30116 0.87663 0.11682 0.0
O166 O 0.2729 0.93834 0.02413 0.0
O167 O 0.27534 0.89614 0.04736 0.0
Co168 Co 0.39566 0.52952 0.18187 0.0
O169 O 0.35299 0.52684 0.17924 0.0
O170 O 0.38478 0.55823 0.22221 0.0
C171 C 0.39693 0.53526 0.12469 0.0
O172 O 0.44167 0.53867 0.19008 0.0
Co173 Co 0.4205 0.47573 0.13223 0.0
O174 O 0.45855 0.50381 0.14813 0.0
C175 C 0.39816 0.46303 0.19838 0.0
C176 C 0.35703 0.54924 0.20699 0.0
C177 C 0.46281 0.52796 0.17313 0.0
O178 O 0.39574 0.4925 0.20857 0.0
O179 O 0.40495 0.45155 0.16757 0.0
O180 O 0.39531 0.55968 0.14871 0.0
O181 O 0.39435 0.50844 0.13505 0.0
Co182 Co 0.94853 0.27375 0.08607 0.0
O183 O 0.99155 0.26976 0.08834 0.0
O184 O 0.95741 0.2326 0.09579 0.0
C185 C 0.94194 0.29298 0.03352 0.0
O186 O 0.9032 0.26678 0.08287 0.0
Co187 Co 0.92116 0.33748 0.08587 0.0
O188 O 0.88265 0.30943 0.07001 0.0
C189 C 0.94427 0.32044 0.15584 0.0
C190 C 0.98524 0.24067 0.09193 0.0
C191 C 0.88034 0.28073 0.07384 0.0
O192 O 0.95079 0.29331 0.14019 0.0
O193 O 0.93556 0.34142 0.13828 0.0
O194 O 0.94397 0.26334 0.03311 0.0
O195 O 0.94809 0.31028 0.06509 0.0
Co196 Co 0.19963 0.53114 0.34456 0.0
O197 O 0.19849 0.48621 0.34586 0.0
O198 O 0.23816 0.51682 0.33734 0.0
C199 C 0.17763 0.54608 0.39451 0.0
O200 O 0.21224 0.57628 0.34218 0.0
Co201 Co 0.14445 0.56895 0.33725 0.0
O202 O 0.17457 0.60593 0.33729 0.0
C203 C 0.15936 0.52879 0.27348 0.0
C204 C 0.2269 0.48935 0.34164 0.0
C205 C 0.20241 0.6023 0.33826 0.0
O206 O 0.18477 0.52413 0.29062 0.0
O207 O 0.13822 0.53984 0.28949 0.0
O208 O 0.20584 0.54131 0.39744 0.0
O209 O 0.16314 0.53897 0.36234 0.0
Co210 Co 0.89317 1.03454 0.68721 0.0
O211 O 0.85232 0.03744 0.69374 0.0
O212 O 0.89089 0.06657 0.72936 0.0
C213 C 0.88547 0.03761 0.62877 0.0
O214 O 0.93868 0.03679 0.68498 0.0
Co215 Co 0.90325 0.9752 0.63287 0.0
O216 O 0.94429 0.99794 0.63942 0.0
C217 C 0.8889 0.96855 0.70486 0.0
C218 C 0.86174 0.06016 0.72034 0.0
C219 C 0.9549 1.0218 0.6636 0.0
O220 O 0.8937 0.99868 0.71548 0.0
O221 O 0.88834 0.95522 0.67208 0.0
O222 O 0.89075 0.0633 0.65241 0.0
O223 O 0.88252 1.01182 0.64118 0.0
Co224 Co 0.96584 0.11447 0.33268 0.0
O225 O 0.97309 0.16233 0.34073 0.0
O226 O 0.9303 0.13704 0.31686 0.0
C227 C 0.98872 0.11045 0.39023 0.0
O228 O 0.94475 0.06564 0.32471 0.0
Co229 Co 1.01208 0.0669 0.33899 0.0
O230 O 0.97874 1.03399 0.34082 0.0
C231 C 1.01135 0.09952 0.27595 0.0
C232 C 0.94519 0.16472 0.32902 0.0
C233 C 0.95143 0.03797 0.33173 0.0
O234 O 0.98563 0.11024 0.28308 0.0
O235 O 1.02558 0.08441 0.29736 0.0
O236 O 0.96146 0.11806 0.38528 0.0
O237 O 1.00104 0.10673 0.36134 0.0
Co238 Co 0.44747 0.7708 0.58261 0.0
O239 O 0.49078 0.76789 0.5849 0.0
O240 O 0.45742 0.72953 0.59105 0.0
C241 C 0.44053 0.79113 0.53065 0.0
O242 O 0.40209 0.76283 0.5793 0.0
Co243 Co 0.41907 0.83407 0.58449 0.0
O244 O 0.38101 0.80547 0.56768 0.0
C245 C 0.44281 0.81613 0.65352 0.0
C246 C 0.48518 0.73851 0.58768 0.0
C247 C 0.37893 0.77665 0.57095 0.0
O248 O 0.44935 0.78927 0.6371 0.0
O249 O 0.43372 0.83745 0.63679 0.0
O250 O 0.44311 0.76151 0.52953 0.0
O251 O 0.44628 0.80786 0.56259 0.0
Co252 Co 0.46757 0.61588 0.83598 0.0
O253 O 0.47479 0.66354 0.84349 0.0
O254 O 0.43158 0.63832 0.82119 0.0
C255 C 0.49273 0.6131 0.893 0.0
O256 O 0.4469 0.56673 0.82828 0.0
Co257 Co 0.51434 0.56886 0.84112 0.0
O258 O 0.48163 0.53624 0.84514 0.0
C259 C 0.5129 0.60286 0.77929 0.0
C260 C 0.44676 0.66597 0.83255 0.0
C261 C 0.45415 0.53935 0.83571 0.0
O262 O 0.48653 0.612 0.78613 0.0
O263 O 0.52756 0.58776 0.80031 0.0
O264 O 0.4651 0.61989 0.88928 0.0
O265 O 0.50359 0.60885 0.8632 0.0
Co266 Co 0.6981 1.02667 0.85019 0.0
O267 O 0.69769 0.98198 0.85184 0.0
O268 O 0.73549 1.01209 0.83808 0.0
C269 C 0.68011 0.04125 0.90291 0.0
O270 O 0.70941 0.07206 0.84755 0.0
Co271 Co 0.64168 0.063 0.84895 0.0
O272 O 0.6711 0.10109 0.85152 0.0
C273 C 0.65474 1.02647 0.78135 0.0
C274 C 0.72512 0.98482 0.84407 0.0
C275 C 0.69868 0.09836 0.84844 0.0
O276 O 0.67997 1.01995 0.79712 0.0
O277 O 0.63465 0.03843 0.79856 0.0
O278 O 0.70827 0.03688 0.90287 0.0
O279 O 0.66335 1.03387 0.8721 0.0
Co280 Co 0.80863 0.6672 0.96751 0.0
O281 O 0.84858 0.66537 0.95497 0.0
O282 O 0.81993 0.62583 0.96859 0.0
C283 C 0.79315 0.69414 0.92463 0.0
O284 O 0.76684 0.65966 0.98217 0.0
Co285 Co 0.78323 0.73043 0.99177 0.0
O286 O 0.74511 0.70408 0.99342 0.0
C287 C 0.83635 0.71063 0.03204 0.0
C288 C 0.84596 0.63677 0.96119 0.0
C289 C 0.74454 0.67441 0.99063 0.0
O290 O 0.82691 0.68173 0.01891 0.0
O291 O 0.82393 0.73347 0.02156 0.0
O292 O 0.79236 0.66369 0.91628 0.0
O293 O 0.80403 0.70654 0.95712 0.0
Co294 Co 1.01661 0.67848 0.85758 0.0
O295 O 1.01218 0.7219 0.85237 0.0
O296 O 0.97738 0.68174 0.83133 0.0
C297 C 1.03544 0.68613 0.91754 0.0
O298 O 1.01022 0.63201 0.8594 0.0
Co299 Co 0.07756 0.65314 0.87923 0.0
O300 O 1.05059 0.61859 0.89149 0.0
C301 C 0.06071 0.66099 0.80392 0.0
C302 C 0.98506 0.71182 0.83585 0.0
C303 C 1.02298 0.61322 0.87752 0.0
O304 O 1.03477 0.66912 0.81067 0.0
O305 O 0.08127 0.6561 0.82798 0.0
O306 O 1.00693 0.68682 0.90712 0.0
O307 O 1.05199 0.6855 0.89195 0.0
Co308 Co 0.77995 0.43753 0.57862 0.0
O309 O 0.7377 0.44167 0.58405 0.0
O310 O 0.77447 0.48024 0.60092 0.0
C311 C 0.7745 0.41056 0.51987 0.0
O312 O 0.82479 0.44471 0.57667 0.0
Co313 Co 0.80646 0.37336 0.56271 0.0
O314 O 0.84223 0.39996 0.55391 0.0
C315 C 0.79743 0.3991 0.63746 0.0
C316 C 0.7458 0.4712 0.59804 0.0
C317 C 0.84581 0.4296 0.56492 0.0
O318 O 0.7888 0.42464 0.62821 0.0
O319 O 0.80242 0.37569 0.61461 0.0
O320 O 0.77276 0.44065 0.52671 0.0
O321 O 0.77515 0.39761 0.54803 0.0
Co322 Co 0.75775 0.58951 0.36849 0.0
O323 O 0.75268 0.54176 0.36273 0.0
O324 O 0.79489 0.56785 0.35958 0.0
C325 C 0.73032 0.59663 0.41976 0.0
O326 O 0.77626 0.63858 0.37158 0.0
Co327 Co 0.70921 0.63488 0.3706 0.0
O328 O 0.74104 0.67118 0.37958 0.0
C329 C 0.71882 0.59855 0.29967 0.0
C330 C 0.78079 0.54008 0.35858 0.0
C331 C 0.76805 0.66721 0.37494 0.0
O332 O 0.74245 0.58748 0.31412 0.0
O333 O 0.70236 0.61529 0.31829 0.0
O334 O 0.75875 0.59232 0.42278 0.0
O335 O 0.71986 0.59726 0.38699 0.0
Nd336 Nd 0.13548 0.12761 0.10341 0.0
Nd337 Nd 0.09446 0.0804 0.08489 0.0
C338 C 0.17547 0.17815 0.11985 0.0
C339 C 0.17773 0.20251 0.0966 0.0
C340 C 0.17058 0.23286 0.10876 0.0
C341 C 0.16594 0.25372 0.08469 0.0
C342 C 0.16799 0.2446 0.04777 0.0
C343 C 0.17671 0.21489 0.03593 0.0
C344 C 0.18169 0.19417 0.06006 0.0
C345 C 0.1384 0.10669 0.02962 0.0
C346 C 0.07145 0.14717 0.07671 0.0
C347 C 1.05491 1.02951 0.06886 0.0
C348 C 1.05367 1.00473 0.09182 0.0
C349 C 0.06609 0.97665 0.08197 0.0
C350 C 0.07145 0.95659 0.10681 0.0
C351 C 0.06499 0.96416 0.14247 0.0
C352 C 1.05031 0.99099 0.15135 0.0
C353 C 1.04479 1.011 0.12645 0.0
C354 C 0.09181 0.10033 0.1585 0.0
C355 C 0.15845 0.06156 0.1136 0.0
O356 O 0.15091 0.17587 0.1347 0.0
O357 O 0.18253 0.15055 0.10694 0.0
O358 O 0.13266 0.13432 0.0435 0.0
O359 O 0.13525 0.08922 0.05319 0.0
O360 O 0.09677 0.15713 0.09782 0.0
O361 O 0.06635 0.11708 0.06172 0.0
O362 O 0.07879 1.03244 0.05279 0.0
O363 O 1.04783 0.05684 0.08266 0.0
O364 O 0.09804 0.07303 0.14416 0.0
O365 O 0.09483 0.11839 0.13546 0.0
O366 O 0.13361 0.05144 0.09154 0.0
O367 O 0.16311 0.09165 0.12844 0.0
H368 H 0.16706 0.2399 0.13654 0.0
H369 H 0.15926 0.27649 0.09465 0.0
H370 H 0.17905 0.20741 1.00784 0.0
H371 H 0.18726 0.17104 0.04955 0.0
H372 H 0.07312 0.97095 0.05559 0.0
H373 H 0.08206 0.9358 0.0984 0.0
H374 H 1.04341 0.99689 0.17774 0.0
H375 H 1.03475 1.03215 0.13502 0.0
Nd376 Nd 0.36705 0.89026 0.36327 0.0
Nd377 Nd 0.35529 0.83218 0.32566 0.0
C378 C 0.37232 0.94543 0.40697 0.0
C379 C 0.39795 0.96947 0.42081 0.0
C380 C 0.39256 1.00066 0.43104 0.0
C381 C 0.41538 1.02508 0.43215 0.0
C382 C 0.44362 1.01845 0.42266 0.0
C383 C 0.44999 0.9872 0.41659 0.0
C384 C 0.42718 0.96275 0.4156 0.0
C385 C 0.42291 0.87361 0.34396 0.0
C386 C 0.34864 0.88565 0.27966 0.0
C387 C 0.34628 0.77601 0.28389 0.0
C388 C 0.32579 0.7479 0.2863 0.0
C389 C 0.33626 0.72566 0.30619 0.0
C390 C 0.31621 0.70184 0.31361 0.0
C391 C 0.28532 0.69923 0.30061 0.0
C392 C 0.27492 0.72072 0.2796 0.0
C393 C 0.29497 0.74482 0.27244 0.0
C394 C 0.30019 0.84985 0.34662 0.0
C395 C 0.37441 0.83432 0.40896 0.0
O396 O 0.36492 0.94143 0.37219 0.0
O397 O 0.37249 0.91885 0.41859 0.0
O398 O 0.41252 0.89997 0.34119 0.0
O399 O 0.40253 0.85572 0.3537 0.0
O400 O 0.34314 0.90093 0.31045 0.0
O401 O 0.36189 0.86007 0.28014 0.0
O402 O 0.36871 0.78455 0.30987 0.0
O403 O 0.33366 0.8 0.27554 0.0
O404 O 0.31084 0.8238 0.35062 0.0
O405 O 0.32023 0.86703 0.33555 0.0
O406 O 0.37463 0.81709 0.37737 0.0
O407 O 0.36554 0.86246 0.41039 0.0
H408 H 0.3701 1.00621 0.43501 0.0
H409 H 0.4102 0.04911 0.43735 0.0
H410 H 0.47164 0.98159 0.40932 0.0
H411 H 0.43165 0.93873 0.40757 0.0
H412 H 0.35981 0.72738 0.31731 0.0
H413 H 0.32481 0.68598 0.33046 0.0
H414 H 0.25125 0.71905 0.26901 0.0
H415 H 0.28615 0.76154 0.25695 0.0
Nd416 Nd 0.63169 0.11138 0.59669 0.0
Nd417 Nd 0.57385 0.08988 0.59716 0.0
C418 C 0.68988 0.12589 0.59484 0.0
C419 C 0.71601 0.12122 0.62066 0.0
C420 C 0.72419 0.09091 0.62158 0.0
C421 C 0.74687 0.08593 0.64778 0.0
C422 C 0.76204 0.11101 0.67403 0.0
C423 C 0.75449 0.14149 0.67272 0.0
C424 C 0.73161 0.14652 0.64641 0.0
C425 C 0.62803 0.08146 0.65549 0.0
C426 C 0.60629 0.04702 0.54291 0.0
C427 C 0.51704 0.07208 0.60374 0.0
C428 C 0.48902 0.07112 0.57896 0.0
C429 C 0.46258 0.07847 0.5928 0.0
C430 C 0.4373 0.08276 0.56968 0.0
C431 C 0.43823 0.08013 0.53241 0.0
C432 C 0.46421 0.07122 0.51843 0.0
C433 C 0.48937 0.06663 0.54147 0.0
C434 C 0.57714 0.12124 0.53905 0.0
C435 C 0.59897 0.15583 0.64833 0.0
O436 O 0.67414 0.10058 0.57554 0.0
O437 O 0.67268 0.14657 0.60687 0.0
O438 O 0.64151 0.10898 0.65621 0.0
O439 O 0.61419 0.07063 0.62424 0.0
O440 O 0.62257 0.0741 0.54419 0.0
O441 O 0.58822 0.04494 0.56727 0.0
O442 O 0.53076 0.10014 0.6171 0.0
O443 O 0.53571 0.05242 0.5934 0.0
O444 O 0.5618 0.09447 0.53809 0.0
O445 O 0.59153 0.13099 0.57023 0.0
O446 O 0.58237 0.1291 0.64797 0.0
O447 O 0.61741 0.15716 0.6242 0.0
H448 H 0.7129 0.0708 0.60222 0.0
H449 H 0.75287 0.06232 0.64709 0.0
H450 H 0.76611 0.16136 0.69217 0.0
H451 H 0.72585 0.17016 0.64649 0.0
H452 H 0.46192 0.08223 0.62162 0.0
H453 H 0.41759 0.08986 0.58118 0.0
H454 H 0.4654 0.0689 0.48986 0.0
H455 H 0.50944 0.06078 0.53006 0.0
Nd456 Nd 0.37089 0.35874 0.87721 0.0
Nd457 Nd 0.34984 0.3451 0.82157 0.0
C458 C 0.38671 0.37885 0.94694 0.0
C459 C 0.39779 0.41119 0.96399 0.0
C460 C 0.41365 0.41793 0.99878 0.0
C461 C 0.42126 0.44914 1.01589 0.0
C462 C 0.41298 0.47378 0.9983 0.0
C463 C 0.39949 0.46692 0.96229 0.0
C464 C 0.39181 0.43576 0.9453 0.0
C465 C 0.38857 0.41307 0.84667 0.0
C466 C 0.29901 0.36781 0.86309 0.0
C467 C 0.3387 0.32656 0.75102 0.0
C468 C 0.33554 0.29474 0.73018 0.0
C469 C 0.34564 0.2899 0.69661 0.0
C470 C 0.34434 0.25952 0.6774 0.0
C471 C 0.33297 0.23349 0.69158 0.0
C472 C 0.32372 0.23832 0.72578 0.0
C473 C 0.32519 0.2688 0.74507 0.0
C474 C 0.32997 0.29065 0.85051 0.0
C475 C 0.42152 0.33602 0.83393 0.0
O476 O 0.35883 0.37461 0.9316 0.0
O477 O 0.40443 0.36497 0.92658 0.0
O478 O 0.40604 0.39685 0.86333 0.0
O479 O 0.36181 0.39868 0.84311 0.0
O480 O 0.31945 0.3592 0.88628 0.0
O481 O 0.30793 0.37045 0.83205 0.0
O482 O 0.36556 0.33638 0.76814 0.0
O483 O 0.3177 0.33318 0.77082 0.0
O484 O 0.31399 0.30702 0.83217 0.0
O485 O 0.35703 0.30501 0.85659 0.0
O486 O 0.40044 0.34398 0.81133 0.0
O487 O 0.41365 0.33432 0.86568 0.0
H488 H 0.41877 0.3992 1.01328 0.0
H489 H 0.4313 0.45387 0.04394 0.0
H490 H 0.3928 0.48551 0.94835 0.0
H491 H 0.37964 0.43086 0.91826 0.0
H492 H 0.35429 0.30961 0.68513 0.0
H493 H 0.35095 0.2565 0.65064 0.0
H494 H 0.31462 0.21868 0.73704 0.0
H495 H 0.31801 0.27208 0.77141 0.0
Nd496 Nd 0.0996 0.12332 0.60589 0.0
Nd497 Nd 0.1104 0.06271 0.57246 0.0
C498 C 0.07939 0.17644 0.63069 0.0
C499 C 0.08413 0.20624 0.6182 0.0
C500 C 0.07962 0.23427 0.63977 0.0
C501 C 0.09011 0.26299 0.63111 0.0
C502 C 0.10545 0.26383 0.60102 0.0
C503 C 0.10869 0.2356 0.57863 0.0
C504 C 0.09795 0.20699 0.58708 0.0
C505 C 0.1468 0.12619 0.56541 0.0
C506 C 0.06322 0.09534 0.52492 0.0
C507 C 0.13051 1.00953 0.54832 0.0
C508 C 0.13071 0.98242 0.56657 0.0
C509 C 0.12285 0.95205 0.54647 0.0
C510 C 0.11285 0.92753 0.56336 0.0
C511 C 0.11046 0.9333 0.60043 0.0
C512 C 0.12073 0.96317 0.62088 0.0
C513 C 0.13086 0.9875 0.6041 0.0
C514 C 0.06209 0.05997 0.61069 0.0
C515 C 0.14682 0.09074 0.65427 0.0
O516 O 0.06274 0.15371 0.60784 0.0
O517 O 0.1041 0.1676 0.64532 0.0
O518 O 0.14618 0.14444 0.59573 0.0
O519 O 0.12228 0.10889 0.55602 0.0
O520 O 0.06077 0.11156 0.55695 0.0
O521 O 0.08554 0.0778 0.52228 0.0
O522 O 0.14855 1.03471 0.56432 0.0
O523 O 0.10336 1.01569 0.53785 0.0
O524 O 0.06315 0.04248 0.57997 0.0
O525 O 0.08669 0.07706 0.62173 0.0
O526 O 0.1474 0.07178 0.62336 0.0
O527 O 0.12668 0.11086 0.65619 0.0
H528 H 0.06933 0.23393 0.6641 0.0
H529 H 0.08728 0.28454 0.64867 0.0
H530 H 0.121 0.23551 0.5558 0.0
H531 H 0.10202 0.1854 0.57051 0.0
H532 H 0.12208 0.94784 0.51742 0.0
H533 H 0.10515 0.90456 0.5471 0.0
H534 H 0.11853 0.96849 0.64929 0.0
H535 H 0.13613 1.01088 0.62009 0.0
Nd536 Nd 0.38423 0.86683 0.86739 0.0
Nd537 Nd 0.3413 0.83787 0.81357 0.0
C538 C 0.42662 0.90622 0.91092 0.0
C539 C 0.45713 0.91723 0.93002 0.0
C540 C 0.47238 0.89908 0.95187 0.0
C541 C 0.49952 0.91179 0.97349 0.0
C542 C 0.51174 0.94291 0.97382 0.0
C543 C 0.49682 0.96072 0.95122 0.0
C544 C 0.46963 0.94803 0.92968 0.0
C545 C 0.33277 0.85143 0.89736 0.0
C546 C 0.39044 0.79096 0.84444 0.0
C547 C 0.29844 0.80094 0.76759 0.0
C548 C 0.26768 0.79901 0.74931 0.0
C549 C 0.25264 0.82582 0.74994 0.0
C550 C 0.22455 0.82403 0.72908 0.0
C551 C 0.21133 0.79544 0.70731 0.0
C552 C 0.22629 0.76857 0.70735 0.0
C553 C 0.25435 0.7704 0.7281 0.0
C554 C 0.39326 0.85432 0.78459 0.0
C555 C 0.33383 0.91333 0.8376 0.0
O556 O 0.42033 0.90749 0.87666 0.0
O557 O 0.41093 0.88307 0.92092 0.0
O558 O 0.35923 0.84415 0.90797 0.0
O559 O 0.3336 0.86263 0.86878 0.0
O560 O 0.4058 0.81854 0.86029 0.0
O561 O 0.36255 0.79215 0.82859 0.0
O562 O 0.30226 0.80028 0.80217 0.0
O563 O 0.31811 0.82108 0.75833 0.0
O564 O 0.36684 0.8619 0.77435 0.0
O565 O 0.39199 0.84201 0.81234 0.0
O566 O 0.31884 0.88566 0.8215 0.0
O567 O 0.36186 0.91236 0.85315 0.0
H568 H 0.46314 0.87528 0.95269 0.0
H569 H 0.51108 0.89718 0.98977 0.0
H570 H 0.5059 0.98463 0.9507 0.0
H571 H 0.45797 0.96256 0.91337 0.0
H572 H 0.26281 0.84813 0.76611 0.0
H573 H 0.21306 0.84487 0.73018 0.0
H574 H 0.21637 0.74627 0.69102 0.0
H575 H 0.26591 0.74959 0.72708 0.0
Nd576 Nd 0.59871 0.08131 0.09073 0.0
Nd577 Nd 0.64222 0.13668 0.11399 0.0
C578 C 0.55527 1.03411 0.07163 0.0
C579 C 0.52374 1.02264 0.07238 0.0
C580 C 0.51296 1.01802 0.10451 0.0
C581 C 0.48357 1.00396 0.10344 0.0
C582 C 0.46487 0.99425 0.07029 0.0
C583 C 0.47551 0.99934 0.03834 0.0
C584 C 0.50469 1.01367 0.03944 0.0
C585 C 0.65732 0.06772 0.09844 0.0
C586 C 0.60334 0.11785 0.17388 0.0
C587 C 0.68768 0.18192 0.13099 0.0
C588 C 0.7156 0.1928 0.11869 0.0
C589 C 0.73557 0.21629 0.14165 0.0
C590 C 0.7611 0.22928 0.12961 0.0
C591 C 0.76712 0.21849 0.09456 0.0
C592 C 0.74764 0.19407 0.0719 0.0
C593 C 0.72185 0.1813 0.08395 0.0
C594 C 0.58415 0.1508 0.10605 0.0
C595 C 0.63338 0.10228 0.02934 0.0
O596 O 0.56014 0.05582 0.05232 0.0
O597 O 0.57451 0.03754 0.10115 0.0
O598 O 0.63656 0.0539 0.0729 0.0
O599 O 0.64691 0.08705 0.1209 0.0
O600 O 0.58491 0.10094 0.14625 0.0
O601 O 0.63056 0.12925 0.16924 0.0
O602 O 0.68724 0.15593 0.14409 0.0
O603 O 0.66285 0.18391 0.11022 0.0
O604 O 0.60491 0.1647 0.13175 0.0
O605 O 0.59428 0.13101 0.08371 0.0
O606 O 0.65276 0.11869 0.05634 0.0
O607 O 0.60672 0.09084 0.0353 0.0
H608 H 0.52732 1.02462 0.13023 0.0
H609 H 0.47569 0.99993 0.12835 0.0
H610 H 0.46132 0.99206 1.01255 0.0
H611 H 0.51271 1.01698 1.01439 0.0
H612 H 0.73118 0.22478 0.16874 0.0
H613 H 0.77619 0.24773 0.14768 0.0
H614 H 0.75206 0.18541 0.04482 0.0
H615 H 0.70659 0.16289 0.06617 0.0
Nd616 Nd 0.33241 0.32632 0.31915 0.0
Nd617 Nd 0.3758 0.37098 0.36586 0.0
C618 C 0.28648 0.28739 0.28554 0.0
C619 C 0.25882 0.28863 0.30365 0.0
C620 C 0.24089 0.31298 0.29957 0.0
C621 C 0.22719 0.32697 0.32845 0.0
C622 C 0.23015 0.31597 0.3612 0.0
C623 C 0.2433 0.28825 0.36308 0.0
C624 C 0.25727 0.27443 0.33436 0.0
C625 C 0.33029 0.32258 0.39074 0.0
C626 C 0.31017 0.39359 0.34587 0.0
C627 C 0.41875 0.40591 0.41207 0.0
C628 C 0.45056 0.40034 0.40915 0.0
C629 C 0.46114 0.37356 0.42047 0.0
C630 C 0.4791 0.35556 0.39958 0.0
C631 C 0.48611 0.36414 0.3673 0.0
C632 C 0.4818 0.39451 0.36125 0.0
C633 C 0.4647 0.41292 0.38268 0.0
C634 C 0.37916 0.37443 0.29437 0.0
C635 C 0.3988 0.30494 0.33308 0.0
O636 O 0.29522 0.31258 0.27296 0.0
O637 O 0.30919 0.27736 0.30329 0.0
O638 O 0.30837 0.32901 0.3693 0.0
O639 O 0.35367 0.32527 0.37601 0.0
O640 O 0.30752 0.36989 0.31877 0.0
O641 O 0.33304 0.39665 0.37215 0.0
O642 O 0.40168 0.38319 0.42119 0.0
O643 O 0.40503 0.41638 0.38489 0.0
O644 O 0.40194 0.37297 0.31796 0.0
O645 O 0.35525 0.37147 0.30817 0.0
O646 O 0.40174 0.32801 0.36098 0.0
O647 O 0.37534 0.30214 0.30756 0.0
H648 H 0.24063 0.32377 0.27584 0.0
H649 H 0.21634 0.34787 0.32622 0.0
H650 H 0.24518 0.27895 0.38791 0.0
H651 H 0.27021 0.25524 0.33836 0.0
H652 H 0.45185 0.36385 0.44187 0.0
H653 H 0.48384 0.33304 0.406 0.0
H654 H 0.48803 0.40219 0.33711 0.0
H655 H 0.45821 0.43422 0.3742 0.0
Nd656 Nd 0.60736 0.63249 0.10941 0.0
Nd657 Nd 0.61073 0.57021 0.0802 0.0
C658 C 0.59235 0.6894 0.12853 0.0
C659 C 0.59301 0.71493 0.10789 0.0
C660 C 0.60154 0.7095 0.07322 0.0
C661 C 0.60737 0.7345 0.05536 0.0
C662 C 0.60445 0.76519 0.07183 0.0
C663 C 0.59431 0.77033 0.10574 0.0
C664 C 0.5887 0.74528 0.12376 0.0
C665 C 0.65486 0.62719 0.06971 0.0
C666 C 0.56992 0.60461 0.0287 0.0
C667 C 0.62164 0.51204 0.06003 0.0
C668 C 0.61558 0.48653 0.07978 0.0
C669 C 0.60846 0.45547 0.06149 0.0
C670 C 0.59555 0.43261 0.07883 0.0
C671 C 0.58945 0.44075 0.11447 0.0
C672 C 0.59777 0.47165 0.13305 0.0
C673 C 0.6108 0.49432 0.11588 0.0
C674 C 0.56346 0.57663 0.12034 0.0
C675 C 0.65056 0.5981 0.15952 0.0
O676 O 0.5725 0.66508 0.11499 0.0
O677 O 0.61887 0.68149 0.13852 0.0
O678 O 0.65632 0.64512 0.10069 0.0
O679 O 0.62873 0.61308 0.05993 0.0
O680 O 0.56882 0.62316 0.05973 0.0
O681 O 0.58995 0.58444 0.02783 0.0
O682 O 0.64282 0.53447 0.07603 0.0
O683 O 0.59725 0.52279 0.04742 0.0
O684 O 0.56167 0.55872 0.0893 0.0
O685 O 0.58982 0.59002 0.13002 0.0
O686 O 0.64924 0.5778 0.12917 0.0
O687 O 0.63226 0.62009 0.16102 0.0
H688 H 0.60511 0.68609 0.06077 0.0
H689 H 0.61531 0.73008 0.02937 0.0
H690 H 0.59248 0.79393 0.11926 0.0
H691 H 0.58241 0.74979 0.15064 0.0
H692 H 0.61141 0.44929 0.03339 0.0
H693 H 0.58936 0.40885 0.06403 0.0
H694 H 0.59268 0.47875 0.16018 0.0
H695 H 0.61533 0.51843 0.13011 0.0
Nd696 Nd 0.88602 0.36675 0.37073 0.0
Nd697 Nd 0.84263 0.3405 0.31574 0.0
C698 C 0.92923 0.40394 0.41567 0.0
C699 C 0.95983 0.41438 0.43503 0.0
C700 C 0.97339 0.39737 0.45963 0.0
C701 C 1.00073 0.40977 0.48106 0.0
C702 C 1.015 0.43936 0.47832 0.0
C703 C 1.00148 0.45623 0.45354 0.0
C704 C 0.97411 0.44388 0.43219 0.0
C705 C 0.83333 0.35333 0.39943 0.0
C706 C 0.88981 0.29058 0.34443 0.0
C707 C 0.79787 0.30781 0.26867 0.0
C708 C 0.76743 0.31135 0.2528 0.0
C709 C 0.75173 0.2874 0.22586 0.0
C710 C 0.72318 0.29089 0.20924 0.0
C711 C 0.70998 0.31837 0.21939 0.0
C712 C 0.72604 0.34264 0.24598 0.0
C713 C 0.75462 0.33913 0.26263 0.0
C714 C 0.89532 0.35641 0.28822 0.0
C715 C 0.83822 0.41608 0.34137 0.0
O716 O 0.92284 0.40675 0.38188 0.0
O717 O 0.91317 0.38038 0.42446 0.0
O718 O 0.85912 0.34464 0.41027 0.0
O719 O 0.83538 0.3649 0.37131 0.0
O720 O 0.90585 0.31739 0.36174 0.0
O721 O 0.86228 0.29324 0.32844 0.0
O722 O 0.80183 0.30525 0.30274 0.0
O723 O 0.81934 0.32632 0.26005 0.0
O724 O 0.86948 0.36545 0.27835 0.0
O725 O 0.89331 0.343 0.31503 0.0
O726 O 0.82221 0.38918 0.32483 0.0
O727 O 0.86587 0.41368 0.35715 0.0
H728 H 0.96268 0.37475 0.46276 0.0
H729 H 1.01082 0.39609 0.49967 0.0
H730 H 1.01173 0.47925 0.45113 0.0
H731 H 0.96371 0.45776 0.41403 0.0
H732 H 0.76158 0.266 0.21776 0.0
H733 H 0.711 0.27186 0.18907 0.0
H734 H 0.7164 0.36419 0.25399 0.0
H735 H 0.76674 0.35805 0.28303 0.0
Nd736 Nd 0.09641 0.58328 0.58275 0.0
Nd737 Nd 0.13402 0.64141 0.60288 0.0
C738 C 1.05612 0.53284 0.56759 0.0
C739 C 1.02452 0.52135 0.56863 0.0
C740 C 1.0138 0.51755 0.60107 0.0
C741 C 0.98422 0.50419 0.60059 0.0
C742 C 0.96515 0.49429 0.5677 0.0
C743 C 0.97581 0.49833 0.5354 0.0
C744 C 1.00519 0.51195 0.53592 0.0
C745 C 0.15679 0.57495 0.59047 0.0
C746 C 0.10126 0.62106 0.66571 0.0
C747 C 0.17509 0.69102 0.61442 0.0
C748 C 0.2043 0.7004 0.60314 0.0
C749 C 0.23085 0.70197 0.62721 0.0
C750 C 0.25869 0.71131 0.61739 0.0
C751 C 0.26048 0.71931 0.58334 0.0
C752 C 0.23402 0.71797 0.55924 0.0
C753 C 0.20609 0.70849 0.56901 0.0
C754 C 0.07371 0.64907 0.59566 0.0
C755 C 0.12798 0.60528 0.51983 0.0
O756 O 0.06082 0.55186 0.5451 0.0
O757 O 0.07464 0.54017 0.59784 0.0
O758 O 0.13649 0.55949 0.56532 0.0
O759 O 0.14501 0.59353 0.61237 0.0
O760 O 0.08314 0.60239 0.63904 0.0
O761 O 0.12714 0.63429 0.65944 0.0
O762 O 0.17477 0.66967 0.63495 0.0
O763 O 0.15113 0.68722 0.59024 0.0
O764 O 0.09389 0.66511 0.62068 0.0
O765 O 0.0855 0.63078 0.5735 0.0
O766 O 0.14676 0.62242 0.54681 0.0
O767 O 0.10202 0.59238 0.52625 0.0
H768 H 1.02831 0.52439 0.62666 0.0
H769 H 0.97645 0.50087 0.62578 0.0
H770 H 0.96144 0.49084 0.50977 0.0
H771 H 1.01306 0.51455 0.5106 0.0
H772 H 0.23009 0.69624 0.65381 0.0
H773 H 0.2788 0.71298 0.63675 0.0
H774 H 0.23499 0.72434 0.53296 0.0
H775 H 0.18598 0.70772 0.54994 0.0
Nd776 Nd 0.87228 0.86012 0.37606 0.0
Nd777 Nd 0.85115 0.84157 0.31517 0.0
C778 C 0.89453 0.878 0.44448 0.0
C779 C 0.89408 0.90947 0.4649 0.0
C780 C 0.87149 0.9274 0.45407 0.0
C781 C 0.87226 0.95858 0.47023 0.0
C782 C 0.89481 0.97202 0.49888 0.0
C783 C 0.91774 0.95411 0.50941 0.0
C784 C 0.9176 0.92313 0.49209 0.0
C785 C 0.87872 0.915 0.3434 0.0
C786 C 0.80122 0.86835 0.36075 0.0
C787 C 0.83905 0.82266 0.24485 0.0
C788 C 0.85793 0.81042 0.21812 0.0
C789 C 0.85518 0.81947 0.18439 0.0
C790 C 0.86827 0.80325 0.15659 0.0
C791 C 0.88405 0.77762 0.16221 0.0
C792 C 0.88944 0.77082 0.197 0.0
C793 C 0.87652 0.78716 0.22483 0.0
C794 C 0.83034 0.79264 0.35082 0.0
C795 C 0.92369 0.83487 0.3307 0.0
O796 O 0.86823 0.8615 0.43395 0.0
O797 O 0.91123 0.87717 0.41876 0.0
O798 O 0.86479 0.9124 0.37079 0.0
O799 O 0.88452 0.88747 0.33103 0.0
O800 O 0.8217 0.86146 0.38505 0.0
O801 O 0.80958 0.8682 0.32859 0.0
O802 O 0.8446 0.85236 0.25941 0.0
O803 O 0.83402 0.80474 0.26818 0.0
O804 O 0.8142 0.80835 0.3315 0.0
O805 O 0.85775 0.80615 0.35528 0.0
O806 O 0.90003 0.83081 0.30566 0.0
O807 O 0.91876 0.84428 0.36391 0.0
H808 H 0.85291 0.91722 0.43333 0.0
H809 H 0.85423 0.97166 0.4617 0.0
H810 H 0.93489 0.96336 0.53225 0.0
H811 H 0.93545 0.90972 0.50034 0.0
H812 H 0.84116 0.83748 0.17883 0.0
H813 H 0.86327 0.80869 0.12984 0.0
H814 H 0.90145 0.75118 0.20192 0.0
H815 H 0.87949 0.78011 0.25096 0.0
Nd816 Nd 0.86557 0.3888 0.86488 0.0
Nd817 Nd 0.85219 0.33004 0.82999 0.0
C818 C 0.87155 0.44503 0.90655 0.0
C819 C 0.89726 0.46914 0.91953 0.0
C820 C 0.89195 0.50061 0.92699 0.0
C821 C 0.91502 0.52445 0.92696 0.0
C822 C 0.94353 0.51696 0.91949 0.0
C823 C 0.94974 0.48569 0.9161 0.0
C824 C 0.9266 0.46179 0.91597 0.0
C825 C 0.92076 0.37055 0.84556 0.0
C826 C 0.84736 0.38138 0.78082 0.0
C827 C 0.84008 0.27245 0.79151 0.0
C828 C 0.82016 0.24628 0.79918 0.0
C829 C 0.81078 0.24858 0.8334 0.0
C830 C 0.79015 0.2253 0.84078 0.0
C831 C 0.77886 0.19901 0.81424 0.0
C832 C 0.7888 0.19616 0.78022 0.0
C833 C 0.80915 0.21989 0.77259 0.0
C834 C 0.79838 0.35106 0.85167 0.0
C835 C 0.87289 0.33444 0.91307 0.0
O836 O 0.86408 0.44002 0.87173 0.0
O837 O 0.87156 0.419 0.91934 0.0
O838 O 0.91064 0.39689 0.84202 0.0
O839 O 0.90034 0.35319 0.8561 0.0
O840 O 0.84241 0.39822 0.81103 0.0
O841 O 0.85962 0.35537 0.78268 0.0
O842 O 0.86429 0.28172 0.81478 0.0
O843 O 0.82659 0.29602 0.78343 0.0
O844 O 0.80874 0.32546 0.858 0.0
O845 O 0.81836 0.36636 0.83844 0.0
O846 O 0.87205 0.31613 0.88196 0.0
O847 O 0.86482 0.36284 0.91366 0.0
H848 H 0.86939 0.50663 0.92948 0.0
H849 H 0.90995 0.54853 0.92962 0.0
H850 H 0.97159 0.47951 0.91015 0.0
H851 H 0.93098 0.43753 0.90985 0.0
H852 H 0.81939 0.26848 0.8545 0.0
H853 H 0.78331 0.22762 0.86741 0.0
H854 H 0.78054 0.17579 0.75954 0.0
H855 H 0.81611 0.21775 0.74603 0.0
Nd856 Nd 0.82899 0.82347 0.80435 0.0
Nd857 Nd 0.86808 0.86105 0.86643 0.0
C858 C 0.78404 0.79898 0.75589 0.0
C859 C 0.75458 0.80688 0.76734 0.0
C860 C 0.74659 0.83743 0.76675 0.0
C861 C 0.73158 0.85235 0.79394 0.0
C862 C 0.72424 0.83694 0.82199 0.0
C863 C 0.72747 0.80485 0.81906 0.0
C864 C 0.7418 0.78971 0.79143 0.0
C865 C 0.81772 0.80475 0.86757 0.0
C866 C 0.80612 0.88737 0.84654 0.0
C867 C 0.91065 0.88564 0.91856 0.0
C868 C 0.94167 0.88059 0.91025 0.0
C869 C 0.95226 0.85147 0.91317 0.0
C870 C 0.96926 0.83745 0.88756 0.0
C871 C 0.9757 0.85232 0.8588 0.0
C872 C 0.97066 0.88391 0.8605 0.0
C873 C 0.95437 0.89819 0.88655 0.0
C874 C 0.8779 0.87931 0.80175 0.0
C875 C 0.89342 0.79884 0.82383 0.0
O876 O 0.80236 0.82259 0.75046 0.0
O877 O 0.79831 0.78119 0.7751 0.0
O878 O 0.79798 0.81396 0.84556 0.0
O879 O 0.8435 0.8118 0.85935 0.0
O880 O 0.80721 0.8693 0.81529 0.0
O881 O 0.82477 0.88456 0.87522 0.0
O882 O 0.89311 0.86028 0.92069 0.0
O883 O 0.89644 0.90343 0.89926 0.0
O884 O 0.89874 0.87723 0.82728 0.0
O885 O 0.85282 0.8718 0.81084 0.0
O886 O 0.89397 0.81888 0.85396 0.0
O887 O 0.8724 0.79876 0.79601 0.0
H888 H 0.75538 0.85135 0.7483 0.0
H889 H 0.72854 0.87689 0.79505 0.0
H890 H 0.72126 0.79218 0.83989 0.0
H891 H 0.74677 0.76595 0.79242 0.0
H892 H 0.94397 0.83763 0.93196 0.0
H893 H 0.97434 0.81369 0.88793 0.0
H894 H 0.97653 0.89646 0.83944 0.0
H895 H 0.94783 0.9212 0.88428 0.0
Nd896 Nd 0.63703 0.62619 0.60855 0.0
Nd897 Nd 0.59643 0.5852 0.58406 0.0
C898 C 0.66705 0.68334 0.62434 0.0
C899 C 0.66713 0.70434 0.59724 0.0
C900 C 0.67507 0.73697 0.60692 0.0
C901 C 0.67121 0.75638 0.58085 0.0
C902 C 0.65899 0.74345 0.54486 0.0
C903 C 0.65178 0.71076 0.53524 0.0
C904 C 0.65592 0.69151 0.56103 0.0
C905 C 0.65426 0.60089 0.54198 0.0
C906 C 0.57416 0.64753 0.57113 0.0
C907 C 0.56674 0.52787 0.56893 0.0
C908 C 0.56767 0.50626 0.59545 0.0
C909 C 0.57785 0.51861 0.63206 0.0
C910 C 0.58277 0.49883 0.65721 0.0
C911 C 0.57777 0.46602 0.64647 0.0
C912 C 0.56649 0.45362 0.60999 0.0
C913 C 0.56171 0.47354 0.58468 0.0
C914 C 0.58009 0.61096 0.65114 0.0
C915 C 0.65874 0.56315 0.62092 0.0
O916 O 0.64093 0.6767 0.63447 0.0
O917 O 0.68022 0.65815 0.6171 0.0
O918 O 0.67011 0.60497 0.57322 0.0
O919 O 0.62701 0.60674 0.54609 0.0
O920 O 0.59801 0.65541 0.59555 0.0
O921 O 0.56906 0.61801 0.5548 0.0
O922 O 0.59227 0.53479 0.55758 0.0
O923 O 0.55361 0.55291 0.57735 0.0
O924 O 0.56383 0.60702 0.62017 0.0
O925 O 0.60695 0.60438 0.64634 0.0
O926 O 0.63525 0.55594 0.59602 0.0
O927 O 0.66389 0.59256 0.63777 0.0
H928 H 0.68334 0.7475 0.6347 0.0
H929 H 0.67648 0.78159 0.58916 0.0
H930 H 0.64219 0.70013 0.50786 0.0
H931 H 0.64922 0.66654 0.55286 0.0
H932 H 0.58304 0.54371 0.6411 0.0
H933 H 0.59156 0.50927 0.68488 0.0
H934 H 0.56173 0.42846 0.60086 0.0
H935 H 0.55406 0.46338 0.55665 0.0
Nd936 Nd 0.13409 0.61168 0.0873 0.0
Nd937 Nd 0.07695 0.59117 0.0936 0.0
C938 C 0.1907 0.6261 0.07816 0.0
C939 C 0.2184 0.62341 0.10242 0.0
C940 C 0.22564 0.64214 0.13713 0.0
C941 C 0.24826 0.63505 0.1623 0.0
C942 C 0.26354 0.60883 0.15334 0.0
C943 C 0.25753 0.59135 0.11813 0.0
C944 C 0.2354 0.59868 0.09289 0.0
C945 C 0.13436 0.58202 0.14678 0.0
C946 C 0.1059 0.54599 0.03854 0.0
C947 C 1.02126 0.57439 0.10417 0.0
C948 C 0.99289 0.57795 0.08193 0.0
C949 C 0.98021 0.60634 0.0879 0.0
C950 C 0.95717 0.61241 0.063 0.0
C951 C 0.94612 0.59015 0.03183 0.0
C952 C 0.95727 0.56097 0.0268 0.0
C953 C 0.98058 0.55493 0.05163 0.0
C954 C 0.0763 0.62109 0.03395 0.0
C955 C 0.1049 0.65686 0.14335 0.0
O956 O 0.17477 0.59951 0.06283 0.0
O957 O 0.17376 0.64723 0.08977 0.0
O958 O 0.14896 0.6088 0.14621 0.0
O959 O 0.11842 0.57163 0.11671 0.0
O960 O 0.12134 0.57277 0.03644 0.0
O961 O 0.09069 0.54528 0.06577 0.0
O962 O 1.03725 0.60035 0.12149 0.0
O963 O 1.03798 0.55462 0.08908 0.0
O964 O 0.06076 0.5949 0.03509 0.0
O965 O 0.0926 0.63123 0.06394 0.0
O966 O 0.08779 0.63069 0.14376 0.0
O967 O 0.12242 0.65758 0.11816 0.0
H968 H 0.21294 0.66136 0.14546 0.0
H969 H 0.25265 0.64895 0.18925 0.0
H970 H 0.26944 0.57131 0.11042 0.0
H971 H 0.23049 0.58392 0.06644 0.0
H972 H 0.98889 0.62445 0.11106 0.0
H973 H 0.94823 0.63477 0.06781 0.0
H974 H 0.94867 0.54333 1.00317 0.0
H975 H 0.98974 0.53273 0.04632 0.0
C976 C 0.16147 0.319 1.00836 0.0
C977 C 0.1389 0.30944 0.9784 0.0
C978 C 0.17177 0.29763 0.02956 0.0
C979 C 0.15979 0.26575 0.02181 0.0
H980 H 0.17018 0.34364 1.01657 0.0
H981 H 0.18848 0.30636 0.05301 0.0
S982 S 0.10042 0.22866 0.94605 0.0
N983 N 0.10531 0.26593 0.94153 0.0
N984 N 0.12446 0.22553 0.98139 0.0
C985 C 0.13806 0.25557 0.99098 0.0
C986 C 0.12763 0.27747 0.9693 0.0
C987 C 0.22504 0.87977 0.31307 0.0
C988 C 0.20205 0.85495 0.31298 0.0
C989 C 0.25595 0.87856 0.32555 0.0
C990 C 0.26623 0.85218 0.33838 0.0
H991 H 0.21925 0.89994 0.3015 0.0
H992 H 0.27217 0.8981 0.32356 0.0
S993 S 0.216 0.78031 0.34412 0.0
N994 N 0.19251 0.80296 0.32751 0.0
N995 N 0.24987 0.80052 0.3508 0.0
C996 C 0.24341 0.82751 0.3396 0.0
C997 C 0.21177 0.8289 0.32703 0.0
C998 C 0.59727 0.96198 0.49469 0.0
C999 C 0.61266 0.96291 0.46463 0.0
C1000 C 0.59489 0.9893 0.51909 0.0
C1001 C 0.6081 1.01896 0.51494 0.0
H1002 H 0.58735 0.93977 0.49995 0.0
H1003 H 0.58316 0.98688 0.54196 0.0
S1004 S 0.6495 1.03477 0.43961 0.0
N1005 N 0.64014 0.99628 0.43105 0.0
N1006 N 0.63597 0.04781 0.47715 0.0
C1007 C 0.62285 1.02049 0.4844 0.0
C1008 C 0.62499 0.99248 0.45918 0.0
C1009 C 0.50874 0.33154 0.84198 0.0
C1010 C 0.51552 0.33141 0.80642 0.0
C1011 C 0.47865 0.33219 0.85071 0.0
C1012 C 0.45354 0.33292 0.82447 0.0
H1013 H 0.52688 0.33154 0.86346 0.0
H1014 H 0.47519 0.33274 0.87853 0.0
S1015 S 0.45812 0.332 0.7271 0.0
N1016 N 0.49333 0.3313 0.74471 0.0
N1017 N 0.43824 0.3327 0.76093 0.0
C1018 C 0.46006 0.33238 0.78888 0.0
C1019 C 0.49042 0.33158 0.77998 0.0
C1020 C 1.04657 0.87555 0.61455 0.0
C1021 C 1.05651 0.86819 0.6483 0.0
C1022 C 0.0645 0.89617 0.59904 0.0
C1023 C 0.09315 0.90998 0.6166 0.0
H1024 H 1.02483 0.86507 0.59983 0.0
H1025 H 1.05566 0.90166 0.57329 0.0
S1026 S 0.13026 0.89737 0.70477 0.0
N1027 N 0.09714 0.8758 0.6986 0.0
N1028 N 0.131 0.91445 0.66911 0.0
C1029 C 0.1034 0.90291 0.65041 0.0
C1030 C 0.08503 0.88204 0.66637 0.0
C1031 C 0.59377 0.97594 0.99802 0.0
C1032 C 0.60103 0.96863 0.03255 0.0
C1033 C 0.56423 0.96968 0.98007 0.0
C1034 C 0.54098 0.95586 0.99605 0.0
H1035 H 0.61144 0.98406 0.98352 0.0
H1036 H 0.56011 0.97338 0.95247 0.0
S1037 S 0.54663 0.94003 0.08945 0.0
N1038 N 0.58152 0.95252 0.08464 0.0
N1039 N 0.52586 0.94094 0.05081 0.0
C1040 C 0.54725 0.95197 0.0321 0.0
C1041 C 0.57732 0.95854 0.05051 0.0
C1042 C 0.52164 0.19068 0.13908 0.0
C1043 C 0.51533 0.20834 0.1118 0.0
C1044 C 0.54122 0.16773 0.13487 0.0
C1045 C 0.55395 0.16087 0.10291 0.0
H1046 H 0.51538 0.19769 0.16567 0.0
H1047 H 0.54933 0.15824 0.15832 0.0
S1048 S 0.53377 0.1901 0.01829 0.0
N1049 N 0.51514 0.20981 0.04772 0.0
N1050 N 0.55197 0.16621 0.04019 0.0
C1051 C 0.54264 0.1732 0.07301 0.0
C1052 C 0.52289 0.19694 0.07729 0.0
C1053 C 0.19004 0.3493 0.43902 0.0
C1054 C 0.21159 0.37368 0.45882 0.0
C1055 C 0.19619 0.33027 0.40764 0.0
C1056 C 0.22369 0.33575 0.39449 0.0
H1057 H 0.16824 0.34495 0.44786 0.0
H1058 H 0.17922 0.31156 0.39328 0.0
S1059 S 0.28679 0.39757 0.4356 0.0
N1060 N 0.26125 0.40218 0.46318 0.0
N1061 N 0.27206 0.36805 0.40297 0.0
C1062 C 0.24511 0.36038 0.4138 0.0
C1063 C 0.23929 0.37892 0.44636 0.0
C1064 C 1.04336 0.07567 0.22989 0.0
C1065 C 1.02701 0.10103 0.24166 0.0
C1066 C 0.06389 0.07651 0.20433 0.0
C1067 C 0.06987 0.10261 0.18736 0.0
H1068 H 1.04096 0.05457 0.24153 0.0
H1069 H 0.07548 0.05601 0.19797 0.0
S1070 S 1.03257 0.17553 0.2052 0.0
N1071 N 1.01842 0.15363 0.23235 0.0
N1072 N 1.05579 0.15471 0.18338 0.0
C1073 C 1.05307 0.12807 0.19755 0.0
C1074 C 1.03212 0.12738 0.22447 0.0
C1075 C 0.41036 0.78173 0.46871 0.0
C1076 C 0.42412 0.80294 0.49986 0.0
C1077 C 0.39333 0.79195 0.44024 0.0
C1078 C 0.38899 0.82382 0.44168 0.0
H1079 H 0.41265 0.75691 0.46621 0.0
H1080 H 0.38373 0.77466 0.41666 0.0
S1081 S 0.42124 0.88928 0.51646 0.0
N1082 N 0.43301 0.85771 0.52975 0.0
N1083 N 0.40066 0.87669 0.47673 0.0
C1084 C 0.40252 0.8453 0.47272 0.0
C1085 C 0.42018 0.83495 0.50157 0.0
C1086 C 0.62672 1.02141 0.71874 0.0
C1087 C 0.65294 1.03232 0.7438 0.0
C1088 C 0.61952 1.03591 0.68861 0.0
C1089 C 0.63764 0.06266 0.68345 0.0
H1090 H 0.61078 1.00281 0.7237 0.0
H1091 H 0.59866 1.0275 0.67074 0.0
S1092 S 0.70787 0.10129 0.74224 0.0
N1093 N 0.69699 0.07118 0.76091 0.0
N1094 N 0.68325 0.09896 0.70584 0.0
C1095 C 0.66442 0.07299 0.70769 0.0
C1096 C 0.67212 0.0577 0.73743 0.0
C1097 C 0.43166 0.53465 0.07975 0.0
C1098 C 0.40238 0.53721 0.08811 0.0
C1099 C 0.43605 0.51824 0.04624 0.0
C1100 C 0.41114 0.50438 0.0207 0.0
H1101 H 0.4509 0.54149 0.10054 0.0
H1102 H 0.45849 0.51252 0.04239 0.0
S1103 S 0.3309 0.51452 0.02636 0.0
N1104 N 0.34909 0.53227 0.066 0.0
N1105 N 0.35705 0.50183 1.00247 0.0
C1106 C 0.38238 0.51257 0.02638 0.0
C1107 C 0.37801 0.52894 0.06059 0.0
C1108 C 1.0325 0.09137 0.42511 0.0
C1109 C 1.00545 0.10539 0.42549 0.0
C1110 C 1.05032 0.08776 0.45703 0.0
C1111 C 1.04245 0.09832 0.49145 0.0
H1112 H 1.04036 0.08322 0.39972 0.0
H1113 H 0.07091 0.07708 0.45455 0.0
S1114 S 0.97333 0.13575 0.50827 0.0
N1115 N 0.97123 0.12904 0.46384 0.0
N1116 N 1.00476 0.12273 0.52373 0.0
C1117 C 1.0152 0.11202 0.49242 0.0
C1118 C 0.99676 0.11538 0.45965 0.0
C1119 C 0.42093 0.80124 0.70733 0.0
C1120 C 0.43981 0.8224 0.69297 0.0
C1121 C 0.40754 0.81129 0.73853 0.0
C1122 C 0.41235 0.84291 0.75656 0.0
H1123 H 0.41424 0.77752 0.69259 0.0
H1124 H 0.3917 0.79465 0.7472 0.0
S1125 S 0.46313 0.90651 0.73337 0.0
N1126 N 0.46524 0.87567 0.70221 0.0
N1127 N 0.43982 0.89428 0.76 0.0
C1128 C 0.43287 0.86359 0.74418 0.0
C1129 C 0.44672 0.85338 0.71278 0.0
C1130 C 0.64174 0.04521 0.94491 0.0
C1131 C 0.66848 0.058 0.93454 0.0
C1132 C 0.6298 0.06059 0.97452 0.0
C1133 C 0.64388 0.0897 0.99466 0.0
H1134 H 0.63034 1.02271 0.93054 0.0
H1135 H 0.6099 0.04891 0.98237 0.0
S1136 S 0.71159 0.13559 0.97407 0.0
N1137 N 0.70696 0.10287 0.94376 0.0
N1138 N 0.68416 0.1323 0.99902 0.0
C1139 C 0.6697 0.10359 0.98308 0.0
C1140 C 0.6821 0.08762 0.95314 0.0
C1141 C 0.36976 0.4419 0.2438 0.0
C1142 C 0.39364 0.44066 0.22315 0.0
C1143 C 0.36419 0.41928 0.26542 0.0
C1144 C 0.3827 0.39508 0.26761 0.0
H1145 H 0.35505 0.46015 0.24283 0.0
H1146 H 0.3458 0.42135 0.28134 0.0
S1147 S 0.44837 0.38185 0.21928 0.0
N1148 N 0.43593 0.41325 0.20624 0.0
N1149 N 0.42565 0.37131 0.24739 0.0
C1150 C 0.4066 0.39369 0.24717 0.0
C1151 C 0.41203 0.41634 0.22481 0.0
C1152 C 0.23335 1.02701 0.10997 0.0
C1153 C 0.2244 0.99421 0.104 0.0
C1154 C 0.21249 0.04907 0.11599 0.0
C1155 C 0.18177 0.03929 0.11638 0.0
H1156 H 0.25647 1.03578 0.10859 0.0
H1157 H 0.22018 0.07382 0.11828 0.0
S1158 S 0.14757 0.9566 0.10775 0.0
N1159 N 0.18315 0.95359 0.1029 0.0
N1160 N 0.14426 0.99456 0.11404 0.0
C1161 C 0.17299 1.0067 0.1126 0.0
C1162 C 0.19414 0.98435 0.10647 0.0
C1163 C 0.72746 0.63914 0.03115 0.0
C1164 C 0.71996 0.65742 1.00479 0.0
C1165 C 0.70577 0.62812 0.05111 0.0
C1166 C 0.67575 0.63409 0.04444 0.0
H1167 H 0.75066 0.63513 0.03812 0.0
H1168 H 0.71273 0.61579 0.07271 0.0
S1169 S 0.64387 0.67787 0.97597 0.0
N1170 N 0.68012 0.67952 0.9718 0.0
N1171 N 0.63894 0.65723 1.00809 0.0
C1172 C 0.66749 0.65051 1.01663 0.0
C1173 C 0.68975 0.6626 0.99707 0.0
C1174 C 0.77891 0.47839 0.34347 0.0
C1175 C 0.79593 0.50867 0.35373 0.0
C1176 C 0.79244 0.44944 0.33894 0.0
C1177 C 0.82417 0.44814 0.34503 0.0
H1178 H 0.75457 0.4769 0.33855 0.0
H1179 H 0.77756 0.42761 0.331 0.0
S1180 S 0.87991 0.51995 0.37326 0.0
N1181 N 0.84727 0.53441 0.36985 0.0
N1182 N 0.87197 0.48134 0.3627 0.0
C1183 C 0.84142 0.47821 0.35568 0.0
C1184 C 0.82768 0.50772 0.35959 0.0
C1185 C 0.89663 0.43338 0.54466 0.0
C1186 C 0.87573 0.44715 0.56525 0.0
C1187 C 0.92542 0.449 0.5453 0.0
C1188 C 0.93442 0.47876 0.56681 0.0
H1189 H 0.89077 0.41035 0.52789 0.0
H1190 H 0.94092 0.43749 0.52928 0.0
S1191 S 0.88834 0.52573 0.62462 0.0
N1192 N 0.86609 0.49292 0.60711 0.0
N1193 N 0.92035 0.52207 0.60806 0.0
C1194 C 0.91383 0.49304 0.58714 0.0
C1195 C 0.88441 0.47731 0.58636 0.0
C1196 C 0.46402 0.26286 0.36792 0.0
C1197 C 0.46751 0.2398 0.33865 0.0
C1198 C 0.4413 0.28271 0.36556 0.0
C1199 C 0.42164 0.28173 0.33335 0.0
H1200 H 0.47829 0.26483 0.39349 0.0
H1201 H 0.43893 0.29881 0.38976 0.0
S1202 S 0.42187 0.22581 0.24813 0.0
N1203 N 0.44912 0.21648 0.27625 0.0
N1204 N 0.4076 0.25526 0.27108 0.0
C1205 C 0.42499 0.2588 0.30359 0.0
C1206 C 0.44768 0.23769 0.30638 0.0
C1207 C 0.35914 0.09184 0.49479 0.0
C1208 C 0.36436 0.11793 0.47786 0.0
C1209 C 0.38324 0.07827 0.51052 0.0
C1210 C 0.41328 0.08995 0.50923 0.0
H1211 H 0.33647 0.0835 0.49858 0.0
H1212 H 0.3784 0.05956 0.52537 0.0
S1213 S 0.43855 0.15422 0.46243 0.0
N1214 N 0.40142 0.15229 0.45666 0.0
N1215 N 0.44675 0.12655 0.48574 0.0
C1216 C 0.41865 0.11403 0.48936 0.0
C1217 C 0.39414 0.12808 0.47377 0.0
C1218 C 0.81791 0.70829 0.38085 0.0
C1219 C 0.78703 0.69716 0.36737 0.0
C1220 C 0.83238 0.73841 0.37584 0.0
C1221 C 0.81695 0.75945 0.35708 0.0
H1222 H 0.83089 0.6941 0.39625 0.0
H1223 H 0.85576 0.74535 0.38723 0.0
S1224 S 0.73654 0.74125 0.31422 0.0
N1225 N 0.74279 0.7102 0.33238 0.0
N1226 N 0.76854 0.76469 0.32402 0.0
C1227 C 0.78641 0.74792 0.34308 0.0
C1228 C 0.77203 0.71774 0.34788 0.0
C1229 C 1.01319 0.57205 0.91517 0.0
C1230 C 1.00388 0.58622 0.88547 0.0
C1231 C 0.9937 0.54944 0.92624 0.0
C1232 C 0.96431 0.5405 0.90808 0.0
H1233 H 1.0353 0.57916 0.93073 0.0
H1234 H 1.00137 0.53942 0.94952 0.0
S1235 S 0.93002 0.56736 0.82653 0.0
N1236 N 0.96396 0.58733 0.83644 0.0
N1237 N 0.92755 0.54506 0.85749 0.0
C1238 C 0.95513 0.55345 0.87766 0.0
C1239 C 0.97486 0.57624 0.86627 0.0
C1240 C 0.08092 0.89185 0.18349 0.0
C1241 C 0.09255 0.90408 0.21982 0.0
C1242 C 0.07158 0.91127 0.15931 0.0
C1243 C 0.07388 0.94413 0.16989 0.0
H1244 H 0.07838 0.86675 0.17356 0.0
H1245 H 0.06222 0.90022 0.13202 0.0
S1246 S 0.10434 0.98839 0.26179 0.0
N1247 N 0.10609 0.95121 0.26532 0.0
N1248 N 0.09011 0.98817 0.21956 0.0
C1249 C 0.08578 0.95683 0.20623 0.0
C1250 C 0.09474 0.93677 0.23117 0.0
C1251 C 0.99714 0.34313 0.88067 0.0
C1252 C 1.01965 0.36746 0.87763 0.0
C1253 C 0.96587 0.34337 0.8687 0.0
C1254 C 0.95483 0.36835 0.8535 0.0
H1255 H 1.0036 0.32434 0.89438 0.0
H1256 H 0.95004 0.32441 0.87307 0.0
S1257 S 1.0036 0.43857 0.83983 0.0
N1258 N 1.02782 0.4175 0.85809 0.0
N1259 N 0.97002 0.41819 0.83576 0.0
C1260 C 0.97718 0.39248 0.84941 0.0
C1261 C 1.00906 0.39204 0.86142 0.0
C1262 C 0.63002 0.22863 0.71661 0.0
C1263 C 0.60419 0.24314 0.72371 0.0
C1264 C 0.62785 0.1995 0.69369 0.0
C1265 C 0.59973 0.18338 0.67737 0.0
H1266 H 0.65227 0.24116 0.72645 0.0
H1267 H 0.64846 0.19023 0.68732 0.0
S1268 S 0.52509 0.20922 0.69033 0.0
N1269 N 0.54948 0.238 0.71482 0.0
N1270 N 0.54532 0.18237 0.6726 0.0
C1271 C 0.57358 0.19612 0.68672 0.0
C1272 C 0.57582 0.22623 0.70977 0.0
C1273 C 0.71357 0.87092 0.34984 0.0
C1274 C 0.70678 0.87703 0.38571 0.0
C1275 C 0.74375 0.86899 0.34178 0.0
C1276 C 0.76901 0.87264 0.36908 0.0
H1277 H 0.6954 0.86772 0.32763 0.0
H1278 H 0.7472 0.86403 0.31377 0.0
S1279 S 0.76432 0.88881 0.46752 0.0
N1280 N 0.729 0.88676 0.44872 0.0
N1281 N 0.78429 0.88278 0.43384 0.0
C1282 C 0.76242 0.87867 0.40493 0.0
C1283 C 0.73194 0.88095 0.4131 0.0
C1284 C 0.15399 0.34221 0.61986 0.0
C1285 C 0.15163 0.3516 0.58604 0.0
C1286 C 0.13889 0.31382 0.62432 0.0
C1287 C 0.12071 0.29382 0.59519 0.0
H1288 H 0.16744 0.357 0.64325 0.0
H1289 H 0.14159 0.30742 0.65081 0.0
S1290 S 0.10688 0.30735 0.50103 0.0
N1291 N 0.12991 0.3384 0.52267 0.0
N1292 N 0.10111 0.28506 0.53137 0.0
C1293 C 0.11845 0.30257 0.56107 0.0
C1294 C 0.13403 0.33146 0.55641 0.0
C1295 C 0.6392 0.31196 0.15179 0.0
C1296 C 0.61686 0.31627 0.17439 0.0
C1297 C 0.66962 0.31366 0.16646 0.0
C1298 C 0.67858 0.32039 0.20405 0.0
H1299 H 0.63302 0.30588 0.12282 0.0
H1300 H 0.68618 0.30904 0.14835 0.0
S1301 S 0.62888 0.33612 0.27447 0.0
N1302 N 0.60593 0.32944 0.23603 0.0
N1303 N 0.6629 0.33276 0.26331 0.0
C1304 C 0.65658 0.3262 0.22672 0.0
C1305 C 0.62575 0.32411 0.21194 0.0
C1306 C 0.70412 1.00534 0.10466 0.0
C1307 C 0.71488 1.00505 0.07122 0.0
C1308 C 0.68954 1.03051 0.11956 0.0
C1309 C 0.68698 0.05645 0.10231 0.0
H1310 H 0.70332 0.98468 0.11701 0.0
H1311 H 0.67659 1.02751 0.1413 0.0
S1312 S 0.72797 0.07435 0.02794 0.0
N1313 N 0.73318 0.03767 0.03049 0.0
N1314 N 0.70747 0.08586 0.05991 0.0
C1315 C 0.70481 0.05967 0.07496 0.0
C1316 C 0.71861 1.03368 0.05901 0.0
C1317 C 1.01226 0.7995 0.78947 0.0
C1318 C 0.99377 0.80018 0.75685 0.0
C1319 C 1.00612 0.81564 0.82276 0.0
C1320 C 0.9818 0.83364 0.82429 0.0
H1321 H 1.03239 0.78773 0.78916 0.0
H1322 H 1.02116 0.81514 0.84711 0.0
S1323 S 0.92386 0.83839 0.74761 0.0
N1324 N 0.94762 0.81621 0.72937 0.0
N1325 N 0.93739 0.84783 0.7908 0.0
C1326 C 0.96237 0.83279 0.79214 0.0
C1327 C 0.96796 0.81567 0.75875 0.0
C1328 C 0.205 0.08184 0.97559 0.0
C1329 C 0.20402 0.09955 0.9472 0.0
C1330 C 0.18358 0.08316 1.00105 0.0
C1331 C 0.15996 0.10272 1.00037 0.0
H1332 H 0.22216 0.06619 0.97781 0.0
H1333 H 0.18595 0.069 0.02192 0.0
S1334 S 0.14747 0.15511 0.93313 0.0
N1335 N 0.17668 0.13771 0.92121 0.0
N1336 N 0.13827 0.14102 0.96866 0.0
C1337 C 0.1592 0.12088 0.97258 0.0
C1338 C 0.18045 0.11904 0.94634 0.0
C1339 C 0.80902 0.3661 0.68411 0.0
C1340 C 0.80566 0.39629 0.6761 0.0
C1341 C 0.8229 0.36187 0.71766 0.0
C1342 C 0.83355 0.38752 0.74542 0.0
H1343 H 0.80177 0.34525 0.66375 0.0
H1344 H 0.82514 0.33809 0.72185 0.0
S1345 S 0.82838 0.47145 0.74042 0.0
N1346 N 0.81316 0.45243 0.69992 0.0
N1347 N 0.83811 0.44428 0.76384 0.0
C1348 C 0.82897 0.41782 0.73884 0.0
C1349 C 0.81525 0.42225 0.7041 0.0
C1350 C 0.52749 0.15645 0.47161 0.0
C1351 C 0.54798 0.17697 0.45868 0.0
C1352 C 0.53714 0.13907 0.498 0.0
C1353 C 0.56762 0.14204 0.51338 0.0
H1354 H 0.5041 0.15217 0.45959 0.0
H1355 H 0.52057 0.12268 0.50591 0.0
S1356 S 0.63009 0.19408 0.49097 0.0
N1357 N 0.60015 0.20001 0.46432 0.0
N1358 N 0.61798 0.16834 0.51514 0.0
C1359 C 0.58812 0.1636 0.50214 0.0
C1360 C 0.57841 0.18077 0.4745 0.0
C1361 C 0.85648 0.70669 0.09426 0.0
C1362 C 0.86015 0.71887 0.06294 0.0
C1363 C 0.86955 0.72386 0.12794 0.0
C1364 C 0.88632 0.75353 0.13071 0.0
H1365 H 0.84032 0.68626 0.09324 0.0
H1366 H 0.86272 0.71606 0.15174 0.0
S1367 S 0.91133 0.78883 0.05549 0.0
N1368 N 0.88833 0.75707 0.03573 0.0
N1369 N 0.91308 0.78936 0.09931 0.0
C1370 C 0.89485 0.76251 0.09926 0.0
C1371 C 0.88149 0.74516 0.06508 0.0
C1372 C 0.18999 0.06356 0.73586 0.0
C1373 C 0.20615 0.09182 0.7559 0.0
C1374 C 0.17223 0.0627 0.70192 0.0
C1375 C 0.16915 0.09025 0.68714 0.0
H1376 H 0.18941 0.04243 0.74752 0.0
H1377 H 0.15932 0.04071 0.68831 0.0
S1378 S 0.2087 0.16946 0.72686 0.0
N1379 N 0.21954 0.14733 0.75628 0.0
N1380 N 0.18586 0.14584 0.69405 0.0
C1381 C 0.18629 0.11811 0.70607 0.0
C1382 C 0.20477 0.11885 0.7399 0.0
C1383 C 0.7936 0.4114 0.45958 0.0
C1384 C 0.78477 0.39431 0.48588 0.0
C1385 C 0.80766 0.39748 0.43055 0.0
C1386 C 0.814 0.36596 0.42674 0.0
H1387 H 0.79071 0.43608 0.46213 0.0
H1388 H 0.81499 0.41209 0.41198 0.0
S1389 S 0.79235 0.30964 0.48516 0.0
N1390 N 0.78042 0.34267 0.50317 0.0
N1391 N 0.80824 0.31754 0.45016 0.0
C1392 C 0.80419 0.34829 0.45181 0.0
C1393 C 0.78921 0.36214 0.48083 0.0
C1394 C 0.60203 0.16198 0.26901 0.0
C1395 C 0.57196 0.15573 0.27503 0.0
C1396 C 0.61182 0.14925 0.23662 0.0
C1397 C 0.59211 0.12924 0.2087 0.0
H1398 H 0.61846 0.17631 0.29003 0.0
H1399 H 0.63526 0.15505 0.23375 0.0
S1400 S 0.51076 0.10548 0.21081 0.0
N1401 N 0.52228 0.12853 0.25026 0.0
N1402 N 0.54057 0.10412 0.18934 0.0
C1403 C 0.56175 0.12302 0.21416 0.0
C1404 C 0.55169 0.13647 0.24719 0.0
C1405 C 0.77511 0.7407 0.90509 0.0
C1406 C 0.79212 0.71543 0.89868 0.0
C1407 C 0.78334 0.76934 0.89451 0.0
C1408 C 0.80948 0.77413 0.87829 0.0
H1409 H 0.75664 0.73909 0.92085 0.0
H1410 H 0.76971 0.78807 0.90049 0.0
S1411 S 0.85884 0.71329 0.85051 0.0
N1412 N 0.83394 0.69544 0.87128 0.0
N1413 N 0.8497 0.74929 0.85142 0.0
C1414 C 0.82533 0.74814 0.86926 0.0
C1415 C 0.8165 0.71876 0.87936 0.0
C1416 C 0.99844 0.18456 0.08626 0.0
C1417 C 1.00744 0.21686 0.08717 0.0
C1418 C 1.01845 0.16158 0.08021 0.0
C1419 C 1.04843 0.16984 0.0749 0.0
H1420 H 0.97573 0.17687 0.09048 0.0
H1421 H 1.01074 0.13739 0.08126 0.0
S1422 S 0.08322 0.25042 0.07239 0.0
N1423 N 1.04851 0.2552 0.08029 0.0
N1424 N 0.08574 0.21247 0.06955 0.0
C1425 C 1.05751 0.20185 0.07496 0.0
C1426 C 1.0372 0.22516 0.0809 0.0
C1427 C 0.51797 0.53114 0.17501 0.0
C1428 C 0.49218 0.54701 0.17617 0.0
C1429 C 0.5427 0.54267 0.15987 0.0
C1430 C 0.54239 0.57044 0.14563 0.0
H1431 H 0.51764 0.50798 0.18213 0.0
H1432 H 0.56096 0.52842 0.15645 0.0
S1433 S 0.4826 0.6231 0.14702 0.0
N1434 N 0.46962 0.5939 0.16601 0.0
N1435 N 0.51628 0.61548 0.13738 0.0
C1436 C 0.51835 0.58823 0.15012 0.0
C1437 C 0.49321 0.57663 0.16579 0.0
C1438 C 0.40197 0.70015 0.82251 0.0
C1439 C 0.43275 0.69812 0.83516 0.0
C1440 C 0.38875 0.72935 0.82565 0.0
C1441 C 0.40503 0.75913 0.84205 0.0
H1442 H 0.38765 0.67875 0.80986 0.0
H1443 H 0.36521 0.72841 0.81496 0.0
S1444 S 0.48644 0.7684 0.8802 0.0
N1445 N 0.4789 0.73019 0.86511 0.0
N1446 N 0.45471 0.78349 0.8711 0.0
C1447 C 0.43581 0.7574 0.85487 0.0
C1448 C 0.4493 0.72773 0.85147 0.0
C1449 C 0.32278 0.77486 0.56207 0.0
C1450 C 0.34847 0.75934 0.56847 0.0
C1451 C 0.29402 0.76095 0.56494 0.0
C1452 C 0.28993 0.73109 0.57431 0.0
H1453 H 0.32491 0.79847 0.55627 0.0
H1454 H 0.27509 0.77434 0.56162 0.0
S1455 S 0.34843 0.67827 0.58803 0.0
N1456 N 0.36703 0.71059 0.58034 0.0
N1457 N 0.31277 0.68476 0.58575 0.0
C1458 C 0.31488 0.71437 0.57834 0.0
C1459 C 0.34419 0.72841 0.57532 0.0
C1460 C 0.75147 0.94621 0.87543 0.0
C1461 C 0.7447 0.95918 0.84417 0.0
C1462 C 0.7725 0.92417 0.87697 0.0
C1463 C 0.78629 0.9131 0.84672 0.0
H1464 H 0.74113 0.95384 0.89922 0.0
H1465 H 0.77766 0.91546 0.90178 0.0
S1466 S 0.77777 0.94174 0.75938 0.0
N1467 N 0.75522 0.96134 0.7835 0.0
N1468 N 0.79304 0.91887 0.78531 0.0
C1469 C 0.77994 0.92645 0.81555 0.0
C1470 C 0.75948 0.9496 0.81451 0.0
C1471 C 0.84185 0.11055 0.71863 0.0
C1472 C 0.83963 0.0816 0.73071 0.0
C1473 C 0.81596 0.12213 0.70368 0.0
C1474 C 0.78719 0.10505 0.7005 0.0
H1475 H 0.86374 0.12182 0.71562 0.0
H1476 H 0.81891 0.14253 0.69092 0.0
S1477 S 0.76923 1.03324 0.73869 0.0
N1478 N 0.80633 0.04063 0.74699 0.0
N1479 N 0.75785 0.06152 0.71817 0.0
C1480 C 0.78457 0.07888 0.71785 0.0
C1481 C 0.8108 0.06762 0.73364 0.0
C1482 C 0.40519 0.50509 0.84772 0.0
C1483 C 0.43222 0.50817 0.83173 0.0
C1484 C 0.38972 0.47486 0.8506 0.0
C1485 C 0.40034 0.44565 0.83797 0.0
H1486 H 0.3967 0.52619 0.85993 0.0
H1487 H 0.37017 0.47458 0.86467 0.0
S1488 S 0.4686 0.43929 0.79211 0.0
N1489 N 0.46714 0.47755 0.80132 0.0
N1490 N 0.43937 0.42291 0.80754 0.0
C1491 C 0.42662 0.4486 0.82117 0.0
C1492 C 0.44199 0.4789 0.81785 0.0
C1493 C 0.21747 0.65843 0.33264 0.0
C1494 C 0.22417 0.62725 0.33008 0.0
C1495 C 0.23718 0.68161 0.32277 0.0
C1496 C 0.26409 0.67433 0.30956 0.0
H1497 H 0.19693 0.66502 0.34244 0.0
H1498 H 0.23149 0.70548 0.32587 0.0
S1499 S 0.29079 0.59579 0.29399 0.0
N1500 N 0.25939 0.59024 0.31167 0.0
N1501 N 0.29526 0.63349 0.29175 0.0
C1502 C 0.27069 0.64319 0.30601 0.0
C1503 C 0.25108 0.61977 0.31666 0.0
C1504 C 0.61129 0.78252 0.47949 0.0
C1505 C 0.63174 0.80657 0.47234 0.0
C1506 C 0.6207 0.76131 0.50149 0.0
C1507 C 0.65076 0.76393 0.51819 0.0
H1508 H 0.58752 0.78114 0.46951 0.0
H1509 H 0.60394 0.74379 0.50707 0.0
S1510 S 0.71344 0.82173 0.50647 0.0
N1511 N 0.68369 0.83067 0.48196 0.0
N1512 N 0.70132 0.7913 0.52408 0.0
C1513 C 0.67167 0.7871 0.51013 0.0
C1514 C 0.66217 0.80827 0.48702 0.0
C1515 C 0.72364 0.37854 0.8132 0.0
C1516 C 0.70038 0.35545 0.81737 0.0
C1517 C 0.75453 0.37781 0.82593 0.0
C1518 C 0.76453 0.35368 0.84346 0.0
H1519 H 0.71806 0.39671 0.79803 0.0
H1520 H 0.77093 0.3957 0.82038 0.0
S1521 S 0.71342 0.28816 0.86372 0.0
N1522 N 0.69015 0.30829 0.84233 0.0
N1523 N 0.74762 0.30683 0.86625 0.0
C1524 C 0.74146 0.33119 0.84947 0.0
C1525 C 0.70978 0.33207 0.83656 0.0
C1526 C 0.12687 0.48773 0.96081 0.0
C1527 C 0.10874 0.45978 0.9622 0.0
C1528 C 0.12542 0.5158 0.98495 0.0
C1529 C 0.10564 0.51696 1.01118 0.0
H1530 H 0.14331 0.48756 0.94216 0.0
H1531 H 0.14056 0.53643 0.98373 0.0
S1532 S 1.05005 0.45119 0.02186 0.0
N1533 N 0.06825 0.43591 0.98925 0.0
N1534 N 0.06512 0.48816 0.03399 0.0
C1535 C 0.08616 0.48952 1.01122 0.0
C1536 C 0.08783 0.46109 0.98692 0.0
C1537 C 1.01124 0.83273 0.33843 0.0
C1538 C 1.01751 0.82988 0.30239 0.0
C1539 C 0.98127 0.83368 0.34742 0.0
C1540 C 0.95565 0.83163 0.32092 0.0
H1541 H 1.02972 0.83487 0.36009 0.0
H1542 H 0.97824 0.83644 0.37558 0.0
S1543 S 0.95904 0.8242 0.22242 0.0
N1544 N 0.99448 0.82494 0.24008 0.0
N1545 N 0.93958 0.82696 0.25673 0.0
C1546 C 0.9617 0.8285 0.28487 0.0
C1547 C 0.992 0.82757 0.27576 0.0
C1548 C 0.529 0.37837 0.12749 0.0
C1549 C 0.53841 0.37317 0.16244 0.0
C1550 C 0.54561 0.40037 0.11227 0.0
C1551 C 0.57234 0.41777 0.13136 0.0
H1552 H 0.5091 0.36468 0.11137 0.0
H1553 H 0.53756 0.40363 0.08524 0.0
S1554 S 0.60676 0.41314 0.2238 0.0
N1555 N 0.57583 0.38791 0.21617 0.0
N1556 N 0.6075 0.42855 0.18696 0.0
C1557 C 0.58167 0.41337 0.16663 0.0
C1558 C 0.56454 0.39129 0.18236 0.0
C1559 C 0.07739 0.4571 0.55805 0.0
C1560 C 0.10282 0.46523 0.54187 0.0
C1561 C 1.04864 0.45037 0.5377 0.0
C1562 C 1.04439 0.45186 0.50067 0.0
H1563 H 0.07997 0.45335 0.5857 0.0
H1564 H 1.02978 0.44264 0.55065 0.0
S1565 S 0.10347 0.47608 0.44718 0.0
N1566 N 0.12159 0.47811 0.48808 0.0
N1567 N 0.06777 0.4649 0.44966 0.0
C1568 C 0.0693 0.46264 0.48509 0.0
C1569 C 0.09847 0.46956 0.5058 0.0
C1570 C 1.01571 0.69636 0.56477 0.0
C1571 C 1.00622 0.70707 0.59844 0.0
C1572 C 1.03456 0.67248 0.5611 0.0
C1573 C 1.04317 0.65814 0.59051 0.0
H1574 H 1.013 0.70974 0.54317 0.0
H1575 H 1.04573 0.66862 0.53727 0.0
S1576 S 1.01157 0.66628 0.67675 0.0
N1577 N 0.99723 0.69312 0.65602 0.0
N1578 N 1.03241 0.64808 0.64891 0.0
C1579 C 1.02782 0.66328 0.62061 0.0
C1580 C 1.00886 0.68763 0.62445 0.0
C1581 C 0.68674 0.88971 0.88981 0.0
C1582 C 0.70589 0.89129 0.92257 0.0
C1583 C 0.69262 0.87217 0.85727 0.0
C1584 C 0.7176 0.85519 0.85641 0.0
H1585 H 0.66699 0.9021 0.88921 0.0
H1586 H 0.67742 0.87166 0.83274 0.0
S1587 S 0.77645 0.85442 0.93363 0.0
N1588 N 0.75191 0.87596 0.95129 0.0
N1589 N 0.76291 0.84348 0.89051 0.0
C1590 C 0.73711 0.85715 0.88878 0.0
C1591 C 0.7313 0.87506 0.92175 0.0
C1592 C 0.55972 0.60055 0.74613 0.0
C1593 C 0.52944 0.60822 0.74664 0.0
C1594 C 0.57635 0.60252 0.71668 0.0
C1595 C 0.56411 0.61243 0.68519 0.0
H1596 H 0.57109 0.59228 0.7689 0.0
H1597 H 0.59878 0.59533 0.71834 0.0
S1598 S 0.48704 0.63763 0.67158 0.0
N1599 N 0.48906 0.62777 0.71193 0.0
N1600 N 0.51963 0.63173 0.65725 0.0
C1601 C 0.53425 0.62115 0.68546 0.0
C1602 C 0.51726 0.61909 0.71566 0.0
C1603 C 0.9086 0.28261 0.97366 0.0
C1604 C 0.92486 0.3043 1.00293 0.0
C1605 C 0.89072 0.29256 0.94571 0.0
C1606 C 0.88805 0.32465 0.94584 0.0
H1607 H 0.90953 0.25764 0.97231 0.0
H1608 H 0.87915 0.27489 0.9235 0.0
S1609 S 0.92683 0.39119 1.01552 0.0
N1610 N 0.93768 0.35961 0.02974 0.0
N1611 N 0.90385 0.37815 0.97756 0.0
C1612 C 0.904 0.34661 0.97505 0.0
C1613 C 0.92247 0.3365 1.00339 0.0
C1614 C 0.12979 0.52442 0.21216 0.0
C1615 C 0.15747 0.53276 0.23523 0.0
C1616 C 0.12305 0.53881 0.18193 0.0
C1617 C 0.14336 0.56281 0.17446 0.0
H1618 H 0.11238 0.50835 0.21907 0.0
H1619 H 0.10101 0.53274 0.16594 0.0
S1620 S 0.21933 0.59211 0.22531 0.0
N1621 N 0.20595 0.5649 0.24669 0.0
N1622 N 0.19315 0.59257 0.19113 0.0
C1623 C 0.17176 0.56993 0.19602 0.0
C1624 C 0.17888 0.55468 0.22599 0.0
C1625 C 0.85929 1.02009 0.5682 0.0
C1626 C 0.88488 0.03663 0.59032 0.0
C1627 C 0.86188 1.00252 0.53484 0.0
C1628 C 0.8903 1.00095 0.52307 0.0
H1629 H 0.83804 1.01715 0.57877 0.0
H1630 H 0.84229 0.9868 0.52098 0.0
S1631 S 0.96162 0.04976 0.56586 0.0
N1632 N 0.93741 0.05776 0.59463 0.0
N1633 N 0.94252 1.02463 0.5312 0.0
C1634 C 0.91481 1.02216 0.54202 0.0
C1635 C 0.91203 0.04018 0.57605 0.0
C1636 C 0.50233 0.61881 0.96217 0.0
C1637 C 0.51169 0.61036 0.928 0.0
C1638 C 0.52117 0.61746 0.99468 0.0
C1639 C 0.55004 0.60712 0.99448 0.0
H1640 H 0.48043 0.62686 0.9639 0.0
H1641 H 0.51288 0.62419 0.02013 0.0
S1642 S 0.58621 0.58371 0.91279 0.0
N1643 N 0.55291 0.59237 0.89693 0.0
N1644 N 0.58721 0.58941 0.95696 0.0
C1645 C 0.5596 0.59878 0.9606 0.0
C1646 C 0.54079 0.60049 0.92779 0.0
C1647 C 0.94225 0.35966 0.21173 0.0
C1648 C 0.94129 0.32773 0.19535 0.0
C1649 C 0.92893 0.36873 0.24298 0.0
C1650 C 0.91488 0.34634 0.26022 0.0
H1651 H 0.95127 0.37811 0.19859 0.0
H1652 H 0.92838 0.39353 0.25271 0.0
S1653 S 0.90926 0.25968 0.23198 0.0
N1654 N 0.92702 0.27365 0.20125 0.0
N1655 N 0.9032 0.29062 0.26072 0.0
C1656 C 0.9161 0.31432 0.24629 0.0
C1657 C 0.92917 0.30503 0.21389 0.0
C1658 C 0.18211 0.58464 0.45244 0.0
C1659 C 0.16399 0.5631 0.42463 0.0
C1660 C 0.16974 0.60032 0.48165 0.0
C1661 C 0.13891 0.59433 0.48483 0.0
H1662 H 0.20609 0.58936 0.45173 0.0
H1663 H 0.1848 0.61631 0.50263 0.0
S1664 S 0.08083 0.54452 0.41551 0.0
N1665 N 0.11289 0.54023 0.3992 0.0
N1666 N 0.08984 0.5686 0.45466 0.0
C1667 C 0.12021 0.57446 0.45585 0.0
C1668 C 0.13272 0.55907 0.4257 0.0
C1669 C 0.86899 0.91709 0.71919 0.0
C1670 C 0.885 0.94734 0.73121 0.0
C1671 C 0.86691 0.89518 0.74223 0.0
C1672 C 0.88143 0.90238 0.77783 0.0
H1673 H 0.85794 0.91019 0.69164 0.0
H1674 H 0.85419 0.8723 0.732 0.0
S1675 S 0.92443 0.97853 0.82362 0.0
N1676 N 0.91418 0.98373 0.78196 0.0
N1677 N 0.91079 0.94214 0.82506 0.0
C1678 C 0.89703 0.93257 0.79057 0.0
C1679 C 0.89864 0.95518 0.76731 0.0
C1680 C 0.73311 0.52593 0.62339 0.0
C1681 C 0.72349 0.49388 0.60848 0.0
C1682 C 0.71233 0.5481 0.63019 0.0
C1683 C 0.68091 0.53925 0.62239 0.0
H1684 H 0.75696 0.53427 0.62881 0.0
H1685 H 0.72099 0.57257 0.63979 0.0
S1686 S 0.6437 0.45818 0.58511 0.0
N1687 N 0.68001 0.45462 0.58791 0.0
N1688 N 0.64149 0.49549 0.60078 0.0
C1689 C 0.67114 0.50702 0.60907 0.0
C1690 C 0.69217 0.48462 0.6021 0.0
C1691 C 0.18201 0.16971 0.49962 0.0
C1692 C 0.20906 0.15624 0.49647 0.0
C1693 C 0.16114 0.15891 0.52081 0.0
C1694 C 0.16661 0.13428 0.53946 0.0
H1695 H 0.17795 0.19019 0.48774 0.0
H1696 H 0.14134 0.17087 0.52401 0.0
S1697 S 0.23197 0.08897 0.53812 0.0
N1698 N 0.23861 0.11499 0.51202 0.0
N1699 N 0.19918 0.09506 0.55167 0.0
C1700 C 0.19222 0.11913 0.53469 0.0
C1701 C 0.21345 0.1299 0.51302 0.0
C1702 C 0.32158 1.00409 0.85557 0.0
C1703 C 0.28977 1.00518 0.85092 0.0
C1704 C 0.33532 0.9752 0.85136 0.0
C1705 C 0.31852 0.94477 0.84123 0.0
H1706 H 0.33633 1.02602 0.86312 0.0
H1707 H 0.35968 0.9769 0.85601 0.0
S1708 S 0.2344 0.93284 0.8252 0.0
N1709 N 0.24211 0.97148 0.83562 0.0
N1710 N 0.26721 0.9187 0.82685 0.0
C1711 C 0.2867 0.94553 0.83616 0.0
C1712 C 0.27271 0.97491 0.84115 0.0
C1713 C 0.39747 0.93211 0.04641 0.0
C1714 C 0.37601 0.94577 0.0661 0.0
C1715 C 0.42615 0.94816 0.04757 0.0
C1716 C 0.43439 0.97816 0.06881 0.0
H1717 H 0.39207 0.90892 0.0299 0.0
H1718 H 0.44216 0.93687 0.03218 0.0
S1719 S 0.38674 1.02471 0.12467 0.0
N1720 N 0.36509 0.99153 0.10705 0.0
N1721 N 0.41917 1.02142 0.10901 0.0
C1722 C 0.41328 0.99224 0.08834 0.0
C1723 C 0.384 0.97612 0.087 0.0
C1724 C 0.95 0.74018 0.79753 0.0
C1725 C 0.96174 0.73362 0.83136 0.0
C1726 C 0.92714 0.76039 0.79439 0.0
C1727 C 0.9153 0.77469 0.82499 0.0
H1728 H 0.95874 0.72995 0.77347 0.0
H1729 H 0.91929 0.7654 0.7681 0.0
S1730 S 0.93532 0.76042 0.91869 0.0
N1731 N 0.95773 0.74029 0.895 0.0
N1732 N 0.91505 0.77706 0.88967 0.0
C1733 C 0.92604 0.76667 0.85854 0.0
C1734 C 0.94919 0.74656 0.86158 0.0
C1735 C 0.86947 0.59142 0.9802 0.0
C1736 C 0.87284 0.62053 0.96848 0.0
C1737 C 0.89401 0.58022 0.99833 0.0
C1738 C 0.92259 0.5978 1.00524 0.0
H1739 H 0.84736 0.57833 0.97786 0.0
H1740 H 0.89013 0.5589 1.00925 0.0
S1741 S 0.94481 0.67184 0.97371 0.0
N1742 N 0.90824 0.66391 0.9599 0.0
N1743 N 0.95413 0.64289 0.99439 0.0
C1744 C 0.92695 0.62512 0.99041 0.0
C1745 C 0.90211 0.63642 0.97173 0.0
C1746 C 0.31549 0.2072 0.88228 0.0
C1747 C 0.28612 0.19432 0.86411 0.0
C1748 C 0.33038 0.23732 0.87776 0.0
C1749 C 0.31686 0.25673 0.85495 0.0
H1750 H 0.32673 0.19455 0.90119 0.0
H1751 H 0.35233 0.24578 0.89312 0.0
S1752 S 0.24117 0.23366 0.79947 0.0
N1753 N 0.24557 0.20401 0.82081 0.0
N1754 N 0.27208 0.25843 0.813 0.0
C1755 C 0.28799 0.24337 0.83622 0.0
C1756 C 0.27321 0.21318 0.84059 0.0
C1757 C 0.51419 0.07214 0.41776 0.0
C1758 C 0.50392 0.09002 0.39192 0.0
C1759 C 0.49466 0.04895 0.42777 0.0
C1760 C 0.46416 0.04324 0.41278 0.0
H1761 H 0.53728 0.07644 0.43092 0.0
H1762 H 0.50332 1.03583 0.44787 0.0
S1763 S 0.42634 0.08126 0.3421 0.0
N1764 N 0.46134 0.09864 0.35002 0.0
N1765 N 0.42491 0.05539 0.36927 0.0
C1766 C 0.45373 0.06029 0.38642 0.0
C1767 C 0.47356 0.08358 0.37592 0.0
C1768 C 0.5838 0.43106 0.73322 0.0
C1769 C 0.59945 0.4049 0.72454 0.0
C1770 C 0.57703 0.45079 0.70807 0.0
C1771 C 0.58545 0.44506 0.67311 0.0
H1772 H 0.57576 0.43571 0.75913 0.0
H1773 H 0.56437 0.4702 0.71575 0.0
S1774 S 0.62986 0.38182 0.6384 0.0
N1775 N 0.62535 0.37605 0.67939 0.0
N1776 N 0.61251 0.41269 0.63257 0.0
C1777 C 0.60204 0.41967 0.6647 0.0
C1778 C 0.6091 0.39979 0.69027 0.0
C1779 C 0.51029 0.89702 0.36047 0.0
C1780 C 0.52212 0.87257 0.37604 0.0
C1781 C 0.4788 0.89644 0.34865 0.0
C1782 C 0.45698 0.87158 0.35212 0.0
H1783 H 0.52525 0.91785 0.35946 0.0
H1784 H 0.47135 0.91653 0.33819 0.0
S1785 S 0.47547 0.80174 0.39139 0.0
N1786 N 0.50862 0.82265 0.39408 0.0
N1787 N 0.45053 0.82141 0.37205 0.0
C1788 C 0.46865 0.84659 0.36666 0.0
C1789 C 0.50063 0.8472 0.37859 0.0
C1790 C 0.13585 0.73247 0.20709 0.0
C1791 C 0.10985 0.74523 0.21717 0.0
C1792 C 0.13397 0.70317 0.18461 0.0
C1793 C 0.10606 0.68506 0.17171 0.0
H1794 H 0.15775 0.74633 0.21452 0.0
H1795 H 0.15451 0.69522 0.17609 0.0
S1796 S 1.03148 0.70589 0.19327 0.0
N1797 N 1.05547 0.73636 0.21473 0.0
N1798 N 1.05197 0.68045 0.17331 0.0
C1799 C 0.08005 0.69615 0.18399 0.0
C1800 C 0.08194 0.72645 0.20661 0.0
C1801 C 0.22892 0.37737 0.91338 0.0
C1802 C 0.20391 0.37396 0.88585 0.0
C1803 C 0.25904 0.37542 0.90591 0.0
C1804 C 0.2664 0.37067 0.87037 0.0
H1805 H 0.22521 0.38133 0.94135 0.0
H1806 H 0.27684 0.37789 0.92843 0.0
S1807 S 0.20995 0.36001 0.78781 0.0
N1808 N 0.18929 0.36502 0.82101 0.0
N1809 N 0.24522 0.36225 0.80707 0.0
C1810 C 0.24168 0.3674 0.8425 0.0
C1811 C 0.21085 0.36878 0.85013 0.0
C1812 C 0.66013 0.82325 0.04278 0.0
C1813 C 0.64392 0.84907 0.04155 0.0
C1814 C 0.64632 0.79505 0.04987 0.0
C1815 C 0.61609 0.7922 0.05641 0.0
H1816 H 0.68401 0.82554 0.04065 0.0
H1817 H 0.65998 0.7762 0.05283 0.0
S1818 S 0.56341 0.85228 0.05171 0.0
N1819 N 0.59575 0.86951 0.04391 0.0
N1820 N 0.56968 0.81645 0.05738 0.0
C1821 C 0.59921 0.81727 0.05277 0.0
C1822 C 0.61321 0.8458 0.04531 0.0
C1823 C 0.12893 0.76901 0.67387 0.0
C1824 C 0.12092 0.79131 0.65259 0.0
C1825 C 0.15855 0.76978 0.69019 0.0
C1826 C 0.18115 0.79311 0.68622 0.0
H1827 H 0.11195 0.75142 0.67894 0.0
H1828 H 0.16351 0.75285 0.70737 0.0
S1829 S 0.17261 0.85474 0.63013 0.0
N1830 N 0.1384 0.83571 0.62588 0.0
N1831 N 0.19433 0.83724 0.65691 0.0
C1832 C 0.17384 0.81455 0.66352 0.0
C1833 C 0.14366 0.81354 0.64649 0.0
C1834 C 0.20119 0.51348 0.61369 0.0
C1835 C 0.21357 0.50697 0.58119 0.0
C1836 C 0.18653 0.54038 0.62148 0.0
C1837 C 0.18531 0.56197 0.59785 0.0
H1838 H 0.19945 0.4962 0.63096 0.0
H1839 H 0.17276 0.54193 0.64311 0.0
S1840 S 0.22855 0.56378 0.52114 0.0
N1841 N 0.23339 0.52967 0.5333 0.0
N1842 N 0.20731 0.58109 0.54919 0.0
C1843 C 0.20392 0.55933 0.57067 0.0
C1844 C 0.21793 0.53157 0.56204 0.0
C1845 C 0.46873 0.31505 0.27384 0.0
C1846 C 0.49338 0.29782 0.27099 0.0
C1847 C 0.46671 0.33574 0.3055 0.0
C1848 C 0.48866 0.33961 0.33598 0.0
H1849 H 0.45201 0.31447 0.25064 0.0
H1850 H 0.44814 0.3496 0.30582 0.0
S1851 S 0.55375 0.2944 0.34574 0.0
N1852 N 0.53772 0.28192 0.30362 0.0
N1853 N 0.53303 0.32062 0.36365 0.0
C1854 C 0.51152 0.31992 0.33513 0.0
C1855 C 0.51396 0.29895 0.30253 0.0
C1856 C 0.72045 0.5918 0.48459 0.0
C1857 C 0.71011 0.59829 0.4503 0.0
C1858 C 0.70182 0.59198 0.51251 0.0
C1859 C 0.67132 0.59877 0.50865 0.0
H1860 H 0.74331 0.58626 0.49004 0.0
H1861 H 0.71182 0.5868 0.53794 0.0
S1862 S 0.63236 0.61794 0.42456 0.0
N1863 N 0.66629 0.61186 0.41444 0.0
N1864 N 0.63214 0.61258 0.46663 0.0
C1865 C 0.66054 0.6053 0.4745 0.0
C1866 C 0.67954 0.60498 0.44575 0.0
C1867 C 0.32331 0.92482 0.1999 0.0
C1868 C 0.30348 0.9005 0.17706 0.0
C1869 C 0.33749 0.92042 0.23369 0.0
C1870 C 0.33264 0.89144 0.24531 0.0
H1871 H 0.32936 0.94657 0.19067 0.0
H1872 H 0.35332 0.93925 0.25003 0.0
S1873 S 0.27868 0.8227 0.19878 0.0
N1874 N 0.27684 0.84812 0.17096 0.0
N1875 N 0.30338 0.84001 0.23386 0.0
C1876 C 0.31129 0.86796 0.22391 0.0
C1877 C 0.29675 0.87246 0.18996 0.0
C1878 C 1.02574 0.65358 0.96465 0.0
C1879 C 1.04577 0.67415 0.95112 0.0
C1880 C 1.0358 0.63718 0.99186 0.0
C1881 C 0.06631 0.64103 1.00739 0.0
H1882 H 1.00238 0.64852 0.95253 0.0
H1883 H 1.01953 0.6208 1.00027 0.0
S1884 S 0.12779 0.69327 0.98323 0.0
N1885 N 0.0976 0.69804 0.9562 0.0
N1886 N 0.11624 0.66805 1.00831 0.0
C1887 C 0.08639 0.66251 0.99534 0.0
C1888 C 0.07623 0.67877 0.96697 0.0
C1889 C 0.33863 0.17951 0.60903 0.0
C1890 C 0.3081 0.17584 0.59447 0.0
C1891 C 0.34744 0.19287 0.64538 0.0
C1892 C 0.32574 0.20292 0.66713 0.0
H1893 H 0.35584 0.1772 0.59141 0.0
H1894 H 0.37118 0.20037 0.65456 0.0
S1895 S 0.24284 0.18505 0.64408 0.0
N1896 N 0.25624 0.17278 0.60625 0.0
N1897 N 0.27263 0.19825 0.67467 0.0
C1898 C 0.29523 0.19217 0.65474 0.0
C1899 C 0.28636 0.17853 0.61789 0.0
C1900 C 0.6935 0.56788 0.23874 0.0
C1901 C 0.70993 0.59557 0.2597 0.0
C1902 C 0.67565 0.56829 0.20528 0.0
C1903 C 0.67271 0.59659 0.19207 0.0
H1904 H 0.6928 0.54621 0.24933 0.0
H1905 H 0.66258 0.54668 0.19083 0.0
S1906 S 0.7131 0.67481 0.23475 0.0
N1907 N 0.72384 0.6514 0.26272 0.0
N1908 N 0.68992 0.6523 0.20133 0.0
C1909 C 0.69013 0.62394 0.21192 0.0
C1910 C 0.70875 0.62338 0.24522 0.0
C1911 C 0.29121 0.90781 0.9568 0.0
C1912 C 0.28497 0.8915 0.98476 0.0
C1913 C 0.30489 0.89398 0.92745 0.0
C1914 C 0.31345 0.86336 0.92495 0.0
H1915 H 0.28651 0.93192 0.95816 0.0
H1916 H 0.31021 0.90809 0.90755 0.0
S1917 S 0.29883 0.80888 0.98797 0.0
N1918 N 0.28527 0.84121 1.00511 0.0
N1919 N 0.31247 0.81633 0.95138 0.0
C1920 C 0.30616 0.84631 0.95169 0.0
C1921 C 0.29153 0.86003 0.98109 0.0
C1922 C 1.0535 0.62699 0.7429 0.0
C1923 C 0.06746 0.6544 0.76646 0.0
C1924 C 0.06468 0.61608 0.71057 0.0
C1925 C 0.09029 0.63215 0.7007 0.0
H1926 H 1.03464 0.61316 0.75027 0.0
H1927 H 1.05339 0.5947 0.69342 0.0
S1928 S 0.13345 0.70661 0.75262 0.0
N1929 N 0.10719 0.69799 0.77744 0.0
N1930 N 0.12795 0.67838 0.71676 0.0
C1931 C 0.10379 0.66021 0.72381 0.0
C1932 C 0.09244 0.67109 0.75662 0.0
C1933 C 0.32429 0.23824 0.40492 0.0
C1934 C 0.3061 0.2384 0.43247 0.0
C1935 C 0.33321 0.26605 0.39286 0.0
C1936 C 0.32395 0.29493 0.40766 0.0
H1937 H 0.33253 0.21671 0.39341 0.0
H1938 H 0.34703 0.26478 0.3713 0.0
S1939 S 0.27452 0.30749 0.47859 0.0
N1940 N 0.27814 0.26959 0.47324 0.0
N1941 N 0.29461 0.3217 0.44999 0.0
C1942 C 0.30521 0.29525 0.43454 0.0
C1943 C 0.29636 0.26702 0.44712 0.0
C1944 C 0.49925 0.68269 0.57518 0.0
C1945 C 0.50819 0.71553 0.58271 0.0
C1946 C 0.52019 0.6607 0.5688 0.0
C1947 C 0.55117 0.67047 0.56996 0.0
H1948 H 0.47579 0.67377 0.57424 0.0
H1949 H 0.5122 0.63586 0.56446 0.0
S1950 S 0.58663 0.75344 0.58779 0.0
N1951 N 0.55054 0.75631 0.58988 0.0
N1952 N 0.58951 0.71544 0.57881 0.0
C1953 C 0.5603 0.70317 0.57701 0.0
C1954 C 0.53902 0.7255 0.5831 0.0
C1955 C 0.99469 0.06545 0.66093 0.0
C1956 C 0.98672 1.03372 0.66302 0.0
C1957 C 1.02091 0.07468 0.64658 0.0
C1958 C 1.03965 0.05239 0.63405 0.0
H1959 H 0.97919 0.08254 0.66696 0.0
H1960 H 1.02515 0.09873 0.64251 0.0
S1961 S 1.03235 0.96818 0.64127 0.0
N1962 N 1.00254 0.98137 0.65731 0.0
N1963 N 1.05133 0.99872 0.63007 0.0
C1964 C 1.03362 1.02149 0.63961 0.0
C1965 C 1.00729 1.01217 0.65437 0.0
C1966 C 0.94681 0.22604 0.35053 0.0
C1967 C 0.93084 0.19677 0.33188 0.0
C1968 C 0.93373 0.25533 0.35467 0.0
C1969 C 0.90345 0.2581 0.34049 0.0
H1970 H 0.96995 0.22645 0.36252 0.0
H1971 H 0.94781 0.27624 0.36928 0.0
S1972 S 0.85101 0.18948 0.28831 0.0
N1973 N 0.88214 0.17373 0.29863 0.0
N1974 N 0.8583 0.22727 0.30588 0.0
C1975 C 0.88731 0.22905 0.32152 0.0
C1976 C 0.9006 0.19921 0.31744 0.0
C1977 C 0.82584 0.28091 0.07945 0.0
C1978 C 0.85002 0.2638 0.07205 0.0
C1979 C 0.79836 0.26576 0.0848 0.0
C1980 C 0.79403 0.233 0.0824 0.0
H1981 H 0.82863 0.30634 0.08327 0.0
H1982 H 0.78076 0.27985 0.09232 0.0
S1983 S 0.8485 0.17701 0.05864 0.0
N1984 N 0.86668 0.21192 0.05871 0.0
N1985 N 0.81474 0.18353 0.06885 0.0
C1986 C 0.81709 0.21535 0.0724 0.0
C1987 C 0.84521 0.23076 0.06722 0.0
C1988 C 0.27272 0.4687 0.36921 0.0
C1989 C 0.24646 0.46382 0.34372 0.0
C1990 C 0.29281 0.44577 0.37032 0.0
C1991 C 0.28788 0.41726 0.34539 0.0
H1992 H 0.27782 0.49052 0.38846 0.0
H1993 H 0.31263 0.45075 0.39049 0.0
S1994 S 0.22337 0.39456 0.27121 0.0
N1995 N 0.21691 0.42905 0.29251 0.0
N1996 N 0.25499 0.38672 0.29292 0.0
C1997 C 0.26177 0.41253 0.31933 0.0
C1998 C 0.241 0.43555 0.31894 0.0
C1999 C 0.30258 0.55226 0.20197 0.0
C2000 C 0.33188 0.56818 0.21229 0.0
C2001 C 0.27952 0.56672 0.18575 0.0
C2002 C 0.28466 0.59792 0.1804 0.0
H2003 H 0.29849 0.52726 0.20193 0.0
H2004 H 0.25826 0.55258 0.17454 0.0
S2005 S 0.3546 0.65257 0.21272 0.0
N2006 N 0.36297 0.61871 0.22321 0.0
N2007 N 0.319 0.64631 0.19379 0.0
C2008 C 0.31228 0.6156 0.19597 0.0
C2009 C 0.33604 0.60066 0.21206 0.0
C2010 C 0.90505 1.00615 0.35094 0.0
C2011 C 0.9284 1.00796 0.32896 0.0
C2012 C 0.88889 0.97672 0.35469 0.0
C2013 C 0.89474 0.9468 0.33672 0.0
H2014 H 0.90011 1.0276 0.36694 0.0
H2015 H 0.87203 0.97748 0.37281 0.0
S2016 S 0.95316 0.93731 0.27544 0.0
N2017 N 0.95591 0.97577 0.2888 0.0
N2018 N 0.92592 0.9221 0.29518 0.0
C2019 C 0.91748 0.94842 0.31407 0.0
C2020 C 0.93405 0.9782 0.31052 0.0
C2021 C 0.74673 0.11954 0.82957 0.0
C2022 C 0.71898 0.12523 0.84182 0.0
C2023 C 0.76555 0.14337 0.81995 0.0
C2024 C 0.75775 0.17402 0.82285 0.0
H2025 H 0.75382 0.09624 0.82644 0.0
H2026 H 0.78654 0.13784 0.81052 0.0
S2027 S 0.68833 0.20195 0.85365 0.0
N2028 N 0.68493 0.16426 0.8563 0.0
N2029 N 0.72085 0.20926 0.83877 0.0
C2030 C 0.73045 0.18036 0.83542 0.0
C2031 C 0.71096 0.15595 0.8448 0.0
loop_
_geom_bond_atom_site_label_1
_geom_bond_atom_site_label_2
_geom_bond_distance
_geom_bond_site_symmetry_2
_ccdc_geom_bond_type
Co0 O1 2.216 . S
Co0 O2 2.091 . S
Co0 O4 2.004 . S
Co0 O10 2.021 . S
Co0 O12 2.137 . S
Co0 O13 2.244 . S
O1 Co0 2.216 . S
O1 C8 1.247 . S
O2 Co0 2.091 . S
O2 C8 1.261 . S
C3 O12 1.247 . S
C3 O13 1.272 . S
O4 Co0 2.004 . S
O4 C9 1.259 . S
Co5 O6 2.061 . S
Co5 O11 2.052 . S
Co5 O13 2.135 . S
O6 Co5 2.061 . S
O6 C9 1.235 . S
C7 O10 1.238 . S
C7 O11 1.241 . S
C8 O1 1.247 . S
C8 O2 1.261 . S
C9 O4 1.259 . S
C9 O6 1.235 . S
O10 Co0 2.021 . S
O10 C7 1.238 . S
O11 Co5 2.052 . S
O11 C7 1.241 . S
O12 Co0 2.137 . S
O12 C3 1.247 . S
O13 Co0 2.244 . S
O13 C3 1.272 . S
O13 Co5 2.135 . S
Co14 O15 2.216 . S
Co14 O16 2.091 . S
Co14 O18 2.004 1_655 S
Co14 O24 2.021 . S
Co14 O26 2.137 . S
Co14 O27 2.244 1_655 S
O15 Co14 2.216 . S
O15 C22 1.247 . S
O16 Co14 2.091 . S
O16 C22 1.261 . S
C17 O26 1.247 1_455 S
C17 O27 1.272 . S
O18 Co14 2.004 1_455 S
O18 C23 1.259 . S
Co19 O20 2.061 . S
Co19 O25 2.052 . S
Co19 O27 2.135 . S
O20 Co19 2.061 . S
O20 C23 1.235 . S
C21 O24 1.238 . S
C21 O25 1.241 1_655 S
C22 O15 1.247 . S
C22 O16 1.261 . S
C23 O18 1.259 . S
C23 O20 1.235 . S
O24 Co14 2.021 . S
O24 C21 1.238 . S
O25 Co19 2.052 . S
O25 C21 1.241 1_455 S
O26 Co14 2.137 . S
O26 C17 1.247 1_655 S
O27 Co14 2.244 1_455 S
O27 C17 1.272 . S
O27 Co19 2.135 . S
Co28 O29 2.216 1_556 S
Co28 O30 2.091 . S
Co28 O32 2.004 . S
Co28 O38 2.021 1_556 S
Co28 O40 2.136 . S
Co28 O41 2.244 1_556 S
O29 Co28 2.216 1_554 S
O29 C36 1.247 1_554 S
O30 Co28 2.091 . S
O30 C36 1.261 . S
C31 O40 1.215 1_554 S
C31 O41 1.272 . S
O32 Co28 2.004 . S
O32 C37 1.259 . S
Co33 O34 2.061 . S
Co33 O39 2.052 . S
Co33 O41 2.135 . S
O34 Co33 2.061 . S
O34 C37 1.235 1_554 S
C35 O38 1.238 . S
C35 O39 1.241 . S
C36 O29 1.247 1_556 S
C36 O30 1.261 . S
C37 O32 1.259 . S
C37 O34 1.235 1_556 S
O38 Co28 2.021 1_554 S
O38 C35 1.238 . S
O39 Co33 2.052 . S
O39 C35 1.241 . S
O40 Co28 2.136 . S
O40 C31 1.215 1_556 S
O41 Co28 2.244 1_554 S
O41 C31 1.272 . S
O41 Co33 2.135 . S
Co42 O43 2.216 . S
Co42 O44 2.091 . S
Co42 O46 2.004 . S
Co42 O52 2.021 . S
Co42 O54 2.137 . S
Co42 O55 2.244 . S
O43 Co42 2.216 . S
O43 C50 1.247 . S
O44 Co42 2.091 . S
O44 C50 1.261 . S
C45 O54 1.247 . S
C45 O55 1.272 . S
O46 Co42 2.004 . S
O46 C51 1.259 . S
Co47 O48 2.061 . S
Co47 O53 2.052 . S
Co47 O55 2.135 . S
O48 Co47 2.061 . S
O48 C51 1.235 . S
C49 O52 1.238 . S
C49 O53 1.241 . S
C50 O43 1.247 . S
C50 O44 1.261 . S
C51 O46 1.259 . S
C51 O48 1.235 . S
O52 Co42 2.021 . S
O52 C49 1.238 . S
O53 Co47 2.052 . S
O53 C49 1.241 . S
O54 Co42 2.137 . S
O54 C45 1.247 . S
O55 Co42 2.244 . S
O55 C45 1.272 . S
O55 Co47 2.135 . S
Co56 O57 2.216 1_455 S
Co56 O58 2.091 . S
Co56 O60 2.004 . S
Co56 O66 2.021 . S
Co56 O68 2.137 . S
Co56 O69 2.244 . S
O57 Co56 2.216 1_655 S
O57 C64 1.247 . S
O58 Co56 2.091 . S
O58 C64 1.261 1_455 S
C59 O68 1.247 . S
C59 O69 1.272 . S
O60 Co56 2.004 . S
O60 C65 1.259 . S
Co61 O62 2.061 . S
Co61 O67 2.052 . S
Co61 O69 2.135 . S
O62 Co61 2.061 . S
O62 C65 1.235 . S
C63 O66 1.238 . S
C63 O67 1.241 . S
C64 O57 1.247 . S
C64 O58 1.261 1_655 S
C65 O60 1.259 . S
C65 O62 1.235 . S
O66 Co56 2.021 . S
O66 C63 1.238 . S
O67 Co61 2.052 . S
O67 C63 1.241 . S
O68 Co56 2.137 . S
O68 C59 1.247 . S
O69 Co56 2.244 . S
O69 C59 1.272 . S
O69 Co61 2.135 . S
Co70 O71 2.216 . S
Co70 O72 2.091 . S
Co70 O74 2.004 . S
Co70 O80 2.021 . S
Co70 O82 2.137 . S
Co70 O83 2.244 . S
O71 Co70 2.216 . S
O71 C78 1.247 . S
O72 Co70 2.091 . S
O72 C78 1.261 . S
C73 O82 1.247 . S
C73 O83 1.272 . S
O74 Co70 2.004 . S
O74 C79 1.259 . S
Co75 O76 2.061 . S
Co75 O81 2.052 . S
Co75 O83 2.135 . S
O76 Co75 2.061 . S
O76 C79 1.235 . S
C77 O80 1.238 . S
C77 O81 1.241 . S
C78 O71 1.247 . S
C78 O72 1.261 . S
C79 O74 1.259 . S
C79 O76 1.235 . S
O80 Co70 2.021 . S
O80 C77 1.238 . S
O81 Co75 2.052 . S
O81 C77 1.241 . S
O82 Co70 2.137 . S
O82 C73 1.247 . S
O83 Co70 2.244 . S
O83 C73 1.272 . S
O83 Co75 2.135 . S
Co84 O85 2.216 . S
Co84 O86 2.091 . S
Co84 O88 2.004 . S
Co84 O94 2.021 . S
Co84 O96 2.137 . S
Co84 O97 2.244 . S
O85 Co84 2.216 . S
O85 C92 1.247 . S
O86 Co84 2.091 . S
O86 C92 1.261 . S
C87 O96 1.247 . S
C87 O97 1.272 . S
O88 Co84 2.004 . S
O88 C93 1.259 . S
Co89 O90 2.061 . S
Co89 O95 2.052 . S
Co89 O97 2.135 . S
O90 Co89 2.061 . S
O90 C93 1.235 . S
C91 O94 1.238 . S
C91 O95 1.241 . S
C92 O85 1.247 . S
C92 O86 1.261 . S
C93 O88 1.259 . S
C93 O90 1.235 . S
O94 Co84 2.021 . S
O94 C91 1.238 . S
O95 Co89 2.052 . S
O95 C91 1.241 . S
O96 Co84 2.137 . S
O96 C87 1.247 . S
O97 Co84 2.244 . S
O97 C87 1.272 . S
O97 Co89 2.135 . S
Co98 O99 2.216 . S
Co98 O100 2.091 . S
Co98 O102 2.004 . S
Co98 O108 2.021 . S
Co98 O110 2.137 . S
Co98 O111 2.244 . S
O99 Co98 2.216 . S
O99 C106 1.247 . S
O100 Co98 2.091 . S
O100 C106 1.261 . S
C101 O110 1.247 . S
C101 O111 1.272 . S
O102 Co98 2.004 . S
O102 C107 1.259 . S
Co103 O104 2.059 1_455 S
Co103 O109 2.052 . S
Co103 O111 2.135 . S
O104 Co103 2.059 1_655 S
O104 C107 1.233 1_655 S
C105 O108 1.238 . S
C105 O109 1.241 . S
C106 O99 1.247 . S
C106 O100 1.261 . S
C107 O102 1.259 . S
C107 O104 1.233 1_455 S
O108 Co98 2.021 . S
O108 C105 1.238 . S
O109 Co103 2.052 . S
O109 C105 1.241 . S
O110 Co98 2.137 . S
O110 C101 1.247 . S
O111 Co98 2.244 . S
O111 C101 1.272 . S
O111 Co103 2.135 . S
Co112 O113 2.216 . S
Co112 O114 2.091 . S
Co112 O116 2.004 . S
Co112 O122 2.021 . S
Co112 O124 2.137 . S
Co112 O125 2.244 . S
O113 Co112 2.216 . S
O113 C120 1.247 . S
O114 Co112 2.091 . S
O114 C120 1.261 . S
C115 O124 1.247 . S
C115 O125 1.272 . S
O116 Co112 2.004 . S
O116 C121 1.259 . S
Co117 O118 2.061 . S
Co117 O123 2.052 . S
Co117 O125 2.135 . S
O118 Co117 2.061 . S
O118 C121 1.235 . S
C119 O122 1.238 . S
C119 O123 1.241 . S
C120 O113 1.247 . S
C120 O114 1.261 . S
C121 O116 1.259 . S
C121 O118 1.235 . S
O122 Co112 2.021 . S
O122 C119 1.238 . S
O123 Co117 2.052 . S
O123 C119 1.241 . S
O124 Co112 2.137 . S
O124 C115 1.247 . S
O125 Co112 2.244 . S
O125 C115 1.272 . S
O125 Co117 2.135 . S
Co126 O127 2.216 . S
Co126 O128 2.091 . S
Co126 O130 2.004 . S
Co126 O136 2.021 . S
Co126 O138 2.137 . S
Co126 O139 2.244 . S
O127 Co126 2.216 . S
O127 C134 1.247 . S
O128 Co126 2.091 . S
O128 C134 1.261 . S
C129 O138 1.247 . S
C129 O139 1.272 . S
O130 Co126 2.004 . S
O130 C135 1.259 . S
Co131 O132 2.061 . S
Co131 O137 2.052 . S
Co131 O139 2.135 . S
O132 Co131 2.061 . S
O132 C135 1.235 . S
C133 O136 1.238 . S
C133 O137 1.241 . S
C134 O127 1.247 . S
C134 O128 1.261 . S
C135 O130 1.259 . S
C135 O132 1.235 . S
O136 Co126 2.021 . S
O136 C133 1.238 . S
O137 Co131 2.052 . S
O137 C133 1.241 . S
O138 Co126 2.137 . S
O138 C129 1.247 . S
O139 Co126 2.244 . S
O139 C129 1.272 . S
O139 Co131 2.135 . S
Co140 O141 2.216 1_545 S
Co140 O142 2.091 . S
Co140 O144 2.004 . S
Co140 O150 2.021 . S
Co140 O152 2.137 . S
Co140 O153 2.244 . S
O141 Co140 2.216 1_565 S
O141 C148 1.247 . S
O142 Co140 2.091 . S
O142 C148 1.261 1_545 S
C143 O152 1.247 . S
C143 O153 1.272 . S
O144 Co140 2.004 . S
O144 C149 1.259 . S
Co145 O146 2.061 . S
Co145 O151 2.052 . S
Co145 O153 2.135 . S
O146 Co145 2.061 . S
O146 C149 1.235 . S
C147 O150 1.238 . S
C147 O151 1.241 . S
C148 O141 1.247 . S
C148 O142 1.261 1_565 S
C149 O144 1.259 . S
C149 O146 1.235 . S
O150 Co140 2.021 . S
O150 C147 1.238 . S
O151 Co145 2.052 . S
O151 C147 1.241 . S
O152 Co140 2.137 . S
O152 C143 1.247 . S
O153 Co140 2.244 . S
O153 C143 1.272 . S
O153 Co145 2.135 . S
Co154 O155 2.216 . S
Co154 O156 2.091 . S
Co154 O158 2.004 . S
Co154 O164 2.021 . S
Co154 O166 2.137 . S
Co154 O167 2.244 . S
O155 Co154 2.216 . S
O155 C162 1.247 . S
O156 Co154 2.091 . S
O156 C162 1.261 . S
C157 O166 1.247 . S
C157 O167 1.272 . S
O158 Co154 2.004 . S
O158 C163 1.259 . S
Co159 O160 2.061 . S
Co159 O165 2.052 . S
Co159 O167 2.135 . S
O160 Co159 2.061 . S
O160 C163 1.235 . S
C161 O164 1.238 . S
C161 O165 1.241 . S
C162 O155 1.247 . S
C162 O156 1.261 . S
C163 O158 1.259 . S
C163 O160 1.235 . S
O164 Co154 2.021 . S
O164 C161 1.238 . S
O165 Co159 2.052 . S
O165 C161 1.241 . S
O166 Co154 2.137 . S
O166 C157 1.247 . S
O167 Co154 2.244 . S
O167 C157 1.272 . S
O167 Co159 2.135 . S
Co168 O169 2.216 . S
Co168 O170 2.091 . S
Co168 O172 2.004 . S
Co168 O178 2.021 . S
Co168 O180 2.137 . S
Co168 O181 2.244 . S
O169 Co168 2.216 . S
O169 C176 1.247 . S
O170 Co168 2.091 . S
O170 C176 1.261 . S
C171 O180 1.247 . S
C171 O181 1.272 . S
O172 Co168 2.004 . S
O172 C177 1.259 . S
Co173 O174 2.061 . S
Co173 O179 2.052 . S
Co173 O181 2.135 . S
O174 Co173 2.061 . S
O174 C177 1.235 . S
C175 O178 1.238 . S
C175 O179 1.241 . S
C176 O169 1.247 . S
C176 O170 1.261 . S
C177 O172 1.259 . S
C177 O174 1.235 . S
O178 Co168 2.021 . S
O178 C175 1.238 . S
O179 Co173 2.052 . S
O179 C175 1.241 . S
O180 Co168 2.137 . S
O180 C171 1.247 . S
O181 Co168 2.244 . S
O181 C171 1.272 . S
O181 Co173 2.135 . S
Co182 O183 2.216 . S
Co182 O184 2.091 . S
Co182 O186 2.004 . S
Co182 O192 2.021 . S
Co182 O194 2.137 . S
Co182 O195 2.244 . S
O183 Co182 2.216 . S
O183 C190 1.247 . S
O184 Co182 2.091 . S
O184 C190 1.261 . S
C185 O194 1.247 . S
C185 O195 1.272 . S
O186 Co182 2.004 . S
O186 C191 1.259 . S
Co187 O188 2.061 . S
Co187 O193 2.052 . S
Co187 O195 2.135 . S
O188 Co187 2.061 . S
O188 C191 1.235 . S
C189 O192 1.238 . S
C189 O193 1.241 . S
C190 O183 1.247 . S
C190 O184 1.261 . S
C191 O186 1.259 . S
C191 O188 1.235 . S
O192 Co182 2.021 . S
O192 C189 1.238 . S
O193 Co187 2.052 . S
O193 C189 1.241 . S
O194 Co182 2.137 . S
O194 C185 1.247 . S
O195 Co182 2.244 . S
O195 C185 1.272 . S
O195 Co187 2.135 . S
Co196 O197 2.216 . S
Co196 O198 2.091 . S
Co196 O200 2.004 . S
Co196 O206 2.021 . S
Co196 O208 2.137 . S
Co196 O209 2.244 . S
O197 Co196 2.216 . S
O197 C204 1.247 . S
O198 Co196 2.091 . S
O198 C204 1.261 . S
C199 O208 1.247 . S
C199 O209 1.272 . S
O200 Co196 2.004 . S
O200 C205 1.259 . S
Co201 O202 2.061 . S
Co201 O207 2.052 . S
Co201 O209 2.135 . S
O202 Co201 2.061 . S
O202 C205 1.235 . S
C203 O206 1.238 . S
C203 O207 1.241 . S
C204 O197 1.247 . S
C204 O198 1.261 . S
C205 O200 1.259 . S
C205 O202 1.235 . S
O206 Co196 2.021 . S
O206 C203 1.238 . S
O207 Co201 2.052 . S
O207 C203 1.241 . S
O208 Co196 2.137 . S
O208 C199 1.247 . S
O209 Co196 2.244 . S
O209 C199 1.272 . S
O209 Co201 2.135 . S
Co210 O211 2.216 1_545 S
Co210 O212 2.091 . S
Co210 O214 2.004 . S
Co210 O220 2.021 1_545 S
Co210 O222 2.139 1_545 S
Co210 O223 2.244 1_545 S
O211 Co210 2.216 1_565 S
O211 C218 1.247 1_565 S
O212 Co210 2.091 . S
O212 C218 1.261 . S
C213 O222 1.274 . S
C213 O223 1.272 . S
O214 Co210 2.004 . S
O214 C219 1.259 . S
Co215 O216 2.061 . S
Co215 O221 2.052 . S
Co215 O223 2.135 . S
O216 Co215 2.061 . S
O216 C219 1.235 1_565 S
C217 O220 1.238 . S
C217 O221 1.241 . S
C218 O211 1.247 1_545 S
C218 O212 1.261 . S
C219 O214 1.259 . S
C219 O216 1.235 1_545 S
O220 Co210 2.021 1_565 S
O220 C217 1.238 . S
O221 Co215 2.052 . S
O221 C217 1.241 . S
O222 Co210 2.139 1_565 S
O222 C213 1.274 . S
O223 Co210 2.244 1_565 S
O223 C213 1.272 . S
O223 Co215 2.135 . S
Co224 O225 2.216 . S
Co224 O226 2.091 . S
Co224 O228 2.004 . S
Co224 O234 2.021 . S
Co224 O236 2.137 . S
Co224 O237 2.244 . S
O225 Co224 2.216 . S
O225 C232 1.247 . S
O226 Co224 2.091 . S
O226 C232 1.261 . S
C227 O236 1.247 . S
C227 O237 1.272 . S
O228 Co224 2.004 . S
O228 C233 1.259 . S
Co229 O230 2.061 . S
Co229 O235 2.052 . S
Co229 O237 2.135 . S
O230 Co229 2.061 . S
O230 C233 1.235 . S
C231 O234 1.238 . S
C231 O235 1.241 . S
C232 O225 1.247 . S
C232 O226 1.261 . S
C233 O228 1.259 . S
C233 O230 1.235 . S
O234 Co224 2.021 . S
O234 C231 1.238 . S
O235 Co229 2.052 . S
O235 C231 1.241 . S
O236 Co224 2.137 . S
O236 C227 1.247 . S
O237 Co224 2.244 . S
O237 C227 1.272 . S
O237 Co229 2.135 . S
Co238 O239 2.216 . S
Co238 O240 2.091 . S
Co238 O242 2.004 . S
Co238 O248 2.021 . S
Co238 O250 2.137 . S
Co238 O251 2.244 . S
O239 Co238 2.216 . S
O239 C246 1.247 . S
O240 Co238 2.091 . S
O240 C246 1.261 . S
C241 O250 1.247 . S
C241 O251 1.272 . S
O242 Co238 2.004 . S
O242 C247 1.259 . S
Co243 O244 2.061 . S
Co243 O249 2.052 . S
Co243 O251 2.135 . S
O244 Co243 2.061 . S
O244 C247 1.235 . S
C245 O248 1.238 . S
C245 O249 1.241 . S
C246 O239 1.247 . S
C246 O240 1.261 . S
C247 O242 1.259 . S
C247 O244 1.235 . S
O248 Co238 2.021 . S
O248 C245 1.238 . S
O249 Co243 2.052 . S
O249 C245 1.241 . S
O250 Co238 2.137 . S
O250 C241 1.247 . S
O251 Co238 2.244 . S
O251 C241 1.272 . S
O251 Co243 2.135 . S
Co252 O253 2.216 . S
Co252 O254 2.091 . S
Co252 O256 2.004 . S
Co252 O262 2.021 . S
Co252 O264 2.137 . S
Co252 O265 2.244 . S
O253 Co252 2.216 . S
O253 C260 1.247 . S
O254 Co252 2.091 . S
O254 C260 1.261 . S
C255 O264 1.247 . S
C255 O265 1.272 . S
O256 Co252 2.004 . S
O256 C261 1.259 . S
Co257 O258 2.061 . S
Co257 O263 2.052 . S
Co257 O265 2.135 . S
O258 Co257 2.061 . S
O258 C261 1.235 . S
C259 O262 1.238 . S
C259 O263 1.241 . S
C260 O253 1.247 . S
C260 O254 1.261 . S
C261 O256 1.259 . S
C261 O258 1.235 . S
O262 Co252 2.021 . S
O262 C259 1.238 . S
O263 Co257 2.052 . S
O263 C259 1.241 . S
O264 Co252 2.137 . S
O264 C255 1.247 . S
O265 Co252 2.244 . S
O265 C255 1.272 . S
O265 Co257 2.135 . S
Co266 O267 2.216 . S
Co266 O268 2.091 . S
Co266 O270 2.004 1_565 S
Co266 O276 2.021 . S
Co266 O278 2.137 . S
Co266 O279 2.244 1_565 S
O267 Co266 2.216 . S
O267 C274 1.247 . S
O268 Co266 2.091 . S
O268 C274 1.261 . S
C269 O278 1.247 1_545 S
C269 O279 1.272 . S
O270 Co266 2.004 1_545 S
O270 C275 1.259 . S
Co271 O272 2.061 . S
Co271 O277 2.052 . S
Co271 O279 2.135 . S
O272 Co271 2.061 . S
O272 C275 1.235 . S
C273 O276 1.238 . S
C273 O277 1.241 1_565 S
C274 O267 1.247 . S
C274 O268 1.261 . S
C275 O270 1.259 . S
C275 O272 1.235 . S
O276 Co266 2.021 . S
O276 C273 1.238 . S
O277 Co271 2.052 . S
O277 C273 1.241 1_545 S
O278 Co266 2.137 . S
O278 C269 1.247 1_565 S
O279 Co266 2.244 1_545 S
O279 C269 1.272 . S
O279 Co271 2.135 . S
Co280 O281 2.216 1_556 S
Co280 O282 2.091 . S
Co280 O284 2.004 . S
Co280 O290 2.021 1_556 S
Co280 O292 2.137 . S
Co280 O293 2.244 . S
O281 Co280 2.216 1_554 S
O281 C288 1.247 . S
O282 Co280 2.091 . S
O282 C288 1.261 1_556 S
C283 O292 1.247 . S
C283 O293 1.272 . S
O284 Co280 2.004 . S
O284 C289 1.259 . S
Co285 O286 2.061 1_554 S
Co285 O291 2.052 . S
Co285 O293 2.135 1_554 S
O286 Co285 2.061 1_556 S
O286 C289 1.235 . S
C287 O290 1.238 . S
C287 O291 1.241 . S
C288 O281 1.247 . S
C288 O282 1.261 1_554 S
C289 O284 1.259 . S
C289 O286 1.235 . S
O290 Co280 2.021 1_554 S
O290 C287 1.238 . S
O291 Co285 2.052 . S
O291 C287 1.241 . S
O292 Co280 2.137 . S
O292 C283 1.247 . S
O293 Co280 2.244 . S
O293 C283 1.272 . S
O293 Co285 2.135 1_556 S
Co294 O295 2.216 . S
Co294 O296 2.091 . S
Co294 O298 2.004 . S
Co294 O304 2.021 . S
Co294 O306 2.137 . S
Co294 O307 2.244 1_655 S
O295 Co294 2.216 . S
O295 C302 1.247 . S
O296 Co294 2.091 . S
O296 C302 1.261 . S
C297 O306 1.247 . S
C297 O307 1.272 1_655 S
O298 Co294 2.004 . S
O298 C303 1.259 . S
Co299 O300 2.061 1_455 S
Co299 O305 2.052 . S
Co299 O307 2.135 . S
O300 Co299 2.061 1_655 S
O300 C303 1.235 . S
C301 O304 1.238 . S
C301 O305 1.241 1_655 S
C302 O295 1.247 . S
C302 O296 1.261 . S
C303 O298 1.259 . S
C303 O300 1.235 . S
O304 Co294 2.021 . S
O304 C301 1.238 . S
O305 Co299 2.052 . S
O305 C301 1.241 1_455 S
O306 Co294 2.137 . S
O306 C297 1.247 . S
O307 Co294 2.244 1_455 S
O307 C297 1.272 1_455 S
O307 Co299 2.135 . S
Co308 O309 2.216 . S
Co308 O310 2.091 . S
Co308 O312 2.004 . S
Co308 O318 2.021 . S
Co308 O320 2.137 . S
Co308 O321 2.244 . S
O309 Co308 2.216 . S
O309 C316 1.247 . S
O310 Co308 2.091 . S
O310 C316 1.261 . S
C311 O320 1.247 . S
C311 O321 1.272 . S
O312 Co308 2.004 . S
O312 C317 1.259 . S
Co313 O314 2.061 . S
Co313 O319 2.052 . S
Co313 O321 2.135 . S
O314 Co313 2.061 . S
O314 C317 1.235 . S
C315 O318 1.238 . S
C315 O319 1.241 . S
C316 O309 1.247 . S
C316 O310 1.261 . S
C317 O312 1.259 . S
C317 O314 1.235 . S
O318 Co308 2.021 . S
O318 C315 1.238 . S
O319 Co313 2.052 . S
O319 C315 1.241 . S
O320 Co308 2.137 . S
O320 C311 1.247 . S
O321 Co308 2.244 . S
O321 C311 1.272 . S
O321 Co313 2.135 . S
Co322 O323 2.216 . S
Co322 O324 2.091 . S
Co322 O326 2.004 . S
Co322 O332 2.021 . S
Co322 O334 2.137 . S
Co322 O335 2.244 . S
O323 Co322 2.216 . S
O323 C330 1.247 . S
O324 Co322 2.091 . S
O324 C330 1.261 . S
C325 O334 1.247 . S
C325 O335 1.272 . S
O326 Co322 2.004 . S
O326 C331 1.259 . S
Co327 O328 2.061 . S
Co327 O333 2.052 . S
Co327 O335 2.135 . S
O328 Co327 2.061 . S
O328 C331 1.235 . S
C329 O332 1.238 . S
C329 O333 1.241 . S
C330 O323 1.247 . S
C330 O324 1.261 . S
C331 O326 1.259 . S
C331 O328 1.235 . S
O332 Co322 2.021 . S
O332 C329 1.238 . S
O333 Co327 2.052 . S
O333 C329 1.241 . S
O334 Co322 2.137 . S
O334 C325 1.247 . S
O335 Co322 2.244 . S
O335 C325 1.272 . S
O335 Co327 2.135 . S
Nd336 C338 2.836 . S
Nd336 O356 2.500 . S
Nd336 O357 2.492 . S
Nd336 O358 2.487 . S
Nd336 O359 2.682 . S
Nd336 O360 2.410 . S
Nd336 O365 2.414 . S
Nd336 O367 2.424 . S
Nd337 C347 2.836 1_545 S
Nd337 O359 2.414 . S
Nd337 O361 2.416 1_455 S
Nd337 O362 2.500 1_545 S
Nd337 O363 2.492 1_545 S
Nd337 O364 2.487 . S
Nd337 O365 2.682 . S
Nd337 O366 2.410 . S
C338 Nd336 2.836 . S
C338 C339 1.498 . S
C338 O356 1.258 . S
C338 O357 1.239 . S
C339 C338 1.498 . S
C339 C340 1.366 . S
C339 C344 1.407 . S
C340 C339 1.366 . S
C340 C341 1.392 . S
C340 H368 0.930 . S
C341 C340 1.392 . S
C341 C342 1.398 . S
C341 H369 0.929 . S
C342 C341 1.398 . S
C342 C343 1.352 . S
C343 C342 1.352 . S
C343 C344 1.384 . S
C343 H370 0.930 . S
C344 C339 1.407 . S
C344 C343 1.384 . S
C344 H371 0.929 . S
C345 O358 1.241 . S
C345 O359 1.273 . S
C346 O360 1.251 . S
C346 O361 1.266 1_455 S
C347 Nd337 2.836 1_565 S
C347 C348 1.498 . S
C347 O362 1.258 . S
C347 O363 1.239 . S
C348 C347 1.498 . S
C348 C349 1.366 . S
C348 C353 1.407 . S
C349 C348 1.366 . S
C349 C350 1.392 . S
C349 H372 0.930 . S
C350 C349 1.392 . S
C350 C351 1.398 . S
C350 H373 0.929 . S
C351 C350 1.398 . S
C351 C352 1.352 . S
C352 C351 1.352 . S
C352 C353 1.384 . S
C352 H374 0.930 . S
C353 C348 1.407 . S
C353 C352 1.384 . S
C353 H375 0.929 . S
C354 O364 1.241 . S
C354 O365 1.273 . S
C355 O366 1.251 . S
C355 O367 1.268 . S
O356 Nd336 2.500 . S
O356 C338 1.258 . S
O357 Nd336 2.492 . S
O357 C338 1.239 . S
O358 Nd336 2.487 . S
O358 C345 1.241 . S
O359 Nd336 2.682 . S
O359 Nd337 2.414 . S
O359 C345 1.273 . S
O360 Nd336 2.410 . S
O360 C346 1.251 . S
O361 Nd337 2.416 1_655 S
O361 C346 1.266 1_655 S
O362 Nd337 2.500 1_565 S
O362 C347 1.258 . S
O363 Nd337 2.492 1_565 S
O363 C347 1.239 . S
O364 Nd337 2.487 . S
O364 C354 1.241 . S
O365 Nd336 2.414 . S
O365 Nd337 2.682 . S
O365 C354 1.273 . S
O366 Nd337 2.410 . S
O366 C355 1.251 . S
O367 Nd336 2.424 . S
O367 C355 1.268 . S
H368 C340 0.930 . S
H369 C341 0.929 . S
H370 C343 0.930 . S
H371 C344 0.929 . S
H372 C349 0.930 . S
H373 C350 0.929 . S
H374 C352 0.930 . S
H375 C353 0.929 . S
Nd376 C378 2.836 . S
Nd376 O396 2.500 . S
Nd376 O397 2.492 . S
Nd376 O398 2.487 . S
Nd376 O399 2.682 . S
Nd376 O400 2.410 . S
Nd376 O405 2.414 . S
Nd376 O407 2.424 . S
Nd377 C387 2.836 . S
Nd377 O399 2.414 . S
Nd377 O401 2.424 . S
Nd377 O402 2.500 . S
Nd377 O403 2.492 . S
Nd377 O404 2.487 . S
Nd377 O405 2.682 . S
Nd377 O406 2.410 . S
C378 Nd376 2.836 . S
C378 C379 1.498 . S
C378 O396 1.258 . S
C378 O397 1.239 . S
C379 C378 1.498 . S
C379 C380 1.366 . S
C379 C384 1.407 . S
C380 C379 1.366 . S
C380 C381 1.392 . S
C380 H408 0.930 . S
C381 C380 1.392 . S
C381 C382 1.398 1_565 S
C381 H409 0.929 . S
C382 C381 1.398 1_545 S
C382 C383 1.352 1_545 S
C383 C382 1.352 1_565 S
C383 C384 1.384 . S
C383 H410 0.930 1_565 S
C384 C379 1.407 . S
C384 C383 1.384 . S
C384 H411 0.929 . S
C385 O398 1.241 . S
C385 O399 1.273 . S
C386 O400 1.251 . S
C386 O401 1.268 . S
C387 Nd377 2.836 . S
C387 C388 1.498 . S
C387 O402 1.258 . S
C387 O403 1.239 . S
C388 C387 1.498 . S
C388 C389 1.366 . S
C388 C393 1.407 . S
C389 C388 1.366 . S
C389 C390 1.392 . S
C389 H412 0.930 . S
C390 C389 1.392 . S
C390 C391 1.398 . S
C390 H413 0.929 . S
C391 C390 1.398 . S
C391 C392 1.352 . S
C392 C391 1.352 . S
C392 C393 1.384 . S
C392 H414 0.930 . S
C393 C388 1.407 . S
C393 C392 1.384 . S
C393 H415 0.929 . S
C394 O404 1.241 . S
C394 O405 1.273 . S
C395 O406 1.251 . S
C395 O407 1.268 . S
O396 Nd376 2.500 . S
O396 C378 1.258 . S
O397 Nd376 2.492 . S
O397 C378 1.239 . S
O398 Nd376 2.487 . S
O398 C385 1.241 . S
O399 Nd376 2.682 . S
O399 Nd377 2.414 . S
O399 C385 1.273 . S
O400 Nd376 2.410 . S
O400 C386 1.251 . S
O401 Nd377 2.424 . S
O401 C386 1.268 . S
O402 Nd377 2.500 . S
O402 C387 1.258 . S
O403 Nd377 2.492 . S
O403 C387 1.239 . S
O404 Nd377 2.487 . S
O404 C394 1.241 . S
O405 Nd376 2.414 . S
O405 Nd377 2.682 . S
O405 C394 1.273 . S
O406 Nd377 2.410 . S
O406 C395 1.251 . S
O407 Nd376 2.424 . S
O407 C395 1.268 . S
H408 C380 0.930 . S
H409 C381 0.929 . S
H410 C383 0.930 1_545 S
H411 C384 0.929 . S
H412 C389 0.930 . S
H413 C390 0.929 . S
H414 C392 0.930 . S
H415 C393 0.929 . S
Nd416 C418 2.836 . S
Nd416 O436 2.500 . S
Nd416 O437 2.492 . S
Nd416 O438 2.487 . S
Nd416 O439 2.682 . S
Nd416 O440 2.410 . S
Nd416 O445 2.414 . S
Nd416 O447 2.424 . S
Nd417 C427 2.836 . S
Nd417 O439 2.414 . S
Nd417 O441 2.424 . S
Nd417 O442 2.500 . S
Nd417 O443 2.492 . S
Nd417 O444 2.487 . S
Nd417 O445 2.682 . S
Nd417 O446 2.410 . S
C418 Nd416 2.836 . S
C418 C419 1.498 . S
C418 O436 1.258 . S
C418 O437 1.239 . S
C419 C418 1.498 . S
C419 C420 1.366 . S
C419 C424 1.407 . S
C420 C419 1.366 . S
C420 C421 1.392 . S
C420 H448 0.930 . S
C421 C420 1.392 . S
C421 C422 1.398 . S
C421 H449 0.929 . S
C422 C421 1.398 . S
C422 C423 1.352 . S
C423 C422 1.352 . S
C423 C424 1.384 . S
C423 H450 0.930 . S
C424 C419 1.407 . S
C424 C423 1.384 . S
C424 H451 0.929 . S
C425 O438 1.241 . S
C425 O439 1.273 . S
C426 O440 1.251 . S
C426 O441 1.268 . S
C427 Nd417 2.836 . S
C427 C428 1.498 . S
C427 O442 1.258 . S
C427 O443 1.239 . S
C428 C427 1.498 . S
C428 C429 1.366 . S
C428 C433 1.407 . S
C429 C428 1.366 . S
C429 C430 1.392 . S
C429 H452 0.930 . S
C430 C429 1.392 . S
C430 C431 1.398 . S
C430 H453 0.929 . S
C431 C430 1.398 . S
C431 C432 1.352 . S
C432 C431 1.352 . S
C432 C433 1.384 . S
C432 H454 0.930 . S
C433 C428 1.407 . S
C433 C432 1.384 . S
C433 H455 0.929 . S
C434 O444 1.241 . S
C434 O445 1.273 . S
C435 O446 1.251 . S
C435 O447 1.268 . S
O436 Nd416 2.500 . S
O436 C418 1.258 . S
O437 Nd416 2.492 . S
O437 C418 1.239 . S
O438 Nd416 2.487 . S
O438 C425 1.241 . S
O439 Nd416 2.682 . S
O439 Nd417 2.414 . S
O439 C425 1.273 . S
O440 Nd416 2.410 . S
O440 C426 1.251 . S
O441 Nd417 2.424 . S
O441 C426 1.268 . S
O442 Nd417 2.500 . S
O442 C427 1.258 . S
O443 Nd417 2.492 . S
O443 C427 1.239 . S
O444 Nd417 2.487 . S
O444 C434 1.241 . S
O445 Nd416 2.414 . S
O445 Nd417 2.682 . S
O445 C434 1.273 . S
O446 Nd417 2.410 . S
O446 C435 1.251 . S
O447 Nd416 2.424 . S
O447 C435 1.268 . S
H448 C420 0.930 . S
H449 C421 0.929 . S
H450 C423 0.930 . S
H451 C424 0.929 . S
H452 C429 0.930 . S
H453 C430 0.929 . S
H454 C432 0.930 . S
H455 C433 0.929 . S
Nd456 C458 2.836 . S
Nd456 O476 2.500 . S
Nd456 O477 2.492 . S
Nd456 O478 2.487 . S
Nd456 O479 2.682 . S
Nd456 O480 2.410 . S
Nd456 O485 2.414 . S
Nd456 O487 2.424 . S
Nd457 C467 2.836 . S
Nd457 O479 2.414 . S
Nd457 O481 2.424 . S
Nd457 O482 2.500 . S
Nd457 O483 2.492 . S
Nd457 O484 2.487 . S
Nd457 O485 2.682 . S
Nd457 O486 2.410 . S
C458 Nd456 2.836 . S
C458 C459 1.498 . S
C458 O476 1.258 . S
C458 O477 1.239 . S
C459 C458 1.498 . S
C459 C460 1.366 . S
C459 C464 1.407 . S
C460 C459 1.366 . S
C460 C461 1.392 1_556 S
C460 H488 0.930 . S
C461 C460 1.392 1_554 S
C461 C462 1.398 . S
C461 H489 0.929 . S
C462 C461 1.398 . S
C462 C463 1.352 . S
C463 C462 1.352 . S
C463 C464 1.384 1_554 S
C463 H490 0.930 . S
C464 C459 1.407 . S
C464 C463 1.384 1_556 S
C464 H491 0.929 . S
C465 O478 1.241 . S
C465 O479 1.273 . S
C466 O480 1.251 . S
C466 O481 1.268 . S
C467 Nd457 2.836 . S
C467 C468 1.498 . S
C467 O482 1.258 . S
C467 O483 1.239 . S
C468 C467 1.498 . S
C468 C469 1.366 . S
C468 C473 1.407 . S
C469 C468 1.366 . S
C469 C470 1.392 . S
C469 H492 0.930 . S
C470 C469 1.392 . S
C470 C471 1.398 . S
C470 H493 0.929 . S
C471 C470 1.398 . S
C471 C472 1.352 . S
C472 C471 1.352 . S
C472 C473 1.384 . S
C472 H494 0.930 . S
C473 C468 1.407 . S
C473 C472 1.384 . S
C473 H495 0.929 . S
C474 O484 1.241 . S
C474 O485 1.273 . S
C475 O486 1.251 . S
C475 O487 1.268 . S
O476 Nd456 2.500 . S
O476 C458 1.258 . S
O477 Nd456 2.492 . S
O477 C458 1.239 . S
O478 Nd456 2.487 . S
O478 C465 1.241 . S
O479 Nd456 2.682 . S
O479 Nd457 2.414 . S
O479 C465 1.273 . S
O480 Nd456 2.410 . S
O480 C466 1.251 . S
O481 Nd457 2.424 . S
O481 C466 1.268 . S
O482 Nd457 2.500 . S
O482 C467 1.258 . S
O483 Nd457 2.492 . S
O483 C467 1.239 . S
O484 Nd457 2.487 . S
O484 C474 1.241 . S
O485 Nd456 2.414 . S
O485 Nd457 2.682 . S
O485 C474 1.273 . S
O486 Nd457 2.410 . S
O486 C475 1.251 . S
O487 Nd456 2.424 . S
O487 C475 1.268 . S
H488 C460 0.930 . S
H489 C461 0.929 . S
H490 C463 0.930 . S
H491 C464 0.929 . S
H492 C469 0.930 . S
H493 C470 0.929 . S
H494 C472 0.930 . S
H495 C473 0.929 . S
Nd496 C498 2.836 . S
Nd496 O516 2.500 . S
Nd496 O517 2.492 . S
Nd496 O518 2.487 . S
Nd496 O519 2.682 . S
Nd496 O520 2.410 . S
Nd496 O525 2.414 . S
Nd496 O527 2.424 . S
Nd497 C507 2.836 1_545 S
Nd497 O519 2.414 . S
Nd497 O521 2.424 . S
Nd497 O522 2.500 1_545 S
Nd497 O523 2.492 1_545 S
Nd497 O524 2.487 1_455 S
Nd497 O525 2.682 . S
Nd497 O526 2.410 . S
C498 Nd496 2.836 . S
C498 C499 1.498 . S
C498 O516 1.258 . S
C498 O517 1.239 . S
C499 C498 1.498 . S
C499 C500 1.366 . S
C499 C504 1.407 . S
C500 C499 1.366 . S
C500 C501 1.392 . S
C500 H528 0.930 . S
C501 C500 1.392 . S
C501 C502 1.398 . S
C501 H529 0.929 1_455 S
C502 C501 1.398 . S
C502 C503 1.352 . S
C503 C502 1.352 . S
C503 C504 1.384 . S
C503 H530 0.930 . S
C504 C499 1.407 . S
C504 C503 1.384 . S
C504 H531 0.929 . S
C505 O518 1.241 . S
C505 O519 1.273 . S
C506 O520 1.251 . S
C506 O521 1.268 . S
C507 Nd497 2.836 1_565 S
C507 C508 1.498 . S
C507 O522 1.258 . S
C507 O523 1.239 . S
C508 C507 1.498 . S
C508 C509 1.366 . S
C508 C513 1.407 . S
C509 C508 1.366 . S
C509 C510 1.392 . S
C509 H532 0.930 . S
C510 C509 1.392 . S
C510 C511 1.398 . S
C510 H533 0.929 . S
C511 C510 1.398 . S
C511 C512 1.352 . S
C512 C511 1.352 . S
C512 C513 1.384 . S
C512 H534 0.930 . S
C513 C508 1.407 . S
C513 C512 1.384 . S
C513 H535 0.929 . S
C514 O524 1.241 1_455 S
C514 O525 1.273 . S
C515 O526 1.251 . S
C515 O527 1.268 . S
O516 Nd496 2.500 . S
O516 C498 1.258 . S
O517 Nd496 2.492 . S
O517 C498 1.239 . S
O518 Nd496 2.487 . S
O518 C505 1.241 . S
O519 Nd496 2.682 . S
O519 Nd497 2.414 . S
O519 C505 1.273 . S
O520 Nd496 2.410 . S
O520 C506 1.251 . S
O521 Nd497 2.424 . S
O521 C506 1.268 . S
O522 Nd497 2.500 1_565 S
O522 C507 1.258 . S
O523 Nd497 2.492 1_565 S
O523 C507 1.239 . S
O524 Nd497 2.487 1_655 S
O524 C514 1.241 1_655 S
O525 Nd496 2.414 . S
O525 Nd497 2.682 . S
O525 C514 1.273 . S
O526 Nd497 2.410 . S
O526 C515 1.251 . S
O527 Nd496 2.424 . S
O527 C515 1.268 . S
H528 C500 0.930 . S
H529 C501 0.929 1_655 S
H530 C503 0.930 . S
H531 C504 0.929 . S
H532 C509 0.930 . S
H533 C510 0.929 . S
H534 C512 0.930 . S
H535 C513 0.929 . S
Nd536 C538 2.836 . S
Nd536 O556 2.500 . S
Nd536 O557 2.492 . S
Nd536 O558 2.487 . S
Nd536 O559 2.682 . S
Nd536 O560 2.410 . S
Nd536 O565 2.414 . S
Nd536 O567 2.424 . S
Nd537 C547 2.836 . S
Nd537 O559 2.414 . S
Nd537 O561 2.424 . S
Nd537 O562 2.500 . S
Nd537 O563 2.492 . S
Nd537 O564 2.487 . S
Nd537 O565 2.682 . S
Nd537 O566 2.410 . S
C538 Nd536 2.836 . S
C538 C539 1.498 . S
C538 O556 1.258 . S
C538 O557 1.239 . S
C539 C538 1.498 . S
C539 C540 1.366 . S
C539 C544 1.407 . S
C540 C539 1.366 . S
C540 C541 1.392 . S
C540 H568 0.930 . S
C541 C540 1.392 . S
C541 C542 1.398 . S
C541 H569 0.929 . S
C542 C541 1.398 . S
C542 C543 1.352 . S
C543 C542 1.352 . S
C543 C544 1.384 . S
C543 H570 0.930 . S
C544 C539 1.407 . S
C544 C543 1.384 . S
C544 H571 0.929 . S
C545 O558 1.241 . S
C545 O559 1.273 . S
C546 O560 1.251 . S
C546 O561 1.268 . S
C547 Nd537 2.836 . S
C547 C548 1.498 . S
C547 O562 1.258 . S
C547 O563 1.239 . S
C548 C547 1.498 . S
C548 C549 1.366 . S
C548 C553 1.407 . S
C549 C548 1.366 . S
C549 C550 1.392 . S
C549 H572 0.930 . S
C550 C549 1.392 . S
C550 C551 1.398 . S
C550 H573 0.929 . S
C551 C550 1.398 . S
C551 C552 1.352 . S
C552 C551 1.352 . S
C552 C553 1.384 . S
C552 H574 0.930 . S
C553 C548 1.407 . S
C553 C552 1.384 . S
C553 H575 0.929 . S
C554 O564 1.241 . S
C554 O565 1.273 . S
C555 O566 1.251 . S
C555 O567 1.268 . S
O556 Nd536 2.500 . S
O556 C538 1.258 . S
O557 Nd536 2.492 . S
O557 C538 1.239 . S
O558 Nd536 2.487 . S
O558 C545 1.241 . S
O559 Nd536 2.682 . S
O559 Nd537 2.414 . S
O559 C545 1.273 . S
O560 Nd536 2.410 . S
O560 C546 1.251 . S
O561 Nd537 2.424 . S
O561 C546 1.268 . S
O562 Nd537 2.500 . S
O562 C547 1.258 . S
O563 Nd537 2.492 . S
O563 C547 1.239 . S
O564 Nd537 2.487 . S
O564 C554 1.241 . S
O565 Nd536 2.414 . S
O565 Nd537 2.682 . S
O565 C554 1.273 . S
O566 Nd537 2.410 . S
O566 C555 1.251 . S
O567 Nd536 2.424 . S
O567 C555 1.268 . S
H568 C540 0.930 . S
H569 C541 0.929 . S
H570 C543 0.930 . S
H571 C544 0.929 . S
H572 C549 0.930 . S
H573 C550 0.929 . S
H574 C552 0.930 . S
H575 C553 0.929 . S
Nd576 C578 2.836 . S
Nd576 O596 2.500 . S
Nd576 O597 2.492 . S
Nd576 O598 2.487 . S
Nd576 O599 2.682 . S
Nd576 O600 2.410 . S
Nd576 O605 2.414 . S
Nd576 O607 2.424 . S
Nd577 C587 2.836 . S
Nd577 O599 2.414 . S
Nd577 O601 2.424 . S
Nd577 O602 2.500 . S
Nd577 O603 2.492 . S
Nd577 O604 2.487 . S
Nd577 O605 2.682 . S
Nd577 O606 2.410 . S
C578 Nd576 2.836 . S
C578 C579 1.498 . S
C578 O596 1.258 . S
C578 O597 1.239 . S
C579 C578 1.498 . S
C579 C580 1.366 . S
C579 C584 1.407 1_545 S
C580 C579 1.366 . S
C580 C581 1.392 . S
C580 H608 0.930 . S
C581 C580 1.392 . S
C581 C582 1.398 . S
C581 H609 0.929 . S
C582 C581 1.398 . S
C582 C583 1.352 1_545 S
C583 C582 1.352 1_565 S
C583 C584 1.384 . S
C583 H610 0.930 . S
C584 C579 1.407 1_565 S
C584 C583 1.384 . S
C584 H611 0.929 . S
C585 O598 1.241 . S
C585 O599 1.273 . S
C586 O600 1.251 . S
C586 O601 1.268 . S
C587 Nd577 2.836 . S
C587 C588 1.498 . S
C587 O602 1.258 . S
C587 O603 1.239 . S
C588 C587 1.498 . S
C588 C589 1.366 . S
C588 C593 1.407 . S
C589 C588 1.366 . S
C589 C590 1.392 . S
C589 H612 0.930 . S
C590 C589 1.392 . S
C590 C591 1.398 . S
C590 H613 0.929 . S
C591 C590 1.398 . S
C591 C592 1.352 . S
C592 C591 1.352 . S
C592 C593 1.384 . S
C592 H614 0.930 . S
C593 C588 1.407 . S
C593 C592 1.384 . S
C593 H615 0.929 . S
C594 O604 1.241 . S
C594 O605 1.273 . S
C595 O606 1.251 . S
C595 O607 1.268 . S
O596 Nd576 2.500 . S
O596 C578 1.258 . S
O597 Nd576 2.492 . S
O597 C578 1.239 . S
O598 Nd576 2.487 . S
O598 C585 1.241 . S
O599 Nd576 2.682 . S
O599 Nd577 2.414 . S
O599 C585 1.273 . S
O600 Nd576 2.410 . S
O600 C586 1.251 . S
O601 Nd577 2.424 . S
O601 C586 1.268 . S
O602 Nd577 2.500 . S
O602 C587 1.258 . S
O603 Nd577 2.492 . S
O603 C587 1.239 . S
O604 Nd577 2.487 . S
O604 C594 1.241 . S
O605 Nd576 2.414 . S
O605 Nd577 2.682 . S
O605 C594 1.273 . S
O606 Nd577 2.410 . S
O606 C595 1.251 . S
O607 Nd576 2.424 . S
O607 C595 1.268 . S
H608 C580 0.930 . S
H609 C581 0.929 . S
H610 C583 0.930 . S
H611 C584 0.929 . S
H612 C589 0.930 . S
H613 C590 0.929 . S
H614 C592 0.930 . S
H615 C593 0.929 . S
Nd616 C618 2.836 . S
Nd616 O636 2.500 . S
Nd616 O637 2.492 . S
Nd616 O638 2.487 . S
Nd616 O639 2.682 . S
Nd616 O640 2.410 . S
Nd616 O645 2.414 . S
Nd616 O647 2.424 . S
Nd617 C627 2.836 . S
Nd617 O639 2.414 . S
Nd617 O641 2.424 . S
Nd617 O642 2.500 . S
Nd617 O643 2.492 . S
Nd617 O644 2.487 . S
Nd617 O645 2.682 . S
Nd617 O646 2.410 . S
C618 Nd616 2.836 . S
C618 C619 1.498 . S
C618 O636 1.258 . S
C618 O637 1.239 . S
C619 C618 1.498 . S
C619 C620 1.366 . S
C619 C624 1.407 . S
C620 C619 1.366 . S
C620 C621 1.392 . S
C620 H648 0.930 . S
C621 C620 1.392 . S
C621 C622 1.398 . S
C621 H649 0.929 . S
C622 C621 1.398 . S
C622 C623 1.352 . S
C623 C622 1.352 . S
C623 C624 1.384 . S
C623 H650 0.930 . S
C624 C619 1.407 . S
C624 C623 1.384 . S
C624 H651 0.929 . S
C625 O638 1.241 . S
C625 O639 1.273 . S
C626 O640 1.251 . S
C626 O641 1.268 . S
C627 Nd617 2.836 . S
C627 C628 1.498 . S
C627 O642 1.258 . S
C627 O643 1.239 . S
C628 C627 1.498 . S
C628 C629 1.366 . S
C628 C633 1.407 . S
C629 C628 1.366 . S
C629 C630 1.392 . S
C629 H652 0.930 . S
C630 C629 1.392 . S
C630 C631 1.398 . S
C630 H653 0.929 . S
C631 C630 1.398 . S
C631 C632 1.352 . S
C632 C631 1.352 . S
C632 C633 1.384 . S
C632 H654 0.930 . S
C633 C628 1.407 . S
C633 C632 1.384 . S
C633 H655 0.929 . S
C634 O644 1.241 . S
C634 O645 1.273 . S
C635 O646 1.251 . S
C635 O647 1.268 . S
O636 Nd616 2.500 . S
O636 C618 1.258 . S
O637 Nd616 2.492 . S
O637 C618 1.239 . S
O638 Nd616 2.487 . S
O638 C625 1.241 . S
O639 Nd616 2.682 . S
O639 Nd617 2.414 . S
O639 C625 1.273 . S
O640 Nd616 2.410 . S
O640 C626 1.251 . S
O641 Nd617 2.424 . S
O641 C626 1.268 . S
O642 Nd617 2.500 . S
O642 C627 1.258 . S
O643 Nd617 2.492 . S
O643 C627 1.239 . S
O644 Nd617 2.487 . S
O644 C634 1.241 . S
O645 Nd616 2.414 . S
O645 Nd617 2.682 . S
O645 C634 1.273 . S
O646 Nd617 2.410 . S
O646 C635 1.251 . S
O647 Nd616 2.424 . S
O647 C635 1.268 . S
H648 C620 0.930 . S
H649 C621 0.929 . S
H650 C623 0.930 . S
H651 C624 0.929 . S
H652 C629 0.930 . S
H653 C630 0.929 . S
H654 C632 0.930 . S
H655 C633 0.929 . S
Nd656 C658 2.836 . S
Nd656 O676 2.500 . S
Nd656 O677 2.492 . S
Nd656 O678 2.487 . S
Nd656 O679 2.682 . S
Nd656 O680 2.410 . S
Nd656 O685 2.414 . S
Nd656 O687 2.424 . S
Nd657 C667 2.836 . S
Nd657 O679 2.414 . S
Nd657 O681 2.424 . S
Nd657 O682 2.500 . S
Nd657 O683 2.492 . S
Nd657 O684 2.487 . S
Nd657 O685 2.682 . S
Nd657 O686 2.410 . S
C658 Nd656 2.836 . S
C658 C659 1.498 . S
C658 O676 1.258 . S
C658 O677 1.239 . S
C659 C658 1.498 . S
C659 C660 1.366 . S
C659 C664 1.407 . S
C660 C659 1.366 . S
C660 C661 1.392 . S
C660 H688 0.930 . S
C661 C660 1.392 . S
C661 C662 1.398 . S
C661 H689 0.929 . S
C662 C661 1.398 . S
C662 C663 1.352 . S
C663 C662 1.352 . S
C663 C664 1.384 . S
C663 H690 0.930 . S
C664 C659 1.407 . S
C664 C663 1.384 . S
C664 H691 0.929 . S
C665 O678 1.241 . S
C665 O679 1.273 . S
C666 O680 1.251 . S
C666 O681 1.268 . S
C667 Nd657 2.836 . S
C667 C668 1.498 . S
C667 O682 1.258 . S
C667 O683 1.239 . S
C668 C667 1.498 . S
C668 C669 1.366 . S
C668 C673 1.407 . S
C669 C668 1.366 . S
C669 C670 1.392 . S
C669 H692 0.930 . S
C670 C669 1.392 . S
C670 C671 1.398 . S
C670 H693 0.929 . S
C671 C670 1.398 . S
C671 C672 1.352 . S
C672 C671 1.352 . S
C672 C673 1.384 . S
C672 H694 0.930 . S
C673 C668 1.407 . S
C673 C672 1.384 . S
C673 H695 0.929 . S
C674 O684 1.241 . S
C674 O685 1.273 . S
C675 O686 1.251 . S
C675 O687 1.268 . S
O676 Nd656 2.500 . S
O676 C658 1.258 . S
O677 Nd656 2.492 . S
O677 C658 1.239 . S
O678 Nd656 2.487 . S
O678 C665 1.241 . S
O679 Nd656 2.682 . S
O679 Nd657 2.414 . S
O679 C665 1.273 . S
O680 Nd656 2.410 . S
O680 C666 1.251 . S
O681 Nd657 2.424 . S
O681 C666 1.268 . S
O682 Nd657 2.500 . S
O682 C667 1.258 . S
O683 Nd657 2.492 . S
O683 C667 1.239 . S
O684 Nd657 2.487 . S
O684 C674 1.241 . S
O685 Nd656 2.414 . S
O685 Nd657 2.682 . S
O685 C674 1.273 . S
O686 Nd657 2.410 . S
O686 C675 1.251 . S
O687 Nd656 2.424 . S
O687 C675 1.268 . S
H688 C660 0.930 . S
H689 C661 0.929 . S
H690 C663 0.930 . S
H691 C664 0.929 . S
H692 C669 0.930 . S
H693 C670 0.929 . S
H694 C672 0.930 . S
H695 C673 0.929 . S
Nd696 C698 2.836 . S
Nd696 O716 2.500 . S
Nd696 O717 2.492 . S
Nd696 O718 2.487 . S
Nd696 O719 2.682 . S
Nd696 O720 2.410 . S
Nd696 O725 2.414 . S
Nd696 O727 2.424 . S
Nd697 C707 2.836 . S
Nd697 O719 2.414 . S
Nd697 O721 2.424 . S
Nd697 O722 2.500 . S
Nd697 O723 2.492 . S
Nd697 O724 2.487 . S
Nd697 O725 2.682 . S
Nd697 O726 2.410 . S
C698 Nd696 2.836 . S
C698 C699 1.498 . S
C698 O716 1.258 . S
C698 O717 1.239 . S
C699 C698 1.498 . S
C699 C700 1.366 . S
C699 C704 1.407 . S
C700 C699 1.366 . S
C700 C701 1.392 . S
C700 H728 0.930 . S
C701 C700 1.392 . S
C701 C702 1.398 . S
C701 H729 0.929 . S
C702 C701 1.398 . S
C702 C703 1.352 . S
C703 C702 1.352 . S
C703 C704 1.384 . S
C703 H730 0.930 . S
C704 C699 1.407 . S
C704 C703 1.384 . S
C704 H731 0.929 . S
C705 O718 1.241 . S
C705 O719 1.273 . S
C706 O720 1.251 . S
C706 O721 1.268 . S
C707 Nd697 2.836 . S
C707 C708 1.498 . S
C707 O722 1.258 . S
C707 O723 1.239 . S
C708 C707 1.498 . S
C708 C709 1.366 . S
C708 C713 1.407 . S
C709 C708 1.366 . S
C709 C710 1.392 . S
C709 H732 0.930 . S
C710 C709 1.392 . S
C710 C711 1.398 . S
C710 H733 0.929 . S
C711 C710 1.398 . S
C711 C712 1.352 . S
C712 C711 1.352 . S
C712 C713 1.384 . S
C712 H734 0.930 . S
C713 C708 1.407 . S
C713 C712 1.384 . S
C713 H735 0.929 . S
C714 O724 1.241 . S
C714 O725 1.273 . S
C715 O726 1.251 . S
C715 O727 1.268 . S
O716 Nd696 2.500 . S
O716 C698 1.258 . S
O717 Nd696 2.492 . S
O717 C698 1.239 . S
O718 Nd696 2.487 . S
O718 C705 1.241 . S
O719 Nd696 2.682 . S
O719 Nd697 2.414 . S
O719 C705 1.273 . S
O720 Nd696 2.410 . S
O720 C706 1.251 . S
O721 Nd697 2.424 . S
O721 C706 1.268 . S
O722 Nd697 2.500 . S
O722 C707 1.258 . S
O723 Nd697 2.492 . S
O723 C707 1.239 . S
O724 Nd697 2.487 . S
O724 C714 1.241 . S
O725 Nd696 2.414 . S
O725 Nd697 2.682 . S
O725 C714 1.273 . S
O726 Nd697 2.410 . S
O726 C715 1.251 . S
O727 Nd696 2.424 . S
O727 C715 1.268 . S
H728 C700 0.930 . S
H729 C701 0.929 . S
H730 C703 0.930 . S
H731 C704 0.929 . S
H732 C709 0.930 . S
H733 C710 0.929 . S
H734 C712 0.930 . S
H735 C713 0.929 . S
Nd736 C738 2.836 1_455 S
Nd736 O756 2.500 1_455 S
Nd736 O757 2.492 1_455 S
Nd736 O758 2.487 . S
Nd736 O759 2.682 . S
Nd736 O760 2.410 . S
Nd736 O765 2.414 . S
Nd736 O767 2.424 . S
Nd737 C747 2.836 . S
Nd737 O759 2.414 . S
Nd737 O761 2.424 . S
Nd737 O762 2.500 . S
Nd737 O763 2.492 . S
Nd737 O764 2.487 . S
Nd737 O765 2.682 . S
Nd737 O766 2.410 . S
C738 Nd736 2.836 1_655 S
C738 C739 1.498 . S
C738 O756 1.258 . S
C738 O757 1.239 . S
C739 C738 1.498 . S
C739 C740 1.366 . S
C739 C744 1.407 . S
C740 C739 1.366 . S
C740 C741 1.392 . S
C740 H768 0.930 . S
C741 C740 1.392 . S
C741 C742 1.398 . S
C741 H769 0.929 . S
C742 C741 1.398 . S
C742 C743 1.352 . S
C743 C742 1.352 . S
C743 C744 1.384 . S
C743 H770 0.930 . S
C744 C739 1.407 . S
C744 C743 1.384 . S
C744 H771 0.929 . S
C745 O758 1.241 . S
C745 O759 1.273 . S
C746 O760 1.251 . S
C746 O761 1.268 . S
C747 Nd737 2.836 . S
C747 C748 1.498 . S
C747 O762 1.258 . S
C747 O763 1.239 . S
C748 C747 1.498 . S
C748 C749 1.366 . S
C748 C753 1.407 . S
C749 C748 1.366 . S
C749 C750 1.392 . S
C749 H772 0.930 . S
C750 C749 1.392 . S
C750 C751 1.398 . S
C750 H773 0.929 . S
C751 C750 1.398 . S
C751 C752 1.352 . S
C752 C751 1.352 . S
C752 C753 1.384 . S
C752 H774 0.930 . S
C753 C748 1.407 . S
C753 C752 1.384 . S
C753 H775 0.929 . S
C754 O764 1.241 . S
C754 O765 1.273 . S
C755 O766 1.251 . S
C755 O767 1.268 . S
O756 Nd736 2.500 1_655 S
O756 C738 1.258 . S
O757 Nd736 2.492 1_655 S
O757 C738 1.239 . S
O758 Nd736 2.487 . S
O758 C745 1.241 . S
O759 Nd736 2.682 . S
O759 Nd737 2.414 . S
O759 C745 1.273 . S
O760 Nd736 2.410 . S
O760 C746 1.251 . S
O761 Nd737 2.424 . S
O761 C746 1.268 . S
O762 Nd737 2.500 . S
O762 C747 1.258 . S
O763 Nd737 2.492 . S
O763 C747 1.239 . S
O764 Nd737 2.487 . S
O764 C754 1.241 . S
O765 Nd736 2.414 . S
O765 Nd737 2.682 . S
O765 C754 1.273 . S
O766 Nd737 2.410 . S
O766 C755 1.251 . S
O767 Nd736 2.424 . S
O767 C755 1.268 . S
H768 C740 0.930 . S
H769 C741 0.929 . S
H770 C743 0.930 . S
H771 C744 0.929 . S
H772 C749 0.930 . S
H773 C750 0.929 . S
H774 C752 0.930 . S
H775 C753 0.929 . S
Nd776 C778 2.836 . S
Nd776 O796 2.500 . S
Nd776 O797 2.492 . S
Nd776 O798 2.487 . S
Nd776 O799 2.682 . S
Nd776 O800 2.410 . S
Nd776 O805 2.414 . S
Nd776 O807 2.424 . S
Nd777 C787 2.836 . S
Nd777 O799 2.414 . S
Nd777 O801 2.424 . S
Nd777 O802 2.500 . S
Nd777 O803 2.492 . S
Nd777 O804 2.487 . S
Nd777 O805 2.682 . S
Nd777 O806 2.410 . S
C778 Nd776 2.836 . S
C778 C779 1.498 . S
C778 O796 1.258 . S
C778 O797 1.239 . S
C779 C778 1.498 . S
C779 C780 1.366 . S
C779 C784 1.407 . S
C780 C779 1.366 . S
C780 C781 1.392 . S
C780 H808 0.930 . S
C781 C780 1.392 . S
C781 C782 1.398 . S
C781 H809 0.929 . S
C782 C781 1.398 . S
C782 C783 1.352 . S
C783 C782 1.352 . S
C783 C784 1.384 . S
C783 H810 0.930 . S
C784 C779 1.407 . S
C784 C783 1.384 . S
C784 H811 0.929 . S
C785 O798 1.241 . S
C785 O799 1.273 . S
C786 O800 1.251 . S
C786 O801 1.268 . S
C787 Nd777 2.836 . S
C787 C788 1.498 . S
C787 O802 1.258 . S
C787 O803 1.239 . S
C788 C787 1.498 . S
C788 C789 1.366 . S
C788 C793 1.407 . S
C789 C788 1.366 . S
C789 C790 1.392 . S
C789 H812 0.930 . S
C790 C789 1.392 . S
C790 C791 1.398 . S
C790 H813 0.929 . S
C791 C790 1.398 . S
C791 C792 1.352 . S
C792 C791 1.352 . S
C792 C793 1.384 . S
C792 H814 0.930 . S
C793 C788 1.407 . S
C793 C792 1.384 . S
C793 H815 0.929 . S
C794 O804 1.241 . S
C794 O805 1.273 . S
C795 O806 1.251 . S
C795 O807 1.268 . S
O796 Nd776 2.500 . S
O796 C778 1.258 . S
O797 Nd776 2.492 . S
O797 C778 1.239 . S
O798 Nd776 2.487 . S
O798 C785 1.241 . S
O799 Nd776 2.682 . S
O799 Nd777 2.414 . S
O799 C785 1.273 . S
O800 Nd776 2.410 . S
O800 C786 1.251 . S
O801 Nd777 2.424 . S
O801 C786 1.268 . S
O802 Nd777 2.500 . S
O802 C787 1.258 . S
O803 Nd777 2.492 . S
O803 C787 1.239 . S
O804 Nd777 2.487 . S
O804 C794 1.241 . S
O805 Nd776 2.414 . S
O805 Nd777 2.682 . S
O805 C794 1.273 . S
O806 Nd777 2.410 . S
O806 C795 1.251 . S
O807 Nd776 2.424 . S
O807 C795 1.268 . S
H808 C780 0.930 . S
H809 C781 0.929 . S
H810 C783 0.930 . S
H811 C784 0.929 . S
H812 C789 0.930 . S
H813 C790 0.929 . S
H814 C792 0.930 . S
H815 C793 0.929 . S
Nd816 C818 2.836 . S
Nd816 O836 2.500 . S
Nd816 O837 2.492 . S
Nd816 O838 2.487 . S
Nd816 O839 2.682 . S
Nd816 O840 2.410 . S
Nd816 O845 2.414 . S
Nd816 O847 2.424 . S
Nd817 C827 2.836 . S
Nd817 O839 2.414 . S
Nd817 O841 2.424 . S
Nd817 O842 2.500 . S
Nd817 O843 2.492 . S
Nd817 O844 2.487 . S
Nd817 O845 2.682 . S
Nd817 O846 2.410 . S
C818 Nd816 2.836 . S
C818 C819 1.498 . S
C818 O836 1.258 . S
C818 O837 1.239 . S
C819 C818 1.498 . S
C819 C820 1.366 . S
C819 C824 1.407 . S
C820 C819 1.366 . S
C820 C821 1.392 . S
C820 H848 0.930 . S
C821 C820 1.392 . S
C821 C822 1.398 . S
C821 H849 0.929 . S
C822 C821 1.398 . S
C822 C823 1.352 . S
C823 C822 1.352 . S
C823 C824 1.384 . S
C823 H850 0.930 . S
C824 C819 1.407 . S
C824 C823 1.384 . S
C824 H851 0.929 . S
C825 O838 1.241 . S
C825 O839 1.273 . S
C826 O840 1.251 . S
C826 O841 1.268 . S
C827 Nd817 2.836 . S
C827 C828 1.498 . S
C827 O842 1.258 . S
C827 O843 1.239 . S
C828 C827 1.498 . S
C828 C829 1.366 . S
C828 C833 1.407 . S
C829 C828 1.366 . S
C829 C830 1.392 . S
C829 H852 0.930 . S
C830 C829 1.392 . S
C830 C831 1.398 . S
C830 H853 0.929 . S
C831 C830 1.398 . S
C831 C832 1.352 . S
C832 C831 1.352 . S
C832 C833 1.384 . S
C832 H854 0.930 . S
C833 C828 1.407 . S
C833 C832 1.384 . S
C833 H855 0.929 . S
C834 O844 1.241 . S
C834 O845 1.273 . S
C835 O846 1.251 . S
C835 O847 1.268 . S
O836 Nd816 2.500 . S
O836 C818 1.258 . S
O837 Nd816 2.492 . S
O837 C818 1.239 . S
O838 Nd816 2.487 . S
O838 C825 1.241 . S
O839 Nd816 2.682 . S
O839 Nd817 2.414 . S
O839 C825 1.273 . S
O840 Nd816 2.410 . S
O840 C826 1.251 . S
O841 Nd817 2.424 . S
O841 C826 1.268 . S
O842 Nd817 2.500 . S
O842 C827 1.258 . S
O843 Nd817 2.492 . S
O843 C827 1.239 . S
O844 Nd817 2.487 . S
O844 C834 1.241 . S
O845 Nd816 2.414 . S
O845 Nd817 2.682 . S
O845 C834 1.273 . S
O846 Nd817 2.410 . S
O846 C835 1.251 . S
O847 Nd816 2.424 . S
O847 C835 1.268 . S
H848 C820 0.930 . S
H849 C821 0.929 . S
H850 C823 0.930 . S
H851 C824 0.929 . S
H852 C829 0.930 . S
H853 C830 0.929 . S
H854 C832 0.930 . S
H855 C833 0.929 . S
Nd856 C858 2.836 . S
Nd856 O876 2.500 . S
Nd856 O877 2.492 . S
Nd856 O878 2.487 . S
Nd856 O879 2.682 . S
Nd856 O880 2.410 . S
Nd856 O885 2.414 . S
Nd856 O887 2.424 . S
Nd857 C867 2.836 . S
Nd857 O879 2.414 . S
Nd857 O881 2.424 . S
Nd857 O882 2.500 . S
Nd857 O883 2.492 . S
Nd857 O884 2.487 . S
Nd857 O885 2.682 . S
Nd857 O886 2.410 . S
C858 Nd856 2.836 . S
C858 C859 1.498 . S
C858 O876 1.258 . S
C858 O877 1.239 . S
C859 C858 1.498 . S
C859 C860 1.366 . S
C859 C864 1.407 . S
C860 C859 1.366 . S
C860 C861 1.392 . S
C860 H888 0.930 . S
C861 C860 1.392 . S
C861 C862 1.398 . S
C861 H889 0.929 . S
C862 C861 1.398 . S
C862 C863 1.352 . S
C863 C862 1.352 . S
C863 C864 1.384 . S
C863 H890 0.930 . S
C864 C859 1.407 . S
C864 C863 1.384 . S
C864 H891 0.929 . S
C865 O878 1.241 . S
C865 O879 1.273 . S
C866 O880 1.251 . S
C866 O881 1.268 . S
C867 Nd857 2.836 . S
C867 C868 1.498 . S
C867 O882 1.258 . S
C867 O883 1.239 . S
C868 C867 1.498 . S
C868 C869 1.366 . S
C868 C873 1.407 . S
C869 C868 1.366 . S
C869 C870 1.392 . S
C869 H892 0.930 . S
C870 C869 1.392 . S
C870 C871 1.398 . S
C870 H893 0.929 . S
C871 C870 1.398 . S
C871 C872 1.352 . S
C872 C871 1.352 . S
C872 C873 1.384 . S
C872 H894 0.930 . S
C873 C868 1.407 . S
C873 C872 1.384 . S
C873 H895 0.929 . S
C874 O884 1.241 . S
C874 O885 1.273 . S
C875 O886 1.251 . S
C875 O887 1.268 . S
O876 Nd856 2.500 . S
O876 C858 1.258 . S
O877 Nd856 2.492 . S
O877 C858 1.239 . S
O878 Nd856 2.487 . S
O878 C865 1.241 . S
O879 Nd856 2.682 . S
O879 Nd857 2.414 . S
O879 C865 1.273 . S
O880 Nd856 2.410 . S
O880 C866 1.251 . S
O881 Nd857 2.424 . S
O881 C866 1.268 . S
O882 Nd857 2.500 . S
O882 C867 1.258 . S
O883 Nd857 2.492 . S
O883 C867 1.239 . S
O884 Nd857 2.487 . S
O884 C874 1.241 . S
O885 Nd856 2.414 . S
O885 Nd857 2.682 . S
O885 C874 1.273 . S
O886 Nd857 2.410 . S
O886 C875 1.251 . S
O887 Nd856 2.424 . S
O887 C875 1.268 . S
H888 C860 0.930 . S
H889 C861 0.929 . S
H890 C863 0.930 . S
H891 C864 0.929 . S
H892 C869 0.930 . S
H893 C870 0.929 . S
H894 C872 0.930 . S
H895 C873 0.929 . S
Nd896 C898 2.836 . S
Nd896 O916 2.500 . S
Nd896 O917 2.492 . S
Nd896 O918 2.487 . S
Nd896 O919 2.682 . S
Nd896 O920 2.410 . S
Nd896 O925 2.414 . S
Nd896 O927 2.424 . S
Nd897 C907 2.836 . S
Nd897 O919 2.414 . S
Nd897 O921 2.424 . S
Nd897 O922 2.500 . S
Nd897 O923 2.492 . S
Nd897 O924 2.487 . S
Nd897 O925 2.682 . S
Nd897 O926 2.410 . S
C898 Nd896 2.836 . S
C898 C899 1.498 . S
C898 O916 1.258 . S
C898 O917 1.239 . S
C899 C898 1.498 . S
C899 C900 1.366 . S
C899 C904 1.407 . S
C900 C899 1.366 . S
C900 C901 1.392 . S
C900 H928 0.930 . S
C901 C900 1.392 . S
C901 C902 1.398 . S
C901 H929 0.929 . S
C902 C901 1.398 . S
C902 C903 1.352 . S
C903 C902 1.352 . S
C903 C904 1.384 . S
C903 H930 0.930 . S
C904 C899 1.407 . S
C904 C903 1.384 . S
C904 H931 0.929 . S
C905 O918 1.241 . S
C905 O919 1.273 . S
C906 O920 1.251 . S
C906 O921 1.268 . S
C907 Nd897 2.836 . S
C907 C908 1.498 . S
C907 O922 1.258 . S
C907 O923 1.239 . S
C908 C907 1.498 . S
C908 C909 1.366 . S
C908 C913 1.407 . S
C909 C908 1.366 . S
C909 C910 1.392 . S
C909 H932 0.930 . S
C910 C909 1.392 . S
C910 C911 1.398 . S
C910 H933 0.929 . S
C911 C910 1.398 . S
C911 C912 1.352 . S
C912 C911 1.352 . S
C912 C913 1.384 . S
C912 H934 0.930 . S
C913 C908 1.407 . S
C913 C912 1.384 . S
C913 H935 0.929 . S
C914 O924 1.241 . S
C914 O925 1.273 . S
C915 O926 1.251 . S
C915 O927 1.268 . S
O916 Nd896 2.500 . S
O916 C898 1.258 . S
O917 Nd896 2.492 . S
O917 C898 1.239 . S
O918 Nd896 2.487 . S
O918 C905 1.241 . S
O919 Nd896 2.682 . S
O919 Nd897 2.414 . S
O919 C905 1.273 . S
O920 Nd896 2.410 . S
O920 C906 1.251 . S
O921 Nd897 2.424 . S
O921 C906 1.268 . S
O922 Nd897 2.500 . S
O922 C907 1.258 . S
O923 Nd897 2.492 . S
O923 C907 1.239 . S
O924 Nd897 2.487 . S
O924 C914 1.241 . S
O925 Nd896 2.414 . S
O925 Nd897 2.682 . S
O925 C914 1.273 . S
O926 Nd897 2.410 . S
O926 C915 1.251 . S
O927 Nd896 2.424 . S
O927 C915 1.268 . S
H928 C900 0.930 . S
H929 C901 0.929 . S
H930 C903 0.930 . S
H931 C904 0.929 . S
H932 C909 0.930 . S
H933 C910 0.929 . S
H934 C912 0.930 . S
H935 C913 0.929 . S
Nd936 C938 2.836 . S
Nd936 O956 2.500 . S
Nd936 O957 2.492 . S
Nd936 O958 2.487 . S
Nd936 O959 2.682 . S
Nd936 O960 2.410 . S
Nd936 O965 2.414 . S
Nd936 O967 2.424 . S
Nd937 C947 2.836 1_455 S
Nd937 O959 2.414 . S
Nd937 O961 2.424 . S
Nd937 O962 2.500 1_455 S
Nd937 O963 2.492 1_455 S
Nd937 O964 2.487 . S
Nd937 O965 2.682 . S
Nd937 O966 2.410 . S
C938 Nd936 2.836 . S
C938 C939 1.498 . S
C938 O956 1.258 . S
C938 O957 1.239 . S
C939 C938 1.498 . S
C939 C940 1.366 . S
C939 C944 1.407 . S
C940 C939 1.366 . S
C940 C941 1.392 . S
C940 H968 0.930 . S
C941 C940 1.392 . S
C941 C942 1.398 . S
C941 H969 0.929 . S
C942 C941 1.398 . S
C942 C943 1.352 . S
C943 C942 1.352 . S
C943 C944 1.384 . S
C943 H970 0.930 . S
C944 C939 1.407 . S
C944 C943 1.384 . S
C944 H971 0.929 . S
C945 O958 1.241 . S
C945 O959 1.273 . S
C946 O960 1.251 . S
C946 O961 1.268 . S
C947 Nd937 2.836 1_655 S
C947 C948 1.498 . S
C947 O962 1.258 . S
C947 O963 1.239 . S
C948 C947 1.498 . S
C948 C949 1.366 . S
C948 C953 1.407 . S
C949 C948 1.366 . S
C949 C950 1.392 . S
C949 H972 0.930 . S
C950 C949 1.392 . S
C950 C951 1.398 . S
C950 H973 0.929 . S
C951 C950 1.398 . S
C951 C952 1.352 . S
C952 C951 1.352 . S
C952 C953 1.384 . S
C952 H974 0.930 . S
C953 C948 1.407 . S
C953 C952 1.384 . S
C953 H975 0.929 . S
C954 O964 1.241 . S
C954 O965 1.273 . S
C955 O966 1.251 . S
C955 O967 1.268 . S
O956 Nd936 2.500 . S
O956 C938 1.258 . S
O957 Nd936 2.492 . S
O957 C938 1.239 . S
O958 Nd936 2.487 . S
O958 C945 1.241 . S
O959 Nd936 2.682 . S
O959 Nd937 2.414 . S
O959 C945 1.273 . S
O960 Nd936 2.410 . S
O960 C946 1.251 . S
O961 Nd937 2.424 . S
O961 C946 1.268 . S
O962 Nd937 2.500 1_655 S
O962 C947 1.258 . S
O963 Nd937 2.492 1_655 S
O963 C947 1.239 . S
O964 Nd937 2.487 . S
O964 C954 1.241 . S
O965 Nd936 2.414 . S
O965 Nd937 2.682 . S
O965 C954 1.273 . S
O966 Nd937 2.410 . S
O966 C955 1.251 . S
O967 Nd936 2.424 . S
O967 C955 1.268 . S
H968 C940 0.930 . S
H969 C941 0.929 . S
H970 C943 0.930 . S
H971 C944 0.929 . S
H972 C949 0.930 . S
H973 C950 0.929 . S
H974 C952 0.930 . S
H975 C953 0.929 . S
C976 C977 1.369 1_554 S
C976 C978 1.419 . S
C976 H980 0.930 . S
C977 C976 1.369 1_556 S
C977 C986 1.429 . S
C978 C976 1.419 . S
C978 C979 1.363 . S
C978 H981 0.929 . S
C979 C978 1.363 . S
C979 C985 1.428 . S
H980 C976 0.930 . S
H981 C978 0.929 . S
S982 N983 1.613 . S
S982 N984 1.610 1_556 S
N983 S982 1.613 . S
N983 C986 1.350 . S
N984 S982 1.610 1_554 S
N984 C985 1.351 . S
C985 C979 1.428 . S
C985 N984 1.351 . S
C985 C986 1.434 1_554 S
C986 C977 1.429 . S
C986 N983 1.350 . S
C986 C985 1.434 1_556 S
C987 C988 1.369 . S
C987 C989 1.419 . S
C987 H991 0.930 . S
C988 C987 1.369 . S
C988 C997 1.429 . S
C989 C987 1.419 . S
C989 C990 1.363 . S
C989 H992 0.929 . S
C990 C989 1.363 . S
C990 C996 1.428 . S
H991 C987 0.930 . S
H992 C989 0.929 . S
S993 N994 1.613 . S
S993 N995 1.610 . S
N994 S993 1.613 . S
N994 C997 1.350 . S
N995 S993 1.610 . S
N995 C996 1.351 . S
C996 C990 1.428 . S
C996 N995 1.351 . S
C996 C997 1.434 . S
C997 C988 1.429 . S
C997 N994 1.350 . S
C997 C996 1.434 . S
C998 C999 1.369 . S
C998 C1000 1.419 . S
C998 H1002 0.930 . S
C999 C998 1.369 . S
C999 C1008 1.429 . S
C1000 C998 1.419 . S
C1000 C1001 1.363 . S
C1000 H1003 0.929 . S
C1001 C1000 1.363 . S
C1001 C1007 1.428 . S
H1002 C998 0.930 . S
H1003 C1000 0.929 . S
S1004 N1005 1.613 1_545 S
S1004 N1006 1.610 . S
N1005 S1004 1.613 1_565 S
N1005 C1008 1.350 . S
N1006 S1004 1.610 . S
N1006 C1007 1.351 1_545 S
C1007 C1001 1.428 . S
C1007 N1006 1.351 1_565 S
C1007 C1008 1.434 . S
C1008 C999 1.429 . S
C1008 N1005 1.350 . S
C1008 C1007 1.434 . S
C1009 C1010 1.369 . S
C1009 C1011 1.419 . S
C1009 H1013 0.930 . S
C1010 C1009 1.369 . S
C1010 C1019 1.429 . S
C1011 C1009 1.419 . S
C1011 C1012 1.363 . S
C1011 H1014 0.929 . S
C1012 C1011 1.363 . S
C1012 C1018 1.428 . S
H1013 C1009 0.930 . S
H1014 C1011 0.929 . S
S1015 N1016 1.613 . S
S1015 N1017 1.610 . S
N1016 S1015 1.613 . S
N1016 C1019 1.350 . S
N1017 S1015 1.610 . S
N1017 C1018 1.351 . S
C1018 C1012 1.428 . S
C1018 N1017 1.351 . S
C1018 C1019 1.434 . S
C1019 C1010 1.429 . S
C1019 N1016 1.350 . S
C1019 C1018 1.434 . S
C1020 C1021 1.369 . S
C1020 C1022 1.419 . S
C1020 H1024 0.930 . S
C1021 C1020 1.369 . S
C1021 C1030 1.429 . S
C1022 C1020 1.419 . S
C1022 C1023 1.363 . S
C1022 H1025 0.929 . S
C1023 C1022 1.363 . S
C1023 C1029 1.428 . S
H1024 C1020 0.930 . S
H1025 C1022 0.929 . S
S1026 N1027 1.613 . S
S1026 N1028 1.610 . S
N1027 S1026 1.613 . S
N1027 C1030 1.350 . S
N1028 S1026 1.610 . S
N1028 C1029 1.351 . S
C1029 C1023 1.428 . S
C1029 N1028 1.351 . S
C1029 C1030 1.434 . S
C1030 C1021 1.429 . S
C1030 N1027 1.350 . S
C1030 C1029 1.434 . S
C1031 C1032 1.369 . S
C1031 C1033 1.419 . S
C1031 H1035 0.930 . S
C1032 C1031 1.369 . S
C1032 C1041 1.429 . S
C1033 C1031 1.419 . S
C1033 C1034 1.363 . S
C1033 H1036 0.929 . S
C1034 C1033 1.363 . S
C1034 C1040 1.428 . S
H1035 C1031 0.930 . S
H1036 C1033 0.929 . S
S1037 N1038 1.613 . S
S1037 N1039 1.610 . S
N1038 S1037 1.613 . S
N1038 C1041 1.350 . S
N1039 S1037 1.610 . S
N1039 C1040 1.351 . S
C1040 C1034 1.428 . S
C1040 N1039 1.351 . S
C1040 C1041 1.434 . S
C1041 C1032 1.429 . S
C1041 N1038 1.350 . S
C1041 C1040 1.434 . S
C1042 C1043 1.369 . S
C1042 C1044 1.419 . S
C1042 H1046 0.930 . S
C1043 C1042 1.369 . S
C1043 C1052 1.429 . S
C1044 C1042 1.419 . S
C1044 C1045 1.363 . S
C1044 H1047 0.929 . S
C1045 C1044 1.363 . S
C1045 C1051 1.428 . S
H1046 C1042 0.930 . S
H1047 C1044 0.929 . S
S1048 N1049 1.613 . S
S1048 N1050 1.610 1_556 S
N1049 S1048 1.613 . S
N1049 C1052 1.350 1_556 S
N1050 S1048 1.610 1_554 S
N1050 C1051 1.351 . S
C1051 C1045 1.428 . S
C1051 N1050 1.351 . S
C1051 C1052 1.434 . S
C1052 C1043 1.429 . S
C1052 N1049 1.350 1_554 S
C1052 C1051 1.434 . S
C1053 C1054 1.369 . S
C1053 C1055 1.419 . S
C1053 H1057 0.930 . S
C1054 C1053 1.369 . S
C1054 C1063 1.429 . S
C1055 C1053 1.419 . S
C1055 C1056 1.363 . S
C1055 H1058 0.929 . S
C1056 C1055 1.363 . S
C1056 C1062 1.428 . S
H1057 C1053 0.930 . S
H1058 C1055 0.929 . S
S1059 N1060 1.613 . S
S1059 N1061 1.610 . S
N1060 S1059 1.613 . S
N1060 C1063 1.350 . S
N1061 S1059 1.610 . S
N1061 C1062 1.351 . S
C1062 C1056 1.428 . S
C1062 N1061 1.351 . S
C1062 C1063 1.434 . S
C1063 C1054 1.429 . S
C1063 N1060 1.350 . S
C1063 C1062 1.434 . S
C1064 C1065 1.369 . S
C1064 C1066 1.419 1_655 S
C1064 H1068 0.930 . S
C1065 C1064 1.369 . S
C1065 C1074 1.429 . S
C1066 C1064 1.419 1_455 S
C1066 C1067 1.363 . S
C1066 H1069 0.929 . S
C1067 C1066 1.363 . S
C1067 C1073 1.428 1_455 S
H1068 C1064 0.930 . S
H1069 C1066 0.929 . S
S1070 N1071 1.613 . S
S1070 N1072 1.610 . S
N1071 S1070 1.613 . S
N1071 C1074 1.350 . S
N1072 S1070 1.610 . S
N1072 C1073 1.351 . S
C1073 C1067 1.428 1_655 S
C1073 N1072 1.351 . S
C1073 C1074 1.434 . S
C1074 C1065 1.429 . S
C1074 N1071 1.350 . S
C1074 C1073 1.434 . S
C1075 C1076 1.369 . S
C1075 C1077 1.419 . S
C1075 H1079 0.930 . S
C1076 C1075 1.369 . S
C1076 C1085 1.429 . S
C1077 C1075 1.419 . S
C1077 C1078 1.363 . S
C1077 H1080 0.929 . S
C1078 C1077 1.363 . S
C1078 C1084 1.428 . S
H1079 C1075 0.930 . S
H1080 C1077 0.929 . S
S1081 N1082 1.613 . S
S1081 N1083 1.610 . S
N1082 S1081 1.613 . S
N1082 C1085 1.350 . S
N1083 S1081 1.610 . S
N1083 C1084 1.351 . S
C1084 C1078 1.428 . S
C1084 N1083 1.351 . S
C1084 C1085 1.434 . S
C1085 C1076 1.429 . S
C1085 N1082 1.350 . S
C1085 C1084 1.434 . S
C1086 C1087 1.369 1_565 S
C1086 C1088 1.419 1_565 S
C1086 H1090 0.930 . S
C1087 C1086 1.369 1_545 S
C1087 C1096 1.429 . S
C1088 C1086 1.419 1_545 S
C1088 C1089 1.363 . S
C1088 H1091 0.929 . S
C1089 C1088 1.363 . S
C1089 C1095 1.428 . S
H1090 C1086 0.930 . S
H1091 C1088 0.929 . S
S1092 N1093 1.613 . S
S1092 N1094 1.610 . S
N1093 S1092 1.613 . S
N1093 C1096 1.350 . S
N1094 S1092 1.610 . S
N1094 C1095 1.351 . S
C1095 C1089 1.428 . S
C1095 N1094 1.351 . S
C1095 C1096 1.434 . S
C1096 C1087 1.429 . S
C1096 N1093 1.350 . S
C1096 C1095 1.434 . S
C1097 C1098 1.369 . S
C1097 C1099 1.419 . S
C1097 H1101 0.930 . S
C1098 C1097 1.369 . S
C1098 C1107 1.429 . S
C1099 C1097 1.419 . S
C1099 C1100 1.363 . S
C1099 H1102 0.929 . S
C1100 C1099 1.363 . S
C1100 C1106 1.428 . S
H1101 C1097 0.930 . S
H1102 C1099 0.929 . S
S1103 N1104 1.613 . S
S1103 N1105 1.610 . S
N1104 S1103 1.613 . S
N1104 C1107 1.350 . S
N1105 S1103 1.610 . S
N1105 C1106 1.351 . S
C1106 C1100 1.428 . S
C1106 N1105 1.351 . S
C1106 C1107 1.434 . S
C1107 C1098 1.429 . S
C1107 N1104 1.350 . S
C1107 C1106 1.434 . S
C1108 C1109 1.369 . S
C1108 C1110 1.419 . S
C1108 H1112 0.930 . S
C1109 C1108 1.369 . S
C1109 C1118 1.429 . S
C1110 C1108 1.419 . S
C1110 C1111 1.362 1_655 S
C1110 H1113 0.929 . S
C1111 C1110 1.362 1_455 S
C1111 C1117 1.429 . S
H1112 C1108 0.930 . S
H1113 C1110 0.929 . S
S1114 N1115 1.613 . S
S1114 N1116 1.610 . S
N1115 S1114 1.613 . S
N1115 C1118 1.350 1_455 S
N1116 S1114 1.610 . S
N1116 C1117 1.351 . S
C1117 C1111 1.429 . S
C1117 N1116 1.351 . S
C1117 C1118 1.434 1_455 S
C1118 C1109 1.429 . S
C1118 N1115 1.350 1_655 S
C1118 C1117 1.434 1_655 S
C1119 C1120 1.369 . S
C1119 C1121 1.419 . S
C1119 H1123 0.930 . S
C1120 C1119 1.369 . S
C1120 C1129 1.429 . S
C1121 C1119 1.419 . S
C1121 C1122 1.363 . S
C1121 H1124 0.929 . S
C1122 C1121 1.363 . S
C1122 C1128 1.428 . S
H1123 C1119 0.930 . S
H1124 C1121 0.929 . S
S1125 N1126 1.613 . S
S1125 N1127 1.610 . S
N1126 S1125 1.613 . S
N1126 C1129 1.350 . S
N1127 S1125 1.610 . S
N1127 C1128 1.351 . S
C1128 C1122 1.428 . S
C1128 N1127 1.351 . S
C1128 C1129 1.434 . S
C1129 C1120 1.429 . S
C1129 N1126 1.350 . S
C1129 C1128 1.434 . S
C1130 C1131 1.369 . S
C1130 C1132 1.419 . S
C1130 H1134 0.930 1_545 S
C1131 C1130 1.369 . S
C1131 C1140 1.429 . S
C1132 C1130 1.419 . S
C1132 C1133 1.363 . S
C1132 H1135 0.929 . S
C1133 C1132 1.363 . S
C1133 C1139 1.428 . S
H1134 C1130 0.930 1_565 S
H1135 C1132 0.929 . S
S1136 N1137 1.613 . S
S1136 N1138 1.610 . S
N1137 S1136 1.613 . S
N1137 C1140 1.350 . S
N1138 S1136 1.610 . S
N1138 C1139 1.351 . S
C1139 C1133 1.428 . S
C1139 N1138 1.351 . S
C1139 C1140 1.434 . S
C1140 C1131 1.429 . S
C1140 N1137 1.350 . S
C1140 C1139 1.434 . S
C1141 C1142 1.369 . S
C1141 C1143 1.419 . S
C1141 H1145 0.930 . S
C1142 C1141 1.369 . S
C1142 C1151 1.429 . S
C1143 C1141 1.419 . S
C1143 C1144 1.363 . S
C1143 H1146 0.929 . S
C1144 C1143 1.363 . S
C1144 C1150 1.428 . S
H1145 C1141 0.930 . S
H1146 C1143 0.929 . S
S1147 N1148 1.613 . S
S1147 N1149 1.610 . S
N1148 S1147 1.613 . S
N1148 C1151 1.350 . S
N1149 S1147 1.610 . S
N1149 C1150 1.351 . S
C1150 C1144 1.428 . S
C1150 N1149 1.351 . S
C1150 C1151 1.434 . S
C1151 C1142 1.429 . S
C1151 N1148 1.350 . S
C1151 C1150 1.434 . S
C1152 C1153 1.369 . S
C1152 C1154 1.419 1_565 S
C1152 H1156 0.930 . S
C1153 C1152 1.369 . S
C1153 C1162 1.429 . S
C1154 C1152 1.419 1_545 S
C1154 C1155 1.363 . S
C1154 H1157 0.929 . S
C1155 C1154 1.363 . S
C1155 C1161 1.428 1_545 S
H1156 C1152 0.930 . S
H1157 C1154 0.929 . S
S1158 N1159 1.613 . S
S1158 N1160 1.610 1_565 S
N1159 S1158 1.613 . S
N1159 C1162 1.350 . S
N1160 S1158 1.610 1_545 S
N1160 C1161 1.351 1_545 S
C1161 C1155 1.428 1_565 S
C1161 N1160 1.351 1_565 S
C1161 C1162 1.434 . S
C1162 C1153 1.429 . S
C1162 N1159 1.350 . S
C1162 C1161 1.434 . S
C1163 C1164 1.369 . S
C1163 C1165 1.419 . S
C1163 H1167 0.930 . S
C1164 C1163 1.369 . S
C1164 C1173 1.429 1_554 S
C1165 C1163 1.419 . S
C1165 C1166 1.363 . S
C1165 H1168 0.929 . S
C1166 C1165 1.363 . S
C1166 C1172 1.428 . S
H1167 C1163 0.930 . S
H1168 C1165 0.929 . S
S1169 N1170 1.613 . S
S1169 N1171 1.610 . S
N1170 S1169 1.613 . S
N1170 C1173 1.350 . S
N1171 S1169 1.610 . S
N1171 C1172 1.351 1_556 S
C1172 C1166 1.428 . S
C1172 N1171 1.351 1_554 S
C1172 C1173 1.434 1_554 S
C1173 C1164 1.429 1_556 S
C1173 N1170 1.350 . S
C1173 C1172 1.434 1_556 S
C1174 C1175 1.369 . S
C1174 C1176 1.419 . S
C1174 H1178 0.930 . S
C1175 C1174 1.369 . S
C1175 C1184 1.429 . S
C1176 C1174 1.419 . S
C1176 C1177 1.363 . S
C1176 H1179 0.929 . S
C1177 C1176 1.363 . S
C1177 C1183 1.428 . S
H1178 C1174 0.930 . S
H1179 C1176 0.929 . S
S1180 N1181 1.613 . S
S1180 N1182 1.610 . S
N1181 S1180 1.613 . S
N1181 C1184 1.350 . S
N1182 S1180 1.610 . S
N1182 C1183 1.351 . S
C1183 C1177 1.428 . S
C1183 N1182 1.351 . S
C1183 C1184 1.434 . S
C1184 C1175 1.429 . S
C1184 N1181 1.350 . S
C1184 C1183 1.434 . S
C1185 C1186 1.369 . S
C1185 C1187 1.419 . S
C1185 H1189 0.930 . S
C1186 C1185 1.369 . S
C1186 C1195 1.429 . S
C1187 C1185 1.419 . S
C1187 C1188 1.363 . S
C1187 H1190 0.929 . S
C1188 C1187 1.363 . S
C1188 C1194 1.428 . S
H1189 C1185 0.930 . S
H1190 C1187 0.929 . S
S1191 N1192 1.613 . S
S1191 N1193 1.610 . S
N1192 S1191 1.613 . S
N1192 C1195 1.350 . S
N1193 S1191 1.610 . S
N1193 C1194 1.351 . S
C1194 C1188 1.428 . S
C1194 N1193 1.351 . S
C1194 C1195 1.434 . S
C1195 C1186 1.429 . S
C1195 N1192 1.350 . S
C1195 C1194 1.434 . S
C1196 C1197 1.369 . S
C1196 C1198 1.419 . S
C1196 H1200 0.930 . S
C1197 C1196 1.369 . S
C1197 C1206 1.429 . S
C1198 C1196 1.419 . S
C1198 C1199 1.363 . S
C1198 H1201 0.929 . S
C1199 C1198 1.363 . S
C1199 C1205 1.428 . S
H1200 C1196 0.930 . S
H1201 C1198 0.929 . S
S1202 N1203 1.613 . S
S1202 N1204 1.610 . S
N1203 S1202 1.613 . S
N1203 C1206 1.350 . S
N1204 S1202 1.610 . S
N1204 C1205 1.351 . S
C1205 C1199 1.428 . S
C1205 N1204 1.351 . S
C1205 C1206 1.434 . S
C1206 C1197 1.429 . S
C1206 N1203 1.350 . S
C1206 C1205 1.434 . S
C1207 C1208 1.369 . S
C1207 C1209 1.419 . S
C1207 H1211 0.930 . S
C1208 C1207 1.369 . S
C1208 C1217 1.429 . S
C1209 C1207 1.419 . S
C1209 C1210 1.363 . S
C1209 H1212 0.929 . S
C1210 C1209 1.363 . S
C1210 C1216 1.428 . S
H1211 C1207 0.930 . S
H1212 C1209 0.929 . S
S1213 N1214 1.613 . S
S1213 N1215 1.610 . S
N1214 S1213 1.613 . S
N1214 C1217 1.350 . S
N1215 S1213 1.610 . S
N1215 C1216 1.351 . S
C1216 C1210 1.428 . S
C1216 N1215 1.351 . S
C1216 C1217 1.434 . S
C1217 C1208 1.429 . S
C1217 N1214 1.350 . S
C1217 C1216 1.434 . S
C1218 C1219 1.369 . S
C1218 C1220 1.419 . S
C1218 H1222 0.930 . S
C1219 C1218 1.369 . S
C1219 C1228 1.429 . S
C1220 C1218 1.419 . S
C1220 C1221 1.363 . S
C1220 H1223 0.929 . S
C1221 C1220 1.363 . S
C1221 C1227 1.428 . S
H1222 C1218 0.930 . S
H1223 C1220 0.929 . S
S1224 N1225 1.613 . S
S1224 N1226 1.610 . S
N1225 S1224 1.613 . S
N1225 C1228 1.350 . S
N1226 S1224 1.610 . S
N1226 C1227 1.351 . S
C1227 C1221 1.428 . S
C1227 N1226 1.351 . S
C1227 C1228 1.434 . S
C1228 C1219 1.429 . S
C1228 N1225 1.350 . S
C1228 C1227 1.434 . S
C1229 C1230 1.369 . S
C1229 C1231 1.419 . S
C1229 H1233 0.930 . S
C1230 C1229 1.369 . S
C1230 C1239 1.429 . S
C1231 C1229 1.419 . S
C1231 C1232 1.363 . S
C1231 H1234 0.929 . S
C1232 C1231 1.363 . S
C1232 C1238 1.428 . S
H1233 C1229 0.930 . S
H1234 C1231 0.929 . S
S1235 N1236 1.613 . S
S1235 N1237 1.610 . S
N1236 S1235 1.613 . S
N1236 C1239 1.350 . S
N1237 S1235 1.610 . S
N1237 C1238 1.351 . S
C1238 C1232 1.428 . S
C1238 N1237 1.351 . S
C1238 C1239 1.434 . S
C1239 C1230 1.429 . S
C1239 N1236 1.350 . S
C1239 C1238 1.434 . S
C1240 C1241 1.369 . S
C1240 C1242 1.419 . S
C1240 H1244 0.930 . S
C1241 C1240 1.369 . S
C1241 C1250 1.429 . S
C1242 C1240 1.419 . S
C1242 C1243 1.363 . S
C1242 H1245 0.929 . S
C1243 C1242 1.363 . S
C1243 C1249 1.428 . S
H1244 C1240 0.930 . S
H1245 C1242 0.929 . S
S1246 N1247 1.613 . S
S1246 N1248 1.610 . S
N1247 S1246 1.613 . S
N1247 C1250 1.350 . S
N1248 S1246 1.610 . S
N1248 C1249 1.351 . S
C1249 C1243 1.428 . S
C1249 N1248 1.351 . S
C1249 C1250 1.434 . S
C1250 C1241 1.429 . S
C1250 N1247 1.350 . S
C1250 C1249 1.434 . S
C1251 C1252 1.369 . S
C1251 C1253 1.419 . S
C1251 H1255 0.930 . S
C1252 C1251 1.369 . S
C1252 C1261 1.429 . S
C1253 C1251 1.419 . S
C1253 C1254 1.363 . S
C1253 H1256 0.929 . S
C1254 C1253 1.363 . S
C1254 C1260 1.428 . S
H1255 C1251 0.930 . S
H1256 C1253 0.929 . S
S1257 N1258 1.613 . S
S1257 N1259 1.610 . S
N1258 S1257 1.613 . S
N1258 C1261 1.350 . S
N1259 S1257 1.610 . S
N1259 C1260 1.351 . S
C1260 C1254 1.428 . S
C1260 N1259 1.351 . S
C1260 C1261 1.434 . S
C1261 C1252 1.429 . S
C1261 N1258 1.350 . S
C1261 C1260 1.434 . S
C1262 C1263 1.369 . S
C1262 C1264 1.419 . S
C1262 H1266 0.930 . S
C1263 C1262 1.369 . S
C1263 C1272 1.429 . S
C1264 C1262 1.419 . S
C1264 C1265 1.363 . S
C1264 H1267 0.929 . S
C1265 C1264 1.363 . S
C1265 C1271 1.428 . S
H1266 C1262 0.930 . S
H1267 C1264 0.929 . S
S1268 N1269 1.613 . S
S1268 N1270 1.610 . S
N1269 S1268 1.613 . S
N1269 C1272 1.350 . S
N1270 S1268 1.610 . S
N1270 C1271 1.351 . S
C1271 C1265 1.428 . S
C1271 N1270 1.351 . S
C1271 C1272 1.434 . S
C1272 C1263 1.429 . S
C1272 N1269 1.350 . S
C1272 C1271 1.434 . S
C1273 C1274 1.369 . S
C1273 C1275 1.419 . S
C1273 H1277 0.930 . S
C1274 C1273 1.369 . S
C1274 C1283 1.429 . S
C1275 C1273 1.419 . S
C1275 C1276 1.363 . S
C1275 H1278 0.929 . S
C1276 C1275 1.363 . S
C1276 C1282 1.428 . S
H1277 C1273 0.930 . S
H1278 C1275 0.929 . S
S1279 N1280 1.613 . S
S1279 N1281 1.610 . S
N1280 S1279 1.613 . S
N1280 C1283 1.350 . S
N1281 S1279 1.610 . S
N1281 C1282 1.351 . S
C1282 C1276 1.428 . S
C1282 N1281 1.351 . S
C1282 C1283 1.434 . S
C1283 C1274 1.429 . S
C1283 N1280 1.350 . S
C1283 C1282 1.434 . S
C1284 C1285 1.369 . S
C1284 C1286 1.419 . S
C1284 H1288 0.930 . S
C1285 C1284 1.369 . S
C1285 C1294 1.429 . S
C1286 C1284 1.419 . S
C1286 C1287 1.363 . S
C1286 H1289 0.929 . S
C1287 C1286 1.363 . S
C1287 C1293 1.428 . S
H1288 C1284 0.930 . S
H1289 C1286 0.929 . S
S1290 N1291 1.613 . S
S1290 N1292 1.610 . S
N1291 S1290 1.613 . S
N1291 C1294 1.350 . S
N1292 S1290 1.610 . S
N1292 C1293 1.351 . S
C1293 C1287 1.428 . S
C1293 N1292 1.351 . S
C1293 C1294 1.434 . S
C1294 C1285 1.429 . S
C1294 N1291 1.350 . S
C1294 C1293 1.434 . S
C1295 C1296 1.369 . S
C1295 C1297 1.419 . S
C1295 H1299 0.930 . S
C1296 C1295 1.369 . S
C1296 C1305 1.429 . S
C1297 C1295 1.419 . S
C1297 C1298 1.363 . S
C1297 H1300 0.929 . S
C1298 C1297 1.363 . S
C1298 C1304 1.428 . S
H1299 C1295 0.930 . S
H1300 C1297 0.929 . S
S1301 N1302 1.613 . S
S1301 N1303 1.610 . S
N1302 S1301 1.613 . S
N1302 C1305 1.350 . S
N1303 S1301 1.610 . S
N1303 C1304 1.351 . S
C1304 C1298 1.428 . S
C1304 N1303 1.351 . S
C1304 C1305 1.434 . S
C1305 C1296 1.429 . S
C1305 N1302 1.350 . S
C1305 C1304 1.434 . S
C1306 C1307 1.369 . S
C1306 C1308 1.419 . S
C1306 H1310 0.930 . S
C1307 C1306 1.369 . S
C1307 C1316 1.429 . S
C1308 C1306 1.419 . S
C1308 C1309 1.363 1_565 S
C1308 H1311 0.929 . S
C1309 C1308 1.363 1_545 S
C1309 C1315 1.428 . S
H1310 C1306 0.930 . S
H1311 C1308 0.929 . S
S1312 N1313 1.613 . S
S1312 N1314 1.610 . S
N1313 S1312 1.613 . S
N1313 C1316 1.350 1_545 S
N1314 S1312 1.610 . S
N1314 C1315 1.351 . S
C1315 C1309 1.428 . S
C1315 N1314 1.351 . S
C1315 C1316 1.434 1_545 S
C1316 C1307 1.429 . S
C1316 N1313 1.350 1_565 S
C1316 C1315 1.434 1_565 S
C1317 C1318 1.369 . S
C1317 C1319 1.419 . S
C1317 H1321 0.930 . S
C1318 C1317 1.369 . S
C1318 C1327 1.429 . S
C1319 C1317 1.419 . S
C1319 C1320 1.363 . S
C1319 H1322 0.929 . S
C1320 C1319 1.363 . S
C1320 C1326 1.428 . S
H1321 C1317 0.930 . S
H1322 C1319 0.929 . S
S1323 N1324 1.613 . S
S1323 N1325 1.610 . S
N1324 S1323 1.613 . S
N1324 C1327 1.350 . S
N1325 S1323 1.610 . S
N1325 C1326 1.351 . S
C1326 C1320 1.428 . S
C1326 N1325 1.351 . S
C1326 C1327 1.434 . S
C1327 C1318 1.429 . S
C1327 N1324 1.350 . S
C1327 C1326 1.434 . S
C1328 C1329 1.369 . S
C1328 C1330 1.419 . S
C1328 H1332 0.930 . S
C1329 C1328 1.369 . S
C1329 C1338 1.429 . S
C1330 C1328 1.419 . S
C1330 C1331 1.363 . S
C1330 H1333 0.929 . S
C1331 C1330 1.363 . S
C1331 C1337 1.428 . S
H1332 C1328 0.930 . S
H1333 C1330 0.929 . S
S1334 N1335 1.613 . S
S1334 N1336 1.610 . S
N1335 S1334 1.613 . S
N1335 C1338 1.350 . S
N1336 S1334 1.610 . S
N1336 C1337 1.351 . S
C1337 C1331 1.428 . S
C1337 N1336 1.351 . S
C1337 C1338 1.434 . S
C1338 C1329 1.429 . S
C1338 N1335 1.350 . S
C1338 C1337 1.434 . S
C1339 C1340 1.369 . S
C1339 C1341 1.419 . S
C1339 H1343 0.930 . S
C1340 C1339 1.369 . S
C1340 C1349 1.429 . S
C1341 C1339 1.419 . S
C1341 C1342 1.363 . S
C1341 H1344 0.929 . S
C1342 C1341 1.363 . S
C1342 C1348 1.428 . S
H1343 C1339 0.930 . S
H1344 C1341 0.929 . S
S1345 N1346 1.613 . S
S1345 N1347 1.610 . S
N1346 S1345 1.613 . S
N1346 C1349 1.350 . S
N1347 S1345 1.610 . S
N1347 C1348 1.351 . S
C1348 C1342 1.428 . S
C1348 N1347 1.351 . S
C1348 C1349 1.434 . S
C1349 C1340 1.429 . S
C1349 N1346 1.350 . S
C1349 C1348 1.434 . S
C1350 C1351 1.369 . S
C1350 C1352 1.419 . S
C1350 H1354 0.930 . S
C1351 C1350 1.369 . S
C1351 C1360 1.429 . S
C1352 C1350 1.419 . S
C1352 C1353 1.363 . S
C1352 H1355 0.929 . S
C1353 C1352 1.363 . S
C1353 C1359 1.428 . S
H1354 C1350 0.930 . S
H1355 C1352 0.929 . S
S1356 N1357 1.613 . S
S1356 N1358 1.610 . S
N1357 S1356 1.613 . S
N1357 C1360 1.350 . S
N1358 S1356 1.610 . S
N1358 C1359 1.351 . S
C1359 C1353 1.428 . S
C1359 N1358 1.351 . S
C1359 C1360 1.434 . S
C1360 C1351 1.429 . S
C1360 N1357 1.350 . S
C1360 C1359 1.434 . S
C1361 C1362 1.369 . S
C1361 C1363 1.419 . S
C1361 H1365 0.930 . S
C1362 C1361 1.369 . S
C1362 C1371 1.429 . S
C1363 C1361 1.419 . S
C1363 C1364 1.363 . S
C1363 H1366 0.929 . S
C1364 C1363 1.363 . S
C1364 C1370 1.428 . S
H1365 C1361 0.930 . S
H1366 C1363 0.929 . S
S1367 N1368 1.613 . S
S1367 N1369 1.610 . S
N1368 S1367 1.613 . S
N1368 C1371 1.350 . S
N1369 S1367 1.610 . S
N1369 C1370 1.351 . S
C1370 C1364 1.428 . S
C1370 N1369 1.351 . S
C1370 C1371 1.434 . S
C1371 C1362 1.429 . S
C1371 N1368 1.350 . S
C1371 C1370 1.434 . S
C1372 C1373 1.369 . S
C1372 C1374 1.419 . S
C1372 H1376 0.930 . S
C1373 C1372 1.369 . S
C1373 C1382 1.429 . S
C1374 C1372 1.419 . S
C1374 C1375 1.363 . S
C1374 H1377 0.929 . S
C1375 C1374 1.363 . S
C1375 C1381 1.428 . S
H1376 C1372 0.930 . S
H1377 C1374 0.929 . S
S1378 N1379 1.613 . S
S1378 N1380 1.610 . S
N1379 S1378 1.613 . S
N1379 C1382 1.350 . S
N1380 S1378 1.610 . S
N1380 C1381 1.351 . S
C1381 C1375 1.428 . S
C1381 N1380 1.351 . S
C1381 C1382 1.434 . S
C1382 C1373 1.429 . S
C1382 N1379 1.350 . S
C1382 C1381 1.434 . S
C1383 C1384 1.369 . S
C1383 C1385 1.419 . S
C1383 H1387 0.930 . S
C1384 C1383 1.369 . S
C1384 C1393 1.429 . S
C1385 C1383 1.419 . S
C1385 C1386 1.363 . S
C1385 H1388 0.929 . S
C1386 C1385 1.363 . S
C1386 C1392 1.428 . S
H1387 C1383 0.930 . S
H1388 C1385 0.929 . S
S1389 N1390 1.613 . S
S1389 N1391 1.610 . S
N1390 S1389 1.613 . S
N1390 C1393 1.350 . S
N1391 S1389 1.610 . S
N1391 C1392 1.351 . S
C1392 C1386 1.428 . S
C1392 N1391 1.351 . S
C1392 C1393 1.434 . S
C1393 C1384 1.429 . S
C1393 N1390 1.350 . S
C1393 C1392 1.434 . S
C1394 C1395 1.369 . S
C1394 C1396 1.419 . S
C1394 H1398 0.930 . S
C1395 C1394 1.369 . S
C1395 C1404 1.429 . S
C1396 C1394 1.419 . S
C1396 C1397 1.363 . S
C1396 H1399 0.929 . S
C1397 C1396 1.363 . S
C1397 C1403 1.428 . S
H1398 C1394 0.930 . S
H1399 C1396 0.929 . S
S1400 N1401 1.613 . S
S1400 N1402 1.610 . S
N1401 S1400 1.613 . S
N1401 C1404 1.350 . S
N1402 S1400 1.610 . S
N1402 C1403 1.351 . S
C1403 C1397 1.428 . S
C1403 N1402 1.351 . S
C1403 C1404 1.434 . S
C1404 C1395 1.429 . S
C1404 N1401 1.350 . S
C1404 C1403 1.434 . S
C1405 C1406 1.369 . S
C1405 C1407 1.419 . S
C1405 H1409 0.930 . S
C1406 C1405 1.369 . S
C1406 C1415 1.429 . S
C1407 C1405 1.419 . S
C1407 C1408 1.363 . S
C1407 H1410 0.929 . S
C1408 C1407 1.363 . S
C1408 C1414 1.428 . S
H1409 C1405 0.930 . S
H1410 C1407 0.929 . S
S1411 N1412 1.613 . S
S1411 N1413 1.610 . S
N1412 S1411 1.613 . S
N1412 C1415 1.350 . S
N1413 S1411 1.610 . S
N1413 C1414 1.351 . S
C1414 C1408 1.428 . S
C1414 N1413 1.351 . S
C1414 C1415 1.434 . S
C1415 C1406 1.429 . S
C1415 N1412 1.350 . S
C1415 C1414 1.434 . S
C1416 C1417 1.369 . S
C1416 C1418 1.419 . S
C1416 H1420 0.930 . S
C1417 C1416 1.369 . S
C1417 C1426 1.429 . S
C1418 C1416 1.419 . S
C1418 C1419 1.363 . S
C1418 H1421 0.929 . S
C1419 C1418 1.363 . S
C1419 C1425 1.428 . S
H1420 C1416 0.930 . S
H1421 C1418 0.929 . S
S1422 N1423 1.613 1_455 S
S1422 N1424 1.610 . S
N1423 S1422 1.613 1_655 S
N1423 C1426 1.350 . S
N1424 S1422 1.610 . S
N1424 C1425 1.351 1_455 S
C1425 C1419 1.428 . S
C1425 N1424 1.351 1_655 S
C1425 C1426 1.434 . S
C1426 C1417 1.429 . S
C1426 N1423 1.350 . S
C1426 C1425 1.434 . S
C1427 C1428 1.369 . S
C1427 C1429 1.419 . S
C1427 H1431 0.930 . S
C1428 C1427 1.369 . S
C1428 C1437 1.429 . S
C1429 C1427 1.419 . S
C1429 C1430 1.363 . S
C1429 H1432 0.929 . S
C1430 C1429 1.363 . S
C1430 C1436 1.428 . S
H1431 C1427 0.930 . S
H1432 C1429 0.929 . S
S1433 N1434 1.613 . S
S1433 N1435 1.610 . S
N1434 S1433 1.613 . S
N1434 C1437 1.350 . S
N1435 S1433 1.610 . S
N1435 C1436 1.351 . S
C1436 C1430 1.428 . S
C1436 N1435 1.351 . S
C1436 C1437 1.434 . S
C1437 C1428 1.429 . S
C1437 N1434 1.350 . S
C1437 C1436 1.434 . S
C1438 C1439 1.369 . S
C1438 C1440 1.419 . S
C1438 H1442 0.930 . S
C1439 C1438 1.369 . S
C1439 C1448 1.429 . S
C1440 C1438 1.419 . S
C1440 C1441 1.363 . S
C1440 H1443 0.929 . S
C1441 C1440 1.363 . S
C1441 C1447 1.428 . S
H1442 C1438 0.930 . S
H1443 C1440 0.929 . S
S1444 N1445 1.613 . S
S1444 N1446 1.610 . S
N1445 S1444 1.613 . S
N1445 C1448 1.350 . S
N1446 S1444 1.610 . S
N1446 C1447 1.351 . S
C1447 C1441 1.428 . S
C1447 N1446 1.351 . S
C1447 C1448 1.434 . S
C1448 C1439 1.429 . S
C1448 N1445 1.350 . S
C1448 C1447 1.434 . S
C1449 C1450 1.369 . S
C1449 C1451 1.419 . S
C1449 H1453 0.930 . S
C1450 C1449 1.369 . S
C1450 C1459 1.429 . S
C1451 C1449 1.419 . S
C1451 C1452 1.363 . S
C1451 H1454 0.929 . S
C1452 C1451 1.363 . S
C1452 C1458 1.428 . S
H1453 C1449 0.930 . S
H1454 C1451 0.929 . S
S1455 N1456 1.613 . S
S1455 N1457 1.610 . S
N1456 S1455 1.613 . S
N1456 C1459 1.350 . S
N1457 S1455 1.610 . S
N1457 C1458 1.351 . S
C1458 C1452 1.428 . S
C1458 N1457 1.351 . S
C1458 C1459 1.434 . S
C1459 C1450 1.429 . S
C1459 N1456 1.350 . S
C1459 C1458 1.434 . S
C1460 C1461 1.369 . S
C1460 C1462 1.419 . S
C1460 H1464 0.930 . S
C1461 C1460 1.369 . S
C1461 C1470 1.429 . S
C1462 C1460 1.419 . S
C1462 C1463 1.363 . S
C1462 H1465 0.929 . S
C1463 C1462 1.363 . S
C1463 C1469 1.428 . S
H1464 C1460 0.930 . S
H1465 C1462 0.929 . S
S1466 N1467 1.613 . S
S1466 N1468 1.610 . S
N1467 S1466 1.613 . S
N1467 C1470 1.350 . S
N1468 S1466 1.610 . S
N1468 C1469 1.351 . S
C1469 C1463 1.428 . S
C1469 N1468 1.351 . S
C1469 C1470 1.434 . S
C1470 C1461 1.429 . S
C1470 N1467 1.350 . S
C1470 C1469 1.434 . S
C1471 C1472 1.369 . S
C1471 C1473 1.419 . S
C1471 H1475 0.930 . S
C1472 C1471 1.369 . S
C1472 C1481 1.429 . S
C1473 C1471 1.419 . S
C1473 C1474 1.363 . S
C1473 H1476 0.929 . S
C1474 C1473 1.363 . S
C1474 C1480 1.428 . S
H1475 C1471 0.930 . S
H1476 C1473 0.929 . S
S1477 N1478 1.613 . S
S1477 N1479 1.610 . S
N1478 S1477 1.613 . S
N1478 C1481 1.350 . S
N1479 S1477 1.610 . S
N1479 C1480 1.351 . S
C1480 C1474 1.428 . S
C1480 N1479 1.351 . S
C1480 C1481 1.434 . S
C1481 C1472 1.429 . S
C1481 N1478 1.350 . S
C1481 C1480 1.434 . S
C1482 C1483 1.369 . S
C1482 C1484 1.419 . S
C1482 H1486 0.930 . S
C1483 C1482 1.369 . S
C1483 C1492 1.429 . S
C1484 C1482 1.419 . S
C1484 C1485 1.363 . S
C1484 H1487 0.929 . S
C1485 C1484 1.363 . S
C1485 C1491 1.428 . S
H1486 C1482 0.930 . S
H1487 C1484 0.929 . S
S1488 N1489 1.613 . S
S1488 N1490 1.610 . S
N1489 S1488 1.613 . S
N1489 C1492 1.350 . S
N1490 S1488 1.610 . S
N1490 C1491 1.351 . S
C1491 C1485 1.428 . S
C1491 N1490 1.351 . S
C1491 C1492 1.434 . S
C1492 C1483 1.429 . S
C1492 N1489 1.350 . S
C1492 C1491 1.434 . S
C1493 C1494 1.369 . S
C1493 C1495 1.419 . S
C1493 H1497 0.930 . S
C1494 C1493 1.369 . S
C1494 C1503 1.429 . S
C1495 C1493 1.419 . S
C1495 C1496 1.363 . S
C1495 H1498 0.929 . S
C1496 C1495 1.363 . S
C1496 C1502 1.428 . S
H1497 C1493 0.930 . S
H1498 C1495 0.929 . S
S1499 N1500 1.613 . S
S1499 N1501 1.610 . S
N1500 S1499 1.613 . S
N1500 C1503 1.350 . S
N1501 S1499 1.610 . S
N1501 C1502 1.351 . S
C1502 C1496 1.428 . S
C1502 N1501 1.351 . S
C1502 C1503 1.434 . S
C1503 C1494 1.429 . S
C1503 N1500 1.350 . S
C1503 C1502 1.434 . S
C1504 C1505 1.369 . S
C1504 C1506 1.419 . S
C1504 H1508 0.930 . S
C1505 C1504 1.369 . S
C1505 C1514 1.429 . S
C1506 C1504 1.419 . S
C1506 C1507 1.363 . S
C1506 H1509 0.929 . S
C1507 C1506 1.363 . S
C1507 C1513 1.428 . S
H1508 C1504 0.930 . S
H1509 C1506 0.929 . S
S1510 N1511 1.613 . S
S1510 N1512 1.610 . S
N1511 S1510 1.613 . S
N1511 C1514 1.350 . S
N1512 S1510 1.610 . S
N1512 C1513 1.351 . S
C1513 C1507 1.428 . S
C1513 N1512 1.351 . S
C1513 C1514 1.434 . S
C1514 C1505 1.429 . S
C1514 N1511 1.350 . S
C1514 C1513 1.434 . S
C1515 C1516 1.369 . S
C1515 C1517 1.419 . S
C1515 H1519 0.930 . S
C1516 C1515 1.369 . S
C1516 C1525 1.429 . S
C1517 C1515 1.419 . S
C1517 C1518 1.363 . S
C1517 H1520 0.929 . S
C1518 C1517 1.363 . S
C1518 C1524 1.428 . S
H1519 C1515 0.930 . S
H1520 C1517 0.929 . S
S1521 N1522 1.613 . S
S1521 N1523 1.610 . S
N1522 S1521 1.613 . S
N1522 C1525 1.350 . S
N1523 S1521 1.610 . S
N1523 C1524 1.351 . S
C1524 C1518 1.428 . S
C1524 N1523 1.351 . S
C1524 C1525 1.434 . S
C1525 C1516 1.429 . S
C1525 N1522 1.350 . S
C1525 C1524 1.434 . S
C1526 C1527 1.369 . S
C1526 C1528 1.419 1_556 S
C1526 H1530 0.930 . S
C1527 C1526 1.369 . S
C1527 C1536 1.429 . S
C1528 C1526 1.419 1_554 S
C1528 C1529 1.363 . S
C1528 H1531 0.929 . S
C1529 C1528 1.363 . S
C1529 C1535 1.428 1_554 S
H1530 C1526 0.930 . S
H1531 C1528 0.929 . S
S1532 N1533 1.613 1_655 S
S1532 N1534 1.610 1_655 S
N1533 S1532 1.613 1_455 S
N1533 C1536 1.350 . S
N1534 S1532 1.610 1_455 S
N1534 C1535 1.351 . S
C1535 C1529 1.428 1_556 S
C1535 N1534 1.351 . S
C1535 C1536 1.434 . S
C1536 C1527 1.429 . S
C1536 N1533 1.350 . S
C1536 C1535 1.434 . S
C1537 C1538 1.369 . S
C1537 C1539 1.419 . S
C1537 H1541 0.930 . S
C1538 C1537 1.369 . S
C1538 C1547 1.429 . S
C1539 C1537 1.419 . S
C1539 C1540 1.363 . S
C1539 H1542 0.929 . S
C1540 C1539 1.363 . S
C1540 C1546 1.428 . S
H1541 C1537 0.930 . S
H1542 C1539 0.929 . S
S1543 N1544 1.613 . S
S1543 N1545 1.610 . S
N1544 S1543 1.613 . S
N1544 C1547 1.350 . S
N1545 S1543 1.610 . S
N1545 C1546 1.351 . S
C1546 C1540 1.428 . S
C1546 N1545 1.351 . S
C1546 C1547 1.434 . S
C1547 C1538 1.429 . S
C1547 N1544 1.350 . S
C1547 C1546 1.434 . S
C1548 C1549 1.369 . S
C1548 C1550 1.419 . S
C1548 H1552 0.930 . S
C1549 C1548 1.369 . S
C1549 C1558 1.429 . S
C1550 C1548 1.419 . S
C1550 C1551 1.363 . S
C1550 H1553 0.929 . S
C1551 C1550 1.363 . S
C1551 C1557 1.428 . S
H1552 C1548 0.930 . S
H1553 C1550 0.929 . S
S1554 N1555 1.613 . S
S1554 N1556 1.610 . S
N1555 S1554 1.613 . S
N1555 C1558 1.350 . S
N1556 S1554 1.610 . S
N1556 C1557 1.351 . S
C1557 C1551 1.428 . S
C1557 N1556 1.351 . S
C1557 C1558 1.434 . S
C1558 C1549 1.429 . S
C1558 N1555 1.350 . S
C1558 C1557 1.434 . S
C1559 C1560 1.369 . S
C1559 C1561 1.419 1_455 S
C1559 H1563 0.930 1_455 S
C1560 C1559 1.369 . S
C1560 C1569 1.429 . S
C1561 C1559 1.419 1_655 S
C1561 C1562 1.363 . S
C1561 H1564 0.929 . S
C1562 C1561 1.363 . S
C1562 C1568 1.428 1_655 S
H1563 C1559 0.930 1_655 S
H1564 C1561 0.929 . S
S1565 N1566 1.613 . S
S1565 N1567 1.610 . S
N1566 S1565 1.613 . S
N1566 C1569 1.350 . S
N1567 S1565 1.610 . S
N1567 C1568 1.351 . S
C1568 C1562 1.428 1_455 S
C1568 N1567 1.351 . S
C1568 C1569 1.434 . S
C1569 C1560 1.429 . S
C1569 N1566 1.350 . S
C1569 C1568 1.434 . S
C1570 C1571 1.369 1_455 S
C1570 C1572 1.419 . S
C1570 H1574 0.930 . S
C1571 C1570 1.369 1_655 S
C1571 C1580 1.429 . S
C1572 C1570 1.419 . S
C1572 C1573 1.363 . S
C1572 H1575 0.929 . S
C1573 C1572 1.363 . S
C1573 C1579 1.458 . S
H1574 C1570 0.930 . S
H1575 C1572 0.929 . S
S1576 N1577 1.613 . S
S1576 N1578 1.610 . S
N1577 S1576 1.613 . S
N1577 C1580 1.350 . S
N1578 S1576 1.610 . S
N1578 C1579 1.342 1_655 S
C1579 C1573 1.458 . S
C1579 N1578 1.342 1_455 S
C1579 C1580 1.410 1_455 S
C1580 C1571 1.429 . S
C1580 N1577 1.350 . S
C1580 C1579 1.410 1_655 S
C1581 C1582 1.369 . S
C1581 C1583 1.419 . S
C1581 H1585 0.930 . S
C1582 C1581 1.369 . S
C1582 C1591 1.429 . S
C1583 C1581 1.419 . S
C1583 C1584 1.363 . S
C1583 H1586 0.929 . S
C1584 C1583 1.363 . S
C1584 C1590 1.428 . S
H1585 C1581 0.930 . S
H1586 C1583 0.929 . S
S1587 N1588 1.613 . S
S1587 N1589 1.610 . S
N1588 S1587 1.613 . S
N1588 C1591 1.350 . S
N1589 S1587 1.610 . S
N1589 C1590 1.351 . S
C1590 C1584 1.428 . S
C1590 N1589 1.351 . S
C1590 C1591 1.434 . S
C1591 C1582 1.429 . S
C1591 N1588 1.350 . S
C1591 C1590 1.434 . S
C1592 C1593 1.369 . S
C1592 C1594 1.419 . S
C1592 H1596 0.930 . S
C1593 C1592 1.369 . S
C1593 C1602 1.429 . S
C1594 C1592 1.419 . S
C1594 C1595 1.363 . S
C1594 H1597 0.929 . S
C1595 C1594 1.363 . S
C1595 C1601 1.428 . S
H1596 C1592 0.930 . S
H1597 C1594 0.929 . S
S1598 N1599 1.613 . S
S1598 N1600 1.610 . S
N1599 S1598 1.613 . S
N1599 C1602 1.350 . S
N1600 S1598 1.610 . S
N1600 C1601 1.351 . S
C1601 C1595 1.428 . S
C1601 N1600 1.351 . S
C1601 C1602 1.434 . S
C1602 C1593 1.429 . S
C1602 N1599 1.350 . S
C1602 C1601 1.434 . S
C1603 C1604 1.369 . S
C1603 C1605 1.419 . S
C1603 H1607 0.930 . S
C1604 C1603 1.369 . S
C1604 C1613 1.429 . S
C1605 C1603 1.419 . S
C1605 C1606 1.363 . S
C1605 H1608 0.929 . S
C1606 C1605 1.363 . S
C1606 C1612 1.428 . S
H1607 C1603 0.930 . S
H1608 C1605 0.929 . S
S1609 N1610 1.613 1_556 S
S1609 N1611 1.610 . S
N1610 S1609 1.613 1_554 S
N1610 C1613 1.350 1_554 S
N1611 S1609 1.610 . S
N1611 C1612 1.351 . S
C1612 C1606 1.428 . S
C1612 N1611 1.351 . S
C1612 C1613 1.434 . S
C1613 C1604 1.429 . S
C1613 N1610 1.350 1_556 S
C1613 C1612 1.434 . S
C1614 C1615 1.369 . S
C1614 C1616 1.419 . S
C1614 H1618 0.930 . S
C1615 C1614 1.369 . S
C1615 C1624 1.429 . S
C1616 C1614 1.419 . S
C1616 C1617 1.363 . S
C1616 H1619 0.929 . S
C1617 C1616 1.363 . S
C1617 C1623 1.428 . S
H1618 C1614 0.930 . S
H1619 C1616 0.929 . S
S1620 N1621 1.613 . S
S1620 N1622 1.610 . S
N1621 S1620 1.613 . S
N1621 C1624 1.350 . S
N1622 S1620 1.610 . S
N1622 C1623 1.351 . S
C1623 C1617 1.428 . S
C1623 N1622 1.351 . S
C1623 C1624 1.434 . S
C1624 C1615 1.429 . S
C1624 N1621 1.350 . S
C1624 C1623 1.434 . S
C1625 C1626 1.369 . S
C1625 C1627 1.419 . S
C1625 H1629 0.930 . S
C1626 C1625 1.369 . S
C1626 C1635 1.429 . S
C1627 C1625 1.419 . S
C1627 C1628 1.363 . S
C1627 H1630 0.929 . S
C1628 C1627 1.363 . S
C1628 C1634 1.428 . S
H1629 C1625 0.930 . S
H1630 C1627 0.929 . S
S1631 N1632 1.613 . S
S1631 N1633 1.610 . S
N1632 S1631 1.613 . S
N1632 C1635 1.350 . S
N1633 S1631 1.610 . S
N1633 C1634 1.351 . S
C1634 C1628 1.428 . S
C1634 N1633 1.351 . S
C1634 C1635 1.434 . S
C1635 C1626 1.429 . S
C1635 N1632 1.350 . S
C1635 C1634 1.434 . S
C1636 C1637 1.369 . S
C1636 C1638 1.419 . S
C1636 H1640 0.930 . S
C1637 C1636 1.369 . S
C1637 C1646 1.429 . S
C1638 C1636 1.419 . S
C1638 C1639 1.363 . S
C1638 H1641 0.929 . S
C1639 C1638 1.363 . S
C1639 C1645 1.428 . S
H1640 C1636 0.930 . S
H1641 C1638 0.929 . S
S1642 N1643 1.613 . S
S1642 N1644 1.610 . S
N1643 S1642 1.613 . S
N1643 C1646 1.350 . S
N1644 S1642 1.610 . S
N1644 C1645 1.351 . S
C1645 C1639 1.428 . S
C1645 N1644 1.351 . S
C1645 C1646 1.434 . S
C1646 C1637 1.429 . S
C1646 N1643 1.350 . S
C1646 C1645 1.434 . S
C1647 C1648 1.369 . S
C1647 C1649 1.419 . S
C1647 H1651 0.930 . S
C1648 C1647 1.369 . S
C1648 C1657 1.429 . S
C1649 C1647 1.419 . S
C1649 C1650 1.363 . S
C1649 H1652 0.929 . S
C1650 C1649 1.363 . S
C1650 C1656 1.428 . S
H1651 C1647 0.930 . S
H1652 C1649 0.929 . S
S1653 N1654 1.613 . S
S1653 N1655 1.610 . S
N1654 S1653 1.613 . S
N1654 C1657 1.350 . S
N1655 S1653 1.610 . S
N1655 C1656 1.351 . S
C1656 C1650 1.428 . S
C1656 N1655 1.351 . S
C1656 C1657 1.434 . S
C1657 C1648 1.429 . S
C1657 N1654 1.350 . S
C1657 C1656 1.434 . S
C1658 C1659 1.369 . S
C1658 C1660 1.419 . S
C1658 H1662 0.930 . S
C1659 C1658 1.369 . S
C1659 C1668 1.429 . S
C1660 C1658 1.419 . S
C1660 C1661 1.363 . S
C1660 H1663 0.929 . S
C1661 C1660 1.363 . S
C1661 C1667 1.428 . S
H1662 C1658 0.930 . S
H1663 C1660 0.929 . S
S1664 N1665 1.613 . S
S1664 N1666 1.610 . S
N1665 S1664 1.613 . S
N1665 C1668 1.350 . S
N1666 S1664 1.610 . S
N1666 C1667 1.351 . S
C1667 C1661 1.428 . S
C1667 N1666 1.351 . S
C1667 C1668 1.434 . S
C1668 C1659 1.429 . S
C1668 N1665 1.350 . S
C1668 C1667 1.434 . S
C1669 C1670 1.369 . S
C1669 C1671 1.419 . S
C1669 H1673 0.930 . S
C1670 C1669 1.369 . S
C1670 C1679 1.429 . S
C1671 C1669 1.419 . S
C1671 C1672 1.363 . S
C1671 H1674 0.929 . S
C1672 C1671 1.363 . S
C1672 C1678 1.428 . S
H1673 C1669 0.930 . S
H1674 C1671 0.929 . S
S1675 N1676 1.613 . S
S1675 N1677 1.610 . S
N1676 S1675 1.613 . S
N1676 C1679 1.350 . S
N1677 S1675 1.610 . S
N1677 C1678 1.351 . S
C1678 C1672 1.428 . S
C1678 N1677 1.351 . S
C1678 C1679 1.434 . S
C1679 C1670 1.429 . S
C1679 N1676 1.350 . S
C1679 C1678 1.434 . S
C1680 C1681 1.369 . S
C1680 C1682 1.419 . S
C1680 H1684 0.930 . S
C1681 C1680 1.369 . S
C1681 C1690 1.429 . S
C1682 C1680 1.419 . S
C1682 C1683 1.363 . S
C1682 H1685 0.929 . S
C1683 C1682 1.363 . S
C1683 C1689 1.428 . S
H1684 C1680 0.930 . S
H1685 C1682 0.929 . S
S1686 N1687 1.613 . S
S1686 N1688 1.610 . S
N1687 S1686 1.613 . S
N1687 C1690 1.350 . S
N1688 S1686 1.610 . S
N1688 C1689 1.351 . S
C1689 C1683 1.428 . S
C1689 N1688 1.351 . S
C1689 C1690 1.434 . S
C1690 C1681 1.429 . S
C1690 N1687 1.350 . S
C1690 C1689 1.434 . S
C1691 C1692 1.369 . S
C1691 C1693 1.419 . S
C1691 H1695 0.930 . S
C1692 C1691 1.369 . S
C1692 C1701 1.429 . S
C1693 C1691 1.419 . S
C1693 C1694 1.363 . S
C1693 H1696 0.929 . S
C1694 C1693 1.363 . S
C1694 C1700 1.428 . S
H1695 C1691 0.930 . S
H1696 C1693 0.929 . S
S1697 N1698 1.613 . S
S1697 N1699 1.610 . S
N1698 S1697 1.613 . S
N1698 C1701 1.350 . S
N1699 S1697 1.610 . S
N1699 C1700 1.351 . S
C1700 C1694 1.428 . S
C1700 N1699 1.351 . S
C1700 C1701 1.434 . S
C1701 C1692 1.429 . S
C1701 N1698 1.350 . S
C1701 C1700 1.434 . S
C1702 C1703 1.369 . S
C1702 C1704 1.419 . S
C1702 H1706 0.930 . S
C1703 C1702 1.369 . S
C1703 C1712 1.429 . S
C1704 C1702 1.419 . S
C1704 C1705 1.363 . S
C1704 H1707 0.929 . S
C1705 C1704 1.363 . S
C1705 C1711 1.428 . S
H1706 C1702 0.930 . S
H1707 C1704 0.929 . S
S1708 N1709 1.613 . S
S1708 N1710 1.610 . S
N1709 S1708 1.613 . S
N1709 C1712 1.350 . S
N1710 S1708 1.610 . S
N1710 C1711 1.351 . S
C1711 C1705 1.428 . S
C1711 N1710 1.351 . S
C1711 C1712 1.434 . S
C1712 C1703 1.429 . S
C1712 N1709 1.350 . S
C1712 C1711 1.434 . S
C1713 C1714 1.369 . S
C1713 C1715 1.419 . S
C1713 H1717 0.930 . S
C1714 C1713 1.369 . S
C1714 C1723 1.429 . S
C1715 C1713 1.419 . S
C1715 C1716 1.363 . S
C1715 H1718 0.929 . S
C1716 C1715 1.363 . S
C1716 C1722 1.428 . S
H1717 C1713 0.930 . S
H1718 C1715 0.929 . S
S1719 N1720 1.613 1_556 S
S1719 N1721 1.610 1_556 S
N1720 S1719 1.613 1_554 S
N1720 C1723 1.350 . S
N1721 S1719 1.610 1_554 S
N1721 C1722 1.351 . S
C1722 C1716 1.428 . S
C1722 N1721 1.351 . S
C1722 C1723 1.434 . S
C1723 C1714 1.429 . S
C1723 N1720 1.350 . S
C1723 C1722 1.434 . S
C1724 C1725 1.369 . S
C1724 C1726 1.419 . S
C1724 H1728 0.930 . S
C1725 C1724 1.369 . S
C1725 C1734 1.429 . S
C1726 C1724 1.419 . S
C1726 C1727 1.363 . S
C1726 H1729 0.929 . S
C1727 C1726 1.363 . S
C1727 C1733 1.428 . S
H1728 C1724 0.930 . S
H1729 C1726 0.929 . S
S1730 N1731 1.613 . S
S1730 N1732 1.610 . S
N1731 S1730 1.613 . S
N1731 C1734 1.350 . S
N1732 S1730 1.610 . S
N1732 C1733 1.351 . S
C1733 C1727 1.428 . S
C1733 N1732 1.351 . S
C1733 C1734 1.434 . S
C1734 C1725 1.429 . S
C1734 N1731 1.350 . S
C1734 C1733 1.434 . S
C1735 C1736 1.369 . S
C1735 C1737 1.419 . S
C1735 H1739 0.930 . S
C1736 C1735 1.369 . S
C1736 C1745 1.429 . S
C1737 C1735 1.419 . S
C1737 C1738 1.363 . S
C1737 H1740 0.929 . S
C1738 C1737 1.363 . S
C1738 C1744 1.428 . S
H1739 C1735 0.930 . S
H1740 C1737 0.929 . S
S1741 N1742 1.613 . S
S1741 N1743 1.610 . S
N1742 S1741 1.613 . S
N1742 C1745 1.350 . S
N1743 S1741 1.610 . S
N1743 C1744 1.351 . S
C1744 C1738 1.428 . S
C1744 N1743 1.351 . S
C1744 C1745 1.434 . S
C1745 C1736 1.429 . S
C1745 N1742 1.350 . S
C1745 C1744 1.434 . S
C1746 C1747 1.369 . S
C1746 C1748 1.419 . S
C1746 H1750 0.930 . S
C1747 C1746 1.369 . S
C1747 C1756 1.429 . S
C1748 C1746 1.419 . S
C1748 C1749 1.363 . S
C1748 H1751 0.929 . S
C1749 C1748 1.363 . S
C1749 C1755 1.428 . S
H1750 C1746 0.930 . S
H1751 C1748 0.929 . S
S1752 N1753 1.613 . S
S1752 N1754 1.610 . S
N1753 S1752 1.613 . S
N1753 C1756 1.350 . S
N1754 S1752 1.610 . S
N1754 C1755 1.351 . S
C1755 C1749 1.428 . S
C1755 N1754 1.351 . S
C1755 C1756 1.434 . S
C1756 C1747 1.429 . S
C1756 N1753 1.350 . S
C1756 C1755 1.434 . S
C1757 C1758 1.369 . S
C1757 C1759 1.419 . S
C1757 H1761 0.930 . S
C1758 C1757 1.369 . S
C1758 C1767 1.429 . S
C1759 C1757 1.419 . S
C1759 C1760 1.363 . S
C1759 H1762 0.929 . S
C1760 C1759 1.363 . S
C1760 C1766 1.428 . S
H1761 C1757 0.930 . S
H1762 C1759 0.929 . S
S1763 N1764 1.613 . S
S1763 N1765 1.610 . S
N1764 S1763 1.613 . S
N1764 C1767 1.350 . S
N1765 S1763 1.610 . S
N1765 C1766 1.351 . S
C1766 C1760 1.428 . S
C1766 N1765 1.351 . S
C1766 C1767 1.434 . S
C1767 C1758 1.429 . S
C1767 N1764 1.350 . S
C1767 C1766 1.434 . S
C1768 C1769 1.369 . S
C1768 C1770 1.419 . S
C1768 H1772 0.930 . S
C1769 C1768 1.369 . S
C1769 C1778 1.429 . S
C1770 C1768 1.419 . S
C1770 C1771 1.363 . S
C1770 H1773 0.929 . S
C1771 C1770 1.363 . S
C1771 C1777 1.428 . S
H1772 C1768 0.930 . S
H1773 C1770 0.929 . S
S1774 N1775 1.613 . S
S1774 N1776 1.610 . S
N1775 S1774 1.613 . S
N1775 C1778 1.350 . S
N1776 S1774 1.610 . S
N1776 C1777 1.351 . S
C1777 C1771 1.428 . S
C1777 N1776 1.351 . S
C1777 C1778 1.434 . S
C1778 C1769 1.429 . S
C1778 N1775 1.350 . S
C1778 C1777 1.434 . S
C1779 C1780 1.369 . S
C1779 C1781 1.419 . S
C1779 H1783 0.930 . S
C1780 C1779 1.369 . S
C1780 C1789 1.429 . S
C1781 C1779 1.419 . S
C1781 C1782 1.363 . S
C1781 H1784 0.929 . S
C1782 C1781 1.363 . S
C1782 C1788 1.428 . S
H1783 C1779 0.930 . S
H1784 C1781 0.929 . S
S1785 N1786 1.613 . S
S1785 N1787 1.610 . S
N1786 S1785 1.613 . S
N1786 C1789 1.350 . S
N1787 S1785 1.610 . S
N1787 C1788 1.351 . S
C1788 C1782 1.428 . S
C1788 N1787 1.351 . S
C1788 C1789 1.434 . S
C1789 C1780 1.429 . S
C1789 N1786 1.350 . S
C1789 C1788 1.434 . S
C1790 C1791 1.369 . S
C1790 C1792 1.419 . S
C1790 H1794 0.930 . S
C1791 C1790 1.369 . S
C1791 C1800 1.429 . S
C1792 C1790 1.419 . S
C1792 C1793 1.363 . S
C1792 H1795 0.929 . S
C1793 C1792 1.363 . S
C1793 C1799 1.428 . S
H1794 C1790 0.930 . S
H1795 C1792 0.929 . S
S1796 N1797 1.613 . S
S1796 N1798 1.610 . S
N1797 S1796 1.613 . S
N1797 C1800 1.350 . S
N1798 S1796 1.610 . S
N1798 C1799 1.351 . S
C1799 C1793 1.428 . S
C1799 N1798 1.351 . S
C1799 C1800 1.434 . S
C1800 C1791 1.429 . S
C1800 N1797 1.350 . S
C1800 C1799 1.434 . S
C1801 C1802 1.369 . S
C1801 C1803 1.419 . S
C1801 H1805 0.930 . S
C1802 C1801 1.369 . S
C1802 C1811 1.429 . S
C1803 C1801 1.419 . S
C1803 C1804 1.363 . S
C1803 H1806 0.929 . S
C1804 C1803 1.363 . S
C1804 C1810 1.428 . S
H1805 C1801 0.930 . S
H1806 C1803 0.929 . S
S1807 N1808 1.613 . S
S1807 N1809 1.610 . S
N1808 S1807 1.613 . S
N1808 C1811 1.350 . S
N1809 S1807 1.610 . S
N1809 C1810 1.351 . S
C1810 C1804 1.428 . S
C1810 N1809 1.351 . S
C1810 C1811 1.434 . S
C1811 C1802 1.429 . S
C1811 N1808 1.350 . S
C1811 C1810 1.434 . S
C1812 C1813 1.369 . S
C1812 C1814 1.419 . S
C1812 H1816 0.930 . S
C1813 C1812 1.369 . S
C1813 C1822 1.429 . S
C1814 C1812 1.419 . S
C1814 C1815 1.363 . S
C1814 H1817 0.929 . S
C1815 C1814 1.363 . S
C1815 C1821 1.428 . S
H1816 C1812 0.930 . S
H1817 C1814 0.929 . S
S1818 N1819 1.613 . S
S1818 N1820 1.610 . S
N1819 S1818 1.613 . S
N1819 C1822 1.350 . S
N1820 S1818 1.610 . S
N1820 C1821 1.351 . S
C1821 C1815 1.428 . S
C1821 N1820 1.351 . S
C1821 C1822 1.434 . S
C1822 C1813 1.429 . S
C1822 N1819 1.350 . S
C1822 C1821 1.434 . S
C1823 C1824 1.369 . S
C1823 C1825 1.419 . S
C1823 H1827 0.930 . S
C1824 C1823 1.369 . S
C1824 C1833 1.429 . S
C1825 C1823 1.419 . S
C1825 C1826 1.363 . S
C1825 H1828 0.929 . S
C1826 C1825 1.363 . S
C1826 C1832 1.428 . S
H1827 C1823 0.930 . S
H1828 C1825 0.929 . S
S1829 N1830 1.613 . S
S1829 N1831 1.610 . S
N1830 S1829 1.613 . S
N1830 C1833 1.350 . S
N1831 S1829 1.610 . S
N1831 C1832 1.351 . S
C1832 C1826 1.428 . S
C1832 N1831 1.351 . S
C1832 C1833 1.434 . S
C1833 C1824 1.429 . S
C1833 N1830 1.350 . S
C1833 C1832 1.434 . S
C1834 C1835 1.369 . S
C1834 C1836 1.419 . S
C1834 H1838 0.930 . S
C1835 C1834 1.369 . S
C1835 C1844 1.429 . S
C1836 C1834 1.419 . S
C1836 C1837 1.363 . S
C1836 H1839 0.929 . S
C1837 C1836 1.363 . S
C1837 C1843 1.428 . S
H1838 C1834 0.930 . S
H1839 C1836 0.929 . S
S1840 N1841 1.613 . S
S1840 N1842 1.610 . S
N1841 S1840 1.613 . S
N1841 C1844 1.350 . S
N1842 S1840 1.610 . S
N1842 C1843 1.351 . S
C1843 C1837 1.428 . S
C1843 N1842 1.351 . S
C1843 C1844 1.434 . S
C1844 C1835 1.429 . S
C1844 N1841 1.350 . S
C1844 C1843 1.434 . S
C1845 C1846 1.369 . S
C1845 C1847 1.419 . S
C1845 H1849 0.930 . S
C1846 C1845 1.369 . S
C1846 C1855 1.429 . S
C1847 C1845 1.419 . S
C1847 C1848 1.363 . S
C1847 H1850 0.929 . S
C1848 C1847 1.363 . S
C1848 C1854 1.428 . S
H1849 C1845 0.930 . S
H1850 C1847 0.929 . S
S1851 N1852 1.613 . S
S1851 N1853 1.610 . S
N1852 S1851 1.613 . S
N1852 C1855 1.350 . S
N1853 S1851 1.610 . S
N1853 C1854 1.351 . S
C1854 C1848 1.428 . S
C1854 N1853 1.351 . S
C1854 C1855 1.434 . S
C1855 C1846 1.429 . S
C1855 N1852 1.350 . S
C1855 C1854 1.434 . S
C1856 C1857 1.369 . S
C1856 C1858 1.419 . S
C1856 H1860 0.930 . S
C1857 C1856 1.369 . S
C1857 C1866 1.429 . S
C1858 C1856 1.419 . S
C1858 C1859 1.363 . S
C1858 H1861 0.929 . S
C1859 C1858 1.363 . S
C1859 C1865 1.428 . S
H1860 C1856 0.930 . S
H1861 C1858 0.929 . S
S1862 N1863 1.613 . S
S1862 N1864 1.610 . S
N1863 S1862 1.613 . S
N1863 C1866 1.350 . S
N1864 S1862 1.610 . S
N1864 C1865 1.351 . S
C1865 C1859 1.428 . S
C1865 N1864 1.351 . S
C1865 C1866 1.434 . S
C1866 C1857 1.429 . S
C1866 N1863 1.350 . S
C1866 C1865 1.434 . S
C1867 C1868 1.369 . S
C1867 C1869 1.419 . S
C1867 H1871 0.930 . S
C1868 C1867 1.369 . S
C1868 C1877 1.429 . S
C1869 C1867 1.419 . S
C1869 C1870 1.363 . S
C1869 H1872 0.929 . S
C1870 C1869 1.363 . S
C1870 C1876 1.428 . S
H1871 C1867 0.930 . S
H1872 C1869 0.929 . S
S1873 N1874 1.613 . S
S1873 N1875 1.610 . S
N1874 S1873 1.613 . S
N1874 C1877 1.350 . S
N1875 S1873 1.610 . S
N1875 C1876 1.351 . S
C1876 C1870 1.428 . S
C1876 N1875 1.351 . S
C1876 C1877 1.434 . S
C1877 C1868 1.429 . S
C1877 N1874 1.350 . S
C1877 C1876 1.434 . S
C1878 C1879 1.369 . S
C1878 C1880 1.419 . S
C1878 H1882 0.930 . S
C1879 C1878 1.369 . S
C1879 C1888 1.429 . S
C1880 C1878 1.419 . S
C1880 C1881 1.363 . S
C1880 H1883 0.929 1_556 S
C1881 C1880 1.363 . S
C1881 C1887 1.428 . S
H1882 C1878 0.930 . S
H1883 C1880 0.929 1_554 S
S1884 N1885 1.613 . S
S1884 N1886 1.610 . S
N1885 S1884 1.613 . S
N1885 C1888 1.350 . S
N1886 S1884 1.610 . S
N1886 C1887 1.351 . S
C1887 C1881 1.428 . S
C1887 N1886 1.351 . S
C1887 C1888 1.434 . S
C1888 C1879 1.429 . S
C1888 N1885 1.350 . S
C1888 C1887 1.434 . S
C1889 C1890 1.369 . S
C1889 C1891 1.419 . S
C1889 H1893 0.930 . S
C1890 C1889 1.369 . S
C1890 C1899 1.429 . S
C1891 C1889 1.419 . S
C1891 C1892 1.363 . S
C1891 H1894 0.929 . S
C1892 C1891 1.363 . S
C1892 C1898 1.428 . S
H1893 C1889 0.930 . S
H1894 C1891 0.929 . S
S1895 N1896 1.613 . S
S1895 N1897 1.610 . S
N1896 S1895 1.613 . S
N1896 C1899 1.350 . S
N1897 S1895 1.610 . S
N1897 C1898 1.351 . S
C1898 C1892 1.428 . S
C1898 N1897 1.351 . S
C1898 C1899 1.434 . S
C1899 C1890 1.429 . S
C1899 N1896 1.350 . S
C1899 C1898 1.434 . S
C1900 C1901 1.369 . S
C1900 C1902 1.419 . S
C1900 H1904 0.930 . S
C1901 C1900 1.369 . S
C1901 C1910 1.429 . S
C1902 C1900 1.419 . S
C1902 C1903 1.363 . S
C1902 H1905 0.929 . S
C1903 C1902 1.363 . S
C1903 C1909 1.428 . S
H1904 C1900 0.930 . S
H1905 C1902 0.929 . S
S1906 N1907 1.613 . S
S1906 N1908 1.610 . S
N1907 S1906 1.613 . S
N1907 C1910 1.350 . S
N1908 S1906 1.610 . S
N1908 C1909 1.351 . S
C1909 C1903 1.428 . S
C1909 N1908 1.351 . S
C1909 C1910 1.434 . S
C1910 C1901 1.429 . S
C1910 N1907 1.350 . S
C1910 C1909 1.434 . S
C1911 C1912 1.369 . S
C1911 C1913 1.419 . S
C1911 H1915 0.930 . S
C1912 C1911 1.369 . S
C1912 C1921 1.429 . S
C1913 C1911 1.419 . S
C1913 C1914 1.363 . S
C1913 H1916 0.929 . S
C1914 C1913 1.363 . S
C1914 C1920 1.428 . S
H1915 C1911 0.930 . S
H1916 C1913 0.929 . S
S1917 N1918 1.613 . S
S1917 N1919 1.610 . S
N1918 S1917 1.613 . S
N1918 C1921 1.350 . S
N1919 S1917 1.610 . S
N1919 C1920 1.351 . S
C1920 C1914 1.428 . S
C1920 N1919 1.351 . S
C1920 C1921 1.434 . S
C1921 C1912 1.429 . S
C1921 N1918 1.350 . S
C1921 C1920 1.434 . S
C1922 C1923 1.367 1_655 S
C1922 C1924 1.419 . S
C1922 H1926 0.930 . S
C1923 C1922 1.367 1_455 S
C1923 C1932 1.435 . S
C1924 C1922 1.419 . S
C1924 C1925 1.363 1_655 S
C1924 H1927 0.929 . S
C1925 C1924 1.363 1_455 S
C1925 C1931 1.428 . S
H1926 C1922 0.930 . S
H1927 C1924 0.929 . S
S1928 N1929 1.613 . S
S1928 N1930 1.610 . S
N1929 S1928 1.613 . S
N1929 C1932 1.350 . S
N1930 S1928 1.610 . S
N1930 C1931 1.351 . S
C1931 C1925 1.428 . S
C1931 N1930 1.351 . S
C1931 C1932 1.434 . S
C1932 C1923 1.435 . S
C1932 N1929 1.350 . S
C1932 C1931 1.434 . S
C1933 C1934 1.369 . S
C1933 C1935 1.419 . S
C1933 H1937 0.930 . S
C1934 C1933 1.369 . S
C1934 C1943 1.429 . S
C1935 C1933 1.419 . S
C1935 C1936 1.363 . S
C1935 H1938 0.929 . S
C1936 C1935 1.363 . S
C1936 C1942 1.428 . S
H1937 C1933 0.930 . S
H1938 C1935 0.929 . S
S1939 N1940 1.613 . S
S1939 N1941 1.610 . S
N1940 S1939 1.613 . S
N1940 C1943 1.350 . S
N1941 S1939 1.610 . S
N1941 C1942 1.351 . S
C1942 C1936 1.428 . S
C1942 N1941 1.351 . S
C1942 C1943 1.434 . S
C1943 C1934 1.429 . S
C1943 N1940 1.350 . S
C1943 C1942 1.434 . S
C1944 C1945 1.369 . S
C1944 C1946 1.419 . S
C1944 H1948 0.930 . S
C1945 C1944 1.369 . S
C1945 C1954 1.429 . S
C1946 C1944 1.419 . S
C1946 C1947 1.363 . S
C1946 H1949 0.929 . S
C1947 C1946 1.363 . S
C1947 C1953 1.428 . S
H1948 C1944 0.930 . S
H1949 C1946 0.929 . S
S1950 N1951 1.613 . S
S1950 N1952 1.610 . S
N1951 S1950 1.613 . S
N1951 C1954 1.350 . S
N1952 S1950 1.610 . S
N1952 C1953 1.351 . S
C1953 C1947 1.428 . S
C1953 N1952 1.351 . S
C1953 C1954 1.434 . S
C1954 C1945 1.429 . S
C1954 N1951 1.350 . S
C1954 C1953 1.434 . S
C1955 C1956 1.369 . S
C1955 C1957 1.419 . S
C1955 H1959 0.930 . S
C1956 C1955 1.369 . S
C1956 C1965 1.429 . S
C1957 C1955 1.419 . S
C1957 C1958 1.363 . S
C1957 H1960 0.929 . S
C1958 C1957 1.363 . S
C1958 C1964 1.428 . S
H1959 C1955 0.930 . S
H1960 C1957 0.929 . S
S1961 N1962 1.613 . S
S1961 N1963 1.610 1_565 S
N1962 S1961 1.613 . S
N1962 C1965 1.350 1_565 S
N1963 S1961 1.610 1_545 S
N1963 C1964 1.351 . S
C1964 C1958 1.428 . S
C1964 N1963 1.351 . S
C1964 C1965 1.434 . S
C1965 C1956 1.429 . S
C1965 N1962 1.350 1_545 S
C1965 C1964 1.434 . S
C1966 C1967 1.369 . S
C1966 C1968 1.419 . S
C1966 H1970 0.930 . S
C1967 C1966 1.369 . S
C1967 C1976 1.429 . S
C1968 C1966 1.419 . S
C1968 C1969 1.363 . S
C1968 H1971 0.929 . S
C1969 C1968 1.363 . S
C1969 C1975 1.428 . S
H1970 C1966 0.930 . S
H1971 C1968 0.929 . S
S1972 N1973 1.613 . S
S1972 N1974 1.610 . S
N1973 S1972 1.613 . S
N1973 C1976 1.350 . S
N1974 S1972 1.610 . S
N1974 C1975 1.351 . S
C1975 C1969 1.428 . S
C1975 N1974 1.351 . S
C1975 C1976 1.434 . S
C1976 C1967 1.429 . S
C1976 N1973 1.350 . S
C1976 C1975 1.434 . S
C1977 C1978 1.369 . S
C1977 C1979 1.419 . S
C1977 H1981 0.930 . S
C1978 C1977 1.369 . S
C1978 C1987 1.429 . S
C1979 C1977 1.419 . S
C1979 C1980 1.363 . S
C1979 H1982 0.929 . S
C1980 C1979 1.363 . S
C1980 C1986 1.428 . S
H1981 C1977 0.930 . S
H1982 C1979 0.929 . S
S1983 N1984 1.613 . S
S1983 N1985 1.610 . S
N1984 S1983 1.613 . S
N1984 C1987 1.350 1_556 S
N1985 S1983 1.610 . S
N1985 C1986 1.351 1_556 S
C1986 C1980 1.428 . S
C1986 N1985 1.351 1_554 S
C1986 C1987 1.434 . S
C1987 C1978 1.429 . S
C1987 N1984 1.350 1_554 S
C1987 C1986 1.434 . S
C1988 C1989 1.369 . S
C1988 C1990 1.419 . S
C1988 H1992 0.930 . S
C1989 C1988 1.369 . S
C1989 C1998 1.429 . S
C1990 C1988 1.419 . S
C1990 C1991 1.363 . S
C1990 H1993 0.929 . S
C1991 C1990 1.363 . S
C1991 C1997 1.428 . S
H1992 C1988 0.930 . S
H1993 C1990 0.929 . S
S1994 N1995 1.613 . S
S1994 N1996 1.610 . S
N1995 S1994 1.613 . S
N1995 C1998 1.350 . S
N1996 S1994 1.610 . S
N1996 C1997 1.351 . S
C1997 C1991 1.428 . S
C1997 N1996 1.351 . S
C1997 C1998 1.434 . S
C1998 C1989 1.429 . S
C1998 N1995 1.350 . S
C1998 C1997 1.434 . S
C1999 C2000 1.369 . S
C1999 C2001 1.419 . S
C1999 H2003 0.930 . S
C2000 C1999 1.369 . S
C2000 C2009 1.429 . S
C2001 C1999 1.419 . S
C2001 C2002 1.363 . S
C2001 H2004 0.929 . S
C2002 C2001 1.363 . S
C2002 C2008 1.428 . S
H2003 C1999 0.930 . S
H2004 C2001 0.929 . S
S2005 N2006 1.613 . S
S2005 N2007 1.610 . S
N2006 S2005 1.613 . S
N2006 C2009 1.350 . S
N2007 S2005 1.610 . S
N2007 C2008 1.351 . S
C2008 C2002 1.428 . S
C2008 N2007 1.351 . S
C2008 C2009 1.434 . S
C2009 C2000 1.429 . S
C2009 N2006 1.350 . S
C2009 C2008 1.434 . S
C2010 C2011 1.369 . S
C2010 C2012 1.419 . S
C2010 H2014 0.930 . S
C2011 C2010 1.369 . S
C2011 C2020 1.429 . S
C2012 C2010 1.419 . S
C2012 C2013 1.363 . S
C2012 H2015 0.929 . S
C2013 C2012 1.363 . S
C2013 C2019 1.428 . S
H2014 C2010 0.930 . S
H2015 C2012 0.929 . S
S2016 N2017 1.613 . S
S2016 N2018 1.610 . S
N2017 S2016 1.613 . S
N2017 C2020 1.350 . S
N2018 S2016 1.610 . S
N2018 C2019 1.351 . S
C2019 C2013 1.428 . S
C2019 N2018 1.351 . S
C2019 C2020 1.434 . S
C2020 C2011 1.429 . S
C2020 N2017 1.350 . S
C2020 C2019 1.434 . S
C2021 C2022 1.369 . S
C2021 C2023 1.419 . S
C2021 H2025 0.930 . S
C2022 C2021 1.369 . S
C2022 C2031 1.429 . S
C2023 C2021 1.419 . S
C2023 C2024 1.363 . S
C2023 H2026 0.929 . S
C2024 C2023 1.363 . S
C2024 C2030 1.428 . S
H2025 C2021 0.930 . S
H2026 C2023 0.929 . S
S2027 N2028 1.613 . S
S2027 N2029 1.610 . S
N2028 S2027 1.613 . S
N2028 C2031 1.350 . S
N2029 S2027 1.610 . S
N2029 C2030 1.351 . S
C2030 C2024 1.428 . S
C2030 N2029 1.351 . S
C2030 C2031 1.434 . S
C2031 C2022 1.429 . S
C2031 N2028 1.350 . S
C2031 C2030 1.434 . S
C977 C105 1.537 . S
C979 C342 1.507 . S
C988 C65 2.113 . S
C990 C394 2.006 . S
C999 C73 1.456 . S
C1001 C426 1.457 1_565 S
C1012 C475 2.555 . S
C1010 C92 2.557 . S
C1021 C17 1.404 . S
C1023 C511 1.403 . S
C1034 C542 0.688 . S
C1032 C37 0.611 . S
C1045 C594 0.606 . S
C1043 C49 0.715 . S
C1054 C8 2.694 . S
C1056 C622 2.554 . S
C1067 C354 2.122 . S
C1065 C231 2.220 . S
C1076 C241 1.815 . S
C1078 C395 1.845 . S
C1089 C425 1.871 . S
C1087 C273 1.857 1_545 S
C1100 C462 0.976 . S
C1098 C171 1.043 . S
C1109 C227 1.871 . S
C1111 C506 1.873 . S
C1122 C554 2.023 . S
C1120 C245 1.836 . S
C1133 C595 1.849 1_556 S
C1131 C269 1.825 . S
C1144 C634 2.005 . S
C1142 C175 2.092 . S
C1155 C355 2.394 . S
C1153 C162 2.363 . S
C1164 C289 1.747 1_554 S
C1166 C665 1.727 . S
C1177 C715 2.481 . S
C1175 C330 2.483 . S
C1188 C742 1.042 . S
C1186 C317 1.052 . S
C1197 C120 2.748 . S
C1199 C635 2.725 . S
C1208 C134 1.974 . S
C1210 C431 1.798 . S
C1219 C331 2.538 . S
C1221 C794 2.426 . S
C1232 C822 1.471 . S
C1230 C303 1.648 . S
C1243 C351 1.533 . S
C1241 C59 1.698 . S
C1254 C825 2.052 . S
C1252 C107 2.168 1_655 S
C1263 C91 1.424 . S
C1265 C435 1.509 . S
C1274 C78 2.606 . S
C1276 C786 2.585 . S
C1287 C502 1.377 . S
C1285 C7 1.354 . S
C1296 C51 1.009 . S
C1298 C711 0.968 . S
C1309 C585 0.649 . S
C1307 C31 0.651 . S
C1320 C871 2.557 . S
C1318 C22 2.687 . S
C1331 C345 2.087 1_556 S
C1329 C143 2.284 . S
C1342 C826 1.976 . S
C1340 C315 1.804 . S
C1351 C115 2.092 . S
C1353 C434 1.977 . S
C1362 C287 0.857 . S
C1364 C791 0.834 . S
C1373 C147 1.822 . S
C1375 C515 1.898 . S
C1386 C705 2.061 . S
C1384 C311 2.026 . S
C1395 C119 1.888 . S
C1397 C586 2.031 . S
C1406 C283 2.199 . S
C1408 C865 2.034 . S
C1417 C190 2.334 . S
C1419 C346 2.375 1_655 S
C1428 C177 1.964 . S
C1430 C674 2.029 . S
C1439 C260 2.468 . S
C1441 C546 2.485 . S
C1450 C247 1.070 . S
C1452 C751 1.058 . S
C1463 C866 2.680 . S
C1461 C274 2.679 . S
C1472 C218 1.938 . S
C1474 C422 1.836 . S
C1485 C465 2.470 . S
C1483 C261 2.544 . S
C1496 C391 1.491 . S
C1494 C205 1.667 . S
C1505 C77 1.492 . S
C1507 C902 1.479 . S
C1518 C834 2.060 . S
C1516 C93 2.191 . S
C1527 C101 1.561 . S
C1529 C946 1.567 . S
C1538 C64 2.555 . S
C1540 C795 2.558 . S
C1549 C45 1.421 . S
C1551 C671 1.411 . S
C1562 C702 0.972 . S
C1560 C9 1.035 . S
C1573 C754 0.678 . S
C1571 C21 0.740 . S
C1584 C862 1.726 . S
C1582 C36 1.848 . S
C1595 C914 2.032 . S
C1593 C259 2.135 . S
C1604 C185 1.912 1_556 S
C1606 C835 1.947 . S
C1617 C945 1.919 . S
C1615 C203 1.862 . S
C1628 C782 0.803 . S
C1626 C213 0.844 . S
C1639 C666 1.983 1_556 S
C1637 C255 1.981 . S
C1648 C189 1.951 . S
C1650 C714 2.090 . S
C1661 C755 1.900 . S
C1659 C199 1.870 . S
C1670 C217 2.008 . S
C1672 C874 1.888 . S
C1683 C915 2.364 . S
C1681 C316 2.333 . S
C1692 C135 1.990 . S
C1694 C505 2.043 . S
C1705 C555 2.457 . S
C1703 C148 2.473 . S
C1716 C582 1.132 1_565 S
C1714 C163 1.162 . S
C1727 C875 2.673 . S
C1725 C302 2.697 . S
C1736 C288 1.647 . S
C1738 C951 1.490 . S
C1749 C474 2.497 . S
C1747 C149 2.591 . S
C1760 C382 1.482 . S
C1758 C121 1.661 . S
C1769 C87 1.679 . S
C1771 C911 1.528 . S
C1782 C385 2.093 . S
C1780 C79 2.228 . S
C1791 C63 1.466 . S
C1793 C955 1.554 . S
C1802 C106 2.611 . S
C1804 C466 2.591 . S
C1813 C35 1.289 . S
C1815 C662 1.301 . S
C1826 C551 0.956 . S
C1824 C23 1.016 . S
C1835 C3 0.745 . S
C1837 C745 0.704 . S
C1846 C50 2.454 . S
C1848 C631 2.349 . S
C1859 C905 2.040 . S
C1857 C325 2.243 . S
C1868 C161 1.851 . S
C1870 C386 2.009 . S
C1881 C954 2.065 1_556 S
C1879 C297 2.168 1_455 S
C1890 C133 1.002 . S
C1892 C471 0.947 . S
C1901 C329 1.908 . S
C1903 C675 2.014 . S
C1914 C545 2.157 . S
C1912 C157 2.160 1_556 S
C1923 C301 1.832 1_455 S
C1925 C746 1.976 . S
C1936 C625 1.942 . S
C1934 C129 2.128 . S
C1947 C906 2.371 . S
C1945 C246 2.336 . S
C1958 C514 2.117 1_655 S
C1956 C219 2.042 . S
C1967 C232 2.464 . S
C1969 C706 2.472 . S
C1980 C591 1.124 . S
C1978 C191 1.153 . S
C1989 C204 2.663 . S
C1991 C626 2.653 . S
C2000 C176 1.843 . S
C2002 C942 1.752 . S
C2013 C785 2.503 . S
C2011 C233 2.558 1_565 S
C2024 C831 1.403 . S
C2022 C275 1.589 . S
