# Generated by pormake.
# Topology gar, (4,6)-cn, num edge types: 1
# Building blocks:
#     Node 0, Type 0, BuildingBlock: NAHDIM_clean_sbu_0, # of connection points: 4
#     Node 1, Type 0, BuildingBlock: NAHDIM_clean_sbu_0, # of connection points: 4
#     Node 2, Type 0, BuildingBlock: NAHDIM_clean_sbu_0, # of connection points: 4
#     Node 3, Type 0, BuildingBlock: NAHDIM_clean_sbu_0, # of connection points: 4
#     Node 4, Type 0, BuildingBlock: NAHDIM_clean_sbu_0, # of connection points: 4
#     Node 5, Type 0, BuildingBlock: NAHDIM_clean_sbu_0, # of connection points: 4
#     Node 6, Type 0, BuildingBlock: NAHDIM_clean_sbu_0, # of connection points: 4
#     Node 7, Type 0, BuildingBlock: NAHDIM_clean_sbu_0, # of connection points: 4
#     Node 8, Type 0, BuildingBlock: NAHDIM_clean_sbu_0, # of connection points: 4
#     Node 9, Type 0, BuildingBlock: NAHDIM_clean_sbu_0, # of connection points: 4
#     Node 10, Type 0, BuildingBlock: NAHDIM_clean_sbu_0, # of connection points: 4
#     Node 11, Type 0, BuildingBlock: NAHDIM_clean_sbu_0, # of connection points: 4
#     Node 12, Type 0, BuildingBlock: NAHDIM_clean_sbu_0, # of connection points: 4
#     Node 13, Type 0, BuildingBlock: NAHDIM_clean_sbu_0, # of connection points: 4
#     Node 14, Type 0, BuildingBlock: NAHDIM_clean_sbu_0, # of connection points: 4
#     Node 15, Type 0, BuildingBlock: NAHDIM_clean_sbu_0, # of connection points: 4
#     Node 16, Type 0, BuildingBlock: NAHDIM_clean_sbu_0, # of connection points: 4
#     Node 17, Type 0, BuildingBlock: NAHDIM_clean_sbu_0, # of connection points: 4
#     Node 18, Type 0, BuildingBlock: NAHDIM_clean_sbu_0, # of connection points: 4
#     Node 19, Type 0, BuildingBlock: NAHDIM_clean_sbu_0, # of connection points: 4
#     Node 20, Type 0, BuildingBlock: NAHDIM_clean_sbu_0, # of connection points: 4
#     Node 21, Type 0, BuildingBlock: NAHDIM_clean_sbu_0, # of connection points: 4
#     Node 22, Type 0, BuildingBlock: NAHDIM_clean_sbu_0, # of connection points: 4
#     Node 23, Type 0, BuildingBlock: NAHDIM_clean_sbu_0, # of connection points: 4
#     Node 24, Type 1, BuildingBlock: HISSIN_clean_sbu_0, # of connection points: 6
#     Node 25, Type 1, BuildingBlock: HISSIN_clean_sbu_0, # of connection points: 6
#     Node 26, Type 1, BuildingBlock: HISSIN_clean_sbu_0, # of connection points: 6
#     Node 27, Type 1, BuildingBlock: HISSIN_clean_sbu_0, # of connection points: 6
#     Node 28, Type 1, BuildingBlock: HISSIN_clean_sbu_0, # of connection points: 6
#     Node 29, Type 1, BuildingBlock: HISSIN_clean_sbu_0, # of connection points: 6
#     Node 30, Type 1, BuildingBlock: HISSIN_clean_sbu_0, # of connection points: 6
#     Node 31, Type 1, BuildingBlock: HISSIN_clean_sbu_0, # of connection points: 6
#     Node 32, Type 1, BuildingBlock: HISSIN_clean_sbu_0, # of connection points: 6
#     Node 33, Type 1, BuildingBlock: HISSIN_clean_sbu_0, # of connection points: 6
#     Node 34, Type 1, BuildingBlock: HISSIN_clean_sbu_0, # of connection points: 6
#     Node 35, Type 1, BuildingBlock: HISSIN_clean_sbu_0, # of connection points: 6
#     Node 36, Type 1, BuildingBlock: HISSIN_clean_sbu_0, # of connection points: 6
#     Node 37, Type 1, BuildingBlock: HISSIN_clean_sbu_0, # of connection points: 6
#     Node 38, Type 1, BuildingBlock: HISSIN_clean_sbu_0, # of connection points: 6
#     Node 39, Type 1, BuildingBlock: HISSIN_clean_sbu_0, # of connection points: 6
#     Edge 40, Type (0, 1), None
#     Edge 41, Type (0, 1), None
#     Edge 42, Type (0, 1), None
#     Edge 43, Type (0, 1), None
#     Edge 44, Type (0, 1), None
#     Edge 45, Type (0, 1), None
#     Edge 46, Type (0, 1), None
#     Edge 47, Type (0, 1), None
#     Edge 48, Type (0, 1), None
#     Edge 49, Type (0, 1), None
#     Edge 50, Type (0, 1), None
#     Edge 51, Type (0, 1), None
#     Edge 52, Type (0, 1), None
#     Edge 53, Type (0, 1), None
#     Edge 54, Type (0, 1), None
#     Edge 55, Type (0, 1), None
#     Edge 56, Type (0, 1), None
#     Edge 57, Type (0, 1), None
#     Edge 58, Type (0, 1), None
#     Edge 59, Type (0, 1), None
#     Edge 60, Type (0, 1), None
#     Edge 61, Type (0, 1), None
#     Edge 62, Type (0, 1), None
#     Edge 63, Type (0, 1), None
#     Edge 64, Type (0, 1), None
#     Edge 65, Type (0, 1), None
#     Edge 66, Type (0, 1), None
#     Edge 67, Type (0, 1), None
#     Edge 68, Type (0, 1), None
#     Edge 69, Type (0, 1), None
#     Edge 70, Type (0, 1), None
#     Edge 71, Type (0, 1), None
#     Edge 72, Type (0, 1), None
#     Edge 73, Type (0, 1), None
#     Edge 74, Type (0, 1), None
#     Edge 75, Type (0, 1), None
#     Edge 76, Type (0, 1), None
#     Edge 77, Type (0, 1), None
#     Edge 78, Type (0, 1), None
#     Edge 79, Type (0, 1), None
#     Edge 80, Type (0, 1), None
#     Edge 81, Type (0, 1), None
#     Edge 82, Type (0, 1), None
#     Edge 83, Type (0, 1), None
#     Edge 84, Type (0, 1), None
#     Edge 85, Type (0, 1), None
#     Edge 86, Type (0, 1), None
#     Edge 87, Type (0, 1), None
#     Edge 88, Type (0, 1), None
#     Edge 89, Type (0, 1), None
#     Edge 90, Type (0, 1), None
#     Edge 91, Type (0, 1), None
#     Edge 92, Type (0, 1), None
#     Edge 93, Type (0, 1), None
#     Edge 94, Type (0, 1), None
#     Edge 95, Type (0, 1), None
#     Edge 96, Type (0, 1), None
#     Edge 97, Type (0, 1), None
#     Edge 98, Type (0, 1), None
#     Edge 99, Type (0, 1), None
#     Edge 100, Type (0, 1), None
#     Edge 101, Type (0, 1), None
#     Edge 102, Type (0, 1), None
#     Edge 103, Type (0, 1), None
#     Edge 104, Type (0, 1), None
#     Edge 105, Type (0, 1), None
#     Edge 106, Type (0, 1), None
#     Edge 107, Type (0, 1), None
#     Edge 108, Type (0, 1), None
#     Edge 109, Type (0, 1), None
#     Edge 110, Type (0, 1), None
#     Edge 111, Type (0, 1), None
#     Edge 112, Type (0, 1), None
#     Edge 113, Type (0, 1), None
#     Edge 114, Type (0, 1), None
#     Edge 115, Type (0, 1), None
#     Edge 116, Type (0, 1), None
#     Edge 117, Type (0, 1), None
#     Edge 118, Type (0, 1), None
#     Edge 119, Type (0, 1), None
#     Edge 120, Type (0, 1), None
#     Edge 121, Type (0, 1), None
#     Edge 122, Type (0, 1), None
#     Edge 123, Type (0, 1), None
#     Edge 124, Type (0, 1), None
#     Edge 125, Type (0, 1), None
#     Edge 126, Type (0, 1), None
#     Edge 127, Type (0, 1), None
#     Edge 128, Type (0, 1), None
#     Edge 129, Type (0, 1), None
#     Edge 130, Type (0, 1), None
#     Edge 131, Type (0, 1), None
#     Edge 132, Type (0, 1), None
#     Edge 133, Type (0, 1), None
#     Edge 134, Type (0, 1), None
#     Edge 135, Type (0, 1), None
# Relax obj value: 0.433
# Max RMSD: 0.414
# Mean RMSD: 0.222
data_MOF--net-gar--node1-NAHDIM_clean_sbu_0--node2-HISSIN_clean_sbu_0--edge1-none
_symmetry_space_group_name_H-M    P1
_symmetry_Int_Tables_number       1
_symmetry_cell_setting            triclinic
loop_
_symmetry_equiv_pos_as_xyz
'x, y, z'
_cell_length_a     29.632698
_cell_length_b     28.957223
_cell_length_c     26.710372
_cell_angle_alpha  105.32252
_cell_angle_beta   92.855006
_cell_angle_gamma 100.81738
loop_
_atom_site_label
_atom_site_type_symbol
_atom_site_fract_x
_atom_site_fract_y
_atom_site_fract_z
_atom_type_partial_charge
C0 C 0.30179 0.4077 0.34528 0.0
O1 O 0.26228 0.39475 0.31572 0.0
O2 O 0.24214 0.37761 0.48083 0.0
Zn3 Zn 0.24583 0.41621 0.42921 0.0
O4 O 0.23374 0.48126 0.4634 0.0
C5 C 0.15534 0.38899 0.39177 0.0
O6 O 0.1518 0.3983 0.44214 0.0
O7 O 0.30285 0.41954 0.39473 0.0
C8 C 0.21024 0.50491 0.44245 0.0
O9 O 0.20051 0.49295 0.39162 0.0
C10 C 0.22838 0.39279 0.52548 0.0
O11 O 0.22426 0.43853 0.54244 0.0
O12 O 0.19402 0.38446 0.3756 0.0
C13 C 1.02578 0.7904 0.75313 0.0
O14 O 1.0289 0.7459 0.75365 0.0
O15 O 0.13568 0.74958 0.7001 0.0
Zn16 Zn 0.12475 0.81683 0.73137 0.0
O17 O 0.14545 0.85804 0.68255 0.0
C18 C 0.14553 0.82884 0.83965 0.0
O19 O 0.10276 0.80469 0.83559 0.0
O20 O 1.05949 0.81931 0.74272 0.0
C21 C 0.17495 0.85046 0.6497 0.0
O22 O 0.1978 0.81554 0.64853 0.0
C23 C 0.12011 0.73322 0.65247 0.0
O24 O 0.09437 0.7575 0.63229 0.0
O25 O 0.16045 0.84275 0.80103 0.0
C26 C 0.80262 0.90917 0.84576 0.0
O27 O 0.76291 0.89644 0.81661 0.0
O28 O 0.74462 0.8774 0.98168 0.0
Zn29 Zn 0.74711 0.91606 0.93016 0.0
O30 O 0.73329 0.98037 0.96461 0.0
C31 C 0.65646 0.88604 0.89266 0.0
O32 O 0.65291 0.89476 0.94301 0.0
O33 O 0.80404 0.92063 0.89526 0.0
C34 C 0.7088 1.00299 0.94342 0.0
O35 O 0.69936 0.99079 0.89254 0.0
C36 C 0.7315 0.89264 1.02667 0.0
O37 O 0.72808 0.93856 0.04411 0.0
O38 O 0.69542 0.88301 0.87658 0.0
C39 C 0.52645 0.29174 0.25419 0.0
O40 O 0.52973 0.24713 0.2541 0.0
O41 O 0.63381 0.24947 0.19766 0.0
Zn42 Zn 0.6244 0.31699 0.23047 0.0
O43 O 0.64506 0.35839 0.18213 0.0
C44 C 0.6463 0.32834 0.33859 0.0
O45 O 0.60353 0.30443 0.3352 0.0
O46 O 0.55976 0.32066 0.24316 0.0
C47 C 0.67561 0.35173 0.15047 0.0
O48 O 0.69971 0.31809 0.15086 0.0
C49 C 0.61961 0.23431 0.14955 0.0
O50 O 0.59549 0.25976 0.12904 0.0
O51 O 0.66097 0.34168 0.29957 0.0
C52 C 0.19038 0.8366 0.17511 0.0
O53 O 0.20547 0.88061 0.17005 0.0
O54 O 0.30609 0.78341 0.09454 0.0
Zn55 Zn 0.26748 0.83021 0.12846 0.0
O56 O 0.24649 0.86212 0.07629 0.0
C57 C 0.33711 0.9088 0.20759 0.0
O58 O 0.35473 0.92741 0.17136 0.0
O59 O 0.21141 0.80248 0.1562 0.0
C60 C 0.21368 0.83473 0.04286 0.0
O61 O 0.19996 0.78893 0.04293 0.0
C62 C 0.29584 0.7394 0.06629 0.0
O63 O 0.32877 0.71956 0.04403 0.0
O64 O 0.30263 0.87338 0.1951 0.0
C65 C 0.67013 0.85965 0.49137 0.0
O66 O 0.68139 0.89003 0.53834 0.0
O67 O 0.55152 0.8747 0.56916 0.0
Zn68 Zn 0.58366 0.88277 0.50574 0.0
O69 O 0.62055 0.95051 0.52213 0.0
C70 C 0.51233 0.83873 0.41699 0.0
O71 O 0.50781 0.79684 0.42846 0.0
O72 O 0.62777 0.84168 0.47579 0.0
C73 C 0.60182 0.98694 0.52595 0.0
O74 O 0.55665 0.98103 0.52306 0.0
C75 C 0.56687 0.85893 0.60525 0.0
O76 O 0.54346 0.85806 0.64544 0.0
O77 O 0.53935 0.87685 0.4456 0.0
C78 C 0.68126 0.32854 0.66684 0.0
O79 O 0.69518 0.37236 0.6608 0.0
O80 O 0.80306 0.28153 0.59754 0.0
Zn81 Zn 0.76104 0.32591 0.62741 0.0
O82 O 0.74202 0.35663 0.57326 0.0
C83 C 0.82961 0.40109 0.70068 0.0
O84 O 0.84644 0.40929 0.65853 0.0
O85 O 0.70429 0.29561 0.65092 0.0
C86 C 0.71013 0.32974 0.53838 0.0
O87 O 0.69551 0.28381 0.53752 0.0
C88 C 0.79396 0.23767 0.56888 0.0
O89 O 0.82792 0.21835 0.54866 0.0
O90 O 0.79128 0.37181 0.6956 0.0
C91 C 0.16382 0.36549 0.98961 0.0
O92 O 0.17599 0.39472 0.03704 0.0
O93 O 1.04797 0.37553 0.07239 0.0
Zn94 Zn 0.07733 0.38838 1.00916 0.0
O95 O 0.11435 0.45647 1.02823 0.0
C96 C 1.00304 0.34616 0.92351 0.0
O97 O 1.00127 0.30353 0.93262 0.0
O98 O 0.12119 0.34916 0.97413 0.0
C99 C 0.09723 0.4937 0.03014 0.0
O100 O 1.05225 0.48922 1.02354 0.0
C101 C 0.06468 0.35791 0.10615 0.0
O102 O 1.04194 0.35359 0.14605 0.0
O103 O 1.03022 0.38427 0.95208 0.0
C104 C 0.42097 0.11012 0.3382 0.0
O105 O 0.42578 0.06513 0.31695 0.0
O106 O 0.52203 0.07329 0.33261 0.0
Zn107 Zn 0.4939 0.10056 0.39744 0.0
O108 O 0.5484 0.1353 0.452 0.0
C109 C 0.47273 1.0124 0.4254 0.0
O110 O 0.51544 1.02527 0.44744 0.0
O111 O 0.44914 0.13741 0.37701 0.0
C112 C 0.5886 0.14711 0.4381 0.0
O113 O 0.59335 0.14682 0.38948 0.0
C114 C 0.55301 0.04805 0.3302 0.0
O115 O 0.56613 1.03531 0.37132 0.0
O116 O 0.45394 1.04456 0.41426 0.0
C117 C 0.45516 0.25276 0.55572 0.0
O118 O 0.46392 0.30005 0.5613 0.0
O119 O 0.38658 0.31919 0.60688 0.0
Zn120 Zn 0.36954 0.27015 0.53185 0.0
O121 O 0.38022 0.29607 0.46364 0.0
C122 C 0.29344 0.1806 0.51573 0.0
O123 O 0.32494 0.15596 0.49784 0.0
O124 O 0.41485 0.22774 0.53796 0.0
C125 C 0.41532 0.32344 0.4519 0.0
O126 O 0.45125 0.34345 0.48671 0.0
C127 C 0.36122 0.31733 0.64397 0.0
O128 O 0.31863 0.29187 0.63263 0.0
O129 O 0.30376 0.22747 0.52918 0.0
C130 C 0.32005 0.9665 0.79291 0.0
O131 O 0.27583 0.94756 0.79033 0.0
O132 O 0.24752 0.07667 0.72652 0.0
Zn133 Zn 0.29085 0.08519 0.80372 0.0
O134 O 0.24856 0.09551 0.87718 0.0
C135 C 0.32843 0.20732 0.82153 0.0
O136 O 0.28795 0.21063 0.83831 0.0
O137 O 0.33102 1.01466 0.79761 0.0
C138 C 0.21045 0.07313 0.8912 0.0
O139 O 0.18662 1.03353 0.85711 0.0
C140 C 0.22713 0.10867 0.71327 0.0
O141 O 0.22732 0.14943 0.74944 0.0
O142 O 0.338 0.16321 0.80888 0.0
C143 C 0.29551 0.05892 0.05354 0.0
O144 O 0.29369 1.01708 0.06459 0.0
O145 O 0.40684 1.01639 0.08295 0.0
Zn146 Zn 0.39968 1.04492 1.02353 0.0
O147 O 0.39321 0.98393 0.9568 0.0
C148 C 0.5076 0.07172 0.0472 0.0
O149 O 0.49731 1.04092 0.07514 0.0
O150 O 0.33359 0.07717 0.03621 0.0
C151 C 0.42731 0.96298 0.94385 0.0
O152 O 0.46793 0.98134 0.97052 0.0
C153 C 0.40527 0.97098 0.07609 0.0
O154 O 0.38483 0.93928 0.03251 0.0
O155 O 0.47342 0.08403 1.02474 0.0
C156 C 0.37776 0.4715 0.06007 0.0
O157 O 0.36299 0.42732 0.06482 0.0
O158 O 0.4497 0.42696 0.15042 0.0
Zn159 Zn 0.46104 0.44708 0.08074 0.0
O160 O 0.43994 0.39542 1.00816 0.0
C161 C 0.53753 0.53301 0.09546 0.0
O162 O 0.50699 0.55787 0.11599 0.0
O163 O 0.42001 0.49189 0.07294 0.0
C164 C 0.46307 0.39816 0.96949 0.0
O165 O 0.50449 0.42638 0.97845 0.0
C166 C 0.42257 0.38888 0.15549 0.0
O167 O 0.40012 0.35624 0.11348 0.0
O168 O 0.52685 0.48625 0.08104 0.0
C169 C 1.02242 0.15212 0.04578 0.0
O170 O 1.02531 0.19358 0.03368 0.0
O171 O 0.91931 0.22094 0.14537 0.0
Zn172 Zn 0.91888 0.16994 0.07302 0.0
O173 O 0.92184 0.21013 1.0231 0.0
C174 C 0.8114 0.16106 0.05916 0.0
O175 O 0.82478 0.20723 0.06072 0.0
O176 O 0.98356 0.13484 0.06238 0.0
C177 C 0.89289 0.19344 0.98282 0.0
O178 O 0.87341 0.14664 0.96854 0.0
C179 C 0.90803 0.26242 0.14934 0.0
O180 O 0.90453 0.27798 0.10773 0.0
O181 O 0.84313 0.13583 0.06255 0.0
C182 C 0.42799 0.62424 0.28557 0.0
O183 O 0.42184 0.66684 0.31369 0.0
O184 O 0.31752 0.61878 0.15854 0.0
Zn185 Zn 0.36031 0.64429 0.22557 0.0
O186 O 0.31942 0.65518 0.28285 0.0
C187 C 0.38432 0.73999 0.21152 0.0
O188 O 0.34653 0.72594 0.17891 0.0
O189 O 0.40364 0.60381 0.24186 0.0
C190 C 0.2918 0.68423 0.28508 0.0
O191 O 0.29223 0.70999 0.25142 0.0
C192 C 0.27449 0.60315 0.1598 0.0
O193 O 0.25942 0.59348 0.20204 0.0
O194 O 0.39881 0.70943 0.23086 0.0
C195 C 0.87818 0.97068 0.55612 0.0
O196 O 0.86313 0.92618 0.55985 0.0
O197 O 0.94954 0.92634 0.6487 0.0
Zn198 Zn 0.96125 0.94638 0.57896 0.0
O199 O 0.94156 0.89474 0.50607 0.0
C200 C 1.03731 1.03249 0.59468 0.0
O201 O 1.00638 0.05709 0.61458 0.0
O202 O 0.92027 0.99109 0.57028 0.0
C203 C 0.96491 0.89832 0.46772 0.0
O204 O 1.00587 0.92748 0.47719 0.0
C205 C 0.92184 0.88875 0.65409 0.0
O206 O 0.89867 0.85642 0.6123 0.0
O207 O 1.02698 0.98574 0.5803 0.0
C208 C 1.00136 0.23884 0.30697 0.0
O209 O 1.04376 0.25459 0.2977 0.0
O210 O 0.07362 0.11155 0.22897 0.0
Zn211 Zn 1.03265 0.12192 0.30481 0.0
O212 O 0.07794 0.13087 0.38272 0.0
C213 C 0.99381 0.99945 0.29066 0.0
O214 O 1.03459 0.99552 0.27507 0.0
O215 O 0.99173 0.19272 0.31073 0.0
C216 C 0.09955 0.09984 0.39672 0.0
O217 O 0.09988 0.05894 0.361 0.0
C218 C 0.11004 0.1351 0.21276 0.0
O219 O 0.13294 0.17616 0.24536 0.0
O220 O 0.98464 1.04381 0.30149 0.0
C221 C 0.52445 0.65149 0.54729 0.0
O222 O 0.5271 0.6927 0.53473 0.0
O223 O 0.42114 0.72057 0.64639 0.0
Zn224 Zn 0.42138 0.6695 0.57429 0.0
O225 O 0.42642 0.71009 0.52506 0.0
C226 C 0.31405 0.6616 0.55977 0.0
O227 O 0.32775 0.70769 0.5612 0.0
O228 O 0.48575 0.63427 0.56418 0.0
C229 C 0.39764 0.69574 0.48468 0.0
O230 O 0.37572 0.64972 0.46923 0.0
C231 C 0.41005 0.76209 0.64995 0.0
O232 O 0.40751 0.77774 0.60829 0.0
O233 O 0.34552 0.63604 0.56304 0.0
C234 C 0.50092 0.73818 0.80779 0.0
O235 O 0.54356 0.75432 0.79957 0.0
O236 O 0.57356 0.61043 0.72935 0.0
Zn237 Zn 0.53217 0.621 0.80509 0.0
O238 O 0.57749 0.63021 0.88301 0.0
C239 C 0.49267 0.49852 0.79163 0.0
O240 O 0.53352 0.49426 0.77644 0.0
O241 O 0.4912 0.69183 0.81084 0.0
C242 C 0.59954 0.5995 0.89696 0.0
O243 O 0.60031 0.55877 0.86117 0.0
C244 C 0.61059 0.63352 0.71367 0.0
O245 O 0.63393 0.67404 0.74679 0.0
O246 O 0.48377 0.54299 0.80203 0.0
C247 C 0.92649 0.12081 0.78415 0.0
O248 O 0.91918 0.16282 0.81244 0.0
O249 O 0.81814 0.11634 0.65548 0.0
Zn250 Zn 0.85995 0.14106 0.72361 0.0
O251 O 0.81698 0.14978 0.77898 0.0
C252 C 0.8868 0.23666 0.70959 0.0
O253 O 0.85051 0.22154 0.67474 0.0
O254 O 0.90291 0.10038 0.73996 0.0
C255 C 0.78757 0.17654 0.77856 0.0
O256 O 0.78822 0.20171 0.74424 0.0
C257 C 0.77536 0.09826 0.65531 0.0
O258 O 0.76038 0.08539 0.69606 0.0
O259 O 0.89925 0.20695 0.73181 0.0
C260 C 0.95548 0.75603 0.05622 0.0
O261 O 0.96253 0.80324 0.06164 0.0
O262 O 0.88565 0.82012 0.10567 0.0
Zn263 Zn 0.86937 0.77057 0.03087 0.0
O264 O 0.87995 0.79627 0.96249 0.0
C265 C 0.79387 0.68039 1.01582 0.0
O266 O 0.82582 0.65584 0.99936 0.0
O267 O 0.91582 0.72954 0.03786 0.0
C268 C 0.91512 0.82335 0.95051 0.0
O269 O 0.9512 0.84329 0.9851 0.0
C270 C 0.86124 0.8165 0.14315 0.0
O271 O 0.81956 0.7888 0.13237 0.0
O272 O 0.8038 0.72724 1.02806 0.0
C273 C 0.92091 0.61338 0.83728 0.0
O274 O 0.92827 0.56968 0.81469 0.0
O275 O 1.02565 0.58498 0.82851 0.0
Zn276 Zn 0.99796 0.6079 0.89296 0.0
O277 O 1.0511 0.64315 0.94923 0.0
C278 C 0.94313 0.51147 0.91996 0.0
O279 O 0.92969 0.51563 0.96674 0.0
O280 O 0.94879 0.64146 0.87592 0.0
C281 C 0.0923 0.65226 0.93708 0.0
O282 O 0.09942 0.64962 0.88846 0.0
C283 C 1.0511 0.55395 0.82547 0.0
O284 O 1.05677 0.53551 0.86474 0.0
O285 O 0.96457 0.54894 0.90905 0.0
C286 C 0.79739 0.55824 0.5545 0.0
O287 O 0.79541 0.51592 0.56449 0.0
O288 O 0.9101 0.51848 0.58649 0.0
Zn289 Zn 0.90213 0.54525 0.52557 0.0
O290 O 0.89515 0.48376 0.45901 0.0
C291 C 1.01019 0.57174 0.54729 0.0
O292 O 1.00024 0.54015 0.57436 0.0
O293 O 0.83573 0.5771 0.53806 0.0
C294 C 0.9294 0.4638 0.44401 0.0
O295 O 0.97076 0.48342 0.46841 0.0
C296 C 0.91114 0.47371 0.58053 0.0
O297 O 0.89421 0.44112 0.53615 0.0
O298 O 0.97575 0.58452 0.52582 0.0
C299 C 0.82035 0.46717 0.2938 0.0
O300 O 0.77616 0.44861 0.2922 0.0
O301 O 0.74807 0.57698 0.22697 0.0
Zn302 Zn 0.79193 0.58591 0.30403 0.0
O303 O 0.75015 0.59655 0.37814 0.0
C304 C 0.83065 0.70779 0.32062 0.0
O305 O 0.79035 0.71155 0.33771 0.0
O306 O 0.83154 0.51517 0.29784 0.0
C307 C 0.71209 0.57416 0.3923 0.0
O308 O 0.68811 0.53471 0.35811 0.0
C309 C 0.72824 0.60918 0.21333 0.0
O310 O 0.72948 0.65055 0.249 0.0
O311 O 0.8398 0.6635 0.30819 0.0
Eu312 Eu 0.18427 0.15843 0.06258 0.0
Eu313 Eu 0.13242 0.05093 0.03816 0.0
C314 C 0.19204 0.08757 0.94598 0.0
C315 C 0.17751 0.28522 0.08279 0.0
C316 C 0.13927 0.27287 0.0447 0.0
C317 C 0.14374 0.34977 0.13459 0.0
C318 C 0.10322 0.29756 0.05224 0.0
C319 C 0.17985 0.32444 0.12748 0.0
C320 C 0.10509 0.33593 0.09714 0.0
C321 C 0.21005 0.25205 0.07897 0.0
O322 O 0.21025 0.04825 0.0552 0.0
O323 O 0.24987 0.12577 0.06308 0.0
C324 C 0.25025 0.07911 0.05694 0.0
O325 O 0.16118 0.15207 0.14422 0.0
O326 O 0.09601 0.98325 0.98093 0.0
O327 O 0.11359 0.98411 0.06107 0.0
O328 O 0.10969 0.07912 0.1214 0.0
C329 C 0.12735 0.12089 0.15697 0.0
O330 O 0.10714 0.16002 0.04089 0.0
O331 O 0.0676 0.08553 0.04285 0.0
O332 O 0.1561 0.05806 0.95727 0.0
O333 O 0.2121 0.23115 0.11665 0.0
O334 O 0.20753 0.221 0.03317 0.0
O335 O 0.21076 0.1283 0.98225 0.0
C336 C 0.12468 0.91741 0.99766 0.0
C337 C 0.17208 0.92995 0.99299 0.0
C338 C 0.13525 0.84103 1.01217 0.0
C339 C 0.20154 0.90084 1.00388 0.0
C340 C 0.10593 0.87146 1.00396 0.0
C341 C 0.18342 0.85745 1.01622 0.0
C342 C 0.09984 0.95708 1.01339 0.0
C343 C 0.06727 0.13113 0.04369 0.0
H344 H 0.13594 0.24267 1.00977 0.0
H345 H 0.14583 0.37961 0.16944 0.0
H346 H 0.07335 0.28599 1.02335 0.0
H347 H 0.2086 0.33423 0.15759 0.0
H348 H 0.18695 0.96495 0.98705 0.0
H349 H 0.12055 0.80742 1.02124 0.0
H350 H 0.23855 0.91375 1.00596 0.0
H351 H 0.06946 0.86135 1.00794 0.0
Eu352 Eu 0.46852 0.89066 0.28209 0.0
Eu353 Eu 0.38271 0.86359 0.34605 0.0
C354 C 0.36607 0.91159 0.25472 0.0
C355 C 0.50096 0.93233 0.17542 0.0
C356 C 0.48233 0.97437 0.19335 0.0
C357 C 0.45658 0.91553 0.09126 0.0
C358 C 0.45135 0.98672 0.161 0.0
C359 C 0.48863 0.90372 0.12349 0.0
C360 C 0.43704 0.95662 0.11027 0.0
C361 C 0.52057 0.91136 0.21406 0.0
O362 O 0.36732 0.81197 0.26512 0.0
O363 O 0.44227 0.80954 0.25589 0.0
C364 C 0.39857 0.79085 0.24131 0.0
O365 O 0.5044 0.87292 0.34703 0.0
O366 O 0.32332 0.81207 0.35805 0.0
O367 O 0.34956 0.8799 0.41826 0.0
O368 O 0.43966 0.82791 0.36845 0.0
C369 C 0.4845 0.84423 0.37351 0.0
O370 O 0.48681 0.94569 0.36031 0.0
O371 O 0.41298 0.94368 0.38186 0.0
O372 O 0.34656 0.88984 0.28773 0.0
O373 O 0.5265 0.93861 0.26231 0.0
O374 O 0.50048 0.86621 0.21026 0.0
O375 O 0.41093 0.92187 0.25351 0.0
C376 C 0.33988 0.80579 0.44114 0.0
C377 C 0.386 0.81642 0.46344 0.0
C378 C 0.33119 0.72366 0.4501 0.0
C379 C 0.40488 0.78043 0.47722 0.0
C380 C 0.31202 0.76012 0.43746 0.0
C381 C 0.3782 0.7331 0.46835 0.0
C382 C 0.32652 0.83475 0.40762 0.0
C383 C 0.45718 0.96334 0.39061 0.0
H384 H 0.48875 0.99605 0.23366 0.0
H385 H 0.44697 0.89242 0.05163 0.0
H386 H 0.43714 1.01885 0.17647 0.0
H387 H 0.50146 0.87052 0.10895 0.0
H388 H 0.40853 0.85147 0.46693 0.0
H389 H 0.30921 0.68822 0.44594 0.0
H390 H 0.44069 0.78923 0.49345 0.0
H391 H 0.27626 0.75188 0.42175 0.0
Eu392 Eu 0.71415 0.09795 0.49602 0.0
Eu393 Eu 0.65597 0.14584 0.58771 0.0
C394 C 0.74203 0.10232 0.61522 0.0
C395 C 0.7948 1.02464 0.45841 0.0
C396 C 0.77443 0.99574 0.48957 0.0
C397 C 0.87041 1.01946 0.49306 0.0
C398 C 0.80165 0.97931 0.52234 0.0
C399 C 0.84308 1.03604 0.46019 0.0
C400 C 0.84978 0.99126 0.52463 0.0
C401 C 0.76685 0.05314 0.43668 0.0
O402 O 0.7255 0.19782 0.59716 0.0
O403 O 0.73491 0.17899 0.51064 0.0
C404 C 0.74715 0.20744 0.55814 0.0
O405 O 0.6509 0.1091 0.45372 0.0
O406 O 0.64043 0.20627 0.64697 0.0
O407 O 0.59437 0.13545 0.62902 0.0
O408 O 0.63475 0.17092 0.51942 0.0
C409 C 0.62831 0.14424 0.47089 0.0
O410 O 0.67491 1.03839 0.526 0.0
O411 O 0.61334 0.07368 0.53997 0.0
O412 O 0.70002 0.10666 0.62656 0.0
O413 O 0.72206 1.03681 0.43083 0.0
O414 O 0.77835 0.10013 0.45929 0.0
O415 O 0.75695 0.10825 0.57158 0.0
C416 C 0.56123 0.20244 0.62708 0.0
C417 C 0.5717 0.23406 0.59537 0.0
C418 C 0.47951 0.19899 0.60688 0.0
C419 C 0.53682 0.24911 0.57119 0.0
C420 C 0.51476 0.18468 0.63234 0.0
C421 C 0.49056 0.23164 0.57651 0.0
C422 C 0.59842 0.18262 0.64723 0.0
C423 C 0.63095 1.03475 0.53103 0.0
H424 H 0.73735 0.98709 0.49018 0.0
H425 H 0.90763 1.02856 0.49363 0.0
H426 H 0.78502 0.95751 0.5462 0.0
H427 H 0.85964 0.05949 0.43791 0.0
H428 H 0.60699 0.24732 0.58895 0.0
H429 H 0.44386 0.18575 0.61211 0.0
H430 H 0.54597 0.27456 0.54823 0.0
H431 H 0.50579 0.15931 0.65543 0.0
Eu432 Eu 0.36764 0.37653 0.8234 0.0
Eu433 Eu 0.45191 0.32984 0.79206 0.0
C434 C 0.3588 0.25667 0.81694 0.0
C435 C 0.26095 0.39601 0.88488 0.0
C436 C 0.27493 0.38154 0.92847 0.0
C437 C 0.1818 0.38042 0.9049 0.0
C438 C 0.24275 0.36881 0.9615 0.0
C439 C 0.21413 0.39426 0.8726 0.0
C440 C 0.19611 0.36887 0.95031 0.0
C441 C 0.29464 0.41022 0.8506 0.0
O442 O 0.42356 0.3337 0.71293 0.0
O443 O 0.35239 0.34485 0.73555 0.0
C444 C 0.38073 0.33526 0.69983 0.0
O445 O 0.41958 0.44607 0.81363 0.0
O446 O 0.48321 0.27478 0.74236 0.0
O447 O 0.52105 0.32239 0.8148 0.0
O448 O 0.47868 0.40891 0.78444 0.0
C449 C 0.46135 0.44944 0.79671 0.0
O450 O 0.3983 0.37282 0.90177 0.0
O451 O 0.47018 0.37002 0.87777 0.0
O452 O 0.40064 0.26058 0.80117 0.0
O453 O 0.33621 0.43183 0.87285 0.0
O454 O 0.29485 0.37665 0.80726 0.0
O455 O 0.34113 0.29679 0.82882 0.0
C456 C 0.56297 0.29927 0.74491 0.0
C457 C 0.56319 0.32795 0.71005 0.0
C458 C 0.64143 0.29232 0.73099 0.0
C459 C 0.6023 0.33815 0.68506 0.0
C460 C 0.60225 0.28204 0.75595 0.0
C461 C 0.64105 0.31926 0.69446 0.0
C462 C 0.52254 0.28919 0.77162 0.0
C463 C 0.4424 0.37675 0.91431 0.0
H464 H 0.31091 0.38161 0.93799 0.0
H465 H 0.14599 0.38138 0.89587 0.0
H466 H 0.25445 0.36047 0.99656 0.0
H467 H 0.2027 0.40432 0.83851 0.0
H468 H 0.5331 0.34215 0.70203 0.0
H469 H 0.67176 0.27878 0.73967 0.0
H470 H 0.60186 0.35956 0.6574 0.0
H471 H 0.60255 0.26065 0.78366 0.0
Eu472 Eu 0.15142 0.15804 0.58071 0.0
Eu473 Eu 0.17915 0.05336 0.52998 0.0
C474 C 0.24843 0.15398 0.5261 0.0
C475 C 0.15857 0.28594 0.59458 0.0
C476 C 0.17348 0.27212 0.54486 0.0
C477 C 0.19154 0.3708 0.60122 0.0
C478 C 0.19769 0.30683 0.52373 0.0
C479 C 0.16786 0.33543 0.62303 0.0
C480 C 0.2069 0.35655 0.55143 0.0
C481 C 0.13988 0.24688 0.61764 0.0
O482 O 0.20725 0.06837 0.61685 0.0
O483 O 0.18414 0.14004 0.65228 0.0
C484 C 0.20465 0.10444 0.6581 0.0
O485 O 0.09142 0.10696 0.59884 0.0
O486 O 0.22855 1.00503 0.52159 0.0
O487 O 0.15872 0.97631 0.4851 0.0
O488 O 0.10863 1.03341 0.55636 0.0
C489 C 0.0817 0.05898 0.58372 0.0
O490 O 0.12026 0.14102 0.49382 0.0
O491 O 0.14553 0.07029 0.45761 0.0
O492 O 0.23947 0.10585 0.51305 0.0
O493 O 0.10766 0.21193 0.58783 0.0
O494 O 0.17177 0.2297 0.63768 0.0
O495 O 0.22029 0.17957 0.55111 0.0
C496 C 0.18933 0.93302 0.53682 0.0
C497 C 0.16314 0.94496 0.57896 0.0
C498 C 0.20716 0.86642 0.56851 0.0
C499 C 0.15867 0.91816 0.61522 0.0
C500 C 0.21146 0.8935 0.53172 0.0
C501 C 0.18079 0.87876 0.61081 0.0
C502 C 0.1963 0.96585 0.50276 0.0
C503 C 0.12334 0.10511 0.45213 0.0
H504 H 0.16719 0.23404 0.52251 0.0
H505 H 0.19792 0.40904 0.62322 0.0
H506 H 0.20846 0.29449 0.48512 0.0
H507 H 0.15742 0.34653 0.66197 0.0
H508 H 0.14676 0.97591 0.58478 0.0
H509 H 0.22447 0.83599 0.56387 0.0
H510 H 0.13821 0.92886 0.64716 0.0
H511 H 0.23247 0.88411 0.5 0.0
Eu512 Eu 0.45093 0.88626 0.78607 0.0
Eu513 Eu 0.36963 0.81937 0.81599 0.0
C514 C 0.42278 0.91929 0.8984 0.0
C515 C 0.569 0.93847 0.79906 0.0
C516 C 0.56977 0.95232 0.85377 0.0
C517 C 0.62715 0.89133 0.80611 0.0
C518 C 0.59644 0.93306 0.88388 0.0
C519 C 0.59981 0.91007 0.77588 0.0
C520 C 0.62434 0.90128 0.86013 0.0
C521 C 0.52632 0.93644 0.76784 0.0
O522 O 0.33566 0.88226 0.79476 0.0
O523 O 0.39859 0.93906 0.78953 0.0
C524 C 0.35341 0.92829 0.79245 0.0
O525 O 0.41153 0.84157 0.70936 0.0
O526 O 0.34158 0.78772 0.87602 0.0
O527 O 0.30139 0.77221 0.80029 0.0
O528 O 0.38735 0.7755 0.73791 0.0
C529 C 0.40175 0.79405 0.70051 0.0
O530 O 0.48275 0.81764 0.79421 0.0
O531 O 0.42587 0.77284 0.82609 0.0
O532 O 0.38258 0.89108 0.8802 0.0
O533 O 0.50781 0.89267 0.73837 0.0
O534 O 0.49582 0.95743 0.79328 0.0
O535 O 0.45868 0.91028 0.87401 0.0
C536 C 0.26259 0.78682 0.8743 0.0
C537 C 0.26355 0.83725 0.88828 0.0
C538 C 0.17959 0.77018 0.87174 0.0
C539 C 0.22243 0.85354 0.88757 0.0
C540 C 0.22089 0.75361 0.87071 0.0
C541 C 0.18051 0.81938 0.87376 0.0
C542 C 0.30113 0.76995 0.84878 0.0
C543 C 0.46765 0.77703 0.80946 0.0
H544 H 0.54679 0.97462 0.87323 0.0
H545 H 0.6497 0.86821 0.78711 0.0
H546 H 0.59529 0.94336 0.92578 0.0
H547 H 0.59938 0.89858 0.73395 0.0
H548 H 0.29564 0.86347 0.89191 0.0
H549 H 0.14745 0.74318 0.86143 0.0
H550 H 0.22374 0.89168 0.88963 0.0
H551 H 0.21976 0.71459 0.86037 0.0
Eu552 Eu 0.66681 0.0898 0.0942 0.0
Eu553 Eu 0.65147 0.13763 0.99847 0.0
C554 C 0.63477 0.19309 0.11534 0.0
C555 C 0.63745 1.0409 0.20536 0.0
C556 C 0.59947 0.0633 0.20621 0.0
C557 C 0.61777 1.01862 0.28367 0.0
C558 C 0.57127 0.06433 0.24613 0.0
C559 C 0.64628 1.01786 0.24356 0.0
C560 C 0.58041 1.0425 0.28557 0.0
C561 C 0.66891 1.04502 0.16618 0.0
O562 O 0.73114 0.15713 1.02501 0.0
O563 O 0.74257 0.11496 0.08478 0.0
C564 C 0.75941 0.14167 0.0546 0.0
O565 O 0.69734 0.04687 1.02753 0.0
O566 O 0.66941 0.20005 0.96694 0.0
O567 O 0.62359 0.13325 0.92007 0.0
O568 O 0.66043 0.06208 0.95838 0.0
C569 C 0.688 1.03933 0.97751 0.0
O570 O 0.58807 0.07169 0.07064 0.0
O571 O 0.57518 0.11429 1.01189 0.0
O572 O 0.6262 0.18654 0.06527 0.0
O573 O 0.65086 1.02294 0.11818 0.0
O574 O 0.69193 0.08959 0.17187 0.0
O575 O 0.65732 0.16578 0.13488 0.0
C576 C 0.68046 0.17228 0.87939 0.0
C577 C 0.71058 0.13977 0.87513 0.0
C578 C 0.71798 0.20534 0.81421 0.0
C579 C 0.74476 0.1406 0.8415 0.0
C580 C 0.68357 0.20446 0.84815 0.0
C581 C 0.74963 0.17428 0.81179 0.0
C582 C 0.64954 0.17511 0.92037 0.0
C583 C 0.55919 0.08757 0.04275 0.0
H584 H 0.59248 0.08137 0.17682 0.0
H585 H 0.62555 1.00156 0.31367 0.0
H586 H 0.54285 0.08308 0.24652 0.0
H587 H 0.67568 1.0005 0.24307 0.0
H588 H 0.70882 0.11494 0.89937 0.0
H589 H 0.72072 0.2313 0.79128 0.0
H590 H 0.76818 0.1158 0.84003 0.0
H591 H 0.6606 0.22989 0.85132 0.0
Eu592 Eu 0.45218 0.40763 0.332 0.0
Eu593 Eu 0.38005 0.30434 0.2757 0.0
C594 C 0.41836 0.37876 0.20731 0.0
C595 C 0.50049 0.53654 0.35113 0.0
C596 C 0.49384 0.5277 0.29663 0.0
C597 C 0.47046 0.61051 0.36175 0.0
C598 C 0.47265 0.55805 0.27498 0.0
C599 C 0.49108 0.57964 0.38348 0.0
C600 C 0.45859 0.59821 0.30747 0.0
C601 C 0.50202 0.49506 0.37261 0.0
O602 O 0.45022 0.2858 0.28367 0.0
O603 O 0.49243 0.35983 0.28201 0.0
C604 C 0.48759 0.31264 0.2738 0.0
O605 O 0.45337 0.36254 0.39016 0.0
O606 O 0.36236 0.23255 0.21861 0.0
O607 O 0.31306 0.25576 0.27189 0.0
O608 O 0.38137 0.3136 0.36356 0.0
C609 C 0.4167 0.33342 0.39953 0.0
O610 O 0.38161 0.41224 0.35457 0.0
O611 O 0.34062 0.36368 0.27914 0.0
O612 O 0.40155 0.33336 0.20764 0.0
O613 O 0.46319 0.47906 0.38914 0.0
O614 O 0.51881 0.45926 0.34462 0.0
O615 O 0.43115 0.41445 0.25106 0.0
C616 C 0.33269 0.17948 0.2663 0.0
C617 C 0.34019 0.19143 0.32114 0.0
C618 C 0.37265 0.11272 0.2603 0.0
C619 C 0.36727 0.16721 0.34493 0.0
C620 C 0.34646 0.13786 0.23626 0.0
C621 C 0.38571 0.12948 0.31441 0.0
C622 C 0.327 0.21853 0.24227 0.0
C623 C 0.34364 0.39778 0.32302 0.0
H624 H 0.50085 0.49477 0.27066 0.0
H625 H 0.46044 0.64166 0.38775 0.0
H626 H 0.4648 0.54838 0.23299 0.0
H627 H 0.49543 0.58689 0.42556 0.0
H628 H 0.32946 0.22284 0.34566 0.0
H629 H 0.38598 0.08302 0.23604 0.0
H630 H 0.37582 0.17975 0.38691 0.0
H631 H 0.34134 0.12806 0.19401 0.0
Eu632 Eu 0.65188 0.65811 0.08076 0.0
Eu633 Eu 0.67927 0.55328 0.03025 0.0
C634 C 0.74879 0.65383 1.02615 0.0
C635 C 0.65966 0.78614 0.09491 0.0
C636 C 0.67373 0.77232 0.04475 0.0
C637 C 0.69484 0.87066 0.10248 0.0
C638 C 0.69865 0.80685 1.02388 0.0
C639 C 0.67047 0.83545 0.12401 0.0
C640 C 0.7094 0.8564 0.05228 0.0
C641 C 0.64071 0.74705 0.11783 0.0
O642 O 0.7063 0.56743 0.11735 0.0
O643 O 0.68619 0.64093 0.15199 0.0
C644 C 0.70538 0.60458 0.15819 0.0
O645 O 0.59219 0.60727 0.09989 0.0
O646 O 0.72842 0.50469 1.02227 0.0
O647 O 0.65902 0.47654 0.98427 0.0
O648 O 0.60845 0.53365 0.05614 0.0
C649 C 0.58196 0.55931 0.08421 0.0
O650 O 0.61992 0.64062 0.99411 0.0
O651 O 0.64613 0.57051 0.95783 0.0
O652 O 0.74041 0.60578 1.01478 0.0
O653 O 0.60837 0.71226 0.088 0.0
O654 O 0.67245 0.72967 0.13783 0.0
O655 O 0.71996 0.67949 0.04948 0.0
C656 C 0.68858 0.43202 0.03549 0.0
C657 C 0.65821 0.44041 0.07402 0.0
C658 C 0.71091 0.36978 0.07163 0.0
C659 C 0.65427 0.41438 0.11097 0.0
C660 C 0.71493 0.39632 0.03433 0.0
C661 C 0.68081 0.37908 0.11071 0.0
C662 C 0.69621 0.46569 1.00238 0.0
C663 C 0.62342 0.60495 0.95238 0.0
H664 H 0.66633 0.73436 1.02188 0.0
H665 H 0.70239 0.90877 0.12502 0.0
H666 H 0.70875 0.79454 0.98493 0.0
H667 H 0.66075 0.8465 0.1633 0.0
H668 H 0.63818 0.46821 0.07674 0.0
H669 H 0.73163 0.34245 0.07015 0.0
H670 H 0.63065 0.42253 0.14019 0.0
H671 H 0.73917 0.38975 1.00552 0.0
Eu672 Eu 0.95085 0.3867 0.28531 0.0
Eu673 Eu 0.87029 0.32016 0.31661 0.0
C674 C 0.92424 0.42003 0.39848 0.0
C675 C 0.06854 0.44104 0.29713 0.0
C676 C 0.06952 0.45576 0.35185 0.0
C677 C 0.12683 0.39433 0.30496 0.0
C678 C 0.09621 0.4369 0.38237 0.0
C679 C 0.09956 0.41277 0.27436 0.0
C680 C 0.12387 0.40469 0.35897 0.0
C681 C 1.02543 0.43749 0.2659 0.0
O682 O 0.83592 0.38293 0.29571 0.0
O683 O 0.89861 0.43951 0.28951 0.0
C684 C 0.85357 0.42884 0.29302 0.0
O685 O 0.91058 0.342 0.20909 0.0
O686 O 0.84271 0.28886 0.37711 0.0
O687 O 0.80221 0.27273 0.30148 0.0
O688 O 0.88713 0.27608 0.2381 0.0
C689 C 0.90072 0.29449 0.20032 0.0
O690 O 0.98292 0.31811 0.29313 0.0
O691 O 0.9267 0.27381 0.32636 0.0
O692 O 0.88391 0.39181 0.38099 0.0
O693 O 1.00751 0.39318 0.23738 0.0
O694 O 0.99463 0.45813 0.29111 0.0
O695 O 0.95974 0.41105 0.37326 0.0
C696 C 0.76372 0.2879 0.37556 0.0
C697 C 0.76445 0.33825 0.38822 0.0
C698 C 0.68071 0.27094 0.37263 0.0
C699 C 0.72323 0.35417 0.38641 0.0
C700 C 0.72213 0.25468 0.37253 0.0
C701 C 0.68144 0.31977 0.37318 0.0
C702 C 0.80218 0.27085 0.35009 0.0
C703 C 0.96816 0.27776 0.30896 0.0
H704 H 1.04648 0.47816 0.37099 0.0
H705 H 0.14928 0.37096 0.28622 0.0
H706 H 0.09504 0.4476 0.42427 0.0
H707 H 0.09906 0.40083 0.23246 0.0
H708 H 0.79645 0.36447 0.39141 0.0
H709 H 0.64866 0.2438 0.36277 0.0
H710 H 0.72437 0.39204 0.38737 0.0
H711 H 0.7212 0.21573 0.36319 0.0
Eu712 Eu 0.16948 0.59038 0.59443 0.0
Eu713 Eu 0.15403 0.64032 0.50095 0.0
C714 C 0.13603 0.69275 0.61788 0.0
C715 C 0.13831 0.5407 0.70335 0.0
C716 C 0.10032 0.56267 0.7014 0.0
C717 C 0.1165 0.52187 0.78276 0.0
C718 C 0.07112 0.56524 0.74031 0.0
C719 C 0.14607 0.51946 0.74345 0.0
C720 C 0.07937 0.54569 0.78185 0.0
C721 C 0.17097 0.54435 0.66529 0.0
O722 O 0.23367 0.65956 0.52763 0.0
O723 O 0.24523 0.61465 0.58451 0.0
C724 C 0.26201 0.64267 0.55561 0.0
O725 O 0.19933 0.5481 0.52683 0.0
O726 O 0.17194 0.70529 0.47367 0.0
O727 O 0.12745 0.63924 0.42321 0.0
O728 O 0.16326 0.56543 0.45846 0.0
C729 C 0.19017 0.54162 0.47697 0.0
O730 O 0.09076 0.57203 0.57043 0.0
O731 O 0.07758 0.61552 0.51272 0.0
O732 O 0.12655 0.68619 0.56802 0.0
O733 O 0.1536 0.52275 0.61696 0.0
O734 O 0.19454 0.58882 0.67164 0.0
O735 O 0.16023 0.66623 0.63655 0.0
C736 C 0.18577 0.68097 0.38693 0.0
C737 C 0.21603 0.64864 0.38286 0.0
C738 C 0.22401 0.71504 0.32298 0.0
C739 C 0.25027 0.6496 0.34942 0.0
C740 C 0.18944 0.71393 0.35663 0.0
C741 C 0.25513 0.68334 0.31986 0.0
C742 C 0.15339 0.68186 0.42617 0.0
C743 C 0.06171 0.58807 0.54292 0.0
H744 H 0.09421 0.57955 0.67073 0.0
H745 H 0.12353 0.50663 0.81452 0.0
H746 H 1.04267 0.58359 0.73836 0.0
H747 H 0.17553 0.50252 0.74518 0.0
H748 H 0.21389 0.62333 0.40656 0.0
H749 H 0.22687 0.74118 0.30026 0.0
H750 H 0.2734 0.62447 0.34756 0.0
H751 H 0.16642 0.73931 0.35983 0.0
Eu752 Eu 0.86963 0.87679 0.32238 0.0
Eu753 Eu 0.9542 0.8305 0.29028 0.0
C754 C 0.86117 0.75697 0.31561 0.0
C755 C 0.76438 0.89529 0.38596 0.0
C756 C 0.77945 0.8789 0.42772 0.0
C757 C 0.6861 0.87921 0.40836 0.0
C758 C 0.74827 0.86482 0.46105 0.0
C759 C 0.71746 0.89439 0.37579 0.0
C760 C 0.70152 0.86538 0.45185 0.0
C761 C 0.79709 0.91041 0.35123 0.0
O762 O 0.92434 0.83358 0.21135 0.0
O763 O 0.85336 0.84477 0.23479 0.0
C764 C 0.88135 0.83503 0.19875 0.0
O765 O 0.92114 0.94653 0.31263 0.0
O766 O 0.98827 0.77965 0.23826 0.0
O767 O 1.02216 0.82095 0.31496 0.0
O768 O 0.98049 0.90986 0.28331 0.0
C769 C 0.96288 0.9502 0.2957 0.0
O770 O 0.90035 0.87118 0.39979 0.0
O771 O 0.97252 0.8723 0.37571 0.0
O772 O 0.90302 0.76093 0.2996 0.0
O773 O 0.83884 0.932 0.37289 0.0
O774 O 0.79681 0.87732 0.30737 0.0
O775 O 0.84343 0.79703 0.32754 0.0
C776 C 0.06866 0.80491 0.24757 0.0
C777 C 0.07123 0.83655 0.21566 0.0
C778 C 0.14773 0.79809 0.23631 0.0
C779 C 0.11166 0.84802 0.19316 0.0
C780 C 0.10724 0.7866 0.25884 0.0
C781 C 0.1495 0.82752 0.20206 0.0
C782 C 1.0261 0.79166 0.26996 0.0
C783 C 0.94467 0.87698 0.41236 0.0
H784 H 0.81554 0.87841 0.43559 0.0
H785 H 0.65017 0.88067 0.40104 0.0
H786 H 0.76079 0.85485 0.49472 0.0
H787 H 0.70522 0.90601 0.34315 0.0
H788 H 1.04178 0.85163 0.20747 0.0
H789 H 0.17721 0.78309 0.24455 0.0
H790 H 0.11276 0.87131 0.16727 0.0
H791 H 0.1058 0.76287 0.28429 0.0
Eu792 Eu 0.9633 0.39128 0.78274 0.0
Eu793 Eu 0.87419 0.35587 0.83881 0.0
C794 C 0.86164 0.40381 0.74521 0.0
C795 C 1.0056 0.44125 0.68624 0.0
C796 C 0.97992 0.47768 0.70396 0.0
C797 C 0.96985 0.42713 0.5983 0.0
C798 C 0.94947 0.4884 0.66952 0.0
C799 C 1.00141 0.41727 0.63269 0.0
C800 C 0.94284 0.46187 0.61687 0.0
C801 C 1.0223 0.41758 0.72382 0.0
O802 O 0.86589 0.30866 0.75638 0.0
O803 O 0.94196 0.30874 0.75811 0.0
C804 C 0.89939 0.28811 0.73823 0.0
O805 O 0.99369 0.38518 0.85766 0.0
O806 O 0.82047 0.29528 0.84395 0.0
O807 O 0.82933 0.36541 0.90193 0.0
O808 O 0.93397 0.32504 0.86376 0.0
C809 C 0.97606 0.35108 0.8789 0.0
O810 O 0.9459 0.46002 0.83355 0.0
O811 O 0.9126 0.42592 0.89426 0.0
O812 O 0.84521 0.39728 0.78843 0.0
O813 O 1.0249 0.44156 0.77309 0.0
O814 O 1.0015 0.37188 0.71498 0.0
O815 O 0.90291 0.39777 0.73384 0.0
C816 C 0.82813 0.29447 0.92986 0.0
C817 C 0.87397 0.30903 0.95339 0.0
C818 C 0.82373 0.21537 0.94575 0.0
C819 C 0.89501 0.27626 0.97108 0.0
C820 C 0.80237 0.24885 0.92974 0.0
C821 C 0.87081 0.22823 0.96455 0.0
C822 C 0.81406 0.31814 0.89123 0.0
C823 C 0.93319 0.46398 0.88066 0.0
H824 H 0.9806 0.49566 0.74508 0.0
H825 H 0.96634 0.40729 0.5573 0.0
H826 H 0.92957 0.51593 0.6845 0.0
H827 H 1.01978 0.38824 0.61815 0.0
H828 H 0.89466 0.34444 0.95458 0.0
H829 H 0.80343 0.17949 0.9434 0.0
H830 H 0.93066 0.28785 0.98801 0.0
H831 H 0.76665 0.23818 0.91401 0.0
Eu832 Eu 0.95247 0.90703 0.83051 0.0
Eu833 Eu 0.8792 0.80465 0.77464 0.0
C834 C 0.91782 0.8787 0.70598 0.0
C835 C 1.00176 1.03538 0.84973 0.0
C836 C 0.99152 0.07803 0.88207 0.0
C837 C 0.97298 0.05621 0.77356 0.0
C838 C 0.96987 0.10818 0.86033 0.0
C839 C 0.99516 1.02657 0.79523 0.0
C840 C 0.95792 0.09565 0.80606 0.0
C841 C 1.0034 0.99385 0.87107 0.0
O842 O 0.94908 0.78498 0.78175 0.0
O843 O 0.99199 0.8587 0.78015 0.0
C844 C 0.98675 0.8115 0.77199 0.0
O845 O 0.95337 0.86163 0.88835 0.0
O846 O 0.86016 0.73279 0.71777 0.0
O847 O 0.8117 0.75722 0.77159 0.0
O848 O 0.88083 0.81389 0.86246 0.0
C849 C 0.91645 0.83314 0.89809 0.0
O850 O 0.88238 0.91294 0.85401 0.0
O851 O 0.84062 0.86484 0.77887 0.0
O852 O 0.90045 0.83343 0.70637 0.0
O853 O 0.9648 0.97821 0.88827 0.0
O854 O 1.01957 0.95781 0.84258 0.0
O855 O 0.93133 0.91426 0.74973 0.0
C856 C 0.83006 0.68036 0.766 0.0
C857 C 0.83764 0.69239 0.82086 0.0
C858 C 0.8706 0.61408 0.76002 0.0
C859 C 0.86528 0.66863 0.84462 0.0
C860 C 0.84382 0.63872 0.73603 0.0
C861 C 0.88414 0.63126 0.81404 0.0
C862 C 0.82485 0.71951 0.74188 0.0
C863 C 0.84418 0.89893 0.82289 0.0
H864 H 0.99584 0.08526 0.92415 0.0
H865 H 0.96515 0.04645 0.73156 0.0
H866 H 0.95915 0.13886 0.88632 0.0
H867 H 1.00282 0.994 0.76924 0.0
H868 H 0.8268 0.72375 0.84534 0.0
H869 H 0.8842 0.58465 0.73567 0.0
H870 H 0.87417 0.6815 0.88653 0.0
H871 H 0.83854 0.62877 0.69378 0.0
Eu872 Eu 0.68615 0.65788 0.56464 0.0
Eu873 Eu 0.63419 0.55036 0.53894 0.0
C874 C 0.69384 0.58823 0.4473 0.0
C875 C 0.67866 0.78428 0.58656 0.0
C876 C 0.64013 0.77065 0.54873 0.0
C877 C 0.64508 0.85009 0.63623 0.0
C878 C 0.60416 0.79543 0.55525 0.0
C879 C 0.6811 0.82452 0.63026 0.0
C880 C 0.60643 0.83531 0.5987 0.0
C881 C 0.71173 0.75174 0.58314 0.0
O882 O 0.71201 0.54735 0.55567 0.0
O883 O 0.75172 0.62516 0.56502 0.0
C884 C 0.75208 0.57838 0.55808 0.0
O885 O 0.66245 0.65069 0.64579 0.0
O886 O 0.59706 0.48359 0.48094 0.0
O887 O 0.6152 0.48285 0.56045 0.0
O888 O 0.61074 0.57794 0.62204 0.0
C889 C 0.62826 0.61952 0.65799 0.0
O890 O 0.60915 0.65938 0.54224 0.0
O891 O 0.56955 0.58506 0.54446 0.0
O892 O 0.65795 0.55848 0.45837 0.0
O893 O 0.71304 0.73006 0.62021 0.0
O894 O 0.71042 0.72146 0.53709 0.0
O895 O 0.71257 0.62875 0.48391 0.0
C896 C 0.62458 0.41637 0.49551 0.0
C897 C 0.67217 0.42818 0.4916 0.0
C898 C 0.63279 0.33809 0.50664 0.0
C899 C 0.70051 0.39762 0.50134 0.0
C900 C 0.60455 0.36993 0.49963 0.0
C901 C 0.68111 0.35357 0.51167 0.0
C902 C 0.6007 0.45663 0.51262 0.0
C903 C 0.56928 0.63061 0.54522 0.0
H904 H 0.63683 0.7398 0.51446 0.0
H905 H 0.64742 0.88113 0.66999 0.0
H906 H 0.57435 0.78329 0.52624 0.0
H907 H 0.71006 0.83526 0.66023 0.0
H908 H 0.68802 0.46361 0.48742 0.0
H909 H 0.61712 0.30408 0.5143 0.0
H910 H 0.73767 0.40993 0.50437 0.0
H911 H 0.56789 0.36037 0.50297 0.0
Eu912 Eu 0.21352 0.59961 0.99947 0.0
Eu913 Eu 0.15729 0.65201 0.09033 0.0
C914 C 0.2415 0.60668 0.11915 0.0
C915 C 0.29281 0.52379 0.96242 0.0
C916 C 0.27301 0.49629 0.99514 0.0
C917 C 0.3688 0.51819 0.99534 0.0
C918 C 0.30076 0.48016 1.02771 0.0
C919 C 0.34096 0.53423 0.96251 0.0
C920 C 0.34881 0.49139 1.02846 0.0
C921 C 0.26483 0.55207 0.9405 0.0
O922 O 0.22766 0.70209 0.09765 0.0
O923 O 0.23553 0.68008 1.01087 0.0
C924 C 0.24884 0.70974 0.05759 0.0
O925 O 0.15193 0.61234 0.95598 0.0
O926 O 0.14342 0.71501 0.14715 0.0
O927 O 0.09763 0.64465 0.13515 0.0
O928 O 0.13497 0.67477 1.02067 0.0
C929 C 0.1297 0.64798 0.97214 0.0
O930 O 0.17206 0.54228 0.03095 0.0
O931 O 0.11235 0.58062 0.0439 0.0
O932 O 0.1998 0.61236 0.1303 0.0
O933 O 0.21999 0.53645 0.93594 0.0
O934 O 0.27715 0.59919 0.96193 0.0
O935 O 0.25657 0.61111 0.0751 0.0
C936 C 0.0637 0.71059 0.13012 0.0
C937 C 0.07344 0.7448 0.1012 0.0
C938 C 0.98166 0.7018 0.1057 0.0
C939 C 1.03796 0.75828 0.07622 0.0
C940 C 1.01742 0.68903 0.13202 0.0
C941 C 0.9919 0.73679 0.07794 0.0
C942 C 0.10182 0.69204 0.15037 0.0
C943 C 0.12825 0.54064 0.03578 0.0
H944 H 0.23607 0.48858 0.99714 0.0
H945 H 0.40592 0.52663 0.99468 0.0
H946 H 0.28463 0.45931 0.05269 0.0
H947 H 0.35708 0.55662 0.93895 0.0
H948 H 0.10861 0.76106 0.09721 0.0
H949 H 0.94614 0.68542 0.10821 0.0
H950 H 1.04652 0.7856 0.05534 0.0
H951 H 1.00905 0.66173 0.15296 0.0
loop_
_geom_bond_atom_site_label_1
_geom_bond_atom_site_label_2
_geom_bond_distance
_geom_bond_site_symmetry_2
_ccdc_geom_bond_type
C0 O1 1.160 . S
C0 O7 1.185 . S
O1 C0 1.160 . S
O2 Zn3 1.899 . S
O2 C10 1.284 . S
Zn3 O2 1.899 . S
Zn3 O4 2.032 . S
Zn3 O7 2.086 . S
Zn3 O12 1.977 . S
O4 Zn3 2.032 . S
O4 C8 1.278 . S
C5 O6 1.203 . S
C5 O12 1.267 . S
O6 C5 1.203 . S
O7 C0 1.185 . S
O7 Zn3 2.086 . S
C8 O4 1.278 . S
C8 O9 1.211 . S
O9 C8 1.211 . S
C10 O2 1.284 . S
C10 O11 1.273 . S
O11 C10 1.273 . S
O12 Zn3 1.977 . S
O12 C5 1.267 . S
C13 O14 1.160 . S
C13 O20 1.185 . S
O14 C13 1.160 . S
O15 Zn16 1.898 . S
O15 C23 1.284 . S
Zn16 O15 1.898 . S
Zn16 O17 2.036 . S
Zn16 O20 2.095 . S
Zn16 O25 1.969 1_655 S
O17 Zn16 2.036 . S
O17 C21 1.278 1_655 S
C18 O19 1.203 . S
C18 O25 1.267 . S
O19 C18 1.203 . S
O20 C13 1.185 . S
O20 Zn16 2.095 . S
C21 O17 1.278 1_455 S
C21 O22 1.211 . S
O22 C21 1.211 . S
C23 O15 1.284 . S
C23 O24 1.273 1_655 S
O24 C23 1.273 1_455 S
O25 Zn16 1.969 1_455 S
O25 C18 1.267 . S
C26 O27 1.160 . S
C26 O33 1.185 . S
O27 C26 1.160 . S
O28 Zn29 1.899 . S
O28 C36 1.284 . S
Zn29 O28 1.899 . S
Zn29 O30 2.032 . S
Zn29 O33 2.086 . S
Zn29 O38 1.977 . S
O30 Zn29 2.032 . S
O30 C34 1.278 1_556 S
C31 O32 1.203 . S
C31 O38 1.267 . S
O32 C31 1.203 . S
O33 C26 1.185 . S
O33 Zn29 2.086 . S
C34 O30 1.278 1_554 S
C34 O35 1.211 . S
O35 C34 1.211 . S
C36 O28 1.284 . S
C36 O37 1.273 1_556 S
O37 C36 1.273 1_554 S
O38 Zn29 1.977 . S
O38 C31 1.267 . S
C39 O40 1.160 . S
C39 O46 1.185 . S
O40 C39 1.160 . S
O41 Zn42 1.899 . S
O41 C49 1.284 . S
Zn42 O41 1.899 . S
Zn42 O43 2.032 . S
Zn42 O46 2.086 . S
Zn42 O51 1.977 . S
O43 Zn42 2.032 . S
O43 C47 1.278 . S
C44 O45 1.203 . S
C44 O51 1.267 . S
O45 C44 1.203 . S
O46 C39 1.185 . S
O46 Zn42 2.086 . S
C47 O43 1.278 . S
C47 O48 1.211 . S
O48 C47 1.211 . S
C49 O41 1.284 . S
C49 O50 1.273 . S
O50 C49 1.273 . S
O51 Zn42 1.977 . S
O51 C44 1.267 . S
C52 O53 1.160 . S
C52 O59 1.185 . S
O53 C52 1.160 . S
O54 Zn55 1.899 . S
O54 C62 1.284 . S
Zn55 O54 1.899 . S
Zn55 O56 2.032 . S
Zn55 O59 2.086 . S
Zn55 O64 1.977 . S
O56 Zn55 2.032 . S
O56 C60 1.278 . S
C57 O58 1.203 . S
C57 O64 1.267 . S
O58 C57 1.203 . S
O59 C52 1.185 . S
O59 Zn55 2.086 . S
C60 O56 1.278 . S
C60 O61 1.211 . S
O61 C60 1.211 . S
C62 O54 1.284 . S
C62 O63 1.273 . S
O63 C62 1.273 . S
O64 Zn55 1.977 . S
O64 C57 1.267 . S
C65 O66 1.160 . S
C65 O72 1.185 . S
O66 C65 1.160 . S
O67 Zn68 1.899 . S
O67 C75 1.284 . S
Zn68 O67 1.899 . S
Zn68 O69 2.032 . S
Zn68 O72 2.086 . S
Zn68 O77 1.977 . S
O69 Zn68 2.032 . S
O69 C73 1.278 . S
C70 O71 1.203 . S
C70 O77 1.267 . S
O71 C70 1.203 . S
O72 C65 1.185 . S
O72 Zn68 2.086 . S
C73 O69 1.278 . S
C73 O74 1.211 . S
O74 C73 1.211 . S
C75 O67 1.284 . S
C75 O76 1.273 . S
O76 C75 1.273 . S
O77 Zn68 1.977 . S
O77 C70 1.267 . S
C78 O79 1.160 . S
C78 O85 1.185 . S
O79 C78 1.160 . S
O80 Zn81 1.899 . S
O80 C88 1.284 . S
Zn81 O80 1.899 . S
Zn81 O82 2.032 . S
Zn81 O85 2.086 . S
Zn81 O90 1.977 . S
O82 Zn81 2.032 . S
O82 C86 1.278 . S
C83 O84 1.203 . S
C83 O90 1.267 . S
O84 C83 1.203 . S
O85 C78 1.185 . S
O85 Zn81 2.086 . S
C86 O82 1.278 . S
C86 O87 1.211 . S
O87 C86 1.211 . S
C88 O80 1.284 . S
C88 O89 1.273 . S
O89 C88 1.273 . S
O90 Zn81 1.977 . S
O90 C83 1.267 . S
C91 O92 1.160 . S
C91 O98 1.185 . S
O92 C91 1.160 . S
O93 Zn94 1.899 . S
O93 C101 1.284 . S
Zn94 O93 1.899 . S
Zn94 O95 2.032 . S
Zn94 O98 2.086 . S
Zn94 O103 1.963 1_455 S
O95 Zn94 2.032 . S
O95 C99 1.278 . S
C96 O97 1.203 . S
C96 O103 1.284 . S
O97 C96 1.203 . S
O98 C91 1.185 . S
O98 Zn94 2.086 . S
C99 O95 1.278 . S
C99 O100 1.211 . S
O100 C99 1.211 . S
C101 O93 1.284 . S
C101 O102 1.273 1_556 S
O102 C101 1.273 1_554 S
O103 Zn94 1.963 1_655 S
O103 C96 1.284 . S
C104 O105 1.160 . S
C104 O111 1.185 . S
O105 C104 1.160 . S
O106 Zn107 1.899 1_565 S
O106 C114 1.284 . S
Zn107 O106 1.899 1_545 S
Zn107 O108 2.032 . S
Zn107 O111 2.086 . S
Zn107 O116 1.977 1_545 S
O108 Zn107 2.032 . S
O108 C112 1.278 . S
C109 O110 1.203 . S
C109 O116 1.267 . S
O110 C109 1.203 . S
O111 C104 1.185 . S
O111 Zn107 2.086 . S
C112 O108 1.278 . S
C112 O113 1.211 1_545 S
O113 C112 1.211 1_565 S
C114 O106 1.284 . S
C114 O115 1.273 . S
O115 C114 1.273 . S
O116 Zn107 1.977 1_565 S
O116 C109 1.267 . S
C117 O118 1.160 . S
C117 O124 1.185 . S
O118 C117 1.160 . S
O119 Zn120 1.899 . S
O119 C127 1.284 . S
Zn120 O119 1.899 . S
Zn120 O121 2.032 . S
Zn120 O124 2.086 . S
Zn120 O129 1.977 . S
O121 Zn120 2.032 . S
O121 C125 1.278 . S
C122 O123 1.203 . S
C122 O129 1.267 . S
O123 C122 1.203 . S
O124 C117 1.185 . S
O124 Zn120 2.086 . S
C125 O121 1.278 . S
C125 O126 1.211 . S
O126 C125 1.211 . S
C127 O119 1.284 . S
C127 O128 1.273 . S
O128 C127 1.273 . S
O129 Zn120 1.977 . S
O129 C122 1.267 . S
C130 O131 1.160 . S
C130 O137 1.191 . S
O131 C130 1.160 . S
O132 Zn133 1.899 . S
O132 C140 1.284 . S
Zn133 O132 1.899 . S
Zn133 O134 2.032 . S
Zn133 O137 2.081 1_545 S
Zn133 O142 1.977 . S
O134 Zn133 2.032 . S
O134 C138 1.278 . S
C135 O136 1.203 . S
C135 O142 1.267 . S
O136 C135 1.203 . S
O137 C130 1.191 . S
O137 Zn133 2.081 1_565 S
C138 O134 1.278 . S
C138 O139 1.211 . S
O139 C138 1.211 . S
C140 O132 1.284 . S
C140 O141 1.273 . S
O141 C140 1.273 . S
O142 Zn133 1.977 . S
O142 C135 1.267 . S
C143 O144 1.160 . S
C143 O150 1.185 . S
O144 C143 1.160 . S
O145 Zn146 1.899 1_565 S
O145 C153 1.284 . S
Zn146 O145 1.899 1_545 S
Zn146 O147 2.032 1_544 S
Zn146 O150 2.086 . S
Zn146 O155 1.977 . S
O147 Zn146 2.032 1_566 S
O147 C151 1.278 . S
C148 O149 1.203 . S
C148 O155 1.267 . S
O149 C148 1.203 . S
O150 C143 1.185 . S
O150 Zn146 2.086 . S
C151 O147 1.278 . S
C151 O152 1.211 . S
O152 C151 1.211 . S
C153 O145 1.284 . S
C153 O154 1.273 . S
O154 C153 1.273 . S
O155 Zn146 1.977 . S
O155 C148 1.267 . S
C156 O157 1.160 . S
C156 O163 1.185 . S
O157 C156 1.160 . S
O158 Zn159 1.899 . S
O158 C166 1.284 . S
Zn159 O158 1.899 . S
Zn159 O160 2.032 1_554 S
Zn159 O163 2.086 . S
Zn159 O168 1.977 . S
O160 Zn159 2.032 1_556 S
O160 C164 1.278 . S
C161 O162 1.203 . S
C161 O168 1.267 . S
O162 C161 1.203 . S
O163 C156 1.185 . S
O163 Zn159 2.086 . S
C164 O160 1.278 . S
C164 O165 1.211 . S
O165 C164 1.211 . S
C166 O158 1.284 . S
C166 O167 1.273 . S
O167 C166 1.273 . S
O168 Zn159 1.977 . S
O168 C161 1.267 . S
C169 O170 1.160 . S
C169 O176 1.185 . S
O170 C169 1.160 . S
O171 Zn172 1.899 . S
O171 C179 1.284 . S
Zn172 O171 1.899 . S
Zn172 O173 2.032 . S
Zn172 O176 2.086 . S
Zn172 O181 1.977 . S
O173 Zn172 2.032 . S
O173 C177 1.278 1_554 S
C174 O175 1.203 . S
C174 O181 1.267 . S
O175 C174 1.203 . S
O176 C169 1.185 . S
O176 Zn172 2.086 . S
C177 O173 1.278 1_556 S
C177 O178 1.211 . S
O178 C177 1.211 . S
C179 O171 1.284 . S
C179 O180 1.273 . S
O180 C179 1.273 . S
O181 Zn172 1.977 . S
O181 C174 1.267 . S
C182 O183 1.160 . S
C182 O189 1.185 . S
O183 C182 1.160 . S
O184 Zn185 1.899 . S
O184 C192 1.284 . S
Zn185 O184 1.899 . S
Zn185 O186 2.032 . S
Zn185 O189 2.086 . S
Zn185 O194 1.977 . S
O186 Zn185 2.032 . S
O186 C190 1.278 . S
C187 O188 1.203 . S
C187 O194 1.267 . S
O188 C187 1.203 . S
O189 C182 1.185 . S
O189 Zn185 2.086 . S
C190 O186 1.278 . S
C190 O191 1.211 . S
O191 C190 1.211 . S
C192 O184 1.284 . S
C192 O193 1.273 . S
O193 C192 1.273 . S
O194 Zn185 1.977 . S
O194 C187 1.267 . S
C195 O196 1.160 . S
C195 O202 1.185 . S
O196 C195 1.160 . S
O197 Zn198 1.899 . S
O197 C205 1.284 . S
Zn198 O197 1.899 . S
Zn198 O199 2.032 . S
Zn198 O202 2.086 . S
Zn198 O207 1.977 . S
O199 Zn198 2.032 . S
O199 C203 1.278 . S
C200 O201 1.203 1_655 S
C200 O207 1.267 . S
O201 C200 1.203 1_455 S
O202 C195 1.185 . S
O202 Zn198 2.086 . S
C203 O199 1.278 . S
C203 O204 1.211 . S
O204 C203 1.211 . S
C205 O197 1.284 . S
C205 O206 1.273 . S
O206 C205 1.273 . S
O207 Zn198 1.977 . S
O207 C200 1.267 . S
C208 O209 1.160 . S
C208 O215 1.185 . S
O209 C208 1.160 . S
O210 Zn211 1.899 . S
O210 C218 1.284 1_655 S
Zn211 O210 1.899 . S
Zn211 O212 2.032 1_655 S
Zn211 O215 2.086 . S
Zn211 O220 1.977 . S
O212 Zn211 2.032 1_455 S
O212 C216 1.278 . S
C213 O214 1.203 . S
C213 O220 1.267 1_565 S
O214 C213 1.203 . S
O215 C208 1.185 . S
O215 Zn211 2.086 . S
C216 O212 1.278 . S
C216 O217 1.211 . S
O217 C216 1.211 . S
C218 O210 1.284 1_455 S
C218 O219 1.273 . S
O219 C218 1.273 . S
O220 Zn211 1.977 . S
O220 C213 1.267 1_545 S
C221 O222 1.160 . S
C221 O228 1.185 . S
O222 C221 1.160 . S
O223 Zn224 1.899 . S
O223 C231 1.284 . S
Zn224 O223 1.899 . S
Zn224 O225 2.032 . S
Zn224 O228 2.086 . S
Zn224 O233 1.977 . S
O225 Zn224 2.032 . S
O225 C229 1.278 . S
C226 O227 1.203 . S
C226 O233 1.267 . S
O227 C226 1.203 . S
O228 C221 1.185 . S
O228 Zn224 2.086 . S
C229 O225 1.278 . S
C229 O230 1.211 . S
O230 C229 1.211 . S
C231 O223 1.284 . S
C231 O232 1.273 . S
O232 C231 1.273 . S
O233 Zn224 1.977 . S
O233 C226 1.267 . S
C234 O235 1.160 . S
C234 O241 1.185 . S
O235 C234 1.160 . S
O236 Zn237 1.899 . S
O236 C244 1.284 . S
Zn237 O236 1.899 . S
Zn237 O238 2.032 . S
Zn237 O241 2.086 . S
Zn237 O246 1.977 . S
O238 Zn237 2.032 . S
O238 C242 1.278 . S
C239 O240 1.203 . S
C239 O246 1.267 . S
O240 C239 1.203 . S
O241 C234 1.185 . S
O241 Zn237 2.086 . S
C242 O238 1.278 . S
C242 O243 1.211 . S
O243 C242 1.211 . S
C244 O236 1.284 . S
C244 O245 1.273 . S
O245 C244 1.273 . S
O246 Zn237 1.977 . S
O246 C239 1.267 . S
C247 O248 1.160 . S
C247 O254 1.185 . S
O248 C247 1.160 . S
O249 Zn250 1.899 . S
O249 C257 1.284 . S
Zn250 O249 1.899 . S
Zn250 O251 2.032 . S
Zn250 O254 2.086 . S
Zn250 O259 1.977 . S
O251 Zn250 2.032 . S
O251 C255 1.278 . S
C252 O253 1.203 . S
C252 O259 1.267 . S
O253 C252 1.203 . S
O254 C247 1.185 . S
O254 Zn250 2.086 . S
C255 O251 1.278 . S
C255 O256 1.211 . S
O256 C255 1.211 . S
C257 O249 1.284 . S
C257 O258 1.273 . S
O258 C257 1.273 . S
O259 Zn250 1.977 . S
O259 C252 1.267 . S
C260 O261 1.160 . S
C260 O267 1.185 1_554 S
O261 C260 1.160 . S
O262 Zn263 1.899 . S
O262 C270 1.284 . S
Zn263 O262 1.899 . S
Zn263 O264 2.032 1_554 S
Zn263 O267 2.086 1_554 S
Zn263 O272 1.977 1_554 S
O264 Zn263 2.032 1_556 S
O264 C268 1.278 . S
C265 O266 1.203 . S
C265 O272 1.267 1_554 S
O266 C265 1.203 . S
O267 C260 1.185 1_556 S
O267 Zn263 2.086 1_556 S
C268 O264 1.278 . S
C268 O269 1.211 . S
O269 C268 1.211 . S
C270 O262 1.284 . S
C270 O271 1.273 . S
O271 C270 1.273 . S
O272 Zn263 1.977 1_556 S
O272 C265 1.267 1_556 S
C273 O274 1.160 . S
C273 O280 1.185 . S
O274 C273 1.160 . S
O275 Zn276 1.899 . S
O275 C283 1.284 1_655 S
Zn276 O275 1.899 . S
Zn276 O277 2.032 1_655 S
Zn276 O280 2.086 . S
Zn276 O285 1.977 . S
O277 Zn276 2.032 1_455 S
O277 C281 1.278 . S
C278 O279 1.203 . S
C278 O285 1.267 . S
O279 C278 1.203 . S
O280 C273 1.185 . S
O280 Zn276 2.086 . S
C281 O277 1.278 . S
C281 O282 1.211 . S
O282 C281 1.211 . S
C283 O275 1.284 1_455 S
C283 O284 1.273 . S
O284 C283 1.273 . S
O285 Zn276 1.977 . S
O285 C278 1.267 . S
C286 O287 1.160 . S
C286 O293 1.185 . S
O287 C286 1.160 . S
O288 Zn289 1.899 . S
O288 C296 1.284 . S
Zn289 O288 1.899 . S
Zn289 O290 2.032 . S
Zn289 O293 2.086 . S
Zn289 O298 1.977 . S
O290 Zn289 2.032 . S
O290 C294 1.278 . S
C291 O292 1.203 . S
C291 O298 1.267 . S
O292 C291 1.203 . S
O293 C286 1.185 . S
O293 Zn289 2.086 . S
C294 O290 1.278 . S
C294 O295 1.211 . S
O295 C294 1.211 . S
C296 O288 1.284 . S
C296 O297 1.273 . S
O297 C296 1.273 . S
O298 Zn289 1.977 . S
O298 C291 1.267 . S
C299 O300 1.160 . S
C299 O306 1.185 . S
O300 C299 1.160 . S
O301 Zn302 1.899 . S
O301 C309 1.284 . S
Zn302 O301 1.899 . S
Zn302 O303 2.032 . S
Zn302 O306 2.086 . S
Zn302 O311 1.977 . S
O303 Zn302 2.032 . S
O303 C307 1.278 . S
C304 O305 1.203 . S
C304 O311 1.267 . S
O305 C304 1.203 . S
O306 C299 1.185 . S
O306 Zn302 2.086 . S
C307 O303 1.278 . S
C307 O308 1.211 . S
O308 C307 1.211 . S
C309 O301 1.284 . S
C309 O310 1.273 . S
O310 C309 1.273 . S
O311 Zn302 1.977 . S
O311 C304 1.267 . S
Eu312 C321 2.828 . S
Eu312 O323 2.392 . S
Eu312 O325 2.418 . S
Eu312 O330 2.373 . S
Eu312 O333 2.488 . S
Eu312 O334 2.471 1_554 S
Eu312 O335 2.349 1_554 S
Eu313 O322 2.373 1_565 S
Eu313 O326 2.488 1_554 S
Eu313 O327 2.471 . S
Eu313 O328 2.349 1_565 S
Eu313 O331 2.392 1_564 S
Eu313 O332 2.418 1_554 S
Eu313 C342 2.828 . S
C314 O332 1.244 1_545 S
C314 O335 1.265 . S
C315 C316 1.379 1_554 S
C315 C319 1.373 . S
C315 C321 1.505 . S
C316 C315 1.379 1_556 S
C316 C318 1.369 . S
C316 H344 0.930 . S
C317 C319 1.383 . S
C317 C320 1.382 . S
C317 H345 0.930 . S
C318 C316 1.369 . S
C318 C320 1.392 1_556 S
C318 H346 0.930 . S
C319 C315 1.373 . S
C319 C317 1.383 . S
C319 H347 0.931 . S
C320 C317 1.382 . S
C320 C318 1.392 1_554 S
C321 Eu312 2.828 . S
C321 C315 1.505 . S
C321 O333 1.249 . S
C321 O334 1.244 1_554 S
O322 Eu313 2.373 1_545 S
O322 C324 1.258 . S
O323 Eu312 2.392 . S
O323 C324 1.242 . S
C324 O322 1.258 . S
C324 O323 1.242 . S
O325 Eu312 2.418 . S
O325 C329 1.244 . S
O326 Eu313 2.488 1_556 S
O326 C342 1.249 1_556 S
O327 Eu313 2.471 . S
O327 C342 1.244 . S
O328 Eu313 2.349 1_545 S
O328 C329 1.265 . S
C329 O325 1.244 . S
C329 O328 1.265 . S
O330 Eu312 2.373 . S
O330 C343 1.258 . S
O331 Eu313 2.392 1_546 S
O331 C343 1.242 1_556 S
O332 Eu313 2.418 1_556 S
O332 C314 1.244 1_565 S
O333 Eu312 2.488 . S
O333 C321 1.249 . S
O334 Eu312 2.471 1_556 S
O334 C321 1.244 1_556 S
O335 Eu312 2.349 1_556 S
O335 C314 1.265 . S
C336 C337 1.379 . S
C336 C340 1.373 1_554 S
C336 C342 1.505 . S
C337 C336 1.379 . S
C337 C339 1.369 . S
C337 H348 0.930 . S
C338 C340 1.383 1_554 S
C338 C341 1.382 . S
C338 H349 0.930 1_554 S
C339 C337 1.369 . S
C339 C341 1.392 . S
C339 H350 0.930 . S
C340 C336 1.373 1_556 S
C340 C338 1.383 1_556 S
C340 H351 0.931 . S
C341 C338 1.382 . S
C341 C339 1.392 . S
C342 Eu313 2.828 . S
C342 O326 1.249 1_554 S
C342 O327 1.244 . S
C342 C336 1.505 . S
C343 O330 1.258 . S
C343 O331 1.242 1_554 S
H344 C316 0.930 . S
H345 C317 0.930 . S
H346 C318 0.930 . S
H347 C319 0.931 . S
H348 C337 0.930 . S
H349 C338 0.930 1_556 S
H350 C339 0.930 . S
H351 C340 0.931 . S
Eu352 C361 2.828 . S
Eu352 O363 2.392 . S
Eu352 O365 2.418 . S
Eu352 O370 2.373 . S
Eu352 O373 2.488 . S
Eu352 O374 2.471 . S
Eu352 O375 2.349 . S
Eu353 O362 2.373 . S
Eu353 O366 2.488 . S
Eu353 O367 2.471 . S
Eu353 O368 2.349 . S
Eu353 O371 2.392 . S
Eu353 O372 2.418 . S
Eu353 C382 2.828 . S
C354 O372 1.244 . S
C354 O375 1.265 . S
C355 C356 1.379 . S
C355 C359 1.373 . S
C355 C361 1.505 . S
C356 C355 1.379 . S
C356 C358 1.369 . S
C356 H384 0.930 . S
C357 C359 1.383 . S
C357 C360 1.382 . S
C357 H385 0.930 . S
C358 C356 1.369 . S
C358 C360 1.392 . S
C358 H386 0.930 . S
C359 C355 1.373 . S
C359 C357 1.383 . S
C359 H387 0.931 . S
C360 C357 1.382 . S
C360 C358 1.392 . S
C361 Eu352 2.828 . S
C361 C355 1.505 . S
C361 O373 1.249 . S
C361 O374 1.244 . S
O362 Eu353 2.373 . S
O362 C364 1.258 . S
O363 Eu352 2.392 . S
O363 C364 1.242 . S
C364 O362 1.258 . S
C364 O363 1.242 . S
O365 Eu352 2.418 . S
O365 C369 1.244 . S
O366 Eu353 2.488 . S
O366 C382 1.249 . S
O367 Eu353 2.471 . S
O367 C382 1.244 . S
O368 Eu353 2.349 . S
O368 C369 1.265 . S
C369 O365 1.244 . S
C369 O368 1.265 . S
O370 Eu352 2.373 . S
O370 C383 1.258 . S
O371 Eu353 2.392 . S
O371 C383 1.242 . S
O372 Eu353 2.418 . S
O372 C354 1.244 . S
O373 Eu352 2.488 . S
O373 C361 1.249 . S
O374 Eu352 2.471 . S
O374 C361 1.244 . S
O375 Eu352 2.349 . S
O375 C354 1.265 . S
C376 C377 1.379 . S
C376 C380 1.373 . S
C376 C382 1.505 . S
C377 C376 1.379 . S
C377 C379 1.369 . S
C377 H388 0.930 . S
C378 C380 1.383 . S
C378 C381 1.382 . S
C378 H389 0.930 . S
C379 C377 1.369 . S
C379 C381 1.392 . S
C379 H390 0.930 . S
C380 C376 1.373 . S
C380 C378 1.383 . S
C380 H391 0.931 . S
C381 C378 1.382 . S
C381 C379 1.392 . S
C382 Eu353 2.828 . S
C382 O366 1.249 . S
C382 O367 1.244 . S
C382 C376 1.505 . S
C383 O370 1.258 . S
C383 O371 1.242 . S
H384 C356 0.930 . S
H385 C357 0.930 . S
H386 C358 0.930 . S
H387 C359 0.931 . S
H388 C377 0.930 . S
H389 C378 0.930 . S
H390 C379 0.930 . S
H391 C380 0.931 . S
Eu392 C401 2.828 . S
Eu392 O403 2.392 . S
Eu392 O405 2.418 . S
Eu392 O410 2.373 1_545 S
Eu392 O413 2.488 . S
Eu392 O414 2.471 . S
Eu392 O415 2.349 . S
Eu393 O402 2.373 . S
Eu393 O406 2.488 . S
Eu393 O407 2.471 . S
Eu393 O408 2.349 . S
Eu393 O411 2.392 1_545 S
Eu393 O412 2.418 . S
Eu393 C422 2.828 . S
C394 O412 1.244 . S
C394 O415 1.265 . S
C395 C396 1.379 . S
C395 C399 1.373 . S
C395 C401 1.505 1_565 S
C396 C395 1.379 . S
C396 C398 1.369 . S
C396 H424 0.930 . S
C397 C399 1.383 . S
C397 C400 1.382 . S
C397 H425 0.930 . S
C398 C396 1.369 . S
C398 C400 1.392 . S
C398 H426 0.930 . S
C399 C395 1.373 . S
C399 C397 1.383 . S
C399 H427 0.931 . S
C400 C397 1.382 . S
C400 C398 1.392 . S
C401 Eu392 2.828 . S
C401 C395 1.505 1_545 S
C401 O413 1.249 . S
C401 O414 1.244 . S
O402 Eu393 2.373 . S
O402 C404 1.258 . S
O403 Eu392 2.392 . S
O403 C404 1.242 . S
C404 O402 1.258 . S
C404 O403 1.242 . S
O405 Eu392 2.418 . S
O405 C409 1.244 . S
O406 Eu393 2.488 . S
O406 C422 1.249 . S
O407 Eu393 2.471 . S
O407 C422 1.244 . S
O408 Eu393 2.349 . S
O408 C409 1.265 . S
C409 O405 1.244 . S
C409 O408 1.265 . S
O410 Eu392 2.373 1_565 S
O410 C423 1.258 . S
O411 Eu393 2.392 1_565 S
O411 C423 1.242 . S
O412 Eu393 2.418 . S
O412 C394 1.244 . S
O413 Eu392 2.488 . S
O413 C401 1.249 . S
O414 Eu392 2.471 . S
O414 C401 1.244 . S
O415 Eu392 2.349 . S
O415 C394 1.265 . S
C416 C417 1.379 . S
C416 C420 1.373 . S
C416 C422 1.505 . S
C417 C416 1.379 . S
C417 C419 1.369 . S
C417 H428 0.930 . S
C418 C420 1.383 . S
C418 C421 1.382 . S
C418 H429 0.930 . S
C419 C417 1.369 . S
C419 C421 1.392 . S
C419 H430 0.930 . S
C420 C416 1.373 . S
C420 C418 1.383 . S
C420 H431 0.931 . S
C421 C418 1.382 . S
C421 C419 1.392 . S
C422 Eu393 2.828 . S
C422 O406 1.249 . S
C422 O407 1.244 . S
C422 C416 1.505 . S
C423 O410 1.258 . S
C423 O411 1.242 . S
H424 C396 0.930 . S
H425 C397 0.930 . S
H426 C398 0.930 . S
H427 C399 0.931 . S
H428 C417 0.930 . S
H429 C418 0.930 . S
H430 C419 0.930 . S
H431 C420 0.931 . S
Eu432 C441 2.828 . S
Eu432 O443 2.392 . S
Eu432 O445 2.418 . S
Eu432 O450 2.373 . S
Eu432 O453 2.488 . S
Eu432 O454 2.471 . S
Eu432 O455 2.349 . S
Eu433 O442 2.373 . S
Eu433 O446 2.488 . S
Eu433 O447 2.471 . S
Eu433 O448 2.349 . S
Eu433 O451 2.392 . S
Eu433 O452 2.418 . S
Eu433 C462 2.828 . S
C434 O452 1.244 . S
C434 O455 1.265 . S
C435 C436 1.379 . S
C435 C439 1.373 . S
C435 C441 1.505 . S
C436 C435 1.379 . S
C436 C438 1.369 . S
C436 H464 0.930 . S
C437 C439 1.383 . S
C437 C440 1.382 . S
C437 H465 0.930 . S
C438 C436 1.369 . S
C438 C440 1.392 . S
C438 H466 0.930 . S
C439 C435 1.373 . S
C439 C437 1.383 . S
C439 H467 0.931 . S
C440 C437 1.382 . S
C440 C438 1.392 . S
C441 Eu432 2.828 . S
C441 C435 1.505 . S
C441 O453 1.249 . S
C441 O454 1.244 . S
O442 Eu433 2.373 . S
O442 C444 1.258 . S
O443 Eu432 2.392 . S
O443 C444 1.242 . S
C444 O442 1.258 . S
C444 O443 1.242 . S
O445 Eu432 2.418 . S
O445 C449 1.244 . S
O446 Eu433 2.488 . S
O446 C462 1.249 . S
O447 Eu433 2.471 . S
O447 C462 1.244 . S
O448 Eu433 2.349 . S
O448 C449 1.265 . S
C449 O445 1.244 . S
C449 O448 1.265 . S
O450 Eu432 2.373 . S
O450 C463 1.258 . S
O451 Eu433 2.392 . S
O451 C463 1.242 . S
O452 Eu433 2.418 . S
O452 C434 1.244 . S
O453 Eu432 2.488 . S
O453 C441 1.249 . S
O454 Eu432 2.471 . S
O454 C441 1.244 . S
O455 Eu432 2.349 . S
O455 C434 1.265 . S
C456 C457 1.379 . S
C456 C460 1.373 . S
C456 C462 1.505 . S
C457 C456 1.379 . S
C457 C459 1.369 . S
C457 H468 0.930 . S
C458 C460 1.383 . S
C458 C461 1.382 . S
C458 H469 0.930 . S
C459 C457 1.369 . S
C459 C461 1.392 . S
C459 H470 0.930 . S
C460 C456 1.373 . S
C460 C458 1.383 . S
C460 H471 0.931 . S
C461 C458 1.382 . S
C461 C459 1.392 . S
C462 Eu433 2.828 . S
C462 O446 1.249 . S
C462 O447 1.244 . S
C462 C456 1.505 . S
C463 O450 1.258 . S
C463 O451 1.242 . S
H464 C436 0.930 . S
H465 C437 0.930 . S
H466 C438 0.930 . S
H467 C439 0.931 . S
H468 C457 0.930 . S
H469 C458 0.930 . S
H470 C459 0.930 . S
H471 C460 0.931 . S
Eu472 C481 2.828 . S
Eu472 O483 2.392 . S
Eu472 O485 2.418 . S
Eu472 O490 2.373 . S
Eu472 O493 2.488 . S
Eu472 O494 2.471 . S
Eu472 O495 2.349 . S
Eu473 O482 2.373 . S
Eu473 O486 2.488 1_545 S
Eu473 O487 2.471 1_545 S
Eu473 O488 2.349 . S
Eu473 O491 2.392 . S
Eu473 O492 2.418 . S
Eu473 C502 2.828 1_545 S
C474 O492 1.244 . S
C474 O495 1.265 . S
C475 C476 1.379 . S
C475 C479 1.373 . S
C475 C481 1.505 . S
C476 C475 1.379 . S
C476 C478 1.369 . S
C476 H504 0.930 . S
C477 C479 1.383 . S
C477 C480 1.382 . S
C477 H505 0.930 . S
C478 C476 1.369 . S
C478 C480 1.392 . S
C478 H506 0.930 . S
C479 C475 1.373 . S
C479 C477 1.383 . S
C479 H507 0.931 . S
C480 C477 1.382 . S
C480 C478 1.392 . S
C481 Eu472 2.828 . S
C481 C475 1.505 . S
C481 O493 1.249 . S
C481 O494 1.244 . S
O482 Eu473 2.373 . S
O482 C484 1.258 . S
O483 Eu472 2.392 . S
O483 C484 1.242 . S
C484 O482 1.258 . S
C484 O483 1.242 . S
O485 Eu472 2.418 . S
O485 C489 1.244 . S
O486 Eu473 2.488 1_565 S
O486 C502 1.249 . S
O487 Eu473 2.471 1_565 S
O487 C502 1.244 . S
O488 Eu473 2.349 . S
O488 C489 1.265 . S
C489 O485 1.244 . S
C489 O488 1.265 . S
O490 Eu472 2.373 . S
O490 C503 1.258 . S
O491 Eu473 2.392 . S
O491 C503 1.242 . S
O492 Eu473 2.418 . S
O492 C474 1.244 . S
O493 Eu472 2.488 . S
O493 C481 1.249 . S
O494 Eu472 2.471 . S
O494 C481 1.244 . S
O495 Eu472 2.349 . S
O495 C474 1.265 . S
C496 C497 1.379 . S
C496 C500 1.373 . S
C496 C502 1.505 . S
C497 C496 1.379 . S
C497 C499 1.369 . S
C497 H508 0.930 . S
C498 C500 1.383 . S
C498 C501 1.382 . S
C498 H509 0.930 . S
C499 C497 1.369 . S
C499 C501 1.392 . S
C499 H510 0.930 . S
C500 C496 1.373 . S
C500 C498 1.383 . S
C500 H511 0.931 . S
C501 C498 1.382 . S
C501 C499 1.392 . S
C502 Eu473 2.828 1_565 S
C502 O486 1.249 . S
C502 O487 1.244 . S
C502 C496 1.505 . S
C503 O490 1.258 . S
C503 O491 1.242 . S
H504 C476 0.930 . S
H505 C477 0.930 . S
H506 C478 0.930 . S
H507 C479 0.931 . S
H508 C497 0.930 . S
H509 C498 0.930 . S
H510 C499 0.930 . S
H511 C500 0.931 . S
Eu512 C521 2.828 . S
Eu512 O523 2.392 . S
Eu512 O525 2.418 . S
Eu512 O530 2.373 . S
Eu512 O533 2.488 . S
Eu512 O534 2.471 . S
Eu512 O535 2.349 . S
Eu513 O522 2.373 . S
Eu513 O526 2.488 . S
Eu513 O527 2.471 . S
Eu513 O528 2.349 . S
Eu513 O531 2.392 . S
Eu513 O532 2.418 . S
Eu513 C542 2.828 . S
C514 O532 1.244 . S
C514 O535 1.265 . S
C515 C516 1.379 . S
C515 C519 1.373 . S
C515 C521 1.505 . S
C516 C515 1.379 . S
C516 C518 1.369 . S
C516 H544 0.930 . S
C517 C519 1.383 . S
C517 C520 1.382 . S
C517 H545 0.930 . S
C518 C516 1.369 . S
C518 C520 1.392 . S
C518 H546 0.930 . S
C519 C515 1.373 . S
C519 C517 1.383 . S
C519 H547 0.931 . S
C520 C517 1.382 . S
C520 C518 1.392 . S
C521 Eu512 2.828 . S
C521 C515 1.505 . S
C521 O533 1.249 . S
C521 O534 1.244 . S
O522 Eu513 2.373 . S
O522 C524 1.258 . S
O523 Eu512 2.392 . S
O523 C524 1.242 . S
C524 O522 1.258 . S
C524 O523 1.242 . S
O525 Eu512 2.418 . S
O525 C529 1.244 . S
O526 Eu513 2.488 . S
O526 C542 1.249 . S
O527 Eu513 2.471 . S
O527 C542 1.244 . S
O528 Eu513 2.349 . S
O528 C529 1.265 . S
C529 O525 1.244 . S
C529 O528 1.265 . S
O530 Eu512 2.373 . S
O530 C543 1.258 . S
O531 Eu513 2.392 . S
O531 C543 1.242 . S
O532 Eu513 2.418 . S
O532 C514 1.244 . S
O533 Eu512 2.488 . S
O533 C521 1.249 . S
O534 Eu512 2.471 . S
O534 C521 1.244 . S
O535 Eu512 2.349 . S
O535 C514 1.265 . S
C536 C537 1.379 . S
C536 C540 1.373 . S
C536 C542 1.505 . S
C537 C536 1.379 . S
C537 C539 1.369 . S
C537 H548 0.930 . S
C538 C540 1.383 . S
C538 C541 1.382 . S
C538 H549 0.930 . S
C539 C537 1.369 . S
C539 C541 1.392 . S
C539 H550 0.930 . S
C540 C536 1.373 . S
C540 C538 1.383 . S
C540 H551 0.931 . S
C541 C538 1.382 . S
C541 C539 1.392 . S
C542 Eu513 2.828 . S
C542 O526 1.249 . S
C542 O527 1.244 . S
C542 C536 1.505 . S
C543 O530 1.258 . S
C543 O531 1.242 . S
H544 C516 0.930 . S
H545 C517 0.930 . S
H546 C518 0.930 . S
H547 C519 0.931 . S
H548 C537 0.930 . S
H549 C538 0.930 . S
H550 C539 0.930 . S
H551 C540 0.931 . S
Eu552 C561 2.828 . S
Eu552 O563 2.392 . S
Eu552 O565 2.418 1_545 S
Eu552 O570 2.373 . S
Eu552 O573 2.472 1_545 S
Eu552 O574 2.471 . S
Eu552 O575 2.349 . S
Eu553 O562 2.373 1_556 S
Eu553 O566 2.488 . S
Eu553 O567 2.471 . S
Eu553 O568 2.349 . S
Eu553 O571 2.392 . S
Eu553 O572 2.418 1_556 S
Eu553 C582 2.828 . S
C554 O572 1.244 . S
C554 O575 1.265 . S
C555 C556 1.379 . S
C555 C559 1.373 1_545 S
C555 C561 1.505 . S
C556 C555 1.379 . S
C556 C558 1.369 . S
C556 H584 0.930 . S
C557 C559 1.383 . S
C557 C560 1.382 . S
C557 H585 0.930 . S
C558 C556 1.369 . S
C558 C560 1.392 1_545 S
C558 H586 0.930 . S
C559 C555 1.373 1_565 S
C559 C557 1.383 . S
C559 H587 0.931 . S
C560 C557 1.382 . S
C560 C558 1.392 1_565 S
C561 Eu552 2.828 . S
C561 C555 1.505 . S
C561 O573 1.233 1_545 S
C561 O574 1.244 . S
O562 Eu553 2.373 1_554 S
O562 C564 1.258 . S
O563 Eu552 2.392 . S
O563 C564 1.242 . S
C564 O562 1.258 . S
C564 O563 1.242 . S
O565 Eu552 2.418 1_565 S
O565 C569 1.244 1_554 S
O566 Eu553 2.488 . S
O566 C582 1.249 . S
O567 Eu553 2.471 . S
O567 C582 1.244 . S
O568 Eu553 2.349 . S
O568 C569 1.265 1_545 S
C569 O565 1.244 1_556 S
C569 O568 1.265 1_565 S
O570 Eu552 2.373 . S
O570 C583 1.258 . S
O571 Eu553 2.392 . S
O571 C583 1.242 1_556 S
O572 Eu553 2.418 1_554 S
O572 C554 1.244 . S
O573 Eu552 2.472 1_565 S
O573 C561 1.233 1_565 S
O574 Eu552 2.471 . S
O574 C561 1.244 . S
O575 Eu552 2.349 . S
O575 C554 1.265 . S
C576 C577 1.379 . S
C576 C580 1.373 . S
C576 C582 1.505 . S
C577 C576 1.379 . S
C577 C579 1.369 . S
C577 H588 0.930 . S
C578 C580 1.383 . S
C578 C581 1.382 . S
C578 H589 0.930 . S
C579 C577 1.369 . S
C579 C581 1.392 . S
C579 H590 0.930 . S
C580 C576 1.373 . S
C580 C578 1.383 . S
C580 H591 0.931 . S
C581 C578 1.382 . S
C581 C579 1.392 . S
C582 Eu553 2.828 . S
C582 O566 1.249 . S
C582 O567 1.244 . S
C582 C576 1.505 . S
C583 O570 1.258 . S
C583 O571 1.242 1_554 S
H584 C556 0.930 . S
H585 C557 0.930 . S
H586 C558 0.930 . S
H587 C559 0.931 . S
H588 C577 0.930 . S
H589 C578 0.930 . S
H590 C579 0.930 . S
H591 C580 0.931 . S
Eu592 C601 2.828 . S
Eu592 O603 2.392 . S
Eu592 O605 2.418 . S
Eu592 O610 2.373 . S
Eu592 O613 2.488 . S
Eu592 O614 2.471 . S
Eu592 O615 2.349 . S
Eu593 O602 2.373 . S
Eu593 O606 2.488 . S
Eu593 O607 2.471 . S
Eu593 O608 2.349 . S
Eu593 O611 2.392 . S
Eu593 O612 2.418 . S
Eu593 C622 2.828 . S
C594 O612 1.244 . S
C594 O615 1.265 . S
C595 C596 1.379 . S
C595 C599 1.373 . S
C595 C601 1.505 . S
C596 C595 1.379 . S
C596 C598 1.369 . S
C596 H624 0.930 . S
C597 C599 1.383 . S
C597 C600 1.382 . S
C597 H625 0.930 . S
C598 C596 1.369 . S
C598 C600 1.392 . S
C598 H626 0.930 . S
C599 C595 1.373 . S
C599 C597 1.383 . S
C599 H627 0.931 . S
C600 C597 1.382 . S
C600 C598 1.392 . S
C601 Eu592 2.828 . S
C601 C595 1.505 . S
C601 O613 1.249 . S
C601 O614 1.244 . S
O602 Eu593 2.373 . S
O602 C604 1.258 . S
O603 Eu592 2.392 . S
O603 C604 1.242 . S
C604 O602 1.258 . S
C604 O603 1.242 . S
O605 Eu592 2.418 . S
O605 C609 1.244 . S
O606 Eu593 2.488 . S
O606 C622 1.249 . S
O607 Eu593 2.471 . S
O607 C622 1.244 . S
O608 Eu593 2.349 . S
O608 C609 1.265 . S
C609 O605 1.244 . S
C609 O608 1.265 . S
O610 Eu592 2.373 . S
O610 C623 1.258 . S
O611 Eu593 2.392 . S
O611 C623 1.242 . S
O612 Eu593 2.418 . S
O612 C594 1.244 . S
O613 Eu592 2.488 . S
O613 C601 1.249 . S
O614 Eu592 2.471 . S
O614 C601 1.244 . S
O615 Eu592 2.349 . S
O615 C594 1.265 . S
C616 C617 1.379 . S
C616 C620 1.373 . S
C616 C622 1.505 . S
C617 C616 1.379 . S
C617 C619 1.369 . S
C617 H628 0.930 . S
C618 C620 1.383 . S
C618 C621 1.382 . S
C618 H629 0.930 . S
C619 C617 1.369 . S
C619 C621 1.392 . S
C619 H630 0.930 . S
C620 C616 1.373 . S
C620 C618 1.383 . S
C620 H631 0.931 . S
C621 C618 1.382 . S
C621 C619 1.392 . S
C622 Eu593 2.828 . S
C622 O606 1.249 . S
C622 O607 1.244 . S
C622 C616 1.505 . S
C623 O610 1.258 . S
C623 O611 1.242 . S
H624 C596 0.930 . S
H625 C597 0.930 . S
H626 C598 0.930 . S
H627 C599 0.931 . S
H628 C617 0.930 . S
H629 C618 0.930 . S
H630 C619 0.930 . S
H631 C620 0.931 . S
Eu632 C641 2.828 . S
Eu632 O643 2.392 . S
Eu632 O645 2.418 . S
Eu632 O650 2.373 1_554 S
Eu632 O653 2.488 . S
Eu632 O654 2.471 . S
Eu632 O655 2.349 . S
Eu633 O642 2.373 1_556 S
Eu633 O646 2.488 1_556 S
Eu633 O647 2.471 1_556 S
Eu633 O648 2.349 1_556 S
Eu633 O651 2.392 . S
Eu633 O652 2.418 1_556 S
Eu633 C662 2.828 1_556 S
C634 O652 1.244 . S
C634 O655 1.265 . S
C635 C636 1.398 . S
C635 C639 1.373 . S
C635 C641 1.505 . S
C636 C635 1.398 . S
C636 C638 1.356 1_554 S
C636 H664 0.925 1_554 S
C637 C639 1.383 . S
C637 C640 1.382 . S
C637 H665 0.930 . S
C638 C636 1.356 1_556 S
C638 C640 1.392 1_556 S
C638 H666 0.930 . S
C639 C635 1.373 . S
C639 C637 1.383 . S
C639 H667 0.931 . S
C640 C637 1.382 . S
C640 C638 1.392 1_554 S
C641 Eu632 2.828 . S
C641 C635 1.505 . S
C641 O653 1.249 . S
C641 O654 1.244 . S
O642 Eu633 2.373 1_554 S
O642 C644 1.258 . S
O643 Eu632 2.392 . S
O643 C644 1.242 . S
C644 O642 1.258 . S
C644 O643 1.242 . S
O645 Eu632 2.418 . S
O645 C649 1.244 . S
O646 Eu633 2.488 1_554 S
O646 C662 1.249 . S
O647 Eu633 2.471 1_554 S
O647 C662 1.244 . S
O648 Eu633 2.349 1_554 S
O648 C649 1.265 . S
C649 O645 1.244 . S
C649 O648 1.265 . S
O650 Eu632 2.373 1_556 S
O650 C663 1.258 . S
O651 Eu633 2.392 . S
O651 C663 1.242 . S
O652 Eu633 2.418 1_554 S
O652 C634 1.244 . S
O653 Eu632 2.488 . S
O653 C641 1.249 . S
O654 Eu632 2.471 . S
O654 C641 1.244 . S
O655 Eu632 2.349 . S
O655 C634 1.265 . S
C656 C657 1.379 . S
C656 C660 1.373 . S
C656 C662 1.505 . S
C657 C656 1.379 . S
C657 C659 1.369 . S
C657 H668 0.930 . S
C658 C660 1.383 . S
C658 C661 1.382 . S
C658 H669 0.930 . S
C659 C657 1.369 . S
C659 C661 1.392 . S
C659 H670 0.930 . S
C660 C656 1.373 . S
C660 C658 1.383 . S
C660 H671 0.931 . S
C661 C658 1.382 . S
C661 C659 1.392 . S
C662 Eu633 2.828 1_554 S
C662 O646 1.249 . S
C662 O647 1.244 . S
C662 C656 1.505 . S
C663 O650 1.258 . S
C663 O651 1.242 . S
H664 C636 0.925 1_556 S
H665 C637 0.930 . S
H666 C638 0.930 . S
H667 C639 0.931 . S
H668 C657 0.930 . S
H669 C658 0.930 . S
H670 C659 0.930 . S
H671 C660 0.931 . S
Eu672 C681 2.852 . S
Eu672 O683 2.392 . S
Eu672 O685 2.418 . S
Eu672 O690 2.373 . S
Eu672 O693 2.488 . S
Eu672 O694 2.471 . S
Eu672 O695 2.349 . S
Eu673 O682 2.373 . S
Eu673 O686 2.488 . S
Eu673 O687 2.471 . S
Eu673 O688 2.349 . S
Eu673 O691 2.392 . S
Eu673 O692 2.418 . S
Eu673 C702 2.828 . S
C674 O692 1.244 . S
C674 O695 1.265 . S
C675 C676 1.379 . S
C675 C679 1.373 . S
C675 C681 1.482 1_455 S
C676 C675 1.379 . S
C676 C678 1.369 . S
C676 H704 0.930 . S
C677 C679 1.383 . S
C677 C680 1.382 . S
C677 H705 0.930 . S
C678 C676 1.369 . S
C678 C680 1.392 . S
C678 H706 0.930 . S
C679 C675 1.373 . S
C679 C677 1.383 . S
C679 H707 0.931 . S
C680 C677 1.382 . S
C680 C678 1.392 . S
C681 Eu672 2.852 . S
C681 C675 1.482 1_655 S
C681 O693 1.252 . S
C681 O694 1.265 . S
O682 Eu673 2.373 . S
O682 C684 1.258 . S
O683 Eu672 2.392 . S
O683 C684 1.242 . S
C684 O682 1.258 . S
C684 O683 1.242 . S
O685 Eu672 2.418 . S
O685 C689 1.244 . S
O686 Eu673 2.488 . S
O686 C702 1.249 . S
O687 Eu673 2.471 . S
O687 C702 1.244 . S
O688 Eu673 2.349 . S
O688 C689 1.265 . S
C689 O685 1.244 . S
C689 O688 1.265 . S
O690 Eu672 2.373 . S
O690 C703 1.258 . S
O691 Eu673 2.392 . S
O691 C703 1.242 . S
O692 Eu673 2.418 . S
O692 C674 1.244 . S
O693 Eu672 2.488 . S
O693 C681 1.252 . S
O694 Eu672 2.471 . S
O694 C681 1.265 . S
O695 Eu672 2.349 . S
O695 C674 1.265 . S
C696 C697 1.379 . S
C696 C700 1.373 . S
C696 C702 1.505 . S
C697 C696 1.379 . S
C697 C699 1.369 . S
C697 H708 0.930 . S
C698 C700 1.383 . S
C698 C701 1.382 . S
C698 H709 0.930 . S
C699 C697 1.369 . S
C699 C701 1.392 . S
C699 H710 0.930 . S
C700 C696 1.373 . S
C700 C698 1.383 . S
C700 H711 0.931 . S
C701 C698 1.382 . S
C701 C699 1.392 . S
C702 Eu673 2.828 . S
C702 O686 1.249 . S
C702 O687 1.244 . S
C702 C696 1.505 . S
C703 O690 1.258 . S
C703 O691 1.242 . S
H704 C676 0.930 . S
H705 C677 0.930 . S
H706 C678 0.930 . S
H707 C679 0.931 . S
H708 C697 0.930 . S
H709 C698 0.930 . S
H710 C699 0.930 . S
H711 C700 0.931 . S
Eu712 C721 2.828 . S
Eu712 O723 2.392 . S
Eu712 O725 2.418 . S
Eu712 O730 2.373 . S
Eu712 O733 2.488 . S
Eu712 O734 2.471 . S
Eu712 O735 2.349 . S
Eu713 O722 2.373 . S
Eu713 O726 2.488 . S
Eu713 O727 2.471 . S
Eu713 O728 2.349 . S
Eu713 O731 2.392 . S
Eu713 O732 2.418 . S
Eu713 C742 2.828 . S
C714 O732 1.244 . S
C714 O735 1.265 . S
C715 C716 1.379 . S
C715 C719 1.373 . S
C715 C721 1.505 . S
C716 C715 1.379 . S
C716 C718 1.369 1_455 S
C716 H744 0.930 . S
C717 C719 1.383 . S
C717 C720 1.382 1_455 S
C717 H745 0.930 . S
C718 C716 1.369 1_655 S
C718 C720 1.392 . S
C718 H746 0.930 . S
C719 C715 1.373 . S
C719 C717 1.383 . S
C719 H747 0.931 . S
C720 C717 1.382 1_655 S
C720 C718 1.392 . S
C721 Eu712 2.828 . S
C721 C715 1.505 . S
C721 O733 1.249 . S
C721 O734 1.244 . S
O722 Eu713 2.373 . S
O722 C724 1.258 . S
O723 Eu712 2.392 . S
O723 C724 1.242 . S
C724 O722 1.258 . S
C724 O723 1.242 . S
O725 Eu712 2.418 . S
O725 C729 1.244 . S
O726 Eu713 2.488 . S
O726 C742 1.249 . S
O727 Eu713 2.471 . S
O727 C742 1.244 . S
O728 Eu713 2.349 . S
O728 C729 1.265 . S
C729 O725 1.244 . S
C729 O728 1.265 . S
O730 Eu712 2.373 . S
O730 C743 1.258 . S
O731 Eu713 2.392 . S
O731 C743 1.242 . S
O732 Eu713 2.418 . S
O732 C714 1.244 . S
O733 Eu712 2.488 . S
O733 C721 1.249 . S
O734 Eu712 2.471 . S
O734 C721 1.244 . S
O735 Eu712 2.349 . S
O735 C714 1.265 . S
C736 C737 1.379 . S
C736 C740 1.373 . S
C736 C742 1.505 . S
C737 C736 1.379 . S
C737 C739 1.369 . S
C737 H748 0.930 . S
C738 C740 1.383 . S
C738 C741 1.382 . S
C738 H749 0.930 . S
C739 C737 1.369 . S
C739 C741 1.392 . S
C739 H750 0.930 . S
C740 C736 1.373 . S
C740 C738 1.383 . S
C740 H751 0.931 . S
C741 C738 1.382 . S
C741 C739 1.392 . S
C742 Eu713 2.828 . S
C742 O726 1.249 . S
C742 O727 1.244 . S
C742 C736 1.505 . S
C743 O730 1.258 . S
C743 O731 1.242 . S
H744 C716 0.930 . S
H745 C717 0.930 . S
H746 C718 0.930 . S
H747 C719 0.931 . S
H748 C737 0.930 . S
H749 C738 0.930 . S
H750 C739 0.930 . S
H751 C740 0.931 . S
Eu752 C761 2.828 . S
Eu752 O763 2.392 . S
Eu752 O765 2.418 . S
Eu752 O770 2.373 . S
Eu752 O773 2.488 . S
Eu752 O774 2.471 . S
Eu752 O775 2.349 . S
Eu753 O762 2.373 . S
Eu753 O766 2.488 . S
Eu753 O767 2.471 . S
Eu753 O768 2.349 . S
Eu753 O771 2.392 . S
Eu753 O772 2.418 . S
Eu753 C782 2.828 . S
C754 O772 1.244 . S
C754 O775 1.265 . S
C755 C756 1.379 . S
C755 C759 1.373 . S
C755 C761 1.505 . S
C756 C755 1.379 . S
C756 C758 1.369 . S
C756 H784 0.930 . S
C757 C759 1.383 . S
C757 C760 1.382 . S
C757 H785 0.930 . S
C758 C756 1.369 . S
C758 C760 1.392 . S
C758 H786 0.930 . S
C759 C755 1.373 . S
C759 C757 1.383 . S
C759 H787 0.931 . S
C760 C757 1.382 . S
C760 C758 1.392 . S
C761 Eu752 2.828 . S
C761 C755 1.505 . S
C761 O773 1.249 . S
C761 O774 1.244 . S
O762 Eu753 2.373 . S
O762 C764 1.258 . S
O763 Eu752 2.392 . S
O763 C764 1.242 . S
C764 O762 1.258 . S
C764 O763 1.242 . S
O765 Eu752 2.418 . S
O765 C769 1.244 . S
O766 Eu753 2.488 . S
O766 C782 1.249 . S
O767 Eu753 2.471 . S
O767 C782 1.244 . S
O768 Eu753 2.349 . S
O768 C769 1.265 . S
C769 O765 1.244 . S
C769 O768 1.265 . S
O770 Eu752 2.373 . S
O770 C783 1.258 . S
O771 Eu753 2.392 . S
O771 C783 1.242 . S
O772 Eu753 2.418 . S
O772 C754 1.244 . S
O773 Eu752 2.488 . S
O773 C761 1.249 . S
O774 Eu752 2.471 . S
O774 C761 1.244 . S
O775 Eu752 2.349 . S
O775 C754 1.265 . S
C776 C777 1.379 . S
C776 C780 1.373 . S
C776 C782 1.505 1_455 S
C777 C776 1.379 . S
C777 C779 1.369 . S
C777 H788 0.930 . S
C778 C780 1.383 . S
C778 C781 1.382 . S
C778 H789 0.930 . S
C779 C777 1.369 . S
C779 C781 1.392 . S
C779 H790 0.930 . S
C780 C776 1.373 . S
C780 C778 1.383 . S
C780 H791 0.931 . S
C781 C778 1.382 . S
C781 C779 1.392 . S
C782 Eu753 2.828 . S
C782 O766 1.249 . S
C782 O767 1.244 . S
C782 C776 1.505 1_655 S
C783 O770 1.258 . S
C783 O771 1.242 . S
H784 C756 0.930 . S
H785 C757 0.930 . S
H786 C758 0.930 . S
H787 C759 0.931 . S
H788 C777 0.930 . S
H789 C778 0.930 . S
H790 C779 0.930 . S
H791 C780 0.931 . S
Eu792 C801 2.828 . S
Eu792 O803 2.392 . S
Eu792 O805 2.418 . S
Eu792 O810 2.373 . S
Eu792 O813 2.488 . S
Eu792 O814 2.471 . S
Eu792 O815 2.349 . S
Eu793 O802 2.373 . S
Eu793 O806 2.488 . S
Eu793 O807 2.471 . S
Eu793 O808 2.349 . S
Eu793 O811 2.392 . S
Eu793 O812 2.418 . S
Eu793 C822 2.828 . S
C794 O812 1.244 . S
C794 O815 1.265 . S
C795 C796 1.379 . S
C795 C799 1.373 . S
C795 C801 1.505 . S
C796 C795 1.379 . S
C796 C798 1.369 . S
C796 H824 0.930 . S
C797 C799 1.383 . S
C797 C800 1.382 . S
C797 H825 0.930 . S
C798 C796 1.369 . S
C798 C800 1.392 . S
C798 H826 0.930 . S
C799 C795 1.373 . S
C799 C797 1.383 . S
C799 H827 0.931 . S
C800 C797 1.382 . S
C800 C798 1.392 . S
C801 Eu792 2.828 . S
C801 C795 1.505 . S
C801 O813 1.249 . S
C801 O814 1.244 . S
O802 Eu793 2.373 . S
O802 C804 1.258 . S
O803 Eu792 2.392 . S
O803 C804 1.242 . S
C804 O802 1.258 . S
C804 O803 1.242 . S
O805 Eu792 2.418 . S
O805 C809 1.244 . S
O806 Eu793 2.488 . S
O806 C822 1.249 . S
O807 Eu793 2.471 . S
O807 C822 1.244 . S
O808 Eu793 2.349 . S
O808 C809 1.265 . S
C809 O805 1.244 . S
C809 O808 1.265 . S
O810 Eu792 2.373 . S
O810 C823 1.258 . S
O811 Eu793 2.392 . S
O811 C823 1.242 . S
O812 Eu793 2.418 . S
O812 C794 1.244 . S
O813 Eu792 2.488 . S
O813 C801 1.249 . S
O814 Eu792 2.471 . S
O814 C801 1.244 . S
O815 Eu792 2.349 . S
O815 C794 1.265 . S
C816 C817 1.379 . S
C816 C820 1.373 . S
C816 C822 1.505 . S
C817 C816 1.379 . S
C817 C819 1.369 . S
C817 H828 0.930 . S
C818 C820 1.383 . S
C818 C821 1.382 . S
C818 H829 0.930 . S
C819 C817 1.369 . S
C819 C821 1.392 . S
C819 H830 0.930 . S
C820 C816 1.373 . S
C820 C818 1.383 . S
C820 H831 0.931 . S
C821 C818 1.382 . S
C821 C819 1.392 . S
C822 Eu793 2.828 . S
C822 O806 1.249 . S
C822 O807 1.244 . S
C822 C816 1.505 . S
C823 O810 1.258 . S
C823 O811 1.242 . S
H824 C796 0.930 . S
H825 C797 0.930 . S
H826 C798 0.930 . S
H827 C799 0.931 . S
H828 C817 0.930 . S
H829 C818 0.930 . S
H830 C819 0.930 . S
H831 C820 0.931 . S
Eu832 C841 2.828 . S
Eu832 O843 2.392 . S
Eu832 O845 2.418 . S
Eu832 O850 2.373 . S
Eu832 O853 2.488 . S
Eu832 O854 2.471 . S
Eu832 O855 2.349 . S
Eu833 O842 2.373 . S
Eu833 O846 2.488 . S
Eu833 O847 2.471 . S
Eu833 O848 2.349 . S
Eu833 O851 2.392 . S
Eu833 O852 2.418 . S
Eu833 C862 2.828 . S
C834 O852 1.244 . S
C834 O855 1.265 . S
C835 C836 1.379 . S
C835 C839 1.373 . S
C835 C841 1.505 1_545 S
C836 C835 1.379 . S
C836 C838 1.369 . S
C836 H864 0.929 . S
C837 C839 1.383 . S
C837 C840 1.382 . S
C837 H865 0.930 . S
C838 C836 1.369 . S
C838 C840 1.392 . S
C838 H866 0.930 . S
C839 C835 1.373 . S
C839 C837 1.383 . S
C839 H867 0.931 . S
C840 C837 1.382 . S
C840 C838 1.392 . S
C841 Eu832 2.828 . S
C841 C835 1.505 1_565 S
C841 O853 1.249 . S
C841 O854 1.244 . S
O842 Eu833 2.373 . S
O842 C844 1.258 . S
O843 Eu832 2.392 . S
O843 C844 1.242 . S
C844 O842 1.258 . S
C844 O843 1.242 . S
O845 Eu832 2.418 . S
O845 C849 1.244 . S
O846 Eu833 2.488 . S
O846 C862 1.249 . S
O847 Eu833 2.471 . S
O847 C862 1.244 . S
O848 Eu833 2.349 . S
O848 C849 1.265 . S
C849 O845 1.244 . S
C849 O848 1.265 . S
O850 Eu832 2.373 . S
O850 C863 1.258 . S
O851 Eu833 2.392 . S
O851 C863 1.242 . S
O852 Eu833 2.418 . S
O852 C834 1.244 . S
O853 Eu832 2.488 . S
O853 C841 1.249 . S
O854 Eu832 2.471 . S
O854 C841 1.244 . S
O855 Eu832 2.349 . S
O855 C834 1.265 . S
C856 C857 1.379 . S
C856 C860 1.373 . S
C856 C862 1.505 . S
C857 C856 1.379 . S
C857 C859 1.369 . S
C857 H868 0.930 . S
C858 C860 1.383 . S
C858 C861 1.382 . S
C858 H869 0.930 . S
C859 C857 1.369 . S
C859 C861 1.392 . S
C859 H870 0.930 . S
C860 C856 1.373 . S
C860 C858 1.383 . S
C860 H871 0.931 . S
C861 C858 1.382 . S
C861 C859 1.392 . S
C862 Eu833 2.828 . S
C862 O846 1.249 . S
C862 O847 1.244 . S
C862 C856 1.505 . S
C863 O850 1.258 . S
C863 O851 1.242 . S
H864 C836 0.929 . S
H865 C837 0.930 . S
H866 C838 0.930 . S
H867 C839 0.931 . S
H868 C857 0.930 . S
H869 C858 0.930 . S
H870 C859 0.930 . S
H871 C860 0.931 . S
Eu872 C881 2.828 . S
Eu872 O883 2.392 . S
Eu872 O885 2.418 . S
Eu872 O890 2.373 . S
Eu872 O893 2.488 . S
Eu872 O894 2.471 . S
Eu872 O895 2.349 . S
Eu873 O882 2.373 . S
Eu873 O886 2.488 . S
Eu873 O887 2.471 . S
Eu873 O888 2.349 . S
Eu873 O891 2.392 . S
Eu873 O892 2.418 . S
Eu873 C902 2.828 . S
C874 O892 1.244 . S
C874 O895 1.265 . S
C875 C876 1.379 . S
C875 C879 1.373 . S
C875 C881 1.505 . S
C876 C875 1.379 . S
C876 C878 1.369 . S
C876 H904 0.930 . S
C877 C879 1.383 . S
C877 C880 1.382 . S
C877 H905 0.930 . S
C878 C876 1.369 . S
C878 C880 1.392 . S
C878 H906 0.930 . S
C879 C875 1.373 . S
C879 C877 1.383 . S
C879 H907 0.931 . S
C880 C877 1.382 . S
C880 C878 1.392 . S
C881 Eu872 2.828 . S
C881 C875 1.505 . S
C881 O893 1.249 . S
C881 O894 1.244 . S
O882 Eu873 2.373 . S
O882 C884 1.258 . S
O883 Eu872 2.392 . S
O883 C884 1.242 . S
C884 O882 1.258 . S
C884 O883 1.242 . S
O885 Eu872 2.418 . S
O885 C889 1.244 . S
O886 Eu873 2.488 . S
O886 C902 1.249 . S
O887 Eu873 2.471 . S
O887 C902 1.244 . S
O888 Eu873 2.349 . S
O888 C889 1.265 . S
C889 O885 1.244 . S
C889 O888 1.265 . S
O890 Eu872 2.373 . S
O890 C903 1.258 . S
O891 Eu873 2.392 . S
O891 C903 1.242 . S
O892 Eu873 2.418 . S
O892 C874 1.244 . S
O893 Eu872 2.488 . S
O893 C881 1.249 . S
O894 Eu872 2.471 . S
O894 C881 1.244 . S
O895 Eu872 2.349 . S
O895 C874 1.265 . S
C896 C897 1.379 . S
C896 C900 1.373 . S
C896 C902 1.505 . S
C897 C896 1.379 . S
C897 C899 1.369 . S
C897 H908 0.930 . S
C898 C900 1.383 . S
C898 C901 1.382 . S
C898 H909 0.930 . S
C899 C897 1.369 . S
C899 C901 1.392 . S
C899 H910 0.930 . S
C900 C896 1.373 . S
C900 C898 1.383 . S
C900 H911 0.931 . S
C901 C898 1.382 . S
C901 C899 1.392 . S
C902 Eu873 2.828 . S
C902 O886 1.249 . S
C902 O887 1.244 . S
C902 C896 1.505 . S
C903 O890 1.258 . S
C903 O891 1.242 . S
H904 C876 0.930 . S
H905 C877 0.930 . S
H906 C878 0.930 . S
H907 C879 0.931 . S
H908 C897 0.930 . S
H909 C898 0.930 . S
H910 C899 0.930 . S
H911 C900 0.931 . S
Eu912 C921 2.828 . S
Eu912 O923 2.392 1_556 S
Eu912 O925 2.418 . S
Eu912 O930 2.373 . S
Eu912 O933 2.488 . S
Eu912 O934 2.471 1_556 S
Eu912 O935 2.349 1_556 S
Eu913 O922 2.373 . S
Eu913 O926 2.488 . S
Eu913 O927 2.471 . S
Eu913 O928 2.349 1_554 S
Eu913 O931 2.392 . S
Eu913 O932 2.418 . S
Eu913 C942 2.851 . S
C914 O932 1.244 . S
C914 O935 1.265 . S
C915 C916 1.379 . S
C915 C919 1.373 . S
C915 C921 1.505 . S
C916 C915 1.379 . S
C916 C918 1.369 . S
C916 H944 0.930 1_556 S
C917 C919 1.383 . S
C917 C920 1.382 . S
C917 H945 0.930 . S
C918 C916 1.369 . S
C918 C920 1.392 . S
C918 H946 0.930 1_556 S
C919 C915 1.373 . S
C919 C917 1.383 . S
C919 H947 0.931 . S
C920 C917 1.382 . S
C920 C918 1.392 . S
C921 Eu912 2.828 . S
C921 C915 1.505 . S
C921 O933 1.249 . S
C921 O934 1.244 1_556 S
O922 Eu913 2.373 . S
O922 C924 1.258 . S
O923 Eu912 2.392 1_554 S
O923 C924 1.242 . S
C924 O922 1.258 . S
C924 O923 1.242 . S
O925 Eu912 2.418 . S
O925 C929 1.244 . S
O926 Eu913 2.488 . S
O926 C942 1.262 . S
O927 Eu913 2.471 . S
O927 C942 1.253 . S
O928 Eu913 2.349 1_556 S
O928 C929 1.265 . S
C929 O925 1.244 . S
C929 O928 1.265 . S
O930 Eu912 2.373 . S
O930 C943 1.258 . S
O931 Eu913 2.392 . S
O931 C943 1.242 1_554 S
O932 Eu913 2.418 . S
O932 C914 1.244 . S
O933 Eu912 2.488 . S
O933 C921 1.249 . S
O934 Eu912 2.471 1_554 S
O934 C921 1.244 1_554 S
O935 Eu912 2.349 1_554 S
O935 C914 1.265 . S
C936 C937 1.379 . S
C936 C940 1.373 . S
C936 C942 1.483 1_655 S
C937 C936 1.379 . S
C937 C939 1.369 . S
C937 H948 0.930 . S
C938 C940 1.383 . S
C938 C941 1.382 . S
C938 H949 0.930 . S
C939 C937 1.369 . S
C939 C941 1.392 . S
C939 H950 0.930 . S
C940 C936 1.373 . S
C940 C938 1.383 . S
C940 H951 0.931 . S
C941 C938 1.382 . S
C941 C939 1.392 . S
C942 Eu913 2.851 . S
C942 O926 1.262 . S
C942 O927 1.253 . S
C942 C936 1.483 1_455 S
C943 O930 1.258 . S
C943 O931 1.242 1_556 S
H944 C916 0.930 1_554 S
H945 C917 0.930 . S
H946 C918 0.930 1_554 S
H947 C919 0.931 . S
H948 C937 0.930 . S
H949 C938 0.930 . S
H950 C939 0.930 . S
H951 C940 0.931 . S
C101 C320 1.185 1_556 S
C57 C354 2.194 . S
C73 C423 1.085 . S
C461 C78 1.428 . S
C21 C501 3.492 . S
C520 C31 0.572 . S
C554 C49 3.140 . S
C0 C623 3.026 . S
C329 C218 3.631 . S
C229 C381 2.330 . S
C394 C257 1.357 . S
C463 C164 2.569 . S
C216 C503 2.861 . S
C529 C231 2.480 . S
C581 C255 1.286 . S
C594 C166 3.719 . S
C324 C143 3.659 . S
C265 C634 2.969 . S
C684 C299 3.874 . S
C743 C291 3.037 1_455 S
C104 C621 4.086 . S
C117 C421 2.437 . S
C304 C754 3.251 . S
C823 C278 1.251 . S
C341 C60 1.516 . S
C809 C96 2.301 . S
C88 C404 0.735 . S
C65 C760 1.217 . S
C480 C10 3.757 . S
C44 C701 0.786 . S
C569 C34 2.941 1_556 S
C844 C13 3.477 . S
C314 C138 3.684 . S
C800 C296 2.787 . S
C112 C409 1.697 . S
C270 C764 2.622 . S
C140 C484 2.980 . S
C674 C294 2.608 . S
C114 C560 1.322 . S
C268 C849 3.839 . S
C169 C343 3.716 1_655 S
C161 C649 3.099 . S
C234 C543 3.816 . S
C226 C724 2.831 . S
C840 C247 4.706 . S
C195 C400 3.151 . S
C449 C239 3.213 . S
C364 C187 1.674 . S
C75 C880 1.185 . S
C794 C83 2.194 . S
C99 C943 1.085 . S
C52 C781 1.428 . S
C47 C661 3.492 . S
C680 C5 0.572 . S
C714 C23 3.140 1_455 S
C863 C26 3.025 . S
C889 C244 3.631 . S
C177 C821 2.330 . S
C914 C192 1.356 . S
C783 C203 2.569 . S
C663 C242 2.861 . S
C179 C689 2.480 . S
C741 C190 1.285 . S
C205 C834 3.719 . S
C884 C286 3.659 . S
C122 C474 2.969 . S
C524 C130 3.874 . S
C583 C148 3.036 . S
C861 C273 4.087 . S
C260 C941 2.436 . S
C434 C135 3.251 . S
C383 C109 1.249 . S
C86 C901 1.516 . S
C369 C70 2.301 . S
C62 C924 0.735 . S
C91 C440 1.216 . S
C36 C640 3.757 1_556 S
C541 C18 0.786 . S
C8 C729 2.941 . S
C39 C604 3.477 . S
C874 C307 3.684 . S
C153 C360 2.786 . S
C929 C281 1.698 . S
C127 C444 2.622 . S
C309 C644 2.980 . S
C514 C151 2.606 . S
C283 C720 1.323 1_455 S
C609 C125 3.839 . S
C903 C221 3.716 . S
C489 C200 3.099 1_445 S
C208 C703 3.816 . S
C564 C174 2.830 . S
C182 C600 4.706 . S
C156 C920 3.151 1_554 S
C769 C213 3.213 . S
C804 C252 1.673 . S
