# Generated by pormake.
# Topology iac, (4,6)-cn, num edge types: 1
# Building blocks:
#     Node 0, Type 0, BuildingBlock: GALJAG_clean_sbu_0, # of connection points: 4
#     Node 1, Type 0, BuildingBlock: GALJAG_clean_sbu_0, # of connection points: 4
#     Node 2, Type 0, BuildingBlock: GALJAG_clean_sbu_0, # of connection points: 4
#     Node 3, Type 0, BuildingBlock: GALJAG_clean_sbu_0, # of connection points: 4
#     Node 4, Type 0, BuildingBlock: GALJAG_clean_sbu_0, # of connection points: 4
#     Node 5, Type 0, BuildingBlock: GALJAG_clean_sbu_0, # of connection points: 4
#     Node 6, Type 0, BuildingBlock: GALJAG_clean_sbu_0, # of connection points: 4
#     Node 7, Type 0, BuildingBlock: GALJAG_clean_sbu_0, # of connection points: 4
#     Node 8, Type 0, BuildingBlock: GALJAG_clean_sbu_0, # of connection points: 4
#     Node 9, Type 0, BuildingBlock: GALJAG_clean_sbu_0, # of connection points: 4
#     Node 10, Type 0, BuildingBlock: GALJAG_clean_sbu_0, # of connection points: 4
#     Node 11, Type 0, BuildingBlock: GALJAG_clean_sbu_0, # of connection points: 4
#     Node 12, Type 0, BuildingBlock: GALJAG_clean_sbu_0, # of connection points: 4
#     Node 13, Type 0, BuildingBlock: GALJAG_clean_sbu_0, # of connection points: 4
#     Node 14, Type 0, BuildingBlock: GALJAG_clean_sbu_0, # of connection points: 4
#     Node 15, Type 0, BuildingBlock: GALJAG_clean_sbu_0, # of connection points: 4
#     Node 16, Type 0, BuildingBlock: GALJAG_clean_sbu_0, # of connection points: 4
#     Node 17, Type 0, BuildingBlock: GALJAG_clean_sbu_0, # of connection points: 4
#     Node 18, Type 0, BuildingBlock: GALJAG_clean_sbu_0, # of connection points: 4
#     Node 19, Type 0, BuildingBlock: GALJAG_clean_sbu_0, # of connection points: 4
#     Node 20, Type 0, BuildingBlock: GALJAG_clean_sbu_0, # of connection points: 4
#     Node 21, Type 0, BuildingBlock: GALJAG_clean_sbu_0, # of connection points: 4
#     Node 22, Type 0, BuildingBlock: GALJAG_clean_sbu_0, # of connection points: 4
#     Node 23, Type 0, BuildingBlock: GALJAG_clean_sbu_0, # of connection points: 4
#     Node 24, Type 1, BuildingBlock: VOLQOD_clean_sbu_1, # of connection points: 6
#     Node 25, Type 1, BuildingBlock: VOLQOD_clean_sbu_1, # of connection points: 6
#     Node 26, Type 1, BuildingBlock: VOLQOD_clean_sbu_1, # of connection points: 6
#     Node 27, Type 1, BuildingBlock: VOLQOD_clean_sbu_1, # of connection points: 6
#     Node 28, Type 1, BuildingBlock: VOLQOD_clean_sbu_1, # of connection points: 6
#     Node 29, Type 1, BuildingBlock: VOLQOD_clean_sbu_1, # of connection points: 6
#     Node 30, Type 1, BuildingBlock: VOLQOD_clean_sbu_1, # of connection points: 6
#     Node 31, Type 1, BuildingBlock: VOLQOD_clean_sbu_1, # of connection points: 6
#     Node 32, Type 1, BuildingBlock: VOLQOD_clean_sbu_1, # of connection points: 6
#     Node 33, Type 1, BuildingBlock: VOLQOD_clean_sbu_1, # of connection points: 6
#     Node 34, Type 1, BuildingBlock: VOLQOD_clean_sbu_1, # of connection points: 6
#     Node 35, Type 1, BuildingBlock: VOLQOD_clean_sbu_1, # of connection points: 6
#     Node 36, Type 1, BuildingBlock: VOLQOD_clean_sbu_1, # of connection points: 6
#     Node 37, Type 1, BuildingBlock: VOLQOD_clean_sbu_1, # of connection points: 6
#     Node 38, Type 1, BuildingBlock: VOLQOD_clean_sbu_1, # of connection points: 6
#     Node 39, Type 1, BuildingBlock: VOLQOD_clean_sbu_1, # of connection points: 6
#     Edge 40, Type (0, 1), None
#     Edge 41, Type (0, 1), None
#     Edge 42, Type (0, 1), None
#     Edge 43, Type (0, 1), None
#     Edge 44, Type (0, 1), None
#     Edge 45, Type (0, 1), None
#     Edge 46, Type (0, 1), None
#     Edge 47, Type (0, 1), None
#     Edge 48, Type (0, 1), None
#     Edge 49, Type (0, 1), None
#     Edge 50, Type (0, 1), None
#     Edge 51, Type (0, 1), None
#     Edge 52, Type (0, 1), None
#     Edge 53, Type (0, 1), None
#     Edge 54, Type (0, 1), None
#     Edge 55, Type (0, 1), None
#     Edge 56, Type (0, 1), None
#     Edge 57, Type (0, 1), None
#     Edge 58, Type (0, 1), None
#     Edge 59, Type (0, 1), None
#     Edge 60, Type (0, 1), None
#     Edge 61, Type (0, 1), None
#     Edge 62, Type (0, 1), None
#     Edge 63, Type (0, 1), None
#     Edge 64, Type (0, 1), None
#     Edge 65, Type (0, 1), None
#     Edge 66, Type (0, 1), None
#     Edge 67, Type (0, 1), None
#     Edge 68, Type (0, 1), None
#     Edge 69, Type (0, 1), None
#     Edge 70, Type (0, 1), None
#     Edge 71, Type (0, 1), None
#     Edge 72, Type (0, 1), None
#     Edge 73, Type (0, 1), None
#     Edge 74, Type (0, 1), None
#     Edge 75, Type (0, 1), None
#     Edge 76, Type (0, 1), None
#     Edge 77, Type (0, 1), None
#     Edge 78, Type (0, 1), None
#     Edge 79, Type (0, 1), None
#     Edge 80, Type (0, 1), None
#     Edge 81, Type (0, 1), None
#     Edge 82, Type (0, 1), None
#     Edge 83, Type (0, 1), None
#     Edge 84, Type (0, 1), None
#     Edge 85, Type (0, 1), None
#     Edge 86, Type (0, 1), None
#     Edge 87, Type (0, 1), None
#     Edge 88, Type (0, 1), None
#     Edge 89, Type (0, 1), None
#     Edge 90, Type (0, 1), None
#     Edge 91, Type (0, 1), None
#     Edge 92, Type (0, 1), None
#     Edge 93, Type (0, 1), None
#     Edge 94, Type (0, 1), None
#     Edge 95, Type (0, 1), None
#     Edge 96, Type (0, 1), None
#     Edge 97, Type (0, 1), None
#     Edge 98, Type (0, 1), None
#     Edge 99, Type (0, 1), None
#     Edge 100, Type (0, 1), None
#     Edge 101, Type (0, 1), None
#     Edge 102, Type (0, 1), None
#     Edge 103, Type (0, 1), None
#     Edge 104, Type (0, 1), None
#     Edge 105, Type (0, 1), None
#     Edge 106, Type (0, 1), None
#     Edge 107, Type (0, 1), None
#     Edge 108, Type (0, 1), None
#     Edge 109, Type (0, 1), None
#     Edge 110, Type (0, 1), None
#     Edge 111, Type (0, 1), None
#     Edge 112, Type (0, 1), None
#     Edge 113, Type (0, 1), None
#     Edge 114, Type (0, 1), None
#     Edge 115, Type (0, 1), None
#     Edge 116, Type (0, 1), None
#     Edge 117, Type (0, 1), None
#     Edge 118, Type (0, 1), None
#     Edge 119, Type (0, 1), None
#     Edge 120, Type (0, 1), None
#     Edge 121, Type (0, 1), None
#     Edge 122, Type (0, 1), None
#     Edge 123, Type (0, 1), None
#     Edge 124, Type (0, 1), None
#     Edge 125, Type (0, 1), None
#     Edge 126, Type (0, 1), None
#     Edge 127, Type (0, 1), None
#     Edge 128, Type (0, 1), None
#     Edge 129, Type (0, 1), None
#     Edge 130, Type (0, 1), None
#     Edge 131, Type (0, 1), None
#     Edge 132, Type (0, 1), None
#     Edge 133, Type (0, 1), None
#     Edge 134, Type (0, 1), None
#     Edge 135, Type (0, 1), None
# Relax obj value: 0.330
# Max RMSD: 0.288
# Mean RMSD: 0.183
data_MOF--net-iac--node1-GALJAG_clean_sbu_0--node2-VOLQOD_clean_sbu_1--edge1-none
_symmetry_space_group_name_H-M    P1
_symmetry_Int_Tables_number       1
_symmetry_cell_setting            triclinic
loop_
_symmetry_equiv_pos_as_xyz
'x, y, z'
_cell_length_a     26.772486
_cell_length_b     26.772677
_cell_length_c     26.496909
_cell_angle_alpha  89.927803
_cell_angle_beta   89.927461
_cell_angle_gamma 90.905855
loop_
_atom_site_label
_atom_site_type_symbol
_atom_site_fract_x
_atom_site_fract_y
_atom_site_fract_z
_atom_type_partial_charge
In0 In -0.0069 0.24685 0.13218 0.0
O1 O 0.94413 0.20401 0.07646 0.0
O2 O 0.01543 0.17499 0.09658 0.0
C3 C 0.01081 0.31515 0.05966 0.0
C4 C 0.92477 0.22916 0.20468 0.0
C5 C 0.07017 0.26438 0.19298 0.0
O6 O 0.04476 0.28885 0.07815 0.0
O7 O 0.96771 0.30787 0.07841 0.0
O8 O 0.03592 0.29585 0.18788 0.0
O9 O 0.06493 0.22452 0.16782 0.0
C10 C 0.97559 0.16976 0.0714 0.0
O11 O 0.95107 0.1952 0.18621 0.0
O12 O 0.93206 0.27225 0.18593 0.0
In13 In 0.97874 0.76141 0.38231 0.0
O14 O 0.03478 0.72008 0.33337 0.0
O15 O 0.0456 0.79835 0.344 0.0
C16 C 0.9003 0.76351 0.31731 0.0
C17 C 0.98169 0.67902 0.4402 0.0
C18 C 0.97669 0.83986 0.4473 0.0
O19 O 0.94295 0.74948 0.30402 0.0
O20 O 0.89661 0.77446 0.36345 0.0
O21 O -0.00914 0.79724 0.46055 0.0
O22 O 0.96559 0.84351 0.4012 0.0
C23 C 0.06106 0.7584 0.32434 0.0
O24 O 0.02003 0.70529 0.4312 0.0
O25 O 0.94175 0.69454 0.42056 0.0
In26 In 0.49313 0.74685 0.63217 0.0
O27 O 0.54487 0.78879 0.57816 0.0
O28 O 0.46787 0.80805 0.57859 0.0
C29 C 0.47554 0.67007 0.57099 0.0
C30 C 0.56995 0.7644 0.69332 0.0
C31 C 0.42479 0.72897 0.70459 0.0
O32 O 0.44385 0.70398 0.57682 0.0
O33 O 0.51568 0.67545 0.59567 0.0
O34 O 0.45123 0.69508 0.68619 0.0
O35 O 0.43195 0.77207 0.68581 0.0
C36 C 0.51096 0.81524 0.55979 0.0
O37 O 0.53601 0.79608 0.68758 0.0
O38 O 0.56457 0.72429 0.66857 0.0
In39 In 0.47854 0.26122 0.88206 0.0
O40 O 0.53466 0.21993 0.83316 0.0
O41 O 0.5454 0.29821 0.84379 0.0
C42 C 0.40009 0.26324 0.81708 0.0
C43 C 0.48156 0.1789 0.94005 0.0
C44 C 0.47645 0.33966 0.94706 0.0
O45 O 0.44271 0.24907 0.80383 0.0
O46 O 0.39644 0.27437 0.86317 0.0
O47 O 0.4905 0.297 0.96034 0.0
O48 O 0.46548 0.34334 0.90093 0.0
C49 C 0.56092 0.25826 0.82416 0.0
O50 O 0.51988 0.20518 0.931 0.0
O51 O 0.44161 0.19437 0.92039 0.0
In52 In 0.12279 0.00919 0.2698 0.0
O53 O 0.17648 0.96057 0.22443 0.0
O54 O 0.16918 0.94842 0.30373 0.0
C55 C 0.17814 0.09519 0.26694 0.0
C56 C 0.05159 0.98418 0.20125 0.0
C57 C 0.07644 0.01249 0.35999 0.0
O58 O 0.18841 0.05812 0.23999 0.0
O59 O 0.13802 0.09064 0.29122 0.0
O60 O 0.05265 0.01835 0.31943 0.0
O61 O 0.12199 0.0022 0.35468 0.0
C62 C 0.18973 0.93606 0.26268 0.0
O63 O 0.07486 0.95184 0.22596 0.0
O64 O 0.06462 0.02889 0.21044 0.0
In65 In 0.25523 0.86989 0.53193 0.0
O66 O 0.21004 0.91366 0.59129 0.0
O67 O 0.19085 0.92047 0.51364 0.0
C68 C 0.33063 0.93462 0.51206 0.0
C69 C 0.24449 0.79237 0.59486 0.0
C70 C 0.25685 0.81068 0.45094 0.0
O71 O 0.30107 0.91872 0.4787 0.0
O72 O 0.3223 0.91817 0.55622 0.0
O73 O 0.29505 0.81624 0.47827 0.0
O74 O 0.21887 0.83485 0.4646 0.0
C75 C 0.1817 0.93264 0.55874 0.0
O76 O 0.20858 0.81028 0.57058 0.0
O77 O 0.28626 0.81458 0.5888 0.0
In78 In 0.37006 0.98473 0.73247 0.0
O79 O 0.3263 0.0299 0.6731 0.0
O80 O 0.31944 0.04907 0.75076 0.0
C81 C 0.30538 0.90929 0.75234 0.0
C82 C 0.44758 -0.00449 0.66955 0.0
C83 C 0.42928 0.98312 0.81347 0.0
O84 O 0.32125 0.93886 0.7857 0.0
O85 O 0.32182 0.91763 0.70819 0.0
O86 O 0.42373 0.94492 0.78613 0.0
O87 O 0.40509 0.02108 0.79981 0.0
C88 C 0.30729 0.05823 0.70565 0.0
O89 O 0.42967 0.0314 0.69385 0.0
O90 O 0.42538 0.95373 0.6756 0.0
In91 In 0.23076 0.11716 -0.00542 0.0
O92 O 0.27938 0.06348 0.03995 0.0
O93 O 0.29154 0.07079 0.96065 0.0
C94 C 0.14477 0.0618 -0.00257 0.0
C95 C 0.25575 0.18837 0.06313 0.0
C96 C 0.22745 0.16351 0.90439 0.0
O97 O 0.18184 0.05154 0.02438 0.0
O98 O 0.14931 0.10192 0.97315 0.0
O99 O 0.22159 0.1873 0.94494 0.0
O100 O 0.23774 0.11796 0.9097 0.0
C101 C 0.3039 0.05023 0.0017 0.0
O102 O 0.28809 0.16511 0.03841 0.0
O103 O 0.21105 0.17533 0.05394 0.0
In104 In 0.75505 0.36989 0.03188 0.0
O105 O 0.70848 0.31026 0.07059 0.0
O106 O 0.78616 0.31468 0.08879 0.0
C107 C 0.75674 0.31063 0.95093 0.0
C108 C 0.68141 0.43249 0.05868 0.0
C109 C 0.83038 0.43467 0.01194 0.0
O110 O 0.79493 0.31625 0.97826 0.0
O111 O 0.71874 0.33477 0.96458 0.0
O112 O 0.80081 0.41875 0.97861 0.0
O113 O 0.82208 0.41824 0.05611 0.0
C114 C 0.74441 0.29243 0.09489 0.0
O115 O 0.70987 0.41368 0.09123 0.0
O116 O 0.69052 0.42026 0.01359 0.0
In117 In 0.87007 0.48491 0.23248 0.0
O118 O 0.9297 0.53146 0.19375 0.0
O119 O 0.92527 0.45378 0.17557 0.0
C120 C 0.92933 0.4832 0.31342 0.0
C121 C 0.80748 0.55856 0.20569 0.0
C122 C 0.80527 0.40959 0.25241 0.0
O123 O 0.9237 0.44501 0.2861 0.0
O124 O 0.9052 0.52121 0.29978 0.0
O125 O 0.8212 0.43915 0.28575 0.0
O126 O 0.82169 0.41789 0.20824 0.0
C127 C 0.94752 0.49552 0.16946 0.0
O128 O 0.82627 0.53009 0.17314 0.0
O129 O 0.81972 0.54945 0.25078 0.0
In130 In 0.73071 0.61728 0.49453 0.0
O131 O 0.77934 0.56354 0.53985 0.0
O132 O 0.79154 0.57095 0.46058 0.0
C133 C 0.64482 0.56173 0.49729 0.0
C134 C 0.75552 0.68861 0.56304 0.0
C135 C 0.72754 0.66378 0.40441 0.0
O136 O 0.68158 0.55206 0.52492 0.0
O137 O 0.64959 0.60139 0.47231 0.0
O138 O 0.72131 0.68745 0.44498 0.0
O139 O 0.73811 0.61829 0.4097 0.0
C140 C 0.80389 0.55035 0.5016 0.0
O141 O 0.78792 0.66516 0.53857 0.0
O142 O 0.71084 0.6757 0.55361 0.0
In143 In 0.62265 0.50928 0.76985 0.0
O144 O 0.67638 0.46064 0.72452 0.0
O145 O 0.66896 0.44843 0.80379 0.0
C146 C 0.67821 0.59517 0.76708 0.0
C147 C 0.55133 0.48451 0.70133 0.0
C148 C 0.57618 0.51247 0.85998 0.0
O149 O 0.68793 0.55837 0.73952 0.0
O150 O 0.6385 0.59044 0.79198 0.0
O151 O 0.55249 0.51863 0.81942 0.0
O152 O 0.62169 0.50197 0.8547 0.0
C153 C 0.68956 0.43609 0.76277 0.0
O154 O 0.57476 0.4521 0.7258 0.0
O155 O 0.56425 0.52919 0.71076 0.0
In156 In -0.00486 0.74473 0.88209 0.0
O157 O 0.04697 0.77766 0.82068 0.0
O158 O 0.07682 0.73249 0.87945 0.0
C159 C 0.92406 0.74405 0.80952 0.0
C160 C 0.9812 0.65489 0.92354 0.0
C161 C -0.00412 0.81579 0.95469 0.0
O162 O 0.94333 0.70422 0.8245 0.0
O163 O 0.9413 0.78325 0.83019 0.0
O164 O 0.03569 0.79652 0.93968 0.0
O165 O 0.95666 0.79858 0.93403 0.0
C166 C 0.085 0.75858 0.84064 0.0
O167 O 0.9622 0.69295 0.94352 0.0
O168 O 0.00727 0.66303 0.88471 0.0
In169 In -0.01155 0.25149 0.63218 0.0
O170 O 0.95553 0.28618 0.5607 0.0
O171 O -0.00188 0.33261 0.61086 0.0
C172 C 0.01726 0.17565 0.57372 0.0
C173 C 0.06429 0.22269 0.69065 0.0
C174 C 0.91044 0.26906 0.69245 0.0
O175 O 0.04168 0.21639 0.57469 0.0
O176 O 0.97607 0.17597 0.59768 0.0
O177 O 0.95376 0.28442 0.70366 0.0
O178 O 0.90732 0.24185 0.65349 0.0
C179 C 0.97091 0.3295 0.5719 0.0
O180 O 0.02355 0.19826 0.68968 0.0
O181 O 0.06397 0.26388 0.66669 0.0
In182 In 0.49519 0.24486 0.38228 0.0
O183 O 0.54698 0.2778 0.32084 0.0
O184 O 0.57689 0.23273 0.37965 0.0
C185 C 0.42414 0.24411 0.30968 0.0
C186 C 0.48132 0.15502 0.42375 0.0
C187 C 0.49589 0.31595 0.45483 0.0
O188 O 0.44342 0.2043 0.32469 0.0
O189 O 0.44134 0.28333 0.33034 0.0
O190 O 0.53571 0.29665 0.43988 0.0
O191 O 0.45669 0.29874 0.43415 0.0
C192 C 0.58503 0.2588 0.34082 0.0
O193 O 0.46225 0.19305 0.44371 0.0
O194 O 0.50741 0.16318 0.38494 0.0
In195 In 0.48849 0.75152 0.13222 0.0
O196 O 0.54146 0.71613 0.07465 0.0
O197 O 0.47586 0.67592 0.09804 0.0
C198 C 0.47096 0.82952 0.07194 0.0
C199 C 0.41048 0.76905 0.19249 0.0
C200 C 0.56455 0.72301 0.19052 0.0
O201 O 0.45577 0.78617 0.06062 0.0
O202 O 0.498 0.83267 0.11101 0.0
O203 O 0.52383 0.69853 0.1898 0.0
O204 O 0.56411 0.76409 0.16638 0.0
C205 C 0.51694 0.67544 0.07392 0.0
O206 O 0.45383 0.78425 0.2038 0.0
O207 O 0.40733 0.742 0.15342 0.0
In208 In 0.85152 -0.00159 0.76633 0.0
O209 O 0.91202 0.94543 0.73359 0.0
O210 O 0.90721 0.01995 0.7059 0.0
C211 C 0.89108 -0.00654 0.8592 0.0
C212 C 0.80373 0.08484 0.78375 0.0
C213 C 0.78952 0.93565 0.71769 0.0
O214 O 0.90957 0.01969 0.82429 0.0
O215 O 0.85387 0.9665 0.84683 0.0
O216 O 0.80827 0.9736 0.69602 0.0
O217 O 0.79948 0.93233 0.7643 0.0
C218 C 0.92854 0.97812 0.70322 0.0
O219 O 0.78121 0.04324 0.7864 0.0
O220 O 0.84814 0.08293 0.76805 0.0
In221 In 0.75994 0.12626 0.5312 0.0
O222 O 0.81358 0.06597 0.50897 0.0
O223 O 0.83565 0.11464 0.56871 0.0
C224 C 0.67646 0.06967 0.53026 0.0
C225 C 0.72518 0.18513 0.60429 0.0
C226 C 0.77819 0.16871 0.44105 0.0
O227 O 0.71404 0.05618 0.55521 0.0
O228 O 0.68231 0.10951 0.50519 0.0
O229 O 0.79177 0.19077 0.481 0.0
O230 O 0.75461 0.12802 0.44765 0.0
C231 C 0.84683 0.07902 0.53984 0.0
O232 O 0.74166 0.20339 0.56346 0.0
O233 O 0.72977 0.13862 0.60889 0.0
In234 In 0.61385 0.98025 0.23322 0.0
O235 O 0.67419 0.92667 0.25546 0.0
O236 O 0.62567 0.90462 0.1956 0.0
C237 C 0.67035 0.06378 0.23423 0.0
C238 C 0.5549 0.01494 0.16013 0.0
C239 C 0.57144 0.96195 0.32339 0.0
O240 O 0.6839 0.02621 0.20928 0.0
O241 O 0.63048 0.0579 0.25924 0.0
O242 O 0.5494 0.94831 0.28344 0.0
O243 O 0.61208 -0.0144 0.31677 0.0
C244 C 0.66128 0.89347 0.2245 0.0
O245 O 0.53668 -0.0017 0.20091 0.0
O246 O 0.60144 0.01056 0.15558 0.0
In247 In 0.74161 0.88855 -0.00189 0.0
O248 O 0.69675 0.95881 0.97799 0.0
O249 O 0.6571 0.8919 -0.00351 0.0
C250 C 0.80433 0.95057 0.04676 0.0
C251 C 0.76213 0.81158 0.06121 0.0
C252 C 0.74647 0.84897 0.90524 0.0
O253 O 0.76639 0.93178 0.06842 0.0
O254 O 0.80762 0.94068 0.00013 0.0
O255 O 0.72027 0.83049 0.94017 0.0
O256 O 0.77347 0.88617 0.91758 0.0
C257 C 0.65516 0.93628 0.98071 0.0
O258 O 0.79474 0.82814 0.03077 0.0
O259 O 0.72025 0.83282 0.05857 0.0
In260 In 0.25971 0.62608 0.03119 0.0
O261 O 0.2417 0.70327 0.06349 0.0
O262 O 0.22935 0.63851 0.10881 0.0
C263 C 0.27804 0.66848 0.94102 0.0
C264 C 0.34647 0.57861 0.03994 0.0
C265 C 0.17618 0.56958 0.03017 0.0
O266 O 0.2917 0.69051 0.98097 0.0
O267 O 0.25436 0.62786 0.94764 0.0
O268 O 0.21375 0.55603 0.05512 0.0
O269 O 0.18206 0.60945 0.00516 0.0
C270 C 0.22503 0.68506 0.10426 0.0
O271 O 0.31328 0.56573 0.00894 0.0
O272 O 0.33531 0.6142 0.06884 0.0
In273 In 0.11373 0.48001 0.73315 0.0
O274 O 0.174 0.42636 0.75539 0.0
O275 O 0.12535 0.4043 0.69564 0.0
C276 C 0.17034 0.56347 0.7341 0.0
C277 C 0.05485 0.51478 0.66006 0.0
C278 C 0.07127 0.46176 0.8233 0.0
O279 O 0.18382 0.52589 0.70913 0.0
O280 O 0.1305 0.55763 0.75916 0.0
O281 O 0.04922 0.44817 0.78334 0.0
O282 O 0.11195 0.48535 0.8167 0.0
C283 C 0.16096 0.39312 0.72451 0.0
O284 O 0.03659 0.4983 0.7009 0.0
O285 O 0.10136 0.51019 0.65546 0.0
In286 In 0.24155 0.38841 0.49806 0.0
O287 O 0.29453 0.32791 0.53078 0.0
O288 O 0.22001 0.33273 0.55849 0.0
C289 C 0.24648 0.34886 0.40518 0.0
C290 C 0.15512 0.4362 0.48062 0.0
C291 C 0.30432 0.45042 0.54667 0.0
O292 O 0.22026 0.33036 0.44009 0.0
O293 O 0.27344 0.38607 0.41754 0.0
O294 O 0.26636 0.43169 0.56835 0.0
O295 O 0.30764 0.44043 0.50007 0.0
C296 C 0.26184 0.31139 0.56116 0.0
O297 O 0.19672 0.45872 0.47798 0.0
O298 O 0.15703 0.3918 0.49633 0.0
In299 In 0.35142 0.49835 0.26624 0.0
O300 O 0.41183 0.44521 0.23361 0.0
O301 O 0.40715 0.51968 0.20576 0.0
C302 C 0.39099 0.49352 0.35912 0.0
C303 C 0.30369 0.58481 0.28363 0.0
C304 C 0.28938 0.43564 0.21761 0.0
O305 O 0.40947 0.51972 0.32417 0.0
O306 O 0.35379 0.46653 0.34678 0.0
O307 O 0.30817 0.47357 0.19593 0.0
O308 O 0.29928 0.43235 0.26423 0.0
C309 C 0.42839 0.47779 0.20315 0.0
O310 O 0.28117 0.54322 0.28636 0.0
O311 O 0.34807 0.58287 0.26784 0.0
O312 O 0.96989 0.10848 0.00784 0.0
Zn313 Zn -0.0125 0.04006 0.98177 0.0
O314 O 0.9754 -0.0115 0.03087 0.0
Zn315 Zn 0.03423 0.95029 0.04551 0.0
Zn316 Zn 0.94203 0.01635 0.08874 0.0
Zn317 Zn 0.92551 0.94326 0.00826 0.0
O318 O 0.03227 0.88172 0.00651 0.0
O319 O 0.95184 0.88103 0.9869 0.0
O320 O 0.06108 0.05002 0.97349 0.0
O321 O 0.09368 -0.00575 0.02604 0.0
O322 O 0.0413 0.94732 0.12179 0.0
O323 O 0.98141 -0.00242 0.15043 0.0
O324 O 0.86591 0.00334 0.08329 0.0
O325 O 0.95101 0.02212 0.91773 0.0
O326 O 0.88276 0.92638 0.06651 0.0
O327 O 0.89279 0.96753 0.94456 0.0
C328 C 0.96137 0.12065 0.05336 0.0
C329 C -0.00616 0.86066 0.98629 0.0
C330 C 0.02055 0.9718 0.15734 0.0
C331 C 0.09795 0.03263 -0.0023 0.0
C332 C 0.85056 0.95909 0.07459 0.0
C333 C 0.91243 -0.00546 0.90994 0.0
O334 O 0.95248 0.08849 0.0873 0.0
O335 O 0.19785 0.69101 0.18692 0.0
Zn336 Zn 0.19967 0.7016 0.2607 0.0
O337 O 0.2432 0.75811 0.26972 0.0
Zn338 Zn 0.30236 0.74399 0.30749 0.0
Zn339 Zn 0.25475 0.79744 0.21033 0.0
Zn340 Zn 0.20692 0.8002 0.31016 0.0
O341 O 0.29746 0.77483 0.37919 0.0
O342 O 0.21523 0.78314 0.38038 0.0
O343 O 0.23413 0.63837 0.28282 0.0
O344 O 0.30874 0.66961 0.3048 0.0
O345 O 0.36321 0.76545 0.26737 0.0
O346 O 0.32811 0.79533 0.19742 0.0
O347 O 0.22381 0.86717 0.21811 0.0
O348 O 0.13048 0.71368 0.2921 0.0
O349 O 0.22837 0.86962 0.30131 0.0
O350 O 0.13508 0.79628 0.29769 0.0
C351 C 0.21247 0.71506 0.14806 0.0
C352 C 0.25691 0.78478 0.40255 0.0
C353 C 0.36612 0.78089 0.22193 0.0
C354 C 0.28008 0.63279 0.29379 0.0
C355 C 0.21941 0.89083 0.25973 0.0
C356 C 0.11019 0.75582 0.30057 0.0
O357 O 0.22979 0.75951 0.15036 0.0
O358 O 0.48949 0.87275 0.49691 0.0
Zn359 Zn 0.47793 0.93646 0.45835 0.0
O360 O 0.50794 -0.01372 0.50067 0.0
Zn361 Zn 0.46066 0.03109 0.52836 0.0
Zn362 Zn 0.55182 0.96208 0.55171 0.0
Zn363 Zn 0.54665 0.02242 0.45775 0.0
O364 O 0.461 0.09721 0.48951 0.0
O365 O 0.50884 0.0742 0.42524 0.0
O366 O 0.40292 0.94236 0.46259 0.0
O367 O 0.39503 -0.00664 0.52863 0.0
O368 O 0.47659 0.04178 0.60095 0.0
O369 O 0.51059 0.9681 0.61488 0.0
O370 O 0.61942 0.00221 0.5526 0.0
O371 O 0.50718 0.94043 0.38471 0.0
O372 O 0.60121 0.05534 0.49118 0.0
O373 O 0.57627 0.98057 0.40759 0.0
C374 C 0.52241 0.85881 0.52845 0.0
C375 C 0.48102 0.10566 0.44652 0.0
C376 C 0.48359 0.0041 0.62915 0.0
C377 C 0.37727 0.96047 0.49868 0.0
C378 C 0.62991 0.04082 0.52574 0.0
C379 C 0.55085 0.95794 0.37449 0.0
O380 O 0.55754 0.8879 0.54356 0.0
O381 O 0.22108 0.23269 0.84741 0.0
Zn382 Zn 0.24436 0.26769 0.78227 0.0
O383 O 0.24116 0.22477 0.72439 0.0
Zn384 Zn 0.30405 0.21802 0.69091 0.0
Zn385 Zn 0.20457 0.16717 0.74568 0.0
Zn386 Zn 0.19891 0.24651 0.67122 0.0
O387 O 0.3048 0.2665 0.62724 0.0
O388 O 0.22909 0.24433 0.60467 0.0
O389 O 0.31596 0.27972 0.8001 0.0
O390 O 0.35817 0.23719 0.74217 0.0
O391 O 0.30887 0.14224 0.68217 0.0
O392 O 0.23727 0.1085 0.71235 0.0
O393 O 0.12861 0.18293 0.73945 0.0
O394 O 0.20844 0.33095 0.76379 0.0
O395 O 0.14187 0.20267 0.66078 0.0
O396 O 0.17638 0.31545 0.68713 0.0
C397 C 0.22189 0.18549 0.85412 0.0
C398 C 0.26846 0.26894 0.59598 0.0
C399 C 0.28108 0.1043 0.69348 0.0
C400 C 0.35645 0.26169 0.78349 0.0
C401 C 0.11207 0.19755 0.69705 0.0
C402 C 0.18356 0.34408 0.72488 0.0
O403 O 0.21935 0.1555 0.81729 0.0
O404 O 0.00725 0.01886 0.41696 0.0
Zn405 Zn 0.97225 -0.00441 0.4821 0.0
O406 O 0.01516 -0.00122 0.53999 0.0
Zn407 Zn 0.0219 0.9359 0.57347 0.0
Zn408 Zn 0.07277 0.03536 0.5187 0.0
Zn409 Zn -0.00657 0.04104 0.59315 0.0
O410 O 0.97343 0.93515 0.63714 0.0
O411 O -0.00441 0.01087 0.6597 0.0
O412 O 0.96021 0.92399 0.46428 0.0
O413 O 0.00273 0.88177 0.52222 0.0
O414 O 0.09768 0.93107 0.58222 0.0
O415 O 0.13144 0.00267 0.55203 0.0
O416 O 0.05701 0.11133 0.52492 0.0
O417 O 0.909 0.03152 0.50057 0.0
O418 O 0.03728 0.09807 0.60359 0.0
O419 O 0.92449 0.06359 0.57723 0.0
C420 C 0.05445 0.01805 0.41026 0.0
C421 C 0.97099 0.9715 0.6684 0.0
C422 C 0.13563 0.95886 0.57091 0.0
C423 C 0.97824 0.8835 0.48089 0.0
C424 C 0.0424 0.12786 0.56732 0.0
C425 C 0.89587 0.0564 0.53948 0.0
O426 O 0.08444 0.02058 0.44709 0.0
O427 O 0.36729 0.75041 0.76749 0.0
Zn428 Zn 0.30357 0.76197 0.80605 0.0
O429 O 0.25375 0.73197 0.76373 0.0
Zn430 Zn 0.20893 0.77924 0.73605 0.0
Zn431 Zn 0.27795 0.68811 0.71268 0.0
Zn432 Zn 0.21761 0.69326 0.80665 0.0
O433 O 0.14281 0.7789 0.7749 0.0
O434 O 0.16581 0.73104 0.83916 0.0
O435 O 0.29768 0.83699 0.8018 0.0
O436 O 0.24665 0.84488 0.73577 0.0
O437 O 0.19824 0.76332 0.66346 0.0
O438 O 0.27193 0.72936 0.64951 0.0
O439 O 0.2378 0.62051 0.71175 0.0
O440 O 0.29959 0.73274 0.8797 0.0
O441 O 0.18471 0.63869 0.77322 0.0
O442 O 0.25947 0.66364 0.8568 0.0
C443 C 0.38122 0.7175 0.73594 0.0
C444 C 0.13436 0.75887 0.81788 0.0
C445 C 0.23592 0.75635 0.63525 0.0
C446 C 0.27955 0.86264 0.76572 0.0
C447 C 0.1992 0.61001 0.73862 0.0
C448 C 0.28207 0.68907 0.88991 0.0
O449 O 0.35214 0.68238 0.72082 0.0
O450 O 0.54897 0.04211 0.07747 0.0
Zn451 Zn 0.53838 0.0403 0.00369 0.0
O452 O 0.48186 -0.00322 -0.00533 0.0
Zn453 Zn 0.49598 0.93762 0.95691 0.0
Zn454 Zn 0.44254 0.98524 0.05407 0.0
Zn455 Zn 0.43978 0.03305 0.95424 0.0
O456 O 0.46513 0.9425 0.88522 0.0
O457 O 0.45685 0.02474 0.88401 0.0
O458 O 0.6016 0.00585 0.98155 0.0
O459 O 0.57036 0.93124 0.95957 0.0
O460 O 0.47454 0.87677 -0.00295 0.0
O461 O 0.44467 0.91188 0.067 0.0
O462 O 0.37279 0.01616 0.04628 0.0
O463 O 0.52629 0.10949 0.97229 0.0
O464 O 0.37035 0.0116 0.96307 0.0
O465 O 0.44369 0.10489 0.9667 0.0
C466 C 0.52491 0.02751 0.11633 0.0
C467 C 0.45518 0.98306 0.86185 0.0
C468 C 0.45911 0.87387 0.0425 0.0
C469 C 0.60717 0.9599 0.97057 0.0
C470 C 0.34913 0.02056 0.00465 0.0
C471 C 0.48415 0.12978 0.96382 0.0
O472 O 0.48045 0.01022 0.11403 0.0
O473 O 0.13144 0.27007 0.25654 0.0
Zn474 Zn 0.19987 0.25246 0.2826 0.0
O475 O 0.25142 0.26457 0.2335 0.0
Zn476 Zn 0.28964 0.20573 0.21886 0.0
Zn477 Zn 0.22357 0.29794 0.17564 0.0
Zn478 Zn 0.29666 0.31445 0.25612 0.0
O479 O 0.35821 0.2077 0.25786 0.0
O480 O 0.35889 0.28813 0.27748 0.0
O481 O 0.18991 0.17888 0.29088 0.0
O482 O 0.24569 0.14628 0.23833 0.0
O483 O 0.29261 0.19867 0.14259 0.0
O484 O 0.24234 0.25855 0.11395 0.0
O485 O 0.2366 0.37406 0.18108 0.0
O486 O 0.21782 0.28894 0.34664 0.0
O487 O 0.31355 0.3572 0.19786 0.0
O488 O 0.27239 0.34717 0.31981 0.0
C489 C 0.11927 0.27861 0.21102 0.0
C490 C 0.37926 0.24614 0.27809 0.0
C491 C 0.26812 0.21941 0.10704 0.0
C492 C 0.20731 0.14201 0.26666 0.0
C493 C 0.28085 0.3894 0.18978 0.0
C494 C 0.24539 0.32752 0.35444 0.0
O495 O 0.15143 0.28751 0.17709 0.0
O496 O 0.50696 0.51878 0.91694 0.0
Zn497 Zn 0.47195 0.49537 0.98203 0.0
O498 O 0.51484 0.49849 0.03993 0.0
Zn499 Zn 0.52159 0.43557 0.07334 0.0
Zn500 Zn 0.57243 0.53515 0.01874 0.0
Zn501 Zn 0.49306 0.54057 0.09321 0.0
O502 O 0.47311 0.43474 0.13703 0.0
O503 O 0.49562 0.51029 0.15971 0.0
O504 O 0.45998 0.42378 0.96409 0.0
O505 O 0.50243 0.3815 0.02203 0.0
O506 O 0.59737 0.43078 0.08208 0.0
O507 O 0.63109 0.50247 0.05208 0.0
O508 O 0.55665 0.6111 0.02508 0.0
O509 O 0.40868 0.53125 0.00058 0.0
O510 O 0.53664 0.59774 0.10368 0.0
O511 O 0.42404 0.56296 0.07741 0.0
C512 C 0.55417 0.51798 0.91026 0.0
C513 C 0.47085 0.47102 0.16837 0.0
C514 C 0.6353 0.45863 0.07087 0.0
C515 C 0.47798 0.38327 0.98068 0.0
C516 C 0.54189 0.62757 0.06746 0.0
C517 C 0.39548 0.55594 0.03958 0.0
O518 O 0.58414 0.52045 0.9471 0.0
O519 O 0.86728 0.25076 0.26754 0.0
Zn520 Zn 0.80357 0.2623 0.30614 0.0
O521 O 0.75374 0.23227 0.26384 0.0
Zn522 Zn 0.7089 0.27949 0.23616 0.0
Zn523 Zn 0.77795 0.18838 0.21285 0.0
Zn524 Zn 0.71761 0.19356 0.30677 0.0
O525 O 0.64279 0.2791 0.27502 0.0
O526 O 0.6659 0.23139 0.33935 0.0
O527 O 0.7976 0.33731 0.3019 0.0
O528 O 0.74656 0.34515 0.23588 0.0
O529 O 0.69822 0.26351 0.16357 0.0
O530 O 0.77191 0.22954 0.14965 0.0
O531 O 0.73782 0.1208 0.21195 0.0
O532 O 0.79963 0.23302 0.37976 0.0
O533 O 0.68464 0.13903 0.27333 0.0
O534 O 0.75953 0.16391 0.35685 0.0
C535 C 0.8812 0.21779 0.23605 0.0
C536 C 0.63439 0.25914 0.31805 0.0
C537 C 0.73588 0.2565 0.13536 0.0
C538 C 0.77945 0.36295 0.26582 0.0
C539 C 0.69918 0.11032 0.23877 0.0
C540 C 0.78215 0.18933 0.38996 0.0
O541 O 0.85212 0.18263 0.22102 0.0
O542 O 0.04897 0.54198 0.57742 0.0
Zn543 Zn 0.03839 0.54027 0.50366 0.0
O544 O 0.98184 0.49679 0.49462 0.0
Zn545 Zn -0.00406 0.43762 0.45687 0.0
Zn546 Zn 0.94248 0.48525 0.554 0.0
Zn547 Zn 0.93982 0.53312 0.45417 0.0
O548 O 0.9651 0.44253 0.38518 0.0
O549 O 0.95697 0.52479 0.38396 0.0
O550 O 0.1016 0.5058 0.48149 0.0
O551 O 0.07032 0.43122 0.4595 0.0
O552 O 0.9745 0.37676 0.49702 0.0
O553 O 0.94461 0.41187 0.56695 0.0
O554 O 0.87275 0.5162 0.54617 0.0
O555 O 0.02637 0.60953 0.47236 0.0
O556 O 0.87036 0.51177 0.46295 0.0
O557 O 0.94378 0.60496 0.46665 0.0
C558 C 0.02487 0.52743 0.61628 0.0
C559 C 0.95524 0.4831 0.3618 0.0
C560 C 0.95907 0.37386 0.54246 0.0
C561 C 0.10715 0.45985 0.47049 0.0
C562 C 0.84912 0.52068 0.50454 0.0
C563 C 0.98424 0.62984 0.46387 0.0
O564 O 0.98037 0.51023 0.61398 0.0
O565 O 0.72118 0.73299 0.34746 0.0
Zn566 Zn 0.74458 0.76801 0.28237 0.0
O567 O 0.74146 0.72512 0.22446 0.0
Zn568 Zn 0.80437 0.71838 0.19103 0.0
Zn569 Zn 0.70482 0.66753 0.24567 0.0
Zn570 Zn 0.69934 0.74688 0.17121 0.0
O571 O 0.80518 0.76685 0.12734 0.0
O572 O 0.72959 0.7444 0.1047 0.0
O573 O 0.81617 0.77999 0.3003 0.0
O574 O 0.85845 0.73755 0.24234 0.0
O575 O 0.80917 0.6426 0.1823 0.0
O576 O 0.73749 0.60887 0.21231 0.0
O577 O 0.62887 0.6833 0.23937 0.0
O578 O 0.70869 0.83127 0.26383 0.0
O579 O 0.64222 0.70321 0.16075 0.0
O580 O 0.67689 0.81588 0.18704 0.0
C581 C 0.72202 0.68579 0.35415 0.0
C582 C 0.76888 0.76914 0.09602 0.0
C583 C 0.78132 0.60467 0.19351 0.0
C584 C 0.85668 0.762 0.28369 0.0
C585 C 0.61239 0.69801 0.19698 0.0
C586 C 0.68395 0.84445 0.22485 0.0
O587 O 0.71956 0.65582 0.3173 0.0
O588 O 0.69797 0.19101 0.68693 0.0
Zn589 Zn 0.69967 0.20158 0.7607 0.0
O590 O 0.74315 0.25814 0.76973 0.0
Zn591 Zn 0.80232 0.24403 0.80748 0.0
Zn592 Zn 0.75469 0.2975 0.71036 0.0
Zn593 Zn 0.70682 0.30015 0.81019 0.0
O594 O 0.79741 0.27487 0.87917 0.0
O595 O 0.71515 0.283 0.8804 0.0
O596 O 0.73413 0.13837 0.78286 0.0
O597 O 0.80872 0.16965 0.80486 0.0
O598 O 0.86317 0.26546 0.76734 0.0
O599 O 0.82807 0.29537 0.69741 0.0
O600 O 0.72373 0.36723 0.71819 0.0
O601 O 0.63041 0.21359 0.79199 0.0
O602 O 0.72815 0.36961 0.80141 0.0
O603 O 0.63498 0.29618 0.79771 0.0
C604 C 0.71252 0.21511 0.64807 0.0
C605 C 0.75684 0.28472 0.90256 0.0
C606 C 0.86608 0.2809 0.7219 0.0
C607 C 0.78008 0.13282 0.79387 0.0
C608 C 0.71924 0.39085 0.75983 0.0
C609 C 0.6101 0.25572 0.80048 0.0
O610 O 0.72971 0.25961 0.65038 0.0
O611 O 0.63139 0.7695 0.75675 0.0
Zn612 Zn 0.69991 0.75231 0.78281 0.0
O613 O 0.75128 0.76461 0.73356 0.0
Zn614 Zn 0.7895 0.70583 0.71874 0.0
Zn615 Zn 0.72331 0.7981 0.67579 0.0
Zn616 Zn 0.79656 0.81446 0.75615 0.0
O617 O 0.8581 0.70771 0.75769 0.0
O618 O 0.85877 0.78811 0.77747 0.0
O619 O 0.69028 0.67872 0.79134 0.0
O620 O 0.74554 0.64635 0.7381 0.0
O621 O 0.79247 0.69894 0.64245 0.0
O622 O 0.74187 0.75865 0.61403 0.0
O623 O 0.73655 0.87419 0.68122 0.0
O624 O 0.7178 0.789 0.84675 0.0
O625 O 0.81349 0.85717 0.69788 0.0
O626 O 0.77235 0.84722 0.81986 0.0
C627 C 0.61907 0.77855 0.71137 0.0
C628 C 0.87915 0.74612 0.77798 0.0
C629 C 0.76779 0.71962 0.607 0.0
C630 C 0.70743 0.64195 0.76678 0.0
C631 C 0.78085 0.88944 0.68985 0.0
C632 C 0.74536 0.8276 0.8545 0.0
O633 O 0.65112 0.78789 0.67744 0.0
O634 O 0.47054 0.60861 0.50758 0.0
Zn635 Zn 0.48768 0.54008 0.48153 0.0
O636 O 0.47535 0.48874 0.5308 0.0
Zn637 Zn 0.53411 0.4505 0.54564 0.0
Zn638 Zn 0.44183 0.51672 0.58855 0.0
Zn639 Zn 0.42549 0.44346 0.5082 0.0
O640 O 0.53223 0.3819 0.50669 0.0
O641 O 0.45185 0.38127 0.48686 0.0
O642 O 0.56128 0.54966 0.47298 0.0
O643 O 0.59361 0.49444 0.52629 0.0
O644 O 0.54097 0.44753 0.62193 0.0
O645 O 0.48131 0.4982 0.65031 0.0
O646 O 0.36574 0.50343 0.58314 0.0
O647 O 0.45097 0.52219 0.41759 0.0
O648 O 0.38281 0.42651 0.56648 0.0
O649 O 0.39272 0.46768 0.4445 0.0
C650 C 0.4614 0.62095 0.55293 0.0
C651 C 0.49383 0.36086 0.48637 0.0
C652 C 0.52032 0.47226 0.65736 0.0
C653 C 0.59803 0.53252 0.49758 0.0
C654 C 0.35052 0.45912 0.57451 0.0
C655 C 0.41235 0.49465 0.40985 0.0
O656 O 0.45199 0.58892 0.58686 0.0
O657 O -0.01078 0.37264 -0.0032 0.0
Zn658 Zn 0.97768 0.43635 0.95821 0.0
O659 O 0.0077 0.48618 0.00051 0.0
Zn660 Zn 0.96049 0.53103 0.02819 0.0
Zn661 Zn 0.05159 0.46197 0.05151 0.0
Zn662 Zn 0.04642 0.5223 0.95758 0.0
O663 O 0.96089 0.59714 0.98933 0.0
O664 O 0.0086 0.57403 0.925 0.0
O665 O 0.90266 0.44232 0.96245 0.0
O666 O 0.89482 0.49337 0.02847 0.0
O667 O 0.97646 0.54171 0.10078 0.0
O668 O 0.01041 0.468 0.1147 0.0
O669 O 0.11916 0.50211 0.05243 0.0
O670 O 0.00696 0.4403 0.88458 0.0
O671 O 0.10095 0.55527 -0.00897 0.0
O672 O 0.07607 0.48039 0.9075 0.0
C673 C 0.02219 0.35872 0.02829 0.0
C674 C 0.98085 0.60554 0.94631 0.0
C675 C 0.98346 0.50404 0.12899 0.0
C676 C 0.87703 0.46048 -0.00147 0.0
C677 C 0.12964 0.54074 0.0256 0.0
C678 C 0.05065 0.45778 0.87439 0.0
O679 O 0.05734 0.3878 0.04333 0.0
loop_
_geom_bond_atom_site_label_1
_geom_bond_atom_site_label_2
_geom_bond_distance
_geom_bond_site_symmetry_2
_ccdc_geom_bond_type
In0 O1 2.294 1_455 S
In0 O2 2.326 1_455 S
In0 O6 2.266 . S
In0 O7 2.326 . S
In0 O8 2.266 . S
In0 O9 2.326 . S
In0 O11 2.294 1_455 S
In0 O12 2.326 1_455 S
O1 In0 2.294 1_655 S
O1 C10 1.240 . S
O2 In0 2.326 1_655 S
O2 C10 1.253 . S
C3 O6 1.252 . S
C3 O7 1.260 . S
C4 O11 1.240 . S
C4 O12 1.252 . S
C5 O8 1.252 . S
C5 O9 1.260 . S
O6 In0 2.266 . S
O6 C3 1.252 . S
O7 In0 2.326 . S
O7 C3 1.260 . S
O8 In0 2.266 . S
O8 C5 1.252 . S
O9 In0 2.326 . S
O9 C5 1.260 . S
C10 O1 1.240 . S
C10 O2 1.253 . S
O11 In0 2.294 1_655 S
O11 C4 1.240 . S
O12 In0 2.326 1_655 S
O12 C4 1.252 . S
In13 O14 2.294 . S
In13 O15 2.326 . S
In13 O19 2.266 1_455 S
In13 O20 2.326 1_455 S
In13 O21 2.266 1_455 S
In13 O22 2.326 . S
In13 O24 2.294 . S
In13 O25 2.326 . S
O14 In13 2.294 . S
O14 C23 1.240 . S
O15 In13 2.326 . S
O15 C23 1.252 . S
C16 O19 1.252 . S
C16 O20 1.260 . S
C17 O24 1.240 . S
C17 O25 1.252 . S
C18 O21 1.252 . S
C18 O22 1.259 1_655 S
O19 In13 2.266 1_655 S
O19 C16 1.252 . S
O20 In13 2.326 1_655 S
O20 C16 1.260 . S
O21 In13 2.266 1_655 S
O21 C18 1.252 . S
O22 In13 2.326 . S
O22 C18 1.259 1_455 S
C23 O14 1.240 . S
C23 O15 1.252 . S
O24 In13 2.294 . S
O24 C17 1.240 . S
O25 In13 2.326 . S
O25 C17 1.252 . S
In26 O27 2.294 . S
In26 O28 2.326 . S
In26 O32 2.266 . S
In26 O33 2.326 . S
In26 O34 2.266 . S
In26 O35 2.326 . S
In26 O37 2.294 . S
In26 O38 2.326 . S
O27 In26 2.294 . S
O27 C36 1.240 . S
O28 In26 2.326 . S
O28 C36 1.252 . S
C29 O32 1.252 . S
C29 O33 1.260 . S
C30 O37 1.240 . S
C30 O38 1.252 . S
C31 O34 1.252 . S
C31 O35 1.260 . S
O32 In26 2.266 . S
O32 C29 1.252 . S
O33 In26 2.326 . S
O33 C29 1.260 . S
O34 In26 2.266 . S
O34 C31 1.252 . S
O35 In26 2.326 . S
O35 C31 1.260 . S
C36 O27 1.240 . S
C36 O28 1.252 . S
O37 In26 2.294 . S
O37 C30 1.240 . S
O38 In26 2.326 . S
O38 C30 1.252 . S
In39 O40 2.294 . S
In39 O41 2.326 . S
In39 O45 2.266 . S
In39 O46 2.326 . S
In39 O47 2.266 . S
In39 O48 2.326 . S
In39 O50 2.294 . S
In39 O51 2.326 . S
O40 In39 2.294 . S
O40 C49 1.240 . S
O41 In39 2.326 . S
O41 C49 1.252 . S
C42 O45 1.252 . S
C42 O46 1.260 . S
C43 O50 1.240 . S
C43 O51 1.252 . S
C44 O47 1.252 . S
C44 O48 1.260 . S
O45 In39 2.266 . S
O45 C42 1.252 . S
O46 In39 2.326 . S
O46 C42 1.260 . S
O47 In39 2.266 . S
O47 C44 1.252 . S
O48 In39 2.326 . S
O48 C44 1.260 . S
C49 O40 1.240 . S
C49 O41 1.252 . S
O50 In39 2.294 . S
O50 C43 1.240 . S
O51 In39 2.326 . S
O51 C43 1.252 . S
In52 O53 2.294 1_545 S
In52 O54 2.326 1_545 S
In52 O58 2.266 . S
In52 O59 2.326 . S
In52 O60 2.266 . S
In52 O61 2.326 . S
In52 O63 2.294 . S
In52 O64 2.326 . S
O53 In52 2.294 1_565 S
O53 C62 1.240 . S
O54 In52 2.326 1_565 S
O54 C62 1.252 . S
C55 O58 1.252 . S
C55 O59 1.260 . S
C56 O63 1.240 . S
C56 O64 1.252 . S
C57 O60 1.252 . S
C57 O61 1.260 . S
O58 In52 2.266 . S
O58 C55 1.252 . S
O59 In52 2.326 . S
O59 C55 1.260 . S
O60 In52 2.266 . S
O60 C57 1.252 . S
O61 In52 2.326 . S
O61 C57 1.260 . S
C62 O53 1.240 . S
C62 O54 1.252 . S
O63 In52 2.294 . S
O63 C56 1.240 . S
O64 In52 2.326 . S
O64 C56 1.252 . S
In65 O66 2.294 . S
In65 O67 2.326 . S
In65 O71 2.266 . S
In65 O72 2.326 . S
In65 O73 2.266 . S
In65 O74 2.326 . S
In65 O76 2.294 . S
In65 O77 2.326 . S
O66 In65 2.294 . S
O66 C75 1.240 . S
O67 In65 2.326 . S
O67 C75 1.252 . S
C68 O71 1.252 . S
C68 O72 1.260 . S
C69 O76 1.240 . S
C69 O77 1.252 . S
C70 O73 1.252 . S
C70 O74 1.260 . S
O71 In65 2.266 . S
O71 C68 1.252 . S
O72 In65 2.326 . S
O72 C68 1.260 . S
O73 In65 2.266 . S
O73 C70 1.252 . S
O74 In65 2.326 . S
O74 C70 1.260 . S
C75 O66 1.240 . S
C75 O67 1.252 . S
O76 In65 2.294 . S
O76 C69 1.240 . S
O77 In65 2.326 . S
O77 C69 1.252 . S
In78 O79 2.294 . S
In78 O80 2.326 . S
In78 O84 2.266 1_545 S
In78 O85 2.326 1_545 S
In78 O86 2.266 1_545 S
In78 O87 2.326 1_545 S
In78 O89 2.294 . S
In78 O90 2.326 . S
O79 In78 2.294 . S
O79 C88 1.240 . S
O80 In78 2.326 . S
O80 C88 1.252 . S
C81 O84 1.252 . S
C81 O85 1.260 . S
C82 O89 1.240 . S
C82 O90 1.252 . S
C83 O86 1.252 . S
C83 O87 1.260 . S
O84 In78 2.266 1_565 S
O84 C81 1.252 . S
O85 In78 2.326 1_565 S
O85 C81 1.260 . S
O86 In78 2.266 1_565 S
O86 C83 1.252 . S
O87 In78 2.326 1_565 S
O87 C83 1.260 . S
C88 O79 1.240 . S
C88 O80 1.252 . S
O89 In78 2.294 . S
O89 C82 1.240 . S
O90 In78 2.326 . S
O90 C82 1.252 . S
In91 O92 2.294 . S
In91 O93 2.326 . S
In91 O97 2.266 . S
In91 O98 2.326 . S
In91 O99 2.266 1_554 S
In91 O100 2.326 1_554 S
In91 O102 2.294 . S
In91 O103 2.326 . S
O92 In91 2.294 . S
O92 C101 1.240 . S
O93 In91 2.326 . S
O93 C101 1.252 . S
C94 O97 1.252 . S
C94 O98 1.260 . S
C95 O102 1.240 . S
C95 O103 1.252 . S
C96 O99 1.252 . S
C96 O100 1.260 . S
O97 In91 2.266 . S
O97 C94 1.252 . S
O98 In91 2.326 . S
O98 C94 1.260 . S
O99 In91 2.266 1_556 S
O99 C96 1.252 . S
O100 In91 2.326 1_556 S
O100 C96 1.260 . S
C101 O92 1.240 . S
C101 O93 1.252 . S
O102 In91 2.294 . S
O102 C95 1.240 . S
O103 In91 2.326 . S
O103 C95 1.252 . S
In104 O105 2.294 . S
In104 O106 2.326 . S
In104 O110 2.266 1_554 S
In104 O111 2.326 1_554 S
In104 O112 2.266 . S
In104 O113 2.326 . S
In104 O115 2.294 . S
In104 O116 2.326 . S
O105 In104 2.294 . S
O105 C114 1.240 . S
O106 In104 2.326 . S
O106 C114 1.252 . S
C107 O110 1.252 . S
C107 O111 1.260 . S
C108 O115 1.240 . S
C108 O116 1.252 . S
C109 O112 1.252 . S
C109 O113 1.260 . S
O110 In104 2.266 1_556 S
O110 C107 1.252 . S
O111 In104 2.326 1_556 S
O111 C107 1.260 . S
O112 In104 2.266 . S
O112 C109 1.252 . S
O113 In104 2.326 . S
O113 C109 1.260 . S
C114 O105 1.240 . S
C114 O106 1.252 . S
O115 In104 2.294 . S
O115 C108 1.240 . S
O116 In104 2.326 . S
O116 C108 1.252 . S
In117 O118 2.294 . S
In117 O119 2.326 . S
In117 O123 2.266 . S
In117 O124 2.326 . S
In117 O125 2.266 . S
In117 O126 2.326 . S
In117 O128 2.294 . S
In117 O129 2.326 . S
O118 In117 2.294 . S
O118 C127 1.240 . S
O119 In117 2.326 . S
O119 C127 1.252 . S
C120 O123 1.252 . S
C120 O124 1.260 . S
C121 O128 1.240 . S
C121 O129 1.252 . S
C122 O125 1.252 . S
C122 O126 1.260 . S
O123 In117 2.266 . S
O123 C120 1.252 . S
O124 In117 2.326 . S
O124 C120 1.260 . S
O125 In117 2.266 . S
O125 C122 1.252 . S
O126 In117 2.326 . S
O126 C122 1.260 . S
C127 O118 1.240 . S
C127 O119 1.252 . S
O128 In117 2.294 . S
O128 C121 1.240 . S
O129 In117 2.326 . S
O129 C121 1.252 . S
In130 O131 2.294 . S
In130 O132 2.326 . S
In130 O136 2.266 . S
In130 O137 2.326 . S
In130 O138 2.266 . S
In130 O139 2.326 . S
In130 O141 2.294 . S
In130 O142 2.326 . S
O131 In130 2.294 . S
O131 C140 1.240 . S
O132 In130 2.326 . S
O132 C140 1.252 . S
C133 O136 1.252 . S
C133 O137 1.260 . S
C134 O141 1.240 . S
C134 O142 1.252 . S
C135 O138 1.252 . S
C135 O139 1.260 . S
O136 In130 2.266 . S
O136 C133 1.252 . S
O137 In130 2.326 . S
O137 C133 1.260 . S
O138 In130 2.266 . S
O138 C135 1.252 . S
O139 In130 2.326 . S
O139 C135 1.260 . S
C140 O131 1.240 . S
C140 O132 1.252 . S
O141 In130 2.294 . S
O141 C134 1.240 . S
O142 In130 2.326 . S
O142 C134 1.252 . S
In143 O144 2.294 . S
In143 O145 2.326 . S
In143 O149 2.266 . S
In143 O150 2.326 . S
In143 O151 2.266 . S
In143 O152 2.326 . S
In143 O154 2.294 . S
In143 O155 2.326 . S
O144 In143 2.294 . S
O144 C153 1.240 . S
O145 In143 2.326 . S
O145 C153 1.252 . S
C146 O149 1.252 . S
C146 O150 1.260 . S
C147 O154 1.240 . S
C147 O155 1.252 . S
C148 O151 1.252 . S
C148 O152 1.260 . S
O149 In143 2.266 . S
O149 C146 1.252 . S
O150 In143 2.326 . S
O150 C146 1.260 . S
O151 In143 2.266 . S
O151 C148 1.252 . S
O152 In143 2.326 . S
O152 C148 1.260 . S
C153 O144 1.240 . S
C153 O145 1.252 . S
O154 In143 2.294 . S
O154 C147 1.240 . S
O155 In143 2.326 . S
O155 C147 1.252 . S
In156 O157 2.294 . S
In156 O158 2.326 . S
In156 O162 2.266 1_455 S
In156 O163 2.326 1_455 S
In156 O164 2.266 1_455 S
In156 O165 2.326 . S
In156 O167 2.294 . S
In156 O168 2.326 . S
O157 In156 2.294 . S
O157 C166 1.240 . S
O158 In156 2.326 . S
O158 C166 1.252 . S
C159 O162 1.252 . S
C159 O163 1.260 . S
C160 O167 1.240 . S
C160 O168 1.252 . S
C161 O164 1.252 . S
C161 O165 1.260 1_655 S
O162 In156 2.266 1_655 S
O162 C159 1.252 . S
O163 In156 2.326 1_655 S
O163 C159 1.260 . S
O164 In156 2.266 1_655 S
O164 C161 1.252 . S
O165 In156 2.326 . S
O165 C161 1.260 1_455 S
C166 O157 1.240 . S
C166 O158 1.252 . S
O167 In156 2.294 . S
O167 C160 1.240 . S
O168 In156 2.326 . S
O168 C160 1.252 . S
In169 O170 2.294 . S
In169 O171 2.326 . S
In169 O175 2.266 1_455 S
In169 O176 2.326 . S
In169 O177 2.266 1_455 S
In169 O178 2.326 1_455 S
In169 O180 2.294 . S
In169 O181 2.326 . S
O170 In169 2.294 . S
O170 C179 1.240 . S
O171 In169 2.326 . S
O171 C179 1.252 . S
C172 O175 1.252 . S
C172 O176 1.260 1_655 S
C173 O180 1.240 . S
C173 O181 1.252 . S
C174 O177 1.252 . S
C174 O178 1.260 . S
O175 In169 2.266 1_655 S
O175 C172 1.252 . S
O176 In169 2.326 . S
O176 C172 1.260 1_455 S
O177 In169 2.266 1_655 S
O177 C174 1.252 . S
O178 In169 2.326 1_655 S
O178 C174 1.260 . S
C179 O170 1.240 . S
C179 O171 1.252 . S
O180 In169 2.294 . S
O180 C173 1.240 . S
O181 In169 2.326 . S
O181 C173 1.252 . S
In182 O183 2.294 . S
In182 O184 2.326 . S
In182 O188 2.266 . S
In182 O189 2.326 . S
In182 O190 2.266 . S
In182 O191 2.326 . S
In182 O193 2.294 . S
In182 O194 2.326 . S
O183 In182 2.294 . S
O183 C192 1.240 . S
O184 In182 2.326 . S
O184 C192 1.252 . S
C185 O188 1.252 . S
C185 O189 1.260 . S
C186 O193 1.240 . S
C186 O194 1.252 . S
C187 O190 1.252 . S
C187 O191 1.260 . S
O188 In182 2.266 . S
O188 C185 1.252 . S
O189 In182 2.326 . S
O189 C185 1.260 . S
O190 In182 2.266 . S
O190 C187 1.252 . S
O191 In182 2.326 . S
O191 C187 1.260 . S
C192 O183 1.240 . S
C192 O184 1.252 . S
O193 In182 2.294 . S
O193 C186 1.240 . S
O194 In182 2.326 . S
O194 C186 1.252 . S
In195 O196 2.294 . S
In195 O197 2.326 . S
In195 O201 2.266 . S
In195 O202 2.326 . S
In195 O203 2.266 . S
In195 O204 2.326 . S
In195 O206 2.294 . S
In195 O207 2.326 . S
O196 In195 2.294 . S
O196 C205 1.240 . S
O197 In195 2.326 . S
O197 C205 1.252 . S
C198 O201 1.252 . S
C198 O202 1.260 . S
C199 O206 1.240 . S
C199 O207 1.252 . S
C200 O203 1.252 . S
C200 O204 1.260 . S
O201 In195 2.266 . S
O201 C198 1.252 . S
O202 In195 2.326 . S
O202 C198 1.260 . S
O203 In195 2.266 . S
O203 C200 1.252 . S
O204 In195 2.326 . S
O204 C200 1.260 . S
C205 O196 1.240 . S
C205 O197 1.252 . S
O206 In195 2.294 . S
O206 C199 1.240 . S
O207 In195 2.326 . S
O207 C199 1.252 . S
In208 O209 2.294 . S
In208 O210 2.326 . S
In208 O214 2.266 . S
In208 O215 2.326 . S
In208 O216 2.266 1_545 S
In208 O217 2.326 1_545 S
In208 O219 2.294 . S
In208 O220 2.326 . S
O209 In208 2.294 . S
O209 C218 1.240 . S
O210 In208 2.326 . S
O210 C218 1.252 . S
C211 O214 1.252 . S
C211 O215 1.260 . S
C212 O219 1.240 . S
C212 O220 1.252 . S
C213 O216 1.252 . S
C213 O217 1.260 . S
O214 In208 2.266 . S
O214 C211 1.252 . S
O215 In208 2.326 . S
O215 C211 1.260 . S
O216 In208 2.266 1_565 S
O216 C213 1.252 . S
O217 In208 2.326 1_565 S
O217 C213 1.260 . S
C218 O209 1.240 . S
C218 O210 1.252 . S
O219 In208 2.294 . S
O219 C212 1.240 . S
O220 In208 2.326 . S
O220 C212 1.252 . S
In221 O222 2.294 . S
In221 O223 2.326 . S
In221 O227 2.266 . S
In221 O228 2.326 . S
In221 O229 2.266 . S
In221 O230 2.326 . S
In221 O232 2.294 . S
In221 O233 2.326 . S
O222 In221 2.294 . S
O222 C231 1.240 . S
O223 In221 2.326 . S
O223 C231 1.252 . S
C224 O227 1.252 . S
C224 O228 1.260 . S
C225 O232 1.240 . S
C225 O233 1.252 . S
C226 O229 1.252 . S
C226 O230 1.260 . S
O227 In221 2.266 . S
O227 C224 1.252 . S
O228 In221 2.326 . S
O228 C224 1.260 . S
O229 In221 2.266 . S
O229 C226 1.252 . S
O230 In221 2.326 . S
O230 C226 1.260 . S
C231 O222 1.240 . S
C231 O223 1.252 . S
O232 In221 2.294 . S
O232 C225 1.240 . S
O233 In221 2.326 . S
O233 C225 1.252 . S
In234 O235 2.286 1_545 S
In234 O236 2.315 1_545 S
In234 O240 2.274 . S
In234 O241 2.337 . S
In234 O242 2.268 . S
In234 O243 2.326 . S
In234 O245 2.293 1_545 S
In234 O246 2.325 1_545 S
O235 In234 2.286 1_565 S
O235 C244 1.240 . S
O236 In234 2.315 1_565 S
O236 C244 1.252 . S
C237 O240 1.252 . S
C237 O241 1.260 . S
C238 O245 1.240 . S
C238 O246 1.252 . S
C239 O242 1.252 . S
C239 O243 1.260 . S
O240 In234 2.274 . S
O240 C237 1.252 . S
O241 In234 2.337 . S
O241 C237 1.260 . S
O242 In234 2.268 . S
O242 C239 1.252 . S
O243 In234 2.326 . S
O243 C239 1.260 . S
C244 O235 1.240 . S
C244 O236 1.252 . S
O245 In234 2.293 1_565 S
O245 C238 1.240 . S
O246 In234 2.325 1_565 S
O246 C238 1.252 . S
In247 O248 2.294 . S
In247 O249 2.326 . S
In247 O253 2.266 1_554 S
In247 O254 2.326 . S
In247 O255 2.266 1_554 S
In247 O256 2.326 1_554 S
In247 O258 2.294 . S
In247 O259 2.326 . S
O248 In247 2.294 . S
O248 C257 1.240 . S
O249 In247 2.326 . S
O249 C257 1.252 . S
C250 O253 1.252 . S
C250 O254 1.260 1_556 S
C251 O258 1.240 . S
C251 O259 1.252 . S
C252 O255 1.252 . S
C252 O256 1.260 . S
O253 In247 2.266 1_556 S
O253 C250 1.252 . S
O254 In247 2.326 . S
O254 C250 1.260 1_554 S
O255 In247 2.266 1_556 S
O255 C252 1.252 . S
O256 In247 2.326 1_556 S
O256 C252 1.260 . S
C257 O248 1.240 . S
C257 O249 1.252 . S
O258 In247 2.294 . S
O258 C251 1.240 . S
O259 In247 2.326 . S
O259 C251 1.252 . S
In260 O261 2.294 . S
In260 O262 2.326 . S
In260 O266 2.266 1_554 S
In260 O267 2.326 1_554 S
In260 O268 2.266 1_554 S
In260 O269 2.325 1_554 S
In260 O271 2.294 . S
In260 O272 2.326 . S
O261 In260 2.294 . S
O261 C270 1.240 . S
O262 In260 2.326 . S
O262 C270 1.252 . S
C263 O266 1.252 . S
C263 O267 1.260 . S
C264 O271 1.240 . S
C264 O272 1.252 . S
C265 O268 1.252 . S
C265 O269 1.261 . S
O266 In260 2.266 1_556 S
O266 C263 1.252 . S
O267 In260 2.326 1_556 S
O267 C263 1.260 . S
O268 In260 2.266 1_556 S
O268 C265 1.252 . S
O269 In260 2.325 1_556 S
O269 C265 1.261 . S
C270 O261 1.240 . S
C270 O262 1.252 . S
O271 In260 2.294 . S
O271 C264 1.240 . S
O272 In260 2.326 . S
O272 C264 1.252 . S
In273 O274 2.294 . S
In273 O275 2.326 . S
In273 O279 2.266 . S
In273 O280 2.326 . S
In273 O281 2.266 . S
In273 O282 2.326 . S
In273 O284 2.294 . S
In273 O285 2.326 . S
O274 In273 2.294 . S
O274 C283 1.240 . S
O275 In273 2.326 . S
O275 C283 1.252 . S
C276 O279 1.252 . S
C276 O280 1.260 . S
C277 O284 1.240 . S
C277 O285 1.252 . S
C278 O281 1.252 . S
C278 O282 1.260 . S
O279 In273 2.266 . S
O279 C276 1.252 . S
O280 In273 2.326 . S
O280 C276 1.260 . S
O281 In273 2.266 . S
O281 C278 1.252 . S
O282 In273 2.326 . S
O282 C278 1.260 . S
C283 O274 1.240 . S
C283 O275 1.252 . S
O284 In273 2.294 . S
O284 C277 1.240 . S
O285 In273 2.326 . S
O285 C277 1.252 . S
In286 O287 2.294 . S
In286 O288 2.326 . S
In286 O292 2.266 . S
In286 O293 2.326 . S
In286 O294 2.266 . S
In286 O295 2.326 . S
In286 O297 2.294 . S
In286 O298 2.326 . S
O287 In286 2.294 . S
O287 C296 1.240 . S
O288 In286 2.326 . S
O288 C296 1.252 . S
C289 O292 1.252 . S
C289 O293 1.260 . S
C290 O297 1.240 . S
C290 O298 1.252 . S
C291 O294 1.252 . S
C291 O295 1.260 . S
O292 In286 2.266 . S
O292 C289 1.252 . S
O293 In286 2.326 . S
O293 C289 1.260 . S
O294 In286 2.266 . S
O294 C291 1.252 . S
O295 In286 2.326 . S
O295 C291 1.260 . S
C296 O287 1.240 . S
C296 O288 1.252 . S
O297 In286 2.294 . S
O297 C290 1.240 . S
O298 In286 2.326 . S
O298 C290 1.252 . S
In299 O300 2.294 . S
In299 O301 2.326 . S
In299 O305 2.266 . S
In299 O306 2.326 . S
In299 O307 2.266 . S
In299 O308 2.326 . S
In299 O310 2.294 . S
In299 O311 2.326 . S
O300 In299 2.294 . S
O300 C309 1.240 . S
O301 In299 2.326 . S
O301 C309 1.252 . S
C302 O305 1.252 . S
C302 O306 1.260 . S
C303 O310 1.240 . S
C303 O311 1.252 . S
C304 O307 1.252 . S
C304 O308 1.260 . S
O305 In299 2.266 . S
O305 C302 1.252 . S
O306 In299 2.326 . S
O306 C302 1.260 . S
O307 In299 2.266 . S
O307 C304 1.252 . S
O308 In299 2.326 . S
O308 C304 1.260 . S
C309 O300 1.240 . S
C309 O301 1.252 . S
O310 In299 2.294 . S
O310 C303 1.240 . S
O311 In299 2.326 . S
O311 C303 1.252 . S
O312 Zn313 1.953 1_554 S
O312 C328 1.225 1_455 S
Zn313 O312 1.953 1_556 S
Zn313 O314 1.945 1_456 S
Zn313 O320 1.919 . S
Zn313 O325 1.924 1_455 S
O314 Zn313 1.945 1_654 S
O314 Zn315 1.914 1_645 S
O314 Zn316 1.957 . S
O314 Zn317 1.950 1_544 S
Zn315 O314 1.914 1_465 S
Zn315 O318 1.933 . S
Zn315 O321 1.934 1_565 S
Zn315 O322 1.965 . S
Zn316 O314 1.957 . S
Zn316 O323 1.938 . S
Zn316 O324 1.906 1_545 S
Zn316 O334 1.953 . S
Zn317 O314 1.950 1_566 S
Zn317 O319 1.932 . S
Zn317 O326 1.977 . S
Zn317 O327 1.910 1_565 S
O318 Zn315 1.933 . S
O318 C329 1.226 1_554 S
O319 Zn317 1.932 . S
O319 C329 1.307 1_655 S
O320 Zn313 1.919 . S
O320 C331 1.253 . S
O321 Zn315 1.934 1_545 S
O321 C331 1.294 1_554 S
O322 Zn315 1.965 . S
O322 C330 1.303 . S
O323 Zn316 1.938 . S
O323 C330 1.247 1_645 S
O324 Zn316 1.906 1_565 S
O324 C332 1.304 . S
O325 Zn313 1.924 1_655 S
O325 C333 1.311 . S
O326 Zn317 1.977 . S
O326 C332 1.272 1_556 S
O327 Zn317 1.910 1_545 S
O327 C333 1.231 . S
C328 O312 1.225 1_655 S
C328 O334 1.298 . S
C329 O318 1.226 1_556 S
C329 O319 1.307 1_455 S
C330 O322 1.303 . S
C330 O323 1.247 1_465 S
C331 O320 1.253 . S
C331 O321 1.294 1_556 S
C332 O324 1.304 . S
C332 O326 1.272 1_554 S
C333 O325 1.311 . S
C333 O327 1.231 . S
O334 Zn316 1.953 . S
O334 C328 1.298 . S
O335 Zn336 1.953 . S
O335 C351 1.225 . S
Zn336 O335 1.953 . S
Zn336 O337 1.949 . S
Zn336 O343 1.919 . S
Zn336 O348 1.924 . S
O337 Zn336 1.949 . S
O337 Zn338 1.923 . S
O337 Zn339 1.950 . S
O337 Zn340 1.945 . S
Zn338 O337 1.923 . S
Zn338 O341 1.933 . S
Zn338 O344 1.941 . S
Zn338 O345 1.965 . S
Zn339 O337 1.950 . S
Zn339 O346 1.938 . S
Zn339 O347 1.906 . S
Zn339 O357 1.953 . S
Zn340 O337 1.945 . S
Zn340 O342 1.932 . S
Zn340 O349 1.977 . S
Zn340 O350 1.910 . S
O341 Zn338 1.933 . S
O341 C352 1.226 . S
O342 Zn340 1.932 . S
O342 C352 1.307 . S
O343 Zn336 1.919 . S
O343 C354 1.253 . S
O344 Zn338 1.941 . S
O344 C354 1.283 . S
O345 Zn338 1.965 . S
O345 C353 1.303 . S
O346 Zn339 1.938 . S
O346 C353 1.247 . S
O347 Zn339 1.906 . S
O347 C355 1.304 . S
O348 Zn336 1.924 . S
O348 C356 1.311 . S
O349 Zn340 1.977 . S
O349 C355 1.272 . S
O350 Zn340 1.910 . S
O350 C356 1.231 . S
C351 O335 1.225 . S
C351 O357 1.298 . S
C352 O341 1.226 . S
C352 O342 1.307 . S
C353 O345 1.303 . S
C353 O346 1.247 . S
C354 O343 1.253 . S
C354 O344 1.283 . S
C355 O347 1.304 . S
C355 O349 1.272 . S
C356 O348 1.311 . S
C356 O350 1.231 . S
O357 Zn339 1.953 . S
O357 C351 1.298 . S
O358 Zn359 1.953 . S
O358 C374 1.225 . S
Zn359 O358 1.953 . S
Zn359 O360 1.949 1_565 S
Zn359 O366 1.919 . S
Zn359 O371 1.924 . S
O360 Zn359 1.949 1_545 S
O360 Zn361 1.923 . S
O360 Zn362 1.950 . S
O360 Zn363 1.945 . S
Zn361 O360 1.923 . S
Zn361 O364 1.933 . S
Zn361 O367 1.941 . S
Zn361 O368 1.965 . S
Zn362 O360 1.950 . S
Zn362 O369 1.938 . S
Zn362 O370 1.906 . S
Zn362 O380 1.953 1_545 S
Zn363 O360 1.945 . S
Zn363 O365 1.932 . S
Zn363 O372 1.977 . S
Zn363 O373 1.910 . S
O364 Zn361 1.933 . S
O364 C375 1.226 . S
O365 Zn363 1.932 . S
O365 C375 1.307 . S
O366 Zn359 1.919 . S
O366 C377 1.253 . S
O367 Zn361 1.941 . S
O367 C377 1.283 1_545 S
O368 Zn361 1.965 . S
O368 C376 1.303 . S
O369 Zn362 1.938 . S
O369 C376 1.247 . S
O370 Zn362 1.906 . S
O370 C378 1.304 . S
O371 Zn359 1.924 . S
O371 C379 1.311 . S
O372 Zn363 1.977 . S
O372 C378 1.272 . S
O373 Zn363 1.910 . S
O373 C379 1.231 1_545 S
C374 O358 1.225 . S
C374 O380 1.298 . S
C375 O364 1.226 . S
C375 O365 1.307 . S
C376 O368 1.303 . S
C376 O369 1.247 . S
C377 O366 1.253 . S
C377 O367 1.283 1_565 S
C378 O370 1.304 . S
C378 O372 1.272 . S
C379 O371 1.311 . S
C379 O373 1.231 1_565 S
O380 Zn362 1.953 1_565 S
O380 C374 1.298 . S
O381 Zn382 1.953 . S
O381 C397 1.225 . S
Zn382 O381 1.953 . S
Zn382 O383 1.949 . S
Zn382 O389 1.919 . S
Zn382 O394 1.924 . S
O383 Zn382 1.949 . S
O383 Zn384 1.923 . S
O383 Zn385 1.950 . S
O383 Zn386 1.945 . S
Zn384 O383 1.923 . S
Zn384 O387 1.933 . S
Zn384 O390 1.941 . S
Zn384 O391 1.965 . S
Zn385 O383 1.950 . S
Zn385 O392 1.938 . S
Zn385 O393 1.906 . S
Zn385 O403 1.953 . S
Zn386 O383 1.945 . S
Zn386 O388 1.932 . S
Zn386 O395 1.977 . S
Zn386 O396 1.910 . S
O387 Zn384 1.933 . S
O387 C398 1.226 . S
O388 Zn386 1.932 . S
O388 C398 1.307 . S
O389 Zn382 1.919 . S
O389 C400 1.253 . S
O390 Zn384 1.941 . S
O390 C400 1.283 . S
O391 Zn384 1.965 . S
O391 C399 1.303 . S
O392 Zn385 1.938 . S
O392 C399 1.247 . S
O393 Zn385 1.906 . S
O393 C401 1.304 . S
O394 Zn382 1.924 . S
O394 C402 1.311 . S
O395 Zn386 1.977 . S
O395 C401 1.272 . S
O396 Zn386 1.910 . S
O396 C402 1.231 . S
C397 O381 1.225 . S
C397 O403 1.298 . S
C398 O387 1.226 . S
C398 O388 1.307 . S
C399 O391 1.303 . S
C399 O392 1.247 . S
C400 O389 1.253 . S
C400 O390 1.283 . S
C401 O393 1.304 . S
C401 O395 1.272 . S
C402 O394 1.311 . S
C402 O396 1.231 . S
O403 Zn385 1.953 . S
O403 C397 1.298 . S
O404 Zn405 1.953 1_445 S
O404 C420 1.225 . S
Zn405 O404 1.953 1_665 S
Zn405 O406 1.949 1_665 S
Zn405 O412 1.919 . S
Zn405 O417 1.924 1_565 S
O406 Zn405 1.949 1_445 S
O406 Zn407 1.923 1_545 S
O406 Zn408 1.950 . S
O406 Zn409 1.945 1_455 S
Zn407 O406 1.923 1_565 S
Zn407 O410 1.933 1_455 S
Zn407 O413 1.941 . S
Zn407 O414 1.965 . S
Zn408 O406 1.950 . S
Zn408 O415 1.938 . S
Zn408 O416 1.906 . S
Zn408 O426 1.953 . S
Zn409 O406 1.945 1_655 S
Zn409 O411 1.932 . S
Zn409 O418 1.977 . S
Zn409 O419 1.910 . S
O410 Zn407 1.933 1_655 S
O410 C421 1.226 . S
O411 Zn409 1.932 . S
O411 C421 1.307 1_545 S
O412 Zn405 1.919 . S
O412 C423 1.253 . S
O413 Zn407 1.941 . S
O413 C423 1.283 1_455 S
O414 Zn407 1.965 . S
O414 C422 1.303 . S
O415 Zn408 1.938 . S
O415 C422 1.247 1_545 S
O416 Zn408 1.906 . S
O416 C424 1.304 . S
O417 Zn405 1.924 1_545 S
O417 C425 1.311 . S
O418 Zn409 1.977 . S
O418 C424 1.272 1_655 S
O419 Zn409 1.910 . S
O419 C425 1.231 . S
C420 O404 1.225 . S
C420 O426 1.298 . S
C421 O410 1.226 . S
C421 O411 1.307 1_565 S
C422 O414 1.303 . S
C422 O415 1.247 1_565 S
C423 O412 1.253 . S
C423 O413 1.283 1_655 S
C424 O416 1.304 . S
C424 O418 1.272 1_455 S
C425 O417 1.311 . S
C425 O419 1.231 . S
O426 Zn408 1.953 . S
O426 C420 1.298 . S
O427 Zn428 1.953 . S
O427 C443 1.225 . S
Zn428 O427 1.953 . S
Zn428 O429 1.949 . S
Zn428 O435 1.919 . S
Zn428 O440 1.924 . S
O429 Zn428 1.949 . S
O429 Zn430 1.923 . S
O429 Zn431 1.950 . S
O429 Zn432 1.945 . S
Zn430 O429 1.923 . S
Zn430 O433 1.933 . S
Zn430 O436 1.941 . S
Zn430 O437 1.965 . S
Zn431 O429 1.950 . S
Zn431 O438 1.938 . S
Zn431 O439 1.906 . S
Zn431 O449 1.953 . S
Zn432 O429 1.945 . S
Zn432 O434 1.932 . S
Zn432 O441 1.977 . S
Zn432 O442 1.910 . S
O433 Zn430 1.933 . S
O433 C444 1.226 . S
O434 Zn432 1.932 . S
O434 C444 1.307 . S
O435 Zn428 1.919 . S
O435 C446 1.253 . S
O436 Zn430 1.941 . S
O436 C446 1.283 . S
O437 Zn430 1.965 . S
O437 C445 1.303 . S
O438 Zn431 1.938 . S
O438 C445 1.247 . S
O439 Zn431 1.906 . S
O439 C447 1.304 . S
O440 Zn428 1.924 . S
O440 C448 1.311 . S
O441 Zn432 1.977 . S
O441 C447 1.272 . S
O442 Zn432 1.910 . S
O442 C448 1.231 . S
C443 O427 1.225 . S
C443 O449 1.298 . S
C444 O433 1.226 . S
C444 O434 1.307 . S
C445 O437 1.303 . S
C445 O438 1.247 . S
C446 O435 1.253 . S
C446 O436 1.283 . S
C447 O439 1.304 . S
C447 O441 1.272 . S
C448 O440 1.311 . S
C448 O442 1.231 . S
O449 Zn431 1.953 . S
O449 C443 1.298 . S
O450 Zn451 1.953 . S
O450 C466 1.225 . S
Zn451 O450 1.953 . S
Zn451 O452 1.949 . S
Zn451 O458 1.919 1_545 S
Zn451 O463 1.924 . S
O452 Zn451 1.949 . S
O452 Zn453 1.923 1_544 S
O452 Zn454 1.950 1_545 S
O452 Zn455 1.945 1_554 S
Zn453 O452 1.923 1_566 S
Zn453 O456 1.933 . S
Zn453 O459 1.941 . S
Zn453 O460 1.965 1_556 S
Zn454 O452 1.950 1_565 S
Zn454 O461 1.940 . S
Zn454 O462 1.905 1_565 S
Zn454 O472 1.953 1_565 S
Zn455 O452 1.945 1_556 S
Zn455 O457 1.932 . S
Zn455 O464 1.977 1_556 S
Zn455 O465 1.910 . S
O456 Zn453 1.933 . S
O456 C467 1.226 . S
O457 Zn455 1.932 . S
O457 C467 1.307 1_545 S
O458 Zn451 1.919 1_565 S
O458 C469 1.253 1_554 S
O459 Zn453 1.941 . S
O459 C469 1.283 . S
O460 Zn453 1.965 1_554 S
O460 C468 1.303 . S
O461 Zn454 1.940 . S
O461 C468 1.247 . S
O462 Zn454 1.905 1_545 S
O462 C470 1.304 . S
O463 Zn451 1.924 . S
O463 C471 1.311 1_554 S
O464 Zn455 1.977 1_554 S
O464 C470 1.272 . S
O465 Zn455 1.910 . S
O465 C471 1.231 . S
C466 O450 1.225 . S
C466 O472 1.298 . S
C467 O456 1.226 . S
C467 O457 1.307 1_565 S
C468 O460 1.303 . S
C468 O461 1.247 . S
C469 O458 1.253 1_556 S
C469 O459 1.283 . S
C470 O462 1.304 . S
C470 O464 1.272 . S
C471 O463 1.311 1_556 S
C471 O465 1.231 . S
O472 Zn454 1.953 1_545 S
O472 C466 1.298 . S
O473 Zn474 1.953 . S
O473 C489 1.225 . S
Zn474 O473 1.953 . S
Zn474 O475 1.949 . S
Zn474 O481 1.919 . S
Zn474 O486 1.924 . S
O475 Zn474 1.949 . S
O475 Zn476 1.923 . S
O475 Zn477 1.950 . S
O475 Zn478 1.945 . S
Zn476 O475 1.923 . S
Zn476 O479 1.933 . S
Zn476 O482 1.941 . S
Zn476 O483 1.965 . S
Zn477 O475 1.950 . S
Zn477 O484 1.938 . S
Zn477 O485 1.906 . S
Zn477 O495 1.953 . S
Zn478 O475 1.945 . S
Zn478 O480 1.932 . S
Zn478 O487 1.977 . S
Zn478 O488 1.910 . S
O479 Zn476 1.933 . S
O479 C490 1.226 . S
O480 Zn478 1.932 . S
O480 C490 1.307 . S
O481 Zn474 1.919 . S
O481 C492 1.253 . S
O482 Zn476 1.941 . S
O482 C492 1.283 . S
O483 Zn476 1.965 . S
O483 C491 1.303 . S
O484 Zn477 1.938 . S
O484 C491 1.247 . S
O485 Zn477 1.906 . S
O485 C493 1.304 . S
O486 Zn474 1.924 . S
O486 C494 1.311 . S
O487 Zn478 1.977 . S
O487 C493 1.272 . S
O488 Zn478 1.910 . S
O488 C494 1.231 . S
C489 O473 1.225 . S
C489 O495 1.298 . S
C490 O479 1.226 . S
C490 O480 1.307 . S
C491 O483 1.303 . S
C491 O484 1.247 . S
C492 O481 1.253 . S
C492 O482 1.283 . S
C493 O485 1.304 . S
C493 O487 1.272 . S
C494 O486 1.311 . S
C494 O488 1.231 . S
O495 Zn477 1.953 . S
O495 C489 1.298 . S
O496 Zn497 1.953 . S
O496 C512 1.225 . S
Zn497 O496 1.953 . S
Zn497 O498 1.949 1_556 S
Zn497 O504 1.919 . S
Zn497 O509 1.924 . S
O498 Zn497 1.949 1_554 S
O498 Zn499 1.923 . S
O498 Zn500 1.950 . S
O498 Zn501 1.945 . S
Zn499 O498 1.923 . S
Zn499 O502 1.933 . S
Zn499 O505 1.941 . S
Zn499 O506 1.965 . S
Zn500 O498 1.950 . S
Zn500 O507 1.938 . S
Zn500 O508 1.906 . S
Zn500 O518 1.953 1_554 S
Zn501 O498 1.945 . S
Zn501 O503 1.932 . S
Zn501 O510 1.977 . S
Zn501 O511 1.910 . S
O502 Zn499 1.933 . S
O502 C513 1.226 . S
O503 Zn501 1.932 . S
O503 C513 1.307 . S
O504 Zn497 1.919 . S
O504 C515 1.253 . S
O505 Zn499 1.941 . S
O505 C515 1.283 1_554 S
O506 Zn499 1.965 . S
O506 C514 1.303 . S
O507 Zn500 1.938 . S
O507 C514 1.247 . S
O508 Zn500 1.906 . S
O508 C516 1.304 . S
O509 Zn497 1.924 . S
O509 C517 1.311 . S
O510 Zn501 1.977 . S
O510 C516 1.272 . S
O511 Zn501 1.910 . S
O511 C517 1.231 1_554 S
C512 O496 1.225 . S
C512 O518 1.298 . S
C513 O502 1.226 . S
C513 O503 1.307 . S
C514 O506 1.303 . S
C514 O507 1.247 . S
C515 O504 1.253 . S
C515 O505 1.283 1_556 S
C516 O508 1.304 . S
C516 O510 1.272 . S
C517 O509 1.311 . S
C517 O511 1.231 1_556 S
O518 Zn500 1.953 1_556 S
O518 C512 1.298 . S
O519 Zn520 1.953 . S
O519 C535 1.225 . S
Zn520 O519 1.953 . S
Zn520 O521 1.949 . S
Zn520 O527 1.919 . S
Zn520 O532 1.924 . S
O521 Zn520 1.949 . S
O521 Zn522 1.923 . S
O521 Zn523 1.950 . S
O521 Zn524 1.945 . S
Zn522 O521 1.923 . S
Zn522 O525 1.933 . S
Zn522 O528 1.941 . S
Zn522 O529 1.965 . S
Zn523 O521 1.950 . S
Zn523 O530 1.938 . S
Zn523 O531 1.906 . S
Zn523 O541 1.953 . S
Zn524 O521 1.945 . S
Zn524 O526 1.932 . S
Zn524 O533 1.977 . S
Zn524 O534 1.910 . S
O525 Zn522 1.933 . S
O525 C536 1.226 . S
O526 Zn524 1.932 . S
O526 C536 1.307 . S
O527 Zn520 1.919 . S
O527 C538 1.253 . S
O528 Zn522 1.941 . S
O528 C538 1.283 . S
O529 Zn522 1.965 . S
O529 C537 1.303 . S
O530 Zn523 1.938 . S
O530 C537 1.247 . S
O531 Zn523 1.906 . S
O531 C539 1.304 . S
O532 Zn520 1.924 . S
O532 C540 1.311 . S
O533 Zn524 1.977 . S
O533 C539 1.272 . S
O534 Zn524 1.910 . S
O534 C540 1.231 . S
C535 O519 1.225 . S
C535 O541 1.298 . S
C536 O525 1.226 . S
C536 O526 1.307 . S
C537 O529 1.303 . S
C537 O530 1.247 . S
C538 O527 1.253 . S
C538 O528 1.283 . S
C539 O531 1.304 . S
C539 O533 1.272 . S
C540 O532 1.311 . S
C540 O534 1.231 . S
O541 Zn523 1.953 . S
O541 C535 1.298 . S
O542 Zn543 1.953 . S
O542 C558 1.225 . S
Zn543 O542 1.953 . S
Zn543 O544 1.949 . S
Zn543 O550 1.919 . S
Zn543 O555 1.924 . S
O544 Zn543 1.949 . S
O544 Zn545 1.923 . S
O544 Zn546 1.950 1_455 S
O544 Zn547 1.945 1_455 S
Zn545 O544 1.923 . S
Zn545 O548 1.933 1_455 S
Zn545 O551 1.941 . S
Zn545 O552 1.965 1_455 S
Zn546 O544 1.950 1_655 S
Zn546 O553 1.938 . S
Zn546 O554 1.906 . S
Zn546 O564 1.953 1_655 S
Zn547 O544 1.945 1_655 S
Zn547 O549 1.932 . S
Zn547 O556 1.977 . S
Zn547 O557 1.910 1_655 S
O548 Zn545 1.933 1_655 S
O548 C559 1.226 . S
O549 Zn547 1.932 . S
O549 C559 1.307 . S
O550 Zn543 1.919 . S
O550 C561 1.253 . S
O551 Zn545 1.941 . S
O551 C561 1.283 . S
O552 Zn545 1.965 1_655 S
O552 C560 1.303 . S
O553 Zn546 1.938 . S
O553 C560 1.247 . S
O554 Zn546 1.906 . S
O554 C562 1.304 . S
O555 Zn543 1.924 . S
O555 C563 1.311 . S
O556 Zn547 1.977 . S
O556 C562 1.272 . S
O557 Zn547 1.910 1_455 S
O557 C563 1.231 . S
C558 O542 1.225 . S
C558 O564 1.298 . S
C559 O548 1.226 . S
C559 O549 1.307 . S
C560 O552 1.303 . S
C560 O553 1.247 . S
C561 O550 1.253 . S
C561 O551 1.283 . S
C562 O554 1.304 . S
C562 O556 1.272 . S
C563 O555 1.311 . S
C563 O557 1.231 . S
O564 Zn546 1.953 1_455 S
O564 C558 1.298 . S
O565 Zn566 1.953 . S
O565 C581 1.225 . S
Zn566 O565 1.953 . S
Zn566 O567 1.949 . S
Zn566 O573 1.919 . S
Zn566 O578 1.924 . S
O567 Zn566 1.949 . S
O567 Zn568 1.923 . S
O567 Zn569 1.950 . S
O567 Zn570 1.945 . S
Zn568 O567 1.923 . S
Zn568 O571 1.933 . S
Zn568 O574 1.941 . S
Zn568 O575 1.965 . S
Zn569 O567 1.950 . S
Zn569 O576 1.938 . S
Zn569 O577 1.906 . S
Zn569 O587 1.953 . S
Zn570 O567 1.945 . S
Zn570 O572 1.932 . S
Zn570 O579 1.977 . S
Zn570 O580 1.910 . S
O571 Zn568 1.933 . S
O571 C582 1.226 . S
O572 Zn570 1.932 . S
O572 C582 1.307 . S
O573 Zn566 1.919 . S
O573 C584 1.253 . S
O574 Zn568 1.941 . S
O574 C584 1.283 . S
O575 Zn568 1.965 . S
O575 C583 1.303 . S
O576 Zn569 1.938 . S
O576 C583 1.247 . S
O577 Zn569 1.906 . S
O577 C585 1.304 . S
O578 Zn566 1.924 . S
O578 C586 1.311 . S
O579 Zn570 1.977 . S
O579 C585 1.272 . S
O580 Zn570 1.910 . S
O580 C586 1.231 . S
C581 O565 1.225 . S
C581 O587 1.298 . S
C582 O571 1.226 . S
C582 O572 1.307 . S
C583 O575 1.303 . S
C583 O576 1.247 . S
C584 O573 1.253 . S
C584 O574 1.283 . S
C585 O577 1.304 . S
C585 O579 1.272 . S
C586 O578 1.311 . S
C586 O580 1.231 . S
O587 Zn569 1.953 . S
O587 C581 1.298 . S
O588 Zn589 1.953 . S
O588 C604 1.225 . S
Zn589 O588 1.953 . S
Zn589 O590 1.949 . S
Zn589 O596 1.919 . S
Zn589 O601 1.924 . S
O590 Zn589 1.949 . S
O590 Zn591 1.923 . S
O590 Zn592 1.950 . S
O590 Zn593 1.945 . S
Zn591 O590 1.923 . S
Zn591 O594 1.933 . S
Zn591 O597 1.941 . S
Zn591 O598 1.965 . S
Zn592 O590 1.950 . S
Zn592 O599 1.938 . S
Zn592 O600 1.906 . S
Zn592 O610 1.953 . S
Zn593 O590 1.945 . S
Zn593 O595 1.932 . S
Zn593 O602 1.977 . S
Zn593 O603 1.910 . S
O594 Zn591 1.933 . S
O594 C605 1.226 . S
O595 Zn593 1.932 . S
O595 C605 1.307 . S
O596 Zn589 1.919 . S
O596 C607 1.253 . S
O597 Zn591 1.941 . S
O597 C607 1.283 . S
O598 Zn591 1.965 . S
O598 C606 1.303 . S
O599 Zn592 1.938 . S
O599 C606 1.247 . S
O600 Zn592 1.906 . S
O600 C608 1.304 . S
O601 Zn589 1.924 . S
O601 C609 1.311 . S
O602 Zn593 1.977 . S
O602 C608 1.272 . S
O603 Zn593 1.910 . S
O603 C609 1.231 . S
C604 O588 1.225 . S
C604 O610 1.298 . S
C605 O594 1.226 . S
C605 O595 1.307 . S
C606 O598 1.303 . S
C606 O599 1.247 . S
C607 O596 1.253 . S
C607 O597 1.283 . S
C608 O600 1.304 . S
C608 O602 1.272 . S
C609 O601 1.311 . S
C609 O603 1.231 . S
O610 Zn592 1.953 . S
O610 C604 1.298 . S
O611 Zn612 1.953 . S
O611 C627 1.225 . S
Zn612 O611 1.953 . S
Zn612 O613 1.949 . S
Zn612 O619 1.919 . S
Zn612 O624 1.924 . S
O613 Zn612 1.949 . S
O613 Zn614 1.923 . S
O613 Zn615 1.950 . S
O613 Zn616 1.945 . S
Zn614 O613 1.923 . S
Zn614 O617 1.933 . S
Zn614 O620 1.941 . S
Zn614 O621 1.965 . S
Zn615 O613 1.950 . S
Zn615 O622 1.938 . S
Zn615 O623 1.906 . S
Zn615 O633 1.953 . S
Zn616 O613 1.945 . S
Zn616 O618 1.932 . S
Zn616 O625 1.977 . S
Zn616 O626 1.910 . S
O617 Zn614 1.933 . S
O617 C628 1.226 . S
O618 Zn616 1.932 . S
O618 C628 1.307 . S
O619 Zn612 1.919 . S
O619 C630 1.253 . S
O620 Zn614 1.941 . S
O620 C630 1.283 . S
O621 Zn614 1.965 . S
O621 C629 1.303 . S
O622 Zn615 1.938 . S
O622 C629 1.247 . S
O623 Zn615 1.906 . S
O623 C631 1.304 . S
O624 Zn612 1.924 . S
O624 C632 1.311 . S
O625 Zn616 1.977 . S
O625 C631 1.272 . S
O626 Zn616 1.910 . S
O626 C632 1.231 . S
C627 O611 1.225 . S
C627 O633 1.298 . S
C628 O617 1.226 . S
C628 O618 1.307 . S
C629 O621 1.303 . S
C629 O622 1.247 . S
C630 O619 1.253 . S
C630 O620 1.283 . S
C631 O623 1.304 . S
C631 O625 1.272 . S
C632 O624 1.311 . S
C632 O626 1.231 . S
O633 Zn615 1.953 . S
O633 C627 1.298 . S
O634 Zn635 1.953 . S
O634 C650 1.225 . S
Zn635 O634 1.953 . S
Zn635 O636 1.949 . S
Zn635 O642 1.919 . S
Zn635 O647 1.924 . S
O636 Zn635 1.949 . S
O636 Zn637 1.923 . S
O636 Zn638 1.950 . S
O636 Zn639 1.945 . S
Zn637 O636 1.923 . S
Zn637 O640 1.933 . S
Zn637 O643 1.941 . S
Zn637 O644 1.965 . S
Zn638 O636 1.950 . S
Zn638 O645 1.938 . S
Zn638 O646 1.906 . S
Zn638 O656 1.953 . S
Zn639 O636 1.945 . S
Zn639 O641 1.932 . S
Zn639 O648 1.977 . S
Zn639 O649 1.910 . S
O640 Zn637 1.933 . S
O640 C651 1.226 . S
O641 Zn639 1.932 . S
O641 C651 1.307 . S
O642 Zn635 1.919 . S
O642 C653 1.253 . S
O643 Zn637 1.941 . S
O643 C653 1.283 . S
O644 Zn637 1.965 . S
O644 C652 1.303 . S
O645 Zn638 1.938 . S
O645 C652 1.247 . S
O646 Zn638 1.906 . S
O646 C654 1.304 . S
O647 Zn635 1.924 . S
O647 C655 1.311 . S
O648 Zn639 1.977 . S
O648 C654 1.272 . S
O649 Zn639 1.910 . S
O649 C655 1.231 . S
C650 O634 1.225 . S
C650 O656 1.298 . S
C651 O640 1.226 . S
C651 O641 1.307 . S
C652 O644 1.303 . S
C652 O645 1.247 . S
C653 O642 1.253 . S
C653 O643 1.283 . S
C654 O646 1.304 . S
C654 O648 1.272 . S
C655 O647 1.311 . S
C655 O649 1.231 . S
O656 Zn638 1.953 . S
O656 C650 1.298 . S
O657 Zn658 1.953 1_454 S
O657 C673 1.225 . S
Zn658 O657 1.953 1_656 S
Zn658 O659 1.949 1_656 S
Zn658 O665 1.919 . S
Zn658 O670 1.924 1_655 S
O659 Zn658 1.949 1_454 S
O659 Zn660 1.923 1_455 S
O659 Zn661 1.950 . S
O659 Zn662 1.945 1_554 S
Zn660 O659 1.923 1_655 S
Zn660 O663 1.933 . S
Zn660 O666 1.941 . S
Zn660 O667 1.965 . S
Zn661 O659 1.950 . S
Zn661 O668 1.938 . S
Zn661 O669 1.906 . S
Zn661 O679 1.953 . S
Zn662 O659 1.945 1_556 S
Zn662 O664 1.932 . S
Zn662 O671 1.977 . S
Zn662 O672 1.910 . S
O663 Zn660 1.933 . S
O663 C674 1.226 1_554 S
O664 Zn662 1.932 . S
O664 C674 1.307 1_455 S
O665 Zn658 1.919 . S
O665 C676 1.253 . S
O666 Zn660 1.941 . S
O666 C676 1.283 1_554 S
O667 Zn660 1.965 . S
O667 C675 1.303 . S
O668 Zn661 1.938 . S
O668 C675 1.247 1_455 S
O669 Zn661 1.906 . S
O669 C677 1.304 . S
O670 Zn658 1.924 1_455 S
O670 C678 1.311 . S
O671 Zn662 1.977 . S
O671 C677 1.272 1_556 S
O672 Zn662 1.910 . S
O672 C678 1.231 . S
C673 O657 1.225 . S
C673 O679 1.298 . S
C674 O663 1.226 1_556 S
C674 O664 1.307 1_655 S
C675 O667 1.303 . S
C675 O668 1.247 1_655 S
C676 O665 1.253 . S
C676 O666 1.283 1_556 S
C677 O669 1.304 . S
C677 O671 1.272 1_554 S
C678 O670 1.311 . S
C678 O672 1.231 . S
O679 Zn661 1.953 . S
O679 C673 1.298 . S
C328 C10 1.572 . S
C23 C356 2.019 . S
C36 C374 1.570 . S
C400 C42 1.959 . S
C18 C423 1.961 . S
C443 C31 1.593 . S
C471 C43 2.019 . S
C5 C489 1.595 . S
C56 C330 2.022 1_545 S
C70 C352 1.649 . S
C376 C82 1.995 . S
C397 C96 1.666 . S
C57 C420 1.669 . S
C445 C69 2.001 . S
C467 C83 1.652 . S
C491 C95 2.028 . S
C331 C94 1.584 1_556 S
C514 C108 1.635 . S
C122 C538 1.612 . S
C562 C140 1.450 . S
C55 C492 1.582 . S
C377 C68 1.612 . S
C121 C583 1.637 . S
C608 C153 1.453 . S
C161 C329 1.553 1_655 S
C606 C174 1.506 . S
C186 C375 1.551 . S
C200 C585 1.295 . S
C424 C172 1.295 1_455 S
C536 C192 1.552 . S
C468 C198 1.506 . S
C628 C159 1.553 . S
C333 C211 1.546 . S
C225 C604 1.769 . S
C379 C239 1.558 1_565 S
C251 C582 1.796 . S
C218 C421 1.797 1_545 S
C226 C540 1.558 . S
C466 C238 1.769 1_545 S
C252 C632 1.546 . S
C250 C332 1.639 1_556 S
C264 C517 1.775 1_554 S
C276 C447 1.665 . S
C290 C561 1.563 . S
C631 C213 1.639 . S
C378 C224 1.663 . S
C402 C283 1.775 . S
C354 C303 1.563 . S
C29 C650 1.595 . S
C609 C49 2.019 . S
C673 C3 1.593 . S
C16 C584 1.957 . S
C44 C515 1.959 . S
C535 C4 1.570 . S
C563 C17 2.019 . S
C627 C30 1.572 . S
C652 C147 2.028 . S
C107 C605 1.652 . S
C127 C675 2.001 . S
C581 C135 1.668 . S
C512 C148 1.666 . S
C114 C537 1.995 . S
C559 C120 1.649 . S
C134 C629 2.022 . S
C653 C133 1.582 . S
C422 C75 1.638 . S
C446 C81 1.611 . S
C101 C470 1.452 . S
C630 C146 1.584 . S
C109 C676 1.611 1_554 S
C399 C88 1.635 . S
C355 C62 1.450 . S
C187 C651 1.554 . S
C353 C199 1.510 . S
C674 C160 1.552 1_655 S
C173 C401 1.295 . S
C205 C516 1.295 . S
C166 C444 1.552 . S
C179 C560 1.511 1_455 S
C185 C490 1.554 . S
C655 C302 1.551 . S
C270 C351 1.776 . S
C678 C278 1.563 . S
C296 C398 1.803 . S
C309 C513 1.803 . S
C448 C263 1.563 . S
C277 C558 1.776 . S
C494 C289 1.551 . S
C654 C291 1.642 . S
C425 C231 1.769 . S
C237 C539 1.663 . S
C469 C257 1.557 1_556 S
C493 C304 1.641 . S
C265 C677 1.665 1_556 S
C586 C244 1.769 . S
C607 C212 1.557 . S
