# Generated by pormake.
# Topology pth, (4,4)-cn, num edge types: 1
# Building blocks:
#     Node 0, Type 0, BuildingBlock: KUFVIS_clean_sbu_0, # of connection points: 4
#     Node 1, Type 0, BuildingBlock: KUFVIS_clean_sbu_0, # of connection points: 4
#     Node 2, Type 0, BuildingBlock: KUFVIS_clean_sbu_0, # of connection points: 4
#     Node 3, Type 1, BuildingBlock: MUDLON_clean_sbu_0, # of connection points: 4
#     Node 4, Type 1, BuildingBlock: MUDLON_clean_sbu_0, # of connection points: 4
#     Node 5, Type 1, BuildingBlock: MUDLON_clean_sbu_0, # of connection points: 4
#     Edge 6, Type (0, 1), BuildingBlock: MIFKUJ_clean_linker_0, # of connection points: 2
#     Edge 7, Type (0, 1), BuildingBlock: MIFKUJ_clean_linker_0, # of connection points: 2
#     Edge 8, Type (0, 1), BuildingBlock: MIFKUJ_clean_linker_0, # of connection points: 2
#     Edge 9, Type (0, 1), BuildingBlock: MIFKUJ_clean_linker_0, # of connection points: 2
#     Edge 10, Type (0, 1), BuildingBlock: MIFKUJ_clean_linker_0, # of connection points: 2
#     Edge 11, Type (0, 1), BuildingBlock: MIFKUJ_clean_linker_0, # of connection points: 2
#     Edge 12, Type (0, 1), BuildingBlock: MIFKUJ_clean_linker_0, # of connection points: 2
#     Edge 13, Type (0, 1), BuildingBlock: MIFKUJ_clean_linker_0, # of connection points: 2
#     Edge 14, Type (0, 1), BuildingBlock: MIFKUJ_clean_linker_0, # of connection points: 2
#     Edge 15, Type (0, 1), BuildingBlock: MIFKUJ_clean_linker_0, # of connection points: 2
#     Edge 16, Type (0, 1), BuildingBlock: MIFKUJ_clean_linker_0, # of connection points: 2
#     Edge 17, Type (0, 1), BuildingBlock: MIFKUJ_clean_linker_0, # of connection points: 2
# Relax obj value: 0.022
# Max RMSD: 0.097
# Mean RMSD: 0.069
data_MOF--net-pth--node1-KUFVIS_clean_sbu_0--node2-MUDLON_clean_sbu_0--edge1-MIFKUJ_clean_linker_0
_symmetry_space_group_name_H-M    P1
_symmetry_Int_Tables_number       1
_symmetry_cell_setting            triclinic
loop_
_symmetry_equiv_pos_as_xyz
'x, y, z'
_cell_length_a     28.947975
_cell_length_b     29.002711
_cell_length_c     78.596818
_cell_angle_alpha  90.217257
_cell_angle_beta   91.94592
_cell_angle_gamma 119.92955
loop_
_atom_site_label
_atom_site_type_symbol
_atom_site_fract_x
_atom_site_fract_y
_atom_site_fract_z
_atom_type_partial_charge
Mn0 Mn 0.06848 0.09665 0.07875 0.0
Mn1 Mn 0.99351 0.14043 0.05856 0.0
C2 C 0.01411 0.04847 0.05548 0.0
C3 C 0.07509 0.04788 0.10152 0.0
C4 C 0.11064 0.18391 0.05182 0.0
O5 O 0.07481 0.15419 0.09508 0.0
O6 O 0.02214 0.17855 0.08094 0.0
C7 C 0.90671 0.09677 0.08295 0.0
N8 N 0.92301 0.1006 0.0667 0.0
C9 C 0.83297 0.04341 0.05596 0.0
C10 C 0.81513 0.03913 0.07256 0.0
C11 C 0.85221 0.06578 0.08612 0.0
C12 C 0.88781 0.07459 0.05361 0.0
H13 H 0.93506 0.11715 0.09341 0.0
C14 C 0.05275 0.18256 0.09369 0.0
O15 O 0.11756 0.08337 0.09417 0.0
O16 O 0.02987 0.04137 0.09572 0.0
N17 N 0.96202 0.10844 0.03681 0.0
C18 C 0.98574 0.11676 0.02157 0.0
C19 C 0.95409 0.09353 1.00668 0.0
C20 C 0.8984 0.06268 0.00758 0.0
C21 C 0.87487 0.05492 0.02336 0.0
C22 C 0.90837 0.07949 0.03775 0.0
H23 H 0.02846 0.14095 0.0208 0.0
O24 O 0.05221 0.04079 0.06111 0.0
O25 O 1.00658 0.08221 0.06434 0.0
O26 O 0.11913 0.15515 0.0625 0.0
O27 O 0.06535 0.18132 0.04949 0.0
C28 C 0.81946 0.02384 0.02536 0.0
C29 C 0.79855 0.01781 0.04167 0.0
H30 H 0.77311 0.01536 0.07504 0.0
H31 H 0.8388 0.06252 0.09897 0.0
H32 H 0.97258 0.09989 0.99453 0.0
H33 H 0.8738 0.0456 0.99611 0.0
H34 H 0.79261 1.00416 0.01445 0.0
H35 H 0.75593 0.9935 0.04308 0.0
Mn36 Mn 0.05674 0.09992 0.41343 0.0
Mn37 Mn 0.12672 0.22115 0.4325 0.0
C38 C 0.11076 0.11083 0.43724 0.0
C39 C 0.05323 0.04271 0.39161 0.0
C40 C 1.00952 0.14574 0.43848 0.0
O41 O 0.04978 0.14815 0.39617 0.0
O42 O 0.10004 0.22756 0.40935 0.0
C43 C 0.21712 0.26461 0.40947 0.0
N44 N 0.19855 0.25272 0.42547 0.0
C45 C 0.28732 0.28681 0.43764 0.0
C46 C 0.30747 0.29979 0.4213 0.0
C47 C 0.27218 0.2885 0.40715 0.0
C48 C 0.23207 0.26298 0.43915 0.0
H49 H 0.1901 0.25585 0.39856 0.0
C50 C 0.07043 0.19851 0.39675 0.0
O51 O 1.00991 0.0356 0.39847 0.0
O52 O 0.09765 0.08275 0.39734 0.0
N53 N 0.1555 0.22288 0.45487 0.0
C54 C 0.12954 0.20753 0.46974 0.0
C55 C 0.15912 0.2162 0.48511 0.0
C56 C 0.21497 0.24118 0.48503 0.0
C57 C 0.24083 0.25711 0.46963 0.0
C58 C 0.20933 0.24786 0.45474 0.0
H59 H 0.08663 0.18875 0.46985 0.0
O60 O 0.07394 0.06392 0.43197 0.0
O61 O 0.11698 0.15037 0.42778 0.0
O62 O 1.00353 0.10728 0.42873 0.0
O63 O 0.05359 0.18968 0.4405 0.0
C64 C 0.2966 0.28158 0.46848 0.0
C65 C 0.31982 0.29622 0.45248 0.0
H66 H 0.34991 0.31819 0.41946 0.0
H67 H 0.28739 0.29817 0.39449 0.0
H68 H 0.13896 0.20401 0.49699 0.0
H69 H 0.23779 0.24851 0.49684 0.0
H70 H 0.32194 0.28897 0.4798 0.0
H71 H 0.3627 0.31462 0.45172 0.0
Mn72 Mn 0.07095 0.1003 0.74645 0.0
Mn73 Mn 0.02788 0.17522 0.76572 0.0
C74 C 0.11948 0.15405 0.76954 0.0
C75 C 0.11982 0.09337 0.72438 0.0
C76 C 0.98166 0.05734 0.77217 0.0
O77 O 0.01472 0.09675 0.72956 0.0
O78 O 0.99094 0.15018 0.74275 0.0
C79 C 0.07534 0.26585 0.74241 0.0
N80 N 0.07029 0.24673 0.75845 0.0
C81 C 0.13239 0.3338 0.77012 0.0
C82 C 0.13794 0.35451 0.75374 0.0
C83 C 0.10935 0.32036 0.73983 0.0
C84 C 0.09784 0.27918 0.77191 0.0
H85 H 0.05371 0.23967 0.73167 0.0
C86 C 0.98724 0.11989 0.73022 0.0
O87 O 0.08333 0.05111 0.7316 0.0
O88 O 0.12716 0.13872 0.72986 0.0
N89 N 0.05929 0.20253 0.78793 0.0
C90 C 0.0495 0.17624 0.80289 0.0
C91 C 0.07505 0.20469 0.81806 0.0
C92 C 0.10992 0.25989 0.81772 0.0
C93 C 0.11847 0.28626 0.80223 0.0
C94 C 0.09147 0.25589 0.78755 0.0
H95 H 0.02286 0.13381 0.80323 0.0
O96 O 0.12645 0.11534 0.76464 0.0
O97 O 0.08557 0.16154 0.76032 0.0
O98 O 0.01152 0.04935 0.76226 0.0
O99 O 0.98437 0.1025 0.77406 0.0
C100 C 0.15313 0.34138 0.80076 0.0
C101 C 0.1602 0.36511 0.7847 0.0
H102 H 0.16425 0.3965 0.75169 0.0
H103 H 0.11363 0.336 0.72714 0.0
H104 H 0.0681 0.18407 0.82997 0.0
H105 H 0.12987 0.28164 0.82942 0.0
H106 H 0.17483 0.36582 0.81187 0.0
H107 H 0.18726 0.40747 0.78371 0.0
Mg108 Mg 0.05745 0.60298 0.24616 0.0
C109 C 1.00261 0.48583 0.25896 0.0
O110 O 0.01327 0.4733 0.24411 0.0
C111 C 0.0168 0.67498 0.23081 0.0
O112 O 0.02474 0.69446 0.24642 0.0
C113 C 0.07101 0.55314 0.21652 0.0
O114 O 0.02278 0.54684 0.21562 0.0
O115 O 0.10154 0.57928 0.22929 0.0
O116 O 0.01104 0.53278 0.26171 0.0
O117 O 0.09611 0.6673 0.26561 0.0
C118 C 0.06369 0.66084 0.27721 0.0
O119 O 0.01633 0.61791 0.27634 0.0
O120 O 0.02074 0.63384 0.22793 0.0
Mg121 Mg 0.53472 0.07056 0.57827 0.0
C122 C 0.41807 0.02057 0.56488 0.0
O123 O 0.40976 0.02931 0.58058 0.0
C124 C 0.61012 0.03212 0.59243 0.0
O125 O 0.63346 0.04934 0.57794 0.0
C126 C 0.48964 0.08296 0.6094 0.0
O127 O 0.48874 0.03733 0.61036 0.0
O128 O 0.5109 0.1118 0.59657 0.0
O129 O 0.46349 0.02696 0.56138 0.0
O130 O 0.5972 0.11293 0.55994 0.0
C131 C 0.59194 0.08162 0.54762 0.0
O132 O 0.55106 0.03293 0.54743 0.0
O133 O 0.56595 0.03041 0.59476 0.0
Mg134 Mg 0.58068 0.5912 0.91371 0.0
C135 C 0.50606 0.47653 0.90085 0.0
O136 O 0.48687 0.4711 0.91607 0.0
C137 C 0.69846 0.65554 0.92655 0.0
O138 O 0.70699 0.67299 0.91094 0.0
C139 C 0.52505 0.5526 0.94559 0.0
O140 O 0.56893 0.55007 0.94759 0.0
O141 O 0.51799 0.57241 0.93194 0.0
O142 O 0.54844 0.51935 0.89748 0.0
O143 O 0.6033 0.65558 0.89547 0.0
C144 C 0.62269 0.64797 0.8821 0.0
O145 O 0.62323 0.60317 0.88047 0.0
O146 O 0.65254 0.61774 0.93008 0.0
H147 H 0.99438 0.23028 0.10055 0.0
H148 H 0.01517 0.3011 0.12138 0.0
H149 H 0.15858 0.30033 0.13773 0.0
H150 H 0.13686 0.22773 0.11722 0.0
H151 H 0.11649 0.31458 0.16435 0.0
H152 H 0.16316 0.39973 0.11174 0.0
H153 H 0.15366 0.41476 0.08129 0.0
H154 H 0.02044 0.43592 0.09136 0.0
H155 H 0.02863 0.42024 0.12185 0.0
H156 H 0.16229 0.54463 0.215 0.0
H157 H 0.17986 0.49285 0.19385 0.0
H158 H 0.0287 0.44709 0.16798 0.0
H159 H 0.01203 0.49921 0.18834 0.0
H160 H 0.10156 0.46977 0.14545 0.0
H161 H 0.0548 0.36923 0.19934 0.0
H162 H 0.07624 0.36147 0.22947 0.0
H163 H 0.22644 0.3787 0.21587 0.0
H164 H 0.20628 0.38759 0.18571 0.0
C165 C 0.03031 0.245 0.10859 0.0
C166 C 0.06415 0.22355 0.1071 0.0
C167 C 0.04239 0.28586 0.12046 0.0
C168 C 0.08927 0.30728 0.13087 0.0
C169 C 0.1224 0.28488 0.12978 0.0
C170 C 0.1099 0.24333 0.11804 0.0
C171 C 0.10301 0.35286 0.14282 0.0
C172 C 0.11403 0.3489 0.16014 0.0
C173 C 0.10127 0.39853 0.13741 0.0
C174 C 0.09637 0.40853 0.11909 0.0
C175 C 0.13165 0.4073 0.10745 0.0
C176 C 0.12651 0.41596 0.09018 0.0
C177 C 0.08642 0.42622 0.08439 0.0
C178 C 0.05148 0.42797 0.09587 0.0
C179 C 0.05641 0.41929 0.11315 0.0
C180 C 0.13327 0.52399 0.20466 0.0
C181 C 0.08561 0.52588 0.20347 0.0
C182 C 0.14316 0.49415 0.19263 0.0
C183 C 0.10525 0.46536 0.17938 0.0
C184 C 0.05867 0.4688 0.17801 0.0
C185 C 0.04906 0.49862 0.18981 0.0
C186 C 0.11152 0.42972 0.16707 0.0
C187 C 0.10471 0.43577 0.1496 0.0
C188 C 0.1185 0.38681 0.1723 0.0
C189 C 0.12932 0.37965 0.19034 0.0
C190 C 0.09244 0.37153 0.2028 0.0
C191 C 0.10441 0.36699 0.21988 0.0
C192 C 0.15279 0.36978 0.22458 0.0
C193 C 0.18909 0.37672 0.21221 0.0
C194 C 0.17744 0.38155 0.19514 0.0
H195 H 0.16229 0.36653 0.23779 0.0
H196 H 0.08248 0.43289 0.07101 0.0
H197 H 0.90686 0.05993 0.43961 0.0
H198 H 0.83475 0.05208 0.45715 0.0
H199 H 0.93785 0.21085 0.47757 0.0
H200 H 1.00956 0.21899 0.46043 0.0
H201 H 0.88681 0.14389 0.50251 0.0
H202 H 0.83947 0.18522 0.44751 0.0
H203 H 0.8181 0.17164 0.41661 0.0
H204 H 0.68436 0.01684 0.42509 0.0
H205 H 0.70538 0.02924 0.45604 0.0
H206 H 0.69031 0.17304 0.54573 0.0
H207 H 0.76052 0.18921 0.52593 0.0
H208 H 0.65756 0.03619 0.50149 0.0
H209 H 0.58743 0.02079 0.52059 0.0
H210 H 0.70959 0.103 0.4783 0.0
H211 H 0.75713 0.05825 0.53261 0.0
H212 H 0.77764 0.06884 0.56358 0.0
H213 H 0.91015 0.22556 0.55658 0.0
H214 H 0.88989 0.2162 0.52558 0.0
C215 C 0.91409 0.09322 0.44778 0.0
C216 C 0.96422 0.14005 0.44851 0.0
C217 C 0.87278 0.08874 0.45778 0.0
C218 C 0.8808 0.13103 0.46865 0.0
C219 C 0.93067 0.17764 0.46935 0.0
C220 C 0.9717 0.18218 0.45942 0.0
C221 C 0.83787 0.12711 0.47952 0.0
C222 C 0.84826 0.13556 0.49719 0.0
C223 C 0.7872 0.11528 0.47266 0.0
C224 C 0.7743 0.10797 0.45407 0.0
C225 C 0.80573 0.14814 0.44278 0.0
C226 C 0.79364 0.14068 0.42526 0.0
C227 C 0.74998 0.09335 0.41889 0.0
C228 C 0.71821 0.05345 0.43004 0.0
C229 C 0.73016 0.0607 0.44757 0.0
C230 C 0.6825 0.1433 0.53597 0.0
C231 C 0.63337 0.09548 0.53487 0.0
C232 C 0.72277 0.15235 0.52473 0.0
C233 C 0.71478 0.11345 0.51236 0.0
C234 C 0.66495 0.06682 0.51088 0.0
C235 C 0.62482 0.058 0.52193 0.0
C236 C 0.75841 0.11962 0.50135 0.0
C237 C 0.74819 0.11153 0.48364 0.0
C238 C 0.8091 0.13128 0.50819 0.0
C239 C 0.82164 0.13675 0.5268 0.0
C240 C 0.79043 0.0951 0.53769 0.0
C241 C 0.80202 0.10086 0.55525 0.0
C242 C 0.84509 0.14789 0.56204 0.0
C243 C 0.87674 0.18919 0.55129 0.0
C244 C 0.86523 0.18368 0.53373 0.0
H245 H 0.854 0.15228 0.57564 0.0
H246 H 0.74069 0.08763 0.40533 0.0
H247 H 0.92372 0.06437 0.79771 0.0
H248 H 0.86045 0.99408 0.81529 0.0
H249 H 0.88525 0.87922 0.78822 0.0
H250 H 0.94981 0.95011 0.77037 0.0
H251 H 0.77519 0.84626 0.7936 0.0
H252 H 0.94136 0.9173 0.82586 0.0
H253 H 0.02493 0.98884 0.83932 0.0
H254 H 0.93548 0.0338 0.87112 0.0
H255 H 0.85132 0.96304 0.85764 0.0
H256 H 0.65772 0.63713 0.85156 0.0
H257 H 0.71379 0.70647 0.83233 0.0
H258 H 0.70842 0.82432 0.86455 0.0
H259 H 0.65275 0.75449 0.8843 0.0
H260 H 0.808 0.85678 0.85626 0.0
H261 H 0.64232 0.78716 0.82481 0.0
H262 H 0.55762 0.71841 0.81108 0.0
H263 H 0.64359 0.67339 0.77771 0.0
H264 H 0.72884 0.74141 0.7914 0.0
C265 C 0.91606 0.02429 0.79537 0.0
C266 C 0.94234 0.01316 0.78257 0.0
C267 C 0.87975 0.98408 0.80553 0.0
C268 C 0.86843 0.93151 0.80319 0.0
C269 C 0.89357 0.91966 0.79026 0.0
C270 C 0.93057 0.96022 0.78011 0.0
C271 C 0.83052 0.88952 0.81444 0.0
C272 C 0.78265 0.84795 0.80727 0.0
C273 C 0.83949 0.89295 0.83235 0.0
C274 C 0.89003 0.93516 0.84062 0.0
C275 C 0.9395 0.9427 0.83562 0.0
C276 C 0.98698 0.98308 0.84327 0.0
C277 C 0.98552 0.01594 0.85603 0.0
C278 C 0.93655 0.00836 0.86121 0.0
C279 C 0.88894 0.96809 0.85358 0.0
C280 C 0.66779 0.67767 0.85453 0.0
C281 C 0.65069 0.69019 0.86953 0.0
C282 C 0.69976 0.71738 0.84341 0.0
C283 C 0.71508 0.77073 0.84683 0.0
C284 C 0.69705 0.78341 0.86159 0.0
C285 C 0.66493 0.74345 0.87282 0.0
C286 C 0.75237 0.81308 0.83546 0.0
C287 C 0.80028 0.85489 0.8426 0.0
C288 C 0.74318 0.81006 0.81753 0.0
C289 C 0.69198 0.76911 0.80924 0.0
C290 C 0.64317 0.76233 0.81464 0.0
C291 C 0.59505 0.72354 0.80684 0.0
C292 C 0.59522 0.69147 0.79356 0.0
C293 C 0.64352 0.69823 0.78802 0.0
C294 C 0.69176 0.73694 0.79578 0.0
H295 H 0.55792 0.66146 0.78754 0.0
H296 H 0.02233 0.04719 0.86194 0.0
H297 H 1.0036 1.00416 0.12621 0.0
H298 H 0.9992 0.94237 0.14803 0.0
H299 H 0.14276 0.95203 0.13013 0.0
H300 H 0.14846 0.01571 0.10843 0.0
H301 H 0.02477 0.83811 0.13479 0.0
H302 H 0.17558 0.99752 0.16132 0.0
H303 H 0.21992 0.09101 0.17152 0.0
H304 H 0.09084 0.05365 0.20437 0.0
H305 H 0.04534 0.96006 0.19415 0.0
H306 H 0.04539 0.67366 0.1981 0.0
H307 H 0.05844 0.73735 0.17601 0.0
H308 H 0.99854 0.81378 0.20876 0.0
H309 H 0.98847 0.75189 0.23129 0.0
H310 H 0.0796 0.88643 0.19568 0.0
H311 H 0.92763 0.73188 0.17105 0.0
H312 H 0.87389 0.63865 0.16079 0.0
H313 H 0.9915 0.66478 0.12442 0.0
H314 H 0.04628 0.75803 0.13461 0.0
C315 C 0.03471 0.99375 0.12704 0.0
C316 C 0.07647 0.01484 0.11564 0.0
C317 C 0.03206 0.95842 0.13951 0.0
C318 C 0.07056 0.94265 0.14066 0.0
C319 C 0.11276 0.96395 0.12944 0.0
C320 C 0.11613 1.00044 0.11715 0.0
C321 C 0.06472 0.90226 0.15324 0.0
C322 C 0.03769 0.84849 0.14806 0.0
C323 C 0.07942 0.91588 0.17062 0.0
C324 C 0.10679 0.972 0.17681 0.0
C325 C 0.15637 0.00939 0.17057 0.0
C326 C 0.18179 0.06236 0.17639 0.0
C327 C 0.15813 0.07831 0.18855 0.0
C328 C 0.10908 0.04127 0.19494 0.0
C329 C 0.08349 0.98826 0.18914 0.0
C330 C 0.03399 0.70338 0.20049 0.0
C331 C 0.01555 0.70746 0.21644 0.0
C332 C 0.0414 0.73989 0.18778 0.0
C333 C 0.02899 0.7804 0.19051 0.0
C334 C 1.00872 0.78323 0.20626 0.0
C335 C 1.00248 0.74748 0.21912 0.0
C336 C 0.0396 0.82134 0.17735 0.0
C337 C 0.06708 0.87545 0.18241 0.0
C338 C 0.0242 0.80781 0.15989 0.0
C339 C 0.99131 0.75178 0.15372 0.0
C340 C 0.94222 0.71763 0.16095 0.0
C341 C 0.91154 0.66481 0.15513 0.0
C342 C 0.92934 0.64576 0.142 0.0
C343 C 0.9778 0.67956 0.13461 0.0
C344 C 1.00865 0.73242 0.14039 0.0
H345 H 0.90554 0.60485 0.13751 0.0
H346 H 0.17787 0.11933 0.19304 0.0
H347 H 0.07707 0.06757 0.46774 0.0
H348 H 0.12879 0.05399 0.49029 0.0
H349 H 0.27222 0.14554 0.46294 0.0
H350 H 0.21951 0.15628 0.43967 0.0
H351 H 0.24051 0.03418 0.47226 0.0
H352 H 0.31428 0.20606 0.51639 0.0
H353 H 0.29494 0.26909 0.53141 0.0
H354 H 0.12918 0.14993 0.53198 0.0
H355 H 0.14823 0.08558 0.51788 0.0
H356 H 0.43724 0.03845 0.53095 0.0
H357 H 0.38288 0.0526 0.50951 0.0
H358 H 0.25994 0.01052 0.54569 0.0
H359 H 0.31502 0.99813 0.56738 0.0
H360 H 0.281 0.09926 0.53232 0.0
H361 H 0.24546 0.93135 0.50902 0.0
H362 H 0.26736 0.86517 0.49798 0.0
H363 H 0.35362 0.96979 0.45785 0.0
H364 H 0.33283 0.03694 0.46879 0.0
C365 C 0.11997 0.08647 0.46684 0.0
C366 C 0.14466 0.11482 0.45229 0.0
C367 C 0.14966 0.07928 0.47988 0.0
C368 C 0.20486 0.10073 0.47876 0.0
C369 C 0.22991 0.12996 0.46433 0.0
C370 C 0.19995 0.13652 0.45112 0.0
C371 C 0.23419 0.08473 0.49106 0.0
C372 C 0.24983 0.04875 0.48538 0.0
C373 C 0.24516 0.10253 0.50828 0.0
C374 C 0.2322 0.14188 0.5153 0.0
C375 C 0.27361 0.19364 0.51952 0.0
C376 C 0.26288 0.2293 0.52815 0.0
C377 C 0.21072 0.21375 0.53245 0.0
C378 C 0.16941 0.16221 0.5284 0.0
C379 C 0.18016 0.12611 0.52007 0.0
C380 C 0.39806 0.03088 0.53424 0.0
C381 C 0.3806 0.01738 0.55094 0.0
C382 C 0.36688 0.03896 0.52192 0.0
C383 C 0.31712 0.03268 0.52591 0.0
C384 C 0.29831 0.01603 0.54229 0.0
C385 C 0.32972 0.00861 0.55467 0.0
C386 C 0.28692 0.04804 0.51364 0.0
C387 C 0.27157 0.08429 0.51925 0.0
C388 C 0.27547 0.02971 0.49645 0.0
C389 C 0.28799 0.98938 0.48983 0.0
C390 C 0.26945 0.94043 0.49792 0.0
C391 C 0.2816 0.9027 0.49167 0.0
C392 C 0.31198 0.91332 0.47725 0.0
C393 C 0.33015 0.96164 0.46903 0.0
C394 C 0.31815 0.99953 0.47524 0.0
H395 H 0.32134 0.88406 0.47242 0.0
H396 H 0.20239 0.2415 0.53902 0.0
H397 H 0.19083 0.25993 0.76782 0.0
H398 H 0.25789 0.31666 0.78994 0.0
H399 H 0.19654 0.18436 0.8239 0.0
H400 H 0.1303 0.12761 0.80173 0.0
H401 H 0.21852 0.28597 0.83902 0.0
H402 H 0.30027 0.20832 0.80469 0.0
H403 H 0.32858 0.18966 0.7775 0.0
H404 H 0.42631 0.35727 0.76959 0.0
H405 H 0.39792 0.37691 0.79662 0.0
H406 H 0.42015 0.37655 0.90344 0.0
H407 H 0.3556 0.32191 0.88079 0.0
H408 H 0.44807 0.43966 0.84408 0.0
H409 H 0.51386 0.49325 0.86655 0.0
H410 H 0.40927 0.34869 0.82952 0.0
H411 H 0.33435 0.43052 0.86267 0.0
H412 H 0.3047 0.45571 0.88835 0.0
H413 H 0.19299 0.29127 0.89688 0.0
H414 H 0.22279 0.26496 0.87145 0.0
C415 C 0.19113 0.24353 0.78015 0.0
C416 C 0.15454 0.19011 0.78338 0.0
C417 C 0.22957 0.27568 0.79269 0.0
C418 C 0.23201 0.25466 0.80856 0.0
C419 C 0.19502 0.20141 0.8118 0.0
C420 C 0.15728 0.16913 0.79919 0.0
C421 C 0.2746 0.28714 0.82156 0.0
C422 C 0.26021 0.29934 0.83707 0.0
C423 C 0.32905 0.3059 0.81872 0.0
C424 C 0.34655 0.29407 0.80258 0.0
C425 C 0.32746 0.24119 0.79708 0.0
C426 C 0.34357 0.23043 0.78171 0.0
C427 C 0.37911 0.27225 0.7718 0.0
C428 C 0.39873 0.32491 0.77726 0.0
C429 C 0.38266 0.33588 0.79261 0.0
C430 C 0.42726 0.3903 0.89049 0.0
C431 C 0.47204 0.43939 0.88683 0.0
C432 C 0.38999 0.35927 0.87755 0.0
C433 C 0.39597 0.37727 0.86074 0.0
C434 C 0.4422 0.42492 0.85692 0.0
C435 C 0.47995 0.45554 0.86981 0.0
C436 C 0.35343 0.34742 0.84726 0.0
C437 C 0.36771 0.33567 0.83159 0.0
C438 C 0.2989 0.33013 0.84982 0.0
C439 C 0.28124 0.34573 0.86525 0.0
C440 C 0.30385 0.39967 0.87012 0.0
C441 C 0.28697 0.41417 0.88462 0.0
C442 C 0.24705 0.37512 0.89425 0.0
C443 C 0.22394 0.32148 0.88941 0.0
C444 C 0.24087 0.30674 0.87497 0.0
H445 H 0.23397 0.38645 0.90546 0.0
H446 H 0.39154 0.26385 0.7599 0.0
H447 H 0.97992 0.07478 0.69881 0.0
H448 H 0.91327 0.05492 0.67581 0.0
H449 H 0.83821 0.12109 0.70618 0.0
H450 H 0.90492 0.1414 0.72932 0.0
H451 H 0.76543 0.02156 0.69047 0.0
H452 H 0.91185 0.19165 0.675 0.0
H453 H 1.00573 0.25437 0.66896 0.0
H454 H 0.9983 0.15149 0.62823 0.0
H455 H 0.90451 0.08779 0.63417 0.0
H456 H 0.59793 0.04205 0.62635 0.0
H457 H 0.65924 0.05131 0.64989 0.0
H458 H 0.75376 0.02027 0.61528 0.0
H459 H 0.69397 0.01394 0.59152 0.0
H460 H 0.81709 0.09989 0.63349 0.0
H461 H 0.67269 0.92992 0.64775 0.0
H462 H 0.57991 0.86325 0.6537 0.0
H463 H 0.58366 0.95866 0.69621 0.0
H464 H 0.67627 0.02626 0.69038 0.0
C465 C 0.94939 0.08533 0.70063 0.0
C466 C 0.94797 0.10985 0.71596 0.0
C467 C 0.91133 0.07398 0.68743 0.0
C468 C 0.87083 0.08664 0.68925 0.0
C469 C 0.86908 0.11092 0.70452 0.0
C470 C 0.90748 0.1228 0.71769 0.0
C471 C 0.83043 0.07459 0.67519 0.0
C472 C 0.77649 0.03909 0.67805 0.0
C473 C 0.84514 0.09615 0.65885 0.0
C474 C 0.90132 0.13473 0.65514 0.0
C475 C 0.93035 0.18222 0.66483 0.0
C476 C 0.98352 0.21799 0.66142 0.0
C477 C 1.00801 0.20687 0.64825 0.0
C478 C 0.9793 0.16003 0.63844 0.0
C479 C 0.92611 0.12411 0.64181 0.0
C480 C 0.63108 0.03598 0.6238 0.0
C481 C 0.64096 0.02707 0.60705 0.0
C482 C 0.66622 0.04118 0.63733 0.0
C483 C 0.71121 0.03605 0.63452 0.0
C484 C 0.71963 0.02467 0.61787 0.0
C485 C 0.68515 0.02062 0.60428 0.0
C486 C 0.75145 0.04637 0.64862 0.0
C487 C 0.8056 0.08183 0.64582 0.0
C488 C 0.73692 0.02406 0.66494 0.0
C489 C 0.68129 0.98338 0.66853 0.0
C490 C 0.65362 0.93686 0.6583 0.0
C491 C 0.60107 0.89888 0.66166 0.0
C492 C 0.57587 0.90678 0.6753 0.0
C493 C 0.60322 0.95262 0.68564 0.0
C494 C 0.65576 0.99075 0.68232 0.0
H495 H 0.53518 0.87733 0.67788 0.0
H496 H 0.04919 0.23458 0.64563 0.0
H497 H 0.05021 0.03744 0.0255 0.0
H498 H 1.00062 0.9714 1.00291 0.0
H499 H 0.85498 0.91924 0.02922 0.0
H500 H 0.90572 0.98327 0.05257 0.0
H501 H 0.87144 0.83792 0.02066 0.0
H502 H 0.84736 0.96451 0.9766 0.0
H503 H 0.8873 0.05035 0.96189 0.0
H504 H 0.03358 0.0478 0.95787 0.0
H505 H 0.99376 0.96129 0.97211 0.0
H506 H 0.67711 0.66171 0.95976 0.0
H507 H 0.73491 0.72804 0.9812 0.0
H508 H 0.86466 0.78977 0.94678 0.0
H509 H 0.80551 0.72526 0.92482 0.0
H510 H 0.86203 0.86757 0.95888 0.0
H511 H 0.85939 0.72012 0.9859 0.0
H512 H 0.82079 0.63012 0.99755 0.0
H513 H 0.73613 0.66857 0.03356 0.0
H514 H 0.77365 0.75861 0.02198 0.0
C515 C 1.0073 0.01294 0.02619 0.0
C516 C 0.98141 0.01685 0.04045 0.0
C517 C 0.97878 0.97558 0.01311 0.0
C518 C 0.92354 0.94141 0.01391 0.0
C519 C 0.8974 0.94581 0.0281 0.0
C520 C 0.92619 0.98277 0.04135 0.0
C521 C 0.89451 0.89671 1.00123 0.0
C522 C 0.86885 0.84437 0.00715 0.0
C523 C 0.89317 0.90458 0.9835 0.0
C524 C 0.91848 0.95791 0.97606 0.0
C525 C 0.8883 0.98279 0.97278 0.0
C526 C 0.91066 0.03117 0.96435 0.0
C527 C 0.96318 0.05486 0.95913 0.0
C528 C 0.99315 0.0298 0.96212 0.0
C529 C 0.97067 0.98109 0.97034 0.0
C530 C 0.7183 0.68857 0.95686 0.0
C531 C 0.73673 0.68818 0.94056 0.0
C532 C 0.75158 0.72655 0.96922 0.0
C533 C 0.80465 0.764 0.9658 0.0
C534 C 0.8239 0.76167 0.94979 0.0
C535 C 0.79018 0.7245 0.93726 0.0
C536 C 0.83828 0.80833 0.97825 0.0
C537 C 0.8647 0.86064 0.97234 0.0
C538 C 0.84165 0.80013 0.99592 0.0
C539 C 0.81903 0.74602 1.00297 0.0
C540 C 0.83224 0.70928 0.99622 0.0
C541 C 0.8106 0.65826 1.00283 0.0
C542 C 0.77594 0.6436 0.01626 0.0
C543 C 0.76295 0.67997 0.02315 0.0
C544 C 0.78446 0.73103 0.01658 0.0
H545 H 0.75922 0.60408 0.02136 0.0
H546 H 0.9805 0.09241 0.95268 0.0
H547 H 0.97701 0.93893 0.38405 0.0
H548 H 0.98382 0.87734 0.36406 0.0
H549 H 0.13685 1.00347 0.34919 0.0
H550 H 0.13078 0.0647 0.36925 0.0
H551 H 0.06761 0.93708 0.32122 0.0
H552 H 0.13946 0.92382 0.37623 0.0
H553 H 0.13644 0.91029 0.40722 0.0
H554 H 0.99988 0.75422 0.39958 0.0
H555 H 1.00162 0.76717 0.36854 0.0
H556 H 0.14135 0.76741 0.27816 0.0
H557 H 0.14696 0.83688 0.2976 0.0
H558 H 0.0123 0.71787 0.3241 0.0
H559 H 1.00775 0.64904 0.30532 0.0
H560 H 0.07877 0.78591 0.34621 0.0
H561 H 1.00124 0.797 0.29232 0.0
H562 H 0.99891 0.80744 0.26123 0.0
H563 H 0.13768 0.96298 0.26625 0.0
H564 H 0.14134 0.95308 0.29737 0.0
C565 C 0.0117 0.95362 0.37634 0.0
C566 C 0.05347 0.00652 0.37829 0.0
C567 C 0.01564 0.91843 0.36498 0.0
C568 C 0.06103 0.93582 0.35521 0.0
C569 C 0.10152 0.98923 0.35658 0.0
C570 C 0.09803 0.02408 0.36811 0.0
C571 C 0.06793 0.89776 0.34436 0.0
C572 C 0.07065 0.90433 0.32666 0.0
C573 C 0.07119 0.85468 0.35145 0.0
C574 C 0.07035 0.84668 0.37009 0.0
C575 C 0.10852 0.8868 0.38117 0.0
C576 C 0.10709 0.8792 0.39874 0.0
C577 C 0.06791 0.83148 0.40537 0.0
C578 C 0.03016 0.79119 0.39443 0.0
C579 C 0.03137 0.79863 0.37685 0.0
C580 C 0.11379 0.75612 0.28837 0.0
C581 C 0.07388 0.70275 0.29009 0.0
C582 C 0.11661 0.79586 0.29937 0.0
C583 C 0.07933 0.78284 0.31216 0.0
C584 C 0.04142 0.72921 0.31436 0.0
C585 C 0.03878 0.68977 0.30351 0.0
C586 C 0.07757 0.82441 0.32292 0.0
C587 C 0.07597 0.81869 0.34067 0.0
C588 C 0.07444 0.86771 0.31582 0.0
C589 C 0.07194 0.87405 0.29715 0.0
C590 C 0.03147 0.83328 0.28678 0.0
C591 C 0.02989 0.8391 0.26915 0.0
C592 C 0.06822 0.88577 0.26176 0.0
C593 C 0.10809 0.9268 0.27199 0.0
C594 C 0.10994 0.92111 0.28962 0.0
H595 H 0.06695 0.89019 0.24811 0.0
H596 H 0.06687 0.82567 0.41898 0.0
H597 H 0.17329 0.16854 0.70102 0.0
H598 H 0.23647 0.17089 0.68068 0.0
H599 H 0.20824 0.01795 0.69747 0.0
H600 H 0.14382 0.01482 0.71773 0.0
H601 H 0.32 0.10308 0.69727 0.0
H602 H 0.16035 0.02063 0.66064 0.0
H603 H 0.07989 0.01491 0.64678 0.0
H604 H 0.17654 0.16361 0.62255 0.0
H605 H 0.25756 0.17061 0.63648 0.0
H606 H 0.4483 0.0306 0.63841 0.0
H607 H 0.38842 0.03961 0.65713 0.0
H608 H 0.4009 0.17065 0.62787 0.0
H609 H 0.46026 0.16041 0.6084 0.0
H610 H 0.30023 0.10565 0.63437 0.0
H611 H 0.45915 0.18965 0.66888 0.0
H612 H 0.542 0.20235 0.68315 0.0
H613 H 0.45169 0.06172 0.71197 0.0
H614 H 0.3683 0.04771 0.69771 0.0
C615 C 0.17998 0.13503 0.70024 0.0
C616 C 0.15361 0.09145 0.71098 0.0
C617 C 0.21605 0.13645 0.68859 0.0
C618 C 0.22708 0.09466 0.68758 0.0
C619 C 0.20022 0.05061 0.69807 0.0
C620 C 0.16326 0.04871 0.70955 0.0
C621 C 0.26854 0.09833 0.67614 0.0
C622 C 0.31546 0.10287 0.6835 0.0
C623 C 0.26362 0.10082 0.65823 0.0
C624 C 0.21497 0.09642 0.64975 0.0
C625 C 0.16442 0.05235 0.65248 0.0
C626 C 0.11871 0.04883 0.64458 0.0
C627 C 0.12308 0.08895 0.63383 0.0
C628 C 0.1732 0.1326 0.6309 0.0
C629 C 0.21903 0.13634 0.63878 0.0
C630 C 0.439 0.06187 0.63596 0.0
C631 C 0.45926 0.09484 0.62185 0.0
C632 C 0.4048 0.06718 0.64682 0.0
C633 C 0.39049 0.10629 0.64414 0.0
C634 C 0.41147 0.14024 0.63026 0.0
C635 C 0.44572 0.13468 0.61922 0.0
C636 C 0.3516 0.10919 0.65546 0.0
C637 C 0.30516 0.10616 0.64813 0.0
C638 C 0.3574 0.10919 0.67346 0.0
C639 C 0.40746 0.11743 0.68212 0.0
C640 C 0.45696 0.1612 0.67817 0.0
C641 C 0.50403 0.16867 0.68628 0.0
C642 C 0.50211 0.13281 0.69844 0.0
C643 C 0.45311 0.08946 0.70255 0.0
C644 C 0.40591 0.08177 0.69447 0.0
H645 H 0.5386 0.13867 0.70469 0.0
H646 H 0.08765 0.08616 0.62774 0.0
H647 H 0.21859 0.2183 0.05503 0.0
H648 H 0.28962 0.28394 0.03757 0.0
H649 H 0.1729 0.30187 0.00724 0.0
H650 H 0.10236 0.23722 0.02441 0.0
H651 H 0.24442 0.29343 0.98745 0.0
H652 H 0.24765 0.3935 0.03721 0.0
H653 H 0.25439 0.41282 0.06807 0.0
H654 H 0.41032 0.42922 0.07117 0.0
H655 H 0.40417 0.40926 0.04035 0.0
H656 H 0.41847 0.52312 0.94221 0.0
H657 H 0.34744 0.46492 0.96106 0.0
H658 H 0.46435 0.45887 0.99508 0.0
H659 H 0.53497 0.51776 0.97675 0.0
H660 H 0.39204 0.4612 0.01314 0.0
H661 H 0.39085 0.36144 0.96408 0.0
H662 H 0.38566 0.34028 0.93343 0.0
H663 H 0.22791 0.31912 0.92914 0.0
H664 H 0.23271 0.34146 0.95968 0.0
C665 C 0.20807 0.23608 0.04461 0.0
C666 C 0.15461 0.22238 0.04123 0.0
C667 C 0.24871 0.27372 0.03467 0.0
C668 C 0.23657 0.29805 0.02114 0.0
C669 C 0.18326 0.28364 0.01757 0.0
C670 C 0.14291 0.24662 0.02752 0.0
C671 C 0.27901 0.33913 0.01071 0.0
C672 C 0.27642 0.33038 0.99303 0.0
C673 C 0.3213 0.38689 0.01802 0.0
C674 C 0.32522 0.39936 0.03651 0.0
C675 C 0.28321 0.40084 0.0445 0.0
C676 C 0.28695 0.41197 0.06197 0.0
C677 C 0.3327 0.4221 0.07158 0.0
C678 C 0.37488 0.42129 0.06372 0.0
C679 C 0.3713 0.41011 0.04624 0.0
C680 C 0.42903 0.51028 0.95389 0.0
C681 C 0.48234 0.52472 0.95788 0.0
C682 C 0.38838 0.47661 0.96459 0.0
C683 C 0.40036 0.4565 0.97935 0.0
C684 C 0.45389 0.47349 0.98377 0.0
C685 C 0.49432 0.50713 0.97319 0.0
C686 C 0.35755 0.41566 0.9898 0.0
C687 C 0.36005 0.42435 0.0075 0.0
C688 C 0.31546 0.36754 0.98251 0.0
C689 C 0.31242 0.35381 0.96414 0.0
C690 C 0.35526 0.3528 0.95656 0.0
C691 C 0.35242 0.34063 0.93919 0.0
C692 C 0.30664 0.32872 0.92929 0.0
C693 C 0.26352 0.32872 0.93677 0.0
C694 C 0.26629 0.34117 0.95412 0.0
H695 H 0.30453 0.31928 0.91585 0.0
H696 H 0.33552 0.4307 0.08511 0.0
H697 H 0.10405 0.30472 0.39321 0.0
H698 H 0.08132 0.3468 0.37007 0.0
H699 H 0.98577 0.19401 0.34469 0.0
H700 H 1.00869 0.15153 0.36766 0.0
H701 H 0.04624 0.26736 0.32271 0.0
H702 H 0.92719 0.25419 0.36543 0.0
H703 H 0.90191 0.26553 0.39414 0.0
H704 H 0.99953 0.43517 0.39096 0.0
H705 H 0.02601 0.42482 0.36232 0.0
H706 H 0.95575 0.37706 0.25845 0.0
H707 H 0.95314 0.3207 0.28196 0.0
H708 H 0.0321 0.45935 0.31541 0.0
H709 H 0.03089 0.51469 0.29237 0.0
H710 H 0.97016 0.38426 0.33328 0.0
H711 H 0.09656 0.39544 0.29158 0.0
H712 H 0.12345 0.38225 0.26336 0.0
H713 H 0.0125 0.21446 0.26505 0.0
H714 H 0.98441 0.22686 0.29317 0.0
C715 C 0.07823 0.27993 0.38272 0.0
C716 C 0.05817 0.22458 0.38239 0.0
C717 C 0.06496 0.30409 0.36953 0.0
C718 C 0.03112 0.2735 0.35574 0.0
C719 C 0.01172 0.21843 0.35523 0.0
C720 C 0.02493 0.1942 0.3684 0.0
C721 C 0.0172 0.29919 0.34165 0.0
C722 C 0.02886 0.29232 0.32498 0.0
C723 C 0.99512 0.33228 0.34461 0.0
C724 C 0.97891 0.33869 0.36177 0.0
C725 C 0.94356 0.2939 0.3709 0.0
C726 C 0.92897 0.30015 0.38715 0.0
C727 C 0.94919 0.35103 0.39438 0.0
C728 C 0.98393 0.39578 0.38535 0.0
C729 C 0.99869 0.38975 0.36909 0.0
C730 C 0.97147 0.39518 0.27094 0.0
C731 C 0.99364 0.45031 0.27353 0.0
C732 C 0.97062 0.36306 0.28435 0.0
C733 C 0.99412 0.38576 0.30045 0.0
C734 C 0.01392 0.44052 0.30319 0.0
C735 C 0.0132 0.47229 0.28995 0.0
C736 C 1.00053 0.35368 0.31426 0.0
C737 C 0.98731 0.35917 0.33093 0.0
C738 C 0.02134 0.3193 0.31132 0.0
C739 C 0.03803 0.31217 0.29437 0.0
C740 C 0.07768 0.35582 0.28586 0.0
C741 C 0.09315 0.34844 0.26989 0.0
C742 C 0.06964 0.29749 0.26241 0.0
C743 C 0.0306 0.25387 0.27085 0.0
C744 C 0.01489 0.26106 0.2868 0.0
H745 H 0.08166 0.29162 0.25008 0.0
H746 H 0.93786 0.3558 0.40697 0.0
loop_
_geom_bond_atom_site_label_1
_geom_bond_atom_site_label_2
_geom_bond_distance
_geom_bond_site_symmetry_2
_ccdc_geom_bond_type
Mn0 O5 2.095 . S
Mn0 O15 2.162 . S
Mn0 O16 2.297 . S
Mn0 O24 2.385 . S
Mn0 O25 2.209 . S
Mn0 O26 2.094 . S
Mn1 O6 2.121 . S
Mn1 N8 2.257 1_455 S
Mn1 N17 2.282 . S
Mn1 O25 2.215 . S
Mn1 O27 2.117 . S
C2 O24 1.234 . S
C2 O25 1.283 . S
C3 O15 1.281 . S
C3 O16 1.236 . S
C4 O26 1.240 . S
C4 O27 1.264 . S
O5 Mn0 2.095 . S
O5 C14 1.250 . S
O6 Mn1 2.121 . S
O6 C14 1.258 . S
C7 N8 1.326 . S
C7 C11 1.460 . S
C7 H13 0.929 . S
N8 Mn1 2.257 1_655 S
N8 C7 1.326 . S
N8 C12 1.362 . S
C9 C10 1.258 . S
C9 C12 1.431 . S
C9 C29 1.449 . S
C10 C9 1.258 . S
C10 C11 1.477 . S
C10 H30 0.931 . S
C11 C7 1.460 . S
C11 C10 1.477 . S
C11 H31 0.930 . S
C12 N8 1.362 . S
C12 C9 1.431 . S
C12 C22 1.476 . S
H13 C7 0.929 . S
C14 O5 1.250 . S
C14 O6 1.258 . S
O15 Mn0 2.162 . S
O15 C3 1.281 . S
O16 Mn0 2.297 . S
O16 C3 1.236 . S
N17 Mn1 2.282 . S
N17 C18 1.328 . S
N17 C22 1.318 1_455 S
C18 N17 1.328 . S
C18 C19 1.457 1_554 S
C18 H23 0.929 . S
C19 C18 1.457 1_556 S
C19 C20 1.291 1_455 S
C19 H32 0.931 . S
C20 C19 1.291 1_655 S
C20 C21 1.373 1_556 S
C20 H33 0.929 . S
C21 C20 1.373 1_554 S
C21 C22 1.396 . S
C21 C28 1.403 . S
C22 C12 1.476 . S
C22 N17 1.318 1_655 S
C22 C21 1.396 . S
H23 C18 0.929 . S
O24 Mn0 2.385 . S
O24 C2 1.234 . S
O25 Mn0 2.209 . S
O25 Mn1 2.215 . S
O25 C2 1.283 . S
O26 Mn0 2.094 . S
O26 C4 1.240 . S
O27 Mn1 2.117 . S
O27 C4 1.264 . S
C28 C21 1.403 . S
C28 C29 1.399 . S
C28 H34 0.929 1_554 S
C29 C9 1.449 . S
C29 C28 1.399 . S
C29 H35 0.930 . S
H30 C10 0.931 . S
H31 C11 0.930 . S
H32 C19 0.931 . S
H33 C20 0.929 . S
H34 C28 0.929 1_556 S
H35 C29 0.930 . S
Mn36 O41 2.095 . S
Mn36 O51 2.162 1_445 S
Mn36 O52 2.297 . S
Mn36 O60 2.385 . S
Mn36 O61 2.209 . S
Mn36 O62 2.094 1_455 S
Mn37 O42 2.121 . S
Mn37 N44 2.257 . S
Mn37 N53 2.282 . S
Mn37 O61 2.215 . S
Mn37 O63 2.117 1_455 S
C38 O60 1.234 . S
C38 O61 1.283 . S
C39 O51 1.281 1_455 S
C39 O52 1.236 1_565 S
C40 O62 1.240 . S
C40 O63 1.264 . S
O41 Mn36 2.095 . S
O41 C50 1.250 . S
O42 Mn37 2.121 . S
O42 C50 1.258 . S
C43 N44 1.326 . S
C43 C47 1.460 . S
C43 H49 0.929 . S
N44 Mn37 2.257 . S
N44 C43 1.326 . S
N44 C48 1.362 . S
C45 C46 1.258 . S
C45 C48 1.431 . S
C45 C65 1.449 . S
C46 C45 1.258 . S
C46 C47 1.477 . S
C46 H66 0.931 . S
C47 C43 1.460 . S
C47 C46 1.477 . S
C47 H67 0.930 . S
C48 N44 1.362 . S
C48 C45 1.431 . S
C48 C58 1.476 . S
H49 C43 0.929 . S
C50 O41 1.250 . S
C50 O42 1.258 . S
O51 Mn36 2.162 1_665 S
O51 C39 1.281 1_655 S
O52 Mn36 2.297 . S
O52 C39 1.236 1_545 S
N53 Mn37 2.282 . S
N53 C54 1.328 . S
N53 C58 1.318 . S
C54 N53 1.328 . S
C54 C55 1.457 . S
C54 H59 0.929 . S
C55 C54 1.457 . S
C55 C56 1.291 . S
C55 H68 0.931 . S
C56 C55 1.291 . S
C56 C57 1.373 . S
C56 H69 0.929 . S
C57 C56 1.373 . S
C57 C58 1.396 . S
C57 C64 1.403 . S
C58 C48 1.476 . S
C58 N53 1.318 . S
C58 C57 1.396 . S
H59 C54 0.929 . S
O60 Mn36 2.385 . S
O60 C38 1.234 . S
O61 Mn36 2.209 . S
O61 Mn37 2.215 . S
O61 C38 1.283 . S
O62 Mn36 2.094 1_655 S
O62 C40 1.240 . S
O63 Mn37 2.117 1_655 S
O63 C40 1.264 . S
C64 C57 1.403 . S
C64 C65 1.399 . S
C64 H70 0.929 . S
C65 C45 1.449 . S
C65 C64 1.399 . S
C65 H71 0.930 . S
H66 C46 0.931 . S
H67 C47 0.930 . S
H68 C55 0.931 . S
H69 C56 0.929 . S
H70 C64 0.929 . S
H71 C65 0.930 . S
Mn72 O77 2.095 1_455 S
Mn72 O87 2.162 . S
Mn72 O88 2.297 . S
Mn72 O96 2.385 . S
Mn72 O97 2.209 . S
Mn72 O98 2.094 . S
Mn73 O78 2.121 . S
Mn73 N80 2.257 1_655 S
Mn73 N89 2.282 1_655 S
Mn73 O97 2.215 1_655 S
Mn73 O99 2.117 . S
C74 O96 1.234 . S
C74 O97 1.283 . S
C75 O87 1.281 . S
C75 O88 1.236 . S
C76 O98 1.240 1_655 S
C76 O99 1.264 . S
O77 Mn72 2.095 1_655 S
O77 C86 1.250 . S
O78 Mn73 2.121 . S
O78 C86 1.258 . S
C79 N80 1.326 . S
C79 C83 1.460 . S
C79 H85 0.929 1_455 S
N80 Mn73 2.257 1_455 S
N80 C79 1.326 . S
N80 C84 1.362 . S
C81 C82 1.258 . S
C81 C84 1.431 . S
C81 C101 1.449 . S
C82 C81 1.258 . S
C82 C83 1.477 . S
C82 H102 0.931 . S
C83 C79 1.460 . S
C83 C82 1.477 . S
C83 H103 0.930 . S
C84 N80 1.362 . S
C84 C81 1.431 . S
C84 C94 1.476 . S
H85 C79 0.929 1_655 S
C86 O77 1.250 . S
C86 O78 1.258 . S
O87 Mn72 2.162 . S
O87 C75 1.281 . S
O88 Mn72 2.297 . S
O88 C75 1.236 . S
N89 Mn73 2.282 1_455 S
N89 C90 1.328 . S
N89 C94 1.318 . S
C90 N89 1.328 . S
C90 C91 1.457 . S
C90 H95 0.929 . S
C91 C90 1.457 . S
C91 C92 1.291 . S
C91 H104 0.931 . S
C92 C91 1.291 . S
C92 C93 1.373 . S
C92 H105 0.929 . S
C93 C92 1.373 . S
C93 C94 1.396 . S
C93 C100 1.403 . S
C94 C84 1.476 . S
C94 N89 1.318 . S
C94 C93 1.396 . S
H95 C90 0.929 . S
O96 Mn72 2.385 . S
O96 C74 1.234 . S
O97 Mn72 2.209 . S
O97 Mn73 2.215 1_455 S
O97 C74 1.283 . S
O98 Mn72 2.094 . S
O98 C76 1.240 1_455 S
O99 Mn73 2.117 . S
O99 C76 1.264 . S
C100 C93 1.403 . S
C100 C101 1.399 . S
C100 H106 0.929 . S
C101 C81 1.449 . S
C101 C100 1.399 . S
C101 H107 0.930 . S
H102 C82 0.931 . S
H103 C83 0.930 . S
H104 C91 0.931 . S
H105 C92 0.929 . S
H106 C100 0.929 . S
H107 C101 0.930 . S
Mg108 O115 2.141 . S
Mg108 O116 2.048 . S
Mg108 O117 2.048 . S
Mg108 O120 2.141 . S
C109 O110 1.313 1_455 S
C109 O116 1.195 . S
O110 C109 1.313 1_655 S
C111 O112 1.245 1_455 S
C111 O120 1.289 . S
O112 C111 1.245 1_655 S
C113 O114 1.245 1_455 S
C113 O115 1.289 . S
O114 C113 1.245 1_655 S
O115 Mg108 2.141 . S
O115 C113 1.289 . S
O116 Mg108 2.048 . S
O116 C109 1.195 . S
O117 Mg108 2.048 . S
O117 C118 1.195 . S
C118 O117 1.195 . S
C118 O119 1.313 1_455 S
O119 C118 1.313 1_655 S
O120 Mg108 2.141 . S
O120 C111 1.289 . S
Mg121 O128 2.141 . S
Mg121 O129 2.048 . S
Mg121 O130 2.048 . S
Mg121 O133 2.141 . S
C122 O123 1.313 . S
C122 O129 1.195 . S
O123 C122 1.313 . S
C124 O125 1.245 . S
C124 O133 1.289 . S
O125 C124 1.245 . S
C126 O127 1.245 . S
C126 O128 1.289 . S
O127 C126 1.245 . S
O128 Mg121 2.141 . S
O128 C126 1.289 . S
O129 Mg121 2.048 . S
O129 C122 1.195 . S
O130 Mg121 2.048 . S
O130 C131 1.195 . S
C131 O130 1.195 . S
C131 O132 1.313 . S
O132 C131 1.313 . S
O133 Mg121 2.141 . S
O133 C124 1.289 . S
Mg134 O141 2.141 . S
Mg134 O142 2.048 . S
Mg134 O143 2.048 . S
Mg134 O146 2.141 . S
C135 O136 1.313 . S
C135 O142 1.195 . S
O136 C135 1.313 . S
C137 O138 1.245 . S
C137 O146 1.289 . S
O138 C137 1.245 . S
C139 O140 1.245 . S
C139 O141 1.289 . S
O140 C139 1.245 . S
O141 Mg134 2.141 . S
O141 C139 1.289 . S
O142 Mg134 2.048 . S
O142 C135 1.195 . S
O143 Mg134 2.048 . S
O143 C144 1.195 . S
C144 O143 1.195 . S
C144 O145 1.313 . S
O145 C144 1.313 . S
O146 Mg134 2.141 . S
O146 C137 1.289 . S
H147 C165 0.951 1_655 S
H148 C167 0.951 1_655 S
H149 C169 0.950 . S
H150 C170 0.950 . S
H151 C172 0.950 . S
H152 C175 0.950 . S
H153 C176 0.950 . S
H154 C178 0.950 . S
H155 C179 0.950 . S
H156 C180 0.951 . S
H157 C182 0.951 . S
H158 C184 0.950 1_655 S
H159 C185 0.950 1_655 S
H160 C187 0.950 . S
H161 C190 0.950 . S
H162 C191 0.950 . S
H163 C193 0.950 . S
H164 C194 0.950 . S
C165 H147 0.951 1_455 S
C165 C166 1.366 . S
C165 C167 1.388 . S
C166 C165 1.366 . S
C166 C170 1.385 . S
C167 H148 0.951 1_455 S
C167 C165 1.388 . S
C167 C168 1.366 . S
C168 C167 1.366 . S
C168 C169 1.414 . S
C168 C171 1.499 . S
C169 H149 0.950 . S
C169 C168 1.414 . S
C169 C170 1.374 . S
C170 H150 0.950 . S
C170 C166 1.385 . S
C170 C169 1.374 . S
C171 C168 1.499 . S
C171 C172 1.373 . S
C171 C173 1.389 . S
C172 H151 0.950 . S
C172 C171 1.373 . S
C172 C188 1.377 . S
C173 C171 1.389 . S
C173 C174 1.524 . S
C173 C187 1.377 . S
C174 C173 1.524 . S
C174 C175 1.397 . S
C174 C179 1.363 1_455 S
C175 H152 0.950 . S
C175 C174 1.397 . S
C175 C176 1.334 . S
C176 H153 0.950 . S
C176 C175 1.334 . S
C176 C177 1.287 1_455 S
C177 C176 1.287 1_655 S
C177 C178 1.524 . S
C177 H196 0.913 . S
C178 H154 0.950 . S
C178 C177 1.524 . S
C178 C179 1.415 . S
C179 H155 0.950 . S
C179 C174 1.363 1_655 S
C179 C178 1.415 . S
C180 H156 0.951 . S
C180 C181 1.366 . S
C180 C182 1.388 . S
C181 C180 1.366 . S
C181 C185 1.385 . S
C182 H157 0.951 . S
C182 C180 1.388 . S
C182 C183 1.366 . S
C183 C182 1.366 . S
C183 C184 1.414 . S
C183 C186 1.499 . S
C184 H158 0.950 1_455 S
C184 C183 1.414 . S
C184 C185 1.374 . S
C185 H159 0.950 1_455 S
C185 C181 1.385 . S
C185 C184 1.374 . S
C186 C183 1.499 . S
C186 C187 1.373 . S
C186 C188 1.389 . S
C187 H160 0.950 . S
C187 C173 1.377 . S
C187 C186 1.373 . S
C188 C172 1.377 . S
C188 C186 1.389 . S
C188 C189 1.524 . S
C189 C188 1.524 . S
C189 C190 1.397 . S
C189 C194 1.363 . S
C190 H161 0.950 . S
C190 C189 1.397 . S
C190 C191 1.334 . S
C191 H162 0.950 . S
C191 C190 1.334 . S
C191 C192 1.287 . S
C192 C191 1.287 . S
C192 C193 1.524 . S
C192 H195 0.999 . S
C193 H163 0.950 . S
C193 C192 1.524 . S
C193 C194 1.415 . S
C194 H164 0.950 . S
C194 C189 1.363 . S
C194 C193 1.415 . S
H195 C192 0.999 . S
H196 C177 0.913 . S
H197 C215 0.949 . S
H198 C217 0.951 . S
H199 C219 0.950 . S
H200 C220 0.950 . S
H201 C222 0.950 . S
H202 C225 0.950 . S
H203 C226 0.950 . S
H204 C228 0.950 . S
H205 C229 0.950 1_565 S
H206 C230 0.951 . S
H207 C232 0.951 . S
H208 C234 0.950 . S
H209 C235 0.950 . S
H210 C237 0.950 . S
H211 C240 0.950 . S
H212 C241 0.950 . S
H213 C243 0.950 . S
H214 C244 0.950 . S
C215 H197 0.949 . S
C215 C216 1.366 . S
C215 C217 1.388 . S
C216 C215 1.366 . S
C216 C220 1.385 . S
C217 H198 0.951 . S
C217 C215 1.388 . S
C217 C218 1.366 . S
C218 C217 1.366 . S
C218 C219 1.414 . S
C218 C221 1.499 . S
C219 H199 0.950 . S
C219 C218 1.414 . S
C219 C220 1.374 . S
C220 H200 0.950 . S
C220 C216 1.385 . S
C220 C219 1.374 . S
C221 C218 1.499 . S
C221 C222 1.373 . S
C221 C223 1.389 . S
C222 H201 0.950 . S
C222 C221 1.373 . S
C222 C238 1.377 . S
C223 C221 1.389 . S
C223 C224 1.524 . S
C223 C237 1.377 . S
C224 C223 1.524 . S
C224 C225 1.397 . S
C224 C229 1.363 . S
C225 H202 0.950 . S
C225 C224 1.397 . S
C225 C226 1.334 . S
C226 H203 0.950 . S
C226 C225 1.334 . S
C226 C227 1.287 . S
C227 C226 1.287 . S
C227 C228 1.524 1_545 S
C227 H246 0.913 . S
C228 H204 0.950 . S
C228 C227 1.524 1_565 S
C228 C229 1.415 1_565 S
C229 H205 0.950 1_545 S
C229 C224 1.363 . S
C229 C228 1.415 1_545 S
C230 H206 0.951 . S
C230 C231 1.366 . S
C230 C232 1.388 . S
C231 C230 1.366 . S
C231 C235 1.385 . S
C232 H207 0.951 . S
C232 C230 1.388 . S
C232 C233 1.366 . S
C233 C232 1.366 . S
C233 C234 1.414 . S
C233 C236 1.499 . S
C234 H208 0.950 . S
C234 C233 1.414 . S
C234 C235 1.374 . S
C235 H209 0.950 . S
C235 C231 1.385 . S
C235 C234 1.374 . S
C236 C233 1.499 . S
C236 C237 1.373 . S
C236 C238 1.389 . S
C237 H210 0.950 . S
C237 C223 1.377 . S
C237 C236 1.373 . S
C238 C222 1.377 . S
C238 C236 1.389 . S
C238 C239 1.524 . S
C239 C238 1.524 . S
C239 C240 1.397 . S
C239 C244 1.363 . S
C240 H211 0.950 . S
C240 C239 1.397 . S
C240 C241 1.334 . S
C241 H212 0.950 . S
C241 C240 1.334 . S
C241 C242 1.287 . S
C242 C241 1.287 . S
C242 C243 1.524 . S
C242 H245 0.999 . S
C243 H213 0.950 . S
C243 C242 1.524 . S
C243 C244 1.415 . S
C244 H214 0.950 . S
C244 C239 1.363 . S
C244 C243 1.415 . S
H245 C242 0.999 . S
H246 C227 0.913 . S
H247 C265 0.951 1_545 S
H248 C267 0.951 . S
H249 C269 0.950 . S
H250 C270 0.950 . S
H251 C272 0.950 . S
H252 C275 0.950 . S
H253 C276 0.950 1_455 S
H254 C278 0.950 . S
H255 C279 0.950 . S
H256 C280 0.951 . S
H257 C282 0.951 . S
H258 C284 0.950 . S
H259 C285 0.950 . S
H260 C287 0.950 . S
H261 C290 0.950 . S
H262 C291 0.950 . S
H263 C293 0.950 . S
H264 C294 0.950 . S
C265 H247 0.951 1_565 S
C265 C266 1.366 . S
C265 C267 1.388 . S
C266 C265 1.366 . S
C266 C270 1.385 . S
C267 H248 0.951 . S
C267 C265 1.388 . S
C267 C268 1.366 . S
C268 C267 1.366 . S
C268 C269 1.414 . S
C268 C271 1.499 . S
C269 H249 0.950 . S
C269 C268 1.414 . S
C269 C270 1.374 . S
C270 H250 0.950 . S
C270 C266 1.385 . S
C270 C269 1.374 . S
C271 C268 1.499 . S
C271 C272 1.373 . S
C271 C273 1.389 . S
C272 H251 0.950 . S
C272 C271 1.373 . S
C272 C288 1.377 . S
C273 C271 1.389 . S
C273 C274 1.524 . S
C273 C287 1.377 . S
C274 C273 1.524 . S
C274 C275 1.397 . S
C274 C279 1.363 . S
C275 H252 0.950 . S
C275 C274 1.397 . S
C275 C276 1.334 . S
C276 H253 0.950 1_655 S
C276 C275 1.334 . S
C276 C277 1.287 1_655 S
C277 C276 1.287 1_455 S
C277 C278 1.521 1_455 S
C277 H296 0.915 . S
C278 H254 0.950 . S
C278 C277 1.521 1_655 S
C278 C279 1.415 . S
C279 H255 0.950 . S
C279 C274 1.363 . S
C279 C278 1.415 . S
C280 H256 0.951 . S
C280 C281 1.366 . S
C280 C282 1.388 . S
C281 C280 1.366 . S
C281 C285 1.385 . S
C282 H257 0.951 . S
C282 C280 1.388 . S
C282 C283 1.366 . S
C283 C282 1.366 . S
C283 C284 1.414 . S
C283 C286 1.499 . S
C284 H258 0.950 . S
C284 C283 1.414 . S
C284 C285 1.374 . S
C285 H259 0.950 . S
C285 C281 1.385 . S
C285 C284 1.374 . S
C286 C283 1.499 . S
C286 C287 1.373 . S
C286 C288 1.389 . S
C287 H260 0.950 . S
C287 C273 1.377 . S
C287 C286 1.373 . S
C288 C272 1.377 . S
C288 C286 1.389 . S
C288 C289 1.524 . S
C289 C288 1.524 . S
C289 C290 1.397 . S
C289 C294 1.363 . S
C290 H261 0.950 . S
C290 C289 1.397 . S
C290 C291 1.334 . S
C291 H262 0.950 . S
C291 C290 1.334 . S
C291 C292 1.287 . S
C292 C291 1.287 . S
C292 C293 1.524 . S
C292 H295 0.999 . S
C293 H263 0.950 . S
C293 C292 1.524 . S
C293 C294 1.415 . S
C294 H264 0.950 . S
C294 C289 1.363 . S
C294 C293 1.415 . S
H295 C292 0.999 . S
H296 C277 0.915 . S
H297 C315 0.951 1_545 S
H298 C317 0.951 . S
H299 C319 0.950 . S
H300 C320 0.950 . S
H301 C322 0.950 . S
H302 C325 0.950 . S
H303 C326 0.950 . S
H304 C328 0.950 . S
H305 C329 0.950 . S
H306 C330 0.951 . S
H307 C332 0.951 . S
H308 C334 0.950 . S
H309 C335 0.950 . S
H310 C337 0.950 . S
H311 C340 0.950 . S
H312 C341 0.950 . S
H313 C343 0.950 1_455 S
H314 C344 0.950 . S
C315 H297 0.951 1_565 S
C315 C316 1.366 . S
C315 C317 1.388 . S
C316 C315 1.366 . S
C316 C320 1.385 . S
C317 H298 0.951 . S
C317 C315 1.388 . S
C317 C318 1.366 . S
C318 C317 1.366 . S
C318 C319 1.414 . S
C318 C321 1.499 . S
C319 H299 0.950 . S
C319 C318 1.414 . S
C319 C320 1.374 . S
C320 H300 0.950 . S
C320 C316 1.385 . S
C320 C319 1.374 . S
C321 C318 1.499 . S
C321 C322 1.373 . S
C321 C323 1.389 . S
C322 H301 0.950 . S
C322 C321 1.373 . S
C322 C338 1.377 . S
C323 C321 1.389 . S
C323 C324 1.524 . S
C323 C337 1.377 . S
C324 C323 1.524 . S
C324 C325 1.397 . S
C324 C329 1.363 . S
C325 H302 0.950 . S
C325 C324 1.397 . S
C325 C326 1.334 1_565 S
C326 H303 0.950 . S
C326 C325 1.334 1_545 S
C326 C327 1.287 . S
C327 C326 1.287 . S
C327 C328 1.524 . S
C327 H346 0.913 . S
C328 H304 0.950 . S
C328 C327 1.524 . S
C328 C329 1.415 1_545 S
C329 H305 0.950 . S
C329 C324 1.363 . S
C329 C328 1.415 1_565 S
C330 H306 0.951 . S
C330 C331 1.366 . S
C330 C332 1.388 . S
C331 C330 1.366 . S
C331 C335 1.385 . S
C332 H307 0.951 . S
C332 C330 1.388 . S
C332 C333 1.366 . S
C333 C332 1.366 . S
C333 C334 1.414 . S
C333 C336 1.499 . S
C334 H308 0.950 . S
C334 C333 1.414 . S
C334 C335 1.374 . S
C335 H309 0.950 . S
C335 C331 1.385 . S
C335 C334 1.374 . S
C336 C333 1.499 . S
C336 C337 1.373 . S
C336 C338 1.389 . S
C337 H310 0.950 . S
C337 C323 1.377 . S
C337 C336 1.373 . S
C338 C322 1.377 . S
C338 C336 1.389 . S
C338 C339 1.524 . S
C339 C338 1.524 . S
C339 C340 1.397 1_455 S
C339 C344 1.363 . S
C340 H311 0.950 . S
C340 C339 1.397 1_655 S
C340 C341 1.334 . S
C341 H312 0.950 . S
C341 C340 1.334 . S
C341 C342 1.287 . S
C342 C341 1.287 . S
C342 C343 1.524 . S
C342 H345 0.999 . S
C343 H313 0.950 1_655 S
C343 C342 1.524 . S
C343 C344 1.415 1_655 S
C344 H314 0.950 . S
C344 C339 1.363 . S
C344 C343 1.415 1_455 S
H345 C342 0.999 . S
H346 C327 0.913 . S
H347 C365 0.951 . S
H348 C367 0.951 . S
H349 C369 0.950 . S
H350 C370 0.950 . S
H351 C372 0.950 . S
H352 C375 0.950 . S
H353 C376 0.950 . S
H354 C378 0.950 . S
H355 C379 0.950 . S
H356 C380 0.951 . S
H357 C382 0.951 . S
H358 C384 0.950 . S
H359 C385 0.950 . S
H360 C387 0.950 . S
H361 C390 0.950 . S
H362 C391 0.950 . S
H363 C393 0.950 . S
H364 C394 0.950 . S
C365 H347 0.951 . S
C365 C366 1.366 . S
C365 C367 1.388 . S
C366 C365 1.366 . S
C366 C370 1.385 . S
C367 H348 0.951 . S
C367 C365 1.388 . S
C367 C368 1.366 . S
C368 C367 1.366 . S
C368 C369 1.414 . S
C368 C371 1.499 . S
C369 H349 0.950 . S
C369 C368 1.414 . S
C369 C370 1.374 . S
C370 H350 0.950 . S
C370 C366 1.385 . S
C370 C369 1.374 . S
C371 C368 1.499 . S
C371 C372 1.373 . S
C371 C373 1.389 . S
C372 H351 0.950 . S
C372 C371 1.373 . S
C372 C388 1.377 . S
C373 C371 1.389 . S
C373 C374 1.524 . S
C373 C387 1.377 . S
C374 C373 1.524 . S
C374 C375 1.397 . S
C374 C379 1.363 . S
C375 H352 0.950 . S
C375 C374 1.397 . S
C375 C376 1.334 . S
C376 H353 0.950 . S
C376 C375 1.334 . S
C376 C377 1.287 . S
C377 C376 1.287 . S
C377 C378 1.524 . S
C377 H396 0.913 . S
C378 H354 0.950 . S
C378 C377 1.524 . S
C378 C379 1.415 . S
C379 H355 0.950 . S
C379 C374 1.363 . S
C379 C378 1.415 . S
C380 H356 0.951 . S
C380 C381 1.366 . S
C380 C382 1.388 . S
C381 C380 1.366 . S
C381 C385 1.385 . S
C382 H357 0.951 . S
C382 C380 1.388 . S
C382 C383 1.366 . S
C383 C382 1.366 . S
C383 C384 1.414 . S
C383 C386 1.499 . S
C384 H358 0.950 . S
C384 C383 1.414 . S
C384 C385 1.374 . S
C385 H359 0.950 . S
C385 C381 1.385 . S
C385 C384 1.374 . S
C386 C383 1.499 . S
C386 C387 1.373 . S
C386 C388 1.389 . S
C387 H360 0.950 . S
C387 C373 1.377 . S
C387 C386 1.373 . S
C388 C372 1.377 . S
C388 C386 1.389 . S
C388 C389 1.524 . S
C389 C388 1.524 . S
C389 C390 1.397 1_545 S
C389 C394 1.363 . S
C390 H361 0.950 . S
C390 C389 1.397 1_565 S
C390 C391 1.334 . S
C391 H362 0.950 . S
C391 C390 1.334 . S
C391 C392 1.287 . S
C392 C391 1.287 . S
C392 C393 1.524 . S
C392 H395 0.999 . S
C393 H363 0.950 . S
C393 C392 1.524 . S
C393 C394 1.415 1_565 S
C394 H364 0.950 . S
C394 C389 1.363 . S
C394 C393 1.415 1_545 S
H395 C392 0.999 . S
H396 C377 0.913 . S
H397 C415 0.951 . S
H398 C417 0.951 . S
H399 C419 0.950 . S
H400 C420 0.950 . S
H401 C422 0.950 . S
H402 C425 0.950 . S
H403 C426 0.950 . S
H404 C428 0.950 . S
H405 C429 0.950 . S
H406 C430 0.951 . S
H407 C432 0.951 . S
H408 C434 0.950 . S
H409 C435 0.950 . S
H410 C437 0.950 . S
H411 C440 0.950 . S
H412 C441 0.950 . S
H413 C443 0.950 . S
H414 C444 0.950 . S
C415 H397 0.951 . S
C415 C416 1.366 . S
C415 C417 1.388 . S
C416 C415 1.366 . S
C416 C420 1.385 . S
C417 H398 0.951 . S
C417 C415 1.388 . S
C417 C418 1.366 . S
C418 C417 1.366 . S
C418 C419 1.414 . S
C418 C421 1.499 . S
C419 H399 0.950 . S
C419 C418 1.414 . S
C419 C420 1.374 . S
C420 H400 0.950 . S
C420 C416 1.385 . S
C420 C419 1.374 . S
C421 C418 1.499 . S
C421 C422 1.373 . S
C421 C423 1.389 . S
C422 H401 0.950 . S
C422 C421 1.373 . S
C422 C438 1.377 . S
C423 C421 1.389 . S
C423 C424 1.524 . S
C423 C437 1.377 . S
C424 C423 1.524 . S
C424 C425 1.397 . S
C424 C429 1.363 . S
C425 H402 0.950 . S
C425 C424 1.397 . S
C425 C426 1.334 . S
C426 H403 0.950 . S
C426 C425 1.334 . S
C426 C427 1.287 . S
C427 C426 1.287 . S
C427 C428 1.524 . S
C427 H446 0.913 . S
C428 H404 0.950 . S
C428 C427 1.524 . S
C428 C429 1.415 . S
C429 H405 0.950 . S
C429 C424 1.363 . S
C429 C428 1.415 . S
C430 H406 0.951 . S
C430 C431 1.366 . S
C430 C432 1.388 . S
C431 C430 1.366 . S
C431 C435 1.385 . S
C432 H407 0.951 . S
C432 C430 1.388 . S
C432 C433 1.366 . S
C433 C432 1.366 . S
C433 C434 1.414 . S
C433 C436 1.499 . S
C434 H408 0.950 . S
C434 C433 1.414 . S
C434 C435 1.374 . S
C435 H409 0.950 . S
C435 C431 1.385 . S
C435 C434 1.374 . S
C436 C433 1.499 . S
C436 C437 1.373 . S
C436 C438 1.389 . S
C437 H410 0.950 . S
C437 C423 1.377 . S
C437 C436 1.373 . S
C438 C422 1.377 . S
C438 C436 1.389 . S
C438 C439 1.524 . S
C439 C438 1.524 . S
C439 C440 1.397 . S
C439 C444 1.363 . S
C440 H411 0.950 . S
C440 C439 1.397 . S
C440 C441 1.334 . S
C441 H412 0.950 . S
C441 C440 1.334 . S
C441 C442 1.287 . S
C442 C441 1.287 . S
C442 C443 1.524 . S
C442 H445 0.999 . S
C443 H413 0.950 . S
C443 C442 1.524 . S
C443 C444 1.415 . S
C444 H414 0.950 . S
C444 C439 1.363 . S
C444 C443 1.415 . S
H445 C442 0.999 . S
H446 C427 0.913 . S
H447 C465 0.951 . S
H448 C467 0.951 . S
H449 C469 0.950 . S
H450 C470 0.950 . S
H451 C472 0.950 . S
H452 C475 0.950 . S
H453 C476 0.950 1_455 S
H454 C478 0.950 1_455 S
H455 C479 0.950 . S
H456 C480 0.951 . S
H457 C482 0.951 . S
H458 C484 0.950 . S
H459 C485 0.950 . S
H460 C487 0.950 . S
H461 C490 0.942 1_565 S
H462 C491 0.950 . S
H463 C493 0.950 . S
H464 C494 0.950 . S
C465 H447 0.951 . S
C465 C466 1.366 . S
C465 C467 1.388 . S
C466 C465 1.366 . S
C466 C470 1.385 . S
C467 H448 0.951 . S
C467 C465 1.388 . S
C467 C468 1.366 . S
C468 C467 1.366 . S
C468 C469 1.414 . S
C468 C471 1.499 . S
C469 H449 0.950 . S
C469 C468 1.414 . S
C469 C470 1.374 . S
C470 H450 0.950 . S
C470 C466 1.385 . S
C470 C469 1.374 . S
C471 C468 1.499 . S
C471 C472 1.373 . S
C471 C473 1.389 . S
C472 H451 0.950 . S
C472 C471 1.373 . S
C472 C488 1.377 . S
C473 C471 1.389 . S
C473 C474 1.524 . S
C473 C487 1.377 . S
C474 C473 1.524 . S
C474 C475 1.397 . S
C474 C479 1.363 . S
C475 H452 0.950 . S
C475 C474 1.397 . S
C475 C476 1.334 . S
C476 H453 0.950 1_655 S
C476 C475 1.334 . S
C476 C477 1.287 1_655 S
C477 C476 1.287 1_455 S
C477 C478 1.524 1_455 S
C477 H496 0.913 . S
C478 H454 0.950 1_655 S
C478 C477 1.524 1_655 S
C478 C479 1.415 . S
C479 H455 0.950 . S
C479 C474 1.363 . S
C479 C478 1.415 . S
C480 H456 0.951 . S
C480 C481 1.366 . S
C480 C482 1.388 . S
C481 C480 1.366 . S
C481 C485 1.385 . S
C482 H457 0.951 . S
C482 C480 1.388 . S
C482 C483 1.366 . S
C483 C482 1.366 . S
C483 C484 1.414 . S
C483 C486 1.499 . S
C484 H458 0.950 . S
C484 C483 1.414 . S
C484 C485 1.374 . S
C485 H459 0.950 . S
C485 C481 1.385 . S
C485 C484 1.374 . S
C486 C483 1.499 . S
C486 C487 1.373 . S
C486 C488 1.389 . S
C487 H460 0.950 . S
C487 C473 1.377 . S
C487 C486 1.373 . S
C488 C472 1.377 . S
C488 C486 1.389 . S
C488 C489 1.524 . S
C489 C488 1.524 . S
C489 C490 1.402 . S
C489 C494 1.363 . S
C490 H461 0.942 1_545 S
C490 C489 1.402 . S
C490 C491 1.332 1_545 S
C491 H462 0.950 . S
C491 C490 1.332 1_565 S
C491 C492 1.287 . S
C492 C491 1.287 . S
C492 C493 1.524 1_565 S
C492 H495 0.999 . S
C493 H463 0.950 . S
C493 C492 1.524 1_545 S
C493 C494 1.415 . S
C494 H464 0.950 . S
C494 C489 1.363 . S
C494 C493 1.415 . S
H495 C492 0.999 . S
H496 C477 0.913 . S
H497 C515 0.951 1_455 S
H498 C517 0.951 . S
H499 C519 0.950 . S
H500 C520 0.950 . S
H501 C522 0.950 . S
H502 C525 0.950 1_554 S
H503 C526 0.950 1_554 S
H504 C528 0.950 . S
H505 C529 0.950 . S
H506 C530 0.951 . S
H507 C532 0.951 . S
H508 C534 0.950 . S
H509 C535 0.950 . S
H510 C537 0.950 . S
H511 C540 0.950 . S
H512 C541 0.950 . S
H513 C543 0.950 . S
H514 C544 0.950 . S
C515 H497 0.951 1_655 S
C515 C516 1.366 . S
C515 C517 1.388 1_545 S
C516 C515 1.366 . S
C516 C520 1.385 1_545 S
C517 H498 0.951 . S
C517 C515 1.388 1_565 S
C517 C518 1.366 . S
C518 C517 1.366 . S
C518 C519 1.414 . S
C518 C521 1.499 . S
C519 H499 0.950 . S
C519 C518 1.414 . S
C519 C520 1.374 . S
C520 H500 0.950 . S
C520 C516 1.385 1_565 S
C520 C519 1.374 . S
C521 C518 1.499 . S
C521 C522 1.373 . S
C521 C523 1.389 1_554 S
C522 H501 0.950 . S
C522 C521 1.373 . S
C522 C538 1.377 1_554 S
C523 C521 1.389 1_556 S
C523 C524 1.524 . S
C523 C537 1.377 . S
C524 C523 1.524 . S
C524 C525 1.397 . S
C524 C529 1.363 . S
C525 H502 0.950 1_556 S
C525 C524 1.397 . S
C525 C526 1.334 1_565 S
C526 H503 0.950 1_556 S
C526 C525 1.334 1_545 S
C526 C527 1.287 . S
C527 C526 1.287 . S
C527 C528 1.524 . S
C527 H546 0.913 . S
C528 H504 0.950 . S
C528 C527 1.524 . S
C528 C529 1.415 1_545 S
C529 H505 0.950 . S
C529 C524 1.363 . S
C529 C528 1.415 1_565 S
C530 H506 0.951 . S
C530 C531 1.366 . S
C530 C532 1.388 . S
C531 C530 1.366 . S
C531 C535 1.385 . S
C532 H507 0.951 . S
C532 C530 1.388 . S
C532 C533 1.366 . S
C533 C532 1.366 . S
C533 C534 1.414 . S
C533 C536 1.499 . S
C534 H508 0.950 . S
C534 C533 1.414 . S
C534 C535 1.374 . S
C535 H509 0.950 . S
C535 C531 1.385 . S
C535 C534 1.374 . S
C536 C533 1.499 . S
C536 C537 1.373 . S
C536 C538 1.389 . S
C537 H510 0.950 . S
C537 C523 1.377 . S
C537 C536 1.373 . S
C538 C522 1.377 1_556 S
C538 C536 1.389 . S
C538 C539 1.514 1_556 S
C539 C538 1.514 1_554 S
C539 C540 1.369 1_554 S
C539 C544 1.402 . S
C540 H511 0.950 . S
C540 C539 1.369 1_556 S
C540 C541 1.334 . S
C541 H512 0.950 . S
C541 C540 1.334 . S
C541 C542 1.287 1_556 S
C542 C541 1.287 1_554 S
C542 C543 1.524 . S
C542 H545 0.999 . S
C543 H513 0.950 . S
C543 C542 1.524 . S
C543 C544 1.415 . S
C544 H514 0.950 . S
C544 C539 1.402 . S
C544 C543 1.415 . S
H545 C542 0.999 . S
H546 C527 0.913 . S
H547 C565 0.951 . S
H548 C567 0.951 . S
H549 C569 0.950 . S
H550 C570 0.950 1_545 S
H551 C572 0.950 . S
H552 C575 0.950 . S
H553 C576 0.950 . S
H554 C578 0.948 1_655 S
H555 C579 0.950 1_655 S
H556 C580 0.951 . S
H557 C582 0.951 . S
H558 C584 0.950 1_655 S
H559 C585 0.950 1_655 S
H560 C587 0.950 . S
H561 C590 0.950 . S
H562 C591 0.950 . S
H563 C593 0.950 . S
H564 C594 0.950 . S
C565 H547 0.951 . S
C565 C566 1.366 1_655 S
C565 C567 1.388 . S
C566 C565 1.366 1_455 S
C566 C570 1.385 . S
C567 H548 0.951 . S
C567 C565 1.388 . S
C567 C568 1.366 1_655 S
C568 C567 1.366 1_455 S
C568 C569 1.414 . S
C568 C571 1.499 . S
C569 H549 0.950 . S
C569 C568 1.414 . S
C569 C570 1.374 . S
C570 H550 0.950 1_565 S
C570 C566 1.385 . S
C570 C569 1.374 . S
C571 C568 1.499 . S
C571 C572 1.373 . S
C571 C573 1.389 . S
C572 H551 0.950 . S
C572 C571 1.373 . S
C572 C588 1.377 . S
C573 C571 1.389 . S
C573 C574 1.524 . S
C573 C587 1.377 . S
C574 C573 1.524 . S
C574 C575 1.397 . S
C574 C579 1.363 . S
C575 H552 0.950 . S
C575 C574 1.397 . S
C575 C576 1.334 . S
C576 H553 0.950 . S
C576 C575 1.334 . S
C576 C577 1.287 . S
C577 C576 1.287 . S
C577 C578 1.524 . S
C577 H596 0.913 . S
C578 H554 0.948 1_455 S
C578 C577 1.524 . S
C578 C579 1.415 . S
C579 H555 0.950 1_455 S
C579 C574 1.363 . S
C579 C578 1.415 . S
C580 H556 0.951 . S
C580 C581 1.366 . S
C580 C582 1.388 . S
C581 C580 1.366 . S
C581 C585 1.385 . S
C582 H557 0.951 . S
C582 C580 1.388 . S
C582 C583 1.366 . S
C583 C582 1.366 . S
C583 C584 1.414 . S
C583 C586 1.499 . S
C584 H558 0.950 1_455 S
C584 C583 1.414 . S
C584 C585 1.374 . S
C585 H559 0.950 1_455 S
C585 C581 1.385 . S
C585 C584 1.374 . S
C586 C583 1.499 . S
C586 C587 1.373 . S
C586 C588 1.389 . S
C587 H560 0.950 . S
C587 C573 1.377 . S
C587 C586 1.373 . S
C588 C572 1.377 . S
C588 C586 1.389 . S
C588 C589 1.524 . S
C589 C588 1.524 . S
C589 C590 1.397 1_455 S
C589 C594 1.363 . S
C590 H561 0.950 . S
C590 C589 1.397 1_655 S
C590 C591 1.334 . S
C591 H562 0.950 . S
C591 C590 1.334 . S
C591 C592 1.287 . S
C592 C591 1.287 . S
C592 C593 1.524 1_655 S
C592 H595 0.999 . S
C593 H563 0.950 . S
C593 C592 1.524 1_455 S
C593 C594 1.415 . S
C594 H564 0.950 . S
C594 C589 1.363 . S
C594 C593 1.415 . S
H595 C592 0.999 . S
H596 C577 0.913 . S
H597 C615 0.951 . S
H598 C617 0.951 . S
H599 C619 0.950 . S
H600 C620 0.950 . S
H601 C622 0.950 . S
H602 C625 0.950 . S
H603 C626 0.950 1_565 S
H604 C628 0.950 . S
H605 C629 0.950 . S
H606 C630 0.951 . S
H607 C632 0.951 . S
H608 C634 0.950 . S
H609 C635 0.950 . S
H610 C637 0.950 . S
H611 C640 0.950 . S
H612 C641 0.950 . S
H613 C643 0.950 . S
H614 C644 0.950 . S
C615 H597 0.951 . S
C615 C616 1.366 . S
C615 C617 1.388 . S
C616 C615 1.366 . S
C616 C620 1.385 . S
C617 H598 0.951 . S
C617 C615 1.388 . S
C617 C618 1.366 . S
C618 C617 1.366 . S
C618 C619 1.414 . S
C618 C621 1.499 . S
C619 H599 0.950 . S
C619 C618 1.414 . S
C619 C620 1.374 . S
C620 H600 0.950 . S
C620 C616 1.385 . S
C620 C619 1.374 . S
C621 C618 1.499 . S
C621 C622 1.373 . S
C621 C623 1.389 . S
C622 H601 0.950 . S
C622 C621 1.373 . S
C622 C638 1.377 . S
C623 C621 1.389 . S
C623 C624 1.524 . S
C623 C637 1.377 . S
C624 C623 1.524 . S
C624 C625 1.397 . S
C624 C629 1.363 . S
C625 H602 0.950 . S
C625 C624 1.397 . S
C625 C626 1.334 . S
C626 H603 0.950 1_545 S
C626 C625 1.334 . S
C626 C627 1.287 . S
C627 C626 1.287 . S
C627 C628 1.524 . S
C627 H646 0.913 . S
C628 H604 0.950 . S
C628 C627 1.524 . S
C628 C629 1.415 . S
C629 H605 0.950 . S
C629 C624 1.363 . S
C629 C628 1.415 . S
C630 H606 0.951 . S
C630 C631 1.366 . S
C630 C632 1.388 . S
C631 C630 1.366 . S
C631 C635 1.385 . S
C632 H607 0.951 . S
C632 C630 1.388 . S
C632 C633 1.366 . S
C633 C632 1.366 . S
C633 C634 1.414 . S
C633 C636 1.499 . S
C634 H608 0.950 . S
C634 C633 1.414 . S
C634 C635 1.374 . S
C635 H609 0.950 . S
C635 C631 1.385 . S
C635 C634 1.374 . S
C636 C633 1.499 . S
C636 C637 1.373 . S
C636 C638 1.389 . S
C637 H610 0.950 . S
C637 C623 1.377 . S
C637 C636 1.373 . S
C638 C622 1.377 . S
C638 C636 1.389 . S
C638 C639 1.524 . S
C639 C638 1.524 . S
C639 C640 1.397 . S
C639 C644 1.363 . S
C640 H611 0.950 . S
C640 C639 1.397 . S
C640 C641 1.334 . S
C641 H612 0.950 . S
C641 C640 1.334 . S
C641 C642 1.287 . S
C642 C641 1.287 . S
C642 C643 1.524 . S
C642 H645 0.999 . S
C643 H613 0.950 . S
C643 C642 1.524 . S
C643 C644 1.415 . S
C644 H614 0.950 . S
C644 C639 1.363 . S
C644 C643 1.415 . S
H645 C642 0.999 . S
H646 C627 0.913 . S
H647 C665 0.951 . S
H648 C667 0.951 . S
H649 C669 0.950 . S
H650 C670 0.950 . S
H651 C672 0.950 . S
H652 C675 0.950 . S
H653 C676 0.950 . S
H654 C678 0.950 . S
H655 C679 0.950 . S
H656 C680 0.951 . S
H657 C682 0.951 . S
H658 C684 0.950 . S
H659 C685 0.950 . S
H660 C687 0.950 . S
H661 C690 0.950 . S
H662 C691 0.950 . S
H663 C693 0.950 . S
H664 C694 0.950 . S
C665 H647 0.951 . S
C665 C666 1.366 . S
C665 C667 1.388 . S
C666 C665 1.366 . S
C666 C670 1.385 . S
C667 H648 0.951 . S
C667 C665 1.388 . S
C667 C668 1.366 . S
C668 C667 1.366 . S
C668 C669 1.414 . S
C668 C671 1.499 . S
C669 H649 0.950 . S
C669 C668 1.414 . S
C669 C670 1.374 . S
C670 H650 0.950 . S
C670 C666 1.385 . S
C670 C669 1.374 . S
C671 C668 1.499 . S
C671 C672 1.373 1_554 S
C671 C673 1.389 . S
C672 H651 0.950 . S
C672 C671 1.373 1_556 S
C672 C688 1.377 . S
C673 C671 1.389 . S
C673 C674 1.524 . S
C673 C687 1.377 1_554 S
C674 C673 1.524 . S
C674 C675 1.397 . S
C674 C679 1.363 . S
C675 H652 0.950 . S
C675 C674 1.397 . S
C675 C676 1.334 . S
C676 H653 0.950 . S
C676 C675 1.334 . S
C676 C677 1.287 . S
C677 C676 1.287 . S
C677 C678 1.524 . S
C677 H696 0.913 . S
C678 H654 0.950 . S
C678 C677 1.524 . S
C678 C679 1.415 . S
C679 H655 0.950 . S
C679 C674 1.363 . S
C679 C678 1.415 . S
C680 H656 0.951 . S
C680 C681 1.366 . S
C680 C682 1.388 . S
C681 C680 1.366 . S
C681 C685 1.385 . S
C682 H657 0.951 . S
C682 C680 1.388 . S
C682 C683 1.366 . S
C683 C682 1.366 . S
C683 C684 1.414 . S
C683 C686 1.499 . S
C684 H658 0.950 . S
C684 C683 1.414 . S
C684 C685 1.374 . S
C685 H659 0.950 . S
C685 C681 1.385 . S
C685 C684 1.374 . S
C686 C683 1.499 . S
C686 C687 1.373 . S
C686 C688 1.389 . S
C687 H660 0.950 . S
C687 C673 1.377 1_556 S
C687 C686 1.373 . S
C688 C672 1.377 . S
C688 C686 1.389 . S
C688 C689 1.524 . S
C689 C688 1.524 . S
C689 C690 1.397 . S
C689 C694 1.363 . S
C690 H661 0.950 . S
C690 C689 1.397 . S
C690 C691 1.334 . S
C691 H662 0.950 . S
C691 C690 1.334 . S
C691 C692 1.287 . S
C692 C691 1.287 . S
C692 C693 1.524 . S
C692 H695 0.999 . S
C693 H663 0.950 . S
C693 C692 1.524 . S
C693 C694 1.415 . S
C694 H664 0.950 . S
C694 C689 1.363 . S
C694 C693 1.415 . S
H695 C692 0.999 . S
H696 C677 0.913 . S
H697 C715 0.951 . S
H698 C717 0.951 . S
H699 C719 0.950 . S
H700 C720 0.950 . S
H701 C722 0.950 . S
H702 C725 0.950 1_655 S
H703 C726 0.950 . S
H704 C728 0.950 . S
H705 C729 0.950 . S
H706 C730 0.951 1_655 S
H707 C732 0.951 1_655 S
H708 C734 0.950 . S
H709 C735 0.950 . S
H710 C737 0.950 . S
H711 C740 0.950 . S
H712 C741 0.950 . S
H713 C743 0.950 . S
H714 C744 0.950 . S
C715 H697 0.951 . S
C715 C716 1.366 . S
C715 C717 1.388 . S
C716 C715 1.366 . S
C716 C720 1.385 1_455 S
C717 H698 0.951 . S
C717 C715 1.388 . S
C717 C718 1.366 . S
C718 C717 1.366 . S
C718 C719 1.414 1_455 S
C718 C721 1.499 . S
C719 H699 0.950 . S
C719 C718 1.414 1_655 S
C719 C720 1.374 . S
C720 H700 0.950 . S
C720 C716 1.385 1_655 S
C720 C719 1.374 . S
C721 C718 1.499 . S
C721 C722 1.373 . S
C721 C723 1.389 . S
C722 H701 0.950 . S
C722 C721 1.373 . S
C722 C738 1.377 . S
C723 C721 1.389 . S
C723 C724 1.524 . S
C723 C737 1.377 . S
C724 C723 1.524 . S
C724 C725 1.397 . S
C724 C729 1.363 . S
C725 H702 0.950 1_455 S
C725 C724 1.397 . S
C725 C726 1.334 . S
C726 H703 0.950 . S
C726 C725 1.334 . S
C726 C727 1.287 . S
C727 C726 1.287 . S
C727 C728 1.524 . S
C727 H746 0.913 . S
C728 H704 0.950 . S
C728 C727 1.524 . S
C728 C729 1.415 . S
C729 H705 0.950 . S
C729 C724 1.363 . S
C729 C728 1.415 . S
C730 H706 0.951 1_455 S
C730 C731 1.366 . S
C730 C732 1.388 . S
C731 C730 1.366 . S
C731 C735 1.385 . S
C732 H707 0.951 1_455 S
C732 C730 1.388 . S
C732 C733 1.366 . S
C733 C732 1.366 . S
C733 C734 1.414 . S
C733 C736 1.499 . S
C734 H708 0.950 . S
C734 C733 1.414 . S
C734 C735 1.374 . S
C735 H709 0.950 . S
C735 C731 1.385 . S
C735 C734 1.374 . S
C736 C733 1.499 . S
C736 C737 1.373 . S
C736 C738 1.389 . S
C737 H710 0.950 . S
C737 C723 1.377 . S
C737 C736 1.373 . S
C738 C722 1.377 . S
C738 C736 1.389 . S
C738 C739 1.524 . S
C739 C738 1.524 . S
C739 C740 1.397 . S
C739 C744 1.363 1_455 S
C740 H711 0.950 . S
C740 C739 1.397 . S
C740 C741 1.334 . S
C741 H712 0.950 . S
C741 C740 1.334 . S
C741 C742 1.287 . S
C742 C741 1.287 . S
C742 C743 1.524 1_455 S
C742 H745 0.999 . S
C743 H713 0.950 . S
C743 C742 1.524 1_655 S
C743 C744 1.415 . S
C744 H714 0.950 . S
C744 C739 1.363 1_655 S
C744 C743 1.415 . S
H745 C742 0.999 . S
H746 C727 0.913 . S
C181 C113 1.396 . S
C166 C14 1.376 . S
C216 C40 1.460 . S
C231 C131 1.468 . S
C266 C76 1.449 1_565 S
C281 C144 1.457 . S
C316 C3 1.360 1_565 S
C331 C111 1.355 . S
C381 C122 1.483 . S
C366 C38 1.473 . S
C416 C74 1.454 . S
C431 C135 1.465 . S
C481 C124 1.348 . S
C466 C86 1.328 . S
C516 C2 1.378 1_655 S
C531 C137 1.385 . S
C581 C118 1.429 . S
C566 C39 1.433 . S
C631 C126 1.356 . S
C616 C75 1.370 . S
C681 C139 1.377 . S
C666 C4 1.373 . S
C716 C50 1.447 . S
C731 C109 1.477 . S
