# Generated by pormake.
# Topology ocu, (6,8)-cn, num edge types: 1
# Building blocks:
#     Node 0, Type 0, BuildingBlock: KUMBOL_clean_sbu_1, # of connection points: 6
#     Node 1, Type 0, BuildingBlock: KUMBOL_clean_sbu_1, # of connection points: 6
#     Node 2, Type 0, BuildingBlock: KUMBOL_clean_sbu_1, # of connection points: 6
#     Node 3, Type 0, BuildingBlock: KUMBOL_clean_sbu_1, # of connection points: 6
#     Node 4, Type 0, BuildingBlock: KUMBOL_clean_sbu_1, # of connection points: 6
#     Node 5, Type 0, BuildingBlock: KUMBOL_clean_sbu_1, # of connection points: 6
#     Node 6, Type 0, BuildingBlock: KUMBOL_clean_sbu_1, # of connection points: 6
#     Node 7, Type 0, BuildingBlock: KUMBOL_clean_sbu_1, # of connection points: 6
#     Node 8, Type 1, BuildingBlock: TAGTUT_clean_sbu_1, # of connection points: 8
#     Node 9, Type 1, BuildingBlock: TAGTUT_clean_sbu_1, # of connection points: 8
#     Node 10, Type 1, BuildingBlock: TAGTUT_clean_sbu_1, # of connection points: 8
#     Node 11, Type 1, BuildingBlock: TAGTUT_clean_sbu_1, # of connection points: 8
#     Node 12, Type 1, BuildingBlock: TAGTUT_clean_sbu_1, # of connection points: 8
#     Node 13, Type 1, BuildingBlock: TAGTUT_clean_sbu_1, # of connection points: 8
#     Edge 14, Type (0, 1), BuildingBlock: AJUNOK_clean_linker_0, # of connection points: 2
#     Edge 15, Type (0, 1), BuildingBlock: AJUNOK_clean_linker_0, # of connection points: 2
#     Edge 16, Type (0, 1), BuildingBlock: AJUNOK_clean_linker_0, # of connection points: 2
#     Edge 17, Type (0, 1), BuildingBlock: AJUNOK_clean_linker_0, # of connection points: 2
#     Edge 18, Type (0, 1), BuildingBlock: AJUNOK_clean_linker_0, # of connection points: 2
#     Edge 19, Type (0, 1), BuildingBlock: AJUNOK_clean_linker_0, # of connection points: 2
#     Edge 20, Type (0, 1), BuildingBlock: AJUNOK_clean_linker_0, # of connection points: 2
#     Edge 21, Type (0, 1), BuildingBlock: AJUNOK_clean_linker_0, # of connection points: 2
#     Edge 22, Type (0, 1), BuildingBlock: AJUNOK_clean_linker_0, # of connection points: 2
#     Edge 23, Type (0, 1), BuildingBlock: AJUNOK_clean_linker_0, # of connection points: 2
#     Edge 24, Type (0, 1), BuildingBlock: AJUNOK_clean_linker_0, # of connection points: 2
#     Edge 25, Type (0, 1), BuildingBlock: AJUNOK_clean_linker_0, # of connection points: 2
#     Edge 26, Type (0, 1), BuildingBlock: AJUNOK_clean_linker_0, # of connection points: 2
#     Edge 27, Type (0, 1), BuildingBlock: AJUNOK_clean_linker_0, # of connection points: 2
#     Edge 28, Type (0, 1), BuildingBlock: AJUNOK_clean_linker_0, # of connection points: 2
#     Edge 29, Type (0, 1), BuildingBlock: AJUNOK_clean_linker_0, # of connection points: 2
#     Edge 30, Type (0, 1), BuildingBlock: AJUNOK_clean_linker_0, # of connection points: 2
#     Edge 31, Type (0, 1), BuildingBlock: AJUNOK_clean_linker_0, # of connection points: 2
#     Edge 32, Type (0, 1), BuildingBlock: AJUNOK_clean_linker_0, # of connection points: 2
#     Edge 33, Type (0, 1), BuildingBlock: AJUNOK_clean_linker_0, # of connection points: 2
#     Edge 34, Type (0, 1), BuildingBlock: AJUNOK_clean_linker_0, # of connection points: 2
#     Edge 35, Type (0, 1), BuildingBlock: AJUNOK_clean_linker_0, # of connection points: 2
#     Edge 36, Type (0, 1), BuildingBlock: AJUNOK_clean_linker_0, # of connection points: 2
#     Edge 37, Type (0, 1), BuildingBlock: AJUNOK_clean_linker_0, # of connection points: 2
#     Edge 38, Type (0, 1), BuildingBlock: AJUNOK_clean_linker_0, # of connection points: 2
#     Edge 39, Type (0, 1), BuildingBlock: AJUNOK_clean_linker_0, # of connection points: 2
#     Edge 40, Type (0, 1), BuildingBlock: AJUNOK_clean_linker_0, # of connection points: 2
#     Edge 41, Type (0, 1), BuildingBlock: AJUNOK_clean_linker_0, # of connection points: 2
#     Edge 42, Type (0, 1), BuildingBlock: AJUNOK_clean_linker_0, # of connection points: 2
#     Edge 43, Type (0, 1), BuildingBlock: AJUNOK_clean_linker_0, # of connection points: 2
#     Edge 44, Type (0, 1), BuildingBlock: AJUNOK_clean_linker_0, # of connection points: 2
#     Edge 45, Type (0, 1), BuildingBlock: AJUNOK_clean_linker_0, # of connection points: 2
#     Edge 46, Type (0, 1), BuildingBlock: AJUNOK_clean_linker_0, # of connection points: 2
#     Edge 47, Type (0, 1), BuildingBlock: AJUNOK_clean_linker_0, # of connection points: 2
#     Edge 48, Type (0, 1), BuildingBlock: AJUNOK_clean_linker_0, # of connection points: 2
#     Edge 49, Type (0, 1), BuildingBlock: AJUNOK_clean_linker_0, # of connection points: 2
#     Edge 50, Type (0, 1), BuildingBlock: AJUNOK_clean_linker_0, # of connection points: 2
#     Edge 51, Type (0, 1), BuildingBlock: AJUNOK_clean_linker_0, # of connection points: 2
#     Edge 52, Type (0, 1), BuildingBlock: AJUNOK_clean_linker_0, # of connection points: 2
#     Edge 53, Type (0, 1), BuildingBlock: AJUNOK_clean_linker_0, # of connection points: 2
#     Edge 54, Type (0, 1), BuildingBlock: AJUNOK_clean_linker_0, # of connection points: 2
#     Edge 55, Type (0, 1), BuildingBlock: AJUNOK_clean_linker_0, # of connection points: 2
#     Edge 56, Type (0, 1), BuildingBlock: AJUNOK_clean_linker_0, # of connection points: 2
#     Edge 57, Type (0, 1), BuildingBlock: AJUNOK_clean_linker_0, # of connection points: 2
#     Edge 58, Type (0, 1), BuildingBlock: AJUNOK_clean_linker_0, # of connection points: 2
#     Edge 59, Type (0, 1), BuildingBlock: AJUNOK_clean_linker_0, # of connection points: 2
#     Edge 60, Type (0, 1), BuildingBlock: AJUNOK_clean_linker_0, # of connection points: 2
#     Edge 61, Type (0, 1), BuildingBlock: AJUNOK_clean_linker_0, # of connection points: 2
# Relax obj value: 0.098
# Max RMSD: 0.179
# Mean RMSD: 0.101
data_MOF--net-ocu--node1-KUMBOL_clean_sbu_1--node2-TAGTUT_clean_sbu_1--edge1-AJUNOK_clean_linker_0
_symmetry_space_group_name_H-M    P1
_symmetry_Int_Tables_number       1
_symmetry_cell_setting            triclinic
loop_
_symmetry_equiv_pos_as_xyz
'x, y, z'
_cell_length_a     31.730022
_cell_length_b     30.509627
_cell_length_c     32.867487
_cell_angle_alpha  101.7694
_cell_angle_beta   80.506563
_cell_angle_gamma 118.87821
loop_
_atom_site_label
_atom_site_type_symbol
_atom_site_fract_x
_atom_site_fract_y
_atom_site_fract_z
_atom_type_partial_charge
C0 C 0.35934 0.40171 0.34685 0.0
C1 C 0.31487 0.39224 0.41488 0.0
C2 C 0.32487 0.37091 0.37462 0.0
C3 C 0.33965 0.44479 0.42684 0.0
C4 C 0.38424 0.45452 0.35887 0.0
C5 C 0.37421 0.47582 0.39892 0.0
N6 N 0.36823 0.38013 0.30812 0.0
C7 C 0.40211 0.40926 0.28037 0.0
C8 C 0.41848 0.48451 0.33026 0.0
C9 C 0.42741 0.46177 0.29086 0.0
Gd10 Gd 0.22112 0.22725 0.22179 0.0
Gd11 Gd 0.32568 0.29138 0.29582 0.0
N12 N 0.30035 0.32021 0.36188 0.0
C13 C 0.2803 0.36006 0.44203 0.0
C14 C 0.26834 0.28851 0.38883 0.0
C15 C 0.25719 0.30793 0.42905 0.0
H16 H 0.25241 0.2483 0.37987 0.0
H17 H 0.23139 0.28262 0.45022 0.0
H18 H 0.29639 0.26564 0.13766 0.0
H19 H 0.41062 0.39237 0.25036 0.0
H20 H 0.31458 0.22886 0.06745 0.0
H21 H 0.27187 0.37505 0.47328 0.0
H22 H 0.33235 0.46183 0.45765 0.0
H23 H 0.12873 0.13029 0.26704 0.0
H24 H 0.43821 0.5252 0.33833 0.0
H25 H 0.45408 0.48471 0.26865 0.0
H26 H 0.20329 0.05198 0.06091 0.0
H27 H 0.39303 0.51632 0.40863 0.0
H28 H 0.09935 0.99447 0.18195 0.0
H29 H 0.08415 0.03749 0.25087 0.0
N30 N 0.17264 0.13929 0.20969 0.0
C31 C 0.18077 0.11618 0.17143 0.0
C32 C 0.13721 0.11196 0.23758 0.0
C33 C 0.11925 0.03515 0.18927 0.0
C34 C 0.11092 0.05938 0.22819 0.0
C35 C 0.15357 0.06358 0.16 0.0
H36 H 0.14096 1.00041 0.11072 0.0
N37 N 0.24445 0.19528 0.15616 0.0
C38 C 0.21693 0.14507 0.14362 0.0
C39 C 0.26144 0.15278 0.07604 0.0
C40 C 0.22532 0.12232 0.1034 0.0
C41 C 0.27801 0.22547 0.12898 0.0
C42 C 0.28759 0.2047 0.08879 0.0
O43 O 0.27376 0.32662 0.30528 0.0
O44 O 0.20038 0.26299 0.28423 0.0
O45 O 0.21104 0.27036 0.18302 0.0
O46 O 0.14992 0.20286 0.20287 0.0
O47 O 0.26817 0.21033 0.30091 0.0
O48 O 0.19813 0.20631 0.28692 0.0
O49 O 0.2705 0.18983 0.21267 0.0
O50 O 0.34446 0.25179 0.23459 0.0
O51 O 0.3422 0.25177 0.33443 0.0
O52 O 0.39873 0.32197 0.31227 0.0
O53 O 0.281 0.30774 0.21764 0.0
O54 O 0.35028 0.31006 0.23026 0.0
C55 C 0.22618 0.30649 0.30709 0.0
C56 C 0.22116 0.19258 0.30722 0.0
C57 C 0.13582 0.26861 0.19254 0.0
C58 C 0.10411 0.31663 0.16898 0.0
C59 C 0.0916 0.30502 0.24191 0.0
C60 C 0.11652 0.27671 0.23315 0.0
C61 C 0.08574 0.32522 0.21012 0.0
C62 C 0.12964 0.28853 0.16049 0.0
C63 C 0.16451 0.24164 0.18355 0.0
C64 C 0.19737 0.07012 0.09168 0.0
C65 C 0.16181 0.04078 0.12 0.0
H66 H 0.26884 0.13676 0.04482 0.0
C67 C 0.31755 0.20776 0.21294 0.0
C68 C 0.3274 0.32258 0.2088 0.0
C69 C 0.42347 0.28594 0.35676 0.0
C70 C 0.44837 0.24424 0.39623 0.0
C71 C 0.50205 0.33109 0.38495 0.0
C72 C 0.4679 0.32983 0.3624 0.0
C73 C 0.49234 0.28861 0.40187 0.0
C74 C 0.41364 0.24297 0.37394 0.0
C75 C 0.38716 0.28664 0.33471 0.0
H76 H 0.07708 0.31158 0.27342 0.0
H77 H 0.12114 0.26148 0.25796 0.0
H78 H 0.06685 0.34754 0.21781 0.0
H79 H 0.14555 0.28303 0.12927 0.0
H80 H 0.53611 0.36506 0.38931 0.0
H81 H 0.47608 0.36351 0.34984 0.0
H82 H 0.51933 0.29024 0.41926 0.0
H83 H 0.37969 0.2087 0.3696 0.0
C84 C 0.88136 0.2265 0.17206 0.0
C85 C 0.95536 0.30436 0.18597 0.0
C86 C 0.90968 0.26821 0.19993 0.0
C87 C 0.9722 0.29794 0.14429 0.0
C88 C 0.89922 0.21914 0.13046 0.0
C89 C 0.94507 0.25496 0.11683 0.0
N90 N 0.83463 0.19642 0.1844 0.0
C91 C 0.80477 0.15665 0.15789 0.0
C92 C 0.869 0.17818 0.10301 0.0
C93 C 0.82162 0.14661 0.11689 0.0
Gd94 Gd 0.74938 0.30878 0.27342 0.0
Gd95 Gd 0.80886 0.21896 0.25203 0.0
N96 N 0.89042 0.27629 0.23923 0.0
C97 C 0.98171 0.34744 0.21368 0.0
C98 C 0.91788 0.31548 0.26756 0.0
C99 C 0.96364 0.35211 0.25507 0.0
H100 H 0.90519 0.31903 0.29976 0.0
H101 H 0.98468 0.38418 0.27722 0.0
H102 H 0.64999 0.20385 0.24121 0.0
H103 H 0.76798 0.13252 0.16845 0.0
H104 H 0.57219 0.14645 0.27358 0.0
H105 H 1.01628 0.37699 0.20356 0.0
H106 H 1.00531 0.32729 0.13289 0.0
H107 H 0.80097 0.41035 0.34417 0.0
H108 H 0.88153 0.17132 0.0708 0.0
H109 H 0.79783 0.11512 0.09587 0.0
H110 H 0.56258 0.23799 0.41003 0.0
H111 H 0.95867 0.25114 0.08458 0.0
H112 H 0.69743 0.39803 0.44858 0.0
H113 H 0.77944 0.44422 0.4148 0.0
N114 N 0.73182 0.34639 0.33827 0.0
C115 C 0.68621 0.32114 0.35551 0.0
C116 C 0.76512 0.39017 0.35875 0.0
C117 C 0.70649 0.38351 0.41734 0.0
C118 C 0.7529 0.40959 0.39852 0.0
C119 C 0.67269 0.33837 0.39605 0.0
H120 H 0.61612 0.32078 0.44624 0.0
N121 N 0.66912 0.25925 0.29526 0.0
C122 C 0.65402 0.2759 0.33362 0.0
C123 C 0.58083 0.19695 0.33144 0.0
C124 C 0.60927 0.24487 0.35301 0.0
C125 C 0.63917 0.21528 0.2725 0.0
C126 C 0.59483 0.18288 0.2906 0.0
O127 O 0.82544 0.27135 0.20416 0.0
O128 O 0.82666 0.33908 0.24792 0.0
O129 O 0.71406 0.32315 0.23007 0.0
O130 O 0.76499 0.38515 0.27074 0.0
O131 O 0.81662 0.26711 0.31562 0.0
O132 O 0.81898 0.33911 0.30236 0.0
O133 O 0.72627 0.25314 0.32041 0.0
O134 O 0.73252 0.18497 0.28161 0.0
O135 O 0.84403 0.19717 0.2902 0.0
O136 O 0.79727 0.14216 0.24183 0.0
O137 O 0.73665 0.256 0.21225 0.0
O138 O 0.73744 0.18511 0.22488 0.0
C139 C 0.83856 0.3199 0.2115 0.0
C140 C 0.82429 0.31413 0.32742 0.0
C141 C 0.70043 0.39422 0.25425 0.0
C142 C 0.64688 0.41763 0.22942 0.0
C143 C 0.67338 0.45057 0.29957 0.0
C144 C 0.69967 0.42383 0.29291 0.0
C145 C 0.64834 0.44882 0.26776 0.0
C146 C 0.67283 0.39 0.22317 0.0
C147 C 0.73294 0.37132 0.24441 0.0
C148 C 0.59605 0.26148 0.39383 0.0
C149 C 0.62699 0.30869 0.41479 0.0
H150 H 0.54867 0.16955 0.34577 0.0
C151 C 0.71642 0.20525 0.31545 0.0
C152 C 0.7278 0.20857 0.20139 0.0
C153 C 0.83176 0.11061 0.28071 0.0
C154 C 0.87861 0.0831 0.30984 0.0
C155 C 0.80478 0.02111 0.27837 0.0
C156 C 0.79781 0.05995 0.26986 0.0
C157 C 0.84577 0.03257 0.29721 0.0
C158 C 0.87171 0.1222 0.30158 0.0
C159 C 0.82468 0.15091 0.27081 0.0
H160 H 0.67343 0.47386 0.3291 0.0
H161 H 0.7204 0.42766 0.31761 0.0
H162 H 0.6313 0.47302 0.27303 0.0
H163 H 0.67287 0.36635 0.19367 0.0
H164 H 0.77811 0.98211 0.27079 0.0
H165 H 0.76581 0.05036 0.25499 0.0
H166 H 0.85054 1.00205 0.30407 0.0
H167 H 0.89681 0.16122 0.31203 0.0
C168 C 0.91003 0.86233 0.18706 0.0
C169 C 0.90807 0.81607 0.11703 0.0
C170 C 0.88452 0.82344 0.15606 0.0
C171 C 0.95789 0.84695 0.10996 0.0
C172 C 0.95988 0.89364 0.17974 0.0
C173 C 0.98377 0.88538 0.1413 0.0
N174 N 0.88591 0.87082 0.22357 0.0
C175 C 0.90887 0.91133 0.25297 0.0
C176 C 0.98412 0.93304 0.21104 0.0
C177 C 0.95852 0.94207 0.24767 0.0
Gd178 Gd 0.74651 0.70363 0.29632 0.0
Gd179 Gd 0.80334 0.81561 0.22796 0.0
N180 N 0.83656 0.79291 0.16403 0.0
C181 C 0.88065 0.77825 0.08609 0.0
C182 C 0.80912 0.758 0.13346 0.0
C183 C 0.83085 0.7495 0.0942 0.0
H184 H 0.77059 0.73704 0.13944 0.0
H185 H 0.80917 0.72122 0.07014 0.0
H186 H 0.77927 0.78213 0.38507 0.0
H187 H 0.88914 0.92076 0.28035 0.0
H188 H 0.74055 0.80139 0.45313 0.0
H189 H 0.8974 0.77162 0.05559 0.0
H190 H 0.9767 0.84169 0.08022 0.0
H191 H 0.6607 0.59733 0.2459 0.0
H192 H 1.02233 0.95742 0.20694 0.0
H193 H 0.97687 0.97302 0.27161 0.0
H194 H 0.57245 0.68304 0.44303 0.0
H195 H 1.02213 0.90915 0.13521 0.0
H196 H 0.52696 0.56112 0.31952 0.0
H197 H 0.57295 0.54337 0.25573 0.0
N198 N 0.6638 0.64794 0.30203 0.0
C199 C 0.63955 0.65737 0.33807 0.0
C200 C 0.64082 0.60678 0.27316 0.0
C201 C 0.56534 0.58569 0.31502 0.0
C202 C 0.59116 0.57555 0.27891 0.0
C203 C 0.58956 0.62648 0.34545 0.0
H204 H 0.52707 0.61338 0.3893 0.0
N205 N 0.71326 0.7263 0.36056 0.0
C206 C 0.66507 0.69697 0.36847 0.0
C207 C 0.66884 0.74497 0.43726 0.0
C208 C 0.64138 0.70628 0.40683 0.0
C209 C 0.7407 0.76191 0.39083 0.0
C210 C 0.71883 0.77243 0.42941 0.0
O211 O 0.83273 0.75696 0.21175 0.0
O212 O 0.77735 0.68036 0.23379 0.0
O213 O 0.79483 0.69962 0.33461 0.0
O214 O 0.72936 0.63183 0.31315 0.0
O215 O 0.72602 0.75548 0.22958 0.0
O216 O 0.7214 0.67988 0.23138 0.0
O217 O 0.71674 0.76179 0.31209 0.0
O218 O 0.77156 0.83897 0.29004 0.0
O219 O 0.7557 0.82124 0.19029 0.0
O220 O 0.82423 0.88583 0.20636 0.0
O221 O 0.82358 0.76481 0.29478 0.0
O222 O 0.82772 0.8401 0.29339 0.0
C223 C 0.81677 0.7078 0.2115 0.0
C224 C 0.71187 0.70835 0.2135 0.0
C225 C 0.77565 0.61958 0.35698 0.0
C226 C 0.82922 0.6019 0.38852 0.0
C227 C 0.74314 0.54408 0.38983 0.0
C228 C 0.73633 0.57492 0.36855 0.0
C229 C 0.7892 0.5573 0.39964 0.0
C230 C 0.82223 0.63348 0.36756 0.0
C231 C 0.76682 0.65129 0.33477 0.0
C232 C 0.59138 0.67627 0.41382 0.0
C233 C 0.56554 0.6366 0.3832 0.0
H234 H 0.65197 0.75317 0.46722 0.0
C235 C 0.73262 0.81096 0.31264 0.0
C236 C 0.83707 0.81169 0.31152 0.0
C237 C 0.76832 0.90396 0.18232 0.0
C238 C 0.7094 0.92206 0.15944 0.0
C239 C 0.78822 0.99041 0.17767 0.0
C240 C 0.80093 0.95591 0.18659 0.0
C241 C 0.74283 0.97382 0.16452 0.0
C242 C 0.72267 0.887 0.16781 0.0
C243 C 0.78591 0.86826 0.18627 0.0
H244 H 0.71263 0.50976 0.39873 0.0
H245 H 0.70011 0.56402 0.36141 0.0
H246 H 0.7936 0.53276 0.41628 0.0
H247 H 0.85278 0.66781 0.35882 0.0
H248 H 0.81397 0.03021 0.18048 0.0
H249 H 0.83694 0.97007 0.19604 0.0
H250 H 0.73455 1.00156 0.1568 0.0
H251 H 0.69822 0.84693 0.16202 0.0
C252 C 0.31172 0.67939 0.34374 0.0
C253 C 0.25665 0.58985 0.32796 0.0
C254 C 0.28084 0.63893 0.3166 0.0
C255 C 0.2636 0.5821 0.36648 0.0
C256 C 0.31975 0.67137 0.38189 0.0
C257 C 0.29535 0.62262 0.39317 0.0
N258 N 0.33332 0.72677 0.33316 0.0
C259 C 0.36481 0.76718 0.35803 0.0
C260 C 0.35175 0.71281 0.40785 0.0
C261 C 0.37432 0.76091 0.39586 0.0
Gd262 Gd 0.22331 0.77553 0.25489 0.0
Gd263 Gd 0.32008 0.73257 0.2674 0.0
N264 N 0.27523 0.64729 0.27902 0.0
C265 C 0.22693 0.54961 0.29991 0.0
C266 C 0.24941 0.6072 0.25036 0.0
C267 C 0.22384 0.55826 0.26076 0.0
H268 H 0.24941 0.6114 0.21878 0.0
H269 H 0.20274 0.52696 0.23808 0.0
H270 H 0.28711 0.8953 0.31064 0.0
H271 H 0.38353 0.80396 0.34811 0.0
H272 H 0.33549 0.98133 0.29571 0.0
H273 H 0.20761 0.51145 0.30758 0.0
H274 H 0.24519 0.54465 0.37563 0.0
H275 H 0.16558 0.71014 0.1701 0.0
H276 H 0.35903 0.70812 0.43731 0.0
H277 H 0.3993 0.79301 0.41558 0.0
H278 H 0.31294 0.97167 0.1535 0.0
H279 H 0.30072 0.61586 0.42256 0.0
H280 H 0.20294 0.81231 0.08277 0.0
H281 H 0.15735 0.72595 0.10168 0.0
N282 N 0.21661 0.78622 0.18857 0.0
C283 C 0.24025 0.83454 0.17986 0.0
C284 C 0.18634 0.74766 0.16161 0.0
C285 C 0.20674 0.80555 0.11274 0.0
C286 C 0.18115 0.75664 0.12318 0.0
C287 C 0.2369 0.84518 0.14108 0.0
H288 H 0.26212 0.90351 0.10184 0.0
N289 N 0.26901 0.86255 0.24784 0.0
C290 C 0.26824 0.87335 0.20969 0.0
C291 C 0.32 0.96225 0.23135 0.0
C292 C 0.29415 0.92343 0.20046 0.0
C293 C 0.29097 0.90129 0.27895 0.0
C294 C 0.31765 0.9512 0.27095 0.0
O295 O 0.26549 0.72679 0.32297 0.0
O296 O 0.19868 0.7109 0.29228 0.0
O297 O 0.17623 0.80959 0.27783 0.0
O298 O 0.14585 0.732 0.24889 0.0
O299 O 0.2792 0.69584 0.20781 0.0
O300 O 0.20821 0.69475 0.23514 0.0
O301 O 0.27888 0.78051 0.19998 0.0
O302 O 0.34477 0.79937 0.23304 0.0
O303 O 0.36444 0.69617 0.24072 0.0
O304 O 0.39827 0.77415 0.26914 0.0
O305 O 0.26275 0.81148 0.31537 0.0
O306 O 0.33391 0.81295 0.28776 0.0
C307 C 0.21844 0.70722 0.32272 0.0
C308 C 0.23299 0.68034 0.20486 0.0
C309 C 0.11026 0.75074 0.31271 0.0
C310 C 0.11933 0.7697 0.38615 0.0
C311 C 0.0394 0.73089 0.36074 0.0
C312 C 0.06039 0.73323 0.31969 0.0
C313 C 0.06905 0.75134 0.39411 0.0
C314 C 0.1375 0.76106 0.34591 0.0
C315 C 0.13735 0.76625 0.27342 0.0
C316 C 0.29257 0.9336 0.16114 0.0
C317 C 0.26367 0.89475 0.13172 0.0
H318 H 0.34026 1.00113 0.22543 0.0
C319 C 0.3259 0.80202 0.2016 0.0
C320 C 0.30908 0.82712 0.31828 0.0
C321 C 0.42774 0.75408 0.20248 0.0
C322 C 0.41684 0.73565 0.12902 0.0
C323 C 0.4975 0.78633 0.15353 0.0
C324 C 0.47785 0.78039 0.1947 0.0
C325 C 0.46729 0.76204 0.12052 0.0
C326 C 0.39812 0.73858 0.16996 0.0
C327 C 0.40395 0.73915 0.24294 0.0
H328 H 1.00092 0.71773 0.36675 0.0
H329 H 0.03845 0.72335 0.29406 0.0
H330 H 0.05334 0.75678 0.42536 0.0
H331 H 0.17587 0.77382 0.34044 0.0
H332 H 0.53626 0.8061 0.14703 0.0
H333 H 0.50136 0.79497 0.21989 0.0
H334 H 0.48358 0.76063 0.08896 0.0
H335 H 0.35943 0.72003 0.17603 0.0
C336 C 0.36539 0.69876 0.66568 0.0
C337 C 0.44699 0.76745 0.67088 0.0
C338 C 0.39965 0.74125 0.68855 0.0
C339 C 0.4595 0.75018 0.63016 0.0
C340 C 0.37801 0.68104 0.62494 0.0
C341 C 0.42531 0.70698 0.60731 0.0
N342 N 0.31958 0.67516 0.68309 0.0
C343 C 0.28516 0.63251 0.66244 0.0
C344 C 0.34255 0.638 0.60304 0.0
C345 C 0.29597 0.61346 0.622 0.0
Gd346 Gd 0.24345 0.79924 0.7738 0.0
Gd347 Gd 0.30475 0.71082 0.75005 0.0
N348 N 0.38584 0.75838 0.7273 0.0
C349 C 0.48013 0.81067 0.69446 0.0
C350 C 0.41847 0.79933 0.75106 0.0
C351 C 0.46596 0.82645 0.73483 0.0
H352 H 0.40837 0.81134 0.78249 0.0
H353 H 0.4916 0.85945 0.75347 0.0
H354 H 0.14755 0.70685 0.72013 0.0
H355 H 0.24963 0.61261 0.67757 0.0
H356 H 0.06765 0.63824 0.73756 0.0
H357 H 0.51671 0.83193 0.68189 0.0
H358 H 0.49535 0.77028 0.6159 0.0
H359 H 0.28142 0.87572 0.86247 0.0
H360 H 0.35084 0.62325 0.57162 0.0
H361 H 0.26846 0.57975 0.60561 0.0
H362 H 0.04537 0.67243 0.88538 0.0
H363 H 0.43575 0.69422 0.57593 0.0
H364 H 0.16766 0.82058 0.95831 0.0
H365 H 0.25063 0.88224 0.93644 0.0
N366 N 0.21605 0.81226 0.84307 0.0
C367 C 0.16956 0.7795 0.85381 0.0
C368 C 0.24492 0.8493 0.8718 0.0
C369 C 0.18057 0.81847 0.9257 0.0
C370 C 0.22754 0.85314 0.91356 0.0
C371 C 0.15118 0.78072 0.8958 0.0
H372 H 0.09135 0.74171 0.93922 0.0
N373 N 0.16227 0.73867 0.78336 0.0
C374 C 0.14234 0.74105 0.82328 0.0
C375 C 0.07014 0.66444 0.80353 0.0
C376 C 0.09642 0.70293 0.83452 0.0
C377 C 0.13484 0.70453 0.75238 0.0
C378 C 0.08875 0.66626 0.76206 0.0
O379 O 0.3283 0.76762 0.70486 0.0
O380 O 0.31838 0.83527 0.74174 0.0
O381 O 0.20673 0.82204 0.73887 0.0
O382 O 0.25003 0.87476 0.78994 0.0
O383 O 0.3215 0.7663 0.81009 0.0
O384 O 0.31704 0.83565 0.79747 0.0
O385 O 0.23375 0.74869 0.8206 0.0
O386 O 0.22797 0.6785 0.7776 0.0
O387 O 0.33516 0.6942 0.79571 0.0
O388 O 0.29469 0.63509 0.74715 0.0
O389 O 0.23683 0.75281 0.70971 0.0
O390 O 0.23316 0.68143 0.72505 0.0
C391 C 0.33792 0.81536 0.71013 0.0
C392 C 0.33071 0.81404 0.81952 0.0
C393 C 0.20984 0.90472 0.75458 0.0
C394 C 0.1651 0.92904 0.71877 0.0
C395 C 0.21874 0.98979 0.77064 0.0
C396 C 0.23051 0.95348 0.77744 0.0
C397 C 0.18573 0.97758 0.74177 0.0
C398 C 0.17735 0.89276 0.72498 0.0
C399 C 0.22201 0.86643 0.76153 0.0
C400 C 0.07891 0.70329 0.87642 0.0
C401 C 0.10553 0.74243 0.90692 0.0
H402 H 0.03489 0.63404 0.81116 0.0
C403 C 0.21676 0.69959 0.81339 0.0
C404 C 0.22803 0.70542 0.69905 0.0
C405 C 0.36134 0.63338 0.76761 0.0
C406 C 0.41931 0.61818 0.79412 0.0
C407 C 0.41027 0.6012 0.71976 0.0
C408 C 0.37472 0.61687 0.72681 0.0
C409 C 0.43217 0.60124 0.75327 0.0
C410 C 0.38427 0.63478 0.80089 0.0
C411 C 0.32299 0.6483 0.77663 0.0
H412 H 0.236 0.02779 0.78698 0.0
H413 H 0.25612 0.96374 0.80014 0.0
H414 H 0.17763 1.00647 0.73627 0.0
H415 H 0.16194 0.85562 0.70642 0.0
H416 H 0.42011 0.58798 0.68836 0.0
H417 H 0.35739 0.61529 0.70046 0.0
H418 H 0.45808 0.58674 0.74733 0.0
H419 H 0.37411 0.64799 0.8323 0.0
C420 C 0.4121 0.36629 0.68444 0.0
C421 C 0.41279 0.31542 0.61741 0.0
C422 C 0.38827 0.32425 0.65535 0.0
C423 C 0.46227 0.34775 0.61007 0.0
C424 C 0.46128 0.39988 0.67656 0.0
C425 C 0.48655 0.38968 0.63972 0.0
N426 N 0.38635 0.37634 0.71893 0.0
C427 C 0.40622 0.42096 0.74491 0.0
C428 C 0.48297 0.44387 0.70509 0.0
C429 C 0.45514 0.4549 0.73909 0.0
Gd430 Gd 0.24726 0.2064 0.79501 0.0
Gd431 Gd 0.30551 0.31654 0.7264 0.0
N432 N 0.34056 0.29303 0.66353 0.0
C433 C 0.38647 0.27529 0.58745 0.0
C434 C 0.31415 0.25558 0.63371 0.0
C435 C 0.33676 0.24566 0.59544 0.0
H436 H 0.27579 0.2334 0.63959 0.0
H437 H 0.31557 0.21568 0.57207 0.0
H438 H 0.28174 0.29209 0.88067 0.0
H439 H 0.38347 0.43117 0.7687 0.0
H440 H 0.24456 0.31406 0.9484 0.0
H441 H 0.40409 0.26819 0.55764 0.0
H442 H 0.48187 0.34121 0.58122 0.0
H443 H 0.16264 0.09679 0.75059 0.0
H444 H 0.52048 0.47074 0.7001 0.0
H445 H 0.471 0.49012 0.76004 0.0
H446 H 0.07749 0.19007 0.94524 0.0
H447 H 0.52448 0.4149 0.63324 0.0
H448 H 0.03155 0.05895 0.82785 0.0
H449 H 0.07577 0.03968 0.7636 0.0
N450 N 0.16536 0.15026 0.80391 0.0
C451 C 0.14201 0.16088 0.84 0.0
C452 C 0.14253 0.10707 0.77696 0.0
C453 C 0.0688 0.08518 0.8212 0.0
C454 C 0.09375 0.07413 0.78489 0.0
C455 C 0.09283 0.12869 0.84946 0.0
H456 H 0.03172 0.1158 0.89494 0.0
N457 N 0.21565 0.23251 0.85898 0.0
C458 C 0.16793 0.20268 0.86858 0.0
C459 C 0.17299 0.25455 0.93566 0.0
C460 C 0.14515 0.2134 0.90703 0.0
C461 C 0.24353 0.27076 0.88762 0.0
C462 C 0.22251 0.28299 0.92608 0.0
O463 O 0.336 0.25934 0.71371 0.0
O464 O 0.27692 0.1823 0.7319 0.0
O465 O 0.29478 0.20054 0.83223 0.0
O466 O 0.22821 0.13377 0.81219 0.0
O467 O 0.22745 0.25737 0.72309 0.0
O468 O 0.22206 0.18254 0.73003 0.0
O469 O 0.21622 0.26322 0.80728 0.0
O470 O 0.27591 0.34022 0.78952 0.0
O471 O 0.25671 0.3184 0.68862 0.0
O472 O 0.32188 0.38658 0.70581 0.0
O473 O 0.32548 0.26516 0.7983 0.0
O474 O 0.3318 0.34064 0.79134 0.0
C475 C 0.31821 0.20972 0.71177 0.0
C476 C 0.21251 0.20932 0.70981 0.0
C477 C 0.27543 0.12105 0.85501 0.0
C478 C 0.33004 0.10399 0.88559 0.0
C479 C 0.24479 0.04328 0.88415 0.0
C480 C 0.23689 0.07504 0.86498 0.0
C481 C 0.29102 0.05746 0.89424 0.0
C482 C 0.32208 0.13609 0.86616 0.0
C483 C 0.266 0.15261 0.83321 0.0
C484 C 0.09571 0.18228 0.91594 0.0
C485 C 0.06963 0.14002 0.88727 0.0
H486 H 0.15681 0.264 0.96557 0.0
C487 C 0.23459 0.31298 0.80975 0.0
C488 C 0.34148 0.3135 0.81118 0.0
C489 C 0.25472 0.39603 0.69509 0.0
C490 C 0.19368 0.41114 0.67256 0.0
C491 C 0.24722 0.47151 0.72554 0.0
C492 C 0.26971 0.44142 0.72291 0.0
C493 C 0.21006 0.457 0.70023 0.0
C494 C 0.21581 0.38034 0.67098 0.0
C495 C 0.28175 0.36688 0.68796 0.0
H496 H 0.21501 1.00747 0.89108 0.0
H497 H 0.20062 0.06314 0.8573 0.0
H498 H 0.29628 0.03216 0.90924 0.0
H499 H 0.35204 0.17178 0.85903 0.0
H500 H 0.25951 0.50692 0.74651 0.0
H501 H 0.2994 0.45427 0.74201 0.0
H502 H 0.19503 0.48252 0.70169 0.0
H503 H 0.20356 0.34452 0.65055 0.0
C504 C 0.77164 0.16506 0.85029 0.0
C505 C 0.72263 0.07522 0.8274 0.0
C506 C 0.75069 0.12516 0.81844 0.0
C507 C 0.71591 0.06573 0.8686 0.0
C508 C 0.76601 0.1552 0.8915 0.0
C509 C 0.73781 0.10551 0.90047 0.0
N510 N 0.79839 0.21312 0.84087 0.0
C511 C 0.82502 0.25134 0.87021 0.0
C512 C 0.78985 0.19541 0.92239 0.0
C513 C 0.82029 0.24348 0.9115 0.0
Gd514 Gd 0.72467 0.27907 0.75903 0.0
Gd515 Gd 0.80677 0.22022 0.76958 0.0
N516 N 0.75667 0.13546 0.77881 0.0
C517 C 0.70207 0.03621 0.79465 0.0
C518 C 0.7385 0.0973 0.74651 0.0
C519 C 0.71026 0.0473 0.75403 0.0
H520 H 0.74604 0.10506 0.71484 0.0
H521 H 0.69519 0.01728 0.72842 0.0
H522 H 0.77138 0.39108 0.82681 0.0
H523 H 0.85251 0.28687 0.86128 0.0
H524 H 0.81651 0.48127 0.82182 0.0
H525 H 0.68018 0.99737 0.80033 0.0
H526 H 0.69407 0.02765 0.87609 0.0
H527 H 0.67406 0.22411 0.6704 0.0
H528 H 0.7866 0.18932 0.95435 0.0
H529 H 0.8413 0.27414 0.93461 0.0
H530 H 0.81256 0.49122 0.67913 0.0
H531 H 0.73307 0.09737 0.93197 0.0
H532 H 0.71695 0.33753 0.59229 0.0
H533 H 0.67114 0.24784 0.60371 0.0
N534 N 0.72233 0.29902 0.69521 0.0
C535 C 0.74566 0.34862 0.69065 0.0
C536 C 0.69481 0.26307 0.66518 0.0
C537 C 0.7185 0.32718 0.62143 0.0
C538 C 0.69266 0.2765 0.62769 0.0
C539 C 0.74537 0.36401 0.65313 0.0
H540 H 0.77139 0.42814 0.62015 0.0
N541 N 0.76314 0.36798 0.76139 0.0
C542 C 0.76774 0.38408 0.72439 0.0
C543 C 0.81092 0.47119 0.75588 0.0
C544 C 0.79165 0.43607 0.7207 0.0
C545 C 0.77874 0.40252 0.79644 0.0
C546 C 0.80378 0.45432 0.794 0.0
O547 O 0.7266 0.18494 0.78911 0.0
O548 O 0.72019 0.25402 0.82027 0.0
O549 O 0.66804 0.30128 0.76809 0.0
O550 O 0.64939 0.22226 0.76378 0.0
O551 O 0.77627 0.19372 0.70562 0.0
O552 O 0.70587 0.20032 0.72492 0.0
O553 O 0.78192 0.2844 0.70655 0.0
O554 O 0.84536 0.29045 0.73633 0.0
O555 O 0.84875 0.18589 0.73227 0.0
O556 O 0.86729 0.22433 0.79488 0.0
O557 O 0.76759 0.31199 0.81717 0.0
O558 O 0.83618 0.30354 0.795 0.0
C559 C 0.70764 0.20645 0.81932 0.0
C560 C 0.7318 0.18215 0.69896 0.0
C561 C 0.61418 0.2563 0.81924 0.0
C562 C 0.62912 0.29463 0.89078 0.0
C563 C 0.54924 0.22788 0.87313 0.0
C564 C 0.56581 0.22493 0.83089 0.0
C565 C 0.58053 0.26333 0.90305 0.0
C566 C 0.64573 0.28803 0.84963 0.0
C567 C 0.63514 0.25658 0.77642 0.0
C568 C 0.79404 0.45147 0.68253 0.0
C569 C 0.77062 0.41556 0.64893 0.0
H570 H 0.82962 0.51144 0.75433 0.0
C571 C 0.8285 0.30266 0.70864 0.0
C572 C 0.81383 0.32691 0.81946 0.0
C573 C 0.92939 0.21915 0.74799 0.0
C574 C 0.9871 0.20538 0.69691 0.0
C575 C 1.01423 0.28055 0.7486 0.0
C576 C 0.96645 0.26499 0.76556 0.0
C577 C 0.02454 0.25139 0.71349 0.0
C578 C 0.94044 0.18892 0.71555 0.0
C579 C 0.87836 0.20038 0.76127 0.0
H580 H 0.5118 0.2041 0.88245 0.0
H581 H 0.54128 0.19872 0.80769 0.0
H582 H 0.56633 0.26777 0.93506 0.0
H583 H 0.68353 0.31093 0.84073 0.0
H584 H 0.04287 0.31612 0.76156 0.0
H585 H 0.95856 0.28881 0.79157 0.0
H586 H 0.0608 0.26538 0.6985 0.0
H587 H 0.91115 0.15402 0.70201 0.0
C588 C 0.87447 0.90981 0.85022 0.0
C589 C 0.83332 0.90524 0.91975 0.0
C590 C 0.84038 0.88142 0.87963 0.0
C591 C 0.86048 0.95785 0.92987 0.0
C592 C 0.90072 0.96277 0.86005 0.0
C593 C 0.8938 0.98656 0.90002 0.0
N594 N 0.88112 0.88586 0.81185 0.0
C595 C 0.91463 0.91254 0.7826 0.0
C596 C 0.93282 0.99046 0.82928 0.0
C597 C 0.94047 0.96522 0.79061 0.0
Gd598 Gd 0.7258 0.73829 0.73159 0.0
Gd599 Gd 0.83443 0.79766 0.80276 0.0
N600 N 0.81322 0.83073 0.86859 0.0
C601 C 0.79909 0.87542 0.94853 0.0
C602 C 0.78135 0.80126 0.89696 0.0
C603 C 0.77328 0.82314 0.93717 0.0
H604 H 0.76326 0.76088 0.88911 0.0
H605 H 0.74769 0.7996 0.95955 0.0
H606 H 0.78777 0.78236 0.64418 0.0
H607 H 0.92192 0.89366 0.75308 0.0
H608 H 0.80031 0.74965 0.57073 0.0
H609 H 0.79277 0.89229 0.97974 0.0
H610 H 0.85554 0.9768 0.96055 0.0
H611 H 0.64242 0.63663 0.77761 0.0
H612 H 0.95171 0.03134 0.83519 0.0
H613 H 0.96632 0.98628 0.767 0.0
H614 H 0.69345 0.57134 0.56123 0.0
H615 H 0.91396 0.02722 0.90812 0.0
H616 H 0.60233 0.50597 0.68531 0.0
H617 H 0.59446 0.5454 0.75795 0.0
N618 N 0.67826 0.64999 0.71722 0.0
C619 C 0.6819 0.62908 0.67693 0.0
C620 C 0.64678 0.62057 0.74599 0.0
C621 C 0.62309 0.54643 0.69383 0.0
C622 C 0.61903 0.56848 0.73486 0.0
C623 C 0.65414 0.57679 0.66414 0.0
H624 H 0.63726 0.51626 0.61194 0.0
N625 N 0.74103 0.71001 0.66179 0.0
C626 C 0.71401 0.66 0.64837 0.0
C627 C 0.75073 0.67219 0.57834 0.0
C628 C 0.71851 0.63962 0.6063 0.0
C629 C 0.77041 0.74228 0.63427 0.0
C630 C 0.77649 0.72386 0.59234 0.0
O631 O 0.78643 0.83759 0.81182 0.0
O632 O 0.71171 0.77381 0.79613 0.0
O633 O 0.70879 0.78311 0.6991 0.0
O634 O 0.65184 0.71957 0.72751 0.0
O635 O 0.7753 0.71791 0.80907 0.0
O636 O 0.70621 0.71715 0.79695 0.0
O637 O 0.77378 0.6981 0.71528 0.0
O638 O 0.84797 0.75221 0.74254 0.0
O639 O 0.8488 0.75973 0.84371 0.0
O640 O 0.9076 0.82435 0.81789 0.0
O641 O 0.78978 0.81623 0.72435 0.0
O642 O 0.85695 0.81283 0.73636 0.0
C643 C 0.73902 0.81907 0.81514 0.0
C644 C 0.72891 0.70283 0.81708 0.0
C645 C 0.63248 0.73883 0.66918 0.0
C646 C 0.59553 0.76189 0.62276 0.0
C647 C 0.56681 0.67334 0.62911 0.0
C648 C 0.60134 0.68745 0.65688 0.0
C649 C 0.56309 0.71004 0.61302 0.0
C650 C 0.63051 0.77585 0.65104 0.0
C651 C 0.6624 0.75412 0.70454 0.0
C652 C 0.6905 0.58767 0.59342 0.0
C653 C 0.65843 0.55633 0.62228 0.0
H654 H 0.75522 0.65801 0.54576 0.0
C655 C 0.81985 0.71133 0.71794 0.0
C656 C 0.83529 0.82663 0.71473 0.0
C657 C 0.92396 0.76061 0.82977 0.0
C658 C 0.95381 0.70976 0.85167 0.0
C659 C 0.97043 0.727 0.78012 0.0
C660 C 0.94513 0.75497 0.78937 0.0
C661 C 0.97462 0.70436 0.811 0.0
C662 C 0.92868 0.73831 0.86098 0.0
C663 C 0.89538 0.78793 0.83938 0.0
H664 H 0.54199 0.63374 0.62077 0.0
H665 H 0.60236 0.65811 0.66986 0.0
H666 H 0.53429 0.69746 0.59299 0.0
H667 H 0.65599 0.81516 0.6594 0.0
H668 H 0.98662 0.72264 0.74888 0.0
H669 H 0.942 0.77209 0.76503 0.0
H670 H 0.99415 0.68264 0.80307 0.0
H671 H 0.91196 0.74224 0.89215 0.0
C672 C 0.92563 0.09158 0.54151 0.0
C673 C 0.98067 0.0652 0.42506 0.0
C674 C 0.95591 0.89825 0.45336 0.0
Mg675 Mg 1.02125 0.10413 0.50606 0.0
O676 O 0.98932 0.04057 0.52613 0.0
Mg677 Mg 0.92794 0.98876 0.49963 0.0
Mg678 Mg 0.02866 1.00506 0.50801 0.0
O679 O 0.0694 0.97068 0.48937 0.0
Mg680 Mg 0.0376 0.90445 0.50255 0.0
Mg681 Mg 0.12764 0.02173 0.52049 0.0
C682 C 0.09826 0.11206 0.56329 0.0
C683 C 0.12205 0.07271 0.44466 0.0
O684 O 0.9002 0.04332 0.53933 0.0
O685 O 0.95594 0.10982 0.51164 0.0
O686 O 0.94667 0.03123 0.44483 0.0
O687 O 1.02188 0.09314 0.43945 0.0
O688 O 0.08088 0.13607 0.54901 0.0
O689 O 0.08399 0.06458 0.55092 0.0
C690 C 0.93745 0.9384 0.57371 0.0
O691 O 0.98275 0.95486 0.56205 0.0
O692 O 0.91053 0.94707 0.55513 0.0
O693 O 0.1641 0.97314 0.49126 0.0
O694 O 0.10007 0.89472 0.48401 0.0
O695 O 0.10471 0.97209 0.57054 0.0
C696 C 0.14562 0.92477 0.48401 0.0
O697 O 0.0355 0.90148 0.56763 0.0
O698 O 0.97531 0.87448 0.46472 0.0
C699 C 0.0733 0.93291 0.58592 0.0
O700 O 0.97067 0.94563 0.46583 0.0
O701 O 0.0762 0.05478 0.4544 0.0
O702 O 0.14855 0.06564 0.46538 0.0
C703 C 0.42007 0.10579 0.09949 0.0
C704 C 0.46714 0.10277 0.97041 0.0
C705 C 0.44144 0.91373 0.96177 0.0
Mg706 Mg 0.51731 0.11923 0.04816 0.0
O707 O 0.48997 0.04887 0.04792 0.0
Mg708 Mg 0.42408 1.00698 0.02717 0.0
Mg709 Mg 0.5245 0.00997 0.01497 0.0
O710 O 0.55964 0.97175 0.98146 0.0
Mg711 Mg 0.53353 0.90136 0.97887 0.0
Mg712 Mg 0.62612 0.01479 1.00109 0.0
C713 C 0.60996 0.10773 0.06419 0.0
C714 C 0.6057 0.08026 0.94725 0.0
O715 O 0.39854 0.06063 0.07896 0.0
O716 O 0.46591 0.13333 0.09396 0.0
O717 O 0.43816 0.05923 0.98072 0.0
O718 O 0.50417 0.1337 0.99037 0.0
O719 O 0.58828 0.1344 0.06461 0.0
O720 O 0.59137 0.06017 0.04993 0.0
C721 C 0.44076 0.93985 0.08191 0.0
O722 O 0.4844 0.95412 0.06538 0.0
O723 O 0.4133 0.95557 0.07253 0.0
O724 O 0.65327 0.96284 0.94906 0.0
O725 O 0.58698 0.88933 0.93355 0.0
O726 O 0.61257 0.9622 0.04763 0.0
C727 C 0.63274 0.91773 0.92832 0.0
O728 O 0.54611 0.88784 0.03728 0.0
O729 O 0.46325 0.88697 0.96057 0.0
C730 C 0.58292 0.9186 0.05765 0.0
O731 O 0.45862 0.96033 0.97902 0.0
O732 O 0.56266 0.06488 0.965 0.0
O733 O 0.63504 0.06613 0.95533 0.0
C734 C 0.92646 0.61136 0.10191 0.0
C735 C 0.98124 0.61691 0.97566 0.0
C736 C 0.9388 0.42294 0.95139 0.0
Mg737 Mg 0.02567 0.62236 0.0551 0.0
O738 O 0.9938 0.55127 0.04635 0.0
Mg739 Mg 0.92764 0.51523 0.02524 0.0
Mg740 Mg 0.02461 0.50969 1.01097 0.0
O741 O 0.05602 0.46882 0.97534 0.0
Mg742 Mg 0.02507 0.39797 0.96492 0.0
Mg743 Mg 0.12226 0.50524 0.99642 0.0
C744 C 0.11182 0.5974 0.06887 0.0
C745 C 0.1101 0.57775 0.94438 0.0
O746 O 0.9048 0.56846 0.07847 0.0
O747 O 0.97276 0.63703 0.09971 0.0
O748 O 0.9481 0.57287 0.98191 0.0
O749 O 1.01743 0.64232 0.99801 0.0
O750 O 0.09289 0.62765 0.07445 0.0
O751 O 0.09189 0.55293 0.04744 0.0
C752 C 0.93919 0.44336 0.07871 0.0
O753 O 0.98146 0.45373 0.06034 0.0
O754 O 0.91328 0.4614 0.07004 0.0
O755 O 0.14623 0.45281 0.94286 0.0
O756 O 0.07878 0.38463 0.92042 0.0
O757 O 0.10175 0.44693 0.03899 0.0
C758 C 0.12506 0.4102 0.91889 0.0
O759 O 0.03291 0.37725 0.02174 0.0
O760 O 0.95849 0.39331 0.945 0.0
C761 C 0.06882 0.40251 0.04443 0.0
O762 O 0.95735 0.46643 0.97454 0.0
O763 O 0.06722 0.56542 0.9619 0.0
O764 O 0.13689 0.56065 0.95286 0.0
C765 C 0.40243 0.58266 0.03253 0.0
C766 C 0.48699 0.58649 0.93255 0.0
C767 C 0.46763 0.40904 0.94995 0.0
Mg768 Mg 0.51309 0.61184 0.01923 0.0
O769 O 0.48398 0.54412 0.02849 0.0
Mg770 Mg 0.43015 0.49237 0.99329 0.0
Mg771 Mg 0.52863 0.51419 0.01318 0.0
O772 O 0.57327 0.48432 0.99817 0.0
Mg773 Mg 0.54447 0.41649 1.00605 0.0
Mg774 Mg 0.62694 0.53653 0.03366 0.0
C775 C 0.59087 0.62009 0.07373 0.0
C776 C 0.62505 0.58715 0.95605 0.0
O777 O 0.38729 0.53499 0.02175 0.0
O778 O 0.44708 0.61524 0.03523 0.0
O779 O 0.45579 0.54512 0.9452 0.0
O780 O 0.52207 0.61875 0.954 0.0
O781 O 0.57145 0.6433 0.06156 0.0
O782 O 0.57839 0.57345 0.06007 0.0
C783 C 0.43221 0.44025 0.07014 0.0
O784 O 0.47864 0.46061 0.06376 0.0
O785 O 0.4071 0.44591 0.0468 0.0
O786 O 0.66926 0.49318 1.00615 0.0
O787 O 0.6104 0.41323 0.98964 0.0
O788 O 0.60137 0.48874 0.08563 0.0
C789 C 0.65483 0.44591 0.9937 0.0
O790 O 0.53812 0.41265 0.07168 0.0
O791 O 0.48648 0.38513 0.96202 0.0
C792 C 0.56979 0.44611 0.09602 0.0
O793 O 0.47921 0.45521 0.9655 0.0
O794 O 0.57873 0.56785 0.963 0.0
O795 O 0.65028 0.58078 0.97873 0.0
C796 C 0.92114 0.60626 0.60427 0.0
C797 C 0.96532 0.59857 0.47308 0.0
C798 C 0.93486 0.40978 0.46841 0.0
Mg799 Mg 1.01758 0.61768 0.55055 0.0
O800 O 0.99047 0.54742 0.55036 0.0
Mg801 Mg 0.92299 0.50571 0.53258 0.0
Mg802 Mg 1.02299 0.50647 0.51613 0.0
O803 O 0.05525 0.46565 0.4817 0.0
Mg804 Mg 0.02714 0.39537 0.48062 0.0
Mg805 Mg 0.12276 0.50623 0.49934 0.0
C806 C 0.11082 0.60323 0.56236 0.0
C807 C 0.1051 0.57365 0.44597 0.0
O808 O 0.89921 0.56089 0.58427 0.0
O809 O 0.96704 0.63339 0.59783 0.0
O810 O 0.93587 0.55592 0.4848 0.0
O811 O 1.00298 0.62975 0.49223 0.0
O812 O 0.08915 0.6303 0.56404 0.0
O813 O 0.09144 0.55545 0.54861 0.0
C814 C 0.94203 0.44008 0.58752 0.0
O815 O 0.98439 0.45241 0.5685 0.0
O816 O 0.91431 0.45618 0.57925 0.0
O817 O 0.14618 0.45115 0.44637 0.0
O818 O 0.07729 0.37986 0.4334 0.0
O819 O 0.10954 0.45444 0.54595 0.0
C820 C 0.12316 0.40595 0.42632 0.0
O821 O 0.04065 0.3822 0.53855 0.0
O822 O 0.95606 0.38223 0.46618 0.0
C823 C 0.07893 0.41193 0.55726 0.0
O824 O 0.95442 0.4571 0.48361 0.0
O825 O 0.06227 0.56095 0.46413 0.0
O826 O 0.13221 0.55677 0.45407 0.0
C827 C 0.42399 0.10774 0.60326 0.0
C828 C 0.47068 0.10984 0.47727 0.0
C829 C 0.43411 0.91966 0.45113 0.0
Mg830 Mg 0.52163 0.1171 0.55293 0.0
O831 O 0.48976 0.04657 0.54639 0.0
Mg832 Mg 0.42227 0.00981 0.52744 0.0
Mg833 Mg 0.52106 1.00611 0.51009 0.0
O834 O 0.55247 0.96579 0.47389 0.0
Mg835 Mg 0.5209 0.89534 0.46274 0.0
Mg836 Mg 0.61771 1.00025 0.49652 0.0
C837 C 0.60849 0.09363 0.56628 0.0
C838 C 0.60808 0.07521 0.44389 0.0
O839 O 0.40056 0.06377 0.58166 0.0
O840 O 0.4703 0.13227 0.59881 0.0
O841 O 0.43755 0.06673 0.48538 0.0
O842 O 0.50965 0.13454 0.49618 0.0
O843 O 0.5901 0.12423 0.57093 0.0
O844 O 0.58764 0.04832 0.54663 0.0
C845 C 0.43787 0.9379 0.57811 0.0
O846 O 0.47965 0.94929 0.55855 0.0
O847 O 0.41087 0.95572 0.57144 0.0
O848 O 0.64154 0.94817 0.44361 0.0
O849 O 0.57455 0.88151 0.41875 0.0
O850 O 0.59594 0.93918 0.53879 0.0
C851 C 0.62078 0.90632 0.41879 0.0
O852 O 0.52664 0.87223 0.51846 0.0
O853 O 0.45443 0.89065 0.44373 0.0
C854 C 0.56183 0.89439 0.54195 0.0
O855 O 0.45258 0.96294 0.47457 0.0
O856 O 0.5652 0.06387 0.46151 0.0
O857 O 0.63366 0.05662 0.45247 0.0
C858 C 0.15281 0.15945 0.3624 0.0
C859 C 0.19408 0.15852 0.33961 0.0
C860 C 0.12987 0.13211 0.3962 0.0
C861 C 0.14573 0.10083 0.40784 0.0
H862 H 0.13943 0.18348 0.35545 0.0
H863 H 0.10136 0.13811 0.41448 0.0
S864 S 0.25108 0.08302 0.35664 0.0
N865 N 0.24971 0.12325 0.33071 0.0
N866 N 0.20521 0.06988 0.3924 0.0
C867 C 0.18645 0.09874 0.38451 0.0
C868 C 0.21066 0.1277 0.35083 0.0
C869 C 0.89949 0.09707 0.38126 0.0
C870 C 0.91379 0.09357 0.33868 0.0
C871 C 0.92454 0.09192 0.40934 0.0
C872 C 0.96467 0.0832 0.39569 0.0
H873 H 0.8666 0.09979 0.39246 0.0
H874 H 0.91038 0.09137 0.44169 0.0
S875 S 1.02195 0.08301 0.28845 0.0
N876 N 0.97402 0.08931 0.28454 0.0
N877 N 1.02217 0.07986 0.33804 0.0
C878 C 0.98228 0.08503 0.35382 0.0
C879 C 0.95635 0.09003 0.32501 0.0
C880 C 0.86824 0.87543 0.37528 0.0
C881 C 0.86786 0.83372 0.34725 0.0
C882 C 0.89497 0.89471 0.41062 0.0
C883 C 0.92254 0.87316 0.41924 0.0
H884 H 0.84725 0.89292 0.37019 0.0
H885 H 0.89431 0.92704 0.43109 0.0
S886 S 0.93777 0.7668 0.35282 0.0
N887 N 0.90017 0.77385 0.32881 0.0
N888 N 0.94971 0.80938 0.39501 0.0
C889 C 0.92268 0.83165 0.3911 0.0
C890 C 0.8957 0.81226 0.35513 0.0
C891 C 0.14597 0.80996 0.45737 0.0
C892 C 0.15287 0.81217 0.4145 0.0
C893 C 0.15985 0.8546 0.48561 0.0
C894 C 0.17653 0.90084 0.47077 0.0
H895 H 0.12454 0.77399 0.4689 0.0
H896 H 0.14666 0.85146 0.51803 0.0
S897 S 0.22097 0.92913 0.36412 0.0
N898 N 0.19458 0.86688 0.36008 0.0
N899 N 0.21801 0.94946 0.41441 0.0
C900 C 0.19597 0.90479 0.42989 0.0
C901 C 0.18277 0.85998 0.40078 0.0
C902 C 0.15816 0.92098 0.64385 0.0
C903 C 0.13605 0.91882 0.68442 0.0
C904 C 0.13511 0.92126 0.61138 0.0
C905 C 0.08921 0.9192 0.6185 0.0
H906 H 0.19459 0.92553 0.6377 0.0
H907 H 0.15457 0.92615 0.58089 0.0
S908 S 1.01423 0.90615 0.71826 0.0
N909 N 0.06445 0.9092 0.72965 0.0
N910 N 1.02076 0.90999 0.66797 0.0
C911 C 0.0653 0.9132 0.65826 0.0
C912 C 0.089 0.91314 0.69153 0.0
C913 C 0.17104 0.21193 0.65097 0.0
C914 C 0.18371 0.18473 0.6724 0.0
C915 C 0.14541 0.18908 0.61483 0.0
C916 C 0.12987 0.13753 0.59919 0.0
H917 H 0.18032 0.25104 0.6622 0.0
H918 H 0.13676 0.21182 0.59972 0.0
S919 S 0.14985 0.04867 0.64646 0.0
N920 N 0.17864 0.10366 0.67496 0.0
N921 N 0.12599 0.05977 0.61133 0.0
C922 C 0.14118 0.11001 0.62138 0.0
C923 C 0.16897 0.13368 0.65682 0.0
C924 C 0.9689 0.12648 0.64913 0.0
C925 C 0.99016 0.1797 0.65472 0.0
C926 C 0.94505 0.09756 0.61347 0.0
C927 C 0.94309 0.1211 0.5818 0.0
H928 H 0.96606 0.10719 0.67451 0.0
H929 H 0.92818 0.05672 0.61083 0.0
S930 S 1.0002 0.25931 0.57875 0.0
N931 N 1.0125 0.25467 0.62408 0.0
N932 N 0.96898 0.20059 0.55625 0.0
C933 C 0.96762 0.17432 0.58572 0.0
C934 C 0.99172 0.20354 0.62197 0.0
C935 C 0.85872 0.89804 0.67409 0.0
C936 C 0.86392 0.85666 0.68023 0.0
C937 C 0.88396 0.92494 0.64034 0.0
C938 C 0.91479 0.91111 0.61082 0.0
H939 H 0.835 0.90975 0.69554 0.0
H940 H 0.87883 0.95663 0.63701 0.0
S941 S 0.93408 0.80006 0.60927 0.0
N942 N 0.89983 0.80123 0.65268 0.0
N943 N 0.94309 0.84843 0.58749 0.0
C944 C 0.91881 0.86865 0.61596 0.0
C945 C 0.89449 0.84239 0.6511 0.0
C946 C 0.39181 0.20562 0.1727 0.0
C947 C 0.34216 0.17967 0.18484 0.0
C948 C 0.41602 0.18122 0.14579 0.0
C949 C 0.3921 0.12933 0.12918 0.0
H950 H 0.41238 0.24561 0.18367 0.0
H951 H 0.45412 0.20387 0.13764 0.0
S952 S 0.2626 0.04261 0.15338 0.0
N953 N 0.27043 0.09778 0.18001 0.0
N954 N 0.31537 0.05257 0.12841 0.0
C955 C 0.34242 0.10269 0.14131 0.0
C956 C 0.31773 0.12757 0.16923 0.0
C957 C 0.87984 0.33183 0.13909 0.0
C958 C 0.86767 0.35288 0.17881 0.0
C959 C 0.90624 0.36177 0.1074 0.0
C960 C 0.92015 0.41369 0.11385 0.0
H961 H 0.86772 0.29161 0.13187 0.0
H962 H 0.91364 0.34375 0.0771 0.0
S963 S 0.89686 0.488 0.2109 0.0
N964 N 0.87255 0.42994 0.22222 0.0
N965 N 0.91993 0.48523 0.16218 0.0
C966 C 0.9084 0.43537 0.15313 0.0
C967 C 0.8826 0.40527 0.18567 0.0
C968 C 0.65236 0.87315 0.10316 0.0
C969 C 0.6634 0.9061 0.14114 0.0
C970 C 0.61963 0.87151 0.078 0.0
C971 C 0.59717 0.90274 0.09017 0.0
H972 H 0.67265 0.85256 0.09083 0.0
H973 H 0.61607 0.85003 0.04699 0.0
S974 S 0.60636 0.9872 0.19025 0.0
N975 N 0.64263 0.96334 0.19282 0.0
N976 N 0.58283 0.96162 0.1448 0.0
C977 C 0.60381 0.93123 0.12994 0.0
C978 C 0.63642 0.93242 0.1557 0.0
C979 C 0.22633 0.66237 0.12711 0.0
C980 C 0.20762 0.64823 0.16703 0.0
C981 C 0.19618 0.64381 0.09379 0.0
C982 C 0.14713 0.6082 0.09884 0.0
H983 H 0.2633 0.69094 0.1226 0.0
H984 H 0.21066 0.65919 0.06473 0.0
S985 S 0.08342 0.55112 0.19448 0.0
N986 N 0.13853 0.59191 0.2079 0.0
N987 N 0.08329 0.55454 0.145 0.0
C988 C 0.12972 0.58971 0.13721 0.0
C989 C 0.15966 0.61002 0.17132 0.0
C990 C 0.34341 0.81883 0.89344 0.0
C991 C 0.35443 0.84298 0.85811 0.0
C992 C 0.36851 0.84404 0.92931 0.0
C993 C 0.40524 0.89431 0.93113 0.0
H994 H 0.31623 0.77964 0.89287 0.0
H995 H 0.3611 0.82319 0.95488 0.0
S996 S 0.44993 0.97248 0.84551 0.0
N997 N 0.40474 0.91909 0.82663 0.0
N998 N 0.45258 0.96656 0.89379 0.0
C999 C 0.41542 0.91938 0.89644 0.0
C1000 C 0.3898 0.89364 0.85995 0.0
C1001 C 0.15857 0.31144 0.85015 0.0
C1002 C 0.20786 0.3392 0.83735 0.0
C1003 C 0.13253 0.33482 0.87574 0.0
C1004 C 0.15431 0.38733 0.8904 0.0
H1005 H 0.13953 0.27107 0.84005 0.0
H1006 H 0.09485 0.31107 0.88453 0.0
S1007 S 0.28282 0.47772 0.86654 0.0
N1008 N 0.27752 0.42273 0.84168 0.0
N1009 N 0.229 0.46628 0.88988 0.0
C1010 C 0.20373 0.4156 0.87805 0.0
C1011 C 0.23021 0.39178 0.85155 0.0
C1012 C 0.67888 0.19711 0.89435 0.0
C1013 C 0.67393 0.17677 0.85194 0.0
C1014 C 0.65412 0.16606 0.92561 0.0
C1015 C 0.62266 0.1142 0.91542 0.0
H1016 H 0.70454 0.23629 0.9033 0.0
H1017 H 0.66137 0.18215 0.95782 0.0
S1018 S 0.59301 0.0441 0.8094 0.0
N1019 N 0.63234 0.10251 0.80167 0.0
N1020 N 0.58538 0.04476 0.86044 0.0
C1021 C 0.61514 0.09427 0.87337 0.0
C1022 C 0.64078 0.1255 0.84161 0.0
C1023 C 0.97831 0.71393 0.92161 0.0
C1024 C 0.95813 0.68513 0.88405 0.0
C1025 C 0.98634 0.69177 0.95104 0.0
C1026 C 0.97414 0.64008 0.94389 0.0
H1027 H 0.98921 0.75408 0.92771 0.0
H1028 H 1.00231 0.71524 0.97945 0.0
S1029 S 0.91679 0.54781 0.85195 0.0
N1030 N 0.92339 0.60198 0.84251 0.0
N1031 N 0.93848 0.56027 0.8976 0.0
C1032 C 0.95212 0.61057 0.90722 0.0
C1033 C 0.9443 0.63318 0.87726 0.0
C1034 C 0.10629 0.38868 0.14236 0.0
C1035 C 0.09715 0.33792 0.13546 0.0
C1036 C 0.09629 0.40895 0.1129 0.0
C1037 C 0.07619 0.37902 0.07566 0.0
H1038 H 0.121 0.41288 0.17093 0.0
H1039 H 0.10385 0.44823 0.11955 0.0
S1040 S 0.04862 0.24502 0.04109 0.0
N1041 N 0.06899 0.25876 0.08757 0.0
N1042 N 0.05055 0.29726 0.03195 0.0
C1043 C 0.06841 0.32873 0.06755 0.0
C1044 C 0.07898 0.30811 0.09746 0.0
C1045 C 0.19083 0.69011 0.88859 0.0
C1046 C 0.18555 0.66873 0.84631 0.0
C1047 C 0.16366 0.6612 0.92057 0.0
C1048 C 0.12954 0.61026 0.91139 0.0
H1049 H 0.21743 0.72901 0.8971 0.0
H1050 H 0.17067 0.67824 0.95265 0.0
S1051 S 0.09933 0.53721 0.80619 0.0
N1052 N 0.14173 0.59404 0.79719 0.0
N1053 N 0.09049 0.53994 0.85743 0.0
C1054 C 0.12251 0.58892 0.86942 0.0
C1055 C 0.15057 0.61811 0.83682 0.0
C1056 C 0.39629 0.08222 0.88317 0.0
C1057 C 0.37836 0.11716 0.89725 0.0
C1058 C 0.43177 0.0829 0.90381 0.0
C1059 C 0.45078 0.11837 0.93904 0.0
H1060 H 0.37944 0.05116 0.85864 0.0
H1061 H 0.44048 0.05208 0.89515 0.0
S1062 S 0.42283 0.2241 0.98324 0.0
N1063 N 0.3875 0.19324 0.94443 0.0
N1064 N 0.45449 0.19415 0.98337 0.0
C1065 C 0.43762 0.15738 0.95024 0.0
C1066 C 0.40121 0.15679 0.92922 0.0
C1067 C 0.82228 0.3568 0.89654 0.0
C1068 C 0.84036 0.36448 0.85494 0.0
C1069 C 0.85344 0.37907 0.92933 0.0
C1070 C 0.90295 0.41177 0.9218 0.0
H1071 H 0.78529 0.32892 0.90302 0.0
H1072 H 0.83945 0.3679 0.95995 0.0
S1073 S 0.96529 0.45309 0.8204 0.0
N1074 N 0.90922 0.41254 0.80948 0.0
N1075 N 0.96659 0.45667 0.87105 0.0
C1076 C 0.91978 0.42439 0.88136 0.0
C1077 C 0.88872 0.40047 0.84798 0.0
C1078 C 0.66486 0.81956 0.85694 0.0
C1079 C 0.71427 0.84667 0.84409 0.0
C1080 C 0.63957 0.84303 0.88344 0.0
C1081 C 0.66198 0.89525 0.89904 0.0
H1082 H 0.64512 0.77931 0.84663 0.0
H1083 H 0.60179 0.8194 0.892 0.0
S1084 S 0.79009 0.98501 0.873 0.0
N1085 N 0.78405 0.92995 0.84746 0.0
N1086 N 0.73711 0.97372 0.89818 0.0
C1087 C 0.71143 0.92313 0.88635 0.0
C1088 C 0.73727 0.89907 0.85884 0.0
C1089 C 0.8905 0.71044 0.16556 0.0
C1090 C 0.84373 0.68182 0.18375 0.0
C1091 C 0.91663 0.68736 0.13968 0.0
C1092 C 0.89753 0.63426 0.13049 0.0
H1093 H 0.90769 0.75128 0.17177 0.0
H1094 H 0.95217 0.71163 0.1264 0.0
S1095 S 0.77798 0.54105 0.17203 0.0
N1096 N 0.78035 0.59645 0.1917 0.0
N1097 N 0.82933 0.55361 0.14333 0.0
C1098 C 0.85108 0.60498 0.14877 0.0
C1099 C 0.82443 0.62851 0.17536 0.0
C1100 C 0.40386 0.87504 0.17862 0.0
C1101 C 0.35838 0.83367 0.16916 0.0
C1102 C 0.43296 0.90797 0.14929 0.0
C1103 C 0.41766 0.90018 0.10947 0.0
H1104 H 0.41614 0.88335 0.20945 0.0
H1105 H 0.4662 0.94097 0.15854 0.0
S1106 S 0.30613 0.79358 0.06679 0.0
N1107 N 0.30278 0.78443 0.11525 0.0
N1108 N 0.35707 0.84567 0.06068 0.0
C1109 C 0.3739 0.85749 0.09897 0.0
C1110 C 0.34437 0.82442 0.12863 0.0
C1111 C 0.67741 0.12843 0.15572 0.0
C1112 C 0.70537 0.1814 0.16168 0.0
C1113 C 0.65054 0.10329 0.12069 0.0
C1114 C 0.65064 0.13046 0.09077 0.0
H1115 H 0.67397 0.10659 0.17937 0.0
H1116 H 0.62641 0.06307 0.11899 0.0
S1117 S 0.72563 0.26789 0.08746 0.0
N1118 N 0.73773 0.25886 0.13108 0.0
N1119 N 0.68632 0.21163 0.06606 0.0
C1120 C 0.6819 0.18259 0.09444 0.0
C1121 C 0.70939 0.2081 0.12978 0.0
C1122 C 0.66307 0.67692 0.87535 0.0
C1123 C 0.70199 0.67173 0.85142 0.0
C1124 C 0.63788 0.64921 0.9087 0.0
C1125 C 0.65084 0.61547 0.91987 0.0
H1126 H 0.65313 0.7041 0.86919 0.0
H1127 H 0.60931 0.65577 0.92681 0.0
S1128 S 0.75279 0.5911 0.86942 0.0
N1129 N 0.75382 0.63203 0.8428 0.0
N1130 N 0.70718 0.58047 0.90526 0.0
C1131 C 0.69064 0.61104 0.89686 0.0
C1132 C 0.71603 0.63902 0.86283 0.0
C1133 C 0.40748 0.59372 0.86423 0.0
C1134 C 0.43908 0.61478 0.83024 0.0
C1135 C 0.42434 0.58689 0.89767 0.0
C1136 C 0.47343 0.60043 0.89835 0.0
H1137 H 0.36917 0.58115 0.86459 0.0
H1138 H 0.39831 0.56954 0.9228 0.0
S1139 S 0.57122 0.66286 0.81936 0.0
N1140 N 0.52202 0.65409 0.80099 0.0
N1141 N 0.55376 0.63943 0.86382 0.0
C1142 C 0.50573 0.62367 0.8656 0.0
C1143 C 0.48848 0.631 0.83142 0.0
C1144 C 0.38284 0.30913 0.86925 0.0
C1145 C 0.37351 0.33798 0.84667 0.0
C1146 C 0.41207 0.33177 0.90318 0.0
C1147 C 0.43485 0.38453 0.9151 0.0
H1148 H 0.36777 0.26871 0.86091 0.0
H1149 H 0.4173 0.30773 0.91978 0.0
S1150 S 0.42975 0.47736 0.86105 0.0
N1151 N 0.39097 0.42213 0.83857 0.0
N1152 N 0.45242 0.46481 0.89618 0.0
C1153 C 0.4281 0.41366 0.89109 0.0
C1154 C 0.39595 0.39044 0.85856 0.0
C1155 C 0.66192 0.33741 0.96006 0.0
C1156 C 0.66068 0.33991 0.91817 0.0
C1157 C 0.67865 0.38175 0.98884 0.0
C1158 C 0.68958 0.42774 0.97628 0.0
H1159 H 0.6457 0.30118 0.97119 0.0
H1160 H 0.6717 0.37805 0.0217 0.0
S1161 S 0.71176 0.45732 0.86958 0.0
N1162 N 0.68716 0.39515 0.8645 0.0
N1163 N 0.71853 0.47717 0.91978 0.0
C1164 C 0.70179 0.43243 0.9342 0.0
C1165 C 0.68455 0.38798 0.90454 0.0
C1166 C 0.64435 0.41874 0.15399 0.0
C1167 C 0.62206 0.41745 0.19478 0.0
C1168 C 0.62475 0.42474 0.12179 0.0
C1169 C 0.5826 0.43032 0.12918 0.0
H1170 H 0.67842 0.41762 0.1471 0.0
H1171 H 0.64403 0.42745 0.09116 0.0
S1172 S 0.5092 0.42672 0.2289 0.0
N1173 N 0.55301 0.41753 0.23958 0.0
N1174 N 0.51872 0.43337 0.17914 0.0
C1175 C 0.55914 0.42767 0.16907 0.0
C1176 C 0.57832 0.42014 0.20184 0.0
C1177 C 0.68015 0.64451 0.15057 0.0
C1178 C 0.6805 0.68616 0.17846 0.0
C1179 C 0.65267 0.6247 0.11584 0.0
C1180 C 0.62423 0.64553 0.10771 0.0
H1181 H 0.7018 0.62753 0.15525 0.0
H1182 H 0.65367 0.59258 0.09556 0.0
S1183 S 0.60918 0.75194 0.174 0.0
N1184 N 0.64782 0.74575 0.19738 0.0
N1185 N 0.59647 0.70876 0.13217 0.0
C1186 C 0.6241 0.68703 0.13573 0.0
C1187 C 0.652 0.70715 0.17112 0.0
C1188 C 0.35958 0.64405 0.11387 0.0
C1189 C 0.38605 0.69187 0.09972 0.0
C1190 C 0.34972 0.59963 0.08624 0.0
C1191 C 0.36847 0.60295 0.04488 0.0
H1192 H 0.35288 0.64073 0.14677 0.0
H1193 H 0.33781 0.56505 0.09906 0.0
S1194 S 0.41564 0.71366 0.98989 0.0
N1195 N 0.41218 0.73643 0.03976 0.0
N1196 N 0.39403 0.652 0.98789 0.0
C1197 C 0.38138 0.6475 0.02895 0.0
C1198 C 0.3919 0.69303 0.05683 0.0
C1199 C 0.40094 0.36118 0.15856 0.0
C1200 C 0.35478 0.35514 0.17514 0.0
C1201 C 0.42594 0.38882 0.12509 0.0
C1202 C 0.40605 0.41161 0.10642 0.0
H1203 H 0.41764 0.34352 0.17095 0.0
H1204 H 0.46059 0.39122 0.11322 0.0
S1205 S 0.28714 0.40952 0.13946 0.0
N1206 N 0.2911 0.37628 0.17108 0.0
N1207 N 0.33746 0.42753 0.10867 0.0
C1208 C 0.36013 0.4064 0.12321 0.0
C1209 C 0.3348 0.37849 0.15732 0.0
C1210 C 0.8944 0.70465 0.68226 0.0
C1211 C 0.84359 0.682 0.6894 0.0
C1212 C 0.91842 0.67972 0.6556 0.0
C1213 C 0.89333 0.63012 0.63435 0.0
H1214 H 0.91634 0.74284 0.69678 0.0
H1215 H 0.95742 0.70017 0.65144 0.0
S1216 S 0.76006 0.55105 0.64439 0.0
N1217 N 0.76914 0.60487 0.67442 0.0
N1218 N 0.81389 0.55837 0.6242 0.0
C1219 C 0.84247 0.60633 0.64176 0.0
C1220 C 0.81787 0.632 0.66907 0.0
C1221 C 0.37365 0.82459 0.63621 0.0
C1222 C 0.36975 0.84716 0.67771 0.0
C1223 C 0.39861 0.85414 0.60402 0.0
C1224 C 0.42104 0.90718 0.61236 0.0
H1225 H 0.3553 0.78381 0.62811 0.0
H1226 H 0.3984 0.83542 0.57221 0.0
S1227 S 0.42736 0.98504 0.71592 0.0
N1228 N 0.39482 0.92612 0.72554 0.0
N1229 N 0.44144 0.9812 0.66509 0.0
C1230 C 0.41977 0.93017 0.65383 0.0
C1231 C 0.39428 0.9003 0.68652 0.0
C1232 C 0.11829 0.41105 0.65792 0.0
C1233 C 0.15595 0.3981 0.64388 0.0
C1234 C 0.08881 0.41019 0.63 0.0
C1235 C 0.09474 0.39451 0.58731 0.0
H1236 H 0.11338 0.42497 0.69047 0.0
H1237 H 0.06362 0.42519 0.64145 0.0
S1238 S 0.18241 0.35003 0.53433 0.0
N1239 N 0.19422 0.36504 0.58381 0.0
N1240 N 0.13665 0.36079 0.53229 0.0
C1241 C 0.12868 0.37674 0.57322 0.0
C1242 C 0.15971 0.3789 0.60128 0.0
C1243 C 0.72441 0.1627 0.62185 0.0
C1244 C 0.70769 0.14774 0.66163 0.0
C1245 C 0.69316 0.14313 0.58941 0.0
C1246 C 0.64504 0.10579 0.59521 0.0
H1247 H 0.76056 0.19247 0.61678 0.0
H1248 H 0.70598 0.15894 0.56046 0.0
S1249 S 0.58612 0.04756 0.69118 0.0
N1250 N 0.64123 0.08994 0.70348 0.0
N1251 N 0.58393 0.05042 0.64198 0.0
C1252 C 0.6296 0.08673 0.63339 0.0
C1253 C 0.66064 0.1081 0.66668 0.0
C1254 C 0.87308 0.39304 0.37485 0.0
C1255 C 0.84388 0.34026 0.36833 0.0
C1256 C 0.89792 0.41714 0.41104 0.0
C1257 C 0.89472 0.38909 0.44154 0.0
H1258 H 0.87952 0.41546 0.35069 0.0
H1259 H 0.92338 0.45705 0.41306 0.0
S1260 S 0.81553 0.25194 0.44327 0.0
N1261 N 0.80697 0.2622 0.39863 0.0
N1262 N 0.85484 0.30742 0.46589 0.0
C1263 C 0.86211 0.33726 0.4372 0.0
C1264 C 0.83655 0.3128 0.40066 0.0
C1265 C 0.65509 0.80877 0.3492 0.0
C1266 C 0.70533 0.83611 0.3403 0.0
C1267 C 0.62835 0.83198 0.37372 0.0
C1268 C 0.65054 0.8836 0.3913 0.0
H1269 H 0.63596 0.7691 0.33658 0.0
H1270 H 0.58982 0.80882 0.37932 0.0
S1271 S 0.78212 0.97104 0.38089 0.0
N1272 N 0.77667 0.91731 0.35291 0.0
N1273 N 0.72695 0.96041 0.39953 0.0
C1274 C 0.70106 0.91104 0.38348 0.0
C1275 C 0.7282 0.88754 0.35791 0.0
C1276 C 0.13885 0.63924 0.3498 0.0
C1277 C 0.18659 0.67746 0.35655 0.0
C1278 C 0.1102 0.6074 0.38004 0.0
C1279 C 0.12829 0.61315 0.41812 0.0
H1280 H 0.12426 0.63233 0.32024 0.0
H1281 H 0.07498 0.57659 0.37266 0.0
S1282 S 0.24725 0.7114 0.45399 0.0
N1283 N 0.24777 0.72195 0.40656 0.0
N1284 N 0.19439 0.66257 0.46259 0.0
C1285 C 0.1745 0.653 0.42612 0.0
C1286 C 0.20353 0.68501 0.39561 0.0
C1287 C 0.47113 0.17685 0.3925 0.0
C1288 C 0.44188 0.19909 0.41155 0.0
C1289 C 0.47989 0.14649 0.41335 0.0
C1290 C 0.45777 0.13628 0.45303 0.0
H1291 H 0.48942 0.18628 0.36243 0.0
H1292 H 0.50482 0.13198 0.39935 0.0
S1293 S 0.36393 0.16978 0.50921 0.0
N1294 N 0.3821 0.19944 0.46791 0.0
N1295 N 0.39608 0.13974 0.50622 0.0
C1296 C 0.42296 0.15229 0.46978 0.0
C1297 C 0.41527 0.18431 0.4491 0.0
C1298 C 0.5766 0.78556 0.56199 0.0
C1299 C 0.5915 0.79974 0.60288 0.0
C1300 C 0.56516 0.81568 0.54388 0.0
C1301 C 0.57007 0.86264 0.56487 0.0
H1302 H 0.57295 0.75028 0.54369 0.0
H1303 H 0.55352 0.80251 0.5125 0.0
S1304 S 0.61392 0.92214 0.66979 0.0
N1305 N 0.61338 0.86666 0.66286 0.0
N1306 N 0.59536 0.92492 0.62674 0.0
C1307 C 0.58799 0.87943 0.60445 0.0
C1308 C 0.59819 0.84782 0.62382 0.0
C1309 C 0.66484 0.11968 0.33911 0.0
C1310 C 0.68515 0.17284 0.34825 0.0
C1311 C 0.63781 0.08836 0.36983 0.0
C1312 C 0.62909 0.10859 0.4109 0.0
H1313 H 0.67064 0.10194 0.30812 0.0
H1314 H 0.62456 0.04788 0.36161 0.0
S1315 S 0.67651 0.24461 0.45256 0.0
N1316 N 0.69637 0.24396 0.40283 0.0
N1317 N 0.64427 0.18475 0.45968 0.0
C1318 C 0.64851 0.16131 0.42055 0.0
C1319 C 0.67673 0.19344 0.38948 0.0
C1320 C 0.89251 0.57589 0.38658 0.0
C1321 C 0.87747 0.61337 0.39918 0.0
C1322 C 0.92769 0.57569 0.40703 0.0
C1323 C 0.94921 0.61303 0.44074 0.0
H1324 H 0.87357 0.54378 0.36349 0.0
H1325 H 0.93423 0.54311 0.39938 0.0
S1326 S 0.92969 0.72518 0.48003 0.0
N1327 N 0.89225 0.69327 0.44279 0.0
N1328 N 0.95876 0.69289 0.4814 0.0
C1329 C 0.93917 0.6543 0.45002 0.0
C1330 C 0.90302 0.65443 0.42918 0.0
C1331 C 0.38553 0.89496 0.34763 0.0
C1332 C 0.33586 0.86231 0.35466 0.0
C1333 C 0.41612 0.91742 0.3803 0.0
C1334 C 0.39846 0.90868 0.42152 0.0
H1335 H 0.4017 0.90018 0.31611 0.0
H1336 H 0.4546 0.93885 0.37272 0.0
S1337 S 0.27007 0.83693 0.45837 0.0
N1338 N 0.2692 0.83008 0.40723 0.0
N1339 N 0.32725 0.87198 0.46875 0.0
C1340 C 0.34834 0.88058 0.4298 0.0
C1341 C 0.31684 0.85779 0.39634 0.0
C1342 C 0.22431 0.38318 0.35599 0.0
C1343 C 0.20007 0.33203 0.33741 0.0
C1344 C 0.19984 0.40702 0.38426 0.0
C1345 C 0.1496 0.38115 0.39524 0.0
H1346 H 0.26263 0.40532 0.34847 0.0
H1347 H 0.2206 0.44616 0.39754 0.0
S1348 S 0.0691 0.24566 0.35705 0.0
N1349 N 0.12278 0.25589 0.33444 0.0
N1350 N 0.07702 0.30014 0.38497 0.0
C1351 C 0.12511 0.32988 0.37681 0.0
C1352 C 0.15011 0.30562 0.34874 0.0
C1353 C 0.32162 0.13206 0.66777 0.0
C1354 C 0.34544 0.18375 0.68481 0.0
C1355 C 0.34683 0.1076 0.64189 0.0
C1356 C 0.39726 0.1334 0.63217 0.0
H1357 H 0.28295 0.11035 0.67396 0.0
H1358 H 0.32647 0.0681 0.62937 0.0
S1359 S 0.47704 0.26903 0.67017 0.0
N1360 N 0.42279 0.25925 0.69095 0.0
N1361 N 0.46971 0.21455 0.64259 0.0
C1362 C 0.42136 0.18513 0.64944 0.0
C1363 C 0.39569 0.20986 0.67554 0.0
C1364 C 0.90794 0.37453 0.68444 0.0
C1365 C 0.86184 0.33381 0.6759 0.0
C1366 C 0.93634 0.40769 0.65481 0.0
C1367 C 0.91971 0.40063 0.61558 0.0
H1368 H 0.92107 0.38232 0.71484 0.0
H1369 H 0.97011 0.44027 0.66343 0.0
S1370 S 0.80573 0.29617 0.57538 0.0
N1371 N 0.80393 0.28663 0.62341 0.0
N1372 N 0.8571 0.34743 0.56845 0.0
C1373 C 0.87535 0.35856 0.60603 0.0
C1374 C 0.84649 0.3256 0.63594 0.0
C1375 C 0.17515 0.62507 0.65554 0.0
C1376 C 0.20601 0.67752 0.65941 0.0
C1377 C 0.14876 0.59926 0.62046 0.0
C1378 C 0.15156 0.62535 0.58862 0.0
H1379 H 0.16901 0.6043 0.68086 0.0
H1380 H 0.12261 0.55974 0.6203 0.0
S1381 S 0.23263 0.76082 0.58065 0.0
N1382 N 0.24301 0.75302 0.6256 0.0
N1383 N 0.19142 0.70482 0.56067 0.0
C1384 C 0.18493 0.67683 0.59061 0.0
C1385 C 0.21247 0.70292 0.6259 0.0
loop_
_geom_bond_atom_site_label_1
_geom_bond_atom_site_label_2
_geom_bond_distance
_geom_bond_site_symmetry_2
_ccdc_geom_bond_type
C0 C2 1.422 . S
C0 C4 1.415 . S
C0 N6 1.369 . S
C1 C2 1.421 . S
C1 C3 1.417 . S
C1 C13 1.422 . S
C2 C0 1.422 . S
C2 C1 1.421 . S
C2 N12 1.359 . S
C3 C1 1.417 . S
C3 C5 1.329 . S
C3 H22 0.930 . S
C4 C0 1.415 . S
C4 C5 1.437 . S
C4 C8 1.413 . S
C5 C3 1.329 . S
C5 C4 1.437 . S
C5 H27 0.929 . S
N6 C0 1.369 . S
N6 C7 1.338 . S
N6 Gd11 2.622 . S
C7 N6 1.338 . S
C7 C9 1.378 . S
C7 H19 0.929 . S
C8 C4 1.413 . S
C8 C9 1.348 . S
C8 H24 0.931 . S
C9 C7 1.378 . S
C9 C8 1.348 . S
C9 H25 0.930 . S
Gd10 N30 2.622 . S
Gd10 N37 2.570 . S
Gd10 O44 2.353 . S
Gd10 O45 2.468 . S
Gd10 O46 2.427 . S
Gd10 O48 2.388 . S
Gd10 O49 2.386 . S
Gd10 O53 2.307 . S
Gd10 C63 2.805 . S
Gd11 N6 2.622 . S
Gd11 N12 2.570 . S
Gd11 O43 2.386 . S
Gd11 O47 2.307 . S
Gd11 O50 2.353 . S
Gd11 O51 2.468 . S
Gd11 O52 2.427 . S
Gd11 O54 2.388 . S
Gd11 C75 2.805 . S
N12 C2 1.359 . S
N12 Gd11 2.570 . S
N12 C14 1.343 . S
C13 C1 1.422 . S
C13 C15 1.321 . S
C13 H21 0.931 . S
C14 N12 1.343 . S
C14 C15 1.390 . S
C14 H16 0.931 . S
C15 C13 1.321 . S
C15 C14 1.390 . S
C15 H17 0.930 . S
H16 C14 0.931 . S
H17 C15 0.930 . S
H18 C41 0.931 . S
H19 C7 0.929 . S
H20 C42 0.930 . S
H21 C13 0.931 . S
H22 C3 0.930 . S
H23 C32 0.929 . S
H24 C8 0.931 . S
H25 C9 0.930 . S
H26 C64 0.930 . S
H27 C5 0.929 . S
H28 C33 0.931 1_565 S
H29 C34 0.930 . S
N30 Gd10 2.622 . S
N30 C31 1.369 . S
N30 C32 1.338 . S
C31 N30 1.369 . S
C31 C35 1.415 . S
C31 C38 1.422 . S
C32 H23 0.929 . S
C32 N30 1.338 . S
C32 C34 1.378 . S
C33 H28 0.931 1_545 S
C33 C34 1.348 . S
C33 C35 1.413 . S
C34 H29 0.930 . S
C34 C32 1.378 . S
C34 C33 1.348 . S
C35 C31 1.415 . S
C35 C33 1.413 . S
C35 C65 1.437 . S
H36 C65 0.929 . S
N37 Gd10 2.570 . S
N37 C38 1.359 . S
N37 C41 1.343 . S
C38 C31 1.422 . S
C38 N37 1.359 . S
C38 C40 1.421 . S
C39 C40 1.422 . S
C39 C42 1.321 . S
C39 H66 0.931 . S
C40 C38 1.421 . S
C40 C39 1.422 . S
C40 C64 1.417 . S
C41 H18 0.931 . S
C41 N37 1.343 . S
C41 C42 1.390 . S
C42 H20 0.930 . S
C42 C39 1.321 . S
C42 C41 1.390 . S
O43 Gd11 2.386 . S
O43 C55 1.265 . S
O44 Gd10 2.353 . S
O44 C55 1.242 . S
O45 Gd10 2.468 . S
O45 C63 1.263 . S
O46 Gd10 2.427 . S
O46 C63 1.252 . S
O47 Gd11 2.307 . S
O47 C56 1.261 . S
O48 Gd10 2.388 . S
O48 C56 1.252 . S
O49 Gd10 2.386 . S
O49 C67 1.265 . S
O50 Gd11 2.353 . S
O50 C67 1.242 . S
O51 Gd11 2.468 . S
O51 C75 1.263 . S
O52 Gd11 2.427 . S
O52 C75 1.252 . S
O53 Gd10 2.307 . S
O53 C68 1.261 . S
O54 Gd11 2.388 . S
O54 C68 1.252 . S
C55 O43 1.265 . S
C55 O44 1.242 . S
C56 O47 1.261 . S
C56 O48 1.252 . S
C57 C60 1.394 . S
C57 C62 1.370 . S
C57 C63 1.500 . S
C58 C61 1.383 . S
C58 C62 1.395 . S
C59 C60 1.396 . S
C59 C61 1.365 . S
C59 H76 0.929 1_455 S
C60 C57 1.394 . S
C60 C59 1.396 . S
C60 H77 0.930 . S
C61 C58 1.383 . S
C61 C59 1.365 . S
C61 H78 0.931 . S
C62 C57 1.370 . S
C62 C58 1.395 . S
C62 H79 0.930 . S
C63 Gd10 2.805 . S
C63 O45 1.263 . S
C63 O46 1.252 . S
C63 C57 1.500 . S
C64 H26 0.930 . S
C64 C40 1.417 . S
C64 C65 1.329 . S
C65 C35 1.437 . S
C65 H36 0.929 . S
C65 C64 1.329 . S
H66 C39 0.931 . S
C67 O49 1.265 . S
C67 O50 1.242 . S
C68 O53 1.261 . S
C68 O54 1.252 . S
C69 C72 1.394 . S
C69 C74 1.370 . S
C69 C75 1.500 . S
C70 C73 1.383 . S
C70 C74 1.395 . S
C71 C72 1.396 . S
C71 C73 1.365 . S
C71 H80 0.929 . S
C72 C69 1.394 . S
C72 C71 1.396 . S
C72 H81 0.930 . S
C73 C70 1.383 . S
C73 C71 1.365 . S
C73 H82 0.931 . S
C74 C69 1.370 . S
C74 C70 1.395 . S
C74 H83 0.930 . S
C75 Gd11 2.805 . S
C75 O51 1.263 . S
C75 O52 1.252 . S
C75 C69 1.500 . S
H76 C59 0.929 1_655 S
H77 C60 0.930 . S
H78 C61 0.931 . S
H79 C62 0.930 . S
H80 C71 0.929 . S
H81 C72 0.930 . S
H82 C73 0.931 . S
H83 C74 0.930 . S
C84 C86 1.422 . S
C84 C88 1.415 . S
C84 N90 1.369 . S
C85 C86 1.421 . S
C85 C87 1.417 . S
C85 C97 1.422 . S
C86 C84 1.422 . S
C86 C85 1.421 . S
C86 N96 1.359 . S
C87 C85 1.417 . S
C87 C89 1.329 . S
C87 H106 0.930 . S
C88 C84 1.415 . S
C88 C89 1.437 . S
C88 C92 1.413 . S
C89 C87 1.329 . S
C89 C88 1.437 . S
C89 H111 0.929 . S
N90 C84 1.369 . S
N90 C91 1.338 . S
N90 Gd95 2.622 . S
C91 N90 1.338 . S
C91 C93 1.378 . S
C91 H103 0.929 . S
C92 C88 1.413 . S
C92 C93 1.348 . S
C92 H108 0.931 . S
C93 C91 1.378 . S
C93 C92 1.348 . S
C93 H109 0.930 . S
Gd94 N114 2.622 . S
Gd94 N121 2.570 . S
Gd94 O128 2.353 . S
Gd94 O129 2.468 . S
Gd94 O130 2.427 . S
Gd94 O132 2.388 . S
Gd94 O133 2.386 . S
Gd94 O137 2.307 . S
Gd94 C147 2.805 . S
Gd95 N90 2.622 . S
Gd95 N96 2.570 . S
Gd95 O127 2.386 . S
Gd95 O131 2.307 . S
Gd95 O134 2.353 . S
Gd95 O135 2.468 . S
Gd95 O136 2.427 . S
Gd95 O138 2.388 . S
Gd95 C159 2.805 . S
N96 C86 1.359 . S
N96 Gd95 2.570 . S
N96 C98 1.343 . S
C97 C85 1.422 . S
C97 C99 1.321 . S
C97 H105 0.916 1_655 S
C98 N96 1.343 . S
C98 C99 1.390 . S
C98 H100 0.931 . S
C99 C97 1.321 . S
C99 C98 1.390 . S
C99 H101 0.930 . S
H100 C98 0.931 . S
H101 C99 0.930 . S
H102 C125 0.931 . S
H103 C91 0.929 . S
H104 C126 0.930 . S
H105 C97 0.916 1_455 S
H106 C87 0.930 . S
H107 C116 0.929 . S
H108 C92 0.931 . S
H109 C93 0.930 . S
H110 C148 0.930 . S
H111 C89 0.929 . S
H112 C117 0.931 . S
H113 C118 0.930 . S
N114 Gd94 2.622 . S
N114 C115 1.369 . S
N114 C116 1.338 . S
C115 N114 1.369 . S
C115 C119 1.415 . S
C115 C122 1.422 . S
C116 H107 0.929 . S
C116 N114 1.338 . S
C116 C118 1.378 . S
C117 H112 0.931 . S
C117 C118 1.348 . S
C117 C119 1.413 . S
C118 H113 0.930 . S
C118 C116 1.378 . S
C118 C117 1.348 . S
C119 C115 1.415 . S
C119 C117 1.413 . S
C119 C149 1.437 . S
H120 C149 0.929 . S
N121 Gd94 2.570 . S
N121 C122 1.359 . S
N121 C125 1.343 . S
C122 C115 1.422 . S
C122 N121 1.359 . S
C122 C124 1.421 . S
C123 C124 1.422 . S
C123 C126 1.321 . S
C123 H150 0.931 . S
C124 C122 1.421 . S
C124 C123 1.422 . S
C124 C148 1.417 . S
C125 H102 0.931 . S
C125 N121 1.343 . S
C125 C126 1.390 . S
C126 H104 0.930 . S
C126 C123 1.321 . S
C126 C125 1.390 . S
O127 Gd95 2.386 . S
O127 C139 1.265 . S
O128 Gd94 2.353 . S
O128 C139 1.242 . S
O129 Gd94 2.468 . S
O129 C147 1.263 . S
O130 Gd94 2.427 . S
O130 C147 1.252 . S
O131 Gd95 2.307 . S
O131 C140 1.261 . S
O132 Gd94 2.388 . S
O132 C140 1.252 . S
O133 Gd94 2.386 . S
O133 C151 1.265 . S
O134 Gd95 2.353 . S
O134 C151 1.242 . S
O135 Gd95 2.468 . S
O135 C159 1.263 . S
O136 Gd95 2.427 . S
O136 C159 1.252 . S
O137 Gd94 2.307 . S
O137 C152 1.261 . S
O138 Gd95 2.388 . S
O138 C152 1.252 . S
C139 O127 1.265 . S
C139 O128 1.242 . S
C140 O131 1.261 . S
C140 O132 1.252 . S
C141 C144 1.394 . S
C141 C146 1.370 . S
C141 C147 1.500 . S
C142 C145 1.383 . S
C142 C146 1.395 . S
C143 C144 1.396 . S
C143 C145 1.365 . S
C143 H160 0.929 . S
C144 C141 1.394 . S
C144 C143 1.396 . S
C144 H161 0.930 . S
C145 C142 1.383 . S
C145 C143 1.365 . S
C145 H162 0.931 . S
C146 C141 1.370 . S
C146 C142 1.395 . S
C146 H163 0.930 . S
C147 Gd94 2.805 . S
C147 O129 1.263 . S
C147 O130 1.252 . S
C147 C141 1.500 . S
C148 H110 0.930 . S
C148 C124 1.417 . S
C148 C149 1.329 . S
C149 C119 1.437 . S
C149 H120 0.929 . S
C149 C148 1.329 . S
H150 C123 0.931 . S
C151 O133 1.265 . S
C151 O134 1.242 . S
C152 O137 1.261 . S
C152 O138 1.252 . S
C153 C156 1.394 . S
C153 C158 1.370 . S
C153 C159 1.500 . S
C154 C157 1.383 . S
C154 C158 1.395 . S
C155 C156 1.396 . S
C155 C157 1.365 . S
C155 H164 0.929 . S
C156 C153 1.394 . S
C156 C155 1.396 . S
C156 H165 0.930 . S
C157 C154 1.383 . S
C157 C155 1.365 . S
C157 H166 0.931 . S
C158 C153 1.370 . S
C158 C154 1.395 . S
C158 H167 0.930 . S
C159 Gd95 2.805 . S
C159 O135 1.263 . S
C159 O136 1.252 . S
C159 C153 1.500 . S
H160 C143 0.929 . S
H161 C144 0.930 . S
H162 C145 0.931 . S
H163 C146 0.930 . S
H164 C155 0.929 . S
H165 C156 0.930 . S
H166 C157 0.931 . S
H167 C158 0.930 . S
C168 C170 1.422 . S
C168 C172 1.415 . S
C168 N174 1.369 . S
C169 C170 1.421 . S
C169 C171 1.417 . S
C169 C181 1.422 . S
C170 C168 1.422 . S
C170 C169 1.421 . S
C170 N180 1.359 . S
C171 C169 1.417 . S
C171 C173 1.329 . S
C171 H190 0.930 . S
C172 C168 1.415 . S
C172 C173 1.437 . S
C172 C176 1.413 . S
C173 C171 1.329 . S
C173 C172 1.437 . S
C173 H195 0.929 . S
N174 C168 1.369 . S
N174 C175 1.338 . S
N174 Gd179 2.622 . S
C175 N174 1.338 . S
C175 C177 1.378 . S
C175 H187 0.929 . S
C176 C172 1.413 . S
C176 C177 1.348 . S
C176 H192 0.931 . S
C177 C175 1.378 . S
C177 C176 1.348 . S
C177 H193 0.930 . S
Gd178 N198 2.622 . S
Gd178 N205 2.570 . S
Gd178 O212 2.353 . S
Gd178 O213 2.468 . S
Gd178 O214 2.427 . S
Gd178 O216 2.388 . S
Gd178 O217 2.386 . S
Gd178 O221 2.307 . S
Gd178 C231 2.805 . S
Gd179 N174 2.622 . S
Gd179 N180 2.570 . S
Gd179 O211 2.386 . S
Gd179 O215 2.307 . S
Gd179 O218 2.353 . S
Gd179 O219 2.468 . S
Gd179 O220 2.427 . S
Gd179 O222 2.388 . S
Gd179 C243 2.805 . S
N180 C170 1.359 . S
N180 Gd179 2.570 . S
N180 C182 1.343 . S
C181 C169 1.422 . S
C181 C183 1.321 . S
C181 H189 0.931 . S
C182 N180 1.343 . S
C182 C183 1.390 . S
C182 H184 0.931 . S
C183 C181 1.321 . S
C183 C182 1.390 . S
C183 H185 0.930 . S
H184 C182 0.931 . S
H185 C183 0.930 . S
H186 C209 0.931 . S
H187 C175 0.929 . S
H188 C210 0.930 . S
H189 C181 0.931 . S
H190 C171 0.930 . S
H191 C200 0.929 . S
H192 C176 0.931 . S
H193 C177 0.930 . S
H194 C232 0.930 . S
H195 C173 0.929 . S
H196 C201 0.931 . S
H197 C202 0.930 . S
N198 Gd178 2.622 . S
N198 C199 1.369 . S
N198 C200 1.338 . S
C199 N198 1.369 . S
C199 C203 1.415 . S
C199 C206 1.422 . S
C200 H191 0.929 . S
C200 N198 1.338 . S
C200 C202 1.378 . S
C201 H196 0.931 . S
C201 C202 1.348 . S
C201 C203 1.413 . S
C202 H197 0.930 . S
C202 C200 1.378 . S
C202 C201 1.348 . S
C203 C199 1.415 . S
C203 C201 1.413 . S
C203 C233 1.437 . S
H204 C233 0.929 . S
N205 Gd178 2.570 . S
N205 C206 1.359 . S
N205 C209 1.343 . S
C206 C199 1.422 . S
C206 N205 1.359 . S
C206 C208 1.421 . S
C207 C208 1.422 . S
C207 C210 1.321 . S
C207 H234 0.931 . S
C208 C206 1.421 . S
C208 C207 1.422 . S
C208 C232 1.417 . S
C209 H186 0.931 . S
C209 N205 1.343 . S
C209 C210 1.390 . S
C210 H188 0.930 . S
C210 C207 1.321 . S
C210 C209 1.390 . S
O211 Gd179 2.386 . S
O211 C223 1.265 . S
O212 Gd178 2.353 . S
O212 C223 1.242 . S
O213 Gd178 2.468 . S
O213 C231 1.263 . S
O214 Gd178 2.427 . S
O214 C231 1.252 . S
O215 Gd179 2.307 . S
O215 C224 1.261 . S
O216 Gd178 2.388 . S
O216 C224 1.252 . S
O217 Gd178 2.386 . S
O217 C235 1.265 . S
O218 Gd179 2.353 . S
O218 C235 1.242 . S
O219 Gd179 2.468 . S
O219 C243 1.263 . S
O220 Gd179 2.427 . S
O220 C243 1.252 . S
O221 Gd178 2.307 . S
O221 C236 1.261 . S
O222 Gd179 2.388 . S
O222 C236 1.252 . S
C223 O211 1.265 . S
C223 O212 1.242 . S
C224 O215 1.261 . S
C224 O216 1.252 . S
C225 C228 1.394 . S
C225 C230 1.370 . S
C225 C231 1.500 . S
C226 C229 1.383 . S
C226 C230 1.395 . S
C227 C228 1.396 . S
C227 C229 1.365 . S
C227 H244 0.929 . S
C228 C225 1.394 . S
C228 C227 1.396 . S
C228 H245 0.930 . S
C229 C226 1.383 . S
C229 C227 1.365 . S
C229 H246 0.931 . S
C230 C225 1.370 . S
C230 C226 1.395 . S
C230 H247 0.930 . S
C231 Gd178 2.805 . S
C231 O213 1.263 . S
C231 O214 1.252 . S
C231 C225 1.500 . S
C232 H194 0.930 . S
C232 C208 1.417 . S
C232 C233 1.329 . S
C233 C203 1.437 . S
C233 H204 0.929 . S
C233 C232 1.329 . S
H234 C207 0.931 . S
C235 O217 1.265 . S
C235 O218 1.242 . S
C236 O221 1.261 . S
C236 O222 1.252 . S
C237 C240 1.394 . S
C237 C242 1.370 . S
C237 C243 1.500 . S
C238 C241 1.383 . S
C238 C242 1.395 . S
C239 C240 1.396 . S
C239 C241 1.365 . S
C239 H248 0.929 1_565 S
C240 C237 1.394 . S
C240 C239 1.396 . S
C240 H249 0.930 . S
C241 C238 1.383 . S
C241 C239 1.365 . S
C241 H250 0.931 . S
C242 C237 1.370 . S
C242 C238 1.395 . S
C242 H251 0.930 . S
C243 Gd179 2.805 . S
C243 O219 1.263 . S
C243 O220 1.252 . S
C243 C237 1.500 . S
H244 C227 0.929 . S
H245 C228 0.930 . S
H246 C229 0.931 . S
H247 C230 0.930 . S
H248 C239 0.929 1_545 S
H249 C240 0.930 . S
H250 C241 0.931 . S
H251 C242 0.930 . S
C252 C254 1.422 . S
C252 C256 1.415 . S
C252 N258 1.369 . S
C253 C254 1.421 . S
C253 C255 1.417 . S
C253 C265 1.422 . S
C254 C252 1.422 . S
C254 C253 1.421 . S
C254 N264 1.359 . S
C255 C253 1.417 . S
C255 C257 1.329 . S
C255 H274 0.930 . S
C256 C252 1.415 . S
C256 C257 1.437 . S
C256 C260 1.413 . S
C257 C255 1.329 . S
C257 C256 1.437 . S
C257 H279 0.929 . S
N258 C252 1.369 . S
N258 C259 1.338 . S
N258 Gd263 2.622 . S
C259 N258 1.338 . S
C259 C261 1.378 . S
C259 H271 0.929 . S
C260 C256 1.413 . S
C260 C261 1.348 . S
C260 H276 0.931 . S
C261 C259 1.378 . S
C261 C260 1.348 . S
C261 H277 0.930 . S
Gd262 N282 2.622 . S
Gd262 N289 2.570 . S
Gd262 O296 2.353 . S
Gd262 O297 2.468 . S
Gd262 O298 2.427 . S
Gd262 O300 2.388 . S
Gd262 O301 2.386 . S
Gd262 O305 2.307 . S
Gd262 C315 2.805 . S
Gd263 N258 2.622 . S
Gd263 N264 2.570 . S
Gd263 O295 2.386 . S
Gd263 O299 2.307 . S
Gd263 O302 2.353 . S
Gd263 O303 2.468 . S
Gd263 O304 2.427 . S
Gd263 O306 2.388 . S
Gd263 C327 2.805 . S
N264 C254 1.359 . S
N264 Gd263 2.570 . S
N264 C266 1.343 . S
C265 C253 1.422 . S
C265 C267 1.321 . S
C265 H273 0.931 . S
C266 N264 1.343 . S
C266 C267 1.390 . S
C266 H268 0.931 . S
C267 C265 1.321 . S
C267 C266 1.390 . S
C267 H269 0.930 . S
H268 C266 0.931 . S
H269 C267 0.930 . S
H270 C293 0.931 . S
H271 C259 0.929 . S
H272 C294 0.930 . S
H273 C265 0.931 . S
H274 C255 0.930 . S
H275 C284 0.929 . S
H276 C260 0.931 . S
H277 C261 0.930 . S
H278 C316 0.930 . S
H279 C257 0.929 . S
H280 C285 0.931 . S
H281 C286 0.930 . S
N282 Gd262 2.622 . S
N282 C283 1.369 . S
N282 C284 1.338 . S
C283 N282 1.369 . S
C283 C287 1.415 . S
C283 C290 1.422 . S
C284 H275 0.929 . S
C284 N282 1.338 . S
C284 C286 1.378 . S
C285 H280 0.931 . S
C285 C286 1.348 . S
C285 C287 1.413 . S
C286 H281 0.930 . S
C286 C284 1.378 . S
C286 C285 1.348 . S
C287 C283 1.415 . S
C287 C285 1.413 . S
C287 C317 1.437 . S
H288 C317 0.929 . S
N289 Gd262 2.570 . S
N289 C290 1.359 . S
N289 C293 1.343 . S
C290 C283 1.422 . S
C290 N289 1.359 . S
C290 C292 1.421 . S
C291 C292 1.422 . S
C291 C294 1.321 . S
C291 H318 0.931 1_565 S
C292 C290 1.421 . S
C292 C291 1.422 . S
C292 C316 1.417 . S
C293 H270 0.931 . S
C293 N289 1.343 . S
C293 C294 1.390 . S
C294 H272 0.930 . S
C294 C291 1.321 . S
C294 C293 1.390 . S
O295 Gd263 2.386 . S
O295 C307 1.265 . S
O296 Gd262 2.353 . S
O296 C307 1.242 . S
O297 Gd262 2.468 . S
O297 C315 1.263 . S
O298 Gd262 2.427 . S
O298 C315 1.252 . S
O299 Gd263 2.307 . S
O299 C308 1.261 . S
O300 Gd262 2.388 . S
O300 C308 1.252 . S
O301 Gd262 2.386 . S
O301 C319 1.265 . S
O302 Gd263 2.353 . S
O302 C319 1.242 . S
O303 Gd263 2.468 . S
O303 C327 1.263 . S
O304 Gd263 2.427 . S
O304 C327 1.252 . S
O305 Gd262 2.307 . S
O305 C320 1.261 . S
O306 Gd263 2.388 . S
O306 C320 1.252 . S
C307 O295 1.265 . S
C307 O296 1.242 . S
C308 O299 1.261 . S
C308 O300 1.252 . S
C309 C312 1.394 . S
C309 C314 1.370 . S
C309 C315 1.500 . S
C310 C313 1.383 . S
C310 C314 1.395 . S
C311 C312 1.396 . S
C311 C313 1.365 . S
C311 H328 0.929 . S
C312 C309 1.394 . S
C312 C311 1.396 . S
C312 H329 0.930 . S
C313 C310 1.383 . S
C313 C311 1.365 . S
C313 H330 0.931 . S
C314 C309 1.370 . S
C314 C310 1.395 . S
C314 H331 0.930 . S
C315 Gd262 2.805 . S
C315 O297 1.263 . S
C315 O298 1.252 . S
C315 C309 1.500 . S
C316 H278 0.930 . S
C316 C292 1.417 . S
C316 C317 1.329 . S
C317 C287 1.437 . S
C317 H288 0.929 . S
C317 C316 1.329 . S
H318 C291 0.931 1_545 S
C319 O301 1.265 . S
C319 O302 1.242 . S
C320 O305 1.261 . S
C320 O306 1.252 . S
C321 C324 1.394 . S
C321 C326 1.370 . S
C321 C327 1.500 . S
C322 C325 1.383 . S
C322 C326 1.395 . S
C323 C324 1.396 . S
C323 C325 1.365 . S
C323 H332 0.929 . S
C324 C321 1.394 . S
C324 C323 1.396 . S
C324 H333 0.930 . S
C325 C322 1.383 . S
C325 C323 1.365 . S
C325 H334 0.931 . S
C326 C321 1.370 . S
C326 C322 1.395 . S
C326 H335 0.930 . S
C327 Gd263 2.805 . S
C327 O303 1.263 . S
C327 O304 1.252 . S
C327 C321 1.500 . S
H328 C311 0.929 . S
H329 C312 0.930 . S
H330 C313 0.931 . S
H331 C314 0.930 . S
H332 C323 0.929 . S
H333 C324 0.930 . S
H334 C325 0.931 . S
H335 C326 0.930 . S
C336 C338 1.422 . S
C336 C340 1.415 . S
C336 N342 1.369 . S
C337 C338 1.421 . S
C337 C339 1.417 . S
C337 C349 1.422 . S
C338 C336 1.422 . S
C338 C337 1.421 . S
C338 N348 1.359 . S
C339 C337 1.417 . S
C339 C341 1.329 . S
C339 H358 0.930 . S
C340 C336 1.415 . S
C340 C341 1.437 . S
C340 C344 1.413 . S
C341 C339 1.329 . S
C341 C340 1.437 . S
C341 H363 0.929 . S
N342 C336 1.369 . S
N342 C343 1.338 . S
N342 Gd347 2.622 . S
C343 N342 1.338 . S
C343 C345 1.378 . S
C343 H355 0.929 . S
C344 C340 1.413 . S
C344 C345 1.348 . S
C344 H360 0.931 . S
C345 C343 1.378 . S
C345 C344 1.348 . S
C345 H361 0.930 . S
Gd346 N366 2.622 . S
Gd346 N373 2.570 . S
Gd346 O380 2.353 . S
Gd346 O381 2.468 . S
Gd346 O382 2.427 . S
Gd346 O384 2.388 . S
Gd346 O385 2.386 . S
Gd346 O389 2.307 . S
Gd346 C399 2.805 . S
Gd347 N342 2.622 . S
Gd347 N348 2.570 . S
Gd347 O379 2.386 . S
Gd347 O383 2.307 . S
Gd347 O386 2.353 . S
Gd347 O387 2.468 . S
Gd347 O388 2.427 . S
Gd347 O390 2.388 . S
Gd347 C411 2.805 . S
N348 C338 1.359 . S
N348 Gd347 2.570 . S
N348 C350 1.343 . S
C349 C337 1.422 . S
C349 C351 1.321 . S
C349 H357 0.931 . S
C350 N348 1.343 . S
C350 C351 1.390 . S
C350 H352 0.931 . S
C351 C349 1.321 . S
C351 C350 1.390 . S
C351 H353 0.930 . S
H352 C350 0.931 . S
H353 C351 0.930 . S
H354 C377 0.931 . S
H355 C343 0.929 . S
H356 C378 0.930 . S
H357 C349 0.931 . S
H358 C339 0.930 . S
H359 C368 0.929 . S
H360 C344 0.931 . S
H361 C345 0.930 . S
H362 C400 0.930 . S
H363 C341 0.929 . S
H364 C369 0.931 . S
H365 C370 0.930 . S
N366 Gd346 2.622 . S
N366 C367 1.369 . S
N366 C368 1.338 . S
C367 N366 1.369 . S
C367 C371 1.415 . S
C367 C374 1.422 . S
C368 H359 0.929 . S
C368 N366 1.338 . S
C368 C370 1.378 . S
C369 H364 0.931 . S
C369 C370 1.348 . S
C369 C371 1.413 . S
C370 H365 0.930 . S
C370 C368 1.378 . S
C370 C369 1.348 . S
C371 C367 1.415 . S
C371 C369 1.413 . S
C371 C401 1.437 . S
H372 C401 0.929 . S
N373 Gd346 2.570 . S
N373 C374 1.359 . S
N373 C377 1.343 . S
C374 C367 1.422 . S
C374 N373 1.359 . S
C374 C376 1.421 . S
C375 C376 1.422 . S
C375 C378 1.321 . S
C375 H402 0.931 . S
C376 C374 1.421 . S
C376 C375 1.422 . S
C376 C400 1.417 . S
C377 H354 0.931 . S
C377 N373 1.343 . S
C377 C378 1.390 . S
C378 H356 0.930 . S
C378 C375 1.321 . S
C378 C377 1.390 . S
O379 Gd347 2.386 . S
O379 C391 1.265 . S
O380 Gd346 2.353 . S
O380 C391 1.242 . S
O381 Gd346 2.468 . S
O381 C399 1.263 . S
O382 Gd346 2.427 . S
O382 C399 1.252 . S
O383 Gd347 2.307 . S
O383 C392 1.261 . S
O384 Gd346 2.388 . S
O384 C392 1.252 . S
O385 Gd346 2.386 . S
O385 C403 1.265 . S
O386 Gd347 2.353 . S
O386 C403 1.242 . S
O387 Gd347 2.468 . S
O387 C411 1.263 . S
O388 Gd347 2.427 . S
O388 C411 1.252 . S
O389 Gd346 2.307 . S
O389 C404 1.261 . S
O390 Gd347 2.388 . S
O390 C404 1.252 . S
C391 O379 1.265 . S
C391 O380 1.242 . S
C392 O383 1.261 . S
C392 O384 1.252 . S
C393 C396 1.394 . S
C393 C398 1.370 . S
C393 C399 1.500 . S
C394 C397 1.383 . S
C394 C398 1.395 . S
C395 C396 1.396 . S
C395 C397 1.365 . S
C395 H412 0.929 . S
C396 C393 1.394 . S
C396 C395 1.396 . S
C396 H413 0.930 . S
C397 C394 1.383 . S
C397 C395 1.365 . S
C397 H414 0.931 . S
C398 C393 1.370 . S
C398 C394 1.395 . S
C398 H415 0.930 . S
C399 Gd346 2.805 . S
C399 O381 1.263 . S
C399 O382 1.252 . S
C399 C393 1.500 . S
C400 H362 0.930 . S
C400 C376 1.417 . S
C400 C401 1.329 . S
C401 C371 1.437 . S
C401 H372 0.929 . S
C401 C400 1.329 . S
H402 C375 0.931 . S
C403 O385 1.265 . S
C403 O386 1.242 . S
C404 O389 1.261 . S
C404 O390 1.252 . S
C405 C408 1.394 . S
C405 C410 1.370 . S
C405 C411 1.500 . S
C406 C409 1.383 . S
C406 C410 1.395 . S
C407 C408 1.396 . S
C407 C409 1.365 . S
C407 H416 0.929 . S
C408 C405 1.394 . S
C408 C407 1.396 . S
C408 H417 0.930 . S
C409 C406 1.383 . S
C409 C407 1.365 . S
C409 H418 0.931 . S
C410 C405 1.370 . S
C410 C406 1.395 . S
C410 H419 0.930 . S
C411 Gd347 2.805 . S
C411 O387 1.263 . S
C411 O388 1.252 . S
C411 C405 1.500 . S
H412 C395 0.929 . S
H413 C396 0.930 . S
H414 C397 0.931 . S
H415 C398 0.930 . S
H416 C407 0.929 . S
H417 C408 0.930 . S
H418 C409 0.931 . S
H419 C410 0.930 . S
C420 C422 1.422 . S
C420 C424 1.415 . S
C420 N426 1.369 . S
C421 C422 1.421 . S
C421 C423 1.417 . S
C421 C433 1.422 . S
C422 C420 1.422 . S
C422 C421 1.421 . S
C422 N432 1.359 . S
C423 C421 1.417 . S
C423 C425 1.329 . S
C423 H442 0.930 . S
C424 C420 1.415 . S
C424 C425 1.437 . S
C424 C428 1.413 . S
C425 C423 1.329 . S
C425 C424 1.437 . S
C425 H447 0.929 . S
N426 C420 1.369 . S
N426 C427 1.338 . S
N426 Gd431 2.622 . S
C427 N426 1.338 . S
C427 C429 1.378 . S
C427 H439 0.929 . S
C428 C424 1.413 . S
C428 C429 1.348 . S
C428 H444 0.931 . S
C429 C427 1.378 . S
C429 C428 1.348 . S
C429 H445 0.930 . S
Gd430 N450 2.622 . S
Gd430 N457 2.570 . S
Gd430 O464 2.353 . S
Gd430 O465 2.468 . S
Gd430 O466 2.427 . S
Gd430 O468 2.388 . S
Gd430 O469 2.386 . S
Gd430 O473 2.307 . S
Gd430 C483 2.805 . S
Gd431 N426 2.622 . S
Gd431 N432 2.570 . S
Gd431 O463 2.386 . S
Gd431 O467 2.307 . S
Gd431 O470 2.353 . S
Gd431 O471 2.468 . S
Gd431 O472 2.427 . S
Gd431 O474 2.388 . S
Gd431 C495 2.805 . S
N432 C422 1.359 . S
N432 Gd431 2.570 . S
N432 C434 1.343 . S
C433 C421 1.422 . S
C433 C435 1.321 . S
C433 H441 0.931 . S
C434 N432 1.343 . S
C434 C435 1.390 . S
C434 H436 0.931 . S
C435 C433 1.321 . S
C435 C434 1.390 . S
C435 H437 0.930 . S
H436 C434 0.931 . S
H437 C435 0.930 . S
H438 C461 0.931 . S
H439 C427 0.929 . S
H440 C462 0.930 . S
H441 C433 0.931 . S
H442 C423 0.930 . S
H443 C452 0.929 . S
H444 C428 0.931 . S
H445 C429 0.930 . S
H446 C484 0.930 . S
H447 C425 0.929 . S
H448 C453 0.931 . S
H449 C454 0.930 . S
N450 Gd430 2.622 . S
N450 C451 1.369 . S
N450 C452 1.338 . S
C451 N450 1.369 . S
C451 C455 1.415 . S
C451 C458 1.422 . S
C452 H443 0.929 . S
C452 N450 1.338 . S
C452 C454 1.378 . S
C453 H448 0.931 . S
C453 C454 1.348 . S
C453 C455 1.413 . S
C454 H449 0.930 . S
C454 C452 1.378 . S
C454 C453 1.348 . S
C455 C451 1.415 . S
C455 C453 1.413 . S
C455 C485 1.437 . S
H456 C485 0.929 . S
N457 Gd430 2.570 . S
N457 C458 1.359 . S
N457 C461 1.343 . S
C458 C451 1.422 . S
C458 N457 1.359 . S
C458 C460 1.421 . S
C459 C460 1.422 . S
C459 C462 1.321 . S
C459 H486 0.931 . S
C460 C458 1.421 . S
C460 C459 1.422 . S
C460 C484 1.417 . S
C461 H438 0.931 . S
C461 N457 1.343 . S
C461 C462 1.390 . S
C462 H440 0.930 . S
C462 C459 1.321 . S
C462 C461 1.390 . S
O463 Gd431 2.386 . S
O463 C475 1.265 . S
O464 Gd430 2.353 . S
O464 C475 1.242 . S
O465 Gd430 2.468 . S
O465 C483 1.263 . S
O466 Gd430 2.427 . S
O466 C483 1.252 . S
O467 Gd431 2.307 . S
O467 C476 1.261 . S
O468 Gd430 2.388 . S
O468 C476 1.252 . S
O469 Gd430 2.386 . S
O469 C487 1.265 . S
O470 Gd431 2.353 . S
O470 C487 1.242 . S
O471 Gd431 2.468 . S
O471 C495 1.263 . S
O472 Gd431 2.427 . S
O472 C495 1.252 . S
O473 Gd430 2.307 . S
O473 C488 1.261 . S
O474 Gd431 2.388 . S
O474 C488 1.252 . S
C475 O463 1.265 . S
C475 O464 1.242 . S
C476 O467 1.261 . S
C476 O468 1.252 . S
C477 C480 1.394 . S
C477 C482 1.370 . S
C477 C483 1.500 . S
C478 C481 1.383 . S
C478 C482 1.395 . S
C479 C480 1.396 . S
C479 C481 1.365 . S
C479 H496 0.929 1_545 S
C480 C477 1.394 . S
C480 C479 1.396 . S
C480 H497 0.930 . S
C481 C478 1.383 . S
C481 C479 1.365 . S
C481 H498 0.931 . S
C482 C477 1.370 . S
C482 C478 1.395 . S
C482 H499 0.930 . S
C483 Gd430 2.805 . S
C483 O465 1.263 . S
C483 O466 1.252 . S
C483 C477 1.500 . S
C484 H446 0.930 . S
C484 C460 1.417 . S
C484 C485 1.329 . S
C485 C455 1.437 . S
C485 H456 0.929 . S
C485 C484 1.329 . S
H486 C459 0.931 . S
C487 O469 1.265 . S
C487 O470 1.242 . S
C488 O473 1.261 . S
C488 O474 1.252 . S
C489 C492 1.394 . S
C489 C494 1.370 . S
C489 C495 1.500 . S
C490 C493 1.383 . S
C490 C494 1.395 . S
C491 C492 1.396 . S
C491 C493 1.365 . S
C491 H500 0.929 . S
C492 C489 1.394 . S
C492 C491 1.396 . S
C492 H501 0.930 . S
C493 C490 1.383 . S
C493 C491 1.365 . S
C493 H502 0.931 . S
C494 C489 1.370 . S
C494 C490 1.395 . S
C494 H503 0.930 . S
C495 Gd431 2.805 . S
C495 O471 1.263 . S
C495 O472 1.252 . S
C495 C489 1.500 . S
H496 C479 0.929 1_565 S
H497 C480 0.930 . S
H498 C481 0.931 . S
H499 C482 0.930 . S
H500 C491 0.929 . S
H501 C492 0.930 . S
H502 C493 0.931 . S
H503 C494 0.930 . S
C504 C506 1.422 . S
C504 C508 1.415 . S
C504 N510 1.369 . S
C505 C506 1.421 . S
C505 C507 1.417 . S
C505 C517 1.422 . S
C506 C504 1.422 . S
C506 C505 1.421 . S
C506 N516 1.359 . S
C507 C505 1.417 . S
C507 C509 1.329 . S
C507 H526 0.930 . S
C508 C504 1.415 . S
C508 C509 1.437 . S
C508 C512 1.413 . S
C509 C507 1.329 . S
C509 C508 1.437 . S
C509 H531 0.929 . S
N510 C504 1.369 . S
N510 C511 1.338 . S
N510 Gd515 2.622 . S
C511 N510 1.338 . S
C511 C513 1.378 . S
C511 H523 0.929 . S
C512 C508 1.413 . S
C512 C513 1.348 . S
C512 H528 0.931 . S
C513 C511 1.378 . S
C513 C512 1.348 . S
C513 H529 0.930 . S
Gd514 N534 2.622 . S
Gd514 N541 2.570 . S
Gd514 O548 2.353 . S
Gd514 O549 2.468 . S
Gd514 O550 2.427 . S
Gd514 O552 2.388 . S
Gd514 O553 2.386 . S
Gd514 O557 2.307 . S
Gd514 C567 2.805 . S
Gd515 N510 2.622 . S
Gd515 N516 2.570 . S
Gd515 O547 2.386 . S
Gd515 O551 2.307 . S
Gd515 O554 2.353 . S
Gd515 O555 2.468 . S
Gd515 O556 2.427 . S
Gd515 O558 2.388 . S
Gd515 C579 2.805 . S
N516 C506 1.359 . S
N516 Gd515 2.570 . S
N516 C518 1.343 . S
C517 C505 1.422 . S
C517 C519 1.321 . S
C517 H525 0.931 1_545 S
C518 N516 1.343 . S
C518 C519 1.390 . S
C518 H520 0.931 . S
C519 C517 1.321 . S
C519 C518 1.390 . S
C519 H521 0.930 . S
H520 C518 0.931 . S
H521 C519 0.930 . S
H522 C545 0.931 . S
H523 C511 0.929 . S
H524 C546 0.930 . S
H525 C517 0.931 1_565 S
H526 C507 0.930 . S
H527 C536 0.929 . S
H528 C512 0.931 . S
H529 C513 0.930 . S
H530 C568 0.930 . S
H531 C509 0.929 . S
H532 C537 0.931 . S
H533 C538 0.930 . S
N534 Gd514 2.622 . S
N534 C535 1.369 . S
N534 C536 1.338 . S
C535 N534 1.369 . S
C535 C539 1.415 . S
C535 C542 1.422 . S
C536 H527 0.929 . S
C536 N534 1.338 . S
C536 C538 1.378 . S
C537 H532 0.931 . S
C537 C538 1.348 . S
C537 C539 1.413 . S
C538 H533 0.930 . S
C538 C536 1.378 . S
C538 C537 1.348 . S
C539 C535 1.415 . S
C539 C537 1.413 . S
C539 C569 1.437 . S
H540 C569 0.929 . S
N541 Gd514 2.570 . S
N541 C542 1.359 . S
N541 C545 1.343 . S
C542 C535 1.422 . S
C542 N541 1.359 . S
C542 C544 1.421 . S
C543 C544 1.422 . S
C543 C546 1.321 . S
C543 H570 0.931 . S
C544 C542 1.421 . S
C544 C543 1.422 . S
C544 C568 1.417 . S
C545 H522 0.931 . S
C545 N541 1.343 . S
C545 C546 1.390 . S
C546 H524 0.930 . S
C546 C543 1.321 . S
C546 C545 1.390 . S
O547 Gd515 2.386 . S
O547 C559 1.265 . S
O548 Gd514 2.353 . S
O548 C559 1.242 . S
O549 Gd514 2.468 . S
O549 C567 1.263 . S
O550 Gd514 2.427 . S
O550 C567 1.252 . S
O551 Gd515 2.307 . S
O551 C560 1.261 . S
O552 Gd514 2.388 . S
O552 C560 1.252 . S
O553 Gd514 2.386 . S
O553 C571 1.265 . S
O554 Gd515 2.353 . S
O554 C571 1.242 . S
O555 Gd515 2.468 . S
O555 C579 1.263 . S
O556 Gd515 2.427 . S
O556 C579 1.252 . S
O557 Gd514 2.307 . S
O557 C572 1.261 . S
O558 Gd515 2.388 . S
O558 C572 1.252 . S
C559 O547 1.265 . S
C559 O548 1.242 . S
C560 O551 1.261 . S
C560 O552 1.252 . S
C561 C564 1.394 . S
C561 C566 1.370 . S
C561 C567 1.500 . S
C562 C565 1.383 . S
C562 C566 1.395 . S
C563 C564 1.396 . S
C563 C565 1.365 . S
C563 H580 0.929 . S
C564 C561 1.394 . S
C564 C563 1.396 . S
C564 H581 0.930 . S
C565 C562 1.383 . S
C565 C563 1.365 . S
C565 H582 0.931 . S
C566 C561 1.370 . S
C566 C562 1.395 . S
C566 H583 0.930 . S
C567 Gd514 2.805 . S
C567 O549 1.263 . S
C567 O550 1.252 . S
C567 C561 1.500 . S
C568 H530 0.930 . S
C568 C544 1.417 . S
C568 C569 1.329 . S
C569 C539 1.437 . S
C569 H540 0.929 . S
C569 C568 1.329 . S
H570 C543 0.931 . S
C571 O553 1.265 . S
C571 O554 1.242 . S
C572 O557 1.261 . S
C572 O558 1.252 . S
C573 C576 1.394 . S
C573 C578 1.370 . S
C573 C579 1.500 . S
C574 C577 1.383 . S
C574 C578 1.395 . S
C575 C576 1.396 . S
C575 C577 1.365 . S
C575 H584 0.929 . S
C576 C573 1.394 . S
C576 C575 1.396 . S
C576 H585 0.930 . S
C577 C574 1.383 . S
C577 C575 1.365 . S
C577 H586 0.931 . S
C578 C573 1.370 . S
C578 C574 1.395 . S
C578 H587 0.930 . S
C579 Gd515 2.805 . S
C579 O555 1.263 . S
C579 O556 1.252 . S
C579 C573 1.500 . S
H580 C563 0.929 . S
H581 C564 0.930 . S
H582 C565 0.931 . S
H583 C566 0.930 . S
H584 C575 0.929 . S
H585 C576 0.930 . S
H586 C577 0.931 . S
H587 C578 0.930 . S
C588 C590 1.422 . S
C588 C592 1.415 . S
C588 N594 1.369 . S
C589 C590 1.421 . S
C589 C591 1.417 . S
C589 C601 1.422 . S
C590 C588 1.422 . S
C590 C589 1.421 . S
C590 N600 1.359 . S
C591 C589 1.417 . S
C591 C593 1.329 . S
C591 H610 0.930 . S
C592 C588 1.415 . S
C592 C593 1.437 . S
C592 C596 1.413 . S
C593 C591 1.329 . S
C593 C592 1.437 . S
C593 H615 0.929 . S
N594 C588 1.369 . S
N594 C595 1.338 . S
N594 Gd599 2.622 . S
C595 N594 1.338 . S
C595 C597 1.378 . S
C595 H607 0.929 . S
C596 C592 1.413 . S
C596 C597 1.348 . S
C596 H612 0.931 1_565 S
C597 C595 1.378 . S
C597 C596 1.348 . S
C597 H613 0.930 . S
Gd598 N618 2.622 . S
Gd598 N625 2.570 . S
Gd598 O632 2.353 . S
Gd598 O633 2.468 . S
Gd598 O634 2.427 . S
Gd598 O636 2.388 . S
Gd598 O637 2.386 . S
Gd598 O641 2.307 . S
Gd598 C651 2.805 . S
Gd599 N594 2.622 . S
Gd599 N600 2.570 . S
Gd599 O631 2.386 . S
Gd599 O635 2.307 . S
Gd599 O638 2.353 . S
Gd599 O639 2.468 . S
Gd599 O640 2.427 . S
Gd599 O642 2.388 . S
Gd599 C663 2.805 . S
N600 C590 1.359 . S
N600 Gd599 2.570 . S
N600 C602 1.343 . S
C601 C589 1.422 . S
C601 C603 1.321 . S
C601 H609 0.931 . S
C602 N600 1.343 . S
C602 C603 1.390 . S
C602 H604 0.931 . S
C603 C601 1.321 . S
C603 C602 1.390 . S
C603 H605 0.930 . S
H604 C602 0.931 . S
H605 C603 0.930 . S
H606 C629 0.931 . S
H607 C595 0.929 . S
H608 C630 0.930 . S
H609 C601 0.931 . S
H610 C591 0.930 . S
H611 C620 0.929 . S
H612 C596 0.931 1_545 S
H613 C597 0.930 . S
H614 C652 0.930 . S
H615 C593 0.929 . S
H616 C621 0.931 . S
H617 C622 0.930 . S
N618 Gd598 2.622 . S
N618 C619 1.369 . S
N618 C620 1.338 . S
C619 N618 1.369 . S
C619 C623 1.415 . S
C619 C626 1.422 . S
C620 H611 0.929 . S
C620 N618 1.338 . S
C620 C622 1.378 . S
C621 H616 0.931 . S
C621 C622 1.348 . S
C621 C623 1.413 . S
C622 H617 0.930 . S
C622 C620 1.378 . S
C622 C621 1.348 . S
C623 C619 1.415 . S
C623 C621 1.413 . S
C623 C653 1.437 . S
H624 C653 0.929 . S
N625 Gd598 2.570 . S
N625 C626 1.359 . S
N625 C629 1.343 . S
C626 C619 1.422 . S
C626 N625 1.359 . S
C626 C628 1.421 . S
C627 C628 1.422 . S
C627 C630 1.321 . S
C627 H654 0.931 . S
C628 C626 1.421 . S
C628 C627 1.422 . S
C628 C652 1.417 . S
C629 H606 0.931 . S
C629 N625 1.343 . S
C629 C630 1.390 . S
C630 H608 0.930 . S
C630 C627 1.321 . S
C630 C629 1.390 . S
O631 Gd599 2.386 . S
O631 C643 1.265 . S
O632 Gd598 2.353 . S
O632 C643 1.242 . S
O633 Gd598 2.468 . S
O633 C651 1.263 . S
O634 Gd598 2.427 . S
O634 C651 1.252 . S
O635 Gd599 2.307 . S
O635 C644 1.261 . S
O636 Gd598 2.388 . S
O636 C644 1.252 . S
O637 Gd598 2.386 . S
O637 C655 1.265 . S
O638 Gd599 2.353 . S
O638 C655 1.242 . S
O639 Gd599 2.468 . S
O639 C663 1.263 . S
O640 Gd599 2.427 . S
O640 C663 1.252 . S
O641 Gd598 2.307 . S
O641 C656 1.261 . S
O642 Gd599 2.388 . S
O642 C656 1.252 . S
C643 O631 1.265 . S
C643 O632 1.242 . S
C644 O635 1.261 . S
C644 O636 1.252 . S
C645 C648 1.394 . S
C645 C650 1.370 . S
C645 C651 1.500 . S
C646 C649 1.383 . S
C646 C650 1.395 . S
C647 C648 1.396 . S
C647 C649 1.365 . S
C647 H664 0.929 . S
C648 C645 1.394 . S
C648 C647 1.396 . S
C648 H665 0.930 . S
C649 C646 1.383 . S
C649 C647 1.365 . S
C649 H666 0.931 . S
C650 C645 1.370 . S
C650 C646 1.395 . S
C650 H667 0.930 . S
C651 Gd598 2.805 . S
C651 O633 1.263 . S
C651 O634 1.252 . S
C651 C645 1.500 . S
C652 H614 0.930 . S
C652 C628 1.417 . S
C652 C653 1.329 . S
C653 C623 1.437 . S
C653 H624 0.929 . S
C653 C652 1.329 . S
H654 C627 0.931 . S
C655 O637 1.265 . S
C655 O638 1.242 . S
C656 O641 1.261 . S
C656 O642 1.252 . S
C657 C660 1.394 . S
C657 C662 1.370 . S
C657 C663 1.500 . S
C658 C661 1.383 . S
C658 C662 1.395 . S
C659 C660 1.396 . S
C659 C661 1.365 . S
C659 H668 0.929 1_655 S
C660 C657 1.394 . S
C660 C659 1.396 . S
C660 H669 0.930 . S
C661 C658 1.383 . S
C661 C659 1.365 . S
C661 H670 0.931 . S
C662 C657 1.370 . S
C662 C658 1.395 . S
C662 H671 0.930 . S
C663 Gd599 2.805 . S
C663 O639 1.263 . S
C663 O640 1.252 . S
C663 C657 1.500 . S
H664 C647 0.929 . S
H665 C648 0.930 . S
H666 C649 0.931 . S
H667 C650 0.930 . S
H668 C659 0.929 1_455 S
H669 C660 0.930 . S
H670 C661 0.931 . S
H671 C662 0.930 . S
C672 O684 1.241 . S
C672 O685 1.280 . S
C673 O686 1.277 . S
C673 O687 1.245 . S
C674 O698 1.247 . S
C674 O700 1.289 . S
Mg675 O676 1.926 1_455 S
Mg675 O685 1.984 1_455 S
Mg675 O687 1.988 1_455 S
Mg675 O688 2.061 . S
O676 Mg675 1.926 1_655 S
O676 Mg677 1.986 1_545 S
O676 Mg678 1.923 1_655 S
Mg677 O676 1.986 1_565 S
Mg677 O684 2.042 1_565 S
Mg677 O686 2.041 1_565 S
Mg677 O692 2.038 . S
Mg677 O700 2.238 . S
Mg678 O676 1.923 1_455 S
Mg678 O679 1.910 1_545 S
Mg678 O689 2.107 . S
Mg678 O691 2.075 1_445 S
Mg678 O700 2.106 1_445 S
Mg678 O701 2.083 . S
O679 Mg678 1.910 1_565 S
O679 Mg680 1.924 . S
O679 Mg681 1.986 1_565 S
Mg680 O679 1.924 . S
Mg680 O694 1.999 . S
Mg680 O697 1.997 . S
Mg680 O698 2.043 1_455 S
Mg681 O679 1.986 1_545 S
Mg681 O689 2.238 . S
Mg681 O693 2.042 1_545 S
Mg681 O695 2.041 1_545 S
Mg681 O702 2.038 . S
C682 O688 1.247 . S
C682 O689 1.289 . S
C683 O701 1.245 . S
C683 O702 1.274 . S
O684 C672 1.241 . S
O684 Mg677 2.042 1_545 S
O685 C672 1.280 . S
O685 Mg675 1.984 1_655 S
O686 C673 1.277 . S
O686 Mg677 2.041 1_545 S
O687 C673 1.245 . S
O687 Mg675 1.988 1_655 S
O688 Mg675 2.061 . S
O688 C682 1.247 . S
O689 Mg678 2.107 . S
O689 Mg681 2.238 . S
O689 C682 1.289 . S
C690 O691 1.245 . S
C690 O692 1.274 . S
O691 Mg678 2.075 1_665 S
O691 C690 1.245 . S
O692 Mg677 2.038 . S
O692 C690 1.274 . S
O693 Mg681 2.042 1_565 S
O693 C696 1.241 . S
O694 Mg680 1.999 . S
O694 C696 1.280 . S
O695 Mg681 2.041 1_565 S
O695 C699 1.277 . S
C696 O693 1.241 . S
C696 O694 1.280 . S
O697 Mg680 1.997 . S
O697 C699 1.245 . S
O698 C674 1.247 . S
O698 Mg680 2.043 1_655 S
C699 O695 1.277 . S
C699 O697 1.245 . S
O700 C674 1.289 . S
O700 Mg677 2.238 . S
O700 Mg678 2.106 1_665 S
O701 Mg678 2.083 . S
O701 C683 1.245 . S
O702 Mg681 2.038 . S
O702 C683 1.274 . S
C703 O715 1.241 . S
C703 O716 1.280 . S
C704 O717 1.277 . S
C704 O718 1.245 . S
C705 O729 1.247 . S
C705 O731 1.289 . S
Mg706 O707 1.926 . S
Mg706 O716 1.984 . S
Mg706 O718 1.988 1_554 S
Mg706 O719 2.061 . S
O707 Mg706 1.926 . S
O707 Mg708 1.986 1_545 S
O707 Mg709 1.928 . S
Mg708 O707 1.986 1_565 S
Mg708 O715 2.042 1_565 S
Mg708 O717 2.041 1_564 S
Mg708 O723 2.038 . S
Mg708 O731 2.238 1_554 S
Mg709 O707 1.928 . S
Mg709 O710 1.906 1_544 S
Mg709 O720 2.118 . S
Mg709 O722 2.090 1_545 S
Mg709 O731 2.095 1_544 S
Mg709 O732 2.067 1_554 S
O710 Mg709 1.906 1_566 S
O710 Mg711 1.926 . S
O710 Mg712 1.986 1_565 S
Mg711 O710 1.926 . S
Mg711 O725 1.984 . S
Mg711 O728 1.988 1_556 S
Mg711 O729 2.061 . S
Mg712 O710 1.986 1_545 S
Mg712 O720 2.238 1_556 S
Mg712 O724 2.042 1_545 S
Mg712 O726 2.041 1_546 S
Mg712 O733 2.038 . S
C713 O719 1.247 . S
C713 O720 1.289 . S
C714 O732 1.245 . S
C714 O733 1.274 . S
O715 C703 1.241 . S
O715 Mg708 2.042 1_545 S
O716 C703 1.280 . S
O716 Mg706 1.984 . S
O717 C704 1.277 . S
O717 Mg708 2.041 1_546 S
O718 C704 1.245 . S
O718 Mg706 1.988 1_556 S
O719 Mg706 2.061 . S
O719 C713 1.247 . S
O720 Mg709 2.118 . S
O720 Mg712 2.238 1_554 S
O720 C713 1.289 . S
C721 O722 1.245 . S
C721 O723 1.274 . S
O722 Mg709 2.090 1_565 S
O722 C721 1.245 . S
O723 Mg708 2.038 . S
O723 C721 1.274 . S
O724 Mg712 2.042 1_565 S
O724 C727 1.241 . S
O725 Mg711 1.984 . S
O725 C727 1.280 . S
O726 Mg712 2.041 1_564 S
O726 C730 1.277 . S
C727 O724 1.241 . S
C727 O725 1.280 . S
O728 Mg711 1.988 1_554 S
O728 C730 1.245 . S
O729 C705 1.247 . S
O729 Mg711 2.061 . S
C730 O726 1.277 . S
C730 O728 1.245 . S
O731 C705 1.289 . S
O731 Mg708 2.238 1_556 S
O731 Mg709 2.095 1_566 S
O732 Mg709 2.067 1_556 S
O732 C714 1.245 . S
O733 Mg712 2.038 . S
O733 C714 1.274 . S
C734 O746 1.241 . S
C734 O747 1.280 . S
C735 O748 1.277 . S
C735 O749 1.245 . S
C736 O760 1.247 . S
C736 O762 1.289 . S
Mg737 O738 1.926 1_455 S
Mg737 O747 1.984 1_455 S
Mg737 O749 1.988 1_454 S
Mg737 O750 2.061 . S
O738 Mg737 1.926 1_655 S
O738 Mg739 1.986 . S
O738 Mg740 1.921 1_655 S
Mg739 O738 1.986 . S
Mg739 O746 2.042 . S
Mg739 O748 2.041 1_554 S
Mg739 O754 2.038 . S
Mg739 O762 2.238 1_554 S
Mg740 O738 1.921 1_455 S
Mg740 O741 1.913 1_554 S
Mg740 O751 2.117 . S
Mg740 O753 2.095 1_455 S
Mg740 O762 2.096 1_454 S
Mg740 O763 2.063 1_554 S
O741 Mg740 1.913 1_556 S
O741 Mg742 1.924 . S
O741 Mg743 1.986 . S
Mg742 O741 1.924 . S
Mg742 O756 1.999 . S
Mg742 O759 1.997 1_556 S
Mg742 O760 2.043 1_455 S
Mg743 O741 1.986 . S
Mg743 O751 2.238 1_556 S
Mg743 O755 2.042 . S
Mg743 O757 2.041 1_556 S
Mg743 O764 2.038 . S
C744 O750 1.247 . S
C744 O751 1.289 . S
C745 O763 1.245 . S
C745 O764 1.274 . S
O746 C734 1.241 . S
O746 Mg739 2.042 . S
O747 C734 1.280 . S
O747 Mg737 1.984 1_655 S
O748 C735 1.277 . S
O748 Mg739 2.041 1_556 S
O749 C735 1.245 . S
O749 Mg737 1.988 1_656 S
O750 Mg737 2.061 . S
O750 C744 1.247 . S
O751 Mg740 2.117 . S
O751 Mg743 2.238 1_554 S
O751 C744 1.289 . S
C752 O753 1.245 . S
C752 O754 1.274 . S
O753 Mg740 2.095 1_655 S
O753 C752 1.245 . S
O754 Mg739 2.038 . S
O754 C752 1.274 . S
O755 Mg743 2.042 . S
O755 C758 1.241 . S
O756 Mg742 1.999 . S
O756 C758 1.280 . S
O757 Mg743 2.041 1_554 S
O757 C761 1.277 . S
C758 O755 1.241 . S
C758 O756 1.280 . S
O759 Mg742 1.997 1_554 S
O759 C761 1.245 . S
O760 C736 1.247 . S
O760 Mg742 2.043 1_655 S
C761 O757 1.277 . S
C761 O759 1.245 . S
O762 C736 1.289 . S
O762 Mg739 2.238 1_556 S
O762 Mg740 2.096 1_656 S
O763 Mg740 2.063 1_556 S
O763 C745 1.245 . S
O764 Mg743 2.038 . S
O764 C745 1.274 . S
C765 O777 1.241 . S
C765 O778 1.280 . S
C766 O779 1.277 . S
C766 O780 1.245 . S
C767 O791 1.247 . S
C767 O793 1.289 . S
Mg768 O769 1.926 . S
Mg768 O778 1.984 . S
Mg768 O780 1.988 1_554 S
Mg768 O781 2.061 . S
O769 Mg768 1.926 . S
O769 Mg770 1.986 . S
O769 Mg771 1.921 . S
Mg770 O769 1.986 . S
Mg770 O777 2.042 . S
Mg770 O779 2.041 1_554 S
Mg770 O785 2.038 . S
Mg770 O793 2.238 1_554 S
Mg771 O769 1.921 . S
Mg771 O772 1.913 1_554 S
Mg771 O782 2.117 . S
Mg771 O784 2.095 . S
Mg771 O793 2.096 1_554 S
Mg771 O794 2.063 1_554 S
O772 Mg771 1.913 1_556 S
O772 Mg773 1.926 . S
O772 Mg774 1.986 . S
Mg773 O772 1.926 . S
Mg773 O787 1.984 . S
Mg773 O790 1.988 1_556 S
Mg773 O791 2.061 . S
Mg774 O772 1.986 . S
Mg774 O782 2.238 1_556 S
Mg774 O786 2.042 . S
Mg774 O788 2.041 1_556 S
Mg774 O795 2.038 . S
C775 O781 1.247 . S
C775 O782 1.289 . S
C776 O794 1.245 . S
C776 O795 1.274 . S
O777 C765 1.241 . S
O777 Mg770 2.042 . S
O778 C765 1.280 . S
O778 Mg768 1.984 . S
O779 C766 1.277 . S
O779 Mg770 2.041 1_556 S
O780 C766 1.245 . S
O780 Mg768 1.988 1_556 S
O781 Mg768 2.061 . S
O781 C775 1.247 . S
O782 Mg771 2.117 . S
O782 Mg774 2.238 1_554 S
O782 C775 1.289 . S
C783 O784 1.245 . S
C783 O785 1.274 . S
O784 Mg771 2.095 . S
O784 C783 1.245 . S
O785 Mg770 2.038 . S
O785 C783 1.274 . S
O786 Mg774 2.042 . S
O786 C789 1.241 . S
O787 Mg773 1.984 . S
O787 C789 1.280 . S
O788 Mg774 2.041 1_554 S
O788 C792 1.277 . S
C789 O786 1.241 . S
C789 O787 1.280 . S
O790 Mg773 1.988 1_554 S
O790 C792 1.245 . S
O791 C767 1.247 . S
O791 Mg773 2.061 . S
C792 O788 1.277 . S
C792 O790 1.245 . S
O793 C767 1.289 . S
O793 Mg770 2.238 1_556 S
O793 Mg771 2.096 1_556 S
O794 Mg771 2.063 1_556 S
O794 C776 1.245 . S
O795 Mg774 2.038 . S
O795 C776 1.274 . S
C796 O808 1.241 . S
C796 O809 1.280 . S
C797 O810 1.277 . S
C797 O811 1.245 . S
C798 O822 1.247 . S
C798 O824 1.289 . S
Mg799 O800 1.926 1_455 S
Mg799 O809 1.984 1_455 S
Mg799 O811 1.988 1_455 S
Mg799 O812 2.061 . S
O800 Mg799 1.926 1_655 S
O800 Mg801 1.986 . S
O800 Mg802 1.917 1_655 S
Mg801 O800 1.986 . S
Mg801 O808 2.042 . S
Mg801 O810 2.041 . S
Mg801 O816 2.038 . S
Mg801 O824 2.238 . S
Mg802 O800 1.917 1_455 S
Mg802 O803 1.917 . S
Mg802 O813 2.106 . S
Mg802 O815 2.079 1_455 S
Mg802 O824 2.106 1_455 S
Mg802 O825 2.079 . S
O803 Mg802 1.917 . S
O803 Mg804 1.924 . S
O803 Mg805 1.986 . S
Mg804 O803 1.924 . S
Mg804 O818 1.999 . S
Mg804 O821 1.997 . S
Mg804 O822 2.043 1_455 S
Mg805 O803 1.986 . S
Mg805 O813 2.238 . S
Mg805 O817 2.042 . S
Mg805 O819 2.041 . S
Mg805 O826 2.038 . S
C806 O812 1.247 . S
C806 O813 1.289 . S
C807 O825 1.245 . S
C807 O826 1.274 . S
O808 C796 1.241 . S
O808 Mg801 2.042 . S
O809 C796 1.280 . S
O809 Mg799 1.984 1_655 S
O810 C797 1.277 . S
O810 Mg801 2.041 . S
O811 C797 1.245 . S
O811 Mg799 1.988 1_655 S
O812 Mg799 2.061 . S
O812 C806 1.247 . S
O813 Mg802 2.106 . S
O813 Mg805 2.238 . S
O813 C806 1.289 . S
C814 O815 1.245 . S
C814 O816 1.274 . S
O815 Mg802 2.079 1_655 S
O815 C814 1.245 . S
O816 Mg801 2.038 . S
O816 C814 1.274 . S
O817 Mg805 2.042 . S
O817 C820 1.241 . S
O818 Mg804 1.999 . S
O818 C820 1.280 . S
O819 Mg805 2.041 . S
O819 C823 1.277 . S
C820 O817 1.241 . S
C820 O818 1.280 . S
O821 Mg804 1.997 . S
O821 C823 1.245 . S
O822 C798 1.247 . S
O822 Mg804 2.043 1_655 S
C823 O819 1.277 . S
C823 O821 1.245 . S
O824 C798 1.289 . S
O824 Mg801 2.238 . S
O824 Mg802 2.106 1_655 S
O825 Mg802 2.079 . S
O825 C807 1.245 . S
O826 Mg805 2.038 . S
O826 C807 1.274 . S
C827 O839 1.241 . S
C827 O840 1.280 . S
C828 O841 1.277 . S
C828 O842 1.245 . S
C829 O853 1.247 . S
C829 O855 1.289 . S
Mg830 O831 1.926 . S
Mg830 O840 1.984 . S
Mg830 O842 1.988 . S
Mg830 O843 2.061 . S
O831 Mg830 1.926 . S
O831 Mg832 1.986 1_545 S
O831 Mg833 1.924 . S
Mg832 O831 1.986 1_565 S
Mg832 O839 2.042 1_565 S
Mg832 O841 2.041 1_565 S
Mg832 O847 2.038 . S
Mg832 O855 2.238 . S
Mg833 O831 1.924 . S
Mg833 O834 1.910 1_545 S
Mg833 O844 2.107 . S
Mg833 O846 2.074 1_545 S
Mg833 O855 2.106 1_545 S
Mg833 O856 2.083 . S
O834 Mg833 1.910 1_565 S
O834 Mg835 1.926 . S
O834 Mg836 1.986 1_565 S
Mg835 O834 1.926 . S
Mg835 O849 1.984 . S
Mg835 O852 1.988 . S
Mg835 O853 2.061 . S
Mg836 O834 1.986 1_545 S
Mg836 O844 2.238 . S
Mg836 O848 2.042 1_545 S
Mg836 O850 2.041 1_545 S
Mg836 O857 2.038 . S
C837 O843 1.247 . S
C837 O844 1.289 . S
C838 O856 1.245 . S
C838 O857 1.274 . S
O839 C827 1.241 . S
O839 Mg832 2.042 1_545 S
O840 C827 1.280 . S
O840 Mg830 1.984 . S
O841 C828 1.277 . S
O841 Mg832 2.041 1_545 S
O842 C828 1.245 . S
O842 Mg830 1.988 . S
O843 Mg830 2.061 . S
O843 C837 1.247 . S
O844 Mg833 2.107 . S
O844 Mg836 2.238 . S
O844 C837 1.289 . S
C845 O846 1.245 . S
C845 O847 1.274 . S
O846 Mg833 2.074 1_565 S
O846 C845 1.245 . S
O847 Mg832 2.038 . S
O847 C845 1.274 . S
O848 Mg836 2.042 1_565 S
O848 C851 1.241 . S
O849 Mg835 1.984 . S
O849 C851 1.280 . S
O850 Mg836 2.041 1_565 S
O850 C854 1.277 . S
C851 O848 1.241 . S
C851 O849 1.280 . S
O852 Mg835 1.988 . S
O852 C854 1.245 . S
O853 C829 1.247 . S
O853 Mg835 2.061 . S
C854 O850 1.277 . S
C854 O852 1.245 . S
O855 C829 1.289 . S
O855 Mg832 2.238 . S
O855 Mg833 2.106 1_565 S
O856 Mg833 2.083 . S
O856 C838 1.245 . S
O857 Mg836 2.038 . S
O857 C838 1.274 . S
C858 C859 1.369 . S
C858 C860 1.419 . S
C858 H862 0.930 . S
C859 C858 1.369 . S
C859 C868 1.429 . S
C860 C858 1.419 . S
C860 C861 1.363 . S
C860 H863 0.929 . S
C861 C860 1.363 . S
C861 C867 1.428 . S
H862 C858 0.930 . S
H863 C860 0.929 . S
S864 N865 1.613 . S
S864 N866 1.610 . S
N865 S864 1.613 . S
N865 C868 1.350 . S
N866 S864 1.610 . S
N866 C867 1.351 . S
C867 C861 1.428 . S
C867 N866 1.351 . S
C867 C868 1.434 . S
C868 C859 1.429 . S
C868 N865 1.350 . S
C868 C867 1.434 . S
C869 C870 1.369 . S
C869 C871 1.419 . S
C869 H873 0.930 . S
C870 C869 1.369 . S
C870 C879 1.429 . S
C871 C869 1.419 . S
C871 C872 1.363 . S
C871 H874 0.929 . S
C872 C871 1.363 . S
C872 C878 1.428 . S
H873 C869 0.930 . S
H874 C871 0.929 . S
S875 N876 1.613 . S
S875 N877 1.610 . S
N876 S875 1.613 . S
N876 C879 1.350 . S
N877 S875 1.610 . S
N877 C878 1.351 . S
C878 C872 1.428 . S
C878 N877 1.351 . S
C878 C879 1.434 . S
C879 C870 1.429 . S
C879 N876 1.350 . S
C879 C878 1.434 . S
C880 C881 1.369 . S
C880 C882 1.419 . S
C880 H884 0.930 . S
C881 C880 1.369 . S
C881 C890 1.429 . S
C882 C880 1.419 . S
C882 C883 1.363 . S
C882 H885 0.929 . S
C883 C882 1.363 . S
C883 C889 1.428 . S
H884 C880 0.930 . S
H885 C882 0.929 . S
S886 N887 1.613 . S
S886 N888 1.610 . S
N887 S886 1.613 . S
N887 C890 1.350 . S
N888 S886 1.610 . S
N888 C889 1.351 . S
C889 C883 1.428 . S
C889 N888 1.351 . S
C889 C890 1.434 . S
C890 C881 1.429 . S
C890 N887 1.350 . S
C890 C889 1.434 . S
C891 C892 1.369 . S
C891 C893 1.419 . S
C891 H895 0.930 . S
C892 C891 1.369 . S
C892 C901 1.429 . S
C893 C891 1.419 . S
C893 C894 1.363 . S
C893 H896 0.929 . S
C894 C893 1.363 . S
C894 C900 1.428 . S
H895 C891 0.930 . S
H896 C893 0.929 . S
S897 N898 1.613 . S
S897 N899 1.610 . S
N898 S897 1.613 . S
N898 C901 1.350 . S
N899 S897 1.610 . S
N899 C900 1.351 . S
C900 C894 1.428 . S
C900 N899 1.351 . S
C900 C901 1.434 . S
C901 C892 1.429 . S
C901 N898 1.350 . S
C901 C900 1.434 . S
C902 C903 1.369 . S
C902 C904 1.419 . S
C902 H906 0.930 . S
C903 C902 1.369 . S
C903 C912 1.429 . S
C904 C902 1.419 . S
C904 C905 1.363 . S
C904 H907 0.929 . S
C905 C904 1.363 . S
C905 C911 1.428 . S
H906 C902 0.930 . S
H907 C904 0.929 . S
S908 N909 1.613 1_655 S
S908 N910 1.610 1_655 S
N909 S908 1.613 1_455 S
N909 C912 1.350 . S
N910 S908 1.610 1_455 S
N910 C911 1.351 . S
C911 C905 1.428 . S
C911 N910 1.351 . S
C911 C912 1.434 . S
C912 C903 1.429 . S
C912 N909 1.350 . S
C912 C911 1.434 . S
C913 C914 1.369 . S
C913 C915 1.419 . S
C913 H917 0.930 . S
C914 C913 1.369 . S
C914 C923 1.429 . S
C915 C913 1.419 . S
C915 C916 1.363 . S
C915 H918 0.929 . S
C916 C915 1.363 . S
C916 C922 1.428 . S
H917 C913 0.930 . S
H918 C915 0.929 . S
S919 N920 1.613 . S
S919 N921 1.610 . S
N920 S919 1.613 . S
N920 C923 1.350 . S
N921 S919 1.610 . S
N921 C922 1.351 . S
C922 C916 1.428 . S
C922 N921 1.351 . S
C922 C923 1.434 . S
C923 C914 1.429 . S
C923 N920 1.350 . S
C923 C922 1.434 . S
C924 C925 1.369 . S
C924 C926 1.419 . S
C924 H928 0.930 . S
C925 C924 1.369 . S
C925 C934 1.429 . S
C926 C924 1.419 . S
C926 C927 1.363 . S
C926 H929 0.929 . S
C927 C926 1.363 . S
C927 C933 1.428 . S
H928 C924 0.930 . S
H929 C926 0.929 . S
S930 N931 1.613 1_455 S
S930 N932 1.610 1_455 S
N931 S930 1.613 1_655 S
N931 C934 1.350 . S
N932 S930 1.610 1_655 S
N932 C933 1.351 . S
C933 C927 1.428 . S
C933 N932 1.351 . S
C933 C934 1.434 . S
C934 C925 1.429 . S
C934 N931 1.350 . S
C934 C933 1.434 . S
C935 C936 1.369 . S
C935 C937 1.419 . S
C935 H939 0.930 . S
C936 C935 1.369 . S
C936 C945 1.429 . S
C937 C935 1.419 . S
C937 C938 1.363 . S
C937 H940 0.929 . S
C938 C937 1.363 . S
C938 C944 1.428 . S
H939 C935 0.930 . S
H940 C937 0.929 . S
S941 N942 1.613 . S
S941 N943 1.610 . S
N942 S941 1.613 . S
N942 C945 1.350 . S
N943 S941 1.610 . S
N943 C944 1.351 . S
C944 C938 1.428 . S
C944 N943 1.351 . S
C944 C945 1.434 . S
C945 C936 1.429 . S
C945 N942 1.350 . S
C945 C944 1.434 . S
C946 C947 1.369 . S
C946 C948 1.419 . S
C946 H950 0.930 . S
C947 C946 1.369 . S
C947 C956 1.429 . S
C948 C946 1.419 . S
C948 C949 1.363 . S
C948 H951 0.929 . S
C949 C948 1.363 . S
C949 C955 1.428 . S
H950 C946 0.930 . S
H951 C948 0.929 . S
S952 N953 1.613 . S
S952 N954 1.610 . S
N953 S952 1.613 . S
N953 C956 1.350 . S
N954 S952 1.610 . S
N954 C955 1.351 . S
C955 C949 1.428 . S
C955 N954 1.351 . S
C955 C956 1.434 . S
C956 C947 1.429 . S
C956 N953 1.350 . S
C956 C955 1.434 . S
C957 C958 1.369 . S
C957 C959 1.419 . S
C957 H961 0.930 . S
C958 C957 1.369 . S
C958 C967 1.429 . S
C959 C957 1.419 . S
C959 C960 1.363 . S
C959 H962 0.929 . S
C960 C959 1.363 . S
C960 C966 1.428 . S
H961 C957 0.930 . S
H962 C959 0.929 . S
S963 N964 1.613 . S
S963 N965 1.610 . S
N964 S963 1.613 . S
N964 C967 1.350 . S
N965 S963 1.610 . S
N965 C966 1.351 . S
C966 C960 1.428 . S
C966 N965 1.351 . S
C966 C967 1.434 . S
C967 C958 1.429 . S
C967 N964 1.350 . S
C967 C966 1.434 . S
C968 C969 1.369 . S
C968 C970 1.419 . S
C968 H972 0.930 . S
C969 C968 1.369 . S
C969 C978 1.429 . S
C970 C968 1.419 . S
C970 C971 1.363 . S
C970 H973 0.929 . S
C971 C970 1.363 . S
C971 C977 1.428 . S
H972 C968 0.930 . S
H973 C970 0.929 . S
S974 N975 1.613 1_545 S
S974 N976 1.610 . S
N975 S974 1.613 1_565 S
N975 C978 1.350 . S
N976 S974 1.610 . S
N976 C977 1.351 1_545 S
C977 C971 1.428 . S
C977 N976 1.351 1_565 S
C977 C978 1.434 . S
C978 C969 1.429 . S
C978 N975 1.350 . S
C978 C977 1.434 . S
C979 C980 1.369 . S
C979 C981 1.419 . S
C979 H983 0.930 . S
C980 C979 1.369 . S
C980 C989 1.429 . S
C981 C979 1.419 . S
C981 C982 1.363 . S
C981 H984 0.929 . S
C982 C981 1.363 . S
C982 C988 1.428 . S
H983 C979 0.930 . S
H984 C981 0.929 . S
S985 N986 1.613 . S
S985 N987 1.610 . S
N986 S985 1.613 . S
N986 C989 1.350 . S
N987 S985 1.610 . S
N987 C988 1.351 . S
C988 C982 1.428 . S
C988 N987 1.351 . S
C988 C989 1.434 . S
C989 C980 1.429 . S
C989 N986 1.350 . S
C989 C988 1.434 . S
C990 C991 1.369 . S
C990 C992 1.419 . S
C990 H994 0.930 . S
C991 C990 1.369 . S
C991 C1000 1.429 . S
C992 C990 1.419 . S
C992 C993 1.363 . S
C992 H995 0.929 . S
C993 C992 1.363 . S
C993 C999 1.428 . S
H994 C990 0.930 . S
H995 C992 0.929 . S
S996 N997 1.613 . S
S996 N998 1.610 . S
N997 S996 1.613 . S
N997 C1000 1.350 . S
N998 S996 1.610 . S
N998 C999 1.351 . S
C999 C993 1.428 . S
C999 N998 1.351 . S
C999 C1000 1.434 . S
C1000 C991 1.429 . S
C1000 N997 1.350 . S
C1000 C999 1.434 . S
C1001 C1002 1.369 . S
C1001 C1003 1.419 . S
C1001 H1005 0.930 . S
C1002 C1001 1.369 . S
C1002 C1011 1.429 . S
C1003 C1001 1.419 . S
C1003 C1004 1.363 . S
C1003 H1006 0.929 . S
C1004 C1003 1.363 . S
C1004 C1010 1.428 . S
H1005 C1001 0.930 . S
H1006 C1003 0.929 . S
S1007 N1008 1.613 . S
S1007 N1009 1.610 . S
N1008 S1007 1.613 . S
N1008 C1011 1.350 . S
N1009 S1007 1.610 . S
N1009 C1010 1.351 . S
C1010 C1004 1.428 . S
C1010 N1009 1.351 . S
C1010 C1011 1.434 . S
C1011 C1002 1.429 . S
C1011 N1008 1.350 . S
C1011 C1010 1.434 . S
C1012 C1013 1.369 . S
C1012 C1014 1.419 . S
C1012 H1016 0.930 . S
C1013 C1012 1.369 . S
C1013 C1022 1.429 . S
C1014 C1012 1.419 . S
C1014 C1015 1.363 . S
C1014 H1017 0.929 . S
C1015 C1014 1.363 . S
C1015 C1021 1.428 . S
H1016 C1012 0.930 . S
H1017 C1014 0.929 . S
S1018 N1019 1.613 . S
S1018 N1020 1.610 . S
N1019 S1018 1.613 . S
N1019 C1022 1.350 . S
N1020 S1018 1.610 . S
N1020 C1021 1.351 . S
C1021 C1015 1.428 . S
C1021 N1020 1.351 . S
C1021 C1022 1.434 . S
C1022 C1013 1.429 . S
C1022 N1019 1.350 . S
C1022 C1021 1.434 . S
C1023 C1024 1.369 . S
C1023 C1025 1.419 . S
C1023 H1027 0.930 . S
C1024 C1023 1.369 . S
C1024 C1033 1.429 . S
C1025 C1023 1.419 . S
C1025 C1026 1.363 . S
C1025 H1028 0.929 . S
C1026 C1025 1.363 . S
C1026 C1032 1.428 . S
H1027 C1023 0.930 . S
H1028 C1025 0.929 . S
S1029 N1030 1.613 . S
S1029 N1031 1.610 . S
N1030 S1029 1.613 . S
N1030 C1033 1.350 . S
N1031 S1029 1.610 . S
N1031 C1032 1.351 . S
C1032 C1026 1.428 . S
C1032 N1031 1.351 . S
C1032 C1033 1.434 . S
C1033 C1024 1.429 . S
C1033 N1030 1.350 . S
C1033 C1032 1.434 . S
C1034 C1035 1.369 . S
C1034 C1036 1.419 . S
C1034 H1038 0.930 . S
C1035 C1034 1.369 . S
C1035 C1044 1.429 . S
C1036 C1034 1.419 . S
C1036 C1037 1.363 . S
C1036 H1039 0.929 . S
C1037 C1036 1.363 . S
C1037 C1043 1.428 . S
H1038 C1034 0.930 . S
H1039 C1036 0.929 . S
S1040 N1041 1.613 . S
S1040 N1042 1.610 . S
N1041 S1040 1.613 . S
N1041 C1044 1.350 . S
N1042 S1040 1.610 . S
N1042 C1043 1.351 . S
C1043 C1037 1.428 . S
C1043 N1042 1.351 . S
C1043 C1044 1.434 . S
C1044 C1035 1.429 . S
C1044 N1041 1.350 . S
C1044 C1043 1.434 . S
C1045 C1046 1.369 . S
C1045 C1047 1.419 . S
C1045 H1049 0.930 . S
C1046 C1045 1.369 . S
C1046 C1055 1.429 . S
C1047 C1045 1.419 . S
C1047 C1048 1.363 . S
C1047 H1050 0.929 . S
C1048 C1047 1.363 . S
C1048 C1054 1.428 . S
H1049 C1045 0.930 . S
H1050 C1047 0.929 . S
S1051 N1052 1.613 . S
S1051 N1053 1.610 . S
N1052 S1051 1.613 . S
N1052 C1055 1.350 . S
N1053 S1051 1.610 . S
N1053 C1054 1.351 . S
C1054 C1048 1.428 . S
C1054 N1053 1.351 . S
C1054 C1055 1.434 . S
C1055 C1046 1.429 . S
C1055 N1052 1.350 . S
C1055 C1054 1.434 . S
C1056 C1057 1.369 . S
C1056 C1058 1.419 . S
C1056 H1060 0.930 . S
C1057 C1056 1.369 . S
C1057 C1066 1.429 . S
C1058 C1056 1.419 . S
C1058 C1059 1.363 . S
C1058 H1061 0.929 . S
C1059 C1058 1.363 . S
C1059 C1065 1.428 . S
H1060 C1056 0.930 . S
H1061 C1058 0.929 . S
S1062 N1063 1.613 . S
S1062 N1064 1.610 . S
N1063 S1062 1.613 . S
N1063 C1066 1.350 . S
N1064 S1062 1.610 . S
N1064 C1065 1.351 . S
C1065 C1059 1.428 . S
C1065 N1064 1.351 . S
C1065 C1066 1.434 . S
C1066 C1057 1.429 . S
C1066 N1063 1.350 . S
C1066 C1065 1.434 . S
C1067 C1068 1.369 . S
C1067 C1069 1.419 . S
C1067 H1071 0.930 . S
C1068 C1067 1.369 . S
C1068 C1077 1.429 . S
C1069 C1067 1.419 . S
C1069 C1070 1.363 . S
C1069 H1072 0.929 . S
C1070 C1069 1.363 . S
C1070 C1076 1.428 . S
H1071 C1067 0.930 . S
H1072 C1069 0.929 . S
S1073 N1074 1.613 . S
S1073 N1075 1.610 . S
N1074 S1073 1.613 . S
N1074 C1077 1.350 . S
N1075 S1073 1.610 . S
N1075 C1076 1.351 . S
C1076 C1070 1.428 . S
C1076 N1075 1.351 . S
C1076 C1077 1.434 . S
C1077 C1068 1.429 . S
C1077 N1074 1.350 . S
C1077 C1076 1.434 . S
C1078 C1079 1.369 . S
C1078 C1080 1.419 . S
C1078 H1082 0.930 . S
C1079 C1078 1.369 . S
C1079 C1088 1.429 . S
C1080 C1078 1.419 . S
C1080 C1081 1.363 . S
C1080 H1083 0.929 . S
C1081 C1080 1.363 . S
C1081 C1087 1.428 . S
H1082 C1078 0.930 . S
H1083 C1080 0.929 . S
S1084 N1085 1.613 . S
S1084 N1086 1.610 . S
N1085 S1084 1.613 . S
N1085 C1088 1.350 . S
N1086 S1084 1.610 . S
N1086 C1087 1.351 . S
C1087 C1081 1.428 . S
C1087 N1086 1.351 . S
C1087 C1088 1.434 . S
C1088 C1079 1.429 . S
C1088 N1085 1.350 . S
C1088 C1087 1.434 . S
C1089 C1090 1.369 . S
C1089 C1091 1.419 . S
C1089 H1093 0.930 . S
C1090 C1089 1.369 . S
C1090 C1099 1.429 . S
C1091 C1089 1.419 . S
C1091 C1092 1.363 . S
C1091 H1094 0.929 . S
C1092 C1091 1.363 . S
C1092 C1098 1.428 . S
H1093 C1089 0.930 . S
H1094 C1091 0.929 . S
S1095 N1096 1.613 . S
S1095 N1097 1.610 . S
N1096 S1095 1.613 . S
N1096 C1099 1.350 . S
N1097 S1095 1.610 . S
N1097 C1098 1.351 . S
C1098 C1092 1.428 . S
C1098 N1097 1.351 . S
C1098 C1099 1.434 . S
C1099 C1090 1.429 . S
C1099 N1096 1.350 . S
C1099 C1098 1.434 . S
C1100 C1101 1.369 . S
C1100 C1102 1.419 . S
C1100 H1104 0.930 . S
C1101 C1100 1.369 . S
C1101 C1110 1.429 . S
C1102 C1100 1.419 . S
C1102 C1103 1.363 . S
C1102 H1105 0.929 . S
C1103 C1102 1.363 . S
C1103 C1109 1.428 . S
H1104 C1100 0.930 . S
H1105 C1102 0.929 . S
S1106 N1107 1.613 . S
S1106 N1108 1.610 . S
N1107 S1106 1.613 . S
N1107 C1110 1.350 . S
N1108 S1106 1.610 . S
N1108 C1109 1.351 . S
C1109 C1103 1.428 . S
C1109 N1108 1.351 . S
C1109 C1110 1.434 . S
C1110 C1101 1.429 . S
C1110 N1107 1.350 . S
C1110 C1109 1.434 . S
C1111 C1112 1.369 . S
C1111 C1113 1.419 . S
C1111 H1115 0.930 . S
C1112 C1111 1.369 . S
C1112 C1121 1.429 . S
C1113 C1111 1.419 . S
C1113 C1114 1.363 . S
C1113 H1116 0.929 . S
C1114 C1113 1.363 . S
C1114 C1120 1.428 . S
H1115 C1111 0.930 . S
H1116 C1113 0.929 . S
S1117 N1118 1.613 . S
S1117 N1119 1.610 . S
N1118 S1117 1.613 . S
N1118 C1121 1.350 . S
N1119 S1117 1.610 . S
N1119 C1120 1.351 . S
C1120 C1114 1.428 . S
C1120 N1119 1.351 . S
C1120 C1121 1.434 . S
C1121 C1112 1.429 . S
C1121 N1118 1.350 . S
C1121 C1120 1.434 . S
C1122 C1123 1.369 . S
C1122 C1124 1.419 . S
C1122 H1126 0.930 . S
C1123 C1122 1.369 . S
C1123 C1132 1.429 . S
C1124 C1122 1.419 . S
C1124 C1125 1.363 . S
C1124 H1127 0.929 . S
C1125 C1124 1.363 . S
C1125 C1131 1.428 . S
H1126 C1122 0.930 . S
H1127 C1124 0.929 . S
S1128 N1129 1.613 . S
S1128 N1130 1.610 . S
N1129 S1128 1.613 . S
N1129 C1132 1.350 . S
N1130 S1128 1.610 . S
N1130 C1131 1.351 . S
C1131 C1125 1.428 . S
C1131 N1130 1.351 . S
C1131 C1132 1.434 . S
C1132 C1123 1.429 . S
C1132 N1129 1.350 . S
C1132 C1131 1.434 . S
C1133 C1134 1.369 . S
C1133 C1135 1.419 . S
C1133 H1137 0.930 . S
C1134 C1133 1.369 . S
C1134 C1143 1.429 . S
C1135 C1133 1.419 . S
C1135 C1136 1.363 . S
C1135 H1138 0.929 . S
C1136 C1135 1.363 . S
C1136 C1142 1.428 . S
H1137 C1133 0.930 . S
H1138 C1135 0.929 . S
S1139 N1140 1.613 . S
S1139 N1141 1.610 . S
N1140 S1139 1.613 . S
N1140 C1143 1.350 . S
N1141 S1139 1.610 . S
N1141 C1142 1.351 . S
C1142 C1136 1.428 . S
C1142 N1141 1.351 . S
C1142 C1143 1.434 . S
C1143 C1134 1.429 . S
C1143 N1140 1.350 . S
C1143 C1142 1.434 . S
C1144 C1145 1.369 . S
C1144 C1146 1.419 . S
C1144 H1148 0.930 . S
C1145 C1144 1.369 . S
C1145 C1154 1.429 . S
C1146 C1144 1.419 . S
C1146 C1147 1.363 . S
C1146 H1149 0.929 . S
C1147 C1146 1.363 . S
C1147 C1153 1.428 . S
H1148 C1144 0.930 . S
H1149 C1146 0.929 . S
S1150 N1151 1.613 . S
S1150 N1152 1.610 . S
N1151 S1150 1.613 . S
N1151 C1154 1.350 . S
N1152 S1150 1.610 . S
N1152 C1153 1.351 . S
C1153 C1147 1.428 . S
C1153 N1152 1.351 . S
C1153 C1154 1.434 . S
C1154 C1145 1.429 . S
C1154 N1151 1.350 . S
C1154 C1153 1.434 . S
C1155 C1156 1.369 . S
C1155 C1157 1.419 . S
C1155 H1159 0.930 . S
C1156 C1155 1.369 . S
C1156 C1165 1.429 . S
C1157 C1155 1.419 . S
C1157 C1158 1.363 . S
C1157 H1160 0.929 . S
C1158 C1157 1.363 . S
C1158 C1164 1.428 . S
H1159 C1155 0.930 . S
H1160 C1157 0.929 . S
S1161 N1162 1.613 . S
S1161 N1163 1.610 . S
N1162 S1161 1.613 . S
N1162 C1165 1.350 . S
N1163 S1161 1.610 . S
N1163 C1164 1.351 . S
C1164 C1158 1.428 . S
C1164 N1163 1.351 . S
C1164 C1165 1.434 . S
C1165 C1156 1.429 . S
C1165 N1162 1.350 . S
C1165 C1164 1.434 . S
C1166 C1167 1.369 . S
C1166 C1168 1.419 . S
C1166 H1170 0.930 . S
C1167 C1166 1.369 . S
C1167 C1176 1.429 . S
C1168 C1166 1.419 . S
C1168 C1169 1.363 . S
C1168 H1171 0.929 . S
C1169 C1168 1.363 . S
C1169 C1175 1.428 . S
H1170 C1166 0.930 . S
H1171 C1168 0.929 . S
S1172 N1173 1.613 . S
S1172 N1174 1.610 . S
N1173 S1172 1.613 . S
N1173 C1176 1.350 . S
N1174 S1172 1.610 . S
N1174 C1175 1.351 . S
C1175 C1169 1.428 . S
C1175 N1174 1.351 . S
C1175 C1176 1.434 . S
C1176 C1167 1.429 . S
C1176 N1173 1.350 . S
C1176 C1175 1.434 . S
C1177 C1178 1.369 . S
C1177 C1179 1.419 . S
C1177 H1181 0.930 . S
C1178 C1177 1.369 . S
C1178 C1187 1.429 . S
C1179 C1177 1.419 . S
C1179 C1180 1.363 . S
C1179 H1182 0.929 . S
C1180 C1179 1.363 . S
C1180 C1186 1.428 . S
H1181 C1177 0.930 . S
H1182 C1179 0.929 . S
S1183 N1184 1.613 . S
S1183 N1185 1.610 . S
N1184 S1183 1.613 . S
N1184 C1187 1.350 . S
N1185 S1183 1.610 . S
N1185 C1186 1.351 . S
C1186 C1180 1.428 . S
C1186 N1185 1.351 . S
C1186 C1187 1.434 . S
C1187 C1178 1.429 . S
C1187 N1184 1.350 . S
C1187 C1186 1.434 . S
C1188 C1189 1.369 . S
C1188 C1190 1.419 . S
C1188 H1192 0.930 . S
C1189 C1188 1.369 . S
C1189 C1198 1.429 . S
C1190 C1188 1.419 . S
C1190 C1191 1.363 . S
C1190 H1193 0.929 . S
C1191 C1190 1.363 . S
C1191 C1197 1.428 . S
H1192 C1188 0.930 . S
H1193 C1190 0.929 . S
S1194 N1195 1.613 . S
S1194 N1196 1.610 . S
N1195 S1194 1.613 . S
N1195 C1198 1.350 . S
N1196 S1194 1.610 . S
N1196 C1197 1.351 . S
C1197 C1191 1.428 . S
C1197 N1196 1.351 . S
C1197 C1198 1.434 . S
C1198 C1189 1.429 . S
C1198 N1195 1.350 . S
C1198 C1197 1.434 . S
C1199 C1200 1.369 . S
C1199 C1201 1.419 . S
C1199 H1203 0.930 . S
C1200 C1199 1.369 . S
C1200 C1209 1.429 . S
C1201 C1199 1.419 . S
C1201 C1202 1.363 . S
C1201 H1204 0.929 . S
C1202 C1201 1.363 . S
C1202 C1208 1.428 . S
H1203 C1199 0.930 . S
H1204 C1201 0.929 . S
S1205 N1206 1.613 . S
S1205 N1207 1.610 . S
N1206 S1205 1.613 . S
N1206 C1209 1.350 . S
N1207 S1205 1.610 . S
N1207 C1208 1.351 . S
C1208 C1202 1.428 . S
C1208 N1207 1.351 . S
C1208 C1209 1.434 . S
C1209 C1200 1.429 . S
C1209 N1206 1.350 . S
C1209 C1208 1.434 . S
C1210 C1211 1.369 . S
C1210 C1212 1.419 . S
C1210 H1214 0.930 . S
C1211 C1210 1.369 . S
C1211 C1220 1.429 . S
C1212 C1210 1.419 . S
C1212 C1213 1.363 . S
C1212 H1215 0.929 . S
C1213 C1212 1.363 . S
C1213 C1219 1.428 . S
H1214 C1210 0.930 . S
H1215 C1212 0.929 . S
S1216 N1217 1.613 . S
S1216 N1218 1.610 . S
N1217 S1216 1.613 . S
N1217 C1220 1.350 . S
N1218 S1216 1.610 . S
N1218 C1219 1.351 . S
C1219 C1213 1.428 . S
C1219 N1218 1.351 . S
C1219 C1220 1.434 . S
C1220 C1211 1.429 . S
C1220 N1217 1.350 . S
C1220 C1219 1.434 . S
C1221 C1222 1.369 . S
C1221 C1223 1.419 . S
C1221 H1225 0.930 . S
C1222 C1221 1.369 . S
C1222 C1231 1.429 . S
C1223 C1221 1.419 . S
C1223 C1224 1.363 . S
C1223 H1226 0.929 . S
C1224 C1223 1.363 . S
C1224 C1230 1.428 . S
H1225 C1221 0.930 . S
H1226 C1223 0.929 . S
S1227 N1228 1.613 . S
S1227 N1229 1.610 . S
N1228 S1227 1.613 . S
N1228 C1231 1.350 . S
N1229 S1227 1.610 . S
N1229 C1230 1.351 . S
C1230 C1224 1.428 . S
C1230 N1229 1.351 . S
C1230 C1231 1.434 . S
C1231 C1222 1.429 . S
C1231 N1228 1.350 . S
C1231 C1230 1.434 . S
C1232 C1233 1.369 . S
C1232 C1234 1.419 . S
C1232 H1236 0.930 . S
C1233 C1232 1.369 . S
C1233 C1242 1.429 . S
C1234 C1232 1.419 . S
C1234 C1235 1.363 . S
C1234 H1237 0.929 . S
C1235 C1234 1.363 . S
C1235 C1241 1.428 . S
H1236 C1232 0.930 . S
H1237 C1234 0.929 . S
S1238 N1239 1.613 . S
S1238 N1240 1.610 . S
N1239 S1238 1.613 . S
N1239 C1242 1.350 . S
N1240 S1238 1.610 . S
N1240 C1241 1.351 . S
C1241 C1235 1.428 . S
C1241 N1240 1.351 . S
C1241 C1242 1.434 . S
C1242 C1233 1.429 . S
C1242 N1239 1.350 . S
C1242 C1241 1.434 . S
C1243 C1244 1.369 . S
C1243 C1245 1.419 . S
C1243 H1247 0.930 . S
C1244 C1243 1.369 . S
C1244 C1253 1.429 . S
C1245 C1243 1.419 . S
C1245 C1246 1.363 . S
C1245 H1248 0.929 . S
C1246 C1245 1.363 . S
C1246 C1252 1.428 . S
H1247 C1243 0.930 . S
H1248 C1245 0.929 . S
S1249 N1250 1.613 . S
S1249 N1251 1.610 . S
N1250 S1249 1.613 . S
N1250 C1253 1.350 . S
N1251 S1249 1.610 . S
N1251 C1252 1.351 . S
C1252 C1246 1.428 . S
C1252 N1251 1.351 . S
C1252 C1253 1.434 . S
C1253 C1244 1.429 . S
C1253 N1250 1.350 . S
C1253 C1252 1.434 . S
C1254 C1255 1.369 . S
C1254 C1256 1.419 . S
C1254 H1258 0.930 . S
C1255 C1254 1.369 . S
C1255 C1264 1.429 . S
C1256 C1254 1.419 . S
C1256 C1257 1.363 . S
C1256 H1259 0.929 . S
C1257 C1256 1.363 . S
C1257 C1263 1.428 . S
H1258 C1254 0.930 . S
H1259 C1256 0.929 . S
S1260 N1261 1.613 . S
S1260 N1262 1.610 . S
N1261 S1260 1.613 . S
N1261 C1264 1.350 . S
N1262 S1260 1.610 . S
N1262 C1263 1.351 . S
C1263 C1257 1.428 . S
C1263 N1262 1.351 . S
C1263 C1264 1.434 . S
C1264 C1255 1.429 . S
C1264 N1261 1.350 . S
C1264 C1263 1.434 . S
C1265 C1266 1.369 . S
C1265 C1267 1.419 . S
C1265 H1269 0.930 . S
C1266 C1265 1.369 . S
C1266 C1275 1.429 . S
C1267 C1265 1.419 . S
C1267 C1268 1.363 . S
C1267 H1270 0.929 . S
C1268 C1267 1.363 . S
C1268 C1274 1.428 . S
H1269 C1265 0.930 . S
H1270 C1267 0.929 . S
S1271 N1272 1.613 . S
S1271 N1273 1.610 . S
N1272 S1271 1.613 . S
N1272 C1275 1.350 . S
N1273 S1271 1.610 . S
N1273 C1274 1.351 . S
C1274 C1268 1.428 . S
C1274 N1273 1.351 . S
C1274 C1275 1.434 . S
C1275 C1266 1.429 . S
C1275 N1272 1.350 . S
C1275 C1274 1.434 . S
C1276 C1277 1.369 . S
C1276 C1278 1.419 . S
C1276 H1280 0.930 . S
C1277 C1276 1.369 . S
C1277 C1286 1.429 . S
C1278 C1276 1.419 . S
C1278 C1279 1.363 . S
C1278 H1281 0.929 . S
C1279 C1278 1.363 . S
C1279 C1285 1.428 . S
H1280 C1276 0.930 . S
H1281 C1278 0.929 . S
S1282 N1283 1.613 . S
S1282 N1284 1.610 . S
N1283 S1282 1.613 . S
N1283 C1286 1.350 . S
N1284 S1282 1.610 . S
N1284 C1285 1.351 . S
C1285 C1279 1.428 . S
C1285 N1284 1.351 . S
C1285 C1286 1.434 . S
C1286 C1277 1.429 . S
C1286 N1283 1.350 . S
C1286 C1285 1.434 . S
C1287 C1288 1.369 . S
C1287 C1289 1.419 . S
C1287 H1291 0.930 . S
C1288 C1287 1.369 . S
C1288 C1297 1.429 . S
C1289 C1287 1.419 . S
C1289 C1290 1.363 . S
C1289 H1292 0.929 . S
C1290 C1289 1.363 . S
C1290 C1296 1.428 . S
H1291 C1287 0.930 . S
H1292 C1289 0.929 . S
S1293 N1294 1.613 . S
S1293 N1295 1.610 . S
N1294 S1293 1.613 . S
N1294 C1297 1.350 . S
N1295 S1293 1.610 . S
N1295 C1296 1.351 . S
C1296 C1290 1.428 . S
C1296 N1295 1.351 . S
C1296 C1297 1.434 . S
C1297 C1288 1.429 . S
C1297 N1294 1.350 . S
C1297 C1296 1.434 . S
C1298 C1299 1.369 . S
C1298 C1300 1.419 . S
C1298 H1302 0.930 . S
C1299 C1298 1.369 . S
C1299 C1308 1.429 . S
C1300 C1298 1.419 . S
C1300 C1301 1.363 . S
C1300 H1303 0.929 . S
C1301 C1300 1.363 . S
C1301 C1307 1.428 . S
H1302 C1298 0.930 . S
H1303 C1300 0.929 . S
S1304 N1305 1.613 . S
S1304 N1306 1.610 . S
N1305 S1304 1.613 . S
N1305 C1308 1.350 . S
N1306 S1304 1.610 . S
N1306 C1307 1.351 . S
C1307 C1301 1.428 . S
C1307 N1306 1.351 . S
C1307 C1308 1.434 . S
C1308 C1299 1.429 . S
C1308 N1305 1.350 . S
C1308 C1307 1.434 . S
C1309 C1310 1.369 . S
C1309 C1311 1.419 . S
C1309 H1313 0.930 . S
C1310 C1309 1.369 . S
C1310 C1319 1.429 . S
C1311 C1309 1.419 . S
C1311 C1312 1.363 . S
C1311 H1314 0.929 . S
C1312 C1311 1.363 . S
C1312 C1318 1.428 . S
H1313 C1309 0.930 . S
H1314 C1311 0.929 . S
S1315 N1316 1.613 . S
S1315 N1317 1.610 . S
N1316 S1315 1.613 . S
N1316 C1319 1.350 . S
N1317 S1315 1.610 . S
N1317 C1318 1.351 . S
C1318 C1312 1.428 . S
C1318 N1317 1.351 . S
C1318 C1319 1.434 . S
C1319 C1310 1.429 . S
C1319 N1316 1.350 . S
C1319 C1318 1.434 . S
C1320 C1321 1.369 . S
C1320 C1322 1.419 . S
C1320 H1324 0.930 . S
C1321 C1320 1.369 . S
C1321 C1330 1.429 . S
C1322 C1320 1.419 . S
C1322 C1323 1.363 . S
C1322 H1325 0.929 . S
C1323 C1322 1.363 . S
C1323 C1329 1.428 . S
H1324 C1320 0.930 . S
H1325 C1322 0.929 . S
S1326 N1327 1.613 . S
S1326 N1328 1.610 . S
N1327 S1326 1.613 . S
N1327 C1330 1.350 . S
N1328 S1326 1.610 . S
N1328 C1329 1.351 . S
C1329 C1323 1.428 . S
C1329 N1328 1.351 . S
C1329 C1330 1.434 . S
C1330 C1321 1.429 . S
C1330 N1327 1.350 . S
C1330 C1329 1.434 . S
C1331 C1332 1.369 . S
C1331 C1333 1.419 . S
C1331 H1335 0.930 . S
C1332 C1331 1.369 . S
C1332 C1341 1.429 . S
C1333 C1331 1.419 . S
C1333 C1334 1.363 . S
C1333 H1336 0.929 . S
C1334 C1333 1.363 . S
C1334 C1340 1.428 . S
H1335 C1331 0.930 . S
H1336 C1333 0.929 . S
S1337 N1338 1.613 . S
S1337 N1339 1.610 . S
N1338 S1337 1.613 . S
N1338 C1341 1.350 . S
N1339 S1337 1.610 . S
N1339 C1340 1.351 . S
C1340 C1334 1.428 . S
C1340 N1339 1.351 . S
C1340 C1341 1.434 . S
C1341 C1332 1.429 . S
C1341 N1338 1.350 . S
C1341 C1340 1.434 . S
C1342 C1343 1.369 . S
C1342 C1344 1.419 . S
C1342 H1346 0.930 . S
C1343 C1342 1.369 . S
C1343 C1352 1.429 . S
C1344 C1342 1.419 . S
C1344 C1345 1.363 . S
C1344 H1347 0.929 . S
C1345 C1344 1.363 . S
C1345 C1351 1.428 . S
H1346 C1342 0.930 . S
H1347 C1344 0.929 . S
S1348 N1349 1.613 . S
S1348 N1350 1.610 . S
N1349 S1348 1.613 . S
N1349 C1352 1.350 . S
N1350 S1348 1.610 . S
N1350 C1351 1.351 . S
C1351 C1345 1.428 . S
C1351 N1350 1.351 . S
C1351 C1352 1.434 . S
C1352 C1343 1.429 . S
C1352 N1349 1.350 . S
C1352 C1351 1.434 . S
C1353 C1354 1.369 . S
C1353 C1355 1.419 . S
C1353 H1357 0.930 . S
C1354 C1353 1.369 . S
C1354 C1363 1.429 . S
C1355 C1353 1.419 . S
C1355 C1356 1.363 . S
C1355 H1358 0.929 . S
C1356 C1355 1.363 . S
C1356 C1362 1.428 . S
H1357 C1353 0.930 . S
H1358 C1355 0.929 . S
S1359 N1360 1.613 . S
S1359 N1361 1.610 . S
N1360 S1359 1.613 . S
N1360 C1363 1.350 . S
N1361 S1359 1.610 . S
N1361 C1362 1.351 . S
C1362 C1356 1.428 . S
C1362 N1361 1.351 . S
C1362 C1363 1.434 . S
C1363 C1354 1.429 . S
C1363 N1360 1.350 . S
C1363 C1362 1.434 . S
C1364 C1365 1.369 . S
C1364 C1366 1.419 . S
C1364 H1368 0.930 . S
C1365 C1364 1.369 . S
C1365 C1374 1.429 . S
C1366 C1364 1.419 . S
C1366 C1367 1.363 . S
C1366 H1369 0.929 . S
C1367 C1366 1.363 . S
C1367 C1373 1.428 . S
H1368 C1364 0.930 . S
H1369 C1366 0.929 . S
S1370 N1371 1.613 . S
S1370 N1372 1.610 . S
N1371 S1370 1.613 . S
N1371 C1374 1.350 . S
N1372 S1370 1.610 . S
N1372 C1373 1.351 . S
C1373 C1367 1.428 . S
C1373 N1372 1.351 . S
C1373 C1374 1.434 . S
C1374 C1365 1.429 . S
C1374 N1371 1.350 . S
C1374 C1373 1.434 . S
C1375 C1376 1.369 . S
C1375 C1377 1.419 . S
C1375 H1379 0.930 . S
C1376 C1375 1.369 . S
C1376 C1385 1.429 . S
C1377 C1375 1.419 . S
C1377 C1378 1.363 . S
C1377 H1380 0.929 . S
C1378 C1377 1.363 . S
C1378 C1384 1.428 . S
H1379 C1375 0.930 . S
H1380 C1377 0.929 . S
S1381 N1382 1.613 . S
S1381 N1383 1.610 . S
N1382 S1381 1.613 . S
N1382 C1385 1.350 . S
N1383 S1381 1.610 . S
N1383 C1384 1.351 . S
C1384 C1378 1.428 . S
C1384 N1383 1.351 . S
C1384 C1385 1.434 . S
C1385 C1376 1.429 . S
C1385 N1382 1.350 . S
C1385 C1384 1.434 . S
C861 C683 1.743 . S
C859 C56 1.725 . S
C872 C673 1.311 . S
C870 C154 1.255 . S
C883 C674 1.423 . S
C881 C236 1.413 . S
C892 C310 0.907 . S
C894 C696 0.865 . S
C903 C394 1.265 . S
C905 C699 1.308 . S
C916 C682 1.428 . S
C914 C476 1.409 . S
C925 C574 0.910 . S
C927 C672 0.848 . S
C936 C656 1.719 . S
C938 C690 1.743 . S
C949 C703 2.427 . S
C947 C67 2.524 . S
C958 C139 1.682 . S
C960 C752 1.652 . S
C971 C730 1.365 . S
C969 C238 1.377 . S
C982 C744 1.414 . S
C980 C308 1.389 . S
C991 C392 1.405 . S
C993 C705 1.391 . S
C1004 C758 2.428 . S
C1002 C487 2.544 . S
C1013 C559 1.692 . S
C1015 C714 1.677 . S
C1024 C658 1.287 . S
C1026 C735 1.316 . S
C1035 C58 1.282 . S
C1037 C761 1.312 . S
C1046 C403 1.683 . S
C1048 C745 1.656 . S
C1059 C704 1.364 . S
C1057 C478 1.388 . S
C1070 C736 1.414 . S
C1068 C572 1.389 . S
C1079 C643 2.524 . S
C1081 C727 2.427 . S
C1090 C223 2.543 . S
C1092 C734 2.431 . S
C1103 C721 1.673 . S
C1101 C319 1.690 . S
C1112 C152 1.404 . S
C1114 C713 1.390 . S
C1123 C644 1.724 . S
C1125 C776 1.743 . S
C1134 C406 1.257 . S
C1136 C766 1.311 . S
C1147 C767 1.427 . S
C1145 C488 1.412 . S
C1158 C789 0.864 . S
C1156 C562 0.910 . S
C1167 C142 1.256 . S
C1169 C792 1.311 . S
C1180 C775 1.425 . S
C1178 C224 1.414 . S
C1189 C322 0.914 . S
C1191 C765 0.860 . S
C1200 C68 1.723 . S
C1202 C783 1.741 . S
C1211 C655 2.524 . S
C1213 C796 2.427 . S
C1224 C845 1.655 . S
C1222 C391 1.683 . S
C1233 C490 1.385 . S
C1235 C823 1.361 . S
C1244 C560 1.385 . S
C1246 C837 1.411 . S
C1257 C798 1.390 . S
C1255 C140 1.405 . S
C1266 C235 2.543 . S
C1268 C851 2.428 . S
C1279 C807 1.675 . S
C1277 C307 1.690 . S
C1290 C828 1.313 . S
C1288 C70 1.286 . S
C1301 C854 1.318 . S
C1299 C646 1.274 . S
C1310 C151 1.681 . S
C1312 C838 1.651 . S
C1321 C226 1.387 . S
C1323 C797 1.364 . S
C1334 C829 1.413 . S
C1332 C320 1.393 . S
C1343 C55 2.523 . S
C1345 C820 2.427 . S
C1354 C475 2.545 . S
C1356 C827 2.427 . S
C1367 C814 1.674 . S
C1365 C571 1.689 . S
C1378 C806 1.390 . S
C1376 C404 1.405 . S
