# Generated by pormake.
# Topology gar, (4,6)-cn, num edge types: 1
# Building blocks:
#     Node 0, Type 0, BuildingBlock: TATPOV_clean_sbu_0, # of connection points: 4
#     Node 1, Type 0, BuildingBlock: TATPOV_clean_sbu_0, # of connection points: 4
#     Node 2, Type 0, BuildingBlock: TATPOV_clean_sbu_0, # of connection points: 4
#     Node 3, Type 0, BuildingBlock: TATPOV_clean_sbu_0, # of connection points: 4
#     Node 4, Type 0, BuildingBlock: TATPOV_clean_sbu_0, # of connection points: 4
#     Node 5, Type 0, BuildingBlock: TATPOV_clean_sbu_0, # of connection points: 4
#     Node 6, Type 0, BuildingBlock: TATPOV_clean_sbu_0, # of connection points: 4
#     Node 7, Type 0, BuildingBlock: TATPOV_clean_sbu_0, # of connection points: 4
#     Node 8, Type 0, BuildingBlock: TATPOV_clean_sbu_0, # of connection points: 4
#     Node 9, Type 0, BuildingBlock: TATPOV_clean_sbu_0, # of connection points: 4
#     Node 10, Type 0, BuildingBlock: TATPOV_clean_sbu_0, # of connection points: 4
#     Node 11, Type 0, BuildingBlock: TATPOV_clean_sbu_0, # of connection points: 4
#     Node 12, Type 0, BuildingBlock: TATPOV_clean_sbu_0, # of connection points: 4
#     Node 13, Type 0, BuildingBlock: TATPOV_clean_sbu_0, # of connection points: 4
#     Node 14, Type 0, BuildingBlock: TATPOV_clean_sbu_0, # of connection points: 4
#     Node 15, Type 0, BuildingBlock: TATPOV_clean_sbu_0, # of connection points: 4
#     Node 16, Type 0, BuildingBlock: TATPOV_clean_sbu_0, # of connection points: 4
#     Node 17, Type 0, BuildingBlock: TATPOV_clean_sbu_0, # of connection points: 4
#     Node 18, Type 0, BuildingBlock: TATPOV_clean_sbu_0, # of connection points: 4
#     Node 19, Type 0, BuildingBlock: TATPOV_clean_sbu_0, # of connection points: 4
#     Node 20, Type 0, BuildingBlock: TATPOV_clean_sbu_0, # of connection points: 4
#     Node 21, Type 0, BuildingBlock: TATPOV_clean_sbu_0, # of connection points: 4
#     Node 22, Type 0, BuildingBlock: TATPOV_clean_sbu_0, # of connection points: 4
#     Node 23, Type 0, BuildingBlock: TATPOV_clean_sbu_0, # of connection points: 4
#     Node 24, Type 1, BuildingBlock: BETDEL_clean_sbu_0, # of connection points: 6
#     Node 25, Type 1, BuildingBlock: BETDEL_clean_sbu_0, # of connection points: 6
#     Node 26, Type 1, BuildingBlock: BETDEL_clean_sbu_0, # of connection points: 6
#     Node 27, Type 1, BuildingBlock: BETDEL_clean_sbu_0, # of connection points: 6
#     Node 28, Type 1, BuildingBlock: BETDEL_clean_sbu_0, # of connection points: 6
#     Node 29, Type 1, BuildingBlock: BETDEL_clean_sbu_0, # of connection points: 6
#     Node 30, Type 1, BuildingBlock: BETDEL_clean_sbu_0, # of connection points: 6
#     Node 31, Type 1, BuildingBlock: BETDEL_clean_sbu_0, # of connection points: 6
#     Node 32, Type 1, BuildingBlock: BETDEL_clean_sbu_0, # of connection points: 6
#     Node 33, Type 1, BuildingBlock: BETDEL_clean_sbu_0, # of connection points: 6
#     Node 34, Type 1, BuildingBlock: BETDEL_clean_sbu_0, # of connection points: 6
#     Node 35, Type 1, BuildingBlock: BETDEL_clean_sbu_0, # of connection points: 6
#     Node 36, Type 1, BuildingBlock: BETDEL_clean_sbu_0, # of connection points: 6
#     Node 37, Type 1, BuildingBlock: BETDEL_clean_sbu_0, # of connection points: 6
#     Node 38, Type 1, BuildingBlock: BETDEL_clean_sbu_0, # of connection points: 6
#     Node 39, Type 1, BuildingBlock: BETDEL_clean_sbu_0, # of connection points: 6
#     Edge 40, Type (0, 1), BuildingBlock: ZUJKAS_clean_linker_0, # of connection points: 2
#     Edge 41, Type (0, 1), BuildingBlock: ZUJKAS_clean_linker_0, # of connection points: 2
#     Edge 42, Type (0, 1), BuildingBlock: ZUJKAS_clean_linker_0, # of connection points: 2
#     Edge 43, Type (0, 1), BuildingBlock: ZUJKAS_clean_linker_0, # of connection points: 2
#     Edge 44, Type (0, 1), BuildingBlock: ZUJKAS_clean_linker_0, # of connection points: 2
#     Edge 45, Type (0, 1), BuildingBlock: ZUJKAS_clean_linker_0, # of connection points: 2
#     Edge 46, Type (0, 1), BuildingBlock: ZUJKAS_clean_linker_0, # of connection points: 2
#     Edge 47, Type (0, 1), BuildingBlock: ZUJKAS_clean_linker_0, # of connection points: 2
#     Edge 48, Type (0, 1), BuildingBlock: ZUJKAS_clean_linker_0, # of connection points: 2
#     Edge 49, Type (0, 1), BuildingBlock: ZUJKAS_clean_linker_0, # of connection points: 2
#     Edge 50, Type (0, 1), BuildingBlock: ZUJKAS_clean_linker_0, # of connection points: 2
#     Edge 51, Type (0, 1), BuildingBlock: ZUJKAS_clean_linker_0, # of connection points: 2
#     Edge 52, Type (0, 1), BuildingBlock: ZUJKAS_clean_linker_0, # of connection points: 2
#     Edge 53, Type (0, 1), BuildingBlock: ZUJKAS_clean_linker_0, # of connection points: 2
#     Edge 54, Type (0, 1), BuildingBlock: ZUJKAS_clean_linker_0, # of connection points: 2
#     Edge 55, Type (0, 1), BuildingBlock: ZUJKAS_clean_linker_0, # of connection points: 2
#     Edge 56, Type (0, 1), BuildingBlock: ZUJKAS_clean_linker_0, # of connection points: 2
#     Edge 57, Type (0, 1), BuildingBlock: ZUJKAS_clean_linker_0, # of connection points: 2
#     Edge 58, Type (0, 1), BuildingBlock: ZUJKAS_clean_linker_0, # of connection points: 2
#     Edge 59, Type (0, 1), BuildingBlock: ZUJKAS_clean_linker_0, # of connection points: 2
#     Edge 60, Type (0, 1), BuildingBlock: ZUJKAS_clean_linker_0, # of connection points: 2
#     Edge 61, Type (0, 1), BuildingBlock: ZUJKAS_clean_linker_0, # of connection points: 2
#     Edge 62, Type (0, 1), BuildingBlock: ZUJKAS_clean_linker_0, # of connection points: 2
#     Edge 63, Type (0, 1), BuildingBlock: ZUJKAS_clean_linker_0, # of connection points: 2
#     Edge 64, Type (0, 1), BuildingBlock: ZUJKAS_clean_linker_0, # of connection points: 2
#     Edge 65, Type (0, 1), BuildingBlock: ZUJKAS_clean_linker_0, # of connection points: 2
#     Edge 66, Type (0, 1), BuildingBlock: ZUJKAS_clean_linker_0, # of connection points: 2
#     Edge 67, Type (0, 1), BuildingBlock: ZUJKAS_clean_linker_0, # of connection points: 2
#     Edge 68, Type (0, 1), BuildingBlock: ZUJKAS_clean_linker_0, # of connection points: 2
#     Edge 69, Type (0, 1), BuildingBlock: ZUJKAS_clean_linker_0, # of connection points: 2
#     Edge 70, Type (0, 1), BuildingBlock: ZUJKAS_clean_linker_0, # of connection points: 2
#     Edge 71, Type (0, 1), BuildingBlock: ZUJKAS_clean_linker_0, # of connection points: 2
#     Edge 72, Type (0, 1), BuildingBlock: ZUJKAS_clean_linker_0, # of connection points: 2
#     Edge 73, Type (0, 1), BuildingBlock: ZUJKAS_clean_linker_0, # of connection points: 2
#     Edge 74, Type (0, 1), BuildingBlock: ZUJKAS_clean_linker_0, # of connection points: 2
#     Edge 75, Type (0, 1), BuildingBlock: ZUJKAS_clean_linker_0, # of connection points: 2
#     Edge 76, Type (0, 1), BuildingBlock: ZUJKAS_clean_linker_0, # of connection points: 2
#     Edge 77, Type (0, 1), BuildingBlock: ZUJKAS_clean_linker_0, # of connection points: 2
#     Edge 78, Type (0, 1), BuildingBlock: ZUJKAS_clean_linker_0, # of connection points: 2
#     Edge 79, Type (0, 1), BuildingBlock: ZUJKAS_clean_linker_0, # of connection points: 2
#     Edge 80, Type (0, 1), BuildingBlock: ZUJKAS_clean_linker_0, # of connection points: 2
#     Edge 81, Type (0, 1), BuildingBlock: ZUJKAS_clean_linker_0, # of connection points: 2
#     Edge 82, Type (0, 1), BuildingBlock: ZUJKAS_clean_linker_0, # of connection points: 2
#     Edge 83, Type (0, 1), BuildingBlock: ZUJKAS_clean_linker_0, # of connection points: 2
#     Edge 84, Type (0, 1), BuildingBlock: ZUJKAS_clean_linker_0, # of connection points: 2
#     Edge 85, Type (0, 1), BuildingBlock: ZUJKAS_clean_linker_0, # of connection points: 2
#     Edge 86, Type (0, 1), BuildingBlock: ZUJKAS_clean_linker_0, # of connection points: 2
#     Edge 87, Type (0, 1), BuildingBlock: ZUJKAS_clean_linker_0, # of connection points: 2
#     Edge 88, Type (0, 1), BuildingBlock: ZUJKAS_clean_linker_0, # of connection points: 2
#     Edge 89, Type (0, 1), BuildingBlock: ZUJKAS_clean_linker_0, # of connection points: 2
#     Edge 90, Type (0, 1), BuildingBlock: ZUJKAS_clean_linker_0, # of connection points: 2
#     Edge 91, Type (0, 1), BuildingBlock: ZUJKAS_clean_linker_0, # of connection points: 2
#     Edge 92, Type (0, 1), BuildingBlock: ZUJKAS_clean_linker_0, # of connection points: 2
#     Edge 93, Type (0, 1), BuildingBlock: ZUJKAS_clean_linker_0, # of connection points: 2
#     Edge 94, Type (0, 1), BuildingBlock: ZUJKAS_clean_linker_0, # of connection points: 2
#     Edge 95, Type (0, 1), BuildingBlock: ZUJKAS_clean_linker_0, # of connection points: 2
#     Edge 96, Type (0, 1), BuildingBlock: ZUJKAS_clean_linker_0, # of connection points: 2
#     Edge 97, Type (0, 1), BuildingBlock: ZUJKAS_clean_linker_0, # of connection points: 2
#     Edge 98, Type (0, 1), BuildingBlock: ZUJKAS_clean_linker_0, # of connection points: 2
#     Edge 99, Type (0, 1), BuildingBlock: ZUJKAS_clean_linker_0, # of connection points: 2
#     Edge 100, Type (0, 1), BuildingBlock: ZUJKAS_clean_linker_0, # of connection points: 2
#     Edge 101, Type (0, 1), BuildingBlock: ZUJKAS_clean_linker_0, # of connection points: 2
#     Edge 102, Type (0, 1), BuildingBlock: ZUJKAS_clean_linker_0, # of connection points: 2
#     Edge 103, Type (0, 1), BuildingBlock: ZUJKAS_clean_linker_0, # of connection points: 2
#     Edge 104, Type (0, 1), BuildingBlock: ZUJKAS_clean_linker_0, # of connection points: 2
#     Edge 105, Type (0, 1), BuildingBlock: ZUJKAS_clean_linker_0, # of connection points: 2
#     Edge 106, Type (0, 1), BuildingBlock: ZUJKAS_clean_linker_0, # of connection points: 2
#     Edge 107, Type (0, 1), BuildingBlock: ZUJKAS_clean_linker_0, # of connection points: 2
#     Edge 108, Type (0, 1), BuildingBlock: ZUJKAS_clean_linker_0, # of connection points: 2
#     Edge 109, Type (0, 1), BuildingBlock: ZUJKAS_clean_linker_0, # of connection points: 2
#     Edge 110, Type (0, 1), BuildingBlock: ZUJKAS_clean_linker_0, # of connection points: 2
#     Edge 111, Type (0, 1), BuildingBlock: ZUJKAS_clean_linker_0, # of connection points: 2
#     Edge 112, Type (0, 1), BuildingBlock: ZUJKAS_clean_linker_0, # of connection points: 2
#     Edge 113, Type (0, 1), BuildingBlock: ZUJKAS_clean_linker_0, # of connection points: 2
#     Edge 114, Type (0, 1), BuildingBlock: ZUJKAS_clean_linker_0, # of connection points: 2
#     Edge 115, Type (0, 1), BuildingBlock: ZUJKAS_clean_linker_0, # of connection points: 2
#     Edge 116, Type (0, 1), BuildingBlock: ZUJKAS_clean_linker_0, # of connection points: 2
#     Edge 117, Type (0, 1), BuildingBlock: ZUJKAS_clean_linker_0, # of connection points: 2
#     Edge 118, Type (0, 1), BuildingBlock: ZUJKAS_clean_linker_0, # of connection points: 2
#     Edge 119, Type (0, 1), BuildingBlock: ZUJKAS_clean_linker_0, # of connection points: 2
#     Edge 120, Type (0, 1), BuildingBlock: ZUJKAS_clean_linker_0, # of connection points: 2
#     Edge 121, Type (0, 1), BuildingBlock: ZUJKAS_clean_linker_0, # of connection points: 2
#     Edge 122, Type (0, 1), BuildingBlock: ZUJKAS_clean_linker_0, # of connection points: 2
#     Edge 123, Type (0, 1), BuildingBlock: ZUJKAS_clean_linker_0, # of connection points: 2
#     Edge 124, Type (0, 1), BuildingBlock: ZUJKAS_clean_linker_0, # of connection points: 2
#     Edge 125, Type (0, 1), BuildingBlock: ZUJKAS_clean_linker_0, # of connection points: 2
#     Edge 126, Type (0, 1), BuildingBlock: ZUJKAS_clean_linker_0, # of connection points: 2
#     Edge 127, Type (0, 1), BuildingBlock: ZUJKAS_clean_linker_0, # of connection points: 2
#     Edge 128, Type (0, 1), BuildingBlock: ZUJKAS_clean_linker_0, # of connection points: 2
#     Edge 129, Type (0, 1), BuildingBlock: ZUJKAS_clean_linker_0, # of connection points: 2
#     Edge 130, Type (0, 1), BuildingBlock: ZUJKAS_clean_linker_0, # of connection points: 2
#     Edge 131, Type (0, 1), BuildingBlock: ZUJKAS_clean_linker_0, # of connection points: 2
#     Edge 132, Type (0, 1), BuildingBlock: ZUJKAS_clean_linker_0, # of connection points: 2
#     Edge 133, Type (0, 1), BuildingBlock: ZUJKAS_clean_linker_0, # of connection points: 2
#     Edge 134, Type (0, 1), BuildingBlock: ZUJKAS_clean_linker_0, # of connection points: 2
#     Edge 135, Type (0, 1), BuildingBlock: ZUJKAS_clean_linker_0, # of connection points: 2
# Relax obj value: 0.146
# Max RMSD: 0.263
# Mean RMSD: 0.167
data_MOF--net-gar--node1-TATPOV_clean_sbu_0--node2-BETDEL_clean_sbu_0--edge1-ZUJKAS_clean_linker_0
_symmetry_space_group_name_H-M    P1
_symmetry_Int_Tables_number       1
_symmetry_cell_setting            triclinic
loop_
_symmetry_equiv_pos_as_xyz
'x, y, z'
_cell_length_a     70.953023
_cell_length_b     68.359337
_cell_length_c     70.00998
_cell_angle_alpha  95.453726
_cell_angle_beta   93.130627
_cell_angle_gamma 102.2843
loop_
_atom_site_label
_atom_site_type_symbol
_atom_site_fract_x
_atom_site_fract_y
_atom_site_fract_z
_atom_type_partial_charge
Zn0 Zn 0.00181 0.27243 0.44677 0.0
Zn1 Zn 0.0277 0.2753 0.42059 0.0
O2 O 0.03682 0.30182 0.43862 0.0
O3 O 0.01656 0.29818 0.46144 0.0
O4 O 0.04837 0.27688 0.40168 0.0
O5 O 0.00699 0.24652 0.45387 0.0
O6 O 0.02865 0.24865 0.43239 0.0
C7 C 0.03104 0.30839 0.45442 0.0
C8 C 0.98538 0.27446 0.40859 0.0
O9 O 0.0027 0.27531 0.4041 0.0
O10 O 0.98128 0.27297 0.42585 0.0
C11 C 0.04682 0.26399 0.38701 0.0
O12 O 0.03117 0.2495 0.38386 0.0
C13 C 0.01971 0.23938 0.44537 0.0
Zn14 Zn 0.98308 0.72787 0.66328 0.0
Zn15 Zn 0.98792 0.75852 0.64113 0.0
O16 O 0.96685 0.76393 0.65887 0.0
O17 O 0.96331 0.73937 0.67746 0.0
O18 O 0.9915 0.78181 0.62497 0.0
O19 O 0.0113 0.73597 0.67249 0.0
O20 O 0.01533 0.76048 0.65384 0.0
C21 C 0.9587 0.75516 0.6725 0.0
C22 C 0.97488 0.71487 0.62269 0.0
O23 O 0.97935 0.73371 0.62128 0.0
O24 O 0.97512 0.70847 0.63908 0.0
C25 C 0.97886 0.78265 0.61165 0.0
O26 O 0.96323 0.76813 0.60852 0.0
C27 C 0.02229 0.75045 0.66584 0.0
Zn28 Zn 0.49051 0.76502 0.94197 0.0
Zn29 Zn 0.5218 0.77163 0.92183 0.0
O30 O 0.52636 0.79823 0.93987 0.0
O31 O 0.50016 0.79286 0.95582 0.0
O32 O 0.54521 0.77402 0.90617 0.0
O33 O 0.49781 0.74124 0.95263 0.0
O34 O 0.52266 0.74573 0.93483 0.0
C35 C 0.51587 0.8043 0.95239 0.0
C36 C 0.48077 0.76547 0.90192 0.0
O37 O 0.49912 0.7697 0.90156 0.0
O38 O 0.47317 0.76169 0.91748 0.0
C39 C 0.54646 0.78204 0.89049 0.0
O40 O 0.53237 0.79015 0.88435 0.0
C41 C 0.51263 0.73579 0.94671 0.0
Zn42 Zn 0.48124 0.22146 0.15419 0.0
Zn43 Zn 0.48721 0.25334 0.13365 0.0
O44 O 0.46616 0.25866 0.1516 0.0
O45 O 0.46117 0.2326 0.16832 0.0
O46 O 0.49112 0.2771 0.11796 0.0
O47 O 0.50939 0.22907 0.16404 0.0
O48 O 0.51442 0.25464 0.14665 0.0
C49 C 0.45729 0.24909 0.16443 0.0
C50 C 0.47394 0.21007 0.11351 0.0
O51 O 0.47869 0.22906 0.11303 0.0
O52 O 0.47365 0.20281 0.12951 0.0
C53 C 0.47833 0.27821 0.10487 0.0
O54 O 0.46257 0.26384 0.10188 0.0
C55 C 0.52082 0.24383 0.15826 0.0
Zn56 Zn 0.06441 0.79905 0.12807 0.0
Zn57 Zn 0.0352 0.79369 0.15081 0.0
O58 O 0.02966 0.81481 0.1331 0.0
O59 O 0.05372 0.81906 0.11429 0.0
O60 O 0.01228 0.79087 0.16714 0.0
O61 O 0.05685 0.76984 0.11779 0.0
O62 O 0.0332 0.76491 0.13713 0.0
C63 C 0.03809 0.82324 0.11942 0.0
C64 C 0.07709 0.80862 0.16828 0.0
O65 O 0.05903 0.80344 0.17045 0.0
O66 O 0.08301 0.80816 0.15154 0.0
C67 C 0.009 0.80658 0.17641 0.0
O68 O 0.02104 0.82394 0.17563 0.0
C69 C 0.04287 0.75814 0.12418 0.0
Zn70 Zn 0.46192 0.74859 0.39116 0.0
Zn71 Zn 0.49236 0.75606 0.36976 0.0
O72 O 0.49448 0.78394 0.38489 0.0
O73 O 0.46948 0.77769 0.40246 0.0
O74 O 0.51515 0.75859 0.35332 0.0
O75 O 0.47232 0.72763 0.40387 0.0
O76 O 0.4973 0.73403 0.38641 0.0
C77 C 0.48394 0.78991 0.39742 0.0
C78 C 0.45065 0.74295 0.35089 0.0
O79 O 0.46883 0.74866 0.34974 0.0
O80 O 0.44394 0.74103 0.36716 0.0
C81 C 0.53149 0.77039 0.35813 0.0
O82 O 0.53375 0.78254 0.3742 0.0
C83 C 0.4884 0.72433 0.39912 0.0
Zn84 Zn 0.57387 0.30715 0.63894 0.0
Zn85 Zn 0.54233 0.30071 0.65873 0.0
O86 O 0.53773 0.32125 0.64014 0.0
O87 O 0.56349 0.32639 0.62362 0.0
O88 O 0.51848 0.29773 0.67371 0.0
O89 O 0.56771 0.27762 0.62942 0.0
O90 O 0.54129 0.27228 0.64504 0.0
C91 C 0.54714 0.32987 0.62713 0.0
C92 C 0.58299 0.31679 0.67945 0.0
O93 O 0.56476 0.3106 0.6799 0.0
O94 O 0.5905 0.31722 0.66347 0.0
C95 C 0.5135 0.31369 0.6804 0.0
O96 O 0.52419 0.33125 0.67763 0.0
C97 C 0.55275 0.26572 0.63388 0.0
Zn98 Zn 0.96004 0.24464 0.87442 0.0
Zn99 Zn 0.99352 0.25389 0.85818 0.0
O100 O 0.99337 0.28102 0.87355 0.0
O101 O 0.96517 0.27378 0.88597 0.0
O102 O 0.01905 0.25773 0.84614 0.0
O103 O 0.96882 0.22417 0.88925 0.0
O104 O 0.9959 0.23103 0.87495 0.0
C105 C 0.98058 0.28639 0.88372 0.0
C106 C 0.9551 0.23987 0.83332 0.0
O107 O 0.97322 0.24737 0.83491 0.0
O108 O 0.94609 0.23617 0.84814 0.0
C109 C 0.02245 0.26535 0.83048 0.0
O110 O 0.00893 0.27231 0.8215 0.0
C111 C 0.98545 0.22105 0.88651 0.0
Zn112 Zn 0.44822 0.05228 0.25695 0.0
Zn113 Zn 0.42046 0.07292 0.26341 0.0
O114 O 0.43811 0.08065 0.28858 0.0
O115 O 0.46128 0.0644 0.28295 0.0
O116 O 0.39928 0.08813 0.26713 0.0
O117 O 0.45504 0.06665 0.23378 0.0
O118 O 0.43189 0.08306 0.23862 0.0
C119 C 0.45388 0.07598 0.29399 0.0
C120 C 0.41051 0.02658 0.25714 0.0
O121 O 0.40575 0.04341 0.26078 0.0
O122 O 0.42793 0.0261 0.25446 0.0
C123 C 0.38352 0.08249 0.25656 0.0
O124 O 0.3815 0.06688 0.24354 0.0
C125 C 0.44557 0.07931 0.22879 0.0
Zn126 Zn 0.23312 0.16726 0.49084 0.0
Zn127 Zn 0.26176 0.14789 0.49086 0.0
O128 O 0.26649 0.16522 0.4678 0.0
O129 O 0.24276 0.18134 0.46841 0.0
O130 O 0.2835 0.13278 0.49101 0.0
O131 O 0.24184 0.1801 0.51773 0.0
O132 O 0.26564 0.16406 0.51801 0.0
C133 C 0.25765 0.17773 0.46089 0.0
C134 C 0.21911 0.1246 0.4855 0.0
O135 O 0.23714 0.12474 0.48712 0.0
O136 O 0.21355 0.14105 0.48638 0.0
C137 C 0.30015 0.14004 0.48563 0.0
O138 O 0.30358 0.15807 0.47976 0.0
C139 C 0.25645 0.17612 0.52642 0.0
Zn140 Zn 0.12154 0.03113 0.79446 0.0
Zn141 Zn 0.14646 0.00775 0.78804 0.0
O142 O 0.1319 0.99651 0.81125 0.0
O143 O 0.11238 0.01719 0.81705 0.0
O144 O 0.16441 0.98881 0.7822 0.0
O145 O 0.10836 0.02277 0.76792 0.0
O146 O 0.1303 0.00505 0.76202 0.0
C147 C 0.11913 0.00231 0.82118 0.0
C148 C 0.16093 0.05347 0.79772 0.0
O149 O 0.16465 0.03609 0.79399 0.0
O150 O 0.14358 0.0552 0.79866 0.0
C151 C 0.17382 0.98214 0.79515 0.0
O152 O 0.17232 0.988 0.81333 0.0
C153 C 0.11573 0.01173 0.7563 0.0
Zn154 Zn 0.2709 0.86826 0.01263 0.0
Zn155 Zn 0.24344 0.88784 0.00248 0.0
O156 O 0.24426 0.86944 0.97767 0.0
O157 O 0.26809 0.85491 0.98546 0.0
O158 O 0.22324 0.90351 0.9965 0.0
O159 O 0.25419 0.85557 0.03233 0.0
O160 O 0.23275 0.87334 0.02533 0.0
C161 C 0.25536 0.85758 0.97318 0.0
C162 C 0.28514 0.91076 0.01555 0.0
O163 O 0.26797 0.91012 0.00879 0.0
O164 O 0.29006 0.89473 0.01938 0.0
C165 C 0.227 0.91957 0.98831 0.0
O166 O 0.24432 0.9256 0.98238 0.0
C167 C 0.2384 0.86071 0.03529 0.0
Zn168 Zn 0.27725 0.36928 0.03529 0.0
Zn169 Zn 0.25127 0.39122 0.03179 0.0
O170 O 0.24939 0.3759 0.0044 0.0
O171 O 0.27196 0.35849 0.00737 0.0
O172 O 0.23057 0.40758 0.0307 0.0
O173 O 0.2638 0.35414 0.05531 0.0
O174 O 0.24308 0.37384 0.05432 0.0
C175 C 0.25905 0.36369 0.99705 0.0
C176 C 0.294 0.41138 0.04205 0.0
O177 O 0.27685 0.41287 0.03707 0.0
O178 O 0.2978 0.39427 0.04337 0.0
C179 C 0.2275 0.41722 0.01659 0.0
O180 O 0.23813 0.41668 0.00184 0.0
C181 C 0.24921 0.3597 0.06162 0.0
Zn182 Zn 0.75291 0.17887 0.006 0.0
Zn183 Zn 0.77897 0.15731 0.01161 0.0
O184 O 0.78408 0.16694 0.98499 0.0
O185 O 0.75955 0.18093 0.97877 0.0
O186 O 0.7989 0.14071 0.01524 0.0
O187 O 0.76678 0.20015 0.02665 0.0
O188 O 0.78575 0.17993 0.03418 0.0
C189 C 0.77463 0.17547 0.9736 0.0
C190 C 0.7359 0.13934 0.01423 0.0
O191 O 0.75317 0.13705 0.01315 0.0
O192 O 0.73201 0.15636 0.01264 0.0
C193 C 0.79629 0.12317 0.00626 0.0
O194 O 0.78044 0.11613 0.99492 0.0
C195 C 0.78012 0.19636 0.03748 0.0
Zn196 Zn 0.08858 0.53109 0.24461 0.0
Zn197 Zn 0.11507 0.50857 0.24311 0.0
O198 O 0.09891 0.49865 0.26534 0.0
O199 O 0.07576 0.51554 0.26506 0.0
O200 O 0.1349 0.49148 0.24274 0.0
O201 O 0.08041 0.5216 0.21668 0.0
O202 O 0.10091 0.50153 0.21607 0.0
C203 C 0.08356 0.50248 0.27198 0.0
C204 C 0.12731 0.55456 0.25207 0.0
O205 O 0.13157 0.5375 0.24821 0.0
O206 O 0.10978 0.55586 0.25219 0.0
C207 C 0.14772 0.49392 0.25669 0.0
O208 O 0.1479 0.50785 0.27103 0.0
C209 C 0.08768 0.50838 0.20769 0.0
Zn210 Zn 0.7734 0.86697 0.53543 0.0
Zn211 Zn 0.75012 0.89208 0.53389 0.0
O212 O 0.74707 0.87764 0.50603 0.0
O213 O 0.76529 0.85546 0.50812 0.0
O214 O 0.73058 0.9098 0.53356 0.0
O215 O 0.76077 0.85368 0.55688 0.0
O216 O 0.74121 0.87462 0.55615 0.0
C217 C 0.75403 0.86334 0.49825 0.0
C218 C 0.7937 0.90855 0.54158 0.0
O219 O 0.77676 0.91191 0.53917 0.0
O220 O 0.79596 0.89062 0.54101 0.0
C221 C 0.73183 0.92472 0.52378 0.0
O222 O 0.7466 0.92924 0.51325 0.0
C223 C 0.74676 0.86017 0.56347 0.0
Zn224 Zn 0.91993 0.01595 0.23318 0.0
Zn225 Zn 0.89824 0.04202 0.23586 0.0
O226 O 0.91038 0.04347 0.26408 0.0
O227 O 0.92984 0.02244 0.26067 0.0
O228 O 0.88255 0.06376 0.23666 0.0
O229 O 0.93527 0.02829 0.21301 0.0
O230 O 0.91692 0.05046 0.21421 0.0
C231 C 0.92281 0.03465 0.27131 0.0
C232 C 0.87991 0.99723 0.22512 0.0
O233 O 0.87781 0.01528 0.22868 0.0
O234 O 0.89669 0.99362 0.22576 0.0
C235 C 0.87156 0.06689 0.24985 0.0
O236 O 0.86996 0.05553 0.26405 0.0
C237 C 0.93065 0.04357 0.20693 0.0
Zn238 Zn 0.26052 0.68174 0.48659 0.0
Zn239 Zn 0.28527 0.65954 0.4972 0.0
O240 O 0.29583 0.67072 0.47253 0.0
O241 O 0.27469 0.68801 0.46331 0.0
O242 O 0.30348 0.64176 0.50354 0.0
O243 O 0.26798 0.69902 0.51207 0.0
O244 O 0.28867 0.6809 0.5205 0.0
C245 C 0.28984 0.6815 0.46067 0.0
C246 C 0.24145 0.64132 0.48929 0.0
O247 O 0.25847 0.63981 0.49475 0.0
O248 O 0.23849 0.65784 0.48444 0.0
C249 C 0.30293 0.62612 0.49196 0.0
O250 O 0.29047 0.62224 0.47676 0.0
C251 C 0.28045 0.69555 0.52419 0.0
Zn252 Zn 0.42222 0.52101 0.73611 0.0
Zn253 Zn 0.39692 0.54409 0.73758 0.0
O254 O 0.40728 0.54573 0.76628 0.0
O255 O 0.42807 0.52597 0.76457 0.0
O256 O 0.37918 0.56385 0.7373 0.0
O257 O 0.43914 0.53761 0.71934 0.0
O258 O 0.41625 0.55473 0.71737 0.0
C259 C 0.41948 0.53731 0.77448 0.0
C260 C 0.38332 0.49933 0.72403 0.0
O261 O 0.37918 0.51624 0.72909 0.0
O262 O 0.40079 0.49769 0.72467 0.0
C263 C 0.36985 0.56887 0.75129 0.0
O264 O 0.37104 0.56053 0.76734 0.0
C265 C 0.43235 0.55125 0.71233 0.0
Zn266 Zn 0.59233 0.03453 0.75869 0.0
Zn267 Zn 0.61813 0.01174 0.75149 0.0
O268 O 0.6067 0.00193 0.7762 0.0
O269 O 0.58763 0.02261 0.7836 0.0
O270 O 0.63802 0.99511 0.7473 0.0
O271 O 0.57688 0.02073 0.73414 0.0
O272 O 0.59948 0.0041 0.7272 0.0
C273 C 0.59522 0.00816 0.78748 0.0
C274 C 0.63042 0.05812 0.75648 0.0
O275 O 0.63434 0.04076 0.75405 0.0
O276 O 0.61314 0.05972 0.75839 0.0
C277 C 0.65348 -0.00069 0.75835 0.0
O278 O 0.65608 0.01457 0.77185 0.0
C279 C 0.58337 0.0086 0.72283 0.0
Zn280 Zn 0.74085 0.67442 0.98926 0.0
Zn281 Zn 0.76633 0.65194 0.99189 0.0
O282 O 0.77508 0.66953 0.96978 0.0
O283 O 0.75591 0.69101 0.97101 0.0
O284 O 0.78661 0.63517 0.99366 0.0
O285 O 0.74504 0.68374 0.01736 0.0
O286 O 0.7683 0.66711 0.01943 0.0
C287 C 0.76994 0.68491 0.96402 0.0
C288 C 0.72361 0.63259 0.98039 0.0
O289 O 0.74061 0.63077 0.98558 0.0
O290 O 0.72014 0.64992 0.97961 0.0
C291 C 0.79141 0.62606 0.9786 0.0
O292 O 0.78284 0.62748 0.96183 0.0
C293 C 0.75836 0.67877 0.02726 0.0
Zn294 Zn 0.94354 0.55725 0.77146 0.0
Zn295 Zn 0.91519 0.57761 0.77202 0.0
O296 O 0.92977 0.58701 0.7988 0.0
O297 O 0.95393 0.57142 0.79759 0.0
O298 O 0.89358 0.5925 0.77139 0.0
O299 O 0.95304 0.56942 0.74788 0.0
O300 O 0.92979 0.5862 0.74826 0.0
C301 C 0.94509 0.58324 0.80658 0.0
C302 C 0.90562 0.53137 0.76874 0.0
O303 O 0.90043 0.54814 0.76959 0.0
O304 O 0.92342 0.53103 0.76914 0.0
C305 C 0.88105 0.5906 0.78378 0.0
O306 O 0.88264 0.57919 0.7976 0.0
C307 C 0.94442 0.58168 0.7406 0.0
Zn308 Zn 0.76216 0.34953 0.51762 0.0
Zn309 Zn 0.74021 0.37537 0.50785 0.0
O310 O 0.73628 0.35471 0.48381 0.0
O311 O 0.75349 0.33311 0.49208 0.0
O312 O 0.72355 0.39478 0.50181 0.0
O313 O 0.74655 0.34362 0.54025 0.0
O314 O 0.72892 0.3649 0.53233 0.0
C315 C 0.74248 0.33871 0.47988 0.0
C316 C 0.78417 0.38988 0.51637 0.0
O317 O 0.7676 0.3931 0.51166 0.0
O318 O 0.78581 0.37245 0.51988 0.0
C319 C 0.72677 0.4119 0.5117 0.0
O320 O 0.74117 0.41657 0.5251 0.0
C321 C 0.73281 0.35235 0.54343 0.0
Zn322 Zn 0.61978 0.53129 0.28837 0.0
Zn323 Zn 0.6446 0.5078 0.2871 0.0
O324 O 0.62716 0.49793 0.30908 0.0
O325 O 0.60604 0.51728 0.30881 0.0
O326 O 0.66251 0.48831 0.28439 0.0
O327 O 0.61019 0.52323 0.26085 0.0
O328 O 0.63116 0.50374 0.25944 0.0
C329 C 0.61233 0.50323 0.31567 0.0
C330 C 0.65892 0.55357 0.29631 0.0
O331 O 0.66279 0.53616 0.29343 0.0
O332 O 0.6415 0.55532 0.29535 0.0
C333 C 0.66847 0.47955 0.29801 0.0
O334 O 0.66346 0.48362 0.31549 0.0
C335 C 0.61797 0.51086 0.25129 0.0
Dy336 Dy 0.99205 0.02067 0.00229 0.0
C337 C 0.07264 0.02083 0.00064 0.0
C338 C 0.9551 0.0254 0.00521 0.0
Dy339 Dy 0.03713 0.02808 0.00705 0.0
O340 O 0.96184 0.01886 0.98952 0.0
O341 O 0.96846 0.02899 0.0193 0.0
O342 O 0.992 0.99654 0.97781 0.0
O343 O 0.01517 0.02174 0.98333 0.0
C344 C 0.00915 0.0051 0.97328 0.0
C345 C 0.02058 0.04393 0.03627 0.0
O346 O 0.03433 0.05369 0.99046 0.0
O347 O 0.00224 0.05299 0.99635 0.0
O348 O 0.06963 0.03506 0.01309 0.0
O349 O 0.05637 0.01077 0.99199 0.0
O350 O 0.03818 0.05162 0.03225 0.0
O351 O 0.01414 0.02744 0.02605 0.0
O352 O 0.99397 0.99409 0.01779 0.0
O353 O 0.0273 0.99714 0.01675 0.0
C354 C 0.01904 0.06196 0.9903 0.0
C355 C 0.00992 0.98723 0.02073 0.0
Dy356 Dy 0.26043 0.79064 0.23945 0.0
C357 C 0.29724 0.78548 0.31399 0.0
C358 C 0.23948 0.7972 0.20794 0.0
Dy359 Dy 0.2761 0.79201 0.28253 0.0
O360 O 0.25282 0.78677 0.20758 0.0
O361 O 0.23769 0.80417 0.2255 0.0
O362 O 0.28247 0.77368 0.22899 0.0
O363 O 0.28824 0.79325 0.2548 0.0
C364 C 0.29402 0.77994 0.24444 0.0
C365 C 0.24178 0.8015 0.27663 0.0
O366 O 0.28965 0.82344 0.27756 0.0
O367 O 0.2745 0.82354 0.24707 0.0
O368 O 0.27997 0.7891 0.31419 0.0
O369 O 0.30294 0.78567 0.29672 0.0
O370 O 0.25359 0.8093 0.29168 0.0
O371 O 0.24831 0.78832 0.26699 0.0
O372 O 0.24573 0.75985 0.24542 0.0
O373 O 0.26346 0.75885 0.27427 0.0
C374 C 0.28576 0.83279 0.26254 0.0
C375 C 0.25107 0.74993 0.25946 0.0
Dy376 Dy 0.53752 0.03278 0.50975 0.0
C377 C 0.45834 0.03959 0.49554 0.0
C378 C 0.57251 0.02368 0.51839 0.0
Dy379 Dy 0.49281 0.02973 0.5049 0.0
O380 O 0.56956 0.03655 0.50665 0.0
O381 O 0.55645 0.01614 0.52564 0.0
O382 O 0.54188 0.05521 0.48791 0.0
O383 O 0.51634 0.03277 0.4862 0.0
C384 C 0.52465 0.04842 0.47937 0.0
C385 C 0.50552 0.01416 0.53539 0.0
O386 O 0.49418 0.00202 0.4857 0.0
O387 O 0.52564 0.00098 0.49628 0.0
O388 O 0.4605 0.02572 0.50645 0.0
O389 O 0.47489 0.04769 0.48953 0.0
O390 O 0.48813 0.00769 0.52709 0.0
O391 O 0.5139 0.02966 0.52836 0.0
O392 O 0.5362 0.06004 0.52947 0.0
O393 O 0.50469 0.06135 0.51931 0.0
C394 C 0.50875 0.99263 0.48662 0.0
C395 C 0.52165 0.06947 0.52901 0.0
Dy396 Dy 0.24659 0.27401 0.75634 0.0
C397 C 0.32969 0.29318 0.7606 0.0
C398 C 0.20758 0.26331 0.75928 0.0
Dy399 Dy 0.29077 0.28181 0.76388 0.0
O400 O 0.21595 0.2754 0.74754 0.0
O401 O 0.22051 0.25668 0.76909 0.0
O402 O 0.25018 0.29809 0.73621 0.0
O403 O 0.2701 0.3006 0.76008 0.0
C404 C 0.26635 0.30825 0.74507 0.0
C405 C 0.27122 0.24774 0.77563 0.0
O406 O 0.28477 0.29797 0.79144 0.0
O407 O 0.25139 0.2859 0.78774 0.0
O408 O 0.32082 0.27606 0.76571 0.0
O409 O 0.31733 0.30435 0.7577 0.0
O410 O 0.28745 0.2582 0.78427 0.0
O411 O 0.26722 0.25508 0.76044 0.0
O412 O 0.25288 0.25562 0.73041 0.0
O413 O 0.28544 0.27121 0.73207 0.0
C414 C 0.2674 0.29562 0.79822 0.0
C415 C 0.2697 0.2595 0.72259 0.0
Dy416 Dy 0.00365 0.99467 0.48866 0.0
C417 C 0.04544 0.01825 0.56276 0.0
C418 C 0.97946 0.99052 0.45609 0.0
Dy419 Dy 0.02263 0.01154 0.52908 0.0
O420 O 0.99545 0.98413 0.4572 0.0
O421 O 0.9764 0.99842 0.47292 0.0
O422 O 0.0307 0.98452 0.48066 0.0
O423 O 0.03255 0.00997 0.50042 0.0
C424 C 0.04204 0.99809 0.49287 0.0
C425 C 0.98435 0.00865 0.52461 0.0
O426 O 0.02921 0.04023 0.5154 0.0
O427 O 0.00762 0.02828 0.48861 0.0
O428 O 0.02939 0.02423 0.56012 0.0
O429 O 0.04925 0.00898 0.54686 0.0
O430 O 0.9959 0.02245 0.53635 0.0
O431 O 0.99358 0.99631 0.5174 0.0
O432 O 0.99778 0.96581 0.5021 0.0
O433 O 0.01936 0.97795 0.52893 0.0
C434 C 0.01943 0.04327 0.49965 0.0
C435 C 0.00775 0.96286 0.51778 0.0
Dy436 Dy 0.29667 0.79063 0.75619 0.0
C437 C 0.22094 0.75879 0.71846 0.0
C438 C 0.33139 0.80091 0.77754 0.0
Dy439 Dy 0.25539 0.76939 0.74019 0.0
O440 O 0.32914 0.8004 0.75897 0.0
O441 O 0.31462 0.79633 0.78449 0.0
O442 O 0.30293 0.80105 0.72724 0.0
O443 O 0.28369 0.77347 0.72916 0.0
C444 C 0.29068 0.78585 0.71783 0.0
C445 C 0.26089 0.77437 0.77862 0.0
O446 O 0.26936 0.74286 0.73748 0.0
O447 O 0.29555 0.75782 0.75909 0.0
O448 O 0.22472 0.75166 0.73444 0.0
O449 O 0.23617 0.77132 0.71409 0.0
O450 O 0.24827 0.75955 0.76917 0.0
O451 O 0.26822 0.78643 0.76718 0.0
O452 O 0.28375 0.81783 0.75827 0.0
O453 O 0.25529 0.80244 0.73974 0.0
C454 C 0.28466 0.74167 0.74874 0.0
C455 C 0.26718 0.81873 0.74897 0.0
Dy456 Dy 0.50595 0.04344 0.01985 0.0
C457 C 0.50965 0.99556 0.94813 0.0
C458 C 0.50044 0.06956 0.04991 0.0
Dy459 Dy 0.50446 0.02126 0.97863 0.0
O460 O 0.49289 0.06852 0.03247 0.0
O461 O 0.51109 0.05633 0.05097 0.0
O462 O 0.5148 0.0173 0.03252 0.0
O463 O 0.49727 0.01251 0.00674 0.0
C464 C 0.50679 0.00436 0.01801 0.0
C465 C 0.50377 0.06052 0.98097 0.0
O466 O 0.47316 0.01266 0.98379 0.0
O467 O 0.47437 0.03713 0.00961 0.0
O468 O 0.50228 0.0113 0.9469 0.0
O469 O 0.51404 0.99383 0.96602 0.0
O470 O 0.49499 0.04761 0.96674 0.0
O471 O 0.51335 0.05203 0.99182 0.0
O472 O 0.53705 0.05236 0.01428 0.0
O473 O 0.5361 0.02737 0.98903 0.0
C474 C 0.46454 0.02342 0.9959 0.0
C475 C 0.54583 0.04129 0.00266 0.0
Dy476 Dy 0.25341 0.29794 0.26683 0.0
C477 C 0.25209 0.21304 0.26106 0.0
C478 C 0.2483 0.33584 0.26318 0.0
Dy479 Dy 0.24659 0.25121 0.25972 0.0
O480 O 0.25789 0.33088 0.27767 0.0
O481 O 0.24175 0.32019 0.25079 0.0
O482 O 0.27392 0.29814 0.29272 0.0
O483 O 0.25067 0.27348 0.28459 0.0
C484 C 0.26567 0.27988 0.29577 0.0
C485 C 0.23438 0.26956 0.23098 0.0
O486 O 0.21946 0.25274 0.27385 0.0
O487 O 0.22213 0.2873 0.27324 0.0
O488 O 0.24672 0.22022 0.24562 0.0
O489 O 0.25384 0.22653 0.27577 0.0
O490 O 0.22573 0.25152 0.23429 0.0
O491 O 0.24954 0.27571 0.24198 0.0
O492 O 0.28025 0.29595 0.25231 0.0
O493 O 0.27843 0.26215 0.256 0.0
C494 C 0.2123 0.26916 0.27645 0.0
C495 C 0.28798 0.27988 0.25158 0.0
Dy496 Dy 0.50142 0.49246 0.98464 0.0
C497 C 0.54903 0.51193 0.05863 0.0
C498 C 0.4724 0.48964 0.95681 0.0
Dy499 Dy 0.52467 0.50781 0.02629 0.0
O500 O 0.48535 0.47863 0.95627 0.0
O501 O 0.47501 0.5015 0.97282 0.0
O502 O 0.52818 0.49387 0.96764 0.0
O503 O 0.53037 0.50138 0.99697 0.0
C504 C 0.54021 0.50054 0.98274 0.0
C505 C 0.48644 0.5063 0.02358 0.0
O506 O 0.53194 0.53592 0.01189 0.0
O507 O 0.50673 0.52631 0.98764 0.0
O508 O 0.5338 0.51955 0.0572 0.0
O509 O 0.55121 0.50239 0.04223 0.0
O510 O 0.49855 0.51868 0.03612 0.0
O511 O 0.49517 0.49445 0.01478 0.0
O512 O 0.49843 0.46277 0.99681 0.0
O513 O 0.51882 0.47399 0.0251 0.0
C514 C 0.52089 0.54004 0.99754 0.0
C515 C 0.50779 0.4594 0.01281 0.0
Dy516 Dy 0.79018 0.28569 0.26597 0.0
C517 C 0.71737 0.25333 0.22226 0.0
C518 C 0.82309 0.29641 0.29008 0.0
Dy519 Dy 0.75034 0.26372 0.24637 0.0
O520 O 0.82191 0.2996 0.27212 0.0
O521 O 0.80619 0.28778 0.29498 0.0
O522 O 0.79821 0.29855 0.23838 0.0
O523 O 0.77962 0.27011 0.23767 0.0
C524 C 0.787 0.2836 0.22758 0.0
C525 C 0.75323 0.26596 0.28481 0.0
O526 O 0.76567 0.23816 0.24318 0.0
O527 O 0.7907 0.25281 0.26628 0.0
O528 O 0.72011 0.24562 0.23818 0.0
O529 O 0.73288 0.26629 0.21924 0.0
O530 O 0.74177 0.25123 0.274 0.0
O531 O 0.76081 0.27924 0.27463 0.0
O532 O 0.77567 0.31167 0.26893 0.0
O533 O 0.74903 0.29669 0.24768 0.0
C534 C 0.78075 0.23696 0.25479 0.0
C535 C 0.75973 0.31267 0.25855 0.0
Dy536 Dy 0.00972 0.54104 0.52668 0.0
C537 C 0.01364 0.50323 0.44979 0.0
C538 C 0.00384 0.5633 0.55937 0.0
Dy539 Dy 0.00806 0.52375 0.48357 0.0
O540 O 0.01293 0.54865 0.55884 0.0
O541 O 0.99801 0.56578 0.54207 0.0
O542 O 0.02298 0.51601 0.53589 0.0
O543 O 0.00419 0.51131 0.5108 0.0
C544 C 0.01579 0.50389 0.52054 0.0
C545 C 0.00299 0.56142 0.49033 0.0
O546 O 0.97806 0.50979 0.4901 0.0
O547 O 0.97765 0.53024 0.51857 0.0
O548 O 0.02019 0.50025 0.46669 0.0
O549 O 0.00396 0.51737 0.45134 0.0
O550 O 0.99458 0.54925 0.47547 0.0
O551 O 0.01438 0.55336 0.49954 0.0
O552 O 0.04047 0.55294 0.52101 0.0
O553 O 0.04005 0.53292 0.49203 0.0
C554 C 0.96866 0.51689 0.50412 0.0
C555 C 0.04946 0.54524 0.50697 0.0
Dy556 Dy 0.74417 0.77431 0.25994 0.0
C557 C 0.82696 0.79502 0.25954 0.0
C558 C 0.70547 0.76421 0.26499 0.0
Dy559 Dy 0.78856 0.78287 0.26517 0.0
O560 O 0.71389 0.77916 0.25619 0.0
O561 O 0.71814 0.75434 0.27061 0.0
O562 O 0.74619 0.79829 0.23994 0.0
O563 O 0.76737 0.80139 0.26287 0.0
C564 C 0.76251 0.80891 0.2481 0.0
C565 C 0.77038 0.74811 0.27689 0.0
O566 O 0.78321 0.80035 0.29227 0.0
O567 O 0.75076 0.7845 0.29157 0.0
O568 O 0.81989 0.78183 0.27092 0.0
O569 O 0.81309 0.80193 0.25163 0.0
O570 O 0.78697 0.75845 0.28474 0.0
O571 O 0.76544 0.75585 0.26231 0.0
O572 O 0.74895 0.75699 0.23264 0.0
O573 O 0.78196 0.7709 0.23379 0.0
C574 C 0.76673 0.79608 0.30068 0.0
C575 C 0.76566 0.76009 0.22453 0.0
Dy576 Dy 0.75938 0.29512 0.74668 0.0
C577 C 0.7968 0.28238 0.81801 0.0
C578 C 0.73661 0.3035 0.7174 0.0
Dy579 Dy 0.7772 0.29334 0.78773 0.0
O580 O 0.74867 0.29167 0.71552 0.0
O581 O 0.73718 0.31098 0.73522 0.0
O582 O 0.78205 0.28073 0.73341 0.0
O583 O 0.78842 0.29866 0.76 0.0
C584 C 0.79455 0.28688 0.74818 0.0
C585 C 0.74169 0.30088 0.78542 0.0
O586 O 0.79152 0.32497 0.78387 0.0
O587 O 0.7717 0.32789 0.75711 0.0
O588 O 0.78412 0.29353 0.8195 0.0
O589 O 0.79909 0.27772 0.80001 0.0
O590 O 0.75409 0.308 0.80009 0.0
O591 O 0.74834 0.28913 0.77415 0.0
O592 O 0.74557 0.26342 0.7507 0.0
O593 O 0.76608 0.2605 0.77677 0.0
C594 C 0.78504 0.33596 0.77141 0.0
C595 C 0.75267 0.25235 0.76261 0.0
Dy596 Dy 0.7504 0.79941 0.76732 0.0
C597 C 0.74567 0.71367 0.76312 0.0
C598 C 0.74694 0.83745 0.76209 0.0
Dy599 Dy 0.74179 0.75237 0.7613 0.0
O600 O 0.7576 0.83293 0.77602 0.0
O601 O 0.7383 0.82126 0.7512 0.0
O602 O 0.77094 0.79984 0.79325 0.0
O603 O 0.74736 0.77543 0.78563 0.0
C604 C 0.76253 0.78173 0.79659 0.0
C605 C 0.72986 0.77056 0.73232 0.0
O606 O 0.71495 0.75567 0.7754 0.0
O607 O 0.71948 0.79051 0.77509 0.0
O608 O 0.7447 0.72218 0.74737 0.0
O609 O 0.74381 0.72611 0.77772 0.0
O610 O 0.72074 0.75282 0.73604 0.0
O611 O 0.74525 0.77639 0.74303 0.0
O612 O 0.77647 0.79555 0.75249 0.0
O613 O 0.7739 0.76217 0.75825 0.0
C614 C 0.7089 0.77275 0.77837 0.0
C615 C 0.78378 0.77928 0.7528 0.0
Dy616 Dy 0.49726 0.52238 0.50622 0.0
C617 C 0.57883 0.52336 0.51066 0.0
C618 C 0.4606 0.52839 0.50812 0.0
Dy619 Dy 0.54205 0.52895 0.51285 0.0
O620 O 0.46594 0.5164 0.49495 0.0
O621 O 0.47519 0.53679 0.52026 0.0
O622 O 0.49752 0.49876 0.48144 0.0
O623 O 0.52114 0.52333 0.48819 0.0
C624 C 0.5151 0.5069 0.4778 0.0
C625 C 0.52427 0.54438 0.54139 0.0
O626 O 0.54133 0.5563 0.49818 0.0
O627 O 0.50818 0.55426 0.49945 0.0
O628 O 0.57176 0.52951 0.52631 0.0
O629 O 0.56591 0.52064 0.49626 0.0
O630 O 0.54191 0.55239 0.53775 0.0
O631 O 0.51815 0.52799 0.53093 0.0
O632 O 0.49854 0.49633 0.52267 0.0
O633 O 0.53082 0.49654 0.51804 0.0
C634 C 0.52577 0.56395 0.49592 0.0
C635 C 0.51362 0.48774 0.52338 0.0
Dy636 Dy 0.03255 0.52493 0.0048 0.0
C637 C 0.95086 0.52843 0.99673 0.0
C638 C 0.06873 0.5174 0.0098 0.0
Dy639 Dy 0.98701 0.52107 0.00241 0.0
O640 O 0.06041 0.5199 0.99349 0.0
O641 O 0.05747 0.51957 0.02353 0.0
O642 O 0.03664 0.5516 0.98768 0.0
O643 O 0.01048 0.5298 0.98421 0.0
C644 C 0.0188 0.547 0.98033 0.0
C645 C 0.00091 0.49942 0.02726 0.0
O646 O 0.98846 0.495 0.98115 0.0
O647 O 0.0203 0.49374 0.9902 0.0
O648 O 0.9597 0.52803 0.01339 0.0
O649 O 0.96159 0.52429 0.98309 0.0
O650 O 0.9829 0.49493 0.0204 0.0
O651 O 0.00904 0.51643 0.0229 0.0
O652 O 0.03082 0.54993 0.02711 0.0
O653 O 0.99951 0.55233 0.01708 0.0
C654 C 0.00328 0.48597 0.98058 0.0
C655 C 0.01627 0.55936 0.02746 0.0
H656 H 0.02076 0.21064 0.88527 0.0
H657 H 0.03257 0.18627 0.90369 0.0
H658 H 0.97842 0.17343 0.93008 0.0
H659 H 0.96659 0.1977 0.91203 0.0
H660 H 0.01223 0.18088 0.95627 0.0
H661 H 0.01411 0.12403 0.8942 0.0
H662 H 0.02669 0.14957 0.89268 0.0
H663 H 0.0008 0.14364 0.8925 0.0
C664 C 0.01136 0.20257 0.89495 0.0
C665 C 0.99271 0.20608 0.89713 0.0
C666 C 0.01811 0.18863 0.90541 0.0
C667 C 0.00629 0.17799 0.91812 0.0
C668 C 0.98775 0.18152 0.92034 0.0
H669 H 0.9921 0.08515 0.99021 0.0
H670 H 0.99263 0.11515 0.97382 0.0
C671 C 0.98101 0.19537 0.90994 0.0
C672 C 0.01297 0.16313 0.92931 0.0
H673 H 0.02127 0.1156 0.92509 0.0
C674 C 0.01447 0.1667 0.94947 0.0
C675 C 0.016 0.14475 0.92036 0.0
C676 C 0.01424 0.14008 0.89875 0.0
C677 C 0.0182 0.15204 0.96096 0.0
C678 C 0.02017 0.13323 0.95201 0.0
C679 C 0.0197 0.13005 0.93187 0.0
C680 C 0.02082 0.11603 0.96316 0.0
C681 C 0.01965 0.15666 0.98256 0.0
C682 C 0.03645 0.10647 0.96245 0.0
C683 C 0.03618 0.08923 0.97178 0.0
C684 C 0.02016 0.08113 0.98177 0.0
C685 C 0.00468 0.09097 0.98268 0.0
C686 C 0.00501 0.10822 0.97343 0.0
H687 H 0.02389 0.17314 0.98697 0.0
H688 H 0.00532 0.15095 0.98798 0.0
H689 H 0.03032 0.14926 0.9895 0.0
H690 H 0.04871 0.11221 0.95445 0.0
H691 H 0.04831 0.08197 0.97073 0.0
H692 H 0.07082 0.80899 0.20681 0.0
H693 H 0.09545 0.8152 0.23402 0.0
H694 H 0.14035 0.82622 0.19473 0.0
H695 H 0.11615 0.82064 0.16784 0.0
H696 H 0.12112 0.79339 0.24022 0.0
H697 H 0.16185 0.87062 0.23627 0.0
H698 H 0.13826 0.86101 0.22374 0.0
H699 H 0.1598 0.85689 0.21289 0.0
C700 C 0.08595 0.81317 0.20406 0.0
C701 C 0.09149 0.81425 0.18513 0.0
C702 C 0.1 0.81674 0.21962 0.0
C703 C 0.11978 0.82159 0.2165 0.0
C704 C 0.12523 0.82317 0.19765 0.0
H705 H 0.21417 0.78009 0.25017 0.0
H706 H 0.18301 0.78712 0.24083 0.0
C707 C 0.11129 0.8197 0.18219 0.0
C708 C 0.13491 0.82242 0.23225 0.0
H709 H 0.18105 0.84716 0.24765 0.0
C710 C 0.13398 0.80545 0.24229 0.0
C711 C 0.15157 0.83832 0.23543 0.0
C712 C 0.15279 0.85781 0.22664 0.0
C713 C 0.15 0.80303 0.25373 0.0
C714 C 0.16749 0.81773 0.25479 0.0
C715 C 0.16777 0.83567 0.24649 0.0
C716 C 0.18614 0.81335 0.26165 0.0
C717 C 0.14831 0.78425 0.26379 0.0
C718 C 0.19859 0.82612 0.27614 0.0
C719 C 0.2167 0.82222 0.28141 0.0
C720 C 0.2226 0.80568 0.27203 0.0
C721 C 0.21004 0.79297 0.25764 0.0
C722 C 0.1921 0.79684 0.25242 0.0
H723 H 0.13328 0.77885 0.26777 0.0
H724 H 0.15189 0.77212 0.2539 0.0
H725 H 0.15832 0.78687 0.27699 0.0
H726 H 0.19434 0.83911 0.28325 0.0
H727 H 0.22616 0.83226 0.29252 0.0
H728 H 0.51201 0.82165 0.38883 0.0
H729 H 0.51788 0.85689 0.40301 0.0
H730 H 0.47086 0.84139 0.43916 0.0
H731 H 0.46497 0.8064 0.42534 0.0
H732 H 0.49103 0.88335 0.40407 0.0
H733 H 0.51714 0.87063 0.47704 0.0
H734 H 0.51601 0.85255 0.45621 0.0
H735 H 0.49448 0.8542 0.4681 0.0
C736 C 0.503 0.82575 0.39988 0.0
C737 C 0.48808 0.81118 0.40601 0.0
C738 C 0.50634 0.84586 0.4079 0.0
C739 C 0.49494 0.85163 0.42227 0.0
C740 C 0.48002 0.83716 0.42831 0.0
H741 H 0.47655 0.96878 0.46598 0.0
H742 H 0.47356 0.93495 0.44928 0.0
C743 C 0.47664 0.81716 0.42032 0.0
C744 C 0.49831 0.87279 0.43093 0.0
H745 H 0.50903 0.90227 0.4739 0.0
C746 C 0.49512 0.88758 0.41929 0.0
C747 C 0.50379 0.87822 0.45076 0.0
C748 C 0.50824 0.86312 0.46375 0.0
C749 C 0.4968 0.90763 0.42712 0.0
C750 C 0.50154 0.91287 0.4471 0.0
C751 C 0.50518 0.89816 0.45861 0.0
C752 C 0.50331 0.93363 0.45642 0.0
C753 C 0.49369 0.92305 0.41392 0.0
C754 C 0.52089 0.94391 0.46622 0.0
C755 C 0.52259 0.96307 0.47589 0.0
C756 C 0.5067 0.97239 0.47602 0.0
C757 C 0.48908 0.96209 0.4661 0.0
C758 C 0.48739 0.94282 0.45644 0.0
H759 H 0.495 0.91782 0.39864 0.0
H760 H 0.47892 0.9258 0.41517 0.0
H761 H 0.50424 0.93757 0.41795 0.0
H762 H 0.53333 0.93706 0.46645 0.0
H763 H 0.53641 0.97051 0.48332 0.0
H764 H 0.49626 0.34463 0.69137 0.0
H765 H 0.46624 0.34293 0.70736 0.0
H766 H 0.46015 0.27897 0.70853 0.0
H767 H 0.49016 0.28045 0.69239 0.0
H768 H 0.4283 0.31601 0.69234 0.0
H769 H 0.45443 0.30331 0.76554 0.0
H770 H 0.47058 0.31458 0.74856 0.0
H771 H 0.46067 0.28795 0.74556 0.0
C772 C 0.48863 0.3302 0.69512 0.0
C773 C 0.49562 0.31266 0.69061 0.0
C774 C 0.47148 0.32928 0.70424 0.0
C775 C 0.46113 0.31088 0.70926 0.0
C776 C 0.46809 0.29336 0.70495 0.0
H777 H 0.355 0.26847 0.76104 0.0
H778 H 0.38733 0.27429 0.74932 0.0
C779 C 0.48518 0.29422 0.69567 0.0
C780 C 0.4426 0.30988 0.71826 0.0
H781 H 0.42085 0.30112 0.75985 0.0
C782 C 0.42664 0.31289 0.70713 0.0
C783 C 0.44057 0.30573 0.73752 0.0
C784 C 0.45746 0.30282 0.75012 0.0
C785 C 0.40846 0.31127 0.71459 0.0
C786 C 0.40637 0.30714 0.73391 0.0
C787 C 0.42247 0.30438 0.7451 0.0
C788 C 0.38738 0.3045 0.74241 0.0
C789 C 0.39153 0.31323 0.70143 0.0
C790 C 0.37686 0.31979 0.74301 0.0
C791 C 0.35827 0.31641 0.74954 0.0
C792 C 0.35006 0.29781 0.75588 0.0
C793 C 0.36098 0.28294 0.75622 0.0
C794 C 0.37946 0.28625 0.74952 0.0
H795 H 0.39443 0.31104 0.68602 0.0
H796 H 0.37823 0.30211 0.70384 0.0
H797 H 0.38876 0.32856 0.70439 0.0
H798 H 0.38288 0.33419 0.73808 0.0
H799 H 0.35017 0.32816 0.74923 0.0
H800 H 0.95533 0.78828 0.58129 0.0
H801 H 0.95996 0.81667 0.56194 0.0
H802 H 0.01299 0.84435 0.59613 0.0
H803 H 0.00868 0.81591 0.61534 0.0
H804 H 0.96236 0.85666 0.57364 0.0
H805 H 0.02988 0.84672 0.54172 0.0
H806 H 0.01506 0.82736 0.55357 0.0
H807 H 0.03172 0.84799 0.56749 0.0
C808 C 0.96805 0.80034 0.58463 0.0
C809 C 0.98168 0.79978 0.59983 0.0
C810 C 0.97066 0.81656 0.57354 0.0
C811 C 0.98699 0.83245 0.57736 0.0
C812 C 0.00054 0.83201 0.59261 0.0
H813 H 0.02873 0.9506 0.54633 0.0
H814 H 0.02281 0.91785 0.55869 0.0
C815 C 0.99797 0.81579 0.60367 0.0
C816 C 0.98946 0.84995 0.56598 0.0
H817 H 0.0213 0.87848 0.5393 0.0
C818 C 0.97511 0.86129 0.5659 0.0
C819 C 0.00608 0.85592 0.55584 0.0
C820 C 0.02147 0.84375 0.55446 0.0
C821 C 0.97734 0.87892 0.55668 0.0
C822 C 0.99425 0.88522 0.54708 0.0
C823 C 0.00835 0.8736 0.5467 0.0
C824 C 0.9982 0.90457 0.53855 0.0
C825 C 0.96198 0.89115 0.55795 0.0
C826 C 0.98655 0.90783 0.52282 0.0
C827 C 0.9899 0.92661 0.51563 0.0
C828 C 0.00496 0.94242 0.52412 0.0
C829 C 0.01692 0.93884 0.53951 0.0
C830 C 0.0136 0.9201 0.54659 0.0
H831 H 0.95156 0.88614 0.56871 0.0
H832 H 0.96867 0.90737 0.56183 0.0
H833 H 0.95381 0.88953 0.54371 0.0
H834 H 0.97474 0.89592 0.51623 0.0
H835 H 0.98045 0.92885 0.50375 0.0
H836 H 0.44203 0.74997 0.89492 0.0
H837 H 0.42046 0.75715 0.86936 0.0
H838 H 0.46924 0.79269 0.84521 0.0
H839 H 0.49106 0.78538 0.87066 0.0
H840 H 0.43604 0.81206 0.85569 0.0
H841 H 0.41431 0.73931 0.80898 0.0
H842 H 0.41444 0.73769 0.8345 0.0
H843 H 0.43679 0.74638 0.82396 0.0
C844 C 0.44824 0.75897 0.88396 0.0
C845 C 0.46824 0.76714 0.88483 0.0
C846 C 0.4359 0.76302 0.86935 0.0
C847 C 0.44331 0.77539 0.85544 0.0
C848 C 0.46332 0.78302 0.85582 0.0
H849 H 0.36636 0.80097 0.76334 0.0
H850 H 0.39596 0.79741 0.78117 0.0
C851 C 0.47574 0.77876 0.8703 0.0
C852 C 0.42985 0.78172 0.84167 0.0
H853 H 0.39493 0.76338 0.80513 0.0
C854 C 0.42725 0.80155 0.84442 0.0
C855 C 0.4185 0.76794 0.827 0.0
C856 C 0.42117 0.74665 0.82325 0.0
C857 C 0.41287 0.8077 0.8334 0.0
C858 C 0.4009 0.79364 0.81936 0.0
C859 C 0.40413 0.77409 0.81598 0.0
C860 C 0.38405 0.7984 0.80894 0.0
C861 C 0.41026 0.82901 0.83709 0.0
C862 C 0.36773 0.80044 0.81875 0.0
C863 C 0.35081 0.80231 0.80861 0.0
C864 C 0.35001 0.80227 0.78853 0.0
C865 C 0.36665 0.80117 0.77884 0.0
C866 C 0.38351 0.79907 0.78897 0.0
H867 H 0.4231 0.83907 0.8453 0.0
H868 H 0.40753 0.83514 0.82332 0.0
H869 H 0.39752 0.82913 0.84558 0.0
H870 H 0.36784 0.79972 0.83415 0.0
H871 H 0.33814 0.80304 0.81639 0.0
H872 H 0.47092 0.21983 0.07654 0.0
H873 H 0.46915 0.19739 0.04676 0.0
H874 H 0.46836 0.14716 0.0799 0.0
H875 H 0.46955 0.16921 0.1095 0.0
H876 H 0.49596 0.17815 0.03667 0.0
H877 H 0.42824 0.12132 0.0374 0.0
H878 H 0.43302 0.14514 0.05234 0.0
H879 H 0.44181 0.12414 0.06018 0.0
C880 C 0.46992 0.20392 0.07744 0.0
C881 C 0.4704 0.19633 0.0954 0.0
C882 C 0.46889 0.19112 0.06041 0.0
C883 C 0.4683 0.17052 0.06105 0.0
C884 C 0.46818 0.16285 0.07895 0.0
H885 H 0.52457 0.09012 0.00665 0.0
H886 H 0.51426 0.11933 0.02159 0.0
C887 C 0.46905 0.17556 0.09593 0.0
C888 C 0.47034 0.15748 0.04345 0.0
H889 H 0.45424 0.10974 0.02126 0.0
C890 C 0.48652 0.16339 0.03297 0.0
C891 C 0.45783 0.13843 0.03822 0.0
C892 C 0.43914 0.13201 0.04751 0.0
C893 C 0.49145 0.15009 0.01857 0.0
C894 C 0.48022 0.13019 0.01499 0.0
C895 C 0.46309 0.12488 0.02424 0.0
C896 C 0.4873 0.11404 0.00385 0.0
C897 C 0.50904 0.15729 0.00784 0.0
C898 C 0.47554 0.10122 0.98892 0.0
C899 C 0.48139 0.08431 0.98043 0.0
C900 C 0.49894 0.07994 0.98698 0.0
C901 C 0.51102 0.09325 0.00128 0.0
C902 C 0.50519 0.11004 0.00974 0.0
H903 H 0.51117 0.17366 0.00646 0.0
H904 H 0.52208 0.15497 0.01602 0.0
H905 H 0.50786 0.14902 0.99323 0.0
H906 H 0.46159 0.10394 0.98429 0.0
H907 H 0.47177 0.07413 0.96953 0.0
H908 H 0.0819 0.29065 0.39061 0.0
H909 H 0.10862 0.29129 0.36986 0.0
H910 H 0.07487 0.23987 0.33362 0.0
H911 H 0.04799 0.23916 0.3542 0.0
H912 H 0.12825 0.26009 0.36175 0.0
H913 H 0.0944 0.28042 0.29515 0.0
H914 H 0.08493 0.28376 0.31838 0.0
H915 H 0.08042 0.2592 0.30513 0.0
C916 C 0.08007 0.27956 0.37814 0.0
C917 C 0.06277 0.26486 0.37406 0.0
C918 C 0.09537 0.27994 0.36632 0.0
C919 C 0.09365 0.26578 0.35009 0.0
C920 C 0.07638 0.25116 0.34588 0.0
H921 H 0.18969 0.2361 0.28949 0.0
H922 H 0.16027 0.23467 0.30642 0.0
C923 C 0.06107 0.25072 0.35773 0.0
C924 C 0.11025 0.2658 0.33809 0.0
H925 H 0.12482 0.27154 0.29284 0.0
C926 C 0.12751 0.26259 0.34669 0.0
C927 C 0.10928 0.26923 0.31848 0.0
C928 C 0.09134 0.27352 0.30872 0.0
C929 C 0.1438 0.26257 0.33618 0.0
C930 C 0.14271 0.26559 0.31647 0.0
C931 C 0.12552 0.269 0.30789 0.0
C932 C 0.15956 0.26595 0.30477 0.0
C933 C 0.16217 0.2597 0.34634 0.0
C934 C 0.16851 0.28382 0.29763 0.0
C935 C 0.18531 0.2847 0.28789 0.0
C936 C 0.19343 0.26766 0.28501 0.0
C937 C 0.18392 0.24954 0.2915 0.0
C938 C 0.16715 0.2487 0.30128 0.0
H939 H 0.16192 0.26196 0.36224 0.0
H940 H 0.16393 0.24413 0.34228 0.0
H941 H 0.17497 0.2703 0.34201 0.0
H942 H 0.16282 0.29727 0.30009 0.0
H943 H 0.19216 0.29889 0.28301 0.0
H944 H 0.92356 0.07448 0.18665 0.0
H945 H 0.93913 0.08595 0.15789 0.0
H946 H 0.97553 0.04308 0.1616 0.0
H947 H 0.9608 0.03221 0.19023 0.0
H948 H 0.99564 0.07821 0.15248 0.0
H949 H 0.92707 0.05402 0.10538 0.0
H950 H 0.92771 0.07293 0.12522 0.0
H951 H 0.92877 0.04775 0.12976 0.0
C952 C 0.93505 0.06773 0.18142 0.0
C953 C 0.94076 0.05228 0.19066 0.0
C954 C 0.94384 0.07419 0.16491 0.0
C955 C 0.9583 0.06514 0.15737 0.0
C956 C 0.96443 0.05032 0.16708 0.0
H957 H 0.99037 0.02265 0.0529 0.0
H958 H 0.97533 0.03325 0.08139 0.0
C959 C 0.95586 0.04403 0.18349 0.0
C960 C 0.9667 0.06986 0.13892 0.0
H961 H 0.95585 0.06147 0.09031 0.0
C962 C 0.98696 0.07496 0.13884 0.0
C963 C 0.95532 0.06562 0.12117 0.0
C964 C 0.93352 0.05966 0.12022 0.0
C965 C 0.99618 0.0741 0.12164 0.0
C966 C 0.98479 0.06876 0.10391 0.0
C967 C 0.96455 0.06546 0.10391 0.0
C968 C 0.99327 0.06345 0.08567 0.0
C969 C 0.01796 0.07727 0.12281 0.0
C970 C 0.00822 0.07697 0.07829 0.0
C971 C 0.01713 0.07074 0.0621 0.0
C972 C 0.01091 0.05108 0.05283 0.0
C973 C 0.99545 0.03791 0.05974 0.0
C974 C 0.98679 0.04399 0.07601 0.0
H975 H 0.02415 0.07731 0.13774 0.0
H976 H 0.02251 0.06532 0.11348 0.0
H977 H 0.02425 0.09202 0.11783 0.0
H978 H 0.01315 0.09222 0.08516 0.0
H979 H 0.02889 0.08125 0.05688 0.0
H980 H 0.27474 0.68289 0.42487 0.0
H981 H 0.29118 0.69915 0.39905 0.0
H982 H 0.34556 0.71089 0.43341 0.0
H983 H 0.32899 0.69406 0.45942 0.0
H984 H 0.33419 0.74552 0.42168 0.0
H985 H 0.32934 0.68872 0.35924 0.0
H986 H 0.307 0.68504 0.37061 0.0
H987 H 0.32869 0.68226 0.38371 0.0
C988 C 0.29031 0.68833 0.42666 0.0
C989 C 0.30064 0.68731 0.44404 0.0
C990 C 0.29973 0.69749 0.41186 0.0
C991 C 0.31963 0.70601 0.41423 0.0
C992 C 0.33024 0.70413 0.43124 0.0
H993 H 0.33065 0.77188 0.31353 0.0
H994 H 0.34477 0.75585 0.33894 0.0
C995 C 0.3208 0.69453 0.44601 0.0
C996 C 0.32798 0.7197 0.40027 0.0
H997 H 0.32474 0.72202 0.3519 0.0
C998 C 0.3329 0.74042 0.40641 0.0
C999 C 0.3267 0.71308 0.38042 0.0
C1000 C 0.32285 0.69102 0.37314 0.0
C1001 C 0.33396 0.75463 0.3931 0.0
C1002 C 0.32981 0.74783 0.3733 0.0
C1003 C 0.32754 0.72726 0.36712 0.0
C1004 C 0.32405 0.7609 0.3594 0.0
C1005 C 0.33818 0.77669 0.40043 0.0
C1006 C 0.30789 0.76928 0.36258 0.0
C1007 C 0.29976 0.77829 0.34811 0.0
C1008 C 0.3076 0.779 0.33018 0.0
C1009 C 0.32436 0.77155 0.32729 0.0
C1010 C 0.33245 0.76243 0.34177 0.0
H1011 H 0.34813 0.77985 0.41371 0.0
H1012 H 0.3447 0.78622 0.38946 0.0
H1013 H 0.32449 0.78099 0.40414 0.0
H1014 H 0.30083 0.76779 0.37586 0.0
H1015 H 0.28681 0.78385 0.35065 0.0
H1016 H 0.54504 0.00511 0.71336 0.0
H1017 H 0.52832 0.99761 0.68124 0.0
H1018 H 0.58101 0.98835 0.65751 0.0
H1019 H 0.59764 0.99513 0.68976 0.0
H1020 H 0.53815 0.02146 0.65459 0.0
H1021 H 0.54193 0.94432 0.62576 0.0
H1022 H 0.54658 0.95324 0.65106 0.0
H1023 H 0.56525 0.95916 0.63477 0.0
C1024 C 0.55293 0.00098 0.70135 0.0
C1025 C 0.57268 0.00089 0.70401 0.0
C1026 C 0.54335 0.99663 0.68302 0.0
C1027 C 0.55336 0.99231 0.66696 0.0
C1028 C 0.57285 0.99117 0.66971 0.0
H1029 H 0.5394 0.0305 0.5564 0.0
H1030 H 0.5501 0.02231 0.58778 0.0
C1031 C 0.58239 0.99522 0.68814 0.0
C1032 C 0.54435 0.99222 0.64734 0.0
H1033 H 0.53619 0.9666 0.60226 0.0
C1034 C 0.53744 0.00927 0.64327 0.0
C1035 C 0.54333 0.97631 0.63256 0.0
C1036 C 0.54949 0.95714 0.6363 0.0
C1037 C 0.53023 0.0112 0.62473 0.0
C1038 C 0.5303 0.99588 0.60972 0.0
C1039 C 0.53642 0.97842 0.61382 0.0
C1040 C 0.52494 0.99852 0.58962 0.0
C1041 C 0.5229 0.02984 0.62124 0.0
C1042 C 0.50756 0.98732 0.58004 0.0
C1043 C 0.50144 0.9919 0.56197 0.0
C1044 C 0.51267 0.00771 0.55336 0.0
C1045 C 0.53047 0.01823 0.56267 0.0
C1046 C 0.53658 0.01361 0.5806 0.0
H1047 H 0.51936 0.0376 0.63481 0.0
H1048 H 0.53425 0.04052 0.61487 0.0
H1049 H 0.5098 0.02605 0.61101 0.0
H1050 H 0.49842 0.97562 0.58685 0.0
H1051 H 0.48769 0.98353 0.55503 0.0
H1052 H 0.23882 0.37708 0.96814 0.0
H1053 H 0.23705 0.36627 0.93345 0.0
H1054 H 0.27172 0.32326 0.94446 0.0
H1055 H 0.27344 0.33372 0.97883 0.0
H1056 H 0.26905 0.36754 0.91027 0.0
H1057 H 0.22575 0.28971 0.90923 0.0
H1058 H 0.22685 0.30879 0.92921 0.0
H1059 H 0.24609 0.29555 0.92679 0.0
C1060 C 0.2458 0.3651 0.96316 0.0
C1061 C 0.25624 0.35624 0.97627 0.0
C1062 C 0.24485 0.35902 0.94336 0.0
C1063 C 0.25409 0.34382 0.93642 0.0
C1064 C 0.26421 0.33477 0.94951 0.0
H1065 H 0.29615 0.31469 0.82591 0.0
H1066 H 0.29227 0.32767 0.85898 0.0
C1067 C 0.26525 0.34086 0.96919 0.0
C1068 C 0.25408 0.33789 0.91549 0.0
H1069 H 0.2432 0.29706 0.88157 0.0
C1070 C 0.2632 0.35219 0.90391 0.0
C1071 C 0.24632 0.31791 0.9072 0.0
C1072 C 0.23553 0.30214 0.9187 0.0
C1073 C 0.26534 0.34686 0.88438 0.0
C1074 C 0.25844 0.32663 0.87635 0.0
C1075 C 0.24872 0.31251 0.88779 0.0
C1076 C 0.26096 0.31969 0.85609 0.0
C1077 C 0.27491 0.36293 0.87252 0.0
C1078 C 0.2447 0.31059 0.84359 0.0
C1079 C 0.24686 0.30301 0.8248 0.0
C1080 C 0.26538 0.30429 0.81806 0.0
C1081 C 0.28169 0.31354 0.83058 0.0
C1082 C 0.27949 0.3211 0.84945 0.0
H1083 H 0.27451 0.37825 0.87915 0.0
H1084 H 0.2903 0.36218 0.87153 0.0
H1085 H 0.26783 0.36068 0.8577 0.0
H1086 H 0.23027 0.30926 0.84842 0.0
H1087 H 0.23394 0.29603 0.81562 0.0
H1088 H 0.90104 0.04403 0.3008 0.0
H1089 H 0.90651 0.03875 0.3348 0.0
H1090 H 0.96067 0.02298 0.32285 0.0
H1091 H 0.95542 0.02818 0.28917 0.0
H1092 H 0.92686 0.99246 0.33941 0.0
H1093 H 0.95274 0.06862 0.37994 0.0
H1094 H 0.93378 0.06421 0.36072 0.0
H1095 H 0.95807 0.06394 0.35519 0.0
C1096 C 0.91438 0.04007 0.30559 0.0
C1097 C 0.92774 0.03639 0.29231 0.0
C1098 C 0.91742 0.03696 0.32495 0.0
C1099 C 0.93393 0.03035 0.3312 0.0
C1100 C 0.94783 0.02803 0.31825 0.0
H1101 H 0.98692 0.97891 0.41945 0.0
H1102 H 0.97264 0.98748 0.38961 0.0
C1103 C 0.9448 0.03104 0.29902 0.0
C1104 C 0.93602 0.02371 0.35055 0.0
H1105 H 0.9539 0.04057 0.39679 0.0
C1106 C 0.93249 0.00295 0.35206 0.0
C1107 C 0.94325 0.03746 0.36695 0.0
C1108 C 0.94724 0.05985 0.36583 0.0
C1109 C 0.93666 0.99552 0.36945 0.0
C1110 C 0.94495 0.00925 0.38563 0.0
C1111 C 0.94762 0.03005 0.38434 0.0
C1112 C 0.95219 0.00238 0.40356 0.0
C1113 C 0.93235 0.97305 0.37025 0.0
C1114 C 0.94544 0.00786 0.42133 0.0
C1115 C 0.95361 0.00297 0.43839 0.0
C1116 C 0.96878 0.99268 0.43799 0.0
C1117 C 0.97512 0.98666 0.42017 0.0
C1118 C 0.96693 0.99153 0.40311 0.0
H1119 H 0.92073 0.96516 0.35916 0.0
H1120 H 0.94556 0.96734 0.36741 0.0
H1121 H 0.9279 0.96915 0.38463 0.0
H1122 H 0.93414 0.0163 0.42201 0.0
H1123 H 0.94853 0.00792 0.45195 0.0
H1124 H 0.31077 0.69825 0.55107 0.0
H1125 H 0.31584 0.71714 0.58316 0.0
H1126 H 0.26383 0.73877 0.57222 0.0
H1127 H 0.25914 0.72073 0.54001 0.0
H1128 H 0.2913 0.76785 0.591 0.0
H1129 H 0.28554 0.6981 0.62707 0.0
H1130 H 0.305 0.70229 0.61159 0.0
H1131 H 0.28035 0.69753 0.60152 0.0
C1132 C 0.30052 0.70717 0.55548 0.0
C1133 C 0.28446 0.70785 0.54308 0.0
C1134 C 0.30337 0.71785 0.57384 0.0
C1135 C 0.28996 0.72899 0.58024 0.0
C1136 C 0.27432 0.73023 0.56762 0.0
H1137 H 0.26458 0.756 0.69657 0.0
H1138 H 0.26478 0.7443 0.66257 0.0
C1139 C 0.27164 0.71985 0.54921 0.0
C1140 C 0.29159 0.73875 0.60027 0.0
H1141 H 0.29203 0.72881 0.64709 0.0
C1142 C 0.29151 0.75935 0.6033 0.0
C1143 C 0.2916 0.72755 0.61626 0.0
C1144 C 0.29044 0.70512 0.614 0.0
C1145 C 0.29109 0.76898 0.62185 0.0
C1146 C 0.29135 0.75782 0.63783 0.0
C1147 C 0.29186 0.73735 0.63482 0.0
C1148 C 0.29022 0.76664 0.6578 0.0
C1149 C 0.28959 0.79077 0.62403 0.0
C1150 C 0.3042 0.78339 0.66634 0.0
C1151 C 0.30382 0.7904 0.68573 0.0
C1152 C 0.28973 0.78045 0.6969 0.0
C1153 C 0.27554 0.764 0.68824 0.0
C1154 C 0.27572 0.75724 0.66885 0.0
H1155 H 0.28413 0.79535 0.61035 0.0
H1156 H 0.27986 0.79364 0.63536 0.0
H1157 H 0.30416 0.80045 0.62822 0.0
H1158 H 0.31578 0.79061 0.65824 0.0
H1159 H 0.31503 0.80301 0.69215 0.0
H1160 H 0.58416 0.02542 0.82013 0.0
H1161 H 0.57308 0.00929 0.84828 0.0
H1162 H 0.58331 0.95291 0.82277 0.0
H1163 H 0.59492 0.96921 0.79438 0.0
H1164 H 0.5433 0.95425 0.83628 0.0
H1165 H 0.60367 0.98587 0.89143 0.0
H1166 H 0.59849 0.00409 0.8762 0.0
H1167 H 0.60702 0.98273 0.86597 0.0
C1168 C 0.58433 0.00966 0.82058 0.0
C1169 C 0.59032 0.99853 0.80507 0.0
C1170 C 0.5781 0.0005 0.83671 0.0
C1171 C 0.57756 0.98 0.83761 0.0
C1172 C 0.58384 0.96881 0.82234 0.0
H1173 H 0.5315 0.96724 0.94901 0.0
H1174 H 0.54694 0.9535 0.92187 0.0
C1175 C 0.59045 0.97812 0.80622 0.0
C1176 C 0.56865 0.97047 0.85394 0.0
H1177 H 0.57137 0.97944 0.90275 0.0
C1178 C 0.54963 0.95904 0.85088 0.0
C1179 C 0.57704 0.97641 0.8729 0.0
C1180 C 0.59777 0.98779 0.87687 0.0
C1181 C 0.53799 0.95564 0.86633 0.0
C1182 C 0.54562 0.96409 0.8851 0.0
C1183 C 0.56539 0.97317 0.88832 0.0
C1184 C 0.53294 0.96771 0.90055 0.0
C1185 C 0.51728 0.94428 0.86226 0.0
C1186 C 0.51957 0.9798 0.89747 0.0
C1187 C 0.5109 0.98776 0.91289 0.0
C1188 C 0.5155 0.98382 0.93166 0.0
C1189 C 0.52775 0.97052 0.93462 0.0
C1190 C 0.53654 0.96263 0.91916 0.0
H1191 H 0.5159 0.93241 0.84995 0.0
H1192 H 0.51159 0.9372 0.87502 0.0
H1193 H 0.50821 0.95485 0.85825 0.0
H1194 H 0.51691 0.98435 0.88334 0.0
H1195 H 0.50151 0.99797 0.91025 0.0
H1196 H 0.25833 0.3282 0.07813 0.0
H1197 H 0.24592 0.31373 0.1064 0.0
H1198 H 0.20708 0.35438 0.11095 0.0
H1199 H 0.21991 0.36951 0.08249 0.0
H1200 H 0.22603 0.35343 0.14524 0.0
H1201 H 0.19652 0.27527 0.11408 0.0
H1202 H 0.22076 0.28303 0.10741 0.0
H1203 H 0.20239 0.29564 0.09927 0.0
C1204 C 0.24698 0.33401 0.08491 0.0
C1205 C 0.24011 0.35006 0.07797 0.0
C1206 C 0.23974 0.32553 0.10104 0.0
C1207 C 0.22523 0.33261 0.11058 0.0
C1208 C 0.21812 0.34851 0.10366 0.0
H1209 H 0.20063 0.26103 0.20784 0.0
H1210 H 0.19306 0.27804 0.17993 0.0
C1211 C 0.22543 0.35712 0.0874 0.0
C1212 C 0.21903 0.32426 0.12864 0.0
H1213 H 0.2092 0.27954 0.14789 0.0
C1214 C 0.22184 0.33729 0.1458 0.0
C1215 C 0.21297 0.30327 0.12944 0.0
C1216 C 0.20777 0.28856 0.1115 0.0
C1217 C 0.22062 0.32975 0.16378 0.0
C1218 C 0.2171 0.30866 0.16459 0.0
C1219 C 0.21238 0.29572 0.14739 0.0
C1220 C 0.22046 0.29975 0.18272 0.0
C1221 C 0.22363 0.34451 0.18171 0.0
C1222 C 0.23834 0.30618 0.19355 0.0
C1223 C 0.24257 0.29663 0.20947 0.0
C1224 C 0.22916 0.28016 0.21475 0.0
C1225 C 0.21121 0.27371 0.20405 0.0
C1226 C 0.20688 0.28345 0.18817 0.0
H1227 H 0.21812 0.35812 0.179 0.0
H1228 H 0.21629 0.33773 0.19388 0.0
H1229 H 0.23935 0.34954 0.18596 0.0
H1230 H 0.24938 0.31817 0.1893 0.0
H1231 H 0.25663 0.30179 0.21732 0.0
H1232 H 0.23211 0.95759 0.9772 0.0
H1233 H 0.20913 0.97973 0.97854 0.0
H1234 H 0.1665 0.9326 0.99828 0.0
H1235 H 0.1894 0.91053 0.99734 0.0
H1236 H 0.17279 0.97615 0.96062 0.0
H1237 H 0.16941 0.97949 0.0396 0.0
H1238 H 0.18771 0.96972 0.02727 0.0
H1239 H 0.16399 0.95407 0.02825 0.0
C1240 C 0.21781 0.9519 0.98174 0.0
C1241 C 0.21264 0.93236 0.98735 0.0
C1242 C 0.20472 0.96459 0.98252 0.0
C1243 C 0.1863 0.95796 0.98895 0.0
C1244 C 0.18084 0.93819 0.99378 0.0
H1245 H 0.07936 0.99211 0.97421 0.0
H1246 H 0.1093 0.98057 0.97063 0.0
C1247 C 0.19391 0.92555 0.9931 0.0
C1248 C 0.17266 0.97158 0.99065 0.0
H1249 H 0.14386 0.98983 0.02208 0.0
C1250 C 0.16664 0.97939 0.97411 0.0
C1251 C 0.16504 0.97625 0.00835 0.0
C1252 C 0.17203 0.96963 0.02692 0.0
C1253 C 0.15231 0.99075 0.97457 0.0
C1254 C 0.14354 0.99397 0.99194 0.0
C1255 C 0.15041 0.98718 0.00871 0.0
C1256 C 0.12613 0.00268 0.99275 0.0
C1257 C 0.14657 0.99895 0.9564 0.0
C1258 C 0.12551 0.01883 0.00655 0.0
C1259 C 0.10824 0.02532 0.0088 0.0
C1260 C 0.09138 0.01562 0.99737 0.0
C1261 C 0.09218 -0.00014 0.98322 0.0
C1262 C 0.10935 0.99338 0.98102 0.0
H1263 H 0.15878 0.00167 0.94699 0.0
H1264 H 0.13454 0.98773 0.94823 0.0
H1265 H 0.1417 0.01323 0.9596 0.0
H1266 H 0.13826 0.0261 0.01586 0.0
H1267 H 0.10796 0.03748 0.01981 0.0
H1268 H 0.72029 0.59595 0.99432 0.0
H1269 H 0.69082 0.56938 0.99314 0.0
H1270 H 0.66078 0.60272 0.95727 0.0
H1271 H 0.68987 0.62947 0.95889 0.0
H1272 H 0.64206 0.59366 0.98829 0.0
H1273 H 0.66116 0.52485 0.95354 0.0
H1274 H 0.67746 0.53714 0.97373 0.0
H1275 H 0.67576 0.54978 0.95252 0.0
C1276 C 0.70752 0.59734 0.9858 0.0
C1277 C 0.70732 0.61484 0.97682 0.0
C1278 C 0.69071 0.58211 0.98508 0.0
C1279 C 0.67359 0.58401 0.97505 0.0
C1280 C 0.67379 0.60095 0.96514 0.0
H1281 H 0.56159 0.50267 0.95162 0.0
H1282 H 0.59495 0.52147 0.95042 0.0
C1283 C 0.69043 0.61623 0.96607 0.0
C1284 C 0.65492 0.56973 0.97658 0.0
H1285 H 0.63121 0.52033 0.96819 0.0
C1286 C 0.6397 0.57763 0.98384 0.0
C1287 C 0.65182 0.54885 0.97069 0.0
C1288 C 0.66735 0.53964 0.96201 0.0
C1289 C 0.62147 0.56531 0.9853 0.0
C1290 C 0.61848 0.54434 0.97989 0.0
C1291 C 0.63364 0.53637 0.97257 0.0
C1292 C 0.5994 0.53074 0.98105 0.0
C1293 C 0.60542 0.57498 0.99214 0.0
C1294 C 0.5911 0.52916 -0.00126 0.0
C1295 C 0.57203 0.51861 -0.00058 0.0
C1296 C 0.56106 0.50922 0.98246 0.0
C1297 C 0.56975 0.50979 0.96491 0.0
C1298 C 0.58879 0.52048 0.96421 0.0
H1299 H 0.60867 0.59144 0.99098 0.0
H1300 H 0.59147 0.56805 0.98373 0.0
H1301 H 0.6036 0.57278 0.00749 0.0
H1302 H 0.59915 0.5367 0.01195 0.0
H1303 H 0.56568 0.51848 0.01309 0.0
H1304 H 0.68225 0.45685 0.3234 0.0
H1305 H 0.69985 0.4302 0.31636 0.0
H1306 H 0.69799 0.44012 0.25645 0.0
H1307 H 0.68059 0.46693 0.26336 0.0
H1308 H 0.68711 0.39506 0.29188 0.0
H1309 H 0.75498 0.43985 0.26853 0.0
H1310 H 0.73796 0.45126 0.28137 0.0
H1311 H 0.73341 0.4434 0.25599 0.0
C1312 C 0.68575 0.45353 0.30875 0.0
C1313 C 0.68002 0.46409 0.29396 0.0
C1314 C 0.6958 0.43826 0.30475 0.0
C1315 C 0.70046 0.43332 0.28592 0.0
C1316 C 0.69491 0.44393 0.27115 0.0
H1317 H 0.72697 0.32019 0.24087 0.0
H1318 H 0.7132 0.34983 0.24704 0.0
C1319 C 0.68485 0.4592 0.27513 0.0
C1320 C 0.71019 0.41636 0.28159 0.0
H1321 H 0.75025 0.40416 0.26291 0.0
C1322 C 0.70095 0.39707 0.28561 0.0
C1323 C 0.72834 0.41902 0.27357 0.0
C1324 C 0.73938 0.43952 0.26976 0.0
C1325 C 0.70918 0.38033 0.28156 0.0
C1326 C 0.72702 0.38287 0.27298 0.0
C1327 C 0.73646 0.40221 0.26927 0.0
C1328 C 0.73619 0.36561 0.26808 0.0
C1329 C 0.69883 0.36009 0.28676 0.0
C1330 C 0.75408 0.36497 0.27729 0.0
C1331 C 0.76208 0.34805 0.27373 0.0
C1332 C 0.75236 0.33148 0.26081 0.0
C1333 C 0.73482 0.33257 0.25101 0.0
C1334 C 0.72684 0.34948 0.25459 0.0
H1335 H 0.68798 0.36158 0.29736 0.0
H1336 H 0.69112 0.3509 0.27361 0.0
H1337 H 0.70925 0.35185 0.29284 0.0
H1338 H 0.76159 0.37731 0.28767 0.0
H1339 H 0.77563 0.34779 0.28151 0.0
H1340 H 0.78621 0.42967 0.51173 0.0
H1341 H 0.81546 0.45609 0.51107 0.0
H1342 H 0.85075 0.4134 0.52122 0.0
H1343 H 0.82177 0.3871 0.52232 0.0
H1344 H 0.86381 0.44976 0.54319 0.0
H1345 H 0.85003 0.46036 0.46625 0.0
H1346 H 0.83123 0.46381 0.48157 0.0
H1347 H 0.83659 0.43933 0.4771 0.0
C1348 C 0.80021 0.42594 0.5139 0.0
C1349 C 0.80166 0.40624 0.51695 0.0
C1350 C 0.81689 0.44103 0.51342 0.0
C1351 C 0.83524 0.4366 0.51578 0.0
C1352 C 0.83671 0.41711 0.51931 0.0
H1353 H 0.94669 0.48434 0.48159 0.0
H1354 H 0.91322 0.46775 0.4849 0.0
C1355 C 0.82011 0.40208 0.51991 0.0
C1356 C 0.85309 0.452 0.51431 0.0
H1357 H 0.87869 0.47996 0.48259 0.0
C1358 C 0.86702 0.45656 0.53002 0.0
C1359 C 0.85722 0.46068 0.49703 0.0
C1360 C 0.84309 0.45573 0.47945 0.0
C1361 C 0.88525 0.46902 0.52874 0.0
C1362 C 0.88947 0.47753 0.5114 0.0
C1363 C 0.87532 0.47351 0.49589 0.0
C1364 C 0.9091 0.48896 0.50845 0.0
C1365 C 0.90015 0.47209 0.54562 0.0
C1366 C 0.91771 0.50673 0.52025 0.0
C1367 C 0.93695 0.51617 0.51852 0.0
C1368 C 0.94781 0.50812 0.5048 0.0
C1369 C 0.93879 0.49091 0.49236 0.0
C1370 C 0.91963 0.48141 0.4942 0.0
H1371 H 0.89595 0.46109 0.55618 0.0
H1372 H 0.91447 0.47067 0.54072 0.0
H1373 H 0.90171 0.48744 0.55316 0.0
H1374 H 0.90967 0.51305 0.53104 0.0
H1375 H 0.94339 0.52957 0.52816 0.0
H1376 H 0.38427 0.11756 0.2793 0.0
H1377 H 0.35875 0.13661 0.28124 0.0
H1378 H 0.32197 0.09191 0.24 0.0
H1379 H 0.34734 0.07271 0.23798 0.0
H1380 H 0.34225 0.15185 0.24909 0.0
H1381 H 0.28703 0.10012 0.28469 0.0
H1382 H 0.31219 0.09867 0.28555 0.0
H1383 H 0.2966 0.08883 0.2642 0.0
C1384 C 0.37069 0.11167 0.27077 0.0
C1385 C 0.36785 0.09363 0.25846 0.0
C1386 C 0.35614 0.12257 0.27191 0.0
C1387 C 0.33843 0.11553 0.26093 0.0
C1388 C 0.33543 0.09742 0.24883 0.0
H1389 H 0.25653 0.18738 0.23022 0.0
H1390 H 0.27572 0.16149 0.23006 0.0
C1391 C 0.35 0.08655 0.24761 0.0
C1392 C 0.32359 0.12782 0.2612 0.0
H1393 H 0.27759 0.12839 0.27301 0.0
C1394 C 0.32812 0.14673 0.25432 0.0
C1395 C 0.30523 0.12109 0.26813 0.0
C1396 C 0.29993 0.10114 0.27622 0.0
C1397 C 0.31469 0.15908 0.25402 0.0
C1398 C 0.29621 0.15223 0.26064 0.0
C1399 C 0.29171 0.13342 0.26774 0.0
C1400 C 0.28182 0.165 0.26096 0.0
C1401 C 0.32041 0.17951 0.24688 0.0
C1402 C 0.27827 0.17483 0.27846 0.0
C1403 C 0.26735 0.18961 0.27859 0.0
C1404 C 0.25978 0.19466 0.26121 0.0
C1405 C 0.26219 0.18376 0.24381 0.0
C1406 C 0.27319 0.16904 0.24369 0.0
H1407 H 0.3362 0.18387 0.24525 0.0
H1408 H 0.31262 0.17926 0.23265 0.0
H1409 H 0.31631 0.19123 0.25691 0.0
H1410 H 0.28483 0.17187 0.29192 0.0
H1411 H 0.26572 0.19781 0.2922 0.0
H1412 H 0.29922 0.10391 0.50002 0.0
H1413 H 0.32515 0.08535 0.50143 0.0
H1414 H 0.36165 0.13096 0.4733 0.0
H1415 H 0.33604 0.14978 0.47218 0.0
H1416 H 0.34409 0.06911 0.47274 0.0
H1417 H 0.39594 0.12786 0.52062 0.0
H1418 H 0.37074 0.12849 0.51667 0.0
H1419 H 0.38755 0.13708 0.49932 0.0
C1420 C 0.31278 0.11002 0.49418 0.0
C1421 C 0.3156 0.12844 0.48614 0.0
C1422 C 0.32758 0.09938 0.49497 0.0
C1423 C 0.34547 0.10694 0.4878 0.0
C1424 C 0.34815 0.12507 0.47937 0.0
H1425 H 0.45346 0.07017 0.47503 0.0
H1426 H 0.42506 0.08505 0.47255 0.0
C1427 C 0.33343 0.13577 0.47865 0.0
C1428 C 0.36133 0.09587 0.48899 0.0
H1429 H 0.40851 0.10112 0.5056 0.0
C1430 C 0.35813 0.07603 0.48005 0.0
C1431 C 0.37962 0.10489 0.49863 0.0
C1432 C 0.38365 0.12567 0.50952 0.0
C1433 C 0.37293 0.06522 0.47998 0.0
C1434 C 0.39132 0.07445 0.48922 0.0
C1435 C 0.39442 0.09415 0.49839 0.0
C1436 C 0.40772 0.06413 0.48939 0.0
C1437 C 0.36899 0.04422 0.46962 0.0
C1438 C 0.4073 0.0473 0.49953 0.0
C1439 C 0.42355 0.03878 0.50101 0.0
C1440 C 0.44045 0.047 0.49238 0.0
C1441 C 0.44062 0.0635 0.4818 0.0
C1442 C 0.42443 0.07203 0.4804 0.0
H1443 H 0.35538 0.04077 0.4601 0.0
H1444 H 0.38114 0.0422 0.46084 0.0
H1445 H 0.36764 0.03316 0.48036 0.0
H1446 H 0.39464 0.04115 0.50681 0.0
H1447 H 0.42308 0.02614 0.50934 0.0
H1448 H 0.6548 0.59156 0.30715 0.0
H1449 H 0.67858 0.62289 0.30723 0.0
H1450 H 0.72208 0.58967 0.29268 0.0
H1451 H 0.69798 0.55787 0.29205 0.0
H1452 H 0.71329 0.63979 0.32674 0.0
H1453 H 0.72158 0.62425 0.24848 0.0
H1454 H 0.70292 0.60906 0.26056 0.0
H1455 H 0.72745 0.60612 0.26346 0.0
C1456 C 0.66945 0.59079 0.30412 0.0
C1457 C 0.6744 0.57217 0.29928 0.0
C1458 C 0.68308 0.60878 0.30426 0.0
C1459 C 0.702 0.60866 0.2996 0.0
C1460 C 0.70741 0.5901 0.29592 0.0
H1461 H 0.78286 0.72684 0.30416 0.0
H1462 H 0.76835 0.69248 0.31062 0.0
C1463 C 0.69369 0.57196 0.29572 0.0
C1464 C 0.71534 0.6281 0.29745 0.0
H1465 H 0.73758 0.65589 0.26372 0.0
C1466 C 0.71885 0.64327 0.31304 0.0
C1467 C 0.72231 0.63265 0.27947 0.0
C1468 C 0.7183 0.61727 0.26196 0.0
C1469 C 0.72853 0.66304 0.31097 0.0
C1470 C 0.73528 0.66764 0.29292 0.0
C1471 C 0.73239 0.6523 0.27754 0.0
C1472 C 0.74421 0.68849 0.28926 0.0
C1473 C 0.73053 0.67902 0.32784 0.0
C1474 C 0.73569 0.69752 0.27486 0.0
C1475 C 0.74408 0.717 0.27099 0.0
C1476 C 0.76113 0.72784 0.28149 0.0
C1477 C 0.76963 0.71886 0.29595 0.0
C1478 C 0.76131 0.69928 0.29972 0.0
H1479 H 0.72062 0.67407 0.33905 0.0
H1480 H 0.74557 0.68236 0.33452 0.0
H1481 H 0.7275 0.69318 0.32312 0.0
H1482 H 0.72252 0.68946 0.26659 0.0
H1483 H 0.7373 0.72351 0.25967 0.0
H1484 H 0.9116 0.49309 0.76437 0.0
H1485 H 0.8877 0.46157 0.76419 0.0
H1486 H 0.84263 0.4946 0.77112 0.0
H1487 H 0.8665 0.52637 0.77143 0.0
H1488 H 0.84269 0.46452 0.79678 0.0
H1489 H 0.84583 0.43463 0.72083 0.0
H1490 H 0.86913 0.44268 0.73391 0.0
H1491 H 0.85485 0.46086 0.72965 0.0
C1492 C 0.8966 0.4937 0.76573 0.0
C1493 C 0.89096 0.51226 0.76784 0.0
C1494 C 0.88295 0.47566 0.76553 0.0
C1495 C 0.8634 0.47578 0.7674 0.0
C1496 C 0.85766 0.49423 0.76955 0.0
H1497 H 0.77586 0.36346 0.74856 0.0
H1498 H 0.79267 0.39855 0.7484 0.0
C1499 C 0.87131 0.51233 0.76967 0.0
C1500 C 0.84916 0.45659 0.76773 0.0
H1501 H 0.83089 0.41113 0.74159 0.0
C1502 C 0.83991 0.45291 0.78466 0.0
C1503 C 0.84539 0.44161 0.7518 0.0
C1504 C 0.85417 0.44516 0.73294 0.0
C1505 C 0.82757 0.43425 0.78634 0.0
C1506 C 0.82466 0.41888 0.77077 0.0
C1507 C 0.83328 0.42289 0.75358 0.0
C1508 C 0.81337 0.39826 0.77216 0.0
C1509 C 0.81784 0.43114 0.80478 0.0
C1510 C 0.81939 0.38649 0.78566 0.0
C1511 C 0.80983 0.36641 0.78581 0.0
C1512 C 0.79416 0.35767 0.77234 0.0
C1513 C 0.7879 0.36966 0.75911 0.0
C1514 C 0.79747 0.38974 0.75899 0.0
H1515 H 0.8169 0.4457 0.81277 0.0
H1516 H 0.80303 0.42153 0.80191 0.0
H1517 H 0.82642 0.42352 0.81418 0.0
H1518 H 0.83189 0.39264 0.79569 0.0
H1519 H 0.81508 0.35762 0.79616 0.0
H1520 H 0.04925 0.83863 0.08638 0.0
H1521 H 0.03761 0.86462 0.07077 0.0
H1522 H 0.997 0.86775 0.11398 0.0
H1523 H 0.00864 0.84154 0.1299 0.0
H1524 H 0.99812 0.86592 0.05665 0.0
H1525 H 0.03192 0.9262 0.11536 0.0
H1526 H 0.03897 0.90228 0.11257 0.0
H1527 H 0.01616 0.90383 0.12173 0.0
C1528 C 0.03777 0.84472 0.09259 0.0
C1529 C 0.02999 0.83814 0.10951 0.0
C1530 C 0.03108 0.85951 0.08356 0.0
C1531 C 0.01656 0.86814 0.09129 0.0
C1532 C 0.00832 0.86131 0.10789 0.0
H1533 H 0.97743 0.96218 0.03134 0.0
H1534 H 0.97597 0.93259 0.0489 0.0
C1535 C 0.01496 0.84634 0.11693 0.0
C1536 C 0.01106 0.88501 0.08229 0.0
H1537 H 0.0193 0.93633 0.0872 0.0
C1538 C 0.00234 0.88131 0.06343 0.0
C1539 C 0.01681 0.90502 0.09119 0.0
C1540 C 0.02658 0.90975 0.1113 0.0
C1541 C -0.0001 0.89722 0.05294 0.0
C1542 C 0.00637 0.91723 0.06159 0.0
C1543 C 0.01434 0.9209 0.0807 0.0
C1544 C 0.00685 0.93459 0.05045 0.0
C1545 C 0.99142 0.89268 0.03236 0.0
C1546 C 0.02469 0.94536 0.0455 0.0
C1547 C 0.0256 0.96215 0.03544 0.0
C1548 C 0.00867 0.96862 0.03027 0.0
C1549 C 0.99075 0.95761 0.03508 0.0
C1550 C 0.98986 0.94071 0.04509 0.0
H1551 H 0.98844 0.87633 0.02731 0.0
H1552 H 0.97767 0.89788 0.03103 0.0
H1553 H 0.00148 0.90097 0.02278 0.0
H1554 H 0.03794 0.94079 0.04952 0.0
H1555 H 0.03965 0.97022 0.03202 0.0
H1556 H 0.92545 0.20937 0.81835 0.0
H1557 H 0.90051 0.21151 0.79364 0.0
H1558 H 0.93289 0.2702 0.78373 0.0
H1559 H 0.95839 0.26743 0.80754 0.0
H1560 H 0.88119 0.23812 0.80244 0.0
H1561 H 0.90717 0.25222 0.7311 0.0
H1562 H 0.9208 0.24212 0.7488 0.0
H1563 H 0.92251 0.26889 0.74968 0.0
C1564 C 0.92765 0.22224 0.81016 0.0
C1565 C 0.9437 0.23828 0.81483 0.0
C1566 C 0.9134 0.2235 0.79607 0.0
C1567 C 0.91469 0.24108 0.78684 0.0
C1568 C 0.93165 0.2563 0.79027 0.0
H1569 H 0.82374 0.30295 0.77559 0.0
H1570 H 0.85336 0.29109 0.78219 0.0
C1571 C 0.94621 0.25477 0.804 0.0
C1572 C 0.89689 0.24539 0.77758 0.0
H1573 H 0.87901 0.26561 0.73951 0.0
C1574 C 0.88067 0.24365 0.78844 0.0
C1575 C 0.89607 0.25274 0.75938 0.0
C1576 C 0.91254 0.2539 0.74651 0.0
C1577 C 0.86407 0.24977 0.78206 0.0
C1578 C 0.86371 0.25839 0.76454 0.0
C1579 C 0.87947 0.2593 0.75312 0.0
C1580 C 0.84728 0.26722 0.75861 0.0
C1581 C 0.84723 0.24749 0.79449 0.0
C1582 C 0.83439 0.25813 0.74277 0.0
C1583 C 0.81742 0.26492 0.73896 0.0
C1584 C 0.81317 0.28084 0.75097 0.0
C1585 C 0.82655 0.29049 0.76624 0.0
C1586 C 0.84349 0.28378 0.76999 0.0
H1587 H 0.84758 0.23585 0.80448 0.0
H1588 H 0.848 0.26206 0.80328 0.0
H1589 H 0.83324 0.24342 0.78559 0.0
H1590 H 0.83707 0.24531 0.73387 0.0
H1591 H 0.80735 0.25729 0.72703 0.0
H1592 H 0.52082 0.23564 0.6374 0.0
H1593 H 0.51357 0.20107 0.62128 0.0
H1594 H 0.56785 0.21325 0.59508 0.0
H1595 H 0.57518 0.24754 0.61089 0.0
H1596 H 0.5346 0.19651 0.5691 0.0
H1597 H 0.53932 0.15298 0.63184 0.0
H1598 H 0.52441 0.17126 0.63347 0.0
H1599 H 0.55009 0.17955 0.6329 0.0
C1600 C 0.53128 0.23087 0.62836 0.0
C1601 C 0.54854 0.2444 0.6254 0.0
C1602 C 0.52714 0.21112 0.61922 0.0
C1603 C 0.54024 0.20464 0.60708 0.0
C1604 C 0.55757 0.21798 0.6044 0.0
H1605 H 0.55259 0.08991 0.55341 0.0
H1606 H 0.55587 0.12244 0.57266 0.0
C1607 C 0.56172 0.23761 0.61348 0.0
C1608 C 0.53571 0.18432 0.59627 0.0
H1609 H 0.53121 0.13437 0.60124 0.0
C1610 C 0.53371 0.18289 0.5761 0.0
C1611 C 0.53477 0.16667 0.60551 0.0
C1612 C 0.53737 0.16754 0.62712 0.0
C1613 C 0.53099 0.16427 0.56487 0.0
C1614 C 0.53004 0.1466 0.57408 0.0
C1615 C 0.53188 0.14798 0.59427 0.0
C1616 C 0.52769 0.12663 0.56291 0.0
C1617 C 0.52975 0.16371 0.54322 0.0
C1618 C 0.51069 0.1182 0.5512 0.0
C1619 C 0.50878 0.09968 0.54014 0.0
C1620 C 0.52383 0.0892 0.54063 0.0
C1621 C 0.54077 0.09761 0.55258 0.0
C1622 C 0.54264 0.11614 0.56367 0.0
H1623 H 0.53484 0.17888 0.5385 0.0
H1624 H 0.53846 0.15344 0.53678 0.0
H1625 H 0.51447 0.15795 0.5375 0.0
H1626 H 0.4989 0.12598 0.55061 0.0
H1627 H 0.49549 0.09363 0.5312 0.0
H1628 H 0.56687 0.79641 0.36139 0.0
H1629 H 0.59482 0.79381 0.34314 0.0
H1630 H 0.5621 0.73904 0.31098 0.0
H1631 H 0.53392 0.74188 0.32872 0.0
H1632 H 0.61506 0.76519 0.34173 0.0
H1633 H 0.58441 0.76931 0.26808 0.0
H1634 H 0.57249 0.7753 0.28928 0.0
H1635 H 0.57044 0.74947 0.27975 0.0
C1636 C 0.56555 0.78394 0.35027 0.0
C1637 C 0.54813 0.76941 0.34645 0.0
C1638 C 0.58155 0.78245 0.33987 0.0
C1639 C 0.58052 0.76638 0.32548 0.0
C1640 C 0.56314 0.75185 0.32164 0.0
H1641 H 0.68614 0.73465 0.28493 0.0
H1642 H 0.65476 0.73314 0.2985 0.0
C1643 C 0.54705 0.75344 0.33189 0.0
C1644 C 0.59792 0.76438 0.3152 0.0
H1645 H 0.61486 0.76007 0.27057 0.0
C1646 C 0.61501 0.76411 0.32617 0.0
C1647 C 0.59792 0.76314 0.29489 0.0
C1648 C 0.58039 0.76452 0.28231 0.0
C1649 C 0.6321 0.7627 0.31745 0.0
C1650 C 0.63197 0.76088 0.29712 0.0
C1651 C 0.61487 0.76115 0.28613 0.0
C1652 C 0.64977 0.76012 0.28709 0.0
C1653 C 0.65028 0.76387 0.33017 0.0
C1654 C 0.65684 0.77506 0.27525 0.0
C1655 C 0.67453 0.77572 0.26723 0.0
C1656 C 0.68551 0.76146 0.27093 0.0
C1657 C 0.678 0.74588 0.28195 0.0
C1658 C 0.66017 0.74513 0.28984 0.0
H1659 H 0.64913 0.77045 0.34509 0.0
H1660 H 0.65277 0.74847 0.33091 0.0
H1661 H 0.66307 0.77309 0.32434 0.0
H1662 H 0.64902 0.78671 0.27282 0.0
H1663 H 0.67997 0.78789 0.25878 0.0
H1664 H 0.03983 0.21447 0.42596 0.0
H1665 H 0.04328 0.18097 0.43371 0.0
H1666 H 0.01221 0.18765 0.4843 0.0
H1667 H 0.00851 0.22068 0.4767 0.0
H1668 H 0.0588 0.16725 0.46882 0.0
H1669 H 0.98025 0.13633 0.4514 0.0
H1670 H 0.99268 0.15992 0.44392 0.0
H1671 H 0.98563 0.15872 0.46814 0.0
C1672 C 0.0339 0.20883 0.43881 0.0
C1673 C 0.02364 0.22008 0.45055 0.0
C1674 C 0.03591 0.18976 0.44322 0.0
C1675 C 0.0277 0.18179 0.45939 0.0
C1676 C 0.01834 0.19342 0.47158 0.0
H1677 H 0.03748 0.0794 0.51995 0.0
H1678 H 0.04128 0.11298 0.50911 0.0
C1679 C 0.01625 0.21231 0.46718 0.0
C1680 C 0.02785 0.16094 0.46323 0.0
H1681 H 0.99743 0.11626 0.46843 0.0
C1682 C 0.04545 0.15598 0.46855 0.0
C1683 C 0.0104 0.14627 0.46262 0.0
C1684 C 0.99117 0.15047 0.45604 0.0
C1685 C 0.04597 0.13679 0.47393 0.0
C1686 C 0.02839 0.12245 0.47427 0.0
C1687 C 0.01089 0.12731 0.46835 0.0
C1688 C 0.02756 0.10221 0.48054 0.0
C1689 C 0.06529 0.13201 0.47907 0.0
C1690 C 0.0183 0.08507 0.46824 0.0
C1691 C 0.01579 0.066 0.47449 0.0
C1692 C 0.02256 0.06361 0.4932 0.0
C1693 C 0.03216 0.08074 0.50544 0.0
C1694 C 0.03451 0.09992 0.4992 0.0
H1695 H 0.07723 0.14212 0.47282 0.0
H1696 H 0.06822 0.13419 0.49494 0.0
H1697 H 0.06539 0.11615 0.47396 0.0
H1698 H 0.01277 0.08648 0.45381 0.0
H1699 H 0.00846 0.05313 0.4646 0.0
H1700 H 0.53829 0.22538 0.18478 0.0
H1701 H 0.5728 0.22844 0.19224 0.0
H1702 H 0.58567 0.2726 0.15204 0.0
H1703 H 0.55095 0.26981 0.14457 0.0
H1704 H 0.59912 0.22017 0.16569 0.0
H1705 H 0.62036 0.29905 0.20071 0.0
H1706 H 0.59548 0.28532 0.19735 0.0
H1707 H 0.60745 0.29548 0.17738 0.0
C1708 C 0.54839 0.23595 0.17765 0.0
C1709 C 0.54181 0.24736 0.16405 0.0
C1710 C 0.56815 0.23763 0.18191 0.0
C1711 C 0.5818 0.25079 0.17276 0.0
C1712 C 0.57537 0.26255 0.15947 0.0
H1713 H 0.70822 0.27324 0.19229 0.0
H1714 H 0.67582 0.27201 0.17737 0.0
C1715 C 0.55552 0.26091 0.1552 0.0
C1716 C 0.60268 0.25136 0.1767 0.0
H1717 H 0.64511 0.28111 0.1974 0.0
C1718 C 0.60921 0.23353 0.17252 0.0
C1719 C 0.61584 0.26884 0.18546 0.0
C1720 C 0.60949 0.28826 0.19065 0.0
C1721 C 0.62846 0.2326 0.17723 0.0
C1722 C 0.64144 0.24986 0.18664 0.0
C1723 C 0.63511 0.26789 0.19019 0.0
C1724 C 0.66123 0.24917 0.19414 0.0
C1725 C 0.6347 0.2131 0.17217 0.0
C1726 C 0.66377 0.23659 0.20835 0.0
C1727 C 0.68221 0.23726 0.21686 0.0
C1728 C 0.69843 0.25058 0.21135 0.0
C1729 C 0.69597 0.26273 0.19671 0.0
C1730 C 0.67749 0.26211 0.18824 0.0
H1731 H 0.62517 0.20358 0.16015 0.0
H1732 H 0.64986 0.21592 0.16805 0.0
H1733 H 0.63381 0.20448 0.18487 0.0
H1734 H 0.6514 0.22678 0.21339 0.0
H1735 H 0.68368 0.22786 0.22822 0.0
H1736 H 0.49553 0.82139 0.97853 0.0
H1737 H 0.50061 0.85658 0.99103 0.0
H1738 H 0.55253 0.87027 0.96103 0.0
H1739 H 0.54713 0.8348 0.94773 0.0
H1740 H 0.52861 0.8825 0.01304 0.0
H1741 H 0.52202 0.90827 0.94037 0.0
H1742 H 0.51665 0.88197 0.94405 0.0
H1743 H 0.54134 0.89561 0.94457 0.0
C1744 C 0.50814 0.83176 0.97462 0.0
C1745 C 0.52079 0.82526 0.96189 0.0
C1746 C 0.51105 0.85195 0.98186 0.0
C1747 C 0.52673 0.86617 0.97669 0.0
C1748 C 0.54005 0.85964 0.96483 0.0
H1749 H 0.53721 0.99016 0.03235 0.0
H1750 H 0.5452 0.95761 0.02269 0.0
C1751 C 0.53704 0.83934 0.95738 0.0
C1752 C 0.52823 0.8878 0.98322 0.0
H1753 H 0.52452 0.93247 0.96694 0.0
C1754 C 0.52796 0.89352 0.00299 0.0
C1755 C 0.52721 0.9021 0.97004 0.0
C1756 C 0.52667 0.89673 0.94857 0.0
C1757 C 0.52573 0.91279 0.00991 0.0
C1758 C 0.52435 0.92695 0.9967 0.0
C1759 C 0.52558 0.92156 0.97702 0.0
C1760 C 0.5199 0.94678 0.0027 0.0
C1761 C 0.52373 0.91736 0.03113 0.0
C1762 C 0.50326 0.95167 0.99442 0.0
C1763 C 0.49884 0.97027 -0.00026 0.0
C1764 C 0.51094 0.98431 0.01347 0.0
C1765 C 0.52752 0.97943 0.02191 0.0
C1766 C 0.53207 0.96086 0.01642 0.0
H1767 H 0.52054 0.90345 0.03848 0.0
H1768 H 0.53751 0.92694 0.03799 0.0
H1769 H 0.51205 0.92564 0.03354 0.0
H1770 H 0.49366 0.94106 0.98381 0.0
H1771 H 0.486 0.97373 0.99299 0.0
H1772 H 0.94286 0.7439 0.70544 0.0
H1773 H 0.91474 0.75313 0.71931 0.0
H1774 H 0.91064 0.79214 0.67508 0.0
H1775 H 0.93892 0.78298 0.66098 0.0
H1776 H 0.90689 0.79309 0.7319 0.0
H1777 H 0.85778 0.74895 0.67063 0.0
H1778 H 0.88199 0.74541 0.67562 0.0
H1779 H 0.87836 0.76729 0.66497 0.0
C1780 C 0.93614 0.75461 0.69873 0.0
C1781 C 0.94302 0.76256 0.68198 0.0
C1782 C 0.92012 0.75991 0.70673 0.0
C1783 C 0.91057 0.77314 0.6981 0.0
C1784 C 0.91779 0.78177 0.68184 0.0
H1785 H 0.80979 0.81188 0.74307 0.0
H1786 H 0.84118 0.81219 0.73003 0.0
C1787 C 0.93396 0.77657 0.67385 0.0
C1788 C 0.89236 0.7767 0.70554 0.0
H1789 H 0.84334 0.76366 0.69602 0.0
C1790 C 0.89298 0.78692 0.724 0.0
C1791 C 0.8743 0.76836 0.69521 0.0
C1792 C 0.87289 0.75676 0.67555 0.0
C1793 C 0.8759 0.78878 0.73254 0.0
C1794 C 0.85787 0.78018 0.72231 0.0
C1795 C 0.85726 0.77027 0.70374 0.0
C1796 C 0.83939 0.78034 0.73101 0.0
C1797 C 0.87715 0.79928 0.75266 0.0
C1798 C 0.82809 0.76231 0.73584 0.0
C1799 C 0.81021 0.76205 0.74333 0.0
C1800 C 0.80323 0.77982 0.74594 0.0
C1801 C 0.81473 0.79793 0.74124 0.0
C1802 C 0.83268 0.79817 0.73385 0.0
H1803 H 0.89216 0.80294 0.75952 0.0
H1804 H 0.87207 0.81351 0.75217 0.0
H1805 H 0.8676 0.7897 0.76178 0.0
H1806 H 0.83307 0.74839 0.73368 0.0
H1807 H 0.80175 0.74784 0.74674 0.0
H1808 H 0.1236 0.02022 0.85738 0.0
H1809 H 0.10633 0.00828 0.88466 0.0
H1810 H 0.08112 0.95181 0.85064 0.0
H1811 H 0.09877 0.96386 0.82314 0.0
H1812 H 0.05411 0.97157 0.8653 0.0
H1813 H 0.10791 0.96814 0.92373 0.0
H1814 H 0.11466 0.99162 0.91377 0.0
H1815 H 0.1138 0.96832 0.89895 0.0
C1816 C 0.11497 0.00496 0.85599 0.0
C1817 C 0.11262 0.99284 0.83835 0.0
C1818 C 0.10516 0.99809 0.8716 0.0
C1819 C 0.0926 0.97903 0.86982 0.0
C1820 C 0.09094 0.96645 0.85241 0.0
H1821 H 0.00168 0.96732 0.95328 0.0
H1822 H 0.02085 0.95492 0.92838 0.0
C1823 C 0.10106 0.97327 0.83678 0.0
C1824 C 0.07912 0.97416 0.88502 0.0
H1825 H 0.07843 0.97853 0.93392 0.0
C1826 C 0.05928 0.97234 0.88028 0.0
C1827 C 0.08586 0.97511 0.90454 0.0
C1828 C 0.10673 0.9757 0.91048 0.0
C1829 C 0.04638 0.97361 0.89465 0.0
C1830 C 0.05352 0.97652 0.91419 0.0
C1831 C 0.073 0.97647 0.91891 0.0
C1832 C 0.042 0.98306 0.92962 0.0
C1833 C 0.02558 0.9736 0.88885 0.0
C1834 C 0.04761 0.00285 0.93856 0.0
C1835 C 0.03673 0.00992 0.95254 0.0
C1836 C 0.02009 0.99726 0.95809 0.0
C1837 C 0.01442 0.97738 0.94921 0.0
C1838 C 0.02535 0.97029 0.93505 0.0
H1839 H 0.02274 0.97289 0.873 0.0
H1840 H 0.01597 0.96039 0.89391 0.0
H1841 H 0.02168 0.98738 0.8957 0.0
H1842 H 0.06033 0.01299 0.93449 0.0
H1843 H 0.04139 0.02536 0.95902 0.0
H1844 H 0.7083 0.37389 0.56032 0.0
H1845 H 0.69349 0.36876 0.59092 0.0
H1846 H 0.71807 0.31669 0.59545 0.0
H1847 H 0.73264 0.32153 0.56516 0.0
H1848 H 0.67875 0.31255 0.60722 0.0
H1849 H 0.73016 0.38234 0.64114 0.0
H1850 H 0.71412 0.38345 0.62062 0.0
H1851 H 0.7338 0.37101 0.61768 0.0
C1852 C 0.71024 0.36117 0.56772 0.0
C1853 C 0.72188 0.34829 0.56051 0.0
C1854 C 0.7018 0.35829 0.58517 0.0
C1855 C 0.70484 0.34245 0.59546 0.0
C1856 C 0.71551 0.32898 0.58768 0.0
H1857 H 0.73206 0.28635 0.68051 0.0
H1858 H 0.71571 0.29698 0.65311 0.0
C1859 C 0.72397 0.33187 0.57043 0.0
C1860 C 0.69916 0.34072 0.61532 0.0
H1861 H 0.71872 0.35753 0.66097 0.0
C1862 C 0.6869 0.32274 0.6191 0.0
C1863 C 0.70955 0.35418 0.6308 0.0
C1864 C 0.72269 0.37386 0.62753 0.0
C1865 C 0.68663 0.31675 0.6377 0.0
C1866 C 0.69915 0.32892 0.65265 0.0
C1867 C 0.70931 0.34812 0.64938 0.0
C1868 C 0.70548 0.32039 0.66989 0.0
C1869 C 0.67415 0.29672 0.64086 0.0
C1870 C 0.70523 0.33005 0.68845 0.0
C1871 C 0.71469 0.324 0.70419 0.0
C1872 C 0.7248 0.30848 0.70143 0.0
C1873 C 0.72441 0.29838 0.68299 0.0
C1874 C 0.71485 0.30428 0.66737 0.0
H1875 H 0.66059 0.29333 0.63127 0.0
H1876 H 0.68206 0.28464 0.63728 0.0
H1877 H 0.67041 0.29639 0.65604 0.0
H1878 H 0.69832 0.34269 0.69064 0.0
H1879 H 0.71477 0.33197 0.71833 0.0
H1880 H 0.49139 0.07907 0.30673 0.0
H1881 H 0.50426 0.08108 0.3401 0.0
H1882 H 0.44907 0.08737 0.35966 0.0
H1883 H 0.43613 0.08582 0.32619 0.0
H1884 H 0.4832 0.10984 0.38451 0.0
H1885 H 0.48284 0.02898 0.36528 0.0
H1886 H 0.49644 0.04575 0.35023 0.0
H1887 H 0.47067 0.04309 0.3501 0.0
C1888 C 0.48212 0.08142 0.31814 0.0
C1889 C 0.46266 0.08195 0.31387 0.0
C1890 C 0.48951 0.08256 0.33718 0.0
C1891 C 0.47748 0.08393 0.35226 0.0
C1892 C 0.45854 0.08624 0.34817 0.0
H1893 H 0.49064 0.03247 0.45837 0.0
H1894 H 0.4783 0.04349 0.42897 0.0
C1895 C 0.45118 0.08535 0.32906 0.0
C1896 C 0.48384 0.08009 0.37176 0.0
H1897 H 0.49661 0.04344 0.39616 0.0
C1898 C 0.48613 0.09535 0.38714 0.0
C1899 C 0.48729 0.06103 0.37513 0.0
C1900 C 0.48403 0.04369 0.35938 0.0
C1901 C 0.49217 0.0921 0.40584 0.0
C1902 C 0.49617 0.07321 0.40903 0.0
C1903 C 0.49363 0.05795 0.39365 0.0
C1904 C 0.50267 0.0685 0.4282 0.0
C1905 C 0.49385 0.10871 0.42205 0.0
C1906 C 0.52039 0.07906 0.43767 0.0
C1907 C 0.52741 0.07287 0.45465 0.0
C1908 C 0.51687 0.05595 0.46225 0.0
C1909 C 0.499 0.04567 0.45293 0.0
C1910 C 0.49194 0.05193 0.43611 0.0
H1911 H 0.4857 0.12017 0.41825 0.0
H1912 H 0.48844 0.10256 0.43533 0.0
H1913 H 0.5093 0.11637 0.42521 0.0
H1914 H 0.52911 0.09161 0.43158 0.0
H1915 H 0.54127 0.081 0.46154 0.0
H1916 H 0.78355 0.66961 0.05475 0.0
H1917 H 0.78805 0.68228 0.08913 0.0
H1918 H 0.7454 0.71777 0.0807 0.0
H1919 H 0.74095 0.70553 0.04667 0.0
H1920 H 0.77951 0.73899 0.10208 0.0
H1921 H 0.74877 0.66618 0.12989 0.0
H1922 H 0.76799 0.66632 0.11413 0.0
H1923 H 0.74509 0.67013 0.10494 0.0
C1924 C 0.77518 0.68015 0.06025 0.0
C1925 C 0.76184 0.68649 0.04795 0.0
C1926 C 0.77769 0.68727 0.07988 0.0
C1927 C 0.76689 0.70079 0.08745 0.0
C1928 C 0.75384 0.70731 0.07515 0.0
H1929 H 0.73576 0.73772 0.19988 0.0
H1930 H 0.73752 0.72289 0.16696 0.0
C1931 C 0.7513 0.70024 0.05567 0.0
C1932 C 0.769 0.70847 0.10814 0.0
H1933 H 0.75883 0.69468 0.15271 0.0
C1934 C 0.77519 0.7293 0.11321 0.0
C1935 C 0.76309 0.69577 0.12251 0.0
C1936 C 0.75572 0.67336 0.1177 0.0
C1937 C 0.7753 0.73788 0.13223 0.0
C1938 C 0.76934 0.7252 0.14663 0.0
C1939 C 0.76345 0.70432 0.14163 0.0
C1940 C 0.7685 0.73349 0.16682 0.0
C1941 C 0.78107 0.7605 0.13662 0.0
C1942 C 0.78536 0.74411 0.17769 0.0
C1943 C 0.7844 0.7527 0.19643 0.0
C1944 C 0.76655 0.75069 0.20473 0.0
C1945 C 0.74972 0.73964 0.19392 0.0
C1946 C 0.7507 0.73109 0.17514 0.0
H1947 H 0.78087 0.76823 0.12338 0.0
H1948 H 0.77128 0.76608 0.14662 0.0
H1949 H 0.79599 0.76475 0.14365 0.0
H1950 H 0.79928 0.74583 0.17165 0.0
H1951 H 0.7977 0.76094 0.20436 0.0
H1952 H 0.0841 0.02247 0.74016 0.0
H1953 H 0.0749 0.02195 0.70602 0.0
H1954 H 0.12204 0.99404 0.69145 0.0
H1955 H 0.13142 0.99441 0.72575 0.0
H1956 H 0.10123 0.04224 0.6804 0.0
H1957 H 0.07421 0.96048 0.65645 0.0
H1958 H 0.07561 0.97065 0.6814 0.0
H1959 H 0.09722 0.96795 0.67026 0.0
C1960 C 0.09237 0.0159 0.72975 0.0
C1961 C 0.10857 0.00856 0.73571 0.0
C1962 C 0.08709 0.01566 0.71024 0.0
C1963 C 0.09778 0.00796 0.69626 0.0
C1964 C 0.11349 -0.00014 0.70206 0.0
H1965 H 0.07695 0.00269 0.57096 0.0
H1966 H 0.0923 0.00122 0.60292 0.0
C1967 C 0.11882 0.0001 0.72165 0.0
C1968 C 0.09317 0.00986 0.67574 0.0
H1969 H 0.07411 0.98294 0.63294 0.0
C1970 C 0.0954 0.02928 0.66997 0.0
C1971 C 0.08579 0.99291 0.66218 0.0
C1972 C 0.08291 0.97178 0.66779 0.0
C1973 C 0.09006 0.03224 0.65107 0.0
C1974 C 0.08191 0.01534 0.63768 0.0
C1975 C 0.08032 0.99587 0.64326 0.0
C1976 C 0.07375 0.01754 0.61827 0.0
C1977 C 0.09315 0.05347 0.64562 0.0
C1978 C 0.05833 0.02729 0.61633 0.0
C1979 C 0.04962 0.0282 0.59816 0.0
C1980 C 0.05609 0.01924 0.58162 0.0
C1981 C 0.07177 0.00982 0.5835 0.0
C1982 C 0.08049 0.0089 0.60171 0.0
H1983 H 0.10473 0.06389 0.65522 0.0
H1984 H 0.09703 0.05412 0.6305 0.0
H1985 H 0.07959 0.05892 0.64705 0.0
H1986 H 0.05264 0.03369 0.62893 0.0
H1987 H 0.03746 0.0354 0.59713 0.0
H1988 H 0.7467 0.3006 0.46924 0.0
H1989 H 0.74543 0.28411 0.43655 0.0
H1990 H 0.72858 0.33491 0.41394 0.0
H1991 H 0.72944 0.35142 0.4467 0.0
H1992 H 0.70976 0.29717 0.39406 0.0
H1993 H 0.78952 0.30574 0.40337 0.0
H1994 H 0.77629 0.29209 0.42088 0.0
H1995 H 0.77633 0.3183 0.42009 0.0
C1996 C 0.74243 0.30815 0.45733 0.0
C1997 C 0.73847 0.32746 0.4605 0.0
C1998 C 0.74176 0.29872 0.43868 0.0
C1999 C 0.73738 0.30853 0.42288 0.0
C2000 C 0.73212 0.32718 0.426 0.0
H2001 H 0.77154 0.29942 0.30803 0.0
H2002 H 0.76715 0.3079 0.34193 0.0
C2003 C 0.73262 0.33658 0.4447 0.0
C2004 C 0.73979 0.30013 0.40316 0.0
H2005 H 0.77386 0.28885 0.37398 0.0
C2006 C 0.72372 0.29522 0.38964 0.0
C2007 C 0.75812 0.29791 0.39747 0.0
C2008 C 0.77611 0.30394 0.41113 0.0
C2009 C 0.72553 0.2882 0.37047 0.0
C2010 C 0.74382 0.28577 0.36487 0.0
C2011 C 0.75983 0.29053 0.37843 0.0
C2012 C 0.74704 0.27985 0.34467 0.0
C2013 C 0.70803 0.28414 0.35624 0.0
C2014 C 0.73759 0.26102 0.33517 0.0
C2015 C 0.74008 0.25613 0.31575 0.0
C2016 C 0.75213 0.26999 0.30568 0.0
C2017 C 0.76215 0.28847 0.31545 0.0
C2018 C 0.75963 0.29335 0.33479 0.0
H2019 H 0.69616 0.29074 0.36192 0.0
H2020 H 0.71186 0.29034 0.34252 0.0
H2021 H 0.70251 0.26763 0.35305 0.0
H2022 H 0.72814 0.25024 0.34269 0.0
H2023 H 0.73228 0.24173 0.30854 0.0
H2024 H 0.42346 0.09939 0.20764 0.0
H2025 H 0.42981 0.11107 0.17596 0.0
H2026 H 0.48405 0.09217 0.17826 0.0
H2027 H 0.478 0.08073 0.20965 0.0
H2028 H 0.48539 0.12982 0.16233 0.0
H2029 H 0.42477 0.06765 0.12924 0.0
H2030 H 0.41983 0.08565 0.14769 0.0
H2031 H 0.43432 0.06826 0.15375 0.0
C2032 C 0.43688 0.09807 0.2015 0.0
C2033 C 0.4501 0.08886 0.211 0.0
C2034 C 0.44045 0.1047 0.18342 0.0
C2035 C 0.4573 0.10227 0.17471 0.0
C2036 C 0.47097 0.0942 0.18473 0.0
H2037 H 0.51732 0.07539 0.08633 0.0
H2038 H 0.50577 0.09099 0.11494 0.0
C2039 C 0.46741 0.08752 0.20263 0.0
C2040 C 0.46022 0.10591 0.15447 0.0
H2041 H 0.44776 0.08196 0.10912 0.0
C2042 C 0.47684 0.11978 0.15058 0.0
C2043 C 0.44895 0.09293 0.13913 0.0
C2044 C 0.43099 0.0777 0.14251 0.0
C2045 C 0.48341 0.11976 0.13202 0.0
C2046 C 0.47325 0.10532 0.11719 0.0
C2047 C 0.45557 0.09292 0.12061 0.0
C2048 C 0.48233 0.10003 0.09945 0.0
C2049 C 0.50172 0.13439 0.12865 0.0
C2050 C 0.47314 0.10016 0.08123 0.0
C2051 C 0.47983 0.09135 0.06481 0.0
C2052 C 0.49549 0.08186 0.06653 0.0
C2053 C 0.50521 0.08259 0.08465 0.0
C2054 C 0.49871 0.09164 0.10097 0.0
H2055 H 0.5041 0.14828 0.13891 0.0
H2056 H 0.51423 0.12727 0.13087 0.0
H2057 H 0.50131 0.1386 0.11371 0.0
H2058 H 0.46033 0.10629 0.07984 0.0
H2059 H 0.47209 0.09099 0.05096 0.0
H2060 H 0.78075 0.72502 0.96249 0.0
H2061 H 0.7869 0.74205 0.93357 0.0
H2062 H 0.78385 0.68484 0.90036 0.0
H2063 H 0.77844 0.66776 0.9296 0.0
H2064 H 0.81003 0.71857 0.88679 0.0
H2065 H 0.73697 0.73267 0.89796 0.0
H2066 H 0.75443 0.74256 0.91793 0.0
H2067 H 0.74731 0.71578 0.9114 0.0
C2068 C 0.78212 0.71618 0.94915 0.0
C2069 C 0.77897 0.69512 0.94815 0.0
C2070 C 0.78556 0.72589 0.93265 0.0
C2071 C 0.78533 0.71464 0.91478 0.0
C2072 C 0.784 0.69377 0.91403 0.0
H2073 H 0.74124 0.74831 0.80915 0.0
H2074 H 0.74909 0.73104 0.83636 0.0
C2075 C 0.78095 0.68404 0.93071 0.0
C2076 C 0.78335 0.72419 0.89685 0.0
H2077 H 0.75311 0.74775 0.87276 0.0
C2078 C 0.79762 0.72496 0.88365 0.0
C2079 C 0.76692 0.73215 0.89266 0.0
C2080 C 0.75043 0.73061 0.90562 0.0
C2081 C 0.79598 0.7338 0.86643 0.0
C2082 C 0.77982 0.7423 0.86259 0.0
C2083 C 0.76556 0.74137 0.87578 0.0
C2084 C 0.77668 0.75153 0.84468 0.0
C2085 C 0.81127 0.73355 0.85232 0.0
C2086 C 0.78967 0.76873 0.84013 0.0
C2087 C 0.78533 0.77847 0.82424 0.0
C2088 C 0.76786 0.77123 0.81284 0.0
C2089 C 0.75501 0.75397 0.81737 0.0
C2090 C 0.75942 0.74415 0.83303 0.0
H2091 H 0.82001 0.7223 0.85513 0.0
H2092 H 0.80463 0.73014 0.83731 0.0
H2093 H 0.82118 0.74862 0.85363 0.0
H2094 H 0.80285 0.77498 0.84918 0.0
H2095 H 0.79542 0.79184 0.8211 0.0
H2096 H 0.79436 0.08455 0.99055 0.0
H2097 H 0.81974 0.06536 0.99193 0.0
H2098 H 0.85737 0.11528 0.0269 0.0
H2099 H 0.83212 0.13465 0.02558 0.0
H2100 H 0.8736 0.09959 0.9938 0.0
H2101 H 0.84071 0.03967 0.03798 0.0
H2102 H 0.82546 0.04359 0.01797 0.0
H2103 H 0.83285 0.06311 0.03762 0.0
C2104 C 0.80797 0.0914 -0.00132 0.0
C2105 C 0.81123 0.11115 0.00793 0.0
C2106 C 0.8224 0.08036 -0.00046 0.0
C2107 C 0.84032 0.08885 0.00968 0.0
C2108 C 0.84357 0.10845 0.01909 0.0
H2109 H 0.94003 0.04002 0.03705 0.0
H2110 H 0.91091 0.05389 0.03809 0.0
C2111 C 0.82913 0.11948 0.01832 0.0
C2112 C 0.85612 0.0778 0.00947 0.0
H2113 H 0.86957 0.03602 0.02377 0.0
C2114 C 0.87274 0.08571 0.00036 0.0
C2115 C 0.85493 0.05977 0.01814 0.0
C2116 C 0.83761 0.05105 0.02863 0.0
C2117 C 0.8882 0.07593 -0.00047 0.0
C2118 C 0.88688 0.05771 0.00788 0.0
C2119 C 0.87037 0.04989 0.0172 0.0
C2120 C 0.90293 0.04704 0.00755 0.0
C2121 C 0.90597 0.0853 0.98996 0.0
C2122 C 0.90764 0.03806 0.99011 0.0
C2123 C 0.92419 0.03008 0.98948 0.0
C2124 C 0.93624 0.03102 0.00629 0.0
C2125 C 0.93097 0.03913 0.02388 0.0
C2126 C 0.91438 0.04703 0.02451 0.0
H2127 H 0.90613 0.10112 0.98736 0.0
H2128 H 0.91931 0.08503 -0.00109 0.0
H2129 H 0.90631 0.07647 0.97589 0.0
H2130 H 0.89885 0.03781 0.97691 0.0
H2131 H 0.92794 0.02389 0.97574 0.0
H2132 H 0.32287 0.42078 0.07042 0.0
H2133 H 0.35395 0.44433 0.06985 0.0
H2134 H 0.33375 0.46352 0.01694 0.0
H2135 H 0.30222 0.44074 0.01817 0.0
H2136 H 0.37612 0.43803 0.04318 0.0
H2137 H 0.36613 0.51591 0.04141 0.0
H2138 H 0.34756 0.49601 0.0484 0.0
H2139 H 0.3506 0.49868 0.02334 0.0
C2140 C 0.32483 0.43068 0.05914 0.0
C2141 C 0.31024 0.42906 0.04437 0.0
C2142 C 0.3426 0.44407 0.05876 0.0
C2143 C 0.34628 0.45572 0.04333 0.0
C2144 C 0.3312 0.45508 0.02922 0.0
H2145 H 0.45964 0.47875 0.00018 0.0
H2146 H 0.42497 0.46877 0.00381 0.0
C2147 C 0.31319 0.442 0.02989 0.0
C2148 C 0.36656 0.46561 0.04043 0.0
H2149 H 0.39597 0.5093 0.03031 0.0
C2150 C 0.38043 0.4537 0.04061 0.0
C2151 C 0.37229 0.48605 0.03708 0.0
C2152 C 0.35839 0.49995 0.03773 0.0
C2153 C 0.39973 0.4615 0.03738 0.0
C2154 C 0.40529 0.48163 0.03309 0.0
C2155 C 0.39159 0.49376 0.03325 0.0
C2156 C 0.42541 0.4902 0.02876 0.0
C2157 C 0.41404 0.4481 0.03891 0.0
C2158 C 0.4369 0.50644 0.04081 0.0
C2159 C 0.45669 0.51248 0.03848 0.0
C2160 C 0.46523 0.50228 0.02413 0.0
C2161 C 0.45346 0.48686 0.01137 0.0
C2162 C 0.43368 0.48104 0.01353 0.0
H2163 H 0.4088 0.43551 0.04758 0.0
H2164 H 0.41609 0.44144 0.0243 0.0
H2165 H 0.42831 0.45676 0.04557 0.0
H2166 H 0.43078 0.51378 0.05259 0.0
H2167 H 0.46544 0.52447 0.04847 0.0
H2168 H 0.35056 0.58534 0.77929 0.0
H2169 H 0.33358 0.61276 0.77728 0.0
H2170 H 0.34642 0.61568 0.71799 0.0
H2171 H 0.36373 0.5885 0.71996 0.0
H2172 H 0.35516 0.6525 0.73846 0.0
H2173 H 0.28103 0.61337 0.75166 0.0
H2174 H 0.29892 0.61119 0.77 0.0
H2175 H 0.2997 0.6 0.74582 0.0
C2176 C 0.34962 0.59166 0.76575 0.0
C2177 C 0.35853 0.58469 0.74979 0.0
C2178 C 0.33977 0.60726 0.76459 0.0
C2179 C 0.33844 0.6161 0.74739 0.0
C2180 C 0.34715 0.60903 0.73138 0.0
H2181 H 0.26978 0.70583 0.72623 0.0
H2182 H 0.28213 0.67485 0.72516 0.0
C2183 C 0.35705 0.59347 0.73254 0.0
C2184 C 0.32911 0.63356 0.74646 0.0
H2185 H 0.28723 0.64936 0.75389 0.0
C2186 C 0.34026 0.65174 0.74169 0.0
C2187 C 0.30959 0.63254 0.75042 0.0
C2188 C 0.29654 0.61317 0.75457 0.0
C2189 C 0.33262 0.66905 0.74132 0.0
C2190 C 0.3134 0.6683 0.7462 0.0
C2191 C 0.30203 0.64998 0.75038 0.0
C2192 C 0.30514 0.68657 0.7475 0.0
C2193 C 0.34521 0.688 0.73563 0.0
C2194 C 0.31363 0.70322 0.76077 0.0
C2195 C 0.30666 0.72088 0.76141 0.0
C2196 C 0.29091 0.72227 0.74887 0.0
C2197 C 0.28195 0.7053 0.73605 0.0
C2198 C 0.28899 0.68759 0.73541 0.0
H2199 H 0.35722 0.68465 0.72725 0.0
H2200 H 0.33663 0.69626 0.72693 0.0
H2201 H 0.35169 0.69802 0.74881 0.0
H2202 H 0.32583 0.70263 0.77053 0.0
H2203 H 0.31383 0.73353 0.77162 0.0
H2204 H 0.20701 0.63469 0.4684 0.0
H2205 H 0.17691 0.61214 0.4745 0.0
H2206 H 0.20716 0.58824 0.51872 0.0
H2207 H 0.23766 0.61079 0.51253 0.0
H2208 H 0.17397 0.55919 0.4918 0.0
H2209 H 0.15636 0.62754 0.52933 0.0
H2210 H 0.165 0.63074 0.50591 0.0
H2211 H 0.18081 0.62571 0.52489 0.0
C2212 C 0.20738 0.62431 0.47912 0.0
C2213 C 0.22459 0.62467 0.49019 0.0
C2214 C 0.19019 0.61144 0.48256 0.0
C2215 C 0.18986 0.59884 0.49723 0.0
C2216 C 0.20722 0.59795 0.50736 0.0
H2217 H 0.07474 0.56233 0.53791 0.0
H2218 H 0.11003 0.57202 0.53872 0.0
C2219 C 0.22458 0.61078 0.50379 0.0
C2220 C 0.171 0.58864 0.50322 0.0
H2221 H 0.13 0.59955 0.52037 0.0
C2222 C 0.1644 0.56785 0.49837 0.0
C2223 C 0.15879 0.59997 0.51217 0.0
C2224 C 0.16561 0.62221 0.51857 0.0
C2225 C 0.14532 0.55829 0.50116 0.0
C2226 C 0.13256 0.57001 0.50854 0.0
C2227 C 0.13967 0.59056 0.51454 0.0
C2228 C 0.11147 0.56189 0.50868 0.0
C2229 C 0.13899 0.53583 0.49594 0.0
C2230 C 0.10054 0.55303 0.49153 0.0
C2231 C 0.08042 0.54737 0.49106 0.0
C2232 C 0.07079 0.55085 0.50765 0.0
C2233 C 0.08173 0.55962 0.52485 0.0
C2234 C 0.1019 0.56504 0.52537 0.0
H2235 H 0.15137 0.52839 0.49767 0.0
H2236 H 0.12745 0.52901 0.50493 0.0
H2237 H 0.13334 0.5327 0.48061 0.0
H2238 H 0.1075 0.55108 0.47831 0.0
H2239 H 0.0724 0.54075 0.47755 0.0
H2240 H 0.65148 0.96537 0.73355 0.0
H2241 H 0.67351 0.9423 0.73344 0.0
H2242 H 0.70969 0.98079 0.77968 0.0
H2243 H 0.68766 0.00389 0.78007 0.0
H2244 H 0.71479 0.94829 0.7296 0.0
H2245 H 0.6932 0.92571 0.80102 0.0
H2246 H 0.67953 0.93928 0.78672 0.0
H2247 H 0.7019 0.9522 0.79976 0.0
C2248 C 0.66421 0.96904 0.7436 0.0
C2249 C 0.66769 0.98633 0.757 0.0
C2250 C 0.6768 0.95588 0.74346 0.0
C2251 C 0.69304 0.95975 0.75672 0.0
C2252 C 0.69706 0.97743 0.76952 0.0
H2253 H 0.76109 0.87243 0.78549 0.0
H2254 H 0.75192 0.90486 0.78344 0.0
C2255 C 0.68446 0.99061 0.76969 0.0
C2256 C 0.70501 0.94458 0.75788 0.0
H2257 H 0.71541 0.90964 0.78604 0.0
C2258 C 0.71511 0.93994 0.74199 0.0
C2259 C 0.70542 0.93382 0.77412 0.0
C2260 C 0.69435 0.93782 0.79135 0.0
C2261 C 0.72538 0.9245 0.74179 0.0
C2262 C 0.72517 0.91322 0.75773 0.0
C2263 C 0.71562 0.91837 0.77387 0.0
C2264 C 0.73307 0.89482 0.75739 0.0
C2265 C 0.73625 0.92036 0.72446 0.0
C2266 C 0.72569 0.87854 0.74333 0.0
C2267 C 0.73093 0.86012 0.74447 0.0
C2268 C 0.74346 0.85759 0.75981 0.0
C2269 C 0.7514 0.87404 0.77352 0.0
C2270 C 0.74619 0.89252 0.77235 0.0
H2271 H 0.74063 0.93409 0.71703 0.0
H2272 H 0.74937 0.91481 0.72852 0.0
H2273 H 0.72669 0.90869 0.71407 0.0
H2274 H 0.71519 0.87977 0.73194 0.0
H2275 H 0.72458 0.84765 0.73371 0.0
H2276 H 0.69919 0.91899 0.54357 0.0
H2277 H 0.67373 0.93812 0.54335 0.0
H2278 H 0.70454 0.97674 0.50477 0.0
H2279 H 0.72998 0.95753 0.50468 0.0
H2280 H 0.67586 0.97921 0.55395 0.0
H2281 H 0.65058 0.95752 0.47681 0.0
H2282 H 0.66624 0.94464 0.48951 0.0
H2283 H 0.67597 0.96857 0.48124 0.0
C2284 C 0.70057 0.93153 0.535 0.0
C2285 C 0.71659 0.93663 0.52403 0.0
C2286 C 0.68601 0.94248 0.53493 0.0
C2287 C 0.68709 0.95867 0.52383 0.0
C2288 C 0.70322 0.96405 0.51314 0.0
H2289 H 0.60624 0.03548 0.50142 0.0
H2290 H 0.63521 0.02137 0.50387 0.0
C2291 C 0.7178 0.9531 0.51319 0.0
C2292 C 0.67131 0.9699 0.52349 0.0
H2293 H 0.63637 0.98148 0.49383 0.0
C2294 C 0.66722 0.97972 0.54081 0.0
C2295 C 0.66008 0.97057 0.50633 0.0
C2296 C 0.66327 0.95963 0.48743 0.0
C2297 C 0.65227 0.99031 0.54141 0.0
C2298 C 0.6409 0.9908 0.52429 0.0
C2299 C 0.64515 0.98116 0.50694 0.0
C2300 C 0.62406 0.00053 0.52409 0.0
C2301 C 0.64893 0.00107 0.56034 0.0
C2302 C 0.60822 0.99357 0.5347 0.0
C2303 C 0.59171 0.00163 0.53334 0.0
C2304 C 0.5907 0.01671 0.52125 0.0
C2305 C 0.60668 0.02394 0.51092 0.0
C2306 C 0.6232 0.01586 0.51227 0.0
H2307 H 0.66201 0.00419 0.57057 0.0
H2308 H 0.64474 0.01552 0.55824 0.0
H2309 H 0.63701 0.99142 0.567 0.0
H2310 H 0.60837 0.98147 0.54358 0.0
H2311 H 0.57955 0.99567 0.54137 0.0
H2312 H 0.38459 0.46596 0.70013 0.0
H2313 H 0.36207 0.43319 0.69743 0.0
H2314 H 0.32595 0.45779 0.73658 0.0
H2315 H 0.34793 0.49082 0.73847 0.0
H2316 H 0.35637 0.41136 0.72504 0.0
H2317 H 0.285 0.4233 0.70003 0.0
H2318 H 0.30702 0.44188 0.69877 0.0
H2319 H 0.29492 0.44061 0.72076 0.0
C2320 C 0.37151 0.46449 0.70767 0.0
C2321 C 0.36796 0.4809 0.71949 0.0
C2322 C 0.35868 0.44575 0.70617 0.0
C2323 C 0.34221 0.44295 0.71671 0.0
C2324 C 0.33822 0.4596 0.72788 0.0
H2325 H 0.29481 0.33531 0.76695 0.0
H2326 H 0.31306 0.36738 0.75842 0.0
C2327 C 0.35085 0.47849 0.72903 0.0
C2328 C 0.33073 0.42226 0.71797 0.0
H2329 H 0.28469 0.39416 0.71726 0.0
C2330 C 0.3407 0.40756 0.72301 0.0
C2331 C 0.3103 0.41708 0.7151 0.0
C2332 C 0.29874 0.43152 0.70815 0.0
C2333 C 0.33083 0.38815 0.72593 0.0
C2334 C 0.31036 0.38348 0.72451 0.0
C2335 C 0.30038 0.39785 0.71869 0.0
C2336 C 0.29911 0.36404 0.72963 0.0
C2337 C 0.34251 0.37286 0.73043 0.0
C2338 C 0.28468 0.3518 0.71656 0.0
C2339 C 0.27397 0.33361 0.72156 0.0
C2340 C 0.27759 0.32736 0.73968 0.0
C2341 C 0.29191 0.33966 0.75279 0.0
C2342 C 0.30243 0.35793 0.74788 0.0
H2343 H 0.3569 0.37627 0.72448 0.0
H2344 H 0.34499 0.37331 0.74627 0.0
H2345 H 0.3349 0.35735 0.72455 0.0
H2346 H 0.28179 0.35628 0.70245 0.0
H2347 H 0.26296 0.32438 0.71123 0.0
H2348 H 0.16402 0.56128 0.24013 0.0
H2349 H 0.18776 0.5934 0.24327 0.0
H2350 H 0.14905 0.62156 0.27609 0.0
H2351 H 0.12503 0.58983 0.27226 0.0
H2352 H 0.16087 0.64261 0.2484 0.0
H2353 H 0.22501 0.62497 0.28582 0.0
H2354 H 0.21665 0.60846 0.26416 0.0
H2355 H 0.20144 0.60822 0.28394 0.0
C2356 C 0.16074 0.57427 0.24826 0.0
C2357 C 0.14264 0.57312 0.25583 0.0
C2358 C 0.17438 0.59259 0.25017 0.0
C2359 C 0.1703 0.60989 0.2601 0.0
C2360 C 0.15253 0.60845 0.26834 0.0
H2361 H 0.24769 0.72728 0.28982 0.0
H2362 H 0.22896 0.69277 0.28987 0.0
C2363 C 0.1388 0.59031 0.26613 0.0
C2364 C 0.18358 0.6299 0.2604 0.0
H2365 H 0.23014 0.65606 0.27175 0.0
C2366 C 0.17598 0.64554 0.25364 0.0
C2367 C 0.20327 0.63381 0.26739 0.0
C2368 C 0.21204 0.61803 0.27592 0.0
C2369 C 0.18746 0.66492 0.25358 0.0
C2370 C 0.20735 0.66863 0.25977 0.0
C2371 C 0.21496 0.65309 0.26675 0.0
C2372 C 0.22025 0.6887 0.25938 0.0
C2373 C 0.17799 0.68131 0.24732 0.0
C2374 C 0.22211 0.69758 0.24212 0.0
C2375 C 0.2325 0.71735 0.2421 0.0
C2376 C 0.24161 0.72846 0.25929 0.0
C2377 C 0.24075 0.71912 0.27636 0.0
C2378 C 0.23009 0.69941 0.27642 0.0
H2379 H 0.16212 0.67757 0.24861 0.0
H2380 H 0.18418 0.69596 0.256 0.0
H2381 H 0.18038 0.68307 0.23198 0.0
H2382 H 0.21511 0.68937 0.22871 0.0
H2383 H 0.23319 0.72401 0.22865 0.0
H2384 H 0.52364 0.71456 0.39446 0.0
H2385 H 0.53759 0.69047 0.41134 0.0
H2386 H 0.48633 0.67666 0.44228 0.0
H2387 H 0.47242 0.70067 0.42579 0.0
H2388 H 0.52187 0.68455 0.46568 0.0
H2389 H 0.52005 0.62825 0.40212 0.0
H2390 H 0.53194 0.65395 0.40032 0.0
H2391 H 0.50624 0.64757 0.40186 0.0
C2392 C 0.51533 0.70633 0.40481 0.0
C2393 C 0.49689 0.7095 0.40874 0.0
C2394 C 0.5233 0.69256 0.41439 0.0
C2395 C 0.51291 0.68174 0.42795 0.0
C2396 C 0.49457 0.68491 0.43188 0.0
H2397 H 0.49978 0.58805 0.49653 0.0
H2398 H 0.50132 0.61878 0.4811 0.0
C2399 C 0.48663 0.69861 0.42238 0.0
C2400 C 0.52081 0.667 0.43825 0.0
H2401 H 0.52861 0.6193 0.4324 0.0
C2402 C 0.52368 0.67042 0.45839 0.0
C2403 C 0.52331 0.64867 0.42866 0.0
C2404 C 0.52016 0.6442 0.40706 0.0
C2405 C 0.52797 0.65554 0.46929 0.0
C2406 C 0.52918 0.63673 0.45978 0.0
C2407 C 0.52762 0.63378 0.43959 0.0
C2408 C 0.52945 0.61916 0.47046 0.0
C2409 C 0.5305 0.65979 0.49092 0.0
C2410 C 0.54474 0.60914 0.46949 0.0
C2411 C 0.54393 0.59151 0.47836 0.0
C2412 C 0.52764 0.58349 0.48801 0.0
C2413 C 0.51251 0.59379 0.48917 0.0
C2414 C 0.51342 0.61144 0.48048 0.0
H2415 H 0.53506 0.67621 0.49554 0.0
H2416 H 0.51649 0.65412 0.49698 0.0
H2417 H 0.54137 0.65211 0.49705 0.0
H2418 H 0.55714 0.61481 0.46164 0.0
H2419 H 0.55576 0.58384 0.47712 0.0
H2420 H 0.57338 0.3133 0.71675 0.0
H2421 H 0.5958 0.31782 0.74558 0.0
H2422 H 0.64389 0.33585 0.7112 0.0
H2423 H 0.62182 0.33199 0.68279 0.0
H2424 H 0.62144 0.29617 0.75082 0.0
H2425 H 0.66168 0.37474 0.75778 0.0
H2426 H 0.63903 0.36642 0.74323 0.0
H2427 H 0.66162 0.36453 0.73327 0.0
C2428 C 0.5887 0.31876 0.71548 0.0
C2429 C 0.59581 0.32215 0.69744 0.0
C2430 C 0.60149 0.32135 0.73197 0.0
C2431 C 0.62154 0.32753 0.73067 0.0
C2432 C 0.62849 0.33171 0.71279 0.0
H2433 H 0.71393 0.28237 0.75776 0.0
H2434 H 0.68264 0.29021 0.75065 0.0
C2435 C 0.6158 0.32921 0.69642 0.0
C2436 C 0.63555 0.3266 0.74691 0.0
H2437 H 0.68104 0.34978 0.76578 0.0
C2438 C 0.63417 0.30816 0.75462 0.0
C2439 C 0.65199 0.34234 0.75241 0.0
C2440 C 0.6535 0.36317 0.74636 0.0
C2441 C 0.64976 0.30428 0.76568 0.0
C2442 C 0.66726 0.31902 0.76869 0.0
C2443 C 0.66779 0.33827 0.76305 0.0
C2444 C 0.68576 0.31367 0.77442 0.0
C2445 C 0.64771 0.28397 0.77307 0.0
C2446 C 0.69823 0.32463 0.78988 0.0
C2447 C 0.7164 0.32028 0.79387 0.0
C2448 C 0.72233 0.30511 0.78228 0.0
C2449 C 0.70974 0.29412 0.76697 0.0
C2450 C 0.69173 0.29844 0.76301 0.0
H2451 H 0.63257 0.27804 0.77646 0.0
H2452 H 0.65128 0.27313 0.76175 0.0
H2453 H 0.65751 0.2847 0.78616 0.0
H2454 H 0.69399 0.33665 0.79868 0.0
H2455 H 0.72591 0.32901 0.80572 0.0
H2456 H 0.01018 0.31876 0.88008 0.0
H2457 H 0.01444 0.3533 0.89564 0.0
H2458 H 0.96167 0.33593 0.9235 0.0
H2459 H 0.95728 0.30154 0.90819 0.0
H2460 H 0.98715 0.38022 0.89391 0.0
H2461 H 0.00389 0.362 0.96779 0.0
H2462 H 0.00564 0.34556 0.94649 0.0
H2463 H 0.98242 0.34628 0.95518 0.0
C2464 C 0.99951 0.32228 0.88956 0.0
C2465 C 0.98345 0.30734 0.89296 0.0
C2466 C 0.00194 0.34201 0.89837 0.0
C2467 C 0.98846 0.34704 0.91084 0.0
C2468 C 0.97235 0.33225 0.91411 0.0
H2469 H 0.97127 0.46402 0.95819 0.0
H2470 H 0.96763 0.43063 0.94032 0.0
C2471 C 0.96986 0.31261 0.90528 0.0
C2472 C 0.99113 0.36773 0.92055 0.0
H2473 H 0.99869 0.39474 0.9649 0.0
C2474 C 0.98975 0.38346 0.90942 0.0
C2475 C 0.99462 0.37185 0.94076 0.0
C2476 C 0.9969 0.3556 0.9533 0.0
C2477 C 0.99148 0.40325 0.91805 0.0
C2478 C 0.99451 0.40726 0.93831 0.0
C2479 C 0.99618 0.39155 0.94938 0.0
C2480 C 0.99673 0.42777 0.94836 0.0
C2481 C 0.99034 0.41974 0.90547 0.0
C2482 C 0.01418 0.43706 0.95893 0.0
C2483 C 0.01629 0.45601 0.96917 0.0
C2484 C 0.00091 0.46607 0.96916 0.0
C2485 C 0.98341 0.45675 0.95847 0.0
C2486 C 0.98134 0.43772 0.94817 0.0
H2487 H 0.99209 0.41503 0.89015 0.0
H2488 H 0.976 0.42369 0.90631 0.0
H2489 H 0.00161 0.4335 0.91047 0.0
H2490 H 0.0262 0.42958 0.95932 0.0
H2491 H 0.02999 0.46265 0.97723 0.0
H2492 H 0.98028 0.7735 0.17993 0.0
H2493 H 0.95031 0.77259 0.19593 0.0
H2494 H 0.96754 0.8366 0.21249 0.0
H2495 H 0.99761 0.83764 0.19677 0.0
H2496 H 0.95202 0.81499 0.24213 0.0
H2497 H 0.90461 0.79394 0.17431 0.0
H2498 H 0.92049 0.77726 0.1784 0.0
H2499 H 0.93047 0.80292 0.17459 0.0
C2500 C 0.97774 0.78738 0.18704 0.0
C2501 C 0.9913 0.80567 0.18694 0.0
C2502 C 0.96056 0.78685 0.19609 0.0
C2503 C 0.95655 0.80459 0.20512 0.0
C2504 C 0.97029 0.82275 0.20552 0.0
H2505 H 0.84281 0.82049 0.23418 0.0
H2506 H 0.87508 0.82428 0.22226 0.0
C2507 C 0.98747 0.8233 0.19649 0.0
C2508 C 0.93793 0.80433 0.21391 0.0
H2509 H 0.88902 0.79389 0.20339 0.0
C2510 C 0.93823 0.81041 0.23368 0.0
C2511 C 0.91998 0.79866 0.20279 0.0
C2512 C 0.91878 0.793 0.18131 0.0
C2513 C 0.92104 0.81063 0.24269 0.0
C2514 C 0.90306 0.80436 0.23167 0.0
C2515 C 0.9028 0.79859 0.21185 0.0
C2516 C 0.88429 0.80352 0.24032 0.0
C2517 C 0.92228 0.81788 0.26385 0.0
C2518 C 0.87881 0.79077 0.25459 0.0
C2519 C 0.86041 0.78866 0.26147 0.0
C2520 C 0.84713 0.79915 0.25409 0.0
C2521 C 0.85279 0.81229 0.24018 0.0
C2522 C 0.87119 0.81441 0.23332 0.0
H2523 H 0.93683 0.82723 0.2689 0.0
H2524 H 0.91126 0.82683 0.26705 0.0
H2525 H 0.91958 0.80467 0.27218 0.0
H2526 H 0.88851 0.78191 0.25994 0.0
H2527 H 0.85637 0.7783 0.27209 0.0
H2528 H 0.45437 0.28425 0.07507 0.0
H2529 H 0.45893 0.3126 0.05568 0.0
H2530 H 0.5128 0.33956 0.08877 0.0
H2531 H 0.50853 0.31114 0.10804 0.0
H2532 H 0.46206 0.35268 0.06734 0.0
H2533 H 0.52848 0.34152 0.0339 0.0
H2534 H 0.51373 0.32238 0.04607 0.0
H2535 H 0.53085 0.34287 0.05966 0.0
C2536 C 0.46726 0.29615 0.07817 0.0
C2537 C 0.48113 0.29537 0.09308 0.0
C2538 C 0.46983 0.31234 0.06705 0.0
C2539 C 0.48636 0.32803 0.07054 0.0
C2540 C 0.50016 0.32739 0.0855 0.0
H2541 H 0.52915 0.44578 0.04007 0.0
H2542 H 0.52292 0.41269 0.05164 0.0
C2543 C 0.49762 0.31119 0.0966 0.0
C2544 C 0.4888 0.3455 0.0591 0.0
H2545 H 0.52032 0.37353 0.03177 0.0
C2546 C 0.47466 0.35709 0.05933 0.0
C2547 C 0.5052 0.35118 0.04857 0.0
C2548 C 0.52034 0.33872 0.04684 0.0
C2549 C 0.47692 0.37473 0.05008 0.0
C2550 C 0.49365 0.38076 0.04014 0.0
C2551 C 0.50751 0.36886 0.03941 0.0
C2552 C 0.49783 0.40027 0.03185 0.0
C2553 C 0.46184 0.38725 0.05175 0.0
C2554 C 0.48603 0.40414 0.01651 0.0
C2555 C 0.48956 0.42316 0.00977 0.0
C2556 C 0.50493 0.4386 0.01832 0.0
C2557 C 0.51707 0.43435 0.03323 0.0
C2558 C 0.51359 0.41539 0.03986 0.0
H2559 H 0.45152 0.38233 0.06263 0.0
H2560 H 0.46879 0.4034 0.05569 0.0
H2561 H 0.45349 0.38589 0.03763 0.0
H2562 H 0.47394 0.39255 0.00995 0.0
H2563 H 0.47995 0.42591 0.99827 0.0
H2564 H 0.94674 0.26887 0.41277 0.0
H2565 H 0.92175 0.27522 0.39045 0.0
H2566 H 0.96411 0.2917 0.34959 0.0
H2567 H 0.98938 0.28508 0.37186 0.0
H2568 H 0.92143 0.31229 0.37672 0.0
H2569 H 0.91971 0.25201 0.31688 0.0
H2570 H 0.93096 0.25154 0.34055 0.0
H2571 H 0.94298 0.26808 0.32439 0.0
C2572 C 0.95079 0.27362 0.39897 0.0
C2573 C 0.97009 0.2765 0.39412 0.0
C2574 C 0.93646 0.27729 0.38624 0.0
C2575 C 0.94106 0.28387 0.36837 0.0
C2576 C 0.96022 0.28636 0.36322 0.0
H2577 H 0.85982 0.30856 0.27957 0.0
H2578 H 0.89003 0.30848 0.29831 0.0
C2579 C 0.97463 0.28261 0.37598 0.0
C2580 C 0.92577 0.28887 0.35567 0.0
H2581 H 0.89848 0.27381 0.31305 0.0
C2582 C 0.91649 0.30398 0.36274 0.0
C2583 C 0.91947 0.27809 0.33739 0.0
C2584 C 0.92865 0.26141 0.32933 0.0
C2585 C 0.90075 0.30827 0.35221 0.0
C2586 C 0.89399 0.29698 0.33427 0.0
C2587 C 0.90373 0.28242 0.32684 0.0
C2588 C 0.87603 0.29901 0.32362 0.0
C2589 C 0.89139 0.32473 0.36044 0.0
C2590 C 0.85822 0.29391 0.33173 0.0
C2591 C 0.841 0.29392 0.32108 0.0
C2592 C 0.84132 0.29899 0.30212 0.0
C2593 C 0.85919 0.3047 0.29421 0.0
C2594 C 0.87642 0.30459 0.30485 0.0
H2595 H 0.90141 0.33559 0.3712 0.0
H2596 H 0.88658 0.33308 0.34891 0.0
H2597 H 0.87851 0.31792 0.36776 0.0
H2598 H 0.85758 0.28922 0.34608 0.0
H2599 H 0.8274 0.28933 0.32747 0.0
H2600 H 0.97266 0.67443 0.6205 0.0
H2601 H 0.97164 0.65126 0.59165 0.0
H2602 H 0.96719 0.69867 0.55626 0.0
H2603 H 0.96897 0.72231 0.58524 0.0
H2604 H 0.94708 0.63727 0.5603 0.0
H2605 H 0.01588 0.6833 0.53933 0.0
H2606 H 0.00653 0.68832 0.56226 0.0
H2607 H 0.9961 0.69581 0.54089 0.0
C2608 C 0.97124 0.67994 0.6066 0.0
C2609 C 0.97123 0.70031 0.60516 0.0
C2610 C 0.9706 0.66663 0.5901 0.0
C2611 C 0.96976 0.67334 0.57181 0.0
C2612 C 0.96836 0.69332 0.57025 0.0
H2613 H 0.97077 0.57517 0.47985 0.0
H2614 H 0.96053 0.60454 0.49552 0.0
C2615 C 0.96927 0.70677 0.58681 0.0
C2616 C 0.97191 0.65963 0.55475 0.0
H2617 H 0.00357 0.65227 0.52121 0.0
C2618 C 0.95925 0.64062 0.55151 0.0
C2619 C 0.98787 0.66407 0.54339 0.0
C2620 C 0.00249 0.6839 0.54666 0.0
C2621 C 0.96276 0.6255 0.53805 0.0
C2622 C 0.9791 0.62975 0.52717 0.0
C2623 C 0.99103 0.64915 0.52953 0.0
C2624 C 0.98585 0.6136 0.5157 0.0
C2625 C 0.94963 0.6048 0.53648 0.0
C2626 C 0.00386 0.60965 0.52119 0.0
C2627 C 0.00981 0.59323 0.51212 0.0
C2628 C 0.99776 0.58032 0.49753 0.0
C2629 C 0.98023 0.58487 0.49119 0.0
C2630 C 0.97431 0.60149 0.50022 0.0
H2631 H 0.9402 0.603 0.54865 0.0
H2632 H 0.94019 0.60233 0.52292 0.0
H2633 H 0.95813 0.5929 0.5361 0.0
H2634 H 0.01303 0.61881 0.53306 0.0
H2635 H 0.02349 0.59013 0.51712 0.0
H2636 H 0.55233 0.79527 0.85513 0.0
H2637 H 0.57913 0.79261 0.83521 0.0
H2638 H 0.60481 0.76394 0.87895 0.0
H2639 H 0.57815 0.76666 0.89907 0.0
H2640 H 0.63103 0.79483 0.86437 0.0
H2641 H 0.58813 0.74067 0.80561 0.0
H2642 H 0.57888 0.76285 0.81139 0.0
H2643 H 0.57916 0.7453 0.82889 0.0
C2644 C 0.56368 0.78842 0.86055 0.0
C2645 C 0.56305 0.78112 0.87869 0.0
C2646 C 0.57891 0.78678 0.84907 0.0
C2647 C 0.59378 0.77777 0.85547 0.0
C2648 C 0.5934 0.77081 0.87369 0.0
H2649 H 0.68425 0.74061 0.79091 0.0
H2650 H 0.65587 0.7414 0.80916 0.0
C2651 C 0.57815 0.7724 0.88517 0.0
C2652 C 0.60998 0.77602 0.84335 0.0
H2653 H 0.62068 0.75508 0.8001 0.0
C2654 C 0.62878 0.7861 0.85034 0.0
C2655 C 0.60702 0.76441 0.82516 0.0
C2656 C 0.58724 0.75252 0.81733 0.0
C2657 C 0.64468 0.78523 0.83946 0.0
C2658 C 0.64164 0.77416 0.82101 0.0
C2659 C 0.62291 0.76371 0.81417 0.0
C2660 C 0.65784 0.77336 0.80867 0.0
C2661 C 0.66464 0.79601 0.84787 0.0
C2662 C 0.66795 0.79094 0.80187 0.0
C2663 C 0.6841 0.79056 0.79142 0.0
C2664 C 0.69048 0.77254 0.78753 0.0
C2665 C 0.6798 0.75475 0.79368 0.0
C2666 C 0.66358 0.75516 0.80412 0.0
H2667 H 0.66507 0.79976 0.8637 0.0
H2668 H 0.67539 0.7867 0.84469 0.0
H2669 H 0.66904 0.81029 0.84132 0.0
H2670 H 0.66352 0.80506 0.80494 0.0
H2671 H 0.69184 0.80453 0.78681 0.0
H2672 H 0.47103 0.56289 0.71053 0.0
H2673 H 0.48804 0.57086 0.68192 0.0
H2674 H 0.43359 0.56838 0.65012 0.0
H2675 H 0.41657 0.56116 0.67907 0.0
H2676 H 0.48147 0.54264 0.65225 0.0
H2677 H 0.46866 0.61341 0.62694 0.0
H2678 H 0.46465 0.60718 0.65112 0.0
H2679 H 0.44681 0.59639 0.63159 0.0
C2680 C 0.46278 0.56484 0.69763 0.0
C2681 C 0.44252 0.56134 0.69693 0.0
C2682 C 0.4725 0.56937 0.68128 0.0
C2683 C 0.46213 0.57017 0.66383 0.0
C2684 C 0.44197 0.56821 0.66348 0.0
H2685 H 0.49004 0.52528 0.55324 0.0
H2686 H 0.4749 0.53409 0.58237 0.0
C2687 C 0.43223 0.56403 0.68002 0.0
C2688 C 0.47193 0.56932 0.64566 0.0
H2689 H 0.47983 0.59086 0.60385 0.0
C2690 C 0.4813 0.55339 0.64183 0.0
C2691 C 0.47172 0.58329 0.63201 0.0
C2692 C 0.46258 0.60115 0.63567 0.0
C2693 C 0.49009 0.55077 0.62464 0.0
C2694 C 0.4892 0.56421 0.61067 0.0
C2695 C 0.48031 0.58049 0.61458 0.0
C2696 C 0.49697 0.56088 0.59175 0.0
C2697 C 0.50016 0.53349 0.62149 0.0
C2698 C 0.51409 0.57342 0.58711 0.0
C2699 C 0.52278 0.56846 0.57035 0.0
C2700 C 0.5144 0.55092 0.55807 0.0
C2701 C 0.49682 0.53891 0.56239 0.0
C2702 C 0.48815 0.5439 0.57904 0.0
H2703 H 0.50341 0.52745 0.63519 0.0
H2704 H 0.49066 0.52111 0.61177 0.0
H2705 H 0.51389 0.53825 0.6146 0.0
H2706 H 0.52111 0.58656 0.59682 0.0
H2707 H 0.5363 0.57799 0.56731 0.0
H2708 H 0.81086 0.17618 0.96125 0.0
H2709 H 0.82379 0.19028 0.93243 0.0
H2710 H 0.76785 0.20124 0.91569 0.0
H2711 H 0.75485 0.18706 0.94401 0.0
H2712 H 0.78673 0.18647 0.88497 0.0
H2713 H 0.83372 0.25201 0.93048 0.0
H2714 H 0.8365 0.2271 0.93437 0.0
H2715 H 0.81468 0.2348 0.94025 0.0
C2716 C 0.80126 0.18124 0.9512 0.0
C2717 C 0.78191 0.18078 0.95501 0.0
C2718 C 0.8087 0.1894 0.93485 0.0
C2719 C 0.79683 0.19709 0.92216 0.0
C2720 C 0.77725 0.19544 0.92536 0.0
H2721 H 0.792 0.28922 0.85624 0.0
H2722 H 0.79784 0.2679 0.88113 0.0
C2723 C 0.76987 0.1874 0.94161 0.0
C2724 C 0.80459 0.20829 0.90625 0.0
H2725 H 0.82889 0.25495 0.89765 0.0
C2726 C 0.79636 0.20124 0.88756 0.0
C2727 C 0.81704 0.22758 0.90986 0.0
C2728 C 0.82599 0.23598 0.92981 0.0
C2729 C 0.79898 0.21358 0.87262 0.0
C2730 C 0.81062 0.23331 0.87645 0.0
C2731 C 0.82002 0.23981 0.89482 0.0
C2732 C 0.81082 0.24823 0.86244 0.0
C2733 C 0.78796 0.20593 0.85333 0.0
C2734 C 0.81695 0.24474 0.84397 0.0
C2735 C 0.81327 0.25667 0.82972 0.0
C2736 C 0.80395 0.27257 0.83384 0.0
C2737 C 0.79926 0.27707 0.85272 0.0
C2738 C 0.80265 0.26494 0.86693 0.0
H2739 H 0.77693 0.19182 0.85393 0.0
H2740 H 0.78056 0.2174 0.84811 0.0
H2741 H 0.79821 0.20275 0.84265 0.0
H2742 H 0.82353 0.2321 0.84029 0.0
H2743 H 0.81654 0.25263 0.81519 0.0
H2744 H 0.09689 0.47762 0.18425 0.0
H2745 H 0.08514 0.46652 0.1504 0.0
H2746 H 0.05124 0.51192 0.15166 0.0
H2747 H 0.06262 0.523 0.18516 0.0
H2748 H 0.03913 0.45712 0.13434 0.0
H2749 H 0.09165 0.51739 0.1053 0.0
H2750 H 0.09677 0.50729 0.12748 0.0
H2751 H 0.08125 0.52486 0.12697 0.0
C2752 C 0.0869 0.48519 0.1773 0.0
C2753 C 0.08072 0.50123 0.1874 0.0
C2754 C 0.0802 0.4788 0.15804 0.0
C2755 C 0.0674 0.48848 0.14868 0.0
C2756 C 0.06114 0.50432 0.15873 0.0
H2757 H 0.98616 0.49022 0.06097 0.0
H2758 H 0.00353 0.48095 0.08867 0.0
C2759 C 0.06769 0.51062 0.17788 0.0
C2760 C 0.06057 0.4827 0.12825 0.0
H2761 H 0.06288 0.5025 0.08545 0.0
C2762 C 0.04457 0.46665 0.12343 0.0
C2763 C 0.06791 0.49501 0.11411 0.0
C2764 C 0.08545 0.51205 0.11859 0.0
C2765 C 0.03476 0.46356 0.10504 0.0
C2766 C 0.04097 0.47715 0.09144 0.0
C2767 C 0.05798 0.49214 0.09587 0.0
C2768 C 0.02893 0.47806 0.0737 0.0
C2769 C 0.01751 0.44621 0.10062 0.0
C2770 C 0.03725 0.47924 0.05598 0.0
C2771 C 0.0274 0.48483 0.0403 0.0
C2772 C 0.00918 0.48932 0.04212 0.0
C2773 C 0.00019 0.48666 0.05929 0.0
C2774 C 0.01008 0.48124 0.07506 0.0
H2775 H 0.01924 0.43336 0.10864 0.0
H2776 H 0.00436 0.45108 0.10528 0.0
H2777 H 0.01526 0.44096 0.08499 0.0
H2778 H 0.05175 0.47685 0.05458 0.0
H2779 H 0.03428 0.4863 0.02694 0.0
H2780 H 0.75627 0.8273 0.47966 0.0
H2781 H 0.75721 0.81885 0.44514 0.0
H2782 H 0.74682 0.877 0.43483 0.0
H2783 H 0.74533 0.8854 0.46955 0.0
H2784 H 0.7277 0.8469 0.40722 0.0
H2785 H 0.80447 0.84272 0.41807 0.0
H2786 H 0.78929 0.82609 0.43205 0.0
H2787 H 0.79173 0.8529 0.43686 0.0
C2788 C 0.75387 0.83818 0.47004 0.0
C2789 C 0.75093 0.8571 0.47731 0.0
C2790 C 0.75458 0.8334 0.45032 0.0
C2791 C 0.75274 0.84756 0.43749 0.0
C2792 C 0.74852 0.86596 0.44453 0.0
H2793 H 0.79188 0.82802 0.32165 0.0
H2794 H 0.78853 0.84322 0.35413 0.0
C2795 C 0.74757 0.8707 0.46434 0.0
C2796 C 0.75594 0.84323 0.4169 0.0
H2797 H 0.78821 0.82816 0.38749 0.0
C2798 C 0.74099 0.84301 0.40286 0.0
C2799 C 0.77351 0.83872 0.41114 0.0
C2800 C 0.79074 0.84033 0.42531 0.0
C2801 C 0.74278 0.83736 0.38332 0.0
C2802 C 0.75976 0.83127 0.3778 0.0
C2803 C 0.77507 0.83252 0.39173 0.0
C2804 C 0.7616 0.82258 0.35789 0.0
C2805 C 0.72643 0.83801 0.36884 0.0
C2806 C 0.74783 0.8057 0.34939 0.0
C2807 C 0.74964 0.79712 0.33088 0.0
C2808 C 0.76546 0.80499 0.32056 0.0
C2809 C 0.77954 0.8216 0.32924 0.0
C2810 C 0.7776 0.83034 0.34775 0.0
H2811 H 0.71818 0.84933 0.37401 0.0
H2812 H 0.73182 0.84166 0.35473 0.0
H2813 H 0.71624 0.82308 0.36674 0.0
H2814 H 0.73574 0.79898 0.35715 0.0
H2815 H 0.73865 0.78417 0.32473 0.0
H2816 H 0.45196 0.53451 0.79519 0.0
H2817 H 0.45522 0.52947 0.82914 0.0
H2818 H 0.39709 0.53723 0.83563 0.0
H2819 H 0.39373 0.54246 0.8014 0.0
H2820 H 0.44892 0.55351 0.86475 0.0
H2821 H 0.39882 0.47815 0.8489 0.0
H2822 H 0.41035 0.49149 0.8301 0.0
H2823 H 0.391 0.49986 0.84148 0.0
C2824 C 0.44 0.53561 0.80393 0.0
C2825 C 0.42255 0.53876 0.79565 0.0
C2826 C 0.44189 0.53272 0.82331 0.0
C2827 C 0.42631 0.5327 0.83477 0.0
C2828 C 0.40921 0.53704 0.82691 0.0
H2829 H 0.44686 0.51412 0.95593 0.0
H2830 H 0.43177 0.52427 0.92728 0.0
C2831 C 0.40738 0.54019 0.80745 0.0
C2832 C 0.42784 0.52652 0.85439 0.0
H2833 H 0.41573 0.48565 0.8794 0.0
C2834 C 0.44137 0.53888 0.86817 0.0
C2835 C 0.41815 0.50726 0.85859 0.0
C2836 C 0.4038 0.49328 0.84404 0.0
C2837 C 0.44599 0.53222 0.88583 0.0
C2838 C 0.43671 0.51272 0.88982 0.0
C2839 C 0.42271 0.50061 0.8763 0.0
C2840 C 0.44272 0.50415 0.90721 0.0
C2841 C 0.46151 0.54565 0.89968 0.0
C2842 C 0.45299 0.48871 0.90542 0.0
C2843 C 0.46156 0.48281 0.92176 0.0
C2844 C 0.45993 0.49226 0.94011 0.0
C2845 C 0.44842 0.50664 0.94194 0.0
C2846 C 0.43987 0.51253 0.92561 0.0
H2847 H 0.46939 0.55888 0.89311 0.0
H2848 H 0.45479 0.55125 0.91244 0.0
H2849 H 0.47213 0.53709 0.90475 0.0
H2850 H 0.45529 0.48202 0.89131 0.0
H2851 H 0.47037 0.47173 0.91994 0.0
H2852 H 0.79604 0.18787 0.07129 0.0
H2853 H 0.80171 0.20951 0.10193 0.0
H2854 H 0.78713 0.25813 0.0734 0.0
H2855 H 0.78083 0.23643 0.0429 0.0
H2856 H 0.82384 0.24736 0.11684 0.0
H2857 H 0.74513 0.24655 0.11075 0.0
H2858 H 0.75583 0.2305 0.09476 0.0
H2859 H 0.75836 0.25667 0.09147 0.0
C2860 C 0.79446 0.20331 0.07149 0.0
C2861 C 0.78762 0.21037 0.05485 0.0
C2862 C 0.79771 0.21565 0.08898 0.0
C2863 C 0.79434 0.23522 0.08995 0.0
C2864 C 0.78932 0.2429 0.073 0.0
H2865 H 0.80839 0.30737 0.20366 0.0
H2866 H 0.81102 0.29905 0.1691 0.0
C2867 C 0.78578 0.2305 0.05561 0.0
C2868 C 0.79394 0.2466 0.10891 0.0
H2869 H 0.76305 0.26357 0.13878 0.0
C2870 C 0.81065 0.25116 0.12161 0.0
C2871 C 0.77659 0.25131 0.11507 0.0
C2872 C 0.7579 0.24588 0.1024 0.0
C2873 C 0.81031 0.25978 0.14058 0.0
C2874 C 0.79288 0.26419 0.14678 0.0
C2875 C 0.7764 0.26031 0.13386 0.0
C2876 C 0.79066 0.27031 0.16719 0.0
C2877 C 0.82827 0.2631 0.15411 0.0
C2878 C 0.77783 0.25726 0.17725 0.0
C2879 C 0.77619 0.26202 0.19678 0.0
C2880 C 0.78737 0.27994 0.20659 0.0
C2881 C 0.79969 0.29341 0.19639 0.0
C2882 C 0.80131 0.28863 0.17675 0.0
H2883 H 0.83952 0.25586 0.14791 0.0
H2884 H 0.83447 0.27949 0.15723 0.0
H2885 H 0.8247 0.25705 0.16796 0.0
H2886 H 0.76941 0.24309 0.17009 0.0
H2887 H 0.76652 0.2514 0.20428 0.0
H2888 H 0.09962 0.47951 0.29562 0.0
H2889 H 0.08711 0.46714 0.32526 0.0
H2890 H 0.03655 0.49149 0.31531 0.0
H2891 H 0.04868 0.50352 0.28582 0.0
H2892 H 0.08129 0.49213 0.35555 0.0
H2893 H 0.01247 0.43813 0.33309 0.0
H2894 H 0.03065 0.44544 0.31648 0.0
H2895 H 0.01342 0.46076 0.32184 0.0
C2896 C 0.08562 0.48178 0.29954 0.0
C2897 C 0.07521 0.49263 0.28845 0.0
C2898 C 0.07849 0.47468 0.31644 0.0
C2899 C 0.06075 0.4781 0.32233 0.0
C2900 C 0.05001 0.48818 0.31082 0.0
H2901 H 0.0018 0.50929 0.41372 0.0
H2902 H 0.0134 0.4974 0.38344 0.0
C2903 C 0.05711 0.49529 0.29404 0.0
C2904 C 0.05459 0.47402 0.3417 0.0
H2905 H 0.01415 0.45724 0.36489 0.0
C2906 C 0.06683 0.48395 0.3577 0.0
C2907 C 0.03575 0.46328 0.34447 0.0
C2908 C 0.02243 0.45113 0.32802 0.0
C2909 C 0.06011 0.48506 0.37616 0.0
C2910 C 0.04073 0.47576 0.37862 0.0
C2911 C 0.02897 0.46448 0.3629 0.0
C2912 C 0.03176 0.4801 0.39665 0.0
C2913 C 0.0733 0.49751 0.39258 0.0
C2914 C 0.03782 0.47377 0.414 0.0
C2915 C 0.03123 0.48059 0.43133 0.0
C2916 C 0.01851 0.4938 0.43147 0.0
C2917 C 0.01166 0.49919 0.41399 0.0
C2918 C 0.01822 0.49236 0.3967 0.0
H2919 H 0.08718 0.50565 0.38773 0.0
H2920 H 0.06606 0.50869 0.39992 0.0
H2921 H 0.07663 0.48753 0.40331 0.0
H2922 H 0.04813 0.46414 0.41418 0.0
H2923 H 0.03663 0.47614 0.44465 0.0
H2924 H 0.75496 0.82854 0.58044 0.0
H2925 H 0.7419 0.81454 0.60867 0.0
H2926 H 0.70448 0.85666 0.61267 0.0
H2927 H 0.71794 0.87129 0.58422 0.0
H2928 H 0.72296 0.85511 0.6472 0.0
H2929 H 0.69136 0.77748 0.61577 0.0
H2930 H 0.71572 0.78448 0.60919 0.0
H2931 H 0.69794 0.79782 0.60105 0.0
C2932 C 0.7438 0.83479 0.5871 0.0
C2933 C 0.73749 0.85107 0.57999 0.0
C2934 C 0.73618 0.82658 0.6032 0.0
C2935 C 0.72186 0.83418 0.61255 0.0
C2936 C 0.71536 0.85038 0.60552 0.0
H2937 H 0.69573 0.76292 0.70978 0.0
H2938 H 0.68821 0.78025 0.68206 0.0
C2939 C 0.72305 0.85871 0.58928 0.0
C2940 C 0.71519 0.82601 0.63052 0.0
H2941 H 0.70397 0.78129 0.64961 0.0
C2942 C 0.71829 0.83901 0.64771 0.0
C2943 C 0.70848 0.80508 0.63125 0.0
C2944 C 0.70297 0.79049 0.61326 0.0
C2945 C 0.71679 0.83143 0.66566 0.0
C2946 C 0.71268 0.81031 0.66639 0.0
C2947 C 0.7076 0.79746 0.64917 0.0
C2948 C 0.71603 0.80123 0.68441 0.0
C2949 C 0.72021 0.84614 0.68364 0.0
C2950 C 0.73414 0.80713 0.69487 0.0
C2951 C 0.73836 0.79737 0.71064 0.0
C2952 C 0.72469 0.78126 0.71616 0.0
C2953 C 0.70651 0.77532 0.70581 0.0
C2954 C 0.7022 0.78525 0.69004 0.0
H2955 H 0.71514 0.86002 0.68101 0.0
H2956 H 0.71271 0.8395 0.69579 0.0
H2957 H 0.73596 0.85069 0.68786 0.0
H2958 H 0.74535 0.81884 0.69045 0.0
H2959 H 0.75259 0.80212 0.7182 0.0
H2960 H 0.73127 0.45052 0.52847 0.0
H2961 H 0.70821 0.47242 0.52668 0.0
H2962 H 0.66954 0.42674 0.4879 0.0
H2963 H 0.69251 0.40469 0.48952 0.0
H2964 H 0.68885 0.48543 0.49136 0.0
H2965 H 0.63986 0.43927 0.53759 0.0
H2966 H 0.66512 0.43856 0.53689 0.0
H2967 H 0.6481 0.42595 0.5174 0.0
C2968 C 0.71795 0.44518 0.51941 0.0
C2969 C 0.71364 0.42579 0.50926 0.0
C2970 C 0.70485 0.45775 0.51836 0.0
C2971 C 0.68719 0.45108 0.50728 0.0
C2972 C 0.6831 0.43205 0.49661 0.0
H2973 H 0.59444 0.50964 0.47885 0.0
H2974 H 0.62259 0.49424 0.47788 0.0
C2975 C 0.69624 0.4195 0.49755 0.0
C2976 C 0.67256 0.46355 0.5078 0.0
H2977 H 0.62901 0.46607 0.52502 0.0
C2978 C 0.67576 0.48127 0.49871 0.0
C2979 C 0.65567 0.45812 0.51761 0.0
C2980 C 0.65192 0.43952 0.52807 0.0
C2981 C 0.66221 0.49358 0.49892 0.0
C2982 C 0.64513 0.48791 0.50842 0.0
C2983 C 0.64214 0.47035 0.51775 0.0
C2984 C 0.62988 0.49966 0.50864 0.0
C2985 C 0.66631 0.51261 0.48916 0.0
C2986 C 0.62477 0.50795 0.52622 0.0
C2987 C 0.6087 0.51671 0.5268 0.0
C2988 C 0.5974 0.51711 0.50981 0.0
C2989 C 0.60297 0.50954 0.49214 0.0
C2990 C 0.61908 0.50084 0.49156 0.0
H2991 H 0.68183 0.5172 0.48644 0.0
H2992 H 0.65764 0.51005 0.47511 0.0
H2993 H 0.66213 0.52515 0.49799 0.0
H2994 H 0.63289 0.50707 0.53956 0.0
H2995 H 0.60466 0.52238 0.54061 0.0
H2996 H 0.22375 0.08647 0.49112 0.0
H2997 H 0.19814 0.05569 0.48976 0.0
H2998 H 0.15565 0.08907 0.47375 0.0
H2999 H 0.18083 0.11951 0.47493 0.0
H3000 H 0.16651 0.05032 0.51211 0.0
H3001 H 0.14103 0.03888 0.43523 0.0
H3002 H 0.16433 0.05448 0.44408 0.0
H3003 H 0.14284 0.06454 0.44481 0.0
C3004 C 0.20898 0.08712 0.48699 0.0
C3005 C 0.20433 0.10545 0.48316 0.0
C3006 C 0.19439 0.06955 0.48625 0.0
C3007 C 0.17504 0.07002 0.48133 0.0
C3008 C 0.17052 0.08821 0.47712 0.0
H3009 H 0.06665 0.02823 0.51541 0.0
H3010 H 0.10119 0.04009 0.51301 0.0
C3011 C 0.18496 0.10569 0.47798 0.0
C3012 C 0.15905 0.05227 0.4822 0.0
H3013 H 0.11677 0.02719 0.45744 0.0
C3014 C 0.15587 0.04481 0.50002 0.0
C3015 C 0.14537 0.0447 0.46636 0.0
C3016 C 0.14869 0.05093 0.4465 0.0
C3017 C 0.13847 0.03151 0.50286 0.0
C3018 C 0.12381 0.02588 0.48758 0.0
C3019 C 0.12783 0.03174 0.46928 0.0
C3020 C 0.10351 0.01657 0.49081 0.0
C3021 C 0.1357 0.02428 0.52241 0.0
C3022 C 0.09315 -0.00059 0.47905 0.0
C3023 C 0.07321 0.99267 0.4803 0.0
C3024 C 0.06335 0.00314 0.49317 0.0
C3025 C 0.07387 0.01981 0.5054 0.0
C3026 C 0.0937 0.0265 0.50416 0.0
H3027 H 0.1497 0.02298 0.52952 0.0
H3028 H 0.12997 0.03541 0.53169 0.0
H3029 H 0.12539 0.00945 0.52146 0.0
H3030 H 0.10038 0.99163 0.46851 0.0
H3031 H 0.06542 0.9798 0.47068 0.0
H3032 H 0.18113 0.96782 0.759 0.0
H3033 H 0.19907 0.94178 0.75035 0.0
H3034 H 0.21109 0.93653 0.81043 0.0
H3035 H 0.19317 0.96249 0.81927 0.0
H3036 H 0.23888 0.93973 0.7617 0.0
H3037 H 0.18352 0.87865 0.78621 0.0
H3038 H 0.17861 0.90276 0.78181 0.0
H3039 H 0.19227 0.90034 0.80349 0.0
C3040 C 0.18765 0.9612 0.7704 0.0
C3041 C 0.18557 0.96716 0.78984 0.0
C3042 C 0.19795 0.94636 0.76542 0.0
C3043 C 0.20622 0.93709 0.77974 0.0
C3044 C 0.20461 0.94334 0.79915 0.0
H3045 H 0.28451 0.85457 0.77029 0.0
H3046 H 0.27076 0.88429 0.7767 0.0
C3047 C 0.1944 0.95823 0.80416 0.0
C3048 C 0.216 0.92042 0.77438 0.0
H3049 H 0.2122 0.86999 0.77613 0.0
C3050 C 0.23309 0.92447 0.76484 0.0
C3051 C 0.20827 0.90051 0.77832 0.0
C3052 C 0.18958 0.89516 0.78788 0.0
C3053 C 0.24278 0.90912 0.75936 0.0
C3054 C 0.23521 0.88928 0.7636 0.0
C3055 C 0.21803 0.88524 0.77297 0.0
C3056 C 0.24459 0.8723 0.75822 0.0
C3057 C 0.26085 0.91414 0.74877 0.0
C3058 C 0.23453 0.85575 0.74561 0.0
C3059 C 0.24232 0.83876 0.74192 0.0
C3060 C 0.26031 0.83785 0.7509 0.0
C3061 C 0.27068 0.85476 0.76304 0.0
C3062 C 0.26286 0.8718 0.7667 0.0
H3063 H 0.26242 0.92893 0.74297 0.0
H3064 H 0.27367 0.91481 0.75882 0.0
H3065 H 0.26078 0.90233 0.73671 0.0
H3066 H 0.2204 0.8558 0.73894 0.0
H3067 H 0.2339 0.82609 0.73246 0.0
H3068 H 0.32208 0.91782 0.03169 0.0
H3069 H 0.34801 0.94697 0.02951 0.0
H3070 H 0.30802 0.976 0.00063 0.0
H3071 H 0.28183 0.94657 0.00251 0.0
H3072 H 0.33923 0.97459 0.98059 0.0
H3073 H 0.36429 0.00366 0.05575 0.0
H3074 H 0.36211 0.97693 0.05257 0.0
H3075 H 0.34087 0.98714 0.04923 0.0
C3076 C 0.31865 0.93055 0.02524 0.0
C3077 C 0.29992 0.9298 0.01714 0.0
C3078 C 0.33348 0.94732 0.02417 0.0
C3079 C 0.3299 0.96378 0.01514 0.0
C3080 C 0.31103 0.96351 0.0078 0.0
H3081 H 0.4418 0.04653 0.01289 0.0
H3082 H 0.40683 0.03739 0.01516 0.0
C3083 C 0.29611 0.94669 0.0089 0.0
C3084 C 0.34645 0.97972 0.01125 0.0
H3085 H 0.3893 0.00737 0.03268 0.0
C3086 C 0.34997 0.98225 0.992 0.0
C3087 C 0.36024 0.99013 0.0261 0.0
C3088 C 0.35655 0.98949 0.04706 0.0
C3089 C 0.36776 0.99326 0.98717 0.0
C3090 C 0.38247 0.00149 0.00196 0.0
C3091 C 0.37819 0.00071 0.02126 0.0
C3092 C 0.40292 0.00863 0.99789 0.0
C3093 C 0.37083 0.99533 0.96624 0.0
C3094 C 0.4123 0.99563 0.98718 0.0
C3095 C 0.43224 0.00084 0.98576 0.0
C3096 C 0.44323 0.01899 0.99535 0.0
C3097 C 0.43373 0.03233 0.00549 0.0
C3098 C 0.41375 0.02718 0.00675 0.0
H3099 H 0.35707 0.99578 0.9581 0.0
H3100 H 0.38179 0.00914 0.96443 0.0
H3101 H 0.37582 0.98202 0.95983 0.0
H3102 H 0.40437 0.98097 0.98069 0.0
H3103 H 0.43914 0.99021 0.97792 0.0
H3104 H 0.87108 0.61126 0.75462 0.0
H3105 H 0.84395 0.62803 0.75229 0.0
H3106 H 0.82671 0.60977 0.80714 0.0
H3107 H 0.85377 0.59281 0.80962 0.0
H3108 H 0.80103 0.60895 0.75624 0.0
H3109 H 0.83503 0.67398 0.81014 0.0
H3110 H 0.8492 0.6588 0.7973 0.0
H3111 H 0.83513 0.64895 0.81613 0.0
C3112 C 0.86154 0.61078 0.76621 0.0
C3113 C 0.86464 0.60077 0.78236 0.0
C3114 C 0.84601 0.6203 0.7648 0.0
C3115 C 0.83343 0.62014 0.77956 0.0
C3116 C 0.83636 0.61008 0.79564 0.0
H3117 H 0.74914 0.69495 0.79532 0.0
H3118 H 0.76728 0.66878 0.79966 0.0
C3119 C 0.85181 0.60042 0.79702 0.0
C3120 C 0.81754 0.63098 0.77827 0.0
H3121 H 0.80466 0.67425 0.79535 0.0
C3122 C 0.80168 0.62316 0.76486 0.0
C3123 C 0.81846 0.64939 0.78966 0.0
C3124 C 0.83537 0.65845 0.8041 0.0
C3125 C 0.7867 0.63345 0.7624 0.0
C3126 C 0.78795 0.65228 0.77329 0.0
C3127 C 0.80364 0.6598 0.78704 0.0
C3128 C 0.77399 0.66522 0.7699 0.0
C3129 C 0.76967 0.62395 0.74825 0.0
C3130 C 0.77122 0.67151 0.75161 0.0
C3131 C 0.76062 0.68624 0.74907 0.0
C3132 C 0.75291 0.69519 0.76483 0.0
C3133 C 0.75486 0.68822 0.78291 0.0
C3134 C 0.76529 0.67333 0.78541 0.0
H3135 H 0.76747 0.60727 0.74646 0.0
H3136 H 0.75614 0.62801 0.75286 0.0
H3137 H 0.7725 0.6293 0.73398 0.0
H3138 H 0.77817 0.66589 0.73952 0.0
H3139 H 0.75952 0.69152 0.73502 0.0
H3140 H 0.81095 0.61853 0.01103 0.0
H3141 H 0.83683 0.59995 0.01281 0.0
H3142 H 0.83246 0.58852 0.95093 0.0
H3143 H 0.80665 0.60711 0.94896 0.0
H3144 H 0.83598 0.55875 0.99756 0.0
H3145 H 0.89047 0.61477 0.96552 0.0
H3146 H 0.86898 0.62077 0.97502 0.0
H3147 H 0.86745 0.60641 0.95192 0.0
C3148 C 0.81548 0.61208 0.99778 0.0
C3149 C 0.80678 0.61441 0.97984 0.0
C3150 C 0.83025 0.60143 -0.00116 0.0
C3151 C 0.83671 0.59308 0.982 0.0
C3152 C 0.82788 0.59511 0.96409 0.0
H3153 H 0.93243 0.53336 0.96282 0.0
H3154 H 0.90351 0.54727 0.95854 0.0
C3155 C 0.81307 0.60568 0.96301 0.0
C3156 C 0.85271 0.58225 0.98317 0.0
H3157 H 0.89936 0.58459 0.97209 0.0
C3158 C 0.84985 0.56437 0.99201 0.0
C3159 C 0.87073 0.58958 0.9758 0.0
C3160 C 0.87475 0.60901 0.96665 0.0
C3161 C 0.86452 0.55353 0.99357 0.0
C3162 C 0.88268 0.56104 0.9865 0.0
C3163 C 0.88543 0.57881 0.97747 0.0
C3164 C 0.8993 0.55118 0.98895 0.0
C3165 C 0.86031 0.53398 0.00251 0.0
C3166 C 0.90655 0.54875 0.00744 0.0
C3167 C 0.92295 0.5407 0.00988 0.0
C3168 C 0.93254 0.53512 0.9939 0.0
C3169 C 0.9252 0.53737 0.97537 0.0
C3170 C 0.90874 0.54537 0.97293 0.0
H3171 H 0.84453 0.52728 0.00156 0.0
H3172 H 0.86777 0.52284 0.99545 0.0
H3173 H 0.86549 0.53689 0.01797 0.0
H3174 H 0.89984 0.55359 0.02005 0.0
H3175 H 0.92841 0.53934 0.02434 0.0
H3176 H 0.1992 0.05775 0.79004 0.0
H3177 H 0.22321 0.08949 0.78999 0.0
H3178 H 0.18114 0.12272 0.80911 0.0
H3179 H 0.15748 0.09146 0.80963 0.0
H3180 H 0.22033 0.11907 0.76776 0.0
H3181 H 0.22778 0.15105 0.84381 0.0
H3182 H 0.21687 0.1249 0.83628 0.0
H3183 H 0.20278 0.14387 0.83519 0.0
C3184 C 0.19526 0.07182 0.79464 0.0
C3185 C 0.17641 0.07205 0.79979 0.0
C3186 C 0.20896 0.08993 0.79456 0.0
C3187 C 0.20407 0.10848 0.79983 0.0
C3188 C 0.18545 0.10863 0.80548 0.0
H3189 H 0.2384 0.22299 0.75791 0.0
H3190 H 0.22397 0.18863 0.76429 0.0
C3191 C 0.17184 0.09066 0.80558 0.0
C3192 C 0.21748 0.12786 0.79766 0.0
H3193 H 0.23487 0.1752 0.82046 0.0
C3194 C 0.22384 0.13124 0.77938 0.0
C3195 C 0.22233 0.14367 0.81286 0.0
C3196 C 0.21725 0.1406 0.83318 0.0
C3197 C 0.23392 0.15032 0.77562 0.0
C3198 C 0.23726 0.16656 0.79042 0.0
C3199 C 0.23195 0.16287 0.80899 0.0
C3200 C 0.24577 0.18754 0.78684 0.0
C3201 C 0.24074 0.15287 0.75579 0.0
C3202 C 0.26229 0.1987 0.79798 0.0
C3203 C 0.27032 0.21846 0.7946 0.0
C3204 C 0.26198 0.22739 0.78 0.0
C3205 C 0.24519 0.21641 0.76916 0.0
C3206 C 0.23707 0.19671 0.77266 0.0
H3207 H 0.24286 0.13843 0.74848 0.0
H3208 H 0.22963 0.1579 0.74687 0.0
H3209 H 0.25454 0.16428 0.75638 0.0
H3210 H 0.26913 0.19201 0.80912 0.0
H3211 H 0.28324 0.22662 0.80321 0.0
H3212 H 0.37411 0.02137 0.26978 0.0
H3213 H 0.35103 0.98953 0.2715 0.0
H3214 H 0.39043 0.95704 0.24502 0.0
H3215 H 0.41381 0.98868 0.24382 0.0
H3216 H 0.33217 0.95992 0.24484 0.0
H3217 H 0.3807 0.92959 0.293 0.0
H3218 H 0.38599 0.95549 0.28795 0.0
H3219 H 0.39147 0.93612 0.27125 0.0
C3220 C 0.37785 0.00744 0.26429 0.0
C3221 C 0.3959 0.00753 0.25687 0.0
C3222 C 0.36464 0.98926 0.26528 0.0
C3223 C 0.3692 0.97088 0.25881 0.0
C3224 C 0.38685 0.971 0.25064 0.0
H3225 H 0.29203 0.85414 0.23152 0.0
H3226 H 0.31085 0.88845 0.2313 0.0
C3227 C 0.40015 0.98912 0.24985 0.0
C3228 C 0.35558 0.95154 0.26067 0.0
H3229 H 0.35276 0.90615 0.27808 0.0
C3230 C 0.3366 0.9482 0.25224 0.0
C3231 C 0.36124 0.93644 0.2707 0.0
C3232 C 0.38089 0.93965 0.28142 0.0
C3233 C 0.3233 0.92991 0.25305 0.0
C3234 C 0.32934 0.91437 0.26207 0.0
C3235 C 0.34816 0.91796 0.27097 0.0
C3236 C 0.31663 0.89411 0.26226 0.0
C3237 C 0.30287 0.9276 0.24446 0.0
C3238 C 0.31387 0.88566 0.27969 0.0
C3239 C 0.30347 0.86588 0.27982 0.0
C3240 C 0.2955 0.85419 0.26251 0.0
C3241 C 0.29782 0.86282 0.24512 0.0
C3242 C 0.30847 0.88252 0.24498 0.0
H3243 H 0.29891 0.94245 0.24414 0.0
H3244 H 0.30168 0.92048 0.2294 0.0
H3245 H 0.29228 0.918 0.25265 0.0
H3246 H 0.32006 0.89428 0.29321 0.0
H3247 H 0.30186 0.85969 0.29347 0.0
H3248 H 0.51316 0.34249 0.63128 0.0
H3249 H 0.50025 0.36578 0.6123 0.0
H3250 H 0.55003 0.37209 0.57884 0.0
H3251 H 0.56289 0.34889 0.59742 0.0
H3252 H 0.51802 0.40575 0.60835 0.0
H3253 H 0.50499 0.36002 0.53748 0.0
H3254 H 0.50829 0.34929 0.55971 0.0
H3255 H 0.52891 0.36169 0.54818 0.0
C3256 C 0.52127 0.34873 0.61978 0.0
C3257 C 0.53903 0.34378 0.61583 0.0
C3258 C 0.51386 0.36199 0.60896 0.0
C3259 C 0.524 0.37028 0.59393 0.0
C3260 C 0.54173 0.36543 0.59005 0.0
H3261 H 0.53986 0.46381 0.52405 0.0
H3262 H 0.53835 0.43383 0.54075 0.0
C3263 C 0.54914 0.35229 0.60082 0.0
C3264 C 0.51695 0.38507 0.58293 0.0
H3265 H 0.50903 0.396 0.53702 0.0
C3266 C 0.51557 0.4035 0.59279 0.0
C3267 C 0.5137 0.382 0.56265 0.0
C3268 C 0.51385 0.36208 0.55141 0.0
C3269 C 0.51245 0.41949 0.58277 0.0
C3270 C 0.51044 0.4168 0.56242 0.0
C3271 C 0.51069 0.398 0.55263 0.0
C3272 C 0.51019 0.4339 0.55109 0.0
C3273 C 0.51251 0.43953 0.59391 0.0
C3274 C 0.49461 0.44353 0.55103 0.0
C3275 C 0.4954 0.46071 0.54147 0.0
C3276 C 0.51182 0.4685 0.53187 0.0
C3277 C 0.52706 0.45831 0.53141 0.0
C3278 C 0.52622 0.44114 0.54089 0.0
H3279 H 0.51675 0.43983 0.60947 0.0
H3280 H 0.52263 0.45182 0.58801 0.0
H3281 H 0.49782 0.44267 0.59247 0.0
H3282 H 0.48203 0.43798 0.55867 0.0
H3283 H 0.48339 0.46817 0.54207 0.0
H3284 H 0.45857 0.75359 0.31484 0.0
H3285 H 0.43495 0.75562 0.2886 0.0
H3286 H 0.38843 0.72999 0.32201 0.0
H3287 H 0.41176 0.72764 0.34806 0.0
H3288 H 0.38255 0.71639 0.28159 0.0
H3289 H 0.4037 0.8 0.29732 0.0
H3290 H 0.42247 0.78699 0.29136 0.0
H3291 H 0.41107 0.78346 0.31342 0.0
C3292 C 0.44333 0.74796 0.31641 0.0
C3293 C 0.43702 0.74075 0.33366 0.0
C3294 C 0.42988 0.74923 0.30145 0.0
C3295 C 0.40998 0.7433 0.30356 0.0
C3296 C 0.40374 0.73472 0.32015 0.0
H3297 H 0.29763 0.7528 0.26932 0.0
H3298 H 0.32714 0.7426 0.2798 0.0
C3299 C 0.41711 0.73347 0.33507 0.0
C3300 C 0.39545 0.74777 0.28964 0.0
H3301 H 0.37632 0.78664 0.27631 0.0
C3302 C 0.38135 0.73174 0.28011 0.0
C3303 C 0.39397 0.76783 0.28775 0.0
C3304 C 0.40849 0.78563 0.29805 0.0
C3305 C 0.36536 0.73524 0.26934 0.0
C3306 C 0.36328 0.75527 0.26844 0.0
C3307 C 0.37795 0.7713 0.27704 0.0
C3308 C 0.34514 0.75997 0.26059 0.0
C3309 C 0.35067 0.71743 0.25938 0.0
C3310 C 0.34549 0.77345 0.24658 0.0
C3311 C 0.32864 0.7796 0.24089 0.0
C3312 C 0.31136 0.77246 0.24926 0.0
C3313 C 0.31087 0.75861 0.26283 0.0
C3314 C 0.32767 0.75255 0.2686 0.0
H3315 H 0.35744 0.70449 0.25556 0.0
H3316 H 0.33931 0.71252 0.26927 0.0
H3317 H 0.34367 0.72128 0.24609 0.0
H3318 H 0.35886 0.7795 0.24036 0.0
H3319 H 0.32921 0.79029 0.23035 0.0
H3320 H 0.02354 0.72559 0.14092 0.0
H3321 H 0.01873 0.68982 0.1286 0.0
H3322 H 0.04628 0.70674 0.07737 0.0
H3323 H 0.0517 0.7421 0.08978 0.0
H3324 H 0.99974 0.66727 0.09725 0.0
H3325 H 0.07743 0.66823 0.09431 0.0
H3326 H 0.0689 0.68878 0.10646 0.0
H3327 H 0.07105 0.68718 0.08083 0.0
C3328 C 0.02853 0.72161 0.12703 0.0
C3329 C 0.03825 0.73662 0.11645 0.0
C3330 C 0.02582 0.7012 0.12003 0.0
C3331 C 0.0327 0.69558 0.10232 0.0
C3332 C 0.04151 0.71065 0.09138 0.0
H3333 H 0.99689 0.58923 0.02325 0.0
H3334 H 0.00059 0.621 0.0436 0.0
C3335 C 0.04446 0.7309 0.09845 0.0
C3336 C 0.03054 0.67407 0.0949 0.0
H3337 H 0.0556 0.64129 0.07422 0.0
C3338 C 0.01198 0.66147 0.09248 0.0
C3339 C 0.04656 0.66627 0.08917 0.0
C3340 C 0.06711 0.67829 0.09305 0.0
C3341 C 0.00889 0.64168 0.08344 0.0
C3342 C 0.0247 0.63457 0.07605 0.0
C3343 C 0.04339 0.64679 0.0795 0.0
C3344 C 0.02217 0.61494 0.06397 0.0
C3345 C 0.98871 0.62867 0.08197 0.0
C3346 C 0.03368 0.60125 0.06807 0.0
C3347 C 0.03199 0.58327 0.05609 0.0
C3348 C 0.0186 0.57857 0.0399 0.0
C3349 C 0.00715 0.5923 0.03578 0.0
C3350 C 0.0091 0.6104 0.04754 0.0
H3351 H 0.98042 0.63314 0.09403 0.0
H3352 H 0.98089 0.63065 0.06838 0.0
H3353 H 0.98894 0.61249 0.08207 0.0
H3354 H 0.044 0.60447 0.08056 0.0
H3355 H 0.04096 0.57295 0.05966 0.0
H3356 H 0.035 0.28081 0.79752 0.0
H3357 H 0.06527 0.27906 0.78285 0.0
H3358 H 0.08218 0.24772 0.82928 0.0
H3359 H 0.05205 0.2493 0.844 0.0
H3360 H 0.10412 0.29403 0.79965 0.0
H3361 H 0.08766 0.21123 0.78009 0.0
H3362 H 0.06922 0.22494 0.78587 0.0
H3363 H 0.08456 0.21901 0.80475 0.0
C3364 C 0.04516 0.27355 0.80462 0.0
C3365 C 0.04106 0.26513 0.8219 0.0
C3366 C 0.06243 0.27255 0.7962 0.0
C3367 C 0.07578 0.26295 0.80482 0.0
C3368 C 0.07188 0.25483 0.82221 0.0
H3369 H 0.18951 0.2429 0.78712 0.0
H3370 H 0.15669 0.24229 0.79664 0.0
C3371 C 0.05469 0.25589 0.83066 0.0
C3372 C 0.09405 0.26182 0.79595 0.0
H3373 H 0.12005 0.22872 0.77752 0.0
C3374 C 0.10756 0.27979 0.79462 0.0
C3375 C 0.09846 0.24319 0.78947 0.0
C3376 C 0.08417 0.22348 0.78993 0.0
C3377 C 0.12568 0.27961 0.78758 0.0
C3378 C 0.1302 0.26095 0.78128 0.0
C3379 C 0.11654 0.24299 0.78233 0.0
C3380 C 0.14933 0.25978 0.77429 0.0
C3381 C 0.14009 0.29935 0.78763 0.0
C3382 C 0.15581 0.26919 0.75815 0.0
C3383 C 0.17456 0.26961 0.75273 0.0
C3384 C 0.18704 0.26043 0.76326 0.0
C3385 C 0.18018 0.25009 0.77877 0.0
C3386 C 0.16146 0.24976 0.78423 0.0
H3387 H 0.13622 0.3116 0.79717 0.0
H3388 H 0.15488 0.29792 0.7924 0.0
H3389 H 0.14038 0.30387 0.77282 0.0
H3390 H 0.14651 0.27661 0.75 0.0
H3391 H 0.17946 0.2776 0.74066 0.0
H3392 H 0.53653 0.71314 0.93057 0.0
H3393 H 0.54156 0.68068 0.93957 0.0
H3394 H 0.50553 0.6849 0.98678 0.0
H3395 H 0.50004 0.7169 0.97765 0.0
H3396 H 0.55569 0.66742 0.97325 0.0
H3397 H 0.47802 0.63253 0.9551 0.0
H3398 H 0.48911 0.65699 0.94853 0.0
H3399 H 0.48192 0.65425 0.97256 0.0
C3400 C 0.52983 0.70722 0.94296 0.0
C3401 C 0.51762 0.71741 0.9532 0.0
C3402 C 0.53274 0.6887 0.94811 0.0
C3403 C 0.52357 0.6802 0.96359 0.0
C3404 C 0.51235 0.69096 0.9745 0.0
H3405 H 0.53942 0.57526 0.01912 0.0
H3406 H 0.54201 0.60962 0.0105 0.0
C3407 C 0.50927 0.70928 0.96927 0.0
C3408 C 0.5247 0.65961 0.96776 0.0
H3409 H 0.49648 0.61328 0.97149 0.0
C3410 C 0.54279 0.65551 0.97278 0.0
C3411 C 0.50788 0.64403 0.96682 0.0
C3412 C 0.48816 0.64707 0.96027 0.0
C3413 C 0.54443 0.63628 0.97728 0.0
C3414 C 0.52748 0.62095 0.9771 0.0
C3415 C 0.50947 0.62506 0.97179 0.0
C3416 C 0.52782 0.60033 0.98189 0.0
C3417 C 0.56428 0.63248 0.98183 0.0
C3418 C 0.51887 0.58369 0.9688 0.0
C3419 C 0.51701 0.56417 0.97383 0.0
C3420 C 0.5242 0.5608 0.99205 0.0
C3421 C 0.5338 0.57739 0.00495 0.0
C3422 C 0.53543 0.59703 -2e-05 0.0
H3423 H 0.57571 0.6436 0.976 0.0
H3424 H 0.56731 0.63388 0.99768 0.0
H3425 H 0.56522 0.61709 0.97589 0.0
H3426 H 0.51291 0.58584 0.95476 0.0
H3427 H 0.50973 0.55172 0.96345 0.0
H3428 H 0.04099 0.73396 0.69304 0.0
H3429 H 0.07572 0.73692 0.69879 0.0
H3430 H 0.08634 0.77792 0.65547 0.0
H3431 H 0.05143 0.77523 0.64968 0.0
H3432 H 0.09964 0.72619 0.67038 0.0
H3433 H 0.12439 0.80622 0.70154 0.0
H3434 H 0.09938 0.79299 0.70044 0.0
H3435 H 0.10972 0.8017 0.67912 0.0
C3436 C 0.05067 0.74385 0.68489 0.0
C3437 C 0.04341 0.75433 0.67085 0.0
C3438 C 0.07053 0.74548 0.68818 0.0
C3439 C 0.08358 0.75765 0.67759 0.0
C3440 C 0.0765 0.76864 0.66396 0.0
H3441 H 0.21009 0.77738 0.68824 0.0
H3442 H 0.17698 0.7763 0.67536 0.0
C3443 C 0.05655 0.76706 0.66067 0.0
C3444 C 0.10446 0.7578 0.68024 0.0
H3445 H 0.14832 0.78733 0.6973 0.0
C3446 C 0.11032 0.73958 0.67616 0.0
C3447 C 0.11834 0.77533 0.68761 0.0
C3448 C 0.11273 0.79518 0.69259 0.0
C3449 C 0.12965 0.73831 0.67964 0.0
C3450 C 0.14341 0.75565 0.68769 0.0
C3451 C 0.1377 0.77405 0.69113 0.0
C3452 C 0.16346 0.75475 0.69394 0.0
C3453 C 0.13515 0.71839 0.67475 0.0
C3454 C 0.1668 0.74283 0.70849 0.0
C3455 C 0.18563 0.74341 0.71582 0.0
C3456 C 0.20144 0.75599 0.7088 0.0
C3457 C 0.19815 0.76745 0.69382 0.0
C3458 C 0.17928 0.76691 0.68651 0.0
H3459 H 0.12471 0.70856 0.6636 0.0
H3460 H 0.14987 0.72056 0.66953 0.0
H3461 H 0.13506 0.71042 0.68785 0.0
H3462 H 0.15478 0.73364 0.71468 0.0
H3463 H 0.18776 0.73455 0.72747 0.0
H3464 H 0.04576 0.34166 0.43681 0.0
H3465 H 0.05012 0.37665 0.45083 0.0
H3466 H 0.03892 0.35653 0.50653 0.0
H3467 H 0.03385 0.32158 0.49243 0.0
H3468 H 0.01367 0.37732 0.49508 0.0
H3469 H 0.08744 0.42019 0.48551 0.0
H3470 H 0.0756 0.40608 0.46361 0.0
H3471 H 0.08124 0.393 0.48356 0.0
C3472 C 0.04498 0.34477 0.45218 0.0
C3473 C 0.03928 0.32898 0.46353 0.0
C3474 C 0.04754 0.36479 0.46021 0.0
C3475 C 0.04484 0.36922 0.47975 0.0
C3476 C 0.04101 0.35346 0.49142 0.0
H3477 H 0.04416 0.48846 0.53732 0.0
H3478 H 0.05242 0.45595 0.52793 0.0
C3479 C 0.03814 0.33351 0.48336 0.0
C3480 C 0.04244 0.3895 0.48719 0.0
H3481 H 0.06337 0.4397 0.4914 0.0
C3482 C 0.02468 0.39091 0.49451 0.0
C3483 C 0.05678 0.40723 0.48645 0.0
C3484 C 0.07641 0.40657 0.47953 0.0
C3485 C 0.02067 0.40956 0.5007 0.0
C3486 C 0.03463 0.42733 0.49914 0.0
C3487 C 0.05263 0.426 0.49236 0.0
C3488 C 0.03046 0.44737 0.50417 0.0
C3489 C 0.00148 0.41006 0.50882 0.0
C3490 C 0.01555 0.45328 0.49377 0.0
C3491 C 0.01072 0.47165 0.49918 0.0
C3492 C 0.02088 0.48449 0.51496 0.0
C3493 C 0.03605 0.47874 0.52517 0.0
C3494 C 0.04085 0.4603 0.51976 0.0
H3495 H 0.99468 0.39537 0.51368 0.0
H3496 H 0.00318 0.42195 0.52115 0.0
H3497 H 0.99146 0.41346 0.49749 0.0
H3498 H 0.00752 0.44358 0.48155 0.0
H3499 H 0.99895 0.47574 0.49109 0.0
H3500 H 0.44343 0.28304 0.15918 0.0
H3501 H 0.41731 0.2945 0.17549 0.0
H3502 H 0.41035 0.24358 0.20842 0.0
H3503 H 0.4364 0.23226 0.19259 0.0
H3504 H 0.37929 0.27423 0.17541 0.0
H3505 H 0.41262 0.28962 0.25004 0.0
H3506 H 0.42653 0.28663 0.22954 0.0
H3507 H 0.41343 0.26488 0.23952 0.0
C3508 C 0.43648 0.27443 0.17006 0.0
C3509 C 0.44209 0.25677 0.17462 0.0
C3510 C 0.42156 0.28099 0.17935 0.0
C3511 C 0.41214 0.27011 0.19344 0.0
C3512 C 0.41775 0.25253 0.19799 0.0
H3513 H 0.31033 0.25196 0.25244 0.0
H3514 H 0.3413 0.25285 0.2386 0.0
C3515 C 0.43259 0.24598 0.18877 0.0
C3516 C 0.3956 0.27617 0.20264 0.0
H3517 H 0.37777 0.28385 0.24642 0.0
C3518 C 0.37907 0.27677 0.19092 0.0
C3519 C 0.39536 0.27953 0.22288 0.0
C3520 C 0.41302 0.28035 0.23621 0.0
C3521 C 0.36194 0.27941 0.19895 0.0
C3522 C 0.36143 0.28168 0.21919 0.0
C3523 C 0.3782 0.28199 0.23089 0.0
C3524 C 0.34321 0.28205 0.22842 0.0
C3525 C 0.3442 0.27872 0.18578 0.0
C3526 C 0.33423 0.29839 0.22759 0.0
C3527 C 0.31649 0.29798 0.23557 0.0
C3528 C 0.30744 0.28118 0.24444 0.0
C3529 C 0.3168 0.26509 0.24564 0.0
C3530 C 0.33454 0.26558 0.23777 0.0
H3531 H 0.34629 0.2742 0.17051 0.0
H3532 H 0.33157 0.26799 0.19025 0.0
H3533 H 0.34072 0.29385 0.18678 0.0
H3534 H 0.34083 0.31133 0.22059 0.0
H3535 H 0.30969 0.31063 0.2344 0.0
H3536 H 0.62419 0.47743 0.33961 0.0
H3537 H 0.60846 0.46522 0.36806 0.0
H3538 H 0.56313 0.49672 0.35662 0.0
H3539 H 0.57815 0.50828 0.32841 0.0
H3540 H 0.60251 0.48683 0.39977 0.0
H3541 H 0.53119 0.44488 0.3687 0.0
H3542 H 0.55129 0.45127 0.354 0.0
H3543 H 0.53585 0.46868 0.35919 0.0
C3544 C 0.61064 0.48132 0.34299 0.0
C3545 C 0.60246 0.49386 0.33174 0.0
C3546 C 0.60168 0.47437 0.35924 0.0
C3547 C 0.58434 0.47966 0.36427 0.0
C3548 C 0.5761 0.49181 0.35276 0.0
H3549 H 0.54601 0.52768 0.46188 0.0
H3550 H 0.56411 0.51544 0.43656 0.0
C3551 C 0.58491 0.49866 0.33668 0.0
C3552 C 0.57567 0.47476 0.38255 0.0
H3553 H 0.5313 0.46464 0.40041 0.0
C3554 C 0.58701 0.48138 0.39996 0.0
C3555 C 0.55557 0.46694 0.38304 0.0
C3556 C 0.54289 0.45732 0.36518 0.0
C3557 C 0.57843 0.48262 0.41753 0.0
C3558 C 0.55799 0.47787 0.41752 0.0
C3559 C 0.54693 0.46895 0.40046 0.0
C3560 C 0.5478 0.48453 0.43413 0.0
C3561 C 0.59137 0.48965 0.4358 0.0
C3562 C 0.532 0.47151 0.44081 0.0
C3563 C 0.52125 0.47868 0.45506 0.0
C3564 C 0.52622 0.49896 0.46288 0.0
C3565 C 0.54204 0.5119 0.45628 0.0
C3566 C 0.55258 0.50482 0.44196 0.0
H3567 H 0.6051 0.48438 0.4349 0.0
H3568 H 0.59519 0.50636 0.43782 0.0
H3569 H 0.58422 0.48411 0.44857 0.0
H3570 H 0.52784 0.45586 0.43484 0.0
H3571 H 0.5091 0.46842 0.45994 0.0
H3572 H 0.24017 0.82659 0.05144 0.0
H3573 H 0.22542 0.81532 0.08013 0.0
H3574 H 0.19661 0.86499 0.0837 0.0
H3575 H 0.21146 0.87646 0.05467 0.0
H3576 H 0.2195 0.86335 0.11645 0.0
H3577 H 0.1723 0.78856 0.09525 0.0
H3578 H 0.19483 0.79039 0.08442 0.0
H3579 H 0.17903 0.80665 0.07821 0.0
C3580 C 0.23037 0.8349 0.05805 0.0
C3581 C 0.2271 0.85251 0.05093 0.0
C3582 C 0.22173 0.82829 0.07433 0.0
C3583 C 0.20965 0.83912 0.08386 0.0
C3584 C 0.20568 0.85627 0.07636 0.0
H3585 H 0.21184 0.81952 0.20657 0.0
H3586 H 0.1971 0.82983 0.17766 0.0
C3587 C 0.21419 0.86281 0.05984 0.0
C3588 C 0.20421 0.83418 0.1032 0.0
H3589 H 0.1901 0.79307 0.12721 0.0
C3590 C 0.21239 0.84822 0.11896 0.0
C3591 C 0.19479 0.81451 0.10639 0.0
C3592 C 0.18456 0.79926 0.09012 0.0
C3593 C 0.21362 0.84236 0.13757 0.0
C3594 C 0.20616 0.82201 0.14037 0.0
C3595 C 0.196 0.8086 0.12496 0.0
C3596 C 0.21221 0.81363 0.1578 0.0
C3597 C 0.22464 0.85742 0.15365 0.0
C3598 C 0.22494 0.80052 0.15609 0.0
C3599 C 0.23326 0.7946 0.17245 0.0
C3600 C 0.229 0.80172 0.1908 0.0
C3601 C 0.21548 0.81401 0.19253 0.0
C3602 C 0.20709 0.81991 0.17609 0.0
H3603 H 0.23102 0.87214 0.14858 0.0
H3604 H 0.21474 0.86005 0.16488 0.0
H3605 H 0.23647 0.85147 0.16043 0.0
H3606 H 0.2291 0.79555 0.14209 0.0
H3607 H 0.24355 0.78502 0.17074 0.0
H3608 H 0.92354 0.59319 0.8358 0.0
H3609 H 0.93356 0.59771 0.87037 0.0
H3610 H 0.99147 0.59382 0.85739 0.0
H3611 H 0.98161 0.58929 0.82312 0.0
H3612 H 0.94672 0.56672 0.88598 0.0
H3613 H 0.00157 0.63771 0.90286 0.0
H3614 H 0.98439 0.63314 0.88202 0.0
H3615 H 0.00612 0.62352 0.88137 0.0
C3616 C 0.93855 0.59403 0.84035 0.0
C3617 C 0.95178 0.59073 0.82681 0.0
C3618 C 0.94424 0.59658 0.86008 0.0
C3619 C 0.9633 0.59629 0.86644 0.0
C3620 C 0.9768 0.59451 0.85284 0.0
H3621 H 0.03515 0.56247 0.9494 0.0
H3622 H 0.0197 0.57782 0.92433 0.0
C3623 C 0.9711 0.59174 0.83323 0.0
C3624 C 0.96845 0.59412 0.8868 0.0
H3625 H 0.00435 0.61098 0.92271 0.0
C3626 C 0.95898 0.57667 0.89431 0.0
C3627 C 0.98448 0.60708 0.89755 0.0
C3628 C 0.9946 0.62652 0.8906 0.0
C3629 C 0.96611 0.5709 0.9115 0.0
C3630 C 0.98292 0.58325 0.92168 0.0
C3631 C 0.99157 0.60145 0.91484 0.0
C3632 C 0.9929 0.57641 0.93813 0.0
C3633 C 0.95642 0.55087 0.91773 0.0
C3634 C 0.98327 0.57121 0.95453 0.0
C3635 C 0.99198 0.56213 0.96861 0.0
C3636 C 0.01052 0.55847 0.96666 0.0
C3637 C 0.02074 0.56502 0.95105 0.0
C3638 C 0.01193 0.57381 0.93679 0.0
H3639 H 0.94628 0.54138 0.90614 0.0
H3640 H 0.96731 0.54233 0.92212 0.0
H3641 H 0.94799 0.55348 0.93026 0.0
H3642 H 0.96886 0.57371 0.9562 0.0
H3643 H 0.98425 0.55798 0.98101 0.0
H3644 H 0.24238 0.20545 0.54619 0.0
H3645 H 0.2499 0.21917 0.57974 0.0
H3646 H 0.29082 0.18136 0.5862 0.0
H3647 H 0.28323 0.16725 0.55234 0.0
H3648 H 0.26466 0.17997 0.6152 0.0
H3649 H 0.29817 0.2588 0.60534 0.0
H3650 H 0.2753 0.24993 0.59164 0.0
H3651 H 0.29524 0.23842 0.58625 0.0
C3652 C 0.25313 0.20011 0.55461 0.0
C3653 C 0.26221 0.18522 0.54654 0.0
C3654 C 0.25751 0.20811 0.5738 0.0
C3655 C 0.27113 0.20153 0.58538 0.0
C3656 C 0.28037 0.18676 0.57743 0.0
H3657 H 0.30191 0.26283 0.70222 0.0
H3658 H 0.30428 0.24754 0.66968 0.0
C3659 C 0.27605 0.17876 0.5581 0.0
C3660 C 0.27463 0.20936 0.60605 0.0
H3661 H 0.28582 0.25318 0.63615 0.0
C3662 C 0.26959 0.19593 0.61984 0.0
C3663 C 0.2813 0.23015 0.61209 0.0
C3664 C 0.288 0.24514 0.59806 0.0
C3665 C 0.27005 0.20289 0.63943 0.0
C3666 C 0.27539 0.22385 0.64529 0.0
C3667 C 0.28145 0.23714 0.63162 0.0
C3668 C 0.27409 0.23239 0.66535 0.0
C3669 C 0.26464 0.18776 0.65364 0.0
C3670 C 0.25627 0.22913 0.67365 0.0
C3671 C 0.25484 0.23784 0.69227 0.0
C3672 C 0.2712 0.25013 0.7029 0.0
C3673 C 0.28902 0.25344 0.69448 0.0
C3674 C 0.29042 0.24469 0.67588 0.0
H3675 H 0.26682 0.17269 0.64808 0.0
H3676 H 0.27327 0.19267 0.66765 0.0
H3677 H 0.24911 0.18617 0.65616 0.0
H3678 H 0.24337 0.2201 0.66562 0.0
H3679 H 0.24087 0.23505 0.69823 0.0
H3680 H 0.63622 0.4918 0.22385 0.0
H3681 H 0.62809 0.48695 0.18888 0.0
H3682 H 0.57914 0.51415 0.19691 0.0
H3683 H 0.58694 0.51886 0.23154 0.0
H3684 H 0.57147 0.47838 0.17053 0.0
H3685 H 0.63661 0.53476 0.15519 0.0
H3686 H 0.64023 0.51453 0.16866 0.0
H3687 H 0.62857 0.53334 0.17915 0.0
C3688 C 0.6236 0.49651 0.21814 0.0
C3689 C 0.61231 0.50586 0.23045 0.0
C3690 C 0.61907 0.49386 0.19819 0.0
C3691 C 0.60318 0.50046 0.19035 0.0
C3692 C 0.59151 0.50903 0.20268 0.0
H3693 H 0.54328 0.52824 0.09412 0.0
H3694 H 0.55871 0.52358 0.12496 0.0
C3695 C 0.59603 0.51174 0.22249 0.0
C3696 C 0.59869 0.49922 0.16933 0.0
H3697 H 0.61287 0.52238 0.12969 0.0
C3698 C 0.58068 0.48769 0.16149 0.0
C3699 C 0.61076 0.51142 0.15762 0.0
C3700 C 0.6301 0.52434 0.16549 0.0
C3701 C 0.57402 0.48876 0.14249 0.0
C3702 C 0.58559 0.50181 0.13115 0.0
C3703 C 0.60407 0.51245 0.13855 0.0
C3704 C 0.57779 0.506 0.11236 0.0
C3705 C 0.55432 0.4765 0.13485 0.0
C3706 C 0.58391 0.49815 0.09513 0.0
C3707 C 0.57509 0.50077 0.07745 0.0
C3708 C 0.56017 0.51139 0.07688 0.0
C3709 C 0.55474 0.51999 0.09415 0.0
C3710 C 0.56347 0.51729 0.11176 0.0
H3711 H 0.5491 0.46405 0.14368 0.0
H3712 H 0.5438 0.48642 0.13508 0.0
H3713 H 0.55462 0.47006 0.11972 0.0
H3714 H 0.59502 0.48946 0.09538 0.0
H3715 H 0.57951 0.49398 0.06431 0.0
H3716 H 0.28187 0.83904 0.95713 0.0
H3717 H 0.28091 0.82331 0.92433 0.0
H3718 H 0.22495 0.83643 0.91181 0.0
H3719 H 0.22613 0.85298 0.94464 0.0
H3720 H 0.25698 0.79168 0.90477 0.0
H3721 H 0.25448 0.86034 0.86907 0.0
H3722 H 0.25919 0.8611 0.89472 0.0
H3723 H 0.23484 0.85314 0.88387 0.0
C3724 C 0.26933 0.8386 0.94744 0.0
C3725 C 0.25412 0.84738 0.95344 0.0
C3726 C 0.26879 0.82956 0.92868 0.0
C3727 C 0.253 0.82895 0.91553 0.0
C3728 C 0.2375 0.83718 0.92159 0.0
H3729 H 0.23763 0.75537 0.8041 0.0
H3730 H 0.23517 0.76758 0.83768 0.0
C3731 C 0.23814 0.84652 0.94036 0.0
C3732 C 0.25311 0.81983 0.8955 0.0
H3733 H 0.25221 0.83016 0.8488 0.0
C3734 C 0.25591 0.80006 0.8925 0.0
C3735 C 0.25198 0.83092 0.87958 0.0
C3736 C 0.25014 0.8526 0.88192 0.0
C3737 C 0.25787 0.79116 0.87404 0.0
C3738 C 0.25638 0.80212 0.85809 0.0
C3739 C 0.2533 0.82177 0.86106 0.0
C3740 C 0.25854 0.79386 0.8382 0.0
C3741 C 0.26222 0.77042 0.87192 0.0
C3742 C 0.27233 0.80468 0.82727 0.0
C3743 C 0.27349 0.79796 0.80803 0.0
C3744 C 0.26099 0.78019 0.79941 0.0
C3745 C 0.24757 0.76903 0.81047 0.0
C3746 C 0.24622 0.77593 0.82968 0.0
H3747 H 0.26839 0.76667 0.88569 0.0
H3748 H 0.2486 0.75909 0.86759 0.0
H3749 H 0.27254 0.76912 0.86075 0.0
H3750 H 0.28196 0.81858 0.83355 0.0
H3751 H 0.28382 0.80696 0.79978 0.0
H3752 H 0.978 0.5796 0.72446 0.0
H3753 H 0.98739 0.58868 0.69312 0.0
H3754 H 0.93551 0.61108 0.6843 0.0
H3755 H 0.92573 0.60166 0.7159 0.0
H3756 H 0.93986 0.58437 0.65482 0.0
H3757 H 0.00878 0.63993 0.67045 0.0
H3758 H 0.0093 0.61867 0.68343 0.0
H3759 H 0.99198 0.63394 0.68863 0.0
C3760 C 0.96868 0.58678 0.71607 0.0
C3761 C 0.95104 0.58978 0.72264 0.0
C3762 C 0.97422 0.59221 0.69819 0.0
C3763 C 0.96236 0.60093 0.68648 0.0
C3764 C 0.945 0.6046 0.69322 0.0
H3765 H 0.98277 0.59241 0.56244 0.0
H3766 H 0.97197 0.60739 0.59207 0.0
C3767 C 0.93944 0.5992 0.71125 0.0
C3768 C 0.96709 0.60343 0.66636 0.0
H3769 H 0.00588 0.61763 0.64011 0.0
C3770 C 0.95404 0.59223 0.65146 0.0
C3771 C 0.98553 0.61383 0.66194 0.0
C3772 C 0.99958 0.62744 0.67699 0.0
C3773 C 0.9597 0.58944 0.63268 0.0
C3774 C 0.97882 0.59813 0.62878 0.0
C3775 C 0.99128 0.61081 0.64323 0.0
C3776 C 0.98697 0.59145 0.61095 0.0
C3777 C 0.94577 0.57583 0.6175 0.0
C3778 C 0.99935 0.57801 0.61189 0.0
C3779 C 0.00538 0.56938 0.59509 0.0
C3780 C 0.99919 0.57413 0.57708 0.0
C3781 C 0.98756 0.58836 0.57617 0.0
C3782 C 0.98142 0.59694 0.59304 0.0
H3783 H 0.93166 0.56952 0.62312 0.0
H3784 H 0.9431 0.5844 0.60531 0.0
H3785 H 0.95215 0.56317 0.61179 0.0
H3786 H 0.00374 0.57359 0.62562 0.0
H3787 H 0.0144 0.55853 0.59618 0.0
H3788 H 0.2403 0.20326 0.44255 0.0
H3789 H 0.25027 0.22038 0.41479 0.0
H3790 H 0.30014 0.19374 0.41301 0.0
H3791 H 0.28999 0.17601 0.441 0.0
H3792 H 0.28419 0.24795 0.41062 0.0
H3793 H 0.27449 0.17957 0.35781 0.0
H3794 H 0.26483 0.17863 0.38111 0.0
H3795 H 0.29031 0.18108 0.37913 0.0
C3796 C 0.25341 0.20093 0.43635 0.0
C3797 C 0.26431 0.18815 0.44402 0.0
C3798 C 0.25912 0.21083 0.42046 0.0
C3799 C 0.27588 0.20829 0.41175 0.0
C3800 C 0.28701 0.19572 0.41937 0.0
H3801 H 0.29908 0.28892 0.31955 0.0
H3802 H 0.30666 0.27153 0.34722 0.0
C3803 C 0.28123 0.18566 0.43539 0.0
C3804 C 0.28109 0.21886 0.39458 0.0
H3805 H 0.28011 0.21086 0.34561 0.0
C3806 C 0.28371 0.23992 0.3964 0.0
C3807 C 0.28039 0.20829 0.37609 0.0
C3808 C 0.27725 0.18564 0.37325 0.0
C3809 C 0.28428 0.25058 0.38019 0.0
C3810 C 0.28267 0.2399 0.36162 0.0
C3811 C 0.28137 0.21899 0.35986 0.0
C3812 C 0.27943 0.24958 0.34397 0.0
C3813 C 0.28516 0.27294 0.38306 0.0
C3814 C 0.26194 0.24263 0.3326 0.0
C3815 C 0.2577 0.25237 0.31681 0.0
C3816 C 0.27088 0.26928 0.31202 0.0
C3817 C 0.28862 0.27601 0.32306 0.0
C3818 C 0.29293 0.26612 0.33887 0.0
H3819 H 0.28284 0.27815 0.3981 0.0
H3820 H 0.29961 0.28122 0.37973 0.0
H3821 H 0.2741 0.27698 0.37326 0.0
H3822 H 0.25126 0.22996 0.33627 0.0
H3823 H 0.24386 0.24691 0.30864 0.0
H3824 H 0.30606 0.59243 0.46915 0.0
H3825 H 0.32989 0.57174 0.47305 0.0
H3826 H 0.35491 0.60938 0.52505 0.0
H3827 H 0.33102 0.63009 0.52139 0.0
H3828 H 0.36986 0.58586 0.47391 0.0
H3829 H 0.34931 0.5522 0.54089 0.0
H3830 H 0.33329 0.56359 0.52687 0.0
H3831 H 0.35253 0.57911 0.54284 0.0
C3832 C 0.31649 0.5962 0.48155 0.0
C3833 C 0.31666 0.61294 0.49495 0.0
C3834 C 0.33008 0.58434 0.48375 0.0
C3835 C 0.34399 0.58887 0.49946 0.0
C3836 C 0.34404 0.60538 0.51303 0.0
H3837 H 0.44914 0.55498 0.53382 0.0
H3838 H 0.41937 0.56751 0.53151 0.0
C3839 C 0.33046 0.61728 0.51084 0.0
C3840 C 0.35935 0.57729 0.50084 0.0
H3841 H 0.37994 0.54906 0.53003 0.0
C3842 C 0.37194 0.5776 0.48606 0.0
C3843 C 0.36203 0.56661 0.51675 0.0
C3844 C 0.34848 0.56516 0.53267 0.0
C3845 C 0.3876 0.5681 0.48705 0.0
C3846 C 0.39046 0.55764 0.50308 0.0
C3847 C 0.37766 0.55703 0.51773 0.0
C3848 C 0.40737 0.54833 0.50541 0.0
C3849 C 0.40138 0.57007 0.4713 0.0
C3850 C 0.41018 0.53292 0.49183 0.0
C3851 C 0.42724 0.52579 0.49307 0.0
C3852 C 0.44161 0.53388 0.508 0.0
C3853 C 0.43831 0.54854 0.52212 0.0
C3854 C 0.42131 0.55569 0.52084 0.0
H3855 H 0.39963 0.58228 0.46241 0.0
H3856 H 0.41663 0.57316 0.47743 0.0
H3857 H 0.39853 0.55572 0.46168 0.0
H3858 H 0.39941 0.52677 0.48002 0.0
H3859 H 0.42941 0.5144 0.48207 0.0
H3860 H 0.79674 0.94767 0.53335 0.0
H3861 H 0.82681 0.97301 0.53187 0.0
H3862 H 0.85991 0.93182 0.55186 0.0
H3863 H 0.83025 0.90681 0.55368 0.0
H3864 H 0.87375 0.97126 0.56833 0.0
H3865 H 0.86256 0.96625 0.48845 0.0
H3866 H 0.84396 0.97338 0.50222 0.0
H3867 H 0.84822 0.94843 0.50223 0.0
C3868 C 0.81043 0.94421 0.53778 0.0
C3869 C 0.81114 0.92515 0.54342 0.0
C3870 C 0.82758 0.95862 0.53677 0.0
C3871 C 0.8456 0.95413 0.54142 0.0
C3872 C 0.84618 0.93558 0.54812 0.0
H3873 H 0.9585 0.97566 0.50718 0.0
H3874 H 0.92376 0.96655 0.51086 0.0
C3875 C 0.82917 0.92125 0.54909 0.0
C3876 C 0.8641 0.96786 0.5383 0.0
H3877 H 0.89276 0.9839 0.50272 0.0
C3878 C 0.87783 0.97443 0.55405 0.0
C3879 C 0.86938 0.97173 0.51959 0.0
C3880 C 0.85537 0.96453 0.50208 0.0
C3881 C 0.89701 0.98377 0.55151 0.0
C3882 C 0.90248 0.98703 0.53272 0.0
C3883 C 0.88848 0.98143 0.51709 0.0
C3884 C 0.92303 0.99395 0.5288 0.0
C3885 C 0.91153 0.98881 0.56882 0.0
C3886 C 0.93404 0.01266 0.53714 0.0
C3887 C 0.95396 0.01781 0.5352 0.0
C3888 C 0.96309 0.0044 0.52472 0.0
C3889 C 0.95185 0.98622 0.51544 0.0
C3890 C 0.932 0.98103 0.51749 0.0
H3891 H 0.90574 0.9818 0.58158 0.0
H3892 H 0.92498 0.98372 0.56561 0.0
H3893 H 0.91536 0.00538 0.57263 0.0
H3894 H 0.92733 0.02303 0.54557 0.0
H3895 H 0.96228 0.03202 0.54232 0.0
H3896 H 0.87 0.09185 0.22163 0.0
H3897 H 0.85301 0.11943 0.22123 0.0
H3898 H 0.83224 0.10719 0.27656 0.0
H3899 H 0.84888 0.07932 0.27692 0.0
H3900 H 0.8038 0.1143 0.25136 0.0
H3901 H 0.87064 0.17401 0.25279 0.0
H3902 H 0.86804 0.15451 0.23314 0.0
H3903 H 0.87111 0.14861 0.25745 0.0
C3904 C 0.86182 0.095 0.23373 0.0
C3905 C 0.86094 0.08343 0.24938 0.0
C3906 C 0.85218 0.11086 0.23351 0.0
C3907 C 0.84161 0.11564 0.24902 0.0
C3908 C 0.84037 0.10386 0.26447 0.0
H3909 H 0.80819 0.22801 0.27929 0.0
H3910 H 0.82156 0.19794 0.2774 0.0
C3911 C 0.84994 0.08794 0.26467 0.0
C3912 C 0.83198 0.133 0.24926 0.0
H3913 H 0.8409 0.18405 0.24858 0.0
C3914 C 0.81189 0.12956 0.25074 0.0
C3915 C 0.84258 0.15295 0.24868 0.0
C3916 C 0.8643 0.15784 0.24811 0.0
C3917 C 0.80213 0.14548 0.25159 0.0
C3918 C 0.81269 0.16537 0.25063 0.0
C3919 C 0.83277 0.16879 0.24916 0.0
C3920 C 0.80349 0.18307 0.25207 0.0
C3921 C 0.7807 0.14093 0.25405 0.0
C3922 C 0.78872 0.18475 0.2385 0.0
C3923 C 0.78089 0.202 0.23959 0.0
C3924 C 0.78784 0.21797 0.25417 0.0
C3925 C 0.80248 0.21608 0.26782 0.0
C3926 C 0.8102 0.19887 0.26676 0.0
H3927 H 0.77576 0.126 0.25931 0.0
H3928 H 0.77687 0.15263 0.2643 0.0
H3929 H 0.7727 0.14077 0.23995 0.0
H3930 H 0.78355 0.17295 0.22679 0.0
H3931 H 0.76975 0.20301 0.22875 0.0
H3932 H 0.70294 0.14089 0.03137 0.0
H3933 H 0.67457 0.1137 0.03179 0.0
H3934 H 0.70407 0.07199 0.00253 0.0
H3935 H 0.73292 0.09933 0.00235 0.0
H3936 H 0.6673 0.07609 0.98414 0.0
H3937 H 0.66129 0.06223 0.06032 0.0
H3938 H 0.66771 0.08856 0.05731 0.0
H3939 H 0.68406 0.07263 0.05084 0.0
C3940 C 0.70356 0.12585 0.02538 0.0
C3941 C 0.72004 0.1222 0.01672 0.0
C3942 C 0.68741 0.1103 0.02579 0.0
C3943 C 0.68735 0.09083 0.0174 0.0
C3944 C 0.704 0.0869 0.00929 0.0
H3945 H 0.56903 0.01803 0.98638 0.0
H3946 H 0.60443 0.02443 0.98989 0.0
C3947 C 0.7204 0.10248 0.0092 0.0
C3948 C 0.66885 0.0758 0.01488 0.0
H3949 H 0.63107 0.05648 0.04046 0.0
C3950 C 0.65948 0.07114 0.99633 0.0
C3951 C 0.65883 0.06944 0.03084 0.0
C3952 C 0.66856 0.0733 0.05094 0.0
C3953 C 0.63968 0.06218 0.99353 0.0
C3954 C 0.62923 0.0574 0.00974 0.0
C3955 C 0.63909 0.06033 0.02808 0.0
C3956 C 0.60784 0.05237 0.00839 0.0
C3957 C 0.62981 0.05955 0.97351 0.0
C3958 C 0.59806 0.06569 0.01802 0.0
C3959 C 0.57793 0.06202 0.01619 0.0
C3960 C 0.56715 0.04499 0.00461 0.0
C3961 C 0.57695 0.03145 0.99519 0.0
C3962 C 0.59716 0.03507 0.99717 0.0
H3963 H 0.63948 0.06684 0.96305 0.0
H3964 H 0.62521 0.04326 0.96843 0.0
H3965 H 0.6167 0.06599 0.97353 0.0
H3966 H 0.60605 0.07917 0.02671 0.0
H3967 H 0.57085 0.07272 0.02368 0.0
H3968 H 0.15042 0.46289 0.23002 0.0
H3969 H 0.17223 0.43973 0.23187 0.0
H3970 H 0.19855 0.47177 0.28607 0.0
H3971 H 0.17665 0.4949 0.2845 0.0
H3972 H 0.21346 0.44704 0.23545 0.0
H3973 H 0.18029 0.41326 0.29829 0.0
H3974 H 0.16881 0.42873 0.28402 0.0
H3975 H 0.18866 0.44017 0.30131 0.0
C3976 C 0.16089 0.46508 0.24231 0.0
C3977 C 0.16166 0.48062 0.25721 0.0
C3978 C 0.17337 0.45186 0.24331 0.0
C3979 C 0.1868 0.45389 0.25922 0.0
C3980 C 0.18805 0.46976 0.27382 0.0
H3981 H 0.25662 0.36874 0.29009 0.0
H3982 H 0.24485 0.39993 0.28914 0.0
C3983 C 0.17556 0.48299 0.27286 0.0
C3984 C 0.199 0.43895 0.26075 0.0
H3985 H 0.20637 0.40092 0.28647 0.0
C3986 C 0.21203 0.43703 0.24667 0.0
C3987 C 0.19712 0.42598 0.27544 0.0
C3988 C 0.18287 0.42694 0.29057 0.0
C3989 C 0.22309 0.42227 0.24676 0.0
C3990 C 0.22079 0.40892 0.26113 0.0
C3991 C 0.20817 0.41124 0.27552 0.0
C3992 C 0.23006 0.39142 0.26073 0.0
C3993 C 0.23711 0.4211 0.23147 0.0
C3994 C 0.2258 0.37643 0.24502 0.0
C3995 C 0.2325 0.3587 0.24554 0.0
C3996 C 0.24344 0.35559 0.26185 0.0
C3997 C 0.24825 0.37083 0.27733 0.0
C3998 C 0.24153 0.3886 0.27681 0.0
H3999 H 0.24174 0.43582 0.22571 0.0
H4000 H 0.25015 0.41632 0.23714 0.0
H4001 H 0.22992 0.4099 0.21933 0.0
H4002 H 0.21662 0.37806 0.23266 0.0
H4003 H 0.22853 0.34714 0.23343 0.0
H4004 H 0.21539 0.43716 0.98778 0.0
H4005 H 0.18954 0.45583 0.98791 0.0
H4006 H 0.17851 0.44205 0.04562 0.0
H4007 H 0.20438 0.4234 0.04569 0.0
H4008 H 0.14987 0.44027 0.99371 0.0
H4009 H 0.18373 0.50379 0.04884 0.0
H4010 H 0.19749 0.48767 0.0367 0.0
H4011 H 0.1831 0.47904 0.05582 0.0
C4012 C 0.20756 0.43818 0.00056 0.0
C4013 C 0.212 0.4288 0.01675 0.0
C4014 C 0.19278 0.44886 0.00059 0.0
C4015 C 0.18227 0.45056 0.01686 0.0
C4016 C 0.18666 0.44124 0.03304 0.0
H4017 H 0.08426 0.50458 0.04165 0.0
H4018 H 0.11218 0.48876 0.04363 0.0
C4019 C 0.20138 0.43048 0.033 0.0
C4020 C 0.16621 0.46137 0.01655 0.0
H4021 H 0.15116 0.50191 0.0378 0.0
C4022 C 0.15017 0.4538 0.00329 0.0
C4023 C 0.16659 0.47892 0.02917 0.0
C4024 C 0.1837 0.48799 0.04336 0.0
C4025 C 0.13439 0.46315 0.00243 0.0
C4026 C 0.13485 0.48088 0.01486 0.0
C4027 C 0.15085 0.48838 0.02823 0.0
C4028 C 0.11885 0.4918 0.01411 0.0
C4029 C 0.11715 0.45366 0.9885 0.0
C4030 C 0.11371 0.49934 0.99706 0.0
C4031 C 0.09777 0.50829 0.99589 0.0
C4032 C 0.08682 0.51011 0.01182 0.0
C4033 C 0.09249 0.50341 0.02916 0.0
C4034 C 0.1084 0.49434 0.03029 0.0
H4035 H 0.11671 0.43751 0.98409 0.0
H4036 H 0.10339 0.45487 0.99488 0.0
H4037 H 0.11808 0.46158 0.97535 0.0
H4038 H 0.12185 0.49799 0.98454 0.0
H4039 H 0.09378 0.51342 0.98238 0.0
H4040 H 0.88003 0.95869 0.21163 0.0
H4041 H 0.85413 0.92908 0.21133 0.0
H4042 H 0.81556 0.96647 0.23085 0.0
H4043 H 0.84185 0.99651 0.23164 0.0
H4044 H 0.81589 0.93676 0.253 0.0
H4045 H 0.80636 0.90342 0.17741 0.0
H4046 H 0.83145 0.90872 0.18567 0.0
H4047 H 0.8191 0.92913 0.18451 0.0
C4048 C 0.86596 0.96076 0.21551 0.0
C4049 C 0.86305 0.97998 0.22179 0.0
C4050 C 0.85105 0.94375 0.21513 0.0
C4051 C 0.83278 0.94552 0.22078 0.0
C4052 C 0.82952 0.96478 0.22627 0.0
H4053 H 0.75002 0.82964 0.22039 0.0
H4054 H 0.76435 0.86392 0.21355 0.0
C4055 C 0.84452 0.98192 0.22666 0.0
C4056 C 0.8182 0.92702 0.22319 0.0
H4057 H 0.79861 0.87972 0.20131 0.0
C4058 C 0.81175 0.92444 0.24158 0.0
C4059 C 0.81249 0.91101 0.20825 0.0
C4060 C 0.81756 0.91332 0.18782 0.0
C4061 C 0.80091 0.90586 0.24575 0.0
C4062 C 0.79687 0.88929 0.23127 0.0
C4063 C 0.8021 0.89228 0.21254 0.0
C4064 C 0.78806 0.8686 0.23549 0.0
C4065 C 0.79417 0.90414 0.26571 0.0
C4066 C 0.79685 0.85968 0.2498 0.0
C4067 C 0.78862 0.8402 0.25382 0.0
C4068 C 0.77163 0.82916 0.24337 0.0
C4069 C 0.76311 0.83786 0.2287 0.0
C4070 C 0.77126 0.85742 0.22479 0.0
H4071 H 0.79247 0.91892 0.27261 0.0
H4072 H 0.78017 0.8931 0.26545 0.0
H4073 H 0.80514 0.89909 0.27479 0.0
H4074 H 0.81014 0.86776 0.25784 0.0
H4075 H 0.79553 0.83382 0.26514 0.0
H4076 H 0.66911 0.0608 0.75231 0.0
H4077 H 0.69465 0.09154 0.75417 0.0
H4078 H 0.65239 0.12757 0.7642 0.0
H4079 H 0.6269 0.09715 0.76249 0.0
H4080 H 0.6973 0.12426 0.7314 0.0
H4081 H 0.69443 0.14876 0.80869 0.0
H4082 H 0.68405 0.12337 0.79801 0.0
H4083 H 0.67109 0.14306 0.79563 0.0
C4084 C 0.66527 0.07527 0.75496 0.0
C4085 C 0.64597 0.07651 0.75734 0.0
C4086 C 0.67987 0.09279 0.75602 0.0
C4087 C 0.67541 0.11176 0.75965 0.0
C4088 C 0.65617 0.11304 0.76178 0.0
H4089 H 0.72344 0.23058 0.73718 0.0
H4090 H 0.70788 0.19507 0.73623 0.0
C4091 C 0.6416 0.09561 0.76069 0.0
C4092 C 0.69063 0.13042 0.76071 0.0
H4093 H 0.70949 0.1741 0.78949 0.0
C4094 C 0.70023 0.13505 0.74418 0.0
C4095 C 0.69467 0.14428 0.77751 0.0
C4096 C 0.68567 0.13956 0.79603 0.0
C4097 C 0.71293 0.15376 0.74366 0.0
C4098 C 0.7158 0.16822 0.76 0.0
C4099 C 0.7071 0.16308 0.77689 0.0
C4100 C 0.72655 0.18924 0.75953 0.0
C4101 C 0.72291 0.15796 0.72553 0.0
C4102 C 0.74206 0.19786 0.77313 0.0
C4103 C 0.7509 0.21827 0.77386 0.0
C4104 C 0.74427 0.23046 0.76106 0.0
C4105 C 0.72896 0.22165 0.74722 0.0
C4106 C 0.72014 0.20128 0.74653 0.0
H4107 H 0.72439 0.14379 0.71716 0.0
H4108 H 0.71414 0.16555 0.71631 0.0
H4109 H 0.7375 0.16793 0.72882 0.0
H4110 H 0.74712 0.18885 0.78339 0.0
H4111 H 0.76268 0.22455 0.78468 0.0
loop_
_geom_bond_atom_site_label_1
_geom_bond_atom_site_label_2
_geom_bond_distance
_geom_bond_site_symmetry_2
_ccdc_geom_bond_type
Zn0 O3 2.022 1_655 S
Zn0 O5 2.049 . S
Zn0 O10 2.067 . S
Zn1 O2 1.962 . S
Zn1 O4 1.986 . S
Zn1 O6 1.996 . S
Zn1 O9 1.943 . S
O2 Zn1 1.962 . S
O2 C7 1.254 . S
O3 Zn0 2.022 1_455 S
O3 C7 1.321 . S
O4 Zn1 1.986 . S
O4 C11 1.262 . S
O5 Zn0 2.049 . S
O5 C13 1.260 1_655 S
O6 Zn1 1.996 . S
O6 C13 1.257 . S
C7 O2 1.254 . S
C7 O3 1.321 . S
C8 O9 1.249 1_655 S
C8 O10 1.270 . S
O9 Zn1 1.943 . S
O9 C8 1.249 1_455 S
O10 Zn0 2.067 . S
O10 C8 1.270 . S
C11 O4 1.262 . S
C11 O12 1.232 . S
O12 C11 1.232 . S
C13 O5 1.260 1_455 S
C13 O6 1.257 . S
Zn14 O17 2.031 1_455 S
Zn14 O19 2.049 . S
Zn14 O24 2.067 . S
Zn15 O16 1.962 1_455 S
Zn15 O18 1.986 . S
Zn15 O20 1.996 . S
Zn15 O23 1.943 . S
O16 Zn15 1.962 1_655 S
O16 C21 1.254 . S
O17 Zn14 2.031 1_655 S
O17 C21 1.269 . S
O18 Zn15 1.986 . S
O18 C25 1.262 . S
O19 Zn14 2.049 . S
O19 C27 1.260 . S
O20 Zn15 1.996 . S
O20 C27 1.257 . S
C21 O16 1.254 . S
C21 O17 1.269 . S
C22 O23 1.249 . S
C22 O24 1.270 . S
O23 Zn15 1.943 . S
O23 C22 1.249 . S
O24 Zn14 2.067 . S
O24 C22 1.270 . S
C25 O18 1.262 . S
C25 O26 1.232 1_455 S
O26 C25 1.232 1_655 S
C27 O19 1.260 . S
C27 O20 1.257 . S
Zn28 O31 2.031 . S
Zn28 O33 2.049 . S
Zn28 O38 2.067 . S
Zn29 O30 1.962 . S
Zn29 O32 1.986 . S
Zn29 O34 1.996 . S
Zn29 O37 1.943 . S
O30 Zn29 1.962 . S
O30 C35 1.254 . S
O31 Zn28 2.031 . S
O31 C35 1.269 . S
O32 Zn29 1.986 . S
O32 C39 1.262 . S
O33 Zn28 2.049 . S
O33 C41 1.260 . S
O34 Zn29 1.996 . S
O34 C41 1.257 . S
C35 O30 1.254 . S
C35 O31 1.269 . S
C36 O37 1.249 . S
C36 O38 1.270 . S
O37 Zn29 1.943 . S
O37 C36 1.249 . S
O38 Zn28 2.067 . S
O38 C36 1.270 . S
C39 O32 1.262 . S
C39 O40 1.232 . S
O40 C39 1.232 . S
C41 O33 1.260 . S
C41 O34 1.257 . S
Zn42 O45 2.031 . S
Zn42 O47 2.049 . S
Zn42 O52 2.067 . S
Zn43 O44 1.962 . S
Zn43 O46 1.986 . S
Zn43 O48 1.996 . S
Zn43 O51 1.943 . S
O44 Zn43 1.962 . S
O44 C49 1.254 . S
O45 Zn42 2.031 . S
O45 C49 1.269 . S
O46 Zn43 1.986 . S
O46 C53 1.262 . S
O47 Zn42 2.049 . S
O47 C55 1.260 . S
O48 Zn43 1.996 . S
O48 C55 1.257 . S
C49 O44 1.254 . S
C49 O45 1.269 . S
C50 O51 1.249 . S
C50 O52 1.270 . S
O51 Zn43 1.943 . S
O51 C50 1.249 . S
O52 Zn42 2.067 . S
O52 C50 1.270 . S
C53 O46 1.262 . S
C53 O54 1.232 . S
O54 C53 1.232 . S
C55 O47 1.260 . S
C55 O48 1.257 . S
Zn56 O59 2.031 . S
Zn56 O61 2.049 . S
Zn56 O66 2.067 . S
Zn57 O58 1.962 . S
Zn57 O60 1.986 1_455 S
Zn57 O62 1.996 . S
Zn57 O65 1.943 . S
O58 Zn57 1.962 . S
O58 C63 1.254 . S
O59 Zn56 2.031 . S
O59 C63 1.269 . S
O60 Zn57 1.986 1_655 S
O60 C67 1.262 . S
O61 Zn56 2.049 . S
O61 C69 1.260 . S
O62 Zn57 1.996 . S
O62 C69 1.257 . S
C63 O58 1.254 . S
C63 O59 1.269 . S
C64 O65 1.249 . S
C64 O66 1.270 . S
O65 Zn57 1.943 . S
O65 C64 1.249 . S
O66 Zn56 2.067 . S
O66 C64 1.270 . S
C67 O60 1.262 . S
C67 O68 1.232 . S
O68 C67 1.232 . S
C69 O61 1.260 . S
C69 O62 1.257 . S
Zn70 O73 2.031 . S
Zn70 O75 2.049 . S
Zn70 O80 2.067 . S
Zn71 O72 1.962 . S
Zn71 O74 1.986 . S
Zn71 O76 1.996 . S
Zn71 O79 1.943 . S
O72 Zn71 1.962 . S
O72 C77 1.254 . S
O73 Zn70 2.031 . S
O73 C77 1.269 . S
O74 Zn71 1.986 . S
O74 C81 1.262 . S
O75 Zn70 2.049 . S
O75 C83 1.260 . S
O76 Zn71 1.996 . S
O76 C83 1.257 . S
C77 O72 1.254 . S
C77 O73 1.269 . S
C78 O79 1.249 . S
C78 O80 1.270 . S
O79 Zn71 1.943 . S
O79 C78 1.249 . S
O80 Zn70 2.067 . S
O80 C78 1.270 . S
C81 O74 1.262 . S
C81 O82 1.232 . S
O82 C81 1.232 . S
C83 O75 1.260 . S
C83 O76 1.257 . S
Zn84 O87 2.031 . S
Zn84 O89 2.049 . S
Zn84 O94 2.067 . S
Zn85 O86 1.962 . S
Zn85 O88 1.986 . S
Zn85 O90 1.996 . S
Zn85 O93 1.943 . S
O86 Zn85 1.962 . S
O86 C91 1.254 . S
O87 Zn84 2.031 . S
O87 C91 1.269 . S
O88 Zn85 1.986 . S
O88 C95 1.262 . S
O89 Zn84 2.049 . S
O89 C97 1.260 . S
O90 Zn85 1.996 . S
O90 C97 1.257 . S
C91 O86 1.254 . S
C91 O87 1.269 . S
C92 O93 1.249 . S
C92 O94 1.270 . S
O93 Zn85 1.943 . S
O93 C92 1.249 . S
O94 Zn84 2.067 . S
O94 C92 1.270 . S
C95 O88 1.262 . S
C95 O96 1.232 . S
O96 C95 1.232 . S
C97 O89 1.260 . S
C97 O90 1.257 . S
Zn98 O101 2.031 . S
Zn98 O103 2.049 . S
Zn98 O108 2.067 . S
Zn99 O100 1.962 . S
Zn99 O102 1.986 . S
Zn99 O104 1.996 . S
Zn99 O107 1.943 1_455 S
O100 Zn99 1.962 . S
O100 C105 1.254 . S
O101 Zn98 2.031 . S
O101 C105 1.269 1_655 S
O102 Zn99 1.986 . S
O102 C109 1.262 . S
O103 Zn98 2.049 . S
O103 C111 1.260 . S
O104 Zn99 1.996 . S
O104 C111 1.257 1_455 S
C105 O100 1.254 . S
C105 O101 1.269 1_455 S
C106 O107 1.249 . S
C106 O108 1.270 . S
O107 Zn99 1.943 1_655 S
O107 C106 1.249 . S
O108 Zn98 2.067 . S
O108 C106 1.270 . S
C109 O102 1.262 . S
C109 O110 1.232 . S
O110 C109 1.232 . S
C111 O103 1.260 . S
C111 O104 1.257 1_655 S
Zn112 O115 2.031 . S
Zn112 O117 2.049 . S
Zn112 O122 2.067 1_545 S
Zn113 O114 1.962 . S
Zn113 O116 1.986 . S
Zn113 O118 1.996 . S
Zn113 O121 1.943 . S
O114 Zn113 1.962 . S
O114 C119 1.254 . S
O115 Zn112 2.031 . S
O115 C119 1.269 . S
O116 Zn113 1.986 . S
O116 C123 1.262 . S
O117 Zn112 2.049 . S
O117 C125 1.260 . S
O118 Zn113 1.996 . S
O118 C125 1.257 . S
C119 O114 1.254 . S
C119 O115 1.269 . S
C120 O121 1.249 1_565 S
C120 O122 1.270 . S
O121 Zn113 1.943 . S
O121 C120 1.249 1_545 S
O122 Zn112 2.067 1_565 S
O122 C120 1.270 . S
C123 O116 1.262 . S
C123 O124 1.232 . S
O124 C123 1.232 . S
C125 O117 1.260 . S
C125 O118 1.257 . S
Zn126 O129 2.031 . S
Zn126 O131 2.049 . S
Zn126 O136 2.067 . S
Zn127 O128 1.962 . S
Zn127 O130 1.986 . S
Zn127 O132 1.996 . S
Zn127 O135 1.943 . S
O128 Zn127 1.962 . S
O128 C133 1.254 . S
O129 Zn126 2.031 . S
O129 C133 1.269 . S
O130 Zn127 1.986 . S
O130 C137 1.262 . S
O131 Zn126 2.049 . S
O131 C139 1.260 . S
O132 Zn127 1.996 . S
O132 C139 1.257 . S
C133 O128 1.254 . S
C133 O129 1.269 . S
C134 O135 1.249 . S
C134 O136 1.270 . S
O135 Zn127 1.943 . S
O135 C134 1.249 . S
O136 Zn126 2.067 . S
O136 C134 1.270 . S
C137 O130 1.262 . S
C137 O138 1.232 . S
O138 C137 1.232 . S
C139 O131 1.260 . S
C139 O132 1.257 . S
Zn140 O143 2.031 . S
Zn140 O145 2.049 . S
Zn140 O150 2.067 . S
Zn141 O142 1.962 . S
Zn141 O144 1.986 . S
Zn141 O146 1.996 . S
Zn141 O149 1.943 1_565 S
O142 Zn141 1.962 . S
O142 C147 1.254 1_565 S
O143 Zn140 2.031 . S
O143 C147 1.269 . S
O144 Zn141 1.986 . S
O144 C151 1.262 . S
O145 Zn140 2.049 . S
O145 C153 1.260 . S
O146 Zn141 1.996 . S
O146 C153 1.257 1_565 S
C147 O142 1.254 1_545 S
C147 O143 1.269 . S
C148 O149 1.249 . S
C148 O150 1.270 . S
O149 Zn141 1.943 1_545 S
O149 C148 1.249 . S
O150 Zn140 2.067 . S
O150 C148 1.270 . S
C151 O144 1.262 . S
C151 O152 1.232 . S
O152 C151 1.232 . S
C153 O145 1.260 . S
C153 O146 1.257 1_545 S
Zn154 O157 2.031 . S
Zn154 O159 2.049 . S
Zn154 O164 2.067 . S
Zn155 O156 1.995 . S
Zn155 O158 1.986 . S
Zn155 O160 1.996 . S
Zn155 O163 1.943 . S
O156 Zn155 1.995 . S
O156 C161 1.236 1_554 S
O157 Zn154 2.031 . S
O157 C161 1.269 1_554 S
O158 Zn155 1.986 . S
O158 C165 1.262 . S
O159 Zn154 2.049 . S
O159 C167 1.260 . S
O160 Zn155 1.996 . S
O160 C167 1.257 . S
C161 O156 1.236 1_556 S
C161 O157 1.269 1_556 S
C162 O163 1.249 . S
C162 O164 1.270 . S
O163 Zn155 1.943 . S
O163 C162 1.249 . S
O164 Zn154 2.067 . S
O164 C162 1.270 . S
C165 O158 1.262 . S
C165 O166 1.232 . S
O166 C165 1.232 . S
C167 O159 1.260 . S
C167 O160 1.257 . S
Zn168 O171 2.031 1_554 S
Zn168 O173 2.049 . S
Zn168 O178 2.067 . S
Zn169 O170 1.962 1_554 S
Zn169 O172 1.986 . S
Zn169 O174 1.996 . S
Zn169 O177 1.943 . S
O170 Zn169 1.962 1_556 S
O170 C175 1.254 . S
O171 Zn168 2.031 1_556 S
O171 C175 1.269 . S
O172 Zn169 1.986 . S
O172 C179 1.262 . S
O173 Zn168 2.049 . S
O173 C181 1.260 . S
O174 Zn169 1.996 . S
O174 C181 1.257 . S
C175 O170 1.254 . S
C175 O171 1.269 . S
C176 O177 1.249 . S
C176 O178 1.270 . S
O177 Zn169 1.943 . S
O177 C176 1.249 . S
O178 Zn168 2.067 . S
O178 C176 1.270 . S
C179 O172 1.262 . S
C179 O180 1.232 1_554 S
O180 C179 1.232 1_556 S
C181 O173 1.260 . S
C181 O174 1.257 . S
Zn182 O185 2.031 1_554 S
Zn182 O187 2.049 . S
Zn182 O192 2.067 . S
Zn183 O184 1.964 1_554 S
Zn183 O186 1.984 . S
Zn183 O188 1.994 . S
Zn183 O191 1.943 1_554 S
O184 Zn183 1.964 1_556 S
O184 C189 1.254 . S
O185 Zn182 2.031 1_556 S
O185 C189 1.269 . S
O186 Zn183 1.984 . S
O186 C193 1.262 1_554 S
O187 Zn182 2.049 . S
O187 C195 1.260 . S
O188 Zn183 1.994 . S
O188 C195 1.257 . S
C189 O184 1.254 . S
C189 O185 1.269 . S
C190 O191 1.249 . S
C190 O192 1.269 1_556 S
O191 Zn183 1.943 1_556 S
O191 C190 1.249 . S
O192 Zn182 2.067 . S
O192 C190 1.269 1_554 S
C193 O186 1.262 1_556 S
C193 O194 1.232 . S
O194 C193 1.232 . S
C195 O187 1.260 . S
C195 O188 1.257 . S
Zn196 O199 2.031 . S
Zn196 O201 2.049 . S
Zn196 O206 2.067 . S
Zn197 O198 1.962 . S
Zn197 O200 1.986 . S
Zn197 O202 1.996 . S
Zn197 O205 1.943 . S
O198 Zn197 1.962 . S
O198 C203 1.254 . S
O199 Zn196 2.031 . S
O199 C203 1.269 . S
O200 Zn197 1.986 . S
O200 C207 1.262 . S
O201 Zn196 2.049 . S
O201 C209 1.260 . S
O202 Zn197 1.996 . S
O202 C209 1.257 . S
C203 O198 1.254 . S
C203 O199 1.269 . S
C204 O205 1.249 . S
C204 O206 1.270 . S
O205 Zn197 1.943 . S
O205 C204 1.249 . S
O206 Zn196 2.067 . S
O206 C204 1.270 . S
C207 O200 1.262 . S
C207 O208 1.232 . S
O208 C207 1.232 . S
C209 O201 1.260 . S
C209 O202 1.257 . S
Zn210 O213 2.031 . S
Zn210 O215 2.049 . S
Zn210 O220 2.067 . S
Zn211 O212 1.962 . S
Zn211 O214 1.986 . S
Zn211 O216 1.996 . S
Zn211 O219 1.943 . S
O212 Zn211 1.962 . S
O212 C217 1.254 . S
O213 Zn210 2.031 . S
O213 C217 1.269 . S
O214 Zn211 1.986 . S
O214 C221 1.262 . S
O215 Zn210 2.049 . S
O215 C223 1.260 . S
O216 Zn211 1.996 . S
O216 C223 1.257 . S
C217 O212 1.254 . S
C217 O213 1.269 . S
C218 O219 1.249 . S
C218 O220 1.270 . S
O219 Zn211 1.943 . S
O219 C218 1.249 . S
O220 Zn210 2.067 . S
O220 C218 1.270 . S
C221 O214 1.262 . S
C221 O222 1.232 . S
O222 C221 1.232 . S
C223 O215 1.260 . S
C223 O216 1.257 . S
Zn224 O227 2.031 . S
Zn224 O229 2.049 . S
Zn224 O234 2.067 . S
Zn225 O226 1.962 . S
Zn225 O228 1.986 . S
Zn225 O230 1.996 . S
Zn225 O233 1.943 . S
O226 Zn225 1.962 . S
O226 C231 1.254 . S
O227 Zn224 2.031 . S
O227 C231 1.269 . S
O228 Zn225 1.986 . S
O228 C235 1.262 . S
O229 Zn224 2.049 . S
O229 C237 1.260 . S
O230 Zn225 1.996 . S
O230 C237 1.257 . S
C231 O226 1.254 . S
C231 O227 1.269 . S
C232 O233 1.249 . S
C232 O234 1.270 . S
O233 Zn225 1.943 . S
O233 C232 1.249 . S
O234 Zn224 2.067 . S
O234 C232 1.270 . S
C235 O228 1.262 . S
C235 O236 1.232 . S
O236 C235 1.232 . S
C237 O229 1.260 . S
C237 O230 1.257 . S
Zn238 O241 2.031 . S
Zn238 O243 2.049 . S
Zn238 O248 2.067 . S
Zn239 O240 1.962 . S
Zn239 O242 1.986 . S
Zn239 O244 1.996 . S
Zn239 O247 1.943 . S
O240 Zn239 1.962 . S
O240 C245 1.254 . S
O241 Zn238 2.031 . S
O241 C245 1.269 . S
O242 Zn239 1.986 . S
O242 C249 1.262 . S
O243 Zn238 2.049 . S
O243 C251 1.260 . S
O244 Zn239 1.996 . S
O244 C251 1.257 . S
C245 O240 1.254 . S
C245 O241 1.269 . S
C246 O247 1.249 . S
C246 O248 1.270 . S
O247 Zn239 1.943 . S
O247 C246 1.249 . S
O248 Zn238 2.067 . S
O248 C246 1.270 . S
C249 O242 1.262 . S
C249 O250 1.232 . S
O250 C249 1.232 . S
C251 O243 1.260 . S
C251 O244 1.257 . S
Zn252 O255 2.031 . S
Zn252 O257 2.049 . S
Zn252 O262 2.067 . S
Zn253 O254 1.962 . S
Zn253 O256 1.986 . S
Zn253 O258 1.996 . S
Zn253 O261 1.943 . S
O254 Zn253 1.962 . S
O254 C259 1.254 . S
O255 Zn252 2.031 . S
O255 C259 1.269 . S
O256 Zn253 1.986 . S
O256 C263 1.262 . S
O257 Zn252 2.049 . S
O257 C265 1.260 . S
O258 Zn253 1.996 . S
O258 C265 1.257 . S
C259 O254 1.254 . S
C259 O255 1.269 . S
C260 O261 1.249 . S
C260 O262 1.270 . S
O261 Zn253 1.943 . S
O261 C260 1.249 . S
O262 Zn252 2.067 . S
O262 C260 1.270 . S
C263 O256 1.262 . S
C263 O264 1.232 . S
O264 C263 1.232 . S
C265 O257 1.260 . S
C265 O258 1.257 . S
Zn266 O269 2.031 . S
Zn266 O271 2.049 . S
Zn266 O276 2.067 . S
Zn267 O268 1.962 . S
Zn267 O270 1.986 1_545 S
Zn267 O272 1.996 . S
Zn267 O275 1.943 . S
O268 Zn267 1.962 . S
O268 C273 1.254 . S
O269 Zn266 2.031 . S
O269 C273 1.269 . S
O270 Zn267 1.986 1_565 S
O270 C277 1.262 . S
O271 Zn266 2.049 . S
O271 C279 1.260 . S
O272 Zn267 1.996 . S
O272 C279 1.257 . S
C273 O268 1.254 . S
C273 O269 1.269 . S
C274 O275 1.249 . S
C274 O276 1.270 . S
O275 Zn267 1.943 . S
O275 C274 1.249 . S
O276 Zn266 2.067 . S
O276 C274 1.270 . S
C277 O270 1.262 . S
C277 O278 1.232 1_565 S
O278 C277 1.232 1_545 S
C279 O271 1.260 . S
C279 O272 1.257 . S
Zn280 O283 2.031 1_554 S
Zn280 O285 2.049 . S
Zn280 O290 2.067 . S
Zn281 O282 1.962 1_554 S
Zn281 O284 1.986 . S
Zn281 O286 1.996 . S
Zn281 O289 1.943 . S
O282 Zn281 1.962 1_556 S
O282 C287 1.254 . S
O283 Zn280 2.031 1_556 S
O283 C287 1.269 . S
O284 Zn281 1.986 . S
O284 C291 1.262 . S
O285 Zn280 2.049 . S
O285 C293 1.260 . S
O286 Zn281 1.996 . S
O286 C293 1.257 . S
C287 O282 1.254 . S
C287 O283 1.269 . S
C288 O289 1.249 . S
C288 O290 1.270 . S
O289 Zn281 1.943 . S
O289 C288 1.249 . S
O290 Zn280 2.067 . S
O290 C288 1.270 . S
C291 O284 1.262 . S
C291 O292 1.232 1_554 S
O292 C291 1.232 1_556 S
C293 O285 1.260 . S
C293 O286 1.257 . S
Zn294 O297 2.031 . S
Zn294 O299 2.049 . S
Zn294 O304 2.067 . S
Zn295 O296 1.962 . S
Zn295 O298 1.986 . S
Zn295 O300 1.996 . S
Zn295 O303 1.943 . S
O296 Zn295 1.962 . S
O296 C301 1.254 . S
O297 Zn294 2.031 . S
O297 C301 1.269 . S
O298 Zn295 1.986 . S
O298 C305 1.262 . S
O299 Zn294 2.049 . S
O299 C307 1.260 . S
O300 Zn295 1.996 . S
O300 C307 1.257 . S
C301 O296 1.254 . S
C301 O297 1.269 . S
C302 O303 1.249 . S
C302 O304 1.270 . S
O303 Zn295 1.943 . S
O303 C302 1.249 . S
O304 Zn294 2.067 . S
O304 C302 1.270 . S
C305 O298 1.262 . S
C305 O306 1.232 . S
O306 C305 1.232 . S
C307 O299 1.260 . S
C307 O300 1.257 . S
Zn308 O311 2.031 . S
Zn308 O313 2.049 . S
Zn308 O318 2.067 . S
Zn309 O310 1.962 . S
Zn309 O312 1.986 . S
Zn309 O314 1.996 . S
Zn309 O317 1.943 . S
O310 Zn309 1.962 . S
O310 C315 1.254 . S
O311 Zn308 2.031 . S
O311 C315 1.269 . S
O312 Zn309 1.986 . S
O312 C319 1.262 . S
O313 Zn308 2.049 . S
O313 C321 1.260 . S
O314 Zn309 1.996 . S
O314 C321 1.257 . S
C315 O310 1.254 . S
C315 O311 1.269 . S
C316 O317 1.249 . S
C316 O318 1.270 . S
O317 Zn309 1.943 . S
O317 C316 1.249 . S
O318 Zn308 2.067 . S
O318 C316 1.270 . S
C319 O312 1.262 . S
C319 O320 1.232 . S
O320 C319 1.232 . S
C321 O313 1.260 . S
C321 O314 1.257 . S
Zn322 O325 2.031 . S
Zn322 O327 2.049 . S
Zn322 O332 2.067 . S
Zn323 O324 1.962 . S
Zn323 O326 1.986 . S
Zn323 O328 1.996 . S
Zn323 O331 1.943 . S
O324 Zn323 1.962 . S
O324 C329 1.254 . S
O325 Zn322 2.031 . S
O325 C329 1.269 . S
O326 Zn323 1.986 . S
O326 C333 1.262 . S
O327 Zn322 2.049 . S
O327 C335 1.260 . S
O328 Zn323 1.996 . S
O328 C335 1.257 . S
C329 O324 1.254 . S
C329 O325 1.269 . S
C330 O331 1.249 . S
C330 O332 1.270 . S
O331 Zn323 1.943 . S
O331 C330 1.249 . S
O332 Zn322 2.067 . S
O332 C330 1.270 . S
C333 O326 1.262 . S
C333 O334 1.232 . S
O334 C333 1.232 . S
C335 O327 1.260 . S
C335 O328 1.257 . S
Dy336 O340 2.398 1_554 S
Dy336 O341 2.491 . S
Dy336 O342 2.403 1_654 S
Dy336 O343 2.664 1_654 S
Dy336 O347 2.326 1_654 S
Dy336 O351 2.310 1_655 S
Dy336 O352 2.353 1_545 S
C337 O348 1.185 . S
C337 O349 1.355 . S
C338 O340 1.185 . S
C338 O341 1.355 1_556 S
Dy339 O343 2.310 1_554 S
Dy339 O346 2.351 . S
Dy339 O348 2.398 . S
Dy339 O349 2.491 . S
Dy339 O350 2.403 . S
Dy339 O351 2.664 . S
Dy339 O353 2.326 . S
O340 Dy336 2.398 1_556 S
O340 C338 1.185 . S
O341 Dy336 2.491 . S
O341 C338 1.355 1_554 S
O342 Dy336 2.403 1_456 S
O342 C344 1.254 . S
O343 Dy336 2.664 1_456 S
O343 Dy339 2.310 1_556 S
O343 C344 1.268 . S
C344 O342 1.254 . S
C344 O343 1.268 . S
C345 O350 1.254 . S
C345 O351 1.268 . S
O346 Dy339 2.351 . S
O346 C354 1.249 . S
O347 Dy336 2.326 1_456 S
O347 C354 1.267 1_556 S
O348 C337 1.185 . S
O348 Dy339 2.398 . S
O349 C337 1.355 . S
O349 Dy339 2.491 . S
O350 Dy339 2.403 . S
O350 C345 1.254 . S
O351 Dy336 2.310 1_455 S
O351 Dy339 2.664 . S
O351 C345 1.268 . S
O352 Dy336 2.353 1_565 S
O352 C355 1.246 1_655 S
O353 Dy339 2.326 . S
O353 C355 1.267 1_545 S
C354 O346 1.249 . S
C354 O347 1.267 1_554 S
C355 O352 1.246 1_455 S
C355 O353 1.267 1_565 S
Dy356 O360 2.398 . S
Dy356 O361 2.491 . S
Dy356 O362 2.403 . S
Dy356 O363 2.664 . S
Dy356 O367 2.326 . S
Dy356 O371 2.310 . S
Dy356 O372 2.351 . S
C357 O368 1.185 . S
C357 O369 1.355 . S
C358 O360 1.185 . S
C358 O361 1.355 . S
Dy359 O363 2.310 . S
Dy359 O366 2.351 . S
Dy359 O368 2.398 . S
Dy359 O369 2.491 . S
Dy359 O370 2.403 . S
Dy359 O371 2.664 . S
Dy359 O373 2.326 . S
O360 Dy356 2.398 . S
O360 C358 1.185 . S
O361 Dy356 2.491 . S
O361 C358 1.355 . S
O362 Dy356 2.403 . S
O362 C364 1.254 . S
O363 Dy356 2.664 . S
O363 Dy359 2.310 . S
O363 C364 1.268 . S
C364 O362 1.254 . S
C364 O363 1.268 . S
C365 O370 1.254 . S
C365 O371 1.268 . S
O366 Dy359 2.351 . S
O366 C374 1.249 . S
O367 Dy356 2.326 . S
O367 C374 1.267 . S
O368 C357 1.185 . S
O368 Dy359 2.398 . S
O369 C357 1.355 . S
O369 Dy359 2.491 . S
O370 Dy359 2.403 . S
O370 C365 1.254 . S
O371 Dy356 2.310 . S
O371 Dy359 2.664 . S
O371 C365 1.268 . S
O372 Dy356 2.351 . S
O372 C375 1.249 . S
O373 Dy359 2.326 . S
O373 C375 1.267 . S
C374 O366 1.249 . S
C374 O367 1.267 . S
C375 O372 1.249 . S
C375 O373 1.267 . S
Dy376 O380 2.398 . S
Dy376 O381 2.491 . S
Dy376 O382 2.403 . S
Dy376 O383 2.664 . S
Dy376 O387 2.326 1_545 S
Dy376 O391 2.310 . S
Dy376 O392 2.351 . S
C377 O388 1.185 . S
C377 O389 1.355 . S
C378 O380 1.228 . S
C378 O381 1.358 . S
Dy379 O383 2.310 . S
Dy379 O386 2.351 1_545 S
Dy379 O388 2.398 . S
Dy379 O389 2.491 . S
Dy379 O390 2.403 . S
Dy379 O391 2.664 . S
Dy379 O393 2.326 . S
O380 Dy376 2.398 . S
O380 C378 1.228 . S
O381 Dy376 2.491 . S
O381 C378 1.358 . S
O382 Dy376 2.403 . S
O382 C384 1.254 . S
O383 Dy376 2.664 . S
O383 Dy379 2.310 . S
O383 C384 1.268 . S
C384 O382 1.254 . S
C384 O383 1.268 . S
C385 O390 1.254 . S
C385 O391 1.268 . S
O386 Dy379 2.351 1_565 S
O386 C394 1.249 . S
O387 Dy376 2.326 1_565 S
O387 C394 1.267 . S
O388 C377 1.185 . S
O388 Dy379 2.398 . S
O389 C377 1.355 . S
O389 Dy379 2.491 . S
O390 Dy379 2.403 . S
O390 C385 1.254 . S
O391 Dy376 2.310 . S
O391 Dy379 2.664 . S
O391 C385 1.268 . S
O392 Dy376 2.351 . S
O392 C395 1.249 . S
O393 Dy379 2.326 . S
O393 C395 1.267 . S
C394 O386 1.249 . S
C394 O387 1.267 . S
C395 O392 1.249 . S
C395 O393 1.267 . S
Dy396 O400 2.398 . S
Dy396 O401 2.491 . S
Dy396 O402 2.403 . S
Dy396 O403 2.664 . S
Dy396 O407 2.326 . S
Dy396 O411 2.310 . S
Dy396 O412 2.351 . S
C397 O408 1.185 . S
C397 O409 1.355 . S
C398 O400 1.185 . S
C398 O401 1.355 . S
Dy399 O403 2.310 . S
Dy399 O406 2.351 . S
Dy399 O408 2.398 . S
Dy399 O409 2.491 . S
Dy399 O410 2.403 . S
Dy399 O411 2.664 . S
Dy399 O413 2.326 . S
O400 Dy396 2.398 . S
O400 C398 1.185 . S
O401 Dy396 2.491 . S
O401 C398 1.355 . S
O402 Dy396 2.403 . S
O402 C404 1.254 . S
O403 Dy396 2.664 . S
O403 Dy399 2.310 . S
O403 C404 1.268 . S
C404 O402 1.254 . S
C404 O403 1.268 . S
C405 O410 1.254 . S
C405 O411 1.268 . S
O406 Dy399 2.351 . S
O406 C414 1.249 . S
O407 Dy396 2.326 . S
O407 C414 1.267 . S
O408 C397 1.185 . S
O408 Dy399 2.398 . S
O409 C397 1.355 . S
O409 Dy399 2.491 . S
O410 Dy399 2.403 . S
O410 C405 1.254 . S
O411 Dy396 2.310 . S
O411 Dy399 2.664 . S
O411 C405 1.268 . S
O412 Dy396 2.351 . S
O412 C415 1.249 . S
O413 Dy399 2.326 . S
O413 C415 1.267 . S
C414 O406 1.249 . S
C414 O407 1.267 . S
C415 O412 1.249 . S
C415 O413 1.267 . S
Dy416 O420 2.398 . S
Dy416 O421 2.491 1_455 S
Dy416 O422 2.403 . S
Dy416 O423 2.664 . S
Dy416 O427 2.326 . S
Dy416 O431 2.310 1_455 S
Dy416 O432 2.351 1_545 S
C417 O428 1.185 . S
C417 O429 1.355 . S
C418 O420 1.133 1_655 S
C418 O421 1.391 . S
Dy419 O423 2.310 . S
Dy419 O426 2.351 . S
Dy419 O428 2.398 . S
Dy419 O429 2.491 . S
Dy419 O430 2.403 1_455 S
Dy419 O431 2.664 1_455 S
Dy419 O433 2.326 . S
O420 Dy416 2.398 . S
O420 C418 1.133 1_455 S
O421 Dy416 2.491 1_655 S
O421 C418 1.391 . S
O422 Dy416 2.403 . S
O422 C424 1.254 . S
O423 Dy416 2.664 . S
O423 Dy419 2.310 . S
O423 C424 1.268 . S
C424 O422 1.254 . S
C424 O423 1.268 . S
C425 O430 1.254 . S
C425 O431 1.268 . S
O426 Dy419 2.351 . S
O426 C434 1.249 . S
O427 Dy416 2.326 . S
O427 C434 1.267 . S
O428 C417 1.185 . S
O428 Dy419 2.398 . S
O429 C417 1.355 . S
O429 Dy419 2.491 . S
O430 Dy419 2.403 1_655 S
O430 C425 1.254 . S
O431 Dy416 2.310 1_655 S
O431 Dy419 2.664 1_655 S
O431 C425 1.268 . S
O432 Dy416 2.351 1_565 S
O432 C435 1.249 . S
O433 Dy419 2.326 . S
O433 C435 1.267 1_545 S
C434 O426 1.249 . S
C434 O427 1.267 . S
C435 O432 1.249 . S
C435 O433 1.267 1_565 S
Dy436 O440 2.398 . S
Dy436 O441 2.491 . S
Dy436 O442 2.403 . S
Dy436 O443 2.664 . S
Dy436 O447 2.326 . S
Dy436 O451 2.310 . S
Dy436 O452 2.351 . S
C437 O448 1.185 . S
C437 O449 1.355 . S
C438 O440 1.185 . S
C438 O441 1.355 . S
Dy439 O443 2.310 . S
Dy439 O446 2.351 . S
Dy439 O448 2.398 . S
Dy439 O449 2.491 . S
Dy439 O450 2.403 . S
Dy439 O451 2.664 . S
Dy439 O453 2.326 . S
O440 Dy436 2.398 . S
O440 C438 1.185 . S
O441 Dy436 2.491 . S
O441 C438 1.355 . S
O442 Dy436 2.403 . S
O442 C444 1.254 . S
O443 Dy436 2.664 . S
O443 Dy439 2.310 . S
O443 C444 1.268 . S
C444 O442 1.254 . S
C444 O443 1.268 . S
C445 O450 1.254 . S
C445 O451 1.268 . S
O446 Dy439 2.351 . S
O446 C454 1.249 . S
O447 Dy436 2.326 . S
O447 C454 1.267 . S
O448 C437 1.185 . S
O448 Dy439 2.398 . S
O449 C437 1.355 . S
O449 Dy439 2.491 . S
O450 Dy439 2.403 . S
O450 C445 1.254 . S
O451 Dy436 2.310 . S
O451 Dy439 2.664 . S
O451 C445 1.268 . S
O452 Dy436 2.351 . S
O452 C455 1.249 . S
O453 Dy439 2.326 . S
O453 C455 1.267 . S
C454 O446 1.249 . S
C454 O447 1.267 . S
C455 O452 1.249 . S
C455 O453 1.267 . S
Dy456 O460 2.398 . S
Dy456 O461 2.491 . S
Dy456 O462 2.403 1_545 S
Dy456 O463 2.664 1_554 S
Dy456 O467 2.326 . S
Dy456 O471 2.310 . S
Dy456 O472 2.351 . S
C457 O468 1.185 . S
C457 O469 1.355 . S
C458 O460 1.185 . S
C458 O461 1.355 . S
Dy459 O463 2.310 . S
Dy459 O466 2.351 . S
Dy459 O468 2.398 . S
Dy459 O469 2.491 . S
Dy459 O470 2.403 . S
Dy459 O471 2.664 1_556 S
Dy459 O473 2.326 . S
O460 Dy456 2.398 . S
O460 C458 1.185 . S
O461 Dy456 2.491 . S
O461 C458 1.355 . S
O462 Dy456 2.403 1_565 S
O462 C464 1.316 . S
O463 Dy456 2.664 1_556 S
O463 Dy459 2.310 . S
O463 C464 1.246 1_546 S
C464 O462 1.316 . S
C464 O463 1.246 1_564 S
C465 O470 1.254 1_554 S
C465 O471 1.268 . S
O466 Dy459 2.351 . S
O466 C474 1.249 1_556 S
O467 Dy456 2.326 . S
O467 C474 1.267 . S
O468 C457 1.185 . S
O468 Dy459 2.398 . S
O469 C457 1.355 . S
O469 Dy459 2.491 . S
O470 Dy459 2.403 . S
O470 C465 1.254 1_556 S
O471 Dy456 2.310 . S
O471 Dy459 2.664 1_554 S
O471 C465 1.268 . S
O472 Dy456 2.351 . S
O472 C475 1.249 . S
O473 Dy459 2.326 . S
O473 C475 1.267 1_556 S
C474 O466 1.249 1_554 S
C474 O467 1.267 . S
C475 O472 1.249 . S
C475 O473 1.267 1_554 S
Dy476 O480 2.398 . S
Dy476 O481 2.491 . S
Dy476 O482 2.403 . S
Dy476 O483 2.664 . S
Dy476 O487 2.326 . S
Dy476 O491 2.310 . S
Dy476 O492 2.351 . S
C477 O488 1.185 . S
C477 O489 1.355 . S
C478 O480 1.185 . S
C478 O481 1.355 . S
Dy479 O483 2.310 . S
Dy479 O486 2.351 . S
Dy479 O488 2.398 . S
Dy479 O489 2.491 . S
Dy479 O490 2.403 . S
Dy479 O491 2.664 . S
Dy479 O493 2.326 . S
O480 Dy476 2.398 . S
O480 C478 1.185 . S
O481 Dy476 2.491 . S
O481 C478 1.355 . S
O482 Dy476 2.403 . S
O482 C484 1.254 . S
O483 Dy476 2.664 . S
O483 Dy479 2.310 . S
O483 C484 1.268 . S
C484 O482 1.254 . S
C484 O483 1.268 . S
C485 O490 1.254 . S
C485 O491 1.268 . S
O486 Dy479 2.351 . S
O486 C494 1.249 . S
O487 Dy476 2.326 . S
O487 C494 1.267 . S
O488 C477 1.185 . S
O488 Dy479 2.398 . S
O489 C477 1.355 . S
O489 Dy479 2.491 . S
O490 Dy479 2.403 . S
O490 C485 1.254 . S
O491 Dy476 2.310 . S
O491 Dy479 2.664 . S
O491 C485 1.268 . S
O492 Dy476 2.351 . S
O492 C495 1.249 . S
O493 Dy479 2.326 . S
O493 C495 1.267 . S
C494 O486 1.249 . S
C494 O487 1.267 . S
C495 O492 1.249 . S
C495 O493 1.267 . S
Dy496 O500 2.398 . S
Dy496 O501 2.491 . S
Dy496 O502 2.403 . S
Dy496 O503 2.664 1_556 S
Dy496 O507 2.326 . S
Dy496 O511 2.310 1_556 S
Dy496 O512 2.351 1_556 S
C497 O508 1.185 . S
C497 O509 1.355 . S
C498 O500 1.185 . S
C498 O501 1.355 . S
Dy499 O503 2.310 . S
Dy499 O506 2.351 . S
Dy499 O508 2.398 . S
Dy499 O509 2.491 . S
Dy499 O510 2.403 . S
Dy499 O511 2.664 . S
Dy499 O513 2.326 . S
O500 Dy496 2.398 . S
O500 C498 1.185 . S
O501 Dy496 2.491 . S
O501 C498 1.355 . S
O502 Dy496 2.403 . S
O502 C504 1.268 . S
O503 Dy496 2.664 1_554 S
O503 Dy499 2.310 . S
O503 C504 1.258 1_554 S
C504 O502 1.268 . S
C504 O503 1.258 1_556 S
C505 O510 1.254 . S
C505 O511 1.268 . S
O506 Dy499 2.351 . S
O506 C514 1.249 1_554 S
O507 Dy496 2.326 . S
O507 C514 1.267 . S
O508 C497 1.185 . S
O508 Dy499 2.398 . S
O509 C497 1.355 . S
O509 Dy499 2.491 . S
O510 Dy499 2.403 . S
O510 C505 1.254 . S
O511 Dy496 2.310 1_554 S
O511 Dy499 2.664 . S
O511 C505 1.268 . S
O512 Dy496 2.351 1_554 S
O512 C515 1.249 . S
O513 Dy499 2.326 . S
O513 C515 1.267 . S
C514 O506 1.249 1_556 S
C514 O507 1.267 . S
C515 O512 1.249 . S
C515 O513 1.267 . S
Dy516 O520 2.398 . S
Dy516 O521 2.491 . S
Dy516 O522 2.403 . S
Dy516 O523 2.664 . S
Dy516 O527 2.326 . S
Dy516 O531 2.310 . S
Dy516 O532 2.351 . S
C517 O528 1.185 . S
C517 O529 1.355 . S
C518 O520 1.185 . S
C518 O521 1.355 . S
Dy519 O523 2.310 . S
Dy519 O526 2.351 . S
Dy519 O528 2.398 . S
Dy519 O529 2.491 . S
Dy519 O530 2.403 . S
Dy519 O531 2.664 . S
Dy519 O533 2.326 . S
O520 Dy516 2.398 . S
O520 C518 1.185 . S
O521 Dy516 2.491 . S
O521 C518 1.355 . S
O522 Dy516 2.403 . S
O522 C524 1.254 . S
O523 Dy516 2.664 . S
O523 Dy519 2.310 . S
O523 C524 1.268 . S
C524 O522 1.254 . S
C524 O523 1.268 . S
C525 O530 1.254 . S
C525 O531 1.268 . S
O526 Dy519 2.351 . S
O526 C534 1.249 . S
O527 Dy516 2.326 . S
O527 C534 1.267 . S
O528 C517 1.185 . S
O528 Dy519 2.398 . S
O529 C517 1.355 . S
O529 Dy519 2.491 . S
O530 Dy519 2.403 . S
O530 C525 1.254 . S
O531 Dy516 2.310 . S
O531 Dy519 2.664 . S
O531 C525 1.268 . S
O532 Dy516 2.351 . S
O532 C535 1.249 . S
O533 Dy519 2.326 . S
O533 C535 1.267 . S
C534 O526 1.249 . S
C534 O527 1.267 . S
C535 O532 1.249 . S
C535 O533 1.267 . S
Dy536 O540 2.398 1_455 S
Dy536 O541 2.491 1_455 S
Dy536 O542 2.403 . S
Dy536 O543 2.664 . S
Dy536 O547 2.326 1_455 S
Dy536 O551 2.310 . S
Dy536 O552 2.351 . S
C537 O548 1.185 . S
C537 O549 1.355 . S
C538 O540 1.185 . S
C538 O541 1.355 . S
Dy539 O543 2.310 . S
Dy539 O546 2.351 1_455 S
Dy539 O548 2.398 . S
Dy539 O549 2.491 . S
Dy539 O550 2.403 . S
Dy539 O551 2.664 . S
Dy539 O553 2.326 . S
O540 Dy536 2.398 1_655 S
O540 C538 1.185 . S
O541 Dy536 2.491 1_655 S
O541 C538 1.355 . S
O542 Dy536 2.403 . S
O542 C544 1.254 . S
O543 Dy536 2.664 . S
O543 Dy539 2.310 . S
O543 C544 1.268 . S
C544 O542 1.254 . S
C544 O543 1.268 . S
C545 O550 1.254 . S
C545 O551 1.268 . S
O546 Dy539 2.351 1_655 S
O546 C554 1.249 . S
O547 Dy536 2.326 1_655 S
O547 C554 1.267 . S
O548 C537 1.185 . S
O548 Dy539 2.398 . S
O549 C537 1.355 . S
O549 Dy539 2.491 . S
O550 Dy539 2.403 . S
O550 C545 1.254 . S
O551 Dy536 2.310 . S
O551 Dy539 2.664 . S
O551 C545 1.268 . S
O552 Dy536 2.351 . S
O552 C555 1.249 . S
O553 Dy539 2.326 . S
O553 C555 1.267 . S
C554 O546 1.249 . S
C554 O547 1.267 . S
C555 O552 1.249 . S
C555 O553 1.267 . S
Dy556 O560 2.398 . S
Dy556 O561 2.491 . S
Dy556 O562 2.403 . S
Dy556 O563 2.664 . S
Dy556 O567 2.326 . S
Dy556 O571 2.310 . S
Dy556 O572 2.351 . S
C557 O568 1.185 . S
C557 O569 1.355 . S
C558 O560 1.185 . S
C558 O561 1.355 . S
Dy559 O563 2.310 . S
Dy559 O566 2.351 . S
Dy559 O568 2.398 . S
Dy559 O569 2.491 . S
Dy559 O570 2.403 . S
Dy559 O571 2.664 . S
Dy559 O573 2.326 . S
O560 Dy556 2.398 . S
O560 C558 1.185 . S
O561 Dy556 2.491 . S
O561 C558 1.355 . S
O562 Dy556 2.403 . S
O562 C564 1.254 . S
O563 Dy556 2.664 . S
O563 Dy559 2.310 . S
O563 C564 1.268 . S
C564 O562 1.254 . S
C564 O563 1.268 . S
C565 O570 1.254 . S
C565 O571 1.268 . S
O566 Dy559 2.351 . S
O566 C574 1.249 . S
O567 Dy556 2.326 . S
O567 C574 1.267 . S
O568 C557 1.185 . S
O568 Dy559 2.398 . S
O569 C557 1.355 . S
O569 Dy559 2.491 . S
O570 Dy559 2.403 . S
O570 C565 1.254 . S
O571 Dy556 2.310 . S
O571 Dy559 2.664 . S
O571 C565 1.268 . S
O572 Dy556 2.351 . S
O572 C575 1.249 . S
O573 Dy559 2.326 . S
O573 C575 1.267 . S
C574 O566 1.249 . S
C574 O567 1.267 . S
C575 O572 1.249 . S
C575 O573 1.267 . S
Dy576 O580 2.398 . S
Dy576 O581 2.491 . S
Dy576 O582 2.403 . S
Dy576 O583 2.664 . S
Dy576 O587 2.326 . S
Dy576 O591 2.310 . S
Dy576 O592 2.351 . S
C577 O588 1.185 . S
C577 O589 1.355 . S
C578 O580 1.185 . S
C578 O581 1.355 . S
Dy579 O583 2.310 . S
Dy579 O586 2.351 . S
Dy579 O588 2.398 . S
Dy579 O589 2.491 . S
Dy579 O590 2.403 . S
Dy579 O591 2.664 . S
Dy579 O593 2.326 . S
O580 Dy576 2.398 . S
O580 C578 1.185 . S
O581 Dy576 2.491 . S
O581 C578 1.355 . S
O582 Dy576 2.403 . S
O582 C584 1.254 . S
O583 Dy576 2.664 . S
O583 Dy579 2.310 . S
O583 C584 1.268 . S
C584 O582 1.254 . S
C584 O583 1.268 . S
C585 O590 1.254 . S
C585 O591 1.268 . S
O586 Dy579 2.351 . S
O586 C594 1.249 . S
O587 Dy576 2.326 . S
O587 C594 1.267 . S
O588 C577 1.185 . S
O588 Dy579 2.398 . S
O589 C577 1.355 . S
O589 Dy579 2.491 . S
O590 Dy579 2.403 . S
O590 C585 1.254 . S
O591 Dy576 2.310 . S
O591 Dy579 2.664 . S
O591 C585 1.268 . S
O592 Dy576 2.351 . S
O592 C595 1.249 . S
O593 Dy579 2.326 . S
O593 C595 1.267 . S
C594 O586 1.249 . S
C594 O587 1.267 . S
C595 O592 1.249 . S
C595 O593 1.267 . S
Dy596 O600 2.398 . S
Dy596 O601 2.491 . S
Dy596 O602 2.403 . S
Dy596 O603 2.664 . S
Dy596 O607 2.326 . S
Dy596 O611 2.310 . S
Dy596 O612 2.351 . S
C597 O608 1.185 . S
C597 O609 1.355 . S
C598 O600 1.185 . S
C598 O601 1.355 . S
Dy599 O603 2.310 . S
Dy599 O606 2.351 . S
Dy599 O608 2.398 . S
Dy599 O609 2.491 . S
Dy599 O610 2.403 . S
Dy599 O611 2.664 . S
Dy599 O613 2.326 . S
O600 Dy596 2.398 . S
O600 C598 1.185 . S
O601 Dy596 2.491 . S
O601 C598 1.355 . S
O602 Dy596 2.403 . S
O602 C604 1.254 . S
O603 Dy596 2.664 . S
O603 Dy599 2.310 . S
O603 C604 1.268 . S
C604 O602 1.254 . S
C604 O603 1.268 . S
C605 O610 1.254 . S
C605 O611 1.268 . S
O606 Dy599 2.351 . S
O606 C614 1.249 . S
O607 Dy596 2.326 . S
O607 C614 1.267 . S
O608 C597 1.185 . S
O608 Dy599 2.398 . S
O609 C597 1.355 . S
O609 Dy599 2.491 . S
O610 Dy599 2.403 . S
O610 C605 1.254 . S
O611 Dy596 2.310 . S
O611 Dy599 2.664 . S
O611 C605 1.268 . S
O612 Dy596 2.351 . S
O612 C615 1.249 . S
O613 Dy599 2.326 . S
O613 C615 1.267 . S
C614 O606 1.249 . S
C614 O607 1.267 . S
C615 O612 1.249 . S
C615 O613 1.267 . S
Dy616 O620 2.398 . S
Dy616 O621 2.491 . S
Dy616 O622 2.403 . S
Dy616 O623 2.664 . S
Dy616 O627 2.326 . S
Dy616 O631 2.310 . S
Dy616 O632 2.351 . S
C617 O628 1.185 . S
C617 O629 1.355 . S
C618 O620 1.185 . S
C618 O621 1.355 . S
Dy619 O623 2.310 . S
Dy619 O626 2.351 . S
Dy619 O628 2.398 . S
Dy619 O629 2.491 . S
Dy619 O630 2.403 . S
Dy619 O631 2.664 . S
Dy619 O633 2.326 . S
O620 Dy616 2.398 . S
O620 C618 1.185 . S
O621 Dy616 2.491 . S
O621 C618 1.355 . S
O622 Dy616 2.403 . S
O622 C624 1.254 . S
O623 Dy616 2.664 . S
O623 Dy619 2.310 . S
O623 C624 1.268 . S
C624 O622 1.254 . S
C624 O623 1.268 . S
C625 O630 1.254 . S
C625 O631 1.268 . S
O626 Dy619 2.351 . S
O626 C634 1.249 . S
O627 Dy616 2.326 . S
O627 C634 1.267 . S
O628 C617 1.185 . S
O628 Dy619 2.398 . S
O629 C617 1.355 . S
O629 Dy619 2.491 . S
O630 Dy619 2.403 . S
O630 C625 1.254 . S
O631 Dy616 2.310 . S
O631 Dy619 2.664 . S
O631 C625 1.268 . S
O632 Dy616 2.351 . S
O632 C635 1.249 . S
O633 Dy619 2.326 . S
O633 C635 1.267 . S
C634 O626 1.249 . S
C634 O627 1.267 . S
C635 O632 1.249 . S
C635 O633 1.267 . S
Dy636 O640 2.398 1_554 S
Dy636 O641 2.491 . S
Dy636 O642 2.403 1_554 S
Dy636 O643 2.688 1_554 S
Dy636 O647 2.326 1_554 S
Dy636 O651 2.310 . S
Dy636 O652 2.351 . S
C637 O648 1.185 . S
C637 O649 1.355 . S
C638 O640 1.185 . S
C638 O641 1.355 1_556 S
Dy639 O643 2.296 1_654 S
Dy639 O646 2.351 . S
Dy639 O648 2.398 . S
Dy639 O649 2.491 . S
Dy639 O650 2.403 . S
Dy639 O651 2.664 1_655 S
Dy639 O653 2.327 1_655 S
O640 Dy636 2.398 1_556 S
O640 C638 1.185 . S
O641 Dy636 2.491 . S
O641 C638 1.355 1_554 S
O642 Dy636 2.403 1_556 S
O642 C644 1.254 . S
O643 Dy636 2.688 1_556 S
O643 Dy639 2.296 1_456 S
O643 C644 1.277 . S
C644 O642 1.254 . S
C644 O643 1.277 . S
C645 O650 1.254 1_455 S
C645 O651 1.268 . S
O646 Dy639 2.351 . S
O646 C654 1.249 1_655 S
O647 Dy636 2.326 1_556 S
O647 C654 1.267 1_556 S
O648 C637 1.185 . S
O648 Dy639 2.398 . S
O649 C637 1.355 . S
O649 Dy639 2.491 . S
O650 Dy639 2.403 . S
O650 C645 1.254 1_655 S
O651 Dy636 2.310 . S
O651 Dy639 2.664 1_455 S
O651 C645 1.268 . S
O652 Dy636 2.351 . S
O652 C655 1.249 . S
O653 Dy639 2.327 1_455 S
O653 C655 1.266 . S
C654 O646 1.249 1_455 S
C654 O647 1.267 1_554 S
C655 O652 1.249 . S
C655 O653 1.266 . S
H656 C664 0.929 . S
H657 C666 0.930 . S
H658 C668 0.930 1_655 S
H659 C671 0.929 . S
H660 C674 0.930 . S
H661 C676 0.960 . S
H662 C676 0.960 . S
H663 C676 0.960 . S
C664 H656 0.929 . S
C664 C665 1.393 . S
C664 C666 1.384 . S
C665 C664 1.393 . S
C665 C671 1.384 1_455 S
C666 H657 0.930 . S
C666 C664 1.384 . S
C666 C667 1.372 . S
C667 C666 1.372 . S
C667 C668 1.401 . S
C667 C672 1.490 . S
C668 H658 0.930 1_455 S
C668 C667 1.401 . S
C668 C671 1.385 1_455 S
H669 C685 0.930 . S
H670 C686 0.931 . S
C671 H659 0.929 . S
C671 C665 1.384 1_655 S
C671 C668 1.385 1_655 S
C672 C667 1.490 . S
C672 C674 1.395 . S
C672 C675 1.403 1_455 S
H673 C679 0.930 . S
C674 H660 0.930 . S
C674 C672 1.395 . S
C674 C677 1.403 . S
C675 C672 1.403 1_655 S
C675 C676 1.524 . S
C675 C679 1.400 . S
C676 H661 0.960 . S
C676 H662 0.960 . S
C676 H663 0.960 . S
C676 C675 1.524 . S
C677 C674 1.403 . S
C677 C678 1.392 . S
C677 C681 1.495 . S
C678 C677 1.392 . S
C678 C679 1.385 1_455 S
C678 C680 1.478 . S
C679 H673 0.930 . S
C679 C675 1.400 . S
C679 C678 1.385 1_655 S
C680 C678 1.478 . S
C680 C682 1.381 . S
C680 C686 1.383 1_556 S
C681 C677 1.495 . S
C681 H687 0.959 . S
C681 H688 0.961 . S
C681 H689 0.960 . S
C682 C680 1.381 . S
C682 C683 1.394 . S
C682 H690 0.930 . S
C683 C682 1.394 . S
C683 C684 1.322 1_556 S
C683 H691 0.929 . S
C684 C683 1.322 1_554 S
C684 C685 1.405 . S
C685 H669 0.930 . S
C685 C684 1.405 . S
C685 C686 1.379 . S
C686 H670 0.931 . S
C686 C680 1.383 1_554 S
C686 C685 1.379 . S
H687 C681 0.959 . S
H688 C681 0.961 . S
H689 C681 0.960 . S
H690 C682 0.930 . S
H691 C683 0.929 . S
H692 C700 0.929 . S
H693 C702 0.930 . S
H694 C704 0.930 . S
H695 C707 0.929 . S
H696 C710 0.930 . S
H697 C712 0.960 . S
H698 C712 0.960 . S
H699 C712 0.960 . S
C700 H692 0.929 . S
C700 C701 1.377 . S
C700 C702 1.384 . S
C701 C700 1.377 . S
C701 C707 1.390 . S
C702 H693 0.930 . S
C702 C700 1.384 . S
C702 C703 1.372 . S
C703 C702 1.372 . S
C703 C704 1.400 . S
C703 C708 1.490 . S
C704 H694 0.930 . S
C704 C703 1.400 . S
C704 C707 1.386 . S
H705 C721 0.930 . S
H706 C722 0.931 . S
C707 H695 0.929 . S
C707 C701 1.390 . S
C707 C704 1.386 . S
C708 C703 1.490 . S
C708 C710 1.395 . S
C708 C711 1.403 . S
H709 C715 0.930 . S
C710 H696 0.930 . S
C710 C708 1.395 . S
C710 C713 1.403 . S
C711 C708 1.403 . S
C711 C712 1.524 . S
C711 C715 1.400 . S
C712 H697 0.960 . S
C712 H698 0.960 . S
C712 H699 0.960 . S
C712 C711 1.524 . S
C713 C710 1.403 . S
C713 C714 1.392 . S
C713 C717 1.495 . S
C714 C713 1.392 . S
C714 C715 1.385 . S
C714 C716 1.478 . S
C715 H709 0.930 . S
C715 C711 1.400 . S
C715 C714 1.385 . S
C716 C714 1.478 . S
C716 C718 1.381 . S
C716 C722 1.383 . S
C717 C713 1.495 . S
C717 H723 0.959 . S
C717 H724 0.961 . S
C717 H725 0.960 . S
C718 C716 1.381 . S
C718 C719 1.394 . S
C718 H726 0.930 . S
C719 C718 1.394 . S
C719 C720 1.383 . S
C719 H727 0.929 . S
C720 C719 1.383 . S
C720 C721 1.377 . S
C721 H705 0.930 . S
C721 C720 1.377 . S
C721 C722 1.379 . S
C722 H706 0.931 . S
C722 C716 1.383 . S
C722 C721 1.379 . S
H723 C717 0.959 . S
H724 C717 0.961 . S
H725 C717 0.960 . S
H726 C718 0.930 . S
H727 C719 0.929 . S
H728 C736 0.929 . S
H729 C738 0.930 . S
H730 C740 0.930 . S
H731 C743 0.929 . S
H732 C746 0.930 . S
H733 C748 0.960 . S
H734 C748 0.960 . S
H735 C748 0.960 . S
C736 H728 0.929 . S
C736 C737 1.377 . S
C736 C738 1.384 . S
C737 C736 1.377 . S
C737 C743 1.390 . S
C738 H729 0.930 . S
C738 C736 1.384 . S
C738 C739 1.372 . S
C739 C738 1.372 . S
C739 C740 1.400 . S
C739 C744 1.490 . S
C740 H730 0.930 . S
C740 C739 1.400 . S
C740 C743 1.386 . S
H741 C757 0.930 . S
H742 C758 0.931 . S
C743 H731 0.929 . S
C743 C737 1.390 . S
C743 C740 1.386 . S
C744 C739 1.490 . S
C744 C746 1.395 . S
C744 C747 1.403 . S
H745 C751 0.930 . S
C746 H732 0.930 . S
C746 C744 1.395 . S
C746 C749 1.403 . S
C747 C744 1.403 . S
C747 C748 1.524 . S
C747 C751 1.400 . S
C748 H733 0.960 . S
C748 H734 0.960 . S
C748 H735 0.960 . S
C748 C747 1.524 . S
C749 C746 1.403 . S
C749 C750 1.392 . S
C749 C753 1.495 . S
C750 C749 1.392 . S
C750 C751 1.385 . S
C750 C752 1.478 . S
C751 H745 0.930 . S
C751 C747 1.400 . S
C751 C750 1.385 . S
C752 C750 1.478 . S
C752 C754 1.381 . S
C752 C758 1.383 . S
C753 C749 1.495 . S
C753 H759 0.959 . S
C753 H760 0.961 . S
C753 H761 0.960 . S
C754 C752 1.381 . S
C754 C755 1.394 . S
C754 H762 0.930 . S
C755 C754 1.394 . S
C755 C756 1.383 . S
C755 H763 0.929 . S
C756 C755 1.383 . S
C756 C757 1.377 . S
C757 H741 0.930 . S
C757 C756 1.377 . S
C757 C758 1.379 . S
C758 H742 0.931 . S
C758 C752 1.383 . S
C758 C757 1.379 . S
H759 C753 0.959 . S
H760 C753 0.961 . S
H761 C753 0.960 . S
H762 C754 0.930 . S
H763 C755 0.929 . S
H764 C772 0.929 . S
H765 C774 0.930 . S
H766 C776 0.930 . S
H767 C779 0.929 . S
H768 C782 0.930 . S
H769 C784 0.960 . S
H770 C784 0.960 . S
H771 C784 0.960 . S
C772 H764 0.929 . S
C772 C773 1.377 . S
C772 C774 1.384 . S
C773 C772 1.377 . S
C773 C779 1.390 . S
C774 H765 0.930 . S
C774 C772 1.384 . S
C774 C775 1.372 . S
C775 C774 1.372 . S
C775 C776 1.400 . S
C775 C780 1.490 . S
C776 H766 0.930 . S
C776 C775 1.400 . S
C776 C779 1.386 . S
H777 C793 0.930 . S
H778 C794 0.931 . S
C779 H767 0.929 . S
C779 C773 1.390 . S
C779 C776 1.386 . S
C780 C775 1.490 . S
C780 C782 1.395 . S
C780 C783 1.403 . S
H781 C787 0.930 . S
C782 H768 0.930 . S
C782 C780 1.395 . S
C782 C785 1.403 . S
C783 C780 1.403 . S
C783 C784 1.524 . S
C783 C787 1.400 . S
C784 H769 0.960 . S
C784 H770 0.960 . S
C784 H771 0.960 . S
C784 C783 1.524 . S
C785 C782 1.403 . S
C785 C786 1.392 . S
C785 C789 1.495 . S
C786 C785 1.392 . S
C786 C787 1.385 . S
C786 C788 1.478 . S
C787 H781 0.930 . S
C787 C783 1.400 . S
C787 C786 1.385 . S
C788 C786 1.478 . S
C788 C790 1.381 . S
C788 C794 1.383 . S
C789 C785 1.495 . S
C789 H795 0.959 . S
C789 H796 0.961 . S
C789 H797 0.960 . S
C790 C788 1.381 . S
C790 C791 1.394 . S
C790 H798 0.930 . S
C791 C790 1.394 . S
C791 C792 1.383 . S
C791 H799 0.929 . S
C792 C791 1.383 . S
C792 C793 1.377 . S
C793 H777 0.930 . S
C793 C792 1.377 . S
C793 C794 1.379 . S
C794 H778 0.931 . S
C794 C788 1.383 . S
C794 C793 1.379 . S
H795 C789 0.959 . S
H796 C789 0.961 . S
H797 C789 0.960 . S
H798 C790 0.930 . S
H799 C791 0.929 . S
H800 C808 0.929 1_655 S
H801 C810 0.930 1_655 S
H802 C812 0.930 . S
H803 C815 0.929 . S
H804 C818 0.909 1_655 S
H805 C820 0.960 . S
H806 C820 0.960 . S
H807 C820 0.960 . S
C808 H800 0.929 1_455 S
C808 C809 1.377 . S
C808 C810 1.384 . S
C809 C808 1.377 . S
C809 C815 1.390 . S
C810 H801 0.930 1_455 S
C810 C808 1.384 . S
C810 C811 1.372 . S
C811 C810 1.372 . S
C811 C812 1.400 . S
C811 C816 1.490 . S
C812 H802 0.930 . S
C812 C811 1.400 . S
C812 C815 1.386 . S
H813 C829 0.930 . S
H814 C830 0.931 . S
C815 H803 0.929 . S
C815 C809 1.390 . S
C815 C812 1.386 . S
C816 C811 1.490 . S
C816 C818 1.420 . S
C816 C819 1.403 . S
H817 C823 0.930 . S
C818 H804 0.909 1_455 S
C818 C816 1.420 . S
C818 C821 1.398 1_455 S
C819 C816 1.403 . S
C819 C820 1.524 . S
C819 C823 1.400 . S
C820 H805 0.960 . S
C820 H806 0.960 . S
C820 H807 0.960 . S
C820 C819 1.524 . S
C821 C818 1.398 1_655 S
C821 C822 1.391 1_655 S
C821 C825 1.497 . S
C822 C821 1.391 1_455 S
C822 C823 1.385 . S
C822 C824 1.478 . S
C823 H817 0.930 . S
C823 C819 1.400 . S
C823 C822 1.385 . S
C824 C822 1.478 . S
C824 C826 1.381 . S
C824 C830 1.383 . S
C825 C821 1.497 . S
C825 H831 0.959 . S
C825 H832 0.961 . S
C825 H833 0.960 . S
C826 C824 1.381 . S
C826 C827 1.394 . S
C826 H834 0.930 . S
C827 C826 1.394 . S
C827 C828 1.383 . S
C827 H835 0.929 . S
C828 C827 1.383 . S
C828 C829 1.377 . S
C829 H813 0.930 . S
C829 C828 1.377 . S
C829 C830 1.379 . S
C830 H814 0.931 . S
C830 C824 1.383 . S
C830 C829 1.379 . S
H831 C825 0.959 . S
H832 C825 0.961 . S
H833 C825 0.960 . S
H834 C826 0.930 . S
H835 C827 0.929 . S
H836 C844 0.929 . S
H837 C846 0.930 . S
H838 C848 0.930 . S
H839 C851 0.929 . S
H840 C854 0.930 . S
H841 C856 0.960 . S
H842 C856 0.960 . S
H843 C856 0.960 . S
C844 H836 0.929 . S
C844 C845 1.377 . S
C844 C846 1.384 . S
C845 C844 1.377 . S
C845 C851 1.390 . S
C846 H837 0.930 . S
C846 C844 1.384 . S
C846 C847 1.372 . S
C847 C846 1.372 . S
C847 C848 1.400 . S
C847 C852 1.490 . S
C848 H838 0.930 . S
C848 C847 1.400 . S
C848 C851 1.386 . S
H849 C865 0.930 . S
H850 C866 0.931 . S
C851 H839 0.929 . S
C851 C845 1.390 . S
C851 C848 1.386 . S
C852 C847 1.490 . S
C852 C854 1.395 . S
C852 C855 1.403 . S
H853 C859 0.930 . S
C854 H840 0.930 . S
C854 C852 1.395 . S
C854 C857 1.403 . S
C855 C852 1.403 . S
C855 C856 1.524 . S
C855 C859 1.400 . S
C856 H841 0.960 . S
C856 H842 0.960 . S
C856 H843 0.960 . S
C856 C855 1.524 . S
C857 C854 1.403 . S
C857 C858 1.392 . S
C857 C861 1.495 . S
C858 C857 1.392 . S
C858 C859 1.385 . S
C858 C860 1.478 . S
C859 H853 0.930 . S
C859 C855 1.400 . S
C859 C858 1.385 . S
C860 C858 1.478 . S
C860 C862 1.381 . S
C860 C866 1.383 . S
C861 C857 1.495 . S
C861 H867 0.959 . S
C861 H868 0.961 . S
C861 H869 0.960 . S
C862 C860 1.381 . S
C862 C863 1.394 . S
C862 H870 0.930 . S
C863 C862 1.394 . S
C863 C864 1.383 . S
C863 H871 0.929 . S
C864 C863 1.383 . S
C864 C865 1.377 . S
C865 H849 0.930 . S
C865 C864 1.377 . S
C865 C866 1.379 . S
C866 H850 0.931 . S
C866 C860 1.383 . S
C866 C865 1.379 . S
H867 C861 0.959 . S
H868 C861 0.961 . S
H869 C861 0.960 . S
H870 C862 0.930 . S
H871 C863 0.929 . S
H872 C880 0.929 . S
H873 C882 0.930 . S
H874 C884 0.930 . S
H875 C887 0.929 . S
H876 C890 0.930 . S
H877 C892 0.960 . S
H878 C892 0.960 . S
H879 C892 0.960 . S
C880 H872 0.929 . S
C880 C881 1.377 . S
C880 C882 1.384 . S
C881 C880 1.377 . S
C881 C887 1.390 . S
C882 H873 0.930 . S
C882 C880 1.384 . S
C882 C883 1.372 . S
C883 C882 1.372 . S
C883 C884 1.400 . S
C883 C888 1.490 . S
C884 H874 0.930 . S
C884 C883 1.400 . S
C884 C887 1.386 . S
H885 C901 0.930 . S
H886 C902 0.931 . S
C887 H875 0.929 . S
C887 C881 1.390 . S
C887 C884 1.386 . S
C888 C883 1.490 . S
C888 C890 1.395 . S
C888 C891 1.403 . S
H889 C895 0.930 . S
C890 H876 0.930 . S
C890 C888 1.395 . S
C890 C893 1.403 . S
C891 C888 1.403 . S
C891 C892 1.524 . S
C891 C895 1.400 . S
C892 H877 0.960 . S
C892 H878 0.960 . S
C892 H879 0.960 . S
C892 C891 1.524 . S
C893 C890 1.403 . S
C893 C894 1.392 . S
C893 C897 1.495 . S
C894 C893 1.392 . S
C894 C895 1.385 . S
C894 C896 1.478 . S
C895 H889 0.930 . S
C895 C891 1.400 . S
C895 C894 1.385 . S
C896 C894 1.478 . S
C896 C898 1.381 . S
C896 C902 1.383 . S
C897 C893 1.495 . S
C897 H903 0.959 . S
C897 H904 0.961 . S
C897 H905 0.960 . S
C898 C896 1.381 . S
C898 C899 1.394 . S
C898 H906 0.930 . S
C899 C898 1.394 . S
C899 C900 1.383 . S
C899 H907 0.929 . S
C900 C899 1.383 . S
C900 C901 1.377 . S
C901 H885 0.930 . S
C901 C900 1.377 . S
C901 C902 1.379 . S
C902 H886 0.931 . S
C902 C896 1.383 . S
C902 C901 1.379 . S
H903 C897 0.959 . S
H904 C897 0.961 . S
H905 C897 0.960 . S
H906 C898 0.930 . S
H907 C899 0.929 . S
H908 C916 0.929 . S
H909 C918 0.930 . S
H910 C920 0.930 . S
H911 C923 0.929 . S
H912 C926 0.930 . S
H913 C928 0.960 . S
H914 C928 0.960 . S
H915 C928 0.960 . S
C916 H908 0.929 . S
C916 C917 1.377 . S
C916 C918 1.384 . S
C917 C916 1.377 . S
C917 C923 1.390 . S
C918 H909 0.930 . S
C918 C916 1.384 . S
C918 C919 1.372 . S
C919 C918 1.372 . S
C919 C920 1.400 . S
C919 C924 1.490 . S
C920 H910 0.930 . S
C920 C919 1.400 . S
C920 C923 1.386 . S
H921 C937 0.930 . S
H922 C938 0.931 . S
C923 H911 0.929 . S
C923 C917 1.390 . S
C923 C920 1.386 . S
C924 C919 1.490 . S
C924 C926 1.395 . S
C924 C927 1.403 . S
H925 C931 0.930 . S
C926 H912 0.930 . S
C926 C924 1.395 . S
C926 C929 1.403 . S
C927 C924 1.403 . S
C927 C928 1.524 . S
C927 C931 1.400 . S
C928 H913 0.960 . S
C928 H914 0.960 . S
C928 H915 0.960 . S
C928 C927 1.524 . S
C929 C926 1.403 . S
C929 C930 1.392 . S
C929 C933 1.495 . S
C930 C929 1.392 . S
C930 C931 1.385 . S
C930 C932 1.478 . S
C931 H925 0.930 . S
C931 C927 1.400 . S
C931 C930 1.385 . S
C932 C930 1.478 . S
C932 C934 1.381 . S
C932 C938 1.383 . S
C933 C929 1.495 . S
C933 H939 0.959 . S
C933 H940 0.961 . S
C933 H941 0.960 . S
C934 C932 1.381 . S
C934 C935 1.394 . S
C934 H942 0.930 . S
C935 C934 1.394 . S
C935 C936 1.383 . S
C935 H943 0.929 . S
C936 C935 1.383 . S
C936 C937 1.377 . S
C937 H921 0.930 . S
C937 C936 1.377 . S
C937 C938 1.379 . S
C938 H922 0.931 . S
C938 C932 1.383 . S
C938 C937 1.379 . S
H939 C933 0.959 . S
H940 C933 0.961 . S
H941 C933 0.960 . S
H942 C934 0.930 . S
H943 C935 0.929 . S
H944 C952 0.929 . S
H945 C954 0.930 . S
H946 C956 0.930 . S
H947 C959 0.929 . S
H948 C962 0.930 . S
H949 C964 0.960 . S
H950 C964 0.960 . S
H951 C964 0.960 . S
C952 H944 0.929 . S
C952 C953 1.377 . S
C952 C954 1.384 . S
C953 C952 1.377 . S
C953 C959 1.390 . S
C954 H945 0.930 . S
C954 C952 1.384 . S
C954 C955 1.372 . S
C955 C954 1.372 . S
C955 C956 1.400 . S
C955 C960 1.490 . S
C956 H946 0.930 . S
C956 C955 1.400 . S
C956 C959 1.386 . S
H957 C973 0.922 1_455 S
H958 C974 0.931 . S
C959 H947 0.929 . S
C959 C953 1.390 . S
C959 C956 1.386 . S
C960 C955 1.490 . S
C960 C962 1.395 . S
C960 C963 1.403 . S
H961 C967 0.930 . S
C962 H948 0.930 . S
C962 C960 1.395 . S
C962 C965 1.403 . S
C963 C960 1.403 . S
C963 C964 1.524 . S
C963 C967 1.400 . S
C964 H949 0.960 . S
C964 H950 0.960 . S
C964 H951 0.960 . S
C964 C963 1.524 . S
C965 C962 1.403 . S
C965 C966 1.392 . S
C965 C969 1.495 1_655 S
C966 C965 1.392 . S
C966 C967 1.385 . S
C966 C968 1.478 . S
C967 H961 0.930 . S
C967 C963 1.400 . S
C967 C966 1.385 . S
C968 C966 1.478 . S
C968 C970 1.381 . S
C968 C974 1.383 . S
C969 C965 1.495 1_455 S
C969 H975 0.959 . S
C969 H976 0.961 . S
C969 H977 0.960 . S
C970 C968 1.381 . S
C970 C971 1.405 . S
C970 H978 0.930 . S
C971 C970 1.405 . S
C971 C972 1.374 1_655 S
C971 H979 0.928 1_655 S
C972 C971 1.374 1_455 S
C972 C973 1.376 1_455 S
C973 H957 0.922 1_655 S
C973 C972 1.376 1_655 S
C973 C974 1.388 . S
C974 H958 0.931 . S
C974 C968 1.383 . S
C974 C973 1.388 . S
H975 C969 0.959 . S
H976 C969 0.961 . S
H977 C969 0.960 . S
H978 C970 0.930 . S
H979 C971 0.928 1_455 S
H980 C988 0.929 . S
H981 C990 0.930 . S
H982 C992 0.930 . S
H983 C995 0.929 . S
H984 C998 0.930 . S
H985 C1000 0.960 . S
H986 C1000 0.960 . S
H987 C1000 0.960 . S
C988 H980 0.929 . S
C988 C989 1.377 . S
C988 C990 1.384 . S
C989 C988 1.377 . S
C989 C995 1.390 . S
C990 H981 0.930 . S
C990 C988 1.384 . S
C990 C991 1.372 . S
C991 C990 1.372 . S
C991 C992 1.400 . S
C991 C996 1.490 . S
C992 H982 0.930 . S
C992 C991 1.400 . S
C992 C995 1.386 . S
H993 C1009 0.930 . S
H994 C1010 0.931 . S
C995 H983 0.929 . S
C995 C989 1.390 . S
C995 C992 1.386 . S
C996 C991 1.490 . S
C996 C998 1.395 . S
C996 C999 1.403 . S
H997 C1003 0.930 . S
C998 H984 0.930 . S
C998 C996 1.395 . S
C998 C1001 1.403 . S
C999 C996 1.403 . S
C999 C1000 1.524 . S
C999 C1003 1.400 . S
C1000 H985 0.960 . S
C1000 H986 0.960 . S
C1000 H987 0.960 . S
C1000 C999 1.524 . S
C1001 C998 1.403 . S
C1001 C1002 1.392 . S
C1001 C1005 1.495 . S
C1002 C1001 1.392 . S
C1002 C1003 1.385 . S
C1002 C1004 1.478 . S
C1003 H997 0.930 . S
C1003 C999 1.400 . S
C1003 C1002 1.385 . S
C1004 C1002 1.478 . S
C1004 C1006 1.381 . S
C1004 C1010 1.383 . S
C1005 C1001 1.495 . S
C1005 H1011 0.959 . S
C1005 H1012 0.961 . S
C1005 H1013 0.960 . S
C1006 C1004 1.381 . S
C1006 C1007 1.394 . S
C1006 H1014 0.930 . S
C1007 C1006 1.394 . S
C1007 C1008 1.383 . S
C1007 H1015 0.929 . S
C1008 C1007 1.383 . S
C1008 C1009 1.377 . S
C1009 H993 0.930 . S
C1009 C1008 1.377 . S
C1009 C1010 1.379 . S
C1010 H994 0.931 . S
C1010 C1004 1.383 . S
C1010 C1009 1.379 . S
H1011 C1005 0.959 . S
H1012 C1005 0.961 . S
H1013 C1005 0.960 . S
H1014 C1006 0.930 . S
H1015 C1007 0.929 . S
H1016 C1024 0.929 . S
H1017 C1026 0.930 . S
H1018 C1028 0.930 . S
H1019 C1031 0.929 . S
H1020 C1034 0.930 . S
H1021 C1036 0.960 . S
H1022 C1036 0.960 . S
H1023 C1036 0.960 . S
C1024 H1016 0.929 . S
C1024 C1025 1.377 . S
C1024 C1026 1.384 . S
C1025 C1024 1.377 . S
C1025 C1031 1.390 . S
C1026 H1017 0.930 . S
C1026 C1024 1.384 . S
C1026 C1027 1.372 . S
C1027 C1026 1.372 . S
C1027 C1028 1.400 . S
C1027 C1032 1.490 . S
C1028 H1018 0.930 . S
C1028 C1027 1.400 . S
C1028 C1031 1.386 . S
H1029 C1045 0.930 . S
H1030 C1046 0.931 . S
C1031 H1019 0.929 . S
C1031 C1025 1.390 . S
C1031 C1028 1.386 . S
C1032 C1027 1.490 . S
C1032 C1034 1.395 . S
C1032 C1035 1.442 . S
H1033 C1039 0.930 1_565 S
C1034 H1020 0.930 . S
C1034 C1032 1.395 . S
C1034 C1037 1.403 . S
C1035 C1032 1.442 . S
C1035 C1036 1.473 1_545 S
C1035 C1039 1.415 . S
C1036 H1021 0.960 . S
C1036 H1022 0.960 . S
C1036 H1023 0.960 . S
C1036 C1035 1.473 1_565 S
C1037 C1034 1.403 . S
C1037 C1038 1.392 . S
C1037 C1041 1.495 . S
C1038 C1037 1.392 . S
C1038 C1039 1.385 . S
C1038 C1040 1.478 . S
C1039 H1033 0.930 1_545 S
C1039 C1035 1.415 . S
C1039 C1038 1.385 . S
C1040 C1038 1.478 . S
C1040 C1042 1.381 . S
C1040 C1046 1.383 . S
C1041 C1037 1.495 . S
C1041 H1047 0.959 . S
C1041 H1048 0.961 . S
C1041 H1049 0.960 . S
C1042 C1040 1.381 . S
C1042 C1043 1.394 . S
C1042 H1050 0.930 . S
C1043 C1042 1.394 . S
C1043 C1044 1.383 . S
C1043 H1051 0.929 . S
C1044 C1043 1.383 . S
C1044 C1045 1.377 . S
C1045 H1029 0.930 . S
C1045 C1044 1.377 . S
C1045 C1046 1.379 . S
C1046 H1030 0.931 . S
C1046 C1040 1.383 . S
C1046 C1045 1.379 . S
H1047 C1041 0.959 . S
H1048 C1041 0.961 . S
H1049 C1041 0.960 . S
H1050 C1042 0.930 . S
H1051 C1043 0.929 . S
H1052 C1060 0.929 . S
H1053 C1062 0.930 . S
H1054 C1064 0.930 . S
H1055 C1067 0.929 . S
H1056 C1070 0.930 . S
H1057 C1072 0.960 . S
H1058 C1072 0.960 . S
H1059 C1072 0.960 . S
C1060 H1052 0.929 . S
C1060 C1061 1.377 . S
C1060 C1062 1.384 . S
C1061 C1060 1.377 . S
C1061 C1067 1.390 . S
C1062 H1053 0.930 . S
C1062 C1060 1.384 . S
C1062 C1063 1.372 . S
C1063 C1062 1.372 . S
C1063 C1064 1.400 . S
C1063 C1068 1.490 . S
C1064 H1054 0.930 . S
C1064 C1063 1.400 . S
C1064 C1067 1.386 . S
H1065 C1081 0.930 . S
H1066 C1082 0.931 . S
C1067 H1055 0.929 . S
C1067 C1061 1.390 . S
C1067 C1064 1.386 . S
C1068 C1063 1.490 . S
C1068 C1070 1.395 . S
C1068 C1071 1.403 . S
H1069 C1075 0.930 . S
C1070 H1056 0.930 . S
C1070 C1068 1.395 . S
C1070 C1073 1.403 . S
C1071 C1068 1.403 . S
C1071 C1072 1.524 . S
C1071 C1075 1.400 . S
C1072 H1057 0.960 . S
C1072 H1058 0.960 . S
C1072 H1059 0.960 . S
C1072 C1071 1.524 . S
C1073 C1070 1.403 . S
C1073 C1074 1.392 . S
C1073 C1077 1.495 . S
C1074 C1073 1.392 . S
C1074 C1075 1.385 . S
C1074 C1076 1.478 . S
C1075 H1069 0.930 . S
C1075 C1071 1.400 . S
C1075 C1074 1.385 . S
C1076 C1074 1.478 . S
C1076 C1078 1.381 . S
C1076 C1082 1.383 . S
C1077 C1073 1.495 . S
C1077 H1083 0.959 . S
C1077 H1084 0.961 . S
C1077 H1085 0.960 . S
C1078 C1076 1.381 . S
C1078 C1079 1.394 . S
C1078 H1086 0.930 . S
C1079 C1078 1.394 . S
C1079 C1080 1.383 . S
C1079 H1087 0.929 . S
C1080 C1079 1.383 . S
C1080 C1081 1.377 . S
C1081 H1065 0.930 . S
C1081 C1080 1.377 . S
C1081 C1082 1.379 . S
C1082 H1066 0.931 . S
C1082 C1076 1.383 . S
C1082 C1081 1.379 . S
H1083 C1077 0.959 . S
H1084 C1077 0.961 . S
H1085 C1077 0.960 . S
H1086 C1078 0.930 . S
H1087 C1079 0.929 . S
H1088 C1096 0.929 . S
H1089 C1098 0.930 . S
H1090 C1100 0.930 . S
H1091 C1103 0.929 . S
H1092 C1106 0.930 . S
H1093 C1108 0.960 . S
H1094 C1108 0.960 . S
H1095 C1108 0.960 . S
C1096 H1088 0.929 . S
C1096 C1097 1.377 . S
C1096 C1098 1.384 . S
C1097 C1096 1.377 . S
C1097 C1103 1.390 . S
C1098 H1089 0.930 . S
C1098 C1096 1.384 . S
C1098 C1099 1.372 . S
C1099 C1098 1.372 . S
C1099 C1100 1.400 . S
C1099 C1104 1.490 . S
C1100 H1090 0.930 . S
C1100 C1099 1.400 . S
C1100 C1103 1.386 . S
H1101 C1117 0.930 . S
H1102 C1118 0.931 1_455 S
C1103 H1091 0.929 . S
C1103 C1097 1.390 . S
C1103 C1100 1.386 . S
C1104 C1099 1.490 . S
C1104 C1106 1.395 . S
C1104 C1107 1.403 . S
H1105 C1111 0.930 . S
C1106 H1092 0.930 . S
C1106 C1104 1.395 . S
C1106 C1109 1.403 . S
C1107 C1104 1.403 . S
C1107 C1108 1.524 . S
C1107 C1111 1.400 . S
C1108 H1093 0.960 . S
C1108 H1094 0.960 . S
C1108 H1095 0.960 . S
C1108 C1107 1.524 . S
C1109 C1106 1.403 . S
C1109 C1110 1.392 . S
C1109 C1113 1.495 1_545 S
C1110 C1109 1.392 . S
C1110 C1111 1.385 . S
C1110 C1112 1.478 . S
C1111 H1105 0.930 . S
C1111 C1107 1.400 . S
C1111 C1110 1.385 . S
C1112 C1110 1.478 . S
C1112 C1114 1.381 . S
C1112 C1118 1.383 . S
C1113 C1109 1.495 1_565 S
C1113 H1119 0.959 . S
C1113 H1120 0.961 . S
C1113 H1121 0.960 . S
C1114 C1112 1.381 . S
C1114 C1115 1.394 . S
C1114 H1122 0.930 . S
C1115 C1114 1.394 . S
C1115 C1116 1.383 . S
C1115 H1123 0.929 . S
C1116 C1115 1.383 . S
C1116 C1117 1.377 1_655 S
C1117 H1101 0.930 . S
C1117 C1116 1.377 1_455 S
C1117 C1118 1.379 1_455 S
C1118 H1102 0.931 1_655 S
C1118 C1112 1.383 . S
C1118 C1117 1.379 1_655 S
H1119 C1113 0.959 . S
H1120 C1113 0.961 . S
H1121 C1113 0.960 . S
H1122 C1114 0.930 . S
H1123 C1115 0.929 . S
H1124 C1132 0.929 . S
H1125 C1134 0.930 . S
H1126 C1136 0.930 . S
H1127 C1139 0.929 . S
H1128 C1142 0.930 . S
H1129 C1144 0.960 . S
H1130 C1144 0.960 . S
H1131 C1144 0.960 . S
C1132 H1124 0.929 . S
C1132 C1133 1.377 . S
C1132 C1134 1.384 . S
C1133 C1132 1.377 . S
C1133 C1139 1.390 . S
C1134 H1125 0.930 . S
C1134 C1132 1.384 . S
C1134 C1135 1.372 . S
C1135 C1134 1.372 . S
C1135 C1136 1.400 . S
C1135 C1140 1.490 . S
C1136 H1126 0.930 . S
C1136 C1135 1.400 . S
C1136 C1139 1.386 . S
H1137 C1153 0.930 . S
H1138 C1154 0.931 . S
C1139 H1127 0.929 . S
C1139 C1133 1.390 . S
C1139 C1136 1.386 . S
C1140 C1135 1.490 . S
C1140 C1142 1.395 . S
C1140 C1143 1.403 . S
H1141 C1147 0.930 . S
C1142 H1128 0.930 . S
C1142 C1140 1.395 . S
C1142 C1145 1.403 . S
C1143 C1140 1.403 . S
C1143 C1144 1.524 . S
C1143 C1147 1.400 . S
C1144 H1129 0.960 . S
C1144 H1130 0.960 . S
C1144 H1131 0.960 . S
C1144 C1143 1.524 . S
C1145 C1142 1.403 . S
C1145 C1146 1.392 . S
C1145 C1149 1.495 . S
C1146 C1145 1.392 . S
C1146 C1147 1.385 . S
C1146 C1148 1.478 . S
C1147 H1141 0.930 . S
C1147 C1143 1.400 . S
C1147 C1146 1.385 . S
C1148 C1146 1.478 . S
C1148 C1150 1.381 . S
C1148 C1154 1.383 . S
C1149 C1145 1.495 . S
C1149 H1155 0.959 . S
C1149 H1156 0.961 . S
C1149 H1157 0.960 . S
C1150 C1148 1.381 . S
C1150 C1151 1.394 . S
C1150 H1158 0.930 . S
C1151 C1150 1.394 . S
C1151 C1152 1.383 . S
C1151 H1159 0.929 . S
C1152 C1151 1.383 . S
C1152 C1153 1.377 . S
C1153 H1137 0.930 . S
C1153 C1152 1.377 . S
C1153 C1154 1.379 . S
C1154 H1138 0.931 . S
C1154 C1148 1.383 . S
C1154 C1153 1.379 . S
H1155 C1149 0.959 . S
H1156 C1149 0.961 . S
H1157 C1149 0.960 . S
H1158 C1150 0.930 . S
H1159 C1151 0.929 . S
H1160 C1168 0.929 . S
H1161 C1170 0.930 . S
H1162 C1172 0.930 . S
H1163 C1175 0.929 . S
H1164 C1178 0.930 . S
H1165 C1180 0.974 . S
H1166 C1180 0.964 1_545 S
H1167 C1180 0.966 . S
C1168 H1160 0.929 . S
C1168 C1169 1.377 . S
C1168 C1170 1.384 . S
C1169 C1168 1.377 . S
C1169 C1175 1.390 . S
C1170 H1161 0.930 . S
C1170 C1168 1.384 . S
C1170 C1171 1.372 . S
C1171 C1170 1.372 . S
C1171 C1172 1.400 . S
C1171 C1176 1.490 . S
C1172 H1162 0.930 . S
C1172 C1171 1.400 . S
C1172 C1175 1.386 . S
H1173 C1189 0.930 . S
H1174 C1190 0.931 . S
C1175 H1163 0.929 . S
C1175 C1169 1.390 . S
C1175 C1172 1.386 . S
C1176 C1171 1.490 . S
C1176 C1178 1.395 . S
C1176 C1179 1.403 . S
H1177 C1183 0.930 . S
C1178 H1164 0.930 . S
C1178 C1176 1.395 . S
C1178 C1181 1.403 . S
C1179 C1176 1.403 . S
C1179 C1180 1.500 1_545 S
C1179 C1183 1.400 . S
C1180 H1165 0.974 . S
C1180 H1166 0.964 1_565 S
C1180 H1167 0.966 . S
C1180 C1179 1.500 1_565 S
C1181 C1178 1.403 . S
C1181 C1182 1.392 . S
C1181 C1185 1.495 . S
C1182 C1181 1.392 . S
C1182 C1183 1.385 . S
C1182 C1184 1.478 . S
C1183 H1177 0.930 . S
C1183 C1179 1.400 . S
C1183 C1182 1.385 . S
C1184 C1182 1.478 . S
C1184 C1186 1.381 . S
C1184 C1190 1.383 . S
C1185 C1181 1.495 . S
C1185 H1191 0.959 . S
C1185 H1192 0.961 . S
C1185 H1193 0.960 . S
C1186 C1184 1.381 . S
C1186 C1187 1.394 . S
C1186 H1194 0.930 . S
C1187 C1186 1.394 . S
C1187 C1188 1.383 . S
C1187 H1195 0.929 . S
C1188 C1187 1.383 . S
C1188 C1189 1.377 . S
C1189 H1173 0.930 . S
C1189 C1188 1.377 . S
C1189 C1190 1.379 . S
C1190 H1174 0.931 . S
C1190 C1184 1.383 . S
C1190 C1189 1.379 . S
H1191 C1185 0.959 . S
H1192 C1185 0.961 . S
H1193 C1185 0.960 . S
H1194 C1186 0.930 . S
H1195 C1187 0.929 . S
H1196 C1204 0.929 . S
H1197 C1206 0.930 . S
H1198 C1208 0.930 . S
H1199 C1211 0.929 . S
H1200 C1214 0.930 . S
H1201 C1216 0.960 . S
H1202 C1216 0.960 . S
H1203 C1216 0.960 . S
C1204 H1196 0.929 . S
C1204 C1205 1.377 . S
C1204 C1206 1.384 . S
C1205 C1204 1.377 . S
C1205 C1211 1.390 . S
C1206 H1197 0.930 . S
C1206 C1204 1.384 . S
C1206 C1207 1.372 . S
C1207 C1206 1.372 . S
C1207 C1208 1.400 . S
C1207 C1212 1.490 . S
C1208 H1198 0.930 . S
C1208 C1207 1.400 . S
C1208 C1211 1.386 . S
H1209 C1225 0.930 . S
H1210 C1226 0.931 . S
C1211 H1199 0.929 . S
C1211 C1205 1.390 . S
C1211 C1208 1.386 . S
C1212 C1207 1.490 . S
C1212 C1214 1.395 . S
C1212 C1215 1.403 . S
H1213 C1219 0.930 . S
C1214 H1200 0.930 . S
C1214 C1212 1.395 . S
C1214 C1217 1.403 . S
C1215 C1212 1.403 . S
C1215 C1216 1.524 . S
C1215 C1219 1.400 . S
C1216 H1201 0.960 . S
C1216 H1202 0.960 . S
C1216 H1203 0.960 . S
C1216 C1215 1.524 . S
C1217 C1214 1.403 . S
C1217 C1218 1.392 . S
C1217 C1221 1.495 . S
C1218 C1217 1.392 . S
C1218 C1219 1.385 . S
C1218 C1220 1.478 . S
C1219 H1213 0.930 . S
C1219 C1215 1.400 . S
C1219 C1218 1.385 . S
C1220 C1218 1.478 . S
C1220 C1222 1.381 . S
C1220 C1226 1.383 . S
C1221 C1217 1.495 . S
C1221 H1227 0.959 . S
C1221 H1228 0.961 . S
C1221 H1229 0.960 . S
C1222 C1220 1.381 . S
C1222 C1223 1.394 . S
C1222 H1230 0.930 . S
C1223 C1222 1.394 . S
C1223 C1224 1.383 . S
C1223 H1231 0.929 . S
C1224 C1223 1.383 . S
C1224 C1225 1.377 . S
C1225 H1209 0.930 . S
C1225 C1224 1.377 . S
C1225 C1226 1.379 . S
C1226 H1210 0.931 . S
C1226 C1220 1.383 . S
C1226 C1225 1.379 . S
H1227 C1221 0.959 . S
H1228 C1221 0.961 . S
H1229 C1221 0.960 . S
H1230 C1222 0.930 . S
H1231 C1223 0.929 . S
H1232 C1240 0.929 . S
H1233 C1242 0.930 . S
H1234 C1244 0.930 . S
H1235 C1247 0.929 . S
H1236 C1250 0.930 . S
H1237 C1252 0.960 . S
H1238 C1252 0.960 . S
H1239 C1252 0.960 . S
C1240 H1232 0.929 . S
C1240 C1241 1.377 . S
C1240 C1242 1.384 . S
C1241 C1240 1.377 . S
C1241 C1247 1.390 . S
C1242 H1233 0.930 . S
C1242 C1240 1.384 . S
C1242 C1243 1.372 . S
C1243 C1242 1.372 . S
C1243 C1244 1.400 . S
C1243 C1248 1.490 . S
C1244 H1234 0.930 . S
C1244 C1243 1.400 . S
C1244 C1247 1.386 . S
H1245 C1261 0.930 . S
H1246 C1262 0.931 . S
C1247 H1235 0.929 . S
C1247 C1241 1.390 . S
C1247 C1244 1.386 . S
C1248 C1243 1.490 . S
C1248 C1250 1.395 . S
C1248 C1251 1.403 . S
H1249 C1255 0.930 . S
C1250 H1236 0.930 . S
C1250 C1248 1.395 . S
C1250 C1253 1.403 . S
C1251 C1248 1.403 . S
C1251 C1252 1.524 . S
C1251 C1255 1.400 . S
C1252 H1237 0.960 . S
C1252 H1238 0.960 . S
C1252 H1239 0.960 . S
C1252 C1251 1.524 . S
C1253 C1250 1.403 . S
C1253 C1254 1.392 . S
C1253 C1257 1.495 1_554 S
C1254 C1253 1.392 . S
C1254 C1255 1.385 . S
C1254 C1256 1.478 . S
C1255 H1249 0.930 . S
C1255 C1251 1.400 . S
C1255 C1254 1.385 . S
C1256 C1254 1.478 . S
C1256 C1258 1.381 1_565 S
C1256 C1262 1.383 . S
C1257 C1253 1.495 1_556 S
C1257 H1263 0.959 . S
C1257 H1264 0.961 . S
C1257 H1265 0.961 1_565 S
C1258 C1256 1.381 1_545 S
C1258 C1259 1.394 . S
C1258 H1266 0.930 . S
C1259 C1258 1.394 . S
C1259 C1260 1.383 . S
C1259 H1267 0.929 . S
C1260 C1259 1.383 . S
C1260 C1261 1.377 1_545 S
C1261 H1245 0.930 . S
C1261 C1260 1.377 1_565 S
C1261 C1262 1.379 . S
C1262 H1246 0.931 . S
C1262 C1256 1.383 . S
C1262 C1261 1.379 . S
H1263 C1257 0.959 . S
H1264 C1257 0.961 . S
H1265 C1257 0.961 1_545 S
H1266 C1258 0.930 . S
H1267 C1259 0.929 . S
H1268 C1276 0.929 . S
H1269 C1278 0.930 . S
H1270 C1280 0.930 . S
H1271 C1283 0.929 . S
H1272 C1286 0.930 . S
H1273 C1288 0.960 . S
H1274 C1288 0.960 . S
H1275 C1288 0.960 . S
C1276 H1268 0.929 . S
C1276 C1277 1.377 . S
C1276 C1278 1.384 . S
C1277 C1276 1.377 . S
C1277 C1283 1.390 1_554 S
C1278 H1269 0.930 . S
C1278 C1276 1.384 . S
C1278 C1279 1.372 . S
C1279 C1278 1.372 . S
C1279 C1280 1.400 1_554 S
C1279 C1284 1.490 . S
C1280 H1270 0.930 . S
C1280 C1279 1.400 1_556 S
C1280 C1283 1.386 . S
H1281 C1297 0.930 . S
H1282 C1298 0.931 . S
C1283 H1271 0.929 . S
C1283 C1277 1.390 1_556 S
C1283 C1280 1.386 . S
C1284 C1279 1.490 . S
C1284 C1286 1.395 . S
C1284 C1287 1.403 1_554 S
H1285 C1291 0.930 . S
C1286 H1272 0.930 . S
C1286 C1284 1.395 . S
C1286 C1289 1.403 . S
C1287 C1284 1.403 1_556 S
C1287 C1288 1.524 . S
C1287 C1291 1.400 . S
C1288 H1273 0.960 . S
C1288 H1274 0.960 . S
C1288 H1275 0.960 . S
C1288 C1287 1.524 . S
C1289 C1286 1.403 . S
C1289 C1290 1.392 . S
C1289 C1293 1.495 . S
C1290 C1289 1.392 . S
C1290 C1291 1.385 1_554 S
C1290 C1292 1.478 . S
C1291 H1285 0.930 . S
C1291 C1287 1.400 . S
C1291 C1290 1.385 1_556 S
C1292 C1290 1.478 . S
C1292 C1294 1.381 . S
C1292 C1298 1.383 1_554 S
C1293 C1289 1.495 . S
C1293 H1299 0.959 . S
C1293 H1300 0.961 . S
C1293 H1301 0.960 . S
C1294 C1292 1.381 . S
C1294 C1295 1.394 . S
C1294 H1302 0.930 . S
C1295 C1294 1.394 . S
C1295 C1296 1.383 . S
C1295 H1303 0.929 . S
C1296 C1295 1.383 . S
C1296 C1297 1.377 1_554 S
C1297 H1281 0.930 . S
C1297 C1296 1.377 1_556 S
C1297 C1298 1.379 . S
C1298 H1282 0.931 . S
C1298 C1292 1.383 1_556 S
C1298 C1297 1.379 . S
H1299 C1293 0.959 . S
H1300 C1293 0.961 . S
H1301 C1293 0.960 . S
H1302 C1294 0.930 . S
H1303 C1295 0.929 . S
H1304 C1312 0.929 . S
H1305 C1314 0.930 . S
H1306 C1316 0.930 . S
H1307 C1319 0.929 . S
H1308 C1322 0.930 . S
H1309 C1324 0.960 . S
H1310 C1324 0.960 . S
H1311 C1324 0.960 . S
C1312 H1304 0.929 . S
C1312 C1313 1.377 . S
C1312 C1314 1.384 . S
C1313 C1312 1.377 . S
C1313 C1319 1.390 . S
C1314 H1305 0.930 . S
C1314 C1312 1.384 . S
C1314 C1315 1.372 . S
C1315 C1314 1.372 . S
C1315 C1316 1.400 . S
C1315 C1320 1.490 . S
C1316 H1306 0.930 . S
C1316 C1315 1.400 . S
C1316 C1319 1.386 . S
H1317 C1333 0.930 . S
H1318 C1334 0.931 . S
C1319 H1307 0.929 . S
C1319 C1313 1.390 . S
C1319 C1316 1.386 . S
C1320 C1315 1.490 . S
C1320 C1322 1.395 . S
C1320 C1323 1.403 . S
H1321 C1327 0.930 . S
C1322 H1308 0.930 . S
C1322 C1320 1.395 . S
C1322 C1325 1.403 . S
C1323 C1320 1.403 . S
C1323 C1324 1.524 . S
C1323 C1327 1.400 . S
C1324 H1309 0.960 . S
C1324 H1310 0.960 . S
C1324 H1311 0.960 . S
C1324 C1323 1.524 . S
C1325 C1322 1.403 . S
C1325 C1326 1.392 . S
C1325 C1329 1.495 . S
C1326 C1325 1.392 . S
C1326 C1327 1.385 . S
C1326 C1328 1.478 . S
C1327 H1321 0.930 . S
C1327 C1323 1.400 . S
C1327 C1326 1.385 . S
C1328 C1326 1.478 . S
C1328 C1330 1.381 . S
C1328 C1334 1.383 . S
C1329 C1325 1.495 . S
C1329 H1335 0.959 . S
C1329 H1336 0.961 . S
C1329 H1337 0.960 . S
C1330 C1328 1.381 . S
C1330 C1331 1.394 . S
C1330 H1338 0.930 . S
C1331 C1330 1.394 . S
C1331 C1332 1.383 . S
C1331 H1339 0.929 . S
C1332 C1331 1.383 . S
C1332 C1333 1.377 . S
C1333 H1317 0.930 . S
C1333 C1332 1.377 . S
C1333 C1334 1.379 . S
C1334 H1318 0.931 . S
C1334 C1328 1.383 . S
C1334 C1333 1.379 . S
H1335 C1329 0.959 . S
H1336 C1329 0.961 . S
H1337 C1329 0.960 . S
H1338 C1330 0.930 . S
H1339 C1331 0.929 . S
H1340 C1348 0.929 . S
H1341 C1350 0.930 . S
H1342 C1352 0.930 . S
H1343 C1355 0.929 . S
H1344 C1358 0.930 . S
H1345 C1360 0.960 . S
H1346 C1360 0.960 . S
H1347 C1360 0.960 . S
C1348 H1340 0.929 . S
C1348 C1349 1.377 . S
C1348 C1350 1.384 . S
C1349 C1348 1.377 . S
C1349 C1355 1.390 . S
C1350 H1341 0.930 . S
C1350 C1348 1.384 . S
C1350 C1351 1.372 . S
C1351 C1350 1.372 . S
C1351 C1352 1.400 . S
C1351 C1356 1.490 . S
C1352 H1342 0.930 . S
C1352 C1351 1.400 . S
C1352 C1355 1.386 . S
H1353 C1369 0.930 . S
H1354 C1370 0.931 . S
C1355 H1343 0.929 . S
C1355 C1349 1.390 . S
C1355 C1352 1.386 . S
C1356 C1351 1.490 . S
C1356 C1358 1.395 . S
C1356 C1359 1.403 . S
H1357 C1363 0.930 . S
C1358 H1344 0.930 . S
C1358 C1356 1.395 . S
C1358 C1361 1.403 . S
C1359 C1356 1.403 . S
C1359 C1360 1.524 . S
C1359 C1363 1.400 . S
C1360 H1345 0.960 . S
C1360 H1346 0.960 . S
C1360 H1347 0.960 . S
C1360 C1359 1.524 . S
C1361 C1358 1.403 . S
C1361 C1362 1.392 . S
C1361 C1365 1.495 . S
C1362 C1361 1.392 . S
C1362 C1363 1.385 . S
C1362 C1364 1.478 . S
C1363 H1357 0.930 . S
C1363 C1359 1.400 . S
C1363 C1362 1.385 . S
C1364 C1362 1.478 . S
C1364 C1366 1.381 . S
C1364 C1370 1.383 . S
C1365 C1361 1.495 . S
C1365 H1371 0.959 . S
C1365 H1372 0.961 . S
C1365 H1373 0.960 . S
C1366 C1364 1.381 . S
C1366 C1367 1.394 . S
C1366 H1374 0.930 . S
C1367 C1366 1.394 . S
C1367 C1368 1.383 . S
C1367 H1375 0.929 . S
C1368 C1367 1.383 . S
C1368 C1369 1.377 . S
C1369 H1353 0.930 . S
C1369 C1368 1.377 . S
C1369 C1370 1.379 . S
C1370 H1354 0.931 . S
C1370 C1364 1.383 . S
C1370 C1369 1.379 . S
H1371 C1365 0.959 . S
H1372 C1365 0.961 . S
H1373 C1365 0.960 . S
H1374 C1366 0.930 . S
H1375 C1367 0.929 . S
H1376 C1384 0.929 . S
H1377 C1386 0.930 . S
H1378 C1388 0.930 . S
H1379 C1391 0.929 . S
H1380 C1394 0.930 . S
H1381 C1396 0.960 . S
H1382 C1396 0.960 . S
H1383 C1396 0.960 . S
C1384 H1376 0.929 . S
C1384 C1385 1.377 . S
C1384 C1386 1.384 . S
C1385 C1384 1.377 . S
C1385 C1391 1.390 . S
C1386 H1377 0.930 . S
C1386 C1384 1.384 . S
C1386 C1387 1.372 . S
C1387 C1386 1.372 . S
C1387 C1388 1.400 . S
C1387 C1392 1.490 . S
C1388 H1378 0.930 . S
C1388 C1387 1.400 . S
C1388 C1391 1.386 . S
H1389 C1405 0.930 . S
H1390 C1406 0.931 . S
C1391 H1379 0.929 . S
C1391 C1385 1.390 . S
C1391 C1388 1.386 . S
C1392 C1387 1.490 . S
C1392 C1394 1.395 . S
C1392 C1395 1.403 . S
H1393 C1399 0.930 . S
C1394 H1380 0.930 . S
C1394 C1392 1.395 . S
C1394 C1397 1.403 . S
C1395 C1392 1.403 . S
C1395 C1396 1.524 . S
C1395 C1399 1.400 . S
C1396 H1381 0.960 . S
C1396 H1382 0.960 . S
C1396 H1383 0.960 . S
C1396 C1395 1.524 . S
C1397 C1394 1.403 . S
C1397 C1398 1.392 . S
C1397 C1401 1.495 . S
C1398 C1397 1.392 . S
C1398 C1399 1.385 . S
C1398 C1400 1.478 . S
C1399 H1393 0.930 . S
C1399 C1395 1.400 . S
C1399 C1398 1.385 . S
C1400 C1398 1.478 . S
C1400 C1402 1.381 . S
C1400 C1406 1.383 . S
C1401 C1397 1.495 . S
C1401 H1407 0.959 . S
C1401 H1408 0.961 . S
C1401 H1409 0.960 . S
C1402 C1400 1.381 . S
C1402 C1403 1.394 . S
C1402 H1410 0.930 . S
C1403 C1402 1.394 . S
C1403 C1404 1.383 . S
C1403 H1411 0.929 . S
C1404 C1403 1.383 . S
C1404 C1405 1.377 . S
C1405 H1389 0.930 . S
C1405 C1404 1.377 . S
C1405 C1406 1.379 . S
C1406 H1390 0.931 . S
C1406 C1400 1.383 . S
C1406 C1405 1.379 . S
H1407 C1401 0.959 . S
H1408 C1401 0.961 . S
H1409 C1401 0.960 . S
H1410 C1402 0.930 . S
H1411 C1403 0.929 . S
H1412 C1420 0.929 . S
H1413 C1422 0.930 . S
H1414 C1424 0.930 . S
H1415 C1427 0.929 . S
H1416 C1430 0.930 . S
H1417 C1432 0.960 . S
H1418 C1432 0.960 . S
H1419 C1432 0.960 . S
C1420 H1412 0.929 . S
C1420 C1421 1.377 . S
C1420 C1422 1.384 . S
C1421 C1420 1.377 . S
C1421 C1427 1.390 . S
C1422 H1413 0.930 . S
C1422 C1420 1.384 . S
C1422 C1423 1.372 . S
C1423 C1422 1.372 . S
C1423 C1424 1.400 . S
C1423 C1428 1.490 . S
C1424 H1414 0.930 . S
C1424 C1423 1.400 . S
C1424 C1427 1.386 . S
H1425 C1441 0.930 . S
H1426 C1442 0.931 . S
C1427 H1415 0.929 . S
C1427 C1421 1.390 . S
C1427 C1424 1.386 . S
C1428 C1423 1.490 . S
C1428 C1430 1.395 . S
C1428 C1431 1.403 . S
H1429 C1435 0.930 . S
C1430 H1416 0.930 . S
C1430 C1428 1.395 . S
C1430 C1433 1.403 . S
C1431 C1428 1.403 . S
C1431 C1432 1.524 . S
C1431 C1435 1.400 . S
C1432 H1417 0.960 . S
C1432 H1418 0.960 . S
C1432 H1419 0.960 . S
C1432 C1431 1.524 . S
C1433 C1430 1.403 . S
C1433 C1434 1.392 . S
C1433 C1437 1.495 . S
C1434 C1433 1.392 . S
C1434 C1435 1.385 . S
C1434 C1436 1.478 . S
C1435 H1429 0.930 . S
C1435 C1431 1.400 . S
C1435 C1434 1.385 . S
C1436 C1434 1.478 . S
C1436 C1438 1.381 . S
C1436 C1442 1.383 . S
C1437 C1433 1.495 . S
C1437 H1443 0.959 . S
C1437 H1444 0.961 . S
C1437 H1445 0.960 . S
C1438 C1436 1.381 . S
C1438 C1439 1.394 . S
C1438 H1446 0.930 . S
C1439 C1438 1.394 . S
C1439 C1440 1.383 . S
C1439 H1447 0.929 . S
C1440 C1439 1.383 . S
C1440 C1441 1.377 . S
C1441 H1425 0.930 . S
C1441 C1440 1.377 . S
C1441 C1442 1.379 . S
C1442 H1426 0.931 . S
C1442 C1436 1.383 . S
C1442 C1441 1.379 . S
H1443 C1437 0.959 . S
H1444 C1437 0.961 . S
H1445 C1437 0.960 . S
H1446 C1438 0.930 . S
H1447 C1439 0.929 . S
H1448 C1456 0.929 . S
H1449 C1458 0.930 . S
H1450 C1460 0.930 . S
H1451 C1463 0.929 . S
H1452 C1466 0.930 . S
H1453 C1468 0.960 . S
H1454 C1468 0.960 . S
H1455 C1468 0.960 . S
C1456 H1448 0.929 . S
C1456 C1457 1.377 . S
C1456 C1458 1.384 . S
C1457 C1456 1.377 . S
C1457 C1463 1.390 . S
C1458 H1449 0.930 . S
C1458 C1456 1.384 . S
C1458 C1459 1.372 . S
C1459 C1458 1.372 . S
C1459 C1460 1.400 . S
C1459 C1464 1.490 . S
C1460 H1450 0.930 . S
C1460 C1459 1.400 . S
C1460 C1463 1.386 . S
H1461 C1477 0.930 . S
H1462 C1478 0.931 . S
C1463 H1451 0.929 . S
C1463 C1457 1.390 . S
C1463 C1460 1.386 . S
C1464 C1459 1.490 . S
C1464 C1466 1.395 . S
C1464 C1467 1.403 . S
H1465 C1471 0.930 . S
C1466 H1452 0.930 . S
C1466 C1464 1.395 . S
C1466 C1469 1.403 . S
C1467 C1464 1.403 . S
C1467 C1468 1.524 . S
C1467 C1471 1.400 . S
C1468 H1453 0.960 . S
C1468 H1454 0.960 . S
C1468 H1455 0.960 . S
C1468 C1467 1.524 . S
C1469 C1466 1.403 . S
C1469 C1470 1.392 . S
C1469 C1473 1.495 . S
C1470 C1469 1.392 . S
C1470 C1471 1.385 . S
C1470 C1472 1.478 . S
C1471 H1465 0.930 . S
C1471 C1467 1.400 . S
C1471 C1470 1.385 . S
C1472 C1470 1.478 . S
C1472 C1474 1.381 . S
C1472 C1478 1.383 . S
C1473 C1469 1.495 . S
C1473 H1479 0.959 . S
C1473 H1480 0.961 . S
C1473 H1481 0.960 . S
C1474 C1472 1.381 . S
C1474 C1475 1.394 . S
C1474 H1482 0.930 . S
C1475 C1474 1.394 . S
C1475 C1476 1.383 . S
C1475 H1483 0.929 . S
C1476 C1475 1.383 . S
C1476 C1477 1.377 . S
C1477 H1461 0.930 . S
C1477 C1476 1.377 . S
C1477 C1478 1.379 . S
C1478 H1462 0.931 . S
C1478 C1472 1.383 . S
C1478 C1477 1.379 . S
H1479 C1473 0.959 . S
H1480 C1473 0.961 . S
H1481 C1473 0.960 . S
H1482 C1474 0.930 . S
H1483 C1475 0.929 . S
H1484 C1492 0.929 . S
H1485 C1494 0.930 . S
H1486 C1496 0.930 . S
H1487 C1499 0.929 . S
H1488 C1502 0.930 . S
H1489 C1504 0.960 . S
H1490 C1504 0.960 . S
H1491 C1504 0.960 . S
C1492 H1484 0.929 . S
C1492 C1493 1.377 . S
C1492 C1494 1.384 . S
C1493 C1492 1.377 . S
C1493 C1499 1.390 . S
C1494 H1485 0.930 . S
C1494 C1492 1.384 . S
C1494 C1495 1.372 . S
C1495 C1494 1.372 . S
C1495 C1496 1.400 . S
C1495 C1500 1.490 . S
C1496 H1486 0.930 . S
C1496 C1495 1.400 . S
C1496 C1499 1.386 . S
H1497 C1513 0.930 . S
H1498 C1514 0.931 . S
C1499 H1487 0.929 . S
C1499 C1493 1.390 . S
C1499 C1496 1.386 . S
C1500 C1495 1.490 . S
C1500 C1502 1.395 . S
C1500 C1503 1.403 . S
H1501 C1507 0.930 . S
C1502 H1488 0.930 . S
C1502 C1500 1.395 . S
C1502 C1505 1.403 . S
C1503 C1500 1.403 . S
C1503 C1504 1.524 . S
C1503 C1507 1.400 . S
C1504 H1489 0.960 . S
C1504 H1490 0.960 . S
C1504 H1491 0.960 . S
C1504 C1503 1.524 . S
C1505 C1502 1.403 . S
C1505 C1506 1.392 . S
C1505 C1509 1.495 . S
C1506 C1505 1.392 . S
C1506 C1507 1.385 . S
C1506 C1508 1.478 . S
C1507 H1501 0.930 . S
C1507 C1503 1.400 . S
C1507 C1506 1.385 . S
C1508 C1506 1.478 . S
C1508 C1510 1.381 . S
C1508 C1514 1.383 . S
C1509 C1505 1.495 . S
C1509 H1515 0.959 . S
C1509 H1516 0.961 . S
C1509 H1517 0.960 . S
C1510 C1508 1.381 . S
C1510 C1511 1.394 . S
C1510 H1518 0.930 . S
C1511 C1510 1.394 . S
C1511 C1512 1.383 . S
C1511 H1519 0.929 . S
C1512 C1511 1.383 . S
C1512 C1513 1.377 . S
C1513 H1497 0.930 . S
C1513 C1512 1.377 . S
C1513 C1514 1.379 . S
C1514 H1498 0.931 . S
C1514 C1508 1.383 . S
C1514 C1513 1.379 . S
H1515 C1509 0.959 . S
H1516 C1509 0.961 . S
H1517 C1509 0.960 . S
H1518 C1510 0.930 . S
H1519 C1511 0.929 . S
H1520 C1528 0.929 . S
H1521 C1530 0.930 . S
H1522 C1532 0.930 . S
H1523 C1535 0.929 . S
H1524 C1538 0.930 1_655 S
H1525 C1540 0.960 . S
H1526 C1540 0.960 . S
H1527 C1540 0.960 . S
C1528 H1520 0.929 . S
C1528 C1529 1.377 . S
C1528 C1530 1.384 . S
C1529 C1528 1.377 . S
C1529 C1535 1.390 . S
C1530 H1521 0.930 . S
C1530 C1528 1.384 . S
C1530 C1531 1.372 . S
C1531 C1530 1.372 . S
C1531 C1532 1.400 . S
C1531 C1536 1.490 . S
C1532 H1522 0.930 . S
C1532 C1531 1.400 . S
C1532 C1535 1.386 . S
H1533 C1549 0.930 . S
H1534 C1550 0.931 . S
C1535 H1523 0.929 . S
C1535 C1529 1.390 . S
C1535 C1532 1.386 . S
C1536 C1531 1.490 . S
C1536 C1538 1.395 . S
C1536 C1539 1.403 . S
H1537 C1543 0.930 . S
C1538 H1524 0.930 1_455 S
C1538 C1536 1.395 . S
C1538 C1541 1.403 . S
C1539 C1536 1.403 . S
C1539 C1540 1.524 . S
C1539 C1543 1.400 . S
C1540 H1525 0.960 . S
C1540 H1526 0.960 . S
C1540 H1527 0.960 . S
C1540 C1539 1.524 . S
C1541 C1538 1.403 . S
C1541 C1542 1.392 . S
C1541 C1545 1.495 1_455 S
C1542 C1541 1.392 . S
C1542 C1543 1.385 . S
C1542 C1544 1.478 . S
C1543 H1537 0.930 . S
C1543 C1539 1.400 . S
C1543 C1542 1.385 . S
C1544 C1542 1.478 . S
C1544 C1546 1.381 . S
C1544 C1550 1.383 . S
C1545 C1541 1.495 1_655 S
C1545 H1551 0.959 . S
C1545 H1552 0.961 . S
C1545 H1553 0.960 . S
C1546 C1544 1.381 . S
C1546 C1547 1.394 . S
C1546 H1554 0.930 . S
C1547 C1546 1.394 . S
C1547 C1548 1.383 . S
C1547 H1555 0.929 . S
C1548 C1547 1.383 . S
C1548 C1549 1.377 . S
C1549 H1533 0.930 . S
C1549 C1548 1.377 . S
C1549 C1550 1.379 . S
C1550 H1534 0.931 . S
C1550 C1544 1.383 . S
C1550 C1549 1.379 . S
H1551 C1545 0.959 . S
H1552 C1545 0.961 . S
H1553 C1545 0.960 . S
H1554 C1546 0.930 . S
H1555 C1547 0.929 . S
H1556 C1564 0.929 . S
H1557 C1566 0.930 . S
H1558 C1568 0.930 . S
H1559 C1571 0.929 . S
H1560 C1574 0.930 . S
H1561 C1576 0.960 . S
H1562 C1576 0.960 . S
H1563 C1576 0.960 . S
C1564 H1556 0.929 . S
C1564 C1565 1.377 . S
C1564 C1566 1.384 . S
C1565 C1564 1.377 . S
C1565 C1571 1.390 . S
C1566 H1557 0.930 . S
C1566 C1564 1.384 . S
C1566 C1567 1.372 . S
C1567 C1566 1.372 . S
C1567 C1568 1.400 . S
C1567 C1572 1.490 . S
C1568 H1558 0.930 . S
C1568 C1567 1.400 . S
C1568 C1571 1.386 . S
H1569 C1585 0.930 . S
H1570 C1586 0.931 . S
C1571 H1559 0.929 . S
C1571 C1565 1.390 . S
C1571 C1568 1.386 . S
C1572 C1567 1.490 . S
C1572 C1574 1.395 . S
C1572 C1575 1.403 . S
H1573 C1579 0.930 . S
C1574 H1560 0.930 . S
C1574 C1572 1.395 . S
C1574 C1577 1.403 . S
C1575 C1572 1.403 . S
C1575 C1576 1.524 . S
C1575 C1579 1.400 . S
C1576 H1561 0.960 . S
C1576 H1562 0.960 . S
C1576 H1563 0.960 . S
C1576 C1575 1.524 . S
C1577 C1574 1.403 . S
C1577 C1578 1.392 . S
C1577 C1581 1.495 . S
C1578 C1577 1.392 . S
C1578 C1579 1.385 . S
C1578 C1580 1.478 . S
C1579 H1573 0.930 . S
C1579 C1575 1.400 . S
C1579 C1578 1.385 . S
C1580 C1578 1.478 . S
C1580 C1582 1.381 . S
C1580 C1586 1.383 . S
C1581 C1577 1.495 . S
C1581 H1587 0.959 . S
C1581 H1588 0.961 . S
C1581 H1589 0.960 . S
C1582 C1580 1.381 . S
C1582 C1583 1.394 . S
C1582 H1590 0.930 . S
C1583 C1582 1.394 . S
C1583 C1584 1.383 . S
C1583 H1591 0.929 . S
C1584 C1583 1.383 . S
C1584 C1585 1.377 . S
C1585 H1569 0.930 . S
C1585 C1584 1.377 . S
C1585 C1586 1.379 . S
C1586 H1570 0.931 . S
C1586 C1580 1.383 . S
C1586 C1585 1.379 . S
H1587 C1581 0.959 . S
H1588 C1581 0.961 . S
H1589 C1581 0.960 . S
H1590 C1582 0.930 . S
H1591 C1583 0.929 . S
H1592 C1600 0.929 . S
H1593 C1602 0.930 . S
H1594 C1604 0.930 . S
H1595 C1607 0.929 . S
H1596 C1610 0.930 . S
H1597 C1612 0.960 . S
H1598 C1612 0.960 . S
H1599 C1612 0.960 . S
C1600 H1592 0.929 . S
C1600 C1601 1.377 . S
C1600 C1602 1.384 . S
C1601 C1600 1.377 . S
C1601 C1607 1.390 . S
C1602 H1593 0.930 . S
C1602 C1600 1.384 . S
C1602 C1603 1.372 . S
C1603 C1602 1.372 . S
C1603 C1604 1.400 . S
C1603 C1608 1.490 . S
C1604 H1594 0.930 . S
C1604 C1603 1.400 . S
C1604 C1607 1.386 . S
H1605 C1621 0.930 . S
H1606 C1622 0.931 . S
C1607 H1595 0.929 . S
C1607 C1601 1.390 . S
C1607 C1604 1.386 . S
C1608 C1603 1.490 . S
C1608 C1610 1.395 . S
C1608 C1611 1.403 . S
H1609 C1615 0.930 . S
C1610 H1596 0.930 . S
C1610 C1608 1.395 . S
C1610 C1613 1.403 . S
C1611 C1608 1.403 . S
C1611 C1612 1.524 . S
C1611 C1615 1.400 . S
C1612 H1597 0.960 . S
C1612 H1598 0.960 . S
C1612 H1599 0.960 . S
C1612 C1611 1.524 . S
C1613 C1610 1.403 . S
C1613 C1614 1.392 . S
C1613 C1617 1.495 . S
C1614 C1613 1.392 . S
C1614 C1615 1.385 . S
C1614 C1616 1.478 . S
C1615 H1609 0.930 . S
C1615 C1611 1.400 . S
C1615 C1614 1.385 . S
C1616 C1614 1.478 . S
C1616 C1618 1.381 . S
C1616 C1622 1.383 . S
C1617 C1613 1.495 . S
C1617 H1623 0.959 . S
C1617 H1624 0.961 . S
C1617 H1625 0.960 . S
C1618 C1616 1.381 . S
C1618 C1619 1.394 . S
C1618 H1626 0.930 . S
C1619 C1618 1.394 . S
C1619 C1620 1.383 . S
C1619 H1627 0.929 . S
C1620 C1619 1.383 . S
C1620 C1621 1.377 . S
C1621 H1605 0.930 . S
C1621 C1620 1.377 . S
C1621 C1622 1.379 . S
C1622 H1606 0.931 . S
C1622 C1616 1.383 . S
C1622 C1621 1.379 . S
H1623 C1617 0.959 . S
H1624 C1617 0.961 . S
H1625 C1617 0.960 . S
H1626 C1618 0.930 . S
H1627 C1619 0.929 . S
H1628 C1636 0.929 . S
H1629 C1638 0.930 . S
H1630 C1640 0.930 . S
H1631 C1643 0.929 . S
H1632 C1646 0.930 . S
H1633 C1648 0.960 . S
H1634 C1648 0.960 . S
H1635 C1648 0.960 . S
C1636 H1628 0.929 . S
C1636 C1637 1.377 . S
C1636 C1638 1.384 . S
C1637 C1636 1.377 . S
C1637 C1643 1.390 . S
C1638 H1629 0.930 . S
C1638 C1636 1.384 . S
C1638 C1639 1.372 . S
C1639 C1638 1.372 . S
C1639 C1640 1.400 . S
C1639 C1644 1.490 . S
C1640 H1630 0.930 . S
C1640 C1639 1.400 . S
C1640 C1643 1.386 . S
H1641 C1657 0.930 . S
H1642 C1658 0.931 . S
C1643 H1631 0.929 . S
C1643 C1637 1.390 . S
C1643 C1640 1.386 . S
C1644 C1639 1.490 . S
C1644 C1646 1.395 . S
C1644 C1647 1.403 . S
H1645 C1651 0.930 . S
C1646 H1632 0.930 . S
C1646 C1644 1.395 . S
C1646 C1649 1.403 . S
C1647 C1644 1.403 . S
C1647 C1648 1.524 . S
C1647 C1651 1.400 . S
C1648 H1633 0.960 . S
C1648 H1634 0.960 . S
C1648 H1635 0.960 . S
C1648 C1647 1.524 . S
C1649 C1646 1.403 . S
C1649 C1650 1.392 . S
C1649 C1653 1.495 . S
C1650 C1649 1.392 . S
C1650 C1651 1.385 . S
C1650 C1652 1.478 . S
C1651 H1645 0.930 . S
C1651 C1647 1.400 . S
C1651 C1650 1.385 . S
C1652 C1650 1.478 . S
C1652 C1654 1.381 . S
C1652 C1658 1.383 . S
C1653 C1649 1.495 . S
C1653 H1659 0.959 . S
C1653 H1660 0.961 . S
C1653 H1661 0.960 . S
C1654 C1652 1.381 . S
C1654 C1655 1.394 . S
C1654 H1662 0.930 . S
C1655 C1654 1.394 . S
C1655 C1656 1.383 . S
C1655 H1663 0.929 . S
C1656 C1655 1.383 . S
C1656 C1657 1.377 . S
C1657 H1641 0.930 . S
C1657 C1656 1.377 . S
C1657 C1658 1.379 . S
C1658 H1642 0.931 . S
C1658 C1652 1.383 . S
C1658 C1657 1.379 . S
H1659 C1653 0.959 . S
H1660 C1653 0.961 . S
H1661 C1653 0.960 . S
H1662 C1654 0.930 . S
H1663 C1655 0.929 . S
H1664 C1672 0.909 1_655 S
H1665 C1674 0.944 . S
H1666 C1676 0.930 . S
H1667 C1679 0.929 . S
H1668 C1682 0.930 . S
H1669 C1684 0.960 . S
H1670 C1684 0.960 . S
H1671 C1684 0.960 1_455 S
C1672 H1664 0.909 1_455 S
C1672 C1673 1.394 . S
C1672 C1674 1.393 1_455 S
C1673 C1672 1.394 . S
C1673 C1679 1.390 . S
C1674 H1665 0.944 . S
C1674 C1672 1.393 1_655 S
C1674 C1675 1.355 1_655 S
C1675 C1674 1.355 1_455 S
C1675 C1676 1.400 . S
C1675 C1680 1.490 . S
C1676 H1666 0.930 . S
C1676 C1675 1.400 . S
C1676 C1679 1.386 . S
H1677 C1693 0.930 . S
H1678 C1694 0.931 . S
C1679 H1667 0.929 . S
C1679 C1673 1.390 . S
C1679 C1676 1.386 . S
C1680 C1675 1.490 . S
C1680 C1682 1.395 . S
C1680 C1683 1.403 . S
H1681 C1687 0.917 1_655 S
C1682 H1668 0.930 . S
C1682 C1680 1.395 . S
C1682 C1685 1.403 . S
C1683 C1680 1.403 . S
C1683 C1684 1.524 1_455 S
C1683 C1687 1.400 . S
C1684 H1669 0.960 . S
C1684 H1670 0.960 . S
C1684 H1671 0.960 1_655 S
C1684 C1683 1.524 1_655 S
C1685 C1682 1.403 . S
C1685 C1686 1.392 . S
C1685 C1689 1.495 . S
C1686 C1685 1.392 . S
C1686 C1687 1.385 . S
C1686 C1688 1.478 . S
C1687 H1681 0.917 1_455 S
C1687 C1683 1.400 . S
C1687 C1686 1.385 . S
C1688 C1686 1.478 . S
C1688 C1690 1.381 1_455 S
C1688 C1694 1.383 . S
C1689 C1685 1.495 . S
C1689 H1695 0.959 . S
C1689 H1696 0.961 . S
C1689 H1697 0.960 . S
C1690 C1688 1.381 1_655 S
C1690 C1691 1.394 . S
C1690 H1698 0.930 . S
C1691 C1690 1.394 . S
C1691 C1692 1.383 1_655 S
C1691 H1699 0.929 . S
C1692 C1691 1.383 1_455 S
C1692 C1693 1.377 . S
C1693 H1677 0.930 . S
C1693 C1692 1.377 . S
C1693 C1694 1.379 . S
C1694 H1678 0.931 . S
C1694 C1688 1.383 . S
C1694 C1693 1.379 . S
H1695 C1689 0.959 . S
H1696 C1689 0.961 . S
H1697 C1689 0.960 . S
H1698 C1690 0.930 . S
H1699 C1691 0.929 . S
H1700 C1708 0.929 . S
H1701 C1710 0.930 . S
H1702 C1712 0.930 . S
H1703 C1715 0.929 . S
H1704 C1718 0.930 . S
H1705 C1720 0.960 . S
H1706 C1720 0.960 . S
H1707 C1720 0.960 . S
C1708 H1700 0.929 . S
C1708 C1709 1.377 . S
C1708 C1710 1.384 . S
C1709 C1708 1.377 . S
C1709 C1715 1.390 . S
C1710 H1701 0.930 . S
C1710 C1708 1.384 . S
C1710 C1711 1.372 . S
C1711 C1710 1.372 . S
C1711 C1712 1.400 . S
C1711 C1716 1.490 . S
C1712 H1702 0.930 . S
C1712 C1711 1.400 . S
C1712 C1715 1.386 . S
H1713 C1729 0.930 . S
H1714 C1730 0.931 . S
C1715 H1703 0.929 . S
C1715 C1709 1.390 . S
C1715 C1712 1.386 . S
C1716 C1711 1.490 . S
C1716 C1718 1.395 . S
C1716 C1719 1.403 . S
H1717 C1723 0.930 . S
C1718 H1704 0.930 . S
C1718 C1716 1.395 . S
C1718 C1721 1.403 . S
C1719 C1716 1.403 . S
C1719 C1720 1.524 . S
C1719 C1723 1.400 . S
C1720 H1705 0.960 . S
C1720 H1706 0.960 . S
C1720 H1707 0.960 . S
C1720 C1719 1.524 . S
C1721 C1718 1.403 . S
C1721 C1722 1.392 . S
C1721 C1725 1.495 . S
C1722 C1721 1.392 . S
C1722 C1723 1.385 . S
C1722 C1724 1.478 . S
C1723 H1717 0.930 . S
C1723 C1719 1.400 . S
C1723 C1722 1.385 . S
C1724 C1722 1.478 . S
C1724 C1726 1.381 . S
C1724 C1730 1.383 . S
C1725 C1721 1.495 . S
C1725 H1731 0.959 . S
C1725 H1732 0.961 . S
C1725 H1733 0.960 . S
C1726 C1724 1.381 . S
C1726 C1727 1.394 . S
C1726 H1734 0.930 . S
C1727 C1726 1.394 . S
C1727 C1728 1.383 . S
C1727 H1735 0.929 . S
C1728 C1727 1.383 . S
C1728 C1729 1.377 . S
C1729 H1713 0.930 . S
C1729 C1728 1.377 . S
C1729 C1730 1.379 . S
C1730 H1714 0.931 . S
C1730 C1724 1.383 . S
C1730 C1729 1.379 . S
H1731 C1725 0.959 . S
H1732 C1725 0.961 . S
H1733 C1725 0.960 . S
H1734 C1726 0.930 . S
H1735 C1727 0.929 . S
H1736 C1744 0.929 . S
H1737 C1746 0.930 . S
H1738 C1748 0.930 . S
H1739 C1751 0.929 . S
H1740 C1754 0.930 . S
H1741 C1756 0.960 . S
H1742 C1756 0.960 . S
H1743 C1756 0.960 . S
C1744 H1736 0.929 . S
C1744 C1745 1.377 . S
C1744 C1746 1.384 . S
C1745 C1744 1.377 . S
C1745 C1751 1.390 . S
C1746 H1737 0.930 . S
C1746 C1744 1.384 . S
C1746 C1747 1.372 . S
C1747 C1746 1.372 . S
C1747 C1748 1.400 . S
C1747 C1752 1.490 . S
C1748 H1738 0.930 . S
C1748 C1747 1.400 . S
C1748 C1751 1.386 . S
H1749 C1765 0.930 . S
H1750 C1766 0.931 . S
C1751 H1739 0.929 . S
C1751 C1745 1.390 . S
C1751 C1748 1.386 . S
C1752 C1747 1.490 . S
C1752 C1754 1.395 . S
C1752 C1755 1.403 . S
H1753 C1759 0.930 . S
C1754 H1740 0.930 . S
C1754 C1752 1.395 . S
C1754 C1757 1.403 . S
C1755 C1752 1.403 . S
C1755 C1756 1.524 . S
C1755 C1759 1.400 . S
C1756 H1741 0.960 . S
C1756 H1742 0.960 . S
C1756 H1743 0.960 . S
C1756 C1755 1.524 . S
C1757 C1754 1.403 . S
C1757 C1758 1.392 . S
C1757 C1761 1.495 . S
C1758 C1757 1.392 . S
C1758 C1759 1.385 . S
C1758 C1760 1.478 . S
C1759 H1753 0.930 . S
C1759 C1755 1.400 . S
C1759 C1758 1.385 . S
C1760 C1758 1.478 . S
C1760 C1762 1.381 . S
C1760 C1766 1.383 . S
C1761 C1757 1.495 . S
C1761 H1767 0.959 . S
C1761 H1768 1.005 . S
C1761 H1769 0.960 . S
C1762 C1760 1.381 . S
C1762 C1763 1.394 . S
C1762 H1770 0.930 . S
C1763 C1762 1.394 . S
C1763 C1764 1.383 . S
C1763 H1771 0.929 . S
C1764 C1763 1.383 . S
C1764 C1765 1.377 . S
C1765 H1749 0.930 . S
C1765 C1764 1.377 . S
C1765 C1766 1.379 . S
C1766 H1750 0.931 . S
C1766 C1760 1.383 . S
C1766 C1765 1.379 . S
H1767 C1761 0.959 . S
H1768 C1761 1.005 . S
H1769 C1761 0.960 . S
H1770 C1762 0.930 . S
H1771 C1763 0.929 . S
H1772 C1780 0.929 . S
H1773 C1782 0.930 . S
H1774 C1784 0.930 . S
H1775 C1787 0.929 . S
H1776 C1790 0.930 . S
H1777 C1792 0.960 . S
H1778 C1792 0.960 . S
H1779 C1792 0.960 . S
C1780 H1772 0.929 . S
C1780 C1781 1.377 . S
C1780 C1782 1.384 . S
C1781 C1780 1.377 . S
C1781 C1787 1.390 . S
C1782 H1773 0.930 . S
C1782 C1780 1.384 . S
C1782 C1783 1.372 . S
C1783 C1782 1.372 . S
C1783 C1784 1.400 . S
C1783 C1788 1.490 . S
C1784 H1774 0.930 . S
C1784 C1783 1.400 . S
C1784 C1787 1.386 . S
H1785 C1801 0.930 . S
H1786 C1802 0.931 . S
C1787 H1775 0.929 . S
C1787 C1781 1.390 . S
C1787 C1784 1.386 . S
C1788 C1783 1.490 . S
C1788 C1790 1.395 . S
C1788 C1791 1.403 . S
H1789 C1795 0.930 . S
C1790 H1776 0.930 . S
C1790 C1788 1.395 . S
C1790 C1793 1.403 . S
C1791 C1788 1.403 . S
C1791 C1792 1.524 . S
C1791 C1795 1.400 . S
C1792 H1777 0.960 . S
C1792 H1778 0.960 . S
C1792 H1779 0.960 . S
C1792 C1791 1.524 . S
C1793 C1790 1.403 . S
C1793 C1794 1.392 . S
C1793 C1797 1.495 . S
C1794 C1793 1.392 . S
C1794 C1795 1.385 . S
C1794 C1796 1.478 . S
C1795 H1789 0.930 . S
C1795 C1791 1.400 . S
C1795 C1794 1.385 . S
C1796 C1794 1.478 . S
C1796 C1798 1.381 . S
C1796 C1802 1.383 . S
C1797 C1793 1.495 . S
C1797 H1803 0.959 . S
C1797 H1804 0.961 . S
C1797 H1805 0.960 . S
C1798 C1796 1.381 . S
C1798 C1799 1.394 . S
C1798 H1806 0.930 . S
C1799 C1798 1.394 . S
C1799 C1800 1.383 . S
C1799 H1807 0.929 . S
C1800 C1799 1.383 . S
C1800 C1801 1.377 . S
C1801 H1785 0.930 . S
C1801 C1800 1.377 . S
C1801 C1802 1.379 . S
C1802 H1786 0.931 . S
C1802 C1796 1.383 . S
C1802 C1801 1.379 . S
H1803 C1797 0.959 . S
H1804 C1797 0.961 . S
H1805 C1797 0.960 . S
H1806 C1798 0.930 . S
H1807 C1799 0.929 . S
H1808 C1816 0.929 . S
H1809 C1818 0.930 . S
H1810 C1820 0.930 . S
H1811 C1823 0.929 . S
H1812 C1826 0.930 . S
H1813 C1828 0.960 . S
H1814 C1828 0.960 . S
H1815 C1828 0.960 . S
C1816 H1808 0.929 . S
C1816 C1817 1.377 . S
C1816 C1818 1.384 . S
C1817 C1816 1.377 . S
C1817 C1823 1.390 1_545 S
C1818 H1809 0.930 . S
C1818 C1816 1.384 . S
C1818 C1819 1.372 . S
C1819 C1818 1.372 . S
C1819 C1820 1.400 1_545 S
C1819 C1824 1.490 . S
C1820 H1810 0.930 . S
C1820 C1819 1.400 1_565 S
C1820 C1823 1.386 . S
H1821 C1837 0.935 . S
H1822 C1838 0.931 . S
C1823 H1811 0.929 . S
C1823 C1817 1.390 1_565 S
C1823 C1820 1.386 . S
C1824 C1819 1.490 . S
C1824 C1826 1.395 . S
C1824 C1827 1.403 . S
H1825 C1831 0.930 . S
C1826 H1812 0.930 . S
C1826 C1824 1.395 . S
C1826 C1829 1.403 . S
C1827 C1824 1.403 . S
C1827 C1828 1.524 . S
C1827 C1831 1.400 . S
C1828 H1813 0.960 . S
C1828 H1814 0.960 . S
C1828 H1815 0.960 . S
C1828 C1827 1.524 . S
C1829 C1826 1.403 . S
C1829 C1830 1.392 . S
C1829 C1833 1.495 . S
C1830 C1829 1.392 . S
C1830 C1831 1.385 . S
C1830 C1832 1.478 . S
C1831 H1825 0.930 . S
C1831 C1827 1.400 . S
C1831 C1830 1.385 . S
C1832 C1830 1.478 . S
C1832 C1834 1.381 . S
C1832 C1838 1.383 1_545 S
C1833 C1829 1.495 . S
C1833 H1839 0.959 . S
C1833 H1840 0.961 1_545 S
C1833 H1841 0.960 . S
C1834 C1832 1.381 . S
C1834 C1835 1.394 . S
C1834 H1842 0.930 . S
C1835 C1834 1.394 . S
C1835 C1836 1.383 . S
C1835 H1843 0.929 . S
C1836 C1835 1.383 . S
C1836 C1837 1.371 1_545 S
C1837 H1821 0.935 . S
C1837 C1836 1.371 1_565 S
C1837 C1838 1.380 . S
C1838 H1822 0.931 . S
C1838 C1832 1.383 1_565 S
C1838 C1837 1.380 . S
H1839 C1833 0.959 . S
H1840 C1833 0.961 1_565 S
H1841 C1833 0.960 . S
H1842 C1834 0.930 . S
H1843 C1835 0.929 . S
H1844 C1852 0.929 . S
H1845 C1854 0.930 . S
H1846 C1856 0.930 . S
H1847 C1859 0.929 . S
H1848 C1862 0.930 . S
H1849 C1864 0.960 . S
H1850 C1864 0.960 . S
H1851 C1864 0.960 . S
C1852 H1844 0.929 . S
C1852 C1853 1.377 . S
C1852 C1854 1.384 . S
C1853 C1852 1.377 . S
C1853 C1859 1.390 . S
C1854 H1845 0.930 . S
C1854 C1852 1.384 . S
C1854 C1855 1.372 . S
C1855 C1854 1.372 . S
C1855 C1856 1.400 . S
C1855 C1860 1.490 . S
C1856 H1846 0.930 . S
C1856 C1855 1.400 . S
C1856 C1859 1.386 . S
H1857 C1873 0.930 . S
H1858 C1874 0.931 . S
C1859 H1847 0.929 . S
C1859 C1853 1.390 . S
C1859 C1856 1.386 . S
C1860 C1855 1.490 . S
C1860 C1862 1.395 . S
C1860 C1863 1.403 . S
H1861 C1867 0.930 . S
C1862 H1848 0.930 . S
C1862 C1860 1.395 . S
C1862 C1865 1.403 . S
C1863 C1860 1.403 . S
C1863 C1864 1.524 . S
C1863 C1867 1.400 . S
C1864 H1849 0.960 . S
C1864 H1850 0.960 . S
C1864 H1851 0.960 . S
C1864 C1863 1.524 . S
C1865 C1862 1.403 . S
C1865 C1866 1.392 . S
C1865 C1869 1.495 . S
C1866 C1865 1.392 . S
C1866 C1867 1.385 . S
C1866 C1868 1.478 . S
C1867 H1861 0.930 . S
C1867 C1863 1.400 . S
C1867 C1866 1.385 . S
C1868 C1866 1.478 . S
C1868 C1870 1.381 . S
C1868 C1874 1.383 . S
C1869 C1865 1.495 . S
C1869 H1875 0.959 . S
C1869 H1876 0.961 . S
C1869 H1877 0.960 . S
C1870 C1868 1.381 . S
C1870 C1871 1.394 . S
C1870 H1878 0.930 . S
C1871 C1870 1.394 . S
C1871 C1872 1.383 . S
C1871 H1879 0.929 . S
C1872 C1871 1.383 . S
C1872 C1873 1.377 . S
C1873 H1857 0.930 . S
C1873 C1872 1.377 . S
C1873 C1874 1.379 . S
C1874 H1858 0.931 . S
C1874 C1868 1.383 . S
C1874 C1873 1.379 . S
H1875 C1869 0.959 . S
H1876 C1869 0.961 . S
H1877 C1869 0.960 . S
H1878 C1870 0.930 . S
H1879 C1871 0.929 . S
H1880 C1888 0.929 . S
H1881 C1890 0.930 . S
H1882 C1892 0.930 . S
H1883 C1895 0.929 . S
H1884 C1898 0.930 . S
H1885 C1900 0.960 . S
H1886 C1900 0.960 . S
H1887 C1900 0.960 . S
C1888 H1880 0.929 . S
C1888 C1889 1.377 . S
C1888 C1890 1.384 . S
C1889 C1888 1.377 . S
C1889 C1895 1.390 . S
C1890 H1881 0.930 . S
C1890 C1888 1.384 . S
C1890 C1891 1.372 . S
C1891 C1890 1.372 . S
C1891 C1892 1.400 . S
C1891 C1896 1.490 . S
C1892 H1882 0.930 . S
C1892 C1891 1.400 . S
C1892 C1895 1.386 . S
H1893 C1909 0.930 . S
H1894 C1910 0.931 . S
C1895 H1883 0.929 . S
C1895 C1889 1.390 . S
C1895 C1892 1.386 . S
C1896 C1891 1.490 . S
C1896 C1898 1.395 . S
C1896 C1899 1.403 . S
H1897 C1903 0.930 . S
C1898 H1884 0.930 . S
C1898 C1896 1.395 . S
C1898 C1901 1.403 . S
C1899 C1896 1.403 . S
C1899 C1900 1.524 1_545 S
C1899 C1903 1.400 . S
C1900 H1885 0.960 . S
C1900 H1886 0.960 . S
C1900 H1887 0.960 . S
C1900 C1899 1.524 1_565 S
C1901 C1898 1.403 . S
C1901 C1902 1.392 . S
C1901 C1905 1.495 . S
C1902 C1901 1.392 . S
C1902 C1903 1.385 . S
C1902 C1904 1.478 . S
C1903 H1897 0.930 . S
C1903 C1899 1.400 . S
C1903 C1902 1.385 . S
C1904 C1902 1.478 . S
C1904 C1906 1.381 . S
C1904 C1910 1.383 . S
C1905 C1901 1.495 . S
C1905 H1911 0.959 . S
C1905 H1912 0.961 . S
C1905 H1913 0.960 . S
C1906 C1904 1.381 . S
C1906 C1907 1.394 . S
C1906 H1914 0.930 . S
C1907 C1906 1.394 . S
C1907 C1908 1.383 . S
C1907 H1915 0.929 . S
C1908 C1907 1.383 . S
C1908 C1909 1.377 . S
C1909 H1893 0.930 . S
C1909 C1908 1.377 . S
C1909 C1910 1.379 . S
C1910 H1894 0.931 . S
C1910 C1904 1.383 . S
C1910 C1909 1.379 . S
H1911 C1905 0.959 . S
H1912 C1905 0.961 . S
H1913 C1905 0.960 . S
H1914 C1906 0.930 . S
H1915 C1907 0.929 . S
H1916 C1924 0.929 . S
H1917 C1926 0.930 . S
H1918 C1928 0.930 . S
H1919 C1931 0.929 . S
H1920 C1934 0.930 . S
H1921 C1936 0.960 . S
H1922 C1936 0.960 . S
H1923 C1936 0.960 . S
C1924 H1916 0.929 . S
C1924 C1925 1.377 . S
C1924 C1926 1.384 . S
C1925 C1924 1.377 . S
C1925 C1931 1.390 . S
C1926 H1917 0.930 . S
C1926 C1924 1.384 . S
C1926 C1927 1.372 . S
C1927 C1926 1.372 . S
C1927 C1928 1.400 . S
C1927 C1932 1.490 . S
C1928 H1918 0.930 . S
C1928 C1927 1.400 . S
C1928 C1931 1.386 . S
H1929 C1945 0.930 . S
H1930 C1946 0.931 . S
C1931 H1919 0.929 . S
C1931 C1925 1.390 . S
C1931 C1928 1.386 . S
C1932 C1927 1.490 . S
C1932 C1934 1.395 . S
C1932 C1935 1.403 . S
H1933 C1939 0.930 . S
C1934 H1920 0.930 . S
C1934 C1932 1.395 . S
C1934 C1937 1.403 . S
C1935 C1932 1.403 . S
C1935 C1936 1.524 . S
C1935 C1939 1.400 . S
C1936 H1921 0.960 . S
C1936 H1922 0.960 . S
C1936 H1923 0.960 . S
C1936 C1935 1.524 . S
C1937 C1934 1.403 . S
C1937 C1938 1.392 . S
C1937 C1941 1.495 . S
C1938 C1937 1.392 . S
C1938 C1939 1.385 . S
C1938 C1940 1.478 . S
C1939 H1933 0.930 . S
C1939 C1935 1.400 . S
C1939 C1938 1.385 . S
C1940 C1938 1.478 . S
C1940 C1942 1.381 . S
C1940 C1946 1.383 . S
C1941 C1937 1.495 . S
C1941 H1947 0.959 . S
C1941 H1948 0.961 . S
C1941 H1949 0.960 . S
C1942 C1940 1.381 . S
C1942 C1943 1.394 . S
C1942 H1950 0.930 . S
C1943 C1942 1.394 . S
C1943 C1944 1.383 . S
C1943 H1951 0.929 . S
C1944 C1943 1.383 . S
C1944 C1945 1.377 . S
C1945 H1929 0.930 . S
C1945 C1944 1.377 . S
C1945 C1946 1.379 . S
C1946 H1930 0.931 . S
C1946 C1940 1.383 . S
C1946 C1945 1.379 . S
H1947 C1941 0.959 . S
H1948 C1941 0.961 . S
H1949 C1941 0.960 . S
H1950 C1942 0.930 . S
H1951 C1943 0.929 . S
H1952 C1960 0.929 . S
H1953 C1962 0.930 . S
H1954 C1964 0.930 . S
H1955 C1967 0.929 . S
H1956 C1970 0.930 . S
H1957 C1972 0.960 . S
H1958 C1972 0.960 . S
H1959 C1972 0.960 . S
C1960 H1952 0.929 . S
C1960 C1961 1.377 1_545 S
C1960 C1962 1.384 . S
C1961 C1960 1.377 1_565 S
C1961 C1967 1.390 . S
C1962 H1953 0.930 . S
C1962 C1960 1.384 . S
C1962 C1963 1.372 . S
C1963 C1962 1.372 . S
C1963 C1964 1.400 1_545 S
C1963 C1968 1.490 . S
C1964 H1954 0.930 . S
C1964 C1963 1.400 1_565 S
C1964 C1967 1.386 . S
H1965 C1981 0.930 . S
H1966 C1982 0.931 . S
C1967 H1955 0.929 . S
C1967 C1961 1.390 . S
C1967 C1964 1.386 . S
C1968 C1963 1.490 . S
C1968 C1970 1.395 . S
C1968 C1971 1.403 1_545 S
H1969 C1975 0.930 . S
C1970 H1956 0.930 . S
C1970 C1968 1.395 . S
C1970 C1973 1.403 . S
C1971 C1968 1.403 1_565 S
C1971 C1972 1.524 . S
C1971 C1975 1.400 . S
C1972 H1957 0.960 . S
C1972 H1958 0.960 . S
C1972 H1959 0.960 . S
C1972 C1971 1.524 . S
C1973 C1970 1.403 . S
C1973 C1974 1.392 . S
C1973 C1977 1.495 . S
C1974 C1973 1.392 . S
C1974 C1975 1.385 1_545 S
C1974 C1976 1.478 . S
C1975 H1969 0.930 . S
C1975 C1971 1.400 . S
C1975 C1974 1.385 1_565 S
C1976 C1974 1.478 . S
C1976 C1978 1.381 . S
C1976 C1982 1.383 . S
C1977 C1973 1.495 . S
C1977 H1983 0.959 . S
C1977 H1984 0.961 . S
C1977 H1985 0.960 . S
C1978 C1976 1.381 . S
C1978 C1979 1.394 . S
C1978 H1986 0.930 . S
C1979 C1978 1.394 . S
C1979 C1980 1.383 . S
C1979 H1987 0.929 . S
C1980 C1979 1.383 . S
C1980 C1981 1.377 . S
C1981 H1965 0.930 . S
C1981 C1980 1.377 . S
C1981 C1982 1.379 . S
C1982 H1966 0.931 . S
C1982 C1976 1.383 . S
C1982 C1981 1.379 . S
H1983 C1977 0.959 . S
H1984 C1977 0.961 . S
H1985 C1977 0.960 . S
H1986 C1978 0.930 . S
H1987 C1979 0.929 . S
H1988 C1996 0.929 . S
H1989 C1998 0.930 . S
H1990 C2000 0.930 . S
H1991 C2003 0.929 . S
H1992 C2006 0.930 . S
H1993 C2008 0.960 . S
H1994 C2008 0.960 . S
H1995 C2008 0.960 . S
C1996 H1988 0.929 . S
C1996 C1997 1.377 . S
C1996 C1998 1.384 . S
C1997 C1996 1.377 . S
C1997 C2003 1.390 . S
C1998 H1989 0.930 . S
C1998 C1996 1.384 . S
C1998 C1999 1.372 . S
C1999 C1998 1.372 . S
C1999 C2000 1.400 . S
C1999 C2004 1.490 . S
C2000 H1990 0.930 . S
C2000 C1999 1.400 . S
C2000 C2003 1.386 . S
H2001 C2017 0.930 . S
H2002 C2018 0.931 . S
C2003 H1991 0.929 . S
C2003 C1997 1.390 . S
C2003 C2000 1.386 . S
C2004 C1999 1.490 . S
C2004 C2006 1.395 . S
C2004 C2007 1.403 . S
H2005 C2011 0.930 . S
C2006 H1992 0.930 . S
C2006 C2004 1.395 . S
C2006 C2009 1.403 . S
C2007 C2004 1.403 . S
C2007 C2008 1.524 . S
C2007 C2011 1.400 . S
C2008 H1993 0.960 . S
C2008 H1994 0.960 . S
C2008 H1995 0.960 . S
C2008 C2007 1.524 . S
C2009 C2006 1.403 . S
C2009 C2010 1.392 . S
C2009 C2013 1.495 . S
C2010 C2009 1.392 . S
C2010 C2011 1.385 . S
C2010 C2012 1.478 . S
C2011 H2005 0.930 . S
C2011 C2007 1.400 . S
C2011 C2010 1.385 . S
C2012 C2010 1.478 . S
C2012 C2014 1.381 . S
C2012 C2018 1.383 . S
C2013 C2009 1.495 . S
C2013 H2019 0.959 . S
C2013 H2020 0.961 . S
C2013 H2021 0.960 . S
C2014 C2012 1.381 . S
C2014 C2015 1.394 . S
C2014 H2022 0.930 . S
C2015 C2014 1.394 . S
C2015 C2016 1.383 . S
C2015 H2023 0.929 . S
C2016 C2015 1.383 . S
C2016 C2017 1.377 . S
C2017 H2001 0.930 . S
C2017 C2016 1.377 . S
C2017 C2018 1.379 . S
C2018 H2002 0.931 . S
C2018 C2012 1.383 . S
C2018 C2017 1.379 . S
H2019 C2013 0.959 . S
H2020 C2013 0.961 . S
H2021 C2013 0.960 . S
H2022 C2014 0.930 . S
H2023 C2015 0.929 . S
H2024 C2032 0.929 . S
H2025 C2034 0.932 . S
H2026 C2036 0.930 . S
H2027 C2039 0.929 . S
H2028 C2042 0.930 . S
H2029 C2044 0.960 . S
H2030 C2044 0.960 . S
H2031 C2044 0.960 . S
C2032 H2024 0.929 . S
C2032 C2033 1.377 . S
C2032 C2034 1.384 . S
C2033 C2032 1.377 . S
C2033 C2039 1.390 . S
C2034 H2025 0.932 . S
C2034 C2032 1.384 . S
C2034 C2035 1.372 . S
C2035 C2034 1.372 . S
C2035 C2036 1.400 . S
C2035 C2040 1.490 . S
C2036 H2026 0.930 . S
C2036 C2035 1.400 . S
C2036 C2039 1.386 . S
H2037 C2053 0.930 . S
H2038 C2054 0.931 . S
C2039 H2027 0.929 . S
C2039 C2033 1.390 . S
C2039 C2036 1.386 . S
C2040 C2035 1.490 . S
C2040 C2042 1.395 . S
C2040 C2043 1.403 . S
H2041 C2047 0.930 . S
C2042 H2028 0.930 . S
C2042 C2040 1.395 . S
C2042 C2045 1.403 . S
C2043 C2040 1.403 . S
C2043 C2044 1.524 . S
C2043 C2047 1.400 . S
C2044 H2029 0.960 . S
C2044 H2030 0.960 . S
C2044 H2031 0.960 . S
C2044 C2043 1.524 . S
C2045 C2042 1.403 . S
C2045 C2046 1.392 . S
C2045 C2049 1.495 . S
C2046 C2045 1.392 . S
C2046 C2047 1.385 . S
C2046 C2048 1.478 . S
C2047 H2041 0.930 . S
C2047 C2043 1.400 . S
C2047 C2046 1.385 . S
C2048 C2046 1.478 . S
C2048 C2050 1.381 . S
C2048 C2054 1.383 . S
C2049 C2045 1.495 . S
C2049 H2055 0.959 . S
C2049 H2056 0.961 . S
C2049 H2057 0.960 . S
C2050 C2048 1.381 . S
C2050 C2051 1.394 1_545 S
C2050 H2058 0.930 1_545 S
C2051 C2050 1.394 1_565 S
C2051 C2052 1.385 1_565 S
C2051 H2059 0.928 . S
C2052 C2051 1.385 1_545 S
C2052 C2053 1.377 . S
C2053 H2037 0.930 . S
C2053 C2052 1.377 . S
C2053 C2054 1.379 . S
C2054 H2038 0.931 . S
C2054 C2048 1.383 . S
C2054 C2053 1.379 . S
H2055 C2049 0.959 . S
H2056 C2049 0.961 . S
H2057 C2049 0.960 . S
H2058 C2050 0.930 1_565 S
H2059 C2051 0.928 . S
H2060 C2068 0.929 . S
H2061 C2070 0.930 . S
H2062 C2072 0.930 . S
H2063 C2075 0.929 . S
H2064 C2078 0.930 . S
H2065 C2080 0.960 . S
H2066 C2080 0.960 . S
H2067 C2080 0.960 . S
C2068 H2060 0.929 . S
C2068 C2069 1.377 . S
C2068 C2070 1.384 . S
C2069 C2068 1.377 . S
C2069 C2075 1.390 . S
C2070 H2061 0.930 . S
C2070 C2068 1.384 . S
C2070 C2071 1.372 . S
C2071 C2070 1.372 . S
C2071 C2072 1.400 . S
C2071 C2076 1.490 . S
C2072 H2062 0.930 . S
C2072 C2071 1.400 . S
C2072 C2075 1.386 . S
H2073 C2089 0.930 . S
H2074 C2090 0.931 . S
C2075 H2063 0.929 . S
C2075 C2069 1.390 . S
C2075 C2072 1.386 . S
C2076 C2071 1.490 . S
C2076 C2078 1.395 . S
C2076 C2079 1.403 . S
H2077 C2083 0.930 . S
C2078 H2064 0.930 . S
C2078 C2076 1.395 . S
C2078 C2081 1.403 . S
C2079 C2076 1.403 . S
C2079 C2080 1.524 . S
C2079 C2083 1.400 . S
C2080 H2065 0.960 . S
C2080 H2066 0.960 . S
C2080 H2067 0.960 . S
C2080 C2079 1.524 . S
C2081 C2078 1.403 . S
C2081 C2082 1.392 . S
C2081 C2085 1.495 . S
C2082 C2081 1.392 . S
C2082 C2083 1.385 . S
C2082 C2084 1.478 . S
C2083 H2077 0.930 . S
C2083 C2079 1.400 . S
C2083 C2082 1.385 . S
C2084 C2082 1.478 . S
C2084 C2086 1.381 . S
C2084 C2090 1.383 . S
C2085 C2081 1.495 . S
C2085 H2091 0.959 . S
C2085 H2092 0.961 . S
C2085 H2093 0.960 . S
C2086 C2084 1.381 . S
C2086 C2087 1.394 . S
C2086 H2094 0.930 . S
C2087 C2086 1.394 . S
C2087 C2088 1.383 . S
C2087 H2095 0.929 . S
C2088 C2087 1.383 . S
C2088 C2089 1.377 . S
C2089 H2073 0.930 . S
C2089 C2088 1.377 . S
C2089 C2090 1.379 . S
C2090 H2074 0.931 . S
C2090 C2084 1.383 . S
C2090 C2089 1.379 . S
H2091 C2085 0.959 . S
H2092 C2085 0.961 . S
H2093 C2085 0.960 . S
H2094 C2086 0.930 . S
H2095 C2087 0.929 . S
H2096 C2104 0.929 . S
H2097 C2106 0.930 . S
H2098 C2108 0.930 . S
H2099 C2111 0.929 . S
H2100 C2114 0.930 . S
H2101 C2116 0.960 . S
H2102 C2116 0.960 . S
H2103 C2116 0.960 1_554 S
C2104 H2096 0.929 . S
C2104 C2105 1.378 . S
C2104 C2106 1.384 . S
C2105 C2104 1.378 . S
C2105 C2111 1.389 1_556 S
C2106 H2097 0.930 . S
C2106 C2104 1.384 . S
C2106 C2107 1.372 . S
C2107 C2106 1.372 . S
C2107 C2108 1.400 1_556 S
C2107 C2112 1.490 . S
C2108 H2098 0.930 . S
C2108 C2107 1.400 1_554 S
C2108 C2111 1.386 . S
H2109 C2125 0.930 . S
H2110 C2126 0.931 . S
C2111 H2099 0.929 . S
C2111 C2105 1.389 1_554 S
C2111 C2108 1.386 . S
C2112 C2107 1.490 . S
C2112 C2114 1.395 . S
C2112 C2115 1.403 . S
H2113 C2119 0.930 . S
C2114 H2100 0.930 . S
C2114 C2112 1.395 . S
C2114 C2117 1.403 . S
C2115 C2112 1.403 . S
C2115 C2116 1.524 . S
C2115 C2119 1.400 . S
C2116 H2101 0.960 . S
C2116 H2102 0.960 . S
C2116 H2103 0.960 1_556 S
C2116 C2115 1.524 . S
C2117 C2114 1.403 . S
C2117 C2118 1.392 . S
C2117 C2121 1.495 . S
C2118 C2117 1.392 . S
C2118 C2119 1.385 . S
C2118 C2120 1.478 . S
C2119 H2113 0.930 . S
C2119 C2115 1.400 . S
C2119 C2118 1.385 . S
C2120 C2118 1.478 . S
C2120 C2122 1.381 . S
C2120 C2126 1.383 1_556 S
C2121 C2117 1.495 . S
C2121 H2127 0.959 . S
C2121 H2128 0.961 1_556 S
C2121 H2129 0.960 . S
C2122 C2120 1.381 . S
C2122 C2123 1.394 . S
C2122 H2130 0.930 . S
C2123 C2122 1.394 . S
C2123 C2124 1.383 . S
C2123 H2131 0.929 . S
C2124 C2123 1.383 . S
C2124 C2125 1.377 1_556 S
C2125 H2109 0.930 . S
C2125 C2124 1.377 1_554 S
C2125 C2126 1.379 . S
C2126 H2110 0.931 . S
C2126 C2120 1.383 1_554 S
C2126 C2125 1.379 . S
H2127 C2121 0.959 . S
H2128 C2121 0.961 1_554 S
H2129 C2121 0.960 . S
H2130 C2122 0.930 . S
H2131 C2123 0.929 . S
H2132 C2140 0.929 . S
H2133 C2142 0.930 . S
H2134 C2144 0.930 . S
H2135 C2147 0.929 . S
H2136 C2150 0.930 . S
H2137 C2152 0.960 1_556 S
H2138 C2152 0.961 . S
H2139 C2152 0.960 1_556 S
C2140 H2132 0.929 . S
C2140 C2141 1.377 . S
C2140 C2142 1.384 . S
C2141 C2140 1.377 . S
C2141 C2147 1.390 1_554 S
C2142 H2133 0.930 . S
C2142 C2140 1.384 . S
C2142 C2143 1.372 . S
C2143 C2142 1.372 . S
C2143 C2144 1.400 1_554 S
C2143 C2148 1.490 . S
C2144 H2134 0.930 . S
C2144 C2143 1.400 1_556 S
C2144 C2147 1.386 . S
H2145 C2161 0.930 . S
H2146 C2162 0.931 . S
C2147 H2135 0.929 . S
C2147 C2141 1.390 1_556 S
C2147 C2144 1.386 . S
C2148 C2143 1.490 . S
C2148 C2150 1.395 . S
C2148 C2151 1.403 . S
H2149 C2155 0.930 . S
C2150 H2136 0.930 . S
C2150 C2148 1.395 . S
C2150 C2153 1.403 . S
C2151 C2148 1.403 . S
C2151 C2152 1.524 . S
C2151 C2155 1.400 . S
C2152 H2137 0.960 1_554 S
C2152 H2138 0.961 . S
C2152 H2139 0.960 1_554 S
C2152 C2151 1.524 . S
C2153 C2150 1.403 . S
C2153 C2154 1.392 . S
C2153 C2157 1.495 . S
C2154 C2153 1.392 . S
C2154 C2155 1.385 . S
C2154 C2156 1.478 . S
C2155 H2149 0.930 . S
C2155 C2151 1.400 . S
C2155 C2154 1.385 . S
C2156 C2154 1.478 . S
C2156 C2158 1.381 . S
C2156 C2162 1.383 1_554 S
C2157 C2153 1.495 . S
C2157 H2163 0.959 . S
C2157 H2164 0.961 . S
C2157 H2165 0.960 . S
C2158 C2156 1.381 . S
C2158 C2159 1.394 . S
C2158 H2166 0.930 . S
C2159 C2158 1.394 . S
C2159 C2160 1.383 . S
C2159 H2167 0.929 . S
C2160 C2159 1.383 . S
C2160 C2161 1.377 1_554 S
C2161 H2145 0.930 . S
C2161 C2160 1.377 1_556 S
C2161 C2162 1.379 . S
C2162 H2146 0.931 . S
C2162 C2156 1.383 1_556 S
C2162 C2161 1.379 . S
H2163 C2157 0.959 . S
H2164 C2157 0.961 . S
H2165 C2157 0.960 . S
H2166 C2158 0.930 . S
H2167 C2159 0.929 . S
H2168 C2176 0.929 . S
H2169 C2178 0.930 . S
H2170 C2180 0.930 . S
H2171 C2183 0.929 . S
H2172 C2186 0.930 . S
H2173 C2188 0.960 . S
H2174 C2188 0.960 . S
H2175 C2188 0.960 . S
C2176 H2168 0.929 . S
C2176 C2177 1.377 . S
C2176 C2178 1.384 . S
C2177 C2176 1.377 . S
C2177 C2183 1.390 . S
C2178 H2169 0.930 . S
C2178 C2176 1.384 . S
C2178 C2179 1.372 . S
C2179 C2178 1.372 . S
C2179 C2180 1.400 . S
C2179 C2184 1.490 . S
C2180 H2170 0.930 . S
C2180 C2179 1.400 . S
C2180 C2183 1.386 . S
H2181 C2197 0.930 . S
H2182 C2198 0.931 . S
C2183 H2171 0.929 . S
C2183 C2177 1.390 . S
C2183 C2180 1.386 . S
C2184 C2179 1.490 . S
C2184 C2186 1.395 . S
C2184 C2187 1.403 . S
H2185 C2191 0.930 . S
C2186 H2172 0.930 . S
C2186 C2184 1.395 . S
C2186 C2189 1.403 . S
C2187 C2184 1.403 . S
C2187 C2188 1.524 . S
C2187 C2191 1.400 . S
C2188 H2173 0.960 . S
C2188 H2174 0.960 . S
C2188 H2175 0.960 . S
C2188 C2187 1.524 . S
C2189 C2186 1.403 . S
C2189 C2190 1.392 . S
C2189 C2193 1.495 . S
C2190 C2189 1.392 . S
C2190 C2191 1.385 . S
C2190 C2192 1.478 . S
C2191 H2185 0.930 . S
C2191 C2187 1.400 . S
C2191 C2190 1.385 . S
C2192 C2190 1.478 . S
C2192 C2194 1.381 . S
C2192 C2198 1.383 . S
C2193 C2189 1.495 . S
C2193 H2199 0.959 . S
C2193 H2200 0.961 . S
C2193 H2201 0.960 . S
C2194 C2192 1.381 . S
C2194 C2195 1.394 . S
C2194 H2202 0.930 . S
C2195 C2194 1.394 . S
C2195 C2196 1.383 . S
C2195 H2203 0.929 . S
C2196 C2195 1.383 . S
C2196 C2197 1.377 . S
C2197 H2181 0.930 . S
C2197 C2196 1.377 . S
C2197 C2198 1.379 . S
C2198 H2182 0.931 . S
C2198 C2192 1.383 . S
C2198 C2197 1.379 . S
H2199 C2193 0.959 . S
H2200 C2193 0.961 . S
H2201 C2193 0.960 . S
H2202 C2194 0.930 . S
H2203 C2195 0.929 . S
H2204 C2212 0.929 . S
H2205 C2214 0.930 . S
H2206 C2216 0.930 . S
H2207 C2219 0.929 . S
H2208 C2222 0.930 . S
H2209 C2224 0.960 . S
H2210 C2224 0.960 . S
H2211 C2224 0.960 . S
C2212 H2204 0.929 . S
C2212 C2213 1.377 . S
C2212 C2214 1.384 . S
C2213 C2212 1.377 . S
C2213 C2219 1.390 . S
C2214 H2205 0.930 . S
C2214 C2212 1.384 . S
C2214 C2215 1.372 . S
C2215 C2214 1.372 . S
C2215 C2216 1.400 . S
C2215 C2220 1.490 . S
C2216 H2206 0.930 . S
C2216 C2215 1.400 . S
C2216 C2219 1.386 . S
H2217 C2233 0.930 . S
H2218 C2234 0.931 . S
C2219 H2207 0.929 . S
C2219 C2213 1.390 . S
C2219 C2216 1.386 . S
C2220 C2215 1.490 . S
C2220 C2222 1.395 . S
C2220 C2223 1.403 . S
H2221 C2227 0.930 . S
C2222 H2208 0.930 . S
C2222 C2220 1.395 . S
C2222 C2225 1.403 . S
C2223 C2220 1.403 . S
C2223 C2224 1.524 . S
C2223 C2227 1.400 . S
C2224 H2209 0.960 . S
C2224 H2210 0.960 . S
C2224 H2211 0.960 . S
C2224 C2223 1.524 . S
C2225 C2222 1.403 . S
C2225 C2226 1.392 . S
C2225 C2229 1.495 . S
C2226 C2225 1.392 . S
C2226 C2227 1.385 . S
C2226 C2228 1.478 . S
C2227 H2221 0.930 . S
C2227 C2223 1.400 . S
C2227 C2226 1.385 . S
C2228 C2226 1.478 . S
C2228 C2230 1.381 . S
C2228 C2234 1.383 . S
C2229 C2225 1.495 . S
C2229 H2235 0.959 . S
C2229 H2236 0.961 . S
C2229 H2237 0.960 . S
C2230 C2228 1.381 . S
C2230 C2231 1.394 . S
C2230 H2238 0.930 . S
C2231 C2230 1.394 . S
C2231 C2232 1.383 . S
C2231 H2239 0.929 . S
C2232 C2231 1.383 . S
C2232 C2233 1.377 . S
C2233 H2217 0.930 . S
C2233 C2232 1.377 . S
C2233 C2234 1.379 . S
C2234 H2218 0.931 . S
C2234 C2228 1.383 . S
C2234 C2233 1.379 . S
H2235 C2229 0.959 . S
H2236 C2229 0.961 . S
H2237 C2229 0.960 . S
H2238 C2230 0.930 . S
H2239 C2231 0.929 . S
H2240 C2248 0.929 . S
H2241 C2250 0.930 . S
H2242 C2252 0.930 . S
H2243 C2255 0.929 . S
H2244 C2258 0.930 . S
H2245 C2260 0.960 . S
H2246 C2260 0.960 . S
H2247 C2260 0.960 . S
C2248 H2240 0.929 . S
C2248 C2249 1.377 . S
C2248 C2250 1.384 . S
C2249 C2248 1.377 . S
C2249 C2255 1.390 . S
C2250 H2241 0.930 . S
C2250 C2248 1.384 . S
C2250 C2251 1.372 . S
C2251 C2250 1.372 . S
C2251 C2252 1.400 . S
C2251 C2256 1.490 . S
C2252 H2242 0.930 . S
C2252 C2251 1.400 . S
C2252 C2255 1.386 . S
H2253 C2269 0.930 . S
H2254 C2270 0.931 . S
C2255 H2243 0.929 . S
C2255 C2249 1.390 . S
C2255 C2252 1.386 . S
C2256 C2251 1.490 . S
C2256 C2258 1.395 . S
C2256 C2259 1.403 . S
H2257 C2263 0.930 . S
C2258 H2244 0.930 . S
C2258 C2256 1.395 . S
C2258 C2261 1.403 . S
C2259 C2256 1.403 . S
C2259 C2260 1.524 . S
C2259 C2263 1.400 . S
C2260 H2245 0.960 . S
C2260 H2246 0.960 . S
C2260 H2247 0.960 . S
C2260 C2259 1.524 . S
C2261 C2258 1.403 . S
C2261 C2262 1.392 . S
C2261 C2265 1.495 . S
C2262 C2261 1.392 . S
C2262 C2263 1.385 . S
C2262 C2264 1.478 . S
C2263 H2257 0.930 . S
C2263 C2259 1.400 . S
C2263 C2262 1.385 . S
C2264 C2262 1.478 . S
C2264 C2266 1.381 . S
C2264 C2270 1.383 . S
C2265 C2261 1.495 . S
C2265 H2271 0.959 . S
C2265 H2272 0.961 . S
C2265 H2273 0.960 . S
C2266 C2264 1.381 . S
C2266 C2267 1.394 . S
C2266 H2274 0.930 . S
C2267 C2266 1.394 . S
C2267 C2268 1.383 . S
C2267 H2275 0.929 . S
C2268 C2267 1.383 . S
C2268 C2269 1.377 . S
C2269 H2253 0.930 . S
C2269 C2268 1.377 . S
C2269 C2270 1.379 . S
C2270 H2254 0.931 . S
C2270 C2264 1.383 . S
C2270 C2269 1.379 . S
H2271 C2265 0.959 . S
H2272 C2265 0.961 . S
H2273 C2265 0.960 . S
H2274 C2266 0.930 . S
H2275 C2267 0.929 . S
H2276 C2284 0.929 . S
H2277 C2286 0.930 . S
H2278 C2288 0.930 . S
H2279 C2291 0.929 . S
H2280 C2294 0.930 . S
H2281 C2296 0.960 . S
H2282 C2296 0.960 . S
H2283 C2296 0.960 . S
C2284 H2276 0.929 . S
C2284 C2285 1.377 . S
C2284 C2286 1.384 . S
C2285 C2284 1.377 . S
C2285 C2291 1.390 . S
C2286 H2277 0.930 . S
C2286 C2284 1.384 . S
C2286 C2287 1.372 . S
C2287 C2286 1.372 . S
C2287 C2288 1.400 . S
C2287 C2292 1.490 . S
C2288 H2278 0.930 . S
C2288 C2287 1.400 . S
C2288 C2291 1.386 . S
H2289 C2305 0.889 1_545 S
H2290 C2306 0.931 . S
C2291 H2279 0.929 . S
C2291 C2285 1.390 . S
C2291 C2288 1.386 . S
C2292 C2287 1.490 . S
C2292 C2294 1.395 . S
C2292 C2295 1.403 . S
H2293 C2299 0.930 . S
C2294 H2280 0.930 . S
C2294 C2292 1.395 . S
C2294 C2297 1.403 . S
C2295 C2292 1.403 . S
C2295 C2296 1.524 . S
C2295 C2299 1.400 . S
C2296 H2281 0.960 . S
C2296 H2282 0.960 . S
C2296 H2283 0.960 . S
C2296 C2295 1.524 . S
C2297 C2294 1.403 . S
C2297 C2298 1.392 . S
C2297 C2301 1.495 . S
C2298 C2297 1.392 . S
C2298 C2299 1.385 . S
C2298 C2300 1.478 . S
C2299 H2293 0.930 . S
C2299 C2295 1.400 . S
C2299 C2298 1.385 . S
C2300 C2298 1.478 . S
C2300 C2302 1.381 . S
C2300 C2306 1.383 . S
C2301 C2297 1.495 . S
C2301 H2307 0.959 . S
C2301 H2308 0.961 . S
C2301 H2309 0.960 . S
C2302 C2300 1.381 . S
C2302 C2303 1.394 . S
C2302 H2310 0.930 . S
C2303 C2302 1.394 . S
C2303 C2304 1.383 . S
C2303 H2311 0.929 . S
C2304 C2303 1.383 . S
C2304 C2305 1.389 . S
C2305 H2289 0.889 1_565 S
C2305 C2304 1.389 . S
C2305 C2306 1.409 . S
C2306 H2290 0.931 . S
C2306 C2300 1.383 . S
C2306 C2305 1.409 . S
H2307 C2301 0.959 . S
H2308 C2301 0.961 . S
H2309 C2301 0.960 . S
H2310 C2302 0.930 . S
H2311 C2303 0.929 . S
H2312 C2320 0.929 . S
H2313 C2322 0.930 . S
H2314 C2324 0.930 . S
H2315 C2327 0.929 . S
H2316 C2330 0.930 . S
H2317 C2332 0.960 . S
H2318 C2332 0.960 . S
H2319 C2332 0.960 . S
C2320 H2312 0.929 . S
C2320 C2321 1.377 . S
C2320 C2322 1.384 . S
C2321 C2320 1.377 . S
C2321 C2327 1.390 . S
C2322 H2313 0.930 . S
C2322 C2320 1.384 . S
C2322 C2323 1.372 . S
C2323 C2322 1.372 . S
C2323 C2324 1.400 . S
C2323 C2328 1.490 . S
C2324 H2314 0.930 . S
C2324 C2323 1.400 . S
C2324 C2327 1.386 . S
H2325 C2341 0.930 . S
H2326 C2342 0.931 . S
C2327 H2315 0.929 . S
C2327 C2321 1.390 . S
C2327 C2324 1.386 . S
C2328 C2323 1.490 . S
C2328 C2330 1.395 . S
C2328 C2331 1.403 . S
H2329 C2335 0.930 . S
C2330 H2316 0.930 . S
C2330 C2328 1.395 . S
C2330 C2333 1.403 . S
C2331 C2328 1.403 . S
C2331 C2332 1.524 . S
C2331 C2335 1.400 . S
C2332 H2317 0.960 . S
C2332 H2318 0.960 . S
C2332 H2319 0.960 . S
C2332 C2331 1.524 . S
C2333 C2330 1.403 . S
C2333 C2334 1.392 . S
C2333 C2337 1.495 . S
C2334 C2333 1.392 . S
C2334 C2335 1.385 . S
C2334 C2336 1.478 . S
C2335 H2329 0.930 . S
C2335 C2331 1.400 . S
C2335 C2334 1.385 . S
C2336 C2334 1.478 . S
C2336 C2338 1.381 . S
C2336 C2342 1.383 . S
C2337 C2333 1.495 . S
C2337 H2343 0.959 . S
C2337 H2344 0.961 . S
C2337 H2345 0.960 . S
C2338 C2336 1.381 . S
C2338 C2339 1.394 . S
C2338 H2346 0.930 . S
C2339 C2338 1.394 . S
C2339 C2340 1.383 . S
C2339 H2347 0.929 . S
C2340 C2339 1.383 . S
C2340 C2341 1.377 . S
C2341 H2325 0.930 . S
C2341 C2340 1.377 . S
C2341 C2342 1.379 . S
C2342 H2326 0.931 . S
C2342 C2336 1.383 . S
C2342 C2341 1.379 . S
H2343 C2337 0.959 . S
H2344 C2337 0.961 . S
H2345 C2337 0.960 . S
H2346 C2338 0.930 . S
H2347 C2339 0.929 . S
H2348 C2356 0.929 . S
H2349 C2358 0.930 . S
H2350 C2360 0.930 . S
H2351 C2363 0.929 . S
H2352 C2366 0.930 . S
H2353 C2368 0.960 . S
H2354 C2368 0.960 . S
H2355 C2368 0.960 . S
C2356 H2348 0.929 . S
C2356 C2357 1.377 . S
C2356 C2358 1.384 . S
C2357 C2356 1.377 . S
C2357 C2363 1.390 . S
C2358 H2349 0.930 . S
C2358 C2356 1.384 . S
C2358 C2359 1.372 . S
C2359 C2358 1.372 . S
C2359 C2360 1.400 . S
C2359 C2364 1.490 . S
C2360 H2350 0.930 . S
C2360 C2359 1.400 . S
C2360 C2363 1.386 . S
H2361 C2377 0.930 . S
H2362 C2378 0.931 . S
C2363 H2351 0.929 . S
C2363 C2357 1.390 . S
C2363 C2360 1.386 . S
C2364 C2359 1.490 . S
C2364 C2366 1.395 . S
C2364 C2367 1.403 . S
H2365 C2371 0.930 . S
C2366 H2352 0.930 . S
C2366 C2364 1.395 . S
C2366 C2369 1.403 . S
C2367 C2364 1.403 . S
C2367 C2368 1.524 . S
C2367 C2371 1.400 . S
C2368 H2353 0.960 . S
C2368 H2354 0.960 . S
C2368 H2355 0.960 . S
C2368 C2367 1.524 . S
C2369 C2366 1.403 . S
C2369 C2370 1.392 . S
C2369 C2373 1.495 . S
C2370 C2369 1.392 . S
C2370 C2371 1.385 . S
C2370 C2372 1.478 . S
C2371 H2365 0.930 . S
C2371 C2367 1.400 . S
C2371 C2370 1.385 . S
C2372 C2370 1.478 . S
C2372 C2374 1.381 . S
C2372 C2378 1.383 . S
C2373 C2369 1.495 . S
C2373 H2379 0.959 . S
C2373 H2380 0.961 . S
C2373 H2381 0.960 . S
C2374 C2372 1.381 . S
C2374 C2375 1.394 . S
C2374 H2382 0.930 . S
C2375 C2374 1.394 . S
C2375 C2376 1.383 . S
C2375 H2383 0.929 . S
C2376 C2375 1.383 . S
C2376 C2377 1.377 . S
C2377 H2361 0.930 . S
C2377 C2376 1.377 . S
C2377 C2378 1.379 . S
C2378 H2362 0.931 . S
C2378 C2372 1.383 . S
C2378 C2377 1.379 . S
H2379 C2373 0.959 . S
H2380 C2373 0.961 . S
H2381 C2373 0.960 . S
H2382 C2374 0.930 . S
H2383 C2375 0.929 . S
H2384 C2392 0.929 . S
H2385 C2394 0.930 . S
H2386 C2396 0.930 . S
H2387 C2399 0.929 . S
H2388 C2402 0.930 . S
H2389 C2404 0.960 . S
H2390 C2404 0.960 . S
H2391 C2404 0.960 . S
C2392 H2384 0.929 . S
C2392 C2393 1.377 . S
C2392 C2394 1.384 . S
C2393 C2392 1.377 . S
C2393 C2399 1.390 . S
C2394 H2385 0.930 . S
C2394 C2392 1.384 . S
C2394 C2395 1.372 . S
C2395 C2394 1.372 . S
C2395 C2396 1.400 . S
C2395 C2400 1.490 . S
C2396 H2386 0.930 . S
C2396 C2395 1.400 . S
C2396 C2399 1.386 . S
H2397 C2413 0.930 . S
H2398 C2414 0.931 . S
C2399 H2387 0.929 . S
C2399 C2393 1.390 . S
C2399 C2396 1.386 . S
C2400 C2395 1.490 . S
C2400 C2402 1.395 . S
C2400 C2403 1.403 . S
H2401 C2407 0.930 . S
C2402 H2388 0.930 . S
C2402 C2400 1.395 . S
C2402 C2405 1.403 . S
C2403 C2400 1.403 . S
C2403 C2404 1.524 . S
C2403 C2407 1.400 . S
C2404 H2389 0.960 . S
C2404 H2390 0.960 . S
C2404 H2391 0.960 . S
C2404 C2403 1.524 . S
C2405 C2402 1.403 . S
C2405 C2406 1.392 . S
C2405 C2409 1.495 . S
C2406 C2405 1.392 . S
C2406 C2407 1.385 . S
C2406 C2408 1.478 . S
C2407 H2401 0.930 . S
C2407 C2403 1.400 . S
C2407 C2406 1.385 . S
C2408 C2406 1.478 . S
C2408 C2410 1.381 . S
C2408 C2414 1.383 . S
C2409 C2405 1.495 . S
C2409 H2415 0.959 . S
C2409 H2416 0.961 . S
C2409 H2417 0.960 . S
C2410 C2408 1.381 . S
C2410 C2411 1.394 . S
C2410 H2418 0.930 . S
C2411 C2410 1.394 . S
C2411 C2412 1.383 . S
C2411 H2419 0.929 . S
C2412 C2411 1.383 . S
C2412 C2413 1.377 . S
C2413 H2397 0.930 . S
C2413 C2412 1.377 . S
C2413 C2414 1.379 . S
C2414 H2398 0.931 . S
C2414 C2408 1.383 . S
C2414 C2413 1.379 . S
H2415 C2409 0.959 . S
H2416 C2409 0.961 . S
H2417 C2409 0.960 . S
H2418 C2410 0.930 . S
H2419 C2411 0.929 . S
H2420 C2428 0.929 . S
H2421 C2430 0.930 . S
H2422 C2432 0.930 . S
H2423 C2435 0.929 . S
H2424 C2438 0.930 . S
H2425 C2440 0.960 . S
H2426 C2440 0.960 . S
H2427 C2440 0.960 . S
C2428 H2420 0.929 . S
C2428 C2429 1.377 . S
C2428 C2430 1.384 . S
C2429 C2428 1.377 . S
C2429 C2435 1.390 . S
C2430 H2421 0.930 . S
C2430 C2428 1.384 . S
C2430 C2431 1.372 . S
C2431 C2430 1.372 . S
C2431 C2432 1.400 . S
C2431 C2436 1.490 . S
C2432 H2422 0.930 . S
C2432 C2431 1.400 . S
C2432 C2435 1.386 . S
H2433 C2449 0.930 . S
H2434 C2450 0.931 . S
C2435 H2423 0.929 . S
C2435 C2429 1.390 . S
C2435 C2432 1.386 . S
C2436 C2431 1.490 . S
C2436 C2438 1.395 . S
C2436 C2439 1.403 . S
H2437 C2443 0.930 . S
C2438 H2424 0.930 . S
C2438 C2436 1.395 . S
C2438 C2441 1.403 . S
C2439 C2436 1.403 . S
C2439 C2440 1.524 . S
C2439 C2443 1.400 . S
C2440 H2425 0.960 . S
C2440 H2426 0.960 . S
C2440 H2427 0.960 . S
C2440 C2439 1.524 . S
C2441 C2438 1.403 . S
C2441 C2442 1.392 . S
C2441 C2445 1.495 . S
C2442 C2441 1.392 . S
C2442 C2443 1.385 . S
C2442 C2444 1.478 . S
C2443 H2437 0.930 . S
C2443 C2439 1.400 . S
C2443 C2442 1.385 . S
C2444 C2442 1.478 . S
C2444 C2446 1.381 . S
C2444 C2450 1.383 . S
C2445 C2441 1.495 . S
C2445 H2451 0.959 . S
C2445 H2452 0.961 . S
C2445 H2453 0.960 . S
C2446 C2444 1.381 . S
C2446 C2447 1.394 . S
C2446 H2454 0.930 . S
C2447 C2446 1.394 . S
C2447 C2448 1.383 . S
C2447 H2455 0.929 . S
C2448 C2447 1.383 . S
C2448 C2449 1.377 . S
C2449 H2433 0.930 . S
C2449 C2448 1.377 . S
C2449 C2450 1.379 . S
C2450 H2434 0.931 . S
C2450 C2444 1.383 . S
C2450 C2449 1.379 . S
H2451 C2445 0.959 . S
H2452 C2445 0.961 . S
H2453 C2445 0.960 . S
H2454 C2446 0.930 . S
H2455 C2447 0.929 . S
H2456 C2464 0.929 . S
H2457 C2466 0.930 . S
H2458 C2468 0.930 . S
H2459 C2471 0.929 . S
H2460 C2474 0.930 . S
H2461 C2476 0.960 . S
H2462 C2476 0.960 1_455 S
H2463 C2476 0.960 . S
C2464 H2456 0.929 . S
C2464 C2465 1.377 . S
C2464 C2466 1.384 . S
C2465 C2464 1.377 . S
C2465 C2471 1.390 1_455 S
C2466 H2457 0.930 . S
C2466 C2464 1.384 . S
C2466 C2467 1.372 . S
C2467 C2466 1.372 . S
C2467 C2468 1.400 1_455 S
C2467 C2472 1.490 . S
C2468 H2458 0.930 . S
C2468 C2467 1.400 1_655 S
C2468 C2471 1.386 . S
H2469 C2485 0.930 . S
H2470 C2486 0.931 . S
C2471 H2459 0.929 . S
C2471 C2465 1.390 1_655 S
C2471 C2468 1.386 . S
C2472 C2467 1.490 . S
C2472 C2474 1.395 . S
C2472 C2475 1.396 1_455 S
H2473 C2479 0.931 1_655 S
C2474 H2460 0.930 . S
C2474 C2472 1.395 . S
C2474 C2477 1.403 . S
C2475 C2472 1.396 1_655 S
C2475 C2476 1.527 . S
C2475 C2479 1.403 1_655 S
C2476 H2461 0.960 . S
C2476 H2462 0.960 1_655 S
C2476 H2463 0.960 . S
C2476 C2475 1.527 . S
C2477 C2474 1.403 . S
C2477 C2478 1.392 . S
C2477 C2481 1.495 . S
C2478 C2477 1.392 . S
C2478 C2479 1.385 . S
C2478 C2480 1.478 . S
C2479 H2473 0.931 1_455 S
C2479 C2475 1.403 1_455 S
C2479 C2478 1.385 . S
C2480 C2478 1.478 . S
C2480 C2482 1.381 . S
C2480 C2486 1.383 1_455 S
C2481 C2477 1.495 . S
C2481 H2487 0.959 . S
C2481 H2488 0.961 . S
C2481 H2489 0.960 . S
C2482 C2480 1.381 . S
C2482 C2483 1.394 . S
C2482 H2490 0.930 . S
C2483 C2482 1.394 . S
C2483 C2484 1.383 1_556 S
C2483 H2491 0.929 1_556 S
C2484 C2483 1.383 1_554 S
C2484 C2485 1.376 1_454 S
C2485 H2469 0.930 . S
C2485 C2484 1.376 1_656 S
C2485 C2486 1.379 . S
C2486 H2470 0.931 . S
C2486 C2480 1.383 1_655 S
C2486 C2485 1.379 . S
H2487 C2481 0.959 . S
H2488 C2481 0.961 . S
H2489 C2481 0.960 . S
H2490 C2482 0.930 . S
H2491 C2483 0.929 1_554 S
H2492 C2500 0.929 . S
H2493 C2502 0.930 . S
H2494 C2504 0.930 . S
H2495 C2507 0.929 . S
H2496 C2510 0.930 . S
H2497 C2512 0.960 . S
H2498 C2512 0.960 . S
H2499 C2512 0.960 . S
C2500 H2492 0.929 . S
C2500 C2501 1.377 . S
C2500 C2502 1.384 . S
C2501 C2500 1.377 . S
C2501 C2507 1.390 . S
C2502 H2493 0.930 . S
C2502 C2500 1.384 . S
C2502 C2503 1.372 . S
C2503 C2502 1.372 . S
C2503 C2504 1.400 . S
C2503 C2508 1.490 . S
C2504 H2494 0.930 . S
C2504 C2503 1.400 . S
C2504 C2507 1.386 . S
H2505 C2521 0.930 . S
H2506 C2522 0.931 . S
C2507 H2495 0.929 . S
C2507 C2501 1.390 . S
C2507 C2504 1.386 . S
C2508 C2503 1.490 . S
C2508 C2510 1.395 . S
C2508 C2511 1.403 . S
H2509 C2515 0.930 . S
C2510 H2496 0.930 . S
C2510 C2508 1.395 . S
C2510 C2513 1.403 . S
C2511 C2508 1.403 . S
C2511 C2512 1.524 . S
C2511 C2515 1.400 . S
C2512 H2497 0.960 . S
C2512 H2498 0.960 . S
C2512 H2499 0.960 . S
C2512 C2511 1.524 . S
C2513 C2510 1.403 . S
C2513 C2514 1.392 . S
C2513 C2517 1.495 . S
C2514 C2513 1.392 . S
C2514 C2515 1.385 . S
C2514 C2516 1.478 . S
C2515 H2509 0.930 . S
C2515 C2511 1.400 . S
C2515 C2514 1.385 . S
C2516 C2514 1.478 . S
C2516 C2518 1.381 . S
C2516 C2522 1.383 . S
C2517 C2513 1.495 . S
C2517 H2523 0.959 . S
C2517 H2524 0.961 . S
C2517 H2525 0.960 . S
C2518 C2516 1.381 . S
C2518 C2519 1.394 . S
C2518 H2526 0.930 . S
C2519 C2518 1.394 . S
C2519 C2520 1.383 . S
C2519 H2527 0.929 . S
C2520 C2519 1.383 . S
C2520 C2521 1.377 . S
C2521 H2505 0.930 . S
C2521 C2520 1.377 . S
C2521 C2522 1.379 . S
C2522 H2506 0.931 . S
C2522 C2516 1.383 . S
C2522 C2521 1.379 . S
H2523 C2517 0.959 . S
H2524 C2517 0.961 . S
H2525 C2517 0.960 . S
H2526 C2518 0.930 . S
H2527 C2519 0.929 . S
H2528 C2536 0.929 . S
H2529 C2538 0.930 . S
H2530 C2540 0.930 . S
H2531 C2543 0.929 . S
H2532 C2546 0.930 . S
H2533 C2548 0.960 . S
H2534 C2548 0.960 . S
H2535 C2548 0.960 . S
C2536 H2528 0.929 . S
C2536 C2537 1.377 . S
C2536 C2538 1.384 . S
C2537 C2536 1.377 . S
C2537 C2543 1.390 . S
C2538 H2529 0.930 . S
C2538 C2536 1.384 . S
C2538 C2539 1.372 . S
C2539 C2538 1.372 . S
C2539 C2540 1.400 . S
C2539 C2544 1.490 . S
C2540 H2530 0.930 . S
C2540 C2539 1.400 . S
C2540 C2543 1.386 . S
H2541 C2557 0.930 . S
H2542 C2558 0.931 . S
C2543 H2531 0.929 . S
C2543 C2537 1.390 . S
C2543 C2540 1.386 . S
C2544 C2539 1.490 . S
C2544 C2546 1.395 . S
C2544 C2547 1.403 . S
H2545 C2551 0.930 . S
C2546 H2532 0.930 . S
C2546 C2544 1.395 . S
C2546 C2549 1.403 . S
C2547 C2544 1.403 . S
C2547 C2548 1.524 . S
C2547 C2551 1.400 . S
C2548 H2533 0.960 . S
C2548 H2534 0.960 . S
C2548 H2535 0.960 . S
C2548 C2547 1.524 . S
C2549 C2546 1.403 . S
C2549 C2550 1.392 . S
C2549 C2553 1.495 . S
C2550 C2549 1.392 . S
C2550 C2551 1.385 . S
C2550 C2552 1.478 . S
C2551 H2545 0.930 . S
C2551 C2547 1.400 . S
C2551 C2550 1.385 . S
C2552 C2550 1.478 . S
C2552 C2554 1.381 . S
C2552 C2558 1.383 . S
C2553 C2549 1.495 . S
C2553 H2559 0.959 . S
C2553 H2560 0.961 . S
C2553 H2561 0.960 . S
C2554 C2552 1.381 . S
C2554 C2555 1.394 . S
C2554 H2562 0.930 . S
C2555 C2554 1.394 . S
C2555 C2556 1.383 . S
C2555 H2563 0.929 . S
C2556 C2555 1.383 . S
C2556 C2557 1.377 . S
C2557 H2541 0.930 . S
C2557 C2556 1.377 . S
C2557 C2558 1.379 . S
C2558 H2542 0.931 . S
C2558 C2552 1.383 . S
C2558 C2557 1.379 . S
H2559 C2553 0.959 . S
H2560 C2553 0.961 . S
H2561 C2553 0.960 . S
H2562 C2554 0.930 . S
H2563 C2555 0.929 . S
H2564 C2572 0.929 . S
H2565 C2574 0.930 . S
H2566 C2576 0.930 . S
H2567 C2579 0.929 . S
H2568 C2582 0.930 . S
H2569 C2584 0.960 . S
H2570 C2584 0.960 . S
H2571 C2584 0.960 . S
C2572 H2564 0.929 . S
C2572 C2573 1.377 . S
C2572 C2574 1.384 . S
C2573 C2572 1.377 . S
C2573 C2579 1.390 . S
C2574 H2565 0.930 . S
C2574 C2572 1.384 . S
C2574 C2575 1.372 . S
C2575 C2574 1.372 . S
C2575 C2576 1.400 . S
C2575 C2580 1.490 . S
C2576 H2566 0.930 . S
C2576 C2575 1.400 . S
C2576 C2579 1.386 . S
H2577 C2593 0.930 . S
H2578 C2594 0.931 . S
C2579 H2567 0.929 . S
C2579 C2573 1.390 . S
C2579 C2576 1.386 . S
C2580 C2575 1.490 . S
C2580 C2582 1.395 . S
C2580 C2583 1.403 . S
H2581 C2587 0.930 . S
C2582 H2568 0.930 . S
C2582 C2580 1.395 . S
C2582 C2585 1.403 . S
C2583 C2580 1.403 . S
C2583 C2584 1.524 . S
C2583 C2587 1.400 . S
C2584 H2569 0.960 . S
C2584 H2570 0.960 . S
C2584 H2571 0.960 . S
C2584 C2583 1.524 . S
C2585 C2582 1.403 . S
C2585 C2586 1.392 . S
C2585 C2589 1.495 . S
C2586 C2585 1.392 . S
C2586 C2587 1.385 . S
C2586 C2588 1.478 . S
C2587 H2581 0.930 . S
C2587 C2583 1.400 . S
C2587 C2586 1.385 . S
C2588 C2586 1.478 . S
C2588 C2590 1.381 . S
C2588 C2594 1.383 . S
C2589 C2585 1.495 . S
C2589 H2595 0.959 . S
C2589 H2596 0.961 . S
C2589 H2597 0.960 . S
C2590 C2588 1.381 . S
C2590 C2591 1.394 . S
C2590 H2598 0.930 . S
C2591 C2590 1.394 . S
C2591 C2592 1.383 . S
C2591 H2599 0.929 . S
C2592 C2591 1.383 . S
C2592 C2593 1.377 . S
C2593 H2577 0.930 . S
C2593 C2592 1.377 . S
C2593 C2594 1.379 . S
C2594 H2578 0.931 . S
C2594 C2588 1.383 . S
C2594 C2593 1.379 . S
H2595 C2589 0.959 . S
H2596 C2589 0.961 . S
H2597 C2589 0.960 . S
H2598 C2590 0.930 . S
H2599 C2591 0.929 . S
H2600 C2608 0.929 . S
H2601 C2610 0.930 . S
H2602 C2612 0.930 . S
H2603 C2615 0.929 . S
H2604 C2618 0.930 . S
H2605 C2620 0.960 . S
H2606 C2620 0.960 . S
H2607 C2620 0.960 . S
C2608 H2600 0.929 . S
C2608 C2609 1.377 1_655 S
C2608 C2610 1.384 . S
C2609 C2608 1.377 1_455 S
C2609 C2615 1.390 . S
C2610 H2601 0.930 . S
C2610 C2608 1.384 . S
C2610 C2611 1.372 1_655 S
C2611 C2610 1.372 1_455 S
C2611 C2612 1.400 . S
C2611 C2616 1.490 . S
C2612 H2602 0.930 . S
C2612 C2611 1.400 . S
C2612 C2615 1.386 . S
H2613 C2629 0.930 . S
H2614 C2630 0.931 . S
C2615 H2603 0.929 . S
C2615 C2609 1.390 . S
C2615 C2612 1.386 . S
C2616 C2611 1.490 . S
C2616 C2618 1.395 1_455 S
C2616 C2619 1.403 . S
H2617 C2623 0.930 . S
C2618 H2604 0.930 . S
C2618 C2616 1.395 1_655 S
C2618 C2621 1.403 . S
C2619 C2616 1.403 . S
C2619 C2620 1.524 . S
C2619 C2623 1.400 . S
C2620 H2605 0.960 . S
C2620 H2606 0.960 . S
C2620 H2607 0.960 . S
C2620 C2619 1.524 . S
C2621 C2618 1.403 . S
C2621 C2622 1.387 . S
C2621 C2625 1.495 . S
C2622 C2621 1.387 . S
C2622 C2623 1.390 1_655 S
C2622 C2624 1.479 . S
C2623 H2617 0.930 . S
C2623 C2619 1.400 . S
C2623 C2622 1.390 1_455 S
C2624 C2622 1.479 . S
C2624 C2626 1.381 . S
C2624 C2630 1.382 1_655 S
C2625 C2621 1.495 . S
C2625 H2631 0.959 . S
C2625 H2632 0.961 . S
C2625 H2633 0.960 . S
C2626 C2624 1.381 . S
C2626 C2627 1.394 . S
C2626 H2634 0.930 . S
C2627 C2626 1.394 . S
C2627 C2628 1.383 1_655 S
C2627 H2635 0.929 . S
C2628 C2627 1.383 1_455 S
C2628 C2629 1.377 . S
C2629 H2613 0.930 . S
C2629 C2628 1.377 . S
C2629 C2630 1.379 . S
C2630 H2614 0.931 . S
C2630 C2624 1.382 1_455 S
C2630 C2629 1.379 . S
H2631 C2625 0.959 . S
H2632 C2625 0.961 . S
H2633 C2625 0.960 . S
H2634 C2626 0.930 . S
H2635 C2627 0.929 . S
H2636 C2644 0.929 . S
H2637 C2646 0.930 . S
H2638 C2648 0.930 . S
H2639 C2651 0.929 . S
H2640 C2654 0.930 . S
H2641 C2656 0.960 . S
H2642 C2656 0.960 . S
H2643 C2656 0.960 . S
C2644 H2636 0.929 . S
C2644 C2645 1.377 . S
C2644 C2646 1.384 . S
C2645 C2644 1.377 . S
C2645 C2651 1.390 . S
C2646 H2637 0.930 . S
C2646 C2644 1.384 . S
C2646 C2647 1.372 . S
C2647 C2646 1.372 . S
C2647 C2648 1.400 . S
C2647 C2652 1.490 . S
C2648 H2638 0.930 . S
C2648 C2647 1.400 . S
C2648 C2651 1.386 . S
H2649 C2665 0.930 . S
H2650 C2666 0.931 . S
C2651 H2639 0.929 . S
C2651 C2645 1.390 . S
C2651 C2648 1.386 . S
C2652 C2647 1.490 . S
C2652 C2654 1.395 . S
C2652 C2655 1.403 . S
H2653 C2659 0.930 . S
C2654 H2640 0.930 . S
C2654 C2652 1.395 . S
C2654 C2657 1.403 . S
C2655 C2652 1.403 . S
C2655 C2656 1.524 . S
C2655 C2659 1.400 . S
C2656 H2641 0.960 . S
C2656 H2642 0.960 . S
C2656 H2643 0.960 . S
C2656 C2655 1.524 . S
C2657 C2654 1.403 . S
C2657 C2658 1.392 . S
C2657 C2661 1.495 . S
C2658 C2657 1.392 . S
C2658 C2659 1.385 . S
C2658 C2660 1.478 . S
C2659 H2653 0.930 . S
C2659 C2655 1.400 . S
C2659 C2658 1.385 . S
C2660 C2658 1.478 . S
C2660 C2662 1.381 . S
C2660 C2666 1.383 . S
C2661 C2657 1.495 . S
C2661 H2667 0.959 . S
C2661 H2668 0.961 . S
C2661 H2669 0.960 . S
C2662 C2660 1.381 . S
C2662 C2663 1.394 . S
C2662 H2670 0.930 . S
C2663 C2662 1.394 . S
C2663 C2664 1.383 . S
C2663 H2671 0.929 . S
C2664 C2663 1.383 . S
C2664 C2665 1.377 . S
C2665 H2649 0.930 . S
C2665 C2664 1.377 . S
C2665 C2666 1.379 . S
C2666 H2650 0.931 . S
C2666 C2660 1.383 . S
C2666 C2665 1.379 . S
H2667 C2661 0.959 . S
H2668 C2661 0.961 . S
H2669 C2661 0.960 . S
H2670 C2662 0.930 . S
H2671 C2663 0.929 . S
H2672 C2680 0.929 . S
H2673 C2682 0.930 . S
H2674 C2684 0.930 . S
H2675 C2687 0.929 . S
H2676 C2690 0.930 . S
H2677 C2692 0.960 . S
H2678 C2692 0.960 . S
H2679 C2692 0.960 . S
C2680 H2672 0.929 . S
C2680 C2681 1.377 . S
C2680 C2682 1.384 . S
C2681 C2680 1.377 . S
C2681 C2687 1.390 . S
C2682 H2673 0.930 . S
C2682 C2680 1.384 . S
C2682 C2683 1.372 . S
C2683 C2682 1.372 . S
C2683 C2684 1.400 . S
C2683 C2688 1.490 . S
C2684 H2674 0.930 . S
C2684 C2683 1.400 . S
C2684 C2687 1.386 . S
H2685 C2701 0.930 . S
H2686 C2702 0.931 . S
C2687 H2675 0.929 . S
C2687 C2681 1.390 . S
C2687 C2684 1.386 . S
C2688 C2683 1.490 . S
C2688 C2690 1.395 . S
C2688 C2691 1.403 . S
H2689 C2695 0.930 . S
C2690 H2676 0.930 . S
C2690 C2688 1.395 . S
C2690 C2693 1.403 . S
C2691 C2688 1.403 . S
C2691 C2692 1.524 . S
C2691 C2695 1.400 . S
C2692 H2677 0.960 . S
C2692 H2678 0.960 . S
C2692 H2679 0.960 . S
C2692 C2691 1.524 . S
C2693 C2690 1.403 . S
C2693 C2694 1.392 . S
C2693 C2697 1.495 . S
C2694 C2693 1.392 . S
C2694 C2695 1.385 . S
C2694 C2696 1.478 . S
C2695 H2689 0.930 . S
C2695 C2691 1.400 . S
C2695 C2694 1.385 . S
C2696 C2694 1.478 . S
C2696 C2698 1.381 . S
C2696 C2702 1.383 . S
C2697 C2693 1.495 . S
C2697 H2703 0.959 . S
C2697 H2704 0.961 . S
C2697 H2705 0.960 . S
C2698 C2696 1.381 . S
C2698 C2699 1.394 . S
C2698 H2706 0.930 . S
C2699 C2698 1.394 . S
C2699 C2700 1.383 . S
C2699 H2707 0.929 . S
C2700 C2699 1.383 . S
C2700 C2701 1.377 . S
C2701 H2685 0.930 . S
C2701 C2700 1.377 . S
C2701 C2702 1.379 . S
C2702 H2686 0.931 . S
C2702 C2696 1.383 . S
C2702 C2701 1.379 . S
H2703 C2697 0.959 . S
H2704 C2697 0.961 . S
H2705 C2697 0.960 . S
H2706 C2698 0.930 . S
H2707 C2699 0.929 . S
H2708 C2716 0.929 . S
H2709 C2718 0.930 . S
H2710 C2720 0.930 . S
H2711 C2723 0.929 . S
H2712 C2726 0.930 . S
H2713 C2728 0.960 . S
H2714 C2728 0.960 . S
H2715 C2728 0.960 . S
C2716 H2708 0.929 . S
C2716 C2717 1.377 . S
C2716 C2718 1.384 . S
C2717 C2716 1.377 . S
C2717 C2723 1.390 . S
C2718 H2709 0.930 . S
C2718 C2716 1.384 . S
C2718 C2719 1.372 . S
C2719 C2718 1.372 . S
C2719 C2720 1.400 . S
C2719 C2724 1.490 . S
C2720 H2710 0.930 . S
C2720 C2719 1.400 . S
C2720 C2723 1.386 . S
H2721 C2737 0.930 . S
H2722 C2738 0.931 . S
C2723 H2711 0.929 . S
C2723 C2717 1.390 . S
C2723 C2720 1.386 . S
C2724 C2719 1.490 . S
C2724 C2726 1.395 . S
C2724 C2727 1.403 . S
H2725 C2731 0.930 . S
C2726 H2712 0.930 . S
C2726 C2724 1.395 . S
C2726 C2729 1.403 . S
C2727 C2724 1.403 . S
C2727 C2728 1.524 . S
C2727 C2731 1.400 . S
C2728 H2713 0.960 . S
C2728 H2714 0.960 . S
C2728 H2715 0.960 . S
C2728 C2727 1.524 . S
C2729 C2726 1.403 . S
C2729 C2730 1.392 . S
C2729 C2733 1.495 . S
C2730 C2729 1.392 . S
C2730 C2731 1.385 . S
C2730 C2732 1.478 . S
C2731 H2725 0.930 . S
C2731 C2727 1.400 . S
C2731 C2730 1.385 . S
C2732 C2730 1.478 . S
C2732 C2734 1.381 . S
C2732 C2738 1.383 . S
C2733 C2729 1.495 . S
C2733 H2739 0.959 . S
C2733 H2740 0.961 . S
C2733 H2741 0.960 . S
C2734 C2732 1.381 . S
C2734 C2735 1.394 . S
C2734 H2742 0.930 . S
C2735 C2734 1.394 . S
C2735 C2736 1.383 . S
C2735 H2743 0.929 . S
C2736 C2735 1.383 . S
C2736 C2737 1.377 . S
C2737 H2721 0.930 . S
C2737 C2736 1.377 . S
C2737 C2738 1.379 . S
C2738 H2722 0.931 . S
C2738 C2732 1.383 . S
C2738 C2737 1.379 . S
H2739 C2733 0.959 . S
H2740 C2733 0.961 . S
H2741 C2733 0.960 . S
H2742 C2734 0.930 . S
H2743 C2735 0.929 . S
H2744 C2752 0.929 . S
H2745 C2754 0.930 . S
H2746 C2756 0.930 . S
H2747 C2759 0.929 . S
H2748 C2762 0.930 . S
H2749 C2764 0.960 . S
H2750 C2764 0.960 . S
H2751 C2764 0.960 . S
C2752 H2744 0.929 . S
C2752 C2753 1.377 . S
C2752 C2754 1.384 . S
C2753 C2752 1.377 . S
C2753 C2759 1.390 . S
C2754 H2745 0.930 . S
C2754 C2752 1.384 . S
C2754 C2755 1.372 . S
C2755 C2754 1.372 . S
C2755 C2756 1.400 . S
C2755 C2760 1.490 . S
C2756 H2746 0.930 . S
C2756 C2755 1.400 . S
C2756 C2759 1.386 . S
H2757 C2773 0.930 . S
H2758 C2774 0.931 . S
C2759 H2747 0.929 . S
C2759 C2753 1.390 . S
C2759 C2756 1.386 . S
C2760 C2755 1.490 . S
C2760 C2762 1.395 . S
C2760 C2763 1.403 . S
H2761 C2767 0.930 . S
C2762 H2748 0.930 . S
C2762 C2760 1.395 . S
C2762 C2765 1.403 . S
C2763 C2760 1.403 . S
C2763 C2764 1.524 . S
C2763 C2767 1.400 . S
C2764 H2749 0.960 . S
C2764 H2750 0.960 . S
C2764 H2751 0.960 . S
C2764 C2763 1.524 . S
C2765 C2762 1.403 . S
C2765 C2766 1.392 . S
C2765 C2769 1.495 . S
C2766 C2765 1.392 . S
C2766 C2767 1.385 . S
C2766 C2768 1.478 . S
C2767 H2761 0.930 . S
C2767 C2763 1.400 . S
C2767 C2766 1.385 . S
C2768 C2766 1.478 . S
C2768 C2770 1.381 . S
C2768 C2774 1.383 . S
C2769 C2765 1.495 . S
C2769 H2775 0.959 . S
C2769 H2776 0.961 . S
C2769 H2777 0.960 . S
C2770 C2768 1.381 . S
C2770 C2771 1.394 . S
C2770 H2778 0.930 . S
C2771 C2770 1.394 . S
C2771 C2772 1.383 . S
C2771 H2779 0.929 . S
C2772 C2771 1.383 . S
C2772 C2773 1.377 . S
C2773 H2757 0.930 . S
C2773 C2772 1.377 . S
C2773 C2774 1.379 . S
C2774 H2758 0.931 . S
C2774 C2768 1.383 . S
C2774 C2773 1.379 . S
H2775 C2769 0.959 . S
H2776 C2769 0.961 . S
H2777 C2769 0.960 . S
H2778 C2770 0.930 . S
H2779 C2771 0.929 . S
H2780 C2788 0.929 . S
H2781 C2790 0.930 . S
H2782 C2792 0.930 . S
H2783 C2795 0.929 . S
H2784 C2798 0.930 . S
H2785 C2800 0.960 . S
H2786 C2800 0.960 . S
H2787 C2800 0.960 . S
C2788 H2780 0.929 . S
C2788 C2789 1.377 . S
C2788 C2790 1.384 . S
C2789 C2788 1.377 . S
C2789 C2795 1.390 . S
C2790 H2781 0.930 . S
C2790 C2788 1.384 . S
C2790 C2791 1.372 . S
C2791 C2790 1.372 . S
C2791 C2792 1.400 . S
C2791 C2796 1.490 . S
C2792 H2782 0.930 . S
C2792 C2791 1.400 . S
C2792 C2795 1.386 . S
H2793 C2809 0.930 . S
H2794 C2810 0.931 . S
C2795 H2783 0.929 . S
C2795 C2789 1.390 . S
C2795 C2792 1.386 . S
C2796 C2791 1.490 . S
C2796 C2798 1.395 . S
C2796 C2799 1.403 . S
H2797 C2803 0.930 . S
C2798 H2784 0.930 . S
C2798 C2796 1.395 . S
C2798 C2801 1.403 . S
C2799 C2796 1.403 . S
C2799 C2800 1.524 . S
C2799 C2803 1.400 . S
C2800 H2785 0.960 . S
C2800 H2786 0.960 . S
C2800 H2787 0.960 . S
C2800 C2799 1.524 . S
C2801 C2798 1.403 . S
C2801 C2802 1.392 . S
C2801 C2805 1.495 . S
C2802 C2801 1.392 . S
C2802 C2803 1.385 . S
C2802 C2804 1.478 . S
C2803 H2797 0.930 . S
C2803 C2799 1.400 . S
C2803 C2802 1.385 . S
C2804 C2802 1.478 . S
C2804 C2806 1.381 . S
C2804 C2810 1.383 . S
C2805 C2801 1.495 . S
C2805 H2811 0.959 . S
C2805 H2812 0.961 . S
C2805 H2813 0.960 . S
C2806 C2804 1.381 . S
C2806 C2807 1.394 . S
C2806 H2814 0.930 . S
C2807 C2806 1.394 . S
C2807 C2808 1.383 . S
C2807 H2815 0.929 . S
C2808 C2807 1.383 . S
C2808 C2809 1.377 . S
C2809 H2793 0.930 . S
C2809 C2808 1.377 . S
C2809 C2810 1.379 . S
C2810 H2794 0.931 . S
C2810 C2804 1.383 . S
C2810 C2809 1.379 . S
H2811 C2805 0.959 . S
H2812 C2805 0.961 . S
H2813 C2805 0.960 . S
H2814 C2806 0.930 . S
H2815 C2807 0.929 . S
H2816 C2824 0.929 . S
H2817 C2826 0.930 . S
H2818 C2828 0.930 . S
H2819 C2831 0.929 . S
H2820 C2834 0.930 . S
H2821 C2836 0.960 . S
H2822 C2836 0.960 . S
H2823 C2836 0.960 . S
C2824 H2816 0.929 . S
C2824 C2825 1.377 . S
C2824 C2826 1.384 . S
C2825 C2824 1.377 . S
C2825 C2831 1.390 . S
C2826 H2817 0.930 . S
C2826 C2824 1.384 . S
C2826 C2827 1.372 . S
C2827 C2826 1.372 . S
C2827 C2828 1.400 . S
C2827 C2832 1.490 . S
C2828 H2818 0.930 . S
C2828 C2827 1.400 . S
C2828 C2831 1.386 . S
H2829 C2845 0.930 . S
H2830 C2846 0.931 . S
C2831 H2819 0.929 . S
C2831 C2825 1.390 . S
C2831 C2828 1.386 . S
C2832 C2827 1.490 . S
C2832 C2834 1.395 . S
C2832 C2835 1.403 . S
H2833 C2839 0.930 . S
C2834 H2820 0.930 . S
C2834 C2832 1.395 . S
C2834 C2837 1.403 . S
C2835 C2832 1.403 . S
C2835 C2836 1.524 . S
C2835 C2839 1.400 . S
C2836 H2821 0.960 . S
C2836 H2822 0.960 . S
C2836 H2823 0.960 . S
C2836 C2835 1.524 . S
C2837 C2834 1.403 . S
C2837 C2838 1.392 . S
C2837 C2841 1.495 . S
C2838 C2837 1.392 . S
C2838 C2839 1.385 . S
C2838 C2840 1.478 . S
C2839 H2833 0.930 . S
C2839 C2835 1.400 . S
C2839 C2838 1.385 . S
C2840 C2838 1.478 . S
C2840 C2842 1.381 . S
C2840 C2846 1.383 . S
C2841 C2837 1.495 . S
C2841 H2847 0.959 . S
C2841 H2848 0.961 . S
C2841 H2849 0.960 . S
C2842 C2840 1.381 . S
C2842 C2843 1.394 . S
C2842 H2850 0.930 . S
C2843 C2842 1.394 . S
C2843 C2844 1.383 . S
C2843 H2851 0.929 . S
C2844 C2843 1.383 . S
C2844 C2845 1.377 . S
C2845 H2829 0.930 . S
C2845 C2844 1.377 . S
C2845 C2846 1.379 . S
C2846 H2830 0.931 . S
C2846 C2840 1.383 . S
C2846 C2845 1.379 . S
H2847 C2841 0.959 . S
H2848 C2841 0.961 . S
H2849 C2841 0.960 . S
H2850 C2842 0.930 . S
H2851 C2843 0.929 . S
H2852 C2860 0.929 . S
H2853 C2862 0.930 . S
H2854 C2864 0.930 . S
H2855 C2867 0.929 . S
H2856 C2870 0.930 . S
H2857 C2872 0.960 . S
H2858 C2872 0.960 . S
H2859 C2872 0.960 . S
C2860 H2852 0.929 . S
C2860 C2861 1.377 . S
C2860 C2862 1.384 . S
C2861 C2860 1.377 . S
C2861 C2867 1.390 . S
C2862 H2853 0.930 . S
C2862 C2860 1.384 . S
C2862 C2863 1.372 . S
C2863 C2862 1.372 . S
C2863 C2864 1.400 . S
C2863 C2868 1.490 . S
C2864 H2854 0.930 . S
C2864 C2863 1.400 . S
C2864 C2867 1.386 . S
H2865 C2881 0.930 . S
H2866 C2882 0.931 . S
C2867 H2855 0.929 . S
C2867 C2861 1.390 . S
C2867 C2864 1.386 . S
C2868 C2863 1.490 . S
C2868 C2870 1.395 . S
C2868 C2871 1.403 . S
H2869 C2875 0.930 . S
C2870 H2856 0.930 . S
C2870 C2868 1.395 . S
C2870 C2873 1.403 . S
C2871 C2868 1.403 . S
C2871 C2872 1.524 . S
C2871 C2875 1.400 . S
C2872 H2857 0.960 . S
C2872 H2858 0.960 . S
C2872 H2859 0.960 . S
C2872 C2871 1.524 . S
C2873 C2870 1.403 . S
C2873 C2874 1.392 . S
C2873 C2877 1.495 . S
C2874 C2873 1.392 . S
C2874 C2875 1.385 . S
C2874 C2876 1.478 . S
C2875 H2869 0.930 . S
C2875 C2871 1.400 . S
C2875 C2874 1.385 . S
C2876 C2874 1.478 . S
C2876 C2878 1.381 . S
C2876 C2882 1.383 . S
C2877 C2873 1.495 . S
C2877 H2883 0.959 . S
C2877 H2884 0.961 . S
C2877 H2885 0.960 . S
C2878 C2876 1.381 . S
C2878 C2879 1.394 . S
C2878 H2886 0.930 . S
C2879 C2878 1.394 . S
C2879 C2880 1.383 . S
C2879 H2887 0.929 . S
C2880 C2879 1.383 . S
C2880 C2881 1.377 . S
C2881 H2865 0.930 . S
C2881 C2880 1.377 . S
C2881 C2882 1.379 . S
C2882 H2866 0.931 . S
C2882 C2876 1.383 . S
C2882 C2881 1.379 . S
H2883 C2877 0.959 . S
H2884 C2877 0.961 . S
H2885 C2877 0.960 . S
H2886 C2878 0.930 . S
H2887 C2879 0.929 . S
H2888 C2896 0.929 . S
H2889 C2898 0.930 . S
H2890 C2900 0.930 . S
H2891 C2903 0.929 . S
H2892 C2906 0.930 . S
H2893 C2908 0.960 . S
H2894 C2908 0.960 . S
H2895 C2908 0.960 . S
C2896 H2888 0.929 . S
C2896 C2897 1.377 . S
C2896 C2898 1.384 . S
C2897 C2896 1.377 . S
C2897 C2903 1.390 . S
C2898 H2889 0.930 . S
C2898 C2896 1.384 . S
C2898 C2899 1.372 . S
C2899 C2898 1.372 . S
C2899 C2900 1.400 . S
C2899 C2904 1.490 . S
C2900 H2890 0.930 . S
C2900 C2899 1.400 . S
C2900 C2903 1.386 . S
H2901 C2917 0.930 . S
H2902 C2918 0.931 . S
C2903 H2891 0.929 . S
C2903 C2897 1.390 . S
C2903 C2900 1.386 . S
C2904 C2899 1.490 . S
C2904 C2906 1.395 . S
C2904 C2907 1.403 . S
H2905 C2911 0.930 . S
C2906 H2892 0.930 . S
C2906 C2904 1.395 . S
C2906 C2909 1.403 . S
C2907 C2904 1.403 . S
C2907 C2908 1.524 . S
C2907 C2911 1.400 . S
C2908 H2893 0.960 . S
C2908 H2894 0.960 . S
C2908 H2895 0.960 . S
C2908 C2907 1.524 . S
C2909 C2906 1.403 . S
C2909 C2910 1.392 . S
C2909 C2913 1.495 . S
C2910 C2909 1.392 . S
C2910 C2911 1.385 . S
C2910 C2912 1.478 . S
C2911 H2905 0.930 . S
C2911 C2907 1.400 . S
C2911 C2910 1.385 . S
C2912 C2910 1.478 . S
C2912 C2914 1.381 . S
C2912 C2918 1.383 . S
C2913 C2909 1.495 . S
C2913 H2919 0.959 . S
C2913 H2920 0.961 . S
C2913 H2921 0.960 . S
C2914 C2912 1.381 . S
C2914 C2915 1.394 . S
C2914 H2922 0.930 . S
C2915 C2914 1.394 . S
C2915 C2916 1.383 . S
C2915 H2923 0.929 . S
C2916 C2915 1.383 . S
C2916 C2917 1.377 . S
C2917 H2901 0.930 . S
C2917 C2916 1.377 . S
C2917 C2918 1.379 . S
C2918 H2902 0.931 . S
C2918 C2912 1.383 . S
C2918 C2917 1.379 . S
H2919 C2913 0.959 . S
H2920 C2913 0.961 . S
H2921 C2913 0.960 . S
H2922 C2914 0.930 . S
H2923 C2915 0.929 . S
H2924 C2932 0.929 . S
H2925 C2934 0.930 . S
H2926 C2936 0.930 . S
H2927 C2939 0.929 . S
H2928 C2942 0.930 . S
H2929 C2944 0.960 . S
H2930 C2944 0.960 . S
H2931 C2944 0.960 . S
C2932 H2924 0.929 . S
C2932 C2933 1.377 . S
C2932 C2934 1.384 . S
C2933 C2932 1.377 . S
C2933 C2939 1.390 . S
C2934 H2925 0.930 . S
C2934 C2932 1.384 . S
C2934 C2935 1.372 . S
C2935 C2934 1.372 . S
C2935 C2936 1.400 . S
C2935 C2940 1.490 . S
C2936 H2926 0.930 . S
C2936 C2935 1.400 . S
C2936 C2939 1.386 . S
H2937 C2953 0.930 . S
H2938 C2954 0.931 . S
C2939 H2927 0.929 . S
C2939 C2933 1.390 . S
C2939 C2936 1.386 . S
C2940 C2935 1.490 . S
C2940 C2942 1.395 . S
C2940 C2943 1.403 . S
H2941 C2947 0.930 . S
C2942 H2928 0.930 . S
C2942 C2940 1.395 . S
C2942 C2945 1.403 . S
C2943 C2940 1.403 . S
C2943 C2944 1.524 . S
C2943 C2947 1.400 . S
C2944 H2929 0.960 . S
C2944 H2930 0.960 . S
C2944 H2931 0.960 . S
C2944 C2943 1.524 . S
C2945 C2942 1.403 . S
C2945 C2946 1.392 . S
C2945 C2949 1.495 . S
C2946 C2945 1.392 . S
C2946 C2947 1.385 . S
C2946 C2948 1.478 . S
C2947 H2941 0.930 . S
C2947 C2943 1.400 . S
C2947 C2946 1.385 . S
C2948 C2946 1.478 . S
C2948 C2950 1.381 . S
C2948 C2954 1.383 . S
C2949 C2945 1.495 . S
C2949 H2955 0.959 . S
C2949 H2956 0.961 . S
C2949 H2957 0.960 . S
C2950 C2948 1.381 . S
C2950 C2951 1.394 . S
C2950 H2958 0.930 . S
C2951 C2950 1.394 . S
C2951 C2952 1.383 . S
C2951 H2959 0.929 . S
C2952 C2951 1.383 . S
C2952 C2953 1.377 . S
C2953 H2937 0.930 . S
C2953 C2952 1.377 . S
C2953 C2954 1.379 . S
C2954 H2938 0.931 . S
C2954 C2948 1.383 . S
C2954 C2953 1.379 . S
H2955 C2949 0.959 . S
H2956 C2949 0.961 . S
H2957 C2949 0.960 . S
H2958 C2950 0.930 . S
H2959 C2951 0.929 . S
H2960 C2968 0.929 . S
H2961 C2970 0.930 . S
H2962 C2972 0.930 . S
H2963 C2975 0.929 . S
H2964 C2978 0.930 . S
H2965 C2980 0.960 . S
H2966 C2980 0.960 . S
H2967 C2980 0.960 . S
C2968 H2960 0.929 . S
C2968 C2969 1.377 . S
C2968 C2970 1.384 . S
C2969 C2968 1.377 . S
C2969 C2975 1.390 . S
C2970 H2961 0.930 . S
C2970 C2968 1.384 . S
C2970 C2971 1.372 . S
C2971 C2970 1.372 . S
C2971 C2972 1.400 . S
C2971 C2976 1.490 . S
C2972 H2962 0.930 . S
C2972 C2971 1.400 . S
C2972 C2975 1.386 . S
H2973 C2989 0.930 . S
H2974 C2990 0.931 . S
C2975 H2963 0.929 . S
C2975 C2969 1.390 . S
C2975 C2972 1.386 . S
C2976 C2971 1.490 . S
C2976 C2978 1.395 . S
C2976 C2979 1.403 . S
H2977 C2983 0.930 . S
C2978 H2964 0.930 . S
C2978 C2976 1.395 . S
C2978 C2981 1.403 . S
C2979 C2976 1.403 . S
C2979 C2980 1.524 . S
C2979 C2983 1.400 . S
C2980 H2965 0.960 . S
C2980 H2966 0.960 . S
C2980 H2967 0.960 . S
C2980 C2979 1.524 . S
C2981 C2978 1.403 . S
C2981 C2982 1.392 . S
C2981 C2985 1.495 . S
C2982 C2981 1.392 . S
C2982 C2983 1.385 . S
C2982 C2984 1.478 . S
C2983 H2977 0.930 . S
C2983 C2979 1.400 . S
C2983 C2982 1.385 . S
C2984 C2982 1.478 . S
C2984 C2986 1.381 . S
C2984 C2990 1.383 . S
C2985 C2981 1.495 . S
C2985 H2991 0.959 . S
C2985 H2992 0.961 . S
C2985 H2993 0.960 . S
C2986 C2984 1.381 . S
C2986 C2987 1.394 . S
C2986 H2994 0.930 . S
C2987 C2986 1.394 . S
C2987 C2988 1.383 . S
C2987 H2995 0.929 . S
C2988 C2987 1.383 . S
C2988 C2989 1.377 . S
C2989 H2973 0.930 . S
C2989 C2988 1.377 . S
C2989 C2990 1.379 . S
C2990 H2974 0.931 . S
C2990 C2984 1.383 . S
C2990 C2989 1.379 . S
H2991 C2985 0.959 . S
H2992 C2985 0.961 . S
H2993 C2985 0.960 . S
H2994 C2986 0.930 . S
H2995 C2987 0.929 . S
H2996 C3004 0.929 . S
H2997 C3006 0.930 . S
H2998 C3008 0.930 . S
H2999 C3011 0.929 . S
H3000 C3014 0.930 . S
H3001 C3016 0.960 . S
H3002 C3016 0.960 . S
H3003 C3016 0.960 . S
C3004 H2996 0.929 . S
C3004 C3005 1.377 . S
C3004 C3006 1.384 . S
C3005 C3004 1.377 . S
C3005 C3011 1.390 . S
C3006 H2997 0.930 . S
C3006 C3004 1.384 . S
C3006 C3007 1.372 . S
C3007 C3006 1.372 . S
C3007 C3008 1.400 . S
C3007 C3012 1.490 . S
C3008 H2998 0.930 . S
C3008 C3007 1.400 . S
C3008 C3011 1.386 . S
H3009 C3025 0.930 . S
H3010 C3026 0.931 . S
C3011 H2999 0.929 . S
C3011 C3005 1.390 . S
C3011 C3008 1.386 . S
C3012 C3007 1.490 . S
C3012 C3014 1.395 . S
C3012 C3015 1.403 . S
H3013 C3019 0.930 . S
C3014 H3000 0.930 . S
C3014 C3012 1.395 . S
C3014 C3017 1.403 . S
C3015 C3012 1.403 . S
C3015 C3016 1.524 . S
C3015 C3019 1.400 . S
C3016 H3001 0.960 . S
C3016 H3002 0.960 . S
C3016 H3003 0.960 . S
C3016 C3015 1.524 . S
C3017 C3014 1.403 . S
C3017 C3018 1.392 . S
C3017 C3021 1.495 . S
C3018 C3017 1.392 . S
C3018 C3019 1.385 . S
C3018 C3020 1.478 . S
C3019 H3013 0.930 . S
C3019 C3015 1.400 . S
C3019 C3018 1.385 . S
C3020 C3018 1.478 . S
C3020 C3022 1.381 . S
C3020 C3026 1.383 . S
C3021 C3017 1.495 . S
C3021 H3027 0.959 . S
C3021 H3028 0.961 . S
C3021 H3029 0.960 . S
C3022 C3020 1.381 . S
C3022 C3023 1.394 . S
C3022 H3030 0.930 . S
C3023 C3022 1.394 . S
C3023 C3024 1.383 . S
C3023 H3031 0.929 . S
C3024 C3023 1.383 . S
C3024 C3025 1.377 . S
C3025 H3009 0.930 . S
C3025 C3024 1.377 . S
C3025 C3026 1.379 . S
C3026 H3010 0.931 . S
C3026 C3020 1.383 . S
C3026 C3025 1.379 . S
H3027 C3021 0.959 . S
H3028 C3021 0.961 . S
H3029 C3021 0.960 . S
H3030 C3022 0.930 . S
H3031 C3023 0.929 . S
H3032 C3040 0.929 . S
H3033 C3042 0.930 . S
H3034 C3044 0.930 . S
H3035 C3047 0.929 . S
H3036 C3050 0.930 . S
H3037 C3052 0.960 . S
H3038 C3052 0.960 . S
H3039 C3052 0.960 . S
C3040 H3032 0.929 . S
C3040 C3041 1.377 . S
C3040 C3042 1.384 . S
C3041 C3040 1.377 . S
C3041 C3047 1.390 . S
C3042 H3033 0.930 . S
C3042 C3040 1.384 . S
C3042 C3043 1.372 . S
C3043 C3042 1.372 . S
C3043 C3044 1.400 . S
C3043 C3048 1.490 . S
C3044 H3034 0.930 . S
C3044 C3043 1.400 . S
C3044 C3047 1.386 . S
H3045 C3061 0.930 . S
H3046 C3062 0.931 . S
C3047 H3035 0.929 . S
C3047 C3041 1.390 . S
C3047 C3044 1.386 . S
C3048 C3043 1.490 . S
C3048 C3050 1.395 . S
C3048 C3051 1.403 . S
H3049 C3055 0.930 . S
C3050 H3036 0.930 . S
C3050 C3048 1.395 . S
C3050 C3053 1.403 . S
C3051 C3048 1.403 . S
C3051 C3052 1.524 . S
C3051 C3055 1.400 . S
C3052 H3037 0.960 . S
C3052 H3038 0.960 . S
C3052 H3039 0.960 . S
C3052 C3051 1.524 . S
C3053 C3050 1.403 . S
C3053 C3054 1.392 . S
C3053 C3057 1.495 . S
C3054 C3053 1.392 . S
C3054 C3055 1.385 . S
C3054 C3056 1.478 . S
C3055 H3049 0.930 . S
C3055 C3051 1.400 . S
C3055 C3054 1.385 . S
C3056 C3054 1.478 . S
C3056 C3058 1.381 . S
C3056 C3062 1.383 . S
C3057 C3053 1.495 . S
C3057 H3063 0.959 . S
C3057 H3064 0.961 . S
C3057 H3065 0.960 . S
C3058 C3056 1.381 . S
C3058 C3059 1.394 . S
C3058 H3066 0.930 . S
C3059 C3058 1.394 . S
C3059 C3060 1.383 . S
C3059 H3067 0.929 . S
C3060 C3059 1.383 . S
C3060 C3061 1.377 . S
C3061 H3045 0.930 . S
C3061 C3060 1.377 . S
C3061 C3062 1.379 . S
C3062 H3046 0.931 . S
C3062 C3056 1.383 . S
C3062 C3061 1.379 . S
H3063 C3057 0.959 . S
H3064 C3057 0.961 . S
H3065 C3057 0.960 . S
H3066 C3058 0.930 . S
H3067 C3059 0.929 . S
H3068 C3076 0.929 . S
H3069 C3078 0.930 . S
H3070 C3080 0.930 . S
H3071 C3083 0.929 . S
H3072 C3086 0.930 . S
H3073 C3088 0.960 . S
H3074 C3088 0.960 . S
H3075 C3088 0.960 . S
C3076 H3068 0.929 . S
C3076 C3077 1.377 . S
C3076 C3078 1.384 . S
C3077 C3076 1.377 . S
C3077 C3083 1.390 . S
C3078 H3069 0.930 . S
C3078 C3076 1.384 . S
C3078 C3079 1.372 . S
C3079 C3078 1.372 . S
C3079 C3080 1.400 . S
C3079 C3084 1.490 . S
C3080 H3070 0.930 . S
C3080 C3079 1.400 . S
C3080 C3083 1.386 . S
H3081 C3097 0.930 . S
H3082 C3098 0.931 . S
C3083 H3071 0.929 . S
C3083 C3077 1.390 . S
C3083 C3080 1.386 . S
C3084 C3079 1.490 . S
C3084 C3086 1.394 1_554 S
C3084 C3087 1.403 . S
H3085 C3091 0.930 . S
C3086 H3072 0.930 . S
C3086 C3084 1.394 1_556 S
C3086 C3089 1.404 . S
C3087 C3084 1.403 . S
C3087 C3088 1.524 . S
C3087 C3091 1.400 . S
C3088 H3073 0.960 . S
C3088 H3074 0.960 . S
C3088 H3075 0.960 . S
C3088 C3087 1.524 . S
C3089 C3086 1.404 . S
C3089 C3090 1.392 1_556 S
C3089 C3093 1.495 . S
C3090 C3089 1.392 1_554 S
C3090 C3091 1.385 . S
C3090 C3092 1.478 . S
C3091 H3085 0.930 . S
C3091 C3087 1.400 . S
C3091 C3090 1.385 . S
C3092 C3090 1.478 . S
C3092 C3094 1.353 1_554 S
C3092 C3098 1.383 1_565 S
C3093 C3089 1.495 . S
C3093 H3099 0.959 . S
C3093 H3100 0.961 . S
C3093 H3101 0.960 . S
C3094 C3092 1.353 1_556 S
C3094 C3095 1.404 . S
C3094 H3102 0.952 . S
C3095 C3094 1.404 . S
C3095 C3096 1.383 1_566 S
C3095 H3103 0.929 . S
C3096 C3095 1.383 1_544 S
C3096 C3097 1.377 . S
C3097 H3081 0.930 . S
C3097 C3096 1.377 . S
C3097 C3098 1.379 . S
C3098 H3082 0.931 . S
C3098 C3092 1.383 1_545 S
C3098 C3097 1.379 . S
H3099 C3093 0.959 . S
H3100 C3093 0.961 . S
H3101 C3093 0.960 . S
H3102 C3094 0.952 . S
H3103 C3095 0.929 . S
H3104 C3112 0.929 . S
H3105 C3114 0.930 . S
H3106 C3116 0.930 . S
H3107 C3119 0.929 . S
H3108 C3122 0.930 . S
H3109 C3124 0.960 . S
H3110 C3124 0.960 . S
H3111 C3124 0.960 . S
C3112 H3104 0.929 . S
C3112 C3113 1.377 . S
C3112 C3114 1.384 . S
C3113 C3112 1.377 . S
C3113 C3119 1.390 . S
C3114 H3105 0.930 . S
C3114 C3112 1.384 . S
C3114 C3115 1.372 . S
C3115 C3114 1.372 . S
C3115 C3116 1.400 . S
C3115 C3120 1.490 . S
C3116 H3106 0.930 . S
C3116 C3115 1.400 . S
C3116 C3119 1.386 . S
H3117 C3133 0.930 . S
H3118 C3134 0.931 . S
C3119 H3107 0.929 . S
C3119 C3113 1.390 . S
C3119 C3116 1.386 . S
C3120 C3115 1.490 . S
C3120 C3122 1.395 . S
C3120 C3123 1.403 . S
H3121 C3127 0.930 . S
C3122 H3108 0.930 . S
C3122 C3120 1.395 . S
C3122 C3125 1.403 . S
C3123 C3120 1.403 . S
C3123 C3124 1.524 . S
C3123 C3127 1.400 . S
C3124 H3109 0.960 . S
C3124 H3110 0.960 . S
C3124 H3111 0.960 . S
C3124 C3123 1.524 . S
C3125 C3122 1.403 . S
C3125 C3126 1.392 . S
C3125 C3129 1.495 . S
C3126 C3125 1.392 . S
C3126 C3127 1.385 . S
C3126 C3128 1.478 . S
C3127 H3121 0.930 . S
C3127 C3123 1.400 . S
C3127 C3126 1.385 . S
C3128 C3126 1.478 . S
C3128 C3130 1.381 . S
C3128 C3134 1.383 . S
C3129 C3125 1.495 . S
C3129 H3135 0.959 . S
C3129 H3136 0.961 . S
C3129 H3137 0.960 . S
C3130 C3128 1.381 . S
C3130 C3131 1.394 . S
C3130 H3138 0.930 . S
C3131 C3130 1.394 . S
C3131 C3132 1.383 . S
C3131 H3139 0.929 . S
C3132 C3131 1.383 . S
C3132 C3133 1.377 . S
C3133 H3117 0.930 . S
C3133 C3132 1.377 . S
C3133 C3134 1.379 . S
C3134 H3118 0.931 . S
C3134 C3128 1.383 . S
C3134 C3133 1.379 . S
H3135 C3129 0.959 . S
H3136 C3129 0.961 . S
H3137 C3129 0.960 . S
H3138 C3130 0.930 . S
H3139 C3131 0.929 . S
H3140 C3148 0.929 . S
H3141 C3150 0.930 . S
H3142 C3152 0.915 1_556 S
H3143 C3155 0.929 . S
H3144 C3158 0.930 . S
H3145 C3160 0.960 . S
H3146 C3160 0.960 . S
H3147 C3160 0.960 . S
C3148 H3140 0.929 . S
C3148 C3149 1.377 . S
C3148 C3150 1.384 . S
C3149 C3148 1.377 . S
C3149 C3155 1.390 1_554 S
C3150 H3141 0.930 . S
C3150 C3148 1.384 . S
C3150 C3151 1.372 . S
C3151 C3150 1.372 . S
C3151 C3152 1.418 . S
C3151 C3156 1.490 . S
C3152 H3142 0.915 1_554 S
C3152 C3151 1.418 . S
C3152 C3155 1.383 1_554 S
H3153 C3169 0.930 . S
H3154 C3170 0.931 . S
C3155 H3143 0.929 . S
C3155 C3149 1.390 1_556 S
C3155 C3152 1.383 1_556 S
C3156 C3151 1.490 . S
C3156 C3158 1.395 . S
C3156 C3159 1.403 . S
H3157 C3163 0.887 1_556 S
C3158 H3144 0.930 . S
C3158 C3156 1.395 . S
C3158 C3161 1.403 . S
C3159 C3156 1.403 . S
C3159 C3160 1.524 1_554 S
C3159 C3163 1.400 . S
C3160 H3145 0.960 . S
C3160 H3146 0.960 . S
C3160 H3147 0.960 . S
C3160 C3159 1.524 1_556 S
C3161 C3158 1.403 . S
C3161 C3162 1.392 . S
C3161 C3165 1.495 . S
C3162 C3161 1.392 . S
C3162 C3163 1.385 . S
C3162 C3164 1.478 . S
C3163 H3157 0.887 1_554 S
C3163 C3159 1.400 . S
C3163 C3162 1.385 . S
C3164 C3162 1.478 . S
C3164 C3166 1.381 . S
C3164 C3170 1.383 . S
C3165 C3161 1.495 . S
C3165 H3171 0.959 . S
C3165 H3172 0.961 . S
C3165 H3173 0.960 . S
C3166 C3164 1.381 . S
C3166 C3167 1.394 . S
C3166 H3174 0.930 . S
C3167 C3166 1.394 . S
C3167 C3168 1.383 . S
C3167 H3175 0.929 . S
C3168 C3167 1.383 . S
C3168 C3169 1.377 . S
C3169 H3153 0.930 . S
C3169 C3168 1.377 . S
C3169 C3170 1.379 . S
C3170 H3154 0.931 . S
C3170 C3164 1.383 . S
C3170 C3169 1.379 . S
H3171 C3165 0.959 . S
H3172 C3165 0.961 . S
H3173 C3165 0.960 . S
H3174 C3166 0.930 . S
H3175 C3167 0.929 . S
H3176 C3184 0.929 . S
H3177 C3186 0.930 . S
H3178 C3188 0.930 . S
H3179 C3191 0.929 . S
H3180 C3194 0.930 . S
H3181 C3196 0.960 . S
H3182 C3196 0.960 . S
H3183 C3196 0.960 . S
C3184 H3176 0.929 . S
C3184 C3185 1.377 . S
C3184 C3186 1.384 . S
C3185 C3184 1.377 . S
C3185 C3191 1.390 . S
C3186 H3177 0.930 . S
C3186 C3184 1.384 . S
C3186 C3187 1.372 . S
C3187 C3186 1.372 . S
C3187 C3188 1.400 . S
C3187 C3192 1.490 . S
C3188 H3178 0.930 . S
C3188 C3187 1.400 . S
C3188 C3191 1.386 . S
H3189 C3205 0.930 . S
H3190 C3206 0.931 . S
C3191 H3179 0.929 . S
C3191 C3185 1.390 . S
C3191 C3188 1.386 . S
C3192 C3187 1.490 . S
C3192 C3194 1.395 . S
C3192 C3195 1.403 . S
H3193 C3199 0.930 . S
C3194 H3180 0.930 . S
C3194 C3192 1.395 . S
C3194 C3197 1.403 . S
C3195 C3192 1.403 . S
C3195 C3196 1.524 . S
C3195 C3199 1.400 . S
C3196 H3181 0.960 . S
C3196 H3182 0.960 . S
C3196 H3183 0.960 . S
C3196 C3195 1.524 . S
C3197 C3194 1.403 . S
C3197 C3198 1.392 . S
C3197 C3201 1.495 . S
C3198 C3197 1.392 . S
C3198 C3199 1.385 . S
C3198 C3200 1.478 . S
C3199 H3193 0.930 . S
C3199 C3195 1.400 . S
C3199 C3198 1.385 . S
C3200 C3198 1.478 . S
C3200 C3202 1.381 . S
C3200 C3206 1.383 . S
C3201 C3197 1.495 . S
C3201 H3207 0.959 . S
C3201 H3208 0.961 . S
C3201 H3209 0.960 . S
C3202 C3200 1.381 . S
C3202 C3203 1.394 . S
C3202 H3210 0.930 . S
C3203 C3202 1.394 . S
C3203 C3204 1.383 . S
C3203 H3211 0.929 . S
C3204 C3203 1.383 . S
C3204 C3205 1.377 . S
C3205 H3189 0.930 . S
C3205 C3204 1.377 . S
C3205 C3206 1.379 . S
C3206 H3190 0.931 . S
C3206 C3200 1.383 . S
C3206 C3205 1.379 . S
H3207 C3201 0.959 . S
H3208 C3201 0.961 . S
H3209 C3201 0.960 . S
H3210 C3202 0.930 . S
H3211 C3203 0.929 . S
H3212 C3220 0.929 . S
H3213 C3222 0.930 . S
H3214 C3224 0.930 . S
H3215 C3227 0.929 . S
H3216 C3230 0.930 . S
H3217 C3232 0.960 . S
H3218 C3232 0.960 . S
H3219 C3232 0.960 . S
C3220 H3212 0.929 . S
C3220 C3221 1.377 . S
C3220 C3222 1.384 . S
C3221 C3220 1.377 . S
C3221 C3227 1.390 . S
C3222 H3213 0.930 . S
C3222 C3220 1.384 . S
C3222 C3223 1.372 . S
C3223 C3222 1.372 . S
C3223 C3224 1.400 . S
C3223 C3228 1.490 . S
C3224 H3214 0.930 . S
C3224 C3223 1.400 . S
C3224 C3227 1.386 . S
H3225 C3241 0.930 . S
H3226 C3242 0.931 . S
C3227 H3215 0.929 . S
C3227 C3221 1.390 . S
C3227 C3224 1.386 . S
C3228 C3223 1.490 . S
C3228 C3230 1.395 . S
C3228 C3231 1.403 . S
H3229 C3235 0.930 . S
C3230 H3216 0.930 . S
C3230 C3228 1.395 . S
C3230 C3233 1.403 . S
C3231 C3228 1.403 . S
C3231 C3232 1.524 . S
C3231 C3235 1.400 . S
C3232 H3217 0.960 . S
C3232 H3218 0.960 . S
C3232 H3219 0.960 . S
C3232 C3231 1.524 . S
C3233 C3230 1.403 . S
C3233 C3234 1.392 . S
C3233 C3237 1.495 . S
C3234 C3233 1.392 . S
C3234 C3235 1.385 . S
C3234 C3236 1.478 . S
C3235 H3229 0.930 . S
C3235 C3231 1.400 . S
C3235 C3234 1.385 . S
C3236 C3234 1.478 . S
C3236 C3238 1.381 . S
C3236 C3242 1.383 . S
C3237 C3233 1.495 . S
C3237 H3243 0.959 . S
C3237 H3244 0.961 . S
C3237 H3245 0.960 . S
C3238 C3236 1.381 . S
C3238 C3239 1.394 . S
C3238 H3246 0.930 . S
C3239 C3238 1.394 . S
C3239 C3240 1.383 . S
C3239 H3247 0.929 . S
C3240 C3239 1.383 . S
C3240 C3241 1.377 . S
C3241 H3225 0.930 . S
C3241 C3240 1.377 . S
C3241 C3242 1.379 . S
C3242 H3226 0.931 . S
C3242 C3236 1.383 . S
C3242 C3241 1.379 . S
H3243 C3237 0.959 . S
H3244 C3237 0.961 . S
H3245 C3237 0.960 . S
H3246 C3238 0.930 . S
H3247 C3239 0.929 . S
H3248 C3256 0.929 . S
H3249 C3258 0.930 . S
H3250 C3260 0.930 . S
H3251 C3263 0.929 . S
H3252 C3266 0.930 . S
H3253 C3268 0.960 . S
H3254 C3268 0.960 . S
H3255 C3268 0.960 . S
C3256 H3248 0.929 . S
C3256 C3257 1.377 . S
C3256 C3258 1.384 . S
C3257 C3256 1.377 . S
C3257 C3263 1.390 . S
C3258 H3249 0.930 . S
C3258 C3256 1.384 . S
C3258 C3259 1.372 . S
C3259 C3258 1.372 . S
C3259 C3260 1.400 . S
C3259 C3264 1.490 . S
C3260 H3250 0.930 . S
C3260 C3259 1.400 . S
C3260 C3263 1.386 . S
H3261 C3277 0.930 . S
H3262 C3278 0.931 . S
C3263 H3251 0.929 . S
C3263 C3257 1.390 . S
C3263 C3260 1.386 . S
C3264 C3259 1.490 . S
C3264 C3266 1.395 . S
C3264 C3267 1.403 . S
H3265 C3271 0.930 . S
C3266 H3252 0.930 . S
C3266 C3264 1.395 . S
C3266 C3269 1.403 . S
C3267 C3264 1.403 . S
C3267 C3268 1.524 . S
C3267 C3271 1.400 . S
C3268 H3253 0.960 . S
C3268 H3254 0.960 . S
C3268 H3255 0.960 . S
C3268 C3267 1.524 . S
C3269 C3266 1.403 . S
C3269 C3270 1.392 . S
C3269 C3273 1.495 . S
C3270 C3269 1.392 . S
C3270 C3271 1.385 . S
C3270 C3272 1.478 . S
C3271 H3265 0.930 . S
C3271 C3267 1.400 . S
C3271 C3270 1.385 . S
C3272 C3270 1.478 . S
C3272 C3274 1.381 . S
C3272 C3278 1.383 . S
C3273 C3269 1.495 . S
C3273 H3279 0.959 . S
C3273 H3280 0.961 . S
C3273 H3281 0.960 . S
C3274 C3272 1.381 . S
C3274 C3275 1.394 . S
C3274 H3282 0.930 . S
C3275 C3274 1.394 . S
C3275 C3276 1.383 . S
C3275 H3283 0.929 . S
C3276 C3275 1.383 . S
C3276 C3277 1.377 . S
C3277 H3261 0.930 . S
C3277 C3276 1.377 . S
C3277 C3278 1.379 . S
C3278 H3262 0.931 . S
C3278 C3272 1.383 . S
C3278 C3277 1.379 . S
H3279 C3273 0.959 . S
H3280 C3273 0.961 . S
H3281 C3273 0.960 . S
H3282 C3274 0.930 . S
H3283 C3275 0.929 . S
H3284 C3292 0.929 . S
H3285 C3294 0.930 . S
H3286 C3296 0.930 . S
H3287 C3299 0.929 . S
H3288 C3302 0.930 . S
H3289 C3304 0.960 . S
H3290 C3304 0.960 . S
H3291 C3304 0.960 . S
C3292 H3284 0.929 . S
C3292 C3293 1.377 . S
C3292 C3294 1.384 . S
C3293 C3292 1.377 . S
C3293 C3299 1.390 . S
C3294 H3285 0.930 . S
C3294 C3292 1.384 . S
C3294 C3295 1.372 . S
C3295 C3294 1.372 . S
C3295 C3296 1.400 . S
C3295 C3300 1.490 . S
C3296 H3286 0.930 . S
C3296 C3295 1.400 . S
C3296 C3299 1.386 . S
H3297 C3313 0.930 . S
H3298 C3314 0.931 . S
C3299 H3287 0.929 . S
C3299 C3293 1.390 . S
C3299 C3296 1.386 . S
C3300 C3295 1.490 . S
C3300 C3302 1.395 . S
C3300 C3303 1.403 . S
H3301 C3307 0.930 . S
C3302 H3288 0.930 . S
C3302 C3300 1.395 . S
C3302 C3305 1.403 . S
C3303 C3300 1.403 . S
C3303 C3304 1.524 . S
C3303 C3307 1.400 . S
C3304 H3289 0.960 . S
C3304 H3290 0.960 . S
C3304 H3291 0.960 . S
C3304 C3303 1.524 . S
C3305 C3302 1.403 . S
C3305 C3306 1.392 . S
C3305 C3309 1.495 . S
C3306 C3305 1.392 . S
C3306 C3307 1.385 . S
C3306 C3308 1.478 . S
C3307 H3301 0.930 . S
C3307 C3303 1.400 . S
C3307 C3306 1.385 . S
C3308 C3306 1.478 . S
C3308 C3310 1.381 . S
C3308 C3314 1.383 . S
C3309 C3305 1.495 . S
C3309 H3315 0.959 . S
C3309 H3316 0.961 . S
C3309 H3317 0.960 . S
C3310 C3308 1.381 . S
C3310 C3311 1.394 . S
C3310 H3318 0.930 . S
C3311 C3310 1.394 . S
C3311 C3312 1.383 . S
C3311 H3319 0.929 . S
C3312 C3311 1.383 . S
C3312 C3313 1.377 . S
C3313 H3297 0.930 . S
C3313 C3312 1.377 . S
C3313 C3314 1.379 . S
C3314 H3298 0.931 . S
C3314 C3308 1.383 . S
C3314 C3313 1.379 . S
H3315 C3309 0.959 . S
H3316 C3309 0.961 . S
H3317 C3309 0.960 . S
H3318 C3310 0.930 . S
H3319 C3311 0.929 . S
H3320 C3328 0.929 . S
H3321 C3330 0.930 . S
H3322 C3332 0.930 . S
H3323 C3335 0.929 . S
H3324 C3338 0.930 1_655 S
H3325 C3340 0.960 . S
H3326 C3340 0.960 . S
H3327 C3340 0.960 . S
C3328 H3320 0.929 . S
C3328 C3329 1.377 . S
C3328 C3330 1.384 . S
C3329 C3328 1.377 . S
C3329 C3335 1.390 . S
C3330 H3321 0.930 . S
C3330 C3328 1.384 . S
C3330 C3331 1.372 . S
C3331 C3330 1.372 . S
C3331 C3332 1.400 . S
C3331 C3336 1.490 . S
C3332 H3322 0.930 . S
C3332 C3331 1.400 . S
C3332 C3335 1.386 . S
H3333 C3349 0.930 . S
H3334 C3350 0.931 . S
C3335 H3323 0.929 . S
C3335 C3329 1.390 . S
C3335 C3332 1.386 . S
C3336 C3331 1.490 . S
C3336 C3338 1.395 . S
C3336 C3339 1.403 . S
H3337 C3343 0.930 . S
C3338 H3324 0.930 1_455 S
C3338 C3336 1.395 . S
C3338 C3341 1.399 . S
C3339 C3336 1.403 . S
C3339 C3340 1.524 . S
C3339 C3343 1.400 . S
C3340 H3325 0.960 . S
C3340 H3326 0.960 . S
C3340 H3327 0.960 . S
C3340 C3339 1.524 . S
C3341 C3338 1.399 . S
C3341 C3342 1.421 . S
C3341 C3345 1.472 1_455 S
C3342 C3341 1.421 . S
C3342 C3343 1.385 . S
C3342 C3344 1.478 . S
C3343 H3337 0.930 . S
C3343 C3339 1.400 . S
C3343 C3342 1.385 . S
C3344 C3342 1.478 . S
C3344 C3346 1.381 . S
C3344 C3350 1.383 . S
C3345 C3341 1.472 1_655 S
C3345 H3351 0.959 . S
C3345 H3352 0.961 . S
C3345 H3353 0.960 . S
C3346 C3344 1.381 . S
C3346 C3347 1.394 . S
C3346 H3354 0.930 . S
C3347 C3346 1.394 . S
C3347 C3348 1.383 . S
C3347 H3355 0.929 . S
C3348 C3347 1.383 . S
C3348 C3349 1.377 . S
C3349 H3333 0.930 . S
C3349 C3348 1.377 . S
C3349 C3350 1.379 . S
C3350 H3334 0.931 . S
C3350 C3344 1.383 . S
C3350 C3349 1.379 . S
H3351 C3345 0.959 . S
H3352 C3345 0.961 . S
H3353 C3345 0.960 . S
H3354 C3346 0.930 . S
H3355 C3347 0.929 . S
H3356 C3364 0.929 . S
H3357 C3366 0.930 . S
H3358 C3368 0.930 . S
H3359 C3371 0.929 . S
H3360 C3374 0.930 . S
H3361 C3376 0.960 . S
H3362 C3376 0.960 . S
H3363 C3376 0.960 . S
C3364 H3356 0.929 . S
C3364 C3365 1.377 . S
C3364 C3366 1.384 . S
C3365 C3364 1.377 . S
C3365 C3371 1.390 . S
C3366 H3357 0.930 . S
C3366 C3364 1.384 . S
C3366 C3367 1.372 . S
C3367 C3366 1.372 . S
C3367 C3368 1.400 . S
C3367 C3372 1.490 . S
C3368 H3358 0.930 . S
C3368 C3367 1.400 . S
C3368 C3371 1.386 . S
H3369 C3385 0.930 . S
H3370 C3386 0.931 . S
C3371 H3359 0.929 . S
C3371 C3365 1.390 . S
C3371 C3368 1.386 . S
C3372 C3367 1.490 . S
C3372 C3374 1.395 . S
C3372 C3375 1.403 . S
H3373 C3379 0.930 . S
C3374 H3360 0.930 . S
C3374 C3372 1.395 . S
C3374 C3377 1.403 . S
C3375 C3372 1.403 . S
C3375 C3376 1.524 . S
C3375 C3379 1.400 . S
C3376 H3361 0.960 . S
C3376 H3362 0.960 . S
C3376 H3363 0.960 . S
C3376 C3375 1.524 . S
C3377 C3374 1.403 . S
C3377 C3378 1.392 . S
C3377 C3381 1.495 . S
C3378 C3377 1.392 . S
C3378 C3379 1.385 . S
C3378 C3380 1.478 . S
C3379 H3373 0.930 . S
C3379 C3375 1.400 . S
C3379 C3378 1.385 . S
C3380 C3378 1.478 . S
C3380 C3382 1.381 . S
C3380 C3386 1.383 . S
C3381 C3377 1.495 . S
C3381 H3387 0.959 . S
C3381 H3388 0.961 . S
C3381 H3389 0.960 . S
C3382 C3380 1.381 . S
C3382 C3383 1.394 . S
C3382 H3390 0.930 . S
C3383 C3382 1.394 . S
C3383 C3384 1.383 . S
C3383 H3391 0.929 . S
C3384 C3383 1.383 . S
C3384 C3385 1.377 . S
C3385 H3369 0.930 . S
C3385 C3384 1.377 . S
C3385 C3386 1.379 . S
C3386 H3370 0.931 . S
C3386 C3380 1.383 . S
C3386 C3385 1.379 . S
H3387 C3381 0.959 . S
H3388 C3381 0.961 . S
H3389 C3381 0.960 . S
H3390 C3382 0.930 . S
H3391 C3383 0.929 . S
H3392 C3400 0.929 . S
H3393 C3402 0.930 . S
H3394 C3404 0.930 . S
H3395 C3407 0.929 . S
H3396 C3410 0.930 . S
H3397 C3412 0.960 . S
H3398 C3412 0.960 . S
H3399 C3412 0.960 . S
C3400 H3392 0.929 . S
C3400 C3401 1.377 . S
C3400 C3402 1.384 . S
C3401 C3400 1.377 . S
C3401 C3407 1.390 . S
C3402 H3393 0.930 . S
C3402 C3400 1.384 . S
C3402 C3403 1.372 . S
C3403 C3402 1.372 . S
C3403 C3404 1.400 . S
C3403 C3408 1.490 . S
C3404 H3394 0.930 . S
C3404 C3403 1.400 . S
C3404 C3407 1.386 . S
H3405 C3421 0.930 1_554 S
H3406 C3422 0.931 . S
C3407 H3395 0.929 . S
C3407 C3401 1.390 . S
C3407 C3404 1.386 . S
C3408 C3403 1.490 . S
C3408 C3410 1.395 . S
C3408 C3411 1.403 . S
H3409 C3415 0.930 . S
C3410 H3396 0.930 . S
C3410 C3408 1.395 . S
C3410 C3413 1.403 . S
C3411 C3408 1.403 . S
C3411 C3412 1.524 . S
C3411 C3415 1.400 . S
C3412 H3397 0.960 . S
C3412 H3398 0.960 . S
C3412 H3399 0.960 . S
C3412 C3411 1.524 . S
C3413 C3410 1.403 . S
C3413 C3414 1.392 . S
C3413 C3417 1.495 . S
C3414 C3413 1.392 . S
C3414 C3415 1.385 . S
C3414 C3416 1.478 . S
C3415 H3409 0.930 . S
C3415 C3411 1.400 . S
C3415 C3414 1.385 . S
C3416 C3414 1.478 . S
C3416 C3418 1.381 . S
C3416 C3422 1.383 . S
C3417 C3413 1.495 . S
C3417 H3423 0.959 . S
C3417 H3424 0.961 . S
C3417 H3425 0.960 . S
C3418 C3416 1.381 . S
C3418 C3419 1.394 . S
C3418 H3426 0.930 . S
C3419 C3418 1.394 . S
C3419 C3420 1.383 . S
C3419 H3427 0.929 . S
C3420 C3419 1.383 . S
C3420 C3421 1.377 . S
C3421 H3405 0.930 1_556 S
C3421 C3420 1.377 . S
C3421 C3422 1.379 . S
C3422 H3406 0.931 . S
C3422 C3416 1.383 . S
C3422 C3421 1.379 . S
H3423 C3417 0.959 . S
H3424 C3417 0.961 . S
H3425 C3417 0.960 . S
H3426 C3418 0.930 . S
H3427 C3419 0.929 . S
H3428 C3436 0.929 . S
H3429 C3438 0.930 . S
H3430 C3440 0.930 . S
H3431 C3443 0.929 . S
H3432 C3446 0.930 . S
H3433 C3448 0.960 . S
H3434 C3448 0.960 . S
H3435 C3448 0.960 . S
C3436 H3428 0.929 . S
C3436 C3437 1.377 . S
C3436 C3438 1.384 . S
C3437 C3436 1.377 . S
C3437 C3443 1.390 . S
C3438 H3429 0.930 . S
C3438 C3436 1.384 . S
C3438 C3439 1.372 . S
C3439 C3438 1.372 . S
C3439 C3440 1.400 . S
C3439 C3444 1.490 . S
C3440 H3430 0.930 . S
C3440 C3439 1.400 . S
C3440 C3443 1.386 . S
H3441 C3457 0.930 . S
H3442 C3458 0.931 . S
C3443 H3431 0.929 . S
C3443 C3437 1.390 . S
C3443 C3440 1.386 . S
C3444 C3439 1.490 . S
C3444 C3446 1.395 . S
C3444 C3447 1.403 . S
H3445 C3451 0.930 . S
C3446 H3432 0.930 . S
C3446 C3444 1.395 . S
C3446 C3449 1.403 . S
C3447 C3444 1.403 . S
C3447 C3448 1.524 . S
C3447 C3451 1.400 . S
C3448 H3433 0.960 . S
C3448 H3434 0.960 . S
C3448 H3435 0.960 . S
C3448 C3447 1.524 . S
C3449 C3446 1.403 . S
C3449 C3450 1.392 . S
C3449 C3453 1.495 . S
C3450 C3449 1.392 . S
C3450 C3451 1.385 . S
C3450 C3452 1.478 . S
C3451 H3445 0.930 . S
C3451 C3447 1.400 . S
C3451 C3450 1.385 . S
C3452 C3450 1.478 . S
C3452 C3454 1.381 . S
C3452 C3458 1.383 . S
C3453 C3449 1.495 . S
C3453 H3459 0.959 . S
C3453 H3460 0.961 . S
C3453 H3461 0.960 . S
C3454 C3452 1.381 . S
C3454 C3455 1.394 . S
C3454 H3462 0.930 . S
C3455 C3454 1.394 . S
C3455 C3456 1.383 . S
C3455 H3463 0.929 . S
C3456 C3455 1.383 . S
C3456 C3457 1.377 . S
C3457 H3441 0.930 . S
C3457 C3456 1.377 . S
C3457 C3458 1.379 . S
C3458 H3442 0.931 . S
C3458 C3452 1.383 . S
C3458 C3457 1.379 . S
H3459 C3453 0.959 . S
H3460 C3453 0.961 . S
H3461 C3453 0.960 . S
H3462 C3454 0.930 . S
H3463 C3455 0.929 . S
H3464 C3472 0.929 . S
H3465 C3474 0.930 . S
H3466 C3476 0.930 . S
H3467 C3479 0.929 . S
H3468 C3482 0.930 1_655 S
H3469 C3484 0.960 . S
H3470 C3484 0.960 . S
H3471 C3484 0.960 . S
C3472 H3464 0.929 . S
C3472 C3473 1.377 . S
C3472 C3474 1.384 . S
C3473 C3472 1.377 . S
C3473 C3479 1.390 . S
C3474 H3465 0.930 . S
C3474 C3472 1.384 . S
C3474 C3475 1.372 . S
C3475 C3474 1.372 . S
C3475 C3476 1.400 . S
C3475 C3480 1.490 . S
C3476 H3466 0.930 . S
C3476 C3475 1.400 . S
C3476 C3479 1.386 . S
H3477 C3493 0.930 . S
H3478 C3494 0.931 . S
C3479 H3467 0.929 . S
C3479 C3473 1.390 . S
C3479 C3476 1.386 . S
C3480 C3475 1.490 . S
C3480 C3482 1.395 . S
C3480 C3483 1.403 . S
H3481 C3487 0.930 . S
C3482 H3468 0.930 1_455 S
C3482 C3480 1.395 . S
C3482 C3485 1.425 . S
C3483 C3480 1.403 . S
C3483 C3484 1.524 . S
C3483 C3487 1.400 . S
C3484 H3469 0.960 . S
C3484 H3470 0.960 . S
C3484 H3471 0.960 . S
C3484 C3483 1.524 . S
C3485 C3482 1.425 . S
C3485 C3486 1.423 . S
C3485 C3489 1.446 1_455 S
C3486 C3485 1.423 . S
C3486 C3487 1.385 . S
C3486 C3488 1.478 . S
C3487 H3481 0.930 . S
C3487 C3483 1.400 . S
C3487 C3486 1.385 . S
C3488 C3486 1.478 . S
C3488 C3490 1.381 . S
C3488 C3494 1.383 . S
C3489 C3485 1.446 1_655 S
C3489 H3495 0.959 . S
C3489 H3496 0.961 . S
C3489 H3497 0.960 . S
C3490 C3488 1.381 . S
C3490 C3491 1.394 . S
C3490 H3498 0.930 . S
C3491 C3490 1.394 . S
C3491 C3492 1.383 . S
C3491 H3499 0.929 . S
C3492 C3491 1.383 . S
C3492 C3493 1.377 . S
C3493 H3477 0.930 . S
C3493 C3492 1.377 . S
C3493 C3494 1.379 . S
C3494 H3478 0.931 . S
C3494 C3488 1.383 . S
C3494 C3493 1.379 . S
H3495 C3489 0.959 . S
H3496 C3489 0.961 . S
H3497 C3489 0.960 . S
H3498 C3490 0.930 . S
H3499 C3491 0.929 . S
H3500 C3508 0.929 . S
H3501 C3510 0.930 . S
H3502 C3512 0.930 . S
H3503 C3515 0.929 . S
H3504 C3518 0.930 . S
H3505 C3520 0.960 . S
H3506 C3520 0.960 . S
H3507 C3520 0.960 . S
C3508 H3500 0.929 . S
C3508 C3509 1.377 . S
C3508 C3510 1.384 . S
C3509 C3508 1.377 . S
C3509 C3515 1.390 . S
C3510 H3501 0.930 . S
C3510 C3508 1.384 . S
C3510 C3511 1.372 . S
C3511 C3510 1.372 . S
C3511 C3512 1.400 . S
C3511 C3516 1.490 . S
C3512 H3502 0.930 . S
C3512 C3511 1.400 . S
C3512 C3515 1.386 . S
H3513 C3529 0.930 . S
H3514 C3530 0.931 . S
C3515 H3503 0.929 . S
C3515 C3509 1.390 . S
C3515 C3512 1.386 . S
C3516 C3511 1.490 . S
C3516 C3518 1.395 . S
C3516 C3519 1.403 . S
H3517 C3523 0.930 . S
C3518 H3504 0.930 . S
C3518 C3516 1.395 . S
C3518 C3521 1.403 . S
C3519 C3516 1.403 . S
C3519 C3520 1.524 . S
C3519 C3523 1.400 . S
C3520 H3505 0.960 . S
C3520 H3506 0.960 . S
C3520 H3507 0.960 . S
C3520 C3519 1.524 . S
C3521 C3518 1.403 . S
C3521 C3522 1.392 . S
C3521 C3525 1.495 . S
C3522 C3521 1.392 . S
C3522 C3523 1.385 . S
C3522 C3524 1.478 . S
C3523 H3517 0.930 . S
C3523 C3519 1.400 . S
C3523 C3522 1.385 . S
C3524 C3522 1.478 . S
C3524 C3526 1.381 . S
C3524 C3530 1.383 . S
C3525 C3521 1.495 . S
C3525 H3531 0.959 . S
C3525 H3532 0.961 . S
C3525 H3533 0.960 . S
C3526 C3524 1.381 . S
C3526 C3527 1.394 . S
C3526 H3534 0.930 . S
C3527 C3526 1.394 . S
C3527 C3528 1.383 . S
C3527 H3535 0.929 . S
C3528 C3527 1.383 . S
C3528 C3529 1.377 . S
C3529 H3513 0.930 . S
C3529 C3528 1.377 . S
C3529 C3530 1.379 . S
C3530 H3514 0.931 . S
C3530 C3524 1.383 . S
C3530 C3529 1.379 . S
H3531 C3525 0.959 . S
H3532 C3525 0.961 . S
H3533 C3525 0.960 . S
H3534 C3526 0.930 . S
H3535 C3527 0.929 . S
H3536 C3544 0.929 . S
H3537 C3546 0.930 . S
H3538 C3548 0.930 . S
H3539 C3551 0.929 . S
H3540 C3554 0.930 . S
H3541 C3556 0.960 . S
H3542 C3556 0.960 . S
H3543 C3556 0.960 . S
C3544 H3536 0.929 . S
C3544 C3545 1.377 . S
C3544 C3546 1.384 . S
C3545 C3544 1.377 . S
C3545 C3551 1.390 . S
C3546 H3537 0.930 . S
C3546 C3544 1.384 . S
C3546 C3547 1.372 . S
C3547 C3546 1.372 . S
C3547 C3548 1.400 . S
C3547 C3552 1.490 . S
C3548 H3538 0.930 . S
C3548 C3547 1.400 . S
C3548 C3551 1.386 . S
H3549 C3565 0.930 . S
H3550 C3566 0.931 . S
C3551 H3539 0.929 . S
C3551 C3545 1.390 . S
C3551 C3548 1.386 . S
C3552 C3547 1.490 . S
C3552 C3554 1.395 . S
C3552 C3555 1.403 . S
H3553 C3559 0.930 . S
C3554 H3540 0.930 . S
C3554 C3552 1.395 . S
C3554 C3557 1.403 . S
C3555 C3552 1.403 . S
C3555 C3556 1.524 . S
C3555 C3559 1.400 . S
C3556 H3541 0.960 . S
C3556 H3542 0.960 . S
C3556 H3543 0.960 . S
C3556 C3555 1.524 . S
C3557 C3554 1.403 . S
C3557 C3558 1.392 . S
C3557 C3561 1.495 . S
C3558 C3557 1.392 . S
C3558 C3559 1.385 . S
C3558 C3560 1.478 . S
C3559 H3553 0.930 . S
C3559 C3555 1.400 . S
C3559 C3558 1.385 . S
C3560 C3558 1.478 . S
C3560 C3562 1.381 . S
C3560 C3566 1.383 . S
C3561 C3557 1.495 . S
C3561 H3567 0.959 . S
C3561 H3568 0.961 . S
C3561 H3569 0.960 . S
C3562 C3560 1.381 . S
C3562 C3563 1.394 . S
C3562 H3570 0.930 . S
C3563 C3562 1.394 . S
C3563 C3564 1.383 . S
C3563 H3571 0.929 . S
C3564 C3563 1.383 . S
C3564 C3565 1.377 . S
C3565 H3549 0.930 . S
C3565 C3564 1.377 . S
C3565 C3566 1.379 . S
C3566 H3550 0.931 . S
C3566 C3560 1.383 . S
C3566 C3565 1.379 . S
H3567 C3561 0.959 . S
H3568 C3561 0.961 . S
H3569 C3561 0.960 . S
H3570 C3562 0.930 . S
H3571 C3563 0.929 . S
H3572 C3580 0.929 . S
H3573 C3582 0.930 . S
H3574 C3584 0.930 . S
H3575 C3587 0.929 . S
H3576 C3590 0.930 . S
H3577 C3592 0.960 . S
H3578 C3592 0.960 . S
H3579 C3592 0.960 . S
C3580 H3572 0.929 . S
C3580 C3581 1.377 . S
C3580 C3582 1.384 . S
C3581 C3580 1.377 . S
C3581 C3587 1.390 . S
C3582 H3573 0.930 . S
C3582 C3580 1.384 . S
C3582 C3583 1.372 . S
C3583 C3582 1.372 . S
C3583 C3584 1.400 . S
C3583 C3588 1.490 . S
C3584 H3574 0.930 . S
C3584 C3583 1.400 . S
C3584 C3587 1.386 . S
H3585 C3601 0.930 . S
H3586 C3602 0.931 . S
C3587 H3575 0.929 . S
C3587 C3581 1.390 . S
C3587 C3584 1.386 . S
C3588 C3583 1.490 . S
C3588 C3590 1.395 . S
C3588 C3591 1.403 . S
H3589 C3595 0.930 . S
C3590 H3576 0.930 . S
C3590 C3588 1.395 . S
C3590 C3593 1.403 . S
C3591 C3588 1.403 . S
C3591 C3592 1.524 . S
C3591 C3595 1.400 . S
C3592 H3577 0.960 . S
C3592 H3578 0.960 . S
C3592 H3579 0.960 . S
C3592 C3591 1.524 . S
C3593 C3590 1.403 . S
C3593 C3594 1.392 . S
C3593 C3597 1.495 . S
C3594 C3593 1.392 . S
C3594 C3595 1.385 . S
C3594 C3596 1.478 . S
C3595 H3589 0.930 . S
C3595 C3591 1.400 . S
C3595 C3594 1.385 . S
C3596 C3594 1.478 . S
C3596 C3598 1.381 . S
C3596 C3602 1.383 . S
C3597 C3593 1.495 . S
C3597 H3603 0.959 . S
C3597 H3604 0.961 . S
C3597 H3605 0.960 . S
C3598 C3596 1.381 . S
C3598 C3599 1.394 . S
C3598 H3606 0.930 . S
C3599 C3598 1.394 . S
C3599 C3600 1.383 . S
C3599 H3607 0.929 . S
C3600 C3599 1.383 . S
C3600 C3601 1.377 . S
C3601 H3585 0.930 . S
C3601 C3600 1.377 . S
C3601 C3602 1.379 . S
C3602 H3586 0.931 . S
C3602 C3596 1.383 . S
C3602 C3601 1.379 . S
H3603 C3597 0.959 . S
H3604 C3597 0.961 . S
H3605 C3597 0.960 . S
H3606 C3598 0.930 . S
H3607 C3599 0.929 . S
H3608 C3616 0.929 . S
H3609 C3618 0.930 . S
H3610 C3620 0.930 . S
H3611 C3623 0.929 . S
H3612 C3626 0.930 . S
H3613 C3628 0.960 . S
H3614 C3628 0.960 . S
H3615 C3628 0.960 . S
C3616 H3608 0.929 . S
C3616 C3617 1.377 . S
C3616 C3618 1.384 . S
C3617 C3616 1.377 . S
C3617 C3623 1.390 . S
C3618 H3609 0.930 . S
C3618 C3616 1.384 . S
C3618 C3619 1.372 . S
C3619 C3618 1.372 . S
C3619 C3620 1.400 . S
C3619 C3624 1.490 . S
C3620 H3610 0.930 . S
C3620 C3619 1.400 . S
C3620 C3623 1.386 . S
H3621 C3637 0.930 1_455 S
H3622 C3638 0.931 . S
C3623 H3611 0.929 . S
C3623 C3617 1.390 . S
C3623 C3620 1.386 . S
C3624 C3619 1.490 . S
C3624 C3626 1.395 . S
C3624 C3627 1.403 . S
H3625 C3631 0.930 . S
C3626 H3612 0.930 . S
C3626 C3624 1.395 . S
C3626 C3629 1.403 . S
C3627 C3624 1.403 . S
C3627 C3628 1.524 . S
C3627 C3631 1.400 . S
C3628 H3613 0.960 . S
C3628 H3614 0.960 . S
C3628 H3615 0.960 . S
C3628 C3627 1.524 . S
C3629 C3626 1.403 . S
C3629 C3630 1.392 . S
C3629 C3633 1.495 . S
C3630 C3629 1.392 . S
C3630 C3631 1.385 . S
C3630 C3632 1.478 . S
C3631 H3625 0.930 . S
C3631 C3627 1.400 . S
C3631 C3630 1.385 . S
C3632 C3630 1.478 . S
C3632 C3634 1.381 . S
C3632 C3638 1.383 . S
C3633 C3629 1.495 . S
C3633 H3639 0.959 . S
C3633 H3640 0.961 . S
C3633 H3641 0.960 . S
C3634 C3632 1.381 . S
C3634 C3635 1.394 . S
C3634 H3642 0.930 . S
C3635 C3634 1.394 . S
C3635 C3636 1.383 . S
C3635 H3643 0.929 . S
C3636 C3635 1.383 . S
C3636 C3637 1.377 . S
C3637 H3621 0.930 1_655 S
C3637 C3636 1.377 . S
C3637 C3638 1.379 . S
C3638 H3622 0.931 . S
C3638 C3632 1.383 . S
C3638 C3637 1.379 . S
H3639 C3633 0.959 . S
H3640 C3633 0.961 . S
H3641 C3633 0.960 . S
H3642 C3634 0.930 . S
H3643 C3635 0.929 . S
H3644 C3652 0.929 . S
H3645 C3654 0.930 . S
H3646 C3656 0.930 . S
H3647 C3659 0.929 . S
H3648 C3662 0.930 . S
H3649 C3664 0.960 . S
H3650 C3664 0.960 . S
H3651 C3664 0.960 . S
C3652 H3644 0.929 . S
C3652 C3653 1.377 . S
C3652 C3654 1.384 . S
C3653 C3652 1.377 . S
C3653 C3659 1.390 . S
C3654 H3645 0.930 . S
C3654 C3652 1.384 . S
C3654 C3655 1.372 . S
C3655 C3654 1.372 . S
C3655 C3656 1.400 . S
C3655 C3660 1.490 . S
C3656 H3646 0.930 . S
C3656 C3655 1.400 . S
C3656 C3659 1.386 . S
H3657 C3673 0.930 . S
H3658 C3674 0.931 . S
C3659 H3647 0.929 . S
C3659 C3653 1.390 . S
C3659 C3656 1.386 . S
C3660 C3655 1.490 . S
C3660 C3662 1.395 . S
C3660 C3663 1.403 . S
H3661 C3667 0.930 . S
C3662 H3648 0.930 . S
C3662 C3660 1.395 . S
C3662 C3665 1.403 . S
C3663 C3660 1.403 . S
C3663 C3664 1.524 . S
C3663 C3667 1.400 . S
C3664 H3649 0.960 . S
C3664 H3650 0.960 . S
C3664 H3651 0.960 . S
C3664 C3663 1.524 . S
C3665 C3662 1.403 . S
C3665 C3666 1.392 . S
C3665 C3669 1.495 . S
C3666 C3665 1.392 . S
C3666 C3667 1.385 . S
C3666 C3668 1.478 . S
C3667 H3661 0.930 . S
C3667 C3663 1.400 . S
C3667 C3666 1.385 . S
C3668 C3666 1.478 . S
C3668 C3670 1.381 . S
C3668 C3674 1.383 . S
C3669 C3665 1.495 . S
C3669 H3675 0.959 . S
C3669 H3676 0.961 . S
C3669 H3677 0.960 . S
C3670 C3668 1.381 . S
C3670 C3671 1.394 . S
C3670 H3678 0.930 . S
C3671 C3670 1.394 . S
C3671 C3672 1.383 . S
C3671 H3679 0.929 . S
C3672 C3671 1.383 . S
C3672 C3673 1.377 . S
C3673 H3657 0.930 . S
C3673 C3672 1.377 . S
C3673 C3674 1.379 . S
C3674 H3658 0.931 . S
C3674 C3668 1.383 . S
C3674 C3673 1.379 . S
H3675 C3669 0.959 . S
H3676 C3669 0.961 . S
H3677 C3669 0.960 . S
H3678 C3670 0.930 . S
H3679 C3671 0.929 . S
H3680 C3688 0.929 . S
H3681 C3690 0.930 . S
H3682 C3692 0.930 . S
H3683 C3695 0.929 . S
H3684 C3698 0.930 . S
H3685 C3700 0.960 . S
H3686 C3700 0.960 . S
H3687 C3700 0.960 . S
C3688 H3680 0.929 . S
C3688 C3689 1.377 . S
C3688 C3690 1.384 . S
C3689 C3688 1.377 . S
C3689 C3695 1.390 . S
C3690 H3681 0.930 . S
C3690 C3688 1.384 . S
C3690 C3691 1.372 . S
C3691 C3690 1.372 . S
C3691 C3692 1.400 . S
C3691 C3696 1.490 . S
C3692 H3682 0.930 . S
C3692 C3691 1.400 . S
C3692 C3695 1.386 . S
H3693 C3709 0.930 . S
H3694 C3710 0.931 . S
C3695 H3683 0.929 . S
C3695 C3689 1.390 . S
C3695 C3692 1.386 . S
C3696 C3691 1.490 . S
C3696 C3698 1.395 . S
C3696 C3699 1.403 . S
H3697 C3703 0.930 . S
C3698 H3684 0.930 . S
C3698 C3696 1.395 . S
C3698 C3701 1.403 . S
C3699 C3696 1.403 . S
C3699 C3700 1.524 . S
C3699 C3703 1.400 . S
C3700 H3685 0.960 . S
C3700 H3686 0.960 . S
C3700 H3687 0.960 . S
C3700 C3699 1.524 . S
C3701 C3698 1.403 . S
C3701 C3702 1.392 . S
C3701 C3705 1.495 . S
C3702 C3701 1.392 . S
C3702 C3703 1.385 . S
C3702 C3704 1.478 . S
C3703 H3697 0.930 . S
C3703 C3699 1.400 . S
C3703 C3702 1.385 . S
C3704 C3702 1.478 . S
C3704 C3706 1.381 . S
C3704 C3710 1.383 . S
C3705 C3701 1.495 . S
C3705 H3711 0.959 . S
C3705 H3712 0.961 . S
C3705 H3713 0.960 . S
C3706 C3704 1.381 . S
C3706 C3707 1.394 . S
C3706 H3714 0.930 . S
C3707 C3706 1.394 . S
C3707 C3708 1.383 . S
C3707 H3715 0.929 . S
C3708 C3707 1.383 . S
C3708 C3709 1.377 . S
C3709 H3693 0.930 . S
C3709 C3708 1.377 . S
C3709 C3710 1.379 . S
C3710 H3694 0.931 . S
C3710 C3704 1.383 . S
C3710 C3709 1.379 . S
H3711 C3705 0.959 . S
H3712 C3705 0.961 . S
H3713 C3705 0.960 . S
H3714 C3706 0.930 . S
H3715 C3707 0.929 . S
H3716 C3724 0.929 . S
H3717 C3726 0.930 . S
H3718 C3728 0.930 . S
H3719 C3731 0.929 . S
H3720 C3734 0.930 . S
H3721 C3736 0.960 . S
H3722 C3736 0.960 . S
H3723 C3736 0.960 . S
C3724 H3716 0.929 . S
C3724 C3725 1.377 . S
C3724 C3726 1.384 . S
C3725 C3724 1.377 . S
C3725 C3731 1.390 . S
C3726 H3717 0.930 . S
C3726 C3724 1.384 . S
C3726 C3727 1.372 . S
C3727 C3726 1.372 . S
C3727 C3728 1.400 . S
C3727 C3732 1.490 . S
C3728 H3718 0.930 . S
C3728 C3727 1.400 . S
C3728 C3731 1.386 . S
H3729 C3745 0.930 . S
H3730 C3746 0.931 . S
C3731 H3719 0.929 . S
C3731 C3725 1.390 . S
C3731 C3728 1.386 . S
C3732 C3727 1.490 . S
C3732 C3734 1.395 . S
C3732 C3735 1.403 . S
H3733 C3739 0.930 . S
C3734 H3720 0.930 . S
C3734 C3732 1.395 . S
C3734 C3737 1.403 . S
C3735 C3732 1.403 . S
C3735 C3736 1.524 . S
C3735 C3739 1.400 . S
C3736 H3721 0.960 . S
C3736 H3722 0.960 . S
C3736 H3723 0.960 . S
C3736 C3735 1.524 . S
C3737 C3734 1.403 . S
C3737 C3738 1.392 . S
C3737 C3741 1.495 . S
C3738 C3737 1.392 . S
C3738 C3739 1.385 . S
C3738 C3740 1.478 . S
C3739 H3733 0.930 . S
C3739 C3735 1.400 . S
C3739 C3738 1.385 . S
C3740 C3738 1.478 . S
C3740 C3742 1.381 . S
C3740 C3746 1.383 . S
C3741 C3737 1.495 . S
C3741 H3747 0.959 . S
C3741 H3748 0.961 . S
C3741 H3749 0.960 . S
C3742 C3740 1.381 . S
C3742 C3743 1.394 . S
C3742 H3750 0.930 . S
C3743 C3742 1.394 . S
C3743 C3744 1.383 . S
C3743 H3751 0.929 . S
C3744 C3743 1.383 . S
C3744 C3745 1.377 . S
C3745 H3729 0.930 . S
C3745 C3744 1.377 . S
C3745 C3746 1.379 . S
C3746 H3730 0.931 . S
C3746 C3740 1.383 . S
C3746 C3745 1.379 . S
H3747 C3741 0.959 . S
H3748 C3741 0.961 . S
H3749 C3741 0.960 . S
H3750 C3742 0.930 . S
H3751 C3743 0.929 . S
H3752 C3760 0.929 . S
H3753 C3762 0.930 . S
H3754 C3764 0.930 . S
H3755 C3767 0.929 . S
H3756 C3770 0.930 . S
H3757 C3772 0.960 . S
H3758 C3772 0.960 . S
H3759 C3772 0.960 . S
C3760 H3752 0.929 . S
C3760 C3761 1.377 . S
C3760 C3762 1.384 . S
C3761 C3760 1.377 . S
C3761 C3767 1.390 . S
C3762 H3753 0.930 . S
C3762 C3760 1.384 . S
C3762 C3763 1.372 . S
C3763 C3762 1.372 . S
C3763 C3764 1.400 . S
C3763 C3768 1.490 . S
C3764 H3754 0.930 . S
C3764 C3763 1.400 . S
C3764 C3767 1.386 . S
H3765 C3781 0.930 . S
H3766 C3782 0.931 . S
C3767 H3755 0.929 . S
C3767 C3761 1.390 . S
C3767 C3764 1.386 . S
C3768 C3763 1.490 . S
C3768 C3770 1.395 . S
C3768 C3771 1.403 . S
H3769 C3775 0.930 . S
C3770 H3756 0.930 . S
C3770 C3768 1.395 . S
C3770 C3773 1.403 . S
C3771 C3768 1.403 . S
C3771 C3772 1.524 . S
C3771 C3775 1.400 . S
C3772 H3757 0.960 . S
C3772 H3758 0.960 . S
C3772 H3759 0.960 . S
C3772 C3771 1.524 . S
C3773 C3770 1.403 . S
C3773 C3774 1.392 . S
C3773 C3777 1.495 . S
C3774 C3773 1.392 . S
C3774 C3775 1.385 . S
C3774 C3776 1.478 . S
C3775 H3769 0.930 . S
C3775 C3771 1.400 . S
C3775 C3774 1.385 . S
C3776 C3774 1.478 . S
C3776 C3778 1.381 . S
C3776 C3782 1.383 . S
C3777 C3773 1.495 . S
C3777 H3783 0.959 . S
C3777 H3784 0.961 . S
C3777 H3785 0.960 . S
C3778 C3776 1.381 . S
C3778 C3779 1.394 . S
C3778 H3786 0.930 . S
C3779 C3778 1.394 . S
C3779 C3780 1.383 . S
C3779 H3787 0.929 . S
C3780 C3779 1.383 . S
C3780 C3781 1.377 . S
C3781 H3765 0.930 . S
C3781 C3780 1.377 . S
C3781 C3782 1.379 . S
C3782 H3766 0.931 . S
C3782 C3776 1.383 . S
C3782 C3781 1.379 . S
H3783 C3777 0.959 . S
H3784 C3777 0.961 . S
H3785 C3777 0.960 . S
H3786 C3778 0.930 . S
H3787 C3779 0.929 . S
H3788 C3796 0.929 . S
H3789 C3798 0.930 . S
H3790 C3800 0.930 . S
H3791 C3803 0.929 . S
H3792 C3806 0.930 . S
H3793 C3808 0.960 . S
H3794 C3808 0.960 . S
H3795 C3808 0.960 . S
C3796 H3788 0.929 . S
C3796 C3797 1.377 . S
C3796 C3798 1.384 . S
C3797 C3796 1.377 . S
C3797 C3803 1.390 . S
C3798 H3789 0.930 . S
C3798 C3796 1.384 . S
C3798 C3799 1.372 . S
C3799 C3798 1.372 . S
C3799 C3800 1.400 . S
C3799 C3804 1.490 . S
C3800 H3790 0.930 . S
C3800 C3799 1.400 . S
C3800 C3803 1.386 . S
H3801 C3817 0.930 . S
H3802 C3818 0.931 . S
C3803 H3791 0.929 . S
C3803 C3797 1.390 . S
C3803 C3800 1.386 . S
C3804 C3799 1.490 . S
C3804 C3806 1.395 . S
C3804 C3807 1.403 . S
H3805 C3811 0.930 . S
C3806 H3792 0.930 . S
C3806 C3804 1.395 . S
C3806 C3809 1.403 . S
C3807 C3804 1.403 . S
C3807 C3808 1.524 . S
C3807 C3811 1.400 . S
C3808 H3793 0.960 . S
C3808 H3794 0.960 . S
C3808 H3795 0.960 . S
C3808 C3807 1.524 . S
C3809 C3806 1.403 . S
C3809 C3810 1.392 . S
C3809 C3813 1.495 . S
C3810 C3809 1.392 . S
C3810 C3811 1.385 . S
C3810 C3812 1.478 . S
C3811 H3805 0.930 . S
C3811 C3807 1.400 . S
C3811 C3810 1.385 . S
C3812 C3810 1.478 . S
C3812 C3814 1.381 . S
C3812 C3818 1.383 . S
C3813 C3809 1.495 . S
C3813 H3819 0.959 . S
C3813 H3820 0.961 . S
C3813 H3821 0.960 . S
C3814 C3812 1.381 . S
C3814 C3815 1.394 . S
C3814 H3822 0.930 . S
C3815 C3814 1.394 . S
C3815 C3816 1.383 . S
C3815 H3823 0.929 . S
C3816 C3815 1.383 . S
C3816 C3817 1.377 . S
C3817 H3801 0.930 . S
C3817 C3816 1.377 . S
C3817 C3818 1.379 . S
C3818 H3802 0.931 . S
C3818 C3812 1.383 . S
C3818 C3817 1.379 . S
H3819 C3813 0.959 . S
H3820 C3813 0.961 . S
H3821 C3813 0.960 . S
H3822 C3814 0.930 . S
H3823 C3815 0.929 . S
H3824 C3832 0.929 . S
H3825 C3834 0.930 . S
H3826 C3836 0.930 . S
H3827 C3839 0.929 . S
H3828 C3842 0.930 . S
H3829 C3844 0.960 . S
H3830 C3844 0.960 . S
H3831 C3844 0.960 . S
C3832 H3824 0.929 . S
C3832 C3833 1.377 . S
C3832 C3834 1.384 . S
C3833 C3832 1.377 . S
C3833 C3839 1.390 . S
C3834 H3825 0.930 . S
C3834 C3832 1.384 . S
C3834 C3835 1.372 . S
C3835 C3834 1.372 . S
C3835 C3836 1.400 . S
C3835 C3840 1.490 . S
C3836 H3826 0.930 . S
C3836 C3835 1.400 . S
C3836 C3839 1.386 . S
H3837 C3853 0.930 . S
H3838 C3854 0.931 . S
C3839 H3827 0.929 . S
C3839 C3833 1.390 . S
C3839 C3836 1.386 . S
C3840 C3835 1.490 . S
C3840 C3842 1.395 . S
C3840 C3843 1.403 . S
H3841 C3847 0.930 . S
C3842 H3828 0.930 . S
C3842 C3840 1.395 . S
C3842 C3845 1.403 . S
C3843 C3840 1.403 . S
C3843 C3844 1.524 . S
C3843 C3847 1.400 . S
C3844 H3829 0.960 . S
C3844 H3830 0.960 . S
C3844 H3831 0.960 . S
C3844 C3843 1.524 . S
C3845 C3842 1.403 . S
C3845 C3846 1.392 . S
C3845 C3849 1.495 . S
C3846 C3845 1.392 . S
C3846 C3847 1.385 . S
C3846 C3848 1.478 . S
C3847 H3841 0.930 . S
C3847 C3843 1.400 . S
C3847 C3846 1.385 . S
C3848 C3846 1.478 . S
C3848 C3850 1.381 . S
C3848 C3854 1.383 . S
C3849 C3845 1.495 . S
C3849 H3855 0.959 . S
C3849 H3856 0.961 . S
C3849 H3857 0.960 . S
C3850 C3848 1.381 . S
C3850 C3851 1.394 . S
C3850 H3858 0.930 . S
C3851 C3850 1.394 . S
C3851 C3852 1.383 . S
C3851 H3859 0.929 . S
C3852 C3851 1.383 . S
C3852 C3853 1.377 . S
C3853 H3837 0.930 . S
C3853 C3852 1.377 . S
C3853 C3854 1.379 . S
C3854 H3838 0.931 . S
C3854 C3848 1.383 . S
C3854 C3853 1.379 . S
H3855 C3849 0.959 . S
H3856 C3849 0.961 . S
H3857 C3849 0.960 . S
H3858 C3850 0.930 . S
H3859 C3851 0.929 . S
H3860 C3868 0.929 . S
H3861 C3870 0.930 . S
H3862 C3872 0.930 . S
H3863 C3875 0.929 . S
H3864 C3878 0.930 . S
H3865 C3880 0.960 . S
H3866 C3880 0.960 . S
H3867 C3880 0.960 . S
C3868 H3860 0.929 . S
C3868 C3869 1.377 . S
C3868 C3870 1.384 . S
C3869 C3868 1.377 . S
C3869 C3875 1.390 . S
C3870 H3861 0.930 . S
C3870 C3868 1.384 . S
C3870 C3871 1.372 . S
C3871 C3870 1.372 . S
C3871 C3872 1.400 . S
C3871 C3876 1.490 . S
C3872 H3862 0.930 . S
C3872 C3871 1.400 . S
C3872 C3875 1.386 . S
H3873 C3889 0.930 . S
H3874 C3890 0.931 . S
C3875 H3863 0.929 . S
C3875 C3869 1.390 . S
C3875 C3872 1.386 . S
C3876 C3871 1.490 . S
C3876 C3878 1.395 . S
C3876 C3879 1.403 . S
H3877 C3883 0.930 . S
C3878 H3864 0.930 . S
C3878 C3876 1.395 . S
C3878 C3881 1.403 . S
C3879 C3876 1.403 . S
C3879 C3880 1.524 . S
C3879 C3883 1.400 . S
C3880 H3865 0.960 . S
C3880 H3866 0.960 . S
C3880 H3867 0.960 . S
C3880 C3879 1.524 . S
C3881 C3878 1.403 . S
C3881 C3882 1.392 . S
C3881 C3885 1.495 . S
C3882 C3881 1.392 . S
C3882 C3883 1.385 . S
C3882 C3884 1.478 . S
C3883 H3877 0.930 . S
C3883 C3879 1.400 . S
C3883 C3882 1.385 . S
C3884 C3882 1.478 . S
C3884 C3886 1.381 1_565 S
C3884 C3890 1.383 . S
C3885 C3881 1.495 . S
C3885 H3891 0.959 . S
C3885 H3892 0.961 . S
C3885 H3893 0.960 . S
C3886 C3884 1.381 1_545 S
C3886 C3887 1.394 . S
C3886 H3894 0.930 . S
C3887 C3886 1.394 . S
C3887 C3888 1.383 . S
C3887 H3895 0.929 . S
C3888 C3887 1.383 . S
C3888 C3889 1.377 1_545 S
C3889 H3873 0.930 . S
C3889 C3888 1.377 1_565 S
C3889 C3890 1.379 . S
C3890 H3874 0.931 . S
C3890 C3884 1.383 . S
C3890 C3889 1.379 . S
H3891 C3885 0.959 . S
H3892 C3885 0.961 . S
H3893 C3885 0.960 . S
H3894 C3886 0.930 . S
H3895 C3887 0.929 . S
H3896 C3904 0.929 . S
H3897 C3906 0.930 . S
H3898 C3908 0.930 . S
H3899 C3911 0.929 . S
H3900 C3914 0.930 . S
H3901 C3916 0.960 . S
H3902 C3916 0.960 . S
H3903 C3916 0.960 . S
C3904 H3896 0.929 . S
C3904 C3905 1.377 . S
C3904 C3906 1.384 . S
C3905 C3904 1.377 . S
C3905 C3911 1.390 . S
C3906 H3897 0.930 . S
C3906 C3904 1.384 . S
C3906 C3907 1.372 . S
C3907 C3906 1.372 . S
C3907 C3908 1.400 . S
C3907 C3912 1.490 . S
C3908 H3898 0.930 . S
C3908 C3907 1.400 . S
C3908 C3911 1.386 . S
H3909 C3925 0.930 . S
H3910 C3926 0.931 . S
C3911 H3899 0.929 . S
C3911 C3905 1.390 . S
C3911 C3908 1.386 . S
C3912 C3907 1.490 . S
C3912 C3914 1.395 . S
C3912 C3915 1.403 . S
H3913 C3919 0.930 . S
C3914 H3900 0.930 . S
C3914 C3912 1.395 . S
C3914 C3917 1.403 . S
C3915 C3912 1.403 . S
C3915 C3916 1.524 . S
C3915 C3919 1.400 . S
C3916 H3901 0.960 . S
C3916 H3902 0.960 . S
C3916 H3903 0.960 . S
C3916 C3915 1.524 . S
C3917 C3914 1.403 . S
C3917 C3918 1.392 . S
C3917 C3921 1.495 . S
C3918 C3917 1.392 . S
C3918 C3919 1.385 . S
C3918 C3920 1.478 . S
C3919 H3913 0.930 . S
C3919 C3915 1.400 . S
C3919 C3918 1.385 . S
C3920 C3918 1.478 . S
C3920 C3922 1.381 . S
C3920 C3926 1.383 . S
C3921 C3917 1.495 . S
C3921 H3927 0.959 . S
C3921 H3928 0.961 . S
C3921 H3929 0.960 . S
C3922 C3920 1.381 . S
C3922 C3923 1.394 . S
C3922 H3930 0.930 . S
C3923 C3922 1.394 . S
C3923 C3924 1.383 . S
C3923 H3931 0.929 . S
C3924 C3923 1.383 . S
C3924 C3925 1.377 . S
C3925 H3909 0.930 . S
C3925 C3924 1.377 . S
C3925 C3926 1.379 . S
C3926 H3910 0.931 . S
C3926 C3920 1.383 . S
C3926 C3925 1.379 . S
H3927 C3921 0.959 . S
H3928 C3921 0.961 . S
H3929 C3921 0.960 . S
H3930 C3922 0.930 . S
H3931 C3923 0.929 . S
H3932 C3940 0.929 . S
H3933 C3942 0.930 . S
H3934 C3944 0.930 . S
H3935 C3947 0.929 . S
H3936 C3950 0.930 . S
H3937 C3952 0.960 . S
H3938 C3952 0.960 . S
H3939 C3952 0.960 . S
C3940 H3932 0.929 . S
C3940 C3941 1.377 1_554 S
C3940 C3942 1.384 . S
C3941 C3940 1.377 1_556 S
C3941 C3947 1.390 . S
C3942 H3933 0.930 . S
C3942 C3940 1.384 . S
C3942 C3943 1.372 1_554 S
C3943 C3942 1.372 1_556 S
C3943 C3944 1.400 . S
C3943 C3948 1.496 . S
C3944 H3934 0.930 . S
C3944 C3943 1.400 . S
C3944 C3947 1.386 . S
H3945 C3961 0.930 . S
H3946 C3962 0.931 . S
C3947 H3935 0.929 . S
C3947 C3941 1.390 . S
C3947 C3944 1.386 . S
C3948 C3943 1.496 . S
C3948 C3950 1.407 . S
C3948 C3951 1.386 1_556 S
H3949 C3955 0.930 . S
C3950 H3936 0.930 . S
C3950 C3948 1.407 . S
C3950 C3953 1.403 . S
C3951 C3948 1.386 1_554 S
C3951 C3952 1.524 . S
C3951 C3955 1.400 . S
C3952 H3937 0.960 . S
C3952 H3938 0.960 . S
C3952 H3939 0.960 . S
C3952 C3951 1.524 . S
C3953 C3950 1.403 . S
C3953 C3954 1.393 . S
C3953 C3957 1.495 . S
C3954 C3953 1.393 . S
C3954 C3955 1.384 1_556 S
C3954 C3956 1.475 1_556 S
C3955 H3949 0.930 . S
C3955 C3951 1.400 . S
C3955 C3954 1.384 1_554 S
C3956 C3954 1.475 1_554 S
C3956 C3958 1.394 . S
C3956 C3962 1.373 1_554 S
C3957 C3953 1.495 . S
C3957 H3963 0.959 . S
C3957 H3964 0.961 . S
C3957 H3965 0.960 . S
C3958 C3956 1.394 . S
C3958 C3959 1.394 . S
C3958 H3966 0.930 . S
C3959 C3958 1.394 . S
C3959 C3960 1.383 . S
C3959 H3967 0.929 . S
C3960 C3959 1.383 . S
C3960 C3961 1.377 1_554 S
C3961 H3945 0.930 . S
C3961 C3960 1.377 1_556 S
C3961 C3962 1.379 . S
C3962 H3946 0.931 . S
C3962 C3956 1.373 1_556 S
C3962 C3961 1.379 . S
H3963 C3957 0.959 . S
H3964 C3957 0.961 . S
H3965 C3957 0.960 . S
H3966 C3958 0.930 . S
H3967 C3959 0.929 . S
H3968 C3976 0.929 . S
H3969 C3978 0.930 . S
H3970 C3980 0.930 . S
H3971 C3983 0.929 . S
H3972 C3986 0.930 . S
H3973 C3988 0.960 . S
H3974 C3988 0.960 . S
H3975 C3988 0.960 . S
C3976 H3968 0.929 . S
C3976 C3977 1.377 . S
C3976 C3978 1.384 . S
C3977 C3976 1.377 . S
C3977 C3983 1.390 . S
C3978 H3969 0.930 . S
C3978 C3976 1.384 . S
C3978 C3979 1.372 . S
C3979 C3978 1.372 . S
C3979 C3980 1.400 . S
C3979 C3984 1.490 . S
C3980 H3970 0.930 . S
C3980 C3979 1.400 . S
C3980 C3983 1.386 . S
H3981 C3997 0.930 . S
H3982 C3998 0.931 . S
C3983 H3971 0.929 . S
C3983 C3977 1.390 . S
C3983 C3980 1.386 . S
C3984 C3979 1.490 . S
C3984 C3986 1.395 . S
C3984 C3987 1.403 . S
H3985 C3991 0.930 . S
C3986 H3972 0.930 . S
C3986 C3984 1.395 . S
C3986 C3989 1.403 . S
C3987 C3984 1.403 . S
C3987 C3988 1.524 . S
C3987 C3991 1.400 . S
C3988 H3973 0.960 . S
C3988 H3974 0.960 . S
C3988 H3975 0.960 . S
C3988 C3987 1.524 . S
C3989 C3986 1.403 . S
C3989 C3990 1.392 . S
C3989 C3993 1.495 . S
C3990 C3989 1.392 . S
C3990 C3991 1.385 . S
C3990 C3992 1.478 . S
C3991 H3985 0.930 . S
C3991 C3987 1.400 . S
C3991 C3990 1.385 . S
C3992 C3990 1.478 . S
C3992 C3994 1.381 . S
C3992 C3998 1.383 . S
C3993 C3989 1.495 . S
C3993 H3999 0.959 . S
C3993 H4000 0.961 . S
C3993 H4001 0.960 . S
C3994 C3992 1.381 . S
C3994 C3995 1.394 . S
C3994 H4002 0.930 . S
C3995 C3994 1.394 . S
C3995 C3996 1.383 . S
C3995 H4003 0.929 . S
C3996 C3995 1.383 . S
C3996 C3997 1.377 . S
C3997 H3981 0.930 . S
C3997 C3996 1.377 . S
C3997 C3998 1.379 . S
C3998 H3982 0.931 . S
C3998 C3992 1.383 . S
C3998 C3997 1.379 . S
H3999 C3993 0.959 . S
H4000 C3993 0.961 . S
H4001 C3993 0.960 . S
H4002 C3994 0.930 . S
H4003 C3995 0.929 . S
H4004 C4012 0.929 . S
H4005 C4014 0.930 . S
H4006 C4016 0.930 . S
H4007 C4019 0.929 . S
H4008 C4022 0.930 . S
H4009 C4024 0.960 . S
H4010 C4024 0.960 1_556 S
H4011 C4024 0.960 . S
C4012 H4004 0.929 . S
C4012 C4013 1.377 1_556 S
C4012 C4014 1.384 . S
C4013 C4012 1.377 1_554 S
C4013 C4019 1.390 . S
C4014 H4005 0.930 . S
C4014 C4012 1.384 . S
C4014 C4015 1.372 1_556 S
C4015 C4014 1.372 1_554 S
C4015 C4016 1.400 . S
C4015 C4020 1.490 . S
C4016 H4006 0.930 . S
C4016 C4015 1.400 . S
C4016 C4019 1.386 . S
H4017 C4033 0.930 . S
H4018 C4034 0.931 . S
C4019 H4007 0.929 . S
C4019 C4013 1.390 . S
C4019 C4016 1.386 . S
C4020 C4015 1.490 . S
C4020 C4022 1.395 . S
C4020 C4023 1.403 . S
H4021 C4027 0.930 . S
C4022 H4008 0.930 . S
C4022 C4020 1.395 . S
C4022 C4025 1.408 . S
C4023 C4020 1.403 . S
C4023 C4024 1.524 . S
C4023 C4027 1.400 . S
C4024 H4009 0.960 . S
C4024 H4010 0.960 1_554 S
C4024 H4011 0.960 . S
C4024 C4023 1.524 . S
C4025 C4022 1.408 . S
C4025 C4026 1.390 . S
C4025 C4029 1.496 1_554 S
C4026 C4025 1.390 . S
C4026 C4027 1.385 . S
C4026 C4028 1.478 . S
C4027 H4021 0.930 . S
C4027 C4023 1.400 . S
C4027 C4026 1.385 . S
C4028 C4026 1.478 . S
C4028 C4030 1.373 1_554 S
C4028 C4034 1.390 . S
C4029 C4025 1.496 1_556 S
C4029 H4035 0.959 . S
C4029 H4036 0.961 1_556 S
C4029 H4037 0.960 . S
C4030 C4028 1.373 1_556 S
C4030 C4031 1.394 . S
C4030 H4038 0.930 . S
C4031 C4030 1.394 . S
C4031 C4032 1.383 . S
C4031 H4039 0.929 . S
C4032 C4031 1.383 . S
C4032 C4033 1.377 1_556 S
C4033 H4017 0.930 . S
C4033 C4032 1.377 1_554 S
C4033 C4034 1.379 . S
C4034 H4018 0.931 . S
C4034 C4028 1.390 . S
C4034 C4033 1.379 . S
H4035 C4029 0.959 . S
H4036 C4029 0.961 1_554 S
H4037 C4029 0.960 . S
H4038 C4030 0.930 . S
H4039 C4031 0.929 . S
H4040 C4048 0.929 . S
H4041 C4050 0.930 . S
H4042 C4052 0.930 . S
H4043 C4055 0.929 . S
H4044 C4058 0.930 . S
H4045 C4060 0.960 . S
H4046 C4060 0.960 . S
H4047 C4060 0.960 . S
C4048 H4040 0.929 . S
C4048 C4049 1.377 . S
C4048 C4050 1.384 . S
C4049 C4048 1.377 . S
C4049 C4055 1.390 . S
C4050 H4041 0.930 . S
C4050 C4048 1.384 . S
C4050 C4051 1.372 . S
C4051 C4050 1.372 . S
C4051 C4052 1.400 . S
C4051 C4056 1.490 . S
C4052 H4042 0.930 . S
C4052 C4051 1.400 . S
C4052 C4055 1.386 . S
H4053 C4069 0.930 . S
H4054 C4070 0.931 . S
C4055 H4043 0.929 . S
C4055 C4049 1.390 . S
C4055 C4052 1.386 . S
C4056 C4051 1.490 . S
C4056 C4058 1.395 . S
C4056 C4059 1.403 . S
H4057 C4063 0.930 . S
C4058 H4044 0.930 . S
C4058 C4056 1.395 . S
C4058 C4061 1.403 . S
C4059 C4056 1.403 . S
C4059 C4060 1.524 . S
C4059 C4063 1.400 . S
C4060 H4045 0.960 . S
C4060 H4046 0.960 . S
C4060 H4047 0.960 . S
C4060 C4059 1.524 . S
C4061 C4058 1.403 . S
C4061 C4062 1.392 . S
C4061 C4065 1.495 . S
C4062 C4061 1.392 . S
C4062 C4063 1.385 . S
C4062 C4064 1.478 . S
C4063 H4057 0.930 . S
C4063 C4059 1.400 . S
C4063 C4062 1.385 . S
C4064 C4062 1.478 . S
C4064 C4066 1.381 . S
C4064 C4070 1.383 . S
C4065 C4061 1.495 . S
C4065 H4071 0.959 . S
C4065 H4072 0.961 . S
C4065 H4073 0.960 . S
C4066 C4064 1.381 . S
C4066 C4067 1.394 . S
C4066 H4074 0.930 . S
C4067 C4066 1.394 . S
C4067 C4068 1.383 . S
C4067 H4075 0.929 . S
C4068 C4067 1.383 . S
C4068 C4069 1.377 . S
C4069 H4053 0.930 . S
C4069 C4068 1.377 . S
C4069 C4070 1.379 . S
C4070 H4054 0.931 . S
C4070 C4064 1.383 . S
C4070 C4069 1.379 . S
H4071 C4065 0.959 . S
H4072 C4065 0.961 . S
H4073 C4065 0.960 . S
H4074 C4066 0.930 . S
H4075 C4067 0.929 . S
H4076 C4084 0.929 . S
H4077 C4086 0.930 . S
H4078 C4088 0.930 . S
H4079 C4091 0.929 . S
H4080 C4094 0.930 . S
H4081 C4096 0.960 . S
H4082 C4096 0.960 . S
H4083 C4096 0.960 . S
C4084 H4076 0.929 . S
C4084 C4085 1.377 . S
C4084 C4086 1.384 . S
C4085 C4084 1.377 . S
C4085 C4091 1.390 . S
C4086 H4077 0.930 . S
C4086 C4084 1.384 . S
C4086 C4087 1.372 . S
C4087 C4086 1.372 . S
C4087 C4088 1.400 . S
C4087 C4092 1.490 . S
C4088 H4078 0.930 . S
C4088 C4087 1.400 . S
C4088 C4091 1.386 . S
H4089 C4105 0.930 . S
H4090 C4106 0.931 . S
C4091 H4079 0.929 . S
C4091 C4085 1.390 . S
C4091 C4088 1.386 . S
C4092 C4087 1.490 . S
C4092 C4094 1.395 . S
C4092 C4095 1.403 . S
H4093 C4099 0.930 . S
C4094 H4080 0.930 . S
C4094 C4092 1.395 . S
C4094 C4097 1.403 . S
C4095 C4092 1.403 . S
C4095 C4096 1.524 . S
C4095 C4099 1.400 . S
C4096 H4081 0.960 . S
C4096 H4082 0.960 . S
C4096 H4083 0.960 . S
C4096 C4095 1.524 . S
C4097 C4094 1.403 . S
C4097 C4098 1.392 . S
C4097 C4101 1.495 . S
C4098 C4097 1.392 . S
C4098 C4099 1.385 . S
C4098 C4100 1.478 . S
C4099 H4093 0.930 . S
C4099 C4095 1.400 . S
C4099 C4098 1.385 . S
C4100 C4098 1.478 . S
C4100 C4102 1.381 . S
C4100 C4106 1.383 . S
C4101 C4097 1.495 . S
C4101 H4107 0.959 . S
C4101 H4108 0.961 . S
C4101 H4109 0.960 . S
C4102 C4100 1.381 . S
C4102 C4103 1.394 . S
C4102 H4110 0.930 . S
C4103 C4102 1.394 . S
C4103 C4104 1.383 . S
C4103 H4111 0.929 . S
C4104 C4103 1.383 . S
C4104 C4105 1.377 . S
C4105 H4089 0.930 . S
C4105 C4104 1.377 . S
C4105 C4106 1.379 . S
C4106 H4090 0.931 . S
C4106 C4100 1.383 . S
C4106 C4105 1.379 . S
H4107 C4101 0.959 . S
H4108 C4101 0.961 . S
H4109 C4101 0.960 . S
H4110 C4102 0.930 . S
H4111 C4103 0.929 . S
C665 C111 1.355 1_455 S
C684 C354 1.393 . S
C701 C64 1.545 . S
C720 C365 1.581 . S
C737 C77 0.719 . S
C756 C394 0.673 . S
C792 C397 1.219 . S
C773 C95 1.218 . S
C809 C25 1.352 . S
C828 C435 1.287 . S
C864 C438 0.757 . S
C845 C36 0.770 . S
C900 C465 1.394 . S
C881 C50 1.354 . S
C917 C11 1.481 . S
C936 C494 1.410 . S
C972 C345 1.384 . S
C953 C237 1.320 . S
C989 C245 0.624 . S
C1008 C357 0.664 . S
C1044 C385 1.481 . S
C1025 C279 1.406 . S
C1080 C414 0.807 . S
C1061 C175 0.847 . S
C1097 C231 0.697 . S
C1116 C418 0.702 . S
C1152 C444 1.522 . S
C1133 C251 1.456 . S
C1188 C457 0.617 . S
C1169 C273 0.579 . S
C1224 C485 1.476 . S
C1205 C181 1.394 . S
C1260 C337 1.358 . S
C1241 C165 1.390 . S
C1277 C288 1.707 . S
C1296 C504 1.740 1_554 S
C1332 C535 1.363 . S
C1313 C333 1.425 . S
C1368 C554 0.744 . S
C1349 C316 0.756 . S
C1385 C123 1.159 . S
C1404 C477 1.161 . S
C1421 C137 1.281 . S
C1440 C377 1.259 . S
C1457 C330 1.531 . S
C1476 C565 1.593 . S
C1512 C594 0.755 . S
C1493 C302 0.732 . S
C1548 C355 1.532 . S
C1529 C63 1.571 . S
C1584 C584 1.626 . S
C1565 C106 1.599 . S
C1601 C97 0.829 . S
C1620 C395 0.863 . S
C1637 C81 1.296 . S
C1656 C558 1.306 . S
C1692 C434 1.449 . S
C1673 C13 1.430 . S
C1709 C55 0.781 . S
C1728 C517 0.782 . S
C1764 C464 1.334 1_556 S
C1745 C35 1.381 . S
C1800 C615 1.666 . S
C1781 C21 1.707 . S
C1836 C344 1.511 . S
C1817 C147 1.533 . S
C1872 C578 0.671 . S
C1853 C321 0.668 . S
C1889 C119 1.561 . S
C1908 C384 1.550 . S
C1925 C293 0.979 . S
C1944 C575 1.031 . S
C1961 C153 0.839 1_565 S
C1980 C417 0.864 . S
C2016 C525 1.573 . S
C1997 C315 1.611 . S
C2033 C125 0.613 . S
C2052 C458 0.615 . S
C2069 C287 1.605 . S
C2088 C604 1.595 . S
C2105 C193 1.460 . S
C2124 C338 1.462 . S
C2141 C176 1.751 . S
C2160 C505 1.759 . S
C2177 C263 1.401 . S
C2196 C454 1.355 . S
C2213 C246 0.900 . S
C2232 C555 0.942 . S
C2268 C598 1.259 . S
C2249 C277 1.275 . S
C2285 C221 1.313 . S
C2304 C378 1.256 1_565 S
C2340 C404 1.654 . S
C2321 C260 1.613 . S
C2376 C375 0.858 . S
C2357 C204 0.880 . S
C2393 C83 1.372 . S
C2412 C634 1.401 . S
C2448 C585 1.586 . S
C2429 C92 1.546 . S
C2465 C105 0.716 . S
C2484 C654 0.677 . S
C2501 C67 1.217 . S
C2520 C557 1.217 . S
C2537 C53 1.352 . S
C2556 C515 1.288 . S
C2592 C518 0.751 . S
C2573 C8 0.765 . S
C2628 C545 1.394 . S
C2609 C22 1.342 . S
C2664 C614 1.410 . S
C2645 C39 1.483 . S
C2700 C625 1.384 . S
C2681 C265 1.316 . S
C2717 C189 0.613 . S
C2736 C577 0.592 . S
C2772 C645 1.478 . S
C2753 C209 1.413 . S
C2808 C574 0.827 . S
C2789 C217 0.843 . S
C2844 C498 0.701 . S
C2825 C259 0.689 . S
C2861 C195 1.443 . S
C2880 C524 1.509 . S
C2916 C537 0.618 . S
C2897 C203 0.578 . S
C2933 C223 1.393 . S
C2952 C605 1.472 . S
C2988 C617 1.362 . S
C2969 C319 1.389 . S
C3005 C134 1.708 . S
C3024 C424 1.738 . S
C3060 C455 1.388 . S
C3041 C151 1.433 . S
C3096 C474 0.751 . S
C3077 C162 0.738 . S
C3132 C597 1.149 . S
C3113 C305 1.159 . S
C3149 C291 1.280 . S
C3168 C637 1.277 . S
C3204 C405 1.563 . S
C3185 C148 1.526 . S
C3240 C374 0.779 . S
C3221 C120 0.745 . S
C3257 C91 1.570 . S
C3276 C635 1.517 . S
C3312 C364 1.614 . S
C3293 C78 1.604 . S
C3329 C69 0.810 . S
C3348 C655 0.809 . S
C3365 C109 1.298 . S
C3384 C398 1.297 . S
C3401 C41 1.432 . S
C3420 C514 1.443 . S
C3456 C437 0.778 . S
C3437 C27 0.778 . S
C3473 C7 1.384 . S
C3492 C544 1.383 . S
C3509 C49 1.707 . S
C3528 C495 1.644 . S
C3564 C624 1.528 . S
C3545 C329 1.533 . S
C3581 C167 0.681 . S
C3600 C358 0.693 . S
C3636 C644 1.557 1_655 S
C3617 C301 1.564 . S
C3653 C139 0.958 . S
C3672 C415 0.982 . S
C3689 C335 0.851 . S
C3708 C497 0.885 . S
C3744 C445 1.601 . S
C3725 C161 1.612 . S
C3761 C307 0.612 . S
C3780 C538 0.624 . S
C3816 C484 1.571 . S
C3797 C133 1.605 . S
C3852 C618 1.469 . S
C3833 C249 1.462 . S
C3888 C425 1.749 . S
C3869 C218 1.754 . S
C3905 C235 1.406 . S
C3924 C534 1.373 . S
C3960 C475 0.911 . S
C3941 C190 0.904 . S
C3977 C207 1.278 . S
C3996 C478 1.252 . S
C4013 C179 1.312 . S
C4032 C638 1.320 . S
C4068 C564 1.625 . S
C4049 C232 1.611 1_565 S
C4104 C595 0.880 . S
C4085 C274 0.882 . S
