# Generated by pormake.
# Topology ctn, (3,4)-cn, num edge types: 1
# Building blocks:
#     Node 0, Type 0, BuildingBlock: OLANEW_clean_sbu_2, # of connection points: 3
#     Node 1, Type 0, BuildingBlock: OLANEW_clean_sbu_2, # of connection points: 3
#     Node 2, Type 0, BuildingBlock: OLANEW_clean_sbu_2, # of connection points: 3
#     Node 3, Type 0, BuildingBlock: OLANEW_clean_sbu_2, # of connection points: 3
#     Node 4, Type 0, BuildingBlock: OLANEW_clean_sbu_2, # of connection points: 3
#     Node 5, Type 0, BuildingBlock: OLANEW_clean_sbu_2, # of connection points: 3
#     Node 6, Type 0, BuildingBlock: OLANEW_clean_sbu_2, # of connection points: 3
#     Node 7, Type 0, BuildingBlock: OLANEW_clean_sbu_2, # of connection points: 3
#     Node 8, Type 0, BuildingBlock: OLANEW_clean_sbu_2, # of connection points: 3
#     Node 9, Type 0, BuildingBlock: OLANEW_clean_sbu_2, # of connection points: 3
#     Node 10, Type 0, BuildingBlock: OLANEW_clean_sbu_2, # of connection points: 3
#     Node 11, Type 0, BuildingBlock: OLANEW_clean_sbu_2, # of connection points: 3
#     Node 12, Type 0, BuildingBlock: OLANEW_clean_sbu_2, # of connection points: 3
#     Node 13, Type 0, BuildingBlock: OLANEW_clean_sbu_2, # of connection points: 3
#     Node 14, Type 0, BuildingBlock: OLANEW_clean_sbu_2, # of connection points: 3
#     Node 15, Type 0, BuildingBlock: OLANEW_clean_sbu_2, # of connection points: 3
#     Node 16, Type 1, BuildingBlock: AZAVOO_clean_sbu_0, # of connection points: 4
#     Node 17, Type 1, BuildingBlock: AZAVOO_clean_sbu_0, # of connection points: 4
#     Node 18, Type 1, BuildingBlock: AZAVOO_clean_sbu_0, # of connection points: 4
#     Node 19, Type 1, BuildingBlock: AZAVOO_clean_sbu_0, # of connection points: 4
#     Node 20, Type 1, BuildingBlock: AZAVOO_clean_sbu_0, # of connection points: 4
#     Node 21, Type 1, BuildingBlock: AZAVOO_clean_sbu_0, # of connection points: 4
#     Node 22, Type 1, BuildingBlock: AZAVOO_clean_sbu_0, # of connection points: 4
#     Node 23, Type 1, BuildingBlock: AZAVOO_clean_sbu_0, # of connection points: 4
#     Node 24, Type 1, BuildingBlock: AZAVOO_clean_sbu_0, # of connection points: 4
#     Node 25, Type 1, BuildingBlock: AZAVOO_clean_sbu_0, # of connection points: 4
#     Node 26, Type 1, BuildingBlock: AZAVOO_clean_sbu_0, # of connection points: 4
#     Node 27, Type 1, BuildingBlock: AZAVOO_clean_sbu_0, # of connection points: 4
#     Edge 28, Type (0, 1), BuildingBlock: ZUJKAS_clean_linker_0, # of connection points: 2
#     Edge 29, Type (0, 1), BuildingBlock: ZUJKAS_clean_linker_0, # of connection points: 2
#     Edge 30, Type (0, 1), BuildingBlock: ZUJKAS_clean_linker_0, # of connection points: 2
#     Edge 31, Type (0, 1), BuildingBlock: ZUJKAS_clean_linker_0, # of connection points: 2
#     Edge 32, Type (0, 1), BuildingBlock: ZUJKAS_clean_linker_0, # of connection points: 2
#     Edge 33, Type (0, 1), BuildingBlock: ZUJKAS_clean_linker_0, # of connection points: 2
#     Edge 34, Type (0, 1), BuildingBlock: ZUJKAS_clean_linker_0, # of connection points: 2
#     Edge 35, Type (0, 1), BuildingBlock: ZUJKAS_clean_linker_0, # of connection points: 2
#     Edge 36, Type (0, 1), BuildingBlock: ZUJKAS_clean_linker_0, # of connection points: 2
#     Edge 37, Type (0, 1), BuildingBlock: ZUJKAS_clean_linker_0, # of connection points: 2
#     Edge 38, Type (0, 1), BuildingBlock: ZUJKAS_clean_linker_0, # of connection points: 2
#     Edge 39, Type (0, 1), BuildingBlock: ZUJKAS_clean_linker_0, # of connection points: 2
#     Edge 40, Type (0, 1), BuildingBlock: ZUJKAS_clean_linker_0, # of connection points: 2
#     Edge 41, Type (0, 1), BuildingBlock: ZUJKAS_clean_linker_0, # of connection points: 2
#     Edge 42, Type (0, 1), BuildingBlock: ZUJKAS_clean_linker_0, # of connection points: 2
#     Edge 43, Type (0, 1), BuildingBlock: ZUJKAS_clean_linker_0, # of connection points: 2
#     Edge 44, Type (0, 1), BuildingBlock: ZUJKAS_clean_linker_0, # of connection points: 2
#     Edge 45, Type (0, 1), BuildingBlock: ZUJKAS_clean_linker_0, # of connection points: 2
#     Edge 46, Type (0, 1), BuildingBlock: ZUJKAS_clean_linker_0, # of connection points: 2
#     Edge 47, Type (0, 1), BuildingBlock: ZUJKAS_clean_linker_0, # of connection points: 2
#     Edge 48, Type (0, 1), BuildingBlock: ZUJKAS_clean_linker_0, # of connection points: 2
#     Edge 49, Type (0, 1), BuildingBlock: ZUJKAS_clean_linker_0, # of connection points: 2
#     Edge 50, Type (0, 1), BuildingBlock: ZUJKAS_clean_linker_0, # of connection points: 2
#     Edge 51, Type (0, 1), BuildingBlock: ZUJKAS_clean_linker_0, # of connection points: 2
#     Edge 52, Type (0, 1), BuildingBlock: ZUJKAS_clean_linker_0, # of connection points: 2
#     Edge 53, Type (0, 1), BuildingBlock: ZUJKAS_clean_linker_0, # of connection points: 2
#     Edge 54, Type (0, 1), BuildingBlock: ZUJKAS_clean_linker_0, # of connection points: 2
#     Edge 55, Type (0, 1), BuildingBlock: ZUJKAS_clean_linker_0, # of connection points: 2
#     Edge 56, Type (0, 1), BuildingBlock: ZUJKAS_clean_linker_0, # of connection points: 2
#     Edge 57, Type (0, 1), BuildingBlock: ZUJKAS_clean_linker_0, # of connection points: 2
#     Edge 58, Type (0, 1), BuildingBlock: ZUJKAS_clean_linker_0, # of connection points: 2
#     Edge 59, Type (0, 1), BuildingBlock: ZUJKAS_clean_linker_0, # of connection points: 2
#     Edge 60, Type (0, 1), BuildingBlock: ZUJKAS_clean_linker_0, # of connection points: 2
#     Edge 61, Type (0, 1), BuildingBlock: ZUJKAS_clean_linker_0, # of connection points: 2
#     Edge 62, Type (0, 1), BuildingBlock: ZUJKAS_clean_linker_0, # of connection points: 2
#     Edge 63, Type (0, 1), BuildingBlock: ZUJKAS_clean_linker_0, # of connection points: 2
#     Edge 64, Type (0, 1), BuildingBlock: ZUJKAS_clean_linker_0, # of connection points: 2
#     Edge 65, Type (0, 1), BuildingBlock: ZUJKAS_clean_linker_0, # of connection points: 2
#     Edge 66, Type (0, 1), BuildingBlock: ZUJKAS_clean_linker_0, # of connection points: 2
#     Edge 67, Type (0, 1), BuildingBlock: ZUJKAS_clean_linker_0, # of connection points: 2
#     Edge 68, Type (0, 1), BuildingBlock: ZUJKAS_clean_linker_0, # of connection points: 2
#     Edge 69, Type (0, 1), BuildingBlock: ZUJKAS_clean_linker_0, # of connection points: 2
#     Edge 70, Type (0, 1), BuildingBlock: ZUJKAS_clean_linker_0, # of connection points: 2
#     Edge 71, Type (0, 1), BuildingBlock: ZUJKAS_clean_linker_0, # of connection points: 2
#     Edge 72, Type (0, 1), BuildingBlock: ZUJKAS_clean_linker_0, # of connection points: 2
#     Edge 73, Type (0, 1), BuildingBlock: ZUJKAS_clean_linker_0, # of connection points: 2
#     Edge 74, Type (0, 1), BuildingBlock: ZUJKAS_clean_linker_0, # of connection points: 2
#     Edge 75, Type (0, 1), BuildingBlock: ZUJKAS_clean_linker_0, # of connection points: 2
# Relax obj value: 0.043
# Max RMSD: 0.169
# Mean RMSD: 0.094
data_MOF--net-ctn--node1-OLANEW_clean_sbu_2--node2-AZAVOO_clean_sbu_0--edge1-ZUJKAS_clean_linker_0
_symmetry_space_group_name_H-M    P1
_symmetry_Int_Tables_number       1
_symmetry_cell_setting            triclinic
loop_
_symmetry_equiv_pos_as_xyz
'x, y, z'
_cell_length_a     73.371547
_cell_length_b     76.163736
_cell_length_c     72.53494
_cell_angle_alpha  91.176709
_cell_angle_beta   96.739176
_cell_angle_gamma 98.095983
loop_
_atom_site_label
_atom_site_type_symbol
_atom_site_fract_x
_atom_site_fract_y
_atom_site_fract_z
_atom_type_partial_charge
O0 O 0.02013 0.02283 0.95625 0.0
Cd1 Cd 0.01956 0.99072 0.95783 0.0
O2 O 0.01356 0.02296 0.98488 0.0
Cd3 Cd 0.00514 0.03322 0.0105 0.0
O4 O 0.99605 0.03617 0.03786 0.0
C5 C 0.98047 0.04108 0.03965 0.0
O6 O 0.97001 0.04498 0.02477 0.0
C7 C 0.01657 0.03137 0.97031 0.0
C8 C 0.05409 0.97923 0.965 0.0
O9 O 0.0468 0.98094 0.94831 0.0
O10 O 0.04525 0.98338 0.9783 0.0
O11 O 0.32939 0.74945 0.2744 0.0
Cd12 Cd 0.29737 0.74446 0.25941 0.0
O13 O 0.33553 0.72402 0.26355 0.0
Cd14 Cd 0.30767 0.7155 0.24941 0.0
O15 O 0.28232 0.69653 0.24375 0.0
C16 C 0.2679 0.69845 0.25127 0.0
O17 O 0.26787 0.71284 0.26157 0.0
C18 C 0.3407 0.7384 0.27314 0.0
C19 C 0.29161 0.76317 0.22713 0.0
O20 O 0.28987 0.76999 0.24302 0.0
O21 O 0.2963 0.7476 0.22656 0.0
O22 O 0.96157 0.48972 0.09601 0.0
Cd23 Cd 0.93931 0.48181 0.06816 0.0
O24 O 0.9852 0.48238 0.08294 0.0
Cd25 Cd 0.96985 0.46989 0.05727 0.0
O26 O 0.96865 0.44762 0.03738 0.0
C27 C 0.97659 0.43487 0.04388 0.0
O28 O 0.98394 0.43607 0.06136 0.0
C29 C 0.9788 0.4887 0.0968 0.0
C30 C 0.91693 0.50817 0.05975 0.0
O31 O 0.91244 0.49596 0.07096 0.0
O32 O 0.93201 0.50795 0.05251 0.0
O33 O 0.73066 0.85112 0.22593 0.0
Cd34 Cd 0.70715 0.82504 0.22683 0.0
O35 O 0.71953 0.86693 0.24655 0.0
Cd36 Cd 0.69734 0.84627 0.25222 0.0
O37 O 0.67741 0.83187 0.2686 0.0
C38 C 0.66283 0.83834 0.27124 0.0
O39 O 0.65962 0.85304 0.26311 0.0
C40 C 0.73143 0.8655 0.2354 0.0
C41 C 0.71328 0.79824 0.20242 0.0
O42 O 0.70326 0.81008 0.19696 0.0
O43 O 0.72022 0.79892 0.21953 0.0
O44 O 0.08227 0.00207 0.48996 0.0
Cd45 Cd 0.05386 0.98293 0.47676 0.0
O46 O 0.0695 0.01402 0.51221 0.0
Cd47 Cd 0.04191 0.00272 0.4991 0.0
O48 O 0.01987 0.99979 0.47571 0.0
C49 C 0.01595 0.01409 0.46854 0.0
O50 O 0.02447 0.02929 0.47618 0.0
C51 C 0.0838 0.01227 0.50435 0.0
C52 C 0.04694 0.95167 0.49591 0.0
O53 O 0.05688 0.95251 0.48246 0.0
O54 O 0.04035 0.96566 0.50039 0.0
O55 O 0.26857 0.7652 0.80374 0.0
Cd56 Cd 0.27646 0.75227 0.77517 0.0
O57 O 0.23957 0.761 0.79154 0.0
Cd58 Cd 0.20973 0.76202 0.78754 0.0
O59 O 0.18165 0.75889 0.77291 0.0
C60 C 0.17324 0.77214 0.76943 0.0
O61 O 0.18127 0.78802 0.77562 0.0
C62 C 0.25173 0.7666 0.80513 0.0
C63 C 0.28861 0.71943 0.78021 0.0
O64 O 0.29997 0.73392 0.78274 0.0
O65 O 0.27142 0.72047 0.77543 0.0
O66 O 0.97269 0.51429 0.45931 0.0
Cd67 Cd 0.95592 0.5251 0.48351 0.0
O68 O 0.99021 0.49958 0.47821 0.0
Cd69 Cd 0.98052 0.51119 0.50238 0.0
O70 O 0.97804 0.53433 0.51971 0.0
C71 C 0.98582 0.54891 0.51414 0.0
O72 O 0.99434 0.5486 0.4992 0.0
C73 C 0.98508 0.50416 0.46186 0.0
C74 C 0.92436 0.50181 0.48938 0.0
O75 O 0.92336 0.51426 0.47784 0.0
O76 O 0.9403 0.50033 0.49805 0.0
O77 O 0.8212 0.78315 0.82344 0.0
Cd78 Cd 0.8254 0.80441 0.7989 0.0
O79 O 0.79215 0.7867 0.81726 0.0
Cd80 Cd 0.76309 0.7865 0.82145 0.0
O81 O 0.74 0.80191 0.818 0.0
C82 C 0.73068 0.8055 0.83094 0.0
O83 O 0.73408 0.79876 0.8473 0.0
C84 C 0.80453 0.77957 0.8269 0.0
C85 C 0.85181 0.79858 0.7757 0.0
O86 O 0.85617 0.80897 0.79016 0.0
O87 O 0.83507 0.79069 0.77248 0.0
O88 O 0.30171 0.27493 0.3326 0.0
Cd89 Cd 0.30177 0.29986 0.31185 0.0
O90 O 0.27155 0.27184 0.33362 0.0
Cd91 Cd 0.26599 0.29467 0.31719 0.0
O92 O 0.25139 0.31697 0.30902 0.0
C93 C 0.23839 0.31971 0.31839 0.0
O94 O 0.2347 0.30919 0.33202 0.0
C95 C 0.28719 0.2668 0.33831 0.0
C96 C 0.32673 0.29811 0.28582 0.0
O97 O 0.33196 0.306 0.30174 0.0
O98 O 0.3097 0.29113 0.28222 0.0
O99 O 0.47633 0.99189 0.61414 0.0
Cd100 Cd 0.45544 0.98637 0.58502 0.0
O101 O 0.48767 0.96697 0.61033 0.0
Cd102 Cd 0.47171 0.95735 0.58385 0.0
O103 O 0.46722 0.93708 0.56138 0.0
C104 C 0.47884 0.93772 0.54963 0.0
O105 O 0.49217 0.95129 0.55056 0.0
C106 C 0.48732 0.9811 0.61985 0.0
C107 C 0.43128 0.01155 0.57894 0.0
O108 O 0.42673 0.99741 0.58762 0.0
O109 O 0.44731 0.01384 0.57324 0.0
O110 O 0.21737 0.35649 0.71786 0.0
Cd111 Cd 0.19264 0.33111 0.71617 0.0
O112 O 0.22685 0.35305 0.74731 0.0
Cd113 Cd 0.20332 0.33325 0.75172 0.0
O114 O 0.1812 0.31995 0.76638 0.0
C115 C 0.16557 0.3255 0.76538 0.0
O116 O 0.16256 0.33868 0.75456 0.0
C117 C 0.22883 0.36102 0.73228 0.0
C118 C 0.20102 0.30399 0.69348 0.0
O119 O 0.19197 0.31606 0.68669 0.0
O120 O 0.20587 0.30457 0.71107 0.0
O121 O 0.82024 0.28375 0.78225 0.0
Cd122 Cd 0.79099 0.29277 0.76888 0.0
O123 O 0.80818 0.25596 0.77651 0.0
Cd124 Cd 0.80516 0.22714 0.77897 0.0
O125 O 0.79175 0.19979 0.78061 0.0
C126 C 0.7752 0.19786 0.78462 0.0
O127 O 0.76759 0.21211 0.78767 0.0
C128 C 0.82173 0.26738 0.78344 0.0
C129 C 0.78815 0.29956 0.73113 0.0
O130 O 0.79509 0.31179 0.74338 0.0
O131 O 0.78299 0.28399 0.73674 0.0
O132 O 0.51661 0.52162 0.45246 0.0
Cd133 Cd 0.51645 0.48965 0.45508 0.0
O134 O 0.51224 0.52248 0.48179 0.0
Cd135 Cd 0.50558 0.53468 0.50723 0.0
O136 O 0.49407 0.53921 0.53307 0.0
C137 C 0.47759 0.53197 0.53432 0.0
O138 O 0.46821 0.52259 0.51999 0.0
C139 C 0.51427 0.53049 0.4668 0.0
C140 C 0.55164 0.47948 0.46203 0.0
O141 O 0.54352 0.47957 0.4454 0.0
O142 O 0.54325 0.48446 0.47532 0.0
O143 O 0.60452 0.48419 0.0036 0.0
Cd144 Cd 0.58193 0.45789 0.994 0.0
O145 O 0.58388 0.4978 0.98794 0.0
Cd146 Cd 0.57057 0.518 0.97268 0.0
O147 O 0.54967 0.52666 0.95227 0.0
C148 C 0.536 0.51491 0.94646 0.0
O149 O 0.5353 0.49902 0.95331 0.0
C150 C 0.59977 0.49854 0.99732 0.0
C151 C 0.57169 0.43521 0.02184 0.0
O152 O 0.58551 0.43312 0.01313 0.0
O153 O 0.56305 0.44839 0.01777 0.0
O154 O 0.76906 0.26353 0.29393 0.0
Cd155 Cd 0.77648 0.24816 0.26653 0.0
O156 O 0.74024 0.25078 0.2879 0.0
Cd157 Cd 0.71062 0.24661 0.29071 0.0
O158 O 0.68078 0.24281 0.28207 0.0
C159 C 0.67153 0.25565 0.28288 0.0
O160 O 0.67998 0.27106 0.29005 0.0
C161 C 0.75257 0.26123 0.2981 0.0
C162 C 0.78994 0.21643 0.27489 0.0
O163 O 0.80083 0.23123 0.27587 0.0
O164 O 0.7726 0.21665 0.27008 0.0
O165 O 0.47278 0.01571 0.9703 0.0
Cd166 Cd 0.45567 0.02592 0.99451 0.0
O167 O 0.49333 0.00512 0.98996 0.0
Cd168 Cd 0.48214 0.01542 0.01387 0.0
O169 O 0.47661 0.0367 0.03211 0.0
C170 C 0.48201 0.0522 0.02691 0.0
O171 O 0.49005 0.05385 0.01164 0.0
C172 C 0.48696 0.00781 0.97333 0.0
C173 C 0.42465 0.00184 8e-05 0.0
O174 O 0.4233 0.01443 0.98877 0.0
O175 O 0.44068 0.00061 0.00869 0.0
Mg176 Mg 0.22726 0.8525 0.02306 0.0
O177 O 0.25559 0.87006 0.02379 0.0
O178 O 0.27748 0.85246 0.02896 0.0
Mg179 Mg 0.26341 0.82394 0.03092 0.0
C180 C 0.27262 0.86774 0.02618 0.0
C181 C 0.19711 0.8707 0.00099 0.0
O182 O 0.19165 0.85388 0.99622 0.0
O183 O 0.23011 0.84209 0.99397 0.0
O184 O 0.25154 0.82418 0.00011 0.0
O185 O 0.22837 0.8557 0.05393 0.0
O186 O 0.23922 0.83421 0.03969 0.0
C187 C 0.24019 0.83104 0.98866 0.0
C188 C 0.23701 0.84198 0.05502 0.0
O189 O 0.21218 0.87494 0.01167 0.0
Mg190 Mg 0.13665 0.51004 0.29696 0.0
O191 O 0.11719 0.50723 0.26937 0.0
O192 O 0.13534 0.50906 0.24659 0.0
Mg193 Mg 0.16574 0.51318 0.25907 0.0
C194 C 0.1193 0.50724 0.25212 0.0
C195 C 0.10985 0.51184 0.32575 0.0
O196 O 0.12075 0.52715 0.32783 0.0
O197 O 0.14332 0.48182 0.29317 0.0
O198 O 0.1622 0.48537 0.27107 0.0
O199 O 0.13792 0.53957 0.29668 0.0
O200 O 0.15751 0.52487 0.28417 0.0
C201 C 0.15398 0.47572 0.28269 0.0
C202 C 0.15184 0.53978 0.28723 0.0
O203 O 0.11247 0.50072 0.31335 0.0
Mg204 Mg 0.77777 0.67456 0.03351 0.0
O205 O 0.75013 0.65594 0.02756 0.0
O206 O 0.72746 0.67277 0.02402 0.0
Mg207 Mg 0.74026 0.70197 0.02874 0.0
C208 C 0.73298 0.65759 0.02427 0.0
C209 C 0.80666 0.64966 0.04165 0.0
O210 O 0.80953 0.66087 0.05607 0.0
O211 O 0.776 0.68228 0.0029 0.0
O212 O 0.75488 0.70087 0.00259 0.0
O213 O 0.77551 0.67474 0.06421 0.0
O214 O 0.76451 0.69388 0.04512 0.0
C215 C 0.7667 0.6935 0.99472 0.0
C216 C 0.76656 0.68814 0.06166 0.0
O217 O 0.79393 0.65158 0.02866 0.0
Mg218 Mg 0.90628 0.0444 0.2513 0.0
O219 O 0.88646 0.01832 0.2446 0.0
O220 O 0.90348 0.99776 0.23697 0.0
Mg221 Mg 0.93371 0.01071 0.23816 0.0
C222 C 0.88792 0.00242 0.23967 0.0
C223 C 0.88988 0.07131 0.27363 0.0
O224 O 0.90781 0.07682 0.27648 0.0
O225 O 0.91717 0.03375 0.27889 0.0
O226 O 0.93497 0.01439 0.27002 0.0
O227 O 0.90228 0.05166 0.22176 0.0
O228 O 0.92423 0.03656 0.23352 0.0
C229 C 0.92837 0.02257 0.28272 0.0
C230 C 0.9159 0.04313 0.21919 0.0
O231 O 0.88416 0.05695 0.26419 0.0
Mg232 Mg 0.28156 0.16878 0.54483 0.0
O233 O 0.25385 0.14988 0.54049 0.0
O234 O 0.2315 0.16638 0.53233 0.0
Mg235 Mg 0.2444 0.19544 0.53235 0.0
C236 C 0.23682 0.1514 0.53573 0.0
C237 C 0.31397 0.14758 0.55343 0.0
O238 O 0.32045 0.16319 0.56147 0.0
O239 O 0.28128 0.17162 0.51339 0.0
O240 O 0.25918 0.18886 0.50746 0.0
O241 O 0.27797 0.17348 0.57469 0.0
O242 O 0.26787 0.18971 0.55189 0.0
C243 C 0.27159 0.18038 0.50216 0.0
C244 C 0.26901 0.18631 0.56926 0.0
O245 O 0.29768 0.14523 0.54475 0.0
Mg246 Mg 0.39865 0.54562 0.74261 0.0
O247 O 0.37971 0.51872 0.73887 0.0
O248 O 0.39728 0.49836 0.73204 0.0
Mg249 Mg 0.42683 0.51213 0.73048 0.0
C250 C 0.38168 0.50267 0.73512 0.0
C251 C 0.38265 0.57127 0.76738 0.0
O252 O 0.40062 0.57568 0.77185 0.0
O253 O 0.412 0.53768 0.7706 0.0
O254 O 0.43021 0.5186 0.76198 0.0
O255 O 0.39276 0.55048 0.71242 0.0
O256 O 0.41592 0.53711 0.72455 0.0
C257 C 0.42418 0.52746 0.77454 0.0
C258 C 0.40672 0.54237 0.70999 0.0
O259 O 0.37684 0.55827 0.75593 0.0
Mg260 Mg 0.72476 0.35496 0.51142 0.0
O261 O 0.75309 0.37251 0.51222 0.0
O262 O 0.77487 0.35509 0.51913 0.0
Mg263 Mg 0.7608 0.3268 0.5226 0.0
C264 C 0.7701 0.37022 0.5153 0.0
C265 C 0.70932 0.39082 0.50728 0.0
O266 O 0.71881 0.39321 0.52388 0.0
O267 O 0.72878 0.34318 0.4833 0.0
O268 O 0.74969 0.32515 0.49146 0.0
O269 O 0.72471 0.35991 0.54185 0.0
O270 O 0.73641 0.33775 0.52987 0.0
C271 C 0.73881 0.33161 0.47916 0.0
C272 C 0.73365 0.34651 0.54441 0.0
O273 O 0.70976 0.37662 0.49792 0.0
Mg274 Mg 0.64579 0.00352 0.8195 0.0
O275 O 0.62764 0.00281 0.79134 0.0
O276 O 0.64632 0.00308 0.76912 0.0
Mg277 Mg 0.67616 0.00412 0.78292 0.0
C278 C 0.6302 0.00273 0.77422 0.0
C279 C 0.60777 0.00631 0.83335 0.0
O280 O 0.60975 0.02045 0.82328 0.0
O281 O 0.64925 0.97453 0.81525 0.0
O282 O 0.66885 0.976 0.79377 0.0
O283 O 0.65013 0.03306 0.82009 0.0
O284 O 0.66854 0.01657 0.80802 0.0
C285 C 0.65915 0.96715 0.80492 0.0
C286 C 0.66431 0.03211 0.81122 0.0
O287 O 0.62009 0.99608 0.83415 0.0
Mg288 Mg 0.02063 0.24762 0.92686 0.0
O289 O 0.99259 0.24148 0.90847 0.0
O290 O 0.97159 0.23051 0.92678 0.0
Mg291 Mg 0.98617 0.22857 0.95616 0.0
C292 C 0.97594 0.23544 0.91094 0.0
C293 C 0.04998 0.26115 0.90288 0.0
O294 O 0.05769 0.25073 0.91471 0.0
O295 O 0.01086 0.27178 0.93958 0.0
O296 O 0.99119 0.25921 0.95843 0.0
O297 O 0.02697 0.22053 0.92118 0.0
O298 O 0.01242 0.22753 0.94465 0.0
C299 C 0.99979 0.27296 0.95175 0.0
C300 C 0.01852 0.2155 0.93528 0.0
O301 O 0.03337 0.2636 0.90411 0.0
Mg302 Mg 0.53152 0.75165 0.44024 0.0
O303 O 0.50552 0.74593 0.41895 0.0
O304 O 0.48228 0.73281 0.43348 0.0
Mg305 Mg 0.49345 0.73009 0.46392 0.0
C306 C 0.4886 0.73903 0.41889 0.0
C307 C 0.56183 0.766 0.41675 0.0
O308 O 0.56911 0.75368 0.4263 0.0
O309 O 0.51945 0.77455 0.45234 0.0
O310 O 0.49724 0.76073 0.4677 0.0
O311 O 0.53952 0.72528 0.4344 0.0
O312 O 0.5214 0.73028 0.45566 0.0
C313 C 0.50659 0.77494 0.4627 0.0
C314 C 0.52913 0.71913 0.44671 0.0
O315 O 0.54588 0.76928 0.41969 0.0
Mg316 Mg 0.98167 0.75442 0.60255 0.0
O317 O 0.00872 0.75348 0.62153 0.0
O318 O 0.02981 0.74544 0.60449 0.0
Mg319 Mg 0.01608 0.74115 0.5744 0.0
C320 C 0.02501 0.75 0.62005 0.0
C321 C 0.96952 0.76037 0.64099 0.0
O322 O 0.97558 0.74496 0.64235 0.0
O323 O 0.99439 0.78049 0.59116 0.0
O324 O 0.0141 0.77106 0.57322 0.0
O325 O 0.97249 0.7257 0.60656 0.0
O326 O 0.98862 0.73569 0.58415 0.0
C327 C 0.00636 0.78348 0.57972 0.0
C328 C 0.98112 0.72236 0.59262 0.0
O329 O 0.9705 0.76854 0.62594 0.0
Mg330 Mg 0.47298 0.2506 0.12779 0.0
O331 O 0.49881 0.24693 0.14783 0.0
O332 O 0.5195 0.23805 0.13073 0.0
Mg333 Mg 0.50734 0.2363 0.10021 0.0
C334 C 0.51466 0.24225 0.1464 0.0
C335 C 0.44332 0.26246 0.14879 0.0
O336 O 0.43423 0.25358 0.13401 0.0
O337 O 0.48836 0.27666 0.1188 0.0
O338 O 0.50833 0.26661 0.10156 0.0
O339 O 0.46147 0.22198 0.12961 0.0
O340 O 0.47945 0.23233 0.10877 0.0
C341 C 0.50139 0.27937 0.1085 0.0
C342 C 0.47058 0.21889 0.11594 0.0
O343 O 0.46094 0.2644 0.15075 0.0
H344 H 0.27432 0.78981 0.82951 0.0
H345 H 0.26762 0.80191 0.85898 0.0
H346 H 0.21166 0.77434 0.84906 0.0
H347 H 0.21852 0.76154 0.81988 0.0
H348 H 0.24132 0.82275 0.86782 0.0
H349 H 0.23134 0.75655 0.89925 0.0
H350 H 0.24114 0.75999 0.87771 0.0
H351 H 0.21657 0.75884 0.87812 0.0
C352 C 0.26055 0.78635 0.83354 0.0
C353 C 0.2469 0.77483 0.82223 0.0
C354 C 0.25671 0.79337 0.85034 0.0
C355 C 0.23919 0.78893 0.85627 0.0
C356 C 0.22533 0.77781 0.84481 0.0
H357 H 0.21541 0.83959 0.9599 0.0
H358 H 0.21281 0.82987 0.92713 0.0
C359 C 0.22919 0.77072 0.82797 0.0
C360 C 0.23597 0.79534 0.87488 0.0
H361 H 0.22898 0.78128 0.91821 0.0
C362 C 0.23841 0.81371 0.87882 0.0
C363 C 0.23235 0.78348 0.8892 0.0
C364 C 0.23033 0.76362 0.88599 0.0
C365 C 0.23786 0.82056 0.89684 0.0
C366 C 0.2345 0.80868 0.9112 0.0
C367 C 0.23147 0.79033 0.90712 0.0
C368 C 0.23583 0.81485 0.93089 0.0
C369 C 0.24176 0.84038 0.90057 0.0
C370 C 0.24944 0.80943 0.94387 0.0
C371 C 0.25088 0.81482 0.96253 0.0
C372 C 0.23871 0.82576 0.96868 0.0
C373 C 0.22507 0.83124 0.95562 0.0
C374 C 0.22361 0.82576 0.93689 0.0
H375 H 0.24755 0.84743 0.88882 0.0
H376 H 0.22866 0.84541 0.9027 0.0
H377 H 0.25167 0.8437 0.91335 0.0
H378 H 0.25903 0.80103 0.93953 0.0
H379 H 0.26158 0.81035 0.97213 0.0
H380 H 0.00995 0.48048 0.4613 0.0
H381 H 0.02921 0.47584 0.43677 0.0
H382 H 0.00213 0.51264 0.40275 0.0
H383 H 0.98246 0.51693 0.42687 0.0
H384 H 0.00971 0.48474 0.382 0.0
H385 H 0.07202 0.51382 0.42977 0.0
H386 H 0.05918 0.49425 0.43783 0.0
H387 H 0.04878 0.51422 0.43535 0.0
C388 C 0.00789 0.48737 0.44848 0.0
C389 C 0.99484 0.49928 0.44616 0.0
C390 C 0.01898 0.48477 0.43451 0.0
C391 C 0.01743 0.49423 0.41813 0.0
C392 C 0.00364 0.50527 0.41532 0.0
H393 H 0.09828 0.53464 0.34965 0.0
H394 H 0.07533 0.52811 0.37114 0.0
C395 C 0.99242 0.50773 0.42917 0.0
C396 C 0.03099 0.49386 0.40451 0.0
H397 H 0.07678 0.50546 0.39961 0.0
C398 C 0.02441 0.48911 0.38584 0.0
C399 C 0.05014 0.49977 0.40955 0.0
C400 C 0.05799 0.50596 0.42916 0.0
C401 C 0.0364 0.49053 0.372 0.0
C402 C 0.05551 0.49656 0.37706 0.0
C403 C 0.06214 0.50077 0.3958 0.0
C404 C 0.06868 0.50021 0.3631 0.0
C405 C 0.0284 0.48637 0.35201 0.0
C406 C 0.07251 0.4867 0.35129 0.0
C407 C 0.08562 0.49044 0.33879 0.0
C408 C 0.09524 0.50771 0.3381 0.0
C409 C 0.09121 0.52118 0.34986 0.0
C410 C 0.07808 0.51747 0.36218 0.0
H411 H 0.01305 0.48547 0.35006 0.0
H412 H 0.03426 0.49664 0.34285 0.0
H413 H 0.03203 0.47342 0.34751 0.0
H414 H 0.06566 0.47322 0.35199 0.0
H415 H 0.0885 0.47977 0.32998 0.0
H416 H 0.77339 0.75573 0.8288 0.0
H417 H 0.76617 0.7369 0.85472 0.0
H418 H 0.81805 0.75965 0.88618 0.0
H419 H 0.82576 0.77758 0.85985 0.0
H420 H 0.81255 0.72628 0.89177 0.0
H421 H 0.74686 0.75213 0.89991 0.0
H422 H 0.74657 0.74156 0.87757 0.0
H423 H 0.76248 0.76155 0.88418 0.0
C424 C 0.78317 0.75672 0.8413 0.0
C425 C 0.8 0.76826 0.84247 0.0
C426 C 0.77901 0.74602 0.85615 0.0
C427 C 0.79132 0.74716 0.87267 0.0
C428 C 0.80827 0.75853 0.87365 0.0
H429 H 0.76508 0.72624 0.9817 0.0
H430 H 0.77122 0.73702 0.95143 0.0
C431 C 0.81265 0.76883 0.85864 0.0
C432 C 0.78663 0.73677 0.88907 0.0
H433 H 0.75412 0.72888 0.91907 0.0
C434 C 0.79977 0.72687 0.89776 0.0
C435 C 0.76998 0.73757 0.89697 0.0
C436 C 0.75576 0.74891 0.8893 0.0
C437 C 0.79709 0.71832 0.91443 0.0
C438 C 0.78038 0.71901 0.92223 0.0
C439 C 0.76692 0.72829 0.9131 0.0
C440 C 0.77722 0.71195 0.94077 0.0
C441 C 0.8126 0.70945 0.92393 0.0
C442 C 0.77866 0.69421 0.94509 0.0
C443 C 0.77562 0.6881 0.96276 0.0
C444 C 0.77049 0.69948 0.97611 0.0
C445 C 0.76883 0.71709 0.97164 0.0
C446 C 0.77232 0.72327 0.95428 0.0
H447 H 0.82606 0.71411 0.91876 0.0
H448 H 0.81425 0.71201 0.9392 0.0
H449 H 0.80939 0.69491 0.92107 0.0
H450 H 0.78194 0.68505 0.93478 0.0
H451 H 0.77684 0.67443 0.96582 0.0
H452 H 0.99779 0.98502 0.44762 0.0
H453 H 0.98012 0.98481 0.41672 0.0
H454 H 0.98855 0.04201 0.4185 0.0
H455 H 0.00619 0.04241 0.44927 0.0
H456 H 0.94743 0.00278 0.40299 0.0
H457 H 0.01203 0.02554 0.37185 0.0
H458 H 0.01224 0.01591 0.39441 0.0
H459 H 0.00823 0.03849 0.39169 0.0
C460 C 0.99569 0.99755 0.44153 0.0
C461 C 0.00356 0.01373 0.45083 0.0
C462 C 0.98557 0.9974 0.42391 0.0
C463 C 0.98326 0.01339 0.4153 0.0
C464 C 0.99038 0.02953 0.42487 0.0
H465 H 0.9183 0.03779 0.31394 0.0
H466 H 0.93033 0.0341 0.34631 0.0
C467 C 0.00044 0.02972 0.44246 0.0
C468 C 0.9744 0.01331 0.3959 0.0
H469 H 0.98373 0.02423 0.35225 0.0
C470 C 0.95532 0.0074 0.39185 0.0
C471 C 0.98483 0.01916 0.38142 0.0
C472 C 0.0055 0.02501 0.38494 0.0
C473 C 0.9463 0.00757 0.37366 0.0
C474 C 0.95666 0.01391 0.35928 0.0
C475 C 0.9758 0.01946 0.36332 0.0
C476 C 0.94806 0.01496 0.33988 0.0
C477 C 0.92583 0.00081 0.3699 0.0
C478 C 0.95411 0.0055 0.32554 0.0
C479 C 0.94735 0.00763 0.30703 0.0
C480 C 0.93449 0.0194 0.30246 0.0
C481 C 0.92816 0.0286 0.31692 0.0
C482 C 0.93493 0.02643 0.33546 0.0
H483 H 0.92092 0.99253 0.38127 0.0
H484 H 0.91801 0.01227 0.36875 0.0
H485 H 0.92258 0.99286 0.35662 0.0
H486 H 0.9643 0.99665 0.32867 0.0
H487 H 0.95252 0.0003 0.2963 0.0
H488 H 0.19544 0.30113 0.65556 0.0
H489 H 0.20568 0.27932 0.63535 0.0
H490 H 0.22881 0.25389 0.68338 0.0
H491 H 0.21862 0.27566 0.70376 0.0
H492 H 0.24396 0.27365 0.63591 0.0
H493 H 0.19737 0.21248 0.64996 0.0
H494 H 0.19218 0.23448 0.65484 0.0
H495 H 0.20934 0.22537 0.66994 0.0
C496 C 0.20254 0.2908 0.66186 0.0
C497 C 0.20623 0.29014 0.68128 0.0
C498 C 0.20838 0.27836 0.65028 0.0
C499 C 0.21783 0.26492 0.65789 0.0
C500 C 0.22129 0.26401 0.67725 0.0
H501 H 0.26879 0.18229 0.60672 0.0
H502 H 0.25637 0.20104 0.62864 0.0
C503 C 0.21553 0.27652 0.68886 0.0
C504 C 0.22507 0.25256 0.6455 0.0
H505 H 0.22068 0.20911 0.63077 0.0
C506 C 0.23885 0.25954 0.63474 0.0
C507 C 0.21849 0.23416 0.64419 0.0
C508 C 0.20344 0.2261 0.65522 0.0
C509 C 0.24633 0.2486 0.62271 0.0
C510 C 0.23948 0.23024 0.62105 0.0
C511 C 0.22585 0.2232 0.63201 0.0
C512 C 0.24609 0.21827 0.60773 0.0
C513 C 0.26173 0.2568 0.61213 0.0
C514 C 0.24402 0.22146 0.58867 0.0
C515 C 0.25119 0.21088 0.57618 0.0
C516 C 0.26035 0.1967 0.58243 0.0
C517 C 0.26184 0.19312 0.60146 0.0
C518 C 0.25473 0.20381 0.61399 0.0
H519 H 0.26895 0.26952 0.61889 0.0
H520 H 0.27211 0.24767 0.61095 0.0
H521 H 0.25578 0.25964 0.59792 0.0
H522 H 0.23704 0.23231 0.58348 0.0
H523 H 0.24981 0.21408 0.56167 0.0
H524 H 0.49356 0.54922 0.567 0.0
H525 H 0.48019 0.55032 0.5963 0.0
H526 H 0.42956 0.51923 0.57063 0.0
H527 H 0.44284 0.51787 0.54136 0.0
H528 H 0.44796 0.56342 0.60422 0.0
H529 H 0.44395 0.49134 0.61666 0.0
H530 H 0.45748 0.5021 0.59976 0.0
H531 H 0.43276 0.49652 0.59448 0.0
C532 C 0.47958 0.54263 0.56757 0.0
C533 C 0.46932 0.53335 0.55187 0.0
C534 C 0.47196 0.54328 0.58432 0.0
C535 C 0.45401 0.53461 0.58569 0.0
C536 C 0.44358 0.5257 0.56995 0.0
H537 H 0.38925 0.5508 0.67661 0.0
H538 H 0.39985 0.54846 0.64599 0.0
C539 C 0.45117 0.52503 0.55321 0.0
C540 C 0.44619 0.53496 0.60359 0.0
H541 H 0.43007 0.50841 0.63727 0.0
C542 C 0.44403 0.55141 0.61146 0.0
C543 C 0.44128 0.51926 0.61307 0.0
C544 C 0.44412 0.5013 0.60569 0.0
C545 C 0.43696 0.55259 0.62853 0.0
C546 C 0.43166 0.53686 0.63781 0.0
C547 C 0.43395 0.52042 0.63 0.0
C548 C 0.42451 0.53727 0.65605 0.0
C549 C 0.43564 0.57068 0.63672 0.0
C550 C 0.43451 0.53115 0.6717 0.0
C551 C 0.42844 0.53236 0.68916 0.0
C552 C 0.41219 0.53963 0.69128 0.0
C553 C 0.40186 0.54521 0.67546 0.0
C554 C 0.40795 0.54398 0.65798 0.0
H555 H 0.44419 0.58141 0.63009 0.0
H556 H 0.421 0.57312 0.63451 0.0
H557 H 0.44019 0.57146 0.6519 0.0
H558 H 0.44729 0.52586 0.67048 0.0
H559 H 0.43676 0.528 0.70105 0.0
H560 H 0.77112 0.27721 0.70229 0.0
H561 H 0.76405 0.28452 0.66979 0.0
H562 H 0.79114 0.33813 0.68238 0.0
H563 H 0.79835 0.33095 0.71489 0.0
H564 H 0.74254 0.31126 0.65785 0.0
H565 H 0.81289 0.32307 0.6353 0.0
H566 H 0.808 0.31097 0.65574 0.0
H567 H 0.81045 0.33478 0.65643 0.0
C568 C 0.7758 0.29049 0.69811 0.0
C569 C 0.78528 0.30351 0.71119 0.0
C570 C 0.77173 0.29464 0.67954 0.0
C571 C 0.77722 0.31181 0.67367 0.0
C572 C 0.78704 0.32472 0.68658 0.0
H573 H 0.73145 0.36361 0.57739 0.0
H574 H 0.74239 0.3551 0.60867 0.0
C575 C 0.79107 0.32061 0.70517 0.0
C576 C 0.77152 0.31653 0.65437 0.0
H577 H 0.78821 0.33149 0.61465 0.0
C578 C 0.75251 0.31561 0.64837 0.0
C579 C 0.78458 0.32208 0.64203 0.0
C580 C 0.80513 0.32266 0.64758 0.0
C581 C 0.7462 0.32041 0.63043 0.0
C582 C 0.75926 0.32643 0.61827 0.0
C583 C 0.77827 0.32702 0.62412 0.0
C584 C 0.75336 0.332 0.59935 0.0
C585 C 0.7256 0.31886 0.62454 0.0
C586 C 0.75626 0.32201 0.58379 0.0
C587 C 0.75 0.3268 0.56591 0.0
C588 C 0.7409 0.34179 0.56328 0.0
C589 C 0.73836 0.35197 0.57892 0.0
C590 C 0.74455 0.34712 0.5968 0.0
H591 H 0.71747 0.31053 0.63398 0.0
H592 H 0.72136 0.33229 0.62474 0.0
H593 H 0.722 0.31309 0.61017 0.0
H594 H 0.76303 0.31029 0.58551 0.0
H595 H 0.75206 0.31858 0.5542 0.0
H596 H 0.4912 0.00998 0.64422 0.0
H597 H 0.51299 0.01601 0.67274 0.0
H598 H 0.53402 0.96691 0.66342 0.0
H599 H 0.51229 0.96064 0.63527 0.0
H600 H 0.52748 0.97222 0.69991 0.0
H601 H 0.56909 0.03158 0.67438 0.0
H602 H 0.54464 0.03229 0.67375 0.0
H603 H 0.55264 0.01646 0.65907 0.0
C604 C 0.50044 0.00046 0.64828 0.0
C605 C 0.50004 0.98487 0.63738 0.0
C606 C 0.51294 0.00397 0.66453 0.0
C607 C 0.52527 0.992 0.67007 0.0
C608 C 0.52465 0.97633 0.65939 0.0
H609 H 0.62981 0.99995 0.73651 0.0
H610 H 0.6032 0.9985 0.71271 0.0
C611 C 0.51221 0.9728 0.64324 0.0
C612 C 0.53907 0.99563 0.68684 0.0
H613 H 0.57877 0.02262 0.70436 0.0
C614 C 0.5386 0.98335 0.70101 0.0
C615 C 0.55364 0.01006 0.68811 0.0
C616 C 0.55522 0.02332 0.67299 0.0
C617 C 0.55256 0.98481 0.71618 0.0
C618 C 0.56724 0.99915 0.71736 0.0
C619 C 0.56745 0.0117 0.70345 0.0
C620 C 0.58326 0.00057 0.73209 0.0
C621 C 0.55195 0.97055 0.73033 0.0
C622 C 0.58093 0.0024 0.75094 0.0
C623 C 0.59615 0.00312 0.76466 0.0
C624 C 0.61401 0.00218 0.75977 0.0
C625 C 0.61629 0.00068 0.74083 0.0
C626 C 0.60108 0.9999 0.72717 0.0
H627 H 0.54202 0.95856 0.72528 0.0
H628 H 0.56588 0.96656 0.73392 0.0
H629 H 0.54748 0.97576 0.74321 0.0
H630 H 0.56735 0.00328 0.75503 0.0
H631 H 0.5939 0.00443 0.77909 0.0
H632 H 0.83826 0.23779 0.77789 0.0
H633 H 0.86584 0.22939 0.7961 0.0
H634 H 0.87028 0.27671 0.83105 0.0
H635 H 0.84313 0.28529 0.8127 0.0
H636 H 0.90315 0.27198 0.82182 0.0
H637 H 0.86882 0.20864 0.84671 0.0
H638 H 0.86727 0.20988 0.8219 0.0
H639 H 0.85591 0.22447 0.83499 0.0
C640 C 0.845 0.24624 0.78961 0.0
C641 C 0.83838 0.26204 0.79408 0.0
C642 C 0.86076 0.24144 0.8 0.0
C643 C 0.86995 0.25224 0.81518 0.0
C644 C 0.86343 0.26813 0.81944 0.0
H645 H 0.93866 0.23192 0.91274 0.0
H646 H 0.91413 0.23454 0.88767 0.0
C647 C 0.8479 0.27302 0.80895 0.0
C648 C 0.88644 0.24733 0.82672 0.0
H649 H 0.90085 0.21624 0.85615 0.0
C650 C 0.9027 0.25974 0.82925 0.0
C651 C 0.88579 0.23139 0.83648 0.0
C652 C 0.86848 0.21788 0.83506 0.0
C653 C 0.91805 0.25699 0.84175 0.0
C654 C 0.9174 0.24107 0.85155 0.0
C655 C 0.90138 0.22838 0.84854 0.0
C656 C 0.93241 0.23808 0.86626 0.0
C657 C 0.93439 0.27162 0.84504 0.0
C658 C 0.95085 0.23875 0.86254 0.0
C659 C 0.96502 0.23754 0.87696 0.0
C660 C 0.96094 0.23525 0.89531 0.0
C661 C 0.94233 0.23369 0.8988 0.0
C662 C 0.92825 0.23516 0.88445 0.0
H663 H 0.93077 0.2845 0.83993 0.0
H664 H 0.93966 0.27342 0.86004 0.0
H665 H 0.94574 0.26812 0.83747 0.0
H666 H 0.95434 0.2405 0.84853 0.0
H667 H 0.97918 0.23858 0.87377 0.0
H668 H 0.50196 0.93476 0.52316 0.0
H669 H 0.50469 0.90818 0.50481 0.0
H670 H 0.45925 0.87915 0.52919 0.0
H671 H 0.45621 0.90571 0.54736 0.0
H672 H 0.51325 0.87741 0.52002 0.0
H673 H 0.44621 0.86399 0.47465 0.0
H674 H 0.45428 0.88512 0.48673 0.0
H675 H 0.44363 0.86675 0.49879 0.0
C676 C 0.49231 0.92282 0.52437 0.0
C677 C 0.47891 0.92235 0.53678 0.0
C678 C 0.4939 0.90764 0.51387 0.0
C679 C 0.48208 0.89172 0.5155 0.0
C680 C 0.46828 0.89137 0.52741 0.0
H681 H 0.48027 0.78139 0.48488 0.0
H682 H 0.47437 0.81011 0.49662 0.0
C683 C 0.46663 0.90656 0.53788 0.0
C684 C 0.48536 0.87513 0.50617 0.0
H685 H 0.4646 0.8404 0.47701 0.0
C686 C 0.50268 0.86942 0.51045 0.0
C687 C 0.47151 0.86468 0.49378 0.0
C688 C 0.45292 0.87051 0.48806 0.0
C689 C 0.5064 0.85331 0.50306 0.0
C690 C 0.4925 0.84276 0.49084 0.0
C691 C 0.47522 0.84853 0.4864 0.0
C692 C 0.49556 0.82549 0.48291 0.0
C693 C 0.52498 0.84745 0.50885 0.0
C694 C 0.50923 0.82467 0.47105 0.0
C695 C 0.51269 0.80827 0.46434 0.0
C696 C 0.50249 0.79238 0.4693 0.0
C697 C 0.48848 0.79332 0.48084 0.0
C698 C 0.48503 0.80973 0.48753 0.0
H699 H 0.53243 0.85499 0.52144 0.0
H700 H 0.52333 0.83308 0.51168 0.0
H701 H 0.53375 0.84972 0.49742 0.0
H702 H 0.5173 0.83671 0.46708 0.0
H703 H 0.52349 0.80809 0.45538 0.0
H704 H 0.13087 0.33444 0.76691 0.0
H705 H 0.10922 0.32464 0.78917 0.0
H706 H 0.14717 0.29094 0.81384 0.0
H707 H 0.1689 0.30061 0.79174 0.0
H708 H 0.09286 0.2884 0.79766 0.0
H709 H 0.13812 0.32485 0.85705 0.0
H710 H 0.14071 0.32972 0.83315 0.0
H711 H 0.14943 0.31078 0.84331 0.0
C712 C 0.13456 0.32483 0.77698 0.0
C713 C 0.1517 0.31842 0.77765 0.0
C714 C 0.12216 0.31925 0.78966 0.0
C715 C 0.12676 0.30729 0.80329 0.0
C716 C 0.14352 0.30039 0.80358 0.0
H717 H 0.08507 0.25721 0.8967 0.0
H718 H 0.1022 0.26938 0.87195 0.0
C719 C 0.15588 0.30589 0.79088 0.0
C720 C 0.11433 0.30233 0.81758 0.0
H721 H 0.11256 0.30458 0.86435 0.0
C722 C 0.09702 0.29205 0.81223 0.0
C723 C 0.11983 0.30724 0.83653 0.0
C724 C 0.13796 0.31889 0.84291 0.0
C725 C 0.08538 0.28585 0.8255 0.0
C726 C 0.09113 0.29037 0.84453 0.0
C727 C 0.10821 0.30111 0.84976 0.0
C728 C 0.08031 0.28315 0.8594 0.0
C729 C 0.06743 0.27392 0.81915 0.0
C730 C 0.06233 0.28702 0.86071 0.0
C731 C 0.05241 0.28001 0.8749 0.0
C732 C 0.06038 0.26912 0.88806 0.0
C733 C 0.07848 0.26552 0.88681 0.0
C734 C 0.08833 0.27248 0.87266 0.0
H735 H 0.06692 0.26873 0.80464 0.0
H736 H 0.06544 0.26251 0.82836 0.0
H737 H 0.05568 0.28154 0.81977 0.0
H738 H 0.05602 0.29552 0.85082 0.0
H739 H 0.03852 0.28309 0.87553 0.0
H740 H 0.49782 0.54777 0.43853 0.0
H741 H 0.49788 0.57978 0.43615 0.0
H742 H 0.5304 0.58856 0.48997 0.0
H743 H 0.52942 0.55645 0.49279 0.0
H744 H 0.50629 0.61051 0.48682 0.0
H745 H 0.54018 0.61293 0.4225 0.0
H746 H 0.51834 0.59872 0.41941 0.0
H747 H 0.53705 0.59313 0.4356 0.0
C748 C 0.50487 0.55657 0.44988 0.0
C749 C 0.51364 0.54971 0.46582 0.0
C750 C 0.50503 0.57486 0.44846 0.0
C751 C 0.5146 0.58667 0.46264 0.0
C752 C 0.52298 0.57975 0.4788 0.0
H753 H 0.55383 0.69633 0.44399 0.0
H754 H 0.54985 0.66456 0.4492 0.0
C755 C 0.5224 0.56142 0.48042 0.0
C756 C 0.51619 0.6062 0.46052 0.0
H757 H 0.52878 0.63911 0.43133 0.0
C758 C 0.51131 0.61679 0.47473 0.0
C759 C 0.52304 0.61447 0.4449 0.0
C760 C 0.53014 0.60424 0.42985 0.0
C761 C 0.51308 0.63536 0.47377 0.0
C762 C 0.51917 0.64353 0.45776 0.0
C763 C 0.52396 0.6329 0.44354 0.0
C764 C 0.5216 0.6631 0.45568 0.0
C765 C 0.50902 0.64598 0.49021 0.0
C766 C 0.5071 0.67302 0.45764 0.0
C767 C 0.50957 0.69136 0.45514 0.0
C768 C 0.52636 0.69995 0.45005 0.0
C769 C 0.54071 0.69001 0.44784 0.0
C770 C 0.53843 0.67184 0.4508 0.0
H771 H 0.51028 0.63848 0.50317 0.0
H772 H 0.51855 0.65872 0.49243 0.0
H773 H 0.49457 0.64893 0.48771 0.0
H774 H 0.49377 0.66657 0.46078 0.0
H775 H 0.49818 0.69867 0.45664 0.0
H776 H 0.88645 0.81732 0.77546 0.0
H777 H 0.90837 0.81426 0.75303 0.0
H778 H 0.87033 0.7711 0.72472 0.0
H779 H 0.84816 0.7744 0.74671 0.0
H780 H 0.92609 0.78727 0.74457 0.0
H781 H 0.88095 0.80268 0.68226 0.0
H782 H 0.87554 0.80645 0.70552 0.0
H783 H 0.86994 0.78467 0.69441 0.0
C784 C 0.88275 0.80719 0.76444 0.0
C785 C 0.86551 0.79619 0.76277 0.0
C786 C 0.89528 0.80548 0.75163 0.0
C787 C 0.89082 0.79273 0.73695 0.0
C788 C 0.87384 0.78139 0.73559 0.0
H789 H 0.96096 0.7436 0.67233 0.0
H790 H 0.94359 0.75362 0.69613 0.0
C791 C 0.86124 0.7832 0.74828 0.0
C792 C 0.90404 0.79095 0.72327 0.0
H793 H 0.90713 0.78853 0.67673 0.0
C794 C 0.92202 0.78775 0.72974 0.0
C795 C 0.8989 0.79201 0.70394 0.0
C796 C 0.88035 0.79684 0.69613 0.0
C797 C 0.9347 0.78474 0.71737 0.0
C798 C 0.92906 0.78447 0.69801 0.0
C799 C 0.91139 0.7885 0.69157 0.0
C800 C 0.9408 0.77907 0.68418 0.0
C801 C 0.95399 0.7819 0.72521 0.0
C802 C 0.94473 0.78987 0.66926 0.0
C803 C 0.95445 0.78402 0.65538 0.0
C804 C 0.96039 0.76726 0.6562 0.0
C805 C 0.95672 0.75664 0.67133 0.0
C806 C 0.9469 0.76242 0.68508 0.0
H807 H 0.95808 0.78858 0.73914 0.0
H808 H 0.95432 0.76749 0.72685 0.0
H809 H 0.96439 0.78695 0.71592 0.0
H810 H 0.94006 0.80272 0.66822 0.0
H811 H 0.95705 0.79251 0.6439 0.0
H812 H 0.05974 0.92022 0.49023 0.0
H813 H 0.05252 0.89247 0.50594 0.0
H814 H 0.01785 0.9174 0.53941 0.0
H815 H 0.02521 0.94535 0.52395 0.0
H816 H 0.04109 0.89671 0.55977 0.0
H817 H 0.00313 0.85945 0.49709 0.0
H818 H 0.02608 0.86961 0.49388 0.0
H819 H 0.00885 0.88331 0.49818 0.0
C820 C 0.05058 0.91983 0.50093 0.0
C821 C 0.04295 0.93497 0.50575 0.0
C822 C 0.04639 0.90392 0.50983 0.0
C823 C 0.03438 0.90279 0.5236 0.0
C824 C 0.02706 0.91797 0.52873 0.0
H825 H 0.99247 0.81374 0.58912 0.0
H826 H 0.99914 0.84329 0.5766 0.0
C827 C 0.03126 0.93391 0.51987 0.0
C828 C 0.02952 0.88575 0.53262 0.0
H829 H 0.01052 0.84247 0.52339 0.0
C830 C 0.03427 0.88487 0.55187 0.0
C831 C 0.02053 0.87037 0.52228 0.0
C832 C 0.01417 0.87071 0.50174 0.0
C833 C 0.03084 0.86882 0.56095 0.0
C834 C 0.02225 0.85337 0.55051 0.0
C835 C 0.0172 0.85434 0.53133 0.0
C836 C 0.01887 0.83586 0.55899 0.0
C837 C 0.03693 0.86837 0.58152 0.0
C838 C 0.02766 0.8219 0.55316 0.0
C839 C 0.02387 0.80504 0.5602 0.0
C840 C 0.01107 0.80172 0.57318 0.0
C841 C 0.00244 0.81582 0.5792 0.0
C842 C 0.00629 0.83274 0.57213 0.0
H843 H 0.04661 0.88045 0.58677 0.0
H844 H 0.02458 0.86752 0.58911 0.0
H845 H 0.04381 0.85652 0.58473 0.0
H846 H 0.03739 0.82404 0.54299 0.0
H847 H 0.03081 0.79456 0.55523 0.0
H848 H 0.15187 0.79767 0.7585 0.0
H849 H 0.12413 0.79431 0.73571 0.0
H850 H 0.12714 0.73844 0.72894 0.0
H851 H 0.15461 0.74158 0.7519 0.0
H852 H 0.12267 0.78382 0.69951 0.0
H853 H 0.07255 0.73804 0.73356 0.0
H854 H 0.09365 0.74973 0.74607 0.0
H855 H 0.09414 0.72976 0.73254 0.0
C856 C 0.14646 0.78461 0.75239 0.0
C857 C 0.15548 0.7699 0.75701 0.0
C858 C 0.13061 0.78272 0.73936 0.0
C859 C 0.12343 0.76609 0.73079 0.0
C860 C 0.13217 0.75132 0.73568 0.0
H861 H 0.06106 0.74372 0.62276 0.0
H862 H 0.08426 0.74798 0.6501 0.0
C863 C 0.14797 0.75318 0.74873 0.0
C864 C 0.10783 0.76444 0.71559 0.0
H865 H 0.06517 0.74115 0.70079 0.0
C866 C 0.11002 0.77462 0.69988 0.0
C867 C 0.09124 0.75258 0.71616 0.0
C868 C 0.08764 0.74204 0.73307 0.0
C869 C 0.09634 0.77285 0.68447 0.0
C870 C 0.0802 0.76031 0.68465 0.0
C871 C 0.07769 0.75057 0.7006 0.0
C872 C 0.06587 0.75704 0.6683 0.0
C873 C 0.09928 0.78447 0.66817 0.0
C874 C 0.04767 0.76016 0.66963 0.0
C875 C 0.03432 0.75763 0.65404 0.0
C876 C 0.0389 0.75186 0.63682 0.0
C877 C 0.05706 0.74831 0.6357 0.0
C878 C 0.07038 0.75082 0.65131 0.0
H879 H 0.10955 0.79649 0.67221 0.0
H880 H 0.10466 0.77688 0.65728 0.0
H881 H 0.08607 0.7887 0.66206 0.0
H882 H 0.0439 0.76485 0.68266 0.0
H883 H 0.02045 0.76043 0.65545 0.0
H884 H 0.96962 0.5547 0.54559 0.0
H885 H 0.968 0.58339 0.56092 0.0
H886 H 0.99888 0.61031 0.52017 0.0
H887 H 0.0005 0.58191 0.50477 0.0
H888 H 0.99812 0.61088 0.57561 0.0
H889 H 0.9512 0.63392 0.51842 0.0
H890 H 0.95427 0.61091 0.52064 0.0
H891 H 0.97131 0.6262 0.51103 0.0
C892 C 0.97606 0.56674 0.53991 0.0
C893 C 0.98508 0.56603 0.52388 0.0
C894 C 0.97514 0.58308 0.54869 0.0
C895 C 0.98309 0.59893 0.5415 0.0
C896 C 0.99238 0.59823 0.52574 0.0
H897 H 0.99665 0.71129 0.5628 0.0
H898 H 0.99727 0.68083 0.55201 0.0
C899 C 0.99334 0.58196 0.517 0.0
C900 C 0.98176 0.61633 0.55032 0.0
H901 H 0.96593 0.6557 0.54143 0.0
C902 C 0.99092 0.62065 0.56827 0.0
C903 C 0.97233 0.62898 0.54067 0.0
C904 C 0.96156 0.62476 0.52169 0.0
C905 C 0.99153 0.63761 0.57654 0.0
C906 C 0.98251 0.6504 0.56665 0.0
C907 C 0.97295 0.64589 0.54891 0.0
C908 C 0.98316 0.66875 0.57415 0.0
C909 C 0.00238 0.64191 0.59546 0.0
C910 C 0.97506 0.67205 0.59023 0.0
C911 C 0.97476 0.68949 0.5965 0.0
C912 C 0.98247 0.70391 0.58673 0.0
C913 C 0.99074 0.70052 0.57075 0.0
C914 C 0.99105 0.68311 0.56451 0.0
H915 H 0.01184 0.63205 0.59934 0.0
H916 H 0.01068 0.65531 0.59595 0.0
H917 H 0.99258 0.64184 0.60602 0.0
H918 H 0.96859 0.66116 0.59767 0.0
H919 H 0.96819 0.69166 0.6088 0.0
H920 H 0.73912 0.89648 0.25633 0.0
H921 H 0.76482 0.92044 0.25517 0.0
H922 H 0.78364 0.89238 0.21046 0.0
H923 H 0.75794 0.86824 0.21149 0.0
H924 H 0.80374 0.91553 0.25994 0.0
H925 H 0.78172 0.94434 0.19247 0.0
H926 H 0.76564 0.93082 0.20526 0.0
H927 H 0.78106 0.92063 0.19239 0.0
C928 C 0.74861 0.89542 0.24612 0.0
C929 C 0.74647 0.88041 0.234 0.0
C930 C 0.76329 0.90914 0.2455 0.0
C931 C 0.77599 0.90822 0.23264 0.0
C932 C 0.7738 0.89342 0.22033 0.0
H933 H 0.88617 0.96658 0.23377 0.0
H934 H 0.85877 0.94398 0.23159 0.0
C935 C 0.75917 0.87961 0.221 0.0
C936 C 0.79209 0.92232 0.23285 0.0
H937 H 0.81157 0.95577 0.2076 0.0
C938 C 0.80547 0.92434 0.24852 0.0
C939 C 0.79416 0.93383 0.21796 0.0
C940 C 0.77985 0.93247 0.20108 0.0
C941 C 0.82105 0.93746 0.2496 0.0
C942 C 0.82329 0.94879 0.23459 0.0
C943 C 0.8098 0.94696 0.21901 0.0
C944 C 0.83964 0.96261 0.23496 0.0
C945 C 0.83497 0.93926 0.26682 0.0
C946 C 0.83782 0.98057 0.23726 0.0
C947 C 0.85347 0.99357 0.23861 0.0
C948 C 0.87117 0.9888 0.2375 0.0
C949 C 0.87279 0.97076 0.23471 0.0
C950 C 0.85717 0.9578 0.2335 0.0
H951 H 0.82965 0.93154 0.27839 0.0
H952 H 0.84781 0.93432 0.26357 0.0
H953 H 0.83874 0.95341 0.27153 0.0
H954 H 0.82435 0.9845 0.23839 0.0
H955 H 0.85169 0.00732 0.24067 0.0
H956 H 0.77131 0.1826 0.26964 0.0
H957 H 0.7842 0.15477 0.27382 0.0
H958 H 0.83801 0.18428 0.29248 0.0
H959 H 0.8253 0.21211 0.28839 0.0
H960 H 0.81354 0.14574 0.255 0.0
H961 H 0.83147 0.1457 0.33137 0.0
H962 H 0.81513 0.15908 0.32035 0.0
H963 H 0.83966 0.16624 0.32129 0.0
C964 C 0.78583 0.18316 0.27487 0.0
C965 C 0.7973 0.19957 0.27865 0.0
C966 C 0.79315 0.16725 0.27726 0.0
C967 C 0.81198 0.16748 0.2837 0.0
C968 C 0.82335 0.18381 0.28786 0.0
H969 H 0.89802 0.10433 0.29038 0.0
H970 H 0.87667 0.12554 0.29434 0.0
C971 C 0.81609 0.19971 0.28536 0.0
C972 C 0.82023 0.15081 0.28448 0.0
H973 H 0.84618 0.12642 0.31323 0.0
C974 C 0.8204 0.14128 0.26776 0.0
C975 C 0.82916 0.14511 0.30116 0.0
C976 C 0.82874 0.15446 0.3196 0.0
C977 C 0.8302 0.12678 0.26709 0.0
C978 C 0.8397 0.12143 0.28369 0.0
C979 C 0.83887 0.13053 0.30054 0.0
C980 C 0.85203 0.1076 0.28349 0.0
C981 C 0.83117 0.11801 0.24843 0.0
C982 C 0.84518 0.09022 0.27675 0.0
C983 C 0.85741 0.07806 0.2743 0.0
C984 C 0.87666 0.08304 0.27875 0.0
C985 C 0.8833 0.10008 0.28668 0.0
C986 C 0.87111 0.11223 0.289 0.0
H987 H 0.8264 0.1261 0.23673 0.0
H988 H 0.84555 0.1157 0.24701 0.0
H989 H 0.82213 0.10498 0.24718 0.0
H990 H 0.83045 0.08625 0.27282 0.0
H991 H 0.85182 0.06497 0.26834 0.0
H992 H 0.42373 0.97169 0.01995 0.0
H993 H 0.39658 0.95045 0.02465 0.0
H994 H 0.36117 0.98216 0.99248 0.0
H995 H 0.3883 0.00324 0.9873 0.0
H996 H 0.36609 0.95494 0.04133 0.0
H997 H 0.34515 0.93369 0.96728 0.0
H998 H 0.36732 0.94659 0.9753 0.0
H999 H 0.34683 0.95717 0.9717 0.0
C1000 C 0.41018 0.97412 0.0138 0.0
C1001 C 0.40819 0.98908 0.00312 0.0
C1002 C 0.39467 0.96198 0.01653 0.0
C1003 C 0.37688 0.96456 0.00867 0.0
C1004 C 0.3748 0.97967 0.9983 0.0
H1005 H 0.26862 0.90081 0.01336 0.0
H1006 H 0.29326 0.92542 0.01 0.0
C1007 C 0.39032 0.99175 0.99543 0.0
C1008 C 0.36054 0.9515 0.01155 0.0
H1009 H 0.3248 0.92258 0.98872 0.0
C1010 C 0.35706 0.94787 0.02983 0.0
C1011 C 0.34875 0.9423 0.99651 0.0
C1012 C 0.35225 0.94498 0.9766 0.0
C1013 C 0.34216 0.93526 0.03346 0.0
C1014 C 0.33051 0.92599 0.01845 0.0
C1015 C 0.33374 0.92982 0.00018 0.0
C1016 C 0.31554 0.91155 0.0214 0.0
C1017 C 0.33894 0.93192 0.05333 0.0
C1018 C 0.31997 0.89564 0.02887 0.0
C1019 C 0.30599 0.88154 0.0307 0.0
C1020 C 0.28728 0.88309 0.02511 0.0
C1021 C 0.28287 0.89919 0.01788 0.0
C1022 C 0.29691 0.91325 0.01591 0.0
H1023 H 0.34636 0.9428 0.06299 0.0
H1024 H 0.32391 0.93043 0.0548 0.0
H1025 H 0.34407 0.9194 0.05754 0.0
H1026 H 0.3343 0.89401 0.03296 0.0
H1027 H 0.30991 0.86936 0.03633 0.0
H1028 H 0.24163 0.34356 0.29071 0.0
H1029 H 0.2241 0.36836 0.28456 0.0
H1030 H 0.19324 0.35409 0.3304 0.0
H1031 H 0.2107 0.32939 0.33675 0.0
H1032 H 0.18434 0.36758 0.27695 0.0
H1033 H 0.21475 0.40703 0.34139 0.0
H1034 H 0.22515 0.38896 0.33258 0.0
H1035 H 0.20506 0.38445 0.34461 0.0
C1036 C 0.23113 0.3457 0.2995 0.0
C1037 C 0.22765 0.33455 0.31429 0.0
C1038 C 0.2211 0.35984 0.29593 0.0
C1039 C 0.20755 0.36316 0.30717 0.0
C1040 C 0.20385 0.35191 0.32175 0.0
H1041 H 0.1442 0.4522 0.30935 0.0
H1042 H 0.15465 0.42336 0.31477 0.0
C1043 C 0.21381 0.33776 0.3253 0.0
C1044 C 0.19734 0.37845 0.30368 0.0
H1045 H 0.19123 0.41842 0.32232 0.0
C1046 C 0.1858 0.37869 0.28686 0.0
C1047 C 0.19918 0.39284 0.31673 0.0
C1048 C 0.2118 0.39347 0.3348 0.0
C1049 C 0.17607 0.39301 0.28269 0.0
C1050 C 0.17825 0.40761 0.29554 0.0
C1051 C 0.1895 0.40718 0.31253 0.0
C1052 C 0.17016 0.42403 0.29114 0.0
C1053 C 0.16346 0.39232 0.26462 0.0
C1054 C 0.17529 0.43389 0.27598 0.0
C1055 C 0.16934 0.45031 0.27283 0.0
C1056 C 0.15825 0.45734 0.28487 0.0
C1057 C 0.15267 0.44718 0.29976 0.0
C1058 C 0.15866 0.43072 0.30291 0.0
H1059 H 0.15869 0.37842 0.25939 0.0
H1060 H 0.15112 0.3989 0.26618 0.0
H1061 H 0.17117 0.39929 0.25399 0.0
H1062 H 0.18447 0.42921 0.26695 0.0
H1063 H 0.17395 0.45772 0.26123 0.0
H1064 H 0.11315 0.02073 0.48483 0.0
H1065 H 0.14111 0.04178 0.494 0.0
H1066 H 0.12347 0.04939 0.54795 0.0
H1067 H 0.09489 0.02897 0.53843 0.0
H1068 H 0.13339 0.07965 0.53517 0.0
H1069 H 0.18878 0.0399 0.52479 0.0
H1070 H 0.17316 0.03931 0.50381 0.0
H1071 H 0.16494 0.02991 0.52447 0.0
C1072 C 0.11537 0.02663 0.49877 0.0
C1073 C 0.1018 0.0232 0.51091 0.0
C1074 C 0.13149 0.03858 0.50408 0.0
C1075 C 0.13467 0.04698 0.52182 0.0
C1076 C 0.12141 0.04306 0.53421 0.0
H1077 H 0.23901 0.11951 0.55217 0.0
H1078 H 0.21461 0.09378 0.55082 0.0
C1079 C 0.10508 0.03137 0.52877 0.0
C1080 C 0.15079 0.06116 0.52666 0.0
H1081 H 0.19717 0.07184 0.52386 0.0
C1082 C 0.14738 0.0778 0.53299 0.0
C1083 C 0.16918 0.05879 0.5242 0.0
C1084 C 0.17424 0.04093 0.51915 0.0
C1085 C 0.16159 0.09229 0.53608 0.0
C1086 C 0.17962 0.09032 0.532 0.0
C1087 C 0.18327 0.07348 0.52659 0.0
C1088 C 0.19461 0.10571 0.53264 0.0
C1089 C 0.15706 0.10953 0.54373 0.0
C1090 C 0.19168 0.12078 0.5225 0.0
C1091 C 0.20543 0.13554 0.52349 0.0
C1092 C 0.22264 0.1354 0.53425 0.0
C1093 C 0.22588 0.12003 0.54379 0.0
C1094 C 0.21195 0.10533 0.54304 0.0
H1095 H 0.14529 0.10717 0.55214 0.0
H1096 H 0.16916 0.11704 0.55254 0.0
H1097 H 0.15286 0.11785 0.53204 0.0
H1098 H 0.1787 0.12117 0.51382 0.0
H1099 H 0.2026 0.14705 0.51571 0.0
H1100 H 0.74024 0.18974 0.79424 0.0
H1101 H 0.72244 0.16039 0.79611 0.0
H1102 H 0.76769 0.13613 0.77891 0.0
H1103 H 0.78581 0.16553 0.77729 0.0
H1104 H 0.71115 0.13402 0.7684 0.0
H1105 H 0.75714 0.11048 0.82631 0.0
H1106 H 0.75891 0.1335 0.82034 0.0
H1107 H 0.76834 0.11793 0.80656 0.0
C1108 C 0.74648 0.17819 0.79091 0.0
C1109 C 0.7645 0.17999 0.78571 0.0
C1110 C 0.73625 0.16141 0.79195 0.0
C1111 C 0.74382 0.14608 0.78787 0.0
C1112 C 0.76172 0.14779 0.78246 0.0
H1113 H 0.69681 0.03472 0.79574 0.0
H1114 H 0.71603 0.06183 0.78786 0.0
C1115 C 0.77202 0.1646 0.78146 0.0
C1116 C 0.73278 0.12838 0.78921 0.0
H1117 H 0.73138 0.09019 0.81317 0.0
C1118 C 0.71559 0.1244 0.77814 0.0
C1119 C 0.73866 0.11584 0.80188 0.0
C1120 C 0.75669 0.11964 0.81458 0.0
C1121 C 0.70402 0.10828 0.77953 0.0
C1122 C 0.7097 0.09594 0.7925 0.0
C1123 C 0.72709 0.0997 0.80322 0.0
C1124 C 0.69742 0.07946 0.79591 0.0
C1125 C 0.68583 0.10458 0.76709 0.0
C1126 C 0.6806 0.08041 0.80302 0.0
C1127 C 0.6696 0.06497 0.80755 0.0
C1128 C 0.67526 0.04829 0.80509 0.0
C1129 C 0.69199 0.04735 0.79767 0.0
C1130 C 0.70301 0.06282 0.79321 0.0
H1131 H 0.68587 0.11283 0.75463 0.0
H1132 H 0.6827 0.09037 0.76249 0.0
H1133 H 0.67452 0.10778 0.77491 0.0
H1134 H 0.6762 0.09315 0.80554 0.0
H1135 H 0.65684 0.06616 0.8133 0.0
H1136 H 0.39614 0.01003 0.58856 0.0
H1137 H 0.3749 0.03192 0.58288 0.0
H1138 H 0.41603 0.06502 0.55631 0.0
H1139 H 0.43725 0.0431 0.56168 0.0
H1140 H 0.37972 0.06677 0.59534 0.0
H1141 H 0.36997 0.06237 0.51833 0.0
H1142 H 0.38009 0.04597 0.53221 0.0
H1143 H 0.39387 0.06667 0.52814 0.0
C1144 C 0.40064 0.02192 0.58141 0.0
C1145 C 0.41838 0.02479 0.57551 0.0
C1146 C 0.38848 0.03441 0.57818 0.0
C1147 C 0.39376 0.04996 0.5689 0.0
C1148 C 0.41149 0.05292 0.56311 0.0
H1149 H 0.34901 0.14867 0.57129 0.0
H1150 H 0.36759 0.12449 0.57476 0.0
C1151 C 0.42366 0.04043 0.56632 0.0
C1152 C 0.38101 0.06342 0.56599 0.0
H1153 H 0.35901 0.08671 0.53262 0.0
C1154 C 0.37509 0.07105 0.58162 0.0
C1155 C 0.37478 0.06881 0.54807 0.0
C1156 C 0.37984 0.06042 0.53071 0.0
C1157 C 0.36354 0.08427 0.57985 0.0
C1158 C 0.35799 0.09023 0.56199 0.0
C1159 C 0.36345 0.08225 0.54631 0.0
C1160 C 0.34679 0.10495 0.55938 0.0
C1161 C 0.35727 0.09168 0.59712 0.0
C1162 C 0.32912 0.10212 0.5491 0.0
C1163 C 0.31845 0.11598 0.547 0.0
C1164 C 0.32534 0.13293 0.55506 0.0
C1165 C 0.34321 0.13576 0.56501 0.0
C1166 C 0.35383 0.12193 0.5671 0.0
H1167 H 0.35844 0.08253 0.60881 0.0
H1168 H 0.36616 0.10444 0.6015 0.0
H1169 H 0.34268 0.09423 0.59446 0.0
H1170 H 0.32349 0.08913 0.54293 0.0
H1171 H 0.30477 0.11337 0.53919 0.0
H1172 H 0.56966 0.46207 0.43801 0.0
H1173 H 0.59842 0.4494 0.44511 0.0
H1174 H 0.60381 0.4703 0.50151 0.0
H1175 H 0.57477 0.48251 0.4947 0.0
H1176 H 0.63404 0.46336 0.45735 0.0
H1177 H 0.60566 0.41838 0.50953 0.0
H1178 H 0.59123 0.43056 0.49426 0.0
H1179 H 0.6047 0.44131 0.51479 0.0
C1180 C 0.577 0.46403 0.45192 0.0
C1181 C 0.56982 0.4731 0.46586 0.0
C1182 C 0.59345 0.45679 0.45594 0.0
C1183 C 0.60305 0.45856 0.47395 0.0
C1184 C 0.59636 0.46834 0.48766 0.0
H1185 H 0.70098 0.41932 0.52641 0.0
H1186 H 0.6765 0.43726 0.5174 0.0
C1187 C 0.57981 0.4754 0.48371 0.0
C1188 C 0.61978 0.44981 0.47847 0.0
H1189 H 0.63778 0.41987 0.50715 0.0
C1190 C 0.63484 0.45382 0.4682 0.0
C1191 C 0.62077 0.43725 0.49256 0.0
C1192 C 0.60467 0.43146 0.50329 0.0
C1193 C 0.65095 0.4458 0.47185 0.0
C1194 C 0.65196 0.43347 0.48608 0.0
C1195 C 0.63697 0.42947 0.49635 0.0
C1196 C 0.66825 0.42416 0.49038 0.0
C1197 C 0.66687 0.45065 0.46066 0.0
C1198 C 0.67185 0.41101 0.47803 0.0
C1199 C 0.68576 0.40062 0.48318 0.0
C1200 C 0.6963 0.40323 0.50077 0.0
C1201 C 0.69314 0.41695 0.51276 0.0
C1202 C 0.67915 0.42722 0.50766 0.0
H1203 H 0.66527 0.46264 0.45248 0.0
H1204 H 0.68022 0.45307 0.46991 0.0
H1205 H 0.66756 0.43944 0.45087 0.0
H1206 H 0.66341 0.40832 0.46472 0.0
H1207 H 0.68784 0.39018 0.47361 0.0
H1208 H 0.7282 0.24923 0.32231 0.0
H1209 H 0.72336 0.26397 0.35124 0.0
H1210 H 0.76226 0.30932 0.33998 0.0
H1211 H 0.76753 0.29436 0.31133 0.0
H1212 H 0.7705 0.29937 0.37345 0.0
H1213 H 0.69529 0.30295 0.36384 0.0
H1214 H 0.6998 0.28066 0.36044 0.0
H1215 H 0.70764 0.29748 0.34489 0.0
C1216 C 0.73531 0.26254 0.32577 0.0
C1217 C 0.74807 0.27076 0.31451 0.0
C1218 C 0.73251 0.27098 0.3423 0.0
C1219 C 0.74218 0.28792 0.34766 0.0
C1220 C 0.75457 0.2963 0.33612 0.0
H1221 H 0.72382 0.34657 0.44781 0.0
H1222 H 0.72444 0.33713 0.4154 0.0
C1223 C 0.75758 0.28776 0.31977 0.0
C1224 C 0.74085 0.29612 0.36613 0.0
H1225 H 0.7103 0.30639 0.39536 0.0
C1226 C 0.75733 0.3011 0.37811 0.0
C1227 C 0.72372 0.29865 0.37219 0.0
C1228 C 0.70565 0.29483 0.35957 0.0
C1229 C 0.75713 0.30796 0.39614 0.0
C1230 C 0.73992 0.30935 0.40263 0.0
C1231 C 0.72347 0.30503 0.39047 0.0
C1232 C 0.73881 0.31474 0.42218 0.0
C1233 C 0.7754 0.31373 0.40802 0.0
C1234 C 0.74627 0.30503 0.43671 0.0
C1235 C 0.74611 0.31046 0.45516 0.0
C1236 C 0.73819 0.32557 0.45952 0.0
C1237 C 0.73008 0.33491 0.44494 0.0
C1238 C 0.73041 0.32954 0.42642 0.0
H1239 H 0.78683 0.3172 0.39936 0.0
H1240 H 0.7747 0.32536 0.41725 0.0
H1241 H 0.77893 0.30263 0.41679 0.0
H1242 H 0.75235 0.29328 0.43377 0.0
H1243 H 0.75224 0.30279 0.46602 0.0
H1244 H 0.51966 0.99414 0.97515 0.0
H1245 H 0.5382 0.9905 0.94979 0.0
H1246 H 0.49582 0.00766 0.91089 0.0
H1247 H 0.47711 0.01137 0.93613 0.0
H1248 H 0.51406 0.97656 0.89891 0.0
H1249 H 0.56213 0.03727 0.92563 0.0
H1250 H 0.55704 0.02052 0.94216 0.0
H1251 H 0.53898 0.03225 0.93209 0.0
C1252 C 0.51411 0.99688 0.96117 0.0
C1253 C 0.49697 0.00323 0.95771 0.0
C1254 C 0.52475 0.99481 0.94672 0.0
C1255 C 0.51842 0.99899 0.92857 0.0
C1256 C 0.50091 0.0044 0.92485 0.0
H1257 H 0.58201 0.02806 0.83825 0.0
H1258 H 0.55903 0.02498 0.86022 0.0
C1259 C 0.49028 0.00654 0.9393 0.0
C1260 C 0.53069 0.99913 0.91378 0.0
H1261 H 0.56984 0.0219 0.89978 0.0
C1262 C 0.52628 0.98642 0.89907 0.0
C1263 C 0.54647 0.01217 0.91399 0.0
C1264 C 0.55146 0.02644 0.92921 0.0
C1265 C 0.53747 0.98629 0.88461 0.0
C1266 C 0.55338 0.99921 0.88498 0.0
C1267 C 0.55765 0.012 0.89961 0.0
C1268 C 0.56583 0.99989 0.8703 0.0
C1269 C 0.53212 0.97258 0.8689 0.0
C1270 C 0.57712 0.98668 0.86859 0.0
C1271 C 0.59037 0.98843 0.85611 0.0
C1272 C 0.59253 0.00345 0.84515 0.0
C1273 C 0.58073 0.01633 0.84647 0.0
C1274 C 0.56758 0.01461 0.85902 0.0
H1275 H 0.51775 0.96564 0.86892 0.0
H1276 H 0.53331 0.97884 0.85532 0.0
H1277 H 0.54175 0.96254 0.8703 0.0
H1278 H 0.57613 0.97533 0.87737 0.0
H1279 H 0.59924 0.97827 0.85542 0.0
H1280 H 0.31843 0.25367 0.35343 0.0
H1281 H 0.32047 0.23164 0.37747 0.0
H1282 H 0.26108 0.2254 0.37717 0.0
H1283 H 0.25887 0.24698 0.35306 0.0
H1284 H 0.31092 0.23553 0.41168 0.0
H1285 H 0.26963 0.17446 0.37886 0.0
H1286 H 0.27796 0.19301 0.36549 0.0
H1287 H 0.25678 0.19275 0.37588 0.0
C1288 C 0.30577 0.24733 0.35822 0.0
C1289 C 0.28848 0.25215 0.35135 0.0
C1290 C 0.30696 0.23473 0.37195 0.0
C1291 C 0.2909 0.22663 0.37892 0.0
C1292 C 0.27362 0.23106 0.37167 0.0
H1293 H 0.24865 0.18958 0.47287 0.0
H1294 H 0.25639 0.19704 0.44195 0.0
C1295 C 0.27241 0.24359 0.35798 0.0
C1296 C 0.29216 0.21526 0.39527 0.0
H1297 H 0.27088 0.17745 0.41264 0.0
C1298 C 0.30261 0.22259 0.41179 0.0
C1299 C 0.2814 0.19831 0.39539 0.0
C1300 C 0.27099 0.18912 0.37787 0.0
C1301 C 0.3013 0.21416 0.42871 0.0
C1302 C 0.28937 0.19791 0.42905 0.0
C1303 C 0.27995 0.18996 0.41234 0.0
C1304 C 0.28429 0.1906 0.44681 0.0
C1305 C 0.3116 0.22333 0.44632 0.0
C1306 C 0.29725 0.18391 0.45959 0.0
C1307 C 0.29283 0.17955 0.47739 0.0
C1308 C 0.27546 0.18199 0.48263 0.0
C1309 C 0.26223 0.18773 0.46936 0.0
C1310 C 0.26659 0.19193 0.45163 0.0
H1311 H 0.31892 0.2367 0.44384 0.0
H1312 H 0.30184 0.22472 0.45668 0.0
H1313 H 0.32202 0.21519 0.45244 0.0
H1314 H 0.31095 0.18267 0.45604 0.0
H1315 H 0.30331 0.17514 0.48729 0.0
H1316 H 0.53239 0.54648 0.92987 0.0
H1317 H 0.51007 0.55167 0.90341 0.0
H1318 H 0.48565 0.49665 0.90209 0.0
H1319 H 0.50751 0.49146 0.9287 0.0
H1320 H 0.50742 0.53668 0.86945 0.0
H1321 H 0.43981 0.52052 0.89628 0.0
H1322 H 0.46149 0.52425 0.91137 0.0
H1323 H 0.45357 0.50293 0.8998 0.0
C1324 C 0.52207 0.53556 0.92412 0.0
C1325 C 0.52175 0.51855 0.93138 0.0
C1326 C 0.50932 0.53855 0.90903 0.0
C1327 C 0.49599 0.52462 0.90094 0.0
C1328 C 0.49545 0.50772 0.90839 0.0
H1329 H 0.44912 0.50611 0.78827 0.0
H1330 H 0.46534 0.50672 0.81962 0.0
C1331 C 0.5081 0.50474 0.92353 0.0
C1332 C 0.48392 0.52721 0.88361 0.0
H1333 H 0.4391 0.51956 0.86286 0.0
C1334 C 0.49245 0.5332 0.86811 0.0
C1335 C 0.46436 0.52287 0.88189 0.0
C1336 C 0.45426 0.51747 0.89829 0.0
C1337 C 0.48209 0.53413 0.85075 0.0
C1338 C 0.46271 0.52863 0.84875 0.0
C1339 C 0.45401 0.5235 0.8644 0.0
C1340 C 0.45155 0.52737 0.83028 0.0
C1341 C 0.49201 0.54079 0.83461 0.0
C1342 C 0.43785 0.53828 0.82612 0.0
C1343 C 0.42843 0.53795 0.80813 0.0
C1344 C 0.43255 0.52662 0.79408 0.0
C1345 C 0.4457 0.51514 0.79864 0.0
C1346 C 0.45506 0.5155 0.81655 0.0
H1347 H 0.50561 0.54892 0.8394 0.0
H1348 H 0.49462 0.52928 0.82618 0.0
H1349 H 0.48348 0.54888 0.82553 0.0
H1350 H 0.43486 0.54744 0.83661 0.0
H1351 H 0.41834 0.54692 0.80513 0.0
H1352 H 0.70374 0.79572 0.16482 0.0
H1353 H 0.71201 0.77436 0.14273 0.0
H1354 H 0.74007 0.74862 0.18777 0.0
H1355 H 0.73194 0.76999 0.21006 0.0
H1356 H 0.7516 0.76926 0.14083 0.0
H1357 H 0.70492 0.70778 0.15422 0.0
H1358 H 0.69962 0.72967 0.15949 0.0
H1359 H 0.71747 0.72085 0.17388 0.0
C1360 C 0.7115 0.78542 0.17009 0.0
C1361 C 0.71722 0.78458 0.1892 0.0
C1362 C 0.7162 0.77323 0.15744 0.0
C1363 C 0.7265 0.75988 0.16366 0.0
C1364 C 0.73192 0.75873 0.18274 0.0
H1365 H 0.76937 0.67989 0.09847 0.0
H1366 H 0.75991 0.69652 0.12422 0.0
C1367 C 0.72733 0.77099 0.19543 0.0
C1368 C 0.73265 0.74799 0.15001 0.0
H1369 H 0.72521 0.70559 0.13161 0.0
C1370 C 0.74588 0.75533 0.13883 0.0
C1371 C 0.72531 0.7298 0.14766 0.0
C1372 C 0.71097 0.72145 0.15935 0.0
C1373 C 0.75186 0.74499 0.12515 0.0
C1374 C 0.744 0.72693 0.12225 0.0
C1375 C 0.73112 0.71945 0.13379 0.0
C1376 C 0.74846 0.71596 0.10674 0.0
C1377 C 0.76663 0.7535 0.11398 0.0
C1378 C 0.74464 0.72106 0.08839 0.0
C1379 C 0.75011 0.71172 0.07376 0.0
C1380 C 0.75927 0.69687 0.0771 0.0
C1381 C 0.76236 0.69128 0.09543 0.0
C1382 C 0.75696 0.70075 0.11014 0.0
H1383 H 0.77499 0.76538 0.12146 0.0
H1384 H 0.7761 0.74401 0.11077 0.0
H1385 H 0.75991 0.75785 0.10068 0.0
H1386 H 0.73775 0.73255 0.08542 0.0
H1387 H 0.74754 0.71648 0.05988 0.0
H1388 H 0.99765 0.03154 0.07271 0.0
H1389 H 0.98606 0.03106 0.10297 0.0
H1390 H 0.93699 0.05135 0.07893 0.0
H1391 H 0.9483 0.05159 0.04851 0.0
H1392 H 0.97713 0.05844 0.12411 0.0
H1393 H 0.91542 0.00758 0.10484 0.0
H1394 H 0.93396 0.01172 0.09049 0.0
H1395 H 0.91663 0.02626 0.0901 0.0
C1396 C 0.98438 0.03589 0.07383 0.0
C1397 C 0.97384 0.0415 0.05815 0.0
C1398 C 0.97779 0.0356 0.09114 0.0
C1399 C 0.96052 0.04085 0.09312 0.0
C1400 C 0.95015 0.04683 0.07761 0.0
H1401 H 0.89916 0.05323 0.18627 0.0
H1402 H 0.9101 0.05213 0.15574 0.0
C1403 C 0.9567 0.04708 0.06026 0.0
C1404 C 0.95355 0.04033 0.1115 0.0
H1405 H 0.91771 0.02227 0.13441 0.0
C1406 C 0.96419 0.05046 0.1264 0.0
C1407 C 0.93667 0.02989 0.11443 0.0
C1408 C 0.92507 0.01811 0.09918 0.0
C1409 C 0.95823 0.05069 0.14408 0.0
C1410 C 0.94132 0.04032 0.14697 0.0
C1411 C 0.93068 0.03019 0.13211 0.0
C1412 C 0.93432 0.04008 0.1653 0.0
C1413 C 0.96987 0.06233 0.15943 0.0
C1414 C 0.9441 0.03328 0.18068 0.0
C1415 C 0.93788 0.03384 0.19815 0.0
C1416 C 0.92173 0.04119 0.2005 0.0
C1417 C 0.91168 0.04753 0.18494 0.0
C1418 C 0.91789 0.04691 0.16748 0.0
H1419 H 0.98021 0.07235 0.15397 0.0
H1420 H 0.96099 0.06933 0.16758 0.0
H1421 H 0.97749 0.05394 0.16901 0.0
H1422 H 0.95667 0.0277 0.1792 0.0
H1423 H 0.94594 0.02886 0.20985 0.0
H1424 H 0.29384 0.75208 0.1915 0.0
H1425 H 0.28606 0.76732 0.16292 0.0
H1426 H 0.27253 0.81094 0.19502 0.0
H1427 H 0.28049 0.7959 0.22371 0.0
H1428 H 0.25147 0.77718 0.15094 0.0
H1429 H 0.30643 0.83592 0.15943 0.0
H1430 H 0.30784 0.81639 0.17292 0.0
H1431 H 0.29331 0.83227 0.17876 0.0
C1432 C 0.28939 0.765 0.19251 0.0
C1433 C 0.2878 0.77278 0.20989 0.0
C1434 C 0.28495 0.77368 0.17617 0.0
C1435 C 0.27893 0.79035 0.17687 0.0
C1436 C 0.27749 0.79825 0.19418 0.0
H1437 H 0.23688 0.85685 0.08974 0.0
H1438 H 0.24715 0.84481 0.11969 0.0
C1439 C 0.28194 0.78958 0.21056 0.0
C1440 C 0.27315 0.79891 0.15942 0.0
H1441 H 0.28277 0.8357 0.13411 0.0
C1442 C 0.25835 0.78995 0.14723 0.0
C1443 C 0.28207 0.81564 0.15471 0.0
C1444 C 0.2984 0.82559 0.16704 0.0
C1445 C 0.25216 0.79727 0.13046 0.0
C1446 C 0.26123 0.81386 0.12561 0.0
C1447 C 0.27587 0.82297 0.13789 0.0
C1448 C 0.25594 0.82168 0.10759 0.0
C1449 C 0.23579 0.78727 0.11818 0.0
C1450 C 0.25789 0.81285 0.09094 0.0
C1451 C 0.25203 0.81964 0.07389 0.0
C1452 C 0.24423 0.83549 0.07314 0.0
C1453 C 0.24278 0.84459 0.08985 0.0
C1454 C 0.24866 0.83776 0.10696 0.0
H1455 H 0.2275 0.77731 0.12598 0.0
H1456 H 0.22659 0.7965 0.11187 0.0
H1457 H 0.24088 0.78013 0.10678 0.0
H1458 H 0.26375 0.80056 0.09115 0.0
H1459 H 0.2533 0.81224 0.06132 0.0
H1460 H 0.96969 0.49593 0.13157 0.0
H1461 H 0.99089 0.50195 0.16051 0.0
H1462 H 0.0375 0.49883 0.13013 0.0
H1463 H 0.01659 0.49284 0.1013 0.0
H1464 H 0.01651 0.47882 0.17539 0.0
H1465 H 0.05244 0.54545 0.16196 0.0
H1466 H 0.03027 0.53616 0.14952 0.0
H1467 H 0.05133 0.52961 0.14304 0.0
C1468 C 0.98448 0.49678 0.13103 0.0
C1469 C 0.99145 0.49391 0.11411 0.0
C1470 C 0.99654 0.50017 0.14757 0.0
C1471 C 0.01575 0.50102 0.1474 0.0
C1472 C 0.02274 0.49852 0.13051 0.0
H1473 H 0.11846 0.50468 0.21441 0.0
H1474 H 0.09173 0.50362 0.19089 0.0
C1475 C 0.01074 0.495 0.11405 0.0
C1476 C 0.02862 0.50343 0.16489 0.0
H1477 H 0.06783 0.52921 0.18547 0.0
C1478 C 0.02755 0.48998 0.17783 0.0
C1479 C 0.04296 0.51802 0.16799 0.0
C1480 C 0.04426 0.53323 0.15498 0.0
C1481 C 0.04114 0.49021 0.19325 0.0
C1482 C 0.05596 0.50442 0.19586 0.0
C1483 C 0.05651 0.51827 0.18337 0.0
C1484 C 0.07185 0.50455 0.21055 0.0
C1485 C 0.04008 0.47482 0.20602 0.0
C1486 C 0.06954 0.50536 0.22948 0.0
C1487 C 0.08487 0.5059 0.24307 0.0
C1488 C 0.10278 0.50576 0.23794 0.0
C1489 C 0.10493 0.50483 0.21893 0.0
C1490 C 0.08965 0.50426 0.20542 0.0
H1491 H 0.02977 0.46341 0.20011 0.0
H1492 H 0.05382 0.47026 0.20894 0.0
H1493 H 0.03593 0.47913 0.21943 0.0
H1494 H 0.05596 0.50587 0.23373 0.0
H1495 H 0.08272 0.50672 0.25756 0.0
H1496 H 0.3579 0.76858 0.29271 0.0
H1497 H 0.38655 0.77186 0.31425 0.0
H1498 H 0.39327 0.71781 0.30114 0.0
H1499 H 0.36516 0.71464 0.27919 0.0
H1500 H 0.39141 0.75444 0.34465 0.0
H1501 H 0.44546 0.74122 0.30148 0.0
H1502 H 0.42291 0.7456 0.29147 0.0
H1503 H 0.4263 0.7236 0.29844 0.0
C1504 C 0.36572 0.75753 0.29409 0.0
C1505 C 0.35921 0.74134 0.28425 0.0
C1506 C 0.38209 0.75942 0.30642 0.0
C1507 C 0.39222 0.74515 0.30918 0.0
C1508 C 0.38604 0.72918 0.29891 0.0
H1509 H 0.45353 0.72087 0.41118 0.0
H1510 H 0.43115 0.72317 0.38396 0.0
C1511 C 0.36982 0.72734 0.28644 0.0
C1512 C 0.40793 0.74621 0.32426 0.0
H1513 H 0.45207 0.73674 0.3344 0.0
C1514 C 0.40477 0.75083 0.34233 0.0
C1515 C 0.42547 0.74173 0.32127 0.0
C1516 C 0.4303 0.73796 0.30207 0.0
C1517 C 0.41833 0.75039 0.35756 0.0
C1518 C 0.43534 0.74463 0.35474 0.0
C1519 C 0.43887 0.74079 0.33659 0.0
C1520 C 0.44946 0.74228 0.37053 0.0
C1521 C 0.41426 0.75613 0.37651 0.0
C1522 C 0.4675 0.75155 0.37157 0.0
C1523 C 0.48046 0.75005 0.387 0.0
C1524 C 0.47557 0.73927 0.4017 0.0
C1525 C 0.45769 0.72947 0.40024 0.0
C1526 C 0.44483 0.73086 0.38474 0.0
H1527 H 0.40363 0.76523 0.37546 0.0
H1528 H 0.40875 0.74428 0.38387 0.0
H1529 H 0.42697 0.76291 0.38501 0.0
H1530 H 0.47141 0.76031 0.36067 0.0
H1531 H 0.49412 0.75776 0.38766 0.0
H1532 H 0.9918 0.40549 0.05451 0.0
H1533 H 0.99546 0.37996 0.03522 0.0
H1534 H 0.96913 0.40305 0.98718 0.0
H1535 H 0.96515 0.42873 0.00654 0.0
H1536 H 0.95609 0.36732 0.98991 0.0
H1537 H 0.03282 0.37844 0.99807 0.0
H1538 H 0.02373 0.37795 0.01999 0.0
H1539 H 0.01933 0.39526 0.00425 0.0
C1540 C 0.98679 0.40522 0.03984 0.0
C1541 C 0.97827 0.41922 0.03205 0.0
C1542 C 0.98902 0.39064 0.0288 0.0
C1543 C 0.98294 0.38978 0.00969 0.0
C1544 C 0.97409 0.40355 0.00188 0.0
H1545 H 0.01446 0.30566 0.94049 0.0
H1546 H 0.00958 0.33485 0.95208 0.0
C1547 C 0.97181 0.41819 0.01296 0.0
C1548 C 0.98545 0.3742 0.99814 0.0
H1549 H 0.01816 0.34928 0.98722 0.0
C1550 C 0.96968 0.36349 0.9891 0.0
C1551 C 0.0032 0.36939 0.99679 0.0
C1552 C 0.02075 0.38097 0.00513 0.0
C1553 C 0.97112 0.34759 0.97957 0.0
C1554 C 0.98877 0.34215 0.97938 0.0
C1555 C 0.00461 0.35334 0.98758 0.0
C1556 C 0.99104 0.3245 0.97164 0.0
C1557 C 0.9537 0.33674 0.9699 0.0
C1558 C 0.98241 0.30899 0.97892 0.0
C1559 C 0.98514 0.29232 0.97234 0.0
C1560 C 0.99673 0.29076 0.95842 0.0
C1561 C 0.00543 0.30634 0.95118 0.0
C1562 C 0.00265 0.32305 0.95778 0.0
H1563 H 0.94271 0.34515 0.96618 0.0
H1564 H 0.95646 0.32988 0.95708 0.0
H1565 H 0.9483 0.32656 0.97939 0.0
H1566 H 0.97379 0.30978 0.98997 0.0
H1567 H 0.97828 0.28066 0.97834 0.0
H1568 H 0.63061 0.84878 0.28005 0.0
H1569 H 0.61212 0.83735 0.30435 0.0
H1570 H 0.64898 0.79876 0.31725 0.0
H1571 H 0.66758 0.81007 0.29305 0.0
H1572 H 0.59448 0.80095 0.30981 0.0
H1573 H 0.64913 0.82775 0.36697 0.0
H1574 H 0.6489 0.83544 0.34356 0.0
H1575 H 0.65672 0.81467 0.34922 0.0
C1576 C 0.63472 0.83778 0.28796 0.0
C1577 C 0.65067 0.83043 0.28472 0.0
C1578 C 0.62413 0.83127 0.30181 0.0
C1579 C 0.62938 0.81742 0.31273 0.0
C1580 C 0.64489 0.80965 0.30912 0.0
H1581 H 0.59494 0.76023 0.40607 0.0
H1582 H 0.61033 0.77354 0.38065 0.0
C1583 C 0.65544 0.81608 0.29523 0.0
C1584 C 0.61896 0.81133 0.32823 0.0
H1585 H 0.62337 0.80855 0.37539 0.0
C1586 C 0.60069 0.80269 0.32418 0.0
C1587 C 0.62715 0.81373 0.3469 0.0
C1588 C 0.6465 0.82353 0.35203 0.0
C1589 C 0.59059 0.79577 0.33834 0.0
C1590 C 0.5989 0.79793 0.35703 0.0
C1591 C 0.61704 0.8069 0.36105 0.0
C1592 C 0.58941 0.79022 0.37257 0.0
C1593 C 0.57139 0.78566 0.33313 0.0
C1594 C 0.57267 0.79541 0.37668 0.0
C1595 C 0.56377 0.78776 0.39122 0.0
C1596 C 0.57155 0.7749 0.40197 0.0
C1597 C 0.58854 0.77007 0.39806 0.0
C1598 C 0.59737 0.77766 0.38352 0.0
H1599 H 0.5688 0.78165 0.31813 0.0
H1600 H 0.56925 0.77358 0.34138 0.0
H1601 H 0.56096 0.79423 0.3361 0.0
H1602 H 0.56651 0.80538 0.36865 0.0
H1603 H 0.55074 0.79183 0.39394 0.0
H1604 H 0.02466 0.05721 0.99822 0.0
H1605 H 0.0225 0.08894 0.99566 0.0
H1606 H 0.00426 0.08057 0.93704 0.0
H1607 H 0.00605 0.04888 0.93955 0.0
H1608 H 0.04204 0.11249 0.97198 0.0
H1609 H 0.9658 0.10939 0.9562 0.0
H1610 H 0.97651 0.09145 0.96668 0.0
H1611 H 0.97562 0.0944 0.94208 0.0
C1612 C 0.01974 0.06206 0.9849 0.0
C1613 C 0.01516 0.05051 0.96916 0.0
C1614 C 0.01869 0.0802 0.98342 0.0
C1615 C 0.01287 0.08701 0.96623 0.0
C1616 C 0.00839 0.07551 0.95051 0.0
H1617 H 0.03097 0.18801 0.91837 0.0
H1618 H 0.0291 0.15728 0.92776 0.0
C1619 C 0.00957 0.05745 0.95194 0.0
C1620 C 0.01254 0.10629 0.96433 0.0
H1621 H 0.98425 0.13656 0.9498 0.0
C1622 C 0.02938 0.1178 0.96738 0.0
C1623 C 0.99597 0.11319 0.95849 0.0
C1624 C 0.9774 0.10151 0.95582 0.0
C1625 C 0.03021 0.13593 0.96388 0.0
C1626 C 0.0138 0.14264 0.95707 0.0
C1627 C 0.99683 0.13131 0.95486 0.0
C1628 C 0.01424 0.16117 0.95121 0.0
C1629 C 0.04868 0.14775 0.9672 0.0
C1630 C 0.00609 0.17342 0.96106 0.0
C1631 C 0.00716 0.19108 0.95575 0.0
C1632 C 0.01622 0.19667 0.94038 0.0
C1633 C 0.02392 0.18418 0.93029 0.0
C1634 C 0.02294 0.16662 0.93567 0.0
H1635 H 0.059 0.14162 0.97644 0.0
H1636 H 0.05419 0.15013 0.95372 0.0
H1637 H 0.04715 0.16081 0.97347 0.0
H1638 H 0.99924 0.16939 0.97305 0.0
H1639 H 0.00115 0.20036 0.96385 0.0
H1640 H 0.36418 0.30932 0.29028 0.0
H1641 H 0.38605 0.30675 0.26763 0.0
H1642 H 0.34123 0.28156 0.22785 0.0
H1643 H 0.31928 0.28411 0.2503 0.0
H1644 H 0.3929 0.27487 0.25023 0.0
H1645 H 0.36773 0.32142 0.19865 0.0
H1646 H 0.36208 0.32129 0.22224 0.0
H1647 H 0.34977 0.30504 0.20521 0.0
C1648 C 0.35895 0.30334 0.27666 0.0
C1649 C 0.33997 0.29696 0.27207 0.0
C1650 C 0.37147 0.30188 0.26376 0.0
C1651 C 0.36521 0.29421 0.246 0.0
C1652 C 0.34629 0.28784 0.24137 0.0
H1653 H 0.40585 0.25935 0.14853 0.0
H1654 H 0.38861 0.26864 0.17287 0.0
C1655 C 0.33378 0.28921 0.25427 0.0
C1656 C 0.37849 0.29207 0.23251 0.0
H1657 H 0.38784 0.30208 0.18862 0.0
C1658 C 0.392 0.28099 0.23685 0.0
C1659 C 0.37726 0.30012 0.2151 0.0
C1660 C 0.36355 0.31277 0.21004 0.0
C1661 C 0.40376 0.27704 0.22387 0.0
C1662 C 0.40216 0.28467 0.20623 0.0
C1663 C 0.38903 0.29622 0.20214 0.0
C1664 C 0.41298 0.27984 0.19135 0.0
C1665 C 0.41718 0.26408 0.22882 0.0
C1666 C 0.43244 0.28333 0.19351 0.0
C1667 C 0.4424 0.27795 0.17958 0.0
C1668 C 0.43303 0.2691 0.16323 0.0
C1669 C 0.41352 0.26608 0.16096 0.0
C1670 C 0.40363 0.27141 0.17485 0.0
H1671 H 0.41396 0.2566 0.24131 0.0
H1672 H 0.41703 0.25444 0.21709 0.0
H1673 H 0.43143 0.27145 0.23181 0.0
H1674 H 0.43992 0.29013 0.20599 0.0
H1675 H 0.45741 0.28057 0.18171 0.0
H1676 H 0.58551 0.40472 0.0313 0.0
H1677 H 0.57277 0.38161 0.05098 0.0
H1678 H 0.53065 0.41294 0.06283 0.0
H1679 H 0.5431 0.43605 0.04284 0.0
H1680 H 0.56665 0.38159 0.08828 0.0
H1681 H 0.50039 0.36639 0.04119 0.0
H1682 H 0.52045 0.38011 0.03446 0.0
H1683 H 0.50631 0.38897 0.04991 0.0
C1684 C 0.57363 0.40679 0.0382 0.0
C1685 C 0.5652 0.42215 0.03534 0.0
C1686 C 0.56638 0.39357 0.04947 0.0
C1687 C 0.55057 0.39543 0.05809 0.0
C1688 C 0.54263 0.41109 0.05598 0.0
H1689 H 0.48642 0.30999 0.11374 0.0
H1690 H 0.49808 0.33994 0.1045 0.0
C1691 C 0.54983 0.42432 0.04463 0.0
C1692 C 0.54211 0.38056 0.0686 0.0
H1693 H 0.50399 0.34893 0.06731 0.0
C1694 C 0.55287 0.37456 0.08382 0.0
C1695 C 0.5241 0.37144 0.06278 0.0
C1696 C 0.51214 0.37691 0.04611 0.0
C1697 C 0.54631 0.35938 0.09307 0.0
C1698 C 0.52862 0.34988 0.08678 0.0
C1699 C 0.51752 0.35631 0.07211 0.0
C1700 C 0.52223 0.33224 0.09382 0.0
C1701 C 0.55847 0.35344 0.1093 0.0
C1702 C 0.53191 0.31806 0.09077 0.0
C1703 C 0.52527 0.30101 0.09587 0.0
C1704 C 0.50875 0.29775 0.10412 0.0
C1705 C 0.49921 0.31206 0.10747 0.0
C1706 C 0.50583 0.32916 0.10221 0.0
H1707 H 0.56872 0.36463 0.11582 0.0
H1708 H 0.55006 0.34758 0.12001 0.0
H1709 H 0.56627 0.34317 0.10432 0.0
H1710 H 0.54439 0.32009 0.08399 0.0
H1711 H 0.53301 0.29034 0.0931 0.0
H1712 H 0.64855 0.28108 0.2798 0.0
H1713 H 0.6182 0.27908 0.26125 0.0
H1714 H 0.62072 0.22448 0.2462 0.0
H1715 H 0.65086 0.22625 0.26488 0.0
H1716 H 0.61301 0.27256 0.2239 0.0
H1717 H 0.56746 0.22192 0.25744 0.0
H1718 H 0.58938 0.23287 0.26905 0.0
H1719 H 0.58868 0.21442 0.25295 0.0
C1720 C 0.64248 0.26853 0.27286 0.0
C1721 C 0.65218 0.25385 0.27374 0.0
C1722 C 0.62512 0.26742 0.26227 0.0
C1723 C 0.6171 0.25159 0.2525 0.0
C1724 C 0.62643 0.23672 0.25394 0.0
H1725 H 0.54992 0.23409 0.14849 0.0
H1726 H 0.57336 0.23692 0.17553 0.0
C1727 C 0.64376 0.2378 0.26452 0.0
C1728 C 0.60015 0.25117 0.23909 0.0
H1729 H 0.5573 0.22764 0.22556 0.0
C1730 C 0.60072 0.26292 0.22445 0.0
C1731 C 0.58405 0.23868 0.23987 0.0
C1732 C 0.58225 0.22638 0.25579 0.0
C1733 C 0.58601 0.26198 0.21011 0.0
C1734 C 0.57042 0.24879 0.2103 0.0
C1735 C 0.56939 0.23759 0.22537 0.0
C1736 C 0.55561 0.24594 0.19441 0.0
C1737 C 0.58738 0.27491 0.19468 0.0
C1738 C 0.53768 0.24957 0.19624 0.0
C1739 C 0.52415 0.24798 0.18075 0.0
C1740 C 0.52835 0.24262 0.16322 0.0
C1741 C 0.54619 0.23837 0.1617 0.0
C1742 C 0.55965 0.24002 0.17713 0.0
H1743 H 0.59777 0.28681 0.19888 0.0
H1744 H 0.59171 0.26831 0.18246 0.0
H1745 H 0.57375 0.27928 0.19035 0.0
H1746 H 0.53431 0.25408 0.20952 0.0
H1747 H 0.51055 0.25129 0.18244 0.0
H1748 H 0.46619 0.05393 0.05929 0.0
H1749 H 0.4618 0.08075 0.0766 0.0
H1750 H 0.48771 0.11326 0.03624 0.0
H1751 H 0.49201 0.08673 0.01886 0.0
H1752 H 0.48908 0.10936 0.09209 0.0
H1753 H 0.43817 0.13209 0.03859 0.0
H1754 H 0.44366 0.1097 0.03854 0.0
H1755 H 0.45878 0.12731 0.02959 0.0
C1756 C 0.47089 0.0668 0.05409 0.0
C1757 C 0.47934 0.06819 0.03763 0.0
C1758 C 0.46839 0.08208 0.06399 0.0
C1759 C 0.47416 0.09895 0.05751 0.0
C1760 C 0.48282 0.10035 0.04126 0.0
H1761 H 0.48558 0.20889 0.08543 0.0
H1762 H 0.48565 0.17887 0.07311 0.0
C1763 C 0.48534 0.08515 0.03139 0.0
C1764 C 0.47153 0.11523 0.06775 0.0
H1765 H 0.45291 0.15365 0.0621 0.0
C1766 C 0.48094 0.11896 0.0857 0.0
C1767 C 0.46083 0.12764 0.05937 0.0
C1768 C 0.44963 0.12394 0.04053 0.0
C1769 C 0.48073 0.13524 0.09509 0.0
C1770 C 0.47069 0.14794 0.08633 0.0
C1771 C 0.4607 0.14391 0.0687 0.0
C1772 C 0.47125 0.16595 0.09463 0.0
C1773 C 0.4919 0.13909 0.11392 0.0
C1774 C 0.46313 0.16861 0.11085 0.0
C1775 C 0.4631 0.18582 0.11799 0.0
C1776 C 0.47119 0.20061 0.10899 0.0
C1777 C 0.47941 0.19782 0.09282 0.0
C1778 C 0.47939 0.18067 0.0857 0.0
H1779 H 0.50125 0.12906 0.11743 0.0
H1780 H 0.50036 0.15243 0.11446 0.0
H1781 H 0.48233 0.13907 0.12469 0.0
H1782 H 0.45654 0.1574 0.11778 0.0
H1783 H 0.45659 0.18754 0.13042 0.0
H1784 H 0.23422 0.38465 0.70475 0.0
H1785 H 0.25951 0.40925 0.70445 0.0
H1786 H 0.28396 0.39492 0.75803 0.0
H1787 H 0.25851 0.37065 0.75869 0.0
H1788 H 0.28334 0.43005 0.75675 0.0
H1789 H 0.31215 0.40684 0.69476 0.0
H1790 H 0.28806 0.40925 0.69037 0.0
H1791 H 0.29522 0.39288 0.70611 0.0
C1792 C 0.24503 0.38668 0.71643 0.0
C1793 C 0.24437 0.37564 0.73173 0.0
C1794 C 0.25954 0.40069 0.71619 0.0
C1795 C 0.2738 0.40376 0.73108 0.0
C1796 C 0.27314 0.39277 0.74636 0.0
H1797 H 0.38149 0.46675 0.73309 0.0
H1798 H 0.35491 0.44344 0.73219 0.0
C1799 C 0.25858 0.37888 0.7467 0.0
C1800 C 0.28921 0.41865 0.73107 0.0
H1801 H 0.32458 0.43571 0.70705 0.0
C1802 C 0.29238 0.43129 0.74589 0.0
C1803 C 0.30112 0.42014 0.717 0.0
C1804 C 0.29912 0.40647 0.70125 0.0
C1805 C 0.30711 0.44535 0.74707 0.0
C1806 C 0.31872 0.44709 0.73275 0.0
C1807 C 0.31556 0.43446 0.71792 0.0
C1808 C 0.33472 0.46147 0.73327 0.0
C1809 C 0.3104 0.45787 0.76391 0.0
C1810 C 0.33221 0.4794 0.734 0.0
C1811 C 0.34744 0.49282 0.73469 0.0
C1812 C 0.36545 0.48854 0.73439 0.0
C1813 C 0.36784 0.47056 0.73334 0.0
C1814 C 0.35264 0.45718 0.7328 0.0
H1815 H 0.30361 0.45197 0.77571 0.0
H1816 H 0.32545 0.46155 0.76853 0.0
H1817 H 0.30448 0.47017 0.76036 0.0
H1818 H 0.31845 0.48303 0.73392 0.0
H1819 H 0.34506 0.50652 0.73531 0.0
H1820 H 0.32374 0.71309 0.79206 0.0
H1821 H 0.33523 0.68447 0.79326 0.0
H1822 H 0.28028 0.65777 0.77408 0.0
H1823 H 0.2686 0.68638 0.77278 0.0
H1824 H 0.32245 0.65192 0.81261 0.0
H1825 H 0.31448 0.64371 0.73542 0.0
H1826 H 0.31464 0.66491 0.74708 0.0
H1827 H 0.29458 0.64829 0.74598 0.0
C1828 C 0.31404 0.70114 0.78821 0.0
C1829 C 0.29528 0.70202 0.78217 0.0
C1830 C 0.32063 0.6848 0.78897 0.0
C1831 C 0.30862 0.66908 0.7836 0.0
C1832 C 0.28978 0.66981 0.77811 0.0
H1833 H 0.34486 0.56748 0.75875 0.0
H1834 H 0.32433 0.58898 0.76517 0.0
C1835 C 0.28314 0.68616 0.77741 0.0
C1836 C 0.31616 0.65209 0.78288 0.0
H1837 H 0.3278 0.62198 0.75251 0.0
C1838 C 0.32346 0.64523 0.7995 0.0
C1839 C 0.31732 0.64337 0.76575 0.0
C1840 C 0.30996 0.65042 0.74748 0.0
C1841 C 0.3323 0.63003 0.79943 0.0
C1842 C 0.33426 0.62179 0.78224 0.0
C1843 C 0.32628 0.62828 0.76567 0.0
C1844 C 0.34593 0.60753 0.78088 0.0
C1845 C 0.33954 0.62302 0.81774 0.0
C1846 C 0.36482 0.61067 0.78783 0.0
C1847 C 0.37654 0.5984 0.78426 0.0
C1848 C 0.36967 0.58283 0.77343 0.0
C1849 C 0.3506 0.57935 0.76711 0.0
C1850 C 0.33885 0.59163 0.77076 0.0
H1851 H 0.33144 0.62649 0.82898 0.0
H1852 H 0.33905 0.60839 0.81689 0.0
H1853 H 0.35415 0.62917 0.82168 0.0
H1854 H 0.37071 0.62301 0.79527 0.0
H1855 H 0.39116 0.60152 0.78931 0.0
H1856 H 0.88827 0.50337 0.47568 0.0
H1857 H 0.86067 0.48308 0.48128 0.0
H1858 H 0.89503 0.45196 0.51555 0.0
H1859 H 0.9226 0.47238 0.51038 0.0
H1860 H 0.8517 0.44791 0.47273 0.0
H1861 H 0.85611 0.45915 0.54888 0.0
H1862 H 0.86972 0.47354 0.53457 0.0
H1863 H 0.87703 0.45291 0.54188 0.0
C1864 C 0.88994 0.49227 0.4845 0.0
C1865 C 0.90763 0.48954 0.49267 0.0
C1866 C 0.87415 0.48069 0.48769 0.0
C1867 C 0.87574 0.4662 0.49912 0.0
C1868 C 0.8934 0.46333 0.5071 0.0
H1869 H 0.80741 0.37167 0.52525 0.0
H1870 H 0.83193 0.39607 0.52142 0.0
C1871 C 0.90918 0.47494 0.50401 0.0
C1872 C 0.85904 0.45363 0.50208 0.0
H1873 H 0.83562 0.4335 0.53578 0.0
C1874 C 0.84804 0.44493 0.4865 0.0
C1875 C 0.85424 0.44981 0.52006 0.0
C1876 C 0.86479 0.45948 0.53729 0.0
C1877 C 0.8328 0.43201 0.48846 0.0
C1878 C 0.8284 0.4278 0.50645 0.0
C1879 C 0.83912 0.43675 0.52201 0.0
C1880 C 0.81328 0.41349 0.50939 0.0
C1881 C 0.82187 0.4225 0.47133 0.0
C1882 C 0.79466 0.41538 0.50416 0.0
C1883 C 0.78054 0.40147 0.5064 0.0
C1884 C 0.78486 0.38541 0.51384 0.0
C1885 C 0.80356 0.38378 0.51938 0.0
C1886 C 0.81761 0.39772 0.51725 0.0
H1887 H 0.82875 0.4254 0.45866 0.0
H1888 H 0.81992 0.40793 0.4731 0.0
H1889 H 0.80793 0.42672 0.4692 0.0
H1890 H 0.79106 0.42756 0.49824 0.0
H1891 H 0.7663 0.40319 0.50202 0.0
H1892 H 0.7243 0.82507 0.80032 0.0
H1893 H 0.70627 0.84961 0.79706 0.0
H1894 H 0.68958 0.84069 0.85156 0.0
H1895 H 0.70808 0.81632 0.85519 0.0
H1896 H 0.66976 0.85301 0.79802 0.0
H1897 H 0.71402 0.89194 0.85667 0.0
H1898 H 0.72011 0.87193 0.84685 0.0
H1899 H 0.70275 0.87066 0.86252 0.0
C1900 C 0.71669 0.82819 0.81159 0.0
C1901 C 0.71786 0.81888 0.82814 0.0
C1902 C 0.70634 0.84223 0.80967 0.0
C1903 C 0.69689 0.84723 0.82421 0.0
C1904 C 0.69714 0.83733 0.84034 0.0
H1905 H 0.6477 0.94533 0.83224 0.0
H1906 H 0.65344 0.91475 0.83706 0.0
C1907 C 0.70764 0.82334 0.84235 0.0
C1908 C 0.68767 0.86337 0.82266 0.0
H1909 H 0.69012 0.90542 0.84102 0.0
C1910 C 0.67408 0.86442 0.80752 0.0
C1911 C 0.69334 0.87827 0.83506 0.0
C1912 C 0.70845 0.87829 0.85111 0.0
C1913 C 0.66633 0.88007 0.80423 0.0
C1914 C 0.67243 0.89508 0.81631 0.0
C1915 C 0.68544 0.89384 0.83184 0.0
C1916 C 0.66684 0.91267 0.81225 0.0
C1917 C 0.65188 0.88054 0.78772 0.0
C1918 C 0.67236 0.92156 0.79663 0.0
C1919 C 0.66924 0.93904 0.7939 0.0
C1920 C 0.66053 0.94801 0.80675 0.0
C1921 C 0.65439 0.93882 0.82204 0.0
C1922 C 0.65767 0.92135 0.82484 0.0
H1923 H 0.64506 0.86699 0.78297 0.0
H1924 H 0.64111 0.88859 0.79104 0.0
H1925 H 0.65864 0.88671 0.77605 0.0
H1926 H 0.67974 0.9152 0.78692 0.0
H1927 H 0.67412 0.94568 0.78196 0.0
H1928 H 0.59215 0.53288 0.99698 0.0
H1929 H 0.61445 0.5602 0.00045 0.0
H1930 H 0.65948 0.52931 0.0086 0.0
H1931 H 0.63734 0.50197 0.00458 0.0
H1932 H 0.64112 0.57205 0.03093 0.0
H1933 H 0.67437 0.5625 0.96728 0.0
H1934 H 0.65238 0.55006 0.97107 0.0
H1935 H 0.67367 0.54398 0.98224 0.0
C1936 C 0.60679 0.53188 0.99908 0.0
C1937 C 0.61297 0.51524 3e-05 0.0
C1938 C 0.61951 0.54752 0.00127 0.0
C1939 C 0.63863 0.54677 0.00438 0.0
C1940 C 0.64481 0.53019 0.00578 0.0
H1941 H 0.73893 0.62282 0.02421 0.0
H1942 H 0.7157 0.59625 0.01946 0.0
C1943 C 0.63212 0.51458 0.00363 0.0
C1944 C 0.65213 0.56331 0.00667 0.0
H1945 H 0.6892 0.58574 0.98855 0.0
C1946 C 0.65156 0.57513 0.0216 0.0
C1947 C 0.66575 0.56724 0.99449 0.0
C1948 C 0.66654 0.55538 0.97776 0.0
C1949 C 0.66453 0.59061 0.02496 0.0
C1950 C 0.67823 0.59448 0.01285 0.0
C1951 C 0.67872 0.58271 0.99784 0.0
C1952 C 0.69223 0.61066 0.01556 0.0
C1953 C 0.66378 0.60243 0.04173 0.0
C1954 C 0.68674 0.62756 0.01465 0.0
C1955 C 0.69997 0.64278 0.01738 0.0
C1956 C 0.71898 0.64141 0.02096 0.0
C1957 C 0.72443 0.62441 0.02155 0.0
C1958 C 0.71118 0.60919 0.01882 0.0
H1959 H 0.65562 0.59542 0.05204 0.0
H1960 H 0.67795 0.60739 0.04863 0.0
H1961 H 0.65705 0.61406 0.03724 0.0
H1962 H 0.67221 0.62898 0.01176 0.0
H1963 H 0.69524 0.65563 0.0167 0.0
H1964 H 0.26551 0.66568 0.23435 0.0
H1965 H 0.24254 0.63971 0.23735 0.0
H1966 H 0.21277 0.67108 0.2701 0.0
H1967 H 0.23571 0.69723 0.26722 0.0
H1968 H 0.23644 0.62775 0.2747 0.0
H1969 H 0.17187 0.64063 0.23199 0.0
H1970 H 0.19463 0.65102 0.22774 0.0
H1971 H 0.18432 0.65848 0.24715 0.0
C1972 C 0.2539 0.66719 0.24189 0.0
C1973 C 0.25253 0.68351 0.25068 0.0
C1974 C 0.24079 0.65232 0.24357 0.0
C1975 C 0.22596 0.65353 0.25386 0.0
C1976 C 0.22401 0.66996 0.2619 0.0
H1977 H 0.14386 0.5734 0.2927 0.0
H1978 H 0.16118 0.60127 0.284 0.0
C1979 C 0.23718 0.68486 0.2603 0.0
C1980 C 0.2139 0.63721 0.25795 0.0
H1981 H 0.16976 0.61503 0.25002 0.0
C1982 C 0.22188 0.62491 0.26925 0.0
C1983 C 0.19489 0.63375 0.25103 0.0
C1984 C 0.18583 0.64657 0.2387 0.0
C1985 C 0.21132 0.6092 0.27389 0.0
C1986 C 0.19238 0.60546 0.26659 0.0
C1987 C 0.18431 0.61789 0.25547 0.0
C1988 C 0.18088 0.58863 0.27036 0.0
C1989 C 0.2205 0.59693 0.2869 0.0
C1990 C 0.18589 0.57232 0.2651 0.0
C1991 C 0.17617 0.55643 0.2702 0.0
C1992 C 0.16104 0.55652 0.2804 0.0
C1993 C 0.15548 0.57287 0.28489 0.0
C1994 C 0.16533 0.5888 0.2799 0.0
H1995 H 0.23317 0.60398 0.29527 0.0
H1996 H 0.21087 0.59092 0.29651 0.0
H1997 H 0.22469 0.58607 0.27864 0.0
H1998 H 0.19762 0.57189 0.2574 0.0
H1999 H 0.18085 0.54412 0.2665 0.0
H2000 H 0.8866 0.51454 0.07604 0.0
H2001 H 0.86762 0.53808 0.06946 0.0
H2002 H 0.90117 0.55685 0.0269 0.0
H2003 H 0.92057 0.5336 0.03376 0.0
H2004 H 0.89559 0.58368 0.04857 0.0
H2005 H 0.82809 0.54208 0.02704 0.0
H2006 H 0.83812 0.53665 0.04958 0.0
H2007 H 0.84968 0.53307 0.02954 0.0
C2008 C 0.88988 0.52359 0.06518 0.0
C2009 C 0.90509 0.52216 0.0554 0.0
C2010 C 0.8789 0.53697 0.06133 0.0
C2011 C 0.8827 0.54903 0.04741 0.0
C2012 C 0.89788 0.54763 0.03761 0.0
H2013 H 0.80618 0.62495 0.01331 0.0
H2014 H 0.82513 0.60086 0.01278 0.0
C2015 C 0.90896 0.53433 0.04156 0.0
C2016 C 0.87148 0.56369 0.04383 0.0
H2017 H 0.827 0.57265 0.03514 0.0
C2018 C 0.88061 0.58124 0.04542 0.0
C2019 C 0.85196 0.56056 0.03936 0.0
C2020 C 0.84141 0.54206 0.03607 0.0
C2021 C 0.87071 0.59572 0.04345 0.0
C2022 C 0.8511 0.59259 0.04026 0.0
C2023 C 0.84201 0.57505 0.03785 0.0
C2024 C 0.83978 0.6073 0.04029 0.0
C2025 C 0.88141 0.61422 0.04481 0.0
C2026 C 0.84151 0.61873 0.056 0.0
C2027 C 0.83083 0.6325 0.0563 0.0
C2028 C 0.81796 0.63503 0.04097 0.0
C2029 C 0.81601 0.62341 0.02531 0.0
C2030 C 0.82681 0.60964 0.02499 0.0
H2031 H 0.89569 0.61425 0.0411 0.0
H2032 H 0.87432 0.62328 0.03558 0.0
H2033 H 0.88261 0.61953 0.05934 0.0
H2034 H 0.85102 0.61691 0.06817 0.0
H2035 H 0.83258 0.64107 0.06868 0.0
H2036 H 0.07328 0.9746 0.9988 0.0
H2037 H 0.1006 0.95961 0.00508 0.0
H2038 H 0.10157 0.9513 0.94623 0.0
H2039 H 0.07447 0.96653 0.93981 0.0
H2040 H 0.10174 0.92521 0.99555 0.0
H2041 H 0.15592 0.96848 0.9639 0.0
H2042 H 0.13451 0.97575 0.96872 0.0
H2043 H 0.13507 0.9622 0.94824 0.0
C2044 C 0.07948 0.96985 0.98718 0.0
C2045 C 0.07167 0.97173 0.9688 0.0
C2046 C 0.0951 0.96129 0.99079 0.0
C2047 C 0.10326 0.95451 0.97613 0.0
C2048 C 0.09578 0.95677 0.95776 0.0
H2049 H 0.16401 0.86564 0.9787 0.0
H2050 H 0.14221 0.88687 0.97253 0.0
C2051 C 0.08019 0.96538 0.95412 0.0
C2052 C 0.11844 0.94364 0.98005 0.0
H2053 H 0.16234 0.93923 0.97117 0.0
C2054 C 0.11505 0.92838 0.99035 0.0
C2055 C 0.13586 0.94787 0.97341 0.0
C2056 C 0.14067 0.96456 0.96311 0.0
C2057 C 0.12837 0.91696 0.99376 0.0
C2058 C 0.14545 0.92073 0.98639 0.0
C2059 C 0.14912 0.93627 0.97658 0.0
C2060 C 0.1595 0.9085 0.98867 0.0
C2061 C 0.12408 0.90097 0.0053 0.0
C2062 C 0.17678 0.91387 0.99917 0.0
C2063 C 0.18935 0.90176 0.00268 0.0
C2064 C 0.18485 0.88411 0.99568 0.0
C2065 C 0.16786 0.87907 0.98445 0.0
C2066 C 0.15534 0.89116 0.98095 0.0
H2067 H 0.11267 0.90243 0.01377 0.0
H2068 H 0.11967 0.88903 0.99594 0.0
H2069 H 0.13651 0.89869 0.01473 0.0
H2070 H 0.18027 0.92724 0.00515 0.0
H2071 H 0.20235 0.9061 0.01131 0.0
loop_
_geom_bond_atom_site_label_1
_geom_bond_atom_site_label_2
_geom_bond_distance
_geom_bond_site_symmetry_2
_ccdc_geom_bond_type
O0 Cd1 2.300 . S
O0 C7 1.275 . S
Cd1 O0 2.300 . S
Cd1 O9 2.381 . S
Cd1 O10 2.378 . S
O2 Cd3 2.385 . S
O2 C7 1.255 . S
Cd3 O2 2.385 . S
Cd3 O4 2.317 . S
O4 Cd3 2.317 . S
O4 C5 1.232 1_455 S
C5 O4 1.232 1_655 S
C5 O6 1.218 . S
O6 C5 1.218 . S
C7 O0 1.275 . S
C7 O2 1.255 . S
C8 O9 1.258 . S
C8 O10 1.256 . S
O9 Cd1 2.381 . S
O9 C8 1.258 . S
O10 Cd1 2.378 . S
O10 C8 1.256 . S
O11 Cd12 2.300 . S
O11 C18 1.275 . S
Cd12 O11 2.300 . S
Cd12 O20 2.381 . S
Cd12 O21 2.378 . S
O13 Cd14 2.385 . S
O13 C18 1.255 . S
Cd14 O13 2.385 . S
Cd14 O15 2.317 . S
O15 Cd14 2.317 . S
O15 C16 1.232 . S
C16 O15 1.232 . S
C16 O17 1.218 . S
O17 C16 1.218 . S
C18 O11 1.275 . S
C18 O13 1.255 . S
C19 O20 1.258 . S
C19 O21 1.256 . S
O20 Cd12 2.381 . S
O20 C19 1.258 . S
O21 Cd12 2.378 . S
O21 C19 1.256 . S
O22 Cd23 2.300 . S
O22 C29 1.275 . S
Cd23 O22 2.300 . S
Cd23 O31 2.381 . S
Cd23 O32 2.378 . S
O24 Cd25 2.385 1_655 S
O24 C29 1.255 . S
Cd25 O24 2.385 1_455 S
Cd25 O26 2.317 1_455 S
O26 Cd25 2.317 1_655 S
O26 C27 1.232 . S
C27 O26 1.232 . S
C27 O28 1.218 1_655 S
O28 C27 1.218 1_455 S
C29 O22 1.275 . S
C29 O24 1.255 . S
C30 O31 1.258 . S
C30 O32 1.256 . S
O31 Cd23 2.381 . S
O31 C30 1.258 . S
O32 Cd23 2.378 . S
O32 C30 1.256 . S
O33 Cd34 2.300 . S
O33 C40 1.275 . S
Cd34 O33 2.300 . S
Cd34 O42 2.381 . S
Cd34 O43 2.378 . S
O35 Cd36 2.385 . S
O35 C40 1.255 . S
Cd36 O35 2.385 . S
Cd36 O37 2.317 . S
O37 Cd36 2.317 . S
O37 C38 1.232 . S
C38 O37 1.232 . S
C38 O39 1.218 . S
O39 C38 1.218 . S
C40 O33 1.275 . S
C40 O35 1.255 . S
C41 O42 1.258 . S
C41 O43 1.256 . S
O42 Cd34 2.381 . S
O42 C41 1.258 . S
O43 Cd34 2.378 . S
O43 C41 1.256 . S
O44 Cd45 2.300 . S
O44 C51 1.296 . S
Cd45 O44 2.300 . S
Cd45 O53 2.381 . S
Cd45 O54 2.378 . S
O46 Cd47 2.385 . S
O46 C51 1.247 1_545 S
Cd47 O46 2.385 . S
Cd47 O48 2.317 1_545 S
O48 Cd47 2.317 1_565 S
O48 C49 1.217 1_565 S
C49 O48 1.217 1_545 S
C49 O50 1.245 . S
O50 C49 1.245 . S
C51 O44 1.296 . S
C51 O46 1.247 1_565 S
C52 O53 1.258 . S
C52 O54 1.256 . S
O53 Cd45 2.381 . S
O53 C52 1.258 . S
O54 Cd45 2.378 . S
O54 C52 1.256 . S
O55 Cd56 2.300 . S
O55 C62 1.275 . S
Cd56 O55 2.300 . S
Cd56 O64 2.381 . S
Cd56 O65 2.378 . S
O57 Cd58 2.385 . S
O57 C62 1.255 . S
Cd58 O57 2.385 . S
Cd58 O59 2.317 . S
O59 Cd58 2.317 . S
O59 C60 1.232 . S
C60 O59 1.232 . S
C60 O61 1.218 . S
O61 C60 1.218 . S
C62 O55 1.275 . S
C62 O57 1.255 . S
C63 O64 1.258 . S
C63 O65 1.256 . S
O64 Cd56 2.381 . S
O64 C63 1.258 . S
O65 Cd56 2.378 . S
O65 C63 1.256 . S
O66 Cd67 2.300 . S
O66 C73 1.275 . S
Cd67 O66 2.300 . S
Cd67 O75 2.381 . S
Cd67 O76 2.378 . S
O68 Cd69 2.385 1_655 S
O68 C73 1.255 . S
Cd69 O68 2.385 1_455 S
Cd69 O70 2.317 1_455 S
O70 Cd69 2.317 1_655 S
O70 C71 1.232 . S
C71 O70 1.232 . S
C71 O72 1.218 1_655 S
O72 C71 1.218 1_455 S
C73 O66 1.275 . S
C73 O68 1.255 . S
C74 O75 1.258 . S
C74 O76 1.256 . S
O75 Cd67 2.381 . S
O75 C74 1.258 . S
O76 Cd67 2.378 . S
O76 C74 1.256 . S
O77 Cd78 2.300 . S
O77 C84 1.275 . S
Cd78 O77 2.300 . S
Cd78 O86 2.381 . S
Cd78 O87 2.378 . S
O79 Cd80 2.385 . S
O79 C84 1.255 . S
Cd80 O79 2.385 . S
Cd80 O81 2.317 . S
O81 Cd80 2.317 . S
O81 C82 1.232 . S
C82 O81 1.232 . S
C82 O83 1.218 . S
O83 C82 1.218 . S
C84 O77 1.275 . S
C84 O79 1.255 . S
C85 O86 1.258 . S
C85 O87 1.256 . S
O86 Cd78 2.381 . S
O86 C85 1.258 . S
O87 Cd78 2.378 . S
O87 C85 1.256 . S
O88 Cd89 2.300 . S
O88 C95 1.275 . S
Cd89 O88 2.300 . S
Cd89 O97 2.381 . S
Cd89 O98 2.378 . S
O90 Cd91 2.385 . S
O90 C95 1.255 . S
Cd91 O90 2.385 . S
Cd91 O92 2.317 . S
O92 Cd91 2.317 . S
O92 C93 1.232 . S
C93 O92 1.232 . S
C93 O94 1.218 . S
O94 C93 1.218 . S
C95 O88 1.275 . S
C95 O90 1.255 . S
C96 O97 1.258 . S
C96 O98 1.256 . S
O97 Cd89 2.381 . S
O97 C96 1.258 . S
O98 Cd89 2.378 . S
O98 C96 1.256 . S
O99 Cd100 2.300 . S
O99 C106 1.275 . S
Cd100 O99 2.300 . S
Cd100 O108 2.381 1_565 S
Cd100 O109 2.378 1_565 S
O101 Cd102 2.385 . S
O101 C106 1.255 . S
Cd102 O101 2.385 . S
Cd102 O103 2.317 . S
O103 Cd102 2.317 . S
O103 C104 1.232 . S
C104 O103 1.232 . S
C104 O105 1.218 . S
O105 C104 1.218 . S
C106 O99 1.275 . S
C106 O101 1.255 . S
C107 O108 1.258 . S
C107 O109 1.256 . S
O108 Cd100 2.381 1_545 S
O108 C107 1.258 . S
O109 Cd100 2.378 1_545 S
O109 C107 1.256 . S
O110 Cd111 2.300 . S
O110 C117 1.275 . S
Cd111 O110 2.300 . S
Cd111 O119 2.381 . S
Cd111 O120 2.378 . S
O112 Cd113 2.385 . S
O112 C117 1.255 . S
Cd113 O112 2.385 . S
Cd113 O114 2.317 . S
O114 Cd113 2.317 . S
O114 C115 1.232 . S
C115 O114 1.232 . S
C115 O116 1.218 . S
O116 C115 1.218 . S
C117 O110 1.275 . S
C117 O112 1.255 . S
C118 O119 1.258 . S
C118 O120 1.256 . S
O119 Cd111 2.381 . S
O119 C118 1.258 . S
O120 Cd111 2.378 . S
O120 C118 1.256 . S
O121 Cd122 2.300 . S
O121 C128 1.275 . S
Cd122 O121 2.300 . S
Cd122 O130 2.381 . S
Cd122 O131 2.378 . S
O123 Cd124 2.385 . S
O123 C128 1.255 . S
Cd124 O123 2.385 . S
Cd124 O125 2.317 . S
O125 Cd124 2.317 . S
O125 C126 1.232 . S
C126 O125 1.232 . S
C126 O127 1.218 . S
O127 C126 1.218 . S
C128 O121 1.275 . S
C128 O123 1.255 . S
C129 O130 1.258 . S
C129 O131 1.256 . S
O130 Cd122 2.381 . S
O130 C129 1.258 . S
O131 Cd122 2.378 . S
O131 C129 1.256 . S
O132 Cd133 2.300 . S
O132 C139 1.275 . S
Cd133 O132 2.300 . S
Cd133 O141 2.381 . S
Cd133 O142 2.378 . S
O134 Cd135 2.385 . S
O134 C139 1.255 . S
Cd135 O134 2.385 . S
Cd135 O136 2.317 . S
O136 Cd135 2.317 . S
O136 C137 1.232 . S
C137 O136 1.232 . S
C137 O138 1.218 . S
O138 C137 1.218 . S
C139 O132 1.275 . S
C139 O134 1.255 . S
C140 O141 1.258 . S
C140 O142 1.256 . S
O141 Cd133 2.381 . S
O141 C140 1.258 . S
O142 Cd133 2.378 . S
O142 C140 1.256 . S
O143 Cd144 2.300 . S
O143 C150 1.275 . S
Cd144 O143 2.300 . S
Cd144 O152 2.381 1_556 S
Cd144 O153 2.378 1_556 S
O145 Cd146 2.385 . S
O145 C150 1.255 . S
Cd146 O145 2.385 . S
Cd146 O147 2.317 . S
O147 Cd146 2.317 . S
O147 C148 1.232 . S
C148 O147 1.232 . S
C148 O149 1.218 . S
O149 C148 1.218 . S
C150 O143 1.275 . S
C150 O145 1.255 . S
C151 O152 1.258 . S
C151 O153 1.256 . S
O152 Cd144 2.381 1_554 S
O152 C151 1.258 . S
O153 Cd144 2.378 1_554 S
O153 C151 1.256 . S
O154 Cd155 2.300 . S
O154 C161 1.275 . S
Cd155 O154 2.300 . S
Cd155 O163 2.381 . S
Cd155 O164 2.378 . S
O156 Cd157 2.385 . S
O156 C161 1.255 . S
Cd157 O156 2.385 . S
Cd157 O158 2.317 . S
O158 Cd157 2.317 . S
O158 C159 1.232 . S
C159 O158 1.232 . S
C159 O160 1.218 . S
O160 C159 1.218 . S
C161 O154 1.275 . S
C161 O156 1.255 . S
C162 O163 1.258 . S
C162 O164 1.256 . S
O163 Cd155 2.381 . S
O163 C162 1.258 . S
O164 Cd155 2.378 . S
O164 C162 1.256 . S
O165 Cd166 2.300 1_556 S
O165 C172 1.275 . S
Cd166 O165 2.300 1_554 S
Cd166 O174 2.367 1_544 S
Cd166 O175 2.378 1_545 S
O167 Cd168 2.378 1_556 S
O167 C172 1.263 . S
Cd168 O167 2.378 1_554 S
Cd168 O169 2.317 . S
O169 Cd168 2.317 . S
O169 C170 1.232 . S
C170 O169 1.232 . S
C170 O171 1.218 . S
O171 C170 1.218 . S
C172 O165 1.275 . S
C172 O167 1.263 . S
C173 O174 1.268 1_554 S
C173 O175 1.261 . S
O174 Cd166 2.367 1_566 S
O174 C173 1.268 1_556 S
O175 Cd166 2.378 1_565 S
O175 C173 1.261 . S
Mg176 O177 2.028 . S
Mg176 O183 1.986 1_554 S
Mg176 O185 2.114 . S
Mg176 O186 2.251 . S
Mg176 O189 2.010 . S
O177 Mg176 2.028 . S
O177 C180 1.250 . S
O178 Mg179 2.028 1_554 S
O178 C180 1.248 . S
Mg179 O178 2.028 1_556 S
Mg179 O184 2.043 . S
Mg179 O186 2.069 1_556 S
C180 O177 1.250 . S
C180 O178 1.248 . S
C181 O182 1.264 . S
C181 O189 1.249 . S
O182 C181 1.264 . S
O183 Mg176 1.986 1_556 S
O183 C187 1.246 . S
O184 Mg179 2.043 . S
O184 C187 1.259 . S
O185 Mg176 2.114 . S
O185 C188 1.252 . S
O186 Mg176 2.251 . S
O186 Mg179 2.069 1_554 S
O186 C188 1.273 . S
C187 O183 1.246 . S
C187 O184 1.259 . S
C188 O185 1.252 . S
C188 O186 1.273 . S
O189 Mg176 2.010 . S
O189 C181 1.249 . S
Mg190 O191 2.028 . S
Mg190 O197 1.986 . S
Mg190 O199 2.114 . S
Mg190 O200 2.251 . S
Mg190 O203 2.010 . S
O191 Mg190 2.028 . S
O191 C194 1.250 . S
O192 Mg193 2.028 . S
O192 C194 1.248 . S
Mg193 O192 2.028 . S
Mg193 O198 2.032 . S
Mg193 O200 2.079 . S
C194 O191 1.250 . S
C194 O192 1.248 . S
C195 O196 1.264 . S
C195 O203 1.249 . S
O196 C195 1.264 . S
O197 Mg190 1.986 . S
O197 C201 1.246 . S
O198 Mg193 2.032 . S
O198 C201 1.259 . S
O199 Mg190 2.114 . S
O199 C202 1.252 . S
O200 Mg190 2.251 . S
O200 Mg193 2.079 . S
O200 C202 1.273 . S
C201 O197 1.246 . S
C201 O198 1.259 . S
C202 O199 1.252 . S
C202 O200 1.273 . S
O203 Mg190 2.010 . S
O203 C195 1.249 . S
Mg204 O205 2.028 . S
Mg204 O211 1.986 1_554 S
Mg204 O213 2.114 . S
Mg204 O214 2.251 . S
Mg204 O217 2.010 . S
O205 Mg204 2.028 . S
O205 C208 1.250 . S
O206 Mg207 2.026 1_554 S
O206 C208 1.248 . S
Mg207 O206 2.026 1_556 S
Mg207 O212 2.059 . S
Mg207 O214 2.056 1_556 S
C208 O205 1.250 . S
C208 O206 1.248 . S
C209 O210 1.264 . S
C209 O217 1.249 . S
O210 C209 1.264 . S
O211 Mg204 1.986 1_556 S
O211 C215 1.246 . S
O212 Mg207 2.059 . S
O212 C215 1.259 . S
O213 Mg204 2.114 . S
O213 C216 1.252 . S
O214 Mg204 2.251 . S
O214 Mg207 2.056 1_554 S
O214 C216 1.273 . S
C215 O211 1.246 . S
C215 O212 1.259 . S
C216 O213 1.252 . S
C216 O214 1.273 . S
O217 Mg204 2.010 . S
O217 C209 1.249 . S
Mg218 O219 2.028 . S
Mg218 O225 1.986 . S
Mg218 O227 2.114 . S
Mg218 O228 2.251 . S
Mg218 O231 2.010 . S
O219 Mg218 2.028 . S
O219 C222 1.250 . S
O220 Mg221 2.028 . S
O220 C222 1.248 1_565 S
Mg221 O220 2.028 . S
Mg221 O226 2.030 1_565 S
Mg221 O228 2.072 1_565 S
C222 O219 1.250 . S
C222 O220 1.248 1_545 S
C223 O224 1.264 . S
C223 O231 1.249 . S
O224 C223 1.264 . S
O225 Mg218 1.986 . S
O225 C229 1.246 . S
O226 Mg221 2.030 1_545 S
O226 C229 1.259 . S
O227 Mg218 2.114 . S
O227 C230 1.252 . S
O228 Mg218 2.251 . S
O228 Mg221 2.072 1_545 S
O228 C230 1.273 . S
C229 O225 1.246 . S
C229 O226 1.259 . S
C230 O227 1.252 . S
C230 O228 1.273 . S
O231 Mg218 2.010 . S
O231 C223 1.249 . S
Mg232 O233 2.028 . S
Mg232 O239 1.986 . S
Mg232 O241 2.114 . S
Mg232 O242 2.251 . S
Mg232 O245 2.010 . S
O233 Mg232 2.028 . S
O233 C236 1.250 . S
O234 Mg235 2.028 . S
O234 C236 1.248 . S
Mg235 O234 2.028 . S
Mg235 O240 2.032 . S
Mg235 O242 2.079 . S
C236 O233 1.250 . S
C236 O234 1.248 . S
C237 O238 1.264 . S
C237 O245 1.249 . S
O238 C237 1.264 . S
O239 Mg232 1.986 . S
O239 C243 1.246 . S
O240 Mg235 2.032 . S
O240 C243 1.259 . S
O241 Mg232 2.114 . S
O241 C244 1.252 . S
O242 Mg232 2.251 . S
O242 Mg235 2.079 . S
O242 C244 1.273 . S
C243 O239 1.246 . S
C243 O240 1.259 . S
C244 O241 1.252 . S
C244 O242 1.273 . S
O245 Mg232 2.010 . S
O245 C237 1.249 . S
Mg246 O247 2.028 . S
Mg246 O253 1.986 . S
Mg246 O255 2.114 . S
Mg246 O256 2.251 . S
Mg246 O259 2.010 . S
O247 Mg246 2.028 . S
O247 C250 1.250 . S
O248 Mg249 2.028 . S
O248 C250 1.248 . S
Mg249 O248 2.028 . S
Mg249 O254 2.032 . S
Mg249 O256 2.079 . S
C250 O247 1.250 . S
C250 O248 1.248 . S
C251 O252 1.264 . S
C251 O259 1.249 . S
O252 C251 1.264 . S
O253 Mg246 1.986 . S
O253 C257 1.246 . S
O254 Mg249 2.032 . S
O254 C257 1.259 . S
O255 Mg246 2.114 . S
O255 C258 1.252 . S
O256 Mg246 2.251 . S
O256 Mg249 2.079 . S
O256 C258 1.273 . S
C257 O253 1.246 . S
C257 O254 1.259 . S
C258 O255 1.252 . S
C258 O256 1.273 . S
O259 Mg246 2.010 . S
O259 C251 1.249 . S
Mg260 O261 2.028 . S
Mg260 O267 1.986 . S
Mg260 O269 2.114 . S
Mg260 O270 2.251 . S
Mg260 O273 2.010 . S
O261 Mg260 2.028 . S
O261 C264 1.250 . S
O262 Mg263 2.028 . S
O262 C264 1.248 . S
Mg263 O262 2.028 . S
Mg263 O268 2.032 . S
Mg263 O270 2.079 . S
C264 O261 1.250 . S
C264 O262 1.248 . S
C265 O266 1.264 . S
C265 O273 1.249 . S
O266 C265 1.264 . S
O267 Mg260 1.986 . S
O267 C271 1.246 . S
O268 Mg263 2.032 . S
O268 C271 1.259 . S
O269 Mg260 2.114 . S
O269 C272 1.252 . S
O270 Mg260 2.251 . S
O270 Mg263 2.079 . S
O270 C272 1.273 . S
C271 O267 1.246 . S
C271 O268 1.259 . S
C272 O269 1.252 . S
C272 O270 1.273 . S
O273 Mg260 2.010 . S
O273 C265 1.249 . S
Mg274 O275 2.024 1_545 S
Mg274 O281 1.986 1_545 S
Mg274 O283 2.114 . S
Mg274 O284 2.251 . S
Mg274 O287 2.010 . S
O275 Mg274 2.024 1_565 S
O275 C278 1.258 . S
O276 Mg277 2.028 . S
O276 C278 1.248 . S
Mg277 O276 2.028 . S
Mg277 O282 2.032 . S
Mg277 O284 2.079 1_565 S
C278 O275 1.258 . S
C278 O276 1.248 . S
C279 O280 1.264 . S
C279 O287 1.249 . S
O280 C279 1.264 . S
O281 Mg274 1.986 1_565 S
O281 C285 1.246 . S
O282 Mg277 2.032 . S
O282 C285 1.259 . S
O283 Mg274 2.114 . S
O283 C286 1.252 . S
O284 Mg274 2.251 . S
O284 Mg277 2.079 1_545 S
O284 C286 1.273 . S
C285 O281 1.246 . S
C285 O282 1.259 . S
C286 O283 1.252 . S
C286 O284 1.273 . S
O287 Mg274 2.010 . S
O287 C279 1.249 . S
Mg288 O289 2.028 . S
Mg288 O295 1.986 . S
Mg288 O297 2.114 . S
Mg288 O298 2.251 . S
Mg288 O301 2.010 . S
O289 Mg288 2.028 . S
O289 C292 1.250 1_455 S
O290 Mg291 2.028 . S
O290 C292 1.248 . S
Mg291 O290 2.028 . S
Mg291 O296 2.032 . S
Mg291 O298 2.079 1_655 S
C292 O289 1.250 1_655 S
C292 O290 1.248 . S
C293 O294 1.264 . S
C293 O301 1.249 . S
O294 C293 1.264 . S
O295 Mg288 1.986 . S
O295 C299 1.246 . S
O296 Mg291 2.032 . S
O296 C299 1.259 1_655 S
O297 Mg288 2.114 . S
O297 C300 1.252 . S
O298 Mg288 2.251 . S
O298 Mg291 2.079 1_455 S
O298 C300 1.273 . S
C299 O295 1.246 . S
C299 O296 1.259 1_455 S
C300 O297 1.252 . S
C300 O298 1.273 . S
O301 Mg288 2.010 . S
O301 C293 1.249 . S
Mg302 O303 2.028 . S
Mg302 O309 1.986 . S
Mg302 O311 2.114 . S
Mg302 O312 2.251 . S
Mg302 O315 2.010 . S
O303 Mg302 2.028 . S
O303 C306 1.250 . S
O304 Mg305 2.028 . S
O304 C306 1.248 . S
Mg305 O304 2.028 . S
Mg305 O310 2.032 . S
Mg305 O312 2.079 . S
C306 O303 1.250 . S
C306 O304 1.248 . S
C307 O308 1.264 . S
C307 O315 1.249 . S
O308 C307 1.264 . S
O309 Mg302 1.986 . S
O309 C313 1.246 . S
O310 Mg305 2.032 . S
O310 C313 1.259 . S
O311 Mg302 2.114 . S
O311 C314 1.252 . S
O312 Mg302 2.251 . S
O312 Mg305 2.079 . S
O312 C314 1.273 . S
C313 O309 1.246 . S
C313 O310 1.259 . S
C314 O311 1.252 . S
C314 O312 1.273 . S
O315 Mg302 2.010 . S
O315 C307 1.249 . S
Mg316 O317 2.028 . S
Mg316 O323 1.986 . S
Mg316 O325 2.114 1_455 S
Mg316 O326 2.251 . S
Mg316 O329 2.010 1_455 S
O317 Mg316 2.028 . S
O317 C320 1.250 . S
O318 Mg319 2.028 . S
O318 C320 1.248 . S
Mg319 O318 2.028 . S
Mg319 O324 2.032 . S
Mg319 O326 2.079 . S
C320 O317 1.250 . S
C320 O318 1.248 . S
C321 O322 1.264 . S
C321 O329 1.249 . S
O322 C321 1.264 . S
O323 Mg316 1.986 . S
O323 C327 1.246 . S
O324 Mg319 2.032 . S
O324 C327 1.259 . S
O325 Mg316 2.114 1_655 S
O325 C328 1.252 1_655 S
O326 Mg316 2.251 . S
O326 Mg319 2.079 . S
O326 C328 1.273 . S
C327 O323 1.246 . S
C327 O324 1.259 . S
C328 O325 1.252 1_455 S
C328 O326 1.273 . S
O329 Mg316 2.010 1_655 S
O329 C321 1.249 . S
Mg330 O331 2.028 . S
Mg330 O337 1.986 . S
Mg330 O339 2.114 . S
Mg330 O340 2.251 . S
Mg330 O343 2.010 . S
O331 Mg330 2.028 . S
O331 C334 1.250 . S
O332 Mg333 2.028 . S
O332 C334 1.248 . S
Mg333 O332 2.028 . S
Mg333 O338 2.032 . S
Mg333 O340 2.079 . S
C334 O331 1.250 . S
C334 O332 1.248 . S
C335 O336 1.264 . S
C335 O343 1.249 . S
O336 C335 1.264 . S
O337 Mg330 1.986 . S
O337 C341 1.246 . S
O338 Mg333 2.032 . S
O338 C341 1.259 . S
O339 Mg330 2.114 . S
O339 C342 1.252 . S
O340 Mg330 2.251 . S
O340 Mg333 2.079 . S
O340 C342 1.273 . S
C341 O337 1.246 . S
C341 O338 1.259 . S
C342 O339 1.252 . S
C342 O340 1.273 . S
O343 Mg330 2.010 . S
O343 C335 1.249 . S
H344 C352 0.929 . S
H345 C354 0.930 . S
H346 C356 0.930 . S
H347 C359 0.929 . S
H348 C362 0.930 . S
H349 C364 0.960 . S
H350 C364 0.960 . S
H351 C364 0.960 . S
C352 H344 0.929 . S
C352 C353 1.377 . S
C352 C354 1.384 . S
C353 C352 1.377 . S
C353 C359 1.390 . S
C354 H345 0.930 . S
C354 C352 1.384 . S
C354 C355 1.372 . S
C355 C354 1.372 . S
C355 C356 1.400 . S
C355 C360 1.490 . S
C356 H346 0.930 . S
C356 C355 1.400 . S
C356 C359 1.386 . S
H357 C373 0.930 . S
H358 C374 0.931 . S
C359 H347 0.929 . S
C359 C353 1.390 . S
C359 C356 1.386 . S
C360 C355 1.490 . S
C360 C362 1.395 . S
C360 C363 1.403 . S
H361 C367 0.930 . S
C362 H348 0.930 . S
C362 C360 1.395 . S
C362 C365 1.403 . S
C363 C360 1.403 . S
C363 C364 1.524 . S
C363 C367 1.400 . S
C364 H349 0.960 . S
C364 H350 0.960 . S
C364 H351 0.960 . S
C364 C363 1.524 . S
C365 C362 1.403 . S
C365 C366 1.392 . S
C365 C369 1.495 . S
C366 C365 1.392 . S
C366 C367 1.385 . S
C366 C368 1.478 . S
C367 H361 0.930 . S
C367 C363 1.400 . S
C367 C366 1.385 . S
C368 C366 1.478 . S
C368 C370 1.381 . S
C368 C374 1.383 . S
C369 C365 1.495 . S
C369 H375 0.959 . S
C369 H376 0.961 . S
C369 H377 0.960 . S
C370 C368 1.381 . S
C370 C371 1.394 . S
C370 H378 0.930 . S
C371 C370 1.394 . S
C371 C372 1.383 . S
C371 H379 0.929 . S
C372 C371 1.383 . S
C372 C373 1.377 . S
C373 H357 0.930 . S
C373 C372 1.377 . S
C373 C374 1.379 . S
C374 H358 0.931 . S
C374 C368 1.383 . S
C374 C373 1.379 . S
H375 C369 0.959 . S
H376 C369 0.961 . S
H377 C369 0.960 . S
H378 C370 0.930 . S
H379 C371 0.929 . S
H380 C388 0.929 1_655 S
H381 C390 0.930 . S
H382 C392 0.930 . S
H383 C395 0.929 . S
H384 C398 0.930 . S
H385 C400 0.960 . S
H386 C400 0.960 . S
H387 C400 0.960 . S
C388 H380 0.929 1_455 S
C388 C389 1.379 1_455 S
C388 C390 1.384 . S
C389 C388 1.379 1_655 S
C389 C395 1.391 1_655 S
C390 H381 0.930 . S
C390 C388 1.384 . S
C390 C391 1.372 . S
C391 C390 1.372 . S
C391 C392 1.400 . S
C391 C396 1.490 . S
C392 H382 0.930 . S
C392 C391 1.400 . S
C392 C395 1.386 . S
H393 C409 0.930 . S
H394 C410 0.931 . S
C395 H383 0.929 . S
C395 C389 1.391 1_455 S
C395 C392 1.386 . S
C396 C391 1.490 . S
C396 C398 1.395 . S
C396 C399 1.403 . S
H397 C403 0.930 . S
C398 H384 0.930 . S
C398 C396 1.395 . S
C398 C401 1.403 . S
C399 C396 1.403 . S
C399 C400 1.524 . S
C399 C403 1.400 . S
C400 H385 0.960 . S
C400 H386 0.960 . S
C400 H387 0.960 . S
C400 C399 1.524 . S
C401 C398 1.403 . S
C401 C402 1.392 . S
C401 C405 1.495 . S
C402 C401 1.392 . S
C402 C403 1.385 . S
C402 C404 1.478 . S
C403 H397 0.930 . S
C403 C399 1.400 . S
C403 C402 1.385 . S
C404 C402 1.478 . S
C404 C406 1.381 . S
C404 C410 1.383 . S
C405 C401 1.495 . S
C405 H411 0.959 . S
C405 H412 0.961 . S
C405 H413 0.960 . S
C406 C404 1.381 . S
C406 C407 1.394 . S
C406 H414 0.930 . S
C407 C406 1.394 . S
C407 C408 1.383 . S
C407 H415 0.929 . S
C408 C407 1.383 . S
C408 C409 1.377 . S
C409 H393 0.930 . S
C409 C408 1.377 . S
C409 C410 1.379 . S
C410 H394 0.931 . S
C410 C404 1.383 . S
C410 C409 1.379 . S
H411 C405 0.959 . S
H412 C405 0.961 . S
H413 C405 0.960 . S
H414 C406 0.930 . S
H415 C407 0.929 . S
H416 C424 0.929 . S
H417 C426 0.930 . S
H418 C428 0.930 . S
H419 C431 0.929 . S
H420 C434 0.930 . S
H421 C436 0.960 . S
H422 C436 0.960 . S
H423 C436 0.960 . S
C424 H416 0.929 . S
C424 C425 1.377 . S
C424 C426 1.384 . S
C425 C424 1.377 . S
C425 C431 1.390 . S
C426 H417 0.930 . S
C426 C424 1.384 . S
C426 C427 1.372 . S
C427 C426 1.372 . S
C427 C428 1.400 . S
C427 C432 1.490 . S
C428 H418 0.930 . S
C428 C427 1.400 . S
C428 C431 1.386 . S
H429 C445 0.930 . S
H430 C446 0.931 . S
C431 H419 0.929 . S
C431 C425 1.390 . S
C431 C428 1.386 . S
C432 C427 1.490 . S
C432 C434 1.395 . S
C432 C435 1.403 . S
H433 C439 0.930 . S
C434 H420 0.930 . S
C434 C432 1.395 . S
C434 C437 1.403 . S
C435 C432 1.403 . S
C435 C436 1.524 . S
C435 C439 1.400 . S
C436 H421 0.960 . S
C436 H422 0.960 . S
C436 H423 0.960 . S
C436 C435 1.524 . S
C437 C434 1.403 . S
C437 C438 1.392 . S
C437 C441 1.495 . S
C438 C437 1.392 . S
C438 C439 1.385 . S
C438 C440 1.478 . S
C439 H433 0.930 . S
C439 C435 1.400 . S
C439 C438 1.385 . S
C440 C438 1.478 . S
C440 C442 1.381 . S
C440 C446 1.383 . S
C441 C437 1.495 . S
C441 H447 0.959 . S
C441 H448 0.961 . S
C441 H449 0.960 . S
C442 C440 1.381 . S
C442 C443 1.394 . S
C442 H450 0.930 . S
C443 C442 1.394 . S
C443 C444 1.383 . S
C443 H451 0.929 . S
C444 C443 1.383 . S
C444 C445 1.377 . S
C445 H429 0.930 . S
C445 C444 1.377 . S
C445 C446 1.379 . S
C446 H430 0.931 . S
C446 C440 1.383 . S
C446 C445 1.379 . S
H447 C441 0.959 . S
H448 C441 0.961 . S
H449 C441 0.960 . S
H450 C442 0.930 . S
H451 C443 0.929 . S
H452 C460 0.929 . S
H453 C462 0.930 . S
H454 C464 0.930 . S
H455 C467 0.929 . S
H456 C470 0.930 1_565 S
H457 C472 0.960 . S
H458 C472 0.960 . S
H459 C472 0.960 . S
C460 H452 0.929 . S
C460 C461 1.377 . S
C460 C462 1.384 1_455 S
C461 C460 1.377 . S
C461 C467 1.390 1_565 S
C462 H453 0.930 . S
C462 C460 1.384 1_655 S
C462 C463 1.372 1_565 S
C463 C462 1.372 1_545 S
C463 C464 1.400 1_655 S
C463 C468 1.490 . S
C464 H454 0.930 . S
C464 C463 1.400 1_455 S
C464 C467 1.386 . S
H465 C481 0.930 . S
H466 C482 0.931 . S
C467 H455 0.929 . S
C467 C461 1.390 1_545 S
C467 C464 1.386 . S
C468 C463 1.490 . S
C468 C470 1.395 . S
C468 C471 1.403 . S
H469 C475 0.930 . S
C470 H456 0.930 1_545 S
C470 C468 1.395 . S
C470 C473 1.403 . S
C471 C468 1.403 . S
C471 C472 1.524 1_655 S
C471 C475 1.400 . S
C472 H457 0.960 . S
C472 H458 0.960 . S
C472 H459 0.960 . S
C472 C471 1.524 1_455 S
C473 C470 1.403 . S
C473 C474 1.392 . S
C473 C477 1.494 1_545 S
C474 C473 1.392 . S
C474 C475 1.385 . S
C474 C476 1.478 . S
C475 H469 0.930 . S
C475 C471 1.400 . S
C475 C474 1.385 . S
C476 C474 1.478 . S
C476 C478 1.381 . S
C476 C482 1.383 . S
C477 C473 1.494 1_565 S
C477 H483 0.965 . S
C477 H484 0.949 1_565 S
C477 H485 0.968 . S
C478 C476 1.381 . S
C478 C479 1.394 . S
C478 H486 0.930 1_545 S
C479 C478 1.394 . S
C479 C480 1.383 . S
C479 H487 0.929 1_545 S
C480 C479 1.383 . S
C480 C481 1.377 . S
C481 H465 0.930 . S
C481 C480 1.377 . S
C481 C482 1.379 . S
C482 H466 0.931 . S
C482 C476 1.383 . S
C482 C481 1.379 . S
H483 C477 0.965 . S
H484 C477 0.949 1_545 S
H485 C477 0.968 . S
H486 C478 0.930 1_565 S
H487 C479 0.929 1_565 S
H488 C496 0.929 . S
H489 C498 0.930 . S
H490 C500 0.930 . S
H491 C503 0.929 . S
H492 C506 0.930 . S
H493 C508 0.960 . S
H494 C508 0.960 . S
H495 C508 0.960 . S
C496 H488 0.929 . S
C496 C497 1.377 . S
C496 C498 1.384 . S
C497 C496 1.377 . S
C497 C503 1.390 . S
C498 H489 0.930 . S
C498 C496 1.384 . S
C498 C499 1.372 . S
C499 C498 1.372 . S
C499 C500 1.400 . S
C499 C504 1.490 . S
C500 H490 0.930 . S
C500 C499 1.400 . S
C500 C503 1.386 . S
H501 C517 0.930 . S
H502 C518 0.931 . S
C503 H491 0.929 . S
C503 C497 1.390 . S
C503 C500 1.386 . S
C504 C499 1.490 . S
C504 C506 1.395 . S
C504 C507 1.403 . S
H505 C511 0.930 . S
C506 H492 0.930 . S
C506 C504 1.395 . S
C506 C509 1.403 . S
C507 C504 1.403 . S
C507 C508 1.524 . S
C507 C511 1.400 . S
C508 H493 0.960 . S
C508 H494 0.960 . S
C508 H495 0.960 . S
C508 C507 1.524 . S
C509 C506 1.403 . S
C509 C510 1.392 . S
C509 C513 1.495 . S
C510 C509 1.392 . S
C510 C511 1.385 . S
C510 C512 1.478 . S
C511 H505 0.930 . S
C511 C507 1.400 . S
C511 C510 1.385 . S
C512 C510 1.478 . S
C512 C514 1.381 . S
C512 C518 1.383 . S
C513 C509 1.495 . S
C513 H519 0.959 . S
C513 H520 0.961 . S
C513 H521 0.960 . S
C514 C512 1.381 . S
C514 C515 1.394 . S
C514 H522 0.930 . S
C515 C514 1.394 . S
C515 C516 1.383 . S
C515 H523 0.929 . S
C516 C515 1.383 . S
C516 C517 1.377 . S
C517 H501 0.930 . S
C517 C516 1.377 . S
C517 C518 1.379 . S
C518 H502 0.931 . S
C518 C512 1.383 . S
C518 C517 1.379 . S
H519 C513 0.959 . S
H520 C513 0.961 . S
H521 C513 0.960 . S
H522 C514 0.930 . S
H523 C515 0.929 . S
H524 C532 0.929 . S
H525 C534 0.930 . S
H526 C536 0.930 . S
H527 C539 0.929 . S
H528 C542 0.930 . S
H529 C544 0.960 . S
H530 C544 0.960 . S
H531 C544 0.960 . S
C532 H524 0.929 . S
C532 C533 1.377 . S
C532 C534 1.384 . S
C533 C532 1.377 . S
C533 C539 1.390 . S
C534 H525 0.930 . S
C534 C532 1.384 . S
C534 C535 1.372 . S
C535 C534 1.372 . S
C535 C536 1.400 . S
C535 C540 1.490 . S
C536 H526 0.930 . S
C536 C535 1.400 . S
C536 C539 1.386 . S
H537 C553 0.930 . S
H538 C554 0.931 . S
C539 H527 0.929 . S
C539 C533 1.390 . S
C539 C536 1.386 . S
C540 C535 1.490 . S
C540 C542 1.395 . S
C540 C543 1.403 . S
H541 C547 0.930 . S
C542 H528 0.930 . S
C542 C540 1.395 . S
C542 C545 1.403 . S
C543 C540 1.403 . S
C543 C544 1.524 . S
C543 C547 1.400 . S
C544 H529 0.960 . S
C544 H530 0.960 . S
C544 H531 0.960 . S
C544 C543 1.524 . S
C545 C542 1.403 . S
C545 C546 1.392 . S
C545 C549 1.495 . S
C546 C545 1.392 . S
C546 C547 1.385 . S
C546 C548 1.478 . S
C547 H541 0.930 . S
C547 C543 1.400 . S
C547 C546 1.385 . S
C548 C546 1.478 . S
C548 C550 1.381 . S
C548 C554 1.383 . S
C549 C545 1.495 . S
C549 H555 0.959 . S
C549 H556 0.961 . S
C549 H557 0.960 . S
C550 C548 1.381 . S
C550 C551 1.394 . S
C550 H558 0.930 . S
C551 C550 1.394 . S
C551 C552 1.383 . S
C551 H559 0.929 . S
C552 C551 1.383 . S
C552 C553 1.377 . S
C553 H537 0.930 . S
C553 C552 1.377 . S
C553 C554 1.379 . S
C554 H538 0.931 . S
C554 C548 1.383 . S
C554 C553 1.379 . S
H555 C549 0.959 . S
H556 C549 0.961 . S
H557 C549 0.960 . S
H558 C550 0.930 . S
H559 C551 0.929 . S
H560 C568 0.929 . S
H561 C570 0.930 . S
H562 C572 0.930 . S
H563 C575 0.929 . S
H564 C578 0.930 . S
H565 C580 0.960 . S
H566 C580 0.960 . S
H567 C580 0.960 . S
C568 H560 0.929 . S
C568 C569 1.377 . S
C568 C570 1.384 . S
C569 C568 1.377 . S
C569 C575 1.390 . S
C570 H561 0.930 . S
C570 C568 1.384 . S
C570 C571 1.372 . S
C571 C570 1.372 . S
C571 C572 1.400 . S
C571 C576 1.490 . S
C572 H562 0.930 . S
C572 C571 1.400 . S
C572 C575 1.386 . S
H573 C589 0.930 . S
H574 C590 0.931 . S
C575 H563 0.929 . S
C575 C569 1.390 . S
C575 C572 1.386 . S
C576 C571 1.490 . S
C576 C578 1.395 . S
C576 C579 1.403 . S
H577 C583 0.930 . S
C578 H564 0.930 . S
C578 C576 1.395 . S
C578 C581 1.403 . S
C579 C576 1.403 . S
C579 C580 1.524 . S
C579 C583 1.400 . S
C580 H565 0.960 . S
C580 H566 0.960 . S
C580 H567 0.960 . S
C580 C579 1.524 . S
C581 C578 1.403 . S
C581 C582 1.392 . S
C581 C585 1.495 . S
C582 C581 1.392 . S
C582 C583 1.385 . S
C582 C584 1.478 . S
C583 H577 0.930 . S
C583 C579 1.400 . S
C583 C582 1.385 . S
C584 C582 1.478 . S
C584 C586 1.381 . S
C584 C590 1.383 . S
C585 C581 1.495 . S
C585 H591 0.959 . S
C585 H592 0.961 . S
C585 H593 0.960 . S
C586 C584 1.381 . S
C586 C587 1.394 . S
C586 H594 0.930 . S
C587 C586 1.394 . S
C587 C588 1.383 . S
C587 H595 0.929 . S
C588 C587 1.383 . S
C588 C589 1.377 . S
C589 H573 0.930 . S
C589 C588 1.377 . S
C589 C590 1.379 . S
C590 H574 0.931 . S
C590 C584 1.383 . S
C590 C589 1.379 . S
H591 C585 0.959 . S
H592 C585 0.961 . S
H593 C585 0.960 . S
H594 C586 0.930 . S
H595 C587 0.929 . S
H596 C604 0.929 1_545 S
H597 C606 0.930 1_545 S
H598 C608 0.930 . S
H599 C611 0.929 . S
H600 C614 0.930 . S
H601 C616 0.960 . S
H602 C616 0.960 . S
H603 C616 0.960 . S
C604 H596 0.929 1_565 S
C604 C605 1.377 . S
C604 C606 1.384 . S
C605 C604 1.377 . S
C605 C611 1.390 . S
C606 H597 0.930 1_565 S
C606 C604 1.384 . S
C606 C607 1.372 . S
C607 C606 1.372 . S
C607 C608 1.400 . S
C607 C612 1.490 . S
C608 H598 0.930 . S
C608 C607 1.400 . S
C608 C611 1.386 . S
H609 C625 0.930 . S
H610 C626 0.931 . S
C611 H599 0.929 . S
C611 C605 1.390 . S
C611 C608 1.386 . S
C612 C607 1.490 . S
C612 C614 1.395 . S
C612 C615 1.403 . S
H613 C619 0.930 . S
C614 H600 0.930 . S
C614 C612 1.395 . S
C614 C617 1.403 . S
C615 C612 1.403 . S
C615 C616 1.524 . S
C615 C619 1.400 . S
C616 H601 0.960 . S
C616 H602 0.960 . S
C616 H603 0.960 . S
C616 C615 1.524 . S
C617 C614 1.403 . S
C617 C618 1.392 . S
C617 C621 1.495 . S
C618 C617 1.392 . S
C618 C619 1.385 . S
C618 C620 1.478 . S
C619 H613 0.930 . S
C619 C615 1.400 . S
C619 C618 1.385 . S
C620 C618 1.478 . S
C620 C622 1.381 1_565 S
C620 C626 1.383 . S
C621 C617 1.495 . S
C621 H627 0.959 . S
C621 H628 0.961 . S
C621 H629 0.960 1_565 S
C622 C620 1.381 1_545 S
C622 C623 1.394 . S
C622 H630 0.930 . S
C623 C622 1.394 . S
C623 C624 1.383 1_545 S
C623 H631 0.929 . S
C624 C623 1.383 1_565 S
C624 C625 1.377 . S
C625 H609 0.930 . S
C625 C624 1.377 . S
C625 C626 1.379 . S
C626 H610 0.931 . S
C626 C620 1.383 . S
C626 C625 1.379 . S
H627 C621 0.959 . S
H628 C621 0.961 . S
H629 C621 0.960 1_545 S
H630 C622 0.930 . S
H631 C623 0.929 . S
H632 C640 0.929 . S
H633 C642 0.930 . S
H634 C644 0.930 . S
H635 C647 0.929 . S
H636 C650 0.930 . S
H637 C652 0.960 . S
H638 C652 0.960 . S
H639 C652 0.960 . S
C640 H632 0.929 . S
C640 C641 1.377 . S
C640 C642 1.384 . S
C641 C640 1.377 . S
C641 C647 1.390 . S
C642 H633 0.930 . S
C642 C640 1.384 . S
C642 C643 1.372 . S
C643 C642 1.372 . S
C643 C644 1.400 . S
C643 C648 1.490 . S
C644 H634 0.930 . S
C644 C643 1.400 . S
C644 C647 1.386 . S
H645 C661 0.930 . S
H646 C662 0.931 . S
C647 H635 0.929 . S
C647 C641 1.390 . S
C647 C644 1.386 . S
C648 C643 1.490 . S
C648 C650 1.395 . S
C648 C651 1.403 . S
H649 C655 0.930 . S
C650 H636 0.930 . S
C650 C648 1.395 . S
C650 C653 1.403 . S
C651 C648 1.403 . S
C651 C652 1.524 . S
C651 C655 1.400 . S
C652 H637 0.960 . S
C652 H638 0.960 . S
C652 H639 0.960 . S
C652 C651 1.524 . S
C653 C650 1.403 . S
C653 C654 1.392 . S
C653 C657 1.495 . S
C654 C653 1.392 . S
C654 C655 1.385 . S
C654 C656 1.478 . S
C655 H649 0.930 . S
C655 C651 1.400 . S
C655 C654 1.385 . S
C656 C654 1.478 . S
C656 C658 1.381 . S
C656 C662 1.383 . S
C657 C653 1.495 . S
C657 H663 0.959 . S
C657 H664 0.961 . S
C657 H665 0.960 . S
C658 C656 1.381 . S
C658 C659 1.394 . S
C658 H666 0.930 . S
C659 C658 1.394 . S
C659 C660 1.383 . S
C659 H667 0.929 . S
C660 C659 1.383 . S
C660 C661 1.377 . S
C661 H645 0.930 . S
C661 C660 1.377 . S
C661 C662 1.379 . S
C662 H646 0.931 . S
C662 C656 1.383 . S
C662 C661 1.379 . S
H663 C657 0.959 . S
H664 C657 0.961 . S
H665 C657 0.960 . S
H666 C658 0.930 . S
H667 C659 0.929 . S
H668 C676 0.929 . S
H669 C678 0.930 . S
H670 C680 0.930 . S
H671 C683 0.929 . S
H672 C686 0.930 . S
H673 C688 0.960 . S
H674 C688 0.960 . S
H675 C688 0.960 . S
C676 H668 0.929 . S
C676 C677 1.377 . S
C676 C678 1.384 . S
C677 C676 1.377 . S
C677 C683 1.390 . S
C678 H669 0.930 . S
C678 C676 1.384 . S
C678 C679 1.372 . S
C679 C678 1.372 . S
C679 C680 1.400 . S
C679 C684 1.490 . S
C680 H670 0.930 . S
C680 C679 1.400 . S
C680 C683 1.386 . S
H681 C697 0.930 . S
H682 C698 0.931 . S
C683 H671 0.929 . S
C683 C677 1.390 . S
C683 C680 1.386 . S
C684 C679 1.490 . S
C684 C686 1.395 . S
C684 C687 1.403 . S
H685 C691 0.930 . S
C686 H672 0.930 . S
C686 C684 1.395 . S
C686 C689 1.403 . S
C687 C684 1.403 . S
C687 C688 1.524 . S
C687 C691 1.400 . S
C688 H673 0.960 . S
C688 H674 0.960 . S
C688 H675 0.960 . S
C688 C687 1.524 . S
C689 C686 1.403 . S
C689 C690 1.392 . S
C689 C693 1.495 . S
C690 C689 1.392 . S
C690 C691 1.385 . S
C690 C692 1.478 . S
C691 H685 0.930 . S
C691 C687 1.400 . S
C691 C690 1.385 . S
C692 C690 1.478 . S
C692 C694 1.381 . S
C692 C698 1.383 . S
C693 C689 1.495 . S
C693 H699 0.959 . S
C693 H700 0.961 . S
C693 H701 0.960 . S
C694 C692 1.381 . S
C694 C695 1.394 . S
C694 H702 0.930 . S
C695 C694 1.394 . S
C695 C696 1.383 . S
C695 H703 0.929 . S
C696 C695 1.383 . S
C696 C697 1.377 . S
C697 H681 0.930 . S
C697 C696 1.377 . S
C697 C698 1.379 . S
C698 H682 0.931 . S
C698 C692 1.383 . S
C698 C697 1.379 . S
H699 C693 0.959 . S
H700 C693 0.961 . S
H701 C693 0.960 . S
H702 C694 0.930 . S
H703 C695 0.929 . S
H704 C712 0.929 . S
H705 C714 0.930 . S
H706 C716 0.930 . S
H707 C719 0.929 . S
H708 C722 0.930 . S
H709 C724 0.960 . S
H710 C724 0.960 . S
H711 C724 0.960 . S
C712 H704 0.929 . S
C712 C713 1.377 . S
C712 C714 1.384 . S
C713 C712 1.377 . S
C713 C719 1.390 . S
C714 H705 0.930 . S
C714 C712 1.384 . S
C714 C715 1.372 . S
C715 C714 1.372 . S
C715 C716 1.400 . S
C715 C720 1.490 . S
C716 H706 0.930 . S
C716 C715 1.400 . S
C716 C719 1.386 . S
H717 C733 0.930 . S
H718 C734 0.931 . S
C719 H707 0.929 . S
C719 C713 1.390 . S
C719 C716 1.386 . S
C720 C715 1.490 . S
C720 C722 1.395 . S
C720 C723 1.403 . S
H721 C727 0.930 . S
C722 H708 0.930 . S
C722 C720 1.395 . S
C722 C725 1.403 . S
C723 C720 1.403 . S
C723 C724 1.524 . S
C723 C727 1.400 . S
C724 H709 0.960 . S
C724 H710 0.960 . S
C724 H711 0.960 . S
C724 C723 1.524 . S
C725 C722 1.403 . S
C725 C726 1.392 . S
C725 C729 1.495 . S
C726 C725 1.392 . S
C726 C727 1.385 . S
C726 C728 1.478 . S
C727 H721 0.930 . S
C727 C723 1.400 . S
C727 C726 1.385 . S
C728 C726 1.478 . S
C728 C730 1.381 . S
C728 C734 1.383 . S
C729 C725 1.495 . S
C729 H735 0.959 . S
C729 H736 0.961 . S
C729 H737 0.960 . S
C730 C728 1.381 . S
C730 C731 1.394 . S
C730 H738 0.930 . S
C731 C730 1.394 . S
C731 C732 1.383 . S
C731 H739 0.929 . S
C732 C731 1.383 . S
C732 C733 1.377 . S
C733 H717 0.930 . S
C733 C732 1.377 . S
C733 C734 1.379 . S
C734 H718 0.931 . S
C734 C728 1.383 . S
C734 C733 1.379 . S
H735 C729 0.959 . S
H736 C729 0.961 . S
H737 C729 0.960 . S
H738 C730 0.930 . S
H739 C731 0.929 . S
H740 C748 0.929 . S
H741 C750 0.930 . S
H742 C752 0.930 . S
H743 C755 0.929 . S
H744 C758 0.930 . S
H745 C760 0.960 . S
H746 C760 0.960 . S
H747 C760 0.960 . S
C748 H740 0.929 . S
C748 C749 1.377 . S
C748 C750 1.384 . S
C749 C748 1.377 . S
C749 C755 1.390 . S
C750 H741 0.930 . S
C750 C748 1.384 . S
C750 C751 1.372 . S
C751 C750 1.372 . S
C751 C752 1.400 . S
C751 C756 1.490 . S
C752 H742 0.930 . S
C752 C751 1.400 . S
C752 C755 1.386 . S
H753 C769 0.930 . S
H754 C770 0.931 . S
C755 H743 0.929 . S
C755 C749 1.390 . S
C755 C752 1.386 . S
C756 C751 1.490 . S
C756 C758 1.395 . S
C756 C759 1.403 . S
H757 C763 0.930 . S
C758 H744 0.930 . S
C758 C756 1.395 . S
C758 C761 1.403 . S
C759 C756 1.403 . S
C759 C760 1.524 . S
C759 C763 1.400 . S
C760 H745 0.960 . S
C760 H746 0.960 . S
C760 H747 0.960 . S
C760 C759 1.524 . S
C761 C758 1.403 . S
C761 C762 1.392 . S
C761 C765 1.495 . S
C762 C761 1.392 . S
C762 C763 1.385 . S
C762 C764 1.478 . S
C763 H757 0.930 . S
C763 C759 1.400 . S
C763 C762 1.385 . S
C764 C762 1.478 . S
C764 C766 1.381 . S
C764 C770 1.383 . S
C765 C761 1.495 . S
C765 H771 0.959 . S
C765 H772 0.961 . S
C765 H773 0.960 . S
C766 C764 1.381 . S
C766 C767 1.394 . S
C766 H774 0.930 . S
C767 C766 1.394 . S
C767 C768 1.383 . S
C767 H775 0.929 . S
C768 C767 1.383 . S
C768 C769 1.377 . S
C769 H753 0.930 . S
C769 C768 1.377 . S
C769 C770 1.379 . S
C770 H754 0.931 . S
C770 C764 1.383 . S
C770 C769 1.379 . S
H771 C765 0.959 . S
H772 C765 0.961 . S
H773 C765 0.960 . S
H774 C766 0.930 . S
H775 C767 0.929 . S
H776 C784 0.929 . S
H777 C786 0.930 . S
H778 C788 0.930 . S
H779 C791 0.929 . S
H780 C794 0.930 . S
H781 C796 0.960 . S
H782 C796 0.960 . S
H783 C796 0.960 . S
C784 H776 0.929 . S
C784 C785 1.377 . S
C784 C786 1.384 . S
C785 C784 1.377 . S
C785 C791 1.390 . S
C786 H777 0.930 . S
C786 C784 1.384 . S
C786 C787 1.372 . S
C787 C786 1.372 . S
C787 C788 1.400 . S
C787 C792 1.490 . S
C788 H778 0.930 . S
C788 C787 1.400 . S
C788 C791 1.386 . S
H789 C805 0.930 . S
H790 C806 0.931 . S
C791 H779 0.929 . S
C791 C785 1.390 . S
C791 C788 1.386 . S
C792 C787 1.490 . S
C792 C794 1.395 . S
C792 C795 1.403 . S
H793 C799 0.930 . S
C794 H780 0.930 . S
C794 C792 1.395 . S
C794 C797 1.403 . S
C795 C792 1.403 . S
C795 C796 1.524 . S
C795 C799 1.400 . S
C796 H781 0.960 . S
C796 H782 0.960 . S
C796 H783 0.960 . S
C796 C795 1.524 . S
C797 C794 1.403 . S
C797 C798 1.392 . S
C797 C801 1.495 . S
C798 C797 1.392 . S
C798 C799 1.385 . S
C798 C800 1.478 . S
C799 H793 0.930 . S
C799 C795 1.400 . S
C799 C798 1.385 . S
C800 C798 1.478 . S
C800 C802 1.381 . S
C800 C806 1.383 . S
C801 C797 1.495 . S
C801 H807 0.959 . S
C801 H808 0.961 . S
C801 H809 0.960 . S
C802 C800 1.381 . S
C802 C803 1.394 . S
C802 H810 0.930 . S
C803 C802 1.394 . S
C803 C804 1.383 . S
C803 H811 0.929 . S
C804 C803 1.383 . S
C804 C805 1.377 . S
C805 H789 0.930 . S
C805 C804 1.377 . S
C805 C806 1.379 . S
C806 H790 0.931 . S
C806 C800 1.383 . S
C806 C805 1.379 . S
H807 C801 0.959 . S
H808 C801 0.961 . S
H809 C801 0.960 . S
H810 C802 0.930 . S
H811 C803 0.929 . S
H812 C820 0.929 . S
H813 C822 0.930 . S
H814 C824 0.930 . S
H815 C827 0.929 . S
H816 C830 0.930 . S
H817 C832 0.960 . S
H818 C832 0.960 . S
H819 C832 0.960 . S
C820 H812 0.929 . S
C820 C821 1.377 . S
C820 C822 1.384 . S
C821 C820 1.377 . S
C821 C827 1.390 . S
C822 H813 0.930 . S
C822 C820 1.384 . S
C822 C823 1.372 . S
C823 C822 1.372 . S
C823 C824 1.400 . S
C823 C828 1.490 . S
C824 H814 0.930 . S
C824 C823 1.400 . S
C824 C827 1.386 . S
H825 C841 0.930 1_655 S
H826 C842 0.931 . S
C827 H815 0.929 . S
C827 C821 1.390 . S
C827 C824 1.386 . S
C828 C823 1.490 . S
C828 C830 1.395 . S
C828 C831 1.403 . S
H829 C835 0.930 . S
C830 H816 0.930 . S
C830 C828 1.395 . S
C830 C833 1.403 . S
C831 C828 1.403 . S
C831 C832 1.524 . S
C831 C835 1.400 . S
C832 H817 0.960 . S
C832 H818 0.960 . S
C832 H819 0.960 . S
C832 C831 1.524 . S
C833 C830 1.403 . S
C833 C834 1.392 . S
C833 C837 1.495 . S
C834 C833 1.392 . S
C834 C835 1.385 . S
C834 C836 1.478 . S
C835 H829 0.930 . S
C835 C831 1.400 . S
C835 C834 1.385 . S
C836 C834 1.478 . S
C836 C838 1.381 . S
C836 C842 1.383 . S
C837 C833 1.495 . S
C837 H843 0.959 . S
C837 H844 0.961 . S
C837 H845 0.960 . S
C838 C836 1.381 . S
C838 C839 1.394 . S
C838 H846 0.930 . S
C839 C838 1.394 . S
C839 C840 1.383 . S
C839 H847 0.929 . S
C840 C839 1.383 . S
C840 C841 1.377 . S
C841 H825 0.930 1_455 S
C841 C840 1.377 . S
C841 C842 1.379 . S
C842 H826 0.931 . S
C842 C836 1.383 . S
C842 C841 1.379 . S
H843 C837 0.959 . S
H844 C837 0.961 . S
H845 C837 0.960 . S
H846 C838 0.930 . S
H847 C839 0.929 . S
H848 C856 0.929 . S
H849 C858 0.930 . S
H850 C860 0.930 . S
H851 C863 0.929 . S
H852 C866 0.930 . S
H853 C868 0.960 . S
H854 C868 0.960 . S
H855 C868 0.960 . S
C856 H848 0.929 . S
C856 C857 1.377 . S
C856 C858 1.384 . S
C857 C856 1.377 . S
C857 C863 1.390 . S
C858 H849 0.930 . S
C858 C856 1.384 . S
C858 C859 1.372 . S
C859 C858 1.372 . S
C859 C860 1.400 . S
C859 C864 1.490 . S
C860 H850 0.930 . S
C860 C859 1.400 . S
C860 C863 1.386 . S
H861 C877 0.930 . S
H862 C878 0.931 . S
C863 H851 0.929 . S
C863 C857 1.390 . S
C863 C860 1.386 . S
C864 C859 1.490 . S
C864 C866 1.395 . S
C864 C867 1.403 . S
H865 C871 0.930 . S
C866 H852 0.930 . S
C866 C864 1.395 . S
C866 C869 1.403 . S
C867 C864 1.403 . S
C867 C868 1.524 . S
C867 C871 1.400 . S
C868 H853 0.960 . S
C868 H854 0.960 . S
C868 H855 0.960 . S
C868 C867 1.524 . S
C869 C866 1.403 . S
C869 C870 1.392 . S
C869 C873 1.495 . S
C870 C869 1.392 . S
C870 C871 1.385 . S
C870 C872 1.478 . S
C871 H865 0.930 . S
C871 C867 1.400 . S
C871 C870 1.385 . S
C872 C870 1.478 . S
C872 C874 1.381 . S
C872 C878 1.383 . S
C873 C869 1.495 . S
C873 H879 0.959 . S
C873 H880 0.961 . S
C873 H881 0.960 . S
C874 C872 1.381 . S
C874 C875 1.394 . S
C874 H882 0.930 . S
C875 C874 1.394 . S
C875 C876 1.383 . S
C875 H883 0.929 . S
C876 C875 1.383 . S
C876 C877 1.377 . S
C877 H861 0.930 . S
C877 C876 1.377 . S
C877 C878 1.379 . S
C878 H862 0.931 . S
C878 C872 1.383 . S
C878 C877 1.379 . S
H879 C873 0.959 . S
H880 C873 0.961 . S
H881 C873 0.960 . S
H882 C874 0.930 . S
H883 C875 0.929 . S
H884 C892 0.929 . S
H885 C894 0.930 . S
H886 C896 0.930 . S
H887 C899 0.929 . S
H888 C902 0.930 . S
H889 C904 0.960 1_455 S
H890 C904 0.960 . S
H891 C904 0.960 1_455 S
C892 H884 0.929 . S
C892 C893 1.377 . S
C892 C894 1.384 . S
C893 C892 1.377 . S
C893 C899 1.390 1_655 S
C894 H885 0.930 . S
C894 C892 1.384 . S
C894 C895 1.372 . S
C895 C894 1.372 . S
C895 C896 1.400 1_655 S
C895 C900 1.490 . S
C896 H886 0.930 . S
C896 C895 1.400 1_455 S
C896 C899 1.386 . S
H897 C913 0.930 . S
H898 C914 0.931 . S
C899 H887 0.929 . S
C899 C893 1.390 1_455 S
C899 C896 1.386 . S
C900 C895 1.490 . S
C900 C902 1.395 . S
C900 C903 1.403 . S
H901 C907 0.930 1_455 S
C902 H888 0.930 . S
C902 C900 1.395 . S
C902 C905 1.403 . S
C903 C900 1.403 . S
C903 C904 1.524 . S
C903 C907 1.400 . S
C904 H889 0.960 1_655 S
C904 H890 0.960 . S
C904 H891 0.960 1_655 S
C904 C903 1.524 . S
C905 C902 1.403 . S
C905 C906 1.392 . S
C905 C909 1.495 . S
C906 C905 1.392 . S
C906 C907 1.385 . S
C906 C908 1.478 . S
C907 H901 0.930 1_655 S
C907 C903 1.400 . S
C907 C906 1.385 . S
C908 C906 1.478 . S
C908 C910 1.381 . S
C908 C914 1.383 1_655 S
C909 C905 1.495 . S
C909 H915 0.959 . S
C909 H916 0.961 . S
C909 H917 0.960 . S
C910 C908 1.381 . S
C910 C911 1.394 . S
C910 H918 0.930 . S
C911 C910 1.394 . S
C911 C912 1.383 1_655 S
C911 H919 0.929 . S
C912 C911 1.383 1_455 S
C912 C913 1.377 . S
C913 H897 0.930 . S
C913 C912 1.377 . S
C913 C914 1.379 . S
C914 H898 0.931 . S
C914 C908 1.383 1_455 S
C914 C913 1.379 . S
H915 C909 0.959 . S
H916 C909 0.961 . S
H917 C909 0.960 . S
H918 C910 0.930 . S
H919 C911 0.929 . S
H920 C928 0.929 . S
H921 C930 0.930 . S
H922 C932 0.930 . S
H923 C935 0.929 . S
H924 C938 0.930 . S
H925 C940 0.960 . S
H926 C940 0.960 . S
H927 C940 0.960 . S
C928 H920 0.929 . S
C928 C929 1.377 . S
C928 C930 1.384 . S
C929 C928 1.377 . S
C929 C935 1.390 . S
C930 H921 0.930 . S
C930 C928 1.384 . S
C930 C931 1.372 . S
C931 C930 1.372 . S
C931 C932 1.400 . S
C931 C936 1.490 . S
C932 H922 0.930 . S
C932 C931 1.400 . S
C932 C935 1.386 . S
H933 C949 0.930 . S
H934 C950 0.931 . S
C935 H923 0.929 . S
C935 C929 1.390 . S
C935 C932 1.386 . S
C936 C931 1.490 . S
C936 C938 1.395 . S
C936 C939 1.403 . S
H937 C943 0.930 . S
C938 H924 0.930 . S
C938 C936 1.395 . S
C938 C941 1.403 . S
C939 C936 1.403 . S
C939 C940 1.524 . S
C939 C943 1.400 . S
C940 H925 0.960 . S
C940 H926 0.960 . S
C940 H927 0.960 . S
C940 C939 1.524 . S
C941 C938 1.403 . S
C941 C942 1.392 . S
C941 C945 1.495 . S
C942 C941 1.392 . S
C942 C943 1.385 . S
C942 C944 1.478 . S
C943 H937 0.930 . S
C943 C939 1.400 . S
C943 C942 1.385 . S
C944 C942 1.478 . S
C944 C946 1.381 . S
C944 C950 1.383 . S
C945 C941 1.495 . S
C945 H951 0.959 . S
C945 H952 0.961 . S
C945 H953 0.960 . S
C946 C944 1.381 . S
C946 C947 1.394 . S
C946 H954 0.930 . S
C947 C946 1.394 . S
C947 C948 1.383 . S
C947 H955 0.929 . S
C948 C947 1.383 . S
C948 C949 1.377 . S
C949 H933 0.930 . S
C949 C948 1.377 . S
C949 C950 1.379 . S
C950 H934 0.931 . S
C950 C944 1.383 . S
C950 C949 1.379 . S
H951 C945 0.959 . S
H952 C945 0.961 . S
H953 C945 0.960 . S
H954 C946 0.930 . S
H955 C947 0.929 . S
H956 C964 0.929 . S
H957 C966 0.930 . S
H958 C968 0.930 . S
H959 C971 0.929 . S
H960 C974 0.930 . S
H961 C976 0.960 . S
H962 C976 0.960 . S
H963 C976 0.960 . S
C964 H956 0.929 . S
C964 C965 1.377 . S
C964 C966 1.384 . S
C965 C964 1.377 . S
C965 C971 1.390 . S
C966 H957 0.930 . S
C966 C964 1.384 . S
C966 C967 1.372 . S
C967 C966 1.372 . S
C967 C968 1.400 . S
C967 C972 1.490 . S
C968 H958 0.930 . S
C968 C967 1.400 . S
C968 C971 1.386 . S
H969 C985 0.930 . S
H970 C986 0.931 . S
C971 H959 0.929 . S
C971 C965 1.390 . S
C971 C968 1.386 . S
C972 C967 1.490 . S
C972 C974 1.395 . S
C972 C975 1.403 . S
H973 C979 0.930 . S
C974 H960 0.930 . S
C974 C972 1.395 . S
C974 C977 1.403 . S
C975 C972 1.403 . S
C975 C976 1.524 . S
C975 C979 1.400 . S
C976 H961 0.960 . S
C976 H962 0.960 . S
C976 H963 0.960 . S
C976 C975 1.524 . S
C977 C974 1.403 . S
C977 C978 1.392 . S
C977 C981 1.495 . S
C978 C977 1.392 . S
C978 C979 1.385 . S
C978 C980 1.478 . S
C979 H973 0.930 . S
C979 C975 1.400 . S
C979 C978 1.385 . S
C980 C978 1.478 . S
C980 C982 1.381 . S
C980 C986 1.383 . S
C981 C977 1.495 . S
C981 H987 0.959 . S
C981 H988 0.961 . S
C981 H989 0.960 . S
C982 C980 1.381 . S
C982 C983 1.394 . S
C982 H990 0.930 . S
C983 C982 1.394 . S
C983 C984 1.383 . S
C983 H991 0.929 . S
C984 C983 1.383 . S
C984 C985 1.377 . S
C985 H969 0.930 . S
C985 C984 1.377 . S
C985 C986 1.379 . S
C986 H970 0.931 . S
C986 C980 1.383 . S
C986 C985 1.379 . S
H987 C981 0.959 . S
H988 C981 0.961 . S
H989 C981 0.960 . S
H990 C982 0.930 . S
H991 C983 0.929 . S
H992 C1000 0.929 . S
H993 C1002 0.930 . S
H994 C1004 0.930 . S
H995 C1007 0.929 1_545 S
H996 C1010 0.930 . S
H997 C1012 0.960 . S
H998 C1012 0.960 . S
H999 C1012 0.960 . S
C1000 H992 0.929 . S
C1000 C1001 1.370 1_554 S
C1000 C1002 1.391 . S
C1001 C1000 1.370 1_556 S
C1001 C1007 1.390 . S
C1002 H993 0.930 . S
C1002 C1000 1.391 . S
C1002 C1003 1.372 1_554 S
C1003 C1002 1.372 1_556 S
C1003 C1004 1.400 . S
C1003 C1008 1.482 1_556 S
C1004 H994 0.930 . S
C1004 C1003 1.400 . S
C1004 C1007 1.386 . S
H1005 C1021 0.930 . S
H1006 C1022 0.931 . S
C1007 H995 0.929 1_565 S
C1007 C1001 1.390 . S
C1007 C1004 1.386 . S
C1008 C1003 1.482 1_554 S
C1008 C1010 1.441 . S
C1008 C1011 1.367 1_554 S
H1009 C1015 0.930 . S
C1010 H996 0.930 . S
C1010 C1008 1.441 . S
C1010 C1013 1.403 . S
C1011 C1008 1.367 1_556 S
C1011 C1012 1.524 . S
C1011 C1015 1.400 . S
C1012 H997 0.960 . S
C1012 H998 0.960 . S
C1012 H999 0.960 . S
C1012 C1011 1.524 . S
C1013 C1010 1.403 . S
C1013 C1014 1.392 . S
C1013 C1017 1.495 . S
C1014 C1013 1.392 . S
C1014 C1015 1.385 1_554 S
C1014 C1016 1.478 . S
C1015 H1009 0.930 . S
C1015 C1011 1.400 . S
C1015 C1014 1.385 1_556 S
C1016 C1014 1.478 . S
C1016 C1018 1.381 . S
C1016 C1022 1.383 . S
C1017 C1013 1.495 . S
C1017 H1023 0.959 . S
C1017 H1024 0.961 . S
C1017 H1025 0.960 . S
C1018 C1016 1.381 . S
C1018 C1019 1.394 . S
C1018 H1026 0.930 . S
C1019 C1018 1.394 . S
C1019 C1020 1.383 . S
C1019 H1027 0.929 . S
C1020 C1019 1.383 . S
C1020 C1021 1.377 . S
C1021 H1005 0.930 . S
C1021 C1020 1.377 . S
C1021 C1022 1.379 . S
C1022 H1006 0.931 . S
C1022 C1016 1.383 . S
C1022 C1021 1.379 . S
H1023 C1017 0.959 . S
H1024 C1017 0.961 . S
H1025 C1017 0.960 . S
H1026 C1018 0.930 . S
H1027 C1019 0.929 . S
H1028 C1036 0.929 . S
H1029 C1038 0.930 . S
H1030 C1040 0.930 . S
H1031 C1043 0.929 . S
H1032 C1046 0.930 . S
H1033 C1048 0.960 . S
H1034 C1048 0.960 . S
H1035 C1048 0.960 . S
C1036 H1028 0.929 . S
C1036 C1037 1.377 . S
C1036 C1038 1.384 . S
C1037 C1036 1.377 . S
C1037 C1043 1.390 . S
C1038 H1029 0.930 . S
C1038 C1036 1.384 . S
C1038 C1039 1.372 . S
C1039 C1038 1.372 . S
C1039 C1040 1.400 . S
C1039 C1044 1.490 . S
C1040 H1030 0.930 . S
C1040 C1039 1.400 . S
C1040 C1043 1.386 . S
H1041 C1057 0.930 . S
H1042 C1058 0.931 . S
C1043 H1031 0.929 . S
C1043 C1037 1.390 . S
C1043 C1040 1.386 . S
C1044 C1039 1.490 . S
C1044 C1046 1.395 . S
C1044 C1047 1.403 . S
H1045 C1051 0.930 . S
C1046 H1032 0.930 . S
C1046 C1044 1.395 . S
C1046 C1049 1.403 . S
C1047 C1044 1.403 . S
C1047 C1048 1.524 . S
C1047 C1051 1.400 . S
C1048 H1033 0.960 . S
C1048 H1034 0.960 . S
C1048 H1035 0.960 . S
C1048 C1047 1.524 . S
C1049 C1046 1.403 . S
C1049 C1050 1.392 . S
C1049 C1053 1.495 . S
C1050 C1049 1.392 . S
C1050 C1051 1.385 . S
C1050 C1052 1.478 . S
C1051 H1045 0.930 . S
C1051 C1047 1.400 . S
C1051 C1050 1.385 . S
C1052 C1050 1.478 . S
C1052 C1054 1.381 . S
C1052 C1058 1.383 . S
C1053 C1049 1.495 . S
C1053 H1059 0.959 . S
C1053 H1060 0.961 . S
C1053 H1061 0.960 . S
C1054 C1052 1.381 . S
C1054 C1055 1.394 . S
C1054 H1062 0.930 . S
C1055 C1054 1.394 . S
C1055 C1056 1.383 . S
C1055 H1063 0.929 . S
C1056 C1055 1.383 . S
C1056 C1057 1.377 . S
C1057 H1041 0.930 . S
C1057 C1056 1.377 . S
C1057 C1058 1.379 . S
C1058 H1042 0.931 . S
C1058 C1052 1.383 . S
C1058 C1057 1.379 . S
H1059 C1053 0.959 . S
H1060 C1053 0.961 . S
H1061 C1053 0.960 . S
H1062 C1054 0.930 . S
H1063 C1055 0.929 . S
H1064 C1072 0.929 . S
H1065 C1074 0.930 . S
H1066 C1076 0.930 . S
H1067 C1079 0.929 . S
H1068 C1082 0.930 . S
H1069 C1084 0.960 . S
H1070 C1084 0.960 . S
H1071 C1084 0.960 . S
C1072 H1064 0.929 . S
C1072 C1073 1.377 . S
C1072 C1074 1.384 . S
C1073 C1072 1.377 . S
C1073 C1079 1.390 . S
C1074 H1065 0.930 . S
C1074 C1072 1.384 . S
C1074 C1075 1.372 . S
C1075 C1074 1.372 . S
C1075 C1076 1.400 . S
C1075 C1080 1.490 . S
C1076 H1066 0.930 . S
C1076 C1075 1.400 . S
C1076 C1079 1.386 . S
H1077 C1093 0.930 . S
H1078 C1094 0.931 . S
C1079 H1067 0.929 . S
C1079 C1073 1.390 . S
C1079 C1076 1.386 . S
C1080 C1075 1.490 . S
C1080 C1082 1.395 . S
C1080 C1083 1.403 . S
H1081 C1087 0.930 . S
C1082 H1068 0.930 . S
C1082 C1080 1.395 . S
C1082 C1085 1.403 . S
C1083 C1080 1.403 . S
C1083 C1084 1.524 . S
C1083 C1087 1.400 . S
C1084 H1069 0.960 . S
C1084 H1070 0.960 . S
C1084 H1071 0.960 . S
C1084 C1083 1.524 . S
C1085 C1082 1.403 . S
C1085 C1086 1.392 . S
C1085 C1089 1.495 . S
C1086 C1085 1.392 . S
C1086 C1087 1.385 . S
C1086 C1088 1.478 . S
C1087 H1081 0.930 . S
C1087 C1083 1.400 . S
C1087 C1086 1.385 . S
C1088 C1086 1.478 . S
C1088 C1090 1.381 . S
C1088 C1094 1.383 . S
C1089 C1085 1.495 . S
C1089 H1095 0.959 . S
C1089 H1096 0.961 . S
C1089 H1097 0.960 . S
C1090 C1088 1.381 . S
C1090 C1091 1.394 . S
C1090 H1098 0.930 . S
C1091 C1090 1.394 . S
C1091 C1092 1.383 . S
C1091 H1099 0.929 . S
C1092 C1091 1.383 . S
C1092 C1093 1.377 . S
C1093 H1077 0.930 . S
C1093 C1092 1.377 . S
C1093 C1094 1.379 . S
C1094 H1078 0.931 . S
C1094 C1088 1.383 . S
C1094 C1093 1.379 . S
H1095 C1089 0.959 . S
H1096 C1089 0.961 . S
H1097 C1089 0.960 . S
H1098 C1090 0.930 . S
H1099 C1091 0.929 . S
H1100 C1108 0.929 . S
H1101 C1110 0.930 . S
H1102 C1112 0.930 . S
H1103 C1115 0.929 . S
H1104 C1118 0.930 . S
H1105 C1120 0.960 . S
H1106 C1120 0.960 . S
H1107 C1120 0.960 . S
C1108 H1100 0.929 . S
C1108 C1109 1.377 . S
C1108 C1110 1.384 . S
C1109 C1108 1.377 . S
C1109 C1115 1.390 . S
C1110 H1101 0.930 . S
C1110 C1108 1.384 . S
C1110 C1111 1.372 . S
C1111 C1110 1.372 . S
C1111 C1112 1.400 . S
C1111 C1116 1.490 . S
C1112 H1102 0.930 . S
C1112 C1111 1.400 . S
C1112 C1115 1.386 . S
H1113 C1129 0.930 . S
H1114 C1130 0.931 . S
C1115 H1103 0.929 . S
C1115 C1109 1.390 . S
C1115 C1112 1.386 . S
C1116 C1111 1.490 . S
C1116 C1118 1.395 . S
C1116 C1119 1.403 . S
H1117 C1123 0.930 . S
C1118 H1104 0.930 . S
C1118 C1116 1.395 . S
C1118 C1121 1.403 . S
C1119 C1116 1.403 . S
C1119 C1120 1.524 . S
C1119 C1123 1.400 . S
C1120 H1105 0.960 . S
C1120 H1106 0.960 . S
C1120 H1107 0.960 . S
C1120 C1119 1.524 . S
C1121 C1118 1.403 . S
C1121 C1122 1.392 . S
C1121 C1125 1.495 . S
C1122 C1121 1.392 . S
C1122 C1123 1.385 . S
C1122 C1124 1.478 . S
C1123 H1117 0.930 . S
C1123 C1119 1.400 . S
C1123 C1122 1.385 . S
C1124 C1122 1.478 . S
C1124 C1126 1.381 . S
C1124 C1130 1.383 . S
C1125 C1121 1.495 . S
C1125 H1131 0.959 . S
C1125 H1132 0.961 . S
C1125 H1133 0.960 . S
C1126 C1124 1.381 . S
C1126 C1127 1.394 . S
C1126 H1134 0.930 . S
C1127 C1126 1.394 . S
C1127 C1128 1.383 . S
C1127 H1135 0.929 . S
C1128 C1127 1.383 . S
C1128 C1129 1.377 . S
C1129 H1113 0.930 . S
C1129 C1128 1.377 . S
C1129 C1130 1.379 . S
C1130 H1114 0.931 . S
C1130 C1124 1.383 . S
C1130 C1129 1.379 . S
H1131 C1125 0.959 . S
H1132 C1125 0.961 . S
H1133 C1125 0.960 . S
H1134 C1126 0.930 . S
H1135 C1127 0.929 . S
H1136 C1144 0.929 . S
H1137 C1146 0.930 . S
H1138 C1148 0.930 . S
H1139 C1151 0.929 . S
H1140 C1154 0.930 . S
H1141 C1156 0.960 . S
H1142 C1156 0.960 . S
H1143 C1156 0.960 . S
C1144 H1136 0.929 . S
C1144 C1145 1.377 . S
C1144 C1146 1.384 . S
C1145 C1144 1.377 . S
C1145 C1151 1.390 . S
C1146 H1137 0.930 . S
C1146 C1144 1.384 . S
C1146 C1147 1.372 . S
C1147 C1146 1.372 . S
C1147 C1148 1.400 . S
C1147 C1152 1.490 . S
C1148 H1138 0.930 . S
C1148 C1147 1.400 . S
C1148 C1151 1.386 . S
H1149 C1165 0.930 . S
H1150 C1166 0.931 . S
C1151 H1139 0.929 . S
C1151 C1145 1.390 . S
C1151 C1148 1.386 . S
C1152 C1147 1.490 . S
C1152 C1154 1.395 . S
C1152 C1155 1.403 . S
H1153 C1159 0.930 . S
C1154 H1140 0.930 . S
C1154 C1152 1.395 . S
C1154 C1157 1.403 . S
C1155 C1152 1.403 . S
C1155 C1156 1.524 . S
C1155 C1159 1.400 . S
C1156 H1141 0.960 . S
C1156 H1142 0.960 . S
C1156 H1143 0.960 . S
C1156 C1155 1.524 . S
C1157 C1154 1.403 . S
C1157 C1158 1.392 . S
C1157 C1161 1.495 . S
C1158 C1157 1.392 . S
C1158 C1159 1.385 . S
C1158 C1160 1.478 . S
C1159 H1153 0.930 . S
C1159 C1155 1.400 . S
C1159 C1158 1.385 . S
C1160 C1158 1.478 . S
C1160 C1162 1.381 . S
C1160 C1166 1.383 . S
C1161 C1157 1.495 . S
C1161 H1167 0.959 . S
C1161 H1168 0.961 . S
C1161 H1169 0.960 . S
C1162 C1160 1.381 . S
C1162 C1163 1.394 . S
C1162 H1170 0.930 . S
C1163 C1162 1.394 . S
C1163 C1164 1.383 . S
C1163 H1171 0.929 . S
C1164 C1163 1.383 . S
C1164 C1165 1.377 . S
C1165 H1149 0.930 . S
C1165 C1164 1.377 . S
C1165 C1166 1.379 . S
C1166 H1150 0.931 . S
C1166 C1160 1.383 . S
C1166 C1165 1.379 . S
H1167 C1161 0.959 . S
H1168 C1161 0.961 . S
H1169 C1161 0.960 . S
H1170 C1162 0.930 . S
H1171 C1163 0.929 . S
H1172 C1180 0.929 . S
H1173 C1182 0.930 . S
H1174 C1184 0.930 . S
H1175 C1187 0.929 . S
H1176 C1190 0.930 . S
H1177 C1192 0.960 . S
H1178 C1192 0.960 . S
H1179 C1192 0.960 . S
C1180 H1172 0.929 . S
C1180 C1181 1.377 . S
C1180 C1182 1.384 . S
C1181 C1180 1.377 . S
C1181 C1187 1.390 . S
C1182 H1173 0.930 . S
C1182 C1180 1.384 . S
C1182 C1183 1.372 . S
C1183 C1182 1.372 . S
C1183 C1184 1.400 . S
C1183 C1188 1.490 . S
C1184 H1174 0.930 . S
C1184 C1183 1.400 . S
C1184 C1187 1.386 . S
H1185 C1201 0.930 . S
H1186 C1202 0.931 . S
C1187 H1175 0.929 . S
C1187 C1181 1.390 . S
C1187 C1184 1.386 . S
C1188 C1183 1.490 . S
C1188 C1190 1.395 . S
C1188 C1191 1.403 . S
H1189 C1195 0.930 . S
C1190 H1176 0.930 . S
C1190 C1188 1.395 . S
C1190 C1193 1.403 . S
C1191 C1188 1.403 . S
C1191 C1192 1.524 . S
C1191 C1195 1.400 . S
C1192 H1177 0.960 . S
C1192 H1178 0.960 . S
C1192 H1179 0.960 . S
C1192 C1191 1.524 . S
C1193 C1190 1.403 . S
C1193 C1194 1.392 . S
C1193 C1197 1.495 . S
C1194 C1193 1.392 . S
C1194 C1195 1.385 . S
C1194 C1196 1.478 . S
C1195 H1189 0.930 . S
C1195 C1191 1.400 . S
C1195 C1194 1.385 . S
C1196 C1194 1.478 . S
C1196 C1198 1.381 . S
C1196 C1202 1.383 . S
C1197 C1193 1.495 . S
C1197 H1203 0.959 . S
C1197 H1204 0.961 . S
C1197 H1205 0.960 . S
C1198 C1196 1.381 . S
C1198 C1199 1.394 . S
C1198 H1206 0.930 . S
C1199 C1198 1.394 . S
C1199 C1200 1.383 . S
C1199 H1207 0.929 . S
C1200 C1199 1.383 . S
C1200 C1201 1.377 . S
C1201 H1185 0.930 . S
C1201 C1200 1.377 . S
C1201 C1202 1.379 . S
C1202 H1186 0.931 . S
C1202 C1196 1.383 . S
C1202 C1201 1.379 . S
H1203 C1197 0.959 . S
H1204 C1197 0.961 . S
H1205 C1197 0.960 . S
H1206 C1198 0.930 . S
H1207 C1199 0.929 . S
H1208 C1216 0.929 . S
H1209 C1218 0.930 . S
H1210 C1220 0.930 . S
H1211 C1223 0.929 . S
H1212 C1226 0.930 . S
H1213 C1228 0.960 . S
H1214 C1228 0.960 . S
H1215 C1228 0.960 . S
C1216 H1208 0.929 . S
C1216 C1217 1.377 . S
C1216 C1218 1.384 . S
C1217 C1216 1.377 . S
C1217 C1223 1.390 . S
C1218 H1209 0.930 . S
C1218 C1216 1.384 . S
C1218 C1219 1.372 . S
C1219 C1218 1.372 . S
C1219 C1220 1.400 . S
C1219 C1224 1.490 . S
C1220 H1210 0.930 . S
C1220 C1219 1.400 . S
C1220 C1223 1.386 . S
H1221 C1237 0.930 . S
H1222 C1238 0.931 . S
C1223 H1211 0.929 . S
C1223 C1217 1.390 . S
C1223 C1220 1.386 . S
C1224 C1219 1.490 . S
C1224 C1226 1.395 . S
C1224 C1227 1.403 . S
H1225 C1231 0.930 . S
C1226 H1212 0.930 . S
C1226 C1224 1.395 . S
C1226 C1229 1.403 . S
C1227 C1224 1.403 . S
C1227 C1228 1.524 . S
C1227 C1231 1.400 . S
C1228 H1213 0.960 . S
C1228 H1214 0.960 . S
C1228 H1215 0.960 . S
C1228 C1227 1.524 . S
C1229 C1226 1.403 . S
C1229 C1230 1.392 . S
C1229 C1233 1.495 . S
C1230 C1229 1.392 . S
C1230 C1231 1.385 . S
C1230 C1232 1.478 . S
C1231 H1225 0.930 . S
C1231 C1227 1.400 . S
C1231 C1230 1.385 . S
C1232 C1230 1.478 . S
C1232 C1234 1.381 . S
C1232 C1238 1.383 . S
C1233 C1229 1.495 . S
C1233 H1239 0.959 . S
C1233 H1240 0.961 . S
C1233 H1241 0.960 . S
C1234 C1232 1.381 . S
C1234 C1235 1.394 . S
C1234 H1242 0.930 . S
C1235 C1234 1.394 . S
C1235 C1236 1.383 . S
C1235 H1243 0.929 . S
C1236 C1235 1.383 . S
C1236 C1237 1.377 . S
C1237 H1221 0.930 . S
C1237 C1236 1.377 . S
C1237 C1238 1.379 . S
C1238 H1222 0.931 . S
C1238 C1232 1.383 . S
C1238 C1237 1.379 . S
H1239 C1233 0.959 . S
H1240 C1233 0.961 . S
H1241 C1233 0.960 . S
H1242 C1234 0.930 . S
H1243 C1235 0.929 . S
H1244 C1252 0.929 . S
H1245 C1254 0.930 1_565 S
H1246 C1256 0.930 . S
H1247 C1259 0.929 . S
H1248 C1262 0.930 . S
H1249 C1264 0.960 . S
H1250 C1264 0.960 . S
H1251 C1264 0.960 . S
C1252 H1244 0.929 . S
C1252 C1253 1.377 . S
C1252 C1254 1.384 . S
C1253 C1252 1.377 . S
C1253 C1259 1.390 . S
C1254 H1245 0.930 1_545 S
C1254 C1252 1.384 . S
C1254 C1255 1.372 . S
C1255 C1254 1.372 . S
C1255 C1256 1.400 . S
C1255 C1260 1.490 . S
C1256 H1246 0.930 . S
C1256 C1255 1.400 . S
C1256 C1259 1.386 . S
H1257 C1273 0.930 . S
H1258 C1274 0.931 . S
C1259 H1247 0.929 . S
C1259 C1253 1.390 . S
C1259 C1256 1.386 . S
C1260 C1255 1.490 . S
C1260 C1262 1.395 . S
C1260 C1263 1.403 . S
H1261 C1267 0.930 . S
C1262 H1248 0.930 . S
C1262 C1260 1.395 . S
C1262 C1265 1.403 . S
C1263 C1260 1.403 . S
C1263 C1264 1.524 . S
C1263 C1267 1.400 . S
C1264 H1249 0.960 . S
C1264 H1250 0.960 . S
C1264 H1251 0.960 . S
C1264 C1263 1.524 . S
C1265 C1262 1.403 . S
C1265 C1266 1.392 . S
C1265 C1269 1.495 1_545 S
C1266 C1265 1.392 . S
C1266 C1267 1.385 . S
C1266 C1268 1.478 . S
C1267 H1261 0.930 . S
C1267 C1263 1.400 . S
C1267 C1266 1.385 . S
C1268 C1266 1.478 . S
C1268 C1270 1.381 1_545 S
C1268 C1274 1.383 . S
C1269 C1265 1.495 1_565 S
C1269 H1275 0.959 . S
C1269 H1276 0.961 1_565 S
C1269 H1277 0.960 . S
C1270 C1268 1.381 1_565 S
C1270 C1271 1.394 . S
C1270 H1278 0.930 . S
C1271 C1270 1.394 . S
C1271 C1272 1.383 1_565 S
C1271 H1279 0.929 . S
C1272 C1271 1.383 1_545 S
C1272 C1273 1.377 . S
C1273 H1257 0.930 . S
C1273 C1272 1.377 . S
C1273 C1274 1.379 . S
C1274 H1258 0.931 . S
C1274 C1268 1.383 . S
C1274 C1273 1.379 . S
H1275 C1269 0.959 . S
H1276 C1269 0.961 1_545 S
H1277 C1269 0.960 . S
H1278 C1270 0.930 . S
H1279 C1271 0.929 . S
H1280 C1288 0.929 . S
H1281 C1290 0.930 . S
H1282 C1292 0.930 . S
H1283 C1295 0.929 . S
H1284 C1298 0.930 . S
H1285 C1300 0.960 . S
H1286 C1300 0.960 . S
H1287 C1300 0.960 . S
C1288 H1280 0.929 . S
C1288 C1289 1.377 . S
C1288 C1290 1.384 . S
C1289 C1288 1.377 . S
C1289 C1295 1.390 . S
C1290 H1281 0.930 . S
C1290 C1288 1.384 . S
C1290 C1291 1.372 . S
C1291 C1290 1.372 . S
C1291 C1292 1.400 . S
C1291 C1296 1.490 . S
C1292 H1282 0.930 . S
C1292 C1291 1.400 . S
C1292 C1295 1.386 . S
H1293 C1309 0.930 . S
H1294 C1310 0.931 . S
C1295 H1283 0.929 . S
C1295 C1289 1.390 . S
C1295 C1292 1.386 . S
C1296 C1291 1.490 . S
C1296 C1298 1.395 . S
C1296 C1299 1.403 . S
H1297 C1303 0.930 . S
C1298 H1284 0.930 . S
C1298 C1296 1.395 . S
C1298 C1301 1.403 . S
C1299 C1296 1.403 . S
C1299 C1300 1.524 . S
C1299 C1303 1.400 . S
C1300 H1285 0.960 . S
C1300 H1286 0.960 . S
C1300 H1287 0.960 . S
C1300 C1299 1.524 . S
C1301 C1298 1.403 . S
C1301 C1302 1.392 . S
C1301 C1305 1.495 . S
C1302 C1301 1.392 . S
C1302 C1303 1.385 . S
C1302 C1304 1.478 . S
C1303 H1297 0.930 . S
C1303 C1299 1.400 . S
C1303 C1302 1.385 . S
C1304 C1302 1.478 . S
C1304 C1306 1.381 . S
C1304 C1310 1.383 . S
C1305 C1301 1.495 . S
C1305 H1311 0.959 . S
C1305 H1312 0.961 . S
C1305 H1313 0.960 . S
C1306 C1304 1.381 . S
C1306 C1307 1.394 . S
C1306 H1314 0.930 . S
C1307 C1306 1.394 . S
C1307 C1308 1.383 . S
C1307 H1315 0.929 . S
C1308 C1307 1.383 . S
C1308 C1309 1.377 . S
C1309 H1293 0.930 . S
C1309 C1308 1.377 . S
C1309 C1310 1.379 . S
C1310 H1294 0.931 . S
C1310 C1304 1.383 . S
C1310 C1309 1.379 . S
H1311 C1305 0.959 . S
H1312 C1305 0.961 . S
H1313 C1305 0.960 . S
H1314 C1306 0.930 . S
H1315 C1307 0.929 . S
H1316 C1324 0.929 . S
H1317 C1326 0.930 . S
H1318 C1328 0.930 . S
H1319 C1331 0.929 . S
H1320 C1334 0.930 . S
H1321 C1336 0.960 . S
H1322 C1336 0.960 . S
H1323 C1336 0.960 . S
C1324 H1316 0.929 . S
C1324 C1325 1.377 . S
C1324 C1326 1.384 . S
C1325 C1324 1.377 . S
C1325 C1331 1.390 . S
C1326 H1317 0.930 . S
C1326 C1324 1.384 . S
C1326 C1327 1.372 . S
C1327 C1326 1.372 . S
C1327 C1328 1.400 . S
C1327 C1332 1.490 . S
C1328 H1318 0.930 . S
C1328 C1327 1.400 . S
C1328 C1331 1.386 . S
H1329 C1345 0.930 . S
H1330 C1346 0.931 . S
C1331 H1319 0.929 . S
C1331 C1325 1.390 . S
C1331 C1328 1.386 . S
C1332 C1327 1.490 . S
C1332 C1334 1.395 . S
C1332 C1335 1.403 . S
H1333 C1339 0.930 . S
C1334 H1320 0.930 . S
C1334 C1332 1.395 . S
C1334 C1337 1.403 . S
C1335 C1332 1.403 . S
C1335 C1336 1.524 . S
C1335 C1339 1.400 . S
C1336 H1321 0.960 . S
C1336 H1322 0.960 . S
C1336 H1323 0.960 . S
C1336 C1335 1.524 . S
C1337 C1334 1.403 . S
C1337 C1338 1.392 . S
C1337 C1341 1.495 . S
C1338 C1337 1.392 . S
C1338 C1339 1.385 . S
C1338 C1340 1.478 . S
C1339 H1333 0.930 . S
C1339 C1335 1.400 . S
C1339 C1338 1.385 . S
C1340 C1338 1.478 . S
C1340 C1342 1.381 . S
C1340 C1346 1.383 . S
C1341 C1337 1.495 . S
C1341 H1347 0.959 . S
C1341 H1348 0.961 . S
C1341 H1349 0.960 . S
C1342 C1340 1.381 . S
C1342 C1343 1.394 . S
C1342 H1350 0.930 . S
C1343 C1342 1.394 . S
C1343 C1344 1.383 . S
C1343 H1351 0.929 . S
C1344 C1343 1.383 . S
C1344 C1345 1.377 . S
C1345 H1329 0.930 . S
C1345 C1344 1.377 . S
C1345 C1346 1.379 . S
C1346 H1330 0.931 . S
C1346 C1340 1.383 . S
C1346 C1345 1.379 . S
H1347 C1341 0.959 . S
H1348 C1341 0.961 . S
H1349 C1341 0.960 . S
H1350 C1342 0.930 . S
H1351 C1343 0.929 . S
H1352 C1360 0.929 . S
H1353 C1362 0.930 . S
H1354 C1364 0.930 . S
H1355 C1367 0.929 . S
H1356 C1370 0.930 . S
H1357 C1372 0.960 . S
H1358 C1372 0.960 . S
H1359 C1372 0.960 . S
C1360 H1352 0.929 . S
C1360 C1361 1.377 . S
C1360 C1362 1.384 . S
C1361 C1360 1.377 . S
C1361 C1367 1.390 . S
C1362 H1353 0.930 . S
C1362 C1360 1.384 . S
C1362 C1363 1.372 . S
C1363 C1362 1.372 . S
C1363 C1364 1.400 . S
C1363 C1368 1.490 . S
C1364 H1354 0.930 . S
C1364 C1363 1.400 . S
C1364 C1367 1.386 . S
H1365 C1381 0.930 . S
H1366 C1382 0.931 . S
C1367 H1355 0.929 . S
C1367 C1361 1.390 . S
C1367 C1364 1.386 . S
C1368 C1363 1.490 . S
C1368 C1370 1.395 . S
C1368 C1371 1.403 . S
H1369 C1375 0.930 . S
C1370 H1356 0.930 . S
C1370 C1368 1.395 . S
C1370 C1373 1.403 . S
C1371 C1368 1.403 . S
C1371 C1372 1.524 . S
C1371 C1375 1.400 . S
C1372 H1357 0.960 . S
C1372 H1358 0.960 . S
C1372 H1359 0.960 . S
C1372 C1371 1.524 . S
C1373 C1370 1.403 . S
C1373 C1374 1.392 . S
C1373 C1377 1.495 . S
C1374 C1373 1.392 . S
C1374 C1375 1.385 . S
C1374 C1376 1.478 . S
C1375 H1369 0.930 . S
C1375 C1371 1.400 . S
C1375 C1374 1.385 . S
C1376 C1374 1.478 . S
C1376 C1378 1.381 . S
C1376 C1382 1.383 . S
C1377 C1373 1.495 . S
C1377 H1383 0.959 . S
C1377 H1384 0.961 . S
C1377 H1385 0.960 . S
C1378 C1376 1.381 . S
C1378 C1379 1.394 . S
C1378 H1386 0.930 . S
C1379 C1378 1.394 . S
C1379 C1380 1.383 . S
C1379 H1387 0.929 . S
C1380 C1379 1.383 . S
C1380 C1381 1.377 . S
C1381 H1365 0.930 . S
C1381 C1380 1.377 . S
C1381 C1382 1.379 . S
C1382 H1366 0.931 . S
C1382 C1376 1.383 . S
C1382 C1381 1.379 . S
H1383 C1377 0.959 . S
H1384 C1377 0.961 . S
H1385 C1377 0.960 . S
H1386 C1378 0.930 . S
H1387 C1379 0.929 . S
H1388 C1396 0.929 . S
H1389 C1398 0.930 . S
H1390 C1400 0.930 . S
H1391 C1403 0.929 . S
H1392 C1406 0.930 . S
H1393 C1408 0.960 . S
H1394 C1408 0.960 . S
H1395 C1408 0.960 . S
C1396 H1388 0.929 . S
C1396 C1397 1.377 . S
C1396 C1398 1.384 . S
C1397 C1396 1.377 . S
C1397 C1403 1.390 . S
C1398 H1389 0.930 . S
C1398 C1396 1.384 . S
C1398 C1399 1.372 . S
C1399 C1398 1.372 . S
C1399 C1400 1.400 . S
C1399 C1404 1.490 . S
C1400 H1390 0.930 . S
C1400 C1399 1.400 . S
C1400 C1403 1.386 . S
H1401 C1417 0.930 . S
H1402 C1418 0.931 . S
C1403 H1391 0.929 . S
C1403 C1397 1.390 . S
C1403 C1400 1.386 . S
C1404 C1399 1.490 . S
C1404 C1406 1.395 . S
C1404 C1407 1.403 . S
H1405 C1411 0.930 . S
C1406 H1392 0.930 . S
C1406 C1404 1.395 . S
C1406 C1409 1.403 . S
C1407 C1404 1.403 . S
C1407 C1408 1.524 . S
C1407 C1411 1.400 . S
C1408 H1393 0.960 . S
C1408 H1394 0.960 . S
C1408 H1395 0.960 . S
C1408 C1407 1.524 . S
C1409 C1406 1.403 . S
C1409 C1410 1.392 . S
C1409 C1413 1.495 . S
C1410 C1409 1.392 . S
C1410 C1411 1.385 . S
C1410 C1412 1.478 . S
C1411 H1405 0.930 . S
C1411 C1407 1.400 . S
C1411 C1410 1.385 . S
C1412 C1410 1.478 . S
C1412 C1414 1.381 . S
C1412 C1418 1.383 . S
C1413 C1409 1.495 . S
C1413 H1419 0.959 . S
C1413 H1420 0.961 . S
C1413 H1421 0.960 . S
C1414 C1412 1.381 . S
C1414 C1415 1.394 . S
C1414 H1422 0.930 . S
C1415 C1414 1.394 . S
C1415 C1416 1.383 . S
C1415 H1423 0.929 . S
C1416 C1415 1.383 . S
C1416 C1417 1.377 . S
C1417 H1401 0.930 . S
C1417 C1416 1.377 . S
C1417 C1418 1.379 . S
C1418 H1402 0.931 . S
C1418 C1412 1.383 . S
C1418 C1417 1.379 . S
H1419 C1413 0.959 . S
H1420 C1413 0.961 . S
H1421 C1413 0.960 . S
H1422 C1414 0.930 . S
H1423 C1415 0.929 . S
H1424 C1432 0.929 . S
H1425 C1434 0.930 . S
H1426 C1436 0.930 . S
H1427 C1439 0.929 . S
H1428 C1442 0.930 . S
H1429 C1444 0.960 . S
H1430 C1444 0.960 . S
H1431 C1444 0.960 . S
C1432 H1424 0.929 . S
C1432 C1433 1.377 . S
C1432 C1434 1.384 . S
C1433 C1432 1.377 . S
C1433 C1439 1.390 . S
C1434 H1425 0.930 . S
C1434 C1432 1.384 . S
C1434 C1435 1.372 . S
C1435 C1434 1.372 . S
C1435 C1436 1.400 . S
C1435 C1440 1.490 . S
C1436 H1426 0.930 . S
C1436 C1435 1.400 . S
C1436 C1439 1.386 . S
H1437 C1453 0.930 . S
H1438 C1454 0.931 . S
C1439 H1427 0.929 . S
C1439 C1433 1.390 . S
C1439 C1436 1.386 . S
C1440 C1435 1.490 . S
C1440 C1442 1.395 . S
C1440 C1443 1.403 . S
H1441 C1447 0.930 . S
C1442 H1428 0.930 . S
C1442 C1440 1.395 . S
C1442 C1445 1.403 . S
C1443 C1440 1.403 . S
C1443 C1444 1.524 . S
C1443 C1447 1.400 . S
C1444 H1429 0.960 . S
C1444 H1430 0.960 . S
C1444 H1431 0.960 . S
C1444 C1443 1.524 . S
C1445 C1442 1.403 . S
C1445 C1446 1.392 . S
C1445 C1449 1.495 . S
C1446 C1445 1.392 . S
C1446 C1447 1.385 . S
C1446 C1448 1.478 . S
C1447 H1441 0.930 . S
C1447 C1443 1.400 . S
C1447 C1446 1.385 . S
C1448 C1446 1.478 . S
C1448 C1450 1.381 . S
C1448 C1454 1.383 . S
C1449 C1445 1.495 . S
C1449 H1455 0.959 . S
C1449 H1456 0.961 . S
C1449 H1457 0.960 . S
C1450 C1448 1.381 . S
C1450 C1451 1.394 . S
C1450 H1458 0.930 . S
C1451 C1450 1.394 . S
C1451 C1452 1.383 . S
C1451 H1459 0.929 . S
C1452 C1451 1.383 . S
C1452 C1453 1.377 . S
C1453 H1437 0.930 . S
C1453 C1452 1.377 . S
C1453 C1454 1.379 . S
C1454 H1438 0.931 . S
C1454 C1448 1.383 . S
C1454 C1453 1.379 . S
H1455 C1449 0.959 . S
H1456 C1449 0.961 . S
H1457 C1449 0.960 . S
H1458 C1450 0.930 . S
H1459 C1451 0.929 . S
H1460 C1468 0.973 . S
H1461 C1470 0.930 . S
H1462 C1472 0.930 . S
H1463 C1475 0.929 . S
H1464 C1478 0.930 . S
H1465 C1480 0.960 . S
H1466 C1480 0.960 . S
H1467 C1480 0.960 . S
C1468 H1460 0.973 . S
C1468 C1469 1.372 . S
C1468 C1470 1.355 1_655 S
C1469 C1468 1.372 . S
C1469 C1475 1.365 1_655 S
C1470 H1461 0.930 . S
C1470 C1468 1.355 1_455 S
C1470 C1471 1.372 . S
C1471 C1470 1.372 . S
C1471 C1472 1.400 . S
C1471 C1476 1.490 . S
C1472 H1462 0.930 . S
C1472 C1471 1.400 . S
C1472 C1475 1.386 . S
H1473 C1489 0.930 . S
H1474 C1490 0.931 . S
C1475 H1463 0.929 . S
C1475 C1469 1.365 1_455 S
C1475 C1472 1.386 . S
C1476 C1471 1.490 . S
C1476 C1478 1.395 . S
C1476 C1479 1.403 . S
H1477 C1483 0.930 . S
C1478 H1464 0.930 . S
C1478 C1476 1.395 . S
C1478 C1481 1.403 . S
C1479 C1476 1.403 . S
C1479 C1480 1.524 . S
C1479 C1483 1.400 . S
C1480 H1465 0.960 . S
C1480 H1466 0.960 . S
C1480 H1467 0.960 . S
C1480 C1479 1.524 . S
C1481 C1478 1.403 . S
C1481 C1482 1.392 . S
C1481 C1485 1.495 . S
C1482 C1481 1.392 . S
C1482 C1483 1.385 . S
C1482 C1484 1.478 . S
C1483 H1477 0.930 . S
C1483 C1479 1.400 . S
C1483 C1482 1.385 . S
C1484 C1482 1.478 . S
C1484 C1486 1.381 . S
C1484 C1490 1.383 . S
C1485 C1481 1.495 . S
C1485 H1491 0.959 . S
C1485 H1492 0.961 . S
C1485 H1493 0.960 . S
C1486 C1484 1.381 . S
C1486 C1487 1.394 . S
C1486 H1494 0.930 . S
C1487 C1486 1.394 . S
C1487 C1488 1.383 . S
C1487 H1495 0.929 . S
C1488 C1487 1.383 . S
C1488 C1489 1.377 . S
C1489 H1473 0.930 . S
C1489 C1488 1.377 . S
C1489 C1490 1.379 . S
C1490 H1474 0.931 . S
C1490 C1484 1.383 . S
C1490 C1489 1.379 . S
H1491 C1485 0.959 . S
H1492 C1485 0.961 . S
H1493 C1485 0.960 . S
H1494 C1486 0.930 . S
H1495 C1487 0.929 . S
H1496 C1504 0.929 . S
H1497 C1506 0.930 . S
H1498 C1508 0.930 . S
H1499 C1511 0.929 . S
H1500 C1514 0.930 . S
H1501 C1516 0.960 . S
H1502 C1516 0.960 . S
H1503 C1516 0.960 . S
C1504 H1496 0.929 . S
C1504 C1505 1.377 . S
C1504 C1506 1.384 . S
C1505 C1504 1.377 . S
C1505 C1511 1.390 . S
C1506 H1497 0.930 . S
C1506 C1504 1.384 . S
C1506 C1507 1.372 . S
C1507 C1506 1.372 . S
C1507 C1508 1.400 . S
C1507 C1512 1.490 . S
C1508 H1498 0.930 . S
C1508 C1507 1.400 . S
C1508 C1511 1.386 . S
H1509 C1525 0.930 . S
H1510 C1526 0.931 . S
C1511 H1499 0.929 . S
C1511 C1505 1.390 . S
C1511 C1508 1.386 . S
C1512 C1507 1.490 . S
C1512 C1514 1.395 . S
C1512 C1515 1.403 . S
H1513 C1519 0.930 . S
C1514 H1500 0.930 . S
C1514 C1512 1.395 . S
C1514 C1517 1.403 . S
C1515 C1512 1.403 . S
C1515 C1516 1.524 . S
C1515 C1519 1.400 . S
C1516 H1501 0.960 . S
C1516 H1502 0.960 . S
C1516 H1503 0.960 . S
C1516 C1515 1.524 . S
C1517 C1514 1.403 . S
C1517 C1518 1.392 . S
C1517 C1521 1.495 . S
C1518 C1517 1.392 . S
C1518 C1519 1.385 . S
C1518 C1520 1.478 . S
C1519 H1513 0.930 . S
C1519 C1515 1.400 . S
C1519 C1518 1.385 . S
C1520 C1518 1.478 . S
C1520 C1522 1.381 . S
C1520 C1526 1.383 . S
C1521 C1517 1.495 . S
C1521 H1527 0.959 . S
C1521 H1528 0.961 . S
C1521 H1529 0.960 . S
C1522 C1520 1.381 . S
C1522 C1523 1.394 . S
C1522 H1530 0.930 . S
C1523 C1522 1.394 . S
C1523 C1524 1.383 . S
C1523 H1531 0.929 . S
C1524 C1523 1.383 . S
C1524 C1525 1.377 . S
C1525 H1509 0.930 . S
C1525 C1524 1.377 . S
C1525 C1526 1.379 . S
C1526 H1510 0.931 . S
C1526 C1520 1.383 . S
C1526 C1525 1.379 . S
H1527 C1521 0.959 . S
H1528 C1521 0.961 . S
H1529 C1521 0.960 . S
H1530 C1522 0.930 . S
H1531 C1523 0.929 . S
H1532 C1540 0.929 . S
H1533 C1542 0.930 . S
H1534 C1544 0.949 . S
H1535 C1547 0.929 . S
H1536 C1550 0.930 . S
H1537 C1552 0.960 . S
H1538 C1552 0.960 . S
H1539 C1552 0.960 . S
C1540 H1532 0.929 . S
C1540 C1541 1.377 . S
C1540 C1542 1.384 . S
C1541 C1540 1.377 . S
C1541 C1547 1.390 . S
C1542 H1533 0.930 . S
C1542 C1540 1.384 . S
C1542 C1543 1.372 . S
C1543 C1542 1.372 . S
C1543 C1544 1.400 . S
C1543 C1548 1.490 . S
C1544 H1534 0.949 . S
C1544 C1543 1.400 . S
C1544 C1547 1.386 . S
H1545 C1561 0.930 . S
H1546 C1562 0.931 . S
C1547 H1535 0.929 . S
C1547 C1541 1.390 . S
C1547 C1544 1.386 . S
C1548 C1543 1.490 . S
C1548 C1550 1.395 . S
C1548 C1551 1.403 1_655 S
H1549 C1555 0.930 . S
C1550 H1536 0.930 . S
C1550 C1548 1.395 . S
C1550 C1553 1.403 1_554 S
C1551 C1548 1.403 1_455 S
C1551 C1552 1.524 . S
C1551 C1555 1.400 1_554 S
C1552 H1537 0.960 . S
C1552 H1538 0.960 . S
C1552 H1539 0.960 . S
C1552 C1551 1.524 . S
C1553 C1550 1.403 1_556 S
C1553 C1554 1.392 . S
C1553 C1557 1.495 . S
C1554 C1553 1.392 . S
C1554 C1555 1.385 1_655 S
C1554 C1556 1.478 . S
C1555 H1549 0.930 . S
C1555 C1551 1.400 1_556 S
C1555 C1554 1.385 1_455 S
C1556 C1554 1.478 . S
C1556 C1558 1.381 . S
C1556 C1562 1.383 1_655 S
C1557 C1553 1.495 . S
C1557 H1563 0.959 . S
C1557 H1564 0.961 . S
C1557 H1565 0.960 . S
C1558 C1556 1.381 . S
C1558 C1559 1.394 1_655 S
C1558 H1566 0.930 . S
C1559 C1558 1.394 1_455 S
C1559 C1560 1.383 . S
C1559 H1567 0.929 1_455 S
C1560 C1559 1.383 . S
C1560 C1561 1.377 . S
C1561 H1545 0.930 . S
C1561 C1560 1.377 . S
C1561 C1562 1.379 . S
C1562 H1546 0.931 . S
C1562 C1556 1.383 1_455 S
C1562 C1561 1.379 . S
H1563 C1557 0.959 . S
H1564 C1557 0.961 . S
H1565 C1557 0.960 . S
H1566 C1558 0.930 . S
H1567 C1559 0.929 1_655 S
H1568 C1576 0.929 . S
H1569 C1578 0.930 . S
H1570 C1580 0.930 . S
H1571 C1583 0.929 . S
H1572 C1586 0.930 . S
H1573 C1588 0.960 . S
H1574 C1588 0.960 . S
H1575 C1588 0.960 . S
C1576 H1568 0.929 . S
C1576 C1577 1.377 . S
C1576 C1578 1.384 . S
C1577 C1576 1.377 . S
C1577 C1583 1.390 . S
C1578 H1569 0.930 . S
C1578 C1576 1.384 . S
C1578 C1579 1.372 . S
C1579 C1578 1.372 . S
C1579 C1580 1.400 . S
C1579 C1584 1.490 . S
C1580 H1570 0.930 . S
C1580 C1579 1.400 . S
C1580 C1583 1.386 . S
H1581 C1597 0.930 . S
H1582 C1598 0.931 . S
C1583 H1571 0.929 . S
C1583 C1577 1.390 . S
C1583 C1580 1.386 . S
C1584 C1579 1.490 . S
C1584 C1586 1.395 . S
C1584 C1587 1.403 . S
H1585 C1591 0.930 . S
C1586 H1572 0.930 . S
C1586 C1584 1.395 . S
C1586 C1589 1.403 . S
C1587 C1584 1.403 . S
C1587 C1588 1.524 . S
C1587 C1591 1.400 . S
C1588 H1573 0.960 . S
C1588 H1574 0.960 . S
C1588 H1575 0.960 . S
C1588 C1587 1.524 . S
C1589 C1586 1.403 . S
C1589 C1590 1.392 . S
C1589 C1593 1.495 . S
C1590 C1589 1.392 . S
C1590 C1591 1.385 . S
C1590 C1592 1.478 . S
C1591 H1585 0.930 . S
C1591 C1587 1.400 . S
C1591 C1590 1.385 . S
C1592 C1590 1.478 . S
C1592 C1594 1.381 . S
C1592 C1598 1.383 . S
C1593 C1589 1.495 . S
C1593 H1599 0.959 . S
C1593 H1600 0.961 . S
C1593 H1601 0.960 . S
C1594 C1592 1.381 . S
C1594 C1595 1.394 . S
C1594 H1602 0.930 . S
C1595 C1594 1.394 . S
C1595 C1596 1.383 . S
C1595 H1603 0.929 . S
C1596 C1595 1.383 . S
C1596 C1597 1.377 . S
C1597 H1581 0.930 . S
C1597 C1596 1.377 . S
C1597 C1598 1.379 . S
C1598 H1582 0.931 . S
C1598 C1592 1.383 . S
C1598 C1597 1.379 . S
H1599 C1593 0.959 . S
H1600 C1593 0.961 . S
H1601 C1593 0.960 . S
H1602 C1594 0.930 . S
H1603 C1595 0.929 . S
H1604 C1612 0.929 . S
H1605 C1614 0.930 . S
H1606 C1616 0.930 1_655 S
H1607 C1619 0.929 1_655 S
H1608 C1622 0.930 . S
H1609 C1624 0.960 . S
H1610 C1624 0.960 . S
H1611 C1624 0.960 1_556 S
C1612 H1604 0.929 . S
C1612 C1613 1.377 . S
C1612 C1614 1.384 . S
C1613 C1612 1.377 . S
C1613 C1619 1.390 1_554 S
C1614 H1605 0.930 . S
C1614 C1612 1.384 . S
C1614 C1615 1.372 1_554 S
C1615 C1614 1.372 1_556 S
C1615 C1616 1.400 . S
C1615 C1620 1.490 . S
C1616 H1606 0.930 1_455 S
C1616 C1615 1.400 . S
C1616 C1619 1.386 . S
H1617 C1633 0.930 1_655 S
H1618 C1634 0.931 1_655 S
C1619 H1607 0.929 1_455 S
C1619 C1613 1.390 1_556 S
C1619 C1616 1.386 . S
C1620 C1615 1.490 . S
C1620 C1622 1.395 . S
C1620 C1623 1.403 . S
H1621 C1627 0.913 1_655 S
C1622 H1608 0.930 . S
C1622 C1620 1.395 . S
C1622 C1625 1.403 . S
C1623 C1620 1.403 . S
C1623 C1624 1.524 1_456 S
C1623 C1627 1.400 . S
C1624 H1609 0.960 . S
C1624 H1610 0.960 . S
C1624 H1611 0.960 1_554 S
C1624 C1623 1.524 1_654 S
C1625 C1622 1.403 . S
C1625 C1626 1.392 . S
C1625 C1629 1.495 . S
C1626 C1625 1.392 . S
C1626 C1627 1.385 . S
C1626 C1628 1.478 . S
C1627 H1621 0.913 1_455 S
C1627 C1623 1.400 . S
C1627 C1626 1.385 . S
C1628 C1626 1.478 . S
C1628 C1630 1.381 . S
C1628 C1634 1.383 . S
C1629 C1625 1.495 . S
C1629 H1635 0.959 . S
C1629 H1636 0.961 . S
C1629 H1637 0.960 . S
C1630 C1628 1.381 . S
C1630 C1631 1.394 . S
C1630 H1638 0.930 . S
C1631 C1630 1.394 . S
C1631 C1632 1.383 . S
C1631 H1639 0.929 . S
C1632 C1631 1.383 . S
C1632 C1633 1.377 . S
C1633 H1617 0.930 1_455 S
C1633 C1632 1.377 . S
C1633 C1634 1.379 . S
C1634 H1618 0.931 1_455 S
C1634 C1628 1.383 . S
C1634 C1633 1.379 . S
H1635 C1629 0.959 . S
H1636 C1629 0.961 . S
H1637 C1629 0.960 . S
H1638 C1630 0.930 . S
H1639 C1631 0.929 . S
H1640 C1648 0.929 . S
H1641 C1650 0.930 . S
H1642 C1652 0.930 . S
H1643 C1655 0.929 . S
H1644 C1658 0.930 . S
H1645 C1660 0.960 . S
H1646 C1660 0.960 . S
H1647 C1660 0.960 . S
C1648 H1640 0.929 . S
C1648 C1649 1.377 . S
C1648 C1650 1.384 . S
C1649 C1648 1.377 . S
C1649 C1655 1.390 . S
C1650 H1641 0.930 . S
C1650 C1648 1.384 . S
C1650 C1651 1.372 . S
C1651 C1650 1.372 . S
C1651 C1652 1.400 . S
C1651 C1656 1.490 . S
C1652 H1642 0.930 . S
C1652 C1651 1.400 . S
C1652 C1655 1.386 . S
H1653 C1669 0.930 . S
H1654 C1670 0.931 . S
C1655 H1643 0.929 . S
C1655 C1649 1.390 . S
C1655 C1652 1.386 . S
C1656 C1651 1.490 . S
C1656 C1658 1.395 . S
C1656 C1659 1.403 . S
H1657 C1663 0.930 . S
C1658 H1644 0.930 . S
C1658 C1656 1.395 . S
C1658 C1661 1.403 . S
C1659 C1656 1.403 . S
C1659 C1660 1.524 . S
C1659 C1663 1.400 . S
C1660 H1645 0.960 . S
C1660 H1646 0.960 . S
C1660 H1647 0.960 . S
C1660 C1659 1.524 . S
C1661 C1658 1.403 . S
C1661 C1662 1.392 . S
C1661 C1665 1.495 . S
C1662 C1661 1.392 . S
C1662 C1663 1.385 . S
C1662 C1664 1.478 . S
C1663 H1657 0.930 . S
C1663 C1659 1.400 . S
C1663 C1662 1.385 . S
C1664 C1662 1.478 . S
C1664 C1666 1.381 . S
C1664 C1670 1.383 . S
C1665 C1661 1.495 . S
C1665 H1671 0.959 . S
C1665 H1672 0.961 . S
C1665 H1673 0.960 . S
C1666 C1664 1.381 . S
C1666 C1667 1.394 . S
C1666 H1674 0.930 . S
C1667 C1666 1.394 . S
C1667 C1668 1.383 . S
C1667 H1675 0.929 . S
C1668 C1667 1.383 . S
C1668 C1669 1.377 . S
C1669 H1653 0.930 . S
C1669 C1668 1.377 . S
C1669 C1670 1.379 . S
C1670 H1654 0.931 . S
C1670 C1664 1.383 . S
C1670 C1669 1.379 . S
H1671 C1665 0.959 . S
H1672 C1665 0.961 . S
H1673 C1665 0.960 . S
H1674 C1666 0.930 . S
H1675 C1667 0.929 . S
H1676 C1684 0.929 1_556 S
H1677 C1686 0.930 . S
H1678 C1688 0.930 . S
H1679 C1691 0.929 . S
H1680 C1694 0.930 . S
H1681 C1696 0.960 . S
H1682 C1696 0.960 . S
H1683 C1696 0.960 . S
C1684 H1676 0.929 1_554 S
C1684 C1685 1.377 . S
C1684 C1686 1.384 . S
C1685 C1684 1.377 . S
C1685 C1691 1.390 . S
C1686 H1677 0.930 . S
C1686 C1684 1.384 . S
C1686 C1687 1.372 . S
C1687 C1686 1.372 . S
C1687 C1688 1.400 . S
C1687 C1692 1.490 . S
C1688 H1678 0.930 . S
C1688 C1687 1.400 . S
C1688 C1691 1.386 . S
H1689 C1705 0.930 . S
H1690 C1706 0.931 . S
C1691 H1679 0.929 . S
C1691 C1685 1.390 . S
C1691 C1688 1.386 . S
C1692 C1687 1.490 . S
C1692 C1694 1.395 . S
C1692 C1695 1.403 . S
H1693 C1699 0.930 . S
C1694 H1680 0.930 . S
C1694 C1692 1.395 . S
C1694 C1697 1.403 . S
C1695 C1692 1.403 . S
C1695 C1696 1.524 . S
C1695 C1699 1.400 . S
C1696 H1681 0.960 . S
C1696 H1682 0.960 . S
C1696 H1683 0.960 . S
C1696 C1695 1.524 . S
C1697 C1694 1.403 . S
C1697 C1698 1.392 . S
C1697 C1701 1.495 . S
C1698 C1697 1.392 . S
C1698 C1699 1.385 . S
C1698 C1700 1.478 . S
C1699 H1693 0.930 . S
C1699 C1695 1.400 . S
C1699 C1698 1.385 . S
C1700 C1698 1.478 . S
C1700 C1702 1.381 . S
C1700 C1706 1.383 . S
C1701 C1697 1.495 . S
C1701 H1707 0.959 . S
C1701 H1708 0.961 . S
C1701 H1709 0.960 . S
C1702 C1700 1.381 . S
C1702 C1703 1.394 . S
C1702 H1710 0.930 . S
C1703 C1702 1.394 . S
C1703 C1704 1.383 . S
C1703 H1711 0.929 . S
C1704 C1703 1.383 . S
C1704 C1705 1.377 . S
C1705 H1689 0.930 . S
C1705 C1704 1.377 . S
C1705 C1706 1.379 . S
C1706 H1690 0.931 . S
C1706 C1700 1.383 . S
C1706 C1705 1.379 . S
H1707 C1701 0.959 . S
H1708 C1701 0.961 . S
H1709 C1701 0.960 . S
H1710 C1702 0.930 . S
H1711 C1703 0.929 . S
H1712 C1720 0.929 . S
H1713 C1722 0.930 . S
H1714 C1724 0.930 . S
H1715 C1727 0.929 . S
H1716 C1730 0.930 . S
H1717 C1732 0.960 . S
H1718 C1732 0.960 . S
H1719 C1732 0.960 . S
C1720 H1712 0.929 . S
C1720 C1721 1.377 . S
C1720 C1722 1.384 . S
C1721 C1720 1.377 . S
C1721 C1727 1.390 . S
C1722 H1713 0.930 . S
C1722 C1720 1.384 . S
C1722 C1723 1.372 . S
C1723 C1722 1.372 . S
C1723 C1724 1.400 . S
C1723 C1728 1.490 . S
C1724 H1714 0.930 . S
C1724 C1723 1.400 . S
C1724 C1727 1.386 . S
H1725 C1741 0.930 . S
H1726 C1742 0.931 . S
C1727 H1715 0.929 . S
C1727 C1721 1.390 . S
C1727 C1724 1.386 . S
C1728 C1723 1.490 . S
C1728 C1730 1.395 . S
C1728 C1731 1.403 . S
H1729 C1735 0.930 . S
C1730 H1716 0.930 . S
C1730 C1728 1.395 . S
C1730 C1733 1.403 . S
C1731 C1728 1.403 . S
C1731 C1732 1.524 . S
C1731 C1735 1.400 . S
C1732 H1717 0.960 . S
C1732 H1718 0.960 . S
C1732 H1719 0.960 . S
C1732 C1731 1.524 . S
C1733 C1730 1.403 . S
C1733 C1734 1.392 . S
C1733 C1737 1.495 . S
C1734 C1733 1.392 . S
C1734 C1735 1.385 . S
C1734 C1736 1.478 . S
C1735 H1729 0.930 . S
C1735 C1731 1.400 . S
C1735 C1734 1.385 . S
C1736 C1734 1.478 . S
C1736 C1738 1.381 . S
C1736 C1742 1.383 . S
C1737 C1733 1.495 . S
C1737 H1743 0.959 . S
C1737 H1744 0.961 . S
C1737 H1745 0.960 . S
C1738 C1736 1.381 . S
C1738 C1739 1.394 . S
C1738 H1746 0.930 . S
C1739 C1738 1.394 . S
C1739 C1740 1.383 . S
C1739 H1747 0.929 . S
C1740 C1739 1.383 . S
C1740 C1741 1.377 . S
C1741 H1725 0.930 . S
C1741 C1740 1.377 . S
C1741 C1742 1.379 . S
C1742 H1726 0.931 . S
C1742 C1736 1.383 . S
C1742 C1741 1.379 . S
H1743 C1737 0.959 . S
H1744 C1737 0.961 . S
H1745 C1737 0.960 . S
H1746 C1738 0.930 . S
H1747 C1739 0.929 . S
H1748 C1756 0.929 . S
H1749 C1758 0.930 . S
H1750 C1760 0.930 . S
H1751 C1763 0.929 . S
H1752 C1766 0.930 . S
H1753 C1768 0.960 . S
H1754 C1768 0.960 . S
H1755 C1768 0.960 . S
C1756 H1748 0.929 . S
C1756 C1757 1.377 . S
C1756 C1758 1.384 . S
C1757 C1756 1.377 . S
C1757 C1763 1.390 . S
C1758 H1749 0.930 . S
C1758 C1756 1.384 . S
C1758 C1759 1.372 . S
C1759 C1758 1.372 . S
C1759 C1760 1.400 . S
C1759 C1764 1.490 . S
C1760 H1750 0.930 . S
C1760 C1759 1.400 . S
C1760 C1763 1.386 . S
H1761 C1777 0.930 . S
H1762 C1778 0.931 . S
C1763 H1751 0.929 . S
C1763 C1757 1.390 . S
C1763 C1760 1.386 . S
C1764 C1759 1.490 . S
C1764 C1766 1.395 . S
C1764 C1767 1.403 . S
H1765 C1771 0.930 . S
C1766 H1752 0.930 . S
C1766 C1764 1.395 . S
C1766 C1769 1.403 . S
C1767 C1764 1.403 . S
C1767 C1768 1.524 . S
C1767 C1771 1.400 . S
C1768 H1753 0.960 . S
C1768 H1754 0.960 . S
C1768 H1755 0.960 . S
C1768 C1767 1.524 . S
C1769 C1766 1.403 . S
C1769 C1770 1.392 . S
C1769 C1773 1.495 . S
C1770 C1769 1.392 . S
C1770 C1771 1.385 . S
C1770 C1772 1.478 . S
C1771 H1765 0.930 . S
C1771 C1767 1.400 . S
C1771 C1770 1.385 . S
C1772 C1770 1.478 . S
C1772 C1774 1.381 . S
C1772 C1778 1.383 . S
C1773 C1769 1.495 . S
C1773 H1779 0.959 . S
C1773 H1780 0.961 . S
C1773 H1781 0.960 . S
C1774 C1772 1.381 . S
C1774 C1775 1.394 . S
C1774 H1782 0.930 . S
C1775 C1774 1.394 . S
C1775 C1776 1.383 . S
C1775 H1783 0.929 . S
C1776 C1775 1.383 . S
C1776 C1777 1.377 . S
C1777 H1761 0.930 . S
C1777 C1776 1.377 . S
C1777 C1778 1.379 . S
C1778 H1762 0.931 . S
C1778 C1772 1.383 . S
C1778 C1777 1.379 . S
H1779 C1773 0.959 . S
H1780 C1773 0.961 . S
H1781 C1773 0.960 . S
H1782 C1774 0.930 . S
H1783 C1775 0.929 . S
H1784 C1792 0.929 . S
H1785 C1794 0.930 . S
H1786 C1796 0.930 . S
H1787 C1799 0.929 . S
H1788 C1802 0.930 . S
H1789 C1804 0.960 . S
H1790 C1804 0.960 . S
H1791 C1804 0.960 . S
C1792 H1784 0.929 . S
C1792 C1793 1.377 . S
C1792 C1794 1.384 . S
C1793 C1792 1.377 . S
C1793 C1799 1.390 . S
C1794 H1785 0.930 . S
C1794 C1792 1.384 . S
C1794 C1795 1.372 . S
C1795 C1794 1.372 . S
C1795 C1796 1.400 . S
C1795 C1800 1.490 . S
C1796 H1786 0.930 . S
C1796 C1795 1.400 . S
C1796 C1799 1.386 . S
H1797 C1813 0.930 . S
H1798 C1814 0.931 . S
C1799 H1787 0.929 . S
C1799 C1793 1.390 . S
C1799 C1796 1.386 . S
C1800 C1795 1.490 . S
C1800 C1802 1.395 . S
C1800 C1803 1.403 . S
H1801 C1807 0.930 . S
C1802 H1788 0.930 . S
C1802 C1800 1.395 . S
C1802 C1805 1.403 . S
C1803 C1800 1.403 . S
C1803 C1804 1.524 . S
C1803 C1807 1.400 . S
C1804 H1789 0.960 . S
C1804 H1790 0.960 . S
C1804 H1791 0.960 . S
C1804 C1803 1.524 . S
C1805 C1802 1.403 . S
C1805 C1806 1.392 . S
C1805 C1809 1.495 . S
C1806 C1805 1.392 . S
C1806 C1807 1.385 . S
C1806 C1808 1.478 . S
C1807 H1801 0.930 . S
C1807 C1803 1.400 . S
C1807 C1806 1.385 . S
C1808 C1806 1.478 . S
C1808 C1810 1.381 . S
C1808 C1814 1.383 . S
C1809 C1805 1.495 . S
C1809 H1815 0.959 . S
C1809 H1816 0.961 . S
C1809 H1817 0.960 . S
C1810 C1808 1.381 . S
C1810 C1811 1.394 . S
C1810 H1818 0.930 . S
C1811 C1810 1.394 . S
C1811 C1812 1.383 . S
C1811 H1819 0.929 . S
C1812 C1811 1.383 . S
C1812 C1813 1.377 . S
C1813 H1797 0.930 . S
C1813 C1812 1.377 . S
C1813 C1814 1.379 . S
C1814 H1798 0.931 . S
C1814 C1808 1.383 . S
C1814 C1813 1.379 . S
H1815 C1809 0.959 . S
H1816 C1809 0.961 . S
H1817 C1809 0.960 . S
H1818 C1810 0.930 . S
H1819 C1811 0.929 . S
H1820 C1828 0.929 . S
H1821 C1830 0.930 . S
H1822 C1832 0.930 . S
H1823 C1835 0.929 . S
H1824 C1838 0.930 . S
H1825 C1840 0.960 . S
H1826 C1840 0.960 . S
H1827 C1840 0.960 . S
C1828 H1820 0.929 . S
C1828 C1829 1.377 . S
C1828 C1830 1.384 . S
C1829 C1828 1.377 . S
C1829 C1835 1.390 . S
C1830 H1821 0.930 . S
C1830 C1828 1.384 . S
C1830 C1831 1.372 . S
C1831 C1830 1.372 . S
C1831 C1832 1.400 . S
C1831 C1836 1.490 . S
C1832 H1822 0.930 . S
C1832 C1831 1.400 . S
C1832 C1835 1.386 . S
H1833 C1849 0.930 . S
H1834 C1850 0.931 . S
C1835 H1823 0.929 . S
C1835 C1829 1.390 . S
C1835 C1832 1.386 . S
C1836 C1831 1.490 . S
C1836 C1838 1.395 . S
C1836 C1839 1.403 . S
H1837 C1843 0.930 . S
C1838 H1824 0.930 . S
C1838 C1836 1.395 . S
C1838 C1841 1.403 . S
C1839 C1836 1.403 . S
C1839 C1840 1.524 . S
C1839 C1843 1.400 . S
C1840 H1825 0.960 . S
C1840 H1826 0.960 . S
C1840 H1827 0.960 . S
C1840 C1839 1.524 . S
C1841 C1838 1.403 . S
C1841 C1842 1.392 . S
C1841 C1845 1.495 . S
C1842 C1841 1.392 . S
C1842 C1843 1.385 . S
C1842 C1844 1.478 . S
C1843 H1837 0.930 . S
C1843 C1839 1.400 . S
C1843 C1842 1.385 . S
C1844 C1842 1.478 . S
C1844 C1846 1.381 . S
C1844 C1850 1.383 . S
C1845 C1841 1.495 . S
C1845 H1851 0.959 . S
C1845 H1852 0.961 . S
C1845 H1853 0.960 . S
C1846 C1844 1.381 . S
C1846 C1847 1.394 . S
C1846 H1854 0.930 . S
C1847 C1846 1.394 . S
C1847 C1848 1.383 . S
C1847 H1855 0.929 . S
C1848 C1847 1.383 . S
C1848 C1849 1.377 . S
C1849 H1833 0.930 . S
C1849 C1848 1.377 . S
C1849 C1850 1.379 . S
C1850 H1834 0.931 . S
C1850 C1844 1.383 . S
C1850 C1849 1.379 . S
H1851 C1845 0.959 . S
H1852 C1845 0.961 . S
H1853 C1845 0.960 . S
H1854 C1846 0.930 . S
H1855 C1847 0.929 . S
H1856 C1864 0.929 . S
H1857 C1866 0.930 . S
H1858 C1868 0.930 . S
H1859 C1871 0.929 . S
H1860 C1874 0.930 . S
H1861 C1876 0.960 . S
H1862 C1876 0.960 . S
H1863 C1876 0.960 . S
C1864 H1856 0.929 . S
C1864 C1865 1.377 . S
C1864 C1866 1.384 . S
C1865 C1864 1.377 . S
C1865 C1871 1.390 . S
C1866 H1857 0.930 . S
C1866 C1864 1.384 . S
C1866 C1867 1.372 . S
C1867 C1866 1.372 . S
C1867 C1868 1.400 . S
C1867 C1872 1.490 . S
C1868 H1858 0.930 . S
C1868 C1867 1.400 . S
C1868 C1871 1.386 . S
H1869 C1885 0.930 . S
H1870 C1886 0.931 . S
C1871 H1859 0.929 . S
C1871 C1865 1.390 . S
C1871 C1868 1.386 . S
C1872 C1867 1.490 . S
C1872 C1874 1.395 . S
C1872 C1875 1.403 . S
H1873 C1879 0.930 . S
C1874 H1860 0.930 . S
C1874 C1872 1.395 . S
C1874 C1877 1.403 . S
C1875 C1872 1.403 . S
C1875 C1876 1.524 . S
C1875 C1879 1.400 . S
C1876 H1861 0.960 . S
C1876 H1862 0.960 . S
C1876 H1863 0.960 . S
C1876 C1875 1.524 . S
C1877 C1874 1.403 . S
C1877 C1878 1.392 . S
C1877 C1881 1.495 . S
C1878 C1877 1.392 . S
C1878 C1879 1.385 . S
C1878 C1880 1.478 . S
C1879 H1873 0.930 . S
C1879 C1875 1.400 . S
C1879 C1878 1.385 . S
C1880 C1878 1.478 . S
C1880 C1882 1.381 . S
C1880 C1886 1.383 . S
C1881 C1877 1.495 . S
C1881 H1887 0.959 . S
C1881 H1888 0.961 . S
C1881 H1889 0.960 . S
C1882 C1880 1.381 . S
C1882 C1883 1.394 . S
C1882 H1890 0.930 . S
C1883 C1882 1.394 . S
C1883 C1884 1.383 . S
C1883 H1891 0.929 . S
C1884 C1883 1.383 . S
C1884 C1885 1.377 . S
C1885 H1869 0.930 . S
C1885 C1884 1.377 . S
C1885 C1886 1.379 . S
C1886 H1870 0.931 . S
C1886 C1880 1.383 . S
C1886 C1885 1.379 . S
H1887 C1881 0.959 . S
H1888 C1881 0.961 . S
H1889 C1881 0.960 . S
H1890 C1882 0.930 . S
H1891 C1883 0.929 . S
H1892 C1900 0.929 . S
H1893 C1902 0.930 . S
H1894 C1904 0.930 . S
H1895 C1907 0.929 . S
H1896 C1910 0.930 . S
H1897 C1912 0.960 . S
H1898 C1912 0.960 . S
H1899 C1912 0.960 . S
C1900 H1892 0.929 . S
C1900 C1901 1.377 . S
C1900 C1902 1.384 . S
C1901 C1900 1.377 . S
C1901 C1907 1.390 . S
C1902 H1893 0.930 . S
C1902 C1900 1.384 . S
C1902 C1903 1.372 . S
C1903 C1902 1.372 . S
C1903 C1904 1.400 . S
C1903 C1908 1.490 . S
C1904 H1894 0.930 . S
C1904 C1903 1.400 . S
C1904 C1907 1.386 . S
H1905 C1921 0.930 . S
H1906 C1922 0.931 . S
C1907 H1895 0.929 . S
C1907 C1901 1.390 . S
C1907 C1904 1.386 . S
C1908 C1903 1.490 . S
C1908 C1910 1.395 . S
C1908 C1911 1.403 . S
H1909 C1915 0.930 . S
C1910 H1896 0.930 . S
C1910 C1908 1.395 . S
C1910 C1913 1.403 . S
C1911 C1908 1.403 . S
C1911 C1912 1.524 . S
C1911 C1915 1.400 . S
C1912 H1897 0.960 . S
C1912 H1898 0.960 . S
C1912 H1899 0.960 . S
C1912 C1911 1.524 . S
C1913 C1910 1.403 . S
C1913 C1914 1.392 . S
C1913 C1917 1.495 . S
C1914 C1913 1.392 . S
C1914 C1915 1.385 . S
C1914 C1916 1.478 . S
C1915 H1909 0.930 . S
C1915 C1911 1.400 . S
C1915 C1914 1.385 . S
C1916 C1914 1.478 . S
C1916 C1918 1.381 . S
C1916 C1922 1.383 . S
C1917 C1913 1.495 . S
C1917 H1923 0.959 . S
C1917 H1924 0.961 . S
C1917 H1925 0.960 . S
C1918 C1916 1.381 . S
C1918 C1919 1.394 . S
C1918 H1926 0.930 . S
C1919 C1918 1.394 . S
C1919 C1920 1.383 . S
C1919 H1927 0.929 . S
C1920 C1919 1.383 . S
C1920 C1921 1.377 . S
C1921 H1905 0.930 . S
C1921 C1920 1.377 . S
C1921 C1922 1.379 . S
C1922 H1906 0.931 . S
C1922 C1916 1.383 . S
C1922 C1921 1.379 . S
H1923 C1917 0.959 . S
H1924 C1917 0.961 . S
H1925 C1917 0.960 . S
H1926 C1918 0.930 . S
H1927 C1919 0.929 . S
H1928 C1936 0.929 . S
H1929 C1938 0.930 . S
H1930 C1940 0.930 . S
H1931 C1943 0.929 . S
H1932 C1946 0.929 1_554 S
H1933 C1948 0.960 . S
H1934 C1948 0.960 . S
H1935 C1948 0.960 . S
C1936 H1928 0.929 . S
C1936 C1937 1.377 . S
C1936 C1938 1.384 . S
C1937 C1936 1.377 . S
C1937 C1943 1.390 . S
C1938 H1929 0.930 . S
C1938 C1936 1.384 . S
C1938 C1939 1.372 . S
C1939 C1938 1.372 . S
C1939 C1940 1.400 . S
C1939 C1944 1.490 . S
C1940 H1930 0.930 . S
C1940 C1939 1.400 . S
C1940 C1943 1.386 . S
H1941 C1957 0.930 . S
H1942 C1958 0.931 . S
C1943 H1931 0.929 . S
C1943 C1937 1.390 . S
C1943 C1940 1.386 . S
C1944 C1939 1.490 . S
C1944 C1946 1.395 . S
C1944 C1947 1.403 . S
H1945 C1951 0.930 . S
C1946 H1932 0.929 1_556 S
C1946 C1944 1.395 . S
C1946 C1949 1.404 . S
C1947 C1944 1.403 . S
C1947 C1948 1.524 . S
C1947 C1951 1.400 . S
C1948 H1933 0.960 . S
C1948 H1934 0.960 . S
C1948 H1935 0.960 . S
C1948 C1947 1.524 . S
C1949 C1946 1.404 . S
C1949 C1950 1.396 . S
C1949 C1953 1.491 1_556 S
C1950 C1949 1.396 . S
C1950 C1951 1.385 . S
C1950 C1952 1.478 . S
C1951 H1945 0.930 . S
C1951 C1947 1.400 . S
C1951 C1950 1.385 . S
C1952 C1950 1.478 . S
C1952 C1954 1.381 . S
C1952 C1958 1.383 1_556 S
C1953 C1949 1.491 1_554 S
C1953 H1959 0.959 . S
C1953 H1960 0.961 . S
C1953 H1961 0.960 . S
C1954 C1952 1.381 . S
C1954 C1955 1.394 . S
C1954 H1962 0.930 . S
C1955 C1954 1.394 . S
C1955 C1956 1.383 1_556 S
C1955 H1963 0.929 . S
C1956 C1955 1.383 1_554 S
C1956 C1957 1.377 . S
C1957 H1941 0.930 . S
C1957 C1956 1.377 . S
C1957 C1958 1.379 . S
C1958 H1942 0.931 . S
C1958 C1952 1.383 1_554 S
C1958 C1957 1.379 . S
H1959 C1953 0.959 . S
H1960 C1953 0.961 . S
H1961 C1953 0.960 . S
H1962 C1954 0.930 . S
H1963 C1955 0.929 . S
H1964 C1972 0.929 . S
H1965 C1974 0.930 . S
H1966 C1976 0.930 . S
H1967 C1979 0.929 . S
H1968 C1982 0.930 . S
H1969 C1984 0.960 . S
H1970 C1984 0.960 . S
H1971 C1984 0.960 . S
C1972 H1964 0.929 . S
C1972 C1973 1.377 . S
C1972 C1974 1.384 . S
C1973 C1972 1.377 . S
C1973 C1979 1.390 . S
C1974 H1965 0.930 . S
C1974 C1972 1.384 . S
C1974 C1975 1.372 . S
C1975 C1974 1.372 . S
C1975 C1976 1.400 . S
C1975 C1980 1.490 . S
C1976 H1966 0.930 . S
C1976 C1975 1.400 . S
C1976 C1979 1.386 . S
H1977 C1993 0.930 . S
H1978 C1994 0.931 . S
C1979 H1967 0.929 . S
C1979 C1973 1.390 . S
C1979 C1976 1.386 . S
C1980 C1975 1.490 . S
C1980 C1982 1.395 . S
C1980 C1983 1.403 . S
H1981 C1987 0.930 . S
C1982 H1968 0.930 . S
C1982 C1980 1.395 . S
C1982 C1985 1.403 . S
C1983 C1980 1.403 . S
C1983 C1984 1.524 . S
C1983 C1987 1.400 . S
C1984 H1969 0.960 . S
C1984 H1970 0.960 . S
C1984 H1971 0.960 . S
C1984 C1983 1.524 . S
C1985 C1982 1.403 . S
C1985 C1986 1.392 . S
C1985 C1989 1.495 . S
C1986 C1985 1.392 . S
C1986 C1987 1.385 . S
C1986 C1988 1.478 . S
C1987 H1981 0.930 . S
C1987 C1983 1.400 . S
C1987 C1986 1.385 . S
C1988 C1986 1.478 . S
C1988 C1990 1.381 . S
C1988 C1994 1.383 . S
C1989 C1985 1.495 . S
C1989 H1995 0.959 . S
C1989 H1996 0.961 . S
C1989 H1997 0.960 . S
C1990 C1988 1.381 . S
C1990 C1991 1.394 . S
C1990 H1998 0.930 . S
C1991 C1990 1.394 . S
C1991 C1992 1.383 . S
C1991 H1999 0.929 . S
C1992 C1991 1.383 . S
C1992 C1993 1.377 . S
C1993 H1977 0.930 . S
C1993 C1992 1.377 . S
C1993 C1994 1.379 . S
C1994 H1978 0.931 . S
C1994 C1988 1.383 . S
C1994 C1993 1.379 . S
H1995 C1989 0.959 . S
H1996 C1989 0.961 . S
H1997 C1989 0.960 . S
H1998 C1990 0.930 . S
H1999 C1991 0.929 . S
H2000 C2008 0.929 . S
H2001 C2010 0.930 . S
H2002 C2012 0.930 . S
H2003 C2015 0.929 . S
H2004 C2018 0.930 . S
H2005 C2020 0.960 . S
H2006 C2020 0.960 . S
H2007 C2020 0.960 . S
C2008 H2000 0.929 . S
C2008 C2009 1.377 . S
C2008 C2010 1.384 . S
C2009 C2008 1.377 . S
C2009 C2015 1.390 . S
C2010 H2001 0.930 . S
C2010 C2008 1.384 . S
C2010 C2011 1.372 . S
C2011 C2010 1.372 . S
C2011 C2012 1.400 . S
C2011 C2016 1.490 . S
C2012 H2002 0.930 . S
C2012 C2011 1.400 . S
C2012 C2015 1.386 . S
H2013 C2029 0.972 . S
H2014 C2030 0.931 . S
C2015 H2003 0.929 . S
C2015 C2009 1.390 . S
C2015 C2012 1.386 . S
C2016 C2011 1.490 . S
C2016 C2018 1.395 . S
C2016 C2019 1.403 . S
H2017 C2023 0.930 . S
C2018 H2004 0.930 . S
C2018 C2016 1.395 . S
C2018 C2021 1.403 . S
C2019 C2016 1.403 . S
C2019 C2020 1.524 . S
C2019 C2023 1.400 . S
C2020 H2005 0.960 . S
C2020 H2006 0.960 . S
C2020 H2007 0.960 . S
C2020 C2019 1.524 . S
C2021 C2018 1.403 . S
C2021 C2022 1.392 . S
C2021 C2025 1.495 . S
C2022 C2021 1.392 . S
C2022 C2023 1.385 . S
C2022 C2024 1.478 . S
C2023 H2017 0.930 . S
C2023 C2019 1.400 . S
C2023 C2022 1.385 . S
C2024 C2022 1.478 . S
C2024 C2026 1.381 . S
C2024 C2030 1.383 . S
C2025 C2021 1.495 . S
C2025 H2031 0.959 . S
C2025 H2032 0.961 . S
C2025 H2033 0.960 . S
C2026 C2024 1.381 . S
C2026 C2027 1.394 . S
C2026 H2034 0.930 . S
C2027 C2026 1.394 . S
C2027 C2028 1.383 . S
C2027 H2035 0.929 . S
C2028 C2027 1.383 . S
C2028 C2029 1.377 . S
C2029 H2013 0.972 . S
C2029 C2028 1.377 . S
C2029 C2030 1.379 . S
C2030 H2014 0.931 . S
C2030 C2024 1.383 . S
C2030 C2029 1.379 . S
H2031 C2025 0.959 . S
H2032 C2025 0.961 . S
H2033 C2025 0.960 . S
H2034 C2026 0.930 . S
H2035 C2027 0.929 . S
H2036 C2044 0.929 1_545 S
H2037 C2046 0.930 . S
H2038 C2048 0.930 1_556 S
H2039 C2051 0.943 . S
H2040 C2054 0.930 . S
H2041 C2056 0.960 . S
H2042 C2056 0.960 . S
H2043 C2056 0.960 . S
C2044 H2036 0.929 1_565 S
C2044 C2045 1.377 . S
C2044 C2046 1.384 . S
C2045 C2044 1.377 . S
C2045 C2051 1.390 . S
C2046 H2037 0.930 . S
C2046 C2044 1.384 . S
C2046 C2047 1.372 . S
C2047 C2046 1.372 . S
C2047 C2048 1.400 . S
C2047 C2052 1.490 . S
C2048 H2038 0.930 1_554 S
C2048 C2047 1.400 . S
C2048 C2051 1.386 . S
H2049 C2065 0.917 1_556 S
H2050 C2066 0.931 1_556 S
C2051 H2039 0.943 . S
C2051 C2045 1.390 . S
C2051 C2048 1.386 . S
C2052 C2047 1.490 . S
C2052 C2054 1.395 . S
C2052 C2055 1.403 1_554 S
H2053 C2059 0.930 . S
C2054 H2040 0.930 . S
C2054 C2052 1.395 . S
C2054 C2057 1.403 . S
C2055 C2052 1.403 1_556 S
C2055 C2056 1.524 . S
C2055 C2059 1.400 . S
C2056 H2041 0.960 . S
C2056 H2042 0.960 . S
C2056 H2043 0.960 . S
C2056 C2055 1.524 . S
C2057 C2054 1.403 . S
C2057 C2058 1.392 . S
C2057 C2061 1.495 . S
C2058 C2057 1.392 . S
C2058 C2059 1.385 1_554 S
C2058 C2060 1.478 . S
C2059 H2053 0.930 . S
C2059 C2055 1.400 . S
C2059 C2058 1.385 1_556 S
C2060 C2058 1.478 . S
C2060 C2062 1.381 . S
C2060 C2066 1.383 . S
C2061 C2057 1.495 . S
C2061 H2067 0.959 . S
C2061 H2068 0.961 . S
C2061 H2069 0.960 . S
C2062 C2060 1.381 . S
C2062 C2063 1.394 . S
C2062 H2070 0.930 . S
C2063 C2062 1.394 . S
C2063 C2064 1.383 . S
C2063 H2071 0.929 . S
C2064 C2063 1.383 . S
C2064 C2065 1.384 . S
C2065 H2049 0.917 1_554 S
C2065 C2064 1.384 . S
C2065 C2066 1.385 . S
C2066 H2050 0.931 1_554 S
C2066 C2060 1.383 . S
C2066 C2065 1.385 . S
H2067 C2061 0.959 . S
H2068 C2061 0.961 . S
H2069 C2061 0.960 . S
H2070 C2062 0.930 . S
H2071 C2063 0.929 . S
C372 C187 1.129 . S
C353 C62 1.100 . S
C408 C195 1.459 . S
C389 C73 1.581 . S
C425 C84 1.423 . S
C444 C215 1.460 . S
C480 C229 1.190 . S
C461 C49 1.073 1_565 S
C516 C244 1.367 . S
C497 C118 1.364 . S
C552 C258 1.638 . S
C533 C137 1.379 . S
C569 C129 1.622 . S
C588 C272 1.635 . S
C624 C278 1.896 . S
C605 C106 1.878 . S
C641 C128 1.897 . S
C660 C292 1.929 . S
C696 C313 1.695 . S
C677 C104 1.513 . S
C713 C115 1.597 . S
C732 C293 1.626 . S
C768 C314 1.852 . S
C749 C139 1.774 . S
C785 C85 1.538 . S
C804 C321 1.305 . S
C821 C52 1.154 . S
C840 C327 1.155 . S
C857 C60 0.828 . S
C876 C320 0.857 . S
C893 C71 1.384 . S
C912 C328 1.508 . S
C929 C40 1.748 . S
C948 C222 1.762 1_565 S
C965 C162 1.028 . S
C984 C223 0.866 . S
C1020 C180 1.061 . S
C1001 C173 1.112 1_556 S
C1056 C201 1.694 . S
C1037 C93 1.569 . S
C1073 C51 1.372 1_545 S
C1092 C236 1.382 . S
C1128 C286 1.518 . S
C1109 C126 1.331 . S
C1164 C237 1.521 . S
C1145 C107 1.726 . S
C1200 C265 1.431 . S
C1181 C140 1.625 . S
C1236 C271 1.094 . S
C1217 C161 1.095 . S
C1253 C172 1.583 . S
C1272 C279 1.457 . S
C1289 C95 1.420 . S
C1308 C243 1.438 . S
C1344 C257 1.200 . S
C1325 C148 1.062 . S
C1361 C41 1.362 . S
C1380 C216 1.368 . S
C1416 C230 1.639 . S
C1397 C5 1.394 . S
C1452 C188 1.638 . S
C1433 C19 1.626 . S
C1488 C194 1.896 . S
C1469 C29 1.895 . S
C1505 C18 1.893 . S
C1524 C306 1.897 . S
C1541 C27 1.521 . S
C1560 C299 1.675 . S
C1577 C38 1.592 . S
C1596 C307 1.624 . S
C1613 C7 1.769 . S
C1632 C300 1.846 . S
C1668 C335 1.298 . S
C1649 C96 1.539 . S
C1704 C341 1.124 . S
C1685 C151 1.150 . S
C1740 C334 0.871 . S
C1721 C159 0.822 . S
C1757 C170 1.382 . S
C1776 C342 1.511 . S
C1793 C117 1.740 . S
C1812 C250 1.792 . S
C1848 C251 0.925 . S
C1829 C63 1.037 . S
C1884 C264 1.087 . S
C1865 C74 1.104 . S
C1920 C285 1.687 . S
C1901 C82 1.572 . S
C1937 C150 1.386 . S
C1956 C208 1.385 . S
C1992 C202 1.521 . S
C1973 C16 1.322 . S
C2009 C30 1.729 . S
C2028 C209 1.444 . S
C2064 C181 1.382 . S
C2045 C8 1.620 1_565 S
