# Generated by pormake.
# Topology ssa, (4,4)-cn, num edge types: 1
# Building blocks:
#     Node 0, Type 0, BuildingBlock: NAWXER_clean_sbu_0, # of connection points: 4
#     Node 1, Type 0, BuildingBlock: NAWXER_clean_sbu_0, # of connection points: 4
#     Node 2, Type 0, BuildingBlock: NAWXER_clean_sbu_0, # of connection points: 4
#     Node 3, Type 0, BuildingBlock: NAWXER_clean_sbu_0, # of connection points: 4
#     Node 4, Type 0, BuildingBlock: NAWXER_clean_sbu_0, # of connection points: 4
#     Node 5, Type 0, BuildingBlock: NAWXER_clean_sbu_0, # of connection points: 4
#     Node 6, Type 1, BuildingBlock: KOZSID_clean_sbu_0, # of connection points: 4
#     Node 7, Type 1, BuildingBlock: KOZSID_clean_sbu_0, # of connection points: 4
#     Node 8, Type 1, BuildingBlock: KOZSID_clean_sbu_0, # of connection points: 4
#     Node 9, Type 1, BuildingBlock: KOZSID_clean_sbu_0, # of connection points: 4
#     Node 10, Type 1, BuildingBlock: KOZSID_clean_sbu_0, # of connection points: 4
#     Node 11, Type 1, BuildingBlock: KOZSID_clean_sbu_0, # of connection points: 4
#     Edge 12, Type (0, 1), BuildingBlock: TEMPAE_clean_linker_10, # of connection points: 2
#     Edge 13, Type (0, 1), BuildingBlock: TEMPAE_clean_linker_10, # of connection points: 2
#     Edge 14, Type (0, 1), BuildingBlock: TEMPAE_clean_linker_10, # of connection points: 2
#     Edge 15, Type (0, 1), BuildingBlock: TEMPAE_clean_linker_10, # of connection points: 2
#     Edge 16, Type (0, 1), BuildingBlock: TEMPAE_clean_linker_10, # of connection points: 2
#     Edge 17, Type (0, 1), BuildingBlock: TEMPAE_clean_linker_10, # of connection points: 2
#     Edge 18, Type (0, 1), BuildingBlock: TEMPAE_clean_linker_10, # of connection points: 2
#     Edge 19, Type (0, 1), BuildingBlock: TEMPAE_clean_linker_10, # of connection points: 2
#     Edge 20, Type (0, 1), BuildingBlock: TEMPAE_clean_linker_10, # of connection points: 2
#     Edge 21, Type (0, 1), BuildingBlock: TEMPAE_clean_linker_10, # of connection points: 2
#     Edge 22, Type (0, 1), BuildingBlock: TEMPAE_clean_linker_10, # of connection points: 2
#     Edge 23, Type (0, 1), BuildingBlock: TEMPAE_clean_linker_10, # of connection points: 2
#     Edge 24, Type (0, 1), BuildingBlock: TEMPAE_clean_linker_10, # of connection points: 2
#     Edge 25, Type (0, 1), BuildingBlock: TEMPAE_clean_linker_10, # of connection points: 2
#     Edge 26, Type (0, 1), BuildingBlock: TEMPAE_clean_linker_10, # of connection points: 2
#     Edge 27, Type (0, 1), BuildingBlock: TEMPAE_clean_linker_10, # of connection points: 2
#     Edge 28, Type (0, 1), BuildingBlock: TEMPAE_clean_linker_10, # of connection points: 2
#     Edge 29, Type (0, 1), BuildingBlock: TEMPAE_clean_linker_10, # of connection points: 2
#     Edge 30, Type (0, 1), BuildingBlock: TEMPAE_clean_linker_10, # of connection points: 2
#     Edge 31, Type (0, 1), BuildingBlock: TEMPAE_clean_linker_10, # of connection points: 2
#     Edge 32, Type (0, 1), BuildingBlock: TEMPAE_clean_linker_10, # of connection points: 2
#     Edge 33, Type (0, 1), BuildingBlock: TEMPAE_clean_linker_10, # of connection points: 2
#     Edge 34, Type (0, 1), BuildingBlock: TEMPAE_clean_linker_10, # of connection points: 2
#     Edge 35, Type (0, 1), BuildingBlock: TEMPAE_clean_linker_10, # of connection points: 2
# Relax obj value: 0.020
# Max RMSD: 0.060
# Mean RMSD: 0.028
data_MOF--net-ssa--node1-NAWXER_clean_sbu_0--node2-KOZSID_clean_sbu_0--edge1-TEMPAE_clean_linker_10
_symmetry_space_group_name_H-M    P1
_symmetry_Int_Tables_number       1
_symmetry_cell_setting            triclinic
loop_
_symmetry_equiv_pos_as_xyz
'x, y, z'
_cell_length_a     53.244247
_cell_length_b     53.214758
_cell_length_c     37.251407
_cell_angle_alpha  93.433555
_cell_angle_beta   93.581221
_cell_angle_gamma 120.00878
loop_
_atom_site_label
_atom_site_type_symbol
_atom_site_fract_x
_atom_site_fract_y
_atom_site_fract_z
_atom_type_partial_charge
C0 C 0.01696 0.55155 0.02067 0.0
C1 C 0.95682 0.45352 0.96122 0.0
O2 O 0.99443 0.53054 0.03109 0.0
Zn3 Zn 0.98524 0.50277 0.98976 0.0
O4 O 0.02517 0.54868 0.9899 0.0
Zn5 Zn 0.0116 0.51521 0.94626 0.0
O6 O 1.00017 0.53018 0.90538 0.0
O7 O 0.96885 0.5168 0.94613 0.0
O8 O 0.97727 0.46985 0.94246 0.0
O9 O 0.95341 0.46409 0.99079 0.0
O10 O 0.02179 0.49596 0.99447 0.0
O11 O 0.04655 0.51193 0.94734 0.0
C12 C 0.97632 0.52652 0.91559 0.0
C13 C 0.04346 0.50056 0.97706 0.0
C14 C 0.48668 0.03095 0.57685 0.0
C15 C 0.5098 0.96522 0.50748 0.0
O16 O 0.49034 0.01076 0.5878 0.0
Zn17 Zn 0.49787 0.99726 0.54213 0.0
O18 O 0.48857 0.03568 0.54355 0.0
Zn19 Zn 0.49819 0.01873 0.496 0.0
O20 O 0.46393 0.00534 0.46322 0.0
O21 O 0.45744 0.97689 0.50682 0.0
O22 O 0.50701 0.98303 0.48809 0.0
O23 O 0.50701 0.96637 0.54112 0.0
O24 O 0.53923 0.03304 0.53349 0.0
O25 O 0.53365 0.05226 0.48482 0.0
C26 C 0.44775 0.98229 0.47758 0.0
C27 C 0.55 0.0521 0.51099 0.0
C28 C 0.52086 0.4706 0.0172 0.0
C29 C 0.54527 0.56397 0.08344 0.0
O30 O 0.51558 0.48694 0.9979 0.0
Zn31 Zn 0.52105 0.53007 0.00363 0.0
O32 O 0.53226 0.47973 0.04978 0.0
Zn33 Zn 0.53479 0.5175 0.05046 0.0
O34 O 0.48932 0.50546 0.04351 0.0
O35 O 0.48187 0.5216 0.99283 0.0
O36 O 0.54999 0.54447 0.09472 0.0
O37 O 0.53487 0.56099 0.0505 0.0
O38 O 0.54841 0.55015 0.96963 0.0
O39 O 0.56743 0.53773 0.01452 0.0
C40 C 0.47218 0.50844 0.02056 0.0
C41 C 0.56984 0.54898 0.98455 0.0
C42 C 0.03533 0.53909 0.48477 0.0
C43 C 0.97885 0.45129 0.54623 0.0
O44 O 0.04186 0.53441 0.51614 0.0
Zn45 Zn 0.00901 0.4947 0.5156 0.0
O46 O 0.0124 0.51906 0.46542 0.0
Zn47 Zn 0.97779 0.47547 0.46901 0.0
O48 O 0.94422 0.48016 0.4633 0.0
O49 O 0.97189 0.50065 0.5154 0.0
O50 O 0.96768 0.44969 0.51405 0.0
O51 O 0.00373 0.47315 0.55779 0.0
O52 O 0.01878 0.47133 0.47565 0.0
O53 O 0.98314 0.45272 0.43122 0.0
C54 C 0.94892 0.49392 0.49437 0.0
C55 C 0.00741 0.45648 0.44474 0.0
C56 C 0.53259 0.9868 0.05684 0.0
C57 C 0.49055 0.04516 0.0193 0.0
O58 O 0.53745 0.01113 0.07182 0.0
Zn59 Zn 0.51087 0.01571 0.03937 0.0
O60 O 0.51464 0.975 0.02806 0.0
Zn61 Zn 0.48733 0.9847 0.99349 0.0
O62 O 0.50479 0.98978 0.94764 0.0
O63 O 0.5322 0.02503 0.99095 0.0
O64 O 0.48159 0.02184 0.99791 0.0
O65 O 0.50721 0.04983 0.04794 0.0
O66 O 0.46928 0.98009 0.04913 0.0
O67 O 0.4482 0.95221 0.99765 0.0
C68 C 0.52785 0.01409 0.95802 0.0
C69 C 0.44756 0.95747 0.03125 0.0
C70 C 0.53374 0.48698 0.48533 0.0
C71 C 0.43694 0.45859 0.42564 0.0
O72 O 0.51844 0.49335 0.50516 0.0
Zn73 Zn 0.47515 0.48733 0.50246 0.0
O74 O 0.523 0.4737 0.45375 0.0
Zn75 Zn 0.4852 0.47088 0.45537 0.0
O76 O 0.49685 0.51618 0.45843 0.0
O77 O 0.48361 0.52698 0.50959 0.0
O78 O 0.45559 0.45295 0.41356 0.0
O79 O 0.44178 0.47085 0.45797 0.0
O80 O 0.4584 0.46204 0.54018 0.0
O81 O 0.46881 0.44118 0.49531 0.0
C82 C 0.49492 0.53465 0.48019 0.0
C83 C 0.45991 0.44042 0.52659 0.0
C84 C 0.20089 0.49335 0.16813 0.0
C85 C 0.20696 0.52183 0.16623 0.0
C86 C 0.2283 0.53875 0.19349 0.0
C87 C 0.23432 0.51987 0.21025 0.0
N88 N 0.21822 0.49184 0.19524 0.0
Co89 Co 0.22093 0.45762 0.21057 0.0
N90 N 0.25427 0.48316 0.2485 0.0
C91 C 0.26647 0.51229 0.25682 0.0
C92 C 0.28934 0.524 0.28352 0.0
C93 C 0.29241 0.50111 0.29232 0.0
C94 C 0.27126 0.47668 0.27016 0.0
N95 N 0.22342 0.42341 0.22647 0.0
C96 C 0.24351 0.42256 0.24997 0.0
C97 C 0.23795 0.39422 0.25142 0.0
C98 C 0.21355 0.3766 0.22819 0.0
C99 C 0.20568 0.39503 0.21367 0.0
N100 N 0.18822 0.43222 0.17187 0.0
C101 C 0.17554 0.40296 0.16442 0.0
C102 C 0.15335 0.39132 0.13685 0.0
C103 C 0.15181 0.41452 0.1258 0.0
C104 C 0.17342 0.43919 0.14719 0.0
N105 N 0.24933 0.46376 0.1755 0.0
C106 C 0.29213 0.47246 0.12927 0.0
C107 C 0.26947 0.44438 0.13311 0.0
C108 C 0.24832 0.44058 0.15595 0.0
C109 C 0.29228 0.49612 0.1479 0.0
C110 C 0.27098 0.49131 0.17085 0.0
N111 N 0.19222 0.45146 0.24576 0.0
C112 C 0.14548 0.42105 0.26776 0.0
C113 C 0.14886 0.44455 0.29058 0.0
C114 C 0.1749 0.47115 0.29187 0.0
C115 C 0.19602 0.47409 0.26947 0.0
C116 C 0.16733 0.42491 0.24597 0.0
H117 H 0.215 0.49506 0.2716 0.0
H118 H 0.16324 0.40616 0.22913 0.0
H119 H 0.23167 0.41866 0.15794 0.0
H120 H 0.27275 0.51022 0.18497 0.0
C121 C 0.25639 0.52817 0.23842 0.0
C122 C 0.17857 0.4686 0.14348 0.0
C123 C 0.26892 0.44808 0.26992 0.0
C124 C 0.18423 0.38687 0.18473 0.0
H125 H 0.19723 0.52974 0.14693 0.0
H126 H 0.23867 0.56215 0.19983 0.0
H127 H 0.30254 0.54657 0.29479 0.0
H128 H 0.30872 0.50238 0.31238 0.0
H129 H 0.25066 0.38698 0.26668 0.0
H130 H 0.20359 0.35329 0.22136 0.0
H131 H 0.13966 0.36861 0.12635 0.0
H132 H 0.13625 0.41325 0.10461 0.0
H133 H 0.26846 0.42529 0.11949 0.0
H134 H 0.30897 0.51835 0.1452 0.0
H135 H 0.12573 0.39993 0.26586 0.0
H136 H 0.17899 0.48983 0.30993 0.0
C137 C 0.72082 0.21979 0.68559 0.0
C138 C 0.7033 0.23008 0.67149 0.0
C139 C 0.70365 0.24911 0.69798 0.0
C140 C 0.7214 0.24948 0.72651 0.0
N141 N 0.73269 0.23205 0.71972 0.0
Co142 Co 0.76015 0.22654 0.75307 0.0
N143 N 0.76108 0.25494 0.79159 0.0
C144 C 0.74582 0.26901 0.79083 0.0
C145 C 0.7518 0.28766 0.82132 0.0
C146 C 0.77271 0.28596 0.84239 0.0
C147 C 0.77824 0.26636 0.8233 0.0
N148 N 0.78764 0.22116 0.78671 0.0
C149 C 0.80317 0.23706 0.81819 0.0
C150 C 0.82156 0.22776 0.83205 0.0
C151 C 0.81778 0.20536 0.80813 0.0
C152 C 0.7975 0.2024 0.7811 0.0
N153 N 0.75952 0.19836 0.71431 0.0
C154 C 0.77394 0.18346 0.71614 0.0
C155 C 0.76887 0.16539 0.68544 0.0
C156 C 0.74995 0.16878 0.66268 0.0
C157 C 0.74461 0.18892 0.68087 0.0
N158 N 0.79397 0.25899 0.73352 0.0
C159 C 0.84068 0.30356 0.70174 0.0
C160 C 0.84101 0.2785 0.71049 0.0
C161 C 0.81765 0.25668 0.72601 0.0
C162 C 0.81687 0.30625 0.71057 0.0
C163 C 0.79414 0.28408 0.72662 0.0
N164 N 0.72617 0.19385 0.77269 0.0
C165 C 0.70161 0.14486 0.79108 0.0
C166 C 0.67912 0.14836 0.80331 0.0
C167 C 0.6803 0.17485 0.79893 0.0
C168 C 0.70359 0.1969 0.7835 0.0
C169 C 0.72464 0.16761 0.77611 0.0
H170 H 0.70284 0.21629 0.78089 0.0
H171 H 0.74093 0.16334 0.7676 0.0
H172 H 0.81912 0.23801 0.73148 0.0
H173 H 0.77673 0.28752 0.73282 0.0
C174 C 0.72798 0.26606 0.75988 0.0
C175 C 0.72393 0.19706 0.66622 0.0
C176 C 0.80274 0.26251 0.83384 0.0
C177 C 0.7909 0.18577 0.74775 0.0
H178 H 0.69113 0.22401 0.64498 0.0
H179 H 0.69218 0.2611 0.69668 0.0
H180 H 0.74307 0.30184 0.82679 0.0
H181 H 0.78384 0.29882 0.86796 0.0
H182 H 0.83697 0.2369 0.85609 0.0
H183 H 0.82977 0.19388 0.80919 0.0
H184 H 0.77739 0.15095 0.68051 0.0
H185 H 0.74071 0.15724 0.63602 0.0
H186 H 0.85919 0.27552 0.70531 0.0
H187 H 0.81524 0.32502 0.70432 0.0
H188 H 0.70155 0.12461 0.79295 0.0
H189 H 0.66368 0.17899 0.80812 0.0
C190 C 0.54209 0.74192 0.23014 0.0
C191 C 0.5191 0.72542 0.20342 0.0
C192 C 0.5002 0.73579 0.20554 0.0
C193 C 0.51273 0.75802 0.23321 0.0
N194 N 0.53825 0.76223 0.24857 0.0
Co195 Co 0.56366 0.79209 0.28895 0.0
N196 N 0.53094 0.79678 0.3039 0.0
C197 C 0.50606 0.78877 0.2828 0.0
C198 C 0.48803 0.79634 0.29896 0.0
C199 C 0.50259 0.81039 0.33208 0.0
C200 C 0.52887 0.81054 0.33445 0.0
N201 N 0.58921 0.82186 0.32952 0.0
C202 C 0.58215 0.83263 0.35869 0.0
C203 C 0.60709 0.85248 0.38115 0.0
C204 C 0.63044 0.85499 0.36472 0.0
C205 C 0.61859 0.83634 0.33348 0.0
N206 N 0.5962 0.78741 0.27328 0.0
C207 C 0.62483 0.80616 0.28251 0.0
C208 C 0.64206 0.79614 0.26922 0.0
C209 C 0.62307 0.76947 0.25049 0.0
C210 C 0.59518 0.7648 0.25307 0.0
N211 N 0.57314 0.82288 0.25712 0.0
C212 C 0.57674 0.86285 0.2095 0.0
C213 C 0.57482 0.86769 0.24624 0.0
C214 C 0.57316 0.84759 0.26953 0.0
C215 C 0.57915 0.83876 0.19746 0.0
C216 C 0.57737 0.81901 0.22182 0.0
N217 N 0.55399 0.76142 0.32071 0.0
C218 C 0.56919 0.73802 0.36302 0.0
C219 C 0.54016 0.71595 0.36401 0.0
C220 C 0.51819 0.71756 0.34329 0.0
C221 C 0.52557 0.7403 0.3217 0.0
C222 C 0.57559 0.7606 0.34147 0.0
H223 H 0.50826 0.74062 0.30551 0.0
H224 H 0.5981 0.77714 0.34118 0.0
H225 H 0.57049 0.85151 0.29728 0.0
H226 H 0.57807 0.79996 0.21176 0.0
C227 C 0.49909 0.77161 0.2497 0.0
C228 C 0.56814 0.73924 0.23561 0.0
C229 C 0.55272 0.82741 0.36366 0.0
C230 C 0.63399 0.8289 0.31009 0.0
H231 H 0.51635 0.70784 0.18435 0.0
H232 H 0.4793 0.7273 0.18978 0.0
H233 H 0.46675 0.79203 0.28809 0.0
H234 H 0.49501 0.82026 0.35156 0.0
H235 H 0.60835 0.86445 0.40637 0.0
H236 H 0.65328 0.86828 0.37483 0.0
H237 H 0.66549 0.80605 0.27456 0.0
H238 H 0.62921 0.755 0.23726 0.0
H239 H 0.57352 0.8864 0.25673 0.0
H240 H 0.58084 0.8344 0.16921 0.0
H241 H 0.58701 0.73757 0.37805 0.0
H242 H 0.4954 0.70134 0.34358 0.0
C243 C 0.7241 0.54616 0.66584 0.0
C244 C 0.72224 0.56989 0.65544 0.0
C245 C 0.74228 0.59375 0.67833 0.0
C246 C 0.75515 0.58339 0.70153 0.0
N247 N 0.74463 0.55453 0.69443 0.0
Co248 Co 0.75607 0.53092 0.7231 0.0
N249 N 0.79275 0.56602 0.74517 0.0
C250 C 0.79869 0.59378 0.74598 0.0
C251 C 0.82641 0.61353 0.76147 0.0
C252 C 0.83854 0.59712 0.77122 0.0
C253 C 0.81734 0.56811 0.76149 0.0
N254 N 0.76722 0.50744 0.75239 0.0
C255 C 0.79347 0.51451 0.7694 0.0
C256 C 0.79128 0.49191 0.78836 0.0
C257 C 0.7627 0.46992 0.78259 0.0
C258 C 0.749 0.48033 0.76075 0.0
N259 N 0.71968 0.49563 0.70082 0.0
C260 C 0.70713 0.4692 0.71321 0.0
C261 C 0.68285 0.44859 0.69134 0.0
C262 C 0.67971 0.46304 0.66374 0.0
C263 C 0.70208 0.49195 0.67064 0.0
N264 N 0.77669 0.52693 0.68386 0.0
C265 C 0.80695 0.52165 0.62792 0.0
C266 C 0.78991 0.49777 0.64687 0.0
C267 C 0.77473 0.50078 0.67439 0.0
C268 C 0.80803 0.54809 0.63737 0.0
C269 C 0.79311 0.55036 0.66564 0.0
N270 N 0.73529 0.53509 0.76227 0.0
C271 C 0.69255 0.53391 0.78162 0.0
C272 C 0.70557 0.54245 0.81731 0.0
C273 C 0.73376 0.5472 0.82508 0.0
C274 C 0.74816 0.54311 0.79718 0.0
C275 C 0.70779 0.53054 0.75455 0.0
H276 H 0.76973 0.54654 0.80383 0.0
H277 H 0.69729 0.52445 0.72728 0.0
H278 H 0.7617 0.48203 0.68834 0.0
H279 H 0.79502 0.57119 0.67284 0.0
C280 C 0.7799 0.60048 0.7263 0.0
C281 C 0.70413 0.51577 0.65039 0.0
C282 C 0.82027 0.54293 0.76995 0.0
C283 C 0.72108 0.46365 0.74216 0.0
H284 H 0.70762 0.56997 0.63398 0.0
H285 H 0.74735 0.61609 0.67751 0.0
H286 H 0.83705 0.6371 0.76385 0.0
H287 H 0.86049 0.60568 0.78387 0.0
H288 H 0.80849 0.49134 0.80472 0.0
H289 H 0.75334 0.44849 0.79195 0.0
H290 H 0.66957 0.42559 0.69438 0.0
H291 H 0.66261 0.45338 0.64143 0.0
H292 H 0.78877 0.47701 0.64123 0.0
H293 H 0.82045 0.56706 0.62326 0.0
H294 H 0.67086 0.53031 0.77456 0.0
H295 H 0.7444 0.55364 0.8525 0.0
C296 C 0.24718 0.82528 0.30788 0.0
C297 C 0.24218 0.84758 0.31933 0.0
C298 C 0.21459 0.8395 0.30496 0.0
C299 C 0.20445 0.81304 0.28523 0.0
N300 N 0.22395 0.80396 0.28617 0.0
Co301 Co 0.21913 0.76805 0.25954 0.0
N302 N 0.18578 0.76339 0.22684 0.0
C303 C 0.17081 0.77737 0.23179 0.0
C304 C 0.14973 0.77078 0.20391 0.0
C305 C 0.15108 0.75099 0.18018 0.0
C306 C 0.17275 0.7463 0.19526 0.0
N307 N 0.21439 0.73209 0.23303 0.0
C308 C 0.19798 0.71672 0.20167 0.0
C309 C 0.19986 0.69183 0.19417 0.0
C310 C 0.21762 0.69142 0.22201 0.0
C311 C 0.22559 0.71592 0.24494 0.0
N312 N 0.25231 0.77274 0.29248 0.0
C313 C 0.25881 0.75187 0.29861 0.0
C314 C 0.28268 0.76141 0.3235 0.0
C315 C 0.29169 0.79007 0.33376 0.0
C316 C 0.27277 0.7964 0.31432 0.0
N317 N 0.19212 0.74407 0.2933 0.0
C318 C 0.1585 0.70509 0.34156 0.0
C319 C 0.18231 0.73261 0.35441 0.0
C320 C 0.19883 0.75175 0.32985 0.0
C321 C 0.15082 0.69833 0.30415 0.0
C322 C 0.16767 0.71814 0.28061 0.0
N323 N 0.24641 0.79179 0.2259 0.0
C324 C 0.28914 0.80446 0.19528 0.0
C325 C 0.28641 0.82602 0.17843 0.0
C326 C 0.26294 0.82987 0.18607 0.0
C327 C 0.24347 0.81281 0.21001 0.0
C328 C 0.26888 0.7875 0.2184 0.0
H329 H 0.22603 0.8167 0.21563 0.0
H330 H 0.27163 0.77103 0.23048 0.0
H331 H 0.21773 0.77229 0.34051 0.0
H332 H 0.1614 0.71187 0.25206 0.0
C333 C 0.17979 0.79945 0.26005 0.0
C334 C 0.27352 0.82428 0.31919 0.0
C335 C 0.17699 0.72239 0.18154 0.0
C336 C 0.24526 0.72559 0.2762 0.0
H337 H 0.25693 0.86778 0.33592 0.0
H338 H 0.20391 0.85223 0.30695 0.0
H339 H 0.13552 0.77976 0.20079 0.0
H340 H 0.13705 0.74046 0.15518 0.0
H341 H 0.18871 0.67503 0.1717 0.0
H342 H 0.22394 0.67518 0.22514 0.0
H343 H 0.29296 0.74934 0.33217 0.0
H344 H 0.30995 0.80457 0.35346 0.0
H345 H 0.18889 0.7388 0.38315 0.0
H346 H 0.13216 0.67758 0.29306 0.0
H347 H 0.30707 0.80083 0.19123 0.0
H348 H 0.25935 0.84579 0.17352 0.0
C349 C 0.47166 0.28138 0.836 0.0
C350 C 0.44623 0.28135 0.84264 0.0
C351 C 0.42509 0.26272 0.81578 0.0
C352 C 0.43864 0.25247 0.79418 0.0
N353 N 0.46693 0.26317 0.80601 0.0
Co354 Co 0.49453 0.25536 0.78077 0.0
N355 N 0.46219 0.22038 0.75129 0.0
C356 C 0.43445 0.21432 0.74531 0.0
C357 C 0.417 0.1889 0.72322 0.0
C358 C 0.43495 0.17837 0.71465 0.0
C359 C 0.46243 0.19798 0.73219 0.0
N360 N 0.52199 0.24764 0.75505 0.0
C361 C 0.51738 0.22279 0.73627 0.0
C362 C 0.54331 0.22634 0.72516 0.0
C363 C 0.56449 0.25457 0.73629 0.0
C364 C 0.55061 0.26659 0.7541 0.0
N365 N 0.52702 0.29019 0.81043 0.0
C366 C 0.5552 0.30418 0.8039 0.0
C367 C 0.57302 0.32667 0.82988 0.0
C368 C 0.5549 0.3272 0.854 0.0
C369 C 0.5268 0.30517 0.84105 0.0
N370 N 0.49425 0.23085 0.81781 0.0
C371 C 0.49339 0.19558 0.87101 0.0
C372 C 0.51976 0.21603 0.85902 0.0
C373 C 0.51972 0.23345 0.83247 0.0
C374 C 0.46749 0.19326 0.85585 0.0
C375 C 0.46839 0.21102 0.82932 0.0
N376 N 0.49448 0.27999 0.74379 0.0
C377 C 0.494 0.32308 0.72861 0.0
C378 C 0.48713 0.31233 0.69208 0.0
C379 C 0.48519 0.28568 0.68157 0.0
C380 C 0.48947 0.27007 0.70783 0.0
C381 C 0.49734 0.30651 0.75401 0.0
H382 H 0.48786 0.24957 0.69914 0.0
H383 H 0.50131 0.31487 0.78205 0.0
H384 H 0.5403 0.24899 0.82382 0.0
H385 H 0.44808 0.20857 0.81796 0.0
C386 C 0.42489 0.23048 0.76523 0.0
C387 C 0.50037 0.30154 0.85606 0.0
C388 C 0.48866 0.19611 0.7274 0.0
C389 C 0.56467 0.29281 0.77664 0.0
H390 H 0.44335 0.29405 0.86404 0.0
H391 H 0.40246 0.25708 0.81266 0.0
H392 H 0.39383 0.17874 0.71519 0.0
H393 H 0.42861 0.15872 0.69712 0.0
H394 H 0.5469 0.21026 0.71104 0.0
H395 H 0.58759 0.26451 0.73372 0.0
H396 H 0.5965 0.34043 0.83173 0.0
H397 H 0.5616 0.34245 0.87803 0.0
H398 H 0.54033 0.21871 0.87022 0.0
H399 H 0.44657 0.17743 0.86389 0.0
H400 H 0.49564 0.34364 0.73763 0.0
H401 H 0.48021 0.27693 0.65338 0.0
C402 C 0.09478 0.51555 0.99904 0.0
C403 C 0.06521 0.49403 0.99348 0.0
C404 C 0.11467 0.51157 0.02117 0.0
C405 C 0.10481 0.48511 0.03715 0.0
C406 C 0.07527 0.46263 0.02958 0.0
C407 C 0.05573 0.4676 0.00841 0.0
C408 C 0.14575 0.53638 0.02934 0.0
C409 C 0.06397 0.43379 0.04514 0.0
C410 C 0.1603 0.46695 0.07893 0.0
C411 C 0.15998 0.47316 0.11595 0.0
C412 C 0.14245 0.47066 0.05288 0.0
C413 C 0.12457 0.48172 0.06413 0.0
C414 C 0.12473 0.48863 0.10153 0.0
C415 C 0.14202 0.48375 0.12697 0.0
C416 C 0.14229 0.46224 0.01342 0.0
C417 C 0.10654 0.50108 0.11473 0.0
H418 H 0.10196 0.53621 0.98803 0.0
H419 H 0.03279 0.45101 0.00418 0.0
H420 H 0.14976 0.54495 0.0583 0.0
H421 H 0.16123 0.52862 0.02469 0.0
H422 H 0.15057 0.55456 0.01262 0.0
H423 H 0.04151 0.41742 0.03309 0.0
H424 H 0.07853 0.42486 0.04061 0.0
H425 H 0.06373 0.43703 0.07479 0.0
H426 H 0.17426 0.4588 0.07046 0.0
H427 H 0.14171 0.48843 0.15562 0.0
H428 H 0.14851 0.48129 0.9979 0.0
H429 H 0.11994 0.44506 0.00216 0.0
H430 H 0.15747 0.45399 0.00913 0.0
H431 H 0.1112 0.52071 0.10106 0.0
H432 H 0.1107 0.5072 0.14444 0.0
H433 H 0.08304 0.48485 0.10784 0.0
C434 C 0.60084 0.06824 0.53402 0.0
C435 C 0.58072 0.07513 0.51849 0.0
C436 C 0.62795 0.09018 0.55091 0.0
C437 C 0.6346 0.11954 0.55298 0.0
C438 C 0.61559 0.12681 0.53402 0.0
C439 C 0.58878 0.10437 0.51662 0.0
C440 C 0.64791 0.08156 0.57004 0.0
C441 C 0.62192 0.15786 0.53562 0.0
C442 C 0.67261 0.16065 0.64413 0.0
C443 C 0.70136 0.17793 0.6364 0.0
C444 C 0.65057 0.14237 0.6168 0.0
C445 C 0.65766 0.14105 0.58095 0.0
C446 C 0.6867 0.15881 0.57289 0.0
C447 C 0.7083 0.17733 0.60085 0.0
C448 C 0.61979 0.12403 0.62652 0.0
C449 C 0.69501 0.15771 0.53509 0.0
H450 H 0.5946 0.04554 0.53502 0.0
H451 H 0.57311 0.10962 0.50462 0.0
H452 H 0.67102 0.09694 0.56634 0.0
H453 H 0.6458 0.08237 0.59948 0.0
H454 H 0.64243 0.0591 0.56016 0.0
H455 H 0.60856 0.16065 0.51382 0.0
H456 H 0.61676 0.16387 0.56206 0.0
H457 H 0.64532 0.17325 0.53343 0.0
H458 H 0.66746 0.16142 0.67176 0.0
H459 H 0.73065 0.19106 0.59514 0.0
H460 H 0.61281 0.10055 0.62188 0.0
H461 H 0.6045 0.12766 0.60902 0.0
H462 H 0.61775 0.12902 0.65522 0.0
H463 H 0.6924 0.136 0.52739 0.0
H464 H 0.71793 0.17472 0.53273 0.0
H465 H 0.68034 0.16053 0.5154 0.0
C466 C 0.57 0.59967 0.13926 0.0
C467 C 0.55 0.58928 0.1081 0.0
C468 C 0.57462 0.62404 0.16209 0.0
C469 C 0.5583 0.6378 0.15403 0.0
C470 C 0.53762 0.62691 0.12303 0.0
C471 C 0.534 0.60307 0.10029 0.0
C472 C 0.59727 0.63536 0.19447 0.0
C473 C 0.51925 0.64042 0.11381 0.0
C474 C 0.54936 0.68556 0.22652 0.0
C475 C 0.56801 0.71357 0.21698 0.0
C476 C 0.54657 0.66069 0.20696 0.0
C477 C 0.56308 0.66398 0.17735 0.0
C478 C 0.58248 0.69236 0.16821 0.0
C479 C 0.58429 0.71676 0.1877 0.0
C480 C 0.52509 0.63087 0.21707 0.0
C481 C 0.60067 0.69694 0.1371 0.0
H482 H 0.58246 0.58914 0.14539 0.0
H483 H 0.51822 0.59494 0.07651 0.0
H484 H 0.61416 0.65832 0.19222 0.0
H485 H 0.58707 0.63523 0.21958 0.0
H486 H 0.60808 0.62221 0.19711 0.0
H487 H 0.50313 0.62845 0.08976 0.0
H488 H 0.50735 0.64077 0.13707 0.0
H489 H 0.53347 0.66337 0.10834 0.0
H490 H 0.53637 0.68312 0.24876 0.0
H491 H 0.59796 0.73833 0.17949 0.0
H492 H 0.53592 0.61791 0.22113 0.0
H493 H 0.50732 0.61891 0.19466 0.0
H494 H 0.51524 0.63208 0.24208 0.0
H495 H 0.61242 0.68469 0.13941 0.0
H496 H 0.61688 0.72035 0.13593 0.0
H497 H 0.58629 0.68841 0.11121 0.0
C498 C 0.90922 0.50604 0.48663 0.0
C499 C 0.92656 0.49897 0.5087 0.0
C500 C 0.88805 0.51086 0.50114 0.0
C501 C 0.88374 0.50754 0.5381 0.0
C502 C 0.90078 0.49964 0.5601 0.0
C503 C 0.92225 0.49587 0.54523 0.0
C504 C 0.87073 0.52 0.47725 0.0
C505 C 0.89638 0.49512 0.59942 0.0
C506 C 0.85272 0.54304 0.59701 0.0
C507 C 0.82482 0.5194 0.60012 0.0
C508 C 0.87123 0.54019 0.57411 0.0
C509 C 0.86199 0.51284 0.55466 0.0
C510 C 0.83333 0.48937 0.55598 0.0
C511 C 0.81495 0.49307 0.57834 0.0
C512 C 0.90148 0.56591 0.57284 0.0
C513 C 0.82282 0.45972 0.53603 0.0
H514 H 0.91265 0.50839 0.45836 0.0
H515 H 0.93535 0.48986 0.56211 0.0
H516 H 0.84703 0.50454 0.47719 0.0
H517 H 0.87495 0.5418 0.48812 0.0
H518 H 0.87631 0.52105 0.44893 0.0
H519 H 0.91036 0.48737 0.61211 0.0
H520 H 0.90148 0.51589 0.61486 0.0
H521 H 0.87325 0.47892 0.60197 0.0
H522 H 0.86084 0.56344 0.61383 0.0
H523 H 0.79315 0.47492 0.57967 0.0
H524 H 0.90729 0.56803 0.54465 0.0
H525 H 0.91761 0.56249 0.58884 0.0
H526 H 0.90346 0.5867 0.58415 0.0
H527 H 0.82817 0.46171 0.50767 0.0
H528 H 0.79893 0.44501 0.53595 0.0
H529 H 0.83413 0.4494 0.54924 0.0
C530 C 0.4275 0.93534 0.08749 0.0
C531 C 0.42274 0.93732 0.05055 0.0
C532 C 0.40462 0.91655 0.10671 0.0
C533 C 0.37595 0.89982 0.08891 0.0
C534 C 0.37092 0.90187 0.05162 0.0
C535 C 0.39446 0.92028 0.03275 0.0
C536 C 0.41121 0.9145 0.14611 0.0
C537 C 0.3406 0.88498 0.03184 0.0
C538 C 0.32201 0.83325 0.13261 0.0
C539 C 0.30814 0.84452 0.15369 0.0
C540 C 0.34375 0.85082 0.11109 0.0
C541 C 0.35142 0.8803 0.10956 0.0
C542 C 0.33678 0.89157 0.12953 0.0
C543 C 0.31569 0.87375 0.15164 0.0
C544 C 0.35913 0.83801 0.09079 0.0
C545 C 0.34389 0.92273 0.12822 0.0
H546 H 0.44937 0.9482 0.10134 0.0
H547 H 0.39062 0.92185 0.00426 0.0
H548 H 0.39907 0.92166 0.16305 0.0
H549 H 0.40386 0.8915 0.15052 0.0
H550 H 0.43484 0.92809 0.15559 0.0
H551 H 0.34023 0.88925 0.00304 0.0
H552 H 0.33156 0.86124 0.03297 0.0
H553 H 0.32595 0.89088 0.04526 0.0
H554 H 0.31603 0.8106 0.13297 0.0
H555 H 0.30568 0.8831 0.16799 0.0
H556 H 0.38275 0.85016 0.10048 0.0
H557 H 0.3571 0.8403 0.06152 0.0
H558 H 0.35029 0.81456 0.09424 0.0
H559 H 0.3664 0.93785 0.14103 0.0
H560 H 0.32867 0.92736 0.14241 0.0
H561 H 0.34301 0.92752 0.09973 0.0
C562 C 0.46292 0.39577 0.53476 0.0
C563 C 0.4563 0.41669 0.54854 0.0
C564 C 0.46551 0.37668 0.55701 0.0
C565 C 0.46092 0.37818 0.59387 0.0
C566 C 0.45223 0.39781 0.60738 0.0
C567 C 0.45017 0.41698 0.58459 0.0
C568 C 0.475 0.35623 0.54157 0.0
C569 C 0.44661 0.39964 0.6464 0.0
C570 C 0.45299 0.31612 0.64682 0.0
C571 C 0.48086 0.32853 0.66555 0.0
C572 C 0.44597 0.33215 0.62374 0.0
C573 C 0.4676 0.36097 0.61878 0.0
C574 C 0.496 0.37332 0.63718 0.0
C575 C 0.50215 0.35705 0.66076 0.0
C576 C 0.41536 0.31847 0.60514 0.0
C577 C 0.51988 0.40373 0.63197 0.0
H578 H 0.46764 0.39526 0.50693 0.0
H579 H 0.44496 0.43297 0.59546 0.0
H580 H 0.49726 0.36309 0.55404 0.0
H581 H 0.4603 0.33368 0.54803 0.0
H582 H 0.4753 0.35598 0.51176 0.0
H583 H 0.43676 0.41345 0.6516 0.0
H584 H 0.43188 0.37753 0.65424 0.0
H585 H 0.46746 0.40904 0.66411 0.0
H586 H 0.43647 0.29415 0.65105 0.0
H587 H 0.52367 0.36654 0.67543 0.0
H588 H 0.41578 0.31773 0.57537 0.0
H589 H 0.40565 0.33198 0.61283 0.0
H590 H 0.40101 0.29596 0.61217 0.0
H591 H 0.52325 0.40536 0.6029 0.0
H592 H 0.54094 0.40984 0.64762 0.0
H593 H 0.51343 0.41985 0.64049 0.0
C594 C 0.53498 0.9361 0.50782 0.0
C595 C 0.51571 0.94324 0.49021 0.0
C596 C 0.54211 0.91665 0.49034 0.0
C597 C 0.52883 0.90332 0.45496 0.0
C598 C 0.50841 0.90963 0.43775 0.0
C599 C 0.50252 0.9299 0.45533 0.0
C600 C 0.56462 0.91121 0.50915 0.0
C601 C 0.49309 0.89529 0.40051 0.0
C602 C 0.56421 0.87726 0.3884 0.0
C603 C 0.54927 0.84708 0.39065 0.0
C604 C 0.55898 0.89595 0.41076 0.0
C605 C 0.53733 0.88407 0.4349 0.0
C606 C 0.52242 0.85361 0.43764 0.0
C607 C 0.52888 0.83551 0.41579 0.0
C608 C 0.5759 0.92832 0.40753 0.0
C609 C 0.49856 0.83994 0.46216 0.0
H610 H 0.54532 0.94658 0.53473 0.0
H611 H 0.48736 0.93519 0.44185 0.0
H612 H 0.5556 0.88749 0.51039 0.0
H613 H 0.58374 0.91902 0.49344 0.0
H614 H 0.57219 0.92245 0.53707 0.0
H615 H 0.47581 0.90038 0.39242 0.0
H616 H 0.50912 0.90279 0.3803 0.0
H617 H 0.48305 0.87125 0.39955 0.0
H618 H 0.57953 0.88618 0.36842 0.0
H619 H 0.51705 0.81212 0.4171 0.0
H620 H 0.58466 0.94072 0.43471 0.0
H621 H 0.5612 0.9352 0.39485 0.0
H622 H 0.59432 0.93439 0.39088 0.0
H623 H 0.50647 0.85104 0.49007 0.0
H624 H 0.49042 0.81629 0.46298 0.0
H625 H 0.48003 0.8427 0.45251 0.0
C626 C 0.61631 0.54913 0.97847 0.0
C627 C 0.59574 0.5564 0.96523 0.0
C628 C 0.63761 0.55029 0.95725 0.0
C629 C 0.63854 0.55923 0.92213 0.0
C630 C 0.61943 0.56891 0.9098 0.0
C631 C 0.59814 0.56727 0.93147 0.0
C632 C 0.65754 0.53973 0.97134 0.0
C633 C 0.6201 0.57904 0.87268 0.0
C634 C 0.70187 0.57243 0.86877 0.0
C635 C 0.68946 0.54627 0.84598 0.0
C636 C 0.68566 0.57704 0.894 0.0
C637 C 0.65663 0.55476 0.89664 0.0
C638 C 0.64439 0.52797 0.87439 0.0
C639 C 0.66091 0.52415 0.84915 0.0
C640 C 0.69928 0.60593 0.91709 0.0
C641 C 0.61367 0.50345 0.87684 0.0
H642 H 0.61476 0.54086 0.00462 0.0
H643 H 0.58251 0.57318 0.92118 0.0
H644 H 0.65083 0.51816 0.95673 0.0
H645 H 0.68039 0.55491 0.96637 0.0
H646 H 0.65684 0.53738 0.00075 0.0
H647 H 0.60676 0.58961 0.86917 0.0
H648 H 0.64282 0.59467 0.86767 0.0
H649 H 0.61145 0.56005 0.85185 0.0
H650 H 0.7239 0.5896 0.86602 0.0
H651 H 0.65148 0.50383 0.83168 0.0
H652 H 0.69791 0.60242 0.94613 0.0
H653 H 0.68704 0.6172 0.9106 0.0
H654 H 0.7225 0.62046 0.9129 0.0
H655 H 0.6111 0.49747 0.90495 0.0
H656 H 0.60785 0.48365 0.85849 0.0
H657 H 0.5979 0.5107 0.86977 0.0
C658 C 0.0426 0.57489 0.44042 0.0
C659 C 0.05422 0.56679 0.46936 0.0
C660 C 0.06034 0.59935 0.42279 0.0
C661 C 0.09066 0.616 0.43389 0.0
C662 C 0.10243 0.60855 0.46388 0.0
C663 C 0.08401 0.58414 0.48146 0.0
C664 C 0.04675 0.60672 0.39135 0.0
C665 C 0.13467 0.62554 0.47632 0.0
C666 C 0.13655 0.65423 0.35904 0.0
C667 C 0.14244 0.68292 0.3666 0.0
C668 C 0.1207 0.63259 0.38151 0.0
C669 C 0.11009 0.63965 0.41218 0.0
C670 C 0.11647 0.66874 0.42041 0.0
C671 C 0.13277 0.6901 0.39766 0.0
C672 C 0.11479 0.60199 0.37195 0.0
C673 C 0.10526 0.67707 0.45256 0.0
H674 H 0.01953 0.56177 0.43112 0.0
H675 H 0.09316 0.57794 0.5037 0.0
H676 H 0.05312 0.63008 0.395 0.0
H677 H 0.05489 0.60314 0.36596 0.0
H678 H 0.02256 0.59323 0.38814 0.0
H679 H 0.14004 0.61858 0.5018 0.0
H680 H 0.14684 0.62239 0.45506 0.0
H681 H 0.14248 0.64923 0.48055 0.0
H682 H 0.14443 0.64869 0.33542 0.0
H683 H 0.13722 0.71223 0.40356 0.0
H684 H 0.09102 0.58691 0.36495 0.0
H685 H 0.12172 0.59427 0.39553 0.0
H686 H 0.12626 0.60054 0.3487 0.0
H687 H 0.08107 0.66545 0.44867 0.0
H688 H 0.11364 0.70092 0.45662 0.0
H689 H 0.11159 0.67029 0.47751 0.0
C690 C 0.46492 0.06158 0.97706 0.0
C691 C 0.48545 0.06828 0.00687 0.0
C692 C 0.46453 0.08368 0.95884 0.0
C693 C 0.48518 0.1132 0.97077 0.0
C694 C 0.5043 0.12017 0.00268 0.0
C695 C 0.50418 0.09756 0.02047 0.0
C696 C 0.44357 0.07531 0.92513 0.0
C697 C 0.52643 0.15141 0.01643 0.0
C698 C 0.50952 0.16262 0.89563 0.0
C699 C 0.49272 0.17607 0.89827 0.0
C700 C 0.50788 0.14278 0.9198 0.0
C701 C 0.48899 0.13625 0.94735 0.0
C702 C 0.47257 0.15035 0.95082 0.0
C703 C 0.47459 0.17007 0.92616 0.0
C704 C 0.52568 0.1281 0.91509 0.0
C705 C 0.45236 0.14405 0.97997 0.0
H706 H 0.45017 0.03898 0.96662 0.0
H707 H 0.52012 0.10292 0.04349 0.0
H708 H 0.43248 0.08825 0.92561 0.0
H709 H 0.45584 0.08017 0.90103 0.0
H710 H 0.42672 0.05175 0.92195 0.0
H711 H 0.5364 0.15335 0.04431 0.0
H712 H 0.54407 0.16017 0.99835 0.0
H713 H 0.51629 0.16523 0.01616 0.0
H714 H 0.5233 0.16691 0.87389 0.0
H715 H 0.46186 0.18072 0.9286 0.0
H716 H 0.51091 0.10426 0.90821 0.0
H717 H 0.53914 0.13124 0.94076 0.0
H718 H 0.54034 0.13663 0.89343 0.0
H719 H 0.4343 0.12103 0.97526 0.0
H720 H 0.44283 0.15846 0.98073 0.0
H721 H 0.4642 0.14685 0.00685 0.0
C722 C 0.39926 0.47181 0.4089 0.0
C723 C 0.41112 0.45387 0.40199 0.0
C724 C 0.37588 0.46922 0.38615 0.0
C725 C 0.36334 0.44757 0.35615 0.0
C726 C 0.37479 0.42892 0.34941 0.0
C727 C 0.39886 0.4326 0.37209 0.0
C728 C 0.36497 0.4901 0.39387 0.0
C729 C 0.36157 0.40511 0.31828 0.0
C730 C 0.28696 0.42941 0.32 0.0
C731 C 0.29254 0.44544 0.29004 0.0
C732 C 0.30956 0.42858 0.34058 0.0
C733 C 0.33861 0.44502 0.33174 0.0
C734 C 0.34425 0.46099 0.30121 0.0
C735 C 0.32109 0.46072 0.28051 0.0
C736 C 0.30246 0.4108 0.37242 0.0
C737 C 0.37491 0.47946 0.29134 0.0
H738 H 0.40885 0.48858 0.43167 0.0
H739 H 0.40789 0.41864 0.36667 0.0
H740 H 0.3664 0.50215 0.37005 0.0
H741 H 0.34169 0.47783 0.39881 0.0
H742 H 0.37758 0.5062 0.41774 0.0
H743 H 0.33791 0.39071 0.32021 0.0
H744 H 0.36374 0.4148 0.2923 0.0
H745 H 0.37208 0.39158 0.31764 0.0
H746 H 0.26495 0.41791 0.32768 0.0
H747 H 0.3254 0.47325 0.25744 0.0
H748 H 0.31168 0.42558 0.39796 0.0
H749 H 0.31253 0.3969 0.37151 0.0
H750 H 0.27857 0.39663 0.37314 0.0
H751 H 0.38811 0.49717 0.31344 0.0
H752 H 0.37546 0.48947 0.26585 0.0
H753 H 0.38547 0.46613 0.28826 0.0
C754 C 0.9463 0.40691 0.92756 0.0
C755 C 0.93645 0.42294 0.94727 0.0
C756 C 0.92665 0.37858 0.91139 0.0
C757 C 0.89645 0.36662 0.91394 0.0
C758 C 0.88653 0.38249 0.93466 0.0
C759 C 0.90678 0.41034 0.95162 0.0
C760 C 0.93807 0.36187 0.89057 0.0
C761 C 0.85441 0.37079 0.93718 0.0
C762 C 0.84267 0.3139 0.83696 0.0
C763 C 0.82942 0.2878 0.85303 0.0
C764 C 0.8651 0.33959 0.85625 0.0
C765 C 0.87495 0.33889 0.89216 0.0
C766 C 0.86272 0.31216 0.90781 0.0
C767 C 0.83959 0.28691 0.8882 0.0
C768 C 0.87711 0.36774 0.83883 0.0
C769 C 0.87328 0.31047 0.94564 0.0
H770 H 0.96936 0.41665 0.92458 0.0
H771 H 0.89923 0.4229 0.9667 0.0
H772 H 0.92824 0.33929 0.89829 0.0
H773 H 0.93183 0.36027 0.86119 0.0
H774 H 0.9622 0.37254 0.89529 0.0
H775 H 0.85042 0.38538 0.95551 0.0
H776 H 0.84325 0.36824 0.90989 0.0
H777 H 0.84426 0.34891 0.94705 0.0
H778 H 0.83455 0.31438 0.80972 0.0
H779 H 0.82888 0.26675 0.90071 0.0
H780 H 0.90114 0.37835 0.83939 0.0
H781 H 0.87238 0.3831 0.85431 0.0
H782 H 0.8676 0.36428 0.81031 0.0
H783 H 0.89746 0.3219 0.94939 0.0
H784 H 0.86447 0.28755 0.95178 0.0
H785 H 0.86636 0.32153 0.96553 0.0
C786 C 0.9662 0.55234 0.86706 0.0
C787 C 0.95604 0.53146 0.89189 0.0
C788 C 0.94666 0.55715 0.8453 0.0
C789 C 0.91623 0.54005 0.84766 0.0
C790 C 0.90594 0.51849 0.87214 0.0
C791 C 0.92594 0.51478 0.89424 0.0
C792 C 0.95855 0.58082 0.82024 0.0
C793 C 0.8737 0.49918 0.87495 0.0
C794 C 0.8608 0.56264 0.82086 0.0
C795 C 0.84815 0.54645 0.78706 0.0
C796 C 0.88442 0.56243 0.83968 0.0
C797 C 0.89489 0.54461 0.82507 0.0
C798 C 0.88257 0.52871 0.79054 0.0
C799 C 0.85953 0.53003 0.77185 0.0
C800 C 0.89716 0.58013 0.87607 0.0
C801 C 0.89239 0.5088 0.77433 0.0
H802 H 0.98945 0.56535 0.86524 0.0
H803 H 0.9179 0.49834 0.91305 0.0
H804 H 0.94932 0.5714 0.79193 0.0
H805 H 0.95184 0.59702 0.82727 0.0
H806 H 0.98272 0.59233 0.82165 0.0
H807 H 0.86921 0.48242 0.8939 0.0
H808 H 0.86439 0.51263 0.88443 0.0
H809 H 0.86212 0.48796 0.84794 0.0
H810 H 0.85145 0.57457 0.83332 0.0
H811 H 0.84937 0.51706 0.74603 0.0
H812 H 0.92135 0.59224 0.87802 0.0
H813 H 0.8906 0.56533 0.89774 0.0
H814 H 0.88965 0.59597 0.88116 0.0
H815 H 0.91648 0.52048 0.7749 0.0
H816 H 0.88257 0.50004 0.74598 0.0
H817 H 0.88604 0.49016 0.7907 0.0
C818 C 0.40422 0.96775 0.43359 0.0
C819 C 0.41954 0.95994 0.45808 0.0
C820 C 0.37917 0.9463 0.41185 0.0
C821 C 0.36985 0.91648 0.41402 0.0
C822 C 0.38499 0.9085 0.43917 0.0
C823 C 0.40945 0.93036 0.46127 0.0
C824 C 0.36307 0.95555 0.38599 0.0
C825 C 0.37612 0.87695 0.44167 0.0
C826 C 0.29341 0.85699 0.37726 0.0
C827 C 0.29792 0.84882 0.34291 0.0
C828 C 0.31648 0.87968 0.40027 0.0
C829 C 0.34488 0.89357 0.38915 0.0
C830 C 0.34963 0.88489 0.35472 0.0
C831 C 0.32595 0.86269 0.33184 0.0
C832 C 0.31051 0.88862 0.43653 0.0
C833 C 0.37976 0.89865 0.34235 0.0
H834 H 0.41203 0.99063 0.43115 0.0
H835 H 0.42153 0.92427 0.47981 0.0
H836 H 0.36482 0.94928 0.35772 0.0
H837 H 0.33954 0.94414 0.38988 0.0
H838 H 0.37179 0.97947 0.3896 0.0
H839 H 0.3899 0.87442 0.46313 0.0
H840 H 0.35303 0.86426 0.44729 0.0
H841 H 0.37784 0.86722 0.4154 0.0
H842 H 0.27178 0.84556 0.38609 0.0
H843 H 0.32934 0.85583 0.30546 0.0
H844 H 0.31882 0.91245 0.43965 0.0
H845 H 0.32219 0.88406 0.45857 0.0
H846 H 0.28688 0.87692 0.44002 0.0
H847 H 0.38901 0.92251 0.34217 0.0
H848 H 0.37971 0.88929 0.31486 0.0
H849 H 0.39449 0.89548 0.36156 0.0
C850 C 0.4909 0.42572 0.97441 0.0
C851 C 0.51508 0.44211 1.00022 0.0
C852 C 0.48694 0.40058 0.95432 0.0
C853 C 0.50824 0.39222 0.95923 0.0
C854 C 0.53222 0.40817 0.98617 0.0
C855 C 0.53512 0.43273 0.00675 0.0
C856 C 0.46062 0.38377 0.92668 0.0
C857 C 0.55579 0.40046 0.99163 0.0
C858 C 0.4916 0.31771 0.9166 0.0
C859 C 0.50301 0.32469 0.88338 0.0
C860 C 0.4931 0.33941 0.94172 0.0
C861 C 0.50693 0.3688 0.93364 0.0
C862 C 0.51875 0.37588 0.9002 0.0
C863 C 0.51606 0.35367 0.87522 0.0
C864 C 0.47938 0.33083 0.9765 0.0
C865 C 0.53411 0.40694 0.89062 0.0
H866 H 0.4753 0.43289 0.96947 0.0
H867 H 0.554 0.44558 0.02642 0.0
H868 H 0.46752 0.3873 0.89906 0.0
H869 H 0.45008 0.36002 0.92911 0.0
H870 H 0.44422 0.39064 0.92963 0.0
H871 H 0.57165 0.41339 0.01559 0.0
H872 H 0.5461 0.37693 0.99494 0.0
H873 H 0.56778 0.40464 0.96732 0.0
H874 H 0.48112 0.2952 0.92261 0.0
H875 H 0.52428 0.35896 0.84916 0.0
H876 H 0.46201 0.33649 0.97799 0.0
H877 H 0.49588 0.34321 1.00003 0.0
H878 H 0.46971 0.30712 0.97889 0.0
H879 H 0.51845 0.41488 0.8882 0.0
H880 H 0.54397 0.40905 0.86475 0.0
H881 H 0.5516 0.42144 0.9124 0.0
C882 C 0.05236 0.45388 0.4377 0.0
C883 C 0.02428 0.44682 0.42359 0.0
C884 C 0.07076 0.44951 0.41617 0.0
C885 C 0.06077 0.43756 0.3797 0.0
C886 C 0.03174 0.4284 0.36603 0.0
C887 C 0.01382 0.43325 0.38813 0.0
C888 C 0.1016 0.45962 0.43177 0.0
C889 C 0.02019 0.41516 0.32742 0.0
C890 C 0.11927 0.46465 0.31566 0.0
C891 C 0.12525 0.44181 0.31222 0.0
C892 C 0.09793 0.46318 0.33697 0.0
C893 C 0.08182 0.43809 0.35498 0.0
C894 C 0.08704 0.41453 0.3508 0.0
C895 C 0.10882 0.41672 0.32955 0.0
C896 C 0.09307 0.48883 0.34081 0.0
C897 C 0.07011 0.38736 0.3694 0.0
H898 H 0.06058 0.46416 0.46517 0.0
H899 H 0.99207 0.42751 0.37709 0.0
H900 H 0.10713 0.44238 0.42596 0.0
H901 H 0.11706 0.47901 0.4189 0.0
H902 H 0.10499 0.46558 0.46149 0.0
H903 H 0.99616 0.40538 0.32255 0.0
H904 H 0.03056 0.43228 0.3089 0.0
H905 H 0.02574 0.39809 0.32036 0.0
H906 H 0.13136 0.4838 0.30166 0.0
H907 H 0.11341 0.39905 0.3272 0.0
H908 H 0.09794 0.49808 0.36957 0.0
H909 H 0.06989 0.4816 0.33246 0.0
H910 H 0.10697 0.50643 0.32432 0.0
H911 H 0.07545 0.39277 0.39913 0.0
H912 H 0.07505 0.37005 0.36096 0.0
H913 H 0.04633 0.37857 0.36346 0.0
C914 C 0.549 0.01882 0.89819 0.0
C915 C 0.54896 0.03125 0.93247 0.0
C916 C 0.5691 0.03565 0.87433 0.0
C917 C 0.58926 0.06566 0.88482 0.0
C918 C 0.58896 0.07831 0.91918 0.0
C919 C 0.56904 0.06099 0.94254 0.0
C920 C 0.56891 0.02132 0.83805 0.0
C921 C 0.60968 0.11028 0.93135 0.0
C922 C 0.66117 0.1084 0.84471 0.0
C923 C 0.65523 0.1251 0.82152 0.0
C924 C 0.63949 0.08787 0.86397 0.0
C925 C 0.61112 0.08407 0.86047 0.0
C926 C 0.60466 0.10014 0.83631 0.0
C927 C 0.62668 0.12027 0.81701 0.0
C928 C 0.64732 0.07116 0.88933 0.0
C929 C 0.57478 0.09695 0.83192 0.0
H930 H 0.53355 0.99592 0.89015 0.0
H931 H 0.569 0.07099 0.96874 0.0
H932 H 0.56518 0.03263 0.81606 0.0
H933 H 0.59048 0.02328 0.8357 0.0
H934 H 0.55183 0.99786 0.83382 0.0
H935 H 0.60628 0.11688 0.95864 0.0
H936 H 0.63256 0.11517 0.93192 0.0
H937 H 0.60684 0.12387 0.91187 0.0
H938 H 0.68312 0.11206 0.84891 0.0
H939 H 0.62156 0.13251 0.79866 0.0
H940 H 0.63098 0.04751 0.8846 0.0
H941 H 0.64709 0.07859 0.91771 0.0
H942 H 0.66926 0.07423 0.88614 0.0
H943 H 0.55769 0.07361 0.82609 0.0
H944 H 0.57251 0.10908 0.80989 0.0
H945 H 0.57063 0.1053 0.85756 0.0
C946 C 0.49104 0.57961 0.48162 0.0
C947 C 0.5043 0.56407 0.46952 0.0
C948 C 0.49711 0.60581 0.46771 0.0
C949 C 0.5173 0.61685 0.4417 0.0
C950 C 0.5319 0.60202 0.43095 0.0
C951 C 0.525 0.57565 0.44473 0.0
C952 C 0.48082 0.62081 0.4794 0.0
C953 C 0.55401 0.6134 0.40383 0.0
C954 C 0.51087 0.66264 0.37168 0.0
C955 C 0.53302 0.69088 0.38538 0.0
C956 C 0.5048 0.63854 0.39053 0.0
C957 C 0.52166 0.64264 0.42357 0.0
C958 C 0.54371 0.67106 0.43794 0.0
C959 C 0.54895 0.69488 0.41883 0.0
C960 C 0.48088 0.60856 0.37449 0.0
C961 C 0.56233 0.67621 0.47291 0.0
H962 H 0.47489 0.57059 0.50062 0.0
H963 H 0.53549 0.56379 0.43559 0.0
H964 H 0.49622 0.6443 0.48788 0.0
H965 H 0.46587 0.6194 0.45621 0.0
H966 H 0.46776 0.61086 0.50205 0.0
H967 H 0.56534 0.60075 0.40089 0.0
H968 H 0.54297 0.61224 0.377 0.0
H969 H 0.57059 0.63664 0.41201 0.0
H970 H 0.49874 0.65916 0.34562 0.0
H971 H 0.56574 0.71665 0.43 0.0
H972 H 0.46563 0.59748 0.39481 0.0
H973 H 0.49049 0.59498 0.36672 0.0
H974 H 0.46824 0.60939 0.35016 0.0
H975 H 0.54836 0.66663 0.49489 0.0
H976 H 0.57766 0.69978 0.48129 0.0
H977 H 0.57517 0.66515 0.46978 0.0
C978 C 0.46087 0.05726 0.59507 0.0
C979 C 0.48309 0.05091 0.60252 0.0
C980 C 0.45918 0.07866 0.61715 0.0
C981 C 0.48108 0.09509 0.64628 0.0
C982 C 0.50341 0.08844 0.65408 0.0
C983 C 0.5038 0.06603 0.6325 0.0
C984 C 0.43439 0.08422 0.60864 0.0
C985 C 0.52782 0.10608 0.68391 0.0
C986 C 0.49666 0.17224 0.6724 0.0
C987 C 0.48587 0.1699 0.70617 0.0
C988 C 0.49567 0.14823 0.65304 0.0
C989 C 0.48198 0.12066 0.66671 0.0
C990 C 0.46952 0.1178 0.69986 0.0
C991 C 0.47196 0.14256 0.71943 0.0
C992 C 0.50985 0.15256 0.6183 0.0
C993 C 0.45362 0.08861 0.71461 0.0
H994 H 0.44491 0.04559 0.57179 0.0
H995 H 0.52128 0.06144 0.63783 0.0
H996 H 0.42449 0.08527 0.63362 0.0
H997 H 0.44276 0.10556 0.59761 0.0
H998 H 0.41712 0.06704 0.58851 0.0
H999 H 0.54307 0.09764 0.68719 0.0
H1000 H 0.54036 0.12911 0.67786 0.0
H1001 H 0.51885 0.10604 0.70999 0.0
H1002 H 0.50647 0.19313 0.66144 0.0
H1003 H 0.46302 0.1406 0.74516 0.0
H1004 H 0.49324 0.13901 0.59531 0.0
H1005 H 0.52616 0.14539 0.6199 0.0
H1006 H 0.52092 0.1757 0.61239 0.0
H1007 H 0.43633 0.07224 0.69388 0.0
H1008 H 0.44349 0.08966 0.73942 0.0
H1009 H 0.46897 0.08076 0.72112 0.0
C1010 C 0.42698 0.51165 0.01379 0.0
C1011 C 0.442 0.49854 0.02824 0.0
C1012 C 0.40023 0.5058 0.02555 0.0
C1013 C 0.38821 0.48609 0.0519 0.0
C1014 C 0.40225 0.47119 0.0645 0.0
C1015 C 0.42914 0.47779 0.05272 0.0
C1016 C 0.38598 0.52227 0.01175 0.0
C1017 C 0.38982 0.44961 0.09212 0.0
C1018 C 0.3451 0.49846 0.12047 0.0
C1019 C 0.31635 0.47701 0.10774 0.0
C1020 C 0.36851 0.50225 0.10173 0.0
C1021 C 0.36314 0.48378 0.06977 0.0
C1022 C 0.33422 0.46237 0.05635 0.0
C1023 C 0.3111 0.45934 0.07542 0.0
C1024 C 0.39909 0.5255 0.11678 0.0
C1025 C 0.32779 0.44219 0.02248 0.0
H1026 H 0.43688 0.52773 0.99485 0.0
H1027 H 0.44054 0.46733 0.06356 0.0
H1028 H 0.36227 0.50731 0.00419 0.0
H1029 H 0.38846 0.53876 0.03354 0.0
H1030 H 0.39585 0.53369 0.98796 0.0
H1031 H 0.40137 0.43723 0.09558 0.0
H1032 H 0.3917 0.46141 0.11866 0.0
H1033 H 0.36631 0.4339 0.08416 0.0
H1034 H 0.34948 0.51184 0.14575 0.0
H1035 H 0.28892 0.44299 0.06512 0.0
H1036 H 0.41039 0.53978 0.09567 0.0
H1037 H 0.41182 0.51512 0.12518 0.0
H1038 H 0.39933 0.53933 0.1405 0.0
H1039 H 0.33788 0.45498 0.99973 0.0
H1040 H 0.304 0.42782 0.0145 0.0
H1041 H 0.33752 0.42827 0.02687 0.0
C1042 C 0.97347 0.42636 0.60318 0.0
C1043 C 0.96106 0.42922 0.57044 0.0
C1044 C 0.95601 0.40627 0.62662 0.0
C1045 C 0.9254 0.3891 0.61743 0.0
C1046 C 0.91283 0.39205 0.5845 0.0
C1047 C 0.93077 0.41179 0.56136 0.0
C1048 C 0.97028 0.40339 0.66119 0.0
C1049 C 0.88028 0.3746 0.57384 0.0
C1050 C 0.87748 0.31769 0.6563 0.0
C1051 C 0.86431 0.32604 0.68237 0.0
C1052 C 0.89848 0.33822 0.63634 0.0
C1053 C 0.90621 0.36788 0.64188 0.0
C1054 C 0.89359 0.37666 0.66866 0.0
C1055 C 0.87305 0.35574 0.68876 0.0
C1056 C 0.91158 0.32793 0.60833 0.0
C1057 C 0.90097 0.40801 0.67517 0.0
H1058 H 0.99681 0.43977 0.61043 0.0
H1059 H 0.92085 0.41407 0.53639 0.0
H1060 H 0.96161 0.40894 0.68481 0.0
H1061 H 0.96499 0.38046 0.66201 0.0
H1062 H 0.99437 0.41779 0.66405 0.0
H1063 H 0.87389 0.37982 0.5476 0.0
H1064 H 0.87261 0.35093 0.57174 0.0
H1065 H 0.86876 0.37898 0.59498 0.0
H1066 H 0.87074 0.29487 0.65052 0.0
H1067 H 0.86362 0.3627 0.70928 0.0
H1068 H 0.9357 0.34189 0.61163 0.0
H1069 H 0.90373 0.32978 0.58087 0.0
H1070 H 0.90575 0.30489 0.61001 0.0
H1071 H 0.92493 0.42271 0.68047 0.0
H1072 H 0.89059 0.41166 0.69834 0.0
H1073 H 0.89354 0.41432 0.6506 0.0
C1074 C 0.53572 0.94174 0.06099 0.0
C1075 C 0.54534 0.97075 0.07406 0.0
C1076 C 0.54413 0.9247 0.07998 0.0
C1077 C 0.56279 0.93704 0.11267 0.0
C1078 C 0.57426 0.96689 0.12461 0.0
C1079 C 0.56529 0.98338 0.10524 0.0
C1080 C 0.5313 0.89292 0.06641 0.0
C1081 C 0.5945 0.98092 0.15913 0.0
C1082 C 0.55047 0.88704 0.18594 0.0
C1083 C 0.57346 0.88148 0.18387 0.0
C1084 C 0.54678 0.90493 0.16275 0.0
C1085 C 0.56673 0.9178 0.13691 0.0
C1086 C 0.58991 0.91213 0.13441 0.0
C1087 C 0.5929 0.89378 0.15783 0.0
C1088 C 0.52148 0.91003 0.16598 0.0
C1089 C 0.61166 0.92567 0.10732 0.0
H1090 H 0.52045 0.93181 0.03679 0.0
H1091 H 0.57308 0.00586 0.11532 0.0
H1092 H 0.54843 0.88685 0.06721 0.0
H1093 H 0.51493 0.87917 0.08429 0.0
H1094 H 0.52042 0.88771 0.03834 0.0
H1095 H 0.60476 0.00506 0.1619 0.0
H1096 H 0.58205 0.9725 0.18266 0.0
H1097 H 0.61195 0.97528 0.16023 0.0
H1098 H 0.53511 0.8771 0.20565 0.0
H1099 H 0.61071 0.8895 0.15631 0.0
H1100 H 0.50754 0.90304 0.13978 0.0
H1101 H 0.52971 0.93365 0.17257 0.0
H1102 H 0.50773 0.89802 0.18719 0.0
H1103 H 0.60023 0.91954 0.07954 0.0
H1104 H 0.62826 0.91883 0.10855 0.0
H1105 H 0.623 0.94981 0.11239 0.0
C1106 C 0.57094 0.47202 0.497 0.0
C1107 C 0.56263 0.49311 0.50121 0.0
C1108 C 0.59551 0.4752 0.51792 0.0
C1109 C 0.61248 0.5004 0.54285 0.0
C1110 C 0.60524 0.52265 0.5452 0.0
C1111 C 0.58014 0.5185 0.5248 0.0
C1112 C 0.60207 0.45069 0.51518 0.0
C1113 C 0.62309 0.55019 0.5707 0.0
C1114 C 0.65154 0.49744 0.62993 0.0
C1115 C 0.68042 0.50979 0.62166 0.0
C1116 C 0.62909 0.49297 0.60391 0.0
C1117 C 0.63586 0.50233 0.56918 0.0
C1118 C 0.66507 0.51506 0.56074 0.0
C1119 C 0.687 0.5184 0.58704 0.0
C1120 C 0.5982 0.4788 0.61394 0.0
C1121 C 0.67331 0.52607 0.52444 0.0
H1122 H 0.55716 0.45218 0.47915 0.0
H1123 H 0.57373 0.53484 0.52803 0.0
H1124 H 0.62551 0.45929 0.51233 0.0
H1125 H 0.5973 0.43981 0.54043 0.0
H1126 H 0.58884 0.43409 0.49197 0.0
H1127 H 0.61689 0.56687 0.56586 0.0
H1128 H 0.61986 0.54497 0.59904 0.0
H1129 H 0.64667 0.55971 0.56785 0.0
H1130 H 0.64656 0.49152 0.65702 0.0
H1131 H 0.70944 0.52842 0.58091 0.0
H1132 H 0.58327 0.46047 0.59333 0.0
H1133 H 0.59073 0.49488 0.61461 0.0
H1134 H 0.59623 0.47033 0.64079 0.0
H1135 H 0.65976 0.50851 0.50235 0.0
H1136 H 0.69668 0.5341 0.52147 0.0
H1137 H 0.66896 0.54416 0.52097 0.0
C1138 C 0.04313 0.60483 0.04026 0.0
C1139 C 0.03713 0.57677 0.04624 0.0
C1140 C 0.06524 0.62931 0.06228 0.0
C1141 C 0.08233 0.62545 0.08969 0.0
C1142 C 0.07628 0.59699 0.09556 0.0
C1143 C 0.0534 0.57293 0.07403 0.0
C1144 C 0.07053 0.65926 0.05599 0.0
C1145 C 0.09453 0.59201 0.12376 0.0
C1146 C 0.15769 0.68935 0.12338 0.0
C1147 C 0.15279 0.69801 0.15715 0.0
C1148 C 0.13489 0.66568 0.10099 0.0
C1149 C 0.10653 0.65107 0.11241 0.0
C1150 C 0.10148 0.6602 0.14628 0.0
C1151 C 0.12482 0.68316 0.16856 0.0
C1152 C 0.14127 0.65591 0.06555 0.0
C1153 C 0.07148 0.64561 0.15909 0.0
H1154 H 0.03067 0.60757 0.01826 0.0
H1155 H 0.04904 0.5511 0.07781 0.0
H1156 H 0.06976 0.67057 0.08156 0.0
H1157 H 0.09259 0.67265 0.04733 0.0
H1158 H 0.05422 0.65834 0.03504 0.0
H1159 H 0.08743 0.56852 0.12413 0.0
H1160 H 0.11777 0.60396 0.11848 0.0
H1161 H 0.09329 0.60068 0.15099 0.0
H1162 H 0.17943 0.70078 0.11487 0.0
H1163 H 0.12122 0.68971 0.19498 0.0
H1164 H 0.12744 0.65692 0.04281 0.0
H1165 H 0.13581 0.63285 0.06524 0.0
H1166 H 0.16451 0.66949 0.06077 0.0
H1167 H 0.05545 0.64534 0.13831 0.0
H1168 H 0.07088 0.65678 0.18492 0.0
H1169 H 0.06436 0.6226 0.16309 0.0
loop_
_geom_bond_atom_site_label_1
_geom_bond_atom_site_label_2
_geom_bond_distance
_geom_bond_site_symmetry_2
_ccdc_geom_bond_type
C0 O2 1.247 . S
C0 O4 1.258 . S
C1 O8 1.247 . S
C1 O9 1.258 . S
O2 C0 1.247 . S
O2 Zn3 2.028 1_455 S
Zn3 O2 2.028 1_655 S
Zn3 O7 2.035 1_554 S
Zn3 O9 2.035 1_554 S
Zn3 O10 2.028 1_655 S
O4 C0 1.258 . S
O4 Zn5 2.035 1_554 S
Zn5 O4 2.035 1_556 S
Zn5 O6 2.028 1_455 S
Zn5 O8 2.028 1_455 S
Zn5 O11 2.035 1_556 S
O6 Zn5 2.028 1_655 S
O6 C12 1.247 . S
O7 Zn3 2.035 1_556 S
O7 C12 1.258 . S
O8 C1 1.247 . S
O8 Zn5 2.028 1_655 S
O9 C1 1.258 . S
O9 Zn3 2.035 1_556 S
O10 Zn3 2.028 1_455 S
O10 C13 1.247 . S
O11 Zn5 2.035 1_554 S
O11 C13 1.258 . S
C12 O6 1.247 . S
C12 O7 1.258 . S
C13 O10 1.247 . S
C13 O11 1.258 . S
C14 O16 1.247 . S
C14 O18 1.258 . S
C15 O22 1.247 . S
C15 O23 1.258 . S
O16 C14 1.247 . S
O16 Zn17 2.028 1_545 S
Zn17 O16 2.028 1_565 S
Zn17 O21 2.035 . S
Zn17 O23 2.035 . S
Zn17 O24 2.028 1_565 S
O18 C14 1.258 . S
O18 Zn19 2.035 . S
Zn19 O18 2.035 . S
Zn19 O20 2.028 1_545 S
Zn19 O22 2.028 1_545 S
Zn19 O25 2.035 . S
O20 Zn19 2.028 1_565 S
O20 C26 1.247 . S
O21 Zn17 2.035 . S
O21 C26 1.258 . S
O22 C15 1.247 . S
O22 Zn19 2.028 1_565 S
O23 C15 1.258 . S
O23 Zn17 2.035 . S
O24 Zn17 2.028 1_545 S
O24 C27 1.247 . S
O25 Zn19 2.035 . S
O25 C27 1.258 . S
C26 O20 1.247 . S
C26 O21 1.258 . S
C27 O24 1.247 . S
C27 O25 1.258 . S
C28 O30 1.247 . S
C28 O32 1.258 . S
C29 O36 1.247 . S
C29 O37 1.258 . S
O30 C28 1.247 . S
O30 Zn31 2.028 . S
Zn31 O30 2.028 . S
Zn31 O35 2.035 1_556 S
Zn31 O37 2.035 1_556 S
Zn31 O38 2.028 . S
O32 C28 1.258 . S
O32 Zn33 2.035 1_556 S
Zn33 O32 2.035 1_554 S
Zn33 O34 2.028 . S
Zn33 O36 2.028 . S
Zn33 O39 2.035 1_554 S
O34 Zn33 2.028 . S
O34 C40 1.247 . S
O35 Zn31 2.035 1_554 S
O35 C40 1.258 . S
O36 C29 1.247 . S
O36 Zn33 2.028 . S
O37 C29 1.258 . S
O37 Zn31 2.035 1_554 S
O38 Zn31 2.028 . S
O38 C41 1.247 . S
O39 Zn33 2.035 1_556 S
O39 C41 1.258 . S
C40 O34 1.247 . S
C40 O35 1.258 . S
C41 O38 1.247 . S
C41 O39 1.258 . S
C42 O44 1.247 . S
C42 O46 1.258 . S
C43 O50 1.247 . S
C43 O51 1.287 . S
O44 C42 1.247 . S
O44 Zn45 2.028 . S
Zn45 O44 2.028 . S
Zn45 O49 2.035 1_455 S
Zn45 O51 2.027 1_455 S
Zn45 O52 2.028 . S
O46 C42 1.258 . S
O46 Zn47 2.035 1_455 S
Zn47 O46 2.035 1_655 S
Zn47 O48 2.028 . S
Zn47 O50 2.028 . S
Zn47 O53 2.035 1_655 S
O48 Zn47 2.028 . S
O48 C54 1.247 . S
O49 Zn45 2.035 1_655 S
O49 C54 1.258 . S
O50 C43 1.247 . S
O50 Zn47 2.028 . S
O51 C43 1.287 . S
O51 Zn45 2.027 1_655 S
O52 Zn45 2.028 . S
O52 C55 1.247 . S
O53 Zn47 2.035 1_455 S
O53 C55 1.258 . S
C54 O48 1.247 . S
C54 O49 1.258 . S
C55 O52 1.247 . S
C55 O53 1.258 . S
C56 O58 1.278 . S
C56 O60 1.258 . S
C57 O64 1.247 . S
C57 O65 1.258 . S
O58 C56 1.278 . S
O58 Zn59 1.997 1_565 S
Zn59 O58 1.997 1_545 S
Zn59 O63 2.035 1_554 S
Zn59 O65 2.035 1_554 S
Zn59 O66 2.029 1_545 S
O60 C56 1.258 . S
O60 Zn61 2.035 1_554 S
Zn61 O60 2.035 1_556 S
Zn61 O62 2.028 1_565 S
Zn61 O64 2.028 1_565 S
Zn61 O67 2.035 1_556 S
O62 Zn61 2.028 1_545 S
O62 C68 1.247 . S
O63 Zn59 2.035 1_556 S
O63 C68 1.258 . S
O64 C57 1.247 . S
O64 Zn61 2.028 1_545 S
O65 C57 1.258 . S
O65 Zn59 2.035 1_556 S
O66 Zn59 2.029 1_565 S
O66 C69 1.245 . S
O67 Zn61 2.035 1_554 S
O67 C69 1.258 . S
C68 O62 1.247 . S
C68 O63 1.258 . S
C69 O66 1.245 . S
C69 O67 1.258 . S
C70 O72 1.247 . S
C70 O74 1.258 . S
C71 O78 1.247 . S
C71 O79 1.258 . S
O72 C70 1.247 . S
O72 Zn73 2.028 . S
Zn73 O72 2.028 . S
Zn73 O77 2.035 . S
Zn73 O79 2.035 . S
Zn73 O80 2.028 . S
O74 C70 1.258 . S
O74 Zn75 2.035 . S
Zn75 O74 2.035 . S
Zn75 O76 2.028 . S
Zn75 O78 2.028 . S
Zn75 O81 2.035 . S
O76 Zn75 2.028 . S
O76 C82 1.247 . S
O77 Zn73 2.035 . S
O77 C82 1.258 . S
O78 C71 1.247 . S
O78 Zn75 2.028 . S
O79 C71 1.258 . S
O79 Zn73 2.035 . S
O80 Zn73 2.028 . S
O80 C83 1.247 . S
O81 Zn75 2.035 . S
O81 C83 1.258 . S
C82 O76 1.247 . S
C82 O77 1.258 . S
C83 O80 1.247 . S
C83 O81 1.258 . S
C84 C85 1.443 . S
C84 N88 1.376 . S
C84 C122 1.389 . S
C85 C84 1.443 . S
C85 C86 1.340 . S
C85 H125 0.951 . S
C86 C85 1.340 . S
C86 C87 1.439 . S
C86 H126 0.950 . S
C87 C86 1.439 . S
C87 N88 1.374 . S
C87 C121 1.395 . S
N88 C84 1.376 . S
N88 C87 1.374 . S
N88 Co89 2.008 . S
Co89 N88 2.008 . S
Co89 N90 1.995 . S
Co89 N95 2.008 . S
Co89 N100 1.995 . S
Co89 N105 2.282 . S
Co89 N111 2.282 . S
N90 Co89 1.995 . S
N90 C91 1.376 . S
N90 C94 1.383 . S
C91 N90 1.376 . S
C91 C92 1.446 . S
C91 C121 1.391 . S
C92 C91 1.446 . S
C92 C93 1.339 . S
C92 H127 0.949 . S
C93 C92 1.339 . S
C93 C94 1.439 . S
C93 H128 0.950 . S
C94 N90 1.383 . S
C94 C93 1.439 . S
C94 C123 1.392 . S
N95 Co89 2.008 . S
N95 C96 1.376 . S
N95 C99 1.374 . S
C96 N95 1.376 . S
C96 C97 1.443 . S
C96 C123 1.389 . S
C97 C96 1.443 . S
C97 C98 1.340 . S
C97 H129 0.951 . S
C98 C97 1.340 . S
C98 C99 1.439 . S
C98 H130 0.950 . S
C99 N95 1.374 . S
C99 C98 1.439 . S
C99 C124 1.395 . S
N100 Co89 1.995 . S
N100 C101 1.376 . S
N100 C104 1.383 . S
C101 N100 1.376 . S
C101 C102 1.446 . S
C101 C124 1.391 . S
C102 C101 1.446 . S
C102 C103 1.339 . S
C102 H131 0.949 . S
C103 C102 1.339 . S
C103 C104 1.439 . S
C103 H132 0.950 . S
C104 N100 1.383 . S
C104 C103 1.439 . S
C104 C122 1.392 . S
N105 Co89 2.282 . S
N105 C108 1.332 . S
N105 C110 1.332 . S
C106 C107 1.386 . S
C106 C109 1.388 . S
C107 C106 1.386 . S
C107 C108 1.382 . S
C107 H133 0.950 . S
C108 N105 1.332 . S
C108 C107 1.382 . S
C108 H119 0.952 . S
C109 C106 1.388 . S
C109 C110 1.382 . S
C109 H134 0.950 . S
C110 N105 1.332 . S
C110 C109 1.382 . S
C110 H120 0.948 . S
N111 Co89 2.282 . S
N111 C115 1.332 . S
N111 C116 1.332 . S
C112 C113 1.388 . S
C112 C116 1.382 . S
C112 H135 0.950 . S
C113 C112 1.388 . S
C113 C114 1.386 . S
C114 C113 1.386 . S
C114 C115 1.382 . S
C114 H136 0.950 . S
C115 N111 1.332 . S
C115 C114 1.382 . S
C115 H117 0.952 . S
C116 N111 1.332 . S
C116 C112 1.382 . S
C116 H118 0.948 . S
H117 C115 0.952 . S
H118 C116 0.948 . S
H119 C108 0.952 . S
H120 C110 0.948 . S
C121 C87 1.395 . S
C121 C91 1.391 . S
C122 C84 1.389 . S
C122 C104 1.392 . S
C123 C94 1.392 . S
C123 C96 1.389 . S
C124 C99 1.395 . S
C124 C101 1.391 . S
H125 C85 0.951 . S
H126 C86 0.950 . S
H127 C92 0.949 . S
H128 C93 0.950 . S
H129 C97 0.951 . S
H130 C98 0.950 . S
H131 C102 0.949 . S
H132 C103 0.950 . S
H133 C107 0.950 . S
H134 C109 0.950 . S
H135 C112 0.950 . S
H136 C114 0.950 . S
C137 C138 1.443 . S
C137 N141 1.376 . S
C137 C175 1.389 . S
C138 C137 1.443 . S
C138 C139 1.340 . S
C138 H178 0.951 . S
C139 C138 1.340 . S
C139 C140 1.439 . S
C139 H179 0.950 . S
C140 C139 1.439 . S
C140 N141 1.374 . S
C140 C174 1.395 . S
N141 C137 1.376 . S
N141 C140 1.374 . S
N141 Co142 2.008 . S
Co142 N141 2.008 . S
Co142 N143 1.995 . S
Co142 N148 2.008 . S
Co142 N153 1.995 . S
Co142 N158 2.282 . S
Co142 N164 2.282 . S
N143 Co142 1.995 . S
N143 C144 1.376 . S
N143 C147 1.383 . S
C144 N143 1.376 . S
C144 C145 1.446 . S
C144 C174 1.391 . S
C145 C144 1.446 . S
C145 C146 1.339 . S
C145 H180 0.949 . S
C146 C145 1.339 . S
C146 C147 1.439 . S
C146 H181 0.950 . S
C147 N143 1.383 . S
C147 C146 1.439 . S
C147 C176 1.392 . S
N148 Co142 2.008 . S
N148 C149 1.376 . S
N148 C152 1.374 . S
C149 N148 1.376 . S
C149 C150 1.443 . S
C149 C176 1.389 . S
C150 C149 1.443 . S
C150 C151 1.340 . S
C150 H182 0.951 . S
C151 C150 1.340 . S
C151 C152 1.439 . S
C151 H183 0.950 . S
C152 N148 1.374 . S
C152 C151 1.439 . S
C152 C177 1.395 . S
N153 Co142 1.995 . S
N153 C154 1.376 . S
N153 C157 1.383 . S
C154 N153 1.376 . S
C154 C155 1.446 . S
C154 C177 1.391 . S
C155 C154 1.446 . S
C155 C156 1.339 . S
C155 H184 0.949 . S
C156 C155 1.339 . S
C156 C157 1.439 . S
C156 H185 0.950 . S
C157 N153 1.383 . S
C157 C156 1.439 . S
C157 C175 1.392 . S
N158 Co142 2.282 . S
N158 C161 1.332 . S
N158 C163 1.332 . S
C159 C160 1.386 . S
C159 C162 1.388 . S
C160 C159 1.386 . S
C160 C161 1.382 . S
C160 H186 0.950 . S
C161 N158 1.332 . S
C161 C160 1.382 . S
C161 H172 0.952 . S
C162 C159 1.388 . S
C162 C163 1.382 . S
C162 H187 0.950 . S
C163 N158 1.332 . S
C163 C162 1.382 . S
C163 H173 0.948 . S
N164 Co142 2.282 . S
N164 C168 1.332 . S
N164 C169 1.332 . S
C165 C166 1.388 . S
C165 C169 1.382 . S
C165 H188 0.950 . S
C166 C165 1.388 . S
C166 C167 1.386 . S
C167 C166 1.386 . S
C167 C168 1.382 . S
C167 H189 0.950 . S
C168 N164 1.332 . S
C168 C167 1.382 . S
C168 H170 0.952 . S
C169 N164 1.332 . S
C169 C165 1.382 . S
C169 H171 0.948 . S
H170 C168 0.952 . S
H171 C169 0.948 . S
H172 C161 0.952 . S
H173 C163 0.948 . S
C174 C140 1.395 . S
C174 C144 1.391 . S
C175 C137 1.389 . S
C175 C157 1.392 . S
C176 C147 1.392 . S
C176 C149 1.389 . S
C177 C152 1.395 . S
C177 C154 1.391 . S
H178 C138 0.951 . S
H179 C139 0.950 . S
H180 C145 0.949 . S
H181 C146 0.950 . S
H182 C150 0.951 . S
H183 C151 0.950 . S
H184 C155 0.949 . S
H185 C156 0.950 . S
H186 C160 0.950 . S
H187 C162 0.950 . S
H188 C165 0.950 . S
H189 C167 0.950 . S
C190 C191 1.443 . S
C190 N194 1.376 . S
C190 C228 1.389 . S
C191 C190 1.443 . S
C191 C192 1.340 . S
C191 H231 0.951 . S
C192 C191 1.340 . S
C192 C193 1.439 . S
C192 H232 0.950 . S
C193 C192 1.439 . S
C193 N194 1.374 . S
C193 C227 1.395 . S
N194 C190 1.376 . S
N194 C193 1.374 . S
N194 Co195 2.008 . S
Co195 N194 2.008 . S
Co195 N196 1.995 . S
Co195 N201 2.008 . S
Co195 N206 1.995 . S
Co195 N211 2.282 . S
Co195 N217 2.282 . S
N196 Co195 1.995 . S
N196 C197 1.376 . S
N196 C200 1.383 . S
C197 N196 1.376 . S
C197 C198 1.446 . S
C197 C227 1.391 . S
C198 C197 1.446 . S
C198 C199 1.339 . S
C198 H233 0.949 . S
C199 C198 1.339 . S
C199 C200 1.439 . S
C199 H234 0.950 . S
C200 N196 1.383 . S
C200 C199 1.439 . S
C200 C229 1.392 . S
N201 Co195 2.008 . S
N201 C202 1.376 . S
N201 C205 1.374 . S
C202 N201 1.376 . S
C202 C203 1.443 . S
C202 C229 1.389 . S
C203 C202 1.443 . S
C203 C204 1.340 . S
C203 H235 0.951 . S
C204 C203 1.340 . S
C204 C205 1.439 . S
C204 H236 0.950 . S
C205 N201 1.374 . S
C205 C204 1.439 . S
C205 C230 1.395 . S
N206 Co195 1.995 . S
N206 C207 1.376 . S
N206 C210 1.383 . S
C207 N206 1.376 . S
C207 C208 1.446 . S
C207 C230 1.391 . S
C208 C207 1.446 . S
C208 C209 1.339 . S
C208 H237 0.949 . S
C209 C208 1.339 . S
C209 C210 1.439 . S
C209 H238 0.950 . S
C210 N206 1.383 . S
C210 C209 1.439 . S
C210 C228 1.392 . S
N211 Co195 2.282 . S
N211 C214 1.332 . S
N211 C216 1.332 . S
C212 C213 1.386 . S
C212 C215 1.388 . S
C213 C212 1.386 . S
C213 C214 1.382 . S
C213 H239 0.950 . S
C214 N211 1.332 . S
C214 C213 1.382 . S
C214 H225 0.952 . S
C215 C212 1.388 . S
C215 C216 1.382 . S
C215 H240 0.950 . S
C216 N211 1.332 . S
C216 C215 1.382 . S
C216 H226 0.948 . S
N217 Co195 2.282 . S
N217 C221 1.332 . S
N217 C222 1.332 . S
C218 C219 1.388 . S
C218 C222 1.382 . S
C218 H241 0.950 . S
C219 C218 1.388 . S
C219 C220 1.386 . S
C220 C219 1.386 . S
C220 C221 1.382 . S
C220 H242 0.950 . S
C221 N217 1.332 . S
C221 C220 1.382 . S
C221 H223 0.952 . S
C222 N217 1.332 . S
C222 C218 1.382 . S
C222 H224 0.948 . S
H223 C221 0.952 . S
H224 C222 0.948 . S
H225 C214 0.952 . S
H226 C216 0.948 . S
C227 C193 1.395 . S
C227 C197 1.391 . S
C228 C190 1.389 . S
C228 C210 1.392 . S
C229 C200 1.392 . S
C229 C202 1.389 . S
C230 C205 1.395 . S
C230 C207 1.391 . S
H231 C191 0.951 . S
H232 C192 0.950 . S
H233 C198 0.949 . S
H234 C199 0.950 . S
H235 C203 0.951 . S
H236 C204 0.950 . S
H237 C208 0.949 . S
H238 C209 0.950 . S
H239 C213 0.950 . S
H240 C215 0.950 . S
H241 C218 0.950 . S
H242 C220 0.950 . S
C243 C244 1.443 . S
C243 N247 1.376 . S
C243 C281 1.389 . S
C244 C243 1.443 . S
C244 C245 1.340 . S
C244 H284 0.951 . S
C245 C244 1.340 . S
C245 C246 1.439 . S
C245 H285 0.950 . S
C246 C245 1.439 . S
C246 N247 1.374 . S
C246 C280 1.395 . S
N247 C243 1.376 . S
N247 C246 1.374 . S
N247 Co248 2.008 . S
Co248 N247 2.008 . S
Co248 N249 1.995 . S
Co248 N254 2.008 . S
Co248 N259 1.995 . S
Co248 N264 2.282 . S
Co248 N270 2.282 . S
N249 Co248 1.995 . S
N249 C250 1.376 . S
N249 C253 1.383 . S
C250 N249 1.376 . S
C250 C251 1.446 . S
C250 C280 1.391 . S
C251 C250 1.446 . S
C251 C252 1.339 . S
C251 H286 0.949 . S
C252 C251 1.339 . S
C252 C253 1.439 . S
C252 H287 0.950 . S
C253 N249 1.383 . S
C253 C252 1.439 . S
C253 C282 1.392 . S
N254 Co248 2.008 . S
N254 C255 1.376 . S
N254 C258 1.374 . S
C255 N254 1.376 . S
C255 C256 1.443 . S
C255 C282 1.389 . S
C256 C255 1.443 . S
C256 C257 1.340 . S
C256 H288 0.951 . S
C257 C256 1.340 . S
C257 C258 1.439 . S
C257 H289 0.950 . S
C258 N254 1.374 . S
C258 C257 1.439 . S
C258 C283 1.395 . S
N259 Co248 1.995 . S
N259 C260 1.376 . S
N259 C263 1.383 . S
C260 N259 1.376 . S
C260 C261 1.446 . S
C260 C283 1.391 . S
C261 C260 1.446 . S
C261 C262 1.339 . S
C261 H290 0.949 . S
C262 C261 1.339 . S
C262 C263 1.439 . S
C262 H291 0.950 . S
C263 N259 1.383 . S
C263 C262 1.439 . S
C263 C281 1.392 . S
N264 Co248 2.282 . S
N264 C267 1.332 . S
N264 C269 1.332 . S
C265 C266 1.386 . S
C265 C268 1.388 . S
C266 C265 1.386 . S
C266 C267 1.382 . S
C266 H292 0.950 . S
C267 N264 1.332 . S
C267 C266 1.382 . S
C267 H278 0.952 . S
C268 C265 1.388 . S
C268 C269 1.382 . S
C268 H293 0.950 . S
C269 N264 1.332 . S
C269 C268 1.382 . S
C269 H279 0.948 . S
N270 Co248 2.282 . S
N270 C274 1.332 . S
N270 C275 1.332 . S
C271 C272 1.388 . S
C271 C275 1.382 . S
C271 H294 0.950 . S
C272 C271 1.388 . S
C272 C273 1.386 . S
C273 C272 1.386 . S
C273 C274 1.382 . S
C273 H295 0.950 . S
C274 N270 1.332 . S
C274 C273 1.382 . S
C274 H276 0.952 . S
C275 N270 1.332 . S
C275 C271 1.382 . S
C275 H277 0.948 . S
H276 C274 0.952 . S
H277 C275 0.948 . S
H278 C267 0.952 . S
H279 C269 0.948 . S
C280 C246 1.395 . S
C280 C250 1.391 . S
C281 C243 1.389 . S
C281 C263 1.392 . S
C282 C253 1.392 . S
C282 C255 1.389 . S
C283 C258 1.395 . S
C283 C260 1.391 . S
H284 C244 0.951 . S
H285 C245 0.950 . S
H286 C251 0.949 . S
H287 C252 0.950 . S
H288 C256 0.951 . S
H289 C257 0.950 . S
H290 C261 0.949 . S
H291 C262 0.950 . S
H292 C266 0.950 . S
H293 C268 0.950 . S
H294 C271 0.950 . S
H295 C273 0.950 . S
C296 C297 1.443 . S
C296 N300 1.376 . S
C296 C334 1.389 . S
C297 C296 1.443 . S
C297 C298 1.340 . S
C297 H337 0.951 . S
C298 C297 1.340 . S
C298 C299 1.439 . S
C298 H338 0.950 . S
C299 C298 1.439 . S
C299 N300 1.374 . S
C299 C333 1.395 . S
N300 C296 1.376 . S
N300 C299 1.374 . S
N300 Co301 2.008 . S
Co301 N300 2.008 . S
Co301 N302 1.995 . S
Co301 N307 2.008 . S
Co301 N312 1.995 . S
Co301 N317 2.282 . S
Co301 N323 2.282 . S
N302 Co301 1.995 . S
N302 C303 1.376 . S
N302 C306 1.383 . S
C303 N302 1.376 . S
C303 C304 1.446 . S
C303 C333 1.391 . S
C304 C303 1.446 . S
C304 C305 1.339 . S
C304 H339 0.949 . S
C305 C304 1.339 . S
C305 C306 1.439 . S
C305 H340 0.950 . S
C306 N302 1.383 . S
C306 C305 1.439 . S
C306 C335 1.392 . S
N307 Co301 2.008 . S
N307 C308 1.376 . S
N307 C311 1.374 . S
C308 N307 1.376 . S
C308 C309 1.443 . S
C308 C335 1.389 . S
C309 C308 1.443 . S
C309 C310 1.340 . S
C309 H341 0.951 . S
C310 C309 1.340 . S
C310 C311 1.439 . S
C310 H342 0.950 . S
C311 N307 1.374 . S
C311 C310 1.439 . S
C311 C336 1.395 . S
N312 Co301 1.995 . S
N312 C313 1.376 . S
N312 C316 1.383 . S
C313 N312 1.376 . S
C313 C314 1.446 . S
C313 C336 1.391 . S
C314 C313 1.446 . S
C314 C315 1.339 . S
C314 H343 0.949 . S
C315 C314 1.339 . S
C315 C316 1.439 . S
C315 H344 0.950 . S
C316 N312 1.383 . S
C316 C315 1.439 . S
C316 C334 1.392 . S
N317 Co301 2.282 . S
N317 C320 1.332 . S
N317 C322 1.332 . S
C318 C319 1.386 . S
C318 C321 1.388 . S
C319 C318 1.386 . S
C319 C320 1.382 . S
C319 H345 0.950 . S
C320 N317 1.332 . S
C320 C319 1.382 . S
C320 H331 0.952 . S
C321 C318 1.388 . S
C321 C322 1.382 . S
C321 H346 0.950 . S
C322 N317 1.332 . S
C322 C321 1.382 . S
C322 H332 0.948 . S
N323 Co301 2.282 . S
N323 C327 1.332 . S
N323 C328 1.332 . S
C324 C325 1.388 . S
C324 C328 1.382 . S
C324 H347 0.950 . S
C325 C324 1.388 . S
C325 C326 1.386 . S
C326 C325 1.386 . S
C326 C327 1.382 . S
C326 H348 0.950 . S
C327 N323 1.332 . S
C327 C326 1.382 . S
C327 H329 0.952 . S
C328 N323 1.332 . S
C328 C324 1.382 . S
C328 H330 0.948 . S
H329 C327 0.952 . S
H330 C328 0.948 . S
H331 C320 0.952 . S
H332 C322 0.948 . S
C333 C299 1.395 . S
C333 C303 1.391 . S
C334 C296 1.389 . S
C334 C316 1.392 . S
C335 C306 1.392 . S
C335 C308 1.389 . S
C336 C311 1.395 . S
C336 C313 1.391 . S
H337 C297 0.951 . S
H338 C298 0.950 . S
H339 C304 0.949 . S
H340 C305 0.950 . S
H341 C309 0.951 . S
H342 C310 0.950 . S
H343 C314 0.949 . S
H344 C315 0.950 . S
H345 C319 0.950 . S
H346 C321 0.950 . S
H347 C324 0.950 . S
H348 C326 0.950 . S
C349 C350 1.443 . S
C349 N353 1.376 . S
C349 C387 1.389 . S
C350 C349 1.443 . S
C350 C351 1.340 . S
C350 H390 0.951 . S
C351 C350 1.340 . S
C351 C352 1.439 . S
C351 H391 0.950 . S
C352 C351 1.439 . S
C352 N353 1.374 . S
C352 C386 1.395 . S
N353 C349 1.376 . S
N353 C352 1.374 . S
N353 Co354 2.008 . S
Co354 N353 2.008 . S
Co354 N355 1.995 . S
Co354 N360 2.008 . S
Co354 N365 1.995 . S
Co354 N370 2.282 . S
Co354 N376 2.282 . S
N355 Co354 1.995 . S
N355 C356 1.376 . S
N355 C359 1.383 . S
C356 N355 1.376 . S
C356 C357 1.446 . S
C356 C386 1.391 . S
C357 C356 1.446 . S
C357 C358 1.339 . S
C357 H392 0.949 . S
C358 C357 1.339 . S
C358 C359 1.439 . S
C358 H393 0.950 . S
C359 N355 1.383 . S
C359 C358 1.439 . S
C359 C388 1.392 . S
N360 Co354 2.008 . S
N360 C361 1.376 . S
N360 C364 1.374 . S
C361 N360 1.376 . S
C361 C362 1.443 . S
C361 C388 1.389 . S
C362 C361 1.443 . S
C362 C363 1.340 . S
C362 H394 0.951 . S
C363 C362 1.340 . S
C363 C364 1.439 . S
C363 H395 0.950 . S
C364 N360 1.374 . S
C364 C363 1.439 . S
C364 C389 1.395 . S
N365 Co354 1.995 . S
N365 C366 1.376 . S
N365 C369 1.383 . S
C366 N365 1.376 . S
C366 C367 1.446 . S
C366 C389 1.391 . S
C367 C366 1.446 . S
C367 C368 1.339 . S
C367 H396 0.949 . S
C368 C367 1.339 . S
C368 C369 1.439 . S
C368 H397 0.950 . S
C369 N365 1.383 . S
C369 C368 1.439 . S
C369 C387 1.392 . S
N370 Co354 2.282 . S
N370 C373 1.332 . S
N370 C375 1.332 . S
C371 C372 1.386 . S
C371 C374 1.388 . S
C372 C371 1.386 . S
C372 C373 1.382 . S
C372 H398 0.950 . S
C373 N370 1.332 . S
C373 C372 1.382 . S
C373 H384 0.952 . S
C374 C371 1.388 . S
C374 C375 1.382 . S
C374 H399 0.950 . S
C375 N370 1.332 . S
C375 C374 1.382 . S
C375 H385 0.948 . S
N376 Co354 2.282 . S
N376 C380 1.332 . S
N376 C381 1.332 . S
C377 C378 1.388 . S
C377 C381 1.382 . S
C377 H400 0.950 . S
C378 C377 1.388 . S
C378 C379 1.386 . S
C379 C378 1.386 . S
C379 C380 1.382 . S
C379 H401 0.950 . S
C380 N376 1.332 . S
C380 C379 1.382 . S
C380 H382 0.952 . S
C381 N376 1.332 . S
C381 C377 1.382 . S
C381 H383 0.948 . S
H382 C380 0.952 . S
H383 C381 0.948 . S
H384 C373 0.952 . S
H385 C375 0.948 . S
C386 C352 1.395 . S
C386 C356 1.391 . S
C387 C349 1.389 . S
C387 C369 1.392 . S
C388 C359 1.392 . S
C388 C361 1.389 . S
C389 C364 1.395 . S
C389 C366 1.391 . S
H390 C350 0.951 . S
H391 C351 0.950 . S
H392 C357 0.949 . S
H393 C358 0.950 . S
H394 C362 0.951 . S
H395 C363 0.950 . S
H396 C367 0.949 . S
H397 C368 0.950 . S
H398 C372 0.950 . S
H399 C374 0.950 . S
H400 C377 0.950 . S
H401 C379 0.950 . S
C402 C403 1.391 . S
C402 C404 1.394 . S
C402 H418 0.931 . S
C403 C402 1.391 . S
C403 C407 1.376 . S
C404 C402 1.394 . S
C404 C405 1.369 . S
C404 C408 1.531 . S
C405 C404 1.369 . S
C405 C406 1.410 . S
C405 C413 1.503 . S
C406 C405 1.410 . S
C406 C407 1.392 . S
C406 C409 1.511 . S
C407 C403 1.376 . S
C407 C406 1.392 . S
C407 H419 0.929 . S
C408 C404 1.531 . S
C408 H420 0.960 . S
C408 H421 0.962 . S
C408 H422 0.960 . S
C409 C406 1.511 . S
C409 H423 0.961 . S
C409 H424 0.961 . S
C409 H425 0.961 . S
C410 C411 1.370 . S
C410 C412 1.363 . S
C410 H426 0.931 . S
C411 C410 1.370 . S
C411 C415 1.408 . S
C412 C410 1.363 . S
C412 C413 1.370 . S
C412 C416 1.524 . S
C413 C405 1.503 . S
C413 C412 1.370 . S
C413 C414 1.403 . S
C414 C413 1.403 . S
C414 C415 1.404 . S
C414 C417 1.539 . S
C415 C411 1.408 . S
C415 C414 1.404 . S
C415 H427 0.930 . S
C416 C412 1.524 . S
C416 H428 0.956 . S
C416 H429 0.961 . S
C416 H430 0.961 . S
C417 C414 1.539 . S
C417 H431 0.958 . S
C417 H432 0.961 . S
C417 H433 0.960 . S
H418 C402 0.931 . S
H419 C407 0.929 . S
H420 C408 0.960 . S
H421 C408 0.962 . S
H422 C408 0.960 . S
H423 C409 0.961 . S
H424 C409 0.961 . S
H425 C409 0.961 . S
H426 C410 0.931 . S
H427 C415 0.930 . S
H428 C416 0.956 . S
H429 C416 0.961 . S
H430 C416 0.961 . S
H431 C417 0.958 . S
H432 C417 0.961 . S
H433 C417 0.960 . S
C434 C435 1.391 . S
C434 C436 1.394 . S
C434 H450 0.931 . S
C435 C434 1.391 . S
C435 C439 1.376 . S
C436 C434 1.394 . S
C436 C437 1.369 . S
C436 C440 1.531 . S
C437 C436 1.369 . S
C437 C438 1.410 . S
C437 C445 1.503 . S
C438 C437 1.410 . S
C438 C439 1.392 . S
C438 C441 1.511 . S
C439 C435 1.376 . S
C439 C438 1.392 . S
C439 H451 0.929 . S
C440 C436 1.531 . S
C440 H452 0.960 . S
C440 H453 0.962 . S
C440 H454 0.960 . S
C441 C438 1.511 . S
C441 H455 0.961 . S
C441 H456 0.961 . S
C441 H457 0.961 . S
C442 C443 1.370 . S
C442 C444 1.363 . S
C442 H458 0.931 . S
C443 C442 1.370 . S
C443 C447 1.408 . S
C444 C442 1.363 . S
C444 C445 1.370 . S
C444 C448 1.524 . S
C445 C437 1.503 . S
C445 C444 1.370 . S
C445 C446 1.403 . S
C446 C445 1.403 . S
C446 C447 1.404 . S
C446 C449 1.539 . S
C447 C443 1.408 . S
C447 C446 1.404 . S
C447 H459 0.930 . S
C448 C444 1.524 . S
C448 H460 0.956 . S
C448 H461 0.961 . S
C448 H462 0.961 . S
C449 C446 1.539 . S
C449 H463 0.958 . S
C449 H464 0.961 . S
C449 H465 0.960 . S
H450 C434 0.931 . S
H451 C439 0.929 . S
H452 C440 0.960 . S
H453 C440 0.962 . S
H454 C440 0.960 . S
H455 C441 0.961 . S
H456 C441 0.961 . S
H457 C441 0.961 . S
H458 C442 0.931 . S
H459 C447 0.930 . S
H460 C448 0.956 . S
H461 C448 0.961 . S
H462 C448 0.961 . S
H463 C449 0.958 . S
H464 C449 0.961 . S
H465 C449 0.960 . S
C466 C467 1.391 . S
C466 C468 1.394 . S
C466 H482 0.931 . S
C467 C466 1.391 . S
C467 C471 1.376 . S
C468 C466 1.394 . S
C468 C469 1.369 . S
C468 C472 1.531 . S
C469 C468 1.369 . S
C469 C470 1.410 . S
C469 C477 1.503 . S
C470 C469 1.410 . S
C470 C471 1.392 . S
C470 C473 1.511 . S
C471 C467 1.376 . S
C471 C470 1.392 . S
C471 H483 0.929 . S
C472 C468 1.531 . S
C472 H484 0.960 . S
C472 H485 0.962 . S
C472 H486 0.960 . S
C473 C470 1.511 . S
C473 H487 0.961 . S
C473 H488 0.961 . S
C473 H489 0.961 . S
C474 C475 1.370 . S
C474 C476 1.363 . S
C474 H490 0.931 . S
C475 C474 1.370 . S
C475 C479 1.408 . S
C476 C474 1.363 . S
C476 C477 1.370 . S
C476 C480 1.524 . S
C477 C469 1.503 . S
C477 C476 1.370 . S
C477 C478 1.403 . S
C478 C477 1.403 . S
C478 C479 1.404 . S
C478 C481 1.539 . S
C479 C475 1.408 . S
C479 C478 1.404 . S
C479 H491 0.930 . S
C480 C476 1.524 . S
C480 H492 0.956 . S
C480 H493 0.961 . S
C480 H494 0.961 . S
C481 C478 1.539 . S
C481 H495 0.958 . S
C481 H496 0.961 . S
C481 H497 0.960 . S
H482 C466 0.931 . S
H483 C471 0.929 . S
H484 C472 0.960 . S
H485 C472 0.962 . S
H486 C472 0.960 . S
H487 C473 0.961 . S
H488 C473 0.961 . S
H489 C473 0.961 . S
H490 C474 0.931 . S
H491 C479 0.930 . S
H492 C480 0.956 . S
H493 C480 0.961 . S
H494 C480 0.961 . S
H495 C481 0.958 . S
H496 C481 0.961 . S
H497 C481 0.960 . S
C498 C499 1.391 . S
C498 C500 1.394 . S
C498 H514 0.931 . S
C499 C498 1.391 . S
C499 C503 1.376 . S
C500 C498 1.394 . S
C500 C501 1.369 . S
C500 C504 1.531 . S
C501 C500 1.369 . S
C501 C502 1.410 . S
C501 C509 1.503 . S
C502 C501 1.410 . S
C502 C503 1.392 . S
C502 C505 1.511 . S
C503 C499 1.376 . S
C503 C502 1.392 . S
C503 H515 0.929 . S
C504 C500 1.531 . S
C504 H516 0.960 . S
C504 H517 0.962 . S
C504 H518 0.960 . S
C505 C502 1.511 . S
C505 H519 0.961 . S
C505 H520 0.961 . S
C505 H521 0.961 . S
C506 C507 1.370 . S
C506 C508 1.363 . S
C506 H522 0.931 . S
C507 C506 1.370 . S
C507 C511 1.408 . S
C508 C506 1.363 . S
C508 C509 1.370 . S
C508 C512 1.524 . S
C509 C501 1.503 . S
C509 C508 1.370 . S
C509 C510 1.403 . S
C510 C509 1.403 . S
C510 C511 1.404 . S
C510 C513 1.539 . S
C511 C507 1.408 . S
C511 C510 1.404 . S
C511 H523 0.930 . S
C512 C508 1.524 . S
C512 H524 0.956 . S
C512 H525 0.961 . S
C512 H526 0.961 . S
C513 C510 1.539 . S
C513 H527 0.958 . S
C513 H528 0.961 . S
C513 H529 0.960 . S
H514 C498 0.931 . S
H515 C503 0.929 . S
H516 C504 0.960 . S
H517 C504 0.962 . S
H518 C504 0.960 . S
H519 C505 0.961 . S
H520 C505 0.961 . S
H521 C505 0.961 . S
H522 C506 0.931 . S
H523 C511 0.930 . S
H524 C512 0.956 . S
H525 C512 0.961 . S
H526 C512 0.961 . S
H527 C513 0.958 . S
H528 C513 0.961 . S
H529 C513 0.960 . S
C530 C531 1.391 . S
C530 C532 1.394 . S
C530 H546 0.931 . S
C531 C530 1.391 . S
C531 C535 1.376 . S
C532 C530 1.394 . S
C532 C533 1.369 . S
C532 C536 1.531 . S
C533 C532 1.369 . S
C533 C534 1.410 . S
C533 C541 1.503 . S
C534 C533 1.410 . S
C534 C535 1.392 . S
C534 C537 1.511 . S
C535 C531 1.376 . S
C535 C534 1.392 . S
C535 H547 0.929 . S
C536 C532 1.531 . S
C536 H548 0.960 . S
C536 H549 0.962 . S
C536 H550 0.960 . S
C537 C534 1.511 . S
C537 H551 0.961 . S
C537 H552 0.961 . S
C537 H553 0.961 . S
C538 C539 1.370 . S
C538 C540 1.363 . S
C538 H554 0.931 . S
C539 C538 1.370 . S
C539 C543 1.408 . S
C540 C538 1.363 . S
C540 C541 1.370 . S
C540 C544 1.524 . S
C541 C533 1.503 . S
C541 C540 1.370 . S
C541 C542 1.403 . S
C542 C541 1.403 . S
C542 C543 1.404 . S
C542 C545 1.539 . S
C543 C539 1.408 . S
C543 C542 1.404 . S
C543 H555 0.930 . S
C544 C540 1.524 . S
C544 H556 0.956 . S
C544 H557 0.961 . S
C544 H558 0.961 . S
C545 C542 1.539 . S
C545 H559 0.958 . S
C545 H560 0.961 . S
C545 H561 0.960 . S
H546 C530 0.931 . S
H547 C535 0.929 . S
H548 C536 0.960 . S
H549 C536 0.962 . S
H550 C536 0.960 . S
H551 C537 0.961 . S
H552 C537 0.961 . S
H553 C537 0.961 . S
H554 C538 0.931 . S
H555 C543 0.930 . S
H556 C544 0.956 . S
H557 C544 0.961 . S
H558 C544 0.961 . S
H559 C545 0.958 . S
H560 C545 0.961 . S
H561 C545 0.960 . S
C562 C563 1.391 . S
C562 C564 1.394 . S
C562 H578 0.931 . S
C563 C562 1.391 . S
C563 C567 1.376 . S
C564 C562 1.394 . S
C564 C565 1.369 . S
C564 C568 1.531 . S
C565 C564 1.369 . S
C565 C566 1.410 . S
C565 C573 1.503 . S
C566 C565 1.410 . S
C566 C567 1.392 . S
C566 C569 1.511 . S
C567 C563 1.376 . S
C567 C566 1.392 . S
C567 H579 0.929 . S
C568 C564 1.531 . S
C568 H580 0.960 . S
C568 H581 0.962 . S
C568 H582 0.960 . S
C569 C566 1.511 . S
C569 H583 0.961 . S
C569 H584 0.961 . S
C569 H585 0.961 . S
C570 C571 1.370 . S
C570 C572 1.363 . S
C570 H586 0.931 . S
C571 C570 1.370 . S
C571 C575 1.408 . S
C572 C570 1.363 . S
C572 C573 1.370 . S
C572 C576 1.524 . S
C573 C565 1.503 . S
C573 C572 1.370 . S
C573 C574 1.403 . S
C574 C573 1.403 . S
C574 C575 1.404 . S
C574 C577 1.539 . S
C575 C571 1.408 . S
C575 C574 1.404 . S
C575 H587 0.930 . S
C576 C572 1.524 . S
C576 H588 0.956 . S
C576 H589 0.961 . S
C576 H590 0.961 . S
C577 C574 1.539 . S
C577 H591 0.958 . S
C577 H592 0.961 . S
C577 H593 0.960 . S
H578 C562 0.931 . S
H579 C567 0.929 . S
H580 C568 0.960 . S
H581 C568 0.962 . S
H582 C568 0.960 . S
H583 C569 0.961 . S
H584 C569 0.961 . S
H585 C569 0.961 . S
H586 C570 0.931 . S
H587 C575 0.930 . S
H588 C576 0.956 . S
H589 C576 0.961 . S
H590 C576 0.961 . S
H591 C577 0.958 . S
H592 C577 0.961 . S
H593 C577 0.960 . S
C594 C595 1.391 . S
C594 C596 1.394 . S
C594 H610 0.931 . S
C595 C594 1.391 . S
C595 C599 1.376 . S
C596 C594 1.394 . S
C596 C597 1.369 . S
C596 C600 1.531 . S
C597 C596 1.369 . S
C597 C598 1.410 . S
C597 C605 1.503 . S
C598 C597 1.410 . S
C598 C599 1.392 . S
C598 C601 1.511 . S
C599 C595 1.376 . S
C599 C598 1.392 . S
C599 H611 0.929 . S
C600 C596 1.531 . S
C600 H612 0.960 . S
C600 H613 0.962 . S
C600 H614 0.960 . S
C601 C598 1.511 . S
C601 H615 0.961 . S
C601 H616 0.961 . S
C601 H617 0.961 . S
C602 C603 1.370 . S
C602 C604 1.363 . S
C602 H618 0.931 . S
C603 C602 1.370 . S
C603 C607 1.408 . S
C604 C602 1.363 . S
C604 C605 1.370 . S
C604 C608 1.524 . S
C605 C597 1.503 . S
C605 C604 1.370 . S
C605 C606 1.403 . S
C606 C605 1.403 . S
C606 C607 1.404 . S
C606 C609 1.539 . S
C607 C603 1.408 . S
C607 C606 1.404 . S
C607 H619 0.930 . S
C608 C604 1.524 . S
C608 H620 0.956 . S
C608 H621 0.961 . S
C608 H622 0.961 . S
C609 C606 1.539 . S
C609 H623 0.958 . S
C609 H624 0.961 . S
C609 H625 0.960 . S
H610 C594 0.931 . S
H611 C599 0.929 . S
H612 C600 0.960 . S
H613 C600 0.962 . S
H614 C600 0.960 . S
H615 C601 0.961 . S
H616 C601 0.961 . S
H617 C601 0.961 . S
H618 C602 0.931 . S
H619 C607 0.930 . S
H620 C608 0.956 . S
H621 C608 0.961 . S
H622 C608 0.961 . S
H623 C609 0.958 . S
H624 C609 0.961 . S
H625 C609 0.960 . S
C626 C627 1.391 . S
C626 C628 1.394 . S
C626 H642 0.931 . S
C627 C626 1.391 . S
C627 C631 1.376 . S
C628 C626 1.394 . S
C628 C629 1.369 . S
C628 C632 1.531 . S
C629 C628 1.369 . S
C629 C630 1.410 . S
C629 C637 1.503 . S
C630 C629 1.410 . S
C630 C631 1.392 . S
C630 C633 1.511 . S
C631 C627 1.376 . S
C631 C630 1.392 . S
C631 H643 0.929 . S
C632 C628 1.531 . S
C632 H644 0.960 . S
C632 H645 0.962 . S
C632 H646 0.960 . S
C633 C630 1.511 . S
C633 H647 0.961 . S
C633 H648 0.961 . S
C633 H649 0.961 . S
C634 C635 1.370 . S
C634 C636 1.363 . S
C634 H650 0.931 . S
C635 C634 1.370 . S
C635 C639 1.408 . S
C636 C634 1.363 . S
C636 C637 1.370 . S
C636 C640 1.524 . S
C637 C629 1.503 . S
C637 C636 1.370 . S
C637 C638 1.403 . S
C638 C637 1.403 . S
C638 C639 1.404 . S
C638 C641 1.539 . S
C639 C635 1.408 . S
C639 C638 1.404 . S
C639 H651 0.930 . S
C640 C636 1.524 . S
C640 H652 0.956 . S
C640 H653 0.961 . S
C640 H654 0.961 . S
C641 C638 1.539 . S
C641 H655 0.958 . S
C641 H656 0.961 . S
C641 H657 0.960 . S
H642 C626 0.931 . S
H643 C631 0.929 . S
H644 C632 0.960 . S
H645 C632 0.962 . S
H646 C632 0.960 . S
H647 C633 0.961 . S
H648 C633 0.961 . S
H649 C633 0.961 . S
H650 C634 0.931 . S
H651 C639 0.930 . S
H652 C640 0.956 . S
H653 C640 0.961 . S
H654 C640 0.961 . S
H655 C641 0.958 . S
H656 C641 0.961 . S
H657 C641 0.960 . S
C658 C659 1.391 . S
C658 C660 1.394 . S
C658 H674 0.931 . S
C659 C658 1.391 . S
C659 C663 1.376 . S
C660 C658 1.394 . S
C660 C661 1.369 . S
C660 C664 1.531 . S
C661 C660 1.369 . S
C661 C662 1.410 . S
C661 C669 1.503 . S
C662 C661 1.410 . S
C662 C663 1.392 . S
C662 C665 1.511 . S
C663 C659 1.376 . S
C663 C662 1.392 . S
C663 H675 0.929 . S
C664 C660 1.531 . S
C664 H676 0.960 . S
C664 H677 0.962 . S
C664 H678 0.960 . S
C665 C662 1.511 . S
C665 H679 0.961 . S
C665 H680 0.961 . S
C665 H681 0.961 . S
C666 C667 1.370 . S
C666 C668 1.363 . S
C666 H682 0.931 . S
C667 C666 1.370 . S
C667 C671 1.408 . S
C668 C666 1.363 . S
C668 C669 1.370 . S
C668 C672 1.524 . S
C669 C661 1.503 . S
C669 C668 1.370 . S
C669 C670 1.403 . S
C670 C669 1.403 . S
C670 C671 1.404 . S
C670 C673 1.539 . S
C671 C667 1.408 . S
C671 C670 1.404 . S
C671 H683 0.930 . S
C672 C668 1.524 . S
C672 H684 0.956 . S
C672 H685 0.961 . S
C672 H686 0.961 . S
C673 C670 1.539 . S
C673 H687 0.958 . S
C673 H688 0.961 . S
C673 H689 0.960 . S
H674 C658 0.931 . S
H675 C663 0.929 . S
H676 C664 0.960 . S
H677 C664 0.962 . S
H678 C664 0.960 . S
H679 C665 0.961 . S
H680 C665 0.961 . S
H681 C665 0.961 . S
H682 C666 0.931 . S
H683 C671 0.930 . S
H684 C672 0.956 . S
H685 C672 0.961 . S
H686 C672 0.961 . S
H687 C673 0.958 . S
H688 C673 0.961 . S
H689 C673 0.960 . S
C690 C691 1.391 . S
C690 C692 1.394 . S
C690 H706 0.931 . S
C691 C690 1.391 . S
C691 C695 1.376 . S
C692 C690 1.394 . S
C692 C693 1.369 . S
C692 C696 1.531 . S
C693 C692 1.369 . S
C693 C694 1.410 . S
C693 C701 1.503 . S
C694 C693 1.410 . S
C694 C695 1.392 . S
C694 C697 1.511 . S
C695 C691 1.376 . S
C695 C694 1.392 . S
C695 H707 0.929 . S
C696 C692 1.531 . S
C696 H708 0.960 . S
C696 H709 0.962 . S
C696 H710 0.960 . S
C697 C694 1.511 . S
C697 H711 0.961 . S
C697 H712 0.961 . S
C697 H713 0.961 . S
C698 C699 1.370 . S
C698 C700 1.363 . S
C698 H714 0.931 . S
C699 C698 1.370 . S
C699 C703 1.408 . S
C700 C698 1.363 . S
C700 C701 1.370 . S
C700 C704 1.524 . S
C701 C693 1.503 . S
C701 C700 1.370 . S
C701 C702 1.403 . S
C702 C701 1.403 . S
C702 C703 1.404 . S
C702 C705 1.539 . S
C703 C699 1.408 . S
C703 C702 1.404 . S
C703 H715 0.930 . S
C704 C700 1.524 . S
C704 H716 0.956 . S
C704 H717 0.961 . S
C704 H718 0.961 . S
C705 C702 1.539 . S
C705 H719 0.958 . S
C705 H720 0.961 . S
C705 H721 0.960 . S
H706 C690 0.931 . S
H707 C695 0.929 . S
H708 C696 0.960 . S
H709 C696 0.962 . S
H710 C696 0.960 . S
H711 C697 0.961 . S
H712 C697 0.961 . S
H713 C697 0.961 . S
H714 C698 0.931 . S
H715 C703 0.930 . S
H716 C704 0.956 . S
H717 C704 0.961 . S
H718 C704 0.961 . S
H719 C705 0.958 . S
H720 C705 0.961 . S
H721 C705 0.960 . S
C722 C723 1.391 . S
C722 C724 1.394 . S
C722 H738 0.931 . S
C723 C722 1.391 . S
C723 C727 1.376 . S
C724 C722 1.394 . S
C724 C725 1.369 . S
C724 C728 1.531 . S
C725 C724 1.369 . S
C725 C726 1.410 . S
C725 C733 1.503 . S
C726 C725 1.410 . S
C726 C727 1.392 . S
C726 C729 1.511 . S
C727 C723 1.376 . S
C727 C726 1.392 . S
C727 H739 0.929 . S
C728 C724 1.531 . S
C728 H740 0.960 . S
C728 H741 0.962 . S
C728 H742 0.960 . S
C729 C726 1.511 . S
C729 H743 0.961 . S
C729 H744 0.961 . S
C729 H745 0.961 . S
C730 C731 1.370 . S
C730 C732 1.363 . S
C730 H746 0.931 . S
C731 C730 1.370 . S
C731 C735 1.408 . S
C732 C730 1.363 . S
C732 C733 1.370 . S
C732 C736 1.524 . S
C733 C725 1.503 . S
C733 C732 1.370 . S
C733 C734 1.403 . S
C734 C733 1.403 . S
C734 C735 1.404 . S
C734 C737 1.539 . S
C735 C731 1.408 . S
C735 C734 1.404 . S
C735 H747 0.930 . S
C736 C732 1.524 . S
C736 H748 0.956 . S
C736 H749 0.961 . S
C736 H750 0.961 . S
C737 C734 1.539 . S
C737 H751 0.958 . S
C737 H752 0.961 . S
C737 H753 0.960 . S
H738 C722 0.931 . S
H739 C727 0.929 . S
H740 C728 0.960 . S
H741 C728 0.962 . S
H742 C728 0.960 . S
H743 C729 0.961 . S
H744 C729 0.961 . S
H745 C729 0.961 . S
H746 C730 0.931 . S
H747 C735 0.930 . S
H748 C736 0.956 . S
H749 C736 0.961 . S
H750 C736 0.961 . S
H751 C737 0.958 . S
H752 C737 0.961 . S
H753 C737 0.960 . S
C754 C755 1.391 . S
C754 C756 1.394 . S
C754 H770 0.931 . S
C755 C754 1.391 . S
C755 C759 1.376 . S
C756 C754 1.394 . S
C756 C757 1.369 . S
C756 C760 1.531 . S
C757 C756 1.369 . S
C757 C758 1.410 . S
C757 C765 1.503 . S
C758 C757 1.410 . S
C758 C759 1.392 . S
C758 C761 1.511 . S
C759 C755 1.376 . S
C759 C758 1.392 . S
C759 H771 0.929 . S
C760 C756 1.531 . S
C760 H772 0.960 . S
C760 H773 0.962 . S
C760 H774 0.960 . S
C761 C758 1.511 . S
C761 H775 0.961 . S
C761 H776 0.961 . S
C761 H777 0.961 . S
C762 C763 1.370 . S
C762 C764 1.363 . S
C762 H778 0.931 . S
C763 C762 1.370 . S
C763 C767 1.408 . S
C764 C762 1.363 . S
C764 C765 1.370 . S
C764 C768 1.524 . S
C765 C757 1.503 . S
C765 C764 1.370 . S
C765 C766 1.403 . S
C766 C765 1.403 . S
C766 C767 1.404 . S
C766 C769 1.539 . S
C767 C763 1.408 . S
C767 C766 1.404 . S
C767 H779 0.930 . S
C768 C764 1.524 . S
C768 H780 0.956 . S
C768 H781 0.961 . S
C768 H782 0.961 . S
C769 C766 1.539 . S
C769 H783 0.958 . S
C769 H784 0.961 . S
C769 H785 0.960 . S
H770 C754 0.931 . S
H771 C759 0.929 . S
H772 C760 0.960 . S
H773 C760 0.962 . S
H774 C760 0.960 . S
H775 C761 0.961 . S
H776 C761 0.961 . S
H777 C761 0.961 . S
H778 C762 0.931 . S
H779 C767 0.930 . S
H780 C768 0.956 . S
H781 C768 0.961 . S
H782 C768 0.961 . S
H783 C769 0.958 . S
H784 C769 0.961 . S
H785 C769 0.960 . S
C786 C787 1.391 . S
C786 C788 1.394 . S
C786 H802 0.931 . S
C787 C786 1.391 . S
C787 C791 1.376 . S
C788 C786 1.394 . S
C788 C789 1.369 . S
C788 C792 1.531 . S
C789 C788 1.369 . S
C789 C790 1.410 . S
C789 C797 1.503 . S
C790 C789 1.410 . S
C790 C791 1.392 . S
C790 C793 1.511 . S
C791 C787 1.376 . S
C791 C790 1.392 . S
C791 H803 0.929 . S
C792 C788 1.531 . S
C792 H804 0.960 . S
C792 H805 0.962 . S
C792 H806 0.960 . S
C793 C790 1.511 . S
C793 H807 0.961 . S
C793 H808 0.961 . S
C793 H809 0.961 . S
C794 C795 1.370 . S
C794 C796 1.363 . S
C794 H810 0.931 . S
C795 C794 1.370 . S
C795 C799 1.408 . S
C796 C794 1.363 . S
C796 C797 1.370 . S
C796 C800 1.524 . S
C797 C789 1.503 . S
C797 C796 1.370 . S
C797 C798 1.403 . S
C798 C797 1.403 . S
C798 C799 1.404 . S
C798 C801 1.539 . S
C799 C795 1.408 . S
C799 C798 1.404 . S
C799 H811 0.930 . S
C800 C796 1.524 . S
C800 H812 0.956 . S
C800 H813 0.961 . S
C800 H814 0.961 . S
C801 C798 1.539 . S
C801 H815 0.958 . S
C801 H816 0.961 . S
C801 H817 0.960 . S
H802 C786 0.931 . S
H803 C791 0.929 . S
H804 C792 0.960 . S
H805 C792 0.962 . S
H806 C792 0.960 . S
H807 C793 0.961 . S
H808 C793 0.961 . S
H809 C793 0.961 . S
H810 C794 0.931 . S
H811 C799 0.930 . S
H812 C800 0.956 . S
H813 C800 0.961 . S
H814 C800 0.961 . S
H815 C801 0.958 . S
H816 C801 0.961 . S
H817 C801 0.960 . S
C818 C819 1.391 . S
C818 C820 1.394 . S
C818 H834 0.931 . S
C819 C818 1.391 . S
C819 C823 1.376 . S
C820 C818 1.394 . S
C820 C821 1.369 . S
C820 C824 1.531 . S
C821 C820 1.369 . S
C821 C822 1.410 . S
C821 C829 1.503 . S
C822 C821 1.410 . S
C822 C823 1.392 . S
C822 C825 1.511 . S
C823 C819 1.376 . S
C823 C822 1.392 . S
C823 H835 0.929 . S
C824 C820 1.531 . S
C824 H836 0.960 . S
C824 H837 0.962 . S
C824 H838 0.960 . S
C825 C822 1.511 . S
C825 H839 0.961 . S
C825 H840 0.961 . S
C825 H841 0.961 . S
C826 C827 1.370 . S
C826 C828 1.363 . S
C826 H842 0.931 . S
C827 C826 1.370 . S
C827 C831 1.408 . S
C828 C826 1.363 . S
C828 C829 1.370 . S
C828 C832 1.524 . S
C829 C821 1.503 . S
C829 C828 1.370 . S
C829 C830 1.403 . S
C830 C829 1.403 . S
C830 C831 1.404 . S
C830 C833 1.539 . S
C831 C827 1.408 . S
C831 C830 1.404 . S
C831 H843 0.930 . S
C832 C828 1.524 . S
C832 H844 0.956 . S
C832 H845 0.961 . S
C832 H846 0.961 . S
C833 C830 1.539 . S
C833 H847 0.958 . S
C833 H848 0.961 . S
C833 H849 0.960 . S
H834 C818 0.931 . S
H835 C823 0.929 . S
H836 C824 0.960 . S
H837 C824 0.962 . S
H838 C824 0.960 . S
H839 C825 0.961 . S
H840 C825 0.961 . S
H841 C825 0.961 . S
H842 C826 0.931 . S
H843 C831 0.930 . S
H844 C832 0.956 . S
H845 C832 0.961 . S
H846 C832 0.961 . S
H847 C833 0.958 . S
H848 C833 0.961 . S
H849 C833 0.960 . S
C850 C851 1.391 . S
C850 C852 1.394 . S
C850 H866 0.931 . S
C851 C850 1.391 . S
C851 C855 1.376 . S
C852 C850 1.394 . S
C852 C853 1.369 . S
C852 C856 1.531 . S
C853 C852 1.369 . S
C853 C854 1.410 . S
C853 C861 1.503 . S
C854 C853 1.410 . S
C854 C855 1.392 . S
C854 C857 1.511 . S
C855 C851 1.376 . S
C855 C854 1.392 . S
C855 H867 0.929 . S
C856 C852 1.531 . S
C856 H868 0.960 . S
C856 H869 0.962 . S
C856 H870 0.960 . S
C857 C854 1.511 . S
C857 H871 0.961 . S
C857 H872 0.961 . S
C857 H873 0.961 . S
C858 C859 1.370 . S
C858 C860 1.363 . S
C858 H874 0.931 . S
C859 C858 1.370 . S
C859 C863 1.408 . S
C860 C858 1.363 . S
C860 C861 1.370 . S
C860 C864 1.524 . S
C861 C853 1.503 . S
C861 C860 1.370 . S
C861 C862 1.403 . S
C862 C861 1.403 . S
C862 C863 1.404 . S
C862 C865 1.539 . S
C863 C859 1.408 . S
C863 C862 1.404 . S
C863 H875 0.930 . S
C864 C860 1.524 . S
C864 H876 0.956 . S
C864 H877 0.961 . S
C864 H878 0.961 . S
C865 C862 1.539 . S
C865 H879 0.958 . S
C865 H880 0.961 . S
C865 H881 0.960 . S
H866 C850 0.931 . S
H867 C855 0.929 . S
H868 C856 0.960 . S
H869 C856 0.962 . S
H870 C856 0.960 . S
H871 C857 0.961 . S
H872 C857 0.961 . S
H873 C857 0.961 . S
H874 C858 0.931 . S
H875 C863 0.930 . S
H876 C864 0.956 . S
H877 C864 0.961 . S
H878 C864 0.961 . S
H879 C865 0.958 . S
H880 C865 0.961 . S
H881 C865 0.960 . S
C882 C883 1.391 . S
C882 C884 1.394 . S
C882 H898 0.931 . S
C883 C882 1.391 . S
C883 C887 1.376 . S
C884 C882 1.394 . S
C884 C885 1.369 . S
C884 C888 1.531 . S
C885 C884 1.369 . S
C885 C886 1.410 . S
C885 C893 1.503 . S
C886 C885 1.410 . S
C886 C887 1.392 . S
C886 C889 1.511 . S
C887 C883 1.376 . S
C887 C886 1.392 . S
C887 H899 0.929 . S
C888 C884 1.531 . S
C888 H900 0.960 . S
C888 H901 0.962 . S
C888 H902 0.960 . S
C889 C886 1.511 . S
C889 H903 0.961 . S
C889 H904 0.961 . S
C889 H905 0.961 . S
C890 C891 1.370 . S
C890 C892 1.363 . S
C890 H906 0.931 . S
C891 C890 1.370 . S
C891 C895 1.408 . S
C892 C890 1.363 . S
C892 C893 1.370 . S
C892 C896 1.524 . S
C893 C885 1.503 . S
C893 C892 1.370 . S
C893 C894 1.403 . S
C894 C893 1.403 . S
C894 C895 1.404 . S
C894 C897 1.539 . S
C895 C891 1.408 . S
C895 C894 1.404 . S
C895 H907 0.930 . S
C896 C892 1.524 . S
C896 H908 0.956 . S
C896 H909 0.961 . S
C896 H910 0.961 . S
C897 C894 1.539 . S
C897 H911 0.958 . S
C897 H912 0.961 . S
C897 H913 0.960 . S
H898 C882 0.931 . S
H899 C887 0.929 . S
H900 C888 0.960 . S
H901 C888 0.962 . S
H902 C888 0.960 . S
H903 C889 0.961 . S
H904 C889 0.961 . S
H905 C889 0.961 . S
H906 C890 0.931 . S
H907 C895 0.930 . S
H908 C896 0.956 . S
H909 C896 0.961 . S
H910 C896 0.961 . S
H911 C897 0.958 . S
H912 C897 0.961 . S
H913 C897 0.960 . S
C914 C915 1.391 . S
C914 C916 1.394 . S
C914 H930 0.931 . S
C915 C914 1.391 . S
C915 C919 1.376 . S
C916 C914 1.394 . S
C916 C917 1.369 . S
C916 C920 1.531 . S
C917 C916 1.369 . S
C917 C918 1.410 . S
C917 C925 1.503 . S
C918 C917 1.410 . S
C918 C919 1.392 . S
C918 C921 1.511 . S
C919 C915 1.376 . S
C919 C918 1.392 . S
C919 H931 0.929 . S
C920 C916 1.531 . S
C920 H932 0.960 . S
C920 H933 0.962 . S
C920 H934 0.960 . S
C921 C918 1.511 . S
C921 H935 0.961 . S
C921 H936 0.961 . S
C921 H937 0.961 . S
C922 C923 1.370 . S
C922 C924 1.363 . S
C922 H938 0.931 . S
C923 C922 1.370 . S
C923 C927 1.408 . S
C924 C922 1.363 . S
C924 C925 1.370 . S
C924 C928 1.524 . S
C925 C917 1.503 . S
C925 C924 1.370 . S
C925 C926 1.403 . S
C926 C925 1.403 . S
C926 C927 1.404 . S
C926 C929 1.539 . S
C927 C923 1.408 . S
C927 C926 1.404 . S
C927 H939 0.930 . S
C928 C924 1.524 . S
C928 H940 0.956 . S
C928 H941 0.961 . S
C928 H942 0.961 . S
C929 C926 1.539 . S
C929 H943 0.958 . S
C929 H944 0.961 . S
C929 H945 0.960 . S
H930 C914 0.931 . S
H931 C919 0.929 . S
H932 C920 0.960 . S
H933 C920 0.962 . S
H934 C920 0.960 . S
H935 C921 0.961 . S
H936 C921 0.961 . S
H937 C921 0.961 . S
H938 C922 0.931 . S
H939 C927 0.930 . S
H940 C928 0.956 . S
H941 C928 0.961 . S
H942 C928 0.961 . S
H943 C929 0.958 . S
H944 C929 0.961 . S
H945 C929 0.960 . S
C946 C947 1.391 . S
C946 C948 1.394 . S
C946 H962 0.931 . S
C947 C946 1.391 . S
C947 C951 1.376 . S
C948 C946 1.394 . S
C948 C949 1.369 . S
C948 C952 1.531 . S
C949 C948 1.369 . S
C949 C950 1.410 . S
C949 C957 1.503 . S
C950 C949 1.410 . S
C950 C951 1.392 . S
C950 C953 1.511 . S
C951 C947 1.376 . S
C951 C950 1.392 . S
C951 H963 0.929 . S
C952 C948 1.531 . S
C952 H964 0.960 . S
C952 H965 0.962 . S
C952 H966 0.960 . S
C953 C950 1.511 . S
C953 H967 0.961 . S
C953 H968 0.961 . S
C953 H969 0.961 . S
C954 C955 1.370 . S
C954 C956 1.363 . S
C954 H970 0.931 . S
C955 C954 1.370 . S
C955 C959 1.408 . S
C956 C954 1.363 . S
C956 C957 1.370 . S
C956 C960 1.524 . S
C957 C949 1.503 . S
C957 C956 1.370 . S
C957 C958 1.403 . S
C958 C957 1.403 . S
C958 C959 1.404 . S
C958 C961 1.539 . S
C959 C955 1.408 . S
C959 C958 1.404 . S
C959 H971 0.930 . S
C960 C956 1.524 . S
C960 H972 0.956 . S
C960 H973 0.961 . S
C960 H974 0.961 . S
C961 C958 1.539 . S
C961 H975 0.958 . S
C961 H976 0.961 . S
C961 H977 0.960 . S
H962 C946 0.931 . S
H963 C951 0.929 . S
H964 C952 0.960 . S
H965 C952 0.962 . S
H966 C952 0.960 . S
H967 C953 0.961 . S
H968 C953 0.961 . S
H969 C953 0.961 . S
H970 C954 0.931 . S
H971 C959 0.930 . S
H972 C960 0.956 . S
H973 C960 0.961 . S
H974 C960 0.961 . S
H975 C961 0.958 . S
H976 C961 0.961 . S
H977 C961 0.960 . S
C978 C979 1.391 . S
C978 C980 1.394 . S
C978 H994 0.931 . S
C979 C978 1.391 . S
C979 C983 1.376 . S
C980 C978 1.394 . S
C980 C981 1.369 . S
C980 C984 1.531 . S
C981 C980 1.369 . S
C981 C982 1.410 . S
C981 C989 1.503 . S
C982 C981 1.410 . S
C982 C983 1.392 . S
C982 C985 1.511 . S
C983 C979 1.376 . S
C983 C982 1.392 . S
C983 H995 0.929 . S
C984 C980 1.531 . S
C984 H996 0.960 . S
C984 H997 0.962 . S
C984 H998 0.960 . S
C985 C982 1.511 . S
C985 H999 0.961 . S
C985 H1000 0.961 . S
C985 H1001 0.961 . S
C986 C987 1.370 . S
C986 C988 1.363 . S
C986 H1002 0.931 . S
C987 C986 1.370 . S
C987 C991 1.408 . S
C988 C986 1.363 . S
C988 C989 1.370 . S
C988 C992 1.524 . S
C989 C981 1.503 . S
C989 C988 1.370 . S
C989 C990 1.403 . S
C990 C989 1.403 . S
C990 C991 1.404 . S
C990 C993 1.539 . S
C991 C987 1.408 . S
C991 C990 1.404 . S
C991 H1003 0.930 . S
C992 C988 1.524 . S
C992 H1004 0.956 . S
C992 H1005 0.961 . S
C992 H1006 0.961 . S
C993 C990 1.539 . S
C993 H1007 0.958 . S
C993 H1008 0.961 . S
C993 H1009 0.960 . S
H994 C978 0.931 . S
H995 C983 0.929 . S
H996 C984 0.960 . S
H997 C984 0.962 . S
H998 C984 0.960 . S
H999 C985 0.961 . S
H1000 C985 0.961 . S
H1001 C985 0.961 . S
H1002 C986 0.931 . S
H1003 C991 0.930 . S
H1004 C992 0.956 . S
H1005 C992 0.961 . S
H1006 C992 0.961 . S
H1007 C993 0.958 . S
H1008 C993 0.961 . S
H1009 C993 0.960 . S
C1010 C1011 1.391 . S
C1010 C1012 1.394 . S
C1010 H1026 0.931 . S
C1011 C1010 1.391 . S
C1011 C1015 1.376 . S
C1012 C1010 1.394 . S
C1012 C1013 1.369 . S
C1012 C1016 1.531 . S
C1013 C1012 1.369 . S
C1013 C1014 1.410 . S
C1013 C1021 1.503 . S
C1014 C1013 1.410 . S
C1014 C1015 1.392 . S
C1014 C1017 1.511 . S
C1015 C1011 1.376 . S
C1015 C1014 1.392 . S
C1015 H1027 0.929 . S
C1016 C1012 1.531 . S
C1016 H1028 0.960 . S
C1016 H1029 0.962 . S
C1016 H1030 0.960 . S
C1017 C1014 1.511 . S
C1017 H1031 0.961 . S
C1017 H1032 0.961 . S
C1017 H1033 0.961 . S
C1018 C1019 1.370 . S
C1018 C1020 1.363 . S
C1018 H1034 0.931 . S
C1019 C1018 1.370 . S
C1019 C1023 1.408 . S
C1020 C1018 1.363 . S
C1020 C1021 1.370 . S
C1020 C1024 1.524 . S
C1021 C1013 1.503 . S
C1021 C1020 1.370 . S
C1021 C1022 1.403 . S
C1022 C1021 1.403 . S
C1022 C1023 1.404 . S
C1022 C1025 1.539 . S
C1023 C1019 1.408 . S
C1023 C1022 1.404 . S
C1023 H1035 0.930 . S
C1024 C1020 1.524 . S
C1024 H1036 0.956 . S
C1024 H1037 0.961 . S
C1024 H1038 0.961 . S
C1025 C1022 1.539 . S
C1025 H1039 0.958 . S
C1025 H1040 0.961 . S
C1025 H1041 0.960 . S
H1026 C1010 0.931 . S
H1027 C1015 0.929 . S
H1028 C1016 0.960 . S
H1029 C1016 0.962 . S
H1030 C1016 0.960 . S
H1031 C1017 0.961 . S
H1032 C1017 0.961 . S
H1033 C1017 0.961 . S
H1034 C1018 0.931 . S
H1035 C1023 0.930 . S
H1036 C1024 0.956 . S
H1037 C1024 0.961 . S
H1038 C1024 0.961 . S
H1039 C1025 0.958 . S
H1040 C1025 0.961 . S
H1041 C1025 0.960 . S
C1042 C1043 1.391 . S
C1042 C1044 1.394 . S
C1042 H1058 0.931 . S
C1043 C1042 1.391 . S
C1043 C1047 1.376 . S
C1044 C1042 1.394 . S
C1044 C1045 1.369 . S
C1044 C1048 1.531 . S
C1045 C1044 1.369 . S
C1045 C1046 1.410 . S
C1045 C1053 1.503 . S
C1046 C1045 1.410 . S
C1046 C1047 1.392 . S
C1046 C1049 1.511 . S
C1047 C1043 1.376 . S
C1047 C1046 1.392 . S
C1047 H1059 0.929 . S
C1048 C1044 1.531 . S
C1048 H1060 0.960 . S
C1048 H1061 0.962 . S
C1048 H1062 0.960 . S
C1049 C1046 1.511 . S
C1049 H1063 0.961 . S
C1049 H1064 0.961 . S
C1049 H1065 0.961 . S
C1050 C1051 1.370 . S
C1050 C1052 1.363 . S
C1050 H1066 0.931 . S
C1051 C1050 1.370 . S
C1051 C1055 1.408 . S
C1052 C1050 1.363 . S
C1052 C1053 1.370 . S
C1052 C1056 1.524 . S
C1053 C1045 1.503 . S
C1053 C1052 1.370 . S
C1053 C1054 1.403 . S
C1054 C1053 1.403 . S
C1054 C1055 1.404 . S
C1054 C1057 1.539 . S
C1055 C1051 1.408 . S
C1055 C1054 1.404 . S
C1055 H1067 0.930 . S
C1056 C1052 1.524 . S
C1056 H1068 0.956 . S
C1056 H1069 0.961 . S
C1056 H1070 0.961 . S
C1057 C1054 1.539 . S
C1057 H1071 0.958 . S
C1057 H1072 0.961 . S
C1057 H1073 0.960 . S
H1058 C1042 0.931 . S
H1059 C1047 0.929 . S
H1060 C1048 0.960 . S
H1061 C1048 0.962 . S
H1062 C1048 0.960 . S
H1063 C1049 0.961 . S
H1064 C1049 0.961 . S
H1065 C1049 0.961 . S
H1066 C1050 0.931 . S
H1067 C1055 0.930 . S
H1068 C1056 0.956 . S
H1069 C1056 0.961 . S
H1070 C1056 0.961 . S
H1071 C1057 0.958 . S
H1072 C1057 0.961 . S
H1073 C1057 0.960 . S
C1074 C1075 1.391 . S
C1074 C1076 1.394 . S
C1074 H1090 0.931 . S
C1075 C1074 1.391 . S
C1075 C1079 1.376 . S
C1076 C1074 1.394 . S
C1076 C1077 1.369 . S
C1076 C1080 1.531 . S
C1077 C1076 1.369 . S
C1077 C1078 1.410 . S
C1077 C1085 1.503 . S
C1078 C1077 1.410 . S
C1078 C1079 1.392 . S
C1078 C1081 1.511 . S
C1079 C1075 1.376 . S
C1079 C1078 1.392 . S
C1079 H1091 0.929 . S
C1080 C1076 1.531 . S
C1080 H1092 0.960 . S
C1080 H1093 0.962 . S
C1080 H1094 0.960 . S
C1081 C1078 1.511 . S
C1081 H1095 0.961 . S
C1081 H1096 0.961 . S
C1081 H1097 0.961 . S
C1082 C1083 1.370 . S
C1082 C1084 1.363 . S
C1082 H1098 0.931 . S
C1083 C1082 1.370 . S
C1083 C1087 1.408 . S
C1084 C1082 1.363 . S
C1084 C1085 1.370 . S
C1084 C1088 1.524 . S
C1085 C1077 1.503 . S
C1085 C1084 1.370 . S
C1085 C1086 1.403 . S
C1086 C1085 1.403 . S
C1086 C1087 1.404 . S
C1086 C1089 1.539 . S
C1087 C1083 1.408 . S
C1087 C1086 1.404 . S
C1087 H1099 0.930 . S
C1088 C1084 1.524 . S
C1088 H1100 0.956 . S
C1088 H1101 0.961 . S
C1088 H1102 0.961 . S
C1089 C1086 1.539 . S
C1089 H1103 0.958 . S
C1089 H1104 0.961 . S
C1089 H1105 0.960 . S
H1090 C1074 0.931 . S
H1091 C1079 0.929 . S
H1092 C1080 0.960 . S
H1093 C1080 0.962 . S
H1094 C1080 0.960 . S
H1095 C1081 0.961 . S
H1096 C1081 0.961 . S
H1097 C1081 0.961 . S
H1098 C1082 0.931 . S
H1099 C1087 0.930 . S
H1100 C1088 0.956 . S
H1101 C1088 0.961 . S
H1102 C1088 0.961 . S
H1103 C1089 0.958 . S
H1104 C1089 0.961 . S
H1105 C1089 0.960 . S
C1106 C1107 1.391 . S
C1106 C1108 1.394 . S
C1106 H1122 0.931 . S
C1107 C1106 1.391 . S
C1107 C1111 1.376 . S
C1108 C1106 1.394 . S
C1108 C1109 1.369 . S
C1108 C1112 1.531 . S
C1109 C1108 1.369 . S
C1109 C1110 1.410 . S
C1109 C1117 1.503 . S
C1110 C1109 1.410 . S
C1110 C1111 1.392 . S
C1110 C1113 1.511 . S
C1111 C1107 1.376 . S
C1111 C1110 1.392 . S
C1111 H1123 0.929 . S
C1112 C1108 1.531 . S
C1112 H1124 0.960 . S
C1112 H1125 0.962 . S
C1112 H1126 0.960 . S
C1113 C1110 1.511 . S
C1113 H1127 0.961 . S
C1113 H1128 0.961 . S
C1113 H1129 0.961 . S
C1114 C1115 1.370 . S
C1114 C1116 1.363 . S
C1114 H1130 0.931 . S
C1115 C1114 1.370 . S
C1115 C1119 1.408 . S
C1116 C1114 1.363 . S
C1116 C1117 1.370 . S
C1116 C1120 1.524 . S
C1117 C1109 1.503 . S
C1117 C1116 1.370 . S
C1117 C1118 1.403 . S
C1118 C1117 1.403 . S
C1118 C1119 1.404 . S
C1118 C1121 1.539 . S
C1119 C1115 1.408 . S
C1119 C1118 1.404 . S
C1119 H1131 0.930 . S
C1120 C1116 1.524 . S
C1120 H1132 0.956 . S
C1120 H1133 0.961 . S
C1120 H1134 0.961 . S
C1121 C1118 1.539 . S
C1121 H1135 0.958 . S
C1121 H1136 0.961 . S
C1121 H1137 0.960 . S
H1122 C1106 0.931 . S
H1123 C1111 0.929 . S
H1124 C1112 0.960 . S
H1125 C1112 0.962 . S
H1126 C1112 0.960 . S
H1127 C1113 0.961 . S
H1128 C1113 0.961 . S
H1129 C1113 0.961 . S
H1130 C1114 0.931 . S
H1131 C1119 0.930 . S
H1132 C1120 0.956 . S
H1133 C1120 0.961 . S
H1134 C1120 0.961 . S
H1135 C1121 0.958 . S
H1136 C1121 0.961 . S
H1137 C1121 0.960 . S
C1138 C1139 1.391 . S
C1138 C1140 1.394 . S
C1138 H1154 0.931 . S
C1139 C1138 1.391 . S
C1139 C1143 1.376 . S
C1140 C1138 1.394 . S
C1140 C1141 1.369 . S
C1140 C1144 1.531 . S
C1141 C1140 1.369 . S
C1141 C1142 1.410 . S
C1141 C1149 1.503 . S
C1142 C1141 1.410 . S
C1142 C1143 1.392 . S
C1142 C1145 1.511 . S
C1143 C1139 1.376 . S
C1143 C1142 1.392 . S
C1143 H1155 0.929 . S
C1144 C1140 1.531 . S
C1144 H1156 0.960 . S
C1144 H1157 0.962 . S
C1144 H1158 0.960 . S
C1145 C1142 1.511 . S
C1145 H1159 0.961 . S
C1145 H1160 0.961 . S
C1145 H1161 0.961 . S
C1146 C1147 1.370 . S
C1146 C1148 1.363 . S
C1146 H1162 0.931 . S
C1147 C1146 1.370 . S
C1147 C1151 1.408 . S
C1148 C1146 1.363 . S
C1148 C1149 1.370 . S
C1148 C1152 1.524 . S
C1149 C1141 1.503 . S
C1149 C1148 1.370 . S
C1149 C1150 1.403 . S
C1150 C1149 1.403 . S
C1150 C1151 1.404 . S
C1150 C1153 1.539 . S
C1151 C1147 1.408 . S
C1151 C1150 1.404 . S
C1151 H1163 0.930 . S
C1152 C1148 1.524 . S
C1152 H1164 0.956 . S
C1152 H1165 0.961 . S
C1152 H1166 0.961 . S
C1153 C1150 1.539 . S
C1153 H1167 0.958 . S
C1153 H1168 0.961 . S
C1153 H1169 0.960 . S
H1154 C1138 0.931 . S
H1155 C1143 0.929 . S
H1156 C1144 0.960 . S
H1157 C1144 0.962 . S
H1158 C1144 0.960 . S
H1159 C1145 0.961 . S
H1160 C1145 0.961 . S
H1161 C1145 0.961 . S
H1162 C1146 0.931 . S
H1163 C1151 0.930 . S
H1164 C1152 0.956 . S
H1165 C1152 0.961 . S
H1166 C1152 0.961 . S
H1167 C1153 0.958 . S
H1168 C1153 0.961 . S
H1169 C1153 0.960 . S
C403 C13 1.922 . S
C411 C122 1.876 . S
C435 C27 1.637 . S
C443 C175 1.598 . S
C475 C228 1.773 . S
C467 C29 1.812 . S
C507 C265 1.462 . S
C499 C54 1.495 . S
C539 C325 1.726 . S
C531 C69 1.738 . S
C571 C378 1.546 . S
C563 C83 1.597 . S
C595 C15 1.919 . S
C603 C229 1.885 . S
C627 C41 1.597 . S
C635 C272 1.547 . S
C667 C318 1.724 . S
C659 C42 1.744 . S
C699 C371 1.463 . S
C691 C57 1.494 . S
C723 C71 1.801 . S
C731 C123 1.795 . S
C763 C176 1.621 . S
C755 C1 1.621 . S
C795 C282 1.887 . S
C787 C12 1.908 . S
C819 C26 1.645 . S
C827 C334 1.603 . S
C859 C387 1.780 . S
C851 C28 1.817 . S
C883 C55 1.480 . S
C891 C113 1.479 . S
C915 C68 1.755 . S
C923 C166 1.716 . S
C947 C82 1.574 . S
C955 C219 1.572 . S
C979 C14 1.902 . S
C987 C388 1.891 . S
C1019 C106 1.561 . S
C1011 C40 1.580 . S
C1043 C43 1.756 . S
C1051 C159 1.709 . S
C1075 C56 1.479 . S
C1083 C212 1.474 . S
C1107 C70 1.800 . S
C1115 C281 1.795 . S
C1139 C0 1.622 . S
C1147 C335 1.615 . S
