# Generated by pormake.
# Topology nia, (6,6)-cn, num edge types: 1
# Building blocks:
#     Node 0, Type 0, BuildingBlock: MIFKUJ_clean_sbu_0, # of connection points: 6
#     Node 1, Type 0, BuildingBlock: MIFKUJ_clean_sbu_0, # of connection points: 6
#     Node 2, Type 1, BuildingBlock: MIDCAF_clean_sbu_0, # of connection points: 6
#     Node 3, Type 1, BuildingBlock: MIDCAF_clean_sbu_0, # of connection points: 6
#     Edge 4, Type (0, 1), BuildingBlock: EZIPEK_clean_linker_0, # of connection points: 2
#     Edge 5, Type (0, 1), BuildingBlock: EZIPEK_clean_linker_0, # of connection points: 2
#     Edge 6, Type (0, 1), BuildingBlock: EZIPEK_clean_linker_0, # of connection points: 2
#     Edge 7, Type (0, 1), BuildingBlock: EZIPEK_clean_linker_0, # of connection points: 2
#     Edge 8, Type (0, 1), BuildingBlock: EZIPEK_clean_linker_0, # of connection points: 2
#     Edge 9, Type (0, 1), BuildingBlock: EZIPEK_clean_linker_0, # of connection points: 2
#     Edge 10, Type (0, 1), BuildingBlock: EZIPEK_clean_linker_0, # of connection points: 2
#     Edge 11, Type (0, 1), BuildingBlock: EZIPEK_clean_linker_0, # of connection points: 2
#     Edge 12, Type (0, 1), BuildingBlock: EZIPEK_clean_linker_0, # of connection points: 2
#     Edge 13, Type (0, 1), BuildingBlock: EZIPEK_clean_linker_0, # of connection points: 2
#     Edge 14, Type (0, 1), BuildingBlock: EZIPEK_clean_linker_0, # of connection points: 2
#     Edge 15, Type (0, 1), BuildingBlock: EZIPEK_clean_linker_0, # of connection points: 2
# Relax obj value: 0.183
# Max RMSD: 0.254
# Mean RMSD: 0.188
data_MOF--net-nia--node1-MIFKUJ_clean_sbu_0--node2-MIDCAF_clean_sbu_0--edge1-EZIPEK_clean_linker_0
_symmetry_space_group_name_H-M    P1
_symmetry_Int_Tables_number       1
_symmetry_cell_setting            triclinic
loop_
_symmetry_equiv_pos_as_xyz
'x, y, z'
_cell_length_a     19.51053
_cell_length_b     19.381372
_cell_length_c     20.893711
_cell_angle_alpha  87.326802
_cell_angle_beta   86.858408
_cell_angle_gamma 126.93989
loop_
_atom_site_label
_atom_site_type_symbol
_atom_site_fract_x
_atom_site_fract_y
_atom_site_fract_z
_atom_type_partial_charge
Zn0 Zn 0.00897 0.92191 0.12442 0.0
Zn1 Zn 0.95202 0.01513 1.05107 0.0
C2 C 0.915 0.75348 1.07259 0.0
O3 O 0.93147 0.72929 0.12557 0.0
C4 C 0.04675 0.17742 0.10948 0.0
O5 O 0.02727 0.20357 1.05941 0.0
O6 O 0.06172 0.88426 0.18346 0.0
O7 O 0.10841 0.02867 1.0702 0.0
O8 O 0.03138 0.00908 0.9901 0.0
C9 C 0.11387 0.87183 0.1588 0.0
O10 O 0.13381 0.88647 0.0961 0.0
O11 O 0.94108 0.83123 1.06201 0.0
C12 C 0.82932 0.02439 0.98284 0.0
O13 O 0.77701 0.93941 0.99359 0.0
O14 O 0.90521 0.06642 0.99976 0.0
O15 O 0.85015 0.90674 0.10215 0.0
O16 O 0.9265 0.9266 0.18264 0.0
O17 O 0.02253 0.1 0.11627 0.0
C18 C 0.1029 0.03572 1.01027 0.0
C19 C 0.85485 0.89833 0.16206 0.0
Zn20 Zn 0.02963 0.93375 0.55833 0.0
Zn21 Zn 0.92972 -0.00517 0.62104 0.0
C22 C 0.18972 0.02872 0.61505 0.0
O23 O 0.21429 0.00875 0.56401 0.0
C24 C 0.76897 0.89994 0.56298 0.0
O25 O 0.74474 0.92227 0.61263 0.0
O26 O 0.07267 0.87333 0.51446 0.0
O27 O 0.91719 0.83701 0.60888 0.0
O28 O 0.93194 0.91683 0.68628 0.0
C29 C 0.0699 0.85643 0.45619 0.0
O30 O 0.03487 0.87797 0.41588 0.0
O31 O 0.11279 0.00403 0.6237 0.0
C32 C 0.92366 0.12399 0.6847 0.0
O33 O 0.00816 0.17554 0.67415 0.0
O34 O 0.88107 0.04694 0.66886 0.0
O35 O 0.04003 0.09413 0.5707 0.0
O36 O 0.03478 0.01811 0.49308 0.0
O37 O 0.8453 0.92242 0.55593 0.0
C38 C 0.90659 0.84416 0.66808 0.0
C39 C 0.05616 0.08944 0.51201 0.0
Zn40 Zn 0.35796 0.65597 0.20516 0.0
Zn41 Zn 0.28444 0.59342 0.47071 0.0
Zn42 Zn 0.32372 0.6232 0.33727 0.0
C43 C 0.46675 0.70051 0.43791 0.0
C44 C 0.21556 0.43398 0.41795 0.0
O45 O 0.27363 0.69164 0.30071 0.0
O46 O 0.31015 0.72164 0.19516 0.0
C47 C 0.51343 0.72977 0.2598 0.0
O48 O 0.44632 0.69019 0.37975 0.0
O49 O 0.4095 0.66698 0.48534 0.0
O50 O 0.22192 0.46543 0.47087 0.0
O51 O 0.24744 0.48279 0.36428 0.0
O52 O 0.4836 0.71889 0.20602 0.0
O53 O 0.46371 0.70028 0.31291 0.0
O54 O 0.25702 0.49775 0.29729 0.0
O55 O 0.28503 0.53091 0.1913 0.0
C56 C 0.24861 0.47498 0.23965 0.0
O57 O 0.25543 0.67638 0.36763 0.0
O58 O 0.22061 0.64495 0.47324 0.0
C59 C 0.27424 0.72508 0.24574 0.0
C60 C 0.22017 0.67919 0.42041 0.0
Zn61 Zn 0.59938 0.27119 0.9687 0.0
Zn62 Zn 0.67012 0.34881 0.70969 0.0
Zn63 Zn 0.63676 0.30988 0.83931 0.0
C64 C 0.73851 0.50274 0.76562 0.0
C65 C 0.49113 0.23364 0.73953 0.0
O66 O 0.68785 0.23981 0.86995 0.0
O67 O 0.64271 0.20115 0.97401 0.0
C68 C 0.71366 0.45243 0.94246 0.0
O69 O 0.71203 0.45165 0.81778 0.0
O70 O 0.72659 0.47397 0.71118 0.0
O71 O 0.54748 0.2718 0.69156 0.0
O72 O 0.51303 0.24247 0.79733 0.0
O73 O 0.67599 0.39393 0.98913 0.0
O74 O 0.70444 0.4329 0.8839 0.0
O75 O 0.4958 0.23133 0.86383 0.0
O76 O 0.47407 0.2119 0.97055 0.0
C77 C 0.44508 0.20168 0.9165 0.0
O78 O 0.70764 0.26165 0.80309 0.0
O79 O 0.74171 0.30777 0.69908 0.0
C80 C 0.68173 0.20065 0.92394 0.0
C81 C 0.74505 0.26897 0.7477 0.0
C82 C 0.10369 0.76084 0.23516 0.0
C83 C 0.15477 0.84369 0.19919 0.0
C84 C 0.28551 0.85815 0.2182 0.0
C85 C 0.23337 0.76889 0.24061 0.0
N86 N 0.09271 0.63368 0.27175 0.0
N87 N 0.29463 -0.02318 0.16308 0.0
C88 C 0.14244 0.72017 0.25099 0.0
C89 C 0.24605 0.89446 0.19342 0.0
N90 N 0.01849 0.7207 0.25374 0.0
N91 N 0.37252 0.90795 0.22172 0.0
H92 H 0.26795 0.00785 0.14953 0.0
H93 H 0.36065 0.01356 0.14979 0.0
H94 H 0.40244 0.88275 0.24089 0.0
H95 H 0.41385 -0.02493 0.21143 0.0
H96 H -0.01935 0.66458 0.28558 0.0
H97 H -0.01258 0.74785 0.24306 0.0
H98 H 0.02586 0.59227 0.27251 0.0
H99 H 0.11842 0.6015 0.28446 0.0
C100 C 0.28713 0.16308 0.67064 0.0
C101 C 0.25097 0.07515 0.66347 0.0
C102 C 0.3596 0.08563 0.72509 0.0
C103 C 0.3997 0.17514 0.72753 0.0
N104 N 0.39057 0.29331 0.72125 0.0
N105 N 0.23515 0.94596 0.69908 0.0
C106 C 0.35925 0.2118 0.70666 0.0
C107 C 0.28142 0.03414 0.69606 0.0
N108 N 0.25594 0.20117 0.63985 0.0
N109 N 0.399 0.05133 0.74712 0.0
H110 H 0.17772 0.907 0.67794 0.0
H111 H 0.24915 0.91075 0.72691 0.0
H112 H 0.4546 0.08673 0.77082 0.0
H113 H 0.37896 -0.01077 0.73983 0.0
H114 H 0.28579 0.26747 0.63657 0.0
H115 H 0.20161 0.16669 0.61482 0.0
H116 H 0.36033 0.32182 0.71227 0.0
H117 H 0.44326 0.32949 0.74788 0.0
C118 C 0.17846 0.27182 0.16774 0.0
C119 C 0.09193 0.23737 0.15924 0.0
C120 C 0.10181 0.34471 0.22392 0.0
C121 C 0.18992 0.383 0.2279 0.0
N122 N 0.30538 0.37098 0.22243 0.0
N123 N -0.03598 0.2235 0.19378 0.0
C124 C 0.22577 0.34189 0.20632 0.0
C125 C 0.05116 0.26802 0.19249 0.0
N126 N 0.21696 0.24163 0.1356 0.0
N127 N 0.06826 0.38481 0.24668 0.0
H128 H 0.92577 0.16752 0.17063 0.0
H129 H 0.92871 0.23724 0.22196 0.0
H130 H 0.10291 0.4391 0.27234 0.0
H131 H 0.00768 0.36676 0.23818 0.0
H132 H 0.28256 0.27064 0.13373 0.0
H133 H 0.18394 0.18967 0.10771 0.0
H134 H 0.33312 0.34001 0.21282 0.0
H135 H 0.34023 0.42212 0.25102 0.0
C136 C 0.81423 0.14856 0.66517 0.0
C137 C 0.87689 0.1593 0.70392 0.0
C138 C 0.85492 0.24463 0.77317 0.0
C139 C 0.78616 0.22569 0.73795 0.0
N140 N 0.68432 0.13713 0.66306 0.0
N141 N 0.94409 0.2021 0.80281 0.0
C142 C 0.76067 0.17039 0.688 0.0
C143 C 0.89358 0.2028 0.76045 0.0
N144 N 0.80922 0.12287 0.60469 0.0
N145 N 0.8859 0.30503 0.81655 0.0
H146 H -0.02767 0.17104 0.79541 0.0
H147 H 0.95091 0.22491 0.84798 0.0
H148 H 0.86056 0.33832 0.82626 0.0
H149 H 0.94119 0.32714 0.83898 0.0
H150 H 0.76946 0.12176 0.5727 0.0
H151 H 0.85207 0.11313 0.58356 0.0
H152 H 0.65965 0.09034 0.63046 0.0
H153 H 0.64122 0.14869 0.68043 0.0
C154 C 0.72175 0.76543 0.22191 0.0
C155 C 0.77648 0.85672 0.2074 0.0
C156 C 0.66379 0.86548 0.2519 0.0
C157 C 0.60645 0.77378 0.25966 0.0
N158 N 0.58356 0.63732 0.27177 0.0
N159 N 0.81156 -0.0048 0.22723 0.0
C160 C 0.63684 0.72403 0.2517 0.0
C161 C 0.75139 0.90741 0.22897 0.0
N162 N 0.75009 0.7187 0.20465 0.0
N163 N 0.63303 0.91166 0.26326 0.0
H164 H 0.87634 0.02632 0.21156 0.0
H165 H 0.79937 0.03581 0.24654 0.0
H166 H 0.56972 0.88195 0.28266 0.0
H167 H 0.66877 -0.02168 0.25178 0.0
H168 H 0.71083 0.65133 0.20686 0.0
H169 H 0.81364 0.7483 0.18618 0.0
H170 H 0.60272 0.59751 0.27137 0.0
H171 H 0.52125 0.60654 0.29401 0.0
C172 C 0.91244 0.74296 0.74135 0.0
C173 C 0.86311 0.76665 0.71494 0.0
C174 C 0.72982 0.62469 0.75454 0.0
C175 C 0.77959 0.59574 0.76742 0.0
N176 N 0.91578 0.62573 0.78306 0.0
N177 N 0.72623 0.73774 0.70374 0.0
C178 C 0.87036 0.65506 0.7654 0.0
C179 C 0.77189 0.71027 0.72506 0.0
N180 N -0.00086 0.80451 0.74242 0.0
N181 N 0.64247 0.56918 0.7697 0.0
H182 H 0.75607 0.80169 0.6852 0.0
H183 H 0.65965 0.69758 0.70289 0.0
H184 H 0.61142 0.50647 0.79189 0.0
H185 H 0.60179 0.58668 0.76528 0.0
H186 H 0.03874 0.79355 0.76452 0.0
H187 H 0.03048 0.86929 0.72534 0.0
H188 H -0.01733 0.66286 0.77685 0.0
H189 H 0.88536 0.56224 0.8032 0.0
C190 C 0.05355 0.71796 0.45574 0.0
C191 C 0.10236 0.80786 0.43573 0.0
C192 C 0.22699 0.81257 0.40005 0.0
C193 C 0.17803 0.72239 0.41978 0.0
N194 N 0.03914 0.58515 0.44962 0.0
N195 N 0.22632 0.93554 0.37412 0.0
C196 C 0.08944 0.67376 0.44254 0.0
C197 C 0.18596 0.85331 0.40263 0.0
N198 N -0.02642 0.67527 0.48865 0.0
N199 N 0.31374 0.86051 0.3828 0.0
H200 H 0.19872 -0.03219 0.3765 0.0
H201 H 0.28322 -0.03149 0.34336 0.0
H202 H 0.3468 0.83378 0.3812 0.0
H203 H 0.35437 0.92793 0.37475 0.0
H204 H 0.93927 0.61267 0.51159 0.0
H205 H 0.94322 0.70429 0.49595 0.0
H206 H -0.0276 0.54561 0.46003 0.0
H207 H 0.06311 0.55079 0.4389 0.0
C208 C 0.20625 0.02478 0.94531 0.0
C209 C 0.181 0.07613 0.96485 0.0
C210 C 0.32189 0.20815 0.92161 0.0
C211 C 0.35208 0.15796 0.91558 0.0
N212 N 0.32479 0.01962 0.91368 0.0
N213 N 0.20851 0.21481 0.96616 0.0
C214 C 0.29422 0.06623 0.92364 0.0
C215 C 0.23646 0.16738 0.95001 0.0
N216 N 0.14598 0.9368 0.94818 0.0
N217 N 0.37581 0.29472 0.90112 0.0
H218 H 0.14489 0.18587 0.98413 0.0
H219 H 0.24828 0.28221 0.9638 0.0
H220 H 0.43862 0.32519 0.88012 0.0
H221 H 0.35671 0.33459 0.89981 0.0
H222 H 0.15826 0.89544 0.93068 0.0
H223 H 0.08111 0.90577 0.96357 0.0
H224 H 0.28865 0.95295 0.92527 0.0
H225 H 0.38832 0.04897 0.89506 0.0
C226 C 0.18861 0.22738 0.45632 0.0
C227 C 0.09751 0.16805 0.46634 0.0
C228 C 0.08491 0.27927 0.42347 0.0
C229 C 0.17573 0.34062 0.41962 0.0
N230 N 0.31511 0.37114 0.41325 0.0
N231 N -0.04013 0.12756 0.44123 0.0
C232 C 0.22801 0.31364 0.42926 0.0
C233 C 0.04592 0.19084 0.44346 0.0
N234 N 0.23682 0.20204 0.47563 0.0
N235 N 0.03629 0.30663 0.41102 0.0
H236 H 0.93088 0.06236 0.45508 0.0
H237 H 0.91925 0.13806 0.42038 0.0
H238 H 0.06384 0.37052 0.39375 0.0
H239 H -0.0306 0.26739 0.41974 0.0
H240 H 0.30326 0.24422 0.47704 0.0
H241 H 0.20915 0.13797 0.49237 0.0
H242 H 0.35683 0.35458 0.41461 0.0
H243 H 0.34495 0.4346 0.39333 0.0
C244 C 0.75227 0.0554 0.907 0.0
C245 C 0.7953 0.07227 0.96346 0.0
C246 C 0.78333 0.18859 0.98021 0.0
C247 C 0.7277 0.16208 0.93095 0.0
N248 N 0.65031 0.0624 0.85152 0.0
N249 N 0.83046 0.14022 1.06304 0.0
C250 C 0.70999 0.09362 0.89493 0.0
C251 C 0.80556 0.13524 1.00251 0.0
N252 N 0.75357 0.0049 0.86426 0.0
N253 N 0.81582 0.26537 1.00537 0.0
H254 H 0.83975 0.09696 0.08411 0.0
H255 H 0.83114 0.18016 0.09515 0.0
H256 H 0.80347 0.30808 0.98846 0.0
H257 H 0.8626 0.29073 1.03761 0.0
H258 H 0.73094 -0.00215 0.81918 0.0
H259 H 0.7849 -0.02303 0.87132 0.0
H260 H 0.629 0.00714 0.82854 0.0
H261 H 0.61716 0.08778 0.8421 0.0
C262 C 0.66856 0.76505 0.50848 0.0
C263 C 0.70806 0.85406 0.51406 0.0
C264 C 0.60129 0.84666 0.45183 0.0
C265 C 0.55804 0.7564 0.45081 0.0
N266 N 0.56109 0.63437 0.45997 0.0
N267 N 0.72908 -0.01486 0.47578 0.0
C268 C 0.59568 0.71726 0.47295 0.0
C269 C 0.67998 0.8967 0.48036 0.0
N270 N 0.69745 0.7253 0.54024 0.0
N271 N 0.56453 0.88333 0.42875 0.0
H272 H 0.78706 0.02285 0.49626 0.0
H273 H 0.71688 0.02141 0.44729 0.0
H274 H 0.50862 0.84896 0.40533 0.0
H275 H 0.58702 0.94647 0.43498 0.0
H276 H 0.66535 0.65855 0.54474 0.0
H277 H 0.75237 0.7591 0.5647 0.0
H278 H 0.58903 0.60375 0.46999 0.0
H279 H 0.50792 0.59885 0.43371 0.0
C280 C 0.78672 0.65977 1.01055 0.0
C281 C 0.87093 0.69088 1.02409 0.0
C282 C 0.85948 0.5777 0.96643 0.0
C283 C 0.77353 0.54343 0.95677 0.0
N284 N 0.66397 0.56351 0.95122 0.0
N285 N -0.0033 0.6973 0.99896 0.0
C286 C 0.74024 0.5889 0.97248 0.0
C287 C 0.91038 0.65556 0.99662 0.0
N288 N 0.74921 0.6941 1.03738 0.0
N289 N 0.89077 0.53343 0.94942 0.0
H290 H 0.03556 0.755 1.02027 0.0
H291 H 0.03131 0.6796 0.97491 0.0
H292 H 0.85642 0.47854 0.92432 0.0
H293 H 0.94888 0.54868 0.96231 0.0
H294 H 0.68459 0.66765 1.0357 0.0
H295 H 0.78163 0.74679 1.06462 0.0
H296 H 0.63924 0.59814 0.95602 0.0
H297 H 0.62934 0.51164 0.92325 0.0
loop_
_geom_bond_atom_site_label_1
_geom_bond_atom_site_label_2
_geom_bond_distance
_geom_bond_site_symmetry_2
_ccdc_geom_bond_type
Zn0 O6 1.969 . S
Zn0 O7 1.965 1_565 S
Zn0 O11 2.024 1_454 S
Zn0 O16 1.969 1_455 S
Zn1 O8 1.969 . S
Zn1 O14 1.969 1_455 S
Zn1 O15 1.965 1_446 S
Zn1 O17 2.024 1_556 S
C2 O3 1.247 . S
C2 O11 1.058 . S
O3 C2 1.247 . S
C4 O5 1.229 . S
C4 O17 1.058 . S
O5 C4 1.229 . S
O6 Zn0 1.969 . S
O6 C9 1.267 . S
O7 Zn0 1.965 1_545 S
O7 C18 1.260 1_554 S
O8 Zn1 1.969 . S
O8 C18 1.258 . S
C9 O6 1.267 . S
C9 O10 1.228 . S
O10 C9 1.228 . S
O11 Zn0 2.024 1_656 S
O11 C2 1.058 . S
C12 O13 1.228 . S
C12 O14 1.267 . S
O13 C12 1.228 . S
O14 Zn1 1.969 1_655 S
O14 C12 1.267 . S
O15 Zn1 1.965 1_664 S
O15 C19 1.260 . S
O16 Zn0 1.969 1_655 S
O16 C19 1.258 . S
O17 Zn1 2.024 1_554 S
O17 C4 1.058 . S
C18 O7 1.260 1_556 S
C18 O8 1.258 . S
C19 O15 1.260 . S
C19 O16 1.258 . S
Zn20 O26 1.969 1_545 S
Zn20 O27 1.965 1_545 S
Zn20 O31 2.024 . S
Zn20 O36 1.969 . S
Zn21 O28 1.969 . S
Zn21 O34 1.969 1_565 S
Zn21 O35 1.965 1_665 S
Zn21 O37 2.024 . S
C22 O23 1.229 . S
C22 O31 1.058 . S
O23 C22 1.229 . S
C24 O25 1.229 . S
C24 O37 1.058 . S
O25 C24 1.229 . S
O26 Zn20 1.969 1_565 S
O26 C29 1.267 . S
O27 Zn20 1.965 1_565 S
O27 C38 1.260 1_455 S
O28 Zn21 1.969 . S
O28 C38 1.258 . S
C29 O26 1.267 . S
C29 O30 1.228 . S
O30 C29 1.228 . S
O31 Zn20 2.024 . S
O31 C22 1.058 . S
C32 O33 1.228 . S
C32 O34 1.267 . S
O33 C32 1.228 . S
O34 Zn21 1.969 1_545 S
O34 C32 1.267 . S
O35 Zn21 1.965 1_445 S
O35 C39 1.260 . S
O36 Zn20 1.969 . S
O36 C39 1.258 . S
O37 Zn21 2.024 . S
O37 C24 1.058 . S
C38 O27 1.260 1_655 S
C38 O28 1.258 . S
C39 O35 1.260 . S
C39 O36 1.258 . S
Zn40 O46 1.920 . S
Zn40 O52 1.898 . S
Zn40 O55 1.905 . S
Zn41 O49 1.905 . S
Zn41 O50 1.898 . S
Zn41 O58 1.920 . S
Zn42 O45 2.080 . S
Zn42 O48 2.114 . S
Zn42 O51 2.120 . S
Zn42 O53 2.120 . S
Zn42 O54 2.114 . S
Zn42 O57 2.080 . S
C43 O48 1.166 . S
C43 O49 1.182 . S
C44 O50 1.167 . S
C44 O51 1.299 . S
O45 Zn42 2.080 . S
O45 C59 1.305 . S
O46 Zn40 1.920 . S
O46 C59 1.234 . S
C47 O52 1.167 . S
C47 O53 1.299 . S
O48 Zn42 2.114 . S
O48 C43 1.166 . S
O49 Zn41 1.905 . S
O49 C43 1.182 . S
O50 Zn41 1.898 . S
O50 C44 1.167 . S
O51 Zn42 2.120 . S
O51 C44 1.299 . S
O52 Zn40 1.898 . S
O52 C47 1.167 . S
O53 Zn42 2.120 . S
O53 C47 1.299 . S
O54 Zn42 2.114 . S
O54 C56 1.166 . S
O55 Zn40 1.905 . S
O55 C56 1.182 . S
C56 O54 1.166 . S
C56 O55 1.182 . S
O57 Zn42 2.080 . S
O57 C60 1.305 . S
O58 Zn41 1.920 . S
O58 C60 1.234 . S
C59 O45 1.305 . S
C59 O46 1.234 . S
C60 O57 1.305 . S
C60 O58 1.234 . S
Zn61 O67 1.920 . S
Zn61 O73 1.898 . S
Zn61 O76 1.905 . S
Zn62 O70 1.905 . S
Zn62 O71 1.898 . S
Zn62 O79 1.920 . S
Zn63 O66 2.080 . S
Zn63 O69 2.114 . S
Zn63 O72 2.120 . S
Zn63 O74 2.120 . S
Zn63 O75 2.114 . S
Zn63 O78 2.080 . S
C64 O69 1.166 . S
C64 O70 1.182 . S
C65 O71 1.167 . S
C65 O72 1.299 . S
O66 Zn63 2.080 . S
O66 C80 1.305 . S
O67 Zn61 1.920 . S
O67 C80 1.234 . S
C68 O73 1.167 . S
C68 O74 1.299 . S
O69 Zn63 2.114 . S
O69 C64 1.166 . S
O70 Zn62 1.905 . S
O70 C64 1.182 . S
O71 Zn62 1.898 . S
O71 C65 1.167 . S
O72 Zn63 2.120 . S
O72 C65 1.299 . S
O73 Zn61 1.898 . S
O73 C68 1.167 . S
O74 Zn63 2.120 . S
O74 C68 1.299 . S
O75 Zn63 2.114 . S
O75 C77 1.166 . S
O76 Zn61 1.905 . S
O76 C77 1.182 . S
C77 O75 1.166 . S
C77 O76 1.182 . S
O78 Zn63 2.080 . S
O78 C81 1.305 . S
O79 Zn62 1.920 . S
O79 C81 1.234 . S
C80 O66 1.305 . S
C80 O67 1.234 . S
C81 O78 1.305 . S
C81 O79 1.234 . S
C82 C83 1.363 . S
C82 C88 1.379 . S
C82 N90 1.356 . S
C83 C82 1.363 . S
C83 C89 1.363 . S
C84 C85 1.363 . S
C84 C89 1.379 . S
C84 N91 1.356 . S
C85 C84 1.363 . S
C85 C88 1.363 . S
N86 C88 1.356 . S
N86 H98 0.984 . S
N86 H99 0.985 . S
N87 C89 1.356 . S
N87 H92 0.984 . S
N87 H93 0.985 . S
C88 C82 1.379 . S
C88 C85 1.363 . S
C88 N86 1.356 . S
C89 C83 1.363 . S
C89 C84 1.379 . S
C89 N87 1.356 . S
N90 C82 1.356 . S
N90 H96 0.984 1_455 S
N90 H97 0.984 . S
N91 C84 1.356 . S
N91 H94 0.984 . S
N91 H95 0.985 . S
H92 N87 0.984 . S
H93 N87 0.985 . S
H94 N91 0.984 . S
H95 N91 0.985 . S
H96 N90 0.984 1_655 S
H97 N90 0.984 . S
H98 N86 0.984 . S
H99 N86 0.985 . S
C100 C101 1.363 . S
C100 C106 1.379 . S
C100 N108 1.356 . S
C101 C100 1.363 . S
C101 C107 1.363 . S
C102 C103 1.363 . S
C102 C107 1.379 . S
C102 N109 1.356 . S
C103 C102 1.363 . S
C103 C106 1.363 . S
N104 C106 1.356 . S
N104 H116 0.984 . S
N104 H117 0.985 . S
N105 C107 1.356 . S
N105 H110 0.984 . S
N105 H111 0.985 1_545 S
C106 C100 1.379 . S
C106 C103 1.363 . S
C106 N104 1.356 . S
C107 C101 1.363 . S
C107 C102 1.379 . S
C107 N105 1.356 . S
N108 C100 1.356 . S
N108 H114 0.984 . S
N108 H115 0.984 . S
N109 C102 1.356 . S
N109 H112 0.984 . S
N109 H113 0.985 . S
H110 N105 0.984 . S
H111 N105 0.985 1_565 S
H112 N109 0.984 . S
H113 N109 0.985 . S
H114 N108 0.984 . S
H115 N108 0.984 . S
H116 N104 0.984 . S
H117 N104 0.985 . S
C118 C119 1.363 . S
C118 C124 1.379 . S
C118 N126 1.356 . S
C119 C118 1.363 . S
C119 C125 1.363 . S
C120 C121 1.363 . S
C120 C125 1.379 . S
C120 N127 1.356 . S
C121 C120 1.363 . S
C121 C124 1.363 . S
N122 C124 1.356 . S
N122 H134 0.984 . S
N122 H135 0.985 . S
N123 C125 1.356 . S
N123 H128 0.984 . S
N123 H129 0.985 . S
C124 C118 1.379 . S
C124 C121 1.363 . S
C124 N122 1.356 . S
C125 C119 1.363 . S
C125 C120 1.379 . S
C125 N123 1.356 . S
N126 C118 1.356 . S
N126 H132 0.984 . S
N126 H133 0.984 . S
N127 C120 1.356 . S
N127 H130 0.984 . S
N127 H131 0.985 . S
H128 N123 0.984 . S
H129 N123 0.985 . S
H130 N127 0.984 . S
H131 N127 0.985 . S
H132 N126 0.984 . S
H133 N126 0.984 . S
H134 N122 0.984 . S
H135 N122 0.985 . S
C136 C137 1.363 . S
C136 C142 1.379 . S
C136 N144 1.356 . S
C137 C136 1.363 . S
C137 C143 1.363 . S
C138 C139 1.363 . S
C138 C143 1.379 . S
C138 N145 1.356 . S
C139 C138 1.363 . S
C139 C142 1.363 . S
N140 C142 1.356 . S
N140 H152 0.984 . S
N140 H153 0.985 . S
N141 C143 1.356 . S
N141 H146 0.984 . S
N141 H147 0.985 1_655 S
C142 C136 1.379 . S
C142 C139 1.363 . S
C142 N140 1.356 . S
C143 C137 1.363 . S
C143 C138 1.379 . S
C143 N141 1.356 . S
N144 C136 1.356 . S
N144 H150 0.984 . S
N144 H151 0.984 . S
N145 C138 1.356 . S
N145 H148 0.984 . S
N145 H149 0.985 1_655 S
H146 N141 0.984 . S
H147 N141 0.985 1_455 S
H148 N145 0.984 . S
H149 N145 0.985 1_455 S
H150 N144 0.984 . S
H151 N144 0.984 . S
H152 N140 0.984 . S
H153 N140 0.985 . S
C154 C155 1.363 . S
C154 C160 1.379 . S
C154 N162 1.356 . S
C155 C154 1.363 . S
C155 C161 1.363 . S
C156 C157 1.363 . S
C156 C161 1.379 . S
C156 N163 1.356 . S
C157 C156 1.363 . S
C157 C160 1.363 . S
N158 C160 1.356 . S
N158 H170 0.984 . S
N158 H171 0.985 . S
N159 C161 1.356 . S
N159 H164 0.984 . S
N159 H165 0.985 . S
C160 C154 1.379 . S
C160 C157 1.363 . S
C160 N158 1.356 . S
C161 C155 1.363 . S
C161 C156 1.379 . S
C161 N159 1.356 . S
N162 C154 1.356 . S
N162 H168 0.984 1_554 S
N162 H169 0.987 . S
N163 C156 1.356 . S
N163 H166 0.984 . S
N163 H167 0.985 . S
H164 N159 0.984 . S
H165 N159 0.985 . S
H166 N163 0.984 . S
H167 N163 0.985 . S
H168 N162 0.984 1_556 S
H169 N162 0.987 . S
H170 N158 0.984 . S
H171 N158 0.985 . S
C172 C173 1.363 . S
C172 C178 1.379 . S
C172 N180 1.356 . S
C173 C172 1.363 . S
C173 C179 1.363 . S
C174 C175 1.363 . S
C174 C179 1.379 . S
C174 N181 1.356 . S
C175 C174 1.363 . S
C175 C178 1.363 . S
N176 C178 1.356 . S
N176 H188 0.984 . S
N176 H189 0.985 . S
N177 C179 1.356 . S
N177 H182 0.984 . S
N177 H183 0.985 . S
C178 C172 1.379 . S
C178 C175 1.363 . S
C178 N176 1.356 . S
C179 C173 1.363 . S
C179 C174 1.379 . S
C179 N177 1.356 . S
N180 C172 1.356 . S
N180 H186 0.984 1_655 S
N180 H187 0.984 1_655 S
N181 C174 1.356 . S
N181 H184 0.984 . S
N181 H185 0.985 . S
H182 N177 0.984 . S
H183 N177 0.985 . S
H184 N181 0.984 . S
H185 N181 0.985 . S
H186 N180 0.984 1_455 S
H187 N180 0.984 1_455 S
H188 N176 0.984 . S
H189 N176 0.985 . S
C190 C191 1.363 . S
C190 C196 1.379 . S
C190 N198 1.356 . S
C191 C190 1.363 . S
C191 C197 1.363 . S
C192 C193 1.363 . S
C192 C197 1.379 . S
C192 N199 1.356 . S
C193 C192 1.363 . S
C193 C196 1.363 . S
N194 C196 1.356 . S
N194 H206 0.984 . S
N194 H207 0.985 . S
N195 C197 1.356 . S
N195 H200 0.984 . S
N195 H201 0.985 . S
C196 C190 1.379 . S
C196 C193 1.363 . S
C196 N194 1.356 . S
C197 C191 1.363 . S
C197 C192 1.379 . S
C197 N195 1.356 . S
N198 C190 1.356 . S
N198 H204 0.984 . S
N198 H205 0.984 . S
N199 C192 1.356 . S
N199 H202 0.984 . S
N199 H203 0.985 . S
H200 N195 0.984 . S
H201 N195 0.985 . S
H202 N199 0.984 . S
H203 N199 0.985 . S
H204 N198 0.984 . S
H205 N198 0.984 . S
H206 N194 0.984 . S
H207 N194 0.985 . S
C208 C209 1.363 . S
C208 C214 1.379 . S
C208 N216 1.356 . S
C209 C208 1.363 . S
C209 C215 1.363 . S
C210 C211 1.363 . S
C210 C215 1.379 . S
C210 N217 1.356 . S
C211 C210 1.363 . S
C211 C214 1.363 . S
N212 C214 1.356 . S
N212 H224 0.984 . S
N212 H225 0.985 . S
N213 C215 1.356 . S
N213 H218 0.984 . S
N213 H219 0.985 . S
C214 C208 1.379 . S
C214 C211 1.363 . S
C214 N212 1.356 . S
C215 C209 1.363 . S
C215 C210 1.379 . S
C215 N213 1.356 . S
N216 C208 1.356 . S
N216 H222 0.984 1_545 S
N216 H223 0.984 1_545 S
N217 C210 1.356 . S
N217 H220 0.984 . S
N217 H221 0.985 . S
H218 N213 0.984 . S
H219 N213 0.985 . S
H220 N217 0.984 . S
H221 N217 0.985 . S
H222 N216 0.984 1_565 S
H223 N216 0.984 1_565 S
H224 N212 0.984 . S
H225 N212 0.985 . S
C226 C227 1.363 . S
C226 C232 1.379 . S
C226 N234 1.356 . S
C227 C226 1.363 . S
C227 C233 1.363 . S
C228 C229 1.363 . S
C228 C233 1.379 . S
C228 N235 1.356 . S
C229 C228 1.363 . S
C229 C232 1.363 . S
N230 C232 1.356 . S
N230 H242 0.984 . S
N230 H243 0.985 . S
N231 C233 1.356 1_655 S
N231 H236 0.984 . S
N231 H237 0.985 . S
C232 C226 1.379 . S
C232 C229 1.363 . S
C232 N230 1.356 . S
C233 C227 1.363 . S
C233 C228 1.379 . S
C233 N231 1.356 1_455 S
N234 C226 1.356 . S
N234 H240 0.984 . S
N234 H241 0.984 . S
N235 C228 1.356 . S
N235 H238 0.984 . S
N235 H239 0.985 1_455 S
H236 N231 0.984 . S
H237 N231 0.985 . S
H238 N235 0.984 . S
H239 N235 0.985 1_655 S
H240 N234 0.984 . S
H241 N234 0.984 . S
H242 N230 0.984 . S
H243 N230 0.985 . S
C244 C245 1.363 . S
C244 C250 1.379 . S
C244 N252 1.356 . S
C245 C244 1.363 . S
C245 C251 1.363 . S
C246 C247 1.363 . S
C246 C251 1.379 . S
C246 N253 1.356 . S
C247 C246 1.363 . S
C247 C250 1.363 . S
N248 C250 1.356 . S
N248 H260 0.984 . S
N248 H261 0.985 . S
N249 C251 1.356 . S
N249 H254 0.984 . S
N249 H255 0.985 . S
C250 C244 1.379 . S
C250 C247 1.363 . S
C250 N248 1.356 . S
C251 C245 1.363 . S
C251 C246 1.379 . S
C251 N249 1.356 . S
N252 C244 1.356 . S
N252 H258 0.984 . S
N252 H259 0.984 . S
N253 C246 1.356 . S
N253 H256 0.984 . S
N253 H257 0.985 . S
H254 N249 0.984 . S
H255 N249 0.985 . S
H256 N253 0.984 . S
H257 N253 0.985 . S
H258 N252 0.984 . S
H259 N252 0.984 . S
H260 N248 0.984 . S
H261 N248 0.985 . S
C262 C263 1.363 . S
C262 C268 1.379 . S
C262 N270 1.356 . S
C263 C262 1.363 . S
C263 C269 1.363 . S
C264 C265 1.363 . S
C264 C269 1.379 . S
C264 N271 1.356 . S
C265 C264 1.363 . S
C265 C268 1.363 . S
N266 C268 1.356 . S
N266 H278 0.984 . S
N266 H279 0.985 . S
N267 C269 1.356 . S
N267 H272 0.984 1_565 S
N267 H273 0.985 1_565 S
C268 C262 1.379 . S
C268 C265 1.363 . S
C268 N266 1.356 . S
C269 C263 1.363 . S
C269 C264 1.379 . S
C269 N267 1.356 . S
N270 C262 1.356 . S
N270 H276 0.984 . S
N270 H277 0.984 . S
N271 C264 1.356 . S
N271 H274 0.984 . S
N271 H275 0.985 . S
H272 N267 0.984 1_545 S
H273 N267 0.985 1_545 S
H274 N271 0.984 . S
H275 N271 0.985 . S
H276 N270 0.984 . S
H277 N270 0.984 . S
H278 N266 0.984 . S
H279 N266 0.985 . S
C280 C281 1.363 . S
C280 C286 1.379 . S
C280 N288 1.356 . S
C281 C280 1.363 . S
C281 C287 1.363 . S
C282 C283 1.363 . S
C282 C287 1.379 . S
C282 N289 1.356 . S
C283 C282 1.363 . S
C283 C286 1.363 . S
N284 C286 1.356 . S
N284 H296 0.984 . S
N284 H297 0.985 . S
N285 C287 1.356 . S
N285 H290 0.984 . S
N285 H291 0.989 . S
C286 C280 1.379 . S
C286 C283 1.363 . S
C286 N284 1.356 . S
C287 C281 1.363 . S
C287 C282 1.379 . S
C287 N285 1.356 . S
N288 C280 1.356 . S
N288 H294 0.984 . S
N288 H295 0.984 . S
N289 C282 1.356 . S
N289 H292 0.984 . S
N289 H293 0.985 . S
H290 N285 0.984 . S
H291 N285 0.989 . S
H292 N289 0.984 . S
H293 N289 0.985 . S
H294 N288 0.984 . S
H295 N288 0.984 . S
H296 N284 0.984 . S
H297 N284 0.985 . S
C83 C9 1.442 . S
C85 C59 1.343 . S
C101 C22 1.277 . S
C103 C65 1.167 . S
C119 C4 1.400 . S
C121 C56 1.248 . S
C137 C32 1.615 . S
C139 C81 1.463 . S
C155 C19 1.859 . S
C157 C47 1.687 . S
C175 C64 1.651 . S
C173 C38 1.742 . S
C191 C29 1.442 . S
C193 C60 1.343 . S
C211 C77 1.650 . S
C209 C18 1.742 . S
C229 C44 1.687 . S
C227 C39 1.859 . S
C247 C80 1.463 . S
C245 C12 1.615 . S
C265 C43 1.248 . S
C263 C24 1.399 . S
C283 C68 1.167 . S
C281 C2 1.277 . S
