# Generated by pormake.
# Topology ocu, (6,8)-cn, num edge types: 1
# Building blocks:
#     Node 0, Type 0, BuildingBlock: KUMJIN_clean_sbu_0, # of connection points: 6
#     Node 1, Type 0, BuildingBlock: KUMJIN_clean_sbu_0, # of connection points: 6
#     Node 2, Type 0, BuildingBlock: KUMJIN_clean_sbu_0, # of connection points: 6
#     Node 3, Type 0, BuildingBlock: KUMJIN_clean_sbu_0, # of connection points: 6
#     Node 4, Type 0, BuildingBlock: KUMJIN_clean_sbu_0, # of connection points: 6
#     Node 5, Type 0, BuildingBlock: KUMJIN_clean_sbu_0, # of connection points: 6
#     Node 6, Type 0, BuildingBlock: KUMJIN_clean_sbu_0, # of connection points: 6
#     Node 7, Type 0, BuildingBlock: KUMJIN_clean_sbu_0, # of connection points: 6
#     Node 8, Type 1, BuildingBlock: VETTIZ_charged_sbu_0, # of connection points: 8
#     Node 9, Type 1, BuildingBlock: VETTIZ_charged_sbu_0, # of connection points: 8
#     Node 10, Type 1, BuildingBlock: VETTIZ_charged_sbu_0, # of connection points: 8
#     Node 11, Type 1, BuildingBlock: VETTIZ_charged_sbu_0, # of connection points: 8
#     Node 12, Type 1, BuildingBlock: VETTIZ_charged_sbu_0, # of connection points: 8
#     Node 13, Type 1, BuildingBlock: VETTIZ_charged_sbu_0, # of connection points: 8
#     Edge 14, Type (0, 1), BuildingBlock: UVAHIK_clean_linker_0, # of connection points: 2
#     Edge 15, Type (0, 1), BuildingBlock: UVAHIK_clean_linker_0, # of connection points: 2
#     Edge 16, Type (0, 1), BuildingBlock: UVAHIK_clean_linker_0, # of connection points: 2
#     Edge 17, Type (0, 1), BuildingBlock: UVAHIK_clean_linker_0, # of connection points: 2
#     Edge 18, Type (0, 1), BuildingBlock: UVAHIK_clean_linker_0, # of connection points: 2
#     Edge 19, Type (0, 1), BuildingBlock: UVAHIK_clean_linker_0, # of connection points: 2
#     Edge 20, Type (0, 1), BuildingBlock: UVAHIK_clean_linker_0, # of connection points: 2
#     Edge 21, Type (0, 1), BuildingBlock: UVAHIK_clean_linker_0, # of connection points: 2
#     Edge 22, Type (0, 1), BuildingBlock: UVAHIK_clean_linker_0, # of connection points: 2
#     Edge 23, Type (0, 1), BuildingBlock: UVAHIK_clean_linker_0, # of connection points: 2
#     Edge 24, Type (0, 1), BuildingBlock: UVAHIK_clean_linker_0, # of connection points: 2
#     Edge 25, Type (0, 1), BuildingBlock: UVAHIK_clean_linker_0, # of connection points: 2
#     Edge 26, Type (0, 1), BuildingBlock: UVAHIK_clean_linker_0, # of connection points: 2
#     Edge 27, Type (0, 1), BuildingBlock: UVAHIK_clean_linker_0, # of connection points: 2
#     Edge 28, Type (0, 1), BuildingBlock: UVAHIK_clean_linker_0, # of connection points: 2
#     Edge 29, Type (0, 1), BuildingBlock: UVAHIK_clean_linker_0, # of connection points: 2
#     Edge 30, Type (0, 1), BuildingBlock: UVAHIK_clean_linker_0, # of connection points: 2
#     Edge 31, Type (0, 1), BuildingBlock: UVAHIK_clean_linker_0, # of connection points: 2
#     Edge 32, Type (0, 1), BuildingBlock: UVAHIK_clean_linker_0, # of connection points: 2
#     Edge 33, Type (0, 1), BuildingBlock: UVAHIK_clean_linker_0, # of connection points: 2
#     Edge 34, Type (0, 1), BuildingBlock: UVAHIK_clean_linker_0, # of connection points: 2
#     Edge 35, Type (0, 1), BuildingBlock: UVAHIK_clean_linker_0, # of connection points: 2
#     Edge 36, Type (0, 1), BuildingBlock: UVAHIK_clean_linker_0, # of connection points: 2
#     Edge 37, Type (0, 1), BuildingBlock: UVAHIK_clean_linker_0, # of connection points: 2
#     Edge 38, Type (0, 1), BuildingBlock: UVAHIK_clean_linker_0, # of connection points: 2
#     Edge 39, Type (0, 1), BuildingBlock: UVAHIK_clean_linker_0, # of connection points: 2
#     Edge 40, Type (0, 1), BuildingBlock: UVAHIK_clean_linker_0, # of connection points: 2
#     Edge 41, Type (0, 1), BuildingBlock: UVAHIK_clean_linker_0, # of connection points: 2
#     Edge 42, Type (0, 1), BuildingBlock: UVAHIK_clean_linker_0, # of connection points: 2
#     Edge 43, Type (0, 1), BuildingBlock: UVAHIK_clean_linker_0, # of connection points: 2
#     Edge 44, Type (0, 1), BuildingBlock: UVAHIK_clean_linker_0, # of connection points: 2
#     Edge 45, Type (0, 1), BuildingBlock: UVAHIK_clean_linker_0, # of connection points: 2
#     Edge 46, Type (0, 1), BuildingBlock: UVAHIK_clean_linker_0, # of connection points: 2
#     Edge 47, Type (0, 1), BuildingBlock: UVAHIK_clean_linker_0, # of connection points: 2
#     Edge 48, Type (0, 1), BuildingBlock: UVAHIK_clean_linker_0, # of connection points: 2
#     Edge 49, Type (0, 1), BuildingBlock: UVAHIK_clean_linker_0, # of connection points: 2
#     Edge 50, Type (0, 1), BuildingBlock: UVAHIK_clean_linker_0, # of connection points: 2
#     Edge 51, Type (0, 1), BuildingBlock: UVAHIK_clean_linker_0, # of connection points: 2
#     Edge 52, Type (0, 1), BuildingBlock: UVAHIK_clean_linker_0, # of connection points: 2
#     Edge 53, Type (0, 1), BuildingBlock: UVAHIK_clean_linker_0, # of connection points: 2
#     Edge 54, Type (0, 1), BuildingBlock: UVAHIK_clean_linker_0, # of connection points: 2
#     Edge 55, Type (0, 1), BuildingBlock: UVAHIK_clean_linker_0, # of connection points: 2
#     Edge 56, Type (0, 1), BuildingBlock: UVAHIK_clean_linker_0, # of connection points: 2
#     Edge 57, Type (0, 1), BuildingBlock: UVAHIK_clean_linker_0, # of connection points: 2
#     Edge 58, Type (0, 1), BuildingBlock: UVAHIK_clean_linker_0, # of connection points: 2
#     Edge 59, Type (0, 1), BuildingBlock: UVAHIK_clean_linker_0, # of connection points: 2
#     Edge 60, Type (0, 1), BuildingBlock: UVAHIK_clean_linker_0, # of connection points: 2
#     Edge 61, Type (0, 1), BuildingBlock: UVAHIK_clean_linker_0, # of connection points: 2
# Relax obj value: 0.105
# Max RMSD: 0.249
# Mean RMSD: 0.161
data_MOF--net-ocu--node1-KUMJIN_clean_sbu_0--node2-VETTIZ_charged_sbu_0--edge1-UVAHIK_clean_linker_0
_symmetry_space_group_name_H-M    P1
_symmetry_Int_Tables_number       1
_symmetry_cell_setting            triclinic
loop_
_symmetry_equiv_pos_as_xyz
'x, y, z'
_cell_length_a     48.311897
_cell_length_b     48.898447
_cell_length_c     52.116775
_cell_angle_alpha  80.538504
_cell_angle_beta   97.946061
_cell_angle_gamma 101.63363
loop_
_atom_site_label
_atom_site_type_symbol
_atom_site_fract_x
_atom_site_fract_y
_atom_site_fract_z
_atom_type_partial_charge
Eu0 Eu 0.25741 0.22664 0.23555 0.0
C1 C 0.35128 0.30473 0.29979 0.0
C2 C 0.3613 0.27721 0.3419 0.0
C3 C 0.39849 0.31335 0.32354 0.0
C4 C 0.34246 0.28345 0.31945 0.0
C5 C 0.37925 0.3203 0.3018 0.0
C6 C 0.38952 0.29183 0.34356 0.0
C7 C 0.36646 0.34977 0.26169 0.0
N8 N 0.33208 0.31105 0.27921 0.0
C9 C 0.33894 0.3338 0.26066 0.0
C10 C 0.38681 0.34281 0.2822 0.0
Eu11 Eu 0.28643 0.28193 0.27785 0.0
N12 N 0.31501 0.26991 0.31729 0.0
C13 C 0.30441 0.25153 0.33782 0.0
C14 C 0.35096 0.25707 0.36234 0.0
C15 C 0.32226 0.24452 0.36045 0.0
H16 H 0.32342 0.33919 0.24462 0.0
H17 H 0.31389 0.22933 0.37635 0.0
H18 H 0.40438 0.28714 0.36054 0.0
H19 H 0.37198 0.36738 0.24664 0.0
H20 H 0.28234 0.24153 0.33661 0.0
H21 H 0.22873 0.28369 0.13938 0.0
H22 H 0.36474 0.2516 0.37988 0.0
H23 H 0.22107 0.16776 0.26702 0.0
H24 H 0.26072 0.26994 0.17836 0.0
H25 H 0.17267 0.13919 0.26447 0.0
H26 H 0.42014 0.3249 0.32534 0.0
H27 H 0.17799 0.26098 0.13557 0.0
H28 H 0.13874 0.22413 0.15402 0.0
H29 H 0.4081 0.35526 0.283 0.0
H30 H 0.12353 0.18464 0.18796 0.0
N31 N 0.22837 0.24021 0.1969 0.0
C32 C 0.23869 0.25972 0.17694 0.0
C33 C 0.19197 0.25481 0.15273 0.0
C34 C 0.18195 0.23356 0.1725 0.0
C35 C 0.2206 0.26762 0.15478 0.0
C36 C 0.20103 0.22644 0.19449 0.0
H37 H 0.13615 0.15253 0.22898 0.0
N38 N 0.21194 0.1972 0.23356 0.0
C39 C 0.17794 0.15748 0.25002 0.0
C40 C 0.19252 0.20422 0.21344 0.0
C41 C 0.20537 0.17365 0.25135 0.0
C42 C 0.15737 0.16512 0.23001 0.0
C43 C 0.16462 0.18852 0.21117 0.0
O44 O 0.27806 0.22093 0.20247 0.0
O45 O 0.2886 0.23906 0.26952 0.0
O46 O 0.32108 0.27751 0.2546 0.0
O47 O 0.29263 0.26065 0.21873 0.0
O48 O 0.26953 0.19715 0.27217 0.0
O49 O 0.2686 0.18604 0.23303 0.0
O50 O 0.27418 0.32269 0.27725 0.0
O51 O 0.25434 0.26906 0.24451 0.0
O52 O 0.22313 0.22899 0.26053 0.0
O53 O 0.25194 0.248 0.29537 0.0
O54 O 0.27482 0.31047 0.24045 0.0
O55 O 0.26515 0.2897 0.30969 0.0
C56 C 0.28765 0.21541 0.28396 0.0
C57 C 0.3112 0.1905 0.21402 0.0
C58 C 0.34821 0.17267 0.19727 0.0
C59 C 0.31979 0.17688 0.19541 0.0
C60 C 0.36744 0.18196 0.21835 0.0
C61 C 0.33112 0.20011 0.23431 0.0
C62 C 0.35897 0.19567 0.23655 0.0
C63 C 0.31735 0.27277 0.22999 0.0
C64 C 0.2818 0.19548 0.21223 0.0
C65 C 0.14513 0.19628 0.18994 0.0
C66 C 0.15379 0.21877 0.17062 0.0
C67 C 0.25543 0.29241 0.22964 0.0
C68 C 0.27103 0.3369 0.31773 0.0
C69 C 0.24951 0.34962 0.32373 0.0
C70 C 0.256 0.37076 0.34019 0.0
C71 C 0.28442 0.37874 0.35066 0.0
C72 C 0.29915 0.34509 0.32845 0.0
C73 C 0.30575 0.36591 0.34487 0.0
C74 C 0.2273 0.23489 0.28486 0.0
C75 C 0.26381 0.31571 0.2997 0.0
H76 H 0.30455 0.1701 0.17936 0.0
H77 H 0.38914 0.17846 0.22099 0.0
H78 H 0.32511 0.21108 0.24846 0.0
H79 H 0.37407 0.2029 0.25249 0.0
H80 H 0.22782 0.34341 0.31519 0.0
H81 H 0.29011 0.39465 0.36363 0.0
H82 H 0.31595 0.33551 0.32401 0.0
H83 H 0.3275 0.37216 0.35312 0.0
Eu84 Eu 0.77828 0.25208 0.25393 0.0
C85 C 0.68341 0.26895 0.30424 0.0
C86 C 0.63687 0.26435 0.27946 0.0
C87 C 0.64127 0.24765 0.32612 0.0
C88 C 0.6667 0.27253 0.28067 0.0
C89 C 0.67082 0.25696 0.32737 0.0
C90 C 0.62432 0.25132 0.30219 0.0
C91 C 0.71742 0.26508 0.35141 0.0
N92 N 0.71195 0.27769 0.30466 0.0
C93 C 0.72896 0.2764 0.32792 0.0
C94 C 0.68825 0.25502 0.35111 0.0
Eu95 Eu 0.72992 0.2973 0.26406 0.0
N96 N 0.67948 0.28526 0.25913 0.0
C97 C 0.66345 0.29279 0.23625 0.0
C98 C 0.62049 0.27026 0.2556 0.0
C99 C 0.63384 0.28495 0.23399 0.0
H100 H 0.75156 0.28362 0.32867 0.0
H101 H 0.62135 0.29029 0.21561 0.0
H102 H 0.60148 0.24461 0.30159 0.0
H103 H 0.7311 0.26382 0.36968 0.0
H104 H 0.67371 0.30429 0.21948 0.0
H105 H 0.87659 0.3272 0.23656 0.0
H106 H 0.59753 0.2643 0.25385 0.0
H107 H 0.74861 0.19704 0.22261 0.0
H108 H 0.83634 0.30305 0.26067 0.0
H109 H 0.75163 0.17905 0.18161 0.0
H110 H 0.63128 0.23805 0.34362 0.0
H111 H 0.88064 0.31529 0.19308 0.0
H112 H 0.86156 0.2851 0.15771 0.0
H113 H 0.6794 0.24597 0.36929 0.0
H114 H 0.82719 0.24506 0.14248 0.0
N115 N 0.81735 0.27719 0.23143 0.0
C116 C 0.83776 0.29721 0.24193 0.0
C117 C 0.86294 0.30434 0.20372 0.0
C118 C 0.84255 0.28318 0.19344 0.0
C119 C 0.86076 0.31107 0.22827 0.0
C120 C 0.81992 0.26957 0.20811 0.0
H121 H 0.7864 0.2051 0.15144 0.0
N122 N 0.78054 0.23341 0.21514 0.0
C123 C 0.76548 0.1983 0.18634 0.0
C124 C 0.80076 0.24707 0.1996 0.0
C125 C 0.76388 0.2085 0.20954 0.0
C126 C 0.78505 0.21312 0.16933 0.0
C127 C 0.80343 0.2375 0.17612 0.0
O128 O 0.78025 0.20814 0.26913 0.0
O129 O 0.74511 0.2569 0.27853 0.0
O130 O 0.77064 0.30869 0.28966 0.0
O131 O 0.80015 0.27728 0.28669 0.0
O132 O 0.73951 0.21926 0.26309 0.0
O133 O 0.81632 0.24064 0.27744 0.0
O134 O 0.74329 0.33393 0.28505 0.0
O135 O 0.76924 0.29572 0.24664 0.0
O136 O 0.74525 0.25379 0.21848 0.0
O137 O 0.70819 0.26905 0.23341 0.0
O138 O 0.73957 0.31639 0.2227 0.0
O139 O 0.71288 0.3359 0.2508 0.0
C140 C 0.72936 0.2329 0.27754 0.0
C141 C 0.80397 0.20383 0.31186 0.0
C142 C 0.82426 0.20744 0.35721 0.0
C143 C 0.82371 0.21743 0.33024 0.0
C144 C 0.80362 0.18386 0.36538 0.0
C145 C 0.78377 0.18043 0.32062 0.0
C146 C 0.78345 0.17078 0.34725 0.0
C147 C 0.79425 0.29852 0.29641 0.0
C148 C 0.80406 0.21454 0.28369 0.0
C149 C 0.82496 0.25191 0.16071 0.0
C150 C 0.84454 0.27469 0.16939 0.0
C151 C 0.76433 0.30976 0.2244 0.0
C152 C 0.74972 0.37556 0.2548 0.0
C153 C 0.74932 0.38129 0.22753 0.0
C154 C 0.76815 0.40386 0.21543 0.0
C155 C 0.78839 0.42054 0.23118 0.0
C156 C 0.76971 0.39275 0.27027 0.0
C157 C 0.78907 0.41497 0.25848 0.0
C158 C 0.71844 0.25708 0.21658 0.0
C159 C 0.73093 0.35032 0.26679 0.0
H160 H 0.83877 0.23571 0.32323 0.0
H161 H 0.80345 0.17451 0.38566 0.0
H162 H 0.76814 0.16961 0.30693 0.0
H163 H 0.76788 0.15266 0.35385 0.0
H164 H 0.73429 0.36791 0.21544 0.0
H165 H 0.80311 0.43823 0.22248 0.0
H166 H 0.77069 0.38868 0.29141 0.0
H167 H 0.80457 0.428 0.27055 0.0
Eu168 Eu 0.76097 0.75183 0.28716 0.0
C169 C 0.83523 0.84273 0.21106 0.0
C170 C 0.80372 0.85405 0.17212 0.0
C171 C 0.84455 0.88896 0.18493 0.0
C172 C 0.81113 0.83513 0.19434 0.0
C173 C 0.85264 0.86948 0.2062 0.0
C174 C 0.82011 0.88126 0.16791 0.0
C175 C 0.8862 0.85466 0.24205 0.0
N176 N 0.84265 0.82325 0.23113 0.0
C177 C 0.86824 0.82841 0.24604 0.0
C178 C 0.87817 0.87545 0.22228 0.0
Eu179 Eu 0.81109 0.77938 0.23711 0.0
N180 N 0.79608 0.80854 0.19876 0.0
C181 C 0.77488 0.79875 0.18049 0.0
C182 C 0.78076 0.84467 0.15426 0.0
C183 C 0.7666 0.81673 0.15824 0.0
H184 H 0.87456 0.81254 0.26146 0.0
H185 H 0.74924 0.80904 0.14423 0.0
H186 H 0.81458 0.89618 0.15111 0.0
H187 H 0.90617 0.85886 0.25427 0.0
H188 H 0.76371 0.77722 0.18323 0.0
H189 H 0.82909 0.72636 0.37739 0.0
H190 H 0.77436 0.85855 0.13697 0.0
H191 H 0.69807 0.71541 0.26582 0.0
H192 H 0.81076 0.75696 0.33929 0.0
H193 H 0.66931 0.6676 0.27413 0.0
H194 H 0.85749 0.90972 0.18101 0.0
H195 H 0.80711 0.67592 0.38558 0.0
H196 H 0.7681 0.63631 0.3732 0.0
H197 H 0.89216 0.89574 0.21917 0.0
H198 H 0.72435 0.62033 0.34521 0.0
N199 N 0.7791 0.72416 0.3252 0.0
C200 C 0.80081 0.73507 0.34249 0.0
C201 C 0.79893 0.68928 0.36873 0.0
C202 C 0.77545 0.67868 0.35198 0.0
C203 C 0.81133 0.71775 0.36422 0.0
C204 C 0.76576 0.69697 0.33025 0.0
H205 H 0.687 0.63203 0.30858 0.0
N206 N 0.73178 0.70682 0.29498 0.0
C207 C 0.68956 0.67302 0.28561 0.0
C208 C 0.74126 0.68801 0.31461 0.0
C209 C 0.70585 0.70009 0.28101 0.0
C210 C 0.69967 0.65297 0.305 0.0
C211 C 0.72561 0.66047 0.32007 0.0
O212 O 0.72099 0.76189 0.29501 0.0
O213 O 0.76999 0.78269 0.25098 0.0
O214 O 0.81366 0.81404 0.26185 0.0
O215 O 0.79762 0.7862 0.29956 0.0
O216 O 0.728 0.76364 0.25412 0.0
O217 O 0.76012 0.77706 0.31788 0.0
O218 O 0.84941 0.76399 0.23273 0.0
O219 O 0.80092 0.74759 0.27238 0.0
O220 O 0.75776 0.71799 0.26087 0.0
O221 O 0.77396 0.74666 0.22364 0.0
O222 O 0.84293 0.76652 0.27116 0.0
O223 O 0.81319 0.75849 0.20357 0.0
C224 C 0.74475 0.78171 0.23978 0.0
C225 C 0.71799 0.76969 0.3382 0.0
C226 C 0.69403 0.78604 0.36983 0.0
C227 C 0.70726 0.79119 0.3465 0.0
C228 C 0.69157 0.7589 0.38443 0.0
C229 C 0.71526 0.74291 0.35316 0.0
C230 C 0.70206 0.73759 0.37611 0.0
C231 C 0.81068 0.81022 0.28715 0.0
C232 C 0.73268 0.77563 0.31436 0.0
C233 C 0.7359 0.64167 0.34086 0.0
C234 C 0.76081 0.65076 0.35678 0.0
C235 C 0.82559 0.74782 0.2844 0.0
C236 C 0.85848 0.76144 0.18992 0.0
C237 C 0.86633 0.73928 0.18009 0.0
C238 C 0.88577 0.74503 0.16122 0.0
C239 C 0.8969 0.77329 0.15212 0.0
C240 C 0.86966 0.78944 0.18044 0.0
C241 C 0.88875 0.79529 0.16159 0.0
C242 C 0.76127 0.7223 0.2356 0.0
C243 C 0.83929 0.75493 0.21055 0.0
H244 H 0.70968 0.81198 0.33506 0.0
H245 H 0.68117 0.75399 0.40219 0.0
H246 H 0.72341 0.72618 0.34712 0.0
H247 H 0.69995 0.71683 0.38754 0.0
H248 H 0.85781 0.71762 0.18756 0.0
H249 H 0.9117 0.77838 0.13747 0.0
H250 H 0.86379 0.80673 0.18773 0.0
H251 H 0.89736 0.81695 0.15436 0.0
Eu252 Eu 0.29407 0.72538 0.26887 0.0
C253 C 0.24832 0.82642 0.19656 0.0
C254 C 0.28977 0.86263 0.18886 0.0
C255 C 0.24859 0.85942 0.15619 0.0
C256 C 0.27569 0.83907 0.20461 0.0
C257 C 0.23416 0.83692 0.17258 0.0
C258 C 0.27637 0.87224 0.16431 0.0
C259 C 0.19163 0.80416 0.18404 0.0
N260 N 0.23486 0.80502 0.21302 0.0
C261 C 0.20656 0.79455 0.20765 0.0
C262 C 0.2056 0.82515 0.16623 0.0
Eu263 Eu 0.26151 0.78953 0.25246 0.0
N264 N 0.28784 0.82952 0.22861 0.0
C265 C 0.31315 0.84385 0.23881 0.0
C266 C 0.31648 0.87638 0.19862 0.0
C267 C 0.32802 0.86718 0.22387 0.0
H268 H 0.19568 0.77825 0.2213 0.0
H269 H 0.34843 0.87798 0.23181 0.0
H270 H 0.28697 0.8901 0.15182 0.0
H271 H 0.16939 0.79534 0.17958 0.0
H272 H 0.32238 0.83694 0.25824 0.0
H273 H 0.20602 0.63766 0.2881 0.0
H274 H 0.32804 0.89447 0.1871 0.0
H275 H 0.359 0.7367 0.30174 0.0
H276 H 0.23315 0.67812 0.26195 0.0
H277 H 0.38382 0.72025 0.34453 0.0
H278 H 0.23818 0.8676 0.13756 0.0
H279 H 0.22493 0.62155 0.33343 0.0
H280 H 0.26499 0.626 0.36968 0.0
H281 H 0.19396 0.83264 0.148 0.0
H282 H 0.31349 0.64838 0.38502 0.0
N283 N 0.26694 0.68558 0.29227 0.0
C284 C 0.24181 0.67136 0.28162 0.0
C285 C 0.237 0.63935 0.322 0.0
C286 C 0.26359 0.65292 0.33225 0.0
C287 C 0.2263 0.64834 0.29641 0.0
C288 C 0.27835 0.6761 0.31658 0.0
H289 H 0.35815 0.6832 0.37559 0.0
N290 N 0.31966 0.70963 0.30886 0.0
C291 C 0.36179 0.71121 0.33937 0.0
C292 C 0.30559 0.68854 0.32516 0.0
C293 C 0.34773 0.7204 0.31514 0.0
C294 C 0.3472 0.69035 0.35688 0.0
C295 C 0.31888 0.67842 0.34972 0.0
O296 O 0.32937 0.71073 0.25639 0.0
O297 O 0.29497 0.76747 0.24443 0.0
O298 O 0.252 0.76682 0.21696 0.0
O299 O 0.25602 0.72142 0.23747 0.0
O300 O 0.33397 0.75656 0.25789 0.0
O301 O 0.28606 0.69393 0.24222 0.0
O302 O 0.22608 0.79834 0.26969 0.0
O303 O 0.26117 0.74767 0.27742 0.0
O304 O 0.3029 0.74846 0.30421 0.0
O305 O 0.29951 0.79402 0.28387 0.0
O306 O 0.22198 0.75768 0.26291 0.0
O307 O 0.26725 0.82537 0.27411 0.0
C308 C 0.32142 0.77569 0.24385 0.0
C309 C 0.31942 0.66396 0.24645 0.0
C310 C 0.33428 0.6265 0.22878 0.0
C311 C 0.32923 0.65432 0.22599 0.0
C312 C 0.3295 0.60862 0.25243 0.0
C313 C 0.31505 0.64582 0.2699 0.0
C314 C 0.32007 0.61831 0.27284 0.0
C315 C 0.24729 0.73916 0.21727 0.0
C316 C 0.3128 0.69253 0.24274 0.0
C317 C 0.30376 0.65628 0.36597 0.0
C318 C 0.27615 0.64354 0.35724 0.0
C319 C 0.23472 0.73908 0.27763 0.0
C320 C 0.22638 0.84598 0.27156 0.0
C321 C 0.20914 0.85121 0.28917 0.0
C322 C 0.19395 0.87366 0.28272 0.0
C323 C 0.19633 0.89059 0.25819 0.0
C324 C 0.22874 0.86345 0.2475 0.0
C325 C 0.21374 0.88559 0.24086 0.0
C326 C 0.30786 0.77609 0.30408 0.0
C327 C 0.2405 0.82134 0.27789 0.0
H328 H 0.33243 0.66827 0.20778 0.0
H329 H 0.33349 0.58725 0.25528 0.0
H330 H 0.30761 0.65285 0.28586 0.0
H331 H 0.31661 0.60442 0.291 0.0
H332 H 0.20776 0.83784 0.30789 0.0
H333 H 0.18448 0.90757 0.25215 0.0
H334 H 0.24196 0.85986 0.23375 0.0
H335 H 0.21542 0.8988 0.22211 0.0
Eu336 Eu 0.30183 0.72444 0.75901 0.0
C337 C 0.2285 0.7608 0.82362 0.0
C338 C 0.18412 0.72743 0.81932 0.0
C339 C 0.1993 0.7469 0.85992 0.0
C340 C 0.20887 0.74332 0.8087 0.0
C341 C 0.22352 0.7631 0.84926 0.0
C342 C 0.1796 0.7292 0.84495 0.0
C343 C 0.26478 0.79997 0.85111 0.0
N344 N 0.25183 0.77633 0.8129 0.0
C345 C 0.26844 0.79738 0.82557 0.0
C346 C 0.24254 0.78233 0.86324 0.0
Eu347 Eu 0.25577 0.77158 0.76862 0.0
N348 N 0.21417 0.74123 0.78418 0.0
C349 C 0.1956 0.72301 0.76976 0.0
C350 C 0.16471 0.70982 0.80404 0.0
C351 C 0.17058 0.70751 0.77921 0.0
H352 H 0.2844 0.81277 0.81595 0.0
H353 H 0.15619 0.69317 0.76753 0.0
H354 H 0.1609 0.71692 0.8534 0.0
H355 H 0.2787 0.81609 0.86114 0.0
H356 H 0.20024 0.71892 0.75151 0.0
H357 H 0.4101 0.78967 0.76537 0.0
H358 H 0.14553 0.69737 0.8115 0.0
H359 H 0.27611 0.68097 0.71378 0.0
H360 H 0.36827 0.76124 0.78286 0.0
H361 H 0.28319 0.67643 0.66888 0.0
H362 H 0.19535 0.7483 0.87959 0.0
H363 H 0.41539 0.79429 0.71841 0.0
H364 H 0.39657 0.78046 0.6746 0.0
H365 H 0.23946 0.78464 0.88293 0.0
H366 H 0.36154 0.7501 0.64789 0.0
N367 N 0.34655 0.75085 0.74582 0.0
C368 C 0.36855 0.76345 0.7621 0.0
C369 C 0.39615 0.78195 0.72586 0.0
C370 C 0.37482 0.76754 0.70951 0.0
C371 C 0.39319 0.77947 0.75232 0.0
C372 C 0.35008 0.75166 0.72015 0.0
H373 H 0.31983 0.71062 0.64581 0.0
N374 N 0.30741 0.71843 0.71577 0.0
C375 C 0.2962 0.69335 0.67852 0.0
C376 C 0.32994 0.73509 0.70475 0.0
C377 C 0.29224 0.69609 0.70396 0.0
C378 C 0.3168 0.71274 0.66556 0.0
C379 C 0.33463 0.73332 0.67893 0.0
O380 O 0.28643 0.67883 0.76362 0.0
O381 O 0.26132 0.72662 0.77522 0.0
O382 O 0.298 0.77922 0.79453 0.0
O383 O 0.32429 0.74412 0.79429 0.0
O384 O 0.29214 0.70852 0.80054 0.0
O385 O 0.33173 0.69563 0.76575 0.0
O386 O 0.26453 0.81738 0.76707 0.0
O387 O 0.29613 0.76909 0.75276 0.0
O388 O 0.26434 0.72453 0.72681 0.0
O389 O 0.23345 0.75381 0.7323 0.0
O390 O 0.26816 0.7913 0.72831 0.0
O391 O 0.22124 0.79527 0.7595 0.0
C392 C 0.26693 0.71407 0.79812 0.0
C393 C 0.31649 0.655 0.7947 0.0
C394 C 0.33576 0.65026 0.84068 0.0
C395 C 0.33068 0.66699 0.81664 0.0
C396 C 0.32547 0.62094 0.84262 0.0
C397 C 0.30622 0.62594 0.79695 0.0
C398 C 0.3106 0.60899 0.82094 0.0
C399 C 0.31991 0.76646 0.80328 0.0
C400 C 0.31201 0.67325 0.7698 0.0
C401 C 0.35802 0.75074 0.66786 0.0
C402 C 0.37804 0.76789 0.68311 0.0
C403 C 0.29238 0.78356 0.73056 0.0
C404 C 0.23492 0.83919 0.73412 0.0
C405 C 0.22436 0.82858 0.71056 0.0
C406 C 0.22169 0.84675 0.687 0.0
C407 C 0.23042 0.87602 0.68723 0.0
C408 C 0.24357 0.8683 0.73405 0.0
C409 C 0.2414 0.88663 0.71062 0.0
C410 C 0.24138 0.73605 0.71942 0.0
C411 C 0.23837 0.81969 0.75839 0.0
H412 H 0.33788 0.68957 0.81484 0.0
H413 H 0.32953 0.60703 0.86058 0.0
H414 H 0.29492 0.61642 0.78023 0.0
H415 H 0.30287 0.58647 0.82263 0.0
H416 H 0.2183 0.80602 0.71058 0.0
H417 H 0.22804 0.89083 0.66955 0.0
H418 H 0.25212 0.87678 0.75205 0.0
H419 H 0.24795 0.90915 0.7106 0.0
Eu420 Eu 0.24719 0.24586 0.7877 0.0
C421 C 0.30807 0.33508 0.70638 0.0
C422 C 0.27116 0.33835 0.67019 0.0
C423 C 0.30602 0.38001 0.6787 0.0
C424 C 0.28401 0.32252 0.69213 0.0
C425 C 0.31994 0.36374 0.69926 0.0
C426 C 0.28164 0.36732 0.66418 0.0
C427 C 0.36041 0.35721 0.73088 0.0
N428 N 0.3213 0.31869 0.72576 0.0
C429 C 0.34793 0.3289 0.73703 0.0
C430 C 0.34609 0.37487 0.71226 0.0
Eu431 Eu 0.2974 0.27166 0.73757 0.0
N432 N 0.27453 0.2944 0.6984 0.0
C433 C 0.25436 0.28044 0.68153 0.0
C434 C 0.24892 0.3244 0.65429 0.0
C435 C 0.24103 0.29522 0.6596 0.0
H436 H 0.35907 0.31527 0.7515 0.0
H437 H 0.22459 0.28403 0.64684 0.0
H438 H 0.27171 0.37986 0.64771 0.0
H439 H 0.38106 0.36535 0.74048 0.0
H440 H 0.24795 0.25792 0.68454 0.0
H441 H 0.31563 0.22462 0.87892 0.0
H442 H 0.23849 0.33578 0.63732 0.0
H443 H 0.18318 0.20978 0.76984 0.0
H444 H 0.29749 0.2534 0.83953 0.0
H445 H 0.15356 0.16284 0.78107 0.0
H446 H 0.31456 0.40215 0.67321 0.0
H447 H 0.29362 0.17445 0.88928 0.0
H448 H 0.25453 0.13426 0.8787 0.0
H449 H 0.35588 0.39676 0.70735 0.0
H450 H 0.21016 0.11732 0.85199 0.0
N451 N 0.26596 0.21976 0.82657 0.0
C452 C 0.2875 0.2316 0.84354 0.0
C453 C 0.28555 0.18699 0.87178 0.0
C454 C 0.26212 0.17553 0.85543 0.0
C455 C 0.29795 0.21531 0.86605 0.0
C456 C 0.25253 0.19277 0.83282 0.0
H457 H 0.1719 0.12811 0.81598 0.0
N458 N 0.21805 0.20125 0.79757 0.0
C459 C 0.17449 0.16819 0.79143 0.0
C460 C 0.22775 0.18319 0.81779 0.0
C461 C 0.19126 0.19473 0.78515 0.0
C462 C 0.18497 0.14861 0.81106 0.0
C463 C 0.21165 0.1562 0.82492 0.0
O464 O 0.20706 0.25827 0.79153 0.0
O465 O 0.25775 0.27773 0.75216 0.0
O466 O 0.30846 0.30252 0.76746 0.0
O467 O 0.28061 0.28148 0.80118 0.0
O468 O 0.21583 0.25727 0.75299 0.0
O469 O 0.24318 0.26785 0.81999 0.0
O470 O 0.33612 0.27323 0.71943 0.0
O471 O 0.28851 0.24178 0.77435 0.0
O472 O 0.24166 0.21093 0.76235 0.0
O473 O 0.26149 0.23688 0.72541 0.0
O474 O 0.33033 0.26189 0.77127 0.0
O475 O 0.30443 0.23563 0.72074 0.0
C476 C 0.23298 0.27648 0.73997 0.0
C477 C 0.19757 0.26189 0.83404 0.0
C478 C 0.16879 0.27702 0.86232 0.0
C479 C 0.18782 0.28351 0.84303 0.0
C480 C 0.16 0.24862 0.87265 0.0
C481 C 0.18873 0.23376 0.84482 0.0
C482 C 0.17005 0.22721 0.86403 0.0
C483 C 0.30027 0.30141 0.79087 0.0
C484 C 0.21644 0.26895 0.81307 0.0
C485 C 0.22203 0.13827 0.8464 0.0
C486 C 0.24728 0.14791 0.86161 0.0
C487 C 0.31374 0.24372 0.78582 0.0
C488 C 0.33089 0.24668 0.68435 0.0
C489 C 0.34197 0.22441 0.67779 0.0
C490 C 0.34432 0.22261 0.65134 0.0
C491 C 0.33546 0.2436 0.63182 0.0
C492 C 0.32222 0.26714 0.66438 0.0
C493 C 0.32449 0.26555 0.63833 0.0
C494 C 0.24624 0.21397 0.73743 0.0
C495 C 0.32818 0.2485 0.71193 0.0
H496 H 0.19458 0.30527 0.83467 0.0
H497 H 0.14561 0.24298 0.88765 0.0
H498 H 0.19614 0.21689 0.83833 0.0
H499 H 0.16327 0.20545 0.87224 0.0
H500 H 0.34845 0.20845 0.69318 0.0
H501 H 0.33745 0.24339 0.61142 0.0
H502 H 0.31386 0.2845 0.66892 0.0
H503 H 0.31788 0.28155 0.62307 0.0
Eu504 Eu 0.79523 0.22251 0.7612 0.0
C505 C 0.76438 0.32919 0.69909 0.0
C506 C 0.81029 0.36011 0.70114 0.0
C507 C 0.77637 0.36574 0.66256 0.0
C508 C 0.7908 0.33716 0.71228 0.0
C509 C 0.7565 0.34396 0.67441 0.0
C510 C 0.80323 0.37384 0.67594 0.0
C511 C 0.70883 0.31738 0.67665 0.0
N512 N 0.74558 0.30849 0.71135 0.0
C513 C 0.71762 0.3037 0.70126 0.0
C514 C 0.7285 0.33724 0.66291 0.0
Eu515 Eu 0.76202 0.28495 0.75266 0.0
N516 N 0.797 0.32325 0.73649 0.0
C517 C 0.82169 0.33251 0.7513 0.0
C518 C 0.83603 0.36897 0.71591 0.0
C519 C 0.84156 0.35535 0.74125 0.0
H520 H 0.70221 0.28876 0.7121 0.0
H521 H 0.86123 0.36228 0.75303 0.0
H522 H 0.81811 0.39119 0.66691 0.0
H523 H 0.68685 0.31277 0.66842 0.0
H524 H 0.82645 0.32243 0.77085 0.0
H525 H 0.76262 0.13397 0.70545 0.0
H526 H 0.85154 0.38652 0.70809 0.0
H527 H 0.79923 0.22054 0.82644 0.0
H528 H 0.78741 0.18148 0.71448 0.0
H529 H 0.78255 0.18824 0.86483 0.0
H530 H 0.77084 0.37707 0.64346 0.0
H531 H 0.73622 0.10164 0.7393 0.0
H532 H 0.72362 0.09161 0.78561 0.0
H533 H 0.72161 0.34808 0.64397 0.0
H534 H 0.72972 0.10621 0.82937 0.0
N535 N 0.77302 0.1768 0.75192 0.0
C536 C 0.77535 0.16764 0.72905 0.0
C537 C 0.74662 0.1226 0.74311 0.0
C538 C 0.74672 0.13117 0.76747 0.0
C539 C 0.76153 0.14075 0.72398 0.0
C540 C 0.76058 0.15869 0.77139 0.0
H541 H 0.75281 0.14165 0.8593 0.0
N542 N 0.77906 0.1929 0.79908 0.0
C543 C 0.777 0.18201 0.84551 0.0
C544 C 0.764 0.16688 0.79587 0.0
C545 C 0.78637 0.20037 0.82359 0.0
C546 C 0.76015 0.15578 0.84231 0.0
C547 C 0.75369 0.14777 0.8173 0.0
O548 O 0.83295 0.2116 0.78572 0.0
O549 O 0.79953 0.26858 0.74475 0.0
O550 O 0.74335 0.25991 0.71907 0.0
O551 O 0.75717 0.21571 0.73039 0.0
O552 O 0.80503 0.24095 0.72014 0.0
O553 O 0.8297 0.21159 0.74404 0.0
O554 O 0.7251 0.30143 0.75944 0.0
O555 O 0.76319 0.24201 0.77556 0.0
O556 O 0.82016 0.2518 0.78908 0.0
O557 O 0.79138 0.28421 0.79034 0.0
O558 O 0.72339 0.25136 0.76098 0.0
O559 O 0.76528 0.31262 0.7822 0.0
C560 C 0.80521 0.26694 0.72202 0.0
C561 C 0.85526 0.17897 0.77068 0.0
C562 C 0.88295 0.14932 0.75558 0.0
C563 C 0.87083 0.17368 0.75177 0.0
C564 C 0.87943 0.13019 0.77864 0.0
C565 C 0.85153 0.15937 0.79347 0.0
C566 C 0.86363 0.13515 0.79738 0.0
C567 C 0.74236 0.23354 0.71531 0.0
C568 C 0.84409 0.20548 0.76652 0.0
C569 C 0.73821 0.12099 0.81323 0.0
C570 C 0.73469 0.1127 0.78831 0.0
C571 C 0.73665 0.23242 0.77445 0.0
C572 C 0.73533 0.34596 0.77431 0.0
C573 C 0.72773 0.35568 0.79574 0.0
C574 C 0.72524 0.38408 0.79442 0.0
C575 C 0.73049 0.40262 0.77122 0.0
C576 C 0.74043 0.36471 0.75133 0.0
C577 C 0.73797 0.39291 0.74983 0.0
C578 C 0.81368 0.27233 0.79928 0.0
C579 C 0.73923 0.31659 0.7769 0.0
H580 H 0.87389 0.18878 0.7342 0.0
H581 H 0.8885 0.11121 0.78195 0.0
H582 H 0.83949 0.1628 0.80834 0.0
H583 H 0.86078 0.12018 0.815 0.0
H584 H 0.7243 0.3412 0.81363 0.0
H585 H 0.72845 0.42451 0.7695 0.0
H586 H 0.74648 0.35764 0.73469 0.0
H587 H 0.74192 0.4073 0.73204 0.0
Eu588 Eu 0.7617 0.72793 0.74213 0.0
C589 C 0.85579 0.81251 0.79975 0.0
C590 C 0.86958 0.78594 0.84134 0.0
C591 C 0.90386 0.82397 0.82116 0.0
C592 C 0.8492 0.79094 0.81981 0.0
C593 C 0.88299 0.82975 0.80046 0.0
C594 C 0.89716 0.80208 0.84157 0.0
C595 C 0.8661 0.85865 0.76158 0.0
N596 N 0.83501 0.81772 0.78031 0.0
C597 C 0.83944 0.84098 0.76178 0.0
C598 C 0.8881 0.8528 0.7808 0.0
Eu599 Eu 0.79073 0.78619 0.78112 0.0
N600 N 0.82226 0.77607 0.8191 0.0
C601 C 0.81362 0.75762 0.84037 0.0
C602 C 0.86132 0.7656 0.86242 0.0
C603 C 0.83307 0.75174 0.86212 0.0
H604 H 0.82265 0.84558 0.74673 0.0
H605 H 0.82626 0.73644 0.87857 0.0
H606 H 0.91319 0.79835 0.85781 0.0
H607 H 0.86967 0.8767 0.74655 0.0
H608 H 0.79192 0.74665 0.84037 0.0
H609 H 0.7281 0.77579 0.64332 0.0
H610 H 0.87634 0.76105 0.8793 0.0
H611 H 0.72846 0.67003 0.77753 0.0
H612 H 0.76188 0.76589 0.68203 0.0
H613 H 0.68085 0.63999 0.778 0.0
H614 H 0.92497 0.8368 0.82193 0.0
H615 H 0.67771 0.7521 0.64249 0.0
H616 H 0.6401 0.71605 0.66427 0.0
H617 H 0.9087 0.86656 0.78065 0.0
H618 H 0.62728 0.67881 0.70084 0.0
N619 N 0.7309 0.73756 0.70351 0.0
C620 C 0.74002 0.75533 0.68203 0.0
C621 C 0.69248 0.74769 0.65961 0.0
C622 C 0.6837 0.72801 0.68095 0.0
C623 C 0.7209 0.76103 0.65997 0.0
C624 C 0.70377 0.72316 0.70279 0.0
H625 H 0.64247 0.64996 0.7431 0.0
N626 N 0.71704 0.6971 0.74303 0.0
C627 C 0.68496 0.65747 0.7625 0.0
C628 C 0.69661 0.7022 0.72321 0.0
C629 C 0.71194 0.67448 0.76212 0.0
C630 C 0.66333 0.66323 0.74282 0.0
C631 C 0.66912 0.68554 0.72261 0.0
O632 O 0.77567 0.6878 0.74376 0.0
O633 O 0.7948 0.74341 0.77377 0.0
O634 O 0.82391 0.78454 0.75462 0.0
O635 O 0.79436 0.762 0.72208 0.0
O636 O 0.77585 0.70143 0.77989 0.0
O637 O 0.7819 0.71949 0.70989 0.0
O638 O 0.77617 0.82573 0.78104 0.0
O639 O 0.75815 0.771 0.74901 0.0
O640 O 0.72838 0.73096 0.76759 0.0
O641 O 0.75802 0.75166 0.80103 0.0
O642 O 0.77633 0.81325 0.74388 0.0
O643 O 0.77067 0.79303 0.81417 0.0
C644 C 0.79493 0.72064 0.78944 0.0
C645 C 0.77797 0.67186 0.70388 0.0
C646 C 0.79399 0.63812 0.68201 0.0
C647 C 0.80001 0.66015 0.69747 0.0
C648 C 0.76548 0.62817 0.67298 0.0
C649 C 0.74975 0.66171 0.6946 0.0
C650 C 0.7436 0.63997 0.67919 0.0
C651 C 0.81883 0.77706 0.73082 0.0
C652 C 0.78485 0.69413 0.72078 0.0
C653 C 0.6486 0.6912 0.70155 0.0
C654 C 0.65589 0.71241 0.68075 0.0
C655 C 0.758 0.794 0.73362 0.0
C656 C 0.776 0.84013 0.82212 0.0
C657 C 0.75508 0.84874 0.83371 0.0
C658 C 0.76268 0.86973 0.85042 0.0
C659 C 0.79165 0.88192 0.85501 0.0
C660 C 0.80464 0.85236 0.82738 0.0
C661 C 0.81236 0.87318 0.8437 0.0
C662 C 0.73354 0.73696 0.79184 0.0
C663 C 0.76774 0.81868 0.80432 0.0
H664 H 0.82178 0.66789 0.70493 0.0
H665 H 0.7601 0.61152 0.66078 0.0
H666 H 0.73255 0.67051 0.69936 0.0
H667 H 0.72177 0.6322 0.67204 0.0
H668 H 0.73301 0.83889 0.82989 0.0
H669 H 0.7984 0.89857 0.86711 0.0
H670 H 0.821 0.84597 0.81872 0.0
H671 H 0.8345 0.88274 0.84747 0.0
Fe672 Fe 0.03065 0.04352 0.51537 0.0
O673 O 1.00818 1.00622 0.52892 0.0
Fe674 Fe 0.08698 0.02518 0.4911 0.0
Fe675 Fe 0.9666 1.00043 0.53007 0.0
O676 O 0.04633 0.02148 0.49372 0.0
O677 O 0.04568 0.01911 0.49289 0.0
O678 O 1.00748 1.00369 0.52802 0.0
Fe679 Fe 1.02273 0.9818 0.50571 0.0
C680 C 0.99437 0.05014 0.55832 0.0
O681 O 0.99925 0.04908 0.48563 0.0
O682 O 0.96173 0.03847 0.50763 0.0
O683 O 0.04182 0.96391 0.47984 0.0
O684 O 0.07338 1.00146 0.46096 0.0
O685 O 0.08133 0.06375 0.47086 0.0
O686 O 0.05524 0.08037 0.497 0.0
O687 O 0.95385 0.97944 0.49772 0.0
O688 O 0.9915 0.98791 0.47555 0.0
C689 C 0.0704 0.08333 0.47753 0.0
O690 O 0.05397 0.97457 0.53517 0.0
O691 O 0.09186 0.9872 0.5133 0.0
O692 O 1.01133 0.06175 0.54053 0.0
O693 O 0.9795 0.02471 0.55987 0.0
C694 C 0.97565 0.05391 0.48988 0.0
C695 C 0.96496 0.98022 0.47676 0.0
C696 C 0.98239 0.94206 0.54324 0.0
O697 O 0.97213 0.96186 0.55038 0.0
O698 O 0.99713 0.94499 0.52342 0.0
C699 C 0.05839 0.9761 0.4618 0.0
O700 O 0.09998 0.0459 0.52367 0.0
O701 O 0.06219 0.03896 0.54558 0.0
C702 C 0.07808 0.97102 0.5308 0.0
C703 C 0.0888 0.04621 0.54438 0.0
Fe704 Fe 0.52944 0.97566 0.01401 0.0
O705 O 0.54953 0.01096 0.02816 0.0
Fe706 Fe 0.46391 0.99377 0.98702 0.0
Fe707 Fe 0.59121 0.02209 0.03204 0.0
O708 O 0.5057 1.00177 0.99157 0.0
O709 O 0.50552 1.00476 0.99092 0.0
O710 O 0.54948 0.01402 0.02733 0.0
Fe711 Fe 0.52586 0.04005 1.00472 0.0
C712 C 0.57757 0.9617 0.05906 0.0
O713 O 0.55654 0.98194 0.9851 0.0
O714 O 0.59767 0.99382 1.00917 0.0
O715 O 0.49729 0.06261 0.97882 0.0
O716 O 0.46695 0.02838 0.95777 0.0
O717 O 0.47153 0.96396 0.96638 0.0
O718 O 0.50473 0.94248 0.99474 0.0
O719 O 0.59459 0.05334 0.99998 0.0
O720 O 0.55274 0.04814 0.97538 0.0
C721 C 0.48569 0.94355 0.97431 0.0
O722 O 0.49935 0.03404 0.03366 0.0
O723 O 0.45732 0.02118 1.01118 0.0
O724 O 0.55816 0.95338 0.0403 0.0
O725 O 0.58771 0.98797 0.0617 0.0
C726 C 0.58344 0.98385 0.98926 0.0
C727 C 0.5795 0.05737 0.97808 0.0
C728 C 0.57056 0.07347 0.04293 0.0
O729 O 0.58432 0.05296 0.05174 0.0
O730 O 0.55061 0.0735 0.02328 0.0
C731 C 0.47741 0.05456 0.9604 0.0
O732 O 0.46065 0.96176 0.01831 0.0
O733 O 0.50221 0.96685 0.04322 0.0
C734 C 0.47242 0.03173 0.03049 0.0
C735 C 0.47546 0.9575 0.0403 0.0
Fe736 Fe 1.0245 0.53904 1.00754 0.0
O737 O 0.99825 0.50588 0.99445 0.0
Fe738 Fe 0.08447 0.5099 0.03415 0.0
Fe739 Fe 0.95657 0.50176 0.99144 0.0
O740 O 0.04339 0.509 0.03 0.0
O741 O 0.04277 0.50581 0.03129 0.0
O742 O 0.99771 0.50269 0.9956 0.0
Fe743 Fe 1.01657 0.47266 0.01819 0.0
C744 C 0.97404 0.54116 0.03384 0.0
O745 O 0.99995 0.5661 0.98167 0.0
O746 O 0.96424 0.53519 0.96161 0.0
O747 O 0.04139 0.47344 0.98888 0.0
O748 O 0.08436 0.47907 1.01117 0.0
O749 O 0.09165 0.53993 1.00189 0.0
O750 O 0.05003 0.54243 0.97781 0.0
O751 O 0.95723 0.46893 0.97148 0.0
O752 O 0.98653 0.44243 0.99957 0.0
C753 C 0.07716 0.54665 0.98025 0.0
O754 O 0.04126 0.44567 0.04437 0.0
O755 O 0.07672 0.47703 0.06423 0.0
O756 O 0.99987 0.53814 0.03692 0.0
O757 O 0.95669 0.5322 0.01497 0.0
C758 C 0.97887 0.56032 0.9635 0.0
C759 C 0.96745 0.44591 0.97952 0.0
C760 C 0.9634 0.46364 0.04467 0.0
O761 O 0.94927 0.47083 0.02299 0.0
O762 O 0.99056 0.46928 0.04782 0.0
C763 C 0.06725 0.47049 0.99204 0.0
O764 O 0.08401 0.54302 0.05383 0.0
O765 O 0.05479 0.56945 0.02565 0.0
C766 C 0.06235 0.45177 0.06252 0.0
C767 C 0.07385 0.56601 0.04569 0.0
Fe768 Fe 0.5265 0.49501 0.96045 0.0
O769 O 0.53555 0.48784 0.99832 0.0
Fe770 Fe 0.50535 0.49114 0.02265 0.0
Fe771 Fe 0.57016 0.50886 0.01691 0.0
O772 O 0.5327 0.48598 0.999 0.0
O773 O 0.5403 0.51136 0.04161 0.0
O774 O 0.54298 0.51354 0.04081 0.0
Fe775 Fe 0.55067 0.50508 0.07921 0.0
C776 C 0.5862 0.48214 0.97204 0.0
O777 O 0.55593 0.53149 0.95563 0.0
O778 O 0.56575 0.54689 0.99426 0.0
O779 O 0.5151 0.52246 0.07955 0.0
O780 O 0.48131 0.50058 0.04987 0.0
O781 O 0.50141 0.52899 1.00158 0.0
O782 O 0.49626 0.51967 0.96069 0.0
O783 O 0.60297 0.53236 0.04032 0.0
O784 O 0.57937 0.54187 0.07268 0.0
C785 C 0.49565 0.53597 0.97728 0.0
O786 O 0.52436 0.46639 0.08412 0.0
O787 O 0.50841 0.4528 0.04496 0.0
O788 O 0.56022 0.47474 0.96159 0.0
O789 O 0.59403 0.49923 0.98963 0.0
C790 C 0.56423 0.55132 0.96942 0.0
C791 C 0.6008 0.54644 0.05901 0.0
C792 C 0.59053 0.47194 0.06131 0.0
O793 O 0.57606 0.47169 0.03919 0.0
O794 O 0.58487 0.48579 0.078 0.0
C795 C 0.48921 0.51612 0.06864 0.0
O796 O 0.47191 0.46938 0.99843 0.0
O797 O 0.49499 0.46027 0.96566 0.0
C798 C 0.51231 0.44765 0.06983 0.0
C799 C 0.47347 0.45599 0.97908 0.0
Fe800 Fe 0.0418 0.44949 0.5128 0.0
O801 O 0.04451 0.49033 0.51192 0.0
Fe802 Fe 1.0231 0.51263 0.47883 0.0
Fe803 Fe 0.03228 0.50618 0.54065 0.0
O804 O 0.04373 0.49058 0.50888 0.0
O805 O 1.01094 0.52852 0.5076 0.0
O806 O 1.01163 0.52822 0.51062 0.0
Fe807 Fe 1.0135 0.56926 0.50701 0.0
C808 C 0.99629 0.44894 0.54896 0.0
O809 O 0.0749 0.45586 0.54183 0.0
O810 O 0.05711 0.4802 0.56827 0.0
O811 O 0.04048 0.5812 0.47759 0.0
O812 O 0.059 0.54347 0.47634 0.0
O813 O 0.04015 0.4926 0.45309 0.0
O814 O 0.0644 0.46087 0.4807 0.0
O815 O 0.06829 0.53745 0.54047 0.0
O816 O 0.04763 0.57518 0.53474 0.0
C817 C 0.05811 0.47513 0.45802 0.0
O818 O 0.98094 0.56335 0.47746 0.0
O819 O 0.99843 0.53867 0.45114 0.0
O820 O 1.01571 0.43782 0.54282 0.0
O821 O 0.99639 0.47523 0.54305 0.0
C822 C 0.07484 0.46466 0.564 0.0
C823 C 0.06851 0.56287 0.54329 0.0
C824 C 0.99647 0.5431 0.5613 0.0
O825 O 1.0148 0.52599 0.56633 0.0
O826 O 0.99016 0.55735 0.5386 0.0
C827 C 0.0594 0.56984 0.4708 0.0
O828 O 0.98706 0.48165 0.47912 0.0
O829 O 1.00656 0.44303 0.48617 0.0
C830 C 0.9809 0.55442 0.45535 0.0
C831 C 0.98575 0.4556 0.47789 0.0
Fe832 Fe 0.52176 0.9725 0.51811 0.0
O833 O 0.54256 1.008 0.53132 0.0
Fe834 Fe 0.49361 0.99807 0.4553 0.0
Fe835 Fe 0.54893 0.012 0.56869 0.0
O836 O 0.50076 0.99925 0.49314 0.0
O837 O 0.50033 1.00232 0.49258 0.0
O838 O 0.54224 0.01115 0.53068 0.0
Fe839 Fe 0.52107 0.03787 0.50576 0.0
C840 C 0.49553 0.96502 0.56836 0.0
O841 O 0.54763 0.94925 0.54679 0.0
O842 O 0.57558 0.98337 0.56954 0.0
O843 O 0.55134 0.04372 0.4798 0.0
O844 O 0.52327 0.03321 0.4438 0.0
O845 O 0.52344 0.97299 0.45531 0.0
O846 O 0.55186 0.97525 0.49274 0.0
O847 O 0.57588 0.04887 0.55634 0.0
O848 O 0.54701 0.07124 0.52371 0.0
C849 C 0.54657 0.96941 0.46939 0.0
O850 O 0.49478 0.06088 0.47711 0.0
O851 O 0.46677 0.02639 0.45476 0.0
O852 O 0.49129 0.96713 0.54352 0.0
O853 O 0.5186 0.97709 0.58001 0.0
C854 C 0.5693 0.9579 0.56345 0.0
C855 C 0.56941 0.07102 0.54095 0.0
C856 C 0.49644 0.04112 0.55453 0.0
O857 O 0.51961 0.03759 0.5685 0.0
O858 O 0.49097 0.03485 0.53133 0.0
C859 C 0.54636 0.04584 0.45494 0.0
O860 O 0.46691 0.96105 0.46785 0.0
O861 O 0.496 0.93902 0.50045 0.0
C862 C 0.47307 0.05199 0.46054 0.0
C863 C 0.47348 0.93911 0.48346 0.0
C864 C 0.17669 0.21281 0.29238 0.0
C865 C 0.2041 0.22551 0.30197 0.0
C866 C 0.15538 0.20345 0.30919 0.0
C867 C 0.1375 0.20866 0.37557 0.0
H868 H 0.09594 0.13261 0.37217 0.0
C869 C 0.0979 0.131 0.46409 0.0
C870 C 0.07404 0.11 0.45976 0.0
C871 C 0.10702 0.15147 0.44336 0.0
C872 C 0.10679 0.15414 0.37313 0.0
H873 H 0.2302 0.23909 0.33667 0.0
H874 H 0.1936 0.2225 0.36565 0.0
H875 H 0.12478 0.15603 0.33752 0.0
H876 H 0.04018 0.0944 0.43113 0.0
H877 H 0.0552 0.13075 0.3953 0.0
H878 H 0.12053 0.20605 0.41199 0.0
C879 C 0.18826 0.22006 0.34518 0.0
C880 C 0.12338 0.16758 0.35319 0.0
C881 C 0.20944 0.22932 0.32849 0.0
C882 C 0.05817 0.11094 0.43508 0.0
C883 C 0.06708 0.13145 0.41447 0.0
C884 C 0.12096 0.19514 0.39561 0.0
C885 C 0.16103 0.20678 0.33586 0.0
C886 C 0.13964 0.19465 0.35457 0.0
C887 C 0.09245 0.15099 0.41802 0.0
C888 C 0.10604 0.16743 0.39496 0.0
H889 H 0.17169 0.21 0.27198 0.0
H890 H 0.13452 0.19351 0.30135 0.0
H891 H 0.14934 0.22977 0.37695 0.0
H892 H 0.11084 0.13013 0.48282 0.0
H893 H 0.12681 0.16606 0.44671 0.0
C894 C 0.84592 0.21353 0.40334 0.0
C895 C 0.84821 0.21899 0.37627 0.0
C896 C 0.8703 0.21404 0.42119 0.0
C897 C 0.92254 0.20071 0.45461 0.0
H898 H 0.96237 0.16436 0.41421 0.0
C899 C 0.98718 0.10208 0.46469 0.0
C900 C 0.96817 0.08167 0.47907 0.0
C901 C 0.98195 0.1294 0.457 0.0
C902 C 0.95215 0.17483 0.42601 0.0
H903 H 0.87842 0.2374 0.34772 0.0
H904 H 0.91984 0.24105 0.37884 0.0
H905 H 0.93777 0.20097 0.39247 0.0
H906 H 0.92877 0.0741 0.49686 0.0
H907 H 0.91902 0.1215 0.48252 0.0
H908 H 0.93531 0.17207 0.48784 0.0
C909 C 0.89934 0.23344 0.38613 0.0
C910 C 0.93798 0.19624 0.4135 0.0
C911 C 0.87511 0.23157 0.36811 0.0
C912 C 0.94373 0.08922 0.48558 0.0
C913 C 0.93843 0.11654 0.47782 0.0
C914 C 0.93655 0.17895 0.46711 0.0
C915 C 0.8974 0.22116 0.41229 0.0
C916 C 0.92115 0.20801 0.42724 0.0
C917 C 0.95748 0.13691 0.46343 0.0
C918 C 0.94989 0.16466 0.45252 0.0
H919 H 0.82551 0.2062 0.41082 0.0
H920 H 0.86755 0.20557 0.44139 0.0
H921 H 0.91082 0.21004 0.46606 0.0
H922 H 1.00644 0.09712 0.4598 0.0
H923 H 0.99704 0.14464 0.44595 0.0
C924 C 0.8212 0.82895 0.3301 0.0
C925 C 0.82421 0.83285 0.30318 0.0
C926 C 0.83473 0.84937 0.34575 0.0
C927 C 0.89734 0.90235 0.35351 0.0
H928 H 0.85641 0.92893 0.40055 0.0
C929 C 0.95679 0.97417 0.42915 0.0
C930 C 0.94693 0.96908 0.45396 0.0
C931 C 0.94067 0.96172 0.4082 0.0
C932 C 0.8683 0.92152 0.3878 0.0
H933 H 0.8428 0.86228 0.27154 0.0
H934 H 0.86783 0.89737 0.29935 0.0
H935 H 0.83031 0.89913 0.3687 0.0
H936 H 0.9122 0.94706 0.47609 0.0
H937 H 0.88473 0.92462 0.44012 0.0
H938 H 0.93547 0.92309 0.37347 0.0
C939 C 0.85481 0.87834 0.30811 0.0
C940 C 0.85325 0.90465 0.36939 0.0
C941 C 0.84066 0.85813 0.29226 0.0
C942 C 0.92034 0.95169 0.45719 0.0
C943 C 0.90445 0.9389 0.4364 0.0
C944 C 0.91249 0.9188 0.37226 0.0
C945 C 0.85199 0.87406 0.33502 0.0
C946 C 0.86766 0.89457 0.35235 0.0
C947 C 0.91446 0.94349 0.41163 0.0
C948 C 0.89822 0.92823 0.39001 0.0
H949 H 0.80859 0.80995 0.33933 0.0
H950 H 0.83233 0.8455 0.36647 0.0
H951 H 0.90895 0.89459 0.34074 0.0
H952 H 0.97713 0.98761 0.42595 0.0
H953 H 0.94892 0.96626 0.38938 0.0
C954 C 0.15995 0.85748 0.31738 0.0
C955 C 0.17561 0.87953 0.30127 0.0
C956 C 0.14232 0.86329 0.33425 0.0
C957 C 0.10201 0.91652 0.34253 0.0
H958 H 0.1111 0.8897 0.41692 0.0
C959 C 0.07167 0.97449 0.41765 0.0
C960 C 0.06232 0.95988 0.44135 0.0
C961 C 0.0796 0.96028 0.39958 0.0
C962 C 0.10775 0.89684 0.39612 0.0
H963 H 0.18553 0.92508 0.29123 0.0
H964 H 0.15417 0.93494 0.31982 0.0
H965 H 0.13709 0.87289 0.38737 0.0
H966 H 0.05271 0.91853 0.46413 0.0
H967 H 0.06646 0.8934 0.43219 0.0
H968 H 0.07302 0.94068 0.35103 0.0
C969 C 0.1554 0.91318 0.3192 0.0
C970 C 0.12275 0.8873 0.37924 0.0
C971 C 0.17331 0.90746 0.30271 0.0
C972 C 0.05974 0.93036 0.44599 0.0
C973 C 0.06787 0.91604 0.42783 0.0
C974 C 0.08681 0.92578 0.35928 0.0
C975 C 0.13962 0.89119 0.33505 0.0
C976 C 0.12074 0.89782 0.35242 0.0
C977 C 0.07841 0.93096 0.40461 0.0
C978 C 0.09027 0.9169 0.38643 0.0
H979 H 0.16084 0.83569 0.31662 0.0
H980 H 0.13033 0.84595 0.34626 0.0
H981 H 0.09967 0.92455 0.32184 0.0
H982 H 0.07375 0.99722 0.41336 0.0
H983 H 0.08796 0.97261 0.38217 0.0
C984 C 0.18402 0.81299 0.66403 0.0
C985 C 0.20751 0.83537 0.66281 0.0
C986 C 0.16627 0.80702 0.64141 0.0
C987 C 0.15133 0.83791 0.57116 0.0
H988 H 0.08796 0.85536 0.59958 0.0
C989 C 0.06724 0.92045 0.55064 0.0
C990 C 0.0871 0.94399 0.54137 0.0
C991 C 0.07492 0.89395 0.55744 0.0
C992 C 0.10479 0.84989 0.5908 0.0
H993 H 0.23374 0.86521 0.63645 0.0
H994 H 0.20185 0.8564 0.59742 0.0
H995 H 0.11718 0.82504 0.62621 0.0
H996 H 0.13047 0.95824 0.53196 0.0
H997 H 0.14435 0.9126 0.54518 0.0
H998 H 0.13993 0.86502 0.53637 0.0
C999 C 0.19704 0.84315 0.61563 0.0
C1000 C 0.12171 0.83221 0.60618 0.0
C1001 C 0.21508 0.84878 0.63818 0.0
C1002 C 0.11476 0.94054 0.53917 0.0
C1003 C 0.1225 0.91418 0.54621 0.0
C1004 C 0.13425 0.85554 0.55567 0.0
C1005 C 0.17116 0.82393 0.61738 0.0
C1006 C 0.14685 0.8285 0.59748 0.0
C1007 C 0.1027 0.89054 0.5554 0.0
C1008 C 0.11255 0.86379 0.56638 0.0
H1009 H 0.17761 0.80178 0.68258 0.0
H1010 H 0.14693 0.79149 0.64326 0.0
H1011 H 0.16998 0.83455 0.5636 0.0
H1012 H 0.04556 0.92229 0.55207 0.0
H1013 H 0.05917 0.87619 0.56444 0.0
C1014 C 0.24243 0.19214 0.69657 0.0
C1015 C 0.23262 0.19176 0.72086 0.0
C1016 C 0.22835 0.1735 0.67936 0.0
C1017 C 0.17271 0.10867 0.6734 0.0
H1018 H 0.16937 0.13984 0.59988 0.0
C1019 C 0.09557 0.05787 0.59044 0.0
C1020 C 0.10691 0.0581 0.5669 0.0
C1021 C 0.11181 0.07163 0.61061 0.0
C1022 C 0.17034 0.13069 0.6203 0.0
H1023 H 0.20117 0.16986 0.74648 0.0
H1024 H 0.17562 0.13823 0.71604 0.0
H1025 H 0.19548 0.16847 0.63233 0.0
H1026 H 0.14471 0.07227 0.54664 0.0
H1027 H 0.17284 0.0963 0.5817 0.0
H1028 H 0.14649 0.07113 0.661 0.0
C1029 C 0.19453 0.15281 0.7104 0.0
C1030 C 0.18546 0.14708 0.63901 0.0
C1031 C 0.20905 0.17121 0.7279 0.0
C1032 C 0.1352 0.07165 0.56442 0.0
C1033 C 0.15131 0.0856 0.58446 0.0
C1034 C 0.15721 0.09235 0.65461 0.0
C1035 C 0.20365 0.15412 0.68561 0.0
C1036 C 0.18713 0.1363 0.66586 0.0
C1037 C 0.13966 0.08616 0.60761 0.0
C1038 C 0.15604 0.10314 0.62783 0.0
H1039 H 0.26091 0.20715 0.69054 0.0
H1040 H 0.23677 0.1746 0.66094 0.0
H1041 H 0.17366 0.09945 0.69379 0.0
H1042 H 0.07388 0.04763 0.5931 0.0
H1043 H 0.10218 0.07181 0.62814 0.0
C1044 C 0.9263 0.13744 0.74178 0.0
C1045 C 0.89892 0.14383 0.73528 0.0
C1046 C 0.9413 0.13239 0.72243 0.0
C1047 C 0.94032 0.13944 0.64962 0.0
H1048 H 0.98517 0.08016 0.66676 0.0
C1049 C 0.96085 0.07139 0.57701 0.0
C1050 C 0.98883 0.0678 0.57654 0.0
C1051 C 0.95441 0.08595 0.59559 0.0
C1052 C 0.97313 0.09711 0.66183 0.0
H1053 H 0.86552 0.14961 0.70374 0.0
H1054 H 0.89093 0.13962 0.67021 0.0
H1055 H 0.96456 0.09466 0.70135 0.0
H1056 H 0.03221 0.07674 0.59451 0.0
H1057 H 1.02065 0.10155 0.62809 0.0
H1058 H 0.94738 0.14025 0.60975 0.0
C1059 C 0.90149 0.13951 0.68993 0.0
C1060 C 0.96132 0.10551 0.68163 0.0
C1061 C 0.88675 0.14501 0.70917 0.0
C1062 C 1.01051 0.07946 0.59457 0.0
C1063 C 1.00391 0.09349 0.6137 0.0
C1064 C 0.95169 0.13065 0.62981 0.0
C1065 C 0.92902 0.13317 0.69625 0.0
C1066 C 0.94419 0.12635 0.67571 0.0
C1067 C 0.97574 0.09664 0.61441 0.0
C1068 C 0.96772 0.10905 0.63569 0.0
H1069 H 0.93623 0.1367 0.76177 0.0
H1070 H 0.96257 0.12803 0.72804 0.0
H1071 H 0.92797 0.15609 0.64434 0.0
H1072 H 0.94387 0.06252 0.5632 0.0
H1073 H 0.93251 0.08788 0.59591 0.0
C1074 C 0.83437 0.7804 0.68639 0.0
C1075 C 0.84039 0.78729 0.71201 0.0
C1076 C 0.85353 0.79098 0.6679 0.0
C1077 C 0.92795 0.82623 0.65898 0.0
H1078 H 0.8937 0.85479 0.59065 0.0
C1079 C 0.98562 0.91339 0.58669 0.0
C1080 C 0.9767 0.91463 0.55981 0.0
C1081 C 0.97324 0.8913 0.60447 0.0
C1082 C 0.90371 0.84634 0.60936 0.0
H1083 H 0.87238 0.80939 0.73857 0.0
H1084 H 0.90553 0.82885 0.70589 0.0
H1085 H 0.86352 0.83007 0.6238 0.0
H1086 H 0.94952 0.89299 0.53002 0.0
H1087 H 0.92798 0.85379 0.56111 0.0
H1088 H 0.96824 0.84353 0.64458 0.0
C1089 C 0.88591 0.81503 0.70023 0.0
C1090 C 0.88634 0.83221 0.6285 0.0
C1091 C 0.86672 0.80419 0.7189 0.0
C1092 C 0.95697 0.89221 0.55067 0.0
C1093 C 0.94441 0.87005 0.56852 0.0
C1094 C 0.9454 0.84042 0.63976 0.0
C1095 C 0.87927 0.80893 0.67435 0.0
C1096 C 0.89818 0.82234 0.65369 0.0
C1097 C 0.95143 0.87011 0.5957 0.0
C1098 C 0.93347 0.85109 0.61484 0.0
H1099 H 0.81461 0.76703 0.68033 0.0
H1100 H 0.84799 0.78526 0.64838 0.0
H1101 H 0.93778 0.81852 0.67804 0.0
H1102 H 1.00062 0.93071 0.59413 0.0
H1103 H 0.97909 0.89225 0.62517 0.0
C1104 C 0.34108 0.13583 0.1667 0.0
C1105 C 0.3583 0.15884 0.17758 0.0
C1106 C 0.35166 0.12192 0.14966 0.0
C1107 C 0.41225 0.12972 0.10919 0.0
H1108 H 0.39023 0.04854 0.11285 0.0
C1109 C 0.47453 0.063 0.0648 0.0
C1110 C 0.45842 0.04387 0.04857 0.0
C1111 C 0.46123 0.07637 0.08013 0.0
C1112 C 0.39644 0.07124 0.11151 0.0
H1113 H 0.39987 0.18595 0.1778 0.0
H1114 H 0.41852 0.1612 0.14953 0.0
H1115 H 0.36871 0.07354 0.13948 0.0
H1116 H 0.41559 0.02304 0.03665 0.0
H1117 H 0.39246 0.04592 0.06396 0.0
H1118 H 0.44068 0.12716 0.08189 0.0
C1119 C 0.39669 0.15395 0.15364 0.0
C1120 C 0.38397 0.08568 0.12666 0.0
C1121 C 0.38606 0.16797 0.17035 0.0
C1122 C 0.42868 0.03773 0.04882 0.0
C1123 C 0.41541 0.05075 0.06452 0.0
C1124 C 0.42499 0.11525 0.09441 0.0
C1125 C 0.37978 0.13057 0.14311 0.0
C1126 C 0.39185 0.11516 0.12591 0.0
C1127 C 0.43149 0.0706 0.08001 0.0
C1128 C 0.41739 0.08583 0.09549 0.0
H1129 H 0.31965 0.12807 0.17183 0.0
H1130 H 0.33773 0.10433 0.14169 0.0
H1131 H 0.41844 0.15244 0.1074 0.0
H1132 H 0.49744 0.06821 0.0652 0.0
H1133 H 0.47424 0.09132 0.09208 0.0
C1134 C 0.80728 0.34674 0.21607 0.0
C1135 C 0.78593 0.32529 0.20719 0.0
C1136 C 0.82746 0.36208 0.19966 0.0
C1137 C 0.85817 0.35763 0.13858 0.0
H1138 H 0.89201 0.4359 0.14304 0.0
C1139 C 0.92133 0.42818 0.05843 0.0
C1140 C 0.94679 0.44629 0.06567 0.0
C1141 C 0.90388 0.41299 0.07716 0.0
C1142 C 0.88304 0.41393 0.1418 0.0
H1143 H 0.76712 0.30473 0.17364 0.0
H1144 H 0.80211 0.33139 0.1448 0.0
H1145 H 0.85598 0.4116 0.17167 0.0
H1146 H 0.97396 0.46237 0.09857 0.0
H1147 H 0.94289 0.43599 0.13164 0.0
H1148 H 0.88468 0.3603 0.10818 0.0
C1149 C 0.80419 0.33583 0.16471 0.0
C1150 C 0.86227 0.39991 0.15823 0.0
C1151 C 0.784 0.32056 0.18115 0.0
C1152 C 0.95458 0.44849 0.09238 0.0
C1153 C 0.93669 0.43356 0.11125 0.0
C1154 C 0.87866 0.37171 0.12203 0.0
C1155 C 0.82661 0.3565 0.17383 0.0
C1156 C 0.84924 0.37158 0.1567 0.0
C1157 C 0.91106 0.41565 0.10379 0.0
C1158 C 0.89119 0.40013 0.1232 0.0
H1159 H 0.80858 0.35137 0.23588 0.0
H1160 H 0.84423 0.37769 0.20759 0.0
H1161 H 0.84941 0.33568 0.13716 0.0
H1162 H 0.91468 0.42585 0.03806 0.0
H1163 H 0.88426 0.39965 0.07064 0.0
C1164 C 0.74283 0.82995 0.21306 0.0
C1165 C 0.73294 0.80067 0.21738 0.0
C1166 C 0.72783 0.8475 0.19428 0.0
C1167 C 0.66636 0.84437 0.13971 0.0
H1168 H 0.66758 0.92053 0.15185 0.0
C1169 C 0.59989 0.91811 0.06808 0.0
C1170 C 0.59177 0.94045 0.0773 0.0
C1171 C 0.61766 0.9012 0.08421 0.0
C1172 C 0.66639 0.89915 0.14823 0.0
H1173 H 0.69925 0.7671 0.2059 0.0
H1174 H 0.67292 0.79705 0.17445 0.0
H1175 H 0.69753 0.89183 0.18082 0.0
H1176 H 0.59508 0.96168 0.11118 0.0
H1177 H 0.62399 0.9313 0.13976 0.0
H1178 H 0.63392 0.85089 0.10827 0.0
C1179 C 0.69274 0.80687 0.18428 0.0
C1180 C 0.6843 0.8827 0.16474 0.0
C1181 C 0.70784 0.78949 0.20263 0.0
C1182 C 0.60091 0.94465 0.10341 0.0
C1183 C 0.61803 0.92736 0.11974 0.0
C1184 C 0.64803 0.86057 0.12359 0.0
C1185 C 0.70218 0.8363 0.17978 0.0
C1186 C 0.68448 0.85483 0.16099 0.0
C1187 C 0.62743 0.90569 0.11035 0.0
C1188 C 0.64747 0.88829 0.12755 0.0
H1189 H 0.76171 0.83932 0.22458 0.0
H1190 H 0.73631 0.86988 0.19138 0.0
H1191 H 0.66607 0.82342 0.13537 0.0
H1192 H 0.59376 0.91463 0.04791 0.0
H1193 H 0.62446 0.88527 0.0757 0.0
C1194 C 0.22061 0.74423 0.17214 0.0
C1195 C 0.23007 0.72697 0.19469 0.0
C1196 C 0.20361 0.73223 0.15133 0.0
C1197 C 0.18718 0.6671 0.12202 0.0
H1198 H 0.11165 0.68362 0.09897 0.0
C1199 C 0.09924 0.58459 0.08574 0.0
C1200 C 0.08648 0.59007 0.05998 0.0
C1201 C 0.11566 0.60633 0.09823 0.0
C1202 C 0.13291 0.67929 0.10482 0.0
H1203 H 0.22962 0.6835 0.21261 0.0
H1204 H 0.20072 0.66287 0.1764 0.0
H1205 H 0.14483 0.71319 0.12802 0.0
H1206 H 0.07906 0.623 0.02785 0.0
H1207 H 0.10806 0.66155 0.0502 0.0
H1208 H 0.17501 0.63246 0.10013 0.0
C1209 C 0.20623 0.68565 0.17486 0.0
C1210 C 0.15183 0.69612 0.12136 0.0
C1211 C 0.22275 0.69754 0.19569 0.0
C1212 C 0.08873 0.61818 0.04769 0.0
C1213 C 0.1053 0.64016 0.06037 0.0
C1214 C 0.16842 0.65042 0.10563 0.0
C1215 C 0.19646 0.70281 0.15251 0.0
C1216 C 0.17868 0.68936 0.13091 0.0
C1217 C 0.11969 0.6341 0.08536 0.0
C1218 C 0.14078 0.65565 0.09777 0.0
H1219 H 0.22639 0.76695 0.17045 0.0
H1220 H 0.19644 0.74587 0.1342 0.0
H1221 H 0.20793 0.66176 0.12878 0.0
H1222 H 0.09744 0.56326 0.09599 0.0
H1223 H 0.12613 0.60128 0.11773 0.0
C1224 C 0.35809 0.76289 0.84129 0.0
C1225 C 0.3412 0.77914 0.8233 0.0
C1226 C 0.37702 0.77526 0.86096 0.0
C1227 C 0.3864 0.8347 0.89786 0.0
H1228 H 0.46718 0.83307 0.90898 0.0
C1229 C 0.46726 0.92433 0.93271 0.0
C1230 C 0.47787 0.91944 0.95923 0.0
C1231 C 0.45459 0.90192 0.91917 0.0
C1232 C 0.44455 0.83313 0.90644 0.0
H1233 H 0.33274 0.82142 0.81042 0.0
H1234 H 0.36477 0.84259 0.84486 0.0
H1235 H 0.43563 0.80299 0.87921 0.0
H1236 H 0.48536 0.88708 0.99185 0.0
H1237 H 0.46276 0.84744 0.9678 0.0
H1238 H 0.39536 0.86579 0.92383 0.0
C1239 C 0.36299 0.82025 0.84428 0.0
C1240 C 0.42657 0.81602 0.88947 0.0
C1241 C 0.34446 0.80805 0.82465 0.0
C1242 C 0.47744 0.89145 0.9714 0.0
C1243 C 0.46455 0.86884 0.95772 0.0
C1244 C 0.40424 0.85162 0.91471 0.0
C1245 C 0.3791 0.80396 0.86293 0.0
C1246 C 0.39749 0.81751 0.88432 0.0
C1247 C 0.45228 0.87409 0.93176 0.0
C1248 C 0.43353 0.85163 0.91851 0.0
H1249 H 0.35615 0.74059 0.84052 0.0
H1250 H 0.38936 0.76228 0.87501 0.0
H1251 H 0.36403 0.83598 0.89452 0.0
H1252 H 0.46759 0.94562 0.92267 0.0
H1253 H 0.44527 0.90638 0.89913 0.0
C1254 C 0.17655 0.32343 0.87971 0.0
C1255 C 0.15791 0.29956 0.8718 0.0
C1256 C 0.16637 0.34351 0.89043 0.0
C1257 C 0.1037 0.35185 0.92138 0.0
H1258 H 0.13892 0.4309 0.91266 0.0
C1259 C 0.0576 0.43612 0.95944 0.0
C1260 C 0.07719 0.4543 0.97443 0.0
C1261 C 0.06702 0.41874 0.94493 0.0
C1262 C 0.12893 0.40886 0.91533 0.0
H1263 H 0.11384 0.27875 0.86773 0.0
H1264 H 0.09591 0.31404 0.88543 0.0
H1265 H 0.15589 0.39796 0.89076 0.0
H1266 H 0.12209 0.46927 0.98495 0.0
H1267 H 0.13847 0.43928 0.95929 0.0
H1268 H 0.07651 0.36293 0.94565 0.0
C1269 C 0.11855 0.31692 0.88437 0.0
C1270 C 0.13875 0.38988 0.90288 0.0
C1271 C 0.12879 0.29671 0.87403 0.0
C1272 C 0.10642 0.45545 0.97372 0.0
C1273 C 0.11583 0.43836 0.95891 0.0
C1274 C 0.09369 0.37087 0.93352 0.0
C1275 C 0.13722 0.34041 0.89318 0.0
C1276 C 0.12638 0.36101 0.90583 0.0
C1277 C 0.09625 0.41942 0.94473 0.0
C1278 C 0.10627 0.39957 0.93078 0.0
H1279 H 0.19915 0.32609 0.87842 0.0
H1280 H 0.18156 0.36101 0.89725 0.0
H1281 H 0.09397 0.32978 0.92474 0.0
H1282 H 0.03494 0.43463 0.95955 0.0
H1283 H 0.0514 0.40458 0.93401 0.0
C1284 C 0.70109 0.18883 0.78674 0.0
C1285 C 0.72214 0.21125 0.79431 0.0
C1286 C 0.68516 0.17055 0.80536 0.0
C1287 C 0.68666 0.14478 0.87597 0.0
H1288 H 0.60441 0.12812 0.86372 0.0
C1289 C 0.62007 0.09274 0.96045 0.0
C1290 C 0.59407 0.07439 0.95561 0.0
C1291 C 0.63478 0.10825 0.93988 0.0
C1292 C 0.62736 0.13205 0.8674 0.0
H1293 H 0.74148 0.23359 0.82669 0.0
H1294 H 0.71431 0.20139 0.85935 0.0
H1295 H 0.63194 0.15642 0.82943 0.0
H1296 H 0.56313 0.05817 0.92499 0.0
H1297 H 0.58928 0.08456 0.88888 0.0
H1298 H 0.68257 0.12006 0.91349 0.0
C1299 C 0.71055 0.19738 0.83921 0.0
C1300 C 0.64315 0.14842 0.84769 0.0
C1301 C 0.72623 0.21572 0.82059 0.0
C1302 C 0.58303 0.0722 0.92944 0.0
C1303 C 0.59806 0.08747 0.90872 0.0
C1304 C 0.67099 0.12808 0.89546 0.0
C1305 C 0.68981 0.17454 0.83187 0.0
C1306 C 0.67298 0.15539 0.85192 0.0
C1307 C 0.62435 0.10563 0.91362 0.0
C1308 C 0.64101 0.12187 0.89179 0.0
H1309 H 0.69694 0.18551 0.76641 0.0
H1310 H 0.66931 0.15323 0.79905 0.0
H1311 H 0.70962 0.1494 0.87974 0.0
H1312 H 0.62909 0.09535 0.98031 0.0
H1313 H 0.65435 0.12253 0.94473 0.0
C1314 C 0.84703 0.72279 0.80658 0.0
C1315 C 0.81809 0.71269 0.8096 0.0
C1316 C 0.8683 0.71128 0.82385 0.0
C1317 C 0.8821 0.66944 0.88941 0.0
H1318 H 0.93819 0.64248 0.85849 0.0
C1319 C 0.96696 0.60941 0.95289 0.0
C1320 C 0.96849 0.58373 0.94476 0.0
C1321 C 0.95223 0.62904 0.93655 0.0
C1322 C 0.9228 0.65 0.86751 0.0
H1323 H 0.7889 0.68289 0.83314 0.0
H1324 H 0.82568 0.66363 0.86356 0.0
H1325 H 0.90563 0.67022 0.83062 0.0
H1326 H 0.95674 0.55934 0.91251 0.0
H1327 H 0.93211 0.59372 0.88391 0.0
H1328 H 0.89892 0.64885 0.92622 0.0
C1329 C 0.83214 0.68037 0.84801 0.0
C1330 C 0.90424 0.66613 0.85151 0.0
C1331 C 0.81101 0.6914 0.83053 0.0
C1332 C 0.95615 0.57892 0.9194 0.0
C1333 C 0.94201 0.59871 0.90293 0.0
C1334 C 0.90098 0.65374 0.90546 0.0
C1335 C 0.8611 0.6897 0.8447 0.0
C1336 C 0.8832 0.67558 0.86214 0.0
C1337 C 0.93918 0.62378 0.91144 0.0
C1338 C 0.92124 0.64325 0.8947 0.0
H1339 H 0.85316 0.7388 0.79037 0.0
H1340 H 0.89038 0.71905 0.82074 0.0
H1341 H 0.8663 0.67646 0.89833 0.0
H1342 H 0.97583 0.61368 0.97238 0.0
H1343 H 0.95066 0.64817 0.94374 0.0
C1344 C 0.20349 0.29092 0.21143 0.0
C1345 C 0.23256 0.30219 0.21005 0.0
C1346 C 0.18245 0.30347 0.19475 0.0
C1347 C 0.17319 0.37324 0.157 0.0
H1348 H 0.10268 0.33338 0.12486 0.0
C1349 C 0.08673 0.43495 0.10622 0.0
C1350 C 0.0734 0.42886 0.0815 0.0
C1351 C 0.10289 0.41669 0.12231 0.0
C1352 C 0.12231 0.34486 0.13361 0.0
H1353 H 0.26217 0.33513 0.18988 0.0
H1354 H 0.22599 0.35663 0.16089 0.0
H1355 H 0.1375 0.30671 0.151 0.0
H1356 H 0.0657 0.39768 0.05503 0.0
H1357 H 0.09408 0.36557 0.08324 0.0
H1358 H 0.15862 0.41124 0.13963 0.0
C1359 C 0.21916 0.33833 0.17486 0.0
C1360 C 0.14221 0.32953 0.14882 0.0
C1361 C 0.24 0.32586 0.19139 0.0
C1362 C 0.07535 0.40294 0.07404 0.0
C1363 C 0.09178 0.38458 0.09022 0.0
C1364 C 0.15338 0.38844 0.14206 0.0
C1365 C 0.19 0.32784 0.17661 0.0
C1366 C 0.16808 0.34354 0.16064 0.0
C1367 C 0.10664 0.3917 0.11424 0.0
C1368 C 0.12753 0.37463 0.13013 0.0
H1369 H 0.19701 0.27302 0.22593 0.0
H1370 H 0.16029 0.29478 0.19683 0.0
H1371 H 0.19255 0.38495 0.16597 0.0
H1372 H 0.08561 0.45457 0.11277 0.0
H1373 H 0.11319 0.42268 0.14089 0.0
C1374 C 0.24952 0.7006 0.84221 0.0
C1375 C 0.24605 0.69752 0.81561 0.0
C1376 C 0.23029 0.68437 0.85909 0.0
C1377 C 0.19646 0.63732 0.89414 0.0
H1378 H 0.11691 0.61624 0.86862 0.0
C1379 C 0.12107 0.55664 0.95742 0.0
C1380 C 0.09338 0.56127 0.95802 0.0
C1381 C 0.13834 0.57256 0.93886 0.0
C1382 C 0.13899 0.6221 0.87617 0.0
H1383 H 0.22207 0.67285 0.78638 0.0
H1384 H 0.18864 0.64409 0.8158 0.0
H1385 H 0.14985 0.64591 0.83939 0.0
H1386 H 0.06175 0.58571 0.93874 0.0
H1387 H 0.0922 0.61406 0.90637 0.0
H1388 H 0.18566 0.61433 0.93104 0.0
C1389 C 0.20519 0.66007 0.82346 0.0
C1390 C 0.15801 0.63887 0.85928 0.0
C1391 C 0.22428 0.67654 0.80656 0.0
C1392 C 0.08294 0.58153 0.93876 0.0
C1393 C 0.10045 0.59778 0.9202 0.0
C1394 C 0.17749 0.62069 0.911 0.0
C1395 C 0.20766 0.66398 0.84993 0.0
C1396 C 0.1871 0.64659 0.86798 0.0
C1397 C 0.12868 0.59395 0.92041 0.0
C1398 C 0.1485 0.61254 0.90226 0.0
H1399 H 0.26673 0.71608 0.84979 0.0
H1400 H 0.23296 0.68818 0.87924 0.0
H1401 H 0.21864 0.6425 0.90162 0.0
H1402 H 0.12967 0.54088 0.9717 0.0
H1403 H 0.15953 0.56824 0.93923 0.0
C1404 C 0.35214 0.23378 0.821 0.0
C1405 C 0.32618 0.22366 0.80686 0.0
C1406 C 0.3671 0.21552 0.83847 0.0
C1407 C 0.39313 0.17649 0.88187 0.0
H1408 H 0.38699 0.09961 0.86935 0.0
C1409 C 0.45709 0.09937 0.95186 0.0
C1410 C 0.46334 0.07618 0.94249 0.0
C1411 C 0.43989 0.11712 0.93613 0.0
C1412 C 0.38957 0.12115 0.87306 0.0
H1413 H 0.29586 0.18594 0.79968 0.0
H1414 H 0.32098 0.15392 0.83146 0.0
H1415 H 0.35817 0.12999 0.84115 0.0
H1416 H 0.45722 0.05425 0.90873 0.0
H1417 H 0.42929 0.086 0.8808 0.0
H1418 H 0.42584 0.16842 0.91257 0.0
C1419 C 0.33026 0.17611 0.82873 0.0
C1420 C 0.37232 0.13861 0.857 0.0
C1421 C 0.31543 0.19453 0.81078 0.0
C1422 C 0.45283 0.0719 0.91663 0.0
C1423 C 0.43628 0.09003 0.90067 0.0
C1424 C 0.41082 0.15928 0.89751 0.0
C1425 C 0.35663 0.18625 0.84275 0.0
C1426 C 0.37387 0.16677 0.86091 0.0
C1427 C 0.42885 0.11269 0.91023 0.0
C1428 C 0.40957 0.13122 0.89343 0.0
H1429 H 0.36136 0.25603 0.81804 0.0
H1430 H 0.3875 0.22457 0.84788 0.0
H1431 H 0.39478 0.19762 0.88638 0.0
H1432 H 0.46432 0.10299 0.97184 0.0
H1433 H 0.43458 0.13375 0.94481 0.0
C1434 C 0.82877 0.30836 0.82966 0.0
C1435 C 0.83324 0.28406 0.82091 0.0
C1436 C 0.84844 0.3214 0.84806 0.0
C1437 C 0.90164 0.31461 0.90201 0.0
H1438 H 0.9275 0.39407 0.87856 0.0
C1439 C 0.97011 0.3993 0.96583 0.0
C1440 C 0.95615 0.4223 0.96424 0.0
C1441 C 0.96005 0.3786 0.94931 0.0
C1442 C 0.9208 0.37183 0.88529 0.0
H1443 H 0.86123 0.2535 0.82586 0.0
H1444 H 0.89564 0.27643 0.85868 0.0
H1445 H 0.90007 0.36394 0.84756 0.0
H1446 H 0.91975 0.44052 0.94517 0.0
H1447 H 0.90271 0.40494 0.91672 0.0
H1448 H 0.92104 0.32318 0.94027 0.0
C1449 C 0.8769 0.28531 0.85082 0.0
C1450 C 0.90514 0.35466 0.8676 0.0
C1451 C 0.85726 0.27232 0.83204 0.0
C1452 C 0.93144 0.42351 0.94666 0.0
C1453 C 0.92161 0.40312 0.93028 0.0
C1454 C 0.91735 0.33196 0.91988 0.0
C1455 C 0.8729 0.31033 0.85841 0.0
C1456 C 0.89444 0.32623 0.87603 0.0
C1457 C 0.9361 0.38085 0.93099 0.0
C1458 C 0.92593 0.36095 0.9118 0.0
H1459 H 0.8105 0.31796 0.82176 0.0
H1460 H 0.84478 0.34052 0.85392 0.0
H1461 H 0.89352 0.29268 0.90884 0.0
H1462 H 0.98916 0.39774 0.97921 0.0
H1463 H 0.97142 0.36145 0.95024 0.0
C1464 C 0.71386 0.8819 0.84966 0.0
C1465 C 0.74086 0.87927 0.86299 0.0
C1466 C 0.69443 0.89278 0.86105 0.0
C1467 C 0.69322 0.94007 0.90847 0.0
H1468 H 0.61439 0.90458 0.91334 0.0
C1469 C 0.62828 0.97229 0.97846 0.0
C1470 C 0.59913 0.97273 0.97172 0.0
C1471 C 0.64355 0.96143 0.96294 0.0
C1472 C 0.63621 0.91505 0.91175 0.0
H1473 H 0.76756 0.88449 0.89961 0.0
H1474 H 0.73422 0.90409 0.91889 0.0
H1475 H 0.64447 0.88392 0.89046 0.0
H1476 H 0.56324 0.96183 0.94301 0.0
H1477 H 0.59025 0.94323 0.91539 0.0
H1478 H 0.68531 0.97132 0.9293 0.0
C1479 C 0.72823 0.89808 0.89949 0.0
C1480 C 0.65345 0.90313 0.89872 0.0
C1481 C 0.74742 0.88694 0.88832 0.0
C1482 C 0.58566 0.96192 0.94879 0.0
C1483 C 0.60113 0.9511 0.93305 0.0
C1484 C 0.67602 0.95212 0.92115 0.0
C1485 C 0.70168 0.90155 0.88589 0.0
C1486 C 0.68234 0.91516 0.89752 0.0
C1487 C 0.63037 0.95083 0.9399 0.0
C1488 C 0.64746 0.93942 0.92364 0.0
H1489 H 0.70803 0.87644 0.83008 0.0
H1490 H 0.67413 0.89524 0.85008 0.0
H1491 H 0.71522 0.9502 0.90738 0.0
H1492 H 0.63949 0.98007 0.99606 0.0
H1493 H 0.66577 0.96098 0.96936 0.0
C1494 C 0.92362 0.72243 0.14931 0.0
C1495 C 0.89474 0.72177 0.1511 0.0
C1496 C 0.93215 0.70125 0.13888 0.0
C1497 C 0.90679 0.62895 0.11986 0.0
H1498 H 0.97057 0.65107 0.07851 0.0
C1499 C 0.93566 0.559 0.05081 0.0
C1500 C 0.96465 0.55823 0.05101 0.0
C1501 C 0.92708 0.57718 0.06507 0.0
C1502 C 0.95291 0.64448 0.09023 0.0
H1503 H 0.85214 0.69823 0.14349 0.0
H1504 H 0.86681 0.66167 0.1245 0.0
H1505 H 0.95554 0.6862 0.09882 0.0
H1506 H 1.00731 0.57563 0.06699 0.0
H1507 H 0.9923 0.60743 0.09158 0.0
H1508 H 0.90377 0.58729 0.11033 0.0
C1509 C 0.88307 0.67816 0.13174 0.0
C1510 C 0.94429 0.66463 0.10202 0.0
C1511 C 0.87458 0.69919 0.14254 0.0
C1512 C 0.98479 0.57557 0.06638 0.0
C1513 C 0.97622 0.59397 0.08035 0.0
C1514 C 0.91522 0.60884 0.10776 0.0
C1515 C 0.912 0.67898 0.12955 0.0
C1516 C 0.92115 0.65721 0.1171 0.0
C1517 C 0.94731 0.59528 0.07958 0.0
C1518 C 0.93844 0.61637 0.09287 0.0
H1519 H 0.9397 0.73932 0.15614 0.0
H1520 H 0.95465 0.70237 0.13823 0.0
H1521 H 0.88918 0.62221 0.1316 0.0
H1522 H 0.91957 0.54594 0.03923 0.0
H1523 H 0.90465 0.57779 0.06397 0.0
C1524 C 0.3644 0.80946 0.22956 0.0
C1525 C 0.33597 0.79661 0.22369 0.0
C1526 C 0.3794 0.82765 0.21037 0.0
C1527 C 0.37912 0.84575 0.138 0.0
H1528 H 0.43405 0.9114 0.15556 0.0
C1529 C 0.43128 0.92872 0.05827 0.0
C1530 C 0.46053 0.93999 0.06247 0.0
C1531 C 0.41675 0.9118 0.07834 0.0
C1532 C 0.41904 0.89298 0.15037 0.0
H1533 H 0.30135 0.79171 0.19271 0.0
H1534 H 0.32716 0.824 0.15924 0.0
H1535 H 0.40668 0.88165 0.18924 0.0
H1536 H 0.49716 0.94232 0.09172 0.0
H1537 H 0.47162 0.91264 0.12698 0.0
H1538 H 0.39126 0.85717 0.09913 0.0
C1539 C 0.33801 0.8201 0.17872 0.0
C1540 C 0.40327 0.87586 0.16972 0.0
C1541 C 0.32301 0.80188 0.19799 0.0
C1542 C 0.47471 0.93404 0.08767 0.0
C1543 C 0.46001 0.91711 0.10793 0.0
C1544 C 0.39475 0.86291 0.11868 0.0
C1545 C 0.36652 0.83323 0.18458 0.0
C1546 C 0.38303 0.85195 0.16385 0.0
C1547 C 0.43084 0.90554 0.10344 0.0
C1548 C 0.4149 0.88684 0.12451 0.0
H1549 H 0.37511 0.8053 0.24909 0.0
H1550 H 0.40139 0.83677 0.21565 0.0
H1551 H 0.36427 0.82728 0.13271 0.0
H1552 H 0.41939 0.93283 0.03929 0.0
H1553 H 0.39425 0.90379 0.07417 0.0
C1554 C 0.70955 0.2404 0.17281 0.0
C1555 C 0.69879 0.24602 0.19469 0.0
C1556 C 0.69142 0.22744 0.15326 0.0
C1557 C 0.62049 0.18231 0.14277 0.0
H1558 H 0.64017 0.19329 0.07167 0.0
C1559 C 0.56142 0.11384 0.06293 0.0
C1560 C 0.58046 0.09933 0.05518 0.0
C1561 C 0.57174 0.13659 0.07705 0.0
C1562 C 0.63421 0.19029 0.09137 0.0
H1563 H 0.6603 0.2433 0.21272 0.0
H1564 H 0.62844 0.22195 0.17801 0.0
H1565 H 0.66568 0.2252 0.10202 0.0
H1566 H 0.62493 0.09802 0.05457 0.0
H1567 H 0.64284 0.13815 0.07824 0.0
H1568 H 0.58915 0.14713 0.13189 0.0
C1569 C 0.65104 0.22685 0.17625 0.0
C1570 C 0.649 0.20834 0.10888 0.0
C1571 C 0.66928 0.23951 0.19601 0.0
C1572 C 0.60982 0.10875 0.06052 0.0
C1573 C 0.62007 0.13179 0.0739 0.0
C1574 C 0.60539 0.16454 0.12508 0.0
C1575 C 0.66191 0.22014 0.15483 0.0
C1576 C 0.64309 0.20395 0.13511 0.0
C1577 C 0.60119 0.14559 0.08274 0.0
C1578 C 0.61279 0.16781 0.09952 0.0
H1579 H 0.73212 0.24556 0.17094 0.0
H1580 H 0.70079 0.22228 0.13738 0.0
H1581 H 0.61545 0.17799 0.16281 0.0
H1582 H 0.53871 0.10695 0.05898 0.0
H1583 H 0.55682 0.14694 0.08376 0.0
C1584 C 0.72003 0.72313 0.83754 0.0
C1585 C 0.71228 0.72428 0.81041 0.0
C1586 C 0.70083 0.70921 0.85525 0.0
C1587 C 0.63663 0.6537 0.85923 0.0
H1588 H 0.63635 0.67659 0.92704 0.0
C1589 C 0.56197 0.5876 0.93038 0.0
C1590 C 0.57509 0.57937 0.95545 0.0
C1591 C 0.57548 0.61015 0.91379 0.0
C1592 C 0.63624 0.66996 0.90818 0.0
H1593 H 0.67761 0.71313 0.78065 0.0
H1594 H 0.64394 0.68916 0.81152 0.0
H1595 H 0.66578 0.7069 0.89504 0.0
H1596 H 0.61149 0.58959 0.98372 0.0
H1597 H 0.63551 0.62912 0.95447 0.0
H1598 H 0.60746 0.61672 0.87233 0.0
C1599 C 0.66516 0.69838 0.81915 0.0
C1600 C 0.65314 0.68725 0.88986 0.0
C1601 C 0.68445 0.71219 0.80141 0.0
C1602 C 0.60089 0.59564 0.96452 0.0
C1603 C 0.61463 0.61821 0.94774 0.0
C1604 C 0.61967 0.6366 0.87741 0.0
C1605 C 0.67327 0.69625 0.84632 0.0
C1606 C 0.65377 0.67917 0.86523 0.0
C1607 C 0.6026 0.62481 0.92179 0.0
C1608 C 0.6194 0.64437 0.90217 0.0
H1609 H 0.74125 0.73223 0.84523 0.0
H1610 H 0.70802 0.70773 0.87597 0.0
H1611 H 0.637 0.64639 0.84078 0.0
H1612 H 0.54189 0.57556 0.92304 0.0
H1613 H 0.56533 0.61518 0.89418 0.0
C1614 C 0.3762 0.68613 0.85791 0.0
C1615 C 0.35383 0.66311 0.86276 0.0
C1616 C 0.39676 0.69432 0.87807 0.0
C1617 C 0.42324 0.66602 0.94681 0.0
H1618 H 0.48487 0.65821 0.90981 0.0
C1619 C 0.48231 0.57396 0.94205 0.0
C1620 C 0.48908 0.56444 0.96859 0.0
C1621 C 0.47591 0.60087 0.93434 0.0
C1622 C 0.46814 0.66073 0.92062 0.0
H1623 H 0.33305 0.63421 0.89353 0.0
H1624 H 0.37028 0.64604 0.92787 0.0
H1625 H 0.44982 0.68516 0.88778 0.0
H1626 H 0.49624 0.57641 1.00777 0.0
H1627 H 0.48478 0.62312 0.99417 0.0
H1628 H 0.43986 0.63827 0.97849 0.0
C1629 C 0.3719 0.65844 0.90874 0.0
C1630 C 0.44802 0.6766 0.90811 0.0
C1631 C 0.35073 0.65096 0.88877 0.0
C1632 C 0.49055 0.58285 0.98713 0.0
C1633 C 0.48421 0.60973 0.97941 0.0
C1634 C 0.44315 0.64971 0.9592 0.0
C1635 C 0.3964 0.67861 0.90314 0.0
C1636 C 0.42357 0.67666 0.92008 0.0
C1637 C 0.47627 0.61883 0.95301 0.0
C1638 C 0.46404 0.64474 0.94514 0.0
H1639 H 0.37951 0.6965 0.83831 0.0
H1640 H 0.41463 0.71085 0.87326 0.0
H1641 H 0.40551 0.66697 0.95709 0.0
H1642 H 0.48138 0.56048 0.9273 0.0
H1643 H 0.46931 0.60703 0.91383 0.0
C1644 C 0.30006 0.33275 0.82393 0.0
C1645 C 0.31544 0.3219 0.80819 0.0
C1646 C 0.3142 0.34814 0.84378 0.0
C1647 C 0.37343 0.34905 0.89189 0.0
H1648 H 0.37286 0.42725 0.89654 0.0
C1649 C 0.45458 0.41119 0.96144 0.0
C1650 C 0.44901 0.43526 0.96971 0.0
C1651 C 0.43434 0.39556 0.9452 0.0
C1652 C 0.37271 0.40519 0.89598 0.0
H1653 H 0.35752 0.31878 0.80057 0.0
H1654 H 0.38235 0.34511 0.83594 0.0
H1655 H 0.34619 0.40565 0.85923 0.0
H1656 H 0.41702 0.46064 0.96916 0.0
H1657 H 0.3808 0.43252 0.9414 0.0
H1658 H 0.39897 0.34786 0.92876 0.0
C1659 C 0.35938 0.34217 0.83244 0.0
C1660 C 0.35771 0.39299 0.8744 0.0
C1661 C 0.34525 0.32739 0.81211 0.0
C1662 C 0.42176 0.44199 0.96328 0.0
C1663 C 0.40125 0.42616 0.94696 0.0
C1664 C 0.38786 0.36097 0.91371 0.0
C1665 C 0.34392 0.35225 0.84868 0.0
C1666 C 0.35858 0.36506 0.8719 0.0
C1667 C 0.40772 0.40339 0.93683 0.0
C1668 C 0.38845 0.38948 0.91576 0.0
H1669 H 0.27703 0.32855 0.82139 0.0
H1670 H 0.30188 0.35561 0.85614 0.0
H1671 H 0.37387 0.32725 0.89061 0.0
H1672 H 0.47549 0.40561 0.96602 0.0
H1673 H 0.44054 0.37853 0.93777 0.0
C1674 C 0.69499 0.37792 0.83109 0.0
C1675 C 0.71696 0.3942 0.81711 0.0
C1676 C 0.68673 0.38757 0.85212 0.0
C1677 C 0.68795 0.45293 0.87925 0.0
H1678 H 0.66076 0.40007 0.93841 0.0
C1679 C 0.63538 0.48714 0.9591 0.0
C1680 C 0.60818 0.47093 0.96206 0.0
C1681 C 0.65438 0.4778 0.94596 0.0
C1682 C 0.66846 0.41511 0.92209 0.0
H1683 H 0.74799 0.43307 0.81468 0.0
H1684 H 0.73366 0.44989 0.85157 0.0
H1685 H 0.68333 0.38387 0.90607 0.0
H1686 H 0.5803 0.43146 0.95542 0.0
H1687 H 0.6134 0.41509 0.93298 0.0
H1688 H 0.67243 0.48399 0.89506 0.0
C1689 C 0.72252 0.42984 0.84599 0.0
C1690 C 0.68123 0.40582 0.90347 0.0
C1691 C 0.73072 0.42022 0.82485 0.0
C1692 C 0.60103 0.44452 0.9532 0.0
C1693 C 0.62009 0.43503 0.94052 0.0
C1694 C 0.67534 0.46226 0.89799 0.0
C1695 C 0.70031 0.41368 0.85981 0.0
C1696 C 0.69032 0.4244 0.88138 0.0
C1697 C 0.64665 0.45186 0.93612 0.0
C1698 C 0.66469 0.44324 0.91916 0.0
H1699 H 0.68369 0.35798 0.82538 0.0
H1700 H 0.66913 0.37483 0.86191 0.0
H1701 H 0.69448 0.46779 0.86241 0.0
H1702 H 0.6414 0.50759 0.96574 0.0
H1703 H 0.67481 0.49111 0.94293 0.0
C1704 C 0.78838 0.41962 0.17182 0.0
C1705 C 0.76492 0.41029 0.18643 0.0
C1706 C 0.78414 0.42536 0.14437 0.0
C1707 C 0.73065 0.41203 0.08867 0.0
H1708 H 0.72599 0.49123 0.0781 0.0
C1709 C 0.62732 0.45118 0.04507 0.0
C1710 C 0.61891 0.46402 0.06433 0.0
C1711 C 0.65538 0.44703 0.04645 0.0
C1712 C 0.72759 0.46918 0.08004 0.0
H1713 H 0.71873 0.40078 0.18354 0.0
H1714 H 0.71165 0.40945 0.13665 0.0
H1715 H 0.76516 0.47487 0.10697 0.0
H1716 H 0.63351 0.48253 0.10004 0.0
H1717 H 0.68183 0.47496 0.10261 0.0
H1718 H 0.69061 0.40565 0.06513 0.0
C1719 C 0.73329 0.41169 0.14609 0.0
C1720 C 0.75034 0.45986 0.09627 0.0
C1721 C 0.7374 0.40677 0.1731 0.0
C1722 C 0.63907 0.47241 0.08497 0.0
C1723 C 0.66701 0.46862 0.08613 0.0
C1724 C 0.70776 0.42127 0.07256 0.0
C1725 C 0.75645 0.42113 0.1314 0.0
C1726 C 0.74975 0.43084 0.10336 0.0
C1727 C 0.67557 0.45609 0.06684 0.0
C1728 C 0.70456 0.44945 0.07066 0.0
H1729 H 0.80983 0.42257 0.18156 0.0
H1730 H 0.80224 0.43338 0.13338 0.0
H1731 H 0.73014 0.38952 0.09353 0.0
H1732 H 0.61235 0.44468 0.02876 0.0
H1733 H 0.66133 0.43686 0.03161 0.0
C1734 C 0.75474 0.70463 0.19248 0.0
C1735 C 0.74949 0.69991 0.21892 0.0
C1736 C 0.74307 0.68469 0.17591 0.0
C1737 C 0.72498 0.63392 0.1469 0.0
H1738 H 0.64336 0.60998 0.14547 0.0
C1739 C 0.65117 0.55872 0.07806 0.0
C1740 C 0.62512 0.56707 0.06829 0.0
C1741 C 0.67037 0.57419 0.09552 0.0
C1742 C 0.66619 0.61649 0.14566 0.0
H1743 H 0.72889 0.66957 0.24884 0.0
H1744 H 0.70742 0.63487 0.21938 0.0
H1745 H 0.66955 0.63551 0.18038 0.0
H1746 H 0.59973 0.59916 0.06682 0.0
H1747 H 0.63337 0.62644 0.09658 0.0
H1748 H 0.72131 0.61538 0.11167 0.0
C1749 C 0.72074 0.65426 0.2117 0.0
C1750 C 0.68121 0.63075 0.16585 0.0
C1751 C 0.73287 0.67418 0.22853 0.0
C1752 C 0.61977 0.59242 0.07407 0.0
C1753 C 0.63881 0.60778 0.09136 0.0
C1754 C 0.70994 0.61934 0.12679 0.0
C1755 C 0.72558 0.6595 0.18515 0.0
C1756 C 0.71064 0.64027 0.16633 0.0
C1757 C 0.66354 0.59802 0.10333 0.0
C1758 C 0.68029 0.61124 0.1256 0.0
H1759 H 0.76754 0.72402 0.18421 0.0
H1760 H 0.74688 0.68955 0.15551 0.0
H1761 H 0.74774 0.64087 0.14691 0.0
H1762 H 0.65549 0.53897 0.0742 0.0
H1763 H 0.68939 0.56632 0.1044 0.0
C1764 C 0.33298 0.5892 0.20049 0.0
C1765 C 0.34483 0.61606 0.20738 0.0
C1766 C 0.34405 0.57858 0.18153 0.0
C1767 C 0.39275 0.59961 0.12884 0.0
H1768 H 0.39938 0.52066 0.14259 0.0
C1769 C 0.47554 0.55443 0.08755 0.0
C1770 C 0.46761 0.52805 0.07862 0.0
C1771 C 0.45651 0.56519 0.0992 0.0
C1772 C 0.39725 0.54262 0.13821 0.0
H1773 H 0.37739 0.65296 0.19955 0.0
H1774 H 0.39722 0.6343 0.16699 0.0
H1775 H 0.37419 0.53954 0.17106 0.0
H1776 H 0.4332 0.49254 0.07429 0.0
H1777 H 0.39982 0.5112 0.09539 0.0
H1778 H 0.41708 0.60282 0.09669 0.0
C1779 C 0.3789 0.62159 0.17571 0.0
C1780 C 0.38277 0.55352 0.15453 0.0
C1781 C 0.36762 0.63232 0.19447 0.0
C1782 C 0.43984 0.51295 0.08093 0.0
C1783 C 0.42085 0.52355 0.09311 0.0
C1784 C 0.40748 0.58877 0.11271 0.0
C1785 C 0.36747 0.59443 0.16914 0.0
C1786 C 0.38075 0.5823 0.15037 0.0
C1787 C 0.42914 0.54969 0.10259 0.0
C1788 C 0.41033 0.56027 0.11749 0.0
H1789 H 0.31512 0.57634 0.20983 0.0
H1790 H 0.33426 0.55786 0.17668 0.0
H1791 H 0.3911 0.62169 0.12457 0.0
H1792 H 0.49673 0.56667 0.08587 0.0
H1793 H 0.46364 0.58524 0.10649 0.0
C1794 C 0.33609 0.28551 0.18629 0.0
C1795 C 0.34106 0.28354 0.2137 0.0
C1796 C 0.35794 0.29773 0.17073 0.0
C1797 C 0.42565 0.34826 0.1732 0.0
H1798 H 0.43139 0.32555 0.1065 0.0
C1799 C 0.50955 0.41128 0.10935 0.0
C1800 C 0.49911 0.42012 0.08343 0.0
C1801 C 0.49368 0.38927 0.12474 0.0
C1802 C 0.43002 0.33211 0.12508 0.0
H1803 H 0.37337 0.29109 0.24632 0.0
H1804 H 0.41155 0.31214 0.21923 0.0
H1805 H 0.39717 0.29687 0.13516 0.0
H1806 H 0.46496 0.41129 0.0526 0.0
H1807 H 0.43695 0.37287 0.07967 0.0
H1808 H 0.45796 0.38368 0.16307 0.0
C1809 C 0.39057 0.30493 0.20969 0.0
C1810 C 0.41039 0.31575 0.14148 0.0
C1811 C 0.36868 0.29283 0.22525 0.0
C1812 C 0.47359 0.40488 0.0725 0.0
C1813 C 0.45754 0.38288 0.08803 0.0
C1814 C 0.44528 0.36446 0.15693 0.0
C1815 C 0.38534 0.30809 0.18221 0.0
C1816 C 0.40774 0.32385 0.16561 0.0
C1817 C 0.46688 0.37571 0.11465 0.0
C1818 C 0.44753 0.35678 0.13257 0.0
H1819 H 0.31509 0.27846 0.17672 0.0
H1820 H 0.35302 0.30005 0.14967 0.0
H1821 H 0.42382 0.35553 0.19133 0.0
H1822 H 0.52937 0.42239 0.1182 0.0
H1823 H 0.5018 0.38376 0.14498 0.0
C1824 C 0.84253 0.64295 0.66734 0.0
C1825 C 0.81729 0.62563 0.67512 0.0
C1826 C 0.86391 0.63132 0.65988 0.0
C1827 C 0.87554 0.56705 0.63642 0.0
H1828 H 0.95488 0.60151 0.64907 0.0
C1829 C 0.96479 0.527 0.59739 0.0
C1830 C 0.98236 0.54865 0.58282 0.0
C1831 C 0.94681 0.53358 0.6136 0.0
C1832 C 0.93282 0.59159 0.64544 0.0
H1833 H 0.79525 0.58229 0.68202 0.0
H1834 H 0.83262 0.56195 0.66939 0.0
H1835 H 0.91889 0.61849 0.66756 0.0
H1836 H 0.99627 0.59383 0.57476 0.0
H1837 H 0.96571 0.60529 0.60335 0.0
H1838 H 0.88958 0.54038 0.61403 0.0
C1839 C 0.83568 0.58464 0.66844 0.0
C1840 C 0.91211 0.60145 0.6559 0.0
C1841 C 0.81422 0.5963 0.67573 0.0
C1842 C 0.98299 0.57676 0.58593 0.0
C1843 C 0.96551 0.5833 0.60236 0.0
C1844 C 0.89629 0.55706 0.62612 0.0
C1845 C 0.86075 0.60199 0.66017 0.0
C1846 C 0.88309 0.58977 0.65105 0.0
C1847 C 0.94656 0.5619 0.6158 0.0
C1848 C 0.92512 0.56963 0.63001 0.0
H1849 H 0.84545 0.66564 0.66632 0.0
H1850 H 0.8826 0.64548 0.6532 0.0
H1851 H 0.85346 0.55768 0.63195 0.0
H1852 H 0.96374 0.50519 0.5951 0.0
H1853 H 0.93256 0.51661 0.62384 0.0
C1854 C 0.30968 0.79992 0.68676 0.0
C1855 C 0.31462 0.79889 0.71404 0.0
C1856 C 0.32922 0.81693 0.67061 0.0
C1857 C 0.36468 0.86779 0.64038 0.0
H1858 H 0.44562 0.87577 0.66193 0.0
C1859 C 0.44929 0.93039 0.57268 0.0
C1860 C 0.47376 0.94662 0.58443 0.0
C1861 C 0.42967 0.91209 0.58803 0.0
C1862 C 0.42309 0.87408 0.6557 0.0
H1863 H 0.3427 0.8161 0.74585 0.0
H1864 H 0.37686 0.84606 0.71777 0.0
H1865 H 0.41222 0.84422 0.6894 0.0
H1866 H 0.49625 0.95649 0.62176 0.0
H1867 H 0.46203 0.92506 0.6483 0.0
H1868 H 0.37553 0.89777 0.60675 0.0
C1869 C 0.35846 0.83299 0.70877 0.0
C1870 C 0.40389 0.8559 0.6715 0.0
C1871 C 0.33901 0.81577 0.72491 0.0
C1872 C 0.47779 0.94429 0.61193 0.0
C1873 C 0.4582 0.92603 0.62723 0.0
C1874 C 0.38389 0.886 0.62459 0.0
C1875 C 0.35387 0.83381 0.68138 0.0
C1876 C 0.3744 0.8526 0.66414 0.0
C1877 C 0.43395 0.90948 0.61555 0.0
C1878 C 0.41339 0.88956 0.63208 0.0
H1879 H 0.29064 0.78753 0.67794 0.0
H1880 H 0.32503 0.81682 0.64967 0.0
H1881 H 0.34213 0.86612 0.63421 0.0
H1882 H 0.44547 0.93146 0.55159 0.0
H1883 H 0.41142 0.89952 0.57828 0.0
C1884 C 0.19704 0.29163 0.70412 0.0
C1885 C 0.22158 0.29916 0.72124 0.0
C1886 C 0.1837 0.31223 0.68808 0.0
C1887 C 0.17153 0.38502 0.68235 0.0
H1888 H 0.14857 0.37663 0.60939 0.0
C1889 C 0.08924 0.4454 0.61154 0.0
C1890 C 0.09564 0.45389 0.58552 0.0
C1891 C 0.10661 0.42954 0.62973 0.0
C1892 C 0.15488 0.37947 0.62969 0.0
H1893 H 0.25053 0.33448 0.73586 0.0
H1894 H 0.22688 0.3708 0.70791 0.0
H1895 H 0.17554 0.34358 0.63699 0.0
H1896 H 0.12668 0.45408 0.55909 0.0
H1897 H 0.15648 0.42701 0.59036 0.0
H1898 H 0.15028 0.42078 0.67495 0.0
C1899 C 0.21834 0.34877 0.7066 0.0
C1900 C 0.17026 0.36034 0.64558 0.0
C1901 C 0.23209 0.32801 0.72239 0.0
C1902 C 0.12076 0.4477 0.5788 0.0
C1903 C 0.13787 0.43192 0.59675 0.0
C1904 C 0.15566 0.40401 0.66646 0.0
C1905 C 0.19393 0.34111 0.68918 0.0
C1906 C 0.17881 0.36274 0.67216 0.0
C1907 C 0.13064 0.42173 0.62223 0.0
C1908 C 0.14719 0.40156 0.63982 0.0
H1909 H 0.18807 0.2696 0.70317 0.0
H1910 H 0.16484 0.30546 0.6752 0.0
H1911 H 0.17753 0.38738 0.70278 0.0
H1912 H 0.06999 0.4495 0.6174 0.0
H1913 H 0.10038 0.42211 0.6492 0.0
C1914 C 0.73319 0.20594 0.67782 0.0
C1915 C 0.72414 0.22366 0.69225 0.0
C1916 C 0.71623 0.19663 0.65588 0.0
C1917 C 0.64189 0.18412 0.62671 0.0
H1918 H 0.67608 0.1719 0.56743 0.0
C1919 C 0.57562 0.12121 0.54838 0.0
C1920 C 0.58766 0.09803 0.54596 0.0
C1921 C 0.59216 0.14391 0.55995 0.0
C1922 C 0.66618 0.1754 0.58374 0.0
H1923 H 0.69023 0.24563 0.69501 0.0
H1924 H 0.66067 0.22985 0.65633 0.0
H1925 H 0.7053 0.19748 0.60109 0.0
H1926 H 0.62667 0.0814 0.55137 0.0
H1927 H 0.65555 0.121 0.57103 0.0
H1928 H 0.60302 0.16116 0.60984 0.0
C1929 C 0.68085 0.22295 0.6621 0.0
C1930 C 0.68293 0.18989 0.6031 0.0
C1931 C 0.69789 0.23223 0.6841 0.0
C1932 C 0.61691 0.09904 0.55306 0.0
C1933 C 0.63346 0.12181 0.56422 0.0
C1934 C 0.62512 0.16971 0.60729 0.0
C1935 C 0.68979 0.20494 0.64777 0.0
C1936 C 0.67119 0.19355 0.62528 0.0
C1937 C 0.62103 0.14391 0.56885 0.0
C1938 C 0.6373 0.16435 0.58607 0.0
H1939 H 0.7536 0.19958 0.68319 0.0
H1940 H 0.72365 0.18247 0.64557 0.0
H1941 H 0.63218 0.18638 0.64359 0.0
H1942 H 0.55305 0.1208 0.54324 0.0
H1943 H 0.58208 0.16079 0.5631 0.0
C1944 C 0.81848 0.34296 0.31277 0.0
C1945 C 0.8156 0.31357 0.31477 0.0
C1946 C 0.83649 0.35779 0.33109 0.0
C1947 C 0.87 0.34918 0.39882 0.0
H1948 H 0.91503 0.42236 0.37687 0.0
C1949 C 0.95632 0.40993 0.46737 0.0
C1950 C 0.9607 0.43958 0.46364 0.0
C1951 C 0.93634 0.39443 0.45076 0.0
C1952 C 0.90221 0.40219 0.38337 0.0
H1953 H 0.82954 0.2766 0.33726 0.0
H1954 H 0.86168 0.30262 0.36947 0.0
H1955 H 0.88729 0.39481 0.34408 0.0
H1956 H 0.94615 0.47613 0.44059 0.0
H1957 H 0.91084 0.44893 0.41163 0.0
H1958 H 0.88508 0.35658 0.43816 0.0
C1959 C 0.84974 0.31414 0.3537 0.0
C1960 C 0.88645 0.3863 0.36456 0.0
C1961 C 0.83169 0.29926 0.33513 0.0
C1962 C 0.94329 0.45332 0.44397 0.0
C1963 C 0.9233 0.43776 0.42721 0.0
C1964 C 0.8858 0.3651 0.41767 0.0
C1965 C 0.85212 0.34359 0.35196 0.0
C1966 C 0.87008 0.35965 0.37204 0.0
C1967 C 0.92023 0.40818 0.42996 0.0
C1968 C 0.90206 0.39182 0.41016 0.0
H1969 H 0.80651 0.35453 0.29709 0.0
H1970 H 0.83755 0.38036 0.32926 0.0
H1971 H 0.85727 0.32893 0.40523 0.0
H1972 H 0.96925 0.39867 0.48249 0.0
H1973 H 0.93465 0.37174 0.45341 0.0
C1974 C 0.66701 0.82645 0.36157 0.0
C1975 C 0.68258 0.80854 0.37908 0.0
C1976 C 0.65458 0.84611 0.37069 0.0
C1977 C 0.65659 0.88391 0.42776 0.0
H1978 H 0.57926 0.89008 0.39943 0.0
C1979 C 0.58637 0.94156 0.47528 0.0
C1980 C 0.56635 0.95542 0.45871 0.0
C1981 C 0.60242 0.9256 0.4652 0.0
C1982 C 0.60103 0.88908 0.40734 0.0
H1983 H 0.69824 0.79828 0.41988 0.0
H1984 H 0.67651 0.83227 0.43573 0.0
H1985 H 0.60378 0.85938 0.38224 0.0
H1986 H 0.54873 0.96446 0.41831 0.0
H1987 H 0.57705 0.93754 0.40079 0.0
H1988 H 0.65379 0.91362 0.45291 0.0
C1989 C 0.67386 0.83119 0.41493 0.0
C1990 C 0.61512 0.87135 0.39743 0.0
C1991 C 0.6861 0.81145 0.40584 0.0
C1992 C 0.56369 0.95385 0.43174 0.0
C1993 C 0.57983 0.93815 0.42168 0.0
C1994 C 0.64252 0.90179 0.4376 0.0
C1995 C 0.65759 0.84857 0.39755 0.0
C1996 C 0.64306 0.8684 0.40754 0.0
C1997 C 0.599 0.92324 0.43829 0.0
C1998 C 0.61447 0.9046 0.42759 0.0
H1999 H 0.66372 0.82474 0.34087 0.0
H2000 H 0.6425 0.85935 0.35667 0.0
H2001 H 0.67821 0.88245 0.43585 0.0
H2002 H 0.58887 0.94211 0.49617 0.0
H2003 H 0.61675 0.91431 0.47871 0.0
C2004 C 0.23279 0.71428 0.32405 0.0
C2005 C 0.22009 0.71881 0.29813 0.0
C2006 C 0.21726 0.69724 0.34363 0.0
C2007 C 0.14279 0.67143 0.35867 0.0
H2008 H 0.17481 0.61917 0.41331 0.0
C2009 C 0.08057 0.61625 0.44569 0.0
C2010 C 0.08095 0.58743 0.45396 0.0
C2011 C 0.09915 0.63227 0.42812 0.0
C2012 C 0.16547 0.63357 0.39813 0.0
H2013 H 0.18126 0.70945 0.27248 0.0
H2014 H 0.15434 0.67963 0.30632 0.0
H2015 H 0.20395 0.64603 0.37944 0.0
H2016 H 0.10221 0.55327 0.4507 0.0
H2017 H 0.13432 0.58109 0.41987 0.0
H2018 H 0.10425 0.65879 0.37682 0.0
C2019 C 0.17618 0.68917 0.31171 0.0
C2020 C 0.1823 0.64919 0.37883 0.0
C2021 C 0.19165 0.7061 0.29224 0.0
C2022 C 0.10114 0.57535 0.44475 0.0
C2023 C 0.11975 0.59139 0.42713 0.0
C2024 C 0.12606 0.65596 0.37792 0.0
C2025 C 0.18858 0.68478 0.33778 0.0
C2026 C 0.17111 0.66825 0.35874 0.0
C2027 C 0.11872 0.62001 0.41822 0.0
C2028 C 0.13708 0.63675 0.39796 0.0
H2029 H 0.25446 0.7244 0.3293 0.0
H2030 H 0.22747 0.69458 0.3635 0.0
H2031 H 0.13348 0.68614 0.34376 0.0
H2032 H 0.06551 0.62643 0.4524 0.0
H2033 H 0.09804 0.65434 0.42217 0.0
C2034 C 0.29758 0.18519 0.32623 0.0
C2035 C 0.30804 0.20633 0.30644 0.0
C2036 C 0.31603 0.17225 0.34537 0.0
C2037 C 0.39307 0.17394 0.37291 0.0
H2038 H 0.36421 0.09486 0.3946 0.0
C2039 C 0.45808 0.10052 0.44971 0.0
C2040 C 0.45478 0.07222 0.44545 0.0
C2041 C 0.441 0.11888 0.43434 0.0
C2042 C 0.37297 0.11683 0.3887 0.0
H2043 H 0.34646 0.23056 0.29132 0.0
H2044 H 0.37897 0.2073 0.32425 0.0
H2045 H 0.33446 0.12284 0.36497 0.0
H2046 H 0.43079 0.04178 0.42079 0.0
H2047 H 0.40231 0.07318 0.39438 0.0
H2048 H 0.4323 0.16709 0.39596 0.0
C2049 C 0.35634 0.20122 0.32555 0.0
C2050 C 0.35549 0.13325 0.37186 0.0
C2051 C 0.3377 0.21465 0.30657 0.0
C2052 C 0.43404 0.06313 0.42526 0.0
C2053 C 0.41731 0.08133 0.40997 0.0
C2054 C 0.4108 0.15731 0.38971 0.0
C2055 C 0.34578 0.17919 0.34493 0.0
C2056 C 0.36506 0.16215 0.36354 0.0
C2057 C 0.42015 0.10949 0.41424 0.0
C2058 C 0.40113 0.1283 0.39768 0.0
H2059 H 0.27486 0.17824 0.32664 0.0
H2060 H 0.30672 0.15626 0.36026 0.0
H2061 H 0.40137 0.19609 0.36733 0.0
H2062 H 0.47383 0.10851 0.46488 0.0
H2063 H 0.44391 0.14033 0.43846 0.0
C2064 C 0.74626 0.82203 0.69067 0.0
C2065 C 0.73665 0.80185 0.71151 0.0
C2066 C 0.72719 0.83483 0.67212 0.0
C2067 C 0.64958 0.83479 0.64827 0.0
H2068 H 0.67923 0.91346 0.62546 0.0
C2069 C 0.58372 0.90917 0.57364 0.0
C2070 C 0.5877 0.93752 0.57798 0.0
C2071 C 0.60088 0.89057 0.58843 0.0
C2072 C 0.67027 0.89162 0.63169 0.0
H2073 H 0.69911 0.779 0.72903 0.0
H2074 H 0.6655 0.80194 0.69694 0.0
H2075 H 0.70948 0.88487 0.65377 0.0
H2076 H 0.61308 0.96782 0.60206 0.0
H2077 H 0.64187 0.93598 0.62748 0.0
H2078 H 0.60978 0.84236 0.62681 0.0
C2079 C 0.68791 0.80739 0.69446 0.0
C2080 C 0.688 0.87485 0.64775 0.0
C2081 C 0.70716 0.7941 0.71291 0.0
C2082 C 0.60926 0.94642 0.59762 0.0
C2083 C 0.62613 0.92798 0.61231 0.0
C2084 C 0.63165 0.85176 0.63219 0.0
C2085 C 0.69772 0.82871 0.67419 0.0
C2086 C 0.67813 0.84609 0.65643 0.0
C2087 C 0.62253 0.89974 0.60797 0.0
C2088 C 0.64164 0.88061 0.62384 0.0
H2089 H 0.76884 0.82854 0.68909 0.0
H2090 H 0.73584 0.85023 0.65648 0.0
H2091 H 0.64103 0.81277 0.65423 0.0
H2092 H 0.56735 0.90133 0.55886 0.0
H2093 H 0.59739 0.86909 0.58427 0.0
C2094 C 0.72113 0.21101 0.32326 0.0
C2095 C 0.71029 0.21743 0.29702 0.0
C2096 C 0.70402 0.19326 0.34119 0.0
C2097 C 0.64195 0.13566 0.34425 0.0
H2098 H 0.63923 0.1531 0.41368 0.0
C2099 C 0.5597 0.06958 0.41071 0.0
C2100 C 0.56692 0.06488 0.43798 0.0
C2101 C 0.57797 0.08814 0.39443 0.0
C2102 C 0.64003 0.14763 0.39453 0.0
H2103 H 0.67379 0.20923 0.26846 0.0
H2104 H 0.6436 0.17848 0.29977 0.0
H2105 H 0.66911 0.18597 0.38359 0.0
H2106 H 0.59955 0.07625 0.46935 0.0
H2107 H 0.63191 0.10824 0.44079 0.0
H2108 H 0.61348 0.09722 0.35504 0.0
C2109 C 0.66519 0.18741 0.30666 0.0
C2110 C 0.6571 0.16659 0.37723 0.0
C2111 C 0.68232 0.20518 0.28879 0.0
C2112 C 0.59323 0.07926 0.44847 0.0
C2113 C 0.61171 0.09782 0.43206 0.0
C2114 C 0.62515 0.11663 0.36156 0.0
C2115 C 0.67587 0.18108 0.33308 0.0
C2116 C 0.65805 0.16094 0.35177 0.0
C2117 C 0.60432 0.10255 0.40475 0.0
C2118 C 0.62362 0.12241 0.38689 0.0
H2119 H 0.74305 0.2193 0.32979 0.0
H2120 H 0.7131 0.18845 0.36123 0.0
H2121 H 0.64262 0.13034 0.32499 0.0
H2122 H 0.53957 0.0592 0.40177 0.0
H2123 H 0.57106 0.09156 0.37368 0.0
C2124 C 0.82457 0.69599 0.30191 0.0
C2125 C 0.83627 0.72464 0.30299 0.0
C2126 C 0.8378 0.67462 0.31728 0.0
C2127 C 0.88643 0.66064 0.37722 0.0
H2128 H 0.90519 0.60123 0.34546 0.0
C2129 C 0.93462 0.57059 0.44078 0.0
C2130 C 0.96005 0.56521 0.43393 0.0
C2131 C 0.9176 0.58688 0.42331 0.0
C2132 C 0.90013 0.61769 0.35461 0.0
H2133 H 0.87094 0.75318 0.32091 0.0
H2134 H 0.89323 0.71624 0.34825 0.0
H2135 H 0.87817 0.63564 0.31891 0.0
H2136 H 0.98633 0.57156 0.40226 0.0
H2137 H 0.956 0.59976 0.37121 0.0
H2138 H 0.90812 0.64294 0.41283 0.0
C2139 C 0.87397 0.71013 0.3356 0.0
C2140 C 0.88441 0.63725 0.33946 0.0
C2141 C 0.86117 0.73134 0.31993 0.0
C2142 C 0.96681 0.57497 0.40817 0.0
C2143 C 0.94949 0.59131 0.39044 0.0
C2144 C 0.90161 0.64089 0.39239 0.0
C2145 C 0.86277 0.68145 0.33428 0.0
C2146 C 0.87759 0.65918 0.35054 0.0
C2147 C 0.92521 0.59836 0.39818 0.0
C2148 C 0.90886 0.61918 0.38136 0.0
H2149 H 0.80573 0.69014 0.28867 0.0
H2150 H 0.8285 0.65276 0.31587 0.0
H2151 H 0.88155 0.67714 0.38645 0.0
H2152 H 0.92849 0.56328 0.46033 0.0
H2153 H 0.89881 0.59126 0.42984 0.0
C2154 C 0.33344 0.81696 0.32632 0.0
C2155 C 0.3237 0.78777 0.32744 0.0
C2156 C 0.34771 0.82833 0.34838 0.0
C2157 C 0.38838 0.81159 0.41219 0.0
H2158 H 0.37196 0.88306 0.42278 0.0
C2159 C 0.46614 0.89201 0.46913 0.0
C2160 C 0.45518 0.91212 0.479 0.0
C2161 C 0.44771 0.87072 0.45707 0.0
C2162 C 0.37651 0.8628 0.42066 0.0
H2163 H 0.32131 0.74758 0.35275 0.0
H2164 H 0.34636 0.76759 0.39141 0.0
H2165 H 0.34415 0.85834 0.38853 0.0
H2166 H 0.41693 0.92442 0.48673 0.0
H2167 H 0.38466 0.88631 0.46721 0.0
H2168 H 0.42089 0.81621 0.44446 0.0
C2169 C 0.34314 0.78158 0.3733 0.0
C2170 C 0.3608 0.84885 0.40062 0.0
C2171 C 0.3288 0.77014 0.35114 0.0
C2172 C 0.42574 0.90907 0.47915 0.0
C2173 C 0.40734 0.88745 0.46767 0.0
C2174 C 0.4041 0.82555 0.43245 0.0
C2175 C 0.35248 0.81085 0.3722 0.0
C2176 C 0.36708 0.82355 0.39561 0.0
C2177 C 0.41804 0.8691 0.45503 0.0
C2178 C 0.3988 0.8517 0.43653 0.0
H2179 H 0.33011 0.83117 0.30839 0.0
H2180 H 0.35518 0.85091 0.34669 0.0
H2181 H 0.3937 0.79208 0.40884 0.0
H2182 H 0.48884 0.89429 0.46855 0.0
H2183 H 0.4568 0.85713 0.44749 0.0
C2184 C 0.23798 0.4137 0.34684 0.0
C2185 C 0.23331 0.3844 0.3466 0.0
C2186 C 0.2171 0.42642 0.35378 0.0
C2187 C 0.14004 0.41343 0.36391 0.0
H2188 H 0.16466 0.47271 0.40761 0.0
C2189 C 0.06965 0.44097 0.4328 0.0
C2190 C 0.0718 0.46916 0.43644 0.0
C2191 C 0.08687 0.43367 0.41657 0.0
C2192 C 0.1574 0.45656 0.395 0.0
H2193 H 0.20291 0.34553 0.35343 0.0
H2194 H 0.16676 0.36749 0.36601 0.0
H2195 H 0.19994 0.45365 0.39028 0.0
H2196 H 0.09294 0.51205 0.42537 0.0
H2197 H 0.12365 0.49929 0.39699 0.0
H2198 H 0.09749 0.41561 0.36968 0.0
C2199 C 0.18628 0.38087 0.36026 0.0
C2200 C 0.17766 0.44556 0.38503 0.0
C2201 C 0.20708 0.36819 0.35312 0.0
C2202 C 0.09067 0.49021 0.42261 0.0
C2203 C 0.10838 0.48285 0.40662 0.0
C2204 C 0.11981 0.42428 0.37405 0.0
C2205 C 0.19103 0.41017 0.36086 0.0
C2206 C 0.16932 0.42346 0.36972 0.0
C2207 C 0.10709 0.45438 0.40391 0.0
C2208 C 0.12825 0.44564 0.39011 0.0
H2209 H 0.25778 0.42688 0.34152 0.0
H2210 H 0.22143 0.44907 0.3535 0.0
H2211 H 0.13269 0.39692 0.35172 0.0
H2212 H 0.05542 0.42434 0.44348 0.0
H2213 H 0.08549 0.41156 0.41519 0.0
C2214 C 0.38026 0.19006 0.65822 0.0
C2215 C 0.35635 0.19952 0.64366 0.0
C2216 C 0.393 0.17041 0.64938 0.0
C2217 C 0.40008 0.14366 0.58843 0.0
H2218 H 0.43006 0.08404 0.63562 0.0
C2219 C 0.45244 0.06317 0.55008 0.0
C2220 C 0.47681 0.05536 0.56524 0.0
C2221 C 0.43561 0.07857 0.5599 0.0
C2222 C 0.42211 0.10074 0.62213 0.0
H2223 H 0.32618 0.19414 0.6091 0.0
H2224 H 0.34842 0.16029 0.59374 0.0
H2225 H 0.40542 0.11495 0.65264 0.0
H2226 H 0.50206 0.05741 0.60299 0.0
H2227 H 0.47336 0.08434 0.61967 0.0
H2228 H 0.41726 0.12997 0.55801 0.0
C2229 C 0.35774 0.16848 0.6117 0.0
C2230 C 0.4079 0.11848 0.63195 0.0
C2231 C 0.34496 0.18795 0.62057 0.0
C2232 C 0.48346 0.06287 0.59064 0.0
C2233 C 0.46677 0.07827 0.60037 0.0
C2234 C 0.41445 0.12604 0.57863 0.0
C2235 C 0.38221 0.15975 0.62573 0.0
C2236 C 0.3968 0.14029 0.61527 0.0
C2237 C 0.44271 0.08662 0.58513 0.0
C2238 C 0.42588 0.10441 0.59534 0.0
H2239 H 0.3898 0.1986 0.67594 0.0
H2240 H 0.41192 0.16432 0.66065 0.0
H2241 H 0.39218 0.16045 0.57501 0.0
H2242 H 0.4466 0.05782 0.53045 0.0
H2243 H 0.41704 0.08422 0.54765 0.0
C2244 C 0.81266 0.2959 0.67846 0.0
C2245 C 0.82216 0.28946 0.70506 0.0
C2246 C 0.83027 0.31478 0.66161 0.0
C2247 C 0.90649 0.34317 0.65488 0.0
H2248 H 0.87791 0.39744 0.59996 0.0
C2249 C 0.95338 0.44272 0.57367 0.0
C2250 C 0.97433 0.43107 0.56516 0.0
C2251 C 0.93392 0.42613 0.59024 0.0
C2252 C 0.88632 0.38254 0.61529 0.0
H2253 H 0.85792 0.29617 0.73464 0.0
H2254 H 0.88866 0.3293 0.70548 0.0
H2255 H 0.8459 0.36826 0.63039 0.0
H2256 H 0.99044 0.39237 0.567 0.0
H2257 H 0.9565 0.36359 0.59542 0.0
H2258 H 0.9469 0.35755 0.64017 0.0
C2259 C 0.86751 0.32022 0.69755 0.0
C2260 C 0.86786 0.36558 0.6326 0.0
C2261 C 0.84981 0.30156 0.71438 0.0
C2262 C 0.9748 0.40223 0.57321 0.0
C2263 C 0.9554 0.38569 0.58974 0.0
C2264 C 0.92486 0.36001 0.63758 0.0
C2265 C 0.8581 0.32698 0.67086 0.0
C2266 C 0.87769 0.3456 0.65262 0.0
C2267 C 0.93487 0.39743 0.59878 0.0
C2268 C 0.91507 0.37985 0.61742 0.0
H2269 H 0.79169 0.28612 0.6707 0.0
H2270 H 0.82241 0.31908 0.64115 0.0
H2271 H 0.91483 0.32785 0.66981 0.0
H2272 H 0.95226 0.4648 0.56787 0.0
H2273 H 0.9186 0.43602 0.59689 0.0
C2274 C 0.19372 0.71987 0.69524 0.0
C2275 C 0.22339 0.72726 0.69575 0.0
C2276 C 0.17795 0.70397 0.67639 0.0
C2277 C 0.17907 0.6768 0.61422 0.0
H2278 H 0.13064 0.61109 0.64735 0.0
C2279 C 0.11878 0.58476 0.55797 0.0
C2280 C 0.08999 0.57689 0.56209 0.0
C2281 C 0.13746 0.60239 0.57408 0.0
C2282 C 0.14395 0.62937 0.63774 0.0
H2283 H 0.25869 0.72999 0.67359 0.0
H2284 H 0.2315 0.70137 0.64104 0.0
H2285 H 0.15643 0.64702 0.67336 0.0
H2286 H 0.05818 0.58012 0.58636 0.0
H2287 H 0.09039 0.6103 0.61434 0.0
H2288 H 0.1661 0.65912 0.57843 0.0
C2289 C 0.22053 0.7066 0.65583 0.0
C2290 C 0.15859 0.65006 0.65262 0.0
C2291 C 0.23623 0.72242 0.67476 0.0
C2292 C 0.0804 0.58579 0.58297 0.0
C2293 C 0.0989 0.60302 0.59905 0.0
C2294 C 0.16421 0.65607 0.59921 0.0
C2295 C 0.19149 0.69583 0.65738 0.0
C2296 C 0.17597 0.67423 0.641 0.0
C2297 C 0.12754 0.61199 0.59459 0.0
C2298 C 0.14612 0.63233 0.61077 0.0
H2299 H 0.18278 0.72476 0.71014 0.0
H2300 H 0.15532 0.69696 0.67738 0.0
H2301 H 0.19242 0.69514 0.60476 0.0
H2302 H 0.12647 0.57837 0.54173 0.0
H2303 H 0.15948 0.60885 0.57027 0.0
loop_
_geom_bond_atom_site_label_1
_geom_bond_atom_site_label_2
_geom_bond_distance
_geom_bond_site_symmetry_2
_ccdc_geom_bond_type
Eu0 N31 2.657 . S
Eu0 N38 2.609 . S
Eu0 O44 2.558 . S
Eu0 O45 2.612 . S
Eu0 O47 2.339 . S
Eu0 O48 2.563 . S
Eu0 O49 2.419 . S
Eu0 O51 2.380 . S
Eu0 O52 2.432 . S
Eu0 C64 2.848 . S
C1 C4 1.429 . S
C1 C5 1.411 . S
C1 N8 1.377 . S
C2 C4 1.420 . S
C2 C6 1.423 . S
C2 C14 1.392 . S
C3 C5 1.420 . S
C3 C6 1.351 . S
C3 H26 0.931 . S
C4 C1 1.429 . S
C4 C2 1.420 . S
C4 N12 1.362 . S
C5 C1 1.411 . S
C5 C3 1.420 . S
C5 C10 1.395 . S
C6 C2 1.423 . S
C6 C3 1.351 . S
C6 H18 0.930 . S
C7 C9 1.400 . S
C7 C10 1.386 . S
C7 H19 0.930 . S
N8 C1 1.377 . S
N8 C9 1.321 . S
N8 Eu11 2.609 . S
C9 C7 1.400 . S
C9 N8 1.321 . S
C9 H16 0.930 . S
C10 C5 1.395 . S
C10 C7 1.386 . S
C10 H29 0.930 . S
Eu11 N8 2.609 . S
Eu11 N12 2.657 . S
Eu11 O45 2.380 . S
Eu11 O46 2.432 . S
Eu11 O50 2.558 . S
Eu11 O51 2.612 . S
Eu11 O53 2.339 . S
Eu11 O54 2.563 . S
Eu11 O55 2.419 . S
Eu11 C75 2.848 . S
N12 C4 1.362 . S
N12 Eu11 2.657 . S
N12 C13 1.334 . S
C13 N12 1.334 . S
C13 C15 1.413 . S
C13 H20 0.929 . S
C14 C2 1.392 . S
C14 C15 1.367 . S
C14 H22 0.930 . S
C15 C13 1.413 . S
C15 C14 1.367 . S
C15 H17 0.930 . S
H16 C9 0.930 . S
H17 C15 0.930 . S
H18 C6 0.930 . S
H19 C7 0.930 . S
H20 C13 0.929 . S
H21 C35 0.930 . S
H22 C14 0.930 . S
H23 C41 0.930 . S
H24 C32 0.929 . S
H25 C39 0.930 . S
H26 C3 0.931 . S
H27 C33 0.930 . S
H28 C66 0.930 . S
H29 C10 0.930 . S
H30 C65 0.931 . S
N31 Eu0 2.657 . S
N31 C32 1.334 . S
N31 C36 1.362 . S
C32 H24 0.929 . S
C32 N31 1.334 . S
C32 C35 1.413 . S
C33 H27 0.930 . S
C33 C34 1.392 . S
C33 C35 1.367 . S
C34 C33 1.392 . S
C34 C36 1.420 . S
C34 C66 1.423 . S
C35 H21 0.930 . S
C35 C32 1.413 . S
C35 C33 1.367 . S
C36 N31 1.362 . S
C36 C34 1.420 . S
C36 C40 1.429 . S
H37 C42 0.930 . S
N38 Eu0 2.609 . S
N38 C40 1.377 . S
N38 C41 1.321 . S
C39 H25 0.930 . S
C39 C41 1.400 . S
C39 C42 1.386 . S
C40 C36 1.429 . S
C40 N38 1.377 . S
C40 C43 1.411 . S
C41 H23 0.930 . S
C41 N38 1.321 . S
C41 C39 1.400 . S
C42 H37 0.930 . S
C42 C39 1.386 . S
C42 C43 1.395 . S
C43 C40 1.411 . S
C43 C42 1.395 . S
C43 C65 1.420 . S
O44 Eu0 2.558 . S
O44 C64 1.257 . S
O45 Eu0 2.612 . S
O45 Eu11 2.380 . S
O45 C56 1.276 . S
O46 Eu11 2.432 . S
O46 C63 1.264 . S
O47 Eu0 2.339 . S
O47 C63 1.254 . S
O48 Eu0 2.563 . S
O48 C56 1.235 . S
O49 Eu0 2.419 . S
O49 C64 1.249 . S
O50 Eu11 2.558 . S
O50 C75 1.257 . S
O51 Eu0 2.380 . S
O51 Eu11 2.612 . S
O51 C67 1.276 . S
O52 Eu0 2.432 . S
O52 C74 1.264 . S
O53 Eu11 2.339 . S
O53 C74 1.254 . S
O54 Eu11 2.563 . S
O54 C67 1.235 . S
O55 Eu11 2.419 . S
O55 C75 1.249 . S
C56 O45 1.276 . S
C56 O48 1.235 . S
C57 C59 1.393 . S
C57 C61 1.395 . S
C57 C64 1.492 . S
C58 C59 1.392 . S
C58 C60 1.386 . S
C59 C57 1.393 . S
C59 C58 1.392 . S
C59 H76 0.930 . S
C60 C58 1.386 . S
C60 C62 1.395 . S
C60 H77 0.930 . S
C61 C57 1.395 . S
C61 C62 1.379 . S
C61 H78 0.930 . S
C62 C60 1.395 . S
C62 C61 1.379 . S
C62 H79 0.930 . S
C63 O46 1.264 . S
C63 O47 1.254 . S
C64 Eu0 2.848 . S
C64 O44 1.257 . S
C64 O49 1.249 . S
C64 C57 1.492 . S
C65 H30 0.931 . S
C65 C43 1.420 . S
C65 C66 1.351 . S
C66 H28 0.930 . S
C66 C34 1.423 . S
C66 C65 1.351 . S
C67 O51 1.276 . S
C67 O54 1.235 . S
C68 C69 1.393 . S
C68 C72 1.395 . S
C68 C75 1.492 . S
C69 C68 1.393 . S
C69 C70 1.392 . S
C69 H80 0.930 . S
C70 C69 1.392 . S
C70 C71 1.386 . S
C71 C70 1.386 . S
C71 C73 1.395 . S
C71 H81 0.930 . S
C72 C68 1.395 . S
C72 C73 1.379 . S
C72 H82 0.930 . S
C73 C71 1.395 . S
C73 C72 1.379 . S
C73 H83 0.930 . S
C74 O52 1.264 . S
C74 O53 1.254 . S
C75 Eu11 2.848 . S
C75 O50 1.257 . S
C75 O55 1.249 . S
C75 C68 1.492 . S
H76 C59 0.930 . S
H77 C60 0.930 . S
H78 C61 0.930 . S
H79 C62 0.930 . S
H80 C69 0.930 . S
H81 C71 0.930 . S
H82 C72 0.930 . S
H83 C73 0.930 . S
Eu84 N115 2.657 . S
Eu84 N122 2.609 . S
Eu84 O128 2.558 . S
Eu84 O129 2.612 . S
Eu84 O131 2.339 . S
Eu84 O132 2.563 . S
Eu84 O133 2.419 . S
Eu84 O135 2.380 . S
Eu84 O136 2.432 . S
Eu84 C148 2.848 . S
C85 C88 1.429 . S
C85 C89 1.411 . S
C85 N92 1.377 . S
C86 C88 1.420 . S
C86 C90 1.423 . S
C86 C98 1.392 . S
C87 C89 1.420 . S
C87 C90 1.351 . S
C87 H110 0.931 . S
C88 C85 1.429 . S
C88 C86 1.420 . S
C88 N96 1.362 . S
C89 C85 1.411 . S
C89 C87 1.420 . S
C89 C94 1.395 . S
C90 C86 1.423 . S
C90 C87 1.351 . S
C90 H102 0.930 . S
C91 C93 1.400 . S
C91 C94 1.386 . S
C91 H103 0.930 . S
N92 C85 1.377 . S
N92 C93 1.321 . S
N92 Eu95 2.609 . S
C93 C91 1.400 . S
C93 N92 1.321 . S
C93 H100 0.930 . S
C94 C89 1.395 . S
C94 C91 1.386 . S
C94 H113 0.930 . S
Eu95 N92 2.609 . S
Eu95 N96 2.657 . S
Eu95 O129 2.380 . S
Eu95 O130 2.432 . S
Eu95 O134 2.558 . S
Eu95 O135 2.612 . S
Eu95 O137 2.339 . S
Eu95 O138 2.563 . S
Eu95 O139 2.419 . S
Eu95 C159 2.848 . S
N96 C88 1.362 . S
N96 Eu95 2.657 . S
N96 C97 1.334 . S
C97 N96 1.334 . S
C97 C99 1.413 . S
C97 H104 0.929 . S
C98 C86 1.392 . S
C98 C99 1.367 . S
C98 H106 0.930 . S
C99 C97 1.413 . S
C99 C98 1.367 . S
C99 H101 0.930 . S
H100 C93 0.930 . S
H101 C99 0.930 . S
H102 C90 0.930 . S
H103 C91 0.930 . S
H104 C97 0.929 . S
H105 C119 0.930 . S
H106 C98 0.930 . S
H107 C125 0.930 . S
H108 C116 0.929 . S
H109 C123 0.930 . S
H110 C87 0.931 . S
H111 C117 0.930 . S
H112 C150 0.930 . S
H113 C94 0.930 . S
H114 C149 0.931 . S
N115 Eu84 2.657 . S
N115 C116 1.334 . S
N115 C120 1.362 . S
C116 H108 0.929 . S
C116 N115 1.334 . S
C116 C119 1.413 . S
C117 H111 0.930 . S
C117 C118 1.392 . S
C117 C119 1.367 . S
C118 C117 1.392 . S
C118 C120 1.420 . S
C118 C150 1.423 . S
C119 H105 0.930 . S
C119 C116 1.413 . S
C119 C117 1.367 . S
C120 N115 1.362 . S
C120 C118 1.420 . S
C120 C124 1.429 . S
H121 C126 0.930 . S
N122 Eu84 2.609 . S
N122 C124 1.377 . S
N122 C125 1.321 . S
C123 H109 0.930 . S
C123 C125 1.400 . S
C123 C126 1.386 . S
C124 C120 1.429 . S
C124 N122 1.377 . S
C124 C127 1.411 . S
C125 H107 0.930 . S
C125 N122 1.321 . S
C125 C123 1.400 . S
C126 H121 0.930 . S
C126 C123 1.386 . S
C126 C127 1.395 . S
C127 C124 1.411 . S
C127 C126 1.395 . S
C127 C149 1.420 . S
O128 Eu84 2.558 . S
O128 C148 1.257 . S
O129 Eu84 2.612 . S
O129 Eu95 2.380 . S
O129 C140 1.276 . S
O130 Eu95 2.432 . S
O130 C147 1.264 . S
O131 Eu84 2.339 . S
O131 C147 1.254 . S
O132 Eu84 2.563 . S
O132 C140 1.235 . S
O133 Eu84 2.419 . S
O133 C148 1.249 . S
O134 Eu95 2.558 . S
O134 C159 1.257 . S
O135 Eu84 2.380 . S
O135 Eu95 2.612 . S
O135 C151 1.276 . S
O136 Eu84 2.432 . S
O136 C158 1.264 . S
O137 Eu95 2.339 . S
O137 C158 1.254 . S
O138 Eu95 2.563 . S
O138 C151 1.235 . S
O139 Eu95 2.419 . S
O139 C159 1.249 . S
C140 O129 1.276 . S
C140 O132 1.235 . S
C141 C143 1.393 . S
C141 C145 1.395 . S
C141 C148 1.492 . S
C142 C143 1.392 . S
C142 C144 1.386 . S
C143 C141 1.393 . S
C143 C142 1.392 . S
C143 H160 0.930 . S
C144 C142 1.386 . S
C144 C146 1.395 . S
C144 H161 0.930 . S
C145 C141 1.395 . S
C145 C146 1.379 . S
C145 H162 0.930 . S
C146 C144 1.395 . S
C146 C145 1.379 . S
C146 H163 0.930 . S
C147 O130 1.264 . S
C147 O131 1.254 . S
C148 Eu84 2.848 . S
C148 O128 1.257 . S
C148 O133 1.249 . S
C148 C141 1.492 . S
C149 H114 0.931 . S
C149 C127 1.420 . S
C149 C150 1.351 . S
C150 H112 0.930 . S
C150 C118 1.423 . S
C150 C149 1.351 . S
C151 O135 1.276 . S
C151 O138 1.235 . S
C152 C153 1.393 . S
C152 C156 1.395 . S
C152 C159 1.492 . S
C153 C152 1.393 . S
C153 C154 1.392 . S
C153 H164 0.930 . S
C154 C153 1.392 . S
C154 C155 1.386 . S
C155 C154 1.386 . S
C155 C157 1.395 . S
C155 H165 0.930 . S
C156 C152 1.395 . S
C156 C157 1.379 . S
C156 H166 0.930 . S
C157 C155 1.395 . S
C157 C156 1.379 . S
C157 H167 0.930 . S
C158 O136 1.264 . S
C158 O137 1.254 . S
C159 Eu95 2.848 . S
C159 O134 1.257 . S
C159 O139 1.249 . S
C159 C152 1.492 . S
H160 C143 0.930 . S
H161 C144 0.930 . S
H162 C145 0.930 . S
H163 C146 0.930 . S
H164 C153 0.930 . S
H165 C155 0.930 . S
H166 C156 0.930 . S
H167 C157 0.930 . S
Eu168 N199 2.657 . S
Eu168 N206 2.609 . S
Eu168 O212 2.558 . S
Eu168 O213 2.612 . S
Eu168 O215 2.339 . S
Eu168 O216 2.563 . S
Eu168 O217 2.419 . S
Eu168 O219 2.380 . S
Eu168 O220 2.432 . S
Eu168 C232 2.848 . S
C169 C172 1.429 . S
C169 C173 1.411 . S
C169 N176 1.377 . S
C170 C172 1.420 . S
C170 C174 1.423 . S
C170 C182 1.392 . S
C171 C173 1.420 . S
C171 C174 1.351 . S
C171 H194 0.931 . S
C172 C169 1.429 . S
C172 C170 1.420 . S
C172 N180 1.362 . S
C173 C169 1.411 . S
C173 C171 1.420 . S
C173 C178 1.395 . S
C174 C170 1.423 . S
C174 C171 1.351 . S
C174 H186 0.930 . S
C175 C177 1.400 . S
C175 C178 1.386 . S
C175 H187 0.930 . S
N176 C169 1.377 . S
N176 C177 1.321 . S
N176 Eu179 2.609 . S
C177 C175 1.400 . S
C177 N176 1.321 . S
C177 H184 0.930 . S
C178 C173 1.395 . S
C178 C175 1.386 . S
C178 H197 0.930 . S
Eu179 N176 2.609 . S
Eu179 N180 2.657 . S
Eu179 O213 2.380 . S
Eu179 O214 2.432 . S
Eu179 O218 2.558 . S
Eu179 O219 2.612 . S
Eu179 O221 2.339 . S
Eu179 O222 2.563 . S
Eu179 O223 2.419 . S
Eu179 C243 2.848 . S
N180 C172 1.362 . S
N180 Eu179 2.657 . S
N180 C181 1.334 . S
C181 N180 1.334 . S
C181 C183 1.413 . S
C181 H188 0.929 . S
C182 C170 1.392 . S
C182 C183 1.367 . S
C182 H190 0.930 . S
C183 C181 1.413 . S
C183 C182 1.367 . S
C183 H185 0.930 . S
H184 C177 0.930 . S
H185 C183 0.930 . S
H186 C174 0.930 . S
H187 C175 0.930 . S
H188 C181 0.929 . S
H189 C203 0.930 . S
H190 C182 0.930 . S
H191 C209 0.930 . S
H192 C200 0.929 . S
H193 C207 0.930 . S
H194 C171 0.931 . S
H195 C201 0.930 . S
H196 C234 0.930 . S
H197 C178 0.930 . S
H198 C233 0.931 . S
N199 Eu168 2.657 . S
N199 C200 1.334 . S
N199 C204 1.362 . S
C200 H192 0.929 . S
C200 N199 1.334 . S
C200 C203 1.413 . S
C201 H195 0.930 . S
C201 C202 1.392 . S
C201 C203 1.367 . S
C202 C201 1.392 . S
C202 C204 1.420 . S
C202 C234 1.423 . S
C203 H189 0.930 . S
C203 C200 1.413 . S
C203 C201 1.367 . S
C204 N199 1.362 . S
C204 C202 1.420 . S
C204 C208 1.429 . S
H205 C210 0.930 . S
N206 Eu168 2.609 . S
N206 C208 1.377 . S
N206 C209 1.321 . S
C207 H193 0.930 . S
C207 C209 1.400 . S
C207 C210 1.386 . S
C208 C204 1.429 . S
C208 N206 1.377 . S
C208 C211 1.411 . S
C209 H191 0.930 . S
C209 N206 1.321 . S
C209 C207 1.400 . S
C210 H205 0.930 . S
C210 C207 1.386 . S
C210 C211 1.395 . S
C211 C208 1.411 . S
C211 C210 1.395 . S
C211 C233 1.420 . S
O212 Eu168 2.558 . S
O212 C232 1.257 . S
O213 Eu168 2.612 . S
O213 Eu179 2.380 . S
O213 C224 1.276 . S
O214 Eu179 2.432 . S
O214 C231 1.264 . S
O215 Eu168 2.339 . S
O215 C231 1.254 . S
O216 Eu168 2.563 . S
O216 C224 1.235 . S
O217 Eu168 2.419 . S
O217 C232 1.249 . S
O218 Eu179 2.558 . S
O218 C243 1.257 . S
O219 Eu168 2.380 . S
O219 Eu179 2.612 . S
O219 C235 1.276 . S
O220 Eu168 2.432 . S
O220 C242 1.264 . S
O221 Eu179 2.339 . S
O221 C242 1.254 . S
O222 Eu179 2.563 . S
O222 C235 1.235 . S
O223 Eu179 2.419 . S
O223 C243 1.249 . S
C224 O213 1.276 . S
C224 O216 1.235 . S
C225 C227 1.393 . S
C225 C229 1.395 . S
C225 C232 1.492 . S
C226 C227 1.392 . S
C226 C228 1.386 . S
C227 C225 1.393 . S
C227 C226 1.392 . S
C227 H244 0.930 . S
C228 C226 1.386 . S
C228 C230 1.395 . S
C228 H245 0.930 . S
C229 C225 1.395 . S
C229 C230 1.379 . S
C229 H246 0.930 . S
C230 C228 1.395 . S
C230 C229 1.379 . S
C230 H247 0.930 . S
C231 O214 1.264 . S
C231 O215 1.254 . S
C232 Eu168 2.848 . S
C232 O212 1.257 . S
C232 O217 1.249 . S
C232 C225 1.492 . S
C233 H198 0.931 . S
C233 C211 1.420 . S
C233 C234 1.351 . S
C234 H196 0.930 . S
C234 C202 1.423 . S
C234 C233 1.351 . S
C235 O219 1.276 . S
C235 O222 1.235 . S
C236 C237 1.393 . S
C236 C240 1.395 . S
C236 C243 1.492 . S
C237 C236 1.393 . S
C237 C238 1.392 . S
C237 H248 0.930 . S
C238 C237 1.392 . S
C238 C239 1.386 . S
C239 C238 1.386 . S
C239 C241 1.395 . S
C239 H249 0.930 . S
C240 C236 1.395 . S
C240 C241 1.379 . S
C240 H250 0.930 . S
C241 C239 1.395 . S
C241 C240 1.379 . S
C241 H251 0.930 . S
C242 O220 1.264 . S
C242 O221 1.254 . S
C243 Eu179 2.848 . S
C243 O218 1.257 . S
C243 O223 1.249 . S
C243 C236 1.492 . S
H244 C227 0.930 . S
H245 C228 0.930 . S
H246 C229 0.930 . S
H247 C230 0.930 . S
H248 C237 0.930 . S
H249 C239 0.930 . S
H250 C240 0.930 . S
H251 C241 0.930 . S
Eu252 N283 2.657 . S
Eu252 N290 2.609 . S
Eu252 O296 2.558 . S
Eu252 O297 2.612 . S
Eu252 O299 2.339 . S
Eu252 O300 2.563 . S
Eu252 O301 2.419 . S
Eu252 O303 2.380 . S
Eu252 O304 2.432 . S
Eu252 C316 2.848 . S
C253 C256 1.429 . S
C253 C257 1.411 . S
C253 N260 1.377 . S
C254 C256 1.420 . S
C254 C258 1.423 . S
C254 C266 1.392 . S
C255 C257 1.420 . S
C255 C258 1.351 . S
C255 H278 0.931 . S
C256 C253 1.429 . S
C256 C254 1.420 . S
C256 N264 1.362 . S
C257 C253 1.411 . S
C257 C255 1.420 . S
C257 C262 1.395 . S
C258 C254 1.423 . S
C258 C255 1.351 . S
C258 H270 0.930 . S
C259 C261 1.400 . S
C259 C262 1.386 . S
C259 H271 0.930 . S
N260 C253 1.377 . S
N260 C261 1.321 . S
N260 Eu263 2.609 . S
C261 C259 1.400 . S
C261 N260 1.321 . S
C261 H268 0.930 . S
C262 C257 1.395 . S
C262 C259 1.386 . S
C262 H281 0.930 . S
Eu263 N260 2.609 . S
Eu263 N264 2.657 . S
Eu263 O297 2.380 . S
Eu263 O298 2.432 . S
Eu263 O302 2.558 . S
Eu263 O303 2.612 . S
Eu263 O305 2.339 . S
Eu263 O306 2.563 . S
Eu263 O307 2.419 . S
Eu263 C327 2.848 . S
N264 C256 1.362 . S
N264 Eu263 2.657 . S
N264 C265 1.334 . S
C265 N264 1.334 . S
C265 C267 1.413 . S
C265 H272 0.929 . S
C266 C254 1.392 . S
C266 C267 1.367 . S
C266 H274 0.930 . S
C267 C265 1.413 . S
C267 C266 1.367 . S
C267 H269 0.930 . S
H268 C261 0.930 . S
H269 C267 0.930 . S
H270 C258 0.930 . S
H271 C259 0.930 . S
H272 C265 0.929 . S
H273 C287 0.930 . S
H274 C266 0.930 . S
H275 C293 0.930 . S
H276 C284 0.929 . S
H277 C291 0.930 . S
H278 C255 0.931 . S
H279 C285 0.930 . S
H280 C318 0.930 . S
H281 C262 0.930 . S
H282 C317 0.931 . S
N283 Eu252 2.657 . S
N283 C284 1.334 . S
N283 C288 1.362 . S
C284 H276 0.929 . S
C284 N283 1.334 . S
C284 C287 1.413 . S
C285 H279 0.930 . S
C285 C286 1.392 . S
C285 C287 1.367 . S
C286 C285 1.392 . S
C286 C288 1.420 . S
C286 C318 1.423 . S
C287 H273 0.930 . S
C287 C284 1.413 . S
C287 C285 1.367 . S
C288 N283 1.362 . S
C288 C286 1.420 . S
C288 C292 1.429 . S
H289 C294 0.930 . S
N290 Eu252 2.609 . S
N290 C292 1.377 . S
N290 C293 1.321 . S
C291 H277 0.930 . S
C291 C293 1.400 . S
C291 C294 1.386 . S
C292 C288 1.429 . S
C292 N290 1.377 . S
C292 C295 1.411 . S
C293 H275 0.930 . S
C293 N290 1.321 . S
C293 C291 1.400 . S
C294 H289 0.930 . S
C294 C291 1.386 . S
C294 C295 1.395 . S
C295 C292 1.411 . S
C295 C294 1.395 . S
C295 C317 1.420 . S
O296 Eu252 2.558 . S
O296 C316 1.257 . S
O297 Eu252 2.612 . S
O297 Eu263 2.380 . S
O297 C308 1.276 . S
O298 Eu263 2.432 . S
O298 C315 1.264 . S
O299 Eu252 2.339 . S
O299 C315 1.254 . S
O300 Eu252 2.563 . S
O300 C308 1.235 . S
O301 Eu252 2.419 . S
O301 C316 1.249 . S
O302 Eu263 2.558 . S
O302 C327 1.257 . S
O303 Eu252 2.380 . S
O303 Eu263 2.612 . S
O303 C319 1.276 . S
O304 Eu252 2.432 . S
O304 C326 1.264 . S
O305 Eu263 2.339 . S
O305 C326 1.254 . S
O306 Eu263 2.563 . S
O306 C319 1.235 . S
O307 Eu263 2.419 . S
O307 C327 1.249 . S
C308 O297 1.276 . S
C308 O300 1.235 . S
C309 C311 1.393 . S
C309 C313 1.395 . S
C309 C316 1.492 . S
C310 C311 1.392 . S
C310 C312 1.386 . S
C311 C309 1.393 . S
C311 C310 1.392 . S
C311 H328 0.930 . S
C312 C310 1.386 . S
C312 C314 1.395 . S
C312 H329 0.930 . S
C313 C309 1.395 . S
C313 C314 1.379 . S
C313 H330 0.930 . S
C314 C312 1.395 . S
C314 C313 1.379 . S
C314 H331 0.930 . S
C315 O298 1.264 . S
C315 O299 1.254 . S
C316 Eu252 2.848 . S
C316 O296 1.257 . S
C316 O301 1.249 . S
C316 C309 1.492 . S
C317 H282 0.931 . S
C317 C295 1.420 . S
C317 C318 1.351 . S
C318 H280 0.930 . S
C318 C286 1.423 . S
C318 C317 1.351 . S
C319 O303 1.276 . S
C319 O306 1.235 . S
C320 C321 1.393 . S
C320 C324 1.395 . S
C320 C327 1.492 . S
C321 C320 1.393 . S
C321 C322 1.392 . S
C321 H332 0.930 . S
C322 C321 1.392 . S
C322 C323 1.386 . S
C323 C322 1.386 . S
C323 C325 1.395 . S
C323 H333 0.930 . S
C324 C320 1.395 . S
C324 C325 1.379 . S
C324 H334 0.930 . S
C325 C323 1.395 . S
C325 C324 1.379 . S
C325 H335 0.930 . S
C326 O304 1.264 . S
C326 O305 1.254 . S
C327 Eu263 2.848 . S
C327 O302 1.257 . S
C327 O307 1.249 . S
C327 C320 1.492 . S
H328 C311 0.930 . S
H329 C312 0.930 . S
H330 C313 0.930 . S
H331 C314 0.930 . S
H332 C321 0.930 . S
H333 C323 0.930 . S
H334 C324 0.930 . S
H335 C325 0.930 . S
Eu336 N367 2.657 . S
Eu336 N374 2.609 . S
Eu336 O380 2.558 . S
Eu336 O381 2.612 . S
Eu336 O383 2.339 . S
Eu336 O384 2.563 . S
Eu336 O385 2.419 . S
Eu336 O387 2.380 . S
Eu336 O388 2.432 . S
Eu336 C400 2.848 . S
C337 C340 1.429 . S
C337 C341 1.411 . S
C337 N344 1.377 . S
C338 C340 1.420 . S
C338 C342 1.423 . S
C338 C350 1.392 . S
C339 C341 1.420 . S
C339 C342 1.351 . S
C339 H362 0.931 . S
C340 C337 1.429 . S
C340 C338 1.420 . S
C340 N348 1.362 . S
C341 C337 1.411 . S
C341 C339 1.420 . S
C341 C346 1.395 . S
C342 C338 1.423 . S
C342 C339 1.351 . S
C342 H354 0.930 . S
C343 C345 1.400 . S
C343 C346 1.386 . S
C343 H355 0.930 . S
N344 C337 1.377 . S
N344 C345 1.321 . S
N344 Eu347 2.609 . S
C345 C343 1.400 . S
C345 N344 1.321 . S
C345 H352 0.930 . S
C346 C341 1.395 . S
C346 C343 1.386 . S
C346 H365 0.930 . S
Eu347 N344 2.609 . S
Eu347 N348 2.657 . S
Eu347 O381 2.380 . S
Eu347 O382 2.432 . S
Eu347 O386 2.558 . S
Eu347 O387 2.612 . S
Eu347 O389 2.339 . S
Eu347 O390 2.563 . S
Eu347 O391 2.419 . S
Eu347 C411 2.848 . S
N348 C340 1.362 . S
N348 Eu347 2.657 . S
N348 C349 1.334 . S
C349 N348 1.334 . S
C349 C351 1.413 . S
C349 H356 0.929 . S
C350 C338 1.392 . S
C350 C351 1.367 . S
C350 H358 0.930 . S
C351 C349 1.413 . S
C351 C350 1.367 . S
C351 H353 0.930 . S
H352 C345 0.930 . S
H353 C351 0.930 . S
H354 C342 0.930 . S
H355 C343 0.930 . S
H356 C349 0.929 . S
H357 C371 0.930 . S
H358 C350 0.930 . S
H359 C377 0.930 . S
H360 C368 0.929 . S
H361 C375 0.930 . S
H362 C339 0.931 . S
H363 C369 0.930 . S
H364 C402 0.930 . S
H365 C346 0.930 . S
H366 C401 0.931 . S
N367 Eu336 2.657 . S
N367 C368 1.334 . S
N367 C372 1.362 . S
C368 H360 0.929 . S
C368 N367 1.334 . S
C368 C371 1.413 . S
C369 H363 0.930 . S
C369 C370 1.392 . S
C369 C371 1.367 . S
C370 C369 1.392 . S
C370 C372 1.420 . S
C370 C402 1.423 . S
C371 H357 0.930 . S
C371 C368 1.413 . S
C371 C369 1.367 . S
C372 N367 1.362 . S
C372 C370 1.420 . S
C372 C376 1.429 . S
H373 C378 0.930 . S
N374 Eu336 2.609 . S
N374 C376 1.377 . S
N374 C377 1.321 . S
C375 H361 0.930 . S
C375 C377 1.400 . S
C375 C378 1.386 . S
C376 C372 1.429 . S
C376 N374 1.377 . S
C376 C379 1.411 . S
C377 H359 0.930 . S
C377 N374 1.321 . S
C377 C375 1.400 . S
C378 H373 0.930 . S
C378 C375 1.386 . S
C378 C379 1.395 . S
C379 C376 1.411 . S
C379 C378 1.395 . S
C379 C401 1.420 . S
O380 Eu336 2.558 . S
O380 C400 1.257 . S
O381 Eu336 2.612 . S
O381 Eu347 2.380 . S
O381 C392 1.276 . S
O382 Eu347 2.432 . S
O382 C399 1.264 . S
O383 Eu336 2.339 . S
O383 C399 1.254 . S
O384 Eu336 2.563 . S
O384 C392 1.235 . S
O385 Eu336 2.419 . S
O385 C400 1.249 . S
O386 Eu347 2.558 . S
O386 C411 1.257 . S
O387 Eu336 2.380 . S
O387 Eu347 2.612 . S
O387 C403 1.276 . S
O388 Eu336 2.432 . S
O388 C410 1.264 . S
O389 Eu347 2.339 . S
O389 C410 1.254 . S
O390 Eu347 2.563 . S
O390 C403 1.235 . S
O391 Eu347 2.419 . S
O391 C411 1.249 . S
C392 O381 1.276 . S
C392 O384 1.235 . S
C393 C395 1.393 . S
C393 C397 1.395 . S
C393 C400 1.492 . S
C394 C395 1.392 . S
C394 C396 1.386 . S
C395 C393 1.393 . S
C395 C394 1.392 . S
C395 H412 0.930 . S
C396 C394 1.386 . S
C396 C398 1.395 . S
C396 H413 0.930 . S
C397 C393 1.395 . S
C397 C398 1.379 . S
C397 H414 0.930 . S
C398 C396 1.395 . S
C398 C397 1.379 . S
C398 H415 0.930 . S
C399 O382 1.264 . S
C399 O383 1.254 . S
C400 Eu336 2.848 . S
C400 O380 1.257 . S
C400 O385 1.249 . S
C400 C393 1.492 . S
C401 H366 0.931 . S
C401 C379 1.420 . S
C401 C402 1.351 . S
C402 H364 0.930 . S
C402 C370 1.423 . S
C402 C401 1.351 . S
C403 O387 1.276 . S
C403 O390 1.235 . S
C404 C405 1.393 . S
C404 C408 1.395 . S
C404 C411 1.492 . S
C405 C404 1.393 . S
C405 C406 1.392 . S
C405 H416 0.930 . S
C406 C405 1.392 . S
C406 C407 1.386 . S
C407 C406 1.386 . S
C407 C409 1.395 . S
C407 H417 0.930 . S
C408 C404 1.395 . S
C408 C409 1.379 . S
C408 H418 0.930 . S
C409 C407 1.395 . S
C409 C408 1.379 . S
C409 H419 0.930 . S
C410 O388 1.264 . S
C410 O389 1.254 . S
C411 Eu347 2.848 . S
C411 O386 1.257 . S
C411 O391 1.249 . S
C411 C404 1.492 . S
H412 C395 0.930 . S
H413 C396 0.930 . S
H414 C397 0.930 . S
H415 C398 0.930 . S
H416 C405 0.930 . S
H417 C407 0.930 . S
H418 C408 0.930 . S
H419 C409 0.930 . S
Eu420 N451 2.657 . S
Eu420 N458 2.609 . S
Eu420 O464 2.558 . S
Eu420 O465 2.612 . S
Eu420 O467 2.339 . S
Eu420 O468 2.563 . S
Eu420 O469 2.419 . S
Eu420 O471 2.380 . S
Eu420 O472 2.432 . S
Eu420 C484 2.848 . S
C421 C424 1.429 . S
C421 C425 1.411 . S
C421 N428 1.377 . S
C422 C424 1.420 . S
C422 C426 1.423 . S
C422 C434 1.392 . S
C423 C425 1.420 . S
C423 C426 1.351 . S
C423 H446 0.931 . S
C424 C421 1.429 . S
C424 C422 1.420 . S
C424 N432 1.362 . S
C425 C421 1.411 . S
C425 C423 1.420 . S
C425 C430 1.395 . S
C426 C422 1.423 . S
C426 C423 1.351 . S
C426 H438 0.930 . S
C427 C429 1.400 . S
C427 C430 1.386 . S
C427 H439 0.930 . S
N428 C421 1.377 . S
N428 C429 1.321 . S
N428 Eu431 2.609 . S
C429 C427 1.400 . S
C429 N428 1.321 . S
C429 H436 0.930 . S
C430 C425 1.395 . S
C430 C427 1.386 . S
C430 H449 0.930 . S
Eu431 N428 2.609 . S
Eu431 N432 2.657 . S
Eu431 O465 2.380 . S
Eu431 O466 2.432 . S
Eu431 O470 2.558 . S
Eu431 O471 2.612 . S
Eu431 O473 2.339 . S
Eu431 O474 2.563 . S
Eu431 O475 2.419 . S
Eu431 C495 2.848 . S
N432 C424 1.362 . S
N432 Eu431 2.657 . S
N432 C433 1.334 . S
C433 N432 1.334 . S
C433 C435 1.413 . S
C433 H440 0.929 . S
C434 C422 1.392 . S
C434 C435 1.367 . S
C434 H442 0.930 . S
C435 C433 1.413 . S
C435 C434 1.367 . S
C435 H437 0.930 . S
H436 C429 0.930 . S
H437 C435 0.930 . S
H438 C426 0.930 . S
H439 C427 0.930 . S
H440 C433 0.929 . S
H441 C455 0.930 . S
H442 C434 0.930 . S
H443 C461 0.930 . S
H444 C452 0.929 . S
H445 C459 0.930 . S
H446 C423 0.931 . S
H447 C453 0.930 . S
H448 C486 0.930 . S
H449 C430 0.930 . S
H450 C485 0.931 . S
N451 Eu420 2.657 . S
N451 C452 1.334 . S
N451 C456 1.362 . S
C452 H444 0.929 . S
C452 N451 1.334 . S
C452 C455 1.413 . S
C453 H447 0.930 . S
C453 C454 1.392 . S
C453 C455 1.367 . S
C454 C453 1.392 . S
C454 C456 1.420 . S
C454 C486 1.423 . S
C455 H441 0.930 . S
C455 C452 1.413 . S
C455 C453 1.367 . S
C456 N451 1.362 . S
C456 C454 1.420 . S
C456 C460 1.429 . S
H457 C462 0.930 . S
N458 Eu420 2.609 . S
N458 C460 1.377 . S
N458 C461 1.321 . S
C459 H445 0.930 . S
C459 C461 1.400 . S
C459 C462 1.386 . S
C460 C456 1.429 . S
C460 N458 1.377 . S
C460 C463 1.411 . S
C461 H443 0.930 . S
C461 N458 1.321 . S
C461 C459 1.400 . S
C462 H457 0.930 . S
C462 C459 1.386 . S
C462 C463 1.395 . S
C463 C460 1.411 . S
C463 C462 1.395 . S
C463 C485 1.420 . S
O464 Eu420 2.558 . S
O464 C484 1.257 . S
O465 Eu420 2.612 . S
O465 Eu431 2.380 . S
O465 C476 1.276 . S
O466 Eu431 2.432 . S
O466 C483 1.264 . S
O467 Eu420 2.339 . S
O467 C483 1.254 . S
O468 Eu420 2.563 . S
O468 C476 1.235 . S
O469 Eu420 2.419 . S
O469 C484 1.249 . S
O470 Eu431 2.558 . S
O470 C495 1.257 . S
O471 Eu420 2.380 . S
O471 Eu431 2.612 . S
O471 C487 1.276 . S
O472 Eu420 2.432 . S
O472 C494 1.264 . S
O473 Eu431 2.339 . S
O473 C494 1.254 . S
O474 Eu431 2.563 . S
O474 C487 1.235 . S
O475 Eu431 2.419 . S
O475 C495 1.249 . S
C476 O465 1.276 . S
C476 O468 1.235 . S
C477 C479 1.393 . S
C477 C481 1.395 . S
C477 C484 1.492 . S
C478 C479 1.392 . S
C478 C480 1.386 . S
C479 C477 1.393 . S
C479 C478 1.392 . S
C479 H496 0.930 . S
C480 C478 1.386 . S
C480 C482 1.395 . S
C480 H497 0.930 . S
C481 C477 1.395 . S
C481 C482 1.379 . S
C481 H498 0.930 . S
C482 C480 1.395 . S
C482 C481 1.379 . S
C482 H499 0.930 . S
C483 O466 1.264 . S
C483 O467 1.254 . S
C484 Eu420 2.848 . S
C484 O464 1.257 . S
C484 O469 1.249 . S
C484 C477 1.492 . S
C485 H450 0.931 . S
C485 C463 1.420 . S
C485 C486 1.351 . S
C486 H448 0.930 . S
C486 C454 1.423 . S
C486 C485 1.351 . S
C487 O471 1.276 . S
C487 O474 1.235 . S
C488 C489 1.393 . S
C488 C492 1.395 . S
C488 C495 1.492 . S
C489 C488 1.393 . S
C489 C490 1.392 . S
C489 H500 0.930 . S
C490 C489 1.392 . S
C490 C491 1.386 . S
C491 C490 1.386 . S
C491 C493 1.395 . S
C491 H501 0.930 . S
C492 C488 1.395 . S
C492 C493 1.379 . S
C492 H502 0.930 . S
C493 C491 1.395 . S
C493 C492 1.379 . S
C493 H503 0.930 . S
C494 O472 1.264 . S
C494 O473 1.254 . S
C495 Eu431 2.848 . S
C495 O470 1.257 . S
C495 O475 1.249 . S
C495 C488 1.492 . S
H496 C479 0.930 . S
H497 C480 0.930 . S
H498 C481 0.930 . S
H499 C482 0.930 . S
H500 C489 0.930 . S
H501 C491 0.930 . S
H502 C492 0.930 . S
H503 C493 0.930 . S
Eu504 N535 2.657 . S
Eu504 N542 2.609 . S
Eu504 O548 2.558 . S
Eu504 O549 2.612 . S
Eu504 O551 2.339 . S
Eu504 O552 2.563 . S
Eu504 O553 2.419 . S
Eu504 O555 2.380 . S
Eu504 O556 2.432 . S
Eu504 C568 2.848 . S
C505 C508 1.429 . S
C505 C509 1.411 . S
C505 N512 1.377 . S
C506 C508 1.420 . S
C506 C510 1.423 . S
C506 C518 1.392 . S
C507 C509 1.420 . S
C507 C510 1.351 . S
C507 H530 0.931 . S
C508 C505 1.429 . S
C508 C506 1.420 . S
C508 N516 1.362 . S
C509 C505 1.411 . S
C509 C507 1.420 . S
C509 C514 1.395 . S
C510 C506 1.423 . S
C510 C507 1.351 . S
C510 H522 0.930 . S
C511 C513 1.400 . S
C511 C514 1.386 . S
C511 H523 0.930 . S
N512 C505 1.377 . S
N512 C513 1.321 . S
N512 Eu515 2.609 . S
C513 C511 1.400 . S
C513 N512 1.321 . S
C513 H520 0.930 . S
C514 C509 1.395 . S
C514 C511 1.386 . S
C514 H533 0.930 . S
Eu515 N512 2.609 . S
Eu515 N516 2.657 . S
Eu515 O549 2.380 . S
Eu515 O550 2.432 . S
Eu515 O554 2.558 . S
Eu515 O555 2.612 . S
Eu515 O557 2.339 . S
Eu515 O558 2.563 . S
Eu515 O559 2.419 . S
Eu515 C579 2.848 . S
N516 C508 1.362 . S
N516 Eu515 2.657 . S
N516 C517 1.334 . S
C517 N516 1.334 . S
C517 C519 1.413 . S
C517 H524 0.929 . S
C518 C506 1.392 . S
C518 C519 1.367 . S
C518 H526 0.930 . S
C519 C517 1.413 . S
C519 C518 1.367 . S
C519 H521 0.930 . S
H520 C513 0.930 . S
H521 C519 0.930 . S
H522 C510 0.930 . S
H523 C511 0.930 . S
H524 C517 0.929 . S
H525 C539 0.930 . S
H526 C518 0.930 . S
H527 C545 0.930 . S
H528 C536 0.929 . S
H529 C543 0.930 . S
H530 C507 0.931 . S
H531 C537 0.930 . S
H532 C570 0.930 . S
H533 C514 0.930 . S
H534 C569 0.931 . S
N535 Eu504 2.657 . S
N535 C536 1.334 . S
N535 C540 1.362 . S
C536 H528 0.929 . S
C536 N535 1.334 . S
C536 C539 1.413 . S
C537 H531 0.930 . S
C537 C538 1.392 . S
C537 C539 1.367 . S
C538 C537 1.392 . S
C538 C540 1.420 . S
C538 C570 1.423 . S
C539 H525 0.930 . S
C539 C536 1.413 . S
C539 C537 1.367 . S
C540 N535 1.362 . S
C540 C538 1.420 . S
C540 C544 1.429 . S
H541 C546 0.930 . S
N542 Eu504 2.609 . S
N542 C544 1.377 . S
N542 C545 1.321 . S
C543 H529 0.930 . S
C543 C545 1.400 . S
C543 C546 1.386 . S
C544 C540 1.429 . S
C544 N542 1.377 . S
C544 C547 1.411 . S
C545 H527 0.930 . S
C545 N542 1.321 . S
C545 C543 1.400 . S
C546 H541 0.930 . S
C546 C543 1.386 . S
C546 C547 1.395 . S
C547 C544 1.411 . S
C547 C546 1.395 . S
C547 C569 1.420 . S
O548 Eu504 2.558 . S
O548 C568 1.257 . S
O549 Eu504 2.612 . S
O549 Eu515 2.380 . S
O549 C560 1.276 . S
O550 Eu515 2.432 . S
O550 C567 1.264 . S
O551 Eu504 2.339 . S
O551 C567 1.254 . S
O552 Eu504 2.563 . S
O552 C560 1.235 . S
O553 Eu504 2.419 . S
O553 C568 1.249 . S
O554 Eu515 2.558 . S
O554 C579 1.257 . S
O555 Eu504 2.380 . S
O555 Eu515 2.612 . S
O555 C571 1.276 . S
O556 Eu504 2.432 . S
O556 C578 1.264 . S
O557 Eu515 2.339 . S
O557 C578 1.254 . S
O558 Eu515 2.563 . S
O558 C571 1.235 . S
O559 Eu515 2.419 . S
O559 C579 1.249 . S
C560 O549 1.276 . S
C560 O552 1.235 . S
C561 C563 1.393 . S
C561 C565 1.395 . S
C561 C568 1.492 . S
C562 C563 1.392 . S
C562 C564 1.386 . S
C563 C561 1.393 . S
C563 C562 1.392 . S
C563 H580 0.930 . S
C564 C562 1.386 . S
C564 C566 1.395 . S
C564 H581 0.930 . S
C565 C561 1.395 . S
C565 C566 1.379 . S
C565 H582 0.930 . S
C566 C564 1.395 . S
C566 C565 1.379 . S
C566 H583 0.930 . S
C567 O550 1.264 . S
C567 O551 1.254 . S
C568 Eu504 2.848 . S
C568 O548 1.257 . S
C568 O553 1.249 . S
C568 C561 1.492 . S
C569 H534 0.931 . S
C569 C547 1.420 . S
C569 C570 1.351 . S
C570 H532 0.930 . S
C570 C538 1.423 . S
C570 C569 1.351 . S
C571 O555 1.276 . S
C571 O558 1.235 . S
C572 C573 1.393 . S
C572 C576 1.395 . S
C572 C579 1.492 . S
C573 C572 1.393 . S
C573 C574 1.392 . S
C573 H584 0.930 . S
C574 C573 1.392 . S
C574 C575 1.386 . S
C575 C574 1.386 . S
C575 C577 1.395 . S
C575 H585 0.930 . S
C576 C572 1.395 . S
C576 C577 1.379 . S
C576 H586 0.930 . S
C577 C575 1.395 . S
C577 C576 1.379 . S
C577 H587 0.930 . S
C578 O556 1.264 . S
C578 O557 1.254 . S
C579 Eu515 2.848 . S
C579 O554 1.257 . S
C579 O559 1.249 . S
C579 C572 1.492 . S
H580 C563 0.930 . S
H581 C564 0.930 . S
H582 C565 0.930 . S
H583 C566 0.930 . S
H584 C573 0.930 . S
H585 C575 0.930 . S
H586 C576 0.930 . S
H587 C577 0.930 . S
Eu588 N619 2.657 . S
Eu588 N626 2.609 . S
Eu588 O632 2.558 . S
Eu588 O633 2.612 . S
Eu588 O635 2.339 . S
Eu588 O636 2.563 . S
Eu588 O637 2.419 . S
Eu588 O639 2.380 . S
Eu588 O640 2.432 . S
Eu588 C652 2.848 . S
C589 C592 1.429 . S
C589 C593 1.411 . S
C589 N596 1.377 . S
C590 C592 1.420 . S
C590 C594 1.423 . S
C590 C602 1.392 . S
C591 C593 1.420 . S
C591 C594 1.351 . S
C591 H614 0.931 . S
C592 C589 1.429 . S
C592 C590 1.420 . S
C592 N600 1.362 . S
C593 C589 1.411 . S
C593 C591 1.420 . S
C593 C598 1.395 . S
C594 C590 1.423 . S
C594 C591 1.351 . S
C594 H606 0.930 . S
C595 C597 1.400 . S
C595 C598 1.386 . S
C595 H607 0.930 . S
N596 C589 1.377 . S
N596 C597 1.321 . S
N596 Eu599 2.609 . S
C597 C595 1.400 . S
C597 N596 1.321 . S
C597 H604 0.930 . S
C598 C593 1.395 . S
C598 C595 1.386 . S
C598 H617 0.930 . S
Eu599 N596 2.609 . S
Eu599 N600 2.657 . S
Eu599 O633 2.380 . S
Eu599 O634 2.432 . S
Eu599 O638 2.558 . S
Eu599 O639 2.612 . S
Eu599 O641 2.339 . S
Eu599 O642 2.563 . S
Eu599 O643 2.419 . S
Eu599 C663 2.848 . S
N600 C592 1.362 . S
N600 Eu599 2.657 . S
N600 C601 1.334 . S
C601 N600 1.334 . S
C601 C603 1.413 . S
C601 H608 0.929 . S
C602 C590 1.392 . S
C602 C603 1.367 . S
C602 H610 0.930 . S
C603 C601 1.413 . S
C603 C602 1.367 . S
C603 H605 0.930 . S
H604 C597 0.930 . S
H605 C603 0.930 . S
H606 C594 0.930 . S
H607 C595 0.930 . S
H608 C601 0.929 . S
H609 C623 0.930 . S
H610 C602 0.930 . S
H611 C629 0.930 . S
H612 C620 0.929 . S
H613 C627 0.930 . S
H614 C591 0.931 . S
H615 C621 0.930 . S
H616 C654 0.930 . S
H617 C598 0.930 . S
H618 C653 0.931 . S
N619 Eu588 2.657 . S
N619 C620 1.334 . S
N619 C624 1.362 . S
C620 H612 0.929 . S
C620 N619 1.334 . S
C620 C623 1.413 . S
C621 H615 0.930 . S
C621 C622 1.392 . S
C621 C623 1.367 . S
C622 C621 1.392 . S
C622 C624 1.420 . S
C622 C654 1.423 . S
C623 H609 0.930 . S
C623 C620 1.413 . S
C623 C621 1.367 . S
C624 N619 1.362 . S
C624 C622 1.420 . S
C624 C628 1.429 . S
H625 C630 0.930 . S
N626 Eu588 2.609 . S
N626 C628 1.377 . S
N626 C629 1.321 . S
C627 H613 0.930 . S
C627 C629 1.400 . S
C627 C630 1.386 . S
C628 C624 1.429 . S
C628 N626 1.377 . S
C628 C631 1.411 . S
C629 H611 0.930 . S
C629 N626 1.321 . S
C629 C627 1.400 . S
C630 H625 0.930 . S
C630 C627 1.386 . S
C630 C631 1.395 . S
C631 C628 1.411 . S
C631 C630 1.395 . S
C631 C653 1.420 . S
O632 Eu588 2.558 . S
O632 C652 1.257 . S
O633 Eu588 2.612 . S
O633 Eu599 2.380 . S
O633 C644 1.276 . S
O634 Eu599 2.432 . S
O634 C651 1.264 . S
O635 Eu588 2.339 . S
O635 C651 1.254 . S
O636 Eu588 2.563 . S
O636 C644 1.235 . S
O637 Eu588 2.419 . S
O637 C652 1.249 . S
O638 Eu599 2.558 . S
O638 C663 1.257 . S
O639 Eu588 2.380 . S
O639 Eu599 2.612 . S
O639 C655 1.276 . S
O640 Eu588 2.432 . S
O640 C662 1.264 . S
O641 Eu599 2.339 . S
O641 C662 1.254 . S
O642 Eu599 2.563 . S
O642 C655 1.235 . S
O643 Eu599 2.419 . S
O643 C663 1.249 . S
C644 O633 1.276 . S
C644 O636 1.235 . S
C645 C647 1.393 . S
C645 C649 1.395 . S
C645 C652 1.492 . S
C646 C647 1.392 . S
C646 C648 1.386 . S
C647 C645 1.393 . S
C647 C646 1.392 . S
C647 H664 0.930 . S
C648 C646 1.386 . S
C648 C650 1.395 . S
C648 H665 0.930 . S
C649 C645 1.395 . S
C649 C650 1.379 . S
C649 H666 0.930 . S
C650 C648 1.395 . S
C650 C649 1.379 . S
C650 H667 0.930 . S
C651 O634 1.264 . S
C651 O635 1.254 . S
C652 Eu588 2.848 . S
C652 O632 1.257 . S
C652 O637 1.249 . S
C652 C645 1.492 . S
C653 H618 0.931 . S
C653 C631 1.420 . S
C653 C654 1.351 . S
C654 H616 0.930 . S
C654 C622 1.423 . S
C654 C653 1.351 . S
C655 O639 1.276 . S
C655 O642 1.235 . S
C656 C657 1.393 . S
C656 C660 1.395 . S
C656 C663 1.492 . S
C657 C656 1.393 . S
C657 C658 1.392 . S
C657 H668 0.930 . S
C658 C657 1.392 . S
C658 C659 1.386 . S
C659 C658 1.386 . S
C659 C661 1.395 . S
C659 H669 0.930 . S
C660 C656 1.395 . S
C660 C661 1.379 . S
C660 H670 0.930 . S
C661 C659 1.395 . S
C661 C660 1.379 . S
C661 H671 0.930 . S
C662 O640 1.264 . S
C662 O641 1.254 . S
C663 Eu599 2.848 . S
C663 O638 1.257 . S
C663 O643 1.249 . S
C663 C656 1.492 . S
H664 C647 0.930 . S
H665 C648 0.930 . S
H666 C649 0.930 . S
H667 C650 0.930 . S
H668 C657 0.930 . S
H669 C659 0.930 . S
H670 C660 0.930 . S
H671 C661 0.930 . S
Fe672 O673 1.886 1_455 S
Fe672 O676 1.715 . S
Fe672 O681 2.077 1_455 S
Fe672 O686 1.935 . S
Fe672 O692 2.077 1_455 S
Fe672 O701 1.935 . S
O673 Fe672 1.886 1_655 S
O673 Fe675 1.715 1_545 S
Fe674 O676 1.886 . S
Fe674 O677 1.715 1_545 S
Fe674 O684 1.935 1_545 S
Fe674 O685 2.077 . S
Fe674 O691 1.935 1_545 S
Fe674 O700 2.077 . S
Fe675 O673 1.715 1_565 S
Fe675 O678 1.886 . S
Fe675 O682 1.935 1_565 S
Fe675 O687 2.077 . S
Fe675 O693 1.935 1_565 S
Fe675 O697 2.077 . S
O676 Fe672 1.715 . S
O676 Fe674 1.886 . S
O677 Fe674 1.715 1_565 S
O677 Fe679 1.886 1_455 S
O678 Fe675 1.886 . S
O678 Fe679 1.715 . S
Fe679 O677 1.886 1_655 S
Fe679 O678 1.715 . S
Fe679 O683 2.077 1_655 S
Fe679 O688 1.935 . S
Fe679 O690 2.077 1_655 S
Fe679 O698 1.935 . S
C680 O692 1.381 . S
C680 O693 1.421 . S
O681 Fe672 2.077 1_655 S
O681 C694 1.381 . S
O682 Fe675 1.935 1_545 S
O682 C694 1.421 . S
O683 Fe679 2.077 1_455 S
O683 C699 1.381 . S
O684 Fe674 1.935 1_565 S
O684 C699 1.421 . S
O685 Fe674 2.077 . S
O685 C689 1.381 . S
O686 Fe672 1.935 . S
O686 C689 1.421 . S
O687 Fe675 2.077 . S
O687 C695 1.381 . S
O688 Fe679 1.935 . S
O688 C695 1.421 . S
C689 O685 1.381 . S
C689 O686 1.421 . S
O690 Fe679 2.077 1_455 S
O690 C702 1.381 . S
O691 Fe674 1.935 1_565 S
O691 C702 1.421 . S
O692 Fe672 2.077 1_655 S
O692 C680 1.381 . S
O693 Fe675 1.935 1_545 S
O693 C680 1.421 . S
C694 O681 1.381 . S
C694 O682 1.421 . S
C695 O687 1.381 . S
C695 O688 1.421 . S
C696 O697 1.381 . S
C696 O698 1.421 . S
O697 Fe675 2.077 . S
O697 C696 1.381 . S
O698 Fe679 1.935 . S
O698 C696 1.421 . S
C699 O683 1.381 . S
C699 O684 1.421 . S
O700 Fe674 2.077 . S
O700 C703 1.381 . S
O701 Fe672 1.935 . S
O701 C703 1.421 . S
C702 O690 1.381 . S
C702 O691 1.421 . S
C703 O700 1.381 . S
C703 O701 1.421 . S
Fe704 O705 1.886 . S
Fe704 O708 1.715 . S
Fe704 O713 2.077 1_554 S
Fe704 O718 1.935 1_554 S
Fe704 O724 2.077 . S
Fe704 O733 1.935 . S
O705 Fe704 1.886 . S
O705 Fe707 1.715 1_565 S
Fe706 O708 1.886 1_556 S
Fe706 O709 1.715 1_565 S
Fe706 O716 1.935 1_565 S
Fe706 O717 2.077 . S
Fe706 O723 1.935 1_566 S
Fe706 O732 2.077 1_556 S
Fe707 O705 1.715 1_545 S
Fe707 O710 1.885 1_554 S
Fe707 O714 1.935 1_544 S
Fe707 O719 2.077 1_554 S
Fe707 O725 1.935 1_545 S
Fe707 O729 2.077 . S
O708 Fe704 1.715 . S
O708 Fe706 1.886 1_554 S
O709 Fe706 1.715 1_545 S
O709 Fe711 1.886 . S
O710 Fe707 1.885 1_556 S
O710 Fe711 1.715 . S
Fe711 O709 1.886 . S
Fe711 O710 1.715 . S
Fe711 O715 2.077 . S
Fe711 O720 1.935 . S
Fe711 O722 2.077 1_556 S
Fe711 O730 1.935 1_556 S
C712 O724 1.381 . S
C712 O725 1.421 . S
O713 Fe704 2.077 1_556 S
O713 C726 1.381 . S
O714 Fe707 1.935 1_566 S
O714 C726 1.421 . S
O715 Fe711 2.077 . S
O715 C731 1.381 . S
O716 Fe706 1.935 1_545 S
O716 C731 1.421 . S
O717 Fe706 2.077 . S
O717 C721 1.381 . S
O718 Fe704 1.935 1_556 S
O718 C721 1.421 . S
O719 Fe707 2.077 1_556 S
O719 C727 1.381 . S
O720 Fe711 1.935 . S
O720 C727 1.421 . S
C721 O717 1.381 . S
C721 O718 1.421 . S
O722 Fe711 2.077 1_554 S
O722 C734 1.381 . S
O723 Fe706 1.935 1_544 S
O723 C734 1.421 . S
O724 Fe704 2.077 . S
O724 C712 1.381 . S
O725 Fe707 1.935 1_565 S
O725 C712 1.421 . S
C726 O713 1.381 . S
C726 O714 1.421 . S
C727 O719 1.381 . S
C727 O720 1.421 . S
C728 O729 1.381 . S
C728 O730 1.421 . S
O729 Fe707 2.077 . S
O729 C728 1.381 . S
O730 Fe711 1.935 1_554 S
O730 C728 1.421 . S
C731 O715 1.381 . S
C731 O716 1.421 . S
O732 Fe706 2.077 1_554 S
O732 C735 1.381 . S
O733 Fe704 1.935 . S
O733 C735 1.421 . S
C734 O722 1.381 . S
C734 O723 1.421 . S
C735 O732 1.381 . S
C735 O733 1.421 . S
Fe736 O737 1.886 1_455 S
Fe736 O740 1.716 . S
Fe736 O745 2.077 1_455 S
Fe736 O750 1.935 . S
Fe736 O756 2.077 1_456 S
Fe736 O765 1.935 1_556 S
O737 Fe736 1.886 1_655 S
O737 Fe739 1.715 . S
Fe738 O740 1.885 1_554 S
Fe738 O741 1.715 . S
Fe738 O748 1.935 1_554 S
Fe738 O749 2.077 1_554 S
Fe738 O755 1.935 . S
Fe738 O764 2.077 . S
Fe739 O737 1.715 . S
Fe739 O742 1.886 1_556 S
Fe739 O746 1.935 . S
Fe739 O751 2.077 . S
Fe739 O757 1.935 1_556 S
Fe739 O761 2.077 1_556 S
O740 Fe736 1.716 . S
O740 Fe738 1.885 1_556 S
O741 Fe738 1.715 . S
O741 Fe743 1.886 1_455 S
O742 Fe739 1.886 1_554 S
O742 Fe743 1.715 . S
Fe743 O741 1.886 1_655 S
Fe743 O742 1.715 . S
Fe743 O747 2.077 1_654 S
Fe743 O752 1.935 1_554 S
Fe743 O754 2.077 1_655 S
Fe743 O762 1.935 . S
C744 O756 1.381 . S
C744 O757 1.421 . S
O745 Fe736 2.077 1_655 S
O745 C758 1.381 . S
O746 Fe739 1.935 . S
O746 C758 1.421 . S
O747 Fe743 2.077 1_456 S
O747 C763 1.381 . S
O748 Fe738 1.935 1_556 S
O748 C763 1.421 . S
O749 Fe738 2.077 1_556 S
O749 C753 1.381 . S
O750 Fe736 1.935 . S
O750 C753 1.421 . S
O751 Fe739 2.077 . S
O751 C759 1.381 . S
O752 Fe743 1.935 1_556 S
O752 C759 1.421 . S
C753 O749 1.381 . S
C753 O750 1.421 . S
O754 Fe743 2.077 1_455 S
O754 C766 1.381 . S
O755 Fe738 1.935 . S
O755 C766 1.421 . S
O756 Fe736 2.077 1_654 S
O756 C744 1.381 . S
O757 Fe739 1.935 1_554 S
O757 C744 1.421 . S
C758 O745 1.381 . S
C758 O746 1.421 . S
C759 O751 1.381 . S
C759 O752 1.421 . S
C760 O761 1.381 . S
C760 O762 1.421 . S
O761 Fe739 2.077 1_554 S
O761 C760 1.381 . S
O762 Fe743 1.935 . S
O762 C760 1.421 . S
C763 O747 1.381 . S
C763 O748 1.421 . S
O764 Fe738 2.077 . S
O764 C767 1.381 . S
O765 Fe736 1.935 1_554 S
O765 C767 1.421 . S
C766 O754 1.381 . S
C766 O755 1.421 . S
C767 O764 1.381 . S
C767 O765 1.421 . S
Fe768 O769 1.886 . S
Fe768 O772 1.715 . S
Fe768 O777 2.077 . S
Fe768 O782 1.935 . S
Fe768 O788 2.077 . S
Fe768 O797 1.935 . S
O769 Fe768 1.886 . S
O769 Fe771 1.715 1_556 S
Fe770 O772 1.886 . S
Fe770 O773 1.715 1_556 S
Fe770 O780 1.935 1_556 S
Fe770 O781 2.077 . S
Fe770 O787 1.935 1_556 S
Fe770 O796 2.077 . S
Fe771 O769 1.715 1_554 S
Fe771 O774 1.886 . S
Fe771 O778 1.935 1_554 S
Fe771 O783 2.077 . S
Fe771 O789 1.935 1_554 S
Fe771 O793 2.077 . S
O772 Fe768 1.715 . S
O772 Fe770 1.886 . S
O773 Fe770 1.715 1_554 S
O773 Fe775 1.886 . S
O774 Fe771 1.886 . S
O774 Fe775 1.715 . S
Fe775 O773 1.886 . S
Fe775 O774 1.715 . S
Fe775 O779 2.077 . S
Fe775 O784 1.935 . S
Fe775 O786 2.077 . S
Fe775 O794 1.935 . S
C776 O788 1.381 . S
C776 O789 1.421 . S
O777 Fe768 2.077 . S
O777 C790 1.381 . S
O778 Fe771 1.935 1_556 S
O778 C790 1.421 . S
O779 Fe775 2.077 . S
O779 C795 1.381 . S
O780 Fe770 1.935 1_554 S
O780 C795 1.421 . S
O781 Fe770 2.077 . S
O781 C785 1.381 . S
O782 Fe768 1.935 . S
O782 C785 1.421 . S
O783 Fe771 2.077 . S
O783 C791 1.381 . S
O784 Fe775 1.935 . S
O784 C791 1.421 . S
C785 O781 1.381 . S
C785 O782 1.421 . S
O786 Fe775 2.077 . S
O786 C798 1.381 . S
O787 Fe770 1.935 1_554 S
O787 C798 1.421 . S
O788 Fe768 2.077 . S
O788 C776 1.381 . S
O789 Fe771 1.935 1_556 S
O789 C776 1.421 . S
C790 O777 1.381 . S
C790 O778 1.421 . S
C791 O783 1.381 . S
C791 O784 1.421 . S
C792 O793 1.381 . S
C792 O794 1.421 . S
O793 Fe771 2.077 . S
O793 C792 1.381 . S
O794 Fe775 1.935 . S
O794 C792 1.421 . S
C795 O779 1.381 . S
C795 O780 1.421 . S
O796 Fe770 2.077 . S
O796 C799 1.381 . S
O797 Fe768 1.935 . S
O797 C799 1.421 . S
C798 O786 1.381 . S
C798 O787 1.421 . S
C799 O796 1.381 . S
C799 O797 1.421 . S
Fe800 O801 1.886 . S
Fe800 O804 1.715 . S
Fe800 O809 2.077 1_655 S
Fe800 O814 1.935 1_655 S
Fe800 O820 2.077 . S
Fe800 O829 1.935 . S
O801 Fe800 1.886 . S
O801 Fe803 1.715 1_655 S
Fe802 O804 1.886 . S
Fe802 O805 1.715 1_655 S
Fe802 O812 1.935 1_655 S
Fe802 O813 2.077 1_655 S
Fe802 O819 1.935 . S
Fe802 O828 2.077 . S
Fe803 O801 1.715 1_455 S
Fe803 O806 1.886 . S
Fe803 O810 1.935 . S
Fe803 O815 2.077 . S
Fe803 O821 1.935 1_455 S
Fe803 O825 2.077 1_455 S
O804 Fe800 1.715 . S
O804 Fe802 1.886 . S
O805 Fe802 1.715 1_455 S
O805 Fe807 1.886 . S
O806 Fe803 1.886 . S
O806 Fe807 1.715 . S
Fe807 O805 1.886 . S
Fe807 O806 1.715 . S
Fe807 O811 2.077 . S
Fe807 O816 1.935 . S
Fe807 O818 2.077 1_455 S
Fe807 O826 1.935 1_455 S
C808 O820 1.381 . S
C808 O821 1.421 . S
O809 Fe800 2.077 1_455 S
O809 C822 1.381 . S
O810 Fe803 1.935 . S
O810 C822 1.421 . S
O811 Fe807 2.077 . S
O811 C827 1.381 . S
O812 Fe802 1.935 1_455 S
O812 C827 1.421 . S
O813 Fe802 2.077 1_455 S
O813 C817 1.381 . S
O814 Fe800 1.935 1_455 S
O814 C817 1.421 . S
O815 Fe803 2.077 . S
O815 C823 1.381 . S
O816 Fe807 1.935 . S
O816 C823 1.421 . S
C817 O813 1.381 . S
C817 O814 1.421 . S
O818 Fe807 2.077 1_655 S
O818 C830 1.381 . S
O819 Fe802 1.935 . S
O819 C830 1.421 . S
O820 Fe800 2.077 . S
O820 C808 1.381 . S
O821 Fe803 1.935 1_655 S
O821 C808 1.421 . S
C822 O809 1.381 . S
C822 O810 1.421 . S
C823 O815 1.381 . S
C823 O816 1.421 . S
C824 O825 1.381 . S
C824 O826 1.421 . S
O825 Fe803 2.077 1_655 S
O825 C824 1.381 . S
O826 Fe807 1.935 1_655 S
O826 C824 1.421 . S
C827 O811 1.381 . S
C827 O812 1.421 . S
O828 Fe802 2.077 . S
O828 C831 1.381 . S
O829 Fe800 1.935 . S
O829 C831 1.421 . S
C830 O818 1.381 . S
C830 O819 1.421 . S
C831 O828 1.381 . S
C831 O829 1.421 . S
Fe832 O833 1.886 . S
Fe832 O836 1.715 . S
Fe832 O841 2.077 . S
Fe832 O846 1.935 . S
Fe832 O852 2.077 . S
Fe832 O861 1.935 . S
O833 Fe832 1.886 . S
O833 Fe835 1.715 . S
Fe834 O836 1.886 1_545 S
Fe834 O837 1.715 . S
Fe834 O844 1.935 . S
Fe834 O845 2.077 1_545 S
Fe834 O851 1.935 . S
Fe834 O860 2.077 1_545 S
Fe835 O833 1.715 . S
Fe835 O838 1.886 1_565 S
Fe835 O842 1.935 . S
Fe835 O847 2.077 1_565 S
Fe835 O853 1.935 . S
Fe835 O857 2.077 1_565 S
O836 Fe832 1.715 . S
O836 Fe834 1.886 1_565 S
O837 Fe834 1.715 . S
O837 Fe839 1.886 . S
O838 Fe835 1.886 1_545 S
O838 Fe839 1.715 . S
Fe839 O837 1.886 . S
Fe839 O838 1.715 . S
Fe839 O843 2.077 . S
Fe839 O848 1.935 . S
Fe839 O850 2.077 . S
Fe839 O858 1.935 . S
C840 O852 1.381 . S
C840 O853 1.421 . S
O841 Fe832 2.077 . S
O841 C854 1.381 . S
O842 Fe835 1.935 . S
O842 C854 1.421 . S
O843 Fe839 2.077 . S
O843 C859 1.381 . S
O844 Fe834 1.935 . S
O844 C859 1.421 . S
O845 Fe834 2.077 1_565 S
O845 C849 1.381 . S
O846 Fe832 1.935 . S
O846 C849 1.421 . S
O847 Fe835 2.077 1_545 S
O847 C855 1.381 . S
O848 Fe839 1.935 . S
O848 C855 1.421 . S
C849 O845 1.381 . S
C849 O846 1.421 . S
O850 Fe839 2.077 . S
O850 C862 1.381 . S
O851 Fe834 1.935 . S
O851 C862 1.421 . S
O852 Fe832 2.077 . S
O852 C840 1.381 . S
O853 Fe835 1.935 . S
O853 C840 1.421 . S
C854 O841 1.381 . S
C854 O842 1.421 . S
C855 O847 1.381 . S
C855 O848 1.421 . S
C856 O857 1.381 . S
C856 O858 1.421 . S
O857 Fe835 2.077 1_545 S
O857 C856 1.381 . S
O858 Fe839 1.935 . S
O858 C856 1.421 . S
C859 O843 1.381 . S
C859 O844 1.421 . S
O860 Fe834 2.077 1_565 S
O860 C863 1.381 . S
O861 Fe832 1.935 . S
O861 C863 1.421 . S
C862 O850 1.381 . S
C862 O851 1.421 . S
C863 O860 1.381 . S
C863 O861 1.421 . S
C864 C865 1.349 . S
C864 C866 1.327 . S
C864 H889 0.950 . S
C865 C864 1.349 . S
C865 C881 1.349 . S
C866 C864 1.327 . S
C866 C885 1.429 . S
C866 H890 0.950 . S
C867 C884 1.574 . S
C867 C886 1.368 . S
C867 H891 0.949 . S
H868 C872 0.949 . S
C869 C870 1.349 . S
C869 C871 1.327 . S
C869 H892 0.950 . S
C870 C869 1.349 . S
C870 C882 1.349 . S
C871 C869 1.327 . S
C871 C887 1.429 . S
C871 H893 0.950 . S
C872 H868 0.949 . S
C872 C880 1.574 . S
C872 C888 1.368 . S
H873 C881 0.950 . S
H874 C879 0.950 . S
H875 C880 0.949 . S
H876 C882 0.950 . S
H877 C883 0.950 . S
H878 C884 0.949 . S
C879 H874 0.950 . S
C879 C881 1.327 . S
C879 C885 1.429 . S
C880 C872 1.574 . S
C880 H875 0.949 . S
C880 C886 1.368 . S
C881 C865 1.349 . S
C881 H873 0.950 . S
C881 C879 1.327 . S
C882 C870 1.349 . S
C882 H876 0.950 . S
C882 C883 1.327 . S
C883 H877 0.950 . S
C883 C882 1.327 . S
C883 C887 1.429 . S
C884 C867 1.574 . S
C884 H878 0.949 . S
C884 C888 1.368 . S
C885 C866 1.429 . S
C885 C879 1.429 . S
C885 C886 1.523 . S
C886 C867 1.368 . S
C886 C880 1.368 . S
C886 C885 1.523 . S
C887 C871 1.429 . S
C887 C883 1.429 . S
C887 C888 1.523 . S
C888 C872 1.368 . S
C888 C884 1.368 . S
C888 C887 1.523 . S
H889 C864 0.950 . S
H890 C866 0.950 . S
H891 C867 0.949 . S
H892 C869 0.950 . S
H893 C871 0.950 . S
C894 C895 1.349 . S
C894 C896 1.327 . S
C894 H919 0.950 . S
C895 C894 1.349 . S
C895 C911 1.349 . S
C896 C894 1.327 . S
C896 C915 1.429 . S
C896 H920 0.950 . S
C897 C914 1.574 . S
C897 C916 1.368 . S
C897 H921 0.949 . S
H898 C902 0.949 . S
C899 C900 1.349 . S
C899 C901 1.327 . S
C899 H922 0.950 . S
C900 C899 1.349 . S
C900 C912 1.349 . S
C901 C899 1.327 . S
C901 C917 1.429 . S
C901 H923 0.950 . S
C902 H898 0.949 . S
C902 C910 1.574 . S
C902 C918 1.368 . S
H903 C911 0.950 . S
H904 C909 0.950 . S
H905 C910 0.949 . S
H906 C912 0.950 . S
H907 C913 0.950 . S
H908 C914 0.949 . S
C909 H904 0.950 . S
C909 C911 1.327 . S
C909 C915 1.429 . S
C910 C902 1.574 . S
C910 H905 0.949 . S
C910 C916 1.368 . S
C911 C895 1.349 . S
C911 H903 0.950 . S
C911 C909 1.327 . S
C912 C900 1.349 . S
C912 H906 0.950 . S
C912 C913 1.327 . S
C913 H907 0.950 . S
C913 C912 1.327 . S
C913 C917 1.429 . S
C914 C897 1.574 . S
C914 H908 0.949 . S
C914 C918 1.368 . S
C915 C896 1.429 . S
C915 C909 1.429 . S
C915 C916 1.523 . S
C916 C897 1.368 . S
C916 C910 1.368 . S
C916 C915 1.523 . S
C917 C901 1.429 . S
C917 C913 1.429 . S
C917 C918 1.523 . S
C918 C902 1.368 . S
C918 C914 1.368 . S
C918 C917 1.523 . S
H919 C894 0.950 . S
H920 C896 0.950 . S
H921 C897 0.949 . S
H922 C899 0.950 . S
H923 C901 0.950 . S
C924 C925 1.349 . S
C924 C926 1.327 . S
C924 H949 0.950 . S
C925 C924 1.349 . S
C925 C941 1.349 . S
C926 C924 1.327 . S
C926 C945 1.429 . S
C926 H950 0.950 . S
C927 C944 1.574 . S
C927 C946 1.368 . S
C927 H951 0.949 . S
H928 C932 0.949 . S
C929 C930 1.349 . S
C929 C931 1.327 . S
C929 H952 0.950 . S
C930 C929 1.349 . S
C930 C942 1.349 . S
C931 C929 1.327 . S
C931 C947 1.429 . S
C931 H953 0.950 . S
C932 H928 0.949 . S
C932 C940 1.574 . S
C932 C948 1.368 . S
H933 C941 0.950 . S
H934 C939 0.950 . S
H935 C940 0.949 . S
H936 C942 0.950 . S
H937 C943 0.950 . S
H938 C944 0.949 . S
C939 H934 0.950 . S
C939 C941 1.327 . S
C939 C945 1.429 . S
C940 C932 1.574 . S
C940 H935 0.949 . S
C940 C946 1.368 . S
C941 C925 1.349 . S
C941 H933 0.950 . S
C941 C939 1.327 . S
C942 C930 1.349 . S
C942 H936 0.950 . S
C942 C943 1.327 . S
C943 H937 0.950 . S
C943 C942 1.327 . S
C943 C947 1.429 . S
C944 C927 1.574 . S
C944 H938 0.949 . S
C944 C948 1.368 . S
C945 C926 1.429 . S
C945 C939 1.429 . S
C945 C946 1.523 . S
C946 C927 1.368 . S
C946 C940 1.368 . S
C946 C945 1.523 . S
C947 C931 1.429 . S
C947 C943 1.429 . S
C947 C948 1.523 . S
C948 C932 1.368 . S
C948 C944 1.368 . S
C948 C947 1.523 . S
H949 C924 0.950 . S
H950 C926 0.950 . S
H951 C927 0.949 . S
H952 C929 0.950 . S
H953 C931 0.950 . S
C954 C955 1.349 . S
C954 C956 1.327 . S
C954 H979 0.950 . S
C955 C954 1.349 . S
C955 C971 1.349 . S
C956 C954 1.327 . S
C956 C975 1.429 . S
C956 H980 0.950 . S
C957 C974 1.574 . S
C957 C976 1.368 . S
C957 H981 0.949 . S
H958 C962 0.949 . S
C959 C960 1.349 . S
C959 C961 1.327 . S
C959 H982 0.950 . S
C960 C959 1.349 . S
C960 C972 1.349 . S
C961 C959 1.327 . S
C961 C977 1.429 . S
C961 H983 0.950 . S
C962 H958 0.949 . S
C962 C970 1.574 . S
C962 C978 1.368 . S
H963 C971 0.950 . S
H964 C969 0.950 . S
H965 C970 0.949 . S
H966 C972 0.950 . S
H967 C973 0.950 . S
H968 C974 0.949 . S
C969 H964 0.950 . S
C969 C971 1.327 . S
C969 C975 1.429 . S
C970 C962 1.574 . S
C970 H965 0.949 . S
C970 C976 1.368 . S
C971 C955 1.349 . S
C971 H963 0.950 . S
C971 C969 1.327 . S
C972 C960 1.349 . S
C972 H966 0.950 . S
C972 C973 1.327 . S
C973 H967 0.950 . S
C973 C972 1.327 . S
C973 C977 1.429 . S
C974 C957 1.574 . S
C974 H968 0.949 . S
C974 C978 1.368 . S
C975 C956 1.429 . S
C975 C969 1.429 . S
C975 C976 1.523 . S
C976 C957 1.368 . S
C976 C970 1.368 . S
C976 C975 1.523 . S
C977 C961 1.429 . S
C977 C973 1.429 . S
C977 C978 1.523 . S
C978 C962 1.368 . S
C978 C974 1.368 . S
C978 C977 1.523 . S
H979 C954 0.950 . S
H980 C956 0.950 . S
H981 C957 0.949 . S
H982 C959 0.950 . S
H983 C961 0.950 . S
C984 C985 1.349 . S
C984 C986 1.327 . S
C984 H1009 0.950 . S
C985 C984 1.349 . S
C985 C1001 1.349 . S
C986 C984 1.327 . S
C986 C1005 1.429 . S
C986 H1010 0.950 . S
C987 C1004 1.574 . S
C987 C1006 1.368 . S
C987 H1011 0.949 . S
H988 C992 0.949 . S
C989 C990 1.349 . S
C989 C991 1.327 . S
C989 H1012 0.950 . S
C990 C989 1.349 . S
C990 C1002 1.349 . S
C991 C989 1.327 . S
C991 C1007 1.429 . S
C991 H1013 0.950 . S
C992 H988 0.949 . S
C992 C1000 1.574 . S
C992 C1008 1.368 . S
H993 C1001 0.950 . S
H994 C999 0.950 . S
H995 C1000 0.949 . S
H996 C1002 0.950 . S
H997 C1003 0.950 . S
H998 C1004 0.949 . S
C999 H994 0.950 . S
C999 C1001 1.327 . S
C999 C1005 1.429 . S
C1000 C992 1.574 . S
C1000 H995 0.949 . S
C1000 C1006 1.368 . S
C1001 C985 1.349 . S
C1001 H993 0.950 . S
C1001 C999 1.327 . S
C1002 C990 1.349 . S
C1002 H996 0.950 . S
C1002 C1003 1.327 . S
C1003 H997 0.950 . S
C1003 C1002 1.327 . S
C1003 C1007 1.429 . S
C1004 C987 1.574 . S
C1004 H998 0.949 . S
C1004 C1008 1.368 . S
C1005 C986 1.429 . S
C1005 C999 1.429 . S
C1005 C1006 1.523 . S
C1006 C987 1.368 . S
C1006 C1000 1.368 . S
C1006 C1005 1.523 . S
C1007 C991 1.429 . S
C1007 C1003 1.429 . S
C1007 C1008 1.523 . S
C1008 C992 1.368 . S
C1008 C1004 1.368 . S
C1008 C1007 1.523 . S
H1009 C984 0.950 . S
H1010 C986 0.950 . S
H1011 C987 0.949 . S
H1012 C989 0.950 . S
H1013 C991 0.950 . S
C1014 C1015 1.349 . S
C1014 C1016 1.327 . S
C1014 H1039 0.950 . S
C1015 C1014 1.349 . S
C1015 C1031 1.349 . S
C1016 C1014 1.327 . S
C1016 C1035 1.429 . S
C1016 H1040 0.950 . S
C1017 C1034 1.574 . S
C1017 C1036 1.368 . S
C1017 H1041 0.949 . S
H1018 C1022 0.949 . S
C1019 C1020 1.349 . S
C1019 C1021 1.327 . S
C1019 H1042 0.950 . S
C1020 C1019 1.349 . S
C1020 C1032 1.349 . S
C1021 C1019 1.327 . S
C1021 C1037 1.429 . S
C1021 H1043 0.950 . S
C1022 H1018 0.949 . S
C1022 C1030 1.574 . S
C1022 C1038 1.368 . S
H1023 C1031 0.950 . S
H1024 C1029 0.950 . S
H1025 C1030 0.949 . S
H1026 C1032 0.950 . S
H1027 C1033 0.950 . S
H1028 C1034 0.949 . S
C1029 H1024 0.950 . S
C1029 C1031 1.327 . S
C1029 C1035 1.429 . S
C1030 C1022 1.574 . S
C1030 H1025 0.949 . S
C1030 C1036 1.368 . S
C1031 C1015 1.349 . S
C1031 H1023 0.950 . S
C1031 C1029 1.327 . S
C1032 C1020 1.349 . S
C1032 H1026 0.950 . S
C1032 C1033 1.327 . S
C1033 H1027 0.950 . S
C1033 C1032 1.327 . S
C1033 C1037 1.429 . S
C1034 C1017 1.574 . S
C1034 H1028 0.949 . S
C1034 C1038 1.368 . S
C1035 C1016 1.429 . S
C1035 C1029 1.429 . S
C1035 C1036 1.523 . S
C1036 C1017 1.368 . S
C1036 C1030 1.368 . S
C1036 C1035 1.523 . S
C1037 C1021 1.429 . S
C1037 C1033 1.429 . S
C1037 C1038 1.523 . S
C1038 C1022 1.368 . S
C1038 C1034 1.368 . S
C1038 C1037 1.523 . S
H1039 C1014 0.950 . S
H1040 C1016 0.950 . S
H1041 C1017 0.949 . S
H1042 C1019 0.950 . S
H1043 C1021 0.950 . S
C1044 C1045 1.349 . S
C1044 C1046 1.327 . S
C1044 H1069 0.950 . S
C1045 C1044 1.349 . S
C1045 C1061 1.349 . S
C1046 C1044 1.327 . S
C1046 C1065 1.429 . S
C1046 H1070 0.950 . S
C1047 C1064 1.574 . S
C1047 C1066 1.368 . S
C1047 H1071 0.949 . S
H1048 C1052 0.949 . S
C1049 C1050 1.349 . S
C1049 C1051 1.327 . S
C1049 H1072 0.950 . S
C1050 C1049 1.349 . S
C1050 C1062 1.349 . S
C1051 C1049 1.327 . S
C1051 C1067 1.429 . S
C1051 H1073 0.950 . S
C1052 H1048 0.949 . S
C1052 C1060 1.574 . S
C1052 C1068 1.368 . S
H1053 C1061 0.950 . S
H1054 C1059 0.950 . S
H1055 C1060 0.949 . S
H1056 C1062 0.950 . S
H1057 C1063 0.950 . S
H1058 C1064 0.949 . S
C1059 H1054 0.950 . S
C1059 C1061 1.327 . S
C1059 C1065 1.429 . S
C1060 C1052 1.574 . S
C1060 H1055 0.949 . S
C1060 C1066 1.368 . S
C1061 C1045 1.349 . S
C1061 H1053 0.950 . S
C1061 C1059 1.327 . S
C1062 C1050 1.349 . S
C1062 H1056 0.950 . S
C1062 C1063 1.327 . S
C1063 H1057 0.950 . S
C1063 C1062 1.327 . S
C1063 C1067 1.429 . S
C1064 C1047 1.574 . S
C1064 H1058 0.949 . S
C1064 C1068 1.368 . S
C1065 C1046 1.429 . S
C1065 C1059 1.429 . S
C1065 C1066 1.523 . S
C1066 C1047 1.368 . S
C1066 C1060 1.368 . S
C1066 C1065 1.523 . S
C1067 C1051 1.429 . S
C1067 C1063 1.429 . S
C1067 C1068 1.523 . S
C1068 C1052 1.368 . S
C1068 C1064 1.368 . S
C1068 C1067 1.523 . S
H1069 C1044 0.950 . S
H1070 C1046 0.950 . S
H1071 C1047 0.949 . S
H1072 C1049 0.950 . S
H1073 C1051 0.950 . S
C1074 C1075 1.349 . S
C1074 C1076 1.327 . S
C1074 H1099 0.950 . S
C1075 C1074 1.349 . S
C1075 C1091 1.349 . S
C1076 C1074 1.327 . S
C1076 C1095 1.429 . S
C1076 H1100 0.950 . S
C1077 C1094 1.574 . S
C1077 C1096 1.368 . S
C1077 H1101 0.949 . S
H1078 C1082 0.949 . S
C1079 C1080 1.349 . S
C1079 C1081 1.327 . S
C1079 H1102 0.950 . S
C1080 C1079 1.349 . S
C1080 C1092 1.349 . S
C1081 C1079 1.327 . S
C1081 C1097 1.429 . S
C1081 H1103 0.950 . S
C1082 H1078 0.949 . S
C1082 C1090 1.574 . S
C1082 C1098 1.368 . S
H1083 C1091 0.950 . S
H1084 C1089 0.950 . S
H1085 C1090 0.949 . S
H1086 C1092 0.950 . S
H1087 C1093 0.950 . S
H1088 C1094 0.949 . S
C1089 H1084 0.950 . S
C1089 C1091 1.327 . S
C1089 C1095 1.429 . S
C1090 C1082 1.574 . S
C1090 H1085 0.949 . S
C1090 C1096 1.368 . S
C1091 C1075 1.349 . S
C1091 H1083 0.950 . S
C1091 C1089 1.327 . S
C1092 C1080 1.349 . S
C1092 H1086 0.950 . S
C1092 C1093 1.327 . S
C1093 H1087 0.950 . S
C1093 C1092 1.327 . S
C1093 C1097 1.429 . S
C1094 C1077 1.574 . S
C1094 H1088 0.949 . S
C1094 C1098 1.368 . S
C1095 C1076 1.429 . S
C1095 C1089 1.429 . S
C1095 C1096 1.523 . S
C1096 C1077 1.368 . S
C1096 C1090 1.368 . S
C1096 C1095 1.523 . S
C1097 C1081 1.429 . S
C1097 C1093 1.429 . S
C1097 C1098 1.523 . S
C1098 C1082 1.368 . S
C1098 C1094 1.368 . S
C1098 C1097 1.523 . S
H1099 C1074 0.950 . S
H1100 C1076 0.950 . S
H1101 C1077 0.949 . S
H1102 C1079 0.950 . S
H1103 C1081 0.950 . S
C1104 C1105 1.349 . S
C1104 C1106 1.327 . S
C1104 H1129 0.950 . S
C1105 C1104 1.349 . S
C1105 C1121 1.349 . S
C1106 C1104 1.327 . S
C1106 C1125 1.429 . S
C1106 H1130 0.950 . S
C1107 C1124 1.574 . S
C1107 C1126 1.368 . S
C1107 H1131 0.949 . S
H1108 C1112 0.949 . S
C1109 C1110 1.349 . S
C1109 C1111 1.327 . S
C1109 H1132 0.950 . S
C1110 C1109 1.349 . S
C1110 C1122 1.349 . S
C1111 C1109 1.327 . S
C1111 C1127 1.429 . S
C1111 H1133 0.950 . S
C1112 H1108 0.949 . S
C1112 C1120 1.574 . S
C1112 C1128 1.368 . S
H1113 C1121 0.950 . S
H1114 C1119 0.950 . S
H1115 C1120 0.949 . S
H1116 C1122 0.950 . S
H1117 C1123 0.950 . S
H1118 C1124 0.949 . S
C1119 H1114 0.950 . S
C1119 C1121 1.327 . S
C1119 C1125 1.429 . S
C1120 C1112 1.574 . S
C1120 H1115 0.949 . S
C1120 C1126 1.368 . S
C1121 C1105 1.349 . S
C1121 H1113 0.950 . S
C1121 C1119 1.327 . S
C1122 C1110 1.349 . S
C1122 H1116 0.950 . S
C1122 C1123 1.327 . S
C1123 H1117 0.950 . S
C1123 C1122 1.327 . S
C1123 C1127 1.429 . S
C1124 C1107 1.574 . S
C1124 H1118 0.949 . S
C1124 C1128 1.368 . S
C1125 C1106 1.429 . S
C1125 C1119 1.429 . S
C1125 C1126 1.523 . S
C1126 C1107 1.368 . S
C1126 C1120 1.368 . S
C1126 C1125 1.523 . S
C1127 C1111 1.429 . S
C1127 C1123 1.429 . S
C1127 C1128 1.523 . S
C1128 C1112 1.368 . S
C1128 C1124 1.368 . S
C1128 C1127 1.523 . S
H1129 C1104 0.950 . S
H1130 C1106 0.950 . S
H1131 C1107 0.949 . S
H1132 C1109 0.950 . S
H1133 C1111 0.950 . S
C1134 C1135 1.349 . S
C1134 C1136 1.327 . S
C1134 H1159 0.950 . S
C1135 C1134 1.349 . S
C1135 C1151 1.349 . S
C1136 C1134 1.327 . S
C1136 C1155 1.429 . S
C1136 H1160 0.950 . S
C1137 C1154 1.574 . S
C1137 C1156 1.368 . S
C1137 H1161 0.949 . S
H1138 C1142 0.949 . S
C1139 C1140 1.349 . S
C1139 C1141 1.327 . S
C1139 H1162 0.950 . S
C1140 C1139 1.349 . S
C1140 C1152 1.349 . S
C1141 C1139 1.327 . S
C1141 C1157 1.429 . S
C1141 H1163 0.950 . S
C1142 H1138 0.949 . S
C1142 C1150 1.574 . S
C1142 C1158 1.368 . S
H1143 C1151 0.950 . S
H1144 C1149 0.950 . S
H1145 C1150 0.949 . S
H1146 C1152 0.950 . S
H1147 C1153 0.950 . S
H1148 C1154 0.949 . S
C1149 H1144 0.950 . S
C1149 C1151 1.327 . S
C1149 C1155 1.429 . S
C1150 C1142 1.574 . S
C1150 H1145 0.949 . S
C1150 C1156 1.368 . S
C1151 C1135 1.349 . S
C1151 H1143 0.950 . S
C1151 C1149 1.327 . S
C1152 C1140 1.349 . S
C1152 H1146 0.950 . S
C1152 C1153 1.327 . S
C1153 H1147 0.950 . S
C1153 C1152 1.327 . S
C1153 C1157 1.429 . S
C1154 C1137 1.574 . S
C1154 H1148 0.949 . S
C1154 C1158 1.368 . S
C1155 C1136 1.429 . S
C1155 C1149 1.429 . S
C1155 C1156 1.523 . S
C1156 C1137 1.368 . S
C1156 C1150 1.368 . S
C1156 C1155 1.523 . S
C1157 C1141 1.429 . S
C1157 C1153 1.429 . S
C1157 C1158 1.523 . S
C1158 C1142 1.368 . S
C1158 C1154 1.368 . S
C1158 C1157 1.523 . S
H1159 C1134 0.950 . S
H1160 C1136 0.950 . S
H1161 C1137 0.949 . S
H1162 C1139 0.950 . S
H1163 C1141 0.950 . S
C1164 C1165 1.349 . S
C1164 C1166 1.327 . S
C1164 H1189 0.950 . S
C1165 C1164 1.349 . S
C1165 C1181 1.349 . S
C1166 C1164 1.327 . S
C1166 C1185 1.429 . S
C1166 H1190 0.950 . S
C1167 C1184 1.574 . S
C1167 C1186 1.368 . S
C1167 H1191 0.949 . S
H1168 C1172 0.949 . S
C1169 C1170 1.349 . S
C1169 C1171 1.327 . S
C1169 H1192 0.950 . S
C1170 C1169 1.349 . S
C1170 C1182 1.349 . S
C1171 C1169 1.327 . S
C1171 C1187 1.429 . S
C1171 H1193 0.950 . S
C1172 H1168 0.949 . S
C1172 C1180 1.574 . S
C1172 C1188 1.368 . S
H1173 C1181 0.950 . S
H1174 C1179 0.950 . S
H1175 C1180 0.949 . S
H1176 C1182 0.950 . S
H1177 C1183 0.950 . S
H1178 C1184 0.949 . S
C1179 H1174 0.950 . S
C1179 C1181 1.327 . S
C1179 C1185 1.429 . S
C1180 C1172 1.574 . S
C1180 H1175 0.949 . S
C1180 C1186 1.368 . S
C1181 C1165 1.349 . S
C1181 H1173 0.950 . S
C1181 C1179 1.327 . S
C1182 C1170 1.349 . S
C1182 H1176 0.950 . S
C1182 C1183 1.327 . S
C1183 H1177 0.950 . S
C1183 C1182 1.327 . S
C1183 C1187 1.429 . S
C1184 C1167 1.574 . S
C1184 H1178 0.949 . S
C1184 C1188 1.368 . S
C1185 C1166 1.429 . S
C1185 C1179 1.429 . S
C1185 C1186 1.523 . S
C1186 C1167 1.368 . S
C1186 C1180 1.368 . S
C1186 C1185 1.523 . S
C1187 C1171 1.429 . S
C1187 C1183 1.429 . S
C1187 C1188 1.523 . S
C1188 C1172 1.368 . S
C1188 C1184 1.368 . S
C1188 C1187 1.523 . S
H1189 C1164 0.950 . S
H1190 C1166 0.950 . S
H1191 C1167 0.949 . S
H1192 C1169 0.950 . S
H1193 C1171 0.950 . S
C1194 C1195 1.349 . S
C1194 C1196 1.327 . S
C1194 H1219 0.950 . S
C1195 C1194 1.349 . S
C1195 C1211 1.349 . S
C1196 C1194 1.327 . S
C1196 C1215 1.429 . S
C1196 H1220 0.950 . S
C1197 C1214 1.574 . S
C1197 C1216 1.368 . S
C1197 H1221 0.949 . S
H1198 C1202 0.949 . S
C1199 C1200 1.349 . S
C1199 C1201 1.327 . S
C1199 H1222 0.950 . S
C1200 C1199 1.349 . S
C1200 C1212 1.349 . S
C1201 C1199 1.327 . S
C1201 C1217 1.429 . S
C1201 H1223 0.950 . S
C1202 H1198 0.949 . S
C1202 C1210 1.574 . S
C1202 C1218 1.368 . S
H1203 C1211 0.950 . S
H1204 C1209 0.950 . S
H1205 C1210 0.949 . S
H1206 C1212 0.950 . S
H1207 C1213 0.950 . S
H1208 C1214 0.949 . S
C1209 H1204 0.950 . S
C1209 C1211 1.327 . S
C1209 C1215 1.429 . S
C1210 C1202 1.574 . S
C1210 H1205 0.949 . S
C1210 C1216 1.368 . S
C1211 C1195 1.349 . S
C1211 H1203 0.950 . S
C1211 C1209 1.327 . S
C1212 C1200 1.349 . S
C1212 H1206 0.950 . S
C1212 C1213 1.327 . S
C1213 H1207 0.950 . S
C1213 C1212 1.327 . S
C1213 C1217 1.429 . S
C1214 C1197 1.574 . S
C1214 H1208 0.949 . S
C1214 C1218 1.368 . S
C1215 C1196 1.429 . S
C1215 C1209 1.429 . S
C1215 C1216 1.523 . S
C1216 C1197 1.368 . S
C1216 C1210 1.368 . S
C1216 C1215 1.523 . S
C1217 C1201 1.429 . S
C1217 C1213 1.429 . S
C1217 C1218 1.523 . S
C1218 C1202 1.368 . S
C1218 C1214 1.368 . S
C1218 C1217 1.523 . S
H1219 C1194 0.950 . S
H1220 C1196 0.950 . S
H1221 C1197 0.949 . S
H1222 C1199 0.950 . S
H1223 C1201 0.950 . S
C1224 C1225 1.349 . S
C1224 C1226 1.327 . S
C1224 H1249 0.950 . S
C1225 C1224 1.349 . S
C1225 C1241 1.349 . S
C1226 C1224 1.327 . S
C1226 C1245 1.429 . S
C1226 H1250 0.950 . S
C1227 C1244 1.574 . S
C1227 C1246 1.368 . S
C1227 H1251 0.949 . S
H1228 C1232 0.949 . S
C1229 C1230 1.349 . S
C1229 C1231 1.327 . S
C1229 H1252 0.950 . S
C1230 C1229 1.349 . S
C1230 C1242 1.349 . S
C1231 C1229 1.327 . S
C1231 C1247 1.429 . S
C1231 H1253 0.950 . S
C1232 H1228 0.949 . S
C1232 C1240 1.574 . S
C1232 C1248 1.368 . S
H1233 C1241 0.950 . S
H1234 C1239 0.950 . S
H1235 C1240 0.949 . S
H1236 C1242 0.950 . S
H1237 C1243 0.950 . S
H1238 C1244 0.949 . S
C1239 H1234 0.950 . S
C1239 C1241 1.327 . S
C1239 C1245 1.429 . S
C1240 C1232 1.574 . S
C1240 H1235 0.949 . S
C1240 C1246 1.368 . S
C1241 C1225 1.349 . S
C1241 H1233 0.950 . S
C1241 C1239 1.327 . S
C1242 C1230 1.349 . S
C1242 H1236 0.950 . S
C1242 C1243 1.327 . S
C1243 H1237 0.950 . S
C1243 C1242 1.327 . S
C1243 C1247 1.429 . S
C1244 C1227 1.574 . S
C1244 H1238 0.949 . S
C1244 C1248 1.368 . S
C1245 C1226 1.429 . S
C1245 C1239 1.429 . S
C1245 C1246 1.523 . S
C1246 C1227 1.368 . S
C1246 C1240 1.368 . S
C1246 C1245 1.523 . S
C1247 C1231 1.429 . S
C1247 C1243 1.429 . S
C1247 C1248 1.523 . S
C1248 C1232 1.368 . S
C1248 C1244 1.368 . S
C1248 C1247 1.523 . S
H1249 C1224 0.950 . S
H1250 C1226 0.950 . S
H1251 C1227 0.949 . S
H1252 C1229 0.950 . S
H1253 C1231 0.950 . S
C1254 C1255 1.349 . S
C1254 C1256 1.327 . S
C1254 H1279 0.950 . S
C1255 C1254 1.349 . S
C1255 C1271 1.349 . S
C1256 C1254 1.327 . S
C1256 C1275 1.429 . S
C1256 H1280 0.950 . S
C1257 C1274 1.574 . S
C1257 C1276 1.368 . S
C1257 H1281 0.949 . S
H1258 C1262 0.949 . S
C1259 C1260 1.349 . S
C1259 C1261 1.327 . S
C1259 H1282 0.950 . S
C1260 C1259 1.349 . S
C1260 C1272 1.349 . S
C1261 C1259 1.327 . S
C1261 C1277 1.429 . S
C1261 H1283 0.950 . S
C1262 H1258 0.949 . S
C1262 C1270 1.574 . S
C1262 C1278 1.368 . S
H1263 C1271 0.950 . S
H1264 C1269 0.950 . S
H1265 C1270 0.949 . S
H1266 C1272 0.950 . S
H1267 C1273 0.950 . S
H1268 C1274 0.949 . S
C1269 H1264 0.950 . S
C1269 C1271 1.327 . S
C1269 C1275 1.429 . S
C1270 C1262 1.574 . S
C1270 H1265 0.949 . S
C1270 C1276 1.368 . S
C1271 C1255 1.349 . S
C1271 H1263 0.950 . S
C1271 C1269 1.327 . S
C1272 C1260 1.349 . S
C1272 H1266 0.950 . S
C1272 C1273 1.327 . S
C1273 H1267 0.950 . S
C1273 C1272 1.327 . S
C1273 C1277 1.429 . S
C1274 C1257 1.574 . S
C1274 H1268 0.949 . S
C1274 C1278 1.368 . S
C1275 C1256 1.429 . S
C1275 C1269 1.429 . S
C1275 C1276 1.523 . S
C1276 C1257 1.368 . S
C1276 C1270 1.368 . S
C1276 C1275 1.523 . S
C1277 C1261 1.429 . S
C1277 C1273 1.429 . S
C1277 C1278 1.523 . S
C1278 C1262 1.368 . S
C1278 C1274 1.368 . S
C1278 C1277 1.523 . S
H1279 C1254 0.950 . S
H1280 C1256 0.950 . S
H1281 C1257 0.949 . S
H1282 C1259 0.950 . S
H1283 C1261 0.950 . S
C1284 C1285 1.349 . S
C1284 C1286 1.327 . S
C1284 H1309 0.950 . S
C1285 C1284 1.349 . S
C1285 C1301 1.349 . S
C1286 C1284 1.327 . S
C1286 C1305 1.429 . S
C1286 H1310 0.950 . S
C1287 C1304 1.574 . S
C1287 C1306 1.368 . S
C1287 H1311 0.949 . S
H1288 C1292 0.949 . S
C1289 C1290 1.349 . S
C1289 C1291 1.327 . S
C1289 H1312 0.950 . S
C1290 C1289 1.349 . S
C1290 C1302 1.349 . S
C1291 C1289 1.327 . S
C1291 C1307 1.429 . S
C1291 H1313 0.950 . S
C1292 H1288 0.949 . S
C1292 C1300 1.574 . S
C1292 C1308 1.368 . S
H1293 C1301 0.950 . S
H1294 C1299 0.950 . S
H1295 C1300 0.949 . S
H1296 C1302 0.950 . S
H1297 C1303 0.950 . S
H1298 C1304 0.949 . S
C1299 H1294 0.950 . S
C1299 C1301 1.327 . S
C1299 C1305 1.429 . S
C1300 C1292 1.574 . S
C1300 H1295 0.949 . S
C1300 C1306 1.368 . S
C1301 C1285 1.349 . S
C1301 H1293 0.950 . S
C1301 C1299 1.327 . S
C1302 C1290 1.349 . S
C1302 H1296 0.950 . S
C1302 C1303 1.327 . S
C1303 H1297 0.950 . S
C1303 C1302 1.327 . S
C1303 C1307 1.429 . S
C1304 C1287 1.574 . S
C1304 H1298 0.949 . S
C1304 C1308 1.368 . S
C1305 C1286 1.429 . S
C1305 C1299 1.429 . S
C1305 C1306 1.523 . S
C1306 C1287 1.368 . S
C1306 C1300 1.368 . S
C1306 C1305 1.523 . S
C1307 C1291 1.429 . S
C1307 C1303 1.429 . S
C1307 C1308 1.523 . S
C1308 C1292 1.368 . S
C1308 C1304 1.368 . S
C1308 C1307 1.523 . S
H1309 C1284 0.950 . S
H1310 C1286 0.950 . S
H1311 C1287 0.949 . S
H1312 C1289 0.950 . S
H1313 C1291 0.950 . S
C1314 C1315 1.349 . S
C1314 C1316 1.327 . S
C1314 H1339 0.950 . S
C1315 C1314 1.349 . S
C1315 C1331 1.349 . S
C1316 C1314 1.327 . S
C1316 C1335 1.429 . S
C1316 H1340 0.950 . S
C1317 C1334 1.574 . S
C1317 C1336 1.368 . S
C1317 H1341 0.949 . S
H1318 C1322 0.949 . S
C1319 C1320 1.349 . S
C1319 C1321 1.327 . S
C1319 H1342 0.950 . S
C1320 C1319 1.349 . S
C1320 C1332 1.349 . S
C1321 C1319 1.327 . S
C1321 C1337 1.429 . S
C1321 H1343 0.950 . S
C1322 H1318 0.949 . S
C1322 C1330 1.574 . S
C1322 C1338 1.368 . S
H1323 C1331 0.950 . S
H1324 C1329 0.950 . S
H1325 C1330 0.949 . S
H1326 C1332 0.950 . S
H1327 C1333 0.950 . S
H1328 C1334 0.949 . S
C1329 H1324 0.950 . S
C1329 C1331 1.327 . S
C1329 C1335 1.429 . S
C1330 C1322 1.574 . S
C1330 H1325 0.949 . S
C1330 C1336 1.368 . S
C1331 C1315 1.349 . S
C1331 H1323 0.950 . S
C1331 C1329 1.327 . S
C1332 C1320 1.349 . S
C1332 H1326 0.950 . S
C1332 C1333 1.327 . S
C1333 H1327 0.950 . S
C1333 C1332 1.327 . S
C1333 C1337 1.429 . S
C1334 C1317 1.574 . S
C1334 H1328 0.949 . S
C1334 C1338 1.368 . S
C1335 C1316 1.429 . S
C1335 C1329 1.429 . S
C1335 C1336 1.523 . S
C1336 C1317 1.368 . S
C1336 C1330 1.368 . S
C1336 C1335 1.523 . S
C1337 C1321 1.429 . S
C1337 C1333 1.429 . S
C1337 C1338 1.523 . S
C1338 C1322 1.368 . S
C1338 C1334 1.368 . S
C1338 C1337 1.523 . S
H1339 C1314 0.950 . S
H1340 C1316 0.950 . S
H1341 C1317 0.949 . S
H1342 C1319 0.950 . S
H1343 C1321 0.950 . S
C1344 C1345 1.349 . S
C1344 C1346 1.327 . S
C1344 H1369 0.950 . S
C1345 C1344 1.349 . S
C1345 C1361 1.349 . S
C1346 C1344 1.327 . S
C1346 C1365 1.429 . S
C1346 H1370 0.950 . S
C1347 C1364 1.574 . S
C1347 C1366 1.368 . S
C1347 H1371 0.949 . S
H1348 C1352 0.949 . S
C1349 C1350 1.349 . S
C1349 C1351 1.327 . S
C1349 H1372 0.950 . S
C1350 C1349 1.349 . S
C1350 C1362 1.349 . S
C1351 C1349 1.327 . S
C1351 C1367 1.429 . S
C1351 H1373 0.950 . S
C1352 H1348 0.949 . S
C1352 C1360 1.574 . S
C1352 C1368 1.368 . S
H1353 C1361 0.950 . S
H1354 C1359 0.950 . S
H1355 C1360 0.949 . S
H1356 C1362 0.950 . S
H1357 C1363 0.950 . S
H1358 C1364 0.949 . S
C1359 H1354 0.950 . S
C1359 C1361 1.327 . S
C1359 C1365 1.429 . S
C1360 C1352 1.574 . S
C1360 H1355 0.949 . S
C1360 C1366 1.368 . S
C1361 C1345 1.349 . S
C1361 H1353 0.950 . S
C1361 C1359 1.327 . S
C1362 C1350 1.349 . S
C1362 H1356 0.950 . S
C1362 C1363 1.327 . S
C1363 H1357 0.950 . S
C1363 C1362 1.327 . S
C1363 C1367 1.429 . S
C1364 C1347 1.574 . S
C1364 H1358 0.949 . S
C1364 C1368 1.368 . S
C1365 C1346 1.429 . S
C1365 C1359 1.429 . S
C1365 C1366 1.523 . S
C1366 C1347 1.368 . S
C1366 C1360 1.368 . S
C1366 C1365 1.523 . S
C1367 C1351 1.429 . S
C1367 C1363 1.429 . S
C1367 C1368 1.523 . S
C1368 C1352 1.368 . S
C1368 C1364 1.368 . S
C1368 C1367 1.523 . S
H1369 C1344 0.950 . S
H1370 C1346 0.950 . S
H1371 C1347 0.949 . S
H1372 C1349 0.950 . S
H1373 C1351 0.950 . S
C1374 C1375 1.349 . S
C1374 C1376 1.327 . S
C1374 H1399 0.950 . S
C1375 C1374 1.349 . S
C1375 C1391 1.349 . S
C1376 C1374 1.327 . S
C1376 C1395 1.429 . S
C1376 H1400 0.950 . S
C1377 C1394 1.574 . S
C1377 C1396 1.368 . S
C1377 H1401 0.949 . S
H1378 C1382 0.949 . S
C1379 C1380 1.349 . S
C1379 C1381 1.327 . S
C1379 H1402 0.950 . S
C1380 C1379 1.349 . S
C1380 C1392 1.349 . S
C1381 C1379 1.327 . S
C1381 C1397 1.429 . S
C1381 H1403 0.950 . S
C1382 H1378 0.949 . S
C1382 C1390 1.574 . S
C1382 C1398 1.368 . S
H1383 C1391 0.950 . S
H1384 C1389 0.950 . S
H1385 C1390 0.949 . S
H1386 C1392 0.950 . S
H1387 C1393 0.950 . S
H1388 C1394 0.949 . S
C1389 H1384 0.950 . S
C1389 C1391 1.327 . S
C1389 C1395 1.429 . S
C1390 C1382 1.574 . S
C1390 H1385 0.949 . S
C1390 C1396 1.368 . S
C1391 C1375 1.349 . S
C1391 H1383 0.950 . S
C1391 C1389 1.327 . S
C1392 C1380 1.349 . S
C1392 H1386 0.950 . S
C1392 C1393 1.327 . S
C1393 H1387 0.950 . S
C1393 C1392 1.327 . S
C1393 C1397 1.429 . S
C1394 C1377 1.574 . S
C1394 H1388 0.949 . S
C1394 C1398 1.368 . S
C1395 C1376 1.429 . S
C1395 C1389 1.429 . S
C1395 C1396 1.523 . S
C1396 C1377 1.368 . S
C1396 C1390 1.368 . S
C1396 C1395 1.523 . S
C1397 C1381 1.429 . S
C1397 C1393 1.429 . S
C1397 C1398 1.523 . S
C1398 C1382 1.368 . S
C1398 C1394 1.368 . S
C1398 C1397 1.523 . S
H1399 C1374 0.950 . S
H1400 C1376 0.950 . S
H1401 C1377 0.949 . S
H1402 C1379 0.950 . S
H1403 C1381 0.950 . S
C1404 C1405 1.349 . S
C1404 C1406 1.327 . S
C1404 H1429 0.950 . S
C1405 C1404 1.349 . S
C1405 C1421 1.349 . S
C1406 C1404 1.327 . S
C1406 C1425 1.429 . S
C1406 H1430 0.950 . S
C1407 C1424 1.574 . S
C1407 C1426 1.368 . S
C1407 H1431 0.949 . S
H1408 C1412 0.949 . S
C1409 C1410 1.349 . S
C1409 C1411 1.327 . S
C1409 H1432 0.950 . S
C1410 C1409 1.349 . S
C1410 C1422 1.349 . S
C1411 C1409 1.327 . S
C1411 C1427 1.429 . S
C1411 H1433 0.950 . S
C1412 H1408 0.949 . S
C1412 C1420 1.574 . S
C1412 C1428 1.368 . S
H1413 C1421 0.950 . S
H1414 C1419 0.950 . S
H1415 C1420 0.949 . S
H1416 C1422 0.950 . S
H1417 C1423 0.950 . S
H1418 C1424 0.949 . S
C1419 H1414 0.950 . S
C1419 C1421 1.327 . S
C1419 C1425 1.429 . S
C1420 C1412 1.574 . S
C1420 H1415 0.949 . S
C1420 C1426 1.368 . S
C1421 C1405 1.349 . S
C1421 H1413 0.950 . S
C1421 C1419 1.327 . S
C1422 C1410 1.349 . S
C1422 H1416 0.950 . S
C1422 C1423 1.327 . S
C1423 H1417 0.950 . S
C1423 C1422 1.327 . S
C1423 C1427 1.429 . S
C1424 C1407 1.574 . S
C1424 H1418 0.949 . S
C1424 C1428 1.368 . S
C1425 C1406 1.429 . S
C1425 C1419 1.429 . S
C1425 C1426 1.523 . S
C1426 C1407 1.368 . S
C1426 C1420 1.368 . S
C1426 C1425 1.523 . S
C1427 C1411 1.429 . S
C1427 C1423 1.429 . S
C1427 C1428 1.523 . S
C1428 C1412 1.368 . S
C1428 C1424 1.368 . S
C1428 C1427 1.523 . S
H1429 C1404 0.950 . S
H1430 C1406 0.950 . S
H1431 C1407 0.949 . S
H1432 C1409 0.950 . S
H1433 C1411 0.950 . S
C1434 C1435 1.349 . S
C1434 C1436 1.327 . S
C1434 H1459 0.950 . S
C1435 C1434 1.349 . S
C1435 C1451 1.349 . S
C1436 C1434 1.327 . S
C1436 C1455 1.429 . S
C1436 H1460 0.950 . S
C1437 C1454 1.574 . S
C1437 C1456 1.368 . S
C1437 H1461 0.949 . S
H1438 C1442 0.949 . S
C1439 C1440 1.349 . S
C1439 C1441 1.327 . S
C1439 H1462 0.950 . S
C1440 C1439 1.349 . S
C1440 C1452 1.349 . S
C1441 C1439 1.327 . S
C1441 C1457 1.429 . S
C1441 H1463 0.950 . S
C1442 H1438 0.949 . S
C1442 C1450 1.574 . S
C1442 C1458 1.368 . S
H1443 C1451 0.950 . S
H1444 C1449 0.950 . S
H1445 C1450 0.949 . S
H1446 C1452 0.950 . S
H1447 C1453 0.950 . S
H1448 C1454 0.949 . S
C1449 H1444 0.950 . S
C1449 C1451 1.327 . S
C1449 C1455 1.429 . S
C1450 C1442 1.574 . S
C1450 H1445 0.949 . S
C1450 C1456 1.368 . S
C1451 C1435 1.349 . S
C1451 H1443 0.950 . S
C1451 C1449 1.327 . S
C1452 C1440 1.349 . S
C1452 H1446 0.950 . S
C1452 C1453 1.327 . S
C1453 H1447 0.950 . S
C1453 C1452 1.327 . S
C1453 C1457 1.429 . S
C1454 C1437 1.574 . S
C1454 H1448 0.949 . S
C1454 C1458 1.368 . S
C1455 C1436 1.429 . S
C1455 C1449 1.429 . S
C1455 C1456 1.523 . S
C1456 C1437 1.368 . S
C1456 C1450 1.368 . S
C1456 C1455 1.523 . S
C1457 C1441 1.429 . S
C1457 C1453 1.429 . S
C1457 C1458 1.523 . S
C1458 C1442 1.368 . S
C1458 C1454 1.368 . S
C1458 C1457 1.523 . S
H1459 C1434 0.950 . S
H1460 C1436 0.950 . S
H1461 C1437 0.949 . S
H1462 C1439 0.950 . S
H1463 C1441 0.950 . S
C1464 C1465 1.349 . S
C1464 C1466 1.327 . S
C1464 H1489 0.950 . S
C1465 C1464 1.349 . S
C1465 C1481 1.349 . S
C1466 C1464 1.327 . S
C1466 C1485 1.429 . S
C1466 H1490 0.950 . S
C1467 C1484 1.574 . S
C1467 C1486 1.368 . S
C1467 H1491 0.949 . S
H1468 C1472 0.949 . S
C1469 C1470 1.349 . S
C1469 C1471 1.327 . S
C1469 H1492 0.950 . S
C1470 C1469 1.349 . S
C1470 C1482 1.349 . S
C1471 C1469 1.327 . S
C1471 C1487 1.429 . S
C1471 H1493 0.950 . S
C1472 H1468 0.949 . S
C1472 C1480 1.574 . S
C1472 C1488 1.368 . S
H1473 C1481 0.950 . S
H1474 C1479 0.950 . S
H1475 C1480 0.949 . S
H1476 C1482 0.950 . S
H1477 C1483 0.950 . S
H1478 C1484 0.949 . S
C1479 H1474 0.950 . S
C1479 C1481 1.327 . S
C1479 C1485 1.429 . S
C1480 C1472 1.574 . S
C1480 H1475 0.949 . S
C1480 C1486 1.368 . S
C1481 C1465 1.349 . S
C1481 H1473 0.950 . S
C1481 C1479 1.327 . S
C1482 C1470 1.349 . S
C1482 H1476 0.950 . S
C1482 C1483 1.327 . S
C1483 H1477 0.950 . S
C1483 C1482 1.327 . S
C1483 C1487 1.429 . S
C1484 C1467 1.574 . S
C1484 H1478 0.949 . S
C1484 C1488 1.368 . S
C1485 C1466 1.429 . S
C1485 C1479 1.429 . S
C1485 C1486 1.523 . S
C1486 C1467 1.368 . S
C1486 C1480 1.368 . S
C1486 C1485 1.523 . S
C1487 C1471 1.429 . S
C1487 C1483 1.429 . S
C1487 C1488 1.523 . S
C1488 C1472 1.368 . S
C1488 C1484 1.368 . S
C1488 C1487 1.523 . S
H1489 C1464 0.950 . S
H1490 C1466 0.950 . S
H1491 C1467 0.949 . S
H1492 C1469 0.950 . S
H1493 C1471 0.950 . S
C1494 C1495 1.349 . S
C1494 C1496 1.327 . S
C1494 H1519 0.950 . S
C1495 C1494 1.349 . S
C1495 C1511 1.349 . S
C1496 C1494 1.327 . S
C1496 C1515 1.429 . S
C1496 H1520 0.950 . S
C1497 C1514 1.574 . S
C1497 C1516 1.368 . S
C1497 H1521 0.949 . S
H1498 C1502 0.949 . S
C1499 C1500 1.349 . S
C1499 C1501 1.327 . S
C1499 H1522 0.950 . S
C1500 C1499 1.349 . S
C1500 C1512 1.349 . S
C1501 C1499 1.327 . S
C1501 C1517 1.429 . S
C1501 H1523 0.950 . S
C1502 H1498 0.949 . S
C1502 C1510 1.574 . S
C1502 C1518 1.368 . S
H1503 C1511 0.950 . S
H1504 C1509 0.950 . S
H1505 C1510 0.949 . S
H1506 C1512 0.950 . S
H1507 C1513 0.950 . S
H1508 C1514 0.949 . S
C1509 H1504 0.950 . S
C1509 C1511 1.327 . S
C1509 C1515 1.429 . S
C1510 C1502 1.574 . S
C1510 H1505 0.949 . S
C1510 C1516 1.368 . S
C1511 C1495 1.349 . S
C1511 H1503 0.950 . S
C1511 C1509 1.327 . S
C1512 C1500 1.349 . S
C1512 H1506 0.950 . S
C1512 C1513 1.327 . S
C1513 H1507 0.950 . S
C1513 C1512 1.327 . S
C1513 C1517 1.429 . S
C1514 C1497 1.574 . S
C1514 H1508 0.949 . S
C1514 C1518 1.368 . S
C1515 C1496 1.429 . S
C1515 C1509 1.429 . S
C1515 C1516 1.523 . S
C1516 C1497 1.368 . S
C1516 C1510 1.368 . S
C1516 C1515 1.523 . S
C1517 C1501 1.429 . S
C1517 C1513 1.429 . S
C1517 C1518 1.523 . S
C1518 C1502 1.368 . S
C1518 C1514 1.368 . S
C1518 C1517 1.523 . S
H1519 C1494 0.950 . S
H1520 C1496 0.950 . S
H1521 C1497 0.949 . S
H1522 C1499 0.950 . S
H1523 C1501 0.950 . S
C1524 C1525 1.349 . S
C1524 C1526 1.327 . S
C1524 H1549 0.950 . S
C1525 C1524 1.349 . S
C1525 C1541 1.349 . S
C1526 C1524 1.327 . S
C1526 C1545 1.429 . S
C1526 H1550 0.950 . S
C1527 C1544 1.574 . S
C1527 C1546 1.368 . S
C1527 H1551 0.949 . S
H1528 C1532 0.949 . S
C1529 C1530 1.349 . S
C1529 C1531 1.327 . S
C1529 H1552 0.950 . S
C1530 C1529 1.349 . S
C1530 C1542 1.349 . S
C1531 C1529 1.327 . S
C1531 C1547 1.429 . S
C1531 H1553 0.950 . S
C1532 H1528 0.949 . S
C1532 C1540 1.574 . S
C1532 C1548 1.368 . S
H1533 C1541 0.950 . S
H1534 C1539 0.950 . S
H1535 C1540 0.949 . S
H1536 C1542 0.950 . S
H1537 C1543 0.950 . S
H1538 C1544 0.949 . S
C1539 H1534 0.950 . S
C1539 C1541 1.327 . S
C1539 C1545 1.429 . S
C1540 C1532 1.574 . S
C1540 H1535 0.949 . S
C1540 C1546 1.368 . S
C1541 C1525 1.349 . S
C1541 H1533 0.950 . S
C1541 C1539 1.327 . S
C1542 C1530 1.349 . S
C1542 H1536 0.950 . S
C1542 C1543 1.327 . S
C1543 H1537 0.950 . S
C1543 C1542 1.327 . S
C1543 C1547 1.429 . S
C1544 C1527 1.574 . S
C1544 H1538 0.949 . S
C1544 C1548 1.368 . S
C1545 C1526 1.429 . S
C1545 C1539 1.429 . S
C1545 C1546 1.523 . S
C1546 C1527 1.368 . S
C1546 C1540 1.368 . S
C1546 C1545 1.523 . S
C1547 C1531 1.429 . S
C1547 C1543 1.429 . S
C1547 C1548 1.523 . S
C1548 C1532 1.368 . S
C1548 C1544 1.368 . S
C1548 C1547 1.523 . S
H1549 C1524 0.950 . S
H1550 C1526 0.950 . S
H1551 C1527 0.949 . S
H1552 C1529 0.950 . S
H1553 C1531 0.950 . S
C1554 C1555 1.349 . S
C1554 C1556 1.327 . S
C1554 H1579 0.950 . S
C1555 C1554 1.349 . S
C1555 C1571 1.349 . S
C1556 C1554 1.327 . S
C1556 C1575 1.429 . S
C1556 H1580 0.950 . S
C1557 C1574 1.574 . S
C1557 C1576 1.368 . S
C1557 H1581 0.949 . S
H1558 C1562 0.949 . S
C1559 C1560 1.349 . S
C1559 C1561 1.327 . S
C1559 H1582 0.950 . S
C1560 C1559 1.349 . S
C1560 C1572 1.349 . S
C1561 C1559 1.327 . S
C1561 C1577 1.429 . S
C1561 H1583 0.950 . S
C1562 H1558 0.949 . S
C1562 C1570 1.574 . S
C1562 C1578 1.368 . S
H1563 C1571 0.950 . S
H1564 C1569 0.950 . S
H1565 C1570 0.949 . S
H1566 C1572 0.950 . S
H1567 C1573 0.950 . S
H1568 C1574 0.949 . S
C1569 H1564 0.950 . S
C1569 C1571 1.327 . S
C1569 C1575 1.429 . S
C1570 C1562 1.574 . S
C1570 H1565 0.949 . S
C1570 C1576 1.368 . S
C1571 C1555 1.349 . S
C1571 H1563 0.950 . S
C1571 C1569 1.327 . S
C1572 C1560 1.349 . S
C1572 H1566 0.950 . S
C1572 C1573 1.327 . S
C1573 H1567 0.950 . S
C1573 C1572 1.327 . S
C1573 C1577 1.429 . S
C1574 C1557 1.574 . S
C1574 H1568 0.949 . S
C1574 C1578 1.368 . S
C1575 C1556 1.429 . S
C1575 C1569 1.429 . S
C1575 C1576 1.523 . S
C1576 C1557 1.368 . S
C1576 C1570 1.368 . S
C1576 C1575 1.523 . S
C1577 C1561 1.429 . S
C1577 C1573 1.429 . S
C1577 C1578 1.523 . S
C1578 C1562 1.368 . S
C1578 C1574 1.368 . S
C1578 C1577 1.523 . S
H1579 C1554 0.950 . S
H1580 C1556 0.950 . S
H1581 C1557 0.949 . S
H1582 C1559 0.950 . S
H1583 C1561 0.950 . S
C1584 C1585 1.349 . S
C1584 C1586 1.327 . S
C1584 H1609 0.950 . S
C1585 C1584 1.349 . S
C1585 C1601 1.349 . S
C1586 C1584 1.327 . S
C1586 C1605 1.429 . S
C1586 H1610 0.950 . S
C1587 C1604 1.574 . S
C1587 C1606 1.368 . S
C1587 H1611 0.949 . S
H1588 C1592 0.949 . S
C1589 C1590 1.349 . S
C1589 C1591 1.327 . S
C1589 H1612 0.950 . S
C1590 C1589 1.349 . S
C1590 C1602 1.349 . S
C1591 C1589 1.327 . S
C1591 C1607 1.429 . S
C1591 H1613 0.950 . S
C1592 H1588 0.949 . S
C1592 C1600 1.574 . S
C1592 C1608 1.368 . S
H1593 C1601 0.950 . S
H1594 C1599 0.950 . S
H1595 C1600 0.949 . S
H1596 C1602 0.950 . S
H1597 C1603 0.950 . S
H1598 C1604 0.949 . S
C1599 H1594 0.950 . S
C1599 C1601 1.327 . S
C1599 C1605 1.429 . S
C1600 C1592 1.574 . S
C1600 H1595 0.949 . S
C1600 C1606 1.368 . S
C1601 C1585 1.349 . S
C1601 H1593 0.950 . S
C1601 C1599 1.327 . S
C1602 C1590 1.349 . S
C1602 H1596 0.950 . S
C1602 C1603 1.327 . S
C1603 H1597 0.950 . S
C1603 C1602 1.327 . S
C1603 C1607 1.429 . S
C1604 C1587 1.574 . S
C1604 H1598 0.949 . S
C1604 C1608 1.368 . S
C1605 C1586 1.429 . S
C1605 C1599 1.429 . S
C1605 C1606 1.523 . S
C1606 C1587 1.368 . S
C1606 C1600 1.368 . S
C1606 C1605 1.523 . S
C1607 C1591 1.429 . S
C1607 C1603 1.429 . S
C1607 C1608 1.523 . S
C1608 C1592 1.368 . S
C1608 C1604 1.368 . S
C1608 C1607 1.523 . S
H1609 C1584 0.950 . S
H1610 C1586 0.950 . S
H1611 C1587 0.949 . S
H1612 C1589 0.950 . S
H1613 C1591 0.950 . S
C1614 C1615 1.349 . S
C1614 C1616 1.327 . S
C1614 H1639 0.950 . S
C1615 C1614 1.349 . S
C1615 C1631 1.349 . S
C1616 C1614 1.327 . S
C1616 C1635 1.429 . S
C1616 H1640 0.950 . S
C1617 C1634 1.574 . S
C1617 C1636 1.368 . S
C1617 H1641 0.949 . S
H1618 C1622 0.949 . S
C1619 C1620 1.349 . S
C1619 C1621 1.327 . S
C1619 H1642 0.950 . S
C1620 C1619 1.349 . S
C1620 C1632 1.349 . S
C1621 C1619 1.327 . S
C1621 C1637 1.429 . S
C1621 H1643 0.950 . S
C1622 H1618 0.949 . S
C1622 C1630 1.574 . S
C1622 C1638 1.368 . S
H1623 C1631 0.950 . S
H1624 C1629 0.950 . S
H1625 C1630 0.949 . S
H1626 C1632 0.950 . S
H1627 C1633 0.950 . S
H1628 C1634 0.949 . S
C1629 H1624 0.950 . S
C1629 C1631 1.327 . S
C1629 C1635 1.429 . S
C1630 C1622 1.574 . S
C1630 H1625 0.949 . S
C1630 C1636 1.368 . S
C1631 C1615 1.349 . S
C1631 H1623 0.950 . S
C1631 C1629 1.327 . S
C1632 C1620 1.349 . S
C1632 H1626 0.950 . S
C1632 C1633 1.327 . S
C1633 H1627 0.950 . S
C1633 C1632 1.327 . S
C1633 C1637 1.429 . S
C1634 C1617 1.574 . S
C1634 H1628 0.949 . S
C1634 C1638 1.368 . S
C1635 C1616 1.429 . S
C1635 C1629 1.429 . S
C1635 C1636 1.523 . S
C1636 C1617 1.368 . S
C1636 C1630 1.368 . S
C1636 C1635 1.523 . S
C1637 C1621 1.429 . S
C1637 C1633 1.429 . S
C1637 C1638 1.523 . S
C1638 C1622 1.368 . S
C1638 C1634 1.368 . S
C1638 C1637 1.523 . S
H1639 C1614 0.950 . S
H1640 C1616 0.950 . S
H1641 C1617 0.949 . S
H1642 C1619 0.950 . S
H1643 C1621 0.950 . S
C1644 C1645 1.349 . S
C1644 C1646 1.327 . S
C1644 H1669 0.950 . S
C1645 C1644 1.349 . S
C1645 C1661 1.349 . S
C1646 C1644 1.327 . S
C1646 C1665 1.429 . S
C1646 H1670 0.950 . S
C1647 C1664 1.574 . S
C1647 C1666 1.368 . S
C1647 H1671 0.949 . S
H1648 C1652 0.949 . S
C1649 C1650 1.349 . S
C1649 C1651 1.327 . S
C1649 H1672 0.950 . S
C1650 C1649 1.349 . S
C1650 C1662 1.349 . S
C1651 C1649 1.327 . S
C1651 C1667 1.429 . S
C1651 H1673 0.950 . S
C1652 H1648 0.949 . S
C1652 C1660 1.574 . S
C1652 C1668 1.368 . S
H1653 C1661 0.950 . S
H1654 C1659 0.950 . S
H1655 C1660 0.949 . S
H1656 C1662 0.950 . S
H1657 C1663 0.950 . S
H1658 C1664 0.949 . S
C1659 H1654 0.950 . S
C1659 C1661 1.327 . S
C1659 C1665 1.429 . S
C1660 C1652 1.574 . S
C1660 H1655 0.949 . S
C1660 C1666 1.368 . S
C1661 C1645 1.349 . S
C1661 H1653 0.950 . S
C1661 C1659 1.327 . S
C1662 C1650 1.349 . S
C1662 H1656 0.950 . S
C1662 C1663 1.327 . S
C1663 H1657 0.950 . S
C1663 C1662 1.327 . S
C1663 C1667 1.429 . S
C1664 C1647 1.574 . S
C1664 H1658 0.949 . S
C1664 C1668 1.368 . S
C1665 C1646 1.429 . S
C1665 C1659 1.429 . S
C1665 C1666 1.523 . S
C1666 C1647 1.368 . S
C1666 C1660 1.368 . S
C1666 C1665 1.523 . S
C1667 C1651 1.429 . S
C1667 C1663 1.429 . S
C1667 C1668 1.523 . S
C1668 C1652 1.368 . S
C1668 C1664 1.368 . S
C1668 C1667 1.523 . S
H1669 C1644 0.950 . S
H1670 C1646 0.950 . S
H1671 C1647 0.949 . S
H1672 C1649 0.950 . S
H1673 C1651 0.950 . S
C1674 C1675 1.349 . S
C1674 C1676 1.327 . S
C1674 H1699 0.950 . S
C1675 C1674 1.349 . S
C1675 C1691 1.349 . S
C1676 C1674 1.327 . S
C1676 C1695 1.429 . S
C1676 H1700 0.950 . S
C1677 C1694 1.574 . S
C1677 C1696 1.368 . S
C1677 H1701 0.949 . S
H1678 C1682 0.949 . S
C1679 C1680 1.349 . S
C1679 C1681 1.327 . S
C1679 H1702 0.950 . S
C1680 C1679 1.349 . S
C1680 C1692 1.349 . S
C1681 C1679 1.327 . S
C1681 C1697 1.429 . S
C1681 H1703 0.950 . S
C1682 H1678 0.949 . S
C1682 C1690 1.574 . S
C1682 C1698 1.368 . S
H1683 C1691 0.950 . S
H1684 C1689 0.950 . S
H1685 C1690 0.949 . S
H1686 C1692 0.950 . S
H1687 C1693 0.950 . S
H1688 C1694 0.949 . S
C1689 H1684 0.950 . S
C1689 C1691 1.327 . S
C1689 C1695 1.429 . S
C1690 C1682 1.574 . S
C1690 H1685 0.949 . S
C1690 C1696 1.368 . S
C1691 C1675 1.349 . S
C1691 H1683 0.950 . S
C1691 C1689 1.327 . S
C1692 C1680 1.349 . S
C1692 H1686 0.950 . S
C1692 C1693 1.327 . S
C1693 H1687 0.950 . S
C1693 C1692 1.327 . S
C1693 C1697 1.429 . S
C1694 C1677 1.574 . S
C1694 H1688 0.949 . S
C1694 C1698 1.368 . S
C1695 C1676 1.429 . S
C1695 C1689 1.429 . S
C1695 C1696 1.523 . S
C1696 C1677 1.368 . S
C1696 C1690 1.368 . S
C1696 C1695 1.523 . S
C1697 C1681 1.429 . S
C1697 C1693 1.429 . S
C1697 C1698 1.523 . S
C1698 C1682 1.368 . S
C1698 C1694 1.368 . S
C1698 C1697 1.523 . S
H1699 C1674 0.950 . S
H1700 C1676 0.950 . S
H1701 C1677 0.949 . S
H1702 C1679 0.950 . S
H1703 C1681 0.950 . S
C1704 C1705 1.349 . S
C1704 C1706 1.327 . S
C1704 H1729 0.950 . S
C1705 C1704 1.349 . S
C1705 C1721 1.349 . S
C1706 C1704 1.327 . S
C1706 C1725 1.429 . S
C1706 H1730 0.950 . S
C1707 C1724 1.574 . S
C1707 C1726 1.368 . S
C1707 H1731 0.949 . S
H1708 C1712 0.949 . S
C1709 C1710 1.349 . S
C1709 C1711 1.327 . S
C1709 H1732 0.950 . S
C1710 C1709 1.349 . S
C1710 C1722 1.349 . S
C1711 C1709 1.327 . S
C1711 C1727 1.429 . S
C1711 H1733 0.950 . S
C1712 H1708 0.949 . S
C1712 C1720 1.574 . S
C1712 C1728 1.368 . S
H1713 C1721 0.950 . S
H1714 C1719 0.950 . S
H1715 C1720 0.949 . S
H1716 C1722 0.950 . S
H1717 C1723 0.950 . S
H1718 C1724 0.949 . S
C1719 H1714 0.950 . S
C1719 C1721 1.327 . S
C1719 C1725 1.429 . S
C1720 C1712 1.574 . S
C1720 H1715 0.949 . S
C1720 C1726 1.368 . S
C1721 C1705 1.349 . S
C1721 H1713 0.950 . S
C1721 C1719 1.327 . S
C1722 C1710 1.349 . S
C1722 H1716 0.950 . S
C1722 C1723 1.327 . S
C1723 H1717 0.950 . S
C1723 C1722 1.327 . S
C1723 C1727 1.429 . S
C1724 C1707 1.574 . S
C1724 H1718 0.949 . S
C1724 C1728 1.368 . S
C1725 C1706 1.429 . S
C1725 C1719 1.429 . S
C1725 C1726 1.523 . S
C1726 C1707 1.368 . S
C1726 C1720 1.368 . S
C1726 C1725 1.523 . S
C1727 C1711 1.429 . S
C1727 C1723 1.429 . S
C1727 C1728 1.523 . S
C1728 C1712 1.368 . S
C1728 C1724 1.368 . S
C1728 C1727 1.523 . S
H1729 C1704 0.950 . S
H1730 C1706 0.950 . S
H1731 C1707 0.949 . S
H1732 C1709 0.950 . S
H1733 C1711 0.950 . S
C1734 C1735 1.349 . S
C1734 C1736 1.327 . S
C1734 H1759 0.950 . S
C1735 C1734 1.349 . S
C1735 C1751 1.349 . S
C1736 C1734 1.327 . S
C1736 C1755 1.429 . S
C1736 H1760 0.950 . S
C1737 C1754 1.574 . S
C1737 C1756 1.368 . S
C1737 H1761 0.949 . S
H1738 C1742 0.949 . S
C1739 C1740 1.349 . S
C1739 C1741 1.327 . S
C1739 H1762 0.950 . S
C1740 C1739 1.349 . S
C1740 C1752 1.349 . S
C1741 C1739 1.327 . S
C1741 C1757 1.429 . S
C1741 H1763 0.950 . S
C1742 H1738 0.949 . S
C1742 C1750 1.574 . S
C1742 C1758 1.368 . S
H1743 C1751 0.950 . S
H1744 C1749 0.950 . S
H1745 C1750 0.949 . S
H1746 C1752 0.950 . S
H1747 C1753 0.950 . S
H1748 C1754 0.949 . S
C1749 H1744 0.950 . S
C1749 C1751 1.327 . S
C1749 C1755 1.429 . S
C1750 C1742 1.574 . S
C1750 H1745 0.949 . S
C1750 C1756 1.368 . S
C1751 C1735 1.349 . S
C1751 H1743 0.950 . S
C1751 C1749 1.327 . S
C1752 C1740 1.349 . S
C1752 H1746 0.950 . S
C1752 C1753 1.327 . S
C1753 H1747 0.950 . S
C1753 C1752 1.327 . S
C1753 C1757 1.429 . S
C1754 C1737 1.574 . S
C1754 H1748 0.949 . S
C1754 C1758 1.368 . S
C1755 C1736 1.429 . S
C1755 C1749 1.429 . S
C1755 C1756 1.523 . S
C1756 C1737 1.368 . S
C1756 C1750 1.368 . S
C1756 C1755 1.523 . S
C1757 C1741 1.429 . S
C1757 C1753 1.429 . S
C1757 C1758 1.523 . S
C1758 C1742 1.368 . S
C1758 C1754 1.368 . S
C1758 C1757 1.523 . S
H1759 C1734 0.950 . S
H1760 C1736 0.950 . S
H1761 C1737 0.949 . S
H1762 C1739 0.950 . S
H1763 C1741 0.950 . S
C1764 C1765 1.349 . S
C1764 C1766 1.327 . S
C1764 H1789 0.950 . S
C1765 C1764 1.349 . S
C1765 C1781 1.349 . S
C1766 C1764 1.327 . S
C1766 C1785 1.429 . S
C1766 H1790 0.950 . S
C1767 C1784 1.574 . S
C1767 C1786 1.368 . S
C1767 H1791 0.949 . S
H1768 C1772 0.949 . S
C1769 C1770 1.349 . S
C1769 C1771 1.327 . S
C1769 H1792 0.950 . S
C1770 C1769 1.349 . S
C1770 C1782 1.349 . S
C1771 C1769 1.327 . S
C1771 C1787 1.429 . S
C1771 H1793 0.950 . S
C1772 H1768 0.949 . S
C1772 C1780 1.574 . S
C1772 C1788 1.368 . S
H1773 C1781 0.950 . S
H1774 C1779 0.950 . S
H1775 C1780 0.949 . S
H1776 C1782 0.950 . S
H1777 C1783 0.950 . S
H1778 C1784 0.949 . S
C1779 H1774 0.950 . S
C1779 C1781 1.327 . S
C1779 C1785 1.429 . S
C1780 C1772 1.574 . S
C1780 H1775 0.949 . S
C1780 C1786 1.368 . S
C1781 C1765 1.349 . S
C1781 H1773 0.950 . S
C1781 C1779 1.327 . S
C1782 C1770 1.349 . S
C1782 H1776 0.950 . S
C1782 C1783 1.327 . S
C1783 H1777 0.950 . S
C1783 C1782 1.327 . S
C1783 C1787 1.429 . S
C1784 C1767 1.574 . S
C1784 H1778 0.949 . S
C1784 C1788 1.368 . S
C1785 C1766 1.429 . S
C1785 C1779 1.429 . S
C1785 C1786 1.523 . S
C1786 C1767 1.368 . S
C1786 C1780 1.368 . S
C1786 C1785 1.523 . S
C1787 C1771 1.429 . S
C1787 C1783 1.429 . S
C1787 C1788 1.523 . S
C1788 C1772 1.368 . S
C1788 C1784 1.368 . S
C1788 C1787 1.523 . S
H1789 C1764 0.950 . S
H1790 C1766 0.950 . S
H1791 C1767 0.949 . S
H1792 C1769 0.950 . S
H1793 C1771 0.950 . S
C1794 C1795 1.349 . S
C1794 C1796 1.327 . S
C1794 H1819 0.950 . S
C1795 C1794 1.349 . S
C1795 C1811 1.349 . S
C1796 C1794 1.327 . S
C1796 C1815 1.429 . S
C1796 H1820 0.950 . S
C1797 C1814 1.574 . S
C1797 C1816 1.368 . S
C1797 H1821 0.949 . S
H1798 C1802 0.949 . S
C1799 C1800 1.349 . S
C1799 C1801 1.327 . S
C1799 H1822 0.950 . S
C1800 C1799 1.349 . S
C1800 C1812 1.349 . S
C1801 C1799 1.327 . S
C1801 C1817 1.429 . S
C1801 H1823 0.950 . S
C1802 H1798 0.949 . S
C1802 C1810 1.574 . S
C1802 C1818 1.368 . S
H1803 C1811 0.950 . S
H1804 C1809 0.950 . S
H1805 C1810 0.949 . S
H1806 C1812 0.950 . S
H1807 C1813 0.950 . S
H1808 C1814 0.949 . S
C1809 H1804 0.950 . S
C1809 C1811 1.327 . S
C1809 C1815 1.429 . S
C1810 C1802 1.574 . S
C1810 H1805 0.949 . S
C1810 C1816 1.368 . S
C1811 C1795 1.349 . S
C1811 H1803 0.950 . S
C1811 C1809 1.327 . S
C1812 C1800 1.349 . S
C1812 H1806 0.950 . S
C1812 C1813 1.327 . S
C1813 H1807 0.950 . S
C1813 C1812 1.327 . S
C1813 C1817 1.429 . S
C1814 C1797 1.574 . S
C1814 H1808 0.949 . S
C1814 C1818 1.368 . S
C1815 C1796 1.429 . S
C1815 C1809 1.429 . S
C1815 C1816 1.523 . S
C1816 C1797 1.368 . S
C1816 C1810 1.368 . S
C1816 C1815 1.523 . S
C1817 C1801 1.429 . S
C1817 C1813 1.429 . S
C1817 C1818 1.523 . S
C1818 C1802 1.368 . S
C1818 C1814 1.368 . S
C1818 C1817 1.523 . S
H1819 C1794 0.950 . S
H1820 C1796 0.950 . S
H1821 C1797 0.949 . S
H1822 C1799 0.950 . S
H1823 C1801 0.950 . S
C1824 C1825 1.349 . S
C1824 C1826 1.327 . S
C1824 H1849 0.950 . S
C1825 C1824 1.349 . S
C1825 C1841 1.349 . S
C1826 C1824 1.327 . S
C1826 C1845 1.429 . S
C1826 H1850 0.950 . S
C1827 C1844 1.574 . S
C1827 C1846 1.368 . S
C1827 H1851 0.949 . S
H1828 C1832 0.949 . S
C1829 C1830 1.349 . S
C1829 C1831 1.327 . S
C1829 H1852 0.950 . S
C1830 C1829 1.349 . S
C1830 C1842 1.349 . S
C1831 C1829 1.327 . S
C1831 C1847 1.429 . S
C1831 H1853 0.950 . S
C1832 H1828 0.949 . S
C1832 C1840 1.574 . S
C1832 C1848 1.368 . S
H1833 C1841 0.950 . S
H1834 C1839 0.950 . S
H1835 C1840 0.949 . S
H1836 C1842 0.950 . S
H1837 C1843 0.950 . S
H1838 C1844 0.949 . S
C1839 H1834 0.950 . S
C1839 C1841 1.327 . S
C1839 C1845 1.429 . S
C1840 C1832 1.574 . S
C1840 H1835 0.949 . S
C1840 C1846 1.368 . S
C1841 C1825 1.349 . S
C1841 H1833 0.950 . S
C1841 C1839 1.327 . S
C1842 C1830 1.349 . S
C1842 H1836 0.950 . S
C1842 C1843 1.327 . S
C1843 H1837 0.950 . S
C1843 C1842 1.327 . S
C1843 C1847 1.429 . S
C1844 C1827 1.574 . S
C1844 H1838 0.949 . S
C1844 C1848 1.368 . S
C1845 C1826 1.429 . S
C1845 C1839 1.429 . S
C1845 C1846 1.523 . S
C1846 C1827 1.368 . S
C1846 C1840 1.368 . S
C1846 C1845 1.523 . S
C1847 C1831 1.429 . S
C1847 C1843 1.429 . S
C1847 C1848 1.523 . S
C1848 C1832 1.368 . S
C1848 C1844 1.368 . S
C1848 C1847 1.523 . S
H1849 C1824 0.950 . S
H1850 C1826 0.950 . S
H1851 C1827 0.949 . S
H1852 C1829 0.950 . S
H1853 C1831 0.950 . S
C1854 C1855 1.349 . S
C1854 C1856 1.327 . S
C1854 H1879 0.950 . S
C1855 C1854 1.349 . S
C1855 C1871 1.349 . S
C1856 C1854 1.327 . S
C1856 C1875 1.429 . S
C1856 H1880 0.950 . S
C1857 C1874 1.574 . S
C1857 C1876 1.368 . S
C1857 H1881 0.949 . S
H1858 C1862 0.949 . S
C1859 C1860 1.349 . S
C1859 C1861 1.327 . S
C1859 H1882 0.950 . S
C1860 C1859 1.349 . S
C1860 C1872 1.349 . S
C1861 C1859 1.327 . S
C1861 C1877 1.429 . S
C1861 H1883 0.950 . S
C1862 H1858 0.949 . S
C1862 C1870 1.574 . S
C1862 C1878 1.368 . S
H1863 C1871 0.950 . S
H1864 C1869 0.950 . S
H1865 C1870 0.949 . S
H1866 C1872 0.950 . S
H1867 C1873 0.950 . S
H1868 C1874 0.949 . S
C1869 H1864 0.950 . S
C1869 C1871 1.327 . S
C1869 C1875 1.429 . S
C1870 C1862 1.574 . S
C1870 H1865 0.949 . S
C1870 C1876 1.368 . S
C1871 C1855 1.349 . S
C1871 H1863 0.950 . S
C1871 C1869 1.327 . S
C1872 C1860 1.349 . S
C1872 H1866 0.950 . S
C1872 C1873 1.327 . S
C1873 H1867 0.950 . S
C1873 C1872 1.327 . S
C1873 C1877 1.429 . S
C1874 C1857 1.574 . S
C1874 H1868 0.949 . S
C1874 C1878 1.368 . S
C1875 C1856 1.429 . S
C1875 C1869 1.429 . S
C1875 C1876 1.523 . S
C1876 C1857 1.368 . S
C1876 C1870 1.368 . S
C1876 C1875 1.523 . S
C1877 C1861 1.429 . S
C1877 C1873 1.429 . S
C1877 C1878 1.523 . S
C1878 C1862 1.368 . S
C1878 C1874 1.368 . S
C1878 C1877 1.523 . S
H1879 C1854 0.950 . S
H1880 C1856 0.950 . S
H1881 C1857 0.949 . S
H1882 C1859 0.950 . S
H1883 C1861 0.950 . S
C1884 C1885 1.349 . S
C1884 C1886 1.327 . S
C1884 H1909 0.950 . S
C1885 C1884 1.349 . S
C1885 C1901 1.349 . S
C1886 C1884 1.327 . S
C1886 C1905 1.429 . S
C1886 H1910 0.950 . S
C1887 C1904 1.574 . S
C1887 C1906 1.368 . S
C1887 H1911 0.949 . S
H1888 C1892 0.949 . S
C1889 C1890 1.349 . S
C1889 C1891 1.327 . S
C1889 H1912 0.950 . S
C1890 C1889 1.349 . S
C1890 C1902 1.349 . S
C1891 C1889 1.327 . S
C1891 C1907 1.429 . S
C1891 H1913 0.950 . S
C1892 H1888 0.949 . S
C1892 C1900 1.574 . S
C1892 C1908 1.368 . S
H1893 C1901 0.950 . S
H1894 C1899 0.950 . S
H1895 C1900 0.949 . S
H1896 C1902 0.950 . S
H1897 C1903 0.950 . S
H1898 C1904 0.949 . S
C1899 H1894 0.950 . S
C1899 C1901 1.327 . S
C1899 C1905 1.429 . S
C1900 C1892 1.574 . S
C1900 H1895 0.949 . S
C1900 C1906 1.368 . S
C1901 C1885 1.349 . S
C1901 H1893 0.950 . S
C1901 C1899 1.327 . S
C1902 C1890 1.349 . S
C1902 H1896 0.950 . S
C1902 C1903 1.327 . S
C1903 H1897 0.950 . S
C1903 C1902 1.327 . S
C1903 C1907 1.429 . S
C1904 C1887 1.574 . S
C1904 H1898 0.949 . S
C1904 C1908 1.368 . S
C1905 C1886 1.429 . S
C1905 C1899 1.429 . S
C1905 C1906 1.523 . S
C1906 C1887 1.368 . S
C1906 C1900 1.368 . S
C1906 C1905 1.523 . S
C1907 C1891 1.429 . S
C1907 C1903 1.429 . S
C1907 C1908 1.523 . S
C1908 C1892 1.368 . S
C1908 C1904 1.368 . S
C1908 C1907 1.523 . S
H1909 C1884 0.950 . S
H1910 C1886 0.950 . S
H1911 C1887 0.949 . S
H1912 C1889 0.950 . S
H1913 C1891 0.950 . S
C1914 C1915 1.349 . S
C1914 C1916 1.327 . S
C1914 H1939 0.950 . S
C1915 C1914 1.349 . S
C1915 C1931 1.349 . S
C1916 C1914 1.327 . S
C1916 C1935 1.429 . S
C1916 H1940 0.950 . S
C1917 C1934 1.574 . S
C1917 C1936 1.368 . S
C1917 H1941 0.949 . S
H1918 C1922 0.949 . S
C1919 C1920 1.349 . S
C1919 C1921 1.327 . S
C1919 H1942 0.950 . S
C1920 C1919 1.349 . S
C1920 C1932 1.349 . S
C1921 C1919 1.327 . S
C1921 C1937 1.429 . S
C1921 H1943 0.950 . S
C1922 H1918 0.949 . S
C1922 C1930 1.574 . S
C1922 C1938 1.368 . S
H1923 C1931 0.950 . S
H1924 C1929 0.950 . S
H1925 C1930 0.949 . S
H1926 C1932 0.950 . S
H1927 C1933 0.950 . S
H1928 C1934 0.949 . S
C1929 H1924 0.950 . S
C1929 C1931 1.327 . S
C1929 C1935 1.429 . S
C1930 C1922 1.574 . S
C1930 H1925 0.949 . S
C1930 C1936 1.368 . S
C1931 C1915 1.349 . S
C1931 H1923 0.950 . S
C1931 C1929 1.327 . S
C1932 C1920 1.349 . S
C1932 H1926 0.950 . S
C1932 C1933 1.327 . S
C1933 H1927 0.950 . S
C1933 C1932 1.327 . S
C1933 C1937 1.429 . S
C1934 C1917 1.574 . S
C1934 H1928 0.949 . S
C1934 C1938 1.368 . S
C1935 C1916 1.429 . S
C1935 C1929 1.429 . S
C1935 C1936 1.523 . S
C1936 C1917 1.368 . S
C1936 C1930 1.368 . S
C1936 C1935 1.523 . S
C1937 C1921 1.429 . S
C1937 C1933 1.429 . S
C1937 C1938 1.523 . S
C1938 C1922 1.368 . S
C1938 C1934 1.368 . S
C1938 C1937 1.523 . S
H1939 C1914 0.950 . S
H1940 C1916 0.950 . S
H1941 C1917 0.949 . S
H1942 C1919 0.950 . S
H1943 C1921 0.950 . S
C1944 C1945 1.349 . S
C1944 C1946 1.327 . S
C1944 H1969 0.950 . S
C1945 C1944 1.349 . S
C1945 C1961 1.349 . S
C1946 C1944 1.327 . S
C1946 C1965 1.429 . S
C1946 H1970 0.950 . S
C1947 C1964 1.574 . S
C1947 C1966 1.368 . S
C1947 H1971 0.949 . S
H1948 C1952 0.949 . S
C1949 C1950 1.349 . S
C1949 C1951 1.327 . S
C1949 H1972 0.950 . S
C1950 C1949 1.349 . S
C1950 C1962 1.349 . S
C1951 C1949 1.327 . S
C1951 C1967 1.429 . S
C1951 H1973 0.950 . S
C1952 H1948 0.949 . S
C1952 C1960 1.574 . S
C1952 C1968 1.368 . S
H1953 C1961 0.950 . S
H1954 C1959 0.950 . S
H1955 C1960 0.949 . S
H1956 C1962 0.950 . S
H1957 C1963 0.950 . S
H1958 C1964 0.949 . S
C1959 H1954 0.950 . S
C1959 C1961 1.327 . S
C1959 C1965 1.429 . S
C1960 C1952 1.574 . S
C1960 H1955 0.949 . S
C1960 C1966 1.368 . S
C1961 C1945 1.349 . S
C1961 H1953 0.950 . S
C1961 C1959 1.327 . S
C1962 C1950 1.349 . S
C1962 H1956 0.950 . S
C1962 C1963 1.327 . S
C1963 H1957 0.950 . S
C1963 C1962 1.327 . S
C1963 C1967 1.429 . S
C1964 C1947 1.574 . S
C1964 H1958 0.949 . S
C1964 C1968 1.368 . S
C1965 C1946 1.429 . S
C1965 C1959 1.429 . S
C1965 C1966 1.523 . S
C1966 C1947 1.368 . S
C1966 C1960 1.368 . S
C1966 C1965 1.523 . S
C1967 C1951 1.429 . S
C1967 C1963 1.429 . S
C1967 C1968 1.523 . S
C1968 C1952 1.368 . S
C1968 C1964 1.368 . S
C1968 C1967 1.523 . S
H1969 C1944 0.950 . S
H1970 C1946 0.950 . S
H1971 C1947 0.949 . S
H1972 C1949 0.950 . S
H1973 C1951 0.950 . S
C1974 C1975 1.349 . S
C1974 C1976 1.327 . S
C1974 H1999 0.950 . S
C1975 C1974 1.349 . S
C1975 C1991 1.349 . S
C1976 C1974 1.327 . S
C1976 C1995 1.429 . S
C1976 H2000 0.950 . S
C1977 C1994 1.574 . S
C1977 C1996 1.368 . S
C1977 H2001 0.949 . S
H1978 C1982 0.949 . S
C1979 C1980 1.349 . S
C1979 C1981 1.327 . S
C1979 H2002 0.950 . S
C1980 C1979 1.349 . S
C1980 C1992 1.349 . S
C1981 C1979 1.327 . S
C1981 C1997 1.429 . S
C1981 H2003 0.950 . S
C1982 H1978 0.949 . S
C1982 C1990 1.574 . S
C1982 C1998 1.368 . S
H1983 C1991 0.950 . S
H1984 C1989 0.950 . S
H1985 C1990 0.949 . S
H1986 C1992 0.950 . S
H1987 C1993 0.950 . S
H1988 C1994 0.949 . S
C1989 H1984 0.950 . S
C1989 C1991 1.327 . S
C1989 C1995 1.429 . S
C1990 C1982 1.574 . S
C1990 H1985 0.949 . S
C1990 C1996 1.368 . S
C1991 C1975 1.349 . S
C1991 H1983 0.950 . S
C1991 C1989 1.327 . S
C1992 C1980 1.349 . S
C1992 H1986 0.950 . S
C1992 C1993 1.327 . S
C1993 H1987 0.950 . S
C1993 C1992 1.327 . S
C1993 C1997 1.429 . S
C1994 C1977 1.574 . S
C1994 H1988 0.949 . S
C1994 C1998 1.368 . S
C1995 C1976 1.429 . S
C1995 C1989 1.429 . S
C1995 C1996 1.523 . S
C1996 C1977 1.368 . S
C1996 C1990 1.368 . S
C1996 C1995 1.523 . S
C1997 C1981 1.429 . S
C1997 C1993 1.429 . S
C1997 C1998 1.523 . S
C1998 C1982 1.368 . S
C1998 C1994 1.368 . S
C1998 C1997 1.523 . S
H1999 C1974 0.950 . S
H2000 C1976 0.950 . S
H2001 C1977 0.949 . S
H2002 C1979 0.950 . S
H2003 C1981 0.950 . S
C2004 C2005 1.349 . S
C2004 C2006 1.327 . S
C2004 H2029 0.950 . S
C2005 C2004 1.349 . S
C2005 C2021 1.349 . S
C2006 C2004 1.327 . S
C2006 C2025 1.429 . S
C2006 H2030 0.950 . S
C2007 C2024 1.574 . S
C2007 C2026 1.368 . S
C2007 H2031 0.949 . S
H2008 C2012 0.949 . S
C2009 C2010 1.349 . S
C2009 C2011 1.327 . S
C2009 H2032 0.950 . S
C2010 C2009 1.349 . S
C2010 C2022 1.349 . S
C2011 C2009 1.327 . S
C2011 C2027 1.429 . S
C2011 H2033 0.950 . S
C2012 H2008 0.949 . S
C2012 C2020 1.574 . S
C2012 C2028 1.368 . S
H2013 C2021 0.950 . S
H2014 C2019 0.950 . S
H2015 C2020 0.949 . S
H2016 C2022 0.950 . S
H2017 C2023 0.950 . S
H2018 C2024 0.949 . S
C2019 H2014 0.950 . S
C2019 C2021 1.327 . S
C2019 C2025 1.429 . S
C2020 C2012 1.574 . S
C2020 H2015 0.949 . S
C2020 C2026 1.368 . S
C2021 C2005 1.349 . S
C2021 H2013 0.950 . S
C2021 C2019 1.327 . S
C2022 C2010 1.349 . S
C2022 H2016 0.950 . S
C2022 C2023 1.327 . S
C2023 H2017 0.950 . S
C2023 C2022 1.327 . S
C2023 C2027 1.429 . S
C2024 C2007 1.574 . S
C2024 H2018 0.949 . S
C2024 C2028 1.368 . S
C2025 C2006 1.429 . S
C2025 C2019 1.429 . S
C2025 C2026 1.523 . S
C2026 C2007 1.368 . S
C2026 C2020 1.368 . S
C2026 C2025 1.523 . S
C2027 C2011 1.429 . S
C2027 C2023 1.429 . S
C2027 C2028 1.523 . S
C2028 C2012 1.368 . S
C2028 C2024 1.368 . S
C2028 C2027 1.523 . S
H2029 C2004 0.950 . S
H2030 C2006 0.950 . S
H2031 C2007 0.949 . S
H2032 C2009 0.950 . S
H2033 C2011 0.950 . S
C2034 C2035 1.349 . S
C2034 C2036 1.327 . S
C2034 H2059 0.950 . S
C2035 C2034 1.349 . S
C2035 C2051 1.349 . S
C2036 C2034 1.327 . S
C2036 C2055 1.429 . S
C2036 H2060 0.950 . S
C2037 C2054 1.574 . S
C2037 C2056 1.368 . S
C2037 H2061 0.949 . S
H2038 C2042 0.949 . S
C2039 C2040 1.349 . S
C2039 C2041 1.327 . S
C2039 H2062 0.950 . S
C2040 C2039 1.349 . S
C2040 C2052 1.349 . S
C2041 C2039 1.327 . S
C2041 C2057 1.429 . S
C2041 H2063 0.950 . S
C2042 H2038 0.949 . S
C2042 C2050 1.574 . S
C2042 C2058 1.368 . S
H2043 C2051 0.950 . S
H2044 C2049 0.950 . S
H2045 C2050 0.949 . S
H2046 C2052 0.950 . S
H2047 C2053 0.950 . S
H2048 C2054 0.949 . S
C2049 H2044 0.950 . S
C2049 C2051 1.327 . S
C2049 C2055 1.429 . S
C2050 C2042 1.574 . S
C2050 H2045 0.949 . S
C2050 C2056 1.368 . S
C2051 C2035 1.349 . S
C2051 H2043 0.950 . S
C2051 C2049 1.327 . S
C2052 C2040 1.349 . S
C2052 H2046 0.950 . S
C2052 C2053 1.327 . S
C2053 H2047 0.950 . S
C2053 C2052 1.327 . S
C2053 C2057 1.429 . S
C2054 C2037 1.574 . S
C2054 H2048 0.949 . S
C2054 C2058 1.368 . S
C2055 C2036 1.429 . S
C2055 C2049 1.429 . S
C2055 C2056 1.523 . S
C2056 C2037 1.368 . S
C2056 C2050 1.368 . S
C2056 C2055 1.523 . S
C2057 C2041 1.429 . S
C2057 C2053 1.429 . S
C2057 C2058 1.523 . S
C2058 C2042 1.368 . S
C2058 C2054 1.368 . S
C2058 C2057 1.523 . S
H2059 C2034 0.950 . S
H2060 C2036 0.950 . S
H2061 C2037 0.949 . S
H2062 C2039 0.950 . S
H2063 C2041 0.950 . S
C2064 C2065 1.349 . S
C2064 C2066 1.327 . S
C2064 H2089 0.950 . S
C2065 C2064 1.349 . S
C2065 C2081 1.349 . S
C2066 C2064 1.327 . S
C2066 C2085 1.429 . S
C2066 H2090 0.950 . S
C2067 C2084 1.574 . S
C2067 C2086 1.368 . S
C2067 H2091 0.949 . S
H2068 C2072 0.949 . S
C2069 C2070 1.349 . S
C2069 C2071 1.327 . S
C2069 H2092 0.950 . S
C2070 C2069 1.349 . S
C2070 C2082 1.349 . S
C2071 C2069 1.327 . S
C2071 C2087 1.429 . S
C2071 H2093 0.950 . S
C2072 H2068 0.949 . S
C2072 C2080 1.574 . S
C2072 C2088 1.368 . S
H2073 C2081 0.950 . S
H2074 C2079 0.950 . S
H2075 C2080 0.949 . S
H2076 C2082 0.950 . S
H2077 C2083 0.950 . S
H2078 C2084 0.949 . S
C2079 H2074 0.950 . S
C2079 C2081 1.327 . S
C2079 C2085 1.429 . S
C2080 C2072 1.574 . S
C2080 H2075 0.949 . S
C2080 C2086 1.368 . S
C2081 C2065 1.349 . S
C2081 H2073 0.950 . S
C2081 C2079 1.327 . S
C2082 C2070 1.349 . S
C2082 H2076 0.950 . S
C2082 C2083 1.327 . S
C2083 H2077 0.950 . S
C2083 C2082 1.327 . S
C2083 C2087 1.429 . S
C2084 C2067 1.574 . S
C2084 H2078 0.949 . S
C2084 C2088 1.368 . S
C2085 C2066 1.429 . S
C2085 C2079 1.429 . S
C2085 C2086 1.523 . S
C2086 C2067 1.368 . S
C2086 C2080 1.368 . S
C2086 C2085 1.523 . S
C2087 C2071 1.429 . S
C2087 C2083 1.429 . S
C2087 C2088 1.523 . S
C2088 C2072 1.368 . S
C2088 C2084 1.368 . S
C2088 C2087 1.523 . S
H2089 C2064 0.950 . S
H2090 C2066 0.950 . S
H2091 C2067 0.949 . S
H2092 C2069 0.950 . S
H2093 C2071 0.950 . S
C2094 C2095 1.349 . S
C2094 C2096 1.327 . S
C2094 H2119 0.950 . S
C2095 C2094 1.349 . S
C2095 C2111 1.349 . S
C2096 C2094 1.327 . S
C2096 C2115 1.429 . S
C2096 H2120 0.950 . S
C2097 C2114 1.574 . S
C2097 C2116 1.368 . S
C2097 H2121 0.949 . S
H2098 C2102 0.949 . S
C2099 C2100 1.349 . S
C2099 C2101 1.327 . S
C2099 H2122 0.950 . S
C2100 C2099 1.349 . S
C2100 C2112 1.349 . S
C2101 C2099 1.327 . S
C2101 C2117 1.429 . S
C2101 H2123 0.950 . S
C2102 H2098 0.949 . S
C2102 C2110 1.574 . S
C2102 C2118 1.368 . S
H2103 C2111 0.950 . S
H2104 C2109 0.950 . S
H2105 C2110 0.949 . S
H2106 C2112 0.950 . S
H2107 C2113 0.950 . S
H2108 C2114 0.949 . S
C2109 H2104 0.950 . S
C2109 C2111 1.327 . S
C2109 C2115 1.429 . S
C2110 C2102 1.574 . S
C2110 H2105 0.949 . S
C2110 C2116 1.368 . S
C2111 C2095 1.349 . S
C2111 H2103 0.950 . S
C2111 C2109 1.327 . S
C2112 C2100 1.349 . S
C2112 H2106 0.950 . S
C2112 C2113 1.327 . S
C2113 H2107 0.950 . S
C2113 C2112 1.327 . S
C2113 C2117 1.429 . S
C2114 C2097 1.574 . S
C2114 H2108 0.949 . S
C2114 C2118 1.368 . S
C2115 C2096 1.429 . S
C2115 C2109 1.429 . S
C2115 C2116 1.523 . S
C2116 C2097 1.368 . S
C2116 C2110 1.368 . S
C2116 C2115 1.523 . S
C2117 C2101 1.429 . S
C2117 C2113 1.429 . S
C2117 C2118 1.523 . S
C2118 C2102 1.368 . S
C2118 C2114 1.368 . S
C2118 C2117 1.523 . S
H2119 C2094 0.950 . S
H2120 C2096 0.950 . S
H2121 C2097 0.949 . S
H2122 C2099 0.950 . S
H2123 C2101 0.950 . S
C2124 C2125 1.349 . S
C2124 C2126 1.327 . S
C2124 H2149 0.950 . S
C2125 C2124 1.349 . S
C2125 C2141 1.349 . S
C2126 C2124 1.327 . S
C2126 C2145 1.429 . S
C2126 H2150 0.950 . S
C2127 C2144 1.574 . S
C2127 C2146 1.368 . S
C2127 H2151 0.949 . S
H2128 C2132 0.949 . S
C2129 C2130 1.349 . S
C2129 C2131 1.327 . S
C2129 H2152 0.950 . S
C2130 C2129 1.349 . S
C2130 C2142 1.349 . S
C2131 C2129 1.327 . S
C2131 C2147 1.429 . S
C2131 H2153 0.950 . S
C2132 H2128 0.949 . S
C2132 C2140 1.574 . S
C2132 C2148 1.368 . S
H2133 C2141 0.950 . S
H2134 C2139 0.950 . S
H2135 C2140 0.949 . S
H2136 C2142 0.950 . S
H2137 C2143 0.950 . S
H2138 C2144 0.949 . S
C2139 H2134 0.950 . S
C2139 C2141 1.327 . S
C2139 C2145 1.429 . S
C2140 C2132 1.574 . S
C2140 H2135 0.949 . S
C2140 C2146 1.368 . S
C2141 C2125 1.349 . S
C2141 H2133 0.950 . S
C2141 C2139 1.327 . S
C2142 C2130 1.349 . S
C2142 H2136 0.950 . S
C2142 C2143 1.327 . S
C2143 H2137 0.950 . S
C2143 C2142 1.327 . S
C2143 C2147 1.429 . S
C2144 C2127 1.574 . S
C2144 H2138 0.949 . S
C2144 C2148 1.368 . S
C2145 C2126 1.429 . S
C2145 C2139 1.429 . S
C2145 C2146 1.523 . S
C2146 C2127 1.368 . S
C2146 C2140 1.368 . S
C2146 C2145 1.523 . S
C2147 C2131 1.429 . S
C2147 C2143 1.429 . S
C2147 C2148 1.523 . S
C2148 C2132 1.368 . S
C2148 C2144 1.368 . S
C2148 C2147 1.523 . S
H2149 C2124 0.950 . S
H2150 C2126 0.950 . S
H2151 C2127 0.949 . S
H2152 C2129 0.950 . S
H2153 C2131 0.950 . S
C2154 C2155 1.349 . S
C2154 C2156 1.327 . S
C2154 H2179 0.950 . S
C2155 C2154 1.349 . S
C2155 C2171 1.349 . S
C2156 C2154 1.327 . S
C2156 C2175 1.429 . S
C2156 H2180 0.950 . S
C2157 C2174 1.574 . S
C2157 C2176 1.368 . S
C2157 H2181 0.949 . S
H2158 C2162 0.949 . S
C2159 C2160 1.349 . S
C2159 C2161 1.327 . S
C2159 H2182 0.950 . S
C2160 C2159 1.349 . S
C2160 C2172 1.349 . S
C2161 C2159 1.327 . S
C2161 C2177 1.429 . S
C2161 H2183 0.950 . S
C2162 H2158 0.949 . S
C2162 C2170 1.574 . S
C2162 C2178 1.368 . S
H2163 C2171 0.950 . S
H2164 C2169 0.950 . S
H2165 C2170 0.949 . S
H2166 C2172 0.950 . S
H2167 C2173 0.950 . S
H2168 C2174 0.949 . S
C2169 H2164 0.950 . S
C2169 C2171 1.327 . S
C2169 C2175 1.429 . S
C2170 C2162 1.574 . S
C2170 H2165 0.949 . S
C2170 C2176 1.368 . S
C2171 C2155 1.349 . S
C2171 H2163 0.950 . S
C2171 C2169 1.327 . S
C2172 C2160 1.349 . S
C2172 H2166 0.950 . S
C2172 C2173 1.327 . S
C2173 H2167 0.950 . S
C2173 C2172 1.327 . S
C2173 C2177 1.429 . S
C2174 C2157 1.574 . S
C2174 H2168 0.949 . S
C2174 C2178 1.368 . S
C2175 C2156 1.429 . S
C2175 C2169 1.429 . S
C2175 C2176 1.523 . S
C2176 C2157 1.368 . S
C2176 C2170 1.368 . S
C2176 C2175 1.523 . S
C2177 C2161 1.429 . S
C2177 C2173 1.429 . S
C2177 C2178 1.523 . S
C2178 C2162 1.368 . S
C2178 C2174 1.368 . S
C2178 C2177 1.523 . S
H2179 C2154 0.950 . S
H2180 C2156 0.950 . S
H2181 C2157 0.949 . S
H2182 C2159 0.950 . S
H2183 C2161 0.950 . S
C2184 C2185 1.349 . S
C2184 C2186 1.327 . S
C2184 H2209 0.950 . S
C2185 C2184 1.349 . S
C2185 C2201 1.349 . S
C2186 C2184 1.327 . S
C2186 C2205 1.429 . S
C2186 H2210 0.950 . S
C2187 C2204 1.574 . S
C2187 C2206 1.368 . S
C2187 H2211 0.949 . S
H2188 C2192 0.949 . S
C2189 C2190 1.349 . S
C2189 C2191 1.327 . S
C2189 H2212 0.950 . S
C2190 C2189 1.349 . S
C2190 C2202 1.349 . S
C2191 C2189 1.327 . S
C2191 C2207 1.429 . S
C2191 H2213 0.950 . S
C2192 H2188 0.949 . S
C2192 C2200 1.574 . S
C2192 C2208 1.368 . S
H2193 C2201 0.950 . S
H2194 C2199 0.950 . S
H2195 C2200 0.949 . S
H2196 C2202 0.950 . S
H2197 C2203 0.950 . S
H2198 C2204 0.949 . S
C2199 H2194 0.950 . S
C2199 C2201 1.327 . S
C2199 C2205 1.429 . S
C2200 C2192 1.574 . S
C2200 H2195 0.949 . S
C2200 C2206 1.368 . S
C2201 C2185 1.349 . S
C2201 H2193 0.950 . S
C2201 C2199 1.327 . S
C2202 C2190 1.349 . S
C2202 H2196 0.950 . S
C2202 C2203 1.327 . S
C2203 H2197 0.950 . S
C2203 C2202 1.327 . S
C2203 C2207 1.429 . S
C2204 C2187 1.574 . S
C2204 H2198 0.949 . S
C2204 C2208 1.368 . S
C2205 C2186 1.429 . S
C2205 C2199 1.429 . S
C2205 C2206 1.523 . S
C2206 C2187 1.368 . S
C2206 C2200 1.368 . S
C2206 C2205 1.523 . S
C2207 C2191 1.429 . S
C2207 C2203 1.429 . S
C2207 C2208 1.523 . S
C2208 C2192 1.368 . S
C2208 C2204 1.368 . S
C2208 C2207 1.523 . S
H2209 C2184 0.950 . S
H2210 C2186 0.950 . S
H2211 C2187 0.949 . S
H2212 C2189 0.950 . S
H2213 C2191 0.950 . S
C2214 C2215 1.349 . S
C2214 C2216 1.327 . S
C2214 H2239 0.950 . S
C2215 C2214 1.349 . S
C2215 C2231 1.349 . S
C2216 C2214 1.327 . S
C2216 C2235 1.429 . S
C2216 H2240 0.950 . S
C2217 C2234 1.574 . S
C2217 C2236 1.368 . S
C2217 H2241 0.949 . S
H2218 C2222 0.949 . S
C2219 C2220 1.349 . S
C2219 C2221 1.327 . S
C2219 H2242 0.950 . S
C2220 C2219 1.349 . S
C2220 C2232 1.349 . S
C2221 C2219 1.327 . S
C2221 C2237 1.429 . S
C2221 H2243 0.950 . S
C2222 H2218 0.949 . S
C2222 C2230 1.574 . S
C2222 C2238 1.368 . S
H2223 C2231 0.950 . S
H2224 C2229 0.950 . S
H2225 C2230 0.949 . S
H2226 C2232 0.950 . S
H2227 C2233 0.950 . S
H2228 C2234 0.949 . S
C2229 H2224 0.950 . S
C2229 C2231 1.327 . S
C2229 C2235 1.429 . S
C2230 C2222 1.574 . S
C2230 H2225 0.949 . S
C2230 C2236 1.368 . S
C2231 C2215 1.349 . S
C2231 H2223 0.950 . S
C2231 C2229 1.327 . S
C2232 C2220 1.349 . S
C2232 H2226 0.950 . S
C2232 C2233 1.327 . S
C2233 H2227 0.950 . S
C2233 C2232 1.327 . S
C2233 C2237 1.429 . S
C2234 C2217 1.574 . S
C2234 H2228 0.949 . S
C2234 C2238 1.368 . S
C2235 C2216 1.429 . S
C2235 C2229 1.429 . S
C2235 C2236 1.523 . S
C2236 C2217 1.368 . S
C2236 C2230 1.368 . S
C2236 C2235 1.523 . S
C2237 C2221 1.429 . S
C2237 C2233 1.429 . S
C2237 C2238 1.523 . S
C2238 C2222 1.368 . S
C2238 C2234 1.368 . S
C2238 C2237 1.523 . S
H2239 C2214 0.950 . S
H2240 C2216 0.950 . S
H2241 C2217 0.949 . S
H2242 C2219 0.950 . S
H2243 C2221 0.950 . S
C2244 C2245 1.349 . S
C2244 C2246 1.327 . S
C2244 H2269 0.950 . S
C2245 C2244 1.349 . S
C2245 C2261 1.349 . S
C2246 C2244 1.327 . S
C2246 C2265 1.429 . S
C2246 H2270 0.950 . S
C2247 C2264 1.574 . S
C2247 C2266 1.368 . S
C2247 H2271 0.949 . S
H2248 C2252 0.949 . S
C2249 C2250 1.349 . S
C2249 C2251 1.327 . S
C2249 H2272 0.950 . S
C2250 C2249 1.349 . S
C2250 C2262 1.349 . S
C2251 C2249 1.327 . S
C2251 C2267 1.429 . S
C2251 H2273 0.950 . S
C2252 H2248 0.949 . S
C2252 C2260 1.574 . S
C2252 C2268 1.368 . S
H2253 C2261 0.950 . S
H2254 C2259 0.950 . S
H2255 C2260 0.949 . S
H2256 C2262 0.950 . S
H2257 C2263 0.950 . S
H2258 C2264 0.949 . S
C2259 H2254 0.950 . S
C2259 C2261 1.327 . S
C2259 C2265 1.429 . S
C2260 C2252 1.574 . S
C2260 H2255 0.949 . S
C2260 C2266 1.368 . S
C2261 C2245 1.349 . S
C2261 H2253 0.950 . S
C2261 C2259 1.327 . S
C2262 C2250 1.349 . S
C2262 H2256 0.950 . S
C2262 C2263 1.327 . S
C2263 H2257 0.950 . S
C2263 C2262 1.327 . S
C2263 C2267 1.429 . S
C2264 C2247 1.574 . S
C2264 H2258 0.949 . S
C2264 C2268 1.368 . S
C2265 C2246 1.429 . S
C2265 C2259 1.429 . S
C2265 C2266 1.523 . S
C2266 C2247 1.368 . S
C2266 C2260 1.368 . S
C2266 C2265 1.523 . S
C2267 C2251 1.429 . S
C2267 C2263 1.429 . S
C2267 C2268 1.523 . S
C2268 C2252 1.368 . S
C2268 C2264 1.368 . S
C2268 C2267 1.523 . S
H2269 C2244 0.950 . S
H2270 C2246 0.950 . S
H2271 C2247 0.949 . S
H2272 C2249 0.950 . S
H2273 C2251 0.950 . S
C2274 C2275 1.349 . S
C2274 C2276 1.327 . S
C2274 H2299 0.950 . S
C2275 C2274 1.349 . S
C2275 C2291 1.349 . S
C2276 C2274 1.327 . S
C2276 C2295 1.429 . S
C2276 H2300 0.950 . S
C2277 C2294 1.574 . S
C2277 C2296 1.368 . S
C2277 H2301 0.949 . S
H2278 C2282 0.949 . S
C2279 C2280 1.349 . S
C2279 C2281 1.327 . S
C2279 H2302 0.950 . S
C2280 C2279 1.349 . S
C2280 C2292 1.349 . S
C2281 C2279 1.327 . S
C2281 C2297 1.429 . S
C2281 H2303 0.950 . S
C2282 H2278 0.949 . S
C2282 C2290 1.574 . S
C2282 C2298 1.368 . S
H2283 C2291 0.950 . S
H2284 C2289 0.950 . S
H2285 C2290 0.949 . S
H2286 C2292 0.950 . S
H2287 C2293 0.950 . S
H2288 C2294 0.949 . S
C2289 H2284 0.950 . S
C2289 C2291 1.327 . S
C2289 C2295 1.429 . S
C2290 C2282 1.574 . S
C2290 H2285 0.949 . S
C2290 C2296 1.368 . S
C2291 C2275 1.349 . S
C2291 H2283 0.950 . S
C2291 C2289 1.327 . S
C2292 C2280 1.349 . S
C2292 H2286 0.950 . S
C2292 C2293 1.327 . S
C2293 H2287 0.950 . S
C2293 C2292 1.327 . S
C2293 C2297 1.429 . S
C2294 C2277 1.574 . S
C2294 H2288 0.949 . S
C2294 C2298 1.368 . S
C2295 C2276 1.429 . S
C2295 C2289 1.429 . S
C2295 C2296 1.523 . S
C2296 C2277 1.368 . S
C2296 C2290 1.368 . S
C2296 C2295 1.523 . S
C2297 C2281 1.429 . S
C2297 C2293 1.429 . S
C2297 C2298 1.523 . S
C2298 C2282 1.368 . S
C2298 C2294 1.368 . S
C2298 C2297 1.523 . S
H2299 C2274 0.950 . S
H2300 C2276 0.950 . S
H2301 C2277 0.949 . S
H2302 C2279 0.950 . S
H2303 C2281 0.950 . S
C870 C689 1.415 . S
C865 C74 1.333 . S
C900 C694 0.600 . S
C895 C142 0.935 . S
C930 C695 1.411 . S
C925 C231 1.336 . S
C955 C322 1.341 . S
C960 C699 1.446 . S
C985 C406 0.934 . S
C990 C702 0.601 . S
C1020 C703 1.411 . S
C1015 C494 1.332 . S
C1045 C562 1.341 . S
C1050 C680 1.446 . S
C1075 C651 1.336 . S
C1080 C696 1.417 . S
C1110 C734 1.431 . S
C1105 C58 1.348 . S
C1135 C151 1.395 . S
C1140 C760 1.422 . S
C1170 C712 2.405 . S
C1165 C224 2.339 . S
C1200 C767 1.313 . S
C1195 C315 1.284 . S
C1225 C399 1.299 . S
C1230 C721 1.333 . S
C1260 C763 1.424 . S
C1255 C478 1.340 . S
C1285 C571 1.386 . S
C1290 C727 1.440 . S
C1315 C644 2.323 . S
C1320 C758 2.399 . S
C1345 C67 2.323 . S
C1350 C766 2.392 . S
C1375 C392 1.395 . S
C1380 C753 1.424 . S
C1410 C731 2.405 . S
C1405 C487 2.339 . S
C1440 C759 1.313 . S
C1435 C578 1.290 . S
C1465 C658 1.351 . S
C1470 C726 1.435 . S
C1495 C238 1.340 . S
C1500 C744 1.423 . S
C1530 C735 1.438 . S
C1525 C308 1.385 . S
C1555 C158 1.299 . S
C1560 C728 1.326 . S
C1585 C662 1.311 . S
C1590 C790 1.348 . S
C1615 C394 0.957 . S
C1620 C785 0.440 . S
C1650 C799 1.327 . S
C1645 C483 1.303 . S
C1680 C776 1.411 . S
C1675 C574 1.312 . S
C1705 C154 0.957 . S
C1710 C792 0.443 . S
C1740 C791 1.327 . S
C1735 C242 1.299 . S
C1765 C310 1.309 . S
C1770 C795 1.410 . S
C1795 C63 1.311 . S
C1800 C798 1.344 . S
C1825 C646 1.357 . S
C1830 C824 1.453 . S
C1860 C840 1.435 . S
C1855 C403 1.418 . S
C1885 C476 2.344 . S
C1890 C822 2.446 . S
C1915 C567 1.300 . S
C1920 C855 1.301 . S
C1950 C831 1.288 . S
C1945 C147 1.283 . S
C1975 C226 1.365 . S
C1980 C849 1.444 . S
C2010 C827 1.408 . S
C2005 C319 1.366 . S
C2040 C862 2.440 . S
C2035 C56 2.359 . S
C2070 C854 2.440 . S
C2065 C655 2.361 . S
C2095 C140 1.417 . S
C2100 C859 1.434 . S
C2125 C235 2.344 . S
C2130 C830 2.451 . S
C2160 C863 1.302 . S
C2155 C326 1.301 . S
C2185 C70 1.357 . S
C2190 C817 1.448 . S
C2215 C490 1.366 . S
C2220 C856 1.441 . S
C2250 C808 1.408 . S
C2245 C560 1.367 . S
C2280 C823 1.288 . S
C2275 C410 1.281 . S
