# Generated by pormake.
# Topology ibd, (4,6)-cn, num edge types: 1
# Building blocks:
#     Node 0, Type 0, BuildingBlock: CEKHIL_clean_sbu_0, # of connection points: 4
#     Node 1, Type 0, BuildingBlock: CEKHIL_clean_sbu_0, # of connection points: 4
#     Node 2, Type 0, BuildingBlock: CEKHIL_clean_sbu_0, # of connection points: 4
#     Node 3, Type 0, BuildingBlock: CEKHIL_clean_sbu_0, # of connection points: 4
#     Node 4, Type 0, BuildingBlock: CEKHIL_clean_sbu_0, # of connection points: 4
#     Node 5, Type 0, BuildingBlock: CEKHIL_clean_sbu_0, # of connection points: 4
#     Node 6, Type 0, BuildingBlock: CEKHIL_clean_sbu_0, # of connection points: 4
#     Node 7, Type 0, BuildingBlock: CEKHIL_clean_sbu_0, # of connection points: 4
#     Node 8, Type 0, BuildingBlock: CEKHIL_clean_sbu_0, # of connection points: 4
#     Node 9, Type 0, BuildingBlock: CEKHIL_clean_sbu_0, # of connection points: 4
#     Node 10, Type 0, BuildingBlock: CEKHIL_clean_sbu_0, # of connection points: 4
#     Node 11, Type 0, BuildingBlock: CEKHIL_clean_sbu_0, # of connection points: 4
#     Node 12, Type 0, BuildingBlock: CEKHIL_clean_sbu_0, # of connection points: 4
#     Node 13, Type 0, BuildingBlock: CEKHIL_clean_sbu_0, # of connection points: 4
#     Node 14, Type 0, BuildingBlock: CEKHIL_clean_sbu_0, # of connection points: 4
#     Node 15, Type 0, BuildingBlock: CEKHIL_clean_sbu_0, # of connection points: 4
#     Node 16, Type 0, BuildingBlock: CEKHIL_clean_sbu_0, # of connection points: 4
#     Node 17, Type 0, BuildingBlock: CEKHIL_clean_sbu_0, # of connection points: 4
#     Node 18, Type 0, BuildingBlock: CEKHIL_clean_sbu_0, # of connection points: 4
#     Node 19, Type 0, BuildingBlock: CEKHIL_clean_sbu_0, # of connection points: 4
#     Node 20, Type 0, BuildingBlock: CEKHIL_clean_sbu_0, # of connection points: 4
#     Node 21, Type 0, BuildingBlock: CEKHIL_clean_sbu_0, # of connection points: 4
#     Node 22, Type 0, BuildingBlock: CEKHIL_clean_sbu_0, # of connection points: 4
#     Node 23, Type 0, BuildingBlock: CEKHIL_clean_sbu_0, # of connection points: 4
#     Node 24, Type 1, BuildingBlock: CIFDUS_clean_sbu_1, # of connection points: 6
#     Node 25, Type 1, BuildingBlock: CIFDUS_clean_sbu_1, # of connection points: 6
#     Node 26, Type 1, BuildingBlock: CIFDUS_clean_sbu_1, # of connection points: 6
#     Node 27, Type 1, BuildingBlock: CIFDUS_clean_sbu_1, # of connection points: 6
#     Node 28, Type 1, BuildingBlock: CIFDUS_clean_sbu_1, # of connection points: 6
#     Node 29, Type 1, BuildingBlock: CIFDUS_clean_sbu_1, # of connection points: 6
#     Node 30, Type 1, BuildingBlock: CIFDUS_clean_sbu_1, # of connection points: 6
#     Node 31, Type 1, BuildingBlock: CIFDUS_clean_sbu_1, # of connection points: 6
#     Node 32, Type 1, BuildingBlock: CIFDUS_clean_sbu_1, # of connection points: 6
#     Node 33, Type 1, BuildingBlock: CIFDUS_clean_sbu_1, # of connection points: 6
#     Node 34, Type 1, BuildingBlock: CIFDUS_clean_sbu_1, # of connection points: 6
#     Node 35, Type 1, BuildingBlock: CIFDUS_clean_sbu_1, # of connection points: 6
#     Node 36, Type 1, BuildingBlock: CIFDUS_clean_sbu_1, # of connection points: 6
#     Node 37, Type 1, BuildingBlock: CIFDUS_clean_sbu_1, # of connection points: 6
#     Node 38, Type 1, BuildingBlock: CIFDUS_clean_sbu_1, # of connection points: 6
#     Node 39, Type 1, BuildingBlock: CIFDUS_clean_sbu_1, # of connection points: 6
#     Edge 40, Type (0, 1), BuildingBlock: XIVTED_clean_linker_0, # of connection points: 2
#     Edge 41, Type (0, 1), BuildingBlock: XIVTED_clean_linker_0, # of connection points: 2
#     Edge 42, Type (0, 1), BuildingBlock: XIVTED_clean_linker_0, # of connection points: 2
#     Edge 43, Type (0, 1), BuildingBlock: XIVTED_clean_linker_0, # of connection points: 2
#     Edge 44, Type (0, 1), BuildingBlock: XIVTED_clean_linker_0, # of connection points: 2
#     Edge 45, Type (0, 1), BuildingBlock: XIVTED_clean_linker_0, # of connection points: 2
#     Edge 46, Type (0, 1), BuildingBlock: XIVTED_clean_linker_0, # of connection points: 2
#     Edge 47, Type (0, 1), BuildingBlock: XIVTED_clean_linker_0, # of connection points: 2
#     Edge 48, Type (0, 1), BuildingBlock: XIVTED_clean_linker_0, # of connection points: 2
#     Edge 49, Type (0, 1), BuildingBlock: XIVTED_clean_linker_0, # of connection points: 2
#     Edge 50, Type (0, 1), BuildingBlock: XIVTED_clean_linker_0, # of connection points: 2
#     Edge 51, Type (0, 1), BuildingBlock: XIVTED_clean_linker_0, # of connection points: 2
#     Edge 52, Type (0, 1), BuildingBlock: XIVTED_clean_linker_0, # of connection points: 2
#     Edge 53, Type (0, 1), BuildingBlock: XIVTED_clean_linker_0, # of connection points: 2
#     Edge 54, Type (0, 1), BuildingBlock: XIVTED_clean_linker_0, # of connection points: 2
#     Edge 55, Type (0, 1), BuildingBlock: XIVTED_clean_linker_0, # of connection points: 2
#     Edge 56, Type (0, 1), BuildingBlock: XIVTED_clean_linker_0, # of connection points: 2
#     Edge 57, Type (0, 1), BuildingBlock: XIVTED_clean_linker_0, # of connection points: 2
#     Edge 58, Type (0, 1), BuildingBlock: XIVTED_clean_linker_0, # of connection points: 2
#     Edge 59, Type (0, 1), BuildingBlock: XIVTED_clean_linker_0, # of connection points: 2
#     Edge 60, Type (0, 1), BuildingBlock: XIVTED_clean_linker_0, # of connection points: 2
#     Edge 61, Type (0, 1), BuildingBlock: XIVTED_clean_linker_0, # of connection points: 2
#     Edge 62, Type (0, 1), BuildingBlock: XIVTED_clean_linker_0, # of connection points: 2
#     Edge 63, Type (0, 1), BuildingBlock: XIVTED_clean_linker_0, # of connection points: 2
#     Edge 64, Type (0, 1), BuildingBlock: XIVTED_clean_linker_0, # of connection points: 2
#     Edge 65, Type (0, 1), BuildingBlock: XIVTED_clean_linker_0, # of connection points: 2
#     Edge 66, Type (0, 1), BuildingBlock: XIVTED_clean_linker_0, # of connection points: 2
#     Edge 67, Type (0, 1), BuildingBlock: XIVTED_clean_linker_0, # of connection points: 2
#     Edge 68, Type (0, 1), BuildingBlock: XIVTED_clean_linker_0, # of connection points: 2
#     Edge 69, Type (0, 1), BuildingBlock: XIVTED_clean_linker_0, # of connection points: 2
#     Edge 70, Type (0, 1), BuildingBlock: XIVTED_clean_linker_0, # of connection points: 2
#     Edge 71, Type (0, 1), BuildingBlock: XIVTED_clean_linker_0, # of connection points: 2
#     Edge 72, Type (0, 1), BuildingBlock: XIVTED_clean_linker_0, # of connection points: 2
#     Edge 73, Type (0, 1), BuildingBlock: XIVTED_clean_linker_0, # of connection points: 2
#     Edge 74, Type (0, 1), BuildingBlock: XIVTED_clean_linker_0, # of connection points: 2
#     Edge 75, Type (0, 1), BuildingBlock: XIVTED_clean_linker_0, # of connection points: 2
#     Edge 76, Type (0, 1), BuildingBlock: XIVTED_clean_linker_0, # of connection points: 2
#     Edge 77, Type (0, 1), BuildingBlock: XIVTED_clean_linker_0, # of connection points: 2
#     Edge 78, Type (0, 1), BuildingBlock: XIVTED_clean_linker_0, # of connection points: 2
#     Edge 79, Type (0, 1), BuildingBlock: XIVTED_clean_linker_0, # of connection points: 2
#     Edge 80, Type (0, 1), BuildingBlock: XIVTED_clean_linker_0, # of connection points: 2
#     Edge 81, Type (0, 1), BuildingBlock: XIVTED_clean_linker_0, # of connection points: 2
#     Edge 82, Type (0, 1), BuildingBlock: XIVTED_clean_linker_0, # of connection points: 2
#     Edge 83, Type (0, 1), BuildingBlock: XIVTED_clean_linker_0, # of connection points: 2
#     Edge 84, Type (0, 1), BuildingBlock: XIVTED_clean_linker_0, # of connection points: 2
#     Edge 85, Type (0, 1), BuildingBlock: XIVTED_clean_linker_0, # of connection points: 2
#     Edge 86, Type (0, 1), BuildingBlock: XIVTED_clean_linker_0, # of connection points: 2
#     Edge 87, Type (0, 1), BuildingBlock: XIVTED_clean_linker_0, # of connection points: 2
#     Edge 88, Type (0, 1), BuildingBlock: XIVTED_clean_linker_0, # of connection points: 2
#     Edge 89, Type (0, 1), BuildingBlock: XIVTED_clean_linker_0, # of connection points: 2
#     Edge 90, Type (0, 1), BuildingBlock: XIVTED_clean_linker_0, # of connection points: 2
#     Edge 91, Type (0, 1), BuildingBlock: XIVTED_clean_linker_0, # of connection points: 2
#     Edge 92, Type (0, 1), BuildingBlock: XIVTED_clean_linker_0, # of connection points: 2
#     Edge 93, Type (0, 1), BuildingBlock: XIVTED_clean_linker_0, # of connection points: 2
#     Edge 94, Type (0, 1), BuildingBlock: XIVTED_clean_linker_0, # of connection points: 2
#     Edge 95, Type (0, 1), BuildingBlock: XIVTED_clean_linker_0, # of connection points: 2
#     Edge 96, Type (0, 1), BuildingBlock: XIVTED_clean_linker_0, # of connection points: 2
#     Edge 97, Type (0, 1), BuildingBlock: XIVTED_clean_linker_0, # of connection points: 2
#     Edge 98, Type (0, 1), BuildingBlock: XIVTED_clean_linker_0, # of connection points: 2
#     Edge 99, Type (0, 1), BuildingBlock: XIVTED_clean_linker_0, # of connection points: 2
#     Edge 100, Type (0, 1), BuildingBlock: XIVTED_clean_linker_0, # of connection points: 2
#     Edge 101, Type (0, 1), BuildingBlock: XIVTED_clean_linker_0, # of connection points: 2
#     Edge 102, Type (0, 1), BuildingBlock: XIVTED_clean_linker_0, # of connection points: 2
#     Edge 103, Type (0, 1), BuildingBlock: XIVTED_clean_linker_0, # of connection points: 2
#     Edge 104, Type (0, 1), BuildingBlock: XIVTED_clean_linker_0, # of connection points: 2
#     Edge 105, Type (0, 1), BuildingBlock: XIVTED_clean_linker_0, # of connection points: 2
#     Edge 106, Type (0, 1), BuildingBlock: XIVTED_clean_linker_0, # of connection points: 2
#     Edge 107, Type (0, 1), BuildingBlock: XIVTED_clean_linker_0, # of connection points: 2
#     Edge 108, Type (0, 1), BuildingBlock: XIVTED_clean_linker_0, # of connection points: 2
#     Edge 109, Type (0, 1), BuildingBlock: XIVTED_clean_linker_0, # of connection points: 2
#     Edge 110, Type (0, 1), BuildingBlock: XIVTED_clean_linker_0, # of connection points: 2
#     Edge 111, Type (0, 1), BuildingBlock: XIVTED_clean_linker_0, # of connection points: 2
#     Edge 112, Type (0, 1), BuildingBlock: XIVTED_clean_linker_0, # of connection points: 2
#     Edge 113, Type (0, 1), BuildingBlock: XIVTED_clean_linker_0, # of connection points: 2
#     Edge 114, Type (0, 1), BuildingBlock: XIVTED_clean_linker_0, # of connection points: 2
#     Edge 115, Type (0, 1), BuildingBlock: XIVTED_clean_linker_0, # of connection points: 2
#     Edge 116, Type (0, 1), BuildingBlock: XIVTED_clean_linker_0, # of connection points: 2
#     Edge 117, Type (0, 1), BuildingBlock: XIVTED_clean_linker_0, # of connection points: 2
#     Edge 118, Type (0, 1), BuildingBlock: XIVTED_clean_linker_0, # of connection points: 2
#     Edge 119, Type (0, 1), BuildingBlock: XIVTED_clean_linker_0, # of connection points: 2
#     Edge 120, Type (0, 1), BuildingBlock: XIVTED_clean_linker_0, # of connection points: 2
#     Edge 121, Type (0, 1), BuildingBlock: XIVTED_clean_linker_0, # of connection points: 2
#     Edge 122, Type (0, 1), BuildingBlock: XIVTED_clean_linker_0, # of connection points: 2
#     Edge 123, Type (0, 1), BuildingBlock: XIVTED_clean_linker_0, # of connection points: 2
#     Edge 124, Type (0, 1), BuildingBlock: XIVTED_clean_linker_0, # of connection points: 2
#     Edge 125, Type (0, 1), BuildingBlock: XIVTED_clean_linker_0, # of connection points: 2
#     Edge 126, Type (0, 1), BuildingBlock: XIVTED_clean_linker_0, # of connection points: 2
#     Edge 127, Type (0, 1), BuildingBlock: XIVTED_clean_linker_0, # of connection points: 2
#     Edge 128, Type (0, 1), BuildingBlock: XIVTED_clean_linker_0, # of connection points: 2
#     Edge 129, Type (0, 1), BuildingBlock: XIVTED_clean_linker_0, # of connection points: 2
#     Edge 130, Type (0, 1), BuildingBlock: XIVTED_clean_linker_0, # of connection points: 2
#     Edge 131, Type (0, 1), BuildingBlock: XIVTED_clean_linker_0, # of connection points: 2
#     Edge 132, Type (0, 1), BuildingBlock: XIVTED_clean_linker_0, # of connection points: 2
#     Edge 133, Type (0, 1), BuildingBlock: XIVTED_clean_linker_0, # of connection points: 2
#     Edge 134, Type (0, 1), BuildingBlock: XIVTED_clean_linker_0, # of connection points: 2
#     Edge 135, Type (0, 1), BuildingBlock: XIVTED_clean_linker_0, # of connection points: 2
# Relax obj value: 0.350
# Max RMSD: 0.307
# Mean RMSD: 0.277
data_MOF--net-ibd--node1-CEKHIL_clean_sbu_0--node2-CIFDUS_clean_sbu_1--edge1-XIVTED_clean_linker_0
_symmetry_space_group_name_H-M    P1
_symmetry_Int_Tables_number       1
_symmetry_cell_setting            triclinic
loop_
_symmetry_equiv_pos_as_xyz
'x, y, z'
_cell_length_a     47.061369
_cell_length_b     48.306922
_cell_length_c     49.111782
_cell_angle_alpha  91.182198
_cell_angle_beta   89.608393
_cell_angle_gamma 94.076353
loop_
_atom_site_label
_atom_site_type_symbol
_atom_site_fract_x
_atom_site_fract_y
_atom_site_fract_z
_atom_type_partial_charge
Co0 Co 0.00531 0.32514 0.36502 0.0
O1 O -0.00135 0.35259 0.33841 0.0
O2 O 0.97099 0.31419 0.34531 0.0
C3 C 0.01656 0.35228 0.4012 0.0
O4 O 0.00468 0.2933 0.39185 0.0
Co5 Co 0.06647 0.32154 0.387 0.0
O6 O 0.04676 0.29658 0.41379 0.0
C7 C 0.05413 0.30637 0.33053 0.0
C8 C 0.97657 0.33649 0.33125 0.0
C9 C 0.02102 0.2867 0.41133 0.0
O10 O 0.02756 0.30467 0.33682 0.0
O11 O 0.0735 0.31559 0.34715 0.0
O12 O 0.98997 0.34748 0.39428 0.0
O13 O 0.03497 0.3451 0.3832 0.0
Co14 Co 0.98552 0.77451 0.64349 0.0
O15 O 0.96047 0.78442 0.67223 0.0
O16 O 0.00202 0.80705 0.66322 0.0
C17 C 0.95381 0.7662 0.61009 0.0
O18 O 0.01598 0.76951 0.61424 0.0
Co19 Co 0.97892 0.71325 0.62355 0.0
O20 O 0.00385 0.72827 0.59355 0.0
C21 C -0.00305 0.72663 0.67879 0.0
C22 C 0.97998 0.80345 0.67934 0.0
C23 C 0.01826 0.75171 0.59447 0.0
O24 O 0.00461 0.75077 0.66983 0.0
O25 O 0.98383 0.70793 0.66385 0.0
O26 O 0.96317 0.79167 0.61584 0.0
O27 O 0.96036 0.74795 0.62744 0.0
Co28 Co 0.50577 0.82928 0.86546 0.0
O29 O 0.50335 0.85544 0.83655 0.0
O30 O 0.47063 0.82161 0.84591 0.0
C31 C 0.5208 0.85879 0.89911 0.0
O32 O 0.50002 0.79977 0.89483 0.0
Co33 Co 0.56449 0.81902 0.89006 0.0
O34 O 0.54058 0.80094 0.91896 0.0
C35 C 0.55171 0.80154 0.83384 0.0
C36 C 0.47929 0.84203 0.83033 0.0
C37 C 0.51418 0.79364 0.91606 0.0
O38 O 0.52515 0.80377 0.83913 0.0
O39 O 0.57135 0.80899 0.85089 0.0
O40 O 0.49395 0.85636 0.89257 0.0
O41 O 0.53765 0.84663 0.88261 0.0
Co42 Co 0.46633 0.27518 0.14564 0.0
O43 O 0.44353 0.28744 0.17534 0.0
O44 O 0.48866 0.30207 0.16804 0.0
C45 C 0.43537 0.27738 0.11139 0.0
O46 O 0.4958 0.2673 0.11617 0.0
Co47 Co 0.4483 0.21859 0.11813 0.0
O48 O 0.47603 0.23236 0.08999 0.0
C49 C 0.47123 0.21935 0.17293 0.0
C50 C 0.46621 0.30193 0.18371 0.0
C51 C 0.49501 0.25216 0.09416 0.0
O52 O 0.47875 0.2451 0.16961 0.0
O53 O 0.45689 0.20456 0.15523 0.0
O54 O 0.44972 0.29978 0.12019 0.0
O55 O 0.43672 0.25584 0.1265 0.0
Co56 Co 0.02358 0.79317 0.11437 0.0
O57 O 0.02495 0.8177 0.08382 0.0
O58 O 0.98643 0.79284 0.09782 0.0
C59 C 0.04747 0.81982 0.14587 0.0
O60 O 0.01388 0.76688 0.14541 0.0
Co61 Co 0.07928 0.77022 0.13476 0.0
O62 O 0.05473 0.75812 0.16615 0.0
C63 C 0.05662 0.7518 0.08196 0.0
C64 C -0.00176 0.80977 0.08012 0.0
C65 C 0.02759 0.75748 0.16547 0.0
O66 O 0.03309 0.76185 0.089 0.0
O67 O 0.0793 0.75539 0.09617 0.0
O68 O 0.02102 0.82382 0.14055 0.0
O69 O 0.05961 0.80368 0.12866 0.0
Co70 Co 0.49174 0.768 0.38793 0.0
O71 O 0.47039 0.76347 0.42152 0.0
O72 O 0.49222 0.80286 0.40746 0.0
C73 C 0.46188 0.7453 0.3584 0.0
O74 O 0.51391 0.78114 0.3541 0.0
Co75 Co 0.5161 0.71725 0.35938 0.0
O76 O 0.51964 0.74289 0.32835 0.0
C77 C 0.54106 0.73778 0.41064 0.0
C78 C 0.47746 0.78965 0.42621 0.0
C79 C 0.51917 0.76915 0.3311 0.0
O80 O 0.52726 0.75953 0.40794 0.0
O81 O 0.53817 0.7169 0.39421 0.0
O82 O 0.45716 0.77015 0.36719 0.0
O83 O 0.48114 0.73324 0.37172 0.0
Co84 Co 0.52025 0.28959 0.61921 0.0
O85 O 0.51956 0.31714 0.59137 0.0
O86 O 0.48379 0.28657 0.60113 0.0
C87 C 0.53957 0.31547 0.65383 0.0
O88 O 0.51258 0.25919 0.64706 0.0
Co89 Co 0.57753 0.27103 0.64026 0.0
O90 O 0.55315 0.25466 0.66998 0.0
C91 C 0.56039 0.25696 0.58438 0.0
C92 C 0.49407 0.30646 0.5857 0.0
C93 C 0.5262 0.25057 0.66759 0.0
O94 O 0.53517 0.26323 0.5911 0.0
O95 O 0.58155 0.26058 0.6006 0.0
O96 O 0.5127 0.3165 0.64809 0.0
O97 O 0.55436 0.30256 0.6359 0.0
Co98 Co -0.00377 0.26533 0.89587 0.0
O99 O 0.97476 0.26156 0.92936 0.0
O100 O -0.00177 0.30021 0.91544 0.0
C101 C 0.96568 0.24435 0.866 0.0
O102 O 0.01892 0.2774 0.86202 0.0
Co103 Co 0.0181 0.21295 0.86816 0.0
O104 O 0.0248 0.23842 0.83737 0.0
C105 C 0.04415 0.23319 0.91879 0.0
C106 C 0.98276 0.28753 0.93405 0.0
C107 C 0.02496 0.26476 0.83957 0.0
O108 O 0.03127 0.25544 0.91576 0.0
O109 O 0.04018 0.21202 0.90288 0.0
O110 O 0.96194 0.26921 0.87534 0.0
O111 O 0.98394 0.23105 0.87946 0.0
Co112 Co 0.35783 0.00182 0.22214 0.0
O113 O 0.38599 0.99197 0.19581 0.0
O114 O 0.3686 0.96467 0.22865 0.0
C115 C 0.32761 0.02184 0.19478 0.0
O116 O 0.32748 0.00441 0.25169 0.0
Co117 Co 0.34941 0.06375 0.23506 0.0
O118 O 0.31524 0.04863 0.25545 0.0
C119 C 0.40239 0.04052 0.25013 0.0
C120 C 0.38671 0.96884 0.20876 0.0
C121 C 0.31113 0.02291 0.26071 0.0
O122 O 0.38951 0.01631 0.2472 0.0
O123 O 0.39098 0.0627 0.24367 0.0
O124 O 0.32676 0.99485 0.19591 0.0
O125 O 0.34911 0.0349 0.20672 0.0
Co126 Co 0.22655 0.15314 0.52046 0.0
O127 O 0.22722 0.12652 0.54935 0.0
O128 O 0.26077 0.13388 0.51788 0.0
C129 C 0.21247 0.19013 0.54381 0.0
O130 O 0.23443 0.1792 0.48886 0.0
Co131 Co 0.16976 0.17512 0.50166 0.0
O132 O 0.19522 0.20183 0.48091 0.0
C133 C 0.18035 0.11676 0.49269 0.0
C134 C 0.25103 0.11954 0.53848 0.0
C135 C 0.22166 0.19854 0.4774 0.0
O136 O 0.20691 0.12344 0.49656 0.0
O137 O 0.16118 0.13401 0.49628 0.0
O138 O 0.23893 0.18393 0.54483 0.0
O139 O 0.19504 0.17156 0.53242 0.0
Co140 Co 0.12871 0.06373 0.75008 0.0
O141 O 0.1557 0.06728 0.72052 0.0
O142 O 0.13754 0.02748 0.73734 0.0
C143 C 0.09808 0.09406 0.737 0.0
O144 O 0.09967 0.0521 0.77942 0.0
Co145 Co 0.12362 0.11269 0.79038 0.0
O146 O 0.08854 0.09087 0.80197 0.0
C147 C 0.17392 0.08091 0.79306 0.0
C148 C 0.15506 0.04035 0.72045 0.0
C149 C 0.08387 0.06512 0.79615 0.0
O150 O 0.16162 0.0637 0.77597 0.0
O151 O 0.16313 0.10336 0.8008 0.0
O152 O 0.09718 0.06916 0.72641 0.0
O153 O 0.12008 0.10132 0.75204 0.0
Co154 Co 0.24247 0.90597 0.01382 0.0
O155 O 0.24113 0.87418 0.03663 0.0
O156 O 0.27779 0.88803 0.01035 0.0
C157 C 0.22445 0.93594 0.04337 0.0
O158 O 0.25179 0.93821 0.98849 0.0
Co159 Co 0.18677 0.93088 -0.00403 0.0
O160 O 0.21298 0.9621 0.98303 0.0
C161 C 0.19872 0.8737 0.98168 0.0
C162 C 0.26615 0.8697 0.02682 0.0
C163 C 0.23969 0.95972 0.98052 0.0
O164 O 0.22527 0.88136 0.98408 0.0
O165 O 0.1792 0.89005 0.98743 0.0
O166 O 0.25139 0.93145 0.04454 0.0
O167 O 0.2093 0.92019 0.0267 0.0
Co168 Co 0.28848 0.40599 -0.00263 0.0
O169 O 0.31528 0.3783 0.00345 0.0
O170 O 0.29301 0.38476 0.96456 0.0
C171 C 0.31105 0.44339 0.01692 0.0
O172 O 0.26095 0.43274 0.98297 0.0
Co173 Co 0.25615 0.43118 0.04573 0.0
O174 O 0.2484 0.45943 0.01848 0.0
C175 C 0.24024 0.37417 0.02846 0.0
C176 C 0.30975 0.37021 0.97849 0.0
C177 C 0.25042 0.45465 0.99296 0.0
O178 O 0.25672 0.37825 0.00785 0.0
O179 O 0.23786 0.39232 0.04752 0.0
O180 O 0.31879 0.43477 0.99289 0.0
O181 O 0.29384 0.42622 0.03014 0.0
Co182 Co 0.76185 0.16196 0.99266 0.0
O183 O 0.78983 0.13793 0.97985 0.0
O184 O 0.74571 0.1376 0.96406 0.0
C185 C 0.78877 0.20217 -0.00587 0.0
O186 O 0.72778 0.18456 0.0008 0.0
Co187 Co 0.76908 0.18825 0.05019 0.0
O188 O 0.73936 0.21204 0.03716 0.0
C189 C 0.75416 0.12884 0.04492 0.0
C190 C 0.77 0.12628 0.96433 0.0
C191 C 0.72351 0.20541 0.01674 0.0
O192 O 0.74906 0.13292 0.01976 0.0
O193 O 0.76454 0.14815 0.06094 0.0
O194 O 0.77778 0.19286 0.97119 0.0
O195 O 0.78654 0.18511 0.01418 0.0
Co196 Co 0.1288 0.51794 0.26885 0.0
O197 O 0.15163 0.48954 0.28159 0.0
O198 O 0.14933 0.53113 0.30121 0.0
C199 C 0.08883 0.49095 0.26071 0.0
O200 O 0.1061 0.55161 0.26236 0.0
Co201 Co 0.10837 0.51686 0.20931 0.0
O202 O 0.08073 0.54271 0.22421 0.0
C203 C 0.16828 0.53318 0.22062 0.0
C204 C 0.16021 0.5071 0.30066 0.0
C205 C 0.08551 0.55646 0.24634 0.0
O206 O 0.16185 0.53331 0.24609 0.0
O207 O 0.15027 0.52529 0.20212 0.0
O208 O 0.09466 0.50001 0.28531 0.0
O209 O 0.10872 0.49572 0.24272 0.0
Co210 Co 0.79209 0.91354 0.50207 0.0
O211 O 0.81933 0.88617 0.50741 0.0
O212 O 0.7963 0.89217 0.46894 0.0
C213 C 0.81485 0.95104 0.52147 0.0
O214 O 0.76371 0.94062 0.48917 0.0
Co215 Co 0.76158 0.93608 0.55295 0.0
O216 O 0.75195 0.96463 0.5269 0.0
C217 C 0.74448 0.88034 0.53332 0.0
C218 C 0.81353 0.87783 0.48264 0.0
C219 C 0.75292 0.96155 0.50107 0.0
O220 O 0.76077 0.88531 0.51275 0.0
O221 O 0.74256 0.89751 0.5533 0.0
O222 O 0.82198 0.94274 0.49715 0.0
O223 O 0.79844 0.93337 0.53496 0.0
Co224 Co 0.88192 0.01388 0.28029 0.0
O225 O 0.90947 0.99129 0.26364 0.0
O226 O 0.90814 0.00345 0.3075 0.0
C227 C 0.84266 0.99356 0.26116 0.0
O228 O 0.85519 0.03542 0.30438 0.0
Co229 Co 0.85047 0.0525 0.24329 0.0
O230 O 0.82452 0.05279 0.27524 0.0
C231 C 0.91032 0.06649 0.25544 0.0
C232 C 0.92075 0.99083 0.28762 0.0
C233 C 0.83175 0.04645 0.29914 0.0
O234 O 0.90817 0.04766 0.27346 0.0
O235 O 0.88995 0.07101 0.23936 0.0
O236 O 0.85417 0.9825 0.28192 0.0
O237 O 0.85773 0.01397 0.25013 0.0
Co238 Co 0.25058 0.65954 0.49875 0.0
O239 O 0.27966 0.63488 0.49128 0.0
O240 O 0.24011 0.63674 0.46709 0.0
C241 C 0.27773 0.69874 0.50673 0.0
O242 O 0.21657 0.68317 0.50078 0.0
Co243 Co 0.24631 0.68271 0.55769 0.0
O244 O 0.21909 0.7069 0.54078 0.0
C245 C 0.23478 0.62376 0.54689 0.0
C246 C 0.26318 0.62437 0.47204 0.0
C247 C 0.20851 0.70236 0.51711 0.0
O248 O 0.23112 0.63022 0.52205 0.0
O249 O 0.24352 0.6417 0.56502 0.0
O250 O 0.27238 0.69053 0.48175 0.0
O251 O 0.27033 0.68089 0.52525 0.0
Co252 Co 0.37475 0.51471 0.77258 0.0
O253 O 0.40333 0.48984 0.76243 0.0
O254 O 0.39763 0.50815 0.80381 0.0
C255 C 0.33712 0.49242 0.75239 0.0
O256 O 0.34627 0.53974 0.79044 0.0
Co257 Co 0.34726 0.54777 0.72761 0.0
O258 O 0.31775 0.55084 0.75627 0.0
C259 C 0.40561 0.5641 0.74417 0.0
C260 C 0.41203 0.49282 0.7874 0.0
C261 C 0.32278 0.54834 0.78153 0.0
O262 O 0.40232 0.54694 0.76368 0.0
O263 O 0.38658 0.56682 0.72613 0.0
O264 O 0.34615 0.48409 0.7756 0.0
O265 O 0.35389 0.5108 0.74026 0.0
Co266 Co 0.63493 0.02976 0.75632 0.0
O267 O 0.66183 0.0019 0.75433 0.0
O268 O 0.65636 0.03015 0.78992 0.0
C269 C 0.59671 0.00473 0.73969 0.0
O270 O 0.60865 0.0605 0.76507 0.0
Co271 Co 0.61157 0.05071 0.70206 0.0
O272 O 0.58469 0.06905 0.72686 0.0
C273 C 0.67124 0.06341 0.7162 0.0
C274 C 0.67035 0.01081 0.77823 0.0
C275 C 0.58882 0.07207 0.75242 0.0
O276 O 0.66474 0.05687 0.74076 0.0
O277 O 0.65362 0.0598 0.6965 0.0
O278 O 0.60373 0.00242 0.76508 0.0
O279 O 0.61515 0.01872 0.72481 0.0
Co280 Co 0.73447 0.65592 0.02447 0.0
O281 O 0.73517 0.63079 0.05466 0.0
O282 O 0.76907 0.63701 0.02338 0.0
C283 C 0.71943 0.69393 0.04573 0.0
O284 O 0.7423 0.68052 0.99174 0.0
Co285 Co 0.67731 0.67559 0.00393 0.0
O286 O 0.70263 0.70203 0.98272 0.0
C287 C 0.68924 0.61728 -0.00234 0.0
C288 C 0.75919 0.62351 0.04446 0.0
C289 C 0.7292 0.69921 0.97957 0.0
O290 O 0.71564 0.62468 0.00167 0.0
O291 O 0.66964 0.63421 0.00024 0.0
O292 O 0.74598 0.68817 0.04751 0.0
O293 O 0.70248 0.67445 0.03511 0.0
Co294 Co 0.85867 0.52336 0.73309 0.0
O295 O 0.88859 0.52301 0.70663 0.0
O296 O 0.87569 0.48803 0.7337 0.0
C297 C 0.82526 0.54225 0.70891 0.0
O298 O 0.82794 0.51695 0.7621 0.0
Co299 Co 0.84311 0.58079 0.75508 0.0
O300 O 0.81231 0.55852 0.7745 0.0
C301 C 0.89988 0.56279 0.7615 0.0
C302 C 0.8936 0.49883 0.71585 0.0
C303 C 0.81048 0.53204 0.77498 0.0
O304 O 0.88769 0.53823 0.76037 0.0
O305 O 0.88598 0.58416 0.75768 0.0
O306 O 0.82911 0.51594 0.70556 0.0
O307 O 0.84461 0.55643 0.72293 0.0
Co308 Co 0.73995 0.4079 0.50935 0.0
O309 O 0.74018 0.37645 0.53298 0.0
O310 O 0.77617 0.39152 0.50664 0.0
C311 C 0.72063 0.43827 0.53816 0.0
O312 O 0.74851 0.43978 0.48344 0.0
Co313 Co 0.68394 0.43138 0.49047 0.0
O314 O 0.70947 0.46315 0.47752 0.0
C315 C 0.69839 0.37592 0.47195 0.0
C316 C 0.76573 0.37323 0.52372 0.0
C317 C 0.73621 0.46098 0.47503 0.0
O318 O 0.72422 0.38216 0.47945 0.0
O319 O 0.67824 0.39184 0.47674 0.0
O320 O 0.74765 0.4343 0.53967 0.0
O321 O 0.70601 0.42162 0.5218 0.0
Co322 Co 0.61784 0.55016 0.24721 0.0
O323 O 0.64327 0.54742 0.21669 0.0
O324 O 0.63312 0.5143 0.24663 0.0
C325 C 0.58163 0.56842 0.2267 0.0
O326 O 0.59174 0.54538 0.28005 0.0
Co327 Co 0.60466 0.60826 0.26924 0.0
O328 O 0.57443 0.58668 0.29003 0.0
C329 C 0.66184 0.58942 0.2743 0.0
C330 C 0.64769 0.52291 0.22542 0.0
C331 C 0.57413 0.56043 0.29261 0.0
O332 O 0.65089 0.56469 0.27019 0.0
O333 O 0.64753 0.61081 0.27204 0.0
O334 O 0.58479 0.54194 0.22448 0.0
O335 O 0.60276 0.58338 0.23746 0.0
O336 O 0.14999 0.18356 0.10322 0.0
Mn337 Mn 0.12972 0.16061 0.13423 0.0
O338 O 0.19117 0.20327 0.11991 0.0
Mn339 Mn 0.18304 0.19525 0.15595 0.0
O340 O 0.10766 0.13945 0.1661 0.0
O341 O 0.0946 0.15882 0.11203 0.0
Mn342 Mn 0.07409 0.12717 0.1137 0.0
O343 O 0.14046 0.12363 0.11588 0.0
O344 O 0.06358 0.1272 0.14979 0.0
O345 O 0.11804 0.19732 0.15331 0.0
O346 O 0.15769 0.21764 0.17265 0.0
O347 O 0.05829 0.14817 0.08694 0.0
O348 O 0.09901 0.10036 0.10369 0.0
C349 C 0.1872 0.15395 0.16961 0.0
C350 C 0.17351 0.19846 0.10055 0.0
C351 C 0.08125 0.13088 0.16931 0.0
C352 C 0.07954 0.16587 0.09207 0.0
C353 C 0.12616 0.10224 0.10577 0.0
C354 C 0.13095 0.21637 0.1683 0.0
O355 O 0.16601 0.16159 0.15574 0.0
O356 O 0.20597 0.17391 0.17586 0.0
O357 O 0.11159 0.85733 0.35355 0.0
Mn358 Mn 0.11977 0.88193 0.38835 0.0
O359 O 0.15472 0.85187 0.33447 0.0
Mn360 Mn 0.17825 0.86881 0.36149 0.0
O361 O 0.1286 0.90868 0.4217 0.0
O362 O 0.08068 0.89496 0.3857 0.0
Mn363 Mn 0.06369 0.89586 0.41775 0.0
O364 O 0.10476 0.85001 0.41433 0.0
O365 O 0.08641 0.92192 0.43737 0.0
O366 O 0.13662 0.91445 0.36355 0.0
O367 O 0.18335 0.90683 0.35858 0.0
O368 O 0.03781 0.90702 0.39281 0.0
O369 O 0.06179 0.86008 0.43056 0.0
C370 C 0.17414 0.8509 0.40164 0.0
C371 C 0.12745 0.84906 0.33395 0.0
C372 C 0.11362 0.92412 0.43694 0.0
C373 C 0.05804 0.90362 0.37537 0.0
C374 C 0.0822 0.84421 0.42862 0.0
C375 C 0.16259 0.92238 0.35712 0.0
O376 O 0.15772 0.86758 0.39114 0.0
O377 O 0.19599 0.84681 0.38645 0.0
O378 O 0.39584 0.93512 0.65016 0.0
Mn379 Mn 0.36707 0.91604 0.62184 0.0
O380 O 0.42336 0.96697 0.62705 0.0
Mn381 Mn 0.4103 0.95697 0.59262 0.0
O382 O 0.34009 0.89645 0.59212 0.0
O383 O 0.36026 0.88443 0.64791 0.0
Mn384 Mn 0.32428 0.87195 0.64672 0.0
O385 O 0.33305 0.93595 0.63955 0.0
O386 O 0.31784 0.85922 0.61178 0.0
O387 O 0.39966 0.89494 0.60294 0.0
O388 O 0.42488 0.92591 0.5771 0.0
O389 O 0.34082 0.85078 0.67209 0.0
O390 O 0.30371 0.90164 0.65695 0.0
C391 C 0.36917 0.96871 0.58116 0.0
C392 C 0.41584 0.95473 0.64897 0.0
C393 C 0.32432 0.87361 0.59098 0.0
C394 C 0.36345 0.86657 0.66673 0.0
C395 C 0.30986 0.92713 0.65168 0.0
C396 C 0.41879 0.90115 0.58479 0.0
O397 O 0.37362 0.94831 0.59679 0.0
O398 O 0.39211 0.9816 0.57182 0.0
O399 O 0.40401 0.19212 0.9109 0.0
Mn400 Mn 0.39248 0.16082 0.88221 0.0
O401 O 0.43296 0.17394 0.94115 0.0
Mn402 Mn 0.43237 0.13853 0.92575 0.0
O403 O 0.37856 0.12816 0.85519 0.0
O404 O 0.35819 0.18097 0.87426 0.0
Mn405 Mn 0.34897 0.18062 0.83986 0.0
O406 O 0.41479 0.18224 0.85086 0.0
O407 O 0.341 0.14346 0.83281 0.0
O408 O 0.36943 0.13778 0.91215 0.0
O409 O 0.40151 0.11497 0.93504 0.0
O410 O 0.32439 0.2033 0.8582 0.0
O411 O 0.38114 0.19614 0.82257 0.0
C412 C 0.45311 0.13374 0.88699 0.0
C413 C 0.41926 0.19383 0.93258 0.0
C414 C 0.35661 0.12422 0.83957 0.0
C415 C 0.33946 0.19842 0.87923 0.0
C416 C 0.40715 0.19447 0.82924 0.0
C417 C 0.37586 0.11885 0.92875 0.0
O418 O 0.42806 0.14232 0.8905 0.0
O419 O 0.46487 0.12661 0.90929 0.0
O420 O 0.60161 0.36084 0.86192 0.0
Mn421 Mn 0.61377 0.38474 0.89655 0.0
O422 O 0.64263 0.34831 0.84258 0.0
Mn423 Mn 0.66853 0.36516 0.86739 0.0
O424 O 0.62706 0.4106 0.92959 0.0
O425 O 0.57649 0.40245 0.89522 0.0
Mn426 Mn 0.56177 0.40439 0.92832 0.0
O427 O 0.59634 0.35408 0.9228 0.0
O428 O 0.58761 0.42737 0.94785 0.0
O429 O 0.63282 0.41573 0.87127 0.0
O430 O 0.67701 0.40236 0.86177 0.0
O431 O 0.53614 0.41942 0.90587 0.0
O432 O 0.55561 0.36855 0.94038 0.0
C433 C 0.66692 0.34957 0.90831 0.0
C434 C 0.6155 0.34912 0.84265 0.0
C435 C 0.61463 0.42701 0.94607 0.0
C436 C 0.55433 0.41402 0.88696 0.0
C437 C 0.57375 0.35041 0.93754 0.0
C438 C 0.65841 0.42031 0.86197 0.0
O439 O 0.64977 0.36592 0.89811 0.0
O440 O 0.68748 0.34408 0.89196 0.0
O441 O 0.89377 0.42561 0.1585 0.0
Mn442 Mn 0.86692 0.41058 0.1268 0.0
O443 O 0.92298 0.46023 0.14179 0.0
Mn444 Mn 0.91154 0.45531 0.10596 0.0
O445 O 0.842 0.39414 0.09394 0.0
O446 O 0.85916 0.37561 0.14775 0.0
Mn447 Mn 0.8235 0.36251 0.14526 0.0
O448 O 0.83174 0.42725 0.14573 0.0
O449 O 0.81826 0.355 0.10871 0.0
O450 O 0.90094 0.39267 0.1071 0.0
O451 O 0.92737 0.42693 0.08677 0.0
O452 O 0.84128 0.33912 0.16813 0.0
O453 O 0.80318 0.39065 0.15997 0.0
C454 C 0.8717 0.46946 0.09401 0.0
C455 C 0.91396 0.44485 0.16122 0.0
C456 C 0.82638 0.37142 0.08979 0.0
C457 C 0.86319 0.35645 0.16487 0.0
C458 C 0.80927 0.4167 0.15792 0.0
C459 C 0.92109 0.40127 0.09089 0.0
O460 O 0.87444 0.44659 0.10676 0.0
O461 O 0.89543 0.48328 0.08813 0.0
O462 O 0.91211 0.68462 0.40814 0.0
Mn463 Mn 0.89286 0.66483 0.3738 0.0
O464 O 0.93791 0.65255 0.42719 0.0
Mn465 Mn 0.92912 0.62349 0.40296 0.0
O466 O 0.872 0.64349 0.34088 0.0
O467 O 0.86307 0.69282 0.37618 0.0
Mn468 Mn 0.85466 0.70306 0.34316 0.0
O469 O 0.91746 0.69033 0.34726 0.0
O470 O 0.83982 0.67169 0.32545 0.0
O471 O 0.86753 0.63796 0.39918 0.0
O472 O 0.89525 0.60378 0.41023 0.0
O473 O 0.83282 0.72313 0.36625 0.0
O474 O 0.88791 0.71898 0.3283 0.0
C475 C 0.94547 0.62574 0.36237 0.0
C476 C 0.92799 0.67646 0.42724 0.0
C477 C 0.85084 0.64842 0.32565 0.0
C478 C 0.84599 0.71084 0.38509 0.0
C479 C 0.91256 0.71009 0.33112 0.0
C480 C 0.87115 0.6142 0.40971 0.0
O481 O 0.92396 0.63845 0.37135 0.0
O482 O 0.95645 0.61023 0.38009 0.0
O483 O 0.849 0.87347 0.89262 0.0
Mn484 Mn 0.87337 0.90925 0.88097 0.0
O485 O 0.83402 0.85156 0.85364 0.0
Mn486 Mn 0.8525 0.87548 0.82905 0.0
O487 O 0.89852 0.9442 0.86848 0.0
O488 O 0.89279 0.91017 0.91774 0.0
Mn489 Mn 0.89402 0.94478 0.93044 0.0
O490 O 0.84165 0.93429 0.89554 0.0
O491 O 0.91623 0.96582 0.9063 0.0
O492 O 0.90581 0.8857 0.86463 0.0
O493 O 0.89048 0.87108 0.82289 0.0
O494 O 0.91084 0.92535 0.9567 0.0
O495 O 0.85706 0.95438 0.93485 0.0
C496 C 0.83662 0.91603 0.82673 0.0
C497 C 0.83498 0.85353 0.87962 0.0
C498 C 0.91483 0.96308 0.88048 0.0
C499 C 0.90547 0.90449 0.94011 0.0
C500 C 0.83806 0.94968 0.91675 0.0
C501 C 0.9099 0.87501 0.84076 0.0
O502 O 0.85304 0.90808 0.84538 0.0
O503 O 0.83147 0.89763 0.80759 0.0
O504 O 0.92271 0.19869 0.65463 0.0
Mn505 Mn 0.89757 0.17965 0.62335 0.0
O506 O 0.89988 0.23402 0.67229 0.0
Mn507 Mn 0.86588 0.22232 0.65604 0.0
O508 O 0.872 0.15773 0.59363 0.0
O509 O 0.9234 0.14878 0.62485 0.0
Mn510 Mn 0.93162 0.1348 0.59289 0.0
O511 O 0.92338 0.19856 0.59303 0.0
O512 O 0.89658 0.12099 0.58058 0.0
O513 O 0.87088 0.15983 0.65236 0.0
O514 O 0.84603 0.19277 0.6724 0.0
O515 O 0.95326 0.11761 0.61823 0.0
O516 O 0.94795 0.16461 0.57375 0.0
C517 C 0.85685 0.23228 0.61552 0.0
C518 C 0.92115 0.21927 0.67141 0.0
C519 C 0.87408 0.13423 0.58096 0.0
C520 C 0.94216 0.13434 0.63547 0.0
C521 C 0.94159 0.18984 0.5757 0.0
C522 C 0.8515 0.1675 0.66891 0.0
O523 O 0.87243 0.21218 0.6218 0.0
O524 O 0.8469 0.24615 0.63587 0.0
O525 O 0.6329 0.17292 0.3875 0.0
Mn526 Mn 0.61491 0.13578 0.37067 0.0
O527 O 0.6546 0.19559 0.35224 0.0
Mn528 Mn 0.64803 0.16889 0.32458 0.0
O529 O 0.59574 0.09978 0.35184 0.0
O530 O 0.58626 0.13362 0.40107 0.0
Mn531 Mn 0.57847 0.09906 0.41115 0.0
O532 O 0.6416 0.11274 0.39328 0.0
O533 O 0.56242 0.08162 0.38071 0.0
O534 O 0.5875 0.15744 0.34638 0.0
O535 O 0.61282 0.16742 0.30809 0.0
O536 O 0.55852 0.12132 0.43451 0.0
O537 O 0.61328 0.08702 0.42189 0.0
C538 C 0.6679 0.13048 0.33128 0.0
C539 C 0.64723 0.19399 0.37733 0.0
C540 C 0.57377 0.08327 0.35713 0.0
C541 C 0.57124 0.1416 0.42138 0.0
C542 C 0.63767 0.09468 0.41199 0.0
C543 C 0.58927 0.16408 0.32106 0.0
O544 O 0.6446 0.13762 0.34191 0.0
O545 O 0.67818 0.14795 0.3136 0.0
O546 O 0.59747 0.90401 0.10235 0.0
Mn547 Mn 0.61969 0.91269 0.13839 0.0
O548 O 0.58351 0.94577 0.0895 0.0
Mn549 Mn 0.59634 0.96802 0.11911 0.0
O550 O 0.64277 0.92454 0.17355 0.0
O551 O 0.64297 0.87881 0.13074 0.0
Mn552 Mn 0.645 0.86406 0.16363 0.0
O553 O 0.58879 0.88909 0.16059 0.0
O554 O 0.66519 0.88806 0.18699 0.0
O555 O 0.65074 0.93801 0.11735 0.0
O556 O 0.63414 0.98074 0.1182 0.0
O557 O 0.66471 0.84145 0.14239 0.0
O558 O 0.60915 0.85154 0.17486 0.0
C559 C 0.57497 0.95621 0.15664 0.0
C560 C 0.58512 0.91959 0.08576 0.0
C561 C 0.66059 0.91355 0.18891 0.0
C562 C 0.65765 0.85783 0.12339 0.0
C563 C 0.58771 0.86585 0.17281 0.0
C564 C 0.6542 0.9646 0.1149 0.0
O565 O 0.59603 0.94459 0.14566 0.0
O566 O 0.56948 0.97871 0.14458 0.0
O567 O 0.4051 0.68813 0.15073 0.0
Mn568 Mn 0.38202 0.66977 0.11766 0.0
O569 O 0.3765 0.71702 0.1724 0.0
Mn570 Mn 0.34341 0.70385 0.15509 0.0
O571 O 0.3585 0.64955 0.08589 0.0
O572 O 0.41146 0.64223 0.11431 0.0
Mn573 Mn 0.42165 0.63598 0.08044 0.0
O574 O 0.40483 0.69596 0.08994 0.0
O575 O 0.38853 0.62212 0.06388 0.0
O576 O 0.35818 0.64335 0.14434 0.0
O577 O 0.32799 0.67001 0.16702 0.0
O578 O 0.44329 0.61445 0.10188 0.0
O579 O 0.43632 0.66996 0.06822 0.0
C580 C 0.33614 0.71648 0.11434 0.0
C581 C 0.40032 0.70632 0.16944 0.0
C582 C 0.36385 0.63079 0.0679 0.0
C583 C 0.43008 0.62586 0.12187 0.0
C584 C 0.42553 0.69303 0.07301 0.0
C585 C 0.33749 0.64651 0.16124 0.0
O586 O 0.3531 0.69801 0.12094 0.0
O587 O 0.32265 0.72691 0.1347 0.0
O588 O 0.13124 0.6674 0.90833 0.0
Mn589 Mn 0.11604 0.63877 0.8783 0.0
O590 O 0.15217 0.70359 0.88527 0.0
Mn591 Mn 0.148 0.6899 0.85 0.0
O592 O 0.10033 0.61175 0.84674 0.0
O593 O 0.08631 0.62304 0.90477 0.0
Mn594 Mn 0.08237 0.58654 0.90026 0.0
O595 O 0.14442 0.61068 0.89129 0.0
O596 O 0.0691 0.58029 0.86556 0.0
O597 O 0.0874 0.66649 0.8637 0.0
O598 O 0.11299 0.69471 0.83496 0.0
O599 O 0.05834 0.59504 0.92849 0.0
O600 O 0.11769 0.57342 0.90633 0.0
C601 C 0.17103 0.65333 0.84266 0.0
C602 C 0.14443 0.69165 0.90729 0.0
C603 C 0.08072 0.59183 0.84486 0.0
C604 C 0.06818 0.62039 0.92466 0.0
C605 C 0.14167 0.58613 0.9009 0.0
C606 C 0.08931 0.68495 0.84501 0.0
O607 O 0.14604 0.65382 0.85302 0.0
O608 O 0.18055 0.67712 0.83351 0.0
O609 O 0.0969 0.38165 0.60399 0.0
Mn610 Mn 0.1163 0.40381 0.63684 0.0
O611 O 0.06853 0.41095 0.58397 0.0
Mn612 Mn 0.08237 0.44292 0.60192 0.0
O613 O 0.13648 0.42675 0.66881 0.0
O614 O 0.1448 0.37468 0.63852 0.0
Mn615 Mn 0.14946 0.36572 0.67274 0.0
O616 O 0.0888 0.38204 0.66383 0.0
O617 O 0.16316 0.39756 0.69083 0.0
O618 O 0.14388 0.4268 0.61062 0.0
O619 O 0.11748 0.45768 0.59044 0.0
O620 O 0.17312 0.34437 0.65281 0.0
O621 O 0.11443 0.35085 0.68426 0.0
C622 C 0.06812 0.44806 0.64308 0.0
C623 C 0.07797 0.38707 0.58648 0.0
C624 C 0.15463 0.42162 0.68714 0.0
C625 C 0.16247 0.35623 0.63221 0.0
C626 C 0.09102 0.3615 0.67965 0.0
C627 C 0.14125 0.44764 0.59514 0.0
O628 O 0.08767 0.43231 0.63531 0.0
O629 O 0.0583 0.4624 0.62376 0.0
O630 O 0.64602 0.68963 0.59832 0.0
Mn631 Mn 0.62515 0.66585 0.62853 0.0
O632 O 0.687 0.70875 0.61591 0.0
Mn633 Mn 0.67742 0.70119 0.65168 0.0
O634 O 0.6025 0.64371 0.65938 0.0
O635 O 0.59098 0.66381 0.60496 0.0
Mn636 Mn 0.57096 0.63188 0.60593 0.0
O637 O 0.63753 0.62903 0.61018 0.0
O638 O 0.55906 0.63166 0.64161 0.0
O639 O 0.61203 0.70196 0.64821 0.0
O640 O 0.65128 0.72346 0.6674 0.0
O641 O 0.55555 0.65271 0.57883 0.0
O642 O 0.59666 0.60555 0.59665 0.0
C643 C 0.68057 0.66014 0.66641 0.0
C644 C 0.66979 0.70423 0.59615 0.0
C645 C 0.576 0.63515 0.66171 0.0
C646 C 0.57626 0.67079 0.58471 0.0
C647 C 0.62373 0.60747 0.59962 0.0
C648 C 0.62447 0.72125 0.66337 0.0
O649 O 0.66038 0.66756 0.65124 0.0
O650 O 0.69935 0.68001 0.67287 0.0
O651 O 0.34379 0.37365 0.39713 0.0
Mn652 Mn 0.36863 0.40972 0.38802 0.0
O653 O 0.32984 0.35441 0.35655 0.0
Mn654 Mn 0.34748 0.38065 0.33343 0.0
O655 O 0.39419 0.44496 0.3776 0.0
O656 O 0.38811 0.40805 0.42478 0.0
Mn657 Mn 0.38947 0.44229 0.43889 0.0
O658 O 0.33729 0.43406 0.40407 0.0
O659 O 0.41211 0.46468 0.41614 0.0
O660 O 0.40037 0.38644 0.36997 0.0
O661 O 0.38564 0.37759 0.32669 0.0
O662 O 0.40613 0.42194 0.46434 0.0
O663 O 0.35268 0.45212 0.44415 0.0
C664 C 0.33052 0.42106 0.33647 0.0
C665 C 0.3303 0.35455 0.38262 0.0
C666 C 0.41069 0.46313 0.39027 0.0
C667 C 0.40081 0.40171 0.447 0.0
C668 C 0.33367 0.44834 0.42595 0.0
C669 C 0.40474 0.37874 0.34505 0.0
O670 O 0.34851 0.41148 0.35267 0.0
O671 O 0.32493 0.40482 0.31569 0.0
H672 H 0.10488 0.31843 0.30487 0.0
H673 H 0.07404 0.21163 0.18213 0.0
H674 H 0.02269 0.27428 0.2931 0.0
H675 H 0.15026 0.26618 0.19039 0.0
H676 H 0.05177 0.23802 0.21874 0.0
H677 H 0.11949 0.30256 0.26002 0.0
C678 C 0.08989 0.30533 0.29285 0.0
C679 C 0.0627 0.29729 0.30296 0.0
C680 C 0.07318 0.24448 0.21215 0.0
C681 C 0.07931 0.27895 0.25132 0.0
C682 C 0.08585 0.22946 0.19125 0.0
C683 C 0.11437 0.23609 0.184 0.0
C684 C 0.08923 0.26627 0.22558 0.0
C685 C 0.1285 0.2598 0.19593 0.0
C686 C 0.09816 0.29643 0.26708 0.0
C687 C 0.04399 0.28073 0.28619 0.0
N688 N 0.11597 0.27372 0.21642 0.0
N689 N 0.05278 0.27177 0.2613 0.0
H690 H 0.05977 0.79461 0.58914 0.0
H691 H 0.04404 0.79924 0.43139 0.0
H692 H 0.01523 0.72762 0.54369 0.0
H693 H 0.11681 0.84017 0.4717 0.0
H694 H 0.03441 0.77106 0.4718 0.0
H695 H 0.08226 0.81095 0.54663 0.0
C696 C 0.05507 0.78309 0.57037 0.0
C697 C 0.03548 0.75977 0.57007 0.0
C698 C 0.05304 0.78557 0.47154 0.0
C699 C 0.06072 0.7786 0.52136 0.0
C700 C 0.05862 0.80144 0.4484 0.0
C701 C 0.08157 0.82152 0.44813 0.0
C702 C 0.0699 0.79066 0.49489 0.0
C703 C 0.09934 0.82434 0.47098 0.0
C704 C 0.06798 0.79235 0.54613 0.0
C705 C 0.03022 0.74566 0.54505 0.0
N706 N 0.0928 0.80951 0.49371 0.0
N707 N 0.04234 0.75556 0.5217 0.0
H708 H 0.48265 0.88997 0.80109 0.0
H709 H 0.39143 0.82151 0.6779 0.0
H710 H 0.44213 0.80701 0.80177 0.0
H711 H 0.38912 0.90856 0.69766 0.0
H712 H 0.42266 0.81647 0.7169 0.0
H713 H 0.45905 0.89773 0.75756 0.0
C714 C 0.46873 0.87347 0.79214 0.0
C715 C 0.46406 0.84789 0.80513 0.0
C716 C 0.41594 0.83683 0.71227 0.0
C717 C 0.438 0.85633 0.75529 0.0
C718 C 0.3985 0.83978 0.68987 0.0
C719 C 0.38853 0.86565 0.68417 0.0
C720 C 0.42327 0.85992 0.72923 0.0
C721 C 0.39732 0.88851 0.70083 0.0
C722 C 0.4554 0.8779 0.76737 0.0
C723 C 0.44602 0.82714 0.79262 0.0
N724 N 0.41417 0.88513 0.72279 0.0
N725 N 0.43383 0.83173 0.7683 0.0
H726 H 0.45849 0.30513 0.06784 0.0
H727 H 0.37199 0.20801 0.95921 0.0
H728 H 0.39356 0.24177 0.08955 0.0
H729 H 0.46184 0.23053 0.95124 0.0
H730 H 0.37088 0.23656 0.00104 0.0
H731 H 0.45075 0.29286 0.01961 0.0
C732 C 0.44191 0.2893 0.06242 0.0
C733 C 0.4266 0.27435 0.08264 0.0
C734 C 0.39061 0.23595 0.98962 0.0
C735 C 0.41751 0.26065 0.02773 0.0
C736 C 0.39119 0.22003 0.96561 0.0
C737 C 0.41696 0.2174 0.95164 0.0
C738 C 0.41599 0.24926 -0.0004 0.0
C739 C 0.44152 0.23244 0.96132 0.0
C740 C 0.43769 0.28225 0.03495 0.0
C741 C 0.4058 0.2537 0.07453 0.0
N742 N 0.4405 0.24763 0.98489 0.0
N743 N 0.4019 0.24737 0.04765 0.0
H744 H 0.02055 0.84064 0.19072 0.0
H745 H 0.15249 0.82453 0.28997 0.0
H746 H 0.10096 0.81148 0.16421 0.0
H747 H 0.07195 0.85249 0.31769 0.0
H748 H 0.1329 0.81736 0.24438 0.0
H749 H 0.03852 0.84465 0.23736 0.0
C750 C 0.04214 0.83544 0.19462 0.0
C751 C 0.05933 0.82582 0.17344 0.0
C752 C 0.11938 0.82486 0.26044 0.0
C753 C 0.07988 0.82991 0.22699 0.0
C754 C 0.13052 0.82881 0.28662 0.0
C755 C 0.11395 0.83938 0.30782 0.0
C756 C 0.09145 0.83165 0.25518 0.0
C757 C 0.08556 0.84438 0.30207 0.0
C758 C 0.05229 0.83749 0.22133 0.0
C759 C 0.08699 0.81908 0.17984 0.0
N760 N 0.07532 0.84075 0.27627 0.0
N761 N 0.09636 0.8212 0.20599 0.0
H762 H 0.4999 0.83953 0.44547 0.0
H763 H 0.39794 0.84718 0.5746 0.0
H764 H 0.44052 0.77107 0.4667 0.0
H765 H 0.47 0.90502 0.55884 0.0
H766 H 0.41448 0.81662 0.53805 0.0
H767 H 0.48973 0.86239 0.4886 0.0
C768 C 0.4846 0.82933 0.45921 0.0
C769 C 0.47081 0.80349 0.45235 0.0
C770 C 0.42694 0.83575 0.54301 0.0
C771 C 0.45903 0.8296 0.50212 0.0
C772 C 0.41761 0.8531 0.56398 0.0
C773 C 0.43225 0.87898 0.56927 0.0
C774 C 0.45107 0.84444 0.52751 0.0
C775 C 0.45771 0.88553 0.55505 0.0
C776 C 0.47894 0.8423 0.48401 0.0
C777 C 0.45147 0.79109 0.47116 0.0
N778 N 0.46604 0.86862 0.5346 0.0
N779 N 0.4459 0.80441 0.49514 0.0
H780 H 0.46832 0.24553 0.67394 0.0
H781 H 0.46352 0.18204 0.82249 0.0
H782 H 0.54616 0.22888 0.71475 0.0
H783 H 0.39947 0.23146 0.7896 0.0
H784 H 0.4941 0.19374 0.7828 0.0
H785 H 0.44166 0.23261 0.71487 0.0
C786 C 0.47984 0.23878 0.69134 0.0
C787 C 0.50961 0.23847 0.69083 0.0
C788 C 0.47342 0.20215 0.78457 0.0
C789 C 0.47904 0.22393 0.73814 0.0
C790 C 0.45606 0.19562 0.80726 0.0
C791 C 0.42865 0.20533 0.80918 0.0
C792 C 0.46306 0.21827 0.76379 0.0
C793 C 0.42016 0.223 0.78884 0.0
C794 C 0.46458 0.23165 0.71486 0.0
C795 C 0.52323 0.22953 0.71421 0.0
N796 N 0.43709 0.22856 0.76696 0.0
N797 N 0.50784 0.22267 0.73701 0.0
H798 H 0.04887 0.26965 0.96221 0.0
H799 H 0.12045 0.16057 0.05404 0.0
H800 H 0.07938 0.19243 0.93209 0.0
H801 H 0.05776 0.21523 0.08256 0.0
H802 H 0.12293 0.18468 0.0105 0.0
H803 H 0.06943 0.26149 0.00653 0.0
C804 C 0.06046 0.25128 0.96464 0.0
C805 C 0.06178 0.23131 0.94349 0.0
C806 C 0.10944 0.19205 0.02666 0.0
C807 C 0.08548 0.22212 -0.00576 0.0
C808 C 0.10825 0.17855 0.05153 0.0
C809 C 0.08902 0.18622 0.07175 0.0
C810 C 0.09115 0.21318 0.02215 0.0
C811 C 0.07302 0.20901 0.06743 0.0
C812 C 0.07217 0.24669 0.99 0.0
C813 C 0.07734 0.2081 0.94792 0.0
N814 N 0.07416 0.22154 0.0429 0.0
N815 N 0.08824 0.20393 0.97296 0.0
H816 H 0.3239 0.07751 0.19552 0.0
H817 H 0.18991 0.11165 0.13285 0.0
H818 H 0.27422 0.00069 0.17773 0.0
H819 H 0.20272 0.13317 0.21734 0.0
H820 H 0.21925 0.07193 0.13795 0.0
H821 H 0.2812 0.10257 0.19082 0.0
C822 C 0.30409 0.06588 0.19031 0.0
C823 C 0.30258 0.03689 0.18735 0.0
C824 C 0.21433 0.08449 0.15566 0.0
C825 C 0.25376 0.06568 0.18169 0.0
C826 C 0.19717 0.10678 0.15283 0.0
C827 C 0.19339 0.12516 0.17477 0.0
C828 C 0.22817 0.08137 0.18046 0.0
C829 C 0.20497 0.11926 0.2 0.0
C830 C 0.27977 0.08022 0.18779 0.0
C831 C 0.27624 0.02305 0.18026 0.0
N832 N 0.22255 0.09834 0.20199 0.0
N833 N 0.25263 0.03764 0.1776 0.0
H834 H 0.12674 0.09098 0.49393 0.0
H835 H 0.16839 0.94715 0.4303 0.0
H836 H 0.21415 0.0757 0.47527 0.0
H837 H 0.09075 0.9574 0.47568 0.0
H838 H 0.18644 0.99358 0.44586 0.0
H839 H 0.1131 0.04211 0.48471 0.0
C840 C 0.14306 0.07742 0.48767 0.0
C841 C 0.17162 0.08755 0.48524 0.0
C842 C 0.16567 0.98539 0.45275 0.0
C843 C 0.15613 0.03136 0.47487 0.0
C844 C 0.15543 0.95879 0.44408 0.0
C845 C 0.12782 0.94845 0.45139 0.0
C846 C 0.14806 0.00173 0.46859 0.0
C847 C 0.11197 0.96461 0.46916 0.0
C848 C 0.13529 0.04942 0.48269 0.0
C849 C 0.19185 0.06883 0.47733 0.0
N850 N 0.12213 0.99057 0.47677 0.0
N851 N 0.1837 0.04164 0.47226 0.0
H852 H 0.15213 0.98527 0.70735 0.0
H853 H 0.31528 0.98374 0.66331 0.0
H854 H 0.20572 0.06085 0.69861 0.0
H855 H 0.25328 0.91386 0.65473 0.0
H856 H 0.27633 0.0133 0.67541 0.0
H857 H 0.18964 0.95924 0.68708 0.0
C858 C 0.1717 -0.00359 0.7008 0.0
C859 C 0.17587 0.02518 0.70464 0.0
C860 C 0.27139 0.99152 0.67062 0.0
C861 C 0.21927 -0.00447 0.68191 0.0
C862 C 0.29355 0.97473 0.66364 0.0
C863 C 0.28756 0.9463 0.65819 0.0
C864 C 0.24326 0.9796 0.67224 0.0
C865 C 0.25906 0.93556 0.65926 0.0
C866 C 0.19318 0.98157 0.68925 0.0
C867 C 0.20165 0.03864 0.69583 0.0
N868 N 0.23812 0.95213 0.66629 0.0
N869 N 0.22261 0.02363 0.68517 0.0
H870 H 0.2236 0.00898 0.95983 0.0
H871 H 0.38275 0.07693 0.96377 0.0
H872 H 0.29781 0.96534 0.97865 0.0
H873 H 0.31774 0.11437 0.91824 0.0
H874 H 0.34859 0.03925 0.97544 0.0
H875 H 0.25507 0.04992 0.94835 0.0
C876 C 0.24644 0.00785 0.9613 0.0
C877 C 0.25803 0.98359 0.97031 0.0
C878 C 0.34168 0.05567 0.9629 0.0
C879 C 0.29388 0.03046 0.95778 0.0
C880 C 0.36118 0.07744 0.95632 0.0
C881 C 0.35338 0.09872 0.93942 0.0
C882 C 0.31389 0.05495 0.95273 0.0
C883 C 0.32484 0.09822 0.931 0.0
C884 C 0.26431 0.03126 0.95482 0.0
C885 C 0.28777 0.98343 0.97185 0.0
N886 N 0.3061 0.07647 0.93753 0.0
N887 N 0.30455 0.00651 0.96588 0.0
H888 H 0.28486 0.04871 0.30343 0.0
H889 H 0.15505 0.93311 0.3042 0.0
H890 H 0.27696 0.97647 0.25021 0.0
H891 H 0.18938 0.96918 0.37893 0.0
H892 H 0.18811 0.96431 0.27851 0.0
H893 H 0.24004 0.03238 0.32624 0.0
C894 C 0.27366 0.02949 0.29656 0.0
C895 C 0.28483 0.01353 0.27536 0.0
C896 C 0.18758 0.96617 0.30053 0.0
C897 C 0.23334 -0.0043 0.30023 0.0
C898 C 0.16836 0.94878 0.31515 0.0
C899 C 0.16952 0.94876 0.34363 0.0
C900 C 0.20783 0.98366 0.31459 0.0
C901 C 0.18777 0.96884 0.35693 0.0
C902 C 0.24813 0.02036 0.3094 0.0
C903 C 0.26939 0.98901 0.26691 0.0
N904 N 0.2067 0.98523 0.34229 0.0
N905 N 0.2444 0.9809 0.2793 0.0
H906 H 0.24313 0.08971 0.58559 0.0
H907 H 0.3459 0.97519 0.53209 0.0
H908 H 0.28903 0.09131 0.5092 0.0
H909 H 0.3323 0.9898 0.6177 0.0
H910 H 0.31152 0.00905 0.52193 0.0
H911 H 0.26485 0.04632 0.5966 0.0
C912 C 0.25778 0.08099 0.57121 0.0
C913 C 0.26461 0.09431 0.54661 0.0
C914 C 0.31536 0.00431 0.54299 0.0
C915 C 0.28849 0.04455 0.55858 0.0
C916 C 0.33461 0.98467 0.54876 0.0
C917 C 0.34144 0.97948 0.57576 0.0
C918 C 0.30324 0.01923 0.56442 0.0
C919 C 0.32686 0.99278 0.59668 0.0
C920 C 0.26998 0.05625 0.57744 0.0
C921 C 0.28346 0.08203 0.52857 0.0
N922 N 0.30871 0.01251 0.59061 0.0
N923 N 0.2946 0.05786 0.53487 0.0
H924 H 0.21301 0.05177 0.7657 0.0
H925 H 0.33345 0.08831 0.87596 0.0
H926 H 0.20052 0.09668 0.84123 0.0
H927 H 0.34732 0.09853 0.79009 0.0
H928 H 0.28594 0.06633 0.86653 0.0
H929 H 0.26259 0.04668 0.77848 0.0
C930 C 0.22049 0.06003 0.78526 0.0
C931 C 0.20272 0.07505 0.80232 0.0
C932 C 0.29996 0.07215 0.84969 0.0
C933 C 0.25906 0.06844 0.81723 0.0
C934 C 0.32729 0.08419 0.85502 0.0
C935 C 0.34373 0.09617 0.83385 0.0
C936 C 0.28994 0.07098 0.82283 0.0
C937 C 0.33496 0.09002 0.80703 0.0
C938 C 0.24872 0.057 0.79248 0.0
C939 C 0.21361 0.08534 0.82733 0.0
N940 N 0.30817 0.07862 0.80223 0.0
N941 N 0.24116 0.08195 0.834 0.0
H942 H 0.25167 0.98536 0.06072 0.0
H943 H 0.10562 0.04832 0.1061 0.0
H944 H 0.16909 0.94074 0.05586 0.0
H945 H 0.18117 0.10027 0.08675 0.0
H946 H 0.13091 0.00748 0.09426 0.0
H947 H 0.22859 0.02657 0.07773 0.0
C948 C 0.22879 0.98414 0.06368 0.0
C949 C 0.21216 0.95977 0.05689 0.0
C950 C 0.14204 0.0278 0.09267 0.0
C951 C 0.18585 0.00639 0.07599 0.0
C952 C 0.12756 0.05114 0.09928 0.0
C953 C 0.14141 0.07771 0.09763 0.0
C954 C 0.17062 0.03095 0.08427 0.0
C955 C 0.16992 0.08009 0.08886 0.0
C956 C 0.21566 0.00763 0.07311 0.0
C957 C 0.18262 0.95922 0.06076 0.0
N958 N 0.18368 0.05695 0.08253 0.0
N959 N 0.17042 0.98218 0.07002 0.0
H960 H 0.25458 0.32601 0.00383 0.0
H961 H 0.13516 0.23145 0.08025 0.0
H962 H 0.19216 0.35872 0.0583 0.0
H963 H 0.2215 0.20865 0.06984 0.0
H964 H 0.147 0.27354 0.05435 0.0
H965 H 0.23346 0.27915 0.01165 0.0
C966 C 0.23608 0.32343 0.01704 0.0
C967 C 0.2253 0.34633 0.03075 0.0
C968 C 0.16302 0.25879 0.05693 0.0
C969 C 0.20088 0.29279 0.03921 0.0
C970 C 0.15619 0.23456 0.07125 0.0
C971 C 0.1774 0.21657 0.07698 0.0
C972 C 0.19113 0.26473 0.04808 0.0
C973 C 0.20459 0.22203 0.06571 0.0
C974 C 0.22411 0.29668 0.02142 0.0
C975 C 0.20135 0.34164 0.04763 0.0
N976 N 0.21082 0.24586 0.052 0.0
N977 N 0.18998 0.31532 0.05149 0.0
H978 H 0.68291 0.19839 0.97679 0.0
H979 H 0.62739 0.30667 0.91428 0.0
H980 H 0.71632 0.25738 0.03781 0.0
H981 H 0.69566 0.35371 0.95594 0.0
H982 H 0.62927 0.27009 0.94792 0.0
H983 H 0.65737 0.2348 0.9566 0.0
C984 C 0.6842 0.21879 0.98646 0.0
C985 C 0.70224 0.22488 0.00874 0.0
C986 C 0.64357 0.28856 0.95001 0.0
C987 C 0.67285 0.2669 0.98577 0.0
C988 C 0.64207 0.30966 0.93117 0.0
C989 C 0.66125 0.33316 0.93268 0.0
C990 C 0.66485 0.29093 0.97003 0.0
C991 C 0.68036 0.33592 0.95438 0.0
C992 C 0.66936 0.23966 0.97501 0.0
C993 C 0.70292 0.25172 0.02046 0.0
N994 N 0.68192 0.31486 0.97209 0.0
N995 N 0.68907 0.27188 0.0084 0.0
H996 H 0.03801 0.50675 0.28052 0.0
H997 H 0.9455 0.40497 0.18016 0.0
H998 H 0.07438 0.45071 0.22273 0.0
H999 H 0.92459 0.48922 0.19581 0.0
H1000 H 0.98607 0.41241 0.21119 0.0
H1001 H 0.99023 0.49163 0.26338 0.0
C1002 C 0.03583 0.49082 0.26467 0.0
C1003 C 0.06 0.47992 0.25289 0.0
C1004 C 0.97203 0.42895 0.20848 0.0
C1005 C 0.00583 0.46228 0.23384 0.0
C1006 C 0.94867 0.4246 0.19118 0.0
C1007 C 0.9315 0.4464 0.1859 0.0
C1008 C 0.97811 0.45525 0.22057 0.0
C1009 C 0.93719 0.47184 0.19973 0.0
C1010 C 0.00869 0.48232 0.25491 0.0
C1011 C 0.0562 0.45965 0.23218 0.0
N1012 N 0.9602 0.47568 0.21636 0.0
N1013 N 0.02958 0.45141 0.22333 0.0
H1014 H 0.8611 0.85079 0.49527 0.0
H1015 H 0.80002 0.71333 0.41768 0.0
H1016 H 0.78374 0.84231 0.44831 0.0
H1017 H 0.88942 0.7382 0.41249 0.0
H1018 H 0.79348 0.75281 0.44847 0.0
H1019 H 0.87141 0.80324 0.48068 0.0
C1020 C 0.84643 0.83899 0.48181 0.0
C1021 C 0.82183 0.85059 0.47248 0.0
C1022 C 0.81477 0.74892 0.44155 0.0
C1023 C 0.83262 0.79626 0.45723 0.0
C1024 C 0.8186 0.72612 0.42444 0.0
C1025 C 0.84537 0.72244 0.41285 0.0
C1026 C 0.8379 0.76812 0.447 0.0
C1027 C 0.86865 0.74003 0.42164 0.0
C1028 C 0.8522 0.81194 0.47376 0.0
C1029 C 0.80324 0.83438 0.45547 0.0
N1030 N 0.86433 0.76265 0.43775 0.0
N1031 N 0.80891 0.808 0.44857 0.0
H1032 H 0.92347 0.11617 0.23018 0.0
H1033 H 0.05834 0.16907 0.2018 0.0
H1034 H 0.96174 0.0507 0.27228 0.0
H1035 H 0.07286 0.08222 0.19583 0.0
H1036 H 0.01764 0.15813 0.23195 0.0
H1037 H 0.97122 0.13696 0.21991 0.0
C1038 C 0.94186 0.10648 0.2377 0.0
C1039 C 0.93856 0.08162 0.25198 0.0
C1040 C 0.03029 0.14157 0.22475 0.0
C1041 C 0.99319 0.10524 0.24041 0.0
C1042 C 0.0539 0.14786 0.20807 0.0
C1043 C 0.06894 0.1265 0.19647 0.0
C1044 C 0.02183 0.11369 0.22969 0.0
C1045 C 0.0619 0.09925 0.20463 0.0
C1046 C 0.96911 0.1185 0.23211 0.0
C1047 C 0.96322 0.06991 0.26122 0.0
N1048 N 0.03847 0.09351 0.22044 0.0
N1049 N 0.98947 0.08146 0.2547 0.0
H1050 H 0.27558 0.72405 0.55653 0.0
H1051 H 0.35693 0.85962 0.54728 0.0
H1052 H 0.29817 0.74027 0.4727 0.0
H1053 H 0.27048 0.857 0.57692 0.0
H1054 H 0.34435 0.81818 0.51867 0.0
H1055 H 0.28379 0.77341 0.56718 0.0
C1056 C 0.28243 0.73793 0.54037 0.0
C1057 C 0.28588 0.72809 0.51363 0.0
C1058 C 0.32789 0.82759 0.53043 0.0
C1059 C 0.29566 0.78449 0.52587 0.0
C1060 C 0.33497 0.8513 0.54657 0.0
C1061 C 0.31479 0.86117 0.56481 0.0
C1062 C 0.30064 0.81409 0.53303 0.0
C1063 C 0.28666 0.84966 0.56331 0.0
C1064 C 0.2869 0.76608 0.54644 0.0
C1065 C 0.29512 0.74715 0.49357 0.0
N1066 N 0.28061 0.82606 0.54848 0.0
N1067 N 0.3 0.77464 0.50012 0.0
H1068 H 0.03384 0.56574 0.22369 0.0
H1069 H 0.92927 0.60591 0.31201 0.0
H1070 H 0.08975 0.59325 0.28969 0.0
H1071 H -0.00361 0.65315 0.35499 0.0
H1072 H 0.96285 0.59641 0.27542 0.0
H1073 H -0.0032 0.59283 0.24352 0.0
C1074 C 0.0385 0.57775 0.24219 0.0
C1075 C 0.06486 0.57668 0.25534 0.0
C1076 C 0.97014 0.60998 0.2921 0.0
C1077 C 0.02208 0.60724 0.27865 0.0
C1078 C 0.95074 0.61557 0.31293 0.0
C1079 C 0.96014 0.63048 0.33629 0.0
C1080 C -0.0009 0.61916 0.29506 0.0
C1081 C 0.98838 0.64172 0.3371 0.0
C1082 C 0.01712 0.59303 0.25369 0.0
C1083 C 0.06966 0.59297 0.27906 0.0
N1084 N 0.00699 0.63539 0.31709 0.0
N1085 N 0.0484 0.60727 0.29006 0.0
H1086 H 0.44905 0.51365 0.82605 0.0
H1087 H 0.5245 0.38317 0.84912 0.0
H1088 H 0.43547 0.44627 0.76753 0.0
H1089 H 0.5679 0.46337 0.86415 0.0
H1090 H 0.49437 0.4037 0.81575 0.0
H1091 H 0.49338 0.4946 0.83984 0.0
C1092 C 0.45541 0.49477 0.8162 0.0
C1093 C 0.43849 0.4812 0.796 0.0
C1094 C 0.51137 0.4166 0.82536 0.0
C1095 C 0.48908 0.45941 0.81149 0.0
C1096 C 0.52892 0.40476 0.84402 0.0
C1097 C 0.54886 0.42161 0.859 0.0
C1098 C 0.51323 0.44554 0.82273 0.0
C1099 C 0.55289 0.44974 0.8527 0.0
C1100 C 0.48089 0.48416 0.82373 0.0
C1101 C 0.44792 0.45713 0.78342 0.0
N1102 N 0.53453 0.46109 0.83567 0.0
N1103 N 0.47238 0.4466 0.79178 0.0
H1104 H 0.0039 0.85416 0.69894 0.0
H1105 H 0.9313 0.82466 0.84353 0.0
H1106 H 0.95558 0.77946 0.72343 0.0
H1107 H 0.94983 0.90729 0.81413 0.0
H1108 H 0.95999 0.80661 0.80646 0.0
H1109 H 0.00027 0.87254 0.74616 0.0
C1110 C 0.99272 0.84165 0.71422 0.0
C1111 C 0.97928 0.81566 0.70716 0.0
C1112 C 0.95873 0.82885 0.80868 0.0
C1113 C 0.97623 0.83575 0.76092 0.0
C1114 C 0.94285 0.83918 0.83023 0.0
C1115 C 0.93811 0.86743 0.83172 0.0
C1116 C 0.96944 0.84694 0.78836 0.0
C1117 C 0.95307 0.88533 0.81359 0.0
C1118 C 0.99086 0.85198 0.74109 0.0
C1119 C 0.9655 0.79998 0.72775 0.0
N1120 N 0.96736 0.87473 0.79204 0.0
N1121 N 0.96432 0.81026 0.75355 0.0
H1122 H 0.04925 0.25579 0.44666 0.0
H1123 H 0.91744 0.23205 0.54957 0.0
H1124 H 0.96548 0.28147 0.42896 0.0
H1125 H -0.00535 0.18934 0.55399 0.0
H1126 H 0.93644 0.25582 0.50876 0.0
H1127 H 0.0307 0.23518 0.48864 0.0
C1128 C 0.02681 0.2567 0.4514 0.0
C1129 C 0.00882 0.27009 0.4341 0.0
C1130 C 0.94929 0.24145 0.51889 0.0
C1131 C 0.98753 0.24713 0.48263 0.0
C1132 C 0.93864 0.22823 0.54236 0.0
C1133 C 0.95453 0.20873 0.5551 0.0
C1134 C 0.97606 0.23526 0.50843 0.0
C1135 C 0.98167 0.20415 0.54469 0.0
C1136 C 0.01626 0.24508 0.47548 0.0
C1137 C 0.97998 0.2709 0.44147 0.0
N1138 N 0.99151 0.21721 0.52197 0.0
N1139 N 0.97024 0.25975 0.46532 0.0
H1140 H 0.48084 0.16482 0.18187 0.0
H1141 H 0.54422 0.19632 0.33125 0.0
H1142 H 0.4819 0.24528 0.22189 0.0
H1143 H 0.57667 0.13782 0.27352 0.0
H1144 H 0.50709 0.20598 0.29813 0.0
H1145 H 0.50172 0.14635 0.22284 0.0
C1146 C 0.485 0.17845 0.1994 0.0
C1147 C 0.48026 0.20672 0.19831 0.0
C1148 C 0.52193 0.19048 0.29317 0.0
C1149 C 0.50356 0.18575 0.24511 0.0
C1150 C 0.54291 0.18492 0.31203 0.0
C1151 C 0.56337 0.16633 0.30493 0.0
C1152 C 0.52134 0.17686 0.26753 0.0
C1153 C 0.56115 0.15227 0.27969 0.0
C1154 C 0.49687 0.16793 0.22271 0.0
C1155 C 0.48583 0.22346 0.22169 0.0
N1156 N 0.54061 0.15787 0.26186 0.0
N1157 N 0.49741 0.21279 0.24407 0.0
H1158 H 0.57363 0.85674 0.92147 0.0
H1159 H 0.53823 0.9347 0.05948 0.0
H1160 H 0.48942 0.88251 0.93936 0.0
H1161 H 0.60452 0.87755 0.05387 0.0
H1162 H 0.52158 0.91914 0.0143 0.0
H1163 H 0.58762 0.86855 0.96833 0.0
C1164 C 0.55811 0.86505 0.93518 0.0
C1165 C 0.53025 0.86857 0.92651 0.0
C1166 C 0.53957 0.90979 0.02305 0.0
C1167 C 0.54624 0.88221 0.9801 0.0
C1168 C 0.54909 0.91865 0.04879 0.0
C1169 C 0.57283 0.90743 0.06031 0.0
C1170 C 0.55429 0.89002 0.00845 0.0
C1171 C 0.58607 0.88661 0.04571 0.0
C1172 C 0.56608 0.87156 0.96198 0.0
C1173 C 0.51111 0.87949 0.94519 0.0
N1174 N 0.57686 0.87885 0.02028 0.0
N1175 N 0.5195 0.88606 0.9711 0.0
H1176 H 0.94384 0.27847 0.82958 0.0
H1177 H 0.93762 0.17748 0.70246 0.0
H1178 H 0.97335 0.19623 0.83592 0.0
H1179 H 0.94339 0.26655 0.69675 0.0
H1180 H 0.95247 0.18202 0.75 0.0
H1181 H 0.94138 0.2723 0.78063 0.0
C1182 C 0.94938 0.25882 0.82076 0.0
C1183 C 0.95891 0.23783 0.83703 0.0
C1184 C 0.95145 0.20055 0.7381 0.0
C1185 C 0.95636 0.23076 0.78038 0.0
C1186 C 0.94364 0.19796 0.71071 0.0
C1187 C 0.93986 0.22168 0.69542 0.0
C1188 C 0.95466 0.22704 0.75038 0.0
C1189 C 0.94625 0.24776 0.70776 0.0
C1190 C 0.94837 0.25551 0.79263 0.0
C1191 C 0.96582 0.21291 0.82415 0.0
N1192 N 0.95281 0.24975 0.73464 0.0
N1193 N 0.96437 0.21001 0.79649 0.0
H1194 H 0.60959 0.23866 0.56166 0.0
H1195 H 0.52964 0.17674 0.42946 0.0
H1196 H 0.52151 0.24952 0.54317 0.0
H1197 H 0.61802 0.16652 0.44558 0.0
H1198 H 0.5293 0.21162 0.46621 0.0
H1199 H 0.61563 0.21885 0.51589 0.0
C1200 C 0.59153 0.23694 0.54803 0.0
C1201 C 0.56485 0.24532 0.55658 0.0
C1202 C 0.54906 0.20243 0.46127 0.0
C1203 C 0.57173 0.22291 0.50399 0.0
C1204 C 0.54933 0.18286 0.43999 0.0
C1205 C 0.574 0.16924 0.43429 0.0
C1206 C 0.57346 0.20771 0.47747 0.0
C1207 C 0.59873 0.17705 0.4491 0.0
C1208 C 0.59505 0.22577 0.52181 0.0
C1209 C 0.54236 0.24292 0.53778 0.0
N1210 N 0.59772 0.19543 0.4704 0.0
N1211 N 0.54627 0.23176 0.51255 0.0
H1212 H 0.51221 0.75033 0.2789 0.0
H1213 H 0.563 0.89472 0.21352 0.0
H1214 H 0.53052 0.82577 0.32619 0.0
H1215 H 0.5583 0.81568 0.17097 0.0
H1216 H 0.53735 0.87295 0.25209 0.0
H1217 H 0.51659 0.7768 0.23747 0.0
C1218 C 0.51744 0.7725 0.28061 0.0
C1219 C 0.52192 0.78573 0.30611 0.0
C1220 C 0.54109 0.86058 0.23395 0.0
C1221 C 0.52675 0.81634 0.25838 0.0
C1222 C 0.55526 0.87309 0.21177 0.0
C1223 C 0.56278 0.85682 0.18924 0.0
C1224 C 0.5345 0.83174 0.23329 0.0
C1225 C 0.55289 0.82882 0.1881 0.0
C1226 C 0.51963 0.78767 0.25686 0.0
C1227 C 0.52752 0.81467 0.30694 0.0
N1228 N 0.53968 0.81704 0.21004 0.0
N1229 N 0.53023 0.829 0.28335 0.0
H1230 H 0.94108 0.80139 0.0692 0.0
H1231 H 0.95577 0.88295 0.92935 0.0
H1232 H 0.02023 0.83591 0.03504 0.0
H1233 H 0.87611 0.86704 0.97165 0.0
H1234 H 0.97841 0.85292 0.96099 0.0
H1235 H 0.91624 0.81487 0.02829 0.0
C1236 C 0.95324 0.81177 0.0531 0.0
C1237 C 0.98271 0.81794 0.05574 0.0
C1238 C 0.95575 0.8552 0.96285 0.0
C1239 C 0.95455 0.83284 0.00867 0.0
C1240 C 0.94271 0.87184 0.94439 0.0
C1241 C 0.91403 0.87717 0.9478 0.0
C1242 C 0.93998 0.84412 0.98499 0.0
C1243 C 0.89823 0.86307 0.96818 0.0
C1244 C 0.93908 0.8193 0.02971 0.0
C1245 C -0.00257 0.83113 0.03409 0.0
N1246 N 0.91151 0.84761 0.9864 0.0
N1247 N 0.9832 0.8382 0.01156 0.0
H1248 H 0.71613 -0.00281 0.74917 0.0
H1249 H 0.79448 0.92541 0.863 0.0
H1250 H 0.68615 0.00555 0.83191 0.0
H1251 H 0.83819 0.95895 0.79242 0.0
H1252 H 0.75547 0.95538 0.85499 0.0
H1253 H 0.76102 0.98251 0.76595 0.0
C1254 C 0.71901 -0.00421 0.77096 0.0
C1255 C 0.69731 0.00213 0.78921 0.0
C1256 C 0.7741 0.95696 0.84189 0.0
C1257 C 0.74881 0.98531 0.80865 0.0
C1258 C 0.79649 0.94016 0.84665 0.0
C1259 C 0.81975 0.94031 0.82864 0.0
C1260 C 0.77479 0.97322 0.8185 0.0
C1261 C 0.8208 0.9587 0.807 0.0
C1262 C 0.7448 0.98775 0.78055 0.0
C1263 C 0.70238 0.00057 0.81724 0.0
N1264 N 0.7984 0.97409 0.80224 0.0
N1265 N 0.72753 0.99175 0.82619 0.0
H1266 H 0.8351 0.99341 0.48952 0.0
H1267 H 0.82749 0.10937 0.60567 0.0
H1268 H 0.80063 0.97707 0.56971 0.0
H1269 H 0.86701 0.12221 0.52735 0.0
H1270 H 0.8059 0.06458 0.58919 0.0
H1271 H 0.83764 0.04285 0.50013 0.0
C1272 C 0.82829 0.0002 0.50953 0.0
C1273 C 0.81815 0.98096 0.52896 0.0
C1274 C 0.81848 0.07761 0.57528 0.0
C1275 C 0.82073 0.038 0.5412 0.0
C1276 C 0.83036 0.10344 0.58456 0.0
C1277 C 0.84938 0.11923 0.56798 0.0
C1278 C 0.82569 0.06781 0.54917 0.0
C1279 C 0.8525 0.11056 0.54079 0.0
C1280 C 0.82945 0.02856 0.51547 0.0
C1281 C 0.80904 0.99116 0.5543 0.0
N1282 N 0.84143 0.08511 0.53242 0.0
N1283 N 0.81079 0.019 0.55979 0.0
H1284 H 0.78566 0.01175 0.30811 0.0
H1285 H 0.70698 0.13793 0.37107 0.0
H1286 H 0.8277 0.08913 0.33596 0.0
H1287 H 0.67034 0.07688 0.314 0.0
H1288 H 0.74771 0.10959 0.37679 0.0
H1289 H 0.74129 0.0251 0.32929 0.0
C1290 C 0.78581 0.03098 0.31988 0.0
C1291 C 0.81019 0.0494 0.32047 0.0
C1292 C 0.73026 0.1019 0.36381 0.0
C1293 C 0.75956 0.06513 0.3439 0.0
C1294 C 0.70699 0.1179 0.3607 0.0
C1295 C 0.68548 0.10951 0.3421 0.0
C1296 C 0.73196 0.07755 0.34799 0.0
C1297 C 0.68654 0.08383 0.32865 0.0
C1298 C 0.76047 0.03869 0.33171 0.0
C1299 C 0.8093 0.07434 0.33533 0.0
N1300 N 0.70969 0.06887 0.33155 0.0
N1301 N 0.78415 0.08176 0.34608 0.0
H1302 H 0.73882 0.08146 0.01554 0.0
H1303 H 0.69055 -0.00296 0.14602 0.0
H1304 H 0.75416 0.11129 0.09801 0.0
H1305 H 0.6773 0.96589 0.06403 0.0
H1306 H 0.72356 0.03392 0.12904 0.0
H1307 H 0.72464 0.03564 0.03275 0.0
C1308 C 0.73935 0.07841 0.03731 0.0
C1309 C 0.74723 0.10054 0.05539 0.0
C1310 C 0.71423 0.01857 0.11474 0.0
C1311 C 0.73094 0.04775 0.07527 0.0
C1312 C 0.69575 -0.00284 0.12453 0.0
C1313 C 0.68161 0.97817 0.10642 0.0
C1314 C 0.71789 0.02146 0.08653 0.0
C1315 C 0.68821 0.9799 0.07865 0.0
C1316 C 0.73137 0.05209 0.0471 0.0
C1317 C 0.7479 0.09502 0.08332 0.0
N1318 N 0.70544 0.00158 0.06945 0.0
N1319 N 0.73949 0.06928 0.09241 0.0
H1320 H 0.70086 0.06424 0.6679 0.0
H1321 H 0.82081 0.17325 0.71569 0.0
H1322 H 0.70827 0.08953 0.75255 0.0
H1323 H 0.83692 0.11421 0.65139 0.0
H1324 H 0.77927 0.14371 0.72969 0.0
H1325 H 0.74955 0.08421 0.66003 0.0
C1326 C 0.71268 0.07404 0.68478 0.0
C1327 C 0.7004 0.07552 0.71084 0.0
C1328 C 0.79215 0.13698 0.71278 0.0
C1329 C 0.75588 0.09819 0.70199 0.0
C1330 C 0.81589 0.15378 0.70481 0.0
C1331 C 0.83185 0.14646 0.68185 0.0
C1332 C 0.78392 0.11309 0.69727 0.0
C1333 C 0.82473 0.12087 0.66874 0.0
C1334 C 0.74052 0.08509 0.68035 0.0
C1335 C 0.71684 0.08807 0.73209 0.0
N1336 N 0.80075 0.10539 0.67614 0.0
N1337 N 0.74359 0.09927 0.72712 0.0
H1338 H 0.74655 0.01442 0.51816 0.0
H1339 H 0.6722 0.06195 0.38309 0.0
H1340 H 0.73596 0.96055 0.44712 0.0
H1341 H 0.65682 0.0946 0.46369 0.0
H1342 H 0.70681 0.03176 0.40211 0.0
H1343 H 0.72523 0.05083 0.49383 0.0
C1344 C 0.73966 0.01017 0.49739 0.0
C1345 C 0.7422 0.98403 0.48492 0.0
C1346 C 0.69624 0.04593 0.41549 0.0
C1347 C 0.71795 0.02603 0.45683 0.0
C1348 C 0.67685 0.06331 0.40465 0.0
C1349 C 0.66207 0.08078 0.42195 0.0
C1350 C 0.70079 0.04639 0.44372 0.0
C1351 C 0.668 0.08141 0.44979 0.0
C1352 C 0.72763 0.0311 0.48348 0.0
C1353 C 0.7339 0.98023 0.45763 0.0
N1354 N 0.68687 0.06438 0.45984 0.0
N1355 N 0.72172 0.00096 0.44452 0.0
H1356 H 0.80713 0.95458 0.28514 0.0
H1357 H 0.6784 0.96813 0.18237 0.0
H1358 H 0.81012 0.01437 0.22088 0.0
H1359 H 0.68736 0.89891 0.23482 0.0
H1360 H 0.72084 0.99212 0.20332 0.0
H1361 H 0.75815 0.94051 0.27332 0.0
C1362 C 0.79749 0.96474 0.26843 0.0
C1363 C 0.8129 0.98537 0.25364 0.0
C1364 C 0.71313 0.97192 0.21057 0.0
C1365 C 0.75651 0.96931 0.24002 0.0
C1366 C 0.68884 0.95837 0.1988 0.0
C1367 C 0.67983 0.93133 0.20649 0.0
C1368 C 0.72806 0.95835 0.23042 0.0
C1369 C 0.6939 0.91958 0.22799 0.0
C1370 C 0.76941 0.95676 0.26179 0.0
C1371 C 0.79908 -0.0019 0.23253 0.0
N1372 N 0.71749 0.93302 0.23897 0.0
N1373 N 0.77164 0.98968 0.22615 0.0
H1374 H 0.75297 0.10254 0.91464 0.0
H1375 H 0.80312 0.95624 0.96009 0.0
H1376 H 0.79231 0.08531 0.99093 0.0
H1377 H 0.82055 0.98476 0.87874 0.0
H1378 H 0.77696 -0.00256 0.96933 0.0
H1379 H 0.75901 0.05398 0.89947 0.0
C1380 C 0.76271 0.08853 0.92813 0.0
C1381 C 0.77281 0.0979 0.95375 0.0
C1382 C 0.78552 0.99407 0.94909 0.0
C1383 C 0.77819 0.04284 0.9374 0.0
C1384 C 0.80019 0.9705 0.94376 0.0
C1385 C 0.81369 0.96705 0.91856 0.0
C1386 C 0.78472 0.01444 0.92919 0.0
C1387 C 0.80978 0.98638 0.89819 0.0
C1388 C 0.76596 0.061 0.91959 0.0
C1389 C 0.78489 0.07904 0.97075 0.0
N1390 N 0.7961 0.00969 0.9041 0.0
N1391 N 0.78711 0.05244 0.96233 0.0
H1392 H 0.78583 0.71574 0.98421 0.0
H1393 H 0.78722 0.82291 0.86344 0.0
H1394 H 0.7106 0.73066 0.93852 0.0
H1395 H 0.84635 0.83361 0.93026 0.0
H1396 H 0.76209 0.78449 0.88707 0.0
H1397 H 0.81189 0.75394 0.96047 0.0
C1398 C 0.77492 0.72674 0.96888 0.0
C1399 C 0.74602 0.71994 0.96322 0.0
C1400 C 0.78048 0.79529 0.89663 0.0
C1401 C 0.77564 0.76362 0.93624 0.0
C1402 C 0.79489 0.81718 0.88315 0.0
C1403 C 0.81892 0.83146 0.89493 0.0
C1404 C 0.7904 0.7872 0.92189 0.0
C1405 C 0.82781 0.82324 0.92057 0.0
C1406 C 0.78972 0.74871 0.95561 0.0
C1407 C 0.73284 0.7352 0.9435 0.0
N1408 N 0.81367 0.80141 0.93314 0.0
N1409 N 0.74778 0.75624 0.93064 0.0
H1410 H 0.23827 0.8205 0.03849 0.0
H1411 H 0.37375 0.75146 0.08743 0.0
H1412 H 0.32278 0.85865 0.0254 0.0
H1413 H 0.2903 0.70918 0.08193 0.0
H1414 H 0.35856 0.78682 0.05661 0.0
H1415 H 0.2586 0.77689 0.04792 0.0
C1416 C 0.26122 0.81968 0.03776 0.0
C1417 C 0.27895 0.84333 0.03187 0.0
C1418 C 0.34389 0.76923 0.06124 0.0
C1419 C 0.30258 0.79327 0.04265 0.0
C1420 C 0.35272 0.74882 0.07848 0.0
C1421 C 0.33313 0.72756 0.08713 0.0
C1422 C 0.31522 0.76832 0.05316 0.0
C1423 C 0.30598 0.72532 0.0756 0.0
C1424 C 0.27285 0.79464 0.04281 0.0
C1425 C 0.30845 0.8409 0.03032 0.0
N1426 N 0.29758 0.74581 0.05969 0.0
N1427 N 0.31945 0.81639 0.03624 0.0
H1428 H 0.93611 0.52166 0.76762 0.0
H1429 H 0.06984 0.62618 0.80298 0.0
H1430 H 0.93495 0.61093 0.76538 0.0
H1431 H 0.05935 0.54093 0.82735 0.0
H1432 H 0.0277 0.61823 0.77375 0.0
H1433 H 0.98719 0.52665 0.77553 0.0
C1434 C 0.94653 0.54237 0.76888 0.0
C1435 C 0.93097 0.56596 0.76652 0.0
C1436 C 0.03515 0.60111 0.78496 0.0
C1437 C 0.9898 0.57173 0.77532 0.0
C1438 C 0.05928 0.60558 0.80142 0.0
C1439 C 0.067 0.58455 0.81856 0.0
C1440 C 0.01948 0.57523 0.78531 0.0
C1441 C 0.05343 0.55793 0.81504 0.0
C1442 C 0.97581 0.54516 0.77316 0.0
C1443 C 0.94594 0.59218 0.76766 0.0
N1444 N 0.02988 0.55418 0.79931 0.0
N1445 N 0.9745 0.59439 0.77232 0.0
H1446 H 0.15897 0.20898 0.54301 0.0
H1447 H 0.21278 0.35594 0.60578 0.0
H1448 H 0.24691 0.23605 0.55805 0.0
H1449 H 0.12416 0.32807 0.59896 0.0
H1450 H 0.22508 0.31777 0.57567 0.0
H1451 H 0.14561 0.25615 0.5534 0.0
C1452 C 0.17547 0.22485 0.54849 0.0
C1453 C 0.20404 0.21846 0.5502 0.0
C1454 C 0.20283 0.32041 0.57997 0.0
C1455 C 0.18897 0.27256 0.56162 0.0
C1456 C 0.19578 0.34257 0.59671 0.0
C1457 C 0.16747 0.34502 0.60481 0.0
C1458 C 0.1814 0.30028 0.57182 0.0
C1459 C 0.14625 0.3269 0.593 0.0
C1460 C 0.16785 0.25182 0.5542 0.0
C1461 C 0.22457 0.23991 0.55697 0.0
N1462 N 0.15369 0.30472 0.57768 0.0
N1463 N 0.21661 0.26592 0.56261 0.0
H1464 H 0.05069 0.08286 0.83787 0.0
H1465 H 0.93529 0.95317 0.82893 0.0
H1466 H 0.05799 0.01427 0.78103 0.0
H1467 H 0.94129 0.01297 0.89551 0.0
H1468 H 0.97578 0.97864 0.80671 0.0
H1469 H 0.00678 0.06018 0.85545 0.0
C1470 C 0.04315 0.06293 0.82914 0.0
C1471 C 0.05824 0.05037 0.80806 0.0
C1472 C 0.968 0.98627 0.82606 0.0
C1473 C 0.00756 0.02433 0.82801 0.0
C1474 C 0.94478 0.97189 0.83862 0.0
C1475 C 0.93517 0.98077 0.86425 0.0
C1476 C 0.98136 0.00981 0.83914 0.0
C1477 C 0.94821 0.00518 0.87591 0.0
C1478 C 0.01798 0.05001 0.83917 0.0
C1479 C 0.04724 0.02456 0.79752 0.0
N1480 N 0.9707 0.01872 0.86335 0.0
N1481 N 0.02251 0.01238 0.80759 0.0
H1482 H 0.73537 0.33989 0.45021 0.0
H1483 H 0.61404 0.22048 0.41401 0.0
H1484 H 0.64569 0.34937 0.46318 0.0
H1485 H 0.69841 0.22354 0.37907 0.0
H1486 H 0.62685 0.26417 0.43887 0.0
H1487 H 0.72349 0.29402 0.42973 0.0
C1488 C 0.71318 0.33242 0.44867 0.0
C1489 C 0.69149 0.34867 0.45825 0.0
C1490 C 0.64264 0.2551 0.42599 0.0
C1491 C 0.67781 0.29594 0.43522 0.0
C1492 C 0.63547 0.22999 0.41221 0.0
C1493 C 0.65537 0.21829 0.39491 0.0
C1494 C 0.66993 0.26843 0.42244 0.0
C1495 C 0.68253 0.23194 0.39233 0.0
C1496 C 0.70643 0.3062 0.43702 0.0
C1497 C 0.66311 0.33773 0.45583 0.0
N1498 N 0.68903 0.25628 0.40595 0.0
N1499 N 0.6571 0.31202 0.44465 0.0
H1500 H 0.94217 0.52843 0.70256 0.0
H1501 H 0.03211 0.40658 0.66233 0.0
H1502 H 0.90941 0.44486 0.71967 0.0
H1503 H 0.0683 0.489 0.68114 0.0
H1504 H 0.98946 0.41651 0.68871 0.0
H1505 H 0.98947 0.51238 0.69733 0.0
C1506 C 0.94488 0.50651 0.70484 0.0
C1507 C 0.92168 0.48782 0.71093 0.0
C1508 C 0.00725 0.43199 0.68813 0.0
C1509 C 0.97633 0.46915 0.70514 0.0
C1510 C 0.03181 0.42617 0.67346 0.0
C1511 C 0.05349 0.44717 0.66945 0.0
C1512 C 0.00462 0.45906 0.69838 0.0
C1513 C 0.05191 0.47234 0.68373 0.0
C1514 C 0.97209 0.4974 0.70233 0.0
C1515 C 0.92673 0.45982 0.71452 0.0
N1516 N 0.02751 0.4779 0.69694 0.0
N1517 N 0.95353 0.45115 0.71104 0.0
H1518 H 0.53039 0.53955 0.22098 0.0
H1519 H 0.46081 0.66437 0.15224 0.0
H1520 H 0.57027 0.6227 0.21889 0.0
H1521 H 0.42424 0.58014 0.15254 0.0
H1522 H 0.49393 0.65305 0.18797 0.0
H1523 H 0.48575 0.55706 0.20673 0.0
C1524 C 0.5297 0.56158 0.21754 0.0
C1525 C 0.55421 0.57963 0.22033 0.0
C1526 C 0.47801 0.63727 0.18096 0.0
C1527 C 0.50308 0.59988 0.20389 0.0
C1528 C 0.45885 0.64385 0.16089 0.0
C1529 C 0.43982 0.62312 0.14976 0.0
C1530 C 0.47826 0.60966 0.1894 0.0
C1531 C 0.43854 0.59668 0.1609 0.0
C1532 C 0.50412 0.57162 0.2096 0.0
C1533 C 0.55192 0.60805 0.21643 0.0
N1534 N 0.45789 0.59054 0.17979 0.0
N1535 N 0.52688 0.61728 0.20787 0.0
H1536 H 0.60541 0.80183 0.81257 0.0
H1537 H 0.63986 0.77374 0.68153 0.0
H1538 H 0.51768 0.77818 0.79245 0.0
H1539 H 0.57105 0.71023 0.68499 0.0
H1540 H 0.61962 0.79708 0.72083 0.0
H1541 H 0.61958 0.78729 0.76723 0.0
C1542 C 0.58903 0.79363 0.79861 0.0
C1543 C 0.56025 0.7913 0.80647 0.0
C1544 C 0.60882 0.77807 0.71298 0.0
C1545 C 0.57643 0.77525 0.75378 0.0
C1546 C 0.62012 0.76496 0.69028 0.0
C1547 C 0.60746 0.73955 0.68048 0.0
C1548 C 0.58494 0.76547 0.72631 0.0
C1549 C 0.58162 0.72948 0.69227 0.0
C1550 C 0.59714 0.78572 0.77247 0.0
C1551 C 0.54012 0.7804 0.78729 0.0
N1552 N 0.57142 0.74215 0.71502 0.0
N1553 N 0.54862 0.77251 0.76185 0.0
H1554 H 0.54251 0.28907 0.0942 0.0
H1555 H 0.61022 0.3362 0.97658 0.0
H1556 H 0.491 0.23371 0.04129 0.0
H1557 H 0.52814 0.31293 0.94145 0.0
H1558 H 0.59794 0.30618 0.01526 0.0
H1559 H 0.56874 0.30675 0.05425 0.0
C1560 C 0.53716 0.28016 0.07432 0.0
C1561 C 0.51445 0.25991 0.0712 0.0
C1562 C 0.58281 0.30729 -0.00111 0.0
C1563 C 0.54439 0.27999 0.02536 0.0
C1564 C 0.59004 0.3239 0.97656 0.0
C1565 C 0.57025 0.32664 0.95574 0.0
C1566 C 0.55548 0.29362 0.00035 0.0
C1567 C 0.54403 0.31109 0.95703 0.0
C1568 C 0.55231 0.29011 0.05149 0.0
C1569 C 0.50837 0.24926 0.04482 0.0
N1570 N 0.53732 0.29534 0.97908 0.0
N1571 N 0.52283 0.25983 0.02294 0.0
H1572 H 0.97381 0.38548 0.30461 0.0
H1573 H 0.89554 0.31394 0.17525 0.0
H1574 H 0.94463 0.29877 0.30038 0.0
H1575 H 0.88144 0.39785 0.20014 0.0
H1576 H 0.92586 0.31004 0.21525 0.0
H1577 H 0.95054 0.39224 0.2608 0.0
C1578 C 0.96237 0.36794 0.29455 0.0
C1579 C 0.9608 0.34159 0.30622 0.0
C1580 C 0.91679 0.32958 0.21146 0.0
C1581 C 0.9352 0.349 0.25604 0.0
C1582 C 0.89986 0.33191 0.18854 0.0
C1583 C 0.88712 0.35667 0.18383 0.0
C1584 C 0.92072 0.35213 0.22983 0.0
C1585 C 0.89227 0.37902 0.2022 0.0
C1586 C 0.94926 0.37181 0.2696 0.0
C1587 C 0.94598 0.3195 0.29227 0.0
N1588 N 0.90867 0.37623 0.22452 0.0
N1589 N 0.93393 0.32365 0.26779 0.0
H1590 H 0.95927 0.79489 0.56223 0.0
H1591 H 0.92952 0.65526 0.47721 0.0
H1592 H 0.92607 0.7172 0.59568 0.0
H1593 H 0.93251 0.73383 0.4366 0.0
H1594 H 0.93152 0.67939 0.52067 0.0
H1595 H 0.95072 0.77529 0.51609 0.0
C1596 C 0.9495 0.774 0.55988 0.0
C1597 C 0.94351 0.75749 0.58274 0.0
C1598 C 0.93158 0.69156 0.50239 0.0
C1599 C 0.93423 0.73504 0.53042 0.0
C1600 C 0.93081 0.67776 0.47741 0.0
C1601 C 0.93086 0.69255 0.45313 0.0
C1602 C 0.93272 0.72061 0.50349 0.0
C1603 C 0.93207 0.72167 0.45487 0.0
C1604 C 0.94479 0.76283 0.53359 0.0
C1605 C 0.93122 0.73054 0.57862 0.0
N1606 N 0.93317 0.73489 0.47975 0.0
N1607 N 0.92728 0.7201 0.55302 0.0
H1608 H 0.59326 0.31032 0.67286 0.0
H1609 H 0.56105 0.35821 0.82616 0.0
H1610 H 0.51038 0.33395 0.69858 0.0
H1611 H 0.63616 0.31819 0.80069 0.0
H1612 H 0.54135 0.34999 0.78031 0.0
H1613 H 0.60951 0.31537 0.71984 0.0
C1614 C 0.57853 0.31682 0.68836 0.0
C1615 C 0.55042 0.3217 0.68172 0.0
C1616 C 0.562 0.34275 0.78492 0.0
C1617 C 0.56885 0.32735 0.73586 0.0
C1618 C 0.57316 0.34727 0.81117 0.0
C1619 C 0.60046 0.33923 0.81733 0.0
C1620 C 0.57835 0.3302 0.76469 0.0
C1621 C 0.61519 0.32512 0.79695 0.0
C1622 C 0.58776 0.3195 0.71528 0.0
C1623 C 0.53228 0.33006 0.70276 0.0
N1624 N 0.60411 0.32136 0.77159 0.0
N1625 N 0.5418 0.33262 0.72889 0.0
H1626 H 0.94722 0.26842 0.97521 0.0
H1627 H 0.96936 0.41086 0.0605 0.0
H1628 H 0.00281 0.33896 0.95178 0.0
H1629 H 0.90624 0.34557 0.08198 0.0
H1630 H 0.98726 0.38082 0.02508 0.0
H1631 H 0.9361 0.29313 0.01769 0.0
C1632 C 0.95711 0.28906 0.97902 0.0
C1633 C 0.97573 0.3018 0.95982 0.0
C1634 C 0.96962 0.37291 0.03762 0.0
C1635 C 0.96346 0.3299 0.00837 0.0
C1636 C 0.95943 0.39004 0.058 0.0
C1637 C 0.93573 0.38101 0.07381 0.0
C1638 C 0.95596 0.34652 0.03276 0.0
C1639 C 0.92422 0.35358 0.06995 0.0
C1640 C 0.95084 0.30308 0.00328 0.0
C1641 C 0.98811 0.32845 0.96585 0.0
N1642 N 0.93412 0.33742 0.04944 0.0
N1643 N 0.9817 0.3416 0.98953 0.0
H1644 H 0.97242 0.76644 0.17811 0.0
H1645 H 0.96386 0.68858 0.31854 0.0
H1646 H 0.04603 0.72926 0.20943 0.0
H1647 H 0.91162 0.7551 0.29861 0.0
H1648 H 0.9938 0.69978 0.27856 0.0
H1649 H 0.94768 0.75707 0.22094 0.0
C1650 C 0.98329 0.75595 0.19383 0.0
C1651 C 0.01137 0.74859 0.19008 0.0
C1652 C 0.976 0.71212 0.28328 0.0
C1653 C 0.98315 0.7381 0.23947 0.0
C1654 C 0.95903 0.70584 0.30617 0.0
C1655 C 0.93487 0.72052 0.31171 0.0
C1656 C 0.96847 0.73304 0.26583 0.0
C1657 C 0.92968 0.74282 0.29496 0.0
C1658 C 0.96925 0.75091 0.21844 0.0
C1659 C 0.02439 0.73529 0.21144 0.0
N1660 N 0.94603 0.74808 0.2726 0.0
N1661 N 0.01013 0.73037 0.23526 0.0
H1662 H 0.57855 0.69867 0.42291 0.0
H1663 H 0.55371 0.72011 0.57696 0.0
H1664 H 0.54278 0.77235 0.45559 0.0
H1665 H 0.61712 0.66741 0.54625 0.0
H1666 H 0.55565 0.74473 0.53388 0.0
H1667 H 0.59876 0.69091 0.46758 0.0
C1668 C 0.5754 0.71352 0.43929 0.0
C1669 C 0.55842 0.73586 0.43555 0.0
C1670 C 0.56995 0.72846 0.53682 0.0
C1671 C 0.58119 0.72689 0.48688 0.0
C1672 C 0.56899 0.71462 0.56152 0.0
C1673 C 0.58544 0.69199 0.56504 0.0
C1674 C 0.58662 0.71873 0.51524 0.0
C1675 C 0.60434 0.68504 0.54424 0.0
C1676 C 0.58706 0.70914 0.46481 0.0
C1677 C 0.55539 0.7546 0.45752 0.0
N1678 N 0.6039 0.69788 0.5199 0.0
N1679 N 0.56607 0.74934 0.48236 0.0
H1680 H 0.7836 0.5212 0.67349 0.0
H1681 H 0.68428 0.64099 0.71714 0.0
H1682 H 0.80487 0.5896 0.72933 0.0
H1683 H 0.69074 0.61681 0.63274 0.0
H1684 H 0.71407 0.60367 0.72906 0.0
H1685 H 0.73779 0.54124 0.66434 0.0
C1686 C 0.77858 0.54023 0.68393 0.0
C1687 C 0.79807 0.55383 0.70216 0.0
C1688 C 0.70791 0.60574 0.70801 0.0
C1689 C 0.74576 0.5757 0.69287 0.0
C1690 C 0.69066 0.62675 0.70127 0.0
C1691 C 0.68507 0.63167 0.67394 0.0
C1692 C 0.7199 0.58995 0.68718 0.0
C1693 C 0.69426 0.61312 0.65401 0.0
C1694 C 0.7525 0.55142 0.67884 0.0
C1695 C 0.7906 0.57835 0.71518 0.0
N1696 N 0.712 0.59336 0.6609 0.0
N1697 N 0.765 0.58836 0.71043 0.0
H1698 H 0.72324 0.5771 0.97818 0.0
H1699 H 0.59864 0.45694 0.99048 0.0
H1700 H 0.63693 0.58976 0.00327 0.0
H1701 H 0.66852 0.44968 0.934 0.0
H1702 H 0.61967 0.50215 0.00548 0.0
H1703 H 0.7092 0.52765 0.96995 0.0
C1704 C 0.70136 0.56954 0.98189 0.0
C1705 C 0.68113 0.58769 0.99118 0.0
C1706 C 0.63063 0.49051 0.99007 0.0
C1707 C 0.66532 0.53122 0.98258 0.0
C1708 C 0.61878 0.46456 0.98164 0.0
C1709 C 0.63155 0.4497 0.96056 0.0
C1710 C 0.65551 0.50177 0.97743 0.0
C1711 C 0.65785 0.46052 0.95017 0.0
C1712 C 0.69345 0.54136 0.97727 0.0
C1713 C 0.65317 0.5767 -0.00419 0.0
N1714 N 0.6688 0.48619 0.95842 0.0
N1715 N 0.64616 0.54921 0.99159 0.0
H1716 H 0.6829 0.53671 0.1825 0.0
H1717 H 0.77768 0.40798 0.20358 0.0
H1718 H 0.66529 0.47352 0.24242 0.0
H1719 H 0.7925 0.46572 0.13843 0.0
H1720 H 0.73831 0.43407 0.21978 0.0
H1721 H 0.72412 0.51254 0.16681 0.0
C1722 C 0.68753 0.5176 0.19217 0.0
C1723 C 0.67063 0.50705 0.21377 0.0
C1724 C 0.75027 0.44128 0.20207 0.0
C1725 C 0.71792 0.47961 0.19622 0.0
C1726 C 0.77283 0.42646 0.19289 0.0
C1727 C 0.78846 0.43492 0.16974 0.0
C1728 C 0.74305 0.46467 0.18788 0.0
C1729 C 0.78137 0.45897 0.15668 0.0
C1730 C 0.71115 0.50392 0.1833 0.0
C1731 C 0.67768 0.48234 0.22565 0.0
N1732 N 0.75897 0.47297 0.16581 0.0
N1733 N 0.70085 0.46953 0.21678 0.0
H1734 H 0.79418 0.46748 0.47465 0.0
H1735 H 0.81408 0.60879 0.39502 0.0
H1736 H 0.71994 0.5084 0.45039 0.0
H1737 H 0.87412 0.58051 0.45244 0.0
H1738 H 0.77865 0.57219 0.41075 0.0
H1739 H 0.82415 0.50743 0.46021 0.0
C1740 C 0.7841 0.48477 0.46607 0.0
C1741 C 0.75439 0.48449 0.46384 0.0
C1742 C 0.79949 0.57442 0.42007 0.0
C1743 C 0.78892 0.5308 0.44736 0.0
C1744 C 0.81959 0.59533 0.41124 0.0
C1745 C 0.84721 0.59729 0.42209 0.0
C1746 C 0.80742 0.55556 0.43963 0.0
C1747 C 0.85328 0.57939 0.44308 0.0
C1748 C 0.80129 0.50776 0.45802 0.0
C1749 C 0.74275 0.50774 0.45256 0.0
N1750 N 0.83376 0.55915 0.45085 0.0
N1751 N 0.76007 0.53002 0.44465 0.0
H1752 H 0.78403 0.4816 0.76212 0.0
H1753 H 0.6803 0.46842 0.88577 0.0
H1754 H 0.77897 0.55154 0.81763 0.0
H1755 H 0.66062 0.42888 0.80816 0.0
H1756 H 0.71549 0.5004 0.86324 0.0
H1757 H 0.73983 0.46073 0.78143 0.0
C1758 C 0.7738 0.4924 0.77862 0.0
C1759 C 0.78533 0.5182 0.78848 0.0
C1760 C 0.70268 0.48542 0.85101 0.0
C1761 C 0.73453 0.49458 0.81046 0.0
C1762 C 0.68231 0.46751 0.86379 0.0
C1763 C 0.66743 0.44631 0.84865 0.0
C1764 C 0.70854 0.48136 0.82319 0.0
C1765 C 0.67146 0.44525 0.82039 0.0
C1766 C 0.74834 0.4807 0.78934 0.0
C1767 C 0.77083 0.53153 0.80956 0.0
N1768 N 0.69218 0.46204 0.80863 0.0
N1769 N 0.74629 0.5194 0.82012 0.0
H1770 H 0.75104 0.59599 0.09283 0.0
H1771 H 0.84818 0.47452 0.04472 0.0
H1772 H 0.79708 0.5936 0.01664 0.0
H1773 H 0.8375 0.49538 0.1296 0.0
H1774 H 0.81626 0.51026 0.03296 0.0
H1775 H 0.77189 0.55277 0.10576 0.0
C1776 C 0.76558 0.58647 0.07891 0.0
C1777 C 0.77265 0.59861 0.05378 0.0
C1778 C 0.82017 0.50647 0.05423 0.0
C1779 C 0.79557 0.54893 0.06796 0.0
C1780 C 0.83794 0.48576 0.06093 0.0
C1781 C 0.84476 0.48158 0.08816 0.0
C1782 C 0.80943 0.52337 0.07493 0.0
C1783 C 0.83196 0.49746 0.10841 0.0
C1784 C 0.77731 0.56181 0.08623 0.0
C1785 C 0.79135 0.58525 0.03638 0.0
N1786 N 0.81506 0.51793 0.1014 0.0
N1787 N 0.802 0.56112 0.04373 0.0
H1788 H 0.69456 0.5534 0.30009 0.0
H1789 H 0.83664 0.64826 0.27252 0.0
H1790 H 0.69927 0.63267 0.26078 0.0
H1791 H 0.82641 0.59991 0.34507 0.0
H1792 H 0.79102 0.62749 0.25597 0.0
H1793 H 0.74642 0.5585 0.30697 0.0
C1794 C 0.7065 0.57187 0.29295 0.0
C1795 C 0.69261 0.5929 0.28023 0.0
C1796 C 0.79922 0.62068 0.27508 0.0
C1797 C 0.75166 0.59811 0.28694 0.0
C1798 C 0.82549 0.63208 0.28427 0.0
C1799 C 0.83495 0.62606 0.31036 0.0
C1800 C 0.78249 0.60311 0.2921 0.0
C1801 C 0.81967 0.60515 0.32491 0.0
C1802 C 0.73599 0.5746 0.29672 0.0
C1803 C 0.70905 0.61624 0.27112 0.0
N1804 N 0.79362 0.59491 0.31594 0.0
N1805 N 0.73772 0.61815 0.27455 0.0
H1806 H 0.748 0.48662 0.55853 0.0
H1807 H 0.60135 0.55429 0.59336 0.0
H1808 H 0.66451 0.4461 0.54488 0.0
H1809 H 0.681 0.60396 0.58733 0.0
H1810 H 0.62575 0.51332 0.58074 0.0
H1811 H 0.72547 0.52847 0.57469 0.0
C1812 C 0.72498 0.48641 0.55925 0.0
C1813 C 0.70805 0.46287 0.55038 0.0
C1814 C 0.63802 0.53312 0.58222 0.0
C1815 C 0.68231 0.51045 0.56864 0.0
C1816 C 0.62405 0.55666 0.58936 0.0
C1817 C 0.63914 0.58274 0.59162 0.0
C1818 C 0.66746 0.53538 0.57721 0.0
C1819 C 0.66861 0.58424 0.58639 0.0
C1820 C 0.71218 0.51033 0.56826 0.0
C1821 C 0.67837 0.46378 0.55146 0.0
N1822 N 0.68186 0.56086 0.57943 0.0
N1823 N 0.6665 0.48711 0.56041 0.0
H1824 H 0.75795 0.83291 0.50677 0.0
H1825 H 0.63282 0.73833 0.57512 0.0
H1826 H 0.69539 0.8648 0.56157 0.0
H1827 H 0.71857 0.71332 0.56647 0.0
H1828 H 0.647 0.78127 0.5513 0.0
H1829 H 0.73482 0.78629 0.51147 0.0
C1830 C 0.73905 0.83022 0.51943 0.0
C1831 C 0.72878 0.85274 0.53415 0.0
C1832 C 0.66237 0.76585 0.55374 0.0
C1833 C 0.70201 0.79958 0.53896 0.0
C1834 C 0.65423 0.74118 0.56689 0.0
C1835 C 0.67465 0.72239 0.57273 0.0
C1836 C 0.69093 0.77132 0.54605 0.0
C1837 C 0.70228 0.72737 0.5623 0.0
C1838 C 0.72591 0.80363 0.522 0.0
C1839 C 0.70423 0.84797 0.55021 0.0
N1840 N 0.70976 0.7516 0.54972 0.0
N1841 N 0.69171 0.82182 0.55229 0.0
H1842 H 0.1746 0.69734 0.4718 0.0
H1843 H 0.18922 0.85754 0.45481 0.0
H1844 H 0.20006 0.75423 0.5376 0.0
H1845 H 0.14259 0.80222 0.39855 0.0
H1846 H 0.18577 0.8211 0.48895 0.0
H1847 H 0.1544 0.73533 0.44835 0.0
C1848 C 0.17536 0.71767 0.48162 0.0
C1849 C 0.18967 0.72274 0.50637 0.0
C1850 C 0.17557 0.81711 0.46943 0.0
C1851 C 0.16718 0.76645 0.47938 0.0
C1852 C 0.17751 0.83793 0.45007 0.0
C1853 C 0.16611 0.83261 0.42414 0.0
C1854 C 0.16284 0.79071 0.46233 0.0
C1855 C 0.15154 0.80689 0.41853 0.0
C1856 C 0.1638 0.7394 0.46822 0.0
C1857 C 0.18961 0.74942 0.51833 0.0
N1858 N 0.15071 0.78666 0.43734 0.0
N1859 N 0.17923 0.77044 0.5044 0.0
H1860 H 0.57104 0.02244 0.69437 0.0
H1861 H 0.4425 0.91933 0.68101 0.0
H1862 H 0.5563 0.96838 0.76269 0.0
H1863 H 0.43342 0.00609 0.66774 0.0
H1864 H 0.48407 0.93184 0.70974 0.0
H1865 H 0.52205 0.01155 0.67996 0.0
C1866 C 0.55755 0.00824 0.70635 0.0
C1867 C 0.56769 -0.00351 0.72991 0.0
C1868 C 0.47223 0.94811 0.70142 0.0
C1869 C 0.51173 0.9836 0.71317 0.0
C1870 C 0.44815 0.94101 0.68553 0.0
C1871 C 0.43405 0.96174 0.67269 0.0
C1872 C 0.48267 0.97599 0.70338 0.0
C1873 C 0.44361 0.98954 0.67752 0.0
C1874 C 0.52953 0.00222 0.69821 0.0
C1875 C 0.54919 0.97796 0.74446 0.0
N1876 N 0.46776 -0.00416 0.69193 0.0
N1877 N 0.52205 0.97172 0.73564 0.0
H1878 H 0.35844 0.34334 0.98775 0.0
H1879 H 0.29556 0.20451 0.91401 0.0
H1880 H 0.27743 0.33484 0.9467 0.0
H1881 H 0.38131 0.2362 0.89588 0.0
H1882 H 0.29027 0.24466 0.94464 0.0
H1883 H 0.36849 0.29654 0.97034 0.0
C1884 C 0.34288 0.33164 0.97512 0.0
C1885 C 0.31739 0.343 0.96805 0.0
C1886 C 0.3106 0.24214 0.93476 0.0
C1887 C 0.32795 0.28978 0.94964 0.0
C1888 C 0.31367 0.21925 0.91754 0.0
C1889 C 0.3392 0.21672 0.90329 0.0
C1890 C 0.33314 0.26261 0.93739 0.0
C1891 C 0.36175 0.23689 0.90753 0.0
C1892 C 0.34853 0.30509 0.96542 0.0
C1893 C 0.29763 0.32703 0.95204 0.0
N1894 N 0.35815 0.25926 0.9241 0.0
N1895 N 0.30325 0.30115 0.94351 0.0
H1896 H 0.418 0.61407 0.71993 0.0
H1897 H 0.57509 0.58906 0.69296 0.0
H1898 H 0.45696 0.54925 0.7623 0.0
H1899 H 0.54337 0.67013 0.68802 0.0
H1900 H 0.53511 0.57514 0.72325 0.0
H1901 H 0.46534 0.63638 0.71125 0.0
C1902 C 0.43651 0.60473 0.72766 0.0
C1903 C 0.4336 0.57968 0.74157 0.0
C1904 C 0.53767 0.59641 0.71658 0.0
C1905 C 0.48782 0.60479 0.73144 0.0
C1906 C 0.5607 0.60442 0.69961 0.0
C1907 C 0.5627 0.63093 0.68846 0.0
C1908 C 0.51637 0.61492 0.72157 0.0
C1909 C 0.54297 0.6498 0.69682 0.0
C1910 C 0.46352 0.61755 0.72291 0.0
C1911 C 0.45829 0.56856 0.75139 0.0
N1912 N 0.5202 0.64126 0.7123 0.0
N1913 N 0.48445 0.58086 0.74561 0.0
H1914 H 0.76154 0.2463 0.97654 0.0
H1915 H 0.86644 0.35847 0.05293 0.0
H1916 H 0.83435 0.22521 0.02254 0.0
H1917 H 0.77572 0.35596 0.06555 0.0
H1918 H 0.8596 0.31922 0.0205 0.0
H1919 H 0.77188 0.29541 0.98985 0.0
C1920 C 0.78017 0.25216 0.98877 0.0
C1921 C 0.79717 0.23186 -0.00142 0.0
C1922 C 0.84116 0.32814 0.02949 0.0
C1923 C 0.8095 0.28761 0.0129 0.0
C1924 C 0.845 0.35071 0.04768 0.0
C1925 C 0.82163 0.36019 0.06203 0.0
C1926 C 0.81365 0.31575 0.02512 0.0
C1927 C 0.79425 0.3492 0.05481 0.0
C1928 C 0.78598 0.28005 -0.00369 0.0
C1929 C 0.82076 0.24032 0.0147 0.0
N1930 N 0.79099 0.3272 0.03712 0.0
N1931 N 0.82628 0.26763 0.02136 0.0
H1932 H 0.59917 0.10006 0.80051 0.0
H1933 H 0.43727 0.1154 0.83537 0.0
H1934 H 0.53352 0.08121 0.74069 0.0
H1935 H 0.50704 0.15446 0.88173 0.0
H1936 H 0.47075 0.10692 0.79775 0.0
H1937 H 0.56505 0.12343 0.8287 0.0
C1938 C 0.57759 0.10104 0.79324 0.0
C1939 C 0.5691 0.08852 0.76839 0.0
C1940 C 0.47853 0.11798 0.81591 0.0
C1941 C 0.52966 0.11495 0.80069 0.0
C1942 C 0.45942 0.12293 0.83722 0.0
C1943 C 0.4697 0.13521 0.86163 0.0
C1944 C 0.50783 0.12525 0.81949 0.0
C1945 C 0.4985 0.14451 0.86328 0.0
C1946 C 0.55809 0.11453 0.80925 0.0
C1947 C 0.5409 0.09063 0.75979 0.0
N1948 N 0.51662 0.13898 0.8427 0.0
N1949 N 0.522 0.10318 0.77615 0.0
H1950 H 0.93966 0.94532 0.26125 0.0
H1951 H 0.07821 0.95162 0.35323 0.0
H1952 H 0.96342 0.00812 0.32218 0.0
H1953 H 0.0276 0.87566 0.33583 0.0
H1954 H 0.05008 0.97538 0.32037 0.0
H1955 H 0.98423 0.92326 0.27003 0.0
C1956 C 0.95445 0.9546 0.27621 0.0
C1957 C 0.94774 0.97805 0.2916 0.0
C1958 C 0.04613 0.95318 0.32273 0.0
C1959 C -0.00121 0.95397 0.3006 0.0
C1960 C 0.06243 0.93955 0.34112 0.0
C1961 C 0.05488 0.91183 0.34723 0.0
C1962 C 0.0225 0.93872 0.31046 0.0
C1963 C 0.03393 0.89713 0.33153 0.0
C1964 C 0.97983 0.9422 0.28097 0.0
C1965 C 0.96759 0.9896 0.31045 0.0
N1966 N 0.01786 0.91093 0.31423 0.0
N1967 N 0.99223 0.97737 0.31451 0.0
H1968 H 0.49703 0.3487 0.20387 0.0
H1969 H 0.42268 0.3271 0.34888 0.0
H1970 H 0.43865 0.28044 0.22751 0.0
H1971 H 0.44635 0.40803 0.31746 0.0
H1972 H 0.44935 0.3063 0.31178 0.0
H1973 H 0.49577 0.3672 0.25117 0.0
C1974 C 0.48422 0.33755 0.21904 0.0
C1975 C 0.46731 0.31348 0.21176 0.0
C1976 C 0.44974 0.32871 0.31364 0.0
C1977 C 0.46683 0.33357 0.26557 0.0
C1978 C 0.43501 0.34059 0.33516 0.0
C1979 C 0.43219 0.36924 0.336 0.0
C1980 C 0.46143 0.3457 0.29289 0.0
C1981 C 0.44807 0.3858 0.31738 0.0
C1982 C 0.48367 0.34794 0.24593 0.0
C1983 C 0.45139 0.29949 0.23213 0.0
N1984 N 0.46135 0.37376 0.29598 0.0
N1985 N 0.45151 0.30975 0.25802 0.0
H1986 H 0.45628 0.78297 0.92493 0.0
H1987 H 0.48027 0.7131 0.06869 0.0
H1988 H 0.53824 0.77296 0.96102 0.0
H1989 H 0.39657 0.72305 0.03708 0.0
H1990 H 0.5011 0.73992 0.03111 0.0
H1991 H 0.4332 0.76372 0.96618 0.0
C1992 C 0.46943 0.7765 0.94132 0.0
C1993 C 0.49931 0.7795 0.93931 0.0
C1994 C 0.47813 0.7368 0.03251 0.0
C1995 C 0.47305 0.75803 0.98673 0.0
C1996 C 0.46626 0.72181 0.05422 0.0
C1997 C 0.43672 0.71622 0.05611 0.0
C1998 C 0.46039 0.7458 0.01205 0.0
C1999 C 0.41945 0.7274 0.03653 0.0
C2000 C 0.45623 0.76578 0.96496 0.0
C2001 C 0.51519 0.77107 0.96143 0.0
N2002 N 0.43157 0.74133 0.015 0.0
N2003 N 0.5019 0.76081 0.98404 0.0
H2004 H 0.01507 0.76449 0.71771 0.0
H2005 H 0.04053 0.65331 0.83086 0.0
H2006 H 0.99224 0.67685 0.70614 0.0
H2007 H 0.0799 0.73649 0.8284 0.0
H2008 H 0.00973 0.66417 0.7927 0.0
H2009 H 0.02625 0.7565 0.76479 0.0
C2010 C 0.01244 0.74346 0.72501 0.0
C2011 C 0.00328 0.7212 0.70763 0.0
C2012 C 0.02468 0.68017 0.80101 0.0
C2013 C 0.01634 0.71189 0.76202 0.0
C2014 C 0.04208 0.67405 0.82282 0.0
C2015 C 0.06353 0.6937 0.8318 0.0
C2016 C 0.0285 0.70632 0.78894 0.0
C2017 C 0.0641 0.72054 0.82149 0.0
C2018 C 0.01869 0.73896 0.75207 0.0
C2019 C -0.00028 0.69454 0.71866 0.0
N2020 N 0.04725 0.72591 0.80029 0.0
N2021 N 0.0067 0.69053 0.74513 0.0
H2022 H 0.98158 0.34795 0.44585 0.0
H2023 H 0.1115 0.36166 0.54999 0.0
H2024 H 0.07 0.36088 0.42229 0.0
H2025 H 0.02399 0.36911 0.57351 0.0
H2026 H 0.09573 0.34735 0.50403 0.0
H2027 H -0.00383 0.34515 0.4933 0.0
C2028 C 0.00404 0.35069 0.4507 0.0
C2029 C 0.02461 0.35506 0.43014 0.0
C2030 C 0.07991 0.35128 0.51949 0.0
C2031 C 0.04145 0.35104 0.48425 0.0
C2032 C 0.08889 0.35888 0.54582 0.0
C2033 C 0.06894 0.3667 0.56527 0.0
C2034 C 0.0509 0.35158 0.51292 0.0
C2035 C 0.03993 0.36329 0.55886 0.0
C2036 C 0.01236 0.34865 0.47773 0.0
C2037 C 0.05343 0.35777 0.43755 0.0
N2038 N 0.03175 0.35651 0.53302 0.0
N2039 N 0.06101 0.35573 0.46402 0.0
H2040 H 0.46987 0.69591 0.33093 0.0
H2041 H 0.41921 0.75664 0.19019 0.0
H2042 H 0.43686 0.77619 0.321 0.0
H2043 H 0.42457 0.66893 0.20107 0.0
H2044 H 0.43818 0.76542 0.23598 0.0
H2045 H 0.46237 0.68622 0.28193 0.0
C2046 C 0.46072 0.71129 0.31858 0.0
C2047 C 0.45381 0.73682 0.33015 0.0
C2048 C 0.43584 0.74425 0.22817 0.0
C2049 C 0.44615 0.72629 0.27426 0.0
C2050 C 0.42546 0.73932 0.20189 0.0
C2051 C 0.42071 0.71208 0.19178 0.0
C2052 C 0.44099 0.72175 0.24468 0.0
C2053 C 0.42864 0.69027 0.20792 0.0
C2054 C 0.45674 0.70587 0.29064 0.0
C2055 C 0.44234 0.75615 0.31315 0.0
N2056 N 0.43797 0.69551 0.23384 0.0
N2057 N 0.43908 0.75055 0.28615 0.0
H2058 H 0.10056 0.74726 0.04556 0.0
H2059 H 0.03672 0.61478 0.97097 0.0
H2060 H 0.01323 0.71802 0.0608 0.0
H2061 H 0.08329 0.67669 0.92314 0.0
H2062 H 0.03161 0.64934 0.00718 0.0
H2063 H 0.10004 0.71839 0.00361 0.0
C2064 C 0.08136 0.73472 0.0401 0.0
C2065 C 0.05697 0.73477 0.0567 0.0
C2066 C 0.043 0.65535 0.98874 0.0
C2067 C 0.05639 0.70185 0.00932 0.0
C2068 C 0.04598 0.63569 0.96801 0.0
C2069 C 0.06177 0.64261 0.94444 0.0
C2070 C 0.05633 0.68199 0.98613 0.0
C2071 C 0.07267 0.67014 0.94165 0.0
C2072 C 0.081 0.71858 0.01613 0.0
C2073 C 0.03249 0.71849 0.04858 0.0
N2074 N 0.07035 0.68881 0.96258 0.0
N2075 N 0.03297 0.70229 0.02569 0.0
H2076 H 0.02355 0.24403 0.78767 0.0
H2077 H 0.0638 0.38928 0.7194 0.0
H2078 H 0.03281 0.32153 0.83333 0.0
H2079 H 0.06588 0.30958 0.6788 0.0
H2080 H 0.0395 0.36669 0.75832 0.0
H2081 H 0.02748 0.2694 0.7457 0.0
C2082 C 0.02677 0.26645 0.78895 0.0
C2083 C 0.02866 0.28062 0.81421 0.0
C2084 C 0.04442 0.35428 0.74052 0.0
C2085 C 0.03306 0.30997 0.76574 0.0
C2086 C 0.05783 0.36721 0.71818 0.0
C2087 C 0.06675 0.3511 0.69611 0.0
C2088 C 0.04008 0.32519 0.74045 0.0
C2089 C 0.05921 0.32259 0.69555 0.0
C2090 C 0.02871 0.28096 0.76484 0.0
C2091 C 0.03184 0.30974 0.81434 0.0
N2092 N 0.0467 0.31045 0.71762 0.0
N2093 N 0.03435 0.32349 0.79041 0.0
H2094 H 0.43784 0.29444 0.57256 0.0
H2095 H 0.45173 0.38168 0.43599 0.0
H2096 H 0.51542 0.33669 0.54288 0.0
H2097 H 0.37175 0.36236 0.4767 0.0
H2098 H 0.47483 0.35165 0.46727 0.0
H2099 H 0.41324 0.30814 0.53153 0.0
C2100 C 0.4497 0.30656 0.55742 0.0
C2101 C 0.47861 0.31484 0.56136 0.0
C2102 C 0.45203 0.35317 0.46881 0.0
C2103 C 0.45084 0.32989 0.51413 0.0
C2104 C 0.43873 0.3698 0.45053 0.0
C2105 C 0.4098 0.37425 0.45367 0.0
C2106 C 0.43622 0.34111 0.49045 0.0
C2107 C 0.39407 0.35912 0.47344 0.0
C2108 C 0.43569 0.31421 0.53397 0.0
C2109 C 0.49301 0.33025 0.54093 0.0
N2110 N 0.40758 0.34365 0.49151 0.0
N2111 N 0.47898 0.3373 0.51827 0.0
H2112 H 0.16592 0.45961 0.32786 0.0
H2113 H 0.32844 0.4728 0.31593 0.0
H2114 H 0.2088 0.5394 0.31171 0.0
H2115 H 0.28638 0.41527 0.37145 0.0
H2116 H 0.28642 0.50021 0.31725 0.0
H2117 H 0.20984 0.44466 0.34735 0.0
C2118 C 0.18446 0.47421 0.32918 0.0
C2119 C 0.18388 0.50072 0.31833 0.0
C2120 C 0.28678 0.48217 0.32994 0.0
C2121 C 0.23446 0.4835 0.33947 0.0
C2122 C 0.31078 0.46667 0.32928 0.0
C2123 C 0.31089 0.44218 0.344 0.0
C2124 C 0.26244 0.47231 0.34453 0.0
C2125 C 0.28718 0.43439 0.36023 0.0
C2126 C 0.20952 0.46572 0.34027 0.0
C2127 C 0.20846 0.51884 0.32016 0.0
N2128 N 0.26363 0.44908 0.35962 0.0
N2129 N 0.23308 0.50965 0.32985 0.0
H2130 H 0.29377 0.47009 0.06357 0.0
H2131 H 0.35936 0.6161 0.01442 0.0
H2132 H 0.3335 0.48517 0.98529 0.0
H2133 H 0.31714 0.60511 0.09177 0.0
H2134 H 0.33887 0.57073 -0.00071 0.0
H2135 H 0.29476 0.52042 0.07195 0.0
C2136 C 0.30289 0.48396 0.04827 0.0
C2137 C 0.31396 0.47339 0.02388 0.0
C2138 C 0.33339 0.57838 0.01939 0.0
C2139 C 0.31452 0.53085 0.03299 0.0
C2140 C 0.34464 0.60459 0.0278 0.0
C2141 C 0.34053 0.61386 0.05466 0.0
C2142 C 0.31846 0.56124 0.03823 0.0
C2143 C 0.3213 0.59825 0.07115 0.0
C2144 C 0.3031 0.51266 0.05289 0.0
C2145 C 0.32511 0.49229 0.00457 0.0
N2146 N 0.31176 0.57213 0.06309 0.0
N2147 N 0.32518 0.52 0.00959 0.0
H2148 H 0.26705 0.53245 0.77595 0.0
H2149 H 0.22347 0.65749 0.86432 0.0
H2150 H 0.32585 0.57873 0.82958 0.0
H2151 H 0.16178 0.59848 0.82727 0.0
H2152 H 0.25955 0.62387 0.85968 0.0
H2153 H 0.22732 0.55023 0.80126 0.0
C2154 C 0.27152 0.546 0.79349 0.0
C2155 C 0.29966 0.55462 0.80047 0.0
C2156 C 0.23803 0.61788 0.85309 0.0
C2157 C 0.2543 0.57561 0.82918 0.0
C2158 C 0.21747 0.6371 0.85569 0.0
C2159 C 0.18995 0.63076 0.84563 0.0
C2160 C 0.23121 0.59248 0.83949 0.0
C2161 C 0.18296 0.60411 0.83496 0.0
C2162 C 0.24882 0.55609 0.80799 0.0
C2163 C 0.3044 0.57186 0.82347 0.0
N2164 N 0.20373 0.58609 0.83151 0.0
N2165 N 0.28188 0.58239 0.83665 0.0
H2166 H 0.23634 0.59998 0.59748 0.0
H2167 H 0.19108 0.46302 0.62166 0.0
H2168 H 0.21948 0.58014 0.51268 0.0
H2169 H 0.1482 0.4697 0.54514 0.0
H2170 H 0.22262 0.50392 0.61037 0.0
H2171 H 0.22353 0.55148 0.60837 0.0
C2172 C 0.23025 0.58541 0.58113 0.0
C2173 C 0.22844 0.59435 0.55422 0.0
C2174 C 0.20654 0.49624 0.59591 0.0
C2175 C 0.21464 0.53861 0.56634 0.0
C2176 C 0.18889 0.47264 0.60218 0.0
C2177 C 0.16658 0.46364 0.58464 0.0
C2178 C 0.20177 0.51044 0.57182 0.0
C2179 C 0.16487 0.4764 0.55941 0.0
C2180 C 0.22336 0.55757 0.5873 0.0
C2181 C 0.22071 0.57445 0.53382 0.0
N2182 N 0.18193 0.4994 0.55393 0.0
N2183 N 0.21375 0.5477 0.54037 0.0
H2184 H 0.19316 0.53372 0.16954 0.0
H2185 H 0.3171 0.64239 0.2128 0.0
H2186 H 0.21046 0.55665 0.2536 0.0
H2187 H 0.32088 0.59613 0.13713 0.0
H2188 H 0.27971 0.60904 0.22881 0.0
H2189 H 0.24027 0.55477 0.15702 0.0
C2190 C 0.20686 0.54296 0.18539 0.0
C2191 C 0.19753 0.54375 0.21263 0.0
C2192 C 0.289 0.60578 0.20886 0.0
C2193 C 0.25143 0.56785 0.19838 0.0
C2194 C 0.31046 0.62476 0.19978 0.0
C2195 C 0.32171 0.62223 0.1734 0.0
C2196 C 0.2781 0.58447 0.19118 0.0
C2197 C 0.31243 0.599 0.1574 0.0
C2198 C 0.23384 0.5548 0.17823 0.0
C2199 C 0.21644 0.55577 0.23229 0.0
N2200 N 0.29056 0.58134 0.16624 0.0
N2201 N 0.24224 0.56764 0.22473 0.0
H2202 H 0.23458 0.44788 0.9395 0.0
H2203 H 0.18896 0.60359 0.9303 0.0
H2204 H 0.24679 0.50977 0.00384 0.0
H2205 H 0.15096 0.53436 0.88342 0.0
H2206 H 0.22401 0.57311 0.94797 0.0
H2207 H 0.21694 0.48327 0.91014 0.0
C2208 C 0.23372 0.46892 0.94736 0.0
C2209 C 0.2413 0.47576 0.97434 0.0
C2210 C 0.20841 0.56484 0.93328 0.0
C2211 C 0.22182 0.51624 0.94088 0.0
C2212 C 0.18864 0.58221 0.92313 0.0
C2213 C 0.16696 0.57111 0.90594 0.0
C2214 C 0.20639 0.5365 0.9258 0.0
C2215 C 0.16721 0.54338 0.8971 0.0
C2216 C 0.22381 0.48908 0.93061 0.0
C2217 C 0.24029 0.50344 0.9834 0.0
N2218 N 0.18641 0.52688 0.90739 0.0
N2219 N 0.23046 0.52264 0.96676 0.0
H2220 H 0.29498 0.46637 0.78244 0.0
H2221 H 0.17812 0.47035 0.66708 0.0
H2222 H 0.31026 0.50748 0.70597 0.0
H2223 H 0.16828 0.42357 0.74063 0.0
H2224 H 0.22131 0.4948 0.6859 0.0
H2225 H 0.24472 0.45956 0.77149 0.0
C2226 C 0.28779 0.47375 0.76316 0.0
C2227 C 0.30694 0.487 0.74481 0.0
C2228 C 0.20921 0.47978 0.69825 0.0
C2229 C 0.24908 0.47946 0.73219 0.0
C2230 C 0.18441 0.46609 0.68762 0.0
C2231 C 0.17032 0.44442 0.70206 0.0
C2232 C 0.21945 0.47175 0.72351 0.0
C2233 C 0.17897 0.43985 0.72871 0.0
C2234 C 0.25896 0.47013 0.75705 0.0
C2235 C 0.29623 0.49673 0.72046 0.0
N2236 N 0.20336 0.45295 0.73837 0.0
N2237 N 0.26799 0.49251 0.7147 0.0
H2238 H 0.25016 0.6009 0.42135 0.0
H2239 H 0.2997 0.45538 0.47002 0.0
H2240 H 0.28325 0.58326 0.50036 0.0
H2241 H 0.31532 0.48287 0.38806 0.0
H2242 H 0.2727 0.4961 0.47894 0.0
H2243 H 0.25649 0.55224 0.40697 0.0
C2244 C 0.25869 0.58682 0.43555 0.0
C2245 C 0.267 0.59611 0.46175 0.0
C2246 C 0.28114 0.49263 0.45867 0.0
C2247 C 0.27263 0.54093 0.44621 0.0
C2248 C 0.29629 0.46935 0.45355 0.0
C2249 C 0.30946 0.46578 0.42823 0.0
C2250 C 0.27966 0.51261 0.43846 0.0
C2251 C 0.30484 0.48461 0.40761 0.0
C2252 C 0.26204 0.55921 0.42748 0.0
C2253 C 0.2774 0.57712 0.4797 0.0
N2254 N 0.29077 0.50768 0.41332 0.0
N2255 N 0.27983 0.55047 0.47163 0.0
H2256 H 0.27849 0.21369 0.48215 0.0
H2257 H 0.28372 0.32356 0.3637 0.0
H2258 H 0.20371 0.23138 0.43705 0.0
H2259 H 0.3403 0.33273 0.43261 0.0
H2260 H 0.25782 0.28443 0.38574 0.0
H2261 H 0.30544 0.25173 0.45906 0.0
C2262 C 0.26785 0.22528 0.46708 0.0
C2263 C 0.23882 0.21932 0.46143 0.0
C2264 C 0.27587 0.29504 0.39603 0.0
C2265 C 0.2695 0.26277 0.43512 0.0
C2266 C 0.29072 0.3173 0.38347 0.0
C2267 C 0.31419 0.33142 0.39638 0.0
C2268 C 0.28484 0.28644 0.42146 0.0
C2269 C 0.32222 0.32251 0.42205 0.0
C2270 C 0.28317 0.24713 0.45417 0.0
C2271 C 0.22603 0.23529 0.44202 0.0
N2272 N 0.30769 0.30039 0.4337 0.0
N2273 N 0.24149 0.25622 0.42947 0.0
H2274 H 0.8226 0.36563 0.51644 0.0
H2275 H 0.80872 0.21808 0.58776 0.0
H2276 H 0.74438 0.32502 0.5466 0.0
H2277 H 0.88766 0.26855 0.58356 0.0
H2278 H 0.78678 0.25035 0.55798 0.0
H2279 H 0.84784 0.32493 0.52888 0.0
C2280 C 0.81072 0.34813 0.52557 0.0
C2281 C 0.78142 0.34889 0.53091 0.0
C2282 C 0.80919 0.2539 0.56275 0.0
C2283 C 0.80998 0.3021 0.54446 0.0
C2284 C 0.82189 0.23512 0.57923 0.0
C2285 C 0.85006 0.2406 0.58792 0.0
C2286 C 0.82478 0.27842 0.5551 0.0
C2287 C 0.86596 0.26345 0.57701 0.0
C2288 C 0.82511 0.3249 0.53253 0.0
C2289 C 0.76705 0.32554 0.54253 0.0
N2290 N 0.85294 0.28194 0.56162 0.0
N2291 N 0.78146 0.30316 0.54895 0.0
H2292 H 0.42947 0.00097 0.27724 0.0
H2293 H 0.57006 0.10006 0.30474 0.0
H2294 H 0.44202 0.08488 0.24851 0.0
H2295 H 0.53957 0.03522 0.35875 0.0
H2296 H 0.53109 0.08602 0.27333 0.0
H2297 H 0.47707 0.0058 0.29734 0.0
C2298 C 0.44225 0.02035 0.27501 0.0
C2299 C 0.4315 0.04276 0.26161 0.0
C2300 C 0.53341 0.07446 0.29175 0.0
C2301 C 0.48614 0.04809 0.28402 0.0
C2302 C 0.55576 0.08229 0.3095 0.0
C2303 C 0.5576 0.06919 0.33456 0.0
C2304 C 0.51324 0.05299 0.29898 0.0
C2305 C 0.53861 0.04615 0.33979 0.0
C2306 C 0.46942 0.02301 0.2864 0.0
C2307 C 0.4492 0.06725 0.2591 0.0
N2308 N 0.51696 0.03898 0.32231 0.0
N2309 N 0.47561 0.0693 0.2703 0.0
H2310 H 0.75298 0.7413 0.05746 0.0
H2311 H 0.62163 0.83131 0.08712 0.0
H2312 H 0.66557 0.71185 0.04315 0.0
H2313 H 0.70905 0.86133 0.0985 0.0
H2314 H 0.63746 0.79224 0.05993 0.0
H2315 H 0.73779 0.78831 0.06425 0.0
C2316 C 0.73056 0.7447 0.05582 0.0
C2317 C 0.71046 0.7225 0.05024 0.0
C2318 C 0.65323 0.8079 0.06748 0.0
C2319 C 0.69285 0.77647 0.05767 0.0
C2320 C 0.64412 0.83066 0.08242 0.0
C2321 C 0.6641 0.84938 0.09531 0.0
C2322 C 0.68253 0.80401 0.06555 0.0
C2323 C 0.69297 0.84726 0.08895 0.0
C2324 C 0.7219 0.77164 0.05942 0.0
C2325 C 0.68176 0.72828 0.04781 0.0
N2326 N 0.70141 0.82446 0.0753 0.0
N2327 N 0.67379 0.75461 0.05182 0.0
H2328 H 0.55373 0.50628 0.28824 0.0
H2329 H 0.4389 0.51222 0.40634 0.0
H2330 H 0.54058 0.58274 0.33214 0.0
H2331 H 0.43015 0.45388 0.33862 0.0
H2332 H 0.4786 0.53704 0.38259 0.0
H2333 H 0.5118 0.48442 0.31077 0.0
C2334 C 0.54228 0.51838 0.30291 0.0
C2335 C 0.55075 0.54636 0.30843 0.0
C2336 C 0.46773 0.51899 0.37285 0.0
C2337 C 0.50261 0.52148 0.33403 0.0
C2338 C 0.44508 0.50486 0.38633 0.0
C2339 C 0.4313 0.48089 0.37446 0.0
C2340 C 0.47698 0.50872 0.34764 0.0
C2341 C 0.44013 0.47229 0.34848 0.0
C2342 C 0.51815 0.50596 0.31549 0.0
C2343 C 0.53479 0.56111 0.32733 0.0
N2344 N 0.46272 0.48597 0.33611 0.0
N2345 N 0.51152 0.54844 0.33959 0.0
H2346 H 0.23344 0.83065 0.97618 0.0
H2347 H 0.10656 0.72258 0.9327 0.0
H2348 H 0.14507 0.84923 0.97338 0.0
H2349 H 0.19424 0.70278 0.93387 0.0
H2350 H 0.11915 0.76527 0.95827 0.0
H2351 H 0.21898 0.78163 0.96839 0.0
C2352 C 0.21101 0.82451 0.97367 0.0
C2353 C 0.19048 0.84425 0.97492 0.0
C2354 C 0.13558 0.75121 0.95384 0.0
C2355 C 0.17375 0.78797 0.96655 0.0
C2356 C 0.12817 0.72635 0.93993 0.0
C2357 C 0.14925 0.70877 0.93194 0.0
C2358 C 0.16443 0.7589 0.95891 0.0
C2359 C 0.17734 0.71564 0.94017 0.0
C2360 C 0.20275 0.79643 0.96955 0.0
C2361 C 0.16169 0.83487 0.97217 0.0
N2362 N 0.18427 0.74051 0.95273 0.0
N2363 N 0.15423 0.80746 0.96795 0.0
H2364 H 0.42093 0.95117 0.24807 0.0
H2365 H 0.53968 0.91289 0.14008 0.0
H2366 H 0.40948 0.95039 0.16108 0.0
H2367 H 0.55708 0.96945 0.20779 0.0
H2368 H 0.49083 0.90382 0.15702 0.0
H2369 H 0.46924 0.93584 0.24113 0.0
C2370 C 0.42812 0.94653 0.22758 0.0
C2371 C 0.4113 0.9519 0.20505 0.0
C2372 C 0.50576 0.91721 0.16881 0.0
C2373 C 0.466 0.93417 0.19713 0.0
C2374 C 0.5337 0.92211 0.15941 0.0
C2375 C 0.55239 0.94172 0.17279 0.0
C2376 C 0.49669 0.93189 0.19183 0.0
C2377 C 0.54332 0.95394 0.19715 0.0
C2378 C 0.45567 0.93801 0.22369 0.0
C2379 C 0.42182 0.94635 0.17891 0.0
N2380 N 0.51591 0.94912 0.20576 0.0
N2381 N 0.44861 0.9379 0.17564 0.0
H2382 H 0.04483 0.07744 0.75275 0.0
H2383 H 0.9815 0.17621 0.64724 0.0
H2384 H 0.09362 0.14571 0.71587 0.0
H2385 H 0.93653 0.10425 0.68139 0.0
H2386 H 0.01746 0.17519 0.68303 0.0
H2387 H 0.00103 0.09681 0.73866 0.0
C2388 C 0.04621 0.09707 0.74239 0.0
C2389 C 0.07274 0.11004 0.73537 0.0
C2390 C -0.00078 0.1602 0.68333 0.0
C2391 C 0.0227 0.13167 0.71786 0.0
C2392 C 0.97856 0.16098 0.6631 0.0
C2393 C 0.95601 0.14043 0.66171 0.0
C2394 C -0.00253 0.13836 0.70186 0.0
C2395 C 0.95347 0.12063 0.68209 0.0
C2396 C 0.02119 0.10806 0.73415 0.0
C2397 C 0.07347 0.13521 0.72168 0.0
N2398 N 0.97421 0.11983 0.70111 0.0
N2399 N 0.04875 0.14492 0.71274 0.0
loop_
_geom_bond_atom_site_label_1
_geom_bond_atom_site_label_2
_geom_bond_distance
_geom_bond_site_symmetry_2
_ccdc_geom_bond_type
Co0 O1 2.216 . S
Co0 O2 2.091 1_455 S
Co0 O4 2.004 1_455 S
Co0 O10 2.021 . S
Co0 O12 2.137 . S
Co0 O13 2.244 . S
O1 Co0 2.216 . S
O1 C8 1.247 1_455 S
O2 Co0 2.091 1_655 S
O2 C8 1.261 . S
C3 O12 1.247 . S
C3 O13 1.272 . S
O4 Co0 2.004 1_655 S
O4 C9 1.259 . S
Co5 O6 2.061 . S
Co5 O11 2.052 . S
Co5 O13 2.135 . S
O6 Co5 2.061 . S
O6 C9 1.235 1_455 S
C7 O10 1.238 . S
C7 O11 1.241 . S
C8 O1 1.247 1_655 S
C8 O2 1.261 . S
C9 O4 1.259 . S
C9 O6 1.235 1_655 S
O10 Co0 2.021 . S
O10 C7 1.238 . S
O11 Co5 2.052 . S
O11 C7 1.241 . S
O12 Co0 2.137 . S
O12 C3 1.247 . S
O13 Co0 2.244 . S
O13 C3 1.272 . S
O13 Co5 2.135 . S
Co14 O15 2.216 . S
Co14 O16 2.091 . S
Co14 O18 2.004 1_655 S
Co14 O24 2.021 1_655 S
Co14 O26 2.137 . S
Co14 O27 2.244 . S
O15 Co14 2.216 . S
O15 C22 1.247 . S
O16 Co14 2.091 . S
O16 C22 1.261 . S
C17 O26 1.247 . S
C17 O27 1.272 . S
O18 Co14 2.004 1_455 S
O18 C23 1.259 . S
Co19 O20 2.061 . S
Co19 O25 2.052 . S
Co19 O27 2.135 1_455 S
O20 Co19 2.061 . S
O20 C23 1.235 . S
C21 O24 1.238 . S
C21 O25 1.241 . S
C22 O15 1.247 . S
C22 O16 1.261 . S
C23 O18 1.259 . S
C23 O20 1.235 . S
O24 Co14 2.021 1_455 S
O24 C21 1.238 . S
O25 Co19 2.052 . S
O25 C21 1.241 . S
O26 Co14 2.137 . S
O26 C17 1.247 . S
O27 Co14 2.244 . S
O27 C17 1.272 . S
O27 Co19 2.135 1_655 S
Co28 O29 2.216 . S
Co28 O30 2.091 . S
Co28 O32 2.004 . S
Co28 O38 2.021 . S
Co28 O40 2.137 . S
Co28 O41 2.244 . S
O29 Co28 2.216 . S
O29 C36 1.247 . S
O30 Co28 2.091 . S
O30 C36 1.261 . S
C31 O40 1.247 . S
C31 O41 1.272 . S
O32 Co28 2.004 . S
O32 C37 1.259 . S
Co33 O34 2.061 . S
Co33 O39 2.052 . S
Co33 O41 2.135 . S
O34 Co33 2.061 . S
O34 C37 1.235 . S
C35 O38 1.238 . S
C35 O39 1.241 . S
C36 O29 1.247 . S
C36 O30 1.261 . S
C37 O32 1.259 . S
C37 O34 1.235 . S
O38 Co28 2.021 . S
O38 C35 1.238 . S
O39 Co33 2.052 . S
O39 C35 1.241 . S
O40 Co28 2.137 . S
O40 C31 1.247 . S
O41 Co28 2.244 . S
O41 C31 1.272 . S
O41 Co33 2.135 . S
Co42 O43 2.216 . S
Co42 O44 2.091 . S
Co42 O46 2.004 . S
Co42 O52 2.021 . S
Co42 O54 2.137 . S
Co42 O55 2.244 . S
O43 Co42 2.216 . S
O43 C50 1.247 . S
O44 Co42 2.091 . S
O44 C50 1.261 . S
C45 O54 1.247 . S
C45 O55 1.272 . S
O46 Co42 2.004 . S
O46 C51 1.259 . S
Co47 O48 2.061 . S
Co47 O53 2.052 . S
Co47 O55 2.135 . S
O48 Co47 2.061 . S
O48 C51 1.235 . S
C49 O52 1.238 . S
C49 O53 1.241 . S
C50 O43 1.247 . S
C50 O44 1.261 . S
C51 O46 1.259 . S
C51 O48 1.235 . S
O52 Co42 2.021 . S
O52 C49 1.238 . S
O53 Co47 2.052 . S
O53 C49 1.241 . S
O54 Co42 2.137 . S
O54 C45 1.247 . S
O55 Co42 2.244 . S
O55 C45 1.272 . S
O55 Co47 2.135 . S
Co56 O57 2.216 1_655 S
Co56 O58 2.091 . S
Co56 O60 2.004 . S
Co56 O66 2.021 1_655 S
Co56 O68 2.137 . S
Co56 O69 2.244 1_655 S
O57 Co56 2.216 1_455 S
O57 C64 1.247 1_455 S
O58 Co56 2.091 . S
O58 C64 1.261 . S
C59 O68 1.247 1_455 S
C59 O69 1.272 . S
O60 Co56 2.004 . S
O60 C65 1.259 . S
Co61 O62 2.061 . S
Co61 O67 2.052 . S
Co61 O69 2.135 . S
O62 Co61 2.061 . S
O62 C65 1.235 1_455 S
C63 O66 1.238 . S
C63 O67 1.241 . S
C64 O57 1.247 1_655 S
C64 O58 1.261 . S
C65 O60 1.259 . S
C65 O62 1.235 1_655 S
O66 Co56 2.021 1_455 S
O66 C63 1.238 . S
O67 Co61 2.052 . S
O67 C63 1.241 . S
O68 Co56 2.137 . S
O68 C59 1.247 1_655 S
O69 Co56 2.244 1_455 S
O69 C59 1.272 . S
O69 Co61 2.135 . S
Co70 O71 2.216 . S
Co70 O72 2.091 . S
Co70 O74 2.004 . S
Co70 O80 2.021 . S
Co70 O82 2.137 . S
Co70 O83 2.244 . S
O71 Co70 2.216 . S
O71 C78 1.247 . S
O72 Co70 2.091 . S
O72 C78 1.261 . S
C73 O82 1.247 . S
C73 O83 1.272 . S
O74 Co70 2.004 . S
O74 C79 1.259 . S
Co75 O76 2.061 . S
Co75 O81 2.052 . S
Co75 O83 2.135 . S
O76 Co75 2.061 . S
O76 C79 1.235 . S
C77 O80 1.238 . S
C77 O81 1.241 . S
C78 O71 1.247 . S
C78 O72 1.261 . S
C79 O74 1.259 . S
C79 O76 1.235 . S
O80 Co70 2.021 . S
O80 C77 1.238 . S
O81 Co75 2.052 . S
O81 C77 1.241 . S
O82 Co70 2.137 . S
O82 C73 1.247 . S
O83 Co70 2.244 . S
O83 C73 1.272 . S
O83 Co75 2.135 . S
Co84 O85 2.216 . S
Co84 O86 2.091 . S
Co84 O88 2.004 . S
Co84 O94 2.021 . S
Co84 O96 2.137 . S
Co84 O97 2.244 . S
O85 Co84 2.216 . S
O85 C92 1.247 . S
O86 Co84 2.091 . S
O86 C92 1.261 . S
C87 O96 1.247 . S
C87 O97 1.272 . S
O88 Co84 2.004 . S
O88 C93 1.259 . S
Co89 O90 2.061 . S
Co89 O95 2.052 . S
Co89 O97 2.135 . S
O90 Co89 2.061 . S
O90 C93 1.235 . S
C91 O94 1.238 . S
C91 O95 1.241 . S
C92 O85 1.247 . S
C92 O86 1.261 . S
C93 O88 1.259 . S
C93 O90 1.235 . S
O94 Co84 2.021 . S
O94 C91 1.238 . S
O95 Co89 2.052 . S
O95 C91 1.241 . S
O96 Co84 2.137 . S
O96 C87 1.247 . S
O97 Co84 2.244 . S
O97 C87 1.272 . S
O97 Co89 2.135 . S
Co98 O99 2.216 1_455 S
Co98 O100 2.091 . S
Co98 O102 2.004 . S
Co98 O108 2.021 . S
Co98 O110 2.137 1_455 S
Co98 O111 2.244 . S
O99 Co98 2.216 1_655 S
O99 C106 1.247 . S
O100 Co98 2.091 . S
O100 C106 1.261 1_455 S
C101 O110 1.248 1_455 S
C101 O111 1.268 . S
O102 Co98 2.004 . S
O102 C107 1.259 . S
Co103 O104 2.061 . S
Co103 O109 2.052 . S
Co103 O111 2.135 . S
O104 Co103 2.061 . S
O104 C107 1.235 . S
C105 O108 1.238 . S
C105 O109 1.241 . S
C106 O99 1.247 . S
C106 O100 1.261 1_655 S
C107 O102 1.259 . S
C107 O104 1.235 . S
O108 Co98 2.021 . S
O108 C105 1.238 . S
O109 Co103 2.052 . S
O109 C105 1.241 . S
O110 Co98 2.137 1_655 S
O110 C101 1.248 1_655 S
O111 Co98 2.244 . S
O111 C101 1.268 . S
O111 Co103 2.135 . S
Co112 O113 2.216 1_565 S
Co112 O114 2.091 . S
Co112 O116 2.004 . S
Co112 O122 2.021 1_565 S
Co112 O124 2.137 . S
Co112 O125 2.244 1_565 S
O113 Co112 2.216 1_545 S
O113 C120 1.247 1_545 S
O114 Co112 2.091 . S
O114 C120 1.261 . S
C115 O124 1.247 1_545 S
C115 O125 1.272 . S
O116 Co112 2.004 . S
O116 C121 1.259 . S
Co117 O118 2.061 . S
Co117 O123 2.052 . S
Co117 O125 2.135 . S
O118 Co117 2.061 . S
O118 C121 1.235 1_545 S
C119 O122 1.238 . S
C119 O123 1.241 . S
C120 O113 1.247 1_565 S
C120 O114 1.261 . S
C121 O116 1.259 . S
C121 O118 1.235 1_565 S
O122 Co112 2.021 1_545 S
O122 C119 1.238 . S
O123 Co117 2.052 . S
O123 C119 1.241 . S
O124 Co112 2.137 . S
O124 C115 1.247 1_565 S
O125 Co112 2.244 1_545 S
O125 C115 1.272 . S
O125 Co117 2.135 . S
Co126 O127 2.216 . S
Co126 O128 2.091 . S
Co126 O130 2.004 . S
Co126 O136 2.021 . S
Co126 O138 2.137 . S
Co126 O139 2.244 . S
O127 Co126 2.216 . S
O127 C134 1.247 . S
O128 Co126 2.091 . S
O128 C134 1.261 . S
C129 O138 1.247 . S
C129 O139 1.272 . S
O130 Co126 2.004 . S
O130 C135 1.259 . S
Co131 O132 2.061 . S
Co131 O137 2.052 . S
Co131 O139 2.135 . S
O132 Co131 2.061 . S
O132 C135 1.235 . S
C133 O136 1.238 . S
C133 O137 1.241 . S
C134 O127 1.247 . S
C134 O128 1.261 . S
C135 O130 1.259 . S
C135 O132 1.235 . S
O136 Co126 2.021 . S
O136 C133 1.238 . S
O137 Co131 2.052 . S
O137 C133 1.241 . S
O138 Co126 2.137 . S
O138 C129 1.247 . S
O139 Co126 2.244 . S
O139 C129 1.272 . S
O139 Co131 2.135 . S
Co140 O141 2.216 . S
Co140 O142 2.091 . S
Co140 O144 2.004 . S
Co140 O150 2.021 . S
Co140 O152 2.137 . S
Co140 O153 2.244 . S
O141 Co140 2.216 . S
O141 C148 1.247 . S
O142 Co140 2.091 . S
O142 C148 1.261 . S
C143 O152 1.247 . S
C143 O153 1.272 . S
O144 Co140 2.004 . S
O144 C149 1.259 . S
Co145 O146 2.061 . S
Co145 O151 2.052 . S
Co145 O153 2.135 . S
O146 Co145 2.061 . S
O146 C149 1.235 . S
C147 O150 1.238 . S
C147 O151 1.241 . S
C148 O141 1.247 . S
C148 O142 1.261 . S
C149 O144 1.259 . S
C149 O146 1.235 . S
O150 Co140 2.021 . S
O150 C147 1.238 . S
O151 Co145 2.052 . S
O151 C147 1.241 . S
O152 Co140 2.137 . S
O152 C143 1.247 . S
O153 Co140 2.244 . S
O153 C143 1.272 . S
O153 Co145 2.135 . S
Co154 O155 2.216 . S
Co154 O156 2.091 . S
Co154 O158 2.004 . S
Co154 O164 2.021 . S
Co154 O166 2.137 . S
Co154 O167 2.244 . S
O155 Co154 2.216 . S
O155 C162 1.247 . S
O156 Co154 2.091 . S
O156 C162 1.261 . S
C157 O166 1.247 . S
C157 O167 1.272 . S
O158 Co154 2.004 . S
O158 C163 1.259 1_554 S
Co159 O160 2.061 . S
Co159 O165 2.052 . S
Co159 O167 2.135 1_556 S
O160 Co159 2.061 . S
O160 C163 1.235 . S
C161 O164 1.238 1_556 S
C161 O165 1.241 . S
C162 O155 1.247 . S
C162 O156 1.261 . S
C163 O158 1.259 1_556 S
C163 O160 1.235 . S
O164 Co154 2.021 . S
O164 C161 1.238 1_554 S
O165 Co159 2.052 . S
O165 C161 1.241 . S
O166 Co154 2.137 . S
O166 C157 1.247 . S
O167 Co154 2.244 . S
O167 C157 1.272 . S
O167 Co159 2.135 1_554 S
Co168 O169 2.216 1_556 S
Co168 O170 2.091 . S
Co168 O172 2.004 . S
Co168 O178 2.021 1_556 S
Co168 O180 2.137 1_556 S
Co168 O181 2.244 1_556 S
O169 Co168 2.216 1_554 S
O169 C176 1.247 1_554 S
O170 Co168 2.091 . S
O170 C176 1.261 . S
C171 O180 1.247 . S
C171 O181 1.272 . S
O172 Co168 2.004 . S
O172 C177 1.259 . S
Co173 O174 2.061 . S
Co173 O179 2.052 . S
Co173 O181 2.135 . S
O174 Co173 2.061 . S
O174 C177 1.235 1_554 S
C175 O178 1.238 . S
C175 O179 1.241 . S
C176 O169 1.247 1_556 S
C176 O170 1.261 . S
C177 O172 1.259 . S
C177 O174 1.235 1_556 S
O178 Co168 2.021 1_554 S
O178 C175 1.238 . S
O179 Co173 2.052 . S
O179 C175 1.241 . S
O180 Co168 2.137 1_554 S
O180 C171 1.247 . S
O181 Co168 2.244 1_554 S
O181 C171 1.272 . S
O181 Co173 2.135 . S
Co182 O183 2.216 1_556 S
Co182 O184 2.091 . S
Co182 O186 2.004 . S
Co182 O192 2.021 1_556 S
Co182 O194 2.137 . S
Co182 O195 2.244 1_556 S
O183 Co182 2.216 1_554 S
O183 C190 1.247 1_554 S
O184 Co182 2.091 . S
O184 C190 1.261 . S
C185 O194 1.247 1_554 S
C185 O195 1.272 . S
O186 Co182 2.004 . S
O186 C191 1.259 . S
Co187 O188 2.061 . S
Co187 O193 2.052 . S
Co187 O195 2.135 . S
O188 Co187 2.061 . S
O188 C191 1.235 1_554 S
C189 O192 1.238 . S
C189 O193 1.241 . S
C190 O183 1.247 1_556 S
C190 O184 1.261 . S
C191 O186 1.259 . S
C191 O188 1.235 1_556 S
O192 Co182 2.021 1_554 S
O192 C189 1.238 . S
O193 Co187 2.052 . S
O193 C189 1.241 . S
O194 Co182 2.137 . S
O194 C185 1.247 1_556 S
O195 Co182 2.244 1_554 S
O195 C185 1.272 . S
O195 Co187 2.135 . S
Co196 O197 2.216 . S
Co196 O198 2.091 . S
Co196 O200 2.004 . S
Co196 O206 2.021 . S
Co196 O208 2.137 . S
Co196 O209 2.244 . S
O197 Co196 2.216 . S
O197 C204 1.247 . S
O198 Co196 2.091 . S
O198 C204 1.261 . S
C199 O208 1.247 . S
C199 O209 1.272 . S
O200 Co196 2.004 . S
O200 C205 1.259 . S
Co201 O202 2.061 . S
Co201 O207 2.052 . S
Co201 O209 2.135 . S
O202 Co201 2.061 . S
O202 C205 1.235 . S
C203 O206 1.238 . S
C203 O207 1.241 . S
C204 O197 1.247 . S
C204 O198 1.261 . S
C205 O200 1.259 . S
C205 O202 1.235 . S
O206 Co196 2.021 . S
O206 C203 1.238 . S
O207 Co201 2.052 . S
O207 C203 1.241 . S
O208 Co196 2.137 . S
O208 C199 1.247 . S
O209 Co196 2.244 . S
O209 C199 1.272 . S
O209 Co201 2.135 . S
Co210 O211 2.216 . S
Co210 O212 2.091 . S
Co210 O214 2.004 . S
Co210 O220 2.021 . S
Co210 O222 2.137 . S
Co210 O223 2.244 . S
O211 Co210 2.216 . S
O211 C218 1.247 . S
O212 Co210 2.091 . S
O212 C218 1.261 . S
C213 O222 1.247 . S
C213 O223 1.272 . S
O214 Co210 2.004 . S
O214 C219 1.259 . S
Co215 O216 2.061 . S
Co215 O221 2.052 . S
Co215 O223 2.135 . S
O216 Co215 2.061 . S
O216 C219 1.235 . S
C217 O220 1.238 . S
C217 O221 1.241 . S
C218 O211 1.247 . S
C218 O212 1.261 . S
C219 O214 1.259 . S
C219 O216 1.235 . S
O220 Co210 2.021 . S
O220 C217 1.238 . S
O221 Co215 2.052 . S
O221 C217 1.241 . S
O222 Co210 2.137 . S
O222 C213 1.247 . S
O223 Co210 2.244 . S
O223 C213 1.272 . S
O223 Co215 2.135 . S
Co224 O225 2.216 1_545 S
Co224 O226 2.091 1_545 S
Co224 O228 2.004 . S
Co224 O234 2.021 . S
Co224 O236 2.137 1_545 S
Co224 O237 2.244 1_545 S
O225 Co224 2.216 1_565 S
O225 C232 1.247 . S
O226 Co224 2.091 1_565 S
O226 C232 1.261 . S
C227 O236 1.247 . S
C227 O237 1.272 . S
O228 Co224 2.004 . S
O228 C233 1.259 . S
Co229 O230 2.061 . S
Co229 O235 2.052 . S
Co229 O237 2.135 1_545 S
O230 Co229 2.061 . S
O230 C233 1.235 . S
C231 O234 1.238 . S
C231 O235 1.241 . S
C232 O225 1.247 . S
C232 O226 1.261 . S
C233 O228 1.259 . S
C233 O230 1.235 . S
O234 Co224 2.021 . S
O234 C231 1.238 . S
O235 Co229 2.052 . S
O235 C231 1.241 . S
O236 Co224 2.137 1_565 S
O236 C227 1.247 . S
O237 Co224 2.244 1_565 S
O237 C227 1.272 . S
O237 Co229 2.135 1_565 S
Co238 O239 2.216 . S
Co238 O240 2.091 . S
Co238 O242 2.004 . S
Co238 O248 2.021 . S
Co238 O250 2.137 . S
Co238 O251 2.244 . S
O239 Co238 2.216 . S
O239 C246 1.247 . S
O240 Co238 2.091 . S
O240 C246 1.261 . S
C241 O250 1.247 . S
C241 O251 1.272 . S
O242 Co238 2.004 . S
O242 C247 1.259 . S
Co243 O244 2.061 . S
Co243 O249 2.052 . S
Co243 O251 2.135 . S
O244 Co243 2.061 . S
O244 C247 1.235 . S
C245 O248 1.238 . S
C245 O249 1.241 . S
C246 O239 1.247 . S
C246 O240 1.261 . S
C247 O242 1.259 . S
C247 O244 1.235 . S
O248 Co238 2.021 . S
O248 C245 1.238 . S
O249 Co243 2.052 . S
O249 C245 1.241 . S
O250 Co238 2.137 . S
O250 C241 1.247 . S
O251 Co238 2.244 . S
O251 C241 1.272 . S
O251 Co243 2.135 . S
Co252 O253 2.216 . S
Co252 O254 2.091 . S
Co252 O256 2.004 . S
Co252 O262 2.021 . S
Co252 O264 2.137 . S
Co252 O265 2.244 . S
O253 Co252 2.216 . S
O253 C260 1.247 . S
O254 Co252 2.091 . S
O254 C260 1.261 . S
C255 O264 1.247 . S
C255 O265 1.272 . S
O256 Co252 2.004 . S
O256 C261 1.259 . S
Co257 O258 2.061 . S
Co257 O263 2.052 . S
Co257 O265 2.135 . S
O258 Co257 2.061 . S
O258 C261 1.235 . S
C259 O262 1.238 . S
C259 O263 1.241 . S
C260 O253 1.247 . S
C260 O254 1.261 . S
C261 O256 1.259 . S
C261 O258 1.235 . S
O262 Co252 2.021 . S
O262 C259 1.238 . S
O263 Co257 2.052 . S
O263 C259 1.241 . S
O264 Co252 2.137 . S
O264 C255 1.247 . S
O265 Co252 2.244 . S
O265 C255 1.272 . S
O265 Co257 2.135 . S
Co266 O267 2.216 . S
Co266 O268 2.091 . S
Co266 O270 2.004 . S
Co266 O276 2.021 . S
Co266 O278 2.137 . S
Co266 O279 2.244 . S
O267 Co266 2.216 . S
O267 C274 1.247 . S
O268 Co266 2.091 . S
O268 C274 1.261 . S
C269 O278 1.247 . S
C269 O279 1.272 . S
O270 Co266 2.004 . S
O270 C275 1.259 . S
Co271 O272 2.061 . S
Co271 O277 2.052 . S
Co271 O279 2.135 . S
O272 Co271 2.061 . S
O272 C275 1.235 . S
C273 O276 1.238 . S
C273 O277 1.241 . S
C274 O267 1.247 . S
C274 O268 1.261 . S
C275 O270 1.259 . S
C275 O272 1.235 . S
O276 Co266 2.021 . S
O276 C273 1.238 . S
O277 Co271 2.052 . S
O277 C273 1.241 . S
O278 Co266 2.137 . S
O278 C269 1.247 . S
O279 Co266 2.244 . S
O279 C269 1.272 . S
O279 Co271 2.135 . S
Co280 O281 2.216 . S
Co280 O282 2.091 . S
Co280 O284 2.004 1_554 S
Co280 O290 2.021 1_554 S
Co280 O292 2.137 . S
Co280 O293 2.244 . S
O281 Co280 2.216 . S
O281 C288 1.247 . S
O282 Co280 2.091 . S
O282 C288 1.261 . S
C283 O292 1.247 . S
C283 O293 1.272 . S
O284 Co280 2.004 1_556 S
O284 C289 1.259 . S
Co285 O286 2.061 . S
Co285 O291 2.052 . S
Co285 O293 2.135 1_556 S
O286 Co285 2.061 . S
O286 C289 1.235 . S
C287 O290 1.238 . S
C287 O291 1.241 . S
C288 O281 1.247 . S
C288 O282 1.261 . S
C289 O284 1.259 . S
C289 O286 1.235 . S
O290 Co280 2.021 1_556 S
O290 C287 1.238 . S
O291 Co285 2.052 . S
O291 C287 1.241 . S
O292 Co280 2.137 . S
O292 C283 1.247 . S
O293 Co280 2.244 . S
O293 C283 1.272 . S
O293 Co285 2.135 1_554 S
Co294 O295 2.216 . S
Co294 O296 2.091 . S
Co294 O298 2.004 . S
Co294 O304 2.021 . S
Co294 O306 2.137 . S
Co294 O307 2.244 . S
O295 Co294 2.216 . S
O295 C302 1.247 . S
O296 Co294 2.091 . S
O296 C302 1.261 . S
C297 O306 1.247 . S
C297 O307 1.272 . S
O298 Co294 2.004 . S
O298 C303 1.259 . S
Co299 O300 2.061 . S
Co299 O305 2.052 . S
Co299 O307 2.135 . S
O300 Co299 2.061 . S
O300 C303 1.235 . S
C301 O304 1.238 . S
C301 O305 1.241 . S
C302 O295 1.247 . S
C302 O296 1.261 . S
C303 O298 1.259 . S
C303 O300 1.235 . S
O304 Co294 2.021 . S
O304 C301 1.238 . S
O305 Co299 2.052 . S
O305 C301 1.241 . S
O306 Co294 2.137 . S
O306 C297 1.247 . S
O307 Co294 2.244 . S
O307 C297 1.272 . S
O307 Co299 2.135 . S
Co308 O309 2.216 . S
Co308 O310 2.091 . S
Co308 O312 2.004 . S
Co308 O318 2.021 . S
Co308 O320 2.137 . S
Co308 O321 2.244 . S
O309 Co308 2.216 . S
O309 C316 1.247 . S
O310 Co308 2.091 . S
O310 C316 1.261 . S
C311 O320 1.247 . S
C311 O321 1.272 . S
O312 Co308 2.004 . S
O312 C317 1.259 . S
Co313 O314 2.061 . S
Co313 O319 2.052 . S
Co313 O321 2.135 . S
O314 Co313 2.061 . S
O314 C317 1.235 . S
C315 O318 1.238 . S
C315 O319 1.241 . S
C316 O309 1.247 . S
C316 O310 1.261 . S
C317 O312 1.259 . S
C317 O314 1.235 . S
O318 Co308 2.021 . S
O318 C315 1.238 . S
O319 Co313 2.052 . S
O319 C315 1.241 . S
O320 Co308 2.137 . S
O320 C311 1.247 . S
O321 Co308 2.244 . S
O321 C311 1.272 . S
O321 Co313 2.135 . S
Co322 O323 2.216 . S
Co322 O324 2.091 . S
Co322 O326 2.004 . S
Co322 O332 2.021 . S
Co322 O334 2.137 . S
Co322 O335 2.244 . S
O323 Co322 2.216 . S
O323 C330 1.247 . S
O324 Co322 2.091 . S
O324 C330 1.261 . S
C325 O334 1.247 . S
C325 O335 1.272 . S
O326 Co322 2.004 . S
O326 C331 1.259 . S
Co327 O328 2.061 . S
Co327 O333 2.052 . S
Co327 O335 2.135 . S
O328 Co327 2.061 . S
O328 C331 1.235 . S
C329 O332 1.238 . S
C329 O333 1.241 . S
C330 O323 1.247 . S
C330 O324 1.261 . S
C331 O326 1.259 . S
C331 O328 1.235 . S
O332 Co322 2.021 . S
O332 C329 1.238 . S
O333 Co327 2.052 . S
O333 C329 1.241 . S
O334 Co322 2.137 . S
O334 C325 1.247 . S
O335 Co322 2.244 . S
O335 C325 1.272 . S
O335 Co327 2.135 . S
O336 Mn337 2.163 . S
O336 C350 1.244 . S
Mn337 O336 2.163 . S
Mn337 O340 2.160 . S
Mn337 O341 2.221 . S
Mn337 O343 2.163 . S
Mn337 O345 2.160 . S
Mn337 O355 2.221 . S
O338 Mn339 2.087 . S
O338 C350 1.256 . S
Mn339 O338 2.087 . S
Mn339 O346 2.089 . S
Mn339 O355 2.290 . S
Mn339 O356 2.251 . S
O340 Mn337 2.160 . S
O340 C351 1.239 . S
O341 Mn337 2.221 . S
O341 Mn342 2.290 . S
O341 C352 1.278 . S
Mn342 O341 2.290 . S
Mn342 O344 2.089 . S
Mn342 O347 2.251 . S
Mn342 O348 2.087 . S
O343 Mn337 2.163 . S
O343 C353 1.244 . S
O344 Mn342 2.089 . S
O344 C351 1.256 . S
O345 Mn337 2.160 . S
O345 C354 1.239 . S
O346 Mn339 2.089 . S
O346 C354 1.256 . S
O347 Mn342 2.251 . S
O347 C352 1.241 . S
O348 Mn342 2.087 . S
O348 C353 1.256 . S
C349 O355 1.278 . S
C349 O356 1.241 . S
C350 O336 1.244 . S
C350 O338 1.256 . S
C351 O340 1.239 . S
C351 O344 1.256 . S
C352 O341 1.278 . S
C352 O347 1.241 . S
C353 O343 1.244 . S
C353 O348 1.256 . S
C354 O345 1.239 . S
C354 O346 1.256 . S
O355 Mn337 2.221 . S
O355 Mn339 2.290 . S
O355 C349 1.278 . S
O356 Mn339 2.251 . S
O356 C349 1.241 . S
O357 Mn358 2.163 . S
O357 C371 1.244 . S
Mn358 O357 2.163 . S
Mn358 O361 2.160 . S
Mn358 O362 2.221 . S
Mn358 O364 2.163 . S
Mn358 O366 2.160 . S
Mn358 O376 2.221 . S
O359 Mn360 2.087 . S
O359 C371 1.256 . S
Mn360 O359 2.087 . S
Mn360 O367 2.089 . S
Mn360 O376 2.290 . S
Mn360 O377 2.251 . S
O361 Mn358 2.160 . S
O361 C372 1.239 . S
O362 Mn358 2.221 . S
O362 Mn363 2.290 . S
O362 C373 1.278 . S
Mn363 O362 2.290 . S
Mn363 O365 2.089 . S
Mn363 O368 2.251 . S
Mn363 O369 2.087 . S
O364 Mn358 2.163 . S
O364 C374 1.244 . S
O365 Mn363 2.089 . S
O365 C372 1.256 . S
O366 Mn358 2.160 . S
O366 C375 1.239 . S
O367 Mn360 2.089 . S
O367 C375 1.256 . S
O368 Mn363 2.251 . S
O368 C373 1.241 . S
O369 Mn363 2.087 . S
O369 C374 1.256 . S
C370 O376 1.278 . S
C370 O377 1.241 . S
C371 O357 1.244 . S
C371 O359 1.256 . S
C372 O361 1.239 . S
C372 O365 1.256 . S
C373 O362 1.278 . S
C373 O368 1.241 . S
C374 O364 1.244 . S
C374 O369 1.256 . S
C375 O366 1.239 . S
C375 O367 1.256 . S
O376 Mn358 2.221 . S
O376 Mn360 2.290 . S
O376 C370 1.278 . S
O377 Mn360 2.251 . S
O377 C370 1.241 . S
O378 Mn379 2.163 . S
O378 C392 1.244 . S
Mn379 O378 2.163 . S
Mn379 O382 2.160 . S
Mn379 O383 2.221 . S
Mn379 O385 2.163 . S
Mn379 O387 2.160 . S
Mn379 O397 2.221 . S
O380 Mn381 2.087 . S
O380 C392 1.256 . S
Mn381 O380 2.087 . S
Mn381 O388 2.089 . S
Mn381 O397 2.290 . S
Mn381 O398 2.251 . S
O382 Mn379 2.160 . S
O382 C393 1.239 . S
O383 Mn379 2.221 . S
O383 Mn384 2.290 . S
O383 C394 1.278 . S
Mn384 O383 2.290 . S
Mn384 O386 2.089 . S
Mn384 O389 2.251 . S
Mn384 O390 2.087 . S
O385 Mn379 2.163 . S
O385 C395 1.244 . S
O386 Mn384 2.089 . S
O386 C393 1.256 . S
O387 Mn379 2.160 . S
O387 C396 1.239 . S
O388 Mn381 2.089 . S
O388 C396 1.256 . S
O389 Mn384 2.251 . S
O389 C394 1.241 . S
O390 Mn384 2.087 . S
O390 C395 1.256 . S
C391 O397 1.278 . S
C391 O398 1.241 . S
C392 O378 1.244 . S
C392 O380 1.256 . S
C393 O382 1.239 . S
C393 O386 1.256 . S
C394 O383 1.278 . S
C394 O389 1.241 . S
C395 O385 1.244 . S
C395 O390 1.256 . S
C396 O387 1.239 . S
C396 O388 1.256 . S
O397 Mn379 2.221 . S
O397 Mn381 2.290 . S
O397 C391 1.278 . S
O398 Mn381 2.251 . S
O398 C391 1.241 . S
O399 Mn400 2.163 . S
O399 C413 1.244 . S
Mn400 O399 2.163 . S
Mn400 O403 2.160 . S
Mn400 O404 2.221 . S
Mn400 O406 2.163 . S
Mn400 O408 2.160 . S
Mn400 O418 2.221 . S
O401 Mn402 2.087 . S
O401 C413 1.256 . S
Mn402 O401 2.087 . S
Mn402 O409 2.089 . S
Mn402 O418 2.290 . S
Mn402 O419 2.251 . S
O403 Mn400 2.160 . S
O403 C414 1.239 . S
O404 Mn400 2.221 . S
O404 Mn405 2.290 . S
O404 C415 1.278 . S
Mn405 O404 2.290 . S
Mn405 O407 2.089 . S
Mn405 O410 2.251 . S
Mn405 O411 2.087 . S
O406 Mn400 2.163 . S
O406 C416 1.244 . S
O407 Mn405 2.089 . S
O407 C414 1.256 . S
O408 Mn400 2.160 . S
O408 C417 1.239 . S
O409 Mn402 2.089 . S
O409 C417 1.256 . S
O410 Mn405 2.251 . S
O410 C415 1.241 . S
O411 Mn405 2.087 . S
O411 C416 1.256 . S
C412 O418 1.278 . S
C412 O419 1.241 . S
C413 O399 1.244 . S
C413 O401 1.256 . S
C414 O403 1.239 . S
C414 O407 1.256 . S
C415 O404 1.278 . S
C415 O410 1.241 . S
C416 O406 1.244 . S
C416 O411 1.256 . S
C417 O408 1.239 . S
C417 O409 1.256 . S
O418 Mn400 2.221 . S
O418 Mn402 2.290 . S
O418 C412 1.278 . S
O419 Mn402 2.251 . S
O419 C412 1.241 . S
O420 Mn421 2.163 . S
O420 C434 1.244 . S
Mn421 O420 2.163 . S
Mn421 O424 2.160 . S
Mn421 O425 2.221 . S
Mn421 O427 2.163 . S
Mn421 O429 2.160 . S
Mn421 O439 2.221 . S
O422 Mn423 2.087 . S
O422 C434 1.256 . S
Mn423 O422 2.087 . S
Mn423 O430 2.089 . S
Mn423 O439 2.290 . S
Mn423 O440 2.251 . S
O424 Mn421 2.160 . S
O424 C435 1.239 . S
O425 Mn421 2.221 . S
O425 Mn426 2.290 . S
O425 C436 1.278 . S
Mn426 O425 2.290 . S
Mn426 O428 2.089 . S
Mn426 O431 2.251 . S
Mn426 O432 2.087 . S
O427 Mn421 2.163 . S
O427 C437 1.244 . S
O428 Mn426 2.089 . S
O428 C435 1.256 . S
O429 Mn421 2.160 . S
O429 C438 1.239 . S
O430 Mn423 2.089 . S
O430 C438 1.256 . S
O431 Mn426 2.251 . S
O431 C436 1.241 . S
O432 Mn426 2.087 . S
O432 C437 1.256 . S
C433 O439 1.278 . S
C433 O440 1.241 . S
C434 O420 1.244 . S
C434 O422 1.256 . S
C435 O424 1.239 . S
C435 O428 1.256 . S
C436 O425 1.278 . S
C436 O431 1.241 . S
C437 O427 1.244 . S
C437 O432 1.256 . S
C438 O429 1.239 . S
C438 O430 1.256 . S
O439 Mn421 2.221 . S
O439 Mn423 2.290 . S
O439 C433 1.278 . S
O440 Mn423 2.251 . S
O440 C433 1.241 . S
O441 Mn442 2.163 . S
O441 C455 1.244 . S
Mn442 O441 2.163 . S
Mn442 O445 2.160 . S
Mn442 O446 2.221 . S
Mn442 O448 2.163 . S
Mn442 O450 2.160 . S
Mn442 O460 2.221 . S
O443 Mn444 2.087 . S
O443 C455 1.256 . S
Mn444 O443 2.087 . S
Mn444 O451 2.089 . S
Mn444 O460 2.290 . S
Mn444 O461 2.251 . S
O445 Mn442 2.160 . S
O445 C456 1.239 . S
O446 Mn442 2.221 . S
O446 Mn447 2.290 . S
O446 C457 1.278 . S
Mn447 O446 2.290 . S
Mn447 O449 2.089 . S
Mn447 O452 2.251 . S
Mn447 O453 2.087 . S
O448 Mn442 2.163 . S
O448 C458 1.244 . S
O449 Mn447 2.089 . S
O449 C456 1.256 . S
O450 Mn442 2.160 . S
O450 C459 1.239 . S
O451 Mn444 2.089 . S
O451 C459 1.256 . S
O452 Mn447 2.251 . S
O452 C457 1.241 . S
O453 Mn447 2.087 . S
O453 C458 1.256 . S
C454 O460 1.278 . S
C454 O461 1.241 . S
C455 O441 1.244 . S
C455 O443 1.256 . S
C456 O445 1.239 . S
C456 O449 1.256 . S
C457 O446 1.278 . S
C457 O452 1.241 . S
C458 O448 1.244 . S
C458 O453 1.256 . S
C459 O450 1.239 . S
C459 O451 1.256 . S
O460 Mn442 2.221 . S
O460 Mn444 2.290 . S
O460 C454 1.278 . S
O461 Mn444 2.251 . S
O461 C454 1.241 . S
O462 Mn463 2.163 . S
O462 C476 1.244 . S
Mn463 O462 2.163 . S
Mn463 O466 2.160 . S
Mn463 O467 2.221 . S
Mn463 O469 2.163 . S
Mn463 O471 2.160 . S
Mn463 O481 2.221 . S
O464 Mn465 2.087 . S
O464 C476 1.256 . S
Mn465 O464 2.087 . S
Mn465 O472 2.089 . S
Mn465 O481 2.290 . S
Mn465 O482 2.251 . S
O466 Mn463 2.160 . S
O466 C477 1.239 . S
O467 Mn463 2.221 . S
O467 Mn468 2.290 . S
O467 C478 1.278 . S
Mn468 O467 2.290 . S
Mn468 O470 2.089 . S
Mn468 O473 2.251 . S
Mn468 O474 2.087 . S
O469 Mn463 2.163 . S
O469 C479 1.244 . S
O470 Mn468 2.089 . S
O470 C477 1.256 . S
O471 Mn463 2.160 . S
O471 C480 1.239 . S
O472 Mn465 2.089 . S
O472 C480 1.256 . S
O473 Mn468 2.251 . S
O473 C478 1.241 . S
O474 Mn468 2.087 . S
O474 C479 1.256 . S
C475 O481 1.278 . S
C475 O482 1.241 . S
C476 O462 1.244 . S
C476 O464 1.256 . S
C477 O466 1.239 . S
C477 O470 1.256 . S
C478 O467 1.278 . S
C478 O473 1.241 . S
C479 O469 1.244 . S
C479 O474 1.256 . S
C480 O471 1.239 . S
C480 O472 1.256 . S
O481 Mn463 2.221 . S
O481 Mn465 2.290 . S
O481 C475 1.278 . S
O482 Mn465 2.251 . S
O482 C475 1.241 . S
O483 Mn484 2.163 . S
O483 C497 1.244 . S
Mn484 O483 2.163 . S
Mn484 O487 2.160 . S
Mn484 O488 2.221 . S
Mn484 O490 2.163 . S
Mn484 O492 2.160 . S
Mn484 O502 2.221 . S
O485 Mn486 2.087 . S
O485 C497 1.256 . S
Mn486 O485 2.087 . S
Mn486 O493 2.089 . S
Mn486 O502 2.290 . S
Mn486 O503 2.251 . S
O487 Mn484 2.160 . S
O487 C498 1.239 . S
O488 Mn484 2.221 . S
O488 Mn489 2.290 . S
O488 C499 1.278 . S
Mn489 O488 2.290 . S
Mn489 O491 2.089 . S
Mn489 O494 2.251 . S
Mn489 O495 2.087 . S
O490 Mn484 2.163 . S
O490 C500 1.244 . S
O491 Mn489 2.089 . S
O491 C498 1.256 . S
O492 Mn484 2.160 . S
O492 C501 1.239 . S
O493 Mn486 2.089 . S
O493 C501 1.256 . S
O494 Mn489 2.251 . S
O494 C499 1.241 . S
O495 Mn489 2.087 . S
O495 C500 1.256 . S
C496 O502 1.278 . S
C496 O503 1.241 . S
C497 O483 1.244 . S
C497 O485 1.256 . S
C498 O487 1.239 . S
C498 O491 1.256 . S
C499 O488 1.278 . S
C499 O494 1.241 . S
C500 O490 1.244 . S
C500 O495 1.256 . S
C501 O492 1.239 . S
C501 O493 1.256 . S
O502 Mn484 2.221 . S
O502 Mn486 2.290 . S
O502 C496 1.278 . S
O503 Mn486 2.251 . S
O503 C496 1.241 . S
O504 Mn505 2.163 . S
O504 C518 1.244 . S
Mn505 O504 2.163 . S
Mn505 O508 2.160 . S
Mn505 O509 2.221 . S
Mn505 O511 2.163 . S
Mn505 O513 2.160 . S
Mn505 O523 2.221 . S
O506 Mn507 2.087 . S
O506 C518 1.256 . S
Mn507 O506 2.087 . S
Mn507 O514 2.089 . S
Mn507 O523 2.290 . S
Mn507 O524 2.251 . S
O508 Mn505 2.160 . S
O508 C519 1.239 . S
O509 Mn505 2.221 . S
O509 Mn510 2.290 . S
O509 C520 1.278 . S
Mn510 O509 2.290 . S
Mn510 O512 2.089 . S
Mn510 O515 2.251 . S
Mn510 O516 2.087 . S
O511 Mn505 2.163 . S
O511 C521 1.244 . S
O512 Mn510 2.089 . S
O512 C519 1.256 . S
O513 Mn505 2.160 . S
O513 C522 1.239 . S
O514 Mn507 2.089 . S
O514 C522 1.256 . S
O515 Mn510 2.251 . S
O515 C520 1.241 . S
O516 Mn510 2.087 . S
O516 C521 1.256 . S
C517 O523 1.278 . S
C517 O524 1.241 . S
C518 O504 1.244 . S
C518 O506 1.256 . S
C519 O508 1.239 . S
C519 O512 1.256 . S
C520 O509 1.278 . S
C520 O515 1.241 . S
C521 O511 1.244 . S
C521 O516 1.256 . S
C522 O513 1.239 . S
C522 O514 1.256 . S
O523 Mn505 2.221 . S
O523 Mn507 2.290 . S
O523 C517 1.278 . S
O524 Mn507 2.251 . S
O524 C517 1.241 . S
O525 Mn526 2.163 . S
O525 C539 1.244 . S
Mn526 O525 2.163 . S
Mn526 O529 2.160 . S
Mn526 O530 2.221 . S
Mn526 O532 2.163 . S
Mn526 O534 2.160 . S
Mn526 O544 2.221 . S
O527 Mn528 2.087 . S
O527 C539 1.256 . S
Mn528 O527 2.087 . S
Mn528 O535 2.089 . S
Mn528 O544 2.290 . S
Mn528 O545 2.251 . S
O529 Mn526 2.160 . S
O529 C540 1.239 . S
O530 Mn526 2.221 . S
O530 Mn531 2.290 . S
O530 C541 1.278 . S
Mn531 O530 2.290 . S
Mn531 O533 2.089 . S
Mn531 O536 2.251 . S
Mn531 O537 2.087 . S
O532 Mn526 2.163 . S
O532 C542 1.244 . S
O533 Mn531 2.089 . S
O533 C540 1.256 . S
O534 Mn526 2.160 . S
O534 C543 1.239 . S
O535 Mn528 2.089 . S
O535 C543 1.256 . S
O536 Mn531 2.251 . S
O536 C541 1.241 . S
O537 Mn531 2.087 . S
O537 C542 1.256 . S
C538 O544 1.278 . S
C538 O545 1.241 . S
C539 O525 1.244 . S
C539 O527 1.256 . S
C540 O529 1.239 . S
C540 O533 1.256 . S
C541 O530 1.278 . S
C541 O536 1.241 . S
C542 O532 1.244 . S
C542 O537 1.256 . S
C543 O534 1.239 . S
C543 O535 1.256 . S
O544 Mn526 2.221 . S
O544 Mn528 2.290 . S
O544 C538 1.278 . S
O545 Mn528 2.251 . S
O545 C538 1.241 . S
O546 Mn547 2.163 . S
O546 C560 1.244 . S
Mn547 O546 2.163 . S
Mn547 O550 2.160 . S
Mn547 O551 2.221 . S
Mn547 O553 2.163 . S
Mn547 O555 2.160 . S
Mn547 O565 2.221 . S
O548 Mn549 2.087 . S
O548 C560 1.256 . S
Mn549 O548 2.087 . S
Mn549 O556 2.089 . S
Mn549 O565 2.290 . S
Mn549 O566 2.251 . S
O550 Mn547 2.160 . S
O550 C561 1.239 . S
O551 Mn547 2.221 . S
O551 Mn552 2.290 . S
O551 C562 1.278 . S
Mn552 O551 2.290 . S
Mn552 O554 2.089 . S
Mn552 O557 2.251 . S
Mn552 O558 2.087 . S
O553 Mn547 2.163 . S
O553 C563 1.244 . S
O554 Mn552 2.089 . S
O554 C561 1.256 . S
O555 Mn547 2.160 . S
O555 C564 1.239 . S
O556 Mn549 2.089 . S
O556 C564 1.256 . S
O557 Mn552 2.251 . S
O557 C562 1.241 . S
O558 Mn552 2.087 . S
O558 C563 1.256 . S
C559 O565 1.278 . S
C559 O566 1.241 . S
C560 O546 1.244 . S
C560 O548 1.256 . S
C561 O550 1.239 . S
C561 O554 1.256 . S
C562 O551 1.278 . S
C562 O557 1.241 . S
C563 O553 1.244 . S
C563 O558 1.256 . S
C564 O555 1.239 . S
C564 O556 1.256 . S
O565 Mn547 2.221 . S
O565 Mn549 2.290 . S
O565 C559 1.278 . S
O566 Mn549 2.251 . S
O566 C559 1.241 . S
O567 Mn568 2.163 . S
O567 C581 1.244 . S
Mn568 O567 2.163 . S
Mn568 O571 2.160 . S
Mn568 O572 2.221 . S
Mn568 O574 2.163 . S
Mn568 O576 2.160 . S
Mn568 O586 2.221 . S
O569 Mn570 2.087 . S
O569 C581 1.256 . S
Mn570 O569 2.087 . S
Mn570 O577 2.089 . S
Mn570 O586 2.290 . S
Mn570 O587 2.251 . S
O571 Mn568 2.160 . S
O571 C582 1.239 . S
O572 Mn568 2.221 . S
O572 Mn573 2.290 . S
O572 C583 1.278 . S
Mn573 O572 2.290 . S
Mn573 O575 2.089 . S
Mn573 O578 2.251 . S
Mn573 O579 2.087 . S
O574 Mn568 2.163 . S
O574 C584 1.244 . S
O575 Mn573 2.089 . S
O575 C582 1.256 . S
O576 Mn568 2.160 . S
O576 C585 1.239 . S
O577 Mn570 2.089 . S
O577 C585 1.256 . S
O578 Mn573 2.251 . S
O578 C583 1.241 . S
O579 Mn573 2.087 . S
O579 C584 1.256 . S
C580 O586 1.278 . S
C580 O587 1.241 . S
C581 O567 1.244 . S
C581 O569 1.256 . S
C582 O571 1.239 . S
C582 O575 1.256 . S
C583 O572 1.278 . S
C583 O578 1.241 . S
C584 O574 1.244 . S
C584 O579 1.256 . S
C585 O576 1.239 . S
C585 O577 1.256 . S
O586 Mn568 2.221 . S
O586 Mn570 2.290 . S
O586 C580 1.278 . S
O587 Mn570 2.251 . S
O587 C580 1.241 . S
O588 Mn589 2.163 . S
O588 C602 1.244 . S
Mn589 O588 2.163 . S
Mn589 O592 2.160 . S
Mn589 O593 2.221 . S
Mn589 O595 2.163 . S
Mn589 O597 2.160 . S
Mn589 O607 2.221 . S
O590 Mn591 2.087 . S
O590 C602 1.256 . S
Mn591 O590 2.087 . S
Mn591 O598 2.089 . S
Mn591 O607 2.290 . S
Mn591 O608 2.251 . S
O592 Mn589 2.160 . S
O592 C603 1.239 . S
O593 Mn589 2.221 . S
O593 Mn594 2.290 . S
O593 C604 1.278 . S
Mn594 O593 2.290 . S
Mn594 O596 2.089 . S
Mn594 O599 2.251 . S
Mn594 O600 2.087 . S
O595 Mn589 2.163 . S
O595 C605 1.244 . S
O596 Mn594 2.089 . S
O596 C603 1.256 . S
O597 Mn589 2.160 . S
O597 C606 1.239 . S
O598 Mn591 2.089 . S
O598 C606 1.256 . S
O599 Mn594 2.251 . S
O599 C604 1.241 . S
O600 Mn594 2.087 . S
O600 C605 1.256 . S
C601 O607 1.278 . S
C601 O608 1.241 . S
C602 O588 1.244 . S
C602 O590 1.256 . S
C603 O592 1.239 . S
C603 O596 1.256 . S
C604 O593 1.278 . S
C604 O599 1.241 . S
C605 O595 1.244 . S
C605 O600 1.256 . S
C606 O597 1.239 . S
C606 O598 1.256 . S
O607 Mn589 2.221 . S
O607 Mn591 2.290 . S
O607 C601 1.278 . S
O608 Mn591 2.251 . S
O608 C601 1.241 . S
O609 Mn610 2.163 . S
O609 C623 1.244 . S
Mn610 O609 2.163 . S
Mn610 O613 2.160 . S
Mn610 O614 2.221 . S
Mn610 O616 2.163 . S
Mn610 O618 2.160 . S
Mn610 O628 2.221 . S
O611 Mn612 2.087 . S
O611 C623 1.256 . S
Mn612 O611 2.087 . S
Mn612 O619 2.089 . S
Mn612 O628 2.290 . S
Mn612 O629 2.251 . S
O613 Mn610 2.160 . S
O613 C624 1.239 . S
O614 Mn610 2.221 . S
O614 Mn615 2.290 . S
O614 C625 1.278 . S
Mn615 O614 2.290 . S
Mn615 O617 2.089 . S
Mn615 O620 2.251 . S
Mn615 O621 2.087 . S
O616 Mn610 2.163 . S
O616 C626 1.244 . S
O617 Mn615 2.089 . S
O617 C624 1.256 . S
O618 Mn610 2.160 . S
O618 C627 1.239 . S
O619 Mn612 2.089 . S
O619 C627 1.256 . S
O620 Mn615 2.251 . S
O620 C625 1.241 . S
O621 Mn615 2.087 . S
O621 C626 1.256 . S
C622 O628 1.278 . S
C622 O629 1.241 . S
C623 O609 1.244 . S
C623 O611 1.256 . S
C624 O613 1.239 . S
C624 O617 1.256 . S
C625 O614 1.278 . S
C625 O620 1.241 . S
C626 O616 1.244 . S
C626 O621 1.256 . S
C627 O618 1.239 . S
C627 O619 1.256 . S
O628 Mn610 2.221 . S
O628 Mn612 2.290 . S
O628 C622 1.278 . S
O629 Mn612 2.251 . S
O629 C622 1.241 . S
O630 Mn631 2.163 . S
O630 C644 1.244 . S
Mn631 O630 2.163 . S
Mn631 O634 2.160 . S
Mn631 O635 2.221 . S
Mn631 O637 2.163 . S
Mn631 O639 2.160 . S
Mn631 O649 2.221 . S
O632 Mn633 2.087 . S
O632 C644 1.256 . S
Mn633 O632 2.087 . S
Mn633 O640 2.089 . S
Mn633 O649 2.290 . S
Mn633 O650 2.251 . S
O634 Mn631 2.160 . S
O634 C645 1.239 . S
O635 Mn631 2.221 . S
O635 Mn636 2.290 . S
O635 C646 1.278 . S
Mn636 O635 2.290 . S
Mn636 O638 2.089 . S
Mn636 O641 2.251 . S
Mn636 O642 2.087 . S
O637 Mn631 2.163 . S
O637 C647 1.244 . S
O638 Mn636 2.089 . S
O638 C645 1.256 . S
O639 Mn631 2.160 . S
O639 C648 1.239 . S
O640 Mn633 2.089 . S
O640 C648 1.256 . S
O641 Mn636 2.251 . S
O641 C646 1.241 . S
O642 Mn636 2.087 . S
O642 C647 1.256 . S
C643 O649 1.278 . S
C643 O650 1.241 . S
C644 O630 1.244 . S
C644 O632 1.256 . S
C645 O634 1.239 . S
C645 O638 1.256 . S
C646 O635 1.278 . S
C646 O641 1.241 . S
C647 O637 1.244 . S
C647 O642 1.256 . S
C648 O639 1.239 . S
C648 O640 1.256 . S
O649 Mn631 2.221 . S
O649 Mn633 2.290 . S
O649 C643 1.278 . S
O650 Mn633 2.251 . S
O650 C643 1.241 . S
O651 Mn652 2.163 . S
O651 C665 1.244 . S
Mn652 O651 2.163 . S
Mn652 O655 2.160 . S
Mn652 O656 2.221 . S
Mn652 O658 2.163 . S
Mn652 O660 2.160 . S
Mn652 O670 2.221 . S
O653 Mn654 2.087 . S
O653 C665 1.256 . S
Mn654 O653 2.087 . S
Mn654 O661 2.089 . S
Mn654 O670 2.290 . S
Mn654 O671 2.251 . S
O655 Mn652 2.160 . S
O655 C666 1.239 . S
O656 Mn652 2.221 . S
O656 Mn657 2.290 . S
O656 C667 1.278 . S
Mn657 O656 2.290 . S
Mn657 O659 2.089 . S
Mn657 O662 2.251 . S
Mn657 O663 2.087 . S
O658 Mn652 2.163 . S
O658 C668 1.244 . S
O659 Mn657 2.089 . S
O659 C666 1.256 . S
O660 Mn652 2.160 . S
O660 C669 1.239 . S
O661 Mn654 2.089 . S
O661 C669 1.256 . S
O662 Mn657 2.251 . S
O662 C667 1.241 . S
O663 Mn657 2.087 . S
O663 C668 1.256 . S
C664 O670 1.278 . S
C664 O671 1.241 . S
C665 O651 1.244 . S
C665 O653 1.256 . S
C666 O655 1.239 . S
C666 O659 1.256 . S
C667 O656 1.278 . S
C667 O662 1.241 . S
C668 O658 1.244 . S
C668 O663 1.256 . S
C669 O660 1.239 . S
C669 O661 1.256 . S
O670 Mn652 2.221 . S
O670 Mn654 2.290 . S
O670 C664 1.278 . S
O671 Mn654 2.251 . S
O671 C664 1.241 . S
H672 C678 0.930 . S
H673 C682 0.930 . S
H674 C687 0.929 . S
H675 C685 0.929 . S
H676 C680 0.929 . S
H677 C686 0.929 . S
C678 H672 0.930 . S
C678 C679 1.367 . S
C678 C686 1.378 . S
C679 C678 1.367 . S
C679 C687 1.433 . S
C680 H676 0.929 . S
C680 C682 1.378 . S
C680 C684 1.350 . S
C681 C684 1.463 . S
C681 C686 1.350 . S
C681 N689 1.427 . S
C682 H673 0.930 . S
C682 C680 1.378 . S
C682 C683 1.367 . S
C683 C682 1.367 . S
C683 C685 1.433 . S
C684 C680 1.350 . S
C684 C681 1.463 . S
C684 N688 1.427 . S
C685 H675 0.929 . S
C685 C683 1.433 . S
C685 N688 1.384 . S
C686 H677 0.929 . S
C686 C678 1.378 . S
C686 C681 1.350 . S
C687 H674 0.929 . S
C687 C679 1.433 . S
C687 N689 1.384 . S
N688 C684 1.427 . S
N688 C685 1.384 . S
N689 C681 1.427 . S
N689 C687 1.384 . S
H690 C696 0.930 . S
H691 C700 0.930 . S
H692 C705 0.929 . S
H693 C703 0.929 . S
H694 C698 0.929 . S
H695 C704 0.929 . S
C696 H690 0.930 . S
C696 C697 1.367 . S
C696 C704 1.378 . S
C697 C696 1.367 . S
C697 C705 1.433 . S
C698 H694 0.929 . S
C698 C700 1.378 . S
C698 C702 1.350 . S
C699 C702 1.463 . S
C699 C704 1.350 . S
C699 N707 1.427 . S
C700 H691 0.930 . S
C700 C698 1.378 . S
C700 C701 1.367 . S
C701 C700 1.367 . S
C701 C703 1.433 . S
C702 C698 1.350 . S
C702 C699 1.463 . S
C702 N706 1.427 . S
C703 H693 0.929 . S
C703 C701 1.433 . S
C703 N706 1.384 . S
C704 H695 0.929 . S
C704 C696 1.378 . S
C704 C699 1.350 . S
C705 H692 0.929 . S
C705 C697 1.433 . S
C705 N707 1.384 . S
N706 C702 1.427 . S
N706 C703 1.384 . S
N707 C699 1.427 . S
N707 C705 1.384 . S
H708 C714 0.930 . S
H709 C718 0.930 . S
H710 C723 0.929 . S
H711 C721 0.929 . S
H712 C716 0.929 . S
H713 C722 0.929 . S
C714 H708 0.930 . S
C714 C715 1.367 . S
C714 C722 1.378 . S
C715 C714 1.367 . S
C715 C723 1.433 . S
C716 H712 0.929 . S
C716 C718 1.378 . S
C716 C720 1.350 . S
C717 C720 1.463 . S
C717 C722 1.350 . S
C717 N725 1.427 . S
C718 H709 0.930 . S
C718 C716 1.378 . S
C718 C719 1.367 . S
C719 C718 1.367 . S
C719 C721 1.433 . S
C720 C716 1.350 . S
C720 C717 1.463 . S
C720 N724 1.427 . S
C721 H711 0.929 . S
C721 C719 1.433 . S
C721 N724 1.384 . S
C722 H713 0.929 . S
C722 C714 1.378 . S
C722 C717 1.350 . S
C723 H710 0.929 . S
C723 C715 1.433 . S
C723 N725 1.384 . S
N724 C720 1.427 . S
N724 C721 1.384 . S
N725 C717 1.427 . S
N725 C723 1.384 . S
H726 C732 0.930 . S
H727 C736 0.930 . S
H728 C741 0.929 . S
H729 C739 0.929 . S
H730 C734 0.929 . S
H731 C740 0.929 . S
C732 H726 0.930 . S
C732 C733 1.367 . S
C732 C740 1.378 . S
C733 C732 1.367 . S
C733 C741 1.433 . S
C734 H730 0.929 . S
C734 C736 1.378 1_554 S
C734 C738 1.350 . S
C735 C738 1.463 . S
C735 C740 1.350 . S
C735 N743 1.427 . S
C736 H727 0.930 . S
C736 C734 1.378 1_556 S
C736 C737 1.367 . S
C737 C736 1.367 . S
C737 C739 1.433 . S
C738 C734 1.350 . S
C738 C735 1.463 . S
C738 N742 1.427 1_554 S
C739 H729 0.929 . S
C739 C737 1.433 . S
C739 N742 1.384 . S
C740 H731 0.929 . S
C740 C732 1.378 . S
C740 C735 1.350 . S
C741 H728 0.929 . S
C741 C733 1.433 . S
C741 N743 1.384 . S
N742 C738 1.427 1_556 S
N742 C739 1.384 . S
N743 C735 1.427 . S
N743 C741 1.384 . S
H744 C750 0.930 . S
H745 C754 0.930 . S
H746 C759 0.929 . S
H747 C757 0.929 . S
H748 C752 0.929 . S
H749 C758 0.929 . S
C750 H744 0.930 . S
C750 C751 1.367 . S
C750 C758 1.378 . S
C751 C750 1.367 . S
C751 C759 1.433 . S
C752 H748 0.929 . S
C752 C754 1.378 . S
C752 C756 1.350 . S
C753 C756 1.463 . S
C753 C758 1.350 . S
C753 N761 1.427 . S
C754 H745 0.930 . S
C754 C752 1.378 . S
C754 C755 1.367 . S
C755 C754 1.367 . S
C755 C757 1.433 . S
C756 C752 1.350 . S
C756 C753 1.463 . S
C756 N760 1.427 . S
C757 H747 0.929 . S
C757 C755 1.433 . S
C757 N760 1.384 . S
C758 H749 0.929 . S
C758 C750 1.378 . S
C758 C753 1.350 . S
C759 H746 0.929 . S
C759 C751 1.433 . S
C759 N761 1.384 . S
N760 C756 1.427 . S
N760 C757 1.384 . S
N761 C753 1.427 . S
N761 C759 1.384 . S
H762 C768 0.930 . S
H763 C772 0.930 . S
H764 C777 0.929 . S
H765 C775 0.929 . S
H766 C770 0.929 . S
H767 C776 0.929 . S
C768 H762 0.930 . S
C768 C769 1.367 . S
C768 C776 1.378 . S
C769 C768 1.367 . S
C769 C777 1.433 . S
C770 H766 0.929 . S
C770 C772 1.378 . S
C770 C774 1.350 . S
C771 C774 1.463 . S
C771 C776 1.350 . S
C771 N779 1.427 . S
C772 H763 0.930 . S
C772 C770 1.378 . S
C772 C773 1.367 . S
C773 C772 1.367 . S
C773 C775 1.433 . S
C774 C770 1.350 . S
C774 C771 1.463 . S
C774 N778 1.427 . S
C775 H765 0.929 . S
C775 C773 1.433 . S
C775 N778 1.384 . S
C776 H767 0.929 . S
C776 C768 1.378 . S
C776 C771 1.350 . S
C777 H764 0.929 . S
C777 C769 1.433 . S
C777 N779 1.384 . S
N778 C774 1.427 . S
N778 C775 1.384 . S
N779 C771 1.427 . S
N779 C777 1.384 . S
H780 C786 0.930 . S
H781 C790 0.930 . S
H782 C795 0.929 . S
H783 C793 0.929 . S
H784 C788 0.929 . S
H785 C794 0.929 . S
C786 H780 0.930 . S
C786 C787 1.367 . S
C786 C794 1.378 . S
C787 C786 1.367 . S
C787 C795 1.433 . S
C788 H784 0.929 . S
C788 C790 1.378 . S
C788 C792 1.350 . S
C789 C792 1.463 . S
C789 C794 1.350 . S
C789 N797 1.427 . S
C790 H781 0.930 . S
C790 C788 1.378 . S
C790 C791 1.367 . S
C791 C790 1.367 . S
C791 C793 1.433 . S
C792 C788 1.350 . S
C792 C789 1.463 . S
C792 N796 1.427 . S
C793 H783 0.929 . S
C793 C791 1.433 . S
C793 N796 1.384 . S
C794 H785 0.929 . S
C794 C786 1.378 . S
C794 C789 1.350 . S
C795 H782 0.929 . S
C795 C787 1.433 . S
C795 N797 1.384 . S
N796 C792 1.427 . S
N796 C793 1.384 . S
N797 C789 1.427 . S
N797 C795 1.384 . S
H798 C804 0.930 . S
H799 C808 0.930 . S
H800 C813 0.929 . S
H801 C811 0.929 . S
H802 C806 0.929 . S
H803 C812 0.935 . S
C804 H798 0.930 . S
C804 C805 1.367 . S
C804 C812 1.370 1_556 S
C805 C804 1.367 . S
C805 C813 1.433 . S
C806 H802 0.929 . S
C806 C808 1.378 . S
C806 C810 1.350 . S
C807 C810 1.493 . S
C807 C812 1.349 . S
C807 N815 1.399 1_554 S
C808 H799 0.930 . S
C808 C806 1.378 . S
C808 C809 1.367 . S
C809 C808 1.367 . S
C809 C811 1.433 . S
C810 C806 1.350 . S
C810 C807 1.493 . S
C810 N814 1.427 . S
C811 H801 0.929 . S
C811 C809 1.433 . S
C811 N814 1.384 . S
C812 H803 0.935 . S
C812 C804 1.370 1_554 S
C812 C807 1.349 . S
C813 H800 0.929 . S
C813 C805 1.433 . S
C813 N815 1.384 . S
N814 C810 1.427 . S
N814 C811 1.384 . S
N815 C807 1.399 1_556 S
N815 C813 1.384 . S
H816 C822 0.930 . S
H817 C826 0.930 . S
H818 C831 0.929 . S
H819 C829 0.929 . S
H820 C824 0.929 . S
H821 C830 0.929 . S
C822 H816 0.930 . S
C822 C823 1.367 . S
C822 C830 1.378 . S
C823 C822 1.367 . S
C823 C831 1.433 . S
C824 H820 0.929 . S
C824 C826 1.378 . S
C824 C828 1.350 . S
C825 C828 1.463 . S
C825 C830 1.350 . S
C825 N833 1.427 . S
C826 H817 0.930 . S
C826 C824 1.378 . S
C826 C827 1.367 . S
C827 C826 1.367 . S
C827 C829 1.433 . S
C828 C824 1.350 . S
C828 C825 1.463 . S
C828 N832 1.427 . S
C829 H819 0.929 . S
C829 C827 1.433 . S
C829 N832 1.384 . S
C830 H821 0.929 . S
C830 C822 1.378 . S
C830 C825 1.350 . S
C831 H818 0.929 . S
C831 C823 1.433 . S
C831 N833 1.384 . S
N832 C828 1.427 . S
N832 C829 1.384 . S
N833 C825 1.427 . S
N833 C831 1.384 . S
H834 C840 0.930 . S
H835 C844 0.930 . S
H836 C849 0.929 . S
H837 C847 0.929 . S
H838 C842 0.929 1_545 S
H839 C848 0.929 . S
C840 H834 0.930 . S
C840 C841 1.367 . S
C840 C848 1.378 . S
C841 C840 1.367 . S
C841 C849 1.433 . S
C842 H838 0.929 1_565 S
C842 C844 1.378 . S
C842 C846 1.350 1_565 S
C843 C846 1.463 . S
C843 C848 1.350 . S
C843 N851 1.427 . S
C844 H835 0.930 . S
C844 C842 1.378 . S
C844 C845 1.367 . S
C845 C844 1.367 . S
C845 C847 1.433 . S
C846 C842 1.350 1_545 S
C846 C843 1.463 . S
C846 N850 1.427 . S
C847 H837 0.929 . S
C847 C845 1.433 . S
C847 N850 1.384 1_565 S
C848 H839 0.929 . S
C848 C840 1.378 . S
C848 C843 1.350 . S
C849 H836 0.929 . S
C849 C841 1.433 . S
C849 N851 1.384 . S
N850 C846 1.427 . S
N850 C847 1.384 1_545 S
N851 C843 1.427 . S
N851 C849 1.384 . S
H852 C858 0.930 1_565 S
H853 C862 0.930 . S
H854 C867 0.929 . S
H855 C865 0.929 . S
H856 C860 0.929 1_545 S
H857 C866 0.929 . S
C858 H852 0.930 1_545 S
C858 C859 1.367 . S
C858 C866 1.378 1_545 S
C859 C858 1.367 . S
C859 C867 1.433 . S
C860 H856 0.929 1_565 S
C860 C862 1.378 . S
C860 C864 1.350 . S
C861 C864 1.463 . S
C861 C866 1.350 . S
C861 N869 1.427 1_565 S
C862 H853 0.930 . S
C862 C860 1.378 . S
C862 C863 1.367 . S
C863 C862 1.367 . S
C863 C865 1.433 . S
C864 C860 1.350 . S
C864 C861 1.463 . S
C864 N868 1.427 . S
C865 H855 0.929 . S
C865 C863 1.433 . S
C865 N868 1.384 . S
C866 H857 0.929 . S
C866 C858 1.378 1_565 S
C866 C861 1.350 . S
C867 H854 0.929 . S
C867 C859 1.433 . S
C867 N869 1.384 . S
N868 C864 1.427 . S
N868 C865 1.384 . S
N869 C861 1.427 1_545 S
N869 C867 1.384 . S
H870 C876 0.932 . S
H871 C880 0.930 . S
H872 C885 0.929 . S
H873 C883 0.929 . S
H874 C878 0.929 . S
H875 C884 0.929 . S
C876 H870 0.932 . S
C876 C877 1.388 . S
C876 C884 1.355 1_565 S
C877 C876 1.388 . S
C877 C885 1.433 . S
C878 H874 0.929 . S
C878 C880 1.378 . S
C878 C882 1.350 . S
C879 C882 1.463 . S
C879 C884 1.350 . S
C879 N887 1.427 . S
C880 H871 0.930 . S
C880 C878 1.378 . S
C880 C881 1.367 . S
C881 C880 1.367 . S
C881 C883 1.433 . S
C882 C878 1.350 . S
C882 C879 1.463 . S
C882 N886 1.427 . S
C883 H873 0.929 . S
C883 C881 1.433 . S
C883 N886 1.384 . S
C884 H875 0.929 . S
C884 C876 1.355 1_545 S
C884 C879 1.350 . S
C885 H872 0.929 . S
C885 C877 1.433 . S
C885 N887 1.384 1_565 S
N886 C882 1.427 . S
N886 C883 1.384 . S
N887 C879 1.427 . S
N887 C885 1.384 1_545 S
H888 C894 0.930 1_545 S
H889 C898 0.930 . S
H890 C903 0.929 . S
H891 C901 0.929 . S
H892 C896 0.929 . S
H893 C902 0.929 . S
C894 H888 0.930 1_565 S
C894 C895 1.367 . S
C894 C902 1.378 . S
C895 C894 1.367 . S
C895 C903 1.433 . S
C896 H892 0.929 . S
C896 C898 1.378 . S
C896 C900 1.350 . S
C897 C900 1.463 . S
C897 C902 1.350 . S
C897 N905 1.427 . S
C898 H889 0.930 . S
C898 C896 1.378 . S
C898 C899 1.367 . S
C899 C898 1.367 . S
C899 C901 1.433 . S
C900 C896 1.350 . S
C900 C897 1.463 . S
C900 N904 1.427 . S
C901 H891 0.929 . S
C901 C899 1.433 . S
C901 N904 1.384 . S
C902 H893 0.929 . S
C902 C894 1.378 . S
C902 C897 1.350 . S
C903 H890 0.929 . S
C903 C895 1.433 . S
C903 N905 1.384 . S
N904 C900 1.427 . S
N904 C901 1.384 . S
N905 C897 1.427 . S
N905 C903 1.384 . S
H906 C912 0.930 . S
H907 C916 0.923 1_565 S
H908 C921 0.929 . S
H909 C919 0.929 . S
H910 C914 0.929 . S
H911 C920 0.929 . S
C912 H906 0.930 . S
C912 C913 1.367 . S
C912 C920 1.378 . S
C913 C912 1.367 . S
C913 C921 1.433 . S
C914 H910 0.929 . S
C914 C916 1.411 . S
C914 C918 1.350 . S
C915 C918 1.463 . S
C915 C920 1.350 . S
C915 N923 1.427 . S
C916 H907 0.923 1_545 S
C916 C914 1.411 . S
C916 C917 1.342 1_545 S
C917 C916 1.342 1_565 S
C917 C919 1.433 . S
C918 C914 1.350 . S
C918 C915 1.463 . S
C918 N922 1.427 . S
C919 H909 0.929 . S
C919 C917 1.433 . S
C919 N922 1.384 1_565 S
C920 H911 0.929 . S
C920 C912 1.378 . S
C920 C915 1.350 . S
C921 H908 0.929 . S
C921 C913 1.433 . S
C921 N923 1.384 . S
N922 C918 1.427 . S
N922 C919 1.384 1_545 S
N923 C915 1.427 . S
N923 C921 1.384 . S
H924 C930 0.930 . S
H925 C934 0.930 . S
H926 C939 0.929 . S
H927 C937 0.929 . S
H928 C932 0.929 . S
H929 C938 0.929 . S
C930 H924 0.930 . S
C930 C931 1.367 . S
C930 C938 1.378 . S
C931 C930 1.367 . S
C931 C939 1.433 . S
C932 H928 0.929 . S
C932 C934 1.378 . S
C932 C936 1.350 . S
C933 C936 1.463 . S
C933 C938 1.350 . S
C933 N941 1.427 . S
C934 H925 0.930 . S
C934 C932 1.378 . S
C934 C935 1.367 . S
C935 C934 1.367 . S
C935 C937 1.433 . S
C936 C932 1.350 . S
C936 C933 1.463 . S
C936 N940 1.427 . S
C937 H927 0.929 . S
C937 C935 1.433 . S
C937 N940 1.384 . S
C938 H929 0.929 . S
C938 C930 1.378 . S
C938 C933 1.350 . S
C939 H926 0.929 . S
C939 C931 1.433 . S
C939 N941 1.384 . S
N940 C936 1.427 . S
N940 C937 1.384 . S
N941 C933 1.427 . S
N941 C939 1.384 . S
H942 C948 0.930 . S
H943 C952 0.930 . S
H944 C957 0.929 . S
H945 C955 0.929 . S
H946 C950 0.929 . S
H947 C956 0.929 . S
C948 H942 0.930 . S
C948 C949 1.367 . S
C948 C956 1.378 1_565 S
C949 C948 1.367 . S
C949 C957 1.433 . S
C950 H946 0.929 . S
C950 C952 1.378 . S
C950 C954 1.350 . S
C951 C954 1.463 . S
C951 C956 1.350 . S
C951 N959 1.427 1_545 S
C952 H943 0.930 . S
C952 C950 1.378 . S
C952 C953 1.367 . S
C953 C952 1.367 . S
C953 C955 1.433 . S
C954 C950 1.350 . S
C954 C951 1.463 . S
C954 N958 1.427 . S
C955 H945 0.929 . S
C955 C953 1.433 . S
C955 N958 1.384 . S
C956 H947 0.929 . S
C956 C948 1.378 1_545 S
C956 C951 1.350 . S
C957 H944 0.929 . S
C957 C949 1.433 . S
C957 N959 1.384 . S
N958 C954 1.427 . S
N958 C955 1.384 . S
N959 C951 1.427 1_565 S
N959 C957 1.384 . S
H960 C966 0.930 . S
H961 C970 0.930 . S
H962 C975 0.929 . S
H963 C973 0.929 . S
H964 C968 0.929 . S
H965 C974 0.929 . S
C966 H960 0.930 . S
C966 C967 1.367 . S
C966 C974 1.378 . S
C967 C966 1.367 . S
C967 C975 1.433 . S
C968 H964 0.929 . S
C968 C970 1.378 . S
C968 C972 1.350 . S
C969 C972 1.463 . S
C969 C974 1.350 . S
C969 N977 1.427 . S
C970 H961 0.930 . S
C970 C968 1.378 . S
C970 C971 1.367 . S
C971 C970 1.367 . S
C971 C973 1.433 . S
C972 C968 1.350 . S
C972 C969 1.463 . S
C972 N976 1.427 . S
C973 H963 0.929 . S
C973 C971 1.433 . S
C973 N976 1.384 . S
C974 H965 0.929 . S
C974 C966 1.378 . S
C974 C969 1.350 . S
C975 H962 0.929 . S
C975 C967 1.433 . S
C975 N977 1.384 . S
N976 C972 1.427 . S
N976 C973 1.384 . S
N977 C969 1.427 . S
N977 C975 1.384 . S
H978 C984 0.930 . S
H979 C988 0.930 . S
H980 C993 0.929 1_554 S
H981 C991 0.929 . S
H982 C986 0.929 . S
H983 C992 0.929 . S
C984 H978 0.930 . S
C984 C985 1.367 . S
C984 C992 1.378 . S
C985 C984 1.367 . S
C985 C993 1.433 . S
C986 H982 0.929 . S
C986 C988 1.378 . S
C986 C990 1.350 . S
C987 C990 1.463 . S
C987 C992 1.350 . S
C987 N995 1.427 . S
C988 H979 0.930 . S
C988 C986 1.378 . S
C988 C989 1.367 . S
C989 C988 1.367 . S
C989 C991 1.433 . S
C990 C986 1.350 . S
C990 C987 1.463 . S
C990 N994 1.427 . S
C991 H981 0.929 . S
C991 C989 1.433 . S
C991 N994 1.384 . S
C992 H983 0.929 . S
C992 C984 1.378 . S
C992 C987 1.350 . S
C993 H980 0.929 1_556 S
C993 C985 1.433 . S
C993 N995 1.384 . S
N994 C990 1.427 . S
N994 C991 1.384 . S
N995 C987 1.427 . S
N995 C993 1.384 . S
H996 C1002 0.930 . S
H997 C1006 0.930 . S
H998 C1011 0.929 . S
H999 C1009 0.929 . S
H1000 C1004 0.929 . S
H1001 C1010 0.929 . S
C1002 H996 0.930 . S
C1002 C1003 1.367 . S
C1002 C1010 1.378 . S
C1003 C1002 1.367 . S
C1003 C1011 1.433 . S
C1004 H1000 0.929 . S
C1004 C1006 1.378 1_455 S
C1004 C1008 1.350 . S
C1005 C1008 1.463 . S
C1005 C1010 1.350 . S
C1005 N1013 1.427 . S
C1006 H997 0.930 . S
C1006 C1004 1.378 1_655 S
C1006 C1007 1.367 . S
C1007 C1006 1.367 . S
C1007 C1009 1.433 . S
C1008 C1004 1.350 . S
C1008 C1005 1.463 . S
C1008 N1012 1.427 1_455 S
C1009 H999 0.929 . S
C1009 C1007 1.433 . S
C1009 N1012 1.384 . S
C1010 H1001 0.929 . S
C1010 C1002 1.378 . S
C1010 C1005 1.350 . S
C1011 H998 0.929 . S
C1011 C1003 1.433 . S
C1011 N1013 1.384 . S
N1012 C1008 1.427 1_655 S
N1012 C1009 1.384 . S
N1013 C1005 1.427 . S
N1013 C1011 1.384 . S
H1014 C1020 0.930 . S
H1015 C1024 0.930 . S
H1016 C1029 0.929 . S
H1017 C1027 0.929 . S
H1018 C1022 0.929 . S
H1019 C1028 0.929 . S
C1020 H1014 0.930 . S
C1020 C1021 1.367 . S
C1020 C1028 1.378 . S
C1021 C1020 1.367 . S
C1021 C1029 1.433 . S
C1022 H1018 0.929 . S
C1022 C1024 1.378 . S
C1022 C1026 1.350 . S
C1023 C1026 1.463 . S
C1023 C1028 1.350 . S
C1023 N1031 1.427 . S
C1024 H1015 0.930 . S
C1024 C1022 1.378 . S
C1024 C1025 1.367 . S
C1025 C1024 1.367 . S
C1025 C1027 1.433 . S
C1026 C1022 1.350 . S
C1026 C1023 1.463 . S
C1026 N1030 1.427 . S
C1027 H1017 0.929 . S
C1027 C1025 1.433 . S
C1027 N1030 1.384 . S
C1028 H1019 0.929 . S
C1028 C1020 1.378 . S
C1028 C1023 1.350 . S
C1029 H1016 0.929 . S
C1029 C1021 1.433 . S
C1029 N1031 1.384 . S
N1030 C1026 1.427 . S
N1030 C1027 1.384 . S
N1031 C1023 1.427 . S
N1031 C1029 1.384 . S
H1032 C1038 0.930 . S
H1033 C1042 0.930 . S
H1034 C1047 0.929 . S
H1035 C1045 0.929 . S
H1036 C1040 0.929 . S
H1037 C1046 0.929 . S
C1038 H1032 0.930 . S
C1038 C1039 1.367 . S
C1038 C1046 1.378 . S
C1039 C1038 1.367 . S
C1039 C1047 1.433 . S
C1040 H1036 0.929 . S
C1040 C1042 1.378 . S
C1040 C1044 1.350 . S
C1041 C1044 1.463 1_655 S
C1041 C1046 1.350 . S
C1041 N1049 1.427 . S
C1042 H1033 0.930 . S
C1042 C1040 1.378 . S
C1042 C1043 1.367 . S
C1043 C1042 1.367 . S
C1043 C1045 1.433 . S
C1044 C1040 1.350 . S
C1044 C1041 1.463 1_455 S
C1044 N1048 1.427 . S
C1045 H1035 0.929 . S
C1045 C1043 1.433 . S
C1045 N1048 1.384 . S
C1046 H1037 0.929 . S
C1046 C1038 1.378 . S
C1046 C1041 1.350 . S
C1047 H1034 0.929 . S
C1047 C1039 1.433 . S
C1047 N1049 1.384 . S
N1048 C1044 1.427 . S
N1048 C1045 1.384 . S
N1049 C1041 1.427 . S
N1049 C1047 1.384 . S
H1050 C1056 0.930 . S
H1051 C1060 0.930 . S
H1052 C1065 0.929 . S
H1053 C1063 0.929 . S
H1054 C1058 0.929 . S
H1055 C1064 0.929 . S
C1056 H1050 0.930 . S
C1056 C1057 1.367 . S
C1056 C1064 1.378 . S
C1057 C1056 1.367 . S
C1057 C1065 1.433 . S
C1058 H1054 0.929 . S
C1058 C1060 1.378 . S
C1058 C1062 1.350 . S
C1059 C1062 1.463 . S
C1059 C1064 1.350 . S
C1059 N1067 1.427 . S
C1060 H1051 0.930 . S
C1060 C1058 1.378 . S
C1060 C1061 1.367 . S
C1061 C1060 1.367 . S
C1061 C1063 1.433 . S
C1062 C1058 1.350 . S
C1062 C1059 1.463 . S
C1062 N1066 1.427 . S
C1063 H1053 0.929 . S
C1063 C1061 1.433 . S
C1063 N1066 1.384 . S
C1064 H1055 0.929 . S
C1064 C1056 1.378 . S
C1064 C1059 1.350 . S
C1065 H1052 0.929 . S
C1065 C1057 1.433 . S
C1065 N1067 1.384 . S
N1066 C1062 1.427 . S
N1066 C1063 1.384 . S
N1067 C1059 1.427 . S
N1067 C1065 1.384 . S
H1068 C1074 0.930 . S
H1069 C1078 0.930 . S
H1070 C1083 0.929 . S
H1071 C1081 0.929 . S
H1072 C1076 0.929 1_455 S
H1073 C1082 0.929 . S
C1074 H1068 0.930 . S
C1074 C1075 1.367 . S
C1074 C1082 1.378 . S
C1075 C1074 1.367 . S
C1075 C1083 1.433 . S
C1076 H1072 0.929 1_655 S
C1076 C1078 1.378 . S
C1076 C1080 1.340 1_655 S
C1077 C1080 1.493 . S
C1077 C1082 1.350 . S
C1077 N1085 1.427 . S
C1078 H1069 0.930 . S
C1078 C1076 1.378 . S
C1078 C1079 1.367 . S
C1079 C1078 1.367 . S
C1079 C1081 1.433 . S
C1080 C1076 1.340 1_455 S
C1080 C1077 1.493 . S
C1080 N1084 1.407 1_455 S
C1081 H1071 0.929 . S
C1081 C1079 1.433 . S
C1081 N1084 1.384 . S
C1082 H1073 0.929 . S
C1082 C1074 1.378 . S
C1082 C1077 1.350 . S
C1083 H1070 0.929 . S
C1083 C1075 1.433 . S
C1083 N1085 1.384 . S
N1084 C1080 1.407 1_655 S
N1084 C1081 1.384 . S
N1085 C1077 1.427 . S
N1085 C1083 1.384 . S
H1086 C1092 0.930 . S
H1087 C1096 0.930 . S
H1088 C1101 0.929 . S
H1089 C1099 0.929 . S
H1090 C1094 0.929 . S
H1091 C1100 0.929 . S
C1092 H1086 0.930 . S
C1092 C1093 1.367 . S
C1092 C1100 1.378 . S
C1093 C1092 1.367 . S
C1093 C1101 1.433 . S
C1094 H1090 0.929 . S
C1094 C1096 1.378 . S
C1094 C1098 1.350 . S
C1095 C1098 1.463 . S
C1095 C1100 1.350 . S
C1095 N1103 1.427 . S
C1096 H1087 0.930 . S
C1096 C1094 1.378 . S
C1096 C1097 1.367 . S
C1097 C1096 1.367 . S
C1097 C1099 1.433 . S
C1098 C1094 1.350 . S
C1098 C1095 1.463 . S
C1098 N1102 1.427 . S
C1099 H1089 0.929 . S
C1099 C1097 1.433 . S
C1099 N1102 1.384 . S
C1100 H1091 0.929 . S
C1100 C1092 1.378 . S
C1100 C1095 1.350 . S
C1101 H1088 0.929 . S
C1101 C1093 1.433 . S
C1101 N1103 1.384 . S
N1102 C1098 1.427 . S
N1102 C1099 1.384 . S
N1103 C1095 1.427 . S
N1103 C1101 1.384 . S
H1104 C1110 0.930 . S
H1105 C1114 0.930 . S
H1106 C1119 0.929 . S
H1107 C1117 0.929 . S
H1108 C1112 0.929 . S
H1109 C1118 0.929 . S
C1110 H1104 0.930 . S
C1110 C1111 1.367 . S
C1110 C1118 1.378 . S
C1111 C1110 1.367 . S
C1111 C1119 1.433 . S
C1112 H1108 0.929 . S
C1112 C1114 1.378 . S
C1112 C1116 1.350 . S
C1113 C1116 1.463 . S
C1113 C1118 1.350 . S
C1113 N1121 1.427 . S
C1114 H1105 0.930 . S
C1114 C1112 1.378 . S
C1114 C1115 1.367 . S
C1115 C1114 1.367 . S
C1115 C1117 1.433 . S
C1116 C1112 1.350 . S
C1116 C1113 1.463 . S
C1116 N1120 1.427 . S
C1117 H1107 0.929 . S
C1117 C1115 1.433 . S
C1117 N1120 1.384 . S
C1118 H1109 0.929 . S
C1118 C1110 1.378 . S
C1118 C1113 1.350 . S
C1119 H1106 0.929 . S
C1119 C1111 1.433 . S
C1119 N1121 1.384 . S
N1120 C1116 1.427 . S
N1120 C1117 1.384 . S
N1121 C1113 1.427 . S
N1121 C1119 1.384 . S
H1122 C1128 0.935 . S
H1123 C1132 0.930 . S
H1124 C1137 0.929 . S
H1125 C1135 0.929 . S
H1126 C1130 0.929 . S
H1127 C1136 0.929 1_455 S
C1128 H1122 0.935 . S
C1128 C1129 1.364 1_455 S
C1128 C1136 1.376 1_455 S
C1129 C1128 1.364 1_655 S
C1129 C1137 1.433 . S
C1130 H1126 0.929 . S
C1130 C1132 1.378 . S
C1130 C1134 1.350 . S
C1131 C1134 1.463 . S
C1131 C1136 1.350 . S
C1131 N1139 1.427 . S
C1132 H1123 0.930 . S
C1132 C1130 1.378 . S
C1132 C1133 1.367 . S
C1133 C1132 1.367 . S
C1133 C1135 1.433 . S
C1134 C1130 1.350 . S
C1134 C1131 1.463 . S
C1134 N1138 1.427 . S
C1135 H1125 0.929 . S
C1135 C1133 1.433 . S
C1135 N1138 1.384 . S
C1136 H1127 0.929 1_655 S
C1136 C1128 1.376 1_655 S
C1136 C1131 1.350 . S
C1137 H1124 0.929 . S
C1137 C1129 1.433 . S
C1137 N1139 1.384 . S
N1138 C1134 1.427 . S
N1138 C1135 1.384 . S
N1139 C1131 1.427 . S
N1139 C1137 1.384 . S
H1140 C1146 0.930 . S
H1141 C1150 0.930 . S
H1142 C1155 0.929 . S
H1143 C1153 0.929 . S
H1144 C1148 0.929 . S
H1145 C1154 0.929 . S
C1146 H1140 0.930 . S
C1146 C1147 1.367 . S
C1146 C1154 1.378 . S
C1147 C1146 1.367 . S
C1147 C1155 1.433 . S
C1148 H1144 0.929 . S
C1148 C1150 1.378 . S
C1148 C1152 1.350 . S
C1149 C1152 1.463 . S
C1149 C1154 1.350 . S
C1149 N1157 1.427 . S
C1150 H1141 0.930 . S
C1150 C1148 1.378 . S
C1150 C1151 1.367 . S
C1151 C1150 1.367 . S
C1151 C1153 1.433 . S
C1152 C1148 1.350 . S
C1152 C1149 1.463 . S
C1152 N1156 1.427 . S
C1153 H1143 0.929 . S
C1153 C1151 1.433 . S
C1153 N1156 1.384 . S
C1154 H1145 0.929 . S
C1154 C1146 1.378 . S
C1154 C1149 1.350 . S
C1155 H1142 0.929 . S
C1155 C1147 1.433 . S
C1155 N1157 1.384 . S
N1156 C1152 1.427 . S
N1156 C1153 1.384 . S
N1157 C1149 1.427 . S
N1157 C1155 1.384 . S
H1158 C1164 0.930 . S
H1159 C1168 0.930 . S
H1160 C1173 0.929 . S
H1161 C1171 0.929 . S
H1162 C1166 0.929 . S
H1163 C1172 0.929 . S
C1164 H1158 0.930 . S
C1164 C1165 1.367 . S
C1164 C1172 1.378 . S
C1165 C1164 1.367 . S
C1165 C1173 1.433 . S
C1166 H1162 0.929 . S
C1166 C1168 1.378 . S
C1166 C1170 1.350 . S
C1167 C1170 1.463 1_556 S
C1167 C1172 1.350 . S
C1167 N1175 1.427 . S
C1168 H1159 0.930 . S
C1168 C1166 1.378 . S
C1168 C1169 1.367 . S
C1169 C1168 1.367 . S
C1169 C1171 1.433 . S
C1170 C1166 1.350 . S
C1170 C1167 1.463 1_554 S
C1170 N1174 1.427 . S
C1171 H1161 0.929 . S
C1171 C1169 1.433 . S
C1171 N1174 1.384 . S
C1172 H1163 0.929 . S
C1172 C1164 1.378 . S
C1172 C1167 1.350 . S
C1173 H1160 0.929 . S
C1173 C1165 1.433 . S
C1173 N1175 1.384 . S
N1174 C1170 1.427 . S
N1174 C1171 1.384 . S
N1175 C1167 1.427 . S
N1175 C1173 1.384 . S
H1176 C1182 0.930 1_455 S
H1177 C1186 0.930 . S
H1178 C1191 0.929 . S
H1179 C1189 0.929 . S
H1180 C1184 0.929 . S
H1181 C1190 0.929 . S
C1182 H1176 0.930 1_655 S
C1182 C1183 1.367 . S
C1182 C1190 1.378 . S
C1183 C1182 1.367 . S
C1183 C1191 1.433 . S
C1184 H1180 0.929 . S
C1184 C1186 1.378 . S
C1184 C1188 1.350 . S
C1185 C1188 1.463 . S
C1185 C1190 1.350 . S
C1185 N1193 1.427 . S
C1186 H1177 0.930 . S
C1186 C1184 1.378 . S
C1186 C1187 1.367 . S
C1187 C1186 1.367 . S
C1187 C1189 1.433 . S
C1188 C1184 1.350 . S
C1188 C1185 1.463 . S
C1188 N1192 1.427 . S
C1189 H1179 0.929 . S
C1189 C1187 1.433 . S
C1189 N1192 1.384 . S
C1190 H1181 0.929 . S
C1190 C1182 1.378 . S
C1190 C1185 1.350 . S
C1191 H1178 0.929 . S
C1191 C1183 1.433 . S
C1191 N1193 1.384 . S
N1192 C1188 1.427 . S
N1192 C1189 1.384 . S
N1193 C1185 1.427 . S
N1193 C1191 1.384 . S
H1194 C1200 0.930 . S
H1195 C1204 0.930 . S
H1196 C1209 0.929 . S
H1197 C1207 0.929 . S
H1198 C1202 0.929 . S
H1199 C1208 0.929 . S
C1200 H1194 0.930 . S
C1200 C1201 1.367 . S
C1200 C1208 1.378 . S
C1201 C1200 1.367 . S
C1201 C1209 1.433 . S
C1202 H1198 0.929 . S
C1202 C1204 1.378 . S
C1202 C1206 1.350 . S
C1203 C1206 1.463 . S
C1203 C1208 1.350 . S
C1203 N1211 1.427 . S
C1204 H1195 0.930 . S
C1204 C1202 1.378 . S
C1204 C1205 1.367 . S
C1205 C1204 1.367 . S
C1205 C1207 1.433 . S
C1206 C1202 1.350 . S
C1206 C1203 1.463 . S
C1206 N1210 1.427 . S
C1207 H1197 0.929 . S
C1207 C1205 1.433 . S
C1207 N1210 1.384 . S
C1208 H1199 0.929 . S
C1208 C1200 1.378 . S
C1208 C1203 1.350 . S
C1209 H1196 0.929 . S
C1209 C1201 1.433 . S
C1209 N1211 1.384 . S
N1210 C1206 1.427 . S
N1210 C1207 1.384 . S
N1211 C1203 1.427 . S
N1211 C1209 1.384 . S
H1212 C1218 0.930 . S
H1213 C1222 0.930 . S
H1214 C1227 0.929 . S
H1215 C1225 0.929 . S
H1216 C1220 0.929 . S
H1217 C1226 0.929 . S
C1218 H1212 0.930 . S
C1218 C1219 1.367 . S
C1218 C1226 1.378 . S
C1219 C1218 1.367 . S
C1219 C1227 1.433 . S
C1220 H1216 0.929 . S
C1220 C1222 1.378 . S
C1220 C1224 1.350 . S
C1221 C1224 1.463 . S
C1221 C1226 1.350 . S
C1221 N1229 1.427 . S
C1222 H1213 0.930 . S
C1222 C1220 1.378 . S
C1222 C1223 1.367 . S
C1223 C1222 1.367 . S
C1223 C1225 1.433 . S
C1224 C1220 1.350 . S
C1224 C1221 1.463 . S
C1224 N1228 1.427 . S
C1225 H1215 0.929 . S
C1225 C1223 1.433 . S
C1225 N1228 1.384 . S
C1226 H1217 0.929 . S
C1226 C1218 1.378 . S
C1226 C1221 1.350 . S
C1227 H1214 0.929 . S
C1227 C1219 1.433 . S
C1227 N1229 1.384 . S
N1228 C1224 1.427 . S
N1228 C1225 1.384 . S
N1229 C1221 1.427 . S
N1229 C1227 1.384 . S
H1230 C1236 0.930 . S
H1231 C1240 0.930 . S
H1232 C1245 0.929 . S
H1233 C1243 0.929 . S
H1234 C1238 0.929 1_554 S
H1235 C1244 0.929 . S
C1236 H1230 0.930 . S
C1236 C1237 1.367 . S
C1236 C1244 1.378 . S
C1237 C1236 1.367 . S
C1237 C1245 1.433 . S
C1238 H1234 0.929 1_556 S
C1238 C1240 1.378 . S
C1238 C1242 1.350 . S
C1239 C1242 1.463 1_554 S
C1239 C1244 1.350 . S
C1239 N1247 1.427 . S
C1240 H1231 0.930 . S
C1240 C1238 1.378 . S
C1240 C1241 1.367 . S
C1241 C1240 1.367 . S
C1241 C1243 1.433 . S
C1242 C1238 1.350 . S
C1242 C1239 1.463 1_556 S
C1242 N1246 1.427 . S
C1243 H1233 0.929 . S
C1243 C1241 1.433 . S
C1243 N1246 1.384 . S
C1244 H1235 0.929 . S
C1244 C1236 1.378 . S
C1244 C1239 1.350 . S
C1245 H1232 0.929 . S
C1245 C1237 1.433 . S
C1245 N1247 1.384 . S
N1246 C1242 1.427 . S
N1246 C1243 1.384 . S
N1247 C1239 1.427 . S
N1247 C1245 1.384 . S
H1248 C1254 0.930 . S
H1249 C1258 0.930 . S
H1250 C1263 0.929 . S
H1251 C1261 0.929 . S
H1252 C1256 0.929 . S
H1253 C1262 0.929 . S
C1254 H1248 0.930 . S
C1254 C1255 1.367 1_565 S
C1254 C1262 1.378 . S
C1255 C1254 1.367 1_545 S
C1255 C1263 1.433 . S
C1256 H1252 0.929 . S
C1256 C1258 1.378 . S
C1256 C1260 1.350 . S
C1257 C1260 1.463 . S
C1257 C1262 1.350 . S
C1257 N1265 1.427 . S
C1258 H1249 0.930 . S
C1258 C1256 1.378 . S
C1258 C1259 1.367 . S
C1259 C1258 1.367 . S
C1259 C1261 1.433 . S
C1260 C1256 1.350 . S
C1260 C1257 1.463 . S
C1260 N1264 1.427 . S
C1261 H1251 0.929 . S
C1261 C1259 1.433 . S
C1261 N1264 1.384 . S
C1262 H1253 0.929 . S
C1262 C1254 1.378 . S
C1262 C1257 1.350 . S
C1263 H1250 0.929 . S
C1263 C1255 1.433 . S
C1263 N1265 1.384 1_545 S
N1264 C1260 1.427 . S
N1264 C1261 1.384 . S
N1265 C1257 1.427 . S
N1265 C1263 1.384 1_565 S
H1266 C1272 0.933 . S
H1267 C1276 0.930 . S
H1268 C1281 0.929 . S
H1269 C1279 0.929 . S
H1270 C1274 0.929 . S
H1271 C1280 0.929 . S
C1272 H1266 0.933 . S
C1272 C1273 1.377 . S
C1272 C1280 1.365 1_565 S
C1273 C1272 1.377 . S
C1273 C1281 1.433 . S
C1274 H1270 0.929 . S
C1274 C1276 1.378 . S
C1274 C1278 1.350 . S
C1275 C1278 1.463 . S
C1275 C1280 1.350 . S
C1275 N1283 1.427 . S
C1276 H1267 0.930 . S
C1276 C1274 1.378 . S
C1276 C1277 1.367 . S
C1277 C1276 1.367 . S
C1277 C1279 1.433 . S
C1278 C1274 1.350 . S
C1278 C1275 1.463 . S
C1278 N1282 1.427 . S
C1279 H1269 0.929 . S
C1279 C1277 1.433 . S
C1279 N1282 1.384 . S
C1280 H1271 0.929 . S
C1280 C1272 1.365 1_545 S
C1280 C1275 1.350 . S
C1281 H1268 0.929 . S
C1281 C1273 1.433 . S
C1281 N1283 1.384 1_565 S
N1282 C1278 1.427 . S
N1282 C1279 1.384 . S
N1283 C1275 1.427 . S
N1283 C1281 1.384 1_545 S
H1284 C1290 0.930 . S
H1285 C1294 0.930 . S
H1286 C1299 0.929 . S
H1287 C1297 0.929 . S
H1288 C1292 0.929 . S
H1289 C1298 0.929 . S
C1290 H1284 0.930 . S
C1290 C1291 1.367 . S
C1290 C1298 1.378 . S
C1291 C1290 1.367 . S
C1291 C1299 1.433 . S
C1292 H1288 0.929 . S
C1292 C1294 1.378 . S
C1292 C1296 1.350 . S
C1293 C1296 1.463 . S
C1293 C1298 1.350 . S
C1293 N1301 1.427 . S
C1294 H1285 0.930 . S
C1294 C1292 1.378 . S
C1294 C1295 1.367 . S
C1295 C1294 1.367 . S
C1295 C1297 1.433 . S
C1296 C1292 1.350 . S
C1296 C1293 1.463 . S
C1296 N1300 1.427 . S
C1297 H1287 0.929 . S
C1297 C1295 1.433 . S
C1297 N1300 1.384 . S
C1298 H1289 0.929 . S
C1298 C1290 1.378 . S
C1298 C1293 1.350 . S
C1299 H1286 0.929 . S
C1299 C1291 1.433 . S
C1299 N1301 1.384 . S
N1300 C1296 1.427 . S
N1300 C1297 1.384 . S
N1301 C1293 1.427 . S
N1301 C1299 1.384 . S
H1302 C1308 0.930 1_556 S
H1303 C1312 0.930 . S
H1304 C1317 0.929 . S
H1305 C1315 0.929 . S
H1306 C1310 0.929 . S
H1307 C1316 0.929 . S
C1308 H1302 0.930 1_554 S
C1308 C1309 1.367 . S
C1308 C1316 1.378 . S
C1309 C1308 1.367 . S
C1309 C1317 1.433 . S
C1310 H1306 0.929 . S
C1310 C1312 1.378 1_545 S
C1310 C1314 1.350 . S
C1311 C1314 1.463 . S
C1311 C1316 1.350 . S
C1311 N1319 1.427 . S
C1312 H1303 0.930 . S
C1312 C1310 1.378 1_565 S
C1312 C1313 1.367 . S
C1313 C1312 1.367 . S
C1313 C1315 1.433 . S
C1314 C1310 1.350 . S
C1314 C1311 1.463 . S
C1314 N1318 1.427 . S
C1315 H1305 0.929 . S
C1315 C1313 1.433 . S
C1315 N1318 1.384 1_565 S
C1316 H1307 0.929 . S
C1316 C1308 1.378 . S
C1316 C1311 1.350 . S
C1317 H1304 0.929 . S
C1317 C1309 1.433 . S
C1317 N1319 1.384 . S
N1318 C1314 1.427 . S
N1318 C1315 1.384 1_545 S
N1319 C1311 1.427 . S
N1319 C1317 1.384 . S
H1320 C1326 0.930 . S
H1321 C1330 0.930 . S
H1322 C1335 0.929 . S
H1323 C1333 0.929 . S
H1324 C1328 0.929 . S
H1325 C1334 0.929 . S
C1326 H1320 0.930 . S
C1326 C1327 1.367 . S
C1326 C1334 1.378 . S
C1327 C1326 1.367 . S
C1327 C1335 1.433 . S
C1328 H1324 0.929 . S
C1328 C1330 1.378 . S
C1328 C1332 1.350 . S
C1329 C1332 1.463 . S
C1329 C1334 1.350 . S
C1329 N1337 1.427 . S
C1330 H1321 0.930 . S
C1330 C1328 1.378 . S
C1330 C1331 1.367 . S
C1331 C1330 1.367 . S
C1331 C1333 1.433 . S
C1332 C1328 1.350 . S
C1332 C1329 1.463 . S
C1332 N1336 1.427 . S
C1333 H1323 0.929 . S
C1333 C1331 1.433 . S
C1333 N1336 1.384 . S
C1334 H1325 0.929 . S
C1334 C1326 1.378 . S
C1334 C1329 1.350 . S
C1335 H1322 0.929 . S
C1335 C1327 1.433 . S
C1335 N1337 1.384 . S
N1336 C1332 1.427 . S
N1336 C1333 1.384 . S
N1337 C1329 1.427 . S
N1337 C1335 1.384 . S
H1338 C1344 0.930 . S
H1339 C1348 0.930 . S
H1340 C1353 0.929 . S
H1341 C1351 0.929 . S
H1342 C1346 0.929 . S
H1343 C1352 0.929 . S
C1344 H1338 0.930 . S
C1344 C1345 1.367 . S
C1344 C1352 1.378 1_565 S
C1345 C1344 1.367 . S
C1345 C1353 1.433 . S
C1346 H1342 0.929 . S
C1346 C1348 1.378 . S
C1346 C1350 1.350 . S
C1347 C1350 1.463 . S
C1347 C1352 1.350 . S
C1347 N1355 1.427 1_545 S
C1348 H1339 0.930 . S
C1348 C1346 1.378 . S
C1348 C1349 1.367 . S
C1349 C1348 1.367 . S
C1349 C1351 1.433 . S
C1350 C1346 1.350 . S
C1350 C1347 1.463 . S
C1350 N1354 1.427 . S
C1351 H1341 0.929 . S
C1351 C1349 1.433 . S
C1351 N1354 1.384 . S
C1352 H1343 0.929 . S
C1352 C1344 1.378 1_545 S
C1352 C1347 1.350 . S
C1353 H1340 0.929 . S
C1353 C1345 1.433 . S
C1353 N1355 1.384 . S
N1354 C1350 1.427 . S
N1354 C1351 1.384 . S
N1355 C1347 1.427 1_565 S
N1355 C1353 1.384 . S
H1356 C1362 0.930 . S
H1357 C1366 0.930 . S
H1358 C1371 0.929 . S
H1359 C1369 0.929 . S
H1360 C1364 0.929 . S
H1361 C1370 0.929 . S
C1362 H1356 0.930 . S
C1362 C1363 1.367 . S
C1362 C1370 1.378 . S
C1363 C1362 1.367 . S
C1363 C1371 1.433 . S
C1364 H1360 0.929 . S
C1364 C1366 1.378 . S
C1364 C1368 1.350 . S
C1365 C1368 1.463 . S
C1365 C1370 1.350 . S
C1365 N1373 1.427 . S
C1366 H1357 0.930 . S
C1366 C1364 1.378 . S
C1366 C1367 1.367 . S
C1367 C1366 1.367 . S
C1367 C1369 1.433 . S
C1368 C1364 1.350 . S
C1368 C1365 1.463 . S
C1368 N1372 1.427 . S
C1369 H1359 0.929 . S
C1369 C1367 1.433 . S
C1369 N1372 1.384 . S
C1370 H1361 0.929 . S
C1370 C1362 1.378 . S
C1370 C1365 1.350 . S
C1371 H1358 0.929 . S
C1371 C1363 1.433 . S
C1371 N1373 1.384 . S
N1372 C1368 1.427 . S
N1372 C1369 1.384 . S
N1373 C1365 1.427 . S
N1373 C1371 1.384 . S
H1374 C1380 0.930 . S
H1375 C1384 0.930 . S
H1376 C1389 0.938 . S
H1377 C1387 0.929 . S
H1378 C1382 0.929 . S
H1379 C1388 0.929 . S
C1380 H1374 0.930 . S
C1380 C1381 1.367 . S
C1380 C1388 1.378 . S
C1381 C1380 1.367 . S
C1381 C1389 1.433 . S
C1382 H1378 0.929 . S
C1382 C1384 1.378 1_545 S
C1382 C1386 1.350 . S
C1383 C1386 1.463 . S
C1383 C1388 1.350 . S
C1383 N1391 1.427 . S
C1384 H1375 0.930 . S
C1384 C1382 1.378 1_565 S
C1384 C1385 1.367 . S
C1385 C1384 1.367 . S
C1385 C1387 1.433 1_565 S
C1386 C1382 1.350 . S
C1386 C1383 1.463 . S
C1386 N1390 1.427 . S
C1387 H1377 0.929 . S
C1387 C1385 1.433 1_545 S
C1387 N1390 1.384 . S
C1388 H1379 0.929 . S
C1388 C1380 1.378 . S
C1388 C1383 1.350 . S
C1389 H1376 0.938 . S
C1389 C1381 1.433 . S
C1389 N1391 1.384 . S
N1390 C1386 1.427 . S
N1390 C1387 1.384 . S
N1391 C1383 1.427 . S
N1391 C1389 1.384 . S
H1392 C1398 0.930 . S
H1393 C1402 0.930 . S
H1394 C1407 0.929 . S
H1395 C1405 0.929 . S
H1396 C1400 0.929 . S
H1397 C1406 0.929 . S
C1398 H1392 0.930 . S
C1398 C1399 1.367 . S
C1398 C1406 1.378 . S
C1399 C1398 1.367 . S
C1399 C1407 1.433 . S
C1400 H1396 0.929 . S
C1400 C1402 1.378 . S
C1400 C1404 1.350 . S
C1401 C1404 1.463 . S
C1401 C1406 1.350 . S
C1401 N1409 1.427 . S
C1402 H1393 0.930 . S
C1402 C1400 1.378 . S
C1402 C1403 1.367 . S
C1403 C1402 1.367 . S
C1403 C1405 1.433 . S
C1404 C1400 1.350 . S
C1404 C1401 1.463 . S
C1404 N1408 1.427 . S
C1405 H1395 0.929 . S
C1405 C1403 1.433 . S
C1405 N1408 1.384 . S
C1406 H1397 0.929 . S
C1406 C1398 1.378 . S
C1406 C1401 1.350 . S
C1407 H1394 0.929 . S
C1407 C1399 1.433 . S
C1407 N1409 1.384 . S
N1408 C1404 1.427 . S
N1408 C1405 1.384 . S
N1409 C1401 1.427 . S
N1409 C1407 1.384 . S
H1410 C1416 0.930 . S
H1411 C1420 0.930 . S
H1412 C1425 0.929 . S
H1413 C1423 0.929 . S
H1414 C1418 0.929 . S
H1415 C1424 0.929 . S
C1416 H1410 0.930 . S
C1416 C1417 1.367 . S
C1416 C1424 1.378 . S
C1417 C1416 1.367 . S
C1417 C1425 1.433 . S
C1418 H1414 0.929 . S
C1418 C1420 1.378 . S
C1418 C1422 1.350 . S
C1419 C1422 1.463 . S
C1419 C1424 1.350 . S
C1419 N1427 1.427 . S
C1420 H1411 0.930 . S
C1420 C1418 1.378 . S
C1420 C1421 1.367 . S
C1421 C1420 1.367 . S
C1421 C1423 1.433 . S
C1422 C1418 1.350 . S
C1422 C1419 1.463 . S
C1422 N1426 1.427 . S
C1423 H1413 0.929 . S
C1423 C1421 1.433 . S
C1423 N1426 1.384 . S
C1424 H1415 0.929 . S
C1424 C1416 1.378 . S
C1424 C1419 1.350 . S
C1425 H1412 0.929 . S
C1425 C1417 1.433 . S
C1425 N1427 1.384 . S
N1426 C1422 1.427 . S
N1426 C1423 1.384 . S
N1427 C1419 1.427 . S
N1427 C1425 1.384 . S
H1428 C1434 0.930 . S
H1429 C1438 0.930 . S
H1430 C1443 0.929 . S
H1431 C1441 0.929 . S
H1432 C1436 0.929 1_655 S
H1433 C1442 0.929 . S
C1434 H1428 0.930 . S
C1434 C1435 1.367 . S
C1434 C1442 1.378 . S
C1435 C1434 1.367 . S
C1435 C1443 1.433 . S
C1436 H1432 0.929 1_455 S
C1436 C1438 1.378 . S
C1436 C1440 1.350 . S
C1437 C1440 1.463 1_655 S
C1437 C1442 1.350 . S
C1437 N1445 1.427 . S
C1438 H1429 0.930 . S
C1438 C1436 1.378 . S
C1438 C1439 1.367 . S
C1439 C1438 1.367 . S
C1439 C1441 1.433 . S
C1440 C1436 1.350 . S
C1440 C1437 1.463 1_455 S
C1440 N1444 1.427 . S
C1441 H1431 0.929 . S
C1441 C1439 1.433 . S
C1441 N1444 1.384 . S
C1442 H1433 0.929 . S
C1442 C1434 1.378 . S
C1442 C1437 1.350 . S
C1443 H1430 0.929 . S
C1443 C1435 1.433 . S
C1443 N1445 1.384 . S
N1444 C1440 1.427 . S
N1444 C1441 1.384 . S
N1445 C1437 1.427 . S
N1445 C1443 1.384 . S
H1446 C1452 0.930 . S
H1447 C1456 0.930 . S
H1448 C1461 0.929 . S
H1449 C1459 0.929 . S
H1450 C1454 0.929 . S
H1451 C1460 0.929 . S
C1452 H1446 0.930 . S
C1452 C1453 1.367 . S
C1452 C1460 1.378 . S
C1453 C1452 1.367 . S
C1453 C1461 1.433 . S
C1454 H1450 0.929 . S
C1454 C1456 1.378 . S
C1454 C1458 1.350 . S
C1455 C1458 1.463 . S
C1455 C1460 1.350 . S
C1455 N1463 1.427 . S
C1456 H1447 0.930 . S
C1456 C1454 1.378 . S
C1456 C1457 1.367 . S
C1457 C1456 1.367 . S
C1457 C1459 1.433 . S
C1458 C1454 1.350 . S
C1458 C1455 1.463 . S
C1458 N1462 1.427 . S
C1459 H1449 0.929 . S
C1459 C1457 1.433 . S
C1459 N1462 1.384 . S
C1460 H1451 0.929 . S
C1460 C1452 1.378 . S
C1460 C1455 1.350 . S
C1461 H1448 0.929 . S
C1461 C1453 1.433 . S
C1461 N1463 1.384 . S
N1462 C1458 1.427 . S
N1462 C1459 1.384 . S
N1463 C1455 1.427 . S
N1463 C1461 1.384 . S
H1464 C1470 0.930 . S
H1465 C1474 0.930 . S
H1466 C1479 0.929 1_565 S
H1467 C1477 0.929 . S
H1468 C1472 0.929 . S
H1469 C1478 0.929 . S
C1470 H1464 0.930 . S
C1470 C1471 1.367 . S
C1470 C1478 1.378 . S
C1471 C1470 1.367 . S
C1471 C1479 1.433 . S
C1472 H1468 0.929 . S
C1472 C1474 1.378 . S
C1472 C1476 1.350 1_565 S
C1473 C1476 1.463 1_455 S
C1473 C1478 1.350 . S
C1473 N1481 1.427 1_545 S
C1474 H1465 0.930 . S
C1474 C1472 1.378 . S
C1474 C1475 1.367 . S
C1475 C1474 1.367 . S
C1475 C1477 1.433 1_565 S
C1476 C1472 1.350 1_545 S
C1476 C1473 1.463 1_655 S
C1476 N1480 1.427 . S
C1477 H1467 0.929 . S
C1477 C1475 1.433 1_545 S
C1477 N1480 1.384 . S
C1478 H1469 0.929 . S
C1478 C1470 1.378 . S
C1478 C1473 1.350 . S
C1479 H1466 0.929 1_545 S
C1479 C1471 1.433 . S
C1479 N1481 1.384 1_545 S
N1480 C1476 1.427 . S
N1480 C1477 1.384 . S
N1481 C1473 1.427 1_565 S
N1481 C1479 1.384 1_565 S
H1482 C1488 0.930 . S
H1483 C1492 0.930 . S
H1484 C1497 0.929 . S
H1485 C1495 0.929 . S
H1486 C1490 0.929 . S
H1487 C1496 0.929 . S
C1488 H1482 0.930 . S
C1488 C1489 1.367 . S
C1488 C1496 1.378 . S
C1489 C1488 1.367 . S
C1489 C1497 1.433 . S
C1490 H1486 0.929 . S
C1490 C1492 1.378 . S
C1490 C1494 1.350 . S
C1491 C1494 1.463 . S
C1491 C1496 1.350 . S
C1491 N1499 1.427 . S
C1492 H1483 0.930 . S
C1492 C1490 1.378 . S
C1492 C1493 1.367 . S
C1493 C1492 1.367 . S
C1493 C1495 1.433 . S
C1494 C1490 1.350 . S
C1494 C1491 1.463 . S
C1494 N1498 1.427 . S
C1495 H1485 0.929 . S
C1495 C1493 1.433 . S
C1495 N1498 1.384 . S
C1496 H1487 0.929 . S
C1496 C1488 1.378 . S
C1496 C1491 1.350 . S
C1497 H1484 0.929 . S
C1497 C1489 1.433 . S
C1497 N1499 1.384 . S
N1498 C1494 1.427 . S
N1498 C1495 1.384 . S
N1499 C1491 1.427 . S
N1499 C1497 1.384 . S
H1500 C1506 0.930 . S
H1501 C1510 0.930 . S
H1502 C1515 0.929 . S
H1503 C1513 0.929 . S
H1504 C1508 0.929 . S
H1505 C1514 0.929 . S
C1506 H1500 0.930 . S
C1506 C1507 1.367 . S
C1506 C1514 1.378 . S
C1507 C1506 1.367 . S
C1507 C1515 1.433 . S
C1508 H1504 0.929 . S
C1508 C1510 1.378 . S
C1508 C1512 1.350 . S
C1509 C1512 1.463 1_655 S
C1509 C1514 1.350 . S
C1509 N1517 1.427 . S
C1510 H1501 0.930 . S
C1510 C1508 1.378 . S
C1510 C1511 1.367 . S
C1511 C1510 1.367 . S
C1511 C1513 1.433 . S
C1512 C1508 1.350 . S
C1512 C1509 1.463 1_455 S
C1512 N1516 1.427 . S
C1513 H1503 0.929 . S
C1513 C1511 1.433 . S
C1513 N1516 1.384 . S
C1514 H1505 0.929 . S
C1514 C1506 1.378 . S
C1514 C1509 1.350 . S
C1515 H1502 0.929 . S
C1515 C1507 1.433 . S
C1515 N1517 1.384 . S
N1516 C1512 1.427 . S
N1516 C1513 1.384 . S
N1517 C1509 1.427 . S
N1517 C1515 1.384 . S
H1518 C1524 0.930 . S
H1519 C1528 0.930 . S
H1520 C1533 0.929 . S
H1521 C1531 0.929 . S
H1522 C1526 0.929 . S
H1523 C1532 0.929 . S
C1524 H1518 0.930 . S
C1524 C1525 1.367 . S
C1524 C1532 1.378 . S
C1525 C1524 1.367 . S
C1525 C1533 1.433 . S
C1526 H1522 0.929 . S
C1526 C1528 1.378 . S
C1526 C1530 1.350 . S
C1527 C1530 1.463 . S
C1527 C1532 1.350 . S
C1527 N1535 1.427 . S
C1528 H1519 0.930 . S
C1528 C1526 1.378 . S
C1528 C1529 1.367 . S
C1529 C1528 1.367 . S
C1529 C1531 1.433 . S
C1530 C1526 1.350 . S
C1530 C1527 1.463 . S
C1530 N1534 1.427 . S
C1531 H1521 0.929 . S
C1531 C1529 1.433 . S
C1531 N1534 1.384 . S
C1532 H1523 0.929 . S
C1532 C1524 1.378 . S
C1532 C1527 1.350 . S
C1533 H1520 0.929 . S
C1533 C1525 1.433 . S
C1533 N1535 1.384 . S
N1534 C1530 1.427 . S
N1534 C1531 1.384 . S
N1535 C1527 1.427 . S
N1535 C1533 1.384 . S
H1536 C1542 0.930 . S
H1537 C1546 0.930 . S
H1538 C1551 0.929 . S
H1539 C1549 0.929 . S
H1540 C1544 0.929 . S
H1541 C1550 0.929 . S
C1542 H1536 0.930 . S
C1542 C1543 1.367 . S
C1542 C1550 1.378 . S
C1543 C1542 1.367 . S
C1543 C1551 1.433 . S
C1544 H1540 0.929 . S
C1544 C1546 1.378 . S
C1544 C1548 1.350 . S
C1545 C1548 1.463 . S
C1545 C1550 1.350 . S
C1545 N1553 1.427 . S
C1546 H1537 0.930 . S
C1546 C1544 1.378 . S
C1546 C1547 1.367 . S
C1547 C1546 1.367 . S
C1547 C1549 1.433 . S
C1548 C1544 1.350 . S
C1548 C1545 1.463 . S
C1548 N1552 1.427 . S
C1549 H1539 0.929 . S
C1549 C1547 1.433 . S
C1549 N1552 1.384 . S
C1550 H1541 0.929 . S
C1550 C1542 1.378 . S
C1550 C1545 1.350 . S
C1551 H1538 0.929 . S
C1551 C1543 1.433 . S
C1551 N1553 1.384 . S
N1552 C1548 1.427 . S
N1552 C1549 1.384 . S
N1553 C1545 1.427 . S
N1553 C1551 1.384 . S
H1554 C1560 0.930 . S
H1555 C1564 0.930 . S
H1556 C1569 0.929 . S
H1557 C1567 0.929 . S
H1558 C1562 0.929 . S
H1559 C1568 0.929 . S
C1560 H1554 0.930 . S
C1560 C1561 1.367 . S
C1560 C1568 1.378 . S
C1561 C1560 1.367 . S
C1561 C1569 1.433 . S
C1562 H1558 0.929 . S
C1562 C1564 1.378 1_554 S
C1562 C1566 1.350 . S
C1563 C1566 1.463 . S
C1563 C1568 1.350 . S
C1563 N1571 1.427 . S
C1564 H1555 0.930 . S
C1564 C1562 1.378 1_556 S
C1564 C1565 1.367 . S
C1565 C1564 1.367 . S
C1565 C1567 1.433 . S
C1566 C1562 1.350 . S
C1566 C1563 1.463 . S
C1566 N1570 1.427 1_554 S
C1567 H1557 0.929 . S
C1567 C1565 1.433 . S
C1567 N1570 1.384 . S
C1568 H1559 0.929 . S
C1568 C1560 1.378 . S
C1568 C1563 1.350 . S
C1569 H1556 0.929 . S
C1569 C1561 1.433 . S
C1569 N1571 1.384 . S
N1570 C1566 1.427 1_556 S
N1570 C1567 1.384 . S
N1571 C1563 1.427 . S
N1571 C1569 1.384 . S
H1572 C1578 0.930 1_455 S
H1573 C1582 0.930 . S
H1574 C1587 0.929 . S
H1575 C1585 0.929 . S
H1576 C1580 0.929 . S
H1577 C1586 0.929 . S
C1578 H1572 0.930 1_655 S
C1578 C1579 1.367 . S
C1578 C1586 1.378 . S
C1579 C1578 1.367 . S
C1579 C1587 1.433 . S
C1580 H1576 0.929 . S
C1580 C1582 1.378 . S
C1580 C1584 1.350 . S
C1581 C1584 1.463 . S
C1581 C1586 1.350 . S
C1581 N1589 1.427 . S
C1582 H1573 0.930 . S
C1582 C1580 1.378 . S
C1582 C1583 1.367 . S
C1583 C1582 1.367 . S
C1583 C1585 1.433 . S
C1584 C1580 1.350 . S
C1584 C1581 1.463 . S
C1584 N1588 1.427 . S
C1585 H1575 0.929 . S
C1585 C1583 1.433 . S
C1585 N1588 1.384 . S
C1586 H1577 0.929 . S
C1586 C1578 1.378 . S
C1586 C1581 1.350 . S
C1587 H1574 0.929 . S
C1587 C1579 1.433 . S
C1587 N1589 1.384 . S
N1588 C1584 1.427 . S
N1588 C1585 1.384 . S
N1589 C1581 1.427 . S
N1589 C1587 1.384 . S
H1590 C1596 0.930 . S
H1591 C1600 0.930 . S
H1592 C1605 0.929 . S
H1593 C1603 0.929 . S
H1594 C1598 0.929 . S
H1595 C1604 0.929 . S
C1596 H1590 0.930 . S
C1596 C1597 1.367 . S
C1596 C1604 1.378 . S
C1597 C1596 1.367 . S
C1597 C1605 1.433 . S
C1598 H1594 0.929 . S
C1598 C1600 1.378 . S
C1598 C1602 1.350 . S
C1599 C1602 1.463 . S
C1599 C1604 1.350 . S
C1599 N1607 1.427 . S
C1600 H1591 0.930 . S
C1600 C1598 1.378 . S
C1600 C1601 1.367 . S
C1601 C1600 1.367 . S
C1601 C1603 1.433 . S
C1602 C1598 1.350 . S
C1602 C1599 1.463 . S
C1602 N1606 1.427 . S
C1603 H1593 0.929 . S
C1603 C1601 1.433 . S
C1603 N1606 1.384 . S
C1604 H1595 0.929 . S
C1604 C1596 1.378 . S
C1604 C1599 1.350 . S
C1605 H1592 0.929 . S
C1605 C1597 1.433 . S
C1605 N1607 1.384 . S
N1606 C1602 1.427 . S
N1606 C1603 1.384 . S
N1607 C1599 1.427 . S
N1607 C1605 1.384 . S
H1608 C1614 0.930 . S
H1609 C1618 0.930 . S
H1610 C1623 0.929 . S
H1611 C1621 0.929 . S
H1612 C1616 0.929 . S
H1613 C1622 0.929 . S
C1614 H1608 0.930 . S
C1614 C1615 1.367 . S
C1614 C1622 1.378 . S
C1615 C1614 1.367 . S
C1615 C1623 1.433 . S
C1616 H1612 0.929 . S
C1616 C1618 1.378 . S
C1616 C1620 1.350 . S
C1617 C1620 1.463 . S
C1617 C1622 1.350 . S
C1617 N1625 1.427 . S
C1618 H1609 0.930 . S
C1618 C1616 1.378 . S
C1618 C1619 1.367 . S
C1619 C1618 1.367 . S
C1619 C1621 1.433 . S
C1620 C1616 1.350 . S
C1620 C1617 1.463 . S
C1620 N1624 1.427 . S
C1621 H1611 0.929 . S
C1621 C1619 1.433 . S
C1621 N1624 1.384 . S
C1622 H1613 0.929 . S
C1622 C1614 1.378 . S
C1622 C1617 1.350 . S
C1623 H1610 0.929 . S
C1623 C1615 1.433 . S
C1623 N1625 1.384 . S
N1624 C1620 1.427 . S
N1624 C1621 1.384 . S
N1625 C1617 1.427 . S
N1625 C1623 1.384 . S
H1626 C1632 0.930 . S
H1627 C1636 0.930 . S
H1628 C1641 0.929 . S
H1629 C1639 0.929 . S
H1630 C1634 0.915 1_455 S
H1631 C1640 0.929 . S
C1632 H1626 0.930 . S
C1632 C1633 1.367 . S
C1632 C1640 1.378 . S
C1633 C1632 1.367 . S
C1633 C1641 1.433 1_655 S
C1634 H1630 0.915 1_655 S
C1634 C1636 1.378 . S
C1634 C1638 1.350 . S
C1635 C1638 1.463 . S
C1635 C1640 1.350 1_554 S
C1635 N1643 1.427 . S
C1636 H1627 0.930 . S
C1636 C1634 1.378 . S
C1636 C1637 1.367 . S
C1637 C1636 1.367 . S
C1637 C1639 1.433 . S
C1638 C1634 1.350 . S
C1638 C1635 1.463 . S
C1638 N1642 1.427 . S
C1639 H1629 0.929 . S
C1639 C1637 1.433 . S
C1639 N1642 1.384 . S
C1640 H1631 0.929 . S
C1640 C1632 1.378 . S
C1640 C1635 1.350 1_556 S
C1641 H1628 0.929 . S
C1641 C1633 1.433 1_455 S
C1641 N1643 1.384 1_456 S
N1642 C1638 1.427 . S
N1642 C1639 1.384 . S
N1643 C1635 1.427 . S
N1643 C1641 1.384 1_654 S
H1644 C1650 0.930 . S
H1645 C1654 0.930 . S
H1646 C1659 0.929 . S
H1647 C1657 0.929 . S
H1648 C1652 0.929 . S
H1649 C1658 0.929 . S
C1650 H1644 0.930 . S
C1650 C1651 1.367 . S
C1650 C1658 1.378 . S
C1651 C1650 1.367 . S
C1651 C1659 1.433 . S
C1652 H1648 0.929 . S
C1652 C1654 1.378 . S
C1652 C1656 1.350 . S
C1653 C1656 1.463 . S
C1653 C1658 1.350 . S
C1653 N1661 1.427 . S
C1654 H1645 0.930 . S
C1654 C1652 1.378 . S
C1654 C1655 1.367 . S
C1655 C1654 1.367 . S
C1655 C1657 1.433 . S
C1656 C1652 1.350 . S
C1656 C1653 1.463 . S
C1656 N1660 1.427 . S
C1657 H1647 0.929 . S
C1657 C1655 1.433 . S
C1657 N1660 1.384 . S
C1658 H1649 0.929 . S
C1658 C1650 1.378 . S
C1658 C1653 1.350 . S
C1659 H1646 0.929 . S
C1659 C1651 1.433 . S
C1659 N1661 1.384 . S
N1660 C1656 1.427 . S
N1660 C1657 1.384 . S
N1661 C1653 1.427 . S
N1661 C1659 1.384 . S
H1662 C1668 0.930 . S
H1663 C1672 0.930 . S
H1664 C1677 0.929 . S
H1665 C1675 0.929 . S
H1666 C1670 0.929 . S
H1667 C1676 0.929 . S
C1668 H1662 0.930 . S
C1668 C1669 1.367 . S
C1668 C1676 1.378 . S
C1669 C1668 1.367 . S
C1669 C1677 1.433 . S
C1670 H1666 0.929 . S
C1670 C1672 1.378 . S
C1670 C1674 1.350 . S
C1671 C1674 1.463 . S
C1671 C1676 1.350 . S
C1671 N1679 1.427 . S
C1672 H1663 0.930 . S
C1672 C1670 1.378 . S
C1672 C1673 1.367 . S
C1673 C1672 1.367 . S
C1673 C1675 1.433 . S
C1674 C1670 1.350 . S
C1674 C1671 1.463 . S
C1674 N1678 1.427 . S
C1675 H1665 0.929 . S
C1675 C1673 1.433 . S
C1675 N1678 1.384 . S
C1676 H1667 0.929 . S
C1676 C1668 1.378 . S
C1676 C1671 1.350 . S
C1677 H1664 0.929 . S
C1677 C1669 1.433 . S
C1677 N1679 1.384 . S
N1678 C1674 1.427 . S
N1678 C1675 1.384 . S
N1679 C1671 1.427 . S
N1679 C1677 1.384 . S
H1680 C1686 0.930 . S
H1681 C1690 0.930 . S
H1682 C1695 0.929 . S
H1683 C1693 0.929 . S
H1684 C1688 0.929 . S
H1685 C1694 0.929 . S
C1686 H1680 0.930 . S
C1686 C1687 1.367 . S
C1686 C1694 1.378 . S
C1687 C1686 1.367 . S
C1687 C1695 1.433 . S
C1688 H1684 0.929 . S
C1688 C1690 1.378 . S
C1688 C1692 1.350 . S
C1689 C1692 1.463 . S
C1689 C1694 1.350 . S
C1689 N1697 1.427 . S
C1690 H1681 0.930 . S
C1690 C1688 1.378 . S
C1690 C1691 1.367 . S
C1691 C1690 1.367 . S
C1691 C1693 1.433 . S
C1692 C1688 1.350 . S
C1692 C1689 1.463 . S
C1692 N1696 1.427 . S
C1693 H1683 0.929 . S
C1693 C1691 1.433 . S
C1693 N1696 1.384 . S
C1694 H1685 0.929 . S
C1694 C1686 1.378 . S
C1694 C1689 1.350 . S
C1695 H1682 0.929 . S
C1695 C1687 1.433 . S
C1695 N1697 1.384 . S
N1696 C1692 1.427 . S
N1696 C1693 1.384 . S
N1697 C1689 1.427 . S
N1697 C1695 1.384 . S
H1698 C1704 0.930 . S
H1699 C1708 0.930 . S
H1700 C1713 0.929 1_554 S
H1701 C1711 0.929 . S
H1702 C1706 0.929 . S
H1703 C1712 0.929 . S
C1704 H1698 0.930 . S
C1704 C1705 1.367 . S
C1704 C1712 1.378 . S
C1705 C1704 1.367 . S
C1705 C1713 1.433 . S
C1706 H1702 0.929 . S
C1706 C1708 1.378 . S
C1706 C1710 1.350 . S
C1707 C1710 1.463 . S
C1707 C1712 1.350 . S
C1707 N1715 1.427 . S
C1708 H1699 0.930 . S
C1708 C1706 1.378 . S
C1708 C1709 1.367 . S
C1709 C1708 1.367 . S
C1709 C1711 1.433 . S
C1710 C1706 1.350 . S
C1710 C1707 1.463 . S
C1710 N1714 1.427 . S
C1711 H1701 0.929 . S
C1711 C1709 1.433 . S
C1711 N1714 1.384 . S
C1712 H1703 0.929 . S
C1712 C1704 1.378 . S
C1712 C1707 1.350 . S
C1713 H1700 0.929 1_556 S
C1713 C1705 1.433 . S
C1713 N1715 1.384 . S
N1714 C1710 1.427 . S
N1714 C1711 1.384 . S
N1715 C1707 1.427 . S
N1715 C1713 1.384 . S
H1716 C1722 0.930 . S
H1717 C1726 0.930 . S
H1718 C1731 0.929 . S
H1719 C1729 0.929 . S
H1720 C1724 0.929 . S
H1721 C1730 0.929 . S
C1722 H1716 0.930 . S
C1722 C1723 1.367 . S
C1722 C1730 1.378 . S
C1723 C1722 1.367 . S
C1723 C1731 1.433 . S
C1724 H1720 0.929 . S
C1724 C1726 1.378 . S
C1724 C1728 1.350 . S
C1725 C1728 1.463 . S
C1725 C1730 1.350 . S
C1725 N1733 1.427 . S
C1726 H1717 0.930 . S
C1726 C1724 1.378 . S
C1726 C1727 1.367 . S
C1727 C1726 1.367 . S
C1727 C1729 1.433 . S
C1728 C1724 1.350 . S
C1728 C1725 1.463 . S
C1728 N1732 1.427 . S
C1729 H1719 0.929 . S
C1729 C1727 1.433 . S
C1729 N1732 1.384 . S
C1730 H1721 0.929 . S
C1730 C1722 1.378 . S
C1730 C1725 1.350 . S
C1731 H1718 0.929 . S
C1731 C1723 1.433 . S
C1731 N1733 1.384 . S
N1732 C1728 1.427 . S
N1732 C1729 1.384 . S
N1733 C1725 1.427 . S
N1733 C1731 1.384 . S
H1734 C1740 0.930 . S
H1735 C1744 0.930 . S
H1736 C1749 0.929 . S
H1737 C1747 0.929 . S
H1738 C1742 0.929 . S
H1739 C1748 0.929 . S
C1740 H1734 0.930 . S
C1740 C1741 1.367 . S
C1740 C1748 1.378 . S
C1741 C1740 1.367 . S
C1741 C1749 1.433 . S
C1742 H1738 0.929 . S
C1742 C1744 1.378 . S
C1742 C1746 1.350 . S
C1743 C1746 1.463 . S
C1743 C1748 1.350 . S
C1743 N1751 1.427 . S
C1744 H1735 0.930 . S
C1744 C1742 1.378 . S
C1744 C1745 1.367 . S
C1745 C1744 1.367 . S
C1745 C1747 1.433 . S
C1746 C1742 1.350 . S
C1746 C1743 1.463 . S
C1746 N1750 1.427 . S
C1747 H1737 0.929 . S
C1747 C1745 1.433 . S
C1747 N1750 1.384 . S
C1748 H1739 0.929 . S
C1748 C1740 1.378 . S
C1748 C1743 1.350 . S
C1749 H1736 0.929 . S
C1749 C1741 1.433 . S
C1749 N1751 1.384 . S
N1750 C1746 1.427 . S
N1750 C1747 1.384 . S
N1751 C1743 1.427 . S
N1751 C1749 1.384 . S
H1752 C1758 0.930 . S
H1753 C1762 0.930 . S
H1754 C1767 0.929 . S
H1755 C1765 0.929 . S
H1756 C1760 0.929 . S
H1757 C1766 0.929 . S
C1758 H1752 0.930 . S
C1758 C1759 1.367 . S
C1758 C1766 1.378 . S
C1759 C1758 1.367 . S
C1759 C1767 1.433 . S
C1760 H1756 0.929 . S
C1760 C1762 1.378 . S
C1760 C1764 1.350 . S
C1761 C1764 1.463 . S
C1761 C1766 1.350 . S
C1761 N1769 1.427 . S
C1762 H1753 0.930 . S
C1762 C1760 1.378 . S
C1762 C1763 1.367 . S
C1763 C1762 1.367 . S
C1763 C1765 1.433 . S
C1764 C1760 1.350 . S
C1764 C1761 1.463 . S
C1764 N1768 1.427 . S
C1765 H1755 0.929 . S
C1765 C1763 1.433 . S
C1765 N1768 1.384 . S
C1766 H1757 0.929 . S
C1766 C1758 1.378 . S
C1766 C1761 1.350 . S
C1767 H1754 0.929 . S
C1767 C1759 1.433 . S
C1767 N1769 1.384 . S
N1768 C1764 1.427 . S
N1768 C1765 1.384 . S
N1769 C1761 1.427 . S
N1769 C1767 1.384 . S
H1770 C1776 0.930 . S
H1771 C1780 0.930 . S
H1772 C1785 0.929 . S
H1773 C1783 0.929 . S
H1774 C1778 0.929 . S
H1775 C1784 0.929 . S
C1776 H1770 0.930 . S
C1776 C1777 1.367 . S
C1776 C1784 1.378 . S
C1777 C1776 1.367 . S
C1777 C1785 1.433 . S
C1778 H1774 0.929 . S
C1778 C1780 1.378 . S
C1778 C1782 1.350 . S
C1779 C1782 1.463 . S
C1779 C1784 1.350 . S
C1779 N1787 1.427 . S
C1780 H1771 0.930 . S
C1780 C1778 1.378 . S
C1780 C1781 1.367 . S
C1781 C1780 1.367 . S
C1781 C1783 1.433 . S
C1782 C1778 1.350 . S
C1782 C1779 1.463 . S
C1782 N1786 1.427 . S
C1783 H1773 0.929 . S
C1783 C1781 1.433 . S
C1783 N1786 1.384 . S
C1784 H1775 0.929 . S
C1784 C1776 1.378 . S
C1784 C1779 1.350 . S
C1785 H1772 0.929 . S
C1785 C1777 1.433 . S
C1785 N1787 1.384 . S
N1786 C1782 1.427 . S
N1786 C1783 1.384 . S
N1787 C1779 1.427 . S
N1787 C1785 1.384 . S
H1788 C1794 0.930 . S
H1789 C1798 0.930 . S
H1790 C1803 0.929 . S
H1791 C1801 0.929 . S
H1792 C1796 0.929 . S
H1793 C1802 0.929 . S
C1794 H1788 0.930 . S
C1794 C1795 1.367 . S
C1794 C1802 1.378 . S
C1795 C1794 1.367 . S
C1795 C1803 1.433 . S
C1796 H1792 0.929 . S
C1796 C1798 1.378 . S
C1796 C1800 1.350 . S
C1797 C1800 1.463 . S
C1797 C1802 1.350 . S
C1797 N1805 1.427 . S
C1798 H1789 0.930 . S
C1798 C1796 1.378 . S
C1798 C1799 1.367 . S
C1799 C1798 1.367 . S
C1799 C1801 1.433 . S
C1800 C1796 1.350 . S
C1800 C1797 1.463 . S
C1800 N1804 1.427 . S
C1801 H1791 0.929 . S
C1801 C1799 1.433 . S
C1801 N1804 1.384 . S
C1802 H1793 0.929 . S
C1802 C1794 1.378 . S
C1802 C1797 1.350 . S
C1803 H1790 0.929 . S
C1803 C1795 1.433 . S
C1803 N1805 1.384 . S
N1804 C1800 1.427 . S
N1804 C1801 1.384 . S
N1805 C1797 1.427 . S
N1805 C1803 1.384 . S
H1806 C1812 0.930 . S
H1807 C1816 0.930 . S
H1808 C1821 0.929 . S
H1809 C1819 0.929 . S
H1810 C1814 0.929 . S
H1811 C1820 0.929 . S
C1812 H1806 0.930 . S
C1812 C1813 1.367 . S
C1812 C1820 1.378 . S
C1813 C1812 1.367 . S
C1813 C1821 1.433 . S
C1814 H1810 0.929 . S
C1814 C1816 1.378 . S
C1814 C1818 1.350 . S
C1815 C1818 1.463 . S
C1815 C1820 1.350 . S
C1815 N1823 1.427 . S
C1816 H1807 0.930 . S
C1816 C1814 1.378 . S
C1816 C1817 1.367 . S
C1817 C1816 1.367 . S
C1817 C1819 1.433 . S
C1818 C1814 1.350 . S
C1818 C1815 1.463 . S
C1818 N1822 1.427 . S
C1819 H1809 0.929 . S
C1819 C1817 1.433 . S
C1819 N1822 1.384 . S
C1820 H1811 0.929 . S
C1820 C1812 1.378 . S
C1820 C1815 1.350 . S
C1821 H1808 0.929 . S
C1821 C1813 1.433 . S
C1821 N1823 1.384 . S
N1822 C1818 1.427 . S
N1822 C1819 1.384 . S
N1823 C1815 1.427 . S
N1823 C1821 1.384 . S
H1824 C1830 0.930 . S
H1825 C1834 0.930 . S
H1826 C1839 0.929 . S
H1827 C1837 0.929 . S
H1828 C1832 0.929 . S
H1829 C1838 0.929 . S
C1830 H1824 0.930 . S
C1830 C1831 1.367 . S
C1830 C1838 1.378 . S
C1831 C1830 1.367 . S
C1831 C1839 1.433 . S
C1832 H1828 0.929 . S
C1832 C1834 1.378 . S
C1832 C1836 1.350 . S
C1833 C1836 1.463 . S
C1833 C1838 1.350 . S
C1833 N1841 1.427 . S
C1834 H1825 0.930 . S
C1834 C1832 1.378 . S
C1834 C1835 1.367 . S
C1835 C1834 1.367 . S
C1835 C1837 1.433 . S
C1836 C1832 1.350 . S
C1836 C1833 1.463 . S
C1836 N1840 1.427 . S
C1837 H1827 0.929 . S
C1837 C1835 1.433 . S
C1837 N1840 1.384 . S
C1838 H1829 0.929 . S
C1838 C1830 1.378 . S
C1838 C1833 1.350 . S
C1839 H1826 0.929 . S
C1839 C1831 1.433 . S
C1839 N1841 1.384 . S
N1840 C1836 1.427 . S
N1840 C1837 1.384 . S
N1841 C1833 1.427 . S
N1841 C1839 1.384 . S
H1842 C1848 0.930 . S
H1843 C1852 0.930 . S
H1844 C1857 0.929 . S
H1845 C1855 0.929 . S
H1846 C1850 0.929 . S
H1847 C1856 0.929 . S
C1848 H1842 0.930 . S
C1848 C1849 1.367 . S
C1848 C1856 1.378 . S
C1849 C1848 1.367 . S
C1849 C1857 1.433 . S
C1850 H1846 0.929 . S
C1850 C1852 1.378 . S
C1850 C1854 1.350 . S
C1851 C1854 1.463 . S
C1851 C1856 1.350 . S
C1851 N1859 1.427 . S
C1852 H1843 0.930 . S
C1852 C1850 1.378 . S
C1852 C1853 1.367 . S
C1853 C1852 1.367 . S
C1853 C1855 1.433 . S
C1854 C1850 1.350 . S
C1854 C1851 1.463 . S
C1854 N1858 1.427 . S
C1855 H1845 0.929 . S
C1855 C1853 1.433 . S
C1855 N1858 1.384 . S
C1856 H1847 0.929 . S
C1856 C1848 1.378 . S
C1856 C1851 1.350 . S
C1857 H1844 0.929 . S
C1857 C1849 1.433 . S
C1857 N1859 1.384 . S
N1858 C1854 1.427 . S
N1858 C1855 1.384 . S
N1859 C1851 1.427 . S
N1859 C1857 1.384 . S
H1860 C1866 0.930 . S
H1861 C1870 0.930 . S
H1862 C1875 0.929 . S
H1863 C1873 0.901 1_545 S
H1864 C1868 0.929 . S
H1865 C1874 0.929 . S
C1866 H1860 0.930 . S
C1866 C1867 1.367 . S
C1866 C1874 1.378 . S
C1867 C1866 1.367 . S
C1867 C1875 1.433 1_545 S
C1868 H1864 0.929 . S
C1868 C1870 1.378 . S
C1868 C1872 1.350 . S
C1869 C1872 1.463 . S
C1869 C1874 1.350 1_565 S
C1869 N1877 1.427 . S
C1870 H1861 0.930 . S
C1870 C1868 1.378 . S
C1870 C1871 1.367 . S
C1871 C1870 1.367 . S
C1871 C1873 1.470 . S
C1872 C1868 1.350 . S
C1872 C1869 1.463 . S
C1872 N1876 1.427 1_565 S
C1873 H1863 0.901 1_565 S
C1873 C1871 1.470 . S
C1873 N1876 1.378 1_565 S
C1874 H1865 0.929 . S
C1874 C1866 1.378 . S
C1874 C1869 1.350 1_545 S
C1875 H1862 0.929 . S
C1875 C1867 1.433 1_565 S
C1875 N1877 1.384 . S
N1876 C1872 1.427 1_545 S
N1876 C1873 1.378 1_545 S
N1877 C1869 1.427 . S
N1877 C1875 1.384 . S
H1878 C1884 0.930 . S
H1879 C1888 0.930 . S
H1880 C1893 0.929 . S
H1881 C1891 0.929 . S
H1882 C1886 0.929 . S
H1883 C1892 0.929 . S
C1884 H1878 0.930 . S
C1884 C1885 1.367 . S
C1884 C1892 1.378 . S
C1885 C1884 1.367 . S
C1885 C1893 1.433 . S
C1886 H1882 0.929 . S
C1886 C1888 1.378 . S
C1886 C1890 1.350 . S
C1887 C1890 1.463 . S
C1887 C1892 1.350 . S
C1887 N1895 1.427 . S
C1888 H1879 0.930 . S
C1888 C1886 1.378 . S
C1888 C1889 1.367 . S
C1889 C1888 1.367 . S
C1889 C1891 1.433 . S
C1890 C1886 1.350 . S
C1890 C1887 1.463 . S
C1890 N1894 1.427 . S
C1891 H1881 0.929 . S
C1891 C1889 1.433 . S
C1891 N1894 1.384 . S
C1892 H1883 0.929 . S
C1892 C1884 1.378 . S
C1892 C1887 1.350 . S
C1893 H1880 0.929 . S
C1893 C1885 1.433 . S
C1893 N1895 1.384 . S
N1894 C1890 1.427 . S
N1894 C1891 1.384 . S
N1895 C1887 1.427 . S
N1895 C1893 1.384 . S
H1896 C1902 0.930 . S
H1897 C1906 0.930 . S
H1898 C1911 0.929 . S
H1899 C1909 0.929 . S
H1900 C1904 0.929 . S
H1901 C1910 0.929 . S
C1902 H1896 0.930 . S
C1902 C1903 1.367 . S
C1902 C1910 1.378 . S
C1903 C1902 1.367 . S
C1903 C1911 1.433 . S
C1904 H1900 0.929 . S
C1904 C1906 1.378 . S
C1904 C1908 1.350 . S
C1905 C1908 1.463 . S
C1905 C1910 1.350 . S
C1905 N1913 1.427 . S
C1906 H1897 0.930 . S
C1906 C1904 1.378 . S
C1906 C1907 1.367 . S
C1907 C1906 1.367 . S
C1907 C1909 1.433 . S
C1908 C1904 1.350 . S
C1908 C1905 1.463 . S
C1908 N1912 1.427 . S
C1909 H1899 0.929 . S
C1909 C1907 1.433 . S
C1909 N1912 1.384 . S
C1910 H1901 0.929 . S
C1910 C1902 1.378 . S
C1910 C1905 1.350 . S
C1911 H1898 0.929 . S
C1911 C1903 1.433 . S
C1911 N1913 1.384 . S
N1912 C1908 1.427 . S
N1912 C1909 1.384 . S
N1913 C1905 1.427 . S
N1913 C1911 1.384 . S
H1914 C1920 0.930 . S
H1915 C1924 0.930 . S
H1916 C1929 0.929 . S
H1917 C1927 0.929 . S
H1918 C1922 0.929 . S
H1919 C1928 0.929 . S
C1920 H1914 0.930 . S
C1920 C1921 1.367 . S
C1920 C1928 1.378 . S
C1921 C1920 1.367 . S
C1921 C1929 1.433 . S
C1922 H1918 0.929 . S
C1922 C1924 1.378 . S
C1922 C1926 1.350 . S
C1923 C1926 1.463 . S
C1923 C1928 1.350 . S
C1923 N1931 1.427 . S
C1924 H1915 0.930 . S
C1924 C1922 1.378 . S
C1924 C1925 1.367 . S
C1925 C1924 1.367 . S
C1925 C1927 1.433 . S
C1926 C1922 1.350 . S
C1926 C1923 1.463 . S
C1926 N1930 1.427 . S
C1927 H1917 0.929 . S
C1927 C1925 1.433 . S
C1927 N1930 1.384 . S
C1928 H1919 0.929 . S
C1928 C1920 1.378 . S
C1928 C1923 1.350 . S
C1929 H1916 0.929 . S
C1929 C1921 1.433 . S
C1929 N1931 1.384 . S
N1930 C1926 1.427 . S
N1930 C1927 1.384 . S
N1931 C1923 1.427 . S
N1931 C1929 1.384 . S
H1932 C1938 0.930 . S
H1933 C1942 0.930 . S
H1934 C1947 0.929 . S
H1935 C1945 0.929 . S
H1936 C1940 0.929 . S
H1937 C1946 0.929 . S
C1938 H1932 0.930 . S
C1938 C1939 1.367 . S
C1938 C1946 1.378 . S
C1939 C1938 1.367 . S
C1939 C1947 1.433 . S
C1940 H1936 0.929 . S
C1940 C1942 1.378 . S
C1940 C1944 1.350 . S
C1941 C1944 1.463 . S
C1941 C1946 1.350 . S
C1941 N1949 1.427 . S
C1942 H1933 0.930 . S
C1942 C1940 1.378 . S
C1942 C1943 1.367 . S
C1943 C1942 1.367 . S
C1943 C1945 1.433 . S
C1944 C1940 1.350 . S
C1944 C1941 1.463 . S
C1944 N1948 1.427 . S
C1945 H1935 0.929 . S
C1945 C1943 1.433 . S
C1945 N1948 1.384 . S
C1946 H1937 0.929 . S
C1946 C1938 1.378 . S
C1946 C1941 1.350 . S
C1947 H1934 0.929 . S
C1947 C1939 1.433 . S
C1947 N1949 1.384 . S
N1948 C1944 1.427 . S
N1948 C1945 1.384 . S
N1949 C1941 1.427 . S
N1949 C1947 1.384 . S
H1950 C1956 0.930 . S
H1951 C1960 0.930 . S
H1952 C1965 0.929 1_545 S
H1953 C1963 0.929 . S
H1954 C1958 0.929 . S
H1955 C1964 0.929 . S
C1956 H1950 0.930 . S
C1956 C1957 1.367 . S
C1956 C1964 1.378 . S
C1957 C1956 1.367 . S
C1957 C1965 1.433 . S
C1958 H1954 0.929 . S
C1958 C1960 1.378 . S
C1958 C1962 1.350 . S
C1959 C1962 1.463 1_655 S
C1959 C1964 1.350 . S
C1959 N1967 1.427 . S
C1960 H1951 0.930 . S
C1960 C1958 1.378 . S
C1960 C1961 1.367 . S
C1961 C1960 1.367 . S
C1961 C1963 1.433 . S
C1962 C1958 1.350 . S
C1962 C1959 1.463 1_455 S
C1962 N1966 1.427 . S
C1963 H1953 0.929 . S
C1963 C1961 1.433 . S
C1963 N1966 1.384 . S
C1964 H1955 0.929 . S
C1964 C1956 1.378 . S
C1964 C1959 1.350 . S
C1965 H1952 0.929 1_565 S
C1965 C1957 1.433 . S
C1965 N1967 1.384 . S
N1966 C1962 1.427 . S
N1966 C1963 1.384 . S
N1967 C1959 1.427 . S
N1967 C1965 1.384 . S
H1968 C1974 0.930 . S
H1969 C1978 0.930 . S
H1970 C1983 0.929 . S
H1971 C1981 0.929 . S
H1972 C1976 0.929 . S
H1973 C1982 0.929 . S
C1974 H1968 0.930 . S
C1974 C1975 1.367 . S
C1974 C1982 1.378 . S
C1975 C1974 1.367 . S
C1975 C1983 1.433 . S
C1976 H1972 0.929 . S
C1976 C1978 1.378 . S
C1976 C1980 1.350 . S
C1977 C1980 1.463 . S
C1977 C1982 1.350 . S
C1977 N1985 1.427 . S
C1978 H1969 0.930 . S
C1978 C1976 1.378 . S
C1978 C1979 1.367 . S
C1979 C1978 1.367 . S
C1979 C1981 1.433 . S
C1980 C1976 1.350 . S
C1980 C1977 1.463 . S
C1980 N1984 1.427 . S
C1981 H1971 0.929 . S
C1981 C1979 1.433 . S
C1981 N1984 1.384 . S
C1982 H1973 0.929 . S
C1982 C1974 1.378 . S
C1982 C1977 1.350 . S
C1983 H1970 0.929 . S
C1983 C1975 1.433 . S
C1983 N1985 1.384 . S
N1984 C1980 1.427 . S
N1984 C1981 1.384 . S
N1985 C1977 1.427 . S
N1985 C1983 1.384 . S
H1986 C1992 0.930 . S
H1987 C1996 0.930 . S
H1988 C2001 0.929 . S
H1989 C1999 0.929 . S
H1990 C1994 0.929 . S
H1991 C2000 0.929 . S
C1992 H1986 0.930 . S
C1992 C1993 1.367 . S
C1992 C2000 1.378 . S
C1993 C1992 1.367 . S
C1993 C2001 1.433 . S
C1994 H1990 0.929 . S
C1994 C1996 1.378 . S
C1994 C1998 1.350 . S
C1995 C1998 1.463 1_556 S
C1995 C2000 1.350 . S
C1995 N2003 1.427 . S
C1996 H1987 0.930 . S
C1996 C1994 1.378 . S
C1996 C1997 1.367 . S
C1997 C1996 1.367 . S
C1997 C1999 1.433 . S
C1998 C1994 1.350 . S
C1998 C1995 1.463 1_554 S
C1998 N2002 1.427 . S
C1999 H1989 0.929 . S
C1999 C1997 1.433 . S
C1999 N2002 1.384 . S
C2000 H1991 0.929 . S
C2000 C1992 1.378 . S
C2000 C1995 1.350 . S
C2001 H1988 0.929 . S
C2001 C1993 1.433 . S
C2001 N2003 1.384 . S
N2002 C1998 1.427 . S
N2002 C1999 1.384 . S
N2003 C1995 1.427 . S
N2003 C2001 1.384 . S
H2004 C2010 0.930 . S
H2005 C2014 0.930 . S
H2006 C2019 0.929 . S
H2007 C2017 0.929 . S
H2008 C2012 0.929 . S
H2009 C2018 0.929 . S
C2010 H2004 0.930 . S
C2010 C2011 1.367 . S
C2010 C2018 1.378 . S
C2011 C2010 1.367 . S
C2011 C2019 1.433 . S
C2012 H2008 0.929 . S
C2012 C2014 1.378 . S
C2012 C2016 1.350 . S
C2013 C2016 1.463 . S
C2013 C2018 1.350 . S
C2013 N2021 1.427 . S
C2014 H2005 0.930 . S
C2014 C2012 1.378 . S
C2014 C2015 1.367 . S
C2015 C2014 1.367 . S
C2015 C2017 1.433 . S
C2016 C2012 1.350 . S
C2016 C2013 1.463 . S
C2016 N2020 1.427 . S
C2017 H2007 0.929 . S
C2017 C2015 1.433 . S
C2017 N2020 1.384 . S
C2018 H2009 0.929 . S
C2018 C2010 1.378 . S
C2018 C2013 1.350 . S
C2019 H2006 0.929 . S
C2019 C2011 1.433 . S
C2019 N2021 1.384 . S
N2020 C2016 1.427 . S
N2020 C2017 1.384 . S
N2021 C2013 1.427 . S
N2021 C2019 1.384 . S
H2022 C2028 0.930 . S
H2023 C2032 0.930 . S
H2024 C2037 0.929 . S
H2025 C2035 0.929 . S
H2026 C2030 0.929 . S
H2027 C2036 0.929 . S
C2028 H2022 0.930 . S
C2028 C2029 1.367 . S
C2028 C2036 1.378 . S
C2029 C2028 1.367 . S
C2029 C2037 1.433 . S
C2030 H2026 0.929 . S
C2030 C2032 1.378 . S
C2030 C2034 1.350 . S
C2031 C2034 1.463 . S
C2031 C2036 1.350 . S
C2031 N2039 1.427 . S
C2032 H2023 0.930 . S
C2032 C2030 1.378 . S
C2032 C2033 1.367 . S
C2033 C2032 1.367 . S
C2033 C2035 1.433 . S
C2034 C2030 1.350 . S
C2034 C2031 1.463 . S
C2034 N2038 1.427 . S
C2035 H2025 0.929 . S
C2035 C2033 1.433 . S
C2035 N2038 1.384 . S
C2036 H2027 0.929 . S
C2036 C2028 1.378 . S
C2036 C2031 1.350 . S
C2037 H2024 0.929 . S
C2037 C2029 1.433 . S
C2037 N2039 1.384 . S
N2038 C2034 1.427 . S
N2038 C2035 1.384 . S
N2039 C2031 1.427 . S
N2039 C2037 1.384 . S
H2040 C2046 0.930 . S
H2041 C2050 0.930 . S
H2042 C2055 0.929 . S
H2043 C2053 0.929 . S
H2044 C2048 0.929 . S
H2045 C2054 0.929 . S
C2046 H2040 0.930 . S
C2046 C2047 1.367 . S
C2046 C2054 1.378 . S
C2047 C2046 1.367 . S
C2047 C2055 1.433 . S
C2048 H2044 0.929 . S
C2048 C2050 1.378 . S
C2048 C2052 1.350 . S
C2049 C2052 1.463 . S
C2049 C2054 1.350 . S
C2049 N2057 1.427 . S
C2050 H2041 0.930 . S
C2050 C2048 1.378 . S
C2050 C2051 1.367 . S
C2051 C2050 1.367 . S
C2051 C2053 1.433 . S
C2052 C2048 1.350 . S
C2052 C2049 1.463 . S
C2052 N2056 1.427 . S
C2053 H2043 0.929 . S
C2053 C2051 1.433 . S
C2053 N2056 1.384 . S
C2054 H2045 0.929 . S
C2054 C2046 1.378 . S
C2054 C2049 1.350 . S
C2055 H2042 0.929 . S
C2055 C2047 1.433 . S
C2055 N2057 1.384 . S
N2056 C2052 1.427 . S
N2056 C2053 1.384 . S
N2057 C2049 1.427 . S
N2057 C2055 1.384 . S
H2058 C2064 0.930 . S
H2059 C2068 0.930 . S
H2060 C2073 0.929 . S
H2061 C2071 0.929 . S
H2062 C2066 0.929 1_554 S
H2063 C2072 0.929 . S
C2064 H2058 0.930 . S
C2064 C2065 1.367 . S
C2064 C2072 1.378 . S
C2065 C2064 1.367 . S
C2065 C2073 1.433 . S
C2066 H2062 0.929 1_556 S
C2066 C2068 1.378 . S
C2066 C2070 1.348 1_556 S
C2067 C2070 1.468 . S
C2067 C2072 1.350 . S
C2067 N2075 1.427 . S
C2068 H2059 0.930 . S
C2068 C2066 1.378 . S
C2068 C2069 1.367 . S
C2069 C2068 1.367 . S
C2069 C2071 1.433 . S
C2070 C2066 1.348 1_554 S
C2070 C2067 1.468 . S
C2070 N2074 1.423 1_554 S
C2071 H2061 0.929 . S
C2071 C2069 1.433 . S
C2071 N2074 1.384 . S
C2072 H2063 0.929 . S
C2072 C2064 1.378 . S
C2072 C2067 1.350 . S
C2073 H2060 0.929 . S
C2073 C2065 1.433 . S
C2073 N2075 1.384 . S
N2074 C2070 1.423 1_556 S
N2074 C2071 1.384 . S
N2075 C2067 1.427 . S
N2075 C2073 1.384 . S
H2076 C2082 0.930 . S
H2077 C2086 0.930 . S
H2078 C2091 0.929 . S
H2079 C2089 0.929 . S
H2080 C2084 0.929 . S
H2081 C2090 0.929 . S
C2082 H2076 0.930 . S
C2082 C2083 1.367 . S
C2082 C2090 1.378 . S
C2083 C2082 1.367 . S
C2083 C2091 1.433 . S
C2084 H2080 0.929 . S
C2084 C2086 1.378 . S
C2084 C2088 1.350 . S
C2085 C2088 1.463 . S
C2085 C2090 1.350 . S
C2085 N2093 1.427 . S
C2086 H2077 0.930 . S
C2086 C2084 1.378 . S
C2086 C2087 1.367 . S
C2087 C2086 1.367 . S
C2087 C2089 1.433 . S
C2088 C2084 1.350 . S
C2088 C2085 1.463 . S
C2088 N2092 1.427 . S
C2089 H2079 0.929 . S
C2089 C2087 1.433 . S
C2089 N2092 1.384 . S
C2090 H2081 0.929 . S
C2090 C2082 1.378 . S
C2090 C2085 1.350 . S
C2091 H2078 0.929 . S
C2091 C2083 1.433 . S
C2091 N2093 1.384 . S
N2092 C2088 1.427 . S
N2092 C2089 1.384 . S
N2093 C2085 1.427 . S
N2093 C2091 1.384 . S
H2094 C2100 0.930 . S
H2095 C2104 0.930 . S
H2096 C2109 0.929 . S
H2097 C2107 0.929 . S
H2098 C2102 0.929 . S
H2099 C2108 0.929 . S
C2100 H2094 0.930 . S
C2100 C2101 1.367 . S
C2100 C2108 1.378 . S
C2101 C2100 1.367 . S
C2101 C2109 1.433 . S
C2102 H2098 0.929 . S
C2102 C2104 1.378 . S
C2102 C2106 1.350 . S
C2103 C2106 1.463 . S
C2103 C2108 1.350 . S
C2103 N2111 1.427 . S
C2104 H2095 0.930 . S
C2104 C2102 1.378 . S
C2104 C2105 1.367 . S
C2105 C2104 1.367 . S
C2105 C2107 1.433 . S
C2106 C2102 1.350 . S
C2106 C2103 1.463 . S
C2106 N2110 1.427 . S
C2107 H2097 0.929 . S
C2107 C2105 1.433 . S
C2107 N2110 1.384 . S
C2108 H2099 0.929 . S
C2108 C2100 1.378 . S
C2108 C2103 1.350 . S
C2109 H2096 0.929 . S
C2109 C2101 1.433 . S
C2109 N2111 1.384 . S
N2110 C2106 1.427 . S
N2110 C2107 1.384 . S
N2111 C2103 1.427 . S
N2111 C2109 1.384 . S
H2112 C2118 0.930 . S
H2113 C2122 0.930 . S
H2114 C2127 0.929 . S
H2115 C2125 0.929 . S
H2116 C2120 0.929 . S
H2117 C2126 0.929 . S
C2118 H2112 0.930 . S
C2118 C2119 1.367 . S
C2118 C2126 1.378 . S
C2119 C2118 1.367 . S
C2119 C2127 1.433 . S
C2120 H2116 0.929 . S
C2120 C2122 1.378 . S
C2120 C2124 1.350 . S
C2121 C2124 1.463 . S
C2121 C2126 1.350 . S
C2121 N2129 1.427 . S
C2122 H2113 0.930 . S
C2122 C2120 1.378 . S
C2122 C2123 1.367 . S
C2123 C2122 1.367 . S
C2123 C2125 1.433 . S
C2124 C2120 1.350 . S
C2124 C2121 1.463 . S
C2124 N2128 1.427 . S
C2125 H2115 0.929 . S
C2125 C2123 1.433 . S
C2125 N2128 1.384 . S
C2126 H2117 0.929 . S
C2126 C2118 1.378 . S
C2126 C2121 1.350 . S
C2127 H2114 0.929 . S
C2127 C2119 1.433 . S
C2127 N2129 1.384 . S
N2128 C2124 1.427 . S
N2128 C2125 1.384 . S
N2129 C2121 1.427 . S
N2129 C2127 1.384 . S
H2130 C2136 0.930 . S
H2131 C2140 0.930 . S
H2132 C2145 0.929 . S
H2133 C2143 0.929 . S
H2134 C2138 0.929 . S
H2135 C2144 0.929 . S
C2136 H2130 0.930 . S
C2136 C2137 1.367 . S
C2136 C2144 1.378 . S
C2137 C2136 1.367 . S
C2137 C2145 1.433 . S
C2138 H2134 0.929 . S
C2138 C2140 1.378 . S
C2138 C2142 1.350 . S
C2139 C2142 1.463 . S
C2139 C2144 1.350 . S
C2139 N2147 1.427 . S
C2140 H2131 0.930 . S
C2140 C2138 1.378 . S
C2140 C2141 1.367 . S
C2141 C2140 1.367 . S
C2141 C2143 1.433 . S
C2142 C2138 1.350 . S
C2142 C2139 1.463 . S
C2142 N2146 1.427 . S
C2143 H2133 0.929 . S
C2143 C2141 1.433 . S
C2143 N2146 1.384 . S
C2144 H2135 0.929 . S
C2144 C2136 1.378 . S
C2144 C2139 1.350 . S
C2145 H2132 0.929 . S
C2145 C2137 1.433 . S
C2145 N2147 1.384 . S
N2146 C2142 1.427 . S
N2146 C2143 1.384 . S
N2147 C2139 1.427 . S
N2147 C2145 1.384 . S
H2148 C2154 0.930 . S
H2149 C2158 0.930 . S
H2150 C2163 0.929 . S
H2151 C2161 0.929 . S
H2152 C2156 0.929 . S
H2153 C2162 0.929 . S
C2154 H2148 0.930 . S
C2154 C2155 1.367 . S
C2154 C2162 1.378 . S
C2155 C2154 1.367 . S
C2155 C2163 1.433 . S
C2156 H2152 0.929 . S
C2156 C2158 1.378 . S
C2156 C2160 1.350 . S
C2157 C2160 1.463 . S
C2157 C2162 1.350 . S
C2157 N2165 1.427 . S
C2158 H2149 0.930 . S
C2158 C2156 1.378 . S
C2158 C2159 1.367 . S
C2159 C2158 1.367 . S
C2159 C2161 1.433 . S
C2160 C2156 1.350 . S
C2160 C2157 1.463 . S
C2160 N2164 1.427 . S
C2161 H2151 0.929 . S
C2161 C2159 1.433 . S
C2161 N2164 1.384 . S
C2162 H2153 0.929 . S
C2162 C2154 1.378 . S
C2162 C2157 1.350 . S
C2163 H2150 0.929 . S
C2163 C2155 1.433 . S
C2163 N2165 1.384 . S
N2164 C2160 1.427 . S
N2164 C2161 1.384 . S
N2165 C2157 1.427 . S
N2165 C2163 1.384 . S
H2166 C2172 0.930 . S
H2167 C2176 0.930 . S
H2168 C2181 0.929 . S
H2169 C2179 0.929 . S
H2170 C2174 0.929 . S
H2171 C2180 0.929 . S
C2172 H2166 0.930 . S
C2172 C2173 1.367 . S
C2172 C2180 1.378 . S
C2173 C2172 1.367 . S
C2173 C2181 1.433 . S
C2174 H2170 0.929 . S
C2174 C2176 1.378 . S
C2174 C2178 1.350 . S
C2175 C2178 1.463 . S
C2175 C2180 1.350 . S
C2175 N2183 1.427 . S
C2176 H2167 0.930 . S
C2176 C2174 1.378 . S
C2176 C2177 1.367 . S
C2177 C2176 1.367 . S
C2177 C2179 1.433 . S
C2178 C2174 1.350 . S
C2178 C2175 1.463 . S
C2178 N2182 1.427 . S
C2179 H2169 0.929 . S
C2179 C2177 1.433 . S
C2179 N2182 1.384 . S
C2180 H2171 0.929 . S
C2180 C2172 1.378 . S
C2180 C2175 1.350 . S
C2181 H2168 0.929 . S
C2181 C2173 1.433 . S
C2181 N2183 1.384 . S
N2182 C2178 1.427 . S
N2182 C2179 1.384 . S
N2183 C2175 1.427 . S
N2183 C2181 1.384 . S
H2184 C2190 0.930 . S
H2185 C2194 0.930 . S
H2186 C2199 0.929 . S
H2187 C2197 0.929 . S
H2188 C2192 0.929 . S
H2189 C2198 0.929 . S
C2190 H2184 0.930 . S
C2190 C2191 1.367 . S
C2190 C2198 1.378 . S
C2191 C2190 1.367 . S
C2191 C2199 1.433 . S
C2192 H2188 0.929 . S
C2192 C2194 1.378 . S
C2192 C2196 1.350 . S
C2193 C2196 1.463 . S
C2193 C2198 1.350 . S
C2193 N2201 1.427 . S
C2194 H2185 0.930 . S
C2194 C2192 1.378 . S
C2194 C2195 1.367 . S
C2195 C2194 1.367 . S
C2195 C2197 1.433 . S
C2196 C2192 1.350 . S
C2196 C2193 1.463 . S
C2196 N2200 1.427 . S
C2197 H2187 0.929 . S
C2197 C2195 1.433 . S
C2197 N2200 1.384 . S
C2198 H2189 0.929 . S
C2198 C2190 1.378 . S
C2198 C2193 1.350 . S
C2199 H2186 0.929 . S
C2199 C2191 1.433 . S
C2199 N2201 1.384 . S
N2200 C2196 1.427 . S
N2200 C2197 1.384 . S
N2201 C2193 1.427 . S
N2201 C2199 1.384 . S
H2202 C2208 0.930 . S
H2203 C2212 0.930 . S
H2204 C2217 0.929 1_554 S
H2205 C2215 0.929 . S
H2206 C2210 0.929 . S
H2207 C2216 0.929 . S
C2208 H2202 0.930 . S
C2208 C2209 1.367 . S
C2208 C2216 1.378 . S
C2209 C2208 1.367 . S
C2209 C2217 1.433 . S
C2210 H2206 0.929 . S
C2210 C2212 1.378 . S
C2210 C2214 1.350 . S
C2211 C2214 1.463 . S
C2211 C2216 1.350 . S
C2211 N2219 1.427 . S
C2212 H2203 0.930 . S
C2212 C2210 1.378 . S
C2212 C2213 1.367 . S
C2213 C2212 1.367 . S
C2213 C2215 1.433 . S
C2214 C2210 1.350 . S
C2214 C2211 1.463 . S
C2214 N2218 1.427 . S
C2215 H2205 0.929 . S
C2215 C2213 1.433 . S
C2215 N2218 1.384 . S
C2216 H2207 0.929 . S
C2216 C2208 1.378 . S
C2216 C2211 1.350 . S
C2217 H2204 0.929 1_556 S
C2217 C2209 1.433 . S
C2217 N2219 1.384 . S
N2218 C2214 1.427 . S
N2218 C2215 1.384 . S
N2219 C2211 1.427 . S
N2219 C2217 1.384 . S
H2220 C2226 0.930 . S
H2221 C2230 0.930 . S
H2222 C2235 0.929 . S
H2223 C2233 0.929 . S
H2224 C2228 0.929 . S
H2225 C2234 0.929 . S
C2226 H2220 0.930 . S
C2226 C2227 1.367 . S
C2226 C2234 1.378 . S
C2227 C2226 1.367 . S
C2227 C2235 1.433 . S
C2228 H2224 0.929 . S
C2228 C2230 1.378 . S
C2228 C2232 1.350 . S
C2229 C2232 1.463 . S
C2229 C2234 1.350 . S
C2229 N2237 1.427 . S
C2230 H2221 0.930 . S
C2230 C2228 1.378 . S
C2230 C2231 1.367 . S
C2231 C2230 1.367 . S
C2231 C2233 1.433 . S
C2232 C2228 1.350 . S
C2232 C2229 1.463 . S
C2232 N2236 1.427 . S
C2233 H2223 0.929 . S
C2233 C2231 1.433 . S
C2233 N2236 1.384 . S
C2234 H2225 0.929 . S
C2234 C2226 1.378 . S
C2234 C2229 1.350 . S
C2235 H2222 0.929 . S
C2235 C2227 1.433 . S
C2235 N2237 1.384 . S
N2236 C2232 1.427 . S
N2236 C2233 1.384 . S
N2237 C2229 1.427 . S
N2237 C2235 1.384 . S
H2238 C2244 0.930 . S
H2239 C2248 0.930 . S
H2240 C2253 0.929 . S
H2241 C2251 0.929 . S
H2242 C2246 0.929 . S
H2243 C2252 0.929 . S
C2244 H2238 0.930 . S
C2244 C2245 1.367 . S
C2244 C2252 1.378 . S
C2245 C2244 1.367 . S
C2245 C2253 1.433 . S
C2246 H2242 0.929 . S
C2246 C2248 1.378 . S
C2246 C2250 1.350 . S
C2247 C2250 1.463 . S
C2247 C2252 1.350 . S
C2247 N2255 1.427 . S
C2248 H2239 0.930 . S
C2248 C2246 1.378 . S
C2248 C2249 1.367 . S
C2249 C2248 1.367 . S
C2249 C2251 1.433 . S
C2250 C2246 1.350 . S
C2250 C2247 1.463 . S
C2250 N2254 1.427 . S
C2251 H2241 0.929 . S
C2251 C2249 1.433 . S
C2251 N2254 1.384 . S
C2252 H2243 0.929 . S
C2252 C2244 1.378 . S
C2252 C2247 1.350 . S
C2253 H2240 0.929 . S
C2253 C2245 1.433 . S
C2253 N2255 1.384 . S
N2254 C2250 1.427 . S
N2254 C2251 1.384 . S
N2255 C2247 1.427 . S
N2255 C2253 1.384 . S
H2256 C2262 0.930 . S
H2257 C2266 0.930 . S
H2258 C2271 0.929 . S
H2259 C2269 0.929 . S
H2260 C2264 0.929 . S
H2261 C2270 0.929 . S
C2262 H2256 0.930 . S
C2262 C2263 1.367 . S
C2262 C2270 1.378 . S
C2263 C2262 1.367 . S
C2263 C2271 1.433 . S
C2264 H2260 0.929 . S
C2264 C2266 1.378 . S
C2264 C2268 1.350 . S
C2265 C2268 1.463 . S
C2265 C2270 1.350 . S
C2265 N2273 1.427 . S
C2266 H2257 0.930 . S
C2266 C2264 1.378 . S
C2266 C2267 1.367 . S
C2267 C2266 1.367 . S
C2267 C2269 1.433 . S
C2268 C2264 1.350 . S
C2268 C2265 1.463 . S
C2268 N2272 1.427 . S
C2269 H2259 0.929 . S
C2269 C2267 1.433 . S
C2269 N2272 1.384 . S
C2270 H2261 0.929 . S
C2270 C2262 1.378 . S
C2270 C2265 1.350 . S
C2271 H2258 0.929 . S
C2271 C2263 1.433 . S
C2271 N2273 1.384 . S
N2272 C2268 1.427 . S
N2272 C2269 1.384 . S
N2273 C2265 1.427 . S
N2273 C2271 1.384 . S
H2274 C2280 0.930 . S
H2275 C2284 0.930 . S
H2276 C2289 0.929 . S
H2277 C2287 0.929 . S
H2278 C2282 0.929 . S
H2279 C2288 0.929 . S
C2280 H2274 0.930 . S
C2280 C2281 1.367 . S
C2280 C2288 1.378 . S
C2281 C2280 1.367 . S
C2281 C2289 1.433 . S
C2282 H2278 0.929 . S
C2282 C2284 1.378 . S
C2282 C2286 1.350 . S
C2283 C2286 1.463 . S
C2283 C2288 1.350 . S
C2283 N2291 1.427 . S
C2284 H2275 0.930 . S
C2284 C2282 1.378 . S
C2284 C2285 1.367 . S
C2285 C2284 1.367 . S
C2285 C2287 1.433 . S
C2286 C2282 1.350 . S
C2286 C2283 1.463 . S
C2286 N2290 1.427 . S
C2287 H2277 0.929 . S
C2287 C2285 1.433 . S
C2287 N2290 1.384 . S
C2288 H2279 0.929 . S
C2288 C2280 1.378 . S
C2288 C2283 1.350 . S
C2289 H2276 0.929 . S
C2289 C2281 1.433 . S
C2289 N2291 1.384 . S
N2290 C2286 1.427 . S
N2290 C2287 1.384 . S
N2291 C2283 1.427 . S
N2291 C2289 1.384 . S
H2292 C2298 0.930 . S
H2293 C2302 0.930 . S
H2294 C2307 0.929 . S
H2295 C2305 0.929 . S
H2296 C2300 0.929 . S
H2297 C2306 0.929 . S
C2298 H2292 0.930 . S
C2298 C2299 1.367 . S
C2298 C2306 1.378 . S
C2299 C2298 1.367 . S
C2299 C2307 1.433 . S
C2300 H2296 0.929 . S
C2300 C2302 1.378 . S
C2300 C2304 1.350 . S
C2301 C2304 1.463 . S
C2301 C2306 1.350 . S
C2301 N2309 1.427 . S
C2302 H2293 0.930 . S
C2302 C2300 1.378 . S
C2302 C2303 1.367 . S
C2303 C2302 1.367 . S
C2303 C2305 1.433 . S
C2304 C2300 1.350 . S
C2304 C2301 1.463 . S
C2304 N2308 1.427 . S
C2305 H2295 0.929 . S
C2305 C2303 1.433 . S
C2305 N2308 1.384 . S
C2306 H2297 0.929 . S
C2306 C2298 1.378 . S
C2306 C2301 1.350 . S
C2307 H2294 0.929 . S
C2307 C2299 1.433 . S
C2307 N2309 1.384 . S
N2308 C2304 1.427 . S
N2308 C2305 1.384 . S
N2309 C2301 1.427 . S
N2309 C2307 1.384 . S
H2310 C2316 0.930 . S
H2311 C2320 0.930 . S
H2312 C2325 0.929 . S
H2313 C2323 0.929 . S
H2314 C2318 0.929 . S
H2315 C2324 0.929 . S
C2316 H2310 0.930 . S
C2316 C2317 1.367 . S
C2316 C2324 1.378 . S
C2317 C2316 1.367 . S
C2317 C2325 1.433 . S
C2318 H2314 0.929 . S
C2318 C2320 1.378 . S
C2318 C2322 1.350 . S
C2319 C2322 1.463 . S
C2319 C2324 1.350 . S
C2319 N2327 1.427 . S
C2320 H2311 0.930 . S
C2320 C2318 1.378 . S
C2320 C2321 1.367 . S
C2321 C2320 1.367 . S
C2321 C2323 1.433 . S
C2322 C2318 1.350 . S
C2322 C2319 1.463 . S
C2322 N2326 1.427 . S
C2323 H2313 0.929 . S
C2323 C2321 1.433 . S
C2323 N2326 1.384 . S
C2324 H2315 0.929 . S
C2324 C2316 1.378 . S
C2324 C2319 1.350 . S
C2325 H2312 0.929 . S
C2325 C2317 1.433 . S
C2325 N2327 1.384 . S
N2326 C2322 1.427 . S
N2326 C2323 1.384 . S
N2327 C2319 1.427 . S
N2327 C2325 1.384 . S
H2328 C2334 0.930 . S
H2329 C2338 0.930 . S
H2330 C2343 0.929 . S
H2331 C2341 0.929 . S
H2332 C2336 0.929 . S
H2333 C2342 0.929 . S
C2334 H2328 0.930 . S
C2334 C2335 1.367 . S
C2334 C2342 1.378 . S
C2335 C2334 1.367 . S
C2335 C2343 1.433 . S
C2336 H2332 0.929 . S
C2336 C2338 1.378 . S
C2336 C2340 1.350 . S
C2337 C2340 1.463 . S
C2337 C2342 1.350 . S
C2337 N2345 1.427 . S
C2338 H2329 0.930 . S
C2338 C2336 1.378 . S
C2338 C2339 1.367 . S
C2339 C2338 1.367 . S
C2339 C2341 1.433 . S
C2340 C2336 1.350 . S
C2340 C2337 1.463 . S
C2340 N2344 1.427 . S
C2341 H2331 0.929 . S
C2341 C2339 1.433 . S
C2341 N2344 1.384 . S
C2342 H2333 0.929 . S
C2342 C2334 1.378 . S
C2342 C2337 1.350 . S
C2343 H2330 0.929 . S
C2343 C2335 1.433 . S
C2343 N2345 1.384 . S
N2344 C2340 1.427 . S
N2344 C2341 1.384 . S
N2345 C2337 1.427 . S
N2345 C2343 1.384 . S
H2346 C2352 0.930 . S
H2347 C2356 0.930 . S
H2348 C2361 0.929 1_554 S
H2349 C2359 0.929 . S
H2350 C2354 0.929 . S
H2351 C2360 0.929 . S
C2352 H2346 0.930 . S
C2352 C2353 1.367 . S
C2352 C2360 1.378 . S
C2353 C2352 1.367 . S
C2353 C2361 1.433 . S
C2354 H2350 0.929 . S
C2354 C2356 1.378 . S
C2354 C2358 1.350 . S
C2355 C2358 1.463 . S
C2355 C2360 1.350 . S
C2355 N2363 1.427 . S
C2356 H2347 0.930 . S
C2356 C2354 1.378 . S
C2356 C2357 1.367 . S
C2357 C2356 1.367 . S
C2357 C2359 1.433 . S
C2358 C2354 1.350 . S
C2358 C2355 1.463 . S
C2358 N2362 1.427 . S
C2359 H2349 0.929 . S
C2359 C2357 1.433 . S
C2359 N2362 1.384 . S
C2360 H2351 0.929 . S
C2360 C2352 1.378 . S
C2360 C2355 1.350 . S
C2361 H2348 0.929 1_556 S
C2361 C2353 1.433 . S
C2361 N2363 1.384 . S
N2362 C2358 1.427 . S
N2362 C2359 1.384 . S
N2363 C2355 1.427 . S
N2363 C2361 1.384 . S
H2364 C2370 0.930 . S
H2365 C2374 0.930 . S
H2366 C2379 0.929 . S
H2367 C2377 0.929 . S
H2368 C2372 0.929 . S
H2369 C2378 0.929 . S
C2370 H2364 0.930 . S
C2370 C2371 1.367 . S
C2370 C2378 1.378 . S
C2371 C2370 1.367 . S
C2371 C2379 1.433 . S
C2372 H2368 0.929 . S
C2372 C2374 1.378 . S
C2372 C2376 1.350 . S
C2373 C2376 1.463 . S
C2373 C2378 1.350 . S
C2373 N2381 1.427 . S
C2374 H2365 0.930 . S
C2374 C2372 1.378 . S
C2374 C2375 1.367 . S
C2375 C2374 1.367 . S
C2375 C2377 1.433 . S
C2376 C2372 1.350 . S
C2376 C2373 1.463 . S
C2376 N2380 1.427 . S
C2377 H2367 0.929 . S
C2377 C2375 1.433 . S
C2377 N2380 1.384 . S
C2378 H2369 0.929 . S
C2378 C2370 1.378 . S
C2378 C2373 1.350 . S
C2379 H2366 0.929 . S
C2379 C2371 1.433 . S
C2379 N2381 1.384 . S
N2380 C2376 1.427 . S
N2380 C2377 1.384 . S
N2381 C2373 1.427 . S
N2381 C2379 1.384 . S
H2382 C2388 0.930 . S
H2383 C2392 0.930 . S
H2384 C2397 0.929 . S
H2385 C2395 0.929 . S
H2386 C2390 0.929 . S
H2387 C2396 0.929 . S
C2388 H2382 0.930 . S
C2388 C2389 1.367 . S
C2388 C2396 1.378 . S
C2389 C2388 1.367 . S
C2389 C2397 1.433 . S
C2390 H2386 0.929 . S
C2390 C2392 1.378 . S
C2390 C2394 1.350 1_655 S
C2391 C2394 1.463 . S
C2391 C2396 1.350 . S
C2391 N2399 1.427 . S
C2392 H2383 0.930 . S
C2392 C2390 1.378 . S
C2392 C2393 1.367 . S
C2393 C2392 1.367 . S
C2393 C2395 1.433 . S
C2394 C2390 1.350 1_455 S
C2394 C2391 1.463 . S
C2394 N2398 1.427 1_455 S
C2395 H2385 0.929 . S
C2395 C2393 1.433 . S
C2395 N2398 1.384 . S
C2396 H2387 0.929 . S
C2396 C2388 1.378 . S
C2396 C2391 1.350 . S
C2397 H2384 0.929 . S
C2397 C2389 1.433 . S
C2397 N2399 1.384 . S
N2398 C2394 1.427 1_655 S
N2398 C2395 1.384 . S
N2399 C2391 1.427 . S
N2399 C2397 1.384 . S
C683 C354 1.146 . S
C679 C7 1.204 . S
C697 C23 1.451 . S
C701 C374 1.512 . S
C719 C394 1.038 . S
C715 C36 1.141 . S
C737 C413 1.461 . S
C733 C45 1.435 . S
C755 C371 1.394 . S
C751 C59 1.377 . S
C769 C78 1.147 . S
C773 C396 1.085 . S
C791 C416 1.370 . S
C787 C93 1.322 . S
C805 C105 1.340 . S
C809 C352 1.197 . S
C823 C115 1.558 . S
C827 C349 1.445 . S
C845 C372 1.240 . S
C841 C133 1.329 . S
C863 C395 1.386 . S
C859 C148 1.335 . S
C881 C417 1.325 . S
C877 C163 1.375 . S
C899 C375 0.945 . S
C895 C121 0.983 . S
C917 C391 0.994 . S
C913 C134 1.106 . S
C931 C147 1.185 . S
C935 C414 1.080 . S
C953 C353 1.065 . S
C949 C157 1.044 . S
C967 C175 1.446 . S
C971 C350 1.451 . S
C985 C191 0.925 . S
C989 C433 0.877 . S
C1007 C455 1.338 . S
C1003 C199 1.318 . S
C1025 C478 1.036 . S
C1021 C218 1.212 . S
C1039 C231 1.460 . S
C1043 C351 1.404 . S
C1057 C241 1.446 . S
C1061 C393 1.375 . S
C1079 C475 1.173 . S
C1075 C205 1.324 . S
C1097 C436 0.915 . S
C1093 C260 0.980 . S
C1115 C501 0.936 . S
C1111 C22 0.968 . S
C1133 C521 1.572 . S
C1129 C9 1.537 . S
C1147 C49 1.177 . S
C1151 C543 1.111 . S
C1165 C31 1.132 . S
C1169 C560 1.139 . S
C1183 C101 1.586 1_655 S
C1187 C518 1.589 . S
C1201 C91 1.247 . S
C1205 C541 1.061 . S
C1223 C563 1.329 . S
C1219 C79 1.282 . S
C1237 C64 1.177 . S
C1241 C499 1.021 . S
C1255 C274 0.981 . S
C1259 C496 0.901 . S
C1277 C519 1.375 . S
C1273 C213 1.467 . S
C1295 C538 1.237 . S
C1291 C233 1.380 . S
C1313 C564 1.288 . S
C1309 C189 1.428 . S
C1331 C522 1.064 . S
C1327 C273 1.136 . S
C1349 C542 1.061 . S
C1345 C219 1.033 . S
C1367 C561 0.855 . S
C1363 C227 0.895 . S
C1381 C190 1.225 . S
C1385 C500 1.223 . S
C1403 C497 1.308 . S
C1399 C289 1.291 . S
C1417 C162 1.237 . S
C1421 C580 1.060 . S
C1439 C603 1.292 . S
C1435 C301 1.384 . S
C1453 C129 1.309 . S
C1457 C625 1.083 . S
C1475 C498 1.259 . S
C1471 C149 1.293 . S
C1493 C539 1.369 . S
C1489 C315 1.383 . S
C1511 C622 0.943 . S
C1507 C302 1.095 . S
C1525 C325 0.942 . S
C1529 C583 0.854 . S
C1543 C35 1.213 . S
C1547 C648 1.148 . S
C1561 C51 1.436 . S
C1565 C437 1.504 . S
C1583 C457 1.034 . S
C1579 C8 1.140 . S
C1597 C17 1.441 . S
C1601 C476 1.461 . S
C1615 C87 1.376 . S
C1619 C434 1.401 . S
C1633 C106 1.159 . S
C1637 C459 1.110 . S
C1655 C479 1.367 . S
C1651 C65 1.320 . S
C1673 C646 1.224 . S
C1669 C77 1.337 . S
C1691 C643 1.431 . S
C1687 C297 1.566 . S
C1709 C435 1.237 . S
C1705 C287 1.340 . S
C1727 C458 1.387 . S
C1723 C330 1.350 . S
C1741 C317 1.375 . S
C1745 C480 1.328 . S
C1763 C438 0.965 . S
C1759 C303 0.997 . S
C1777 C288 1.108 . S
C1781 C454 0.999 . S
C1799 C477 1.084 . S
C1795 C329 1.188 . S
C1813 C311 1.054 . S
C1817 C647 1.068 . S
C1835 C644 1.451 . S
C1831 C217 1.444 . S
C1849 C247 0.931 . S
C1853 C370 0.875 . S
C1871 C392 1.338 . S
C1867 C269 1.318 . S
C1885 C176 1.214 . S
C1889 C415 1.046 . S
C1907 C645 1.411 . S
C1903 C259 1.468 . S
C1925 C456 1.372 . S
C1921 C185 1.447 . S
C1943 C412 1.198 . S
C1939 C275 1.334 . S
C1961 C373 0.899 . S
C1957 C232 0.997 . S
C1975 C50 0.966 . S
C1979 C669 0.934 . S
C1993 C37 1.539 . S
C1997 C584 1.563 . S
C2011 C21 1.178 . S
C2015 C606 1.090 . S
C2033 C623 1.156 . S
C2029 C3 1.142 . S
C2051 C581 1.595 . S
C2047 C73 1.594 . S
C2065 C63 1.247 . S
C2069 C604 1.058 . S
C2087 C626 1.330 . S
C2083 C107 1.282 . S
C2101 C92 1.183 . S
C2105 C667 1.041 . S
C2123 C664 0.891 . S
C2119 C204 0.982 . S
C2137 C171 1.478 . S
C2141 C582 1.395 . S
C2155 C261 1.379 . S
C2159 C601 1.237 . S
C2177 C627 1.307 . S
C2173 C245 1.430 . S
C2195 C585 1.067 . S
C2191 C203 1.138 . S
C2209 C177 1.050 . S
C2213 C605 1.061 . S
C2231 C624 0.864 . S
C2227 C255 0.901 . S
C2249 C668 1.223 . S
C2245 C246 1.225 . S
C2267 C665 1.304 . S
C2263 C135 1.282 . S
C2285 C517 1.046 . S
C2281 C316 1.232 . S
C2299 C119 1.384 . S
C2303 C540 1.290 . S
C2317 C283 1.315 . S
C2321 C562 1.115 . S
C2339 C666 1.265 . S
C2335 C331 1.302 . S
C2357 C602 1.368 . S
C2353 C161 1.383 . S
C2375 C559 0.951 . S
C2371 C120 1.099 . S
C2393 C520 0.877 . S
C2389 C143 0.954 . S
