# Generated by pormake.
# Topology myd, (4,6)-cn, num edge types: 1
# Building blocks:
#     Node 0, Type 0, BuildingBlock: NAWXER_clean_sbu_0, # of connection points: 4
#     Node 1, Type 0, BuildingBlock: NAWXER_clean_sbu_0, # of connection points: 4
#     Node 2, Type 0, BuildingBlock: NAWXER_clean_sbu_0, # of connection points: 4
#     Node 3, Type 0, BuildingBlock: NAWXER_clean_sbu_0, # of connection points: 4
#     Node 4, Type 0, BuildingBlock: NAWXER_clean_sbu_0, # of connection points: 4
#     Node 5, Type 0, BuildingBlock: NAWXER_clean_sbu_0, # of connection points: 4
#     Node 6, Type 0, BuildingBlock: NAWXER_clean_sbu_0, # of connection points: 4
#     Node 7, Type 0, BuildingBlock: NAWXER_clean_sbu_0, # of connection points: 4
#     Node 8, Type 0, BuildingBlock: NAWXER_clean_sbu_0, # of connection points: 4
#     Node 9, Type 0, BuildingBlock: NAWXER_clean_sbu_0, # of connection points: 4
#     Node 10, Type 0, BuildingBlock: NAWXER_clean_sbu_0, # of connection points: 4
#     Node 11, Type 0, BuildingBlock: NAWXER_clean_sbu_0, # of connection points: 4
#     Node 12, Type 1, BuildingBlock: LEVNOQ01_clean_sbu_1, # of connection points: 6
#     Node 13, Type 1, BuildingBlock: LEVNOQ01_clean_sbu_1, # of connection points: 6
#     Node 14, Type 1, BuildingBlock: LEVNOQ01_clean_sbu_1, # of connection points: 6
#     Node 15, Type 1, BuildingBlock: LEVNOQ01_clean_sbu_1, # of connection points: 6
#     Node 16, Type 1, BuildingBlock: LEVNOQ01_clean_sbu_1, # of connection points: 6
#     Node 17, Type 1, BuildingBlock: LEVNOQ01_clean_sbu_1, # of connection points: 6
#     Node 18, Type 1, BuildingBlock: LEVNOQ01_clean_sbu_1, # of connection points: 6
#     Node 19, Type 1, BuildingBlock: LEVNOQ01_clean_sbu_1, # of connection points: 6
#     Edge 20, Type (0, 1), BuildingBlock: UVAHIK_clean_linker_0, # of connection points: 2
#     Edge 21, Type (0, 1), BuildingBlock: UVAHIK_clean_linker_0, # of connection points: 2
#     Edge 22, Type (0, 1), BuildingBlock: UVAHIK_clean_linker_0, # of connection points: 2
#     Edge 23, Type (0, 1), BuildingBlock: UVAHIK_clean_linker_0, # of connection points: 2
#     Edge 24, Type (0, 1), BuildingBlock: UVAHIK_clean_linker_0, # of connection points: 2
#     Edge 25, Type (0, 1), BuildingBlock: UVAHIK_clean_linker_0, # of connection points: 2
#     Edge 26, Type (0, 1), BuildingBlock: UVAHIK_clean_linker_0, # of connection points: 2
#     Edge 27, Type (0, 1), BuildingBlock: UVAHIK_clean_linker_0, # of connection points: 2
#     Edge 28, Type (0, 1), BuildingBlock: UVAHIK_clean_linker_0, # of connection points: 2
#     Edge 29, Type (0, 1), BuildingBlock: UVAHIK_clean_linker_0, # of connection points: 2
#     Edge 30, Type (0, 1), BuildingBlock: UVAHIK_clean_linker_0, # of connection points: 2
#     Edge 31, Type (0, 1), BuildingBlock: UVAHIK_clean_linker_0, # of connection points: 2
#     Edge 32, Type (0, 1), BuildingBlock: UVAHIK_clean_linker_0, # of connection points: 2
#     Edge 33, Type (0, 1), BuildingBlock: UVAHIK_clean_linker_0, # of connection points: 2
#     Edge 34, Type (0, 1), BuildingBlock: UVAHIK_clean_linker_0, # of connection points: 2
#     Edge 35, Type (0, 1), BuildingBlock: UVAHIK_clean_linker_0, # of connection points: 2
#     Edge 36, Type (0, 1), BuildingBlock: UVAHIK_clean_linker_0, # of connection points: 2
#     Edge 37, Type (0, 1), BuildingBlock: UVAHIK_clean_linker_0, # of connection points: 2
#     Edge 38, Type (0, 1), BuildingBlock: UVAHIK_clean_linker_0, # of connection points: 2
#     Edge 39, Type (0, 1), BuildingBlock: UVAHIK_clean_linker_0, # of connection points: 2
#     Edge 40, Type (0, 1), BuildingBlock: UVAHIK_clean_linker_0, # of connection points: 2
#     Edge 41, Type (0, 1), BuildingBlock: UVAHIK_clean_linker_0, # of connection points: 2
#     Edge 42, Type (0, 1), BuildingBlock: UVAHIK_clean_linker_0, # of connection points: 2
#     Edge 43, Type (0, 1), BuildingBlock: UVAHIK_clean_linker_0, # of connection points: 2
#     Edge 44, Type (0, 1), BuildingBlock: UVAHIK_clean_linker_0, # of connection points: 2
#     Edge 45, Type (0, 1), BuildingBlock: UVAHIK_clean_linker_0, # of connection points: 2
#     Edge 46, Type (0, 1), BuildingBlock: UVAHIK_clean_linker_0, # of connection points: 2
#     Edge 47, Type (0, 1), BuildingBlock: UVAHIK_clean_linker_0, # of connection points: 2
#     Edge 48, Type (0, 1), BuildingBlock: UVAHIK_clean_linker_0, # of connection points: 2
#     Edge 49, Type (0, 1), BuildingBlock: UVAHIK_clean_linker_0, # of connection points: 2
#     Edge 50, Type (0, 1), BuildingBlock: UVAHIK_clean_linker_0, # of connection points: 2
#     Edge 51, Type (0, 1), BuildingBlock: UVAHIK_clean_linker_0, # of connection points: 2
#     Edge 52, Type (0, 1), BuildingBlock: UVAHIK_clean_linker_0, # of connection points: 2
#     Edge 53, Type (0, 1), BuildingBlock: UVAHIK_clean_linker_0, # of connection points: 2
#     Edge 54, Type (0, 1), BuildingBlock: UVAHIK_clean_linker_0, # of connection points: 2
#     Edge 55, Type (0, 1), BuildingBlock: UVAHIK_clean_linker_0, # of connection points: 2
#     Edge 56, Type (0, 1), BuildingBlock: UVAHIK_clean_linker_0, # of connection points: 2
#     Edge 57, Type (0, 1), BuildingBlock: UVAHIK_clean_linker_0, # of connection points: 2
#     Edge 58, Type (0, 1), BuildingBlock: UVAHIK_clean_linker_0, # of connection points: 2
#     Edge 59, Type (0, 1), BuildingBlock: UVAHIK_clean_linker_0, # of connection points: 2
#     Edge 60, Type (0, 1), BuildingBlock: UVAHIK_clean_linker_0, # of connection points: 2
#     Edge 61, Type (0, 1), BuildingBlock: UVAHIK_clean_linker_0, # of connection points: 2
#     Edge 62, Type (0, 1), BuildingBlock: UVAHIK_clean_linker_0, # of connection points: 2
#     Edge 63, Type (0, 1), BuildingBlock: UVAHIK_clean_linker_0, # of connection points: 2
#     Edge 64, Type (0, 1), BuildingBlock: UVAHIK_clean_linker_0, # of connection points: 2
#     Edge 65, Type (0, 1), BuildingBlock: UVAHIK_clean_linker_0, # of connection points: 2
#     Edge 66, Type (0, 1), BuildingBlock: UVAHIK_clean_linker_0, # of connection points: 2
#     Edge 67, Type (0, 1), BuildingBlock: UVAHIK_clean_linker_0, # of connection points: 2
# Relax obj value: 0.218
# Max RMSD: 0.190
# Mean RMSD: 0.134
data_MOF--net-myd--node1-NAWXER_clean_sbu_0--node2-LEVNOQ01_clean_sbu_1--edge1-UVAHIK_clean_linker_0
_symmetry_space_group_name_H-M    P1
_symmetry_Int_Tables_number       1
_symmetry_cell_setting            triclinic
loop_
_symmetry_equiv_pos_as_xyz
'x, y, z'
_cell_length_a     58.320897
_cell_length_b     58.812236
_cell_length_c     57.724563
_cell_angle_alpha  90.775219
_cell_angle_beta   91.465066
_cell_angle_gamma 92.43972
loop_
_atom_site_label
_atom_site_type_symbol
_atom_site_fract_x
_atom_site_fract_y
_atom_site_fract_z
_atom_type_partial_charge
C0 C 0.0407 0.23523 0.25846 0.0
C1 C 0.02742 0.29419 0.31687 0.0
O2 O 0.05635 0.24785 0.26849 0.0
Zn3 Zn 0.03581 0.26341 0.28922 0.0
O4 O 0.01974 0.23666 0.26405 0.0
Zn5 Zn -0.00053 0.25528 0.28704 0.0
O6 O 0.97983 0.27009 0.26477 0.0
O7 O 0.01631 0.28238 0.26477 0.0
O8 O 0.0092 0.28314 0.30956 0.0
O9 O 0.04693 0.28775 0.31067 0.0
O10 O 0.02476 0.23587 0.31054 0.0
O11 O 0.98711 0.23162 0.30672 0.0
C12 C -0.00441 0.28336 0.25708 0.0
C13 C 0.00594 0.22519 0.31548 0.0
C14 C 0.98983 0.79109 0.20788 0.0
C15 C 0.98597 0.72761 0.15301 0.0
O16 O 0.00954 0.78322 0.20379 0.0
Zn17 Zn 0.02388 0.75723 0.18278 0.0
O18 O 0.97189 0.78211 0.19792 0.0
Zn19 Zn 0.98733 0.7591 0.18087 0.0
O20 O 0.00016 0.73841 0.20806 0.0
O21 O 0.03785 0.73751 0.20543 0.0
O22 O 0.96928 0.73775 0.16156 0.0
O23 O 0.00662 0.73346 0.15938 0.0
O24 O 0.04313 0.77565 0.16272 0.0
O25 O 0.00592 0.77954 0.15668 0.0
C26 C 0.01948 0.7314 0.21544 0.0
C27 C 0.02678 0.78463 0.15165 0.0
C28 C 0.3208 0.99758 0.20496 0.0
C29 C 0.26017 0.98607 0.26067 0.0
O30 O 0.31241 0.97848 0.21153 0.0
Zn31 Zn 0.29195 0.99029 0.23442 0.0
O32 O 0.31482 0.01593 0.21488 0.0
Zn33 Zn 0.29173 0.02668 0.24018 0.0
O34 O 0.31081 0.03988 0.26558 0.0
O35 O 0.31358 0.00271 0.26222 0.0
O36 O 0.26649 0.00695 0.25797 0.0
O37 O 0.27055 0.97028 0.25057 0.0
O38 O 0.2692 0.00829 0.21254 0.0
O39 O 0.27239 0.0452 0.22068 0.0
C40 C 0.31911 0.02153 0.27276 0.0
C41 C 0.26337 0.02866 0.20864 0.0
C42 C 0.71739 0.50762 0.21438 0.0
C43 C 0.66059 0.51725 0.27413 0.0
O44 O 0.70879 0.48872 0.22171 0.0
Zn45 Zn 0.68487 0.47702 0.24688 0.0
O46 O 0.71155 0.52622 0.22351 0.0
Zn47 Zn 0.68933 0.51304 0.24473 0.0
O48 O 0.7103 0.49767 0.27066 0.0
O49 O 0.70341 0.4605 0.26849 0.0
O50 O 0.67174 0.53292 0.26372 0.0
O51 O 0.66387 0.49632 0.26919 0.0
O52 O 0.66273 0.46004 0.22767 0.0
O53 O 0.66375 0.49708 0.22145 0.0
C54 C 0.71396 0.47764 0.27802 0.0
C55 C 0.65547 0.47694 0.21659 0.0
C56 C 0.20504 0.32698 0.00358 0.0
C57 C 0.2659 0.27255 -0.00101 0.0
O58 O 0.21215 0.31741 0.98537 0.0
Zn59 Zn 0.23664 0.30097 -0.00015 0.0
O60 O 0.21544 0.32395 0.02306 0.0
Zn61 Zn 0.24299 0.30489 0.0367 0.0
O62 O 0.26655 0.3278 0.04727 0.0
O63 O 0.26203 0.32613 0.00927 0.0
O64 O 0.26307 0.28024 0.01956 0.0
O65 O 0.2543 0.28019 0.98204 0.0
O66 O 0.21775 0.27818 0.02103 0.0
O67 O 0.22575 0.28553 0.05814 0.0
C68 C 0.27231 0.33474 0.02737 0.0
C69 C 0.21472 0.27383 0.04242 0.0
C70 C 0.20593 0.73682 0.50702 0.0
C71 C 0.27108 0.68728 0.50771 0.0
O72 O 0.21757 0.73083 0.4898 0.0
Zn73 Zn 0.23789 0.7112 0.50622 0.0
O74 O 0.2107 0.72917 0.52721 0.0
Zn75 Zn 0.23473 0.70698 0.54299 0.0
O76 O 0.25249 0.72723 0.56445 0.0
O77 O 0.25733 0.73484 0.52744 0.0
O78 O 0.26212 0.6896 0.52761 0.0
O79 O 0.2621 0.69661 0.49013 0.0
O80 O 0.21561 0.68382 0.51602 0.0
O81 O 0.21464 0.68262 0.55422 0.0
C82 C 0.26186 0.73929 0.54886 0.0
C83 C 0.20799 0.67466 0.53446 0.0
C84 C 0.70644 0.82818 0.50294 0.0
C85 C 0.76655 0.77336 0.49452 0.0
O86 O 0.71329 0.81932 0.48428 0.0
Zn87 Zn 0.73784 0.80214 0.49756 0.0
O88 O 0.71713 0.82444 0.5221 0.0
Zn89 Zn 0.74496 0.80471 0.53419 0.0
O90 O 0.7688 0.82692 0.54527 0.0
O91 O 0.76407 0.82646 0.50729 0.0
O92 O 0.76446 0.78036 0.51549 0.0
O93 O 0.75449 0.78177 0.47833 0.0
O94 O 0.71926 0.77867 0.51843 0.0
O95 O 0.72837 0.78487 0.55552 0.0
C96 C 0.77468 0.83426 0.52557 0.0
C97 C 0.71684 0.7737 0.53977 0.0
C98 C 0.49557 0.7874 0.76171 0.0
C99 C 0.51238 0.73115 0.82031 0.0
O100 O 0.48083 0.77614 0.77328 0.0
Zn101 Zn 0.50305 0.76048 0.79234 0.0
O102 O 0.51703 0.7852 0.76557 0.0
Zn103 Zn 0.53918 0.76677 0.78748 0.0
O104 O 0.55501 0.74946 0.76409 0.0
O105 O 0.51828 0.73915 0.76734 0.0
O106 O 0.53059 0.74052 0.81192 0.0
O107 O 0.49284 0.73837 0.81448 0.0
O108 O 0.51803 0.78752 0.81307 0.0
O109 O 0.5548 0.79173 0.80518 0.0
C110 C 0.53772 0.73657 0.75809 0.0
C111 C 0.53752 0.79808 0.81619 0.0
C112 C 0.49175 0.22988 0.71906 0.0
C113 C 0.49363 0.28767 0.65901 0.0
O114 O 0.47445 0.23934 0.71017 0.0
Zn115 Zn 0.49135 0.25779 0.68839 0.0
O116 O 0.51201 0.2348 0.71204 0.0
Zn117 Zn 0.52834 0.25637 0.68692 0.0
O118 O 0.5478 0.27702 0.7068 0.0
O119 O 0.5105 0.28018 0.7113 0.0
O120 O 0.51342 0.28046 0.66457 0.0
O121 O 0.47583 0.27867 0.66803 0.0
O122 O 0.50311 0.23239 0.66613 0.0
O123 O 0.54096 0.23395 0.66576 0.0
C124 C 0.53127 0.28621 0.71687 0.0
C125 C 0.52184 0.22456 0.65898 0.0
C126 C 0.76313 0.5259 0.70804 0.0
C127 C 0.82066 0.52043 0.77076 0.0
O128 O 0.77175 0.54258 0.72014 0.0
Zn129 Zn 0.7924 0.52468 0.73883 0.0
O130 O 0.76995 0.50577 0.71142 0.0
Zn131 Zn 0.79418 0.48858 0.7325 0.0
O132 O 0.7743 0.46725 0.74883 0.0
O133 O 0.7685 0.50346 0.75697 0.0
O134 O 0.81575 0.50157 0.76007 0.0
O135 O 0.81141 0.53846 0.76398 0.0
O136 O 0.81549 0.51545 0.71283 0.0
O137 O 0.81475 0.47803 0.70916 0.0
C138 C 0.76341 0.48227 0.75953 0.0
C139 C 0.82214 0.49751 0.70263 0.0
C140 C 0.21959 0.0084 0.71354 0.0
C141 C 0.16394 0.0144 0.77503 0.0
O142 O 0.21204 0.98892 0.72052 0.0
Zn143 Zn 0.18857 0.97571 0.74576 0.0
O144 O 0.21274 0.02639 0.72311 0.0
Zn145 Zn 0.1918 0.01184 0.74446 0.0
O146 O 0.21414 0.99636 0.76899 0.0
O147 O 0.20766 0.95914 0.76691 0.0
O148 O 0.1743 0.03061 0.76467 0.0
O149 O 0.16761 0.99374 0.76933 0.0
O150 O 0.16635 0.95873 0.72649 0.0
O151 O 0.16606 0.99594 0.72167 0.0
C152 C 0.21837 0.97638 0.77611 0.0
C153 C 0.15818 0.97578 0.71639 0.0
C154 C 0.70697 0.17576 0.03095 0.0
C155 C 0.76382 0.23748 0.04743 0.0
O156 O 0.71355 0.18325 0.05091 0.0
Zn157 Zn 0.73555 0.20644 0.04053 0.0
O158 O 0.71575 0.18445 0.01282 0.0
Zn159 Zn 0.73994 0.21049 0.00394 0.0
O160 O 0.76376 0.19474 0.98854 0.0
O161 O 0.76248 0.18773 0.02598 0.0
O162 O 0.75979 0.23328 0.02587 0.0
O163 O 0.75356 0.2257 0.06268 0.0
O164 O 0.71374 0.2304 0.02415 0.0
O165 O 0.72135 0.23112 0.98687 0.0
C166 C 0.77182 0.18501 0.00633 0.0
C167 C 0.70998 0.23823 0.00383 0.0
O168 O 0.02179 0.04631 0.09549 0.0
Mg169 Mg 0.04495 0.06298 0.07291 0.0
O170 O 0.00571 0.06641 0.06921 0.0
Mg171 Mg 0.02579 0.05246 0.03645 0.0
O172 O 0.06412 0.04551 0.05071 0.0
O173 O 0.07665 0.05931 0.08567 0.0
O174 O 0.04173 0.04141 0.00151 0.0
O175 O 0.01705 0.01511 0.047 0.0
Mg176 Mg 0.98821 0.02534 0.00268 0.0
O177 O 0.99086 0.05652 0.01916 0.0
O178 O 0.01484 0.02431 0.97855 0.0
O179 O 0.98764 -0.00116 0.02716 0.0
O180 O 0.96048 0.04574 -0.00285 0.0
C181 C 0.04022 0.10448 0.04427 0.0
C182 C 0.00676 0.06025 0.09026 0.0
C183 C 0.08019 0.04839 0.0667 0.0
C184 C 0.03538 0.03174 0.98228 0.0
C185 C 0.00299 0.99818 0.04308 0.0
C186 C 0.971 0.06089 0.01033 0.0
O187 O 0.04163 0.09812 0.06514 0.0
O188 O 0.03618 0.08977 0.02808 0.0
O189 O 0.96854 0.46576 0.09524 0.0
Mg190 Mg 0.93969 0.45007 0.07739 0.0
O191 O 0.9773 0.44474 0.06612 0.0
Mg192 Mg 0.95102 0.45809 0.03763 0.0
O193 O 0.91735 0.46852 0.05871 0.0
O194 O 0.91172 0.45662 0.09522 0.0
O195 O 0.92801 0.46912 0.00595 0.0
O196 O 0.96438 0.49493 0.0453 0.0
Mg197 Mg 0.98187 0.47987 -0.00258 0.0
O198 O 0.98168 0.45004 0.01533 0.0
O199 O 0.95103 0.48108 0.97797 0.0
O200 O 0.98954 0.50797 0.02012 0.0
O201 O 0.00664 0.45784 0.98776 0.0
C202 C 0.93602 0.40723 0.04866 0.0
C203 C 0.98194 0.45189 0.08667 0.0
C204 C 0.90499 0.46747 0.07724 0.0
C205 C 0.93115 0.47663 0.98552 0.0
C206 C 0.97832 0.51054 0.03844 0.0
C207 C -0.00087 0.44427 0.00349 0.0
O208 O 0.93922 0.41443 0.06936 0.0
O209 O 0.93702 0.42119 0.03199 0.0
O210 O 0.09323 0.95399 0.43091 0.0
Mg211 Mg 0.06273 0.93615 0.42203 0.0
O212 O 0.06699 0.97824 0.42346 0.0
Mg213 Mg 0.03436 0.96016 0.44188 0.0
O214 O 0.04786 0.92306 0.4507 0.0
O215 O 0.06716 0.90262 0.42497 0.0
O216 O 0.0015 0.94449 0.45929 0.0
O217 O 0.05293 0.96993 0.47726 0.0
Mg218 Mg 0.01177 0.99523 0.46922 0.0
O219 O 0.0192 0.99586 0.4345 0.0
O220 O 0.9865 0.97159 0.48012 0.0
O221 O 0.03986 0.00151 0.49176 0.0
O222 O -0.00013 0.02264 0.45306 0.0
C223 C 0.02589 0.94426 0.38842 0.0
C224 C 0.08819 0.97362 0.42482 0.0
C225 C 0.05729 0.90426 0.44459 0.0
C226 C 0.98631 0.95116 0.47306 0.0
C227 C 0.05393 0.98578 0.49259 0.0
C228 C 0.00928 0.01533 0.43455 0.0
O229 O 0.04712 0.94094 0.38889 0.0
O230 O 0.01602 0.94903 0.40711 0.0
O231 O 0.90206 0.57497 0.4219 0.0
Mg232 Mg 0.92587 0.55425 0.40394 0.0
O233 O 0.92603 0.57996 0.45185 0.0
Mg234 Mg 0.94629 0.54887 0.44115 0.0
O235 O 0.95851 0.56745 0.40614 0.0
O236 O 0.93559 0.56883 0.37421 0.0
O237 O 0.96542 0.51692 0.42798 0.0
O238 O 0.98035 0.56796 0.45526 0.0
Mg239 Mg 0.97001 0.52282 0.48216 0.0
O240 O 0.93728 0.53251 0.47587 0.0
O241 O 0.98095 0.49904 0.45766 0.0
O242 O 0.9909 0.55204 0.48835 0.0
O243 O 0.94754 0.51288 0.50702 0.0
C244 C 0.90722 0.51549 0.41442 0.0
C245 C 0.9077 0.58509 0.44096 0.0
C246 C 0.95492 0.57369 0.3848 0.0
C247 C 0.97696 0.5007 0.43609 0.0
C248 C 0.99317 0.56761 0.47356 0.0
C249 C 0.93209 0.52332 0.49543 0.0
O250 O 0.91944 0.51888 0.3971 0.0
O251 O 0.91084 0.52863 0.43188 0.0
O252 O 0.46881 0.96661 0.59747 0.0
Mg253 Mg 0.44036 0.95225 0.57815 0.0
O254 O 0.47803 0.94606 0.56807 0.0
Mg255 Mg 0.45232 0.96025 0.53921 0.0
O256 O 0.41896 0.97241 0.56018 0.0
O257 O 0.41183 0.95784 0.59537 0.0
O258 O 0.42945 0.97192 0.50753 0.0
O259 O 0.46851 0.99674 0.54646 0.0
Mg260 Mg 0.48286 0.97854 0.49761 0.0
O261 O 0.48236 0.94966 0.51692 0.0
O262 O 0.45216 0.98013 0.47814 0.0
O263 O 0.49281 0.00682 0.51911 0.0
O264 O 0.5066 0.95549 0.48821 0.0
C265 C 0.43523 0.90974 0.54978 0.0
C266 C 0.48223 0.95275 0.58888 0.0
C267 C 0.40588 0.97012 0.57812 0.0
C268 C 0.43235 0.97771 0.48649 0.0
C269 C 0.48334 0.01084 0.5382 0.0
C270 C 0.49935 0.94296 0.50489 0.0
O271 O 0.43922 0.91656 0.57045 0.0
O272 O 0.4363 0.92398 0.53339 0.0
O273 O 0.51344 0.54804 0.59402 0.0
Mg274 Mg 0.53999 0.56211 0.57346 0.0
O275 O 0.5017 0.569 0.56613 0.0
Mg276 Mg 0.52276 0.55309 0.53532 0.0
O277 O 0.55931 0.54339 0.5524 0.0
O278 O 0.56991 0.55508 0.58866 0.0
O279 O 0.54017 0.54077 0.50156 0.0
O280 O 0.50966 0.51646 0.54537 0.0
Mg281 Mg 0.48547 0.52938 0.49881 0.0
O282 O 0.48972 0.56022 0.51564 0.0
O283 O 0.51352 0.526 0.4768 0.0
O284 O 0.48016 0.5034 0.52335 0.0
O285 O 0.46038 0.55231 0.49124 0.0
C286 C 0.5411 0.60389 0.54432 0.0
C287 C 0.5003 0.56317 0.58721 0.0
C288 C 0.57421 0.54459 0.56964 0.0
C289 C 0.53429 0.53173 0.48189 0.0
C290 C 0.49395 0.50121 0.54045 0.0
C291 C 0.47103 0.56636 0.50554 0.0
O292 O 0.54071 0.59748 0.56522 0.0
O293 O 0.53682 0.58948 0.52788 0.0
O294 O 0.56074 0.44345 0.89708 0.0
Mg295 Mg 0.53458 0.42599 0.91666 0.0
O296 O 0.56673 0.46929 0.92489 0.0
Mg297 Mg 0.53134 0.4597 0.93936 0.0
O298 O 0.54422 0.42245 0.95008 0.0
O299 O 0.54361 0.3942 0.92331 0.0
O300 O 0.49532 0.44655 0.9523 0.0
O301 O 0.5475 0.46529 0.97712 0.0
Mg302 Mg 0.51278 0.49352 0.96565 0.0
O303 O 0.52048 0.49748 0.93113 0.0
O304 O 0.48516 0.47285 0.9769 0.0
O305 O 0.53963 0.49944 0.9894 0.0
O306 O 0.50148 0.52243 0.95269 0.0
C307 C 0.503 0.44081 0.8923 0.0
C308 C 0.57261 0.46014 0.90593 0.0
C309 C 0.54794 0.40148 0.94418 0.0
C310 C 0.48154 0.4536 0.9673 0.0
C311 C 0.55034 0.48146 0.99202 0.0
C312 C 0.51093 0.51705 0.93355 0.0
O313 O 0.49958 0.42398 0.90517 0.0
O314 O 0.51673 0.45657 0.90019 0.0
O315 O 0.40625 0.09154 0.92542 0.0
Mg316 Mg 0.41656 0.06378 0.90608 0.0
O317 O 0.42444 0.07868 0.9563 0.0
Mg318 Mg 0.44357 0.04641 0.94292 0.0
O319 O 0.45156 0.06163 0.90575 0.0
O320 O 0.42939 0.0728 0.87574 0.0
O321 O 0.46283 0.01427 0.92986 0.0
O322 O 0.47789 0.06641 0.95455 0.0
Mg323 Mg 0.46946 0.02122 0.98477 0.0
O324 O 0.43723 0.0317 0.97869 0.0
O325 O 0.47656 0.99591 0.96022 0.0
O326 O 0.49107 0.0506 0.98685 0.0
O327 O 0.44715 0.01409 0.01103 0.0
C328 C 0.3945 0.02199 0.91758 0.0
C329 C 0.41203 0.09343 0.94663 0.0
C330 C 0.4494 0.06951 0.88478 0.0
C331 C 0.47301 0.99735 0.93853 0.0
C332 C 0.49205 0.06612 0.97184 0.0
C333 C 0.4318 0.02393 -0.00125 0.0
O334 O 0.39452 0.03561 0.90099 0.0
O335 O 0.40942 0.02443 0.93401 0.0
C336 C 0.98644 0.19187 0.33477 0.0
C337 C 0.00673 0.20394 0.32894 0.0
C338 C 0.98735 0.17051 0.34505 0.0
C339 C 0.0242 0.12142 0.35056 0.0
H340 H 0.98408 0.10517 0.40072 0.0
C341 C 0.02979 0.03896 0.40541 0.0
C342 C 0.00911 0.03018 0.41429 0.0
C343 C 0.02993 0.05867 0.39197 0.0
C344 C -0.00487 0.10925 0.38643 0.0
H345 H 0.04396 0.20323 0.32996 0.0
H346 H 0.04545 0.16606 0.34795 0.0
H347 H 0.98373 0.1433 0.38508 0.0
H348 H 0.97232 0.03337 0.41442 0.0
H349 H 0.97234 0.06684 0.39005 0.0
H350 H 0.0356 0.08722 0.352 0.0
C351 C 0.02885 0.17302 0.34434 0.0
C352 C -0.00501 0.13118 0.37756 0.0
C353 C 0.02796 0.19444 0.33424 0.0
C354 C 0.98845 0.03989 0.40771 0.0
C355 C 0.98854 0.05925 0.39407 0.0
C356 C 0.02429 0.09934 0.35942 0.0
C357 C 0.00855 0.16069 0.34959 0.0
C358 C 0.00939 0.1375 0.35943 0.0
C359 C 0.00937 0.06966 0.38716 0.0
C360 C 0.00956 0.09294 0.37731 0.0
H361 H 0.96982 0.19865 0.33087 0.0
H362 H 0.97138 0.16137 0.34878 0.0
H363 H 0.03539 0.12575 0.33645 0.0
H364 H 0.04596 0.03188 0.41057 0.0
H365 H 0.04627 0.0662 0.38687 0.0
C366 C 0.04371 0.32751 0.34112 0.0
C367 C 0.02494 0.31588 0.32984 0.0
C368 C 0.04096 0.34878 0.3518 0.0
C369 C 0.00544 0.39856 0.34899 0.0
H370 H 0.02166 0.40871 0.41388 0.0
C371 C 0.97229 0.4745 0.4015 0.0
C372 C 0.98552 0.48297 0.42059 0.0
C373 C 0.97921 0.45551 0.38896 0.0
C374 C 0.01746 0.4065 0.3956 0.0
H375 H 0.98862 0.31762 0.32088 0.0
H376 H 0.98411 0.35455 0.33907 0.0
H377 H 0.03073 0.37302 0.39507 0.0
H378 H 0.01702 0.4794 0.44063 0.0
H379 H 0.02977 0.4473 0.41812 0.0
H380 H 0.99243 0.43201 0.34922 0.0
C381 C 0.00085 0.34724 0.33977 0.0
C382 C 0.02262 0.38593 0.38489 0.0
C383 C 0.00346 0.32594 0.32955 0.0
C384 C 0.00636 0.47299 0.42613 0.0
C385 C 0.01353 0.45442 0.41334 0.0
C386 C 0.00063 0.4193 0.35956 0.0
C387 C 0.01955 0.35895 0.35089 0.0
C388 C 0.0163 0.38161 0.3616 0.0
C389 C -0.00025 0.44492 0.39501 0.0
C390 C 0.00624 0.42346 0.38314 0.0
H391 H 0.06048 0.32026 0.34155 0.0
H392 H 0.05564 0.35752 0.36033 0.0
H393 H 0.00054 0.3957 0.33092 0.0
H394 H 0.95604 0.4818 0.39701 0.0
H395 H 0.96794 0.44864 0.37517 0.0
C396 C 0.0485 0.8198 0.13928 0.0
C397 C 0.03103 0.80298 0.13499 0.0
C398 C 0.04826 0.84043 0.12741 0.0
C399 C 0.00475 0.87574 0.10126 0.0
H400 H 0.05588 0.91397 0.08084 0.0
C401 C 0.99117 0.95765 0.05084 0.0
C402 C 0.006 0.97668 0.05567 0.0
C403 C -0.00465 0.93666 0.0607 0.0
C404 C 0.04148 0.90356 0.08674 0.0
H405 H 0.00131 0.79324 0.11327 0.0
H406 H 0.00136 0.82872 0.09204 0.0
H407 H 0.0628 0.87588 0.09549 0.0
H408 H 0.03654 0.98867 0.07525 0.0
H409 H 0.0436 0.95197 0.09277 0.0
H410 H 0.98343 0.90323 0.09286 0.0
C411 C 0.01472 0.82647 0.10508 0.0
C412 C 0.04544 0.88174 0.09501 0.0
C413 C 0.0148 0.80608 0.11708 0.0
C414 C 0.02476 0.97436 0.07115 0.0
C415 C 0.02896 0.95329 0.08102 0.0
C416 C 0.00082 0.89743 0.09309 0.0
C417 C 0.03064 0.84433 0.11101 0.0
C418 C 0.02704 0.8675 0.10208 0.0
C419 C 0.01442 0.93416 0.07571 0.0
C420 C 0.01906 0.91153 0.0855 0.0
H421 H 0.06113 0.81783 0.15311 0.0
H422 H 0.06081 0.85386 0.13229 0.0
H423 H 0.99027 0.86547 0.10724 0.0
H424 H 0.97661 0.95877 0.03894 0.0
H425 H 0.98394 0.92221 0.05605 0.0
C426 C -0.00088 0.70273 0.12137 0.0
C427 C 0.98205 0.70812 0.13697 0.0
C428 C -0.00258 0.68239 0.10867 0.0
C429 C 0.95859 0.63258 0.09253 0.0
H430 H 0.01618 0.60202 0.08988 0.0
C431 C 0.96401 0.53755 0.06802 0.0
C432 C 0.97997 0.53261 0.05099 0.0
C433 C 0.96402 0.55918 0.07824 0.0
C434 C 2e-05 0.61043 0.09035 0.0
H435 H 0.94922 0.69724 0.15071 0.0
H436 H 0.94655 0.66119 0.12909 0.0
H437 H 0.01562 0.6401 0.10673 0.0
H438 H 0.00896 0.54623 0.03196 0.0
H439 H 0.00914 0.58394 0.05012 0.0
H440 H 0.94301 0.6024 0.07663 0.0
C441 C 0.96106 0.67284 0.12629 0.0
C442 C -0.00032 0.63231 0.09985 0.0
C443 C 0.96258 0.69345 0.13872 0.0
C444 C -0.00357 0.54951 0.045 0.0
C445 C -0.00343 0.57107 0.0554 0.0
C446 C 0.95892 0.61054 0.08322 0.0
C447 C 0.97884 0.66679 0.11168 0.0
C448 C 0.97899 0.64371 0.10097 0.0
C449 C 0.98014 0.57619 0.07183 0.0
C450 C 0.97966 0.59933 0.082 0.0
H451 H 0.01414 0.71397 0.11945 0.0
H452 H 0.01105 0.6786 0.09701 0.0
H453 H 0.94242 0.64094 0.09292 0.0
H454 H 0.95109 0.52491 0.07304 0.0
H455 H 0.95137 0.56265 0.0911 0.0
C456 C 0.34412 0.02091 0.17788 0.0
C457 C 0.33394 -0.00034 0.18347 0.0
C458 C 0.35181 0.02503 0.15561 0.0
C459 C 0.34297 0.00418 0.09516 0.0
H460 H 0.39708 0.04288 0.08476 0.0
C461 C 0.39652 0.00579 0.01342 0.0
C462 C 0.40902 0.02591 0.00836 0.0
C463 C 0.38098 0.00546 0.03139 0.0
C464 C 0.38158 0.0325 0.08733 0.0
H465 H 0.32521 0.96556 0.17043 0.0
H466 H 0.3395 0.97251 0.13157 0.0
H467 H 0.38618 0.03451 0.1241 0.0
H468 H 0.41348 0.06195 0.01594 0.0
H469 H 0.38614 0.06151 0.04745 0.0
H470 H 0.33917 0.00142 0.05814 0.0
C471 C 0.34087 0.9862 0.14433 0.0
C472 C 0.37541 0.02755 0.10994 0.0
C473 C 0.33306 0.98209 0.1667 0.0
C474 C 0.40376 0.04631 0.01944 0.0
C475 C 0.38836 0.04596 0.03762 0.0
C476 C 0.34929 0.00899 0.07246 0.0
C477 C 0.34973 0.00794 0.13836 0.0
C478 C 0.35618 0.01314 0.11418 0.0
C479 C 0.37808 0.02522 0.04476 0.0
C480 C 0.3688 0.02304 0.06833 0.0
H481 H 0.34508 0.03484 0.19039 0.0
H482 H 0.35839 0.042 0.15169 0.0
H483 H 0.32776 0.99342 0.0978 0.0
H484 H 0.40062 0.98984 0.00521 0.0
H485 H 0.37336 0.98922 0.03646 0.0
C486 C 0.62925 0.49229 0.18656 0.0
C487 C 0.63979 0.47351 0.19627 0.0
C488 C 0.61849 0.49045 0.16477 0.0
C489 C 0.59591 0.45197 0.1182 0.0
H490 H 0.61793 0.50107 0.0792 0.0
C491 C 0.57161 0.45723 0.02012 0.0
C492 C 0.56413 0.47867 0.0135 0.0
C493 C 0.58226 0.45449 0.04187 0.0
C494 C 0.61154 0.48729 0.08987 0.0
H495 H 0.64561 0.43754 0.19174 0.0
H496 H 0.62681 0.4344 0.15335 0.0
H497 H 0.63094 0.49997 0.11948 0.0
H498 H 0.5627 0.51415 0.02406 0.0
H499 H 0.58103 0.50937 0.06166 0.0
H500 H 0.5761 0.4396 0.08846 0.0
C501 C 0.62693 0.45051 0.16268 0.0
C502 C 0.61892 0.48671 0.11294 0.0
C503 C 0.63767 0.45233 0.18463 0.0
C504 C 0.56824 0.4974 0.02861 0.0
C505 C 0.57888 0.49469 0.05016 0.0
C506 C 0.58838 0.45263 0.09499 0.0
C507 C 0.61816 0.46983 0.15219 0.0
C508 C 0.61081 0.46936 0.12748 0.0
C509 C 0.58576 0.4732 0.05717 0.0
C510 C 0.59578 0.4706 0.08077 0.0
H511 H 0.63027 0.50874 0.1953 0.0
H512 H 0.61132 0.50546 0.15728 0.0
H513 H 0.58952 0.43835 0.12905 0.0
H514 H 0.56864 0.44247 0.00884 0.0
H515 H 0.58758 0.43777 0.04679 0.0
C516 C 0.33274 0.03829 0.31133 0.0
C517 C 0.33308 0.02082 0.2945 0.0
C518 C 0.34297 0.03549 0.33332 0.0
C519 C 0.38375 -0.0004 0.36536 0.0
H520 H 0.34928 0.01551 0.41942 0.0
C521 C 0.40826 0.96433 0.45301 0.0
C522 C 0.4128 0.98075 0.47053 0.0
C523 C 0.39571 0.96972 0.43309 0.0
C524 C 0.3591 0.01109 0.40446 0.0
H525 H 0.3454 0.98725 0.28713 0.0
H526 H 0.36298 0.98238 0.32508 0.0
H527 H 0.33522 0.02578 0.3807 0.0
H528 H 0.40693 0.01517 0.48182 0.0
H529 H 0.38453 0.02464 0.44691 0.0
H530 H 0.40734 0.98455 0.3889 0.0
C531 C 0.355 0.9983 0.32149 0.0
C532 C 0.35118 0.0171 0.38232 0.0
C533 C 0.34478 0.00105 0.29969 0.0
C534 C 0.40314 0.00211 0.46869 0.0
C535 C 0.39049 0.00755 0.44869 0.0
C536 C 0.3915 0.99345 0.38735 0.0
C537 C 0.35387 0.01526 0.33876 0.0
C538 C 0.36327 0.0111 0.36248 0.0
C539 C 0.38767 0.99173 0.43023 0.0
C540 C 0.3791 -0.00122 0.4071 0.0
H541 H 0.32376 0.05368 0.30788 0.0
H542 H 0.34205 0.049 0.34616 0.0
H543 H 0.39378 0.99516 0.35056 0.0
H544 H 0.4159 0.94787 0.45396 0.0
H545 H 0.39347 0.95709 0.41929 0.0
C546 C 0.62908 0.50604 0.30041 0.0
C547 C 0.6456 0.52247 0.29355 0.0
C548 C 0.61768 0.50869 0.32113 0.0
C549 C 0.60532 0.54909 0.36858 0.0
H550 H 0.59911 0.49328 0.40341 0.0
C551 C 0.56977 0.5454 0.46176 0.0
C552 C 0.55133 0.52941 0.46365 0.0
C553 C 0.58351 0.54521 0.4422 0.0
C554 C 0.60075 0.50899 0.3939 0.0
H555 H 0.66215 0.55528 0.30225 0.0
H556 H 0.64242 0.55979 0.33885 0.0
H557 H 0.61724 0.49282 0.36593 0.0
H558 H 0.53351 0.50006 0.44734 0.0
H559 H 0.55779 0.49936 0.41367 0.0
H560 H 0.58874 0.56516 0.39686 0.0
C561 C 0.63817 0.54492 0.32807 0.0
C562 C 0.61096 0.50873 0.37233 0.0
C563 C 0.64945 0.54236 0.30711 0.0
C564 C 0.54761 0.51258 0.44632 0.0
C565 C 0.56154 0.51215 0.42708 0.0
C566 C 0.59521 0.54937 0.39033 0.0
C567 C 0.62275 0.5277 0.33567 0.0
C568 C 0.61292 0.52865 0.35916 0.0
C569 C 0.57929 0.52874 0.42456 0.0
C570 C 0.59245 0.52921 0.40296 0.0
H571 H 0.62551 0.49068 0.29013 0.0
H572 H 0.60535 0.49546 0.32608 0.0
H573 H 0.60652 0.5647 0.35887 0.0
H574 H 0.57286 0.55868 0.47479 0.0
H575 H 0.5972 0.5581 0.4407 0.0
C576 C 0.17653 0.35072 0.0233 0.0
C577 C 0.18336 0.33924 0.00325 0.0
C578 C 0.1548 0.35975 0.0243 0.0
C579 C 0.106 0.37723 0.98754 0.0
H580 H 0.07191 0.37118 0.04416 0.0
C581 C 0.01585 0.409 0.98956 0.0
C582 C 0.01174 0.4237 0.00815 0.0
C583 C 0.03402 0.39437 0.99077 0.0
C584 C 0.08123 0.37303 0.02826 0.0
H585 H 0.17281 0.32871 0.96831 0.0
H586 H 0.13484 0.34439 0.97004 0.0
H587 H 0.11011 0.35579 0.04199 0.0
H588 H 0.022 0.43359 0.04325 0.0
H589 H 0.05424 0.40828 0.04534 0.0
H590 H 0.0775 0.39474 0.97387 0.0
C591 C 0.14639 0.3466 0.98496 0.0
C592 C 0.10316 0.36431 0.02702 0.0
C593 C 0.16819 0.33763 0.98394 0.0
C594 C 0.0247 0.4221 0.02883 0.0
C595 C 0.04322 0.40768 0.02994 0.0
C596 C 0.08415 0.38588 0.98876 0.0
C597 C 0.1393 0.35748 0.00528 0.0
C598 C 0.11584 0.3664 0.00665 0.0
C599 C 0.04883 0.39462 0.0104 0.0
C600 C 0.07146 0.38393 0.00911 0.0
H601 H 0.18781 0.35235 0.03849 0.0
H602 H 0.15011 0.36845 0.04003 0.0
H603 H 0.1154 0.37954 0.97174 0.0
H604 H 0.00607 0.41007 0.97342 0.0
H605 H 0.03744 0.38402 0.97569 0.0
C606 C 0.18629 0.64511 0.51078 0.0
C607 C 0.18923 0.65716 0.5319 0.0
C608 C 0.16557 0.63344 0.5052 0.0
C609 C 0.10989 0.61244 0.527 0.0
H610 H 0.08687 0.63135 0.46687 0.0
C611 C 0.01637 0.59324 0.49999 0.0
C612 C 0.0123 0.58431 0.47754 0.0
C613 C 0.03751 0.60379 0.50614 0.0
C614 C 0.0931 0.62571 0.48357 0.0
H615 H 0.17378 0.66453 0.56476 0.0
H616 H 0.13737 0.644 0.555 0.0
H617 H 0.12586 0.64271 0.47965 0.0
H618 H 0.02632 0.58052 0.44345 0.0
H619 H 0.06369 0.59863 0.45424 0.0
H620 H 0.07727 0.59522 0.53088 0.0
C621 C 0.15111 0.64369 0.54273 0.0
C622 C 0.11546 0.63215 0.49088 0.0
C623 C 0.17196 0.65538 0.54836 0.0
C624 C 0.02905 0.58758 0.46078 0.0
C625 C 0.05044 0.59785 0.46704 0.0
C626 C 0.08758 0.60584 0.51962 0.0
C627 C 0.14739 0.63362 0.52063 0.0
C628 C 0.12406 0.62562 0.51268 0.0
C629 C 0.0552 0.60518 0.49008 0.0
C630 C 0.07885 0.61254 0.49789 0.0
H631 H 0.1995 0.64591 0.49791 0.0
H632 H 0.16336 0.62529 0.4883 0.0
H633 H 0.11615 0.60706 0.5438 0.0
H634 H 0.00359 0.59092 0.51315 0.0
H635 H 0.04034 0.60992 0.5238 0.0
C636 C 0.8014 0.85617 0.50042 0.0
C637 C 0.79523 0.84959 0.52282 0.0
C638 C 0.82235 0.86754 0.49667 0.0
C639 C 0.88038 0.87768 0.52356 0.0
H640 H 0.88716 0.9188 0.47195 0.0
C641 C 0.95951 0.93749 0.50314 0.0
C642 C 0.9677 0.93547 0.48056 0.0
C643 C 0.9398 0.92512 0.5096 0.0
C644 C 0.88548 0.90717 0.48628 0.0
H645 H 0.80582 0.85101 0.55909 0.0
H646 H 0.84229 0.87186 0.55266 0.0
H647 H 0.84905 0.90432 0.48204 0.0
H648 H 0.96239 0.91844 0.44724 0.0
H649 H 0.92715 0.89734 0.45833 0.0
H650 H 0.91702 0.8817 0.52824 0.0
C651 C 0.8311 0.8675 0.53787 0.0
C652 C 0.86367 0.89881 0.49209 0.0
C653 C 0.81008 0.8558 0.54162 0.0
C654 C 0.95644 0.92016 0.46478 0.0
C655 C 0.93632 0.90822 0.47107 0.0
C656 C 0.90221 0.8865 0.51802 0.0
C657 C 0.83771 0.87308 0.51524 0.0
C658 C 0.86081 0.88363 0.51057 0.0
C659 C 0.92767 0.91096 0.4934 0.0
C660 C 0.9049 0.90103 0.49912 0.0
H661 H 0.79044 0.85171 0.48547 0.0
H662 H 0.82682 0.87111 0.47896 0.0
H663 H 0.87897 0.86581 0.53767 0.0
H664 H 0.968 0.94916 0.51562 0.0
H665 H 0.93335 0.92754 0.52685 0.0
C666 C 0.3074 0.67938 0.48724 0.0
C667 C 0.2932 0.67603 0.5063 0.0
C668 C 0.32967 0.6714 0.48764 0.0
C669 C 0.37531 0.6536 0.52858 0.0
H670 H 0.39885 0.62391 0.47438 0.0
C671 C 0.44877 0.59119 0.53055 0.0
C672 C 0.46102 0.58826 0.51025 0.0
C673 C 0.43206 0.60753 0.5315 0.0
C674 C 0.39285 0.63265 0.48956 0.0
H675 H 0.29084 0.66081 0.54025 0.0
H676 H 0.32933 0.64648 0.54066 0.0
H677 H 0.36119 0.63984 0.47227 0.0
H678 H 0.46759 0.60122 0.4761 0.0
H679 H 0.43938 0.63063 0.47813 0.0
H680 H 0.40683 0.64581 0.54604 0.0
C681 C 0.32356 0.65581 0.5257 0.0
C682 C 0.37114 0.64169 0.48833 0.0
C683 C 0.30139 0.66381 0.52534 0.0
C684 C 0.45832 0.60338 0.49195 0.0
C685 C 0.44195 0.61994 0.49303 0.0
C686 C 0.3971 0.64456 0.5298 0.0
C687 C 0.33812 0.65988 0.50707 0.0
C688 C 0.36193 0.65188 0.50793 0.0
C689 C 0.42758 0.62117 0.51216 0.0
C690 C 0.40598 0.63365 0.51039 0.0
H691 H 0.30166 0.6889 0.47241 0.0
H692 H 0.3405 0.67486 0.47302 0.0
H693 H 0.36884 0.66174 0.54388 0.0
H694 H 0.45044 0.5794 0.54471 0.0
H695 H 0.42131 0.60796 0.5465 0.0
C696 C 0.53503 0.6993 0.83617 0.0
C697 C 0.51408 0.71024 0.8342 0.0
C698 C 0.53606 0.67794 0.84644 0.0
C699 C 0.50476 0.63849 0.88489 0.0
H700 H 0.53674 0.59134 0.85284 0.0
C701 C 0.4914 0.54655 0.91144 0.0
C702 C 0.51111 0.53411 0.91513 0.0
C703 C 0.4925 0.56678 0.89918 0.0
C704 C 0.52792 0.60437 0.86208 0.0
H705 H 0.47797 0.70766 0.84231 0.0
H706 H 0.47979 0.67055 0.86037 0.0
H707 H 0.538 0.63021 0.83804 0.0
H708 H 0.54713 0.53205 0.9076 0.0
H709 H 0.54925 0.56789 0.88618 0.0
H710 H 0.49468 0.61292 0.90891 0.0
C711 C 0.49545 0.67848 0.85398 0.0
C712 C 0.52868 0.62664 0.85366 0.0
C713 C 0.49439 0.69976 0.84359 0.0
C714 C 0.53164 0.54129 0.90475 0.0
C715 C 0.53285 0.56184 0.89263 0.0
C716 C 0.50403 0.61635 0.89328 0.0
C717 C 0.5162 0.66714 0.85514 0.0
C718 C 0.51682 0.64386 0.86482 0.0
C719 C 0.51348 0.57529 0.89067 0.0
C720 C 0.51524 0.59891 0.88177 0.0
H721 H 0.55055 0.70686 0.82909 0.0
H722 H 0.55236 0.66979 0.84737 0.0
H723 H 0.49586 0.65145 0.89416 0.0
H724 H 0.47533 0.54126 0.91918 0.0
H725 H 0.47711 0.57634 0.89734 0.0
C726 C 0.52788 0.81907 0.85191 0.0
C727 C 0.53835 0.81913 0.83034 0.0
C728 C 0.52303 0.8395 0.86296 0.0
C729 C 0.53145 0.90297 0.861 0.0
H730 H 0.47365 0.89983 0.89283 0.0
C731 C 0.48431 0.98107 0.89988 0.0
C732 C 0.48024 0.97837 0.92363 0.0
C733 C 0.49191 0.96281 0.88657 0.0
C734 C 0.48978 0.90097 0.88392 0.0
H735 H 0.55261 0.84045 0.80358 0.0
H736 H 0.5435 0.87633 0.82247 0.0
H737 H 0.4873 0.86585 0.87426 0.0
H738 H 0.48048 0.95428 0.95183 0.0
H739 H 0.49305 0.92266 0.92862 0.0
H740 H 0.53336 0.93851 0.87056 0.0
C741 C 0.5396 0.86056 0.83129 0.0
C742 C 0.49782 0.88142 0.8735 0.0
C743 C 0.54495 0.84002 0.82048 0.0
C744 C 0.48355 0.95704 0.93363 0.0
C745 C 0.49068 0.93885 0.92034 0.0
C746 C 0.52317 0.9227 0.87121 0.0
C747 C 0.52781 0.86053 0.8523 0.0
C748 C 0.51905 0.88194 0.86239 0.0
C749 C 0.495 0.94151 0.89673 0.0
C750 C 0.50249 0.92171 0.88318 0.0
H751 H 0.52254 0.80314 0.85977 0.0
H752 H 0.51471 0.83873 0.8795 0.0
H753 H 0.54785 0.9041 0.85264 0.0
H754 H 0.48196 0.99732 0.89172 0.0
H755 H 0.49508 0.9652 0.86834 0.0
C756 C 0.47114 0.31567 0.63596 0.0
C757 C 0.49228 0.30788 0.64407 0.0
C758 C 0.47028 0.33595 0.62353 0.0
C759 C 0.50772 0.37856 0.59284 0.0
H760 H 0.45814 0.41873 0.60451 0.0
C761 C 0.51134 0.47316 0.56733 0.0
C762 C 0.4924 0.48006 0.55404 0.0
C763 C 0.51054 0.45211 0.57833 0.0
C764 C 0.47202 0.40761 0.60105 0.0
H765 H 0.52912 0.31523 0.64528 0.0
H766 H 0.52757 0.35055 0.62455 0.0
H767 H 0.45802 0.38137 0.62248 0.0
H768 H 0.45745 0.47073 0.5427 0.0
H769 H 0.45595 0.43421 0.5624 0.0
H770 H 0.52206 0.40523 0.57205 0.0
C771 C 0.51164 0.34087 0.62705 0.0
C772 C 0.4719 0.38612 0.61117 0.0
C773 C 0.51251 0.32056 0.63913 0.0
C774 C 0.47237 0.46586 0.55273 0.0
C775 C 0.47144 0.445 0.56406 0.0
C776 C 0.50802 0.40016 0.58306 0.0
C777 C 0.49053 0.34899 0.61919 0.0
C778 C 0.48983 0.37134 0.60733 0.0
C779 C 0.49066 0.43775 0.57661 0.0
C780 C 0.49024 0.41492 0.58715 0.0
H781 H 0.45526 0.30626 0.63943 0.0
H782 H 0.45374 0.34145 0.61743 0.0
H783 H 0.52157 0.36753 0.58898 0.0
H784 H 0.52703 0.48369 0.56864 0.0
H785 H 0.52552 0.44696 0.58808 0.0
C786 C 0.49986 0.18994 0.64471 0.0
C787 C 0.52035 0.20341 0.64474 0.0
C788 C 0.49764 0.16971 0.632 0.0
C789 C 0.53043 0.12539 0.60358 0.0
H790 H 0.47034 0.10891 0.57644 0.0
C791 C 0.50914 0.04556 0.54482 0.0
C792 C 0.48944 0.03245 0.55071 0.0
C793 C 0.51445 0.06648 0.55584 0.0
C794 C 0.48717 0.11325 0.58403 0.0
H795 H 0.55477 0.20604 0.63151 0.0
H796 H 0.55066 0.17059 0.60841 0.0
H797 H 0.4772 0.14615 0.59472 0.0
H798 H 0.46009 0.03087 0.57306 0.0
H799 H 0.46919 0.0677 0.59201 0.0
H800 H 0.54034 0.09237 0.59225 0.0
C801 C 0.53641 0.17572 0.61864 0.0
C802 C 0.49114 0.13457 0.59456 0.0
C803 C 0.53875 0.19604 0.63174 0.0
C804 C 0.47536 0.04056 0.56812 0.0
C805 C 0.4805 0.06165 0.57888 0.0
C806 C 0.52652 0.1041 0.59268 0.0
C807 C 0.51572 0.1624 0.61856 0.0
C808 C 0.51263 0.14072 0.605 0.0
C809 C 0.49999 0.07487 0.5727 0.0
C810 C 0.5047 0.0977 0.58327 0.0
H811 H 0.48546 0.19478 0.65491 0.0
H812 H 0.48174 0.15963 0.63303 0.0
H813 H 0.54713 0.12948 0.61156 0.0
H814 H 0.52041 0.03973 0.53157 0.0
H815 H 0.52951 0.0764 0.55072 0.0
C816 C 0.83512 0.48253 0.66446 0.0
C817 C 0.83494 0.50026 0.68099 0.0
C818 C 0.84271 0.48682 0.64206 0.0
C819 C 0.8752 0.5291 0.6071 0.0
H820 H 0.8403 0.50029 0.55578 0.0
C821 C 0.9036 0.54549 0.5158 0.0
C822 C 0.90946 0.52488 0.50552 0.0
C823 C 0.8883 0.54538 0.53409 0.0
C824 C 0.85004 0.50861 0.56996 0.0
H825 H 0.84397 0.53602 0.68746 0.0
H826 H 0.85701 0.54345 0.64865 0.0
H827 H 0.82892 0.49294 0.59555 0.0
H828 H 0.90223 0.48854 0.5039 0.0
H829 H 0.87508 0.48831 0.53523 0.0
H830 H 0.89654 0.54445 0.58162 0.0
C831 C 0.85136 0.52624 0.65281 0.0
C832 C 0.84374 0.50419 0.59272 0.0
C833 C 0.84384 0.52196 0.67512 0.0
C834 C 0.89768 0.50464 0.51151 0.0
C835 C 0.8822 0.50454 0.52951 0.0
C836 C 0.88139 0.53363 0.58438 0.0
C837 C 0.8503 0.50889 0.63581 0.0
C838 C 0.85652 0.51405 0.61157 0.0
C839 C 0.87864 0.52467 0.54204 0.0
C840 C 0.86914 0.52312 0.56557 0.0
H841 H 0.8283 0.46565 0.66841 0.0
H842 H 0.84218 0.47295 0.6295 0.0
H843 H 0.88559 0.53681 0.62116 0.0
H844 H 0.91276 0.56125 0.51159 0.0
H845 H 0.8856 0.56118 0.54328 0.0
C846 C 0.12976 0.99138 0.68877 0.0
C847 C 0.14189 0.97272 0.69656 0.0
C848 C 0.11874 0.99062 0.66708 0.0
C849 C 0.0997 0.95475 0.61687 0.0
H850 H 0.11868 0.00842 0.58267 0.0
C851 C 0.0789 0.96357 0.51909 0.0
C852 C 0.06911 0.98424 0.51328 0.0
C853 C 0.08948 0.96099 0.54084 0.0
C854 C 0.11313 0.99338 0.59199 0.0
H855 H 0.1501 0.93784 0.6889 0.0
H856 H 0.13091 0.93661 0.65069 0.0
H857 H 0.13021 0.00534 0.62322 0.0
H858 H 0.06412 0.01886 0.52501 0.0
H859 H 0.08249 0.01439 0.56273 0.0
H860 H 0.08231 0.94298 0.58552 0.0
C861 C 0.12997 0.95179 0.6614 0.0
C862 C 0.11963 0.99167 0.61524 0.0
C863 C 0.14094 0.9525 0.68325 0.0
C864 C 0.07141 0.00268 0.52899 0.0
C865 C 0.08203 0.00014 0.55061 0.0
C866 C 0.09307 0.95652 0.59352 0.0
C867 C 0.11978 0.97126 0.65272 0.0
C868 C 0.1127 0.97252 0.62801 0.0
C869 C 0.09062 0.97912 0.55701 0.0
C870 C 0.09949 0.97602 0.58097 0.0
H871 H 0.12985 0.00704 0.69887 0.0
H872 H 0.11044 0.00565 0.66102 0.0
H873 H 0.09421 0.93978 0.62633 0.0
H874 H 0.07738 0.94905 0.50732 0.0
H875 H 0.09628 0.9447 0.54522 0.0
C876 C 0.84668 0.50031 0.79762 0.0
C877 C 0.83486 0.52 0.79236 0.0
C878 C 0.85684 0.49764 0.81944 0.0
C879 C 0.85245 0.51688 0.88013 0.0
H880 H 0.90748 0.48272 0.88775 0.0
C881 C 0.90324 0.50166 0.96691 0.0
C882 C 0.9118 0.47987 0.96942 0.0
C883 C 0.89097 0.50714 0.94672 0.0
C884 C 0.89195 0.49208 0.88589 0.0
H885 H 0.82551 0.55292 0.80558 0.0
H886 H 0.84385 0.54846 0.84384 0.0
H887 H 0.89487 0.49358 0.84916 0.0
H888 H 0.91352 0.44641 0.95376 0.0
H889 H 0.89185 0.45581 0.91859 0.0
H890 H 0.85001 0.51563 0.91719 0.0
C891 C 0.84479 0.53489 0.83108 0.0
C892 C 0.88474 0.49836 0.86377 0.0
C893 C 0.83454 0.53757 0.80909 0.0
C894 C 0.90663 0.46317 0.95233 0.0
C895 C 0.89453 0.46866 0.93213 0.0
C896 C 0.85987 0.51079 0.9024 0.0
C897 C 0.85563 0.51465 0.83665 0.0
C898 C 0.86464 0.51043 0.86051 0.0
C899 C 0.88752 0.49097 0.92869 0.0
C900 C 0.87943 0.49792 0.90539 0.0
H901 H 0.84732 0.48644 0.78514 0.0
H902 H 0.86476 0.48171 0.8231 0.0
H903 H 0.83676 0.52597 0.87825 0.0
H904 H 0.90759 0.51491 0.97969 0.0
H905 H 0.88585 0.52448 0.94446 0.0
C906 C 0.13453 0.00133 0.80306 0.0
C907 C 0.14926 0.01882 0.79498 0.0
C908 C 0.12293 0.00407 0.82367 0.0
C909 C 0.10605 0.04648 0.86763 0.0
H910 H 0.10195 0.99301 0.90621 0.0
C911 C 0.06955 0.04644 0.96062 0.0
C912 C 0.05173 0.02992 0.96331 0.0
C913 C 0.08325 0.04591 0.94106 0.0
C914 C 0.103 0.00807 0.89561 0.0
H915 H 0.16265 0.0533 0.80167 0.0
H916 H 0.14266 0.05797 0.83804 0.0
H917 H 0.12152 0.9912 0.86953 0.0
H918 H 0.03485 -0.00058 0.94828 0.0
H919 H 0.05916 0.99814 0.9146 0.0
H920 H 0.08761 0.06329 0.89412 0.0
C921 C 0.13988 0.0422 0.82827 0.0
C922 C 0.11403 0.00702 0.8745 0.0
C923 C 0.15135 0.03954 0.80744 0.0
C924 C 0.04844 0.0124 0.94662 0.0
C925 C 0.06238 0.01162 0.92739 0.0
C926 C 0.09521 0.04758 0.88895 0.0
C927 C 0.12598 0.02426 0.83692 0.0
C928 C 0.11529 0.02605 0.85998 0.0
C929 C 0.07966 0.02855 0.92422 0.0
C930 C 0.09324 0.02825 0.90291 0.0
H931 H 0.13233 0.98526 0.79371 0.0
H932 H 0.11182 0.99014 0.82939 0.0
H933 H 0.10658 0.06141 0.85685 0.0
H934 H 0.07233 0.06022 0.97316 0.0
H935 H 0.09656 0.0591 0.93901 0.0
C936 C 0.67818 0.85148 0.52374 0.0
C937 C 0.68469 0.84034 0.50336 0.0
C938 C 0.65642 0.86042 0.52529 0.0
C939 C 0.60662 0.87759 0.48938 0.0
H940 H 0.57383 0.87185 0.54682 0.0
C941 C 0.51576 0.90705 0.49239 0.0
C942 C 0.51192 0.92254 0.51039 0.0
C943 C 0.53422 0.89277 0.49381 0.0
C944 C 0.58279 0.87359 0.53069 0.0
H945 H 0.6735 0.83024 0.46848 0.0
H946 H 0.63553 0.84558 0.47122 0.0
H947 H 0.61224 0.85698 0.54405 0.0
H948 H 0.52292 0.93408 0.54479 0.0
H949 H 0.55556 0.90926 0.54727 0.0
H950 H 0.57746 0.89431 0.47603 0.0
C951 C 0.64734 0.84773 0.48594 0.0
C952 C 0.60486 0.8652 0.52911 0.0
C953 C 0.66916 0.83892 0.48434 0.0
C954 C 0.52539 0.92197 0.53085 0.0
C955 C 0.54415 0.90786 0.53217 0.0
C956 C 0.58463 0.88584 0.49092 0.0
C957 C 0.64057 0.85836 0.50654 0.0
C958 C 0.61707 0.86715 0.50841 0.0
C959 C 0.54952 0.89411 0.51305 0.0
C960 C 0.57239 0.88394 0.51155 0.0
H961 H 0.68975 0.85292 0.53872 0.0
H962 H 0.65202 0.8689 0.54124 0.0
H963 H 0.61562 0.87987 0.47334 0.0
H964 H 0.50562 0.90731 0.47641 0.0
H965 H 0.53749 0.88189 0.47907 0.0
C966 C 0.66996 0.15784 0.04424 0.0
C967 C 0.68727 0.15935 0.0278 0.0
C968 C 0.64881 0.14676 0.0385 0.0
C969 C 0.6126 0.13457 0.98666 0.0
H970 H 0.57516 0.09803 0.02767 0.0
C971 C 0.52737 0.08646 0.95807 0.0
C972 C 0.51067 0.08353 0.97493 0.0
C973 C 0.54845 0.09767 0.96389 0.0
C974 C 0.58525 0.10854 0.01613 0.0
H975 H 0.69704 0.14849 0.9935 0.0
H976 H 0.66041 0.12888 0.98373 0.0
H977 H 0.61383 0.11082 0.04023 0.0
H978 H 0.50164 0.09159 0.01013 0.0
H979 H 0.53782 0.1121 0.01996 0.0
H980 H 0.58399 0.13246 0.96261 0.0
C981 C 0.66283 0.13681 0.00071 0.0
C982 C 0.60745 0.11572 0.02331 0.0
C983 C 0.68385 0.14789 0.00639 0.0
C984 C 0.51439 0.09366 -0.0031 0.0
C985 C 0.5352 0.1051 0.0026 0.0
C986 C 0.59035 0.12748 0.9795 0.0
C987 C 0.64477 0.13701 0.01629 0.0
C988 C 0.62138 0.12877 0.00863 0.0
C989 C 0.55291 0.10622 0.98656 0.0
C990 C 0.57638 0.11442 0.99418 0.0
H991 H 0.67212 0.16657 0.06084 0.0
H992 H 0.6352 0.14712 0.05089 0.0
H993 H 0.6228 0.14499 0.97511 0.0
H994 H 0.5249 0.07849 0.94111 0.0
H995 H 0.56174 0.09825 0.95111 0.0
C996 C 0.30841 0.35607 0.04202 0.0
C997 C 0.2922 0.35083 0.02412 0.0
C998 C 0.3289 0.36837 0.03734 0.0
C999 C 0.35737 0.4032 0.9913 0.0
H1000 H 0.41347 0.38393 0.02112 0.0
C1001 C 0.44827 0.42629 0.958 0.0
C1002 C 0.46155 0.43938 0.9743 0.0
C1003 C 0.42801 0.4148 0.9647 0.0
C1004 C 0.39788 0.38938 0.01267 0.0
H1005 H 0.28428 0.35542 0.98755 0.0
H1006 H 0.3197 0.37597 0.97938 0.0
H1007 H 0.37648 0.36711 0.03266 0.0
H1008 H 0.46502 0.44972 0.01045 0.0
H1009 H 0.43016 0.42891 0.02226 0.0
H1010 H 0.379 0.42482 0.97075 0.0
C1011 C 0.31677 0.37109 -0.00289 0.0
C1012 C 0.37667 0.38 0.01945 0.0
C1013 C 0.29639 0.35906 0.0018 0.0
C1014 C 0.45494 0.43987 -0.00247 0.0
C1015 C 0.43511 0.42792 0.00432 0.0
C1016 C 0.37856 0.41217 0.98423 0.0
C1017 C 0.33355 0.37559 0.01467 0.0
C1018 C 0.3561 0.38671 0.00877 0.0
C1019 C 0.42122 0.41572 0.98789 0.0
C1020 C 0.39897 0.4053 0.9948 0.0
H1021 H 0.3057 0.34996 0.0594 0.0
H1022 H 0.34123 0.37187 0.05141 0.0
H1023 H 0.34196 0.40925 0.98303 0.0
H1024 H 0.45303 0.4257 0.93999 0.0
H1025 H 0.4175 0.40543 0.95177 0.0
C1026 C 0.80069 0.1603 0.02461 0.0
C1027 C 0.79349 0.17293 0.00545 0.0
C1028 C 0.82255 0.1516 0.02558 0.0
C1029 C 0.87114 0.13676 0.98972 0.0
H1030 H 0.90465 0.13938 0.04873 0.0
C1031 C 0.95836 0.09796 -0.00323 0.0
C1032 C 0.95998 0.0823 0.01473 0.0
C1033 C 0.94174 0.11433 -0.0028 0.0
C1034 C 0.89553 0.13857 0.03214 0.0
H1035 H 0.80338 0.18577 0.97195 0.0
H1036 H 0.8417 0.17056 0.97365 0.0
H1037 H 0.86713 0.15613 0.04535 0.0
H1038 H 0.94695 0.07205 0.04788 0.0
H1039 H 0.91761 0.10047 0.04867 0.0
H1040 H 0.89913 0.11872 0.9766 0.0
C1041 C 0.83032 0.16729 0.98787 0.0
C1042 C 0.874 0.14805 0.03021 0.0
C1043 C 0.80835 0.17594 0.98686 0.0
C1044 C 0.94616 0.08431 0.03407 0.0
C1045 C 0.92935 0.10056 0.03444 0.0
C1046 C 0.89264 0.12733 0.99163 0.0
C1047 C 0.8378 0.15539 0.00746 0.0
C1048 C 0.86138 0.14685 0.00908 0.0
C1049 C 0.9262 0.11493 0.01541 0.0
C1050 C 0.90493 0.12778 0.01294 0.0
H1051 H 0.7896 0.15756 0.03918 0.0
H1052 H 0.82755 0.142 0.04063 0.0
H1053 H 0.86179 0.13533 0.97327 0.0
H1054 H 0.96878 0.09643 0.98159 0.0
H1055 H 0.94005 0.12548 0.98253 0.0
C1056 C 0.0413 0.22363 0.21723 0.0
C1057 C 0.04559 0.2184 0.24052 0.0
C1058 C 0.03752 0.20622 0.20064 0.0
C1059 C 0.01519 0.14666 0.19788 0.0
H1060 H 0.03218 0.14971 0.1335 0.0
C1061 C 0.00451 0.07151 0.13205 0.0
C1062 C 0.00025 0.07652 0.10861 0.0
C1063 C 0.00695 0.08899 0.14873 0.0
C1064 C 0.02697 0.14879 0.15136 0.0
H1065 H 0.05011 0.1912 0.26481 0.0
H1066 H 0.04433 0.16067 0.23577 0.0
H1067 H 0.04656 0.17931 0.1608 0.0
H1068 H 0.99235 0.10366 0.08491 0.0
H1069 H -0.00359 0.13399 0.11402 0.0
H1070 H -0.00421 0.11601 0.18844 0.0
C1071 C 0.04367 0.17816 0.23024 0.0
C1072 C 0.03534 0.1657 0.16703 0.0
C1073 C 0.04745 0.1956 0.2468 0.0
C1074 C -0.00422 0.0991 0.10275 0.0
C1075 C -0.00156 0.1166 0.11939 0.0
C1076 C 0.00689 0.12971 0.18222 0.0
C1077 C 0.03768 0.18324 0.20716 0.0
C1078 C 0.02962 0.16482 0.19052 0.0
C1079 C 0.0052 0.11184 0.1423 0.0
C1080 C 0.01268 0.13057 0.15877 0.0
H1081 H 0.03907 0.2411 0.2122 0.0
H1082 H 0.0328 0.21078 0.1831 0.0
H1083 H 0.00995 0.1457 0.21572 0.0
H1084 H 0.00797 0.05431 0.13718 0.0
H1085 H 0.01202 0.08471 0.16626 0.0
C1086 C -0.00481 0.32374 0.2463 0.0
C1087 C 0.99065 0.30084 0.24008 0.0
C1088 C -0.00481 0.3405 0.22945 0.0
C1089 C 0.00747 0.34859 0.16881 0.0
H1090 H 0.97775 0.40578 0.17659 0.0
C1091 C -0.0018 0.41455 0.09632 0.0
C1092 C -0.00525 0.43731 0.10269 0.0
C1093 C 0.00173 0.39826 0.11329 0.0
C1094 C 0.98663 0.39015 0.17434 0.0
H1095 H 0.98244 0.2772 0.21176 0.0
H1096 H 0.98264 0.30669 0.18193 0.0
H1097 H 0.97269 0.37627 0.20534 0.0
H1098 H -0.00405 0.46144 0.13144 0.0
H1099 H 0.0034 0.43325 0.16093 0.0
H1100 H 0.02178 0.36254 0.13803 0.0
C1101 C 0.98592 0.31166 0.19989 0.0
C1102 C 0.98347 0.37314 0.19072 0.0
C1103 C 0.98551 0.29488 0.21688 0.0
C1104 C -0.00182 0.44398 0.12602 0.0
C1105 C 0.00208 0.42773 0.14296 0.0
C1106 C 0.01089 0.36573 0.15252 0.0
C1107 C 0.99118 0.33456 0.20601 0.0
C1108 C -0.00624 0.35218 0.18807 0.0
C1109 C 0.00236 0.40447 0.13692 0.0
C1110 C 0.00046 0.38674 0.15505 0.0
H1111 H -0.00041 0.32854 0.26411 0.0
H1112 H -0.00053 0.35798 0.23462 0.0
H1113 H 0.01592 0.33269 0.16658 0.0
H1114 H -0.00421 0.40881 0.07848 0.0
H1115 H 0.00197 0.38057 0.10788 0.0
C1116 C 0.00786 0.81748 0.23771 0.0
C1117 C 0.98855 0.81078 0.22387 0.0
C1118 C 0.00749 0.8365 0.25225 0.0
C1119 C 0.96931 0.87435 0.28261 0.0
H1120 H 0.02662 0.90961 0.2911 0.0
C1121 C 0.02083 0.94685 0.34576 0.0
C1122 C 0.01268 0.93891 0.36692 0.0
C1123 C 0.01222 0.9372 0.32491 0.0
C1124 C 0.01019 0.90052 0.28871 0.0
H1125 H 0.95355 0.81867 0.21457 0.0
H1126 H 0.953 0.85238 0.23999 0.0
H1127 H 0.0228 0.88124 0.26058 0.0
H1128 H 0.9883 0.91589 0.38317 0.0
H1129 H 0.97422 0.89797 0.34704 0.0
H1130 H 0.95662 0.89393 0.31068 0.0
C1131 C 0.96835 0.84268 0.23965 0.0
C1132 C 0.00818 0.88384 0.27136 0.0
C1133 C 0.96867 0.82341 0.22511 0.0
C1134 C -0.00536 0.9224 0.36696 0.0
C1135 C 0.98654 0.91219 0.34615 0.0
C1136 C 0.97119 0.89138 0.29984 0.0
C1137 C 0.98789 0.84954 0.25321 0.0
C1138 C 0.98813 0.86986 0.26878 0.0
C1139 C -0.00395 0.91871 0.3249 0.0
C1140 C 0.992 0.90408 0.30374 0.0
H1141 H 0.02337 0.80799 0.2374 0.0
H1142 H 0.02262 0.84085 0.26295 0.0
H1143 H 0.95356 0.86396 0.28097 0.0
H1144 H 0.03469 0.9597 0.3454 0.0
H1145 H 0.01936 0.94332 0.30891 0.0
C1146 C 0.03083 0.69604 0.23572 0.0
C1147 C 0.01986 0.71679 0.23593 0.0
C1148 C 0.0282 0.68095 0.25418 0.0
C1149 C 0.98917 0.66981 0.30367 0.0
H1150 H 0.03343 0.62494 0.31996 0.0
C1151 C 0.97721 0.61032 0.38099 0.0
C1152 C 0.97183 0.58814 0.37275 0.0
C1153 C 0.98775 0.62633 0.36651 0.0
C1154 C 0.02107 0.63756 0.31565 0.0
H1155 H -0.00111 0.73888 0.25586 0.0
H1156 H -0.00431 0.71365 0.28868 0.0
H1157 H 0.04276 0.65327 0.29054 0.0
H1158 H 0.97433 0.56474 0.34377 0.0
H1159 H -0.00612 0.59246 0.31885 0.0
H1160 H 0.9678 0.65432 0.32918 0.0
C1161 C 0.00527 0.70815 0.27396 0.0
C1162 C 0.02624 0.65365 0.29863 0.0
C1163 C 0.00732 0.72282 0.25528 0.0
C1164 C 0.97868 0.58168 0.35056 0.0
C1165 C 0.98979 0.5975 0.33634 0.0
C1166 C 0.98431 0.65416 0.32099 0.0
C1167 C 0.015 0.68663 0.27342 0.0
C1168 C 0.01026 0.66994 0.29225 0.0
C1169 C 0.99356 0.62015 0.34387 0.0
C1170 C 0.00011 0.63782 0.32701 0.0
H1171 H 0.04042 0.691 0.22081 0.0
H1172 H 0.03578 0.66452 0.25285 0.0
H1173 H 0.976 0.68142 0.29889 0.0
H1174 H 0.9716 0.61576 0.39786 0.0
H1175 H 0.99033 0.6438 0.37255 0.0
C1176 C 0.23103 0.01435 0.1831 0.0
C1177 C 0.24692 0.03211 0.18935 0.0
C1178 C 0.21731 0.01562 0.16313 0.0
C1179 C 0.19412 0.05564 0.12121 0.0
H1180 H 0.17754 -0.00049 0.08752 0.0
C1181 C 0.12048 0.05523 0.05639 0.0
C1182 C 0.10313 0.03996 0.06373 0.0
C1183 C 0.14331 0.05228 0.0632 0.0
C1184 C 0.18225 0.01537 0.09654 0.0
H1185 H 0.26074 0.06534 0.17987 0.0
H1186 H 0.23672 0.0676 0.14452 0.0
H1187 H 0.20741 -0.0002 0.11794 0.0
H1188 H 0.09579 0.00861 0.0817 0.0
H1189 H 0.13559 0.00317 0.09338 0.0
H1190 H 0.16844 0.07103 0.10042 0.0
C1191 C 0.23476 0.05274 0.15528 0.0
C1192 C 0.19919 0.01553 0.1141 0.0
C1193 C 0.24841 0.05155 0.17555 0.0
C1194 C 0.10905 0.02031 0.07551 0.0
C1195 C 0.13186 0.0173 0.08225 0.0
C1196 C 0.17733 0.05552 0.10352 0.0
C1197 C 0.21931 0.03458 0.14867 0.0
C1198 C 0.20458 0.03544 0.12733 0.0
C1199 C 0.14894 0.0341 0.07754 0.0
C1200 C 0.17057 0.03519 0.09164 0.0
H1201 H 0.22938 -0.00077 0.19357 0.0
H1202 H 0.20507 0.00168 0.15907 0.0
H1203 H 0.19773 0.07124 0.13106 0.0
H1204 H 0.11613 0.0707 0.04761 0.0
H1205 H 0.15618 0.06533 0.05909 0.0
C1206 C 0.73337 0.48804 0.18025 0.0
C1207 C 0.73353 0.50724 0.195 0.0
C1208 C 0.74922 0.48655 0.16269 0.0
C1209 C 0.79364 0.51922 0.12972 0.0
H1210 H 0.81822 0.45934 0.12281 0.0
C1211 C 0.88131 0.49895 0.09016 0.0
C1212 C 0.88271 0.47804 0.07841 0.0
C1213 C 0.86043 0.50535 0.09918 0.0
C1214 C 0.81127 0.47609 0.12413 0.0
H1215 H 0.74991 0.54039 0.20231 0.0
H1216 H 0.77839 0.53746 0.17205 0.0
H1217 H 0.78762 0.46495 0.14955 0.0
H1218 H 0.86353 0.44801 0.06561 0.0
H1219 H 0.82692 0.45929 0.08095 0.0
H1220 H 0.8184 0.53037 0.10487 0.0
C1221 C 0.76567 0.52369 0.17382 0.0
C1222 C 0.79364 0.47935 0.13953 0.0
C1223 C 0.74945 0.52534 0.19126 0.0
C1224 C 0.86269 0.46445 0.0742 0.0
C1225 C 0.84185 0.47078 0.08325 0.0
C1226 C 0.81155 0.51597 0.11439 0.0
C1227 C 0.76603 0.50403 0.15961 0.0
C1228 C 0.78453 0.50092 0.14259 0.0
C1229 C 0.84077 0.49073 0.09686 0.0
C1230 C 0.82054 0.49433 0.11144 0.0
H1231 H 0.72099 0.474 0.18233 0.0
H1232 H 0.74845 0.47146 0.15169 0.0
H1233 H 0.78694 0.53602 0.13146 0.0
H1234 H 0.89671 0.50939 0.09407 0.0
H1235 H 0.86021 0.52074 0.10968 0.0
C1236 C 0.2447 0.97126 0.29743 0.0
C1237 C 0.24094 0.98126 0.27587 0.0
C1238 C 0.2281 0.97234 0.31444 0.0
C1239 C 0.17864 0.0069 0.33013 0.0
H1240 H 0.16892 0.95997 0.3757 0.0
C1241 C 0.10137 0.99656 0.39138 0.0
C1242 C 0.10611 0.98723 0.41316 0.0
C1243 C 0.11921 0.00075 0.37599 0.0
C1244 C 0.17171 0.97339 0.36328 0.0
H1245 H 0.21689 -0.0009 0.25442 0.0
H1246 H 0.18725 -0.00025 0.28343 0.0
H1247 H 0.1958 0.95414 0.34492 0.0
H1248 H 0.13313 0.97813 0.4373 0.0
H1249 H 0.16419 0.98589 0.41069 0.0
H1250 H 0.15371 0.02569 0.34823 0.0
C1251 C 0.20319 0.99181 0.28773 0.0
C1252 C 0.18712 0.97003 0.3456 0.0
C1253 C 0.21994 0.9911 0.27095 0.0
C1254 C 0.12906 0.98517 0.4205 0.0
C1255 C 0.1468 0.98938 0.40522 0.0
C1256 C 0.16296 0.01012 0.34769 0.0
C1257 C 0.20739 0.98324 0.30999 0.0
C1258 C 0.19077 0.9867 0.32874 0.0
C1259 C 0.14186 0.99573 0.38234 0.0
C1260 C 0.15941 0.99341 0.36446 0.0
H1261 H 0.26107 0.9641 0.30168 0.0
H1262 H 0.23206 0.96573 0.33142 0.0
H1263 H 0.18137 0.02036 0.31777 0.0
H1264 H 0.08381 0.99816 0.38526 0.0
H1265 H 0.11496 0.00576 0.35846 0.0
C1266 C 0.74089 0.45422 0.30123 0.0
C1267 C 0.73017 0.47488 0.29774 0.0
C1268 C 0.75742 0.45238 0.31903 0.0
C1269 C 0.78055 0.4778 0.3737 0.0
H1270 H 0.84008 0.4644 0.35001 0.0
C1271 C 0.86482 0.51176 0.41719 0.0
C1272 C 0.88548 0.5021 0.41126 0.0
C1273 C 0.8439 0.50239 0.40841 0.0
C1274 C 0.82361 0.46749 0.35737 0.0
H1275 H 0.72726 0.50935 0.31088 0.0
H1276 H 0.75584 0.50597 0.34212 0.0
H1277 H 0.80625 0.45898 0.32513 0.0
H1278 H 0.90061 0.47379 0.39395 0.0
H1279 H 0.86405 0.45625 0.38019 0.0
H1280 H 0.79779 0.48641 0.40597 0.0
C1281 C 0.75159 0.4913 0.33104 0.0
C1282 C 0.80417 0.4645 0.34291 0.0
C1283 C 0.73543 0.49328 0.31301 0.0
C1284 C 0.88483 0.48162 0.39854 0.0
C1285 C 0.86386 0.4718 0.3904 0.0
C1286 C 0.79997 0.48034 0.38841 0.0
C1287 C 0.76307 0.471 0.33391 0.0
C1288 C 0.78261 0.47032 0.35069 0.0
C1289 C 0.84322 0.48283 0.39398 0.0
C1290 C 0.82194 0.47601 0.38019 0.0
H1291 H 0.7371 0.43975 0.28975 0.0
H1292 H 0.76611 0.43657 0.32092 0.0
H1293 H 0.764 0.48225 0.38011 0.0
H1294 H 0.86495 0.52771 0.42683 0.0
H1295 H 0.82858 0.5116 0.41154 0.0
C1296 C 0.18104 0.25931 0.06492 0.0
C1297 C 0.19714 0.25608 0.04764 0.0
C1298 C 0.16098 0.24527 0.06534 0.0
C1299 C 0.12376 0.21115 0.02471 0.0
H1300 H 0.09862 0.18234 0.07895 0.0
C1301 C 0.06222 0.13239 0.02055 0.0
C1302 C 0.04799 0.12803 0.03933 0.0
C1303 C 0.07626 0.15226 0.02034 0.0
C1304 C 0.10503 0.1907 0.06367 0.0
H1305 H 0.20608 0.23472 0.01863 0.0
H1306 H 0.17156 0.21012 0.01968 0.0
H1307 H 0.13281 0.20752 0.0831 0.0
H1308 H 0.03483 0.14212 0.07096 0.0
H1309 H 0.05853 0.17725 0.07009 0.0
H1310 H 0.09629 0.19416 0.00517 0.0
C1311 C 0.17394 0.22374 0.03245 0.0
C1312 C 0.12473 0.20502 0.0661 0.0
C1313 C 0.19381 0.23766 0.03203 0.0
C1314 C 0.04588 0.14503 0.05638 0.0
C1315 C 0.05966 0.165 0.05603 0.0
C1316 C 0.10399 0.19699 0.02229 0.0
C1317 C 0.15689 0.22796 0.04846 0.0
C1318 C 0.13465 0.21484 0.04655 0.0
C1319 C 0.07602 0.16819 0.03878 0.0
C1320 C 0.09471 0.18611 0.04165 0.0
H1321 H 0.18314 0.27357 0.07697 0.0
H1322 H 0.14812 0.24876 0.07798 0.0
H1323 H 0.13078 0.21893 0.00939 0.0
H1324 H 0.06429 0.11948 0.00727 0.0
H1325 H 0.08864 0.1541 0.00677 0.0
C1326 C 0.18597 0.76677 0.48462 0.0
C1327 C 0.18727 0.75292 0.5042 0.0
C1328 C 0.16907 0.78287 0.48274 0.0
C1329 C 0.11198 0.7967 0.50065 0.0
H1330 H 0.13119 0.85866 0.48585 0.0
C1331 C 0.07423 0.89138 0.48163 0.0
C1332 C 0.06124 0.88612 0.46131 0.0
C1333 C 0.08624 0.87442 0.49286 0.0
C1334 C 0.12559 0.84152 0.49037 0.0
H1335 H 0.17143 0.74457 0.53681 0.0
H1336 H 0.14157 0.77238 0.53316 0.0
H1337 H 0.16004 0.83023 0.49186 0.0
H1338 H 0.04865 0.85898 0.43808 0.0
H1339 H 0.06864 0.82913 0.45837 0.0
H1340 H 0.0774 0.80783 0.49791 0.0
C1341 C 0.15381 0.77091 0.51946 0.0
C1342 C 0.14207 0.82522 0.49352 0.0
C1343 C 0.17094 0.75508 0.52155 0.0
C1344 C 0.0583 0.86333 0.45392 0.0
C1345 C 0.06982 0.84629 0.46548 0.0
C1346 C 0.09542 0.81294 0.49701 0.0
C1347 C 0.15292 0.78515 0.50019 0.0
C1348 C 0.13541 0.8026 0.49835 0.0
C1349 C 0.08494 0.85193 0.4842 0.0
C1350 C 0.10209 0.83544 0.4916 0.0
H1351 H 0.19829 0.76551 0.47098 0.0
H1352 H 0.16858 0.79352 0.46759 0.0
H1353 H 0.10644 0.77934 0.50435 0.0
H1354 H 0.07712 0.90891 0.48735 0.0
H1355 H 0.09779 0.87915 0.50728 0.0
C1356 C 0.78906 0.74035 0.50724 0.0
C1357 C 0.78258 0.75519 0.4896 0.0
C1358 C 0.80372 0.72273 0.50271 0.0
C1359 C 0.8261 0.68918 0.45372 0.0
H1360 H 0.86682 0.66713 0.50175 0.0
C1361 C 0.90275 0.62063 0.46472 0.0
C1362 C 0.89349 0.60359 0.44947 0.0
C1363 C 0.88991 0.63939 0.47056 0.0
C1364 C 0.85575 0.67319 0.48802 0.0
H1365 H 0.787 0.76375 0.45358 0.0
H1366 H 0.81338 0.73364 0.44581 0.0
H1367 H 0.8447 0.70047 0.50931 0.0
H1368 H 0.86305 0.59216 0.42954 0.0
H1369 H 0.84043 0.62414 0.44042 0.0
H1370 H 0.83786 0.66264 0.43208 0.0
C1371 C 0.80652 0.73501 0.463 0.0
C1372 C 0.84276 0.69218 0.49248 0.0
C1373 C 0.79148 0.75238 0.46744 0.0
C1374 C 0.87081 0.60516 0.44107 0.0
C1375 C 0.85789 0.62367 0.44716 0.0
C1376 C 0.83929 0.67044 0.44917 0.0
C1377 C 0.81263 0.71973 0.4805 0.0
C1378 C 0.82752 0.70029 0.47546 0.0
C1379 C 0.86742 0.64136 0.46151 0.0
C1380 C 0.85405 0.66193 0.46635 0.0
H1381 H 0.78235 0.74199 0.52448 0.0
H1382 H 0.80757 0.71115 0.51656 0.0
H1383 H 0.81442 0.69461 0.44022 0.0
H1384 H 0.92022 0.61992 0.47142 0.0
H1385 H 0.89792 0.65269 0.48153 0.0
C1386 C 0.28261 0.77505 0.5388 0.0
C1387 C 0.27987 0.75695 0.55422 0.0
C1388 C 0.30276 0.78855 0.5392 0.0
C1389 C 0.35377 0.8074 0.5728 0.0
H1390 H 0.37858 0.81748 0.51182 0.0
C1391 C 0.43005 0.86968 0.56266 0.0
C1392 C 0.42613 0.88621 0.54582 0.0
C1393 C 0.41697 0.84926 0.5624 0.0
C1394 C 0.37192 0.81482 0.52896 0.0
H1395 H 0.2953 0.73963 0.58319 0.0
H1396 H 0.3308 0.7638 0.5842 0.0
H1397 H 0.34482 0.7921 0.51601 0.0
H1398 H 0.40713 0.89349 0.51425 0.0
H1399 H 0.3839 0.85811 0.51401 0.0
H1400 H 0.38011 0.83089 0.58569 0.0
C1401 C 0.31727 0.76731 0.57172 0.0
C1402 C 0.35259 0.80032 0.53136 0.0
C1403 C 0.29693 0.75368 0.57131 0.0
C1404 C 0.41049 0.88105 0.52745 0.0
C1405 C 0.3972 0.86071 0.52733 0.0
C1406 C 0.37304 0.82203 0.5704 0.0
C1407 C 0.32066 0.78425 0.55501 0.0
C1408 C 0.3429 0.79707 0.55319 0.0
C1409 C 0.39954 0.8451 0.54545 0.0
C1410 C 0.38191 0.82645 0.54834 0.0
H1411 H 0.26962 0.77798 0.52554 0.0
H1412 H 0.30465 0.80193 0.52658 0.0
H1413 H 0.34663 0.80517 0.58981 0.0
H1414 H 0.44233 0.87309 0.57682 0.0
H1415 H 0.41964 0.83731 0.57622 0.0
C1416 C 0.53282 0.69595 0.74713 0.0
C1417 C 0.53914 0.71821 0.74079 0.0
C1418 C 0.52822 0.67908 0.73023 0.0
C1419 C 0.53137 0.66571 0.66696 0.0
H1420 H 0.48025 0.62398 0.68049 0.0
C1421 C 0.49238 0.60334 0.59786 0.0
C1422 C 0.49365 0.58044 0.60448 0.0
C1423 C 0.49487 0.62088 0.61444 0.0
C1424 C 0.49453 0.63553 0.67649 0.0
H1425 H 0.54621 0.74044 0.7121 0.0
H1426 H 0.5377 0.71109 0.68227 0.0
H1427 H 0.49328 0.65275 0.70919 0.0
H1428 H 0.49554 0.55805 0.63392 0.0
H1429 H 0.49887 0.58872 0.66292 0.0
H1430 H 0.53214 0.6486 0.63398 0.0
C1431 C 0.53685 0.70637 0.70029 0.0
C1432 C 0.50222 0.6519 0.69301 0.0
C1433 C 0.54185 0.7232 0.71733 0.0
C1434 C 0.49454 0.57547 0.62824 0.0
C1435 C 0.4966 0.59304 0.64485 0.0
C1436 C 0.52344 0.64953 0.65031 0.0
C1437 C 0.52921 0.68426 0.70653 0.0
C1438 C 0.52096 0.66704 0.68862 0.0
C1439 C 0.49801 0.61588 0.63798 0.0
C1440 C 0.50507 0.63416 0.655 0.0
H1441 H 0.53044 0.69185 0.76518 0.0
H1442 H 0.52312 0.66214 0.73579 0.0
H1443 H 0.54597 0.67685 0.66299 0.0
H1444 H 0.49164 0.60788 0.57974 0.0
H1445 H 0.49551 0.63836 0.60873 0.0
C1446 C 0.48841 0.79646 0.72056 0.0
C1447 C 0.48888 0.80343 0.74388 0.0
C1448 C 0.48892 0.81262 0.70302 0.0
C1449 C 0.50937 0.87197 0.69412 0.0
H1450 H 0.47633 0.86495 0.63518 0.0
C1451 C 0.49705 0.94383 0.62854 0.0
C1452 C 0.49492 0.93799 0.60486 0.0
C1453 C 0.50095 0.92713 0.645 0.0
C1454 C 0.48602 0.86693 0.65139 0.0
H1455 H 0.4898 0.83233 0.76747 0.0
H1456 H 0.48991 0.86071 0.73687 0.0
H1457 H 0.47031 0.8366 0.66507 0.0
H1458 H 0.49827 0.9106 0.57971 0.0
H1459 H 0.50524 0.88158 0.60846 0.0
H1460 H 0.52471 0.90259 0.68054 0.0
C1461 C 0.48934 0.84284 0.73201 0.0
C1462 C 0.48245 0.85074 0.66858 0.0
C1463 C 0.48884 0.82666 0.74951 0.0
C1464 C 0.49962 0.9157 0.59781 0.0
C1465 C 0.50333 0.89896 0.6143 0.0
C1466 C 0.51287 0.88821 0.67696 0.0
C1467 C 0.49019 0.83603 0.70859 0.0
C1468 C 0.4939 0.85319 0.69023 0.0
C1469 C 0.50278 0.90429 0.63808 0.0
C1470 C 0.50111 0.88596 0.65547 0.0
H1471 H 0.48914 0.77858 0.71596 0.0
H1472 H 0.48975 0.80678 0.68521 0.0
H1473 H 0.5189 0.87409 0.7104 0.0
H1474 H 0.49367 0.96087 0.63452 0.0
H1475 H 0.50055 0.93181 0.66319 0.0
C1476 C 0.55024 0.32304 0.73148 0.0
C1477 C 0.53477 0.30441 0.73453 0.0
C1478 C 0.54863 0.34287 0.74513 0.0
C1479 C 0.5042 0.37303 0.77429 0.0
H1480 H 0.55131 0.40289 0.81381 0.0
C1481 C 0.48566 0.41925 0.85837 0.0
C1482 C 0.50081 0.43672 0.86697 0.0
C1483 C 0.48919 0.40904 0.83686 0.0
C1484 C 0.53808 0.39517 0.80239 0.0
H1485 H 0.50706 0.29092 0.75532 0.0
H1486 H 0.50448 0.3251 0.77907 0.0
H1487 H 0.56144 0.37206 0.78752 0.0
H1488 H 0.52992 0.45905 0.85849 0.0
H1489 H 0.53602 0.4412 0.82088 0.0
H1490 H 0.48063 0.39532 0.78963 0.0
C1491 C 0.51744 0.32476 0.76595 0.0
C1492 C 0.54391 0.37747 0.78744 0.0
C1493 C 0.51906 0.30515 0.7525 0.0
C1494 C 0.51792 0.44558 0.85241 0.0
C1495 C 0.52163 0.43518 0.83096 0.0
C1496 C 0.4984 0.39071 0.78907 0.0
C1497 C 0.53148 0.34413 0.76177 0.0
C1498 C 0.5268 0.36564 0.77403 0.0
C1499 C 0.50802 0.41604 0.82352 0.0
C1500 C 0.51506 0.40134 0.80402 0.0
H1501 H 0.56235 0.3229 0.71757 0.0
H1502 H 0.55978 0.35759 0.74177 0.0
H1503 H 0.49076 0.3644 0.76376 0.0
H1504 H 0.47235 0.41206 0.86918 0.0
H1505 H 0.47837 0.39432 0.83171 0.0
C1506 C 0.48695 0.1898 0.73146 0.0
C1507 C 0.48907 0.21299 0.73731 0.0
C1508 C 0.48776 0.17342 0.74876 0.0
C1509 C 0.48231 0.16604 0.81217 0.0
H1510 H 0.51167 0.10931 0.79983 0.0
C1511 C 0.48133 0.09787 0.88059 0.0
C1512 C 0.46908 0.07843 0.87188 0.0
C1513 C 0.49134 0.11344 0.8653 0.0
C1514 C 0.50362 0.12517 0.80357 0.0
H1515 H 0.49403 0.23759 0.76532 0.0
H1516 H 0.49551 0.20908 0.79573 0.0
H1517 H 0.51189 0.13896 0.77054 0.0
H1518 H 0.46016 0.05837 0.84104 0.0
H1519 H 0.47834 0.08496 0.81447 0.0
H1520 H 0.47376 0.15214 0.84502 0.0
C1521 C 0.49274 0.20337 0.77793 0.0
C1522 C 0.5035 0.14206 0.78672 0.0
C1523 C 0.49186 0.21971 0.7606 0.0
C1524 C 0.4698 0.07314 0.84814 0.0
C1525 C 0.48008 0.08848 0.83291 0.0
C1526 C 0.48265 0.14927 0.82906 0.0
C1527 C 0.49096 0.17998 0.77222 0.0
C1528 C 0.49243 0.16254 0.79064 0.0
C1529 C 0.48949 0.1095 0.84121 0.0
C1530 C 0.49295 0.1285 0.82481 0.0
H1531 H 0.48521 0.18436 0.71346 0.0
H1532 H 0.48595 0.15562 0.74372 0.0
H1533 H 0.47332 0.18139 0.81572 0.0
H1534 H 0.48068 0.10247 0.8988 0.0
H1535 H 0.49875 0.12942 0.87216 0.0
C1536 C 0.74617 0.54861 0.67579 0.0
C1537 C 0.74587 0.529 0.68938 0.0
C1538 C 0.73155 0.54968 0.6562 0.0
C1539 C 0.69458 0.51202 0.61646 0.0
H1540 H 0.66316 0.56737 0.60376 0.0
C1541 C 0.603 0.51705 0.58078 0.0
C1542 C 0.5972 0.5359 0.56762 0.0
C1543 C 0.62583 0.51413 0.58756 0.0
C1544 C 0.6722 0.5519 0.60666 0.0
H1545 H 0.72948 0.49564 0.69393 0.0
H1546 H 0.70343 0.49789 0.66073 0.0
H1547 H 0.6936 0.56779 0.63335 0.0
H1548 H 0.61043 0.56545 0.54958 0.0
H1549 H 0.65048 0.56044 0.5615 0.0
H1550 H 0.67187 0.49584 0.59085 0.0
C1551 C 0.71549 0.51208 0.66435 0.0
C1552 C 0.68965 0.55213 0.6237 0.0
C1553 C 0.73022 0.5109 0.68361 0.0
C1554 C 0.61467 0.55053 0.55936 0.0
C1555 C 0.63749 0.54781 0.5664 0.0
C1556 C 0.67692 0.51173 0.59964 0.0
C1557 C 0.71625 0.53125 0.65007 0.0
C1558 C 0.70046 0.53199 0.62943 0.0
C1559 C 0.64305 0.53034 0.58165 0.0
C1560 C 0.66506 0.53151 0.59511 0.0
H1561 H 0.75829 0.56268 0.67976 0.0
H1562 H 0.73264 0.56471 0.64558 0.0
H1563 H 0.70304 0.49633 0.61991 0.0
H1564 H 0.58967 0.5059 0.58773 0.0
H1565 H 0.62955 0.5006 0.59945 0.0
C1566 C 0.23953 0.99003 0.68079 0.0
C1567 C 0.23588 0.0096 0.69422 0.0
C1568 C 0.25519 0.99069 0.66288 0.0
C1569 C 0.30773 0.02084 0.64504 0.0
H1570 H 0.29649 0.98573 0.58823 0.0
C1571 C 0.38196 0.00371 0.58445 0.0
C1572 C 0.38344 0.98048 0.57922 0.0
C1573 C 0.36149 0.01201 0.59285 0.0
C1574 C 0.29991 0.99568 0.60395 0.0
H1575 H 0.24554 0.0454 0.69898 0.0
H1576 H 0.27327 0.04646 0.66779 0.0
H1577 H 0.26512 0.99118 0.61467 0.0
H1578 H 0.36476 0.94793 0.57733 0.0
H1579 H 0.32915 0.96223 0.59153 0.0
H1580 H 0.34273 0.0244 0.63498 0.0
C1581 C 0.26393 0.0306 0.67121 0.0
C1582 C 0.28193 -0.00122 0.61912 0.0
C1583 C 0.24802 0.03 0.68903 0.0
C1584 C 0.36383 0.96602 0.58085 0.0
C1585 C 0.34342 0.97427 0.58903 0.0
C1586 C 0.32574 0.01766 0.62992 0.0
C1587 C 0.26778 0.0109 0.65801 0.0
C1588 C 0.28581 0.01077 0.6402 0.0
C1589 C 0.34225 0.99717 0.59609 0.0
C1590 C 0.32224 0.0044 0.60955 0.0
H1591 H 0.23037 0.97406 0.68418 0.0
H1592 H 0.25795 0.97513 0.65329 0.0
H1593 H 0.31134 0.03003 0.6612 0.0
H1594 H 0.39705 0.01505 0.58376 0.0
H1595 H 0.36111 0.02979 0.59791 0.0
C1596 C 0.74817 0.46533 0.79567 0.0
C1597 C 0.74432 0.47615 0.77452 0.0
C1598 C 0.73097 0.46438 0.81218 0.0
C1599 C 0.67823 0.49431 0.82716 0.0
H1600 H 0.66672 0.44315 0.8675 0.0
C1601 C 0.59291 0.47105 0.87036 0.0
C1602 C 0.5936 0.46784 0.89438 0.0
C1603 C 0.61317 0.47495 0.85847 0.0
C1604 C 0.67007 0.45768 0.85656 0.0
H1605 H 0.71965 0.49341 0.75328 0.0
H1606 H 0.68919 0.49057 0.78125 0.0
H1607 H 0.69812 0.44213 0.84023 0.0
H1608 H 0.61565 0.46636 0.92503 0.0
H1609 H 0.65152 0.47233 0.90387 0.0
H1610 H 0.64924 0.50914 0.84259 0.0
C1611 C 0.70558 0.48359 0.78572 0.0
C1612 C 0.688 0.45712 0.84094 0.0
C1613 C 0.72284 0.48488 0.76951 0.0
C1614 C 0.6148 0.46913 0.90651 0.0
C1615 C 0.6352 0.47237 0.89447 0.0
C1616 C 0.66011 0.49465 0.84244 0.0
C1617 C 0.70967 0.47411 0.80762 0.0
C1618 C 0.69194 0.47521 0.82564 0.0
C1619 C 0.63447 0.47502 0.87033 0.0
C1620 C 0.65566 0.47619 0.85695 0.0
H1621 H 0.76486 0.45889 0.79996 0.0
H1622 H 0.73476 0.45702 0.82886 0.0
H1623 H 0.6812 0.5089 0.81622 0.0
H1624 H 0.5767 0.46995 0.8607 0.0
H1625 H 0.61227 0.47683 0.83983 0.0
C1626 C 0.2477 0.99311 0.80417 0.0
C1627 C 0.23443 0.97402 0.79608 0.0
C1628 C 0.26143 0.99192 0.82416 0.0
C1629 C 0.292 0.95298 0.86125 0.0
H1630 H 0.29807 0.00724 0.90018 0.0
C1631 C 0.37604 0.98784 0.89914 0.0
C1632 C 0.37658 0.00379 0.91737 0.0
C1633 C 0.35554 0.97619 0.89259 0.0
C1634 C 0.29628 0.99159 0.89008 0.0
H1635 H 0.22549 0.93851 0.8024 0.0
H1636 H 0.2498 0.9364 0.83755 0.0
H1637 H 0.26708 0.00341 0.87146 0.0
H1638 H 0.35707 0.01869 0.94461 0.0
H1639 H 0.32102 0.99804 0.93341 0.0
H1640 H 0.3217 0.9415 0.87945 0.0
C1641 C 0.24944 0.95229 0.82831 0.0
C1642 C 0.27867 0.98959 0.87329 0.0
C1643 C 0.23562 0.95348 0.80817 0.0
C1644 C 0.35701 0.00619 0.93065 0.0
C1645 C 0.33637 0.99457 0.92404 0.0
C1646 C 0.30958 0.95491 0.8782 0.0
C1647 C 0.26222 0.97163 0.83668 0.0
C1648 C 0.27717 0.97091 0.85782 0.0
C1649 C 0.33511 0.98057 0.90399 0.0
C1650 C 0.31273 0.97486 0.89188 0.0
H1651 H 0.24737 0.00915 0.79518 0.0
H1652 H 0.2716 0.00694 0.82971 0.0
H1653 H 0.29114 0.93826 0.84973 0.0
H1654 H 0.39093 0.98602 0.88853 0.0
H1655 H 0.35534 0.96573 0.87699 0.0
C1656 C 0.69597 0.73756 0.52923 0.0
C1657 C 0.6995 0.75578 0.54505 0.0
C1658 C 0.67634 0.72336 0.53005 0.0
C1659 C 0.62826 0.70384 0.56505 0.0
H1660 H 0.59863 0.69245 0.50475 0.0
C1661 C 0.54886 0.6441 0.5569 0.0
C1662 C 0.55039 0.62704 0.53981 0.0
C1663 C 0.56305 0.66379 0.55639 0.0
C1664 C 0.60668 0.69542 0.5217 0.0
H1665 H 0.68613 0.7727 0.57505 0.0
H1666 H 0.65147 0.74748 0.57668 0.0
H1667 H 0.63289 0.71761 0.50813 0.0
H1668 H 0.5663 0.61802 0.50766 0.0
H1669 H 0.59139 0.65216 0.50691 0.0
H1670 H 0.60263 0.68102 0.57856 0.0
C1671 C 0.664 0.74431 0.56362 0.0
C1672 C 0.62631 0.7098 0.52364 0.0
C1673 C 0.68386 0.75859 0.56284 0.0
C1674 C 0.56469 0.63097 0.52098 0.0
C1675 C 0.57911 0.65057 0.52061 0.0
C1676 C 0.60867 0.68934 0.5631 0.0
C1677 C 0.6597 0.72714 0.54663 0.0
C1678 C 0.63763 0.7137 0.54524 0.0
C1679 C 0.57923 0.66665 0.53894 0.0
C1680 C 0.59793 0.68456 0.54132 0.0
H1681 H 0.70791 0.73497 0.51545 0.0
H1682 H 0.67381 0.70985 0.51718 0.0
H1683 H 0.63666 0.70651 0.58188 0.0
H1684 H 0.53773 0.64157 0.57148 0.0
H1685 H 0.56223 0.67615 0.57039 0.0
C1686 C 0.68048 0.26363 0.01949 0.0
C1687 C 0.69253 0.25553 0.00047 0.0
C1688 C 0.66389 0.27985 0.01647 0.0
C1689 C 0.62548 0.30275 0.9718 0.0
H1690 H 0.62006 0.35281 0.01552 0.0
C1691 C 0.55295 0.36285 0.95942 0.0
C1692 C 0.55939 0.38609 0.96019 0.0
C1693 C 0.56735 0.34693 0.96895 0.0
C1694 C 0.62137 0.33893 0.00317 0.0
H1695 H 0.69676 0.25834 0.96339 0.0
H1696 H 0.66791 0.28677 0.95813 0.0
H1697 H 0.65003 0.32546 0.0216 0.0
H1698 H 0.58494 0.41125 0.97301 0.0
H1699 H 0.61061 0.38332 0.98923 0.0
H1700 H 0.59752 0.31642 0.9529 0.0
C1701 C 0.67111 0.28036 0.97536 0.0
C1702 C 0.63842 0.32318 0.00673 0.0
C1703 C 0.68773 0.26414 0.97838 0.0
C1704 C 0.57955 0.39339 0.9724 0.0
C1705 C 0.59425 0.37736 0.98162 0.0
C1706 C 0.60853 0.31843 0.96825 0.0
C1707 C 0.65893 0.28832 0.99435 0.0
C1708 C 0.64074 0.30499 0.99097 0.0
C1709 C 0.58878 0.35389 0.97895 0.0
C1710 C 0.60623 0.33673 0.98385 0.0
H1711 H 0.68374 0.25736 0.03676 0.0
H1712 H 0.65463 0.28543 0.0314 0.0
H1713 H 0.62659 0.28879 0.95949 0.0
H1714 H 0.53738 0.35687 0.95019 0.0
H1715 H 0.56226 0.32905 0.96727 0.0
C1716 C 0.28732 0.23949 0.01325 0.0
C1717 C 0.28264 0.2548 -0.00456 0.0
C1718 C 0.30342 0.22285 0.01032 0.0
C1719 C 0.33521 0.19363 0.96426 0.0
H1720 H 0.37175 0.17269 0.01628 0.0
C1721 C 0.40728 0.13484 0.94841 0.0
C1722 C 0.40477 0.1137 0.95923 0.0
C1723 C 0.39557 0.15342 0.95634 0.0
C1724 C 0.36159 0.17839 0.00167 0.0
H1725 H 0.29147 0.26517 0.96087 0.0
H1726 H 0.3204 0.2369 0.95602 0.0
H1727 H 0.34468 0.20281 0.02227 0.0
H1728 H 0.3897 0.09567 0.98793 0.0
H1729 H 0.36877 0.1285 0.0019 0.0
H1730 H 0.3525 0.16966 0.94362 0.0
C1731 C 0.31105 0.23704 0.97198 0.0
C1732 C 0.34598 0.19555 0.00505 0.0
C1733 C 0.29454 0.25335 0.97473 0.0
C1734 C 0.39195 0.1119 0.97943 0.0
C1735 C 0.38 0.13061 0.98735 0.0
C1736 C 0.35101 0.17687 0.96086 0.0
C1737 C 0.3156 0.2214 0.98967 0.0
C1738 C 0.33255 0.20339 0.98634 0.0
C1739 C 0.38089 0.15117 0.97512 0.0
C1740 C 0.36439 0.16911 0.97947 0.0
H1741 H 0.27825 0.24017 0.02938 0.0
H1742 H 0.30601 0.21091 0.02416 0.0
H1743 H 0.32482 0.19861 0.94953 0.0
H1744 H 0.41727 0.13664 0.93291 0.0
H1745 H 0.39688 0.1692 0.94689 0.0
C1746 C 0.78494 0.27327 0.03844 0.0
C1747 C 0.78194 0.25483 0.05338 0.0
C1748 C 0.80524 0.28652 0.03921 0.0
C1749 C 0.85616 0.3046 0.07274 0.0
H1750 H 0.88161 0.31341 0.01182 0.0
C1751 C 0.9319 0.36729 0.06209 0.0
C1752 C 0.92777 0.38343 0.0449 0.0
C1753 C 0.91923 0.34664 0.06208 0.0
C1754 C 0.87479 0.31108 0.02895 0.0
H1755 H 0.79698 0.23667 0.08199 0.0
H1756 H 0.83279 0.26044 0.08367 0.0
H1757 H 0.84768 0.28829 0.01616 0.0
H1758 H 0.90897 0.38975 0.01296 0.0
H1759 H 0.88647 0.35398 0.01313 0.0
H1760 H 0.88241 0.32831 0.08542 0.0
C1761 C 0.81934 0.26438 0.07126 0.0
C1762 C 0.85539 0.29673 0.03143 0.0
C1763 C 0.79885 0.25098 0.07047 0.0
C1764 C 0.91248 0.37762 0.02642 0.0
C1765 C 0.8996 0.35705 0.02654 0.0
C1766 C 0.8755 0.31913 0.07024 0.0
C1767 C 0.82301 0.2816 0.05492 0.0
C1768 C 0.84546 0.294 0.05321 0.0
C1769 C 0.90203 0.34186 0.04502 0.0
C1770 C 0.88457 0.32312 0.04818 0.0
H1771 H 0.77205 0.27665 0.02521 0.0
H1772 H 0.8074 0.30013 0.02687 0.0
H1773 H 0.84881 0.30274 0.08969 0.0
H1774 H 0.94393 0.37122 0.07635 0.0
H1775 H 0.92197 0.33501 0.07618 0.0
loop_
_geom_bond_atom_site_label_1
_geom_bond_atom_site_label_2
_geom_bond_distance
_geom_bond_site_symmetry_2
_ccdc_geom_bond_type
C0 O2 1.247 . S
C0 O4 1.258 . S
C1 O8 1.247 . S
C1 O9 1.258 . S
O2 C0 1.247 . S
O2 Zn3 2.028 . S
Zn3 O2 2.028 . S
Zn3 O7 2.035 . S
Zn3 O9 2.035 . S
Zn3 O10 2.028 . S
O4 C0 1.258 . S
O4 Zn5 2.035 . S
Zn5 O4 2.035 . S
Zn5 O6 2.028 . S
Zn5 O8 2.028 . S
Zn5 O11 2.035 . S
O6 Zn5 2.028 . S
O6 C12 1.247 . S
O7 Zn3 2.035 . S
O7 C12 1.258 . S
O8 C1 1.247 . S
O8 Zn5 2.028 . S
O9 C1 1.258 . S
O9 Zn3 2.035 . S
O10 Zn3 2.028 . S
O10 C13 1.247 . S
O11 Zn5 2.035 . S
O11 C13 1.258 . S
C12 O6 1.247 . S
C12 O7 1.258 . S
C13 O10 1.247 . S
C13 O11 1.258 . S
C14 O16 1.247 . S
C14 O18 1.258 . S
C15 O22 1.247 1_455 S
C15 O23 1.258 . S
O16 C14 1.247 . S
O16 Zn17 2.028 . S
Zn17 O16 2.028 . S
Zn17 O21 2.035 . S
Zn17 O23 2.035 . S
Zn17 O24 2.028 . S
O18 C14 1.258 . S
O18 Zn19 2.035 1_455 S
Zn19 O18 2.035 1_655 S
Zn19 O20 2.028 . S
Zn19 O22 2.028 . S
Zn19 O25 2.035 1_655 S
O20 Zn19 2.028 . S
O20 C26 1.247 1_655 S
O21 Zn17 2.035 . S
O21 C26 1.258 . S
O22 C15 1.247 1_655 S
O22 Zn19 2.028 . S
O23 C15 1.258 . S
O23 Zn17 2.035 . S
O24 Zn17 2.028 . S
O24 C27 1.247 . S
O25 Zn19 2.035 1_455 S
O25 C27 1.258 . S
C26 O20 1.247 1_455 S
C26 O21 1.258 . S
C27 O24 1.247 . S
C27 O25 1.258 . S
C28 O30 1.247 1_545 S
C28 O32 1.258 . S
C29 O36 1.252 . S
C29 O37 1.253 1_545 S
O30 C28 1.247 1_565 S
O30 Zn31 2.028 . S
Zn31 O30 2.028 . S
Zn31 O35 2.035 . S
Zn31 O37 2.035 . S
Zn31 O38 2.028 . S
O32 C28 1.258 . S
O32 Zn33 2.035 . S
Zn33 O32 2.035 . S
Zn33 O34 2.028 . S
Zn33 O36 2.028 . S
Zn33 O39 2.035 . S
O34 Zn33 2.028 . S
O34 C40 1.250 . S
O35 Zn31 2.035 . S
O35 C40 1.255 1_565 S
O36 C29 1.252 . S
O36 Zn33 2.028 . S
O37 C29 1.253 1_565 S
O37 Zn31 2.035 . S
O38 Zn31 2.028 . S
O38 C41 1.247 1_565 S
O39 Zn33 2.035 . S
O39 C41 1.258 . S
C40 O34 1.250 . S
C40 O35 1.255 1_545 S
C41 O38 1.247 1_545 S
C41 O39 1.258 . S
C42 O44 1.247 . S
C42 O46 1.258 . S
C43 O50 1.247 . S
C43 O51 1.258 . S
O44 C42 1.247 . S
O44 Zn45 2.028 . S
Zn45 O44 2.028 . S
Zn45 O49 2.035 . S
Zn45 O51 2.035 . S
Zn45 O52 2.028 . S
O46 C42 1.258 . S
O46 Zn47 2.035 . S
Zn47 O46 2.035 . S
Zn47 O48 2.028 . S
Zn47 O50 2.028 . S
Zn47 O53 2.035 . S
O48 Zn47 2.028 . S
O48 C54 1.247 . S
O49 Zn45 2.035 . S
O49 C54 1.258 . S
O50 C43 1.247 . S
O50 Zn47 2.028 . S
O51 C43 1.258 . S
O51 Zn45 2.035 . S
O52 Zn45 2.028 . S
O52 C55 1.247 . S
O53 Zn47 2.035 . S
O53 C55 1.258 . S
C54 O48 1.247 . S
C54 O49 1.258 . S
C55 O52 1.247 . S
C55 O53 1.258 . S
C56 O58 1.247 . S
C56 O60 1.258 . S
C57 O64 1.247 . S
C57 O65 1.258 . S
O58 C56 1.247 . S
O58 Zn59 2.034 . S
Zn59 O58 2.034 . S
Zn59 O63 2.035 . S
Zn59 O65 2.036 . S
Zn59 O66 2.035 . S
O60 C56 1.258 . S
O60 Zn61 2.035 . S
Zn61 O60 2.035 . S
Zn61 O62 2.028 . S
Zn61 O64 2.028 . S
Zn61 O67 2.035 . S
O62 Zn61 2.028 . S
O62 C68 1.247 . S
O63 Zn59 2.035 . S
O63 C68 1.258 . S
O64 C57 1.247 . S
O64 Zn61 2.028 . S
O65 C57 1.258 . S
O65 Zn59 2.036 . S
O66 Zn59 2.035 . S
O66 C69 1.247 . S
O67 Zn61 2.035 . S
O67 C69 1.258 . S
C68 O62 1.247 . S
C68 O63 1.258 . S
C69 O66 1.247 . S
C69 O67 1.258 . S
C70 O72 1.247 . S
C70 O74 1.258 . S
C71 O78 1.247 . S
C71 O79 1.258 . S
O72 C70 1.247 . S
O72 Zn73 2.028 . S
Zn73 O72 2.028 . S
Zn73 O77 2.035 . S
Zn73 O79 2.035 . S
Zn73 O80 2.028 . S
O74 C70 1.258 . S
O74 Zn75 2.035 . S
Zn75 O74 2.035 . S
Zn75 O76 2.028 . S
Zn75 O78 2.028 . S
Zn75 O81 2.035 . S
O76 Zn75 2.028 . S
O76 C82 1.247 . S
O77 Zn73 2.035 . S
O77 C82 1.258 . S
O78 C71 1.247 . S
O78 Zn75 2.028 . S
O79 C71 1.258 . S
O79 Zn73 2.035 . S
O80 Zn73 2.028 . S
O80 C83 1.247 . S
O81 Zn75 2.035 . S
O81 C83 1.258 . S
C82 O76 1.247 . S
C82 O77 1.258 . S
C83 O80 1.247 . S
C83 O81 1.258 . S
C84 O86 1.247 . S
C84 O88 1.258 . S
C85 O92 1.247 . S
C85 O93 1.258 . S
O86 C84 1.247 . S
O86 Zn87 2.028 . S
Zn87 O86 2.028 . S
Zn87 O91 2.035 . S
Zn87 O93 2.035 . S
Zn87 O94 2.028 . S
O88 C84 1.258 . S
O88 Zn89 2.035 . S
Zn89 O88 2.035 . S
Zn89 O90 2.028 . S
Zn89 O92 2.028 . S
Zn89 O95 2.035 . S
O90 Zn89 2.028 . S
O90 C96 1.247 . S
O91 Zn87 2.035 . S
O91 C96 1.258 . S
O92 C85 1.247 . S
O92 Zn89 2.028 . S
O93 C85 1.258 . S
O93 Zn87 2.035 . S
O94 Zn87 2.028 . S
O94 C97 1.247 . S
O95 Zn89 2.035 . S
O95 C97 1.258 . S
C96 O90 1.247 . S
C96 O91 1.258 . S
C97 O94 1.247 . S
C97 O95 1.258 . S
C98 O100 1.247 . S
C98 O102 1.258 . S
C99 O106 1.247 . S
C99 O107 1.258 . S
O100 C98 1.247 . S
O100 Zn101 2.028 . S
Zn101 O100 2.028 . S
Zn101 O105 2.035 . S
Zn101 O107 2.035 . S
Zn101 O108 2.028 . S
O102 C98 1.258 . S
O102 Zn103 2.035 . S
Zn103 O102 2.035 . S
Zn103 O104 2.028 . S
Zn103 O106 2.028 . S
Zn103 O109 2.035 . S
O104 Zn103 2.028 . S
O104 C110 1.247 . S
O105 Zn101 2.035 . S
O105 C110 1.258 . S
O106 C99 1.247 . S
O106 Zn103 2.028 . S
O107 C99 1.258 . S
O107 Zn101 2.035 . S
O108 Zn101 2.028 . S
O108 C111 1.247 . S
O109 Zn103 2.035 . S
O109 C111 1.258 . S
C110 O104 1.247 . S
C110 O105 1.258 . S
C111 O108 1.247 . S
C111 O109 1.258 . S
C112 O114 1.247 . S
C112 O116 1.258 . S
C113 O120 1.247 . S
C113 O121 1.258 . S
O114 C112 1.247 . S
O114 Zn115 2.028 . S
Zn115 O114 2.028 . S
Zn115 O119 2.035 . S
Zn115 O121 2.035 . S
Zn115 O122 2.028 . S
O116 C112 1.258 . S
O116 Zn117 2.035 . S
Zn117 O116 2.035 . S
Zn117 O118 2.028 . S
Zn117 O120 2.028 . S
Zn117 O123 2.035 . S
O118 Zn117 2.028 . S
O118 C124 1.247 . S
O119 Zn115 2.035 . S
O119 C124 1.258 . S
O120 C113 1.247 . S
O120 Zn117 2.028 . S
O121 C113 1.258 . S
O121 Zn115 2.035 . S
O122 Zn115 2.028 . S
O122 C125 1.247 . S
O123 Zn117 2.035 . S
O123 C125 1.258 . S
C124 O118 1.247 . S
C124 O119 1.258 . S
C125 O122 1.247 . S
C125 O123 1.258 . S
C126 O128 1.247 . S
C126 O130 1.258 . S
C127 O134 1.247 . S
C127 O135 1.258 . S
O128 C126 1.247 . S
O128 Zn129 2.028 . S
Zn129 O128 2.028 . S
Zn129 O133 2.035 . S
Zn129 O135 2.035 . S
Zn129 O136 2.028 . S
O130 C126 1.258 . S
O130 Zn131 2.035 . S
Zn131 O130 2.035 . S
Zn131 O132 2.028 . S
Zn131 O134 2.028 . S
Zn131 O137 2.035 . S
O132 Zn131 2.028 . S
O132 C138 1.247 . S
O133 Zn129 2.035 . S
O133 C138 1.258 . S
O134 C127 1.247 . S
O134 Zn131 2.028 . S
O135 C127 1.258 . S
O135 Zn129 2.035 . S
O136 Zn129 2.028 . S
O136 C139 1.247 . S
O137 Zn131 2.035 . S
O137 C139 1.258 . S
C138 O132 1.247 . S
C138 O133 1.258 . S
C139 O136 1.247 . S
C139 O137 1.258 . S
C140 O142 1.247 . S
C140 O144 1.258 1_565 S
C141 O148 1.247 . S
C141 O149 1.258 1_545 S
O142 C140 1.247 . S
O142 Zn143 2.028 . S
Zn143 O142 2.028 . S
Zn143 O147 2.035 . S
Zn143 O149 2.035 . S
Zn143 O150 2.028 . S
O144 C140 1.258 1_545 S
O144 Zn145 2.035 . S
Zn145 O144 2.035 . S
Zn145 O146 2.028 . S
Zn145 O148 2.028 . S
Zn145 O151 2.035 . S
O146 Zn145 2.028 . S
O146 C152 1.247 . S
O147 Zn143 2.035 . S
O147 C152 1.258 1_565 S
O148 C141 1.247 . S
O148 Zn145 2.028 . S
O149 C141 1.258 1_565 S
O149 Zn143 2.035 . S
O150 Zn143 2.028 . S
O150 C153 1.247 . S
O151 Zn145 2.035 . S
O151 C153 1.258 1_545 S
C152 O146 1.247 . S
C152 O147 1.258 1_545 S
C153 O150 1.247 . S
C153 O151 1.258 1_565 S
C154 O156 1.247 . S
C154 O158 1.258 . S
C155 O162 1.247 . S
C155 O163 1.258 . S
O156 C154 1.247 . S
O156 Zn157 2.028 . S
Zn157 O156 2.028 . S
Zn157 O161 2.035 . S
Zn157 O163 2.035 . S
Zn157 O164 2.028 . S
O158 C154 1.258 . S
O158 Zn159 2.035 . S
Zn159 O158 2.035 . S
Zn159 O160 2.028 . S
Zn159 O162 2.028 . S
Zn159 O165 2.035 . S
O160 Zn159 2.028 . S
O160 C166 1.247 . S
O161 Zn157 2.035 . S
O161 C166 1.258 . S
O162 C155 1.247 . S
O162 Zn159 2.028 . S
O163 C155 1.258 . S
O163 Zn157 2.035 . S
O164 Zn157 2.028 . S
O164 C167 1.247 . S
O165 Zn159 2.035 . S
O165 C167 1.258 . S
C166 O160 1.247 . S
C166 O161 1.258 . S
C167 O164 1.247 . S
C167 O165 1.258 . S
O168 Mg169 1.990 . S
O168 C182 1.253 . S
Mg169 O168 1.990 . S
Mg169 O172 2.180 . S
Mg169 O173 2.117 . S
Mg169 O187 2.030 . S
O170 Mg171 2.072 . S
O170 C182 1.260 . S
Mg171 O170 2.072 . S
Mg171 O172 2.099 . S
Mg171 O174 2.079 . S
Mg171 O175 2.072 . S
Mg171 O177 2.099 . S
Mg171 O188 2.079 . S
O172 Mg169 2.180 . S
O172 Mg171 2.099 . S
O172 C183 1.279 . S
O173 Mg169 2.117 . S
O173 C183 1.250 . S
O174 Mg171 2.079 . S
O174 C184 1.264 1_554 S
O175 Mg171 2.072 . S
O175 C185 1.260 . S
Mg176 O177 2.180 1_655 S
Mg176 O178 2.030 1_654 S
Mg176 O179 1.990 1_655 S
Mg176 O180 2.117 . S
O177 Mg171 2.099 . S
O177 Mg176 2.180 1_455 S
O177 C186 1.279 1_455 S
O178 Mg176 2.030 1_456 S
O178 C184 1.248 . S
O179 Mg176 1.990 1_455 S
O179 C185 1.253 . S
O180 Mg176 2.117 . S
O180 C186 1.250 . S
C181 O187 1.248 . S
C181 O188 1.264 . S
C182 O168 1.253 . S
C182 O170 1.260 . S
C183 O172 1.279 . S
C183 O173 1.250 . S
C184 O174 1.264 1_556 S
C184 O178 1.248 . S
C185 O175 1.260 . S
C185 O179 1.253 . S
C186 O177 1.279 1_655 S
C186 O180 1.250 . S
O187 Mg169 2.030 . S
O187 C181 1.248 . S
O188 Mg171 2.079 . S
O188 C181 1.264 . S
O189 Mg190 1.990 . S
O189 C203 1.253 . S
Mg190 O189 1.990 . S
Mg190 O193 2.180 . S
Mg190 O194 2.117 . S
Mg190 O208 2.030 . S
O191 Mg192 2.072 . S
O191 C203 1.260 . S
Mg192 O191 2.072 . S
Mg192 O193 2.099 . S
Mg192 O195 2.079 . S
Mg192 O196 2.072 . S
Mg192 O198 2.099 . S
Mg192 O209 2.079 . S
O193 Mg190 2.180 . S
O193 Mg192 2.099 . S
O193 C204 1.279 . S
O194 Mg190 2.117 . S
O194 C204 1.250 . S
O195 Mg192 2.079 . S
O195 C205 1.293 . S
O196 Mg192 2.072 . S
O196 C206 1.260 . S
Mg197 O198 2.180 . S
Mg197 O199 2.017 1_554 S
Mg197 O200 1.990 . S
Mg197 O201 2.117 1_655 S
O198 Mg192 2.099 . S
O198 Mg197 2.180 . S
O198 C207 1.258 1_655 S
O199 Mg197 2.017 1_556 S
O199 C205 1.240 1_556 S
O200 Mg197 1.990 . S
O200 C206 1.253 . S
O201 Mg197 2.117 1_455 S
O201 C207 1.265 . S
C202 O208 1.248 . S
C202 O209 1.264 . S
C203 O189 1.253 . S
C203 O191 1.260 . S
C204 O193 1.279 . S
C204 O194 1.250 . S
C205 O195 1.293 . S
C205 O199 1.240 1_554 S
C206 O196 1.260 . S
C206 O200 1.253 . S
C207 O198 1.258 1_455 S
C207 O201 1.265 . S
O208 Mg190 2.030 . S
O208 C202 1.248 . S
O209 Mg192 2.079 . S
O209 C202 1.264 . S
O210 Mg211 1.990 . S
O210 C224 1.253 . S
Mg211 O210 1.990 . S
Mg211 O214 2.180 . S
Mg211 O215 2.117 . S
Mg211 O229 2.030 . S
O212 Mg213 2.072 . S
O212 C224 1.260 . S
Mg213 O212 2.072 . S
Mg213 O214 2.099 . S
Mg213 O216 2.079 . S
Mg213 O217 2.072 . S
Mg213 O219 2.099 . S
Mg213 O230 2.079 . S
O214 Mg211 2.180 . S
O214 Mg213 2.099 . S
O214 C225 1.279 . S
O215 Mg211 2.117 . S
O215 C225 1.250 . S
O216 Mg213 2.079 . S
O216 C226 1.264 . S
O217 Mg213 2.072 . S
O217 C227 1.260 . S
Mg218 O219 2.180 . S
Mg218 O220 2.030 . S
Mg218 O221 1.990 . S
Mg218 O222 2.117 1_565 S
O219 Mg213 2.099 . S
O219 Mg218 2.180 . S
O219 C228 1.279 1_565 S
O220 Mg218 2.030 . S
O220 C226 1.248 . S
O221 Mg218 1.990 . S
O221 C227 1.253 . S
O222 Mg218 2.117 1_545 S
O222 C228 1.250 . S
C223 O229 1.248 . S
C223 O230 1.264 . S
C224 O210 1.253 . S
C224 O212 1.260 . S
C225 O214 1.279 . S
C225 O215 1.250 . S
C226 O216 1.264 . S
C226 O220 1.248 . S
C227 O217 1.260 . S
C227 O221 1.253 . S
C228 O219 1.279 1_545 S
C228 O222 1.250 . S
O229 Mg211 2.030 . S
O229 C223 1.248 . S
O230 Mg213 2.079 . S
O230 C223 1.264 . S
O231 Mg232 1.990 . S
O231 C245 1.253 . S
Mg232 O231 1.990 . S
Mg232 O235 2.180 . S
Mg232 O236 2.117 . S
Mg232 O250 2.030 . S
O233 Mg234 2.072 . S
O233 C245 1.260 . S
Mg234 O233 2.072 . S
Mg234 O235 2.099 . S
Mg234 O237 2.079 . S
Mg234 O238 2.072 . S
Mg234 O240 2.099 . S
Mg234 O251 2.079 . S
O235 Mg232 2.180 . S
O235 Mg234 2.099 . S
O235 C246 1.279 . S
O236 Mg232 2.117 . S
O236 C246 1.250 . S
O237 Mg234 2.079 . S
O237 C247 1.264 . S
O238 Mg234 2.072 . S
O238 C248 1.260 . S
Mg239 O240 2.180 . S
Mg239 O241 2.030 . S
Mg239 O242 1.990 . S
Mg239 O243 2.117 . S
O240 Mg234 2.099 . S
O240 Mg239 2.180 . S
O240 C249 1.279 . S
O241 Mg239 2.030 . S
O241 C247 1.248 . S
O242 Mg239 1.990 . S
O242 C248 1.253 . S
O243 Mg239 2.117 . S
O243 C249 1.250 . S
C244 O250 1.248 . S
C244 O251 1.264 . S
C245 O231 1.253 . S
C245 O233 1.260 . S
C246 O235 1.279 . S
C246 O236 1.250 . S
C247 O237 1.264 . S
C247 O241 1.248 . S
C248 O238 1.260 . S
C248 O242 1.253 . S
C249 O240 1.279 . S
C249 O243 1.250 . S
O250 Mg232 2.030 . S
O250 C244 1.248 . S
O251 Mg234 2.079 . S
O251 C244 1.264 . S
O252 Mg253 1.990 . S
O252 C266 1.253 . S
Mg253 O252 1.990 . S
Mg253 O256 2.180 . S
Mg253 O257 2.117 . S
Mg253 O271 2.030 . S
O254 Mg255 2.072 . S
O254 C266 1.260 . S
Mg255 O254 2.072 . S
Mg255 O256 2.099 . S
Mg255 O258 2.079 . S
Mg255 O259 2.072 . S
Mg255 O261 2.099 . S
Mg255 O272 2.079 . S
O256 Mg253 2.180 . S
O256 Mg255 2.099 . S
O256 C267 1.279 . S
O257 Mg253 2.117 . S
O257 C267 1.250 . S
O258 Mg255 2.079 . S
O258 C268 1.264 . S
O259 Mg255 2.072 . S
O259 C269 1.260 1_565 S
Mg260 O261 2.180 . S
Mg260 O262 2.030 . S
Mg260 O263 1.990 1_565 S
Mg260 O264 2.117 . S
O261 Mg255 2.099 . S
O261 Mg260 2.180 . S
O261 C270 1.279 . S
O262 Mg260 2.030 . S
O262 C268 1.248 . S
O263 Mg260 1.990 1_545 S
O263 C269 1.253 . S
O264 Mg260 2.117 . S
O264 C270 1.250 . S
C265 O271 1.248 . S
C265 O272 1.264 . S
C266 O252 1.253 . S
C266 O254 1.260 . S
C267 O256 1.279 . S
C267 O257 1.250 . S
C268 O258 1.264 . S
C268 O262 1.248 . S
C269 O259 1.260 1_545 S
C269 O263 1.253 . S
C270 O261 1.279 . S
C270 O264 1.250 . S
O271 Mg253 2.030 . S
O271 C265 1.248 . S
O272 Mg255 2.079 . S
O272 C265 1.264 . S
O273 Mg274 1.990 . S
O273 C287 1.253 . S
Mg274 O273 1.990 . S
Mg274 O277 2.180 . S
Mg274 O278 2.117 . S
Mg274 O292 2.030 . S
O275 Mg276 2.072 . S
O275 C287 1.260 . S
Mg276 O275 2.072 . S
Mg276 O277 2.099 . S
Mg276 O279 2.079 . S
Mg276 O280 2.072 . S
Mg276 O282 2.099 . S
Mg276 O293 2.079 . S
O277 Mg274 2.180 . S
O277 Mg276 2.099 . S
O277 C288 1.279 . S
O278 Mg274 2.117 . S
O278 C288 1.250 . S
O279 Mg276 2.079 . S
O279 C289 1.264 . S
O280 Mg276 2.072 . S
O280 C290 1.260 . S
Mg281 O282 2.180 . S
Mg281 O283 2.030 . S
Mg281 O284 1.990 . S
Mg281 O285 2.117 . S
O282 Mg276 2.099 . S
O282 Mg281 2.180 . S
O282 C291 1.279 . S
O283 Mg281 2.030 . S
O283 C289 1.248 . S
O284 Mg281 1.990 . S
O284 C290 1.253 . S
O285 Mg281 2.117 . S
O285 C291 1.250 . S
C286 O292 1.248 . S
C286 O293 1.264 . S
C287 O273 1.253 . S
C287 O275 1.260 . S
C288 O277 1.279 . S
C288 O278 1.250 . S
C289 O279 1.264 . S
C289 O283 1.248 . S
C290 O280 1.260 . S
C290 O284 1.253 . S
C291 O282 1.279 . S
C291 O285 1.250 . S
O292 Mg274 2.030 . S
O292 C286 1.248 . S
O293 Mg276 2.079 . S
O293 C286 1.264 . S
O294 Mg295 1.990 . S
O294 C308 1.253 . S
Mg295 O294 1.990 . S
Mg295 O298 2.180 . S
Mg295 O299 2.117 . S
Mg295 O313 2.030 . S
O296 Mg297 2.072 . S
O296 C308 1.260 . S
Mg297 O296 2.072 . S
Mg297 O298 2.099 . S
Mg297 O300 2.079 . S
Mg297 O301 2.072 . S
Mg297 O303 2.099 . S
Mg297 O314 2.079 . S
O298 Mg295 2.180 . S
O298 Mg297 2.099 . S
O298 C309 1.279 . S
O299 Mg295 2.117 . S
O299 C309 1.250 . S
O300 Mg297 2.079 . S
O300 C310 1.264 . S
O301 Mg297 2.072 . S
O301 C311 1.260 . S
Mg302 O303 2.180 . S
Mg302 O304 2.030 . S
Mg302 O305 1.990 . S
Mg302 O306 2.117 . S
O303 Mg297 2.099 . S
O303 Mg302 2.180 . S
O303 C312 1.279 . S
O304 Mg302 2.030 . S
O304 C310 1.248 . S
O305 Mg302 1.990 . S
O305 C311 1.253 . S
O306 Mg302 2.117 . S
O306 C312 1.250 . S
C307 O313 1.248 . S
C307 O314 1.264 . S
C308 O294 1.253 . S
C308 O296 1.260 . S
C309 O298 1.279 . S
C309 O299 1.250 . S
C310 O300 1.264 . S
C310 O304 1.248 . S
C311 O301 1.260 . S
C311 O305 1.253 . S
C312 O303 1.279 . S
C312 O306 1.250 . S
O313 Mg295 2.030 . S
O313 C307 1.248 . S
O314 Mg297 2.079 . S
O314 C307 1.264 . S
O315 Mg316 1.990 . S
O315 C329 1.253 . S
Mg316 O315 1.990 . S
Mg316 O319 2.180 . S
Mg316 O320 2.117 . S
Mg316 O334 2.030 . S
O317 Mg318 2.072 . S
O317 C329 1.260 . S
Mg318 O317 2.072 . S
Mg318 O319 2.099 . S
Mg318 O321 2.079 . S
Mg318 O322 2.072 . S
Mg318 O324 2.099 . S
Mg318 O335 2.079 . S
O319 Mg316 2.180 . S
O319 Mg318 2.099 . S
O319 C330 1.279 . S
O320 Mg316 2.117 . S
O320 C330 1.250 . S
O321 Mg318 2.079 . S
O321 C331 1.264 . S
O322 Mg318 2.072 . S
O322 C332 1.260 . S
Mg323 O324 2.180 . S
Mg323 O325 2.030 . S
Mg323 O326 1.990 . S
Mg323 O327 2.117 1_556 S
O324 Mg318 2.099 . S
O324 Mg323 2.180 . S
O324 C333 1.326 . S
O325 Mg323 2.030 . S
O325 C331 1.248 . S
O326 Mg323 1.990 . S
O326 C332 1.253 . S
O327 Mg323 2.117 1_554 S
O327 C333 1.217 1_554 S
C328 O334 1.248 . S
C328 O335 1.264 . S
C329 O315 1.253 . S
C329 O317 1.260 . S
C330 O319 1.279 . S
C330 O320 1.250 . S
C331 O321 1.264 . S
C331 O325 1.248 . S
C332 O322 1.260 . S
C332 O326 1.253 . S
C333 O324 1.326 . S
C333 O327 1.217 1_556 S
O334 Mg316 2.030 . S
O334 C328 1.248 . S
O335 Mg318 2.079 . S
O335 C328 1.264 . S
C336 C337 1.349 . S
C336 C338 1.327 . S
C336 H361 0.950 . S
C337 C336 1.349 . S
C337 C353 1.349 . S
C338 C336 1.327 . S
C338 C357 1.429 . S
C338 H362 0.950 . S
C339 C356 1.574 . S
C339 C358 1.368 . S
C339 H363 0.949 . S
H340 C344 0.949 . S
C341 C342 1.349 . S
C341 C343 1.327 . S
C341 H364 0.950 . S
C342 C341 1.349 . S
C342 C354 1.349 . S
C343 C341 1.327 . S
C343 C359 1.429 . S
C343 H365 0.950 . S
C344 H340 0.949 . S
C344 C352 1.574 . S
C344 C360 1.368 . S
H345 C353 0.950 . S
H346 C351 0.950 . S
H347 C352 0.949 . S
H348 C354 0.950 . S
H349 C355 0.950 . S
H350 C356 0.949 . S
C351 H346 0.950 . S
C351 C353 1.327 . S
C351 C357 1.429 . S
C352 C344 1.574 . S
C352 H347 0.949 . S
C352 C358 1.368 . S
C353 C337 1.349 . S
C353 H345 0.950 . S
C353 C351 1.327 . S
C354 C342 1.349 . S
C354 H348 0.950 . S
C354 C355 1.327 . S
C355 H349 0.950 . S
C355 C354 1.327 . S
C355 C359 1.429 . S
C356 C339 1.574 . S
C356 H350 0.949 . S
C356 C360 1.368 . S
C357 C338 1.429 . S
C357 C351 1.429 . S
C357 C358 1.523 . S
C358 C339 1.368 . S
C358 C352 1.368 . S
C358 C357 1.523 . S
C359 C343 1.429 . S
C359 C355 1.429 . S
C359 C360 1.523 . S
C360 C344 1.368 . S
C360 C356 1.368 . S
C360 C359 1.523 . S
H361 C336 0.950 . S
H362 C338 0.950 . S
H363 C339 0.949 . S
H364 C341 0.950 . S
H365 C343 0.950 . S
C366 C367 1.349 . S
C366 C368 1.327 . S
C366 H391 0.950 . S
C367 C366 1.349 . S
C367 C383 1.349 . S
C368 C366 1.327 . S
C368 C387 1.429 . S
C368 H392 0.950 . S
C369 C386 1.574 . S
C369 C388 1.368 1_655 S
C369 H393 0.949 . S
H370 C374 0.949 . S
C371 C372 1.349 . S
C371 C373 1.327 . S
C371 H394 0.950 . S
C372 C371 1.349 . S
C372 C384 1.349 . S
C373 C371 1.327 . S
C373 C389 1.429 . S
C373 H395 0.950 . S
C374 H370 0.949 . S
C374 C382 1.574 . S
C374 C390 1.368 1_455 S
H375 C383 0.950 . S
H376 C381 0.950 1_655 S
H377 C382 0.949 . S
H378 C384 0.950 1_455 S
H379 C385 0.950 . S
H380 C386 0.949 . S
C381 H376 0.950 1_455 S
C381 C383 1.327 . S
C381 C387 1.429 . S
C382 C374 1.574 . S
C382 H377 0.949 . S
C382 C388 1.368 . S
C383 C367 1.349 . S
C383 H375 0.950 . S
C383 C381 1.327 . S
C384 C372 1.349 . S
C384 H378 0.950 1_655 S
C384 C385 1.327 1_655 S
C385 H379 0.950 . S
C385 C384 1.327 1_455 S
C385 C389 1.429 1_455 S
C386 C369 1.574 . S
C386 H380 0.949 . S
C386 C390 1.368 . S
C387 C368 1.429 . S
C387 C381 1.429 . S
C387 C388 1.523 . S
C388 C369 1.368 1_455 S
C388 C382 1.368 . S
C388 C387 1.523 . S
C389 C373 1.429 . S
C389 C385 1.429 1_655 S
C389 C390 1.523 . S
C390 C374 1.368 1_655 S
C390 C386 1.368 . S
C390 C389 1.523 . S
H391 C366 0.950 . S
H392 C368 0.950 . S
H393 C369 0.949 . S
H394 C371 0.950 . S
H395 C373 0.950 . S
C396 C397 1.349 . S
C396 C398 1.327 . S
C396 H421 0.950 . S
C397 C396 1.349 . S
C397 C413 1.349 . S
C398 C396 1.327 . S
C398 C417 1.429 . S
C398 H422 0.950 . S
C399 C416 1.574 . S
C399 C418 1.368 . S
C399 H423 0.949 1_455 S
H400 C404 0.949 . S
C401 C402 1.349 . S
C401 C403 1.327 . S
C401 H424 0.950 1_455 S
C402 C401 1.349 . S
C402 C414 1.349 . S
C403 C401 1.327 . S
C403 C419 1.429 . S
C403 H425 0.950 1_455 S
C404 H400 0.949 . S
C404 C412 1.574 . S
C404 C420 1.368 . S
H405 C413 0.950 1_655 S
H406 C411 0.950 1_655 S
H407 C412 0.949 . S
H408 C414 0.950 . S
H409 C415 0.950 . S
H410 C416 0.949 1_655 S
C411 H406 0.950 1_455 S
C411 C413 1.327 . S
C411 C417 1.429 . S
C412 C404 1.574 . S
C412 H407 0.949 . S
C412 C418 1.368 . S
C413 C397 1.349 . S
C413 H405 0.950 1_455 S
C413 C411 1.327 . S
C414 C402 1.349 . S
C414 H408 0.950 . S
C414 C415 1.327 . S
C415 H409 0.950 . S
C415 C414 1.327 . S
C415 C419 1.429 . S
C416 C399 1.574 . S
C416 H410 0.949 1_455 S
C416 C420 1.368 . S
C417 C398 1.429 . S
C417 C411 1.429 . S
C417 C418 1.523 . S
C418 C399 1.368 . S
C418 C412 1.368 . S
C418 C417 1.523 . S
C419 C403 1.429 . S
C419 C415 1.429 . S
C419 C420 1.523 . S
C420 C404 1.368 . S
C420 C416 1.368 . S
C420 C419 1.523 . S
H421 C396 0.950 . S
H422 C398 0.950 . S
H423 C399 0.949 1_655 S
H424 C401 0.950 1_655 S
H425 C403 0.950 1_655 S
C426 C427 1.349 . S
C426 C428 1.327 . S
C426 H451 0.950 . S
C427 C426 1.349 . S
C427 C443 1.349 1_455 S
C428 C426 1.327 . S
C428 C447 1.429 1_455 S
C428 H452 0.950 . S
C429 C446 1.574 . S
C429 C448 1.368 . S
C429 H453 0.949 . S
H430 C434 0.963 . S
C431 C432 1.349 . S
C431 C433 1.327 . S
C431 H454 0.950 . S
C432 C431 1.349 . S
C432 C444 1.349 . S
C433 C431 1.327 . S
C433 C449 1.429 . S
C433 H455 0.950 . S
C434 H430 0.963 . S
C434 C442 1.577 . S
C434 C450 1.351 1_455 S
H435 C443 0.950 . S
H436 C441 0.950 . S
H437 C442 0.949 . S
H438 C444 0.950 . S
H439 C445 0.950 1_455 S
H440 C446 0.949 . S
C441 H436 0.950 . S
C441 C443 1.327 . S
C441 C447 1.429 . S
C442 C434 1.577 . S
C442 H437 0.949 . S
C442 C448 1.368 1_455 S
C443 C427 1.349 1_655 S
C443 H435 0.950 . S
C443 C441 1.327 . S
C444 C432 1.349 . S
C444 H438 0.950 . S
C444 C445 1.327 . S
C445 H439 0.950 1_655 S
C445 C444 1.327 . S
C445 C449 1.429 . S
C446 C429 1.574 . S
C446 H440 0.949 . S
C446 C450 1.368 . S
C447 C428 1.429 1_655 S
C447 C441 1.429 . S
C447 C448 1.523 . S
C448 C429 1.368 . S
C448 C442 1.368 1_655 S
C448 C447 1.523 . S
C449 C433 1.429 . S
C449 C445 1.429 . S
C449 C450 1.523 . S
C450 C434 1.351 1_655 S
C450 C446 1.368 . S
C450 C449 1.523 . S
H451 C426 0.950 . S
H452 C428 0.950 . S
H453 C429 0.949 . S
H454 C431 0.950 . S
H455 C433 0.950 . S
C456 C457 1.349 . S
C456 C458 1.327 . S
C456 H481 0.950 . S
C457 C456 1.349 . S
C457 C473 1.349 . S
C458 C456 1.327 . S
C458 C477 1.429 . S
C458 H482 0.950 . S
C459 C476 1.574 . S
C459 C478 1.368 . S
C459 H483 0.949 1_545 S
H460 C464 0.949 . S
C461 C462 1.349 . S
C461 C463 1.327 . S
C461 H484 0.950 . S
C462 C461 1.349 . S
C462 C474 1.349 . S
C463 C461 1.327 . S
C463 C479 1.429 . S
C463 H485 0.950 . S
C464 H460 0.949 . S
C464 C472 1.574 . S
C464 C480 1.368 . S
H465 C473 0.950 1_565 S
H466 C471 0.950 1_565 S
H467 C472 0.949 . S
H468 C474 0.950 . S
H469 C475 0.950 . S
H470 C476 0.949 . S
C471 H466 0.950 1_545 S
C471 C473 1.327 . S
C471 C477 1.429 . S
C472 C464 1.574 . S
C472 H467 0.949 . S
C472 C478 1.368 . S
C473 C457 1.349 . S
C473 H465 0.950 1_545 S
C473 C471 1.327 . S
C474 C462 1.349 . S
C474 H468 0.950 . S
C474 C475 1.327 . S
C475 H469 0.950 . S
C475 C474 1.327 . S
C475 C479 1.429 . S
C476 C459 1.574 . S
C476 H470 0.949 . S
C476 C480 1.368 . S
C477 C458 1.429 . S
C477 C471 1.429 . S
C477 C478 1.523 . S
C478 C459 1.368 . S
C478 C472 1.368 . S
C478 C477 1.523 . S
C479 C463 1.429 . S
C479 C475 1.429 . S
C479 C480 1.523 . S
C480 C464 1.368 . S
C480 C476 1.368 . S
C480 C479 1.523 . S
H481 C456 0.950 . S
H482 C458 0.950 . S
H483 C459 0.949 1_565 S
H484 C461 0.950 . S
H485 C463 0.950 . S
C486 C487 1.349 . S
C486 C488 1.327 . S
C486 H511 0.950 . S
C487 C486 1.349 . S
C487 C503 1.349 . S
C488 C486 1.327 . S
C488 C507 1.429 . S
C488 H512 0.950 . S
C489 C506 1.574 . S
C489 C508 1.368 . S
C489 H513 0.949 . S
H490 C494 0.949 . S
C491 C492 1.349 . S
C491 C493 1.327 . S
C491 H514 0.950 . S
C492 C491 1.349 . S
C492 C504 1.349 . S
C493 C491 1.327 . S
C493 C509 1.429 . S
C493 H515 0.950 . S
C494 H490 0.949 . S
C494 C502 1.574 . S
C494 C510 1.368 . S
H495 C503 0.950 . S
H496 C501 0.950 . S
H497 C502 0.949 . S
H498 C504 0.950 . S
H499 C505 0.950 . S
H500 C506 0.949 . S
C501 H496 0.950 . S
C501 C503 1.327 . S
C501 C507 1.429 . S
C502 C494 1.574 . S
C502 H497 0.949 . S
C502 C508 1.368 . S
C503 C487 1.349 . S
C503 H495 0.950 . S
C503 C501 1.327 . S
C504 C492 1.349 . S
C504 H498 0.950 . S
C504 C505 1.327 . S
C505 H499 0.950 . S
C505 C504 1.327 . S
C505 C509 1.429 . S
C506 C489 1.574 . S
C506 H500 0.949 . S
C506 C510 1.368 . S
C507 C488 1.429 . S
C507 C501 1.429 . S
C507 C508 1.523 . S
C508 C489 1.368 . S
C508 C502 1.368 . S
C508 C507 1.523 . S
C509 C493 1.429 . S
C509 C505 1.429 . S
C509 C510 1.523 . S
C510 C494 1.368 . S
C510 C506 1.368 . S
C510 C509 1.523 . S
H511 C486 0.950 . S
H512 C488 0.950 . S
H513 C489 0.949 . S
H514 C491 0.950 . S
H515 C493 0.950 . S
C516 C517 1.349 1_545 S
C516 C518 1.327 . S
C516 H541 0.950 . S
C517 C516 1.349 1_565 S
C517 C533 1.349 . S
C518 C516 1.327 . S
C518 C537 1.429 1_545 S
C518 H542 0.950 . S
C519 C536 1.574 . S
C519 C538 1.368 . S
C519 H543 0.949 . S
H520 C524 0.949 . S
C521 C522 1.349 . S
C521 C523 1.327 . S
C521 H544 0.950 . S
C522 C521 1.349 . S
C522 C534 1.349 1_565 S
C523 C521 1.327 . S
C523 C539 1.429 . S
C523 H545 0.950 . S
C524 H520 0.949 . S
C524 C532 1.574 . S
C524 C540 1.368 1_545 S
H525 C533 0.950 . S
H526 C531 0.950 . S
H527 C532 0.949 . S
H528 C534 0.950 . S
H529 C535 0.950 . S
H530 C536 0.949 . S
C531 H526 0.950 . S
C531 C533 1.327 . S
C531 C537 1.429 . S
C532 C524 1.574 . S
C532 H527 0.949 . S
C532 C538 1.368 1_545 S
C533 C517 1.349 . S
C533 H525 0.950 . S
C533 C531 1.327 . S
C534 C522 1.349 1_545 S
C534 H528 0.950 . S
C534 C535 1.327 . S
C535 H529 0.950 . S
C535 C534 1.327 . S
C535 C539 1.429 1_545 S
C536 C519 1.574 . S
C536 H530 0.949 . S
C536 C540 1.368 . S
C537 C518 1.429 1_565 S
C537 C531 1.429 . S
C537 C538 1.523 . S
C538 C519 1.368 . S
C538 C532 1.368 1_565 S
C538 C537 1.523 . S
C539 C523 1.429 . S
C539 C535 1.429 1_565 S
C539 C540 1.523 . S
C540 C524 1.368 1_565 S
C540 C536 1.368 . S
C540 C539 1.523 . S
H541 C516 0.950 . S
H542 C518 0.950 . S
H543 C519 0.949 . S
H544 C521 0.950 . S
H545 C523 0.950 . S
C546 C547 1.349 . S
C546 C548 1.327 . S
C546 H571 0.950 . S
C547 C546 1.349 . S
C547 C563 1.349 . S
C548 C546 1.327 . S
C548 C567 1.429 . S
C548 H572 0.950 . S
C549 C566 1.574 . S
C549 C568 1.368 . S
C549 H573 0.949 . S
H550 C554 0.949 . S
C551 C552 1.349 . S
C551 C553 1.327 . S
C551 H574 0.950 . S
C552 C551 1.349 . S
C552 C564 1.349 . S
C553 C551 1.327 . S
C553 C569 1.429 . S
C553 H575 0.950 . S
C554 H550 0.949 . S
C554 C562 1.574 . S
C554 C570 1.368 . S
H555 C563 0.950 . S
H556 C561 0.950 . S
H557 C562 0.949 . S
H558 C564 0.950 . S
H559 C565 0.950 . S
H560 C566 0.949 . S
C561 H556 0.950 . S
C561 C563 1.327 . S
C561 C567 1.429 . S
C562 C554 1.574 . S
C562 H557 0.949 . S
C562 C568 1.368 . S
C563 C547 1.349 . S
C563 H555 0.950 . S
C563 C561 1.327 . S
C564 C552 1.349 . S
C564 H558 0.950 . S
C564 C565 1.327 . S
C565 H559 0.950 . S
C565 C564 1.327 . S
C565 C569 1.429 . S
C566 C549 1.574 . S
C566 H560 0.949 . S
C566 C570 1.368 . S
C567 C548 1.429 . S
C567 C561 1.429 . S
C567 C568 1.523 . S
C568 C549 1.368 . S
C568 C562 1.368 . S
C568 C567 1.523 . S
C569 C553 1.429 . S
C569 C565 1.429 . S
C569 C570 1.523 . S
C570 C554 1.368 . S
C570 C566 1.368 . S
C570 C569 1.523 . S
H571 C546 0.950 . S
H572 C548 0.950 . S
H573 C549 0.949 . S
H574 C551 0.950 . S
H575 C553 0.950 . S
C576 C577 1.349 . S
C576 C578 1.327 . S
C576 H601 0.950 . S
C577 C576 1.349 . S
C577 C593 1.349 . S
C578 C576 1.327 . S
C578 C597 1.429 . S
C578 H602 0.950 . S
C579 C596 1.574 . S
C579 C598 1.368 . S
C579 H603 0.949 . S
H580 C584 0.949 . S
C581 C582 1.349 . S
C581 C583 1.327 . S
C581 H604 0.950 . S
C582 C581 1.349 . S
C582 C594 1.349 . S
C583 C581 1.327 . S
C583 C599 1.429 . S
C583 H605 0.950 . S
C584 H580 0.949 . S
C584 C592 1.574 . S
C584 C600 1.368 . S
H585 C593 0.950 . S
H586 C591 0.950 . S
H587 C592 0.949 . S
H588 C594 0.950 . S
H589 C595 0.950 . S
H590 C596 0.949 . S
C591 H586 0.950 . S
C591 C593 1.327 . S
C591 C597 1.429 . S
C592 C584 1.574 . S
C592 H587 0.949 . S
C592 C598 1.368 . S
C593 C577 1.349 . S
C593 H585 0.950 . S
C593 C591 1.327 . S
C594 C582 1.349 . S
C594 H588 0.950 . S
C594 C595 1.327 . S
C595 H589 0.950 . S
C595 C594 1.327 . S
C595 C599 1.429 . S
C596 C579 1.574 . S
C596 H590 0.949 . S
C596 C600 1.368 . S
C597 C578 1.429 . S
C597 C591 1.429 . S
C597 C598 1.523 . S
C598 C579 1.368 . S
C598 C592 1.368 . S
C598 C597 1.523 . S
C599 C583 1.429 . S
C599 C595 1.429 . S
C599 C600 1.523 . S
C600 C584 1.368 . S
C600 C596 1.368 . S
C600 C599 1.523 . S
H601 C576 0.950 . S
H602 C578 0.950 . S
H603 C579 0.949 . S
H604 C581 0.950 . S
H605 C583 0.950 . S
C606 C607 1.349 . S
C606 C608 1.327 . S
C606 H631 0.950 . S
C607 C606 1.349 . S
C607 C623 1.349 . S
C608 C606 1.327 . S
C608 C627 1.429 . S
C608 H632 0.950 . S
C609 C626 1.574 . S
C609 C628 1.368 . S
C609 H633 0.949 . S
H610 C614 0.949 . S
C611 C612 1.349 . S
C611 C613 1.327 . S
C611 H634 0.950 . S
C612 C611 1.349 . S
C612 C624 1.349 . S
C613 C611 1.327 . S
C613 C629 1.429 . S
C613 H635 0.950 . S
C614 H610 0.949 . S
C614 C622 1.574 . S
C614 C630 1.368 . S
H615 C623 0.950 . S
H616 C621 0.950 . S
H617 C622 0.949 . S
H618 C624 0.950 . S
H619 C625 0.950 . S
H620 C626 0.949 . S
C621 H616 0.950 . S
C621 C623 1.327 . S
C621 C627 1.429 . S
C622 C614 1.574 . S
C622 H617 0.949 . S
C622 C628 1.368 . S
C623 C607 1.349 . S
C623 H615 0.950 . S
C623 C621 1.327 . S
C624 C612 1.349 . S
C624 H618 0.950 . S
C624 C625 1.327 . S
C625 H619 0.950 . S
C625 C624 1.327 . S
C625 C629 1.429 . S
C626 C609 1.574 . S
C626 H620 0.949 . S
C626 C630 1.368 . S
C627 C608 1.429 . S
C627 C621 1.429 . S
C627 C628 1.523 . S
C628 C609 1.368 . S
C628 C622 1.368 . S
C628 C627 1.523 . S
C629 C613 1.429 . S
C629 C625 1.429 . S
C629 C630 1.523 . S
C630 C614 1.368 . S
C630 C626 1.368 . S
C630 C629 1.523 . S
H631 C606 0.950 . S
H632 C608 0.950 . S
H633 C609 0.949 . S
H634 C611 0.950 . S
H635 C613 0.950 . S
C636 C637 1.349 . S
C636 C638 1.327 . S
C636 H661 0.950 . S
C637 C636 1.349 . S
C637 C653 1.349 . S
C638 C636 1.327 . S
C638 C657 1.429 . S
C638 H662 0.950 . S
C639 C656 1.574 . S
C639 C658 1.368 . S
C639 H663 0.949 . S
H640 C644 0.949 . S
C641 C642 1.349 . S
C641 C643 1.327 . S
C641 H664 0.950 . S
C642 C641 1.349 . S
C642 C654 1.349 . S
C643 C641 1.327 . S
C643 C659 1.429 . S
C643 H665 0.950 . S
C644 H640 0.949 . S
C644 C652 1.574 . S
C644 C660 1.368 . S
H645 C653 0.950 . S
H646 C651 0.950 . S
H647 C652 0.949 . S
H648 C654 0.950 . S
H649 C655 0.950 . S
H650 C656 0.949 . S
C651 H646 0.950 . S
C651 C653 1.327 . S
C651 C657 1.429 . S
C652 C644 1.574 . S
C652 H647 0.949 . S
C652 C658 1.368 . S
C653 C637 1.349 . S
C653 H645 0.950 . S
C653 C651 1.327 . S
C654 C642 1.349 . S
C654 H648 0.950 . S
C654 C655 1.327 . S
C655 H649 0.950 . S
C655 C654 1.327 . S
C655 C659 1.429 . S
C656 C639 1.574 . S
C656 H650 0.949 . S
C656 C660 1.368 . S
C657 C638 1.429 . S
C657 C651 1.429 . S
C657 C658 1.523 . S
C658 C639 1.368 . S
C658 C652 1.368 . S
C658 C657 1.523 . S
C659 C643 1.429 . S
C659 C655 1.429 . S
C659 C660 1.523 . S
C660 C644 1.368 . S
C660 C656 1.368 . S
C660 C659 1.523 . S
H661 C636 0.950 . S
H662 C638 0.950 . S
H663 C639 0.949 . S
H664 C641 0.950 . S
H665 C643 0.950 . S
C666 C667 1.349 . S
C666 C668 1.327 . S
C666 H691 0.950 . S
C667 C666 1.349 . S
C667 C683 1.349 . S
C668 C666 1.327 . S
C668 C687 1.429 . S
C668 H692 0.950 . S
C669 C686 1.574 . S
C669 C688 1.368 . S
C669 H693 0.949 . S
H670 C674 0.949 . S
C671 C672 1.349 . S
C671 C673 1.327 . S
C671 H694 0.950 . S
C672 C671 1.349 . S
C672 C684 1.349 . S
C673 C671 1.327 . S
C673 C689 1.429 . S
C673 H695 0.950 . S
C674 H670 0.949 . S
C674 C682 1.574 . S
C674 C690 1.368 . S
H675 C683 0.950 . S
H676 C681 0.950 . S
H677 C682 0.949 . S
H678 C684 0.950 . S
H679 C685 0.950 . S
H680 C686 0.949 . S
C681 H676 0.950 . S
C681 C683 1.327 . S
C681 C687 1.429 . S
C682 C674 1.574 . S
C682 H677 0.949 . S
C682 C688 1.368 . S
C683 C667 1.349 . S
C683 H675 0.950 . S
C683 C681 1.327 . S
C684 C672 1.349 . S
C684 H678 0.950 . S
C684 C685 1.327 . S
C685 H679 0.950 . S
C685 C684 1.327 . S
C685 C689 1.429 . S
C686 C669 1.574 . S
C686 H680 0.949 . S
C686 C690 1.368 . S
C687 C668 1.429 . S
C687 C681 1.429 . S
C687 C688 1.523 . S
C688 C669 1.368 . S
C688 C682 1.368 . S
C688 C687 1.523 . S
C689 C673 1.429 . S
C689 C685 1.429 . S
C689 C690 1.523 . S
C690 C674 1.368 . S
C690 C686 1.368 . S
C690 C689 1.523 . S
H691 C666 0.950 . S
H692 C668 0.950 . S
H693 C669 0.949 . S
H694 C671 0.950 . S
H695 C673 0.950 . S
C696 C697 1.349 . S
C696 C698 1.327 . S
C696 H721 0.950 . S
C697 C696 1.349 . S
C697 C713 1.349 . S
C698 C696 1.327 . S
C698 C717 1.429 . S
C698 H722 0.950 . S
C699 C716 1.574 . S
C699 C718 1.368 . S
C699 H723 0.949 . S
H700 C704 0.949 . S
C701 C702 1.349 . S
C701 C703 1.327 . S
C701 H724 0.950 . S
C702 C701 1.349 . S
C702 C714 1.349 . S
C703 C701 1.327 . S
C703 C719 1.429 . S
C703 H725 0.950 . S
C704 H700 0.949 . S
C704 C712 1.574 . S
C704 C720 1.368 . S
H705 C713 0.950 . S
H706 C711 0.950 . S
H707 C712 0.949 . S
H708 C714 0.950 . S
H709 C715 0.950 . S
H710 C716 0.949 . S
C711 H706 0.950 . S
C711 C713 1.327 . S
C711 C717 1.429 . S
C712 C704 1.574 . S
C712 H707 0.949 . S
C712 C718 1.368 . S
C713 C697 1.349 . S
C713 H705 0.950 . S
C713 C711 1.327 . S
C714 C702 1.349 . S
C714 H708 0.950 . S
C714 C715 1.327 . S
C715 H709 0.950 . S
C715 C714 1.327 . S
C715 C719 1.429 . S
C716 C699 1.574 . S
C716 H710 0.949 . S
C716 C720 1.368 . S
C717 C698 1.429 . S
C717 C711 1.429 . S
C717 C718 1.523 . S
C718 C699 1.368 . S
C718 C712 1.368 . S
C718 C717 1.523 . S
C719 C703 1.429 . S
C719 C715 1.429 . S
C719 C720 1.523 . S
C720 C704 1.368 . S
C720 C716 1.368 . S
C720 C719 1.523 . S
H721 C696 0.950 . S
H722 C698 0.950 . S
H723 C699 0.949 . S
H724 C701 0.950 . S
H725 C703 0.950 . S
C726 C727 1.349 . S
C726 C728 1.327 . S
C726 H751 0.950 . S
C727 C726 1.349 . S
C727 C743 1.349 . S
C728 C726 1.327 . S
C728 C747 1.429 . S
C728 H752 0.950 . S
C729 C746 1.574 . S
C729 C748 1.368 . S
C729 H753 0.949 . S
H730 C734 0.949 . S
C731 C732 1.349 . S
C731 C733 1.327 . S
C731 H754 0.950 1_565 S
C732 C731 1.349 . S
C732 C744 1.349 . S
C733 C731 1.327 . S
C733 C749 1.429 . S
C733 H755 0.950 . S
C734 H730 0.949 . S
C734 C742 1.574 . S
C734 C750 1.368 . S
H735 C743 0.950 . S
H736 C741 0.950 . S
H737 C742 0.949 . S
H738 C744 0.950 . S
H739 C745 0.950 . S
H740 C746 0.949 . S
C741 H736 0.950 . S
C741 C743 1.327 . S
C741 C747 1.429 . S
C742 C734 1.574 . S
C742 H737 0.949 . S
C742 C748 1.368 . S
C743 C727 1.349 . S
C743 H735 0.950 . S
C743 C741 1.327 . S
C744 C732 1.349 . S
C744 H738 0.950 . S
C744 C745 1.327 . S
C745 H739 0.950 . S
C745 C744 1.327 . S
C745 C749 1.429 . S
C746 C729 1.574 . S
C746 H740 0.949 . S
C746 C750 1.368 . S
C747 C728 1.429 . S
C747 C741 1.429 . S
C747 C748 1.523 . S
C748 C729 1.368 . S
C748 C742 1.368 . S
C748 C747 1.523 . S
C749 C733 1.429 . S
C749 C745 1.429 . S
C749 C750 1.523 . S
C750 C734 1.368 . S
C750 C746 1.368 . S
C750 C749 1.523 . S
H751 C726 0.950 . S
H752 C728 0.950 . S
H753 C729 0.949 . S
H754 C731 0.950 1_545 S
H755 C733 0.950 . S
C756 C757 1.349 . S
C756 C758 1.327 . S
C756 H781 0.950 . S
C757 C756 1.349 . S
C757 C773 1.349 . S
C758 C756 1.327 . S
C758 C777 1.429 . S
C758 H782 0.950 . S
C759 C776 1.574 . S
C759 C778 1.368 . S
C759 H783 0.949 . S
H760 C764 0.949 . S
C761 C762 1.349 . S
C761 C763 1.327 . S
C761 H784 0.950 . S
C762 C761 1.349 . S
C762 C774 1.349 . S
C763 C761 1.327 . S
C763 C779 1.429 . S
C763 H785 0.950 . S
C764 H760 0.949 . S
C764 C772 1.574 . S
C764 C780 1.368 . S
H765 C773 0.950 . S
H766 C771 0.950 . S
H767 C772 0.949 . S
H768 C774 0.950 . S
H769 C775 0.950 . S
H770 C776 0.949 . S
C771 H766 0.950 . S
C771 C773 1.327 . S
C771 C777 1.429 . S
C772 C764 1.574 . S
C772 H767 0.949 . S
C772 C778 1.368 . S
C773 C757 1.349 . S
C773 H765 0.950 . S
C773 C771 1.327 . S
C774 C762 1.349 . S
C774 H768 0.950 . S
C774 C775 1.327 . S
C775 H769 0.950 . S
C775 C774 1.327 . S
C775 C779 1.429 . S
C776 C759 1.574 . S
C776 H770 0.949 . S
C776 C780 1.368 . S
C777 C758 1.429 . S
C777 C771 1.429 . S
C777 C778 1.523 . S
C778 C759 1.368 . S
C778 C772 1.368 . S
C778 C777 1.523 . S
C779 C763 1.429 . S
C779 C775 1.429 . S
C779 C780 1.523 . S
C780 C764 1.368 . S
C780 C776 1.368 . S
C780 C779 1.523 . S
H781 C756 0.950 . S
H782 C758 0.950 . S
H783 C759 0.949 . S
H784 C761 0.950 . S
H785 C763 0.950 . S
C786 C787 1.349 . S
C786 C788 1.327 . S
C786 H811 0.950 . S
C787 C786 1.349 . S
C787 C803 1.349 . S
C788 C786 1.327 . S
C788 C807 1.429 . S
C788 H812 0.950 . S
C789 C806 1.574 . S
C789 C808 1.368 . S
C789 H813 0.949 . S
H790 C794 0.949 . S
C791 C792 1.349 . S
C791 C793 1.327 . S
C791 H814 0.950 . S
C792 C791 1.349 . S
C792 C804 1.349 . S
C793 C791 1.327 . S
C793 C809 1.429 . S
C793 H815 0.950 . S
C794 H790 0.949 . S
C794 C802 1.574 . S
C794 C810 1.368 . S
H795 C803 0.950 . S
H796 C801 0.950 . S
H797 C802 0.949 . S
H798 C804 0.950 . S
H799 C805 0.950 . S
H800 C806 0.949 . S
C801 H796 0.950 . S
C801 C803 1.327 . S
C801 C807 1.429 . S
C802 C794 1.574 . S
C802 H797 0.949 . S
C802 C808 1.368 . S
C803 C787 1.349 . S
C803 H795 0.950 . S
C803 C801 1.327 . S
C804 C792 1.349 . S
C804 H798 0.950 . S
C804 C805 1.327 . S
C805 H799 0.950 . S
C805 C804 1.327 . S
C805 C809 1.429 . S
C806 C789 1.574 . S
C806 H800 0.949 . S
C806 C810 1.368 . S
C807 C788 1.429 . S
C807 C801 1.429 . S
C807 C808 1.523 . S
C808 C789 1.368 . S
C808 C802 1.368 . S
C808 C807 1.523 . S
C809 C793 1.429 . S
C809 C805 1.429 . S
C809 C810 1.523 . S
C810 C794 1.368 . S
C810 C806 1.368 . S
C810 C809 1.523 . S
H811 C786 0.950 . S
H812 C788 0.950 . S
H813 C789 0.949 . S
H814 C791 0.950 . S
H815 C793 0.950 . S
C816 C817 1.349 . S
C816 C818 1.327 . S
C816 H841 0.950 . S
C817 C816 1.349 . S
C817 C833 1.349 . S
C818 C816 1.327 . S
C818 C837 1.429 . S
C818 H842 0.950 . S
C819 C836 1.574 . S
C819 C838 1.368 . S
C819 H843 0.949 . S
H820 C824 0.949 . S
C821 C822 1.349 . S
C821 C823 1.327 . S
C821 H844 0.950 . S
C822 C821 1.349 . S
C822 C834 1.349 . S
C823 C821 1.327 . S
C823 C839 1.429 . S
C823 H845 0.950 . S
C824 H820 0.949 . S
C824 C832 1.574 . S
C824 C840 1.368 . S
H825 C833 0.950 . S
H826 C831 0.950 . S
H827 C832 0.949 . S
H828 C834 0.950 . S
H829 C835 0.950 . S
H830 C836 0.949 . S
C831 H826 0.950 . S
C831 C833 1.327 . S
C831 C837 1.429 . S
C832 C824 1.574 . S
C832 H827 0.949 . S
C832 C838 1.368 . S
C833 C817 1.349 . S
C833 H825 0.950 . S
C833 C831 1.327 . S
C834 C822 1.349 . S
C834 H828 0.950 . S
C834 C835 1.327 . S
C835 H829 0.950 . S
C835 C834 1.327 . S
C835 C839 1.429 . S
C836 C819 1.574 . S
C836 H830 0.949 . S
C836 C840 1.368 . S
C837 C818 1.429 . S
C837 C831 1.429 . S
C837 C838 1.523 . S
C838 C819 1.368 . S
C838 C832 1.368 . S
C838 C837 1.523 . S
C839 C823 1.429 . S
C839 C835 1.429 . S
C839 C840 1.523 . S
C840 C824 1.368 . S
C840 C836 1.368 . S
C840 C839 1.523 . S
H841 C816 0.950 . S
H842 C818 0.950 . S
H843 C819 0.949 . S
H844 C821 0.950 . S
H845 C823 0.950 . S
C846 C847 1.349 1_545 S
C846 C848 1.327 . S
C846 H871 0.950 . S
C847 C846 1.349 1_565 S
C847 C863 1.349 . S
C848 C846 1.327 . S
C848 C867 1.429 1_545 S
C848 H872 0.950 . S
C849 C866 1.574 . S
C849 C868 1.368 . S
C849 H873 0.949 . S
H850 C854 0.949 . S
C851 C852 1.349 . S
C851 C853 1.327 . S
C851 H874 0.950 . S
C852 C851 1.349 . S
C852 C864 1.349 . S
C853 C851 1.327 . S
C853 C869 1.429 . S
C853 H875 0.950 . S
C854 H850 0.949 . S
C854 C862 1.574 . S
C854 C870 1.368 1_545 S
H855 C863 0.950 . S
H856 C861 0.950 . S
H857 C862 0.949 . S
H858 C864 0.950 1_545 S
H859 C865 0.950 1_545 S
H860 C866 0.949 . S
C861 H856 0.950 . S
C861 C863 1.327 . S
C861 C867 1.429 . S
C862 C854 1.574 . S
C862 H857 0.949 . S
C862 C868 1.368 1_545 S
C863 C847 1.349 . S
C863 H855 0.950 . S
C863 C861 1.327 . S
C864 C852 1.349 . S
C864 H858 0.950 1_565 S
C864 C865 1.327 . S
C865 H859 0.950 1_565 S
C865 C864 1.327 . S
C865 C869 1.429 . S
C866 C849 1.574 . S
C866 H860 0.949 . S
C866 C870 1.368 . S
C867 C848 1.429 1_565 S
C867 C861 1.429 . S
C867 C868 1.523 . S
C868 C849 1.368 . S
C868 C862 1.368 1_565 S
C868 C867 1.523 . S
C869 C853 1.429 . S
C869 C865 1.429 . S
C869 C870 1.523 . S
C870 C854 1.368 1_565 S
C870 C866 1.368 . S
C870 C869 1.523 . S
H871 C846 0.950 . S
H872 C848 0.950 . S
H873 C849 0.949 . S
H874 C851 0.950 . S
H875 C853 0.950 . S
C876 C877 1.349 . S
C876 C878 1.327 . S
C876 H901 0.950 . S
C877 C876 1.349 . S
C877 C893 1.349 . S
C878 C876 1.327 . S
C878 C897 1.429 . S
C878 H902 0.950 . S
C879 C896 1.574 . S
C879 C898 1.368 . S
C879 H903 0.949 . S
H880 C884 0.949 . S
C881 C882 1.349 . S
C881 C883 1.327 . S
C881 H904 0.950 . S
C882 C881 1.349 . S
C882 C894 1.349 . S
C883 C881 1.327 . S
C883 C899 1.429 . S
C883 H905 0.950 . S
C884 H880 0.949 . S
C884 C892 1.574 . S
C884 C900 1.368 . S
H885 C893 0.950 . S
H886 C891 0.950 . S
H887 C892 0.949 . S
H888 C894 0.950 . S
H889 C895 0.950 . S
H890 C896 0.949 . S
C891 H886 0.950 . S
C891 C893 1.327 . S
C891 C897 1.429 . S
C892 C884 1.574 . S
C892 H887 0.949 . S
C892 C898 1.368 . S
C893 C877 1.349 . S
C893 H885 0.950 . S
C893 C891 1.327 . S
C894 C882 1.349 . S
C894 H888 0.950 . S
C894 C895 1.327 . S
C895 H889 0.950 . S
C895 C894 1.327 . S
C895 C899 1.429 . S
C896 C879 1.574 . S
C896 H890 0.949 . S
C896 C900 1.368 . S
C897 C878 1.429 . S
C897 C891 1.429 . S
C897 C898 1.523 . S
C898 C879 1.368 . S
C898 C892 1.368 . S
C898 C897 1.523 . S
C899 C883 1.429 . S
C899 C895 1.429 . S
C899 C900 1.523 . S
C900 C884 1.368 . S
C900 C896 1.368 . S
C900 C899 1.523 . S
H901 C876 0.950 . S
H902 C878 0.950 . S
H903 C879 0.949 . S
H904 C881 0.950 . S
H905 C883 0.950 . S
C906 C907 1.349 1_565 S
C906 C908 1.327 . S
C906 H931 0.950 . S
C907 C906 1.349 1_545 S
C907 C923 1.349 . S
C908 C906 1.327 . S
C908 C927 1.429 1_565 S
C908 H932 0.950 . S
C909 C926 1.574 . S
C909 C928 1.368 . S
C909 H933 0.949 . S
H910 C914 0.929 1_565 S
C911 C912 1.349 . S
C911 C913 1.327 . S
C911 H934 0.950 . S
C912 C911 1.349 . S
C912 C924 1.349 . S
C913 C911 1.327 . S
C913 C929 1.429 . S
C913 H935 0.950 . S
C914 H910 0.929 1_545 S
C914 C922 1.571 1_545 S
C914 C930 1.394 . S
H915 C923 0.950 . S
H916 C921 0.950 . S
H917 C922 0.949 . S
H918 C924 0.950 1_565 S
H919 C925 0.950 1_565 S
H920 C926 0.949 . S
C921 H916 0.950 . S
C921 C923 1.327 . S
C921 C927 1.429 . S
C922 C914 1.571 1_565 S
C922 H917 0.949 . S
C922 C928 1.368 1_565 S
C923 C907 1.349 . S
C923 H915 0.950 . S
C923 C921 1.327 . S
C924 C912 1.349 . S
C924 H918 0.950 1_545 S
C924 C925 1.327 . S
C925 H919 0.950 1_545 S
C925 C924 1.327 . S
C925 C929 1.429 . S
C926 C909 1.574 . S
C926 H920 0.949 . S
C926 C930 1.368 . S
C927 C908 1.429 1_545 S
C927 C921 1.429 . S
C927 C928 1.523 . S
C928 C909 1.368 . S
C928 C922 1.368 1_545 S
C928 C927 1.523 . S
C929 C913 1.429 . S
C929 C925 1.429 . S
C929 C930 1.523 . S
C930 C914 1.394 . S
C930 C926 1.368 . S
C930 C929 1.523 . S
H931 C906 0.950 . S
H932 C908 0.950 . S
H933 C909 0.949 . S
H934 C911 0.950 . S
H935 C913 0.950 . S
C936 C937 1.349 . S
C936 C938 1.327 . S
C936 H961 0.950 . S
C937 C936 1.349 . S
C937 C953 1.349 . S
C938 C936 1.327 . S
C938 C957 1.429 . S
C938 H962 0.950 . S
C939 C956 1.574 . S
C939 C958 1.368 . S
C939 H963 0.949 . S
H940 C944 0.949 . S
C941 C942 1.349 . S
C941 C943 1.327 . S
C941 H964 0.950 . S
C942 C941 1.349 . S
C942 C954 1.349 . S
C943 C941 1.327 . S
C943 C959 1.429 . S
C943 H965 0.950 . S
C944 H940 0.949 . S
C944 C952 1.574 . S
C944 C960 1.368 . S
H945 C953 0.950 . S
H946 C951 0.950 . S
H947 C952 0.949 . S
H948 C954 0.950 . S
H949 C955 0.950 . S
H950 C956 0.949 . S
C951 H946 0.950 . S
C951 C953 1.327 . S
C951 C957 1.429 . S
C952 C944 1.574 . S
C952 H947 0.949 . S
C952 C958 1.368 . S
C953 C937 1.349 . S
C953 H945 0.950 . S
C953 C951 1.327 . S
C954 C942 1.349 . S
C954 H948 0.950 . S
C954 C955 1.327 . S
C955 H949 0.950 . S
C955 C954 1.327 . S
C955 C959 1.429 . S
C956 C939 1.574 . S
C956 H950 0.949 . S
C956 C960 1.368 . S
C957 C938 1.429 . S
C957 C951 1.429 . S
C957 C958 1.523 . S
C958 C939 1.368 . S
C958 C952 1.368 . S
C958 C957 1.523 . S
C959 C943 1.429 . S
C959 C955 1.429 . S
C959 C960 1.523 . S
C960 C944 1.368 . S
C960 C956 1.368 . S
C960 C959 1.523 . S
H961 C936 0.950 . S
H962 C938 0.950 . S
H963 C939 0.949 . S
H964 C941 0.950 . S
H965 C943 0.950 . S
C966 C967 1.349 . S
C966 C968 1.327 . S
C966 H991 0.950 . S
C967 C966 1.349 . S
C967 C983 1.349 1_554 S
C968 C966 1.327 . S
C968 C987 1.429 . S
C968 H992 0.950 . S
C969 C986 1.574 . S
C969 C988 1.370 1_556 S
C969 H993 0.949 . S
H970 C974 0.949 . S
C971 C972 1.349 . S
C971 C973 1.327 . S
C971 H994 0.950 . S
C972 C971 1.349 . S
C972 C984 1.349 . S
C973 C971 1.327 . S
C973 C989 1.429 . S
C973 H995 0.950 . S
C974 H970 0.949 . S
C974 C982 1.574 . S
C974 C990 1.368 1_554 S
H975 C983 0.950 . S
H976 C981 0.950 . S
H977 C982 0.949 . S
H978 C984 0.950 1_554 S
H979 C985 0.950 . S
H980 C986 0.949 . S
C981 H976 0.950 . S
C981 C983 1.327 . S
C981 C987 1.429 1_556 S
C982 C974 1.574 . S
C982 H977 0.949 . S
C982 C988 1.367 . S
C983 C967 1.349 1_556 S
C983 H975 0.950 . S
C983 C981 1.327 . S
C984 C972 1.349 . S
C984 H978 0.950 1_556 S
C984 C985 1.327 1_556 S
C985 H979 0.950 . S
C985 C984 1.327 1_554 S
C985 C989 1.429 1_554 S
C986 C969 1.574 . S
C986 H980 0.949 . S
C986 C990 1.368 . S
C987 C968 1.429 . S
C987 C981 1.429 1_554 S
C987 C988 1.523 . S
C988 C969 1.370 1_554 S
C988 C982 1.367 . S
C988 C987 1.523 . S
C989 C973 1.429 . S
C989 C985 1.429 1_556 S
C989 C990 1.523 . S
C990 C974 1.368 1_556 S
C990 C986 1.368 . S
C990 C989 1.523 . S
H991 C966 0.950 . S
H992 C968 0.950 . S
H993 C969 0.949 . S
H994 C971 0.950 . S
H995 C973 0.950 . S
C996 C997 1.349 . S
C996 C998 1.327 . S
C996 H1021 0.950 . S
C997 C996 1.349 . S
C997 C1013 1.349 1_554 S
C998 C996 1.327 . S
C998 C1017 1.429 . S
C998 H1022 0.950 . S
C999 C1016 1.574 . S
C999 C1018 1.368 1_556 S
C999 H1023 0.949 . S
H1000 C1004 0.949 . S
C1001 C1002 1.349 . S
C1001 C1003 1.327 . S
C1001 H1024 0.950 . S
C1002 C1001 1.349 . S
C1002 C1014 1.321 1_556 S
C1003 C1001 1.327 . S
C1003 C1019 1.429 . S
C1003 H1025 0.950 . S
C1004 H1000 0.949 . S
C1004 C1012 1.574 . S
C1004 C1020 1.368 1_554 S
H1005 C1013 0.950 . S
H1006 C1011 0.950 . S
H1007 C1012 0.949 . S
H1008 C1014 0.971 . S
H1009 C1015 0.950 . S
H1010 C1016 0.949 . S
C1011 H1006 0.950 . S
C1011 C1013 1.327 . S
C1011 C1017 1.429 1_556 S
C1012 C1004 1.574 . S
C1012 H1007 0.949 . S
C1012 C1018 1.368 . S
C1013 C997 1.349 1_556 S
C1013 H1005 0.950 . S
C1013 C1011 1.327 . S
C1014 C1002 1.321 1_554 S
C1014 H1008 0.971 . S
C1014 C1015 1.335 . S
C1015 H1009 0.950 . S
C1015 C1014 1.335 . S
C1015 C1019 1.429 1_554 S
C1016 C999 1.574 . S
C1016 H1010 0.949 . S
C1016 C1020 1.368 . S
C1017 C998 1.429 . S
C1017 C1011 1.429 1_554 S
C1017 C1018 1.523 . S
C1018 C999 1.368 1_554 S
C1018 C1012 1.368 . S
C1018 C1017 1.523 . S
C1019 C1003 1.429 . S
C1019 C1015 1.429 1_556 S
C1019 C1020 1.523 . S
C1020 C1004 1.368 1_556 S
C1020 C1016 1.368 . S
C1020 C1019 1.523 . S
H1021 C996 0.950 . S
H1022 C998 0.950 . S
H1023 C999 0.949 . S
H1024 C1001 0.950 . S
H1025 C1003 0.950 . S
C1026 C1027 1.349 . S
C1026 C1028 1.327 . S
C1026 H1051 0.950 . S
C1027 C1026 1.349 . S
C1027 C1043 1.349 . S
C1028 C1026 1.327 . S
C1028 C1047 1.429 . S
C1028 H1052 0.950 . S
C1029 C1046 1.574 . S
C1029 C1048 1.368 . S
C1029 H1053 0.949 . S
H1030 C1034 0.949 . S
C1031 C1032 1.349 . S
C1031 C1033 1.327 . S
C1031 H1054 0.950 1_554 S
C1032 C1031 1.349 . S
C1032 C1044 1.349 . S
C1033 C1031 1.327 . S
C1033 C1049 1.429 . S
C1033 H1055 0.930 1_554 S
C1034 H1030 0.949 . S
C1034 C1042 1.574 . S
C1034 C1050 1.368 . S
H1035 C1043 0.950 . S
H1036 C1041 0.950 . S
H1037 C1042 0.949 . S
H1038 C1044 0.950 . S
H1039 C1045 0.950 . S
H1040 C1046 0.972 . S
C1041 H1036 0.950 . S
C1041 C1043 1.327 . S
C1041 C1047 1.429 . S
C1042 C1034 1.574 . S
C1042 H1037 0.949 . S
C1042 C1048 1.368 . S
C1043 C1027 1.349 . S
C1043 H1035 0.950 . S
C1043 C1041 1.327 . S
C1044 C1032 1.349 . S
C1044 H1038 0.950 . S
C1044 C1045 1.327 . S
C1045 H1039 0.950 . S
C1045 C1044 1.327 . S
C1045 C1049 1.429 . S
C1046 C1029 1.574 . S
C1046 H1040 0.972 . S
C1046 C1050 1.368 . S
C1047 C1028 1.429 . S
C1047 C1041 1.429 . S
C1047 C1048 1.523 . S
C1048 C1029 1.368 . S
C1048 C1042 1.368 . S
C1048 C1047 1.523 . S
C1049 C1033 1.429 . S
C1049 C1045 1.429 . S
C1049 C1050 1.523 . S
C1050 C1034 1.368 . S
C1050 C1046 1.368 . S
C1050 C1049 1.523 . S
H1051 C1026 0.950 . S
H1052 C1028 0.950 . S
H1053 C1029 0.949 . S
H1054 C1031 0.950 1_556 S
H1055 C1033 0.930 1_556 S
C1056 C1057 1.349 . S
C1056 C1058 1.327 . S
C1056 H1081 0.950 . S
C1057 C1056 1.349 . S
C1057 C1073 1.349 . S
C1058 C1056 1.327 . S
C1058 C1077 1.429 . S
C1058 H1082 0.950 . S
C1059 C1076 1.574 . S
C1059 C1078 1.368 . S
C1059 H1083 0.949 . S
H1060 C1064 0.949 . S
C1061 C1062 1.349 . S
C1061 C1063 1.327 . S
C1061 H1084 0.950 . S
C1062 C1061 1.349 . S
C1062 C1074 1.349 . S
C1063 C1061 1.327 . S
C1063 C1079 1.429 . S
C1063 H1085 0.950 . S
C1064 H1060 0.949 . S
C1064 C1072 1.574 . S
C1064 C1080 1.368 . S
H1065 C1073 0.950 . S
H1066 C1071 0.950 . S
H1067 C1072 0.949 . S
H1068 C1074 0.950 . S
H1069 C1075 0.950 . S
H1070 C1076 0.949 . S
C1071 H1066 0.950 . S
C1071 C1073 1.327 . S
C1071 C1077 1.429 . S
C1072 C1064 1.574 . S
C1072 H1067 0.949 . S
C1072 C1078 1.368 . S
C1073 C1057 1.349 . S
C1073 H1065 0.950 . S
C1073 C1071 1.327 . S
C1074 C1062 1.349 . S
C1074 H1068 0.950 . S
C1074 C1075 1.327 . S
C1075 H1069 0.950 . S
C1075 C1074 1.327 . S
C1075 C1079 1.429 . S
C1076 C1059 1.574 . S
C1076 H1070 0.949 . S
C1076 C1080 1.368 . S
C1077 C1058 1.429 . S
C1077 C1071 1.429 . S
C1077 C1078 1.523 . S
C1078 C1059 1.368 . S
C1078 C1072 1.368 . S
C1078 C1077 1.523 . S
C1079 C1063 1.429 . S
C1079 C1075 1.429 . S
C1079 C1080 1.523 . S
C1080 C1064 1.368 . S
C1080 C1076 1.368 . S
C1080 C1079 1.523 . S
H1081 C1056 0.950 . S
H1082 C1058 0.950 . S
H1083 C1059 0.949 . S
H1084 C1061 0.950 . S
H1085 C1063 0.950 . S
C1086 C1087 1.349 . S
C1086 C1088 1.327 . S
C1086 H1111 0.950 . S
C1087 C1086 1.349 . S
C1087 C1103 1.349 . S
C1088 C1086 1.327 . S
C1088 C1107 1.429 . S
C1088 H1112 0.950 . S
C1089 C1106 1.574 1_455 S
C1089 C1108 1.368 . S
C1089 H1113 0.949 . S
H1090 C1094 0.949 . S
C1091 C1092 1.349 . S
C1091 C1093 1.327 . S
C1091 H1114 0.950 . S
C1092 C1091 1.349 . S
C1092 C1104 1.349 . S
C1093 C1091 1.327 . S
C1093 C1109 1.429 . S
C1093 H1115 0.950 . S
C1094 H1090 0.949 . S
C1094 C1102 1.576 . S
C1094 C1110 1.368 . S
H1095 C1103 0.950 . S
H1096 C1101 0.950 . S
H1097 C1102 0.950 1_455 S
H1098 C1104 0.950 . S
H1099 C1105 0.950 . S
H1100 C1106 0.949 . S
C1101 H1096 0.950 . S
C1101 C1103 1.327 . S
C1101 C1107 1.429 . S
C1102 C1094 1.576 . S
C1102 H1097 0.950 1_655 S
C1102 C1108 1.366 1_655 S
C1103 C1087 1.349 . S
C1103 H1095 0.950 . S
C1103 C1101 1.327 . S
C1104 C1092 1.349 . S
C1104 H1098 0.950 . S
C1104 C1105 1.327 . S
C1105 H1099 0.950 . S
C1105 C1104 1.327 . S
C1105 C1109 1.429 . S
C1106 C1089 1.574 1_655 S
C1106 H1100 0.949 . S
C1106 C1110 1.368 . S
C1107 C1088 1.429 . S
C1107 C1101 1.429 . S
C1107 C1108 1.523 . S
C1108 C1089 1.368 . S
C1108 C1102 1.366 1_455 S
C1108 C1107 1.523 . S
C1109 C1093 1.429 . S
C1109 C1105 1.429 . S
C1109 C1110 1.523 . S
C1110 C1094 1.368 . S
C1110 C1106 1.368 . S
C1110 C1109 1.523 . S
H1111 C1086 0.950 . S
H1112 C1088 0.950 . S
H1113 C1089 0.949 . S
H1114 C1091 0.950 . S
H1115 C1093 0.950 . S
C1116 C1117 1.349 . S
C1116 C1118 1.327 . S
C1116 H1141 0.950 . S
C1117 C1116 1.349 . S
C1117 C1133 1.349 . S
C1118 C1116 1.327 . S
C1118 C1137 1.429 . S
C1118 H1142 0.950 . S
C1119 C1136 1.574 . S
C1119 C1138 1.368 . S
C1119 H1143 0.949 . S
H1120 C1124 0.949 . S
C1121 C1122 1.349 . S
C1121 C1123 1.327 . S
C1121 H1144 0.950 . S
C1122 C1121 1.349 . S
C1122 C1134 1.349 . S
C1123 C1121 1.327 . S
C1123 C1139 1.429 . S
C1123 H1145 0.950 . S
C1124 H1120 0.949 . S
C1124 C1132 1.574 . S
C1124 C1140 1.368 . S
H1125 C1133 0.950 . S
H1126 C1131 0.950 . S
H1127 C1132 0.949 . S
H1128 C1134 0.950 . S
H1129 C1135 0.950 . S
H1130 C1136 0.949 . S
C1131 H1126 0.950 . S
C1131 C1133 1.327 . S
C1131 C1137 1.429 . S
C1132 C1124 1.574 . S
C1132 H1127 0.949 . S
C1132 C1138 1.368 . S
C1133 C1117 1.349 . S
C1133 H1125 0.950 . S
C1133 C1131 1.327 . S
C1134 C1122 1.349 . S
C1134 H1128 0.950 . S
C1134 C1135 1.327 . S
C1135 H1129 0.950 . S
C1135 C1134 1.327 . S
C1135 C1139 1.429 . S
C1136 C1119 1.574 . S
C1136 H1130 0.949 . S
C1136 C1140 1.368 . S
C1137 C1118 1.429 . S
C1137 C1131 1.429 . S
C1137 C1138 1.523 . S
C1138 C1119 1.368 . S
C1138 C1132 1.368 . S
C1138 C1137 1.523 . S
C1139 C1123 1.429 . S
C1139 C1135 1.429 . S
C1139 C1140 1.523 . S
C1140 C1124 1.368 . S
C1140 C1136 1.368 . S
C1140 C1139 1.523 . S
H1141 C1116 0.950 . S
H1142 C1118 0.950 . S
H1143 C1119 0.949 . S
H1144 C1121 0.950 . S
H1145 C1123 0.950 . S
C1146 C1147 1.349 . S
C1146 C1148 1.327 . S
C1146 H1171 0.950 . S
C1147 C1146 1.349 . S
C1147 C1163 1.349 1_455 S
C1148 C1146 1.327 . S
C1148 C1167 1.429 1_455 S
C1148 H1172 0.950 . S
C1149 C1166 1.574 . S
C1149 C1168 1.368 . S
C1149 H1173 0.949 . S
H1150 C1154 0.958 . S
C1151 C1152 1.349 . S
C1151 C1153 1.327 . S
C1151 H1174 0.950 . S
C1152 C1151 1.349 . S
C1152 C1164 1.349 . S
C1153 C1151 1.327 . S
C1153 C1169 1.429 . S
C1153 H1175 0.950 . S
C1154 H1150 0.958 . S
C1154 C1162 1.577 . S
C1154 C1170 1.355 1_455 S
H1155 C1163 0.950 . S
H1156 C1161 0.950 . S
H1157 C1162 0.949 . S
H1158 C1164 0.950 . S
H1159 C1165 0.950 1_455 S
H1160 C1166 0.949 . S
C1161 H1156 0.950 . S
C1161 C1163 1.327 . S
C1161 C1167 1.429 . S
C1162 C1154 1.577 . S
C1162 H1157 0.949 . S
C1162 C1168 1.368 1_455 S
C1163 C1147 1.349 1_655 S
C1163 H1155 0.950 . S
C1163 C1161 1.327 . S
C1164 C1152 1.349 . S
C1164 H1158 0.950 . S
C1164 C1165 1.327 . S
C1165 H1159 0.950 1_655 S
C1165 C1164 1.327 . S
C1165 C1169 1.429 . S
C1166 C1149 1.574 . S
C1166 H1160 0.949 . S
C1166 C1170 1.368 . S
C1167 C1148 1.429 1_655 S
C1167 C1161 1.429 . S
C1167 C1168 1.523 . S
C1168 C1149 1.368 . S
C1168 C1162 1.368 1_655 S
C1168 C1167 1.523 . S
C1169 C1153 1.429 . S
C1169 C1165 1.429 . S
C1169 C1170 1.523 . S
C1170 C1154 1.355 1_655 S
C1170 C1166 1.368 . S
C1170 C1169 1.523 . S
H1171 C1146 0.950 . S
H1172 C1148 0.950 . S
H1173 C1149 0.949 . S
H1174 C1151 0.950 . S
H1175 C1153 0.950 . S
C1176 C1177 1.349 1_565 S
C1176 C1178 1.327 . S
C1176 H1201 0.950 . S
C1177 C1176 1.349 1_545 S
C1177 C1193 1.349 . S
C1178 C1176 1.327 . S
C1178 C1197 1.429 1_565 S
C1178 H1202 0.950 . S
C1179 C1196 1.574 . S
C1179 C1198 1.368 . S
C1179 H1203 0.949 . S
H1180 C1184 0.949 1_565 S
C1181 C1182 1.349 . S
C1181 C1183 1.327 . S
C1181 H1204 0.950 . S
C1182 C1181 1.349 . S
C1182 C1194 1.349 . S
C1183 C1181 1.327 . S
C1183 C1199 1.429 . S
C1183 H1205 0.950 . S
C1184 H1180 0.949 1_545 S
C1184 C1192 1.574 . S
C1184 C1200 1.368 . S
H1185 C1193 0.950 . S
H1186 C1191 0.950 . S
H1187 C1192 0.949 1_565 S
H1188 C1194 0.950 1_565 S
H1189 C1195 0.950 1_565 S
H1190 C1196 0.949 . S
C1191 H1186 0.950 . S
C1191 C1193 1.327 . S
C1191 C1197 1.429 . S
C1192 C1184 1.574 . S
C1192 H1187 0.949 1_545 S
C1192 C1198 1.368 . S
C1193 C1177 1.349 . S
C1193 H1185 0.950 . S
C1193 C1191 1.327 . S
C1194 C1182 1.349 . S
C1194 H1188 0.950 1_545 S
C1194 C1195 1.327 . S
C1195 H1189 0.950 1_545 S
C1195 C1194 1.327 . S
C1195 C1199 1.429 . S
C1196 C1179 1.574 . S
C1196 H1190 0.949 . S
C1196 C1200 1.368 . S
C1197 C1178 1.429 1_545 S
C1197 C1191 1.429 . S
C1197 C1198 1.523 . S
C1198 C1179 1.368 . S
C1198 C1192 1.368 . S
C1198 C1197 1.523 . S
C1199 C1183 1.429 . S
C1199 C1195 1.429 . S
C1199 C1200 1.523 . S
C1200 C1184 1.368 . S
C1200 C1196 1.368 . S
C1200 C1199 1.523 . S
H1201 C1176 0.950 . S
H1202 C1178 0.950 . S
H1203 C1179 0.949 . S
H1204 C1181 0.950 . S
H1205 C1183 0.950 . S
C1206 C1207 1.349 . S
C1206 C1208 1.327 . S
C1206 H1231 0.950 . S
C1207 C1206 1.349 . S
C1207 C1223 1.349 . S
C1208 C1206 1.327 . S
C1208 C1227 1.429 . S
C1208 H1232 0.950 . S
C1209 C1226 1.574 . S
C1209 C1228 1.368 . S
C1209 H1233 0.949 . S
H1210 C1214 0.949 . S
C1211 C1212 1.349 . S
C1211 C1213 1.327 . S
C1211 H1234 0.950 . S
C1212 C1211 1.349 . S
C1212 C1224 1.349 . S
C1213 C1211 1.327 . S
C1213 C1229 1.429 . S
C1213 H1235 0.950 . S
C1214 H1210 0.949 . S
C1214 C1222 1.574 . S
C1214 C1230 1.368 . S
H1215 C1223 0.950 . S
H1216 C1221 0.950 . S
H1217 C1222 0.949 . S
H1218 C1224 0.950 . S
H1219 C1225 0.950 . S
H1220 C1226 0.949 . S
C1221 H1216 0.950 . S
C1221 C1223 1.327 . S
C1221 C1227 1.429 . S
C1222 C1214 1.574 . S
C1222 H1217 0.949 . S
C1222 C1228 1.368 . S
C1223 C1207 1.349 . S
C1223 H1215 0.950 . S
C1223 C1221 1.327 . S
C1224 C1212 1.349 . S
C1224 H1218 0.950 . S
C1224 C1225 1.327 . S
C1225 H1219 0.950 . S
C1225 C1224 1.327 . S
C1225 C1229 1.429 . S
C1226 C1209 1.574 . S
C1226 H1220 0.949 . S
C1226 C1230 1.368 . S
C1227 C1208 1.429 . S
C1227 C1221 1.429 . S
C1227 C1228 1.523 . S
C1228 C1209 1.368 . S
C1228 C1222 1.368 . S
C1228 C1227 1.523 . S
C1229 C1213 1.429 . S
C1229 C1225 1.429 . S
C1229 C1230 1.523 . S
C1230 C1214 1.368 . S
C1230 C1226 1.368 . S
C1230 C1229 1.523 . S
H1231 C1206 0.950 . S
H1232 C1208 0.950 . S
H1233 C1209 0.949 . S
H1234 C1211 0.950 . S
H1235 C1213 0.950 . S
C1236 C1237 1.349 . S
C1236 C1238 1.327 . S
C1236 H1261 0.950 . S
C1237 C1236 1.349 . S
C1237 C1253 1.349 1_565 S
C1238 C1236 1.327 . S
C1238 C1257 1.429 . S
C1238 H1262 0.950 . S
C1239 C1256 1.574 . S
C1239 C1258 1.368 1_545 S
C1239 H1263 0.949 . S
H1240 C1244 0.949 . S
C1241 C1242 1.349 . S
C1241 C1243 1.327 . S
C1241 H1264 0.950 1_565 S
C1242 C1241 1.349 . S
C1242 C1254 1.349 . S
C1243 C1241 1.327 . S
C1243 C1259 1.429 . S
C1243 H1265 0.950 1_565 S
C1244 H1240 0.949 . S
C1244 C1252 1.574 . S
C1244 C1260 1.368 . S
H1245 C1253 0.950 . S
H1246 C1251 0.950 . S
H1247 C1252 0.949 . S
H1248 C1254 0.950 . S
H1249 C1255 0.950 . S
H1250 C1256 0.949 . S
C1251 H1246 0.950 . S
C1251 C1253 1.327 . S
C1251 C1257 1.429 1_545 S
C1252 C1244 1.574 . S
C1252 H1247 0.949 . S
C1252 C1258 1.368 . S
C1253 C1237 1.349 1_545 S
C1253 H1245 0.950 . S
C1253 C1251 1.327 . S
C1254 C1242 1.349 . S
C1254 H1248 0.950 . S
C1254 C1255 1.327 . S
C1255 H1249 0.950 . S
C1255 C1254 1.327 . S
C1255 C1259 1.429 . S
C1256 C1239 1.574 . S
C1256 H1250 0.949 . S
C1256 C1260 1.368 1_545 S
C1257 C1238 1.429 . S
C1257 C1251 1.429 1_565 S
C1257 C1258 1.523 . S
C1258 C1239 1.368 1_565 S
C1258 C1252 1.368 . S
C1258 C1257 1.523 . S
C1259 C1243 1.429 . S
C1259 C1255 1.429 . S
C1259 C1260 1.523 . S
C1260 C1244 1.368 . S
C1260 C1256 1.368 1_565 S
C1260 C1259 1.523 . S
H1261 C1236 0.950 . S
H1262 C1238 0.950 . S
H1263 C1239 0.949 . S
H1264 C1241 0.950 1_545 S
H1265 C1243 0.950 1_545 S
C1266 C1267 1.349 . S
C1266 C1268 1.327 . S
C1266 H1291 0.950 . S
C1267 C1266 1.349 . S
C1267 C1283 1.349 . S
C1268 C1266 1.327 . S
C1268 C1287 1.429 . S
C1268 H1292 0.950 . S
C1269 C1286 1.574 . S
C1269 C1288 1.368 . S
C1269 H1293 0.949 . S
H1270 C1274 0.949 . S
C1271 C1272 1.349 . S
C1271 C1273 1.327 . S
C1271 H1294 0.950 . S
C1272 C1271 1.349 . S
C1272 C1284 1.349 . S
C1273 C1271 1.327 . S
C1273 C1289 1.429 . S
C1273 H1295 0.950 . S
C1274 H1270 0.949 . S
C1274 C1282 1.574 . S
C1274 C1290 1.368 . S
H1275 C1283 0.950 . S
H1276 C1281 0.950 . S
H1277 C1282 0.949 . S
H1278 C1284 0.950 . S
H1279 C1285 0.950 . S
H1280 C1286 0.949 . S
C1281 H1276 0.950 . S
C1281 C1283 1.327 . S
C1281 C1287 1.429 . S
C1282 C1274 1.574 . S
C1282 H1277 0.949 . S
C1282 C1288 1.368 . S
C1283 C1267 1.349 . S
C1283 H1275 0.950 . S
C1283 C1281 1.327 . S
C1284 C1272 1.349 . S
C1284 H1278 0.950 . S
C1284 C1285 1.327 . S
C1285 H1279 0.950 . S
C1285 C1284 1.327 . S
C1285 C1289 1.429 . S
C1286 C1269 1.574 . S
C1286 H1280 0.949 . S
C1286 C1290 1.368 . S
C1287 C1268 1.429 . S
C1287 C1281 1.429 . S
C1287 C1288 1.523 . S
C1288 C1269 1.368 . S
C1288 C1282 1.368 . S
C1288 C1287 1.523 . S
C1289 C1273 1.429 . S
C1289 C1285 1.429 . S
C1289 C1290 1.523 . S
C1290 C1274 1.368 . S
C1290 C1286 1.368 . S
C1290 C1289 1.523 . S
H1291 C1266 0.950 . S
H1292 C1268 0.950 . S
H1293 C1269 0.949 . S
H1294 C1271 0.950 . S
H1295 C1273 0.950 . S
C1296 C1297 1.349 . S
C1296 C1298 1.327 . S
C1296 H1321 0.950 . S
C1297 C1296 1.349 . S
C1297 C1313 1.349 . S
C1298 C1296 1.327 . S
C1298 C1317 1.429 . S
C1298 H1322 0.950 . S
C1299 C1316 1.574 . S
C1299 C1318 1.368 . S
C1299 H1323 0.949 . S
H1300 C1304 0.949 . S
C1301 C1302 1.349 . S
C1301 C1303 1.327 . S
C1301 H1324 0.950 . S
C1302 C1301 1.349 . S
C1302 C1314 1.349 . S
C1303 C1301 1.327 . S
C1303 C1319 1.429 . S
C1303 H1325 0.950 . S
C1304 H1300 0.949 . S
C1304 C1312 1.574 . S
C1304 C1320 1.368 . S
H1305 C1313 0.950 . S
H1306 C1311 0.950 . S
H1307 C1312 0.949 . S
H1308 C1314 0.950 . S
H1309 C1315 0.950 . S
H1310 C1316 0.949 . S
C1311 H1306 0.950 . S
C1311 C1313 1.327 . S
C1311 C1317 1.429 . S
C1312 C1304 1.574 . S
C1312 H1307 0.949 . S
C1312 C1318 1.368 . S
C1313 C1297 1.349 . S
C1313 H1305 0.950 . S
C1313 C1311 1.327 . S
C1314 C1302 1.349 . S
C1314 H1308 0.950 . S
C1314 C1315 1.327 . S
C1315 H1309 0.950 . S
C1315 C1314 1.327 . S
C1315 C1319 1.429 . S
C1316 C1299 1.574 . S
C1316 H1310 0.949 . S
C1316 C1320 1.368 . S
C1317 C1298 1.429 . S
C1317 C1311 1.429 . S
C1317 C1318 1.523 . S
C1318 C1299 1.368 . S
C1318 C1312 1.368 . S
C1318 C1317 1.523 . S
C1319 C1303 1.429 . S
C1319 C1315 1.429 . S
C1319 C1320 1.523 . S
C1320 C1304 1.368 . S
C1320 C1316 1.368 . S
C1320 C1319 1.523 . S
H1321 C1296 0.950 . S
H1322 C1298 0.950 . S
H1323 C1299 0.949 . S
H1324 C1301 0.950 . S
H1325 C1303 0.950 . S
C1326 C1327 1.349 . S
C1326 C1328 1.327 . S
C1326 H1351 0.950 . S
C1327 C1326 1.349 . S
C1327 C1343 1.349 . S
C1328 C1326 1.327 . S
C1328 C1347 1.429 . S
C1328 H1352 0.950 . S
C1329 C1346 1.574 . S
C1329 C1348 1.368 . S
C1329 H1353 0.949 . S
H1330 C1334 0.949 . S
C1331 C1332 1.349 . S
C1331 C1333 1.327 . S
C1331 H1354 0.950 . S
C1332 C1331 1.349 . S
C1332 C1344 1.349 . S
C1333 C1331 1.327 . S
C1333 C1349 1.429 . S
C1333 H1355 0.950 . S
C1334 H1330 0.949 . S
C1334 C1342 1.574 . S
C1334 C1350 1.368 . S
H1335 C1343 0.950 . S
H1336 C1341 0.950 . S
H1337 C1342 0.949 . S
H1338 C1344 0.950 . S
H1339 C1345 0.950 . S
H1340 C1346 0.949 . S
C1341 H1336 0.950 . S
C1341 C1343 1.327 . S
C1341 C1347 1.429 . S
C1342 C1334 1.574 . S
C1342 H1337 0.949 . S
C1342 C1348 1.368 . S
C1343 C1327 1.349 . S
C1343 H1335 0.950 . S
C1343 C1341 1.327 . S
C1344 C1332 1.349 . S
C1344 H1338 0.950 . S
C1344 C1345 1.327 . S
C1345 H1339 0.950 . S
C1345 C1344 1.327 . S
C1345 C1349 1.429 . S
C1346 C1329 1.574 . S
C1346 H1340 0.949 . S
C1346 C1350 1.368 . S
C1347 C1328 1.429 . S
C1347 C1341 1.429 . S
C1347 C1348 1.523 . S
C1348 C1329 1.368 . S
C1348 C1342 1.368 . S
C1348 C1347 1.523 . S
C1349 C1333 1.429 . S
C1349 C1345 1.429 . S
C1349 C1350 1.523 . S
C1350 C1334 1.368 . S
C1350 C1346 1.368 . S
C1350 C1349 1.523 . S
H1351 C1326 0.950 . S
H1352 C1328 0.950 . S
H1353 C1329 0.949 . S
H1354 C1331 0.950 . S
H1355 C1333 0.950 . S
C1356 C1357 1.349 . S
C1356 C1358 1.327 . S
C1356 H1381 0.950 . S
C1357 C1356 1.349 . S
C1357 C1373 1.349 . S
C1358 C1356 1.327 . S
C1358 C1377 1.429 . S
C1358 H1382 0.950 . S
C1359 C1376 1.574 . S
C1359 C1378 1.368 . S
C1359 H1383 0.949 . S
H1360 C1364 0.949 . S
C1361 C1362 1.349 . S
C1361 C1363 1.327 . S
C1361 H1384 0.950 . S
C1362 C1361 1.349 . S
C1362 C1374 1.349 . S
C1363 C1361 1.327 . S
C1363 C1379 1.429 . S
C1363 H1385 0.950 . S
C1364 H1360 0.949 . S
C1364 C1372 1.574 . S
C1364 C1380 1.368 . S
H1365 C1373 0.950 . S
H1366 C1371 0.950 . S
H1367 C1372 0.949 . S
H1368 C1374 0.950 . S
H1369 C1375 0.950 . S
H1370 C1376 0.949 . S
C1371 H1366 0.950 . S
C1371 C1373 1.327 . S
C1371 C1377 1.429 . S
C1372 C1364 1.574 . S
C1372 H1367 0.949 . S
C1372 C1378 1.368 . S
C1373 C1357 1.349 . S
C1373 H1365 0.950 . S
C1373 C1371 1.327 . S
C1374 C1362 1.349 . S
C1374 H1368 0.950 . S
C1374 C1375 1.327 . S
C1375 H1369 0.950 . S
C1375 C1374 1.327 . S
C1375 C1379 1.429 . S
C1376 C1359 1.574 . S
C1376 H1370 0.949 . S
C1376 C1380 1.368 . S
C1377 C1358 1.429 . S
C1377 C1371 1.429 . S
C1377 C1378 1.523 . S
C1378 C1359 1.368 . S
C1378 C1372 1.368 . S
C1378 C1377 1.523 . S
C1379 C1363 1.429 . S
C1379 C1375 1.429 . S
C1379 C1380 1.523 . S
C1380 C1364 1.368 . S
C1380 C1376 1.368 . S
C1380 C1379 1.523 . S
H1381 C1356 0.950 . S
H1382 C1358 0.950 . S
H1383 C1359 0.949 . S
H1384 C1361 0.950 . S
H1385 C1363 0.950 . S
C1386 C1387 1.349 . S
C1386 C1388 1.327 . S
C1386 H1411 0.950 . S
C1387 C1386 1.349 . S
C1387 C1403 1.349 . S
C1388 C1386 1.327 . S
C1388 C1407 1.429 . S
C1388 H1412 0.950 . S
C1389 C1406 1.574 . S
C1389 C1408 1.368 . S
C1389 H1413 0.949 . S
H1390 C1394 0.949 . S
C1391 C1392 1.349 . S
C1391 C1393 1.327 . S
C1391 H1414 0.950 . S
C1392 C1391 1.349 . S
C1392 C1404 1.349 . S
C1393 C1391 1.327 . S
C1393 C1409 1.429 . S
C1393 H1415 0.950 . S
C1394 H1390 0.949 . S
C1394 C1402 1.574 . S
C1394 C1410 1.368 . S
H1395 C1403 0.950 . S
H1396 C1401 0.950 . S
H1397 C1402 0.949 . S
H1398 C1404 0.950 . S
H1399 C1405 0.950 . S
H1400 C1406 0.949 . S
C1401 H1396 0.950 . S
C1401 C1403 1.327 . S
C1401 C1407 1.429 . S
C1402 C1394 1.574 . S
C1402 H1397 0.949 . S
C1402 C1408 1.368 . S
C1403 C1387 1.349 . S
C1403 H1395 0.950 . S
C1403 C1401 1.327 . S
C1404 C1392 1.349 . S
C1404 H1398 0.950 . S
C1404 C1405 1.327 . S
C1405 H1399 0.950 . S
C1405 C1404 1.327 . S
C1405 C1409 1.429 . S
C1406 C1389 1.574 . S
C1406 H1400 0.949 . S
C1406 C1410 1.368 . S
C1407 C1388 1.429 . S
C1407 C1401 1.429 . S
C1407 C1408 1.523 . S
C1408 C1389 1.368 . S
C1408 C1402 1.368 . S
C1408 C1407 1.523 . S
C1409 C1393 1.429 . S
C1409 C1405 1.429 . S
C1409 C1410 1.523 . S
C1410 C1394 1.368 . S
C1410 C1406 1.368 . S
C1410 C1409 1.523 . S
H1411 C1386 0.950 . S
H1412 C1388 0.950 . S
H1413 C1389 0.949 . S
H1414 C1391 0.950 . S
H1415 C1393 0.950 . S
C1416 C1417 1.349 . S
C1416 C1418 1.327 . S
C1416 H1441 0.950 . S
C1417 C1416 1.349 . S
C1417 C1433 1.349 . S
C1418 C1416 1.327 . S
C1418 C1437 1.429 . S
C1418 H1442 0.950 . S
C1419 C1436 1.574 . S
C1419 C1438 1.368 . S
C1419 H1443 0.949 . S
H1420 C1424 0.949 . S
C1421 C1422 1.349 . S
C1421 C1423 1.327 . S
C1421 H1444 0.950 . S
C1422 C1421 1.349 . S
C1422 C1434 1.349 . S
C1423 C1421 1.327 . S
C1423 C1439 1.429 . S
C1423 H1445 0.950 . S
C1424 H1420 0.949 . S
C1424 C1432 1.574 . S
C1424 C1440 1.368 . S
H1425 C1433 0.950 . S
H1426 C1431 0.950 . S
H1427 C1432 0.949 . S
H1428 C1434 0.950 . S
H1429 C1435 0.950 . S
H1430 C1436 0.949 . S
C1431 H1426 0.950 . S
C1431 C1433 1.327 . S
C1431 C1437 1.429 . S
C1432 C1424 1.574 . S
C1432 H1427 0.949 . S
C1432 C1438 1.368 . S
C1433 C1417 1.349 . S
C1433 H1425 0.950 . S
C1433 C1431 1.327 . S
C1434 C1422 1.349 . S
C1434 H1428 0.950 . S
C1434 C1435 1.327 . S
C1435 H1429 0.950 . S
C1435 C1434 1.327 . S
C1435 C1439 1.429 . S
C1436 C1419 1.574 . S
C1436 H1430 0.949 . S
C1436 C1440 1.368 . S
C1437 C1418 1.429 . S
C1437 C1431 1.429 . S
C1437 C1438 1.523 . S
C1438 C1419 1.368 . S
C1438 C1432 1.368 . S
C1438 C1437 1.523 . S
C1439 C1423 1.429 . S
C1439 C1435 1.429 . S
C1439 C1440 1.523 . S
C1440 C1424 1.368 . S
C1440 C1436 1.368 . S
C1440 C1439 1.523 . S
H1441 C1416 0.950 . S
H1442 C1418 0.950 . S
H1443 C1419 0.949 . S
H1444 C1421 0.950 . S
H1445 C1423 0.950 . S
C1446 C1447 1.349 . S
C1446 C1448 1.327 . S
C1446 H1471 0.950 . S
C1447 C1446 1.349 . S
C1447 C1463 1.349 . S
C1448 C1446 1.327 . S
C1448 C1467 1.429 . S
C1448 H1472 0.950 . S
C1449 C1466 1.574 . S
C1449 C1468 1.368 . S
C1449 H1473 0.949 . S
H1450 C1454 0.949 . S
C1451 C1452 1.349 . S
C1451 C1453 1.327 . S
C1451 H1474 0.950 . S
C1452 C1451 1.349 . S
C1452 C1464 1.349 . S
C1453 C1451 1.327 . S
C1453 C1469 1.429 . S
C1453 H1475 0.950 . S
C1454 H1450 0.949 . S
C1454 C1462 1.574 . S
C1454 C1470 1.368 . S
H1455 C1463 0.950 . S
H1456 C1461 0.950 . S
H1457 C1462 0.949 . S
H1458 C1464 0.950 . S
H1459 C1465 0.950 . S
H1460 C1466 0.949 . S
C1461 H1456 0.950 . S
C1461 C1463 1.327 . S
C1461 C1467 1.429 . S
C1462 C1454 1.574 . S
C1462 H1457 0.949 . S
C1462 C1468 1.368 . S
C1463 C1447 1.349 . S
C1463 H1455 0.950 . S
C1463 C1461 1.327 . S
C1464 C1452 1.349 . S
C1464 H1458 0.950 . S
C1464 C1465 1.327 . S
C1465 H1459 0.950 . S
C1465 C1464 1.327 . S
C1465 C1469 1.429 . S
C1466 C1449 1.574 . S
C1466 H1460 0.949 . S
C1466 C1470 1.368 . S
C1467 C1448 1.429 . S
C1467 C1461 1.429 . S
C1467 C1468 1.523 . S
C1468 C1449 1.368 . S
C1468 C1462 1.368 . S
C1468 C1467 1.523 . S
C1469 C1453 1.429 . S
C1469 C1465 1.429 . S
C1469 C1470 1.523 . S
C1470 C1454 1.368 . S
C1470 C1466 1.368 . S
C1470 C1469 1.523 . S
H1471 C1446 0.950 . S
H1472 C1448 0.950 . S
H1473 C1449 0.949 . S
H1474 C1451 0.950 . S
H1475 C1453 0.950 . S
C1476 C1477 1.349 . S
C1476 C1478 1.327 . S
C1476 H1501 0.950 . S
C1477 C1476 1.349 . S
C1477 C1493 1.349 . S
C1478 C1476 1.327 . S
C1478 C1497 1.429 . S
C1478 H1502 0.950 . S
C1479 C1496 1.574 . S
C1479 C1498 1.368 . S
C1479 H1503 0.949 . S
H1480 C1484 0.949 . S
C1481 C1482 1.349 . S
C1481 C1483 1.327 . S
C1481 H1504 0.950 . S
C1482 C1481 1.349 . S
C1482 C1494 1.349 . S
C1483 C1481 1.327 . S
C1483 C1499 1.429 . S
C1483 H1505 0.950 . S
C1484 H1480 0.949 . S
C1484 C1492 1.574 . S
C1484 C1500 1.368 . S
H1485 C1493 0.950 . S
H1486 C1491 0.950 . S
H1487 C1492 0.949 . S
H1488 C1494 0.950 . S
H1489 C1495 0.950 . S
H1490 C1496 0.949 . S
C1491 H1486 0.950 . S
C1491 C1493 1.327 . S
C1491 C1497 1.429 . S
C1492 C1484 1.574 . S
C1492 H1487 0.949 . S
C1492 C1498 1.368 . S
C1493 C1477 1.349 . S
C1493 H1485 0.950 . S
C1493 C1491 1.327 . S
C1494 C1482 1.349 . S
C1494 H1488 0.950 . S
C1494 C1495 1.327 . S
C1495 H1489 0.950 . S
C1495 C1494 1.327 . S
C1495 C1499 1.429 . S
C1496 C1479 1.574 . S
C1496 H1490 0.949 . S
C1496 C1500 1.368 . S
C1497 C1478 1.429 . S
C1497 C1491 1.429 . S
C1497 C1498 1.523 . S
C1498 C1479 1.368 . S
C1498 C1492 1.368 . S
C1498 C1497 1.523 . S
C1499 C1483 1.429 . S
C1499 C1495 1.429 . S
C1499 C1500 1.523 . S
C1500 C1484 1.368 . S
C1500 C1496 1.368 . S
C1500 C1499 1.523 . S
H1501 C1476 0.950 . S
H1502 C1478 0.950 . S
H1503 C1479 0.949 . S
H1504 C1481 0.950 . S
H1505 C1483 0.950 . S
C1506 C1507 1.349 . S
C1506 C1508 1.327 . S
C1506 H1531 0.950 . S
C1507 C1506 1.349 . S
C1507 C1523 1.349 . S
C1508 C1506 1.327 . S
C1508 C1527 1.429 . S
C1508 H1532 0.950 . S
C1509 C1526 1.574 . S
C1509 C1528 1.368 . S
C1509 H1533 0.949 . S
H1510 C1514 0.949 . S
C1511 C1512 1.349 . S
C1511 C1513 1.327 . S
C1511 H1534 0.950 . S
C1512 C1511 1.349 . S
C1512 C1524 1.349 . S
C1513 C1511 1.327 . S
C1513 C1529 1.429 . S
C1513 H1535 0.950 . S
C1514 H1510 0.949 . S
C1514 C1522 1.574 . S
C1514 C1530 1.368 . S
H1515 C1523 0.950 . S
H1516 C1521 0.950 . S
H1517 C1522 0.949 . S
H1518 C1524 0.950 . S
H1519 C1525 0.950 . S
H1520 C1526 0.949 . S
C1521 H1516 0.950 . S
C1521 C1523 1.327 . S
C1521 C1527 1.429 . S
C1522 C1514 1.574 . S
C1522 H1517 0.949 . S
C1522 C1528 1.368 . S
C1523 C1507 1.349 . S
C1523 H1515 0.950 . S
C1523 C1521 1.327 . S
C1524 C1512 1.349 . S
C1524 H1518 0.950 . S
C1524 C1525 1.327 . S
C1525 H1519 0.950 . S
C1525 C1524 1.327 . S
C1525 C1529 1.429 . S
C1526 C1509 1.574 . S
C1526 H1520 0.949 . S
C1526 C1530 1.368 . S
C1527 C1508 1.429 . S
C1527 C1521 1.429 . S
C1527 C1528 1.523 . S
C1528 C1509 1.368 . S
C1528 C1522 1.368 . S
C1528 C1527 1.523 . S
C1529 C1513 1.429 . S
C1529 C1525 1.429 . S
C1529 C1530 1.523 . S
C1530 C1514 1.368 . S
C1530 C1526 1.368 . S
C1530 C1529 1.523 . S
H1531 C1506 0.950 . S
H1532 C1508 0.950 . S
H1533 C1509 0.949 . S
H1534 C1511 0.950 . S
H1535 C1513 0.950 . S
C1536 C1537 1.349 . S
C1536 C1538 1.327 . S
C1536 H1561 0.950 . S
C1537 C1536 1.349 . S
C1537 C1553 1.349 . S
C1538 C1536 1.327 . S
C1538 C1557 1.429 . S
C1538 H1562 0.950 . S
C1539 C1556 1.574 . S
C1539 C1558 1.368 . S
C1539 H1563 0.949 . S
H1540 C1544 0.949 . S
C1541 C1542 1.349 . S
C1541 C1543 1.327 . S
C1541 H1564 0.950 . S
C1542 C1541 1.349 . S
C1542 C1554 1.349 . S
C1543 C1541 1.327 . S
C1543 C1559 1.429 . S
C1543 H1565 0.950 . S
C1544 H1540 0.949 . S
C1544 C1552 1.574 . S
C1544 C1560 1.368 . S
H1545 C1553 0.950 . S
H1546 C1551 0.950 . S
H1547 C1552 0.949 . S
H1548 C1554 0.950 . S
H1549 C1555 0.950 . S
H1550 C1556 0.949 . S
C1551 H1546 0.950 . S
C1551 C1553 1.327 . S
C1551 C1557 1.429 . S
C1552 C1544 1.574 . S
C1552 H1547 0.949 . S
C1552 C1558 1.368 . S
C1553 C1537 1.349 . S
C1553 H1545 0.950 . S
C1553 C1551 1.327 . S
C1554 C1542 1.349 . S
C1554 H1548 0.950 . S
C1554 C1555 1.327 . S
C1555 H1549 0.950 . S
C1555 C1554 1.327 . S
C1555 C1559 1.429 . S
C1556 C1539 1.574 . S
C1556 H1550 0.949 . S
C1556 C1560 1.368 . S
C1557 C1538 1.429 . S
C1557 C1551 1.429 . S
C1557 C1558 1.523 . S
C1558 C1539 1.368 . S
C1558 C1552 1.368 . S
C1558 C1557 1.523 . S
C1559 C1543 1.429 . S
C1559 C1555 1.429 . S
C1559 C1560 1.523 . S
C1560 C1544 1.368 . S
C1560 C1556 1.368 . S
C1560 C1559 1.523 . S
H1561 C1536 0.950 . S
H1562 C1538 0.950 . S
H1563 C1539 0.949 . S
H1564 C1541 0.950 . S
H1565 C1543 0.950 . S
C1566 C1567 1.349 . S
C1566 C1568 1.327 . S
C1566 H1591 0.950 . S
C1567 C1566 1.349 . S
C1567 C1583 1.349 1_565 S
C1568 C1566 1.327 . S
C1568 C1587 1.429 . S
C1568 H1592 0.950 . S
C1569 C1586 1.577 . S
C1569 C1588 1.385 . S
C1569 H1593 0.932 1_565 S
H1570 C1574 0.949 . S
C1571 C1572 1.349 . S
C1571 C1573 1.327 . S
C1571 H1594 0.950 1_565 S
C1572 C1571 1.349 . S
C1572 C1584 1.349 . S
C1573 C1571 1.327 . S
C1573 C1589 1.429 . S
C1573 H1595 0.950 1_565 S
C1574 H1570 0.949 . S
C1574 C1582 1.574 . S
C1574 C1590 1.368 . S
H1575 C1583 0.950 . S
H1576 C1581 0.950 . S
H1577 C1582 0.949 . S
H1578 C1584 0.950 . S
H1579 C1585 0.950 . S
H1580 C1586 0.949 1_545 S
C1581 H1576 0.950 . S
C1581 C1583 1.327 . S
C1581 C1587 1.429 1_545 S
C1582 C1574 1.574 . S
C1582 H1577 0.949 . S
C1582 C1588 1.368 . S
C1583 C1567 1.349 1_545 S
C1583 H1575 0.950 . S
C1583 C1581 1.327 . S
C1584 C1572 1.349 . S
C1584 H1578 0.950 . S
C1584 C1585 1.327 . S
C1585 H1579 0.950 . S
C1585 C1584 1.327 . S
C1585 C1589 1.429 . S
C1586 C1569 1.577 . S
C1586 H1580 0.949 1_565 S
C1586 C1590 1.368 . S
C1587 C1568 1.429 . S
C1587 C1581 1.429 1_565 S
C1587 C1588 1.523 . S
C1588 C1569 1.385 . S
C1588 C1582 1.368 . S
C1588 C1587 1.523 . S
C1589 C1573 1.429 . S
C1589 C1585 1.429 . S
C1589 C1590 1.523 . S
C1590 C1574 1.368 . S
C1590 C1586 1.368 . S
C1590 C1589 1.523 . S
H1591 C1566 0.950 . S
H1592 C1568 0.950 . S
H1593 C1569 0.932 1_545 S
H1594 C1571 0.950 1_545 S
H1595 C1573 0.950 1_545 S
C1596 C1597 1.349 . S
C1596 C1598 1.327 . S
C1596 H1621 0.950 . S
C1597 C1596 1.349 . S
C1597 C1613 1.349 . S
C1598 C1596 1.327 . S
C1598 C1617 1.429 . S
C1598 H1622 0.950 . S
C1599 C1616 1.574 . S
C1599 C1618 1.368 . S
C1599 H1623 0.949 . S
H1600 C1604 0.949 . S
C1601 C1602 1.349 . S
C1601 C1603 1.327 . S
C1601 H1624 0.950 . S
C1602 C1601 1.349 . S
C1602 C1614 1.349 . S
C1603 C1601 1.327 . S
C1603 C1619 1.429 . S
C1603 H1625 0.950 . S
C1604 H1600 0.949 . S
C1604 C1612 1.574 . S
C1604 C1620 1.368 . S
H1605 C1613 0.950 . S
H1606 C1611 0.950 . S
H1607 C1612 0.949 . S
H1608 C1614 0.950 . S
H1609 C1615 0.950 . S
H1610 C1616 0.949 . S
C1611 H1606 0.950 . S
C1611 C1613 1.327 . S
C1611 C1617 1.429 . S
C1612 C1604 1.574 . S
C1612 H1607 0.949 . S
C1612 C1618 1.368 . S
C1613 C1597 1.349 . S
C1613 H1605 0.950 . S
C1613 C1611 1.327 . S
C1614 C1602 1.349 . S
C1614 H1608 0.950 . S
C1614 C1615 1.327 . S
C1615 H1609 0.950 . S
C1615 C1614 1.327 . S
C1615 C1619 1.429 . S
C1616 C1599 1.574 . S
C1616 H1610 0.949 . S
C1616 C1620 1.368 . S
C1617 C1598 1.429 . S
C1617 C1611 1.429 . S
C1617 C1618 1.523 . S
C1618 C1599 1.368 . S
C1618 C1612 1.368 . S
C1618 C1617 1.523 . S
C1619 C1603 1.429 . S
C1619 C1615 1.429 . S
C1619 C1620 1.523 . S
C1620 C1604 1.368 . S
C1620 C1616 1.368 . S
C1620 C1619 1.523 . S
H1621 C1596 0.950 . S
H1622 C1598 0.950 . S
H1623 C1599 0.949 . S
H1624 C1601 0.950 . S
H1625 C1603 0.950 . S
C1626 C1627 1.349 . S
C1626 C1628 1.327 . S
C1626 H1651 0.950 . S
C1627 C1626 1.349 . S
C1627 C1643 1.349 1_545 S
C1628 C1626 1.327 . S
C1628 C1647 1.429 . S
C1628 H1652 0.950 . S
C1629 C1646 1.574 . S
C1629 C1648 1.368 . S
C1629 H1653 0.949 1_545 S
H1630 C1634 0.949 . S
C1631 C1632 1.349 . S
C1631 C1633 1.327 . S
C1631 H1654 0.950 . S
C1632 C1631 1.349 . S
C1632 C1644 1.349 . S
C1633 C1631 1.327 . S
C1633 C1649 1.429 . S
C1633 H1655 0.902 1_545 S
C1634 H1630 0.949 . S
C1634 C1642 1.574 . S
C1634 C1650 1.368 . S
H1635 C1643 0.950 . S
H1636 C1641 0.950 . S
H1637 C1642 0.949 . S
H1638 C1644 0.950 . S
H1639 C1645 0.950 . S
H1640 C1646 0.949 1_565 S
C1641 H1636 0.950 . S
C1641 C1643 1.327 . S
C1641 C1647 1.429 1_565 S
C1642 C1634 1.574 . S
C1642 H1637 0.949 . S
C1642 C1648 1.368 . S
C1643 C1627 1.349 1_565 S
C1643 H1635 0.950 . S
C1643 C1641 1.327 . S
C1644 C1632 1.349 . S
C1644 H1638 0.950 . S
C1644 C1645 1.327 . S
C1645 H1639 0.950 . S
C1645 C1644 1.327 . S
C1645 C1649 1.429 . S
C1646 C1629 1.574 . S
C1646 H1640 0.949 1_545 S
C1646 C1650 1.368 . S
C1647 C1628 1.429 . S
C1647 C1641 1.429 1_545 S
C1647 C1648 1.523 . S
C1648 C1629 1.368 . S
C1648 C1642 1.368 . S
C1648 C1647 1.523 . S
C1649 C1633 1.429 . S
C1649 C1645 1.429 . S
C1649 C1650 1.523 . S
C1650 C1634 1.368 . S
C1650 C1646 1.368 . S
C1650 C1649 1.523 . S
H1651 C1626 0.950 . S
H1652 C1628 0.950 . S
H1653 C1629 0.949 1_565 S
H1654 C1631 0.950 . S
H1655 C1633 0.902 1_565 S
C1656 C1657 1.349 . S
C1656 C1658 1.327 . S
C1656 H1681 0.950 . S
C1657 C1656 1.349 . S
C1657 C1673 1.349 . S
C1658 C1656 1.327 . S
C1658 C1677 1.429 . S
C1658 H1682 0.950 . S
C1659 C1676 1.574 . S
C1659 C1678 1.368 . S
C1659 H1683 0.949 . S
H1660 C1664 0.949 . S
C1661 C1662 1.349 . S
C1661 C1663 1.327 . S
C1661 H1684 0.950 . S
C1662 C1661 1.349 . S
C1662 C1674 1.349 . S
C1663 C1661 1.327 . S
C1663 C1679 1.429 . S
C1663 H1685 0.950 . S
C1664 H1660 0.949 . S
C1664 C1672 1.574 . S
C1664 C1680 1.368 . S
H1665 C1673 0.950 . S
H1666 C1671 0.950 . S
H1667 C1672 0.949 . S
H1668 C1674 0.950 . S
H1669 C1675 0.950 . S
H1670 C1676 0.949 . S
C1671 H1666 0.950 . S
C1671 C1673 1.327 . S
C1671 C1677 1.429 . S
C1672 C1664 1.574 . S
C1672 H1667 0.949 . S
C1672 C1678 1.368 . S
C1673 C1657 1.349 . S
C1673 H1665 0.950 . S
C1673 C1671 1.327 . S
C1674 C1662 1.349 . S
C1674 H1668 0.950 . S
C1674 C1675 1.327 . S
C1675 H1669 0.950 . S
C1675 C1674 1.327 . S
C1675 C1679 1.429 . S
C1676 C1659 1.574 . S
C1676 H1670 0.949 . S
C1676 C1680 1.368 . S
C1677 C1658 1.429 . S
C1677 C1671 1.429 . S
C1677 C1678 1.523 . S
C1678 C1659 1.368 . S
C1678 C1672 1.368 . S
C1678 C1677 1.523 . S
C1679 C1663 1.429 . S
C1679 C1675 1.429 . S
C1679 C1680 1.523 . S
C1680 C1664 1.368 . S
C1680 C1676 1.368 . S
C1680 C1679 1.523 . S
H1681 C1656 0.950 . S
H1682 C1658 0.950 . S
H1683 C1659 0.949 . S
H1684 C1661 0.950 . S
H1685 C1663 0.950 . S
C1686 C1687 1.349 . S
C1686 C1688 1.327 . S
C1686 H1711 0.950 . S
C1687 C1686 1.349 . S
C1687 C1703 1.349 1_554 S
C1688 C1686 1.327 . S
C1688 C1707 1.429 . S
C1688 H1712 0.950 . S
C1689 C1706 1.574 . S
C1689 C1708 1.372 . S
C1689 H1713 0.949 . S
H1690 C1694 0.949 . S
C1691 C1692 1.349 . S
C1691 C1693 1.327 . S
C1691 H1714 0.950 . S
C1692 C1691 1.349 . S
C1692 C1704 1.349 . S
C1693 C1691 1.327 . S
C1693 C1709 1.429 . S
C1693 H1715 0.950 . S
C1694 H1690 0.949 . S
C1694 C1702 1.574 . S
C1694 C1710 1.368 1_554 S
H1695 C1703 0.950 . S
H1696 C1701 0.950 . S
H1697 C1702 0.949 . S
H1698 C1704 0.929 1_554 S
H1699 C1705 0.950 1_554 S
H1700 C1706 0.949 . S
C1701 H1696 0.950 . S
C1701 C1703 1.327 . S
C1701 C1707 1.429 1_556 S
C1702 C1694 1.574 . S
C1702 H1697 0.949 . S
C1702 C1708 1.365 1_554 S
C1703 C1687 1.349 1_556 S
C1703 H1695 0.950 . S
C1703 C1701 1.327 . S
C1704 C1692 1.349 . S
C1704 H1698 0.929 1_556 S
C1704 C1705 1.327 . S
C1705 H1699 0.950 1_556 S
C1705 C1704 1.327 . S
C1705 C1709 1.429 . S
C1706 C1689 1.574 . S
C1706 H1700 0.949 . S
C1706 C1710 1.368 . S
C1707 C1688 1.429 . S
C1707 C1701 1.429 1_554 S
C1707 C1708 1.522 1_554 S
C1708 C1689 1.372 . S
C1708 C1702 1.365 1_556 S
C1708 C1707 1.522 1_556 S
C1709 C1693 1.429 . S
C1709 C1705 1.429 . S
C1709 C1710 1.523 . S
C1710 C1694 1.368 1_556 S
C1710 C1706 1.368 . S
C1710 C1709 1.523 . S
H1711 C1686 0.950 . S
H1712 C1688 0.950 . S
H1713 C1689 0.949 . S
H1714 C1691 0.950 . S
H1715 C1693 0.950 . S
C1716 C1717 1.349 . S
C1716 C1718 1.327 . S
C1716 H1741 0.950 . S
C1717 C1716 1.349 . S
C1717 C1733 1.349 1_554 S
C1718 C1716 1.327 . S
C1718 C1737 1.429 . S
C1718 H1742 0.950 . S
C1719 C1736 1.574 . S
C1719 C1738 1.368 . S
C1719 H1743 0.949 . S
H1720 C1724 0.949 . S
C1721 C1722 1.349 . S
C1721 C1723 1.327 . S
C1721 H1744 0.950 . S
C1722 C1721 1.349 . S
C1722 C1734 1.349 . S
C1723 C1721 1.327 . S
C1723 C1739 1.429 . S
C1723 H1745 0.950 . S
C1724 H1720 0.949 . S
C1724 C1732 1.574 . S
C1724 C1740 1.368 1_554 S
H1725 C1733 0.950 . S
H1726 C1731 0.950 . S
H1727 C1732 0.949 . S
H1728 C1734 0.950 . S
H1729 C1735 0.950 1_554 S
H1730 C1736 0.949 . S
C1731 H1726 0.950 . S
C1731 C1733 1.327 . S
C1731 C1737 1.429 1_556 S
C1732 C1724 1.574 . S
C1732 H1727 0.949 . S
C1732 C1738 1.368 1_554 S
C1733 C1717 1.349 1_556 S
C1733 H1725 0.950 . S
C1733 C1731 1.327 . S
C1734 C1722 1.349 . S
C1734 H1728 0.950 . S
C1734 C1735 1.327 . S
C1735 H1729 0.950 1_556 S
C1735 C1734 1.327 . S
C1735 C1739 1.429 . S
C1736 C1719 1.574 . S
C1736 H1730 0.949 . S
C1736 C1740 1.368 . S
C1737 C1718 1.429 . S
C1737 C1731 1.429 1_554 S
C1737 C1738 1.523 1_554 S
C1738 C1719 1.368 . S
C1738 C1732 1.368 1_556 S
C1738 C1737 1.523 1_556 S
C1739 C1723 1.429 . S
C1739 C1735 1.429 . S
C1739 C1740 1.523 . S
C1740 C1724 1.368 1_556 S
C1740 C1736 1.368 . S
C1740 C1739 1.523 . S
H1741 C1716 0.950 . S
H1742 C1718 0.950 . S
H1743 C1719 0.949 . S
H1744 C1721 0.950 . S
H1745 C1723 0.950 . S
C1746 C1747 1.349 . S
C1746 C1748 1.327 . S
C1746 H1771 0.950 . S
C1747 C1746 1.349 . S
C1747 C1763 1.349 . S
C1748 C1746 1.327 . S
C1748 C1767 1.429 . S
C1748 H1772 0.950 . S
C1749 C1766 1.574 . S
C1749 C1768 1.368 . S
C1749 H1773 0.949 . S
H1750 C1754 0.949 . S
C1751 C1752 1.349 . S
C1751 C1753 1.327 . S
C1751 H1774 0.950 . S
C1752 C1751 1.349 . S
C1752 C1764 1.349 . S
C1753 C1751 1.327 . S
C1753 C1769 1.429 . S
C1753 H1775 0.950 . S
C1754 H1750 0.949 . S
C1754 C1762 1.574 . S
C1754 C1770 1.368 . S
H1755 C1763 0.950 . S
H1756 C1761 0.950 . S
H1757 C1762 0.949 . S
H1758 C1764 0.950 . S
H1759 C1765 0.950 . S
H1760 C1766 0.949 . S
C1761 H1756 0.950 . S
C1761 C1763 1.327 . S
C1761 C1767 1.429 . S
C1762 C1754 1.574 . S
C1762 H1757 0.949 . S
C1762 C1768 1.368 . S
C1763 C1747 1.349 . S
C1763 H1755 0.950 . S
C1763 C1761 1.327 . S
C1764 C1752 1.349 . S
C1764 H1758 0.950 . S
C1764 C1765 1.327 . S
C1765 H1759 0.950 . S
C1765 C1764 1.327 . S
C1765 C1769 1.429 . S
C1766 C1749 1.574 . S
C1766 H1760 0.949 . S
C1766 C1770 1.368 . S
C1767 C1748 1.429 . S
C1767 C1761 1.429 . S
C1767 C1768 1.523 . S
C1768 C1749 1.368 . S
C1768 C1762 1.368 . S
C1768 C1767 1.523 . S
C1769 C1753 1.429 . S
C1769 C1765 1.429 . S
C1769 C1770 1.523 . S
C1770 C1754 1.368 . S
C1770 C1766 1.368 . S
C1770 C1769 1.523 . S
H1771 C1746 0.950 . S
H1772 C1748 0.950 . S
H1773 C1749 0.949 . S
H1774 C1751 0.950 . S
H1775 C1753 0.950 . S
C337 C13 1.916 . S
C342 C228 1.744 . S
C372 C247 1.772 . S
C367 C1 1.807 . S
C402 C185 1.521 1_565 S
C397 C27 1.507 . S
C427 C15 1.436 . S
C432 C206 1.433 . S
C457 C28 1.445 . S
C462 C333 1.280 1_554 S
C487 C55 1.311 . S
C492 C311 1.314 1_554 S
C522 C268 1.687 . S
C517 C40 1.726 1_565 S
C547 C43 1.402 . S
C552 C289 1.377 . S
C582 C207 1.427 . S
C577 C56 1.533 . S
C612 C248 1.400 1_455 S
C607 C83 1.410 . S
C637 C96 1.690 . S
C642 C226 1.659 1_655 S
C667 C71 1.496 . S
C672 C291 1.370 . S
C702 C312 1.744 . S
C697 C99 1.916 . S
C732 C331 1.772 1_565 S
C727 C111 1.807 . S
C757 C113 1.507 . S
C762 C290 1.521 . S
C792 C269 1.433 . S
C787 C125 1.436 . S
C817 C139 1.445 . S
C822 C249 1.310 . S
C847 C153 1.311 . S
C852 C227 1.314 . S
C882 C205 1.652 1_556 S
C877 C127 1.727 . S
C907 C141 1.401 . S
C912 C184 1.376 . S
C942 C270 1.412 . S
C937 C84 1.533 . S
C972 C332 1.400 . S
C967 C154 1.410 . S
C997 C68 1.690 . S
C1002 C310 1.659 . S
C1027 C166 1.494 . S
C1032 C186 1.370 . S
C1062 C182 1.060 . S
C1057 C0 1.136 . S
C1087 C12 1.111 . S
C1092 C203 1.076 . S
C1122 C223 1.130 . S
C1117 C14 1.230 . S
C1152 C246 1.479 . S
C1147 C26 1.822 . S
C1177 C41 1.004 . S
C1182 C183 0.837 . S
C1207 C42 1.770 . S
C1212 C204 1.378 . S
C1242 C224 1.053 . S
C1237 C29 1.107 1_565 S
C1267 C54 0.971 . S
C1272 C244 0.929 . S
C1297 C69 0.898 . S
C1302 C181 0.853 . S
C1332 C225 1.436 . S
C1327 C70 1.774 . S
C1357 C85 1.574 . S
C1362 C245 1.513 . S
C1387 C82 0.943 . S
C1392 C265 0.889 . S
C1422 C287 1.060 . S
C1417 C110 1.136 . S
C1447 C98 1.111 . S
C1452 C266 1.076 . S
C1477 C124 1.230 . S
C1482 C307 1.130 . S
C1507 C112 1.821 . S
C1512 C330 1.479 . S
C1537 C126 1.004 . S
C1542 C288 0.837 . S
C1572 C267 1.378 . S
C1567 C140 1.771 . S
C1597 C138 1.108 . S
C1602 C308 1.053 . S
C1632 C328 0.929 . S
C1627 C152 0.970 . S
C1662 C286 0.853 . S
C1657 C97 0.898 . S
C1692 C309 1.436 . S
C1687 C167 1.775 . S
C1722 C329 1.513 . S
C1717 C57 1.574 . S
C1747 C155 0.942 . S
C1752 C202 0.889 . S
