# Generated by pormake.
# Topology pyr, (3,6)-cn, num edge types: 1
# Building blocks:
#     Node 0, Type 0, BuildingBlock: WUSLED_clean_sbu_0, # of connection points: 3
#     Node 1, Type 0, BuildingBlock: WUSLED_clean_sbu_0, # of connection points: 3
#     Node 2, Type 0, BuildingBlock: WUSLED_clean_sbu_0, # of connection points: 3
#     Node 3, Type 0, BuildingBlock: WUSLED_clean_sbu_0, # of connection points: 3
#     Node 4, Type 0, BuildingBlock: WUSLED_clean_sbu_0, # of connection points: 3
#     Node 5, Type 0, BuildingBlock: WUSLED_clean_sbu_0, # of connection points: 3
#     Node 6, Type 0, BuildingBlock: WUSLED_clean_sbu_0, # of connection points: 3
#     Node 7, Type 0, BuildingBlock: WUSLED_clean_sbu_0, # of connection points: 3
#     Node 8, Type 1, BuildingBlock: MIDCAF_clean_sbu_0, # of connection points: 6
#     Node 9, Type 1, BuildingBlock: MIDCAF_clean_sbu_0, # of connection points: 6
#     Node 10, Type 1, BuildingBlock: MIDCAF_clean_sbu_0, # of connection points: 6
#     Node 11, Type 1, BuildingBlock: MIDCAF_clean_sbu_0, # of connection points: 6
#     Edge 12, Type (0, 1), BuildingBlock: EZIPEK_clean_linker_0, # of connection points: 2
#     Edge 13, Type (0, 1), BuildingBlock: EZIPEK_clean_linker_0, # of connection points: 2
#     Edge 14, Type (0, 1), BuildingBlock: EZIPEK_clean_linker_0, # of connection points: 2
#     Edge 15, Type (0, 1), BuildingBlock: EZIPEK_clean_linker_0, # of connection points: 2
#     Edge 16, Type (0, 1), BuildingBlock: EZIPEK_clean_linker_0, # of connection points: 2
#     Edge 17, Type (0, 1), BuildingBlock: EZIPEK_clean_linker_0, # of connection points: 2
#     Edge 18, Type (0, 1), BuildingBlock: EZIPEK_clean_linker_0, # of connection points: 2
#     Edge 19, Type (0, 1), BuildingBlock: EZIPEK_clean_linker_0, # of connection points: 2
#     Edge 20, Type (0, 1), BuildingBlock: EZIPEK_clean_linker_0, # of connection points: 2
#     Edge 21, Type (0, 1), BuildingBlock: EZIPEK_clean_linker_0, # of connection points: 2
#     Edge 22, Type (0, 1), BuildingBlock: EZIPEK_clean_linker_0, # of connection points: 2
#     Edge 23, Type (0, 1), BuildingBlock: EZIPEK_clean_linker_0, # of connection points: 2
#     Edge 24, Type (0, 1), BuildingBlock: EZIPEK_clean_linker_0, # of connection points: 2
#     Edge 25, Type (0, 1), BuildingBlock: EZIPEK_clean_linker_0, # of connection points: 2
#     Edge 26, Type (0, 1), BuildingBlock: EZIPEK_clean_linker_0, # of connection points: 2
#     Edge 27, Type (0, 1), BuildingBlock: EZIPEK_clean_linker_0, # of connection points: 2
#     Edge 28, Type (0, 1), BuildingBlock: EZIPEK_clean_linker_0, # of connection points: 2
#     Edge 29, Type (0, 1), BuildingBlock: EZIPEK_clean_linker_0, # of connection points: 2
#     Edge 30, Type (0, 1), BuildingBlock: EZIPEK_clean_linker_0, # of connection points: 2
#     Edge 31, Type (0, 1), BuildingBlock: EZIPEK_clean_linker_0, # of connection points: 2
#     Edge 32, Type (0, 1), BuildingBlock: EZIPEK_clean_linker_0, # of connection points: 2
#     Edge 33, Type (0, 1), BuildingBlock: EZIPEK_clean_linker_0, # of connection points: 2
#     Edge 34, Type (0, 1), BuildingBlock: EZIPEK_clean_linker_0, # of connection points: 2
#     Edge 35, Type (0, 1), BuildingBlock: EZIPEK_clean_linker_0, # of connection points: 2
# Relax obj value: 0.020
# Max RMSD: 0.063
# Mean RMSD: 0.028
data_MOF--net-pry--node1-WUSLED_clean_sbu_0--node2-MIDCAF_clean_sbu_0--edge1-EZIPEK_clean_linker_0
_symmetry_space_group_name_H-M    P1
_symmetry_Int_Tables_number       1
_symmetry_cell_setting            triclinic
loop_
_symmetry_equiv_pos_as_xyz
'x, y, z'
_cell_length_a     36.702133
_cell_length_b     36.744396
_cell_length_c     36.763436
_cell_angle_alpha  89.501342
_cell_angle_beta   90.115393
_cell_angle_gamma 90.627741
loop_
_atom_site_label
_atom_site_type_symbol
_atom_site_fract_x
_atom_site_fract_y
_atom_site_fract_z
_atom_type_partial_charge
C0 C 0.21069 0.31351 0.16075 0.0
C1 C 0.17792 0.32237 0.17807 0.0
C2 C 0.16791 0.37122 0.13403 0.0
C3 C 0.15667 0.35108 0.16478 0.0
C4 C 0.20115 0.36296 0.11739 0.0
C5 C 0.22237 0.33432 0.13068 0.0
U6 U 0.23088 0.23171 0.22406 0.0
O7 O 0.24692 0.17627 0.20947 0.0
O8 O 0.28416 0.21029 0.24164 0.0
C9 C 0.27968 0.17978 0.22366 0.0
C10 C 0.2321 0.28166 0.17225 0.0
C11 C 0.31058 0.16835 0.20066 0.0
C12 C 0.3365 0.15402 0.14157 0.0
C13 C 0.30773 0.16719 0.16251 0.0
C14 C 0.37193 0.14398 0.19632 0.0
C15 C 0.3687 0.14198 0.15831 0.0
C16 C 0.34304 0.15689 0.21729 0.0
C17 C 0.16836 0.21172 0.30664 0.0
C18 C 0.16904 0.15615 0.34319 0.0
C19 C 0.12651 0.20391 0.3575 0.0
C20 C 0.14042 0.22502 0.32872 0.0
C21 C 0.14037 0.16912 0.36464 0.0
C22 C 0.18296 0.17731 0.31434 0.0
C23 C 0.18032 0.23338 0.27475 0.0
O24 O 0.25038 0.28477 0.20286 0.0
O25 O 0.2156 0.24993 0.16902 0.0
O26 O 0.17559 0.21789 0.24298 0.0
O27 O 0.21189 0.25038 0.2776 0.0
H28 H 0.16841 0.30656 0.20125 0.0
H29 H 0.13096 0.35691 0.17778 0.0
H30 H 0.21012 0.37803 0.09352 0.0
H31 H 0.24753 0.32783 0.11693 0.0
H32 H 0.33356 0.15289 0.11227 0.0
H33 H 0.28312 0.17599 0.14889 0.0
H34 H 0.39661 0.13502 0.20972 0.0
H35 H 0.34588 0.1575 0.24662 0.0
H36 H 0.1799 0.12927 0.34816 0.0
H37 H 0.10427 0.21426 0.37358 0.0
H38 H 0.12875 0.25145 0.32316 0.0
H39 H 0.20448 0.16654 0.29757 0.0
C40 C 0.24648 0.85486 0.66784 0.0
C41 C 0.24901 0.87749 0.63688 0.0
C42 C 0.18565 0.89477 0.64328 0.0
C43 C 0.21897 0.89732 0.62484 0.0
C44 C 0.18303 0.87293 0.67472 0.0
C45 C 0.2132 0.85305 0.68689 0.0
U46 U 0.32906 0.8265 0.72739 0.0
O47 O 0.34912 0.77179 0.74117 0.0
O48 O 0.38346 0.80954 0.7094 0.0
C49 C 0.37915 0.7762 0.72205 0.0
C50 C 0.27775 0.8313 0.6776 0.0
C51 C 0.38949 0.74643 0.69713 0.0
C52 C 0.43542 0.71949 0.65821 0.0
C53 C 0.42345 0.74829 0.67958 0.0
C54 C 0.3795 0.68626 0.67094 0.0
C55 C 0.4138 0.68809 0.6541 0.0
C56 C 0.36741 0.7152 0.69229 0.0
C57 C 0.35329 0.88433 0.81209 0.0
C58 C 0.40273 0.87338 0.855 0.0
C59 C 0.36973 0.9301 0.85672 0.0
C60 C 0.34776 0.91837 0.82795 0.0
C61 C 0.39769 0.90798 0.87017 0.0
C62 C 0.38072 0.86165 0.82596 0.0
C63 C 0.33079 0.87412 0.78043 0.0
O64 O 0.31034 0.84605 0.67389 0.0
O65 O 0.27473 0.81064 0.70688 0.0
O66 O 0.31292 0.84296 0.78252 0.0
O67 O 0.34569 0.88005 0.74844 0.0
H68 H 0.27404 0.87914 0.62135 0.0
H69 H 0.22142 0.91389 0.60042 0.0
H70 H 0.15742 0.87054 0.68918 0.0
H71 H 0.21016 0.83568 0.71066 0.0
H72 H 0.46203 0.72131 0.64557 0.0
H73 H 0.44117 0.77179 0.68303 0.0
H74 H 0.36252 0.66215 0.66816 0.0
H75 H 0.34115 0.71278 0.70552 0.0
H76 H 0.42424 0.85598 0.865 0.0
H77 H 0.36546 0.95687 0.86798 0.0
H78 H 0.32677 0.93625 0.81762 0.0
H79 H 0.38545 0.83529 0.81399 0.0
C80 C 0.67099 0.34439 0.73999 0.0
C81 C 0.6879 0.37742 0.7299 0.0
C82 C 0.6424 0.38652 0.68254 0.0
C83 C 0.67369 0.39834 0.70128 0.0
C84 C 0.62622 0.35297 0.69191 0.0
C85 C 0.64046 0.33205 0.72046 0.0
U86 U 0.73278 0.33107 0.82347 0.0
O87 O 0.71736 0.31507 0.87912 0.0
O88 O 0.75393 0.28047 0.84792 0.0
C89 C 0.73395 0.28361 0.8774 0.0
C90 C 0.68308 0.32384 0.77229 0.0
C91 C 0.71221 0.25119 0.88918 0.0
C92 C 0.69926 0.18585 0.88783 0.0
C93 C 0.7196 0.21618 0.87584 0.0
C94 C 0.66421 0.22468 0.92711 0.0
C95 C 0.67125 0.18999 0.91336 0.0
C96 C 0.68452 0.25491 0.91528 0.0
C97 C 0.80722 0.40309 0.84481 0.0
C98 C 0.859 0.39794 0.88607 0.0
C99 C 0.83519 0.45737 0.8707 0.0
C100 C 0.80907 0.44108 0.8482 0.0
C101 C 0.86012 0.43595 0.89006 0.0
C102 C 0.83259 0.38157 0.86371 0.0
C103 C 0.7781 0.38701 0.822 0.0
O104 O 0.71548 0.30905 0.77046 0.0
O105 O 0.67704 0.33974 0.80353 0.0
O106 O 0.74506 0.38848 0.83555 0.0
O107 O 0.78499 0.35582 0.80625 0.0
H108 H 0.71138 0.38745 0.74482 0.0
H109 H 0.6863 0.42433 0.69458 0.0
H110 H 0.6019 0.34362 0.67792 0.0
H111 H 0.62697 0.30672 0.728 0.0
H112 H 0.70524 0.15921 0.87713 0.0
H113 H 0.74109 0.21217 0.85619 0.0
H114 H 0.64285 0.22835 0.947 0.0
H115 H 0.67851 0.28126 0.92666 0.0
H116 H 0.87785 0.38098 0.90107 0.0
H117 H 0.83547 0.48669 0.87363 0.0
H118 H 0.78981 0.45819 0.83387 0.0
H119 H 0.83165 0.35218 0.86166 0.0
C120 C 0.74818 0.6675 0.33761 0.0
C121 C 0.72694 0.69013 0.35954 0.0
C122 C 0.69409 0.63714 0.38334 0.0
C123 C 0.69984 0.67503 0.38212 0.0
C124 C 0.71469 0.6148 0.36067 0.0
C125 C 0.74145 0.62987 0.33796 0.0
U126 U 0.82462 0.73734 0.31785 0.0
O127 O 0.8815 0.72743 0.30257 0.0
O128 O 0.84594 0.75758 0.26533 0.0
C129 C 0.87779 0.7422 0.27013 0.0
C130 C 0.7788 0.68191 0.31571 0.0
C131 C 0.89112 0.72004 0.23982 0.0
C132 C 0.88867 0.6649 0.20372 0.0
C133 C 0.87398 0.68698 0.23077 0.0
C134 C 0.93729 0.70907 0.19393 0.0
C135 C 0.9207 0.67558 0.18549 0.0
C136 C 0.92258 0.73113 0.22094 0.0
C137 C 0.8395 0.81835 0.38165 0.0
C138 C 0.89271 0.8582 0.378 0.0
C139 C 0.84961 0.86492 0.4273 0.0
C140 C 0.82838 0.83652 0.41309 0.0
C141 C 0.88222 0.87551 0.41019 0.0
C142 C 0.87149 0.82974 0.36381 0.0
C143 C 0.81893 0.78604 0.3695 0.0
O144 O 0.77342 0.71265 0.29798 0.0
O145 O 0.81084 0.68048 0.33161 0.0
O146 O 0.83588 0.75498 0.37375 0.0
O147 O 0.80223 0.78885 0.33794 0.0
H148 H 0.73187 0.71924 0.35984 0.0
H149 H 0.68433 0.69264 0.39961 0.0
H150 H 0.71076 0.58554 0.36136 0.0
H151 H 0.7576 0.61198 0.32133 0.0
H152 H 0.87565 0.63905 0.19768 0.0
H153 H 0.84975 0.67792 0.24516 0.0
H154 H 0.96209 0.71763 0.18025 0.0
H155 H 0.93624 0.75649 0.22766 0.0
H156 H 0.91801 0.86581 0.36469 0.0
H157 H 0.84133 0.87775 0.45234 0.0
H158 H 0.80386 0.82796 0.42729 0.0
H159 H 0.88058 0.81589 0.33962 0.0
C160 C 0.89448 0.80965 0.94802 0.0
C161 C 0.91919 0.79046 0.92651 0.0
C162 C 0.9265 0.74539 0.97484 0.0
C163 C 0.93502 0.75848 0.93983 0.0
C164 C 0.90193 0.76466 0.9964 0.0
C165 C 0.88602 0.79658 0.98304 0.0
U166 U 0.88751 0.89006 0.88081 0.0
O167 O 0.83901 0.91465 0.85598 0.0
O168 O 0.87401 0.94728 0.89179 0.0
C169 C 0.84322 0.94544 0.87354 0.0
C170 C 0.87721 0.84316 0.93442 0.0
C171 C 0.81067 0.95858 0.89272 0.0
C172 C 0.7573 0.94732 0.93048 0.0
C173 C 0.78864 0.93465 0.91328 0.0
C174 C 0.7699 1.00816 0.90746 0.0
C175 C 0.74767 0.98411 0.92759 0.0
C176 C 0.80117 0.99543 0.89007 0.0
C177 C 0.95773 0.89855 0.80216 0.0
C178 C 0.98622 0.95015 0.77101 0.0
C179 C 0.98098 0.89261 0.74052 0.0
C180 C 0.96345 0.87768 0.77107 0.0
C181 C 0.99532 0.92859 0.74055 0.0
C182 C 0.96847 0.93526 0.8015 0.0
C183 C 0.94153 0.88104 0.83493 0.0
O184 O 0.89665 0.87319 0.93774 0.0
O185 O 0.86076 0.84069 0.90272 0.0
O186 O 0.90927 0.86571 0.8308 0.0
O187 O 0.94504 0.8984 0.86591 0.0
H188 H 0.92614 0.80017 0.89947 0.0
H189 H 0.95396 0.74393 0.92287 0.0
H190 H 0.89508 0.75493 0.02346 0.0
H191 H 0.86704 0.81106 1.00002 0.0
H192 H 0.74052 0.92845 0.94606 0.0
H193 H 0.79557 0.90615 0.91585 0.0
H194 H 0.76291 0.03665 0.90507 0.0
H195 H 0.81785 0.01432 0.8744 0.0
H196 H 0.99197 0.97901 0.77158 0.0
H197 H 0.98205 0.87543 0.71703 0.0
H198 H 0.95419 0.84959 0.7703 0.0
H199 H 0.96312 0.95262 0.8245 0.0
C200 C 0.60202 0.15993 0.30981 0.0
C201 C 0.60218 0.18097 0.27771 0.0
C202 C 0.5838 0.12823 0.24242 0.0
C203 C 0.59335 0.16523 0.24431 0.0
C204 C 0.58215 0.10738 0.27458 0.0
C205 C 0.59135 0.12305 0.30803 0.0
U206 U 0.66598 0.16619 0.39222 0.0
O207 O 0.6921 0.21414 0.41687 0.0
O208 O 0.65474 0.18014 0.44931 0.0
C209 C 0.67413 0.21041 0.4476 0.0
C210 C 0.61386 0.17693 0.34434 0.0
C211 C 0.6559 0.24344 0.46042 0.0
C212 C 0.61559 0.2945 0.44969 0.0
C213 C 0.6317 0.26242 0.43772 0.0
C214 C 0.64713 0.28878 0.50741 0.0
C215 C 0.62328 0.30795 0.48454 0.0
C216 C 0.66337 0.25672 0.49538 0.0
C217 C 0.74362 0.09705 0.40039 0.0
C218 C 0.78664 0.09562 0.45069 0.0
C219 C 0.79719 0.05875 0.39744 0.0
C220 C 0.76498 0.07177 0.38185 0.0
C221 C 0.80832 0.0708 0.43186 0.0
C222 C 0.7545 0.10874 0.43504 0.0
C223 C 0.711 0.1119 0.38254 0.0
O224 O 0.6092 0.15776 0.37441 0.0
O225 O 0.64549 0.19403 0.34316 0.0
O226 O 0.71538 0.14409 0.36725 0.0
O227 O 0.68027 0.10867 0.40068 0.0
H228 H 0.61 0.20948 0.27835 0.0
H229 H 0.59485 0.1817 0.21976 0.0
H230 H 0.57498 0.07873 0.27357 0.0
H231 H 0.59082 0.10609 0.33226 0.0
H232 H 0.59725 0.30899 0.4317 0.0
H233 H 0.62558 0.25259 0.41066 0.0
H234 H 0.65338 0.29883 0.53435 0.0
H235 H 0.682 0.24244 0.51324 0.0
H236 H 0.79508 0.10543 0.47714 0.0
H237 H 0.81377 0.03985 0.38245 0.0
H238 H 0.75705 0.06258 0.35502 0.0
H239 H 0.73847 0.12841 0.44964 0.0
C240 C 0.30506 0.60643 0.16409 0.0
C241 C 0.29667 0.61569 0.12791 0.0
C242 C 0.23912 0.58252 0.13259 0.0
C243 C 0.26394 0.60371 0.11225 0.0
C244 C 0.2476 0.57304 0.16865 0.0
C245 C 0.28045 0.58486 0.18425 0.0
U246 U 0.38556 0.67348 0.17055 0.0
O247 O 0.4101 0.69919 0.21863 0.0
O248 O 0.44296 0.66328 0.18481 0.0
C249 C 0.44103 0.68184 0.21514 0.0
C250 C 0.33878 0.6198 0.18148 0.0
C251 C 0.4545 0.66305 0.24806 0.0
C252 C 0.44359 0.62783 0.30335 0.0
C253 C 0.43034 0.64553 0.27228 0.0
C254 C 0.50537 0.64442 0.28627 0.0
C255 C 0.48116 0.62713 0.31051 0.0
C256 C 0.49208 0.66239 0.2553 0.0
C257 C 0.39553 0.75173 0.10176 0.0
C258 C 0.4368 0.8031 0.11065 0.0
C259 C 0.406 0.79557 0.05276 0.0
C260 C 0.38886 0.76392 0.06609 0.0
C261 C 0.42991 0.81544 0.07507 0.0
C262 C 0.41982 0.7714 0.12389 0.0
C263 C 0.37655 0.71897 0.11574 0.0
O264 O 0.36886 0.61642 0.16248 0.0
O265 O 0.33636 0.65153 0.19745 0.0
O266 O 0.36049 0.72257 0.14742 0.0
O267 O 0.39437 0.68829 0.11294 0.0
H268 H 0.3152 0.63252 0.11198 0.0
H269 H 0.25759 0.61156 0.08451 0.0
H270 H 0.22858 0.55699 0.18478 0.0
H271 H 0.28642 0.57757 0.21224 0.0
H272 H 0.4246 0.61431 0.32164 0.0
H273 H 0.40127 0.64542 0.2671 0.0
H274 H 0.53445 0.64386 0.29128 0.0
H275 H 0.51114 0.67563 0.23687 0.0
H276 H 0.45527 0.81809 0.12816 0.0
H277 H 0.40045 0.80472 0.02523 0.0
H278 H 0.37023 0.74907 0.04862 0.0
H279 H 0.42542 0.76236 0.15145 0.0
C280 C 0.11438 0.30533 0.63523 0.0
C281 C 0.13107 0.30344 0.6009 0.0
C282 C 0.10109 0.24513 0.59012 0.0
C283 C 0.12438 0.27345 0.57837 0.0
C284 C 0.08462 0.24715 0.62443 0.0
C285 C 0.0912 0.27702 0.64678 0.0
U286 U 0.1667 0.39123 0.66503 0.0
O287 O 0.14553 0.44151 0.6892 0.0
O288 O 0.18411 0.40756 0.7197 0.0
C289 C 0.16205 0.4355 0.72041 0.0
C290 C 0.12085 0.33616 0.65974 0.0
C291 C 0.13962 0.43909 0.75344 0.0
C292 C 0.11268 0.47862 0.79844 0.0
C293 C 0.13028 0.47399 0.76515 0.0
C294 C 0.11209 0.41331 0.80826 0.0
C295 C 0.1042 0.44841 0.82056 0.0
C296 C 0.12955 0.40864 0.77479 0.0
C297 C 0.24879 0.42585 0.60966 0.0
C298 C 0.28895 0.47527 0.62889 0.0
C299 C 0.30172 0.44243 0.57351 0.0
C300 C 0.27069 0.4208 0.57902 0.0
C301 C 0.31137 0.46944 0.5986 0.0
C302 C 0.25781 0.45345 0.63447 0.0
C303 C 0.21786 0.40084 0.61594 0.0
O304 O 0.15106 0.33484 0.67891 0.0
O305 O 0.11424 0.36868 0.64623 0.0
O306 O 0.1852 0.4149 0.6129 0.0
O307 O 0.22118 0.37892 0.64415 0.0
H308 H 0.14919 0.32505 0.59164 0.0
H309 H 0.13732 0.27223 0.55197 0.0
H310 H 0.06661 0.22552 0.63389 0.0
H311 H 0.07819 0.27799 0.67319 0.0
H312 H 0.10708 0.5059 0.80771 0.0
H313 H 0.13779 0.49779 0.74913 0.0
H314 H 0.10602 0.38974 0.82517 0.0
H315 H 0.1363 0.3814 0.76625 0.0
H316 H 0.29603 0.49604 0.64848 0.0
H317 H 0.31869 0.43761 0.54999 0.0
H318 H 0.26416 0.39961 0.55967 0.0
H319 H 0.24116 0.45764 0.65834 0.0
Zn320 Zn 0.98205 0.06836 0.57114 0.0
Zn321 Zn 0.06656 0.98876 0.48162 0.0
Zn322 Zn 0.02525 0.02985 0.52594 0.0
C323 C 0.07981 0.06329 0.4653 0.0
C324 C 0.99239 0.9712 0.46978 0.0
O325 O 0.02996 1.00739 0.5818 0.0
O326 O 0.98612 0.03365 0.61322 0.0
C327 C 0.0405 0.11312 0.54496 0.0
O328 O 0.06075 0.06768 0.49432 0.0
O329 O 0.08466 0.03182 0.4527 0.0
O330 O 0.02399 0.95959 0.46331 0.0
O331 O 0.98792 0.99906 0.49027 0.0
O332 O 0.01565 0.11157 0.56869 0.0
O333 O 0.04649 0.08594 0.52402 0.0
O334 O 0.96882 0.0277 0.5049 0.0
O335 O 0.93865 0.06724 0.5383 0.0
C336 C 0.9398 0.04586 0.51164 0.0
O337 O 0.05674 0.99185 0.56028 0.0
O338 O 0.09626 0.96756 0.52227 0.0
C339 C 0.01114 1.01039 0.61119 0.0
C340 C 0.08452 0.97164 0.55427 0.0
Zn341 Zn 0.49384 0.0694 0.98548 0.0
Zn342 Zn 0.57368 0.98662 0.06721 0.0
Zn343 Zn 0.53399 0.02938 0.02796 0.0
C344 C 0.61664 1.00752 1.0084 0.0
C345 C 0.51318 0.94572 0.04942 0.0
O346 O 0.50393 0.06601 0.06408 0.0
O347 O 0.46102 0.08456 0.02608 0.0
C348 C 0.56628 0.08811 0.97164 0.0
O349 O 0.58962 0.02932 1.00421 0.0
O350 O 0.61574 0.9833 0.03298 0.0
O351 O 0.53921 0.94466 0.07187 0.0
O352 O 0.50879 0.97392 0.02878 0.0
O353 O 0.53495 0.10173 0.96844 0.0
O354 O 0.57054 0.05813 0.9895 0.0
O355 O 0.49518 0.99272 0.99895 0.0
O356 O 0.4772 0.02857 0.95383 0.0
C357 C 0.47833 0.99738 0.96845 0.0
O358 O 0.53725 0.05759 0.08183 0.0
O359 O 0.579 0.02287 0.10685 0.0
C360 C 0.47321 0.08183 0.05814 0.0
C361 C 0.56126 0.05218 0.10699 0.0
Zn362 Zn 0.56969 0.56524 0.56252 0.0
Zn363 Zn 0.48665 0.48253 0.48293 0.0
Zn364 Zn 0.5297 0.52441 0.52154 0.0
C365 C 0.54437 0.43971 0.50531 0.0
C366 C 0.50869 0.54239 0.43962 0.0
O367 O 0.49434 0.55775 0.55755 0.0
O368 O 0.53195 0.59912 0.58045 0.0
C369 C 0.58145 0.49303 0.58402 0.0
O370 O 0.54973 0.46781 0.52547 0.0
O371 O 0.51962 0.43972 0.48141 0.0
O372 O 0.48461 0.51762 0.44137 0.0
O373 O 0.53182 0.5465 0.46579 0.0
O374 O 0.58544 0.52497 0.59593 0.0
O375 O 0.56386 0.4874 0.5542 0.0
O376 O 0.56549 0.5554 0.48264 0.0
O377 O 0.60333 0.57951 0.52224 0.0
C378 C 0.59623 0.57129 0.48965 0.0
O379 O 0.47375 0.52954 0.54327 0.0
O380 O 0.44561 0.48248 0.51795 0.0
C381 C 0.49999 0.58683 0.57627 0.0
C382 C 0.44574 0.50828 0.54039 0.0
Zn383 Zn 0.06743 0.57662 0.98942 0.0
Zn384 Zn 0.99028 0.49511 0.06959 0.0
Zn385 Zn 0.02859 0.53477 0.02743 0.0
C386 C 0.0607 0.47128 0.07774 0.0
C387 C 0.96092 0.49427 0.99689 0.0
O388 O 1.00517 0.59027 0.02796 0.0
O389 O 0.03075 0.61501 0.97915 0.0
C390 C 0.1082 0.55908 0.05018 0.0
O391 O 0.06583 0.50261 0.06244 0.0
O392 O 0.02881 0.45826 0.08055 0.0
O393 O 0.95344 0.48781 0.02987 0.0
O394 O 0.99368 0.50468 0.98903 0.0
O395 O 0.10508 0.58532 0.028 0.0
O396 O 0.08375 0.53367 0.05118 0.0
O397 O 0.02934 0.50575 0.97454 0.0
O398 O 0.07709 0.53659 0.95454 0.0
C399 C 0.05655 0.50881 0.95254 0.0
O400 O 0.99401 0.57161 0.05869 0.0
O401 O 0.98031 0.53526 0.10502 0.0
C402 C 1.00726 0.61613 1.00412 0.0
C403 C 0.9807 0.56672 0.09077 0.0
C404 C 0.09071 0.12525 0.3834 0.0
C405 C 0.12282 0.14506 0.39258 0.0
C406 C 0.12433 0.11465 0.45248 0.0
C407 C 0.09221 0.09503 0.44315 0.0
N408 N 0.0397 0.08814 0.40438 0.0
N409 N 0.16624 0.1644 0.43785 0.0
C410 C 0.07379 0.10246 0.41002 0.0
C411 C 0.13837 0.1416 0.42787 0.0
N412 N 0.07719 0.12704 0.34874 0.0
N413 N 0.14209 0.10645 0.48416 0.0
H414 H 0.17737 0.18396 0.42025 0.0
H415 H 0.17653 0.16588 0.4642 0.0
H416 H 0.13191 0.08755 0.50299 0.0
H417 H 0.16766 0.11684 0.49103 0.0
H418 H 0.05653 0.11 0.33915 0.0
H419 H 0.08837 0.14381 0.32853 0.0
H420 H 0.02315 0.09541 0.38253 0.0
H421 H 0.02646 0.0715 0.42347 0.0
C422 C 0.45718 0.93734 0.88855 0.0
C423 C 0.42265 0.92274 0.89866 0.0
C424 C 0.42825 0.95087 0.95886 0.0
C425 C 0.4622 0.9663 0.94823 0.0
N426 N 0.51377 0.96593 0.90803 0.0
N427 N 0.37978 0.9072 0.94588 0.0
C428 C 0.47826 0.95659 0.91471 0.0
C429 C 0.40975 0.92664 0.9348 0.0
N430 N 0.46888 0.93481 0.85338 0.0
N431 N 0.41274 0.96108 0.99089 0.0
H432 H 0.36585 0.88936 0.92867 0.0
H433 H 0.37075 0.90618 0.9727 0.0
H434 H 0.42576 0.97855 1.00907 0.0
H435 H 0.38631 0.95394 0.99857 0.0
H436 H 0.4916 0.94875 0.84331 0.0
H437 H 0.45456 0.9206 0.83342 0.0
H438 H 0.52835 0.95677 0.8857 0.0
H439 H 0.52969 0.98006 0.92685 0.0
C440 C 0.59575 0.43366 0.66731 0.0
C441 C 0.62449 0.41103 0.65568 0.0
C442 C 0.62344 0.44018 0.59531 0.0
C443 C 0.59415 0.46216 0.60679 0.0
N444 N 0.54642 0.47361 0.65002 0.0
N445 N 0.66064 0.38703 0.60701 0.0
C446 C 0.57846 0.45695 0.64171 0.0
C447 C 0.6367 0.41244 0.61907 0.0
N448 N 0.5858 0.43387 0.70314 0.0
N449 N 0.63978 0.44706 0.56256 0.0
H450 H 0.67126 0.36681 0.62395 0.0
H451 H 0.66762 0.3841 0.57976 0.0
H452 H 0.63082 0.4672 0.54461 0.0
H453 H 0.66362 0.43457 0.55416 0.0
H454 H 0.56817 0.45288 0.71406 0.0
H455 H 0.59719 0.41669 0.72272 0.0
H456 H 0.53156 0.46797 0.67354 0.0
H457 H 0.53276 0.49052 0.63172 0.0
C458 C 0.96798 0.62887 0.17131 0.0
C459 C 0.93827 0.65039 0.15947 0.0
C460 C 0.9376 0.61878 0.10085 0.0
C461 C 0.96794 0.59799 0.11245 0.0
N462 N 0.01804 0.59016 0.1542 0.0
N463 N 0.89994 0.67176 0.11069 0.0
C464 C 0.98497 0.60517 0.14635 0.0
C465 C 0.92473 0.64724 0.12342 0.0
N466 N 0.97914 0.63003 0.20679 0.0
N467 N 0.9199 0.61015 0.06927 0.0
H468 H 0.88969 0.69257 0.12672 0.0
H469 H 0.89194 0.67343 0.08354 0.0
H470 H 0.92831 0.58939 0.05218 0.0
H471 H 0.89539 0.62176 0.06123 0.0
H472 H 0.99774 0.61187 0.21798 0.0
H473 H 0.96777 0.64732 0.22594 0.0
H474 H 0.03362 0.59732 0.17679 0.0
H475 H 0.03171 0.57329 0.13619 0.0
C476 C 0.40613 0.08917 0.13646 0.0
C477 C 0.39886 0.12708 0.13583 0.0
C478 C 0.44376 0.13593 0.08699 0.0
C479 C 0.45156 0.0981 0.08809 0.0
N480 N 0.44638 0.0403 0.11943 0.0
N481 N 0.41643 0.18762 0.11684 0.0
C482 C 0.43493 0.07529 0.11482 0.0
C483 C 0.4194 0.15079 0.11293 0.0
N484 N 0.38414 0.06607 0.15611 0.0
N485 N 0.4598 0.15771 0.06114 0.0
H486 H 0.39914 0.19938 0.1358 0.0
H487 H 0.43328 0.20651 0.10371 0.0
H488 H 0.48046 0.14873 0.04407 0.0
H489 H 0.45176 0.18428 0.05563 0.0
H490 H 0.3852 0.03784 0.15431 0.0
H491 H 0.3626 0.075 0.17207 0.0
H492 H 0.43807 0.0236 0.14096 0.0
H493 H 0.4667 0.02882 0.10368 0.0
C494 C 0.14863 0.95113 0.63322 0.0
C495 C 0.15321 0.9133 0.62766 0.0
C496 C 0.1026 0.91336 0.58401 0.0
C497 C 0.10293 0.9519 0.58438 0.0
N498 N 0.12487 1.00824 0.6099 0.0
N499 N 0.13465 0.85768 0.59823 0.0
C500 C 0.12498 0.97105 0.60975 0.0
C501 C 0.12973 0.89405 0.60367 0.0
N502 N 0.16705 0.96782 0.66089 0.0
N503 N 0.07604 0.89537 0.56497 0.0
H504 H 0.15353 0.84236 0.61286 0.0
H505 H 0.12152 0.84301 0.57785 0.0
H506 H 0.05573 0.90901 0.55055 0.0
H507 H 0.07196 0.86731 0.56629 0.0
H508 H 0.16265 0.99457 0.66868 0.0
H509 H 0.18465 0.95376 0.67821 0.0
H510 H 0.14328 0.02406 0.62463 0.0
H511 H 0.10731 0.02359 0.59375 0.0
C512 C 0.8754 0.45362 0.95409 0.0
C513 C 0.88515 0.45353 0.91681 0.0
C514 C 0.93837 0.49245 0.93055 0.0
C515 C 0.93201 0.48692 0.96832 0.0
N516 N 0.88213 0.48472 0.01116 0.0
N517 N 0.92588 0.47267 0.86881 0.0
C518 C 0.89697 0.47379 0.97903 0.0
C519 C 0.91646 0.47324 0.90474 0.0
N520 N 0.84545 0.43452 0.96588 0.0
N521 N 0.96262 0.51864 0.91933 0.0
H522 H 0.91046 0.45895 0.84926 0.0
H523 H 0.95024 0.48343 0.85881 0.0
H524 H 0.97475 0.53687 0.93731 0.0
H525 H 0.96677 0.52582 0.89218 0.0
H526 H 0.83992 0.42989 0.99336 0.0
H527 H 0.82746 0.42114 0.94843 0.0
H528 H 0.85562 0.47824 0.01913 0.0
H529 H 0.8937 0.50544 0.02674 0.0
C530 C 0.63586 0.60359 0.39861 0.0
C531 C 0.66897 0.61993 0.4104 0.0
C532 C 0.65937 0.59364 0.47125 0.0
C533 C 0.62379 0.58187 0.46073 0.0
N534 N 0.59339 0.55445 0.40973 0.0
N535 N 0.71239 0.63142 0.45849 0.0
C536 C 0.61568 0.58101 0.42305 0.0
C537 C 0.68074 0.61527 0.44692 0.0
N538 N 0.6233 0.6099 0.36417 0.0
N539 N 0.6747 0.57995 0.50235 0.0
H540 H 0.73017 0.64546 0.44119 0.0
H541 H 0.71978 0.63304 0.48581 0.0
H542 H 0.66262 0.55883 0.51733 0.0
H543 H 0.70155 0.58496 0.51015 0.0
H544 H 0.59744 0.6016 0.3556 0.0
H545 H 0.63737 0.62624 0.34541 0.0
H546 H 0.58942 0.55048 0.38196 0.0
H547 H 0.58491 0.53247 0.42578 0.0
C548 C 0.14239 0.43473 0.13098 0.0
C549 C 0.14328 0.39871 0.11732 0.0
C550 C 0.09702 0.41463 0.07183 0.0
C551 C 0.09198 0.44852 0.08917 0.0
N552 N 0.10852 0.4909 0.13625 0.0
N553 N 0.11967 0.35311 0.07642 0.0
C554 C 0.11462 0.45886 0.11877 0.0
C555 C 0.12026 0.38838 0.08802 0.0
N556 N 0.16837 0.44592 0.15522 0.0
N557 N 0.08037 0.40802 0.03919 0.0
H558 H 0.13675 0.33313 0.08701 0.0
H559 H 0.10041 0.34297 0.05819 0.0
H560 H 0.06386 0.42705 0.02611 0.0
H561 H 0.08584 0.3854 0.02332 0.0
H562 H 0.17171 0.47286 0.16325 0.0
H563 H 0.18864 0.4287 0.16502 0.0
H564 H 0.1215 0.49831 0.16031 0.0
H565 H 0.0887 0.50931 0.12787 0.0
C566 C 0.62049 0.14425 0.90369 0.0
C567 C 0.64881 0.15831 0.92603 0.0
C568 C 0.62624 0.12187 0.9777 0.0
C569 C 0.5979 0.10778 0.95529 0.0
N570 N 0.57445 0.09718 0.89508 0.0
N571 N 0.68467 0.15332 0.98071 0.0
C572 C 0.59715 0.1163 0.91761 0.0
C573 C 0.65369 0.1446 0.96189 0.0
N574 N 0.6147 0.1588 0.86985 0.0
N575 N 0.62569 0.11566 0.01443 0.0
H576 H 0.70517 0.17 0.96982 0.0
H577 H 0.69163 0.14131 1.0055 0.0
H578 H 0.60593 0.09967 0.02738 0.0
H579 H 0.64324 0.12863 0.03257 0.0
H580 H 0.5919 0.15267 0.85406 0.0
H581 H 0.63137 0.17902 0.85848 0.0
H582 H 0.57501 0.09968 0.86685 0.0
H583 H 0.5576 0.07606 0.90448 0.0
C584 C 0.93208 0.88862 0.45505 0.0
C585 C 0.90756 0.90166 0.42816 0.0
C586 C 0.93647 0.96222 0.43061 0.0
C587 C 0.96062 0.94913 0.45778 0.0
N588 N 0.97501 0.90355 0.50295 0.0
N589 N 0.88079 0.95215 0.39603 0.0
C590 C 0.95641 0.91341 0.47218 0.0
C591 C 0.90793 0.93898 0.41778 0.0
N592 N 0.93301 0.85228 0.46336 0.0
N593 N 0.94186 0.99615 0.41593 0.0
H594 H 0.85992 0.93562 0.38581 0.0
H595 H 0.87722 0.97974 0.39058 0.0
H596 H 0.96232 0.01384 0.42492 0.0
H597 H 0.92756 1.006 0.3935 0.0
H598 H 0.95323 0.84057 0.47939 0.0
H599 H 0.91508 0.83321 0.45214 0.0
H600 H 0.97034 0.8792 0.51698 0.0
H601 H 0.99258 0.92128 0.51665 0.0
C602 C 0.44821 0.62927 0.65298 0.0
C603 C 0.42858 0.65653 0.63386 0.0
C604 C 0.44854 0.63143 0.57553 0.0
C605 C 0.46976 0.60562 0.59481 0.0
N606 N 0.48192 0.57276 0.65017 0.0
N607 N 0.40267 0.67872 0.57785 0.0
C608 C 0.46686 0.60218 0.63307 0.0
C609 C 0.42623 0.65588 0.59531 0.0
N610 N 0.4505 0.63041 0.69007 0.0
N611 N 0.45112 0.63353 0.53849 0.0
H612 H 0.3863 0.69697 0.59178 0.0
H613 H 0.39719 0.67779 0.55011 0.0
H614 H 0.46589 0.61487 0.52338 0.0
H615 H 0.43982 0.65422 0.52277 0.0
H616 H 0.46788 0.61414 0.70541 0.0
H617 H 0.43633 0.64914 0.70565 0.0
H618 H 0.47815 0.56658 0.67759 0.0
H619 H 0.49552 0.55253 0.63598 0.0
C620 C 0.03032 0.98088 0.70878 0.0
C621 C 0.0153 0.94519 0.70779 0.0
C622 C 0.01362 0.94855 0.64144 0.0
C623 C 0.01856 0.98687 0.64331 0.0
N624 N 0.03809 0.03909 0.67802 0.0
N625 N 0.02775 0.89221 0.67204 0.0
C626 C 0.02937 1.0029 0.67674 0.0
C627 C 0.01695 0.92749 0.67375 0.0
N628 N 0.0494 0.9917 0.73873 0.0
N629 N 1.00414 0.93218 0.60956 0.0
H630 H 0.03725 0.87851 0.69514 0.0
H631 H 0.03257 0.87905 0.64751 0.0
H632 H 1.00075 0.94644 0.58519 0.0
H633 H 0.9972 0.90462 0.60823 0.0
H634 H 0.0639 0.01618 0.74015 0.0
H635 H 0.05419 0.9738 0.76041 0.0
H636 H 0.04185 0.05308 0.70229 0.0
H637 H 0.04027 0.05537 0.6547 0.0
C638 C 0.60751 0.09035 0.19126 0.0
C639 C 0.57878 0.11096 0.20625 0.0
C640 C 0.5448 0.1052 0.14905 0.0
C641 C 0.56975 0.0788 0.13705 0.0
N642 N 0.6336 0.06428 0.13709 0.0
N643 N 0.51863 0.13628 0.20031 0.0
C644 C 0.60377 0.07629 0.15551 0.0
C645 C 0.54703 0.11797 0.18537 0.0
N646 N 0.63826 0.08387 0.21127 0.0
N647 N 0.5231 0.12248 0.12456 0.0
H648 H 0.51924 0.14623 0.2268 0.0
H649 H 0.49345 0.13871 0.18735 0.0
H650 H 0.52734 0.11996 0.09673 0.0
H651 H 0.50669 0.14433 0.13142 0.0
H652 H 0.65783 0.06501 0.20391 0.0
H653 H 0.64335 0.09573 0.23645 0.0
H654 H 0.65994 0.06459 0.14761 0.0
H655 H 0.63288 0.05889 0.10927 0.0
C656 C 0.50043 0.5687 0.3403 0.0
C657 C 0.49489 0.60673 0.34276 0.0
C658 C 0.50426 0.60397 0.40887 0.0
C659 C 0.50959 0.5658 0.40644 0.0
N660 N 0.52214 0.51359 0.36949 0.0
N661 N 0.49968 0.66203 0.37718 0.0
C662 C 0.51056 0.54874 0.37194 0.0
C663 C 0.4997 0.62485 0.37637 0.0
N664 N 0.49487 0.5515 0.30788 0.0
N665 N 0.50094 0.6199 0.44216 0.0
H666 H 0.49539 0.67805 0.35403 0.0
H667 H 0.5069 0.67704 0.40003 0.0
H668 H 0.50406 0.6058 0.46664 0.0
H669 H 0.49254 0.6466 0.44571 0.0
H670 H 0.49387 0.52333 0.30522 0.0
H671 H 0.48914 0.56543 0.28372 0.0
H672 H 0.52688 0.50057 0.34495 0.0
H673 H 0.53071 0.49855 0.39209 0.0
C674 C 0.11772 0.46431 0.88528 0.0
C675 C 0.0917 0.45424 0.85848 0.0
C676 C 0.0426 0.46205 0.90288 0.0
C677 C 0.06757 0.48017 0.92596 0.0
N678 N 0.12909 0.4808 0.94817 0.0
N679 N 0.02944 0.4408 0.84187 0.0
C680 C 0.10539 0.47568 0.91991 0.0
C681 C 0.05414 0.45171 0.86748 0.0
N682 N 0.15404 0.46455 0.87701 0.0
N683 N 0.00948 0.45149 0.91595 0.0
H684 H 0.0371 0.43225 0.81603 0.0
H685 H 1.00137 0.44207 0.84564 0.0
H686 H 1.00305 0.45407 0.94333 0.0
H687 H 0.99113 0.43537 0.90143 0.0
H688 H 0.17409 0.47595 0.89355 0.0
H689 H 0.1642 0.45453 0.85262 0.0
H690 H 0.15684 0.47545 0.94698 0.0
H691 H 0.11996 0.48673 0.97432 0.0
C692 C 0.71611 1.00943 0.98242 0.0
C693 C 0.71418 0.99713 0.94597 0.0
C694 C 0.64734 0.99885 0.94794 0.0
C695 C 0.64932 1.01007 0.98474 0.0
N696 N 0.68439 0.03579 0.03365 0.0
N697 N 0.67923 0.98852 0.89115 0.0
C698 C 0.68345 0.01851 1.00088 0.0
C699 C 0.68012 0.99475 0.92774 0.0
N700 N 0.74906 0.01109 0.99978 0.0
N701 N 0.61431 0.99008 0.93299 0.0
H702 H 0.70273 0.98468 0.87579 0.0
H703 H 0.65566 0.99007 0.87544 0.0
H704 H 0.5898 0.99352 0.94669 0.0
H705 H 0.61115 0.97754 0.90788 0.0
H706 H 0.75195 0.01562 0.02755 0.0
H707 H 0.77364 1.0059 0.98672 0.0
H708 H 0.70818 0.04579 0.04557 0.0
H709 H 0.66076 0.04326 0.04732 0.0
C710 C 0.8462 0.02865 0.4704 0.0
C711 C 0.84406 0.0597 0.44725 0.0
C712 C 0.90874 0.07325 0.45801 0.0
C713 C 0.90909 0.04602 0.48553 0.0
N714 N 0.88019 0.99608 0.51717 0.0
N715 N 0.87272 0.11158 0.41807 0.0
C716 C 0.87852 0.02283 0.49116 0.0
C717 C 0.87537 0.0817 0.44036 0.0
N718 N 0.81736 1.00487 0.47232 0.0
N719 N 0.9405 0.09079 0.44873 0.0
H720 H 0.84914 0.11784 0.40352 0.0
H721 H 0.89312 0.13129 0.41534 0.0
H722 H 0.96533 0.08527 0.46138 0.0
H723 H 0.94308 0.10839 0.42653 0.0
H724 H 0.81804 0.98003 0.48608 0.0
H725 H 0.79324 1.00884 0.45782 0.0
H726 H 0.8579 0.98052 0.52566 0.0
H727 H 0.90415 0.99021 0.53129 0.0
C728 C 0.19867 0.53964 0.09736 0.0
C729 C 0.20309 0.57269 0.11667 0.0
C730 C 0.14049 0.5896 0.1013 0.0
C731 C 0.13851 0.56001 0.07688 0.0
N732 N 0.1648 0.50608 0.05149 0.0
N733 N 0.17875 0.62955 0.13743 0.0
C734 C 0.16708 0.53436 0.07532 0.0
C735 C 0.17396 0.59761 0.11911 0.0
N736 N 0.22465 0.51341 0.10024 0.0
N737 N 0.10997 0.60948 0.10799 0.0
H738 H 0.20231 0.63574 0.15214 0.0
H739 H 0.16028 0.65084 0.13641 0.0
H740 H 0.08486 0.60378 0.09579 0.0
H741 H 0.10849 0.62918 0.1281 0.0
H742 H 0.22146 0.48724 0.09001 0.0
H743 H 0.24837 0.51688 0.11556 0.0
H744 H 0.18627 0.48874 0.04594 0.0
H745 H 0.1417 0.5009 0.03576 0.0
C746 C 0.34736 0.51773 0.5658 0.0
C747 C 0.34598 0.49014 0.59299 0.0
C748 C 0.41267 0.49075 0.59666 0.0
C749 C 0.4137 0.5118 0.56431 0.0
N750 N 0.38401 0.55005 0.52047 0.0
N751 N 0.37662 0.45194 0.63678 0.0
C752 C 0.38159 0.52743 0.55008 0.0
C753 C 0.37847 0.47782 0.60989 0.0
N754 N 0.31581 0.53393 0.55485 0.0
N755 N 0.44457 0.48253 0.61391 0.0
H756 H 0.35202 0.44257 0.64768 0.0
H757 H 0.39923 0.43862 0.64732 0.0
H758 H 0.46975 0.49177 0.60419 0.0
H759 H 0.44599 0.46959 0.63916 0.0
H760 H 0.31473 0.55577 0.53669 0.0
H761 H 0.29062 0.5271 0.56629 0.0
H762 H 0.36167 0.5597 0.50602 0.0
H763 H 0.4091 0.5587 0.50995 0.0
C764 C 0.92829 0.67713 0.97874 0.0
C765 C 0.94348 0.71134 0.98867 0.0
C766 C 0.99376 0.68046 0.01992 0.0
C767 C 0.98187 0.64713 1.00472 0.0
N768 N 0.93758 0.61223 0.97112 0.0
N769 N 0.99036 0.74641 0.01876 0.0
C770 C 0.94871 0.64493 0.985 0.0
C771 C 0.97588 0.71323 1.0098 0.0
N772 N 0.89427 0.6756 0.96358 0.0
N773 N 0.02206 0.68052 0.04414 0.0
H774 H 0.97752 0.7709 0.01261 0.0
H775 H 0.01597 0.74992 0.03048 0.0
H776 H 0.03534 0.65672 0.05201 0.0
H777 H 0.03023 0.70328 0.05886 0.0
H778 H 0.88007 0.65146 0.95872 0.0
H779 H 0.87887 0.69878 0.95837 0.0
H780 H 0.91615 0.60919 0.95279 0.0
H781 H 0.95087 0.58792 0.97705 0.0
C782 C 0.43196 0.88352 0.06905 0.0
C783 C 0.44791 0.84941 0.06157 0.0
C784 C 0.50098 0.88055 0.03469 0.0
C785 C 0.48783 0.91409 0.04777 0.0
N786 N 0.44128 0.9483 0.07787 0.0
N787 N 0.49741 0.81457 0.03738 0.0
C788 C 0.45311 0.91593 0.0645 0.0
C789 C 0.4822 0.84767 0.04393 0.0
N790 N 0.39657 0.88481 0.08044 0.0
N791 N 0.53125 0.88042 0.0131 0.0
H792 H 0.48389 0.78998 0.04268 0.0
H793 H 0.5241 0.81133 0.02856 0.0
H794 H 0.54515 0.90429 1.00569 0.0
H795 H 0.54063 0.85741 0.99989 0.0
H796 H 0.38209 0.90887 0.08284 0.0
H797 H 0.38059 0.86149 0.08457 0.0
H798 H 0.41849 0.9508 0.09442 0.0
H799 H 0.45538 0.97273 0.07371 0.0
C800 C 0.11289 0.18041 0.57387 0.0
C801 C 0.09329 0.21282 0.56723 0.0
C802 C 0.04891 0.17884 0.53057 0.0
C803 C 0.06395 0.14607 0.5439 0.0
N804 N 0.11158 0.1143 0.57562 0.0
N805 N 0.04468 0.24443 0.53684 0.0
C806 C 0.09696 0.14642 0.56398 0.0
C807 C 0.0623 0.21261 0.54409 0.0
N808 N 0.14631 0.18235 0.5902 0.0
N809 N 0.02155 0.17726 0.50537 0.0
H810 H 0.05472 0.26965 0.54532 0.0
H811 H 0.01963 0.24586 0.52363 0.0
H812 H 0.01184 0.15254 0.49516 0.0
H813 H 0.0108 0.2 0.49234 0.0
H814 H 0.16349 0.1602 0.59335 0.0
H815 H 0.15823 0.20705 0.59786 0.0
H816 H 0.13307 0.11246 0.59402 0.0
H817 H 0.10119 0.08905 0.56765 0.0
C818 C 0.57344 0.34193 0.51626 0.0
C819 C 0.60661 0.34261 0.49645 0.0
C820 C 0.60235 0.40878 0.4886 0.0
C821 C 0.56875 0.40794 0.50763 0.0
N822 N 0.52678 0.37648 0.5472 0.0
N823 N 0.65733 0.37684 0.47188 0.0
C824 C 0.5558 0.3753 0.52403 0.0
C825 C 0.62264 0.3762 0.48535 0.0
N826 N 0.55807 0.3093 0.52623 0.0
N827 N 0.61394 0.44036 0.47215 0.0
H828 H 0.6727 0.35335 0.46881 0.0
H829 H 0.67202 0.40071 0.46669 0.0
H830 H 0.60052 0.46504 0.47508 0.0
H831 H 0.63576 0.44185 0.45413 0.0
H832 H 0.53196 0.30658 0.53699 0.0
H833 H 0.57075 0.28444 0.52188 0.0
H834 H 0.51777 0.35433 0.56271 0.0
H835 H 0.51365 0.40072 0.55336 0.0
loop_
_geom_bond_atom_site_label_1
_geom_bond_atom_site_label_2
_geom_bond_distance
_geom_bond_site_symmetry_2
_ccdc_geom_bond_type
C0 C1 1.264 . S
C0 C5 1.479 . S
C0 C10 1.465 . S
C1 C0 1.264 . S
C1 C3 1.339 . S
C1 H28 0.931 . S
C2 C3 1.395 . S
C2 C4 1.320 . S
C3 C1 1.339 . S
C3 C2 1.395 . S
C3 H29 0.929 . S
C4 C2 1.320 . S
C4 C5 1.405 . S
C4 H30 0.930 . S
C5 C0 1.479 . S
C5 C4 1.405 . S
C5 H31 0.931 . S
U6 O7 2.454 . S
U6 O8 2.458 . S
U6 C9 2.984 . S
U6 C10 2.847 . S
U6 C23 2.882 . S
U6 O24 2.441 . S
U6 O25 2.420 . S
U6 O26 2.455 . S
U6 O27 2.449 . S
O7 U6 2.454 . S
O7 C9 1.353 . S
O8 U6 2.458 . S
O8 C9 1.286 . S
C9 U6 2.984 . S
C9 O7 1.353 . S
C9 O8 1.286 . S
C9 C11 1.363 . S
C10 C0 1.465 . S
C10 U6 2.847 . S
C10 O24 1.249 . S
C10 O25 1.202 . S
C11 C9 1.363 . S
C11 C13 1.408 . S
C11 C16 1.342 . S
C12 C13 1.310 . S
C12 C15 1.461 . S
C12 H32 0.932 . S
C13 C11 1.408 . S
C13 C12 1.310 . S
C13 H33 0.930 . S
C14 C15 1.474 . S
C14 C16 1.285 . S
C14 H34 0.929 . S
C15 C12 1.461 . S
C15 C14 1.474 . S
C16 C11 1.342 . S
C16 C14 1.285 . S
C16 H35 0.930 . S
C17 C20 1.424 . S
C17 C22 1.245 . S
C17 C23 1.428 . S
C18 C21 1.260 . S
C18 C22 1.477 . S
C18 H36 0.932 . S
C19 C20 1.384 . S
C19 C21 1.479 . S
C19 H37 0.929 . S
C20 C17 1.424 . S
C20 C19 1.384 . S
C20 H38 0.928 . S
C21 C18 1.260 . S
C21 C19 1.479 . S
C22 C17 1.245 . S
C22 C18 1.477 . S
C22 H39 0.932 . S
C23 U6 2.882 . S
C23 C17 1.428 . S
C23 O26 1.301 . S
C23 O27 1.282 . S
O24 U6 2.441 . S
O24 C10 1.249 . S
O25 U6 2.420 . S
O25 C10 1.202 . S
O26 U6 2.455 . S
O26 C23 1.301 . S
O27 U6 2.449 . S
O27 C23 1.282 . S
H28 C1 0.931 . S
H29 C3 0.929 . S
H30 C4 0.930 . S
H31 C5 0.931 . S
H32 C12 0.932 . S
H33 C13 0.930 . S
H34 C14 0.929 . S
H35 C16 0.930 . S
H36 C18 0.932 . S
H37 C19 0.929 . S
H38 C20 0.928 . S
H39 C22 0.932 . S
C40 C41 1.264 . S
C40 C45 1.479 . S
C40 C50 1.465 . S
C41 C40 1.264 . S
C41 C43 1.339 . S
C41 H68 0.931 . S
C42 C43 1.395 . S
C42 C44 1.320 . S
C43 C41 1.339 . S
C43 C42 1.395 . S
C43 H69 0.929 . S
C44 C42 1.320 . S
C44 C45 1.405 . S
C44 H70 0.930 . S
C45 C40 1.479 . S
C45 C44 1.405 . S
C45 H71 0.931 . S
U46 O47 2.454 . S
U46 O48 2.458 . S
U46 C49 2.984 . S
U46 C50 2.847 . S
U46 C63 2.882 . S
U46 O64 2.441 . S
U46 O65 2.420 . S
U46 O66 2.455 . S
U46 O67 2.449 . S
O47 U46 2.454 . S
O47 C49 1.353 . S
O48 U46 2.458 . S
O48 C49 1.286 . S
C49 U46 2.984 . S
C49 O47 1.353 . S
C49 O48 1.286 . S
C49 C51 1.363 . S
C50 C40 1.465 . S
C50 U46 2.847 . S
C50 O64 1.249 . S
C50 O65 1.202 . S
C51 C49 1.363 . S
C51 C53 1.408 . S
C51 C56 1.342 . S
C52 C53 1.310 . S
C52 C55 1.461 . S
C52 H72 0.932 . S
C53 C51 1.408 . S
C53 C52 1.310 . S
C53 H73 0.930 . S
C54 C55 1.474 . S
C54 C56 1.285 . S
C54 H74 0.929 . S
C55 C52 1.461 . S
C55 C54 1.474 . S
C56 C51 1.342 . S
C56 C54 1.285 . S
C56 H75 0.930 . S
C57 C60 1.424 . S
C57 C62 1.245 . S
C57 C63 1.428 . S
C58 C61 1.260 . S
C58 C62 1.477 . S
C58 H76 0.932 . S
C59 C60 1.384 . S
C59 C61 1.479 . S
C59 H77 0.929 . S
C60 C57 1.424 . S
C60 C59 1.384 . S
C60 H78 0.928 . S
C61 C58 1.260 . S
C61 C59 1.479 . S
C62 C57 1.245 . S
C62 C58 1.477 . S
C62 H79 0.932 . S
C63 U46 2.882 . S
C63 C57 1.428 . S
C63 O66 1.301 . S
C63 O67 1.282 . S
O64 U46 2.441 . S
O64 C50 1.249 . S
O65 U46 2.420 . S
O65 C50 1.202 . S
O66 U46 2.455 . S
O66 C63 1.301 . S
O67 U46 2.449 . S
O67 C63 1.282 . S
H68 C41 0.931 . S
H69 C43 0.929 . S
H70 C44 0.930 . S
H71 C45 0.931 . S
H72 C52 0.932 . S
H73 C53 0.930 . S
H74 C54 0.929 . S
H75 C56 0.930 . S
H76 C58 0.932 . S
H77 C59 0.929 . S
H78 C60 0.928 . S
H79 C62 0.932 . S
C80 C81 1.264 . S
C80 C85 1.479 . S
C80 C90 1.465 . S
C81 C80 1.264 . S
C81 C83 1.339 . S
C81 H108 0.931 . S
C82 C83 1.395 . S
C82 C84 1.320 . S
C83 C81 1.339 . S
C83 C82 1.395 . S
C83 H109 0.929 . S
C84 C82 1.320 . S
C84 C85 1.405 . S
C84 H110 0.930 . S
C85 C80 1.479 . S
C85 C84 1.405 . S
C85 H111 0.931 . S
U86 O87 2.454 . S
U86 O88 2.458 . S
U86 C89 2.984 . S
U86 C90 2.847 . S
U86 C103 2.882 . S
U86 O104 2.441 . S
U86 O105 2.420 . S
U86 O106 2.455 . S
U86 O107 2.449 . S
O87 U86 2.454 . S
O87 C89 1.353 . S
O88 U86 2.458 . S
O88 C89 1.286 . S
C89 U86 2.984 . S
C89 O87 1.353 . S
C89 O88 1.286 . S
C89 C91 1.363 . S
C90 C80 1.465 . S
C90 U86 2.847 . S
C90 O104 1.249 . S
C90 O105 1.202 . S
C91 C89 1.363 . S
C91 C93 1.408 . S
C91 C96 1.342 . S
C92 C93 1.310 . S
C92 C95 1.461 . S
C92 H112 0.932 . S
C93 C91 1.408 . S
C93 C92 1.310 . S
C93 H113 0.930 . S
C94 C95 1.474 . S
C94 C96 1.285 . S
C94 H114 0.929 . S
C95 C92 1.461 . S
C95 C94 1.474 . S
C96 C91 1.342 . S
C96 C94 1.285 . S
C96 H115 0.930 . S
C97 C100 1.424 . S
C97 C102 1.245 . S
C97 C103 1.428 . S
C98 C101 1.260 . S
C98 C102 1.477 . S
C98 H116 0.932 . S
C99 C100 1.384 . S
C99 C101 1.479 . S
C99 H117 0.929 . S
C100 C97 1.424 . S
C100 C99 1.384 . S
C100 H118 0.928 . S
C101 C98 1.260 . S
C101 C99 1.479 . S
C102 C97 1.245 . S
C102 C98 1.477 . S
C102 H119 0.932 . S
C103 U86 2.882 . S
C103 C97 1.428 . S
C103 O106 1.301 . S
C103 O107 1.282 . S
O104 U86 2.441 . S
O104 C90 1.249 . S
O105 U86 2.420 . S
O105 C90 1.202 . S
O106 U86 2.455 . S
O106 C103 1.301 . S
O107 U86 2.449 . S
O107 C103 1.282 . S
H108 C81 0.931 . S
H109 C83 0.929 . S
H110 C84 0.930 . S
H111 C85 0.931 . S
H112 C92 0.932 . S
H113 C93 0.930 . S
H114 C94 0.929 . S
H115 C96 0.930 . S
H116 C98 0.932 . S
H117 C99 0.929 . S
H118 C100 0.928 . S
H119 C102 0.932 . S
C120 C121 1.264 . S
C120 C125 1.479 . S
C120 C130 1.465 . S
C121 C120 1.264 . S
C121 C123 1.339 . S
C121 H148 0.931 . S
C122 C123 1.395 . S
C122 C124 1.320 . S
C123 C121 1.339 . S
C123 C122 1.395 . S
C123 H149 0.929 . S
C124 C122 1.320 . S
C124 C125 1.405 . S
C124 H150 0.930 . S
C125 C120 1.479 . S
C125 C124 1.405 . S
C125 H151 0.931 . S
U126 O127 2.454 . S
U126 O128 2.458 . S
U126 C129 2.984 . S
U126 C130 2.847 . S
U126 C143 2.882 . S
U126 O144 2.441 . S
U126 O145 2.420 . S
U126 O146 2.455 . S
U126 O147 2.449 . S
O127 U126 2.454 . S
O127 C129 1.353 . S
O128 U126 2.458 . S
O128 C129 1.286 . S
C129 U126 2.984 . S
C129 O127 1.353 . S
C129 O128 1.286 . S
C129 C131 1.363 . S
C130 C120 1.465 . S
C130 U126 2.847 . S
C130 O144 1.249 . S
C130 O145 1.202 . S
C131 C129 1.363 . S
C131 C133 1.408 . S
C131 C136 1.342 . S
C132 C133 1.310 . S
C132 C135 1.461 . S
C132 H152 0.932 . S
C133 C131 1.408 . S
C133 C132 1.310 . S
C133 H153 0.930 . S
C134 C135 1.474 . S
C134 C136 1.285 . S
C134 H154 0.929 . S
C135 C132 1.461 . S
C135 C134 1.474 . S
C136 C131 1.342 . S
C136 C134 1.285 . S
C136 H155 0.930 . S
C137 C140 1.424 . S
C137 C142 1.245 . S
C137 C143 1.428 . S
C138 C141 1.260 . S
C138 C142 1.477 . S
C138 H156 0.932 . S
C139 C140 1.384 . S
C139 C141 1.479 . S
C139 H157 0.929 . S
C140 C137 1.424 . S
C140 C139 1.384 . S
C140 H158 0.928 . S
C141 C138 1.260 . S
C141 C139 1.479 . S
C142 C137 1.245 . S
C142 C138 1.477 . S
C142 H159 0.932 . S
C143 U126 2.882 . S
C143 C137 1.428 . S
C143 O146 1.301 . S
C143 O147 1.282 . S
O144 U126 2.441 . S
O144 C130 1.249 . S
O145 U126 2.420 . S
O145 C130 1.202 . S
O146 U126 2.455 . S
O146 C143 1.301 . S
O147 U126 2.449 . S
O147 C143 1.282 . S
H148 C121 0.931 . S
H149 C123 0.929 . S
H150 C124 0.930 . S
H151 C125 0.931 . S
H152 C132 0.932 . S
H153 C133 0.930 . S
H154 C134 0.929 . S
H155 C136 0.930 . S
H156 C138 0.932 . S
H157 C139 0.929 . S
H158 C140 0.928 . S
H159 C142 0.932 . S
C160 C161 1.264 1_655 S
C160 C165 1.479 . S
C160 C170 1.465 . S
C161 C160 1.264 1_455 S
C161 C163 1.339 . S
C161 H188 0.931 . S
C162 C163 1.395 . S
C162 C164 1.320 1_456 S
C163 C161 1.339 . S
C163 C162 1.395 . S
C163 H189 0.929 . S
C164 C162 1.320 1_654 S
C164 C165 1.405 1_554 S
C164 H190 0.930 . S
C165 C160 1.479 . S
C165 C164 1.405 1_556 S
C165 H191 0.931 1_556 S
U166 O167 2.454 . S
U166 O168 2.458 . S
U166 C169 2.984 . S
U166 C170 2.847 . S
U166 C183 2.882 . S
U166 O184 2.441 . S
U166 O185 2.420 . S
U166 O186 2.455 . S
U166 O187 2.449 . S
O167 U166 2.454 . S
O167 C169 1.353 . S
O168 U166 2.458 . S
O168 C169 1.286 . S
C169 U166 2.984 . S
C169 O167 1.353 . S
C169 O168 1.286 . S
C169 C171 1.363 . S
C170 C160 1.465 . S
C170 U166 2.847 . S
C170 O184 1.249 . S
C170 O185 1.202 . S
C171 C169 1.363 . S
C171 C173 1.408 1_556 S
C171 C176 1.342 1_565 S
C172 C173 1.310 . S
C172 C175 1.461 1_565 S
C172 H192 0.932 . S
C173 C171 1.408 1_554 S
C173 C172 1.310 . S
C173 H193 0.930 . S
C174 C175 1.474 1_556 S
C174 C176 1.285 . S
C174 H194 0.929 . S
C175 C172 1.461 1_545 S
C175 C174 1.474 1_554 S
C176 C171 1.342 1_545 S
C176 C174 1.285 . S
C176 H195 0.930 . S
C177 C180 1.424 . S
C177 C182 1.255 . S
C177 C183 1.428 . S
C178 C181 1.260 1_655 S
C178 C182 1.472 1_545 S
C178 H196 0.932 . S
C179 C180 1.384 1_455 S
C179 C181 1.479 1_565 S
C179 H197 0.929 . S
C180 C177 1.424 . S
C180 C179 1.384 1_655 S
C180 H198 0.928 1_655 S
C181 C178 1.260 1_455 S
C181 C179 1.479 1_545 S
C182 C177 1.255 . S
C182 C178 1.472 1_565 S
C182 H199 0.927 1_565 S
C183 U166 2.882 . S
C183 C177 1.428 . S
C183 O186 1.301 . S
C183 O187 1.282 . S
O184 U166 2.441 . S
O184 C170 1.249 . S
O185 U166 2.420 . S
O185 C170 1.202 . S
O186 U166 2.455 . S
O186 C183 1.301 . S
O187 U166 2.449 . S
O187 C183 1.282 . S
H188 C161 0.931 . S
H189 C163 0.929 . S
H190 C164 0.930 . S
H191 C165 0.931 1_554 S
H192 C172 0.932 . S
H193 C173 0.930 . S
H194 C174 0.929 . S
H195 C176 0.930 . S
H196 C178 0.932 . S
H197 C179 0.929 . S
H198 C180 0.928 1_455 S
H199 C182 0.927 1_545 S
C200 C201 1.264 . S
C200 C205 1.479 . S
C200 C210 1.465 . S
C201 C200 1.264 . S
C201 C203 1.339 . S
C201 H228 0.931 . S
C202 C203 1.395 . S
C202 C204 1.320 . S
C203 C201 1.339 . S
C203 C202 1.395 . S
C203 H229 0.929 . S
C204 C202 1.320 . S
C204 C205 1.405 . S
C204 H230 0.930 . S
C205 C200 1.479 . S
C205 C204 1.405 . S
C205 H231 0.931 . S
U206 O207 2.454 . S
U206 O208 2.458 . S
U206 C209 2.984 . S
U206 C210 2.847 . S
U206 C223 2.882 . S
U206 O224 2.441 . S
U206 O225 2.420 . S
U206 O226 2.455 . S
U206 O227 2.449 . S
O207 U206 2.454 . S
O207 C209 1.353 . S
O208 U206 2.458 . S
O208 C209 1.286 . S
C209 U206 2.984 . S
C209 O207 1.353 . S
C209 O208 1.286 . S
C209 C211 1.363 . S
C210 C200 1.465 . S
C210 U206 2.847 . S
C210 O224 1.249 . S
C210 O225 1.202 . S
C211 C209 1.363 . S
C211 C213 1.408 . S
C211 C216 1.342 . S
C212 C213 1.310 . S
C212 C215 1.461 . S
C212 H232 0.932 . S
C213 C211 1.408 . S
C213 C212 1.310 . S
C213 H233 0.930 . S
C214 C215 1.474 . S
C214 C216 1.285 . S
C214 H234 0.929 . S
C215 C212 1.461 . S
C215 C214 1.474 . S
C216 C211 1.342 . S
C216 C214 1.285 . S
C216 H235 0.930 . S
C217 C220 1.424 . S
C217 C222 1.245 . S
C217 C223 1.428 . S
C218 C221 1.260 . S
C218 C222 1.477 . S
C218 H236 0.932 . S
C219 C220 1.384 . S
C219 C221 1.479 . S
C219 H237 0.929 . S
C220 C217 1.424 . S
C220 C219 1.384 . S
C220 H238 0.928 . S
C221 C218 1.260 . S
C221 C219 1.479 . S
C222 C217 1.245 . S
C222 C218 1.477 . S
C222 H239 0.932 . S
C223 U206 2.882 . S
C223 C217 1.428 . S
C223 O226 1.301 . S
C223 O227 1.282 . S
O224 U206 2.441 . S
O224 C210 1.249 . S
O225 U206 2.420 . S
O225 C210 1.202 . S
O226 U206 2.455 . S
O226 C223 1.301 . S
O227 U206 2.449 . S
O227 C223 1.282 . S
H228 C201 0.931 . S
H229 C203 0.929 . S
H230 C204 0.930 . S
H231 C205 0.931 . S
H232 C212 0.932 . S
H233 C213 0.930 . S
H234 C214 0.929 . S
H235 C216 0.930 . S
H236 C218 0.932 . S
H237 C219 0.929 . S
H238 C220 0.928 . S
H239 C222 0.932 . S
C240 C241 1.264 . S
C240 C245 1.479 . S
C240 C250 1.465 . S
C241 C240 1.264 . S
C241 C243 1.339 . S
C241 H268 0.931 . S
C242 C243 1.395 . S
C242 C244 1.320 . S
C243 C241 1.339 . S
C243 C242 1.395 . S
C243 H269 0.929 1_554 S
C244 C242 1.320 . S
C244 C245 1.405 . S
C244 H270 0.930 . S
C245 C240 1.479 . S
C245 C244 1.405 . S
C245 H271 0.931 . S
U246 O247 2.454 . S
U246 O248 2.458 . S
U246 C249 2.984 . S
U246 C250 2.847 . S
U246 C263 2.882 . S
U246 O264 2.441 . S
U246 O265 2.420 . S
U246 O266 2.455 . S
U246 O267 2.449 . S
O247 U246 2.454 . S
O247 C249 1.353 . S
O248 U246 2.458 . S
O248 C249 1.286 . S
C249 U246 2.984 . S
C249 O247 1.353 . S
C249 O248 1.286 . S
C249 C251 1.363 . S
C250 C240 1.465 . S
C250 U246 2.847 . S
C250 O264 1.249 . S
C250 O265 1.202 . S
C251 C249 1.363 . S
C251 C253 1.408 . S
C251 C256 1.342 . S
C252 C253 1.310 . S
C252 C255 1.461 . S
C252 H272 0.932 . S
C253 C251 1.408 . S
C253 C252 1.310 . S
C253 H273 0.930 . S
C254 C255 1.474 . S
C254 C256 1.285 . S
C254 H274 0.929 . S
C255 C252 1.461 . S
C255 C254 1.474 . S
C256 C251 1.342 . S
C256 C254 1.285 . S
C256 H275 0.930 . S
C257 C260 1.424 . S
C257 C262 1.245 . S
C257 C263 1.428 . S
C258 C261 1.260 . S
C258 C262 1.477 . S
C258 H276 0.932 . S
C259 C260 1.384 . S
C259 C261 1.479 . S
C259 H277 0.951 . S
C260 C257 1.424 . S
C260 C259 1.384 . S
C260 H278 0.928 . S
C261 C258 1.260 . S
C261 C259 1.479 . S
C262 C257 1.245 . S
C262 C258 1.477 . S
C262 H279 0.932 . S
C263 U246 2.882 . S
C263 C257 1.428 . S
C263 O266 1.301 . S
C263 O267 1.282 . S
O264 U246 2.441 . S
O264 C250 1.249 . S
O265 U246 2.420 . S
O265 C250 1.202 . S
O266 U246 2.455 . S
O266 C263 1.301 . S
O267 U246 2.449 . S
O267 C263 1.282 . S
H268 C241 0.931 . S
H269 C243 0.929 1_556 S
H270 C244 0.930 . S
H271 C245 0.931 . S
H272 C252 0.932 . S
H273 C253 0.930 . S
H274 C254 0.929 . S
H275 C256 0.930 . S
H276 C258 0.932 . S
H277 C259 0.951 . S
H278 C260 0.928 . S
H279 C262 0.932 . S
C280 C281 1.264 . S
C280 C285 1.479 . S
C280 C290 1.465 . S
C281 C280 1.264 . S
C281 C283 1.339 . S
C281 H308 0.931 . S
C282 C283 1.395 . S
C282 C284 1.320 . S
C283 C281 1.339 . S
C283 C282 1.395 . S
C283 H309 0.929 . S
C284 C282 1.320 . S
C284 C285 1.405 . S
C284 H310 0.930 1_455 S
C285 C280 1.479 . S
C285 C284 1.405 . S
C285 H311 0.931 . S
U286 O287 2.454 . S
U286 O288 2.458 . S
U286 C289 2.984 . S
U286 C290 2.847 . S
U286 C303 2.882 . S
U286 O304 2.441 . S
U286 O305 2.420 . S
U286 O306 2.455 . S
U286 O307 2.449 . S
O287 U286 2.454 . S
O287 C289 1.353 . S
O288 U286 2.458 . S
O288 C289 1.286 . S
C289 U286 2.984 . S
C289 O287 1.353 . S
C289 O288 1.286 . S
C289 C291 1.363 . S
C290 C280 1.465 . S
C290 U286 2.847 . S
C290 O304 1.249 . S
C290 O305 1.202 . S
C291 C289 1.363 . S
C291 C293 1.408 . S
C291 C296 1.342 . S
C292 C293 1.310 . S
C292 C295 1.461 . S
C292 H312 0.937 . S
C293 C291 1.408 . S
C293 C292 1.310 . S
C293 H313 0.930 . S
C294 C295 1.474 . S
C294 C296 1.285 . S
C294 H314 0.929 . S
C295 C292 1.461 . S
C295 C294 1.474 . S
C296 C291 1.342 . S
C296 C294 1.285 . S
C296 H315 0.930 . S
C297 C300 1.424 . S
C297 C302 1.245 . S
C297 C303 1.428 . S
C298 C301 1.260 . S
C298 C302 1.477 . S
C298 H316 0.932 . S
C299 C300 1.384 . S
C299 C301 1.479 . S
C299 H317 0.929 . S
C300 C297 1.424 . S
C300 C299 1.384 . S
C300 H318 0.928 . S
C301 C298 1.260 . S
C301 C299 1.479 . S
C302 C297 1.245 . S
C302 C298 1.477 . S
C302 H319 0.932 . S
C303 U286 2.882 . S
C303 C297 1.428 . S
C303 O306 1.301 . S
C303 O307 1.282 . S
O304 U286 2.441 . S
O304 C290 1.249 . S
O305 U286 2.420 . S
O305 C290 1.202 . S
O306 U286 2.455 . S
O306 C303 1.301 . S
O307 U286 2.449 . S
O307 C303 1.282 . S
H308 C281 0.931 . S
H309 C283 0.929 . S
H310 C284 0.930 1_655 S
H311 C285 0.931 . S
H312 C292 0.937 . S
H313 C293 0.930 . S
H314 C294 0.929 . S
H315 C296 0.930 . S
H316 C298 0.932 . S
H317 C299 0.929 . S
H318 C300 0.928 . S
H319 C302 0.932 . S
Zn320 O326 1.920 . S
Zn320 O332 1.898 . S
Zn320 O335 1.905 . S
Zn321 O329 1.905 1_565 S
Zn321 O330 1.898 . S
Zn321 O338 1.920 . S
Zn322 O325 2.080 1_455 S
Zn322 O328 2.114 . S
Zn322 O331 2.120 1_445 S
Zn322 O333 2.120 . S
Zn322 O334 2.114 1_455 S
Zn322 O337 2.080 . S
C323 O328 1.166 . S
C323 O329 1.182 . S
C324 O330 1.167 1_655 S
C324 O331 1.299 . S
O325 Zn322 2.080 1_655 S
O325 C339 1.305 . S
O326 Zn320 1.920 . S
O326 C339 1.234 . S
C327 O332 1.167 1_455 S
C327 O333 1.299 . S
O328 Zn322 2.114 . S
O328 C323 1.166 . S
O329 Zn321 1.905 1_545 S
O329 C323 1.182 . S
O330 Zn321 1.898 . S
O330 C324 1.167 1_455 S
O331 Zn322 2.120 1_665 S
O331 C324 1.299 . S
O332 Zn320 1.898 . S
O332 C327 1.167 1_655 S
O333 Zn322 2.120 . S
O333 C327 1.299 . S
O334 Zn322 2.114 1_655 S
O334 C336 1.166 . S
O335 Zn320 1.905 . S
O335 C336 1.182 . S
C336 O334 1.166 . S
C336 O335 1.182 . S
O337 Zn322 2.080 . S
O337 C340 1.305 1_545 S
O338 Zn321 1.920 . S
O338 C340 1.234 . S
C339 O325 1.305 . S
C339 O326 1.234 . S
C340 O337 1.305 1_565 S
C340 O338 1.234 . S
Zn341 O347 1.920 1_556 S
Zn341 O353 1.898 . S
Zn341 O356 1.905 . S
Zn342 O350 1.905 . S
Zn342 O351 1.898 . S
Zn342 O359 1.920 . S
Zn343 O346 2.080 . S
Zn343 O349 2.114 1_545 S
Zn343 O352 2.120 1_545 S
Zn343 O354 2.120 . S
Zn343 O355 2.114 1_544 S
Zn343 O358 2.080 . S
C344 O349 1.166 . S
C344 O350 1.182 . S
C345 O351 1.167 . S
C345 O352 1.299 . S
O346 Zn343 2.080 . S
O346 C360 1.305 . S
O347 Zn341 1.920 1_554 S
O347 C360 1.234 . S
C348 O353 1.167 . S
C348 O354 1.299 1_556 S
O349 Zn343 2.114 1_565 S
O349 C344 1.166 . S
O350 Zn342 1.905 . S
O350 C344 1.182 . S
O351 Zn342 1.898 . S
O351 C345 1.167 . S
O352 Zn343 2.120 1_565 S
O352 C345 1.299 . S
O353 Zn341 1.898 . S
O353 C348 1.167 . S
O354 Zn343 2.120 . S
O354 C348 1.299 1_554 S
O355 Zn343 2.114 1_566 S
O355 C357 1.166 . S
O356 Zn341 1.905 . S
O356 C357 1.182 1_545 S
C357 O355 1.166 . S
C357 O356 1.182 1_565 S
O358 Zn343 2.080 . S
O358 C361 1.305 . S
O359 Zn342 1.920 . S
O359 C361 1.234 1_565 S
C360 O346 1.305 . S
C360 O347 1.234 . S
C361 O358 1.305 . S
C361 O359 1.234 1_545 S
Zn362 O368 1.920 . S
Zn362 O374 1.898 . S
Zn362 O377 1.905 . S
Zn363 O371 1.905 . S
Zn363 O372 1.898 . S
Zn363 O380 1.920 . S
Zn364 O367 2.080 . S
Zn364 O370 2.114 . S
Zn364 O373 2.120 . S
Zn364 O375 2.120 . S
Zn364 O376 2.114 . S
Zn364 O379 2.080 . S
C365 O370 1.166 . S
C365 O371 1.182 . S
C366 O372 1.167 . S
C366 O373 1.299 . S
O367 Zn364 2.080 . S
O367 C381 1.305 . S
O368 Zn362 1.920 . S
O368 C381 1.234 . S
C369 O374 1.167 . S
C369 O375 1.299 . S
O370 Zn364 2.114 . S
O370 C365 1.166 . S
O371 Zn363 1.905 . S
O371 C365 1.182 . S
O372 Zn363 1.898 . S
O372 C366 1.167 . S
O373 Zn364 2.120 . S
O373 C366 1.299 . S
O374 Zn362 1.898 . S
O374 C369 1.167 . S
O375 Zn364 2.120 . S
O375 C369 1.299 . S
O376 Zn364 2.114 . S
O376 C378 1.166 . S
O377 Zn362 1.905 . S
O377 C378 1.182 . S
C378 O376 1.166 . S
C378 O377 1.182 . S
O379 Zn364 2.080 . S
O379 C382 1.305 . S
O380 Zn363 1.920 . S
O380 C382 1.234 . S
C381 O367 1.305 . S
C381 O368 1.234 . S
C382 O379 1.305 . S
C382 O380 1.234 . S
Zn383 O389 1.920 . S
Zn383 O395 1.898 . S
Zn383 O398 1.905 . S
Zn384 O392 1.905 1_655 S
Zn384 O393 1.898 . S
Zn384 O401 1.920 . S
Zn385 O388 2.080 1_554 S
Zn385 O391 2.114 . S
Zn385 O394 2.120 1_454 S
Zn385 O396 2.120 . S
Zn385 O397 2.114 1_554 S
Zn385 O400 2.080 . S
C386 O391 1.166 . S
C386 O392 1.182 . S
C387 O393 1.167 1_556 S
C387 O394 1.299 . S
O388 Zn385 2.080 1_556 S
O388 C402 1.305 . S
O389 Zn383 1.920 . S
O389 C402 1.234 . S
C390 O395 1.167 1_554 S
C390 O396 1.299 . S
O391 Zn385 2.114 . S
O391 C386 1.166 . S
O392 Zn384 1.905 1_455 S
O392 C386 1.182 . S
O393 Zn384 1.898 . S
O393 C387 1.167 1_554 S
O394 Zn385 2.120 1_656 S
O394 C387 1.299 . S
O395 Zn383 1.898 . S
O395 C390 1.167 1_556 S
O396 Zn385 2.120 . S
O396 C390 1.299 . S
O397 Zn385 2.114 1_556 S
O397 C399 1.166 . S
O398 Zn383 1.905 . S
O398 C399 1.182 . S
C399 O397 1.166 . S
C399 O398 1.182 . S
O400 Zn385 2.080 . S
O400 C403 1.305 1_455 S
O401 Zn384 1.920 . S
O401 C403 1.234 . S
C402 O388 1.305 . S
C402 O389 1.234 . S
C403 O400 1.305 1_655 S
C403 O401 1.234 . S
C404 C405 1.363 . S
C404 C410 1.379 . S
C404 N412 1.356 . S
C405 C404 1.363 . S
C405 C411 1.363 . S
C406 C407 1.363 . S
C406 C411 1.379 . S
C406 N413 1.356 . S
C407 C406 1.363 . S
C407 C410 1.363 . S
N408 C410 1.356 . S
N408 H420 0.984 . S
N408 H421 0.985 . S
N409 C411 1.356 . S
N409 H414 0.984 . S
N409 H415 0.985 . S
C410 C404 1.379 . S
C410 C407 1.363 . S
C410 N408 1.356 . S
C411 C405 1.363 . S
C411 C406 1.379 . S
C411 N409 1.356 . S
N412 C404 1.356 . S
N412 H418 0.984 . S
N412 H419 0.984 . S
N413 C406 1.356 . S
N413 H416 0.984 . S
N413 H417 0.985 . S
H414 N409 0.984 . S
H415 N409 0.985 . S
H416 N413 0.984 . S
H417 N413 0.985 . S
H418 N412 0.984 . S
H419 N412 0.984 . S
H420 N408 0.984 . S
H421 N408 0.985 . S
C422 C423 1.363 . S
C422 C428 1.379 . S
C422 N430 1.356 . S
C423 C422 1.363 . S
C423 C429 1.363 . S
C424 C425 1.363 . S
C424 C429 1.379 . S
C424 N431 1.356 . S
C425 C424 1.363 . S
C425 C428 1.363 . S
N426 C428 1.356 . S
N426 H438 0.984 . S
N426 H439 0.985 . S
N427 C429 1.356 . S
N427 H432 0.984 . S
N427 H433 0.985 . S
C428 C422 1.379 . S
C428 C425 1.363 . S
C428 N426 1.356 . S
C429 C423 1.363 . S
C429 C424 1.379 . S
C429 N427 1.356 . S
N430 C422 1.356 . S
N430 H436 0.984 . S
N430 H437 0.984 . S
N431 C424 1.356 . S
N431 H434 0.984 . S
N431 H435 0.985 . S
H432 N427 0.984 . S
H433 N427 0.985 . S
H434 N431 0.984 . S
H435 N431 0.985 . S
H436 N430 0.984 . S
H437 N430 0.984 . S
H438 N426 0.984 . S
H439 N426 0.985 . S
C440 C441 1.363 . S
C440 C446 1.379 . S
C440 N448 1.356 . S
C441 C440 1.363 . S
C441 C447 1.363 . S
C442 C443 1.363 . S
C442 C447 1.379 . S
C442 N449 1.356 . S
C443 C442 1.363 . S
C443 C446 1.363 . S
N444 C446 1.356 . S
N444 H456 0.984 . S
N444 H457 0.985 . S
N445 C447 1.356 . S
N445 H450 0.984 . S
N445 H451 0.985 . S
C446 C440 1.379 . S
C446 C443 1.363 . S
C446 N444 1.356 . S
C447 C441 1.363 . S
C447 C442 1.379 . S
C447 N445 1.356 . S
N448 C440 1.356 . S
N448 H454 0.984 . S
N448 H455 0.984 . S
N449 C442 1.356 . S
N449 H452 0.984 . S
N449 H453 0.985 . S
H450 N445 0.984 . S
H451 N445 0.985 . S
H452 N449 0.984 . S
H453 N449 0.985 . S
H454 N448 0.984 . S
H455 N448 0.984 . S
H456 N444 0.984 . S
H457 N444 0.985 . S
C458 C459 1.363 . S
C458 C464 1.379 . S
C458 N466 1.356 . S
C459 C458 1.363 . S
C459 C465 1.363 . S
C460 C461 1.363 . S
C460 C465 1.379 . S
C460 N467 1.356 . S
C461 C460 1.363 . S
C461 C464 1.363 . S
N462 C464 1.356 . S
N462 H474 0.984 . S
N462 H475 0.985 . S
N463 C465 1.356 . S
N463 H468 0.984 . S
N463 H469 0.985 . S
C464 C458 1.379 . S
C464 C461 1.363 . S
C464 N462 1.356 . S
C465 C459 1.363 . S
C465 C460 1.379 . S
C465 N463 1.356 . S
N466 C458 1.356 . S
N466 H472 0.984 . S
N466 H473 0.984 . S
N467 C460 1.356 . S
N467 H470 0.984 . S
N467 H471 0.985 . S
H468 N463 0.984 . S
H469 N463 0.985 . S
H470 N467 0.984 . S
H471 N467 0.985 . S
H472 N466 0.984 . S
H473 N466 0.984 . S
H474 N462 0.984 . S
H475 N462 0.985 . S
C476 C477 1.363 . S
C476 C482 1.379 . S
C476 N484 1.356 . S
C477 C476 1.363 . S
C477 C483 1.363 . S
C478 C479 1.363 . S
C478 C483 1.379 . S
C478 N485 1.356 . S
C479 C478 1.363 . S
C479 C482 1.363 . S
N480 C482 1.356 . S
N480 H492 0.984 1_545 S
N480 H493 0.985 . S
N481 C483 1.356 . S
N481 H486 0.984 . S
N481 H487 0.985 . S
C482 C476 1.379 . S
C482 C479 1.363 . S
C482 N480 1.356 . S
C483 C477 1.363 . S
C483 C478 1.379 . S
C483 N481 1.356 . S
N484 C476 1.356 . S
N484 H490 0.984 . S
N484 H491 0.984 . S
N485 C478 1.356 . S
N485 H488 0.984 . S
N485 H489 0.985 . S
H486 N481 0.984 . S
H487 N481 0.985 . S
H488 N485 0.984 . S
H489 N485 0.985 . S
H490 N484 0.984 . S
H491 N484 0.984 . S
H492 N480 0.984 1_565 S
H493 N480 0.985 . S
C494 C495 1.363 . S
C494 C500 1.379 . S
C494 N502 1.356 . S
C495 C494 1.363 . S
C495 C501 1.363 . S
C496 C497 1.363 . S
C496 C501 1.379 . S
C496 N503 1.356 . S
C497 C496 1.363 . S
C497 C500 1.363 . S
N498 C500 1.356 1_545 S
N498 H510 0.984 . S
N498 H511 0.985 . S
N499 C501 1.356 . S
N499 H504 0.984 . S
N499 H505 0.985 . S
C500 C494 1.379 . S
C500 C497 1.363 . S
C500 N498 1.356 1_565 S
C501 C495 1.363 . S
C501 C496 1.379 . S
C501 N499 1.356 . S
N502 C494 1.356 . S
N502 H508 0.984 1_565 S
N502 H509 0.984 . S
N503 C496 1.356 . S
N503 H506 0.984 . S
N503 H507 0.985 . S
H504 N499 0.984 . S
H505 N499 0.985 . S
H506 N503 0.984 . S
H507 N503 0.985 . S
H508 N502 0.984 1_545 S
H509 N502 0.984 . S
H510 N498 0.984 . S
H511 N498 0.985 . S
C512 C513 1.363 . S
C512 C518 1.379 . S
C512 N520 1.356 . S
C513 C512 1.363 . S
C513 C519 1.363 . S
C514 C515 1.363 . S
C514 C519 1.379 . S
C514 N521 1.356 . S
C515 C514 1.363 . S
C515 C518 1.363 . S
N516 C518 1.356 1_554 S
N516 H528 0.984 . S
N516 H529 0.985 . S
N517 C519 1.356 . S
N517 H522 0.984 . S
N517 H523 0.985 . S
C518 C512 1.379 . S
C518 C515 1.363 . S
C518 N516 1.356 1_556 S
C519 C513 1.363 . S
C519 C514 1.379 . S
C519 N517 1.356 . S
N520 C512 1.356 . S
N520 H526 0.984 . S
N520 H527 0.984 . S
N521 C514 1.356 . S
N521 H524 0.984 . S
N521 H525 0.985 . S
H522 N517 0.984 . S
H523 N517 0.985 . S
H524 N521 0.984 . S
H525 N521 0.985 . S
H526 N520 0.984 . S
H527 N520 0.984 . S
H528 N516 0.984 . S
H529 N516 0.985 . S
C530 C531 1.363 . S
C530 C536 1.379 . S
C530 N538 1.356 . S
C531 C530 1.363 . S
C531 C537 1.363 . S
C532 C533 1.363 . S
C532 C537 1.379 . S
C532 N539 1.356 . S
C533 C532 1.363 . S
C533 C536 1.363 . S
N534 C536 1.356 . S
N534 H546 0.984 . S
N534 H547 0.985 . S
N535 C537 1.356 . S
N535 H540 0.984 . S
N535 H541 0.985 . S
C536 C530 1.379 . S
C536 C533 1.363 . S
C536 N534 1.356 . S
C537 C531 1.363 . S
C537 C532 1.379 . S
C537 N535 1.356 . S
N538 C530 1.356 . S
N538 H544 0.984 . S
N538 H545 0.984 . S
N539 C532 1.356 . S
N539 H542 0.984 . S
N539 H543 0.985 . S
H540 N535 0.984 . S
H541 N535 0.985 . S
H542 N539 0.984 . S
H543 N539 0.985 . S
H544 N538 0.984 . S
H545 N538 0.984 . S
H546 N534 0.984 . S
H547 N534 0.985 . S
C548 C549 1.363 . S
C548 C554 1.379 . S
C548 N556 1.356 . S
C549 C548 1.363 . S
C549 C555 1.363 . S
C550 C551 1.363 . S
C550 C555 1.379 . S
C550 N557 1.356 . S
C551 C550 1.363 . S
C551 C554 1.363 . S
N552 C554 1.356 . S
N552 H564 0.984 . S
N552 H565 0.985 . S
N553 C555 1.356 . S
N553 H558 0.984 . S
N553 H559 0.985 . S
C554 C548 1.379 . S
C554 C551 1.363 . S
C554 N552 1.356 . S
C555 C549 1.363 . S
C555 C550 1.379 . S
C555 N553 1.356 . S
N556 C548 1.356 . S
N556 H562 0.984 . S
N556 H563 0.984 . S
N557 C550 1.356 . S
N557 H560 0.984 . S
N557 H561 0.985 1_554 S
H558 N553 0.984 . S
H559 N553 0.985 . S
H560 N557 0.984 . S
H561 N557 0.985 1_556 S
H562 N556 0.984 . S
H563 N556 0.984 . S
H564 N552 0.984 . S
H565 N552 0.985 . S
C566 C567 1.363 . S
C566 C572 1.379 . S
C566 N574 1.356 . S
C567 C566 1.363 . S
C567 C573 1.363 . S
C568 C569 1.363 . S
C568 C573 1.379 . S
C568 N575 1.356 1_556 S
C569 C568 1.363 . S
C569 C572 1.363 . S
N570 C572 1.356 . S
N570 H582 0.984 . S
N570 H583 0.985 . S
N571 C573 1.356 . S
N571 H576 0.984 . S
N571 H577 0.985 . S
C572 C566 1.379 . S
C572 C569 1.363 . S
C572 N570 1.356 . S
C573 C567 1.363 . S
C573 C568 1.379 . S
C573 N571 1.356 . S
N574 C566 1.356 . S
N574 H580 0.984 . S
N574 H581 0.984 . S
N575 C568 1.356 1_554 S
N575 H578 0.984 . S
N575 H579 0.985 . S
H576 N571 0.984 . S
H577 N571 0.985 . S
H578 N575 0.984 . S
H579 N575 0.985 . S
H580 N574 0.984 . S
H581 N574 0.984 . S
H582 N570 0.984 . S
H583 N570 0.985 . S
C584 C585 1.363 . S
C584 C590 1.379 . S
C584 N592 1.356 . S
C585 C584 1.363 . S
C585 C591 1.363 . S
C586 C587 1.363 . S
C586 C591 1.379 . S
C586 N593 1.356 . S
C587 C586 1.363 . S
C587 C590 1.363 . S
N588 C590 1.356 1_455 S
N588 H600 0.984 . S
N588 H601 0.985 . S
N589 C591 1.356 . S
N589 H594 0.984 . S
N589 H595 0.985 . S
C590 C584 1.379 . S
C590 C587 1.363 . S
C590 N588 1.356 1_655 S
C591 C585 1.363 . S
C591 C586 1.379 . S
C591 N589 1.356 . S
N592 C584 1.356 . S
N592 H598 0.984 1_655 S
N592 H599 0.984 . S
N593 C586 1.356 . S
N593 H596 0.984 . S
N593 H597 0.985 . S
H594 N589 0.984 . S
H595 N589 0.985 . S
H596 N593 0.984 . S
H597 N593 0.985 . S
H598 N592 0.984 1_455 S
H599 N592 0.984 . S
H600 N588 0.984 . S
H601 N588 0.985 . S
C602 C603 1.363 . S
C602 C608 1.379 . S
C602 N610 1.356 . S
C603 C602 1.363 . S
C603 C609 1.363 . S
C604 C605 1.363 . S
C604 C609 1.379 . S
C604 N611 1.356 . S
C605 C604 1.363 . S
C605 C608 1.363 . S
N606 C608 1.356 . S
N606 H618 0.984 . S
N606 H619 0.985 . S
N607 C609 1.356 . S
N607 H612 0.984 . S
N607 H613 0.985 . S
C608 C602 1.379 . S
C608 C605 1.363 . S
C608 N606 1.356 . S
C609 C603 1.363 . S
C609 C604 1.379 . S
C609 N607 1.356 . S
N610 C602 1.356 . S
N610 H616 0.984 . S
N610 H617 0.984 . S
N611 C604 1.356 . S
N611 H614 0.984 . S
N611 H615 0.985 . S
H612 N607 0.984 . S
H613 N607 0.985 . S
H614 N611 0.984 . S
H615 N611 0.985 . S
H616 N610 0.984 . S
H617 N610 0.984 . S
H618 N606 0.984 . S
H619 N606 0.985 . S
C620 C621 1.363 1_655 S
C620 C626 1.379 . S
C620 N628 1.356 . S
C621 C620 1.363 1_455 S
C621 C627 1.363 1_545 S
C622 C623 1.363 1_465 S
C622 C627 1.379 . S
C622 N629 1.356 . S
C623 C622 1.363 1_645 S
C623 C626 1.363 . S
N624 C626 1.356 . S
N624 H636 0.984 . S
N624 H637 0.985 . S
N625 C627 1.356 . S
N625 H630 0.984 . S
N625 H631 0.985 . S
C626 C620 1.379 . S
C626 C623 1.363 . S
C626 N624 1.356 . S
C627 C621 1.363 1_565 S
C627 C622 1.379 . S
C627 N625 1.356 . S
N628 C620 1.356 . S
N628 H634 0.984 . S
N628 H635 0.984 . S
N629 C622 1.356 . S
N629 H632 0.984 . S
N629 H633 0.985 . S
H630 N625 0.984 . S
H631 N625 0.985 . S
H632 N629 0.984 . S
H633 N629 0.985 . S
H634 N628 0.984 . S
H635 N628 0.984 . S
H636 N624 0.984 . S
H637 N624 0.985 . S
C638 C639 1.363 1_565 S
C638 C644 1.379 . S
C638 N646 1.356 . S
C639 C638 1.363 1_545 S
C639 C645 1.363 . S
C640 C641 1.363 . S
C640 C645 1.379 . S
C640 N647 1.356 . S
C641 C640 1.363 . S
C641 C644 1.363 1_545 S
N642 C644 1.356 . S
N642 H654 0.984 . S
N642 H655 0.985 . S
N643 C645 1.356 . S
N643 H648 0.984 . S
N643 H649 0.985 . S
C644 C638 1.379 . S
C644 C641 1.363 1_565 S
C644 N642 1.356 . S
C645 C639 1.363 . S
C645 C640 1.379 . S
C645 N643 1.356 . S
N646 C638 1.356 . S
N646 H652 0.984 . S
N646 H653 0.984 . S
N647 C640 1.356 . S
N647 H650 0.984 . S
N647 H651 0.985 . S
H648 N643 0.984 . S
H649 N643 0.985 . S
H650 N647 0.984 . S
H651 N647 0.985 . S
H652 N646 0.984 . S
H653 N646 0.984 . S
H654 N642 0.984 . S
H655 N642 0.985 . S
C656 C657 1.363 . S
C656 C662 1.379 . S
C656 N664 1.356 . S
C657 C656 1.363 . S
C657 C663 1.363 . S
C658 C659 1.363 . S
C658 C663 1.379 . S
C658 N665 1.356 . S
C659 C658 1.363 . S
C659 C662 1.363 . S
N660 C662 1.356 . S
N660 H672 0.984 . S
N660 H673 0.985 . S
N661 C663 1.356 . S
N661 H666 0.984 . S
N661 H667 0.985 . S
C662 C656 1.379 . S
C662 C659 1.363 . S
C662 N660 1.356 . S
C663 C657 1.363 . S
C663 C658 1.379 . S
C663 N661 1.356 . S
N664 C656 1.356 . S
N664 H670 0.984 . S
N664 H671 0.984 . S
N665 C658 1.356 . S
N665 H668 0.984 . S
N665 H669 0.985 . S
H666 N661 0.984 . S
H667 N661 0.985 . S
H668 N665 0.984 . S
H669 N665 0.985 . S
H670 N664 0.984 . S
H671 N664 0.984 . S
H672 N660 0.984 . S
H673 N660 0.985 . S
C674 C675 1.363 . S
C674 C680 1.379 . S
C674 N682 1.356 . S
C675 C674 1.363 . S
C675 C681 1.363 . S
C676 C677 1.363 . S
C676 C681 1.379 . S
C676 N683 1.356 . S
C677 C676 1.363 . S
C677 C680 1.363 . S
N678 C680 1.356 . S
N678 H690 0.984 . S
N678 H691 0.985 . S
N679 C681 1.356 . S
N679 H684 0.984 . S
N679 H685 0.985 1_455 S
C680 C674 1.379 . S
C680 C677 1.363 . S
C680 N678 1.356 . S
C681 C675 1.363 . S
C681 C676 1.379 . S
C681 N679 1.356 . S
N682 C674 1.356 . S
N682 H688 0.984 . S
N682 H689 0.984 . S
N683 C676 1.356 . S
N683 H686 0.984 . S
N683 H687 0.985 . S
H684 N679 0.984 . S
H685 N679 0.985 1_655 S
H686 N683 0.984 . S
H687 N683 0.985 . S
H688 N682 0.984 . S
H689 N682 0.984 . S
H690 N678 0.984 . S
H691 N678 0.985 . S
C692 C693 1.363 . S
C692 C698 1.380 . S
C692 N700 1.356 . S
C693 C692 1.363 . S
C693 C699 1.358 1_544 S
C694 C695 1.363 1_556 S
C694 C699 1.383 . S
C694 N701 1.356 . S
C695 C694 1.363 1_554 S
C695 C698 1.362 1_565 S
N696 C698 1.356 1_565 S
N696 H708 0.984 1_565 S
N696 H709 0.985 . S
N697 C699 1.356 1_545 S
N697 H702 0.989 . S
N697 H703 0.981 1_545 S
C698 C692 1.380 . S
C698 C695 1.362 1_545 S
C698 N696 1.356 1_545 S
C699 C693 1.358 1_566 S
C699 C694 1.383 . S
C699 N697 1.356 1_565 S
N700 C692 1.356 . S
N700 H706 0.984 . S
N700 H707 0.984 . S
N701 C694 1.356 . S
N701 H704 0.984 . S
N701 H705 0.985 . S
H702 N697 0.989 . S
H703 N697 0.981 1_565 S
H704 N701 0.984 . S
H705 N701 0.985 . S
H706 N700 0.984 . S
H707 N700 0.984 . S
H708 N696 0.984 1_545 S
H709 N696 0.985 . S
C710 C711 1.363 . S
C710 C716 1.379 . S
C710 N718 1.356 1_545 S
C711 C710 1.363 . S
C711 C717 1.363 . S
C712 C713 1.363 . S
C712 C717 1.379 . S
C712 N719 1.356 . S
C713 C712 1.363 . S
C713 C716 1.363 . S
N714 C716 1.356 1_565 S
N714 H726 0.984 . S
N714 H727 0.985 1_565 S
N715 C717 1.356 . S
N715 H720 0.984 . S
N715 H721 0.985 . S
C716 C710 1.379 . S
C716 C713 1.363 . S
C716 N714 1.356 1_545 S
C717 C711 1.363 . S
C717 C712 1.379 . S
C717 N715 1.356 . S
N718 C710 1.356 1_565 S
N718 H724 0.984 . S
N718 H725 0.984 . S
N719 C712 1.356 . S
N719 H722 0.984 . S
N719 H723 0.985 . S
H720 N715 0.984 . S
H721 N715 0.985 . S
H722 N719 0.984 . S
H723 N719 0.985 . S
H724 N718 0.984 . S
H725 N718 0.984 . S
H726 N714 0.984 . S
H727 N714 0.985 1_545 S
C728 C729 1.363 . S
C728 C734 1.379 . S
C728 N736 1.356 . S
C729 C728 1.363 . S
C729 C735 1.363 . S
C730 C731 1.363 . S
C730 C735 1.379 . S
C730 N737 1.356 . S
C731 C730 1.363 . S
C731 C734 1.363 . S
N732 C734 1.356 . S
N732 H744 0.984 . S
N732 H745 0.985 . S
N733 C735 1.356 . S
N733 H738 0.984 . S
N733 H739 0.985 . S
C734 C728 1.379 . S
C734 C731 1.363 . S
C734 N732 1.356 . S
C735 C729 1.363 . S
C735 C730 1.379 . S
C735 N733 1.356 . S
N736 C728 1.356 . S
N736 H742 0.984 . S
N736 H743 0.984 . S
N737 C730 1.356 . S
N737 H740 0.984 . S
N737 H741 0.985 . S
H738 N733 0.984 . S
H739 N733 0.985 . S
H740 N737 0.984 . S
H741 N737 0.985 . S
H742 N736 0.984 . S
H743 N736 0.984 . S
H744 N732 0.984 . S
H745 N732 0.985 . S
C746 C747 1.363 . S
C746 C752 1.379 . S
C746 N754 1.356 . S
C747 C746 1.363 . S
C747 C753 1.363 . S
C748 C749 1.363 . S
C748 C753 1.379 . S
C748 N755 1.356 . S
C749 C748 1.363 . S
C749 C752 1.363 . S
N750 C752 1.356 . S
N750 H762 0.984 . S
N750 H763 0.985 . S
N751 C753 1.356 . S
N751 H756 0.984 . S
N751 H757 0.985 . S
C752 C746 1.379 . S
C752 C749 1.363 . S
C752 N750 1.356 . S
C753 C747 1.363 . S
C753 C748 1.379 . S
C753 N751 1.356 . S
N754 C746 1.356 . S
N754 H760 0.984 . S
N754 H761 0.984 . S
N755 C748 1.356 . S
N755 H758 0.984 . S
N755 H759 0.985 . S
H756 N751 0.984 . S
H757 N751 0.985 . S
H758 N755 0.984 . S
H759 N755 0.985 . S
H760 N754 0.984 . S
H761 N754 0.984 . S
H762 N750 0.984 . S
H763 N750 0.985 . S
C764 C765 1.363 . S
C764 C770 1.379 . S
C764 N772 1.356 1_455 S
C765 C764 1.363 . S
C765 C771 1.363 1_556 S
C766 C767 1.363 1_554 S
C766 C771 1.379 . S
C766 N773 1.356 . S
C767 C766 1.363 1_556 S
C767 C770 1.363 . S
N768 C770 1.356 1_655 S
N768 H780 0.984 . S
N768 H781 0.985 . S
N769 C771 1.356 . S
N769 H774 0.984 . S
N769 H775 0.985 . S
C770 C764 1.379 . S
C770 C767 1.363 . S
C770 N768 1.356 1_455 S
C771 C765 1.363 1_554 S
C771 C766 1.379 . S
C771 N769 1.356 . S
N772 C764 1.356 1_655 S
N772 H778 0.984 . S
N772 H779 0.977 1_655 S
N773 C766 1.356 . S
N773 H776 0.984 . S
N773 H777 0.985 . S
H774 N769 0.984 . S
H775 N769 0.985 . S
H776 N773 0.984 . S
H777 N773 0.985 . S
H778 N772 0.984 . S
H779 N772 0.977 1_455 S
H780 N768 0.984 . S
H781 N768 0.985 . S
C782 C783 1.363 . S
C782 C788 1.379 . S
C782 N790 1.356 . S
C783 C782 1.363 . S
C783 C789 1.363 . S
C784 C785 1.363 . S
C784 C789 1.379 . S
C784 N791 1.356 . S
C785 C784 1.363 . S
C785 C788 1.363 . S
N786 C788 1.356 . S
N786 H798 0.984 . S
N786 H799 0.985 . S
N787 C789 1.356 . S
N787 H792 0.984 . S
N787 H793 0.985 . S
C788 C782 1.379 . S
C788 C785 1.363 . S
C788 N786 1.356 . S
C789 C783 1.363 . S
C789 C784 1.379 . S
C789 N787 1.356 . S
N790 C782 1.356 . S
N790 H796 0.984 . S
N790 H797 0.984 . S
N791 C784 1.356 . S
N791 H794 0.984 . S
N791 H795 0.985 . S
H792 N787 0.984 . S
H793 N787 0.985 . S
H794 N791 0.984 . S
H795 N791 0.985 . S
H796 N790 0.984 . S
H797 N790 0.984 . S
H798 N786 0.984 . S
H799 N786 0.985 . S
C800 C801 1.363 . S
C800 C806 1.379 . S
C800 N808 1.356 . S
C801 C800 1.363 . S
C801 C807 1.363 . S
C802 C803 1.363 . S
C802 C807 1.379 . S
C802 N809 1.356 1_455 S
C803 C802 1.363 . S
C803 C806 1.363 . S
N804 C806 1.356 . S
N804 H816 0.984 . S
N804 H817 0.985 . S
N805 C807 1.356 1_655 S
N805 H810 0.984 . S
N805 H811 0.985 . S
C806 C800 1.379 . S
C806 C803 1.363 . S
C806 N804 1.356 . S
C807 C801 1.363 . S
C807 C802 1.379 . S
C807 N805 1.356 1_455 S
N808 C800 1.356 . S
N808 H814 0.984 . S
N808 H815 0.984 . S
N809 C802 1.356 1_655 S
N809 H812 0.984 . S
N809 H813 0.985 . S
H810 N805 0.984 . S
H811 N805 0.985 . S
H812 N809 0.984 . S
H813 N809 0.985 . S
H814 N808 0.984 . S
H815 N808 0.984 . S
H816 N804 0.984 . S
H817 N804 0.985 . S
C818 C819 1.363 . S
C818 C824 1.379 . S
C818 N826 1.356 . S
C819 C818 1.363 . S
C819 C825 1.363 . S
C820 C821 1.363 . S
C820 C825 1.379 . S
C820 N827 1.356 . S
C821 C820 1.363 . S
C821 C824 1.363 . S
N822 C824 1.356 . S
N822 H834 0.984 . S
N822 H835 0.985 . S
N823 C825 1.356 . S
N823 H828 0.984 . S
N823 H829 0.985 . S
C824 C818 1.379 . S
C824 C821 1.363 . S
C824 N822 1.356 . S
C825 C819 1.363 . S
C825 C820 1.379 . S
C825 N823 1.356 . S
N826 C818 1.356 . S
N826 H832 0.984 . S
N826 H833 0.984 . S
N827 C820 1.356 . S
N827 H830 0.984 . S
N827 H831 0.985 . S
H828 N823 0.984 . S
H829 N823 0.985 . S
H830 N827 0.984 . S
H831 N827 0.985 . S
H832 N826 0.984 . S
H833 N826 0.984 . S
H834 N822 0.984 . S
H835 N822 0.985 . S
C405 C21 1.555 . S
C407 C323 1.467 . S
C423 C61 1.523 . S
C425 C357 1.429 . S
C443 C369 1.356 . S
C441 C82 1.439 . S
C459 C135 1.520 . S
C461 C403 1.430 . S
C479 C360 1.433 . S
C477 C15 1.534 . S
C497 C340 1.444 . S
C495 C42 1.518 . S
C515 C387 1.404 . S
C513 C101 1.486 . S
C533 C378 1.394 . S
C531 C122 1.474 . S
C549 C2 1.550 . S
C551 C386 1.450 . S
C569 C348 1.378 . S
C567 C95 1.466 . S
C585 C141 1.515 . S
C587 C324 1.415 . S
C603 C55 1.507 . S
C605 C381 1.406 . S
C623 C339 1.803 . S
C621 C181 1.765 . S
C639 C202 1.734 . S
C641 C361 1.763 . S
C657 C255 1.828 . S
C659 C366 1.787 . S
C675 C295 1.844 . S
C677 C399 1.787 . S
C693 C175 1.833 . S
C695 C344 1.804 . S
C713 C336 1.820 . S
C711 C221 1.778 . S
C731 C390 1.770 . S
C729 C242 1.733 . S
C749 C382 1.796 . S
C747 C301 1.930 . S
C765 C162 1.721 . S
C767 C402 1.751 . S
C785 C345 1.796 . S
C783 C261 1.750 . S
C803 C327 1.777 . S
C801 C282 1.885 . S
C819 C215 1.848 . S
C821 C365 1.811 . S
