# Generated by pormake.
# Topology pts, (4,4)-cn, num edge types: 1
# Building blocks:
#     Node 0, Type 0, BuildingBlock: KOZSID_clean_sbu_0, # of connection points: 4
#     Node 1, Type 0, BuildingBlock: KOZSID_clean_sbu_0, # of connection points: 4
#     Node 2, Type 1, BuildingBlock: QUQFOY_clean_sbu_1, # of connection points: 4
#     Node 3, Type 1, BuildingBlock: QUQFOY_clean_sbu_1, # of connection points: 4
#     Edge 4, Type (0, 1), BuildingBlock: ZUJKAS_clean_linker_0, # of connection points: 2
#     Edge 5, Type (0, 1), BuildingBlock: ZUJKAS_clean_linker_0, # of connection points: 2
#     Edge 6, Type (0, 1), BuildingBlock: ZUJKAS_clean_linker_0, # of connection points: 2
#     Edge 7, Type (0, 1), BuildingBlock: ZUJKAS_clean_linker_0, # of connection points: 2
#     Edge 8, Type (0, 1), BuildingBlock: ZUJKAS_clean_linker_0, # of connection points: 2
#     Edge 9, Type (0, 1), BuildingBlock: ZUJKAS_clean_linker_0, # of connection points: 2
#     Edge 10, Type (0, 1), BuildingBlock: ZUJKAS_clean_linker_0, # of connection points: 2
#     Edge 11, Type (0, 1), BuildingBlock: ZUJKAS_clean_linker_0, # of connection points: 2
# Relax obj value: 0.095
# Max RMSD: 0.254
# Mean RMSD: 0.146
data_MOF--net-pts--node1-KOZSID_clean_sbu_0--node2-QUQFOY_clean_sbu_1--edge1-ZUJKAS_clean_linker_0
_symmetry_space_group_name_H-M    P1
_symmetry_Int_Tables_number       1
_symmetry_cell_setting            triclinic
loop_
_symmetry_equiv_pos_as_xyz
'x, y, z'
_cell_length_a     32.237742
_cell_length_b     35.702353
_cell_length_c     53.032365
_cell_angle_alpha  86.91441
_cell_angle_beta   93.34425
_cell_angle_gamma 90.06263
loop_
_atom_site_label
_atom_site_type_symbol
_atom_site_fract_x
_atom_site_fract_y
_atom_site_fract_z
_atom_type_partial_charge
C0 C 0.60669 0.08901 0.04398 0.0
C1 C 0.62249 0.12401 0.04953 0.0
C2 C 0.60045 0.14973 0.03424 0.0
C3 C 0.57281 0.12907 0.02015 0.0
N4 N 0.57569 0.09168 0.02556 0.0
Co5 Co 0.54308 0.05143 0.00839 0.0
N6 N 0.50866 0.08948 0.98723 0.0
C7 C 0.51049 0.12721 0.98841 0.0
C8 C 0.48167 0.14608 0.97252 0.0
C9 C 0.45991 0.11879 0.96052 0.0
C10 C 0.47707 0.0847 0.96968 0.0
N11 N 0.51199 0.01116 0.99031 0.0
C12 C 0.4816 0.01381 0.97152 0.0
C13 C 0.47018 0.97878 0.9633 0.0
C14 C 0.49389 0.95306 0.97756 0.0
C15 C 0.51856 0.97375 0.99346 0.0
N16 N 0.5758 0.01338 0.03058 0.0
C17 C 0.57145 0.97567 0.03095 0.0
C18 C 0.59662 0.95679 0.04906 0.0
C19 C 0.61827 0.98407 0.06113 0.0
C20 C 0.60524 0.01814 0.04944 0.0
N21 N 0.50101 0.05167 0.03423 0.0
C22 C 0.44061 0.05231 0.07062 0.0
C23 C 0.45157 0.01896 0.06 0.0
C24 C 0.48167 0.01925 0.04207 0.0
C25 C 0.46068 0.08526 0.06276 0.0
C26 C 0.49037 0.08435 0.04467 0.0
N27 N 0.58523 0.05124 0.98247 0.0
C28 C 0.63771 0.01898 0.96097 0.0
C29 C 0.64456 0.05099 0.94555 0.0
C30 C 0.62144 0.08313 0.94885 0.0
C31 C 0.59252 0.0828 0.96746 0.0
C32 C 0.60781 0.01956 0.97898 0.0
H33 H 0.57661 0.10851 0.96931 0.0
H34 H 0.60353 0.99397 0.98977 0.0
H35 H 0.48863 0.99291 0.03473 0.0
H36 H 0.50428 0.11049 0.03944 0.0
C37 C 0.54151 0.14407 0.00332 0.0
C38 C 0.62209 0.05414 0.05677 0.0
C39 C 0.46247 0.04865 0.96101 0.0
C40 C 0.54557 0.95878 0.0129 0.0
H41 H 0.6472 0.13034 0.06334 0.0
H42 H 0.60369 0.17994 0.03378 0.0
H43 H 0.47735 0.17611 0.96975 0.0
H44 H 0.43444 0.1235 0.9465 0.0
H45 H 0.44688 0.97243 0.94863 0.0
H46 H 0.49276 0.92285 0.97675 0.0
H47 H 0.59929 0.92677 0.05283 0.0
H48 H 0.64127 0.97937 0.07667 0.0
H49 H 0.4366 0.99272 0.06516 0.0
H50 H 0.45388 0.11176 0.07068 0.0
H51 H 0.65489 0.99337 0.95886 0.0
H52 H 0.62616 0.10867 0.9374 0.0
C53 C 0.09134 0.49721 0.54936 0.0
C54 C 0.12989 0.48619 0.56026 0.0
C55 C 0.15879 0.50726 0.54814 0.0
C56 C 0.13636 0.52987 0.53063 0.0
N57 N 0.09482 0.52481 0.53102 0.0
Co58 Co 0.05075 0.55137 0.50853 0.0
N59 N 0.09345 0.57796 0.48812 0.0
C60 C 0.13515 0.57335 0.49078 0.0
C61 C 0.15646 0.59576 0.4742 0.0
C62 C 0.12665 0.6162 0.46028 0.0
C63 C 0.08872 0.60506 0.46926 0.0
N64 N 0.00668 0.57923 0.48681 0.0
C65 C 0.01033 0.60735 0.46885 0.0
C66 C 0.97182 0.62086 0.45945 0.0
C67 C 0.94275 0.6011 0.47228 0.0
C68 C 0.96509 0.57679 0.48871 0.0
N69 N 0.00804 0.52334 0.52812 0.0
C70 C 0.96625 0.52602 0.52441 0.0
C71 C 0.94498 0.50153 0.53967 0.0
C72 C 0.97496 0.48135 0.55361 0.0
C73 C 0.01291 0.49483 0.54598 0.0
N74 N 0.05135 0.59293 0.53209 0.0
C75 C 0.05122 0.65535 0.56279 0.0
C76 C 0.01523 0.63419 0.55826 0.0
C77 C 0.01591 0.60361 0.54288 0.0
C78 C 0.08747 0.64398 0.55207 0.0
C79 C 0.08697 0.6128 0.53725 0.0
N80 N 0.05016 0.50985 0.48503 0.0
C81 C 0.01235 0.46697 0.45836 0.0
C82 C 0.04874 0.44718 0.45483 0.0
C83 C 0.08597 0.45991 0.4661 0.0
C84 C 0.08603 0.49117 0.48082 0.0
C85 C 0.01374 0.49793 0.47345 0.0
H86 H 0.11547 0.49942 0.48884 0.0
H87 H 0.98484 0.51139 0.4758 0.0
H88 H 0.98721 0.58929 0.53988 0.0
H89 H 0.11579 0.60571 0.5299 0.0
C90 C 0.15342 0.55177 0.51123 0.0
C91 C 0.05262 0.47885 0.55568 0.0
C92 C 0.04943 0.62297 0.46069 0.0
C93 C 0.948 0.55153 0.50621 0.0
H94 H 0.13653 0.46422 0.57479 0.0
H95 H 0.19225 0.50495 0.55087 0.0
H96 H 0.1898 0.59828 0.4732 0.0
H97 H 0.1323 0.63785 0.44582 0.0
H98 H 0.96547 0.64313 0.44507 0.0
H99 H 0.90934 0.60447 0.47018 0.0
H100 H 0.91166 0.49825 0.54025 0.0
H101 H 0.96957 0.45882 0.56752 0.0
H102 H 0.98646 0.64097 0.56654 0.0
H103 H 0.11621 0.6594 0.55459 0.0
H104 H 0.98272 0.45809 0.45004 0.0
H105 H 0.11509 0.44592 0.46348 0.0
O106 O 0.98513 0.01664 0.24611 0.0
Cd107 Cd 0.0412 0.00732 0.2664 0.0
Cd108 Cd 0.03975 0.08711 0.26594 0.0
O109 O 0.98306 0.07832 0.24718 0.0
O110 O 0.04292 0.95184 0.27285 0.0
O111 O 0.04283 0.99117 0.30358 0.0
C112 C 0.04351 0.95702 0.2967 0.0
C113 C 0.04167 0.134 0.29523 0.0
C114 C 0.96678 0.04771 0.24048 0.0
C115 C 0.11018 0.05012 0.24134 0.0
O116 O 0.09257 0.08043 0.24639 0.0
O117 O 0.0951 0.01853 0.24821 0.0
O118 O 0.03837 0.1419 0.27123 0.0
O119 O 0.04411 0.09905 0.30286 0.0
O120 O 0.99246 0.0891 0.76938 0.0
Cd121 Cd 0.04618 0.09579 0.7503 0.0
Cd122 Cd 0.04107 0.0166 0.75117 0.0
O123 O 0.98518 0.02797 0.76638 0.0
O124 O 0.04978 0.15107 0.74352 0.0
O125 O 0.04406 0.11136 0.71301 0.0
C126 C 0.04729 0.14556 0.71969 0.0
C127 C 0.04045 0.97033 0.72155 0.0
C128 C 0.97205 0.05911 0.77334 0.0
C129 C 0.11529 0.05103 0.77855 0.0
O130 O 0.09523 0.0213 0.77377 0.0
O131 O 0.10159 0.08289 0.77006 0.0
O132 O 0.03647 0.96209 0.74522 0.0
O133 O 0.04484 0.00523 0.71445 0.0
H134 H 0.38126 0.10604 0.0753 0.0
H135 H 0.32863 0.10707 0.10653 0.0
H136 H 0.37217 0.99991 0.13904 0.0
H137 H 0.42636 0.99953 0.10874 0.0
H138 H 0.26547 0.05915 0.11378 0.0
H139 H 0.36821 0.0595 0.20134 0.0
H140 H 0.38738 0.0684 0.17029 0.0
H141 H 0.37831 0.02108 0.18211 0.0
C142 C 0.38025 0.083 0.08939 0.0
C143 C 0.40834 0.05282 0.08957 0.0
C144 C 0.34989 0.08351 0.10711 0.0
C145 C 0.34688 0.05388 0.1254 0.0
C146 C 0.3745 0.02351 0.12549 0.0
H147 H 0.16073 0.99186 0.2312 0.0
H148 H 0.21927 0.99368 0.20374 0.0
C149 C 0.40509 0.02308 0.10788 0.0
C150 C 0.31371 0.05413 0.14364 0.0
H151 H 0.29612 0.0486 0.20669 0.0
C152 C 0.27223 0.05711 0.13408 0.0
C153 C 0.32258 0.05153 0.17016 0.0
C154 C 0.36655 0.05032 0.18162 0.0
C155 C 0.23937 0.05694 0.1503 0.0
C156 C 0.24826 0.05378 0.17671 0.0
C157 C 0.2896 0.05088 0.18636 0.0
C158 C 0.2147 0.0533 0.19453 0.0
C159 C 0.19525 0.05961 0.13919 0.0
C160 C 0.19342 0.08641 0.1987 0.0
C161 C 0.16014 0.08558 0.21447 0.0
C162 C 0.14743 0.05151 0.22621 0.0
C163 C 0.16957 0.01853 0.22239 0.0
C164 C 0.20305 0.01948 0.20676 0.0
H165 H 0.19334 0.05721 0.11835 0.0
H166 H 0.17594 0.03723 0.14793 0.0
H167 H 0.18179 0.08703 0.14339 0.0
H168 H 0.20221 0.11279 0.18945 0.0
H169 H 0.1438 0.11148 0.21698 0.0
H170 H 0.04034 0.4087 0.53941 0.0
H171 H 0.03838 0.34948 0.56531 0.0
H172 H 0.06436 0.41008 0.63266 0.0
H173 H 0.066 0.46921 0.60674 0.0
H174 H 0.10107 0.31623 0.60008 0.0
H175 H 0.95746 0.35048 0.64699 0.0
H176 H 0.97294 0.37572 0.61865 0.0
H177 H 0.99714 0.38574 0.64893 0.0
C178 C 0.04574 0.4091 0.55975 0.0
C179 C 0.05336 0.4431 0.57126 0.0
C180 C 0.04464 0.37545 0.57448 0.0
C181 C 0.0507 0.37551 0.6009 0.0
C182 C 0.05896 0.40954 0.61233 0.0
H183 H 0.05767 0.21926 0.72915 0.0
H184 H 0.05841 0.27288 0.69873 0.0
C185 C 0.06015 0.44315 0.59761 0.0
C186 C 0.04838 0.34003 0.6166 0.0
H187 H 0.99554 0.29705 0.66397 0.0
C188 C 0.07783 0.3118 0.61392 0.0
C189 C 0.01786 0.33437 0.6345 0.0
C190 C 0.98428 0.363 0.63735 0.0
C191 C 0.07858 0.27859 0.62943 0.0
C192 C 0.0486 0.2733 0.64775 0.0
C193 C 0.01857 0.3012 0.64996 0.0
C194 C 0.04901 0.24003 0.66578 0.0
C195 C 0.11235 0.2501 0.62674 0.0
C196 C 0.04329 0.20364 0.65736 0.0
C197 C 0.04299 0.1727 0.67479 0.0
C198 C 0.04808 0.17777 0.70091 0.0
C199 C 0.05365 0.2143 0.70919 0.0
C200 C 0.05405 0.24505 0.69182 0.0
H201 H 0.13812 0.26203 0.61584 0.0
H202 H 0.12529 0.23922 0.64558 0.0
H203 H 0.09908 0.22609 0.61656 0.0
H204 H 0.03855 0.19919 0.63736 0.0
H205 H 0.03842 0.14494 0.66783 0.0
H206 H 0.6174 0.07696 0.10465 0.0
H207 H 0.67372 0.07811 0.13797 0.0
H208 H 0.75861 0.0337 0.08706 0.0
H209 H 0.70247 0.03312 0.05373 0.0
H210 H 0.72226 0.01845 0.15967 0.0
H211 H 0.81932 0.12648 0.11254 0.0
H212 H 0.76573 0.11848 0.10247 0.0
H213 H 0.80587 0.08798 0.09324 0.0
C214 C 0.64824 0.06771 0.10069 0.0
C215 C 0.65604 0.05516 0.07681 0.0
C216 C 0.68023 0.06827 0.11963 0.0
C217 C 0.72042 0.05647 0.11485 0.0
C218 C 0.72803 0.0436 0.09098 0.0
H219 H 0.92642 0.98895 0.21868 0.0
H220 H 0.86436 0.99165 0.18989 0.0
C221 C 0.69607 0.04309 0.07205 0.0
C222 C 0.7543 0.05693 0.13492 0.0
H223 H 0.85088 0.09239 0.14844 0.0
C224 C 0.7503 0.03479 0.15733 0.0
C225 C 0.79053 0.07868 0.13193 0.0
C226 C 0.79558 0.10455 0.10886 0.0
C227 C 0.78215 0.03304 0.17659 0.0
C228 C 0.81914 0.05354 0.17311 0.0
C229 C 0.82263 0.07644 0.15098 0.0
C230 C 0.85495 0.05139 0.19198 0.0
C231 C 0.77575 0.00953 0.20054 0.0
C232 C 0.87053 0.08414 0.20252 0.0
C233 C 0.9062 0.08277 0.21882 0.0
C234 C 0.92714 0.0486 0.22481 0.0
C235 C 0.91097 0.0157 0.21459 0.0
C236 C 0.87533 0.01713 0.19823 0.0
H237 H 0.74223 0.00456 0.20326 0.0
H238 H 0.79092 0.98184 0.19939 0.0
H239 H 0.78975 0.02309 0.21736 0.0
H240 H 0.85535 0.11089 0.19786 0.0
H241 H 0.91775 0.10865 0.22634 0.0
H242 H 0.98738 0.70556 0.56691 0.0
H243 H 0.98683 0.7598 0.59276 0.0
H244 H 0.11453 0.73827 0.61817 0.0
H245 H 0.11429 0.682 0.59424 0.0
H246 H 0.07447 0.75528 0.65598 0.0
H247 H 0.03241 0.86123 0.57901 0.0
H248 H 0.99378 0.82522 0.58077 0.0
H249 H 0.04573 0.81367 0.57288 0.0
C250 C 0.01526 0.71188 0.57825 0.0
C251 C 0.05094 0.68911 0.57828 0.0
C252 C 0.01513 0.74354 0.59266 0.0
C253 C 0.05098 0.75389 0.60692 0.0
C254 C 0.08656 0.7312 0.60711 0.0
H255 H 0.0751 0.97154 0.67553 0.0
H256 H 0.07948 0.91934 0.64751 0.0
C257 C 0.08649 0.69912 0.59313 0.0
C258 C 0.05092 0.78728 0.62259 0.0
H259 H 0.02568 0.88034 0.62126 0.0
C260 C 0.06416 0.78269 0.64827 0.0
C261 C 0.0383 0.82335 0.61255 0.0
C262 C 0.02723 0.83127 0.58473 0.0
C263 C 0.06429 0.81275 0.66426 0.0
C264 C 0.04898 0.84819 0.65462 0.0
C265 C 0.03674 0.85308 0.6288 0.0
C266 C 0.04518 0.88034 0.67108 0.0
C267 C 0.08174 0.80621 0.69119 0.0
C268 C 0.02351 0.87622 0.69326 0.0
C269 C 0.02176 0.90565 0.70947 0.0
C270 C 0.04052 0.94027 0.70345 0.0
C271 C 0.06042 0.94513 0.68064 0.0
C272 C 0.06294 0.91532 0.66464 0.0
H273 H 0.10463 0.78283 0.69289 0.0
H274 H 0.09719 0.83171 0.69828 0.0
H275 H 0.05613 0.79834 0.70352 0.0
H276 H 0.00814 0.85009 0.6982 0.0
H277 H 0.00561 0.90129 0.72673 0.0
H278 H 0.46427 0.06902 0.91093 0.0
H279 H 0.40638 0.06824 0.87865 0.0
H280 H 0.32563 0.02377 0.93502 0.0
H281 H 0.38339 0.02515 0.96732 0.0
H282 H 0.35682 0.008 0.86262 0.0
H283 H 0.26328 0.11707 0.90415 0.0
H284 H 0.31741 0.10888 0.91343 0.0
H285 H 0.27821 0.07833 0.92576 0.0
C286 C 0.43405 0.05919 0.91628 0.0
C287 C 0.42782 0.0474 0.94143 0.0
C288 C 0.40116 0.05864 0.89793 0.0
C289 C 0.36164 0.04642 0.90455 0.0
C290 C 0.3557 0.03393 0.92964 0.0
H291 H 0.15037 0.98914 0.80434 0.0
H292 H 0.21162 0.98721 0.8339 0.0
C293 C 0.38857 0.03454 0.94799 0.0
C294 C 0.32658 0.04692 0.88522 0.0
H295 H 0.23073 0.08513 0.8703 0.0
C296 C 0.32925 0.0249 0.86422 0.0
C297 C 0.29095 0.06939 0.88724 0.0
C298 C 0.28728 0.09505 0.90872 0.0
C299 C 0.29688 0.02433 0.84534 0.0
C300 C 0.26074 0.04597 0.84776 0.0
C301 C 0.25835 0.06834 0.8686 0.0
C302 C 0.22516 0.04642 0.82875 0.0
C303 C 0.30195 1.00113 0.82276 0.0
C304 C 0.21223 0.08039 0.81625 0.0
C305 C 0.17712 0.08167 0.79953 0.0
C306 C 0.15407 0.04897 0.79502 0.0
C307 C 0.1675 0.0148 0.80727 0.0
C308 C 0.20264 0.0136 0.82408 0.0
H309 H 0.33507 0.99418 0.82051 0.0
H310 H 0.28471 0.97441 0.82535 0.0
H311 H 0.28917 0.01606 0.80509 0.0
H312 H 0.22912 0.10606 0.81964 0.0
H313 H 0.16774 0.10846 0.79042 0.0
H314 H 0.00733 0.43763 0.40909 0.0
H315 H 0.00703 0.38188 0.38397 0.0
H316 H 0.08796 0.32475 0.44111 0.0
H317 H 0.08838 0.38027 0.46641 0.0
H318 H 0.09157 0.34216 0.37055 0.0
H319 H 0.97773 0.25591 0.42349 0.0
H320 H 0.97616 0.3066 0.42221 0.0
H321 H 0.01679 0.28211 0.44076 0.0
C322 C 0.02477 0.41308 0.4164 0.0
C323 C 0.04794 0.41334 0.4397 0.0
C324 C 0.02468 0.38138 0.40201 0.0
C325 C 0.0473 0.34931 0.41082 0.0
C326 C 0.07019 0.34927 0.43411 0.0
H327 H 0.06127 0.12913 0.34643 0.0
H328 H 0.06487 0.18073 0.37528 0.0
C329 C 0.0706 0.38105 0.44842 0.0
C330 C 0.048 0.31625 0.39523 0.0
H331 H 0.00595 0.22931 0.38857 0.0
C332 C 0.07295 0.31741 0.37445 0.0
C333 C 0.0241 0.28398 0.40069 0.0
C334 C 0.99697 0.28175 0.42294 0.0
C335 C 0.07447 0.28706 0.35877 0.0
C336 C 0.04935 0.25518 0.36362 0.0
C337 C 0.02503 0.25378 0.38479 0.0
C338 C 0.04677 0.22371 0.34639 0.0
C339 C 0.10344 0.28932 0.33739 0.0
C340 C 0.03456 0.23059 0.32074 0.0
C341 C 0.03288 0.20137 0.30426 0.0
C342 C 0.04267 0.16444 0.31315 0.0
C343 C 0.05369 0.1573 0.33901 0.0
C344 C 0.05574 0.18673 0.35549 0.0
H345 H 0.12949 0.30902 0.34121 0.0
H346 H 0.1166 0.26138 0.33412 0.0
H347 H 0.08602 0.29991 0.31978 0.0
H348 H 0.02624 0.25865 0.31341 0.0
H349 H 0.02373 0.20778 0.28453 0.0
H350 H 0.6332 0.07128 0.89538 0.0
H351 H 0.68481 0.07087 0.86323 0.0
H352 H 0.77818 0.03258 0.92047 0.0
H353 H 0.7261 0.03119 0.95229 0.0
H354 H 0.75201 0.10869 0.85726 0.0
H355 H 0.79679 0.95922 0.86886 0.0
H356 H 0.75277 0.97758 0.88368 0.0
H357 H 0.80447 0.98158 0.8982 0.0
C358 C 0.66472 0.06251 0.90095 0.0
C359 C 0.67573 0.05092 0.92617 0.0
C360 C 0.69417 0.06229 0.88263 0.0
C361 C 0.73526 0.05091 0.88926 0.0
C362 C 0.74642 0.04019 0.91465 0.0
H363 H 0.95029 0.11106 0.80605 0.0
H364 H 0.89077 0.10941 0.83247 0.0
C365 C 0.71678 0.03966 0.93286 0.0
C366 C 0.76675 0.05158 0.86984 0.0
H367 H 0.84353 0.99977 0.84681 0.0
C368 C 0.7717 0.0847 0.85478 0.0
C369 C 0.79192 0.02009 0.86614 0.0
C370 C 0.78589 0.98252 0.87989 0.0
C371 C 0.80184 0.08756 0.8367 0.0
C372 C 0.82896 0.05695 0.8343 0.0
C373 C 0.82319 0.02348 0.84883 0.0
C374 C 0.86405 0.05906 0.81727 0.0
C375 C 0.80367 0.12319 0.82016 0.0
C376 C 0.86972 0.03076 0.80037 0.0
C377 C 0.90444 0.03108 0.78574 0.0
C378 C 0.9339 0.06 0.78749 0.0
C379 C 0.92779 0.08871 0.80401 0.0
C380 C 0.89355 0.08794 0.81901 0.0
H381 H 0.77287 0.13731 0.81789 0.0
H382 H 0.82583 0.14292 0.82918 0.0
H383 H 0.81401 0.11768 0.8011 0.0
H384 H 0.84752 0.00809 0.79872 0.0
H385 H 0.90833 0.00857 0.77317 0.0
H386 H 0.03977 0.69353 0.47608 0.0
H387 H 0.03773 0.75257 0.44984 0.0
H388 H 0.05665 0.69069 0.38376 0.0
H389 H 0.05841 0.63173 0.41002 0.0
H390 H 0.0996 0.78321 0.41803 0.0
H391 H 0.9514 0.75419 0.36403 0.0
H392 H 0.96756 0.72851 0.39322 0.0
H393 H 0.98953 0.71752 0.36412 0.0
C394 C 0.04348 0.69279 0.45594 0.0
C395 C 0.0492 0.6585 0.44488 0.0
C396 C 0.04236 0.72634 0.44102 0.0
C397 C 0.04653 0.72591 0.41484 0.0
C398 C 0.05271 0.69154 0.40387 0.0
H399 H 0.05001 0.88319 0.28706 0.0
H400 H 0.05109 0.82909 0.31716 0.0
C401 C 0.05392 0.65803 0.41879 0.0
C402 C 0.04473 0.76139 0.39896 0.0
H403 H 0.99046 0.8064 0.34909 0.0
C404 C 0.0756 0.78851 0.40307 0.0
C405 C 0.01326 0.76818 0.37956 0.0
C406 C 0.9783 0.74076 0.37504 0.0
C407 C 0.07672 0.82171 0.38762 0.0
C408 C 0.04566 0.82818 0.36789 0.0
C409 C 0.01431 0.80136 0.36418 0.0
C410 C 0.04602 0.86167 0.35007 0.0
C411 C 0.11196 0.8489 0.39197 0.0
C412 C 0.04265 0.8981 0.35856 0.0
C413 C 0.0422 0.9293 0.34132 0.0
C414 C 0.04474 0.9245 0.31531 0.0
C415 C 0.04798 0.88794 0.30695 0.0
C416 C 0.04857 0.85692 0.32413 0.0
H417 H 0.13817 0.83582 0.40382 0.0
H418 H 0.12379 0.85971 0.37372 0.0
H419 H 0.10056 0.87311 0.40189 0.0
H420 H 0.03981 0.90239 0.37844 0.0
H421 H 0.03943 0.95706 0.34834 0.0
loop_
_geom_bond_atom_site_label_1
_geom_bond_atom_site_label_2
_geom_bond_distance
_geom_bond_site_symmetry_2
_ccdc_geom_bond_type
C0 C1 1.443 . S
C0 N4 1.376 . S
C0 C38 1.389 . S
C1 C0 1.443 . S
C1 C2 1.340 . S
C1 H41 0.951 . S
C2 C1 1.340 . S
C2 C3 1.439 . S
C2 H42 0.950 . S
C3 C2 1.439 . S
C3 N4 1.374 . S
C3 C37 1.395 . S
N4 C0 1.376 . S
N4 C3 1.374 . S
N4 Co5 2.008 . S
Co5 N4 2.008 . S
Co5 N6 1.995 1_554 S
Co5 N11 2.008 1_554 S
Co5 N16 1.995 . S
Co5 N21 2.282 . S
Co5 N27 2.282 1_554 S
N6 Co5 1.995 1_556 S
N6 C7 1.376 . S
N6 C10 1.383 . S
C7 N6 1.376 . S
C7 C8 1.446 . S
C7 C37 1.391 1_556 S
C8 C7 1.446 . S
C8 C9 1.339 . S
C8 H43 0.949 . S
C9 C8 1.339 . S
C9 C10 1.439 . S
C9 H44 0.950 . S
C10 N6 1.383 . S
C10 C9 1.439 . S
C10 C39 1.392 . S
N11 Co5 2.008 1_556 S
N11 C12 1.376 . S
N11 C15 1.374 1_545 S
C12 N11 1.376 . S
C12 C13 1.443 1_545 S
C12 C39 1.389 . S
C13 C12 1.443 1_565 S
C13 C14 1.340 . S
C13 H45 0.951 . S
C14 C13 1.340 . S
C14 C15 1.439 . S
C14 H46 0.950 . S
C15 N11 1.374 1_565 S
C15 C14 1.439 . S
C15 C40 1.395 1_556 S
N16 Co5 1.995 . S
N16 C17 1.376 1_545 S
N16 C20 1.383 . S
C17 N16 1.376 1_565 S
C17 C18 1.446 . S
C17 C40 1.391 . S
C18 C17 1.446 . S
C18 C19 1.339 . S
C18 H47 0.949 . S
C19 C18 1.339 . S
C19 C20 1.439 1_565 S
C19 H48 0.950 . S
C20 N16 1.383 . S
C20 C19 1.439 1_545 S
C20 C38 1.392 . S
N21 Co5 2.282 . S
N21 C24 1.332 . S
N21 C26 1.332 . S
C22 C23 1.386 . S
C22 C25 1.388 . S
C23 C22 1.386 . S
C23 C24 1.382 . S
C23 H49 0.950 . S
C24 N21 1.332 . S
C24 C23 1.382 . S
C24 H35 0.952 . S
C25 C22 1.388 . S
C25 C26 1.382 . S
C25 H50 0.950 . S
C26 N21 1.332 . S
C26 C25 1.382 . S
C26 H36 0.948 . S
N27 Co5 2.282 1_556 S
N27 C31 1.332 . S
N27 C32 1.332 . S
C28 C29 1.388 . S
C28 C32 1.382 . S
C28 H51 0.950 . S
C29 C28 1.388 . S
C29 C30 1.386 . S
C30 C29 1.386 . S
C30 C31 1.382 . S
C30 H52 0.950 . S
C31 N27 1.332 . S
C31 C30 1.382 . S
C31 H33 0.952 . S
C32 N27 1.332 . S
C32 C28 1.382 . S
C32 H34 0.948 . S
H33 C31 0.952 . S
H34 C32 0.948 . S
H35 C24 0.952 . S
H36 C26 0.948 . S
C37 C3 1.395 . S
C37 C7 1.391 1_554 S
C38 C0 1.389 . S
C38 C20 1.392 . S
C39 C10 1.392 . S
C39 C12 1.389 . S
C40 C15 1.395 1_554 S
C40 C17 1.391 . S
H41 C1 0.951 . S
H42 C2 0.950 . S
H43 C8 0.949 . S
H44 C9 0.950 . S
H45 C13 0.951 . S
H46 C14 0.950 . S
H47 C18 0.949 . S
H48 C19 0.950 . S
H49 C23 0.950 . S
H50 C25 0.950 . S
H51 C28 0.950 . S
H52 C30 0.950 . S
C53 C54 1.443 . S
C53 N57 1.376 . S
C53 C91 1.389 . S
C54 C53 1.443 . S
C54 C55 1.340 . S
C54 H94 0.951 . S
C55 C54 1.340 . S
C55 C56 1.439 . S
C55 H95 0.950 . S
C56 C55 1.439 . S
C56 N57 1.374 . S
C56 C90 1.395 . S
N57 C53 1.376 . S
N57 C56 1.374 . S
N57 Co58 2.008 . S
Co58 N57 2.008 . S
Co58 N59 1.995 . S
Co58 N64 2.008 . S
Co58 N69 1.995 . S
Co58 N74 2.282 . S
Co58 N80 2.282 . S
N59 Co58 1.995 . S
N59 C60 1.376 . S
N59 C63 1.383 . S
C60 N59 1.376 . S
C60 C61 1.446 . S
C60 C90 1.391 . S
C61 C60 1.446 . S
C61 C62 1.339 . S
C61 H96 0.949 . S
C62 C61 1.339 . S
C62 C63 1.439 . S
C62 H97 0.950 . S
C63 N59 1.383 . S
C63 C62 1.439 . S
C63 C92 1.392 . S
N64 Co58 2.008 . S
N64 C65 1.376 . S
N64 C68 1.374 1_455 S
C65 N64 1.376 . S
C65 C66 1.443 1_455 S
C65 C92 1.389 . S
C66 C65 1.443 1_655 S
C66 C67 1.340 . S
C66 H98 0.951 . S
C67 C66 1.340 . S
C67 C68 1.439 . S
C67 H99 0.950 . S
C68 N64 1.374 1_655 S
C68 C67 1.439 . S
C68 C93 1.395 . S
N69 Co58 1.995 . S
N69 C70 1.376 1_455 S
N69 C73 1.383 . S
C70 N69 1.376 1_655 S
C70 C71 1.446 . S
C70 C93 1.391 . S
C71 C70 1.446 . S
C71 C72 1.339 . S
C71 H100 0.949 . S
C72 C71 1.339 . S
C72 C73 1.439 1_655 S
C72 H101 0.950 . S
C73 N69 1.383 . S
C73 C72 1.439 1_455 S
C73 C91 1.392 . S
N74 Co58 2.282 . S
N74 C77 1.332 . S
N74 C79 1.332 . S
C75 C76 1.386 . S
C75 C78 1.388 . S
C76 C75 1.386 . S
C76 C77 1.382 . S
C76 H102 0.950 1_455 S
C77 N74 1.332 . S
C77 C76 1.382 . S
C77 H88 0.952 1_455 S
C78 C75 1.388 . S
C78 C79 1.382 . S
C78 H103 0.950 . S
C79 N74 1.332 . S
C79 C78 1.382 . S
C79 H89 0.948 . S
N80 Co58 2.282 . S
N80 C84 1.332 . S
N80 C85 1.332 . S
C81 C82 1.388 . S
C81 C85 1.382 . S
C81 H104 0.950 1_455 S
C82 C81 1.388 . S
C82 C83 1.386 . S
C83 C82 1.386 . S
C83 C84 1.382 . S
C83 H105 0.950 . S
C84 N80 1.332 . S
C84 C83 1.382 . S
C84 H86 0.952 . S
C85 N80 1.332 . S
C85 C81 1.382 . S
C85 H87 0.948 1_455 S
H86 C84 0.952 . S
H87 C85 0.948 1_655 S
H88 C77 0.952 1_655 S
H89 C79 0.948 . S
C90 C56 1.395 . S
C90 C60 1.391 . S
C91 C53 1.389 . S
C91 C73 1.392 . S
C92 C63 1.392 . S
C92 C65 1.389 . S
C93 C68 1.395 . S
C93 C70 1.391 . S
H94 C54 0.951 . S
H95 C55 0.950 . S
H96 C61 0.949 . S
H97 C62 0.950 . S
H98 C66 0.951 . S
H99 C67 0.950 . S
H100 C71 0.949 . S
H101 C72 0.950 . S
H102 C76 0.950 1_655 S
H103 C78 0.950 . S
H104 C81 0.950 1_655 S
H105 C83 0.950 . S
O106 Cd107 2.223 . S
O106 C114 1.315 1_465 S
Cd107 O106 2.223 . S
Cd107 O110 2.297 . S
Cd107 O111 2.439 . S
Cd107 O117 2.240 1_565 S
Cd108 O109 2.240 1_455 S
Cd108 O116 2.223 . S
Cd108 O118 2.297 . S
Cd108 O119 2.439 . S
O109 Cd108 2.240 1_655 S
O109 C114 1.279 . S
O110 Cd107 2.297 . S
O110 C112 1.247 . S
O111 Cd107 2.439 . S
O111 C112 1.208 . S
C112 O110 1.247 . S
C112 O111 1.208 . S
C113 O118 1.247 . S
C113 O119 1.208 . S
C114 O106 1.315 1_645 S
C114 O109 1.279 . S
C115 O116 1.315 . S
C115 O117 1.279 . S
O116 Cd108 2.223 . S
O116 C115 1.315 . S
O117 Cd107 2.240 1_545 S
O117 C115 1.279 . S
O118 Cd108 2.297 . S
O118 C113 1.247 . S
O119 Cd108 2.439 . S
O119 C113 1.208 . S
O120 Cd121 2.223 . S
O120 C128 1.315 . S
Cd121 O120 2.223 . S
Cd121 O124 2.297 . S
Cd121 O125 2.439 . S
Cd121 O131 2.240 . S
Cd122 O123 2.240 . S
Cd122 O130 2.223 . S
Cd122 O132 2.297 1_545 S
Cd122 O133 2.439 . S
O123 Cd122 2.240 . S
O123 C128 1.279 . S
O124 Cd121 2.297 . S
O124 C126 1.247 . S
O125 Cd121 2.439 . S
O125 C126 1.208 . S
C126 O124 1.247 . S
C126 O125 1.208 . S
C127 O132 1.247 . S
C127 O133 1.208 1_565 S
C128 O120 1.315 . S
C128 O123 1.279 . S
C129 O130 1.315 . S
C129 O131 1.279 . S
O130 Cd122 2.223 . S
O130 C129 1.315 . S
O131 Cd121 2.240 . S
O131 C129 1.279 . S
O132 Cd122 2.297 1_565 S
O132 C127 1.247 . S
O133 Cd122 2.439 . S
O133 C127 1.208 1_545 S
H134 C142 0.929 . S
H135 C144 0.930 . S
H136 C146 0.930 . S
H137 C149 0.929 . S
H138 C152 0.930 . S
H139 C154 0.960 . S
H140 C154 0.960 . S
H141 C154 0.960 . S
C142 H134 0.929 . S
C142 C143 1.377 . S
C142 C144 1.384 . S
C143 C142 1.377 . S
C143 C149 1.390 . S
C144 H135 0.930 . S
C144 C142 1.384 . S
C144 C145 1.372 . S
C145 C144 1.372 . S
C145 C146 1.400 . S
C145 C150 1.490 . S
C146 H136 0.930 . S
C146 C145 1.400 . S
C146 C149 1.386 . S
H147 C163 0.930 . S
H148 C164 0.931 . S
C149 H137 0.929 . S
C149 C143 1.390 . S
C149 C146 1.386 . S
C150 C145 1.490 . S
C150 C152 1.395 . S
C150 C153 1.403 . S
H151 C157 0.930 . S
C152 H138 0.930 . S
C152 C150 1.395 . S
C152 C155 1.403 . S
C153 C150 1.403 . S
C153 C154 1.524 . S
C153 C157 1.400 . S
C154 H139 0.960 . S
C154 H140 0.960 . S
C154 H141 0.960 . S
C154 C153 1.524 . S
C155 C152 1.403 . S
C155 C156 1.392 . S
C155 C159 1.495 . S
C156 C155 1.392 . S
C156 C157 1.385 . S
C156 C158 1.478 . S
C157 H151 0.930 . S
C157 C153 1.400 . S
C157 C156 1.385 . S
C158 C156 1.478 . S
C158 C160 1.381 . S
C158 C164 1.383 . S
C159 C155 1.495 . S
C159 H165 0.959 . S
C159 H166 0.961 . S
C159 H167 0.960 . S
C160 C158 1.381 . S
C160 C161 1.394 . S
C160 H168 0.930 . S
C161 C160 1.394 . S
C161 C162 1.383 . S
C161 H169 0.929 . S
C162 C161 1.383 . S
C162 C163 1.377 . S
C163 H147 0.930 . S
C163 C162 1.377 . S
C163 C164 1.379 . S
C164 H148 0.931 . S
C164 C158 1.383 . S
C164 C163 1.379 . S
H165 C159 0.959 . S
H166 C159 0.961 . S
H167 C159 0.960 . S
H168 C160 0.930 . S
H169 C161 0.929 . S
H170 C178 0.929 . S
H171 C180 0.930 . S
H172 C182 0.930 . S
H173 C185 0.929 . S
H174 C188 0.930 . S
H175 C190 0.963 . S
H176 C190 0.960 1_655 S
H177 C190 0.960 . S
C178 H170 0.929 . S
C178 C179 1.377 . S
C178 C180 1.384 . S
C179 C178 1.377 . S
C179 C185 1.390 . S
C180 H171 0.930 . S
C180 C178 1.384 . S
C180 C181 1.372 . S
C181 C180 1.372 . S
C181 C182 1.400 . S
C181 C186 1.490 . S
C182 H172 0.930 . S
C182 C181 1.400 . S
C182 C185 1.386 . S
H183 C199 0.930 . S
H184 C200 0.931 . S
C185 H173 0.929 . S
C185 C179 1.390 . S
C185 C182 1.386 . S
C186 C181 1.490 . S
C186 C188 1.395 . S
C186 C189 1.403 . S
H187 C193 0.930 . S
C188 H174 0.930 . S
C188 C186 1.395 . S
C188 C191 1.403 . S
C189 C186 1.403 . S
C189 C190 1.524 . S
C189 C193 1.400 . S
C190 H175 0.963 . S
C190 H176 0.960 1_455 S
C190 H177 0.960 . S
C190 C189 1.524 . S
C191 C188 1.403 . S
C191 C192 1.392 . S
C191 C195 1.495 . S
C192 C191 1.392 . S
C192 C193 1.385 . S
C192 C194 1.478 . S
C193 H187 0.930 . S
C193 C189 1.400 . S
C193 C192 1.385 . S
C194 C192 1.478 . S
C194 C196 1.381 . S
C194 C200 1.383 . S
C195 C191 1.495 . S
C195 H201 0.959 . S
C195 H202 0.961 . S
C195 H203 0.960 . S
C196 C194 1.381 . S
C196 C197 1.394 . S
C196 H204 0.930 1_455 S
C197 C196 1.394 . S
C197 C198 1.383 . S
C197 H205 0.930 1_455 S
C198 C197 1.383 . S
C198 C199 1.377 . S
C199 H183 0.930 . S
C199 C198 1.377 . S
C199 C200 1.379 . S
C200 H184 0.931 . S
C200 C194 1.383 . S
C200 C199 1.379 . S
H201 C195 0.959 . S
H202 C195 0.961 . S
H203 C195 0.960 . S
H204 C196 0.930 1_655 S
H205 C197 0.930 1_655 S
H206 C214 0.929 . S
H207 C216 0.930 . S
H208 C218 0.930 . S
H209 C221 0.929 . S
H210 C224 0.930 . S
H211 C226 0.960 . S
H212 C226 0.960 . S
H213 C226 0.960 . S
C214 H206 0.929 . S
C214 C215 1.377 . S
C214 C216 1.384 . S
C215 C214 1.377 . S
C215 C221 1.390 . S
C216 H207 0.930 . S
C216 C214 1.384 . S
C216 C217 1.372 . S
C217 C216 1.372 . S
C217 C218 1.400 . S
C217 C222 1.490 . S
C218 H208 0.930 . S
C218 C217 1.400 . S
C218 C221 1.386 . S
H219 C235 0.930 . S
H220 C236 0.931 . S
C221 H209 0.929 . S
C221 C215 1.390 . S
C221 C218 1.386 . S
C222 C217 1.490 . S
C222 C224 1.395 . S
C222 C225 1.403 . S
H223 C229 0.930 . S
C224 H210 0.930 . S
C224 C222 1.395 . S
C224 C227 1.403 . S
C225 C222 1.403 . S
C225 C226 1.524 . S
C225 C229 1.400 . S
C226 H211 0.960 . S
C226 H212 0.960 . S
C226 H213 0.960 . S
C226 C225 1.524 . S
C227 C224 1.403 . S
C227 C228 1.392 . S
C227 C231 1.495 . S
C228 C227 1.392 . S
C228 C229 1.385 . S
C228 C230 1.478 . S
C229 H223 0.930 . S
C229 C225 1.400 . S
C229 C228 1.385 . S
C230 C228 1.478 . S
C230 C232 1.381 . S
C230 C236 1.383 1_545 S
C231 C227 1.495 . S
C231 H237 0.959 . S
C231 H238 0.961 . S
C231 H239 0.960 . S
C232 C230 1.381 . S
C232 C233 1.394 . S
C232 H240 0.930 . S
C233 C232 1.394 . S
C233 C234 1.383 . S
C233 H241 0.929 . S
C234 C233 1.383 . S
C234 C235 1.377 1_545 S
C235 H219 0.930 . S
C235 C234 1.377 1_565 S
C235 C236 1.379 . S
C236 H220 0.931 . S
C236 C230 1.383 1_565 S
C236 C235 1.379 . S
H237 C231 0.959 . S
H238 C231 0.961 . S
H239 C231 0.960 . S
H240 C232 0.930 . S
H241 C233 0.929 . S
H242 C250 0.929 1_655 S
H243 C252 0.930 1_655 S
H244 C254 0.930 . S
H245 C257 0.929 . S
H246 C260 0.930 . S
H247 C262 0.960 . S
H248 C262 0.960 . S
H249 C262 0.960 . S
C250 H242 0.929 1_455 S
C250 C251 1.377 . S
C250 C252 1.384 . S
C251 C250 1.377 . S
C251 C257 1.390 . S
C252 H243 0.930 1_455 S
C252 C250 1.384 . S
C252 C253 1.372 . S
C253 C252 1.372 . S
C253 C254 1.400 . S
C253 C258 1.490 . S
C254 H244 0.930 . S
C254 C253 1.400 . S
C254 C257 1.386 . S
H255 C271 0.930 . S
H256 C272 0.931 . S
C257 H245 0.929 . S
C257 C251 1.390 . S
C257 C254 1.386 . S
C258 C253 1.490 . S
C258 C260 1.395 . S
C258 C261 1.403 . S
H259 C265 0.930 . S
C260 H246 0.930 . S
C260 C258 1.395 . S
C260 C263 1.403 . S
C261 C258 1.403 . S
C261 C262 1.524 . S
C261 C265 1.400 . S
C262 H247 0.960 . S
C262 H248 0.960 . S
C262 H249 0.960 . S
C262 C261 1.524 . S
C263 C260 1.403 . S
C263 C264 1.392 . S
C263 C267 1.495 . S
C264 C263 1.392 . S
C264 C265 1.385 . S
C264 C266 1.478 . S
C265 H259 0.930 . S
C265 C261 1.400 . S
C265 C264 1.385 . S
C266 C264 1.478 . S
C266 C268 1.381 . S
C266 C272 1.383 . S
C267 C263 1.495 . S
C267 H273 0.959 . S
C267 H274 0.961 . S
C267 H275 0.960 . S
C268 C266 1.381 . S
C268 C269 1.394 . S
C268 H276 0.930 . S
C269 C268 1.394 . S
C269 C270 1.383 . S
C269 H277 0.929 . S
C270 C269 1.383 . S
C270 C271 1.377 . S
C271 H255 0.930 . S
C271 C270 1.377 . S
C271 C272 1.379 . S
C272 H256 0.931 . S
C272 C266 1.383 . S
C272 C271 1.379 . S
H273 C267 0.959 . S
H274 C267 0.961 . S
H275 C267 0.960 . S
H276 C268 0.930 . S
H277 C269 0.929 . S
H278 C286 0.929 . S
H279 C288 0.930 . S
H280 C290 0.930 . S
H281 C293 0.929 . S
H282 C296 0.930 . S
H283 C298 0.960 . S
H284 C298 0.960 . S
H285 C298 0.960 . S
C286 H278 0.929 . S
C286 C287 1.377 . S
C286 C288 1.384 . S
C287 C286 1.377 . S
C287 C293 1.390 . S
C288 H279 0.930 . S
C288 C286 1.384 . S
C288 C289 1.372 . S
C289 C288 1.372 . S
C289 C290 1.400 . S
C289 C294 1.490 . S
C290 H280 0.930 . S
C290 C289 1.400 . S
C290 C293 1.386 . S
H291 C307 0.930 1_565 S
H292 C308 0.931 1_565 S
C293 H281 0.929 . S
C293 C287 1.390 . S
C293 C290 1.386 . S
C294 C289 1.490 . S
C294 C296 1.395 . S
C294 C297 1.403 . S
H295 C301 0.930 . S
C296 H282 0.930 . S
C296 C294 1.395 . S
C296 C299 1.403 . S
C297 C294 1.403 . S
C297 C298 1.524 . S
C297 C301 1.400 . S
C298 H283 0.960 . S
C298 H284 0.960 . S
C298 H285 0.960 . S
C298 C297 1.524 . S
C299 C296 1.403 . S
C299 C300 1.392 . S
C299 C303 1.495 . S
C300 C299 1.392 . S
C300 C301 1.385 . S
C300 C302 1.478 . S
C301 H295 0.930 . S
C301 C297 1.400 . S
C301 C300 1.385 . S
C302 C300 1.478 . S
C302 C304 1.381 . S
C302 C308 1.383 . S
C303 C299 1.495 . S
C303 H309 0.959 . S
C303 H310 0.961 . S
C303 H311 0.960 . S
C304 C302 1.381 . S
C304 C305 1.394 . S
C304 H312 0.930 . S
C305 C304 1.394 . S
C305 C306 1.383 . S
C305 H313 0.929 . S
C306 C305 1.383 . S
C306 C307 1.377 . S
C307 H291 0.930 1_545 S
C307 C306 1.377 . S
C307 C308 1.379 . S
C308 H292 0.931 1_545 S
C308 C302 1.383 . S
C308 C307 1.379 . S
H309 C303 0.959 . S
H310 C303 0.961 . S
H311 C303 0.960 . S
H312 C304 0.930 . S
H313 C305 0.929 . S
H314 C322 0.929 1_655 S
H315 C324 0.930 1_655 S
H316 C326 0.930 . S
H317 C329 0.929 . S
H318 C332 0.930 . S
H319 C334 0.960 . S
H320 C334 0.960 . S
H321 C334 0.960 . S
C322 H314 0.929 1_455 S
C322 C323 1.377 . S
C322 C324 1.384 . S
C323 C322 1.377 . S
C323 C329 1.390 . S
C324 H315 0.930 1_455 S
C324 C322 1.384 . S
C324 C325 1.372 . S
C325 C324 1.372 . S
C325 C326 1.400 . S
C325 C330 1.490 . S
C326 H316 0.930 . S
C326 C325 1.400 . S
C326 C329 1.386 . S
H327 C343 0.930 . S
H328 C344 0.931 . S
C329 H317 0.929 . S
C329 C323 1.390 . S
C329 C326 1.386 . S
C330 C325 1.490 . S
C330 C332 1.395 . S
C330 C333 1.403 . S
H331 C337 0.930 . S
C332 H318 0.930 . S
C332 C330 1.395 . S
C332 C335 1.403 . S
C333 C330 1.403 . S
C333 C334 1.524 . S
C333 C337 1.400 . S
C334 H319 0.960 . S
C334 H320 0.960 . S
C334 H321 0.960 . S
C334 C333 1.524 . S
C335 C332 1.403 . S
C335 C336 1.392 . S
C335 C339 1.495 . S
C336 C335 1.392 . S
C336 C337 1.385 . S
C336 C338 1.478 . S
C337 H331 0.930 . S
C337 C333 1.400 . S
C337 C336 1.385 . S
C338 C336 1.478 . S
C338 C340 1.381 . S
C338 C344 1.383 . S
C339 C335 1.495 . S
C339 H345 0.959 . S
C339 H346 0.961 . S
C339 H347 0.960 . S
C340 C338 1.381 . S
C340 C341 1.394 . S
C340 H348 0.925 1_455 S
C341 C340 1.394 . S
C341 C342 1.383 . S
C341 H349 0.929 . S
C342 C341 1.383 . S
C342 C343 1.377 . S
C343 H327 0.930 . S
C343 C342 1.377 . S
C343 C344 1.379 . S
C344 H328 0.931 . S
C344 C338 1.383 . S
C344 C343 1.379 . S
H345 C339 0.959 . S
H346 C339 0.961 . S
H347 C339 0.960 . S
H348 C340 0.925 1_655 S
H349 C341 0.929 . S
H350 C358 0.929 . S
H351 C360 0.930 . S
H352 C362 0.930 . S
H353 C365 0.929 . S
H354 C368 0.930 . S
H355 C370 0.960 1_565 S
H356 C370 0.960 1_565 S
H357 C370 0.960 . S
C358 H350 0.929 . S
C358 C359 1.377 . S
C358 C360 1.384 . S
C359 C358 1.377 . S
C359 C365 1.390 . S
C360 H351 0.930 . S
C360 C358 1.384 . S
C360 C361 1.372 . S
C361 C360 1.372 . S
C361 C362 1.400 . S
C361 C366 1.490 . S
C362 H352 0.930 . S
C362 C361 1.400 . S
C362 C365 1.386 . S
H363 C379 0.911 1_455 S
H364 C380 0.931 . S
C365 H353 0.929 . S
C365 C359 1.390 . S
C365 C362 1.386 . S
C366 C361 1.490 . S
C366 C368 1.395 . S
C366 C369 1.403 . S
H367 C373 0.930 . S
C368 H354 0.930 . S
C368 C366 1.395 . S
C368 C371 1.403 . S
C369 C366 1.403 . S
C369 C370 1.524 . S
C369 C373 1.400 . S
C370 H355 0.960 1_545 S
C370 H356 0.960 1_545 S
C370 H357 0.960 . S
C370 C369 1.524 . S
C371 C368 1.403 . S
C371 C372 1.392 . S
C371 C375 1.495 . S
C372 C371 1.392 . S
C372 C373 1.385 . S
C372 C374 1.478 . S
C373 H367 0.930 . S
C373 C369 1.400 . S
C373 C372 1.385 . S
C374 C372 1.478 . S
C374 C376 1.381 . S
C374 C380 1.383 . S
C375 C371 1.495 . S
C375 H381 0.959 . S
C375 H382 0.961 . S
C375 H383 0.960 . S
C376 C374 1.381 . S
C376 C377 1.394 . S
C376 H384 0.930 . S
C377 C376 1.394 . S
C377 C378 1.383 . S
C377 H385 0.929 . S
C378 C377 1.383 . S
C378 C379 1.377 . S
C379 H363 0.911 1_655 S
C379 C378 1.377 . S
C379 C380 1.379 . S
C380 H364 0.931 . S
C380 C374 1.383 . S
C380 C379 1.379 . S
H381 C375 0.959 . S
H382 C375 0.961 . S
H383 C375 0.960 . S
H384 C376 0.930 . S
H385 C377 0.929 . S
H386 C394 0.929 . S
H387 C396 0.930 . S
H388 C398 0.930 . S
H389 C401 0.929 . S
H390 C404 0.930 . S
H391 C406 0.960 . S
H392 C406 0.960 . S
H393 C406 0.960 1_455 S
C394 H386 0.929 . S
C394 C395 1.377 . S
C394 C396 1.384 . S
C395 C394 1.377 . S
C395 C401 1.390 . S
C396 H387 0.930 . S
C396 C394 1.384 . S
C396 C397 1.372 . S
C397 C396 1.372 . S
C397 C398 1.400 . S
C397 C402 1.490 . S
C398 H388 0.930 . S
C398 C397 1.400 . S
C398 C401 1.386 . S
H399 C415 0.930 . S
H400 C416 0.931 . S
C401 H389 0.929 . S
C401 C395 1.390 . S
C401 C398 1.386 . S
C402 C397 1.490 . S
C402 C404 1.395 . S
C402 C405 1.403 . S
H403 C409 0.930 1_655 S
C404 H390 0.930 . S
C404 C402 1.395 . S
C404 C407 1.403 . S
C405 C402 1.403 . S
C405 C406 1.524 1_455 S
C405 C409 1.400 . S
C406 H391 0.960 . S
C406 H392 0.960 . S
C406 H393 0.960 1_655 S
C406 C405 1.524 1_655 S
C407 C404 1.403 . S
C407 C408 1.392 . S
C407 C411 1.495 . S
C408 C407 1.392 . S
C408 C409 1.385 . S
C408 C410 1.478 . S
C409 H403 0.930 1_455 S
C409 C405 1.400 . S
C409 C408 1.385 . S
C410 C408 1.478 . S
C410 C412 1.370 1_455 S
C410 C416 1.383 . S
C411 C407 1.495 . S
C411 H417 0.959 . S
C411 H418 0.961 . S
C411 H419 0.960 . S
C412 C410 1.370 1_655 S
C412 C413 1.396 . S
C412 H420 0.940 . S
C413 C412 1.396 . S
C413 C414 1.383 1_655 S
C413 H421 0.929 . S
C414 C413 1.383 1_455 S
C414 C415 1.377 . S
C415 H399 0.930 . S
C415 C414 1.377 . S
C415 C416 1.379 . S
C416 H400 0.931 . S
C416 C410 1.383 . S
C416 C415 1.379 . S
H417 C411 0.959 . S
H418 C411 0.961 . S
H419 C411 0.960 . S
H420 C412 0.940 . S
H421 C413 0.929 . S
C162 C115 1.591 . S
C143 C22 1.590 . S
C198 C126 1.540 . S
C179 C91 1.608 . S
C234 C114 1.606 . S
C215 C38 1.612 . S
C270 C127 1.502 . S
C251 C75 1.584 . S
C306 C129 1.604 . S
C287 C39 1.610 . S
C342 C113 1.505 . S
C323 C82 1.586 . S
C378 C128 1.580 1_655 S
C359 C29 1.588 . S
C395 C92 1.606 . S
C414 C112 1.540 . S
