# Generated by pormake.
# Topology hwx, (6,3)-cn, num edge types: 1
# Building blocks:
#     Node 0, Type 0, BuildingBlock: OJICUG_clean_sbu_0, # of connection points: 6
#     Node 1, Type 0, BuildingBlock: OJICUG_clean_sbu_0, # of connection points: 6
#     Node 2, Type 0, BuildingBlock: OJICUG_clean_sbu_0, # of connection points: 6
#     Node 3, Type 0, BuildingBlock: OJICUG_clean_sbu_0, # of connection points: 6
#     Node 4, Type 1, BuildingBlock: OLANEW_clean_sbu_2, # of connection points: 3
#     Node 5, Type 1, BuildingBlock: OLANEW_clean_sbu_2, # of connection points: 3
#     Node 6, Type 1, BuildingBlock: OLANEW_clean_sbu_2, # of connection points: 3
#     Node 7, Type 1, BuildingBlock: OLANEW_clean_sbu_2, # of connection points: 3
#     Node 8, Type 1, BuildingBlock: OLANEW_clean_sbu_2, # of connection points: 3
#     Node 9, Type 1, BuildingBlock: OLANEW_clean_sbu_2, # of connection points: 3
#     Node 10, Type 1, BuildingBlock: OLANEW_clean_sbu_2, # of connection points: 3
#     Node 11, Type 1, BuildingBlock: OLANEW_clean_sbu_2, # of connection points: 3
#     Edge 12, Type (0, 1), BuildingBlock: XIVTED_clean_linker_0, # of connection points: 2
#     Edge 13, Type (0, 1), BuildingBlock: XIVTED_clean_linker_0, # of connection points: 2
#     Edge 14, Type (0, 1), BuildingBlock: XIVTED_clean_linker_0, # of connection points: 2
#     Edge 15, Type (0, 1), BuildingBlock: XIVTED_clean_linker_0, # of connection points: 2
#     Edge 16, Type (0, 1), BuildingBlock: XIVTED_clean_linker_0, # of connection points: 2
#     Edge 17, Type (0, 1), BuildingBlock: XIVTED_clean_linker_0, # of connection points: 2
#     Edge 18, Type (0, 1), BuildingBlock: XIVTED_clean_linker_0, # of connection points: 2
#     Edge 19, Type (0, 1), BuildingBlock: XIVTED_clean_linker_0, # of connection points: 2
#     Edge 20, Type (0, 1), BuildingBlock: XIVTED_clean_linker_0, # of connection points: 2
#     Edge 21, Type (0, 1), BuildingBlock: XIVTED_clean_linker_0, # of connection points: 2
#     Edge 22, Type (0, 1), BuildingBlock: XIVTED_clean_linker_0, # of connection points: 2
#     Edge 23, Type (0, 1), BuildingBlock: XIVTED_clean_linker_0, # of connection points: 2
#     Edge 24, Type (0, 1), BuildingBlock: XIVTED_clean_linker_0, # of connection points: 2
#     Edge 25, Type (0, 1), BuildingBlock: XIVTED_clean_linker_0, # of connection points: 2
#     Edge 26, Type (0, 1), BuildingBlock: XIVTED_clean_linker_0, # of connection points: 2
#     Edge 27, Type (0, 1), BuildingBlock: XIVTED_clean_linker_0, # of connection points: 2
#     Edge 28, Type (0, 1), BuildingBlock: XIVTED_clean_linker_0, # of connection points: 2
#     Edge 29, Type (0, 1), BuildingBlock: XIVTED_clean_linker_0, # of connection points: 2
#     Edge 30, Type (0, 1), BuildingBlock: XIVTED_clean_linker_0, # of connection points: 2
#     Edge 31, Type (0, 1), BuildingBlock: XIVTED_clean_linker_0, # of connection points: 2
#     Edge 32, Type (0, 1), BuildingBlock: XIVTED_clean_linker_0, # of connection points: 2
#     Edge 33, Type (0, 1), BuildingBlock: XIVTED_clean_linker_0, # of connection points: 2
#     Edge 34, Type (0, 1), BuildingBlock: XIVTED_clean_linker_0, # of connection points: 2
#     Edge 35, Type (0, 1), BuildingBlock: XIVTED_clean_linker_0, # of connection points: 2
# Relax obj value: 0.021
# Max RMSD: 0.063
# Mean RMSD: 0.061
data_MOF--net-hwx--node1-OJICUG_clean_sbu_0--node2-OLANEW_clean_sbu_2--edge1-XIVTED_clean_linker_0
_symmetry_space_group_name_H-M    P1
_symmetry_Int_Tables_number       1
_symmetry_cell_setting            triclinic
loop_
_symmetry_equiv_pos_as_xyz
'x, y, z'
_cell_length_a     55.764887
_cell_length_b     55.748817
_cell_length_c     21.83766
_cell_angle_alpha  85.569905
_cell_angle_beta   94.512759
_cell_angle_gamma 90.009758
loop_
_atom_site_label
_atom_site_type_symbol
_atom_site_fract_x
_atom_site_fract_y
_atom_site_fract_z
_atom_type_partial_charge
Sc0 Sc 0.22996 0.22808 0.11407 0.0
Sc1 Sc 0.19035 0.19424 0.02125 0.0
Sc2 Sc 0.2282 0.23758 0.95274 0.0
O3 O 0.21613 0.21998 0.02933 0.0
C4 C 0.22501 0.28003 0.04237 0.0
C5 C 0.17411 0.22105 0.13431 0.0
C6 C 0.17204 0.23395 0.91415 0.0
C7 C 0.2256 0.17116 0.13319 0.0
C8 C 0.27689 0.23005 0.03897 0.0
C9 C 0.22381 0.18329 0.91483 0.0
O10 O 0.22569 0.26631 0.09182 0.0
O11 O 0.16894 0.20964 0.08684 0.0
O12 O 0.19224 0.24438 0.91112 0.0
O13 O 0.23589 0.19082 0.1448 0.0
O14 O 0.26565 0.23268 0.98586 0.0
O15 O 0.20933 0.17643 0.95485 0.0
O16 O 0.26624 0.22889 0.08836 0.0
O17 O 0.20828 0.16989 0.09206 0.0
O18 O 0.23123 0.20483 0.90787 0.0
O19 O 0.19529 0.22783 0.15032 0.0
O20 O 0.2263 0.27222 0.98954 0.0
O21 O 0.16906 0.21527 0.94986 0.0
Sc22 Sc 0.27396 0.73188 0.4563 0.0
Sc23 Sc 0.31383 0.69282 0.54943 0.0
Sc24 Sc 0.26957 0.72516 0.61667 0.0
O25 O 0.28578 0.71662 0.54082 0.0
C26 C 0.26948 0.77613 0.53873 0.0
C27 C 0.33074 0.73206 0.44746 0.0
C28 C 0.32553 0.72509 0.66258 0.0
C29 C 0.28393 0.67733 0.42865 0.0
C30 C 0.22469 0.7204 0.51863 0.0
C31 C 0.27993 0.66891 0.64776 0.0
O32 O 0.27242 0.76754 0.4876 0.0
O33 O 0.3348 0.71472 0.48824 0.0
O34 O 0.30386 0.73188 0.66573 0.0
O35 O 0.27411 0.69788 0.41551 0.0
O36 O 0.23399 0.7195 0.57392 0.0
O37 O 0.29661 0.66781 0.6117 0.0
O38 O 0.23684 0.72512 0.47228 0.0
O39 O 0.29866 0.67276 0.47556 0.0
O40 O 0.26888 0.68833 0.65456 0.0
O41 O 0.30975 0.74029 0.43142 0.0
O42 O 0.26767 0.76303 0.58837 0.0
O43 O 0.3316 0.71069 0.62402 0.0
Sc44 Sc 0.76954 0.77821 0.93811 0.0
Sc45 Sc 0.81589 0.80836 0.01985 0.0
Sc46 Sc 0.77505 0.7715 0.09958 0.0
O47 O 0.7869 0.78599 0.01925 0.0
C48 C 0.72527 0.78216 0.02159 0.0
C49 C 0.77964 0.83403 0.91341 0.0
C50 C 0.78783 0.82548 0.13056 0.0
C51 C 0.82468 0.77857 0.90553 0.0
C52 C 0.7705 0.7273 0.01389 0.0
C53 C 0.83196 0.7685 0.12893 0.0
O54 O 0.73411 0.78059 0.97019 0.0
O55 O 0.79859 0.83357 0.95004 0.0
O56 O 0.77777 0.80528 0.14131 0.0
O57 O 0.80243 0.77431 0.89494 0.0
O58 O 0.7706 0.73609 0.06604 0.0
O59 O 0.8365 0.78592 0.09045 0.0
O60 O 0.77122 0.7402 0.96345 0.0
O61 O 0.83293 0.78986 0.95102 0.0
O62 O 0.8108 0.7608 0.13568 0.0
O63 O 0.76649 0.81566 0.90609 0.0
O64 O 0.73798 0.78063 0.07263 0.0
O65 O 0.80181 0.82947 0.08766 0.0
Sc66 Sc 0.73375 0.27254 0.54667 0.0
Sc67 Sc 0.68972 0.30982 0.46209 0.0
Sc68 Sc 0.72818 0.27393 0.385 0.0
O69 O 0.71717 0.28541 0.46458 0.0
C70 C 0.77841 0.27746 0.46342 0.0
C71 C 0.72786 0.32848 0.56464 0.0
C72 C 0.71864 0.32979 0.34813 0.0
C73 C 0.67926 0.27591 0.58131 0.0
C74 C 0.72916 0.22532 0.47309 0.0
C75 C 0.6708 0.27561 0.35843 0.0
O76 O 0.76926 0.2758 0.51499 0.0
O77 O 0.7099 0.33177 0.52511 0.0
O78 O 0.72925 0.31003 0.34187 0.0
O79 O 0.70062 0.26778 0.58986 0.0
O80 O 0.72856 0.23671 0.4202 0.0
O81 O 0.66694 0.29038 0.39827 0.0
O82 O 0.73065 0.23573 0.5231 0.0
O83 O 0.67247 0.29103 0.53678 0.0
O84 O 0.69176 0.26865 0.34854 0.0
O85 O 0.73823 0.30816 0.57712 0.0
O86 O 0.76589 0.27729 0.41232 0.0
O87 O 0.70358 0.33199 0.38809 0.0
O88 O 0.22001 0.53154 0.96428 0.0
Cd89 Cd 0.20874 0.50873 0.05837 0.0
O90 O 0.25829 0.52136 0.9708 0.0
Cd91 Cd 0.25649 0.50843 0.06668 0.0
O92 O 0.25805 0.5271 0.15079 0.0
C93 C 0.24704 0.5472 0.14447 0.0
O94 O 0.23487 0.55346 0.09167 0.0
C95 C 0.24032 0.53213 0.94143 0.0
C96 C 0.21117 0.45884 0.05446 0.0
O97 O 0.19306 0.47087 0.02853 0.0
O98 O 0.22816 0.47035 0.08194 0.0
O99 O 0.97862 0.66897 0.36546 0.0
Cd100 Cd 0.00984 0.64405 0.42394 0.0
O101 O 0.97781 0.69331 0.43941 0.0
Cd102 Cd 0.96185 0.72073 0.49038 0.0
O103 O 0.94269 0.73615 0.56179 0.0
C104 C 0.92519 0.7238 0.58056 0.0
O105 O 0.91979 0.70366 0.55522 0.0
C106 C 0.96964 0.68721 0.38689 0.0
C107 C 0.05446 0.66617 0.43941 0.0
O108 O 0.04846 0.65517 0.39114 0.0
O109 O 0.03914 0.66709 0.48 0.0
O110 O 0.73166 0.47855 0.02131 0.0
Cd111 Cd 0.72966 0.50661 0.92943 0.0
O112 O 0.77038 0.47078 0.0232 0.0
Cd113 Cd 0.77215 0.489 0.93186 0.0
O114 O 0.76702 0.47545 0.84097 0.0
C115 C 0.78127 0.45851 0.83216 0.0
O116 O 0.79886 0.45278 0.87443 0.0
C117 C 0.75043 0.46799 0.04717 0.0
C118 C 0.74219 0.55319 0.95678 0.0
O119 O 0.72089 0.54524 0.96307 0.0
O120 O 0.75766 0.53909 0.93769 0.0
O121 O 0.03033 0.27686 0.57339 0.0
Cd122 Cd 0.00795 0.28312 0.4724 0.0
O123 O 0.04571 0.31325 0.56694 0.0
Cd124 Cd 0.03282 0.3189 0.46999 0.0
O125 O 0.04537 0.30228 0.39093 0.0
C126 C 0.05855 0.28403 0.40822 0.0
O127 O 0.06182 0.27758 0.46744 0.0
C128 C 0.04331 0.29305 0.59719 0.0
C129 C 0.95822 0.28182 0.4756 0.0
O130 O 0.96997 0.2632 0.46367 0.0
O131 O 0.97003 0.30092 0.48688 0.0
O132 O 0.72438 0.97353 0.57562 0.0
Cd133 Cd 0.71293 0.99601 0.47669 0.0
O134 O 0.76298 0.98203 0.58159 0.0
Cd135 Cd 0.76101 0.99389 0.48421 0.0
O136 O 0.76279 0.97494 0.40119 0.0
C137 C 0.75089 0.95549 0.40188 0.0
O138 O 0.73773 0.95004 0.4483 0.0
C139 C 0.74493 0.97236 0.60549 0.0
C140 C 0.71764 0.04577 0.47957 0.0
O141 O 0.69925 0.03492 0.49973 0.0
O142 O 0.73381 0.03313 0.45838 0.0
O143 O 0.52445 0.17772 0.15671 0.0
Cd144 Cd 0.49364 0.15473 0.10155 0.0
O145 O 0.52437 0.20435 0.07759 0.0
Cd146 Cd 0.54039 0.23296 0.02051 0.0
O147 O 0.56075 0.24629 0.94377 0.0
C148 C 0.57671 0.23191 0.92953 0.0
O149 O 0.57997 0.21122 0.9623 0.0
C150 C 0.53288 0.19683 0.13134 0.0
C151 C 0.44894 0.1775 0.08586 0.0
O152 O 0.45552 0.16453 0.13537 0.0
O153 O 0.46366 0.17995 0.04362 0.0
O154 O 0.24987 0.027 0.47392 0.0
Cd155 Cd 0.25455 0.00376 0.57381 0.0
O156 O 0.28837 0.03579 0.47592 0.0
Cd157 Cd 0.29376 0.02337 0.57303 0.0
O158 O 0.28492 0.0417 0.65305 0.0
C159 C 0.28773 0.06432 0.64508 0.0
O160 O 0.29655 0.07315 0.59404 0.0
C161 C 0.26747 0.03673 0.44789 0.0
C162 C 0.25684 0.95442 0.56255 0.0
O163 O 0.23702 0.9646 0.57215 0.0
O164 O 0.27556 0.96758 0.55801 0.0
O165 O 0.47173 0.77502 0.97071 0.0
Cd166 Cd 0.49812 0.78107 0.06298 0.0
O167 O 0.45111 0.80848 0.97365 0.0
Cd168 Cd 0.46842 0.81637 0.06275 0.0
O169 O 0.456 0.81231 0.15501 0.0
C170 C 0.45965 0.79266 0.18792 0.0
O171 O 0.47353 0.77621 0.16874 0.0
C172 C 0.45508 0.78937 0.9478 0.0
C173 C 0.54684 0.78352 0.04348 0.0
O174 O 0.53607 0.76325 0.04882 0.0
O175 O 0.53453 0.80275 0.04652 0.0
H176 H 0.17809 0.22291 0.2582 0.0
H177 H 0.05564 0.29073 0.28137 0.0
H178 H 0.12682 0.23266 0.09962 0.0
H179 H 0.09254 0.24908 0.43545 0.0
H180 H 0.08169 0.27223 0.21208 0.0
H181 H 0.14749 0.23539 0.32308 0.0
C182 C 0.16029 0.22759 0.23714 0.0
C183 C 0.15493 0.22684 0.17356 0.0
C184 C 0.08377 0.267 0.26101 0.0
C185 C 0.11989 0.24144 0.2474 0.0
C186 C 0.06902 0.27757 0.30053 0.0
C187 C 0.07211 0.27164 0.36435 0.0
C188 C 0.10189 0.25076 0.28586 0.0
C189 C 0.08961 0.25438 0.3867 0.0
C190 C 0.14281 0.2346 0.27419 0.0
C191 C 0.13156 0.23294 0.1486 0.0
N192 N 0.10402 0.24481 0.34764 0.0
N193 N 0.1149 0.24036 0.18555 0.0
H194 H 0.30457 0.626 0.66658 0.0
H195 H 0.20789 0.56367 0.87838 0.0
H196 H 0.23944 0.66081 0.7095 0.0
H197 H 0.28087 0.53777 0.87825 0.0
H198 H 0.21623 0.59513 0.79896 0.0
H199 H 0.2933 0.58985 0.72829 0.0
C200 C 0.28785 0.62603 0.68868 0.0
C201 C 0.27305 0.6466 0.68334 0.0
C202 C 0.23033 0.58239 0.81586 0.0
C203 C 0.25999 0.60519 0.75344 0.0
C204 C 0.22556 0.5643 0.86094 0.0
C205 C 0.24381 0.5482 0.88567 0.0
C206 C 0.25348 0.58435 0.79503 0.0
C207 C 0.26632 0.54992 0.86099 0.0
C208 C 0.28145 0.60538 0.72389 0.0
C209 C 0.25156 0.64551 0.71289 0.0
N210 N 0.27059 0.56782 0.81739 0.0
N211 N 0.2457 0.62519 0.74671 0.0
H212 H 0.83379 0.72259 0.18267 0.0
H213 H 0.95931 0.73558 0.37708 0.0
H214 H 0.8759 0.78736 0.16451 0.0
H215 H 0.93352 0.66772 0.31651 0.0
H216 H 0.92547 0.75599 0.31499 0.0
H217 H 0.86709 0.70317 0.2477 0.0
C218 C 0.85002 0.73275 0.1925 0.0
C219 C 0.85212 0.75661 0.16794 0.0
C220 C 0.92725 0.73663 0.31562 0.0
C221 C 0.8901 0.73456 0.24295 0.0
C222 C 0.94636 0.72498 0.35139 0.0
C223 C 0.94905 0.69994 0.35214 0.0
C224 C 0.91056 0.72303 0.28151 0.0
C225 C 0.93208 0.68707 0.31705 0.0
C226 C 0.86901 0.72163 0.22941 0.0
C227 C 0.87361 0.76888 0.1821 0.0
N228 N 0.91346 0.69873 0.28352 0.0
N229 N 0.89175 0.75777 0.21908 0.0
H230 H 0.7696 0.33065 0.63872 0.0
H231 H 0.7428 0.46109 0.74512 0.0
H232 H 0.70798 0.37363 0.56533 0.0
H233 H 0.80693 0.41959 0.80472 0.0
H234 H 0.73109 0.43095 0.67285 0.0
H235 H 0.78454 0.3643 0.69494 0.0
C236 C 0.75917 0.34716 0.63435 0.0
C237 C 0.73734 0.34917 0.5976 0.0
C238 C 0.74785 0.4286 0.70127 0.0
C239 C 0.75448 0.38797 0.66209 0.0
C240 C 0.7546 0.44584 0.7424 0.0
C241 C 0.77575 0.44272 0.78158 0.0
C242 C 0.76232 0.40807 0.69956 0.0
C243 C 0.79036 0.42264 0.77589 0.0
C244 C 0.7678 0.36646 0.66634 0.0
C245 C 0.72482 0.37119 0.59332 0.0
N246 N 0.78324 0.40598 0.7362 0.0
N247 N 0.73349 0.38968 0.62557 0.0
H248 H 0.62562 0.29501 0.32842 0.0
H249 H 0.57005 0.17571 0.20348 0.0
H250 H 0.66888 0.23226 0.30888 0.0
H251 H 0.54192 0.24521 0.13188 0.0
H252 H 0.60367 0.19557 0.25759 0.0
H253 H 0.59175 0.27649 0.27044 0.0
C254 C 0.62797 0.27737 0.31203 0.0
C255 C 0.6501 0.26517 0.32331 0.0
C256 C 0.59019 0.20647 0.22979 0.0
C257 C 0.61155 0.24391 0.25824 0.0
C258 C 0.57101 0.19518 0.19913 0.0
C259 C 0.55339 0.20887 0.16273 0.0
C260 C 0.59146 0.23167 0.2253 0.0
C261 C 0.5554 0.23404 0.15871 0.0
C262 C 0.60874 0.26692 0.27879 0.0
C263 C 0.65221 0.24239 0.30088 0.0
N264 N 0.57404 0.2447 0.19015 0.0
N265 N 0.63314 0.23241 0.26997 0.0
H266 H 0.25264 0.19159 0.81986 0.0
H267 H 0.26279 0.05346 0.74753 0.0
H268 H 0.21659 0.13425 0.92019 0.0
H269 H 0.29378 0.11284 0.64263 0.0
H270 H 0.24723 0.08203 0.81495 0.0
H271 H 0.26897 0.16229 0.75744 0.0
C272 C 0.24807 0.17283 0.8288 0.0
C273 C 0.23313 0.16545 0.87548 0.0
C274 C 0.2575 0.08874 0.77726 0.0
C275 C 0.252 0.13158 0.80377 0.0
C276 C 0.26647 0.07245 0.73894 0.0
C277 C 0.27955 0.08078 0.68924 0.0
C278 C 0.26173 0.11347 0.76578 0.0
C279 C 0.28373 0.10557 0.68018 0.0
C280 C 0.25747 0.15605 0.79303 0.0
C281 C 0.22795 0.14081 0.88463 0.0
N282 N 0.27482 0.12099 0.71792 0.0
N283 N 0.2374 0.12474 0.84912 0.0
H284 H 0.33156 0.77445 0.37532 0.0
H285 H 0.46195 0.75214 0.26761 0.0
H286 H 0.37697 0.71487 0.45073 0.0
H287 H 0.42243 0.81869 0.22458 0.0
H288 H 0.43222 0.73901 0.33935 0.0
H289 H 0.36531 0.7915 0.32251 0.0
C290 C 0.34863 0.76495 0.38089 0.0
C291 C 0.35133 0.74305 0.41708 0.0
C292 C 0.43024 0.75662 0.31485 0.0
C293 C 0.39012 0.76254 0.35666 0.0
C294 C 0.44724 0.76416 0.27395 0.0
C295 C 0.44451 0.78642 0.2394 0.0
C296 C 0.41024 0.77135 0.32069 0.0
C297 C 0.42517 0.8013 0.24982 0.0
C298 C 0.36796 0.77479 0.35099 0.0
C299 C 0.374 0.73173 0.42311 0.0
N300 N 0.40859 0.79334 0.28884 0.0
N301 N 0.39245 0.74149 0.39271 0.0
H302 H 0.73697 0.84534 0.8464 0.0
H303 H 0.78605 0.96564 0.68268 0.0
H304 H 0.80671 0.87483 0.89716 0.0
H305 H 0.71202 0.94304 0.65985 0.0
H306 H 0.79329 0.93427 0.76662 0.0
H307 H 0.72693 0.88217 0.78186 0.0
C308 C 0.75017 0.85958 0.84418 0.0
C309 C 0.77284 0.85683 0.87681 0.0
C310 C 0.77538 0.93641 0.74384 0.0
C311 C 0.76142 0.89914 0.80277 0.0
C312 C 0.77121 0.95437 0.69595 0.0
C313 C 0.74846 0.95679 0.66355 0.0
C314 C 0.75675 0.92061 0.75896 0.0
C315 C 0.7299 0.94173 0.6831 0.0
C316 C 0.74436 0.88069 0.80752 0.0
C317 C 0.78906 0.87606 0.87261 0.0
N318 N 0.73454 0.92407 0.72888 0.0
N319 N 0.78313 0.89629 0.83574 0.0
H320 H 0.87105 0.79319 0.88696 0.0
H321 H 0.88477 0.70317 0.62305 0.0
H322 H 0.81599 0.74421 0.82464 0.0
H323 H 0.93374 0.76194 0.65221 0.0
H324 H 0.86169 0.71574 0.70513 0.0
H325 H 0.89668 0.77964 0.80957 0.0
C326 C 0.86442 0.77951 0.85741 0.0
C327 C 0.84127 0.76995 0.86207 0.0
C328 C 0.87747 0.72595 0.69367 0.0
C329 C 0.8704 0.75441 0.7739 0.0
C330 C 0.8907 0.71875 0.64673 0.0
C331 C 0.91118 0.73157 0.63046 0.0
C332 C 0.88475 0.74609 0.72508 0.0
C333 C 0.91798 0.7516 0.66304 0.0
C334 C 0.87899 0.77189 0.81312 0.0
C335 C 0.83359 0.7523 0.82245 0.0
N336 N 0.90479 0.75826 0.7089 0.0
N337 N 0.84809 0.74515 0.78023 0.0
H338 H 0.69468 0.37298 0.3329 0.0
H339 H 0.78329 0.43379 0.09609 0.0
H340 H 0.75561 0.33602 0.27242 0.0
H341 H 0.71256 0.4616 0.11906 0.0
H342 H 0.77685 0.40106 0.17423 0.0
H343 H 0.70422 0.40843 0.26682 0.0
C344 C 0.71009 0.37229 0.30582 0.0
C345 C 0.72426 0.35136 0.30795 0.0
C346 C 0.76285 0.41446 0.16248 0.0
C347 C 0.73537 0.39207 0.23253 0.0
C348 C 0.76656 0.43325 0.11824 0.0
C349 C 0.74835 0.45036 0.10065 0.0
C350 C 0.74085 0.41289 0.18967 0.0
C351 C 0.72702 0.44871 0.13082 0.0
C352 C 0.71551 0.39257 0.2681 0.0
C353 C 0.74404 0.35164 0.27186 0.0
N354 N 0.72382 0.43023 0.17364 0.0
N355 N 0.74901 0.37168 0.23564 0.0
H356 H 0.12748 0.21379 0.89426 0.0
H357 H 0.07795 0.32084 0.6524 0.0
H358 H 0.16851 0.277 0.84388 0.0
H359 H 0.04359 0.2516 0.67364 0.0
H360 H 0.10759 0.30792 0.73673 0.0
H361 H 0.09349 0.23006 0.82636 0.0
C362 C 0.12936 0.23113 0.86916 0.0
C363 C 0.15105 0.24392 0.87441 0.0
C364 C 0.09341 0.29565 0.72336 0.0
C365 C 0.11205 0.2627 0.79685 0.0
C366 C 0.07635 0.30307 0.67545 0.0
C367 C 0.05838 0.28718 0.65532 0.0
C368 C 0.09248 0.27221 0.75155 0.0
C369 C 0.05724 0.26439 0.68718 0.0
C370 C 0.10991 0.2404 0.8304 0.0
C371 C 0.15229 0.26636 0.84086 0.0
N372 N 0.0742 0.2575 0.73333 0.0
N373 N 0.1331 0.27499 0.80342 0.0
H374 H 0.25176 0.67895 0.32675 0.0
H375 H 0.27538 0.54283 0.25357 0.0
H376 H 0.30109 0.63087 0.43883 0.0
H377 H 0.22621 0.59153 0.14329 0.0
H378 H 0.28338 0.57393 0.3256 0.0
H379 H 0.24101 0.6464 0.26172 0.0
C380 C 0.2604 0.66158 0.33771 0.0
C381 C 0.27748 0.65775 0.38831 0.0
C382 C 0.27073 0.57773 0.28583 0.0
C383 C 0.2651 0.62025 0.31387 0.0
C384 C 0.26609 0.55995 0.24482 0.0
C385 C 0.25023 0.56464 0.19208 0.0
C386 C 0.25944 0.60033 0.27394 0.0
C387 C 0.23868 0.58715 0.1831 0.0
C388 C 0.25417 0.64294 0.30058 0.0
C389 C 0.2879 0.63474 0.40025 0.0
N390 N 0.24363 0.60418 0.22337 0.0
N391 N 0.28159 0.61688 0.36322 0.0
H392 H 0.32252 0.76276 0.73567 0.0
H393 H 0.45868 0.75084 0.87807 0.0
H394 H 0.37272 0.71076 0.68196 0.0
H395 H 0.41267 0.81113 0.90223 0.0
H396 H 0.42759 0.73588 0.80571 0.0
H397 H 0.35514 0.78014 0.79898 0.0
C398 C 0.34034 0.75489 0.7374 0.0
C399 C 0.34481 0.73518 0.70351 0.0
C400 C 0.42441 0.75252 0.82635 0.0
C401 C 0.3823 0.75515 0.77565 0.0
C402 C 0.4422 0.76113 0.86753 0.0
C403 C 0.43826 0.78221 0.89661 0.0
C404 C 0.4024 0.76493 0.81463 0.0
C405 C 0.41652 0.79478 0.88106 0.0
C406 C 0.35901 0.76495 0.77322 0.0
C407 C 0.36837 0.72593 0.70724 0.0
N408 N 0.39932 0.7858 0.84169 0.0
N409 N 0.38618 0.73593 0.74279 0.0
H410 H 0.80617 0.87136 0.12584 0.0
H411 H 0.72809 0.9125 0.39208 0.0
H412 H 0.75656 0.82529 0.22127 0.0
H413 H 0.78108 0.9579 0.30798 0.0
H414 H 0.73632 0.88151 0.32374 0.0
H415 H 0.79577 0.90412 0.18738 0.0
C416 C 0.79314 0.86807 0.15975 0.0
C417 C 0.78231 0.84543 0.16845 0.0
C418 C 0.74609 0.89828 0.31993 0.0
C419 C 0.77023 0.88296 0.23871 0.0
C420 C 0.74134 0.91605 0.35887 0.0
C421 C 0.75403 0.93779 0.35607 0.0
C422 C 0.76372 0.90219 0.2778 0.0
C423 C 0.77092 0.94138 0.31186 0.0
C424 C 0.78719 0.88683 0.19477 0.0
C425 C 0.76549 0.84234 0.21299 0.0
N426 N 0.77538 0.92368 0.27468 0.0
N427 N 0.75999 0.86086 0.24634 0.0
H428 H 0.63558 0.29619 0.59889 0.0
H429 H 0.61402 0.20625 0.89313 0.0
H430 H 0.68401 0.23834 0.66962 0.0
H431 H 0.57206 0.27097 0.84443 0.0
H432 H 0.6375 0.21589 0.80512 0.0
H433 H 0.60953 0.28507 0.68167 0.0
C434 C 0.64063 0.28102 0.63137 0.0
C435 C 0.66212 0.26827 0.62744 0.0
C436 C 0.62317 0.22802 0.8136 0.0
C437 C 0.63245 0.25557 0.72227 0.0
C438 C 0.60973 0.22252 0.86392 0.0
C439 C 0.59109 0.23788 0.87637 0.0
C440 C 0.61793 0.249 0.77505 0.0
C441 C 0.58635 0.25868 0.83672 0.0
C442 C 0.62582 0.27479 0.6788 0.0
C443 C 0.66775 0.24883 0.67101 0.0
N444 N 0.59969 0.26364 0.78777 0.0
N445 N 0.65306 0.24313 0.71656 0.0
H446 H 0.26793 0.16348 0.20433 0.0
H447 H 0.22595 0.04122 0.37157 0.0
H448 H 0.20194 0.12813 0.14695 0.0
H449 H 0.29884 0.06731 0.39165 0.0
H450 H 0.2172 0.07163 0.2859 0.0
H451 H 0.27993 0.12767 0.27097 0.0
C452 C 0.25599 0.14815 0.20553 0.0
C453 C 0.23377 0.14892 0.17043 0.0
C454 C 0.2352 0.07044 0.30846 0.0
C455 C 0.2474 0.10783 0.24695 0.0
C456 C 0.24023 0.05307 0.35736 0.0
C457 C 0.2631 0.05188 0.38936 0.0
C458 C 0.25307 0.08694 0.29203 0.0
C459 C 0.28091 0.06763 0.36865 0.0
C460 C 0.26292 0.12763 0.24336 0.0
C461 C 0.21919 0.12837 0.17336 0.0
N462 N 0.27542 0.08474 0.32195 0.0
N463 N 0.22612 0.10877 0.21157 0.0
H464 H 0.23638 0.30629 0.14166 0.0
H465 H 0.18503 0.43041 0.97748 0.0
H466 H 0.20776 0.31353 0.95156 0.0
H467 H 0.24014 0.42717 0.12823 0.0
H468 H 0.18784 0.38663 0.97536 0.0
H469 H 0.23253 0.34993 0.14563 0.0
C470 C 0.22921 0.31703 0.10088 0.0
C471 C 0.22249 0.30628 0.04611 0.0
C472 C 0.1993 0.39555 0.00884 0.0
C473 C 0.21784 0.35603 0.05061 0.0
C474 C 0.19766 0.42048 0.01023 0.0
C475 C 0.21244 0.43242 0.05295 0.0
C476 C 0.21553 0.38245 0.05117 0.0
C477 C 0.22852 0.41868 0.09429 0.0
C478 C 0.22713 0.3419 0.10312 0.0
C479 C 0.21336 0.32109 0.99458 0.0
N480 N 0.22955 0.39439 0.0926 0.0
N481 N 0.21118 0.3452 0.99818 0.0
H482 H 0.19074 0.71377 0.60308 0.0
H483 H 0.08893 0.67158 0.35708 0.0
H484 H 0.1995 0.71415 0.4082 0.0
H485 H 0.07528 0.68447 0.54365 0.0
H486 H 0.12972 0.68677 0.37557 0.0
H487 H 0.14859 0.70263 0.58306 0.0
C488 C 0.18382 0.71162 0.55608 0.0
C489 C 0.19879 0.71485 0.50731 0.0
C490 C 0.11777 0.68642 0.41238 0.0
C491 C 0.15056 0.70197 0.48419 0.0
C492 C 0.09447 0.67772 0.40187 0.0
C493 C 0.07869 0.67668 0.44896 0.0
C494 C 0.12547 0.69394 0.47061 0.0
C495 C 0.08685 0.68494 0.50603 0.0
C496 C 0.15973 0.70531 0.54469 0.0
C497 C 0.18873 0.71188 0.44733 0.0
N498 N 0.10974 0.69306 0.51541 0.0
N499 N 0.16532 0.70547 0.43758 0.0
H500 H 0.75104 0.69467 0.09595 0.0
H501 H 0.77989 0.57992 0.91704 0.0
H502 H 0.78573 0.70001 0.92556 0.0
H503 H 0.71893 0.58308 0.02635 0.0
H504 H 0.78882 0.62196 0.93525 0.0
H505 H 0.7458 0.6514 0.08639 0.0
C506 C 0.75777 0.6867 0.05692 0.0
C507 C 0.76869 0.70095 0.01124 0.0
C508 C 0.77357 0.61336 0.9554 0.0
C509 C 0.76294 0.65163 0.00047 0.0
C510 C 0.76851 0.5894 0.94526 0.0
C511 C 0.74854 0.57809 0.96991 0.0
C512 C 0.75882 0.62591 0.99137 0.0
C513 C 0.73437 0.59121 0.00607 0.0
C514 C 0.75466 0.66209 0.05137 0.0
C515 C 0.777 0.68972 0.96149 0.0
N516 N 0.73982 0.61443 0.01589 0.0
N517 N 0.774 0.66569 0.95749 0.0
H518 H 0.80675 0.26341 0.37578 0.0
H519 H 0.92919 0.31187 0.53034 0.0
H520 H 0.81021 0.29489 0.55075 0.0
H521 H 0.92707 0.25113 0.41893 0.0
H522 H 0.88513 0.31139 0.52685 0.0
H523 H 0.85076 0.26454 0.37877 0.0
C524 C 0.81675 0.27072 0.41456 0.0
C525 C 0.80485 0.27901 0.46319 0.0
C526 C 0.89438 0.29817 0.50334 0.0
C527 C 0.855 0.2805 0.46653 0.0
C528 C 0.91945 0.29846 0.50514 0.0
C529 C 0.93174 0.28146 0.47502 0.0
C530 C 0.88155 0.2811 0.47007 0.0
C531 C 0.91827 0.26445 0.4431 0.0
C532 C 0.84182 0.27121 0.41638 0.0
C533 C 0.81871 0.28817 0.51252 0.0
N534 N 0.89385 0.26482 0.44102 0.0
N535 N 0.84307 0.28881 0.51277 0.0
H536 H 0.71455 0.19472 0.56714 0.0
H537 H 0.74726 0.07508 0.4141 0.0
H538 H 0.74091 0.19546 0.38633 0.0
H539 H 0.69353 0.07644 0.54568 0.0
H540 H 0.75052 0.11887 0.41363 0.0
H541 H 0.71201 0.15074 0.57016 0.0
C542 C 0.71992 0.18564 0.52825 0.0
C543 C 0.72793 0.19876 0.47634 0.0
C544 C 0.73803 0.10955 0.44257 0.0
C545 C 0.72525 0.14861 0.47985 0.0
C546 C 0.73622 0.08458 0.44308 0.0
C547 C 0.72005 0.07214 0.47987 0.0
C548 C 0.72386 0.12211 0.4799 0.0
C549 C 0.70613 0.08537 0.5164 0.0
C550 C 0.71834 0.1606 0.52992 0.0
C551 C 0.73451 0.18607 0.4271 0.0
N552 N 0.70845 0.10966 0.51577 0.0
N553 N 0.73316 0.16169 0.43022 0.0
H554 H 0.30683 0.22617 0.14446 0.0
H555 H 0.42565 0.19833 0.97947 0.0
H556 H 0.30749 0.22606 0.94674 0.0
H557 H 0.41717 0.1821 0.17304 0.0
H558 H 0.3845 0.21455 0.96637 0.0
H559 H 0.34948 0.21655 0.15496 0.0
C560 C 0.31594 0.22429 0.10305 0.0
C561 C 0.30337 0.22668 0.04455 0.0
C562 C 0.39175 0.20754 0.01169 0.0
C563 C 0.35251 0.21551 0.0566 0.0
C564 C 0.41522 0.19835 0.01926 0.0
C565 C 0.42478 0.18871 0.0774 0.0
C566 C 0.37792 0.20729 0.06275 0.0
C567 C 0.41049 0.18917 0.12732 0.0
C568 C 0.34036 0.21873 0.10921 0.0
C569 C 0.31637 0.22425 0.99276 0.0
N570 N 0.3878 0.19827 0.11881 0.0
N571 N 0.34024 0.21863 2e-05 0.0
H572 H 0.28778 0.8111 0.46061 0.0
H573 H 0.22553 0.92009 0.60279 0.0
H574 H 0.24722 0.80122 0.621 0.0
H575 H 0.29112 0.9291 0.51118 0.0
H576 H 0.22852 0.87654 0.59623 0.0
H577 H 0.28462 0.85481 0.46519 0.0
C578 C 0.27816 0.81812 0.49662 0.0
C579 C 0.26779 0.80252 0.54059 0.0
C580 C 0.24223 0.88809 0.5776 0.0
C581 C 0.26388 0.85231 0.5455 0.0
C582 C 0.24049 0.91291 0.58105 0.0
C583 C 0.25815 0.92818 0.55764 0.0
C584 C 0.2615 0.87855 0.54949 0.0
C585 C 0.2772 0.91792 0.53011 0.0
C586 C 0.27646 0.84301 0.49932 0.0
C587 C 0.25562 0.81258 0.58644 0.0
N588 N 0.27831 0.89372 0.52642 0.0
N589 N 0.25384 0.83685 0.58743 0.0
H590 H 0.69988 0.8034 0.10556 0.0
H591 H 0.57428 0.75064 0.99388 0.0
H592 H 0.69074 0.76619 0.93923 0.0
H593 H 0.57856 0.81858 0.07615 0.0
H594 H 0.61783 0.75189 0.98514 0.0
H595 H 0.65594 0.80532 0.10754 0.0
C596 C 0.68863 0.79571 0.06944 0.0
C597 C 0.69892 0.78464 0.02212 0.0
C598 C 0.60916 0.76657 0.00476 0.0
C599 C 0.64895 0.78639 0.02485 0.0
C600 C 0.5844 0.76583 0.00999 0.0
C601 C 0.57287 0.78456 0.03568 0.0
C602 C 0.62254 0.78585 0.02688 0.0
C603 C 0.58679 0.80386 0.05574 0.0
C604 C 0.66364 0.79691 0.07047 0.0
C605 C 0.68354 0.77501 0.97632 0.0
N606 N 0.611 0.80388 0.05164 0.0
N607 N 0.65931 0.77583 0.97925 0.0
loop_
_geom_bond_atom_site_label_1
_geom_bond_atom_site_label_2
_geom_bond_distance
_geom_bond_site_symmetry_2
_ccdc_geom_bond_type
Sc0 O3 2.025 . S
Sc0 O10 2.105 . S
Sc0 O13 2.105 . S
Sc0 O16 2.105 . S
Sc0 O19 2.105 . S
Sc1 O3 2.025 . S
Sc1 O11 2.105 . S
Sc1 O15 2.105 1_554 S
Sc1 O17 2.105 . S
Sc1 O21 2.105 1_554 S
Sc2 O3 2.025 1_556 S
Sc2 O12 2.105 . S
Sc2 O14 2.105 . S
Sc2 O18 2.105 . S
Sc2 O20 2.105 . S
O3 Sc0 2.025 . S
O3 Sc1 2.025 . S
O3 Sc2 2.025 1_554 S
C4 O10 1.268 . S
C4 O20 1.268 1_554 S
C5 O11 1.268 . S
C5 O19 1.268 . S
C6 O12 1.268 . S
C6 O21 1.268 . S
C7 O13 1.268 . S
C7 O17 1.268 . S
C8 O14 1.268 1_554 S
C8 O16 1.268 . S
C9 O15 1.268 . S
C9 O18 1.268 . S
O10 Sc0 2.105 . S
O10 C4 1.268 . S
O11 Sc1 2.105 . S
O11 C5 1.268 . S
O12 Sc2 2.105 . S
O12 C6 1.268 . S
O13 Sc0 2.105 . S
O13 C7 1.268 . S
O14 Sc2 2.105 . S
O14 C8 1.268 1_556 S
O15 Sc1 2.105 1_556 S
O15 C9 1.268 . S
O16 Sc0 2.105 . S
O16 C8 1.268 . S
O17 Sc1 2.105 . S
O17 C7 1.268 . S
O18 Sc2 2.105 . S
O18 C9 1.268 . S
O19 Sc0 2.105 . S
O19 C5 1.268 . S
O20 Sc2 2.105 . S
O20 C4 1.268 1_556 S
O21 Sc1 2.105 1_556 S
O21 C6 1.268 . S
Sc22 O25 2.025 . S
Sc22 O32 2.105 . S
Sc22 O35 2.105 . S
Sc22 O38 2.105 . S
Sc22 O41 2.105 . S
Sc23 O25 2.025 . S
Sc23 O33 2.105 . S
Sc23 O37 2.105 . S
Sc23 O39 2.105 . S
Sc23 O43 2.105 . S
Sc24 O25 2.025 . S
Sc24 O34 2.105 . S
Sc24 O36 2.105 . S
Sc24 O40 2.105 . S
Sc24 O42 2.105 . S
O25 Sc22 2.025 . S
O25 Sc23 2.025 . S
O25 Sc24 2.025 . S
C26 O32 1.268 . S
C26 O42 1.268 . S
C27 O33 1.268 . S
C27 O41 1.268 . S
C28 O34 1.268 . S
C28 O43 1.268 . S
C29 O35 1.268 . S
C29 O39 1.268 . S
C30 O36 1.268 . S
C30 O38 1.268 . S
C31 O37 1.268 . S
C31 O40 1.268 . S
O32 Sc22 2.105 . S
O32 C26 1.268 . S
O33 Sc23 2.105 . S
O33 C27 1.268 . S
O34 Sc24 2.105 . S
O34 C28 1.268 . S
O35 Sc22 2.105 . S
O35 C29 1.268 . S
O36 Sc24 2.105 . S
O36 C30 1.268 . S
O37 Sc23 2.105 . S
O37 C31 1.268 . S
O38 Sc22 2.105 . S
O38 C30 1.268 . S
O39 Sc23 2.105 . S
O39 C29 1.268 . S
O40 Sc24 2.105 . S
O40 C31 1.268 . S
O41 Sc22 2.105 . S
O41 C27 1.268 . S
O42 Sc24 2.105 . S
O42 C26 1.268 . S
O43 Sc23 2.105 . S
O43 C28 1.268 . S
Sc44 O47 2.025 1_556 S
Sc44 O54 2.105 . S
Sc44 O57 2.105 . S
Sc44 O60 2.105 . S
Sc44 O63 2.105 . S
Sc45 O47 2.025 . S
Sc45 O55 2.105 1_554 S
Sc45 O59 2.105 . S
Sc45 O61 2.105 1_554 S
Sc45 O65 2.105 . S
Sc46 O47 2.025 . S
Sc46 O56 2.105 . S
Sc46 O58 2.105 . S
Sc46 O62 2.105 . S
Sc46 O64 2.105 . S
O47 Sc44 2.025 1_554 S
O47 Sc45 2.025 . S
O47 Sc46 2.025 . S
C48 O54 1.268 1_554 S
C48 O64 1.268 . S
C49 O55 1.268 . S
C49 O63 1.268 . S
C50 O56 1.268 . S
C50 O65 1.268 . S
C51 O57 1.268 . S
C51 O61 1.268 . S
C52 O58 1.268 . S
C52 O60 1.268 1_554 S
C53 O59 1.268 . S
C53 O62 1.268 . S
O54 Sc44 2.105 . S
O54 C48 1.268 1_556 S
O55 Sc45 2.105 1_556 S
O55 C49 1.268 . S
O56 Sc46 2.105 . S
O56 C50 1.268 . S
O57 Sc44 2.105 . S
O57 C51 1.268 . S
O58 Sc46 2.105 . S
O58 C52 1.268 . S
O59 Sc45 2.105 . S
O59 C53 1.268 . S
O60 Sc44 2.105 . S
O60 C52 1.268 1_556 S
O61 Sc45 2.105 1_556 S
O61 C51 1.268 . S
O62 Sc46 2.105 . S
O62 C53 1.268 . S
O63 Sc44 2.105 . S
O63 C49 1.268 . S
O64 Sc46 2.105 . S
O64 C48 1.268 . S
O65 Sc45 2.105 . S
O65 C50 1.268 . S
Sc66 O69 2.025 . S
Sc66 O76 2.105 . S
Sc66 O79 2.105 . S
Sc66 O82 2.105 . S
Sc66 O85 2.105 . S
Sc67 O69 2.025 . S
Sc67 O77 2.105 . S
Sc67 O81 2.105 . S
Sc67 O83 2.105 . S
Sc67 O87 2.105 . S
Sc68 O69 2.025 . S
Sc68 O78 2.105 . S
Sc68 O80 2.105 . S
Sc68 O84 2.105 . S
Sc68 O86 2.105 . S
O69 Sc66 2.025 . S
O69 Sc67 2.025 . S
O69 Sc68 2.025 . S
C70 O76 1.268 . S
C70 O86 1.268 . S
C71 O77 1.268 . S
C71 O85 1.268 . S
C72 O78 1.268 . S
C72 O87 1.268 . S
C73 O79 1.268 . S
C73 O83 1.268 . S
C74 O80 1.268 . S
C74 O82 1.268 . S
C75 O81 1.268 . S
C75 O84 1.268 . S
O76 Sc66 2.105 . S
O76 C70 1.268 . S
O77 Sc67 2.105 . S
O77 C71 1.268 . S
O78 Sc68 2.105 . S
O78 C72 1.268 . S
O79 Sc66 2.105 . S
O79 C73 1.268 . S
O80 Sc68 2.105 . S
O80 C74 1.268 . S
O81 Sc67 2.105 . S
O81 C75 1.268 . S
O82 Sc66 2.105 . S
O82 C74 1.268 . S
O83 Sc67 2.105 . S
O83 C73 1.268 . S
O84 Sc68 2.105 . S
O84 C75 1.268 . S
O85 Sc66 2.105 . S
O85 C71 1.268 . S
O86 Sc68 2.105 . S
O86 C70 1.268 . S
O87 Sc67 2.105 . S
O87 C72 1.268 . S
O88 Cd89 2.300 1_556 S
O88 C95 1.275 . S
Cd89 O88 2.300 1_554 S
Cd89 O97 2.381 1_554 S
Cd89 O98 2.378 . S
O90 Cd91 2.385 1_556 S
O90 C95 1.255 . S
Cd91 O90 2.385 1_554 S
Cd91 O92 2.317 . S
O92 Cd91 2.317 . S
O92 C93 1.232 . S
C93 O92 1.232 . S
C93 O94 1.218 . S
O94 C93 1.218 . S
C95 O88 1.275 . S
C95 O90 1.255 . S
C96 O97 1.258 1_554 S
C96 O98 1.256 . S
O97 Cd89 2.381 1_556 S
O97 C96 1.258 1_556 S
O98 Cd89 2.378 . S
O98 C96 1.256 . S
O99 Cd100 2.300 1_655 S
O99 C106 1.275 . S
Cd100 O99 2.300 1_455 S
Cd100 O108 2.381 . S
Cd100 O109 2.378 . S
O101 Cd102 2.385 . S
O101 C106 1.255 . S
Cd102 O101 2.385 . S
Cd102 O103 2.317 . S
O103 Cd102 2.317 . S
O103 C104 1.232 . S
C104 O103 1.232 . S
C104 O105 1.218 . S
O105 C104 1.218 . S
C106 O99 1.275 . S
C106 O101 1.255 . S
C107 O108 1.258 . S
C107 O109 1.256 . S
O108 Cd100 2.381 . S
O108 C107 1.258 . S
O109 Cd100 2.378 . S
O109 C107 1.256 . S
O110 Cd111 2.300 . S
O110 C117 1.275 . S
Cd111 O110 2.300 . S
Cd111 O119 2.381 . S
Cd111 O120 2.378 1_554 S
O112 Cd113 2.385 1_554 S
O112 C117 1.255 . S
Cd113 O112 2.385 1_556 S
Cd113 O114 2.317 . S
O114 Cd113 2.317 . S
O114 C115 1.232 . S
C115 O114 1.232 . S
C115 O116 1.218 . S
O116 C115 1.218 . S
C117 O110 1.275 . S
C117 O112 1.255 . S
C118 O119 1.258 . S
C118 O120 1.256 1_554 S
O119 Cd111 2.381 . S
O119 C118 1.258 . S
O120 Cd111 2.378 1_556 S
O120 C118 1.256 1_556 S
O121 Cd122 2.300 1_455 S
O121 C128 1.275 . S
Cd122 O121 2.300 1_655 S
Cd122 O130 2.381 . S
Cd122 O131 2.378 . S
O123 Cd124 2.385 . S
O123 C128 1.255 . S
Cd124 O123 2.385 . S
Cd124 O125 2.317 . S
O125 Cd124 2.317 . S
O125 C126 1.232 . S
C126 O125 1.232 . S
C126 O127 1.218 . S
O127 C126 1.218 . S
C128 O121 1.275 . S
C128 O123 1.255 . S
C129 O130 1.258 . S
C129 O131 1.256 . S
O130 Cd122 2.381 . S
O130 C129 1.258 . S
O131 Cd122 2.378 . S
O131 C129 1.256 . S
O132 Cd133 2.300 1_565 S
O132 C139 1.275 . S
Cd133 O132 2.300 1_545 S
Cd133 O141 2.381 . S
Cd133 O142 2.378 . S
O134 Cd135 2.385 . S
O134 C139 1.255 . S
Cd135 O134 2.385 . S
Cd135 O136 2.317 . S
O136 Cd135 2.317 . S
O136 C137 1.232 . S
C137 O136 1.232 . S
C137 O138 1.218 . S
O138 C137 1.218 . S
C139 O132 1.275 . S
C139 O134 1.255 . S
C140 O141 1.258 . S
C140 O142 1.256 . S
O141 Cd133 2.381 . S
O141 C140 1.258 . S
O142 Cd133 2.378 . S
O142 C140 1.256 . S
O143 Cd144 2.300 . S
O143 C150 1.275 . S
Cd144 O143 2.300 . S
Cd144 O152 2.381 . S
Cd144 O153 2.378 1_554 S
O145 Cd146 2.385 1_554 S
O145 C150 1.255 . S
Cd146 O145 2.385 1_556 S
Cd146 O147 2.317 . S
O147 Cd146 2.317 . S
O147 C148 1.232 . S
C148 O147 1.232 . S
C148 O149 1.218 . S
O149 C148 1.218 . S
C150 O143 1.275 . S
C150 O145 1.255 . S
C151 O152 1.258 . S
C151 O153 1.256 1_554 S
O152 Cd144 2.381 . S
O152 C151 1.258 . S
O153 Cd144 2.378 1_556 S
O153 C151 1.256 1_556 S
O154 Cd155 2.300 1_545 S
O154 C161 1.275 . S
Cd155 O154 2.300 1_565 S
Cd155 O163 2.381 . S
Cd155 O164 2.378 . S
O156 Cd157 2.385 . S
O156 C161 1.255 . S
Cd157 O156 2.385 . S
Cd157 O158 2.317 . S
O158 Cd157 2.317 . S
O158 C159 1.232 . S
C159 O158 1.232 . S
C159 O160 1.218 . S
O160 C159 1.218 . S
C161 O154 1.275 . S
C161 O156 1.255 . S
C162 O163 1.258 . S
C162 O164 1.256 . S
O163 Cd155 2.381 . S
O163 C162 1.258 . S
O164 Cd155 2.378 . S
O164 C162 1.256 . S
O165 Cd166 2.300 . S
O165 C172 1.275 . S
Cd166 O165 2.300 . S
Cd166 O174 2.381 . S
Cd166 O175 2.378 1_556 S
O167 Cd168 2.385 1_556 S
O167 C172 1.255 . S
Cd168 O167 2.385 1_554 S
Cd168 O169 2.317 . S
O169 Cd168 2.317 . S
O169 C170 1.232 . S
C170 O169 1.232 . S
C170 O171 1.218 . S
O171 C170 1.218 . S
C172 O165 1.275 . S
C172 O167 1.255 . S
C173 O174 1.258 1_554 S
C173 O175 1.256 . S
O174 Cd166 2.381 . S
O174 C173 1.258 1_556 S
O175 Cd166 2.378 1_554 S
O175 C173 1.256 . S
H176 C182 0.930 . S
H177 C186 0.930 . S
H178 C191 0.929 . S
H179 C189 0.929 . S
H180 C184 0.929 . S
H181 C190 0.929 . S
C182 H176 0.930 . S
C182 C183 1.367 . S
C182 C190 1.378 . S
C183 C182 1.367 . S
C183 C191 1.433 . S
C184 H180 0.929 . S
C184 C186 1.378 . S
C184 C188 1.350 . S
C185 C188 1.463 . S
C185 C190 1.350 . S
C185 N193 1.427 . S
C186 H177 0.930 . S
C186 C184 1.378 . S
C186 C187 1.367 . S
C187 C186 1.367 . S
C187 C189 1.433 . S
C188 C184 1.350 . S
C188 C185 1.463 . S
C188 N192 1.427 . S
C189 H179 0.929 . S
C189 C187 1.433 . S
C189 N192 1.384 . S
C190 H181 0.929 . S
C190 C182 1.378 . S
C190 C185 1.350 . S
C191 H178 0.929 . S
C191 C183 1.433 . S
C191 N193 1.384 . S
N192 C188 1.427 . S
N192 C189 1.384 . S
N193 C185 1.427 . S
N193 C191 1.384 . S
H194 C200 0.930 . S
H195 C204 0.930 . S
H196 C209 0.929 . S
H197 C207 0.929 . S
H198 C202 0.929 . S
H199 C208 0.929 . S
C200 H194 0.930 . S
C200 C201 1.367 . S
C200 C208 1.378 . S
C201 C200 1.367 . S
C201 C209 1.433 . S
C202 H198 0.929 . S
C202 C204 1.378 . S
C202 C206 1.350 . S
C203 C206 1.463 . S
C203 C208 1.350 . S
C203 N211 1.427 . S
C204 H195 0.930 . S
C204 C202 1.378 . S
C204 C205 1.367 . S
C205 C204 1.367 . S
C205 C207 1.433 . S
C206 C202 1.350 . S
C206 C203 1.463 . S
C206 N210 1.427 . S
C207 H197 0.929 . S
C207 C205 1.433 . S
C207 N210 1.384 . S
C208 H199 0.929 . S
C208 C200 1.378 . S
C208 C203 1.350 . S
C209 H196 0.929 . S
C209 C201 1.433 . S
C209 N211 1.384 . S
N210 C206 1.427 . S
N210 C207 1.384 . S
N211 C203 1.427 . S
N211 C209 1.384 . S
H212 C218 0.930 . S
H213 C222 0.930 . S
H214 C227 0.929 . S
H215 C225 0.929 . S
H216 C220 0.929 . S
H217 C226 0.929 . S
C218 H212 0.930 . S
C218 C219 1.367 . S
C218 C226 1.378 . S
C219 C218 1.367 . S
C219 C227 1.433 . S
C220 H216 0.929 . S
C220 C222 1.378 . S
C220 C224 1.350 . S
C221 C224 1.463 . S
C221 C226 1.350 . S
C221 N229 1.427 . S
C222 H213 0.930 . S
C222 C220 1.378 . S
C222 C223 1.367 . S
C223 C222 1.367 . S
C223 C225 1.433 . S
C224 C220 1.350 . S
C224 C221 1.463 . S
C224 N228 1.427 . S
C225 H215 0.929 . S
C225 C223 1.433 . S
C225 N228 1.384 . S
C226 H217 0.929 . S
C226 C218 1.378 . S
C226 C221 1.350 . S
C227 H214 0.929 . S
C227 C219 1.433 . S
C227 N229 1.384 . S
N228 C224 1.427 . S
N228 C225 1.384 . S
N229 C221 1.427 . S
N229 C227 1.384 . S
H230 C236 0.930 . S
H231 C240 0.930 . S
H232 C245 0.929 . S
H233 C243 0.929 . S
H234 C238 0.929 . S
H235 C244 0.929 . S
C236 H230 0.930 . S
C236 C237 1.367 . S
C236 C244 1.378 . S
C237 C236 1.367 . S
C237 C245 1.433 . S
C238 H234 0.929 . S
C238 C240 1.378 . S
C238 C242 1.350 . S
C239 C242 1.463 . S
C239 C244 1.350 . S
C239 N247 1.427 . S
C240 H231 0.930 . S
C240 C238 1.378 . S
C240 C241 1.367 . S
C241 C240 1.367 . S
C241 C243 1.433 . S
C242 C238 1.350 . S
C242 C239 1.463 . S
C242 N246 1.427 . S
C243 H233 0.929 . S
C243 C241 1.433 . S
C243 N246 1.384 . S
C244 H235 0.929 . S
C244 C236 1.378 . S
C244 C239 1.350 . S
C245 H232 0.929 . S
C245 C237 1.433 . S
C245 N247 1.384 . S
N246 C242 1.427 . S
N246 C243 1.384 . S
N247 C239 1.427 . S
N247 C245 1.384 . S
H248 C254 0.930 . S
H249 C258 0.930 . S
H250 C263 0.929 . S
H251 C261 0.929 . S
H252 C256 0.929 . S
H253 C262 0.929 . S
C254 H248 0.930 . S
C254 C255 1.367 . S
C254 C262 1.378 . S
C255 C254 1.367 . S
C255 C263 1.433 . S
C256 H252 0.929 . S
C256 C258 1.378 . S
C256 C260 1.350 . S
C257 C260 1.463 . S
C257 C262 1.350 . S
C257 N265 1.427 . S
C258 H249 0.930 . S
C258 C256 1.378 . S
C258 C259 1.367 . S
C259 C258 1.367 . S
C259 C261 1.433 . S
C260 C256 1.350 . S
C260 C257 1.463 . S
C260 N264 1.427 . S
C261 H251 0.929 . S
C261 C259 1.433 . S
C261 N264 1.384 . S
C262 H253 0.929 . S
C262 C254 1.378 . S
C262 C257 1.350 . S
C263 H250 0.929 . S
C263 C255 1.433 . S
C263 N265 1.384 . S
N264 C260 1.427 . S
N264 C261 1.384 . S
N265 C257 1.427 . S
N265 C263 1.384 . S
H266 C272 0.930 . S
H267 C276 0.930 . S
H268 C281 0.929 . S
H269 C279 0.929 . S
H270 C274 0.929 . S
H271 C280 0.929 . S
C272 H266 0.930 . S
C272 C273 1.367 . S
C272 C280 1.378 . S
C273 C272 1.367 . S
C273 C281 1.433 . S
C274 H270 0.929 . S
C274 C276 1.378 . S
C274 C278 1.350 . S
C275 C278 1.463 . S
C275 C280 1.350 . S
C275 N283 1.427 . S
C276 H267 0.930 . S
C276 C274 1.378 . S
C276 C277 1.367 . S
C277 C276 1.367 . S
C277 C279 1.433 . S
C278 C274 1.350 . S
C278 C275 1.463 . S
C278 N282 1.427 . S
C279 H269 0.929 . S
C279 C277 1.433 . S
C279 N282 1.384 . S
C280 H271 0.929 . S
C280 C272 1.378 . S
C280 C275 1.350 . S
C281 H268 0.929 . S
C281 C273 1.433 . S
C281 N283 1.384 . S
N282 C278 1.427 . S
N282 C279 1.384 . S
N283 C275 1.427 . S
N283 C281 1.384 . S
H284 C290 0.930 . S
H285 C294 0.930 . S
H286 C299 0.929 . S
H287 C297 0.929 . S
H288 C292 0.929 . S
H289 C298 0.929 . S
C290 H284 0.930 . S
C290 C291 1.367 . S
C290 C298 1.378 . S
C291 C290 1.367 . S
C291 C299 1.433 . S
C292 H288 0.929 . S
C292 C294 1.378 . S
C292 C296 1.350 . S
C293 C296 1.463 . S
C293 C298 1.350 . S
C293 N301 1.427 . S
C294 H285 0.930 . S
C294 C292 1.378 . S
C294 C295 1.367 . S
C295 C294 1.367 . S
C295 C297 1.433 . S
C296 C292 1.350 . S
C296 C293 1.463 . S
C296 N300 1.427 . S
C297 H287 0.929 . S
C297 C295 1.433 . S
C297 N300 1.384 . S
C298 H289 0.929 . S
C298 C290 1.378 . S
C298 C293 1.350 . S
C299 H286 0.929 . S
C299 C291 1.433 . S
C299 N301 1.384 . S
N300 C296 1.427 . S
N300 C297 1.384 . S
N301 C293 1.427 . S
N301 C299 1.384 . S
H302 C308 0.930 . S
H303 C312 0.930 . S
H304 C317 0.929 . S
H305 C315 0.929 . S
H306 C310 0.929 . S
H307 C316 0.929 . S
C308 H302 0.930 . S
C308 C309 1.367 . S
C308 C316 1.378 . S
C309 C308 1.367 . S
C309 C317 1.433 . S
C310 H306 0.929 . S
C310 C312 1.378 . S
C310 C314 1.350 . S
C311 C314 1.463 . S
C311 C316 1.350 . S
C311 N319 1.427 . S
C312 H303 0.930 . S
C312 C310 1.378 . S
C312 C313 1.367 . S
C313 C312 1.367 . S
C313 C315 1.433 . S
C314 C310 1.350 . S
C314 C311 1.463 . S
C314 N318 1.427 . S
C315 H305 0.929 . S
C315 C313 1.433 . S
C315 N318 1.384 . S
C316 H307 0.929 . S
C316 C308 1.378 . S
C316 C311 1.350 . S
C317 H304 0.929 . S
C317 C309 1.433 . S
C317 N319 1.384 . S
N318 C314 1.427 . S
N318 C315 1.384 . S
N319 C311 1.427 . S
N319 C317 1.384 . S
H320 C326 0.930 . S
H321 C330 0.930 . S
H322 C335 0.929 . S
H323 C333 0.929 . S
H324 C328 0.929 . S
H325 C334 0.929 . S
C326 H320 0.930 . S
C326 C327 1.367 . S
C326 C334 1.378 . S
C327 C326 1.367 . S
C327 C335 1.433 . S
C328 H324 0.929 . S
C328 C330 1.378 . S
C328 C332 1.350 . S
C329 C332 1.463 . S
C329 C334 1.350 . S
C329 N337 1.427 . S
C330 H321 0.930 . S
C330 C328 1.378 . S
C330 C331 1.367 . S
C331 C330 1.367 . S
C331 C333 1.433 . S
C332 C328 1.350 . S
C332 C329 1.463 . S
C332 N336 1.427 . S
C333 H323 0.929 . S
C333 C331 1.433 . S
C333 N336 1.384 . S
C334 H325 0.929 . S
C334 C326 1.378 . S
C334 C329 1.350 . S
C335 H322 0.929 . S
C335 C327 1.433 . S
C335 N337 1.384 . S
N336 C332 1.427 . S
N336 C333 1.384 . S
N337 C329 1.427 . S
N337 C335 1.384 . S
H338 C344 0.930 . S
H339 C348 0.930 . S
H340 C353 0.929 . S
H341 C351 0.929 . S
H342 C346 0.929 . S
H343 C352 0.929 . S
C344 H338 0.930 . S
C344 C345 1.367 . S
C344 C352 1.378 . S
C345 C344 1.367 . S
C345 C353 1.433 . S
C346 H342 0.929 . S
C346 C348 1.378 . S
C346 C350 1.350 . S
C347 C350 1.463 . S
C347 C352 1.350 . S
C347 N355 1.427 . S
C348 H339 0.930 . S
C348 C346 1.378 . S
C348 C349 1.367 . S
C349 C348 1.367 . S
C349 C351 1.433 . S
C350 C346 1.350 . S
C350 C347 1.463 . S
C350 N354 1.427 . S
C351 H341 0.929 . S
C351 C349 1.433 . S
C351 N354 1.384 . S
C352 H343 0.929 . S
C352 C344 1.378 . S
C352 C347 1.350 . S
C353 H340 0.929 . S
C353 C345 1.433 . S
C353 N355 1.384 . S
N354 C350 1.427 . S
N354 C351 1.384 . S
N355 C347 1.427 . S
N355 C353 1.384 . S
H356 C362 0.930 . S
H357 C366 0.930 . S
H358 C371 0.929 . S
H359 C369 0.929 . S
H360 C364 0.929 . S
H361 C370 0.929 . S
C362 H356 0.930 . S
C362 C363 1.367 . S
C362 C370 1.378 . S
C363 C362 1.367 . S
C363 C371 1.433 . S
C364 H360 0.929 . S
C364 C366 1.378 . S
C364 C368 1.350 . S
C365 C368 1.463 . S
C365 C370 1.350 . S
C365 N373 1.427 . S
C366 H357 0.930 . S
C366 C364 1.378 . S
C366 C367 1.367 . S
C367 C366 1.367 . S
C367 C369 1.433 . S
C368 C364 1.350 . S
C368 C365 1.463 . S
C368 N372 1.427 . S
C369 H359 0.929 . S
C369 C367 1.433 . S
C369 N372 1.384 . S
C370 H361 0.929 . S
C370 C362 1.378 . S
C370 C365 1.350 . S
C371 H358 0.929 . S
C371 C363 1.433 . S
C371 N373 1.384 . S
N372 C368 1.427 . S
N372 C369 1.384 . S
N373 C365 1.427 . S
N373 C371 1.384 . S
H374 C380 0.930 . S
H375 C384 0.930 . S
H376 C389 0.929 . S
H377 C387 0.929 . S
H378 C382 0.929 . S
H379 C388 0.929 . S
C380 H374 0.930 . S
C380 C381 1.367 . S
C380 C388 1.378 . S
C381 C380 1.367 . S
C381 C389 1.433 . S
C382 H378 0.929 . S
C382 C384 1.378 . S
C382 C386 1.350 . S
C383 C386 1.463 . S
C383 C388 1.350 . S
C383 N391 1.427 . S
C384 H375 0.930 . S
C384 C382 1.378 . S
C384 C385 1.367 . S
C385 C384 1.367 . S
C385 C387 1.433 . S
C386 C382 1.350 . S
C386 C383 1.463 . S
C386 N390 1.427 . S
C387 H377 0.929 . S
C387 C385 1.433 . S
C387 N390 1.384 . S
C388 H379 0.929 . S
C388 C380 1.378 . S
C388 C383 1.350 . S
C389 H376 0.929 . S
C389 C381 1.433 . S
C389 N391 1.384 . S
N390 C386 1.427 . S
N390 C387 1.384 . S
N391 C383 1.427 . S
N391 C389 1.384 . S
H392 C398 0.930 . S
H393 C402 0.930 . S
H394 C407 0.929 . S
H395 C405 0.929 . S
H396 C400 0.929 . S
H397 C406 0.929 . S
C398 H392 0.930 . S
C398 C399 1.367 . S
C398 C406 1.378 . S
C399 C398 1.367 . S
C399 C407 1.433 . S
C400 H396 0.929 . S
C400 C402 1.378 . S
C400 C404 1.350 . S
C401 C404 1.463 . S
C401 C406 1.350 . S
C401 N409 1.427 . S
C402 H393 0.930 . S
C402 C400 1.378 . S
C402 C403 1.367 . S
C403 C402 1.367 . S
C403 C405 1.433 . S
C404 C400 1.350 . S
C404 C401 1.463 . S
C404 N408 1.427 . S
C405 H395 0.929 . S
C405 C403 1.433 . S
C405 N408 1.384 . S
C406 H397 0.929 . S
C406 C398 1.378 . S
C406 C401 1.350 . S
C407 H394 0.929 . S
C407 C399 1.433 . S
C407 N409 1.384 . S
N408 C404 1.427 . S
N408 C405 1.384 . S
N409 C401 1.427 . S
N409 C407 1.384 . S
H410 C416 0.930 . S
H411 C420 0.930 . S
H412 C425 0.929 . S
H413 C423 0.929 . S
H414 C418 0.929 . S
H415 C424 0.929 . S
C416 H410 0.930 . S
C416 C417 1.367 . S
C416 C424 1.378 . S
C417 C416 1.367 . S
C417 C425 1.433 . S
C418 H414 0.929 . S
C418 C420 1.378 . S
C418 C422 1.350 . S
C419 C422 1.463 . S
C419 C424 1.350 . S
C419 N427 1.427 . S
C420 H411 0.930 . S
C420 C418 1.378 . S
C420 C421 1.367 . S
C421 C420 1.367 . S
C421 C423 1.433 . S
C422 C418 1.350 . S
C422 C419 1.463 . S
C422 N426 1.427 . S
C423 H413 0.929 . S
C423 C421 1.433 . S
C423 N426 1.384 . S
C424 H415 0.929 . S
C424 C416 1.378 . S
C424 C419 1.350 . S
C425 H412 0.929 . S
C425 C417 1.433 . S
C425 N427 1.384 . S
N426 C422 1.427 . S
N426 C423 1.384 . S
N427 C419 1.427 . S
N427 C425 1.384 . S
H428 C434 0.930 . S
H429 C438 0.930 . S
H430 C443 0.929 . S
H431 C441 0.929 . S
H432 C436 0.929 . S
H433 C442 0.929 . S
C434 H428 0.930 . S
C434 C435 1.367 . S
C434 C442 1.378 . S
C435 C434 1.367 . S
C435 C443 1.433 . S
C436 H432 0.929 . S
C436 C438 1.378 . S
C436 C440 1.350 . S
C437 C440 1.463 . S
C437 C442 1.350 . S
C437 N445 1.427 . S
C438 H429 0.930 . S
C438 C436 1.378 . S
C438 C439 1.367 . S
C439 C438 1.367 . S
C439 C441 1.433 . S
C440 C436 1.350 . S
C440 C437 1.463 . S
C440 N444 1.427 . S
C441 H431 0.929 . S
C441 C439 1.433 . S
C441 N444 1.384 . S
C442 H433 0.929 . S
C442 C434 1.378 . S
C442 C437 1.350 . S
C443 H430 0.929 . S
C443 C435 1.433 . S
C443 N445 1.384 . S
N444 C440 1.427 . S
N444 C441 1.384 . S
N445 C437 1.427 . S
N445 C443 1.384 . S
H446 C452 0.930 . S
H447 C456 0.930 . S
H448 C461 0.929 . S
H449 C459 0.929 . S
H450 C454 0.929 . S
H451 C460 0.929 . S
C452 H446 0.930 . S
C452 C453 1.367 . S
C452 C460 1.378 . S
C453 C452 1.367 . S
C453 C461 1.433 . S
C454 H450 0.929 . S
C454 C456 1.378 . S
C454 C458 1.350 . S
C455 C458 1.463 . S
C455 C460 1.350 . S
C455 N463 1.427 . S
C456 H447 0.930 . S
C456 C454 1.378 . S
C456 C457 1.367 . S
C457 C456 1.367 . S
C457 C459 1.433 . S
C458 C454 1.350 . S
C458 C455 1.463 . S
C458 N462 1.427 . S
C459 H449 0.929 . S
C459 C457 1.433 . S
C459 N462 1.384 . S
C460 H451 0.929 . S
C460 C452 1.378 . S
C460 C455 1.350 . S
C461 H448 0.929 . S
C461 C453 1.433 . S
C461 N463 1.384 . S
N462 C458 1.427 . S
N462 C459 1.384 . S
N463 C455 1.427 . S
N463 C461 1.384 . S
H464 C470 0.930 . S
H465 C474 0.930 . S
H466 C479 0.929 . S
H467 C477 0.929 . S
H468 C472 0.929 . S
H469 C478 0.929 . S
C470 H464 0.930 . S
C470 C471 1.367 . S
C470 C478 1.378 . S
C471 C470 1.367 . S
C471 C479 1.433 1_554 S
C472 H468 0.929 . S
C472 C474 1.378 . S
C472 C476 1.350 1_556 S
C473 C476 1.463 . S
C473 C478 1.350 . S
C473 N481 1.427 1_554 S
C474 H465 0.930 . S
C474 C472 1.378 . S
C474 C475 1.367 1_556 S
C475 C474 1.367 1_554 S
C475 C477 1.433 . S
C476 C472 1.350 1_554 S
C476 C473 1.463 . S
C476 N480 1.427 . S
C477 H467 0.929 . S
C477 C475 1.433 . S
C477 N480 1.384 . S
C478 H469 0.929 . S
C478 C470 1.378 . S
C478 C473 1.350 . S
C479 H466 0.929 . S
C479 C471 1.433 1_556 S
C479 N481 1.384 . S
N480 C476 1.427 . S
N480 C477 1.384 . S
N481 C473 1.427 1_556 S
N481 C479 1.384 . S
H482 C488 0.930 . S
H483 C492 0.930 . S
H484 C497 0.929 . S
H485 C495 0.929 . S
H486 C490 0.929 . S
H487 C496 0.929 . S
C488 H482 0.930 . S
C488 C489 1.367 . S
C488 C496 1.378 . S
C489 C488 1.367 . S
C489 C497 1.433 . S
C490 H486 0.929 . S
C490 C492 1.378 . S
C490 C494 1.350 . S
C491 C494 1.463 . S
C491 C496 1.350 . S
C491 N499 1.427 . S
C492 H483 0.930 . S
C492 C490 1.378 . S
C492 C493 1.367 . S
C493 C492 1.367 . S
C493 C495 1.433 . S
C494 C490 1.350 . S
C494 C491 1.463 . S
C494 N498 1.427 . S
C495 H485 0.929 . S
C495 C493 1.433 . S
C495 N498 1.384 . S
C496 H487 0.929 . S
C496 C488 1.378 . S
C496 C491 1.350 . S
C497 H484 0.929 . S
C497 C489 1.433 . S
C497 N499 1.384 . S
N498 C494 1.427 . S
N498 C495 1.384 . S
N499 C491 1.427 . S
N499 C497 1.384 . S
H500 C506 0.930 . S
H501 C510 0.930 . S
H502 C515 0.929 . S
H503 C513 0.929 . S
H504 C508 0.929 . S
H505 C514 0.929 . S
C506 H500 0.930 . S
C506 C507 1.367 . S
C506 C514 1.378 . S
C507 C506 1.367 . S
C507 C515 1.433 1_554 S
C508 H504 0.929 . S
C508 C510 1.378 . S
C508 C512 1.350 1_556 S
C509 C512 1.463 . S
C509 C514 1.350 . S
C509 N517 1.427 1_554 S
C510 H501 0.930 . S
C510 C508 1.378 . S
C510 C511 1.367 1_556 S
C511 C510 1.367 1_554 S
C511 C513 1.433 . S
C512 C508 1.350 1_554 S
C512 C509 1.463 . S
C512 N516 1.427 . S
C513 H503 0.929 . S
C513 C511 1.433 . S
C513 N516 1.384 . S
C514 H505 0.929 . S
C514 C506 1.378 . S
C514 C509 1.350 . S
C515 H502 0.929 . S
C515 C507 1.433 1_556 S
C515 N517 1.384 . S
N516 C512 1.427 . S
N516 C513 1.384 . S
N517 C509 1.427 1_556 S
N517 C515 1.384 . S
H518 C524 0.930 . S
H519 C528 0.930 . S
H520 C533 0.929 . S
H521 C531 0.929 . S
H522 C526 0.929 . S
H523 C532 0.929 . S
C524 H518 0.930 . S
C524 C525 1.367 . S
C524 C532 1.378 . S
C525 C524 1.367 . S
C525 C533 1.433 . S
C526 H522 0.929 . S
C526 C528 1.378 . S
C526 C530 1.350 . S
C527 C530 1.463 . S
C527 C532 1.350 . S
C527 N535 1.427 . S
C528 H519 0.930 . S
C528 C526 1.378 . S
C528 C529 1.367 . S
C529 C528 1.367 . S
C529 C531 1.433 . S
C530 C526 1.350 . S
C530 C527 1.463 . S
C530 N534 1.427 . S
C531 H521 0.929 . S
C531 C529 1.433 . S
C531 N534 1.384 . S
C532 H523 0.929 . S
C532 C524 1.378 . S
C532 C527 1.350 . S
C533 H520 0.929 . S
C533 C525 1.433 . S
C533 N535 1.384 . S
N534 C530 1.427 . S
N534 C531 1.384 . S
N535 C527 1.427 . S
N535 C533 1.384 . S
H536 C542 0.930 . S
H537 C546 0.930 . S
H538 C551 0.929 . S
H539 C549 0.929 . S
H540 C544 0.929 . S
H541 C550 0.929 . S
C542 H536 0.930 . S
C542 C543 1.367 . S
C542 C550 1.378 . S
C543 C542 1.367 . S
C543 C551 1.433 . S
C544 H540 0.929 . S
C544 C546 1.378 . S
C544 C548 1.350 . S
C545 C548 1.463 . S
C545 C550 1.350 . S
C545 N553 1.427 . S
C546 H537 0.930 . S
C546 C544 1.378 . S
C546 C547 1.367 . S
C547 C546 1.367 . S
C547 C549 1.433 . S
C548 C544 1.350 . S
C548 C545 1.463 . S
C548 N552 1.427 . S
C549 H539 0.929 . S
C549 C547 1.433 . S
C549 N552 1.384 . S
C550 H541 0.929 . S
C550 C542 1.378 . S
C550 C545 1.350 . S
C551 H538 0.929 . S
C551 C543 1.433 . S
C551 N553 1.384 . S
N552 C548 1.427 . S
N552 C549 1.384 . S
N553 C545 1.427 . S
N553 C551 1.384 . S
H554 C560 0.930 . S
H555 C564 0.930 . S
H556 C569 0.929 . S
H557 C567 0.929 . S
H558 C562 0.929 . S
H559 C568 0.929 . S
C560 H554 0.930 . S
C560 C561 1.367 . S
C560 C568 1.378 . S
C561 C560 1.367 . S
C561 C569 1.433 1_554 S
C562 H558 0.929 . S
C562 C564 1.378 . S
C562 C566 1.350 1_556 S
C563 C566 1.463 . S
C563 C568 1.350 . S
C563 N571 1.427 1_554 S
C564 H555 0.930 . S
C564 C562 1.378 . S
C564 C565 1.367 1_556 S
C565 C564 1.367 1_554 S
C565 C567 1.433 . S
C566 C562 1.350 1_554 S
C566 C563 1.463 . S
C566 N570 1.427 . S
C567 H557 0.929 . S
C567 C565 1.433 . S
C567 N570 1.384 . S
C568 H559 0.929 . S
C568 C560 1.378 . S
C568 C563 1.350 . S
C569 H556 0.929 . S
C569 C561 1.433 1_556 S
C569 N571 1.384 . S
N570 C566 1.427 . S
N570 C567 1.384 . S
N571 C563 1.427 1_556 S
N571 C569 1.384 . S
H572 C578 0.930 . S
H573 C582 0.930 . S
H574 C587 0.929 . S
H575 C585 0.929 . S
H576 C580 0.929 . S
H577 C586 0.929 . S
C578 H572 0.930 . S
C578 C579 1.367 . S
C578 C586 1.378 . S
C579 C578 1.367 . S
C579 C587 1.433 . S
C580 H576 0.929 . S
C580 C582 1.378 . S
C580 C584 1.350 . S
C581 C584 1.463 . S
C581 C586 1.350 . S
C581 N589 1.427 . S
C582 H573 0.930 . S
C582 C580 1.378 . S
C582 C583 1.367 . S
C583 C582 1.367 . S
C583 C585 1.433 . S
C584 C580 1.350 . S
C584 C581 1.463 . S
C584 N588 1.427 . S
C585 H575 0.929 . S
C585 C583 1.433 . S
C585 N588 1.384 . S
C586 H577 0.929 . S
C586 C578 1.378 . S
C586 C581 1.350 . S
C587 H574 0.929 . S
C587 C579 1.433 . S
C587 N589 1.384 . S
N588 C584 1.427 . S
N588 C585 1.384 . S
N589 C581 1.427 . S
N589 C587 1.384 . S
H590 C596 0.930 . S
H591 C600 0.930 . S
H592 C605 0.929 . S
H593 C603 0.929 . S
H594 C598 0.929 . S
H595 C604 0.929 . S
C596 H590 0.930 . S
C596 C597 1.367 . S
C596 C604 1.378 . S
C597 C596 1.367 . S
C597 C605 1.433 . S
C598 H594 0.929 . S
C598 C600 1.378 . S
C598 C602 1.350 . S
C599 C602 1.463 . S
C599 C604 1.350 . S
C599 N607 1.427 . S
C600 H591 0.930 . S
C600 C598 1.378 . S
C600 C601 1.367 . S
C601 C600 1.367 . S
C601 C603 1.433 . S
C602 C598 1.350 . S
C602 C599 1.463 . S
C602 N606 1.427 . S
C603 H593 0.929 . S
C603 C601 1.433 . S
C603 N606 1.384 . S
C604 H595 0.929 . S
C604 C596 1.378 . S
C604 C599 1.350 . S
C605 H592 0.929 . S
C605 C597 1.433 . S
C605 N607 1.384 . S
N606 C602 1.427 . S
N606 C603 1.384 . S
N607 C599 1.427 . S
N607 C605 1.384 . S
C183 C5 1.443 . S
C187 C126 1.325 . S
C201 C31 1.515 . S
C205 C95 1.484 . S
C223 C106 1.442 . S
C219 C53 1.475 . S
C237 C71 1.400 . S
C241 C115 1.285 . S
C259 C150 1.485 . S
C255 C75 1.513 . S
C277 C159 1.325 . S
C273 C9 1.443 . S
C295 C170 1.277 . S
C291 C27 1.407 . S
C313 C139 1.441 . S
C309 C49 1.469 . S
C327 C51 1.447 . S
C331 C104 1.204 . S
C345 C72 1.516 . S
C349 C117 1.520 . S
C363 C6 1.468 . S
C367 C128 1.478 . S
C385 C93 1.191 . S
C381 C29 1.397 . S
C399 C28 1.514 . S
C403 C172 1.520 . S
C421 C137 1.193 . S
C417 C50 1.449 . S
C439 C148 1.197 . S
C435 C73 1.399 . S
C453 C7 1.466 . S
C457 C161 1.477 . S
C475 C96 1.502 . S
C471 C4 1.506 . S
C493 C107 1.504 . S
C489 C30 1.508 . S
C507 C52 1.507 . S
C511 C118 1.522 . S
C525 C70 1.509 . S
C529 C129 1.523 . S
C547 C140 1.497 . S
C543 C74 1.513 . S
C561 C8 1.512 . S
C565 C151 1.495 . S
C579 C26 1.513 . S
C583 C162 1.524 . S
C597 C48 1.513 . S
C601 C173 1.523 . S
