# Generated by pormake.
# Topology zzz, (3,6)-cn, num edge types: 1
# Building blocks:
#     Node 0, Type 0, BuildingBlock: OLANEW_clean_sbu_2, # of connection points: 3
#     Node 1, Type 0, BuildingBlock: OLANEW_clean_sbu_2, # of connection points: 3
#     Node 2, Type 0, BuildingBlock: OLANEW_clean_sbu_2, # of connection points: 3
#     Node 3, Type 0, BuildingBlock: OLANEW_clean_sbu_2, # of connection points: 3
#     Node 4, Type 0, BuildingBlock: OLANEW_clean_sbu_2, # of connection points: 3
#     Node 5, Type 0, BuildingBlock: OLANEW_clean_sbu_2, # of connection points: 3
#     Node 6, Type 0, BuildingBlock: OLANEW_clean_sbu_2, # of connection points: 3
#     Node 7, Type 0, BuildingBlock: OLANEW_clean_sbu_2, # of connection points: 3
#     Node 8, Type 1, BuildingBlock: BETFAJ_clean_sbu_0, # of connection points: 6
#     Node 9, Type 1, BuildingBlock: BETFAJ_clean_sbu_0, # of connection points: 6
#     Node 10, Type 1, BuildingBlock: BETFAJ_clean_sbu_0, # of connection points: 6
#     Node 11, Type 1, BuildingBlock: BETFAJ_clean_sbu_0, # of connection points: 6
#     Edge 12, Type (0, 1), BuildingBlock: ZUJKAS_clean_linker_0, # of connection points: 2
#     Edge 13, Type (0, 1), BuildingBlock: ZUJKAS_clean_linker_0, # of connection points: 2
#     Edge 14, Type (0, 1), BuildingBlock: ZUJKAS_clean_linker_0, # of connection points: 2
#     Edge 15, Type (0, 1), BuildingBlock: ZUJKAS_clean_linker_0, # of connection points: 2
#     Edge 16, Type (0, 1), BuildingBlock: ZUJKAS_clean_linker_0, # of connection points: 2
#     Edge 17, Type (0, 1), BuildingBlock: ZUJKAS_clean_linker_0, # of connection points: 2
#     Edge 18, Type (0, 1), BuildingBlock: ZUJKAS_clean_linker_0, # of connection points: 2
#     Edge 19, Type (0, 1), BuildingBlock: ZUJKAS_clean_linker_0, # of connection points: 2
#     Edge 20, Type (0, 1), BuildingBlock: ZUJKAS_clean_linker_0, # of connection points: 2
#     Edge 21, Type (0, 1), BuildingBlock: ZUJKAS_clean_linker_0, # of connection points: 2
#     Edge 22, Type (0, 1), BuildingBlock: ZUJKAS_clean_linker_0, # of connection points: 2
#     Edge 23, Type (0, 1), BuildingBlock: ZUJKAS_clean_linker_0, # of connection points: 2
#     Edge 24, Type (0, 1), BuildingBlock: ZUJKAS_clean_linker_0, # of connection points: 2
#     Edge 25, Type (0, 1), BuildingBlock: ZUJKAS_clean_linker_0, # of connection points: 2
#     Edge 26, Type (0, 1), BuildingBlock: ZUJKAS_clean_linker_0, # of connection points: 2
#     Edge 27, Type (0, 1), BuildingBlock: ZUJKAS_clean_linker_0, # of connection points: 2
#     Edge 28, Type (0, 1), BuildingBlock: ZUJKAS_clean_linker_0, # of connection points: 2
#     Edge 29, Type (0, 1), BuildingBlock: ZUJKAS_clean_linker_0, # of connection points: 2
#     Edge 30, Type (0, 1), BuildingBlock: ZUJKAS_clean_linker_0, # of connection points: 2
#     Edge 31, Type (0, 1), BuildingBlock: ZUJKAS_clean_linker_0, # of connection points: 2
#     Edge 32, Type (0, 1), BuildingBlock: ZUJKAS_clean_linker_0, # of connection points: 2
#     Edge 33, Type (0, 1), BuildingBlock: ZUJKAS_clean_linker_0, # of connection points: 2
#     Edge 34, Type (0, 1), BuildingBlock: ZUJKAS_clean_linker_0, # of connection points: 2
#     Edge 35, Type (0, 1), BuildingBlock: ZUJKAS_clean_linker_0, # of connection points: 2
# Relax obj value: 0.222
# Max RMSD: 0.179
# Mean RMSD: 0.169
data_MOF--net-zzz--node1-OLANEW_clean_sbu_2--node2-BETFAJ_clean_sbu_0--edge1-ZUJKAS_clean_linker_0
_symmetry_space_group_name_H-M    P1
_symmetry_Int_Tables_number       1
_symmetry_cell_setting            triclinic
loop_
_symmetry_equiv_pos_as_xyz
'x, y, z'
_cell_length_a     72.005556
_cell_length_b     72.089173
_cell_length_c     19.230797
_cell_angle_alpha  90.004139
_cell_angle_beta   90.008493
_cell_angle_gamma 89.976747
loop_
_atom_site_label
_atom_site_type_symbol
_atom_site_fract_x
_atom_site_fract_y
_atom_site_fract_z
_atom_type_partial_charge
O0 O 0.74093 0.53644 0.17139 0.0
Cd1 Cd 0.71078 0.54422 0.22232 0.0
O2 O 0.74636 0.523 0.2712 0.0
Cd3 Cd 0.76265 0.50772 0.34796 0.0
O4 O 0.78503 0.50103 0.41967 0.0
C5 C 0.79329 0.51479 0.447 0.0
O6 O 0.78743 0.53161 0.43244 0.0
C7 C 0.75203 0.52776 0.21109 0.0
C8 C 0.6805 0.53485 0.13942 0.0
O9 O 0.68809 0.55089 0.13497 0.0
O10 O 0.68739 0.52318 0.18257 0.0
O11 O 0.94037 0.73377 0.22619 0.0
Cd12 Cd 0.93351 0.70476 0.28658 0.0
O13 O 0.96898 0.73122 0.26406 0.0
Cd14 Cd 0.99519 0.74474 0.28979 0.0
O15 O 0.00337 0.77226 0.32441 0.0
C16 C 0.98952 0.78178 0.34445 0.0
O17 O 0.97303 0.774 0.34469 0.0
C18 C 0.95672 0.74025 0.23046 0.0
C19 C 0.9476 0.67428 0.21531 0.0
O20 O 0.93098 0.68 0.20473 0.0
O21 O 0.95755 0.68296 0.25997 0.0
O22 O 0.77189 0.96382 0.21874 0.0
Cd23 Cd 0.80237 0.95993 0.27221 0.0
O24 O 0.77131 0.99182 0.26313 0.0
Cd25 Cd 0.75543 0.01609 0.29547 0.0
O26 O 0.72741 0.0225 0.32959 0.0
C27 C 0.71937 0.00866 0.35722 0.0
O28 O 0.72866 0.99306 0.36377 0.0
C29 C 0.76344 0.97908 0.22804 0.0
C30 C 0.831 0.96878 0.18099 0.0
O31 O 0.82476 0.95217 0.18537 0.0
O32 O 0.82365 0.98123 0.21986 0.0
O33 O 0.52868 0.76757 0.20404 0.0
Cd34 Cd 0.53306 0.79696 0.26465 0.0
O35 O 0.50109 0.76676 0.25204 0.0
Cd36 Cd 0.47742 0.75035 0.28664 0.0
O37 O 0.47361 0.72207 0.32304 0.0
C38 C 0.48898 0.71424 0.33705 0.0
O39 O 0.50436 0.72389 0.33116 0.0
C40 C 0.51335 0.75925 0.21353 0.0
C41 C 0.52572 0.82687 0.17789 0.0
O42 O 0.54225 0.8205 0.18452 0.0
O43 O 0.51267 0.81912 0.21267 0.0
O44 O 0.26567 0.52319 0.0597 0.0
Cd45 Cd 0.29664 0.52805 0.01142 0.0
O46 O 0.26366 0.49668 0.00484 0.0
Cd47 Cd 0.25293 0.46925 0.97638 0.0
O48 O 0.25384 0.43987 0.93219 0.0
C49 C 0.24205 0.43334 0.88881 0.0
O50 O 0.25443 0.43933 0.93293 0.0
C51 C 0.25654 0.50858 0.0458 0.0
C52 C 0.32353 0.52437 0.11501 0.0
O53 O 0.31602 0.54012 0.10203 0.0
O54 O 0.31843 0.51039 0.07856 0.0
O55 O 0.96499 0.27542 0.15487 0.0
Cd56 Cd 0.964 0.30669 0.10714 0.0
O57 O 0.99279 0.27357 0.10948 0.0
Cd58 Cd 0.01665 0.2577 0.07323 0.0
O59 O 0.0253 0.23142 0.0288 0.0
C60 C 0.01165 0.22167 0.0085 0.0
O61 O 0.99478 0.2284 0.01537 0.0
C62 C 0.9797 0.26614 0.14415 0.0
C63 C 0.97939 0.33131 0.20221 0.0
O64 O 0.96192 0.32788 0.20182 0.0
O65 O 0.9896 0.32326 0.1567 0.0
O66 O 0.2345 0.9613 0.06655 0.0
Cd67 Cd 0.20236 0.96285 0.0276 0.0
O68 O 0.23428 0.99174 0.06426 0.0
Cd69 Cd 0.24881 0.01791 0.08129 0.0
O70 O 0.27515 0.03242 0.07259 0.0
C71 C 0.28002 0.03685 0.01138 0.0
O72 O 0.26813 0.0344 0.96033 0.0
C73 C 0.24292 0.97661 0.07478 0.0
C74 C 0.17985 0.97514 0.13568 0.0
O75 O 0.18262 0.95779 0.12526 0.0
O76 O 0.1876 0.98673 0.0943 0.0
O77 O 0.52565 0.22399 0.05389 0.0
Cd78 Cd 0.52541 0.19447 0.99202 0.0
O79 O 0.49543 0.22483 0.04082 0.0
Cd80 Cd 0.46933 0.24018 0.03954 0.0
O81 O 0.45771 0.26721 0.01524 0.0
C82 C 0.4594 0.27225 0.95229 0.0
O83 O 0.46631 0.26041 0.9072 0.0
C84 C 0.51028 0.23221 0.06379 0.0
C85 C 0.51965 0.166 0.0869 0.0
O86 O 0.53609 0.17132 0.07099 0.0
O87 O 0.5059 0.17394 0.05673 0.0
Sm88 Sm 0.02119 0.99083 0.7617 0.0
Sm89 Sm 0.00905 0.00982 0.61294 0.0
C90 C 0.02417 0.97184 0.87906 0.0
C91 C 0.01715 0.95464 0.91047 0.0
C92 C 0.00652 0.94204 0.87172 0.0
C93 C 0.00063 0.92535 0.90172 0.0
C94 C 0.00525 0.92101 0.97105 0.0
C95 C 0.01567 0.93389 0.0098 0.0
C96 C 0.02156 0.95054 0.9797 0.0
C97 C 0.04877 8e-05 0.66975 0.0
C98 C 0.00661 0.9649 0.62967 0.0
C99 C 0.01109 0.0265 0.49094 0.0
C100 C 0.0061 0.04478 0.46296 0.0
C101 C 0.9997 0.05885 0.50724 0.0
C102 C 0.99601 0.07657 0.48099 0.0
C103 C 0.99868 0.0805 0.40998 0.0
C104 C 0.00484 0.0662 0.36573 0.0
C105 C 0.00854 0.0485 0.3921 0.0
C106 C 0.97959 0.00741 0.70502 0.0
C107 C 0.02047 0.03572 0.74853 0.0
O108 O 0.01212 0.98526 0.87017 0.0
O109 O 0.03557 0.96986 0.82647 0.0
O110 O 0.03317 0.9934 0.65459 0.0
O111 O 0.05092 0.00121 0.73684 0.0
O112 O 0.00888 0.9666 0.69792 0.0
O113 O 0.00797 0.97899 0.58578 0.0
O114 O 0.02469 0.0265 0.53632 0.0
O115 O 0.99724 0.01561 0.50845 0.0
O116 O 0.99609 0.00247 0.71288 0.0
O117 O 0.97788 0.01483 0.64368 0.0
O118 O 0.01962 0.03408 0.67996 0.0
O119 O 0.01898 0.02149 0.79172 0.0
H120 H 0.00299 0.94499 0.81811 0.0
H121 H 0.99282 0.91568 0.87008 0.0
H122 H 0.01923 0.93115 0.06354 0.0
H123 H 0.02971 0.96016 0.01041 0.0
H124 H 0.99776 0.05619 0.56223 0.0
H125 H 0.99107 0.08718 0.5163 0.0
H126 H 0.00726 0.06881 0.31102 0.0
H127 H 0.0136 0.0378 0.35735 0.0
Sm128 Sm 0.50887 0.01485 0.75888 0.0
Sm129 Sm 0.48809 0.00723 0.61975 0.0
C130 C 0.52343 0.01444 0.88523 0.0
C131 C 0.5417 0.01053 0.91621 0.0
C132 C 0.55362 0.99717 0.88731 0.0
C133 C 0.5712 0.99413 0.91603 0.0
C134 C 0.57724 0.00454 0.97363 0.0
C135 C 0.56522 0.01786 0.00247 0.0
C136 C 0.5476 0.02079 0.97405 0.0
C137 C 0.50561 0.04465 0.6714 0.0
C138 C 0.53398 0.00732 0.62546 0.0
C139 C 0.47442 0.00587 0.49184 0.0
C140 C 0.45665 0.00276 0.45535 0.0
C141 C 0.45049 0.0159 0.40674 0.0
C142 C 0.43386 0.01321 0.37061 0.0
C143 C 0.42305 0.99724 0.38204 0.0
C144 C 0.42928 0.98408 0.43091 0.0
C145 C 0.44587 0.98683 0.46732 0.0
C146 C 0.49208 0.9775 0.70729 0.0
C147 C 0.46274 0.01691 0.75311 0.0
O148 O 0.51449 0.00033 0.85833 0.0
O149 O 0.52236 0.02944 0.8472 0.0
O150 O 0.49318 0.03278 0.68327 0.0
O151 O 0.52019 0.0417 0.70964 0.0
O152 O 0.53315 0.00474 0.69331 0.0
O153 O 0.51895 0.01102 0.58828 0.0
O154 O 0.47591 0.02127 0.52742 0.0
O155 O 0.48212 0.99164 0.52284 0.0
O156 O 0.50429 0.98946 0.69416 0.0
O157 O 0.47709 0.98041 0.67121 0.0
O158 O 0.4631 0.01619 0.68447 0.0
O159 O 0.47794 0.01511 0.79136 0.0
H160 H 0.54942 0.98924 0.8421 0.0
H161 H 0.58024 0.98394 0.89216 0.0
H162 H 0.56943 0.02596 0.0472 0.0
H163 H 0.53861 0.03119 0.99689 0.0
H164 H 0.45856 0.0283 0.39673 0.0
H165 H 0.42937 0.02378 0.3343 0.0
H166 H 0.42146 0.97151 0.44044 0.0
H167 H 0.45028 0.97644 0.50453 0.0
Sm168 Sm 0.48954 0.50332 0.74823 0.0
Sm169 Sm 0.49949 0.48464 0.5968 0.0
C170 C 0.49457 0.51885 0.87123 0.0
C171 C 0.49228 0.53708 0.90417 0.0
C172 C 0.49741 0.53943 0.97385 0.0
C173 C 0.49683 0.55702 0.00443 0.0
C174 C 0.49113 0.57257 0.96571 0.0
C175 C 0.48557 0.57003 0.89615 0.0
C176 C 0.48617 0.55242 0.86559 0.0
C177 C 0.46016 0.50552 0.65563 0.0
C178 C 0.49917 0.52951 0.61184 0.0
C179 C 0.49997 0.46642 0.47722 0.0
C180 C 0.50173 0.44745 0.44982 0.0
C181 C 0.49458 0.43214 0.48607 0.0
C182 C 0.49598 0.41429 0.45791 0.0
C183 C 0.50461 0.41146 0.39309 0.0
C184 C 0.51192 0.42686 0.35747 0.0
C185 C 0.51048 0.44467 0.38561 0.0
C186 C 0.52827 0.49097 0.68695 0.0
C187 C 0.48438 0.45838 0.72832 0.0
O188 O 0.50754 0.51791 0.82347 0.0
O189 O 0.47933 0.50988 0.85448 0.0
O190 O 0.47598 0.4987 0.64745 0.0
O191 O 0.45893 0.51175 0.71908 0.0
O192 O 0.49988 0.52765 0.68047 0.0
O193 O 0.49669 0.51535 0.5689 0.0
O194 O 0.48469 0.47039 0.51107 0.0
O195 O 0.51485 0.47365 0.50536 0.0
O196 O 0.51228 0.4854 0.70346 0.0
O197 O 0.52997 0.49224 0.6198 0.0
O198 O 0.48912 0.45978 0.66176 0.0
O199 O 0.48447 0.47259 0.77208 0.0
H200 H 0.5022 0.52772 0.00427 0.0
H201 H 0.50098 0.55845 0.05831 0.0
H202 H 0.48132 0.58173 0.86462 0.0
H203 H 0.4823 0.55084 0.81146 0.0
H204 H 0.48781 0.43399 0.53585 0.0
H205 H 0.49041 0.40271 0.48706 0.0
H206 H 0.51844 0.42521 0.30708 0.0
H207 H 0.51604 0.45633 0.35683 0.0
Sm208 Sm 0.01259 0.4935 0.80617 0.0
Sm209 Sm 0.02175 0.50709 0.65675 0.0
C210 C 0.99769 0.49 0.93118 0.0
C211 C 0.97887 0.49374 0.95782 0.0
C212 C 0.96782 0.50765 0.92765 0.0
C213 C 0.94941 0.51008 0.94878 0.0
C214 C 0.94171 0.49871 0.00069 0.0
C215 C 0.95296 0.48508 0.03193 0.0
C216 C 0.97136 0.48258 0.01043 0.0
C217 C 0.01879 0.46615 0.71011 0.0
C218 C 0.97862 0.50381 0.69588 0.0
C219 C 0.0337 0.51222 0.52793 0.0
C220 C 0.0505 0.50943 0.4861 0.0
C221 C 0.0646 0.49733 0.50792 0.0
C222 C 0.0806 0.49509 0.46755 0.0
C223 C 0.08274 0.50496 0.40489 0.0
C224 C 0.06845 0.51696 0.38326 0.0
C225 C 0.05248 0.51917 0.42358 0.0
C226 C 0.01392 0.53439 0.75114 0.0
C227 C 0.05562 0.49477 0.7653 0.0
O228 O 0.00738 0.5045 0.91215 0.0
O229 O 0.99901 0.4762 0.8873 0.0
O230 O 0.00985 0.4809 0.70003 0.0
O231 O 0.02408 0.46472 0.77461 0.0
O232 O 0.98413 0.50246 0.76127 0.0
O233 O 0.99049 0.50374 0.64367 0.0
O234 O 0.02502 0.49723 0.54831 0.0
O235 O 0.03462 0.525 0.5761 0.0
O236 O 0.02364 0.52019 0.76281 0.0
O237 O 0.00879 0.53516 0.68648 0.0
O238 O 0.04991 0.49662 0.7001 0.0
O239 O 0.04401 0.49544 0.81844 0.0
H240 H 0.9733 0.51647 0.88694 0.0
H241 H 0.9412 0.52086 0.92438 0.0
H242 H 0.94737 0.47601 0.07164 0.0
H243 H 0.97962 0.47169 0.03394 0.0
H244 H 0.06327 0.48972 0.55623 0.0
H245 H 0.09144 0.48591 0.48602 0.0
H246 H 0.06956 0.52457 0.33486 0.0
H247 H 0.04168 0.52852 0.40597 0.0
H248 H 0.17359 0.01086 0.17832 0.0
H249 H 0.15445 0.02118 0.27633 0.0
H250 H 0.14028 0.96431 0.32156 0.0
H251 H 0.1596 0.95388 0.22505 0.0
H252 H 0.11754 0.01689 0.29853 0.0
H253 H 0.15651 0.98288 0.51041 0.0
H254 H 0.16592 0.9855 0.42395 0.0
H255 H 0.1505 0.96654 0.44382 0.0
C256 C 0.16647 0.00055 0.20943 0.0
C257 C 0.16819 0.98154 0.1942 0.0
C258 C 0.15557 0.00648 0.2654 0.0
C259 C 0.14628 0.99349 0.30712 0.0
C260 C 0.14777 0.97454 0.29131 0.0
H261 H 0.04705 0.99305 0.53159 0.0
H262 H 0.07186 0.9959 0.44637 0.0
C263 C 0.1587 0.96861 0.23572 0.0
C264 C 0.13425 -0.00041 0.36522 0.0
H265 H 0.12439 0.99029 0.53506 0.0
C266 C 0.11922 0.01137 0.35063 0.0
C267 C 0.13671 0.99282 0.43363 0.0
C268 C 0.15342 0.98141 0.45407 0.0
C269 C 0.10582 0.01541 0.4014 0.0
C270 C 0.10731 0.00708 0.46781 0.0
C271 C 0.12308 0.99646 0.48384 0.0
C272 C 0.09185 0.00744 0.51859 0.0
C273 C 0.09002 0.02823 0.38283 0.0
C274 C 0.09488 0.01267 0.58807 0.0
C275 C 0.08071 0.0108 0.63738 0.0
C276 C 0.06336 0.00361 0.6178 0.0
C277 C 0.06025 0.99879 0.54803 0.0
C278 C 0.07438 0.00057 0.49905 0.0
H279 H 0.09441 0.03857 0.34327 0.0
H280 H 0.07851 0.02 0.36005 0.0
H281 H 0.0847 0.03572 0.42919 0.0
H282 H 0.10832 0.01783 0.60437 0.0
H283 H 0.08343 0.01459 0.69093 0.0
H284 H 0.54597 0.1472 0.16082 0.0
H285 H 0.54103 0.12506 0.25498 0.0
H286 H 0.48174 0.13011 0.22907 0.0
H287 H 0.48654 0.15254 0.13517 0.0
H288 H 0.49315 0.13402 0.36551 0.0
H289 H 0.52436 0.0711 0.24848 0.0
H290 H 0.53958 0.09079 0.24542 0.0
H291 H 0.51811 0.09121 0.19758 0.0
C292 C 0.53187 0.14347 0.17453 0.0
C293 C 0.51664 0.15162 0.14047 0.0
C294 C 0.52908 0.13071 0.22809 0.0
C295 C 0.51103 0.12575 0.24823 0.0
C296 C 0.49578 0.13369 0.2139 0.0
H297 H 0.47552 0.05536 0.59549 0.0
H298 H 0.47537 0.07503 0.49127 0.0
C299 C 0.49856 0.14647 0.16026 0.0
C300 C 0.50817 0.11319 0.30812 0.0
H301 H 0.52 0.07065 0.37209 0.0
C302 C 0.49877 0.12006 0.36669 0.0
C303 C 0.5155 0.09499 0.30928 0.0
C304 C 0.52479 0.0865 0.24655 0.0
C305 C 0.49721 0.10947 0.42759 0.0
C306 C 0.50515 0.09156 0.42949 0.0
C307 C 0.51407 0.08447 0.37037 0.0
C308 C 0.50497 0.08019 0.49329 0.0
C309 C 0.48772 0.1177 0.49036 0.0
C310 C 0.52165 0.07662 0.52841 0.0
C311 C 0.52177 0.06546 0.58769 0.0
C312 C 0.50521 0.05754 0.61216 0.0
C313 C 0.48847 0.06128 0.57737 0.0
C314 C 0.48835 0.07253 0.51819 0.0
H315 H 0.48482 0.13273 0.48375 0.0
H316 H 0.47434 0.11044 0.49918 0.0
H317 H 0.49641 0.11575 0.53752 0.0
H318 H 0.53461 0.08241 0.50968 0.0
H319 H 0.53487 0.06269 0.61336 0.0
H320 H 0.33617 0.55113 0.204 0.0
H321 H 0.35918 0.54773 0.29666 0.0
H322 H 0.36575 0.48989 0.24482 0.0
H323 H 0.34253 0.49308 0.15266 0.0
H324 H 0.36218 0.4961 0.38671 0.0
H325 H 0.41529 0.54262 0.27149 0.0
H326 H 0.39284 0.55316 0.28118 0.0
H327 H 0.39575 0.53396 0.22249 0.0
C328 C 0.34255 0.53769 0.2121 0.0
C329 C 0.33759 0.52239 0.1707 0.0
C330 C 0.35576 0.5358 0.26488 0.0
C331 C 0.36437 0.51863 0.27689 0.0
C332 C 0.35932 0.50329 0.23616 0.0
H333 H 0.46402 0.49911 0.51718 0.0
H334 H 0.44028 0.50155 0.42684 0.0
C335 C 0.34608 0.50515 0.18344 0.0
C336 C 0.37844 0.51659 0.33262 0.0
H337 H 0.42066 0.53245 0.38715 0.0
C338 C 0.37499 0.504 0.38682 0.0
C339 C 0.39523 0.52676 0.3321 0.0
C340 C 0.40014 0.53976 0.2734 0.0
C341 C 0.38781 0.50149 0.44106 0.0
C342 C 0.40434 0.51207 0.44159 0.0
C343 C 0.40788 0.52449 0.38696 0.0
C344 C 0.41845 0.51012 0.49721 0.0
C345 C 0.38371 0.48725 0.49649 0.0
C346 C 0.4141 0.51426 0.56671 0.0
C347 C 0.42766 0.51267 0.61855 0.0
C348 C 0.44574 0.50696 0.60154 0.0
C349 C 0.45009 0.50306 0.53193 0.0
C350 C 0.43658 0.50462 0.48022 0.0
H351 H 0.37298 0.47717 0.47931 0.0
H352 H 0.39646 0.4795 0.511 0.0
H353 H 0.37844 0.49439 0.54364 0.0
H354 H 0.40031 0.51893 0.58072 0.0
H355 H 0.42401 0.51594 0.67179 0.0
H356 H 0.01606 0.34008 0.22133 0.0
H357 H 0.02931 0.36048 0.31043 0.0
H358 H 0.97435 0.37165 0.38914 0.0
H359 H 0.96105 0.35116 0.30139 0.0
H360 H 0.02315 0.39765 0.33392 0.0
H361 H 0.0024 0.35676 0.56417 0.0
H362 H 0.0021 0.3473 0.47722 0.0
H363 H 0.98301 0.3612 0.50804 0.0
C364 C 0.00681 0.34684 0.25781 0.0
C365 C 0.98751 0.34393 0.2546 0.0
C366 C 0.01441 0.35846 0.30866 0.0
C367 C 0.00284 0.36723 0.35726 0.0
C368 C 0.98357 0.3646 0.35331 0.0
H369 H 0.00401 0.46617 0.58066 0.0
H370 H 0.00485 0.44137 0.49489 0.0
C371 C 0.97597 0.35299 0.30274 0.0
C372 C 0.01063 0.37981 0.41061 0.0
H373 H 0.00862 0.38928 0.58415 0.0
C374 C 0.0203 0.39566 0.3888 0.0
C375 C 0.00734 0.37697 0.48233 0.0
C376 C 0.99833 0.35952 0.5094 0.0
C377 C 0.02551 0.40946 0.43643 0.0
C378 C 0.02056 0.40745 0.50724 0.0
C379 C 0.01218 0.39094 0.5297 0.0
C380 C 0.02192 0.42303 0.55712 0.0
C381 C 0.03584 0.42626 0.41011 0.0
C382 C 0.03096 0.42086 0.62136 0.0
C383 C 0.03037 0.43506 0.67104 0.0
C384 C 0.0206 0.45151 0.65716 0.0
C385 C 0.01183 0.45372 0.59249 0.0
C386 C 0.01241 0.4396 0.54313 0.0
H387 H 0.04435 0.42276 0.36374 0.0
H388 H 0.02567 0.43704 0.39427 0.0
H389 H 0.04505 0.43218 0.45076 0.0
H390 H 0.0382 0.40809 0.63344 0.0
H391 H 0.03723 0.43303 0.72059 0.0
H392 H 0.85018 0.94518 0.09621 0.0
H393 H 0.8756 0.9528 0.01699 0.0
H394 H 0.87155 0.01039 0.07578 0.0
H395 H 0.84629 0.00287 0.15604 0.0
H396 H 0.87549 0.97673 0.90428 0.0
H397 H 0.92676 0.99902 0.10323 0.0
H398 H 0.9059 0.98642 0.12509 0.0
H399 H 0.90485 0.01089 0.10753 0.0
C400 C 0.85473 0.95946 0.09252 0.0
C401 C 0.84628 0.97341 0.13267 0.0
C402 C 0.86924 0.96379 0.04718 0.0
C403 C 0.87561 0.9821 0.04129 0.0
C404 C 0.86708 0.99611 0.08064 0.0
H405 H 0.94539 0.02343 0.70449 0.0
H406 H 0.91989 0.01794 0.78649 0.0
C407 C 0.85259 0.99179 0.12617 0.0
C408 C 0.89094 0.98653 0.9928 0.0
H409 H 0.93506 0.00374 0.98523 0.0
C410 C 0.88853 0.98264 0.92189 0.0
C411 C 0.90798 0.99404 0.0162 0.0
C412 C 0.91167 0.9977 0.09223 0.0
C413 C 0.90268 0.98614 0.87352 0.0
C414 C 0.91955 0.99405 0.89667 0.0
C415 C 0.92202 0.99784 0.96765 0.0
C416 C 0.93506 0.99792 0.84832 0.0
C417 C 0.89959 0.98094 0.79838 0.0
C418 C 0.95215 0.98885 0.85706 0.0
C419 C 0.96671 0.99209 0.8107 0.0
C420 C 0.96446 0.00452 0.75523 0.0
C421 C 0.94744 0.01375 0.74689 0.0
C422 C 0.93287 0.01056 0.7934 0.0
H423 H 0.88795 0.97096 0.79235 0.0
H424 H 0.89613 0.9936 0.76822 0.0
H425 H 0.91232 0.97471 0.77556 0.0
H426 H 0.95409 0.97901 0.89901 0.0
H427 H 0.97955 0.98451 0.81722 0.0
H428 H 0.49181 0.84054 0.13967 0.0
H429 H 0.48539 0.86597 0.05891 0.0
H430 H 0.54421 0.87451 0.03093 0.0
H431 H 0.55075 0.84883 0.11014 0.0
H432 H 0.49489 0.9026 0.06484 0.0
H433 H 0.52638 0.86979 0.83218 0.0
H434 H 0.52171 0.85703 0.91097 0.0
H435 H 0.54212 0.87132 0.90428 0.0
C436 C 0.50338 0.8478 0.11618 0.0
C437 C 0.52179 0.84258 0.13079 0.0
C438 C 0.49969 0.86233 0.07011 0.0
C439 C 0.51432 0.87188 0.03793 0.0
C440 C 0.53271 0.867 0.05378 0.0
H441 H 0.52407 0.9676 0.77245 0.0
H442 H 0.52868 0.94198 0.85423 0.0
C443 C 0.53642 0.85239 0.09938 0.0
C444 C 0.51036 0.88711 0.98848 0.0
H445 H 0.51855 0.90182 0.82251 0.0
C446 C 0.49993 0.90237 0.0117 0.0
C447 C 0.5169 0.88672 0.91906 0.0
C448 C 0.52724 0.87025 0.88985 0.0
C449 C 0.49626 0.91747 0.96775 0.0
C450 C 0.50314 0.9172 0.89904 0.0
C451 C 0.5134 0.90192 0.87552 0.0
C452 C 0.50009 0.93283 0.85089 0.0
C453 C 0.4854 0.9338 0.99521 0.0
C454 C 0.48249 0.93601 0.82194 0.0
C455 C 0.47983 0.95057 0.77494 0.0
C456 C 0.49474 0.96213 0.75662 0.0
C457 C 0.51233 0.95891 0.78588 0.0
C458 C 0.515 0.94431 0.83245 0.0
H459 H 0.48323 0.93297 0.05232 0.0
H460 H 0.49271 0.94696 0.98291 0.0
H461 H 0.47161 0.93427 0.96947 0.0
H462 H 0.47089 0.92714 0.83529 0.0
H463 H 0.46615 0.95279 0.75308 0.0
H464 H 0.66157 0.55723 0.04907 0.0
H465 H 0.63458 0.54914 0.97799 0.0
H466 H 0.63539 0.49363 0.06142 0.0
H467 H 0.66246 0.50153 0.1325 0.0
H468 H 0.63274 0.49544 0.91491 0.0
H469 H 0.58057 0.5406 0.04369 0.0
H470 H 0.60149 0.5523 0.01774 0.0
H471 H 0.60249 0.53466 0.08367 0.0
C472 C 0.65598 0.54331 0.05252 0.0
C473 C 0.66415 0.53002 0.09649 0.0
C474 C 0.64049 0.53876 0.01222 0.0
C475 C 0.63286 0.52088 0.01529 0.0
C476 C 0.64102 0.50755 0.05874 0.0
H477 H 0.52847 0.48493 0.82721 0.0
H478 H 0.5537 0.49175 0.90918 0.0
C479 C 0.65648 0.51209 0.09926 0.0
C480 C 0.61684 0.51586 0.97089 0.0
H481 H 0.57159 0.52669 0.9365 0.0
C482 C 0.61934 0.50219 0.91984 0.0
C483 C 0.59933 0.52455 0.97809 0.0
C484 C 0.59568 0.53873 0.03414 0.0
C485 C 0.6049 0.49731 0.87443 0.0
C486 C 0.58761 0.5065 0.87986 0.0
C487 C 0.58493 0.5198 0.93216 0.0
C488 C 0.57226 0.50268 0.83078 0.0
C489 C 0.60824 0.4823 0.82115 0.0
C490 C 0.57429 0.50684 0.75993 0.0
C491 C 0.55993 0.50305 0.71327 0.0
C492 C 0.54325 0.49514 0.73678 0.0
C493 C 0.54116 0.49113 0.80784 0.0
C494 C 0.55553 0.49499 0.8546 0.0
H495 H 0.62039 0.47354 0.83494 0.0
H496 H 0.59584 0.47326 0.81567 0.0
H497 H 0.61104 0.48881 0.76992 0.0
H498 H 0.58699 0.51306 0.74077 0.0
H499 H 0.56187 0.50635 0.6588 0.0
H500 H 0.9831 0.66072 0.21765 0.0
H501 H 0.99587 0.63536 0.14763 0.0
H502 H 0.94215 0.62655 0.05429 0.0
H503 H 0.92922 0.65182 0.12402 0.0
H504 H 0.96231 0.593 0.0986 0.0
H505 H 0.00355 0.64102 0.93239 0.0
H506 H 0.00648 0.64329 0.02491 0.0
H507 H 0.98454 0.64893 0.98598 0.0
C508 C 0.97397 0.65332 0.18253 0.0
C509 C 0.95518 0.65837 0.17596 0.0
C510 C 0.9813 0.63887 0.14256 0.0
C511 C 0.96996 0.62925 0.09554 0.0
C512 C 0.9511 0.63386 0.09035 0.0
H513 H 0.98982 0.563 0.73521 0.0
H514 H 0.97986 0.58536 0.82341 0.0
C515 C 0.94377 0.64834 0.13003 0.0
C516 C 0.97784 0.61488 0.0494 0.0
H517 H 0.00593 0.60909 0.90815 0.0
C518 C 0.97196 0.59644 0.0573 0.0
C519 C 0.99028 0.61955 0.9953 0.0
C520 C 0.99654 0.63927 0.98344 0.0
C521 C 0.97818 0.58249 0.01194 0.0
C522 C 0.99054 0.58721 0.95776 0.0
C523 C 0.99653 0.6056 0.95023 0.0
C524 C 0.99656 0.57348 0.90559 0.0
C525 C 0.97113 0.56292 0.02065 0.0
C526 C 0.00938 0.55958 0.92285 0.0
C527 C 0.01523 0.54689 0.8724 0.0
C528 C 0.00821 0.54791 0.80435 0.0
C529 C 0.99544 0.56191 0.78731 0.0
C530 C 0.98972 0.57464 0.83752 0.0
H531 H 0.95997 0.56196 0.06039 0.0
H532 H 0.96572 0.55757 0.97041 0.0
H533 H 0.98277 0.55377 0.03675 0.0
H534 H 0.01496 0.55866 0.97506 0.0
H535 H 0.0253 0.53638 0.8865 0.0
H536 H 0.01073 0.24774 0.18889 0.0
H537 H 0.01292 0.21567 0.22945 0.0
H538 H 0.95382 0.20919 0.20309 0.0
H539 H 0.95161 0.24117 0.16041 0.0
H540 H 0.96777 0.19673 0.33348 0.0
H541 H 0.00733 0.16778 0.11098 0.0
H542 H 0.01756 0.18816 0.14902 0.0
H543 H 0.99527 0.18972 0.10745 0.0
C544 C 0.99829 0.23933 0.18964 0.0
C545 C 0.9811 0.24678 0.16926 0.0
C546 C 0.99954 0.22106 0.21352 0.0
C547 C 0.98358 0.20997 0.21815 0.0
C548 C 0.96632 0.21749 0.19937 0.0
H549 H 0.9822 0.09051 0.28698 0.0
H550 H 0.97774 0.12185 0.24084 0.0
C551 C 0.96508 0.23574 0.17511 0.0
C552 C 0.98486 0.19069 0.2445 0.0
H553 H 0.00451 0.1485 0.21103 0.0
C554 C 0.97573 0.18615 0.30665 0.0
C555 C 0.99506 0.17687 0.20888 0.0
C556 C 0.00427 0.18075 0.14003 0.0
C557 C 0.97688 0.16823 0.335 0.0
C558 C 0.98764 0.15459 0.30068 0.0
C559 C 0.99642 0.15903 0.23765 0.0
C560 C 0.99007 0.13566 0.32942 0.0
C561 C 0.96638 0.164 0.40104 0.0
C562 C 0.99864 0.13303 0.39421 0.0
C563 C 0.00126 0.11515 0.4206 0.0
C564 C 0.99548 0.09952 0.38248 0.0
C565 C 0.98697 0.10223 0.31738 0.0
C566 C 0.98434 0.12012 0.29106 0.0
H567 H 0.95503 0.17415 0.41024 0.0
H568 H 0.96034 0.14984 0.39946 0.0
H569 H 0.97608 0.16474 0.44582 0.0
H570 H 0.00356 0.1448 0.42394 0.0
H571 H 0.00819 0.11356 0.47024 0.0
H572 H 0.27148 0.99538 0.01535 0.0
H573 H 0.30367 0.99732 0.05641 0.0
H574 H 0.29024 0.96067 0.22667 0.0
H575 H 0.25824 0.95832 0.18412 0.0
H576 H 0.31617 0.01103 0.1736 0.0
H577 H 0.33732 0.93742 0.16193 0.0
H578 H 0.31628 0.94574 0.12166 0.0
H579 H 0.31674 0.94031 0.21314 0.0
C580 C 0.27552 0.9877 0.06131 0.0
C581 C 0.26247 0.97687 0.09715 0.0
C582 C 0.29388 0.98874 0.08458 0.0
C583 C 0.2995 0.97895 0.14417 0.0
C584 C 0.28643 0.96794 0.17951 0.0
H585 H 0.3904 0.98271 0.43132 0.0
H586 H 0.36129 0.97819 0.36813 0.0
C587 C 0.26813 0.96669 0.15558 0.0
C588 C 0.31862 0.98126 0.172 0.0
H589 H 0.35624 0.95736 0.23311 0.0
C590 C 0.32505 -0.00069 0.18544 0.0
C591 C 0.33025 0.96595 0.18745 0.0
C592 C 0.32486 0.94629 0.16956 0.0
C593 C 0.34245 0.00243 0.21615 0.0
C594 C 0.35365 0.9871 0.23439 0.0
C595 C 0.34748 0.96907 0.21962 0.0
C596 C 0.37152 0.98948 0.27131 0.0
C597 C 0.34853 0.02207 0.23086 0.0
C598 C 0.38696 0.99712 0.23737 0.0
C599 C 0.40371 -0.00046 0.27308 0.0
C600 C 0.40532 0.99439 0.34351 0.0
C601 C 0.38979 0.98659 0.37698 0.0
C602 C 0.37309 0.98409 0.3411 0.0
H603 H 0.33716 0.03224 0.22238 0.0
H604 H 0.35355 0.02333 0.28526 0.0
H605 H 0.36022 0.02573 0.19586 0.0
H606 H 0.38605 0.00115 0.18319 0.0
H607 H 0.41545 0.00527 0.24526 0.0
H608 H 0.53685 0.25911 0.06063 0.0
H609 H 0.53637 0.28927 0.11953 0.0
H610 H 0.48239 0.27665 0.20447 0.0
H611 H 0.48328 0.24618 0.149 0.0
H612 H 0.51186 0.31813 0.10472 0.0
H613 H 0.5108 0.29223 0.37619 0.0
H614 H 0.516 0.27741 0.30312 0.0
H615 H 0.49231 0.28314 0.32375 0.0
C616 C 0.52493 0.26276 0.09217 0.0
C617 C 0.50989 0.25047 0.09884 0.0
C618 C 0.52465 0.27999 0.12557 0.0
C619 C 0.50942 0.28515 0.16687 0.0
C620 C 0.4944 0.27288 0.17364 0.0
H621 H 0.47768 0.38464 0.39053 0.0
H622 H 0.47922 0.35403 0.33562 0.0
C623 C 0.49474 0.25562 0.14062 0.0
C624 C 0.50911 0.3035 0.20179 0.0
H625 H 0.50513 0.32449 0.36041 0.0
C626 C 0.51054 0.31953 0.16067 0.0
C627 C 0.50735 0.30529 0.27482 0.0
C628 C 0.50671 0.2886 0.32216 0.0
C629 C 0.50994 0.3373 0.19048 0.0
C630 C 0.50798 0.33906 0.26335 0.0
C631 C 0.50657 0.32307 0.30451 0.0
C632 C 0.5073 0.35743 0.29782 0.0
C633 C 0.51098 0.35407 0.14371 0.0
C634 C 0.52272 0.3693 0.29595 0.0
C635 C 0.52192 0.38675 0.32747 0.0
C636 C 0.50571 0.39262 0.36191 0.0
C637 C 0.49043 0.38049 0.36499 0.0
C638 C 0.49124 0.36304 0.33335 0.0
H639 H 0.50912 0.35033 0.08817 0.0
H640 H 0.50025 0.36442 0.15844 0.0
H641 H 0.52479 0.36071 0.14937 0.0
H642 H 0.53541 0.36504 0.27022 0.0
H643 H 0.53406 0.39561 0.32527 0.0
H644 H 0.24502 0.52214 0.1701 0.0
H645 H 0.21485 0.518 0.22584 0.0
H646 H 0.19666 0.48424 0.05408 0.0
H647 H 0.22665 0.48895 0.99623 0.0
H648 H 0.17096 0.50995 0.09037 0.0
H649 H 0.19494 0.47245 0.32482 0.0
H650 H 0.20716 0.49387 0.3123 0.0
H651 H 0.20944 0.47557 0.24914 0.0
C652 C 0.23464 0.51373 0.14427 0.0
C653 C 0.23838 0.50545 0.07957 0.0
C654 C 0.21747 0.51123 0.17652 0.0
C655 C 0.20371 0.50037 0.14485 0.0
C656 C 0.20727 0.49235 0.07973 0.0
H657 H 0.10199 0.47319 0.37403 0.0
H658 H 0.13054 0.47036 0.30546 0.0
C659 C 0.22447 0.49485 0.04727 0.0
C660 C 0.18531 0.49823 0.17834 0.0
H661 H 0.16451 0.48598 0.33101 0.0
C662 C 0.1695 0.50451 0.14268 0.0
C663 C 0.18337 0.49077 0.246 0.0
C664 C 0.19961 0.4826 0.28501 0.0
C665 C 0.15194 0.50439 0.17427 0.0
C666 C 0.15024 0.49815 0.24374 0.0
C667 C 0.16588 0.49101 0.27809 0.0
C668 C 0.13259 0.49969 0.28288 0.0
C669 C 0.13539 0.51102 0.13304 0.0
C670 C 0.12445 0.51714 0.29366 0.0
C671 C 0.10824 0.5188 0.33292 0.0
C672 C 0.0999 0.50306 0.3627 0.0
C673 C 0.10816 0.48559 0.35224 0.0
C674 C 0.12439 0.48394 0.31278 0.0
H675 H 0.13782 0.50969 0.07619 0.0
H676 H 0.12268 0.50312 0.14686 0.0
H677 H 0.1329 0.5259 0.14459 0.0
H678 H 0.13084 0.52954 0.27274 0.0
H679 H 0.10244 0.53249 0.34114 0.0
H680 H 0.93449 0.77085 0.23005 0.0
H681 H 0.94236 0.80213 0.18883 0.0
H682 H 0.99635 0.78266 0.12506 0.0
H683 H 0.98855 0.75138 0.16582 0.0
H684 H 0.97756 0.82415 0.23322 0.0
H685 H 0.96996 0.80923 0.95053 0.0
H686 H 0.95837 0.79562 0.01642 0.0
H687 H 0.98282 0.79283 0.0023 0.0
C688 C 0.94798 0.77324 0.20675 0.0
C689 C 0.96102 0.75879 0.20188 0.0
C690 C 0.95249 0.7911 0.18375 0.0
C691 C 0.96993 0.79465 0.15419 0.0
C692 C 0.98283 0.78016 0.14791 0.0
H693 H 0.02563 0.89832 0.05641 0.0
H694 H 0.01661 0.86833 0.1051 0.0
C695 C 0.97839 0.76236 0.17149 0.0
C696 C 0.97464 0.81349 0.12934 0.0
H697 H 0.98104 0.83887 0.98157 0.0
C698 C 0.9783 0.82744 0.1783 0.0
C699 C 0.9755 0.81765 0.05768 0.0
C700 C 0.97137 0.80313 0.00334 0.0
C701 C 0.98296 0.84553 0.15731 0.0
C702 C 0.98405 0.84966 0.08541 0.0
C703 C 0.9802 0.83568 0.0366 0.0
C704 C 0.98917 0.86834 0.05926 0.0
C705 C 0.98645 0.86007 0.21222 0.0
C706 C 0.97685 0.87821 0.01645 0.0
C707 C 0.98196 0.89538 0.98848 0.0
C708 C 0.99956 0.90298 0.0024 0.0
C709 C 0.01184 0.89306 0.04559 0.0
C710 C 0.00671 0.8759 0.07357 0.0
H711 H 0.98049 0.85601 0.2633 0.0
H712 H 0.00165 0.86186 0.21911 0.0
H713 H 0.98049 0.87365 0.19655 0.0
H714 H 0.96326 0.87259 0.00453 0.0
H715 H 0.97207 0.90272 0.95616 0.0
H716 H 0.74748 0.01053 0.17599 0.0
H717 H 0.71529 0.0148 0.13867 0.0
H718 H 0.70433 0.95691 0.17796 0.0
H719 H 0.73634 0.9528 0.21861 0.0
H720 H 0.69702 0.99891 0.03239 0.0
H721 H 0.66201 0.982 0.28035 0.0
H722 H 0.68688 0.98419 0.27347 0.0
H723 H 0.67565 0.96291 0.24901 0.0
C724 C 0.73807 0.99883 0.17838 0.0
C725 C 0.74424 0.98148 0.20227 0.0
C726 C 0.71975 0.00123 0.15625 0.0
C727 C 0.70727 0.98627 0.15692 0.0
C728 C 0.71356 0.96877 0.17869 0.0
H729 H 0.59501 0.97175 0.00081 0.0
H730 H 0.62658 0.96741 0.04599 0.0
C731 C 0.73189 0.96639 0.20121 0.0
C732 C 0.68791 0.9889 0.13226 0.0
H733 H 0.64239 0.98405 0.17942 0.0
C734 C 0.68509 0.99576 0.06472 0.0
C735 C 0.67232 0.9848 0.17451 0.0
C736 C 0.67434 0.97824 0.24861 0.0
C737 C 0.66715 0.99837 0.03795 0.0
C738 C 0.65163 0.99408 0.07991 0.0
C739 C 0.65437 0.98724 0.14738 0.0
C740 C 0.63244 0.99674 0.05442 0.0
C741 C 0.66484 0.00543 0.9646 0.0
C742 C 0.6253 0.01466 0.04506 0.0
C743 C 0.60731 0.01719 0.01949 0.0
C744 C 0.59617 0.00181 0.00257 0.0
C745 C 0.60334 0.98385 0.01267 0.0
C746 C 0.62129 0.98135 0.03879 0.0
H747 H 0.6781 0.00511 0.93509 0.0
H748 H 0.65435 0.99704 0.93626 0.0
H749 H 0.65979 0.01997 0.96614 0.0
H750 H 0.6337 0.0267 0.05727 0.0
H751 H 0.60224 0.03118 0.01172 0.0
H752 H 0.53884 0.73148 0.20213 0.0
H753 H 0.53348 0.69954 0.16238 0.0
H754 H 0.47611 0.71271 0.12137 0.0
H755 H 0.4814 0.74465 0.16059 0.0
H756 H 0.50291 0.6739 0.22043 0.0
H757 H 0.49907 0.68886 0.93668 0.0
H758 H 0.51106 0.70397 0.99674 0.0
H759 H 0.48616 0.70366 0.99467 0.0
C760 C 0.52514 0.72758 0.18403 0.0
C761 C 0.51045 0.74042 0.18527 0.0
C762 C 0.52207 0.70935 0.16183 0.0
C763 C 0.5044 0.70383 0.13913 0.0
C764 C 0.48983 0.71674 0.13876 0.0
H765 H 0.46559 0.60063 0.9527 0.0
H766 H 0.46758 0.63216 -0.00044 0.0
C767 C 0.49284 0.73491 0.16153 0.0
C768 C 0.50117 0.68452 0.11617 0.0
H769 H 0.49388 0.65802 0.97177 0.0
C770 C 0.50093 0.67037 0.16617 0.0
C771 C 0.4984 0.68009 0.04541 0.0
C772 C 0.49876 0.69486 0.98988 0.0
C773 C 0.49795 0.65179 0.14721 0.0
C774 C 0.49565 0.64725 0.07606 0.0
C775 C 0.49565 0.6615 0.02624 0.0
C776 C 0.49387 0.62779 0.05159 0.0
C777 C 0.49701 0.63729 0.20372 0.0
C778 C 0.50802 0.61488 0.06496 0.0
C779 C 0.50694 0.59689 0.03817 0.0
C780 C 0.49175 0.59146 0.99686 0.0
C781 C 0.47754 0.60441 0.98381 0.0
C782 C 0.47862 0.6224 0.01083 0.0
H783 H 0.4931 0.6435 0.25454 0.0
H784 H 0.48684 0.62625 0.19068 0.0
H785 H 0.51088 0.63079 0.20989 0.0
H786 H 0.52017 0.61886 0.09461 0.0
H787 H 0.5183 0.5874 0.0481 0.0
H788 H 0.78373 0.52691 0.2895 0.0
H789 H 0.81536 0.52032 0.25064 0.0
H790 H 0.79577 0.51477 0.03981 0.0
H791 H 0.76387 0.5207 0.07902 0.0
H792 H 0.8289 0.48759 0.17154 0.0
H793 H 0.83801 0.55496 0.03444 0.0
H794 H 0.82025 0.55138 0.09942 0.0
H795 H 0.81743 0.54193 0.01374 0.0
C796 C 0.78602 0.52364 0.23537 0.0
C797 C 0.77121 0.5237 0.18776 0.0
C798 C 0.80416 0.52018 0.21302 0.0
C799 C 0.80789 0.51708 0.14241 0.0
C800 C 0.79317 0.51724 0.09452 0.0
H801 H 0.91166 0.50349 0.91544 0.0
H802 H 0.87907 0.507 0.94899 0.0
C803 C 0.77499 0.5206 0.11697 0.0
C804 C 0.82723 0.51389 0.11901 0.0
H805 H 0.86268 0.53356 0.02717 0.0
C806 C 0.83633 0.49761 0.13993 0.0
C807 C 0.83678 0.52697 0.0776 0.0
C808 C 0.82774 0.54488 0.05518 0.0
C809 C 0.85474 0.49396 0.11999 0.0
C810 C 0.86445 0.50722 0.07959 0.0
C811 C 0.85525 0.52343 0.05819 0.0
C812 C 0.88422 0.50469 0.05953 0.0
C813 C 0.86347 0.47579 0.14126 0.0
C814 C 0.89801 0.50243 0.11052 0.0
C815 C 0.91665 0.50039 0.09149 0.0
C816 C 0.9219 0.50082 0.02109 0.0
C817 C 0.90809 0.50328 0.97016 0.0
C818 C 0.88945 0.5052 0.98922 0.0
H819 H 0.85277 0.46513 0.15298 0.0
H820 H 0.87277 0.47037 0.09993 0.0
H821 H 0.87183 0.47795 0.18904 0.0
H822 H 0.8944 0.50251 0.16518 0.0
H823 H 0.92699 0.4988 0.13195 0.0
H824 H 0.98499 0.19746 0.96603 0.0
H825 H 0.98915 0.16586 0.92406 0.0
H826 H 0.0486 0.17181 0.94144 0.0
H827 H 0.04451 0.20334 0.98631 0.0
H828 H 0.00601 0.1534 0.81111 0.0
H829 H 0.04037 0.12388 0.04454 0.0
H830 H 0.02954 0.14644 0.04471 0.0
H831 H 0.05235 0.14344 0.00828 0.0
C832 C 0.99897 0.19207 0.96109 0.0
C833 C 0.01442 0.20286 0.97993 0.0
C834 C 0.00132 0.17399 0.93711 0.0
C835 C 0.01916 0.16637 0.93071 0.0
C836 C 0.03468 0.17725 0.94772 0.0
H837 H 0.03532 0.066 0.68469 0.0
H838 H 0.03688 0.09767 0.72937 0.0
C839 C 0.03233 0.19532 0.97268 0.0
C840 C 0.02131 0.14718 0.90446 0.0
H841 H 0.03846 0.1044 0.9454 0.0
C842 C 0.01311 0.14268 0.84046 0.0
C843 C 0.03038 0.13318 0.94333 0.0
C844 C 0.03851 0.13689 0.01433 0.0
C845 C 0.01354 0.12454 0.81443 0.0
C846 C 0.02305 0.11063 0.85231 0.0
C847 C 0.03136 0.11513 0.91615 0.0
C848 C 0.02383 0.09117 0.82781 0.0
C849 C 0.00319 0.12038 0.74789 0.0
C850 C 0.01693 0.07682 0.86986 0.0
C851 C 0.01641 0.05861 0.84507 0.0
C852 C 0.02263 0.05452 0.77756 0.0
C853 C 0.03016 0.0688 0.73655 0.0
C854 C 0.03097 0.08692 0.76184 0.0
H855 H 0.99242 0.13102 0.73681 0.0
H856 H 0.01312 0.12037 0.70378 0.0
H857 H 0.99635 0.10659 0.75019 0.0
H858 H 0.01144 0.07979 0.92113 0.0
H859 H 0.01053 0.04789 0.87779 0.0
H860 H 0.30923 0.03848 0.10249 0.0
H861 H 0.34229 0.03963 0.07306 0.0
H862 H 0.32826 0.04504 0.85589 0.0
H863 H 0.29536 0.044 0.88472 0.0
H864 H 0.35929 0.01369 0.99198 0.0
H865 H 0.3692 0.08301 0.87523 0.0
H866 H 0.34919 0.07731 0.92767 0.0
H867 H 0.34987 0.07112 0.83695 0.0
C868 C 0.3132 0.04032 0.04864 0.0
C869 C 0.29968 0.04099 0.99585 0.0
C870 C 0.33208 0.04099 0.03196 0.0
C871 C 0.33772 0.04262 0.96237 0.0
C872 C 0.32423 0.04419 0.91006 0.0
H873 H 0.42864 0.02212 0.69348 0.0
H874 H 0.39932 0.02888 0.75202 0.0
C875 C 0.3054 0.04348 0.92663 0.0
C876 C 0.3575 0.0405 0.94299 0.0
H877 H 0.39148 0.05952 0.84206 0.0
C878 C 0.3665 0.02385 0.96035 0.0
C879 C 0.36684 0.0538 0.90182 0.0
C880 C 0.35832 0.07239 0.88497 0.0
C881 C 0.38418 0.01966 0.93407 0.0
C882 C 0.39311 0.03258 0.89006 0.0
C883 C 0.38448 0.04957 0.87529 0.0
C884 C 0.41097 0.02832 0.85569 0.0
C885 C 0.39276 0.00107 0.95074 0.0
C886 C 0.42722 0.02582 0.89475 0.0
C887 C 0.44402 0.0219 0.8615 0.0
C888 C 0.44486 0.02051 0.78854 0.0
C889 C 0.42851 0.02305 0.74969 0.0
C890 C 0.41174 0.02697 0.783 0.0
H891 H 0.38257 0.99135 0.97428 0.0
H892 H 0.3986 0.9946 0.90313 0.0
H893 H 0.40429 0.00306 0.98831 0.0
H894 H 0.42693 0.02708 0.95086 0.0
H895 H 0.45635 0.02011 0.89304 0.0
H896 H 0.46276 0.28738 0.823 0.0
H897 H 0.46236 0.32025 0.79253 0.0
H898 H 0.44879 0.33429 0.00452 0.0
H899 H 0.44946 0.30138 0.03596 0.0
H900 H 0.43558 0.34868 0.80474 0.0
H901 H 0.49791 0.36169 0.9688 0.0
H902 H 0.4901 0.33859 0.9477 0.0
H903 H 0.47826 0.35187 0.01315 0.0
C904 C 0.45947 0.29742 0.86307 0.0
C905 C 0.45638 0.29179 0.9321 0.0
C906 C 0.4592 0.31619 0.84549 0.0
C907 C 0.45588 0.32967 0.89655 0.0
C908 C 0.45172 0.32408 0.96467 0.0
H909 H 0.47291 0.4494 0.86007 0.0
H910 H 0.46384 0.41885 0.9036 0.0
C911 C 0.452 0.30528 0.9824 0.0
C912 C 0.45799 0.34951 0.87885 0.0
H913 H 0.48583 0.38707 0.90709 0.0
C914 C 0.44646 0.35715 0.82746 0.0
C915 C 0.47222 0.36046 0.90862 0.0
C916 C 0.48545 0.35276 0.96223 0.0
C917 C 0.44895 0.37544 0.80435 0.0
C918 C 0.46352 0.38619 0.83269 0.0
C919 C 0.47467 0.37875 0.88557 0.0
C920 C 0.46817 0.40481 0.80555 0.0
C921 C 0.43601 0.38307 0.74965 0.0
C922 C 0.47386 0.40693 0.73628 0.0
C923 C 0.4791 0.42432 0.71123 0.0
C924 C 0.47887 0.43993 0.75512 0.0
C925 C 0.47325 0.43771 0.82473 0.0
C926 C 0.46801 0.42028 0.84974 0.0
H927 H 0.42265 0.37537 0.74844 0.0
H928 H 0.43307 0.398 0.75877 0.0
H929 H 0.44262 0.38165 0.6978 0.0
H930 H 0.47453 0.39506 0.70182 0.0
H931 H 0.48347 0.42544 0.65757 0.0
H932 H 0.22313 0.43423 0.76886 0.0
H933 H 0.19242 0.44767 0.74702 0.0
H934 H 0.18925 0.46509 0.96109 0.0
H935 H 0.22046 0.45272 0.98199 0.0
H936 H 0.16077 0.43775 0.80163 0.0
H937 H 0.17214 0.51158 0.86949 0.0
H938 H 0.1911 0.49546 0.85941 0.0
H939 H 0.17807 0.49621 0.93929 0.0
C940 C 0.21604 0.4414 0.81066 0.0
C941 C 0.2243 0.44292 0.87637 0.0
C942 C 0.1985 0.449 0.79831 0.0
C943 C 0.1887 0.45787 0.85205 0.0
C944 C 0.19689 0.45913 0.91818 0.0
H945 H 0.07341 0.49225 0.89109 0.0
H946 H 0.10594 0.48406 0.91223 0.0
C947 C 0.21466 0.45196 0.93011 0.0
C948 C 0.16941 0.46447 0.84005 0.0
H949 H 0.14057 0.50195 0.85568 0.0
C950 C 0.15644 0.45184 0.81288 0.0
C951 C 0.16367 0.48284 0.85534 0.0
C952 C 0.17703 0.49734 0.88187 0.0
C953 C 0.13794 0.457 0.80099 0.0
C954 C 0.13224 0.47529 0.81632 0.0
C955 C 0.14506 0.48793 0.84402 0.0
C956 C 0.11296 0.48147 0.80335 0.0
C957 C 0.1245 0.44276 0.77303 0.0
C958 C 0.10631 0.48306 0.73509 0.0
C959 C 0.08778 0.48777 0.72274 0.0
C960 C 0.07553 0.49094 0.77853 0.0
C961 C 0.08241 0.4898 0.84692 0.0
C962 C 0.101 0.48518 0.85917 0.0
H963 H 0.13013 0.42844 0.77676 0.0
H964 H 0.11112 0.44339 0.80163 0.0
H965 H 0.12162 0.44578 0.71748 0.0
H966 H 0.11541 0.48041 0.69135 0.0
H967 H 0.08301 0.48858 0.66942 0.0
H968 H 0.02174 0.80055 0.37286 0.0
H969 H 0.02464 0.83213 0.419 0.0
H970 H 0.9651 0.83842 0.41195 0.0
H971 H 0.96203 0.80687 0.36773 0.0
H972 H 0.01378 0.86624 0.36898 0.0
H973 H 0.97683 0.84971 0.61422 0.0
H974 H 0.98471 0.83202 0.55478 0.0
H975 H 0.96351 0.84445 0.53785 0.0
C976 C 0.00928 0.80869 0.38116 0.0
C977 C 0.99164 0.80113 0.36797 0.0
C978 C 0.01096 0.8267 0.40733 0.0
C979 C 0.99505 0.8374 0.42041 0.0
C980 C 0.97751 0.83018 0.40415 0.0
H981 H 0.99292 0.95597 0.50156 0.0
H982 H 0.98994 0.92508 0.45059 0.0
C983 C 0.9758 0.81216 0.37874 0.0
C984 C 0.9967 0.85598 0.45237 0.0
H985 H 0.9828 0.88158 0.59219 0.0
C986 C 0.0071 0.86961 0.41796 0.0
C987 C 0.98819 0.8602 0.51679 0.0
C988 C 0.97784 0.84578 0.55847 0.0
C989 C 0.00903 0.8875 0.44584 0.0
C990 C -0.00015 0.89195 0.50881 0.0
C991 C 0.98966 0.87821 0.54358 0.0
C992 C 0.0009 0.91066 0.54045 0.0
C993 C 0.02123 0.90126 0.40827 0.0
C994 C 0.00713 0.91274 0.60919 0.0
C995 C 0.00843 0.93035 0.63907 0.0
C996 C 0.00365 0.9462 0.60047 0.0
C997 C 0.99693 0.94404 0.5323 0.0
C998 C 0.99538 0.9264 0.50285 0.0
H999 H 0.03146 0.89418 0.3741 0.0
H1000 H 0.01245 0.91024 0.37489 0.0
H1001 H 0.02889 0.91022 0.44546 0.0
H1002 H 0.01131 0.90076 0.63938 0.0
H1003 H 0.0137 0.93154 0.69165 0.0
H1004 H 0.69434 0.03665 0.33405 0.0
H1005 H 0.66168 0.03761 0.37012 0.0
H1006 H 0.66764 0.98397 0.46679 0.0
H1007 H 0.70012 0.98281 0.43085 0.0
H1008 H 0.63534 0.98815 0.38084 0.0
H1009 H 0.64373 0.04515 0.57374 0.0
H1010 H 0.65215 0.04962 0.4873 0.0
H1011 H 0.66324 0.03227 0.53983 0.0
C1012 C 0.68871 0.02512 0.36338 0.0
C1013 C 0.69982 0.00971 0.38006 0.0
C1014 C 0.67008 0.0257 0.38386 0.0
C1015 C 0.66236 0.01092 0.42153 0.0
C1016 C 0.67339 0.9955 0.43777 0.0
H1017 H 0.5677 0.00032 0.685 0.0
H1018 H 0.59817 0.00141 0.62971 0.0
C1019 C 0.69196 0.99491 0.41742 0.0
C1020 C 0.64284 0.01144 0.44502 0.0
H1021 H 0.61372 0.03276 0.55987 0.0
C1022 C 0.63052 0.99798 0.41956 0.0
C1023 C 0.63675 0.02421 0.4959 0.0
C1024 C 0.64963 0.03858 0.52638 0.0
C1025 C 0.61225 0.99676 0.44456 0.0
C1026 C 0.60621 0.00945 0.49579 0.0
C1027 C 0.61844 0.0231 0.52038 0.0
C1028 C 0.58757 0.0082 0.52758 0.0
C1029 C 0.59977 0.98154 0.41788 0.0
C1030 C 0.57153 0.01162 0.48824 0.0
C1031 C 0.55403 0.01099 0.51965 0.0
C1032 C 0.55233 0.00699 0.59099 0.0
C1033 C 0.56847 0.00341 0.62996 0.0
C1034 C 0.58592 0.00407 0.59853 0.0
H1035 H 0.60761 0.97086 0.38828 0.0
H1036 H 0.5924 0.97467 0.46158 0.0
H1037 H 0.58915 0.98762 0.38281 0.0
H1038 H 0.57258 0.01508 0.43357 0.0
H1039 H 0.5419 0.01393 0.48825 0.0
H1040 H 0.46021 0.69194 0.37821 0.0
H1041 H 0.4623 0.6601 0.4222 0.0
H1042 H 0.5215 0.66048 0.38773 0.0
H1043 H 0.51964 0.69238 0.34605 0.0
H1044 H 0.4744 0.62787 0.36516 0.0
H1045 H 0.51851 0.64658 0.5907 0.0
H1046 H 0.50709 0.66377 0.53765 0.0
H1047 H 0.52851 0.65336 0.50916 0.0
C1048 C 0.47366 0.68522 0.38016 0.0
C1049 C 0.4898 0.69474 0.35994 0.0
C1050 C 0.47483 0.66705 0.40512 0.0
C1051 C 0.49212 0.65813 0.40982 0.0
C1052 C 0.50811 0.66733 0.38664 0.0
H1053 H 0.50705 0.53954 0.47805 0.0
H1054 H 0.50576 0.57068 0.42787 0.0
C1055 C 0.507 0.68554 0.36264 0.0
C1056 C 0.49351 0.63929 0.43984 0.0
H1057 H 0.51489 0.61441 0.56774 0.0
C1058 C 0.48318 0.6249 0.40964 0.0
C1059 C 0.50476 0.63556 0.49855 0.0
C1060 C 0.5152 0.65066 0.53638 0.0
C1061 C 0.48392 0.60679 0.43619 0.0
C1062 C 0.49578 0.6029 0.49313 0.0
C1063 C 0.50598 0.61735 0.52361 0.0
C1064 C 0.49739 0.5841 0.52362 0.0
C1065 C 0.47162 0.59216 0.40405 0.0
C1066 C 0.49404 0.58144 0.59483 0.0
C1067 C 0.49524 0.56376 0.62399 0.0
C1068 C 0.49965 0.54838 0.58227 0.0
C1069 C 0.50343 0.55111 0.51131 0.0
C1070 C 0.50253 0.56887 0.48242 0.0
H1071 H 0.45966 0.59845 0.37614 0.0
H1072 H 0.47978 0.58406 0.36567 0.0
H1073 H 0.46618 0.58247 0.44403 0.0
H1074 H 0.49017 0.59302 0.62771 0.0
H1075 H 0.49215 0.5621 0.67877 0.0
H1076 H 0.80778 0.48212 0.49558 0.0
H1077 H 0.83714 0.47774 0.55771 0.0
H1078 H 0.84662 0.53683 0.55322 0.0
H1079 H 0.81716 0.54135 0.49338 0.0
H1080 H 0.87043 0.48507 0.50985 0.0
H1081 H 0.86068 0.52572 0.75 0.0
H1082 H 0.84152 0.51955 0.69402 0.0
H1083 H 0.85552 0.53967 0.67533 0.0
C1084 C 0.81598 0.4942 0.50898 0.0
C1085 C 0.81016 0.51208 0.48956 0.0
C1086 C 0.83273 0.49167 0.54452 0.0
C1087 C 0.84395 0.50698 0.56117 0.0
C1088 C 0.83797 0.52485 0.54286 0.0
H1089 H 0.96191 0.51281 0.57308 0.0
H1090 H 0.9288 0.5123 0.54634 0.0
C1091 C 0.82117 0.5274 0.50799 0.0
C1092 C 0.86274 0.50425 0.59092 0.0
H1093 H 0.89261 0.52099 0.7136 0.0
C1094 C 0.87517 0.49268 0.55515 0.0
C1095 C 0.86888 0.51386 0.65082 0.0
C1096 C 0.85585 0.52522 0.69513 0.0
C1097 C 0.89382 0.49128 0.57527 0.0
C1098 C 0.90035 0.50222 0.63128 0.0
C1099 C 0.88769 0.51293 0.66965 0.0
C1100 C 0.92034 0.50327 0.64895 0.0
C1101 C 0.90633 0.47815 0.53595 0.0
C1102 C 0.92651 0.49929 0.71655 0.0
C1103 C 0.94545 0.49991 0.73239 0.0
C1104 C 0.95852 0.50447 0.68076 0.0
C1105 C 0.95223 0.50899 0.61373 0.0
C1106 C 0.93331 0.50856 0.59821 0.0
H1107 H 0.89828 0.46658 0.51252 0.0
H1108 H 0.91321 0.48577 0.49294 0.0
H1109 H 0.91722 0.4722 0.57023 0.0
H1110 H 0.91672 0.49538 0.75672 0.0
H1111 H 0.94984 0.49638 0.78461 0.0
loop_
_geom_bond_atom_site_label_1
_geom_bond_atom_site_label_2
_geom_bond_distance
_geom_bond_site_symmetry_2
_ccdc_geom_bond_type
O0 Cd1 2.300 . S
O0 C7 1.275 . S
Cd1 O0 2.300 . S
Cd1 O9 2.381 . S
Cd1 O10 2.378 . S
O2 Cd3 2.385 . S
O2 C7 1.255 . S
Cd3 O2 2.385 . S
Cd3 O4 2.317 . S
O4 Cd3 2.317 . S
O4 C5 1.232 . S
C5 O4 1.232 . S
C5 O6 1.218 . S
O6 C5 1.218 . S
C7 O0 1.275 . S
C7 O2 1.255 . S
C8 O9 1.258 . S
C8 O10 1.256 . S
O9 Cd1 2.381 . S
O9 C8 1.258 . S
O10 Cd1 2.378 . S
O10 C8 1.256 . S
O11 Cd12 2.300 1_655 S
O11 C18 1.275 1_655 S
Cd12 O11 2.300 1_455 S
Cd12 O20 2.381 1_455 S
Cd12 O21 2.378 . S
O13 Cd14 2.385 . S
O13 C18 1.255 . S
Cd14 O13 2.385 . S
Cd14 O15 2.317 . S
O15 Cd14 2.317 . S
O15 C16 1.232 . S
C16 O15 1.232 . S
C16 O17 1.218 . S
O17 C16 1.218 . S
C18 O11 1.275 1_455 S
C18 O13 1.255 . S
C19 O20 1.231 1_455 S
C19 O21 1.294 . S
O20 Cd12 2.381 1_655 S
O20 C19 1.231 1_655 S
O21 Cd12 2.378 . S
O21 C19 1.294 . S
O22 Cd23 2.300 1_565 S
O22 C29 1.275 1_565 S
Cd23 O22 2.300 1_545 S
Cd23 O31 2.381 1_545 S
Cd23 O32 2.378 . S
O24 Cd25 2.385 . S
O24 C29 1.255 . S
Cd25 O24 2.385 . S
Cd25 O26 2.317 . S
O26 Cd25 2.317 . S
O26 C27 1.232 . S
C27 O26 1.232 . S
C27 O28 1.218 . S
O28 C27 1.218 . S
C29 O22 1.275 1_545 S
C29 O24 1.255 . S
C30 O31 1.249 1_545 S
C30 O32 1.268 . S
O31 Cd23 2.381 1_565 S
O31 C30 1.249 1_565 S
O32 Cd23 2.378 . S
O32 C30 1.268 . S
O33 Cd34 2.300 . S
O33 C40 1.275 . S
Cd34 O33 2.300 . S
Cd34 O42 2.381 . S
Cd34 O43 2.378 . S
O35 Cd36 2.385 . S
O35 C40 1.255 . S
Cd36 O35 2.385 . S
Cd36 O37 2.317 . S
O37 Cd36 2.317 . S
O37 C38 1.232 . S
C38 O37 1.232 . S
C38 O39 1.218 . S
O39 C38 1.218 . S
C40 O33 1.275 . S
C40 O35 1.255 . S
C41 O42 1.258 . S
C41 O43 1.256 . S
O42 Cd34 2.381 . S
O42 C41 1.258 . S
O43 Cd34 2.378 . S
O43 C41 1.256 . S
O44 Cd45 2.300 . S
O44 C51 1.275 . S
Cd45 O44 2.300 . S
Cd45 O53 2.381 . S
Cd45 O54 2.378 . S
O46 Cd47 2.385 1_554 S
O46 C51 1.255 . S
Cd47 O46 2.385 1_556 S
Cd47 O48 2.317 . S
O48 Cd47 2.317 . S
O48 C49 1.232 . S
C49 O48 1.232 . S
C49 O50 1.218 . S
O50 C49 1.218 . S
C51 O44 1.275 . S
C51 O46 1.255 . S
C52 O53 1.258 . S
C52 O54 1.256 . S
O53 Cd45 2.381 . S
O53 C52 1.258 . S
O54 Cd45 2.378 . S
O54 C52 1.256 . S
O55 Cd56 2.329 . S
O55 C62 1.300 . S
Cd56 O55 2.329 . S
Cd56 O64 2.381 1_455 S
Cd56 O65 2.378 . S
O57 Cd58 2.385 1_554 S
O57 C62 1.255 . S
Cd58 O57 2.385 1_556 S
Cd58 O59 2.317 . S
O59 Cd58 2.317 . S
O59 C60 1.232 . S
C60 O59 1.232 . S
C60 O61 1.218 . S
O61 C60 1.218 . S
C62 O55 1.300 . S
C62 O57 1.255 . S
C63 O64 1.258 1_455 S
C63 O65 1.256 . S
O64 Cd56 2.381 1_655 S
O64 C63 1.258 1_655 S
O65 Cd56 2.378 . S
O65 C63 1.256 . S
O66 Cd67 2.298 1_565 S
O66 C73 1.274 1_565 S
Cd67 O66 2.298 1_545 S
Cd67 O75 2.381 1_545 S
Cd67 O76 2.378 . S
O68 Cd69 2.385 1_554 S
O68 C73 1.255 . S
Cd69 O68 2.385 1_556 S
Cd69 O70 2.317 . S
O70 Cd69 2.317 . S
O70 C71 1.232 . S
C71 O70 1.232 . S
C71 O72 1.218 . S
O72 C71 1.218 . S
C73 O66 1.274 1_545 S
C73 O68 1.255 . S
C74 O75 1.258 1_545 S
C74 O76 1.256 . S
O75 Cd67 2.381 1_565 S
O75 C74 1.258 1_565 S
O76 Cd67 2.378 . S
O76 C74 1.256 . S
O77 Cd78 2.300 . S
O77 C84 1.275 . S
Cd78 O77 2.300 . S
Cd78 O86 2.381 . S
Cd78 O87 2.378 . S
O79 Cd80 2.385 1_554 S
O79 C84 1.255 . S
Cd80 O79 2.385 1_556 S
Cd80 O81 2.317 . S
O81 Cd80 2.317 . S
O81 C82 1.232 . S
C82 O81 1.232 . S
C82 O83 1.218 . S
O83 C82 1.218 . S
C84 O77 1.275 . S
C84 O79 1.255 . S
C85 O86 1.258 . S
C85 O87 1.256 . S
O86 Cd78 2.381 . S
O86 C85 1.258 . S
O87 Cd78 2.378 . S
O87 C85 1.256 . S
Sm88 C90 2.846 . S
Sm88 O108 2.543 . S
Sm88 O109 2.450 . S
Sm88 O110 2.681 1_565 S
Sm88 O111 2.464 . S
Sm88 O112 2.396 . S
Sm88 O116 2.386 1_455 S
Sm88 O119 2.408 1_565 S
Sm89 C99 2.846 . S
Sm89 O110 2.386 1_655 S
Sm89 O113 2.408 1_545 S
Sm89 O114 2.543 1_655 S
Sm89 O115 2.450 . S
Sm89 O116 2.681 1_545 S
Sm89 O117 2.464 . S
Sm89 O118 2.396 . S
C90 Sm88 2.846 . S
C90 C91 1.506 . S
C90 O108 1.261 . S
C90 O109 1.242 . S
C91 C90 1.506 . S
C91 C92 1.358 . S
C91 C96 1.382 . S
C92 C91 1.358 . S
C92 C93 1.385 . S
C92 H120 0.930 1_455 S
C93 C92 1.385 . S
C93 C94 1.395 . S
C93 H121 0.929 1_455 S
C94 C93 1.395 . S
C94 C95 1.335 . S
C95 C94 1.335 . S
C95 C96 1.398 . S
C95 H122 0.930 . S
C96 C91 1.382 . S
C96 C95 1.398 . S
C96 H123 0.929 . S
C97 O110 1.271 . S
C97 O111 1.252 1_545 S
C98 O112 1.252 1_655 S
C98 O113 1.272 . S
C99 Sm89 2.846 . S
C99 C100 1.506 . S
C99 O114 1.261 1_655 S
C99 O115 1.242 . S
C100 C99 1.506 . S
C100 C101 1.370 . S
C100 C105 1.382 . S
C101 C100 1.370 . S
C101 C102 1.387 . S
C101 H124 0.916 1_655 S
C102 C101 1.387 . S
C102 C103 1.395 . S
C102 H125 0.929 1_655 S
C103 C102 1.395 . S
C103 C104 1.335 . S
C104 C103 1.335 . S
C104 C105 1.398 . S
C104 H126 0.930 . S
C105 C100 1.382 . S
C105 C104 1.398 . S
C105 H127 0.929 . S
C106 O116 1.271 1_545 S
C106 O117 1.251 . S
C107 O118 1.252 1_455 S
C107 O119 1.272 . S
O108 Sm88 2.543 . S
O108 C90 1.261 . S
O109 Sm88 2.450 . S
O109 C90 1.242 . S
O110 Sm88 2.681 1_545 S
O110 Sm89 2.386 1_455 S
O110 C97 1.271 . S
O111 Sm88 2.464 . S
O111 C97 1.252 1_565 S
O112 Sm88 2.396 . S
O112 C98 1.252 1_455 S
O113 Sm89 2.408 1_565 S
O113 C98 1.272 . S
O114 Sm89 2.543 1_455 S
O114 C99 1.261 1_455 S
O115 Sm89 2.450 . S
O115 C99 1.242 . S
O116 Sm88 2.386 1_655 S
O116 Sm89 2.681 1_565 S
O116 C106 1.271 1_565 S
O117 Sm89 2.464 . S
O117 C106 1.251 . S
O118 Sm89 2.396 . S
O118 C107 1.252 1_655 S
O119 Sm88 2.408 1_545 S
O119 C107 1.272 . S
H120 C92 0.930 1_655 S
H121 C93 0.929 1_655 S
H122 C95 0.930 . S
H123 C96 0.929 . S
H124 C101 0.916 1_455 S
H125 C102 0.929 1_455 S
H126 C104 0.930 . S
H127 C105 0.929 . S
Sm128 C130 2.846 . S
Sm128 O148 2.548 . S
Sm128 O149 2.450 . S
Sm128 O150 2.681 . S
Sm128 O151 2.464 . S
Sm128 O152 2.396 . S
Sm128 O156 2.386 1_545 S
Sm128 O159 2.408 . S
Sm129 C139 2.846 . S
Sm129 O150 2.386 1_565 S
Sm129 O153 2.408 . S
Sm129 O154 2.543 1_565 S
Sm129 O155 2.450 . S
Sm129 O156 2.681 . S
Sm129 O157 2.464 . S
Sm129 O158 2.396 . S
C130 Sm128 2.846 . S
C130 C131 1.506 . S
C130 O148 1.274 . S
C130 O149 1.242 . S
C131 C130 1.506 . S
C131 C132 1.358 . S
C131 C136 1.382 . S
C132 C131 1.358 . S
C132 C133 1.385 . S
C132 H160 0.930 1_545 S
C133 C132 1.385 . S
C133 C134 1.395 . S
C133 H161 0.929 1_545 S
C134 C133 1.395 . S
C134 C135 1.335 . S
C135 C134 1.335 . S
C135 C136 1.398 . S
C135 H162 0.930 . S
C136 C131 1.382 . S
C136 C135 1.398 . S
C136 H163 0.929 . S
C137 O150 1.271 . S
C137 O151 1.251 . S
C138 O152 1.252 1_565 S
C138 O153 1.272 . S
C139 Sm129 2.846 . S
C139 C140 1.506 . S
C139 O154 1.261 1_565 S
C139 O155 1.242 . S
C140 C139 1.506 . S
C140 C141 1.358 . S
C140 C145 1.382 . S
C141 C140 1.358 . S
C141 C142 1.385 . S
C141 H164 0.930 1_565 S
C142 C141 1.385 . S
C142 C143 1.395 . S
C142 H165 0.929 1_565 S
C143 C142 1.395 . S
C143 C144 1.335 . S
C144 C143 1.335 . S
C144 C145 1.398 . S
C144 H166 0.930 . S
C145 C140 1.382 . S
C145 C144 1.398 . S
C145 H167 0.929 . S
C146 O156 1.271 . S
C146 O157 1.251 . S
C147 O158 1.252 1_545 S
C147 O159 1.272 . S
O148 Sm128 2.548 . S
O148 C130 1.274 . S
O149 Sm128 2.450 . S
O149 C130 1.242 . S
O150 Sm128 2.681 . S
O150 Sm129 2.386 1_545 S
O150 C137 1.271 . S
O151 Sm128 2.464 . S
O151 C137 1.251 . S
O152 Sm128 2.396 . S
O152 C138 1.252 1_545 S
O153 Sm129 2.408 . S
O153 C138 1.272 . S
O154 Sm129 2.543 1_545 S
O154 C139 1.261 1_545 S
O155 Sm129 2.450 . S
O155 C139 1.242 . S
O156 Sm128 2.386 1_565 S
O156 Sm129 2.681 . S
O156 C146 1.271 . S
O157 Sm129 2.464 . S
O157 C146 1.251 . S
O158 Sm129 2.396 . S
O158 C147 1.252 1_565 S
O159 Sm128 2.408 . S
O159 C147 1.272 . S
H160 C132 0.930 1_565 S
H161 C133 0.929 1_565 S
H162 C135 0.930 . S
H163 C136 0.929 . S
H164 C141 0.930 1_545 S
H165 C142 0.929 1_545 S
H166 C144 0.930 . S
H167 C145 0.929 . S
Sm168 C170 2.846 . S
Sm168 O188 2.543 . S
Sm168 O189 2.450 . S
Sm168 O190 2.681 . S
Sm168 O191 2.464 . S
Sm168 O192 2.396 . S
Sm168 O196 2.386 . S
Sm168 O199 2.408 . S
Sm169 C179 2.846 . S
Sm169 O190 2.386 . S
Sm169 O193 2.408 . S
Sm169 O194 2.543 . S
Sm169 O195 2.450 . S
Sm169 O196 2.681 . S
Sm169 O197 2.464 . S
Sm169 O198 2.396 . S
C170 Sm168 2.846 . S
C170 C171 1.506 . S
C170 O188 1.261 . S
C170 O189 1.242 . S
C171 C170 1.506 . S
C171 C172 1.358 . S
C171 C176 1.382 . S
C172 C171 1.358 . S
C172 C173 1.385 . S
C172 H200 0.930 . S
C173 C172 1.385 . S
C173 C174 1.395 . S
C173 H201 0.929 . S
C174 C173 1.395 . S
C174 C175 1.335 . S
C175 C174 1.335 . S
C175 C176 1.398 . S
C175 H202 0.930 . S
C176 C171 1.382 . S
C176 C175 1.398 . S
C176 H203 0.929 . S
C177 O190 1.271 . S
C177 O191 1.251 . S
C178 O192 1.252 . S
C178 O193 1.272 . S
C179 Sm169 2.846 . S
C179 C180 1.506 . S
C179 O194 1.261 . S
C179 O195 1.242 . S
C180 C179 1.506 . S
C180 C181 1.358 . S
C180 C185 1.382 . S
C181 C180 1.358 . S
C181 C182 1.385 . S
C181 H204 0.930 . S
C182 C181 1.385 . S
C182 C183 1.395 . S
C182 H205 0.929 . S
C183 C182 1.395 . S
C183 C184 1.335 . S
C184 C183 1.335 . S
C184 C185 1.398 . S
C184 H206 0.930 . S
C185 C180 1.382 . S
C185 C184 1.398 . S
C185 H207 0.929 . S
C186 O196 1.271 . S
C186 O197 1.251 . S
C187 O198 1.252 . S
C187 O199 1.272 . S
O188 Sm168 2.543 . S
O188 C170 1.261 . S
O189 Sm168 2.450 . S
O189 C170 1.242 . S
O190 Sm168 2.681 . S
O190 Sm169 2.386 . S
O190 C177 1.271 . S
O191 Sm168 2.464 . S
O191 C177 1.251 . S
O192 Sm168 2.396 . S
O192 C178 1.252 . S
O193 Sm169 2.408 . S
O193 C178 1.272 . S
O194 Sm169 2.543 . S
O194 C179 1.261 . S
O195 Sm169 2.450 . S
O195 C179 1.242 . S
O196 Sm168 2.386 . S
O196 Sm169 2.681 . S
O196 C186 1.271 . S
O197 Sm169 2.464 . S
O197 C186 1.251 . S
O198 Sm169 2.396 . S
O198 C187 1.252 . S
O199 Sm168 2.408 . S
O199 C187 1.272 . S
H200 C172 0.930 . S
H201 C173 0.929 . S
H202 C175 0.930 . S
H203 C176 0.929 . S
H204 C181 0.930 . S
H205 C182 0.929 . S
H206 C184 0.930 . S
H207 C185 0.929 . S
Sm208 C210 2.846 . S
Sm208 O228 2.543 . S
Sm208 O229 2.450 . S
Sm208 O230 2.681 1_655 S
Sm208 O231 2.464 . S
Sm208 O232 2.396 . S
Sm208 O236 2.386 . S
Sm208 O239 2.408 1_655 S
Sm209 C219 2.846 . S
Sm209 O230 2.386 . S
Sm209 O233 2.408 1_455 S
Sm209 O234 2.543 . S
Sm209 O235 2.450 . S
Sm209 O236 2.681 1_455 S
Sm209 O237 2.464 . S
Sm209 O238 2.396 . S
C210 Sm208 2.846 . S
C210 C211 1.506 . S
C210 O228 1.261 . S
C210 O229 1.242 . S
C211 C210 1.506 . S
C211 C212 1.358 . S
C211 C216 1.382 . S
C212 C211 1.358 . S
C212 C213 1.385 . S
C212 H240 0.930 . S
C213 C212 1.385 . S
C213 C214 1.395 . S
C213 H241 0.929 . S
C214 C213 1.395 . S
C214 C215 1.335 . S
C215 C214 1.335 . S
C215 C216 1.398 . S
C215 H242 0.930 . S
C216 C211 1.382 . S
C216 C215 1.398 . S
C216 H243 0.929 . S
C217 O230 1.291 . S
C217 O231 1.223 1_455 S
C218 O232 1.252 . S
C218 O233 1.272 . S
C219 Sm209 2.846 . S
C219 C220 1.506 . S
C219 O234 1.261 . S
C219 O235 1.242 . S
C220 C219 1.506 . S
C220 C221 1.358 . S
C220 C225 1.382 . S
C221 C220 1.358 . S
C221 C222 1.385 . S
C221 H244 0.930 . S
C222 C221 1.385 . S
C222 C223 1.395 . S
C222 H245 0.929 . S
C223 C222 1.395 . S
C223 C224 1.335 . S
C224 C223 1.335 . S
C224 C225 1.398 . S
C224 H246 0.930 . S
C225 C220 1.382 . S
C225 C224 1.398 . S
C225 H247 0.929 . S
C226 O236 1.271 1_455 S
C226 O237 1.251 . S
C227 O238 1.252 . S
C227 O239 1.272 . S
O228 Sm208 2.543 . S
O228 C210 1.261 . S
O229 Sm208 2.450 . S
O229 C210 1.242 . S
O230 Sm208 2.681 1_455 S
O230 Sm209 2.386 . S
O230 C217 1.291 . S
O231 Sm208 2.464 . S
O231 C217 1.223 1_655 S
O232 Sm208 2.396 . S
O232 C218 1.252 . S
O233 Sm209 2.408 1_655 S
O233 C218 1.272 . S
O234 Sm209 2.543 . S
O234 C219 1.261 . S
O235 Sm209 2.450 . S
O235 C219 1.242 . S
O236 Sm208 2.386 . S
O236 Sm209 2.681 1_655 S
O236 C226 1.271 1_655 S
O237 Sm209 2.464 . S
O237 C226 1.251 . S
O238 Sm209 2.396 . S
O238 C227 1.252 . S
O239 Sm208 2.408 1_455 S
O239 C227 1.272 . S
H240 C212 0.930 . S
H241 C213 0.929 . S
H242 C215 0.930 . S
H243 C216 0.929 . S
H244 C221 0.930 . S
H245 C222 0.929 . S
H246 C224 0.930 . S
H247 C225 0.929 . S
H248 C256 0.929 . S
H249 C258 0.930 . S
H250 C260 0.930 . S
H251 C263 0.929 . S
H252 C266 0.930 . S
H253 C268 0.960 . S
H254 C268 0.960 . S
H255 C268 0.960 . S
C256 H248 0.929 . S
C256 C257 1.377 . S
C256 C258 1.384 . S
C257 C256 1.377 . S
C257 C263 1.390 1_545 S
C258 H249 0.930 . S
C258 C256 1.384 . S
C258 C259 1.372 . S
C259 C258 1.372 . S
C259 C260 1.400 1_545 S
C259 C264 1.490 . S
C260 H250 0.930 . S
C260 C259 1.400 1_565 S
C260 C263 1.386 . S
H261 C277 0.930 . S
H262 C278 0.931 . S
C263 H251 0.929 . S
C263 C257 1.390 1_565 S
C263 C260 1.386 . S
C264 C259 1.490 . S
C264 C266 1.395 . S
C264 C267 1.403 1_545 S
H265 C271 0.930 . S
C266 H252 0.930 . S
C266 C264 1.395 . S
C266 C269 1.403 . S
C267 C264 1.403 1_565 S
C267 C268 1.524 . S
C267 C271 1.400 . S
C268 H253 0.960 . S
C268 H254 0.960 . S
C268 H255 0.960 . S
C268 C267 1.524 . S
C269 C266 1.403 . S
C269 C270 1.392 . S
C269 C273 1.495 . S
C270 C269 1.392 . S
C270 C271 1.385 1_545 S
C270 C272 1.478 . S
C271 H265 0.930 . S
C271 C267 1.400 . S
C271 C270 1.385 1_565 S
C272 C270 1.478 . S
C272 C274 1.381 . S
C272 C278 1.383 1_545 S
C273 C269 1.495 . S
C273 H279 0.959 . S
C273 H280 0.961 . S
C273 H281 0.960 . S
C274 C272 1.381 . S
C274 C275 1.394 . S
C274 H282 0.930 . S
C275 C274 1.394 . S
C275 C276 1.383 . S
C275 H283 0.929 . S
C276 C275 1.383 . S
C276 C277 1.377 1_545 S
C277 H261 0.930 . S
C277 C276 1.377 1_565 S
C277 C278 1.379 . S
C278 H262 0.931 . S
C278 C272 1.383 1_565 S
C278 C277 1.379 . S
H279 C273 0.959 . S
H280 C273 0.961 . S
H281 C273 0.960 . S
H282 C274 0.930 . S
H283 C275 0.929 . S
H284 C292 0.929 . S
H285 C294 0.930 . S
H286 C296 0.930 . S
H287 C299 0.929 . S
H288 C302 0.930 . S
H289 C304 0.960 . S
H290 C304 0.960 . S
H291 C304 0.960 . S
C292 H284 0.929 . S
C292 C293 1.377 . S
C292 C294 1.384 . S
C293 C292 1.377 . S
C293 C299 1.390 . S
C294 H285 0.930 . S
C294 C292 1.384 . S
C294 C295 1.372 . S
C295 C294 1.372 . S
C295 C296 1.400 . S
C295 C300 1.490 . S
C296 H286 0.930 . S
C296 C295 1.400 . S
C296 C299 1.386 . S
H297 C313 0.930 . S
H298 C314 0.931 . S
C299 H287 0.929 . S
C299 C293 1.390 . S
C299 C296 1.386 . S
C300 C295 1.490 . S
C300 C302 1.395 . S
C300 C303 1.403 . S
H301 C307 0.930 . S
C302 H288 0.930 . S
C302 C300 1.395 . S
C302 C305 1.403 . S
C303 C300 1.403 . S
C303 C304 1.524 . S
C303 C307 1.400 . S
C304 H289 0.960 . S
C304 H290 0.960 . S
C304 H291 0.960 . S
C304 C303 1.524 . S
C305 C302 1.403 . S
C305 C306 1.392 . S
C305 C309 1.495 . S
C306 C305 1.392 . S
C306 C307 1.385 . S
C306 C308 1.478 . S
C307 H301 0.930 . S
C307 C303 1.400 . S
C307 C306 1.385 . S
C308 C306 1.478 . S
C308 C310 1.381 . S
C308 C314 1.383 . S
C309 C305 1.495 . S
C309 H315 0.959 . S
C309 H316 0.961 . S
C309 H317 0.960 . S
C310 C308 1.381 . S
C310 C311 1.394 . S
C310 H318 0.930 . S
C311 C310 1.394 . S
C311 C312 1.383 . S
C311 H319 0.929 . S
C312 C311 1.383 . S
C312 C313 1.377 . S
C313 H297 0.930 . S
C313 C312 1.377 . S
C313 C314 1.379 . S
C314 H298 0.931 . S
C314 C308 1.383 . S
C314 C313 1.379 . S
H315 C309 0.959 . S
H316 C309 0.961 . S
H317 C309 0.960 . S
H318 C310 0.930 . S
H319 C311 0.929 . S
H320 C328 0.929 . S
H321 C330 0.930 . S
H322 C332 0.930 . S
H323 C335 0.929 . S
H324 C338 0.930 . S
H325 C340 0.960 . S
H326 C340 0.960 . S
H327 C340 0.960 . S
C328 H320 0.929 . S
C328 C329 1.377 . S
C328 C330 1.384 . S
C329 C328 1.377 . S
C329 C335 1.390 . S
C330 H321 0.930 . S
C330 C328 1.384 . S
C330 C331 1.372 . S
C331 C330 1.372 . S
C331 C332 1.400 . S
C331 C336 1.490 . S
C332 H322 0.930 . S
C332 C331 1.400 . S
C332 C335 1.386 . S
H333 C349 0.930 . S
H334 C350 0.931 . S
C335 H323 0.929 . S
C335 C329 1.390 . S
C335 C332 1.386 . S
C336 C331 1.490 . S
C336 C338 1.395 . S
C336 C339 1.403 . S
H337 C343 0.930 . S
C338 H324 0.930 . S
C338 C336 1.395 . S
C338 C341 1.403 . S
C339 C336 1.403 . S
C339 C340 1.524 . S
C339 C343 1.400 . S
C340 H325 0.960 . S
C340 H326 0.960 . S
C340 H327 0.960 . S
C340 C339 1.524 . S
C341 C338 1.403 . S
C341 C342 1.392 . S
C341 C345 1.495 . S
C342 C341 1.392 . S
C342 C343 1.385 . S
C342 C344 1.478 . S
C343 H337 0.930 . S
C343 C339 1.400 . S
C343 C342 1.385 . S
C344 C342 1.478 . S
C344 C346 1.381 . S
C344 C350 1.383 . S
C345 C341 1.495 . S
C345 H351 0.959 . S
C345 H352 0.961 . S
C345 H353 0.960 . S
C346 C344 1.381 . S
C346 C347 1.394 . S
C346 H354 0.930 . S
C347 C346 1.394 . S
C347 C348 1.383 . S
C347 H355 0.929 . S
C348 C347 1.383 . S
C348 C349 1.377 . S
C349 H333 0.930 . S
C349 C348 1.377 . S
C349 C350 1.379 . S
C350 H334 0.931 . S
C350 C344 1.383 . S
C350 C349 1.379 . S
H351 C345 0.959 . S
H352 C345 0.961 . S
H353 C345 0.960 . S
H354 C346 0.930 . S
H355 C347 0.929 . S
H356 C364 0.929 . S
H357 C366 0.930 . S
H358 C368 0.920 1_655 S
H359 C371 0.922 1_655 S
H360 C374 0.930 . S
H361 C376 0.960 . S
H362 C376 0.960 . S
H363 C376 0.960 . S
C364 H356 0.929 . S
C364 C365 1.377 . S
C364 C366 1.384 . S
C365 C364 1.377 . S
C365 C371 1.390 . S
C366 H357 0.930 . S
C366 C364 1.384 . S
C366 C367 1.372 . S
C367 C366 1.372 . S
C367 C368 1.412 . S
C367 C372 1.490 . S
C368 H358 0.920 1_455 S
C368 C367 1.412 . S
C368 C371 1.388 . S
H369 C385 0.930 . S
H370 C386 0.931 . S
C371 H359 0.922 1_455 S
C371 C365 1.390 . S
C371 C368 1.388 . S
C372 C367 1.490 . S
C372 C374 1.395 . S
C372 C375 1.403 1_455 S
H373 C379 0.930 . S
C374 H360 0.930 . S
C374 C372 1.395 . S
C374 C377 1.403 . S
C375 C372 1.403 1_655 S
C375 C376 1.524 . S
C375 C379 1.400 . S
C376 H361 0.960 . S
C376 H362 0.960 . S
C376 H363 0.960 . S
C376 C375 1.524 . S
C377 C374 1.403 . S
C377 C378 1.392 . S
C377 C381 1.495 . S
C378 C377 1.392 . S
C378 C379 1.385 1_455 S
C378 C380 1.478 . S
C379 H373 0.930 . S
C379 C375 1.400 . S
C379 C378 1.385 1_655 S
C380 C378 1.478 . S
C380 C382 1.381 . S
C380 C386 1.383 . S
C381 C377 1.495 . S
C381 H387 0.959 . S
C381 H388 0.961 . S
C381 H389 0.960 . S
C382 C380 1.381 . S
C382 C383 1.394 . S
C382 H390 0.930 . S
C383 C382 1.394 . S
C383 C384 1.383 . S
C383 H391 0.929 . S
C384 C383 1.383 . S
C384 C385 1.377 . S
C385 H369 0.930 . S
C385 C384 1.377 . S
C385 C386 1.379 . S
C386 H370 0.931 . S
C386 C380 1.383 . S
C386 C385 1.379 . S
H387 C381 0.959 . S
H388 C381 0.961 . S
H389 C381 0.960 . S
H390 C382 0.930 . S
H391 C383 0.929 . S
H392 C400 0.929 . S
H393 C402 0.930 . S
H394 C404 0.930 . S
H395 C407 0.929 . S
H396 C410 0.930 . S
H397 C412 0.960 . S
H398 C412 0.960 . S
H399 C412 0.960 . S
C400 H392 0.929 . S
C400 C401 1.377 . S
C400 C402 1.384 . S
C401 C400 1.377 . S
C401 C407 1.390 1_565 S
C402 H393 0.930 . S
C402 C400 1.384 . S
C402 C403 1.372 . S
C403 C402 1.372 . S
C403 C404 1.400 1_565 S
C403 C408 1.490 . S
C404 H394 0.930 . S
C404 C403 1.400 1_545 S
C404 C407 1.386 . S
H405 C421 0.930 . S
H406 C422 0.931 . S
C407 H395 0.929 . S
C407 C401 1.390 1_545 S
C407 C404 1.386 . S
C408 C403 1.490 . S
C408 C410 1.395 1_554 S
C408 C411 1.403 1_565 S
H409 C415 0.933 . S
C410 H396 0.930 . S
C410 C408 1.395 1_556 S
C410 C413 1.403 . S
C411 C408 1.403 1_545 S
C411 C412 1.524 . S
C411 C415 1.411 . S
C412 H397 0.960 . S
C412 H398 0.960 . S
C412 H399 0.960 . S
C412 C411 1.524 . S
C413 C410 1.403 . S
C413 C414 1.392 . S
C413 C417 1.495 . S
C414 C413 1.392 . S
C414 C415 1.372 1_566 S
C414 C416 1.478 . S
C415 H409 0.933 . S
C415 C411 1.411 . S
C415 C414 1.372 1_544 S
C416 C414 1.478 . S
C416 C418 1.381 . S
C416 C422 1.383 1_565 S
C417 C413 1.495 . S
C417 H423 0.959 . S
C417 H424 0.961 . S
C417 H425 0.960 . S
C418 C416 1.381 . S
C418 C419 1.394 . S
C418 H426 0.930 . S
C419 C418 1.394 . S
C419 C420 1.437 . S
C419 H427 0.929 . S
C420 C419 1.437 . S
C420 C421 1.326 1_565 S
C421 H405 0.930 . S
C421 C420 1.326 1_545 S
C421 C422 1.379 . S
C422 H406 0.931 . S
C422 C416 1.383 1_545 S
C422 C421 1.379 . S
H423 C417 0.959 . S
H424 C417 0.961 . S
H425 C417 0.960 . S
H426 C418 0.930 . S
H427 C419 0.929 . S
H428 C436 0.929 . S
H429 C438 0.930 . S
H430 C440 0.930 . S
H431 C443 0.929 . S
H432 C446 0.930 . S
H433 C448 0.960 1_556 S
H434 C448 0.960 1_556 S
H435 C448 0.960 . S
C436 H428 0.929 . S
C436 C437 1.377 . S
C436 C438 1.384 . S
C437 C436 1.377 . S
C437 C443 1.390 . S
C438 H429 0.930 . S
C438 C436 1.384 . S
C438 C439 1.372 . S
C439 C438 1.372 . S
C439 C440 1.400 . S
C439 C444 1.490 . S
C440 H430 0.930 . S
C440 C439 1.400 . S
C440 C443 1.386 . S
H441 C457 0.930 . S
H442 C458 0.931 . S
C443 H431 0.929 . S
C443 C437 1.390 . S
C443 C440 1.386 . S
C444 C439 1.490 . S
C444 C446 1.395 . S
C444 C447 1.403 . S
H445 C451 0.930 . S
C446 H432 0.930 . S
C446 C444 1.395 . S
C446 C449 1.403 1_554 S
C447 C444 1.403 . S
C447 C448 1.524 . S
C447 C451 1.400 1_554 S
C448 H433 0.960 1_554 S
C448 H434 0.960 1_554 S
C448 H435 0.960 . S
C448 C447 1.524 . S
C449 C446 1.403 1_556 S
C449 C450 1.392 . S
C449 C453 1.495 . S
C450 C449 1.392 . S
C450 C451 1.385 . S
C450 C452 1.478 . S
C451 H445 0.930 . S
C451 C447 1.400 1_556 S
C451 C450 1.385 . S
C452 C450 1.478 . S
C452 C454 1.381 . S
C452 C458 1.383 . S
C453 C449 1.495 . S
C453 H459 0.959 1_556 S
C453 H460 0.961 . S
C453 H461 0.960 . S
C454 C452 1.381 . S
C454 C455 1.394 . S
C454 H462 0.930 . S
C455 C454 1.394 . S
C455 C456 1.383 . S
C455 H463 0.929 . S
C456 C455 1.383 . S
C456 C457 1.377 . S
C457 H441 0.930 . S
C457 C456 1.377 . S
C457 C458 1.379 . S
C458 H442 0.931 . S
C458 C452 1.383 . S
C458 C457 1.379 . S
H459 C453 0.959 1_554 S
H460 C453 0.961 . S
H461 C453 0.960 . S
H462 C454 0.930 . S
H463 C455 0.929 . S
H464 C472 0.929 . S
H465 C474 0.930 . S
H466 C476 0.930 . S
H467 C479 0.929 . S
H468 C482 0.930 . S
H469 C484 0.960 . S
H470 C484 0.960 . S
H471 C484 0.960 . S
C472 H464 0.929 . S
C472 C473 1.377 . S
C472 C474 1.384 . S
C473 C472 1.377 . S
C473 C479 1.390 . S
C474 H465 0.930 . S
C474 C472 1.384 . S
C474 C475 1.372 . S
C475 C474 1.372 . S
C475 C476 1.400 . S
C475 C480 1.490 . S
C476 H466 0.930 . S
C476 C475 1.400 . S
C476 C479 1.386 . S
H477 C493 0.930 . S
H478 C494 0.931 . S
C479 H467 0.929 . S
C479 C473 1.390 . S
C479 C476 1.386 . S
C480 C475 1.490 . S
C480 C482 1.395 1_554 S
C480 C483 1.403 . S
H481 C487 0.930 . S
C482 H468 0.930 . S
C482 C480 1.395 1_556 S
C482 C485 1.403 . S
C483 C480 1.403 . S
C483 C484 1.524 . S
C483 C487 1.400 1_554 S
C484 H469 0.960 . S
C484 H470 0.960 . S
C484 H471 0.960 . S
C484 C483 1.524 . S
C485 C482 1.403 . S
C485 C486 1.392 . S
C485 C489 1.495 . S
C486 C485 1.392 . S
C486 C487 1.385 . S
C486 C488 1.478 . S
C487 H481 0.930 . S
C487 C483 1.400 1_556 S
C487 C486 1.385 . S
C488 C486 1.478 . S
C488 C490 1.381 . S
C488 C494 1.383 . S
C489 C485 1.495 . S
C489 H495 0.959 . S
C489 H496 0.961 . S
C489 H497 0.960 . S
C490 C488 1.381 . S
C490 C491 1.394 . S
C490 H498 0.930 . S
C491 C490 1.394 . S
C491 C492 1.383 . S
C491 H499 0.929 . S
C492 C491 1.383 . S
C492 C493 1.377 . S
C493 H477 0.930 . S
C493 C492 1.377 . S
C493 C494 1.379 . S
C494 H478 0.931 . S
C494 C488 1.383 . S
C494 C493 1.379 . S
H495 C489 0.959 . S
H496 C489 0.961 . S
H497 C489 0.960 . S
H498 C490 0.930 . S
H499 C491 0.929 . S
H500 C508 0.929 . S
H501 C510 0.930 . S
H502 C512 0.930 . S
H503 C515 0.929 . S
H504 C518 0.930 . S
H505 C520 0.960 . S
H506 C520 0.960 . S
H507 C520 0.982 . S
C508 H500 0.929 . S
C508 C509 1.340 1_455 S
C508 C510 1.384 . S
C509 C508 1.340 1_655 S
C509 C515 1.427 . S
C510 H501 0.930 . S
C510 C508 1.384 . S
C510 C511 1.368 . S
C511 C510 1.368 . S
C511 C512 1.404 1_455 S
C511 C516 1.490 . S
C512 H502 0.930 . S
C512 C511 1.404 1_655 S
C512 C515 1.386 . S
H513 C529 0.930 . S
H514 C530 0.931 . S
C515 H503 0.929 . S
C515 C509 1.427 . S
C515 C512 1.386 . S
C516 C511 1.490 . S
C516 C518 1.396 1_455 S
C516 C519 1.401 1_554 S
H517 C523 0.930 . S
C518 H504 0.930 . S
C518 C516 1.396 1_655 S
C518 C521 1.403 . S
C519 C516 1.401 1_556 S
C519 C520 1.524 . S
C519 C523 1.400 . S
C520 H505 0.960 . S
C520 H506 0.960 . S
C520 H507 0.982 . S
C520 C519 1.524 . S
C521 C518 1.403 . S
C521 C522 1.403 1_554 S
C521 C525 1.495 . S
C522 C521 1.403 1_556 S
C522 C523 1.375 1_655 S
C522 C524 1.479 . S
C523 H517 0.930 . S
C523 C519 1.400 . S
C523 C522 1.375 1_455 S
C524 C522 1.479 . S
C524 C526 1.381 1_655 S
C524 C530 1.383 . S
C525 C521 1.495 . S
C525 H531 0.959 . S
C525 H532 0.961 . S
C525 H533 0.953 1_655 S
C526 C524 1.381 1_455 S
C526 C527 1.394 . S
C526 H534 0.930 . S
C527 C526 1.394 . S
C527 C528 1.376 1_455 S
C527 H535 0.929 . S
C528 C527 1.376 1_655 S
C528 C529 1.385 . S
C529 H513 0.930 . S
C529 C528 1.385 . S
C529 C530 1.379 . S
C530 H514 0.931 . S
C530 C524 1.383 . S
C530 C529 1.379 . S
H531 C525 0.959 . S
H532 C525 0.961 . S
H533 C525 0.953 1_455 S
H534 C526 0.930 . S
H535 C527 0.929 . S
H536 C544 0.929 . S
H537 C546 0.930 . S
H538 C548 0.930 . S
H539 C551 0.929 . S
H540 C554 0.930 . S
H541 C556 0.960 . S
H542 C556 0.960 . S
H543 C556 0.960 . S
C544 H536 0.929 . S
C544 C545 1.377 . S
C544 C546 1.384 . S
C545 C544 1.377 . S
C545 C551 1.390 1_455 S
C546 H537 0.930 . S
C546 C544 1.384 . S
C546 C547 1.356 1_455 S
C547 C546 1.356 1_655 S
C547 C548 1.412 . S
C547 C552 1.493 . S
C548 H538 0.930 . S
C548 C547 1.412 . S
C548 C551 1.386 . S
H549 C565 0.930 . S
H550 C566 0.931 . S
C551 H539 0.929 . S
C551 C545 1.390 1_655 S
C551 C548 1.386 . S
C552 C547 1.493 . S
C552 C554 1.395 1_655 S
C552 C555 1.403 . S
H553 C559 0.930 . S
C554 H540 0.930 . S
C554 C552 1.395 1_455 S
C554 C557 1.403 . S
C555 C552 1.403 . S
C555 C556 1.524 . S
C555 C559 1.400 . S
C556 H541 0.960 . S
C556 H542 0.960 . S
C556 H543 0.960 . S
C556 C555 1.524 . S
C557 C554 1.403 . S
C557 C558 1.392 1_455 S
C557 C561 1.495 . S
C558 C557 1.392 1_655 S
C558 C559 1.385 . S
C558 C560 1.478 . S
C559 H553 0.930 . S
C559 C555 1.400 . S
C559 C558 1.385 . S
C560 C558 1.478 . S
C560 C562 1.381 . S
C560 C566 1.383 . S
C561 C557 1.495 . S
C561 H567 0.959 . S
C561 H568 0.961 . S
C561 H569 0.960 . S
C562 C560 1.381 . S
C562 C563 1.394 . S
C562 H570 0.930 1_655 S
C563 C562 1.394 . S
C563 C564 1.383 . S
C563 H571 0.929 1_655 S
C564 C563 1.383 . S
C564 C565 1.377 . S
C565 H549 0.930 . S
C565 C564 1.377 . S
C565 C566 1.379 . S
C566 H550 0.931 . S
C566 C560 1.383 . S
C566 C565 1.379 . S
H567 C561 0.959 . S
H568 C561 0.961 . S
H569 C561 0.960 . S
H570 C562 0.930 1_455 S
H571 C563 0.929 1_455 S
H572 C580 0.929 . S
H573 C582 0.930 . S
H574 C584 0.930 . S
H575 C587 0.929 . S
H576 C590 0.930 . S
H577 C592 0.960 . S
H578 C592 0.960 . S
H579 C592 0.960 . S
C580 H572 0.929 . S
C580 C581 1.377 . S
C580 C582 1.384 . S
C581 C580 1.377 . S
C581 C587 1.390 1_545 S
C582 H573 0.930 . S
C582 C580 1.384 . S
C582 C583 1.372 1_545 S
C583 C582 1.372 1_565 S
C583 C584 1.400 . S
C583 C588 1.490 . S
C584 H574 0.930 . S
C584 C583 1.400 . S
C584 C587 1.386 . S
H585 C601 0.930 . S
H586 C602 0.931 . S
C587 H575 0.929 . S
C587 C581 1.390 1_565 S
C587 C584 1.386 . S
C588 C583 1.490 . S
C588 C590 1.395 1_565 S
C588 C591 1.403 . S
H589 C595 0.930 . S
C590 H576 0.930 . S
C590 C588 1.395 1_545 S
C590 C593 1.403 . S
C591 C588 1.403 . S
C591 C592 1.524 . S
C591 C595 1.400 . S
C592 H577 0.960 . S
C592 H578 0.960 . S
C592 H579 0.960 . S
C592 C591 1.524 . S
C593 C590 1.403 . S
C593 C594 1.392 1_545 S
C593 C597 1.495 . S
C594 C593 1.392 1_565 S
C594 C595 1.385 . S
C594 C596 1.478 . S
C595 H589 0.930 . S
C595 C591 1.400 . S
C595 C594 1.385 . S
C596 C594 1.478 . S
C596 C598 1.381 . S
C596 C602 1.383 . S
C597 C593 1.495 . S
C597 H603 0.959 . S
C597 H604 0.961 . S
C597 H605 0.960 . S
C598 C596 1.381 . S
C598 C599 1.394 . S
C598 H606 0.930 1_565 S
C599 C598 1.394 . S
C599 C600 1.383 . S
C599 H607 0.929 . S
C600 C599 1.383 . S
C600 C601 1.377 . S
C601 H585 0.930 . S
C601 C600 1.377 . S
C601 C602 1.379 . S
C602 H586 0.931 . S
C602 C596 1.383 . S
C602 C601 1.379 . S
H603 C597 0.959 . S
H604 C597 0.961 . S
H605 C597 0.960 . S
H606 C598 0.930 1_545 S
H607 C599 0.929 . S
H608 C616 0.929 . S
H609 C618 0.930 . S
H610 C620 0.930 . S
H611 C623 0.929 . S
H612 C626 0.930 . S
H613 C628 0.960 . S
H614 C628 0.960 . S
H615 C628 0.960 . S
C616 H608 0.929 . S
C616 C617 1.377 . S
C616 C618 1.384 . S
C617 C616 1.377 . S
C617 C623 1.390 . S
C618 H609 0.930 . S
C618 C616 1.384 . S
C618 C619 1.372 . S
C619 C618 1.372 . S
C619 C620 1.400 . S
C619 C624 1.490 . S
C620 H610 0.930 . S
C620 C619 1.400 . S
C620 C623 1.386 . S
H621 C637 0.930 . S
H622 C638 0.931 . S
C623 H611 0.929 . S
C623 C617 1.390 . S
C623 C620 1.386 . S
C624 C619 1.490 . S
C624 C626 1.395 . S
C624 C627 1.403 . S
H625 C631 0.930 . S
C626 H612 0.930 . S
C626 C624 1.395 . S
C626 C629 1.403 . S
C627 C624 1.403 . S
C627 C628 1.524 . S
C627 C631 1.400 . S
C628 H613 0.960 . S
C628 H614 0.960 . S
C628 H615 0.960 . S
C628 C627 1.524 . S
C629 C626 1.403 . S
C629 C630 1.392 . S
C629 C633 1.495 . S
C630 C629 1.392 . S
C630 C631 1.385 . S
C630 C632 1.478 . S
C631 H625 0.930 . S
C631 C627 1.400 . S
C631 C630 1.385 . S
C632 C630 1.478 . S
C632 C634 1.381 . S
C632 C638 1.383 . S
C633 C629 1.495 . S
C633 H639 0.959 . S
C633 H640 0.961 . S
C633 H641 0.960 . S
C634 C632 1.381 . S
C634 C635 1.394 . S
C634 H642 0.930 . S
C635 C634 1.394 . S
C635 C636 1.383 . S
C635 H643 0.929 . S
C636 C635 1.383 . S
C636 C637 1.377 . S
C637 H621 0.930 . S
C637 C636 1.377 . S
C637 C638 1.379 . S
C638 H622 0.931 . S
C638 C632 1.383 . S
C638 C637 1.379 . S
H639 C633 0.959 . S
H640 C633 0.961 . S
H641 C633 0.960 . S
H642 C634 0.930 . S
H643 C635 0.929 . S
H644 C652 0.929 . S
H645 C654 0.930 . S
H646 C656 0.930 . S
H647 C659 0.929 . S
H648 C662 0.930 . S
H649 C664 0.960 . S
H650 C664 0.960 . S
H651 C664 0.960 . S
C652 H644 0.929 . S
C652 C653 1.377 . S
C652 C654 1.384 . S
C653 C652 1.377 . S
C653 C659 1.390 . S
C654 H645 0.930 . S
C654 C652 1.384 . S
C654 C655 1.372 . S
C655 C654 1.372 . S
C655 C656 1.400 . S
C655 C660 1.490 . S
C656 H646 0.930 . S
C656 C655 1.400 . S
C656 C659 1.386 . S
H657 C673 0.930 . S
H658 C674 0.931 . S
C659 H647 0.929 . S
C659 C653 1.390 . S
C659 C656 1.386 . S
C660 C655 1.490 . S
C660 C662 1.395 . S
C660 C663 1.403 . S
H661 C667 0.930 . S
C662 H648 0.930 . S
C662 C660 1.395 . S
C662 C665 1.403 . S
C663 C660 1.403 . S
C663 C664 1.524 . S
C663 C667 1.400 . S
C664 H649 0.960 . S
C664 H650 0.960 . S
C664 H651 0.960 . S
C664 C663 1.524 . S
C665 C662 1.403 . S
C665 C666 1.392 . S
C665 C669 1.495 . S
C666 C665 1.392 . S
C666 C667 1.385 . S
C666 C668 1.478 . S
C667 H661 0.930 . S
C667 C663 1.400 . S
C667 C666 1.385 . S
C668 C666 1.478 . S
C668 C670 1.381 . S
C668 C674 1.383 . S
C669 C665 1.495 . S
C669 H675 0.959 . S
C669 H676 0.961 . S
C669 H677 0.960 . S
C670 C668 1.381 . S
C670 C671 1.394 . S
C670 H678 0.930 . S
C671 C670 1.394 . S
C671 C672 1.383 . S
C671 H679 0.929 . S
C672 C671 1.383 . S
C672 C673 1.377 . S
C673 H657 0.930 . S
C673 C672 1.377 . S
C673 C674 1.379 . S
C674 H658 0.931 . S
C674 C668 1.383 . S
C674 C673 1.379 . S
H675 C669 0.959 . S
H676 C669 0.961 . S
H677 C669 0.960 . S
H678 C670 0.930 . S
H679 C671 0.929 . S
H680 C688 0.929 . S
H681 C690 0.930 . S
H682 C692 0.930 . S
H683 C695 0.929 . S
H684 C698 0.930 . S
H685 C700 0.960 . S
H686 C700 0.960 1_554 S
H687 C700 0.960 1_455 S
C688 H680 0.929 . S
C688 C689 1.377 . S
C688 C690 1.384 . S
C689 C688 1.377 . S
C689 C695 1.390 1_655 S
C690 H681 0.930 . S
C690 C688 1.384 . S
C690 C691 1.372 1_655 S
C691 C690 1.372 1_455 S
C691 C692 1.400 . S
C691 C696 1.490 . S
C692 H682 0.930 . S
C692 C691 1.400 . S
C692 C695 1.386 . S
H693 C709 0.930 . S
H694 C710 0.931 . S
C695 H683 0.929 . S
C695 C689 1.390 1_455 S
C695 C692 1.386 . S
C696 C691 1.490 . S
C696 C698 1.395 . S
C696 C699 1.403 . S
H697 C703 0.930 1_556 S
C698 H684 0.930 . S
C698 C696 1.395 . S
C698 C701 1.403 . S
C699 C696 1.403 . S
C699 C700 1.524 1_454 S
C699 C703 1.400 . S
C700 H685 0.960 . S
C700 H686 0.960 1_556 S
C700 H687 0.960 1_655 S
C700 C699 1.524 1_656 S
C701 C698 1.403 . S
C701 C702 1.392 . S
C701 C705 1.495 . S
C702 C701 1.392 . S
C702 C703 1.385 . S
C702 C704 1.478 . S
C703 H697 0.930 1_554 S
C703 C699 1.400 . S
C703 C702 1.385 . S
C704 C702 1.478 . S
C704 C706 1.381 . S
C704 C710 1.383 1_554 S
C705 C701 1.495 . S
C705 H711 0.959 . S
C705 H712 0.961 . S
C705 H713 0.960 . S
C706 C704 1.381 . S
C706 C707 1.394 1_554 S
C706 H714 0.910 1_455 S
C707 C706 1.394 1_556 S
C707 C708 1.383 . S
C707 H715 0.929 . S
C708 C707 1.383 . S
C708 C709 1.377 . S
C709 H693 0.930 . S
C709 C708 1.377 . S
C709 C710 1.379 . S
C710 H694 0.931 . S
C710 C704 1.383 1_556 S
C710 C709 1.379 . S
H711 C705 0.959 . S
H712 C705 0.961 . S
H713 C705 0.960 . S
H714 C706 0.910 1_655 S
H715 C707 0.929 . S
H716 C724 0.929 . S
H717 C726 0.930 . S
H718 C728 0.930 . S
H719 C731 0.929 . S
H720 C734 0.930 . S
H721 C736 0.960 . S
H722 C736 0.960 . S
H723 C736 0.960 . S
C724 H716 0.929 . S
C724 C725 1.377 1_545 S
C724 C726 1.384 . S
C725 C724 1.377 1_565 S
C725 C731 1.390 . S
C726 H717 0.930 . S
C726 C724 1.384 . S
C726 C727 1.372 . S
C727 C726 1.372 . S
C727 C728 1.400 1_545 S
C727 C732 1.490 . S
C728 H718 0.930 . S
C728 C727 1.400 1_565 S
C728 C731 1.386 . S
H729 C745 0.948 . S
H730 C746 0.931 1_564 S
C731 H719 0.929 . S
C731 C725 1.390 . S
C731 C728 1.386 . S
C732 C727 1.490 . S
C732 C734 1.395 . S
C732 C735 1.403 . S
H733 C739 0.930 . S
C734 H720 0.930 . S
C734 C732 1.395 . S
C734 C737 1.403 1_554 S
C735 C732 1.403 . S
C735 C736 1.524 . S
C735 C739 1.400 . S
C736 H721 0.960 . S
C736 H722 0.960 . S
C736 H723 0.960 . S
C736 C735 1.524 . S
C737 C734 1.403 1_556 S
C737 C738 1.392 1_556 S
C737 C741 1.495 . S
C738 C737 1.392 1_554 S
C738 C739 1.385 . S
C738 C740 1.478 1_554 S
C739 H733 0.930 . S
C739 C735 1.400 . S
C739 C738 1.385 . S
C740 C738 1.478 1_556 S
C740 C742 1.381 . S
C740 C746 1.383 . S
C741 C737 1.495 . S
C741 H747 0.959 . S
C741 H748 0.925 1_545 S
C741 H749 0.960 . S
C742 C740 1.381 . S
C742 C743 1.394 . S
C742 H750 0.930 . S
C743 C742 1.394 . S
C743 C744 1.383 . S
C743 H751 0.929 . S
C744 C743 1.383 . S
C744 C745 1.377 . S
C745 H729 0.948 . S
C745 C744 1.377 . S
C745 C746 1.379 . S
C746 H730 0.931 1_546 S
C746 C740 1.383 . S
C746 C745 1.379 . S
H747 C741 0.959 . S
H748 C741 0.925 1_565 S
H749 C741 0.960 . S
H750 C742 0.930 . S
H751 C743 0.929 . S
H752 C760 0.929 . S
H753 C762 0.930 . S
H754 C764 0.930 . S
H755 C767 0.929 . S
H756 C770 0.930 . S
H757 C772 0.960 . S
H758 C772 0.960 . S
H759 C772 0.960 . S
C760 H752 0.929 . S
C760 C761 1.377 . S
C760 C762 1.384 . S
C761 C760 1.377 . S
C761 C767 1.390 . S
C762 H753 0.930 . S
C762 C760 1.384 . S
C762 C763 1.372 . S
C763 C762 1.372 . S
C763 C764 1.400 . S
C763 C768 1.490 . S
C764 H754 0.930 . S
C764 C763 1.400 . S
C764 C767 1.386 . S
H765 C781 0.930 . S
H766 C782 0.931 . S
C767 H755 0.929 . S
C767 C761 1.390 . S
C767 C764 1.386 . S
C768 C763 1.490 . S
C768 C770 1.395 . S
C768 C771 1.403 . S
H769 C775 0.930 . S
C770 H756 0.930 . S
C770 C768 1.395 . S
C770 C773 1.403 . S
C771 C768 1.403 . S
C771 C772 1.524 . S
C771 C775 1.400 . S
C772 H757 0.960 . S
C772 H758 0.960 . S
C772 H759 0.960 . S
C772 C771 1.524 . S
C773 C770 1.403 . S
C773 C774 1.392 . S
C773 C777 1.495 . S
C774 C773 1.392 . S
C774 C775 1.385 . S
C774 C776 1.478 1_554 S
C775 H769 0.930 . S
C775 C771 1.400 . S
C775 C774 1.385 . S
C776 C774 1.478 1_556 S
C776 C778 1.381 . S
C776 C782 1.383 1_556 S
C777 C773 1.495 . S
C777 H783 0.959 . S
C777 H784 0.961 . S
C777 H785 0.960 . S
C778 C776 1.381 . S
C778 C779 1.394 . S
C778 H786 0.930 . S
C779 C778 1.394 . S
C779 C780 1.383 . S
C779 H787 0.929 . S
C780 C779 1.383 . S
C780 C781 1.377 . S
C781 H765 0.930 . S
C781 C780 1.377 . S
C781 C782 1.379 1_556 S
C782 H766 0.931 . S
C782 C776 1.383 1_554 S
C782 C781 1.379 1_554 S
H783 C777 0.959 . S
H784 C777 0.961 . S
H785 C777 0.960 . S
H786 C778 0.930 . S
H787 C779 0.929 . S
H788 C796 0.929 . S
H789 C798 0.930 . S
H790 C800 0.930 . S
H791 C803 0.929 . S
H792 C806 0.930 . S
H793 C808 0.960 . S
H794 C808 0.960 . S
H795 C808 0.960 . S
C796 H788 0.929 . S
C796 C797 1.377 . S
C796 C798 1.384 . S
C797 C796 1.377 . S
C797 C803 1.390 . S
C798 H789 0.930 . S
C798 C796 1.384 . S
C798 C799 1.372 . S
C799 C798 1.372 . S
C799 C800 1.400 . S
C799 C804 1.490 . S
C800 H790 0.930 . S
C800 C799 1.400 . S
C800 C803 1.386 . S
H801 C817 0.930 . S
H802 C818 0.931 . S
C803 H791 0.929 . S
C803 C797 1.390 . S
C803 C800 1.386 . S
C804 C799 1.490 . S
C804 C806 1.395 . S
C804 C807 1.403 . S
H805 C811 0.930 . S
C806 H792 0.930 . S
C806 C804 1.395 . S
C806 C809 1.403 . S
C807 C804 1.403 . S
C807 C808 1.524 . S
C807 C811 1.400 . S
C808 H793 0.960 . S
C808 H794 0.960 . S
C808 H795 0.960 . S
C808 C807 1.524 . S
C809 C806 1.403 . S
C809 C810 1.392 . S
C809 C813 1.495 . S
C810 C809 1.392 . S
C810 C811 1.385 . S
C810 C812 1.478 1_554 S
C811 H805 0.930 . S
C811 C807 1.400 . S
C811 C810 1.385 . S
C812 C810 1.478 1_556 S
C812 C814 1.381 1_556 S
C812 C818 1.383 . S
C813 C809 1.495 . S
C813 H819 0.959 . S
C813 H820 0.961 1_554 S
C813 H821 0.960 . S
C814 C812 1.381 1_554 S
C814 C815 1.394 1_554 S
C814 H822 0.930 . S
C815 C814 1.394 1_556 S
C815 C816 1.383 . S
C815 H823 0.929 1_556 S
C816 C815 1.383 . S
C816 C817 1.377 . S
C817 H801 0.930 . S
C817 C816 1.377 . S
C817 C818 1.379 . S
C818 H802 0.931 . S
C818 C812 1.383 . S
C818 C817 1.379 . S
H819 C813 0.959 . S
H820 C813 0.961 1_556 S
H821 C813 0.960 . S
H822 C814 0.930 . S
H823 C815 0.929 1_554 S
H824 C832 0.929 . S
H825 C834 0.930 . S
H826 C836 0.930 . S
H827 C839 0.929 . S
H828 C842 0.930 . S
H829 C844 0.960 . S
H830 C844 0.960 . S
H831 C844 0.960 . S
C832 H824 0.929 . S
C832 C833 1.377 1_655 S
C832 C834 1.384 . S
C833 C832 1.377 1_455 S
C833 C839 1.390 . S
C834 H825 0.930 . S
C834 C832 1.384 . S
C834 C835 1.372 1_655 S
C835 C834 1.372 1_455 S
C835 C836 1.400 . S
C835 C840 1.490 . S
C836 H826 0.930 . S
C836 C835 1.400 . S
C836 C839 1.386 . S
H837 C853 0.930 . S
H838 C854 0.931 . S
C839 H827 0.929 . S
C839 C833 1.390 . S
C839 C836 1.386 . S
C840 C835 1.490 . S
C840 C842 1.395 1_455 S
C840 C843 1.403 . S
H841 C847 0.930 . S
C842 H828 0.930 . S
C842 C840 1.395 1_655 S
C842 C845 1.403 . S
C843 C840 1.403 . S
C843 C844 1.524 . S
C843 C847 1.400 . S
C844 H829 0.960 . S
C844 H830 0.960 . S
C844 H831 0.960 . S
C844 C843 1.524 . S
C845 C842 1.403 . S
C845 C846 1.392 1_655 S
C845 C849 1.495 . S
C846 C845 1.392 1_455 S
C846 C847 1.385 . S
C846 C848 1.478 . S
C847 H841 0.930 . S
C847 C843 1.400 . S
C847 C846 1.385 . S
C848 C846 1.478 . S
C848 C850 1.381 1_455 S
C848 C854 1.383 . S
C849 C845 1.495 . S
C849 H855 0.959 . S
C849 H856 0.961 . S
C849 H857 0.960 . S
C850 C848 1.381 1_655 S
C850 C851 1.394 . S
C850 H858 0.930 . S
C851 C850 1.394 . S
C851 C852 1.383 1_655 S
C851 H859 0.929 . S
C852 C851 1.383 1_455 S
C852 C853 1.377 . S
C853 H837 0.930 . S
C853 C852 1.377 . S
C853 C854 1.379 . S
C854 H838 0.931 . S
C854 C848 1.383 . S
C854 C853 1.379 . S
H855 C849 0.959 . S
H856 C849 0.961 . S
H857 C849 0.960 . S
H858 C850 0.930 . S
H859 C851 0.929 . S
H860 C868 0.929 . S
H861 C870 0.930 . S
H862 C872 0.930 . S
H863 C875 0.929 . S
H864 C878 0.930 . S
H865 C880 0.960 . S
H866 C880 0.960 1_545 S
H867 C880 0.960 . S
C868 H860 0.929 . S
C868 C869 1.377 . S
C868 C870 1.384 . S
C869 C868 1.377 . S
C869 C875 1.390 1_545 S
C870 H861 0.930 . S
C870 C868 1.384 . S
C870 C871 1.372 . S
C871 C870 1.372 . S
C871 C872 1.400 1_545 S
C871 C876 1.490 . S
C872 H862 0.930 . S
C872 C871 1.400 1_565 S
C872 C875 1.386 . S
H873 C889 0.930 . S
H874 C890 0.931 . S
C875 H863 0.929 . S
C875 C869 1.390 1_565 S
C875 C872 1.386 . S
C876 C871 1.490 . S
C876 C878 1.395 . S
C876 C879 1.403 . S
H877 C883 0.930 . S
C878 H864 0.930 . S
C878 C876 1.395 . S
C878 C881 1.403 . S
C879 C876 1.403 . S
C879 C880 1.524 1_545 S
C879 C883 1.400 . S
C880 H865 0.960 . S
C880 H866 0.960 1_565 S
C880 H867 0.960 . S
C880 C879 1.524 1_565 S
C881 C878 1.403 . S
C881 C882 1.392 . S
C881 C885 1.495 . S
C882 C881 1.392 . S
C882 C883 1.385 . S
C882 C884 1.478 . S
C883 H877 0.930 . S
C883 C879 1.400 . S
C883 C882 1.385 . S
C884 C882 1.478 . S
C884 C886 1.381 . S
C884 C890 1.383 1_545 S
C885 C881 1.495 . S
C885 H891 0.959 . S
C885 H892 0.961 . S
C885 H893 0.960 . S
C886 C884 1.381 . S
C886 C887 1.394 . S
C886 H894 0.930 . S
C887 C886 1.394 . S
C887 C888 1.383 . S
C887 H895 0.929 . S
C888 C887 1.383 . S
C888 C889 1.377 1_545 S
C889 H873 0.930 . S
C889 C888 1.377 1_565 S
C889 C890 1.379 . S
C890 H874 0.931 . S
C890 C884 1.383 1_565 S
C890 C889 1.379 . S
H891 C885 0.959 . S
H892 C885 0.961 . S
H893 C885 0.960 . S
H894 C886 0.930 . S
H895 C887 0.929 . S
H896 C904 0.929 . S
H897 C906 0.930 . S
H898 C908 0.930 . S
H899 C911 0.929 . S
H900 C914 0.930 . S
H901 C916 0.960 . S
H902 C916 0.960 . S
H903 C916 0.960 . S
C904 H896 0.929 . S
C904 C905 1.377 . S
C904 C906 1.384 . S
C905 C904 1.377 . S
C905 C911 1.390 . S
C906 H897 0.930 . S
C906 C904 1.384 . S
C906 C907 1.372 . S
C907 C906 1.372 . S
C907 C908 1.400 . S
C907 C912 1.490 . S
C908 H898 0.930 . S
C908 C907 1.400 . S
C908 C911 1.386 . S
H909 C925 0.930 . S
H910 C926 0.931 . S
C911 H899 0.929 . S
C911 C905 1.390 . S
C911 C908 1.386 . S
C912 C907 1.490 . S
C912 C914 1.395 . S
C912 C915 1.403 . S
H913 C919 0.930 . S
C914 H900 0.930 . S
C914 C912 1.395 . S
C914 C917 1.403 . S
C915 C912 1.403 . S
C915 C916 1.524 . S
C915 C919 1.400 . S
C916 H901 0.960 . S
C916 H902 0.960 . S
C916 H903 0.960 . S
C916 C915 1.524 . S
C917 C914 1.403 . S
C917 C918 1.392 . S
C917 C921 1.495 . S
C918 C917 1.392 . S
C918 C919 1.385 . S
C918 C920 1.478 . S
C919 H913 0.930 . S
C919 C915 1.400 . S
C919 C918 1.385 . S
C920 C918 1.478 . S
C920 C922 1.381 . S
C920 C926 1.383 . S
C921 C917 1.495 . S
C921 H927 0.959 . S
C921 H928 0.961 . S
C921 H929 0.960 . S
C922 C920 1.381 . S
C922 C923 1.394 . S
C922 H930 0.930 . S
C923 C922 1.394 . S
C923 C924 1.383 . S
C923 H931 0.929 . S
C924 C923 1.383 . S
C924 C925 1.377 . S
C925 H909 0.930 . S
C925 C924 1.377 . S
C925 C926 1.379 . S
C926 H910 0.931 . S
C926 C920 1.383 . S
C926 C925 1.379 . S
H927 C921 0.959 . S
H928 C921 0.961 . S
H929 C921 0.960 . S
H930 C922 0.930 . S
H931 C923 0.929 . S
H932 C940 0.929 . S
H933 C942 0.930 . S
H934 C944 0.930 . S
H935 C947 0.929 . S
H936 C950 0.930 . S
H937 C952 0.960 . S
H938 C952 0.960 . S
H939 C952 0.960 . S
C940 H932 0.929 . S
C940 C941 1.377 . S
C940 C942 1.384 . S
C941 C940 1.377 . S
C941 C947 1.390 . S
C942 H933 0.930 . S
C942 C940 1.384 . S
C942 C943 1.372 . S
C943 C942 1.372 . S
C943 C944 1.400 . S
C943 C948 1.490 . S
C944 H934 0.930 . S
C944 C943 1.400 . S
C944 C947 1.386 . S
H945 C961 0.930 . S
H946 C962 0.931 . S
C947 H935 0.929 . S
C947 C941 1.390 . S
C947 C944 1.386 . S
C948 C943 1.490 . S
C948 C950 1.395 . S
C948 C951 1.403 . S
H949 C955 0.930 . S
C950 H936 0.930 . S
C950 C948 1.395 . S
C950 C953 1.403 . S
C951 C948 1.403 . S
C951 C952 1.524 . S
C951 C955 1.400 . S
C952 H937 0.960 . S
C952 H938 0.960 . S
C952 H939 0.960 . S
C952 C951 1.524 . S
C953 C950 1.403 . S
C953 C954 1.392 . S
C953 C957 1.495 . S
C954 C953 1.392 . S
C954 C955 1.385 . S
C954 C956 1.478 . S
C955 H949 0.930 . S
C955 C951 1.400 . S
C955 C954 1.385 . S
C956 C954 1.478 . S
C956 C958 1.381 . S
C956 C962 1.383 . S
C957 C953 1.495 . S
C957 H963 0.959 . S
C957 H964 0.961 . S
C957 H965 0.960 . S
C958 C956 1.381 . S
C958 C959 1.394 . S
C958 H966 0.930 . S
C959 C958 1.394 . S
C959 C960 1.383 . S
C959 H967 0.929 . S
C960 C959 1.383 . S
C960 C961 1.377 . S
C961 H945 0.930 . S
C961 C960 1.377 . S
C961 C962 1.379 . S
C962 H946 0.931 . S
C962 C956 1.383 . S
C962 C961 1.379 . S
H963 C957 0.959 . S
H964 C957 0.961 . S
H965 C957 0.960 . S
H966 C958 0.930 . S
H967 C959 0.929 . S
H968 C976 0.929 . S
H969 C978 0.930 . S
H970 C980 0.930 . S
H971 C983 0.929 . S
H972 C986 0.930 . S
H973 C988 0.960 . S
H974 C988 0.960 . S
H975 C988 0.960 . S
C976 H968 0.929 . S
C976 C977 1.377 1_455 S
C976 C978 1.384 . S
C977 C976 1.377 1_655 S
C977 C983 1.390 . S
C978 H969 0.930 . S
C978 C976 1.384 . S
C978 C979 1.372 1_455 S
C979 C978 1.372 1_655 S
C979 C980 1.400 . S
C979 C984 1.490 . S
C980 H970 0.930 . S
C980 C979 1.400 . S
C980 C983 1.386 . S
H981 C997 0.930 . S
H982 C998 0.931 . S
C983 H971 0.929 . S
C983 C977 1.390 . S
C983 C980 1.386 . S
C984 C979 1.490 . S
C984 C986 1.395 1_655 S
C984 C987 1.403 . S
H985 C991 0.930 . S
C986 H972 0.930 . S
C986 C984 1.395 1_455 S
C986 C989 1.403 . S
C987 C984 1.403 . S
C987 C988 1.524 . S
C987 C991 1.400 . S
C988 H973 0.960 . S
C988 H974 0.960 . S
C988 H975 0.960 . S
C988 C987 1.524 . S
C989 C986 1.403 . S
C989 C990 1.392 1_455 S
C989 C993 1.495 . S
C990 C989 1.392 1_655 S
C990 C991 1.385 . S
C990 C992 1.478 . S
C991 H985 0.930 . S
C991 C987 1.400 . S
C991 C990 1.385 . S
C992 C990 1.478 . S
C992 C994 1.381 1_655 S
C992 C998 1.383 . S
C993 C989 1.495 . S
C993 H999 0.959 . S
C993 H1000 0.961 . S
C993 H1001 0.960 . S
C994 C992 1.381 1_455 S
C994 C995 1.394 . S
C994 H1002 0.930 . S
C995 C994 1.394 . S
C995 C996 1.383 1_455 S
C995 H1003 0.929 . S
C996 C995 1.383 1_655 S
C996 C997 1.377 . S
C997 H981 0.930 . S
C997 C996 1.377 . S
C997 C998 1.379 . S
C998 H982 0.931 . S
C998 C992 1.383 . S
C998 C997 1.379 . S
H999 C993 0.959 . S
H1000 C993 0.961 . S
H1001 C993 0.960 . S
H1002 C994 0.930 . S
H1003 C995 0.929 . S
H1004 C1012 0.929 . S
H1005 C1014 0.930 . S
H1006 C1016 0.930 . S
H1007 C1019 0.929 . S
H1008 C1022 0.930 . S
H1009 C1024 0.960 . S
H1010 C1024 0.960 . S
H1011 C1024 0.960 . S
C1012 H1004 0.929 . S
C1012 C1013 1.377 1_545 S
C1012 C1014 1.384 . S
C1013 C1012 1.377 1_565 S
C1013 C1019 1.390 . S
C1014 H1005 0.930 . S
C1014 C1012 1.384 . S
C1014 C1015 1.372 1_545 S
C1015 C1014 1.372 1_565 S
C1015 C1016 1.400 . S
C1015 C1020 1.490 . S
C1016 H1006 0.930 . S
C1016 C1015 1.400 . S
C1016 C1019 1.386 . S
H1017 C1033 0.930 . S
H1018 C1034 0.931 . S
C1019 H1007 0.929 . S
C1019 C1013 1.390 . S
C1019 C1016 1.386 . S
C1020 C1015 1.490 . S
C1020 C1022 1.395 . S
C1020 C1023 1.403 1_565 S
H1021 C1027 0.930 . S
C1022 H1008 0.930 . S
C1022 C1020 1.395 . S
C1022 C1025 1.403 . S
C1023 C1020 1.403 1_545 S
C1023 C1024 1.524 . S
C1023 C1027 1.400 . S
C1024 H1009 0.960 . S
C1024 H1010 0.960 . S
C1024 H1011 0.960 . S
C1024 C1023 1.524 . S
C1025 C1022 1.403 . S
C1025 C1026 1.392 . S
C1025 C1029 1.495 . S
C1026 C1025 1.392 . S
C1026 C1027 1.385 1_565 S
C1026 C1028 1.478 . S
C1027 H1021 0.930 . S
C1027 C1023 1.400 . S
C1027 C1026 1.385 1_545 S
C1028 C1026 1.478 . S
C1028 C1030 1.403 . S
C1028 C1034 1.383 . S
C1029 C1025 1.495 . S
C1029 H1035 0.959 . S
C1029 H1036 0.961 . S
C1029 H1037 0.960 . S
C1030 C1028 1.403 . S
C1030 C1031 1.394 . S
C1030 H1038 0.910 1_565 S
C1031 C1030 1.394 . S
C1031 C1032 1.399 . S
C1031 H1039 0.914 1_565 S
C1032 C1031 1.399 . S
C1032 C1033 1.377 . S
C1033 H1017 0.930 . S
C1033 C1032 1.377 . S
C1033 C1034 1.379 . S
C1034 H1018 0.931 . S
C1034 C1028 1.383 . S
C1034 C1033 1.379 . S
H1035 C1029 0.959 . S
H1036 C1029 0.961 . S
H1037 C1029 0.960 . S
H1038 C1030 0.910 1_545 S
H1039 C1031 0.914 1_545 S
H1040 C1048 0.929 . S
H1041 C1050 0.930 . S
H1042 C1052 0.930 . S
H1043 C1055 0.929 . S
H1044 C1058 0.930 . S
H1045 C1060 0.960 . S
H1046 C1060 0.960 . S
H1047 C1060 0.960 . S
C1048 H1040 0.929 . S
C1048 C1049 1.377 . S
C1048 C1050 1.384 . S
C1049 C1048 1.377 . S
C1049 C1055 1.390 . S
C1050 H1041 0.930 . S
C1050 C1048 1.384 . S
C1050 C1051 1.372 . S
C1051 C1050 1.372 . S
C1051 C1052 1.400 . S
C1051 C1056 1.490 . S
C1052 H1042 0.930 . S
C1052 C1051 1.400 . S
C1052 C1055 1.386 . S
H1053 C1069 0.930 . S
H1054 C1070 0.931 . S
C1055 H1043 0.929 . S
C1055 C1049 1.390 . S
C1055 C1052 1.386 . S
C1056 C1051 1.490 . S
C1056 C1058 1.395 . S
C1056 C1059 1.403 . S
H1057 C1063 0.930 . S
C1058 H1044 0.930 . S
C1058 C1056 1.395 . S
C1058 C1061 1.403 . S
C1059 C1056 1.403 . S
C1059 C1060 1.524 . S
C1059 C1063 1.400 . S
C1060 H1045 0.960 . S
C1060 H1046 0.960 . S
C1060 H1047 0.960 . S
C1060 C1059 1.524 . S
C1061 C1058 1.403 . S
C1061 C1062 1.392 . S
C1061 C1065 1.495 . S
C1062 C1061 1.392 . S
C1062 C1063 1.385 . S
C1062 C1064 1.478 . S
C1063 H1057 0.930 . S
C1063 C1059 1.400 . S
C1063 C1062 1.385 . S
C1064 C1062 1.478 . S
C1064 C1066 1.381 . S
C1064 C1070 1.383 . S
C1065 C1061 1.495 . S
C1065 H1071 0.959 . S
C1065 H1072 0.961 . S
C1065 H1073 0.960 . S
C1066 C1064 1.381 . S
C1066 C1067 1.394 . S
C1066 H1074 0.930 . S
C1067 C1066 1.394 . S
C1067 C1068 1.383 . S
C1067 H1075 0.929 . S
C1068 C1067 1.383 . S
C1068 C1069 1.377 . S
C1069 H1053 0.930 . S
C1069 C1068 1.377 . S
C1069 C1070 1.379 . S
C1070 H1054 0.931 . S
C1070 C1064 1.383 . S
C1070 C1069 1.379 . S
H1071 C1065 0.959 . S
H1072 C1065 0.961 . S
H1073 C1065 0.960 . S
H1074 C1066 0.930 . S
H1075 C1067 0.929 . S
H1076 C1084 0.929 . S
H1077 C1086 0.930 . S
H1078 C1088 0.930 . S
H1079 C1091 0.929 . S
H1080 C1094 0.930 . S
H1081 C1096 0.960 . S
H1082 C1096 0.960 . S
H1083 C1096 0.960 . S
C1084 H1076 0.929 . S
C1084 C1085 1.377 . S
C1084 C1086 1.384 . S
C1085 C1084 1.377 . S
C1085 C1091 1.390 . S
C1086 H1077 0.930 . S
C1086 C1084 1.384 . S
C1086 C1087 1.372 . S
C1087 C1086 1.372 . S
C1087 C1088 1.400 . S
C1087 C1092 1.490 . S
C1088 H1078 0.930 . S
C1088 C1087 1.400 . S
C1088 C1091 1.386 . S
H1089 C1105 0.930 . S
H1090 C1106 0.931 . S
C1091 H1079 0.929 . S
C1091 C1085 1.390 . S
C1091 C1088 1.386 . S
C1092 C1087 1.490 . S
C1092 C1094 1.395 . S
C1092 C1095 1.403 . S
H1093 C1099 0.930 . S
C1094 H1080 0.930 . S
C1094 C1092 1.395 . S
C1094 C1097 1.403 . S
C1095 C1092 1.403 . S
C1095 C1096 1.524 . S
C1095 C1099 1.400 . S
C1096 H1081 0.960 . S
C1096 H1082 0.960 . S
C1096 H1083 0.960 . S
C1096 C1095 1.524 . S
C1097 C1094 1.403 . S
C1097 C1098 1.392 . S
C1097 C1101 1.495 . S
C1098 C1097 1.392 . S
C1098 C1099 1.385 . S
C1098 C1100 1.478 . S
C1099 H1093 0.930 . S
C1099 C1095 1.400 . S
C1099 C1098 1.385 . S
C1100 C1098 1.478 . S
C1100 C1102 1.381 . S
C1100 C1106 1.383 . S
C1101 C1097 1.495 . S
C1101 H1107 0.959 . S
C1101 H1108 0.961 . S
C1101 H1109 0.960 . S
C1102 C1100 1.381 . S
C1102 C1103 1.394 . S
C1102 H1110 0.930 . S
C1103 C1102 1.394 . S
C1103 C1104 1.383 . S
C1103 H1111 0.929 . S
C1104 C1103 1.383 . S
C1104 C1105 1.377 . S
C1105 H1089 0.930 . S
C1105 C1104 1.377 . S
C1105 C1106 1.379 . S
C1106 H1090 0.931 . S
C1106 C1100 1.383 . S
C1106 C1105 1.379 . S
H1107 C1101 0.959 . S
H1108 C1101 0.961 . S
H1109 C1101 0.960 . S
H1110 C1102 0.930 . S
H1111 C1103 0.929 . S
C257 C74 1.658 . S
C276 C97 1.725 . S
C312 C137 1.707 . S
C293 C85 1.668 . S
C348 C177 1.706 . S
C329 C52 1.668 . S
C384 C217 1.731 . S
C365 C63 1.661 . S
C420 C106 1.705 1_565 S
C401 C30 1.666 1_565 S
C437 C41 1.658 . S
C456 C146 1.708 . S
C473 C8 1.662 . S
C492 C186 1.703 . S
C509 C19 1.654 1_655 S
C528 C226 1.723 1_655 S
C564 C103 0.389 . S
C545 C62 0.415 . S
C600 C143 0.379 . S
C581 C73 0.417 . S
C636 C183 0.458 . S
C617 C84 0.406 . S
C653 C51 0.410 . S
C672 C223 0.438 . S
C689 C18 0.494 1_655 S
C708 C94 0.442 . S
C744 C134 0.423 . S
C725 C29 0.464 1_565 S
C780 C174 0.378 . S
C761 C40 0.474 . S
C797 C7 0.486 . S
C816 C214 0.477 . S
C833 C60 1.570 . S
C852 C107 2.007 . S
C869 C71 1.568 . S
C888 C147 2.015 . S
C924 C187 2.029 . S
C905 C82 1.581 . S
C960 C227 2.021 . S
C941 C49 1.578 . S
C977 C16 1.607 1_655 S
C996 C98 2.003 . S
C1032 C138 2.023 . S
C1013 C27 1.595 1_565 S
C1068 C178 2.000 . S
C1049 C38 1.612 . S
C1085 C5 1.605 . S
C1104 C218 2.005 . S
