# Generated by pormake.
# Topology gar, (4,6)-cn, num edge types: 1
# Building blocks:
#     Node 0, Type 0, BuildingBlock: GALJAG_clean_sbu_0, # of connection points: 4
#     Node 1, Type 0, BuildingBlock: GALJAG_clean_sbu_0, # of connection points: 4
#     Node 2, Type 0, BuildingBlock: GALJAG_clean_sbu_0, # of connection points: 4
#     Node 3, Type 0, BuildingBlock: GALJAG_clean_sbu_0, # of connection points: 4
#     Node 4, Type 0, BuildingBlock: GALJAG_clean_sbu_0, # of connection points: 4
#     Node 5, Type 0, BuildingBlock: GALJAG_clean_sbu_0, # of connection points: 4
#     Node 6, Type 0, BuildingBlock: GALJAG_clean_sbu_0, # of connection points: 4
#     Node 7, Type 0, BuildingBlock: GALJAG_clean_sbu_0, # of connection points: 4
#     Node 8, Type 0, BuildingBlock: GALJAG_clean_sbu_0, # of connection points: 4
#     Node 9, Type 0, BuildingBlock: GALJAG_clean_sbu_0, # of connection points: 4
#     Node 10, Type 0, BuildingBlock: GALJAG_clean_sbu_0, # of connection points: 4
#     Node 11, Type 0, BuildingBlock: GALJAG_clean_sbu_0, # of connection points: 4
#     Node 12, Type 0, BuildingBlock: GALJAG_clean_sbu_0, # of connection points: 4
#     Node 13, Type 0, BuildingBlock: GALJAG_clean_sbu_0, # of connection points: 4
#     Node 14, Type 0, BuildingBlock: GALJAG_clean_sbu_0, # of connection points: 4
#     Node 15, Type 0, BuildingBlock: GALJAG_clean_sbu_0, # of connection points: 4
#     Node 16, Type 0, BuildingBlock: GALJAG_clean_sbu_0, # of connection points: 4
#     Node 17, Type 0, BuildingBlock: GALJAG_clean_sbu_0, # of connection points: 4
#     Node 18, Type 0, BuildingBlock: GALJAG_clean_sbu_0, # of connection points: 4
#     Node 19, Type 0, BuildingBlock: GALJAG_clean_sbu_0, # of connection points: 4
#     Node 20, Type 0, BuildingBlock: GALJAG_clean_sbu_0, # of connection points: 4
#     Node 21, Type 0, BuildingBlock: GALJAG_clean_sbu_0, # of connection points: 4
#     Node 22, Type 0, BuildingBlock: GALJAG_clean_sbu_0, # of connection points: 4
#     Node 23, Type 0, BuildingBlock: GALJAG_clean_sbu_0, # of connection points: 4
#     Node 24, Type 1, BuildingBlock: GEDQOX_clean_sbu_0, # of connection points: 6
#     Node 25, Type 1, BuildingBlock: GEDQOX_clean_sbu_0, # of connection points: 6
#     Node 26, Type 1, BuildingBlock: GEDQOX_clean_sbu_0, # of connection points: 6
#     Node 27, Type 1, BuildingBlock: GEDQOX_clean_sbu_0, # of connection points: 6
#     Node 28, Type 1, BuildingBlock: GEDQOX_clean_sbu_0, # of connection points: 6
#     Node 29, Type 1, BuildingBlock: GEDQOX_clean_sbu_0, # of connection points: 6
#     Node 30, Type 1, BuildingBlock: GEDQOX_clean_sbu_0, # of connection points: 6
#     Node 31, Type 1, BuildingBlock: GEDQOX_clean_sbu_0, # of connection points: 6
#     Node 32, Type 1, BuildingBlock: GEDQOX_clean_sbu_0, # of connection points: 6
#     Node 33, Type 1, BuildingBlock: GEDQOX_clean_sbu_0, # of connection points: 6
#     Node 34, Type 1, BuildingBlock: GEDQOX_clean_sbu_0, # of connection points: 6
#     Node 35, Type 1, BuildingBlock: GEDQOX_clean_sbu_0, # of connection points: 6
#     Node 36, Type 1, BuildingBlock: GEDQOX_clean_sbu_0, # of connection points: 6
#     Node 37, Type 1, BuildingBlock: GEDQOX_clean_sbu_0, # of connection points: 6
#     Node 38, Type 1, BuildingBlock: GEDQOX_clean_sbu_0, # of connection points: 6
#     Node 39, Type 1, BuildingBlock: GEDQOX_clean_sbu_0, # of connection points: 6
#     Edge 40, Type (0, 1), BuildingBlock: CIFDUS_clean_linker_0, # of connection points: 2
#     Edge 41, Type (0, 1), BuildingBlock: CIFDUS_clean_linker_0, # of connection points: 2
#     Edge 42, Type (0, 1), BuildingBlock: CIFDUS_clean_linker_0, # of connection points: 2
#     Edge 43, Type (0, 1), BuildingBlock: CIFDUS_clean_linker_0, # of connection points: 2
#     Edge 44, Type (0, 1), BuildingBlock: CIFDUS_clean_linker_0, # of connection points: 2
#     Edge 45, Type (0, 1), BuildingBlock: CIFDUS_clean_linker_0, # of connection points: 2
#     Edge 46, Type (0, 1), BuildingBlock: CIFDUS_clean_linker_0, # of connection points: 2
#     Edge 47, Type (0, 1), BuildingBlock: CIFDUS_clean_linker_0, # of connection points: 2
#     Edge 48, Type (0, 1), BuildingBlock: CIFDUS_clean_linker_0, # of connection points: 2
#     Edge 49, Type (0, 1), BuildingBlock: CIFDUS_clean_linker_0, # of connection points: 2
#     Edge 50, Type (0, 1), BuildingBlock: CIFDUS_clean_linker_0, # of connection points: 2
#     Edge 51, Type (0, 1), BuildingBlock: CIFDUS_clean_linker_0, # of connection points: 2
#     Edge 52, Type (0, 1), BuildingBlock: CIFDUS_clean_linker_0, # of connection points: 2
#     Edge 53, Type (0, 1), BuildingBlock: CIFDUS_clean_linker_0, # of connection points: 2
#     Edge 54, Type (0, 1), BuildingBlock: CIFDUS_clean_linker_0, # of connection points: 2
#     Edge 55, Type (0, 1), BuildingBlock: CIFDUS_clean_linker_0, # of connection points: 2
#     Edge 56, Type (0, 1), BuildingBlock: CIFDUS_clean_linker_0, # of connection points: 2
#     Edge 57, Type (0, 1), BuildingBlock: CIFDUS_clean_linker_0, # of connection points: 2
#     Edge 58, Type (0, 1), BuildingBlock: CIFDUS_clean_linker_0, # of connection points: 2
#     Edge 59, Type (0, 1), BuildingBlock: CIFDUS_clean_linker_0, # of connection points: 2
#     Edge 60, Type (0, 1), BuildingBlock: CIFDUS_clean_linker_0, # of connection points: 2
#     Edge 61, Type (0, 1), BuildingBlock: CIFDUS_clean_linker_0, # of connection points: 2
#     Edge 62, Type (0, 1), BuildingBlock: CIFDUS_clean_linker_0, # of connection points: 2
#     Edge 63, Type (0, 1), BuildingBlock: CIFDUS_clean_linker_0, # of connection points: 2
#     Edge 64, Type (0, 1), BuildingBlock: CIFDUS_clean_linker_0, # of connection points: 2
#     Edge 65, Type (0, 1), BuildingBlock: CIFDUS_clean_linker_0, # of connection points: 2
#     Edge 66, Type (0, 1), BuildingBlock: CIFDUS_clean_linker_0, # of connection points: 2
#     Edge 67, Type (0, 1), BuildingBlock: CIFDUS_clean_linker_0, # of connection points: 2
#     Edge 68, Type (0, 1), BuildingBlock: CIFDUS_clean_linker_0, # of connection points: 2
#     Edge 69, Type (0, 1), BuildingBlock: CIFDUS_clean_linker_0, # of connection points: 2
#     Edge 70, Type (0, 1), BuildingBlock: CIFDUS_clean_linker_0, # of connection points: 2
#     Edge 71, Type (0, 1), BuildingBlock: CIFDUS_clean_linker_0, # of connection points: 2
#     Edge 72, Type (0, 1), BuildingBlock: CIFDUS_clean_linker_0, # of connection points: 2
#     Edge 73, Type (0, 1), BuildingBlock: CIFDUS_clean_linker_0, # of connection points: 2
#     Edge 74, Type (0, 1), BuildingBlock: CIFDUS_clean_linker_0, # of connection points: 2
#     Edge 75, Type (0, 1), BuildingBlock: CIFDUS_clean_linker_0, # of connection points: 2
#     Edge 76, Type (0, 1), BuildingBlock: CIFDUS_clean_linker_0, # of connection points: 2
#     Edge 77, Type (0, 1), BuildingBlock: CIFDUS_clean_linker_0, # of connection points: 2
#     Edge 78, Type (0, 1), BuildingBlock: CIFDUS_clean_linker_0, # of connection points: 2
#     Edge 79, Type (0, 1), BuildingBlock: CIFDUS_clean_linker_0, # of connection points: 2
#     Edge 80, Type (0, 1), BuildingBlock: CIFDUS_clean_linker_0, # of connection points: 2
#     Edge 81, Type (0, 1), BuildingBlock: CIFDUS_clean_linker_0, # of connection points: 2
#     Edge 82, Type (0, 1), BuildingBlock: CIFDUS_clean_linker_0, # of connection points: 2
#     Edge 83, Type (0, 1), BuildingBlock: CIFDUS_clean_linker_0, # of connection points: 2
#     Edge 84, Type (0, 1), BuildingBlock: CIFDUS_clean_linker_0, # of connection points: 2
#     Edge 85, Type (0, 1), BuildingBlock: CIFDUS_clean_linker_0, # of connection points: 2
#     Edge 86, Type (0, 1), BuildingBlock: CIFDUS_clean_linker_0, # of connection points: 2
#     Edge 87, Type (0, 1), BuildingBlock: CIFDUS_clean_linker_0, # of connection points: 2
#     Edge 88, Type (0, 1), BuildingBlock: CIFDUS_clean_linker_0, # of connection points: 2
#     Edge 89, Type (0, 1), BuildingBlock: CIFDUS_clean_linker_0, # of connection points: 2
#     Edge 90, Type (0, 1), BuildingBlock: CIFDUS_clean_linker_0, # of connection points: 2
#     Edge 91, Type (0, 1), BuildingBlock: CIFDUS_clean_linker_0, # of connection points: 2
#     Edge 92, Type (0, 1), BuildingBlock: CIFDUS_clean_linker_0, # of connection points: 2
#     Edge 93, Type (0, 1), BuildingBlock: CIFDUS_clean_linker_0, # of connection points: 2
#     Edge 94, Type (0, 1), BuildingBlock: CIFDUS_clean_linker_0, # of connection points: 2
#     Edge 95, Type (0, 1), BuildingBlock: CIFDUS_clean_linker_0, # of connection points: 2
#     Edge 96, Type (0, 1), BuildingBlock: CIFDUS_clean_linker_0, # of connection points: 2
#     Edge 97, Type (0, 1), BuildingBlock: CIFDUS_clean_linker_0, # of connection points: 2
#     Edge 98, Type (0, 1), BuildingBlock: CIFDUS_clean_linker_0, # of connection points: 2
#     Edge 99, Type (0, 1), BuildingBlock: CIFDUS_clean_linker_0, # of connection points: 2
#     Edge 100, Type (0, 1), BuildingBlock: CIFDUS_clean_linker_0, # of connection points: 2
#     Edge 101, Type (0, 1), BuildingBlock: CIFDUS_clean_linker_0, # of connection points: 2
#     Edge 102, Type (0, 1), BuildingBlock: CIFDUS_clean_linker_0, # of connection points: 2
#     Edge 103, Type (0, 1), BuildingBlock: CIFDUS_clean_linker_0, # of connection points: 2
#     Edge 104, Type (0, 1), BuildingBlock: CIFDUS_clean_linker_0, # of connection points: 2
#     Edge 105, Type (0, 1), BuildingBlock: CIFDUS_clean_linker_0, # of connection points: 2
#     Edge 106, Type (0, 1), BuildingBlock: CIFDUS_clean_linker_0, # of connection points: 2
#     Edge 107, Type (0, 1), BuildingBlock: CIFDUS_clean_linker_0, # of connection points: 2
#     Edge 108, Type (0, 1), BuildingBlock: CIFDUS_clean_linker_0, # of connection points: 2
#     Edge 109, Type (0, 1), BuildingBlock: CIFDUS_clean_linker_0, # of connection points: 2
#     Edge 110, Type (0, 1), BuildingBlock: CIFDUS_clean_linker_0, # of connection points: 2
#     Edge 111, Type (0, 1), BuildingBlock: CIFDUS_clean_linker_0, # of connection points: 2
#     Edge 112, Type (0, 1), BuildingBlock: CIFDUS_clean_linker_0, # of connection points: 2
#     Edge 113, Type (0, 1), BuildingBlock: CIFDUS_clean_linker_0, # of connection points: 2
#     Edge 114, Type (0, 1), BuildingBlock: CIFDUS_clean_linker_0, # of connection points: 2
#     Edge 115, Type (0, 1), BuildingBlock: CIFDUS_clean_linker_0, # of connection points: 2
#     Edge 116, Type (0, 1), BuildingBlock: CIFDUS_clean_linker_0, # of connection points: 2
#     Edge 117, Type (0, 1), BuildingBlock: CIFDUS_clean_linker_0, # of connection points: 2
#     Edge 118, Type (0, 1), BuildingBlock: CIFDUS_clean_linker_0, # of connection points: 2
#     Edge 119, Type (0, 1), BuildingBlock: CIFDUS_clean_linker_0, # of connection points: 2
#     Edge 120, Type (0, 1), BuildingBlock: CIFDUS_clean_linker_0, # of connection points: 2
#     Edge 121, Type (0, 1), BuildingBlock: CIFDUS_clean_linker_0, # of connection points: 2
#     Edge 122, Type (0, 1), BuildingBlock: CIFDUS_clean_linker_0, # of connection points: 2
#     Edge 123, Type (0, 1), BuildingBlock: CIFDUS_clean_linker_0, # of connection points: 2
#     Edge 124, Type (0, 1), BuildingBlock: CIFDUS_clean_linker_0, # of connection points: 2
#     Edge 125, Type (0, 1), BuildingBlock: CIFDUS_clean_linker_0, # of connection points: 2
#     Edge 126, Type (0, 1), BuildingBlock: CIFDUS_clean_linker_0, # of connection points: 2
#     Edge 127, Type (0, 1), BuildingBlock: CIFDUS_clean_linker_0, # of connection points: 2
#     Edge 128, Type (0, 1), BuildingBlock: CIFDUS_clean_linker_0, # of connection points: 2
#     Edge 129, Type (0, 1), BuildingBlock: CIFDUS_clean_linker_0, # of connection points: 2
#     Edge 130, Type (0, 1), BuildingBlock: CIFDUS_clean_linker_0, # of connection points: 2
#     Edge 131, Type (0, 1), BuildingBlock: CIFDUS_clean_linker_0, # of connection points: 2
#     Edge 132, Type (0, 1), BuildingBlock: CIFDUS_clean_linker_0, # of connection points: 2
#     Edge 133, Type (0, 1), BuildingBlock: CIFDUS_clean_linker_0, # of connection points: 2
#     Edge 134, Type (0, 1), BuildingBlock: CIFDUS_clean_linker_0, # of connection points: 2
#     Edge 135, Type (0, 1), BuildingBlock: CIFDUS_clean_linker_0, # of connection points: 2
# Relax obj value: 0.316
# Max RMSD: 0.462
# Mean RMSD: 0.195
data_MOF--net-gar--node1-GALJAG_clean_sbu_0--node2-GEDQOX_clean_sbu_0--edge1-CIFDUS_clean_linker_0
_symmetry_space_group_name_H-M    P1
_symmetry_Int_Tables_number       1
_symmetry_cell_setting            triclinic
loop_
_symmetry_equiv_pos_as_xyz
'x, y, z'
_cell_length_a     53.836726
_cell_length_b     51.884146
_cell_length_c     46.313496
_cell_angle_alpha  98.608395
_cell_angle_beta   96.855639
_cell_angle_gamma 98.263178
loop_
_atom_site_label
_atom_site_type_symbol
_atom_site_fract_x
_atom_site_fract_y
_atom_site_fract_z
_atom_type_partial_charge
In0 In 0.14615 0.38067 0.483 0.0
O1 O 0.14847 0.36166 0.43671 0.0
O2 O 0.18359 0.37355 0.46472 0.0
C3 C 0.10332 0.38856 0.4521 0.0
C4 C 0.13345 0.34174 0.51341 0.0
C5 C 0.1597 0.42516 0.52437 0.0
O6 O 0.10566 0.36739 0.46162 0.0
O7 O 0.12259 0.40648 0.45888 0.0
O8 O 0.15372 0.40249 0.5305 0.0
O9 O 0.16098 0.42527 0.49734 0.0
C10 C 0.17208 0.36311 0.43929 0.0
O11 O 0.1559 0.34744 0.50791 0.0
O12 O 0.11807 0.35558 0.50358 0.0
In13 In 0.99958 0.77333 0.67415 0.0
O14 O 0.99639 0.80562 0.64548 0.0
O15 O 1.03229 0.80415 0.66959 0.0
C16 C 0.98416 0.73087 0.63066 0.0
C17 C 0.03973 0.76343 0.70877 0.0
C18 C 0.96694 0.7851 0.71218 0.0
O19 O 0.99676 0.75216 0.62684 0.0
O20 O 0.97725 0.73183 0.65581 0.0
O21 O 0.97684 0.7645 0.71063 0.0
O22 O 0.97145 0.79871 0.69239 0.0
C23 C 1.01973 0.81538 0.65193 0.0
O24 O 1.02834 0.7825 0.71573 0.0
O25 O 1.0311 0.74939 0.68398 0.0
In26 In 0.63903 0.90162 0.97824 0.0
O27 O 0.65842 0.90633 0.93822 0.0
O28 O 0.66741 0.87576 0.96108 0.0
C29 C 0.59799 0.90599 0.94133 0.0
C30 C 0.62287 0.86402 1.00859 0.0
C31 C 0.65054 0.9476 0.01711 0.0
O32 O 0.61113 0.92552 0.95861 0.0
O33 O 0.60516 0.88415 0.9432 0.0
O34 O 0.63791 0.92699 0.02249 0.0
O35 O 0.66035 0.94398 0.99372 0.0
C36 C 0.66934 0.88652 0.93855 0.0
O37 O 0.64633 0.87271 1.00996 0.0
O38 O 0.6082 0.87416 0.99188 0.0
In39 In 0.49635 0.29032 0.19324 0.0
O40 O 0.50079 0.26834 0.14842 0.0
O41 O 0.47612 0.24822 0.17303 0.0
C42 C 0.50616 0.33234 0.16655 0.0
C43 C 0.466 0.29819 0.23516 0.0
C44 C 0.53958 0.28727 0.22706 0.0
O45 O 0.48408 0.31891 0.16319 0.0
O46 O 0.52264 0.32468 0.18354 0.0
O47 O 0.52958 0.30787 0.22903 0.0
O48 O 0.52812 0.26842 0.20748 0.0
C49 C 0.48716 0.24705 0.15038 0.0
O50 O 0.47978 0.28054 0.23387 0.0
O51 O 0.46528 0.31014 0.21331 0.0
In52 In 0.06378 0.82057 0.2706 0.0
O53 O 0.06914 0.79777 0.2266 0.0
O54 O 0.05504 0.77442 0.25664 0.0
C55 C 0.06212 0.85876 0.23611 0.0
C56 C 1.0166 0.82144 0.29247 0.0
C57 C 0.11384 0.82515 0.30079 0.0
O58 O 0.06469 0.83533 0.22699 0.0
O59 O 0.06088 0.86372 0.26348 0.0
O60 O 0.09612 0.8062 0.30062 0.0
O61 O 0.10591 0.84307 0.28834 0.0
C62 C 0.06195 0.77487 0.23149 0.0
O63 O 0.03799 0.82807 0.30876 0.0
O64 O 1.01902 0.81364 0.266 0.0
In65 In 0.57551 0.86294 0.40666 0.0
O66 O 0.59994 0.85466 0.36716 0.0
O67 O 0.61994 0.86949 0.40944 0.0
C68 C 0.52307 0.85401 0.38285 0.0
C69 C 0.5808 0.82402 0.43935 0.0
C70 C 0.57784 0.91229 0.43856 0.0
O71 O 0.5394 0.87072 0.375 0.0
O72 O 0.53339 0.84083 0.40023 0.0
O73 O 0.5735 0.89134 0.44917 0.0
O74 O 0.58138 0.90851 0.41186 0.0
C75 C 0.62167 0.86144 0.38283 0.0
O76 O 0.58308 0.84812 0.45073 0.0
O77 O 0.57546 0.81946 0.41147 0.0
In78 In 0.56345 0.32158 0.77234 0.0
O79 O 0.56606 0.29447 0.72908 0.0
O80 O 0.55548 0.27576 0.76433 0.0
C81 C 0.56126 0.36173 0.74094 0.0
C82 C 0.51638 0.32309 0.79417 0.0
C83 C 0.61445 0.32759 0.80037 0.0
O84 O 0.56109 0.3381 0.72917 0.0
O85 O 0.56293 0.36535 0.76882 0.0
O86 O 0.59615 0.31218 0.80666 0.0
O87 O 0.6069 0.34134 0.78189 0.0
C88 C 0.56008 0.27296 0.73802 0.0
O89 O 0.53777 0.32932 0.81057 0.0
O90 O 0.51878 0.3157 0.7676 0.0
In91 In 0.07534 0.36141 0.90543 0.0
O92 O 0.08379 0.34514 0.94794 0.0
O93 O 0.07323 0.31701 0.90848 0.0
C94 C 0.07463 0.40621 0.94429 0.0
C95 C 0.12195 0.3622 0.88257 0.0
C96 C 1.025 0.35776 0.87724 0.0
O97 O 0.06855 0.38316 0.94943 0.0
O98 O 0.08171 0.40708 0.91931 0.0
O99 O 0.04351 0.37433 0.87336 0.0
O100 O 1.0321 0.34158 0.89301 0.0
C101 C 0.07994 0.32111 0.93618 0.0
O102 O 0.10052 0.35357 0.86685 0.0
O103 O 0.11971 0.37126 0.90875 0.0
In104 In 0.47342 0.16056 0.33057 0.0
O105 O 0.50902 0.16517 0.30659 0.0
O106 O 0.47692 0.13687 0.28623 0.0
C107 C 0.49317 0.15992 0.38788 0.0
C108 C 0.45312 0.20427 0.31942 0.0
C109 C 0.43862 0.11817 0.33168 0.0
O110 O 0.50693 0.15935 0.36749 0.0
O111 O 0.4709 0.16345 0.37972 0.0
O112 O 0.43242 0.14019 0.32828 0.0
O113 O 0.462 0.11736 0.33297 0.0
C114 C 0.49912 0.14756 0.28459 0.0
O115 O 0.4478 0.18215 0.30277 0.0
O116 O 0.46951 0.20495 0.34163 0.0
In117 In 0.26654 0.15287 0.47955 0.0
O118 O 0.29803 0.18316 0.50824 0.0
O119 O 0.26807 0.16587 0.52874 0.0
C120 C 0.26907 0.18404 0.43845 0.0
C121 C 0.29725 0.11593 0.47743 0.0
C122 C 0.21616 0.13848 0.47943 0.0
O123 O 0.27222 0.19277 0.46575 0.0
O124 O 0.26447 0.15904 0.43146 0.0
O125 O 0.2309 0.12169 0.47696 0.0
O126 O 0.22659 0.16191 0.48033 0.0
C127 C 0.28856 0.18178 0.53165 0.0
O128 O 0.29493 0.13004 0.45759 0.0
O129 O 0.28283 0.11928 0.49667 0.0
In130 In 0.21038 0.08258 0.85726 0.0
O131 O 0.17345 0.08477 0.82506 0.0
O132 O 0.20367 0.07147 0.80567 0.0
C133 C 0.18108 0.08596 0.9064 0.0
C134 C 0.2355 0.03553 0.85502 0.0
C135 C 0.23898 0.13467 0.85571 0.0
O136 O 0.1762 0.06776 0.88415 0.0
O137 O 0.20074 0.10183 0.90443 0.0
O138 O 0.24708 0.11793 0.87041 0.0
O139 O 0.21706 0.1253 0.84196 0.0
C140 C 0.18152 0.07689 0.80128 0.0
O141 O 0.24639 0.05922 0.86465 0.0
O142 O 0.21214 0.0353 0.8471 0.0
In143 In 0.25519 0.94466 0.09388 0.0
O144 O 0.24788 0.90989 0.11987 0.0
O145 O 0.27496 0.9434 0.13999 0.0
C146 C 0.26608 0.91143 0.04629 0.0
C147 C 0.21285 0.96862 0.0993 0.0
C148 C 0.29173 0.98468 0.09033 0.0
O149 O 0.2787 0.91595 0.07175 0.0
O150 O 0.24675 0.92276 0.04462 0.0
O151 O 0.27532 0.97371 0.06853 0.0
O152 O 0.28938 0.97573 0.11389 0.0
C153 C 0.26427 0.92062 0.14189 0.0
O154 O 0.2353 0.98024 0.10727 0.0
O155 O 0.21128 0.94443 0.08845 0.0
In156 In 0.36115 0.53606 0.19559 0.0
O157 O 0.34826 0.49855 0.21163 0.0
O158 O 0.37676 0.52632 0.24082 0.0
C159 C 0.35303 0.49786 0.14774 0.0
C160 C 0.32521 0.56792 0.19976 0.0
C161 C 0.40528 0.56296 0.18627 0.0
O162 O 0.37336 0.50347 0.16552 0.0
O163 O 0.33636 0.51182 0.15378 0.0
O164 O 0.38604 0.55535 0.16696 0.0
O165 O 0.4021 0.55834 0.21183 0.0
C166 C 0.36338 0.50345 0.23544 0.0
O167 O 0.34315 0.57141 0.18501 0.0
O168 O 0.32615 0.54926 0.21418 0.0
In169 In 0.88431 0.24346 0.08779 0.0
O170 O 0.90249 0.20682 0.07305 0.0
O171 O 0.92759 0.24276 0.08749 0.0
C172 C 0.84556 0.20536 0.09098 0.0
C173 C 0.88087 0.27293 0.14158 0.0
C174 C 0.87404 0.26981 0.04174 0.0
O175 O 0.86365 0.21359 0.11171 0.0
O176 O 0.84711 0.21615 0.06847 0.0
O177 O 0.88997 0.28022 0.06433 0.0
O178 O 0.86409 0.24643 0.04233 0.0
C179 C 0.92518 0.21823 0.07798 0.0
O180 O 0.86704 0.27427 0.11804 0.0
O181 O 0.89742 0.25828 0.13765 0.0
In182 In 0.16793 0.52408 0.32643 0.0
O183 O 0.19961 0.50613 0.34881 0.0
O184 O 0.17003 0.47896 0.32127 0.0
C185 C 0.19867 0.56728 0.3181 0.0
C186 C 0.14279 0.51971 0.27074 0.0
C187 C 0.14834 0.53911 0.37687 0.0
O188 O 0.20674 0.54605 0.32124 0.0
O189 O 0.17548 0.56686 0.3201 0.0
O190 O 0.13584 0.52147 0.35632 0.0
O191 O 0.16988 0.54855 0.37163 0.0
C192 C 0.19098 0.48233 0.33811 0.0
O193 O 0.132 0.5243 0.29337 0.0
O194 O 0.16494 0.5147 0.27631 0.0
In195 In 0.85604 0.03078 0.68954 0.0
O196 O 0.83544 1.0019 0.71397 0.0
O197 O 0.87437 1.01596 0.73014 0.0
C198 C 0.83189 0.99828 0.64016 0.0
C199 C 0.83117 0.07258 0.6964 0.0
C200 C 0.90372 0.04244 0.67758 0.0
O201 O 0.84451 0.99061 0.66092 0.0
O202 O 0.83145 1.02277 0.64399 0.0
O203 O 0.89655 0.05496 0.69988 0.0
O204 O 0.88714 0.02436 0.66235 0.0
C205 C 0.85461 0.99996 0.73144 0.0
O206 O 0.84996 0.07204 0.68268 0.0
O207 O 0.82605 0.05277 0.70875 0.0
In208 In 0.92579 0.10221 0.32309 0.0
O209 O 0.96461 0.09713 0.30419 0.0
O210 O 0.93683 0.10596 0.27386 0.0
C211 C 0.95488 0.10624 0.37878 0.0
C212 C 0.90145 0.1501 0.32614 0.0
C213 C 0.89627 0.04953 0.32032 0.0
O214 O 0.96132 0.09594 0.35492 0.0
O215 O 0.93459 0.11564 0.3746 0.0
O216 O 0.89952 0.06064 0.2981 0.0
O217 O 0.90633 0.0652 0.3436 0.0
C218 C 0.95927 0.10105 0.27804 0.0
O219 O 0.89004 0.12631 0.31895 0.0
O220 O 0.92514 0.15013 0.33129 0.0
In221 In 0.38719 0.74337 0.58591 0.0
O222 O 0.40582 0.70639 0.57963 0.0
O223 O 0.43053 0.74321 0.58737 0.0
C224 C 0.34678 0.70511 0.58096 0.0
C225 C 0.38228 0.77408 0.63853 0.0
C226 C 0.38197 0.76663 0.53654 0.0
O227 O 0.36433 0.70961 0.60253 0.0
O228 O 0.34958 0.71998 0.56206 0.0
O229 O 0.38051 0.77876 0.56187 0.0
O230 O 0.38757 0.74393 0.53662 0.0
C231 C 0.42826 0.71818 0.58175 0.0
O232 O 0.36604 0.76977 0.61567 0.0
O233 O 0.40201 0.76406 0.63475 0.0
In234 In 0.42607 0.60266 0.82146 0.0
O235 O 0.39028 0.62597 0.81312 0.0
O236 O 0.42356 0.64973 0.83452 0.0
C237 C 0.40313 0.54821 0.82321 0.0
C238 C 0.45183 0.60233 0.77004 0.0
C239 C 0.45821 0.60738 0.87504 0.0
O240 O 0.3904 0.56697 0.82235 0.0
O241 O 0.42611 0.55668 0.82206 0.0
O242 O 0.46538 0.60555 0.84995 0.0
O243 O 0.43472 0.60821 0.87376 0.0
C244 C 0.40056 0.6495 0.8245 0.0
O245 O 0.46232 0.61129 0.79618 0.0
O246 O 0.42835 0.59414 0.76946 0.0
In247 In 0.6715 0.02808 0.83105 0.0
O248 O 0.70452 1.00936 0.84883 0.0
O249 O 0.67254 0.98259 0.82555 0.0
C250 C 0.70012 0.07468 0.82974 0.0
C251 C 0.6494 0.02713 0.77433 0.0
C252 C 0.65117 0.03971 0.88174 0.0
O253 O 0.70883 0.05328 0.82693 0.0
O254 O 0.67731 0.0726 0.83408 0.0
O255 O 0.63734 0.02903 0.85763 0.0
O256 O 0.67453 0.04349 0.8801 0.0
C257 C 0.69474 0.9856 0.83961 0.0
O258 O 0.63637 0.02637 0.79533 0.0
O259 O 0.6724 0.02559 0.78162 0.0
In260 In 0.78476 0.65943 0.99369 0.0
O261 O 0.79243 0.61713 0.99389 0.0
O262 O 0.81299 0.6402 0.96804 0.0
C263 C 0.74018 0.65325 0.01527 0.0
C264 C 0.81557 0.68723 0.04182 0.0
C265 C 0.77856 0.68988 0.9519 0.0
O266 O 0.75887 0.67079 0.02646 0.0
O267 O 0.74341 0.63864 0.99202 0.0
O268 O 0.76217 0.66995 0.95257 0.0
O269 O 0.79789 0.69319 0.97108 0.0
C270 C 0.80972 0.61882 0.97788 0.0
O271 O 0.80841 0.69722 0.01973 0.0
O272 O 0.80762 0.6628 0.03943 0.0
In273 In 0.96357 0.64895 0.82772 0.0
O274 O 0.93564 0.67393 0.80853 0.0
O275 O 0.96499 0.69425 0.84193 0.0
C276 C 0.92206 0.614 0.8316 0.0
C277 C 0.98571 0.6371 0.77797 0.0
C278 C 0.99268 0.63696 0.87549 0.0
O279 O 0.9303 0.63397 0.85132 0.0
O280 O 0.93436 0.61222 0.81015 0.0
O281 O 0.98514 0.62134 0.85145 0.0
O282 O 0.98684 0.65968 0.87529 0.0
C283 C 0.94539 0.69561 0.82463 0.0
O284 O 0.9979 0.65251 0.80066 0.0
O285 O 0.96306 0.62902 0.78051 0.0
In286 In 0.75521 0.44875 0.59654 0.0
O287 O 0.76137 0.41426 0.62164 0.0
O288 O 0.75089 0.44822 0.64523 0.0
C289 C 0.75811 0.42542 0.53947 0.0
C290 C 0.71724 0.47866 0.59695 0.0
C291 C 0.80194 0.4774 0.61322 0.0
O292 O 0.74859 0.41215 0.55745 0.0
O293 O 0.76436 0.44963 0.54977 0.0
O294 O 0.78292 0.48764 0.60563 0.0
O295 O 0.79745 0.45278 0.61214 0.0
C296 C 0.75781 0.42613 0.64631 0.0
O297 O 0.74015 0.48714 0.59588 0.0
O298 O 0.71248 0.45393 0.59682 0.0
In299 In 0.70965 0.58293 0.35431 0.0
O300 O 0.74534 0.55938 0.36186 0.0
O301 O 0.7111 0.53533 0.34437 0.0
C302 C 0.73318 0.63737 0.35346 0.0
C303 C 0.6828 0.57582 0.29715 0.0
C304 C 0.67837 0.58484 0.40131 0.0
O305 O 0.74582 0.61986 0.36071 0.0
O306 O 0.70992 0.62775 0.34821 0.0
O307 O 0.67079 0.58261 0.37408 0.0
O308 O 0.70226 0.5859 0.40588 0.0
C309 C 0.7345 0.53564 0.35247 0.0
O310 O 0.67244 0.57665 0.32024 0.0
O311 O 0.70659 0.57706 0.30248 0.0
Nd312 Nd 0.08411 0.11565 0.09452 0.0
Nd313 Nd 0.05174 0.06976 0.08535 0.0
C314 C 0.11303 0.16304 0.10536 0.0
C315 C 0.11049 0.18507 0.08874 0.0
C316 C 0.08973 0.18269 0.06648 0.0
C317 C 0.08749 0.20247 0.04933 0.0
C318 C 0.10606 0.22524 0.05384 0.0
C319 C 0.12685 0.22772 0.07635 0.0
C320 C 0.12906 0.20778 0.09356 0.0
C321 C 0.08606 0.09213 0.03607 0.0
C322 C 1.02715 0.11932 0.06796 0.0
C323 C 1.0224 0.02289 0.07587 0.0
C324 C 1.02436 1.00114 0.09329 0.0
C325 C 0.04649 0.98964 0.09605 0.0
C326 C 0.04998 0.9724 0.11623 0.0
C327 C 1.03148 0.96621 0.13429 0.0
C328 C 1.00897 0.97701 0.13079 0.0
C329 C 1.00545 0.99421 0.11053 0.0
C330 C 0.04961 0.09441 0.14342 0.0
C331 C 0.10871 0.06548 0.11095 0.0
O332 O 0.09465 0.15657 0.12019 0.0
O333 O 0.11942 0.14227 0.09059 0.0
O334 O 0.08199 0.11591 0.04428 0.0
O335 O 0.08468 0.07986 0.05806 0.0
O336 O 0.04776 0.13238 0.08458 0.0
O337 O 1.0254 0.09352 0.05996 0.0
O338 O 0.04054 0.02864 0.06042 0.0
O339 O 1.01596 0.04409 0.0897 0.0
O340 O 0.05499 0.07095 0.13629 0.0
O341 O 0.05045 0.10568 0.12069 0.0
O342 O 0.08769 0.05237 0.09523 0.0
O343 O 0.11067 0.09135 0.11888 0.0
H344 H 0.07522 0.16537 0.06205 0.0
H345 H 0.07101 0.19997 0.03267 0.0
H346 H 0.14165 0.24486 0.08032 0.0
H347 H 0.14539 0.20997 0.11038 0.0
H348 H 0.0616 0.99465 0.08338 0.0
H349 H 0.06766 0.96472 0.11842 0.0
H350 H 0.99412 0.97238 0.14394 0.0
H351 H 0.98826 1.00282 0.10905 0.0
Nd352 Nd 0.32422 0.87292 0.35962 0.0
Nd353 Nd 0.31604 0.82405 0.32698 0.0
C354 C 0.32673 0.91858 0.39499 0.0
C355 C 0.3364 0.94582 0.39194 0.0
C356 C 0.333 0.95394 0.36433 0.0
C357 C 0.34595 0.97809 0.36025 0.0
C358 C 0.36272 0.99434 0.38361 0.0
C359 C 0.3651 0.98679 0.41159 0.0
C360 C 0.35198 0.96269 0.41573 0.0
C361 C 0.3711 0.86199 0.3439 0.0
C362 C 0.31724 0.87333 0.29105 0.0
C363 C 0.31298 0.77831 0.29102 0.0
C364 C 0.29528 0.75327 0.28562 0.0
C365 C 0.30334 0.72972 0.27455 0.0
C366 C 0.28767 0.70545 0.27293 0.0
C367 C 0.26377 0.70442 0.28255 0.0
C368 C 0.25548 0.72823 0.29266 0.0
C369 C 0.2711 0.75242 0.29416 0.0
C370 C 0.26874 0.83653 0.33986 0.0
C371 C 0.32563 0.8255 0.39628 0.0
O372 O 0.30632 0.90677 0.3772 0.0
O373 O 0.34391 0.90341 0.3973 0.0
O374 O 0.36187 0.88339 0.34119 0.0
O375 O 0.35456 0.84586 0.35255 0.0
O376 O 0.31444 0.88703 0.31622 0.0
O377 O 0.32273 0.84928 0.29025 0.0
O378 O 0.32648 0.78415 0.31703 0.0
O379 O 0.30407 0.7986 0.28302 0.0
O380 O 0.2766 0.81448 0.34288 0.0
O381 O 0.28656 0.85177 0.33231 0.0
O382 O 0.32992 0.81248 0.37136 0.0
O383 O 0.31715 0.84793 0.39589 0.0
H384 H 0.32133 0.9411 0.34552 0.0
H385 H 0.344 0.98329 0.33839 0.0
H386 H 0.37781 0.99911 0.42998 0.0
H387 H 0.35494 0.95665 0.43712 0.0
H388 H 0.32201 0.73007 0.26797 0.0
H389 H 0.29445 0.68747 0.26469 0.0
H390 H 0.23737 0.72818 0.30064 0.0
H391 H 0.2646 0.7704 0.30292 0.0
Nd392 Nd 0.59192 0.1024 0.58175 0.0
Nd393 Nd 0.54158 0.08587 0.58627 0.0
C394 C 0.63953 0.11448 0.57259 0.0
C395 C 0.66345 0.11869 0.59299 0.0
C396 C 0.68554 0.11227 0.58259 0.0
C397 C 0.70725 0.11229 0.60248 0.0
C398 C 0.70705 0.11841 0.63311 0.0
C399 C 0.6852 0.1259 0.64337 0.0
C400 C 0.66365 0.12621 0.62347 0.0
C401 C 0.58811 0.08367 0.6349 0.0
C402 C 0.56731 0.04394 0.54959 0.0
C403 C 0.49458 0.07283 0.59717 0.0
C404 C 0.46919 0.07236 0.58113 0.0
C405 C 0.44892 0.05344 0.58459 0.0
C406 C 0.42465 0.05287 0.56962 0.0
C407 C 0.42019 0.07135 0.55101 0.0
C408 C 0.44081 0.08986 0.54704 0.0
C409 C 0.4651 0.09026 0.56184 0.0
C410 C 0.54507 0.10465 0.53315 0.0
C411 C 0.56695 0.14438 0.62001 0.0
O412 O 0.6271 0.09038 0.56745 0.0
O413 O 0.6247 0.13202 0.57711 0.0
O414 O 0.60287 0.10457 0.6317 0.0
O415 O 0.57557 0.07284 0.6102 0.0
O416 O 0.58094 0.06564 0.54476 0.0
O417 O 0.55308 0.04589 0.5707 0.0
O418 O 0.50834 0.09605 0.60685 0.0
O419 O 0.5076 0.05576 0.58546 0.0
O420 O 0.52961 0.08431 0.53658 0.0
O421 O 0.55791 0.11536 0.55774 0.0
O422 O 0.55191 0.12289 0.62307 0.0
O423 O 0.58231 0.14265 0.60006 0.0
H424 H 0.68569 0.10621 0.55919 0.0
H425 H 0.72374 0.10612 0.59397 0.0
H426 H 0.68458 0.13085 0.66682 0.0
H427 H 0.64688 0.13146 0.63201 0.0
H428 H 0.45183 0.03919 0.59902 0.0
H429 H 0.40935 0.03806 0.57281 0.0
H430 H 0.4381 0.10461 0.53324 0.0
H431 H 0.4806 0.10481 0.55853 0.0
Nd432 Nd 0.32863 0.34613 0.86325 0.0
Nd433 Nd 0.30859 0.33818 0.81366 0.0
C434 C 0.33892 0.34893 0.92118 0.0
C435 C 0.33151 0.36359 0.94731 0.0
C436 C 0.33552 0.35477 0.97429 0.0
C437 C 0.33054 0.36972 0.9999 0.0
C438 C 0.32167 0.39382 0.99882 0.0
C439 C 0.31618 0.40175 0.97137 0.0
C440 C 0.32104 0.38667 0.94571 0.0
C441 C 0.34074 0.39507 0.84224 0.0
C442 C 0.26876 0.35592 0.8536 0.0
C443 C 0.29854 0.33373 0.75562 0.0
C444 C 0.30258 0.31369 0.73185 0.0
C445 C 0.29874 0.31775 0.70261 0.0
C446 C 0.30124 0.29785 0.67985 0.0
C447 C 0.30747 0.27369 0.6862 0.0
C448 C 0.31212 0.27008 0.71566 0.0
C449 C 0.3098 0.29005 0.73839 0.0
C450 C 0.29339 0.28963 0.83376 0.0
C451 C 0.36922 0.32996 0.8235 0.0
O452 O 0.32106 0.33165 0.90457 0.0
O453 O 0.35283 0.36273 0.90597 0.0
O454 O 0.3568 0.38233 0.8547 0.0
O455 O 0.31874 0.38086 0.83921 0.0
O456 O 0.28728 0.35138 0.87257 0.0
O457 O 0.27336 0.35566 0.82644 0.0
O458 O 0.31907 0.34777 0.77115 0.0
O459 O 0.28198 0.32571 0.77197 0.0
O460 O 0.27909 0.3035 0.82051 0.0
O461 O 0.31619 0.3027 0.83808 0.0
O462 O 0.35026 0.33365 0.80453 0.0
O463 O 0.36491 0.33062 0.85077 0.0
H464 H 0.34321 0.33673 0.9757 0.0
H465 H 0.33454 0.36296 0.02073 0.0
H466 H 0.30949 0.4203 0.96991 0.0
H467 H 0.31751 0.39348 0.92482 0.0
H468 H 0.29327 0.336 0.69738 0.0
H469 H 0.29726 0.30093 0.65724 0.0
H470 H 0.31706 0.25167 0.72103 0.0
H471 H 0.31305 0.28684 0.76104 0.0
Nd472 Nd 0.06092 0.11272 0.59931 0.0
Nd473 Nd 0.07332 0.05712 0.57695 0.0
C474 C 0.0508 0.15817 0.62459 0.0
C475 C 0.05279 0.18429 0.61534 0.0
C476 C 0.04011 0.18743 0.58805 0.0
C477 C 0.04614 0.21072 0.57686 0.0
C478 C 0.06515 0.23107 0.59255 0.0
C479 C 0.07681 0.22852 0.62051 0.0
C480 C 0.07052 0.20539 0.63191 0.0
C481 C 0.09945 0.11182 0.56524 0.0
C482 C 0.03843 0.08692 0.53139 0.0
C483 C 0.0913 1.01499 0.55515 0.0
C484 C 0.08603 0.98789 0.56177 0.0
C485 C 0.0735 0.96701 0.53961 0.0
C486 C 0.06423 0.94249 0.54679 0.0
C487 C 0.06746 0.9384 0.57626 0.0
C488 C 0.08103 0.95897 0.59815 0.0
C489 C 0.09017 0.9834 0.59103 0.0
C490 C 1.02924 0.05014 0.60189 0.0
C491 C 0.09301 0.08234 0.64686 0.0
O492 O 0.03312 0.13925 0.60953 0.0
O493 O 0.07258 0.15026 0.63053 0.0
O494 O 0.08384 0.12858 0.56466 0.0
O495 O 0.09551 0.09786 0.58466 0.0
O496 O 0.03362 0.10225 0.55499 0.0
O497 O 0.05578 0.07116 0.53413 0.0
O498 O 0.10419 0.03314 0.57653 0.0
O499 O 0.07205 0.02309 0.5412 0.0
O500 O 0.03989 0.03104 0.59056 0.0
O501 O 0.04202 0.07189 0.59995 0.0
O502 O 0.09594 0.06448 0.62437 0.0
O503 O 0.07838 0.10045 0.64287 0.0
H504 H 1.02648 0.17146 0.57463 0.0
H505 H 0.03698 0.2122 0.55518 0.0
H506 H 0.09134 0.24409 0.63313 0.0
H507 H 0.08055 0.2034 0.65298 0.0
H508 H 0.06995 0.97001 0.51692 0.0
H509 H 0.05409 0.92692 0.52939 0.0
H510 H 0.08356 0.95664 0.62112 0.0
H511 H 0.09945 0.9991 0.60877 0.0
Nd512 Nd 0.33857 0.85719 0.84955 0.0
Nd513 Nd 0.29432 0.82615 0.82406 0.0
C514 C 0.38013 0.89289 0.86097 0.0
C515 C 0.40703 0.89471 0.85859 0.0
C516 C 0.41596 0.8759 0.83918 0.0
C517 C 0.44201 0.876 0.84027 0.0
C518 C 0.45931 0.89469 0.86104 0.0
C519 C 0.45006 0.91415 0.87946 0.0
C520 C 0.42414 0.91417 0.87813 0.0
C521 C 0.30824 0.84912 0.89294 0.0
C522 C 0.34324 0.79338 0.83956 0.0
C523 C 0.25278 0.79031 0.81276 0.0
C524 C 0.22562 0.78769 0.81423 0.0
C525 C 0.2133 0.80974 0.81514 0.0
C526 C 0.18687 0.80631 0.81171 0.0
C527 C 0.17252 0.78079 0.80737 0.0
C528 C 0.18513 0.75899 0.80874 0.0
C529 C 0.21154 0.76244 0.81206 0.0
C530 C 0.32314 0.83612 0.78018 0.0
C531 C 0.29015 0.89038 0.8347 0.0
O532 O 0.36448 0.88897 0.83626 0.0
O533 O 0.3722 0.87874 0.88017 0.0
O534 O 0.33211 0.84699 0.89543 0.0
O535 O 0.30106 0.85383 0.8676 0.0
O536 O 0.35645 0.81775 0.84631 0.0
O537 O 0.31826 0.7915 0.83243 0.0
O538 O 0.26791 0.79494 0.83789 0.0
O539 O 0.26105 0.80406 0.79336 0.0
O540 O 0.29946 0.83876 0.7795 0.0
O541 O 0.33144 0.8302 0.80474 0.0
O542 O 0.27674 0.86601 0.82853 0.0
O543 O 0.31517 0.89207 0.84099 0.0
H544 H 0.40282 0.86064 0.82401 0.0
H545 H 0.44855 0.86092 0.82564 0.0
H546 H 0.4627 0.92847 0.8962 0.0
H547 H 0.41741 0.92866 0.89338 0.0
H548 H 0.22402 0.82941 0.81698 0.0
H549 H 0.17771 0.82347 0.81048 0.0
H550 H 0.17454 0.73916 0.80585 0.0
H551 H 0.22091 0.74527 0.81157 0.0
Nd552 Nd 0.53737 0.0894 0.05615 0.0
Nd553 Nd 0.59019 0.10226 0.09253 0.0
C554 C 0.49022 0.08902 0.03225 0.0
C555 C 0.46459 0.0823 0.03927 0.0
C556 C 0.44408 0.08901 0.02205 0.0
C557 C 0.41932 0.08074 0.02692 0.0
C558 C 0.41477 0.06554 0.04905 0.0
C559 C 0.43557 0.05969 0.06693 0.0
C560 C 0.4603 0.06809 0.06212 0.0
C561 C 0.56095 0.04663 0.06288 0.0
C562 C 0.5434 0.09664 0.12969 0.0
C563 C 0.63794 0.1032 0.11423 0.0
C564 C 0.6622 0.10726 0.1029 0.0
C565 C 0.68306 0.09778 0.116 0.0
C566 C 0.70689 0.10403 0.10738 0.0
C567 C 0.71019 0.12012 0.08574 0.0
C568 C 0.6888 0.12825 0.0715 0.0
C569 C 0.66499 0.12173 0.0799 0.0
C570 C 0.56667 0.14513 0.0865 0.0
C571 C 0.58379 0.09373 0.01905 0.0
O572 O 0.50437 0.10992 0.04865 0.0
O573 O 0.50242 0.06916 0.02697 0.0
O574 O 0.54705 0.04876 0.03872 0.0
O575 O 0.56077 0.06603 0.08275 0.0
O576 O 0.52844 0.09469 0.10426 0.0
O577 O 0.56805 0.09663 0.13098 0.0
O578 O 0.6225 0.0813 0.10262 0.0
O579 O 0.62651 0.12383 0.11755 0.0
O580 O 0.58073 0.14274 0.11041 0.0
O581 O 0.56665 0.12587 0.06628 0.0
O582 O 0.5984 0.09363 0.04416 0.0
O583 O 0.55989 0.0969 0.01864 0.0
H584 H 0.4472 0.10013 1.00441 0.0
H585 H 0.40373 0.08586 1.01307 0.0
H586 H 0.43276 0.0477 0.08387 0.0
H587 H 0.47602 0.06282 0.07563 0.0
H588 H 0.68109 0.08624 0.1335 0.0
H589 H 0.72286 0.09697 0.11833 0.0
H590 H 0.69061 0.14084 0.05496 0.0
H591 H 0.64894 0.12893 0.06927 0.0
Nd592 Nd 0.30835 0.32597 0.30093 0.0
Nd593 Nd 0.33222 0.35731 0.35773 0.0
C594 C 0.27864 0.30549 0.25146 0.0
C595 C 0.25181 0.29541 0.25338 0.0
C596 C 0.23334 0.31101 0.24647 0.0
C597 C 0.21377 0.31309 0.26365 0.0
C598 C 0.21292 0.29991 0.28798 0.0
C599 C 0.22805 0.28035 0.29079 0.0
C600 C 0.24699 0.27763 0.27306 0.0
C601 C 0.30138 0.29859 0.34626 0.0
C602 C 0.2762 0.36817 0.33521 0.0
C603 C 0.35673 0.38065 0.40905 0.0
C604 C 0.38491 0.38612 0.41225 0.0
C605 C 0.3981 0.3649 0.415 0.0
C606 C 0.41697 0.36052 0.39744 0.0
C607 C 0.42323 0.37771 0.37759 0.0
C608 C 0.41537 0.40261 0.38196 0.0
C609 C 0.39636 0.40687 0.39939 0.0
C610 C 0.35095 0.3756 0.30986 0.0
C611 C 0.36184 0.3136 0.32639 0.0
O612 O 0.28528 0.33103 0.25953 0.0
O613 O 0.29539 0.29278 0.26318 0.0
O614 O 0.30655 0.2887 0.3209 0.0
O615 O 0.29964 0.32282 0.34771 0.0
O616 O 0.27593 0.34867 0.31314 0.0
O617 O 0.29583 0.37533 0.35624 0.0
O618 O 0.34667 0.35551 0.40427 0.0
O619 O 0.34496 0.39378 0.39116 0.0
O620 O 0.36487 0.37455 0.3342 0.0
O621 O 0.32826 0.36759 0.31176 0.0
O622 O 0.35477 0.3233 0.35148 0.0
O623 O 0.34948 0.31719 0.30119 0.0
H624 H 0.23623 0.32459 0.23108 0.0
H625 H 0.20174 0.32778 0.26052 0.0
H626 H 0.2271 0.26923 0.30877 0.0
H627 H 0.26023 0.26455 0.27829 0.0
H628 H 0.39087 0.34922 0.42634 0.0
H629 H 0.42392 0.34198 0.39693 0.0
H630 H 0.42153 0.41763 0.36928 0.0
H631 H 0.38779 0.42444 0.39842 0.0
Nd632 Nd 0.56639 0.62414 0.10434 0.0
Nd633 Nd 0.56824 0.57171 0.07739 0.0
C634 C 0.55878 0.67261 0.12342 0.0
C635 C 0.56653 0.69829 0.11418 0.0
C636 C 0.55594 0.70369 0.08694 0.0
C637 C 0.56563 0.72659 0.07686 0.0
C638 C 0.58614 0.74454 0.09374 0.0
C639 C 0.59618 0.73959 0.12139 0.0
C640 C 0.58636 0.71676 0.13158 0.0
C641 C 0.60958 0.62054 0.07804 0.0
C642 C 0.5381 0.60418 0.03565 0.0
C643 C 0.57807 0.52409 0.05848 0.0
C644 C 0.57662 0.49975 0.0713 0.0
C645 C 0.56399 0.47584 0.05413 0.0
C646 C 0.55881 0.45337 0.06708 0.0
C647 C 0.56635 0.45446 0.0974 0.0
C648 C 0.57987 0.47816 0.11433 0.0
C649 C 0.58483 0.50067 0.10145 0.0
C650 C 0.52454 0.57571 0.10199 0.0
C651 C 0.59279 0.59044 0.14782 0.0
O652 O 0.54186 0.65514 0.10525 0.0
O653 O 0.57724 0.6621 0.13525 0.0
O654 O 0.60925 0.6342 0.10361 0.0
O655 O 0.58757 0.6095 0.06665 0.0
O656 O 0.53674 0.61845 0.06149 0.0
O657 O 0.55391 0.58689 0.0347 0.0
O658 O 0.59569 0.54393 0.07124 0.0
O659 O 0.55625 0.53139 0.0516 0.0
O660 O 0.5252 0.5621 0.07646 0.0
O661 O 0.54643 0.58631 0.11436 0.0
O662 O 0.59537 0.57593 0.12257 0.0
O663 O 0.57745 0.60808 0.14708 0.0
H664 H 0.54068 0.68988 0.07293 0.0
H665 H 0.55764 0.72976 0.05534 0.0
H666 H 0.61175 0.75326 0.13503 0.0
H667 H 0.59479 0.71315 0.15273 0.0
H668 H 0.5573 0.47481 0.0309 0.0
H669 H 0.54857 0.43527 0.0535 0.0
H670 H 0.58568 0.47962 0.13781 0.0
H671 H 0.59425 0.51898 0.11531 0.0
Nd672 Nd 0.84123 0.36099 0.34871 0.0
Nd673 Nd 0.7965 0.32648 0.33472 0.0
C674 C 0.88711 0.38936 0.35608 0.0
C675 C 0.91388 0.38734 0.35657 0.0
C676 C 0.9217 0.36399 0.34437 0.0
C677 C 0.94724 0.36129 0.34951 0.0
C678 C 0.96509 0.38177 0.3673 0.0
C679 C 0.95712 0.40558 0.3781 0.0
C680 C 0.93175 0.40832 0.37267 0.0
C681 C 0.81383 0.36439 0.39575 0.0
C682 C 0.84484 0.29488 0.34455 0.0
C683 C 0.75037 0.29923 0.32928 0.0
C684 C 0.72443 0.30315 0.33235 0.0
C685 C 0.71605 0.32661 0.32705 0.0
C686 C 0.69024 0.32804 0.32429 0.0
C687 C 0.67259 0.30604 0.32686 0.0
C688 C 0.68139 0.28354 0.33499 0.0
C689 C 0.70718 0.28209 0.33759 0.0
C690 C 0.82327 0.325 0.28718 0.0
C691 C 0.7928 0.39219 0.33732 0.0
O692 O 0.87244 0.38329 0.33062 0.0
O693 O 0.87658 0.38057 0.37743 0.0
O694 O 0.82544 0.3842 0.38616 0.0
O695 O 0.81701 0.34273 0.3808 0.0
O696 O 0.85727 0.3195 0.34616 0.0
O697 O 0.81981 0.2922 0.34288 0.0
O698 O 0.7665 0.30306 0.35352 0.0
O699 O 0.75995 0.30857 0.30759 0.0
O700 O 0.81249 0.30444 0.29625 0.0
O701 O 0.81978 0.34603 0.30294 0.0
O702 O 0.78041 0.36773 0.33654 0.0
O703 O 0.81784 0.39485 0.33886 0.0
H704 H 0.90797 0.34755 0.33195 0.0
H705 H 0.95282 0.34285 0.34053 0.0
H706 H 0.97011 0.42159 0.39233 0.0
H707 H 0.92586 0.42638 0.38242 0.0
H708 H 0.72922 0.34314 0.32318 0.0
H709 H 0.68402 0.34557 0.31784 0.0
H710 H 0.66818 0.26647 0.33751 0.0
H711 H 0.71348 0.26396 0.34201 0.0
Nd712 Nd 0.05287 0.56283 0.57339 0.0
Nd713 Nd 0.09706 0.6038 0.59158 0.0
C714 C 1.00945 0.53031 0.56271 0.0
C715 C 0.98685 0.52612 0.57697 0.0
C716 C 0.97992 0.5467 0.59605 0.0
C717 C 0.95911 0.54166 0.61092 0.0
C718 C 0.94538 0.51594 0.60712 0.0
C719 C 0.95265 0.49545 0.5882 0.0
C720 C 0.97324 0.50053 0.57324 0.0
C721 C 0.09726 0.54263 0.57454 0.0
C722 C 0.05969 0.59616 0.64112 0.0
C723 C 0.14099 0.63153 0.61797 0.0
C724 C 0.16766 0.63023 0.61636 0.0
C725 C 0.18602 0.64443 0.63926 0.0
C726 C 0.21165 0.64453 0.63735 0.0
C727 C 0.21917 0.63046 0.6124 0.0
C728 C 0.2006 0.61514 0.59013 0.0
C729 C 0.17493 0.61493 0.59216 0.0
C730 C 0.05553 0.6231 0.5679 0.0
C731 C 0.08565 0.57789 0.52298 0.0
O732 O 1.01325 0.55182 0.551 0.0
O733 O 1.02994 0.52522 0.57743 0.0
O734 O 0.078 0.53476 0.55419 0.0
O735 O 0.09289 0.56039 0.59423 0.0
O736 O 0.04736 0.57523 0.62232 0.0
O737 O 0.07893 0.61131 0.63383 0.0
O738 O 0.12879 0.61221 0.62838 0.0
O739 O 0.12805 0.63757 0.59493 0.0
O740 O 0.07849 0.63012 0.56269 0.0
O741 O 0.05533 0.6067 0.58541 0.0
O742 O 0.10413 0.5869 0.5452 0.0
O743 O 0.06198 0.57226 0.52818 0.0
H744 H 0.99062 0.56653 0.5995 0.0
H745 H 0.95376 0.55775 0.62533 0.0
H746 H 0.94204 0.47557 0.58441 0.0
H747 H 0.97861 0.48444 0.55883 0.0
H748 H 0.18056 0.65606 0.65821 0.0
H749 H 0.22557 0.65682 0.65461 0.0
H750 H 0.20596 0.60408 0.57074 0.0
H751 H 0.1608 0.60347 0.57454 0.0
Nd752 Nd 0.82942 0.84688 0.36238 0.0
Nd753 Nd 0.80863 0.83714 0.31081 0.0
C754 C 0.83899 0.84977 0.42028 0.0
C755 C 0.83118 0.86433 0.44647 0.0
C756 C 0.81881 0.85027 0.46572 0.0
C757 C 0.812 0.86367 0.49125 0.0
C758 C 0.81771 0.89139 0.4981 0.0
C759 C 0.82943 0.90543 0.47827 0.0
C760 C 0.83599 0.89205 0.45263 0.0
C761 C 0.84167 0.89492 0.34012 0.0
C762 C 0.76823 0.85389 0.35137 0.0
C763 C 0.79795 0.83228 0.25259 0.0
C764 C 0.80948 0.8211 0.22757 0.0
C765 C 0.80172 0.82619 0.19938 0.0
C766 C 0.81147 0.81424 0.17512 0.0
C767 C 0.82925 0.79713 0.17879 0.0
C768 C 0.8378 0.79308 0.20739 0.0
C769 C 0.82785 0.80484 0.23157 0.0
C770 C 0.79712 0.78982 0.33438 0.0
C771 C 0.86985 0.83073 0.32187 0.0
O772 O 0.82144 0.8322 0.40345 0.0
O773 O 0.85344 0.86325 0.40525 0.0
O774 O 0.85711 0.88324 0.35515 0.0
O775 O 0.8196 0.88037 0.33625 0.0
O776 O 0.78778 0.85228 0.37086 0.0
O777 O 0.77178 0.8512 0.32364 0.0
O778 O 0.81118 0.85333 0.26931 0.0
O779 O 0.78798 0.81542 0.26783 0.0
O780 O 0.78082 0.80188 0.32122 0.0
O781 O 0.81913 0.80408 0.33679 0.0
O782 O 0.8508 0.83403 0.30269 0.0
O783 O 0.86565 0.83158 0.34926 0.0
H784 H 0.81471 0.82887 0.4612 0.0
H785 H 0.80273 0.85232 0.5059 0.0
H786 H 0.83454 0.92675 0.48308 0.0
H787 H 0.84532 0.90344 0.43804 0.0
H788 H 0.78757 0.83875 0.19601 0.0
H789 H 0.80413 0.81743 0.15336 0.0
H790 H 0.85163 0.78022 0.21099 0.0
H791 H 0.83398 0.80065 0.25325 0.0
Nd792 Nd 0.82567 0.371 0.85735 0.0
Nd793 Nd 0.81499 0.32136 0.82381 0.0
C794 C 0.82907 0.41647 0.8938 0.0
C795 C 0.82771 0.44414 0.89144 0.0
C796 C 0.81706 0.45094 0.86506 0.0
C797 C 0.82118 0.47721 0.86063 0.0
C798 C 0.83636 0.497 0.88234 0.0
C799 C 0.84527 0.49028 0.90961 0.0
C800 C 0.84098 0.46407 0.91407 0.0
C801 C 0.87114 0.35462 0.84434 0.0
C802 C 0.81586 0.37045 0.7882 0.0
C803 C 0.81295 0.27695 0.78631 0.0
C804 C 0.80842 0.2487 0.78798 0.0
C805 C 0.81851 0.23922 0.813 0.0
C806 C 0.81041 0.21321 0.81649 0.0
C807 C 0.7919 0.19666 0.79525 0.0
C808 C 0.78286 0.20571 0.76956 0.0
C809 C 0.79121 0.23155 0.76587 0.0
C810 C 0.76915 0.33693 0.83655 0.0
C811 C 0.82372 0.32022 0.89283 0.0
O812 O 0.80818 0.39926 0.88655 0.0
O813 O 0.84831 0.40775 0.88348 0.0
O814 O 0.86476 0.37719 0.84034 0.0
O815 O 0.85261 0.34068 0.85244 0.0
O816 O 0.81274 0.38407 0.81341 0.0
O817 O 0.82253 0.34704 0.78809 0.0
O818 O 0.8341 0.2909 0.80069 0.0
O819 O 0.79353 0.28894 0.7894 0.0
O820 O 0.77572 0.31429 0.83988 0.0
O821 O 0.78769 0.35142 0.82897 0.0
O822 O 0.8221 0.30552 0.86681 0.0
O823 O 0.82289 0.34575 0.89489 0.0
H824 H 0.80685 0.43577 0.84726 0.0
H825 H 0.81364 0.48177 0.83959 0.0
H826 H 0.85722 0.50485 0.92673 0.0
H827 H 0.84952 0.4591 0.93448 0.0
H828 H 0.83162 0.25223 0.83051 0.0
H829 H 0.81729 0.2066 0.83662 0.0
H830 H 0.76844 0.19317 0.75306 0.0
H831 H 0.78315 0.23859 0.74653 0.0
Nd832 Nd 0.79499 0.81497 0.79927 0.0
Nd833 Nd 0.82976 0.8511 0.84683 0.0
C834 C 0.76304 0.78428 0.75676 0.0
C835 C 0.73574 0.77937 0.76003 0.0
C836 C 0.72134 0.79938 0.75603 0.0
C837 C 0.70458 0.80574 0.77575 0.0
C838 C 0.70181 0.79195 0.79961 0.0
C839 C 0.71071 0.76753 0.79778 0.0
C840 C 0.72761 0.76129 0.77812 0.0
C841 C 0.78965 0.80361 0.85478 0.0
C842 C 0.77255 0.8646 0.83123 0.0
C843 C 0.86177 0.87961 0.8909 0.0
C844 C 0.8894 0.88062 0.89048 0.0
C845 C 0.89953 0.85727 0.89175 0.0
C846 C 0.91707 0.85052 0.87327 0.0
C847 C 0.92508 0.86725 0.85361 0.0
C848 C 0.92004 0.89338 0.85864 0.0
C849 C 0.90226 0.90002 0.87697 0.0
C850 C 0.83512 0.86406 0.79214 0.0
C851 C 0.85204 0.8022 0.81253 0.0
O852 O 0.7723 0.80861 0.75464 0.0
O853 O 0.77798 0.77474 0.77539 0.0
O854 O 0.77078 0.80325 0.83457 0.0
O855 O 0.81021 0.8099 0.84536 0.0
O856 O 0.77081 0.84741 0.80677 0.0
O857 O 0.79198 0.86708 0.8525 0.0
O858 O 0.84894 0.85673 0.89321 0.0
O859 O 0.85039 0.89019 0.8702 0.0
O860 O 0.85386 0.86241 0.81173 0.0
O861 O 0.81438 0.85677 0.80095 0.0
O862 O 0.85357 0.81791 0.8381 0.0
O863 O 0.83309 0.80157 0.79133 0.0
H864 H 0.7259 0.81281 0.7409 0.0
H865 H 0.69638 0.82323 0.77367 0.0
H866 H 0.70684 0.75431 0.81322 0.0
H867 H 0.73713 0.74452 0.78041 0.0
H868 H 0.89112 0.84233 0.90333 0.0
H869 H 0.92179 0.83096 0.87244 0.0
H870 H 0.92772 0.90804 0.84635 0.0
H871 H 0.89585 0.91887 0.8768 0.0
Nd872 Nd 0.58394 0.6154 0.59377 0.0
Nd873 Nd 0.55189 0.57042 0.58162 0.0
C874 C 0.61109 0.66366 0.60724 0.0
C875 C 0.60931 0.68558 0.5902 0.0
C876 C 0.62716 0.70894 0.5966 0.0
C877 C 0.62513 0.72923 0.5798 0.0
C878 C 0.60524 0.72652 0.55615 0.0
C879 C 0.58744 0.70304 0.54998 0.0
C880 C 0.58949 0.68291 0.56672 0.0
C881 C 0.58775 0.59297 0.53519 0.0
C882 C 0.52842 0.61896 0.56376 0.0
C883 C 0.53073 0.51974 0.57079 0.0
C884 C 0.5348 0.49775 0.58734 0.0
C885 C 0.55511 0.48378 0.58372 0.0
C886 C 0.55975 0.46448 0.60103 0.0
C887 C 0.54432 0.45876 0.62252 0.0
C888 C 0.52387 0.47249 0.62587 0.0
C889 C 0.51909 0.49157 0.60842 0.0
C890 C 0.53828 0.5976 0.63277 0.0
C891 C 0.60676 0.56635 0.61516 0.0
O892 O 0.59116 0.65632 0.61933 0.0
O893 O 0.61964 0.64337 0.59428 0.0
O894 O 0.58214 0.6162 0.54303 0.0
O895 O 0.58634 0.58098 0.55719 0.0
O896 O 0.54683 0.6306 0.5845 0.0
O897 O 0.52817 0.5939 0.55278 0.0
O898 O 0.549 0.52924 0.55728 0.0
O899 O 0.52041 0.53845 0.58407 0.0
O900 O 0.52317 0.58688 0.60886 0.0
O901 O 0.56149 0.5965 0.62835 0.0
O902 O 0.58283 0.55543 0.60978 0.0
O903 O 0.61316 0.591 0.61155 0.0
H904 H 0.64269 0.71146 0.61448 0.0
H905 H 0.63934 0.7469 0.5851 0.0
H906 H 0.57161 0.7003 0.53243 0.0
H907 H 0.57542 0.66519 0.56127 0.0
H908 H 0.5677 0.48803 0.56785 0.0
H909 H 0.57576 0.45439 0.59799 0.0
H910 H 0.51137 0.46831 0.64186 0.0
H911 H 0.50321 0.50179 0.61176 0.0
Nd912 Nd 0.08784 0.60349 0.08375 0.0
Nd913 Nd 0.03863 0.57863 0.08394 0.0
C914 C 0.13475 0.62232 0.07639 0.0
C915 C 0.15992 0.62379 0.09359 0.0
C916 C 0.18094 0.6215 0.07885 0.0
C917 C 0.20454 0.62054 0.09457 0.0
C918 C 0.2076 0.62187 0.12544 0.0
C919 C 0.18653 0.62468 0.14021 0.0
C920 C 0.1629 0.62558 0.12442 0.0
C921 C 0.08477 0.5797 0.13372 0.0
C922 C 0.07048 0.545 0.04546 0.0
C923 C 0.99211 0.55938 0.09229 0.0
C924 C 0.96687 0.5538 0.07449 0.0
C925 C 0.9454 0.55503 0.08863 0.0
C926 C 0.92158 0.5534 0.07215 0.0
C927 C 0.91878 0.5505 0.04115 0.0
C928 C 0.94025 0.54795 0.02699 0.0
C929 C 0.96412 0.5497 0.04354 0.0
C930 C 0.0415 0.60048 0.03283 0.0
C931 C 0.05686 0.63691 0.12305 0.0
O932 O 0.12315 0.5986 0.06462 0.0
O933 O 0.11953 0.63697 0.08801 0.0
O934 O 0.09813 0.60226 0.13326 0.0
O935 O 0.07437 0.56943 0.10797 0.0
O936 O 0.08255 0.56878 0.04468 0.0
O937 O 0.05444 0.54228 0.06448 0.0
O938 O 1.00206 0.5843 0.09943 0.0
O939 O 1.00854 0.54459 0.08419 0.0
O940 O 1.02942 0.57745 0.03409 0.0
O941 O 0.05178 0.61202 0.05843 0.0
O942 O 0.045 0.61302 0.1238 0.0
O943 O 0.0721 0.6398 0.10324 0.0
H944 H 0.17897 0.61979 0.05505 0.0
H945 H 0.22018 0.61786 0.08236 0.0
H946 H 0.18823 0.62601 0.16394 0.0
H947 H 0.14689 0.62723 0.13628 0.0
H948 H 0.94723 0.55839 0.11251 0.0
H949 H 0.90562 0.5559 0.08388 0.0
H950 H 0.93874 0.54545 1.00318 0.0
H951 H 0.98051 0.54874 0.0322 0.0
H952 H 0.09759 0.3269 0.99467 0.0
H953 H 0.07056 0.26745 0.91738 0.0
H954 H 0.07663 0.23267 0.94672 0.0
H955 H 0.0896 0.21918 0.99443 0.0
H956 H 0.11639 0.27894 0.0716 0.0
H957 H 0.11084 0.31349 0.04208 0.0
C958 C 0.09298 0.30633 0.98419 0.0
C959 C 0.08352 0.29983 0.95382 0.0
C960 C 0.09664 0.28646 1.00117 0.0
C961 C 0.07781 0.27305 0.94067 0.0
C962 C 0.0813 0.25315 0.95746 0.0
C963 C 0.09408 0.23975 1.00489 0.0
C964 C 0.1034 0.24632 0.03536 0.0
C965 C 0.09066 0.25962 0.98776 0.0
C966 C 0.1095 0.27318 0.04824 0.0
C967 C 0.10615 0.293 0.03138 0.0
H968 H 0.15707 0.86256 0.30082 0.0
H969 H 0.1346 0.78658 0.32525 0.0
H970 H 0.1791 0.78336 0.33975 0.0
H971 H 0.22539 0.80122 0.34436 0.0
H972 H 0.24795 0.87741 0.32051 0.0
H973 H 0.20337 0.88126 0.30735 0.0
C974 C 0.16179 0.84537 0.30959 0.0
C975 C 0.1418 0.82487 0.31187 0.0
C976 C 0.18793 0.84354 0.31804 0.0
C977 C 0.14899 0.80282 0.3232 0.0
C978 C 0.17471 0.80089 0.33149 0.0
C979 C 0.22065 0.81881 0.33651 0.0
C980 C 0.24065 0.83902 0.33363 0.0
C981 C 0.1945 0.821 0.32887 0.0
C982 C 0.23349 0.86148 0.3232 0.0
C983 C 0.20775 0.86369 0.31553 0.0
H984 H 0.56155 0.92415 0.49165 0.0
H985 H 0.59473 0.96054 0.42437 0.0
H986 H 0.59507 1.00442 0.45281 0.0
H987 H 0.58556 0.03267 0.49694 0.0
H988 H 0.55053 0.99565 0.56276 0.0
H989 H 0.5513 0.9521 0.53488 0.0
C990 C 0.56894 0.94167 0.48323 0.0
C991 C 0.57821 0.93899 0.45593 0.0
C992 C 0.5687 0.96686 0.49949 0.0
C993 C 0.58748 0.96198 0.44528 0.0
C994 C 0.58769 0.98711 0.46157 0.0
C995 C 0.57816 1.01507 0.5052 0.0
C996 C 0.56805 1.01757 0.53203 0.0
C997 C 0.57831 0.98985 0.48873 0.0
C998 C 0.55836 0.99446 0.54221 0.0
C999 C 0.55882 0.96945 0.52627 0.0
H1000 H 0.46852 0.31627 0.76103 0.0
H1001 H 0.50525 0.33357 0.85121 0.0
H1002 H 0.46411 0.33624 0.86829 0.0
H1003 H 0.41688 0.33428 0.8579 0.0
H1004 H 0.38085 0.31861 0.76736 0.0
H1005 H 0.42175 0.31471 0.75066 0.0
C1006 C 0.46765 0.32057 0.78448 0.0
C1007 C 0.49057 0.32459 0.80465 0.0
C1008 C 0.44361 0.3224 0.79429 0.0
C1009 C 0.48843 0.33031 0.83493 0.0
C1010 C 0.46467 0.33185 0.84478 0.0
C1011 C 0.41784 0.32982 0.83449 0.0
C1012 C 0.39511 0.3266 0.81409 0.0
C1013 C 0.44198 0.32797 0.82474 0.0
C1014 C 0.39748 0.32118 0.78384 0.0
C1015 C 0.42111 0.31895 0.77416 0.0
H1016 H 0.99933 0.83985 0.60858 0.0
H1017 H 0.06798 0.84121 0.66781 0.0
H1018 H 0.08918 0.87812 0.64832 0.0
H1019 H 0.08821 0.91066 0.61539 0.0
H1020 H 1.01975 0.9105 0.55652 0.0
H1021 H 0.99878 0.87212 0.5743 0.0
C1022 C 1.0189 0.84829 0.61719 0.0
C1023 C 1.03198 0.8379 0.63973 0.0
C1024 C 1.03113 0.86956 0.60576 0.0
C1025 C 0.05742 0.84887 0.65053 0.0
C1026 C 0.06962 0.86998 0.63937 0.0
C1027 C 0.06868 0.90226 0.60646 0.0
C1028 C 0.05556 0.91352 0.58478 0.0
C1029 C 0.05664 0.88056 0.61712 0.0
C1030 C 1.0304 0.90205 0.57302 0.0
C1031 C 1.01831 0.88026 0.58338 0.0
H1032 H 0.5633 0.86609 0.9093 0.0
H1033 H 0.58209 0.95116 0.92912 0.0
H1034 H 0.54209 0.95501 0.90038 0.0
H1035 H 0.49999 0.93423 0.87486 0.0
H1036 H 0.47954 0.84922 0.86029 0.0
H1037 H 0.52243 0.84528 0.88035 0.0
C1038 C 0.55876 0.88546 0.90699 0.0
C1039 C 0.57531 0.9083 0.92156 0.0
C1040 C 0.53552 0.88751 0.89117 0.0
C1041 C 0.56938 0.93329 0.91834 0.0
C1042 C 0.54659 0.93551 0.90189 0.0
C1043 C 0.50497 0.91483 0.87588 0.0
C1044 C 0.48644 0.89213 0.86655 0.0
C1045 C 0.5292 0.91274 0.88902 0.0
C1046 C 0.4934 0.86707 0.86714 0.0
C1047 C 0.51786 0.86479 0.87902 0.0
H1048 H 0.50695 0.23985 0.09898 0.0
H1049 H 0.47676 0.19783 0.16416 0.0
H1050 H 0.49701 0.16035 0.14718 0.0
H1051 H 0.5303 0.14432 0.12142 0.0
H1052 H 0.5598 0.18449 0.05485 0.0
H1053 H 0.53301 0.21843 0.065 0.0
C1054 C 0.50404 0.22209 0.10871 0.0
C1055 C 0.49079 0.22181 0.13319 0.0
C1056 C 0.51615 0.20075 0.09915 0.0
C1057 C 0.48693 0.19861 0.14541 0.0
C1058 C 0.49879 0.17728 0.13594 0.0
C1059 C 0.53013 0.15983 0.10828 0.0
C1060 C 0.54691 0.16199 0.08745 0.0
C1061 C 0.51452 0.17882 0.11399 0.0
C1062 C 0.5469 0.18251 0.07093 0.0
C1063 C 0.53167 0.20189 0.07683 0.0
H1064 H 0.14997 0.34779 0.38285 0.0
H1065 H 0.22156 0.35531 0.43893 0.0
H1066 H 0.24018 0.3356 0.39675 0.0
H1067 H 0.23559 0.31555 0.34427 0.0
H1068 H 0.16427 0.30948 0.28826 0.0
H1069 H 0.14582 0.32934 0.33041 0.0
C1070 C 0.16969 0.34515 0.38593 0.0
C1071 C 0.18435 0.35278 0.41405 0.0
C1072 C 0.18012 0.3339 0.36173 0.0
C1073 C 0.20991 0.34954 0.41754 0.0
C1074 C 0.22048 0.3382 0.39348 0.0
C1075 C 0.21587 0.31821 0.34145 0.0
C1076 C 0.201 0.31047 0.31343 0.0
C1077 C 0.20565 0.33006 0.36558 0.0
C1078 C 0.17584 0.31492 0.30972 0.0
C1079 C 0.16539 0.32633 0.33375 0.0
H1080 H 0.96372 0.12378 0.22562 0.0
H1081 H 0.99756 0.07171 0.27695 0.0
H1082 H 1.02738 0.0651 0.24177 0.0
H1083 H 0.04465 0.07323 0.19541 0.0
H1084 H 1.01361 0.12787 0.14564 0.0
H1085 H 0.98306 0.13417 0.18037 0.0
C1086 C 0.97755 0.11093 0.22924 0.0
C1087 C 0.97763 0.09812 0.25463 0.0
C1088 C 0.99574 0.10765 0.20879 0.0
C1089 C 0.99641 0.08194 0.25822 0.0
C1090 C 1.01374 0.07809 0.23782 0.0
C1091 C 1.03143 0.08678 0.19214 0.0
C1092 C 1.03212 0.10006 0.16723 0.0
C1093 C 1.01377 0.09076 0.2129 0.0
C1094 C 1.01429 0.11739 0.16419 0.0
C1095 C 0.99646 0.12093 0.18425 0.0
H1096 H 0.35566 0.80706 0.52772 0.0
H1097 H 0.39162 0.74726 0.48194 0.0
H1098 H 0.37664 0.75931 0.43474 0.0
H1099 H 0.35269 0.78621 0.40604 0.0
H1100 H 0.3164 0.846 0.4513 0.0
H1101 H 0.33176 0.83439 0.49874 0.0
C1102 C 0.36048 0.79692 0.50744 0.0
C1103 C 0.37493 0.77638 0.50849 0.0
C1104 C 0.35138 0.80367 0.4801 0.0
C1105 C 0.38065 0.76321 0.48188 0.0
C1106 C 0.37197 0.77 0.45479 0.0
C1107 C 0.3479 0.79656 0.42623 0.0
C1108 C 0.33318 0.81684 0.42491 0.0
C1109 C 0.35709 0.79 0.45356 0.0
C1110 C 0.32753 0.83021 0.45148 0.0
C1111 C 0.33644 0.82366 0.47872 0.0
H1112 H 0.60037 0.02966 0.74935 0.0
H1113 H 0.67834 0.04157 0.73366 0.0
H1114 H 0.6663 0.05954 0.68951 0.0
H1115 H 0.63437 0.07478 0.65667 0.0
H1116 H 0.55582 0.06042 0.66865 0.0
H1117 H 0.56718 0.04058 0.71248 0.0
C1118 C 0.61463 0.0358 0.736 0.0
C1119 C 0.64032 0.03425 0.74515 0.0
C1120 C 0.6075 0.04598 0.70996 0.0
C1121 C 0.65846 0.04234 0.72738 0.0
C1122 C 0.65163 0.05284 0.70207 0.0
C1123 C 0.6197 0.06707 0.66874 0.0
C1124 C 0.59431 0.06926 0.65961 0.0
C1125 C 0.62633 0.0552 0.69341 0.0
C1126 C 0.57549 0.05895 0.67525 0.0
C1127 C 0.58203 0.04768 0.70038 0.0
H1128 H 0.31259 0.4831 0.10392 0.0
H1129 H 0.38558 0.46416 0.13496 0.0
H1130 H 0.38119 0.4291 0.09266 0.0
H1131 H 0.35812 0.40558 0.04581 0.0
H1132 H 0.28546 0.42398 1.01309 0.0
H1133 H 0.28822 0.45763 0.05714 0.0
C1134 C 0.32742 0.47118 0.1014 0.0
C1135 C 0.34942 0.47629 0.12236 0.0
C1136 C 0.32488 0.45106 0.0768 0.0
C1137 C 0.36852 0.46072 0.11898 0.0
C1138 C 0.36604 0.44063 0.09484 0.0
C1139 C 0.34258 0.4165 0.04858 0.0
C1140 C 0.32154 0.4122 0.02643 0.0
C1141 C 0.34446 0.43583 0.07353 0.0
C1142 C 0.30189 0.42704 0.02993 0.0
C1143 C 0.30347 0.44623 0.05504 0.0
H1144 H 0.99454 0.07987 0.39458 0.0
H1145 H 0.94684 0.13187 0.4323 0.0
H1146 H 0.9679 0.13086 0.48186 0.0
H1147 H 0.99981 0.11484 0.51541 0.0
H1148 H 0.04674 0.0619 0.47759 0.0
H1149 H 1.02628 0.06368 0.42812 0.0
C1150 C 0.9888 0.09114 0.41359 0.0
C1151 C 0.96898 0.10609 0.4092 0.0
C1152 C 1.00092 0.09021 0.44248 0.0
C1153 C 0.96192 0.12024 0.43453 0.0
C1154 C 0.97402 0.11964 0.46311 0.0
C1155 C 1.00562 0.10363 0.49642 0.0
C1156 C 1.02506 0.08817 0.50085 0.0
C1157 C 0.99352 0.10461 0.46752 0.0
C1158 C 1.03198 0.07392 0.47546 0.0
C1159 C 1.02022 0.07496 0.44688 0.0
H1160 H 0.3446 0.80276 0.64914 0.0
H1161 H 0.40798 0.7754 0.69403 0.0
H1162 H 0.39652 0.79326 0.74187 0.0
H1163 H 0.3665 0.8144 0.7713 0.0
H1164 H 0.30383 0.84221 0.72522 0.0
H1165 H 0.31708 0.82679 0.67806 0.0
C1166 C 0.35612 0.80092 0.66936 0.0
C1167 C 0.37714 0.78758 0.66775 0.0
C1168 C 0.34943 0.81132 0.69685 0.0
C1169 C 0.39178 0.78558 0.69438 0.0
C1170 C 0.38514 0.79573 0.72185 0.0
C1171 C 0.35596 0.81741 0.75096 0.0
C1172 C 0.33397 0.8294 0.75208 0.0
C1173 C 0.36373 0.80835 0.72345 0.0
C1174 C 0.32067 0.83302 0.7253 0.0
C1175 C 0.32822 0.82411 0.69815 0.0
H1176 H 0.60398 0.05163 0.88931 0.0
H1177 H 0.67712 0.04885 0.93708 0.0
H1178 H 0.66353 0.06676 0.98325 0.0
H1179 H 0.63095 0.08314 1.01044 0.0
H1180 H 0.55784 0.08686 0.96302 0.0
H1181 H 0.57146 0.06928 0.91669 0.0
C1182 C 0.61681 0.05472 0.90988 0.0
C1183 C 0.64148 0.04868 0.90969 0.0
C1184 C 0.60902 0.06562 0.93652 0.0
C1185 C 0.65801 0.05323 0.93653 0.0
C1186 C 0.6503 0.06362 0.963 0.0
C1187 C 0.61805 0.08047 0.98996 0.0
C1188 C 0.59337 0.08648 0.99045 0.0
C1189 C 0.6259 0.07004 0.96329 0.0
C1190 C 0.57699 0.08262 0.96353 0.0
C1191 C 0.5847 0.07233 0.93692 0.0
H1192 H 0.34569 0.45176 0.2185 0.0
H1193 H 0.38822 0.50786 0.29217 0.0
H1194 H 0.39151 0.47195 0.32092 0.0
H1195 H 0.379 0.42492 0.32595 0.0
H1196 H 0.33522 0.37029 0.25188 0.0
H1197 H 0.33627 0.4053 0.22198 0.0
C1198 C 0.3557 0.45626 0.24089 0.0
C1199 C 0.36628 0.4825 0.25344 0.0
C1200 C 0.35755 0.43568 0.25696 0.0
C1201 C 0.37964 0.48784 0.2822 0.0
C1202 C 0.38158 0.46731 0.29854 0.0
C1203 C 0.37041 0.42063 0.30298 0.0
C1204 C 0.35728 0.3951 0.29083 0.0
C1205 C 0.3703 0.44117 0.28625 0.0
C1206 C 0.34564 0.38978 0.26139 0.0
C1207 C 0.34601 0.40982 0.24446 0.0
H1208 H 0.21298 1.02078 0.1215 0.0
H1209 H 0.16235 0.94829 0.08328 0.0
H1210 H 0.12596 0.97146 0.086 0.0
H1211 H 0.10858 1.01249 0.0969 0.0
H1212 H 0.15876 0.08553 0.134 0.0
H1213 H 0.19512 0.0619 0.13449 0.0
C1214 C 0.19397 1.00998 0.11387 0.0
C1215 C 0.19055 0.98268 0.10203 0.0
C1216 C 0.17301 0.02355 0.11539 0.0
C1217 C 0.16569 0.96917 0.09237 0.0
C1218 C 0.14483 0.98247 0.09395 0.0
C1219 C 0.1274 0.02335 0.10544 0.0
C1220 C 0.13072 0.05097 0.11543 0.0
C1221 C 0.14826 1.00968 0.10513 0.0
C1222 C 0.15543 0.06439 0.12635 0.0
C1223 C 0.1763 0.05085 0.12642 0.0
H1224 H 0.69516 0.61943 0.99535 0.0
H1225 H 0.73366 0.67944 0.06802 0.0
H1226 H 0.69709 0.67409 0.09385 0.0
H1227 H 0.65434 0.65262 0.09629 0.0
H1228 H 0.61427 0.59351 0.02397 0.0
H1229 H 0.65118 0.59813 0.9976 0.0
C1230 C 0.69544 0.63135 0.01681 0.0
C1231 C 0.71713 0.64983 0.02969 0.0
C1232 C 0.67409 0.62828 0.03165 0.0
C1233 C 0.71724 0.66515 0.0575 0.0
C1234 C 0.69632 0.66206 0.07237 0.0
C1235 C 0.65367 0.64069 0.07475 0.0
C1236 C 0.63171 0.62275 0.06206 0.0
C1237 C 0.67471 0.64372 0.05974 0.0
C1238 C 0.63104 0.60749 0.03413 0.0
C1239 C 0.65212 0.61016 0.01909 0.0
H1240 H 0.7156 0.47968 0.33762 0.0
H1241 H 0.78593 0.53407 0.3631 0.0
H1242 H 0.80946 0.49698 0.36026 0.0
H1243 H 0.8113 0.44798 0.35067 0.0
H1244 H 0.741 0.39338 0.32698 0.0
H1245 H 0.71741 0.43046 0.329 0.0
C1246 C 0.73609 0.48368 0.34262 0.0
C1247 C 0.74843 0.51082 0.35063 0.0
C1248 C 0.75006 0.46153 0.34119 0.0
C1249 C 0.77523 0.51426 0.35692 0.0
C1250 C 0.78897 0.49265 0.35524 0.0
C1251 C 0.7908 0.44391 0.34575 0.0
C1252 C 0.77853 0.41674 0.3383 0.0
C1253 C 0.77681 0.466 0.34737 0.0
C1254 C 0.75168 0.41321 0.3326 0.0
C1255 C 0.73791 0.43482 0.3338 0.0
H1256 H 0.84384 0.46091 0.63674 0.0
H1257 H 0.81781 0.52741 0.60402 0.0
H1258 H 0.86164 0.54829 0.60495 0.0
H1259 H 0.9064 0.54333 0.60618 0.0
H1260 H 0.93202 0.4758 0.63678 0.0
H1261 H 0.88929 0.45976 0.64613 0.0
C1262 C 0.84782 0.48021 0.63036 0.0
C1263 C 0.82782 0.49236 0.61964 0.0
C1264 C 0.87293 0.49176 0.63038 0.0
C1265 C 0.83304 0.51757 0.61199 0.0
C1266 C 0.85805 0.52946 0.61243 0.0
C1267 C 0.90276 0.52561 0.61585 0.0
C1268 C 0.92202 0.51045 0.62031 0.0
C1269 C 0.87806 0.51615 0.6203 0.0
C1270 C 0.91721 0.48748 0.63275 0.0
C1271 C 0.89284 0.47828 0.63798 0.0
H1272 H 0.44419 0.24358 0.36071 0.0
H1273 H 0.42937 0.21372 0.26738 0.0
H1274 H 0.40152 0.24639 0.26018 0.0
H1275 H 0.37844 0.28151 0.28131 0.0
H1276 H 0.39081 0.30705 0.37571 0.0
H1277 H 0.42236 0.27871 0.38136 0.0
C1278 C 0.43518 0.2445 0.33873 0.0
C1279 C 0.43897 0.22629 0.31465 0.0
C1280 C 0.41838 0.26261 0.33492 0.0
C1281 C 0.42679 0.22752 0.28635 0.0
C1282 C 0.41074 0.24615 0.28223 0.0
C1283 C 0.38824 0.28106 0.30303 0.0
C1284 C 0.38236 0.297 0.32794 0.0
C1285 C 0.40589 0.2635 0.30646 0.0
C1286 C 0.39514 0.29568 0.35595 0.0
C1287 C 0.41314 0.27915 0.35935 0.0
H1288 H 0.30756 0.08902 0.52174 0.0
H1289 H 0.33529 0.11058 0.44357 0.0
H1290 H 0.37532 0.09546 0.4579 0.0
H1291 H 0.40429 0.08186 0.49611 0.0
H1292 H 0.37687 0.06421 0.57608 0.0
H1293 H 0.33485 0.07166 0.55733 0.0
C1294 C 0.32213 0.08992 0.50747 0.0
C1295 C 0.31857 0.10117 0.4818 0.0
C1296 C 0.34534 0.08218 0.5164 0.0
C1297 C 0.33759 0.10206 0.4635 0.0
C1298 C 0.36057 0.09363 0.47182 0.0
C1299 C 0.3891 0.07955 0.50939 0.0
C1300 C 0.39393 0.0727 0.53763 0.0
C1301 C 0.365 0.08466 0.49884 0.0
C1302 C 0.3738 0.0692 0.5542 0.0
C1303 C 0.34973 0.07367 0.54359 0.0
H1304 H 0.78391 0.66838 0.36206 0.0
H1305 H 0.70533 0.67368 0.33631 0.0
H1306 H 0.7174 0.71879 0.32855 0.0
H1307 H 0.74971 0.75807 0.32816 0.0
H1308 H 0.82854 0.75507 0.35412 0.0
H1309 H 0.81709 0.70929 0.36241 0.0
C1310 C 0.76931 0.6793 0.35483 0.0
C1311 C 0.74326 0.66642 0.34996 0.0
C1312 C 0.77652 0.70639 0.35024 0.0
C1313 C 0.72532 0.68197 0.34049 0.0
C1314 C 0.73228 0.70825 0.33592 0.0
C1315 C 0.7646 0.74761 0.33567 0.0
C1316 C 0.79028 0.761 0.34029 0.0
C1317 C 0.75776 0.72086 0.34059 0.0
C1318 C 0.80872 0.74616 0.35018 0.0
C1319 C 0.80205 0.71958 0.35496 0.0
H1320 H 0.89586 0.60984 0.87818 0.0
H1321 H 0.9024 0.57016 0.79125 0.0
H1322 H 0.87364 0.53154 0.79805 0.0
H1323 H 0.85139 0.50707 0.83079 0.0
H1324 H 0.84444 0.54591 0.91797 0.0
H1325 H 0.86843 0.58691 0.90863 0.0
C1326 C 0.89061 0.59291 0.86056 0.0
C1327 C 0.90153 0.59274 0.83443 0.0
C1328 C 0.87421 0.5705 0.86472 0.0
C1329 C 0.89446 0.57072 0.81171 0.0
C1330 C 0.87804 0.54857 0.81558 0.0
C1331 C 0.85437 0.52464 0.84755 0.0
C1332 C 0.84626 0.52323 0.87513 0.0
C1333 C 0.86844 0.54795 0.84231 0.0
C1334 C 0.8508 0.54625 0.89668 0.0
C1335 C 0.86454 0.56969 0.89143 0.0
H1336 H 0.04305 0.90546 0.24372 0.0
H1337 H 0.07553 0.8546 0.18135 0.0
H1338 H 0.06926 0.88313 0.14479 0.0
H1339 H 0.05317 0.92153 0.12947 0.0
H1340 H 1.02006 0.97257 0.19092 0.0
H1341 H 1.02753 0.94491 0.22841 0.0
C1342 C 0.04898 0.90083 0.22224 0.0
C1343 C 0.05982 0.87791 0.2154 0.0
C1344 C 0.04489 0.9172 0.20088 0.0
C1345 C 0.06713 0.87207 0.18729 0.0
C1346 C 0.0635 0.88836 0.16626 0.0
C1347 C 0.04778 0.9268 0.15113 0.0
C1348 C 0.03597 0.94914 0.15716 0.0
C1349 C 0.05218 0.91083 0.17266 0.0
C1350 C 1.02882 0.9553 0.18536 0.0
C1351 C 0.03327 0.93958 0.20696 0.0
H1352 H 0.98088 0.32446 0.88339 0.0
H1353 H 1.00566 0.3945 0.84803 0.0
H1354 H 0.96151 0.39953 0.83444 0.0
H1355 H 0.91509 0.38517 0.8338 0.0
H1356 H 0.89011 0.31464 0.86815 0.0
H1357 H 0.93427 0.30883 0.88052 0.0
C1358 C 0.97671 0.34072 0.87244 0.0
C1359 C 0.9972 0.35903 0.86682 0.0
C1360 C 0.95081 0.34355 0.86447 0.0
C1361 C 0.99081 0.37993 0.85267 0.0
C1362 C 0.96532 0.38291 0.84491 0.0
C1363 C 0.9192 0.36838 0.8438 0.0
C1364 C 0.89871 0.3504 0.84992 0.0
C1365 C 0.94504 0.36501 0.85086 0.0
C1366 C 0.905 0.32886 0.86296 0.0
C1367 C 0.93048 0.32553 0.87017 0.0
H1368 H 0.5776 0.26274 0.6854 0.0
H1369 H 0.54008 0.22409 0.74833 0.0
H1370 H 0.53815 0.18104 0.71727 0.0
H1371 H 0.54747 0.15415 0.67208 0.0
H1372 H 0.58681 0.19323 0.61065 0.0
H1373 H 0.58764 0.23606 0.64111 0.0
C1374 C 0.56893 0.24491 0.69232 0.0
C1375 C 0.5589 0.24673 0.71916 0.0
C1376 C 0.56823 0.22017 0.67453 0.0
C1377 C 0.54795 0.22333 0.72782 0.0
C1378 C 0.54683 0.19867 0.71002 0.0
C1379 C 0.55614 0.17205 0.66532 0.0
C1380 C 0.56699 0.17034 0.63895 0.0
C1381 C 0.55693 0.1968 0.6833 0.0
C1382 C 0.57836 0.19381 0.63077 0.0
C1383 C 0.57882 0.2184 0.6482 0.0
H1384 H 0.66998 0.86998 0.41494 0.0
H1385 H 0.63176 0.8485 0.32551 0.0
H1386 H 0.67259 0.84514 0.3078 0.0
H1387 H 0.71999 0.84766 0.3175 0.0
H1388 H 0.75739 0.86777 0.40749 0.0
H1389 H 0.7168 0.87224 0.42464 0.0
C1390 C 0.67044 0.86462 0.3915 0.0
C1391 C 0.64721 0.85963 0.37174 0.0
C1392 C 0.69428 0.86244 0.38136 0.0
C1393 C 0.64884 0.85255 0.34148 0.0
C1394 C 0.67242 0.85061 0.33127 0.0
C1395 C 0.71939 0.8532 0.34088 0.0
C1396 C 0.74244 0.85749 0.36098 0.0
C1397 C 0.69542 0.85545 0.35093 0.0
C1398 C 0.74054 0.86435 0.39121 0.0
C1399 C 0.71707 0.86691 0.40116 0.0
H1400 H 0.08573 0.32495 0.52242 0.0
H1401 H 0.16276 0.31152 0.54188 0.0
H1402 H 0.14841 0.27687 0.56964 0.0
H1403 H 0.11367 0.24979 0.58721 0.0
H1404 H 0.03669 0.26266 0.56608 0.0
H1405 H 0.05135 0.2984 0.54009 0.0
C1406 C 0.09944 0.3145 0.53278 0.0
C1407 C 0.12527 0.32074 0.53013 0.0
C1408 C 0.09104 0.29462 0.5484 0.0
C1409 C 0.14277 0.30698 0.54357 0.0
C1410 C 0.13457 0.28725 0.55946 0.0
C1411 C 0.1002 0.26072 0.57724 0.0
C1412 C 0.07418 0.25384 0.57865 0.0
C1413 C 0.10874 0.28088 0.56194 0.0
C1414 C 0.05679 0.26768 0.56519 0.0
C1415 C 0.06516 0.28805 0.55036 0.0
H1416 H 0.56549 0.32421 0.27215 0.0
H1417 H 0.56564 0.24603 0.22461 0.0
H1418 H 0.60563 0.24384 0.25435 0.0
H1419 H 0.64208 0.26566 0.29034 0.0
H1420 H 0.64287 0.34417 0.33744 0.0
H1421 H 0.60064 0.34468 0.3114 0.0
C1422 C 0.57424 0.30666 0.26844 0.0
C1423 C 0.56291 0.28546 0.24604 0.0
C1424 C 0.59726 0.3056 0.28548 0.0
C1425 C 0.57419 0.26269 0.24159 0.0
C1426 C 0.597 0.26141 0.25859 0.0
C1427 C 0.63273 0.28259 0.2956 0.0
C1428 C 0.64549 0.30483 0.3158 0.0
C1429 C 0.60887 0.28292 0.2802 0.0
C1430 C 0.63339 0.32688 0.32184 0.0
C1431 C 0.60934 0.3272 0.30693 0.0
H1432 H 0.63255 0.96155 0.06878 0.0
H1433 H 0.65402 0.99168 0.99177 0.0
H1434 H 0.62809 0.02606 0.99995 0.0
H1435 H 0.59324 0.04176 0.02317 0.0
H1436 H 0.57402 1.01537 0.10269 0.0
H1437 H 0.60482 0.98472 0.09907 0.0
C1438 C 0.63239 0.97634 0.05453 0.0
C1439 C 0.64479 0.97371 0.02936 0.0
C1440 C 0.61719 0.99605 0.0592 0.0
C1441 C 0.64463 0.99315 1.01124 0.0
C1442 C 0.62947 1.01263 0.01563 0.0
C1443 C 0.59629 0.02986 0.04014 0.0
C1444 C 0.58123 0.03039 0.06288 0.0
C1445 C 0.61465 1.01331 0.03855 0.0
C1446 C 0.5853 1.01492 0.0848 0.0
C1447 C 0.60293 0.99754 0.08277 0.0
H1448 H 0.94699 0.83038 0.72331 0.0
H1449 H 0.96434 0.76302 0.76161 0.0
H1450 H 0.95582 0.78372 0.80933 0.0
H1451 H 0.94626 0.8218 0.84066 0.0
H1452 H 0.92301 0.88669 0.80094 0.0
H1453 H 0.93271 0.86673 0.75408 0.0
C1454 C 0.9484 0.82002 0.74197 0.0
C1455 C 0.95641 0.79527 0.73888 0.0
C1456 C 0.94335 0.83198 0.76948 0.0
C1457 C 0.95815 0.78209 0.76329 0.0
C1458 C 0.95352 0.79403 0.79073 0.0
C1459 C 0.94271 0.83168 0.822 0.0
C1460 C 0.93402 0.85624 0.82542 0.0
C1461 C 0.94657 0.8192 0.79421 0.0
C1462 C 0.93053 0.86843 0.80021 0.0
C1463 C 0.93555 0.8567 0.77283 0.0
H1464 H 0.14662 0.04931 0.92912 0.0
H1465 H 0.17739 0.13226 0.94147 0.0
H1466 H 0.15117 0.14142 0.98016 0.0
H1467 H 0.11897 0.1267 1.01146 0.0
H1468 H 0.09084 0.04362 1.00359 0.0
H1469 H 0.11597 0.03408 0.96335 0.0
C1470 C 0.14771 0.06944 0.94022 0.0
C1471 C 0.16444 0.09005 0.93143 0.0
C1472 C 0.1327 0.07471 0.96378 0.0
C1473 C 0.16517 0.1158 0.94703 0.0
C1474 C 0.14994 0.12114 0.96943 0.0
C1475 C 0.11814 0.10639 1.00103 0.0
C1476 C 0.10222 0.086 1.01104 0.0
C1477 C 0.13352 0.10088 0.97814 0.0
C1478 C 0.10238 0.05994 0.99691 0.0
C1479 C 0.11695 0.05445 0.97361 0.0
H1480 H 0.78551 0.38729 0.65646 0.0
H1481 H 0.7472 0.44575 0.7007 0.0
H1482 H 0.76275 0.43485 0.74845 0.0
H1483 H 0.78777 0.40907 0.778 0.0
H1484 H 0.82617 0.35069 0.73367 0.0
H1485 H 0.81045 0.36147 0.68599 0.0
C1486 C 0.78028 0.3974 0.67651 0.0
C1487 C 0.76496 0.41716 0.67485 0.0
C1488 C 0.78969 0.39135 0.70408 0.0
C1489 C 0.75877 0.43033 0.7012 0.0
C1490 C 0.7678 0.42422 0.7286 0.0
C1491 C 0.79298 0.39893 0.75795 0.0
C1492 C 0.80837 0.37921 0.7596 0.0
C1493 C 0.7835 0.40494 0.73038 0.0
C1494 C 0.81451 0.36603 0.73322 0.0
C1495 C 0.80539 0.37209 0.70584 0.0
H1496 H 0.54091 0.15928 0.41847 0.0
H1497 H 0.46079 0.14138 0.42303 0.0
H1498 H 0.46966 0.12299 0.46766 0.0
H1499 H 0.49968 0.10986 0.50456 0.0
H1500 H 0.57996 0.13057 0.50419 0.0
H1501 H 0.57168 0.14998 0.45932 0.0
C1502 C 0.52547 0.15166 0.42947 0.0
C1503 C 0.50016 0.15181 0.41712 0.0
C1504 C 0.53072 0.14141 0.45595 0.0
C1505 C 0.48043 0.14183 0.43189 0.0
C1506 C 0.48545 0.13109 0.45746 0.0
C1507 C 0.51539 0.11876 0.49476 0.0
C1508 C 0.54041 0.11852 0.50752 0.0
C1509 C 0.51044 0.13046 0.46952 0.0
C1510 C 0.56053 0.13049 0.49479 0.0
C1511 C 0.55576 0.14152 0.46905 0.0
H1512 H 0.83279 0.73977 0.05147 0.0
H1513 H 0.82447 0.67202 0.09549 0.0
H1514 H 0.83269 0.70111 0.14337 0.0
H1515 H 0.83342 0.74517 0.17128 0.0
H1516 H 0.8401 0.81299 0.1272 0.0
H1517 H 0.84128 0.78438 0.0806 0.0
C1518 C 0.83343 0.73137 0.07158 0.0
C1519 C 0.82748 0.70387 0.07003 0.0
C1520 C 0.83733 0.74819 0.0989 0.0
C1521 C 0.82873 0.69318 0.09617 0.0
C1522 C 0.83325 0.7098 0.12353 0.0
C1523 C 0.83603 0.75388 0.15175 0.0
C1524 C 0.83615 0.78111 0.15257 0.0
C1525 C 0.83625 0.7373 0.12501 0.0
C1526 C 0.83935 0.79198 0.12695 0.0
C1527 C 0.84007 0.77566 0.10034 0.0
H1528 H 0.1382 0.09742 0.78418 0.0
H1529 H 0.1917 0.05157 0.7488 0.0
H1530 H 0.16917 0.04815 0.69893 0.0
H1531 H 0.1344 0.05877 0.66436 0.0
H1532 H 0.08228 0.10665 0.69964 0.0
H1533 H 0.1038 0.10854 0.74958 0.0
C1534 C 0.1449 0.08656 0.76561 0.0
C1535 C 0.16678 0.07467 0.77072 0.0
C1536 C 0.13197 0.08504 0.7365 0.0
C1537 C 0.17506 0.06095 0.74597 0.0
C1538 C 0.1621 0.05897 0.71722 0.0
C1539 C 0.12761 0.06952 0.68294 0.0
C1540 C 0.10643 0.08247 0.67769 0.0
C1541 C 0.14053 0.07099 0.71206 0.0
C1542 C 0.09839 0.09647 0.70247 0.0
C1543 C 0.11076 0.09757 0.7313 0.0
H1544 H 0.76714 0.37497 0.51694 0.0
H1545 H 0.76185 0.45187 0.49408 0.0
H1546 H 0.77681 0.43891 0.44746 0.0
H1547 H 0.7948 0.40776 0.41478 0.0
H1548 H 0.80127 0.33054 0.43529 0.0
H1549 H 0.7824 0.34137 0.48072 0.0
C1550 C 0.76879 0.38865 0.50146 0.0
C1551 C 0.76334 0.41453 0.5093 0.0
C1552 C 0.77797 0.38111 0.47432 0.0
C1553 C 0.76592 0.43197 0.48894 0.0
C1554 C 0.77459 0.4246 0.46217 0.0
C1555 C 0.79197 0.39311 0.42904 0.0
C1556 C 0.79979 0.36845 0.42171 0.0
C1557 C 0.78126 0.39954 0.45494 0.0
C1558 C 0.79552 0.34968 0.44032 0.0
C1559 C 0.7848 0.35597 0.46641 0.0
H1560 H 0.47777 0.11623 0.23283 0.0
H1561 H 0.54905 0.16152 0.2776 0.0
H1562 H 0.56951 0.14812 0.23444 0.0
H1563 H 0.5668 0.12422 0.18331 0.0
H1564 H 0.49462 0.08132 0.13812 0.0
H1565 H 0.47494 0.09288 0.18213 0.0
C1566 C 0.49783 0.12314 0.23325 0.0
C1567 C 0.51187 0.13981 0.25854 0.0
C1568 C 0.50933 0.11563 0.20825 0.0
C1569 C 0.53778 0.14871 0.25849 0.0
C1570 C 0.54949 0.14098 0.23381 0.0
C1571 C 0.54686 0.11703 0.18329 0.0
C1572 C 0.53229 0.10152 0.15753 0.0
C1573 C 0.53545 0.12445 0.20852 0.0
C1574 C 0.50632 0.09303 0.15765 0.0
C1575 C 0.49503 0.09974 0.18281 0.0
H1576 H 0.81009 0.7351 0.95238 0.0
H1577 H 0.73963 0.68837 0.907 0.0
H1578 H 0.73517 0.72139 0.87465 0.0
H1579 H 0.75285 0.76248 0.85782 0.0
H1580 H 0.82411 0.80757 0.90305 0.0
H1581 H 0.82647 0.77643 0.93749 0.0
C1582 C 0.79371 0.73203 0.93541 0.0
C1583 C 0.77535 0.70918 0.93184 0.0
C1584 C 0.79133 0.75096 0.91715 0.0
C1585 C 0.75414 0.70571 0.90997 0.0
C1586 C 0.75156 0.72462 0.89159 0.0
C1587 C 0.76856 0.76574 0.87565 0.0
C1588 C 0.78824 0.78733 0.87814 0.0
C1589 C 0.77017 0.74724 0.89485 0.0
C1590 C 0.80873 0.79114 0.90092 0.0
C1591 C 0.81017 0.77326 0.92044 0.0
H1592 H 0.92369 0.16527 0.05833 0.0
H1593 H 0.97589 0.23818 0.08925 0.0
H1594 H 1.01169 0.21425 0.08613 0.0
H1595 H 1.02826 0.17254 0.07758 0.0
H1596 H 0.97665 0.09912 0.04762 0.0
H1597 H 0.94068 0.12334 0.04689 0.0
C1598 C 0.94291 0.17598 0.0642 0.0
C1599 C 0.94697 0.20363 0.07419 0.0
C1600 C 0.96356 0.16196 0.06247 0.0
C1601 C 0.97207 0.21703 0.08159 0.0
C1602 C 0.99261 0.2033 0.07981 0.0
C1603 C 1.00918 0.16172 0.07052 0.0
C1604 C 1.00532 0.13385 0.0627 0.0
C1605 C 0.98859 0.17575 0.07067 0.0
C1606 C 0.98035 0.12045 0.05356 0.0
C1607 C 0.95972 0.13434 0.05339 0.0
H1608 H 0.41399 0.57029 0.13206 0.0
H1609 H 0.45242 0.5756 0.22049 0.0
H1610 H 0.4936 0.58294 0.20253 0.0
H1611 H 0.51832 0.58287 0.16029 0.0
H1612 H 0.47813 0.57263 0.07193 0.0
H1613 H 0.43791 0.57212 0.09121 0.0
C1614 C 0.43133 0.57343 0.14761 0.0
C1615 C 0.43015 0.57228 0.17756 0.0
C1616 C 0.45462 0.57639 0.13696 0.0
C1617 C 0.45284 0.57645 0.19732 0.0
C1618 C 0.47635 0.58043 0.187 0.0
C1619 C 0.50071 0.58083 0.14544 0.0
C1620 C 0.501 0.57759 0.11476 0.0
C1621 C 0.47745 0.57966 0.15668 0.0
C1622 C 0.47822 0.57484 0.09559 0.0
C1623 C 0.45526 0.57462 0.1066 0.0
H1624 H 0.41876 0.70485 0.84515 0.0
H1625 H 0.3499 0.65154 0.80693 0.0
H1626 H 0.3266 0.68882 0.80829 0.0
H1627 H 0.32468 0.7378 0.82005 0.0
H1628 H 0.39382 0.79114 0.85727 0.0
H1629 H 0.41693 0.75381 0.85647 0.0
C1630 C 0.39864 0.70113 0.83706 0.0
C1631 C 0.38663 0.67427 0.82591 0.0
C1632 C 0.38486 0.72335 0.83773 0.0
C1633 C 0.36031 0.67115 0.81568 0.0
C1634 C 0.34672 0.69286 0.81647 0.0
C1635 C 0.3448 0.74152 0.82816 0.0
C1636 C 0.3569 0.76842 0.83896 0.0
C1637 C 0.35858 0.71928 0.82743 0.0
C1638 C 0.38328 0.77152 0.8489 0.0
C1639 C 0.39679 0.74977 0.84842 0.0
H1640 H 0.33399 0.6759 0.62231 0.0
H1641 H 0.30804 0.69077 0.53544 0.0
H1642 H 0.26691 0.66402 0.53552 0.0
H1643 H 0.23664 0.64282 0.5634 0.0
H1644 H 0.26143 0.63029 0.65151 0.0
H1645 H 0.30497 0.6494 0.64772 0.0
C1646 C 0.31947 0.67286 0.60321 0.0
C1647 C 0.32377 0.6856 0.57914 0.0
C1648 C 0.29569 0.65805 0.60373 0.0
C1649 C 0.30496 0.68141 0.55439 0.0
C1650 C 0.28147 0.66614 0.55442 0.0
C1651 C 0.25173 0.64344 0.58138 0.0
C1652 C 0.24594 0.63541 0.60776 0.0
C1653 C 0.27635 0.65524 0.57941 0.0
C1654 C 0.26554 0.63664 0.63109 0.0
C1655 C 0.29034 0.64764 0.62897 0.0
H1656 H 0.68688 0.93455 0.8094 0.0
H1657 H 0.73552 0.98779 0.88098 0.0
H1658 H 0.76245 0.95443 0.88708 0.0
H1659 H 0.7745 0.91122 0.86954 0.0
H1660 H 0.72766 0.85949 0.7955 0.0
H1661 H 0.69798 0.89056 0.7932 0.0
C1662 C 0.70317 0.93868 0.82657 0.0
C1663 C 0.70913 0.96374 0.8446 0.0
C1664 C 0.71914 0.91954 0.82951 0.0
C1665 C 0.73049 0.96877 0.86662 0.0
C1666 C 0.74599 0.94966 0.87016 0.0
C1667 C 0.75758 0.90654 0.85324 0.0
C1668 C 0.75332 0.88273 0.8329 0.0
C1669 C 0.74084 0.92511 0.85137 0.0
C1670 C 0.73139 0.87737 0.81167 0.0
C1671 C 0.71442 0.89533 0.81016 0.0
H1672 H 0.7846 0.07167 0.71381 0.0
H1673 H 0.83695 0.11423 0.667 0.0
H1674 H 0.80308 0.13523 0.64574 0.0
H1675 H 0.75734 0.13527 0.63365 0.0
H1676 H 0.70481 0.09179 0.67934 0.0
H1677 H 0.73991 0.07771 0.70807 0.0
C1678 C 0.78876 0.08615 0.69968 0.0
C1679 C 0.81312 0.09098 0.69153 0.0
C1680 C 0.76902 0.09763 0.68686 0.0
C1681 C 0.81827 0.10994 0.67338 0.0
C1682 C 0.79886 0.12182 0.66099 0.0
C1683 C 0.75369 0.12307 0.65025 0.0
C1684 C 0.72857 0.11422 0.65405 0.0
C1685 C 0.77394 0.11477 0.66641 0.0
C1686 C 0.72402 0.09882 0.67599 0.0
C1687 C 0.74408 0.09063 0.69231 0.0
H1688 H 0.3527 0.51812 0.82018 0.0
H1689 H 0.43182 0.51073 0.83489 0.0
H1690 H 0.42037 0.46525 0.84202 0.0
H1691 H 0.38836 0.4261 0.84467 0.0
H1692 H 0.309 0.43122 0.8282 0.0
H1693 H 0.31994 0.47746 0.82139 0.0
C1694 C 0.36756 0.50669 0.82491 0.0
C1695 C 0.39355 0.51908 0.8269 0.0
C1696 C 0.36071 0.47935 0.8288 0.0
C1697 C 0.41184 0.50281 0.83301 0.0
C1698 C 0.40524 0.47633 0.8372 0.0
C1699 C 0.37325 0.43714 0.83956 0.0
C1700 C 0.34756 0.42419 0.83719 0.0
C1701 C 0.37979 0.46416 0.83523 0.0
C1702 C 0.32884 0.43976 0.83031 0.0
C1703 C 0.33521 0.46661 0.8264 0.0
H1704 H 0.18273 0.60801 0.29551 0.0
H1705 H 0.25039 0.57824 0.32523 0.0
H1706 H 0.27669 0.61753 0.31507 0.0
H1707 H 0.28017 0.6613 0.30029 0.0
H1708 H 0.21231 0.69005 0.26879 0.0
H1709 H 0.18629 0.65006 0.27715 0.0
C1710 C 0.20324 0.61016 0.2998 0.0
C1711 C 0.21467 0.59054 0.31148 0.0
C1712 C 0.21814 0.63254 0.2936 0.0
C1713 C 0.24122 0.59324 0.31642 0.0
C1714 C 0.25623 0.61566 0.3106 0.0
C1715 C 0.25972 0.65861 0.29467 0.0
C1716 C 0.24821 0.67878 0.28417 0.0
C1717 C 0.24487 0.63553 0.29944 0.0
C1718 C 0.22164 0.67506 0.27737 0.0
C1719 C 0.20674 0.65218 0.28208 0.0
H1720 H 0.59606 0.82947 0.49881 0.0
H1721 H 0.57376 0.77075 0.42003 0.0
H1722 H 0.57969 0.73573 0.44885 0.0
H1723 H 0.59122 0.7216 0.4964 0.0
H1724 H 0.61339 0.78019 0.57534 0.0
H1725 H 0.60794 0.81526 0.54648 0.0
C1726 C 0.59246 0.80901 0.48794 0.0
C1727 C 0.58437 0.80282 0.45722 0.0
C1728 C 0.59606 0.78887 0.50469 0.0
C1729 C 0.57995 0.77616 0.44358 0.0
C1730 C 0.58336 0.75608 0.46007 0.0
C1731 C 0.5947 0.74201 0.50741 0.0
C1732 C 0.60269 0.74806 0.53818 0.0
C1733 C 0.59137 0.76217 0.49065 0.0
C1734 C 0.60754 0.77479 0.55175 0.0
C1735 C 0.60424 0.79492 0.53525 0.0
H1736 H 0.65785 0.3611 0.79223 0.0
H1737 H 0.63509 0.29385 0.83317 0.0
H1738 H 0.67963 0.29099 0.84814 0.0
H1739 H 0.72584 0.30641 0.84854 0.0
H1740 H 0.74888 0.37456 0.8092 0.0
H1741 H 0.70429 0.37816 0.79515 0.0
C1742 C 0.66253 0.34592 0.80466 0.0
C1743 C 0.64247 0.3277 0.81142 0.0
C1744 C 0.68868 0.34444 0.81357 0.0
C1745 C 0.64956 0.30827 0.82757 0.0
C1746 C 0.67529 0.30656 0.83614 0.0
C1747 C 0.72122 0.32224 0.8371 0.0
C1748 C 0.74132 0.34019 0.83009 0.0
C1749 C 0.69513 0.32436 0.82914 0.0
C1750 C 0.73434 0.36045 0.81518 0.0
C1751 C 0.7086 0.36247 0.80697 0.0
H1752 H 0.09147 0.45855 0.94283 0.0
H1753 H 0.05308 0.40698 0.99435 0.0
H1754 H 0.04836 0.44498 0.02987 0.0
H1755 H 0.05466 0.4929 0.04643 0.0
H1756 H 0.09414 0.54496 0.9963 0.0
H1757 H 0.09893 0.50696 0.96043 0.0
C1758 C 0.08212 0.45568 0.96185 0.0
C1759 C 0.07261 0.42989 0.9658 0.0
C1760 C 0.07964 0.47776 0.98256 0.0
C1761 C 0.06062 0.42655 0.9907 0.0
C1762 C 0.05787 0.44831 1.01108 0.0
C1763 C 0.06433 0.49597 0.02767 0.0
C1764 C 0.07395 0.52181 0.0241 0.0
C1765 C 0.06723 0.47401 1.00724 0.0
C1766 C 0.08658 0.52532 0.99971 0.0
C1767 C 0.08929 0.50356 0.9791 0.0
H1768 H 0.96887 0.81565 0.2593 0.0
H1769 H 1.00549 0.83164 0.34951 0.0
H1770 H 0.96446 0.835 0.36661 0.0
H1771 H 0.91736 0.83401 0.35625 0.0
H1772 H 0.8816 0.81999 0.26567 0.0
H1773 H 0.92228 0.81528 0.24896 0.0
C1774 C 0.96799 0.81979 0.28277 0.0
C1775 C 0.99083 0.82322 0.30294 0.0
C1776 C 0.94404 0.82209 0.2926 0.0
C1777 C 0.9887 0.82881 0.33323 0.0
C1778 C 0.96501 0.83075 0.3431 0.0
C1779 C 0.91834 0.82977 0.33282 0.0
C1780 C 0.8957 0.82719 0.31243 0.0
C1781 C 0.9424 0.82749 0.32306 0.0
C1782 C 0.8981 0.82201 0.28217 0.0
C1783 C 0.92163 0.81933 0.27247 0.0
H1784 H 0.55206 0.36266 0.17177 0.0
H1785 H 0.47545 0.35211 0.12672 0.0
H1786 H 0.48758 0.38861 0.10053 0.0
H1787 H 0.52008 0.42369 0.09089 0.0
H1788 H 0.59647 0.43389 0.13646 0.0
H1789 H 0.58429 0.3972 0.16209 0.0
C1790 C 0.53796 0.36834 0.15626 0.0
C1791 C 0.51288 0.35476 0.15119 0.0
C1792 C 0.54508 0.38919 0.14136 0.0
C1793 C 0.49486 0.36234 0.13103 0.0
C1794 C 0.50181 0.38314 0.11602 0.0
C1795 C 0.53409 0.41764 0.10618 0.0
C1796 C 0.55915 0.43138 0.11175 0.0
C1797 C 0.52689 0.39666 0.12099 0.0
C1798 C 0.57704 0.42369 0.13198 0.0
C1799 C 0.5701 0.40272 0.14658 0.0
H1800 H 0.06253 0.35089 0.43241 0.0
H1801 H 0.09217 0.4322 0.42978 0.0
H1802 H 0.05276 0.43627 0.39964 0.0
H1803 H 1.00918 0.41722 0.37657 0.0
H1804 H 0.97924 0.33663 0.38263 0.0
H1805 H 1.02003 0.33145 0.40776 0.0
C1806 C 0.06042 0.36952 0.42522 0.0
C1807 C 0.08002 0.39132 0.43354 0.0
C1808 C 0.03784 0.3717 0.40815 0.0
C1809 C 0.07717 0.41522 0.42381 0.0
C1810 C 0.05472 0.41751 0.40654 0.0
C1811 C 1.01158 0.3985 0.38334 0.0
C1812 C 0.99104 0.37744 0.37785 0.0
C1813 C 0.03481 0.39595 0.39894 0.0
C1814 C 0.99471 0.35311 0.38613 0.0
C1815 C 1.01796 0.3502 0.40091 0.0
H1816 H 1.00563 0.72385 0.5807 0.0
H1817 H 0.96535 0.68098 0.63854 0.0
H1818 H 0.98049 0.64074 0.61869 0.0
H1819 H 1.01282 0.62115 0.59374 0.0
H1820 H 0.05609 0.66553 0.53953 0.0
H1821 H 1.03189 0.70157 0.54868 0.0
C1822 C 0.99944 0.70549 0.58825 0.0
C1823 C 0.98489 0.70554 0.61155 0.0
C1824 C 1.00926 0.68281 0.57781 0.0
C1825 C 0.97677 0.68154 0.62084 0.0
C1826 C 0.98565 0.65857 0.6097 0.0
C1827 C 1.01648 0.63841 0.58328 0.0
C1828 C 0.03663 0.64104 0.56662 0.0
C1829 C 1.00315 0.65945 0.58956 0.0
C1830 C 0.04094 0.66329 0.55286 0.0
C1831 C 1.02717 0.68394 0.55818 0.0
H1832 H 0.69025 0.8414 0.93072 0.0
H1833 H 0.66573 0.90206 0.88505 0.0
H1834 H 0.67007 0.87651 0.83804 0.0
H1835 H 0.67865 0.83654 0.8099 0.0
H1836 H 0.70924 0.77842 0.85578 0.0
H1837 H 0.70312 0.80274 0.90207 0.0
C1838 C 0.68642 0.84927 0.91053 0.0
C1839 C 0.67761 0.87357 0.91149 0.0
C1840 C 0.68922 0.83457 0.88333 0.0
C1841 C 0.67264 0.88345 0.88508 0.0
C1842 C 0.6749 0.86873 0.85805 0.0
C1843 C 0.6846 0.82897 0.82962 0.0
C1844 C 0.69452 0.80509 0.82806 0.0
C1845 C 0.68281 0.84407 0.85687 0.0
C1846 C 0.70095 0.79607 0.85495 0.0
C1847 C 0.69794 0.81036 0.88203 0.0
H1848 H 0.50444 0.61325 0.76442 0.0
H1849 H 0.43069 0.58872 0.71194 0.0
H1850 H 0.45035 0.58604 0.66699 0.0
H1851 H 0.48809 0.58998 0.6413 0.0
H1852 H 0.56263 0.61297 0.69184 0.0
H1853 H 0.54333 0.61692 0.73774 0.0
C1854 C 0.49255 0.60736 0.74319 0.0
C1855 C 0.46555 0.60128 0.74239 0.0
C1856 C 0.5043 0.60554 0.71657 0.0
C1857 C 0.45115 0.59359 0.71408 0.0
C1858 C 0.46253 0.59203 0.68802 0.0
C1859 C 0.50041 0.59595 0.66225 0.0
C1860 C 0.52725 0.60121 0.66227 0.0
C1861 C 0.48904 0.59787 0.68881 0.0
C1862 C 0.54218 0.60881 0.69031 0.0
C1863 C 0.53096 0.61102 0.71684 0.0
H1864 H 0.84398 0.24873 0.98971 0.0
H1865 H 0.88735 0.32223 0.0376 0.0
H1866 H 0.87409 0.34487 0.99693 0.0
H1867 H 0.85068 0.34353 0.94687 0.0
H1868 H 0.80935 0.26912 0.89866 0.0
H1869 H 0.82099 0.24729 0.94028 0.0
C1870 C 0.85058 0.26972 0.99131 0.0
C1871 C 0.86671 0.28371 0.01678 0.0
C1872 C 0.84303 0.28254 0.96774 0.0
C1873 C 0.87505 0.3109 0.01829 0.0
C1874 C 0.86737 0.32389 0.99503 0.0
C1875 C 0.84391 0.32263 0.9457 0.0
C1876 C 0.82886 0.30807 0.9197 0.0
C1877 C 0.85134 0.30992 0.96958 0.0
C1878 C 0.82078 0.28086 0.91836 0.0
C1879 C 0.82753 0.26831 0.94216 0.0
H1880 H 0.09627 0.53249 0.25191 0.0
H1881 H 0.16757 0.52004 0.22299 0.0
H1882 H 0.15552 0.53625 0.17751 0.0
H1883 H 0.12631 0.55766 0.14746 0.0
H1884 H 0.05451 0.56917 0.17485 0.0
H1885 H 0.06492 0.54958 0.219 0.0
C1886 C 0.10893 0.53281 0.23538 0.0
C1887 C 0.13286 0.52505 0.24109 0.0
C1888 C 0.10184 0.54223 0.20896 0.0
C1889 C 0.14902 0.52574 0.21934 0.0
C1890 C 0.14221 0.5352 0.19328 0.0
C1891 C 0.11281 0.5554 0.16289 0.0
C1892 C 0.08966 0.56469 0.158 0.0
C1893 C 0.11893 0.54403 0.1881 0.0
C1894 C 0.07236 0.56192 0.17815 0.0
C1895 C 0.07838 0.55084 0.20343 0.0
H1896 H 0.82994 0.9456 0.62981 0.0
H1897 H 0.80995 1.01053 0.58863 0.0
H1898 H 0.79946 0.98127 0.54069 0.0
H1899 H 0.8019 0.939 0.50998 0.0
H1900 H 0.82586 0.87575 0.55161 0.0
H1901 H 0.82803 0.90236 0.59999 0.0
C1902 C 0.82292 0.95328 0.61041 0.0
C1903 C 0.82116 0.98021 0.61251 0.0
C1904 C 0.81768 0.93664 0.58302 0.0
C1905 C 0.81168 0.98986 0.58739 0.0
C1906 C 0.80578 0.97318 0.56003 0.0
C1907 C 0.8074 0.93098 0.52967 0.0
C1908 C 0.81409 0.90558 0.52711 0.0
C1909 C 0.80968 0.94681 0.55745 0.0
C1910 C 0.82048 0.89516 0.55283 0.0
C1911 C 0.82201 0.91048 0.58057 0.0
H1912 H 0.45221 0.62063 0.9343 0.0
H1913 H 0.50436 0.59137 0.87876 0.0
H1914 H 0.53299 0.58716 0.92219 0.0
H1915 H 0.54368 0.59119 0.9766 0.0
H1916 H 0.49321 0.62338 0.03253 0.0
H1917 H 0.46411 0.62698 0.98907 0.0
C1918 C 0.46987 0.61342 0.93167 0.0
C1919 C 0.47582 0.60629 0.90282 0.0
C1920 C 0.48682 0.61149 0.95716 0.0
C1921 C 0.49904 0.59714 0.90033 0.0
C1922 C 0.51554 0.59463 0.92533 0.0
C1923 C 0.52634 0.59903 0.97935 0.0
C1924 C 0.52086 0.60688 1.00824 0.0
C1925 C 0.5097 0.60164 0.95396 0.0
C1926 C 0.49823 0.61721 1.0109 0.0
C1927 C 0.48142 0.61924 0.98587 0.0
H1928 H 0.854 0.31313 0.15815 0.0
H1929 H 0.89508 0.25633 0.19295 0.0
H1930 H 0.88198 0.26836 0.24108 0.0
H1931 H 0.85607 0.29233 0.27257 0.0
H1932 H 0.81757 0.35181 0.24035 0.0
H1933 H 0.83254 0.34178 0.19235 0.0
C1934 C 0.86038 0.30369 0.1764 0.0
C1935 C 0.87544 0.28364 0.17167 0.0
C1936 C 0.85312 0.31114 0.20457 0.0
C1937 C 0.88361 0.27181 0.19575 0.0
C1938 C 0.876 0.2786 0.22337 0.0
C1939 C 0.85133 0.30343 0.25517 0.0
C1940 C 0.83565 0.32274 0.25998 0.0
C1941 C 0.86038 0.29785 0.22791 0.0
C1942 C 0.82976 0.33703 0.23731 0.0
C1943 C 0.83818 0.33111 0.20977 0.0
H1944 H 0.10018 0.52997 0.39248 0.0
H1945 H 0.17672 0.56944 0.42542 0.0
H1946 H 0.16391 0.58581 0.47236 0.0
H1947 H 0.13155 0.58871 0.50473 0.0
H1948 H 0.05465 0.54992 0.47322 0.0
H1949 H 0.06688 0.53406 0.42526 0.0
C1950 C 0.11399 0.54212 0.40997 0.0
C1951 C 0.13943 0.54835 0.40529 0.0
C1952 C 0.10642 0.55186 0.43723 0.0
C1953 C 0.15703 0.56429 0.42822 0.0
C1954 C 0.14974 0.57375 0.45519 0.0
C1955 C 0.11734 0.57694 0.48737 0.0
C1956 C 0.09219 0.57056 0.49275 0.0
C1957 C 0.12454 0.56768 0.45998 0.0
C1958 C 0.07413 0.55531 0.46979 0.0
C1959 C 0.08116 0.54606 0.44234 0.0
H1960 H 0.81782 0.95749 0.72474 0.0
H1961 H 0.89252 0.99026 0.77157 0.0
H1962 H 0.89435 0.94951 0.79205 0.0
H1963 H 0.87437 0.90477 0.79682 0.0
H1964 H 0.79958 0.8726 0.74974 0.0
H1965 H 0.79854 0.91273 0.72822 0.0
C1966 C 0.83442 0.95592 0.73972 0.0
C1967 C 0.85487 0.97705 0.74699 0.0
C1968 C 0.83556 0.93231 0.75072 0.0
C1969 C 0.8764 0.97442 0.76598 0.0
C1970 C 0.87754 0.95104 0.77743 0.0
C1971 C 0.85806 0.90631 0.78136 0.0
C1972 C 0.8371 0.88565 0.77467 0.0
C1973 C 0.85728 0.92978 0.76978 0.0
C1974 C 0.81599 0.88813 0.75496 0.0
C1975 C 0.81528 0.91117 0.74295 0.0
H1976 H 0.66962 0.47166 0.61479 0.0
H1977 H 0.72325 0.52839 0.58501 0.0
H1978 H 0.6955 0.56123 0.59117 0.0
H1979 H 0.65554 0.5741 0.60368 0.0
H1980 H 0.60092 0.51788 0.63255 0.0
H1981 H 0.62942 0.48521 0.62869 0.0
C1982 C 0.6751 0.49114 0.60948 0.0
C1983 C 0.69855 0.49733 0.59927 0.0
C1984 C 0.65898 0.51038 0.61338 0.0
C1985 C 0.70538 0.52288 0.59285 0.0
C1986 C 0.68953 0.54185 0.59649 0.0
C1987 C 0.6501 0.55496 0.60989 0.0
C1988 C 0.62618 0.54876 0.61883 0.0
C1989 C 0.66633 0.53593 0.60682 0.0
C1990 C 0.61931 0.52346 0.62596 0.0
C1991 C 0.63555 0.50458 0.62347 0.0
H1992 H 0.19723 0.0984 0.50602 0.0
H1993 H 0.17769 0.16621 0.47043 0.0
H1994 H 0.13831 0.1625 0.49198 0.0
H1995 H 0.11201 0.14316 0.52568 0.0
H1996 H 0.13321 0.07746 0.56437 0.0
H1997 H 0.16928 0.07707 0.53696 0.0
C1998 C 0.18398 0.11188 0.50234 0.0
C1999 C 0.19023 0.13248 0.48661 0.0
C2000 C 0.16192 0.1103 0.51586 0.0
C2001 C 0.17318 0.15015 0.48242 0.0
C2002 C 0.15078 0.14816 0.49491 0.0
C2003 C 0.12442 0.12863 0.52788 0.0
C2004 C 0.12015 0.11052 0.54716 0.0
C2005 C 0.14538 0.12887 0.51249 0.0
C2006 C 0.13625 0.0917 0.54975 0.0
C2007 C 0.15686 0.09146 0.53408 0.0
H2008 H 0.21601 0.98044 0.83549 0.0
H2009 H 0.2865 0.03267 0.86925 0.0
H2010 H 0.3091 0.9948 0.8659 0.0
H2011 H 0.3099 0.94565 0.85347 0.0
H2012 H 0.23922 0.89343 0.82044 0.0
H2013 H 0.21676 0.93132 0.82341 0.0
C2014 C 0.23634 0.9838 0.84221 0.0
C2015 C 0.24904 1.01051 0.85276 0.0
C2016 C 0.2497 0.96125 0.84027 0.0
C2017 C 0.2756 1.01318 0.8611 0.0
C2018 C 0.28877 0.99114 0.85914 0.0
C2019 C 0.28957 0.9423 0.84673 0.0
C2020 C 0.27682 0.91556 0.83642 0.0
C2021 C 0.27622 0.96486 0.84873 0.0
C2022 C 0.25023 0.91292 0.82831 0.0
C2023 C 0.23711 0.93498 0.83007 0.0
H2024 H 0.30566 0.99994 0.0404 0.0
H2025 H 0.3264 1.01403 0.13501 0.0
H2026 H 0.3653 0.04297 0.13072 0.0
H2027 H 0.39511 0.06086 0.09983 0.0
H2028 H 0.37563 0.04406 1.00499 0.0
H2029 H 0.33427 1.02021 1.00968 0.0
C2030 C 0.31852 1.00967 0.06009 0.0
C2031 C 0.31334 1.00474 0.08793 0.0
C2032 C 0.34109 0.02576 0.05741 0.0
C2033 C 0.33012 1.01742 0.1133 0.0
C2034 C 0.35236 0.03392 0.11087 0.0
C2035 C 0.38179 0.05203 0.08019 0.0
C2036 C 0.38856 0.05406 0.05213 0.0
C2037 C 0.35835 0.03765 0.08299 0.0
C2038 C 0.37085 0.04302 0.0269 0.0
C2039 C 0.34726 0.02915 0.02953 0.0
H2040 H 0.91176 0.70717 0.78136 0.0
H2041 H 0.95111 0.73808 0.86908 0.0
H2042 H 0.92661 0.77445 0.87268 0.0
H2043 H 0.89105 0.79493 0.85263 0.0
H2044 H 0.85374 0.76577 0.76365 0.0
H2045 H 0.88015 0.73126 0.75894 0.0
C2046 C 0.9152 0.72205 0.80114 0.0
C2047 C 0.93311 0.71968 0.82506 0.0
C2048 C 0.90117 0.74311 0.80295 0.0
C2049 C 0.93748 0.73934 0.85036 0.0
C2050 C 0.92333 0.76008 0.8525 0.0
C2051 C 0.88917 0.78158 0.8319 0.0
C2052 C 0.87037 0.78324 0.80854 0.0
C2053 C 0.90474 0.76187 0.82917 0.0
C2054 C 0.86792 0.76514 0.78209 0.0
C2055 C 0.88304 0.74528 0.77936 0.0
H2056 H 0.81028 0.57522 1.00389 0.0
H2057 H 0.85236 0.62281 0.95149 0.0
H2058 H 0.88948 0.60232 0.96321 0.0
H2059 H 0.91194 0.57746 0.99558 0.0
H2060 H 0.87047 0.53063 0.04922 0.0
H2061 H 0.83111 0.54412 0.02955 0.0
C2062 C 0.82732 0.5805 0.99427 0.0
C2063 C 0.8287 0.60085 0.97729 0.0
C2064 C 0.84886 0.56913 1.00175 0.0
C2065 C 0.85085 0.60737 0.96485 0.0
C2066 C 0.87218 0.59579 0.97173 0.0
C2067 C 0.89421 0.56945 1.0023 0.0
C2068 C 0.8943 0.55348 0.02434 0.0
C2069 C 0.87173 0.5776 0.99125 0.0
C2070 C 0.87107 0.54348 0.03283 0.0
C2071 C 0.84853 0.55114 0.02154 0.0
H2072 H 0.22435 0.17431 0.82508 0.0
H2073 H 0.28715 0.16014 0.88387 0.0
H2074 H 0.31006 0.20448 0.88264 0.0
H2075 H 0.31268 0.24941 0.86508 0.0
H2076 H 0.24835 0.2615 0.80644 0.0
H2077 H 0.22691 0.2175 0.8076 0.0
C2078 C 0.24309 0.18067 0.83771 0.0
C2079 C 0.25351 0.16283 0.85462 0.0
C2080 C 0.25647 0.20675 0.83695 0.0
C2081 C 0.27806 0.17256 0.87057 0.0
C2082 C 0.29138 0.19834 0.86985 0.0
C2083 C 0.29408 0.24252 0.8523 0.0
C2084 C 0.28278 0.26015 0.83546 0.0
C2085 C 0.28093 0.216 0.85311 0.0
C2086 C 0.25828 0.24961 0.81968 0.0
C2087 C 0.24562 0.2239 0.82029 0.0
H2088 H 0.45016 0.07993 0.3614 0.0
H2089 H 0.38702 0.10802 0.3168 0.0
H2090 H 0.3575 0.07232 0.32968 0.0
H2091 H 0.35 0.03305 0.35375 0.0
H2092 H 0.4136 1.00679 0.39994 0.0
H2093 H 0.44267 0.04229 0.38683 0.0
C2094 C 0.42994 0.07806 0.35422 0.0
C2095 C 0.4207 0.09617 0.33778 0.0
C2096 C 0.41323 0.05812 0.36239 0.0
C2097 C 0.39448 0.09404 0.32925 0.0
C2098 C 0.37766 0.07375 0.3367 0.0
C2099 C 0.37022 0.03525 0.36098 0.0
C2100 C 0.37968 1.01745 0.37783 0.0
C2101 C 0.38685 0.05571 0.35333 0.0
C2102 C 0.40587 1.02051 0.38732 0.0
C2103 C 0.42251 0.04062 0.3796 0.0
H2104 H 0.56352 0.35959 0.68216 0.0
H2105 H 0.5535 0.41211 0.75981 0.0
H2106 H 0.54756 0.4467 0.73028 0.0
H2107 H 0.54435 0.46184 0.68206 0.0
H2108 H 0.5553 0.40952 0.6047 0.0
H2109 H 0.56194 0.37527 0.6344 0.0
C2110 C 0.56012 0.37864 0.69266 0.0
C2111 C 0.55886 0.38317 0.7232 0.0
C2112 C 0.55688 0.39854 0.67554 0.0
C2113 C 0.55458 0.40805 0.73641 0.0
C2114 C 0.55112 0.42784 0.71949 0.0
C2115 C 0.54812 0.4429 0.67169 0.0
C2116 C 0.54921 0.43828 0.64109 0.0
C2117 C 0.55206 0.42327 0.68899 0.0
C2118 C 0.55452 0.41375 0.62817 0.0
C2119 C 0.5582 0.39407 0.64514 0.0
H2120 H 0.49313 0.88482 0.35285 0.0
H2121 H 0.48675 0.81633 0.39551 0.0
H2122 H 0.44054 0.81167 0.38692 0.0
H2123 H 0.40069 0.82771 0.3687 0.0
H2124 H 0.40723 0.89659 0.32665 0.0
H2125 H 0.45334 0.90008 0.33339 0.0
C2126 C 0.48172 0.86868 0.36003 0.0
C2127 C 0.49415 0.8509 0.37483 0.0
C2128 C 0.45454 0.86612 0.35518 0.0
C2129 C 0.47836 0.83039 0.38403 0.0
C2130 C 0.45161 0.82769 0.37914 0.0
C2131 C 0.41211 0.84336 0.36072 0.0
C2132 C 0.39978 0.86182 0.34698 0.0
C2133 C 0.43928 0.84551 0.36492 0.0
C2134 C 0.41557 0.88198 0.33724 0.0
C2135 C 0.44225 0.88406 0.34115 0.0
H2136 H 0.04174 0.7225 0.23071 0.0
H2137 H 0.08356 0.77381 0.18162 0.0
H2138 H 0.08548 0.73628 0.14415 0.0
H2139 H 0.07573 0.68886 0.12489 0.0
H2140 H 0.03312 0.63679 0.17235 0.0
H2141 H 1.03099 0.67433 0.21039 0.0
C2142 C 0.05127 0.72541 0.21182 0.0
C2143 C 0.06252 0.75108 0.20918 0.0
C2144 C 0.05214 0.70352 0.18984 0.0
C2145 C 0.07468 0.7544 0.18438 0.0
C2146 C 0.07583 0.73289 0.16281 0.0
C2147 C 0.0659 0.68566 0.14349 0.0
C2148 C 0.05464 0.65992 0.14563 0.0
C2149 C 0.06466 0.70736 0.16525 0.0
C2150 C 0.04193 0.65633 0.16997 0.0
C2151 C 0.04075 0.67784 0.19185 0.0
H2152 H 0.16985 0.3714 0.91553 0.0
H2153 H 0.13272 0.34991 0.82562 0.0
H2154 H 0.17389 0.3473 0.80859 0.0
H2155 H 0.22119 0.35025 0.81906 0.0
H2156 H 0.25752 0.36952 0.90948 0.0
H2157 H 0.21664 0.37386 0.92601 0.0
C2158 C 0.17065 0.36624 0.89213 0.0
C2159 C 0.14767 0.36103 0.872 0.0
C2160 C 0.19465 0.36434 0.88241 0.0
C2161 C 0.14965 0.35413 0.84183 0.0
C2162 C 0.1734 0.35263 0.83202 0.0
C2163 C 0.22027 0.35563 0.84239 0.0
C2164 C 0.24303 0.35973 0.86284 0.0
C2165 C 0.19617 0.35761 0.85204 0.0
C2166 C 0.24082 0.36627 0.893 0.0
C2167 C 0.21722 0.36875 0.90257 0.0
H2168 H 0.64925 0.83456 0.04148 0.0
H2169 H 0.57353 0.84779 1.01269 0.0
H2170 H 0.5557 0.81312 0.03786 0.0
H2171 H 0.56123 0.77794 0.06639 0.0
H2172 H 0.63644 0.76325 0.09445 0.0
H2173 H 0.65484 0.79979 0.07172 0.0
C2174 C 0.62888 0.82988 0.04088 0.0
C2175 C 0.61276 0.84358 0.02507 0.0
C2176 C 0.61863 0.80969 0.0553 0.0
C2177 C 0.58638 0.8374 0.02451 0.0
C2178 C 0.57612 0.81759 0.03893 0.0
C2179 C 0.58165 0.78271 0.06748 0.0
C2180 C 0.59742 0.76785 0.08191 0.0
C2181 C 0.59202 0.80342 0.05407 0.0
C2182 C 0.62388 0.77456 0.08365 0.0
C2183 C 0.6344 0.79532 0.07048 0.0
H2184 H 0.0606 0.79115 0.76238 0.0
H2185 H 0.07007 0.72669 0.69619 0.0
H2186 H 0.11105 0.72408 0.72365 0.0
H2187 H 0.14614 0.74391 0.76271 0.0
H2188 H 0.13735 0.80917 0.82824 0.0
H2189 H 0.09387 0.80764 0.80473 0.0
C2190 C 0.0715 0.77631 0.75417 0.0
C2191 C 0.06263 0.75942 0.72712 0.0
C2192 C 0.09514 0.77522 0.76979 0.0
C2193 C 0.07671 0.74008 0.71685 0.0
C2194 C 0.10012 0.73861 0.7325 0.0
C2195 C 0.13449 0.75729 0.77241 0.0
C2196 C 0.14495 0.77674 0.79706 0.0
C2197 C 0.10981 0.7566 0.7585 0.0
C2198 C 0.12975 0.79423 0.80906 0.0
C2199 C 0.10495 0.79337 0.79563 0.0
H2200 H 0.16816 0.47632 0.5158 0.0
H2201 H 0.14684 0.42794 0.57976 0.0
H2202 H 0.13013 0.46419 0.60653 0.0
H2203 H 0.11242 0.50535 0.60436 0.0
H2204 H 0.1329 0.55284 0.53955 0.0
H2205 H 0.15946 0.52185 0.5211 0.0
C2206 C 0.16069 0.47403 0.53618 0.0
C2207 C 0.15814 0.44926 0.54529 0.0
C2208 C 0.15061 0.49483 0.5512 0.0
C2209 C 0.14871 0.4467 0.57197 0.0
C2210 C 0.13896 0.4674 0.58725 0.0
C2211 C 0.12378 0.50953 0.58726 0.0
C2212 C 0.12073 0.53133 0.57336 0.0
C2213 C 0.13846 0.491 0.57607 0.0
C2214 C 0.13502 0.5363 0.55074 0.0
C2215 C 0.15005 0.51836 0.53991 0.0
H2216 H 0.43942 0.33865 0.24585 0.0
H2217 H 0.47345 0.28064 0.28751 0.0
H2218 H 0.46632 0.30204 0.33564 0.0
H2219 H 0.45158 0.33774 0.36606 0.0
H2220 H 0.41443 0.39378 0.32369 0.0
H2221 H 0.42263 0.37324 0.27628 0.0
C2222 C 0.44479 0.33038 0.26539 0.0
C2223 C 0.45689 0.30805 0.26299 0.0
C2224 C 0.44065 0.34279 0.29314 0.0
C2225 C 0.46396 0.29773 0.28861 0.0
C2226 C 0.46012 0.31012 0.31625 0.0
C2227 C 0.44498 0.34552 0.34664 0.0
C2228 C 0.4323 0.36757 0.34925 0.0
C2229 C 0.4487 0.33283 0.31884 0.0
C2230 C 0.42474 0.37737 0.32326 0.0
C2231 C 0.429 0.36528 0.2957 0.0
H2232 H 0.67566 0.56518 0.45571 0.0
H2233 H 0.63912 0.61266 0.40047 0.0
H2234 H 0.60903 0.61966 0.43527 0.0
H2235 H 0.59204 0.61279 0.48218 0.0
H2236 H 0.62554 0.56191 0.53538 0.0
H2237 H 0.65672 0.55593 0.50146 0.0
C2238 C 0.66124 0.5772 0.45124 0.0
C2239 C 0.66044 0.58864 0.42492 0.0
C2240 C 0.64284 0.58051 0.47136 0.0
C2241 C 0.64083 0.6036 0.42007 0.0
C2242 C 0.62335 0.60765 0.44021 0.0
C2243 C 0.60598 0.60017 0.48639 0.0
C2244 C 0.6058 0.58784 0.51198 0.0
C2245 C 0.62394 0.59623 0.46602 0.0
C2246 C 0.62449 0.57164 0.51624 0.0
C2247 C 0.64267 0.56827 0.49667 0.0
H2248 H 0.29502 0.94267 0.19305 0.0
H2249 H 0.25096 0.86863 0.14754 0.0
H2250 H 0.26548 0.84671 0.18833 0.0
H2251 H 0.29021 0.84889 0.23783 0.0
H2252 H 0.33169 0.92389 0.28405 0.0
H2253 H 0.31913 0.94498 0.24204 0.0
C2254 C 0.28851 0.92173 0.19203 0.0
C2255 C 0.27184 0.90735 0.16722 0.0
C2256 C 0.2968 0.90934 0.21564 0.0
C2257 C 0.26363 0.88024 0.1664 0.0
C2258 C 0.27206 0.86766 0.18968 0.0
C2259 C 0.29687 0.86972 0.23836 0.0
C2260 C 0.31228 0.88473 0.2638 0.0
C2261 C 0.28869 0.882 0.21445 0.0
C2262 C 0.32012 0.91188 0.26459 0.0
C2263 C 0.31278 0.92398 0.24065 0.0
H2264 H 1.01121 0.66561 0.9315 0.0
H2265 H 1.00115 0.58739 0.87981 0.0
H2266 H 1.01639 0.56993 0.92325 0.0
H2267 H 1.03005 0.57575 0.97645 0.0
H2268 H 0.04206 0.65336 0.02925 0.0
H2269 H 1.02896 0.67211 0.98517 0.0
C2270 C 1.01265 0.64483 0.92971 0.0
C2271 C 1.00481 0.62789 0.90219 0.0
C2272 C 1.02172 0.63471 0.95511 0.0
C2273 C 1.00692 0.60099 0.90047 0.0
C2274 C 1.01562 0.59088 0.92542 0.0
C2275 C 1.03006 0.59685 0.9783 0.0
C2276 C 0.03688 0.61308 1.00617 0.0
C2277 C 1.02267 0.60741 0.9529 0.0
C2278 C 0.03699 0.6404 1.00809 0.0
C2279 C 1.02934 0.65109 0.98285 0.0
H2280 H 0.27756 0.17547 0.5856 0.0
H2281 H 0.32347 0.22672 0.54027 0.0
H2282 H 0.33599 0.25897 0.58579 0.0
H2283 H 0.32958 0.27464 0.63674 0.0
H2284 H 0.28309 0.2234 0.68151 0.0
H2285 H 0.27547 0.18876 0.63807 0.0
C2286 C 0.29058 0.19355 0.58585 0.0
C2287 C 0.29926 0.19905 0.55972 0.0
C2288 C 0.2975 0.21196 0.61191 0.0
C2289 C 0.31644 0.22225 0.56023 0.0
C2290 C 0.32351 0.2407 0.58616 0.0
C2291 C 0.31808 0.25573 0.63699 0.0
C2292 C 0.30666 0.25157 0.66196 0.0
C2293 C 0.31349 0.2361 0.61185 0.0
C2294 C 0.29212 0.22694 0.66245 0.0
C2295 C 0.28759 0.20723 0.6376 0.0
H2296 H 0.63521 0.58796 0.28233 0.0
H2297 H 0.69825 0.56298 0.24299 0.0
H2298 H 0.67601 0.56358 0.19373 0.0
H2299 H 0.63869 0.57257 0.16115 0.0
H2300 H 0.5774 0.60075 0.20166 0.0
H2301 H 0.59857 0.59744 0.25026 0.0
C2302 C 0.64406 0.58243 0.263 0.0
C2303 C 0.66849 0.5752 0.26675 0.0
C2304 C 0.63133 0.58348 0.23453 0.0
C2305 C 0.67956 0.56854 0.24113 0.0
C2306 C 0.66677 0.5689 0.21278 0.0
C2307 C 0.62987 0.57779 0.18057 0.0
C2308 C 0.60619 0.58683 0.17729 0.0
C2309 C 0.64265 0.57651 0.20907 0.0
C2310 C 0.59547 0.5938 0.2031 0.0
C2311 C 0.60763 0.59189 0.23112 0.0
H2312 H 0.24497 0.90072 0.98733 0.0
H2313 H 0.30798 0.88769 0.0471 0.0
H2314 H 0.32579 0.86604 1.00584 0.0
H2315 H 0.32518 0.85289 0.95218 0.0
H2316 H 0.26218 0.86542 0.89212 0.0
H2317 H 0.24286 0.88467 0.9336 0.0
C2318 C 0.26244 0.89289 0.99136 0.0
C2319 C 0.27505 0.89605 0.02053 0.0
C2320 C 0.27279 0.88032 0.96726 0.0
C2321 C 0.29775 0.8857 0.02507 0.0
C2322 C 0.30806 0.87328 1.00138 0.0
C2323 C 0.30707 0.85951 0.94816 0.0
C2324 C 0.29531 0.8577 0.91886 0.0
C2325 C 0.29599 0.87077 0.97229 0.0
C2326 C 0.27179 0.86649 0.9143 0.0
C2327 C 0.2607 0.87765 0.9381 0.0
H2328 H 0.03441 0.6496 0.7648 0.0
H2329 H 0.96118 0.60271 0.72972 0.0
H2330 H 0.97759 0.58491 0.68558 0.0
H2331 H 1.01251 0.58252 0.65617 0.0
H2332 H 0.08553 0.63025 0.6897 0.0
H2333 H 0.0696 0.64746 0.73475 0.0
C2334 C 1.02206 0.63556 0.74746 0.0
C2335 C 0.99654 0.62762 0.75081 0.0
C2336 C 1.03164 0.62527 0.72171 0.0
C2337 C 0.98088 0.60933 0.72795 0.0
C2338 C 0.99026 0.599 0.70258 0.0
C2339 C 1.02505 0.59643 0.67346 0.0
C2340 C 0.05029 0.60482 0.6695 0.0
C2341 C 1.01561 0.60672 0.69918 0.0
C2342 C 0.06605 0.62329 0.69207 0.0
C2343 C 0.05692 0.63325 0.7179 0.0
H2344 H 0.27419 0.2375 0.44902 0.0
H2345 H 0.27034 0.17094 0.37947 0.0
H2346 H 0.27881 0.20105 0.34466 0.0
H2347 H 0.28978 0.24579 0.3349 0.0
H2348 H 0.29357 0.31286 0.40364 0.0
H2349 H 0.2824 0.28286 0.43817 0.0
C2350 C 0.27504 0.22959 0.42618 0.0
C2351 C 0.27189 0.20203 0.41682 0.0
C2352 C 0.27998 0.24702 0.40636 0.0
C2353 C 0.27278 0.19204 0.38717 0.0
C2354 C 0.27768 0.20924 0.36732 0.0
C2355 C 0.28809 0.25393 0.35743 0.0
C2356 C 0.2928 0.28145 0.36696 0.0
C2357 C 0.28172 0.23669 0.37684 0.0
C2358 C 0.29014 0.29171 0.39598 0.0
C2359 C 0.28382 0.27458 0.41563 0.0
H2360 H 0.4259 0.66539 0.56142 0.0
H2361 H 0.47907 0.73785 0.59081 0.0
H2362 H 0.51437 0.7137 0.58406 0.0
H2363 H 0.53023 0.67189 0.57291 0.0
H2364 H 0.47775 0.59896 0.54418 0.0
H2365 H 0.44204 0.6235 0.54671 0.0
C2366 C 0.44522 0.67593 0.56632 0.0
C2367 C 0.44977 0.70348 0.57701 0.0
C2368 C 0.46551 0.66186 0.56219 0.0
C2369 C 0.47494 0.71675 0.58282 0.0
C2370 C 0.49515 0.70292 0.57888 0.0
C2371 C 0.51098 0.6613 0.56667 0.0
C2372 C 0.50675 0.63349 0.55832 0.0
C2373 C 0.49067 0.67547 0.56892 0.0
C2374 C 0.48165 0.62028 0.5503 0.0
C2375 C 0.46122 0.63433 0.55215 0.0
H2376 H 0.92509 1.01019 0.64112 0.0
H2377 H 0.93898 0.08803 0.69383 0.0
H2378 H 0.97922 0.09812 0.67444 0.0
H2379 H 1.00994 0.08462 0.64096 0.0
H2380 H 0.99515 1.00564 0.59051 0.0
H2381 H 0.95563 0.99629 0.61029 0.0
C2382 C 0.93695 0.02937 0.64851 0.0
C2383 C 0.92909 0.04839 0.6687 0.0
C2384 C 0.9598 0.03487 0.63741 0.0
C2385 C 0.94475 0.07303 0.67833 0.0
C2386 C 0.96764 0.07883 0.66711 0.0
C2387 C 0.99792 0.06548 0.63433 0.0
C2388 C 1.00528 0.04589 0.61417 0.0
C2389 C 0.97525 0.05995 0.64635 0.0
C2390 C 0.98984 1.02102 0.60597 0.0
C2391 C 0.96725 1.01561 0.61728 0.0
H2392 H 0.92112 0.20614 0.33887 0.0
H2393 H 0.85006 0.15249 0.31968 0.0
H2394 H 0.82708 0.18998 0.32391 0.0
H2395 H 0.82587 0.23912 0.33301 0.0
H2396 H 0.89673 0.29306 0.35096 0.0
H2397 H 0.91987 0.25558 0.34734 0.0
C2398 C 0.90058 0.20238 0.33553 0.0
C2399 C 0.88789 0.17527 0.32882 0.0
C2400 C 0.8869 0.22479 0.3379 0.0
C2401 C 0.86104 0.17221 0.32477 0.0
C2402 C 0.84762 0.19406 0.32725 0.0
C2403 C 0.84641 0.24298 0.33633 0.0
C2404 C 0.85896 0.27011 0.34266 0.0
C2405 C 0.86012 0.22065 0.33385 0.0
C2406 C 0.88583 0.2733 0.34632 0.0
C2407 C 0.89934 0.25145 0.34416 0.0
H2408 H 0.80774 0.18032 0.04758 0.0
H2409 H 0.834 0.18716 0.1406 0.0
H2410 H 0.79518 0.15904 0.14655 0.0
H2411 H 0.75229 0.13661 0.12641 0.0
H2412 H 0.726 0.12859 0.03319 0.0
H2413 H 0.76643 0.15325 0.02626 0.0
C2414 C 0.80504 0.17539 0.06907 0.0
C2415 C 0.82349 0.18601 0.09368 0.0
C2416 C 0.78267 0.15925 0.07234 0.0
C2417 C 0.81997 0.17929 0.12135 0.0
C2418 C 0.79777 0.16328 0.12478 0.0
C2419 C 0.75556 0.13952 0.10439 0.0
C2420 C 0.73599 0.13096 0.08042 0.0
C2421 C 0.77878 0.15365 0.10056 0.0
C2422 C 0.74056 0.13539 0.05214 0.0
C2423 C 0.76369 0.14943 0.04814 0.0
H2424 H 0.18757 0.43266 0.30555 0.0
H2425 H 0.22748 0.48406 0.3843 0.0
H2426 H 0.25542 0.452 0.39235 0.0
H2427 H 0.27132 0.41136 0.37472 0.0
H2428 H 0.23396 0.36145 0.294 0.0
H2429 H 0.20211 0.39019 0.28946 0.0
C2430 C 0.20211 0.4366 0.32471 0.0
C2431 C 0.20545 0.46085 0.3442 0.0
C2432 C 0.21871 0.41823 0.32887 0.0
C2433 C 0.22456 0.46569 0.3688 0.0
C2434 C 0.24061 0.44733 0.37345 0.0
C2435 C 0.25602 0.4065 0.35633 0.0
C2436 C 0.25503 0.38394 0.33482 0.0
C2437 C 0.23831 0.42382 0.35326 0.0
C2438 C 0.23503 0.37827 0.31114 0.0
C2439 C 0.21691 0.39496 0.30836 0.0
H2440 H 0.31931 0.60692 0.16795 0.0
H2441 H 0.2803 0.55786 0.22141 0.0
H2442 H 0.24048 0.57251 0.2053 0.0
H2443 H 0.21591 0.59425 0.17059 0.0
H2444 H 0.25521 0.64291 0.11685 0.0
H2445 H 0.29569 0.63313 0.13828 0.0
C2446 C 0.30221 0.59983 0.17657 0.0
C2447 C 0.30271 0.58109 0.19558 0.0
C2448 C 0.27931 0.60781 0.16665 0.0
C2449 C 0.28042 0.57223 0.20668 0.0
C2450 C 0.25759 0.58045 0.19728 0.0
C2451 C 0.23335 0.60324 0.16404 0.0
C2452 C 0.23239 0.61892 0.14167 0.0
C2453 C 0.25665 0.59748 0.17643 0.0
C2454 C 0.25527 0.63023 0.13342 0.0
C2455 C 0.27847 0.62478 0.1458 0.0
H2456 H 0.88891 1.02007 0.36636 0.0
H2457 H 0.8736 1.01161 0.27174 0.0
H2458 H 0.85422 0.96531 0.2688 0.0
H2459 H 0.84246 0.9251 0.29286 0.0
H2460 H 0.85885 0.9341 0.38748 0.0
H2461 H 0.87613 0.98078 0.39029 0.0
C2462 C 0.88122 1.00832 0.34496 0.0
C2463 C 0.88308 1.02044 0.31926 0.0
C2464 C 0.86986 0.98099 0.34333 0.0
C2465 C 0.87279 1.00382 0.29208 0.0
C2466 C 0.86154 0.97691 0.29037 0.0
C2467 C 0.84921 0.9373 0.31424 0.0
C2468 C 0.84834 0.92519 0.34011 0.0
C2469 C 0.85993 0.96494 0.31579 0.0
C2470 C 0.85841 0.94208 0.36714 0.0
C2471 C 0.86863 0.96915 0.36878 0.0
H2472 H 0.7501 0.08501 0.82407 0.0
H2473 H 0.68236 0.12049 0.82561 0.0
H2474 H 0.70496 0.16115 0.81445 0.0
H2475 H 0.74348 0.18622 0.80301 0.0
H2476 H 0.81195 0.1523 0.80332 0.0
H2477 H 0.78958 0.11118 0.8149 0.0
C2478 C 0.74039 0.10173 0.82217 0.0
C2479 C 0.71462 0.09979 0.82557 0.0
C2480 C 0.75354 0.12512 0.81585 0.0
C2481 C 0.70222 0.12157 0.82316 0.0
C2482 C 0.71507 0.14477 0.81665 0.0
C2483 C 0.75338 0.16969 0.80551 0.0
C2484 C 0.77903 0.1718 0.80197 0.0
C2485 C 0.7406 0.14664 0.81268 0.0
C2486 C 0.79205 0.15075 0.80578 0.0
C2487 C 0.77931 0.12739 0.81242 0.0
loop_
_geom_bond_atom_site_label_1
_geom_bond_atom_site_label_2
_geom_bond_distance
_geom_bond_site_symmetry_2
_ccdc_geom_bond_type
In0 O1 2.294 . S
In0 O2 2.326 . S
In0 O6 2.266 . S
In0 O7 2.326 . S
In0 O8 2.266 . S
In0 O9 2.326 . S
In0 O11 2.294 . S
In0 O12 2.326 . S
O1 In0 2.294 . S
O1 C10 1.240 . S
O2 In0 2.326 . S
O2 C10 1.252 . S
C3 O6 1.252 . S
C3 O7 1.260 . S
C4 O11 1.240 . S
C4 O12 1.252 . S
C5 O8 1.252 . S
C5 O9 1.260 . S
O6 In0 2.266 . S
O6 C3 1.252 . S
O7 In0 2.326 . S
O7 C3 1.260 . S
O8 In0 2.266 . S
O8 C5 1.252 . S
O9 In0 2.326 . S
O9 C5 1.260 . S
C10 O1 1.240 . S
C10 O2 1.252 . S
O11 In0 2.294 . S
O11 C4 1.240 . S
O12 In0 2.326 . S
O12 C4 1.252 . S
In13 O14 2.294 . S
In13 O15 2.326 . S
In13 O19 2.266 1_455 S
In13 O20 2.326 1_455 S
In13 O21 2.264 1_455 S
In13 O22 2.322 1_455 S
In13 O24 2.296 . S
In13 O25 2.330 . S
O14 In13 2.294 . S
O14 C23 1.240 . S
O15 In13 2.326 . S
O15 C23 1.252 . S
C16 O19 1.252 . S
C16 O20 1.260 . S
C17 O24 1.240 . S
C17 O25 1.252 . S
C18 O21 1.252 . S
C18 O22 1.260 . S
O19 In13 2.266 1_655 S
O19 C16 1.252 . S
O20 In13 2.326 1_655 S
O20 C16 1.260 . S
O21 In13 2.264 1_655 S
O21 C18 1.252 . S
O22 In13 2.322 1_655 S
O22 C18 1.260 . S
C23 O14 1.240 . S
C23 O15 1.252 . S
O24 In13 2.296 . S
O24 C17 1.240 . S
O25 In13 2.330 . S
O25 C17 1.252 . S
In26 O27 2.294 . S
In26 O28 2.326 1_556 S
In26 O32 2.266 . S
In26 O33 2.326 1_556 S
In26 O34 2.266 1_556 S
In26 O35 2.326 . S
In26 O37 2.294 1_556 S
In26 O38 2.326 . S
O27 In26 2.294 . S
O27 C36 1.240 . S
O28 In26 2.326 1_554 S
O28 C36 1.252 1_554 S
C29 O32 1.252 . S
C29 O33 1.260 1_556 S
C30 O37 1.240 . S
C30 O38 1.252 1_554 S
C31 O34 1.252 . S
C31 O35 1.260 1_554 S
O32 In26 2.266 . S
O32 C29 1.252 . S
O33 In26 2.326 1_554 S
O33 C29 1.260 1_554 S
O34 In26 2.266 1_554 S
O34 C31 1.252 . S
O35 In26 2.326 . S
O35 C31 1.260 1_556 S
C36 O27 1.240 . S
C36 O28 1.252 1_556 S
O37 In26 2.294 1_554 S
O37 C30 1.240 . S
O38 In26 2.326 . S
O38 C30 1.252 1_556 S
In39 O40 2.294 . S
In39 O41 2.326 . S
In39 O45 2.266 . S
In39 O46 2.326 . S
In39 O47 2.266 . S
In39 O48 2.326 . S
In39 O50 2.294 . S
In39 O51 2.326 . S
O40 In39 2.294 . S
O40 C49 1.240 . S
O41 In39 2.326 . S
O41 C49 1.252 . S
C42 O45 1.252 . S
C42 O46 1.260 . S
C43 O50 1.240 . S
C43 O51 1.252 . S
C44 O47 1.252 . S
C44 O48 1.260 . S
O45 In39 2.266 . S
O45 C42 1.252 . S
O46 In39 2.326 . S
O46 C42 1.260 . S
O47 In39 2.266 . S
O47 C44 1.252 . S
O48 In39 2.326 . S
O48 C44 1.260 . S
C49 O40 1.240 . S
C49 O41 1.252 . S
O50 In39 2.294 . S
O50 C43 1.240 . S
O51 In39 2.326 . S
O51 C43 1.252 . S
In52 O53 2.294 . S
In52 O54 2.326 . S
In52 O58 2.266 . S
In52 O59 2.326 . S
In52 O60 2.266 . S
In52 O61 2.326 . S
In52 O63 2.294 . S
In52 O64 2.326 1_455 S
O53 In52 2.294 . S
O53 C62 1.240 . S
O54 In52 2.326 . S
O54 C62 1.252 . S
C55 O58 1.252 . S
C55 O59 1.260 . S
C56 O63 1.240 1_655 S
C56 O64 1.252 . S
C57 O60 1.252 . S
C57 O61 1.260 . S
O58 In52 2.266 . S
O58 C55 1.252 . S
O59 In52 2.326 . S
O59 C55 1.260 . S
O60 In52 2.266 . S
O60 C57 1.252 . S
O61 In52 2.326 . S
O61 C57 1.260 . S
C62 O53 1.240 . S
C62 O54 1.252 . S
O63 In52 2.294 . S
O63 C56 1.240 1_455 S
O64 In52 2.326 1_655 S
O64 C56 1.252 . S
In65 O66 2.294 . S
In65 O67 2.326 . S
In65 O71 2.266 . S
In65 O72 2.326 . S
In65 O73 2.266 . S
In65 O74 2.326 . S
In65 O76 2.294 . S
In65 O77 2.326 . S
O66 In65 2.294 . S
O66 C75 1.240 . S
O67 In65 2.326 . S
O67 C75 1.252 . S
C68 O71 1.252 . S
C68 O72 1.260 . S
C69 O76 1.240 . S
C69 O77 1.252 . S
C70 O73 1.252 . S
C70 O74 1.260 . S
O71 In65 2.266 . S
O71 C68 1.252 . S
O72 In65 2.326 . S
O72 C68 1.260 . S
O73 In65 2.266 . S
O73 C70 1.252 . S
O74 In65 2.326 . S
O74 C70 1.260 . S
C75 O66 1.240 . S
C75 O67 1.252 . S
O76 In65 2.294 . S
O76 C69 1.240 . S
O77 In65 2.326 . S
O77 C69 1.252 . S
In78 O79 2.294 . S
In78 O80 2.326 . S
In78 O84 2.266 . S
In78 O85 2.326 . S
In78 O86 2.266 . S
In78 O87 2.326 . S
In78 O89 2.294 . S
In78 O90 2.326 . S
O79 In78 2.294 . S
O79 C88 1.240 . S
O80 In78 2.326 . S
O80 C88 1.252 . S
C81 O84 1.252 . S
C81 O85 1.260 . S
C82 O89 1.240 . S
C82 O90 1.252 . S
C83 O86 1.252 . S
C83 O87 1.260 . S
O84 In78 2.266 . S
O84 C81 1.252 . S
O85 In78 2.326 . S
O85 C81 1.260 . S
O86 In78 2.266 . S
O86 C83 1.252 . S
O87 In78 2.326 . S
O87 C83 1.260 . S
C88 O79 1.240 . S
C88 O80 1.252 . S
O89 In78 2.294 . S
O89 C82 1.240 . S
O90 In78 2.326 . S
O90 C82 1.252 . S
In91 O92 2.294 . S
In91 O93 2.326 . S
In91 O97 2.266 . S
In91 O98 2.326 . S
In91 O99 2.266 . S
In91 O100 2.326 . S
In91 O102 2.294 . S
In91 O103 2.326 . S
O92 In91 2.294 . S
O92 C101 1.240 . S
O93 In91 2.326 . S
O93 C101 1.252 . S
C94 O97 1.252 . S
C94 O98 1.260 . S
C95 O102 1.240 . S
C95 O103 1.252 . S
C96 O99 1.252 1_655 S
C96 O100 1.260 1_655 S
O97 In91 2.266 . S
O97 C94 1.252 . S
O98 In91 2.326 . S
O98 C94 1.260 . S
O99 In91 2.266 . S
O99 C96 1.252 1_455 S
O100 In91 2.326 . S
O100 C96 1.260 1_455 S
C101 O92 1.240 . S
C101 O93 1.252 . S
O102 In91 2.294 . S
O102 C95 1.240 . S
O103 In91 2.326 . S
O103 C95 1.252 . S
In104 O105 2.294 . S
In104 O106 2.326 . S
In104 O110 2.266 . S
In104 O111 2.326 . S
In104 O112 2.266 . S
In104 O113 2.326 . S
In104 O115 2.294 . S
In104 O116 2.326 . S
O105 In104 2.294 . S
O105 C114 1.240 . S
O106 In104 2.326 . S
O106 C114 1.252 . S
C107 O110 1.252 . S
C107 O111 1.260 . S
C108 O115 1.240 . S
C108 O116 1.252 . S
C109 O112 1.252 . S
C109 O113 1.260 . S
O110 In104 2.266 . S
O110 C107 1.252 . S
O111 In104 2.326 . S
O111 C107 1.260 . S
O112 In104 2.266 . S
O112 C109 1.252 . S
O113 In104 2.326 . S
O113 C109 1.260 . S
C114 O105 1.240 . S
C114 O106 1.252 . S
O115 In104 2.294 . S
O115 C108 1.240 . S
O116 In104 2.326 . S
O116 C108 1.252 . S
In117 O118 2.294 . S
In117 O119 2.326 . S
In117 O123 2.266 . S
In117 O124 2.326 . S
In117 O125 2.266 . S
In117 O126 2.326 . S
In117 O128 2.294 . S
In117 O129 2.326 . S
O118 In117 2.294 . S
O118 C127 1.240 . S
O119 In117 2.326 . S
O119 C127 1.252 . S
C120 O123 1.252 . S
C120 O124 1.260 . S
C121 O128 1.240 . S
C121 O129 1.252 . S
C122 O125 1.252 . S
C122 O126 1.260 . S
O123 In117 2.266 . S
O123 C120 1.252 . S
O124 In117 2.326 . S
O124 C120 1.260 . S
O125 In117 2.266 . S
O125 C122 1.252 . S
O126 In117 2.326 . S
O126 C122 1.260 . S
C127 O118 1.240 . S
C127 O119 1.252 . S
O128 In117 2.294 . S
O128 C121 1.240 . S
O129 In117 2.326 . S
O129 C121 1.252 . S
In130 O131 2.294 . S
In130 O132 2.326 . S
In130 O136 2.266 . S
In130 O137 2.326 . S
In130 O138 2.266 . S
In130 O139 2.326 . S
In130 O141 2.294 . S
In130 O142 2.326 . S
O131 In130 2.294 . S
O131 C140 1.240 . S
O132 In130 2.326 . S
O132 C140 1.252 . S
C133 O136 1.252 . S
C133 O137 1.260 . S
C134 O141 1.240 . S
C134 O142 1.252 . S
C135 O138 1.252 . S
C135 O139 1.260 . S
O136 In130 2.266 . S
O136 C133 1.252 . S
O137 In130 2.326 . S
O137 C133 1.260 . S
O138 In130 2.266 . S
O138 C135 1.252 . S
O139 In130 2.326 . S
O139 C135 1.260 . S
C140 O131 1.240 . S
C140 O132 1.252 . S
O141 In130 2.294 . S
O141 C134 1.240 . S
O142 In130 2.326 . S
O142 C134 1.252 . S
In143 O144 2.294 . S
In143 O145 2.326 . S
In143 O149 2.266 . S
In143 O150 2.326 . S
In143 O151 2.266 . S
In143 O152 2.326 . S
In143 O154 2.294 . S
In143 O155 2.326 . S
O144 In143 2.294 . S
O144 C153 1.240 . S
O145 In143 2.326 . S
O145 C153 1.252 . S
C146 O149 1.252 . S
C146 O150 1.260 . S
C147 O154 1.240 . S
C147 O155 1.252 . S
C148 O151 1.252 . S
C148 O152 1.260 . S
O149 In143 2.266 . S
O149 C146 1.252 . S
O150 In143 2.326 . S
O150 C146 1.260 . S
O151 In143 2.266 . S
O151 C148 1.252 . S
O152 In143 2.326 . S
O152 C148 1.260 . S
C153 O144 1.240 . S
C153 O145 1.252 . S
O154 In143 2.294 . S
O154 C147 1.240 . S
O155 In143 2.326 . S
O155 C147 1.252 . S
In156 O157 2.294 . S
In156 O158 2.326 . S
In156 O162 2.266 . S
In156 O163 2.326 . S
In156 O164 2.266 . S
In156 O165 2.326 . S
In156 O167 2.294 . S
In156 O168 2.326 . S
O157 In156 2.294 . S
O157 C166 1.240 . S
O158 In156 2.326 . S
O158 C166 1.252 . S
C159 O162 1.252 . S
C159 O163 1.260 . S
C160 O167 1.240 . S
C160 O168 1.252 . S
C161 O164 1.252 . S
C161 O165 1.260 . S
O162 In156 2.266 . S
O162 C159 1.252 . S
O163 In156 2.326 . S
O163 C159 1.260 . S
O164 In156 2.266 . S
O164 C161 1.252 . S
O165 In156 2.326 . S
O165 C161 1.260 . S
C166 O157 1.240 . S
C166 O158 1.252 . S
O167 In156 2.294 . S
O167 C160 1.240 . S
O168 In156 2.326 . S
O168 C160 1.252 . S
In169 O170 2.294 . S
In169 O171 2.326 . S
In169 O175 2.266 . S
In169 O176 2.326 . S
In169 O177 2.266 . S
In169 O178 2.326 . S
In169 O180 2.294 . S
In169 O181 2.326 . S
O170 In169 2.294 . S
O170 C179 1.240 . S
O171 In169 2.326 . S
O171 C179 1.252 . S
C172 O175 1.252 . S
C172 O176 1.260 . S
C173 O180 1.240 . S
C173 O181 1.252 . S
C174 O177 1.252 . S
C174 O178 1.260 . S
O175 In169 2.266 . S
O175 C172 1.252 . S
O176 In169 2.326 . S
O176 C172 1.260 . S
O177 In169 2.266 . S
O177 C174 1.252 . S
O178 In169 2.326 . S
O178 C174 1.260 . S
C179 O170 1.240 . S
C179 O171 1.252 . S
O180 In169 2.294 . S
O180 C173 1.240 . S
O181 In169 2.326 . S
O181 C173 1.252 . S
In182 O183 2.294 . S
In182 O184 2.326 . S
In182 O188 2.266 . S
In182 O189 2.326 . S
In182 O190 2.266 . S
In182 O191 2.326 . S
In182 O193 2.294 . S
In182 O194 2.326 . S
O183 In182 2.294 . S
O183 C192 1.240 . S
O184 In182 2.326 . S
O184 C192 1.252 . S
C185 O188 1.252 . S
C185 O189 1.260 . S
C186 O193 1.240 . S
C186 O194 1.252 . S
C187 O190 1.252 . S
C187 O191 1.260 . S
O188 In182 2.266 . S
O188 C185 1.252 . S
O189 In182 2.326 . S
O189 C185 1.260 . S
O190 In182 2.266 . S
O190 C187 1.252 . S
O191 In182 2.326 . S
O191 C187 1.260 . S
C192 O183 1.240 . S
C192 O184 1.252 . S
O193 In182 2.294 . S
O193 C186 1.240 . S
O194 In182 2.326 . S
O194 C186 1.252 . S
In195 O196 2.294 . S
In195 O197 2.326 . S
In195 O201 2.266 . S
In195 O202 2.326 . S
In195 O203 2.266 1_565 S
In195 O204 2.326 . S
In195 O206 2.294 1_565 S
In195 O207 2.326 . S
O196 In195 2.294 . S
O196 C205 1.240 . S
O197 In195 2.326 . S
O197 C205 1.252 . S
C198 O201 1.252 . S
C198 O202 1.260 . S
C199 O206 1.240 . S
C199 O207 1.252 1_545 S
C200 O203 1.252 . S
C200 O204 1.260 1_545 S
O201 In195 2.266 . S
O201 C198 1.252 . S
O202 In195 2.326 . S
O202 C198 1.260 . S
O203 In195 2.266 1_545 S
O203 C200 1.252 . S
O204 In195 2.326 . S
O204 C200 1.260 1_565 S
C205 O196 1.240 . S
C205 O197 1.252 . S
O206 In195 2.294 1_545 S
O206 C199 1.240 . S
O207 In195 2.326 . S
O207 C199 1.252 1_565 S
In208 O209 2.294 . S
In208 O210 2.326 . S
In208 O214 2.266 . S
In208 O215 2.326 . S
In208 O216 2.266 . S
In208 O217 2.326 . S
In208 O219 2.294 . S
In208 O220 2.326 . S
O209 In208 2.294 . S
O209 C218 1.240 . S
O210 In208 2.326 . S
O210 C218 1.252 . S
C211 O214 1.252 . S
C211 O215 1.260 . S
C212 O219 1.240 . S
C212 O220 1.252 . S
C213 O216 1.252 . S
C213 O217 1.260 . S
O214 In208 2.266 . S
O214 C211 1.252 . S
O215 In208 2.326 . S
O215 C211 1.260 . S
O216 In208 2.266 . S
O216 C213 1.252 . S
O217 In208 2.326 . S
O217 C213 1.260 . S
C218 O209 1.240 . S
C218 O210 1.252 . S
O219 In208 2.294 . S
O219 C212 1.240 . S
O220 In208 2.326 . S
O220 C212 1.252 . S
In221 O222 2.294 . S
In221 O223 2.326 . S
In221 O227 2.266 . S
In221 O228 2.326 . S
In221 O229 2.266 . S
In221 O230 2.326 . S
In221 O232 2.294 . S
In221 O233 2.326 . S
O222 In221 2.294 . S
O222 C231 1.240 . S
O223 In221 2.326 . S
O223 C231 1.252 . S
C224 O227 1.252 . S
C224 O228 1.260 . S
C225 O232 1.240 . S
C225 O233 1.252 . S
C226 O229 1.252 . S
C226 O230 1.260 . S
O227 In221 2.266 . S
O227 C224 1.252 . S
O228 In221 2.326 . S
O228 C224 1.260 . S
O229 In221 2.266 . S
O229 C226 1.252 . S
O230 In221 2.326 . S
O230 C226 1.260 . S
C231 O222 1.240 . S
C231 O223 1.252 . S
O232 In221 2.294 . S
O232 C225 1.240 . S
O233 In221 2.326 . S
O233 C225 1.252 . S
In234 O235 2.294 . S
In234 O236 2.326 . S
In234 O240 2.266 . S
In234 O241 2.326 . S
In234 O242 2.266 . S
In234 O243 2.326 . S
In234 O245 2.294 . S
In234 O246 2.326 . S
O235 In234 2.294 . S
O235 C244 1.240 . S
O236 In234 2.326 . S
O236 C244 1.252 . S
C237 O240 1.252 . S
C237 O241 1.260 . S
C238 O245 1.240 . S
C238 O246 1.252 . S
C239 O242 1.252 . S
C239 O243 1.260 . S
O240 In234 2.266 . S
O240 C237 1.252 . S
O241 In234 2.326 . S
O241 C237 1.260 . S
O242 In234 2.266 . S
O242 C239 1.252 . S
O243 In234 2.326 . S
O243 C239 1.260 . S
C244 O235 1.240 . S
C244 O236 1.252 . S
O245 In234 2.294 . S
O245 C238 1.240 . S
O246 In234 2.326 . S
O246 C238 1.252 . S
In247 O248 2.286 1_545 S
In247 O249 2.316 1_545 S
In247 O253 2.272 . S
In247 O254 2.336 . S
In247 O255 2.268 . S
In247 O256 2.325 . S
In247 O258 2.294 1_545 S
In247 O259 2.326 1_545 S
O248 In247 2.286 1_565 S
O248 C257 1.240 . S
O249 In247 2.316 1_565 S
O249 C257 1.252 . S
C250 O253 1.252 . S
C250 O254 1.260 . S
C251 O258 1.240 . S
C251 O259 1.252 . S
C252 O255 1.252 . S
C252 O256 1.260 . S
O253 In247 2.272 . S
O253 C250 1.252 . S
O254 In247 2.336 . S
O254 C250 1.260 . S
O255 In247 2.268 . S
O255 C252 1.252 . S
O256 In247 2.325 . S
O256 C252 1.260 . S
C257 O248 1.240 . S
C257 O249 1.252 . S
O258 In247 2.294 1_565 S
O258 C251 1.240 . S
O259 In247 2.326 1_565 S
O259 C251 1.252 . S
In260 O261 2.294 . S
In260 O262 2.326 . S
In260 O266 2.266 1_554 S
In260 O267 2.326 1_554 S
In260 O268 2.264 1_554 S
In260 O269 2.322 1_554 S
In260 O271 2.296 . S
In260 O272 2.330 . S
O261 In260 2.294 . S
O261 C270 1.240 . S
O262 In260 2.326 . S
O262 C270 1.252 . S
C263 O266 1.252 . S
C263 O267 1.260 . S
C264 O271 1.240 . S
C264 O272 1.252 . S
C265 O268 1.252 . S
C265 O269 1.260 . S
O266 In260 2.266 1_556 S
O266 C263 1.252 . S
O267 In260 2.326 1_556 S
O267 C263 1.260 . S
O268 In260 2.264 1_556 S
O268 C265 1.252 . S
O269 In260 2.322 1_556 S
O269 C265 1.260 . S
C270 O261 1.240 . S
C270 O262 1.252 . S
O271 In260 2.296 . S
O271 C264 1.240 . S
O272 In260 2.330 . S
O272 C264 1.252 . S
In273 O274 2.294 . S
In273 O275 2.326 . S
In273 O279 2.266 . S
In273 O280 2.326 . S
In273 O281 2.266 . S
In273 O282 2.326 . S
In273 O284 2.294 . S
In273 O285 2.326 . S
O274 In273 2.294 . S
O274 C283 1.240 . S
O275 In273 2.326 . S
O275 C283 1.252 . S
C276 O279 1.252 . S
C276 O280 1.260 . S
C277 O284 1.240 . S
C277 O285 1.252 . S
C278 O281 1.252 . S
C278 O282 1.260 . S
O279 In273 2.266 . S
O279 C276 1.252 . S
O280 In273 2.326 . S
O280 C276 1.260 . S
O281 In273 2.266 . S
O281 C278 1.252 . S
O282 In273 2.326 . S
O282 C278 1.260 . S
C283 O274 1.240 . S
C283 O275 1.252 . S
O284 In273 2.294 . S
O284 C277 1.240 . S
O285 In273 2.326 . S
O285 C277 1.252 . S
In286 O287 2.294 . S
In286 O288 2.326 . S
In286 O292 2.266 . S
In286 O293 2.326 . S
In286 O294 2.266 . S
In286 O295 2.326 . S
In286 O297 2.294 . S
In286 O298 2.326 . S
O287 In286 2.294 . S
O287 C296 1.240 . S
O288 In286 2.326 . S
O288 C296 1.252 . S
C289 O292 1.252 . S
C289 O293 1.260 . S
C290 O297 1.240 . S
C290 O298 1.252 . S
C291 O294 1.252 . S
C291 O295 1.260 . S
O292 In286 2.266 . S
O292 C289 1.252 . S
O293 In286 2.326 . S
O293 C289 1.260 . S
O294 In286 2.266 . S
O294 C291 1.252 . S
O295 In286 2.326 . S
O295 C291 1.260 . S
C296 O287 1.240 . S
C296 O288 1.252 . S
O297 In286 2.294 . S
O297 C290 1.240 . S
O298 In286 2.326 . S
O298 C290 1.252 . S
In299 O300 2.294 . S
In299 O301 2.326 . S
In299 O305 2.266 . S
In299 O306 2.326 . S
In299 O307 2.266 . S
In299 O308 2.326 . S
In299 O310 2.294 . S
In299 O311 2.326 . S
O300 In299 2.294 . S
O300 C309 1.240 . S
O301 In299 2.326 . S
O301 C309 1.252 . S
C302 O305 1.252 . S
C302 O306 1.260 . S
C303 O310 1.240 . S
C303 O311 1.252 . S
C304 O307 1.252 . S
C304 O308 1.260 . S
O305 In299 2.266 . S
O305 C302 1.252 . S
O306 In299 2.326 . S
O306 C302 1.260 . S
O307 In299 2.266 . S
O307 C304 1.252 . S
O308 In299 2.326 . S
O308 C304 1.260 . S
C309 O300 1.240 . S
C309 O301 1.252 . S
O310 In299 2.294 . S
O310 C303 1.240 . S
O311 In299 2.326 . S
O311 C303 1.252 . S
Nd312 C314 2.836 . S
Nd312 O332 2.500 . S
Nd312 O333 2.492 . S
Nd312 O334 2.487 . S
Nd312 O335 2.682 . S
Nd312 O336 2.410 . S
Nd312 O341 2.414 . S
Nd312 O343 2.424 . S
Nd313 C323 2.836 . S
Nd313 O335 2.414 . S
Nd313 O337 2.424 . S
Nd313 O338 2.500 . S
Nd313 O339 2.492 . S
Nd313 O340 2.487 . S
Nd313 O341 2.682 . S
Nd313 O342 2.410 . S
C314 Nd312 2.836 . S
C314 C315 1.498 . S
C314 O332 1.258 . S
C314 O333 1.239 . S
C315 C314 1.498 . S
C315 C316 1.366 . S
C315 C320 1.407 . S
C316 C315 1.366 . S
C316 C317 1.392 . S
C316 H344 0.930 . S
C317 C316 1.392 . S
C317 C318 1.398 . S
C317 H345 0.929 . S
C318 C317 1.398 . S
C318 C319 1.352 . S
C319 C318 1.352 . S
C319 C320 1.384 . S
C319 H346 0.930 . S
C320 C315 1.407 . S
C320 C319 1.384 . S
C320 H347 0.929 . S
C321 O334 1.241 . S
C321 O335 1.273 . S
C322 O336 1.251 . S
C322 O337 1.268 . S
C323 Nd313 2.836 . S
C323 C324 1.498 1_545 S
C323 O338 1.258 . S
C323 O339 1.239 . S
C324 C323 1.498 1_565 S
C324 C325 1.366 . S
C324 C329 1.407 . S
C325 C324 1.366 . S
C325 C326 1.392 . S
C325 H348 0.930 . S
C326 C325 1.392 . S
C326 C327 1.398 . S
C326 H349 0.929 . S
C327 C326 1.398 . S
C327 C328 1.352 . S
C328 C327 1.352 . S
C328 C329 1.384 . S
C328 H350 0.930 . S
C329 C324 1.407 . S
C329 C328 1.384 . S
C329 H351 0.929 . S
C330 O340 1.241 . S
C330 O341 1.273 . S
C331 O342 1.251 . S
C331 O343 1.268 . S
O332 Nd312 2.500 . S
O332 C314 1.258 . S
O333 Nd312 2.492 . S
O333 C314 1.239 . S
O334 Nd312 2.487 . S
O334 C321 1.241 . S
O335 Nd312 2.682 . S
O335 Nd313 2.414 . S
O335 C321 1.273 . S
O336 Nd312 2.410 . S
O336 C322 1.251 . S
O337 Nd313 2.424 . S
O337 C322 1.268 . S
O338 Nd313 2.500 . S
O338 C323 1.258 . S
O339 Nd313 2.492 . S
O339 C323 1.239 . S
O340 Nd313 2.487 . S
O340 C330 1.241 . S
O341 Nd312 2.414 . S
O341 Nd313 2.682 . S
O341 C330 1.273 . S
O342 Nd313 2.410 . S
O342 C331 1.251 . S
O343 Nd312 2.424 . S
O343 C331 1.268 . S
H344 C316 0.930 . S
H345 C317 0.929 . S
H346 C319 0.930 . S
H347 C320 0.929 . S
H348 C325 0.930 . S
H349 C326 0.929 . S
H350 C328 0.930 . S
H351 C329 0.929 . S
Nd352 C354 2.836 . S
Nd352 O372 2.500 . S
Nd352 O373 2.492 . S
Nd352 O374 2.487 . S
Nd352 O375 2.682 . S
Nd352 O376 2.410 . S
Nd352 O381 2.414 . S
Nd352 O383 2.424 . S
Nd353 C363 2.836 . S
Nd353 O375 2.414 . S
Nd353 O377 2.424 . S
Nd353 O378 2.500 . S
Nd353 O379 2.492 . S
Nd353 O380 2.487 . S
Nd353 O381 2.682 . S
Nd353 O382 2.410 . S
C354 Nd352 2.836 . S
C354 C355 1.498 . S
C354 O372 1.258 . S
C354 O373 1.239 . S
C355 C354 1.498 . S
C355 C356 1.366 . S
C355 C360 1.407 . S
C356 C355 1.366 . S
C356 C357 1.392 . S
C356 H384 0.930 . S
C357 C356 1.392 . S
C357 C358 1.398 . S
C357 H385 0.929 . S
C358 C357 1.398 . S
C358 C359 1.352 . S
C359 C358 1.352 . S
C359 C360 1.384 . S
C359 H386 0.930 . S
C360 C355 1.407 . S
C360 C359 1.384 . S
C360 H387 0.929 . S
C361 O374 1.241 . S
C361 O375 1.273 . S
C362 O376 1.251 . S
C362 O377 1.268 . S
C363 Nd353 2.836 . S
C363 C364 1.498 . S
C363 O378 1.258 . S
C363 O379 1.239 . S
C364 C363 1.498 . S
C364 C365 1.366 . S
C364 C369 1.407 . S
C365 C364 1.366 . S
C365 C366 1.392 . S
C365 H388 0.930 . S
C366 C365 1.392 . S
C366 C367 1.398 . S
C366 H389 0.929 . S
C367 C366 1.398 . S
C367 C368 1.352 . S
C368 C367 1.352 . S
C368 C369 1.384 . S
C368 H390 0.930 . S
C369 C364 1.407 . S
C369 C368 1.384 . S
C369 H391 0.929 . S
C370 O380 1.241 . S
C370 O381 1.273 . S
C371 O382 1.251 . S
C371 O383 1.268 . S
O372 Nd352 2.500 . S
O372 C354 1.258 . S
O373 Nd352 2.492 . S
O373 C354 1.239 . S
O374 Nd352 2.487 . S
O374 C361 1.241 . S
O375 Nd352 2.682 . S
O375 Nd353 2.414 . S
O375 C361 1.273 . S
O376 Nd352 2.410 . S
O376 C362 1.251 . S
O377 Nd353 2.424 . S
O377 C362 1.268 . S
O378 Nd353 2.500 . S
O378 C363 1.258 . S
O379 Nd353 2.492 . S
O379 C363 1.239 . S
O380 Nd353 2.487 . S
O380 C370 1.241 . S
O381 Nd352 2.414 . S
O381 Nd353 2.682 . S
O381 C370 1.273 . S
O382 Nd353 2.410 . S
O382 C371 1.251 . S
O383 Nd352 2.424 . S
O383 C371 1.268 . S
H384 C356 0.930 . S
H385 C357 0.929 . S
H386 C359 0.930 . S
H387 C360 0.929 . S
H388 C365 0.930 . S
H389 C366 0.929 . S
H390 C368 0.930 . S
H391 C369 0.929 . S
Nd392 C394 2.836 . S
Nd392 O412 2.500 . S
Nd392 O413 2.492 . S
Nd392 O414 2.487 . S
Nd392 O415 2.682 . S
Nd392 O416 2.410 . S
Nd392 O421 2.414 . S
Nd392 O423 2.424 . S
Nd393 C403 2.836 . S
Nd393 O415 2.414 . S
Nd393 O417 2.424 . S
Nd393 O418 2.500 . S
Nd393 O419 2.492 . S
Nd393 O420 2.487 . S
Nd393 O421 2.682 . S
Nd393 O422 2.410 . S
C394 Nd392 2.836 . S
C394 C395 1.498 . S
C394 O412 1.258 . S
C394 O413 1.239 . S
C395 C394 1.498 . S
C395 C396 1.366 . S
C395 C400 1.407 . S
C396 C395 1.366 . S
C396 C397 1.392 . S
C396 H424 0.930 . S
C397 C396 1.392 . S
C397 C398 1.398 . S
C397 H425 0.929 . S
C398 C397 1.398 . S
C398 C399 1.352 . S
C399 C398 1.352 . S
C399 C400 1.384 . S
C399 H426 0.930 . S
C400 C395 1.407 . S
C400 C399 1.384 . S
C400 H427 0.929 . S
C401 O414 1.241 . S
C401 O415 1.273 . S
C402 O416 1.251 . S
C402 O417 1.268 . S
C403 Nd393 2.836 . S
C403 C404 1.498 . S
C403 O418 1.258 . S
C403 O419 1.239 . S
C404 C403 1.498 . S
C404 C405 1.366 . S
C404 C409 1.407 . S
C405 C404 1.366 . S
C405 C406 1.392 . S
C405 H428 0.930 . S
C406 C405 1.392 . S
C406 C407 1.398 . S
C406 H429 0.929 . S
C407 C406 1.398 . S
C407 C408 1.352 . S
C408 C407 1.352 . S
C408 C409 1.384 . S
C408 H430 0.930 . S
C409 C404 1.407 . S
C409 C408 1.384 . S
C409 H431 0.929 . S
C410 O420 1.241 . S
C410 O421 1.273 . S
C411 O422 1.251 . S
C411 O423 1.268 . S
O412 Nd392 2.500 . S
O412 C394 1.258 . S
O413 Nd392 2.492 . S
O413 C394 1.239 . S
O414 Nd392 2.487 . S
O414 C401 1.241 . S
O415 Nd392 2.682 . S
O415 Nd393 2.414 . S
O415 C401 1.273 . S
O416 Nd392 2.410 . S
O416 C402 1.251 . S
O417 Nd393 2.424 . S
O417 C402 1.268 . S
O418 Nd393 2.500 . S
O418 C403 1.258 . S
O419 Nd393 2.492 . S
O419 C403 1.239 . S
O420 Nd393 2.487 . S
O420 C410 1.241 . S
O421 Nd392 2.414 . S
O421 Nd393 2.682 . S
O421 C410 1.273 . S
O422 Nd393 2.410 . S
O422 C411 1.251 . S
O423 Nd392 2.424 . S
O423 C411 1.268 . S
H424 C396 0.930 . S
H425 C397 0.929 . S
H426 C399 0.930 . S
H427 C400 0.929 . S
H428 C405 0.930 . S
H429 C406 0.929 . S
H430 C408 0.930 . S
H431 C409 0.929 . S
Nd432 C434 2.836 . S
Nd432 O452 2.500 . S
Nd432 O453 2.492 . S
Nd432 O454 2.487 . S
Nd432 O455 2.682 . S
Nd432 O456 2.410 . S
Nd432 O461 2.414 . S
Nd432 O463 2.424 . S
Nd433 C443 2.836 . S
Nd433 O455 2.414 . S
Nd433 O457 2.424 . S
Nd433 O458 2.500 . S
Nd433 O459 2.492 . S
Nd433 O460 2.487 . S
Nd433 O461 2.682 . S
Nd433 O462 2.410 . S
C434 Nd432 2.836 . S
C434 C435 1.498 . S
C434 O452 1.258 . S
C434 O453 1.239 . S
C435 C434 1.498 . S
C435 C436 1.366 . S
C435 C440 1.407 . S
C436 C435 1.366 . S
C436 C437 1.392 . S
C436 H464 0.930 . S
C437 C436 1.392 . S
C437 C438 1.398 1_556 S
C437 H465 0.929 1_556 S
C438 C437 1.398 1_554 S
C438 C439 1.352 1_554 S
C439 C438 1.352 1_556 S
C439 C440 1.384 . S
C439 H466 0.930 1_556 S
C440 C435 1.407 . S
C440 C439 1.384 . S
C440 H467 0.929 . S
C441 O454 1.241 . S
C441 O455 1.273 . S
C442 O456 1.251 . S
C442 O457 1.268 . S
C443 Nd433 2.836 . S
C443 C444 1.498 . S
C443 O458 1.258 . S
C443 O459 1.239 . S
C444 C443 1.498 . S
C444 C445 1.366 . S
C444 C449 1.407 . S
C445 C444 1.366 . S
C445 C446 1.392 . S
C445 H468 0.930 . S
C446 C445 1.392 . S
C446 C447 1.398 . S
C446 H469 0.929 . S
C447 C446 1.398 . S
C447 C448 1.352 . S
C448 C447 1.352 . S
C448 C449 1.384 . S
C448 H470 0.930 . S
C449 C444 1.407 . S
C449 C448 1.384 . S
C449 H471 0.929 . S
C450 O460 1.241 . S
C450 O461 1.273 . S
C451 O462 1.251 . S
C451 O463 1.268 . S
O452 Nd432 2.500 . S
O452 C434 1.258 . S
O453 Nd432 2.492 . S
O453 C434 1.239 . S
O454 Nd432 2.487 . S
O454 C441 1.241 . S
O455 Nd432 2.682 . S
O455 Nd433 2.414 . S
O455 C441 1.273 . S
O456 Nd432 2.410 . S
O456 C442 1.251 . S
O457 Nd433 2.424 . S
O457 C442 1.268 . S
O458 Nd433 2.500 . S
O458 C443 1.258 . S
O459 Nd433 2.492 . S
O459 C443 1.239 . S
O460 Nd433 2.487 . S
O460 C450 1.241 . S
O461 Nd432 2.414 . S
O461 Nd433 2.682 . S
O461 C450 1.273 . S
O462 Nd433 2.410 . S
O462 C451 1.251 . S
O463 Nd432 2.424 . S
O463 C451 1.268 . S
H464 C436 0.930 . S
H465 C437 0.929 1_554 S
H466 C439 0.930 1_554 S
H467 C440 0.929 . S
H468 C445 0.930 . S
H469 C446 0.929 . S
H470 C448 0.930 . S
H471 C449 0.929 . S
Nd472 C474 2.836 . S
Nd472 O492 2.500 . S
Nd472 O493 2.492 . S
Nd472 O494 2.487 . S
Nd472 O495 2.682 . S
Nd472 O496 2.410 . S
Nd472 O501 2.414 . S
Nd472 O503 2.424 . S
Nd473 C483 2.836 1_545 S
Nd473 O495 2.414 . S
Nd473 O497 2.424 . S
Nd473 O498 2.500 1_545 S
Nd473 O499 2.492 1_545 S
Nd473 O500 2.487 1_455 S
Nd473 O501 2.682 . S
Nd473 O502 2.410 . S
C474 Nd472 2.836 . S
C474 C475 1.498 . S
C474 O492 1.258 . S
C474 O493 1.239 . S
C475 C474 1.498 . S
C475 C476 1.366 . S
C475 C480 1.407 . S
C476 C475 1.366 . S
C476 C477 1.392 . S
C476 H504 0.930 1_455 S
C477 C476 1.392 . S
C477 C478 1.398 . S
C477 H505 0.929 1_455 S
C478 C477 1.398 . S
C478 C479 1.352 . S
C479 C478 1.352 . S
C479 C480 1.384 . S
C479 H506 0.930 . S
C480 C475 1.407 . S
C480 C479 1.384 . S
C480 H507 0.929 . S
C481 O494 1.241 . S
C481 O495 1.273 . S
C482 O496 1.251 . S
C482 O497 1.268 . S
C483 Nd473 2.836 1_565 S
C483 C484 1.498 . S
C483 O498 1.258 . S
C483 O499 1.239 . S
C484 C483 1.498 . S
C484 C485 1.366 . S
C484 C489 1.407 . S
C485 C484 1.366 . S
C485 C486 1.392 . S
C485 H508 0.930 . S
C486 C485 1.392 . S
C486 C487 1.398 . S
C486 H509 0.929 . S
C487 C486 1.398 . S
C487 C488 1.352 . S
C488 C487 1.352 . S
C488 C489 1.384 . S
C488 H510 0.930 . S
C489 C484 1.407 . S
C489 C488 1.384 . S
C489 H511 0.929 . S
C490 O500 1.241 . S
C490 O501 1.273 1_655 S
C491 O502 1.251 . S
C491 O503 1.268 . S
O492 Nd472 2.500 . S
O492 C474 1.258 . S
O493 Nd472 2.492 . S
O493 C474 1.239 . S
O494 Nd472 2.487 . S
O494 C481 1.241 . S
O495 Nd472 2.682 . S
O495 Nd473 2.414 . S
O495 C481 1.273 . S
O496 Nd472 2.410 . S
O496 C482 1.251 . S
O497 Nd473 2.424 . S
O497 C482 1.268 . S
O498 Nd473 2.500 1_565 S
O498 C483 1.258 . S
O499 Nd473 2.492 1_565 S
O499 C483 1.239 . S
O500 Nd473 2.487 1_655 S
O500 C490 1.241 . S
O501 Nd472 2.414 . S
O501 Nd473 2.682 . S
O501 C490 1.273 1_455 S
O502 Nd473 2.410 . S
O502 C491 1.251 . S
O503 Nd472 2.424 . S
O503 C491 1.268 . S
H504 C476 0.930 1_655 S
H505 C477 0.929 1_655 S
H506 C479 0.930 . S
H507 C480 0.929 . S
H508 C485 0.930 . S
H509 C486 0.929 . S
H510 C488 0.930 . S
H511 C489 0.929 . S
Nd512 C514 2.836 . S
Nd512 O532 2.500 . S
Nd512 O533 2.492 . S
Nd512 O534 2.487 . S
Nd512 O535 2.682 . S
Nd512 O536 2.410 . S
Nd512 O541 2.414 . S
Nd512 O543 2.424 . S
Nd513 C523 2.836 . S
Nd513 O535 2.414 . S
Nd513 O537 2.424 . S
Nd513 O538 2.500 . S
Nd513 O539 2.492 . S
Nd513 O540 2.487 . S
Nd513 O541 2.682 . S
Nd513 O542 2.410 . S
C514 Nd512 2.836 . S
C514 C515 1.498 . S
C514 O532 1.258 . S
C514 O533 1.239 . S
C515 C514 1.498 . S
C515 C516 1.366 . S
C515 C520 1.407 . S
C516 C515 1.366 . S
C516 C517 1.392 . S
C516 H544 0.930 . S
C517 C516 1.392 . S
C517 C518 1.398 . S
C517 H545 0.929 . S
C518 C517 1.398 . S
C518 C519 1.352 . S
C519 C518 1.352 . S
C519 C520 1.384 . S
C519 H546 0.930 . S
C520 C515 1.407 . S
C520 C519 1.384 . S
C520 H547 0.929 . S
C521 O534 1.241 . S
C521 O535 1.273 . S
C522 O536 1.251 . S
C522 O537 1.268 . S
C523 Nd513 2.836 . S
C523 C524 1.498 . S
C523 O538 1.258 . S
C523 O539 1.239 . S
C524 C523 1.498 . S
C524 C525 1.366 . S
C524 C529 1.407 . S
C525 C524 1.366 . S
C525 C526 1.392 . S
C525 H548 0.930 . S
C526 C525 1.392 . S
C526 C527 1.398 . S
C526 H549 0.929 . S
C527 C526 1.398 . S
C527 C528 1.352 . S
C528 C527 1.352 . S
C528 C529 1.384 . S
C528 H550 0.930 . S
C529 C524 1.407 . S
C529 C528 1.384 . S
C529 H551 0.929 . S
C530 O540 1.241 . S
C530 O541 1.273 . S
C531 O542 1.251 . S
C531 O543 1.268 . S
O532 Nd512 2.500 . S
O532 C514 1.258 . S
O533 Nd512 2.492 . S
O533 C514 1.239 . S
O534 Nd512 2.487 . S
O534 C521 1.241 . S
O535 Nd512 2.682 . S
O535 Nd513 2.414 . S
O535 C521 1.273 . S
O536 Nd512 2.410 . S
O536 C522 1.251 . S
O537 Nd513 2.424 . S
O537 C522 1.268 . S
O538 Nd513 2.500 . S
O538 C523 1.258 . S
O539 Nd513 2.492 . S
O539 C523 1.239 . S
O540 Nd513 2.487 . S
O540 C530 1.241 . S
O541 Nd512 2.414 . S
O541 Nd513 2.682 . S
O541 C530 1.273 . S
O542 Nd513 2.410 . S
O542 C531 1.251 . S
O543 Nd512 2.424 . S
O543 C531 1.268 . S
H544 C516 0.930 . S
H545 C517 0.929 . S
H546 C519 0.930 . S
H547 C520 0.929 . S
H548 C525 0.930 . S
H549 C526 0.929 . S
H550 C528 0.930 . S
H551 C529 0.929 . S
Nd552 C554 2.836 . S
Nd552 O572 2.500 . S
Nd552 O573 2.492 . S
Nd552 O574 2.487 . S
Nd552 O575 2.682 . S
Nd552 O576 2.410 . S
Nd552 O581 2.414 . S
Nd552 O583 2.424 1_554 S
Nd553 C563 2.836 . S
Nd553 O575 2.414 . S
Nd553 O577 2.424 . S
Nd553 O578 2.500 . S
Nd553 O579 2.492 . S
Nd553 O580 2.487 . S
Nd553 O581 2.682 . S
Nd553 O582 2.410 . S
C554 Nd552 2.836 . S
C554 C555 1.498 . S
C554 O572 1.258 . S
C554 O573 1.239 . S
C555 C554 1.498 . S
C555 C556 1.366 . S
C555 C560 1.407 . S
C556 C555 1.366 . S
C556 C557 1.392 . S
C556 H584 0.930 . S
C557 C556 1.392 . S
C557 C558 1.398 . S
C557 H585 0.929 . S
C558 C557 1.398 . S
C558 C559 1.352 . S
C559 C558 1.352 . S
C559 C560 1.384 . S
C559 H586 0.930 1_545 S
C560 C555 1.407 . S
C560 C559 1.384 . S
C560 H587 0.929 1_545 S
C561 O574 1.241 . S
C561 O575 1.273 . S
C562 O576 1.251 . S
C562 O577 1.268 . S
C563 Nd553 2.836 . S
C563 C564 1.498 . S
C563 O578 1.258 . S
C563 O579 1.239 . S
C564 C563 1.498 . S
C564 C565 1.366 . S
C564 C569 1.407 . S
C565 C564 1.366 . S
C565 C566 1.392 . S
C565 H588 0.930 . S
C566 C565 1.392 . S
C566 C567 1.398 . S
C566 H589 0.929 . S
C567 C566 1.398 . S
C567 C568 1.352 . S
C568 C567 1.352 . S
C568 C569 1.384 . S
C568 H590 0.930 . S
C569 C564 1.407 . S
C569 C568 1.384 . S
C569 H591 0.929 . S
C570 O580 1.241 . S
C570 O581 1.273 . S
C571 O582 1.251 1_556 S
C571 O583 1.268 . S
O572 Nd552 2.500 . S
O572 C554 1.258 . S
O573 Nd552 2.492 . S
O573 C554 1.239 . S
O574 Nd552 2.487 . S
O574 C561 1.241 . S
O575 Nd552 2.682 . S
O575 Nd553 2.414 . S
O575 C561 1.273 . S
O576 Nd552 2.410 . S
O576 C562 1.251 . S
O577 Nd553 2.424 . S
O577 C562 1.268 . S
O578 Nd553 2.500 . S
O578 C563 1.258 . S
O579 Nd553 2.492 . S
O579 C563 1.239 . S
O580 Nd553 2.487 . S
O580 C570 1.241 . S
O581 Nd552 2.414 . S
O581 Nd553 2.682 . S
O581 C570 1.273 . S
O582 Nd553 2.410 . S
O582 C571 1.251 1_554 S
O583 Nd552 2.424 1_556 S
O583 C571 1.268 . S
H584 C556 0.930 . S
H585 C557 0.929 . S
H586 C559 0.930 1_565 S
H587 C560 0.929 1_565 S
H588 C565 0.930 . S
H589 C566 0.929 . S
H590 C568 0.930 . S
H591 C569 0.929 . S
Nd592 C594 2.836 . S
Nd592 O612 2.500 . S
Nd592 O613 2.492 . S
Nd592 O614 2.487 . S
Nd592 O615 2.682 . S
Nd592 O616 2.410 . S
Nd592 O621 2.414 . S
Nd592 O623 2.424 . S
Nd593 C603 2.836 . S
Nd593 O615 2.414 . S
Nd593 O617 2.424 . S
Nd593 O618 2.500 . S
Nd593 O619 2.492 . S
Nd593 O620 2.487 . S
Nd593 O621 2.682 . S
Nd593 O622 2.410 . S
C594 Nd592 2.836 . S
C594 C595 1.498 . S
C594 O612 1.258 . S
C594 O613 1.239 . S
C595 C594 1.498 . S
C595 C596 1.366 . S
C595 C600 1.407 . S
C596 C595 1.366 . S
C596 C597 1.392 . S
C596 H624 0.930 . S
C597 C596 1.392 . S
C597 C598 1.398 . S
C597 H625 0.929 . S
C598 C597 1.398 . S
C598 C599 1.352 . S
C599 C598 1.352 . S
C599 C600 1.384 . S
C599 H626 0.930 . S
C600 C595 1.407 . S
C600 C599 1.384 . S
C600 H627 0.929 . S
C601 O614 1.241 . S
C601 O615 1.273 . S
C602 O616 1.251 . S
C602 O617 1.268 . S
C603 Nd593 2.836 . S
C603 C604 1.498 . S
C603 O618 1.258 . S
C603 O619 1.239 . S
C604 C603 1.498 . S
C604 C605 1.366 . S
C604 C609 1.407 . S
C605 C604 1.366 . S
C605 C606 1.392 . S
C605 H628 0.930 . S
C606 C605 1.392 . S
C606 C607 1.398 . S
C606 H629 0.929 . S
C607 C606 1.398 . S
C607 C608 1.352 . S
C608 C607 1.352 . S
C608 C609 1.384 . S
C608 H630 0.930 . S
C609 C604 1.407 . S
C609 C608 1.384 . S
C609 H631 0.929 . S
C610 O620 1.241 . S
C610 O621 1.273 . S
C611 O622 1.251 . S
C611 O623 1.268 . S
O612 Nd592 2.500 . S
O612 C594 1.258 . S
O613 Nd592 2.492 . S
O613 C594 1.239 . S
O614 Nd592 2.487 . S
O614 C601 1.241 . S
O615 Nd592 2.682 . S
O615 Nd593 2.414 . S
O615 C601 1.273 . S
O616 Nd592 2.410 . S
O616 C602 1.251 . S
O617 Nd593 2.424 . S
O617 C602 1.268 . S
O618 Nd593 2.500 . S
O618 C603 1.258 . S
O619 Nd593 2.492 . S
O619 C603 1.239 . S
O620 Nd593 2.487 . S
O620 C610 1.241 . S
O621 Nd592 2.414 . S
O621 Nd593 2.682 . S
O621 C610 1.273 . S
O622 Nd593 2.410 . S
O622 C611 1.251 . S
O623 Nd592 2.424 . S
O623 C611 1.268 . S
H624 C596 0.930 . S
H625 C597 0.929 . S
H626 C599 0.930 . S
H627 C600 0.929 . S
H628 C605 0.930 . S
H629 C606 0.929 . S
H630 C608 0.930 . S
H631 C609 0.929 . S
Nd632 C634 2.836 . S
Nd632 O652 2.500 . S
Nd632 O653 2.492 . S
Nd632 O654 2.487 . S
Nd632 O655 2.682 . S
Nd632 O656 2.410 . S
Nd632 O661 2.414 . S
Nd632 O663 2.424 . S
Nd633 C643 2.836 . S
Nd633 O655 2.414 . S
Nd633 O657 2.424 . S
Nd633 O658 2.500 . S
Nd633 O659 2.492 . S
Nd633 O660 2.487 . S
Nd633 O661 2.682 . S
Nd633 O662 2.410 . S
C634 Nd632 2.836 . S
C634 C635 1.498 . S
C634 O652 1.258 . S
C634 O653 1.239 . S
C635 C634 1.498 . S
C635 C636 1.366 . S
C635 C640 1.407 . S
C636 C635 1.366 . S
C636 C637 1.392 . S
C636 H664 0.930 . S
C637 C636 1.392 . S
C637 C638 1.398 . S
C637 H665 0.929 . S
C638 C637 1.398 . S
C638 C639 1.352 . S
C639 C638 1.352 . S
C639 C640 1.384 . S
C639 H666 0.930 . S
C640 C635 1.407 . S
C640 C639 1.384 . S
C640 H667 0.929 . S
C641 O654 1.241 . S
C641 O655 1.273 . S
C642 O656 1.251 . S
C642 O657 1.268 . S
C643 Nd633 2.836 . S
C643 C644 1.498 . S
C643 O658 1.258 . S
C643 O659 1.239 . S
C644 C643 1.498 . S
C644 C645 1.366 . S
C644 C649 1.407 . S
C645 C644 1.366 . S
C645 C646 1.392 . S
C645 H668 0.930 . S
C646 C645 1.392 . S
C646 C647 1.398 . S
C646 H669 0.929 . S
C647 C646 1.398 . S
C647 C648 1.352 . S
C648 C647 1.352 . S
C648 C649 1.384 . S
C648 H670 0.930 . S
C649 C644 1.407 . S
C649 C648 1.384 . S
C649 H671 0.929 . S
C650 O660 1.241 . S
C650 O661 1.273 . S
C651 O662 1.251 . S
C651 O663 1.268 . S
O652 Nd632 2.500 . S
O652 C634 1.258 . S
O653 Nd632 2.492 . S
O653 C634 1.239 . S
O654 Nd632 2.487 . S
O654 C641 1.241 . S
O655 Nd632 2.682 . S
O655 Nd633 2.414 . S
O655 C641 1.273 . S
O656 Nd632 2.410 . S
O656 C642 1.251 . S
O657 Nd633 2.424 . S
O657 C642 1.268 . S
O658 Nd633 2.500 . S
O658 C643 1.258 . S
O659 Nd633 2.492 . S
O659 C643 1.239 . S
O660 Nd633 2.487 . S
O660 C650 1.241 . S
O661 Nd632 2.414 . S
O661 Nd633 2.682 . S
O661 C650 1.273 . S
O662 Nd633 2.410 . S
O662 C651 1.251 . S
O663 Nd632 2.424 . S
O663 C651 1.268 . S
H664 C636 0.930 . S
H665 C637 0.929 . S
H666 C639 0.930 . S
H667 C640 0.929 . S
H668 C645 0.930 . S
H669 C646 0.929 . S
H670 C648 0.930 . S
H671 C649 0.929 . S
Nd672 C674 2.836 . S
Nd672 O692 2.500 . S
Nd672 O693 2.492 . S
Nd672 O694 2.487 . S
Nd672 O695 2.682 . S
Nd672 O696 2.410 . S
Nd672 O701 2.414 . S
Nd672 O703 2.424 . S
Nd673 C683 2.836 . S
Nd673 O695 2.414 . S
Nd673 O697 2.424 . S
Nd673 O698 2.500 . S
Nd673 O699 2.492 . S
Nd673 O700 2.487 . S
Nd673 O701 2.682 . S
Nd673 O702 2.410 . S
C674 Nd672 2.836 . S
C674 C675 1.498 . S
C674 O692 1.258 . S
C674 O693 1.239 . S
C675 C674 1.498 . S
C675 C676 1.366 . S
C675 C680 1.407 . S
C676 C675 1.366 . S
C676 C677 1.392 . S
C676 H704 0.930 . S
C677 C676 1.392 . S
C677 C678 1.398 . S
C677 H705 0.929 . S
C678 C677 1.398 . S
C678 C679 1.352 . S
C679 C678 1.352 . S
C679 C680 1.384 . S
C679 H706 0.930 . S
C680 C675 1.407 . S
C680 C679 1.384 . S
C680 H707 0.929 . S
C681 O694 1.241 . S
C681 O695 1.273 . S
C682 O696 1.251 . S
C682 O697 1.268 . S
C683 Nd673 2.836 . S
C683 C684 1.498 . S
C683 O698 1.258 . S
C683 O699 1.239 . S
C684 C683 1.498 . S
C684 C685 1.366 . S
C684 C689 1.407 . S
C685 C684 1.366 . S
C685 C686 1.392 . S
C685 H708 0.930 . S
C686 C685 1.392 . S
C686 C687 1.398 . S
C686 H709 0.929 . S
C687 C686 1.398 . S
C687 C688 1.352 . S
C688 C687 1.352 . S
C688 C689 1.384 . S
C688 H710 0.930 . S
C689 C684 1.407 . S
C689 C688 1.384 . S
C689 H711 0.929 . S
C690 O700 1.241 . S
C690 O701 1.273 . S
C691 O702 1.251 . S
C691 O703 1.268 . S
O692 Nd672 2.500 . S
O692 C674 1.258 . S
O693 Nd672 2.492 . S
O693 C674 1.239 . S
O694 Nd672 2.487 . S
O694 C681 1.241 . S
O695 Nd672 2.682 . S
O695 Nd673 2.414 . S
O695 C681 1.273 . S
O696 Nd672 2.410 . S
O696 C682 1.251 . S
O697 Nd673 2.424 . S
O697 C682 1.268 . S
O698 Nd673 2.500 . S
O698 C683 1.258 . S
O699 Nd673 2.492 . S
O699 C683 1.239 . S
O700 Nd673 2.487 . S
O700 C690 1.241 . S
O701 Nd672 2.414 . S
O701 Nd673 2.682 . S
O701 C690 1.273 . S
O702 Nd673 2.410 . S
O702 C691 1.251 . S
O703 Nd672 2.424 . S
O703 C691 1.268 . S
H704 C676 0.930 . S
H705 C677 0.929 . S
H706 C679 0.930 . S
H707 C680 0.929 . S
H708 C685 0.930 . S
H709 C686 0.929 . S
H710 C688 0.930 . S
H711 C689 0.929 . S
Nd712 C714 2.836 . S
Nd712 O732 2.500 . S
Nd712 O733 2.492 . S
Nd712 O734 2.487 1_655 S
Nd712 O735 2.682 1_655 S
Nd712 O736 2.410 . S
Nd712 O741 2.414 1_655 S
Nd712 O743 2.424 1_655 S
Nd713 C723 2.836 . S
Nd713 O735 2.414 . S
Nd713 O737 2.424 . S
Nd713 O738 2.500 . S
Nd713 O739 2.492 . S
Nd713 O740 2.487 . S
Nd713 O741 2.682 . S
Nd713 O742 2.410 . S
C714 Nd712 2.836 . S
C714 C715 1.498 . S
C714 O732 1.258 . S
C714 O733 1.239 . S
C715 C714 1.498 . S
C715 C716 1.366 . S
C715 C720 1.407 . S
C716 C715 1.366 . S
C716 C717 1.392 . S
C716 H744 0.930 . S
C717 C716 1.392 . S
C717 C718 1.398 . S
C717 H745 0.929 . S
C718 C717 1.398 . S
C718 C719 1.352 . S
C719 C718 1.352 . S
C719 C720 1.384 . S
C719 H746 0.930 . S
C720 C715 1.407 . S
C720 C719 1.384 . S
C720 H747 0.929 . S
C721 O734 1.241 . S
C721 O735 1.273 . S
C722 O736 1.251 1_455 S
C722 O737 1.268 . S
C723 Nd713 2.836 . S
C723 C724 1.498 . S
C723 O738 1.258 . S
C723 O739 1.239 . S
C724 C723 1.498 . S
C724 C725 1.366 . S
C724 C729 1.407 . S
C725 C724 1.366 . S
C725 C726 1.392 . S
C725 H748 0.930 . S
C726 C725 1.392 . S
C726 C727 1.398 . S
C726 H749 0.929 . S
C727 C726 1.398 . S
C727 C728 1.352 . S
C728 C727 1.352 . S
C728 C729 1.384 . S
C728 H750 0.930 . S
C729 C724 1.407 . S
C729 C728 1.384 . S
C729 H751 0.929 . S
C730 O740 1.241 . S
C730 O741 1.273 . S
C731 O742 1.251 . S
C731 O743 1.268 . S
O732 Nd712 2.500 . S
O732 C714 1.258 . S
O733 Nd712 2.492 . S
O733 C714 1.239 . S
O734 Nd712 2.487 1_455 S
O734 C721 1.241 . S
O735 Nd712 2.682 1_455 S
O735 Nd713 2.414 . S
O735 C721 1.273 . S
O736 Nd712 2.410 . S
O736 C722 1.251 1_655 S
O737 Nd713 2.424 . S
O737 C722 1.268 . S
O738 Nd713 2.500 . S
O738 C723 1.258 . S
O739 Nd713 2.492 . S
O739 C723 1.239 . S
O740 Nd713 2.487 . S
O740 C730 1.241 . S
O741 Nd712 2.414 1_455 S
O741 Nd713 2.682 . S
O741 C730 1.273 . S
O742 Nd713 2.410 . S
O742 C731 1.251 . S
O743 Nd712 2.424 1_455 S
O743 C731 1.268 . S
H744 C716 0.930 . S
H745 C717 0.929 . S
H746 C719 0.930 . S
H747 C720 0.929 . S
H748 C725 0.930 . S
H749 C726 0.929 . S
H750 C728 0.930 . S
H751 C729 0.929 . S
Nd752 C754 2.836 . S
Nd752 O772 2.500 . S
Nd752 O773 2.492 . S
Nd752 O774 2.487 . S
Nd752 O775 2.682 . S
Nd752 O776 2.410 . S
Nd752 O781 2.414 . S
Nd752 O783 2.424 . S
Nd753 C763 2.836 . S
Nd753 O775 2.414 . S
Nd753 O777 2.424 . S
Nd753 O778 2.500 . S
Nd753 O779 2.492 . S
Nd753 O780 2.487 . S
Nd753 O781 2.682 . S
Nd753 O782 2.410 . S
C754 Nd752 2.836 . S
C754 C755 1.498 . S
C754 O772 1.258 . S
C754 O773 1.239 . S
C755 C754 1.498 . S
C755 C756 1.366 . S
C755 C760 1.407 . S
C756 C755 1.366 . S
C756 C757 1.392 . S
C756 H784 0.930 . S
C757 C756 1.392 . S
C757 C758 1.398 . S
C757 H785 0.929 . S
C758 C757 1.398 . S
C758 C759 1.352 . S
C759 C758 1.352 . S
C759 C760 1.384 . S
C759 H786 0.930 . S
C760 C755 1.407 . S
C760 C759 1.384 . S
C760 H787 0.929 . S
C761 O774 1.241 . S
C761 O775 1.273 . S
C762 O776 1.251 . S
C762 O777 1.268 . S
C763 Nd753 2.836 . S
C763 C764 1.498 . S
C763 O778 1.258 . S
C763 O779 1.239 . S
C764 C763 1.498 . S
C764 C765 1.366 . S
C764 C769 1.407 . S
C765 C764 1.366 . S
C765 C766 1.392 . S
C765 H788 0.930 . S
C766 C765 1.392 . S
C766 C767 1.398 . S
C766 H789 0.929 . S
C767 C766 1.398 . S
C767 C768 1.352 . S
C768 C767 1.352 . S
C768 C769 1.384 . S
C768 H790 0.930 . S
C769 C764 1.407 . S
C769 C768 1.384 . S
C769 H791 0.929 . S
C770 O780 1.241 . S
C770 O781 1.273 . S
C771 O782 1.251 . S
C771 O783 1.268 . S
O772 Nd752 2.500 . S
O772 C754 1.258 . S
O773 Nd752 2.492 . S
O773 C754 1.239 . S
O774 Nd752 2.487 . S
O774 C761 1.241 . S
O775 Nd752 2.682 . S
O775 Nd753 2.414 . S
O775 C761 1.273 . S
O776 Nd752 2.410 . S
O776 C762 1.251 . S
O777 Nd753 2.424 . S
O777 C762 1.268 . S
O778 Nd753 2.500 . S
O778 C763 1.258 . S
O779 Nd753 2.492 . S
O779 C763 1.239 . S
O780 Nd753 2.487 . S
O780 C770 1.241 . S
O781 Nd752 2.414 . S
O781 Nd753 2.682 . S
O781 C770 1.273 . S
O782 Nd753 2.410 . S
O782 C771 1.251 . S
O783 Nd752 2.424 . S
O783 C771 1.268 . S
H784 C756 0.930 . S
H785 C757 0.929 . S
H786 C759 0.930 . S
H787 C760 0.929 . S
H788 C765 0.930 . S
H789 C766 0.929 . S
H790 C768 0.930 . S
H791 C769 0.929 . S
Nd792 C794 2.836 . S
Nd792 O812 2.500 . S
Nd792 O813 2.492 . S
Nd792 O814 2.487 . S
Nd792 O815 2.682 . S
Nd792 O816 2.410 . S
Nd792 O821 2.414 . S
Nd792 O823 2.424 . S
Nd793 C803 2.836 . S
Nd793 O815 2.414 . S
Nd793 O817 2.424 . S
Nd793 O818 2.500 . S
Nd793 O819 2.492 . S
Nd793 O820 2.487 . S
Nd793 O821 2.682 . S
Nd793 O822 2.410 . S
C794 Nd792 2.836 . S
C794 C795 1.498 . S
C794 O812 1.258 . S
C794 O813 1.239 . S
C795 C794 1.498 . S
C795 C796 1.366 . S
C795 C800 1.407 . S
C796 C795 1.366 . S
C796 C797 1.392 . S
C796 H824 0.930 . S
C797 C796 1.392 . S
C797 C798 1.398 . S
C797 H825 0.929 . S
C798 C797 1.398 . S
C798 C799 1.352 . S
C799 C798 1.352 . S
C799 C800 1.384 . S
C799 H826 0.930 . S
C800 C795 1.407 . S
C800 C799 1.384 . S
C800 H827 0.929 . S
C801 O814 1.241 . S
C801 O815 1.273 . S
C802 O816 1.251 . S
C802 O817 1.268 . S
C803 Nd793 2.836 . S
C803 C804 1.498 . S
C803 O818 1.258 . S
C803 O819 1.239 . S
C804 C803 1.498 . S
C804 C805 1.366 . S
C804 C809 1.407 . S
C805 C804 1.366 . S
C805 C806 1.392 . S
C805 H828 0.930 . S
C806 C805 1.392 . S
C806 C807 1.398 . S
C806 H829 0.929 . S
C807 C806 1.398 . S
C807 C808 1.352 . S
C808 C807 1.352 . S
C808 C809 1.384 . S
C808 H830 0.930 . S
C809 C804 1.407 . S
C809 C808 1.384 . S
C809 H831 0.929 . S
C810 O820 1.241 . S
C810 O821 1.273 . S
C811 O822 1.251 . S
C811 O823 1.268 . S
O812 Nd792 2.500 . S
O812 C794 1.258 . S
O813 Nd792 2.492 . S
O813 C794 1.239 . S
O814 Nd792 2.487 . S
O814 C801 1.241 . S
O815 Nd792 2.682 . S
O815 Nd793 2.414 . S
O815 C801 1.273 . S
O816 Nd792 2.410 . S
O816 C802 1.251 . S
O817 Nd793 2.424 . S
O817 C802 1.268 . S
O818 Nd793 2.500 . S
O818 C803 1.258 . S
O819 Nd793 2.492 . S
O819 C803 1.239 . S
O820 Nd793 2.487 . S
O820 C810 1.241 . S
O821 Nd792 2.414 . S
O821 Nd793 2.682 . S
O821 C810 1.273 . S
O822 Nd793 2.410 . S
O822 C811 1.251 . S
O823 Nd792 2.424 . S
O823 C811 1.268 . S
H824 C796 0.930 . S
H825 C797 0.929 . S
H826 C799 0.930 . S
H827 C800 0.929 . S
H828 C805 0.930 . S
H829 C806 0.929 . S
H830 C808 0.930 . S
H831 C809 0.929 . S
Nd832 C834 2.836 . S
Nd832 O852 2.500 . S
Nd832 O853 2.492 . S
Nd832 O854 2.487 . S
Nd832 O855 2.682 . S
Nd832 O856 2.410 . S
Nd832 O861 2.414 . S
Nd832 O863 2.424 . S
Nd833 C843 2.836 . S
Nd833 O855 2.414 . S
Nd833 O857 2.424 . S
Nd833 O858 2.500 . S
Nd833 O859 2.492 . S
Nd833 O860 2.487 . S
Nd833 O861 2.682 . S
Nd833 O862 2.410 . S
C834 Nd832 2.836 . S
C834 C835 1.498 . S
C834 O852 1.258 . S
C834 O853 1.239 . S
C835 C834 1.498 . S
C835 C836 1.366 . S
C835 C840 1.407 . S
C836 C835 1.366 . S
C836 C837 1.392 . S
C836 H864 0.930 . S
C837 C836 1.392 . S
C837 C838 1.398 . S
C837 H865 0.929 . S
C838 C837 1.398 . S
C838 C839 1.352 . S
C839 C838 1.352 . S
C839 C840 1.384 . S
C839 H866 0.930 . S
C840 C835 1.407 . S
C840 C839 1.384 . S
C840 H867 0.929 . S
C841 O854 1.241 . S
C841 O855 1.273 . S
C842 O856 1.251 . S
C842 O857 1.268 . S
C843 Nd833 2.836 . S
C843 C844 1.498 . S
C843 O858 1.258 . S
C843 O859 1.239 . S
C844 C843 1.498 . S
C844 C845 1.366 . S
C844 C849 1.407 . S
C845 C844 1.366 . S
C845 C846 1.392 . S
C845 H868 0.930 . S
C846 C845 1.392 . S
C846 C847 1.398 . S
C846 H869 0.929 . S
C847 C846 1.398 . S
C847 C848 1.352 . S
C848 C847 1.352 . S
C848 C849 1.384 . S
C848 H870 0.930 . S
C849 C844 1.407 . S
C849 C848 1.384 . S
C849 H871 0.929 . S
C850 O860 1.241 . S
C850 O861 1.273 . S
C851 O862 1.251 . S
C851 O863 1.268 . S
O852 Nd832 2.500 . S
O852 C834 1.258 . S
O853 Nd832 2.492 . S
O853 C834 1.239 . S
O854 Nd832 2.487 . S
O854 C841 1.241 . S
O855 Nd832 2.682 . S
O855 Nd833 2.414 . S
O855 C841 1.273 . S
O856 Nd832 2.410 . S
O856 C842 1.251 . S
O857 Nd833 2.424 . S
O857 C842 1.268 . S
O858 Nd833 2.500 . S
O858 C843 1.258 . S
O859 Nd833 2.492 . S
O859 C843 1.239 . S
O860 Nd833 2.487 . S
O860 C850 1.241 . S
O861 Nd832 2.414 . S
O861 Nd833 2.682 . S
O861 C850 1.273 . S
O862 Nd833 2.410 . S
O862 C851 1.251 . S
O863 Nd832 2.424 . S
O863 C851 1.268 . S
H864 C836 0.930 . S
H865 C837 0.929 . S
H866 C839 0.930 . S
H867 C840 0.929 . S
H868 C845 0.930 . S
H869 C846 0.929 . S
H870 C848 0.930 . S
H871 C849 0.929 . S
Nd872 C874 2.836 . S
Nd872 O892 2.500 . S
Nd872 O893 2.492 . S
Nd872 O894 2.487 . S
Nd872 O895 2.682 . S
Nd872 O896 2.410 . S
Nd872 O901 2.414 . S
Nd872 O903 2.424 . S
Nd873 C883 2.836 . S
Nd873 O895 2.414 . S
Nd873 O897 2.424 . S
Nd873 O898 2.500 . S
Nd873 O899 2.492 . S
Nd873 O900 2.487 . S
Nd873 O901 2.682 . S
Nd873 O902 2.410 . S
C874 Nd872 2.836 . S
C874 C875 1.498 . S
C874 O892 1.258 . S
C874 O893 1.239 . S
C875 C874 1.498 . S
C875 C876 1.366 . S
C875 C880 1.407 . S
C876 C875 1.366 . S
C876 C877 1.392 . S
C876 H904 0.930 . S
C877 C876 1.392 . S
C877 C878 1.398 . S
C877 H905 0.929 . S
C878 C877 1.398 . S
C878 C879 1.352 . S
C879 C878 1.352 . S
C879 C880 1.384 . S
C879 H906 0.930 . S
C880 C875 1.407 . S
C880 C879 1.384 . S
C880 H907 0.929 . S
C881 O894 1.241 . S
C881 O895 1.273 . S
C882 O896 1.251 . S
C882 O897 1.268 . S
C883 Nd873 2.836 . S
C883 C884 1.498 . S
C883 O898 1.258 . S
C883 O899 1.239 . S
C884 C883 1.498 . S
C884 C885 1.366 . S
C884 C889 1.407 . S
C885 C884 1.366 . S
C885 C886 1.392 . S
C885 H908 0.930 . S
C886 C885 1.392 . S
C886 C887 1.398 . S
C886 H909 0.929 . S
C887 C886 1.398 . S
C887 C888 1.352 . S
C888 C887 1.352 . S
C888 C889 1.384 . S
C888 H910 0.930 . S
C889 C884 1.407 . S
C889 C888 1.384 . S
C889 H911 0.929 . S
C890 O900 1.241 . S
C890 O901 1.273 . S
C891 O902 1.251 . S
C891 O903 1.268 . S
O892 Nd872 2.500 . S
O892 C874 1.258 . S
O893 Nd872 2.492 . S
O893 C874 1.239 . S
O894 Nd872 2.487 . S
O894 C881 1.241 . S
O895 Nd872 2.682 . S
O895 Nd873 2.414 . S
O895 C881 1.273 . S
O896 Nd872 2.410 . S
O896 C882 1.251 . S
O897 Nd873 2.424 . S
O897 C882 1.268 . S
O898 Nd873 2.500 . S
O898 C883 1.258 . S
O899 Nd873 2.492 . S
O899 C883 1.239 . S
O900 Nd873 2.487 . S
O900 C890 1.241 . S
O901 Nd872 2.414 . S
O901 Nd873 2.682 . S
O901 C890 1.273 . S
O902 Nd873 2.410 . S
O902 C891 1.251 . S
O903 Nd872 2.424 . S
O903 C891 1.268 . S
H904 C876 0.930 . S
H905 C877 0.929 . S
H906 C879 0.930 . S
H907 C880 0.929 . S
H908 C885 0.930 . S
H909 C886 0.929 . S
H910 C888 0.930 . S
H911 C889 0.929 . S
Nd912 C914 2.836 . S
Nd912 O932 2.500 . S
Nd912 O933 2.492 . S
Nd912 O934 2.487 . S
Nd912 O935 2.682 . S
Nd912 O936 2.410 . S
Nd912 O941 2.414 . S
Nd912 O943 2.424 . S
Nd913 C923 2.836 . S
Nd913 O935 2.414 1_655 S
Nd913 O937 2.424 1_655 S
Nd913 O938 2.500 . S
Nd913 O939 2.492 . S
Nd913 O940 2.487 . S
Nd913 O941 2.682 1_655 S
Nd913 O942 2.410 1_655 S
C914 Nd912 2.836 . S
C914 C915 1.498 . S
C914 O932 1.258 . S
C914 O933 1.239 . S
C915 C914 1.498 . S
C915 C916 1.366 . S
C915 C920 1.407 . S
C916 C915 1.366 . S
C916 C917 1.392 . S
C916 H944 0.930 . S
C917 C916 1.392 . S
C917 C918 1.398 . S
C917 H945 0.929 . S
C918 C917 1.398 . S
C918 C919 1.352 . S
C919 C918 1.352 . S
C919 C920 1.384 . S
C919 H946 0.930 . S
C920 C915 1.407 . S
C920 C919 1.384 . S
C920 H947 0.929 . S
C921 O934 1.241 . S
C921 O935 1.273 . S
C922 O936 1.251 . S
C922 O937 1.268 . S
C923 Nd913 2.836 . S
C923 C924 1.498 . S
C923 O938 1.258 . S
C923 O939 1.239 . S
C924 C923 1.498 . S
C924 C925 1.366 . S
C924 C929 1.407 . S
C925 C924 1.366 . S
C925 C926 1.392 . S
C925 H948 0.930 . S
C926 C925 1.392 . S
C926 C927 1.398 . S
C926 H949 0.929 . S
C927 C926 1.398 . S
C927 C928 1.352 . S
C928 C927 1.352 . S
C928 C929 1.384 . S
C928 H950 0.930 . S
C929 C924 1.407 . S
C929 C928 1.384 . S
C929 H951 0.929 . S
C930 O940 1.241 1_455 S
C930 O941 1.273 . S
C931 O942 1.251 . S
C931 O943 1.268 . S
O932 Nd912 2.500 . S
O932 C914 1.258 . S
O933 Nd912 2.492 . S
O933 C914 1.239 . S
O934 Nd912 2.487 . S
O934 C921 1.241 . S
O935 Nd912 2.682 . S
O935 Nd913 2.414 1_455 S
O935 C921 1.273 . S
O936 Nd912 2.410 . S
O936 C922 1.251 . S
O937 Nd913 2.424 1_455 S
O937 C922 1.268 . S
O938 Nd913 2.500 . S
O938 C923 1.258 . S
O939 Nd913 2.492 . S
O939 C923 1.239 . S
O940 Nd913 2.487 . S
O940 C930 1.241 1_655 S
O941 Nd912 2.414 . S
O941 Nd913 2.682 1_455 S
O941 C930 1.273 . S
O942 Nd913 2.410 1_455 S
O942 C931 1.251 . S
O943 Nd912 2.424 . S
O943 C931 1.268 . S
H944 C916 0.930 . S
H945 C917 0.929 . S
H946 C919 0.930 . S
H947 C920 0.929 . S
H948 C925 0.930 . S
H949 C926 0.929 . S
H950 C928 0.930 . S
H951 C929 0.929 . S
H952 C958 0.930 . S
H953 C961 0.930 . S
H954 C962 0.930 . S
H955 C963 0.930 . S
H956 C966 0.930 . S
H957 C967 0.930 . S
C958 H952 0.930 . S
C958 C959 1.355 . S
C958 C960 1.415 1_556 S
C959 C958 1.355 . S
C959 C961 1.419 . S
C960 C958 1.415 1_554 S
C960 C965 1.425 . S
C960 C967 1.409 . S
C961 H953 0.930 . S
C961 C959 1.419 . S
C961 C962 1.362 1_556 S
C962 H954 0.930 . S
C962 C961 1.362 1_554 S
C962 C965 1.409 . S
C963 H955 0.930 . S
C963 C964 1.355 . S
C963 C965 1.415 . S
C964 C963 1.355 . S
C964 C966 1.419 . S
C965 C960 1.425 . S
C965 C962 1.409 . S
C965 C963 1.415 . S
C966 H956 0.930 . S
C966 C964 1.419 . S
C966 C967 1.362 . S
C967 H957 0.930 . S
C967 C960 1.409 . S
C967 C966 1.362 . S
H968 C974 0.930 . S
H969 C977 0.930 . S
H970 C978 0.930 . S
H971 C979 0.930 . S
H972 C982 0.930 . S
H973 C983 0.930 . S
C974 H968 0.930 . S
C974 C975 1.355 . S
C974 C976 1.415 . S
C975 C974 1.355 . S
C975 C977 1.419 . S
C976 C974 1.415 . S
C976 C981 1.425 . S
C976 C983 1.409 . S
C977 H969 0.930 . S
C977 C975 1.419 . S
C977 C978 1.362 . S
C978 H970 0.930 . S
C978 C977 1.362 . S
C978 C981 1.409 . S
C979 H971 0.930 . S
C979 C980 1.355 . S
C979 C981 1.415 . S
C980 C979 1.355 . S
C980 C982 1.419 . S
C981 C976 1.425 . S
C981 C978 1.409 . S
C981 C979 1.415 . S
C982 H972 0.930 . S
C982 C980 1.419 . S
C982 C983 1.362 . S
C983 H973 0.930 . S
C983 C976 1.409 . S
C983 C982 1.362 . S
H984 C990 0.930 . S
H985 C993 0.930 . S
H986 C994 0.930 . S
H987 C995 0.930 . S
H988 C998 0.930 . S
H989 C999 0.930 . S
C990 H984 0.930 . S
C990 C991 1.355 . S
C990 C992 1.415 . S
C991 C990 1.355 . S
C991 C993 1.419 . S
C992 C990 1.415 . S
C992 C997 1.425 . S
C992 C999 1.409 . S
C993 H985 0.930 . S
C993 C991 1.419 . S
C993 C994 1.362 . S
C994 H986 0.930 . S
C994 C993 1.362 . S
C994 C997 1.409 . S
C995 H987 0.930 . S
C995 C996 1.355 . S
C995 C997 1.415 . S
C996 C995 1.355 . S
C996 C998 1.419 . S
C997 C992 1.425 . S
C997 C994 1.409 . S
C997 C995 1.415 . S
C998 H988 0.930 . S
C998 C996 1.419 . S
C998 C999 1.362 . S
C999 H989 0.930 . S
C999 C992 1.409 . S
C999 C998 1.362 . S
H1000 C1006 0.930 . S
H1001 C1009 0.930 . S
H1002 C1010 0.930 . S
H1003 C1011 0.930 . S
H1004 C1014 0.930 . S
H1005 C1015 0.930 . S
C1006 H1000 0.930 . S
C1006 C1007 1.355 . S
C1006 C1008 1.415 . S
C1007 C1006 1.355 . S
C1007 C1009 1.419 . S
C1008 C1006 1.415 . S
C1008 C1013 1.425 . S
C1008 C1015 1.409 . S
C1009 H1001 0.930 . S
C1009 C1007 1.419 . S
C1009 C1010 1.362 . S
C1010 H1002 0.930 . S
C1010 C1009 1.362 . S
C1010 C1013 1.409 . S
C1011 H1003 0.930 . S
C1011 C1012 1.355 . S
C1011 C1013 1.415 . S
C1012 C1011 1.355 . S
C1012 C1014 1.419 . S
C1013 C1008 1.425 . S
C1013 C1010 1.409 . S
C1013 C1011 1.415 . S
C1014 H1004 0.930 . S
C1014 C1012 1.419 . S
C1014 C1015 1.362 . S
C1015 H1005 0.930 . S
C1015 C1008 1.409 . S
C1015 C1014 1.362 . S
H1016 C1022 0.930 1_655 S
H1017 C1025 0.930 . S
H1018 C1026 0.930 . S
H1019 C1027 0.930 . S
H1020 C1030 0.930 . S
H1021 C1031 0.930 . S
C1022 H1016 0.930 1_455 S
C1022 C1023 1.355 . S
C1022 C1024 1.415 . S
C1023 C1022 1.355 . S
C1023 C1025 1.419 . S
C1024 C1022 1.415 . S
C1024 C1029 1.425 . S
C1024 C1031 1.409 . S
C1025 H1017 0.930 . S
C1025 C1023 1.419 . S
C1025 C1026 1.362 . S
C1026 H1018 0.930 . S
C1026 C1025 1.362 . S
C1026 C1029 1.409 . S
C1027 H1019 0.930 . S
C1027 C1028 1.355 . S
C1027 C1029 1.415 . S
C1028 C1027 1.355 . S
C1028 C1030 1.419 . S
C1029 C1024 1.425 . S
C1029 C1026 1.409 . S
C1029 C1027 1.415 . S
C1030 H1020 0.930 . S
C1030 C1028 1.419 . S
C1030 C1031 1.362 . S
C1031 H1021 0.930 . S
C1031 C1024 1.409 . S
C1031 C1030 1.362 . S
H1032 C1038 0.930 . S
H1033 C1041 0.930 . S
H1034 C1042 0.930 . S
H1035 C1043 0.930 . S
H1036 C1046 0.930 . S
H1037 C1047 0.930 . S
C1038 H1032 0.930 . S
C1038 C1039 1.355 . S
C1038 C1040 1.415 . S
C1039 C1038 1.355 . S
C1039 C1041 1.419 . S
C1040 C1038 1.415 . S
C1040 C1045 1.425 . S
C1040 C1047 1.409 . S
C1041 H1033 0.930 . S
C1041 C1039 1.419 . S
C1041 C1042 1.362 . S
C1042 H1034 0.930 . S
C1042 C1041 1.362 . S
C1042 C1045 1.409 . S
C1043 H1035 0.930 . S
C1043 C1044 1.355 . S
C1043 C1045 1.415 . S
C1044 C1043 1.355 . S
C1044 C1046 1.419 . S
C1045 C1040 1.425 . S
C1045 C1042 1.409 . S
C1045 C1043 1.415 . S
C1046 H1036 0.930 . S
C1046 C1044 1.419 . S
C1046 C1047 1.362 . S
C1047 H1037 0.930 . S
C1047 C1040 1.409 . S
C1047 C1046 1.362 . S
H1048 C1054 0.930 . S
H1049 C1057 0.930 . S
H1050 C1058 0.930 . S
H1051 C1059 0.930 . S
H1052 C1062 0.930 . S
H1053 C1063 0.930 . S
C1054 H1048 0.930 . S
C1054 C1055 1.355 . S
C1054 C1056 1.415 . S
C1055 C1054 1.355 . S
C1055 C1057 1.419 . S
C1056 C1054 1.415 . S
C1056 C1061 1.425 . S
C1056 C1063 1.409 . S
C1057 H1049 0.930 . S
C1057 C1055 1.419 . S
C1057 C1058 1.362 . S
C1058 H1050 0.930 . S
C1058 C1057 1.362 . S
C1058 C1061 1.409 . S
C1059 H1051 0.930 . S
C1059 C1060 1.355 . S
C1059 C1061 1.415 . S
C1060 C1059 1.355 . S
C1060 C1062 1.419 . S
C1061 C1056 1.425 . S
C1061 C1058 1.409 . S
C1061 C1059 1.415 . S
C1062 H1052 0.930 . S
C1062 C1060 1.419 . S
C1062 C1063 1.362 . S
C1063 H1053 0.930 . S
C1063 C1056 1.409 . S
C1063 C1062 1.362 . S
H1064 C1070 0.930 . S
H1065 C1073 0.930 . S
H1066 C1074 0.930 . S
H1067 C1075 0.930 . S
H1068 C1078 0.930 . S
H1069 C1079 0.930 . S
C1070 H1064 0.930 . S
C1070 C1071 1.355 . S
C1070 C1072 1.415 . S
C1071 C1070 1.355 . S
C1071 C1073 1.419 . S
C1072 C1070 1.415 . S
C1072 C1077 1.425 . S
C1072 C1079 1.409 . S
C1073 H1065 0.930 . S
C1073 C1071 1.419 . S
C1073 C1074 1.362 . S
C1074 H1066 0.930 . S
C1074 C1073 1.362 . S
C1074 C1077 1.409 . S
C1075 H1067 0.930 . S
C1075 C1076 1.355 . S
C1075 C1077 1.415 . S
C1076 C1075 1.355 . S
C1076 C1078 1.419 . S
C1077 C1072 1.425 . S
C1077 C1074 1.409 . S
C1077 C1075 1.415 . S
C1078 H1068 0.930 . S
C1078 C1076 1.419 . S
C1078 C1079 1.362 . S
C1079 H1069 0.930 . S
C1079 C1072 1.409 . S
C1079 C1078 1.362 . S
H1080 C1086 0.930 . S
H1081 C1089 0.930 . S
H1082 C1090 0.930 1_455 S
H1083 C1091 0.930 . S
H1084 C1094 0.930 . S
H1085 C1095 0.930 . S
C1086 H1080 0.930 . S
C1086 C1087 1.355 . S
C1086 C1088 1.415 . S
C1087 C1086 1.355 . S
C1087 C1089 1.419 . S
C1088 C1086 1.415 . S
C1088 C1093 1.425 . S
C1088 C1095 1.409 . S
C1089 H1081 0.930 . S
C1089 C1087 1.419 . S
C1089 C1090 1.362 . S
C1090 H1082 0.930 1_655 S
C1090 C1089 1.362 . S
C1090 C1093 1.409 . S
C1091 H1083 0.930 . S
C1091 C1092 1.355 . S
C1091 C1093 1.415 1_455 S
C1092 C1091 1.355 . S
C1092 C1094 1.419 1_455 S
C1093 C1088 1.425 . S
C1093 C1090 1.409 . S
C1093 C1091 1.415 1_655 S
C1094 H1084 0.930 . S
C1094 C1092 1.419 1_655 S
C1094 C1095 1.362 . S
C1095 H1085 0.930 . S
C1095 C1088 1.409 . S
C1095 C1094 1.362 . S
H1096 C1102 0.930 . S
H1097 C1105 0.930 . S
H1098 C1106 0.930 . S
H1099 C1107 0.930 . S
H1100 C1110 0.930 . S
H1101 C1111 0.930 . S
C1102 H1096 0.930 . S
C1102 C1103 1.355 . S
C1102 C1104 1.415 . S
C1103 C1102 1.355 . S
C1103 C1105 1.419 . S
C1104 C1102 1.415 . S
C1104 C1109 1.425 . S
C1104 C1111 1.409 . S
C1105 H1097 0.930 . S
C1105 C1103 1.419 . S
C1105 C1106 1.362 . S
C1106 H1098 0.930 . S
C1106 C1105 1.362 . S
C1106 C1109 1.409 . S
C1107 H1099 0.930 . S
C1107 C1108 1.355 . S
C1107 C1109 1.415 . S
C1108 C1107 1.355 . S
C1108 C1110 1.419 . S
C1109 C1104 1.425 . S
C1109 C1106 1.409 . S
C1109 C1107 1.415 . S
C1110 H1100 0.930 . S
C1110 C1108 1.419 . S
C1110 C1111 1.362 . S
C1111 H1101 0.930 . S
C1111 C1104 1.409 . S
C1111 C1110 1.362 . S
H1112 C1118 0.930 . S
H1113 C1121 0.930 . S
H1114 C1122 0.930 . S
H1115 C1123 0.930 . S
H1116 C1126 0.930 . S
H1117 C1127 0.963 . S
C1118 H1112 0.930 . S
C1118 C1119 1.355 . S
C1118 C1120 1.415 1_565 S
C1119 C1118 1.355 . S
C1119 C1121 1.419 1_565 S
C1120 C1118 1.415 1_545 S
C1120 C1125 1.425 . S
C1120 C1127 1.411 1_545 S
C1121 H1113 0.930 . S
C1121 C1119 1.419 1_545 S
C1121 C1122 1.362 . S
C1122 H1114 0.930 . S
C1122 C1121 1.362 . S
C1122 C1125 1.409 . S
C1123 H1115 0.930 . S
C1123 C1124 1.355 . S
C1123 C1125 1.415 . S
C1124 C1123 1.355 . S
C1124 C1126 1.419 . S
C1125 C1120 1.425 . S
C1125 C1122 1.409 . S
C1125 C1123 1.415 . S
C1126 H1116 0.930 . S
C1126 C1124 1.419 . S
C1126 C1127 1.330 1_545 S
C1127 H1117 0.963 . S
C1127 C1120 1.411 1_565 S
C1127 C1126 1.330 1_565 S
H1128 C1134 0.930 . S
H1129 C1137 0.930 . S
H1130 C1138 0.930 . S
H1131 C1139 0.930 . S
H1132 C1142 0.930 . S
H1133 C1143 0.930 . S
C1134 H1128 0.930 . S
C1134 C1135 1.355 . S
C1134 C1136 1.415 . S
C1135 C1134 1.355 . S
C1135 C1137 1.419 . S
C1136 C1134 1.415 . S
C1136 C1141 1.425 . S
C1136 C1143 1.409 . S
C1137 H1129 0.930 . S
C1137 C1135 1.419 . S
C1137 C1138 1.362 . S
C1138 H1130 0.930 . S
C1138 C1137 1.362 . S
C1138 C1141 1.409 . S
C1139 H1131 0.930 . S
C1139 C1140 1.355 . S
C1139 C1141 1.415 . S
C1140 C1139 1.355 . S
C1140 C1142 1.419 . S
C1141 C1136 1.425 . S
C1141 C1138 1.409 . S
C1141 C1139 1.415 . S
C1142 H1132 0.930 . S
C1142 C1140 1.419 . S
C1142 C1143 1.362 . S
C1143 H1133 0.930 . S
C1143 C1136 1.409 . S
C1143 C1142 1.362 . S
H1144 C1150 0.930 . S
H1145 C1153 0.930 . S
H1146 C1154 0.930 . S
H1147 C1155 0.930 . S
H1148 C1158 0.930 . S
H1149 C1159 0.930 . S
C1150 H1144 0.930 . S
C1150 C1151 1.355 . S
C1150 C1152 1.415 . S
C1151 C1150 1.355 . S
C1151 C1153 1.419 . S
C1152 C1150 1.415 . S
C1152 C1157 1.425 . S
C1152 C1159 1.409 . S
C1153 H1145 0.930 . S
C1153 C1151 1.419 . S
C1153 C1154 1.362 . S
C1154 H1146 0.930 . S
C1154 C1153 1.362 . S
C1154 C1157 1.409 . S
C1155 H1147 0.930 . S
C1155 C1156 1.355 1_655 S
C1155 C1157 1.415 . S
C1156 C1155 1.355 1_455 S
C1156 C1158 1.419 . S
C1157 C1152 1.425 . S
C1157 C1154 1.409 . S
C1157 C1155 1.415 . S
C1158 H1148 0.930 . S
C1158 C1156 1.419 . S
C1158 C1159 1.362 1_455 S
C1159 H1149 0.930 . S
C1159 C1152 1.409 . S
C1159 C1158 1.362 1_655 S
H1160 C1166 0.930 . S
H1161 C1169 0.930 . S
H1162 C1170 0.930 . S
H1163 C1171 0.930 . S
H1164 C1174 0.930 . S
H1165 C1175 0.930 . S
C1166 H1160 0.930 . S
C1166 C1167 1.355 . S
C1166 C1168 1.415 . S
C1167 C1166 1.355 . S
C1167 C1169 1.419 . S
C1168 C1166 1.415 . S
C1168 C1173 1.425 . S
C1168 C1175 1.409 . S
C1169 H1161 0.930 . S
C1169 C1167 1.419 . S
C1169 C1170 1.362 . S
C1170 H1162 0.930 . S
C1170 C1169 1.362 . S
C1170 C1173 1.409 . S
C1171 H1163 0.930 . S
C1171 C1172 1.355 . S
C1171 C1173 1.415 . S
C1172 C1171 1.355 . S
C1172 C1174 1.419 . S
C1173 C1168 1.425 . S
C1173 C1170 1.409 . S
C1173 C1171 1.415 . S
C1174 H1164 0.930 . S
C1174 C1172 1.419 . S
C1174 C1175 1.362 . S
C1175 H1165 0.930 . S
C1175 C1168 1.409 . S
C1175 C1174 1.362 . S
H1176 C1182 0.930 1_565 S
H1177 C1185 0.930 . S
H1178 C1186 0.930 . S
H1179 C1187 0.930 . S
H1180 C1190 0.930 . S
H1181 C1191 0.930 . S
C1182 H1176 0.930 1_545 S
C1182 C1183 1.355 . S
C1182 C1184 1.415 . S
C1183 C1182 1.355 . S
C1183 C1185 1.419 . S
C1184 C1182 1.415 . S
C1184 C1189 1.425 . S
C1184 C1191 1.409 . S
C1185 H1177 0.930 . S
C1185 C1183 1.419 . S
C1185 C1186 1.362 . S
C1186 H1178 0.930 . S
C1186 C1185 1.362 . S
C1186 C1189 1.409 . S
C1187 H1179 0.930 . S
C1187 C1188 1.355 . S
C1187 C1189 1.415 . S
C1188 C1187 1.355 . S
C1188 C1190 1.419 . S
C1189 C1184 1.425 . S
C1189 C1186 1.409 . S
C1189 C1187 1.415 . S
C1190 H1180 0.930 . S
C1190 C1188 1.419 . S
C1190 C1191 1.362 . S
C1191 H1181 0.930 . S
C1191 C1184 1.409 . S
C1191 C1190 1.362 . S
H1192 C1198 0.930 . S
H1193 C1201 0.930 . S
H1194 C1202 0.930 . S
H1195 C1203 0.930 . S
H1196 C1206 0.930 . S
H1197 C1207 0.930 . S
C1198 H1192 0.930 . S
C1198 C1199 1.355 . S
C1198 C1200 1.415 . S
C1199 C1198 1.355 . S
C1199 C1201 1.419 . S
C1200 C1198 1.415 . S
C1200 C1205 1.425 . S
C1200 C1207 1.409 . S
C1201 H1193 0.930 . S
C1201 C1199 1.419 . S
C1201 C1202 1.362 . S
C1202 H1194 0.930 . S
C1202 C1201 1.362 . S
C1202 C1205 1.409 . S
C1203 H1195 0.930 . S
C1203 C1204 1.355 . S
C1203 C1205 1.415 . S
C1204 C1203 1.355 . S
C1204 C1206 1.419 . S
C1205 C1200 1.425 . S
C1205 C1202 1.409 . S
C1205 C1203 1.415 . S
C1206 H1196 0.930 . S
C1206 C1204 1.419 . S
C1206 C1207 1.362 . S
C1207 H1197 0.930 . S
C1207 C1200 1.409 . S
C1207 C1206 1.362 . S
H1208 C1214 0.930 . S
H1209 C1217 0.930 . S
H1210 C1218 0.930 . S
H1211 C1219 0.930 . S
H1212 C1222 0.930 . S
H1213 C1223 0.930 . S
C1214 H1208 0.930 . S
C1214 C1215 1.355 . S
C1214 C1216 1.415 1_565 S
C1215 C1214 1.355 . S
C1215 C1217 1.419 . S
C1216 C1214 1.415 1_545 S
C1216 C1221 1.425 1_545 S
C1216 C1223 1.409 . S
C1217 H1209 0.930 . S
C1217 C1215 1.419 . S
C1217 C1218 1.362 . S
C1218 H1210 0.930 . S
C1218 C1217 1.362 . S
C1218 C1221 1.409 . S
C1219 H1211 0.930 . S
C1219 C1220 1.355 . S
C1219 C1221 1.415 1_545 S
C1220 C1219 1.355 . S
C1220 C1222 1.419 . S
C1221 C1216 1.425 1_565 S
C1221 C1218 1.409 . S
C1221 C1219 1.415 1_565 S
C1222 H1212 0.930 . S
C1222 C1220 1.419 . S
C1222 C1223 1.362 . S
C1223 H1213 0.930 . S
C1223 C1216 1.409 . S
C1223 C1222 1.362 . S
H1224 C1230 0.930 . S
H1225 C1233 0.930 . S
H1226 C1234 0.930 . S
H1227 C1235 0.930 . S
H1228 C1238 0.930 . S
H1229 C1239 0.930 . S
C1230 H1224 0.930 . S
C1230 C1231 1.355 . S
C1230 C1232 1.415 1_556 S
C1231 C1230 1.355 . S
C1231 C1233 1.419 1_556 S
C1232 C1230 1.415 1_554 S
C1232 C1237 1.425 . S
C1232 C1239 1.409 1_554 S
C1233 H1225 0.930 . S
C1233 C1231 1.419 1_554 S
C1233 C1234 1.362 . S
C1234 H1226 0.930 . S
C1234 C1233 1.362 . S
C1234 C1237 1.409 . S
C1235 H1227 0.930 . S
C1235 C1236 1.355 . S
C1235 C1237 1.415 . S
C1236 C1235 1.355 . S
C1236 C1238 1.419 . S
C1237 C1232 1.425 . S
C1237 C1234 1.409 . S
C1237 C1235 1.415 . S
C1238 H1228 0.930 . S
C1238 C1236 1.419 . S
C1238 C1239 1.362 1_554 S
C1239 H1229 0.930 . S
C1239 C1232 1.409 1_556 S
C1239 C1238 1.362 1_556 S
H1240 C1246 0.930 . S
H1241 C1249 0.930 . S
H1242 C1250 0.930 . S
H1243 C1251 0.930 . S
H1244 C1254 0.930 . S
H1245 C1255 0.930 . S
C1246 H1240 0.930 . S
C1246 C1247 1.355 . S
C1246 C1248 1.415 . S
C1247 C1246 1.355 . S
C1247 C1249 1.419 . S
C1248 C1246 1.415 . S
C1248 C1253 1.425 . S
C1248 C1255 1.409 . S
C1249 H1241 0.930 . S
C1249 C1247 1.419 . S
C1249 C1250 1.362 . S
C1250 H1242 0.930 . S
C1250 C1249 1.362 . S
C1250 C1253 1.409 . S
C1251 H1243 0.930 . S
C1251 C1252 1.355 . S
C1251 C1253 1.415 . S
C1252 C1251 1.355 . S
C1252 C1254 1.419 . S
C1253 C1248 1.425 . S
C1253 C1250 1.409 . S
C1253 C1251 1.415 . S
C1254 H1244 0.930 . S
C1254 C1252 1.419 . S
C1254 C1255 1.362 . S
C1255 H1245 0.930 . S
C1255 C1248 1.409 . S
C1255 C1254 1.362 . S
H1256 C1262 0.930 . S
H1257 C1265 0.930 . S
H1258 C1266 0.930 . S
H1259 C1267 0.930 . S
H1260 C1270 0.930 . S
H1261 C1271 0.930 . S
C1262 H1256 0.930 . S
C1262 C1263 1.355 . S
C1262 C1264 1.415 . S
C1263 C1262 1.355 . S
C1263 C1265 1.419 . S
C1264 C1262 1.415 . S
C1264 C1269 1.425 . S
C1264 C1271 1.409 . S
C1265 H1257 0.930 . S
C1265 C1263 1.419 . S
C1265 C1266 1.362 . S
C1266 H1258 0.930 . S
C1266 C1265 1.362 . S
C1266 C1269 1.409 . S
C1267 H1259 0.930 . S
C1267 C1268 1.355 . S
C1267 C1269 1.415 . S
C1268 C1267 1.355 . S
C1268 C1270 1.419 . S
C1269 C1264 1.425 . S
C1269 C1266 1.409 . S
C1269 C1267 1.415 . S
C1270 H1260 0.930 . S
C1270 C1268 1.419 . S
C1270 C1271 1.362 . S
C1271 H1261 0.930 . S
C1271 C1264 1.409 . S
C1271 C1270 1.362 . S
H1272 C1278 0.930 . S
H1273 C1281 0.930 . S
H1274 C1282 0.930 . S
H1275 C1283 0.930 . S
H1276 C1286 0.930 . S
H1277 C1287 0.930 . S
C1278 H1272 0.930 . S
C1278 C1279 1.355 . S
C1278 C1280 1.415 . S
C1279 C1278 1.355 . S
C1279 C1281 1.419 . S
C1280 C1278 1.415 . S
C1280 C1285 1.425 . S
C1280 C1287 1.409 . S
C1281 H1273 0.930 . S
C1281 C1279 1.419 . S
C1281 C1282 1.362 . S
C1282 H1274 0.930 . S
C1282 C1281 1.362 . S
C1282 C1285 1.409 . S
C1283 H1275 0.930 . S
C1283 C1284 1.355 . S
C1283 C1285 1.415 . S
C1284 C1283 1.355 . S
C1284 C1286 1.419 . S
C1285 C1280 1.425 . S
C1285 C1282 1.409 . S
C1285 C1283 1.415 . S
C1286 H1276 0.930 . S
C1286 C1284 1.419 . S
C1286 C1287 1.362 . S
C1287 H1277 0.930 . S
C1287 C1280 1.409 . S
C1287 C1286 1.362 . S
H1288 C1294 0.930 . S
H1289 C1297 0.930 . S
H1290 C1298 0.930 . S
H1291 C1299 0.930 . S
H1292 C1302 0.930 . S
H1293 C1303 0.930 . S
C1294 H1288 0.930 . S
C1294 C1295 1.355 . S
C1294 C1296 1.415 . S
C1295 C1294 1.355 . S
C1295 C1297 1.419 . S
C1296 C1294 1.415 . S
C1296 C1301 1.425 . S
C1296 C1303 1.409 . S
C1297 H1289 0.930 . S
C1297 C1295 1.419 . S
C1297 C1298 1.362 . S
C1298 H1290 0.930 . S
C1298 C1297 1.362 . S
C1298 C1301 1.409 . S
C1299 H1291 0.930 . S
C1299 C1300 1.355 . S
C1299 C1301 1.415 . S
C1300 C1299 1.355 . S
C1300 C1302 1.419 . S
C1301 C1296 1.425 . S
C1301 C1298 1.409 . S
C1301 C1299 1.415 . S
C1302 H1292 0.930 . S
C1302 C1300 1.419 . S
C1302 C1303 1.362 . S
C1303 H1293 0.930 . S
C1303 C1296 1.409 . S
C1303 C1302 1.362 . S
H1304 C1310 0.930 . S
H1305 C1313 0.930 . S
H1306 C1314 0.930 . S
H1307 C1315 0.930 . S
H1308 C1318 0.930 . S
H1309 C1319 0.930 . S
C1310 H1304 0.930 . S
C1310 C1311 1.355 . S
C1310 C1312 1.415 . S
C1311 C1310 1.355 . S
C1311 C1313 1.419 . S
C1312 C1310 1.415 . S
C1312 C1317 1.425 . S
C1312 C1319 1.409 . S
C1313 H1305 0.930 . S
C1313 C1311 1.419 . S
C1313 C1314 1.362 . S
C1314 H1306 0.930 . S
C1314 C1313 1.362 . S
C1314 C1317 1.409 . S
C1315 H1307 0.930 . S
C1315 C1316 1.355 . S
C1315 C1317 1.415 . S
C1316 C1315 1.355 . S
C1316 C1318 1.419 . S
C1317 C1312 1.425 . S
C1317 C1314 1.409 . S
C1317 C1315 1.415 . S
C1318 H1308 0.930 . S
C1318 C1316 1.419 . S
C1318 C1319 1.362 . S
C1319 H1309 0.930 . S
C1319 C1312 1.409 . S
C1319 C1318 1.362 . S
H1320 C1326 0.930 . S
H1321 C1329 0.930 . S
H1322 C1330 0.930 . S
H1323 C1331 0.930 . S
H1324 C1334 0.930 . S
H1325 C1335 0.930 . S
C1326 H1320 0.930 . S
C1326 C1327 1.355 . S
C1326 C1328 1.415 . S
C1327 C1326 1.355 . S
C1327 C1329 1.419 . S
C1328 C1326 1.415 . S
C1328 C1333 1.425 . S
C1328 C1335 1.409 . S
C1329 H1321 0.930 . S
C1329 C1327 1.419 . S
C1329 C1330 1.362 . S
C1330 H1322 0.930 . S
C1330 C1329 1.362 . S
C1330 C1333 1.409 . S
C1331 H1323 0.930 . S
C1331 C1332 1.355 . S
C1331 C1333 1.415 . S
C1332 C1331 1.355 . S
C1332 C1334 1.419 . S
C1333 C1328 1.425 . S
C1333 C1330 1.409 . S
C1333 C1331 1.415 . S
C1334 H1324 0.930 . S
C1334 C1332 1.419 . S
C1334 C1335 1.362 . S
C1335 H1325 0.930 . S
C1335 C1328 1.409 . S
C1335 C1334 1.362 . S
H1336 C1342 0.930 . S
H1337 C1345 0.930 . S
H1338 C1346 0.930 . S
H1339 C1347 0.930 . S
H1340 C1350 0.930 . S
H1341 C1351 0.930 . S
C1342 H1336 0.930 . S
C1342 C1343 1.355 . S
C1342 C1344 1.415 . S
C1343 C1342 1.355 . S
C1343 C1345 1.419 . S
C1344 C1342 1.415 . S
C1344 C1349 1.425 . S
C1344 C1351 1.409 . S
C1345 H1337 0.930 . S
C1345 C1343 1.419 . S
C1345 C1346 1.362 . S
C1346 H1338 0.930 . S
C1346 C1345 1.362 . S
C1346 C1349 1.409 . S
C1347 H1339 0.930 . S
C1347 C1348 1.355 . S
C1347 C1349 1.415 . S
C1348 C1347 1.355 . S
C1348 C1350 1.419 . S
C1349 C1344 1.425 . S
C1349 C1346 1.409 . S
C1349 C1347 1.415 . S
C1350 H1340 0.930 . S
C1350 C1348 1.419 . S
C1350 C1351 1.362 . S
C1351 H1341 0.930 . S
C1351 C1344 1.409 . S
C1351 C1350 1.362 . S
H1352 C1358 0.930 . S
H1353 C1361 0.930 . S
H1354 C1362 0.930 . S
H1355 C1363 0.930 . S
H1356 C1366 0.930 . S
H1357 C1367 0.930 . S
C1358 H1352 0.930 . S
C1358 C1359 1.355 . S
C1358 C1360 1.415 . S
C1359 C1358 1.355 . S
C1359 C1361 1.419 . S
C1360 C1358 1.415 . S
C1360 C1365 1.425 . S
C1360 C1367 1.409 . S
C1361 H1353 0.930 . S
C1361 C1359 1.419 . S
C1361 C1362 1.362 . S
C1362 H1354 0.930 . S
C1362 C1361 1.362 . S
C1362 C1365 1.409 . S
C1363 H1355 0.930 . S
C1363 C1364 1.355 . S
C1363 C1365 1.415 . S
C1364 C1363 1.355 . S
C1364 C1366 1.419 . S
C1365 C1360 1.425 . S
C1365 C1362 1.409 . S
C1365 C1363 1.415 . S
C1366 H1356 0.930 . S
C1366 C1364 1.419 . S
C1366 C1367 1.362 . S
C1367 H1357 0.930 . S
C1367 C1360 1.409 . S
C1367 C1366 1.362 . S
H1368 C1374 0.930 . S
H1369 C1377 0.930 . S
H1370 C1378 0.930 . S
H1371 C1379 0.930 . S
H1372 C1382 0.930 . S
H1373 C1383 0.930 . S
C1374 H1368 0.930 . S
C1374 C1375 1.355 . S
C1374 C1376 1.415 . S
C1375 C1374 1.355 . S
C1375 C1377 1.419 . S
C1376 C1374 1.415 . S
C1376 C1381 1.425 . S
C1376 C1383 1.409 . S
C1377 H1369 0.930 . S
C1377 C1375 1.419 . S
C1377 C1378 1.362 . S
C1378 H1370 0.930 . S
C1378 C1377 1.362 . S
C1378 C1381 1.409 . S
C1379 H1371 0.930 . S
C1379 C1380 1.355 . S
C1379 C1381 1.415 . S
C1380 C1379 1.355 . S
C1380 C1382 1.419 . S
C1381 C1376 1.425 . S
C1381 C1378 1.409 . S
C1381 C1379 1.415 . S
C1382 H1372 0.930 . S
C1382 C1380 1.419 . S
C1382 C1383 1.362 . S
C1383 H1373 0.930 . S
C1383 C1376 1.409 . S
C1383 C1382 1.362 . S
H1384 C1390 0.930 . S
H1385 C1393 0.930 . S
H1386 C1394 0.930 . S
H1387 C1395 0.930 . S
H1388 C1398 0.930 . S
H1389 C1399 0.930 . S
C1390 H1384 0.930 . S
C1390 C1391 1.355 . S
C1390 C1392 1.415 . S
C1391 C1390 1.355 . S
C1391 C1393 1.419 . S
C1392 C1390 1.415 . S
C1392 C1397 1.425 . S
C1392 C1399 1.409 . S
C1393 H1385 0.930 . S
C1393 C1391 1.419 . S
C1393 C1394 1.362 . S
C1394 H1386 0.930 . S
C1394 C1393 1.362 . S
C1394 C1397 1.409 . S
C1395 H1387 0.930 . S
C1395 C1396 1.355 . S
C1395 C1397 1.415 . S
C1396 C1395 1.355 . S
C1396 C1398 1.419 . S
C1397 C1392 1.425 . S
C1397 C1394 1.409 . S
C1397 C1395 1.415 . S
C1398 H1388 0.930 . S
C1398 C1396 1.419 . S
C1398 C1399 1.362 . S
C1399 H1389 0.930 . S
C1399 C1392 1.409 . S
C1399 C1398 1.362 . S
H1400 C1406 0.930 . S
H1401 C1409 0.930 . S
H1402 C1410 0.930 . S
H1403 C1411 0.930 . S
H1404 C1414 0.930 . S
H1405 C1415 0.930 . S
C1406 H1400 0.930 . S
C1406 C1407 1.355 . S
C1406 C1408 1.415 . S
C1407 C1406 1.355 . S
C1407 C1409 1.419 . S
C1408 C1406 1.415 . S
C1408 C1413 1.425 . S
C1408 C1415 1.409 . S
C1409 H1401 0.930 . S
C1409 C1407 1.419 . S
C1409 C1410 1.362 . S
C1410 H1402 0.930 . S
C1410 C1409 1.362 . S
C1410 C1413 1.409 . S
C1411 H1403 0.930 . S
C1411 C1412 1.355 . S
C1411 C1413 1.415 . S
C1412 C1411 1.355 . S
C1412 C1414 1.419 . S
C1413 C1408 1.425 . S
C1413 C1410 1.409 . S
C1413 C1411 1.415 . S
C1414 H1404 0.930 . S
C1414 C1412 1.419 . S
C1414 C1415 1.362 . S
C1415 H1405 0.930 . S
C1415 C1408 1.409 . S
C1415 C1414 1.362 . S
H1416 C1422 0.930 . S
H1417 C1425 0.930 . S
H1418 C1426 0.930 . S
H1419 C1427 0.930 . S
H1420 C1430 0.930 . S
H1421 C1431 0.930 . S
C1422 H1416 0.930 . S
C1422 C1423 1.355 . S
C1422 C1424 1.415 . S
C1423 C1422 1.355 . S
C1423 C1425 1.419 . S
C1424 C1422 1.415 . S
C1424 C1429 1.425 . S
C1424 C1431 1.409 . S
C1425 H1417 0.930 . S
C1425 C1423 1.419 . S
C1425 C1426 1.362 . S
C1426 H1418 0.930 . S
C1426 C1425 1.362 . S
C1426 C1429 1.409 . S
C1427 H1419 0.930 . S
C1427 C1428 1.355 . S
C1427 C1429 1.415 . S
C1428 C1427 1.355 . S
C1428 C1430 1.419 . S
C1429 C1424 1.425 . S
C1429 C1426 1.409 . S
C1429 C1427 1.415 . S
C1430 H1420 0.930 . S
C1430 C1428 1.419 . S
C1430 C1431 1.362 . S
C1431 H1421 0.930 . S
C1431 C1424 1.409 . S
C1431 C1430 1.362 . S
H1432 C1438 0.930 . S
H1433 C1441 0.930 1_556 S
H1434 C1442 0.930 1_556 S
H1435 C1443 0.935 . S
H1436 C1446 0.930 . S
H1437 C1447 0.930 . S
C1438 H1432 0.930 . S
C1438 C1439 1.355 . S
C1438 C1440 1.415 . S
C1439 C1438 1.355 . S
C1439 C1441 1.419 . S
C1440 C1438 1.415 . S
C1440 C1445 1.425 . S
C1440 C1447 1.409 1_565 S
C1441 H1433 0.930 1_554 S
C1441 C1439 1.419 . S
C1441 C1442 1.362 . S
C1442 H1434 0.930 1_554 S
C1442 C1441 1.362 . S
C1442 C1445 1.409 . S
C1443 H1435 0.935 . S
C1443 C1444 1.382 . S
C1443 C1445 1.378 1_545 S
C1444 C1443 1.382 . S
C1444 C1446 1.419 . S
C1445 C1440 1.425 . S
C1445 C1442 1.409 . S
C1445 C1443 1.378 1_565 S
C1446 H1436 0.930 . S
C1446 C1444 1.419 . S
C1446 C1447 1.362 . S
C1447 H1437 0.930 . S
C1447 C1440 1.409 1_545 S
C1447 C1446 1.362 . S
H1448 C1454 0.930 . S
H1449 C1457 0.930 . S
H1450 C1458 0.930 . S
H1451 C1459 0.930 . S
H1452 C1462 0.930 . S
H1453 C1463 0.930 . S
C1454 H1448 0.930 . S
C1454 C1455 1.355 . S
C1454 C1456 1.415 . S
C1455 C1454 1.355 . S
C1455 C1457 1.419 . S
C1456 C1454 1.415 . S
C1456 C1461 1.425 . S
C1456 C1463 1.409 . S
C1457 H1449 0.930 . S
C1457 C1455 1.419 . S
C1457 C1458 1.362 . S
C1458 H1450 0.930 . S
C1458 C1457 1.362 . S
C1458 C1461 1.409 . S
C1459 H1451 0.930 . S
C1459 C1460 1.355 . S
C1459 C1461 1.415 . S
C1460 C1459 1.355 . S
C1460 C1462 1.419 . S
C1461 C1456 1.425 . S
C1461 C1458 1.409 . S
C1461 C1459 1.415 . S
C1462 H1452 0.930 . S
C1462 C1460 1.419 . S
C1462 C1463 1.362 . S
C1463 H1453 0.930 . S
C1463 C1456 1.409 . S
C1463 C1462 1.362 . S
H1464 C1470 0.930 . S
H1465 C1473 0.930 . S
H1466 C1474 0.930 1_554 S
H1467 C1475 0.930 . S
H1468 C1478 0.930 . S
H1469 C1479 0.930 . S
C1470 H1464 0.930 . S
C1470 C1471 1.355 . S
C1470 C1472 1.415 . S
C1471 C1470 1.355 . S
C1471 C1473 1.419 . S
C1472 C1470 1.415 . S
C1472 C1477 1.425 . S
C1472 C1479 1.409 . S
C1473 H1465 0.930 . S
C1473 C1471 1.419 . S
C1473 C1474 1.362 . S
C1474 H1466 0.930 1_556 S
C1474 C1473 1.362 . S
C1474 C1477 1.409 . S
C1475 H1467 0.930 . S
C1475 C1476 1.355 . S
C1475 C1477 1.415 1_554 S
C1476 C1475 1.355 . S
C1476 C1478 1.419 1_554 S
C1477 C1472 1.425 . S
C1477 C1474 1.409 . S
C1477 C1475 1.415 1_556 S
C1478 H1468 0.930 . S
C1478 C1476 1.419 1_556 S
C1478 C1479 1.362 . S
C1479 H1469 0.930 . S
C1479 C1472 1.409 . S
C1479 C1478 1.362 . S
H1480 C1486 0.930 . S
H1481 C1489 0.930 . S
H1482 C1490 0.930 . S
H1483 C1491 0.930 . S
H1484 C1494 0.930 . S
H1485 C1495 0.930 . S
C1486 H1480 0.930 . S
C1486 C1487 1.355 . S
C1486 C1488 1.415 . S
C1487 C1486 1.355 . S
C1487 C1489 1.419 . S
C1488 C1486 1.415 . S
C1488 C1493 1.425 . S
C1488 C1495 1.409 . S
C1489 H1481 0.930 . S
C1489 C1487 1.419 . S
C1489 C1490 1.362 . S
C1490 H1482 0.930 . S
C1490 C1489 1.362 . S
C1490 C1493 1.409 . S
C1491 H1483 0.930 . S
C1491 C1492 1.355 . S
C1491 C1493 1.415 . S
C1492 C1491 1.355 . S
C1492 C1494 1.419 . S
C1493 C1488 1.425 . S
C1493 C1490 1.409 . S
C1493 C1491 1.415 . S
C1494 H1484 0.930 . S
C1494 C1492 1.419 . S
C1494 C1495 1.362 . S
C1495 H1485 0.930 . S
C1495 C1488 1.409 . S
C1495 C1494 1.362 . S
H1496 C1502 0.930 . S
H1497 C1505 0.930 . S
H1498 C1506 0.930 . S
H1499 C1507 0.930 . S
H1500 C1510 0.930 . S
H1501 C1511 0.930 . S
C1502 H1496 0.930 . S
C1502 C1503 1.355 . S
C1502 C1504 1.415 . S
C1503 C1502 1.355 . S
C1503 C1505 1.419 . S
C1504 C1502 1.415 . S
C1504 C1509 1.425 . S
C1504 C1511 1.409 . S
C1505 H1497 0.930 . S
C1505 C1503 1.419 . S
C1505 C1506 1.362 . S
C1506 H1498 0.930 . S
C1506 C1505 1.362 . S
C1506 C1509 1.409 . S
C1507 H1499 0.930 . S
C1507 C1508 1.355 . S
C1507 C1509 1.415 . S
C1508 C1507 1.355 . S
C1508 C1510 1.419 . S
C1509 C1504 1.425 . S
C1509 C1506 1.409 . S
C1509 C1507 1.415 . S
C1510 H1500 0.930 . S
C1510 C1508 1.419 . S
C1510 C1511 1.362 . S
C1511 H1501 0.930 . S
C1511 C1504 1.409 . S
C1511 C1510 1.362 . S
H1512 C1518 0.930 . S
H1513 C1521 0.930 . S
H1514 C1522 0.930 . S
H1515 C1523 0.930 . S
H1516 C1526 0.930 . S
H1517 C1527 0.930 . S
C1518 H1512 0.930 . S
C1518 C1519 1.355 . S
C1518 C1520 1.415 . S
C1519 C1518 1.355 . S
C1519 C1521 1.419 . S
C1520 C1518 1.415 . S
C1520 C1525 1.425 . S
C1520 C1527 1.409 . S
C1521 H1513 0.930 . S
C1521 C1519 1.419 . S
C1521 C1522 1.362 . S
C1522 H1514 0.930 . S
C1522 C1521 1.362 . S
C1522 C1525 1.409 . S
C1523 H1515 0.930 . S
C1523 C1524 1.355 . S
C1523 C1525 1.415 . S
C1524 C1523 1.355 . S
C1524 C1526 1.419 . S
C1525 C1520 1.425 . S
C1525 C1522 1.409 . S
C1525 C1523 1.415 . S
C1526 H1516 0.930 . S
C1526 C1524 1.419 . S
C1526 C1527 1.362 . S
C1527 H1517 0.930 . S
C1527 C1520 1.409 . S
C1527 C1526 1.362 . S
H1528 C1534 0.930 . S
H1529 C1537 0.930 . S
H1530 C1538 0.930 . S
H1531 C1539 0.930 . S
H1532 C1542 0.930 . S
H1533 C1543 0.930 . S
C1534 H1528 0.930 . S
C1534 C1535 1.355 . S
C1534 C1536 1.415 . S
C1535 C1534 1.355 . S
C1535 C1537 1.419 . S
C1536 C1534 1.415 . S
C1536 C1541 1.425 . S
C1536 C1543 1.409 . S
C1537 H1529 0.930 . S
C1537 C1535 1.419 . S
C1537 C1538 1.362 . S
C1538 H1530 0.930 . S
C1538 C1537 1.362 . S
C1538 C1541 1.409 . S
C1539 H1531 0.930 . S
C1539 C1540 1.355 . S
C1539 C1541 1.415 . S
C1540 C1539 1.355 . S
C1540 C1542 1.419 . S
C1541 C1536 1.425 . S
C1541 C1538 1.409 . S
C1541 C1539 1.415 . S
C1542 H1532 0.930 . S
C1542 C1540 1.419 . S
C1542 C1543 1.362 . S
C1543 H1533 0.930 . S
C1543 C1536 1.409 . S
C1543 C1542 1.362 . S
H1544 C1550 0.930 . S
H1545 C1553 0.930 . S
H1546 C1554 0.930 . S
H1547 C1555 0.930 . S
H1548 C1558 0.930 . S
H1549 C1559 0.930 . S
C1550 H1544 0.930 . S
C1550 C1551 1.355 . S
C1550 C1552 1.415 . S
C1551 C1550 1.355 . S
C1551 C1553 1.419 . S
C1552 C1550 1.415 . S
C1552 C1557 1.425 . S
C1552 C1559 1.409 . S
C1553 H1545 0.930 . S
C1553 C1551 1.419 . S
C1553 C1554 1.362 . S
C1554 H1546 0.930 . S
C1554 C1553 1.362 . S
C1554 C1557 1.409 . S
C1555 H1547 0.930 . S
C1555 C1556 1.355 . S
C1555 C1557 1.415 . S
C1556 C1555 1.355 . S
C1556 C1558 1.419 . S
C1557 C1552 1.425 . S
C1557 C1554 1.409 . S
C1557 C1555 1.415 . S
C1558 H1548 0.930 . S
C1558 C1556 1.419 . S
C1558 C1559 1.362 . S
C1559 H1549 0.930 . S
C1559 C1552 1.409 . S
C1559 C1558 1.362 . S
H1560 C1566 0.930 . S
H1561 C1569 0.930 . S
H1562 C1570 0.930 . S
H1563 C1571 0.930 . S
H1564 C1574 0.930 . S
H1565 C1575 0.930 . S
C1566 H1560 0.930 . S
C1566 C1567 1.355 . S
C1566 C1568 1.415 . S
C1567 C1566 1.355 . S
C1567 C1569 1.419 . S
C1568 C1566 1.415 . S
C1568 C1573 1.425 . S
C1568 C1575 1.409 . S
C1569 H1561 0.930 . S
C1569 C1567 1.419 . S
C1569 C1570 1.362 . S
C1570 H1562 0.930 . S
C1570 C1569 1.362 . S
C1570 C1573 1.409 . S
C1571 H1563 0.930 . S
C1571 C1572 1.355 . S
C1571 C1573 1.415 . S
C1572 C1571 1.355 . S
C1572 C1574 1.419 . S
C1573 C1568 1.425 . S
C1573 C1570 1.409 . S
C1573 C1571 1.415 . S
C1574 H1564 0.930 . S
C1574 C1572 1.419 . S
C1574 C1575 1.362 . S
C1575 H1565 0.930 . S
C1575 C1568 1.409 . S
C1575 C1574 1.362 . S
H1576 C1582 0.930 . S
H1577 C1585 0.930 . S
H1578 C1586 0.930 . S
H1579 C1587 0.930 . S
H1580 C1590 0.930 . S
H1581 C1591 0.930 . S
C1582 H1576 0.930 . S
C1582 C1583 1.355 . S
C1582 C1584 1.415 . S
C1583 C1582 1.355 . S
C1583 C1585 1.419 . S
C1584 C1582 1.415 . S
C1584 C1589 1.425 . S
C1584 C1591 1.409 . S
C1585 H1577 0.930 . S
C1585 C1583 1.419 . S
C1585 C1586 1.362 . S
C1586 H1578 0.930 . S
C1586 C1585 1.362 . S
C1586 C1589 1.409 . S
C1587 H1579 0.930 . S
C1587 C1588 1.355 . S
C1587 C1589 1.415 . S
C1588 C1587 1.355 . S
C1588 C1590 1.419 . S
C1589 C1584 1.425 . S
C1589 C1586 1.409 . S
C1589 C1587 1.415 . S
C1590 H1580 0.930 . S
C1590 C1588 1.419 . S
C1590 C1591 1.362 . S
C1591 H1581 0.930 . S
C1591 C1584 1.409 . S
C1591 C1590 1.362 . S
H1592 C1598 0.930 . S
H1593 C1601 0.930 . S
H1594 C1602 0.930 . S
H1595 C1603 0.930 1_455 S
H1596 C1606 0.930 . S
H1597 C1607 0.930 . S
C1598 H1592 0.930 . S
C1598 C1599 1.355 . S
C1598 C1600 1.415 . S
C1599 C1598 1.355 . S
C1599 C1601 1.419 . S
C1600 C1598 1.415 . S
C1600 C1605 1.425 . S
C1600 C1607 1.409 . S
C1601 H1593 0.930 . S
C1601 C1599 1.419 . S
C1601 C1602 1.362 . S
C1602 H1594 0.930 . S
C1602 C1601 1.362 . S
C1602 C1605 1.409 . S
C1603 H1595 0.930 1_655 S
C1603 C1604 1.355 . S
C1603 C1605 1.415 . S
C1604 C1603 1.355 . S
C1604 C1606 1.419 . S
C1605 C1600 1.425 . S
C1605 C1602 1.409 . S
C1605 C1603 1.415 . S
C1606 H1596 0.930 . S
C1606 C1604 1.419 . S
C1606 C1607 1.362 . S
C1607 H1597 0.930 . S
C1607 C1600 1.409 . S
C1607 C1606 1.362 . S
H1608 C1614 0.930 . S
H1609 C1617 0.930 . S
H1610 C1618 0.930 . S
H1611 C1619 0.930 . S
H1612 C1622 0.930 . S
H1613 C1623 0.930 . S
C1614 H1608 0.930 . S
C1614 C1615 1.355 . S
C1614 C1616 1.415 . S
C1615 C1614 1.355 . S
C1615 C1617 1.419 . S
C1616 C1614 1.415 . S
C1616 C1621 1.425 . S
C1616 C1623 1.409 . S
C1617 H1609 0.930 . S
C1617 C1615 1.419 . S
C1617 C1618 1.362 . S
C1618 H1610 0.930 . S
C1618 C1617 1.362 . S
C1618 C1621 1.409 . S
C1619 H1611 0.930 . S
C1619 C1620 1.355 . S
C1619 C1621 1.415 . S
C1620 C1619 1.355 . S
C1620 C1622 1.419 . S
C1621 C1616 1.425 . S
C1621 C1618 1.409 . S
C1621 C1619 1.415 . S
C1622 H1612 0.930 . S
C1622 C1620 1.419 . S
C1622 C1623 1.362 . S
C1623 H1613 0.930 . S
C1623 C1616 1.409 . S
C1623 C1622 1.362 . S
H1624 C1630 0.930 . S
H1625 C1633 0.930 . S
H1626 C1634 0.930 . S
H1627 C1635 0.930 . S
H1628 C1638 0.930 . S
H1629 C1639 0.930 . S
C1630 H1624 0.930 . S
C1630 C1631 1.355 . S
C1630 C1632 1.415 . S
C1631 C1630 1.355 . S
C1631 C1633 1.419 . S
C1632 C1630 1.415 . S
C1632 C1637 1.425 . S
C1632 C1639 1.409 . S
C1633 H1625 0.930 . S
C1633 C1631 1.419 . S
C1633 C1634 1.362 . S
C1634 H1626 0.930 . S
C1634 C1633 1.362 . S
C1634 C1637 1.409 . S
C1635 H1627 0.930 . S
C1635 C1636 1.355 . S
C1635 C1637 1.415 . S
C1636 C1635 1.355 . S
C1636 C1638 1.419 . S
C1637 C1632 1.425 . S
C1637 C1634 1.409 . S
C1637 C1635 1.415 . S
C1638 H1628 0.930 . S
C1638 C1636 1.419 . S
C1638 C1639 1.362 . S
C1639 H1629 0.930 . S
C1639 C1632 1.409 . S
C1639 C1638 1.362 . S
H1640 C1646 0.930 . S
H1641 C1649 0.930 . S
H1642 C1650 0.930 . S
H1643 C1651 0.930 . S
H1644 C1654 0.930 . S
H1645 C1655 0.930 . S
C1646 H1640 0.930 . S
C1646 C1647 1.355 . S
C1646 C1648 1.415 . S
C1647 C1646 1.355 . S
C1647 C1649 1.419 . S
C1648 C1646 1.415 . S
C1648 C1653 1.425 . S
C1648 C1655 1.409 . S
C1649 H1641 0.930 . S
C1649 C1647 1.419 . S
C1649 C1650 1.362 . S
C1650 H1642 0.930 . S
C1650 C1649 1.362 . S
C1650 C1653 1.409 . S
C1651 H1643 0.930 . S
C1651 C1652 1.355 . S
C1651 C1653 1.415 . S
C1652 C1651 1.355 . S
C1652 C1654 1.419 . S
C1653 C1648 1.425 . S
C1653 C1650 1.409 . S
C1653 C1651 1.415 . S
C1654 H1644 0.930 . S
C1654 C1652 1.419 . S
C1654 C1655 1.362 . S
C1655 H1645 0.930 . S
C1655 C1648 1.409 . S
C1655 C1654 1.362 . S
H1656 C1662 0.930 . S
H1657 C1665 0.930 . S
H1658 C1666 0.930 . S
H1659 C1667 0.930 . S
H1660 C1670 0.930 . S
H1661 C1671 0.930 . S
C1662 H1656 0.930 . S
C1662 C1663 1.355 . S
C1662 C1664 1.415 . S
C1663 C1662 1.355 . S
C1663 C1665 1.419 . S
C1664 C1662 1.415 . S
C1664 C1669 1.425 . S
C1664 C1671 1.409 . S
C1665 H1657 0.930 . S
C1665 C1663 1.419 . S
C1665 C1666 1.362 . S
C1666 H1658 0.930 . S
C1666 C1665 1.362 . S
C1666 C1669 1.409 . S
C1667 H1659 0.930 . S
C1667 C1668 1.355 . S
C1667 C1669 1.415 . S
C1668 C1667 1.355 . S
C1668 C1670 1.419 . S
C1669 C1664 1.425 . S
C1669 C1666 1.409 . S
C1669 C1667 1.415 . S
C1670 H1660 0.930 . S
C1670 C1668 1.419 . S
C1670 C1671 1.362 . S
C1671 H1661 0.930 . S
C1671 C1664 1.409 . S
C1671 C1670 1.362 . S
H1672 C1678 0.930 . S
H1673 C1681 0.930 . S
H1674 C1682 0.930 . S
H1675 C1683 0.930 . S
H1676 C1686 0.930 . S
H1677 C1687 0.930 . S
C1678 H1672 0.930 . S
C1678 C1679 1.355 . S
C1678 C1680 1.415 . S
C1679 C1678 1.355 . S
C1679 C1681 1.419 . S
C1680 C1678 1.415 . S
C1680 C1685 1.425 . S
C1680 C1687 1.409 . S
C1681 H1673 0.930 . S
C1681 C1679 1.419 . S
C1681 C1682 1.362 . S
C1682 H1674 0.930 . S
C1682 C1681 1.362 . S
C1682 C1685 1.409 . S
C1683 H1675 0.930 . S
C1683 C1684 1.355 . S
C1683 C1685 1.415 . S
C1684 C1683 1.355 . S
C1684 C1686 1.419 . S
C1685 C1680 1.425 . S
C1685 C1682 1.409 . S
C1685 C1683 1.415 . S
C1686 H1676 0.930 . S
C1686 C1684 1.419 . S
C1686 C1687 1.362 . S
C1687 H1677 0.930 . S
C1687 C1680 1.409 . S
C1687 C1686 1.362 . S
H1688 C1694 0.930 . S
H1689 C1697 0.930 . S
H1690 C1698 0.930 . S
H1691 C1699 0.930 . S
H1692 C1702 0.930 . S
H1693 C1703 0.930 . S
C1694 H1688 0.930 . S
C1694 C1695 1.355 . S
C1694 C1696 1.415 . S
C1695 C1694 1.355 . S
C1695 C1697 1.419 . S
C1696 C1694 1.415 . S
C1696 C1701 1.425 . S
C1696 C1703 1.409 . S
C1697 H1689 0.930 . S
C1697 C1695 1.419 . S
C1697 C1698 1.362 . S
C1698 H1690 0.930 . S
C1698 C1697 1.362 . S
C1698 C1701 1.409 . S
C1699 H1691 0.930 . S
C1699 C1700 1.355 . S
C1699 C1701 1.415 . S
C1700 C1699 1.355 . S
C1700 C1702 1.419 . S
C1701 C1696 1.425 . S
C1701 C1698 1.409 . S
C1701 C1699 1.415 . S
C1702 H1692 0.930 . S
C1702 C1700 1.419 . S
C1702 C1703 1.362 . S
C1703 H1693 0.930 . S
C1703 C1696 1.409 . S
C1703 C1702 1.362 . S
H1704 C1710 0.930 . S
H1705 C1713 0.930 . S
H1706 C1714 0.930 . S
H1707 C1715 0.930 . S
H1708 C1718 0.930 . S
H1709 C1719 0.930 . S
C1710 H1704 0.930 . S
C1710 C1711 1.355 . S
C1710 C1712 1.415 . S
C1711 C1710 1.355 . S
C1711 C1713 1.419 . S
C1712 C1710 1.415 . S
C1712 C1717 1.425 . S
C1712 C1719 1.409 . S
C1713 H1705 0.930 . S
C1713 C1711 1.419 . S
C1713 C1714 1.362 . S
C1714 H1706 0.930 . S
C1714 C1713 1.362 . S
C1714 C1717 1.409 . S
C1715 H1707 0.930 . S
C1715 C1716 1.355 . S
C1715 C1717 1.415 . S
C1716 C1715 1.355 . S
C1716 C1718 1.419 . S
C1717 C1712 1.425 . S
C1717 C1714 1.409 . S
C1717 C1715 1.415 . S
C1718 H1708 0.930 . S
C1718 C1716 1.419 . S
C1718 C1719 1.362 . S
C1719 H1709 0.930 . S
C1719 C1712 1.409 . S
C1719 C1718 1.362 . S
H1720 C1726 0.930 . S
H1721 C1729 0.930 . S
H1722 C1730 0.930 . S
H1723 C1731 0.930 . S
H1724 C1734 0.930 . S
H1725 C1735 0.930 . S
C1726 H1720 0.930 . S
C1726 C1727 1.355 . S
C1726 C1728 1.415 . S
C1727 C1726 1.355 . S
C1727 C1729 1.419 . S
C1728 C1726 1.415 . S
C1728 C1733 1.425 . S
C1728 C1735 1.409 . S
C1729 H1721 0.930 . S
C1729 C1727 1.419 . S
C1729 C1730 1.362 . S
C1730 H1722 0.930 . S
C1730 C1729 1.362 . S
C1730 C1733 1.409 . S
C1731 H1723 0.930 . S
C1731 C1732 1.355 . S
C1731 C1733 1.415 . S
C1732 C1731 1.355 . S
C1732 C1734 1.419 . S
C1733 C1728 1.425 . S
C1733 C1730 1.409 . S
C1733 C1731 1.415 . S
C1734 H1724 0.930 . S
C1734 C1732 1.419 . S
C1734 C1735 1.362 . S
C1735 H1725 0.930 . S
C1735 C1728 1.409 . S
C1735 C1734 1.362 . S
H1736 C1742 0.930 . S
H1737 C1745 0.930 . S
H1738 C1746 0.930 . S
H1739 C1747 0.930 . S
H1740 C1750 0.930 . S
H1741 C1751 0.930 . S
C1742 H1736 0.930 . S
C1742 C1743 1.355 . S
C1742 C1744 1.415 . S
C1743 C1742 1.355 . S
C1743 C1745 1.419 . S
C1744 C1742 1.415 . S
C1744 C1749 1.425 . S
C1744 C1751 1.409 . S
C1745 H1737 0.930 . S
C1745 C1743 1.419 . S
C1745 C1746 1.362 . S
C1746 H1738 0.930 . S
C1746 C1745 1.362 . S
C1746 C1749 1.409 . S
C1747 H1739 0.930 . S
C1747 C1748 1.355 . S
C1747 C1749 1.415 . S
C1748 C1747 1.355 . S
C1748 C1750 1.419 . S
C1749 C1744 1.425 . S
C1749 C1746 1.409 . S
C1749 C1747 1.415 . S
C1750 H1740 0.930 . S
C1750 C1748 1.419 . S
C1750 C1751 1.362 . S
C1751 H1741 0.930 . S
C1751 C1744 1.409 . S
C1751 C1750 1.362 . S
H1752 C1758 0.930 . S
H1753 C1761 0.930 . S
H1754 C1762 0.930 . S
H1755 C1763 0.930 . S
H1756 C1766 0.930 . S
H1757 C1767 0.930 . S
C1758 H1752 0.930 . S
C1758 C1759 1.355 . S
C1758 C1760 1.415 . S
C1759 C1758 1.355 . S
C1759 C1761 1.419 . S
C1760 C1758 1.415 . S
C1760 C1765 1.425 1_556 S
C1760 C1767 1.409 . S
C1761 H1753 0.930 . S
C1761 C1759 1.419 . S
C1761 C1762 1.362 1_556 S
C1762 H1754 0.930 . S
C1762 C1761 1.362 1_554 S
C1762 C1765 1.409 . S
C1763 H1755 0.930 . S
C1763 C1764 1.355 . S
C1763 C1765 1.415 . S
C1764 C1763 1.355 . S
C1764 C1766 1.419 . S
C1765 C1760 1.425 1_554 S
C1765 C1762 1.409 . S
C1765 C1763 1.415 . S
C1766 H1756 0.930 . S
C1766 C1764 1.419 . S
C1766 C1767 1.362 1_554 S
C1767 H1757 0.930 . S
C1767 C1760 1.409 . S
C1767 C1766 1.362 1_556 S
H1768 C1774 0.930 . S
H1769 C1777 0.930 . S
H1770 C1778 0.930 . S
H1771 C1779 0.930 . S
H1772 C1782 0.930 . S
H1773 C1783 0.930 . S
C1774 H1768 0.930 . S
C1774 C1775 1.355 . S
C1774 C1776 1.415 . S
C1775 C1774 1.355 . S
C1775 C1777 1.419 . S
C1776 C1774 1.415 . S
C1776 C1781 1.425 . S
C1776 C1783 1.409 . S
C1777 H1769 0.930 . S
C1777 C1775 1.419 . S
C1777 C1778 1.362 . S
C1778 H1770 0.930 . S
C1778 C1777 1.362 . S
C1778 C1781 1.409 . S
C1779 H1771 0.930 . S
C1779 C1780 1.355 . S
C1779 C1781 1.415 . S
C1780 C1779 1.355 . S
C1780 C1782 1.419 . S
C1781 C1776 1.425 . S
C1781 C1778 1.409 . S
C1781 C1779 1.415 . S
C1782 H1772 0.930 . S
C1782 C1780 1.419 . S
C1782 C1783 1.362 . S
C1783 H1773 0.930 . S
C1783 C1776 1.409 . S
C1783 C1782 1.362 . S
H1784 C1790 0.930 . S
H1785 C1793 0.930 . S
H1786 C1794 0.930 . S
H1787 C1795 0.930 . S
H1788 C1798 0.930 . S
H1789 C1799 0.930 . S
C1790 H1784 0.930 . S
C1790 C1791 1.355 . S
C1790 C1792 1.415 . S
C1791 C1790 1.355 . S
C1791 C1793 1.419 . S
C1792 C1790 1.415 . S
C1792 C1797 1.425 . S
C1792 C1799 1.409 . S
C1793 H1785 0.930 . S
C1793 C1791 1.419 . S
C1793 C1794 1.362 . S
C1794 H1786 0.930 . S
C1794 C1793 1.362 . S
C1794 C1797 1.409 . S
C1795 H1787 0.930 . S
C1795 C1796 1.355 . S
C1795 C1797 1.415 . S
C1796 C1795 1.355 . S
C1796 C1798 1.419 . S
C1797 C1792 1.425 . S
C1797 C1794 1.409 . S
C1797 C1795 1.415 . S
C1798 H1788 0.930 . S
C1798 C1796 1.419 . S
C1798 C1799 1.362 . S
C1799 H1789 0.930 . S
C1799 C1792 1.409 . S
C1799 C1798 1.362 . S
H1800 C1806 0.930 . S
H1801 C1809 0.930 . S
H1802 C1810 0.930 . S
H1803 C1811 0.930 . S
H1804 C1814 0.930 . S
H1805 C1815 0.930 . S
C1806 H1800 0.930 . S
C1806 C1807 1.355 1_655 S
C1806 C1808 1.415 . S
C1807 C1806 1.355 1_455 S
C1807 C1809 1.419 . S
C1808 C1806 1.415 . S
C1808 C1813 1.425 . S
C1808 C1815 1.409 . S
C1809 H1801 0.930 . S
C1809 C1807 1.419 . S
C1809 C1810 1.362 . S
C1810 H1802 0.930 . S
C1810 C1809 1.362 . S
C1810 C1813 1.409 1_455 S
C1811 H1803 0.930 . S
C1811 C1812 1.355 . S
C1811 C1813 1.415 . S
C1812 C1811 1.355 . S
C1812 C1814 1.419 . S
C1813 C1808 1.425 . S
C1813 C1810 1.409 1_655 S
C1813 C1811 1.415 . S
C1814 H1804 0.930 . S
C1814 C1812 1.419 . S
C1814 C1815 1.362 . S
C1815 H1805 0.930 . S
C1815 C1808 1.409 . S
C1815 C1814 1.362 . S
H1816 C1822 0.930 . S
H1817 C1825 0.930 . S
H1818 C1826 0.930 . S
H1819 C1827 0.930 . S
H1820 C1830 0.930 . S
H1821 C1831 0.930 . S
C1822 H1816 0.930 . S
C1822 C1823 1.355 1_455 S
C1822 C1824 1.415 . S
C1823 C1822 1.355 1_655 S
C1823 C1825 1.419 . S
C1824 C1822 1.415 . S
C1824 C1829 1.425 1_455 S
C1824 C1831 1.409 . S
C1825 H1817 0.930 . S
C1825 C1823 1.419 . S
C1825 C1826 1.362 . S
C1826 H1818 0.930 . S
C1826 C1825 1.362 . S
C1826 C1829 1.409 . S
C1827 H1819 0.930 . S
C1827 C1828 1.355 1_655 S
C1827 C1829 1.415 . S
C1828 C1827 1.355 1_455 S
C1828 C1830 1.419 . S
C1829 C1824 1.425 1_655 S
C1829 C1826 1.409 . S
C1829 C1827 1.415 . S
C1830 H1820 0.930 . S
C1830 C1828 1.419 . S
C1830 C1831 1.362 . S
C1831 H1821 0.930 . S
C1831 C1824 1.409 . S
C1831 C1830 1.362 . S
H1832 C1838 0.930 . S
H1833 C1841 0.930 . S
H1834 C1842 0.930 . S
H1835 C1843 0.930 . S
H1836 C1846 0.930 . S
H1837 C1847 0.930 . S
C1838 H1832 0.930 . S
C1838 C1839 1.355 . S
C1838 C1840 1.415 . S
C1839 C1838 1.355 . S
C1839 C1841 1.419 . S
C1840 C1838 1.415 . S
C1840 C1845 1.425 . S
C1840 C1847 1.409 . S
C1841 H1833 0.930 . S
C1841 C1839 1.419 . S
C1841 C1842 1.362 . S
C1842 H1834 0.930 . S
C1842 C1841 1.362 . S
C1842 C1845 1.409 . S
C1843 H1835 0.930 . S
C1843 C1844 1.355 . S
C1843 C1845 1.415 . S
C1844 C1843 1.355 . S
C1844 C1846 1.419 . S
C1845 C1840 1.425 . S
C1845 C1842 1.409 . S
C1845 C1843 1.415 . S
C1846 H1836 0.930 . S
C1846 C1844 1.419 . S
C1846 C1847 1.362 . S
C1847 H1837 0.930 . S
C1847 C1840 1.409 . S
C1847 C1846 1.362 . S
H1848 C1854 0.930 . S
H1849 C1857 0.930 . S
H1850 C1858 0.930 . S
H1851 C1859 0.930 . S
H1852 C1862 0.930 . S
H1853 C1863 0.930 . S
C1854 H1848 0.930 . S
C1854 C1855 1.355 . S
C1854 C1856 1.415 . S
C1855 C1854 1.355 . S
C1855 C1857 1.419 . S
C1856 C1854 1.415 . S
C1856 C1861 1.425 . S
C1856 C1863 1.409 . S
C1857 H1849 0.930 . S
C1857 C1855 1.419 . S
C1857 C1858 1.362 . S
C1858 H1850 0.930 . S
C1858 C1857 1.362 . S
C1858 C1861 1.409 . S
C1859 H1851 0.930 . S
C1859 C1860 1.355 . S
C1859 C1861 1.415 . S
C1860 C1859 1.355 . S
C1860 C1862 1.419 . S
C1861 C1856 1.425 . S
C1861 C1858 1.409 . S
C1861 C1859 1.415 . S
C1862 H1852 0.930 . S
C1862 C1860 1.419 . S
C1862 C1863 1.362 . S
C1863 H1853 0.930 . S
C1863 C1856 1.409 . S
C1863 C1862 1.362 . S
H1864 C1870 0.930 . S
H1865 C1873 0.930 1_554 S
H1866 C1874 0.930 . S
H1867 C1875 0.930 . S
H1868 C1878 0.930 . S
H1869 C1879 0.930 . S
C1870 H1864 0.930 . S
C1870 C1871 1.355 . S
C1870 C1872 1.415 . S
C1871 C1870 1.355 . S
C1871 C1873 1.419 . S
C1872 C1870 1.415 . S
C1872 C1877 1.425 . S
C1872 C1879 1.409 . S
C1873 H1865 0.930 1_556 S
C1873 C1871 1.419 . S
C1873 C1874 1.362 . S
C1874 H1866 0.930 . S
C1874 C1873 1.362 . S
C1874 C1877 1.409 . S
C1875 H1867 0.930 . S
C1875 C1876 1.355 . S
C1875 C1877 1.415 . S
C1876 C1875 1.355 . S
C1876 C1878 1.419 . S
C1877 C1872 1.425 . S
C1877 C1874 1.409 . S
C1877 C1875 1.415 . S
C1878 H1868 0.930 . S
C1878 C1876 1.419 . S
C1878 C1879 1.362 . S
C1879 H1869 0.930 . S
C1879 C1872 1.409 . S
C1879 C1878 1.362 . S
H1880 C1886 0.930 . S
H1881 C1889 0.930 . S
H1882 C1890 0.930 . S
H1883 C1891 0.930 . S
H1884 C1894 0.930 . S
H1885 C1895 0.930 . S
C1886 H1880 0.930 . S
C1886 C1887 1.355 . S
C1886 C1888 1.415 . S
C1887 C1886 1.355 . S
C1887 C1889 1.419 . S
C1888 C1886 1.415 . S
C1888 C1893 1.425 . S
C1888 C1895 1.409 . S
C1889 H1881 0.930 . S
C1889 C1887 1.419 . S
C1889 C1890 1.362 . S
C1890 H1882 0.930 . S
C1890 C1889 1.362 . S
C1890 C1893 1.409 . S
C1891 H1883 0.930 . S
C1891 C1892 1.355 . S
C1891 C1893 1.415 . S
C1892 C1891 1.355 . S
C1892 C1894 1.419 . S
C1893 C1888 1.425 . S
C1893 C1890 1.409 . S
C1893 C1891 1.415 . S
C1894 H1884 0.930 . S
C1894 C1892 1.419 . S
C1894 C1895 1.362 . S
C1895 H1885 0.930 . S
C1895 C1888 1.409 . S
C1895 C1894 1.362 . S
H1896 C1902 0.930 . S
H1897 C1905 0.930 . S
H1898 C1906 0.930 . S
H1899 C1907 0.930 . S
H1900 C1910 0.930 . S
H1901 C1911 0.930 . S
C1902 H1896 0.930 . S
C1902 C1903 1.355 . S
C1902 C1904 1.415 . S
C1903 C1902 1.355 . S
C1903 C1905 1.419 . S
C1904 C1902 1.415 . S
C1904 C1909 1.425 . S
C1904 C1911 1.409 . S
C1905 H1897 0.930 . S
C1905 C1903 1.419 . S
C1905 C1906 1.362 . S
C1906 H1898 0.930 . S
C1906 C1905 1.362 . S
C1906 C1909 1.409 . S
C1907 H1899 0.930 . S
C1907 C1908 1.355 . S
C1907 C1909 1.415 . S
C1908 C1907 1.355 . S
C1908 C1910 1.419 . S
C1909 C1904 1.425 . S
C1909 C1906 1.409 . S
C1909 C1907 1.415 . S
C1910 H1900 0.930 . S
C1910 C1908 1.419 . S
C1910 C1911 1.362 . S
C1911 H1901 0.930 . S
C1911 C1904 1.409 . S
C1911 C1910 1.362 . S
H1912 C1918 0.930 . S
H1913 C1921 0.930 . S
H1914 C1922 0.930 . S
H1915 C1923 0.930 . S
H1916 C1926 0.930 1_554 S
H1917 C1927 0.930 . S
C1918 H1912 0.930 . S
C1918 C1919 1.355 . S
C1918 C1920 1.415 . S
C1919 C1918 1.355 . S
C1919 C1921 1.419 . S
C1920 C1918 1.415 . S
C1920 C1925 1.425 . S
C1920 C1927 1.409 . S
C1921 H1913 0.930 . S
C1921 C1919 1.419 . S
C1921 C1922 1.362 . S
C1922 H1914 0.930 . S
C1922 C1921 1.362 . S
C1922 C1925 1.409 . S
C1923 H1915 0.930 . S
C1923 C1924 1.355 . S
C1923 C1925 1.415 . S
C1924 C1923 1.355 . S
C1924 C1926 1.419 . S
C1925 C1920 1.425 . S
C1925 C1922 1.409 . S
C1925 C1923 1.415 . S
C1926 H1916 0.930 1_556 S
C1926 C1924 1.419 . S
C1926 C1927 1.362 . S
C1927 H1917 0.930 . S
C1927 C1920 1.409 . S
C1927 C1926 1.362 . S
H1928 C1934 0.930 . S
H1929 C1937 0.930 . S
H1930 C1938 0.930 . S
H1931 C1939 0.930 . S
H1932 C1942 0.930 . S
H1933 C1943 0.930 . S
C1934 H1928 0.930 . S
C1934 C1935 1.355 . S
C1934 C1936 1.415 . S
C1935 C1934 1.355 . S
C1935 C1937 1.419 . S
C1936 C1934 1.415 . S
C1936 C1941 1.425 . S
C1936 C1943 1.409 . S
C1937 H1929 0.930 . S
C1937 C1935 1.419 . S
C1937 C1938 1.362 . S
C1938 H1930 0.930 . S
C1938 C1937 1.362 . S
C1938 C1941 1.409 . S
C1939 H1931 0.930 . S
C1939 C1940 1.355 . S
C1939 C1941 1.415 . S
C1940 C1939 1.355 . S
C1940 C1942 1.419 . S
C1941 C1936 1.425 . S
C1941 C1938 1.409 . S
C1941 C1939 1.415 . S
C1942 H1932 0.930 . S
C1942 C1940 1.419 . S
C1942 C1943 1.362 . S
C1943 H1933 0.930 . S
C1943 C1936 1.409 . S
C1943 C1942 1.362 . S
H1944 C1950 0.930 . S
H1945 C1953 0.930 . S
H1946 C1954 0.930 . S
H1947 C1955 0.930 . S
H1948 C1958 0.930 . S
H1949 C1959 0.930 . S
C1950 H1944 0.930 . S
C1950 C1951 1.355 . S
C1950 C1952 1.415 . S
C1951 C1950 1.355 . S
C1951 C1953 1.419 . S
C1952 C1950 1.415 . S
C1952 C1957 1.425 . S
C1952 C1959 1.409 . S
C1953 H1945 0.930 . S
C1953 C1951 1.419 . S
C1953 C1954 1.362 . S
C1954 H1946 0.930 . S
C1954 C1953 1.362 . S
C1954 C1957 1.409 . S
C1955 H1947 0.930 . S
C1955 C1956 1.355 . S
C1955 C1957 1.415 . S
C1956 C1955 1.355 . S
C1956 C1958 1.419 . S
C1957 C1952 1.425 . S
C1957 C1954 1.409 . S
C1957 C1955 1.415 . S
C1958 H1948 0.930 . S
C1958 C1956 1.419 . S
C1958 C1959 1.362 . S
C1959 H1949 0.930 . S
C1959 C1952 1.409 . S
C1959 C1958 1.362 . S
H1960 C1966 0.930 . S
H1961 C1969 0.930 . S
H1962 C1970 0.930 . S
H1963 C1971 0.930 . S
H1964 C1974 0.930 . S
H1965 C1975 0.930 . S
C1966 H1960 0.930 . S
C1966 C1967 1.355 . S
C1966 C1968 1.415 . S
C1967 C1966 1.355 . S
C1967 C1969 1.419 . S
C1968 C1966 1.415 . S
C1968 C1973 1.425 . S
C1968 C1975 1.409 . S
C1969 H1961 0.930 . S
C1969 C1967 1.419 . S
C1969 C1970 1.362 . S
C1970 H1962 0.930 . S
C1970 C1969 1.362 . S
C1970 C1973 1.409 . S
C1971 H1963 0.930 . S
C1971 C1972 1.355 . S
C1971 C1973 1.415 . S
C1972 C1971 1.355 . S
C1972 C1974 1.419 . S
C1973 C1968 1.425 . S
C1973 C1970 1.409 . S
C1973 C1971 1.415 . S
C1974 H1964 0.930 . S
C1974 C1972 1.419 . S
C1974 C1975 1.362 . S
C1975 H1965 0.930 . S
C1975 C1968 1.409 . S
C1975 C1974 1.362 . S
H1976 C1982 0.930 . S
H1977 C1985 0.930 . S
H1978 C1986 0.930 . S
H1979 C1987 0.930 . S
H1980 C1990 0.930 . S
H1981 C1991 0.930 . S
C1982 H1976 0.930 . S
C1982 C1983 1.355 . S
C1982 C1984 1.415 . S
C1983 C1982 1.355 . S
C1983 C1985 1.419 . S
C1984 C1982 1.415 . S
C1984 C1989 1.425 . S
C1984 C1991 1.409 . S
C1985 H1977 0.930 . S
C1985 C1983 1.419 . S
C1985 C1986 1.362 . S
C1986 H1978 0.930 . S
C1986 C1985 1.362 . S
C1986 C1989 1.409 . S
C1987 H1979 0.930 . S
C1987 C1988 1.355 . S
C1987 C1989 1.415 . S
C1988 C1987 1.355 . S
C1988 C1990 1.419 . S
C1989 C1984 1.425 . S
C1989 C1986 1.409 . S
C1989 C1987 1.415 . S
C1990 H1980 0.930 . S
C1990 C1988 1.419 . S
C1990 C1991 1.362 . S
C1991 H1981 0.930 . S
C1991 C1984 1.409 . S
C1991 C1990 1.362 . S
H1992 C1998 0.930 . S
H1993 C2001 0.930 . S
H1994 C2002 0.930 . S
H1995 C2003 0.930 . S
H1996 C2006 0.930 . S
H1997 C2007 0.930 . S
C1998 H1992 0.930 . S
C1998 C1999 1.355 . S
C1998 C2000 1.415 . S
C1999 C1998 1.355 . S
C1999 C2001 1.419 . S
C2000 C1998 1.415 . S
C2000 C2005 1.425 . S
C2000 C2007 1.409 . S
C2001 H1993 0.930 . S
C2001 C1999 1.419 . S
C2001 C2002 1.362 . S
C2002 H1994 0.930 . S
C2002 C2001 1.362 . S
C2002 C2005 1.409 . S
C2003 H1995 0.930 . S
C2003 C2004 1.355 . S
C2003 C2005 1.415 . S
C2004 C2003 1.355 . S
C2004 C2006 1.419 . S
C2005 C2000 1.425 . S
C2005 C2002 1.409 . S
C2005 C2003 1.415 . S
C2006 H1996 0.930 . S
C2006 C2004 1.419 . S
C2006 C2007 1.362 . S
C2007 H1997 0.930 . S
C2007 C2000 1.409 . S
C2007 C2006 1.362 . S
H2008 C2014 0.930 . S
H2009 C2017 0.930 1_545 S
H2010 C2018 0.930 . S
H2011 C2019 0.930 . S
H2012 C2022 0.930 . S
H2013 C2023 0.930 . S
C2014 H2008 0.930 . S
C2014 C2015 1.355 . S
C2014 C2016 1.415 . S
C2015 C2014 1.355 . S
C2015 C2017 1.419 . S
C2016 C2014 1.415 . S
C2016 C2021 1.425 . S
C2016 C2023 1.409 . S
C2017 H2009 0.930 1_565 S
C2017 C2015 1.419 . S
C2017 C2018 1.362 . S
C2018 H2010 0.930 . S
C2018 C2017 1.362 . S
C2018 C2021 1.409 . S
C2019 H2011 0.930 . S
C2019 C2020 1.355 . S
C2019 C2021 1.415 . S
C2020 C2019 1.355 . S
C2020 C2022 1.419 . S
C2021 C2016 1.425 . S
C2021 C2018 1.409 . S
C2021 C2019 1.415 . S
C2022 H2012 0.930 . S
C2022 C2020 1.419 . S
C2022 C2023 1.362 . S
C2023 H2013 0.930 . S
C2023 C2016 1.409 . S
C2023 C2022 1.362 . S
H2024 C2030 0.930 . S
H2025 C2033 0.930 . S
H2026 C2034 0.930 . S
H2027 C2035 0.931 . S
H2028 C2038 0.930 . S
H2029 C2039 0.932 . S
C2030 H2024 0.930 . S
C2030 C2031 1.355 . S
C2030 C2032 1.415 . S
C2031 C2030 1.355 . S
C2031 C2033 1.419 . S
C2032 C2030 1.415 . S
C2032 C2037 1.425 . S
C2032 C2039 1.404 1_565 S
C2033 H2025 0.930 . S
C2033 C2031 1.419 . S
C2033 C2034 1.362 . S
C2034 H2026 0.930 . S
C2034 C2033 1.362 . S
C2034 C2037 1.409 . S
C2035 H2027 0.931 . S
C2035 C2036 1.326 1_565 S
C2035 C2037 1.434 . S
C2036 C2035 1.326 1_545 S
C2036 C2038 1.419 . S
C2037 C2032 1.425 . S
C2037 C2034 1.409 . S
C2037 C2035 1.434 . S
C2038 H2028 0.930 . S
C2038 C2036 1.419 . S
C2038 C2039 1.365 . S
C2039 H2029 0.932 . S
C2039 C2032 1.404 1_545 S
C2039 C2038 1.365 . S
H2040 C2046 0.930 . S
H2041 C2049 0.930 . S
H2042 C2050 0.930 . S
H2043 C2051 0.930 . S
H2044 C2054 0.930 . S
H2045 C2055 0.930 . S
C2046 H2040 0.930 . S
C2046 C2047 1.355 . S
C2046 C2048 1.415 . S
C2047 C2046 1.355 . S
C2047 C2049 1.419 . S
C2048 C2046 1.415 . S
C2048 C2053 1.425 . S
C2048 C2055 1.409 . S
C2049 H2041 0.930 . S
C2049 C2047 1.419 . S
C2049 C2050 1.362 . S
C2050 H2042 0.930 . S
C2050 C2049 1.362 . S
C2050 C2053 1.409 . S
C2051 H2043 0.930 . S
C2051 C2052 1.355 . S
C2051 C2053 1.415 . S
C2052 C2051 1.355 . S
C2052 C2054 1.419 . S
C2053 C2048 1.425 . S
C2053 C2050 1.409 . S
C2053 C2051 1.415 . S
C2054 H2044 0.930 . S
C2054 C2052 1.419 . S
C2054 C2055 1.362 . S
C2055 H2045 0.930 . S
C2055 C2048 1.409 . S
C2055 C2054 1.362 . S
H2056 C2062 0.930 . S
H2057 C2065 0.930 . S
H2058 C2066 0.930 . S
H2059 C2067 0.930 . S
H2060 C2070 0.930 . S
H2061 C2071 0.930 . S
C2062 H2056 0.930 . S
C2062 C2063 1.355 . S
C2062 C2064 1.415 . S
C2063 C2062 1.355 . S
C2063 C2065 1.419 . S
C2064 C2062 1.415 . S
C2064 C2069 1.425 . S
C2064 C2071 1.409 . S
C2065 H2057 0.930 . S
C2065 C2063 1.419 . S
C2065 C2066 1.362 . S
C2066 H2058 0.930 . S
C2066 C2065 1.362 . S
C2066 C2069 1.409 . S
C2067 H2059 0.930 . S
C2067 C2068 1.355 . S
C2067 C2069 1.415 . S
C2068 C2067 1.355 . S
C2068 C2070 1.419 . S
C2069 C2064 1.425 . S
C2069 C2066 1.409 . S
C2069 C2067 1.415 . S
C2070 H2060 0.930 . S
C2070 C2068 1.419 . S
C2070 C2071 1.362 . S
C2071 H2061 0.930 . S
C2071 C2064 1.409 . S
C2071 C2070 1.362 . S
H2072 C2078 0.930 . S
H2073 C2081 0.930 . S
H2074 C2082 0.930 . S
H2075 C2083 0.930 . S
H2076 C2086 0.930 . S
H2077 C2087 0.930 . S
C2078 H2072 0.930 . S
C2078 C2079 1.355 . S
C2078 C2080 1.415 . S
C2079 C2078 1.355 . S
C2079 C2081 1.419 . S
C2080 C2078 1.415 . S
C2080 C2085 1.425 . S
C2080 C2087 1.409 . S
C2081 H2073 0.930 . S
C2081 C2079 1.419 . S
C2081 C2082 1.362 . S
C2082 H2074 0.930 . S
C2082 C2081 1.362 . S
C2082 C2085 1.409 . S
C2083 H2075 0.930 . S
C2083 C2084 1.355 . S
C2083 C2085 1.415 . S
C2084 C2083 1.355 . S
C2084 C2086 1.419 . S
C2085 C2080 1.425 . S
C2085 C2082 1.409 . S
C2085 C2083 1.415 . S
C2086 H2076 0.930 . S
C2086 C2084 1.419 . S
C2086 C2087 1.362 . S
C2087 H2077 0.930 . S
C2087 C2080 1.409 . S
C2087 C2086 1.362 . S
H2088 C2094 0.930 . S
H2089 C2097 0.930 . S
H2090 C2098 0.930 . S
H2091 C2099 0.930 . S
H2092 C2102 0.930 . S
H2093 C2103 0.953 . S
C2094 H2088 0.930 . S
C2094 C2095 1.355 . S
C2094 C2096 1.415 . S
C2095 C2094 1.355 . S
C2095 C2097 1.419 . S
C2096 C2094 1.415 . S
C2096 C2101 1.425 . S
C2096 C2103 1.409 . S
C2097 H2089 0.930 . S
C2097 C2095 1.419 . S
C2097 C2098 1.362 . S
C2098 H2090 0.930 . S
C2098 C2097 1.362 . S
C2098 C2101 1.409 . S
C2099 H2091 0.930 . S
C2099 C2100 1.355 . S
C2099 C2101 1.415 . S
C2100 C2099 1.355 . S
C2100 C2102 1.419 1_545 S
C2101 C2096 1.425 . S
C2101 C2098 1.409 . S
C2101 C2099 1.415 . S
C2102 H2092 0.930 . S
C2102 C2100 1.419 1_565 S
C2102 C2103 1.362 1_565 S
C2103 H2093 0.953 . S
C2103 C2096 1.409 . S
C2103 C2102 1.362 1_545 S
H2104 C2110 0.930 . S
H2105 C2113 0.930 . S
H2106 C2114 0.930 . S
H2107 C2115 0.930 . S
H2108 C2118 0.930 . S
H2109 C2119 0.930 . S
C2110 H2104 0.930 . S
C2110 C2111 1.355 . S
C2110 C2112 1.415 . S
C2111 C2110 1.355 . S
C2111 C2113 1.419 . S
C2112 C2110 1.415 . S
C2112 C2117 1.425 . S
C2112 C2119 1.409 . S
C2113 H2105 0.930 . S
C2113 C2111 1.419 . S
C2113 C2114 1.362 . S
C2114 H2106 0.930 . S
C2114 C2113 1.362 . S
C2114 C2117 1.409 . S
C2115 H2107 0.930 . S
C2115 C2116 1.355 . S
C2115 C2117 1.415 . S
C2116 C2115 1.355 . S
C2116 C2118 1.419 . S
C2117 C2112 1.425 . S
C2117 C2114 1.409 . S
C2117 C2115 1.415 . S
C2118 H2108 0.930 . S
C2118 C2116 1.419 . S
C2118 C2119 1.362 . S
C2119 H2109 0.930 . S
C2119 C2112 1.409 . S
C2119 C2118 1.362 . S
H2120 C2126 0.930 . S
H2121 C2129 0.930 . S
H2122 C2130 0.930 . S
H2123 C2131 0.930 . S
H2124 C2134 0.930 . S
H2125 C2135 0.930 . S
C2126 H2120 0.930 . S
C2126 C2127 1.355 . S
C2126 C2128 1.415 . S
C2127 C2126 1.355 . S
C2127 C2129 1.419 . S
C2128 C2126 1.415 . S
C2128 C2133 1.425 . S
C2128 C2135 1.409 . S
C2129 H2121 0.930 . S
C2129 C2127 1.419 . S
C2129 C2130 1.362 . S
C2130 H2122 0.930 . S
C2130 C2129 1.362 . S
C2130 C2133 1.409 . S
C2131 H2123 0.930 . S
C2131 C2132 1.355 . S
C2131 C2133 1.415 . S
C2132 C2131 1.355 . S
C2132 C2134 1.419 . S
C2133 C2128 1.425 . S
C2133 C2130 1.409 . S
C2133 C2131 1.415 . S
C2134 H2124 0.930 . S
C2134 C2132 1.419 . S
C2134 C2135 1.362 . S
C2135 H2125 0.930 . S
C2135 C2128 1.409 . S
C2135 C2134 1.362 . S
H2136 C2142 0.930 1_655 S
H2137 C2145 0.930 . S
H2138 C2146 0.930 . S
H2139 C2147 0.930 . S
H2140 C2150 0.930 . S
H2141 C2151 0.930 . S
C2142 H2136 0.930 1_455 S
C2142 C2143 1.355 . S
C2142 C2144 1.415 . S
C2143 C2142 1.355 . S
C2143 C2145 1.419 . S
C2144 C2142 1.415 . S
C2144 C2149 1.425 . S
C2144 C2151 1.409 1_455 S
C2145 H2137 0.930 . S
C2145 C2143 1.419 . S
C2145 C2146 1.362 . S
C2146 H2138 0.930 . S
C2146 C2145 1.362 . S
C2146 C2149 1.409 . S
C2147 H2139 0.930 . S
C2147 C2148 1.355 . S
C2147 C2149 1.415 . S
C2148 C2147 1.355 . S
C2148 C2150 1.419 1_455 S
C2149 C2144 1.425 . S
C2149 C2146 1.409 . S
C2149 C2147 1.415 . S
C2150 H2140 0.930 . S
C2150 C2148 1.419 1_655 S
C2150 C2151 1.362 . S
C2151 H2141 0.930 . S
C2151 C2144 1.409 1_655 S
C2151 C2150 1.362 . S
H2152 C2158 0.930 . S
H2153 C2161 0.930 . S
H2154 C2162 0.930 . S
H2155 C2163 0.930 . S
H2156 C2166 0.930 . S
H2157 C2167 0.930 . S
C2158 H2152 0.930 . S
C2158 C2159 1.355 . S
C2158 C2160 1.415 . S
C2159 C2158 1.355 . S
C2159 C2161 1.419 . S
C2160 C2158 1.415 . S
C2160 C2165 1.425 . S
C2160 C2167 1.409 . S
C2161 H2153 0.930 . S
C2161 C2159 1.419 . S
C2161 C2162 1.362 . S
C2162 H2154 0.930 . S
C2162 C2161 1.362 . S
C2162 C2165 1.409 . S
C2163 H2155 0.930 . S
C2163 C2164 1.355 . S
C2163 C2165 1.415 . S
C2164 C2163 1.355 . S
C2164 C2166 1.419 . S
C2165 C2160 1.425 . S
C2165 C2162 1.409 . S
C2165 C2163 1.415 . S
C2166 H2156 0.930 . S
C2166 C2164 1.419 . S
C2166 C2167 1.362 . S
C2167 H2157 0.930 . S
C2167 C2160 1.409 . S
C2167 C2166 1.362 . S
H2168 C2174 0.930 . S
H2169 C2177 0.930 . S
H2170 C2178 0.930 . S
H2171 C2179 0.930 . S
H2172 C2182 0.930 . S
H2173 C2183 0.930 . S
C2174 H2168 0.930 . S
C2174 C2175 1.355 . S
C2174 C2176 1.415 . S
C2175 C2174 1.355 . S
C2175 C2177 1.419 . S
C2176 C2174 1.415 . S
C2176 C2181 1.425 . S
C2176 C2183 1.409 . S
C2177 H2169 0.930 . S
C2177 C2175 1.419 . S
C2177 C2178 1.362 . S
C2178 H2170 0.930 . S
C2178 C2177 1.362 . S
C2178 C2181 1.409 . S
C2179 H2171 0.930 . S
C2179 C2180 1.355 . S
C2179 C2181 1.415 . S
C2180 C2179 1.355 . S
C2180 C2182 1.419 . S
C2181 C2176 1.425 . S
C2181 C2178 1.409 . S
C2181 C2179 1.415 . S
C2182 H2172 0.930 . S
C2182 C2180 1.419 . S
C2182 C2183 1.362 . S
C2183 H2173 0.930 . S
C2183 C2176 1.409 . S
C2183 C2182 1.362 . S
H2184 C2190 0.930 . S
H2185 C2193 0.930 . S
H2186 C2194 0.930 . S
H2187 C2195 0.930 . S
H2188 C2198 0.930 . S
H2189 C2199 0.930 . S
C2190 H2184 0.930 . S
C2190 C2191 1.355 . S
C2190 C2192 1.415 . S
C2191 C2190 1.355 . S
C2191 C2193 1.419 . S
C2192 C2190 1.415 . S
C2192 C2197 1.425 . S
C2192 C2199 1.409 . S
C2193 H2185 0.930 . S
C2193 C2191 1.419 . S
C2193 C2194 1.362 . S
C2194 H2186 0.930 . S
C2194 C2193 1.362 . S
C2194 C2197 1.409 . S
C2195 H2187 0.930 . S
C2195 C2196 1.355 . S
C2195 C2197 1.415 . S
C2196 C2195 1.355 . S
C2196 C2198 1.419 . S
C2197 C2192 1.425 . S
C2197 C2194 1.409 . S
C2197 C2195 1.415 . S
C2198 H2188 0.930 . S
C2198 C2196 1.419 . S
C2198 C2199 1.362 . S
C2199 H2189 0.930 . S
C2199 C2192 1.409 . S
C2199 C2198 1.362 . S
H2200 C2206 0.930 . S
H2201 C2209 0.930 . S
H2202 C2210 0.930 . S
H2203 C2211 0.930 . S
H2204 C2214 0.930 . S
H2205 C2215 0.930 . S
C2206 H2200 0.930 . S
C2206 C2207 1.355 . S
C2206 C2208 1.415 . S
C2207 C2206 1.355 . S
C2207 C2209 1.419 . S
C2208 C2206 1.415 . S
C2208 C2213 1.425 . S
C2208 C2215 1.409 . S
C2209 H2201 0.930 . S
C2209 C2207 1.419 . S
C2209 C2210 1.362 . S
C2210 H2202 0.930 . S
C2210 C2209 1.362 . S
C2210 C2213 1.409 . S
C2211 H2203 0.930 . S
C2211 C2212 1.355 . S
C2211 C2213 1.415 . S
C2212 C2211 1.355 . S
C2212 C2214 1.419 . S
C2213 C2208 1.425 . S
C2213 C2210 1.409 . S
C2213 C2211 1.415 . S
C2214 H2204 0.930 . S
C2214 C2212 1.419 . S
C2214 C2215 1.362 . S
C2215 H2205 0.930 . S
C2215 C2208 1.409 . S
C2215 C2214 1.362 . S
H2216 C2222 0.930 . S
H2217 C2225 0.930 . S
H2218 C2226 0.930 . S
H2219 C2227 0.930 . S
H2220 C2230 0.930 . S
H2221 C2231 0.930 . S
C2222 H2216 0.930 . S
C2222 C2223 1.355 . S
C2222 C2224 1.415 . S
C2223 C2222 1.355 . S
C2223 C2225 1.419 . S
C2224 C2222 1.415 . S
C2224 C2229 1.425 . S
C2224 C2231 1.409 . S
C2225 H2217 0.930 . S
C2225 C2223 1.419 . S
C2225 C2226 1.362 . S
C2226 H2218 0.930 . S
C2226 C2225 1.362 . S
C2226 C2229 1.409 . S
C2227 H2219 0.930 . S
C2227 C2228 1.355 . S
C2227 C2229 1.415 . S
C2228 C2227 1.355 . S
C2228 C2230 1.419 . S
C2229 C2224 1.425 . S
C2229 C2226 1.409 . S
C2229 C2227 1.415 . S
C2230 H2220 0.930 . S
C2230 C2228 1.419 . S
C2230 C2231 1.362 . S
C2231 H2221 0.930 . S
C2231 C2224 1.409 . S
C2231 C2230 1.362 . S
H2232 C2238 0.930 . S
H2233 C2241 0.930 . S
H2234 C2242 0.930 . S
H2235 C2243 0.930 . S
H2236 C2246 0.930 . S
H2237 C2247 0.930 . S
C2238 H2232 0.930 . S
C2238 C2239 1.355 . S
C2238 C2240 1.415 . S
C2239 C2238 1.355 . S
C2239 C2241 1.419 . S
C2240 C2238 1.415 . S
C2240 C2245 1.425 . S
C2240 C2247 1.409 . S
C2241 H2233 0.930 . S
C2241 C2239 1.419 . S
C2241 C2242 1.362 . S
C2242 H2234 0.930 . S
C2242 C2241 1.362 . S
C2242 C2245 1.409 . S
C2243 H2235 0.930 . S
C2243 C2244 1.355 . S
C2243 C2245 1.415 . S
C2244 C2243 1.355 . S
C2244 C2246 1.419 . S
C2245 C2240 1.425 . S
C2245 C2242 1.409 . S
C2245 C2243 1.415 . S
C2246 H2236 0.930 . S
C2246 C2244 1.419 . S
C2246 C2247 1.362 . S
C2247 H2237 0.930 . S
C2247 C2240 1.409 . S
C2247 C2246 1.362 . S
H2248 C2254 0.930 . S
H2249 C2257 0.930 . S
H2250 C2258 0.930 . S
H2251 C2259 0.930 . S
H2252 C2262 0.930 . S
H2253 C2263 0.930 . S
C2254 H2248 0.930 . S
C2254 C2255 1.355 . S
C2254 C2256 1.415 . S
C2255 C2254 1.355 . S
C2255 C2257 1.419 . S
C2256 C2254 1.415 . S
C2256 C2261 1.425 . S
C2256 C2263 1.409 . S
C2257 H2249 0.930 . S
C2257 C2255 1.419 . S
C2257 C2258 1.362 . S
C2258 H2250 0.930 . S
C2258 C2257 1.362 . S
C2258 C2261 1.409 . S
C2259 H2251 0.930 . S
C2259 C2260 1.355 . S
C2259 C2261 1.415 . S
C2260 C2259 1.355 . S
C2260 C2262 1.419 . S
C2261 C2256 1.425 . S
C2261 C2258 1.409 . S
C2261 C2259 1.415 . S
C2262 H2252 0.930 . S
C2262 C2260 1.419 . S
C2262 C2263 1.362 . S
C2263 H2253 0.930 . S
C2263 C2256 1.409 . S
C2263 C2262 1.362 . S
H2264 C2270 0.930 . S
H2265 C2273 0.930 . S
H2266 C2274 0.930 . S
H2267 C2275 0.930 . S
H2268 C2278 0.958 . S
H2269 C2279 0.930 . S
C2270 H2264 0.930 . S
C2270 C2271 1.355 . S
C2270 C2272 1.415 . S
C2271 C2270 1.355 . S
C2271 C2273 1.419 . S
C2272 C2270 1.415 . S
C2272 C2277 1.425 1_655 S
C2272 C2279 1.409 . S
C2273 H2265 0.930 . S
C2273 C2271 1.419 . S
C2273 C2274 1.362 1_655 S
C2274 H2266 0.930 . S
C2274 C2273 1.362 1_455 S
C2274 C2277 1.409 . S
C2275 H2267 0.930 . S
C2275 C2276 1.355 . S
C2275 C2277 1.415 . S
C2276 C2275 1.355 . S
C2276 C2278 1.410 1_456 S
C2277 C2272 1.425 1_455 S
C2277 C2274 1.409 . S
C2277 C2275 1.415 . S
C2278 H2268 0.958 . S
C2278 C2276 1.410 1_654 S
C2278 C2279 1.343 1_554 S
C2279 H2269 0.930 . S
C2279 C2272 1.409 . S
C2279 C2278 1.343 1_556 S
H2280 C2286 0.930 . S
H2281 C2289 0.930 . S
H2282 C2290 0.930 . S
H2283 C2291 0.930 . S
H2284 C2294 0.930 . S
H2285 C2295 0.930 . S
C2286 H2280 0.930 . S
C2286 C2287 1.355 . S
C2286 C2288 1.415 . S
C2287 C2286 1.355 . S
C2287 C2289 1.419 . S
C2288 C2286 1.415 . S
C2288 C2293 1.425 . S
C2288 C2295 1.409 . S
C2289 H2281 0.930 . S
C2289 C2287 1.419 . S
C2289 C2290 1.362 . S
C2290 H2282 0.930 . S
C2290 C2289 1.362 . S
C2290 C2293 1.409 . S
C2291 H2283 0.930 . S
C2291 C2292 1.355 . S
C2291 C2293 1.415 . S
C2292 C2291 1.355 . S
C2292 C2294 1.419 . S
C2293 C2288 1.425 . S
C2293 C2290 1.409 . S
C2293 C2291 1.415 . S
C2294 H2284 0.930 . S
C2294 C2292 1.419 . S
C2294 C2295 1.362 . S
C2295 H2285 0.930 . S
C2295 C2288 1.409 . S
C2295 C2294 1.362 . S
H2296 C2302 0.930 . S
H2297 C2305 0.930 . S
H2298 C2306 0.930 . S
H2299 C2307 0.930 . S
H2300 C2310 0.930 . S
H2301 C2311 0.930 . S
C2302 H2296 0.930 . S
C2302 C2303 1.355 . S
C2302 C2304 1.415 . S
C2303 C2302 1.355 . S
C2303 C2305 1.419 . S
C2304 C2302 1.415 . S
C2304 C2309 1.425 . S
C2304 C2311 1.409 . S
C2305 H2297 0.930 . S
C2305 C2303 1.419 . S
C2305 C2306 1.362 . S
C2306 H2298 0.930 . S
C2306 C2305 1.362 . S
C2306 C2309 1.409 . S
C2307 H2299 0.930 . S
C2307 C2308 1.355 . S
C2307 C2309 1.415 . S
C2308 C2307 1.355 . S
C2308 C2310 1.419 . S
C2309 C2304 1.425 . S
C2309 C2306 1.409 . S
C2309 C2307 1.415 . S
C2310 H2300 0.930 . S
C2310 C2308 1.419 . S
C2310 C2311 1.362 . S
C2311 H2301 0.930 . S
C2311 C2304 1.409 . S
C2311 C2310 1.362 . S
H2312 C2318 0.930 . S
H2313 C2321 0.930 . S
H2314 C2322 0.930 . S
H2315 C2323 0.930 . S
H2316 C2326 0.930 . S
H2317 C2327 0.930 . S
C2318 H2312 0.930 . S
C2318 C2319 1.355 . S
C2318 C2320 1.415 . S
C2319 C2318 1.355 . S
C2319 C2321 1.419 1_556 S
C2320 C2318 1.415 . S
C2320 C2325 1.425 . S
C2320 C2327 1.409 . S
C2321 H2313 0.930 . S
C2321 C2319 1.419 1_554 S
C2321 C2322 1.362 1_554 S
C2322 H2314 0.930 . S
C2322 C2321 1.362 1_556 S
C2322 C2325 1.409 . S
C2323 H2315 0.930 . S
C2323 C2324 1.355 . S
C2323 C2325 1.415 . S
C2324 C2323 1.355 . S
C2324 C2326 1.419 . S
C2325 C2320 1.425 . S
C2325 C2322 1.409 . S
C2325 C2323 1.415 . S
C2326 H2316 0.930 . S
C2326 C2324 1.419 . S
C2326 C2327 1.362 . S
C2327 H2317 0.930 . S
C2327 C2320 1.409 . S
C2327 C2326 1.362 . S
H2328 C2334 0.930 . S
H2329 C2337 0.930 . S
H2330 C2338 0.930 . S
H2331 C2339 0.930 . S
H2332 C2342 0.930 . S
H2333 C2343 0.930 . S
C2334 H2328 0.930 . S
C2334 C2335 1.355 . S
C2334 C2336 1.415 . S
C2335 C2334 1.355 . S
C2335 C2337 1.419 . S
C2336 C2334 1.415 . S
C2336 C2341 1.425 . S
C2336 C2343 1.409 1_655 S
C2337 H2329 0.930 . S
C2337 C2335 1.419 . S
C2337 C2338 1.362 . S
C2338 H2330 0.930 . S
C2338 C2337 1.362 . S
C2338 C2341 1.409 . S
C2339 H2331 0.930 . S
C2339 C2340 1.355 . S
C2339 C2341 1.415 . S
C2340 C2339 1.355 . S
C2340 C2342 1.419 1_655 S
C2341 C2336 1.425 . S
C2341 C2338 1.409 . S
C2341 C2339 1.415 . S
C2342 H2332 0.930 . S
C2342 C2340 1.419 1_455 S
C2342 C2343 1.362 . S
C2343 H2333 0.930 . S
C2343 C2336 1.409 1_455 S
C2343 C2342 1.362 . S
H2344 C2350 0.930 . S
H2345 C2353 0.930 . S
H2346 C2354 0.930 . S
H2347 C2355 0.930 . S
H2348 C2358 0.930 . S
H2349 C2359 0.930 . S
C2350 H2344 0.930 . S
C2350 C2351 1.355 . S
C2350 C2352 1.415 . S
C2351 C2350 1.355 . S
C2351 C2353 1.419 . S
C2352 C2350 1.415 . S
C2352 C2357 1.425 . S
C2352 C2359 1.409 . S
C2353 H2345 0.930 . S
C2353 C2351 1.419 . S
C2353 C2354 1.362 . S
C2354 H2346 0.930 . S
C2354 C2353 1.362 . S
C2354 C2357 1.409 . S
C2355 H2347 0.930 . S
C2355 C2356 1.355 . S
C2355 C2357 1.415 . S
C2356 C2355 1.355 . S
C2356 C2358 1.419 . S
C2357 C2352 1.425 . S
C2357 C2354 1.409 . S
C2357 C2355 1.415 . S
C2358 H2348 0.930 . S
C2358 C2356 1.419 . S
C2358 C2359 1.362 . S
C2359 H2349 0.930 . S
C2359 C2352 1.409 . S
C2359 C2358 1.362 . S
H2360 C2366 0.930 . S
H2361 C2369 0.930 . S
H2362 C2370 0.930 . S
H2363 C2371 0.930 . S
H2364 C2374 0.930 . S
H2365 C2375 0.930 . S
C2366 H2360 0.930 . S
C2366 C2367 1.355 . S
C2366 C2368 1.415 . S
C2367 C2366 1.355 . S
C2367 C2369 1.419 . S
C2368 C2366 1.415 . S
C2368 C2373 1.425 . S
C2368 C2375 1.409 . S
C2369 H2361 0.930 . S
C2369 C2367 1.419 . S
C2369 C2370 1.362 . S
C2370 H2362 0.930 . S
C2370 C2369 1.362 . S
C2370 C2373 1.409 . S
C2371 H2363 0.930 . S
C2371 C2372 1.355 . S
C2371 C2373 1.415 . S
C2372 C2371 1.355 . S
C2372 C2374 1.419 . S
C2373 C2368 1.425 . S
C2373 C2370 1.409 . S
C2373 C2371 1.415 . S
C2374 H2364 0.930 . S
C2374 C2372 1.419 . S
C2374 C2375 1.362 . S
C2375 H2365 0.930 . S
C2375 C2368 1.409 . S
C2375 C2374 1.362 . S
H2376 C2382 0.930 . S
H2377 C2385 0.930 . S
H2378 C2386 0.930 . S
H2379 C2387 0.930 . S
H2380 C2390 0.930 . S
H2381 C2391 0.930 . S
C2382 H2376 0.930 . S
C2382 C2383 1.355 . S
C2382 C2384 1.415 . S
C2383 C2382 1.355 . S
C2383 C2385 1.419 . S
C2384 C2382 1.415 . S
C2384 C2389 1.425 . S
C2384 C2391 1.409 . S
C2385 H2377 0.930 . S
C2385 C2383 1.419 . S
C2385 C2386 1.362 . S
C2386 H2378 0.930 . S
C2386 C2385 1.362 . S
C2386 C2389 1.409 . S
C2387 H2379 0.930 . S
C2387 C2388 1.355 . S
C2387 C2389 1.415 . S
C2388 C2387 1.355 . S
C2388 C2390 1.419 . S
C2389 C2384 1.425 . S
C2389 C2386 1.409 . S
C2389 C2387 1.415 . S
C2390 H2380 0.930 . S
C2390 C2388 1.419 . S
C2390 C2391 1.362 . S
C2391 H2381 0.930 . S
C2391 C2384 1.409 . S
C2391 C2390 1.362 . S
H2392 C2398 0.930 . S
H2393 C2401 0.930 . S
H2394 C2402 0.930 . S
H2395 C2403 0.930 . S
H2396 C2406 0.930 . S
H2397 C2407 0.930 . S
C2398 H2392 0.930 . S
C2398 C2399 1.355 . S
C2398 C2400 1.415 . S
C2399 C2398 1.355 . S
C2399 C2401 1.419 . S
C2400 C2398 1.415 . S
C2400 C2405 1.425 . S
C2400 C2407 1.409 . S
C2401 H2393 0.930 . S
C2401 C2399 1.419 . S
C2401 C2402 1.362 . S
C2402 H2394 0.930 . S
C2402 C2401 1.362 . S
C2402 C2405 1.409 . S
C2403 H2395 0.930 . S
C2403 C2404 1.355 . S
C2403 C2405 1.415 . S
C2404 C2403 1.355 . S
C2404 C2406 1.419 . S
C2405 C2400 1.425 . S
C2405 C2402 1.409 . S
C2405 C2403 1.415 . S
C2406 H2396 0.930 . S
C2406 C2404 1.419 . S
C2406 C2407 1.362 . S
C2407 H2397 0.930 . S
C2407 C2400 1.409 . S
C2407 C2406 1.362 . S
H2408 C2414 0.930 . S
H2409 C2417 0.930 . S
H2410 C2418 0.930 . S
H2411 C2419 0.930 . S
H2412 C2422 0.930 . S
H2413 C2423 0.930 . S
C2414 H2408 0.930 . S
C2414 C2415 1.355 . S
C2414 C2416 1.415 . S
C2415 C2414 1.355 . S
C2415 C2417 1.419 . S
C2416 C2414 1.415 . S
C2416 C2421 1.425 . S
C2416 C2423 1.409 . S
C2417 H2409 0.930 . S
C2417 C2415 1.419 . S
C2417 C2418 1.362 . S
C2418 H2410 0.930 . S
C2418 C2417 1.362 . S
C2418 C2421 1.409 . S
C2419 H2411 0.930 . S
C2419 C2420 1.355 . S
C2419 C2421 1.415 . S
C2420 C2419 1.355 . S
C2420 C2422 1.419 . S
C2421 C2416 1.425 . S
C2421 C2418 1.409 . S
C2421 C2419 1.415 . S
C2422 H2412 0.930 . S
C2422 C2420 1.419 . S
C2422 C2423 1.362 . S
C2423 H2413 0.930 . S
C2423 C2416 1.409 . S
C2423 C2422 1.362 . S
H2424 C2430 0.930 . S
H2425 C2433 0.930 . S
H2426 C2434 0.930 . S
H2427 C2435 0.930 . S
H2428 C2438 0.930 . S
H2429 C2439 0.930 . S
C2430 H2424 0.930 . S
C2430 C2431 1.355 . S
C2430 C2432 1.415 . S
C2431 C2430 1.355 . S
C2431 C2433 1.419 . S
C2432 C2430 1.415 . S
C2432 C2437 1.425 . S
C2432 C2439 1.409 . S
C2433 H2425 0.930 . S
C2433 C2431 1.419 . S
C2433 C2434 1.362 . S
C2434 H2426 0.930 . S
C2434 C2433 1.362 . S
C2434 C2437 1.409 . S
C2435 H2427 0.930 . S
C2435 C2436 1.355 . S
C2435 C2437 1.415 . S
C2436 C2435 1.355 . S
C2436 C2438 1.419 . S
C2437 C2432 1.425 . S
C2437 C2434 1.409 . S
C2437 C2435 1.415 . S
C2438 H2428 0.930 . S
C2438 C2436 1.419 . S
C2438 C2439 1.362 . S
C2439 H2429 0.930 . S
C2439 C2432 1.409 . S
C2439 C2438 1.362 . S
H2440 C2446 0.930 . S
H2441 C2449 0.930 . S
H2442 C2450 0.930 . S
H2443 C2451 0.930 . S
H2444 C2454 0.930 . S
H2445 C2455 0.930 . S
C2446 H2440 0.930 . S
C2446 C2447 1.355 . S
C2446 C2448 1.415 . S
C2447 C2446 1.355 . S
C2447 C2449 1.419 . S
C2448 C2446 1.415 . S
C2448 C2453 1.425 . S
C2448 C2455 1.409 . S
C2449 H2441 0.930 . S
C2449 C2447 1.419 . S
C2449 C2450 1.362 . S
C2450 H2442 0.930 . S
C2450 C2449 1.362 . S
C2450 C2453 1.409 . S
C2451 H2443 0.930 . S
C2451 C2452 1.355 . S
C2451 C2453 1.415 . S
C2452 C2451 1.355 . S
C2452 C2454 1.419 . S
C2453 C2448 1.425 . S
C2453 C2450 1.409 . S
C2453 C2451 1.415 . S
C2454 H2444 0.930 . S
C2454 C2452 1.419 . S
C2454 C2455 1.362 . S
C2455 H2445 0.930 . S
C2455 C2448 1.409 . S
C2455 C2454 1.362 . S
H2456 C2462 0.930 . S
H2457 C2465 0.930 . S
H2458 C2466 0.930 . S
H2459 C2467 0.930 . S
H2460 C2470 0.930 . S
H2461 C2471 0.930 . S
C2462 H2456 0.930 . S
C2462 C2463 1.355 . S
C2462 C2464 1.415 . S
C2463 C2462 1.355 . S
C2463 C2465 1.419 . S
C2464 C2462 1.415 . S
C2464 C2469 1.425 . S
C2464 C2471 1.409 . S
C2465 H2457 0.930 . S
C2465 C2463 1.419 . S
C2465 C2466 1.362 . S
C2466 H2458 0.930 . S
C2466 C2465 1.362 . S
C2466 C2469 1.409 . S
C2467 H2459 0.930 . S
C2467 C2468 1.355 . S
C2467 C2469 1.415 . S
C2468 C2467 1.355 . S
C2468 C2470 1.419 . S
C2469 C2464 1.425 . S
C2469 C2466 1.409 . S
C2469 C2467 1.415 . S
C2470 H2460 0.930 . S
C2470 C2468 1.419 . S
C2470 C2471 1.362 . S
C2471 H2461 0.930 . S
C2471 C2464 1.409 . S
C2471 C2470 1.362 . S
H2472 C2478 0.930 . S
H2473 C2481 0.930 . S
H2474 C2482 0.930 . S
H2475 C2483 0.930 . S
H2476 C2486 0.930 . S
H2477 C2487 0.930 . S
C2478 H2472 0.930 . S
C2478 C2479 1.355 . S
C2478 C2480 1.415 . S
C2479 C2478 1.355 . S
C2479 C2481 1.419 . S
C2480 C2478 1.415 . S
C2480 C2485 1.425 . S
C2480 C2487 1.409 . S
C2481 H2473 0.930 . S
C2481 C2479 1.419 . S
C2481 C2482 1.362 . S
C2482 H2474 0.930 . S
C2482 C2481 1.362 . S
C2482 C2485 1.409 . S
C2483 H2475 0.930 . S
C2483 C2484 1.355 . S
C2483 C2485 1.415 . S
C2484 C2483 1.355 . S
C2484 C2486 1.419 . S
C2485 C2480 1.425 . S
C2485 C2482 1.409 . S
C2485 C2483 1.415 . S
C2486 H2476 0.930 . S
C2486 C2484 1.419 . S
C2486 C2487 1.362 . S
C2487 H2477 0.930 . S
C2487 C2480 1.409 . S
C2487 C2486 1.362 . S
C959 C101 1.627 . S
C964 C318 1.518 . S
C975 C57 2.058 . S
C980 C370 1.890 . S
C991 C70 1.278 . S
C996 C402 1.277 1_565 S
C1012 C451 2.388 . S
C1007 C82 2.381 . S
C1023 C23 1.043 . S
C1028 C487 0.983 . S
C1044 C518 0.551 . S
C1039 C29 0.519 . S
C1060 C570 0.544 . S
C1055 C49 0.446 . S
C1071 C10 2.550 . S
C1076 C598 2.405 . S
C1092 C330 1.987 . S
C1087 C218 2.159 . S
C1103 C226 1.694 . S
C1108 C371 1.707 . S
C1124 C401 1.794 . S
C1119 C251 1.901 . S
C1140 C438 0.690 . S
C1135 C159 0.672 . S
C1151 C211 1.793 . S
C1156 C482 1.784 . S
C1172 C530 1.979 . S
C1167 C225 1.959 . S
C1188 C571 1.635 . S
C1183 C252 1.617 . S
C1204 C610 2.052 . S
C1199 C166 2.246 . S
C1220 C331 2.339 . S
C1215 C147 2.329 . S
C1231 C263 1.468 . S
C1236 C641 1.443 . S
C1252 C691 2.348 . S
C1247 C309 2.341 . S
C1268 C718 0.947 . S
C1263 C291 0.980 . S
C1279 C108 2.803 . S
C1284 C611 2.771 . S
C1295 C121 1.561 . S
C1300 C407 1.466 . S
C1311 C302 2.502 . S
C1316 C770 2.397 . S
C1332 C798 1.314 . S
C1327 C276 1.386 . S
C1348 C327 1.319 . S
C1343 C55 1.386 . S
C1364 C801 2.053 . S
C1359 C96 2.212 . S
C1375 C88 1.598 . S
C1380 C411 1.582 . S
C1391 C75 2.797 . S
C1396 C762 2.788 . S
C1412 C478 1.294 . S
C1407 C4 1.302 . S
C1423 C44 0.914 . S
C1428 C687 0.910 . S
C1444 C561 0.641 . S
C1439 C31 0.512 . S
C1460 C847 1.478 . S
C1455 C18 1.573 . S
C1476 C321 2.143 . S
C1471 C133 2.266 . S
C1492 C802 1.992 . S
C1487 C296 1.967 . S
C1503 C107 2.192 . S
C1508 C410 2.114 . S
C1519 C264 0.856 . S
C1524 C767 0.878 . S
C1535 C140 2.077 . S
C1540 C491 2.061 . S
C1556 C681 2.094 . S
C1551 C289 2.051 . S
C1567 C114 2.033 . S
C1572 C562 2.056 . S
C1583 C265 1.923 . S
C1588 C841 1.806 . S
C1599 C179 2.464 . S
C1604 C322 2.467 1_655 S
C1615 C161 2.091 . S
C1620 C650 2.045 . S
C1631 C244 2.730 . S
C1636 C522 2.731 . S
C1647 C224 1.250 . S
C1652 C727 1.265 . S
C1668 C842 2.564 . S
C1663 C257 2.563 . S
C1679 C199 1.662 . S
C1684 C398 1.553 . S
C1700 C441 2.574 . S
C1695 C237 2.694 . S
C1716 C367 1.366 . S
C1711 C185 1.469 . S
C1727 C69 1.620 . S
C1732 C878 1.517 . S
C1748 C810 1.946 . S
C1743 C83 2.094 . S
C1759 C94 1.321 . S
C1764 C922 1.360 . S
C1775 C56 2.393 . S
C1780 C771 2.401 . S
C1791 C42 1.156 . S
C1796 C647 1.134 . S
C1812 C678 0.559 . S
C1807 C3 0.556 . S
C1828 C730 0.335 . S
C1823 C16 0.513 . S
C1844 C838 1.994 . S
C1839 C36 2.152 . S
C1860 C890 1.951 . S
C1855 C238 2.155 . S
C1871 C174 1.720 1_556 S
C1876 C811 1.744 . S
C1892 C921 1.750 . S
C1887 C186 1.870 . S
C1908 C758 0.707 . S
C1903 C198 0.705 . S
C1924 C642 1.857 1_556 S
C1919 C239 1.821 . S
C1935 C173 2.031 . S
C1940 C690 2.036 . S
C1956 C731 1.658 . S
C1951 C187 1.648 . S
C1967 C205 2.294 . S
C1972 C850 2.092 . S
C1988 C891 2.340 . S
C1983 C290 2.304 . S
C1999 C122 1.594 . S
C2004 C481 1.600 . S
C2020 C531 2.339 . S
C2015 C134 2.323 1_565 S
C2036 C558 1.065 . S
C2031 C148 1.071 . S
C2052 C851 2.776 . S
C2047 C283 2.812 . S
C2063 C270 1.347 . S
C2068 C927 1.229 . S
C2084 C450 2.385 . S
C2079 C135 2.500 . S
C2100 C358 1.231 1_545 S
C2095 C109 1.319 . S
C2111 C81 1.437 . S
C2116 C887 1.391 . S
C2132 C361 2.091 . S
C2127 C68 2.212 . S
C2143 C62 1.595 . S
C2148 C931 1.634 . S
C2159 C95 2.807 . S
C2164 C442 2.800 . S
C2175 C30 1.249 . S
C2180 C638 1.197 . S
C2196 C527 0.811 . S
C2191 C17 0.833 . S
C2207 C5 0.589 . S
C2212 C721 0.616 . S
C2223 C43 1.478 . S
C2228 C607 1.400 . S
C2244 C881 2.054 . S
C2239 C304 2.224 . S
C2255 C153 2.003 . S
C2260 C362 2.031 . S
C2276 C930 2.090 1_556 S
C2271 C278 2.233 . S
C2287 C127 0.895 . S
C2292 C447 0.831 . S
C2303 C303 2.120 . S
C2308 C651 2.111 . S
C2324 C521 2.129 . S
C2319 C146 2.102 1_556 S
C2335 C277 2.009 . S
C2340 C722 2.018 1_655 S
C2356 C601 1.709 . S
C2351 C120 1.839 . S
C2372 C882 2.478 . S
C2367 C231 2.472 . S
C2388 C490 2.047 . S
C2383 C200 2.100 . S
C2399 C212 2.720 . S
C2404 C682 2.713 . S
C2420 C567 1.260 . S
C2415 C172 1.276 . S
C2431 C192 2.547 . S
C2436 C602 2.545 . S
C2447 C160 1.639 . S
C2452 C918 1.535 . S
C2468 C761 2.562 . S
C2463 C213 2.696 1_565 S
C2484 C807 1.437 . S
C2479 C250 1.516 . S
